# Generated by pormake.
# Topology yfu, (5)-cn, num edge types: 1
# Building blocks:
#     Node 0, Type 0, BuildingBlock: BEQFEK_clean_sbu_0, # of connection points: 5
#     Node 1, Type 0, BuildingBlock: BEQFEK_clean_sbu_0, # of connection points: 5
#     Node 2, Type 0, BuildingBlock: BEQFEK_clean_sbu_0, # of connection points: 5
#     Node 3, Type 0, BuildingBlock: BEQFEK_clean_sbu_0, # of connection points: 5
#     Node 4, Type 0, BuildingBlock: BEQFEK_clean_sbu_0, # of connection points: 5
#     Node 5, Type 0, BuildingBlock: BEQFEK_clean_sbu_0, # of connection points: 5
#     Node 6, Type 0, BuildingBlock: BEQFEK_clean_sbu_0, # of connection points: 5
#     Node 7, Type 0, BuildingBlock: BEQFEK_clean_sbu_0, # of connection points: 5
#     Node 8, Type 0, BuildingBlock: BEQFEK_clean_sbu_0, # of connection points: 5
#     Node 9, Type 0, BuildingBlock: BEQFEK_clean_sbu_0, # of connection points: 5
#     Node 10, Type 0, BuildingBlock: BEQFEK_clean_sbu_0, # of connection points: 5
#     Node 11, Type 0, BuildingBlock: BEQFEK_clean_sbu_0, # of connection points: 5
#     Node 12, Type 0, BuildingBlock: BEQFEK_clean_sbu_0, # of connection points: 5
#     Node 13, Type 0, BuildingBlock: BEQFEK_clean_sbu_0, # of connection points: 5
#     Node 14, Type 0, BuildingBlock: BEQFEK_clean_sbu_0, # of connection points: 5
#     Node 15, Type 0, BuildingBlock: BEQFEK_clean_sbu_0, # of connection points: 5
#     Node 16, Type 0, BuildingBlock: BEQFEK_clean_sbu_0, # of connection points: 5
#     Node 17, Type 0, BuildingBlock: BEQFEK_clean_sbu_0, # of connection points: 5
#     Node 18, Type 0, BuildingBlock: BEQFEK_clean_sbu_0, # of connection points: 5
#     Node 19, Type 0, BuildingBlock: BEQFEK_clean_sbu_0, # of connection points: 5
#     Node 20, Type 0, BuildingBlock: BEQFEK_clean_sbu_0, # of connection points: 5
#     Node 21, Type 0, BuildingBlock: BEQFEK_clean_sbu_0, # of connection points: 5
#     Node 22, Type 0, BuildingBlock: BEQFEK_clean_sbu_0, # of connection points: 5
#     Node 23, Type 0, BuildingBlock: BEQFEK_clean_sbu_0, # of connection points: 5
#     Node 24, Type 0, BuildingBlock: BEQFEK_clean_sbu_0, # of connection points: 5
#     Node 25, Type 0, BuildingBlock: BEQFEK_clean_sbu_0, # of connection points: 5
#     Node 26, Type 0, BuildingBlock: BEQFEK_clean_sbu_0, # of connection points: 5
#     Node 27, Type 0, BuildingBlock: BEQFEK_clean_sbu_0, # of connection points: 5
#     Node 28, Type 0, BuildingBlock: BEQFEK_clean_sbu_0, # of connection points: 5
#     Node 29, Type 0, BuildingBlock: BEQFEK_clean_sbu_0, # of connection points: 5
#     Node 30, Type 0, BuildingBlock: BEQFEK_clean_sbu_0, # of connection points: 5
#     Node 31, Type 0, BuildingBlock: BEQFEK_clean_sbu_0, # of connection points: 5
#     Edge 32, Type (0, 0), BuildingBlock: KIFKEQ_clean_linker_1, # of connection points: 2
#     Edge 33, Type (0, 0), BuildingBlock: KIFKEQ_clean_linker_1, # of connection points: 2
#     Edge 34, Type (0, 0), BuildingBlock: KIFKEQ_clean_linker_1, # of connection points: 2
#     Edge 35, Type (0, 0), BuildingBlock: KIFKEQ_clean_linker_1, # of connection points: 2
#     Edge 36, Type (0, 0), BuildingBlock: KIFKEQ_clean_linker_1, # of connection points: 2
#     Edge 37, Type (0, 0), BuildingBlock: KIFKEQ_clean_linker_1, # of connection points: 2
#     Edge 38, Type (0, 0), BuildingBlock: KIFKEQ_clean_linker_1, # of connection points: 2
#     Edge 39, Type (0, 0), BuildingBlock: KIFKEQ_clean_linker_1, # of connection points: 2
#     Edge 40, Type (0, 0), BuildingBlock: KIFKEQ_clean_linker_1, # of connection points: 2
#     Edge 41, Type (0, 0), BuildingBlock: KIFKEQ_clean_linker_1, # of connection points: 2
#     Edge 42, Type (0, 0), BuildingBlock: KIFKEQ_clean_linker_1, # of connection points: 2
#     Edge 43, Type (0, 0), BuildingBlock: KIFKEQ_clean_linker_1, # of connection points: 2
#     Edge 44, Type (0, 0), BuildingBlock: KIFKEQ_clean_linker_1, # of connection points: 2
#     Edge 45, Type (0, 0), BuildingBlock: KIFKEQ_clean_linker_1, # of connection points: 2
#     Edge 46, Type (0, 0), BuildingBlock: KIFKEQ_clean_linker_1, # of connection points: 2
#     Edge 47, Type (0, 0), BuildingBlock: KIFKEQ_clean_linker_1, # of connection points: 2
#     Edge 48, Type (0, 0), BuildingBlock: KIFKEQ_clean_linker_1, # of connection points: 2
#     Edge 49, Type (0, 0), BuildingBlock: KIFKEQ_clean_linker_1, # of connection points: 2
#     Edge 50, Type (0, 0), BuildingBlock: KIFKEQ_clean_linker_1, # of connection points: 2
#     Edge 51, Type (0, 0), BuildingBlock: KIFKEQ_clean_linker_1, # of connection points: 2
#     Edge 52, Type (0, 0), BuildingBlock: KIFKEQ_clean_linker_1, # of connection points: 2
#     Edge 53, Type (0, 0), BuildingBlock: KIFKEQ_clean_linker_1, # of connection points: 2
#     Edge 54, Type (0, 0), BuildingBlock: KIFKEQ_clean_linker_1, # of connection points: 2
#     Edge 55, Type (0, 0), BuildingBlock: KIFKEQ_clean_linker_1, # of connection points: 2
#     Edge 56, Type (0, 0), BuildingBlock: KIFKEQ_clean_linker_1, # of connection points: 2
#     Edge 57, Type (0, 0), BuildingBlock: KIFKEQ_clean_linker_1, # of connection points: 2
#     Edge 58, Type (0, 0), BuildingBlock: KIFKEQ_clean_linker_1, # of connection points: 2
#     Edge 59, Type (0, 0), BuildingBlock: KIFKEQ_clean_linker_1, # of connection points: 2
#     Edge 60, Type (0, 0), BuildingBlock: KIFKEQ_clean_linker_1, # of connection points: 2
#     Edge 61, Type (0, 0), BuildingBlock: KIFKEQ_clean_linker_1, # of connection points: 2
#     Edge 62, Type (0, 0), BuildingBlock: KIFKEQ_clean_linker_1, # of connection points: 2
#     Edge 63, Type (0, 0), BuildingBlock: KIFKEQ_clean_linker_1, # of connection points: 2
#     Edge 64, Type (0, 0), BuildingBlock: KIFKEQ_clean_linker_1, # of connection points: 2
#     Edge 65, Type (0, 0), BuildingBlock: KIFKEQ_clean_linker_1, # of connection points: 2
#     Edge 66, Type (0, 0), BuildingBlock: KIFKEQ_clean_linker_1, # of connection points: 2
#     Edge 67, Type (0, 0), BuildingBlock: KIFKEQ_clean_linker_1, # of connection points: 2
#     Edge 68, Type (0, 0), BuildingBlock: KIFKEQ_clean_linker_1, # of connection points: 2
#     Edge 69, Type (0, 0), BuildingBlock: KIFKEQ_clean_linker_1, # of connection points: 2
#     Edge 70, Type (0, 0), BuildingBlock: KIFKEQ_clean_linker_1, # of connection points: 2
#     Edge 71, Type (0, 0), BuildingBlock: KIFKEQ_clean_linker_1, # of connection points: 2
#     Edge 72, Type (0, 0), BuildingBlock: KIFKEQ_clean_linker_1, # of connection points: 2
#     Edge 73, Type (0, 0), BuildingBlock: KIFKEQ_clean_linker_1, # of connection points: 2
#     Edge 74, Type (0, 0), BuildingBlock: KIFKEQ_clean_linker_1, # of connection points: 2
#     Edge 75, Type (0, 0), BuildingBlock: KIFKEQ_clean_linker_1, # of connection points: 2
#     Edge 76, Type (0, 0), BuildingBlock: KIFKEQ_clean_linker_1, # of connection points: 2
#     Edge 77, Type (0, 0), BuildingBlock: KIFKEQ_clean_linker_1, # of connection points: 2
#     Edge 78, Type (0, 0), BuildingBlock: KIFKEQ_clean_linker_1, # of connection points: 2
#     Edge 79, Type (0, 0), BuildingBlock: KIFKEQ_clean_linker_1, # of connection points: 2
#     Edge 80, Type (0, 0), BuildingBlock: KIFKEQ_clean_linker_1, # of connection points: 2
#     Edge 81, Type (0, 0), BuildingBlock: KIFKEQ_clean_linker_1, # of connection points: 2
#     Edge 82, Type (0, 0), BuildingBlock: KIFKEQ_clean_linker_1, # of connection points: 2
#     Edge 83, Type (0, 0), BuildingBlock: KIFKEQ_clean_linker_1, # of connection points: 2
#     Edge 84, Type (0, 0), BuildingBlock: KIFKEQ_clean_linker_1, # of connection points: 2
#     Edge 85, Type (0, 0), BuildingBlock: KIFKEQ_clean_linker_1, # of connection points: 2
#     Edge 86, Type (0, 0), BuildingBlock: KIFKEQ_clean_linker_1, # of connection points: 2
#     Edge 87, Type (0, 0), BuildingBlock: KIFKEQ_clean_linker_1, # of connection points: 2
#     Edge 88, Type (0, 0), BuildingBlock: KIFKEQ_clean_linker_1, # of connection points: 2
#     Edge 89, Type (0, 0), BuildingBlock: KIFKEQ_clean_linker_1, # of connection points: 2
#     Edge 90, Type (0, 0), BuildingBlock: KIFKEQ_clean_linker_1, # of connection points: 2
#     Edge 91, Type (0, 0), BuildingBlock: KIFKEQ_clean_linker_1, # of connection points: 2
#     Edge 92, Type (0, 0), BuildingBlock: KIFKEQ_clean_linker_1, # of connection points: 2
#     Edge 93, Type (0, 0), BuildingBlock: KIFKEQ_clean_linker_1, # of connection points: 2
#     Edge 94, Type (0, 0), BuildingBlock: KIFKEQ_clean_linker_1, # of connection points: 2
#     Edge 95, Type (0, 0), BuildingBlock: KIFKEQ_clean_linker_1, # of connection points: 2
#     Edge 96, Type (0, 0), BuildingBlock: KIFKEQ_clean_linker_1, # of connection points: 2
#     Edge 97, Type (0, 0), BuildingBlock: KIFKEQ_clean_linker_1, # of connection points: 2
#     Edge 98, Type (0, 0), BuildingBlock: KIFKEQ_clean_linker_1, # of connection points: 2
#     Edge 99, Type (0, 0), BuildingBlock: KIFKEQ_clean_linker_1, # of connection points: 2
#     Edge 100, Type (0, 0), BuildingBlock: KIFKEQ_clean_linker_1, # of connection points: 2
#     Edge 101, Type (0, 0), BuildingBlock: KIFKEQ_clean_linker_1, # of connection points: 2
#     Edge 102, Type (0, 0), BuildingBlock: KIFKEQ_clean_linker_1, # of connection points: 2
#     Edge 103, Type (0, 0), BuildingBlock: KIFKEQ_clean_linker_1, # of connection points: 2
#     Edge 104, Type (0, 0), BuildingBlock: KIFKEQ_clean_linker_1, # of connection points: 2
#     Edge 105, Type (0, 0), BuildingBlock: KIFKEQ_clean_linker_1, # of connection points: 2
#     Edge 106, Type (0, 0), BuildingBlock: KIFKEQ_clean_linker_1, # of connection points: 2
#     Edge 107, Type (0, 0), BuildingBlock: KIFKEQ_clean_linker_1, # of connection points: 2
#     Edge 108, Type (0, 0), BuildingBlock: KIFKEQ_clean_linker_1, # of connection points: 2
#     Edge 109, Type (0, 0), BuildingBlock: KIFKEQ_clean_linker_1, # of connection points: 2
#     Edge 110, Type (0, 0), BuildingBlock: KIFKEQ_clean_linker_1, # of connection points: 2
#     Edge 111, Type (0, 0), BuildingBlock: KIFKEQ_clean_linker_1, # of connection points: 2
# Relax obj value: 0.355
# Max RMSD: 0.199
# Mean RMSD: 0.199
data_MOF--net-yfu--node1-BEQFEK_clean_sbu_0--edge1-KIFKEQ_clean_linker_1
_symmetry_space_group_name_H-M    P1
_symmetry_Int_Tables_number       1
_symmetry_cell_setting            triclinic
loop_
_symmetry_equiv_pos_as_xyz
'x, y, z'
_cell_length_a     48.785192
_cell_length_b     48.810105
_cell_length_c     92.571785
_cell_angle_alpha  89.970222
_cell_angle_beta   90.04458
_cell_angle_gamma 90.039013
loop_
_atom_site_label
_atom_site_type_symbol
_atom_site_fract_x
_atom_site_fract_y
_atom_site_fract_z
_atom_type_partial_charge
Co0 Co 0.04302 0.10787 0.31416 0.0
Co1 Co 0.0627 0.05569 0.33135 0.0
C2 C 0.09127 0.10948 0.33433 0.0
O3 O 0.07488 0.12083 0.32543 0.0
O4 O 0.08889 0.0843 0.33776 0.0
C5 C 0.04435 0.15716 0.29649 0.0
O6 O 0.07115 0.15556 0.29763 0.0
C7 C 0.09572 0.0125 0.34557 0.0
C8 C 0.06995 0.97603 0.34159 0.0
C9 C 0.09478 0.98423 0.34745 0.0
N10 N 0.07291 0.02037 0.33853 0.0
N11 N 0.05741 -0.00148 0.33642 0.0
C12 C 0.1164 0.03218 0.35149 0.0
H13 H 0.10562 0.05001 0.35621 0.0
H14 H 0.12971 0.0396 0.34259 0.0
H15 H 0.12913 0.02275 0.36008 0.0
C16 C 0.05345 0.07163 0.28939 0.0
N17 N 0.05272 0.07659 0.30366 0.0
N18 N 0.06177 0.05498 0.31073 0.0
C19 C 0.06922 0.03575 0.30106 0.0
C20 C 0.06392 0.04558 0.2873 0.0
C21 C 0.04328 0.09115 0.27813 0.0
H22 H 0.02409 0.10102 0.28187 0.0
H23 H 0.05885 0.10743 0.27646 0.0
H24 H 0.0394 0.08065 0.2677 0.0
O25 O 0.01238 0.09952 0.32707 0.0
O26 O 0.02594 0.06338 0.33968 0.0
H27 H 0.06764 0.99395 0.30786 0.0
H28 H 0.09488 0.00132 0.29538 0.0
C29 C 0.08324 0.00938 0.30475 0.0
H30 H 0.09761 0.01249 0.31387 0.0
H31 H 0.03848 -0.00108 0.33117 0.0
O32 O 0.02959 0.13837 0.30196 0.0
C33 C 0.00808 0.08151 0.33671 0.0
Co34 Co 0.1374 0.80163 0.5649 0.0
Co35 Co 0.18912 0.82026 0.58289 0.0
C36 C 0.1345 0.84511 0.58808 0.0
O37 O 0.12376 0.83019 0.5783 0.0
O38 O 0.1599 0.8435 0.59117 0.0
C39 C 0.08522 0.80407 0.55021 0.0
O40 O 0.08376 0.82873 0.55583 0.0
C41 C 0.23176 0.85048 0.59923 0.0
C42 C 0.26883 0.82732 0.59302 0.0
C43 C 0.26011 0.8498 0.60091 0.0
N44 N 0.22434 0.82984 0.59043 0.0
N45 N 0.24655 0.81584 0.58697 0.0
C46 C 0.21168 0.86858 0.60685 0.0
H47 H 0.19397 0.85619 0.6105 0.0
H48 H 0.2041 0.88444 0.59925 0.0
H49 H 0.22092 0.87852 0.61646 0.0
C50 C 0.17322 0.81738 0.54071 0.0
N51 N 0.16815 0.81469 0.5549 0.0
N52 N 0.18922 0.82392 0.56235 0.0
C53 C 0.208 0.83385 0.55305 0.0
C54 C 0.19867 0.82971 0.53904 0.0
C55 C 0.15477 0.80645 0.52913 0.0
H56 H 0.14484 0.78726 0.53284 0.0
H57 H 0.13848 0.82171 0.52686 0.0
H58 H 0.16622 0.80224 0.51903 0.0
O59 O 0.14716 0.76876 0.57583 0.0
O60 O 0.18291 0.78166 0.58896 0.0
H61 H 0.25013 0.83392 0.55942 0.0
H62 H 0.24023 0.86307 0.54875 0.0
C63 C 0.23346 0.84887 0.55741 0.0
H64 H 0.22974 0.8608 0.5674 0.0
H65 H 0.24652 0.79866 0.58027 0.0
O66 O 0.10691 0.79007 0.552 0.0
C67 C 0.1656 0.76356 0.58512 0.0
Co68 Co 0.44784 0.88177 0.81907 0.0
Co69 Co 0.43065 0.93172 0.83851 0.0
C70 C 0.40339 0.87711 0.8412 0.0
O71 O 0.41806 0.86696 0.83117 0.0
O72 O 0.40624 0.90189 0.84522 0.0
C73 C 0.44668 0.83154 0.8026 0.0
O74 O 0.42223 0.82842 0.8083 0.0
C75 C 0.39449 0.97444 0.84993 0.0
C76 C 0.42437 0.00593 0.85682 0.0
C77 C 0.39657 0.00058 0.85572 0.0
N78 N 0.41993 0.96506 0.84745 0.0
N79 N 0.4377 0.98382 0.85174 0.0
C80 C 0.36905 0.95798 0.84729 0.0
H81 H 0.36749 0.95283 0.83565 0.0
H82 H 0.35031 0.96886 0.85086 0.0
H83 H 0.37048 0.9384 0.85332 0.0
C84 C 0.43568 0.92118 0.79602 0.0
N85 N 0.43655 0.91417 0.81004 0.0
N86 N 0.42946 0.93531 0.81803 0.0
C87 C 0.42386 0.95664 0.80926 0.0
C88 C 0.42755 0.94832 0.79506 0.0
C89 C 0.44504 0.90282 0.78405 0.0
H90 H 0.46555 0.89442 0.78673 0.0
H91 H 0.43065 0.88529 0.78309 0.0
H92 H 0.44624 0.9137 0.77355 0.0
O93 O 0.48023 0.8891 0.83111 0.0
O94 O 0.46846 0.92404 0.84509 0.0
H95 H 0.43114 0.99297 0.82162 0.0
H96 H 0.41153 -0.00123 0.8053 0.0
C97 C 0.41519 0.98441 0.81437 0.0
H98 H 0.3959 0.98253 0.82056 0.0
H99 H 0.45893 0.98175 0.85093 0.0
O100 O 0.45999 0.85341 0.80511 0.0
C101 C 0.48587 0.90629 0.84098 0.0
Co102 Co 0.3541 0.20478 0.05936 0.0
Co103 Co 0.30003 0.18402 0.07438 0.0
C104 C 0.35389 0.15878 0.0811 0.0
O105 O 0.36607 0.17455 0.0722 0.0
O106 O 0.32819 0.1604 0.08324 0.0
C107 C 0.407 0.20233 0.04568 0.0
O108 O 0.40647 0.17664 0.04991 0.0
C109 C 0.25707 0.1481 0.08611 0.0
C110 C 0.22011 0.17384 0.08355 0.0
C111 C 0.229 0.1485 0.08836 0.0
N112 N 0.26451 0.17221 0.08028 0.0
N113 N 0.24234 0.18755 0.07886 0.0
C114 C 0.27618 0.12449 0.08831 0.0
H115 H 0.29096 0.12339 0.07923 0.0
H116 H 0.26488 0.10481 0.08906 0.0
H117 H 0.28788 0.12771 0.09845 0.0
C118 C 0.32228 0.19142 0.03324 0.0
N119 N 0.32506 0.19286 0.04766 0.0
N120 N 0.30297 0.18287 0.05389 0.0
C121 C 0.28572 0.17386 0.04357 0.0
C122 C 0.29725 0.17921 0.03014 0.0
C123 C 0.34252 0.20324 0.0228 0.0
H124 H 0.3515 0.22229 0.02728 0.0
H125 H 0.35934 0.18829 0.0211 0.0
H126 H 0.33282 0.20795 0.01225 0.0
O127 O 0.34252 0.2362 0.07106 0.0
O128 O 0.30465 0.22184 0.08196 0.0
H129 H 0.24344 0.1735 0.04961 0.0
H130 H 0.25271 0.1469 0.03698 0.0
C131 C 0.25965 0.15868 0.04656 0.0
H132 H 0.26275 0.14422 0.05563 0.0
H133 H 0.24237 0.20728 0.0745 0.0
O134 O 0.38624 0.21742 0.04799 0.0
C135 C 0.32257 0.24028 0.07962 0.0
Co136 Co 0.05318 0.88288 0.1665 0.0
Co137 Co 0.07378 0.9352 0.14975 0.0
C138 C 0.09796 0.87977 0.14443 0.0
O139 O 0.08231 0.86878 0.1538 0.0
O140 O 0.09682 0.90533 0.14162 0.0
C141 C 0.05228 0.8323 0.18334 0.0
O142 O 0.07887 0.83115 0.18116 0.0
C143 C 0.1069 0.97922 0.13571 0.0
C144 C 0.0786 0.0142 0.13841 0.0
C145 C 0.10411 0.00717 0.13302 0.0
N146 N 0.08427 0.97048 0.14265 0.0
N147 N 0.0674 0.99147 0.14407 0.0
C148 C 0.12933 0.9606 0.1307 0.0
H149 H 0.12065 0.94072 0.12725 0.0
H150 H 0.14373 0.95682 0.13977 0.0
H151 H 0.14068 0.9695 0.12144 0.0
C152 C 0.06714 0.917 0.19149 0.0
N153 N 0.06632 0.91265 0.17719 0.0
N154 N 0.07533 0.93457 0.17037 0.0
C155 C 0.08254 0.95355 0.18027 0.0
C156 C 0.07733 0.94306 0.19393 0.0
C157 C 0.05764 0.89667 0.20252 0.0
H158 H 0.03554 0.89235 0.20084 0.0
H159 H 0.06901 0.87722 0.20103 0.0
H160 H 0.06104 0.90409 0.2137 0.0
O161 O 0.02138 0.89414 0.15501 0.0
O162 O 0.03562 0.93051 0.14284 0.0
H163 H 0.07391 0.99406 0.17291 0.0
H164 H 0.10071 0.99255 0.18617 0.0
C165 C 0.09177 0.982 0.17668 0.0
H166 H 0.10726 0.98133 0.16794 0.0
H167 H 0.04815 0.99023 0.14894 0.0
O168 O 0.03887 0.8528 0.1787 0.0
C169 C 0.01701 0.91333 0.14604 0.0
Co170 Co 0.35933 0.80252 0.41823 0.0
Co171 Co 0.30636 0.81926 0.40085 0.0
C172 C 0.3596 0.84715 0.39575 0.0
O173 O 0.37123 0.83299 0.40556 0.0
O174 O 0.33454 0.84365 0.39234 0.0
C175 C 0.41279 0.8043 0.43165 0.0
O176 O 0.41477 0.82826 0.42526 0.0
C177 C 0.26158 0.85181 0.38803 0.0
C178 C 0.22697 0.8227 0.38971 0.0
C179 C 0.23371 0.84901 0.38542 0.0
N180 N 0.27086 0.82817 0.39366 0.0
N181 N 0.25014 0.81077 0.39446 0.0
C182 C 0.27859 0.87718 0.38659 0.0
H183 H 0.29353 0.87842 0.3956 0.0
H184 H 0.26561 0.89585 0.38653 0.0
H185 H 0.29023 0.87622 0.37631 0.0
C186 C 0.32352 0.81573 0.44288 0.0
N187 N 0.32827 0.81348 0.42863 0.0
N188 N 0.30656 0.82181 0.42141 0.0
C189 C 0.28747 0.83034 0.4309 0.0
C190 C 0.29747 0.82656 0.4448 0.0
C191 C 0.34309 0.80618 0.45428 0.0
H192 H 0.35339 0.78712 0.4507 0.0
H193 H 0.35905 0.82209 0.45593 0.0
H194 H 0.33251 0.80226 0.46467 0.0
O195 O 0.35085 0.76991 0.40656 0.0
O196 O 0.31346 0.78126 0.39436 0.0
H197 H 0.24638 0.8276 0.42299 0.0
H198 H 0.25165 0.85479 0.43591 0.0
C199 C 0.26093 0.84356 0.42673 0.0
H200 H 0.26445 0.85825 0.41781 0.0
H201 H 0.25169 0.79097 0.39865 0.0
O202 O 0.39038 0.7911 0.43081 0.0
C203 C 0.33205 0.76405 0.39757 0.0
Co204 Co 0.4553 0.10601 0.67111 0.0
Co205 Co 0.43376 0.0516 0.65667 0.0
C206 C 0.40572 0.10477 0.65165 0.0
O207 O 0.42295 0.11724 0.65964 0.0
O208 O 0.4074 0.0791 0.64938 0.0
C209 C 0.45435 0.15922 0.68442 0.0
O210 O 0.42845 0.15891 0.68053 0.0
C211 C 0.397 0.00733 0.64732 0.0
C212 C 0.42548 0.97222 0.64593 0.0
C213 C 0.39835 0.97968 0.644 0.0
N214 N 0.42223 0.01588 0.65103 0.0
N215 N 0.43917 0.99483 0.65011 0.0
C216 C 0.37199 0.02502 0.64785 0.0
H217 H 0.37348 0.03955 0.65703 0.0
H218 H 0.35312 0.01249 0.64898 0.0
H219 H 0.37065 0.03708 0.63771 0.0
C220 C 0.44587 0.07405 0.69749 0.0
N221 N 0.44579 0.07665 0.68305 0.0
N222 N 0.4365 0.05391 0.67715 0.0
C223 C 0.43008 0.03613 0.68775 0.0
C224 C 0.43584 0.04835 0.70093 0.0
C225 C 0.45432 0.09633 0.70767 0.0
H226 H 0.44182 0.11486 0.70551 0.0
H227 H 0.45167 0.09021 0.71912 0.0
H228 H 0.47609 0.10173 0.70566 0.0
O229 O 0.48537 0.09523 0.65818 0.0
O230 O 0.46956 0.058 0.64713 0.0
H231 H 0.41571 0.99663 0.69551 0.0
H232 H 0.40049 0.00854 0.67883 0.0
C233 C 0.41967 0.00767 0.68526 0.0
H234 H 0.43509 0.99599 0.67901 0.0
H235 H 0.46009 0.99588 0.65242 0.0
O236 O 0.46902 0.13815 0.68215 0.0
C237 C 0.48812 0.0759 0.64911 0.0
Co238 Co 0.1401 0.20045 0.91019 0.0
Co239 Co 0.19008 0.1846 0.89051 0.0
C240 C 0.13539 0.15755 0.88736 0.0
O241 O 0.12537 0.17096 0.89788 0.0
O242 O 0.15989 0.16123 0.88305 0.0
C243 C 0.08997 0.19812 0.92671 0.0
O244 O 0.08717 0.1738 0.92082 0.0
C245 C 0.23202 0.14837 0.87869 0.0
C246 C 0.26441 0.17771 0.87239 0.0
C247 C 0.25834 0.14997 0.87301 0.0
N248 N 0.2232 0.17392 0.88136 0.0
N249 N 0.24245 0.19139 0.87738 0.0
C250 C 0.21646 0.1232 0.88299 0.0
H251 H 0.20088 0.12822 0.8913 0.0
H252 H 0.23056 0.1073 0.88725 0.0
H253 H 0.20573 0.11484 0.87338 0.0
C254 C 0.17904 0.1861 0.93309 0.0
N255 N 0.17247 0.18871 0.91908 0.0
N256 N 0.19358 0.18177 0.91103 0.0
C257 C 0.21447 0.17443 0.91978 0.0
C258 C 0.20582 0.17678 0.93402 0.0
C259 C 0.16049 0.19439 0.94521 0.0
H260 H 0.15127 0.21463 0.94277 0.0
H261 H 0.14358 0.17927 0.94613 0.0
H262 H 0.17152 0.19573 0.95566 0.0
O263 O 0.14731 0.23335 0.89849 0.0
O264 O 0.18287 0.22286 0.88466 0.0
H265 H 0.25096 0.18022 0.9073 0.0
H266 H 0.25615 0.16037 0.92359 0.0
C267 C 0.24183 0.16467 0.91459 0.0
H268 H 0.23906 0.14545 0.90843 0.0
H269 H 0.24092 0.21262 0.87849 0.0
O270 O 0.11161 0.21184 0.92425 0.0
C271 C 0.16475 0.23979 0.88887 0.0
Co272 Co 0.94692 0.88097 0.67092 0.0
Co273 Co 0.92977 0.93428 0.65408 0.0
C274 C 0.90244 0.88061 0.6485 0.0
O275 O 0.91725 0.86869 0.65793 0.0
O276 O 0.90515 0.90605 0.64578 0.0
C277 C 0.94453 0.828 0.68448 0.0
O278 O 0.91965 0.82748 0.67905 0.0
C279 C 0.894 0.97859 0.64406 0.0
C280 C 0.92416 0.01031 0.6379 0.0
C281 C 0.89626 0.00494 0.63848 0.0
N282 N 0.91935 0.96898 0.64659 0.0
N283 N 0.93728 0.98797 0.64284 0.0
C284 C 0.86847 0.96323 0.64789 0.0
H285 H 0.8728 0.94806 0.65654 0.0
H286 H 0.85216 0.9775 0.65151 0.0
H287 H 0.86108 0.95194 0.63824 0.0
C288 C 0.93279 0.91565 0.69586 0.0
N289 N 0.9352 0.91151 0.68158 0.0
N290 N 0.92824 0.934 0.67462 0.0
C291 C 0.92134 0.95334 0.68434 0.0
C292 C 0.92386 0.94227 0.69808 0.0
C293 C 0.93847 0.89422 0.70703 0.0
H294 H 0.96087 0.89039 0.7075 0.0
H295 H 0.92833 0.87478 0.70387 0.0
H296 H 0.93107 0.90051 0.71786 0.0
O297 O 0.97952 0.89045 0.65937 0.0
O298 O 0.96747 0.92766 0.6472 0.0
H299 H 0.92956 0.99018 0.67253 0.0
H300 H 0.91523 0.99595 0.69018 0.0
C301 C 0.91466 0.98241 0.68057 0.0
H302 H 0.89388 0.98327 0.67573 0.0
H303 H 0.9585 0.98573 0.64373 0.0
O304 O 0.95879 0.84968 0.6832 0.0
C305 C 0.98499 0.90934 0.65035 0.0
Co306 Co 0.85923 0.20694 0.41716 0.0
Co307 Co 0.8075 0.18456 0.40065 0.0
C308 C 0.86215 0.15891 0.39673 0.0
O309 O 0.87294 0.17575 0.40559 0.0
O310 O 0.83676 0.15996 0.39355 0.0
C311 C 0.90828 0.20645 0.43493 0.0
O312 O 0.90593 0.17964 0.43453 0.0
C313 C 0.76448 0.14813 0.38898 0.0
C314 C 0.72847 0.17559 0.38968 0.0
C315 C 0.73654 0.14921 0.38623 0.0
N316 N 0.77251 0.1728 0.39389 0.0
N317 N 0.75094 0.18917 0.39413 0.0
C318 C 0.78276 0.12357 0.3883 0.0
H319 H 0.79755 0.12394 0.39741 0.0
H320 H 0.77075 0.10427 0.3887 0.0
H321 H 0.79456 0.12416 0.37806 0.0
C322 C 0.82429 0.19523 0.44239 0.0
N323 N 0.82888 0.19584 0.42808 0.0
N324 N 0.80764 0.18537 0.42125 0.0
C325 C 0.78911 0.17698 0.43108 0.0
C326 C 0.79894 0.18316 0.44478 0.0
C327 C 0.8433 0.20728 0.45338 0.0
H328 H 0.85321 0.22593 0.44897 0.0
H329 H 0.85955 0.19215 0.45596 0.0
H330 H 0.83226 0.21265 0.46346 0.0
O331 O 0.8489 0.23729 0.40448 0.0
O332 O 0.81302 0.2217 0.39228 0.0
H333 H 0.74786 0.17568 0.4233 0.0
H334 H 0.75525 0.15053 0.43707 0.0
C335 C 0.76359 0.16133 0.42749 0.0
H336 H 0.76811 0.14593 0.41905 0.0
H337 H 0.75147 0.20945 0.39766 0.0
O338 O 0.89001 0.22114 0.42896 0.0
C339 C 0.83026 0.24055 0.39505 0.0
Co340 Co 0.52977 0.10407 0.16647 0.0
Co341 Co 0.54762 0.05287 0.1481 0.0
C342 C 0.57439 0.10749 0.14456 0.0
O343 O 0.56026 0.11827 0.15459 0.0
O344 O 0.57101 0.08274 0.14067 0.0
C345 C 0.53168 0.15459 0.18249 0.0
O346 O 0.55712 0.15555 0.17788 0.0
C347 C 0.58566 0.0125 0.13636 0.0
C348 C 0.55805 0.97833 0.13047 0.0
C349 C 0.58528 0.98636 0.13052 0.0
N350 N 0.55983 0.01945 0.13978 0.0
N351 N 0.5434 -0.00098 0.13619 0.0
C352 C 0.60958 0.03157 0.13778 0.0
H353 H 0.60899 0.04187 0.14846 0.0
H354 H 0.62946 0.021 0.13633 0.0
H355 H 0.60789 0.04769 0.12938 0.0
C356 C 0.54418 0.06706 0.19036 0.0
N357 N 0.54124 0.07244 0.17622 0.0
N358 N 0.54921 0.05106 0.16864 0.0
C359 C 0.55768 0.03132 0.17779 0.0
C360 C 0.55483 0.04088 0.19184 0.0
C361 C 0.5359 0.08643 0.2021 0.0
H362 H 0.51587 0.09585 0.1994 0.0
H363 H 0.55132 0.10309 0.20289 0.0
H364 H 0.53423 0.07594 0.2127 0.0
O365 O 0.49804 0.09579 0.15401 0.0
O366 O 0.50985 0.05922 0.14124 0.0
H367 H 0.55466 0.99304 0.16666 0.0
H368 H 0.57679 0.99199 0.18235 0.0
C369 C 0.56992 0.00465 0.1731 0.0
H370 H 0.58792 0.00874 0.16615 0.0
H371 H 0.52219 -0.00079 0.13765 0.0
O372 O 0.51717 0.13364 0.17963 0.0
C373 C 0.49255 0.07763 0.14459 0.0
Co374 Co 0.64299 0.78375 0.9189 0.0
Co375 Co 0.69397 0.80838 0.9025 0.0
C376 C 0.63823 0.83063 0.89773 0.0
O377 O 0.62818 0.81358 0.90672 0.0
O378 O 0.66371 0.83093 0.89476 0.0
C379 C 0.59157 0.78289 0.93414 0.0
O380 O 0.59047 0.80879 0.93033 0.0
C381 C 0.73487 0.84662 0.8905 0.0
C382 C 0.77286 0.82226 0.89265 0.0
C383 C 0.76297 0.84753 0.88833 0.0
N384 N 0.72844 0.82187 0.89592 0.0
N385 N 0.75119 0.80732 0.897 0.0
C386 C 0.71481 0.86958 0.88882 0.0
H387 H 0.70051 0.86982 0.89813 0.0
H388 H 0.72531 0.8897 0.88804 0.0
H389 H 0.70258 0.86619 0.87887 0.0
C390 C 0.67614 0.79912 0.94416 0.0
N391 N 0.67231 0.79724 0.92983 0.0
N392 N 0.6931 0.80869 0.92306 0.0
C393 C 0.71054 0.81897 0.93296 0.0
C394 C 0.70048 0.81305 0.94663 0.0
C395 C 0.65736 0.78663 0.95513 0.0
H396 H 0.64947 0.76674 0.9511 0.0
H397 H 0.63964 0.80049 0.95684 0.0
H398 H 0.66795 0.78328 0.96559 0.0
O399 O 0.65524 0.75341 0.90667 0.0
O400 O 0.69063 0.77063 0.89468 0.0
H401 H 0.75203 0.82253 0.92579 0.0
H402 H 0.74217 0.84808 0.93887 0.0
C403 C 0.73513 0.83606 0.9294 0.0
H404 H 0.73008 0.85049 0.92056 0.0
H405 H 0.752 0.78741 0.90111 0.0
O406 O 0.61275 0.76896 0.931 0.0
C407 C 0.67435 0.75093 0.89743 0.0
Co408 Co 0.93629 0.11724 0.81365 0.0
Co409 Co 0.91667 0.06717 0.8326 0.0
C410 C 0.89261 0.12208 0.83685 0.0
O411 O 0.90811 0.13195 0.82706 0.0
O412 O 0.89332 0.09678 0.84019 0.0
C413 C 0.93266 0.16808 0.798 0.0
O414 O 0.90779 0.16888 0.80341 0.0
C415 C 0.88478 0.02326 0.84741 0.0
C416 C 0.91416 0.98897 0.84564 0.0
C417 C 0.88811 0.99551 0.85046 0.0
N418 N 0.90762 0.03233 0.84078 0.0
N419 N 0.92516 0.01179 0.83994 0.0
C420 C 0.86116 0.04129 0.85137 0.0
H421 H 0.86867 0.06179 0.85457 0.0
H422 H 0.84754 0.04372 0.84185 0.0
H423 H 0.84929 0.03262 0.86051 0.0
C424 C 0.92213 0.07909 0.79015 0.0
N425 N 0.92308 0.08592 0.80421 0.0
N426 N 0.91396 0.06535 0.81206 0.0
C427 C 0.90607 0.04502 0.80315 0.0
C428 C 0.91132 0.05286 0.78901 0.0
C429 C 0.93408 0.09634 0.77835 0.0
H430 H 0.95307 0.10646 0.78222 0.0
H431 H 0.91916 0.11257 0.7754 0.0
H432 H 0.93888 0.08402 0.76862 0.0
O433 O 0.96953 0.10777 0.8245 0.0
O434 O 0.95495 0.07438 0.83889 0.0
H435 H 0.90933 0.00469 0.81199 0.0
H436 H 0.88203 0.00862 0.79902 0.0
C437 C 0.89316 0.01876 0.80801 0.0
H438 H 0.87853 0.02284 0.8169 0.0
H439 H 0.94452 0.01326 0.83522 0.0
O440 O 0.9474 0.14703 0.80021 0.0
C441 C 0.97371 0.09046 0.83451 0.0
Co442 Co 0.63816 0.19229 0.56553 0.0
Co443 Co 0.69026 0.17521 0.58334 0.0
C444 C 0.63601 0.14839 0.58804 0.0
O445 O 0.62477 0.16231 0.57802 0.0
O446 O 0.66102 0.15177 0.59155 0.0
C447 C 0.58866 0.18958 0.54791 0.0
O448 O 0.59001 0.1629 0.54968 0.0
C449 C 0.73325 0.13998 0.5956 0.0
C450 C 0.76643 0.16999 0.59937 0.0
C451 C 0.7599 0.14247 0.60078 0.0
N452 N 0.72461 0.16488 0.59137 0.0
N453 N 0.74447 0.18273 0.59373 0.0
C454 C 0.7169 0.11434 0.59349 0.0
H455 H 0.70176 0.11714 0.58465 0.0
H456 H 0.73051 0.0968 0.5909 0.0
H457 H 0.70555 0.10966 0.60357 0.0
C458 C 0.67494 0.17977 0.5412 0.0
N459 N 0.66937 0.18082 0.55539 0.0
N460 N 0.69103 0.17287 0.56278 0.0
C461 C 0.71104 0.16601 0.55344 0.0
C462 C 0.70153 0.17025 0.53947 0.0
C463 C 0.65594 0.19022 0.52974 0.0
H464 H 0.64537 0.20892 0.53361 0.0
H465 H 0.64016 0.17441 0.52747 0.0
H466 H 0.66701 0.19512 0.51961 0.0
O467 O 0.64716 0.2248 0.57711 0.0
O468 O 0.68419 0.21344 0.58961 0.0
H469 H 0.75032 0.17164 0.56327 0.0
H470 H 0.7503 0.14737 0.54849 0.0
C471 C 0.73849 0.15517 0.55785 0.0
H472 H 0.73571 0.13815 0.56562 0.0
H473 H 0.74309 0.20359 0.59136 0.0
O474 O 0.60765 0.20459 0.55297 0.0
C475 C 0.66593 0.23077 0.58609 0.0
Co476 Co 0.54192 0.88982 0.31518 0.0
Co477 Co 0.56721 0.94048 0.3316 0.0
C478 C 0.59026 0.8852 0.33574 0.0
O479 O 0.5723 0.87526 0.32721 0.0
O480 O 0.59119 0.91072 0.33857 0.0
C481 C 0.54177 0.8387 0.29968 0.0
O482 O 0.56778 0.83795 0.30335 0.0
C483 C 0.6016 0.98305 0.34569 0.0
C484 C 0.57791 0.02024 0.34024 0.0
C485 C 0.60162 0.01146 0.34705 0.0
N486 N 0.57924 0.97565 0.3381 0.0
N487 N 0.56503 -0.00204 0.33506 0.0
C488 C 0.62093 0.96301 0.35245 0.0
H489 H 0.60933 0.94511 0.35655 0.0
H490 H 0.63566 0.95571 0.34418 0.0
H491 H 0.6323 0.97226 0.36161 0.0
C492 C 0.555 0.92381 0.28996 0.0
N493 N 0.55454 0.91946 0.30428 0.0
N494 N 0.56641 0.9401 0.31097 0.0
C495 C 0.5758 0.95786 0.30097 0.0
C496 C 0.56863 0.94827 0.28736 0.0
C497 C 0.54098 0.90566 0.27921 0.0
H498 H 0.52189 0.89719 0.28393 0.0
H499 H 0.55473 0.88832 0.27648 0.0
H500 H 0.53579 0.91695 0.26917 0.0
O501 O 0.51149 0.90151 0.32746 0.0
O502 O 0.53008 0.93536 0.34017 0.0
H503 H 0.57976 5e-05 0.30678 0.0
H504 H 0.60615 0.9879 0.29483 0.0
C505 C 0.59318 0.98237 0.30424 0.0
H506 H 0.6066 0.97818 0.31365 0.0
H507 H 0.54666 -0.00204 0.32928 0.0
O508 O 0.52752 0.85952 0.30304 0.0
C509 C 0.50996 0.91974 0.3372 0.0
Co510 Co 0.85757 0.80452 0.06756 0.0
Co511 Co 0.8074 0.82549 0.08583 0.0
C512 C 0.86168 0.85191 0.08857 0.0
O513 O 0.87177 0.83513 0.07947 0.0
O514 O 0.83652 0.85092 0.09222 0.0
C515 C 0.90862 0.80511 0.05168 0.0
O516 O 0.91115 0.83002 0.05687 0.0
C517 C 0.76254 0.86002 0.09708 0.0
C518 C 0.73131 0.82839 0.10175 0.0
C519 C 0.73582 0.85642 0.10199 0.0
N520 N 0.77304 0.83523 0.09401 0.0
N521 N 0.75438 0.81644 0.09699 0.0
C522 C 0.77714 0.88638 0.09405 0.0
H523 H 0.7937 0.88317 0.08602 0.0
H524 H 0.7626 0.90206 0.08997 0.0
H525 H 0.78656 0.89403 0.1042 0.0
C526 C 0.81997 0.81645 0.04364 0.0
N527 N 0.82598 0.81581 0.05779 0.0
N528 N 0.80491 0.82487 0.06527 0.0
C529 C 0.78475 0.83184 0.05601 0.0
C530 C 0.79368 0.82678 0.04203 0.0
C531 C 0.8385 0.80552 0.03212 0.0
H532 H 0.84755 0.78583 0.03572 0.0
H533 H 0.85551 0.82024 0.03034 0.0
H534 H 0.82746 0.80216 0.0218 0.0
O535 O 0.84893 0.77282 0.0798 0.0
O536 O 0.81547 0.78864 0.09373 0.0
H537 H 0.74637 0.82918 0.06709 0.0
H538 H 0.74534 0.85028 0.05102 0.0
C539 C 0.75794 0.84413 0.06044 0.0
H540 H 0.76183 0.86258 0.06707 0.0
H541 H 0.7572 0.79546 0.09541 0.0
O542 O 0.88688 0.79163 0.0543 0.0
C543 C 0.83187 0.7697 0.09002 0.0
Co544 Co 0.55827 0.61204 0.81105 0.0
Co545 Co 0.57688 0.55838 0.82715 0.0
C546 C 0.605 0.61166 0.8323 0.0
O547 O 0.58939 0.62383 0.82331 0.0
O548 O 0.60233 0.58621 0.83502 0.0
C549 C 0.55875 0.66545 0.79755 0.0
O550 O 0.58343 0.66748 0.80313 0.0
C551 C 0.61008 0.5142 0.83988 0.0
C552 C 0.58127 0.47926 0.8388 0.0
C553 C 0.6074 0.48662 0.84316 0.0
N554 N 0.58652 0.52282 0.8339 0.0
N555 N 0.56935 0.50188 0.83335 0.0
C556 C 0.63509 0.53168 0.84151 0.0
H557 H 0.63693 0.54578 0.83216 0.0
H558 H 0.6539 0.51901 0.84232 0.0
H559 H 0.6331 0.54419 0.85146 0.0
C560 C 0.56851 0.57733 0.78565 0.0
N561 N 0.56851 0.58159 0.79999 0.0
N562 N 0.57704 0.55932 0.80664 0.0
C563 C 0.58326 0.54027 0.79667 0.0
C564 C 0.57786 0.55097 0.78308 0.0
C565 C 0.55753 0.59745 0.7749 0.0
H566 H 0.53779 0.60588 0.77884 0.0
H567 H 0.57217 0.61475 0.77386 0.0
H568 H 0.55427 0.588 0.76414 0.0
O569 O 0.52666 0.60276 0.82326 0.0
O570 O 0.53969 0.56523 0.83486 0.0
H571 H 0.5781 0.49908 0.80399 0.0
H572 H 0.60416 0.50308 0.79033 0.0
C573 C 0.59478 0.51257 0.80003 0.0
H574 H 0.61059 0.51433 0.80858 0.0
H575 H 0.54951 0.50302 0.82917 0.0
O576 O 0.54556 0.64316 0.79897 0.0
C577 C 0.52194 0.58365 0.83225 0.0
Co578 Co 0.63307 0.29468 0.06606 0.0
Co579 Co 0.68236 0.3137 0.08559 0.0
C580 C 0.62816 0.34038 0.08803 0.0
O581 O 0.61841 0.32457 0.07836 0.0
O582 O 0.65311 0.33882 0.092 0.0
C583 C 0.58398 0.29876 0.049 0.0
O584 O 0.58381 0.32415 0.0537 0.0
C585 C 0.725 0.3478 0.099 0.0
C586 C 0.75917 0.31821 0.10072 0.0
C587 C 0.75223 0.34533 0.10306 0.0
N588 N 0.71628 0.32321 0.09437 0.0
N589 N 0.73664 0.30552 0.09566 0.0
C590 C 0.70842 0.37351 0.09801 0.0
H591 H 0.69535 0.37301 0.0882 0.0
H592 H 0.72174 0.39194 0.09775 0.0
H593 H 0.69477 0.37479 0.10757 0.0
C594 C 0.67274 0.30706 0.04301 0.0
N595 N 0.66545 0.30603 0.057 0.0
N596 N 0.68607 0.31428 0.06509 0.0
C597 C 0.70715 0.32115 0.05642 0.0
C598 C 0.69944 0.31664 0.0422 0.0
C599 C 0.65494 0.29733 0.03088 0.0
H600 H 0.64544 0.27744 0.03383 0.0
H601 H 0.63817 0.31233 0.02916 0.0
H602 H 0.66668 0.29491 0.02071 0.0
O603 O 0.64038 0.26224 0.07807 0.0
O604 O 0.67338 0.27661 0.09278 0.0
H605 H 0.74577 0.31656 0.06706 0.0
H606 H 0.74613 0.34122 0.05252 0.0
C607 C 0.7338 0.33282 0.06156 0.0
H608 H 0.72983 0.34953 0.06936 0.0
H609 H 0.73544 0.28501 0.09256 0.0
O610 O 0.60409 0.28336 0.05221 0.0
C611 C 0.65674 0.25825 0.08855 0.0
Co612 Co 0.95602 0.38797 0.31609 0.0
Co613 Co 0.93464 0.43926 0.33323 0.0
C614 C 0.90643 0.38515 0.33519 0.0
O615 O 0.92371 0.37413 0.32668 0.0
O616 O 0.90817 0.41032 0.3387 0.0
C617 C 0.95643 0.3389 0.29843 0.0
O618 O 0.92963 0.33961 0.29979 0.0
C619 C 0.89684 0.48275 0.34224 0.0
C620 C 0.92563 0.5141 0.35042 0.0
C621 C 0.89801 0.50878 0.34828 0.0
N622 N 0.92257 0.47327 0.34091 0.0
N623 N 0.93966 0.49202 0.34589 0.0
C624 C 0.87216 0.46774 0.3368 0.0
H625 H 0.87806 0.45325 0.32811 0.0
H626 H 0.85654 0.48231 0.33268 0.0
H627 H 0.86308 0.45575 0.3458 0.0
C628 C 0.94667 0.42483 0.29145 0.0
N629 N 0.94657 0.41951 0.30568 0.0
N630 N 0.93811 0.44132 0.31276 0.0
C631 C 0.93271 0.46139 0.30318 0.0
C632 C 0.93786 0.45153 0.2894 0.0
C633 C 0.95355 0.40404 0.28014 0.0
H634 H 0.97531 0.39784 0.28135 0.0
H635 H 0.94069 0.38557 0.28179 0.0
H636 H 0.95001 0.41188 0.26905 0.0
O637 O 0.98597 0.3966 0.32958 0.0
O638 O 0.97029 0.43149 0.34255 0.0
H639 H 0.93694 0.49745 0.31617 0.0
H640 H 0.92594 0.50414 0.29793 0.0
C641 C 0.92405 0.48981 0.30718 0.0
H642 H 0.90241 0.48944 0.31082 0.0
H643 H 0.96094 0.48985 0.34605 0.0
O644 O 0.97074 0.35816 0.30378 0.0
C645 C 0.98884 0.41414 0.33959 0.0
Co646 Co 0.85982 0.70053 0.56271 0.0
Co647 Co 0.80666 0.68254 0.57956 0.0
C648 C 0.85968 0.65411 0.58418 0.0
O649 O 0.87143 0.66902 0.57473 0.0
O650 O 0.83463 0.6574 0.5876 0.0
C651 C 0.91302 0.69884 0.54906 0.0
O652 O 0.91443 0.6742 0.55473 0.0
C653 C 0.7621 0.64946 0.59213 0.0
C654 C 0.72688 0.67761 0.58974 0.0
C655 C 0.73409 0.65163 0.59434 0.0
N656 N 0.77106 0.67315 0.58642 0.0
N657 N 0.74998 0.69 0.58521 0.0
C658 C 0.77963 0.62458 0.59407 0.0
H659 H 0.7932 0.62205 0.58455 0.0
H660 H 0.76707 0.60582 0.59552 0.0
H661 H 0.79285 0.62745 0.60371 0.0
C662 C 0.82411 0.68965 0.53769 0.0
N663 N 0.82878 0.69062 0.55199 0.0
N664 N 0.80704 0.6816 0.55895 0.0
C665 C 0.78806 0.67378 0.54921 0.0
C666 C 0.79811 0.67888 0.53544 0.0
C667 C 0.84371 0.70032 0.5266 0.0
H668 H 0.85414 0.71893 0.53074 0.0
H669 H 0.85956 0.68453 0.52447 0.0
H670 H 0.83311 0.70541 0.51634 0.0
O671 O 0.85146 0.73217 0.57506 0.0
O672 O 0.81395 0.71993 0.58693 0.0
H673 H 0.74653 0.67534 0.5565 0.0
H674 H 0.75318 0.64845 0.54362 0.0
C675 C 0.76169 0.6598 0.55298 0.0
H676 H 0.76509 0.64513 0.56193 0.0
H677 H 0.75125 0.7097 0.58087 0.0
O678 O 0.89104 0.71257 0.55044 0.0
C679 C 0.83264 0.73732 0.58415 0.0
Co680 Co 0.54876 0.38628 0.66321 0.0
Co681 Co 0.56764 0.43781 0.64504 0.0
C682 C 0.59577 0.38406 0.64216 0.0
O683 O 0.57967 0.37316 0.65134 0.0
O684 O 0.5936 0.40916 0.63858 0.0
C685 C 0.55206 0.33572 0.67909 0.0
O686 O 0.57736 0.33542 0.67425 0.0
C687 C 0.60111 0.48219 0.63198 0.0
C688 C 0.57112 0.51611 0.63193 0.0
C689 C 0.59815 0.5099 0.62873 0.0
N690 N 0.57714 0.47286 0.63724 0.0
N691 N 0.55924 0.49315 0.63695 0.0
C692 C 0.62545 0.46428 0.6292 0.0
H693 H 0.61863 0.44433 0.62483 0.0
H694 H 0.63642 0.46053 0.63952 0.0
H695 H 0.63964 0.47358 0.62124 0.0
C696 C 0.56006 0.42356 0.68724 0.0
N697 N 0.55918 0.41798 0.67305 0.0
N698 N 0.56731 0.43958 0.66567 0.0
C699 C 0.57395 0.45964 0.67506 0.0
C700 C 0.56942 0.45012 0.68898 0.0
C701 C 0.55271 0.40341 0.69879 0.0
H702 H 0.53067 0.39806 0.69783 0.0
H703 H 0.56471 0.38435 0.69721 0.0
H704 H 0.5569 0.41155 0.70976 0.0
O705 O 0.51696 0.39414 0.65089 0.0
O706 O 0.53082 0.42888 0.63718 0.0
H707 H 0.56582 0.49838 0.66529 0.0
H708 H 0.58928 0.50029 0.68019 0.0
C709 C 0.58301 0.48779 0.67076 0.0
H710 H 0.60041 0.48631 0.66311 0.0
H711 H 0.539 0.49144 0.64048 0.0
O712 O 0.53694 0.35629 0.67637 0.0
C713 C 0.51279 0.41139 0.64085 0.0
Co714 Co 0.86769 0.30768 0.92178 0.0
Co715 Co 0.81288 0.32754 0.90707 0.0
C716 C 0.86637 0.35483 0.90086 0.0
O717 O 0.87905 0.33869 0.90938 0.0
O718 O 0.84061 0.35287 0.89885 0.0
C719 C 0.92196 0.30745 0.93421 0.0
O720 O 0.92347 0.3324 0.92895 0.0
C721 C 0.76821 0.35932 0.89344 0.0
C722 C 0.73221 0.33378 0.89885 0.0
C723 C 0.73986 0.35784 0.89201 0.0
N724 N 0.77669 0.33756 0.90115 0.0
N725 N 0.75511 0.32218 0.90414 0.0
C726 C 0.7874 0.37879 0.88611 0.0
H727 H 0.80422 0.36701 0.88103 0.0
H728 H 0.79645 0.39283 0.89424 0.0
H729 H 0.77713 0.3908 0.87751 0.0
C730 C 0.83587 0.31855 0.94806 0.0
N731 N 0.83847 0.31839 0.93362 0.0
N732 N 0.81571 0.32752 0.92766 0.0
C733 C 0.79808 0.33446 0.93826 0.0
C734 C 0.81022 0.32874 0.95149 0.0
C735 C 0.85766 0.30903 0.95827 0.0
H736 H 0.87694 0.32032 0.95604 0.0
H737 H 0.85172 0.31232 0.96971 0.0
H738 H 0.86168 0.28693 0.95641 0.0
O739 O 0.85683 0.27649 0.90967 0.0
O740 O 0.81874 0.29048 0.89892 0.0
H741 H 0.75602 0.32716 0.93322 0.0
H742 H 0.76114 0.35508 0.94545 0.0
C743 C 0.76955 0.34475 0.93578 0.0
H744 H 0.76931 0.35937 0.92663 0.0
H745 H 0.75606 0.3037 0.90978 0.0
O746 O 0.89961 0.29423 0.93305 0.0
C747 C 0.83702 0.27236 0.90102 0.0
Co748 Co 0.94677 0.60934 0.16702 0.0
Co749 Co 0.92493 0.55747 0.15037 0.0
C750 C 0.90013 0.61276 0.14612 0.0
O751 O 0.91591 0.62366 0.15546 0.0
O752 O 0.90174 0.58751 0.14276 0.0
C753 C 0.9496 0.65864 0.18504 0.0
O754 O 0.92267 0.65903 0.18476 0.0
C755 C 0.88971 0.51446 0.13716 0.0
C756 C 0.91573 0.47804 0.1408 0.0
C757 C 0.89048 0.48612 0.13543 0.0
N758 N 0.91312 0.52242 0.14364 0.0
N759 N 0.92869 0.5006 0.14555 0.0
C760 C 0.86828 0.53398 0.13187 0.0
H761 H 0.87808 0.55281 0.12765 0.0
H762 H 0.85471 0.53975 0.14099 0.0
H763 H 0.85585 0.52485 0.12306 0.0
C764 C 0.93496 0.57451 0.19214 0.0
N765 N 0.93508 0.5792 0.17784 0.0
N766 N 0.92483 0.55785 0.17102 0.0
C767 C 0.91713 0.53909 0.18091 0.0
C768 C 0.92352 0.54893 0.19455 0.0
C769 C 0.94771 0.59327 0.20303 0.0
H770 H 0.96696 0.602 0.19864 0.0
H771 H 0.9334 0.61041 0.20526 0.0
H772 H 0.95232 0.58249 0.2133 0.0
O773 O 0.97711 0.59866 0.15438 0.0
O774 O 0.96248 0.562 0.14258 0.0
H775 H 0.91842 0.49726 0.17416 0.0
H776 H 0.89191 0.50463 0.18709 0.0
C777 C 0.90298 0.51265 0.17751 0.0
H778 H 0.88812 0.51567 0.16859 0.0
H779 H 0.94805 0.50107 0.15037 0.0
O780 O 0.96232 0.63918 0.1789 0.0
C781 C 0.98101 0.57959 0.14529 0.0
Co782 Co 0.63386 0.69558 0.41551 0.0
Co783 Co 0.68509 0.67675 0.3974 0.0
C784 C 0.63084 0.65 0.39357 0.0
O785 O 0.62019 0.66542 0.40315 0.0
O786 O 0.656 0.65211 0.39008 0.0
C787 C 0.58188 0.6948 0.43051 0.0
O788 O 0.57944 0.67017 0.42496 0.0
C789 C 0.72881 0.64209 0.3852 0.0
C790 C 0.76145 0.67279 0.38166 0.0
C791 C 0.75558 0.64513 0.3803 0.0
N792 N 0.7195 0.66683 0.38927 0.0
N793 N 0.73902 0.6851 0.38701 0.0
C794 C 0.71306 0.61606 0.38727 0.0
H795 H 0.69753 0.61858 0.39592 0.0
H796 H 0.72702 0.59893 0.39008 0.0
H797 H 0.70223 0.61093 0.37708 0.0
C798 C 0.67141 0.68361 0.43959 0.0
N799 N 0.66547 0.68439 0.42543 0.0
N800 N 0.68676 0.6758 0.41796 0.0
C801 C 0.70687 0.66877 0.42723 0.0
C802 C 0.69785 0.67357 0.44123 0.0
C803 C 0.65276 0.6944 0.45109 0.0
H804 H 0.64281 0.71352 0.44731 0.0
H805 H 0.63643 0.67908 0.45324 0.0
H806 H 0.66396 0.69872 0.46127 0.0
O807 O 0.64231 0.72762 0.40351 0.0
O808 O 0.67784 0.71442 0.39034 0.0
H809 H 0.74611 0.67255 0.41715 0.0
H810 H 0.74547 0.64864 0.43209 0.0
C811 C 0.73376 0.6567 0.42275 0.0
H812 H 0.73009 0.63963 0.41513 0.0
H813 H 0.73715 0.70593 0.38935 0.0
O814 O 0.604 0.70806 0.42855 0.0
C815 C 0.66024 0.7324 0.39389 0.0
Co816 Co 0.43549 0.38097 0.16735 0.0
Co817 Co 0.41936 0.43408 0.15003 0.0
C818 C 0.39062 0.38118 0.14493 0.0
O819 O 0.40521 0.36922 0.15446 0.0
O820 O 0.39396 0.40644 0.14196 0.0
C821 C 0.43118 0.32883 0.18188 0.0
O822 O 0.40646 0.32834 0.17625 0.0
C823 C 0.38684 0.47859 0.13722 0.0
C824 C 0.41651 0.51286 0.13764 0.0
C825 C 0.38985 0.50613 0.13396 0.0
N826 N 0.4107 0.46941 0.14262 0.0
N827 N 0.42843 0.48991 0.14269 0.0
C828 C 0.36118 0.46184 0.13647 0.0
H829 H 0.36003 0.44789 0.14592 0.0
H830 H 0.34268 0.47505 0.13618 0.0
H831 H 0.36167 0.44915 0.12653 0.0
C832 C 0.4245 0.41752 0.19201 0.0
N833 N 0.42515 0.41228 0.17776 0.0
N834 N 0.41768 0.43433 0.17057 0.0
C835 C 0.41152 0.45423 0.18009 0.0
C836 C 0.41588 0.44435 0.19395 0.0
C837 C 0.43424 0.39785 0.2033 0.0
H838 H 0.45382 0.38842 0.1998 0.0
H839 H 0.41893 0.38117 0.20449 0.0
H840 H 0.43731 0.40799 0.2139 0.0
O841 O 0.46831 0.38895 0.15573 0.0
O842 O 0.45697 0.42599 0.14322 0.0
H843 H 0.41821 0.49451 0.17174 0.0
H844 H 0.39201 0.49274 0.18546 0.0
C845 C 0.40106 0.48202 0.17604 0.0
H846 H 0.38515 0.48006 0.16756 0.0
H847 H 0.44851 0.48836 0.1465 0.0
O848 O 0.44606 0.34994 0.1801 0.0
C849 C 0.47411 0.40739 0.14652 0.0
Co850 Co 0.36704 0.68378 0.91955 0.0
Co851 Co 0.31627 0.6658 0.90063 0.0
C852 C 0.37117 0.64156 0.89576 0.0
O853 O 0.38135 0.65605 0.90588 0.0
O854 O 0.3459 0.64311 0.89241 0.0
C855 C 0.41818 0.67964 0.93487 0.0
O856 O 0.41884 0.65499 0.9292 0.0
C857 C 0.27218 0.63479 0.8855 0.0
C858 C 0.23799 0.66419 0.88769 0.0
C859 C 0.24443 0.63837 0.88251 0.0
N860 N 0.28135 0.65724 0.89244 0.0
N861 N 0.26087 0.67481 0.89353 0.0
C862 C 0.29015 0.61135 0.88116 0.0
H863 H 0.31066 0.61897 0.87805 0.0
H864 H 0.2926 0.59724 0.89048 0.0
H865 H 0.28141 0.6 0.87186 0.0
C866 C 0.32915 0.66854 0.94302 0.0
N867 N 0.33575 0.67024 0.92895 0.0
N868 N 0.31495 0.66174 0.92106 0.0
C869 C 0.29465 0.65367 0.92993 0.0
C870 C 0.30279 0.65804 0.94409 0.0
C871 C 0.34678 0.67949 0.95493 0.0
H872 H 0.35564 0.69949 0.95166 0.0
H873 H 0.36402 0.6651 0.95681 0.0
H874 H 0.33513 0.68208 0.96512 0.0
O875 O 0.35783 0.71739 0.9089 0.0
O876 O 0.3228 0.70449 0.89525 0.0
H877 H 0.25432 0.65869 0.92131 0.0
H878 H 0.25747 0.63076 0.93393 0.0
C879 C 0.26788 0.64189 0.92502 0.0
H880 H 0.27132 0.62751 0.91595 0.0
H881 H 0.26243 0.69393 0.89849 0.0
O882 O 0.39701 0.6944 0.933 0.0
C883 C 0.33972 0.72267 0.89943 0.0
Co884 Co 0.04614 0.60455 0.66192 0.0
Co885 Co 0.06879 0.55434 0.64409 0.0
C886 C 0.09349 0.60929 0.64082 0.0
O887 O 0.07635 0.61916 0.64981 0.0
O888 O 0.09332 0.58399 0.63743 0.0
C889 C 0.04739 0.65497 0.67817 0.0
O890 O 0.07297 0.65618 0.67381 0.0
C891 C 0.10242 0.511 0.63011 0.0
C892 C 0.0756 0.47509 0.63358 0.0
C893 C 0.10091 0.48274 0.62813 0.0
N894 N 0.07936 0.51931 0.63677 0.0
N895 N 0.0633 0.49778 0.6386 0.0
C896 C 0.12436 0.53014 0.62503 0.0
H897 H 0.11501 0.54936 0.62104 0.0
H898 H 0.13809 0.53522 0.63421 0.0
H899 H 0.13653 0.52102 0.61614 0.0
C900 C 0.05992 0.56845 0.68621 0.0
N901 N 0.0585 0.57377 0.67199 0.0
N902 N 0.06896 0.55313 0.6647 0.0
C903 C 0.07817 0.53425 0.67416 0.0
C904 C 0.07256 0.54326 0.68806 0.0
C905 C 0.04789 0.58658 0.6976 0.0
H906 H 0.02834 0.59548 0.69369 0.0
H907 H 0.06231 0.60365 0.69983 0.0
H908 H 0.04398 0.57519 0.70776 0.0
O909 O 0.01473 0.59455 0.64983 0.0
O910 O 0.03143 0.56108 0.63619 0.0
H911 H 0.07922 0.49284 0.66673 0.0
H912 H 0.10607 0.50126 0.67932 0.0
C913 C 0.09382 0.50905 0.67009 0.0
H914 H 0.10781 0.5136 0.66098 0.0
H915 H 0.04415 0.49853 0.6436 0.0
O916 O 0.03298 0.63417 0.6749 0.0
C917 C 0.01202 0.57706 0.63979 0.0
Co918 Co 0.14163 0.28843 0.41656 0.0
Co919 Co 0.19402 0.30828 0.39973 0.0
C920 C 0.14002 0.33566 0.39589 0.0
O921 O 0.12872 0.32019 0.40524 0.0
O922 O 0.16505 0.33292 0.39229 0.0
C923 C 0.09269 0.28988 0.43447 0.0
O924 O 0.09521 0.31666 0.43391 0.0
C925 C 0.23672 0.34401 0.38751 0.0
C926 C 0.27297 0.31689 0.3884 0.0
C927 C 0.26457 0.34302 0.38465 0.0
N928 N 0.22897 0.31951 0.39274 0.0
N929 N 0.25067 0.30332 0.39309 0.0
C930 C 0.21823 0.36839 0.38657 0.0
H931 H 0.2048 0.3692 0.39623 0.0
H932 H 0.23007 0.38775 0.38574 0.0
H933 H 0.20494 0.3663 0.3769 0.0
C934 C 0.17744 0.2987 0.44156 0.0
N935 N 0.17254 0.29851 0.42728 0.0
N936 N 0.19411 0.30802 0.42036 0.0
C937 C 0.21326 0.3153 0.43012 0.0
C938 C 0.2034 0.30945 0.44384 0.0
C939 C 0.15826 0.28704 0.45258 0.0
H940 H 0.14777 0.26874 0.44814 0.0
H941 H 0.14247 0.30259 0.45525 0.0
H942 H 0.16924 0.28118 0.46261 0.0
O943 O 0.15074 0.25781 0.40375 0.0
O944 O 0.18779 0.2711 0.39178 0.0
H945 H 0.25442 0.31359 0.42231 0.0
H946 H 0.24895 0.33921 0.43605 0.0
C947 C 0.23979 0.32906 0.42647 0.0
H948 H 0.23636 0.34472 0.418 0.0
H949 H 0.25035 0.28317 0.39687 0.0
O950 O 0.11078 0.27495 0.42853 0.0
C951 C 0.16947 0.2533 0.39452 0.0
Co952 Co 0.44187 0.61282 0.3132 0.0
Co953 Co 0.42349 0.56001 0.33037 0.0
C954 C 0.39793 0.61445 0.33597 0.0
O955 O 0.4129 0.62574 0.3264 0.0
O956 O 0.39984 0.58897 0.3388 0.0
C957 C 0.43901 0.66509 0.29894 0.0
O958 O 0.41416 0.66569 0.30438 0.0
C959 C 0.39093 0.51529 0.34394 0.0
C960 C 0.41988 0.48076 0.3416 0.0
C961 C 0.39383 0.48729 0.34644 0.0
N962 N 0.41398 0.52452 0.33757 0.0
N963 N 0.43128 0.50382 0.33642 0.0
C964 C 0.36779 0.53348 0.34847 0.0
H965 H 0.37592 0.55313 0.35261 0.0
H966 H 0.35458 0.53786 0.33898 0.0
H967 H 0.35535 0.52399 0.35716 0.0
C968 C 0.42755 0.578 0.28848 0.0
N969 N 0.42926 0.58247 0.30276 0.0
N970 N 0.42101 0.56048 0.30977 0.0
C971 C 0.41336 0.54136 0.30006 0.0
C972 C 0.41743 0.55182 0.28628 0.0
C973 C 0.43581 0.59846 0.27725 0.0
H974 H 0.42494 0.61805 0.27925 0.0
H975 H 0.43097 0.59122 0.26618 0.0
H976 H 0.45813 0.6025 0.27817 0.0
O977 O 0.47462 0.60289 0.3244 0.0
O978 O 0.46172 0.56628 0.33685 0.0
H979 H 0.42246 0.50132 0.30796 0.0
H980 H 0.39608 0.50175 0.29445 0.0
C981 C 0.40452 0.51289 0.30388 0.0
H982 H 0.38877 0.51367 0.31249 0.0
H983 H 0.45079 0.5054 0.33189 0.0
O984 O 0.45353 0.64371 0.30063 0.0
C985 C 0.47974 0.58401 0.33347 0.0
Co986 Co 0.12911 0.69373 0.06103 0.0
Co987 Co 0.18166 0.6736 0.07789 0.0
C988 C 0.12686 0.64811 0.08286 0.0
O989 O 0.11565 0.66396 0.07365 0.0
O990 O 0.15236 0.64962 0.08573 0.0
C991 C 0.07625 0.69401 0.04711 0.0
O992 O 0.07421 0.66919 0.05249 0.0
C993 C 0.22513 0.64009 0.09174 0.0
C994 C 0.26115 0.66686 0.08845 0.0
C995 C 0.25334 0.6416 0.09391 0.0
N996 N 0.21698 0.66306 0.08493 0.0
N997 N 0.23855 0.6791 0.08323 0.0
C998 C 0.20574 0.6187 0.09721 0.0
H999 H 0.18741 0.62874 0.10183 0.0
H1000 H 0.19907 0.60554 0.08809 0.0
H1001 H 0.21511 0.60593 0.10579 0.0
C1002 C 0.16323 0.67891 0.03608 0.0
N1003 N 0.15922 0.68113 0.05038 0.0
N1004 N 0.18104 0.67213 0.0573 0.0
C1005 C 0.19954 0.66342 0.04752 0.0
C1006 C 0.18887 0.66757 0.03379 0.0
C1007 C 0.14257 0.68714 0.02495 0.0
H1008 H 0.12279 0.67684 0.02727 0.0
H1009 H 0.14931 0.68167 0.01387 0.0
H1010 H 0.1391 0.70957 0.02562 0.0
O1011 O 0.13961 0.72553 0.0728 0.0
O1012 O 0.17606 0.71147 0.085 0.0
H1013 H 0.24033 0.67023 0.055 0.0
H1014 H 0.23789 0.64347 0.04185 0.0
C1015 C 0.2275 0.65292 0.05123 0.0
H1016 H 0.22598 0.63757 0.06002 0.0
H1017 H 0.23788 0.69834 0.0783 0.0
O1018 O 0.09859 0.70711 0.04865 0.0
C1019 C 0.15858 0.72988 0.08193 0.0
Co1020 Co 0.03646 0.39311 0.8119 0.0
Co1021 Co 0.05994 0.44485 0.82804 0.0
C1022 C 0.08396 0.38977 0.83273 0.0
O1023 O 0.06705 0.37911 0.82386 0.0
O1024 O 0.0835 0.41525 0.83565 0.0
C1025 C 0.036 0.3413 0.79701 0.0
O1026 O 0.06186 0.34035 0.80093 0.0
C1027 C 0.09727 0.48642 0.84004 0.0
C1028 C 0.07206 0.5239 0.83815 0.0
C1029 C 0.09754 0.51444 0.84243 0.0
N1030 N 0.07268 0.47959 0.83456 0.0
N1031 N 0.05763 0.50203 0.8336 0.0
C1032 C 0.12066 0.46683 0.84165 0.0
H1033 H 0.12129 0.45278 0.83224 0.0
H1034 H 0.14055 0.47774 0.84254 0.0
H1035 H 0.11745 0.45432 0.85152 0.0
C1036 C 0.05057 0.42646 0.78646 0.0
N1037 N 0.0489 0.42273 0.80082 0.0
N1038 N 0.05973 0.44395 0.80749 0.0
C1039 C 0.06928 0.46165 0.79753 0.0
C1040 C 0.06362 0.45124 0.7839 0.0
C1041 C 0.03888 0.40704 0.77557 0.0
H1042 H 0.01904 0.39884 0.7795 0.0
H1043 H 0.05318 0.38958 0.77416 0.0
H1044 H 0.03564 0.41717 0.76498 0.0
O1045 O 0.00609 0.40451 0.82443 0.0
O1046 O 0.0226 0.44052 0.83615 0.0
H1047 H 0.07134 0.50323 0.80466 0.0
H1048 H 0.09697 0.49439 0.79142 0.0
C1049 C 0.08547 0.48689 0.80096 0.0
H1050 H 0.10029 0.48245 0.80972 0.0
H1051 H 0.03768 0.50249 0.82952 0.0
O1052 O 0.02199 0.36254 0.79993 0.0
C1053 C 0.00333 0.42361 0.83364 0.0
Co1054 Co 0.3578 0.27866 0.5674 0.0
Co1055 Co 0.30562 0.30019 0.58382 0.0
C1056 C 0.36024 0.32635 0.58777 0.0
O1057 O 0.37132 0.31041 0.57858 0.0
O1058 O 0.33509 0.32429 0.59129 0.0
C1059 C 0.40678 0.27784 0.54932 0.0
O1060 O 0.40503 0.3047 0.54926 0.0
C1061 C 0.26296 0.33756 0.59472 0.0
C1062 C 0.22654 0.31057 0.59427 0.0
C1063 C 0.23494 0.33708 0.59719 0.0
N1064 N 0.27075 0.31242 0.59044 0.0
N1065 N 0.24896 0.29631 0.59041 0.0
C1066 C 0.28154 0.36196 0.59491 0.0
H1067 H 0.29624 0.36079 0.58579 0.0
H1068 H 0.26978 0.38136 0.59419 0.0
H1069 H 0.29346 0.36189 0.60512 0.0
C1070 C 0.32297 0.2899 0.5421 0.0
N1071 N 0.32742 0.28935 0.55642 0.0
N1072 N 0.30599 0.29954 0.56319 0.0
C1073 C 0.28741 0.30757 0.55328 0.0
C1074 C 0.2975 0.30156 0.53963 0.0
C1075 C 0.34222 0.27813 0.53116 0.0
H1076 H 0.352 0.25937 0.53552 0.0
H1077 H 0.35854 0.29333 0.52881 0.0
H1078 H 0.33143 0.27299 0.52096 0.0
O1079 O 0.34752 0.24854 0.58033 0.0
O1080 O 0.31061 0.26299 0.59201 0.0
H1081 H 0.2463 0.30791 0.56123 0.0
H1082 H 0.25257 0.33251 0.54704 0.0
C1083 C 0.26146 0.32254 0.55674 0.0
H1084 H 0.26564 0.33857 0.5649 0.0
H1085 H 0.24926 0.27578 0.58728 0.0
O1086 O 0.38841 0.26389 0.5557 0.0
C1087 C 0.32846 0.24466 0.58945 0.0
H1088 H 0.19129 0.24329 0.36782 0.0
H1089 H 0.14433 0.20578 0.40211 0.0
H1090 H 0.18105 0.20421 0.35215 0.0
H1091 H 0.13415 0.16704 0.38654 0.0
H1092 H 0.12275 0.0964 0.35787 0.0
H1093 H 0.15115 0.12744 0.37208 0.0
H1094 H 0.13517 0.19235 0.3415 0.0
H1095 H 0.10703 0.16141 0.32722 0.0
C1096 C 0.17942 0.2264 0.37212 0.0
C1097 C 0.1682 0.22774 0.38608 0.0
C1098 C 0.17351 0.20412 0.36315 0.0
C1099 C 0.15665 0.18273 0.3681 0.0
C1100 C 0.14739 0.18309 0.38246 0.0
C1101 C 0.153 0.20543 0.39133 0.0
C1102 C 0.12579 0.11708 0.35399 0.0
C1103 C 0.11217 0.12658 0.34157 0.0
C1104 C 0.14205 0.13484 0.36214 0.0
C1105 C 0.14515 0.16233 0.35796 0.0
C1106 C 0.13334 0.17121 0.34494 0.0
C1107 C 0.11695 0.15353 0.33684 0.0
H1108 H -0.00103 0.93692 0.62569 0.0
H1109 H 0.03036 0.87933 0.65712 0.0
H1110 H 0.03921 0.929 0.61057 0.0
H1111 H 0.07036 0.87148 0.64201 0.0
H1112 H 0.14505 0.86804 0.61449 0.0
H1113 H 0.11244 0.8915 0.63021 0.0
H1114 H 0.05068 0.88589 0.59689 0.0
H1115 H 0.0831 0.86261 0.5812 0.0
C1116 C 0.01471 0.92305 0.62953 0.0
C1117 C 0.01129 0.90838 0.64248 0.0
C1118 C 0.03767 0.9185 0.62085 0.0
C1119 C 0.05775 0.8995 0.62508 0.0
C1120 C 0.05532 0.88641 0.63853 0.0
C1121 C 0.03226 0.89073 0.64712 0.0
C1122 C 0.12471 0.87236 0.6104 0.0
C1123 C 0.11651 0.86311 0.59669 0.0
C1124 C 0.10606 0.88572 0.61942 0.0
C1125 C 0.07903 0.89035 0.61479 0.0
C1126 C 0.07145 0.88281 0.60071 0.0
C1127 C 0.08996 0.86923 0.59177 0.0
H1128 H 0.31175 0.73829 0.87514 0.0
H1129 H 0.36847 0.7682 0.90742 0.0
H1130 H 0.31865 0.78007 0.8611 0.0
H1131 H 0.3754 0.80968 0.89335 0.0
H1132 H 0.37957 0.88597 0.86755 0.0
H1133 H 0.35557 0.85225 0.88242 0.0
H1134 H 0.36104 0.79339 0.84771 0.0
H1135 H 0.3848 0.82689 0.83288 0.0
C1136 C 0.32523 0.75398 0.8794 0.0
C1137 C 0.33999 0.74972 0.89226 0.0
C1138 C 0.32917 0.77786 0.87134 0.0
C1139 C 0.34772 0.79797 0.87607 0.0
C1140 C 0.36081 0.79464 0.88948 0.0
C1141 C 0.35703 0.77072 0.89748 0.0
C1142 C 0.37506 0.86604 0.86298 0.0
C1143 C 0.38452 0.85889 0.84914 0.0
C1144 C 0.36139 0.84676 0.87151 0.0
C1145 C 0.35666 0.82017 0.86626 0.0
C1146 C 0.36419 0.81379 0.85202 0.0
C1147 C 0.37806 0.83292 0.84356 0.0
H1148 H 0.40602 0.14152 0.07574 0.0
H1149 H 0.33885 0.13177 0.10576 0.0
H1150 H 0.43505 0.11376 0.0913 0.0
H1151 H 0.36809 0.10386 0.12135 0.0
H1152 H 0.44698 0.1068 0.15182 0.0
H1153 H 0.40916 0.11914 0.13596 0.0
H1154 H 0.44225 0.06706 0.10256 0.0
H1155 H 0.48028 0.05462 0.11845 0.0
C1156 C 0.39732 0.13309 0.08554 0.0
C1157 C 0.37027 0.13914 0.08962 0.0
C1158 C 0.41387 0.11693 0.09438 0.0
C1159 C 0.40379 0.1067 0.10752 0.0
C1160 C 0.37635 0.1116 0.11128 0.0
C1161 C 0.35965 0.12754 0.10235 0.0
C1162 C 0.44586 0.09744 0.14122 0.0
C1163 C 0.46685 0.08014 0.13628 0.0
C1164 C 0.42407 0.10436 0.13218 0.0
C1165 C 0.423 0.09427 0.11799 0.0
C1166 C 0.44281 0.0753 0.11343 0.0
C1167 C 0.46449 0.06813 0.12254 0.0
H1168 H 0.13076 0.77662 0.07525 0.0
H1169 H 0.18644 0.74228 0.10677 0.0
H1170 H 0.12444 0.81667 0.09047 0.0
H1171 H 0.18014 0.78266 0.12201 0.0
H1172 H 0.11493 0.8283 0.15132 0.0
H1173 H 0.13789 0.79568 0.13564 0.0
H1174 H 0.14509 0.85768 0.10254 0.0
H1175 H 0.12187 0.89051 0.11827 0.0
C1176 C 0.1421 0.77788 0.08529 0.0
C1177 C 0.15871 0.75606 0.08993 0.0
C1178 C 0.13868 0.80098 0.09395 0.0
C1179 C 0.15165 0.80267 0.10747 0.0
C1180 C 0.16972 0.78173 0.11168 0.0
C1181 C 0.17335 0.75867 0.10295 0.0
C1182 C 0.12188 0.83517 0.14081 0.0
C1183 C 0.1162 0.86184 0.13594 0.0
C1184 C 0.13529 0.81654 0.13188 0.0
C1185 C 0.14311 0.82411 0.11783 0.0
C1186 C 0.13907 0.85129 0.11329 0.0
C1187 C 0.12586 0.87007 0.12231 0.0
H1188 H 0.45699 0.92261 0.32835 0.0
H1189 H 0.50791 0.91675 0.36627 0.0
H1190 H 0.41633 0.91439 0.343 0.0
H1191 H 0.46812 0.90576 0.38081 0.0
H1192 H 0.39589 0.88432 0.40625 0.0
H1193 H 0.42831 0.91185 0.39248 0.0
H1194 H 0.39524 0.878 0.35284 0.0
H1195 H 0.36136 0.85297 0.36671 0.0
C1196 C 0.45929 0.91984 0.33991 0.0
C1197 C 0.48535 0.92023 0.34626 0.0
C1198 C 0.43609 0.9147 0.34831 0.0
C1199 C 0.43867 0.90857 0.36314 0.0
C1200 C 0.46485 0.91066 0.36955 0.0
C1201 C 0.48787 0.91682 0.36121 0.0
C1202 C 0.39528 0.8835 0.39456 0.0
C1203 C 0.37641 0.86654 0.38748 0.0
C1204 C 0.41406 0.899 0.38662 0.0
C1205 C 0.41513 0.89688 0.37145 0.0
C1206 C 0.39511 0.88077 0.36443 0.0
C1207 C 0.3757 0.86612 0.37237 0.0
H1208 H 0.37445 0.08946 0.62844 0.0
H1209 H 0.38922 0.15679 0.65776 0.0
H1210 H 0.3456 0.11918 0.61359 0.0
H1211 H 0.36065 0.1863 0.64294 0.0
H1212 H 0.35292 0.19651 0.58242 0.0
H1213 H 0.3623 0.15821 0.59844 0.0
H1214 H 0.31477 0.1969 0.63207 0.0
H1215 H 0.30537 0.23553 0.61596 0.0
C1216 C 0.37106 0.11038 0.63189 0.0
C1217 C 0.38457 0.12097 0.64409 0.0
C1218 C 0.35455 0.12735 0.6234 0.0
C1219 C 0.35106 0.15506 0.62706 0.0
C1220 C 0.36275 0.16497 0.6399 0.0
C1221 C 0.37941 0.14812 0.64831 0.0
C1222 C 0.34391 0.19656 0.59311 0.0
C1223 C 0.32889 0.21923 0.59805 0.0
C1224 C 0.34905 0.17447 0.60225 0.0
C1225 C 0.33947 0.17472 0.61654 0.0
C1226 C 0.32257 0.19635 0.62112 0.0
C1227 C 0.31715 0.21839 0.6119 0.0
H1228 H 0.12767 0.1569 0.85848 0.0
H1229 H 0.10161 0.11825 0.89802 0.0
H1230 H 0.09092 0.13438 0.84546 0.0
H1231 H 0.06633 0.09318 0.88489 0.0
H1232 H 0.98198 0.09082 0.86337 0.0
H1233 H 0.02433 0.10104 0.87593 0.0
H1234 H 0.06786 0.09975 0.83512 0.0
H1235 H 0.02456 0.09226 0.8226 0.0
C1236 C 0.11459 0.14265 0.86424 0.0
C1237 C 0.11712 0.13941 0.8792 0.0
C1238 C 0.09351 0.12947 0.85677 0.0
C1239 C 0.07502 0.11205 0.86407 0.0
C1240 C 0.07932 0.10712 0.87891 0.0
C1241 C 0.09976 0.12116 0.88645 0.0
C1242 C 0.00076 0.09235 0.85718 0.0
C1243 C 0.00014 0.09109 0.84208 0.0
C1244 C 0.02526 0.09801 0.86437 0.0
C1245 C 0.04989 0.10168 0.85661 0.0
C1246 C 0.04937 0.0981 0.8415 0.0
C1247 C 0.02464 0.09346 0.83429 0.0
H1248 H 0.86297 0.78274 0.57797 0.0
H1249 H 0.80595 0.74999 0.60927 0.0
H1250 H 0.87191 0.82157 0.59373 0.0
H1251 H 0.81493 0.7891 0.62506 0.0
H1252 H 0.87852 0.89388 0.62267 0.0
H1253 H 0.85346 0.86307 0.60655 0.0
H1254 H 0.85852 0.79886 0.63856 0.0
H1255 H 0.88339 0.82944 0.65462 0.0
C1256 C 0.85191 0.78412 0.58808 0.0
C1257 C 0.83412 0.76307 0.59249 0.0
C1258 C 0.85684 0.80652 0.59706 0.0
C1259 C 0.84425 0.80822 0.61066 0.0
C1260 C 0.82506 0.78813 0.61466 0.0
C1261 C 0.8199 0.76581 0.60561 0.0
C1262 C 0.87374 0.87338 0.62638 0.0
C1263 C 0.88334 0.86391 0.6398 0.0
C1264 C 0.85946 0.85577 0.61715 0.0
C1265 C 0.85422 0.82856 0.62128 0.0
C1266 C 0.86205 0.81979 0.63513 0.0
C1267 C 0.87655 0.83725 0.64428 0.0
H1268 H -0.00174 0.06121 0.3638 0.0
H1269 H 0.96054 0.10638 0.3289 0.0
H1270 H 0.9591 0.07196 0.37932 0.0
H1271 H 0.92173 0.11708 0.34432 0.0
H1272 H 0.85012 0.12747 0.37306 0.0
H1273 H 0.88209 0.09999 0.35886 0.0
H1274 H 0.94649 0.11797 0.38947 0.0
H1275 H 0.91471 0.1452 0.40368 0.0
C1276 C 0.98134 0.07283 0.35935 0.0
C1277 C 0.98262 0.08334 0.34523 0.0
C1278 C 0.95901 0.07904 0.36823 0.0
C1279 C 0.9375 0.0955 0.36305 0.0
C1280 C 0.93787 0.10416 0.34859 0.0
C1281 C 0.96025 0.09825 0.33979 0.0
C1282 C 0.87095 0.12509 0.37691 0.0
C1283 C 0.88003 0.13892 0.38934 0.0
C1284 C 0.88922 0.10938 0.36877 0.0
C1285 C 0.91679 0.10701 0.37301 0.0
C1286 C 0.92532 0.11921 0.38599 0.0
C1287 C 0.90715 0.13507 0.39406 0.0
H1288 H 0.613 0.14176 0.1555 0.0
H1289 H 0.57839 0.11218 0.1156 0.0
H1290 H 0.64155 0.17393 0.14213 0.0
H1291 H 0.60437 0.14599 0.10219 0.0
H1292 H 0.65354 0.20598 0.07855 0.0
H1293 H 0.64174 0.1652 0.09242 0.0
H1294 H 0.63788 0.21472 0.13124 0.0
H1295 H 0.65244 0.25432 0.11749 0.0
C1296 C 0.61161 0.14229 0.14382 0.0
C1297 C 0.59357 0.1248 0.13651 0.0
C1298 C 0.62769 0.16091 0.13611 0.0
C1299 C 0.62508 0.16325 0.12099 0.0
C1300 C 0.60759 0.14478 0.11373 0.0
C1301 C 0.59238 0.12547 0.12141 0.0
C1302 C 0.65087 0.2077 0.09014 0.0
C1303 C 0.65377 0.23306 0.09702 0.0
C1304 C 0.64374 0.18446 0.0981 0.0
C1305 C 0.6381 0.18645 0.11301 0.0
C1306 C 0.64237 0.21186 0.1199 0.0
C1307 C 0.65055 0.23479 0.11201 0.0
H1308 H 0.64771 0.85939 0.87283 0.0
H1309 H 0.58637 0.84459 0.90561 0.0
H1310 H 0.61428 0.88579 0.85887 0.0
H1311 H 0.55324 0.87082 0.89172 0.0
H1312 H 0.50024 0.92795 0.86717 0.0
H1313 H 0.54114 0.91707 0.88132 0.0
H1314 H 0.57202 0.86824 0.84601 0.0
H1315 H 0.53139 0.87906 0.83189 0.0
C1316 C 0.62729 0.86219 0.87718 0.0
C1317 C 0.61951 0.84957 0.8902 0.0
C1318 C 0.60821 0.87726 0.86919 0.0
C1319 C 0.58121 0.88027 0.87421 0.0
C1320 C 0.57399 0.8691 0.88766 0.0
C1321 C 0.5929 0.85381 0.89554 0.0
C1322 C 0.51606 0.91542 0.86232 0.0
C1323 C 0.51241 0.90395 0.84853 0.0
C1324 C 0.5394 0.90917 0.87042 0.0
C1325 C 0.55958 0.89166 0.86478 0.0
C1326 C 0.55689 0.88195 0.85059 0.0
C1327 C 0.53348 0.88795 0.84255 0.0
H1328 H 0.87894 0.17486 0.83029 0.0
H1329 H 0.8676 0.11221 0.86279 0.0
H1330 H 0.85761 0.20833 0.84617 0.0
H1331 H 0.84614 0.14586 0.87866 0.0
H1332 H 0.86407 0.22488 0.90687 0.0
H1333 H 0.86955 0.18553 0.89102 0.0
H1334 H 0.81509 0.22272 0.85989 0.0
H1335 H 0.8095 0.26231 0.8758 0.0
C1336 C 0.87139 0.16809 0.8407 0.0
C1337 C 0.87536 0.14098 0.84537 0.0
C1338 C 0.85894 0.18723 0.84974 0.0
C1339 C 0.85042 0.17969 0.86368 0.0
C1340 C 0.85275 0.15221 0.868 0.0
C1341 C 0.86497 0.13296 0.85889 0.0
C1342 C 0.85284 0.22446 0.89677 0.0
C1343 C 0.83665 0.24683 0.89249 0.0
C1344 C 0.85579 0.2018 0.88775 0.0
C1345 C 0.84282 0.20116 0.87421 0.0
C1346 C 0.82541 0.22282 0.87025 0.0
C1347 C 0.82218 0.2454 0.87937 0.0
H1348 H 0.63571 0.14238 0.61707 0.0
H1349 H 0.5976 0.11275 0.57806 0.0
H1350 H 0.60214 0.11807 0.63147 0.0
H1351 H 0.56536 0.08593 0.59233 0.0
H1352 H 0.48793 0.08123 0.62019 0.0
H1353 H 0.52664 0.09272 0.60495 0.0
H1354 H 0.58127 0.08165 0.64145 0.0
H1355 H 0.54169 0.07294 0.65686 0.0
C1356 C 0.6206 0.12979 0.61162 0.0
C1357 C 0.61887 0.12964 0.59653 0.0
C1358 C 0.60137 0.11554 0.61987 0.0
C1359 C 0.58048 0.10009 0.61317 0.0
C1360 C 0.58037 0.09829 0.59797 0.0
C1361 C 0.59901 0.11339 0.58974 0.0
C1362 C 0.50835 0.08081 0.6248 0.0
C1363 C 0.51205 0.07644 0.63961 0.0
C1364 C 0.53074 0.08722 0.61606 0.0
C1365 C 0.55742 0.08861 0.6219 0.0
C1366 C 0.5611 0.08181 0.63659 0.0
C1367 C 0.53854 0.07641 0.64542 0.0
H1368 H 0.63466 0.7793 0.40228 0.0
H1369 H 0.68269 0.74466 0.36758 0.0
H1370 H 0.62571 0.81971 0.38764 0.0
H1371 H 0.67363 0.78533 0.35289 0.0
H1372 H 0.62012 0.8945 0.36031 0.0
H1373 H 0.64543 0.8606 0.37446 0.0
H1374 H 0.62804 0.79923 0.34214 0.0
H1375 H 0.60286 0.83288 0.32802 0.0
C1376 C 0.64376 0.78057 0.39163 0.0
C1377 C 0.659 0.75863 0.38598 0.0
C1378 C 0.63884 0.80384 0.38329 0.0
C1379 C 0.64885 0.80554 0.36911 0.0
C1380 C 0.66555 0.78439 0.36378 0.0
C1381 C 0.67076 0.76119 0.37219 0.0
C1382 C 0.62222 0.87393 0.35608 0.0
C1383 C 0.60915 0.86623 0.34317 0.0
C1384 C 0.63665 0.85456 0.36419 0.0
C1385 C 0.63856 0.82731 0.35942 0.0
C1386 C 0.62713 0.82014 0.34602 0.0
C1387 C 0.61246 0.83937 0.33801 0.0
H1388 H 0.00427 0.94001 0.12088 0.0
H1389 H 0.96953 0.88852 0.15419 0.0
H1390 H 0.96248 0.93458 0.10655 0.0
H1391 H 0.92811 0.88308 0.13991 0.0
H1392 H 0.85293 0.87988 0.11378 0.0
H1393 H 0.88726 0.90438 0.12804 0.0
H1394 H 0.94686 0.8917 0.09422 0.0
H1395 H 0.91275 0.86748 0.07999 0.0
C1396 C 0.98751 0.92808 0.12529 0.0
C1397 C 0.99034 0.91425 0.13853 0.0
C1398 C 0.96364 0.92496 0.11708 0.0
C1399 C 0.94216 0.90828 0.12208 0.0
C1400 C 0.9442 0.89627 0.13582 0.0
C1401 C 0.96808 0.89915 0.14394 0.0
C1402 C 0.87316 0.88295 0.10924 0.0
C1403 C 0.88034 0.87125 0.0959 0.0
C1404 C 0.89279 0.89692 0.11742 0.0
C1405 C 0.91976 0.89969 0.11229 0.0
C1406 C 0.92619 0.89007 0.09841 0.0
C1407 C 0.90671 0.87591 0.09032 0.0
H1408 H 0.69959 0.74322 0.87134 0.0
H1409 H 0.65109 0.70166 0.9037 0.0
H1410 H 0.69223 0.705 0.85474 0.0
H1411 H 0.64361 0.66382 0.88715 0.0
H1412 H 0.62149 0.66409 0.82695 0.0
H1413 H 0.64816 0.6936 0.84271 0.0
H1414 H 0.66122 0.62593 0.87201 0.0
H1415 H 0.63414 0.59628 0.85627 0.0
C1416 C 0.68802 0.72563 0.87505 0.0
C1417 C 0.67542 0.72566 0.8887 0.0
C1418 C 0.68374 0.70382 0.86554 0.0
C1419 C 0.66706 0.68162 0.86959 0.0
C1420 C 0.65669 0.68054 0.88373 0.0
C1421 C 0.66076 0.70238 0.89317 0.0
C1422 C 0.63046 0.65531 0.8366 0.0
C1423 C 0.6252 0.62799 0.84051 0.0
C1424 C 0.64604 0.67217 0.84557 0.0
C1425 C 0.6566 0.6621 0.85865 0.0
C1426 C 0.65308 0.63426 0.86204 0.0
C1427 C 0.6376 0.61731 0.85302 0.0
H1428 H 0.57693 0.35619 0.07969 0.0
H1429 H 0.63666 0.36655 0.11379 0.0
H1430 H 0.54294 0.38004 0.09419 0.0
H1431 H 0.60243 0.3905 0.12832 0.0
H1432 H 0.51945 0.37832 0.1543 0.0
H1433 H 0.56021 0.36991 0.13984 0.0
H1434 H 0.52936 0.42403 0.10669 0.0
H1435 H 0.48837 0.43256 0.12119 0.0
C1436 C 0.58298 0.36405 0.09016 0.0
C1437 C 0.60934 0.35909 0.09569 0.0
C1438 C 0.56355 0.37793 0.09841 0.0
C1439 C 0.57002 0.38692 0.11241 0.0
C1440 C 0.59689 0.38355 0.11759 0.0
C1441 C 0.61646 0.36992 0.10925 0.0
C1442 C 0.52155 0.38884 0.14405 0.0
C1443 C 0.50053 0.40579 0.13879 0.0
C1444 C 0.54503 0.38421 0.13583 0.0
C1445 C 0.54785 0.39623 0.12213 0.0
C1446 C 0.52756 0.41439 0.1172 0.0
C1447 C 0.50417 0.41929 0.12551 0.0
H1448 H 0.8095 0.2486 0.36789 0.0
H1449 H 0.85206 0.28965 0.40265 0.0
H1450 H 0.81874 0.28768 0.35202 0.0
H1451 H 0.86126 0.32837 0.3869 0.0
H1452 H 0.8724 0.39816 0.35768 0.0
H1453 H 0.84393 0.36661 0.3716 0.0
H1454 H 0.86458 0.3012 0.34215 0.0
H1455 H 0.89279 0.33257 0.3282 0.0
C1456 C 0.82014 0.26625 0.37225 0.0
C1457 C 0.8305 0.26594 0.38641 0.0
C1458 C 0.82548 0.28853 0.36316 0.0
C1459 C 0.8409 0.31094 0.3682 0.0
C1460 C 0.84914 0.31153 0.38273 0.0
C1461 C 0.84409 0.28921 0.39172 0.0
C1462 C 0.87036 0.3772 0.35398 0.0
C1463 C 0.88534 0.36769 0.34202 0.0
C1464 C 0.85406 0.35917 0.36196 0.0
C1465 C 0.85227 0.33142 0.35804 0.0
C1466 C 0.86539 0.32252 0.34539 0.0
C1467 C 0.88181 0.34045 0.33747 0.0
H1468 H 0.89423 0.6162 0.57294 0.0
H1469 H 0.863 0.64784 0.61313 0.0
H1470 H 0.92686 0.58779 0.58608 0.0
H1471 H 0.89717 0.62197 0.62635 0.0
H1472 H 0.95963 0.57582 0.64962 0.0
H1473 H 0.91821 0.58519 0.63576 0.0
H1474 H 0.96753 0.59295 0.59703 0.0
H1475 H 0.00799 0.58081 0.61078 0.0
C1476 C 0.89439 0.61686 0.58464 0.0
C1477 C 0.87638 0.63415 0.59209 0.0
C1478 C 0.91329 0.60088 0.59221 0.0
C1479 C 0.91542 0.60286 0.60737 0.0
C1480 C 0.89623 0.6193 0.61477 0.0
C1481 C 0.87665 0.63443 0.6072 0.0
C1482 C 0.96121 0.57871 0.63804 0.0
C1483 C 0.98678 0.57771 0.63119 0.0
C1484 C 0.93757 0.58448 0.63008 0.0
C1485 C 0.93925 0.59065 0.61523 0.0
C1486 C 0.96492 0.58803 0.60833 0.0
C1487 C 0.98834 0.58122 0.61622 0.0
H1488 H 0.63761 0.27595 0.5775 0.0
H1489 H 0.69233 0.24661 0.61084 0.0
H1490 H 0.62969 0.31755 0.59125 0.0
H1491 H 0.68442 0.28859 0.62463 0.0
H1492 H 0.61496 0.33458 0.65116 0.0
H1493 H 0.64095 0.30162 0.63711 0.0
H1494 H 0.64825 0.36034 0.60239 0.0
H1495 H 0.6219 0.39349 0.61647 0.0
C1496 C 0.6484 0.27864 0.58764 0.0
C1497 C 0.66515 0.25778 0.59324 0.0
C1498 C 0.64409 0.30264 0.59544 0.0
C1499 C 0.6563 0.3062 0.60905 0.0
C1500 C 0.6746 0.28622 0.6142 0.0
C1501 C 0.67912 0.26224 0.60631 0.0
C1502 C 0.62256 0.3407 0.64065 0.0
C1503 C 0.61592 0.36641 0.6348 0.0
C1504 C 0.63774 0.3219 0.63266 0.0
C1505 C 0.64642 0.32836 0.61861 0.0
C1506 C 0.64157 0.3548 0.61316 0.0
C1507 C 0.62656 0.37376 0.62123 0.0
H1508 H 0.95462 0.39836 0.82819 0.0
H1509 H 0.99584 0.44937 0.85959 0.0
H1510 H 0.91746 0.39062 0.84518 0.0
H1511 H 0.95838 0.44164 0.87663 0.0
H1512 H 0.919 0.37145 0.90556 0.0
H1513 H 0.94808 0.39739 0.88922 0.0
H1514 H 0.87948 0.40922 0.86036 0.0
H1515 H 0.85029 0.38301 0.87669 0.0
C1516 C 0.95541 0.40848 0.8386 0.0
C1517 C 0.97839 0.42403 0.84266 0.0
C1518 C 0.93398 0.40424 0.84829 0.0
C1519 C 0.93519 0.41531 0.86228 0.0
C1520 C 0.95711 0.43266 0.86595 0.0
C1521 C 0.97848 0.43713 0.85618 0.0
C1522 C 0.90994 0.38002 0.89588 0.0
C1523 C 0.88245 0.37471 0.8923 0.0
C1524 C 0.92655 0.39515 0.88658 0.0
C1525 C 0.91607 0.40515 0.87347 0.0
C1526 C 0.88811 0.40154 0.87036 0.0
C1527 C 0.8714 0.38657 0.87974 0.0
H1528 H 0.83041 0.71753 0.07995 0.0
H1529 H 0.83624 0.76526 0.11897 0.0
H1530 H 0.83788 0.67566 0.09374 0.0
H1531 H 0.84657 0.72426 0.13268 0.0
H1532 H 0.86384 0.64952 0.15694 0.0
H1533 H 0.83832 0.68399 0.14346 0.0
H1534 H 0.87277 0.65244 0.10364 0.0
H1535 H 0.89558 0.61657 0.11715 0.0
C1536 C 0.83325 0.71888 0.09154 0.0
C1537 C 0.83289 0.74436 0.09847 0.0
C1538 C 0.83788 0.69498 0.09947 0.0
C1539 C 0.8435 0.69627 0.1144 0.0
C1540 C 0.84192 0.72196 0.12133 0.0
C1541 C 0.83623 0.74567 0.11346 0.0
C1542 C 0.86514 0.6497 0.14525 0.0
C1543 C 0.88159 0.63066 0.13801 0.0
C1544 C 0.85085 0.66965 0.13749 0.0
C1545 C 0.85383 0.67174 0.12238 0.0
C1546 C 0.86938 0.65159 0.11518 0.0
C1547 C 0.88274 0.63101 0.12291 0.0
H1548 H 0.57975 0.6326 0.40116 0.0
H1549 H 0.64118 0.62453 0.3678 0.0
H1550 H 0.54703 0.60819 0.38612 0.0
H1551 H 0.60823 0.5999 0.35272 0.0
H1552 H 0.52595 0.61193 0.32592 0.0
H1553 H 0.5665 0.61949 0.34067 0.0
H1554 H 0.53432 0.56484 0.37322 0.0
H1555 H 0.49348 0.55727 0.35845 0.0
C1556 C 0.58644 0.62513 0.39073 0.0
C1557 C 0.61288 0.63095 0.38556 0.0
C1558 C 0.56775 0.61088 0.38216 0.0
C1559 C 0.57505 0.60233 0.36821 0.0
C1560 C 0.60205 0.60649 0.3634 0.0
C1561 C 0.62088 0.62053 0.37205 0.0
C1562 C 0.52774 0.60106 0.33608 0.0
C1563 C 0.5063 0.5844 0.34114 0.0
C1564 C 0.55112 0.6052 0.34447 0.0
C1565 C 0.55344 0.59291 0.35814 0.0
C1566 C 0.5329 0.57473 0.36277 0.0
C1567 C 0.50958 0.57037 0.3543 0.0
H1568 H 0.3727 0.32927 0.1505 0.0
H1569 H 0.36434 0.39575 0.11993 0.0
H1570 H 0.3471 0.29941 0.1344 0.0
H1571 H 0.33845 0.36572 0.10383 0.0
H1572 H 0.29572 0.25026 0.10504 0.0
H1573 H 0.30345 0.28884 0.12138 0.0
H1574 H 0.35681 0.32623 0.08978 0.0
H1575 H 0.34905 0.28798 0.0735 0.0
C1576 C 0.36491 0.33769 0.14048 0.0
C1577 C 0.37102 0.36473 0.13637 0.0
C1578 C 0.34997 0.32063 0.13131 0.0
C1579 C 0.34095 0.3302 0.11781 0.0
C1580 C 0.34538 0.35778 0.11413 0.0
C1581 C 0.36017 0.37495 0.12336 0.0
C1582 C 0.30847 0.2671 0.10143 0.0
C1583 C 0.32219 0.26589 0.0881 0.0
C1584 C 0.31296 0.28911 0.11081 0.0
C1585 C 0.33095 0.31037 0.10691 0.0
C1586 C 0.34269 0.31026 0.09307 0.0
C1587 C 0.33843 0.2882 0.08378 0.0
H1588 H 0.47589 0.6131 0.82625 0.0
H1589 H 0.50961 0.55556 0.85701 0.0
H1590 H 0.43608 0.61946 0.84167 0.0
H1591 H 0.46952 0.56196 0.87246 0.0
H1592 H 0.36143 0.61923 0.86913 0.0
H1593 H 0.39488 0.59755 0.8532 0.0
H1594 H 0.45632 0.60387 0.88665 0.0
H1595 H 0.42306 0.62534 0.90257 0.0
C1596 C 0.47457 0.60143 0.83618 0.0
C1597 C 0.49608 0.58415 0.84052 0.0
C1598 C 0.45162 0.60488 0.84495 0.0
C1599 C 0.4498 0.59129 0.85829 0.0
C1600 C 0.47055 0.57282 0.86227 0.0
C1601 C 0.49343 0.56914 0.85341 0.0
C1602 C 0.38189 0.61542 0.8732 0.0
C1603 C 0.38973 0.62437 0.88703 0.0
C1604 C 0.40103 0.60309 0.86406 0.0
C1605 C 0.4282 0.59922 0.86867 0.0
C1606 C 0.43547 0.60639 0.88285 0.0
C1607 C 0.41645 0.61893 0.89192 0.0
H1608 H 0.14098 0.71683 0.57573 0.0
H1609 H 0.18831 0.74981 0.61119 0.0
H1610 H 0.13174 0.67572 0.58973 0.0
H1611 H 0.17908 0.70836 0.62523 0.0
H1612 H 0.10752 0.6609 0.64922 0.0
H1613 H 0.13371 0.69449 0.63563 0.0
H1614 H 0.14959 0.63423 0.60254 0.0
H1615 H 0.12312 0.60042 0.61614 0.0
C1616 C 0.14995 0.71501 0.5864 0.0
C1617 C 0.16496 0.73673 0.59247 0.0
C1618 C 0.14486 0.69133 0.59437 0.0
C1619 C 0.1545 0.68897 0.60861 0.0
C1620 C 0.17122 0.70981 0.61431 0.0
C1621 C 0.17656 0.73345 0.60626 0.0
C1622 C 0.11697 0.65462 0.63917 0.0
C1623 C 0.11286 0.62813 0.63364 0.0
C1624 C 0.13225 0.67381 0.63146 0.0
C1625 C 0.1436 0.66698 0.618 0.0
C1626 C 0.14091 0.64003 0.61286 0.0
C1627 C 0.1258 0.6207 0.62065 0.0
H1628 H 0.13855 0.34529 0.36714 0.0
H1629 H 0.1027 0.37038 0.40756 0.0
H1630 H 0.1042 0.37115 0.35404 0.0
H1631 H 0.06972 0.39874 0.39465 0.0
H1632 H 0.99045 0.40522 0.3683 0.0
H1633 H 0.03024 0.39257 0.38252 0.0
H1634 H 0.08243 0.40847 0.34556 0.0
H1635 H 0.04182 0.41838 0.33111 0.0
C1636 C 0.1238 0.35726 0.37319 0.0
C1637 C 0.12286 0.35565 0.38828 0.0
C1638 C 0.10412 0.37237 0.36571 0.0
C1639 C 0.08359 0.38692 0.3732 0.0
C1640 C 0.0844 0.38709 0.38842 0.0
C1641 C 0.10348 0.37113 0.39587 0.0
C1642 C 0.01057 0.4064 0.36338 0.0
C1643 C 0.0133 0.41246 0.34869 0.0
C1644 C 0.03356 0.39935 0.37153 0.0
C1645 C 0.05989 0.39902 0.36523 0.0
C1646 C 0.06257 0.40747 0.35073 0.0
C1647 C 0.03941 0.41353 0.34246 0.0
H1648 H 0.37832 0.66481 0.32881 0.0
H1649 H 0.37626 0.60387 0.36268 0.0
H1650 H 0.35471 0.69702 0.34446 0.0
H1651 H 0.35239 0.6363 0.3784 0.0
H1652 H 0.36316 0.7195 0.40445 0.0
H1653 H 0.37132 0.67917 0.38967 0.0
H1654 H 0.31223 0.70812 0.35844 0.0
H1655 H 0.30407 0.74874 0.37322 0.0
C1656 C 0.37234 0.65812 0.33951 0.0
C1657 C 0.37951 0.63196 0.3446 0.0
C1658 C 0.35856 0.6765 0.34843 0.0
C1659 C 0.35185 0.6692 0.36267 0.0
C1660 C 0.35751 0.64248 0.36749 0.0
C1661 C 0.37107 0.62392 0.35848 0.0
C1662 C 0.3515 0.71706 0.39457 0.0
C1663 C 0.33333 0.73755 0.38988 0.0
C1664 C 0.35599 0.69379 0.38617 0.0
C1665 C 0.34254 0.69062 0.37286 0.0
C1666 C 0.32303 0.71021 0.36861 0.0
C1667 C 0.31834 0.73341 0.37709 0.0
H1668 H 0.07476 0.63218 0.07631 0.0
H1669 H 0.13917 0.62049 0.10781 0.0
H1670 H 0.04329 0.60661 0.09152 0.0
H1671 H 0.10758 0.5945 0.12299 0.0
H1672 H 0.02882 0.60489 0.15233 0.0
H1673 H 0.06793 0.61289 0.13669 0.0
H1674 H 0.03073 0.56269 0.10361 0.0
H1675 H 0.99122 0.55476 0.11933 0.0
C1676 C 0.08237 0.62369 0.08635 0.0
C1677 C 0.10933 0.62881 0.09097 0.0
C1678 C 0.06439 0.60873 0.09499 0.0
C1679 C 0.07295 0.5987 0.10848 0.0
C1680 C 0.10042 0.60221 0.11268 0.0
C1681 C 0.11849 0.61704 0.10397 0.0
C1682 C 0.02921 0.59506 0.14185 0.0
C1683 C 0.00674 0.57963 0.13694 0.0
C1684 C 0.05177 0.59942 0.13293 0.0
C1685 C 0.05226 0.58859 0.11888 0.0
C1686 C 0.03072 0.57147 0.11435 0.0
C1687 C 0.00818 0.56687 0.12336 0.0
H1688 H 0.18645 0.25542 0.8629 0.0
H1689 H 0.13656 0.28448 0.89829 0.0
H1690 H 0.17431 0.29614 0.84893 0.0
H1691 H 0.1245 0.32497 0.88433 0.0
H1692 H 0.11258 0.40029 0.85757 0.0
H1693 H 0.14039 0.36792 0.87145 0.0
H1694 H 0.12743 0.30639 0.83863 0.0
H1695 H 0.09977 0.33848 0.82482 0.0
C1696 C 0.17347 0.27079 0.86783 0.0
C1697 C 0.16203 0.26654 0.88158 0.0
C1698 C 0.1665 0.29402 0.85982 0.0
C1699 C 0.14829 0.31351 0.86551 0.0
C1700 C 0.13872 0.31036 0.87971 0.0
C1701 C 0.14544 0.28704 0.88765 0.0
C1702 C 0.11612 0.38002 0.8532 0.0
C1703 C 0.10366 0.37176 0.84022 0.0
C1704 C 0.13199 0.36154 0.86115 0.0
C1705 C 0.13599 0.33469 0.85612 0.0
C1706 C 0.12495 0.32705 0.8427 0.0
C1707 C 0.10885 0.34535 0.83486 0.0
H1708 H 0.39512 0.36279 0.57549 0.0
H1709 H 0.36463 0.33449 0.61655 0.0
H1710 H 0.42796 0.39232 0.58777 0.0
H1711 H 0.39904 0.36153 0.62898 0.0
H1712 H 0.46048 0.41196 0.65074 0.0
H1713 H 0.4193 0.39973 0.63728 0.0
H1714 H 0.46876 0.38886 0.59882 0.0
H1715 H 0.5089 0.40381 0.61209 0.0
C1716 C 0.39555 0.36304 0.5872 0.0
C1717 C 0.37763 0.34645 0.59514 0.0
C1718 C 0.41456 0.37969 0.59428 0.0
C1719 C 0.41685 0.37911 0.60946 0.0
C1720 C 0.3979 0.36316 0.61734 0.0
C1721 C 0.37822 0.34736 0.61024 0.0
C1722 C 0.4621 0.40774 0.63928 0.0
C1723 C 0.48759 0.40877 0.63237 0.0
C1724 C 0.43863 0.40032 0.63157 0.0
C1725 C 0.44046 0.39253 0.61694 0.0
C1726 C 0.46604 0.39501 0.60994 0.0
C1727 C 0.48926 0.40344 0.61755 0.0
H1728 H 0.15096 0.9888 0.34633 0.0
H1729 H 0.08584 0.93613 0.3614 0.0
H1730 H 0.18472 0.95773 0.35643 0.0
H1731 H 0.11957 0.90365 0.37033 0.0
H1732 H 0.18437 0.86163 0.39695 0.0
H1733 H 0.15146 0.89548 0.38842 0.0
H1734 H 0.20558 0.9155 0.35291 0.0
H1735 H 0.23901 0.88262 0.36206 0.0
C1736 C 0.1438 0.97085 0.35205 0.0
C1737 C 0.11565 0.96553 0.3536 0.0
C1738 C 0.16324 0.95259 0.35754 0.0
C1739 C 0.15502 0.92812 0.36432 0.0
C1740 C 0.1268 0.92255 0.36554 0.0
C1741 C 0.10739 0.94107 0.36029 0.0
C1742 C 0.18917 0.87346 0.38737 0.0
C1743 C 0.2142 0.8698 0.38021 0.0
C1744 C 0.17026 0.89272 0.38239 0.0
C1745 C 0.17568 0.90828 0.36991 0.0
C1746 C 0.20084 0.90439 0.36272 0.0
C1747 C 0.21998 0.88548 0.36789 0.0
H1748 H 0.38671 0.9283 0.65333 0.0
H1749 H 0.36106 0.98996 0.62282 0.0
H1750 H 0.3514 0.89732 0.64428 0.0
H1751 H 0.32671 0.95875 0.61315 0.0
H1752 H 0.25399 0.9054 0.60464 0.0
H1753 H 0.2851 0.9367 0.61672 0.0
H1754 H 0.34133 0.86978 0.62448 0.0
H1755 H 0.3089 0.83814 0.61359 0.0
C1756 C 0.37345 0.93513 0.64466 0.0
C1757 C 0.37627 0.96152 0.63887 0.0
C1758 C 0.35335 0.91737 0.63937 0.0
C1759 C 0.33611 0.9254 0.62792 0.0
C1760 C 0.33907 0.95197 0.62218 0.0
C1761 C 0.35882 0.96989 0.62767 0.0
C1762 C 0.27242 0.89714 0.60946 0.0
C1763 C 0.27847 0.86906 0.60861 0.0
C1764 C 0.29068 0.91527 0.61609 0.0
C1765 C 0.31584 0.90589 0.62165 0.0
C1766 C 0.32194 0.87778 0.62066 0.0
C1767 C 0.30345 0.85961 0.61427 0.0
H1768 H 0.24776 0.09909 0.86153 0.0
H1769 H 0.31331 0.1506 0.87725 0.0
H1770 H 0.28019 0.0617 0.85802 0.0
H1771 H 0.34595 0.11377 0.87308 0.0
H1772 H 0.39228 0.03416 0.87889 0.0
H1773 H 0.35799 0.0697 0.88311 0.0
H1774 H 0.31851 0.04877 0.84277 0.0
H1775 H 0.35268 0.01311 0.8387 0.0
C1776 C 0.26902 0.10235 0.86436 0.0
C1777 C 0.27786 0.12754 0.87003 0.0
C1778 C 0.28769 0.08107 0.86214 0.0
C1779 C 0.3156 0.08465 0.86543 0.0
C1780 C 0.3245 0.11012 0.87074 0.0
C1781 C 0.30584 0.13133 0.87298 0.0
C1782 C 0.37604 0.03703 0.87104 0.0
C1783 C 0.37466 0.02055 0.85867 0.0
C1784 C 0.35654 0.05746 0.87338 0.0
C1785 C 0.33551 0.06206 0.86327 0.0
C1786 C 0.33412 0.04541 0.8509 0.0
C1787 C 0.35358 0.0249 0.8486 0.0
H1788 H 0.23781 0.11896 0.11287 0.0
H1789 H 0.18074 0.12975 0.07774 0.0
H1790 H 0.20801 0.08424 0.12347 0.0
H1791 H 0.15142 0.09407 0.08781 0.0
H1792 H 0.09065 0.05212 0.11736 0.0
H1793 H 0.12104 0.08586 0.10667 0.0
H1794 H 0.19118 0.03963 0.12161 0.0
H1795 H 0.16063 0.00727 0.13341 0.0
C1796 C 0.21906 0.11345 0.1073 0.0
C1797 C 0.21155 0.12677 0.09447 0.0
C1798 C 0.20201 0.09348 0.11331 0.0
C1799 C 0.17724 0.08619 0.10651 0.0
C1800 C 0.17003 0.09944 0.09353 0.0
C1801 C 0.18686 0.11975 0.08768 0.0
C1802 C 0.11258 0.04915 0.11835 0.0
C1803 C 0.12318 0.02652 0.12588 0.0
C1804 C 0.13007 0.06837 0.11207 0.0
C1805 C 0.15868 0.06539 0.11307 0.0
C1806 C 0.16928 0.04274 0.12065 0.0
C1807 C 0.15173 0.02373 0.12714 0.0
H1808 H 0.8466 0.99348 0.62561 0.0
H1809 H 0.89749 0.06028 0.64043 0.0
H1810 H 0.81255 0.02624 0.61702 0.0
H1811 H 0.86364 0.09298 0.63165 0.0
H1812 H 0.74751 0.09617 0.61657 0.0
H1813 H 0.77953 0.06212 0.62597 0.0
H1814 H 0.84708 0.10752 0.60762 0.0
H1815 H 0.81514 0.14124 0.59802 0.0
C1816 C 0.85024 0.01507 0.62738 0.0
C1817 C 0.87455 0.02427 0.63395 0.0
C1818 C 0.8308 0.03385 0.62234 0.0
C1819 C 0.83548 0.06215 0.62362 0.0
C1820 C 0.85964 0.07129 0.63034 0.0
C1821 C 0.87896 0.05257 0.63541 0.0
C1822 C 0.76909 0.09853 0.61422 0.0
C1823 C 0.77873 0.12112 0.60628 0.0
C1824 C 0.78744 0.07914 0.61972 0.0
C1825 C 0.81579 0.0822 0.61755 0.0
C1826 C 0.82537 0.1048 0.60963 0.0
C1827 C 0.80706 0.12405 0.60409 0.0
H1828 H 0.68683 0.13618 0.39719 0.0
H1829 H 0.74458 0.11313 0.36411 0.0
H1830 H 0.65514 0.10105 0.38878 0.0
H1831 H 0.71247 0.07873 0.35514 0.0
H1832 H 0.65772 0.00523 0.34843 0.0
H1833 H 0.69085 0.03642 0.35917 0.0
H1834 H 0.62525 0.09256 0.36963 0.0
H1835 H 0.59208 0.06031 0.35999 0.0
C1836 C 0.69264 0.12355 0.38807 0.0
C1837 C 0.71813 0.12712 0.38135 0.0
C1838 C 0.67444 0.10354 0.38317 0.0
C1839 C 0.68107 0.08707 0.37119 0.0
C1840 C 0.7068 0.09062 0.36454 0.0
C1841 C 0.7252 0.11037 0.36963 0.0
C1842 C 0.65027 0.02372 0.35352 0.0
C1843 C 0.62213 0.02982 0.35381 0.0
C1844 C 0.66937 0.04197 0.35939 0.0
C1845 C 0.66082 0.06704 0.36539 0.0
C1846 C 0.63265 0.07321 0.36547 0.0
C1847 C 0.61359 0.05481 0.35979 0.0
H1848 H 0.63209 0.97494 0.14536 0.0
H1849 H 0.58996 0.95872 0.10529 0.0
H1850 H 0.66953 0.94493 0.13792 0.0
H1851 H 0.62752 0.92897 0.09764 0.0
H1852 H 0.68113 0.8524 0.09754 0.0
H1853 H 0.64558 0.8849 0.10409 0.0
H1854 H 0.70713 0.93991 0.12105 0.0
H1855 H 0.74266 0.90664 0.11515 0.0
C1856 C 0.63124 0.96543 0.1348 0.0
C1857 C 0.60853 0.96947 0.12574 0.0
C1858 C 0.65261 0.94823 0.13054 0.0
C1859 C 0.65158 0.93463 0.11716 0.0
C1860 C 0.62882 0.93889 0.10808 0.0
C1861 C 0.6074 0.95598 0.11239 0.0
C1862 C 0.68711 0.87144 0.10266 0.0
C1863 C 0.71479 0.87713 0.10559 0.0
C1864 C 0.66673 0.89021 0.10628 0.0
C1865 C 0.67352 0.91515 0.11296 0.0
C1866 C 0.70122 0.92085 0.11593 0.0
C1867 C 0.72166 0.90197 0.11233 0.0
H1868 H 0.75538 0.8792 0.86442 0.0
H1869 H 0.80866 0.86757 0.90109 0.0
H1870 H 0.78505 0.91584 0.85559 0.0
H1871 H 0.83757 0.90518 0.89289 0.0
H1872 H 0.90067 0.95059 0.86633 0.0
H1873 H 0.86994 0.9156 0.87548 0.0
H1874 H 0.80062 0.96054 0.85851 0.0
H1875 H 0.8317 0.9941 0.84818 0.0
C1876 C 0.77323 0.88493 0.8707 0.0
C1877 C 0.77984 0.87073 0.8834 0.0
C1878 C 0.79018 0.90601 0.86572 0.0
C1879 C 0.81386 0.91358 0.87349 0.0
C1880 C 0.81994 0.89961 0.88641 0.0
C1881 C 0.80331 0.87818 0.8912 0.0
C1882 C 0.87885 0.95303 0.86458 0.0
C1883 C 0.86865 0.97564 0.85689 0.0
C1884 C 0.86112 0.93308 0.86998 0.0
C1885 C 0.83262 0.93528 0.86794 0.0
C1886 C 0.82241 0.95799 0.86026 0.0
C1887 C 0.84024 0.97772 0.85463 0.0
H1888 H 0.69255 0.34535 0.87802 0.0
H1889 H 0.74314 0.41393 0.89059 0.0
H1890 H 0.66034 0.37659 0.86657 0.0
H1891 H 0.71239 0.44501 0.87805 0.0
H1892 H 0.63771 0.4966 0.86728 0.0
H1893 H 0.66942 0.46554 0.87933 0.0
H1894 H 0.65416 0.40452 0.84638 0.0
H1895 H 0.62143 0.43531 0.83485 0.0
C1896 C 0.69703 0.3671 0.8781 0.0
C1897 C 0.72088 0.37708 0.88477 0.0
C1898 C 0.67872 0.38502 0.8714 0.0
C1899 C 0.68389 0.41339 0.87115 0.0
C1900 C 0.70759 0.42336 0.87804 0.0
C1901 C 0.72565 0.40544 0.88496 0.0
C1902 C 0.64141 0.47661 0.8626 0.0
C1903 C 0.62747 0.46834 0.85009 0.0
C1904 C 0.65962 0.45879 0.86946 0.0
C1905 C 0.66453 0.43245 0.86383 0.0
C1906 C 0.65059 0.4244 0.8512 0.0
C1907 C 0.63201 0.44206 0.84451 0.0
H1908 H 0.80096 0.35705 0.09071 0.0
H1909 H 0.74638 0.38247 0.12475 0.0
H1910 H 0.83328 0.39282 0.09749 0.0
H1911 H 0.77942 0.4172 0.13235 0.0
H1912 H 0.83412 0.49082 0.13671 0.0
H1913 H 0.80025 0.45877 0.12762 0.0
H1914 H 0.86531 0.40376 0.11475 0.0
H1915 H 0.89903 0.43716 0.12244 0.0
C1916 C 0.79612 0.37025 0.09977 0.0
C1917 C 0.77136 0.36719 0.10724 0.0
C1918 C 0.81468 0.39064 0.10375 0.0
C1919 C 0.80923 0.40791 0.11558 0.0
C1920 C 0.78423 0.40473 0.12303 0.0
C1921 C 0.76535 0.38472 0.11879 0.0
C1922 C 0.84123 0.47248 0.13136 0.0
C1923 C 0.86936 0.46712 0.12977 0.0
C1924 C 0.82172 0.45364 0.12648 0.0
C1925 C 0.82987 0.42857 0.12033 0.0
C1926 C 0.85807 0.42307 0.11903 0.0
C1927 C 0.87751 0.44215 0.1236 0.0
H1928 H 0.89919 0.5641 0.34636 0.0
H1929 H 0.84653 0.4969 0.35872 0.0
H1930 H 0.86383 0.59655 0.35353 0.0
H1931 H 0.81104 0.52941 0.36584 0.0
H1932 H 0.81043 0.64487 0.38466 0.0
H1933 H 0.8438 0.61143 0.37633 0.0
H1934 H 0.77901 0.5647 0.35618 0.0
H1935 H 0.74551 0.5984 0.36445 0.0
C1936 C 0.87996 0.55626 0.35052 0.0
C1937 C 0.87551 0.52794 0.35178 0.0
C1938 C 0.85976 0.57484 0.35467 0.0
C1939 C 0.83469 0.56553 0.3603 0.0
C1940 C 0.83001 0.53718 0.36135 0.0
C1941 C 0.85029 0.51855 0.35718 0.0
C1942 C 0.80327 0.62746 0.37845 0.0
C1943 C 0.77528 0.62405 0.37543 0.0
C1944 C 0.82241 0.60836 0.37363 0.0
C1945 C 0.81404 0.58546 0.36557 0.0
C1946 C 0.78601 0.58195 0.36255 0.0
C1947 C 0.76681 0.60116 0.36737 0.0
H1948 H 0.6536 0.51166 0.63444 0.0
H1949 H 0.5889 0.5549 0.61223 0.0
H1950 H 0.68685 0.54431 0.62537 0.0
H1951 H 0.62157 0.58935 0.60443 0.0
H1952 H 0.68851 0.63385 0.58064 0.0
H1953 H 0.65652 0.5986 0.58855 0.0
H1954 H 0.70374 0.58804 0.6278 0.0
H1955 H 0.73664 0.62201 0.61919 0.0
C1956 C 0.6465 0.52783 0.62739 0.0
C1957 C 0.61874 0.5299 0.6235 0.0
C1958 C 0.66553 0.54712 0.6225 0.0
C1959 C 0.65712 0.56955 0.61401 0.0
C1960 C 0.62912 0.57203 0.61055 0.0
C1961 C 0.61025 0.55239 0.61517 0.0
C1962 C 0.69197 0.62377 0.59091 0.0
C1963 C 0.71494 0.63035 0.59931 0.0
C1964 C 0.67355 0.60373 0.59555 0.0
C1965 C 0.6773 0.59038 0.6089 0.0
C1966 C 0.70036 0.59732 0.61733 0.0
C1967 C 0.71914 0.61692 0.61249 0.0
H1968 H 0.30072 0.65173 0.10831 0.0
H1969 H 0.25022 0.58529 0.09276 0.0
H1970 H 0.33361 0.61892 0.11766 0.0
H1971 H 0.28151 0.5524 0.10343 0.0
H1972 H 0.3569 0.49948 0.11051 0.0
H1973 H 0.32385 0.53207 0.10075 0.0
H1974 H 0.3423 0.58781 0.13582 0.0
H1975 H 0.37653 0.55578 0.14486 0.0
C1976 C 0.29632 0.63007 0.10718 0.0
C1977 C 0.27232 0.62118 0.10024 0.0
C1978 C 0.31506 0.61118 0.1127 0.0
C1979 C 0.31017 0.58285 0.11155 0.0
C1980 C 0.28617 0.57399 0.1045 0.0
C1981 C 0.26773 0.59293 0.0987 0.0
C1982 C 0.3537 0.51873 0.11608 0.0
C1983 C 0.36906 0.52524 0.1284 0.0
C1984 C 0.33465 0.53738 0.11058 0.0
C1985 C 0.33023 0.56273 0.11747 0.0
C1986 C 0.34547 0.56887 0.12999 0.0
C1987 C 0.36495 0.55047 0.13527 0.0
H1988 H 0.11699 0.56118 0.8305 0.0
H1989 H 0.12859 0.50625 0.86647 0.0
H1990 H 0.15415 0.59009 0.83931 0.0
H1991 H 0.16474 0.53582 0.8759 0.0
H1992 H 0.24293 0.58195 0.88402 0.0
H1993 H 0.20942 0.55146 0.8732 0.0
H1994 H 0.16446 0.62159 0.85722 0.0
H1995 H 0.19947 0.65182 0.86685 0.0
C1996 C 0.12748 0.55548 0.84037 0.0
C1997 C 0.12023 0.53153 0.84778 0.0
C1998 C 0.14865 0.57209 0.8455 0.0
C1999 C 0.16252 0.56545 0.85839 0.0
C2000 C 0.15502 0.54137 0.8658 0.0
C2001 C 0.13422 0.52447 0.86048 0.0
C2002 C 0.22656 0.59083 0.87768 0.0
C2003 C 0.2245 0.61932 0.87582 0.0
C2004 C 0.20685 0.57332 0.87178 0.0
C2005 C 0.18416 0.58393 0.86423 0.0
C2006 C 0.18193 0.6125 0.86261 0.0
C2007 C 0.2019 0.62993 0.86827 0.0
H2008 H 0.24102 0.37403 0.61902 0.0
H2009 H 0.18781 0.35137 0.58378 0.0
H2010 H 0.20919 0.41026 0.62596 0.0
H2011 H 0.15669 0.3885 0.59002 0.0
H2012 H 0.09117 0.43452 0.61458 0.0
H2013 H 0.12406 0.40025 0.60696 0.0
H2014 H 0.19045 0.45288 0.62081 0.0
H2015 H 0.15734 0.4859 0.62969 0.0
C2016 C 0.22269 0.37724 0.61262 0.0
C2017 C 0.21673 0.36005 0.60091 0.0
C2018 C 0.20449 0.39808 0.61651 0.0
C2019 C 0.18018 0.40241 0.6086 0.0
C2020 C 0.17478 0.38548 0.59661 0.0
C2021 C 0.19267 0.36431 0.59295 0.0
C2022 C 0.11281 0.43882 0.61594 0.0
C2023 C 0.12157 0.46338 0.62236 0.0
C2024 C 0.13177 0.41924 0.61143 0.0
C2025 C 0.16009 0.42378 0.61307 0.0
C2026 C 0.16885 0.44849 0.61941 0.0
C2027 C 0.14981 0.46787 0.62418 0.0
H2028 H 0.40569 0.44112 0.36148 0.0
H2029 H 0.33744 0.487 0.34423 0.0
H2030 H 0.37429 0.40655 0.37046 0.0
H2031 H 0.30576 0.45401 0.35451 0.0
H2032 H 0.2573 0.37522 0.36097 0.0
H2033 H 0.28828 0.41036 0.35174 0.0
H2034 H 0.3425 0.39637 0.38805 0.0
H2035 H 0.31223 0.36011 0.39658 0.0
C2036 C 0.3839 0.44416 0.35989 0.0
C2037 C 0.37408 0.46736 0.35256 0.0
C2038 C 0.36579 0.42445 0.3652 0.0
C2039 C 0.3373 0.42754 0.36346 0.0
C2040 C 0.32751 0.45075 0.35604 0.0
C2041 C 0.34571 0.47018 0.35046 0.0
C2042 C 0.27586 0.37986 0.36693 0.0
C2043 C 0.2825 0.36516 0.37945 0.0
C2044 C 0.29357 0.4001 0.36172 0.0
C2045 C 0.31805 0.40636 0.36911 0.0
C2046 C 0.32425 0.3918 0.38185 0.0
C2047 C 0.30684 0.37116 0.38683 0.0
H2048 H 0.04432 0.99527 0.28098 0.0
H2049 H 0.0907 0.0625 0.26308 0.0
H2050 H 0.04901 0.97014 0.25832 0.0
H2051 H 0.0951 0.03752 0.2402 0.0
H2052 H 0.11966 0.96834 0.20779 0.0
H2053 H 0.11746 0.99385 0.23062 0.0
H2054 H 0.03063 0.97703 0.23331 0.0
H2055 H 0.03291 0.95192 0.21055 0.0
C2056 C 0.0556 0.00454 0.27216 0.0
C2057 C 0.06711 0.03069 0.27363 0.0
C2058 C 0.05813 0.99031 0.25922 0.0
C2059 C 0.07232 0.002 0.24755 0.0
C2060 C 0.08422 0.02805 0.2491 0.0
C2061 C 0.08152 0.04238 0.26207 0.0
C2062 C 0.10018 0.97034 0.2133 0.0
C2063 C 0.07646 0.95828 0.20759 0.0
C2064 C 0.0989 0.98488 0.22627 0.0
C2065 C 0.0739 0.98723 0.2337 0.0
C2066 C 0.05021 0.97516 0.22789 0.0
C2067 C 0.05148 0.96086 0.21491 0.0
H2068 H 0.17963 0.85265 0.5141 0.0
H2069 H 0.25175 0.81687 0.5335 0.0
H2070 H 0.20375 0.85586 0.49095 0.0
H2071 H 0.27606 0.821 0.5106 0.0
H2072 H 0.3165 0.85228 0.46896 0.0
H2073 H 0.29272 0.85745 0.49213 0.0
H2074 H 0.22161 0.81695 0.47431 0.0
H2075 H 0.24563 0.81096 0.45142 0.0
C2076 C 0.20069 0.84577 0.51343 0.0
C2077 C 0.21383 0.8344 0.5255 0.0
C2078 C 0.21446 0.84771 0.50026 0.0
C2079 C 0.24169 0.83869 0.49907 0.0
C2080 C 0.25518 0.82843 0.51132 0.0
C2081 C 0.2413 0.82613 0.5244 0.0
C2082 C 0.29581 0.84448 0.47007 0.0
C2083 C 0.28284 0.83119 0.45849 0.0
C2084 C 0.28222 0.84756 0.48323 0.0
C2085 C 0.25535 0.83774 0.4849 0.0
C2086 C 0.24217 0.8251 0.47319 0.0
C2087 C 0.25588 0.82167 0.46013 0.0
H2088 H 0.47631 0.03992 0.72033 0.0
H2089 H 0.38944 0.02957 0.71364 0.0
H2090 H 0.47268 0.01735 0.7438 0.0
H2091 H 0.3854 0.00751 0.7373 0.0
H2092 H 0.39822 0.93834 0.77075 0.0
H2093 H 0.39898 0.96454 0.74824 0.0
H2094 H 0.45452 0.02289 0.76779 0.0
H2095 H 0.45461 0.99585 0.78999 0.0
C2096 C 0.4564 0.03307 0.72406 0.0
C2097 C 0.43316 0.0362 0.71534 0.0
C2098 C 0.45424 0.02032 0.73747 0.0
C2099 C 0.42873 0.01066 0.74239 0.0
C2100 C 0.40537 0.0144 0.73371 0.0
C2101 C 0.4076 0.02705 0.72025 0.0
C2102 C 0.41045 0.95685 0.77015 0.0
C2103 C 0.42633 0.96524 0.78196 0.0
C2104 C 0.41073 0.97196 0.75737 0.0
C2105 C 0.42684 0.99576 0.75626 0.0
C2106 C 0.44217 0.00446 0.76827 0.0
C2107 C 0.44202 0.98922 0.781 0.0
H2108 H 0.25563 0.19805 0.94104 0.0
H2109 H 0.19114 0.14549 0.95694 0.0
H2110 H 0.27963 0.19385 0.96419 0.0
H2111 H 0.21458 0.14224 0.98031 0.0
H2112 H 0.24506 0.19091 0.02214 0.0
H2113 H 0.22428 0.18506 -0.00164 0.0
H2114 H 0.30076 0.15366 0.98184 0.0
H2115 H 0.32128 0.15809 0.00595 0.0
C2116 C 0.24697 0.18512 0.94939 0.0
C2117 C 0.22168 0.172 0.94731 0.0
C2118 C 0.2606 0.18279 0.96258 0.0
C2119 C 0.24881 0.16775 0.9739 0.0
C2120 C 0.22394 0.15396 0.97167 0.0
C2121 C 0.21058 0.15588 0.9584 0.0
C2122 C 0.25723 0.18211 0.01353 0.0
C2123 C 0.2847 0.17484 0.01584 0.0
C2124 C 0.24539 0.17887 -4e-05 0.0
C2125 C 0.26099 0.16883 0.98841 0.0
C2126 C 0.28844 0.16146 0.99066 0.0
C2127 C 0.30015 0.16416 0.00436 0.0
H2128 H 0.96079 0.94698 0.71977 0.0
H2129 H 0.87875 0.96978 0.70723 0.0
H2130 H 0.95591 0.97293 0.74213 0.0
H2131 H 0.87343 0.99547 0.72977 0.0
H2132 H 0.88969 0.06519 0.76264 0.0
H2133 H 0.8913 0.03708 0.74078 0.0
H2134 H 0.93182 0.97274 0.76478 0.0
H2135 H 0.93137 0.00138 0.7863 0.0
C2136 C 0.94156 0.95725 0.72197 0.0
C2137 C 0.92012 0.9565 0.71192 0.0
C2138 C 0.9387 0.97204 0.73475 0.0
C2139 C 0.91425 0.98622 0.73772 0.0
C2140 C 0.89262 0.98504 0.7277 0.0
C2141 C 0.89557 0.97031 0.71488 0.0
C2142 C 0.89889 0.04502 0.76316 0.0
C2143 C 0.91038 0.03536 0.77607 0.0
C2144 C 0.89959 0.02883 0.75073 0.0
C2145 C 0.91177 0.00272 0.75106 0.0
C2146 C 0.92263 0.9929 0.76413 0.0
C2147 C 0.92206 0.00913 0.77649 0.0
H2148 H 0.68574 0.1457 0.51446 0.0
H2149 H 0.75204 0.19122 0.53396 0.0
H2150 H 0.70996 0.14633 0.49127 0.0
H2151 H 0.77664 0.19098 0.51098 0.0
H2152 H 0.82069 0.16143 0.46937 0.0
H2153 H 0.79779 0.15543 0.49272 0.0
H2154 H 0.72299 0.1879 0.47458 0.0
H2155 H 0.7461 0.19488 0.45147 0.0
C2156 C 0.70561 0.15554 0.51379 0.0
C2157 C 0.71713 0.16838 0.52591 0.0
C2158 C 0.71941 0.15585 0.5006 0.0
C2159 C 0.74509 0.16866 0.49945 0.0
C2160 C 0.75701 0.18069 0.51169 0.0
C2161 C 0.743 0.18076 0.52481 0.0
C2162 C 0.79942 0.16743 0.47045 0.0
C2163 C 0.78509 0.17863 0.4587 0.0
C2164 C 0.78635 0.16387 0.48372 0.0
C2165 C 0.75868 0.17106 0.48532 0.0
C2166 C 0.74425 0.18183 0.4735 0.0
C2167 C 0.75743 0.1858 0.46033 0.0
H2168 H 0.53817 0.99012 0.19995 0.0
H2169 H 0.58591 0.0596 0.2141 0.0
H2170 H 0.54696 0.96716 0.22298 0.0
H2171 H 0.59413 0.03696 0.23734 0.0
H2172 H 0.55872 0.00173 0.28127 0.0
H2173 H 0.56041 0.02402 0.2577 0.0
H2174 H 0.58721 0.94821 0.23827 0.0
H2175 H 0.58641 0.92608 0.26203 0.0
C2176 C 0.5509 0.00022 0.20793 0.0
C2177 C 0.56142 0.0265 0.20536 0.0
C2178 C 0.55594 0.98714 0.22105 0.0
C2179 C 0.57126 0.00035 0.23184 0.0
C2180 C 0.58218 0.02647 0.22916 0.0
C2181 C 0.57742 0.03939 0.21596 0.0
C2182 C 0.5657 0.99005 0.27203 0.0
C2183 C 0.5723 0.96221 0.27338 0.0
C2184 C 0.56661 0.00277 0.25857 0.0
C2185 C 0.57383 0.98773 0.24623 0.0
C2186 C 0.58135 0.9601 0.24765 0.0
C2187 C 0.5808 0.94748 0.26117 0.0
H2188 H 0.7429 0.80709 0.03608 0.0
H2189 H 0.81008 0.85279 0.01762 0.0
H2190 H 0.71896 0.80835 0.01287 0.0
H2191 H 0.78647 0.85347 -0.00575 0.0
H2192 H 0.75351 0.80443 0.954 0.0
H2193 H 0.77516 0.8128 0.97735 0.0
H2194 H 0.69823 0.84255 -0.00577 0.0
H2195 H 0.67671 0.83499 0.97062 0.0
C2196 C 0.75222 0.81786 0.0271 0.0
C2197 C 0.77822 0.82982 0.0285 0.0
C2198 C 0.73859 0.81858 0.01387 0.0
C2199 C 0.751 0.83095 0.00185 0.0
C2200 C 0.77664 0.84367 0.00339 0.0
C2201 C 0.7901 0.84324 0.01667 0.0
C2202 C 0.7414 0.81328 0.96262 0.0
C2203 C 0.71352 0.81908 0.9606 0.0
C2204 C 0.75375 0.81806 0.97594 0.0
C2205 C 0.7383 0.82838 0.98749 0.0
C2206 C 0.71046 0.83447 0.98545 0.0
C2207 C 0.69819 0.83004 0.97203 0.0
H2208 H 0.60221 0.56656 0.75793 0.0
H2209 H 0.55383 0.5023 0.77732 0.0
H2210 H 0.60077 0.54242 0.73472 0.0
H2211 H 0.55304 0.47775 0.7544 0.0
H2212 H 0.52866 0.45987 0.70794 0.0
H2213 H 0.53154 0.48481 0.73075 0.0
H2214 H 0.61777 0.49955 0.72325 0.0
H2215 H 0.61461 0.47466 0.7003 0.0
C2216 C 0.59144 0.5472 0.75718 0.0
C2217 C 0.57811 0.53617 0.76927 0.0
C2218 C 0.59077 0.53333 0.744 0.0
C2219 C 0.57668 0.5083 0.74278 0.0
C2220 C 0.56373 0.49718 0.75499 0.0
C2221 C 0.5644 0.51103 0.76812 0.0
C2222 C 0.54817 0.46847 0.71124 0.0
C2223 C 0.57142 0.46552 0.70253 0.0
C2224 C 0.54988 0.48261 0.72426 0.0
C2225 C 0.57493 0.49397 0.72878 0.0
C2226 C 0.59817 0.49121 0.71994 0.0
C2227 C 0.59642 0.477 0.70689 0.0
H2228 H 0.74929 0.29392 0.03778 0.0
H2229 H 0.68823 0.34538 0.01776 0.0
H2230 H 0.77844 0.29842 0.01644 0.0
H2231 H 0.71708 0.34952 -0.00379 0.0
H2232 H 0.7881 0.37174 0.96609 0.0
H2233 H 0.76201 0.36982 0.98869 0.0
H2234 H 0.77625 0.28253 -0.00892 0.0
H2235 H 0.80213 0.28462 0.96853 0.0
C2236 C 0.74224 0.30624 0.02877 0.0
C2237 C 0.7167 0.31935 0.02928 0.0
C2238 C 0.75877 0.3087 0.01658 0.0
C2239 C 0.75 0.32434 0.00471 0.0
C2240 C 0.72445 0.33761 0.00529 0.0
C2241 C 0.70788 0.33505 0.0175 0.0
C2242 C 0.78562 0.35226 0.97155 0.0
C2243 C 0.79678 0.32829 0.96567 0.0
C2244 C 0.77072 0.35112 0.98439 0.0
C2245 C 0.76702 0.326 -0.00844 0.0
C2246 C 0.77901 0.3022 0.98585 0.0
C2247 C 0.79376 0.30335 0.97299 0.0
H2248 H 0.97613 0.45822 0.26857 0.0
H2249 H 0.8924 0.47755 0.2795 0.0
H2250 H 0.97071 0.48147 0.24538 0.0
H2251 H 0.88676 0.50088 0.25623 0.0
H2252 H 0.90204 0.56605 0.22012 0.0
H2253 H 0.90439 0.54228 0.24342 0.0
H2254 H 0.94491 0.47399 0.22278 0.0
H2255 H 0.94325 0.49811 0.19972 0.0
C2256 C 0.95654 0.46738 0.26591 0.0
C2257 C 0.93462 0.46611 0.27563 0.0
C2258 C 0.95338 0.48057 0.25268 0.0
C2259 C 0.92823 0.49275 0.249 0.0
C2260 C 0.9064 0.49179 0.25886 0.0
C2261 C 0.90958 0.4785 0.27211 0.0
C2262 C 0.91129 0.5459 0.22065 0.0
C2263 C 0.92253 0.53382 0.20827 0.0
C2264 C 0.91248 0.53226 0.23389 0.0
C2265 C 0.92503 0.50642 0.23488 0.0
C2266 C 0.93548 0.49406 0.22235 0.0
C2267 C 0.93426 0.50768 0.20915 0.0
H2268 H 0.74587 0.69371 0.52912 0.0
H2269 H 0.81783 0.65606 0.51063 0.0
H2270 H 0.72182 0.68858 0.50615 0.0
H2271 H 0.79405 0.65201 0.48738 0.0
H2272 H 0.74934 0.69214 0.44668 0.0
H2273 H 0.77446 0.68984 0.46952 0.0
H2274 H 0.70609 0.6479 0.48923 0.0
H2275 H 0.68135 0.64925 0.46619 0.0
C2276 C 0.7564 0.68407 0.52018 0.0
C2277 C 0.78363 0.67522 0.5216 0.0
C2278 C 0.74269 0.68119 0.50706 0.0
C2279 C 0.75615 0.66986 0.4951 0.0
C2280 C 0.78336 0.66092 0.4965 0.0
C2281 C 0.79694 0.66336 0.50971 0.0
C2282 C 0.74 0.68186 0.45581 0.0
C2283 C 0.71351 0.67081 0.45475 0.0
C2284 C 0.7543 0.6806 0.46884 0.0
C2285 C 0.74211 0.6687 0.48104 0.0
C2286 C 0.71578 0.65728 0.47993 0.0
C2287 C 0.70166 0.65814 0.46683 0.0
H2288 H 0.45946 0.54212 0.26807 0.0
H2289 H 0.37296 0.52764 0.27394 0.0
H2290 H 0.45853 0.5158 0.24566 0.0
H2291 H 0.37174 0.5014 0.25136 0.0
H2292 H 0.38957 0.43134 0.21898 0.0
H2293 H 0.3893 0.45775 0.2415 0.0
H2294 H 0.43995 0.51962 0.22136 0.0
H2295 H 0.4409 0.49278 0.19917 0.0
C2296 C 0.44021 0.53344 0.26442 0.0
C2297 C 0.41628 0.53675 0.27258 0.0
C2298 C 0.43963 0.51846 0.25163 0.0
C2299 C 0.41504 0.50659 0.24676 0.0
C2300 C 0.39103 0.51005 0.25495 0.0
C2301 C 0.39166 0.52508 0.26777 0.0
C2302 C 0.40068 0.45055 0.21949 0.0
C2303 C 0.41522 0.46017 0.20746 0.0
C2304 C 0.40034 0.46574 0.23227 0.0
C2305 C 0.41462 0.49072 0.23317 0.0
C2306 C 0.42902 0.5003 0.22104 0.0
C2307 C 0.42937 0.48512 0.20832 0.0
H2308 H 0.25337 0.68227 0.94702 0.0
H2309 H 0.31263 0.63299 0.9699 0.0
H2310 H 0.22383 0.68254 0.96824 0.0
H2311 H 0.28334 0.63383 -0.00857 0.0
H2312 H 0.21052 0.62106 0.02236 0.0
H2313 H 0.23762 0.61711 0.00015 0.0
H2314 H 0.22658 0.70373 -0.0077 0.0
H2315 H 0.19964 0.70746 0.01443 0.0
C2316 C 0.2599 0.67131 0.95661 0.0
C2317 C 0.28508 0.65749 0.95692 0.0
C2318 C 0.24316 0.67167 0.96876 0.0
C2319 C 0.25135 0.65827 0.98146 0.0
C2320 C 0.27644 0.64409 0.98171 0.0
C2321 C 0.29325 0.64378 0.9695 0.0
C2322 C 0.21393 0.63911 0.01578 0.0
C2323 C 0.20329 0.66456 0.01998 0.0
C2324 C 0.22943 0.63692 0.00317 0.0
C2325 C 0.23423 0.66013 -0.00544 0.0
C2326 C 0.22293 0.68544 -0.00135 0.0
C2327 C 0.20757 0.68762 0.01127 0.0
H2328 H 0.05926 0.49048 0.69396 0.0
H2329 H 0.09556 0.56286 0.71275 0.0
H2330 H 0.06185 0.46728 0.71729 0.0
H2331 H 0.09783 0.5398 0.73621 0.0
H2332 H 0.05213 0.50349 0.77624 0.0
H2333 H 0.05965 0.52521 0.75285 0.0
H2334 H 0.09446 0.44997 0.73653 0.0
H2335 H 0.08734 0.42836 0.76015 0.0
C2336 C 0.06832 0.50117 0.70304 0.0
C2337 C 0.07699 0.52844 0.70169 0.0
C2338 C 0.06982 0.48793 0.71636 0.0
C2339 C 0.07987 0.50187 0.72852 0.0
C2340 C 0.08969 0.52877 0.727 0.0
C2341 C 0.08835 0.54193 0.71365 0.0
C2342 C 0.06182 0.49179 0.76772 0.0
C2343 C 0.06914 0.46434 0.76989 0.0
C2344 C 0.06619 0.50419 0.75438 0.0
C2345 C 0.07773 0.48925 0.74295 0.0
C2346 C 0.0854 0.46184 0.74518 0.0
C2347 C 0.08124 0.4495 0.7586 0.0
H2348 H 0.25521 0.29285 0.44992 0.0
H2349 H 0.18426 0.33157 0.46884 0.0
H2350 H 0.27858 0.29443 0.47325 0.0
H2351 H 0.20738 0.33247 0.49233 0.0
H2352 H 0.24535 0.2877 0.53258 0.0
H2353 H 0.22267 0.29341 0.50924 0.0
H2354 H 0.29639 0.3296 0.4918 0.0
H2355 H 0.31885 0.32456 0.51533 0.0
C2356 C 0.24483 0.30208 0.45904 0.0
C2357 C 0.218 0.31206 0.45768 0.0
C2358 C 0.25815 0.30295 0.47235 0.0
C2359 C 0.24468 0.31352 0.48451 0.0
C2360 C 0.21804 0.32402 0.48309 0.0
C2361 C 0.20485 0.32345 0.46973 0.0
C2362 C 0.25649 0.2973 0.52381 0.0
C2363 C 0.28375 0.30573 0.52566 0.0
C2364 C 0.24356 0.30057 0.5105 0.0
C2365 C 0.25784 0.31199 0.4988 0.0
C2366 C 0.28507 0.3206 0.50068 0.0
C2367 C 0.29789 0.31763 0.51405 0.0
H2368 H 0.06879 0.20247 0.28454 0.0
H2369 H 0.98995 0.16992 0.29712 0.0
H2370 H 0.04778 0.24708 0.28021 0.0
H2371 H 0.96931 0.21443 0.29349 0.0
H2372 H 0.9332 0.29507 0.28455 0.0
H2373 H 0.95472 0.25115 0.27918 0.0
H2374 H 0.03193 0.28214 0.29536 0.0
H2375 H 0.01079 0.32613 0.30002 0.0
C2376 C 0.04693 0.20473 0.2862 0.0
C2377 C 0.03116 0.18274 0.2914 0.0
C2378 C 0.03489 0.23037 0.28382 0.0
C2379 C 0.00687 0.23463 0.28673 0.0
C2380 C 0.99084 0.21206 0.29098 0.0
C2381 C 0.00279 0.18643 0.29319 0.0
C2382 C 0.95491 0.29263 0.28666 0.0
C2383 C 0.97017 0.31396 0.29292 0.0
C2384 C 0.96724 0.26738 0.28367 0.0
C2385 C 0.99501 0.26279 0.28706 0.0
C2386 C 0.0106 0.28481 0.29244 0.0
C2387 C -0.00162 0.31011 0.29524 0.0
H2388 H 0.91737 0.74879 0.53576 0.0
H2389 H 0.9657 0.68024 0.55068 0.0
H2390 H 0.95923 0.77478 0.53131 0.0
H2391 H 0.00733 0.7064 0.54675 0.0
H2392 H 0.08123 0.75446 0.53657 0.0
H2393 H 0.03949 0.72864 0.53158 0.0
H2394 H 0.99099 0.79682 0.54684 0.0
H2395 H 0.03254 0.82284 0.5513 0.0
C2396 C 0.93694 0.73912 0.53789 0.0
C2397 C 0.93818 0.71258 0.54378 0.0
C2398 C 0.96094 0.75408 0.53543 0.0
C2399 C 0.98672 0.74293 0.53889 0.0
C2400 C 0.98795 0.71567 0.54382 0.0
C2401 C 0.96398 0.70064 0.54617 0.0
C2402 C 0.06162 0.76414 0.53855 0.0
C2403 C 0.06022 0.79056 0.54455 0.0
C2404 C 0.03767 0.74926 0.53577 0.0
C2405 C 0.01181 0.76039 0.53903 0.0
C2406 C 0.01045 0.78757 0.54406 0.0
C2407 C 0.03437 0.80252 0.54671 0.0
H2408 H 0.49584 0.83139 0.78838 0.0
H2409 H 0.43011 0.77812 0.80216 0.0
H2410 H 0.52339 0.79151 0.78205 0.0
H2411 H 0.45785 0.73839 0.79637 0.0
H2412 H 0.509 0.6683 0.78395 0.0
H2413 H 0.48122 0.70916 0.78007 0.0
H2414 H 0.54735 0.75932 0.79648 0.0
H2415 H 0.57529 0.71872 0.79983 0.0
C2416 C 0.4871 0.81117 0.78984 0.0
C2417 C 0.46097 0.80791 0.796 0.0
C2418 C 0.50296 0.7883 0.78629 0.0
C2419 C 0.49312 0.76167 0.78894 0.0
C2420 C 0.46613 0.75851 0.79406 0.0
C2421 C 0.45019 0.78137 0.79747 0.0
C2422 C 0.51781 0.68814 0.7864 0.0
C2423 C 0.54419 0.69023 0.79243 0.0
C2424 C 0.50182 0.71156 0.78426 0.0
C2425 C 0.51178 0.73755 0.78821 0.0
C2426 C 0.53897 0.73974 0.79319 0.0
C2427 C 0.55503 0.71636 0.79521 0.0
H2428 H 0.41428 0.25229 0.03283 0.0
H2429 H 0.45853 0.18103 0.04769 0.0
H2430 H 0.45755 0.27605 0.02868 0.0
H2431 H 0.50156 0.205 0.04422 0.0
H2432 H 0.5783 0.24909 0.03561 0.0
H2433 H 0.53557 0.22545 0.02996 0.0
H2434 H 0.48993 0.29661 0.0439 0.0
H2435 H 0.53249 0.32047 0.04886 0.0
C2436 C 0.43327 0.24159 0.03505 0.0
C2437 C 0.43298 0.21492 0.04078 0.0
C2438 C 0.45809 0.25527 0.03276 0.0
C2439 C 0.48317 0.24271 0.03634 0.0
C2440 C 0.48281 0.21535 0.04117 0.0
C2441 C 0.45802 0.20157 0.04327 0.0
C2442 C 0.55911 0.25987 0.03713 0.0
C2443 C 0.55876 0.2865 0.04288 0.0
C2444 C 0.53458 0.24625 0.03399 0.0
C2445 C 0.50916 0.25883 0.03673 0.0
C2446 C 0.50899 0.28622 0.0415 0.0
C2447 C 0.5335 0.29994 0.04445 0.0
H2448 H 0.93027 0.70494 0.19846 0.0
H2449 H 0.0047 0.66694 0.18308 0.0
H2450 H 0.95552 0.74723 0.20308 0.0
H2451 H 0.02945 0.70918 0.18694 0.0
H2452 H 0.07335 0.78574 0.19568 0.0
H2453 H 0.04874 0.74348 0.20119 0.0
H2454 H 0.97272 0.78196 0.18827 0.0
H2455 H 0.997 0.82424 0.18356 0.0
C2456 C 0.95205 0.7055 0.19622 0.0
C2457 C 0.96533 0.68271 0.19017 0.0
C2458 C 0.96653 0.72981 0.19877 0.0
C2459 C 0.99451 0.73193 0.19515 0.0
C2460 C 0.00806 0.70845 0.19003 0.0
C2461 C 0.99372 0.68414 0.18766 0.0
C2462 C 0.05129 0.78528 0.19434 0.0
C2463 C 0.03722 0.80821 0.18896 0.0
C2464 C 0.03717 0.761 0.1974 0.0
C2465 C 0.00873 0.759 0.19493 0.0
C2466 C 0.99451 0.7826 0.19047 0.0
C2467 C 0.00854 0.80692 0.18762 0.0
H2468 H 0.5798 0.74501 0.44366 0.0
H2469 H 0.52866 0.67741 0.43014 0.0
H2470 H 0.53899 0.77215 0.44874 0.0
H2471 H 0.48804 0.70471 0.43472 0.0
H2472 H 0.41622 0.75511 0.44581 0.0
H2473 H 0.45751 0.7283 0.45033 0.0
H2474 H 0.50692 0.79455 0.43349 0.0
H2475 H 0.46589 0.82155 0.42947 0.0
C2476 C 0.55985 0.73579 0.44198 0.0
C2477 C 0.5575 0.70919 0.43628 0.0
C2478 C 0.53644 0.75141 0.44481 0.0
C2479 C 0.51016 0.74086 0.44191 0.0
C2480 C 0.50785 0.71353 0.43721 0.0
C2481 C 0.53124 0.69785 0.43449 0.0
C2482 C 0.43597 0.76417 0.44339 0.0
C2483 C 0.43772 0.79031 0.43706 0.0
C2484 C 0.45964 0.74872 0.4459 0.0
C2485 C 0.48559 0.759 0.44205 0.0
C2486 C 0.4874 0.78595 0.43671 0.0
C2487 C 0.46376 0.80146 0.43431 0.0
H2488 H 0.43327 0.2108 0.6825 0.0
H2489 H 0.50528 0.16642 0.69625 0.0
H2490 H 0.45772 0.25372 0.68527 0.0
H2491 H 0.52957 0.20961 0.69971 0.0
H2492 H 0.57313 0.28402 0.67863 0.0
H2493 H 0.54925 0.24165 0.68396 0.0
H2494 H 0.47924 0.2878 0.69903 0.0
H2495 H 0.50287 0.33034 0.69301 0.0
C2496 C 0.45412 0.21025 0.68653 0.0
C2497 C 0.46748 0.18518 0.68892 0.0
C2498 C 0.46817 0.23498 0.68822 0.0
C2499 C 0.49585 0.23526 0.69254 0.0
C2500 C 0.50851 0.2102 0.69601 0.0
C2501 C 0.49454 0.18542 0.69413 0.0
C2502 C 0.55285 0.28517 0.68334 0.0
C2503 C 0.53971 0.31053 0.68516 0.0
C2504 C 0.53913 0.26078 0.68651 0.0
C2505 C 0.51205 0.26115 0.69175 0.0
C2506 C 0.49978 0.28666 0.69466 0.0
C2507 C 0.51339 0.31107 0.6913 0.0
H2508 H 0.03679 0.18069 0.92719 0.0
H2509 H 0.08923 0.24678 0.94138 0.0
H2510 H 0.99669 0.20753 0.93344 0.0
H2511 H 0.04899 0.2734 0.94816 0.0
H2512 H 0.97492 0.32475 0.93153 0.0
H2513 H 0.01606 0.2973 0.93416 0.0
H2514 H 0.96741 0.22974 0.95017 0.0
H2515 H 0.92599 0.25704 0.94701 0.0
C2516 C 0.03979 0.20064 0.93205 0.0
C2517 C 0.06619 0.2118 0.93352 0.0
C2518 C 0.01672 0.21606 0.93573 0.0
C2519 C 0.01952 0.24289 0.94111 0.0
C2520 C 0.04604 0.25309 0.94373 0.0
C2521 C 0.06913 0.23775 0.93992 0.0
C2522 C 0.97302 0.30425 0.9359 0.0
C2523 C 0.94713 0.29291 0.93879 0.0
C2524 C 0.99671 0.28848 0.93751 0.0
C2525 C 0.9951 0.26108 0.94219 0.0
C2526 C 0.96936 0.25053 0.94622 0.0
C2527 C 0.94563 0.26624 0.94448 0.0
H2528 H 0.92491 0.77593 0.68166 0.0
H2529 H 0.99459 0.8216 0.69749 0.0
H2530 H 0.95041 0.73363 0.68424 0.0
H2531 H 0.01991 0.77896 0.7007 0.0
H2532 H 0.06689 0.70736 0.67882 0.0
H2533 H 0.04146 0.74863 0.68457 0.0
H2534 H 0.9722 0.69937 0.69785 0.0
H2535 H -0.0026 0.65801 0.69145 0.0
C2536 C 0.94542 0.77688 0.68612 0.0
C2537 C 0.95787 0.8022 0.68912 0.0
C2538 C 0.96009 0.75249 0.68769 0.0
C2539 C 0.98748 0.75278 0.69249 0.0
C2540 C -0.00088 0.77798 0.69663 0.0
C2541 C 0.98453 0.80243 0.6949 0.0
C2542 C 0.04643 0.70529 0.68323 0.0
C2543 C 0.03399 0.67943 0.68443 0.0
C2544 C 0.03182 0.72904 0.68663 0.0
C2545 C 0.00452 0.72748 0.6915 0.0
C2546 C 0.9929 0.70143 0.69379 0.0
C2547 C 0.00741 0.67769 0.6902 0.0
H2548 H 0.07831 0.2359 0.4333 0.0
H2549 H 0.04864 0.31494 0.44728 0.0
H2550 H 0.03345 0.21621 0.43746 0.0
H2551 H 0.00372 0.29489 0.45208 0.0
H2552 H 0.92259 0.2604 0.43316 0.0
H2553 H 0.96745 0.28029 0.43711 0.0
H2554 H -0.00272 0.20221 0.45261 0.0
H2555 H 0.95237 0.18194 0.44803 0.0
C2556 C 0.06237 0.24897 0.43762 0.0
C2557 C 0.06695 0.27714 0.43969 0.0
C2558 C 0.03657 0.23757 0.44014 0.0
C2559 C 0.01471 0.25398 0.44495 0.0
C2560 C 0.01989 0.28175 0.44806 0.0
C2561 C 0.0457 0.29324 0.4454 0.0
C2562 C 0.93855 0.24751 0.43764 0.0
C2563 C 0.93401 0.21942 0.44002 0.0
C2564 C 0.96435 0.25903 0.44003 0.0
C2565 C 0.98624 0.24283 0.44502 0.0
C2566 C 0.9811 0.21518 0.44844 0.0
C2567 C 0.95529 0.20357 0.4459 0.0
H2568 H 0.41109 0.27677 0.17994 0.0
H2569 H 0.47971 0.32319 0.19644 0.0
H2570 H 0.43567 0.23448 0.18449 0.0
H2571 H 0.50403 0.28066 0.2016 0.0
H2572 H 0.552 0.20668 0.18267 0.0
H2573 H 0.52669 0.24865 0.18686 0.0
H2574 H 0.45574 0.20138 0.19966 0.0
H2575 H 0.4809 0.15922 0.19483 0.0
C2576 C 0.43113 0.27793 0.18495 0.0
C2577 C 0.44364 0.30336 0.18758 0.0
C2578 C 0.44525 0.25356 0.18766 0.0
C2579 C 0.47211 0.25404 0.19323 0.0
C2580 C 0.48368 0.2795 0.19697 0.0
C2581 C 0.46966 0.30389 0.1941 0.0
C2582 C 0.53119 0.20519 0.18667 0.0
C2583 C 0.51831 0.17961 0.18815 0.0
C2584 C 0.51664 0.22936 0.18917 0.0
C2585 C 0.48893 0.22853 0.19339 0.0
C2586 C 0.47681 0.20284 0.19606 0.0
C2587 C 0.49129 0.17865 0.19339 0.0
H2588 H 0.58782 0.73165 0.94601 0.0
H2589 H 0.53909 0.80212 0.93435 0.0
H2590 H 0.54611 0.70583 0.95108 0.0
H2591 H 0.49753 0.77615 0.93875 0.0
H2592 H 0.42382 0.72838 0.94922 0.0
H2593 H 0.4663 0.75327 0.9538 0.0
H2594 H 0.51255 0.68517 0.93658 0.0
H2595 H 0.47035 0.66002 0.93265 0.0
C2596 C 0.5682 0.74173 0.94469 0.0
C2597 C 0.56675 0.76881 0.93959 0.0
C2598 C 0.54426 0.72687 0.94751 0.0
C2599 C 0.51832 0.73866 0.94511 0.0
C2600 C 0.51702 0.76635 0.94089 0.0
C2601 C 0.54094 0.78129 0.93826 0.0
C2602 C 0.44314 0.71851 0.94675 0.0
C2603 C 0.44369 0.69238 0.94038 0.0
C2604 C 0.46751 0.73286 0.94927 0.0
C2605 C 0.49295 0.72155 0.9453 0.0
C2606 C 0.49349 0.69459 0.93991 0.0
C2607 C 0.46917 0.68013 0.93757 0.0
H2608 H 0.91309 0.22032 0.79962 0.0
H2609 H 0.98155 0.17309 0.78374 0.0
H2610 H 0.9383 0.26232 0.79525 0.0
H2611 H 0.00651 0.21532 0.7787 0.0
H2612 H 0.05528 0.28887 0.79739 0.0
H2613 H 0.02932 0.24717 0.79341 0.0
H2614 H 0.95907 0.2952 0.78036 0.0
H2615 H 0.98487 0.33709 0.78502 0.0
C2616 C 0.93323 0.21893 0.79477 0.0
C2617 C 0.9455 0.19334 0.79227 0.0
C2618 C 0.94773 0.24312 0.79216 0.0
C2619 C 0.97473 0.24234 0.78682 0.0
C2620 C 0.98607 0.21674 0.78318 0.0
C2621 C 0.97168 0.1925 0.78596 0.0
C2622 C 0.03447 0.29056 0.79341 0.0
C2623 C 0.02199 0.3163 0.79176 0.0
C2624 C 0.01954 0.26655 0.79102 0.0
C2625 C 0.99186 0.26768 0.78674 0.0
C2626 C 0.9801 0.2935 0.784 0.0
C2627 C 0.99494 0.31754 0.78658 0.0
H2628 H 0.57623 0.24407 0.54757 0.0
H2629 H 0.54296 0.16468 0.53662 0.0
H2630 H 0.53169 0.2647 0.54389 0.0
H2631 H 0.49833 0.18564 0.53224 0.0
H2632 H 0.42003 0.22381 0.55206 0.0
H2633 H 0.46395 0.20249 0.54753 0.0
H2634 H 0.49438 0.27853 0.52966 0.0
H2635 H 0.45046 0.3003 0.53486 0.0
C2636 C 0.55955 0.23108 0.54398 0.0
C2637 C 0.56306 0.2026 0.54268 0.0
C2638 C 0.53391 0.24302 0.54174 0.0
C2639 C 0.51113 0.22684 0.53796 0.0
C2640 C 0.51521 0.19865 0.5355 0.0
C2641 C 0.54086 0.18664 0.53791 0.0
C2642 C 0.43591 0.23594 0.54696 0.0
C2643 C 0.43187 0.26393 0.54407 0.0
C2644 C 0.46117 0.22359 0.54422 0.0
C2645 C 0.483 0.2388 0.53836 0.0
C2646 C 0.47827 0.26632 0.53449 0.0
C2647 C 0.45303 0.27879 0.53739 0.0
H2648 H 0.49076 0.8346 0.2876 0.0
H2649 H 0.56141 0.78639 0.29959 0.0
H2650 H 0.46519 0.79274 0.28257 0.0
H2651 H 0.53567 0.74467 0.29524 0.0
H2652 H 0.48802 0.6707 0.28485 0.0
H2653 H 0.51292 0.71315 0.28025 0.0
H2654 H 0.44466 0.75942 0.2973 0.0
H2655 H 0.41951 0.71725 0.30124 0.0
C2656 C 0.50093 0.81505 0.289 0.0
C2657 C 0.52797 0.81379 0.29419 0.0
C2658 C 0.48622 0.79103 0.28621 0.0
C2659 C 0.49812 0.7652 0.28874 0.0
C2660 C 0.5258 0.76407 0.29301 0.0
C2661 C 0.5406 0.78808 0.29561 0.0
C2662 C 0.47813 0.69002 0.28729 0.0
C2663 C 0.45195 0.69059 0.2936 0.0
C2664 C 0.49248 0.71437 0.28475 0.0
C2665 C 0.48109 0.73981 0.28863 0.0
C2666 C 0.45411 0.74036 0.29402 0.0
C2667 C 0.43966 0.71606 0.29638 0.0
H2668 H 0.96196 0.82201 0.05179 0.0
H2669 H 0.90968 0.75572 0.03772 0.0
H2670 H 0.00214 0.79467 0.04632 0.0
H2671 H 0.95002 0.7286 0.03165 0.0
H2672 H 0.02306 0.67708 0.04907 0.0
H2673 H 0.98227 0.70477 0.04587 0.0
H2674 H 0.03209 0.77187 0.03032 0.0
H2675 H 0.07317 0.74434 0.0341 0.0
C2676 C 0.95904 0.80187 0.04712 0.0
C2677 C 0.93263 0.79085 0.04544 0.0
C2678 C 0.98216 0.78617 0.04388 0.0
C2679 C 0.97943 0.75916 0.03873 0.0
C2680 C 0.95293 0.74904 0.03594 0.0
C2681 C 0.92979 0.76465 0.03933 0.0
C2682 C 0.02532 0.69754 0.04468 0.0
C2683 C 0.05142 0.70867 0.0421 0.0
C2684 C 0.00182 0.71345 0.04275 0.0
C2685 C 0.00381 0.74081 0.03803 0.0
C2686 C 0.02981 0.75114 0.03431 0.0
C2687 C 0.05336 0.73528 0.03638 0.0
loop_
_geom_bond_atom_site_label_1
_geom_bond_atom_site_label_2
_geom_bond_distance
_geom_bond_site_symmetry_2
_ccdc_geom_bond_type
Co0 O3 1.970 . S
Co0 N17 1.989 . S
Co0 O25 1.967 . S
Co0 O32 1.920 . S
Co1 O4 1.966 . S
Co1 N10 2.022 . S
Co1 N18 1.993 . S
Co1 O26 1.941 . S
C2 O3 1.258 . S
C2 O4 1.263 . S
O3 Co0 1.970 . S
O3 C2 1.258 . S
O4 Co1 1.966 . S
O4 C2 1.263 . S
C5 O6 1.235 . S
C5 O32 1.289 . S
O6 C5 1.235 . S
C7 C9 1.400 . S
C7 N10 1.351 . S
C7 C12 1.501 . S
C8 C9 1.387 1_565 S
C8 N11 1.341 1_565 S
C9 C7 1.400 . S
C9 C8 1.387 1_545 S
N10 Co1 2.022 . S
N10 C7 1.351 . S
N10 N11 1.365 . S
N11 C8 1.341 1_545 S
N11 N10 1.365 . S
N11 H31 0.862 . S
C12 C7 1.501 . S
C12 H13 0.961 . S
C12 H14 0.961 . S
C12 H15 0.960 . S
H13 C12 0.961 . S
H14 C12 0.961 . S
H15 C12 0.960 . S
C16 N17 1.342 . S
C16 C20 1.401 . S
C16 C21 1.499 . S
N17 Co0 1.989 . S
N17 C16 1.342 . S
N17 N18 1.388 . S
N18 Co1 1.993 . S
N18 N17 1.388 . S
N18 C19 1.346 . S
C19 N18 1.346 . S
C19 C20 1.396 . S
C19 C29 1.510 . S
C20 C16 1.401 . S
C20 C19 1.396 . S
C21 C16 1.499 . S
C21 H22 0.959 . S
C21 H23 0.960 . S
C21 H24 0.961 . S
H22 C21 0.959 . S
H23 C21 0.960 . S
H24 C21 0.961 . S
O25 Co0 1.967 . S
O25 C33 1.258 . S
O26 Co1 1.941 . S
O26 C33 1.266 . S
H27 C29 0.959 . S
H28 C29 0.961 . S
C29 C19 1.510 . S
C29 H27 0.959 . S
C29 H28 0.961 . S
C29 H30 0.960 . S
H30 C29 0.960 . S
H31 N11 0.862 . S
O32 Co0 1.920 . S
O32 C5 1.289 . S
C33 O25 1.258 . S
C33 O26 1.266 . S
Co34 O37 1.970 . S
Co34 N51 1.989 . S
Co34 O59 1.967 . S
Co34 O66 1.920 . S
Co35 O38 1.966 . S
Co35 N44 2.022 . S
Co35 N52 1.993 . S
Co35 O60 1.941 . S
C36 O37 1.258 . S
C36 O38 1.263 . S
O37 Co34 1.970 . S
O37 C36 1.258 . S
O38 Co35 1.966 . S
O38 C36 1.263 . S
C39 O40 1.235 . S
C39 O66 1.289 . S
O40 C39 1.235 . S
C41 C43 1.400 . S
C41 N44 1.351 . S
C41 C46 1.501 . S
C42 C43 1.387 . S
C42 N45 1.341 . S
C43 C41 1.400 . S
C43 C42 1.387 . S
N44 Co35 2.022 . S
N44 C41 1.351 . S
N44 N45 1.365 . S
N45 C42 1.341 . S
N45 N44 1.365 . S
N45 H65 0.862 . S
C46 C41 1.501 . S
C46 H47 0.961 . S
C46 H48 0.961 . S
C46 H49 0.960 . S
H47 C46 0.961 . S
H48 C46 0.961 . S
H49 C46 0.960 . S
C50 N51 1.342 . S
C50 C54 1.401 . S
C50 C55 1.499 . S
N51 Co34 1.989 . S
N51 C50 1.342 . S
N51 N52 1.388 . S
N52 Co35 1.993 . S
N52 N51 1.388 . S
N52 C53 1.346 . S
C53 N52 1.346 . S
C53 C54 1.396 . S
C53 C63 1.510 . S
C54 C50 1.401 . S
C54 C53 1.396 . S
C55 C50 1.499 . S
C55 H56 0.959 . S
C55 H57 0.960 . S
C55 H58 0.961 . S
H56 C55 0.959 . S
H57 C55 0.960 . S
H58 C55 0.961 . S
O59 Co34 1.967 . S
O59 C67 1.258 . S
O60 Co35 1.941 . S
O60 C67 1.266 . S
H61 C63 0.959 . S
H62 C63 0.961 . S
C63 C53 1.510 . S
C63 H61 0.959 . S
C63 H62 0.961 . S
C63 H64 0.960 . S
H64 C63 0.960 . S
H65 N45 0.862 . S
O66 Co34 1.920 . S
O66 C39 1.289 . S
C67 O59 1.258 . S
C67 O60 1.266 . S
Co68 O71 1.970 . S
Co68 N85 1.989 . S
Co68 O93 1.967 . S
Co68 O100 1.920 . S
Co69 O72 1.966 . S
Co69 N78 2.022 . S
Co69 N86 1.993 . S
Co69 O94 1.941 . S
C70 O71 1.258 . S
C70 O72 1.263 . S
O71 Co68 1.970 . S
O71 C70 1.258 . S
O72 Co69 1.966 . S
O72 C70 1.263 . S
C73 O74 1.235 . S
C73 O100 1.289 . S
O74 C73 1.235 . S
C75 C77 1.400 . S
C75 N78 1.351 . S
C75 C80 1.501 . S
C76 C77 1.387 1_545 S
C76 N79 1.341 1_545 S
C77 C75 1.400 . S
C77 C76 1.387 1_565 S
N78 Co69 2.022 . S
N78 C75 1.351 . S
N78 N79 1.365 . S
N79 C76 1.341 1_565 S
N79 N78 1.365 . S
N79 H99 0.862 . S
C80 C75 1.501 . S
C80 H81 0.961 . S
C80 H82 0.961 . S
C80 H83 0.960 . S
H81 C80 0.961 . S
H82 C80 0.961 . S
H83 C80 0.960 . S
C84 N85 1.342 . S
C84 C88 1.401 . S
C84 C89 1.499 . S
N85 Co68 1.989 . S
N85 C84 1.342 . S
N85 N86 1.388 . S
N86 Co69 1.993 . S
N86 N85 1.388 . S
N86 C87 1.346 . S
C87 N86 1.346 . S
C87 C88 1.396 . S
C87 C97 1.510 . S
C88 C84 1.401 . S
C88 C87 1.396 . S
C89 C84 1.499 . S
C89 H90 0.959 . S
C89 H91 0.960 . S
C89 H92 0.961 . S
H90 C89 0.959 . S
H91 C89 0.960 . S
H92 C89 0.961 . S
O93 Co68 1.967 . S
O93 C101 1.258 . S
O94 Co69 1.941 . S
O94 C101 1.266 . S
H95 C97 0.959 . S
H96 C97 0.961 . S
C97 C87 1.510 . S
C97 H95 0.959 . S
C97 H96 0.961 . S
C97 H98 0.960 . S
H98 C97 0.960 . S
H99 N79 0.862 . S
O100 Co68 1.920 . S
O100 C73 1.289 . S
C101 O93 1.258 . S
C101 O94 1.266 . S
Co102 O105 1.970 . S
Co102 N119 1.989 . S
Co102 O127 1.967 . S
Co102 O134 1.920 . S
Co103 O106 1.966 . S
Co103 N112 2.022 . S
Co103 N120 1.993 . S
Co103 O128 1.941 . S
C104 O105 1.258 . S
C104 O106 1.263 . S
O105 Co102 1.970 . S
O105 C104 1.258 . S
O106 Co103 1.966 . S
O106 C104 1.263 . S
C107 O108 1.235 . S
C107 O134 1.289 . S
O108 C107 1.235 . S
C109 C111 1.400 . S
C109 N112 1.351 . S
C109 C114 1.501 . S
C110 C111 1.387 . S
C110 N113 1.341 . S
C111 C109 1.400 . S
C111 C110 1.387 . S
N112 Co103 2.022 . S
N112 C109 1.351 . S
N112 N113 1.365 . S
N113 C110 1.341 . S
N113 N112 1.365 . S
N113 H133 0.862 . S
C114 C109 1.501 . S
C114 H115 0.961 . S
C114 H116 0.961 . S
C114 H117 0.960 . S
H115 C114 0.961 . S
H116 C114 0.961 . S
H117 C114 0.960 . S
C118 N119 1.342 . S
C118 C122 1.401 . S
C118 C123 1.499 . S
N119 Co102 1.989 . S
N119 C118 1.342 . S
N119 N120 1.388 . S
N120 Co103 1.993 . S
N120 N119 1.388 . S
N120 C121 1.346 . S
C121 N120 1.346 . S
C121 C122 1.396 . S
C121 C131 1.510 . S
C122 C118 1.401 . S
C122 C121 1.396 . S
C123 C118 1.499 . S
C123 H124 0.959 . S
C123 H125 0.960 . S
C123 H126 0.961 . S
H124 C123 0.959 . S
H125 C123 0.960 . S
H126 C123 0.961 . S
O127 Co102 1.967 . S
O127 C135 1.258 . S
O128 Co103 1.941 . S
O128 C135 1.266 . S
H129 C131 0.959 . S
H130 C131 0.961 . S
C131 C121 1.510 . S
C131 H129 0.959 . S
C131 H130 0.961 . S
C131 H132 0.960 . S
H132 C131 0.960 . S
H133 N113 0.862 . S
O134 Co102 1.920 . S
O134 C107 1.289 . S
C135 O127 1.258 . S
C135 O128 1.266 . S
Co136 O139 1.970 . S
Co136 N153 1.989 . S
Co136 O161 1.967 . S
Co136 O168 1.920 . S
Co137 O140 1.966 . S
Co137 N146 2.022 . S
Co137 N154 1.993 . S
Co137 O162 1.941 . S
C138 O139 1.258 . S
C138 O140 1.263 . S
O139 Co136 1.970 . S
O139 C138 1.258 . S
O140 Co137 1.966 . S
O140 C138 1.263 . S
C141 O142 1.235 . S
C141 O168 1.289 . S
O142 C141 1.235 . S
C143 C145 1.400 . S
C143 N146 1.351 . S
C143 C148 1.501 . S
C144 C145 1.387 1_545 S
C144 N147 1.341 1_545 S
C145 C143 1.400 . S
C145 C144 1.387 1_565 S
N146 Co137 2.022 . S
N146 C143 1.351 . S
N146 N147 1.365 . S
N147 C144 1.341 1_565 S
N147 N146 1.365 . S
N147 H167 0.862 . S
C148 C143 1.501 . S
C148 H149 0.961 . S
C148 H150 0.961 . S
C148 H151 0.960 . S
H149 C148 0.961 . S
H150 C148 0.961 . S
H151 C148 0.960 . S
C152 N153 1.342 . S
C152 C156 1.401 . S
C152 C157 1.499 . S
N153 Co136 1.989 . S
N153 C152 1.342 . S
N153 N154 1.388 . S
N154 Co137 1.993 . S
N154 N153 1.388 . S
N154 C155 1.346 . S
C155 N154 1.346 . S
C155 C156 1.396 . S
C155 C165 1.510 . S
C156 C152 1.401 . S
C156 C155 1.396 . S
C157 C152 1.499 . S
C157 H158 0.959 . S
C157 H159 0.960 . S
C157 H160 0.961 . S
H158 C157 0.959 . S
H159 C157 0.960 . S
H160 C157 0.961 . S
O161 Co136 1.967 . S
O161 C169 1.258 . S
O162 Co137 1.941 . S
O162 C169 1.266 . S
H163 C165 0.959 . S
H164 C165 0.961 . S
C165 C155 1.510 . S
C165 H163 0.959 . S
C165 H164 0.961 . S
C165 H166 0.960 . S
H166 C165 0.960 . S
H167 N147 0.862 . S
O168 Co136 1.920 . S
O168 C141 1.289 . S
C169 O161 1.258 . S
C169 O162 1.266 . S
Co170 O173 1.970 . S
Co170 N187 1.989 . S
Co170 O195 1.967 . S
Co170 O202 1.920 . S
Co171 O174 1.966 . S
Co171 N180 2.022 . S
Co171 N188 1.993 . S
Co171 O196 1.941 . S
C172 O173 1.258 . S
C172 O174 1.263 . S
O173 Co170 1.970 . S
O173 C172 1.258 . S
O174 Co171 1.966 . S
O174 C172 1.263 . S
C175 O176 1.235 . S
C175 O202 1.289 . S
O176 C175 1.235 . S
C177 C179 1.400 . S
C177 N180 1.351 . S
C177 C182 1.501 . S
C178 C179 1.387 . S
C178 N181 1.341 . S
C179 C177 1.400 . S
C179 C178 1.387 . S
N180 Co171 2.022 . S
N180 C177 1.351 . S
N180 N181 1.365 . S
N181 C178 1.341 . S
N181 N180 1.365 . S
N181 H201 0.862 . S
C182 C177 1.501 . S
C182 H183 0.961 . S
C182 H184 0.961 . S
C182 H185 0.960 . S
H183 C182 0.961 . S
H184 C182 0.961 . S
H185 C182 0.960 . S
C186 N187 1.342 . S
C186 C190 1.401 . S
C186 C191 1.499 . S
N187 Co170 1.989 . S
N187 C186 1.342 . S
N187 N188 1.388 . S
N188 Co171 1.993 . S
N188 N187 1.388 . S
N188 C189 1.346 . S
C189 N188 1.346 . S
C189 C190 1.396 . S
C189 C199 1.510 . S
C190 C186 1.401 . S
C190 C189 1.396 . S
C191 C186 1.499 . S
C191 H192 0.959 . S
C191 H193 0.960 . S
C191 H194 0.961 . S
H192 C191 0.959 . S
H193 C191 0.960 . S
H194 C191 0.961 . S
O195 Co170 1.967 . S
O195 C203 1.258 . S
O196 Co171 1.941 . S
O196 C203 1.266 . S
H197 C199 0.959 . S
H198 C199 0.961 . S
C199 C189 1.510 . S
C199 H197 0.959 . S
C199 H198 0.961 . S
C199 H200 0.960 . S
H200 C199 0.960 . S
H201 N181 0.862 . S
O202 Co170 1.920 . S
O202 C175 1.289 . S
C203 O195 1.258 . S
C203 O196 1.266 . S
Co204 O207 1.970 . S
Co204 N221 1.989 . S
Co204 O229 1.967 . S
Co204 O236 1.920 . S
Co205 O208 1.966 . S
Co205 N214 2.022 . S
Co205 N222 1.993 . S
Co205 O230 1.941 . S
C206 O207 1.258 . S
C206 O208 1.263 . S
O207 Co204 1.970 . S
O207 C206 1.258 . S
O208 Co205 1.966 . S
O208 C206 1.263 . S
C209 O210 1.235 . S
C209 O236 1.289 . S
O210 C209 1.235 . S
C211 C213 1.400 . S
C211 N214 1.351 . S
C211 C216 1.501 . S
C212 C213 1.387 1_565 S
C212 N215 1.341 1_565 S
C213 C211 1.400 . S
C213 C212 1.387 1_545 S
N214 Co205 2.022 . S
N214 C211 1.351 . S
N214 N215 1.365 . S
N215 C212 1.341 1_545 S
N215 N214 1.365 . S
N215 H235 0.862 . S
C216 C211 1.501 . S
C216 H217 0.961 . S
C216 H218 0.961 . S
C216 H219 0.960 . S
H217 C216 0.961 . S
H218 C216 0.961 . S
H219 C216 0.960 . S
C220 N221 1.342 . S
C220 C224 1.401 . S
C220 C225 1.499 . S
N221 Co204 1.989 . S
N221 C220 1.342 . S
N221 N222 1.388 . S
N222 Co205 1.993 . S
N222 N221 1.388 . S
N222 C223 1.346 . S
C223 N222 1.346 . S
C223 C224 1.396 . S
C223 C233 1.510 . S
C224 C220 1.401 . S
C224 C223 1.396 . S
C225 C220 1.499 . S
C225 H226 0.959 . S
C225 H227 0.960 . S
C225 H228 0.961 . S
H226 C225 0.959 . S
H227 C225 0.960 . S
H228 C225 0.961 . S
O229 Co204 1.967 . S
O229 C237 1.258 . S
O230 Co205 1.941 . S
O230 C237 1.266 . S
H231 C233 0.959 . S
H232 C233 0.961 . S
C233 C223 1.510 . S
C233 H231 0.959 . S
C233 H232 0.961 . S
C233 H234 0.960 . S
H234 C233 0.960 . S
H235 N215 0.862 . S
O236 Co204 1.920 . S
O236 C209 1.289 . S
C237 O229 1.258 . S
C237 O230 1.266 . S
Co238 O241 1.970 . S
Co238 N255 1.989 . S
Co238 O263 1.967 . S
Co238 O270 1.920 . S
Co239 O242 1.966 . S
Co239 N248 2.022 . S
Co239 N256 1.993 . S
Co239 O264 1.941 . S
C240 O241 1.258 . S
C240 O242 1.263 . S
O241 Co238 1.970 . S
O241 C240 1.258 . S
O242 Co239 1.966 . S
O242 C240 1.263 . S
C243 O244 1.235 . S
C243 O270 1.289 . S
O244 C243 1.235 . S
C245 C247 1.400 . S
C245 N248 1.351 . S
C245 C250 1.501 . S
C246 C247 1.387 . S
C246 N249 1.341 . S
C247 C245 1.400 . S
C247 C246 1.387 . S
N248 Co239 2.022 . S
N248 C245 1.351 . S
N248 N249 1.365 . S
N249 C246 1.341 . S
N249 N248 1.365 . S
N249 H269 0.862 . S
C250 C245 1.501 . S
C250 H251 0.961 . S
C250 H252 0.961 . S
C250 H253 0.960 . S
H251 C250 0.961 . S
H252 C250 0.961 . S
H253 C250 0.960 . S
C254 N255 1.342 . S
C254 C258 1.401 . S
C254 C259 1.499 . S
N255 Co238 1.989 . S
N255 C254 1.342 . S
N255 N256 1.388 . S
N256 Co239 1.993 . S
N256 N255 1.388 . S
N256 C257 1.346 . S
C257 N256 1.346 . S
C257 C258 1.396 . S
C257 C267 1.510 . S
C258 C254 1.401 . S
C258 C257 1.396 . S
C259 C254 1.499 . S
C259 H260 0.959 . S
C259 H261 0.960 . S
C259 H262 0.961 . S
H260 C259 0.959 . S
H261 C259 0.960 . S
H262 C259 0.961 . S
O263 Co238 1.967 . S
O263 C271 1.258 . S
O264 Co239 1.941 . S
O264 C271 1.266 . S
H265 C267 0.959 . S
H266 C267 0.961 . S
C267 C257 1.510 . S
C267 H265 0.959 . S
C267 H266 0.961 . S
C267 H268 0.960 . S
H268 C267 0.960 . S
H269 N249 0.862 . S
O270 Co238 1.920 . S
O270 C243 1.289 . S
C271 O263 1.258 . S
C271 O264 1.266 . S
Co272 O275 1.970 . S
Co272 N289 1.989 . S
Co272 O297 1.967 . S
Co272 O304 1.920 . S
Co273 O276 1.966 . S
Co273 N282 2.022 . S
Co273 N290 1.993 . S
Co273 O298 1.941 . S
C274 O275 1.258 . S
C274 O276 1.263 . S
O275 Co272 1.970 . S
O275 C274 1.258 . S
O276 Co273 1.966 . S
O276 C274 1.263 . S
C277 O278 1.235 . S
C277 O304 1.289 . S
O278 C277 1.235 . S
C279 C281 1.400 . S
C279 N282 1.351 . S
C279 C284 1.501 . S
C280 C281 1.387 1_545 S
C280 N283 1.341 1_545 S
C281 C279 1.400 . S
C281 C280 1.387 1_565 S
N282 Co273 2.022 . S
N282 C279 1.351 . S
N282 N283 1.365 . S
N283 C280 1.341 1_565 S
N283 N282 1.365 . S
N283 H303 0.862 . S
C284 C279 1.501 . S
C284 H285 0.961 . S
C284 H286 0.961 . S
C284 H287 0.960 . S
H285 C284 0.961 . S
H286 C284 0.961 . S
H287 C284 0.960 . S
C288 N289 1.342 . S
C288 C292 1.401 . S
C288 C293 1.499 . S
N289 Co272 1.989 . S
N289 C288 1.342 . S
N289 N290 1.388 . S
N290 Co273 1.993 . S
N290 N289 1.388 . S
N290 C291 1.346 . S
C291 N290 1.346 . S
C291 C292 1.396 . S
C291 C301 1.510 . S
C292 C288 1.401 . S
C292 C291 1.396 . S
C293 C288 1.499 . S
C293 H294 0.959 . S
C293 H295 0.960 . S
C293 H296 0.961 . S
H294 C293 0.959 . S
H295 C293 0.960 . S
H296 C293 0.961 . S
O297 Co272 1.967 . S
O297 C305 1.258 . S
O298 Co273 1.941 . S
O298 C305 1.266 . S
H299 C301 0.959 . S
H300 C301 0.961 . S
C301 C291 1.510 . S
C301 H299 0.959 . S
C301 H300 0.961 . S
C301 H302 0.960 . S
H302 C301 0.960 . S
H303 N283 0.862 . S
O304 Co272 1.920 . S
O304 C277 1.289 . S
C305 O297 1.258 . S
C305 O298 1.266 . S
Co306 O309 1.970 . S
Co306 N323 1.989 . S
Co306 O331 1.967 . S
Co306 O338 1.920 . S
Co307 O310 1.966 . S
Co307 N316 2.022 . S
Co307 N324 1.993 . S
Co307 O332 1.941 . S
C308 O309 1.258 . S
C308 O310 1.263 . S
O309 Co306 1.970 . S
O309 C308 1.258 . S
O310 Co307 1.966 . S
O310 C308 1.263 . S
C311 O312 1.235 . S
C311 O338 1.289 . S
O312 C311 1.235 . S
C313 C315 1.400 . S
C313 N316 1.351 . S
C313 C318 1.501 . S
C314 C315 1.387 . S
C314 N317 1.341 . S
C315 C313 1.400 . S
C315 C314 1.387 . S
N316 Co307 2.022 . S
N316 C313 1.351 . S
N316 N317 1.365 . S
N317 C314 1.341 . S
N317 N316 1.365 . S
N317 H337 0.862 . S
C318 C313 1.501 . S
C318 H319 0.961 . S
C318 H320 0.961 . S
C318 H321 0.960 . S
H319 C318 0.961 . S
H320 C318 0.961 . S
H321 C318 0.960 . S
C322 N323 1.342 . S
C322 C326 1.401 . S
C322 C327 1.499 . S
N323 Co306 1.989 . S
N323 C322 1.342 . S
N323 N324 1.388 . S
N324 Co307 1.993 . S
N324 N323 1.388 . S
N324 C325 1.346 . S
C325 N324 1.346 . S
C325 C326 1.396 . S
C325 C335 1.510 . S
C326 C322 1.401 . S
C326 C325 1.396 . S
C327 C322 1.499 . S
C327 H328 0.959 . S
C327 H329 0.960 . S
C327 H330 0.961 . S
H328 C327 0.959 . S
H329 C327 0.960 . S
H330 C327 0.961 . S
O331 Co306 1.967 . S
O331 C339 1.258 . S
O332 Co307 1.941 . S
O332 C339 1.266 . S
H333 C335 0.959 . S
H334 C335 0.961 . S
C335 C325 1.510 . S
C335 H333 0.959 . S
C335 H334 0.961 . S
C335 H336 0.960 . S
H336 C335 0.960 . S
H337 N317 0.862 . S
O338 Co306 1.920 . S
O338 C311 1.289 . S
C339 O331 1.258 . S
C339 O332 1.266 . S
Co340 O343 1.970 . S
Co340 N357 1.989 . S
Co340 O365 1.967 . S
Co340 O372 1.920 . S
Co341 O344 1.966 . S
Co341 N350 2.022 . S
Co341 N358 1.993 . S
Co341 O366 1.941 . S
C342 O343 1.258 . S
C342 O344 1.263 . S
O343 Co340 1.970 . S
O343 C342 1.258 . S
O344 Co341 1.966 . S
O344 C342 1.263 . S
C345 O346 1.235 . S
C345 O372 1.289 . S
O346 C345 1.235 . S
C347 C349 1.400 . S
C347 N350 1.351 . S
C347 C352 1.501 . S
C348 C349 1.387 1_565 S
C348 N351 1.341 1_565 S
C349 C347 1.400 . S
C349 C348 1.387 1_545 S
N350 Co341 2.022 . S
N350 C347 1.351 . S
N350 N351 1.365 . S
N351 C348 1.341 1_545 S
N351 N350 1.365 . S
N351 H371 0.862 . S
C352 C347 1.501 . S
C352 H353 0.961 . S
C352 H354 0.961 . S
C352 H355 0.960 . S
H353 C352 0.961 . S
H354 C352 0.961 . S
H355 C352 0.960 . S
C356 N357 1.342 . S
C356 C360 1.401 . S
C356 C361 1.499 . S
N357 Co340 1.989 . S
N357 C356 1.342 . S
N357 N358 1.388 . S
N358 Co341 1.993 . S
N358 N357 1.388 . S
N358 C359 1.346 . S
C359 N358 1.346 . S
C359 C360 1.396 . S
C359 C369 1.510 . S
C360 C356 1.401 . S
C360 C359 1.396 . S
C361 C356 1.499 . S
C361 H362 0.959 . S
C361 H363 0.960 . S
C361 H364 0.961 . S
H362 C361 0.959 . S
H363 C361 0.960 . S
H364 C361 0.961 . S
O365 Co340 1.967 . S
O365 C373 1.258 . S
O366 Co341 1.941 . S
O366 C373 1.266 . S
H367 C369 0.959 . S
H368 C369 0.961 . S
C369 C359 1.510 . S
C369 H367 0.959 . S
C369 H368 0.961 . S
C369 H370 0.960 . S
H370 C369 0.960 . S
H371 N351 0.862 . S
O372 Co340 1.920 . S
O372 C345 1.289 . S
C373 O365 1.258 . S
C373 O366 1.266 . S
Co374 O377 1.970 . S
Co374 N391 1.989 . S
Co374 O399 1.967 . S
Co374 O406 1.920 . S
Co375 O378 1.966 . S
Co375 N384 2.022 . S
Co375 N392 1.993 . S
Co375 O400 1.941 . S
C376 O377 1.258 . S
C376 O378 1.263 . S
O377 Co374 1.970 . S
O377 C376 1.258 . S
O378 Co375 1.966 . S
O378 C376 1.263 . S
C379 O380 1.235 . S
C379 O406 1.289 . S
O380 C379 1.235 . S
C381 C383 1.400 . S
C381 N384 1.351 . S
C381 C386 1.501 . S
C382 C383 1.387 . S
C382 N385 1.341 . S
C383 C381 1.400 . S
C383 C382 1.387 . S
N384 Co375 2.022 . S
N384 C381 1.351 . S
N384 N385 1.365 . S
N385 C382 1.341 . S
N385 N384 1.365 . S
N385 H405 0.862 . S
C386 C381 1.501 . S
C386 H387 0.961 . S
C386 H388 0.961 . S
C386 H389 0.960 . S
H387 C386 0.961 . S
H388 C386 0.961 . S
H389 C386 0.960 . S
C390 N391 1.342 . S
C390 C394 1.401 . S
C390 C395 1.499 . S
N391 Co374 1.989 . S
N391 C390 1.342 . S
N391 N392 1.388 . S
N392 Co375 1.993 . S
N392 N391 1.388 . S
N392 C393 1.346 . S
C393 N392 1.346 . S
C393 C394 1.396 . S
C393 C403 1.510 . S
C394 C390 1.401 . S
C394 C393 1.396 . S
C395 C390 1.499 . S
C395 H396 0.959 . S
C395 H397 0.960 . S
C395 H398 0.961 . S
H396 C395 0.959 . S
H397 C395 0.960 . S
H398 C395 0.961 . S
O399 Co374 1.967 . S
O399 C407 1.258 . S
O400 Co375 1.941 . S
O400 C407 1.266 . S
H401 C403 0.959 . S
H402 C403 0.961 . S
C403 C393 1.510 . S
C403 H401 0.959 . S
C403 H402 0.961 . S
C403 H404 0.960 . S
H404 C403 0.960 . S
H405 N385 0.862 . S
O406 Co374 1.920 . S
O406 C379 1.289 . S
C407 O399 1.258 . S
C407 O400 1.266 . S
Co408 O411 1.970 . S
Co408 N425 1.989 . S
Co408 O433 1.967 . S
Co408 O440 1.920 . S
Co409 O412 1.966 . S
Co409 N418 2.022 . S
Co409 N426 1.993 . S
Co409 O434 1.941 . S
C410 O411 1.258 . S
C410 O412 1.263 . S
O411 Co408 1.970 . S
O411 C410 1.258 . S
O412 Co409 1.966 . S
O412 C410 1.263 . S
C413 O414 1.235 . S
C413 O440 1.289 . S
O414 C413 1.235 . S
C415 C417 1.400 . S
C415 N418 1.351 . S
C415 C420 1.501 . S
C416 C417 1.387 1_565 S
C416 N419 1.341 1_565 S
C417 C415 1.400 . S
C417 C416 1.387 1_545 S
N418 Co409 2.022 . S
N418 C415 1.351 . S
N418 N419 1.365 . S
N419 C416 1.341 1_545 S
N419 N418 1.365 . S
N419 H439 0.862 . S
C420 C415 1.501 . S
C420 H421 0.961 . S
C420 H422 0.961 . S
C420 H423 0.960 . S
H421 C420 0.961 . S
H422 C420 0.961 . S
H423 C420 0.960 . S
C424 N425 1.342 . S
C424 C428 1.401 . S
C424 C429 1.499 . S
N425 Co408 1.989 . S
N425 C424 1.342 . S
N425 N426 1.388 . S
N426 Co409 1.993 . S
N426 N425 1.388 . S
N426 C427 1.346 . S
C427 N426 1.346 . S
C427 C428 1.396 . S
C427 C437 1.510 . S
C428 C424 1.401 . S
C428 C427 1.396 . S
C429 C424 1.499 . S
C429 H430 0.959 . S
C429 H431 0.960 . S
C429 H432 0.961 . S
H430 C429 0.959 . S
H431 C429 0.960 . S
H432 C429 0.961 . S
O433 Co408 1.967 . S
O433 C441 1.258 . S
O434 Co409 1.941 . S
O434 C441 1.266 . S
H435 C437 0.959 . S
H436 C437 0.961 . S
C437 C427 1.510 . S
C437 H435 0.959 . S
C437 H436 0.961 . S
C437 H438 0.960 . S
H438 C437 0.960 . S
H439 N419 0.862 . S
O440 Co408 1.920 . S
O440 C413 1.289 . S
C441 O433 1.258 . S
C441 O434 1.266 . S
Co442 O445 1.970 . S
Co442 N459 1.989 . S
Co442 O467 1.967 . S
Co442 O474 1.920 . S
Co443 O446 1.966 . S
Co443 N452 2.022 . S
Co443 N460 1.993 . S
Co443 O468 1.941 . S
C444 O445 1.258 . S
C444 O446 1.263 . S
O445 Co442 1.970 . S
O445 C444 1.258 . S
O446 Co443 1.966 . S
O446 C444 1.263 . S
C447 O448 1.235 . S
C447 O474 1.289 . S
O448 C447 1.235 . S
C449 C451 1.400 . S
C449 N452 1.351 . S
C449 C454 1.501 . S
C450 C451 1.387 . S
C450 N453 1.341 . S
C451 C449 1.400 . S
C451 C450 1.387 . S
N452 Co443 2.022 . S
N452 C449 1.351 . S
N452 N453 1.365 . S
N453 C450 1.341 . S
N453 N452 1.365 . S
N453 H473 0.862 . S
C454 C449 1.501 . S
C454 H455 0.961 . S
C454 H456 0.961 . S
C454 H457 0.960 . S
H455 C454 0.961 . S
H456 C454 0.961 . S
H457 C454 0.960 . S
C458 N459 1.342 . S
C458 C462 1.401 . S
C458 C463 1.499 . S
N459 Co442 1.989 . S
N459 C458 1.342 . S
N459 N460 1.388 . S
N460 Co443 1.993 . S
N460 N459 1.388 . S
N460 C461 1.346 . S
C461 N460 1.346 . S
C461 C462 1.396 . S
C461 C471 1.510 . S
C462 C458 1.401 . S
C462 C461 1.396 . S
C463 C458 1.499 . S
C463 H464 0.959 . S
C463 H465 0.960 . S
C463 H466 0.961 . S
H464 C463 0.959 . S
H465 C463 0.960 . S
H466 C463 0.961 . S
O467 Co442 1.967 . S
O467 C475 1.258 . S
O468 Co443 1.941 . S
O468 C475 1.266 . S
H469 C471 0.959 . S
H470 C471 0.961 . S
C471 C461 1.510 . S
C471 H469 0.959 . S
C471 H470 0.961 . S
C471 H472 0.960 . S
H472 C471 0.960 . S
H473 N453 0.862 . S
O474 Co442 1.920 . S
O474 C447 1.289 . S
C475 O467 1.258 . S
C475 O468 1.266 . S
Co476 O479 1.970 . S
Co476 N493 1.989 . S
Co476 O501 1.967 . S
Co476 O508 1.920 . S
Co477 O480 1.966 . S
Co477 N486 2.022 . S
Co477 N494 1.993 . S
Co477 O502 1.941 . S
C478 O479 1.258 . S
C478 O480 1.263 . S
O479 Co476 1.970 . S
O479 C478 1.258 . S
O480 Co477 1.966 . S
O480 C478 1.263 . S
C481 O482 1.235 . S
C481 O508 1.289 . S
O482 C481 1.235 . S
C483 C485 1.400 . S
C483 N486 1.351 . S
C483 C488 1.501 . S
C484 C485 1.387 1_545 S
C484 N487 1.341 1_545 S
C485 C483 1.400 . S
C485 C484 1.387 1_565 S
N486 Co477 2.022 . S
N486 C483 1.351 . S
N486 N487 1.365 . S
N487 C484 1.341 1_565 S
N487 N486 1.365 . S
N487 H507 0.862 . S
C488 C483 1.501 . S
C488 H489 0.961 . S
C488 H490 0.961 . S
C488 H491 0.960 . S
H489 C488 0.961 . S
H490 C488 0.961 . S
H491 C488 0.960 . S
C492 N493 1.342 . S
C492 C496 1.401 . S
C492 C497 1.499 . S
N493 Co476 1.989 . S
N493 C492 1.342 . S
N493 N494 1.388 . S
N494 Co477 1.993 . S
N494 N493 1.388 . S
N494 C495 1.346 . S
C495 N494 1.346 . S
C495 C496 1.396 . S
C495 C505 1.510 . S
C496 C492 1.401 . S
C496 C495 1.396 . S
C497 C492 1.499 . S
C497 H498 0.959 . S
C497 H499 0.960 . S
C497 H500 0.961 . S
H498 C497 0.959 . S
H499 C497 0.960 . S
H500 C497 0.961 . S
O501 Co476 1.967 . S
O501 C509 1.258 . S
O502 Co477 1.941 . S
O502 C509 1.266 . S
H503 C505 0.959 . S
H504 C505 0.961 . S
C505 C495 1.510 . S
C505 H503 0.959 . S
C505 H504 0.961 . S
C505 H506 0.960 . S
H506 C505 0.960 . S
H507 N487 0.862 . S
O508 Co476 1.920 . S
O508 C481 1.289 . S
C509 O501 1.258 . S
C509 O502 1.266 . S
Co510 O513 1.970 . S
Co510 N527 1.989 . S
Co510 O535 1.967 . S
Co510 O542 1.920 . S
Co511 O514 1.966 . S
Co511 N520 2.022 . S
Co511 N528 1.993 . S
Co511 O536 1.941 . S
C512 O513 1.258 . S
C512 O514 1.263 . S
O513 Co510 1.970 . S
O513 C512 1.258 . S
O514 Co511 1.966 . S
O514 C512 1.263 . S
C515 O516 1.235 . S
C515 O542 1.289 . S
O516 C515 1.235 . S
C517 C519 1.400 . S
C517 N520 1.351 . S
C517 C522 1.501 . S
C518 C519 1.387 . S
C518 N521 1.341 . S
C519 C517 1.400 . S
C519 C518 1.387 . S
N520 Co511 2.022 . S
N520 C517 1.351 . S
N520 N521 1.365 . S
N521 C518 1.341 . S
N521 N520 1.365 . S
N521 H541 0.862 . S
C522 C517 1.501 . S
C522 H523 0.961 . S
C522 H524 0.961 . S
C522 H525 0.960 . S
H523 C522 0.961 . S
H524 C522 0.961 . S
H525 C522 0.960 . S
C526 N527 1.342 . S
C526 C530 1.401 . S
C526 C531 1.499 . S
N527 Co510 1.989 . S
N527 C526 1.342 . S
N527 N528 1.388 . S
N528 Co511 1.993 . S
N528 N527 1.388 . S
N528 C529 1.346 . S
C529 N528 1.346 . S
C529 C530 1.396 . S
C529 C539 1.510 . S
C530 C526 1.401 . S
C530 C529 1.396 . S
C531 C526 1.499 . S
C531 H532 0.959 . S
C531 H533 0.960 . S
C531 H534 0.961 . S
H532 C531 0.959 . S
H533 C531 0.960 . S
H534 C531 0.961 . S
O535 Co510 1.967 . S
O535 C543 1.258 . S
O536 Co511 1.941 . S
O536 C543 1.266 . S
H537 C539 0.959 . S
H538 C539 0.961 . S
C539 C529 1.510 . S
C539 H537 0.959 . S
C539 H538 0.961 . S
C539 H540 0.960 . S
H540 C539 0.960 . S
H541 N521 0.862 . S
O542 Co510 1.920 . S
O542 C515 1.289 . S
C543 O535 1.258 . S
C543 O536 1.266 . S
Co544 O547 1.970 . S
Co544 N561 1.989 . S
Co544 O569 1.967 . S
Co544 O576 1.920 . S
Co545 O548 1.966 . S
Co545 N554 2.022 . S
Co545 N562 1.993 . S
Co545 O570 1.941 . S
C546 O547 1.258 . S
C546 O548 1.263 . S
O547 Co544 1.970 . S
O547 C546 1.258 . S
O548 Co545 1.966 . S
O548 C546 1.263 . S
C549 O550 1.235 . S
C549 O576 1.289 . S
O550 C549 1.235 . S
C551 C553 1.400 . S
C551 N554 1.351 . S
C551 C556 1.501 . S
C552 C553 1.387 . S
C552 N555 1.341 . S
C553 C551 1.400 . S
C553 C552 1.387 . S
N554 Co545 2.022 . S
N554 C551 1.351 . S
N554 N555 1.365 . S
N555 C552 1.341 . S
N555 N554 1.365 . S
N555 H575 0.862 . S
C556 C551 1.501 . S
C556 H557 0.961 . S
C556 H558 0.961 . S
C556 H559 0.960 . S
H557 C556 0.961 . S
H558 C556 0.961 . S
H559 C556 0.960 . S
C560 N561 1.342 . S
C560 C564 1.401 . S
C560 C565 1.499 . S
N561 Co544 1.989 . S
N561 C560 1.342 . S
N561 N562 1.388 . S
N562 Co545 1.993 . S
N562 N561 1.388 . S
N562 C563 1.346 . S
C563 N562 1.346 . S
C563 C564 1.396 . S
C563 C573 1.510 . S
C564 C560 1.401 . S
C564 C563 1.396 . S
C565 C560 1.499 . S
C565 H566 0.959 . S
C565 H567 0.960 . S
C565 H568 0.961 . S
H566 C565 0.959 . S
H567 C565 0.960 . S
H568 C565 0.961 . S
O569 Co544 1.967 . S
O569 C577 1.258 . S
O570 Co545 1.941 . S
O570 C577 1.266 . S
H571 C573 0.959 . S
H572 C573 0.961 . S
C573 C563 1.510 . S
C573 H571 0.959 . S
C573 H572 0.961 . S
C573 H574 0.960 . S
H574 C573 0.960 . S
H575 N555 0.862 . S
O576 Co544 1.920 . S
O576 C549 1.289 . S
C577 O569 1.258 . S
C577 O570 1.266 . S
Co578 O581 1.970 . S
Co578 N595 1.989 . S
Co578 O603 1.967 . S
Co578 O610 1.920 . S
Co579 O582 1.966 . S
Co579 N588 2.022 . S
Co579 N596 1.993 . S
Co579 O604 1.941 . S
C580 O581 1.258 . S
C580 O582 1.263 . S
O581 Co578 1.970 . S
O581 C580 1.258 . S
O582 Co579 1.966 . S
O582 C580 1.263 . S
C583 O584 1.235 . S
C583 O610 1.289 . S
O584 C583 1.235 . S
C585 C587 1.400 . S
C585 N588 1.351 . S
C585 C590 1.501 . S
C586 C587 1.387 . S
C586 N589 1.341 . S
C587 C585 1.400 . S
C587 C586 1.387 . S
N588 Co579 2.022 . S
N588 C585 1.351 . S
N588 N589 1.365 . S
N589 C586 1.341 . S
N589 N588 1.365 . S
N589 H609 0.862 . S
C590 C585 1.501 . S
C590 H591 0.961 . S
C590 H592 0.961 . S
C590 H593 0.960 . S
H591 C590 0.961 . S
H592 C590 0.961 . S
H593 C590 0.960 . S
C594 N595 1.342 . S
C594 C598 1.401 . S
C594 C599 1.499 . S
N595 Co578 1.989 . S
N595 C594 1.342 . S
N595 N596 1.388 . S
N596 Co579 1.993 . S
N596 N595 1.388 . S
N596 C597 1.346 . S
C597 N596 1.346 . S
C597 C598 1.396 . S
C597 C607 1.510 . S
C598 C594 1.401 . S
C598 C597 1.396 . S
C599 C594 1.499 . S
C599 H600 0.959 . S
C599 H601 0.960 . S
C599 H602 0.961 . S
H600 C599 0.959 . S
H601 C599 0.960 . S
H602 C599 0.961 . S
O603 Co578 1.967 . S
O603 C611 1.258 . S
O604 Co579 1.941 . S
O604 C611 1.266 . S
H605 C607 0.959 . S
H606 C607 0.961 . S
C607 C597 1.510 . S
C607 H605 0.959 . S
C607 H606 0.961 . S
C607 H608 0.960 . S
H608 C607 0.960 . S
H609 N589 0.862 . S
O610 Co578 1.920 . S
O610 C583 1.289 . S
C611 O603 1.258 . S
C611 O604 1.266 . S
Co612 O615 1.970 . S
Co612 N629 1.989 . S
Co612 O637 1.967 . S
Co612 O644 1.920 . S
Co613 O616 1.966 . S
Co613 N622 2.022 . S
Co613 N630 1.993 . S
Co613 O638 1.941 . S
C614 O615 1.258 . S
C614 O616 1.263 . S
O615 Co612 1.970 . S
O615 C614 1.258 . S
O616 Co613 1.966 . S
O616 C614 1.263 . S
C617 O618 1.235 . S
C617 O644 1.289 . S
O618 C617 1.235 . S
C619 C621 1.400 . S
C619 N622 1.351 . S
C619 C624 1.501 . S
C620 C621 1.387 . S
C620 N623 1.341 . S
C621 C619 1.400 . S
C621 C620 1.387 . S
N622 Co613 2.022 . S
N622 C619 1.351 . S
N622 N623 1.365 . S
N623 C620 1.341 . S
N623 N622 1.365 . S
N623 H643 0.862 . S
C624 C619 1.501 . S
C624 H625 0.961 . S
C624 H626 0.961 . S
C624 H627 0.960 . S
H625 C624 0.961 . S
H626 C624 0.961 . S
H627 C624 0.960 . S
C628 N629 1.342 . S
C628 C632 1.401 . S
C628 C633 1.499 . S
N629 Co612 1.989 . S
N629 C628 1.342 . S
N629 N630 1.388 . S
N630 Co613 1.993 . S
N630 N629 1.388 . S
N630 C631 1.346 . S
C631 N630 1.346 . S
C631 C632 1.396 . S
C631 C641 1.510 . S
C632 C628 1.401 . S
C632 C631 1.396 . S
C633 C628 1.499 . S
C633 H634 0.959 . S
C633 H635 0.960 . S
C633 H636 0.961 . S
H634 C633 0.959 . S
H635 C633 0.960 . S
H636 C633 0.961 . S
O637 Co612 1.967 . S
O637 C645 1.258 . S
O638 Co613 1.941 . S
O638 C645 1.266 . S
H639 C641 0.959 . S
H640 C641 0.961 . S
C641 C631 1.510 . S
C641 H639 0.959 . S
C641 H640 0.961 . S
C641 H642 0.960 . S
H642 C641 0.960 . S
H643 N623 0.862 . S
O644 Co612 1.920 . S
O644 C617 1.289 . S
C645 O637 1.258 . S
C645 O638 1.266 . S
Co646 O649 1.970 . S
Co646 N663 1.989 . S
Co646 O671 1.967 . S
Co646 O678 1.920 . S
Co647 O650 1.966 . S
Co647 N656 2.022 . S
Co647 N664 1.993 . S
Co647 O672 1.941 . S
C648 O649 1.258 . S
C648 O650 1.263 . S
O649 Co646 1.970 . S
O649 C648 1.258 . S
O650 Co647 1.966 . S
O650 C648 1.263 . S
C651 O652 1.235 . S
C651 O678 1.289 . S
O652 C651 1.235 . S
C653 C655 1.400 . S
C653 N656 1.351 . S
C653 C658 1.501 . S
C654 C655 1.387 . S
C654 N657 1.341 . S
C655 C653 1.400 . S
C655 C654 1.387 . S
N656 Co647 2.022 . S
N656 C653 1.351 . S
N656 N657 1.365 . S
N657 C654 1.341 . S
N657 N656 1.365 . S
N657 H677 0.862 . S
C658 C653 1.501 . S
C658 H659 0.961 . S
C658 H660 0.961 . S
C658 H661 0.960 . S
H659 C658 0.961 . S
H660 C658 0.961 . S
H661 C658 0.960 . S
C662 N663 1.342 . S
C662 C666 1.401 . S
C662 C667 1.499 . S
N663 Co646 1.989 . S
N663 C662 1.342 . S
N663 N664 1.388 . S
N664 Co647 1.993 . S
N664 N663 1.388 . S
N664 C665 1.346 . S
C665 N664 1.346 . S
C665 C666 1.396 . S
C665 C675 1.510 . S
C666 C662 1.401 . S
C666 C665 1.396 . S
C667 C662 1.499 . S
C667 H668 0.959 . S
C667 H669 0.960 . S
C667 H670 0.961 . S
H668 C667 0.959 . S
H669 C667 0.960 . S
H670 C667 0.961 . S
O671 Co646 1.967 . S
O671 C679 1.258 . S
O672 Co647 1.941 . S
O672 C679 1.266 . S
H673 C675 0.959 . S
H674 C675 0.961 . S
C675 C665 1.510 . S
C675 H673 0.959 . S
C675 H674 0.961 . S
C675 H676 0.960 . S
H676 C675 0.960 . S
H677 N657 0.862 . S
O678 Co646 1.920 . S
O678 C651 1.289 . S
C679 O671 1.258 . S
C679 O672 1.266 . S
Co680 O683 1.970 . S
Co680 N697 1.989 . S
Co680 O705 1.967 . S
Co680 O712 1.920 . S
Co681 O684 1.966 . S
Co681 N690 2.022 . S
Co681 N698 1.993 . S
Co681 O706 1.941 . S
C682 O683 1.258 . S
C682 O684 1.263 . S
O683 Co680 1.970 . S
O683 C682 1.258 . S
O684 Co681 1.966 . S
O684 C682 1.263 . S
C685 O686 1.235 . S
C685 O712 1.289 . S
O686 C685 1.235 . S
C687 C689 1.400 . S
C687 N690 1.351 . S
C687 C692 1.501 . S
C688 C689 1.387 . S
C688 N691 1.341 . S
C689 C687 1.400 . S
C689 C688 1.387 . S
N690 Co681 2.022 . S
N690 C687 1.351 . S
N690 N691 1.365 . S
N691 C688 1.341 . S
N691 N690 1.365 . S
N691 H711 0.862 . S
C692 C687 1.501 . S
C692 H693 0.961 . S
C692 H694 0.961 . S
C692 H695 0.960 . S
H693 C692 0.961 . S
H694 C692 0.961 . S
H695 C692 0.960 . S
C696 N697 1.342 . S
C696 C700 1.401 . S
C696 C701 1.499 . S
N697 Co680 1.989 . S
N697 C696 1.342 . S
N697 N698 1.388 . S
N698 Co681 1.993 . S
N698 N697 1.388 . S
N698 C699 1.346 . S
C699 N698 1.346 . S
C699 C700 1.396 . S
C699 C709 1.510 . S
C700 C696 1.401 . S
C700 C699 1.396 . S
C701 C696 1.499 . S
C701 H702 0.959 . S
C701 H703 0.960 . S
C701 H704 0.961 . S
H702 C701 0.959 . S
H703 C701 0.960 . S
H704 C701 0.961 . S
O705 Co680 1.967 . S
O705 C713 1.258 . S
O706 Co681 1.941 . S
O706 C713 1.266 . S
H707 C709 0.959 . S
H708 C709 0.961 . S
C709 C699 1.510 . S
C709 H707 0.959 . S
C709 H708 0.961 . S
C709 H710 0.960 . S
H710 C709 0.960 . S
H711 N691 0.862 . S
O712 Co680 1.920 . S
O712 C685 1.289 . S
C713 O705 1.258 . S
C713 O706 1.266 . S
Co714 O717 1.970 . S
Co714 N731 1.989 . S
Co714 O739 1.967 . S
Co714 O746 1.920 . S
Co715 O718 1.966 . S
Co715 N724 2.022 . S
Co715 N732 1.993 . S
Co715 O740 1.941 . S
C716 O717 1.258 . S
C716 O718 1.263 . S
O717 Co714 1.970 . S
O717 C716 1.258 . S
O718 Co715 1.966 . S
O718 C716 1.263 . S
C719 O720 1.235 . S
C719 O746 1.289 . S
O720 C719 1.235 . S
C721 C723 1.400 . S
C721 N724 1.351 . S
C721 C726 1.501 . S
C722 C723 1.387 . S
C722 N725 1.341 . S
C723 C721 1.400 . S
C723 C722 1.387 . S
N724 Co715 2.022 . S
N724 C721 1.351 . S
N724 N725 1.365 . S
N725 C722 1.341 . S
N725 N724 1.365 . S
N725 H745 0.862 . S
C726 C721 1.501 . S
C726 H727 0.961 . S
C726 H728 0.961 . S
C726 H729 0.960 . S
H727 C726 0.961 . S
H728 C726 0.961 . S
H729 C726 0.960 . S
C730 N731 1.342 . S
C730 C734 1.401 . S
C730 C735 1.499 . S
N731 Co714 1.989 . S
N731 C730 1.342 . S
N731 N732 1.388 . S
N732 Co715 1.993 . S
N732 N731 1.388 . S
N732 C733 1.346 . S
C733 N732 1.346 . S
C733 C734 1.396 . S
C733 C743 1.510 . S
C734 C730 1.401 . S
C734 C733 1.396 . S
C735 C730 1.499 . S
C735 H736 0.959 . S
C735 H737 0.960 . S
C735 H738 0.961 . S
H736 C735 0.959 . S
H737 C735 0.960 . S
H738 C735 0.961 . S
O739 Co714 1.967 . S
O739 C747 1.258 . S
O740 Co715 1.941 . S
O740 C747 1.266 . S
H741 C743 0.959 . S
H742 C743 0.961 . S
C743 C733 1.510 . S
C743 H741 0.959 . S
C743 H742 0.961 . S
C743 H744 0.960 . S
H744 C743 0.960 . S
H745 N725 0.862 . S
O746 Co714 1.920 . S
O746 C719 1.289 . S
C747 O739 1.258 . S
C747 O740 1.266 . S
Co748 O751 1.970 . S
Co748 N765 1.989 . S
Co748 O773 1.967 . S
Co748 O780 1.920 . S
Co749 O752 1.966 . S
Co749 N758 2.022 . S
Co749 N766 1.993 . S
Co749 O774 1.941 . S
C750 O751 1.258 . S
C750 O752 1.263 . S
O751 Co748 1.970 . S
O751 C750 1.258 . S
O752 Co749 1.966 . S
O752 C750 1.263 . S
C753 O754 1.235 . S
C753 O780 1.289 . S
O754 C753 1.235 . S
C755 C757 1.400 . S
C755 N758 1.351 . S
C755 C760 1.501 . S
C756 C757 1.387 . S
C756 N759 1.341 . S
C757 C755 1.400 . S
C757 C756 1.387 . S
N758 Co749 2.022 . S
N758 C755 1.351 . S
N758 N759 1.365 . S
N759 C756 1.341 . S
N759 N758 1.365 . S
N759 H779 0.862 . S
C760 C755 1.501 . S
C760 H761 0.961 . S
C760 H762 0.961 . S
C760 H763 0.960 . S
H761 C760 0.961 . S
H762 C760 0.961 . S
H763 C760 0.960 . S
C764 N765 1.342 . S
C764 C768 1.401 . S
C764 C769 1.499 . S
N765 Co748 1.989 . S
N765 C764 1.342 . S
N765 N766 1.388 . S
N766 Co749 1.993 . S
N766 N765 1.388 . S
N766 C767 1.346 . S
C767 N766 1.346 . S
C767 C768 1.396 . S
C767 C777 1.510 . S
C768 C764 1.401 . S
C768 C767 1.396 . S
C769 C764 1.499 . S
C769 H770 0.959 . S
C769 H771 0.960 . S
C769 H772 0.961 . S
H770 C769 0.959 . S
H771 C769 0.960 . S
H772 C769 0.961 . S
O773 Co748 1.967 . S
O773 C781 1.258 . S
O774 Co749 1.941 . S
O774 C781 1.266 . S
H775 C777 0.959 . S
H776 C777 0.961 . S
C777 C767 1.510 . S
C777 H775 0.959 . S
C777 H776 0.961 . S
C777 H778 0.960 . S
H778 C777 0.960 . S
H779 N759 0.862 . S
O780 Co748 1.920 . S
O780 C753 1.289 . S
C781 O773 1.258 . S
C781 O774 1.266 . S
Co782 O785 1.970 . S
Co782 N799 1.989 . S
Co782 O807 1.967 . S
Co782 O814 1.920 . S
Co783 O786 1.966 . S
Co783 N792 2.022 . S
Co783 N800 1.993 . S
Co783 O808 1.941 . S
C784 O785 1.258 . S
C784 O786 1.263 . S
O785 Co782 1.970 . S
O785 C784 1.258 . S
O786 Co783 1.966 . S
O786 C784 1.263 . S
C787 O788 1.235 . S
C787 O814 1.289 . S
O788 C787 1.235 . S
C789 C791 1.400 . S
C789 N792 1.351 . S
C789 C794 1.501 . S
C790 C791 1.387 . S
C790 N793 1.341 . S
C791 C789 1.400 . S
C791 C790 1.387 . S
N792 Co783 2.022 . S
N792 C789 1.351 . S
N792 N793 1.365 . S
N793 C790 1.341 . S
N793 N792 1.365 . S
N793 H813 0.862 . S
C794 C789 1.501 . S
C794 H795 0.961 . S
C794 H796 0.961 . S
C794 H797 0.960 . S
H795 C794 0.961 . S
H796 C794 0.961 . S
H797 C794 0.960 . S
C798 N799 1.342 . S
C798 C802 1.401 . S
C798 C803 1.499 . S
N799 Co782 1.989 . S
N799 C798 1.342 . S
N799 N800 1.388 . S
N800 Co783 1.993 . S
N800 N799 1.388 . S
N800 C801 1.346 . S
C801 N800 1.346 . S
C801 C802 1.396 . S
C801 C811 1.510 . S
C802 C798 1.401 . S
C802 C801 1.396 . S
C803 C798 1.499 . S
C803 H804 0.959 . S
C803 H805 0.960 . S
C803 H806 0.961 . S
H804 C803 0.959 . S
H805 C803 0.960 . S
H806 C803 0.961 . S
O807 Co782 1.967 . S
O807 C815 1.258 . S
O808 Co783 1.941 . S
O808 C815 1.266 . S
H809 C811 0.959 . S
H810 C811 0.961 . S
C811 C801 1.510 . S
C811 H809 0.959 . S
C811 H810 0.961 . S
C811 H812 0.960 . S
H812 C811 0.960 . S
H813 N793 0.862 . S
O814 Co782 1.920 . S
O814 C787 1.289 . S
C815 O807 1.258 . S
C815 O808 1.266 . S
Co816 O819 1.970 . S
Co816 N833 1.989 . S
Co816 O841 1.967 . S
Co816 O848 1.920 . S
Co817 O820 1.966 . S
Co817 N826 2.022 . S
Co817 N834 1.993 . S
Co817 O842 1.941 . S
C818 O819 1.258 . S
C818 O820 1.263 . S
O819 Co816 1.970 . S
O819 C818 1.258 . S
O820 Co817 1.966 . S
O820 C818 1.263 . S
C821 O822 1.235 . S
C821 O848 1.289 . S
O822 C821 1.235 . S
C823 C825 1.400 . S
C823 N826 1.351 . S
C823 C828 1.501 . S
C824 C825 1.387 . S
C824 N827 1.341 . S
C825 C823 1.400 . S
C825 C824 1.387 . S
N826 Co817 2.022 . S
N826 C823 1.351 . S
N826 N827 1.365 . S
N827 C824 1.341 . S
N827 N826 1.365 . S
N827 H847 0.862 . S
C828 C823 1.501 . S
C828 H829 0.961 . S
C828 H830 0.961 . S
C828 H831 0.960 . S
H829 C828 0.961 . S
H830 C828 0.961 . S
H831 C828 0.960 . S
C832 N833 1.342 . S
C832 C836 1.401 . S
C832 C837 1.499 . S
N833 Co816 1.989 . S
N833 C832 1.342 . S
N833 N834 1.388 . S
N834 Co817 1.993 . S
N834 N833 1.388 . S
N834 C835 1.346 . S
C835 N834 1.346 . S
C835 C836 1.396 . S
C835 C845 1.510 . S
C836 C832 1.401 . S
C836 C835 1.396 . S
C837 C832 1.499 . S
C837 H838 0.959 . S
C837 H839 0.960 . S
C837 H840 0.961 . S
H838 C837 0.959 . S
H839 C837 0.960 . S
H840 C837 0.961 . S
O841 Co816 1.967 . S
O841 C849 1.258 . S
O842 Co817 1.941 . S
O842 C849 1.266 . S
H843 C845 0.959 . S
H844 C845 0.961 . S
C845 C835 1.510 . S
C845 H843 0.959 . S
C845 H844 0.961 . S
C845 H846 0.960 . S
H846 C845 0.960 . S
H847 N827 0.862 . S
O848 Co816 1.920 . S
O848 C821 1.289 . S
C849 O841 1.258 . S
C849 O842 1.266 . S
Co850 O853 1.970 . S
Co850 N867 1.989 . S
Co850 O875 1.967 . S
Co850 O882 1.920 . S
Co851 O854 1.966 . S
Co851 N860 2.022 . S
Co851 N868 1.993 . S
Co851 O876 1.941 . S
C852 O853 1.258 . S
C852 O854 1.263 . S
O853 Co850 1.970 . S
O853 C852 1.258 . S
O854 Co851 1.966 . S
O854 C852 1.263 . S
C855 O856 1.235 . S
C855 O882 1.289 . S
O856 C855 1.235 . S
C857 C859 1.400 . S
C857 N860 1.351 . S
C857 C862 1.501 . S
C858 C859 1.387 . S
C858 N861 1.341 . S
C859 C857 1.400 . S
C859 C858 1.387 . S
N860 Co851 2.022 . S
N860 C857 1.351 . S
N860 N861 1.365 . S
N861 C858 1.341 . S
N861 N860 1.365 . S
N861 H881 0.862 . S
C862 C857 1.501 . S
C862 H863 0.961 . S
C862 H864 0.961 . S
C862 H865 0.960 . S
H863 C862 0.961 . S
H864 C862 0.961 . S
H865 C862 0.960 . S
C866 N867 1.342 . S
C866 C870 1.401 . S
C866 C871 1.499 . S
N867 Co850 1.989 . S
N867 C866 1.342 . S
N867 N868 1.388 . S
N868 Co851 1.993 . S
N868 N867 1.388 . S
N868 C869 1.346 . S
C869 N868 1.346 . S
C869 C870 1.396 . S
C869 C879 1.510 . S
C870 C866 1.401 . S
C870 C869 1.396 . S
C871 C866 1.499 . S
C871 H872 0.959 . S
C871 H873 0.960 . S
C871 H874 0.961 . S
H872 C871 0.959 . S
H873 C871 0.960 . S
H874 C871 0.961 . S
O875 Co850 1.967 . S
O875 C883 1.258 . S
O876 Co851 1.941 . S
O876 C883 1.266 . S
H877 C879 0.959 . S
H878 C879 0.961 . S
C879 C869 1.510 . S
C879 H877 0.959 . S
C879 H878 0.961 . S
C879 H880 0.960 . S
H880 C879 0.960 . S
H881 N861 0.862 . S
O882 Co850 1.920 . S
O882 C855 1.289 . S
C883 O875 1.258 . S
C883 O876 1.266 . S
Co884 O887 1.970 . S
Co884 N901 1.989 . S
Co884 O909 1.967 . S
Co884 O916 1.920 . S
Co885 O888 1.966 . S
Co885 N894 2.022 . S
Co885 N902 1.993 . S
Co885 O910 1.941 . S
C886 O887 1.258 . S
C886 O888 1.263 . S
O887 Co884 1.970 . S
O887 C886 1.258 . S
O888 Co885 1.966 . S
O888 C886 1.263 . S
C889 O890 1.235 . S
C889 O916 1.289 . S
O890 C889 1.235 . S
C891 C893 1.400 . S
C891 N894 1.351 . S
C891 C896 1.501 . S
C892 C893 1.387 . S
C892 N895 1.341 . S
C893 C891 1.400 . S
C893 C892 1.387 . S
N894 Co885 2.022 . S
N894 C891 1.351 . S
N894 N895 1.365 . S
N895 C892 1.341 . S
N895 N894 1.365 . S
N895 H915 0.862 . S
C896 C891 1.501 . S
C896 H897 0.961 . S
C896 H898 0.961 . S
C896 H899 0.960 . S
H897 C896 0.961 . S
H898 C896 0.961 . S
H899 C896 0.960 . S
C900 N901 1.342 . S
C900 C904 1.401 . S
C900 C905 1.499 . S
N901 Co884 1.989 . S
N901 C900 1.342 . S
N901 N902 1.388 . S
N902 Co885 1.993 . S
N902 N901 1.388 . S
N902 C903 1.346 . S
C903 N902 1.346 . S
C903 C904 1.396 . S
C903 C913 1.510 . S
C904 C900 1.401 . S
C904 C903 1.396 . S
C905 C900 1.499 . S
C905 H906 0.959 . S
C905 H907 0.960 . S
C905 H908 0.961 . S
H906 C905 0.959 . S
H907 C905 0.960 . S
H908 C905 0.961 . S
O909 Co884 1.967 . S
O909 C917 1.258 . S
O910 Co885 1.941 . S
O910 C917 1.266 . S
H911 C913 0.959 . S
H912 C913 0.961 . S
C913 C903 1.510 . S
C913 H911 0.959 . S
C913 H912 0.961 . S
C913 H914 0.960 . S
H914 C913 0.960 . S
H915 N895 0.862 . S
O916 Co884 1.920 . S
O916 C889 1.289 . S
C917 O909 1.258 . S
C917 O910 1.266 . S
Co918 O921 1.970 . S
Co918 N935 1.989 . S
Co918 O943 1.967 . S
Co918 O950 1.920 . S
Co919 O922 1.966 . S
Co919 N928 2.022 . S
Co919 N936 1.993 . S
Co919 O944 1.941 . S
C920 O921 1.258 . S
C920 O922 1.263 . S
O921 Co918 1.970 . S
O921 C920 1.258 . S
O922 Co919 1.966 . S
O922 C920 1.263 . S
C923 O924 1.235 . S
C923 O950 1.289 . S
O924 C923 1.235 . S
C925 C927 1.400 . S
C925 N928 1.351 . S
C925 C930 1.501 . S
C926 C927 1.387 . S
C926 N929 1.341 . S
C927 C925 1.400 . S
C927 C926 1.387 . S
N928 Co919 2.022 . S
N928 C925 1.351 . S
N928 N929 1.365 . S
N929 C926 1.341 . S
N929 N928 1.365 . S
N929 H949 0.862 . S
C930 C925 1.501 . S
C930 H931 0.961 . S
C930 H932 0.961 . S
C930 H933 0.960 . S
H931 C930 0.961 . S
H932 C930 0.961 . S
H933 C930 0.960 . S
C934 N935 1.342 . S
C934 C938 1.401 . S
C934 C939 1.499 . S
N935 Co918 1.989 . S
N935 C934 1.342 . S
N935 N936 1.388 . S
N936 Co919 1.993 . S
N936 N935 1.388 . S
N936 C937 1.346 . S
C937 N936 1.346 . S
C937 C938 1.396 . S
C937 C947 1.510 . S
C938 C934 1.401 . S
C938 C937 1.396 . S
C939 C934 1.499 . S
C939 H940 0.959 . S
C939 H941 0.960 . S
C939 H942 0.961 . S
H940 C939 0.959 . S
H941 C939 0.960 . S
H942 C939 0.961 . S
O943 Co918 1.967 . S
O943 C951 1.258 . S
O944 Co919 1.941 . S
O944 C951 1.266 . S
H945 C947 0.959 . S
H946 C947 0.961 . S
C947 C937 1.510 . S
C947 H945 0.959 . S
C947 H946 0.961 . S
C947 H948 0.960 . S
H948 C947 0.960 . S
H949 N929 0.862 . S
O950 Co918 1.920 . S
O950 C923 1.289 . S
C951 O943 1.258 . S
C951 O944 1.266 . S
Co952 O955 1.970 . S
Co952 N969 1.989 . S
Co952 O977 1.967 . S
Co952 O984 1.920 . S
Co953 O956 1.966 . S
Co953 N962 2.022 . S
Co953 N970 1.993 . S
Co953 O978 1.941 . S
C954 O955 1.258 . S
C954 O956 1.263 . S
O955 Co952 1.970 . S
O955 C954 1.258 . S
O956 Co953 1.966 . S
O956 C954 1.263 . S
C957 O958 1.235 . S
C957 O984 1.289 . S
O958 C957 1.235 . S
C959 C961 1.400 . S
C959 N962 1.351 . S
C959 C964 1.501 . S
C960 C961 1.387 . S
C960 N963 1.341 . S
C961 C959 1.400 . S
C961 C960 1.387 . S
N962 Co953 2.022 . S
N962 C959 1.351 . S
N962 N963 1.365 . S
N963 C960 1.341 . S
N963 N962 1.365 . S
N963 H983 0.862 . S
C964 C959 1.501 . S
C964 H965 0.961 . S
C964 H966 0.961 . S
C964 H967 0.960 . S
H965 C964 0.961 . S
H966 C964 0.961 . S
H967 C964 0.960 . S
C968 N969 1.342 . S
C968 C972 1.401 . S
C968 C973 1.499 . S
N969 Co952 1.989 . S
N969 C968 1.342 . S
N969 N970 1.388 . S
N970 Co953 1.993 . S
N970 N969 1.388 . S
N970 C971 1.346 . S
C971 N970 1.346 . S
C971 C972 1.396 . S
C971 C981 1.510 . S
C972 C968 1.401 . S
C972 C971 1.396 . S
C973 C968 1.499 . S
C973 H974 0.959 . S
C973 H975 0.960 . S
C973 H976 0.961 . S
H974 C973 0.959 . S
H975 C973 0.960 . S
H976 C973 0.961 . S
O977 Co952 1.967 . S
O977 C985 1.258 . S
O978 Co953 1.941 . S
O978 C985 1.266 . S
H979 C981 0.959 . S
H980 C981 0.961 . S
C981 C971 1.510 . S
C981 H979 0.959 . S
C981 H980 0.961 . S
C981 H982 0.960 . S
H982 C981 0.960 . S
H983 N963 0.862 . S
O984 Co952 1.920 . S
O984 C957 1.289 . S
C985 O977 1.258 . S
C985 O978 1.266 . S
Co986 O989 1.970 . S
Co986 N1003 1.989 . S
Co986 O1011 1.967 . S
Co986 O1018 1.920 . S
Co987 O990 1.966 . S
Co987 N996 2.022 . S
Co987 N1004 1.993 . S
Co987 O1012 1.941 . S
C988 O989 1.258 . S
C988 O990 1.263 . S
O989 Co986 1.970 . S
O989 C988 1.258 . S
O990 Co987 1.966 . S
O990 C988 1.263 . S
C991 O992 1.235 . S
C991 O1018 1.289 . S
O992 C991 1.235 . S
C993 C995 1.400 . S
C993 N996 1.351 . S
C993 C998 1.501 . S
C994 C995 1.387 . S
C994 N997 1.341 . S
C995 C993 1.400 . S
C995 C994 1.387 . S
N996 Co987 2.022 . S
N996 C993 1.351 . S
N996 N997 1.365 . S
N997 C994 1.341 . S
N997 N996 1.365 . S
N997 H1017 0.862 . S
C998 C993 1.501 . S
C998 H999 0.961 . S
C998 H1000 0.961 . S
C998 H1001 0.960 . S
H999 C998 0.961 . S
H1000 C998 0.961 . S
H1001 C998 0.960 . S
C1002 N1003 1.342 . S
C1002 C1006 1.401 . S
C1002 C1007 1.499 . S
N1003 Co986 1.989 . S
N1003 C1002 1.342 . S
N1003 N1004 1.388 . S
N1004 Co987 1.993 . S
N1004 N1003 1.388 . S
N1004 C1005 1.346 . S
C1005 N1004 1.346 . S
C1005 C1006 1.396 . S
C1005 C1015 1.510 . S
C1006 C1002 1.401 . S
C1006 C1005 1.396 . S
C1007 C1002 1.499 . S
C1007 H1008 0.959 . S
C1007 H1009 0.960 . S
C1007 H1010 0.961 . S
H1008 C1007 0.959 . S
H1009 C1007 0.960 . S
H1010 C1007 0.961 . S
O1011 Co986 1.967 . S
O1011 C1019 1.258 . S
O1012 Co987 1.941 . S
O1012 C1019 1.266 . S
H1013 C1015 0.959 . S
H1014 C1015 0.961 . S
C1015 C1005 1.510 . S
C1015 H1013 0.959 . S
C1015 H1014 0.961 . S
C1015 H1016 0.960 . S
H1016 C1015 0.960 . S
H1017 N997 0.862 . S
O1018 Co986 1.920 . S
O1018 C991 1.289 . S
C1019 O1011 1.258 . S
C1019 O1012 1.266 . S
Co1020 O1023 1.970 . S
Co1020 N1037 1.989 . S
Co1020 O1045 1.967 . S
Co1020 O1052 1.920 . S
Co1021 O1024 1.966 . S
Co1021 N1030 2.022 . S
Co1021 N1038 1.993 . S
Co1021 O1046 1.941 . S
C1022 O1023 1.258 . S
C1022 O1024 1.263 . S
O1023 Co1020 1.970 . S
O1023 C1022 1.258 . S
O1024 Co1021 1.966 . S
O1024 C1022 1.263 . S
C1025 O1026 1.235 . S
C1025 O1052 1.289 . S
O1026 C1025 1.235 . S
C1027 C1029 1.400 . S
C1027 N1030 1.351 . S
C1027 C1032 1.501 . S
C1028 C1029 1.387 . S
C1028 N1031 1.341 . S
C1029 C1027 1.400 . S
C1029 C1028 1.387 . S
N1030 Co1021 2.022 . S
N1030 C1027 1.351 . S
N1030 N1031 1.365 . S
N1031 C1028 1.341 . S
N1031 N1030 1.365 . S
N1031 H1051 0.862 . S
C1032 C1027 1.501 . S
C1032 H1033 0.961 . S
C1032 H1034 0.961 . S
C1032 H1035 0.960 . S
H1033 C1032 0.961 . S
H1034 C1032 0.961 . S
H1035 C1032 0.960 . S
C1036 N1037 1.342 . S
C1036 C1040 1.401 . S
C1036 C1041 1.499 . S
N1037 Co1020 1.989 . S
N1037 C1036 1.342 . S
N1037 N1038 1.388 . S
N1038 Co1021 1.993 . S
N1038 N1037 1.388 . S
N1038 C1039 1.346 . S
C1039 N1038 1.346 . S
C1039 C1040 1.396 . S
C1039 C1049 1.510 . S
C1040 C1036 1.401 . S
C1040 C1039 1.396 . S
C1041 C1036 1.499 . S
C1041 H1042 0.959 . S
C1041 H1043 0.960 . S
C1041 H1044 0.961 . S
H1042 C1041 0.959 . S
H1043 C1041 0.960 . S
H1044 C1041 0.961 . S
O1045 Co1020 1.967 . S
O1045 C1053 1.258 . S
O1046 Co1021 1.941 . S
O1046 C1053 1.266 . S
H1047 C1049 0.959 . S
H1048 C1049 0.961 . S
C1049 C1039 1.510 . S
C1049 H1047 0.959 . S
C1049 H1048 0.961 . S
C1049 H1050 0.960 . S
H1050 C1049 0.960 . S
H1051 N1031 0.862 . S
O1052 Co1020 1.920 . S
O1052 C1025 1.289 . S
C1053 O1045 1.258 . S
C1053 O1046 1.266 . S
Co1054 O1057 1.970 . S
Co1054 N1071 1.989 . S
Co1054 O1079 1.967 . S
Co1054 O1086 1.920 . S
Co1055 O1058 1.966 . S
Co1055 N1064 2.022 . S
Co1055 N1072 1.993 . S
Co1055 O1080 1.941 . S
C1056 O1057 1.258 . S
C1056 O1058 1.263 . S
O1057 Co1054 1.970 . S
O1057 C1056 1.258 . S
O1058 Co1055 1.966 . S
O1058 C1056 1.263 . S
C1059 O1060 1.235 . S
C1059 O1086 1.289 . S
O1060 C1059 1.235 . S
C1061 C1063 1.400 . S
C1061 N1064 1.351 . S
C1061 C1066 1.501 . S
C1062 C1063 1.387 . S
C1062 N1065 1.341 . S
C1063 C1061 1.400 . S
C1063 C1062 1.387 . S
N1064 Co1055 2.022 . S
N1064 C1061 1.351 . S
N1064 N1065 1.365 . S
N1065 C1062 1.341 . S
N1065 N1064 1.365 . S
N1065 H1085 0.862 . S
C1066 C1061 1.501 . S
C1066 H1067 0.961 . S
C1066 H1068 0.961 . S
C1066 H1069 0.960 . S
H1067 C1066 0.961 . S
H1068 C1066 0.961 . S
H1069 C1066 0.960 . S
C1070 N1071 1.342 . S
C1070 C1074 1.401 . S
C1070 C1075 1.499 . S
N1071 Co1054 1.989 . S
N1071 C1070 1.342 . S
N1071 N1072 1.388 . S
N1072 Co1055 1.993 . S
N1072 N1071 1.388 . S
N1072 C1073 1.346 . S
C1073 N1072 1.346 . S
C1073 C1074 1.396 . S
C1073 C1083 1.510 . S
C1074 C1070 1.401 . S
C1074 C1073 1.396 . S
C1075 C1070 1.499 . S
C1075 H1076 0.959 . S
C1075 H1077 0.960 . S
C1075 H1078 0.961 . S
H1076 C1075 0.959 . S
H1077 C1075 0.960 . S
H1078 C1075 0.961 . S
O1079 Co1054 1.967 . S
O1079 C1087 1.258 . S
O1080 Co1055 1.941 . S
O1080 C1087 1.266 . S
H1081 C1083 0.959 . S
H1082 C1083 0.961 . S
C1083 C1073 1.510 . S
C1083 H1081 0.959 . S
C1083 H1082 0.961 . S
C1083 H1084 0.960 . S
H1084 C1083 0.960 . S
H1085 N1065 0.862 . S
O1086 Co1054 1.920 . S
O1086 C1059 1.289 . S
C1087 O1079 1.258 . S
C1087 O1080 1.266 . S
H1088 C1096 0.950 . S
H1089 C1101 0.950 . S
H1090 C1098 0.950 . S
H1091 C1100 0.950 . S
H1092 C1102 0.950 . S
H1093 C1104 0.950 . S
H1094 C1106 0.950 . S
H1095 C1107 0.950 . S
C1096 H1088 0.950 . S
C1096 C1097 1.386 . S
C1096 C1098 1.391 . S
C1097 C1096 1.386 . S
C1097 C1101 1.393 . S
C1098 H1090 0.950 . S
C1098 C1096 1.391 . S
C1098 C1099 1.400 . S
C1099 C1098 1.400 . S
C1099 C1100 1.398 . S
C1099 C1105 1.491 . S
C1100 H1091 0.950 . S
C1100 C1099 1.398 . S
C1100 C1101 1.391 . S
C1101 H1089 0.950 . S
C1101 C1097 1.393 . S
C1101 C1100 1.391 . S
C1102 H1092 0.950 . S
C1102 C1103 1.386 . S
C1102 C1104 1.391 . S
C1103 C1102 1.386 . S
C1103 C1107 1.393 . S
C1104 H1093 0.950 . S
C1104 C1102 1.391 . S
C1104 C1105 1.400 . S
C1105 C1099 1.491 . S
C1105 C1104 1.400 . S
C1105 C1106 1.398 . S
C1106 H1094 0.950 . S
C1106 C1105 1.398 . S
C1106 C1107 1.391 . S
C1107 H1095 0.950 . S
C1107 C1103 1.393 . S
C1107 C1106 1.391 . S
H1108 C1116 0.950 . S
H1109 C1121 0.950 . S
H1110 C1118 0.950 . S
H1111 C1120 0.950 . S
H1112 C1122 0.950 . S
H1113 C1124 0.950 . S
H1114 C1126 0.950 . S
H1115 C1127 0.950 . S
C1116 H1108 0.950 . S
C1116 C1117 1.386 . S
C1116 C1118 1.391 1_655 S
C1117 C1116 1.386 . S
C1117 C1121 1.393 1_655 S
C1118 H1110 0.950 . S
C1118 C1116 1.391 1_455 S
C1118 C1119 1.400 . S
C1119 C1118 1.400 . S
C1119 C1120 1.398 . S
C1119 C1125 1.491 . S
C1120 H1111 0.950 . S
C1120 C1119 1.398 . S
C1120 C1121 1.391 . S
C1121 H1109 0.950 . S
C1121 C1117 1.393 1_455 S
C1121 C1120 1.391 . S
C1122 H1112 0.950 . S
C1122 C1123 1.386 . S
C1122 C1124 1.391 . S
C1123 C1122 1.386 . S
C1123 C1127 1.393 . S
C1124 H1113 0.950 . S
C1124 C1122 1.391 . S
C1124 C1125 1.400 . S
C1125 C1119 1.491 . S
C1125 C1124 1.400 . S
C1125 C1126 1.398 . S
C1126 H1114 0.950 . S
C1126 C1125 1.398 . S
C1126 C1127 1.391 . S
C1127 H1115 0.950 . S
C1127 C1123 1.393 . S
C1127 C1126 1.391 . S
H1128 C1136 0.950 . S
H1129 C1141 0.950 . S
H1130 C1138 0.950 . S
H1131 C1140 0.950 . S
H1132 C1142 0.950 . S
H1133 C1144 0.950 . S
H1134 C1146 0.950 . S
H1135 C1147 0.950 . S
C1136 H1128 0.950 . S
C1136 C1137 1.386 . S
C1136 C1138 1.391 . S
C1137 C1136 1.386 . S
C1137 C1141 1.393 . S
C1138 H1130 0.950 . S
C1138 C1136 1.391 . S
C1138 C1139 1.400 . S
C1139 C1138 1.400 . S
C1139 C1140 1.398 . S
C1139 C1145 1.491 . S
C1140 H1131 0.950 . S
C1140 C1139 1.398 . S
C1140 C1141 1.391 . S
C1141 H1129 0.950 . S
C1141 C1137 1.393 . S
C1141 C1140 1.391 . S
C1142 H1132 0.950 . S
C1142 C1143 1.386 . S
C1142 C1144 1.391 . S
C1143 C1142 1.386 . S
C1143 C1147 1.393 . S
C1144 H1133 0.950 . S
C1144 C1142 1.391 . S
C1144 C1145 1.400 . S
C1145 C1139 1.491 . S
C1145 C1144 1.400 . S
C1145 C1146 1.398 . S
C1146 H1134 0.950 . S
C1146 C1145 1.398 . S
C1146 C1147 1.391 . S
C1147 H1135 0.950 . S
C1147 C1143 1.393 . S
C1147 C1146 1.391 . S
H1148 C1156 0.950 . S
H1149 C1161 0.950 . S
H1150 C1158 0.950 . S
H1151 C1160 0.950 . S
H1152 C1162 0.950 . S
H1153 C1164 0.950 . S
H1154 C1166 0.950 . S
H1155 C1167 0.950 . S
C1156 H1148 0.950 . S
C1156 C1157 1.386 . S
C1156 C1158 1.391 . S
C1157 C1156 1.386 . S
C1157 C1161 1.393 . S
C1158 H1150 0.950 . S
C1158 C1156 1.391 . S
C1158 C1159 1.400 . S
C1159 C1158 1.400 . S
C1159 C1160 1.398 . S
C1159 C1165 1.491 . S
C1160 H1151 0.950 . S
C1160 C1159 1.398 . S
C1160 C1161 1.391 . S
C1161 H1149 0.950 . S
C1161 C1157 1.393 . S
C1161 C1160 1.391 . S
C1162 H1152 0.950 . S
C1162 C1163 1.386 . S
C1162 C1164 1.391 . S
C1163 C1162 1.386 . S
C1163 C1167 1.393 . S
C1164 H1153 0.950 . S
C1164 C1162 1.391 . S
C1164 C1165 1.400 . S
C1165 C1159 1.491 . S
C1165 C1164 1.400 . S
C1165 C1166 1.398 . S
C1166 H1154 0.950 . S
C1166 C1165 1.398 . S
C1166 C1167 1.391 . S
C1167 H1155 0.950 . S
C1167 C1163 1.393 . S
C1167 C1166 1.391 . S
H1168 C1176 0.950 . S
H1169 C1181 0.950 . S
H1170 C1178 0.950 . S
H1171 C1180 0.950 . S
H1172 C1182 0.950 . S
H1173 C1184 0.950 . S
H1174 C1186 0.950 . S
H1175 C1187 0.950 . S
C1176 H1168 0.950 . S
C1176 C1177 1.386 . S
C1176 C1178 1.391 . S
C1177 C1176 1.386 . S
C1177 C1181 1.393 . S
C1178 H1170 0.950 . S
C1178 C1176 1.391 . S
C1178 C1179 1.400 . S
C1179 C1178 1.400 . S
C1179 C1180 1.398 . S
C1179 C1185 1.491 . S
C1180 H1171 0.950 . S
C1180 C1179 1.398 . S
C1180 C1181 1.391 . S
C1181 H1169 0.950 . S
C1181 C1177 1.393 . S
C1181 C1180 1.391 . S
C1182 H1172 0.950 . S
C1182 C1183 1.386 . S
C1182 C1184 1.391 . S
C1183 C1182 1.386 . S
C1183 C1187 1.393 . S
C1184 H1173 0.950 . S
C1184 C1182 1.391 . S
C1184 C1185 1.400 . S
C1185 C1179 1.491 . S
C1185 C1184 1.400 . S
C1185 C1186 1.398 . S
C1186 H1174 0.950 . S
C1186 C1185 1.398 . S
C1186 C1187 1.391 . S
C1187 H1175 0.950 . S
C1187 C1183 1.393 . S
C1187 C1186 1.391 . S
H1188 C1196 0.950 . S
H1189 C1201 0.950 . S
H1190 C1198 0.950 . S
H1191 C1200 0.950 . S
H1192 C1202 0.950 . S
H1193 C1204 0.950 . S
H1194 C1206 0.950 . S
H1195 C1207 0.950 . S
C1196 H1188 0.950 . S
C1196 C1197 1.386 . S
C1196 C1198 1.391 . S
C1197 C1196 1.386 . S
C1197 C1201 1.393 . S
C1198 H1190 0.950 . S
C1198 C1196 1.391 . S
C1198 C1199 1.400 . S
C1199 C1198 1.400 . S
C1199 C1200 1.398 . S
C1199 C1205 1.491 . S
C1200 H1191 0.950 . S
C1200 C1199 1.398 . S
C1200 C1201 1.391 . S
C1201 H1189 0.950 . S
C1201 C1197 1.393 . S
C1201 C1200 1.391 . S
C1202 H1192 0.950 . S
C1202 C1203 1.386 . S
C1202 C1204 1.391 . S
C1203 C1202 1.386 . S
C1203 C1207 1.393 . S
C1204 H1193 0.950 . S
C1204 C1202 1.391 . S
C1204 C1205 1.400 . S
C1205 C1199 1.491 . S
C1205 C1204 1.400 . S
C1205 C1206 1.398 . S
C1206 H1194 0.950 . S
C1206 C1205 1.398 . S
C1206 C1207 1.391 . S
C1207 H1195 0.950 . S
C1207 C1203 1.393 . S
C1207 C1206 1.391 . S
H1208 C1216 0.950 . S
H1209 C1221 0.950 . S
H1210 C1218 0.950 . S
H1211 C1220 0.950 . S
H1212 C1222 0.950 . S
H1213 C1224 0.950 . S
H1214 C1226 0.950 . S
H1215 C1227 0.950 . S
C1216 H1208 0.950 . S
C1216 C1217 1.386 . S
C1216 C1218 1.391 . S
C1217 C1216 1.386 . S
C1217 C1221 1.393 . S
C1218 H1210 0.950 . S
C1218 C1216 1.391 . S
C1218 C1219 1.400 . S
C1219 C1218 1.400 . S
C1219 C1220 1.398 . S
C1219 C1225 1.491 . S
C1220 H1211 0.950 . S
C1220 C1219 1.398 . S
C1220 C1221 1.391 . S
C1221 H1209 0.950 . S
C1221 C1217 1.393 . S
C1221 C1220 1.391 . S
C1222 H1212 0.950 . S
C1222 C1223 1.386 . S
C1222 C1224 1.391 . S
C1223 C1222 1.386 . S
C1223 C1227 1.393 . S
C1224 H1213 0.950 . S
C1224 C1222 1.391 . S
C1224 C1225 1.400 . S
C1225 C1219 1.491 . S
C1225 C1224 1.400 . S
C1225 C1226 1.398 . S
C1226 H1214 0.950 . S
C1226 C1225 1.398 . S
C1226 C1227 1.391 . S
C1227 H1215 0.950 . S
C1227 C1223 1.393 . S
C1227 C1226 1.391 . S
H1228 C1236 0.950 . S
H1229 C1241 0.950 . S
H1230 C1238 0.950 . S
H1231 C1240 0.950 . S
H1232 C1242 0.950 . S
H1233 C1244 0.950 . S
H1234 C1246 0.950 . S
H1235 C1247 0.950 . S
C1236 H1228 0.950 . S
C1236 C1237 1.386 . S
C1236 C1238 1.391 . S
C1237 C1236 1.386 . S
C1237 C1241 1.393 . S
C1238 H1230 0.950 . S
C1238 C1236 1.391 . S
C1238 C1239 1.400 . S
C1239 C1238 1.400 . S
C1239 C1240 1.398 . S
C1239 C1245 1.491 . S
C1240 H1231 0.950 . S
C1240 C1239 1.398 . S
C1240 C1241 1.391 . S
C1241 H1229 0.950 . S
C1241 C1237 1.393 . S
C1241 C1240 1.391 . S
C1242 H1232 0.950 . S
C1242 C1243 1.386 . S
C1242 C1244 1.391 1_655 S
C1243 C1242 1.386 . S
C1243 C1247 1.393 1_655 S
C1244 H1233 0.950 . S
C1244 C1242 1.391 1_455 S
C1244 C1245 1.400 . S
C1245 C1239 1.491 . S
C1245 C1244 1.400 . S
C1245 C1246 1.398 . S
C1246 H1234 0.950 . S
C1246 C1245 1.398 . S
C1246 C1247 1.391 . S
C1247 H1235 0.950 . S
C1247 C1243 1.393 1_455 S
C1247 C1246 1.391 . S
H1248 C1256 0.950 . S
H1249 C1261 0.950 . S
H1250 C1258 0.950 . S
H1251 C1260 0.950 . S
H1252 C1262 0.950 . S
H1253 C1264 0.950 . S
H1254 C1266 0.950 . S
H1255 C1267 0.950 . S
C1256 H1248 0.950 . S
C1256 C1257 1.386 . S
C1256 C1258 1.391 . S
C1257 C1256 1.386 . S
C1257 C1261 1.393 . S
C1258 H1250 0.950 . S
C1258 C1256 1.391 . S
C1258 C1259 1.400 . S
C1259 C1258 1.400 . S
C1259 C1260 1.398 . S
C1259 C1265 1.491 . S
C1260 H1251 0.950 . S
C1260 C1259 1.398 . S
C1260 C1261 1.391 . S
C1261 H1249 0.950 . S
C1261 C1257 1.393 . S
C1261 C1260 1.391 . S
C1262 H1252 0.950 . S
C1262 C1263 1.386 . S
C1262 C1264 1.391 . S
C1263 C1262 1.386 . S
C1263 C1267 1.393 . S
C1264 H1253 0.950 . S
C1264 C1262 1.391 . S
C1264 C1265 1.400 . S
C1265 C1259 1.491 . S
C1265 C1264 1.400 . S
C1265 C1266 1.398 . S
C1266 H1254 0.950 . S
C1266 C1265 1.398 . S
C1266 C1267 1.391 . S
C1267 H1255 0.950 . S
C1267 C1263 1.393 . S
C1267 C1266 1.391 . S
H1268 C1276 0.957 . S
H1269 C1281 0.950 1_455 S
H1270 C1278 0.950 . S
H1271 C1280 0.950 . S
H1272 C1282 0.950 . S
H1273 C1284 0.950 . S
H1274 C1286 0.950 . S
H1275 C1287 0.950 . S
C1276 H1268 0.957 . S
C1276 C1277 1.391 . S
C1276 C1278 1.379 1_455 S
C1277 C1276 1.391 . S
C1277 C1281 1.393 1_455 S
C1278 H1270 0.950 . S
C1278 C1276 1.379 1_655 S
C1278 C1279 1.400 . S
C1279 C1278 1.400 . S
C1279 C1280 1.398 . S
C1279 C1285 1.491 . S
C1280 H1271 0.950 . S
C1280 C1279 1.398 . S
C1280 C1281 1.391 . S
C1281 H1269 0.950 1_655 S
C1281 C1277 1.393 1_655 S
C1281 C1280 1.391 . S
C1282 H1272 0.950 . S
C1282 C1283 1.386 . S
C1282 C1284 1.391 . S
C1283 C1282 1.386 . S
C1283 C1287 1.393 . S
C1284 H1273 0.950 . S
C1284 C1282 1.391 . S
C1284 C1285 1.400 . S
C1285 C1279 1.491 . S
C1285 C1284 1.400 . S
C1285 C1286 1.398 . S
C1286 H1274 0.950 . S
C1286 C1285 1.398 . S
C1286 C1287 1.391 . S
C1287 H1275 0.950 . S
C1287 C1283 1.393 . S
C1287 C1286 1.391 . S
H1288 C1296 0.950 . S
H1289 C1301 0.950 . S
H1290 C1298 0.950 . S
H1291 C1300 0.950 . S
H1292 C1302 0.950 . S
H1293 C1304 0.950 . S
H1294 C1306 0.950 . S
H1295 C1307 0.950 . S
C1296 H1288 0.950 . S
C1296 C1297 1.386 . S
C1296 C1298 1.391 . S
C1297 C1296 1.386 . S
C1297 C1301 1.393 . S
C1298 H1290 0.950 . S
C1298 C1296 1.391 . S
C1298 C1299 1.400 . S
C1299 C1298 1.400 . S
C1299 C1300 1.398 . S
C1299 C1305 1.491 . S
C1300 H1291 0.950 . S
C1300 C1299 1.398 . S
C1300 C1301 1.391 . S
C1301 H1289 0.950 . S
C1301 C1297 1.393 . S
C1301 C1300 1.391 . S
C1302 H1292 0.950 . S
C1302 C1303 1.386 . S
C1302 C1304 1.391 . S
C1303 C1302 1.386 . S
C1303 C1307 1.393 . S
C1304 H1293 0.950 . S
C1304 C1302 1.391 . S
C1304 C1305 1.400 . S
C1305 C1299 1.491 . S
C1305 C1304 1.400 . S
C1305 C1306 1.398 . S
C1306 H1294 0.950 . S
C1306 C1305 1.398 . S
C1306 C1307 1.391 . S
C1307 H1295 0.950 . S
C1307 C1303 1.393 . S
C1307 C1306 1.391 . S
H1308 C1316 0.950 . S
H1309 C1321 0.950 . S
H1310 C1318 0.950 . S
H1311 C1320 0.950 . S
H1312 C1322 0.950 . S
H1313 C1324 0.950 . S
H1314 C1326 0.950 . S
H1315 C1327 0.950 . S
C1316 H1308 0.950 . S
C1316 C1317 1.386 . S
C1316 C1318 1.391 . S
C1317 C1316 1.386 . S
C1317 C1321 1.393 . S
C1318 H1310 0.950 . S
C1318 C1316 1.391 . S
C1318 C1319 1.400 . S
C1319 C1318 1.400 . S
C1319 C1320 1.398 . S
C1319 C1325 1.491 . S
C1320 H1311 0.950 . S
C1320 C1319 1.398 . S
C1320 C1321 1.391 . S
C1321 H1309 0.950 . S
C1321 C1317 1.393 . S
C1321 C1320 1.391 . S
C1322 H1312 0.950 . S
C1322 C1323 1.386 . S
C1322 C1324 1.391 . S
C1323 C1322 1.386 . S
C1323 C1327 1.393 . S
C1324 H1313 0.950 . S
C1324 C1322 1.391 . S
C1324 C1325 1.400 . S
C1325 C1319 1.491 . S
C1325 C1324 1.400 . S
C1325 C1326 1.398 . S
C1326 H1314 0.950 . S
C1326 C1325 1.398 . S
C1326 C1327 1.391 . S
C1327 H1315 0.950 . S
C1327 C1323 1.393 . S
C1327 C1326 1.391 . S
H1328 C1336 0.950 . S
H1329 C1341 0.950 . S
H1330 C1338 0.950 . S
H1331 C1340 0.950 . S
H1332 C1342 0.950 . S
H1333 C1344 0.950 . S
H1334 C1346 0.950 . S
H1335 C1347 0.950 . S
C1336 H1328 0.950 . S
C1336 C1337 1.386 . S
C1336 C1338 1.391 . S
C1337 C1336 1.386 . S
C1337 C1341 1.393 . S
C1338 H1330 0.950 . S
C1338 C1336 1.391 . S
C1338 C1339 1.400 . S
C1339 C1338 1.400 . S
C1339 C1340 1.398 . S
C1339 C1345 1.491 . S
C1340 H1331 0.950 . S
C1340 C1339 1.398 . S
C1340 C1341 1.391 . S
C1341 H1329 0.950 . S
C1341 C1337 1.393 . S
C1341 C1340 1.391 . S
C1342 H1332 0.950 . S
C1342 C1343 1.386 . S
C1342 C1344 1.391 . S
C1343 C1342 1.386 . S
C1343 C1347 1.393 . S
C1344 H1333 0.950 . S
C1344 C1342 1.391 . S
C1344 C1345 1.400 . S
C1345 C1339 1.491 . S
C1345 C1344 1.400 . S
C1345 C1346 1.398 . S
C1346 H1334 0.950 . S
C1346 C1345 1.398 . S
C1346 C1347 1.391 . S
C1347 H1335 0.950 . S
C1347 C1343 1.393 . S
C1347 C1346 1.391 . S
H1348 C1356 0.950 . S
H1349 C1361 0.950 . S
H1350 C1358 0.950 . S
H1351 C1360 0.950 . S
H1352 C1362 0.950 . S
H1353 C1364 0.950 . S
H1354 C1366 0.950 . S
H1355 C1367 0.950 . S
C1356 H1348 0.950 . S
C1356 C1357 1.386 . S
C1356 C1358 1.391 . S
C1357 C1356 1.386 . S
C1357 C1361 1.393 . S
C1358 H1350 0.950 . S
C1358 C1356 1.391 . S
C1358 C1359 1.400 . S
C1359 C1358 1.400 . S
C1359 C1360 1.398 . S
C1359 C1365 1.491 . S
C1360 H1351 0.950 . S
C1360 C1359 1.398 . S
C1360 C1361 1.391 . S
C1361 H1349 0.950 . S
C1361 C1357 1.393 . S
C1361 C1360 1.391 . S
C1362 H1352 0.950 . S
C1362 C1363 1.386 . S
C1362 C1364 1.391 . S
C1363 C1362 1.386 . S
C1363 C1367 1.393 . S
C1364 H1353 0.950 . S
C1364 C1362 1.391 . S
C1364 C1365 1.400 . S
C1365 C1359 1.491 . S
C1365 C1364 1.400 . S
C1365 C1366 1.398 . S
C1366 H1354 0.950 . S
C1366 C1365 1.398 . S
C1366 C1367 1.391 . S
C1367 H1355 0.950 . S
C1367 C1363 1.393 . S
C1367 C1366 1.391 . S
H1368 C1376 0.950 . S
H1369 C1381 0.950 . S
H1370 C1378 0.950 . S
H1371 C1380 0.950 . S
H1372 C1382 0.950 . S
H1373 C1384 0.950 . S
H1374 C1386 0.950 . S
H1375 C1387 0.950 . S
C1376 H1368 0.950 . S
C1376 C1377 1.386 . S
C1376 C1378 1.391 . S
C1377 C1376 1.386 . S
C1377 C1381 1.393 . S
C1378 H1370 0.950 . S
C1378 C1376 1.391 . S
C1378 C1379 1.400 . S
C1379 C1378 1.400 . S
C1379 C1380 1.398 . S
C1379 C1385 1.491 . S
C1380 H1371 0.950 . S
C1380 C1379 1.398 . S
C1380 C1381 1.391 . S
C1381 H1369 0.950 . S
C1381 C1377 1.393 . S
C1381 C1380 1.391 . S
C1382 H1372 0.950 . S
C1382 C1383 1.386 . S
C1382 C1384 1.391 . S
C1383 C1382 1.386 . S
C1383 C1387 1.393 . S
C1384 H1373 0.950 . S
C1384 C1382 1.391 . S
C1384 C1385 1.400 . S
C1385 C1379 1.491 . S
C1385 C1384 1.400 . S
C1385 C1386 1.398 . S
C1386 H1374 0.950 . S
C1386 C1385 1.398 . S
C1386 C1387 1.391 . S
C1387 H1375 0.950 . S
C1387 C1383 1.393 . S
C1387 C1386 1.391 . S
H1388 C1396 0.938 1_455 S
H1389 C1401 0.950 1_455 S
H1390 C1398 0.950 . S
H1391 C1400 0.950 . S
H1392 C1402 0.950 . S
H1393 C1404 0.950 . S
H1394 C1406 0.950 . S
H1395 C1407 0.950 . S
C1396 H1388 0.938 1_655 S
C1396 C1397 1.376 1_655 S
C1396 C1398 1.413 . S
C1397 C1396 1.376 1_455 S
C1397 C1401 1.393 1_455 S
C1398 H1390 0.950 . S
C1398 C1396 1.413 . S
C1398 C1399 1.400 . S
C1399 C1398 1.400 . S
C1399 C1400 1.398 . S
C1399 C1405 1.491 . S
C1400 H1391 0.950 . S
C1400 C1399 1.398 . S
C1400 C1401 1.391 . S
C1401 H1389 0.950 1_655 S
C1401 C1397 1.393 1_655 S
C1401 C1400 1.391 . S
C1402 H1392 0.950 . S
C1402 C1403 1.386 . S
C1402 C1404 1.391 . S
C1403 C1402 1.386 . S
C1403 C1407 1.393 . S
C1404 H1393 0.950 . S
C1404 C1402 1.391 . S
C1404 C1405 1.400 . S
C1405 C1399 1.491 . S
C1405 C1404 1.400 . S
C1405 C1406 1.398 . S
C1406 H1394 0.950 . S
C1406 C1405 1.398 . S
C1406 C1407 1.391 . S
C1407 H1395 0.950 . S
C1407 C1403 1.393 . S
C1407 C1406 1.391 . S
H1408 C1416 0.950 . S
H1409 C1421 0.950 . S
H1410 C1418 0.950 . S
H1411 C1420 0.950 . S
H1412 C1422 0.950 . S
H1413 C1424 0.950 . S
H1414 C1426 0.950 . S
H1415 C1427 0.950 . S
C1416 H1408 0.950 . S
C1416 C1417 1.386 . S
C1416 C1418 1.391 . S
C1417 C1416 1.386 . S
C1417 C1421 1.393 . S
C1418 H1410 0.950 . S
C1418 C1416 1.391 . S
C1418 C1419 1.400 . S
C1419 C1418 1.400 . S
C1419 C1420 1.398 . S
C1419 C1425 1.491 . S
C1420 H1411 0.950 . S
C1420 C1419 1.398 . S
C1420 C1421 1.391 . S
C1421 H1409 0.950 . S
C1421 C1417 1.393 . S
C1421 C1420 1.391 . S
C1422 H1412 0.950 . S
C1422 C1423 1.386 . S
C1422 C1424 1.391 . S
C1423 C1422 1.386 . S
C1423 C1427 1.393 . S
C1424 H1413 0.950 . S
C1424 C1422 1.391 . S
C1424 C1425 1.400 . S
C1425 C1419 1.491 . S
C1425 C1424 1.400 . S
C1425 C1426 1.398 . S
C1426 H1414 0.950 . S
C1426 C1425 1.398 . S
C1426 C1427 1.391 . S
C1427 H1415 0.950 . S
C1427 C1423 1.393 . S
C1427 C1426 1.391 . S
H1428 C1436 0.950 . S
H1429 C1441 0.950 . S
H1430 C1438 0.950 . S
H1431 C1440 0.950 . S
H1432 C1442 0.950 . S
H1433 C1444 0.950 . S
H1434 C1446 0.950 . S
H1435 C1447 0.950 . S
C1436 H1428 0.950 . S
C1436 C1437 1.386 . S
C1436 C1438 1.391 . S
C1437 C1436 1.386 . S
C1437 C1441 1.393 . S
C1438 H1430 0.950 . S
C1438 C1436 1.391 . S
C1438 C1439 1.400 . S
C1439 C1438 1.400 . S
C1439 C1440 1.398 . S
C1439 C1445 1.491 . S
C1440 H1431 0.950 . S
C1440 C1439 1.398 . S
C1440 C1441 1.391 . S
C1441 H1429 0.950 . S
C1441 C1437 1.393 . S
C1441 C1440 1.391 . S
C1442 H1432 0.950 . S
C1442 C1443 1.386 . S
C1442 C1444 1.391 . S
C1443 C1442 1.386 . S
C1443 C1447 1.393 . S
C1444 H1433 0.950 . S
C1444 C1442 1.391 . S
C1444 C1445 1.400 . S
C1445 C1439 1.491 . S
C1445 C1444 1.400 . S
C1445 C1446 1.398 . S
C1446 H1434 0.950 . S
C1446 C1445 1.398 . S
C1446 C1447 1.391 . S
C1447 H1435 0.950 . S
C1447 C1443 1.393 . S
C1447 C1446 1.391 . S
H1448 C1456 0.950 . S
H1449 C1461 0.950 . S
H1450 C1458 0.950 . S
H1451 C1460 0.950 . S
H1452 C1462 0.950 . S
H1453 C1464 0.950 . S
H1454 C1466 0.950 . S
H1455 C1467 0.950 . S
C1456 H1448 0.950 . S
C1456 C1457 1.386 . S
C1456 C1458 1.391 . S
C1457 C1456 1.386 . S
C1457 C1461 1.393 . S
C1458 H1450 0.950 . S
C1458 C1456 1.391 . S
C1458 C1459 1.400 . S
C1459 C1458 1.400 . S
C1459 C1460 1.398 . S
C1459 C1465 1.491 . S
C1460 H1451 0.950 . S
C1460 C1459 1.398 . S
C1460 C1461 1.391 . S
C1461 H1449 0.950 . S
C1461 C1457 1.393 . S
C1461 C1460 1.391 . S
C1462 H1452 0.950 . S
C1462 C1463 1.386 . S
C1462 C1464 1.391 . S
C1463 C1462 1.386 . S
C1463 C1467 1.393 . S
C1464 H1453 0.950 . S
C1464 C1462 1.391 . S
C1464 C1465 1.400 . S
C1465 C1459 1.491 . S
C1465 C1464 1.400 . S
C1465 C1466 1.398 . S
C1466 H1454 0.950 . S
C1466 C1465 1.398 . S
C1466 C1467 1.391 . S
C1467 H1455 0.950 . S
C1467 C1463 1.393 . S
C1467 C1466 1.391 . S
H1468 C1476 0.950 . S
H1469 C1481 0.950 . S
H1470 C1478 0.950 . S
H1471 C1480 0.950 . S
H1472 C1482 0.950 . S
H1473 C1484 0.950 . S
H1474 C1486 0.950 . S
H1475 C1487 0.950 . S
C1476 H1468 0.950 . S
C1476 C1477 1.386 . S
C1476 C1478 1.391 . S
C1477 C1476 1.386 . S
C1477 C1481 1.393 . S
C1478 H1470 0.950 . S
C1478 C1476 1.391 . S
C1478 C1479 1.400 . S
C1479 C1478 1.400 . S
C1479 C1480 1.398 . S
C1479 C1485 1.491 . S
C1480 H1471 0.950 . S
C1480 C1479 1.398 . S
C1480 C1481 1.391 . S
C1481 H1469 0.950 . S
C1481 C1477 1.393 . S
C1481 C1480 1.391 . S
C1482 H1472 0.950 . S
C1482 C1483 1.386 1_655 S
C1482 C1484 1.391 . S
C1483 C1482 1.386 1_455 S
C1483 C1487 1.393 . S
C1484 H1473 0.950 . S
C1484 C1482 1.391 . S
C1484 C1485 1.400 . S
C1485 C1479 1.491 . S
C1485 C1484 1.400 . S
C1485 C1486 1.398 . S
C1486 H1474 0.950 . S
C1486 C1485 1.398 . S
C1486 C1487 1.391 1_655 S
C1487 H1475 0.950 . S
C1487 C1483 1.393 . S
C1487 C1486 1.391 1_455 S
H1488 C1496 0.950 . S
H1489 C1501 0.950 . S
H1490 C1498 0.950 . S
H1491 C1500 0.950 . S
H1492 C1502 0.950 . S
H1493 C1504 0.950 . S
H1494 C1506 0.950 . S
H1495 C1507 0.950 . S
C1496 H1488 0.950 . S
C1496 C1497 1.386 . S
C1496 C1498 1.391 . S
C1497 C1496 1.386 . S
C1497 C1501 1.393 . S
C1498 H1490 0.950 . S
C1498 C1496 1.391 . S
C1498 C1499 1.400 . S
C1499 C1498 1.400 . S
C1499 C1500 1.398 . S
C1499 C1505 1.491 . S
C1500 H1491 0.950 . S
C1500 C1499 1.398 . S
C1500 C1501 1.391 . S
C1501 H1489 0.950 . S
C1501 C1497 1.393 . S
C1501 C1500 1.391 . S
C1502 H1492 0.950 . S
C1502 C1503 1.386 . S
C1502 C1504 1.391 . S
C1503 C1502 1.386 . S
C1503 C1507 1.393 . S
C1504 H1493 0.950 . S
C1504 C1502 1.391 . S
C1504 C1505 1.400 . S
C1505 C1499 1.491 . S
C1505 C1504 1.400 . S
C1505 C1506 1.398 . S
C1506 H1494 0.950 . S
C1506 C1505 1.398 . S
C1506 C1507 1.391 . S
C1507 H1495 0.950 . S
C1507 C1503 1.393 . S
C1507 C1506 1.391 . S
H1508 C1516 0.950 . S
H1509 C1521 0.950 . S
H1510 C1518 0.950 . S
H1511 C1520 0.950 . S
H1512 C1522 0.950 . S
H1513 C1524 0.950 . S
H1514 C1526 0.950 . S
H1515 C1527 0.950 . S
C1516 H1508 0.950 . S
C1516 C1517 1.386 1_655 S
C1516 C1518 1.391 . S
C1517 C1516 1.386 1_455 S
C1517 C1521 1.393 . S
C1518 H1510 0.950 . S
C1518 C1516 1.391 . S
C1518 C1519 1.400 . S
C1519 C1518 1.400 . S
C1519 C1520 1.398 . S
C1519 C1525 1.491 . S
C1520 H1511 0.950 . S
C1520 C1519 1.398 . S
C1520 C1521 1.391 1_655 S
C1521 H1509 0.950 . S
C1521 C1517 1.393 . S
C1521 C1520 1.391 1_455 S
C1522 H1512 0.950 . S
C1522 C1523 1.386 . S
C1522 C1524 1.391 . S
C1523 C1522 1.386 . S
C1523 C1527 1.393 . S
C1524 H1513 0.950 . S
C1524 C1522 1.391 . S
C1524 C1525 1.400 . S
C1525 C1519 1.491 . S
C1525 C1524 1.400 . S
C1525 C1526 1.398 . S
C1526 H1514 0.950 . S
C1526 C1525 1.398 . S
C1526 C1527 1.391 . S
C1527 H1515 0.950 . S
C1527 C1523 1.393 . S
C1527 C1526 1.391 . S
H1528 C1536 0.950 . S
H1529 C1541 0.950 . S
H1530 C1538 0.950 . S
H1531 C1540 0.950 . S
H1532 C1542 0.950 . S
H1533 C1544 0.950 . S
H1534 C1546 0.950 . S
H1535 C1547 0.950 . S
C1536 H1528 0.950 . S
C1536 C1537 1.386 . S
C1536 C1538 1.391 . S
C1537 C1536 1.386 . S
C1537 C1541 1.393 . S
C1538 H1530 0.950 . S
C1538 C1536 1.391 . S
C1538 C1539 1.400 . S
C1539 C1538 1.400 . S
C1539 C1540 1.398 . S
C1539 C1545 1.491 . S
C1540 H1531 0.950 . S
C1540 C1539 1.398 . S
C1540 C1541 1.391 . S
C1541 H1529 0.950 . S
C1541 C1537 1.393 . S
C1541 C1540 1.391 . S
C1542 H1532 0.950 . S
C1542 C1543 1.386 . S
C1542 C1544 1.391 . S
C1543 C1542 1.386 . S
C1543 C1547 1.393 . S
C1544 H1533 0.950 . S
C1544 C1542 1.391 . S
C1544 C1545 1.400 . S
C1545 C1539 1.491 . S
C1545 C1544 1.400 . S
C1545 C1546 1.398 . S
C1546 H1534 0.950 . S
C1546 C1545 1.398 . S
C1546 C1547 1.391 . S
C1547 H1535 0.950 . S
C1547 C1543 1.393 . S
C1547 C1546 1.391 . S
H1548 C1556 0.950 . S
H1549 C1561 0.950 . S
H1550 C1558 0.950 . S
H1551 C1560 0.950 . S
H1552 C1562 0.950 . S
H1553 C1564 0.950 . S
H1554 C1566 0.950 . S
H1555 C1567 0.950 . S
C1556 H1548 0.950 . S
C1556 C1557 1.386 . S
C1556 C1558 1.391 . S
C1557 C1556 1.386 . S
C1557 C1561 1.393 . S
C1558 H1550 0.950 . S
C1558 C1556 1.391 . S
C1558 C1559 1.400 . S
C1559 C1558 1.400 . S
C1559 C1560 1.398 . S
C1559 C1565 1.491 . S
C1560 H1551 0.950 . S
C1560 C1559 1.398 . S
C1560 C1561 1.391 . S
C1561 H1549 0.950 . S
C1561 C1557 1.393 . S
C1561 C1560 1.391 . S
C1562 H1552 0.950 . S
C1562 C1563 1.386 . S
C1562 C1564 1.391 . S
C1563 C1562 1.386 . S
C1563 C1567 1.393 . S
C1564 H1553 0.950 . S
C1564 C1562 1.391 . S
C1564 C1565 1.400 . S
C1565 C1559 1.491 . S
C1565 C1564 1.400 . S
C1565 C1566 1.398 . S
C1566 H1554 0.950 . S
C1566 C1565 1.398 . S
C1566 C1567 1.391 . S
C1567 H1555 0.950 . S
C1567 C1563 1.393 . S
C1567 C1566 1.391 . S
H1568 C1576 0.950 . S
H1569 C1581 0.950 . S
H1570 C1578 0.950 . S
H1571 C1580 0.950 . S
H1572 C1582 0.950 . S
H1573 C1584 0.950 . S
H1574 C1586 0.950 . S
H1575 C1587 0.950 . S
C1576 H1568 0.950 . S
C1576 C1577 1.386 . S
C1576 C1578 1.391 . S
C1577 C1576 1.386 . S
C1577 C1581 1.393 . S
C1578 H1570 0.950 . S
C1578 C1576 1.391 . S
C1578 C1579 1.400 . S
C1579 C1578 1.400 . S
C1579 C1580 1.398 . S
C1579 C1585 1.491 . S
C1580 H1571 0.950 . S
C1580 C1579 1.398 . S
C1580 C1581 1.391 . S
C1581 H1569 0.950 . S
C1581 C1577 1.393 . S
C1581 C1580 1.391 . S
C1582 H1572 0.950 . S
C1582 C1583 1.386 . S
C1582 C1584 1.391 . S
C1583 C1582 1.386 . S
C1583 C1587 1.393 . S
C1584 H1573 0.950 . S
C1584 C1582 1.391 . S
C1584 C1585 1.400 . S
C1585 C1579 1.491 . S
C1585 C1584 1.400 . S
C1585 C1586 1.398 . S
C1586 H1574 0.950 . S
C1586 C1585 1.398 . S
C1586 C1587 1.391 . S
C1587 H1575 0.950 . S
C1587 C1583 1.393 . S
C1587 C1586 1.391 . S
H1588 C1596 0.950 . S
H1589 C1601 0.950 . S
H1590 C1598 0.950 . S
H1591 C1600 0.950 . S
H1592 C1602 0.950 . S
H1593 C1604 0.950 . S
H1594 C1606 0.950 . S
H1595 C1607 0.950 . S
C1596 H1588 0.950 . S
C1596 C1597 1.386 . S
C1596 C1598 1.391 . S
C1597 C1596 1.386 . S
C1597 C1601 1.393 . S
C1598 H1590 0.950 . S
C1598 C1596 1.391 . S
C1598 C1599 1.400 . S
C1599 C1598 1.400 . S
C1599 C1600 1.398 . S
C1599 C1605 1.491 . S
C1600 H1591 0.950 . S
C1600 C1599 1.398 . S
C1600 C1601 1.391 . S
C1601 H1589 0.950 . S
C1601 C1597 1.393 . S
C1601 C1600 1.391 . S
C1602 H1592 0.950 . S
C1602 C1603 1.386 . S
C1602 C1604 1.391 . S
C1603 C1602 1.386 . S
C1603 C1607 1.393 . S
C1604 H1593 0.950 . S
C1604 C1602 1.391 . S
C1604 C1605 1.400 . S
C1605 C1599 1.491 . S
C1605 C1604 1.400 . S
C1605 C1606 1.398 . S
C1606 H1594 0.950 . S
C1606 C1605 1.398 . S
C1606 C1607 1.391 . S
C1607 H1595 0.950 . S
C1607 C1603 1.393 . S
C1607 C1606 1.391 . S
H1608 C1616 0.950 . S
H1609 C1621 0.950 . S
H1610 C1618 0.950 . S
H1611 C1620 0.950 . S
H1612 C1622 0.950 . S
H1613 C1624 0.950 . S
H1614 C1626 0.950 . S
H1615 C1627 0.950 . S
C1616 H1608 0.950 . S
C1616 C1617 1.386 . S
C1616 C1618 1.391 . S
C1617 C1616 1.386 . S
C1617 C1621 1.393 . S
C1618 H1610 0.950 . S
C1618 C1616 1.391 . S
C1618 C1619 1.400 . S
C1619 C1618 1.400 . S
C1619 C1620 1.398 . S
C1619 C1625 1.491 . S
C1620 H1611 0.950 . S
C1620 C1619 1.398 . S
C1620 C1621 1.391 . S
C1621 H1609 0.950 . S
C1621 C1617 1.393 . S
C1621 C1620 1.391 . S
C1622 H1612 0.950 . S
C1622 C1623 1.386 . S
C1622 C1624 1.391 . S
C1623 C1622 1.386 . S
C1623 C1627 1.393 . S
C1624 H1613 0.950 . S
C1624 C1622 1.391 . S
C1624 C1625 1.400 . S
C1625 C1619 1.491 . S
C1625 C1624 1.400 . S
C1625 C1626 1.398 . S
C1626 H1614 0.950 . S
C1626 C1625 1.398 . S
C1626 C1627 1.391 . S
C1627 H1615 0.950 . S
C1627 C1623 1.393 . S
C1627 C1626 1.391 . S
H1628 C1636 0.950 . S
H1629 C1641 0.950 . S
H1630 C1638 0.950 . S
H1631 C1640 0.950 . S
H1632 C1642 0.950 . S
H1633 C1644 0.950 . S
H1634 C1646 0.950 . S
H1635 C1647 0.950 . S
C1636 H1628 0.950 . S
C1636 C1637 1.386 . S
C1636 C1638 1.391 . S
C1637 C1636 1.386 . S
C1637 C1641 1.393 . S
C1638 H1630 0.950 . S
C1638 C1636 1.391 . S
C1638 C1639 1.400 . S
C1639 C1638 1.400 . S
C1639 C1640 1.398 . S
C1639 C1645 1.491 . S
C1640 H1631 0.950 . S
C1640 C1639 1.398 . S
C1640 C1641 1.391 . S
C1641 H1629 0.950 . S
C1641 C1637 1.393 . S
C1641 C1640 1.391 . S
C1642 H1632 0.950 . S
C1642 C1643 1.386 . S
C1642 C1644 1.391 1_655 S
C1643 C1642 1.386 . S
C1643 C1647 1.393 1_655 S
C1644 H1633 0.950 . S
C1644 C1642 1.391 1_455 S
C1644 C1645 1.400 . S
C1645 C1639 1.491 . S
C1645 C1644 1.400 . S
C1645 C1646 1.398 . S
C1646 H1634 0.950 . S
C1646 C1645 1.398 . S
C1646 C1647 1.391 . S
C1647 H1635 0.950 . S
C1647 C1643 1.393 1_455 S
C1647 C1646 1.391 . S
H1648 C1656 0.950 . S
H1649 C1661 0.950 . S
H1650 C1658 0.950 . S
H1651 C1660 0.950 . S
H1652 C1662 0.950 . S
H1653 C1664 0.950 . S
H1654 C1666 0.950 . S
H1655 C1667 0.950 . S
C1656 H1648 0.950 . S
C1656 C1657 1.386 . S
C1656 C1658 1.391 . S
C1657 C1656 1.386 . S
C1657 C1661 1.393 . S
C1658 H1650 0.950 . S
C1658 C1656 1.391 . S
C1658 C1659 1.400 . S
C1659 C1658 1.400 . S
C1659 C1660 1.398 . S
C1659 C1665 1.491 . S
C1660 H1651 0.950 . S
C1660 C1659 1.398 . S
C1660 C1661 1.391 . S
C1661 H1649 0.950 . S
C1661 C1657 1.393 . S
C1661 C1660 1.391 . S
C1662 H1652 0.950 . S
C1662 C1663 1.386 . S
C1662 C1664 1.391 . S
C1663 C1662 1.386 . S
C1663 C1667 1.393 . S
C1664 H1653 0.950 . S
C1664 C1662 1.391 . S
C1664 C1665 1.400 . S
C1665 C1659 1.491 . S
C1665 C1664 1.400 . S
C1665 C1666 1.398 . S
C1666 H1654 0.950 . S
C1666 C1665 1.398 . S
C1666 C1667 1.391 . S
C1667 H1655 0.950 . S
C1667 C1663 1.393 . S
C1667 C1666 1.391 . S
H1668 C1676 0.950 . S
H1669 C1681 0.950 . S
H1670 C1678 0.950 . S
H1671 C1680 0.950 . S
H1672 C1682 0.950 1_655 S
H1673 C1684 0.950 . S
H1674 C1686 0.950 . S
H1675 C1687 0.942 1_655 S
C1676 H1668 0.950 . S
C1676 C1677 1.386 . S
C1676 C1678 1.391 . S
C1677 C1676 1.386 . S
C1677 C1681 1.393 . S
C1678 H1670 0.950 . S
C1678 C1676 1.391 . S
C1678 C1679 1.400 . S
C1679 C1678 1.400 . S
C1679 C1680 1.398 . S
C1679 C1685 1.491 . S
C1680 H1671 0.950 . S
C1680 C1679 1.398 . S
C1680 C1681 1.391 . S
C1681 H1669 0.950 . S
C1681 C1677 1.393 . S
C1681 C1680 1.391 . S
C1682 H1672 0.950 1_455 S
C1682 C1683 1.386 1_455 S
C1682 C1684 1.391 . S
C1683 C1682 1.386 1_655 S
C1683 C1687 1.386 1_655 S
C1684 H1673 0.950 . S
C1684 C1682 1.391 . S
C1684 C1685 1.400 . S
C1685 C1679 1.491 . S
C1685 C1684 1.400 . S
C1685 C1686 1.398 . S
C1686 H1674 0.950 . S
C1686 C1685 1.398 . S
C1686 C1687 1.405 . S
C1687 H1675 0.942 1_455 S
C1687 C1683 1.386 1_455 S
C1687 C1686 1.405 . S
H1688 C1696 0.950 . S
H1689 C1701 0.950 . S
H1690 C1698 0.950 . S
H1691 C1700 0.950 . S
H1692 C1702 0.950 . S
H1693 C1704 0.950 . S
H1694 C1706 0.950 . S
H1695 C1707 0.950 . S
C1696 H1688 0.950 . S
C1696 C1697 1.386 . S
C1696 C1698 1.391 . S
C1697 C1696 1.386 . S
C1697 C1701 1.393 . S
C1698 H1690 0.950 . S
C1698 C1696 1.391 . S
C1698 C1699 1.400 . S
C1699 C1698 1.400 . S
C1699 C1700 1.398 . S
C1699 C1705 1.491 . S
C1700 H1691 0.950 . S
C1700 C1699 1.398 . S
C1700 C1701 1.391 . S
C1701 H1689 0.950 . S
C1701 C1697 1.393 . S
C1701 C1700 1.391 . S
C1702 H1692 0.950 . S
C1702 C1703 1.386 . S
C1702 C1704 1.391 . S
C1703 C1702 1.386 . S
C1703 C1707 1.393 . S
C1704 H1693 0.950 . S
C1704 C1702 1.391 . S
C1704 C1705 1.400 . S
C1705 C1699 1.491 . S
C1705 C1704 1.400 . S
C1705 C1706 1.398 . S
C1706 H1694 0.950 . S
C1706 C1705 1.398 . S
C1706 C1707 1.391 . S
C1707 H1695 0.950 . S
C1707 C1703 1.393 . S
C1707 C1706 1.391 . S
H1708 C1716 0.950 . S
H1709 C1721 0.950 . S
H1710 C1718 0.950 . S
H1711 C1720 0.950 . S
H1712 C1722 0.950 . S
H1713 C1724 0.950 . S
H1714 C1726 0.950 . S
H1715 C1727 0.950 . S
C1716 H1708 0.950 . S
C1716 C1717 1.386 . S
C1716 C1718 1.391 . S
C1717 C1716 1.386 . S
C1717 C1721 1.393 . S
C1718 H1710 0.950 . S
C1718 C1716 1.391 . S
C1718 C1719 1.400 . S
C1719 C1718 1.400 . S
C1719 C1720 1.398 . S
C1719 C1725 1.491 . S
C1720 H1711 0.950 . S
C1720 C1719 1.398 . S
C1720 C1721 1.391 . S
C1721 H1709 0.950 . S
C1721 C1717 1.393 . S
C1721 C1720 1.391 . S
C1722 H1712 0.950 . S
C1722 C1723 1.386 . S
C1722 C1724 1.391 . S
C1723 C1722 1.386 . S
C1723 C1727 1.393 . S
C1724 H1713 0.950 . S
C1724 C1722 1.391 . S
C1724 C1725 1.400 . S
C1725 C1719 1.491 . S
C1725 C1724 1.400 . S
C1725 C1726 1.398 . S
C1726 H1714 0.950 . S
C1726 C1725 1.398 . S
C1726 C1727 1.391 . S
C1727 H1715 0.950 . S
C1727 C1723 1.393 . S
C1727 C1726 1.391 . S
H1728 C1736 0.950 . S
H1729 C1741 0.950 . S
H1730 C1738 0.950 . S
H1731 C1740 0.950 . S
H1732 C1742 0.950 . S
H1733 C1744 0.950 . S
H1734 C1746 0.950 . S
H1735 C1747 0.950 . S
C1736 H1728 0.950 . S
C1736 C1737 1.386 1_545 S
C1736 C1738 1.391 1_545 S
C1737 C1736 1.386 1_565 S
C1737 C1741 1.393 . S
C1738 H1730 0.950 . S
C1738 C1736 1.391 1_565 S
C1738 C1739 1.400 . S
C1739 C1738 1.400 . S
C1739 C1740 1.398 . S
C1739 C1745 1.491 . S
C1740 H1731 0.950 . S
C1740 C1739 1.398 . S
C1740 C1741 1.391 . S
C1741 H1729 0.950 . S
C1741 C1737 1.393 . S
C1741 C1740 1.391 . S
C1742 H1732 0.950 . S
C1742 C1743 1.386 . S
C1742 C1744 1.391 . S
C1743 C1742 1.386 . S
C1743 C1747 1.393 . S
C1744 H1733 0.950 . S
C1744 C1742 1.391 . S
C1744 C1745 1.400 . S
C1745 C1739 1.491 . S
C1745 C1744 1.400 . S
C1745 C1746 1.398 . S
C1746 H1734 0.950 . S
C1746 C1745 1.398 . S
C1746 C1747 1.391 . S
C1747 H1735 0.950 . S
C1747 C1743 1.393 . S
C1747 C1746 1.391 . S
H1748 C1756 0.950 . S
H1749 C1761 0.950 . S
H1750 C1758 0.950 . S
H1751 C1760 0.950 . S
H1752 C1762 0.950 . S
H1753 C1764 0.950 . S
H1754 C1766 0.950 . S
H1755 C1767 0.950 . S
C1756 H1748 0.950 . S
C1756 C1757 1.386 . S
C1756 C1758 1.391 . S
C1757 C1756 1.386 . S
C1757 C1761 1.393 1_565 S
C1758 H1750 0.950 . S
C1758 C1756 1.391 . S
C1758 C1759 1.400 . S
C1759 C1758 1.400 . S
C1759 C1760 1.398 . S
C1759 C1765 1.491 . S
C1760 H1751 0.950 . S
C1760 C1759 1.398 . S
C1760 C1761 1.391 1_565 S
C1761 H1749 0.950 . S
C1761 C1757 1.393 1_545 S
C1761 C1760 1.391 1_545 S
C1762 H1752 0.950 . S
C1762 C1763 1.386 . S
C1762 C1764 1.391 . S
C1763 C1762 1.386 . S
C1763 C1767 1.393 . S
C1764 H1753 0.950 . S
C1764 C1762 1.391 . S
C1764 C1765 1.400 . S
C1765 C1759 1.491 . S
C1765 C1764 1.400 . S
C1765 C1766 1.398 . S
C1766 H1754 0.950 . S
C1766 C1765 1.398 . S
C1766 C1767 1.391 . S
C1767 H1755 0.950 . S
C1767 C1763 1.393 . S
C1767 C1766 1.391 . S
H1768 C1776 0.950 . S
H1769 C1781 0.950 . S
H1770 C1778 0.950 . S
H1771 C1780 0.950 . S
H1772 C1782 0.950 . S
H1773 C1784 0.950 . S
H1774 C1786 0.950 . S
H1775 C1787 0.950 . S
C1776 H1768 0.950 . S
C1776 C1777 1.386 . S
C1776 C1778 1.391 . S
C1777 C1776 1.386 . S
C1777 C1781 1.393 . S
C1778 H1770 0.950 . S
C1778 C1776 1.391 . S
C1778 C1779 1.400 . S
C1779 C1778 1.400 . S
C1779 C1780 1.398 . S
C1779 C1785 1.491 . S
C1780 H1771 0.950 . S
C1780 C1779 1.398 . S
C1780 C1781 1.391 . S
C1781 H1769 0.950 . S
C1781 C1777 1.393 . S
C1781 C1780 1.391 . S
C1782 H1772 0.950 . S
C1782 C1783 1.386 . S
C1782 C1784 1.391 . S
C1783 C1782 1.386 . S
C1783 C1787 1.393 . S
C1784 H1773 0.950 . S
C1784 C1782 1.391 . S
C1784 C1785 1.400 . S
C1785 C1779 1.491 . S
C1785 C1784 1.400 . S
C1785 C1786 1.398 . S
C1786 H1774 0.950 . S
C1786 C1785 1.398 . S
C1786 C1787 1.391 . S
C1787 H1775 0.950 . S
C1787 C1783 1.393 . S
C1787 C1786 1.391 . S
H1788 C1796 0.950 . S
H1789 C1801 0.950 . S
H1790 C1798 0.950 . S
H1791 C1800 0.950 . S
H1792 C1802 0.950 . S
H1793 C1804 0.950 . S
H1794 C1806 0.950 . S
H1795 C1807 0.950 . S
C1796 H1788 0.950 . S
C1796 C1797 1.386 . S
C1796 C1798 1.391 . S
C1797 C1796 1.386 . S
C1797 C1801 1.393 . S
C1798 H1790 0.950 . S
C1798 C1796 1.391 . S
C1798 C1799 1.400 . S
C1799 C1798 1.400 . S
C1799 C1800 1.398 . S
C1799 C1805 1.491 . S
C1800 H1791 0.950 . S
C1800 C1799 1.398 . S
C1800 C1801 1.391 . S
C1801 H1789 0.950 . S
C1801 C1797 1.393 . S
C1801 C1800 1.391 . S
C1802 H1792 0.950 . S
C1802 C1803 1.386 . S
C1802 C1804 1.391 . S
C1803 C1802 1.386 . S
C1803 C1807 1.393 1_545 S
C1804 H1793 0.950 . S
C1804 C1802 1.391 . S
C1804 C1805 1.400 . S
C1805 C1799 1.491 . S
C1805 C1804 1.400 . S
C1805 C1806 1.398 . S
C1806 H1794 0.950 . S
C1806 C1805 1.398 . S
C1806 C1807 1.391 1_545 S
C1807 H1795 0.950 . S
C1807 C1803 1.393 1_565 S
C1807 C1806 1.391 1_565 S
H1808 C1816 0.950 1_565 S
H1809 C1821 0.950 . S
H1810 C1818 0.950 . S
H1811 C1820 0.950 . S
H1812 C1822 0.950 . S
H1813 C1824 0.950 . S
H1814 C1826 0.950 . S
H1815 C1827 0.950 . S
C1816 H1808 0.950 1_545 S
C1816 C1817 1.386 . S
C1816 C1818 1.391 . S
C1817 C1816 1.386 . S
C1817 C1821 1.393 . S
C1818 H1810 0.950 . S
C1818 C1816 1.391 . S
C1818 C1819 1.400 . S
C1819 C1818 1.400 . S
C1819 C1820 1.398 . S
C1819 C1825 1.491 . S
C1820 H1811 0.950 . S
C1820 C1819 1.398 . S
C1820 C1821 1.391 . S
C1821 H1809 0.950 . S
C1821 C1817 1.393 . S
C1821 C1820 1.391 . S
C1822 H1812 0.950 . S
C1822 C1823 1.386 . S
C1822 C1824 1.391 . S
C1823 C1822 1.386 . S
C1823 C1827 1.393 . S
C1824 H1813 0.950 . S
C1824 C1822 1.391 . S
C1824 C1825 1.400 . S
C1825 C1819 1.491 . S
C1825 C1824 1.400 . S
C1825 C1826 1.398 . S
C1826 H1814 0.950 . S
C1826 C1825 1.398 . S
C1826 C1827 1.391 . S
C1827 H1815 0.950 . S
C1827 C1823 1.393 . S
C1827 C1826 1.391 . S
H1828 C1836 0.950 . S
H1829 C1841 0.950 . S
H1830 C1838 0.950 . S
H1831 C1840 0.950 . S
H1832 C1842 0.960 . S
H1833 C1844 0.950 . S
H1834 C1846 0.950 . S
H1835 C1847 0.950 . S
C1836 H1828 0.950 . S
C1836 C1837 1.386 . S
C1836 C1838 1.391 . S
C1837 C1836 1.386 . S
C1837 C1841 1.393 . S
C1838 H1830 0.950 . S
C1838 C1836 1.391 . S
C1838 C1839 1.400 . S
C1839 C1838 1.400 . S
C1839 C1840 1.398 . S
C1839 C1845 1.491 . S
C1840 H1831 0.950 . S
C1840 C1839 1.398 . S
C1840 C1841 1.391 . S
C1841 H1829 0.950 . S
C1841 C1837 1.393 . S
C1841 C1840 1.391 . S
C1842 H1832 0.960 . S
C1842 C1843 1.385 1_565 S
C1842 C1844 1.382 1_565 S
C1843 C1842 1.385 1_545 S
C1843 C1847 1.393 . S
C1844 H1833 0.950 . S
C1844 C1842 1.382 1_545 S
C1844 C1845 1.400 . S
C1845 C1839 1.491 . S
C1845 C1844 1.400 . S
C1845 C1846 1.398 . S
C1846 H1834 0.950 . S
C1846 C1845 1.398 . S
C1846 C1847 1.391 . S
C1847 H1835 0.950 . S
C1847 C1843 1.393 . S
C1847 C1846 1.391 . S
H1848 C1856 0.950 . S
H1849 C1861 0.950 . S
H1850 C1858 0.950 . S
H1851 C1860 0.950 . S
H1852 C1862 0.950 . S
H1853 C1864 0.950 . S
H1854 C1866 0.950 . S
H1855 C1867 0.950 . S
C1856 H1848 0.950 . S
C1856 C1857 1.386 . S
C1856 C1858 1.391 . S
C1857 C1856 1.386 . S
C1857 C1861 1.393 . S
C1858 H1850 0.950 . S
C1858 C1856 1.391 . S
C1858 C1859 1.400 . S
C1859 C1858 1.400 . S
C1859 C1860 1.398 . S
C1859 C1865 1.491 . S
C1860 H1851 0.950 . S
C1860 C1859 1.398 . S
C1860 C1861 1.391 . S
C1861 H1849 0.950 . S
C1861 C1857 1.393 . S
C1861 C1860 1.391 . S
C1862 H1852 0.950 . S
C1862 C1863 1.386 . S
C1862 C1864 1.391 . S
C1863 C1862 1.386 . S
C1863 C1867 1.393 . S
C1864 H1853 0.950 . S
C1864 C1862 1.391 . S
C1864 C1865 1.400 . S
C1865 C1859 1.491 . S
C1865 C1864 1.400 . S
C1865 C1866 1.398 . S
C1866 H1854 0.950 . S
C1866 C1865 1.398 . S
C1866 C1867 1.391 . S
C1867 H1855 0.950 . S
C1867 C1863 1.393 . S
C1867 C1866 1.391 . S
H1868 C1876 0.950 . S
H1869 C1881 0.950 . S
H1870 C1878 0.950 . S
H1871 C1880 0.950 . S
H1872 C1882 0.950 . S
H1873 C1884 0.950 . S
H1874 C1886 0.950 . S
H1875 C1887 0.950 . S
C1876 H1868 0.950 . S
C1876 C1877 1.386 . S
C1876 C1878 1.391 . S
C1877 C1876 1.386 . S
C1877 C1881 1.393 . S
C1878 H1870 0.950 . S
C1878 C1876 1.391 . S
C1878 C1879 1.400 . S
C1879 C1878 1.400 . S
C1879 C1880 1.398 . S
C1879 C1885 1.491 . S
C1880 H1871 0.950 . S
C1880 C1879 1.398 . S
C1880 C1881 1.391 . S
C1881 H1869 0.950 . S
C1881 C1877 1.393 . S
C1881 C1880 1.391 . S
C1882 H1872 0.950 . S
C1882 C1883 1.386 . S
C1882 C1884 1.391 . S
C1883 C1882 1.386 . S
C1883 C1887 1.393 1_565 S
C1884 H1873 0.950 . S
C1884 C1882 1.391 . S
C1884 C1885 1.400 . S
C1885 C1879 1.491 . S
C1885 C1884 1.400 . S
C1885 C1886 1.398 . S
C1886 H1874 0.950 . S
C1886 C1885 1.398 . S
C1886 C1887 1.391 1_565 S
C1887 H1875 0.950 . S
C1887 C1883 1.393 1_545 S
C1887 C1886 1.391 1_545 S
H1888 C1896 0.950 . S
H1889 C1901 0.950 . S
H1890 C1898 0.950 . S
H1891 C1900 0.950 . S
H1892 C1902 0.950 . S
H1893 C1904 0.950 . S
H1894 C1906 0.950 . S
H1895 C1907 0.950 . S
C1896 H1888 0.950 . S
C1896 C1897 1.386 . S
C1896 C1898 1.391 . S
C1897 C1896 1.386 . S
C1897 C1901 1.393 . S
C1898 H1890 0.950 . S
C1898 C1896 1.391 . S
C1898 C1899 1.400 . S
C1899 C1898 1.400 . S
C1899 C1900 1.398 . S
C1899 C1905 1.491 . S
C1900 H1891 0.950 . S
C1900 C1899 1.398 . S
C1900 C1901 1.391 . S
C1901 H1889 0.950 . S
C1901 C1897 1.393 . S
C1901 C1900 1.391 . S
C1902 H1892 0.950 . S
C1902 C1903 1.386 . S
C1902 C1904 1.391 . S
C1903 C1902 1.386 . S
C1903 C1907 1.393 . S
C1904 H1893 0.950 . S
C1904 C1902 1.391 . S
C1904 C1905 1.400 . S
C1905 C1899 1.491 . S
C1905 C1904 1.400 . S
C1905 C1906 1.398 . S
C1906 H1894 0.950 . S
C1906 C1905 1.398 . S
C1906 C1907 1.391 . S
C1907 H1895 0.950 . S
C1907 C1903 1.393 . S
C1907 C1906 1.391 . S
H1908 C1916 0.950 . S
H1909 C1921 0.950 . S
H1910 C1918 0.950 . S
H1911 C1920 0.950 . S
H1912 C1922 0.950 . S
H1913 C1924 0.950 . S
H1914 C1926 0.950 . S
H1915 C1927 0.950 . S
C1916 H1908 0.950 . S
C1916 C1917 1.386 . S
C1916 C1918 1.391 . S
C1917 C1916 1.386 . S
C1917 C1921 1.393 . S
C1918 H1910 0.950 . S
C1918 C1916 1.391 . S
C1918 C1919 1.400 . S
C1919 C1918 1.400 . S
C1919 C1920 1.398 . S
C1919 C1925 1.491 . S
C1920 H1911 0.950 . S
C1920 C1919 1.398 . S
C1920 C1921 1.391 . S
C1921 H1909 0.950 . S
C1921 C1917 1.393 . S
C1921 C1920 1.391 . S
C1922 H1912 0.950 . S
C1922 C1923 1.386 . S
C1922 C1924 1.391 . S
C1923 C1922 1.386 . S
C1923 C1927 1.393 . S
C1924 H1913 0.950 . S
C1924 C1922 1.391 . S
C1924 C1925 1.400 . S
C1925 C1919 1.491 . S
C1925 C1924 1.400 . S
C1925 C1926 1.398 . S
C1926 H1914 0.950 . S
C1926 C1925 1.398 . S
C1926 C1927 1.391 . S
C1927 H1915 0.950 . S
C1927 C1923 1.393 . S
C1927 C1926 1.391 . S
H1928 C1936 0.950 . S
H1929 C1941 0.950 . S
H1930 C1938 0.950 . S
H1931 C1940 0.950 . S
H1932 C1942 0.950 . S
H1933 C1944 0.950 . S
H1934 C1946 0.950 . S
H1935 C1947 0.950 . S
C1936 H1928 0.950 . S
C1936 C1937 1.386 . S
C1936 C1938 1.391 . S
C1937 C1936 1.386 . S
C1937 C1941 1.393 . S
C1938 H1930 0.950 . S
C1938 C1936 1.391 . S
C1938 C1939 1.400 . S
C1939 C1938 1.400 . S
C1939 C1940 1.398 . S
C1939 C1945 1.491 . S
C1940 H1931 0.950 . S
C1940 C1939 1.398 . S
C1940 C1941 1.391 . S
C1941 H1929 0.950 . S
C1941 C1937 1.393 . S
C1941 C1940 1.391 . S
C1942 H1932 0.950 . S
C1942 C1943 1.386 . S
C1942 C1944 1.391 . S
C1943 C1942 1.386 . S
C1943 C1947 1.393 . S
C1944 H1933 0.950 . S
C1944 C1942 1.391 . S
C1944 C1945 1.400 . S
C1945 C1939 1.491 . S
C1945 C1944 1.400 . S
C1945 C1946 1.398 . S
C1946 H1934 0.950 . S
C1946 C1945 1.398 . S
C1946 C1947 1.391 . S
C1947 H1935 0.950 . S
C1947 C1943 1.393 . S
C1947 C1946 1.391 . S
H1948 C1956 0.950 . S
H1949 C1961 0.950 . S
H1950 C1958 0.950 . S
H1951 C1960 0.950 . S
H1952 C1962 0.950 . S
H1953 C1964 0.950 . S
H1954 C1966 0.950 . S
H1955 C1967 0.950 . S
C1956 H1948 0.950 . S
C1956 C1957 1.386 . S
C1956 C1958 1.391 . S
C1957 C1956 1.386 . S
C1957 C1961 1.393 . S
C1958 H1950 0.950 . S
C1958 C1956 1.391 . S
C1958 C1959 1.400 . S
C1959 C1958 1.400 . S
C1959 C1960 1.398 . S
C1959 C1965 1.491 . S
C1960 H1951 0.950 . S
C1960 C1959 1.398 . S
C1960 C1961 1.391 . S
C1961 H1949 0.950 . S
C1961 C1957 1.393 . S
C1961 C1960 1.391 . S
C1962 H1952 0.950 . S
C1962 C1963 1.386 . S
C1962 C1964 1.391 . S
C1963 C1962 1.386 . S
C1963 C1967 1.393 . S
C1964 H1953 0.950 . S
C1964 C1962 1.391 . S
C1964 C1965 1.400 . S
C1965 C1959 1.491 . S
C1965 C1964 1.400 . S
C1965 C1966 1.398 . S
C1966 H1954 0.950 . S
C1966 C1965 1.398 . S
C1966 C1967 1.391 . S
C1967 H1955 0.950 . S
C1967 C1963 1.393 . S
C1967 C1966 1.391 . S
H1968 C1976 0.950 . S
H1969 C1981 0.950 . S
H1970 C1978 0.950 . S
H1971 C1980 0.950 . S
H1972 C1982 0.950 . S
H1973 C1984 0.950 . S
H1974 C1986 0.950 . S
H1975 C1987 0.950 . S
C1976 H1968 0.950 . S
C1976 C1977 1.386 . S
C1976 C1978 1.391 . S
C1977 C1976 1.386 . S
C1977 C1981 1.393 . S
C1978 H1970 0.950 . S
C1978 C1976 1.391 . S
C1978 C1979 1.400 . S
C1979 C1978 1.400 . S
C1979 C1980 1.398 . S
C1979 C1985 1.491 . S
C1980 H1971 0.950 . S
C1980 C1979 1.398 . S
C1980 C1981 1.391 . S
C1981 H1969 0.950 . S
C1981 C1977 1.393 . S
C1981 C1980 1.391 . S
C1982 H1972 0.950 . S
C1982 C1983 1.386 . S
C1982 C1984 1.391 . S
C1983 C1982 1.386 . S
C1983 C1987 1.393 . S
C1984 H1973 0.950 . S
C1984 C1982 1.391 . S
C1984 C1985 1.400 . S
C1985 C1979 1.491 . S
C1985 C1984 1.400 . S
C1985 C1986 1.398 . S
C1986 H1974 0.950 . S
C1986 C1985 1.398 . S
C1986 C1987 1.391 . S
C1987 H1975 0.950 . S
C1987 C1983 1.393 . S
C1987 C1986 1.391 . S
H1988 C1996 0.950 . S
H1989 C2001 0.950 . S
H1990 C1998 0.950 . S
H1991 C2000 0.950 . S
H1992 C2002 0.950 . S
H1993 C2004 0.950 . S
H1994 C2006 0.950 . S
H1995 C2007 0.950 . S
C1996 H1988 0.950 . S
C1996 C1997 1.386 . S
C1996 C1998 1.391 . S
C1997 C1996 1.386 . S
C1997 C2001 1.393 . S
C1998 H1990 0.950 . S
C1998 C1996 1.391 . S
C1998 C1999 1.400 . S
C1999 C1998 1.400 . S
C1999 C2000 1.398 . S
C1999 C2005 1.491 . S
C2000 H1991 0.950 . S
C2000 C1999 1.398 . S
C2000 C2001 1.391 . S
C2001 H1989 0.950 . S
C2001 C1997 1.393 . S
C2001 C2000 1.391 . S
C2002 H1992 0.950 . S
C2002 C2003 1.386 . S
C2002 C2004 1.391 . S
C2003 C2002 1.386 . S
C2003 C2007 1.393 . S
C2004 H1993 0.950 . S
C2004 C2002 1.391 . S
C2004 C2005 1.400 . S
C2005 C1999 1.491 . S
C2005 C2004 1.400 . S
C2005 C2006 1.398 . S
C2006 H1994 0.950 . S
C2006 C2005 1.398 . S
C2006 C2007 1.391 . S
C2007 H1995 0.950 . S
C2007 C2003 1.393 . S
C2007 C2006 1.391 . S
H2008 C2016 0.950 . S
H2009 C2021 0.950 . S
H2010 C2018 0.950 . S
H2011 C2020 0.950 . S
H2012 C2022 0.950 . S
H2013 C2024 0.950 . S
H2014 C2026 0.950 . S
H2015 C2027 0.950 . S
C2016 H2008 0.950 . S
C2016 C2017 1.386 . S
C2016 C2018 1.391 . S
C2017 C2016 1.386 . S
C2017 C2021 1.393 . S
C2018 H2010 0.950 . S
C2018 C2016 1.391 . S
C2018 C2019 1.400 . S
C2019 C2018 1.400 . S
C2019 C2020 1.398 . S
C2019 C2025 1.491 . S
C2020 H2011 0.950 . S
C2020 C2019 1.398 . S
C2020 C2021 1.391 . S
C2021 H2009 0.950 . S
C2021 C2017 1.393 . S
C2021 C2020 1.391 . S
C2022 H2012 0.950 . S
C2022 C2023 1.386 . S
C2022 C2024 1.391 . S
C2023 C2022 1.386 . S
C2023 C2027 1.393 . S
C2024 H2013 0.950 . S
C2024 C2022 1.391 . S
C2024 C2025 1.400 . S
C2025 C2019 1.491 . S
C2025 C2024 1.400 . S
C2025 C2026 1.398 . S
C2026 H2014 0.950 . S
C2026 C2025 1.398 . S
C2026 C2027 1.391 . S
C2027 H2015 0.950 . S
C2027 C2023 1.393 . S
C2027 C2026 1.391 . S
H2028 C2036 0.950 . S
H2029 C2041 0.950 . S
H2030 C2038 0.950 . S
H2031 C2040 0.950 . S
H2032 C2042 0.950 . S
H2033 C2044 0.950 . S
H2034 C2046 0.950 . S
H2035 C2047 0.950 . S
C2036 H2028 0.950 . S
C2036 C2037 1.386 . S
C2036 C2038 1.391 . S
C2037 C2036 1.386 . S
C2037 C2041 1.393 . S
C2038 H2030 0.950 . S
C2038 C2036 1.391 . S
C2038 C2039 1.400 . S
C2039 C2038 1.400 . S
C2039 C2040 1.398 . S
C2039 C2045 1.491 . S
C2040 H2031 0.950 . S
C2040 C2039 1.398 . S
C2040 C2041 1.391 . S
C2041 H2029 0.950 . S
C2041 C2037 1.393 . S
C2041 C2040 1.391 . S
C2042 H2032 0.950 . S
C2042 C2043 1.386 . S
C2042 C2044 1.391 . S
C2043 C2042 1.386 . S
C2043 C2047 1.393 . S
C2044 H2033 0.950 . S
C2044 C2042 1.391 . S
C2044 C2045 1.400 . S
C2045 C2039 1.491 . S
C2045 C2044 1.400 . S
C2045 C2046 1.398 . S
C2046 H2034 0.950 . S
C2046 C2045 1.398 . S
C2046 C2047 1.391 . S
C2047 H2035 0.950 . S
C2047 C2043 1.393 . S
C2047 C2046 1.391 . S
H2048 C2056 0.950 . S
H2049 C2061 0.950 . S
H2050 C2058 0.950 . S
H2051 C2060 0.950 . S
H2052 C2062 0.950 . S
H2053 C2064 0.950 . S
H2054 C2066 0.950 . S
H2055 C2067 0.950 . S
C2056 H2048 0.950 . S
C2056 C2057 1.386 . S
C2056 C2058 1.391 . S
C2057 C2056 1.386 . S
C2057 C2061 1.393 . S
C2058 H2050 0.950 . S
C2058 C2056 1.391 . S
C2058 C2059 1.400 . S
C2059 C2058 1.400 . S
C2059 C2060 1.398 . S
C2059 C2065 1.491 1_545 S
C2060 H2051 0.950 . S
C2060 C2059 1.398 . S
C2060 C2061 1.391 . S
C2061 H2049 0.950 . S
C2061 C2057 1.393 . S
C2061 C2060 1.391 . S
C2062 H2052 0.950 . S
C2062 C2063 1.386 . S
C2062 C2064 1.391 . S
C2063 C2062 1.386 . S
C2063 C2067 1.393 . S
C2064 H2053 0.950 . S
C2064 C2062 1.391 . S
C2064 C2065 1.400 . S
C2065 C2059 1.491 1_565 S
C2065 C2064 1.400 . S
C2065 C2066 1.398 . S
C2066 H2054 0.950 . S
C2066 C2065 1.398 . S
C2066 C2067 1.391 . S
C2067 H2055 0.950 . S
C2067 C2063 1.393 . S
C2067 C2066 1.391 . S
H2068 C2076 0.950 . S
H2069 C2081 0.950 . S
H2070 C2078 0.950 . S
H2071 C2080 0.950 . S
H2072 C2082 0.950 . S
H2073 C2084 0.950 . S
H2074 C2086 0.950 . S
H2075 C2087 0.950 . S
C2076 H2068 0.950 . S
C2076 C2077 1.386 . S
C2076 C2078 1.391 . S
C2077 C2076 1.386 . S
C2077 C2081 1.393 . S
C2078 H2070 0.950 . S
C2078 C2076 1.391 . S
C2078 C2079 1.400 . S
C2079 C2078 1.400 . S
C2079 C2080 1.398 . S
C2079 C2085 1.491 . S
C2080 H2071 0.950 . S
C2080 C2079 1.398 . S
C2080 C2081 1.391 . S
C2081 H2069 0.950 . S
C2081 C2077 1.393 . S
C2081 C2080 1.391 . S
C2082 H2072 0.950 . S
C2082 C2083 1.386 . S
C2082 C2084 1.391 . S
C2083 C2082 1.386 . S
C2083 C2087 1.393 . S
C2084 H2073 0.950 . S
C2084 C2082 1.391 . S
C2084 C2085 1.400 . S
C2085 C2079 1.491 . S
C2085 C2084 1.400 . S
C2085 C2086 1.398 . S
C2086 H2074 0.950 . S
C2086 C2085 1.398 . S
C2086 C2087 1.391 . S
C2087 H2075 0.950 . S
C2087 C2083 1.393 . S
C2087 C2086 1.391 . S
H2088 C2096 0.950 . S
H2089 C2101 0.950 . S
H2090 C2098 0.950 . S
H2091 C2100 0.950 1_565 S
H2092 C2102 0.950 . S
H2093 C2104 0.950 . S
H2094 C2106 0.950 1_545 S
H2095 C2107 0.950 . S
C2096 H2088 0.950 . S
C2096 C2097 1.386 . S
C2096 C2098 1.391 . S
C2097 C2096 1.386 . S
C2097 C2101 1.393 . S
C2098 H2090 0.950 . S
C2098 C2096 1.391 . S
C2098 C2099 1.400 . S
C2099 C2098 1.400 . S
C2099 C2100 1.398 . S
C2099 C2105 1.491 1_545 S
C2100 H2091 0.950 1_545 S
C2100 C2099 1.398 . S
C2100 C2101 1.391 . S
C2101 H2089 0.950 . S
C2101 C2097 1.393 . S
C2101 C2100 1.391 . S
C2102 H2092 0.950 . S
C2102 C2103 1.386 . S
C2102 C2104 1.391 . S
C2103 C2102 1.386 . S
C2103 C2107 1.393 . S
C2104 H2093 0.950 . S
C2104 C2102 1.391 . S
C2104 C2105 1.400 . S
C2105 C2099 1.491 1_565 S
C2105 C2104 1.400 . S
C2105 C2106 1.398 . S
C2106 H2094 0.950 1_565 S
C2106 C2105 1.398 . S
C2106 C2107 1.391 . S
C2107 H2095 0.950 . S
C2107 C2103 1.393 . S
C2107 C2106 1.391 . S
H2108 C2116 0.950 . S
H2109 C2121 0.950 . S
H2110 C2118 0.950 . S
H2111 C2120 0.950 1_554 S
H2112 C2122 0.950 . S
H2113 C2124 0.950 . S
H2114 C2126 0.950 1_556 S
H2115 C2127 0.950 . S
C2116 H2108 0.950 . S
C2116 C2117 1.386 . S
C2116 C2118 1.391 . S
C2117 C2116 1.386 . S
C2117 C2121 1.393 . S
C2118 H2110 0.950 . S
C2118 C2116 1.391 . S
C2118 C2119 1.400 . S
C2119 C2118 1.400 . S
C2119 C2120 1.398 . S
C2119 C2125 1.491 1_556 S
C2120 H2111 0.950 1_556 S
C2120 C2119 1.398 . S
C2120 C2121 1.391 . S
C2121 H2109 0.950 . S
C2121 C2117 1.393 . S
C2121 C2120 1.391 . S
C2122 H2112 0.950 . S
C2122 C2123 1.386 . S
C2122 C2124 1.391 . S
C2123 C2122 1.386 . S
C2123 C2127 1.393 . S
C2124 H2113 0.950 . S
C2124 C2122 1.391 . S
C2124 C2125 1.400 . S
C2125 C2119 1.491 1_554 S
C2125 C2124 1.400 . S
C2125 C2126 1.398 . S
C2126 H2114 0.950 1_554 S
C2126 C2125 1.398 . S
C2126 C2127 1.391 . S
C2127 H2115 0.950 . S
C2127 C2123 1.393 . S
C2127 C2126 1.391 . S
H2128 C2136 0.950 . S
H2129 C2141 0.950 . S
H2130 C2138 0.937 1_545 S
H2131 C2140 0.950 . S
H2132 C2142 0.950 . S
H2133 C2144 0.937 1_565 S
H2134 C2146 0.950 . S
H2135 C2147 0.950 . S
C2136 H2128 0.950 . S
C2136 C2137 1.386 . S
C2136 C2138 1.391 . S
C2137 C2136 1.386 . S
C2137 C2141 1.393 . S
C2138 H2130 0.937 1_565 S
C2138 C2136 1.391 . S
C2138 C2139 1.400 . S
C2139 C2138 1.400 . S
C2139 C2140 1.398 . S
C2139 C2145 1.491 1_565 S
C2140 H2131 0.950 . S
C2140 C2139 1.398 . S
C2140 C2141 1.391 . S
C2141 H2129 0.950 . S
C2141 C2137 1.393 . S
C2141 C2140 1.391 . S
C2142 H2132 0.950 . S
C2142 C2143 1.386 . S
C2142 C2144 1.391 . S
C2143 C2142 1.386 . S
C2143 C2147 1.393 . S
C2144 H2133 0.937 1_545 S
C2144 C2142 1.391 . S
C2144 C2145 1.400 . S
C2145 C2139 1.491 1_545 S
C2145 C2144 1.400 . S
C2145 C2146 1.398 . S
C2146 H2134 0.950 . S
C2146 C2145 1.398 . S
C2146 C2147 1.391 . S
C2147 H2135 0.950 . S
C2147 C2143 1.393 . S
C2147 C2146 1.391 . S
H2148 C2156 0.950 . S
H2149 C2161 0.950 . S
H2150 C2158 0.950 . S
H2151 C2160 0.950 . S
H2152 C2162 0.950 . S
H2153 C2164 0.950 . S
H2154 C2166 0.950 . S
H2155 C2167 0.950 . S
C2156 H2148 0.950 . S
C2156 C2157 1.386 . S
C2156 C2158 1.391 . S
C2157 C2156 1.386 . S
C2157 C2161 1.393 . S
C2158 H2150 0.950 . S
C2158 C2156 1.391 . S
C2158 C2159 1.400 . S
C2159 C2158 1.400 . S
C2159 C2160 1.398 . S
C2159 C2165 1.491 . S
C2160 H2151 0.950 . S
C2160 C2159 1.398 . S
C2160 C2161 1.391 . S
C2161 H2149 0.950 . S
C2161 C2157 1.393 . S
C2161 C2160 1.391 . S
C2162 H2152 0.950 . S
C2162 C2163 1.386 . S
C2162 C2164 1.391 . S
C2163 C2162 1.386 . S
C2163 C2167 1.393 . S
C2164 H2153 0.950 . S
C2164 C2162 1.391 . S
C2164 C2165 1.400 . S
C2165 C2159 1.491 . S
C2165 C2164 1.400 . S
C2165 C2166 1.398 . S
C2166 H2154 0.950 . S
C2166 C2165 1.398 . S
C2166 C2167 1.391 . S
C2167 H2155 0.950 . S
C2167 C2163 1.393 . S
C2167 C2166 1.391 . S
H2168 C2176 0.950 . S
H2169 C2181 0.950 . S
H2170 C2178 0.950 1_565 S
H2171 C2180 0.950 . S
H2172 C2182 0.950 . S
H2173 C2184 0.950 1_545 S
H2174 C2186 0.950 . S
H2175 C2187 0.950 . S
C2176 H2168 0.950 . S
C2176 C2177 1.386 . S
C2176 C2178 1.391 . S
C2177 C2176 1.386 . S
C2177 C2181 1.393 . S
C2178 H2170 0.950 1_545 S
C2178 C2176 1.391 . S
C2178 C2179 1.400 . S
C2179 C2178 1.400 . S
C2179 C2180 1.398 . S
C2179 C2185 1.491 1_545 S
C2180 H2171 0.950 . S
C2180 C2179 1.398 . S
C2180 C2181 1.391 . S
C2181 H2169 0.950 . S
C2181 C2177 1.393 . S
C2181 C2180 1.391 . S
C2182 H2172 0.950 . S
C2182 C2183 1.386 . S
C2182 C2184 1.391 . S
C2183 C2182 1.386 . S
C2183 C2187 1.393 . S
C2184 H2173 0.950 1_565 S
C2184 C2182 1.391 . S
C2184 C2185 1.400 . S
C2185 C2179 1.491 1_565 S
C2185 C2184 1.400 . S
C2185 C2186 1.398 . S
C2186 H2174 0.950 . S
C2186 C2185 1.398 . S
C2186 C2187 1.391 . S
C2187 H2175 0.950 . S
C2187 C2183 1.393 . S
C2187 C2186 1.391 . S
H2188 C2196 0.950 . S
H2189 C2201 0.950 . S
H2190 C2198 0.950 . S
H2191 C2200 0.950 1_556 S
H2192 C2202 0.950 . S
H2193 C2204 0.950 . S
H2194 C2206 0.950 1_554 S
H2195 C2207 0.950 . S
C2196 H2188 0.950 . S
C2196 C2197 1.386 . S
C2196 C2198 1.391 . S
C2197 C2196 1.386 . S
C2197 C2201 1.393 . S
C2198 H2190 0.950 . S
C2198 C2196 1.391 . S
C2198 C2199 1.400 . S
C2199 C2198 1.400 . S
C2199 C2200 1.398 . S
C2199 C2205 1.491 1_554 S
C2200 H2191 0.950 1_554 S
C2200 C2199 1.398 . S
C2200 C2201 1.391 . S
C2201 H2189 0.950 . S
C2201 C2197 1.393 . S
C2201 C2200 1.391 . S
C2202 H2192 0.950 . S
C2202 C2203 1.386 . S
C2202 C2204 1.391 . S
C2203 C2202 1.386 . S
C2203 C2207 1.393 . S
C2204 H2193 0.950 . S
C2204 C2202 1.391 . S
C2204 C2205 1.400 . S
C2205 C2199 1.491 1_556 S
C2205 C2204 1.400 . S
C2205 C2206 1.398 . S
C2206 H2194 0.950 1_556 S
C2206 C2205 1.398 . S
C2206 C2207 1.391 . S
C2207 H2195 0.950 . S
C2207 C2203 1.393 . S
C2207 C2206 1.391 . S
H2208 C2216 0.950 . S
H2209 C2221 0.950 . S
H2210 C2218 0.950 . S
H2211 C2220 0.950 . S
H2212 C2222 0.950 . S
H2213 C2224 0.950 . S
H2214 C2226 0.950 . S
H2215 C2227 0.950 . S
C2216 H2208 0.950 . S
C2216 C2217 1.386 . S
C2216 C2218 1.391 . S
C2217 C2216 1.386 . S
C2217 C2221 1.393 . S
C2218 H2210 0.950 . S
C2218 C2216 1.391 . S
C2218 C2219 1.400 . S
C2219 C2218 1.400 . S
C2219 C2220 1.398 . S
C2219 C2225 1.491 . S
C2220 H2211 0.950 . S
C2220 C2219 1.398 . S
C2220 C2221 1.391 . S
C2221 H2209 0.950 . S
C2221 C2217 1.393 . S
C2221 C2220 1.391 . S
C2222 H2212 0.950 . S
C2222 C2223 1.386 . S
C2222 C2224 1.391 . S
C2223 C2222 1.386 . S
C2223 C2227 1.393 . S
C2224 H2213 0.950 . S
C2224 C2222 1.391 . S
C2224 C2225 1.400 . S
C2225 C2219 1.491 . S
C2225 C2224 1.400 . S
C2225 C2226 1.398 . S
C2226 H2214 0.950 . S
C2226 C2225 1.398 . S
C2226 C2227 1.391 . S
C2227 H2215 0.950 . S
C2227 C2223 1.393 . S
C2227 C2226 1.391 . S
H2228 C2236 0.950 . S
H2229 C2241 0.950 . S
H2230 C2238 0.950 . S
H2231 C2240 0.950 1_556 S
H2232 C2242 0.950 . S
H2233 C2244 0.950 . S
H2234 C2246 0.950 1_554 S
H2235 C2247 0.950 . S
C2236 H2228 0.950 . S
C2236 C2237 1.386 . S
C2236 C2238 1.391 . S
C2237 C2236 1.386 . S
C2237 C2241 1.393 . S
C2238 H2230 0.950 . S
C2238 C2236 1.391 . S
C2238 C2239 1.400 . S
C2239 C2238 1.400 . S
C2239 C2240 1.398 . S
C2239 C2245 1.491 1_554 S
C2240 H2231 0.950 1_554 S
C2240 C2239 1.398 . S
C2240 C2241 1.391 . S
C2241 H2229 0.950 . S
C2241 C2237 1.393 . S
C2241 C2240 1.391 . S
C2242 H2232 0.950 . S
C2242 C2243 1.386 . S
C2242 C2244 1.391 . S
C2243 C2242 1.386 . S
C2243 C2247 1.393 . S
C2244 H2233 0.950 . S
C2244 C2242 1.391 . S
C2244 C2245 1.400 . S
C2245 C2239 1.491 1_556 S
C2245 C2244 1.400 . S
C2245 C2246 1.398 . S
C2246 H2234 0.950 1_556 S
C2246 C2245 1.398 . S
C2246 C2247 1.391 . S
C2247 H2235 0.950 . S
C2247 C2243 1.393 . S
C2247 C2246 1.391 . S
H2248 C2256 0.950 . S
H2249 C2261 0.950 . S
H2250 C2258 0.950 . S
H2251 C2260 0.950 . S
H2252 C2262 0.950 . S
H2253 C2264 0.950 . S
H2254 C2266 0.950 . S
H2255 C2267 0.950 . S
C2256 H2248 0.950 . S
C2256 C2257 1.386 . S
C2256 C2258 1.391 . S
C2257 C2256 1.386 . S
C2257 C2261 1.393 . S
C2258 H2250 0.950 . S
C2258 C2256 1.391 . S
C2258 C2259 1.400 . S
C2259 C2258 1.400 . S
C2259 C2260 1.398 . S
C2259 C2265 1.491 . S
C2260 H2251 0.950 . S
C2260 C2259 1.398 . S
C2260 C2261 1.391 . S
C2261 H2249 0.950 . S
C2261 C2257 1.393 . S
C2261 C2260 1.391 . S
C2262 H2252 0.950 . S
C2262 C2263 1.386 . S
C2262 C2264 1.391 . S
C2263 C2262 1.386 . S
C2263 C2267 1.393 . S
C2264 H2253 0.950 . S
C2264 C2262 1.391 . S
C2264 C2265 1.400 . S
C2265 C2259 1.491 . S
C2265 C2264 1.400 . S
C2265 C2266 1.398 . S
C2266 H2254 0.950 . S
C2266 C2265 1.398 . S
C2266 C2267 1.391 . S
C2267 H2255 0.950 . S
C2267 C2263 1.393 . S
C2267 C2266 1.391 . S
H2268 C2276 0.950 . S
H2269 C2281 0.950 . S
H2270 C2278 0.950 . S
H2271 C2280 0.950 . S
H2272 C2282 0.950 . S
H2273 C2284 0.950 . S
H2274 C2286 0.950 . S
H2275 C2287 0.950 . S
C2276 H2268 0.950 . S
C2276 C2277 1.386 . S
C2276 C2278 1.391 . S
C2277 C2276 1.386 . S
C2277 C2281 1.393 . S
C2278 H2270 0.950 . S
C2278 C2276 1.391 . S
C2278 C2279 1.400 . S
C2279 C2278 1.400 . S
C2279 C2280 1.398 . S
C2279 C2285 1.491 . S
C2280 H2271 0.950 . S
C2280 C2279 1.398 . S
C2280 C2281 1.391 . S
C2281 H2269 0.950 . S
C2281 C2277 1.393 . S
C2281 C2280 1.391 . S
C2282 H2272 0.950 . S
C2282 C2283 1.386 . S
C2282 C2284 1.391 . S
C2283 C2282 1.386 . S
C2283 C2287 1.393 . S
C2284 H2273 0.950 . S
C2284 C2282 1.391 . S
C2284 C2285 1.400 . S
C2285 C2279 1.491 . S
C2285 C2284 1.400 . S
C2285 C2286 1.398 . S
C2286 H2274 0.950 . S
C2286 C2285 1.398 . S
C2286 C2287 1.391 . S
C2287 H2275 0.950 . S
C2287 C2283 1.393 . S
C2287 C2286 1.391 . S
H2288 C2296 0.950 . S
H2289 C2301 0.950 . S
H2290 C2298 0.950 . S
H2291 C2300 0.950 . S
H2292 C2302 0.950 . S
H2293 C2304 0.950 . S
H2294 C2306 0.950 . S
H2295 C2307 0.950 . S
C2296 H2288 0.950 . S
C2296 C2297 1.386 . S
C2296 C2298 1.391 . S
C2297 C2296 1.386 . S
C2297 C2301 1.393 . S
C2298 H2290 0.950 . S
C2298 C2296 1.391 . S
C2298 C2299 1.400 . S
C2299 C2298 1.400 . S
C2299 C2300 1.398 . S
C2299 C2305 1.491 . S
C2300 H2291 0.950 . S
C2300 C2299 1.398 . S
C2300 C2301 1.391 . S
C2301 H2289 0.950 . S
C2301 C2297 1.393 . S
C2301 C2300 1.391 . S
C2302 H2292 0.950 . S
C2302 C2303 1.386 . S
C2302 C2304 1.391 . S
C2303 C2302 1.386 . S
C2303 C2307 1.393 . S
C2304 H2293 0.950 . S
C2304 C2302 1.391 . S
C2304 C2305 1.400 . S
C2305 C2299 1.491 . S
C2305 C2304 1.400 . S
C2305 C2306 1.398 . S
C2306 H2294 0.950 . S
C2306 C2305 1.398 . S
C2306 C2307 1.391 . S
C2307 H2295 0.950 . S
C2307 C2303 1.393 . S
C2307 C2306 1.391 . S
H2308 C2316 0.950 . S
H2309 C2321 0.950 . S
H2310 C2318 0.950 . S
H2311 C2320 0.950 . S
H2312 C2322 0.950 . S
H2313 C2324 0.950 . S
H2314 C2326 0.950 . S
H2315 C2327 0.950 . S
C2316 H2308 0.950 . S
C2316 C2317 1.386 . S
C2316 C2318 1.391 . S
C2317 C2316 1.386 . S
C2317 C2321 1.393 . S
C2318 H2310 0.950 . S
C2318 C2316 1.391 . S
C2318 C2319 1.400 . S
C2319 C2318 1.400 . S
C2319 C2320 1.398 . S
C2319 C2325 1.491 1_556 S
C2320 H2311 0.950 . S
C2320 C2319 1.398 . S
C2320 C2321 1.391 . S
C2321 H2309 0.950 . S
C2321 C2317 1.393 . S
C2321 C2320 1.391 . S
C2322 H2312 0.950 . S
C2322 C2323 1.386 . S
C2322 C2324 1.391 . S
C2323 C2322 1.386 . S
C2323 C2327 1.393 . S
C2324 H2313 0.950 . S
C2324 C2322 1.391 . S
C2324 C2325 1.400 . S
C2325 C2319 1.491 1_554 S
C2325 C2324 1.400 . S
C2325 C2326 1.398 . S
C2326 H2314 0.950 . S
C2326 C2325 1.398 . S
C2326 C2327 1.391 . S
C2327 H2315 0.950 . S
C2327 C2323 1.393 . S
C2327 C2326 1.391 . S
H2328 C2336 0.950 . S
H2329 C2341 0.950 . S
H2330 C2338 0.950 . S
H2331 C2340 0.950 . S
H2332 C2342 0.950 . S
H2333 C2344 0.950 . S
H2334 C2346 0.950 . S
H2335 C2347 0.950 . S
C2336 H2328 0.950 . S
C2336 C2337 1.386 . S
C2336 C2338 1.391 . S
C2337 C2336 1.386 . S
C2337 C2341 1.393 . S
C2338 H2330 0.950 . S
C2338 C2336 1.391 . S
C2338 C2339 1.400 . S
C2339 C2338 1.400 . S
C2339 C2340 1.398 . S
C2339 C2345 1.491 . S
C2340 H2331 0.950 . S
C2340 C2339 1.398 . S
C2340 C2341 1.391 . S
C2341 H2329 0.950 . S
C2341 C2337 1.393 . S
C2341 C2340 1.391 . S
C2342 H2332 0.950 . S
C2342 C2343 1.386 . S
C2342 C2344 1.391 . S
C2343 C2342 1.386 . S
C2343 C2347 1.393 . S
C2344 H2333 0.950 . S
C2344 C2342 1.391 . S
C2344 C2345 1.400 . S
C2345 C2339 1.491 . S
C2345 C2344 1.400 . S
C2345 C2346 1.398 . S
C2346 H2334 0.950 . S
C2346 C2345 1.398 . S
C2346 C2347 1.391 . S
C2347 H2335 0.950 . S
C2347 C2343 1.393 . S
C2347 C2346 1.391 . S
H2348 C2356 0.950 . S
H2349 C2361 0.950 . S
H2350 C2358 0.950 . S
H2351 C2360 0.950 . S
H2352 C2362 0.950 . S
H2353 C2364 0.950 . S
H2354 C2366 0.950 . S
H2355 C2367 0.950 . S
C2356 H2348 0.950 . S
C2356 C2357 1.386 . S
C2356 C2358 1.391 . S
C2357 C2356 1.386 . S
C2357 C2361 1.393 . S
C2358 H2350 0.950 . S
C2358 C2356 1.391 . S
C2358 C2359 1.400 . S
C2359 C2358 1.400 . S
C2359 C2360 1.398 . S
C2359 C2365 1.491 . S
C2360 H2351 0.950 . S
C2360 C2359 1.398 . S
C2360 C2361 1.391 . S
C2361 H2349 0.950 . S
C2361 C2357 1.393 . S
C2361 C2360 1.391 . S
C2362 H2352 0.950 . S
C2362 C2363 1.386 . S
C2362 C2364 1.391 . S
C2363 C2362 1.386 . S
C2363 C2367 1.393 . S
C2364 H2353 0.950 . S
C2364 C2362 1.391 . S
C2364 C2365 1.400 . S
C2365 C2359 1.491 . S
C2365 C2364 1.400 . S
C2365 C2366 1.398 . S
C2366 H2354 0.950 . S
C2366 C2365 1.398 . S
C2366 C2367 1.391 . S
C2367 H2355 0.950 . S
C2367 C2363 1.393 . S
C2367 C2366 1.391 . S
H2368 C2376 0.950 . S
H2369 C2381 0.950 1_655 S
H2370 C2378 0.950 . S
H2371 C2380 0.950 . S
H2372 C2382 0.950 . S
H2373 C2384 0.950 . S
H2374 C2386 0.950 . S
H2375 C2387 0.950 1_455 S
C2376 H2368 0.950 . S
C2376 C2377 1.386 . S
C2376 C2378 1.391 . S
C2377 C2376 1.386 . S
C2377 C2381 1.393 . S
C2378 H2370 0.950 . S
C2378 C2376 1.391 . S
C2378 C2379 1.400 . S
C2379 C2378 1.400 . S
C2379 C2380 1.398 1_455 S
C2379 C2385 1.491 1_455 S
C2380 H2371 0.950 . S
C2380 C2379 1.398 1_655 S
C2380 C2381 1.391 1_655 S
C2381 H2369 0.950 1_455 S
C2381 C2377 1.393 . S
C2381 C2380 1.391 1_455 S
C2382 H2372 0.950 . S
C2382 C2383 1.386 . S
C2382 C2384 1.391 . S
C2383 C2382 1.386 . S
C2383 C2387 1.393 . S
C2384 H2373 0.950 . S
C2384 C2382 1.391 . S
C2384 C2385 1.400 . S
C2385 C2379 1.491 1_655 S
C2385 C2384 1.400 . S
C2385 C2386 1.398 1_655 S
C2386 H2374 0.950 . S
C2386 C2385 1.398 1_455 S
C2386 C2387 1.391 1_455 S
C2387 H2375 0.950 1_655 S
C2387 C2383 1.393 . S
C2387 C2386 1.391 1_655 S
H2388 C2396 0.950 . S
H2389 C2401 0.950 . S
H2390 C2398 0.950 . S
H2391 C2400 0.950 . S
H2392 C2402 0.950 . S
H2393 C2404 0.950 . S
H2394 C2406 0.950 . S
H2395 C2407 0.950 . S
C2396 H2388 0.950 . S
C2396 C2397 1.386 . S
C2396 C2398 1.391 . S
C2397 C2396 1.386 . S
C2397 C2401 1.393 . S
C2398 H2390 0.950 . S
C2398 C2396 1.391 . S
C2398 C2399 1.400 . S
C2399 C2398 1.400 . S
C2399 C2400 1.398 . S
C2399 C2405 1.491 1_655 S
C2400 H2391 0.950 . S
C2400 C2399 1.398 . S
C2400 C2401 1.391 . S
C2401 H2389 0.950 . S
C2401 C2397 1.393 . S
C2401 C2400 1.391 . S
C2402 H2392 0.950 . S
C2402 C2403 1.386 . S
C2402 C2404 1.391 . S
C2403 C2402 1.386 . S
C2403 C2407 1.393 . S
C2404 H2393 0.950 . S
C2404 C2402 1.391 . S
C2404 C2405 1.400 . S
C2405 C2399 1.491 1_455 S
C2405 C2404 1.400 . S
C2405 C2406 1.398 . S
C2406 H2394 0.950 . S
C2406 C2405 1.398 . S
C2406 C2407 1.391 . S
C2407 H2395 0.950 . S
C2407 C2403 1.393 . S
C2407 C2406 1.391 . S
H2408 C2416 0.950 . S
H2409 C2421 0.950 . S
H2410 C2418 0.950 . S
H2411 C2420 0.950 . S
H2412 C2422 0.950 . S
H2413 C2424 0.950 . S
H2414 C2426 0.950 . S
H2415 C2427 0.950 . S
C2416 H2408 0.950 . S
C2416 C2417 1.386 . S
C2416 C2418 1.391 . S
C2417 C2416 1.386 . S
C2417 C2421 1.393 . S
C2418 H2410 0.950 . S
C2418 C2416 1.391 . S
C2418 C2419 1.400 . S
C2419 C2418 1.400 . S
C2419 C2420 1.398 . S
C2419 C2425 1.491 . S
C2420 H2411 0.950 . S
C2420 C2419 1.398 . S
C2420 C2421 1.391 . S
C2421 H2409 0.950 . S
C2421 C2417 1.393 . S
C2421 C2420 1.391 . S
C2422 H2412 0.950 . S
C2422 C2423 1.386 . S
C2422 C2424 1.391 . S
C2423 C2422 1.386 . S
C2423 C2427 1.393 . S
C2424 H2413 0.950 . S
C2424 C2422 1.391 . S
C2424 C2425 1.400 . S
C2425 C2419 1.491 . S
C2425 C2424 1.400 . S
C2425 C2426 1.398 . S
C2426 H2414 0.950 . S
C2426 C2425 1.398 . S
C2426 C2427 1.391 . S
C2427 H2415 0.950 . S
C2427 C2423 1.393 . S
C2427 C2426 1.391 . S
H2428 C2436 0.950 . S
H2429 C2441 0.950 . S
H2430 C2438 0.950 . S
H2431 C2440 0.950 . S
H2432 C2442 0.950 . S
H2433 C2444 0.950 . S
H2434 C2446 0.950 . S
H2435 C2447 0.950 . S
C2436 H2428 0.950 . S
C2436 C2437 1.386 . S
C2436 C2438 1.391 . S
C2437 C2436 1.386 . S
C2437 C2441 1.393 . S
C2438 H2430 0.950 . S
C2438 C2436 1.391 . S
C2438 C2439 1.400 . S
C2439 C2438 1.400 . S
C2439 C2440 1.398 . S
C2439 C2445 1.491 . S
C2440 H2431 0.950 . S
C2440 C2439 1.398 . S
C2440 C2441 1.391 . S
C2441 H2429 0.950 . S
C2441 C2437 1.393 . S
C2441 C2440 1.391 . S
C2442 H2432 0.950 . S
C2442 C2443 1.386 . S
C2442 C2444 1.391 . S
C2443 C2442 1.386 . S
C2443 C2447 1.393 . S
C2444 H2433 0.950 . S
C2444 C2442 1.391 . S
C2444 C2445 1.400 . S
C2445 C2439 1.491 . S
C2445 C2444 1.400 . S
C2445 C2446 1.398 . S
C2446 H2434 0.950 . S
C2446 C2445 1.398 . S
C2446 C2447 1.391 . S
C2447 H2435 0.950 . S
C2447 C2443 1.393 . S
C2447 C2446 1.391 . S
H2448 C2456 0.950 . S
H2449 C2461 0.950 1_455 S
H2450 C2458 0.950 . S
H2451 C2460 0.950 . S
H2452 C2462 0.950 . S
H2453 C2464 0.950 . S
H2454 C2466 0.950 . S
H2455 C2467 0.950 1_655 S
C2456 H2448 0.950 . S
C2456 C2457 1.386 . S
C2456 C2458 1.391 . S
C2457 C2456 1.386 . S
C2457 C2461 1.393 . S
C2458 H2450 0.950 . S
C2458 C2456 1.391 . S
C2458 C2459 1.400 . S
C2459 C2458 1.400 . S
C2459 C2460 1.398 1_655 S
C2459 C2465 1.491 1_655 S
C2460 H2451 0.950 . S
C2460 C2459 1.398 1_455 S
C2460 C2461 1.391 1_455 S
C2461 H2449 0.950 1_655 S
C2461 C2457 1.393 . S
C2461 C2460 1.391 1_655 S
C2462 H2452 0.950 . S
C2462 C2463 1.386 . S
C2462 C2464 1.391 . S
C2463 C2462 1.386 . S
C2463 C2467 1.393 . S
C2464 H2453 0.950 . S
C2464 C2462 1.391 . S
C2464 C2465 1.400 . S
C2465 C2459 1.491 1_455 S
C2465 C2464 1.400 . S
C2465 C2466 1.398 1_455 S
C2466 H2454 0.950 . S
C2466 C2465 1.398 1_655 S
C2466 C2467 1.391 1_655 S
C2467 H2455 0.950 1_455 S
C2467 C2463 1.393 . S
C2467 C2466 1.391 1_455 S
H2468 C2476 0.950 . S
H2469 C2481 0.950 . S
H2470 C2478 0.950 . S
H2471 C2480 0.950 . S
H2472 C2482 0.950 . S
H2473 C2484 0.950 . S
H2474 C2486 0.950 . S
H2475 C2487 0.950 . S
C2476 H2468 0.950 . S
C2476 C2477 1.386 . S
C2476 C2478 1.391 . S
C2477 C2476 1.386 . S
C2477 C2481 1.393 . S
C2478 H2470 0.950 . S
C2478 C2476 1.391 . S
C2478 C2479 1.400 . S
C2479 C2478 1.400 . S
C2479 C2480 1.398 . S
C2479 C2485 1.491 . S
C2480 H2471 0.950 . S
C2480 C2479 1.398 . S
C2480 C2481 1.391 . S
C2481 H2469 0.950 . S
C2481 C2477 1.393 . S
C2481 C2480 1.391 . S
C2482 H2472 0.950 . S
C2482 C2483 1.386 . S
C2482 C2484 1.391 . S
C2483 C2482 1.386 . S
C2483 C2487 1.393 . S
C2484 H2473 0.950 . S
C2484 C2482 1.391 . S
C2484 C2485 1.400 . S
C2485 C2479 1.491 . S
C2485 C2484 1.400 . S
C2485 C2486 1.398 . S
C2486 H2474 0.950 . S
C2486 C2485 1.398 . S
C2486 C2487 1.391 . S
C2487 H2475 0.950 . S
C2487 C2483 1.393 . S
C2487 C2486 1.391 . S
H2488 C2496 0.950 . S
H2489 C2501 0.950 . S
H2490 C2498 0.950 . S
H2491 C2500 0.950 . S
H2492 C2502 0.950 . S
H2493 C2504 0.950 . S
H2494 C2506 0.950 . S
H2495 C2507 0.950 . S
C2496 H2488 0.950 . S
C2496 C2497 1.386 . S
C2496 C2498 1.391 . S
C2497 C2496 1.386 . S
C2497 C2501 1.393 . S
C2498 H2490 0.950 . S
C2498 C2496 1.391 . S
C2498 C2499 1.400 . S
C2499 C2498 1.400 . S
C2499 C2500 1.398 . S
C2499 C2505 1.491 . S
C2500 H2491 0.950 . S
C2500 C2499 1.398 . S
C2500 C2501 1.391 . S
C2501 H2489 0.950 . S
C2501 C2497 1.393 . S
C2501 C2500 1.391 . S
C2502 H2492 0.950 . S
C2502 C2503 1.386 . S
C2502 C2504 1.391 . S
C2503 C2502 1.386 . S
C2503 C2507 1.393 . S
C2504 H2493 0.950 . S
C2504 C2502 1.391 . S
C2504 C2505 1.400 . S
C2505 C2499 1.491 . S
C2505 C2504 1.400 . S
C2505 C2506 1.398 . S
C2506 H2494 0.950 . S
C2506 C2505 1.398 . S
C2506 C2507 1.391 . S
C2507 H2495 0.950 . S
C2507 C2503 1.393 . S
C2507 C2506 1.391 . S
H2508 C2516 0.950 . S
H2509 C2521 0.950 . S
H2510 C2518 0.950 . S
H2511 C2520 0.950 . S
H2512 C2522 0.950 . S
H2513 C2524 0.950 . S
H2514 C2526 0.950 . S
H2515 C2527 0.950 . S
C2516 H2508 0.950 . S
C2516 C2517 1.386 . S
C2516 C2518 1.391 . S
C2517 C2516 1.386 . S
C2517 C2521 1.393 . S
C2518 H2510 0.950 . S
C2518 C2516 1.391 . S
C2518 C2519 1.400 . S
C2519 C2518 1.400 . S
C2519 C2520 1.398 . S
C2519 C2525 1.491 1_455 S
C2520 H2511 0.950 . S
C2520 C2519 1.398 . S
C2520 C2521 1.391 . S
C2521 H2509 0.950 . S
C2521 C2517 1.393 . S
C2521 C2520 1.391 . S
C2522 H2512 0.950 . S
C2522 C2523 1.386 . S
C2522 C2524 1.391 . S
C2523 C2522 1.386 . S
C2523 C2527 1.393 . S
C2524 H2513 0.950 . S
C2524 C2522 1.391 . S
C2524 C2525 1.400 . S
C2525 C2519 1.491 1_655 S
C2525 C2524 1.400 . S
C2525 C2526 1.398 . S
C2526 H2514 0.950 . S
C2526 C2525 1.398 . S
C2526 C2527 1.391 . S
C2527 H2515 0.950 . S
C2527 C2523 1.393 . S
C2527 C2526 1.391 . S
H2528 C2536 0.950 . S
H2529 C2541 0.950 1_455 S
H2530 C2538 0.950 . S
H2531 C2540 0.950 . S
H2532 C2542 0.950 . S
H2533 C2544 0.950 . S
H2534 C2546 0.950 . S
H2535 C2547 0.950 1_655 S
C2536 H2528 0.950 . S
C2536 C2537 1.386 . S
C2536 C2538 1.391 . S
C2537 C2536 1.386 . S
C2537 C2541 1.393 . S
C2538 H2530 0.950 . S
C2538 C2536 1.391 . S
C2538 C2539 1.400 . S
C2539 C2538 1.400 . S
C2539 C2540 1.398 1_655 S
C2539 C2545 1.491 1_655 S
C2540 H2531 0.950 . S
C2540 C2539 1.398 1_455 S
C2540 C2541 1.391 1_455 S
C2541 H2529 0.950 1_655 S
C2541 C2537 1.393 . S
C2541 C2540 1.391 1_655 S
C2542 H2532 0.950 . S
C2542 C2543 1.386 . S
C2542 C2544 1.391 . S
C2543 C2542 1.386 . S
C2543 C2547 1.393 . S
C2544 H2533 0.950 . S
C2544 C2542 1.391 . S
C2544 C2545 1.400 . S
C2545 C2539 1.491 1_455 S
C2545 C2544 1.400 . S
C2545 C2546 1.398 1_455 S
C2546 H2534 0.950 . S
C2546 C2545 1.398 1_655 S
C2546 C2547 1.391 1_655 S
C2547 H2535 0.950 1_455 S
C2547 C2543 1.393 . S
C2547 C2546 1.391 1_455 S
H2548 C2556 0.950 . S
H2549 C2561 0.950 . S
H2550 C2558 0.950 . S
H2551 C2560 0.950 . S
H2552 C2562 0.950 . S
H2553 C2564 0.950 . S
H2554 C2566 0.950 . S
H2555 C2567 0.950 . S
C2556 H2548 0.950 . S
C2556 C2557 1.386 . S
C2556 C2558 1.391 . S
C2557 C2556 1.386 . S
C2557 C2561 1.393 . S
C2558 H2550 0.950 . S
C2558 C2556 1.391 . S
C2558 C2559 1.400 . S
C2559 C2558 1.400 . S
C2559 C2560 1.398 . S
C2559 C2565 1.491 1_455 S
C2560 H2551 0.950 . S
C2560 C2559 1.398 . S
C2560 C2561 1.391 . S
C2561 H2549 0.950 . S
C2561 C2557 1.393 . S
C2561 C2560 1.391 . S
C2562 H2552 0.950 . S
C2562 C2563 1.386 . S
C2562 C2564 1.391 . S
C2563 C2562 1.386 . S
C2563 C2567 1.393 . S
C2564 H2553 0.950 . S
C2564 C2562 1.391 . S
C2564 C2565 1.400 . S
C2565 C2559 1.491 1_655 S
C2565 C2564 1.400 . S
C2565 C2566 1.398 . S
C2566 H2554 0.950 . S
C2566 C2565 1.398 . S
C2566 C2567 1.391 . S
C2567 H2555 0.950 . S
C2567 C2563 1.393 . S
C2567 C2566 1.391 . S
H2568 C2576 0.950 . S
H2569 C2581 0.950 . S
H2570 C2578 0.950 . S
H2571 C2580 0.950 . S
H2572 C2582 0.950 . S
H2573 C2584 0.950 . S
H2574 C2586 0.950 . S
H2575 C2587 0.950 . S
C2576 H2568 0.950 . S
C2576 C2577 1.386 . S
C2576 C2578 1.391 . S
C2577 C2576 1.386 . S
C2577 C2581 1.393 . S
C2578 H2570 0.950 . S
C2578 C2576 1.391 . S
C2578 C2579 1.400 . S
C2579 C2578 1.400 . S
C2579 C2580 1.398 . S
C2579 C2585 1.491 . S
C2580 H2571 0.950 . S
C2580 C2579 1.398 . S
C2580 C2581 1.391 . S
C2581 H2569 0.950 . S
C2581 C2577 1.393 . S
C2581 C2580 1.391 . S
C2582 H2572 0.950 . S
C2582 C2583 1.386 . S
C2582 C2584 1.391 . S
C2583 C2582 1.386 . S
C2583 C2587 1.393 . S
C2584 H2573 0.950 . S
C2584 C2582 1.391 . S
C2584 C2585 1.400 . S
C2585 C2579 1.491 . S
C2585 C2584 1.400 . S
C2585 C2586 1.398 . S
C2586 H2574 0.950 . S
C2586 C2585 1.398 . S
C2586 C2587 1.391 . S
C2587 H2575 0.950 . S
C2587 C2583 1.393 . S
C2587 C2586 1.391 . S
H2588 C2596 0.950 . S
H2589 C2601 0.950 . S
H2590 C2598 0.950 . S
H2591 C2600 0.950 . S
H2592 C2602 0.950 . S
H2593 C2604 0.950 . S
H2594 C2606 0.950 . S
H2595 C2607 0.950 . S
C2596 H2588 0.950 . S
C2596 C2597 1.386 . S
C2596 C2598 1.391 . S
C2597 C2596 1.386 . S
C2597 C2601 1.393 . S
C2598 H2590 0.950 . S
C2598 C2596 1.391 . S
C2598 C2599 1.400 . S
C2599 C2598 1.400 . S
C2599 C2600 1.398 . S
C2599 C2605 1.491 . S
C2600 H2591 0.950 . S
C2600 C2599 1.398 . S
C2600 C2601 1.391 . S
C2601 H2589 0.950 . S
C2601 C2597 1.393 . S
C2601 C2600 1.391 . S
C2602 H2592 0.950 . S
C2602 C2603 1.386 . S
C2602 C2604 1.391 . S
C2603 C2602 1.386 . S
C2603 C2607 1.393 . S
C2604 H2593 0.950 . S
C2604 C2602 1.391 . S
C2604 C2605 1.400 . S
C2605 C2599 1.491 . S
C2605 C2604 1.400 . S
C2605 C2606 1.398 . S
C2606 H2594 0.950 . S
C2606 C2605 1.398 . S
C2606 C2607 1.391 . S
C2607 H2595 0.950 . S
C2607 C2603 1.393 . S
C2607 C2606 1.391 . S
H2608 C2616 0.950 . S
H2609 C2621 0.950 . S
H2610 C2618 0.950 . S
H2611 C2620 0.950 1_455 S
H2612 C2622 0.950 . S
H2613 C2624 0.950 . S
H2614 C2626 0.950 1_655 S
H2615 C2627 0.950 . S
C2616 H2608 0.950 . S
C2616 C2617 1.386 . S
C2616 C2618 1.391 . S
C2617 C2616 1.386 . S
C2617 C2621 1.393 . S
C2618 H2610 0.950 . S
C2618 C2616 1.391 . S
C2618 C2619 1.400 . S
C2619 C2618 1.400 . S
C2619 C2620 1.398 . S
C2619 C2625 1.491 1_655 S
C2620 H2611 0.950 1_655 S
C2620 C2619 1.398 . S
C2620 C2621 1.391 . S
C2621 H2609 0.950 . S
C2621 C2617 1.393 . S
C2621 C2620 1.391 . S
C2622 H2612 0.950 . S
C2622 C2623 1.386 . S
C2622 C2624 1.391 . S
C2623 C2622 1.386 . S
C2623 C2627 1.393 . S
C2624 H2613 0.950 . S
C2624 C2622 1.391 . S
C2624 C2625 1.400 . S
C2625 C2619 1.491 1_455 S
C2625 C2624 1.400 . S
C2625 C2626 1.398 . S
C2626 H2614 0.950 1_455 S
C2626 C2625 1.398 . S
C2626 C2627 1.391 . S
C2627 H2615 0.950 . S
C2627 C2623 1.393 . S
C2627 C2626 1.391 . S
H2628 C2636 0.950 . S
H2629 C2641 0.950 . S
H2630 C2638 0.950 . S
H2631 C2640 0.950 . S
H2632 C2642 0.950 . S
H2633 C2644 0.950 . S
H2634 C2646 0.950 . S
H2635 C2647 0.950 . S
C2636 H2628 0.950 . S
C2636 C2637 1.386 . S
C2636 C2638 1.391 . S
C2637 C2636 1.386 . S
C2637 C2641 1.393 . S
C2638 H2630 0.950 . S
C2638 C2636 1.391 . S
C2638 C2639 1.400 . S
C2639 C2638 1.400 . S
C2639 C2640 1.398 . S
C2639 C2645 1.491 . S
C2640 H2631 0.950 . S
C2640 C2639 1.398 . S
C2640 C2641 1.391 . S
C2641 H2629 0.950 . S
C2641 C2637 1.393 . S
C2641 C2640 1.391 . S
C2642 H2632 0.950 . S
C2642 C2643 1.386 . S
C2642 C2644 1.391 . S
C2643 C2642 1.386 . S
C2643 C2647 1.393 . S
C2644 H2633 0.950 . S
C2644 C2642 1.391 . S
C2644 C2645 1.400 . S
C2645 C2639 1.491 . S
C2645 C2644 1.400 . S
C2645 C2646 1.398 . S
C2646 H2634 0.950 . S
C2646 C2645 1.398 . S
C2646 C2647 1.391 . S
C2647 H2635 0.950 . S
C2647 C2643 1.393 . S
C2647 C2646 1.391 . S
H2648 C2656 0.950 . S
H2649 C2661 0.950 . S
H2650 C2658 0.950 . S
H2651 C2660 0.950 . S
H2652 C2662 0.950 . S
H2653 C2664 0.950 . S
H2654 C2666 0.950 . S
H2655 C2667 0.950 . S
C2656 H2648 0.950 . S
C2656 C2657 1.386 . S
C2656 C2658 1.391 . S
C2657 C2656 1.386 . S
C2657 C2661 1.393 . S
C2658 H2650 0.950 . S
C2658 C2656 1.391 . S
C2658 C2659 1.400 . S
C2659 C2658 1.400 . S
C2659 C2660 1.398 . S
C2659 C2665 1.491 . S
C2660 H2651 0.950 . S
C2660 C2659 1.398 . S
C2660 C2661 1.391 . S
C2661 H2649 0.950 . S
C2661 C2657 1.393 . S
C2661 C2660 1.391 . S
C2662 H2652 0.950 . S
C2662 C2663 1.386 . S
C2662 C2664 1.391 . S
C2663 C2662 1.386 . S
C2663 C2667 1.393 . S
C2664 H2653 0.950 . S
C2664 C2662 1.391 . S
C2664 C2665 1.400 . S
C2665 C2659 1.491 . S
C2665 C2664 1.400 . S
C2665 C2666 1.398 . S
C2666 H2654 0.950 . S
C2666 C2665 1.398 . S
C2666 C2667 1.391 . S
C2667 H2655 0.950 . S
C2667 C2663 1.393 . S
C2667 C2666 1.391 . S
H2668 C2676 0.950 . S
H2669 C2681 0.950 . S
H2670 C2678 0.950 . S
H2671 C2680 0.950 . S
H2672 C2682 0.950 . S
H2673 C2684 0.950 . S
H2674 C2686 0.950 . S
H2675 C2687 0.950 . S
C2676 H2668 0.950 . S
C2676 C2677 1.386 . S
C2676 C2678 1.391 . S
C2677 C2676 1.386 . S
C2677 C2681 1.393 . S
C2678 H2670 0.950 . S
C2678 C2676 1.391 . S
C2678 C2679 1.400 . S
C2679 C2678 1.400 . S
C2679 C2680 1.398 . S
C2679 C2685 1.491 1_655 S
C2680 H2671 0.950 . S
C2680 C2679 1.398 . S
C2680 C2681 1.391 . S
C2681 H2669 0.950 . S
C2681 C2677 1.393 . S
C2681 C2680 1.391 . S
C2682 H2672 0.950 . S
C2682 C2683 1.386 . S
C2682 C2684 1.391 . S
C2683 C2682 1.386 . S
C2683 C2687 1.393 . S
C2684 H2673 0.950 . S
C2684 C2682 1.391 . S
C2684 C2685 1.400 . S
C2685 C2679 1.491 1_455 S
C2685 C2684 1.400 . S
C2685 C2686 1.398 . S
C2686 H2674 0.950 . S
C2686 C2685 1.398 . S
C2686 C2687 1.391 . S
C2687 H2675 0.950 . S
C2687 C2683 1.393 . S
C2687 C2686 1.391 . S
C1097 C951 1.139 . S
C1103 C2 1.129 . S
C1117 C305 1.130 . S
C1123 C36 1.136 . S
C1137 C883 1.139 . S
C1143 C70 1.129 . S
C1157 C104 1.130 . S
C1163 C373 1.138 . S
C1177 C1019 1.124 . S
C1183 C138 1.139 . S
C1197 C509 1.115 . S
C1203 C172 1.146 . S
C1217 C206 1.131 . S
C1223 C1087 1.136 . S
C1237 C240 1.146 . S
C1243 C441 1.115 . S
C1257 C679 1.140 . S
C1263 C274 1.129 . S
C1277 C33 1.118 . S
C1283 C308 1.144 . S
C1297 C342 1.144 . S
C1303 C611 1.117 . S
C1317 C376 1.129 . S
C1323 C101 1.139 . S
C1337 C410 1.138 . S
C1343 C747 1.124 . S
C1357 C444 1.129 . S
C1363 C237 1.139 . S
C1377 C815 1.138 . S
C1383 C478 1.129 . S
C1397 C169 1.118 . S
C1403 C512 1.144 . S
C1417 C407 1.131 . S
C1423 C546 1.134 . S
C1437 C580 1.139 . S
C1443 C849 1.126 . S
C1457 C339 1.138 . S
C1463 C614 1.130 . S
C1477 C648 1.129 . S
C1483 C917 1.139 . S
C1497 C475 1.118 . S
C1503 C682 1.143 . S
C1517 C1053 1.115 . S
C1523 C716 1.146 . S
C1537 C543 1.117 . S
C1543 C750 1.145 . S
C1557 C784 1.129 . S
C1563 C985 1.139 . S
C1577 C818 1.133 . S
C1583 C135 1.132 . S
C1597 C577 1.138 . S
C1603 C852 1.129 . S
C1617 C67 1.126 . S
C1623 C886 1.139 . S
C1637 C920 1.128 . S
C1643 C645 1.140 . S
C1657 C954 1.137 . S
C1663 C203 1.126 . S
C1677 C988 1.142 . S
C1683 C781 1.121 . S
C1697 C271 1.120 . S
C1703 C1022 1.143 . S
C1717 C1056 1.146 . S
C1723 C713 1.115 . S
C1737 C9 1.373 1_565 S
C1743 C179 1.369 . S
C1757 C213 1.394 1_565 S
C1763 C43 1.386 . S
C1777 C247 1.367 . S
C1783 C77 1.388 1_545 S
C1797 C111 1.367 . S
C1803 C145 1.378 1_545 S
C1817 C281 1.392 1_545 S
C1823 C451 1.369 . S
C1837 C315 1.367 . S
C1843 C485 1.376 1_545 S
C1857 C349 1.374 1_565 S
C1863 C519 1.395 . S
C1877 C383 1.393 . S
C1883 C417 1.389 1_565 S
C1897 C723 1.385 . S
C1903 C553 1.395 . S
C1917 C587 1.396 . S
C1923 C757 1.380 . S
C1937 C621 1.394 . S
C1943 C791 1.371 . S
C1957 C689 1.380 . S
C1963 C655 1.366 . S
C1977 C995 1.376 . S
C1983 C825 1.367 . S
C1997 C1029 1.367 . S
C2003 C859 1.376 . S
C2017 C1063 1.396 . S
C2023 C893 1.380 . S
C2037 C961 1.376 . S
C2043 C927 1.368 . S
C2057 C20 1.362 . S
C2063 C156 1.362 . S
C2077 C54 1.358 . S
C2083 C190 1.359 . S
C2097 C224 1.360 . S
C2103 C88 1.362 . S
C2117 C258 1.361 . S
C2123 C122 1.360 . S
C2137 C292 1.357 . S
C2143 C428 1.358 . S
C2157 C462 1.360 . S
C2163 C326 1.358 . S
C2177 C360 1.360 . S
C2183 C496 1.362 . S
C2197 C530 1.359 . S
C2203 C394 1.361 . S
C2217 C564 1.358 . S
C2223 C700 1.358 . S
C2237 C598 1.362 . S
C2243 C734 1.361 . S
C2257 C632 1.362 . S
C2263 C768 1.362 . S
C2277 C666 1.362 . S
C2283 C802 1.360 . S
C2297 C972 1.358 . S
C2303 C836 1.357 . S
C2317 C870 1.357 . S
C2323 C1006 1.359 . S
C2337 C904 1.358 . S
C2343 C1040 1.360 . S
C2357 C938 1.360 . S
C2363 C1074 1.361 . S
C2377 C5 0.900 . S
C2383 C617 0.869 . S
C2397 C651 0.865 . S
C2403 C39 0.883 . S
C2417 C73 0.864 . S
C2423 C549 0.887 . S
C2437 C107 0.869 . S
C2443 C583 0.900 . S
C2457 C753 0.900 . S
C2463 C141 0.869 . S
C2477 C787 0.876 . S
C2483 C175 0.903 . S
C2497 C209 0.897 . S
C2503 C685 0.894 . S
C2517 C243 0.884 . S
C2523 C719 0.865 . S
C2537 C277 0.873 . S
C2543 C889 0.902 . S
C2557 C923 0.882 . S
C2563 C311 0.865 . S
C2577 C821 0.887 . S
C2583 C345 0.902 . S
C2597 C379 0.887 . S
C2603 C855 0.864 . S
C2617 C413 0.890 . S
C2623 C1025 0.900 . S
C2637 C447 0.877 . S
C2643 C1059 0.868 . S
C2657 C481 0.886 . S
C2663 C957 0.864 . S
C2677 C515 0.880 . S
C2683 C991 0.903 . S
