# Generated by pormake.
# Topology kag, (6)-cn, num edge types: 1
# Building blocks:
#     Node 0, Type 0, BuildingBlock: KUMJIN_clean_sbu_1, # of connection points: 6
#     Node 1, Type 0, BuildingBlock: KUMJIN_clean_sbu_1, # of connection points: 6
#     Node 2, Type 0, BuildingBlock: KUMJIN_clean_sbu_1, # of connection points: 6
#     Edge 3, Type (0, 0), BuildingBlock: MIFKUJ_clean_linker_0, # of connection points: 2
#     Edge 4, Type (0, 0), BuildingBlock: MIFKUJ_clean_linker_0, # of connection points: 2
#     Edge 5, Type (0, 0), BuildingBlock: MIFKUJ_clean_linker_0, # of connection points: 2
#     Edge 6, Type (0, 0), BuildingBlock: MIFKUJ_clean_linker_0, # of connection points: 2
#     Edge 7, Type (0, 0), BuildingBlock: MIFKUJ_clean_linker_0, # of connection points: 2
#     Edge 8, Type (0, 0), BuildingBlock: MIFKUJ_clean_linker_0, # of connection points: 2
#     Edge 9, Type (0, 0), BuildingBlock: MIFKUJ_clean_linker_0, # of connection points: 2
#     Edge 10, Type (0, 0), BuildingBlock: MIFKUJ_clean_linker_0, # of connection points: 2
#     Edge 11, Type (0, 0), BuildingBlock: MIFKUJ_clean_linker_0, # of connection points: 2
# Relax obj value: 0.072
# Max RMSD: 0.170
# Mean RMSD: 0.112
data_MOF--net-kag--node1-KUMJIN_clean_sbu_1--edge1-MIFKUJ_clean_linker_0
_symmetry_space_group_name_H-M    P1
_symmetry_Int_Tables_number       1
_symmetry_cell_setting            triclinic
loop_
_symmetry_equiv_pos_as_xyz
'x, y, z'
_cell_length_a     40.910881
_cell_length_b     49.625255
_cell_length_c     19.508203
_cell_angle_alpha  108.54986
_cell_angle_beta   96.25708
_cell_angle_gamma 103.53236
loop_
_atom_site_label
_atom_site_type_symbol
_atom_site_fract_x
_atom_site_fract_y
_atom_site_fract_z
_atom_type_partial_charge
Eu0 Eu 0.03023 0.54011 0.03121 0.0
C1 C 0.0591 0.42239 0.91892 0.0
N2 N 0.04042 0.43714 0.89031 0.0
C3 C 0.06536 0.42677 0.78269 0.0
C4 C 0.08296 0.41048 0.88141 0.0
C5 C 0.04207 0.43825 0.82182 0.0
C6 C 0.08613 0.41308 0.81291 0.0
C7 C 0.07527 0.40589 0.01917 0.0
C8 C 0.05508 0.41987 0.98711 0.0
C9 C 0.09906 0.39412 0.98178 0.0
C10 C 0.10286 0.39637 0.91316 0.0
Eu11 Eu 1.00076 0.45388 0.95986 0.0
N12 N 0.03257 0.43224 0.02349 0.0
C13 C 0.07144 0.40464 0.08863 0.0
C14 C 0.02799 0.43033 0.09019 0.0
C15 C 0.04774 0.41692 0.12424 0.0
H16 H 0.02463 0.44683 0.79571 0.0
H17 H 0.04467 0.41598 0.17785 0.0
H18 H 1.00879 0.5517 0.19741 0.0
H19 H 0.9931 0.58093 0.81401 0.0
H20 H 1.00881 0.43866 0.11689 0.0
H21 H 0.08667 0.39426 0.11527 0.0
H22 H 0.02663 0.55707 0.87611 0.0
H23 H 0.06683 0.428 0.72865 0.0
H24 H 0.11483 0.38335 0.00571 0.0
H25 H 0.12139 0.38721 0.88516 0.0
H26 H 0.97023 0.5753 0.26778 0.0
H27 H 0.104 0.404 0.78227 0.0
H28 H 0.9532 0.60576 0.8766 0.0
N29 N 0.99399 0.56169 0.10277 0.0
C30 C 0.97716 0.5776 0.07441 0.0
C31 C 0.97146 0.57567 0.21294 0.0
C32 C 0.95522 0.59191 0.11315 0.0
C33 C 0.99272 0.56166 0.17223 0.0
C34 C 0.95228 0.59054 0.1829 0.0
N35 N 1.00271 0.565 0.96924 0.0
C36 C 1.00804 0.56647 0.90255 0.0
C37 C 0.96294 0.59417 0.97339 0.0
C38 C 0.9813 0.57898 0.00546 0.0
C39 C 0.96714 0.59461 0.90347 0.0
C40 C 0.98976 0.58069 0.86797 0.0
H41 H 0.93579 0.60135 0.21455 0.0
H42 H 0.91994 0.61814 0.11016 0.0
H43 H 0.92643 0.61989 0.98766 0.0
O44 O 0.06263 0.58312 0.039 0.0
O45 O 0.97061 0.51994 0.9952 0.0
O46 O 0.95567 0.47197 0.99468 0.0
O47 O 0.0672 0.56856 0.13222 0.0
O48 O 0.03686 0.51709 0.91646 0.0
O49 O 0.99013 0.47635 0.8776 0.0
O50 O 0.96905 0.41207 0.96225 0.0
O51 O 0.05931 0.47771 0.01039 0.0
O52 O 0.07075 0.51928 0.98032 0.0
O53 O 0.9717 0.41852 0.85825 0.0
O54 O 0.99042 0.47541 0.07232 0.0
O55 O 0.03696 0.51632 0.11164 0.0
C56 C 0.94732 0.49621 0.99474 0.0
C57 C 0.11794 0.59435 0.10703 0.0
C58 C 0.16991 0.62466 0.08914 0.0
C59 C 0.18733 0.60427 0.09713 0.0
C60 C 0.13579 0.57431 0.11619 0.0
C61 C 0.17036 0.57938 0.11152 0.0
C62 C 0.1353 0.61972 0.09467 0.0
C63 C 1.01228 0.49696 0.86416 0.0
C64 C 0.08072 0.58771 0.10297 0.0
C65 C 0.93703 0.60712 0.08131 0.0
C66 C 0.94078 0.60816 0.01157 0.0
C67 C 0.08133 0.4982 0.9951 0.0
C68 C 0.91998 0.38698 0.86584 0.0
C69 C 0.86928 0.34823 0.86134 0.0
C70 C 0.85074 0.35545 0.80784 0.0
C71 C 0.90059 0.39429 0.81411 0.0
C72 C 0.90408 0.36435 0.89014 0.0
C73 C 0.86617 0.37858 0.78546 0.0
C74 C 1.0129 0.49731 0.12549 0.0
C75 C 0.95719 0.40132 0.8914 0.0
H76 H 0.21406 0.60776 0.09285 0.0
H77 H 0.12291 0.55443 0.12538 0.0
H78 H 0.18387 0.56373 0.11795 0.0
H79 H 0.12156 0.63508 0.08672 0.0
H80 H 0.82431 0.34314 0.78239 0.0
H81 H 0.91207 0.41178 0.79474 0.0
H82 H 0.91905 0.35943 0.9315 0.0
H83 H 0.8515 0.38404 0.74481 0.0
Eu84 Eu 0.472 0.97882 0.96392 0.0
C85 C 0.61407 0.96728 0.04142 0.0
N86 N 0.59919 0.98615 0.0851 0.0
C87 C 0.61805 0.97402 0.18907 0.0
C88 C 0.63095 0.95033 0.07011 0.0
C89 C 0.60155 0.99035 0.15825 0.0
C90 C 0.63268 0.9538 0.14473 0.0
C91 C 0.62724 0.94519 0.92149 0.0
C92 C 0.61199 0.96471 0.96762 0.0
C93 C 0.64395 0.92821 0.94987 0.0
C94 C 0.64572 0.93068 0.02382 0.0
Eu95 Eu 0.5741 0.01399 0.03024 0.0
N96 N 0.59642 0.98203 0.94179 0.0
C97 C 0.62625 0.94394 0.84863 0.0
C98 C 0.59824 0.98273 0.87281 0.0
C99 C 0.61205 0.96306 0.82454 0.0
H100 H 0.59056 0.00625 0.19249 0.0
H101 H 0.61254 0.96322 0.76936 0.0
H102 H 0.44994 0.95915 0.78026 0.0
H103 H 0.42251 0.04736 0.18323 0.0
H104 H 0.59044 -0.00094 0.85499 0.0
H105 H 0.63753 0.9291 0.81143 0.0
H106 H 0.45528 0.01286 0.13015 0.0
H107 H 0.61956 0.97707 0.2469 0.0
H108 H 0.65624 0.91356 0.91522 0.0
H109 H 0.65897 0.91758 0.04496 0.0
H110 H 0.41643 0.97305 0.69055 0.0
H111 H 0.64542 0.94112 0.16871 0.0
H112 H 0.38791 0.06426 0.10211 0.0
N113 N 0.43904 0.98906 0.87369 0.0
C114 C 0.42021 0.00801 0.89903 0.0
C115 C 0.41758 0.98331 0.74907 0.0
C116 C 0.39988 0.01595 0.84989 0.0
C117 C 0.43714 0.97594 0.79991 0.0
C118 C 0.3991 0.00363 0.7742 0.0
N119 N 0.44104 0.01141 0.02056 0.0
C120 C 0.44094 0.02048 0.09432 0.0
C121 C 0.40141 0.0387 0.00236 0.0
C122 C 0.42086 0.01922 0.97441 0.0
C123 C 0.40247 0.04922 0.07848 0.0
C124 C 0.42207 0.03983 0.12452 0.0
H125 H 0.3838 0.00919 0.73467 0.0
H126 H 0.36515 0.04214 0.84075 0.0
H127 H 0.36656 0.06208 0.97412 0.0
O128 O 0.44575 0.9467 0.0091 0.0
O129 O 0.48936 0.0298 0.00119 0.0
O130 O 0.54858 0.04794 0.01703 0.0
O131 O 0.4275 0.94224 0.89668 0.0
O132 O 0.49529 0.98425 0.08038 0.0
O133 O 0.54308 0.02495 0.11962 0.0
O134 O 0.62336 0.03997 0.02008 0.0
O135 O 0.54744 0.9685 0.03301 0.0
O136 O 0.50813 0.95129 0.92749 0.0
O137 O 0.60884 0.0484 0.12836 0.0
O138 O 0.54991 0.01619 0.92184 0.0
O139 O 0.50407 0.97419 0.87553 0.0
C140 C 0.51766 0.05141 0.01315 0.0
C141 C 0.38671 0.9253 0.96066 0.0
C142 C 0.33869 0.89137 0.98108 0.0
C143 C 0.31982 0.91199 0.98611 0.0
C144 C 0.36746 0.94552 0.96479 0.0
C145 C 0.33415 0.93887 0.97755 0.0
C146 C 0.37218 0.89814 0.96813 0.0
C147 C 0.51872 0.00594 0.1332 0.0
C148 C 0.42206 0.93224 0.94968 0.0
C149 C 0.3808 0.03568 0.87766 0.0
C150 C 0.38156 0.04701 0.95363 0.0
C151 C 0.52712 0.94601 0.97725 0.0
C152 C 0.66407 0.0786 0.12458 0.0
C153 C 0.70957 0.11904 0.11941 0.0
C154 C 0.72683 0.12228 0.18922 0.0
C155 C 0.68129 0.08242 0.19468 0.0
C156 C 0.67815 0.09702 0.08716 0.0
C157 C 0.71265 0.1041 0.22662 0.0
C158 C 0.52563 0.99651 0.86698 0.0
C159 C 0.63161 0.0553 0.09048 0.0
H160 H 0.29387 0.90713 0.99578 0.0
H161 H 0.37808 0.96635 0.95813 0.0
H162 H 0.31942 0.95458 0.98084 0.0
H163 H 0.38712 0.88254 0.96513 0.0
H164 H 0.75102 0.13922 0.21537 0.0
H165 H 0.6707 0.06838 0.22424 0.0
H166 H 0.66474 0.09421 0.0331 0.0
H167 H 0.72599 0.10687 0.28054 0.0
Eu168 Eu 0.49937 0.45383 0.97274 0.0
C169 C 0.60261 0.58147 0.09314 0.0
N170 N 0.57661 0.56594 0.116 0.0
C171 C 0.6107 0.58413 0.23812 0.0
C172 C 0.63408 0.59832 0.1421 0.0
C173 C 0.57985 0.56792 0.18796 0.0
C174 C 0.638 0.59925 0.21504 0.0
C175 C 0.62466 0.5957 0.99487 0.0
C176 C 0.59788 0.58037 0.02015 0.0
C177 C 0.6559 0.6125 0.04375 0.0
C178 C 0.66046 0.61401 0.1172 0.0
Eu179 Eu 0.52481 0.54244 0.02779 0.0
N180 N 0.5673 0.56403 0.97368 0.0
C181 C 0.61912 0.59395 0.92128 0.0
C182 C 0.56133 0.56322 0.90289 0.0
C183 C 0.58722 0.57781 0.87528 0.0
H184 H 0.55857 0.55795 0.20814 0.0
H185 H 0.58232 0.5771 0.819 0.0
H186 H 0.48626 0.43134 0.78395 0.0
H187 H 0.41284 0.41854 0.1395 0.0
H188 H 0.53622 0.55241 0.86876 0.0
H189 H 0.63909 0.6054 0.89981 0.0
H190 H 0.46819 0.44247 0.11483 0.0
H191 H 0.61318 0.58541 0.29496 0.0
H192 H 0.67659 0.62467 0.02542 0.0
H193 H 0.68445 0.62762 0.15459 0.0
H194 H 0.43752 0.41159 0.6796 0.0
H195 H 0.66179 0.61198 0.25427 0.0
H196 H 0.36042 0.39889 0.04193 0.0
N197 N 0.45528 0.4333 0.86551 0.0
C198 C 0.42331 0.4227 0.87739 0.0
C199 C 0.43306 0.41526 0.7351 0.0
C200 C 0.39471 0.40941 0.81831 0.0
C201 C 0.46069 0.42753 0.79499 0.0
C202 C 0.39981 0.40677 0.74698 0.0
N203 N 0.44715 0.43571 0.00424 0.0
C204 C 0.44537 0.43376 0.07202 0.0
C205 C 0.38706 0.41014 0.96028 0.0
C206 C 0.41933 0.42307 0.94785 0.0
C207 C 0.38468 0.40902 0.03051 0.0
C208 C 0.41412 0.42036 0.08611 0.0
H209 H 0.37849 0.39674 0.70026 0.0
H210 H 0.33996 0.38794 0.78684 0.0
H211 H 0.33333 0.38847 0.91091 0.0
O212 O 0.51052 0.4236 0.02704 0.0
O213 O 0.45978 0.47914 0.01717 0.0
O214 O 0.46781 0.51786 0.97527 0.0
O215 O 0.49941 0.40876 0.90865 0.0
O216 O 0.5289 0.48301 0.08729 0.0
O217 O 0.50909 0.5239 0.11633 0.0
O218 O 0.51702 0.5816 0.00441 0.0
O219 O 0.57133 0.5226 0.01217 0.0
O220 O 0.55771 0.47141 0.98301 0.0
O221 O 0.51056 0.57685 0.11008 0.0
O222 O 0.49862 0.51349 0.91043 0.0
O223 O 0.51921 0.47289 0.88789 0.0
C224 C 0.4473 0.49805 0.99505 0.0
C225 C 0.53299 0.38524 0.96304 0.0
C226 C 0.54958 0.34157 0.97023 0.0
C227 C 0.58182 0.35366 0.95618 0.0
C228 C 0.56532 0.3967 0.94963 0.0
C229 C 0.58956 0.38096 0.94625 0.0
C230 C 0.52512 0.35768 0.9733 0.0
C231 C 0.51811 0.50279 0.13407 0.0
C232 C 0.50728 0.40177 0.96593 0.0
C233 C 0.3622 0.39796 0.83152 0.0
C234 C 0.35842 0.39818 0.90216 0.0
C235 C 0.58031 0.49754 -0.00207 0.0
C236 C 0.50137 0.62163 0.09456 0.0
C237 C 0.49924 0.66952 0.08565 0.0
C238 C 0.48516 0.67559 0.1494 0.0
C239 C 0.48727 0.62855 0.15831 0.0
C240 C 0.5072 0.64228 0.05771 0.0
C241 C 0.47915 0.65522 0.18518 0.0
C242 C 0.50971 0.49302 0.86637 0.0
C243 C 0.51013 0.59308 0.06907 0.0
H244 H 0.60107 0.34183 0.95169 0.0
H245 H 0.57171 0.41772 0.94128 0.0
H246 H 0.61443 0.38988 0.93543 0.0
H247 H 0.50017 0.34906 0.98441 0.0
H248 H 0.47885 0.69628 0.17167 0.0
H249 H 0.48242 0.61326 0.18767 0.0
H250 H 0.51833 0.63751 0.00883 0.0
H251 H 0.46826 0.6602 0.23431 0.0
H252 H 0.06688 0.51453 0.80532 0.0
H253 H 0.06703 0.51471 0.6806 0.0
H254 H 0.95671 0.47932 0.62597 0.0
H255 H 0.95678 0.47764 0.75048 0.0
H256 H 0.98162 0.45349 0.51558 0.0
H257 H 1.00324 0.55842 0.66543 0.0
H258 H 0.03451 0.60583 0.76598 0.0
H259 H 0.12801 0.602 0.68846 0.0
H260 H 0.09739 0.55507 0.58664 0.0
H261 H 0.9578 0.48122 0.18472 0.0
H262 H 0.95744 0.48338 0.31152 0.0
H263 H 0.06786 0.51777 0.36538 0.0
H264 H 0.068 0.51734 0.2394 0.0
H265 H 0.04313 0.54442 0.47592 0.0
H266 H 0.02461 0.44151 0.32913 0.0
H267 H 0.99472 0.39747 0.21846 0.0
H268 H 0.89881 0.39753 0.28789 0.0
H269 H 0.928 0.44138 0.39915 0.0
C270 C 0.04262 0.50686 0.76674 0.0
C271 C 1.01174 0.49638 0.78773 0.0
C272 C 0.0427 0.50718 0.69548 0.0
C273 C 1.01179 0.4979 0.64411 0.0
C274 C 0.98091 0.48686 0.66464 0.0
C275 C 0.98091 0.4859 0.73571 0.0
C276 C 1.01182 0.49919 0.56874 0.0
C277 C 0.9947 0.47354 0.5072 0.0
C278 C 0.02975 0.525 0.55701 0.0
C279 C 0.04806 0.55312 0.61874 0.0
C280 C 0.03049 0.56763 0.67006 0.0
C281 C 0.04806 0.59439 0.72719 0.0
C282 C 0.08319 0.60667 0.73401 0.0
C283 C 0.10081 0.59241 0.68325 0.0
C284 C 0.08335 0.56585 0.62557 0.0
C285 C 0.98196 0.48923 0.22374 0.0
C286 C 1.01295 0.49876 0.20226 0.0
C287 C 0.98179 0.49037 0.29614 0.0
C288 C 1.01272 0.49998 0.34781 0.0
C289 C 0.04368 0.51012 0.32663 0.0
C290 C 0.04376 0.50975 0.25462 0.0
C291 C 1.01279 0.49888 0.4233 0.0
C292 C 0.03001 0.52444 0.48461 0.0
C293 C 0.99542 0.47293 0.4349 0.0
C294 C 0.97844 0.44482 0.3722 0.0
C295 C 0.99718 0.43198 0.32106 0.0
C296 C 0.98038 0.40717 0.25812 0.0
C297 C 0.94493 0.39502 0.24573 0.0
C298 C 0.92627 0.40708 0.29734 0.0
C299 C 0.94294 0.4318 0.36061 0.0
H300 H 0.93199 0.37626 0.19605 0.0
H301 H 0.0967 0.62732 0.77841 0.0
H302 H 0.48281 0.96345 0.17907 0.0
H303 H 0.48432 0.96384 0.30432 0.0
H304 H 0.55594 0.0514 0.38876 0.0
H305 H 0.55544 0.05074 0.26238 0.0
H306 H 0.57548 0.01951 0.45943 0.0
H307 H 0.46934 0.03848 0.40187 0.0
H308 H 0.41295 0.03037 0.32696 0.0
H309 H 0.37697 0.94523 0.34714 0.0
H310 H 0.4334 0.9526 0.42098 0.0
H311 H 0.55309 0.04482 0.83151 0.0
H312 H 0.55219 0.04771 0.70822 0.0
H313 H 0.49614 0.9551 0.61006 0.0
H314 H 0.49838 0.95161 0.7328 0.0
H315 H 0.46825 0.99215 0.5499 0.0
H316 H 0.57711 0.97438 0.60592 0.0
H317 H 0.63424 0.98425 0.68025 0.0
H318 H 0.66472 0.07078 0.6657 0.0
H319 H 0.60756 0.06172 0.59266 0.0
C320 C 0.49876 0.98295 0.22411 0.0
C321 C 0.51885 0.00718 0.21043 0.0
C322 C 0.49949 0.98317 0.29605 0.0
C323 C 0.51978 0.00785 0.35654 0.0
C324 C 0.53998 0.0321 0.34318 0.0
C325 C 0.53956 0.03176 0.27087 0.0
C326 C 0.52031 0.00791 0.43329 0.0
C327 C 0.55199 0.01403 0.47945 0.0
C328 C 0.48976 0.00031 0.45967 0.0
C329 C 0.45564 0.996 0.41645 0.0
C330 C 0.44945 0.01796 0.38996 0.0
C331 C 0.41749 0.0135 0.34768 0.0
C332 C 0.3914 0.98729 0.33222 0.0
C333 C 0.39721 0.96551 0.35913 0.0
C334 C 0.42917 0.96982 0.40121 0.0
C335 C 0.54068 0.02502 0.78369 0.0
C336 C 0.52517 -0.00189 0.79212 0.0
C337 C 0.54009 0.02677 0.71336 0.0
C338 C 0.52385 0.00172 0.65004 0.0
C339 C 0.50845 0.9748 0.6582 0.0
C340 C 0.50954 0.97291 0.72846 0.0
C341 C 0.52332 0.00354 0.57526 0.0
C342 C 0.49165 -0.00221 0.5297 0.0
C343 C 0.55384 0.01188 0.54983 0.0
C344 C 0.588 0.01749 0.59453 0.0
C345 C 0.59587 0.99567 0.61944 0.0
C346 C 0.62823 0.00114 0.66145 0.0
C347 C 0.65297 0.02827 0.6785 0.0
C348 C 0.64544 0.04993 0.65325 0.0
C349 C 0.61309 0.04463 0.61146 0.0
H350 H 0.67806 0.03243 0.71084 0.0
H351 H 0.36667 0.98387 0.29947 0.0
H352 H 0.54169 0.46236 0.7639 0.0
H353 H 0.54182 0.46178 0.638 0.0
H354 H 0.47885 0.52174 0.66981 0.0
H355 H 0.47625 0.52032 0.79262 0.0
H356 H 0.45811 0.48601 0.54094 0.0
H357 H 0.57148 0.54308 0.67855 0.0
H358 H 0.62682 0.55211 0.75907 0.0
H359 H 0.64719 0.47911 0.59802 0.0
H360 H 0.59185 0.46946 0.51694 0.0
H361 H 0.49279 0.53685 0.2447 0.0
H362 H 0.49092 0.53428 0.36762 0.0
H363 H 0.53895 0.46358 0.31656 0.0
H364 H 0.54127 0.4662 0.19426 0.0
H365 H 0.56771 0.50414 0.45346 0.0
H366 H 0.45161 0.44922 0.31651 0.0
H367 H 0.39466 0.44157 0.24383 0.0
H368 H 0.38064 0.51612 0.411 0.0
H369 H 0.43733 0.52432 0.48476 0.0
C370 C 0.52752 0.47511 0.74364 0.0
C371 C 0.50926 0.49163 0.78884 0.0
C372 C 0.52796 0.47509 0.67181 0.0
C373 C 0.51107 0.49235 0.64439 0.0
C374 C 0.49224 0.50829 0.68912 0.0
C375 C 0.49097 0.50763 0.75986 0.0
C376 C 0.51276 0.49396 0.56943 0.0
C377 C 0.48225 0.4904 0.52255 0.0
C378 C 0.544 0.49925 0.54403 0.0
C379 C 0.5775 0.50543 0.59202 0.0
C380 C 0.58774 0.52891 0.66051 0.0
C381 C 0.61906 0.53412 0.70624 0.0
C382 C 0.64043 0.51615 0.68378 0.0
C383 C 0.6306 0.49299 0.61539 0.0
C384 C 0.5993 0.48767 0.56949 0.0
C385 C 0.50304 0.5208 0.25964 0.0
C386 C 0.51721 0.50176 0.20936 0.0
C387 C 0.50179 0.51924 0.32991 0.0
C388 C 0.51456 0.49855 0.35138 0.0
C389 C 0.52898 0.47975 0.30151 0.0
C390 C 0.5302 0.48125 0.23136 0.0
C391 C 0.51312 0.49649 0.42577 0.0
C392 C 0.54369 0.49989 0.47231 0.0
C393 C 0.48206 0.49176 0.45164 0.0
C394 C 0.44875 0.48753 0.40572 0.0
C395 C 0.43655 0.46421 0.33724 0.0
C396 C 0.40438 0.45978 0.29585 0.0
C397 C 0.38433 0.47852 0.32222 0.0
C398 C 0.39631 0.50177 0.39023 0.0
C399 C 0.42839 0.50627 0.43197 0.0
H400 H 0.35935 0.47477 0.29015 0.0
H401 H 0.66465 0.5202 0.71931 0.0
H402 H 0.12984 0.52743 0.93385 0.0
H403 H 0.18975 0.52733 0.93362 0.0
H404 H 0.17935 0.46817 0.0555 0.0
H405 H 0.11945 0.46857 0.05658 0.0
H406 H 0.24098 0.50801 0.11002 0.0
H407 H 0.18313 0.44639 0.86051 0.0
H408 H 0.14719 0.43493 0.73905 0.0
H409 H 0.2162 0.50807 0.7089 0.0
H410 H 0.25245 0.52016 0.83036 0.0
H411 H 0.40107 0.47384 0.06982 0.0
H412 H 0.34084 0.47278 0.06843 0.0
H413 H 0.34684 0.52273 0.9233 0.0
H414 H 0.40681 0.52268 0.92249 0.0
H415 H 0.28691 0.48762 0.87994 0.0
H416 H 0.34443 0.55072 0.12118 0.0
H417 H 0.38011 0.56831 0.24565 0.0
H418 H 0.31241 0.50028 0.29678 0.0
H419 H 0.27695 0.48158 0.17164 0.0
C420 C 0.14005 0.51421 0.96049 0.0
C421 C 0.1188 0.49775 0.9946 0.0
C422 C 0.17476 0.51402 0.95996 0.0
C423 C 0.19014 0.49737 0.99356 0.0
C424 C 0.16901 0.48124 0.02857 0.0
C425 C 0.13421 0.48128 0.02869 0.0
C426 C 0.22784 0.49698 0.99286 0.0
C427 C 0.25065 0.50296 0.05922 0.0
C428 C 0.24203 0.49169 0.92782 0.0
C429 C 0.22035 0.48433 0.85476 0.0
C430 C 0.19053 0.46014 0.82817 0.0
C431 C 0.17011 0.45352 0.75935 0.0
C432 C 0.17932 0.47081 0.71649 0.0
C433 C 0.20907 0.49472 0.74221 0.0
C434 C 0.22959 0.50144 0.81097 0.0
C435 C 0.38962 0.48426 0.03657 0.0
C436 C 0.40962 0.49797 0.9955 0.0
C437 C 0.35477 0.48409 0.03669 0.0
C438 C 0.33804 0.49804 0.99653 0.0
C439 C 0.35805 0.51165 0.95517 0.0
C440 C 0.39291 0.51178 0.95503 0.0
C441 C 0.30023 0.49839 0.99726 0.0
C442 C 0.27735 0.49246 0.93089 0.0
C443 C 0.28615 0.50433 0.06259 0.0
C444 C 0.30829 0.51449 0.1366 0.0
C445 C 0.33747 0.53916 0.15847 0.0
C446 C 0.35765 0.54935 0.22918 0.0
C447 C 0.34862 0.53535 0.27895 0.0
C448 C 0.31948 0.51101 0.258 0.0
C449 C 0.29941 0.50053 0.18708 0.0
H450 H 0.3641 0.5435 0.33388 0.0
H451 H 0.16346 0.46565 0.66325 0.0
H452 H 0.67762 0.15102 0.05866 0.0
H453 H 0.70421 0.18837 0.00836 0.0
H454 H 0.8006 0.16882 0.04247 0.0
H455 H 0.7747 0.13247 0.09569 0.0
H456 H 0.80732 0.22681 0.0983 0.0
H457 H 0.7517 0.14726 0.86951 0.0
H458 H 0.70332 0.10848 0.77829 0.0
H459 H 0.65276 0.17407 0.76667 0.0
H460 H 0.70055 0.21323 0.85931 0.0
H461 H 0.89807 0.30992 0.90609 0.0
H462 H 0.87023 0.27087 0.94852 0.0
H463 H 0.77419 0.29093 0.91323 0.0
H464 H 0.80167 0.33031 0.87194 0.0
H465 H 0.76613 0.23229 0.85587 0.0
H466 H 0.81798 0.31088 0.08621 0.0
H467 H 0.86146 0.34974 0.18921 0.0
H468 H 0.9158 0.28677 0.20319 0.0
H469 H 0.87286 0.24759 0.0996 0.0
C470 C 0.70433 0.15438 0.05419 0.0
C471 C 0.72425 0.13904 0.0813 0.0
C472 C 0.71931 0.17546 0.02489 0.0
C473 C 0.75409 0.1809 0.02036 0.0
C474 C 0.77367 0.16487 0.04526 0.0
C475 C 0.75891 0.1442 0.07569 0.0
C476 C 0.77084 0.20503 0.9956 0.0
C477 C 0.79878 0.2277 0.04462 0.0
C478 C 0.75861 0.20677 0.92691 0.0
C479 C 0.72964 0.18317 0.87184 0.0
C480 C 0.73013 0.15341 0.84809 0.0
C481 C 0.70283 0.13135 0.7959 0.0
C482 C 0.67504 0.13882 0.76632 0.0
C483 C 0.6744 0.16834 0.78927 0.0
C484 C 0.70156 0.19047 0.84174 0.0
C485 C 0.8712 0.30661 0.90866 0.0
C486 C 0.85242 0.32393 0.88657 0.0
C487 C 0.85528 0.28407 0.93268 0.0
C488 C 0.82024 0.27823 0.9348 0.0
C489 C 0.8013 0.29511 0.91213 0.0
C490 C 0.81719 0.31769 0.88841 0.0
C491 C 0.80304 0.25384 0.95829 0.0
C492 C 0.77489 0.23122 0.90923 0.0
C493 C 0.81485 0.25221 0.0273 0.0
C494 C 0.84239 0.27637 0.08462 0.0
C495 C 0.83955 0.30544 0.11027 0.0
C496 C 0.864 0.32749 0.16912 0.0
C497 C 0.89131 0.32068 0.2029 0.0
C498 C 0.8946 0.29198 0.17706 0.0
C499 C 0.87024 0.26987 0.11827 0.0
H500 H 0.90985 0.33756 0.24942 0.0
H501 H 0.6539 0.12172 0.72593 0.0
H502 H 0.55904 0.92839 0.07895 0.0
H503 H 0.55531 0.8783 0.07567 0.0
H504 H 0.48069 0.84261 0.87227 0.0
H505 H 0.48578 0.89315 0.8731 0.0
H506 H 0.46276 0.81871 0.98751 0.0
H507 H 0.55346 0.83269 0.85632 0.0
H508 H 0.60859 0.85612 0.8307 0.0
H509 H 0.66232 0.85344 0.02911 0.0
H510 H 0.60746 0.83043 0.05655 0.0
H511 H 0.4609 0.67175 0.96455 0.0
H512 H 0.46503 0.71526 0.92754 0.0
H513 H 0.55502 0.76417 0.09912 0.0
H514 H 0.55092 0.72073 0.13535 0.0
H515 H 0.56303 0.77852 0.98143 0.0
H516 H 0.47524 0.77043 0.12183 0.0
H517 H 0.42162 0.74826 0.15498 0.0
H518 H 0.36384 0.74279 0.95102 0.0
H519 H 0.41719 0.76429 0.91599 0.0
C520 C 0.54248 0.91004 0.03239 0.0
C521 C 0.52349 0.91504 0.97533 0.0
C522 C 0.54015 0.88126 0.03094 0.0
C523 C 0.518 0.85655 0.97336 0.0
C524 C 0.49816 0.86131 0.91708 0.0
C525 C 0.50111 0.89024 0.91765 0.0
C526 C 0.51516 0.82604 0.97405 0.0
C527 C 0.48444 0.8096 0.98441 0.0
C528 C 0.54368 0.81444 0.97249 0.0
C529 C 0.5764 0.8299 0.95851 0.0
C530 C 0.577 0.83744 0.89494 0.0
C531 C 0.60821 0.85047 0.87987 0.0
C532 C 0.63895 0.85591 0.92781 0.0
C533 C 0.63851 0.84893 0.99169 0.0
C534 C 0.60739 0.83593 0.00705 0.0
C535 C 0.48215 0.69153 0.99258 0.0
C536 C 0.50599 0.69274 0.05188 0.0
C537 C 0.48427 0.71653 0.97213 0.0
C538 C 0.51015 0.74331 0.01099 0.0
C539 C 0.53489 0.74391 0.06793 0.0
C540 C 0.53267 0.71902 0.08845 0.0
C541 C 0.5107 0.77119 0.9957 0.0
C542 C 0.54109 0.78729 0.98315 0.0
C543 C 0.48204 0.7827 0.99648 0.0
C544 C 0.45017 0.76861 0.01594 0.0
C545 C 0.45113 0.76408 0.0836 0.0
C546 C 0.4208 0.7517 0.10282 0.0
C547 C 0.38936 0.74416 0.05524 0.0
C548 C 0.38818 0.74862 0.98789 0.0
C549 C 0.41846 0.76084 0.96823 0.0
H550 H 0.36597 0.73511 0.07101 0.0
H551 H 0.66314 0.8657 0.9157 0.0
H552 H 0.89856 0.4656 0.0523 0.0
H553 H 0.84017 0.46766 0.0596 0.0
H554 H 0.85055 0.52895 0.94303 0.0
H555 H 0.9106 0.52936 0.94381 0.0
H556 H 0.81074 0.54377 0.01505 0.0
H557 H 0.79583 0.43612 0.87993 0.0
H558 H 0.80593 0.38819 0.87239 0.0
H559 H 0.77194 0.39488 0.07623 0.0
H560 H 0.76156 0.44272 0.08481 0.0
H561 H 0.63035 0.53328 0.95273 0.0
H562 H 0.68964 0.53319 0.94833 0.0
H563 H 0.67755 0.46545 0.04567 0.0
H564 H 0.61729 0.46362 0.04231 0.0
H565 H 0.71834 0.45347 0.98105 0.0
H566 H 0.73693 0.55662 0.13102 0.0
H567 H 0.73157 0.6074 0.1643 0.0
H568 H 0.7597 0.61222 0.96176 0.0
H569 H 0.76626 0.56167 0.92848 0.0
C570 C 0.88851 0.47951 0.02787 0.0
C571 C 0.91005 0.497 0.99658 0.0
C572 C 0.85411 0.48027 0.03062 0.0
C573 C 0.83842 0.49726 -0.00157 0.0
C574 C 0.8604 0.51511 0.96802 0.0
C575 C 0.89531 0.51527 0.96799 0.0
C576 C 0.80019 0.49725 0.99769 0.0
C577 C 0.79074 0.52365 0.00626 0.0
C578 C 0.77262 0.47196 0.99004 0.0
C579 C 0.77825 0.443 0.98325 0.0
C580 C 0.79054 0.4273 0.92299 0.0
C581 C 0.79634 0.40018 0.91865 0.0
C582 C 0.78981 0.38862 0.9741 0.0
C583 C 0.77708 0.40391 0.0335 0.0
C584 C 0.77115 0.43094 0.03802 0.0
C585 C 0.64032 0.51845 0.97367 0.0
C586 C 0.61823 0.49862 -0.00162 0.0
C587 C 0.67517 0.51866 0.97232 0.0
C588 C 0.6905 0.50003 -0.001 0.0
C589 C 0.66804 0.4803 0.024 0.0
C590 C 0.63291 0.47932 0.02265 0.0
C591 C 0.72874 0.50007 -0.001 0.0
C592 C 0.7382 0.47364 0.98971 0.0
C593 C 0.75645 0.52553 0.00849 0.0
C594 C 0.75162 0.55537 0.02697 0.0
C595 C 0.74176 0.56849 0.09349 0.0
C596 C 0.73865 0.59726 0.11242 0.0
C597 C 0.74496 0.61297 0.06485 0.0
C598 C 0.75473 0.60002 -0.00153 0.0
C599 C 0.75839 0.5714 0.97978 0.0
H600 H 0.74242 0.63522 0.07957 0.0
H601 H 0.79456 0.36784 0.97139 0.0
H602 H 0.20022 0.62573 0.97253 0.0
H603 H 0.22831 0.66948 0.94546 0.0
H604 H 0.20811 0.7261 0.14589 0.0
H605 H 0.17835 0.68226 0.17044 0.0
H606 H 0.19609 0.7459 0.04091 0.0
H607 H 0.2899 0.71229 0.12698 0.0
H608 H 0.32073 0.6747 0.12176 0.0
H609 H 0.33035 0.66603 0.89922 0.0
H610 H 0.29907 0.70321 0.90282 0.0
H611 H 0.30895 0.88331 0.09345 0.0
H612 H 0.282 0.83635 0.10707 0.0
H613 H 0.30666 0.78849 0.9018 0.0
H614 H 0.3349 0.83568 0.88966 0.0
H615 H 0.31525 0.76221 0.9975 0.0
H616 H 0.22503 0.79677 0.91103 0.0
H617 H 0.1936 0.83362 0.912 0.0
H618 H 0.17547 0.83895 0.12804 0.0
H619 H 0.20721 0.80241 0.12871 0.0
C620 C 0.20195 0.6476 0.0106 0.0
C621 C 0.18756 0.6509 0.07376 0.0
C622 C 0.21805 0.67254 0.99538 0.0
C623 C 0.22091 0.70114 0.04439 0.0
C624 C 0.20625 0.70429 0.10731 0.0
C625 C 0.18944 0.67935 0.12155 0.0
C626 C 0.23915 0.72791 0.0307 0.0
C627 C 0.22228 0.74957 0.03222 0.0
C628 C 0.27286 0.7323 0.01667 0.0
C629 C 0.29213 0.71041 0.0151 0.0
C630 C 0.29848 0.70224 0.07688 0.0
C631 C 0.31598 0.68099 0.07416 0.0
C632 C 0.32745 0.66795 0.01016 0.0
C633 C 0.3214 0.6761 0.9487 0.0
C634 C 0.3038 0.69725 0.95104 0.0
C635 C 0.30862 0.86273 0.05141 0.0
C636 C 0.32353 0.86296 0.99013 0.0
C637 C 0.29321 0.83594 0.05907 0.0
C638 C 0.2916 0.80888 0.00454 0.0
C639 C 0.30746 0.80909 0.94433 0.0
C640 C 0.32346 0.83598 0.93734 0.0
C641 C 0.27246 0.78048 0.0096 0.0
C642 C 0.28905 0.75847 0.00598 0.0
C643 C 0.23832 0.77558 0.02102 0.0
C644 C 0.21856 0.79698 0.02002 0.0
C645 C 0.2144 0.80587 0.95879 0.0
C646 C 0.19656 0.82671 0.95907 0.0
C647 C 0.18256 0.83863 0.02006 0.0
C648 C 0.1863 0.82968 0.08082 0.0
C649 C 0.20416 0.80888 0.08086 0.0
H650 H 0.16878 0.85479 0.0202 0.0
H651 H 0.34109 0.65157 0.00824 0.0
H652 H 0.48909 0.29586 0.92184 0.0
H653 H 0.47893 0.2467 0.93215 0.0
H654 H 0.58284 0.27123 0.05124 0.0
H655 H 0.59294 0.32039 0.04286 0.0
H656 H 0.56638 0.2173 0.93972 0.0
H657 H 0.51632 0.26586 0.1392 0.0
H658 H 0.477 0.29323 0.19502 0.0
H659 H 0.3904 0.22248 0.05209 0.0
H660 H 0.42927 0.19492 0.99465 0.0
H661 H 0.56737 0.10405 0.08034 0.0
H662 H 0.56753 0.15253 0.07507 0.0
H663 H 0.4639 0.11611 0.94951 0.0
H664 H 0.46379 0.06723 0.95356 0.0
H665 H 0.47612 0.17403 0.05619 0.0
H666 H 0.52418 0.12451 0.85968 0.0
H667 H 0.56203 0.09548 0.80438 0.0
H668 H 0.65043 0.16687 0.93496 0.0
H669 H 0.6132 0.19616 0.99309 0.0
C670 C 0.50963 0.29101 0.95132 0.0
C671 C 0.542 0.3122 0.98081 0.0
C672 C 0.50381 0.26277 0.95691 0.0
C673 C 0.53017 0.25508 0.99224 0.0
C674 C 0.56217 0.2764 0.02302 0.0
C675 C 0.56794 0.30457 0.01787 0.0
C676 C 0.52501 0.2247 0.99578 0.0
C677 C 0.54684 0.20806 0.96591 0.0
C678 C 0.49889 0.21197 0.02773 0.0
C679 C 0.47564 0.22852 0.06215 0.0
C680 C 0.48889 0.25629 0.11926 0.0
C681 C 0.4667 0.2718 0.15126 0.0
C682 C 0.43123 0.25964 0.12698 0.0
C683 C 0.41787 0.2319 0.07075 0.0
C684 C 0.43996 0.21633 0.03848 0.0
C685 C 0.54438 0.10628 0.05219 0.0
C686 C 0.51543 0.08151 0.01758 0.0
C687 C 0.54455 0.13412 0.04927 0.0
C688 C 0.51585 0.13804 0.01135 0.0
C689 C 0.48631 0.11374 0.97945 0.0
C690 C 0.48617 0.08574 0.98222 0.0
C691 C 0.51788 0.16702 0.00138 0.0
C692 C 0.49551 0.18329 0.02974 0.0
C693 C 0.54331 0.17937 0.96742 0.0
C694 C 0.5659 0.16235 0.93138 0.0
C695 C 0.55173 0.13394 0.87717 0.0
C696 C 0.57309 0.11741 0.84547 0.0
C697 C 0.60866 0.12918 0.86687 0.0
C698 C 0.62293 0.15769 0.91929 0.0
C699 C 0.60172 0.17428 0.95161 0.0
H700 H 0.62514 0.11623 0.84269 0.0
H701 H 0.41407 0.27168 0.15187 0.0
loop_
_geom_bond_atom_site_label_1
_geom_bond_atom_site_label_2
_geom_bond_distance
_geom_bond_site_symmetry_2
_ccdc_geom_bond_type
Eu0 N29 2.600 . S
Eu0 N35 2.562 1_455 S
Eu0 O44 2.462 1_554 S
Eu0 O45 2.373 1_455 S
Eu0 O47 2.432 . S
Eu0 O48 2.291 1_554 S
Eu0 O52 2.335 . S
Eu0 O55 2.372 . S
Eu0 C64 2.787 . S
C1 N2 1.355 1_455 S
C1 C4 1.405 . S
C1 C8 1.448 . S
N2 C1 1.355 1_655 S
N2 C5 1.320 . S
N2 Eu11 2.608 . S
C3 C5 1.397 1_455 S
C3 C6 1.367 . S
C3 H23 0.931 1_455 S
C4 C1 1.405 . S
C4 C6 1.403 . S
C4 C10 1.439 . S
C5 N2 1.320 . S
C5 C3 1.397 1_655 S
C5 H16 0.930 . S
C6 C3 1.367 . S
C6 C4 1.403 . S
C6 H27 0.929 . S
C7 C8 1.430 . S
C7 C9 1.387 . S
C7 C13 1.404 1_556 S
C8 C1 1.448 . S
C8 C7 1.430 . S
C8 N12 1.351 . S
C9 C7 1.387 . S
C9 C10 1.374 . S
C9 H24 0.931 . S
C10 C4 1.439 . S
C10 C9 1.374 . S
C10 H25 0.931 . S
Eu11 N2 2.608 . S
Eu11 N12 2.562 1_655 S
Eu11 O46 2.335 . S
Eu11 O49 2.372 . S
Eu11 O50 2.462 1_556 S
Eu11 O51 2.373 1_655 S
Eu11 O53 2.432 . S
Eu11 O54 2.290 1_656 S
Eu11 C75 2.787 . S
N12 C8 1.351 . S
N12 Eu11 2.562 1_455 S
N12 C14 1.325 1_556 S
C13 C7 1.404 1_554 S
C13 C15 1.366 . S
C13 H21 0.930 . S
C14 N12 1.325 1_554 S
C14 C15 1.416 . S
C14 H20 0.929 . S
C15 C13 1.366 . S
C15 C14 1.416 . S
C15 H17 0.930 . S
H16 C5 0.930 . S
H17 C15 0.930 . S
H18 C33 0.930 . S
H19 C40 0.930 . S
H20 C14 0.929 . S
H21 C13 0.930 . S
H22 C36 0.929 . S
H23 C3 0.931 1_655 S
H24 C9 0.931 . S
H25 C10 0.931 . S
H26 C31 0.931 1_455 S
H27 C6 0.929 . S
H28 C39 0.930 . S
N29 Eu0 2.600 . S
N29 C30 1.365 1_455 S
N29 C33 1.319 . S
C30 N29 1.365 1_655 S
C30 C32 1.405 . S
C30 C38 1.448 . S
C31 H26 0.931 1_655 S
C31 C33 1.397 1_655 S
C31 C34 1.367 . S
C32 C30 1.405 . S
C32 C34 1.403 . S
C32 C65 1.439 . S
C33 H18 0.930 . S
C33 N29 1.319 . S
C33 C31 1.397 1_455 S
C34 C31 1.367 . S
C34 C32 1.403 . S
C34 H41 0.929 . S
N35 Eu0 2.562 1_655 S
N35 C36 1.325 1_554 S
N35 C38 1.351 . S
C36 H22 0.929 . S
C36 N35 1.325 1_556 S
C36 C40 1.416 . S
C37 C38 1.430 . S
C37 C39 1.404 1_554 S
C37 C66 1.387 . S
C38 C30 1.448 . S
C38 N35 1.351 . S
C38 C37 1.430 . S
C39 H28 0.930 . S
C39 C37 1.404 1_556 S
C39 C40 1.366 . S
C40 H19 0.930 . S
C40 C36 1.416 . S
C40 C39 1.366 . S
H41 C34 0.929 . S
H42 C65 0.931 . S
H43 C66 0.931 . S
O44 Eu0 2.462 1_556 S
O44 C64 1.252 1_556 S
O45 Eu0 2.373 1_655 S
O45 C56 1.249 . S
O46 Eu11 2.335 . S
O46 C56 1.264 1_556 S
O47 Eu0 2.432 . S
O47 C64 1.268 . S
O48 Eu0 2.291 1_556 S
O48 C63 1.256 1_455 S
O49 Eu11 2.372 . S
O49 C63 1.257 . S
O50 Eu11 2.462 1_554 S
O50 C75 1.252 1_554 S
O51 Eu11 2.373 1_455 S
O51 C67 1.249 1_556 S
O52 Eu0 2.335 . S
O52 C67 1.264 . S
O53 Eu11 2.432 . S
O53 C75 1.268 . S
O54 Eu11 2.290 1_454 S
O54 C74 1.253 . S
O55 Eu0 2.372 . S
O55 C74 1.257 . S
C56 O45 1.249 . S
C56 O46 1.264 1_554 S
C57 C60 1.382 . S
C57 C62 1.390 . S
C57 C64 1.506 . S
C58 C59 1.398 . S
C58 C62 1.392 . S
C59 C58 1.398 . S
C59 C61 1.372 . S
C59 H76 0.931 . S
C60 C57 1.382 . S
C60 C61 1.390 . S
C60 H77 0.931 . S
C61 C59 1.372 . S
C61 C60 1.390 . S
C61 H78 0.929 . S
C62 C57 1.390 . S
C62 C58 1.392 . S
C62 H79 0.930 1_554 S
C63 O48 1.256 1_655 S
C63 O49 1.257 . S
C64 Eu0 2.787 . S
C64 O44 1.252 1_554 S
C64 O47 1.268 . S
C64 C57 1.506 . S
C65 C32 1.439 . S
C65 H42 0.931 . S
C65 C66 1.374 . S
C66 C37 1.387 . S
C66 H43 0.931 . S
C66 C65 1.374 . S
C67 O51 1.249 1_554 S
C67 O52 1.264 . S
C68 C71 1.382 . S
C68 C72 1.390 . S
C68 C75 1.506 . S
C69 C70 1.398 . S
C69 C72 1.392 . S
C70 C69 1.398 . S
C70 C73 1.372 . S
C70 H80 0.931 . S
C71 C68 1.382 . S
C71 C73 1.390 . S
C71 H81 0.931 . S
C72 C68 1.390 . S
C72 C69 1.392 . S
C72 H82 0.930 1_556 S
C73 C70 1.372 . S
C73 C71 1.390 . S
C73 H83 0.929 . S
C74 O54 1.253 . S
C74 O55 1.257 . S
C75 Eu11 2.787 . S
C75 O50 1.252 1_556 S
C75 O53 1.268 . S
C75 C68 1.506 . S
H76 C59 0.931 . S
H77 C60 0.931 . S
H78 C61 0.929 . S
H79 C62 0.930 1_556 S
H80 C70 0.931 . S
H81 C71 0.931 . S
H82 C72 0.930 1_554 S
H83 C73 0.929 . S
Eu84 N113 2.600 . S
Eu84 N119 2.562 1_566 S
Eu84 O128 2.462 1_556 S
Eu84 O129 2.373 1_565 S
Eu84 O131 2.432 . S
Eu84 O132 2.291 1_566 S
Eu84 O136 2.335 . S
Eu84 O139 2.372 . S
Eu84 C148 2.787 . S
C85 N86 1.365 1_565 S
C85 C88 1.405 . S
C85 C92 1.448 . S
N86 C85 1.365 1_545 S
N86 C89 1.319 . S
N86 Eu95 2.600 . S
C87 C89 1.397 . S
C87 C90 1.367 1_545 S
C87 H107 0.931 . S
C88 C85 1.405 . S
C88 C90 1.403 . S
C88 C94 1.439 . S
C89 N86 1.319 . S
C89 C87 1.397 . S
C89 H100 0.930 . S
C90 C87 1.367 1_565 S
C90 C88 1.403 . S
C90 H111 0.929 . S
C91 C92 1.430 1_556 S
C91 C93 1.387 1_556 S
C91 C97 1.404 . S
C92 C85 1.448 . S
C92 C91 1.430 1_554 S
C92 N96 1.351 1_554 S
C93 C91 1.387 1_554 S
C93 C94 1.374 . S
C93 H108 0.931 . S
C94 C88 1.439 . S
C94 C93 1.374 . S
C94 H109 0.931 . S
Eu95 N86 2.600 . S
Eu95 N96 2.562 1_544 S
Eu95 O130 2.335 . S
Eu95 O133 2.372 . S
Eu95 O134 2.462 1_554 S
Eu95 O135 2.373 1_545 S
Eu95 O137 2.432 . S
Eu95 O138 2.291 1_544 S
Eu95 C159 2.787 . S
N96 C92 1.351 1_556 S
N96 Eu95 2.562 1_566 S
N96 C98 1.325 . S
C97 C91 1.404 . S
C97 C99 1.366 . S
C97 H105 0.930 . S
C98 N96 1.325 . S
C98 C99 1.416 . S
C98 H104 0.929 . S
C99 C97 1.366 . S
C99 C98 1.416 . S
C99 H101 0.930 . S
H100 C89 0.930 . S
H101 C99 0.930 . S
H102 C117 0.930 . S
H103 C124 0.930 . S
H104 C98 0.929 . S
H105 C97 0.930 . S
H106 C120 0.929 . S
H107 C87 0.931 . S
H108 C93 0.931 . S
H109 C94 0.931 . S
H110 C115 0.931 . S
H111 C90 0.929 . S
H112 C123 0.930 . S
N113 Eu84 2.600 . S
N113 C114 1.365 1_565 S
N113 C117 1.319 . S
C114 N113 1.365 1_545 S
C114 C116 1.405 . S
C114 C122 1.448 . S
C115 H110 0.931 . S
C115 C117 1.397 . S
C115 C118 1.367 1_565 S
C116 C114 1.405 . S
C116 C118 1.403 . S
C116 C149 1.439 . S
C117 H102 0.930 . S
C117 N113 1.319 . S
C117 C115 1.397 . S
C118 C115 1.367 1_545 S
C118 C116 1.403 . S
C118 H125 0.929 . S
N119 Eu84 2.562 1_544 S
N119 C120 1.325 . S
N119 C122 1.351 1_554 S
C120 H106 0.929 . S
C120 N119 1.325 . S
C120 C124 1.416 . S
C121 C122 1.430 1_554 S
C121 C123 1.404 . S
C121 C150 1.387 1_554 S
C122 C114 1.448 . S
C122 N119 1.351 1_556 S
C122 C121 1.430 1_556 S
C123 H112 0.930 . S
C123 C121 1.404 . S
C123 C124 1.366 . S
C124 H103 0.930 . S
C124 C120 1.416 . S
C124 C123 1.366 . S
H125 C118 0.929 . S
H126 C149 0.931 . S
H127 C150 0.931 . S
O128 Eu84 2.462 1_554 S
O128 C148 1.252 1_554 S
O129 Eu84 2.373 1_545 S
O129 C140 1.249 1_556 S
O130 Eu95 2.335 . S
O130 C140 1.264 . S
O131 Eu84 2.432 . S
O131 C148 1.268 . S
O132 Eu84 2.291 1_544 S
O132 C147 1.255 . S
O133 Eu95 2.372 . S
O133 C147 1.257 . S
O134 Eu95 2.462 1_556 S
O134 C159 1.252 1_556 S
O135 Eu95 2.373 1_565 S
O135 C151 1.249 1_554 S
O136 Eu84 2.335 . S
O136 C151 1.264 . S
O137 Eu95 2.432 . S
O137 C159 1.268 . S
O138 Eu95 2.291 1_566 S
O138 C158 1.252 . S
O139 Eu84 2.372 . S
O139 C158 1.257 . S
C140 O129 1.249 1_554 S
C140 O130 1.264 . S
C141 C144 1.382 . S
C141 C146 1.390 1_556 S
C141 C148 1.506 . S
C142 C143 1.398 1_554 S
C142 C146 1.392 . S
C143 C142 1.398 1_556 S
C143 C145 1.372 . S
C143 H160 0.931 . S
C144 C141 1.382 . S
C144 C145 1.390 . S
C144 H161 0.931 . S
C145 C143 1.372 . S
C145 C144 1.390 . S
C145 H162 0.929 . S
C146 C141 1.390 1_554 S
C146 C142 1.392 . S
C146 H163 0.930 . S
C147 O132 1.255 . S
C147 O133 1.257 . S
C148 Eu84 2.787 . S
C148 O128 1.252 1_556 S
C148 O131 1.268 . S
C148 C141 1.506 . S
C149 C116 1.439 . S
C149 H126 0.931 . S
C149 C150 1.374 . S
C150 C121 1.387 1_556 S
C150 H127 0.931 . S
C150 C149 1.374 . S
C151 O135 1.249 1_556 S
C151 O136 1.264 . S
C152 C155 1.382 . S
C152 C156 1.390 1_554 S
C152 C159 1.506 . S
C153 C154 1.398 1_556 S
C153 C156 1.392 . S
C154 C153 1.398 1_554 S
C154 C157 1.372 . S
C154 H164 0.931 . S
C155 C152 1.382 . S
C155 C157 1.390 . S
C155 H165 0.931 . S
C156 C152 1.390 1_556 S
C156 C153 1.392 . S
C156 H166 0.930 . S
C157 C154 1.372 . S
C157 C155 1.390 . S
C157 H167 0.929 . S
C158 O138 1.252 . S
C158 O139 1.257 . S
C159 Eu95 2.787 . S
C159 O134 1.252 1_554 S
C159 O137 1.268 . S
C159 C152 1.506 . S
H160 C143 0.931 . S
H161 C144 0.931 . S
H162 C145 0.929 . S
H163 C146 0.930 . S
H164 C154 0.931 . S
H165 C155 0.931 . S
H166 C156 0.930 . S
H167 C157 0.929 . S
Eu168 N197 2.600 . S
Eu168 N203 2.562 . S
Eu168 O212 2.462 1_556 S
Eu168 O213 2.373 . S
Eu168 O215 2.432 . S
Eu168 O216 2.291 1_556 S
Eu168 O220 2.335 . S
Eu168 O223 2.372 . S
Eu168 C232 2.787 . S
C169 N170 1.365 . S
C169 C172 1.405 . S
C169 C176 1.448 . S
N170 C169 1.365 . S
N170 C173 1.319 . S
N170 Eu179 2.600 . S
C171 C173 1.397 . S
C171 C174 1.367 . S
C171 H191 0.931 . S
C172 C169 1.405 . S
C172 C174 1.403 . S
C172 C178 1.439 . S
C173 N170 1.319 . S
C173 C171 1.397 . S
C173 H184 0.930 . S
C174 C171 1.367 . S
C174 C172 1.403 . S
C174 H195 0.929 . S
C175 C176 1.430 . S
C175 C177 1.387 . S
C175 C181 1.418 . S
C176 C169 1.448 . S
C176 C175 1.430 . S
C176 N180 1.351 . S
C177 C175 1.387 . S
C177 C178 1.374 . S
C177 H192 0.931 . S
C178 C172 1.439 . S
C178 C177 1.374 . S
C178 H193 0.931 . S
Eu179 N170 2.600 . S
Eu179 N180 2.562 . S
Eu179 O214 2.335 . S
Eu179 O217 2.372 . S
Eu179 O218 2.462 1_554 S
Eu179 O219 2.373 . S
Eu179 O221 2.432 . S
Eu179 O222 2.291 1_554 S
Eu179 C243 2.787 . S
N180 C176 1.351 . S
N180 Eu179 2.562 . S
N180 C182 1.325 1_554 S
C181 C175 1.418 . S
C181 C183 1.358 1_554 S
C181 H189 0.924 1_554 S
C182 N180 1.325 1_556 S
C182 C183 1.416 . S
C182 H188 0.929 . S
C183 C181 1.358 1_556 S
C183 C182 1.416 . S
C183 H185 0.930 . S
H184 C173 0.930 . S
H185 C183 0.930 . S
H186 C201 0.930 . S
H187 C208 0.930 . S
H188 C182 0.929 . S
H189 C181 0.924 1_556 S
H190 C204 0.929 . S
H191 C171 0.931 . S
H192 C177 0.931 . S
H193 C178 0.931 . S
H194 C199 0.931 . S
H195 C174 0.929 . S
H196 C207 0.934 . S
N197 Eu168 2.600 . S
N197 C198 1.365 . S
N197 C201 1.319 . S
C198 N197 1.365 . S
C198 C200 1.405 . S
C198 C206 1.448 . S
C199 H194 0.931 . S
C199 C201 1.397 . S
C199 C202 1.367 . S
C200 C198 1.405 . S
C200 C202 1.403 . S
C200 C233 1.439 . S
C201 H186 0.930 . S
C201 N197 1.319 . S
C201 C199 1.397 . S
C202 C199 1.367 . S
C202 C200 1.403 . S
C202 H209 0.929 . S
N203 Eu168 2.562 . S
N203 C204 1.325 1_556 S
N203 C206 1.351 . S
C204 H190 0.929 . S
C204 N203 1.325 1_554 S
C204 C208 1.416 . S
C205 C206 1.430 . S
C205 C207 1.397 1_556 S
C205 C234 1.387 . S
C206 C198 1.448 . S
C206 N203 1.351 . S
C206 C205 1.430 . S
C207 H196 0.934 . S
C207 C205 1.397 1_554 S
C207 C208 1.370 . S
C208 H187 0.930 . S
C208 C204 1.416 . S
C208 C207 1.370 . S
H209 C202 0.929 . S
H210 C233 0.931 . S
H211 C234 0.931 . S
O212 Eu168 2.462 1_554 S
O212 C232 1.252 1_554 S
O213 Eu168 2.373 . S
O213 C224 1.249 . S
O214 Eu179 2.335 . S
O214 C224 1.264 1_554 S
O215 Eu168 2.432 . S
O215 C232 1.268 . S
O216 Eu168 2.291 1_554 S
O216 C231 1.255 . S
O217 Eu179 2.372 . S
O217 C231 1.257 . S
O218 Eu179 2.462 1_556 S
O218 C243 1.252 1_556 S
O219 Eu179 2.373 . S
O219 C235 1.249 . S
O220 Eu168 2.335 . S
O220 C235 1.264 1_556 S
O221 Eu179 2.432 . S
O221 C243 1.268 . S
O222 Eu179 2.291 1_556 S
O222 C242 1.255 . S
O223 Eu168 2.372 . S
O223 C242 1.257 . S
C224 O213 1.249 . S
C224 O214 1.264 1_556 S
C225 C228 1.382 . S
C225 C230 1.390 1_556 S
C225 C232 1.506 . S
C226 C227 1.398 . S
C226 C230 1.392 1_556 S
C227 C226 1.398 . S
C227 C229 1.372 . S
C227 H244 0.931 . S
C228 C225 1.382 . S
C228 C229 1.390 . S
C228 H245 0.931 . S
C229 C227 1.372 . S
C229 C228 1.390 . S
C229 H246 0.929 . S
C230 C225 1.390 1_554 S
C230 C226 1.392 1_554 S
C230 H247 0.930 . S
C231 O216 1.255 . S
C231 O217 1.257 . S
C232 Eu168 2.787 . S
C232 O212 1.252 1_556 S
C232 O215 1.268 . S
C232 C225 1.506 . S
C233 C200 1.439 . S
C233 H210 0.931 . S
C233 C234 1.374 . S
C234 C205 1.387 . S
C234 H211 0.931 . S
C234 C233 1.374 . S
C235 O219 1.249 . S
C235 O220 1.264 1_554 S
C236 C239 1.382 . S
C236 C240 1.389 . S
C236 C243 1.506 . S
C237 C238 1.398 . S
C237 C240 1.392 . S
C238 C237 1.398 . S
C238 C241 1.372 . S
C238 H248 0.931 . S
C239 C236 1.382 . S
C239 C241 1.390 . S
C239 H249 0.931 . S
C240 C236 1.389 . S
C240 C237 1.392 . S
C240 H250 0.930 1_554 S
C241 C238 1.372 . S
C241 C239 1.390 . S
C241 H251 0.929 . S
C242 O222 1.255 . S
C242 O223 1.257 . S
C243 Eu179 2.787 . S
C243 O218 1.252 1_554 S
C243 O221 1.268 . S
C243 C236 1.506 . S
H244 C227 0.931 . S
H245 C228 0.931 . S
H246 C229 0.929 . S
H247 C230 0.930 . S
H248 C238 0.931 . S
H249 C239 0.931 . S
H250 C240 0.930 1_556 S
H251 C241 0.929 . S
H252 C270 0.951 . S
H253 C272 0.951 . S
H254 C274 0.950 . S
H255 C275 0.950 . S
H256 C277 0.950 . S
H257 C280 0.950 . S
H258 C281 0.950 . S
H259 C283 0.950 . S
H260 C284 0.950 . S
H261 C285 0.951 . S
H262 C287 0.951 . S
H263 C289 0.950 . S
H264 C290 0.950 . S
H265 C292 0.950 . S
H266 C295 0.950 . S
H267 C296 0.950 . S
H268 C298 0.950 . S
H269 C299 0.950 . S
C270 H252 0.951 . S
C270 C271 1.343 1_455 S
C270 C272 1.388 . S
C271 C270 1.343 1_655 S
C271 C275 1.404 . S
C272 H253 0.951 . S
C272 C270 1.388 . S
C272 C273 1.369 . S
C273 C272 1.369 . S
C273 C274 1.410 1_455 S
C273 C276 1.501 1_455 S
C274 H254 0.950 . S
C274 C273 1.410 1_655 S
C274 C275 1.374 . S
C275 H255 0.950 . S
C275 C271 1.404 . S
C275 C274 1.374 . S
C276 C273 1.501 1_655 S
C276 C277 1.380 . S
C276 C278 1.380 1_655 S
C277 H256 0.950 . S
C277 C276 1.380 . S
C277 C293 1.377 . S
C278 C276 1.380 1_455 S
C278 C279 1.524 . S
C278 C292 1.377 . S
C279 C278 1.524 . S
C279 C280 1.397 . S
C279 C284 1.363 . S
C280 H257 0.950 . S
C280 C279 1.397 . S
C280 C281 1.334 . S
C281 H258 0.950 . S
C281 C280 1.334 . S
C281 C282 1.287 . S
C282 C281 1.287 . S
C282 C283 1.524 . S
C282 H301 0.913 . S
C283 H259 0.950 . S
C283 C282 1.524 . S
C283 C284 1.415 . S
C284 H260 0.950 . S
C284 C279 1.363 . S
C284 C283 1.415 . S
C285 H261 0.951 . S
C285 C286 1.366 1_655 S
C285 C287 1.388 . S
C286 C285 1.366 1_455 S
C286 C290 1.385 . S
C287 H262 0.951 . S
C287 C285 1.388 . S
C287 C288 1.346 1_655 S
C288 C287 1.346 1_455 S
C288 C289 1.436 . S
C288 C291 1.496 . S
C289 H263 0.950 . S
C289 C288 1.436 . S
C289 C290 1.374 . S
C290 H264 0.950 . S
C290 C286 1.385 . S
C290 C289 1.374 . S
C291 C288 1.496 . S
C291 C292 1.373 . S
C291 C293 1.389 1_455 S
C292 H265 0.950 . S
C292 C278 1.377 . S
C292 C291 1.373 . S
C293 C277 1.377 . S
C293 C291 1.389 1_655 S
C293 C294 1.524 . S
C294 C293 1.524 . S
C294 C295 1.397 . S
C294 C299 1.363 . S
C295 H266 0.950 . S
C295 C294 1.397 . S
C295 C296 1.334 . S
C296 H267 0.950 . S
C296 C295 1.334 . S
C296 C297 1.287 . S
C297 C296 1.287 . S
C297 C298 1.524 . S
C297 H300 0.999 . S
C298 H268 0.950 . S
C298 C297 1.524 . S
C298 C299 1.415 . S
C299 H269 0.950 . S
C299 C294 1.363 . S
C299 C298 1.415 . S
H300 C297 0.999 . S
H301 C282 0.913 . S
H302 C320 0.951 . S
H303 C322 0.951 . S
H304 C324 0.950 . S
H305 C325 0.950 . S
H306 C327 0.950 . S
H307 C330 0.950 . S
H308 C331 0.950 . S
H309 C333 0.950 . S
H310 C334 0.950 . S
H311 C335 0.951 . S
H312 C337 0.951 . S
H313 C339 0.950 . S
H314 C340 0.950 . S
H315 C342 0.950 . S
H316 C345 0.950 . S
H317 C346 0.950 . S
H318 C348 0.950 . S
H319 C349 0.950 . S
C320 H302 0.951 . S
C320 C321 1.366 1_565 S
C320 C322 1.388 . S
C321 C320 1.366 1_545 S
C321 C325 1.385 . S
C322 H303 0.951 . S
C322 C320 1.388 . S
C322 C323 1.366 1_565 S
C323 C322 1.366 1_545 S
C323 C324 1.414 . S
C323 C326 1.499 . S
C324 H304 0.950 . S
C324 C323 1.414 . S
C324 C325 1.374 . S
C325 H305 0.950 . S
C325 C321 1.385 . S
C325 C324 1.374 . S
C326 C323 1.499 . S
C326 C327 1.373 . S
C326 C328 1.389 1_545 S
C327 H306 0.950 . S
C327 C326 1.373 . S
C327 C343 1.377 . S
C328 C326 1.389 1_565 S
C328 C329 1.524 . S
C328 C342 1.377 . S
C329 C328 1.524 . S
C329 C330 1.397 1_565 S
C329 C334 1.363 . S
C330 H307 0.950 . S
C330 C329 1.397 1_545 S
C330 C331 1.334 . S
C331 H308 0.950 . S
C331 C330 1.334 . S
C331 C332 1.287 . S
C332 C331 1.287 . S
C332 C333 1.524 1_545 S
C332 H351 0.913 . S
C333 H309 0.950 . S
C333 C332 1.524 1_565 S
C333 C334 1.415 . S
C334 H310 0.950 . S
C334 C329 1.363 . S
C334 C333 1.415 . S
C335 H311 0.951 . S
C335 C336 1.366 1_545 S
C335 C337 1.388 . S
C336 C335 1.366 1_565 S
C336 C340 1.385 . S
C337 H312 0.951 . S
C337 C335 1.388 . S
C337 C338 1.366 1_545 S
C338 C337 1.366 1_565 S
C338 C339 1.414 . S
C338 C341 1.499 . S
C339 H313 0.950 . S
C339 C338 1.414 . S
C339 C340 1.374 . S
C340 H314 0.950 . S
C340 C336 1.385 . S
C340 C339 1.374 . S
C341 C338 1.499 . S
C341 C342 1.373 . S
C341 C343 1.389 1_565 S
C342 H315 0.950 . S
C342 C328 1.377 . S
C342 C341 1.373 . S
C343 C327 1.377 . S
C343 C341 1.389 1_545 S
C343 C344 1.524 . S
C344 C343 1.524 . S
C344 C345 1.397 1_545 S
C344 C349 1.363 . S
C345 H316 0.950 . S
C345 C344 1.397 1_565 S
C345 C346 1.334 . S
C346 H317 0.950 . S
C346 C345 1.334 . S
C346 C347 1.287 . S
C347 C346 1.287 . S
C347 C348 1.524 1_565 S
C347 H350 0.999 . S
C348 H318 0.950 . S
C348 C347 1.524 1_545 S
C348 C349 1.415 . S
C349 H319 0.950 . S
C349 C344 1.363 . S
C349 C348 1.415 . S
H350 C347 0.999 . S
H351 C332 0.913 . S
H352 C370 0.951 . S
H353 C372 0.951 . S
H354 C374 0.950 . S
H355 C375 0.950 . S
H356 C377 0.950 . S
H357 C380 0.950 . S
H358 C381 0.950 . S
H359 C383 0.950 . S
H360 C384 0.950 . S
H361 C385 0.951 . S
H362 C387 0.951 . S
H363 C389 0.950 . S
H364 C390 0.950 . S
H365 C392 0.950 . S
H366 C395 0.950 . S
H367 C396 0.950 . S
H368 C398 0.950 . S
H369 C399 0.950 . S
C370 H352 0.951 . S
C370 C371 1.366 . S
C370 C372 1.388 . S
C371 C370 1.366 . S
C371 C375 1.385 . S
C372 H353 0.951 . S
C372 C370 1.388 . S
C372 C373 1.366 . S
C373 C372 1.366 . S
C373 C374 1.414 . S
C373 C376 1.499 . S
C374 H354 0.950 . S
C374 C373 1.414 . S
C374 C375 1.374 . S
C375 H355 0.950 . S
C375 C371 1.385 . S
C375 C374 1.374 . S
C376 C373 1.499 . S
C376 C377 1.373 . S
C376 C378 1.389 . S
C377 H356 0.950 . S
C377 C376 1.373 . S
C377 C393 1.377 . S
C378 C376 1.389 . S
C378 C379 1.524 . S
C378 C392 1.377 . S
C379 C378 1.524 . S
C379 C380 1.397 . S
C379 C384 1.363 . S
C380 H357 0.950 . S
C380 C379 1.397 . S
C380 C381 1.334 . S
C381 H358 0.950 . S
C381 C380 1.334 . S
C381 C382 1.287 . S
C382 C381 1.287 . S
C382 C383 1.524 . S
C382 H401 0.913 . S
C383 H359 0.950 . S
C383 C382 1.524 . S
C383 C384 1.415 . S
C384 H360 0.950 . S
C384 C379 1.363 . S
C384 C383 1.415 . S
C385 H361 0.951 . S
C385 C386 1.366 . S
C385 C387 1.388 . S
C386 C385 1.366 . S
C386 C390 1.385 . S
C387 H362 0.951 . S
C387 C385 1.388 . S
C387 C388 1.366 . S
C388 C387 1.366 . S
C388 C389 1.414 . S
C388 C391 1.499 . S
C389 H363 0.950 . S
C389 C388 1.414 . S
C389 C390 1.374 . S
C390 H364 0.950 . S
C390 C386 1.385 . S
C390 C389 1.374 . S
C391 C388 1.499 . S
C391 C392 1.373 . S
C391 C393 1.389 . S
C392 H365 0.950 . S
C392 C378 1.377 . S
C392 C391 1.373 . S
C393 C377 1.377 . S
C393 C391 1.389 . S
C393 C394 1.524 . S
C394 C393 1.524 . S
C394 C395 1.397 . S
C394 C399 1.363 . S
C395 H366 0.950 . S
C395 C394 1.397 . S
C395 C396 1.334 . S
C396 H367 0.950 . S
C396 C395 1.334 . S
C396 C397 1.287 . S
C397 C396 1.287 . S
C397 C398 1.524 . S
C397 H400 0.999 . S
C398 H368 0.950 . S
C398 C397 1.524 . S
C398 C399 1.415 . S
C399 H369 0.950 . S
C399 C394 1.363 . S
C399 C398 1.415 . S
H400 C397 0.999 . S
H401 C382 0.913 . S
H402 C420 0.951 . S
H403 C422 0.951 . S
H404 C424 0.950 . S
H405 C425 0.950 . S
H406 C427 0.950 . S
H407 C430 0.950 . S
H408 C431 0.950 . S
H409 C433 0.950 . S
H410 C434 0.950 . S
H411 C435 0.951 . S
H412 C437 0.951 . S
H413 C439 0.950 . S
H414 C440 0.950 . S
H415 C442 0.950 . S
H416 C445 0.950 . S
H417 C446 0.950 . S
H418 C448 0.950 . S
H419 C449 0.950 . S
C420 H402 0.951 . S
C420 C421 1.366 1_556 S
C420 C422 1.388 . S
C421 C420 1.366 1_554 S
C421 C425 1.385 . S
C422 H403 0.951 . S
C422 C420 1.388 . S
C422 C423 1.366 1_556 S
C423 C422 1.366 1_554 S
C423 C424 1.414 . S
C423 C426 1.501 . S
C424 H404 0.950 . S
C424 C423 1.414 . S
C424 C425 1.374 . S
C425 H405 0.950 . S
C425 C421 1.385 . S
C425 C424 1.374 . S
C426 C423 1.501 . S
C426 C427 1.387 . S
C426 C428 1.374 1_554 S
C427 H406 0.950 . S
C427 C426 1.387 . S
C427 C443 1.377 . S
C428 C426 1.374 1_556 S
C428 C429 1.524 . S
C428 C442 1.377 . S
C429 C428 1.524 . S
C429 C430 1.397 . S
C429 C434 1.363 . S
C430 H407 0.950 . S
C430 C429 1.397 . S
C430 C431 1.334 . S
C431 H408 0.950 . S
C431 C430 1.334 . S
C431 C432 1.287 . S
C432 C431 1.287 . S
C432 C433 1.524 . S
C432 H451 0.913 . S
C433 H409 0.950 . S
C433 C432 1.524 . S
C433 C434 1.415 . S
C434 H410 0.950 . S
C434 C429 1.363 . S
C434 C433 1.415 . S
C435 H411 0.951 . S
C435 C436 1.366 1_554 S
C435 C437 1.388 . S
C436 C435 1.366 1_556 S
C436 C440 1.385 . S
C437 H412 0.951 . S
C437 C435 1.388 . S
C437 C438 1.366 . S
C438 C437 1.366 . S
C438 C439 1.414 1_554 S
C438 C441 1.499 . S
C439 H413 0.950 . S
C439 C438 1.414 1_556 S
C439 C440 1.374 . S
C440 H414 0.950 . S
C440 C436 1.385 . S
C440 C439 1.374 . S
C441 C438 1.499 . S
C441 C442 1.373 1_554 S
C441 C443 1.389 . S
C442 H415 0.950 . S
C442 C428 1.377 . S
C442 C441 1.373 1_556 S
C443 C427 1.377 . S
C443 C441 1.389 . S
C443 C444 1.524 . S
C444 C443 1.524 . S
C444 C445 1.397 . S
C444 C449 1.363 . S
C445 H416 0.950 . S
C445 C444 1.397 . S
C445 C446 1.334 . S
C446 H417 0.950 . S
C446 C445 1.334 . S
C446 C447 1.287 . S
C447 C446 1.287 . S
C447 C448 1.524 . S
C447 H450 0.999 . S
C448 H418 0.950 . S
C448 C447 1.524 . S
C448 C449 1.415 . S
C449 H419 0.950 . S
C449 C444 1.363 . S
C449 C448 1.415 . S
H450 C447 0.999 . S
H451 C432 0.913 . S
H452 C470 0.951 . S
H453 C472 0.951 . S
H454 C474 0.950 1_554 S
H455 C475 0.959 . S
H456 C477 0.950 . S
H457 C480 0.950 . S
H458 C481 0.950 . S
H459 C483 0.950 . S
H460 C484 0.950 . S
H461 C485 0.951 . S
H462 C487 0.951 . S
H463 C489 0.950 . S
H464 C490 0.950 . S
H465 C492 0.950 . S
H466 C495 0.950 . S
H467 C496 0.950 . S
H468 C498 0.950 . S
H469 C499 0.950 . S
C470 H452 0.951 . S
C470 C471 1.366 . S
C470 C472 1.388 . S
C471 C470 1.366 . S
C471 C475 1.385 . S
C472 H453 0.951 . S
C472 C470 1.388 . S
C472 C473 1.366 . S
C473 C472 1.366 . S
C473 C474 1.414 . S
C473 C476 1.499 . S
C474 H454 0.950 1_556 S
C474 C473 1.414 . S
C474 C475 1.374 . S
C475 H455 0.959 . S
C475 C471 1.385 . S
C475 C474 1.374 . S
C476 C473 1.499 . S
C476 C477 1.373 1_556 S
C476 C478 1.389 . S
C477 H456 0.950 . S
C477 C476 1.373 1_554 S
C477 C493 1.377 . S
C478 C476 1.389 . S
C478 C479 1.524 . S
C478 C492 1.377 . S
C479 C478 1.524 . S
C479 C480 1.397 . S
C479 C484 1.363 . S
C480 H457 0.950 . S
C480 C479 1.397 . S
C480 C481 1.334 . S
C481 H458 0.950 . S
C481 C480 1.334 . S
C481 C482 1.287 . S
C482 C481 1.287 . S
C482 C483 1.524 . S
C482 H501 0.913 . S
C483 H459 0.950 . S
C483 C482 1.524 . S
C483 C484 1.415 . S
C484 H460 0.950 . S
C484 C479 1.363 . S
C484 C483 1.415 . S
C485 H461 0.951 . S
C485 C486 1.366 . S
C485 C487 1.388 . S
C486 C485 1.366 . S
C486 C490 1.385 1_554 S
C487 H462 0.951 . S
C487 C485 1.388 . S
C487 C488 1.366 . S
C488 C487 1.366 . S
C488 C489 1.414 1_554 S
C488 C491 1.499 . S
C489 H463 0.950 . S
C489 C488 1.414 1_556 S
C489 C490 1.374 . S
C490 H464 0.950 . S
C490 C486 1.385 1_556 S
C490 C489 1.374 . S
C491 C488 1.499 . S
C491 C492 1.373 1_554 S
C491 C493 1.389 . S
C492 H465 0.950 . S
C492 C478 1.377 . S
C492 C491 1.373 1_556 S
C493 C477 1.377 . S
C493 C491 1.389 . S
C493 C494 1.524 . S
C494 C493 1.524 . S
C494 C495 1.397 . S
C494 C499 1.363 . S
C495 H466 0.950 . S
C495 C494 1.397 . S
C495 C496 1.334 . S
C496 H467 0.950 . S
C496 C495 1.334 . S
C496 C497 1.287 . S
C497 C496 1.287 . S
C497 C498 1.524 . S
C497 H500 0.999 . S
C498 H468 0.950 . S
C498 C497 1.524 . S
C498 C499 1.415 . S
C499 H469 0.950 . S
C499 C494 1.363 . S
C499 C498 1.415 . S
H500 C497 0.999 . S
H501 C482 0.913 . S
H502 C520 0.951 . S
H503 C522 0.951 . S
H504 C524 0.950 . S
H505 C525 0.950 . S
H506 C527 0.950 . S
H507 C530 0.950 . S
H508 C531 0.950 . S
H509 C533 0.950 1_554 S
H510 C534 0.950 1_554 S
H511 C535 0.951 . S
H512 C537 0.951 . S
H513 C539 0.950 . S
H514 C540 0.950 . S
H515 C542 0.950 . S
H516 C545 0.950 . S
H517 C546 0.950 . S
H518 C548 0.950 . S
H519 C549 0.950 . S
C520 H502 0.951 . S
C520 C521 1.366 1_554 S
C520 C522 1.388 . S
C521 C520 1.366 1_556 S
C521 C525 1.385 . S
C522 H503 0.951 . S
C522 C520 1.388 . S
C522 C523 1.366 1_554 S
C523 C522 1.366 1_556 S
C523 C524 1.414 . S
C523 C526 1.499 . S
C524 H504 0.950 . S
C524 C523 1.414 . S
C524 C525 1.374 . S
C525 H505 0.950 . S
C525 C521 1.385 . S
C525 C524 1.374 . S
C526 C523 1.499 . S
C526 C527 1.373 . S
C526 C528 1.389 . S
C527 H506 0.950 . S
C527 C526 1.373 . S
C527 C543 1.377 . S
C528 C526 1.389 . S
C528 C529 1.524 . S
C528 C542 1.377 . S
C529 C528 1.524 . S
C529 C530 1.397 . S
C529 C534 1.363 . S
C530 H507 0.950 . S
C530 C529 1.397 . S
C530 C531 1.334 . S
C531 H508 0.950 . S
C531 C530 1.334 . S
C531 C532 1.287 . S
C532 C531 1.287 . S
C532 C533 1.524 . S
C532 H551 0.913 . S
C533 H509 0.950 1_556 S
C533 C532 1.524 . S
C533 C534 1.415 . S
C534 H510 0.950 1_556 S
C534 C529 1.363 . S
C534 C533 1.415 . S
C535 H511 0.951 . S
C535 C536 1.366 . S
C535 C537 1.388 . S
C536 C535 1.366 . S
C536 C540 1.385 1_556 S
C537 H512 0.951 . S
C537 C535 1.388 . S
C537 C538 1.366 . S
C538 C537 1.366 . S
C538 C539 1.414 1_556 S
C538 C541 1.499 . S
C539 H513 0.950 . S
C539 C538 1.414 1_554 S
C539 C540 1.374 . S
C540 H514 0.950 . S
C540 C536 1.385 1_554 S
C540 C539 1.374 . S
C541 C538 1.499 . S
C541 C542 1.373 . S
C541 C543 1.389 . S
C542 H515 0.950 . S
C542 C528 1.377 . S
C542 C541 1.373 . S
C543 C527 1.377 . S
C543 C541 1.389 . S
C543 C544 1.524 . S
C544 C543 1.524 . S
C544 C545 1.397 1_556 S
C544 C549 1.363 . S
C545 H516 0.950 . S
C545 C544 1.397 1_554 S
C545 C546 1.334 . S
C546 H517 0.950 . S
C546 C545 1.334 . S
C546 C547 1.287 . S
C547 C546 1.287 . S
C547 C548 1.524 1_554 S
C547 H550 0.999 . S
C548 H518 0.950 . S
C548 C547 1.524 1_556 S
C548 C549 1.415 . S
C549 H519 0.950 . S
C549 C544 1.363 . S
C549 C548 1.415 . S
H550 C547 0.999 . S
H551 C532 0.913 . S
H552 C570 0.951 . S
H553 C572 0.951 . S
H554 C574 0.950 . S
H555 C575 0.950 . S
H556 C577 0.950 . S
H557 C580 0.950 . S
H558 C581 0.950 . S
H559 C583 0.950 . S
H560 C584 0.950 . S
H561 C585 0.951 . S
H562 C587 0.951 . S
H563 C589 0.950 . S
H564 C590 0.950 . S
H565 C592 0.950 . S
H566 C595 0.950 . S
H567 C596 0.950 . S
H568 C598 0.950 . S
H569 C599 0.950 . S
C570 H552 0.951 . S
C570 C571 1.366 1_554 S
C570 C572 1.388 . S
C571 C570 1.366 1_556 S
C571 C575 1.385 . S
C572 H553 0.951 . S
C572 C570 1.388 . S
C572 C573 1.366 1_554 S
C573 C572 1.366 1_556 S
C573 C574 1.414 . S
C573 C576 1.499 . S
C574 H554 0.950 . S
C574 C573 1.414 . S
C574 C575 1.374 . S
C575 H555 0.950 . S
C575 C571 1.385 . S
C575 C574 1.374 . S
C576 C573 1.499 . S
C576 C577 1.373 . S
C576 C578 1.389 1_556 S
C577 H556 0.950 . S
C577 C576 1.373 . S
C577 C593 1.377 . S
C578 C576 1.389 1_554 S
C578 C579 1.524 . S
C578 C592 1.377 . S
C579 C578 1.524 . S
C579 C580 1.397 1_554 S
C579 C584 1.363 . S
C580 H557 0.950 . S
C580 C579 1.397 1_556 S
C580 C581 1.334 . S
C581 H558 0.950 . S
C581 C580 1.334 . S
C581 C582 1.287 1_556 S
C582 C581 1.287 1_554 S
C582 C583 1.524 . S
C582 H601 0.913 . S
C583 H559 0.950 . S
C583 C582 1.524 . S
C583 C584 1.415 . S
C584 H560 0.950 . S
C584 C579 1.363 . S
C584 C583 1.415 . S
C585 H561 0.951 . S
C585 C586 1.366 1_556 S
C585 C587 1.388 . S
C586 C585 1.366 1_554 S
C586 C590 1.385 . S
C587 H562 0.951 . S
C587 C585 1.388 . S
C587 C588 1.366 1_556 S
C588 C587 1.366 1_554 S
C588 C589 1.414 . S
C588 C591 1.499 . S
C589 H563 0.950 . S
C589 C588 1.414 . S
C589 C590 1.374 . S
C590 H564 0.950 . S
C590 C586 1.385 . S
C590 C589 1.374 . S
C591 C588 1.499 . S
C591 C592 1.373 . S
C591 C593 1.389 1_554 S
C592 H565 0.950 . S
C592 C578 1.377 . S
C592 C591 1.373 . S
C593 C577 1.377 . S
C593 C591 1.389 1_556 S
C593 C594 1.524 . S
C594 C593 1.524 . S
C594 C595 1.397 1_556 S
C594 C599 1.363 . S
C595 H566 0.950 . S
C595 C594 1.397 1_554 S
C595 C596 1.334 . S
C596 H567 0.950 . S
C596 C595 1.334 . S
C596 C597 1.287 1_554 S
C597 C596 1.287 1_556 S
C597 C598 1.524 . S
C597 H600 0.999 . S
C598 H568 0.950 . S
C598 C597 1.524 . S
C598 C599 1.415 . S
C599 H569 0.950 . S
C599 C594 1.363 . S
C599 C598 1.415 . S
H600 C597 0.999 . S
H601 C582 0.913 . S
H602 C620 0.951 . S
H603 C622 0.951 . S
H604 C624 0.950 . S
H605 C625 0.950 . S
H606 C627 0.950 . S
H607 C630 0.950 1_554 S
H608 C631 0.950 1_554 S
H609 C633 0.950 . S
H610 C634 0.950 . S
H611 C635 0.951 . S
H612 C637 0.951 . S
H613 C639 0.950 . S
H614 C640 0.950 . S
H615 C642 0.950 . S
H616 C645 0.950 1_556 S
H617 C646 0.950 . S
H618 C648 0.950 . S
H619 C649 0.950 . S
C620 H602 0.951 . S
C620 C621 1.366 . S
C620 C622 1.388 . S
C621 C620 1.366 . S
C621 C625 1.385 1_556 S
C622 H603 0.951 . S
C622 C620 1.388 . S
C622 C623 1.366 . S
C623 C622 1.366 . S
C623 C624 1.414 1_556 S
C623 C626 1.499 1_556 S
C624 H604 0.950 . S
C624 C623 1.414 1_554 S
C624 C625 1.374 . S
C625 H605 0.950 . S
C625 C621 1.385 1_554 S
C625 C624 1.374 . S
C626 C623 1.499 1_554 S
C626 C627 1.373 . S
C626 C628 1.389 1_554 S
C627 H606 0.950 . S
C627 C626 1.373 . S
C627 C643 1.377 . S
C628 C626 1.389 1_556 S
C628 C629 1.524 . S
C628 C642 1.377 . S
C629 C628 1.524 . S
C629 C630 1.397 . S
C629 C634 1.363 . S
C630 H607 0.950 1_556 S
C630 C629 1.397 . S
C630 C631 1.334 . S
C631 H608 0.950 1_556 S
C631 C630 1.334 . S
C631 C632 1.287 . S
C632 C631 1.287 . S
C632 C633 1.524 . S
C632 H651 0.913 . S
C633 H609 0.950 . S
C633 C632 1.524 . S
C633 C634 1.415 . S
C634 H610 0.950 . S
C634 C629 1.363 . S
C634 C633 1.415 . S
C635 H611 0.951 . S
C635 C636 1.366 . S
C635 C637 1.388 . S
C636 C635 1.366 . S
C636 C640 1.385 1_554 S
C637 H612 0.951 . S
C637 C635 1.388 . S
C637 C638 1.366 . S
C638 C637 1.366 . S
C638 C639 1.414 1_554 S
C638 C641 1.499 . S
C639 H613 0.950 . S
C639 C638 1.414 1_556 S
C639 C640 1.374 . S
C640 H614 0.950 . S
C640 C636 1.385 1_556 S
C640 C639 1.374 . S
C641 C638 1.499 . S
C641 C642 1.373 1_554 S
C641 C643 1.389 . S
C642 H615 0.950 . S
C642 C628 1.377 . S
C642 C641 1.373 1_556 S
C643 C627 1.377 . S
C643 C641 1.389 . S
C643 C644 1.524 . S
C644 C643 1.524 . S
C644 C645 1.397 . S
C644 C649 1.363 . S
C645 H616 0.950 1_554 S
C645 C644 1.397 . S
C645 C646 1.334 . S
C646 H617 0.950 . S
C646 C645 1.334 . S
C646 C647 1.287 . S
C647 C646 1.287 . S
C647 C648 1.524 . S
C647 H650 0.999 . S
C648 H618 0.950 . S
C648 C647 1.524 . S
C648 C649 1.415 . S
C649 H619 0.950 . S
C649 C644 1.363 . S
C649 C648 1.415 . S
H650 C647 0.999 . S
H651 C632 0.913 . S
H652 C670 0.951 . S
H653 C672 0.951 . S
H654 C674 0.950 . S
H655 C675 0.950 . S
H656 C677 0.950 . S
H657 C680 0.950 . S
H658 C681 0.950 . S
H659 C683 0.950 . S
H660 C684 0.950 . S
H661 C685 0.951 . S
H662 C687 0.951 . S
H663 C689 0.950 . S
H664 C690 0.950 . S
H665 C692 0.950 . S
H666 C695 0.950 . S
H667 C696 0.950 . S
H668 C698 0.949 1_554 S
H669 C699 0.950 . S
C670 H652 0.951 . S
C670 C671 1.366 1_556 S
C670 C672 1.388 . S
C671 C670 1.366 1_554 S
C671 C675 1.385 . S
C672 H653 0.951 . S
C672 C670 1.388 . S
C672 C673 1.366 1_556 S
C673 C672 1.366 1_554 S
C673 C674 1.414 . S
C673 C676 1.499 . S
C674 H654 0.950 . S
C674 C673 1.414 . S
C674 C675 1.374 . S
C675 H655 0.950 . S
C675 C671 1.385 . S
C675 C674 1.374 . S
C676 C673 1.499 . S
C676 C677 1.373 . S
C676 C678 1.389 . S
C677 H656 0.950 . S
C677 C676 1.373 . S
C677 C693 1.377 . S
C678 C676 1.389 . S
C678 C679 1.524 . S
C678 C692 1.377 . S
C679 C678 1.524 . S
C679 C680 1.397 . S
C679 C684 1.363 . S
C680 H657 0.950 . S
C680 C679 1.397 . S
C680 C681 1.334 . S
C681 H658 0.950 . S
C681 C680 1.334 . S
C681 C682 1.287 . S
C682 C681 1.287 . S
C682 C683 1.524 . S
C682 H701 0.913 . S
C683 H659 0.950 . S
C683 C682 1.524 . S
C683 C684 1.415 . S
C684 H660 0.950 . S
C684 C679 1.363 . S
C684 C683 1.415 . S
C685 H661 0.951 . S
C685 C686 1.366 . S
C685 C687 1.388 . S
C686 C685 1.366 . S
C686 C690 1.385 1_554 S
C687 H662 0.951 . S
C687 C685 1.388 . S
C687 C688 1.366 . S
C688 C687 1.366 . S
C688 C689 1.414 1_554 S
C688 C691 1.499 . S
C689 H663 0.950 . S
C689 C688 1.414 1_556 S
C689 C690 1.374 . S
C690 H664 0.950 . S
C690 C686 1.385 1_556 S
C690 C689 1.374 . S
C691 C688 1.499 . S
C691 C692 1.373 . S
C691 C693 1.389 . S
C692 H665 0.950 . S
C692 C678 1.377 . S
C692 C691 1.373 . S
C693 C677 1.377 . S
C693 C691 1.389 . S
C693 C694 1.524 1_554 S
C694 C693 1.524 1_556 S
C694 C695 1.397 . S
C694 C699 1.363 1_556 S
C695 H666 0.950 . S
C695 C694 1.397 . S
C695 C696 1.334 . S
C696 H667 0.950 . S
C696 C695 1.334 . S
C696 C697 1.287 . S
C697 C696 1.287 . S
C697 C698 1.524 . S
C697 H700 0.999 . S
C698 H668 0.949 1_556 S
C698 C697 1.524 . S
C698 C699 1.415 1_556 S
C699 H669 0.950 . S
C699 C694 1.363 1_554 S
C699 C698 1.415 1_554 S
H700 C697 0.999 . S
H701 C682 0.913 . S
C271 C63 1.490 . S
C286 C74 1.484 . S
C321 C147 1.521 . S
C336 C158 1.521 . S
C371 C242 1.479 . S
C386 C231 1.479 . S
C421 C67 2.257 . S
C436 C224 2.270 . S
C471 C153 0.744 . S
C486 C69 0.744 1_554 S
C521 C151 1.531 . S
C536 C237 1.402 1_556 S
C571 C56 2.256 1_556 S
C586 C235 2.270 . S
C621 C58 0.746 1_556 S
C636 C142 0.746 . S
C671 C226 1.401 1_554 S
C686 C140 1.532 . S
