# Generated by pormake.
# Topology uov, (4)-cn, num edge types: 1
# Building blocks:
#     Node 0, Type 0, BuildingBlock: NAHDIM_clean_sbu_0, # of connection points: 4
#     Node 1, Type 0, BuildingBlock: NAHDIM_clean_sbu_0, # of connection points: 4
#     Node 2, Type 0, BuildingBlock: NAHDIM_clean_sbu_0, # of connection points: 4
#     Node 3, Type 0, BuildingBlock: NAHDIM_clean_sbu_0, # of connection points: 4
#     Node 4, Type 0, BuildingBlock: NAHDIM_clean_sbu_0, # of connection points: 4
#     Node 5, Type 0, BuildingBlock: NAHDIM_clean_sbu_0, # of connection points: 4
#     Node 6, Type 0, BuildingBlock: NAHDIM_clean_sbu_0, # of connection points: 4
#     Node 7, Type 0, BuildingBlock: NAHDIM_clean_sbu_0, # of connection points: 4
#     Edge 8, Type (0, 0), BuildingBlock: FUNLAD_clean_linker_1, # of connection points: 2
#     Edge 9, Type (0, 0), BuildingBlock: FUNLAD_clean_linker_1, # of connection points: 2
#     Edge 10, Type (0, 0), BuildingBlock: FUNLAD_clean_linker_1, # of connection points: 2
#     Edge 11, Type (0, 0), BuildingBlock: FUNLAD_clean_linker_1, # of connection points: 2
#     Edge 12, Type (0, 0), BuildingBlock: FUNLAD_clean_linker_1, # of connection points: 2
#     Edge 13, Type (0, 0), BuildingBlock: FUNLAD_clean_linker_1, # of connection points: 2
#     Edge 14, Type (0, 0), BuildingBlock: FUNLAD_clean_linker_1, # of connection points: 2
#     Edge 15, Type (0, 0), BuildingBlock: FUNLAD_clean_linker_1, # of connection points: 2
#     Edge 16, Type (0, 0), BuildingBlock: FUNLAD_clean_linker_1, # of connection points: 2
#     Edge 17, Type (0, 0), BuildingBlock: FUNLAD_clean_linker_1, # of connection points: 2
#     Edge 18, Type (0, 0), BuildingBlock: FUNLAD_clean_linker_1, # of connection points: 2
#     Edge 19, Type (0, 0), BuildingBlock: FUNLAD_clean_linker_1, # of connection points: 2
#     Edge 20, Type (0, 0), BuildingBlock: FUNLAD_clean_linker_1, # of connection points: 2
#     Edge 21, Type (0, 0), BuildingBlock: FUNLAD_clean_linker_1, # of connection points: 2
#     Edge 22, Type (0, 0), BuildingBlock: FUNLAD_clean_linker_1, # of connection points: 2
#     Edge 23, Type (0, 0), BuildingBlock: FUNLAD_clean_linker_1, # of connection points: 2
# Relax obj value: 0.256
# Max RMSD: 0.233
# Mean RMSD: 0.233
data_MOF--net-uov--node1-NAHDIM_clean_sbu_0--edge1-FUNLAD_clean_linker_1
_symmetry_space_group_name_H-M    P1
_symmetry_Int_Tables_number       1
_symmetry_cell_setting            triclinic
loop_
_symmetry_equiv_pos_as_xyz
'x, y, z'
_cell_length_a     31.419943
_cell_length_b     31.359068
_cell_length_c     42.98891
_cell_angle_alpha  89.907962
_cell_angle_beta   89.882193
_cell_angle_gamma 89.873219
loop_
_atom_site_label
_atom_site_type_symbol
_atom_site_fract_x
_atom_site_fract_y
_atom_site_fract_z
_atom_type_partial_charge
C0 C 0.02476 0.33416 0.64874 0.0
O1 O 0.01488 0.31103 0.67317 0.0
O2 O 0.99525 0.22752 0.60179 0.0
Zn3 Zn 0.0475 0.25315 0.62075 0.0
O4 O 0.06195 0.22531 0.66148 0.0
C5 C 0.08884 0.24688 0.56205 0.0
O6 O 0.05292 0.26415 0.55269 0.0
O7 O 0.03966 0.31627 0.62456 0.0
C8 C 0.05892 0.18501 0.66368 0.0
O9 O 0.04426 0.1631 0.64004 0.0
C10 C 0.9568 0.23444 0.60948 0.0
O11 O 0.94809 0.25945 0.6331 0.0
O12 O 0.09489 0.24069 0.59089 0.0
C13 C 0.33969 -0.00024 0.37903 0.0
O14 O 0.32011 0.03512 0.37091 0.0
O15 O 0.24018 0.03479 0.40556 0.0
Zn16 Zn 0.25486 0.97448 0.39363 0.0
O17 O 0.22834 0.95828 0.35266 0.0
C18 C 0.20008 0.94777 0.44292 0.0
O19 O 0.18064 0.98318 0.43495 0.0
O20 O 0.31824 0.96873 0.38968 0.0
C21 C 0.19018 0.94545 0.35036 0.0
O22 O 0.16616 0.94301 0.37532 0.0
C23 C 0.21721 0.06032 0.38987 0.0
O24 O 0.20287 0.04872 0.36252 0.0
O25 O 0.23325 0.93613 0.42814 0.0
C26 C 0.97906 0.65169 0.58749 0.0
O27 O 0.98724 0.67122 0.56112 0.0
O28 O 0.01599 0.76235 0.59286 0.0
Zn29 Zn 0.96117 0.73669 0.6079 0.0
O30 O 0.94328 0.76058 0.64932 0.0
C31 C 0.90806 0.79221 0.57489 0.0
O32 O 0.92722 0.81869 0.59382 0.0
O33 O 0.96692 0.67324 0.61089 0.0
C34 C 0.95974 0.79351 0.66146 0.0
O35 O 0.99153 0.81281 0.64743 0.0
C36 C 0.05308 0.74748 0.5976 0.0
O37 O 0.05802 0.71315 0.61473 0.0
O38 O 0.91669 0.75266 0.57638 0.0
C39 C 0.66691 0.02952 0.36945 0.0
O40 O 0.6852 0.00828 0.34674 0.0
O41 O 0.76611 0.97813 0.40953 0.0
Zn42 Zn 0.75264 0.03643 0.39265 0.0
O43 O 0.77904 0.04659 0.35055 0.0
C44 C 0.81758 0.0834 0.42336 0.0
O45 O 0.8413 0.0635 0.40282 0.0
O46 O 0.68944 0.04499 0.39111 0.0
C47 C 0.80782 0.0229 0.33891 0.0
O48 O 0.82067 0.98891 0.35408 0.0
C49 C 0.75488 0.94184 0.3993 0.0
O50 O 0.73201 0.9391 0.37389 0.0
O51 O 0.77753 0.07791 0.42321 0.0
C52 C 0.98612 0.32864 0.13493 0.0
O53 O -0.00214 0.3014 0.1565 0.0
O54 O 0.00191 0.21898 0.09123 0.0
Zn55 Zn 0.95137 0.25409 0.10436 0.0
O56 O 0.92453 0.22962 0.14315 0.0
C57 C 0.88537 0.21936 0.06616 0.0
O58 O 0.8826 0.19198 0.08923 0.0
O59 O 0.9667 0.3154 0.11093 0.0
C60 C 0.934 0.19246 0.15273 0.0
O61 O 0.96203 0.16954 0.13736 0.0
C62 C 0.04117 0.22828 0.09194 0.0
O63 O 0.05364 0.26504 0.10328 0.0
O64 O 0.9111 0.25033 0.06818 0.0
C65 C 0.33244 0.96519 0.86843 0.0
O66 O 0.30241 0.93761 0.86191 0.0
O67 O 0.23134 0.96129 0.90589 0.0
Zn68 Zn 0.2623 0.01423 0.89252 0.0
O69 O 0.23276 0.04252 0.85645 0.0
C70 C 0.22309 0.06051 0.93991 0.0
O71 O 0.19049 0.04168 0.92668 0.0
O72 O 0.32277 0.00028 0.88145 0.0
C73 C 0.23647 0.08258 0.85284 0.0
O74 O 0.2603 0.10442 0.87211 0.0
C75 C 0.2005 0.94449 0.89133 0.0
O76 O 0.18835 0.96048 0.86454 0.0
O77 O 0.26017 0.05408 0.9291 0.0
C78 C 0.97592 0.65832 0.1218 0.0
O79 O 0.94095 0.68126 0.12142 0.0
O80 O 0.96174 0.76627 0.10217 0.0
Zn81 Zn 0.01617 0.74053 0.11806 0.0
O82 O 0.0312 0.76429 0.15993 0.0
C83 C 0.05236 0.759 0.05872 0.0
O84 O 0.01469 0.7462 0.04941 0.0
O85 O 0.01189 0.67669 0.12047 0.0
C86 C 0.04608 0.8018 0.16169 0.0
O87 O 0.05048 0.82463 0.13622 0.0
C88 C 0.93762 0.79219 0.11654 0.0
O89 O 0.94621 0.80286 0.14534 0.0
O90 O 0.0615 0.7576 0.08746 0.0
C91 C 0.66024 0.97081 0.84782 0.0
O92 O 0.68267 0.00262 0.83664 0.0
O93 O 0.74283 0.01207 0.89599 0.0
Zn94 Zn 0.73876 0.95337 0.87757 0.0
O95 O 0.77896 0.94509 0.84167 0.0
C96 C 0.75546 0.92223 0.93951 0.0
O97 O 0.73876 0.95898 0.9477 0.0
O98 O 0.67809 0.94359 0.86543 0.0
C99 C 0.81861 0.94432 0.84756 0.0
O100 O 0.83169 0.95138 0.87608 0.0
C101 C 0.76713 0.04236 0.88789 0.0
O102 O 0.79201 0.03816 0.8635 0.0
O103 O 0.75682 0.91199 0.91095 0.0
H104 H -0.00237 0.5884 0.56972 0.0
C105 C 0.98572 0.60535 0.59001 0.0
H106 H 0.96789 0.60072 0.63733 0.0
H107 H 0.96068 0.39971 0.58677 0.0
H108 H 0.90096 0.42283 0.55529 0.0
H109 H 0.87986 0.49861 0.55344 0.0
H110 H 0.91856 0.55173 0.58288 0.0
C111 C 0.97849 0.58397 0.61659 0.0
C112 C 0.98878 0.53787 0.61935 0.0
C113 C 0.96531 0.50719 0.60234 0.0
C114 C 0.97702 0.46344 0.60383 0.0
C115 C 0.95324 0.43342 0.58647 0.0
C116 C 0.91878 0.44622 0.56836 0.0
C117 C 0.90695 0.48888 0.56729 0.0
C118 C 0.92967 0.51912 0.58414 0.0
H119 H 0.00294 0.39466 0.66973 0.0
C120 C 0.01646 0.3804 0.64889 0.0
H121 H 0.03579 0.39051 0.60234 0.0
H122 H 0.03919 0.58844 0.65583 0.0
H123 H 0.09833 0.56519 0.68782 0.0
H124 H 0.11906 0.48933 0.69 0.0
H125 H 0.08065 0.43627 0.66033 0.0
C126 C 0.02379 0.40469 0.62369 0.0
C127 C 0.01153 0.4504 0.62281 0.0
C128 C 0.03449 0.48096 0.64028 0.0
C129 C 0.02286 0.52474 0.63872 0.0
C130 C 0.04651 0.55472 0.6562 0.0
C131 C 0.08064 0.54183 0.67462 0.0
C132 C 0.09228 0.49912 0.67587 0.0
C133 C 0.06975 0.46894 0.65884 0.0
H134 H 0.60718 0.05564 0.38833 0.0
C135 C 0.62038 0.03385 0.37116 0.0
H136 H 0.60678 0.98813 0.33655 0.0
H137 H 0.43255 0.01221 0.42589 0.0
H138 H 0.47567 0.98452 0.468 0.0
H139 H 0.55132 0.96662 0.4596 0.0
H140 H 0.58449 0.9777 0.40932 0.0
C141 C 0.5941 0.00985 0.35395 0.0
C142 C 0.54711 0.01317 0.35764 0.0
C143 C 0.52756 0.00349 0.38661 0.0
C144 C 0.48326 0.01072 0.39081 0.0
C145 C 0.46544 0.00475 0.42081 0.0
C146 C 0.48994 0.98924 0.44532 0.0
C147 C 0.53257 0.97939 0.44063 0.0
C148 C 0.55131 0.98632 0.41169 0.0
H149 H 0.40044 0.96456 0.38015 0.0
C150 C 0.38614 0.99563 0.37592 0.0
H151 H 0.39703 0.06002 0.36392 0.0
H152 H 0.57437 0.03376 0.29893 0.0
H153 H 0.5303 0.05672 0.25578 0.0
H154 H 0.45258 0.06423 0.26197 0.0
H155 H 0.41852 0.04931 0.31143 0.0
C156 C 0.41104 0.02901 0.36877 0.0
C157 C 0.45792 0.0241 0.36527 0.0
C158 C 0.47722 0.03233 0.33602 0.0
C159 C 0.52192 0.02717 0.33227 0.0
C160 C 0.54049 0.03656 0.303 0.0
C161 C 0.51557 0.04982 0.27801 0.0
C162 C 0.47183 0.0541 0.28151 0.0
C163 C 0.4527 0.0455 0.31008 0.0
H164 H 0.01418 0.3844 0.15856 0.0
C165 C 0.99515 0.3744 0.1388 0.0
H166 H 0.96133 0.39386 0.09879 0.0
H167 H 0.97336 0.57364 0.18026 0.0
H168 H 0.93175 0.5374 0.21982 0.0
H169 H 0.91401 0.46117 0.2145 0.0
H170 H 0.93859 0.42057 0.17008 0.0
C171 C 0.97961 0.40369 0.11898 0.0
C172 C 0.98901 0.44988 0.12231 0.0
C173 C 0.9727 0.47343 0.14787 0.0
C174 C 0.98087 0.5179 0.15009 0.0
C175 C 0.9664 0.54024 0.17671 0.0
C176 C 0.94274 0.51976 0.19971 0.0
C177 C 0.93291 0.47681 0.19678 0.0
C178 C 0.94754 0.45378 0.17121 0.0
H179 H 0.94141 0.59729 0.12229 0.0
C180 C 0.97289 0.61154 0.12337 0.0
H181 H 0.03906 0.60005 0.12643 0.0
H182 H 0.02685 0.41368 0.07127 0.0
H183 H 0.0667 0.45048 0.03105 0.0
H184 H 0.07764 0.52827 0.03355 0.0
H185 H 0.04911 0.56966 0.07639 0.0
C186 C 0.00733 0.58635 0.12605 0.0
C187 C 0.00315 0.53912 0.12588 0.0
C188 C 0.02003 0.51547 0.10062 0.0
C189 C 0.0131 0.47077 0.09891 0.0
C190 C 0.03058 0.44783 0.07352 0.0
C191 C 0.05363 0.46853 0.05029 0.0
C192 C 0.05984 0.51231 0.05172 0.0
C193 C 0.04329 0.53568 0.07649 0.0
H194 H 0.38453 0.92241 0.8536 0.0
C195 C 0.37721 0.95428 0.86199 0.0
H196 H 0.40194 0.01363 0.87625 0.0
H197 H 0.58216 0.94862 0.91596 0.0
H198 H 0.54982 0.96289 0.96604 0.0
H199 H 0.47328 0.97957 0.97028 0.0
H200 H 0.42873 0.98239 0.92437 0.0
C201 C 0.40885 0.98211 0.86703 0.0
C202 C 0.45424 0.96934 0.86411 0.0
C203 C 0.47967 0.96706 0.89126 0.0
C204 C 0.52359 0.95668 0.88887 0.0
C205 C 0.54847 0.9557 0.91635 0.0
C206 C 0.53033 0.96392 0.94532 0.0
C207 C 0.48726 0.97336 0.9477 0.0
C208 C 0.46208 0.97497 0.9211 0.0
H209 H 0.59944 0.99788 0.83174 0.0
C210 C 0.61374 0.97086 0.84371 0.0
H211 H 0.60255 0.91501 0.86991 0.0
H212 H 0.41506 0.9732 0.80719 0.0
H213 H 0.44663 0.95554 0.75732 0.0
H214 H 0.52169 0.93277 0.75365 0.0
H215 H 0.56581 0.92828 0.79985 0.0
C216 C 0.58863 0.94135 0.85697 0.0
C217 C 0.54192 0.94834 0.85931 0.0
C218 C 0.51615 0.94905 0.83228 0.0
C219 C 0.47241 0.96041 0.83458 0.0
C220 C 0.44802 0.96325 0.80698 0.0
C221 C 0.46583 0.95343 0.77815 0.0
C222 C 0.50812 0.94076 0.77607 0.0
C223 C 0.53315 0.93855 0.80274 0.0
H224 H 0.1751 0.11662 0.39294 0.0
C225 C 0.20043 0.09926 0.40466 0.0
H226 H 0.23594 0.09206 0.44598 0.0
H227 H 0.14494 0.27933 0.47341 0.0
H228 H 0.19208 0.30743 0.43346 0.0
H229 H 0.2367 0.25917 0.40187 0.0
H230 H 0.23451 0.1825 0.40999 0.0
C231 C 0.21172 0.11021 0.43368 0.0
C232 C 0.1852 0.13994 0.4523 0.0
C233 C 0.18679 0.18453 0.4471 0.0
C234 C 0.16125 0.21236 0.46544 0.0
C235 C 0.16369 0.25682 0.46009 0.0
C236 C 0.1906 0.27333 0.43727 0.0
C237 C 0.21571 0.24615 0.41946 0.0
C238 C 0.21405 0.20223 0.42427 0.0
H239 H 0.14654 0.21143 0.54876 0.0
C240 C 0.11863 0.22771 0.53963 0.0
H241 H 0.08169 0.2403 0.49948 0.0
H242 H 0.17469 0.05585 0.46816 0.0
H243 H 0.12586 0.0276 0.50663 0.0
H244 H 0.07894 0.07561 0.53661 0.0
H245 H 0.08112 0.15201 0.52855 0.0
C246 C 0.10939 0.22443 0.50925 0.0
C247 C 0.13441 0.19545 0.4889 0.0
C248 C 0.13174 0.15067 0.49334 0.0
C249 C 0.15783 0.12297 0.47546 0.0
C250 C 0.15532 0.07842 0.48088 0.0
C251 C 0.12736 0.06173 0.50289 0.0
C252 C 0.10104 0.08874 0.5198 0.0
C253 C 0.10292 0.13265 0.51511 0.0
H254 H 0.15158 0.93221 0.47785 0.0
C255 C 0.1818 0.92175 0.46808 0.0
H256 H 0.22996 0.87459 0.46925 0.0
H257 H 0.1078 0.8615 0.59826 0.0
H258 H 0.14007 0.92888 0.61295 0.0
H259 H 0.19133 0.96468 0.57809 0.0
H260 H 0.21034 0.9335 0.52824 0.0
C261 C 0.20028 0.88619 0.47914 0.0
C262 C 0.17802 0.86026 0.5032 0.0
C263 C 0.16856 0.8781 0.53273 0.0
C264 C 0.13967 0.8571 0.55305 0.0
C265 C 0.1296 0.87622 0.58196 0.0
C266 C 0.148 0.91476 0.59071 0.0
C267 C 0.17682 0.93494 0.57107 0.0
C268 C 0.18721 0.91691 0.54244 0.0
H269 H 0.12117 0.7519 0.58455 0.0
C270 C 0.09006 0.76661 0.58171 0.0
H271 H 0.0546 0.81557 0.55991 0.0
H272 H 0.19482 0.81429 0.45044 0.0
H273 H 0.16529 0.74536 0.43695 0.0
H274 H 0.1152 0.70882 0.47226 0.0
H275 H 0.09442 0.74092 0.52128 0.0
C276 C 0.0854 0.80019 0.56258 0.0
C277 C 0.12123 0.81786 0.54414 0.0
C278 C 0.13358 0.79817 0.51584 0.0
C279 C 0.16228 0.81934 0.4954 0.0
C280 C 0.17321 0.7996 0.46686 0.0
C281 C 0.15648 0.76003 0.45882 0.0
C282 C 0.12829 0.73946 0.4787 0.0
C283 C 0.1167 0.75822 0.50683 0.0
H284 H 0.75825 0.87197 0.40694 0.0
C285 C 0.7675 0.90283 0.41615 0.0
H286 H 0.79802 0.93594 0.45254 0.0
H287 H 0.78902 0.79928 0.55654 0.0
H288 H 0.72493 0.83923 0.56951 0.0
H289 H 0.69531 0.89209 0.5328 0.0
H290 H 0.72939 0.90513 0.48287 0.0
C291 C 0.78987 0.90514 0.44267 0.0
C292 C 0.8019 0.86701 0.46111 0.0
C293 C 0.78135 0.85954 0.48994 0.0
C294 C 0.79862 0.82952 0.5112 0.0
C295 C 0.77755 0.82251 0.53988 0.0
C296 C 0.74068 0.84499 0.54749 0.0
C297 C 0.72399 0.87474 0.52681 0.0
C298 C 0.74393 0.88204 0.49832 0.0
H299 H 0.8728 0.84371 0.55197 0.0
C300 C 0.87879 0.80953 0.55142 0.0
H301 H 0.86836 0.75212 0.5268 0.0
H302 H 0.84598 0.86994 0.40605 0.0
H303 H 0.90775 0.82738 0.39228 0.0
H304 H 0.93737 0.7748 0.42916 0.0
H305 H 0.9054 0.7646 0.48012 0.0
C306 C 0.86143 0.78597 0.5287 0.0
C307 C 0.83679 0.80766 0.50375 0.0
C308 C 0.85475 0.81179 0.47365 0.0
C309 C 0.83745 0.84185 0.4523 0.0
C310 C 0.85745 0.8472 0.42302 0.0
C311 C 0.89299 0.82302 0.41484 0.0
C312 C 0.90969 0.79344 0.43561 0.0
C313 C 0.89107 0.78791 0.46478 0.0
H314 H 0.8725 0.11373 0.44583 0.0
C315 C 0.83821 0.1095 0.44739 0.0
H316 H 0.78303 0.12032 0.47454 0.0
H317 H 0.89873 0.13241 0.59589 0.0
H318 H 0.85864 0.06778 0.60594 0.0
H319 H 0.80952 0.03896 0.56655 0.0
H320 H 0.80028 0.07453 0.51685 0.0
C321 C 0.81696 0.12581 0.47178 0.0
C322 C 0.84058 0.1472 0.49729 0.0
C323 C 0.84451 0.12671 0.52658 0.0
C324 C 0.87264 0.14344 0.54936 0.0
C325 C 0.87742 0.12138 0.57791 0.0
C326 C 0.85467 0.08418 0.58395 0.0
C327 C 0.82703 0.06794 0.56177 0.0
C328 C 0.822 0.08871 0.53333 0.0
H329 H 0.88931 0.22288 0.59733 0.0
C330 C 0.92206 0.21673 0.59048 0.0
H331 H 0.96302 0.19023 0.55653 0.0
H332 H 0.83404 0.19839 0.44591 0.0
H333 H 0.87276 0.26409 0.43634 0.0
H334 H 0.92264 0.29241 0.47543 0.0
H335 H 0.93388 0.25538 0.52438 0.0
C336 C 0.93039 0.19503 0.56423 0.0
C337 C 0.8963 0.18083 0.54283 0.0
C338 C 0.89028 0.20277 0.51434 0.0
C339 C 0.86205 0.18616 0.49165 0.0
C340 C 0.85598 0.2091 0.4636 0.0
C341 C 0.87778 0.24697 0.45791 0.0
C342 C 0.90583 0.26294 0.47993 0.0
C343 C 0.91209 0.24129 0.50788 0.0
H344 H 0.75052 0.07941 0.9294 0.0
C345 C 0.77261 0.0777 0.90991 0.0
H346 H 0.83177 0.09842 0.89224 0.0
H347 H 0.78642 0.22876 0.01153 0.0
H348 H 0.7369 0.26296 0.97602 0.0
H349 H 0.72527 0.23414 0.92334 0.0
H350 H 0.76299 0.17069 0.9059 0.0
C351 C 0.80778 0.10178 0.91033 0.0
C352 C 0.81964 0.12358 0.93967 0.0
C353 C 0.79826 0.16118 0.94917 0.0
C354 C 0.80568 0.17829 0.9793 0.0
C355 C 0.78273 0.215 0.98864 0.0
C356 C 0.75408 0.23481 0.96854 0.0
C357 C 0.74746 0.21853 0.93889 0.0
C358 C 0.76916 0.18209 0.92921 0.0
H359 H 0.87397 0.22998 0.01613 0.0
C360 C 0.86561 0.20998 0.0359 0.0
H361 H 0.83567 0.15344 0.05084 0.0
H362 H 0.8669 0.05162 0.92811 0.0
H363 H 0.91727 0.01814 0.96307 0.0
H364 H 0.9313 0.04846 0.01493 0.0
H365 H 0.89491 0.1124 0.03215 0.0
C366 C 0.84267 0.17451 0.0314 0.0
C367 C 0.83497 0.15797 -0.00044 0.0
C368 C 0.85725 0.12098 0.98967 0.0
C369 C 0.8496 0.1038 0.95967 0.0
C370 C 0.87164 0.0663 0.95059 0.0
C371 C 0.90069 0.04667 0.97044 0.0
C372 C 0.90857 0.06374 -0.00037 0.0
C373 C 0.88731 0.10047 0.00923 0.0
H374 H 0.24406 0.10536 0.97653 0.0
C375 C 0.21667 0.08935 0.96654 0.0
H376 H 0.15028 0.07956 0.96898 0.0
H377 H 0.11936 0.13611 0.10599 0.0
H378 H 0.12141 0.05918 0.11327 0.0
H379 H 0.14583 0.01183 0.07099 0.0
H380 H 0.16888 0.04109 0.02141 0.0
C381 C 0.17763 0.09651 0.97817 0.0
C382 C 0.16991 0.12538 0.00493 0.0
C383 C 0.15681 0.10777 0.03374 0.0
C384 C 0.14199 0.13492 0.05786 0.0
C385 C 0.12969 0.11664 0.08662 0.0
C386 C 0.13104 0.07264 0.09115 0.0
C387 C 0.14485 0.04599 0.06737 0.0
C388 C 0.15778 0.06317 0.03899 0.0
H389 H 0.05768 0.17137 0.06502 0.0
C390 C 0.07117 0.19911 0.0765 0.0
H391 H 0.12699 0.23486 0.08437 0.0
H392 H 0.19613 0.16987 0.95331 0.0
H393 H 0.19655 0.24662 0.94701 0.0
H394 H 0.17131 0.29373 0.98912 0.0
H395 H 0.14538 0.26427 0.03772 0.0
C396 C 0.11308 0.20663 0.07393 0.0
C397 C 0.13922 0.17953 0.05277 0.0
C398 C 0.15602 0.19744 0.02505 0.0
C399 C 0.17104 0.17028 0.00091 0.0
C400 C 0.18518 0.18889 0.97269 0.0
C401 C 0.18541 0.23297 0.96869 0.0
C402 C 0.17116 0.25949 0.99238 0.0
C403 C 0.15635 0.24212 0.02019 0.0
H404 H 0.11155 0.7925 0.04622 0.0
C405 C 0.0817 0.78038 0.03705 0.0
H406 H 0.04142 0.77708 0.99769 0.0
H407 H 0.15065 0.95314 0.97059 0.0
H408 H 0.10602 0.98327 0.01109 0.0
H409 H 0.05644 0.93791 0.04088 0.0
H410 H 0.05144 0.86214 0.03051 0.0
C411 C 0.07094 0.78897 0.00748 0.0
C412 C 0.09816 0.81681 0.98783 0.0
C413 C 0.10017 0.8612 0.99394 0.0
C414 C 0.12823 0.88743 0.97645 0.0
C415 C 0.12994 0.93164 0.9832 0.0
C416 C 0.10441 0.94942 0.00634 0.0
C417 C 0.07653 0.92388 0.02313 0.0
C418 C 0.0742 0.88033 0.01706 0.0
H419 H 0.14756 0.89832 0.89391 0.0
C420 C 0.17524 0.91047 0.90612 0.0
H421 H 0.21011 0.91035 0.9481 0.0
H422 H 0.09941 0.73361 0.96896 0.0
H423 H 0.14264 0.70367 0.92742 0.0
H424 H 0.19163 0.74912 0.89716 0.0
H425 H 0.19763 0.82477 0.90813 0.0
C426 C 0.18361 0.89702 0.93516 0.0
C427 C 0.15345 0.86937 0.95245 0.0
C428 C 0.15041 0.82526 0.94566 0.0
C429 C 0.1225 0.79898 0.9633 0.0
C430 C 0.12017 0.75496 0.95626 0.0
C431 C 0.14481 0.73739 0.93251 0.0
C432 C 0.17237 0.76299 0.91546 0.0
C433 C 0.17539 0.80641 0.92191 0.0
H434 H 0.79282 0.86622 0.95427 0.0
C435 C 0.77783 0.89545 0.9624 0.0
H436 H 0.76906 0.93702 0.00069 0.0
H437 H 0.82242 0.78261 0.09163 0.0
H438 H 0.74575 0.77997 0.09816 0.0
H439 H 0.6986 0.82496 0.06601 0.0
H440 H 0.72791 0.87274 0.02695 0.0
C441 C 0.78363 0.90796 0.99194 0.0
C442 C 0.81209 0.8835 0.01296 0.0
C443 C 0.79454 0.85663 0.03614 0.0
C444 C 0.82176 0.83122 0.055 0.0
C445 C 0.8033 0.80335 0.07716 0.0
C446 C 0.75931 0.80136 0.08104 0.0
C447 C 0.73276 0.82666 0.06291 0.0
C448 C 0.74997 0.85393 0.0406 0.0
H449 H 0.88492 0.83855 0.11176 0.0
C450 C 0.90291 0.81389 0.09976 0.0
H451 H 0.91444 0.78266 0.05705 0.0
H452 H 0.8561 0.93527 0.97277 0.0
H453 H 0.93279 0.93871 0.96665 0.0
H454 H 0.98007 0.89436 -0.00093 0.0
H455 H 0.95105 0.84623 0.03781 0.0
C456 C 0.89546 0.80609 0.06953 0.0
C457 C 0.8665 0.83341 0.05089 0.0
C458 C 0.8841 0.86112 0.02817 0.0
C459 C 0.85686 0.88646 0.00934 0.0
C460 C 0.87528 0.91464 0.98731 0.0
C461 C 0.91927 0.91717 0.98368 0.0
C462 C 0.94591 0.89218 0.00193 0.0
C463 C 0.92876 0.86455 0.02402 0.0
H464 H 0.07342 0.12755 0.6913 0.0
C465 C 0.0757 0.16215 0.691 0.0
H466 H 0.10078 0.21657 0.71323 0.0
H467 H 0.113 0.06864 0.82436 0.0
H468 H 0.03591 0.07195 0.82561 0.0
H469 H 0.99636 0.11497 0.78719 0.0
H470 H 0.0337 0.15492 0.74725 0.0
C471 C 0.09651 0.1822 0.71394 0.0
C472 C 0.11991 0.15756 0.73804 0.0
C473 C 0.09757 0.13455 0.76129 0.0
C474 C 0.12041 0.11003 0.78358 0.0
C475 C 0.09731 0.08762 0.80673 0.0
C476 C 0.05302 0.08932 0.80777 0.0
C477 C 0.03076 0.11351 0.78613 0.0
C478 C 0.05259 0.13608 0.7632 0.0
H479 H 0.21739 0.13955 0.82627 0.0
C480 C 0.21383 0.10512 0.82777 0.0
H481 H 0.18423 0.05063 0.80881 0.0
H482 H 0.17239 0.19829 0.6966 0.0
H483 H 0.24935 0.19383 0.6946 0.0
H484 H 0.28886 0.14926 0.73208 0.0
H485 H 0.25167 0.10925 0.77193 0.0
C486 C 0.18919 0.08484 0.80706 0.0
C487 C 0.16553 0.10895 0.78275 0.0
C488 C 0.18784 0.13143 0.75915 0.0
C489 C 0.16501 0.15631 0.73709 0.0
C490 C 0.18807 0.17881 0.71395 0.0
C491 C 0.23229 0.17646 0.71246 0.0
C492 C 0.25453 0.15144 0.73359 0.0
C493 C 0.23275 0.12893 0.75657 0.0
H494 H 0.0554 0.7983 0.21242 0.0
C495 C 0.05971 0.81844 0.19204 0.0
H496 H 0.08231 0.87756 0.17509 0.0
H497 H 0.07594 0.9692 0.30601 0.0
H498 H 0.01849 0.00531 0.27895 0.0
H499 H 0.99452 0.98053 0.22746 0.0
H500 H 0.02804 0.91964 0.2026 0.0
C501 C 0.07863 0.85655 0.19504 0.0
C502 C 0.09369 0.87173 0.22584 0.0
C503 C 0.07359 0.90722 0.24008 0.0
C504 C 0.08705 0.92118 0.26992 0.0
C505 C 0.06672 0.95699 0.28349 0.0
C506 C 0.03372 0.97805 0.2682 0.0
C507 C 0.02025 0.96411 0.2392 0.0
C508 C 0.0398 0.92913 0.22519 0.0
H509 H 0.1953 0.93405 0.29993 0.0
C510 C 0.1741 0.93171 0.31988 0.0
H511 H 0.11309 0.91332 0.33579 0.0
H512 H 0.143 0.80624 0.20335 0.0
H513 H 0.19828 0.76827 0.23126 0.0
H514 H 0.21722 0.78842 0.28492 0.0
H515 H 0.18166 0.84728 0.31063 0.0
C516 C 0.13512 0.91497 0.31631 0.0
C517 C 0.12049 0.89954 0.28546 0.0
C518 C 0.14019 0.86362 0.27142 0.0
C519 C 0.12763 0.85049 0.24118 0.0
C520 C 0.14981 0.81635 0.22685 0.0
C521 C 0.18188 0.79444 0.24252 0.0
C522 C 0.19266 0.8059 0.27267 0.0
C523 C 0.17218 0.84001 0.28707 0.0
H524 H 0.91244 0.79531 0.69916 0.0
C525 C 0.93986 0.81178 0.68944 0.0
H526 H 0.97874 0.86654 0.69189 0.0
H527 H 0.83287 0.97648 0.75502 0.0
H528 H 0.84341 0.01344 0.70597 0.0
H529 H 0.89205 0.98448 0.66611 0.0
H530 H 0.93072 0.91865 0.67511 0.0
C531 C 0.95246 0.84882 0.70202 0.0
C532 C 0.92721 0.86874 0.7275 0.0
C533 C 0.90495 0.90735 0.72181 0.0
C534 C 0.8764 0.92372 0.74458 0.0
C535 C 0.85458 0.96237 0.73836 0.0
C536 C 0.86037 0.98395 0.71033 0.0
C537 C 0.88779 0.96766 0.6879 0.0
C538 C 0.90983 0.92981 0.69341 0.0
H539 H 0.88345 0.93304 0.82969 0.0
C540 C 0.84989 0.9323 0.82358 0.0
H541 H 0.8048 0.91693 0.78899 0.0
H542 H 0.97116 0.79877 0.74812 0.0
H543 H 0.95962 0.76079 0.79663 0.0
H544 H 0.90551 0.7855 0.83421 0.0
H545 H 0.86344 0.84869 0.82387 0.0
C546 C 0.83814 0.91735 0.79567 0.0
C547 C 0.87003 0.90137 0.77287 0.0
C548 C 0.8931 0.86325 0.77889 0.0
C549 C 0.92263 0.84765 0.75652 0.0
C550 C 0.94696 0.81088 0.76373 0.0
C551 C 0.94088 0.78896 0.79158 0.0
C552 C 0.91055 0.80297 0.81278 0.0
C553 C 0.8868 0.83957 0.80662 0.0
H554 H 0.85498 0.01494 0.30123 0.0
C555 C 0.82962 0.03535 0.30993 0.0
H556 H 0.79675 0.09373 0.30448 0.0
H557 H 0.9508 0.18285 0.23609 0.0
H558 H 0.95499 0.21555 0.28702 0.0
H559 H 0.90985 0.19022 0.33025 0.0
H560 H 0.86053 0.13179 0.32282 0.0
C561 C 0.82078 0.07216 0.29528 0.0
C562 C 0.84727 0.08739 0.26887 0.0
C563 C 0.87521 0.12224 0.27344 0.0
C564 C 0.90058 0.13742 0.24837 0.0
C565 C 0.92966 0.17101 0.25398 0.0
C566 C 0.93268 0.18984 0.28321 0.0
C567 C 0.90731 0.17554 0.30755 0.0
C568 C 0.87902 0.14203 0.30292 0.0
H569 H 0.88826 0.19466 0.19164 0.0
C570 C 0.91233 0.17508 0.18034 0.0
H571 H 0.9441 0.11561 0.18003 0.0
H572 H 0.79609 0.02065 0.25212 0.0
H573 H 0.79246 0.98738 0.20131 0.0
H574 H 0.83657 0.01361 0.1578 0.0
H575 H 0.88446 0.07333 0.1648 0.0
C576 C 0.92105 0.13605 0.19161 0.0
C577 C 0.89705 0.11843 0.21856 0.0
C578 C 0.86979 0.08297 0.21416 0.0
C579 C 0.84464 0.06757 0.23932 0.0
C580 C 0.81658 0.03307 0.23402 0.0
C581 C 0.814 0.01381 0.20491 0.0
C582 C 0.8388 0.0286 0.18041 0.0
C583 C 0.86626 0.06288 0.18478 0.0
loop_
_geom_bond_atom_site_label_1
_geom_bond_atom_site_label_2
_geom_bond_distance
_geom_bond_site_symmetry_2
_ccdc_geom_bond_type
C0 O1 1.160 . S
C0 O7 1.185 . S
O1 C0 1.160 . S
O2 Zn3 1.911 . S
O2 C10 1.277 1_455 S
Zn3 O2 1.911 . S
Zn3 O4 2.032 . S
Zn3 O7 2.086 . S
Zn3 O12 1.977 . S
O4 Zn3 2.032 . S
O4 C8 1.278 . S
C5 O6 1.203 . S
C5 O12 1.267 . S
O6 C5 1.203 . S
O7 C0 1.185 . S
O7 Zn3 2.086 . S
C8 O4 1.278 . S
C8 O9 1.211 . S
O9 C8 1.211 . S
C10 O2 1.277 1_655 S
C10 O11 1.273 . S
O11 C10 1.273 . S
O12 Zn3 1.977 . S
O12 C5 1.267 . S
C13 O14 1.160 . S
C13 O20 1.185 . S
O14 C13 1.160 . S
O15 Zn16 1.911 . S
O15 C23 1.277 1_565 S
Zn16 O15 1.911 . S
Zn16 O17 2.032 . S
Zn16 O20 2.086 . S
Zn16 O25 1.977 . S
O17 Zn16 2.032 . S
O17 C21 1.278 . S
C18 O19 1.203 . S
C18 O25 1.267 . S
O19 C18 1.203 . S
O20 C13 1.185 . S
O20 Zn16 2.086 . S
C21 O17 1.278 . S
C21 O22 1.211 . S
O22 C21 1.211 . S
C23 O15 1.277 1_545 S
C23 O24 1.273 . S
O24 C23 1.273 . S
O25 Zn16 1.977 . S
O25 C18 1.267 . S
C26 O27 1.160 . S
C26 O33 1.185 . S
O27 C26 1.160 . S
O28 Zn29 1.911 . S
O28 C36 1.277 1_655 S
Zn29 O28 1.911 . S
Zn29 O30 2.032 . S
Zn29 O33 2.086 . S
Zn29 O38 1.977 . S
O30 Zn29 2.032 . S
O30 C34 1.278 . S
C31 O32 1.203 . S
C31 O38 1.267 . S
O32 C31 1.203 . S
O33 C26 1.185 . S
O33 Zn29 2.086 . S
C34 O30 1.278 . S
C34 O35 1.211 . S
O35 C34 1.211 . S
C36 O28 1.277 1_455 S
C36 O37 1.273 . S
O37 C36 1.273 . S
O38 Zn29 1.977 . S
O38 C31 1.267 . S
C39 O40 1.160 . S
C39 O46 1.185 . S
O40 C39 1.160 . S
O41 Zn42 1.911 . S
O41 C49 1.277 1_545 S
Zn42 O41 1.911 . S
Zn42 O43 2.032 . S
Zn42 O46 2.086 . S
Zn42 O51 1.977 . S
O43 Zn42 2.032 . S
O43 C47 1.278 . S
C44 O45 1.203 . S
C44 O51 1.267 . S
O45 C44 1.203 . S
O46 C39 1.185 . S
O46 Zn42 2.086 . S
C47 O43 1.278 . S
C47 O48 1.211 . S
O48 C47 1.211 . S
C49 O41 1.277 1_565 S
C49 O50 1.273 . S
O50 C49 1.273 . S
O51 Zn42 1.977 . S
O51 C44 1.267 . S
C52 O53 1.160 . S
C52 O59 1.185 . S
O53 C52 1.160 . S
O54 Zn55 1.911 . S
O54 C62 1.277 1_655 S
Zn55 O54 1.911 . S
Zn55 O56 2.032 . S
Zn55 O59 2.086 . S
Zn55 O64 1.977 . S
O56 Zn55 2.032 . S
O56 C60 1.278 . S
C57 O58 1.203 . S
C57 O64 1.267 . S
O58 C57 1.203 . S
O59 C52 1.185 . S
O59 Zn55 2.086 . S
C60 O56 1.278 . S
C60 O61 1.211 . S
O61 C60 1.211 . S
C62 O54 1.277 1_455 S
C62 O63 1.273 . S
O63 C62 1.273 . S
O64 Zn55 1.977 . S
O64 C57 1.267 . S
C65 O66 1.160 . S
C65 O72 1.185 . S
O66 C65 1.160 . S
O67 Zn68 1.911 . S
O67 C75 1.277 1_545 S
Zn68 O67 1.911 . S
Zn68 O69 2.032 . S
Zn68 O72 2.086 . S
Zn68 O77 1.977 . S
O69 Zn68 2.032 . S
O69 C73 1.278 . S
C70 O71 1.203 . S
C70 O77 1.267 . S
O71 C70 1.203 . S
O72 C65 1.185 . S
O72 Zn68 2.086 . S
C73 O69 1.278 . S
C73 O74 1.211 . S
O74 C73 1.211 . S
C75 O67 1.277 1_565 S
C75 O76 1.273 . S
O76 C75 1.273 . S
O77 Zn68 1.977 . S
O77 C70 1.267 . S
C78 O79 1.160 . S
C78 O85 1.185 . S
O79 C78 1.160 . S
O80 Zn81 1.911 . S
O80 C88 1.277 1_455 S
Zn81 O80 1.911 . S
Zn81 O82 2.032 . S
Zn81 O85 2.086 . S
Zn81 O90 1.977 . S
O82 Zn81 2.032 . S
O82 C86 1.278 . S
C83 O84 1.203 . S
C83 O90 1.267 . S
O84 C83 1.203 . S
O85 C78 1.185 . S
O85 Zn81 2.086 . S
C86 O82 1.278 . S
C86 O87 1.211 . S
O87 C86 1.211 . S
C88 O80 1.277 1_655 S
C88 O89 1.273 . S
O89 C88 1.273 . S
O90 Zn81 1.977 . S
O90 C83 1.267 . S
C91 O92 1.160 . S
C91 O98 1.185 . S
O92 C91 1.160 . S
O93 Zn94 1.911 . S
O93 C101 1.277 1_565 S
Zn94 O93 1.911 . S
Zn94 O95 2.032 . S
Zn94 O98 2.086 . S
Zn94 O103 1.977 . S
O95 Zn94 2.032 . S
O95 C99 1.278 . S
C96 O97 1.203 . S
C96 O103 1.267 . S
O97 C96 1.203 . S
O98 C91 1.185 . S
O98 Zn94 2.086 . S
C99 O95 1.278 . S
C99 O100 1.211 . S
O100 C99 1.211 . S
C101 O93 1.277 1_545 S
C101 O102 1.273 . S
O102 C101 1.273 . S
O103 Zn94 1.977 . S
O103 C96 1.267 . S
H104 C105 0.951 . S
C105 H104 0.951 . S
C105 C111 1.265 . S
H106 C111 0.950 . S
H107 C115 0.949 1_455 S
H108 C116 0.950 . S
H109 C117 0.951 . S
H110 C118 0.951 . S
C111 C105 1.265 . S
C111 H106 0.950 . S
C111 C112 1.478 . S
C112 C111 1.478 . S
C112 C113 1.397 . S
C112 C129 1.382 1_655 S
C113 C112 1.397 . S
C113 C114 1.450 . S
C113 C118 1.429 . S
C114 C113 1.450 . S
C114 C115 1.429 . S
C114 C127 1.382 1_655 S
C115 H107 0.949 1_655 S
C115 C114 1.429 . S
C115 C116 1.345 . S
C116 H108 0.950 . S
C116 C115 1.345 . S
C116 C117 1.424 . S
C117 H109 0.951 . S
C117 C116 1.424 . S
C117 C118 1.347 . S
C118 H110 0.951 . S
C118 C113 1.429 . S
C118 C117 1.347 . S
H119 C120 0.951 . S
C120 H119 0.951 . S
C120 C126 1.265 . S
H121 C126 0.950 . S
H122 C130 0.949 1_655 S
H123 C131 0.950 . S
H124 C132 0.951 . S
H125 C133 0.951 . S
C126 C120 1.265 . S
C126 H121 0.950 . S
C126 C127 1.478 . S
C127 C114 1.382 1_455 S
C127 C126 1.478 . S
C127 C128 1.397 . S
C128 C127 1.397 . S
C128 C129 1.450 . S
C128 C133 1.429 . S
C129 C112 1.382 1_455 S
C129 C128 1.450 . S
C129 C130 1.429 . S
C130 H122 0.949 1_455 S
C130 C129 1.429 . S
C130 C131 1.345 . S
C131 H123 0.950 . S
C131 C130 1.345 . S
C131 C132 1.424 . S
C132 H124 0.951 . S
C132 C131 1.424 . S
C132 C133 1.347 . S
C133 H125 0.951 . S
C133 C128 1.429 . S
C133 C132 1.347 . S
H134 C135 0.951 . S
C135 H134 0.951 . S
C135 C141 1.265 . S
H136 C141 0.950 1_565 S
H137 C145 0.949 . S
H138 C146 0.950 . S
H139 C147 0.951 . S
H140 C148 0.951 . S
C141 C135 1.265 . S
C141 H136 0.950 1_545 S
C141 C142 1.478 . S
C142 C141 1.478 . S
C142 C143 1.397 1_545 S
C142 C159 1.394 . S
C143 C142 1.397 1_565 S
C143 C144 1.438 . S
C143 C148 1.429 . S
C144 C143 1.438 . S
C144 C145 1.428 . S
C144 C157 1.394 . S
C145 H137 0.949 . S
C145 C144 1.428 . S
C145 C146 1.345 . S
C146 H138 0.950 . S
C146 C145 1.345 . S
C146 C147 1.424 . S
C147 H139 0.951 . S
C147 C146 1.424 . S
C147 C148 1.347 . S
C148 H140 0.951 . S
C148 C143 1.429 . S
C148 C147 1.347 . S
H149 C150 0.951 . S
C150 H149 0.951 . S
C150 C156 1.265 . S
H151 C156 0.950 1_545 S
H152 C160 0.949 . S
H153 C161 0.950 . S
H154 C162 0.951 . S
H155 C163 0.951 . S
C156 C150 1.265 . S
C156 H151 0.950 1_565 S
C156 C157 1.478 . S
C157 C144 1.394 . S
C157 C156 1.478 . S
C157 C158 1.397 1_565 S
C158 C157 1.397 1_545 S
C158 C159 1.438 . S
C158 C163 1.429 . S
C159 C142 1.394 . S
C159 C158 1.438 . S
C159 C160 1.428 . S
C160 H152 0.949 . S
C160 C159 1.428 . S
C160 C161 1.345 . S
C161 H153 0.950 . S
C161 C160 1.345 . S
C161 C162 1.424 . S
C162 H154 0.951 . S
C162 C161 1.424 . S
C162 C163 1.347 . S
C163 H155 0.951 . S
C163 C158 1.429 . S
C163 C162 1.347 . S
H164 C165 0.951 . S
C165 H164 0.951 . S
C165 C171 1.265 . S
H166 C171 0.950 . S
H167 C175 0.949 . S
H168 C176 0.946 1_455 S
H169 C177 0.951 . S
H170 C178 0.951 . S
C171 C165 1.265 . S
C171 H166 0.950 . S
C171 C172 1.478 . S
C172 C171 1.478 . S
C172 C173 1.397 . S
C172 C189 1.394 . S
C173 C172 1.397 . S
C173 C174 1.438 1_655 S
C173 C178 1.429 . S
C174 C173 1.438 1_455 S
C174 C175 1.428 . S
C174 C187 1.394 . S
C175 H167 0.949 . S
C175 C174 1.428 . S
C175 C176 1.336 1_455 S
C176 H168 0.946 1_655 S
C176 C175 1.336 1_655 S
C176 C177 1.437 . S
C177 H169 0.951 . S
C177 C176 1.437 . S
C177 C178 1.347 . S
C178 H170 0.951 . S
C178 C173 1.429 . S
C178 C177 1.347 . S
H179 C180 0.951 . S
C180 H179 0.951 . S
C180 C186 1.265 . S
H181 C186 0.950 . S
H182 C190 0.949 . S
H183 C191 0.946 1_655 S
H184 C192 0.951 1_556 S
H185 C193 0.951 . S
C186 C180 1.265 . S
C186 H181 0.950 . S
C186 C187 1.478 . S
C187 C174 1.394 . S
C187 C186 1.478 . S
C187 C188 1.397 . S
C188 C187 1.397 . S
C188 C189 1.438 1_455 S
C188 C193 1.429 . S
C189 C172 1.394 . S
C189 C188 1.438 1_655 S
C189 C190 1.428 . S
C190 H182 0.949 . S
C190 C189 1.428 . S
C190 C191 1.336 1_655 S
C191 H183 0.946 1_455 S
C191 C190 1.336 1_455 S
C191 C192 1.437 . S
C192 H184 0.951 1_554 S
C192 C191 1.437 . S
C192 C193 1.347 . S
C193 H185 0.951 . S
C193 C188 1.429 . S
C193 C192 1.347 . S
H194 C195 0.951 . S
C195 H194 0.951 . S
C195 C201 1.265 . S
H196 C201 0.950 . S
H197 C205 0.949 1_565 S
H198 C206 0.950 . S
H199 C207 0.951 . S
H200 C208 0.951 . S
C201 C195 1.265 . S
C201 H196 0.950 . S
C201 C202 1.478 . S
C202 C201 1.478 . S
C202 C203 1.397 . S
C202 C219 1.394 1_545 S
C203 C202 1.397 . S
C203 C204 1.438 . S
C203 C208 1.429 . S
C204 C203 1.438 . S
C204 C205 1.428 . S
C204 C217 1.394 1_545 S
C205 H197 0.949 1_545 S
C205 C204 1.428 . S
C205 C206 1.345 . S
C206 H198 0.950 . S
C206 C205 1.345 . S
C206 C207 1.424 . S
C207 H199 0.951 . S
C207 C206 1.424 . S
C207 C208 1.347 . S
C208 H200 0.951 . S
C208 C203 1.429 . S
C208 C207 1.347 . S
H209 C210 0.951 . S
C210 H209 0.951 . S
C210 C216 1.265 . S
H211 C216 0.950 . S
H212 C220 0.949 1_545 S
H213 C221 0.950 . S
H214 C222 0.951 . S
H215 C223 0.951 . S
C216 C210 1.265 . S
C216 H211 0.950 . S
C216 C217 1.478 . S
C217 C204 1.394 1_565 S
C217 C216 1.478 . S
C217 C218 1.397 . S
C218 C217 1.397 . S
C218 C219 1.438 . S
C218 C223 1.429 . S
C219 C202 1.394 1_565 S
C219 C218 1.438 . S
C219 C220 1.428 . S
C220 H212 0.949 1_565 S
C220 C219 1.428 . S
C220 C221 1.345 . S
C221 H213 0.950 . S
C221 C220 1.345 . S
C221 C222 1.424 . S
C222 H214 0.951 . S
C222 C221 1.424 . S
C222 C223 1.347 . S
C223 H215 0.951 . S
C223 C218 1.429 . S
C223 C222 1.347 . S
H224 C225 0.951 . S
C225 H224 0.951 . S
C225 C231 1.265 . S
H226 C231 0.950 . S
H227 C235 0.949 . S
H228 C236 0.950 . S
H229 C237 0.951 . S
H230 C238 0.951 . S
C231 C225 1.265 . S
C231 H226 0.950 . S
C231 C232 1.478 . S
C232 C231 1.478 . S
C232 C233 1.397 . S
C232 C249 1.394 . S
C233 C232 1.397 . S
C233 C234 1.438 . S
C233 C238 1.429 . S
C234 C233 1.438 . S
C234 C235 1.428 . S
C234 C247 1.394 . S
C235 H227 0.949 . S
C235 C234 1.428 . S
C235 C236 1.345 . S
C236 H228 0.950 . S
C236 C235 1.345 . S
C236 C237 1.424 . S
C237 H229 0.951 . S
C237 C236 1.424 . S
C237 C238 1.347 . S
C238 H230 0.951 . S
C238 C233 1.429 . S
C238 C237 1.347 . S
H239 C240 0.951 . S
C240 H239 0.951 . S
C240 C246 1.265 . S
H241 C246 0.950 . S
H242 C250 0.949 . S
H243 C251 0.950 1_565 S
H244 C252 0.951 . S
H245 C253 0.951 . S
C246 C240 1.265 . S
C246 H241 0.950 . S
C246 C247 1.478 . S
C247 C234 1.394 . S
C247 C246 1.478 . S
C247 C248 1.397 . S
C248 C247 1.397 . S
C248 C249 1.438 . S
C248 C253 1.429 . S
C249 C232 1.394 . S
C249 C248 1.438 . S
C249 C250 1.428 . S
C250 H242 0.949 . S
C250 C249 1.428 . S
C250 C251 1.345 . S
C251 H243 0.950 1_545 S
C251 C250 1.345 . S
C251 C252 1.424 . S
C252 H244 0.951 . S
C252 C251 1.424 . S
C252 C253 1.347 . S
C253 H245 0.951 . S
C253 C248 1.429 . S
C253 C252 1.347 . S
H254 C255 0.951 . S
C255 H254 0.951 . S
C255 C261 1.265 . S
H256 C261 0.950 . S
H257 C265 0.949 . S
H258 C266 0.950 . S
H259 C267 0.951 . S
H260 C268 0.951 . S
C261 C255 1.265 . S
C261 H256 0.950 . S
C261 C262 1.478 . S
C262 C261 1.478 . S
C262 C263 1.397 . S
C262 C279 1.394 . S
C263 C262 1.397 . S
C263 C264 1.438 . S
C263 C268 1.429 . S
C264 C263 1.438 . S
C264 C265 1.428 . S
C264 C277 1.394 . S
C265 H257 0.949 . S
C265 C264 1.428 . S
C265 C266 1.345 . S
C266 H258 0.950 . S
C266 C265 1.345 . S
C266 C267 1.424 . S
C267 H259 0.951 . S
C267 C266 1.424 . S
C267 C268 1.347 . S
C268 H260 0.951 . S
C268 C263 1.429 . S
C268 C267 1.347 . S
H269 C270 0.951 . S
C270 H269 0.951 . S
C270 C276 1.265 . S
H271 C276 0.950 . S
H272 C280 0.949 . S
H273 C281 0.950 . S
H274 C282 0.951 . S
H275 C283 0.951 . S
C276 C270 1.265 . S
C276 H271 0.950 . S
C276 C277 1.478 . S
C277 C264 1.394 . S
C277 C276 1.478 . S
C277 C278 1.397 . S
C278 C277 1.397 . S
C278 C279 1.438 . S
C278 C283 1.429 . S
C279 C262 1.394 . S
C279 C278 1.438 . S
C279 C280 1.428 . S
C280 H272 0.949 . S
C280 C279 1.428 . S
C280 C281 1.345 . S
C281 H273 0.950 . S
C281 C280 1.345 . S
C281 C282 1.424 . S
C282 H274 0.951 . S
C282 C281 1.424 . S
C282 C283 1.347 . S
C283 H275 0.951 . S
C283 C278 1.429 . S
C283 C282 1.347 . S
H284 C285 0.951 . S
C285 H284 0.951 . S
C285 C291 1.265 . S
H286 C291 0.950 . S
H287 C295 0.949 . S
H288 C296 0.950 . S
H289 C297 0.951 . S
H290 C298 0.951 . S
C291 C285 1.265 . S
C291 H286 0.950 . S
C291 C292 1.478 . S
C292 C291 1.478 . S
C292 C293 1.397 . S
C292 C309 1.394 . S
C293 C292 1.397 . S
C293 C294 1.438 . S
C293 C298 1.429 . S
C294 C293 1.438 . S
C294 C295 1.428 . S
C294 C307 1.394 . S
C295 H287 0.949 . S
C295 C294 1.428 . S
C295 C296 1.345 . S
C296 H288 0.950 . S
C296 C295 1.345 . S
C296 C297 1.424 . S
C297 H289 0.951 . S
C297 C296 1.424 . S
C297 C298 1.347 . S
C298 H290 0.951 . S
C298 C293 1.429 . S
C298 C297 1.347 . S
H299 C300 0.951 . S
C300 H299 0.951 . S
C300 C306 1.265 . S
H301 C306 0.950 . S
H302 C310 0.949 . S
H303 C311 0.950 . S
H304 C312 0.951 . S
H305 C313 0.951 . S
C306 C300 1.265 . S
C306 H301 0.950 . S
C306 C307 1.478 . S
C307 C294 1.394 . S
C307 C306 1.478 . S
C307 C308 1.397 . S
C308 C307 1.397 . S
C308 C309 1.438 . S
C308 C313 1.429 . S
C309 C292 1.394 . S
C309 C308 1.438 . S
C309 C310 1.428 . S
C310 H302 0.949 . S
C310 C309 1.428 . S
C310 C311 1.345 . S
C311 H303 0.950 . S
C311 C310 1.345 . S
C311 C312 1.424 . S
C312 H304 0.951 . S
C312 C311 1.424 . S
C312 C313 1.347 . S
C313 H305 0.951 . S
C313 C308 1.429 . S
C313 C312 1.347 . S
H314 C315 0.951 . S
C315 H314 0.951 . S
C315 C321 1.265 . S
H316 C321 0.950 . S
H317 C325 0.949 . S
H318 C326 0.950 . S
H319 C327 0.951 . S
H320 C328 0.951 . S
C321 C315 1.265 . S
C321 H316 0.950 . S
C321 C322 1.478 . S
C322 C321 1.478 . S
C322 C323 1.397 . S
C322 C339 1.394 . S
C323 C322 1.397 . S
C323 C324 1.438 . S
C323 C328 1.429 . S
C324 C323 1.438 . S
C324 C325 1.428 . S
C324 C337 1.394 . S
C325 H317 0.949 . S
C325 C324 1.428 . S
C325 C326 1.345 . S
C326 H318 0.950 . S
C326 C325 1.345 . S
C326 C327 1.424 . S
C327 H319 0.951 . S
C327 C326 1.424 . S
C327 C328 1.347 . S
C328 H320 0.951 . S
C328 C323 1.429 . S
C328 C327 1.347 . S
H329 C330 0.951 . S
C330 H329 0.951 . S
C330 C336 1.265 . S
H331 C336 0.950 . S
H332 C340 0.949 . S
H333 C341 0.950 . S
H334 C342 0.951 . S
H335 C343 0.951 . S
C336 C330 1.265 . S
C336 H331 0.950 . S
C336 C337 1.478 . S
C337 C324 1.394 . S
C337 C336 1.478 . S
C337 C338 1.397 . S
C338 C337 1.397 . S
C338 C339 1.438 . S
C338 C343 1.429 . S
C339 C322 1.394 . S
C339 C338 1.438 . S
C339 C340 1.428 . S
C340 H332 0.949 . S
C340 C339 1.428 . S
C340 C341 1.345 . S
C341 H333 0.950 . S
C341 C340 1.345 . S
C341 C342 1.424 . S
C342 H334 0.951 . S
C342 C341 1.424 . S
C342 C343 1.347 . S
C343 H335 0.951 . S
C343 C338 1.429 . S
C343 C342 1.347 . S
H344 C345 0.951 . S
C345 H344 0.951 . S
C345 C351 1.265 . S
H346 C351 0.950 . S
H347 C355 0.922 1_554 S
H348 C356 0.950 . S
H349 C357 0.951 . S
H350 C358 0.951 . S
C351 C345 1.265 . S
C351 H346 0.950 . S
C351 C352 1.478 . S
C352 C351 1.478 . S
C352 C353 1.397 . S
C352 C369 1.394 . S
C353 C352 1.397 . S
C353 C354 1.438 . S
C353 C358 1.429 . S
C354 C353 1.438 . S
C354 C355 1.428 . S
C354 C367 1.394 1_556 S
C355 H347 0.922 1_556 S
C355 C354 1.428 . S
C355 C356 1.345 . S
C356 H348 0.950 . S
C356 C355 1.345 . S
C356 C357 1.424 . S
C357 H349 0.951 . S
C357 C356 1.424 . S
C357 C358 1.347 . S
C358 H350 0.951 . S
C358 C353 1.429 . S
C358 C357 1.347 . S
H359 C360 0.951 . S
C360 H359 0.951 . S
C360 C366 1.265 . S
H361 C366 0.950 . S
H362 C370 0.949 . S
H363 C371 0.950 1_565 S
H364 C372 0.951 . S
H365 C373 0.951 . S
C366 C360 1.265 . S
C366 H361 0.950 . S
C366 C367 1.478 . S
C367 C354 1.394 1_554 S
C367 C366 1.478 . S
C367 C368 1.397 . S
C368 C367 1.397 . S
C368 C369 1.438 1_554 S
C368 C373 1.429 . S
C369 C352 1.394 . S
C369 C368 1.438 1_556 S
C369 C370 1.428 . S
C370 H362 0.949 . S
C370 C369 1.428 . S
C370 C371 1.345 1_556 S
C371 H363 0.950 1_545 S
C371 C370 1.345 1_554 S
C371 C372 1.424 . S
C372 H364 0.951 . S
C372 C371 1.424 . S
C372 C373 1.347 . S
C373 H365 0.951 . S
C373 C368 1.429 . S
C373 C372 1.347 . S
H374 C375 0.951 . S
C375 H374 0.951 . S
C375 C381 1.265 . S
H376 C381 0.950 . S
H377 C385 0.949 . S
H378 C386 0.950 . S
H379 C387 0.951 . S
H380 C388 0.951 . S
C381 C375 1.265 . S
C381 H376 0.950 . S
C381 C382 1.478 . S
C382 C381 1.478 . S
C382 C383 1.397 1_556 S
C382 C399 1.394 . S
C383 C382 1.397 1_554 S
C383 C384 1.438 . S
C383 C388 1.429 1_554 S
C384 C383 1.438 . S
C384 C385 1.428 . S
C384 C397 1.394 . S
C385 H377 0.949 . S
C385 C384 1.428 . S
C385 C386 1.345 . S
C386 H378 0.950 . S
C386 C385 1.345 . S
C386 C387 1.424 . S
C387 H379 0.951 . S
C387 C386 1.424 . S
C387 C388 1.347 1_554 S
C388 H380 0.951 . S
C388 C383 1.429 1_556 S
C388 C387 1.347 1_556 S
H389 C390 0.951 . S
C390 H389 0.951 . S
C390 C396 1.265 . S
H391 C396 0.950 . S
H392 C400 0.949 . S
H393 C401 0.950 . S
H394 C402 0.951 . S
H395 C403 0.951 . S
C396 C390 1.265 . S
C396 H391 0.950 . S
C396 C397 1.478 . S
C397 C384 1.394 . S
C397 C396 1.478 . S
C397 C398 1.397 . S
C398 C397 1.397 . S
C398 C399 1.438 1_554 S
C398 C403 1.429 . S
C399 C382 1.394 . S
C399 C398 1.438 1_556 S
C399 C400 1.428 . S
C400 H392 0.949 . S
C400 C399 1.428 . S
C400 C401 1.345 . S
C401 H393 0.950 . S
C401 C400 1.345 . S
C401 C402 1.424 1_556 S
C402 H394 0.951 . S
C402 C401 1.424 1_554 S
C402 C403 1.347 . S
C403 H395 0.951 . S
C403 C398 1.429 . S
C403 C402 1.347 . S
H404 C405 0.951 . S
C405 H404 0.951 . S
C405 C411 1.265 . S
H406 C411 0.950 . S
H407 C415 0.949 . S
H408 C416 0.950 1_545 S
H409 C417 0.951 . S
H410 C418 0.951 . S
C411 C405 1.265 . S
C411 H406 0.950 . S
C411 C412 1.478 . S
C412 C411 1.478 . S
C412 C413 1.397 . S
C412 C429 1.394 1_554 S
C413 C412 1.397 . S
C413 C414 1.438 1_554 S
C413 C418 1.429 . S
C414 C413 1.438 1_556 S
C414 C415 1.428 . S
C414 C427 1.394 . S
C415 H407 0.949 . S
C415 C414 1.428 . S
C415 C416 1.345 1_556 S
C416 H408 0.950 1_565 S
C416 C415 1.345 1_554 S
C416 C417 1.424 . S
C417 H409 0.951 . S
C417 C416 1.424 . S
C417 C418 1.347 . S
C418 H410 0.951 . S
C418 C413 1.429 . S
C418 C417 1.347 . S
H419 C420 0.951 . S
C420 H419 0.951 . S
C420 C426 1.265 . S
H421 C426 0.950 . S
H422 C430 0.949 . S
H423 C431 0.950 . S
H424 C432 0.951 . S
H425 C433 0.951 . S
C426 C420 1.265 . S
C426 H421 0.950 . S
C426 C427 1.478 . S
C427 C414 1.394 . S
C427 C426 1.478 . S
C427 C428 1.397 . S
C428 C427 1.397 . S
C428 C429 1.438 . S
C428 C433 1.429 . S
C429 C412 1.394 1_556 S
C429 C428 1.438 . S
C429 C430 1.428 . S
C430 H422 0.949 . S
C430 C429 1.428 . S
C430 C431 1.345 . S
C431 H423 0.950 . S
C431 C430 1.345 . S
C431 C432 1.424 . S
C432 H424 0.951 . S
C432 C431 1.424 . S
C432 C433 1.347 . S
C433 H425 0.951 . S
C433 C428 1.429 . S
C433 C432 1.347 . S
H434 C435 0.951 . S
C435 H434 0.951 . S
C435 C441 1.265 . S
H436 C441 0.950 . S
H437 C445 0.949 . S
H438 C446 0.950 . S
H439 C447 0.951 . S
H440 C448 0.951 . S
C441 C435 1.265 . S
C441 H436 0.950 . S
C441 C442 1.478 . S
C442 C441 1.478 . S
C442 C443 1.397 1_556 S
C442 C459 1.394 . S
C443 C442 1.397 1_554 S
C443 C444 1.438 . S
C443 C448 1.429 . S
C444 C443 1.438 . S
C444 C445 1.428 . S
C444 C457 1.394 . S
C445 H437 0.949 . S
C445 C444 1.428 . S
C445 C446 1.345 . S
C446 H438 0.950 . S
C446 C445 1.345 . S
C446 C447 1.424 . S
C447 H439 0.951 . S
C447 C446 1.424 . S
C447 C448 1.347 . S
C448 H440 0.951 . S
C448 C443 1.429 . S
C448 C447 1.347 . S
H449 C450 0.951 . S
C450 H449 0.951 . S
C450 C456 1.265 . S
H451 C456 0.950 . S
H452 C460 0.949 . S
H453 C461 0.950 . S
H454 C462 0.951 1_455 S
H455 C463 0.951 1_554 S
C456 C450 1.265 . S
C456 H451 0.950 . S
C456 C457 1.478 . S
C457 C444 1.394 . S
C457 C456 1.478 . S
C457 C458 1.397 . S
C458 C457 1.397 . S
C458 C459 1.438 1_554 S
C458 C463 1.429 1_554 S
C459 C442 1.394 . S
C459 C458 1.438 1_556 S
C459 C460 1.428 . S
C460 H452 0.949 . S
C460 C459 1.428 . S
C460 C461 1.345 . S
C461 H453 0.950 . S
C461 C460 1.345 . S
C461 C462 1.424 . S
C462 H454 0.951 1_655 S
C462 C461 1.424 . S
C462 C463 1.347 . S
C463 H455 0.951 1_556 S
C463 C458 1.429 1_556 S
C463 C462 1.347 . S
H464 C465 0.951 . S
C465 H464 0.951 . S
C465 C471 1.265 . S
H466 C471 0.950 . S
H467 C475 0.949 . S
H468 C476 0.950 . S
H469 C477 0.951 . S
H470 C478 0.951 . S
C471 C465 1.265 . S
C471 H466 0.950 . S
C471 C472 1.478 . S
C472 C471 1.478 . S
C472 C473 1.397 . S
C472 C489 1.394 . S
C473 C472 1.397 . S
C473 C474 1.438 . S
C473 C478 1.429 . S
C474 C473 1.438 . S
C474 C475 1.428 . S
C474 C487 1.394 . S
C475 H467 0.949 . S
C475 C474 1.428 . S
C475 C476 1.345 . S
C476 H468 0.950 . S
C476 C475 1.345 . S
C476 C477 1.424 . S
C477 H469 0.951 . S
C477 C476 1.424 . S
C477 C478 1.347 . S
C478 H470 0.951 . S
C478 C473 1.429 . S
C478 C477 1.347 . S
H479 C480 0.951 . S
C480 H479 0.951 . S
C480 C486 1.265 . S
H481 C486 0.950 . S
H482 C490 0.949 . S
H483 C491 0.950 . S
H484 C492 0.951 . S
H485 C493 0.951 . S
C486 C480 1.265 . S
C486 H481 0.950 . S
C486 C487 1.478 . S
C487 C474 1.394 . S
C487 C486 1.478 . S
C487 C488 1.397 . S
C488 C487 1.397 . S
C488 C489 1.438 . S
C488 C493 1.429 . S
C489 C472 1.394 . S
C489 C488 1.438 . S
C489 C490 1.428 . S
C490 H482 0.949 . S
C490 C489 1.428 . S
C490 C491 1.345 . S
C491 H483 0.950 . S
C491 C490 1.345 . S
C491 C492 1.424 . S
C492 H484 0.951 . S
C492 C491 1.424 . S
C492 C493 1.347 . S
C493 H485 0.951 . S
C493 C488 1.429 . S
C493 C492 1.347 . S
H494 C495 0.951 . S
C495 H494 0.951 . S
C495 C501 1.265 . S
H496 C501 0.950 . S
H497 C505 0.949 . S
H498 C506 0.950 . S
H499 C507 0.951 . S
H500 C508 0.951 . S
C501 C495 1.265 . S
C501 H496 0.950 . S
C501 C502 1.478 . S
C502 C501 1.478 . S
C502 C503 1.397 . S
C502 C519 1.394 . S
C503 C502 1.397 . S
C503 C504 1.438 . S
C503 C508 1.429 . S
C504 C503 1.438 . S
C504 C505 1.428 . S
C504 C517 1.394 . S
C505 H497 0.949 . S
C505 C504 1.428 . S
C505 C506 1.345 . S
C506 H498 0.950 . S
C506 C505 1.345 . S
C506 C507 1.424 . S
C507 H499 0.951 . S
C507 C506 1.424 . S
C507 C508 1.347 . S
C508 H500 0.951 . S
C508 C503 1.429 . S
C508 C507 1.347 . S
H509 C510 0.951 . S
C510 H509 0.951 . S
C510 C516 1.265 . S
H511 C516 0.950 . S
H512 C520 0.949 . S
H513 C521 0.950 . S
H514 C522 0.951 . S
H515 C523 0.951 . S
C516 C510 1.265 . S
C516 H511 0.950 . S
C516 C517 1.478 . S
C517 C504 1.394 . S
C517 C516 1.478 . S
C517 C518 1.397 . S
C518 C517 1.397 . S
C518 C519 1.438 . S
C518 C523 1.429 . S
C519 C502 1.394 . S
C519 C518 1.438 . S
C519 C520 1.428 . S
C520 H512 0.949 . S
C520 C519 1.428 . S
C520 C521 1.345 . S
C521 H513 0.950 . S
C521 C520 1.345 . S
C521 C522 1.424 . S
C522 H514 0.951 . S
C522 C521 1.424 . S
C522 C523 1.347 . S
C523 H515 0.951 . S
C523 C518 1.429 . S
C523 C522 1.347 . S
H524 C525 0.951 . S
C525 H524 0.951 . S
C525 C531 1.265 . S
H526 C531 0.950 . S
H527 C535 0.949 . S
H528 C536 0.950 . S
H529 C537 0.951 . S
H530 C538 0.951 . S
C531 C525 1.265 . S
C531 H526 0.950 . S
C531 C532 1.478 . S
C532 C531 1.478 . S
C532 C533 1.397 . S
C532 C549 1.394 . S
C533 C532 1.397 . S
C533 C534 1.438 . S
C533 C538 1.429 . S
C534 C533 1.438 . S
C534 C535 1.428 . S
C534 C547 1.394 . S
C535 H527 0.949 . S
C535 C534 1.428 . S
C535 C536 1.345 . S
C536 H528 0.950 . S
C536 C535 1.345 . S
C536 C537 1.424 . S
C537 H529 0.951 . S
C537 C536 1.424 . S
C537 C538 1.347 . S
C538 H530 0.951 . S
C538 C533 1.429 . S
C538 C537 1.347 . S
H539 C540 0.951 . S
C540 H539 0.951 . S
C540 C546 1.265 . S
H541 C546 0.950 . S
H542 C550 0.949 . S
H543 C551 0.950 . S
H544 C552 0.951 . S
H545 C553 0.951 . S
C546 C540 1.265 . S
C546 H541 0.950 . S
C546 C547 1.478 . S
C547 C534 1.394 . S
C547 C546 1.478 . S
C547 C548 1.397 . S
C548 C547 1.397 . S
C548 C549 1.438 . S
C548 C553 1.429 . S
C549 C532 1.394 . S
C549 C548 1.438 . S
C549 C550 1.428 . S
C550 H542 0.949 . S
C550 C549 1.428 . S
C550 C551 1.345 . S
C551 H543 0.950 . S
C551 C550 1.345 . S
C551 C552 1.424 . S
C552 H544 0.951 . S
C552 C551 1.424 . S
C552 C553 1.347 . S
C553 H545 0.951 . S
C553 C548 1.429 . S
C553 C552 1.347 . S
H554 C555 0.951 . S
C555 H554 0.951 . S
C555 C561 1.265 . S
H556 C561 0.950 . S
H557 C565 0.949 . S
H558 C566 0.950 . S
H559 C567 0.951 . S
H560 C568 0.951 . S
C561 C555 1.265 . S
C561 H556 0.950 . S
C561 C562 1.478 . S
C562 C561 1.478 . S
C562 C563 1.397 . S
C562 C579 1.394 . S
C563 C562 1.397 . S
C563 C564 1.438 . S
C563 C568 1.429 . S
C564 C563 1.438 . S
C564 C565 1.428 . S
C564 C577 1.394 . S
C565 H557 0.949 . S
C565 C564 1.428 . S
C565 C566 1.345 . S
C566 H558 0.950 . S
C566 C565 1.345 . S
C566 C567 1.424 . S
C567 H559 0.951 . S
C567 C566 1.424 . S
C567 C568 1.347 . S
C568 H560 0.951 . S
C568 C563 1.429 . S
C568 C567 1.347 . S
H569 C570 0.951 . S
C570 H569 0.951 . S
C570 C576 1.265 . S
H571 C576 0.950 . S
H572 C580 0.949 . S
H573 C581 0.950 . S
H574 C582 0.951 . S
H575 C583 0.951 . S
C576 C570 1.265 . S
C576 H571 0.950 . S
C576 C577 1.478 . S
C577 C564 1.394 . S
C577 C576 1.478 . S
C577 C578 1.397 . S
C578 C577 1.397 . S
C578 C579 1.438 . S
C578 C583 1.429 . S
C579 C562 1.394 . S
C579 C578 1.438 . S
C579 C580 1.428 . S
C580 H572 0.949 . S
C580 C579 1.428 . S
C580 C581 1.345 . S
C581 H573 0.950 . S
C581 C580 1.345 . S
C581 C582 1.424 . S
C582 H574 0.951 . S
C582 C581 1.424 . S
C582 C583 1.347 . S
C583 H575 0.951 . S
C583 C578 1.429 . S
C583 C582 1.347 . S
C105 C26 1.181 . S
C120 C0 1.179 . S
C135 C39 1.303 . S
C150 C13 1.307 . S
C165 C52 1.177 . S
C180 C78 1.187 . S
C195 C65 1.178 . S
C210 C91 1.182 . S
C225 C23 0.809 . S
C240 C5 0.891 . S
C255 C18 0.726 . S
C270 C36 0.852 . S
C285 C49 0.849 . S
C300 C31 0.686 . S
C315 C44 0.714 . S
C330 C10 0.852 . S
C345 C101 0.800 . S
C360 C57 0.757 . S
C375 C70 0.865 . S
C390 C62 0.776 . S
C405 C83 0.896 . S
C420 C75 0.806 . S
C435 C96 0.850 . S
C450 C88 0.827 . S
C465 C8 1.565 . S
C480 C73 1.567 . S
C495 C86 1.676 . S
C510 C21 1.678 . S
C525 C34 1.610 . S
C540 C99 1.620 . S
C555 C47 1.611 . S
C570 C60 1.601 . S
