# Generated by pormake.
# Topology irl, (4)-cn, num edge types: 1
# Building blocks:
#     Node 0, Type 0, BuildingBlock: QUQFOY_clean_sbu_1, # of connection points: 4
#     Node 1, Type 0, BuildingBlock: QUQFOY_clean_sbu_1, # of connection points: 4
#     Node 2, Type 0, BuildingBlock: QUQFOY_clean_sbu_1, # of connection points: 4
#     Node 3, Type 0, BuildingBlock: QUQFOY_clean_sbu_1, # of connection points: 4
#     Node 4, Type 0, BuildingBlock: QUQFOY_clean_sbu_1, # of connection points: 4
#     Node 5, Type 0, BuildingBlock: QUQFOY_clean_sbu_1, # of connection points: 4
#     Node 6, Type 0, BuildingBlock: QUQFOY_clean_sbu_1, # of connection points: 4
#     Node 7, Type 0, BuildingBlock: QUQFOY_clean_sbu_1, # of connection points: 4
#     Edge 8, Type (0, 0), BuildingBlock: EZIPEK_clean_linker_0, # of connection points: 2
#     Edge 9, Type (0, 0), BuildingBlock: EZIPEK_clean_linker_0, # of connection points: 2
#     Edge 10, Type (0, 0), BuildingBlock: EZIPEK_clean_linker_0, # of connection points: 2
#     Edge 11, Type (0, 0), BuildingBlock: EZIPEK_clean_linker_0, # of connection points: 2
#     Edge 12, Type (0, 0), BuildingBlock: EZIPEK_clean_linker_0, # of connection points: 2
#     Edge 13, Type (0, 0), BuildingBlock: EZIPEK_clean_linker_0, # of connection points: 2
#     Edge 14, Type (0, 0), BuildingBlock: EZIPEK_clean_linker_0, # of connection points: 2
#     Edge 15, Type (0, 0), BuildingBlock: EZIPEK_clean_linker_0, # of connection points: 2
#     Edge 16, Type (0, 0), BuildingBlock: EZIPEK_clean_linker_0, # of connection points: 2
#     Edge 17, Type (0, 0), BuildingBlock: EZIPEK_clean_linker_0, # of connection points: 2
#     Edge 18, Type (0, 0), BuildingBlock: EZIPEK_clean_linker_0, # of connection points: 2
#     Edge 19, Type (0, 0), BuildingBlock: EZIPEK_clean_linker_0, # of connection points: 2
#     Edge 20, Type (0, 0), BuildingBlock: EZIPEK_clean_linker_0, # of connection points: 2
#     Edge 21, Type (0, 0), BuildingBlock: EZIPEK_clean_linker_0, # of connection points: 2
#     Edge 22, Type (0, 0), BuildingBlock: EZIPEK_clean_linker_0, # of connection points: 2
#     Edge 23, Type (0, 0), BuildingBlock: EZIPEK_clean_linker_0, # of connection points: 2
# Relax obj value: 0.048
# Max RMSD: 0.079
# Mean RMSD: 0.079
data_MOF--net-irl--node1-QUQFOY_clean_sbu_1--edge1-EZIPEK_clean_linker_0
_symmetry_space_group_name_H-M    P1
_symmetry_Int_Tables_number       1
_symmetry_cell_setting            triclinic
loop_
_symmetry_equiv_pos_as_xyz
'x, y, z'
_cell_length_a     27.029422
_cell_length_b     32.342112
_cell_length_c     21.252863
_cell_angle_alpha  90.048296
_cell_angle_beta   90.195149
_cell_angle_gamma 90.049292
loop_
_atom_site_label
_atom_site_type_symbol
_atom_site_fract_x
_atom_site_fract_y
_atom_site_fract_z
_atom_type_partial_charge
O0 O 0.08657 0.18487 0.13297 0.0
Cd1 Cd 0.12257 0.16878 0.05149 0.0
Cd2 Cd 0.03382 0.18496 1.00738 0.0
O3 O 1.02255 0.217 0.09083 0.0
O4 O 0.1947 0.17565 0.07149 0.0
O5 O 0.15463 0.2155 1.00387 0.0
C6 C 0.19456 0.20746 0.03484 0.0
C7 C 0.03415 0.20895 0.90445 0.0
C8 C 0.04814 0.20708 0.13891 0.0
C9 C 0.06277 0.09597 1.01565 0.0
O10 O 1.02716 0.12162 1.01526 0.0
O11 O 0.10731 0.1086 0.0211 0.0
O12 O 0.9928 0.20362 0.93376 0.0
O13 O 0.07491 0.20371 0.93519 0.0
O14 O 0.95744 0.84341 0.15174 0.0
Cd15 Cd 0.9334 0.85607 0.06207 0.0
Cd16 Cd 1.02421 0.83509 0.03816 0.0
O17 O 1.02321 0.80693 0.12602 0.0
O18 O 0.85947 0.85347 0.06762 0.0
O19 O 0.90416 0.80741 1.01577 0.0
C20 C 0.86175 0.81903 0.03699 0.0
C21 C 0.03267 0.80862 0.93752 0.0
C22 C 0.99343 0.82038 0.16756 0.0
C23 C 1.0025 0.92415 0.02864 0.0
O24 O 0.03627 0.89786 0.04002 0.0
O25 O 0.9572 0.91298 0.02621 0.0
O26 O 0.07002 0.80914 0.97573 0.0
O27 O 0.98968 0.8183 0.95927 0.0
O28 O 0.08257 0.83286 0.44083 0.0
Cd29 Cd 0.11853 0.84792 0.52302 0.0
Cd30 Cd 1.02732 0.83288 0.56411 0.0
O31 O 1.01441 0.80425 0.47802 0.0
O32 O 0.19068 0.84254 0.5015 0.0
O33 O 0.15295 0.80135 0.56896 0.0
C34 C 0.19209 0.81041 0.53742 0.0
C35 C 0.03217 0.80741 0.66571 0.0
C36 C 0.04227 0.81345 0.43184 0.0
C37 C 0.05918 0.92139 0.55955 0.0
O38 O 1.02293 0.89639 0.56043 0.0
O39 O 0.10337 0.90808 0.55335 0.0
O40 O 0.98947 0.81419 0.64004 0.0
O41 O 0.07115 0.81057 0.63115 0.0
O42 O 0.95965 0.18149 0.41879 0.0
Cd43 Cd 0.93587 0.16467 0.50694 0.0
Cd44 Cd 0.02977 0.18332 0.53209 0.0
O45 O 0.03185 0.20934 0.44281 0.0
O46 O 0.86181 0.16628 0.49905 0.0
O47 O 0.90435 0.21059 0.55719 0.0
C48 C 0.86266 0.19933 0.53309 0.0
C49 C 0.03474 0.21045 0.63241 0.0
C50 C 0.9989 0.20009 0.40211 0.0
C51 C 1.00447 0.09443 0.53911 0.0
O52 O 0.03914 0.12061 0.53293 0.0
O53 O 0.95924 0.10592 0.53721 0.0
O54 O 0.07416 0.20726 0.59834 0.0
O55 O 0.9924 0.20296 0.60662 0.0
O56 O 0.58179 0.68894 0.12719 0.0
Cd57 Cd 0.61849 0.67208 0.04659 0.0
Cd58 Cd 0.52913 0.68809 1.00155 0.0
O59 O 0.51563 0.71856 0.08585 0.0
O60 O 0.69044 0.67716 0.06924 0.0
O61 O 0.65372 0.71725 0.99902 0.0
C62 C 0.69257 0.70839 0.03161 0.0
C63 C 0.53311 0.7112 0.89862 0.0
C64 C 0.54211 0.7095 0.13362 0.0
C65 C 0.5583 0.5992 1.01035 0.0
O66 O 0.52281 0.62482 1.00763 0.0
O67 O 0.60271 0.61183 1.01759 0.0
O68 O 0.4907 0.70482 0.92493 0.0
O69 O 0.57243 0.70921 0.93312 0.0
O70 O 0.4634 0.33697 0.14827 0.0
Cd71 Cd 0.43614 0.35482 0.06222 0.0
Cd72 Cd 0.5305 0.33685 0.03198 0.0
O73 O 0.53562 0.3106 0.12101 0.0
O74 O 0.3624 0.35278 0.07424 0.0
O75 O 0.40268 0.30951 1.01238 0.0
C76 C 0.36197 0.32017 0.03919 0.0
C77 C 0.53037 0.30852 0.93204 0.0
C78 C 0.50345 0.31876 0.16294 0.0
C79 C 0.50283 0.42605 0.02834 0.0
O80 O 0.53793 0.39997 0.0306 0.0
O81 O 0.45787 0.41426 0.0335 0.0
O82 O 0.5717 0.31346 0.96202 0.0
O83 O 0.48959 0.31555 0.96154 0.0
O84 O 0.59048 0.333 0.43598 0.0
Cd85 Cd 0.62223 0.34823 0.52061 0.0
Cd86 Cd 0.53358 0.32891 0.55768 0.0
O87 O 0.52687 0.29785 0.47247 0.0
O88 O 0.69508 0.34357 0.5053 0.0
O89 O 0.65399 0.30135 0.56831 0.0
C90 C 0.69461 0.31089 0.54015 0.0
C91 C 0.52954 0.30494 0.65997 0.0
C92 C 0.55349 0.3096 0.42652 0.0
C93 C 0.55786 0.41861 0.55475 0.0
O94 O 0.52332 0.39198 0.55216 0.0
O95 O 0.60302 0.40735 0.55146 0.0
O96 O 0.4899 0.30737 0.62591 0.0
O97 O 0.57171 0.31176 0.63364 0.0
O98 O 0.45458 0.6775 0.41309 0.0
Cd99 Cd 0.43071 0.66098 0.5015 0.0
Cd100 Cd 0.52439 0.6796 0.52683 0.0
O101 O 0.52635 0.70596 0.43762 0.0
O102 O 0.35668 0.66418 0.49444 0.0
O103 O 0.40104 0.7077 0.55178 0.0
C104 C 0.35882 0.69732 0.52821 0.0
C105 C 0.53216 0.70783 0.62649 0.0
C106 C 0.49354 0.69668 0.39674 0.0
C107 C 0.49836 0.59055 0.53484 0.0
O108 O 0.53305 0.61664 0.52798 0.0
O109 O 0.45318 0.60211 0.53282 0.0
O110 O 0.5708 0.70264 0.59159 0.0
O111 O 0.48911 0.70125 0.60208 0.0
C112 C 1.00808 0.99519 0.07526 0.0
C113 C 1.01639 0.96847 0.02333 0.0
C114 C 0.05763 0.02501 0.96619 0.0
C115 C 0.05091 0.05113 0.01917 0.0
N116 N 0.02927 0.05932 0.12831 0.0
N117 N 0.05256 0.95578 0.92167 0.0
C118 C 0.02863 0.03572 0.07483 0.0
C119 C 0.04233 0.98278 0.96944 0.0
N120 N 0.98041 0.98183 0.12508 0.0
N121 N 0.07742 0.041 0.91234 0.0
H122 H 0.03912 0.92553 0.92074 0.0
H123 H 0.07595 0.96249 0.88426 0.0
H124 H 0.0914 0.071 0.90981 0.0
H125 H 0.07821 0.02544 0.86949 0.0
H126 H 0.96802 1.00117 0.16087 0.0
H127 H 0.96667 0.95181 0.12879 0.0
H128 H 1.01828 0.04867 0.17228 0.0
H129 H 0.0453 0.08865 0.13018 0.0
C130 C 1.02685 0.98695 0.60861 0.0
C131 C 0.04837 0.96643 0.55627 0.0
C132 C 0.04203 0.03004 0.49365 0.0
C133 C 1.01775 0.04993 0.54469 0.0
N134 N 0.9841 0.04744 0.64947 0.0
N135 N 0.06914 0.96592 0.4459 0.0
C136 C 1.00913 0.02832 0.60179 0.0
C137 C 0.05436 0.98739 0.49811 0.0
N138 N 1.02488 0.96715 0.66536 0.0
N139 N 0.05349 0.05198 0.44065 0.0
H140 H 0.07927 0.93483 0.44681 0.0
H141 H 0.06779 0.97782 0.40044 0.0
H142 H 0.04167 0.08217 0.43275 0.0
H143 H 0.07715 0.04115 0.40579 0.0
H144 H 1.01435 0.98119 0.70727 0.0
H145 H 0.03722 0.93693 0.67156 0.0
H146 H 0.97168 0.0324 0.68968 0.0
H147 H 0.97327 0.07835 0.64762 0.0
C148 C 0.55437 0.53258 0.0704 0.0
C149 C 0.54632 0.55438 1.01337 0.0
C150 C 0.50324 0.49379 0.96916 0.0
C151 C 0.51557 0.47078 0.02394 0.0
N152 N 0.55818 0.46678 0.12405 0.0
N153 N 0.51848 0.55494 0.90564 0.0
C154 C 0.54295 0.48971 0.07355 0.0
C155 C 0.52204 0.53478 0.96199 0.0
N156 N 0.57005 0.55335 0.12297 0.0
N157 N 0.47342 0.47658 0.92413 0.0
H158 H 0.53184 0.58485 0.8989 0.0
H159 H 0.50608 0.54108 0.86427 0.0
H160 H 0.46031 0.44633 0.92666 0.0
H161 H 0.4587 0.49305 0.88642 0.0
H162 H 0.57061 0.54031 0.16775 0.0
H163 H 0.57825 0.58485 0.12339 0.0
H164 H 0.58375 0.47737 0.15712 0.0
H165 H 0.54782 0.43615 0.1311 0.0
C166 C 0.52627 0.48406 0.60491 0.0
C167 C 0.54457 0.4631 0.55108 0.0
C168 C 0.5329 0.52562 0.48735 0.0
C169 C 0.51166 0.54599 0.5401 0.0
N170 N 0.48436 0.5444 0.64786 0.0
N171 N 0.55805 0.46109 0.43899 0.0
C172 C 0.50702 0.52503 0.59854 0.0
C173 C 0.54606 0.48316 0.49178 0.0
N174 N 0.52884 0.46512 0.66233 0.0
N175 N 0.54121 0.54707 0.43297 0.0
H176 H 0.56917 0.43023 0.44012 0.0
H177 H 0.55349 0.47226 0.39342 0.0
H178 H 0.52954 0.5774 0.42613 0.0
H179 H 0.56243 0.53581 0.39594 0.0
H180 H 0.52028 0.4795 0.7047 0.0
H181 H 0.54316 0.43541 0.66819 0.0
H182 H 0.47529 0.52985 0.6899 0.0
H183 H 0.47188 0.57487 0.64555 0.0
C184 C 0.04077 0.244 0.24317 0.0
C185 C 1.02722 0.21094 0.20283 0.0
C186 C 0.99925 0.17067 0.29283 0.0
C187 C 1.00871 0.20483 0.33348 0.0
N188 N 0.02922 0.27717 0.34464 0.0
N189 N 0.98102 0.14805 0.18694 0.0
C190 C 1.02683 0.24255 0.30792 0.0
C191 C 1.00187 0.17625 0.22699 0.0
N192 N 0.06781 0.27619 0.21995 0.0
N193 N 0.99179 0.13189 0.31669 0.0
H194 H 0.98245 0.15102 0.1381 0.0
H195 H 0.95815 0.12415 0.20229 0.0
H196 H 0.99397 0.12497 0.36444 0.0
H197 H 0.98973 0.10553 0.28855 0.0
H198 H 0.08361 0.29896 0.24831 0.0
H199 H 0.07663 0.27869 0.17231 0.0
H200 H 0.03796 0.30632 0.32708 0.0
H201 H 1.01799 0.27748 0.39153 0.0
C202 C 1.01262 0.85089 0.33771 0.0
C203 C 1.02305 0.8124 0.36655 0.0
C204 C 1.0094 0.77733 0.26539 0.0
C205 C 1.00534 0.81652 0.23556 0.0
N206 N 1.0157 0.89074 0.24202 0.0
N207 N 0.03568 0.739 0.35822 0.0
C208 C 1.01027 0.85337 0.27139 0.0
C209 C 1.02246 0.77546 0.33057 0.0
N210 N 1.00448 0.88517 0.37393 0.0
N211 N 0.99944 0.74216 0.23204 0.0
H212 H 0.04385 0.73675 0.40613 0.0
H213 H 0.04123 0.71171 0.33322 0.0
H214 H 0.98983 0.74259 0.18447 0.0
H215 H 0.99708 0.71299 0.25249 0.0
H216 H 0.99211 0.91319 0.35551 0.0
H217 H 1.00497 0.88441 0.42302 0.0
H218 H 1.02433 0.91793 0.26603 0.0
H219 H 1.01737 0.89398 0.19326 0.0
C220 C 0.06369 0.83497 0.76845 0.0
C221 C 0.03714 0.80385 0.73516 0.0
C222 C 1.0114 0.77281 0.83543 0.0
C223 C 0.0393 0.80319 0.86854 0.0
N224 N 0.09932 0.85899 0.86608 0.0
N225 N 0.99302 0.73926 0.73547 0.0
C226 C 0.06824 0.83249 0.8349 0.0
C227 C 1.01305 0.7716 0.76828 0.0
N228 N 0.08119 0.86901 0.73731 0.0
N229 N 0.98292 0.74542 0.86829 0.0
H230 H 0.99411 0.73749 0.68646 0.0
H231 H 0.97896 0.71271 0.75649 0.0
H232 H 0.98387 0.74333 0.91726 0.0
H233 H 0.95694 0.72594 0.84745 0.0
H234 H 0.09437 0.8954 0.75995 0.0
H235 H 0.07843 0.87314 0.68888 0.0
H236 H 0.12655 0.87624 0.84351 0.0
H237 H 0.10064 0.86233 0.91469 0.0
C238 C 0.04743 0.17458 0.80117 0.0
C239 C 0.03517 0.21103 0.83485 0.0
C240 C 1.02224 0.2481 0.73526 0.0
C241 C 0.0383 0.2125 0.70195 0.0
N242 N 0.07168 0.14309 0.70283 0.0
N243 N 1.01556 0.28353 0.83605 0.0
C244 C 0.0529 0.17626 0.73488 0.0
C245 C 1.02379 0.24816 0.80248 0.0
N246 N 0.051 0.13764 0.83227 0.0
N247 N 1.00485 0.28145 0.70257 0.0
H248 H 1.01571 0.28414 0.88515 0.0
H249 H 1.01176 0.31261 0.81571 0.0
H250 H 1.0053 0.28288 0.65352 0.0
H251 H 0.98765 0.30669 0.72356 0.0
H252 H 0.05351 0.10915 0.80967 0.0
H253 H 0.04679 0.13477 0.88081 0.0
H254 H 0.08902 0.11821 0.72477 0.0
H255 H 0.07322 0.14129 0.65396 0.0
C256 C 0.49873 0.67489 0.22089 0.0
C257 C 0.52108 0.71134 0.19773 0.0
C258 C 0.51851 0.74149 0.3038 0.0
C259 C 0.50302 0.70263 0.32822 0.0
N260 N 0.49007 0.6294 0.30966 0.0
N261 N 0.55641 0.77845 0.21666 0.0
C262 C 0.49581 0.66859 0.28663 0.0
C263 C 0.53205 0.74455 0.23903 0.0
N264 N 0.48106 0.64573 0.1799 0.0
N265 N 0.51875 0.7756 0.34171 0.0
H266 H 0.56481 0.78206 0.16907 0.0
H267 H 0.57053 0.80168 0.24559 0.0
H268 H 0.50793 0.77466 0.38874 0.0
H269 H 0.52537 0.80539 0.32517 0.0
H270 H 0.45999 0.62045 0.19418 0.0
H271 H 0.48309 0.64898 0.13115 0.0
H272 H 0.49015 0.60313 0.28124 0.0
H273 H 0.49116 0.62232 0.35736 0.0
C274 C 0.512 0.34359 0.33702 0.0
C275 C 0.53414 0.30741 0.36151 0.0
C276 C 0.53113 0.27561 0.25661 0.0
C277 C 0.51522 0.31401 0.231 0.0
N278 N 0.50293 0.38757 0.24656 0.0
N279 N 0.56925 0.23998 0.3452 0.0
C280 C 0.50876 0.3488 0.27117 0.0
C281 C 0.54491 0.27354 0.32151 0.0
N282 N 0.49421 0.37327 0.37686 0.0
N283 N 0.53154 0.24103 0.21969 0.0
H284 H 0.57804 0.23722 0.39288 0.0
H285 H 0.58307 0.21622 0.31723 0.0
H286 H 0.52099 0.24141 0.17245 0.0
H287 H 0.53833 0.21149 0.23711 0.0
H288 H 0.47333 0.39841 0.3615 0.0
H289 H 0.49592 0.3706 0.42574 0.0
H290 H 0.50348 0.41433 0.27391 0.0
H291 H 0.5034 0.39374 0.19852 0.0
C292 C 0.51426 0.34113 0.82805 0.0
C293 C 0.52963 0.30578 0.86244 0.0
C294 C 0.54586 0.26901 0.76344 0.0
C295 C 0.5264 0.30321 0.72951 0.0
N296 N 0.48605 0.37005 0.72965 0.0
N297 N 0.5556 0.23471 0.86472 0.0
C298 C 0.50836 0.33851 0.76192 0.0
C299 C 0.54434 0.26927 0.83065 0.0
N300 N 0.5085 0.37826 0.85813 0.0
N301 N 0.56617 0.23661 0.73133 0.0
H302 H 0.55533 0.23436 0.91382 0.0
H303 H 0.56199 0.20582 0.84474 0.0
H304 H 0.56557 0.23466 0.68233 0.0
H305 H 0.58579 0.21278 0.75281 0.0
H306 H 0.50369 0.40622 0.83464 0.0
H307 H 0.51361 0.38215 0.90637 0.0
H308 H 0.46612 0.39352 0.75157 0.0
H309 H 0.48438 0.37179 0.68078 0.0
C310 C 0.51612 0.7467 0.79487 0.0
C311 C 0.53718 0.71326 0.82898 0.0
C312 C 0.55551 0.6772 0.73009 0.0
C313 C 0.5371 0.71159 0.69578 0.0
N314 N 0.50531 0.78096 0.6937 0.0
N315 N 0.58378 0.64924 0.82911 0.0
C316 C 0.51889 0.74694 0.72772 0.0
C317 C 0.55945 0.67959 0.79657 0.0
N318 N 0.49313 0.77793 0.82674 0.0
N319 N 0.5657 0.64084 0.69967 0.0
H320 H 0.58392 0.64674 0.87792 0.0
H321 H 0.60668 0.62758 0.8076 0.0
H322 H 0.56296 0.63702 0.65111 0.0
H323 H 0.57248 0.61306 0.72289 0.0
H324 H 0.47224 0.80091 0.80508 0.0
H325 H 0.49301 0.77982 0.87574 0.0
H326 H 0.49587 0.80924 0.71369 0.0
H327 H 0.50698 0.78179 0.64466 0.0
C328 C 0.29788 0.27937 0.97831 0.0
C329 C 0.31798 0.29253 0.03685 0.0
C330 C 0.2533 0.25411 0.0924 0.0
C331 C 0.23692 0.23683 0.03455 0.0
N332 N 0.24785 0.22865 0.92268 0.0
N333 N 0.32191 0.28355 0.14984 0.0
C334 C 0.26027 0.24835 0.9774 0.0
C335 C 0.29764 0.27752 0.094 0.0
N336 N 0.31358 0.2974 0.92378 0.0
N337 N 0.22548 0.24977 0.14563 0.0
H338 H 0.35583 0.29874 0.15351 0.0
H339 H 0.31109 0.26942 0.19166 0.0
H340 H 0.1916 0.23433 0.14644 0.0
H341 H 0.23335 0.26545 0.18735 0.0
H342 H 0.29691 0.29213 0.88026 0.0
H343 H 0.34043 0.32057 0.92286 0.0
H344 H 0.26707 0.23262 0.88073 0.0
H345 H 0.22098 0.20552 0.92042 0.0
C346 C 0.76169 0.74557 0.9751 0.0
C347 C 0.73621 0.73637 0.03175 0.0
C348 C 0.79607 0.77788 0.0913 0.0
C349 C 0.81835 0.79083 0.03421 0.0
N350 N 0.81855 0.79144 0.9208 0.0
N351 N 0.72217 0.75223 0.14147 0.0
C352 C 0.80018 0.77583 0.9757 0.0
C353 C 0.75143 0.75488 0.08923 0.0
N354 N 0.75028 0.72442 0.92128 0.0
N355 N 0.81867 0.78574 0.14775 0.0
H356 H 0.68814 0.73704 0.14189 0.0
H357 H 0.72914 0.76893 0.18252 0.0
H358 H 0.85249 0.80105 0.15182 0.0
H359 H 0.80656 0.77308 0.19007 0.0
H360 H 0.77083 0.72661 0.88007 0.0
H361 H 0.7227 0.70186 0.91935 0.0
H362 H 0.80342 0.78494 0.87677 0.0
H363 H 0.84642 0.81376 0.91961 0.0
C364 C 0.25051 0.7648 0.47793 0.0
C365 C 0.23511 0.78176 0.53629 0.0
C366 C 0.29726 0.73927 0.59097 0.0
C367 C 0.31582 0.7259 0.53192 0.0
N368 N 0.3177 0.73485 0.41895 0.0
N369 N 0.24827 0.78986 0.64788 0.0
C370 C 0.29458 0.74114 0.47531 0.0
C371 C 0.25966 0.77024 0.59283 0.0
N372 N 0.22191 0.76951 0.4252 0.0
N373 N 0.3144 0.72147 0.64509 0.0
H374 H 0.22144 0.81294 0.65076 0.0
H375 H 0.26826 0.7859 0.6894 0.0
H376 H 0.34151 0.69853 0.64532 0.0
H377 H 0.29885 0.72678 0.68912 0.0
H378 H 0.22896 0.75399 0.38319 0.0
H379 H 0.18821 0.78518 0.42501 0.0
H380 H 0.30642 0.74915 0.37738 0.0
H381 H 0.3512 0.71918 0.41457 0.0
C382 C 0.75332 0.26524 0.48176 0.0
C383 C 0.73721 0.28186 0.54 0.0
C384 C 0.7993 0.2397 0.59528 0.0
C385 C 0.8188 0.22697 0.53638 0.0
N386 N 0.82141 0.23622 0.42346 0.0
N387 N 0.74827 0.28899 0.65204 0.0
C388 C 0.79774 0.24205 0.47956 0.0
C389 C 0.76103 0.27012 0.59689 0.0
N390 N 0.72513 0.26997 0.42866 0.0
N391 N 0.81626 0.22183 0.64944 0.0
H392 H 0.72062 0.31141 0.65474 0.0
H393 H 0.76764 0.28498 0.69401 0.0
H394 H 0.84385 0.1993 0.64978 0.0
H395 H 0.80021 0.22667 0.6933 0.0
H396 H 0.73268 0.25466 0.38662 0.0
H397 H 0.6913 0.28544 0.42817 0.0
H398 H 0.81021 0.25049 0.38184 0.0
H399 H 0.8552 0.22096 0.41936 0.0
loop_
_geom_bond_atom_site_label_1
_geom_bond_atom_site_label_2
_geom_bond_distance
_geom_bond_site_symmetry_2
_ccdc_geom_bond_type
O0 Cd1 2.223 . S
O0 C8 1.315 . S
Cd1 O0 2.223 . S
Cd1 O4 2.297 . S
Cd1 O5 2.439 . S
Cd1 O11 2.240 . S
Cd2 O3 2.240 1_655 S
Cd2 O10 2.223 . S
Cd2 O12 2.297 1_554 S
Cd2 O13 2.439 1_654 S
O3 Cd2 2.240 1_455 S
O3 C8 1.279 . S
O4 Cd1 2.297 . S
O4 C6 1.247 . S
O5 Cd1 2.439 . S
O5 C6 1.208 . S
C6 O4 1.247 . S
C6 O5 1.208 . S
C7 O12 1.247 1_455 S
C7 O13 1.208 . S
C8 O0 1.315 . S
C8 O3 1.279 . S
C9 O10 1.315 1_455 S
C9 O11 1.279 . S
O10 Cd2 2.223 . S
O10 C9 1.315 1_655 S
O11 Cd1 2.240 . S
O11 C9 1.279 . S
O12 Cd2 2.297 1_556 S
O12 C7 1.247 1_655 S
O13 Cd2 2.439 1_456 S
O13 C7 1.208 . S
O14 Cd15 2.223 . S
O14 C22 1.315 . S
Cd15 O14 2.223 . S
Cd15 O18 2.297 . S
Cd15 O19 2.439 . S
Cd15 O25 2.240 . S
Cd16 O17 2.240 1_455 S
Cd16 O24 2.223 . S
Cd16 O26 2.297 1_554 S
Cd16 O27 2.439 1_454 S
O17 Cd16 2.240 1_655 S
O17 C22 1.279 . S
O18 Cd15 2.297 . S
O18 C20 1.247 . S
O19 Cd15 2.439 . S
O19 C20 1.208 . S
C20 O18 1.247 . S
C20 O19 1.208 . S
C21 O26 1.247 1_655 S
C21 O27 1.208 . S
C22 O14 1.315 . S
C22 O17 1.279 . S
C23 O24 1.315 1_655 S
C23 O25 1.279 . S
O24 Cd16 2.223 . S
O24 C23 1.315 1_455 S
O25 Cd15 2.240 . S
O25 C23 1.279 . S
O26 Cd16 2.297 1_556 S
O26 C21 1.247 1_455 S
O27 Cd16 2.439 1_656 S
O27 C21 1.208 . S
O28 Cd29 2.223 . S
O28 C36 1.315 . S
Cd29 O28 2.223 . S
Cd29 O32 2.297 . S
Cd29 O33 2.439 . S
Cd29 O39 2.240 . S
Cd30 O31 2.240 1_655 S
Cd30 O38 2.223 . S
Cd30 O40 2.297 . S
Cd30 O41 2.439 1_655 S
O31 Cd30 2.240 1_455 S
O31 C36 1.279 . S
O32 Cd29 2.297 . S
O32 C34 1.247 . S
O33 Cd29 2.439 . S
O33 C34 1.208 . S
C34 O32 1.247 . S
C34 O33 1.208 . S
C35 O40 1.247 1_455 S
C35 O41 1.208 . S
C36 O28 1.315 . S
C36 O31 1.279 . S
C37 O38 1.315 1_455 S
C37 O39 1.279 . S
O38 Cd30 2.223 . S
O38 C37 1.315 1_655 S
O39 Cd29 2.240 . S
O39 C37 1.279 . S
O40 Cd30 2.297 . S
O40 C35 1.247 1_655 S
O41 Cd30 2.439 1_455 S
O41 C35 1.208 . S
O42 Cd43 2.223 . S
O42 C50 1.315 . S
Cd43 O42 2.223 . S
Cd43 O46 2.297 . S
Cd43 O47 2.439 . S
Cd43 O53 2.240 . S
Cd44 O45 2.240 1_455 S
Cd44 O52 2.223 . S
Cd44 O54 2.297 . S
Cd44 O55 2.439 1_455 S
O45 Cd44 2.240 1_655 S
O45 C50 1.279 . S
O46 Cd43 2.297 . S
O46 C48 1.247 . S
O47 Cd43 2.439 . S
O47 C48 1.208 . S
C48 O46 1.247 . S
C48 O47 1.208 . S
C49 O54 1.247 1_655 S
C49 O55 1.208 . S
C50 O42 1.315 . S
C50 O45 1.279 . S
C51 O52 1.315 1_655 S
C51 O53 1.279 . S
O52 Cd44 2.223 . S
O52 C51 1.315 1_455 S
O53 Cd43 2.240 . S
O53 C51 1.279 . S
O54 Cd44 2.297 . S
O54 C49 1.247 1_455 S
O55 Cd44 2.439 1_655 S
O55 C49 1.208 . S
O56 Cd57 2.223 . S
O56 C64 1.315 . S
Cd57 O56 2.223 . S
Cd57 O60 2.297 . S
Cd57 O61 2.439 . S
Cd57 O67 2.240 . S
Cd58 O59 2.240 . S
Cd58 O66 2.223 . S
Cd58 O68 2.297 1_554 S
Cd58 O69 2.439 1_554 S
O59 Cd58 2.240 . S
O59 C64 1.279 . S
O60 Cd57 2.297 . S
O60 C62 1.247 . S
O61 Cd57 2.439 . S
O61 C62 1.208 . S
C62 O60 1.247 . S
C62 O61 1.208 . S
C63 O68 1.247 . S
C63 O69 1.208 . S
C64 O56 1.315 . S
C64 O59 1.279 . S
C65 O66 1.315 . S
C65 O67 1.279 . S
O66 Cd58 2.223 . S
O66 C65 1.315 . S
O67 Cd57 2.240 . S
O67 C65 1.279 . S
O68 Cd58 2.297 1_556 S
O68 C63 1.247 . S
O69 Cd58 2.439 1_556 S
O69 C63 1.208 . S
O70 Cd71 2.223 . S
O70 C78 1.315 . S
Cd71 O70 2.223 . S
Cd71 O74 2.297 . S
Cd71 O75 2.439 . S
Cd71 O81 2.240 . S
Cd72 O73 2.240 . S
Cd72 O80 2.223 . S
Cd72 O82 2.297 1_554 S
Cd72 O83 2.439 1_554 S
O73 Cd72 2.240 . S
O73 C78 1.279 . S
O74 Cd71 2.297 . S
O74 C76 1.247 . S
O75 Cd71 2.439 . S
O75 C76 1.208 . S
C76 O74 1.247 . S
C76 O75 1.208 . S
C77 O82 1.247 . S
C77 O83 1.208 . S
C78 O70 1.315 . S
C78 O73 1.279 . S
C79 O80 1.315 . S
C79 O81 1.279 . S
O80 Cd72 2.223 . S
O80 C79 1.315 . S
O81 Cd71 2.240 . S
O81 C79 1.279 . S
O82 Cd72 2.297 1_556 S
O82 C77 1.247 . S
O83 Cd72 2.439 1_556 S
O83 C77 1.208 . S
O84 Cd85 2.223 . S
O84 C92 1.315 . S
Cd85 O84 2.223 . S
Cd85 O88 2.297 . S
Cd85 O89 2.439 . S
Cd85 O95 2.240 . S
Cd86 O87 2.240 . S
Cd86 O94 2.223 . S
Cd86 O96 2.297 . S
Cd86 O97 2.439 . S
O87 Cd86 2.240 . S
O87 C92 1.279 . S
O88 Cd85 2.297 . S
O88 C90 1.247 . S
O89 Cd85 2.439 . S
O89 C90 1.208 . S
C90 O88 1.247 . S
C90 O89 1.208 . S
C91 O96 1.247 . S
C91 O97 1.208 . S
C92 O84 1.315 . S
C92 O87 1.279 . S
C93 O94 1.315 . S
C93 O95 1.279 . S
O94 Cd86 2.223 . S
O94 C93 1.315 . S
O95 Cd85 2.240 . S
O95 C93 1.279 . S
O96 Cd86 2.297 . S
O96 C91 1.247 . S
O97 Cd86 2.439 . S
O97 C91 1.208 . S
O98 Cd99 2.223 . S
O98 C106 1.315 . S
Cd99 O98 2.223 . S
Cd99 O102 2.297 . S
Cd99 O103 2.439 . S
Cd99 O109 2.240 . S
Cd100 O101 2.240 . S
Cd100 O108 2.223 . S
Cd100 O110 2.297 . S
Cd100 O111 2.439 . S
O101 Cd100 2.240 . S
O101 C106 1.279 . S
O102 Cd99 2.297 . S
O102 C104 1.247 . S
O103 Cd99 2.439 . S
O103 C104 1.208 . S
C104 O102 1.247 . S
C104 O103 1.208 . S
C105 O110 1.247 . S
C105 O111 1.208 . S
C106 O98 1.315 . S
C106 O101 1.279 . S
C107 O108 1.315 . S
C107 O109 1.279 . S
O108 Cd100 2.223 . S
O108 C107 1.315 . S
O109 Cd99 2.240 . S
O109 C107 1.279 . S
O110 Cd100 2.297 . S
O110 C105 1.247 . S
O111 Cd100 2.439 . S
O111 C105 1.208 . S
C112 C113 1.363 . S
C112 C118 1.379 1_565 S
C112 N120 1.356 . S
C113 C112 1.363 . S
C113 C119 1.363 1_655 S
C114 C115 1.363 . S
C114 C119 1.379 1_545 S
C114 N121 1.356 1_554 S
C115 C114 1.363 . S
C115 C118 1.363 1_455 S
N116 C118 1.356 . S
N116 H128 0.984 . S
N116 H129 0.985 . S
N117 C119 1.356 1_556 S
N117 H122 0.984 . S
N117 H123 0.985 . S
C118 C112 1.379 1_545 S
C118 C115 1.363 1_655 S
C118 N116 1.356 . S
C119 C113 1.363 1_455 S
C119 C114 1.379 1_565 S
C119 N117 1.356 1_554 S
N120 C112 1.356 . S
N120 H126 0.984 . S
N120 H127 0.984 . S
N121 C114 1.356 1_556 S
N121 H124 0.984 . S
N121 H125 0.985 . S
H122 N117 0.984 . S
H123 N117 0.985 . S
H124 N121 0.984 . S
H125 N121 0.985 . S
H126 N120 0.984 . S
H127 N120 0.984 . S
H128 N116 0.984 . S
H129 N116 0.985 . S
C130 C131 1.363 1_655 S
C130 C136 1.379 1_565 S
C130 N138 1.356 . S
C131 C130 1.363 1_455 S
C131 C137 1.363 . S
C132 C133 1.363 1_455 S
C132 C137 1.379 1_545 S
C132 N139 1.356 . S
C133 C132 1.363 1_655 S
C133 C136 1.363 . S
N134 C136 1.356 . S
N134 H146 0.984 . S
N134 H147 0.985 . S
N135 C137 1.356 . S
N135 H140 0.984 . S
N135 H141 0.985 . S
C136 C130 1.379 1_545 S
C136 C133 1.363 . S
C136 N134 1.356 . S
C137 C131 1.363 . S
C137 C132 1.379 1_565 S
C137 N135 1.356 . S
N138 C130 1.356 . S
N138 H144 0.984 . S
N138 H145 0.984 . S
N139 C132 1.356 . S
N139 H142 0.984 . S
N139 H143 0.985 . S
H140 N135 0.984 . S
H141 N135 0.985 . S
H142 N139 0.984 . S
H143 N139 0.985 . S
H144 N138 0.984 . S
H145 N138 0.984 . S
H146 N134 0.984 . S
H147 N134 0.985 . S
C148 C149 1.363 . S
C148 C154 1.379 . S
C148 N156 1.356 . S
C149 C148 1.363 . S
C149 C155 1.363 . S
C150 C151 1.363 . S
C150 C155 1.379 . S
C150 N157 1.356 1_554 S
C151 C150 1.363 . S
C151 C154 1.363 . S
N152 C154 1.356 . S
N152 H164 0.984 . S
N152 H165 0.985 . S
N153 C155 1.356 1_556 S
N153 H158 0.984 . S
N153 H159 0.985 . S
C154 C148 1.379 . S
C154 C151 1.363 . S
C154 N152 1.356 . S
C155 C149 1.363 . S
C155 C150 1.379 . S
C155 N153 1.356 1_554 S
N156 C148 1.356 . S
N156 H162 0.984 . S
N156 H163 0.984 . S
N157 C150 1.356 1_556 S
N157 H160 0.984 . S
N157 H161 0.985 . S
H158 N153 0.984 . S
H159 N153 0.985 . S
H160 N157 0.984 . S
H161 N157 0.985 . S
H162 N156 0.984 . S
H163 N156 0.984 . S
H164 N152 0.984 . S
H165 N152 0.985 . S
C166 C167 1.363 . S
C166 C172 1.379 . S
C166 N174 1.356 . S
C167 C166 1.363 . S
C167 C173 1.363 . S
C168 C169 1.363 . S
C168 C173 1.379 . S
C168 N175 1.356 . S
C169 C168 1.363 . S
C169 C172 1.363 . S
N170 C172 1.356 . S
N170 H182 0.984 . S
N170 H183 0.985 . S
N171 C173 1.356 . S
N171 H176 0.984 . S
N171 H177 0.985 . S
C172 C166 1.379 . S
C172 C169 1.363 . S
C172 N170 1.356 . S
C173 C167 1.363 . S
C173 C168 1.379 . S
C173 N171 1.356 . S
N174 C166 1.356 . S
N174 H180 0.984 . S
N174 H181 0.984 . S
N175 C168 1.356 . S
N175 H178 0.984 . S
N175 H179 0.985 . S
H176 N171 0.984 . S
H177 N171 0.985 . S
H178 N175 0.984 . S
H179 N175 0.985 . S
H180 N174 0.984 . S
H181 N174 0.984 . S
H182 N170 0.984 . S
H183 N170 0.985 . S
C184 C185 1.363 . S
C184 C190 1.379 . S
C184 N192 1.356 . S
C185 C184 1.363 . S
C185 C191 1.363 1_455 S
C186 C187 1.363 . S
C186 C191 1.379 . S
C186 N193 1.356 . S
C187 C186 1.363 . S
C187 C190 1.363 1_655 S
N188 C190 1.356 . S
N188 H200 0.984 . S
N188 H201 0.985 . S
N189 C191 1.356 . S
N189 H194 0.984 . S
N189 H195 0.985 . S
C190 C184 1.379 . S
C190 C187 1.363 1_455 S
C190 N188 1.356 . S
C191 C185 1.363 1_655 S
C191 C186 1.379 . S
C191 N189 1.356 . S
N192 C184 1.356 . S
N192 H198 0.984 . S
N192 H199 0.984 . S
N193 C186 1.356 . S
N193 H196 0.984 . S
N193 H197 0.985 . S
H194 N189 0.984 . S
H195 N189 0.985 . S
H196 N193 0.984 . S
H197 N193 0.985 . S
H198 N192 0.984 . S
H199 N192 0.984 . S
H200 N188 0.984 . S
H201 N188 0.985 . S
C202 C203 1.363 1_655 S
C202 C208 1.379 . S
C202 N210 1.356 . S
C203 C202 1.363 1_455 S
C203 C209 1.363 . S
C204 C205 1.363 1_455 S
C204 C209 1.379 . S
C204 N211 1.356 . S
C205 C204 1.363 1_655 S
C205 C208 1.363 . S
N206 C208 1.356 . S
N206 H218 0.984 . S
N206 H219 0.985 . S
N207 C209 1.356 . S
N207 H212 0.984 . S
N207 H213 0.985 . S
C208 C202 1.379 . S
C208 C205 1.363 . S
C208 N206 1.356 . S
C209 C203 1.363 . S
C209 C204 1.379 . S
C209 N207 1.356 . S
N210 C202 1.356 . S
N210 H216 0.984 . S
N210 H217 0.984 . S
N211 C204 1.356 . S
N211 H214 0.984 . S
N211 H215 0.985 . S
H212 N207 0.984 . S
H213 N207 0.985 . S
H214 N211 0.984 . S
H215 N211 0.985 . S
H216 N210 0.984 . S
H217 N210 0.984 . S
H218 N206 0.984 . S
H219 N206 0.985 . S
C220 C221 1.363 . S
C220 C226 1.379 . S
C220 N228 1.356 . S
C221 C220 1.363 . S
C221 C227 1.363 1_455 S
C222 C223 1.363 . S
C222 C227 1.379 . S
C222 N229 1.356 . S
C223 C222 1.363 . S
C223 C226 1.363 1_655 S
N224 C226 1.356 . S
N224 H236 0.984 . S
N224 H237 0.985 . S
N225 C227 1.356 . S
N225 H230 0.984 . S
N225 H231 0.985 . S
C226 C220 1.379 . S
C226 C223 1.363 1_455 S
C226 N224 1.356 . S
C227 C221 1.363 1_655 S
C227 C222 1.379 . S
C227 N225 1.356 . S
N228 C220 1.356 . S
N228 H234 0.984 . S
N228 H235 0.984 . S
N229 C222 1.356 . S
N229 H232 0.984 . S
N229 H233 0.985 . S
H230 N225 0.984 . S
H231 N225 0.985 . S
H232 N229 0.984 . S
H233 N229 0.985 . S
H234 N228 0.984 . S
H235 N228 0.984 . S
H236 N224 0.984 . S
H237 N224 0.985 . S
C238 C239 1.363 . S
C238 C244 1.379 . S
C238 N246 1.356 . S
C239 C238 1.363 . S
C239 C245 1.363 1_455 S
C240 C241 1.363 . S
C240 C245 1.379 . S
C240 N247 1.356 . S
C241 C240 1.363 . S
C241 C244 1.363 1_655 S
N242 C244 1.356 . S
N242 H254 0.984 . S
N242 H255 0.985 . S
N243 C245 1.356 . S
N243 H248 0.984 . S
N243 H249 0.985 . S
C244 C238 1.379 . S
C244 C241 1.363 1_455 S
C244 N242 1.356 . S
C245 C239 1.363 1_655 S
C245 C240 1.379 . S
C245 N243 1.356 . S
N246 C238 1.356 . S
N246 H252 0.984 . S
N246 H253 0.984 . S
N247 C240 1.356 . S
N247 H250 0.984 . S
N247 H251 0.985 . S
H248 N243 0.984 . S
H249 N243 0.985 . S
H250 N247 0.984 . S
H251 N247 0.985 . S
H252 N246 0.984 . S
H253 N246 0.984 . S
H254 N242 0.984 . S
H255 N242 0.985 . S
C256 C257 1.363 . S
C256 C262 1.379 . S
C256 N264 1.356 . S
C257 C256 1.363 . S
C257 C263 1.363 . S
C258 C259 1.363 . S
C258 C263 1.379 . S
C258 N265 1.356 . S
C259 C258 1.363 . S
C259 C262 1.363 . S
N260 C262 1.356 . S
N260 H272 0.984 . S
N260 H273 0.985 . S
N261 C263 1.356 . S
N261 H266 0.984 . S
N261 H267 0.985 . S
C262 C256 1.379 . S
C262 C259 1.363 . S
C262 N260 1.356 . S
C263 C257 1.363 . S
C263 C258 1.379 . S
C263 N261 1.356 . S
N264 C256 1.356 . S
N264 H270 0.984 . S
N264 H271 0.984 . S
N265 C258 1.356 . S
N265 H268 0.984 . S
N265 H269 0.985 . S
H266 N261 0.984 . S
H267 N261 0.985 . S
H268 N265 0.984 . S
H269 N265 0.985 . S
H270 N264 0.984 . S
H271 N264 0.984 . S
H272 N260 0.984 . S
H273 N260 0.985 . S
C274 C275 1.363 . S
C274 C280 1.379 . S
C274 N282 1.356 . S
C275 C274 1.363 . S
C275 C281 1.363 . S
C276 C277 1.363 . S
C276 C281 1.379 . S
C276 N283 1.356 . S
C277 C276 1.363 . S
C277 C280 1.363 . S
N278 C280 1.356 . S
N278 H290 0.984 . S
N278 H291 0.985 . S
N279 C281 1.356 . S
N279 H284 0.984 . S
N279 H285 0.985 . S
C280 C274 1.379 . S
C280 C277 1.363 . S
C280 N278 1.356 . S
C281 C275 1.363 . S
C281 C276 1.379 . S
C281 N279 1.356 . S
N282 C274 1.356 . S
N282 H288 0.984 . S
N282 H289 0.984 . S
N283 C276 1.356 . S
N283 H286 0.984 . S
N283 H287 0.985 . S
H284 N279 0.984 . S
H285 N279 0.985 . S
H286 N283 0.984 . S
H287 N283 0.985 . S
H288 N282 0.984 . S
H289 N282 0.984 . S
H290 N278 0.984 . S
H291 N278 0.985 . S
C292 C293 1.363 . S
C292 C298 1.379 . S
C292 N300 1.356 . S
C293 C292 1.363 . S
C293 C299 1.363 . S
C294 C295 1.363 . S
C294 C299 1.379 . S
C294 N301 1.356 . S
C295 C294 1.363 . S
C295 C298 1.363 . S
N296 C298 1.356 . S
N296 H308 0.984 . S
N296 H309 0.985 . S
N297 C299 1.356 . S
N297 H302 0.984 . S
N297 H303 0.985 . S
C298 C292 1.379 . S
C298 C295 1.363 . S
C298 N296 1.356 . S
C299 C293 1.363 . S
C299 C294 1.379 . S
C299 N297 1.356 . S
N300 C292 1.356 . S
N300 H306 0.984 . S
N300 H307 0.984 . S
N301 C294 1.356 . S
N301 H304 0.984 . S
N301 H305 0.985 . S
H302 N297 0.984 . S
H303 N297 0.985 . S
H304 N301 0.984 . S
H305 N301 0.985 . S
H306 N300 0.984 . S
H307 N300 0.984 . S
H308 N296 0.984 . S
H309 N296 0.985 . S
C310 C311 1.363 . S
C310 C316 1.379 . S
C310 N318 1.356 . S
C311 C310 1.363 . S
C311 C317 1.363 . S
C312 C313 1.363 . S
C312 C317 1.379 . S
C312 N319 1.356 . S
C313 C312 1.363 . S
C313 C316 1.363 . S
N314 C316 1.356 . S
N314 H326 0.984 . S
N314 H327 0.985 . S
N315 C317 1.356 . S
N315 H320 0.984 . S
N315 H321 0.985 . S
C316 C310 1.379 . S
C316 C313 1.363 . S
C316 N314 1.356 . S
C317 C311 1.363 . S
C317 C312 1.379 . S
C317 N315 1.356 . S
N318 C310 1.356 . S
N318 H324 0.984 . S
N318 H325 0.984 . S
N319 C312 1.356 . S
N319 H322 0.984 . S
N319 H323 0.985 . S
H320 N315 0.984 . S
H321 N315 0.985 . S
H322 N319 0.984 . S
H323 N319 0.985 . S
H324 N318 0.984 . S
H325 N318 0.984 . S
H326 N314 0.984 . S
H327 N314 0.985 . S
C328 C329 1.363 . S
C328 C334 1.379 . S
C328 N336 1.356 1_554 S
C329 C328 1.363 . S
C329 C335 1.363 . S
C330 C331 1.363 . S
C330 C335 1.379 . S
C330 N337 1.356 . S
C331 C330 1.363 . S
C331 C334 1.363 . S
N332 C334 1.356 1_556 S
N332 H344 0.984 . S
N332 H345 0.985 1_556 S
N333 C335 1.356 . S
N333 H338 0.984 . S
N333 H339 0.985 . S
C334 C328 1.379 . S
C334 C331 1.363 . S
C334 N332 1.356 1_554 S
C335 C329 1.363 . S
C335 C330 1.379 . S
C335 N333 1.356 . S
N336 C328 1.356 1_556 S
N336 H342 0.984 . S
N336 H343 0.984 1_556 S
N337 C330 1.356 . S
N337 H340 0.984 . S
N337 H341 0.985 . S
H338 N333 0.984 . S
H339 N333 0.985 . S
H340 N337 0.984 . S
H341 N337 0.985 . S
H342 N336 0.984 . S
H343 N336 0.984 1_554 S
H344 N332 0.984 . S
H345 N332 0.985 1_554 S
C346 C347 1.363 . S
C346 C352 1.379 . S
C346 N354 1.356 1_554 S
C347 C346 1.363 . S
C347 C353 1.363 . S
C348 C349 1.363 . S
C348 C353 1.379 . S
C348 N355 1.356 . S
C349 C348 1.363 . S
C349 C352 1.363 . S
N350 C352 1.356 1_556 S
N350 H362 0.984 . S
N350 H363 0.985 1_556 S
N351 C353 1.356 . S
N351 H356 0.984 . S
N351 H357 0.985 . S
C352 C346 1.379 . S
C352 C349 1.363 . S
C352 N350 1.356 1_554 S
C353 C347 1.363 . S
C353 C348 1.379 . S
C353 N351 1.356 . S
N354 C346 1.356 1_556 S
N354 H360 0.984 . S
N354 H361 0.984 1_556 S
N355 C348 1.356 . S
N355 H358 0.984 . S
N355 H359 0.985 . S
H356 N351 0.984 . S
H357 N351 0.985 . S
H358 N355 0.984 . S
H359 N355 0.985 . S
H360 N354 0.984 . S
H361 N354 0.984 1_554 S
H362 N350 0.984 . S
H363 N350 0.985 1_554 S
C364 C365 1.363 . S
C364 C370 1.379 . S
C364 N372 1.356 . S
C365 C364 1.363 . S
C365 C371 1.363 . S
C366 C367 1.363 . S
C366 C371 1.379 . S
C366 N373 1.356 . S
C367 C366 1.363 . S
C367 C370 1.363 . S
N368 C370 1.356 . S
N368 H380 0.984 . S
N368 H381 0.985 . S
N369 C371 1.356 . S
N369 H374 0.984 . S
N369 H375 0.985 . S
C370 C364 1.379 . S
C370 C367 1.363 . S
C370 N368 1.356 . S
C371 C365 1.363 . S
C371 C366 1.379 . S
C371 N369 1.356 . S
N372 C364 1.356 . S
N372 H378 0.984 . S
N372 H379 0.984 . S
N373 C366 1.356 . S
N373 H376 0.984 . S
N373 H377 0.985 . S
H374 N369 0.984 . S
H375 N369 0.985 . S
H376 N373 0.984 . S
H377 N373 0.985 . S
H378 N372 0.984 . S
H379 N372 0.984 . S
H380 N368 0.984 . S
H381 N368 0.985 . S
C382 C383 1.363 . S
C382 C388 1.379 . S
C382 N390 1.356 . S
C383 C382 1.363 . S
C383 C389 1.363 . S
C384 C385 1.363 . S
C384 C389 1.379 . S
C384 N391 1.356 . S
C385 C384 1.363 . S
C385 C388 1.363 . S
N386 C388 1.356 . S
N386 H398 0.984 . S
N386 H399 0.985 . S
N387 C389 1.356 . S
N387 H392 0.984 . S
N387 H393 0.985 . S
C388 C382 1.379 . S
C388 C385 1.363 . S
C388 N386 1.356 . S
C389 C383 1.363 . S
C389 C384 1.379 . S
C389 N387 1.356 . S
N390 C382 1.356 . S
N390 H396 0.984 . S
N390 H397 0.984 . S
N391 C384 1.356 . S
N391 H394 0.984 . S
N391 H395 0.985 . S
H392 N387 0.984 . S
H393 N387 0.985 . S
H394 N391 0.984 . S
H395 N391 0.985 . S
H396 N390 0.984 . S
H397 N390 0.984 . S
H398 N386 0.984 . S
H399 N386 0.985 . S
C113 C23 1.487 . S
C115 C9 1.487 . S
C131 C37 1.487 . S
C133 C51 1.487 . S
C149 C65 1.487 . S
C151 C79 1.487 . S
C167 C93 1.487 . S
C169 C107 1.487 . S
C185 C8 1.343 . S
C187 C50 1.343 . S
C203 C36 1.343 . S
C205 C22 1.343 . S
C221 C35 1.518 . S
C223 C21 1.518 . S
C239 C7 1.518 . S
C241 C49 1.518 . S
C257 C64 1.343 . S
C259 C106 1.343 . S
C275 C92 1.343 . S
C277 C78 1.343 . S
C293 C77 1.518 . S
C295 C91 1.518 . S
C311 C63 1.518 . S
C313 C105 1.518 . S
C329 C76 1.519 . S
C331 C6 1.519 . S
C347 C62 1.519 . S
C349 C20 1.519 . S
C365 C34 1.519 . S
C367 C104 1.519 . S
C383 C90 1.519 . S
C385 C48 1.519 . S
