# Generated by pormake.
# Topology vma, (5)-cn, num edge types: 1
# Building blocks:
#     Node 0, Type 0, BuildingBlock: XOMCOT_clean_sbu_0, # of connection points: 5
#     Node 1, Type 0, BuildingBlock: XOMCOT_clean_sbu_0, # of connection points: 5
#     Node 2, Type 0, BuildingBlock: XOMCOT_clean_sbu_0, # of connection points: 5
#     Node 3, Type 0, BuildingBlock: XOMCOT_clean_sbu_0, # of connection points: 5
#     Node 4, Type 0, BuildingBlock: XOMCOT_clean_sbu_0, # of connection points: 5
#     Node 5, Type 0, BuildingBlock: XOMCOT_clean_sbu_0, # of connection points: 5
#     Node 6, Type 0, BuildingBlock: XOMCOT_clean_sbu_0, # of connection points: 5
#     Node 7, Type 0, BuildingBlock: XOMCOT_clean_sbu_0, # of connection points: 5
#     Edge 8, Type (0, 0), BuildingBlock: EZIPEK_clean_linker_0, # of connection points: 2
#     Edge 9, Type (0, 0), BuildingBlock: EZIPEK_clean_linker_0, # of connection points: 2
#     Edge 10, Type (0, 0), BuildingBlock: EZIPEK_clean_linker_0, # of connection points: 2
#     Edge 11, Type (0, 0), BuildingBlock: EZIPEK_clean_linker_0, # of connection points: 2
#     Edge 12, Type (0, 0), BuildingBlock: EZIPEK_clean_linker_0, # of connection points: 2
#     Edge 13, Type (0, 0), BuildingBlock: EZIPEK_clean_linker_0, # of connection points: 2
#     Edge 14, Type (0, 0), BuildingBlock: EZIPEK_clean_linker_0, # of connection points: 2
#     Edge 15, Type (0, 0), BuildingBlock: EZIPEK_clean_linker_0, # of connection points: 2
#     Edge 16, Type (0, 0), BuildingBlock: EZIPEK_clean_linker_0, # of connection points: 2
#     Edge 17, Type (0, 0), BuildingBlock: EZIPEK_clean_linker_0, # of connection points: 2
#     Edge 18, Type (0, 0), BuildingBlock: EZIPEK_clean_linker_0, # of connection points: 2
#     Edge 19, Type (0, 0), BuildingBlock: EZIPEK_clean_linker_0, # of connection points: 2
#     Edge 20, Type (0, 0), BuildingBlock: EZIPEK_clean_linker_0, # of connection points: 2
#     Edge 21, Type (0, 0), BuildingBlock: EZIPEK_clean_linker_0, # of connection points: 2
#     Edge 22, Type (0, 0), BuildingBlock: EZIPEK_clean_linker_0, # of connection points: 2
#     Edge 23, Type (0, 0), BuildingBlock: EZIPEK_clean_linker_0, # of connection points: 2
#     Edge 24, Type (0, 0), BuildingBlock: EZIPEK_clean_linker_0, # of connection points: 2
#     Edge 25, Type (0, 0), BuildingBlock: EZIPEK_clean_linker_0, # of connection points: 2
#     Edge 26, Type (0, 0), BuildingBlock: EZIPEK_clean_linker_0, # of connection points: 2
#     Edge 27, Type (0, 0), BuildingBlock: EZIPEK_clean_linker_0, # of connection points: 2
# Relax obj value: 0.094
# Max RMSD: 0.191
# Mean RMSD: 0.191
data_MOF--net-vma--node1-XOMCOT_clean_sbu_0--edge1-EZIPEK_clean_linker_0
_symmetry_space_group_name_H-M    P1
_symmetry_Int_Tables_number       1
_symmetry_cell_setting            triclinic
loop_
_symmetry_equiv_pos_as_xyz
'x, y, z'
_cell_length_a     33.720964
_cell_length_b     19.502762
_cell_length_c     29.784527
_cell_angle_alpha  89.568128
_cell_angle_beta   110.9611
_cell_angle_gamma 89.955956
loop_
_atom_site_label
_atom_site_type_symbol
_atom_site_fract_x
_atom_site_fract_y
_atom_site_fract_z
_atom_type_partial_charge
Co0 Co 0.38304 0.12252 0.37396 0.0
C1 C 0.45592 0.0909 0.33974 0.0
C2 C 0.40613 0.15114 0.28981 0.0
C3 C 0.43703 0.14122 0.27068 0.0
N4 N 0.41776 0.12058 0.33344 0.0
N5 N 0.46837 0.10377 0.30201 0.0
H6 H 0.47411 0.06015 0.37053 0.0
H7 H 0.37686 0.17846 0.27241 0.0
C8 C 0.3316 0.25795 0.34087 0.0
O9 O 0.30248 0.24235 0.35867 0.0
N10 N 0.34842 0.12518 0.41444 0.0
C11 C 0.32174 0.07587 0.41832 0.0
C12 C 0.29881 0.10054 0.445 0.0
C13 C 0.34312 0.17764 0.44139 0.0
N14 N 0.31151 0.16518 0.45835 0.0
C15 C 0.35086 1.01277 0.31083 0.0
C16 C 0.26601 0.04909 0.27513 0.0
C17 C 0.27825 0.98432 0.26455 0.0
C18 C 0.32133 0.96717 0.28172 0.0
C19 C 0.29675 0.093 0.30543 0.0
N20 N 0.33859 0.07408 0.3236 0.0
H21 H 0.3838 0.99724 0.32497 0.0
H22 H 0.2862 0.13991 0.31581 0.0
H23 H 0.31758 0.02662 0.40081 0.0
H24 H 0.35939 0.22626 0.44496 0.0
O25 O 0.41134 0.04216 0.40858 0.0
O26 O 0.43272 0.14815 0.42928 0.0
O27 O 0.36258 0.21732 0.34467 0.0
C28 C 0.43914 0.08243 0.43769 0.0
H29 H 0.43655 0.15979 0.23613 0.0
H30 H 0.27288 0.07481 0.45143 0.0
H31 H 0.23285 0.06402 0.26209 0.0
H32 H 0.33198 0.91774 0.27392 0.0
Co33 Co 0.65923 0.13307 0.13067 0.0
C34 C 0.6175 0.08936 0.20218 0.0
C35 C 0.60333 0.19152 0.17335 0.0
C36 C 0.58089 0.17998 0.20277 0.0
N37 N 0.62665 0.13552 0.17293 0.0
N38 N 0.58947 0.11607 0.22078 0.0
H39 H 0.63003 0.03765 0.20876 0.0
H40 H 0.60193 0.2376 0.1524 0.0
C41 C 0.71731 0.25182 0.17208 0.0
O42 O 0.74935 0.21193 0.1742 0.0
N43 N 0.68974 0.13779 0.08524 0.0
C44 C 0.69995 0.0876 0.06007 0.0
C45 C 0.72011 0.11608 0.03131 0.0
C46 C 0.70093 0.19637 0.06791 0.0
N47 N 0.72099 0.1845 0.03675 0.0
C48 C 0.72099 0.02848 0.17038 0.0
C49 C 0.749 0.06953 0.26508 0.0
C50 C 0.76219 1.0059 0.25366 0.0
C51 C 0.74861 0.98644 0.20566 0.0
C52 C 0.72079 0.11029 0.22827 0.0
N53 N 0.70726 0.08983 0.18128 0.0
H54 H 0.7081 1.00822 0.13483 0.0
H55 H 0.70829 0.15635 0.23796 0.0
H56 H 0.69197 0.0341 0.06043 0.0
H57 H 0.69299 0.24708 0.07621 0.0
O58 O 0.63248 0.04869 0.10264 0.0
O59 O 0.60583 0.15112 0.07744 0.0
O60 O 0.67915 0.22969 0.1536 0.0
C61 C 0.60126 0.08443 0.07415 0.0
H62 H 0.55877 0.21512 0.20945 0.0
H63 H 0.73268 0.08881 0.00778 0.0
H64 H 0.75851 0.08564 0.30215 0.0
H65 H 0.75753 0.93703 0.19569 0.0
Co66 Co 0.64892 0.89761 0.61833 0.0
C67 C 0.58387 0.93712 0.66244 0.0
C68 C 0.62506 0.85574 0.70079 0.0
C69 C 0.59559 0.86647 0.72171 0.0
N70 N 0.61847 0.90019 0.66362 0.0
N71 N 0.5695 0.91692 0.6975 0.0
H72 H 0.5684 0.97585 0.63574 0.0
H73 H 0.64867 0.8156 0.71178 0.0
C74 C 0.7108 0.78206 0.66388 0.0
O75 O 0.7421 0.81995 0.66123 0.0
N76 N 0.67909 0.8907 0.57255 0.0
C77 C 0.69018 0.94085 0.54763 0.0
C78 C 0.71293 0.91286 0.52179 0.0
C79 C 0.6937 0.83245 0.55894 0.0
N80 N 0.71537 0.84479 0.52945 0.0
C81 C 0.7042 1.01242 0.64996 0.0
C82 C 0.74438 0.97298 0.74459 0.0
C83 C 0.75381 0.03685 0.72924 0.0
C84 C 0.73354 0.05622 0.68136 0.0
C85 C 0.71465 0.93035 0.71159 0.0
N86 N 0.69579 0.94907 0.6643 0.0
H87 H 0.68639 0.03218 0.61487 0.0
H88 H 0.70598 0.88358 0.72472 0.0
H89 H 0.68195 0.9943 0.54685 0.0
H90 H 0.68915 0.78161 0.57033 0.0
O91 O 0.61757 0.97632 0.58431 0.0
O92 O 0.59628 0.86944 0.56725 0.0
O93 O 0.67258 0.80444 0.64682 0.0
C94 C 0.58868 0.93488 0.55833 0.0
H95 H 0.59203 0.83693 0.75097 0.0
H96 H 0.72706 0.94036 0.49961 0.0
H97 H 0.7587 0.95732 0.78192 0.0
H98 H 0.73897 0.10637 0.66876 0.0
Co99 Co 0.39039 0.90878 0.88433 0.0
C100 C 0.42833 0.93781 0.80599 0.0
C101 C 0.45909 0.85848 0.85672 0.0
C102 C 0.48004 0.8654 0.82519 0.0
N103 N 0.42699 0.90451 0.84582 0.0
N104 N 0.46099 0.91541 0.79366 0.0
H105 H 0.40617 0.97612 0.78539 0.0
H106 H 0.46657 0.82111 0.88556 0.0
C107 C 0.3561 0.79419 0.8168 0.0
O108 O 0.35542 0.83764 0.78262 0.0
N109 N 0.3552 0.90704 0.92384 0.0
C110 C 0.3316 0.95815 0.93175 0.0
C111 C 0.30645 0.93144 0.95557 0.0
C112 C 0.34461 0.85039 0.94361 0.0
N113 N 0.31459 0.86369 0.96268 0.0
C114 C 0.354 0.01955 0.82177 0.0
C115 C 0.2712 0.9738 0.7842 0.0
C116 C 0.28135 0.03879 0.77095 0.0
C117 C 0.32328 0.06106 0.7899 0.0
C118 C 0.30363 0.9326 0.81588 0.0
N119 N 0.34476 0.95518 0.83328 0.0
H120 H 0.38569 0.03987 0.83743 0.0
H121 H 0.29542 0.88401 0.82769 0.0
H122 H 0.33111 1.01034 0.919 0.0
H123 H 0.35719 0.79971 0.94223 0.0
O124 O 0.4185 0.99111 0.91549 0.0
O125 O 0.44051 0.88651 0.9411 0.0
O126 O 0.36928 0.81381 0.86055 0.0
C127 C 0.44722 0.95255 0.94532 0.0
H128 H 0.50697 0.83536 0.82489 0.0
H129 H 0.28279 0.95895 0.96519 0.0
H130 H 0.23867 0.95602 0.77122 0.0
H131 H 0.33205 0.1116 0.78128 0.0
Co132 Co 0.89268 0.63472 0.38559 0.0
C133 C 0.96206 0.60995 0.34522 0.0
C134 C 0.91932 0.68943 0.30687 0.0
C135 C 0.94948 0.6814 0.28644 0.0
N136 N 0.92672 0.64493 0.34408 0.0
N137 N 0.97624 0.63168 0.31047 0.0
H138 H 0.97667 0.56842 0.36981 0.0
H139 H 0.89389 0.72568 0.29406 0.0
C140 C 0.83935 0.756 0.3304 0.0
O141 O 0.821 0.71797 0.29254 0.0
N142 N 0.85938 0.62793 0.42718 0.0
C143 C 0.84217 0.5714 0.43913 0.0
C144 C 0.81544 0.5913 0.46281 0.0
C145 C 0.84332 0.68114 0.4443 0.0
N146 N 0.81609 0.6603 0.46552 0.0
C147 C 0.86117 0.53751 0.31169 0.0
C148 C 0.77549 0.55063 0.29493 0.0
C149 C 0.78955 0.49713 0.27303 0.0
C150 C 0.83285 0.49169 0.28127 0.0
C151 C 0.80534 0.59479 0.32646 0.0
N152 N 0.84772 0.58874 0.33392 0.0
H153 H 0.89451 0.52848 0.31974 0.0
H154 H 0.7944 0.63299 0.34539 0.0
H155 H 0.84693 0.51969 0.42913 0.0
H156 H 0.84991 0.73448 0.43981 0.0
O157 O 0.92306 0.55189 0.41339 0.0
O158 O 0.94307 0.65579 0.44161 0.0
O159 O 0.86882 0.73157 0.36749 0.0
C160 C 0.95078 0.58985 0.44468 0.0
H161 H 0.95149 0.7095 0.25583 0.0
H162 H 0.79571 0.55809 0.47521 0.0
H163 H 0.74211 0.55618 0.28943 0.0
H164 H 0.84499 0.45049 0.26554 0.0
Co165 Co 0.15251 0.62358 0.11789 0.0
C166 C 0.11165 0.5934 0.19414 0.0
C167 C 0.08942 0.68282 0.14996 0.0
C168 C 0.06777 0.67815 0.18084 0.0
N169 N 0.11691 0.62978 0.15743 0.0
N170 N 0.08152 0.6221 0.2084 0.0
H171 H 0.12889 0.54784 0.21071 0.0
H172 H 0.08571 0.72332 0.12376 0.0
C173 C 0.18924 0.73758 0.18497 0.0
O174 O 0.19032 0.6944 0.21948 0.0
N175 N 0.18642 0.62457 0.07697 0.0
C176 C 0.2089 0.57304 0.06756 0.0
C177 C 0.23339 0.59956 0.04284 0.0
C178 C 0.19703 0.68125 0.05727 0.0
N179 N 0.22603 0.66764 0.03683 0.0
C180 C 0.18946 0.51304 0.18081 0.0
C181 C 0.27267 0.55732 0.21515 0.0
C182 C 0.26272 0.49281 0.22932 0.0
C183 C 0.22059 0.47124 0.21201 0.0
C184 C 0.23995 0.59864 0.18411 0.0
N185 N 0.19865 0.57683 0.16824 0.0
H186 H 0.1578 0.49264 0.16552 0.0
H187 H 0.24806 0.64664 0.17148 0.0
H188 H 0.20913 0.52067 0.07986 0.0
H189 H 0.18517 0.73217 0.05958 0.0
O190 O 0.12386 0.54169 0.08706 0.0
O191 O 0.10145 0.64635 0.06265 0.0
O192 O 0.17471 0.71812 0.14122 0.0
C193 C 0.09447 0.58035 0.0583 0.0
H194 H 0.0438 0.71343 0.18323 0.0
H195 H 0.25623 0.57169 0.03203 0.0
H196 H 0.30529 0.57454 0.2268 0.0
H197 H 0.21198 0.42088 0.22115 0.0
Co198 Co 0.1621 0.40811 0.6259 0.0
C199 C 0.09119 0.42516 0.66558 0.0
C200 C 0.15011 0.38936 0.71712 0.0
C201 C 0.12063 0.39042 0.73885 0.0
N202 N 0.13194 0.40999 0.67094 0.0
N203 N 0.08357 0.41245 0.70652 0.0
H204 H 0.06754 0.4447 0.63303 0.0
H205 H 0.18284 0.37456 0.73414 0.0
C206 C 0.2156 0.27413 0.65795 0.0
O207 O 0.24339 0.28959 0.63813 0.0
N208 N 0.19272 0.40486 0.58133 0.0
C209 C 0.21739 0.45468 0.57375 0.0
C210 C 0.23866 0.42909 0.54551 0.0
C211 C 0.19761 0.35089 0.55542 0.0
N212 N 0.2271 0.3632 0.53524 0.0
C213 C 0.19605 0.52131 0.68499 0.0
C214 C 0.28083 0.48466 0.72007 0.0
C215 C 0.26878 0.54927 0.73128 0.0
C216 C 0.22576 0.56683 0.7139 0.0
C217 C 0.24988 0.44084 0.68982 0.0
N218 N 0.208 0.45957 0.67246 0.0
H219 H 0.16303 0.53643 0.67181 0.0
H220 H 0.26014 0.39354 0.6796 0.0
H221 H 0.22156 0.50491 0.58989 0.0
H222 H 0.18268 0.30163 0.55472 0.0
O223 O 0.13073 0.48655 0.59141 0.0
O224 O 0.11026 0.37947 0.57419 0.0
O225 O 0.18503 0.31475 0.65578 0.0
C226 C 0.1023 0.44471 0.56494 0.0
H227 H 0.12588 0.37616 0.77575 0.0
H228 H 0.26305 0.45512 0.53622 0.0
H229 H 0.31392 0.46933 0.73321 0.0
H230 H 0.2152 0.61608 0.72212 0.0
Co231 Co 0.88295 0.39822 0.87313 0.0
C232 C 0.93207 0.41549 0.80322 0.0
C233 C 0.94464 0.32412 0.84628 0.0
C234 C 0.96979 0.32316 0.81894 0.0
N235 N 0.92052 0.38158 0.83676 0.0
N236 N 0.96193 0.38048 0.79204 0.0
H237 H 0.92075 0.46496 0.78782 0.0
H238 H 0.94436 0.28536 0.87233 0.0
C239 C 0.8453 0.27752 0.813 0.0
O240 O 0.84648 0.31438 0.7764 0.0
N241 N 0.84721 0.40698 0.9117 0.0
C242 C 0.82391 0.46095 0.9162 0.0
C243 C 0.79848 0.43987 0.9414 0.0
C244 C 0.83627 0.35452 0.93495 0.0
N245 N 0.80617 0.3728 0.95273 0.0
C246 C 0.84994 0.5001 0.80195 0.0
C247 C 0.76497 0.46766 0.77389 0.0
C248 C 0.77715 0.5289 0.7574 0.0
C249 C 0.82023 0.54301 0.77015 0.0
C250 C 0.79648 0.42355 0.80426 0.0
N251 N 0.83858 0.44056 0.81834 0.0
H252 H 0.88185 0.51901 0.81691 0.0
H253 H 0.78684 0.37901 0.8194 0.0
H254 H 0.82383 0.51101 0.90029 0.0
H255 H 0.84867 0.30293 0.93701 0.0
O256 O 0.91123 0.48273 0.89865 0.0
O257 O 0.93276 0.38156 0.93168 0.0
O258 O 0.85966 0.30226 0.85544 0.0
C259 C 0.93967 0.44761 0.93133 0.0
H260 H 0.9932 0.28459 0.81988 0.0
H261 H 0.77497 0.47056 0.94912 0.0
H262 H 0.73173 0.45626 0.76584 0.0
H263 H 0.83075 0.59093 0.7595 0.0
C264 C 0.28994 0.2895 0.54407 0.0
C265 C 0.24832 0.31278 0.51602 0.0
C266 C 0.24912 0.24011 0.44913 0.0
C267 C 0.29003 0.21481 0.47785 0.0
N268 N 0.34721 0.20774 0.55384 0.0
N269 N 0.18658 0.30691 0.4442 0.0
C270 C 0.30991 0.23779 0.52563 0.0
C271 C 0.22742 0.2868 0.46922 0.0
N272 N 0.31042 0.31716 0.58833 0.0
N273 N 0.23175 0.22122 0.40204 0.0
H274 H 0.17095 0.34368 0.45711 0.0
H275 H 0.16732 0.28504 0.41205 0.0
H276 H 0.24626 0.18643 0.38641 0.0
H277 H 0.20431 0.24285 0.3774 0.0
H278 H 0.34232 0.3087 0.60856 0.0
H279 H 0.296 0.35163 0.6043 0.0
H280 H 0.36188 0.21638 0.5905 0.0
H281 H 0.36221 0.16989 0.541 0.0
C282 C 0.72012 0.26117 0.96939 0.0
C283 C 0.74175 0.23411 0.01607 0.0
C284 C 0.80431 0.30422 0.02248 0.0
C285 C 0.78383 0.32759 0.97452 0.0
N286 N 0.72428 0.32357 0.90009 0.0
N287 N 0.80544 0.22346 0.08566 0.0
C288 C 0.7421 0.30499 0.94741 0.0
C289 C 0.78418 0.25407 0.04227 0.0
N290 N 0.67829 0.2454 0.94655 0.0
N291 N 0.84264 0.33166 0.04933 0.0
H292 H 0.79113 0.18771 0.1012 0.0
H293 H 0.83766 0.23014 0.10492 0.0
H294 H 0.85785 0.36819 0.03545 0.0
H295 H 0.85789 0.32232 0.08594 0.0
H296 H 0.65902 0.26786 0.91433 0.0
H297 H 0.66203 0.21259 0.96178 0.0
H298 H 0.69572 0.30412 0.87665 0.0
H299 H 0.73974 0.3551 0.88317 0.0
C300 C 0.78393 0.7867 0.54198 0.0
C301 C 0.7403 0.79624 0.51406 0.0
C302 C 0.74653 0.71497 0.45416 0.0
C303 C 0.78992 0.70398 0.48276 0.0
N304 N 0.849 0.72151 0.55593 0.0
N305 N 0.67839 0.76557 0.44706 0.0
C306 C 0.80835 0.73784 0.52731 0.0
C307 C 0.72111 0.75898 0.47113 0.0
N308 N 0.80194 0.8255 0.58213 0.0
N309 N 0.73025 0.68502 0.41005 0.0
H310 H 0.65963 0.79895 0.4583 0.0
H311 H 0.66106 0.73574 0.41786 0.0
H312 H 0.74809 0.65244 0.39698 0.0
H313 H 0.70016 0.69535 0.38507 0.0
H314 H 0.83431 0.82653 0.60206 0.0
H315 H 0.7844 0.85987 0.59437 0.0
H316 H 0.86382 0.73938 0.59073 0.0
H317 H 0.86723 0.68584 0.54574 0.0
C318 C 0.31029 0.79185 0.0299 0.0
C319 C 0.29218 0.81426 0.98141 0.0
C320 C 0.22948 0.74179 0.97022 0.0
C321 C 0.24842 0.71711 0.01809 0.0
N322 N 0.3072 0.71446 0.09322 0.0
N323 N 0.23655 0.80869 0.904 0.0
C324 C 0.28904 0.74104 0.04785 0.0
C325 C 0.25217 0.78877 0.9512 0.0
N326 N 0.34732 0.82103 0.0589 0.0
N327 N 0.1895 0.72039 0.94335 0.0
H328 H 0.25235 0.84348 0.88959 0.0
H329 H 0.2094 0.78853 0.87837 0.0
H330 H 0.17311 0.68441 0.95612 0.0
H331 H 0.17169 0.73991 0.90954 0.0
H332 H 0.36109 0.81224 0.09573 0.0
H333 H 0.36339 0.85764 0.0462 0.0
H334 H 0.33815 0.72436 0.1159 0.0
H335 H 0.29152 0.67972 0.10781 0.0
C336 C 0.53025 0.04883 0.22868 0.0
C337 C 0.56835 0.0859 0.25052 0.0
C338 C 0.5452 0.11705 0.31687 0.0
C339 C 0.5062 0.0829 0.2936 0.0
N340 N 0.46722 0.99877 0.23697 0.0
N341 N 0.61762 0.13754 0.32088 0.0
C342 C 0.50122 0.04169 0.25315 0.0
C343 C 0.57789 0.1126 0.29719 0.0
N344 N 0.51984 0.02694 0.18259 0.0
N345 N 0.54936 0.15882 0.35477 0.0
H346 H 0.64119 0.13564 0.30577 0.0
H347 H 0.62802 0.15397 0.3564 0.0
H348 H 0.52526 0.16485 0.36858 0.0
H349 H 0.57536 0.19064 0.37042 0.0
H350 H 0.49049 1.006 0.16253 0.0
H351 H 0.53982 0.0348 0.16339 0.0
H352 H 0.46297 0.96368 0.20945 0.0
H353 H 0.44552 0.9943 0.25456 0.0
C354 C 0.53087 0.99083 0.7346 0.0
C355 C 0.53082 0.93449 0.70495 0.0
C356 C 0.4678 0.88808 0.71695 0.0
C357 C 0.47374 0.93556 0.75419 0.0
N358 N 0.50293 0.04097 0.7921 0.0
N359 N 0.49793 0.83245 0.66381 0.0
C360 C 0.50223 0.9909 0.76014 0.0
C361 C 0.49786 0.88517 0.69364 0.0
N362 N 0.56003 0.04158 0.74005 0.0
N363 N 0.43426 0.84416 0.70598 0.0
H364 H 0.52006 0.82944 0.64682 0.0
H365 H 0.47746 0.79077 0.65715 0.0
H366 H 0.41243 0.84676 0.72349 0.0
H367 H 0.4261 0.80967 0.67767 0.0
H368 H 0.56249 0.08499 0.76089 0.0
H369 H 0.58116 0.04112 0.72162 0.0
H370 H 0.5243 0.08144 0.80122 0.0
H371 H 0.48054 0.04248 0.80877 0.0
C372 C 0.02966 0.55783 0.2329 0.0
C373 C 0.06562 0.60111 0.24528 0.0
C374 C 0.04968 0.64528 0.31369 0.0
C375 C 1.01136 0.6076 0.29814 0.0
N376 N 0.96949 0.51599 0.25209 0.0
N377 N 0.11637 0.67174 0.3029 0.0
C378 C 1.00339 0.55883 0.26114 0.0
C379 C 0.0781 0.63916 0.28826 0.0
N380 N 1.01916 0.52013 0.19195 0.0
N381 N 0.0569 0.69047 0.3505 0.0
H382 H 0.13686 0.66774 0.28376 0.0
H383 H 0.12908 0.69812 0.3351 0.0
H384 H 0.0362 0.69499 0.36928 0.0
H385 H 0.08222 0.72455 0.36149 0.0
H386 H 0.9911 0.49263 0.17732 0.0
H387 H 0.03878 0.51814 0.17184 0.0
H388 H 0.96267 0.47618 0.22746 0.0
H389 H 0.94977 0.51753 0.27225 0.0
C390 C 0.04709 0.46237 0.75609 0.0
C391 C 0.04521 0.42041 0.71694 0.0
C392 C 0.97882 0.37068 0.71837 0.0
C393 C 0.98601 0.40235 0.76315 0.0
N394 N 0.03142 0.46914 0.82888 0.0
N395 N 1.00996 0.33169 0.66111 0.0
C396 C 1.02087 0.447 0.7828 0.0
C397 C 1.01063 0.37475 0.69726 0.0
N398 N 0.07551 0.51492 0.76875 0.0
N399 N 0.94208 0.33521 0.69707 0.0
H400 H 0.03304 0.33269 0.64545 0.0
H401 H 0.98807 0.29223 0.64868 0.0
H402 H 0.91901 0.33106 0.71278 0.0
H403 H 0.93304 0.31523 0.66254 0.0
H404 H 0.07651 0.55054 0.79504 0.0
H405 H 0.09503 0.52639 0.74927 0.0
H406 H 0.05882 0.497 0.84678 0.0
H407 H 1.01515 0.45281 0.85081 0.0
C408 C 0.19465 0.84337 0.23398 0.0
C409 C 0.2052 0.80871 0.19796 0.0
C410 C 0.24983 0.90626 0.19431 0.0
C411 C 0.24697 0.93198 0.23736 0.0
N412 N 0.21946 0.91983 0.30171 0.0
N413 N 0.24851 0.80497 0.14814 0.0
C414 C 0.21969 0.89979 0.25794 0.0
C415 C 0.23373 0.84 0.17848 0.0
N416 N 0.16032 0.82313 0.24484 0.0
N417 N 0.26872 0.94475 0.16912 0.0
H418 H 0.24035 0.75465 0.13807 0.0
H419 H 0.27257 0.8234 0.13709 0.0
H420 H 0.28059 0.99374 0.17997 0.0
H421 H 0.26844 0.93115 0.13523 0.0
H422 H 0.14925 0.85029 0.26802 0.0
H423 H 0.14005 0.78403 0.22643 0.0
H424 H 0.20366 0.89262 0.32047 0.0
H425 H 0.23781 0.95997 0.32126 0.0
C426 C 0.76531 0.90834 0.30991 0.0
C427 C 0.78727 0.95525 0.29061 0.0
C428 C 0.85053 0.88121 0.31843 0.0
C429 C 0.82567 0.82881 0.32836 0.0
N430 N 0.76238 0.7937 0.3414 0.0
N431 N 0.85146 0.99152 0.28006 0.0
C432 C 0.78413 0.84337 0.32731 0.0
C433 C 0.8305 0.94379 0.29697 0.0
N434 N 0.72613 0.92557 0.31031 0.0
N435 N 0.89298 0.87064 0.32913 0.0
H436 H 0.83805 0.03908 0.26657 0.0
H437 H 0.88128 0.9837 0.278 0.0
H438 H 0.90832 0.82581 0.34571 0.0
H439 H 0.91375 0.90804 0.32579 0.0
H440 H 0.70916 0.89617 0.32646 0.0
H441 H 0.71149 0.97237 0.29715 0.0
H442 H 0.73045 0.79686 0.33711 0.0
H443 H 0.77673 0.74787 0.35731 0.0
C444 C 0.82363 0.09674 0.76252 0.0
C445 C 0.78217 0.0871 0.76287 0.0
C446 C 0.78957 0.19024 0.81187 0.0
C447 C 0.82756 0.20678 0.80376 0.0
N448 N 0.88263 0.17417 0.77402 0.0
N449 N 0.7246 0.12372 0.78701 0.0
C450 C 0.84539 0.15902 0.78033 0.0
C451 C 0.76519 0.1328 0.7882 0.0
N452 N 0.84199 0.04599 0.7451 0.0
N453 N 0.77635 0.22959 0.84158 0.0
H454 H 0.7063 0.08111 0.7715 0.0
H455 H 0.70806 0.16011 0.79887 0.0
H456 H 0.79216 0.27334 0.85822 0.0
H457 H 0.75184 0.21552 0.85325 0.0
H458 H 0.8735 0.04653 0.74733 0.0
H459 H 0.82652 0.99999 0.73197 0.0
H460 H 0.89466 0.14644 0.752 0.0
H461 H 0.90106 0.21645 0.78975 0.0
C462 C 0.23496 0.21127 0.73688 0.0
C463 C 0.22188 0.2094 0.68605 0.0
C464 C 0.23618 0.08568 0.68991 0.0
C465 C 0.24926 0.08833 0.74068 0.0
N466 N 0.2473 0.14676 0.81053 0.0
N467 N 0.19971 0.14286 0.61342 0.0
C468 C 0.24308 0.14882 0.76321 0.0
C469 C 0.21887 0.1457 0.66227 0.0
N470 N 0.24394 0.27235 0.76042 0.0
N471 N 0.24267 0.02724 0.66849 0.0
H472 H 0.18672 0.18607 0.59243 0.0
H473 H 0.19336 0.09716 0.59434 0.0
H474 H 0.25391 0.98199 0.68774 0.0
H475 H 0.23875 0.02454 0.63225 0.0
H476 H 0.25731 0.2761 0.79771 0.0
H477 H 0.24271 0.31887 0.74262 0.0
H478 H 0.24012 0.18831 0.82811 0.0
H479 H 0.25379 0.10112 0.83045 0.0
C480 C 0.74068 0.39524 0.26319 0.0
C481 C 0.76059 0.44407 0.24271 0.0
C482 C 0.74759 0.37052 0.17268 0.0
C483 C 0.72635 0.32239 0.19225 0.0
N484 N 0.69169 0.30055 0.24941 0.0
N485 N 0.77053 0.48812 0.17185 0.0
C486 C 0.71887 0.33892 0.235 0.0
C487 C 0.75959 0.43501 0.1952 0.0
N488 N 0.74511 0.39929 0.31055 0.0
N489 N 0.75797 0.35407 0.13379 0.0
H490 H 0.77893 0.53624 0.18748 0.0
H491 H 0.76693 0.48659 0.13563 0.0
H492 H 0.74983 0.30778 0.11594 0.0
H493 H 0.77768 0.38416 0.12165 0.0
H494 H 0.73566 0.36034 0.32863 0.0
H495 H 0.76149 0.43852 0.33308 0.0
H496 H 0.68224 0.31445 0.2778 0.0
H497 H 0.67501 0.25916 0.23003 0.0
C498 C 0.30145 0.38317 0.23545 0.0
C499 C 0.29527 0.44308 0.25863 0.0
C500 C 0.32869 0.38607 0.33676 0.0
C501 C 0.32597 0.32261 0.31281 0.0
N502 N 0.30456 0.25952 0.23847 0.0
N503 N 0.30369 0.50378 0.33146 0.0
C504 C 0.3119 0.3208 0.26188 0.0
C505 C 0.30997 0.44573 0.30949 0.0
N506 N 0.29549 0.38574 0.18765 0.0
N507 N 0.34879 0.38882 0.38549 0.0
H508 H 0.29138 0.54879 0.31241 0.0
H509 H 0.30887 0.50645 0.36802 0.0
H510 H 0.36275 0.34573 0.4061 0.0
H511 H 0.35493 0.43437 0.40474 0.0
H512 H 0.30273 0.34502 0.16943 0.0
H513 H 0.28743 0.43123 0.16767 0.0
H514 H 0.29006 0.25534 0.20131 0.0
H515 H 0.30914 0.21251 0.25641 0.0
C516 C 0.32864 0.63333 0.74222 0.0
C517 C 0.3 0.60041 0.76053 0.0
C518 C 0.31167 0.69027 0.82081 0.0
C519 C 0.3411 0.72268 0.80322 0.0
N520 N 0.38858 0.70997 0.75943 0.0
N521 N 0.2759 0.58471 0.82681 0.0
C522 C 0.35322 0.68914 0.76792 0.0
C523 C 0.29581 0.62443 0.80338 0.0
N524 N 0.33065 0.6146 0.69898 0.0
N525 N 0.2959 0.72385 0.85087 0.0
H526 H 0.26426 0.53598 0.81481 0.0
H527 H 0.27512 0.59697 0.86049 0.0
H528 H 0.3041 0.77371 0.86226 0.0
H529 H 0.27121 0.70466 0.86051 0.0
H530 H 0.34757 0.6424 0.6818 0.0
H531 H 0.31276 0.5749 0.67831 0.0
H532 H 0.4007 0.68383 0.73673 0.0
H533 H 0.40851 0.74839 0.77942 0.0
C534 C 0.74481 0.71079 0.73904 0.0
C535 C 0.7203 0.71413 0.68899 0.0
C536 C 0.72367 0.58832 0.68531 0.0
C537 C 0.74722 0.58615 0.73526 0.0
N538 N 0.76551 0.64162 0.81169 0.0
N539 N 0.67569 0.65342 0.61825 0.0
C540 C 0.7521 0.64634 0.76273 0.0
C541 C 0.7059 0.65202 0.66332 0.0
N542 N 0.76338 0.76798 0.76381 0.0
N543 N 0.71998 0.53052 0.65859 0.0
H544 H 0.6611 0.69839 0.60132 0.0
H545 H 0.6619 0.60927 0.59977 0.0
H546 H 0.73149 0.48298 0.67412 0.0
H547 H 0.70766 0.53066 0.62114 0.0
H548 H 0.7846 0.76633 0.79924 0.0
H549 H 0.76185 0.8158 0.74784 0.0
H550 H 0.76644 0.68356 0.83353 0.0
H551 H 0.77118 0.59441 0.8297 0.0
C552 C 0.47266 0.99391 0.50197 0.0
C553 C 0.47778 0.05139 0.47473 0.0
C554 C 0.55211 0.01859 0.49312 0.0
C555 C 0.54839 0.96459 0.52343 0.0
N556 N 0.5052 0.90268 0.55929 0.0
N557 N 0.52638 0.12838 0.45659 0.0
C558 C 0.50854 0.95231 0.5283 0.0
C559 C 0.51872 0.06707 0.47428 0.0
N560 N 0.43326 0.97948 0.50285 0.0
N561 N 0.58706 0.02144 0.48022 0.0
H562 H 0.50353 0.16642 0.44303 0.0
H563 H 0.55684 0.14457 0.46035 0.0
H564 H 0.61035 0.98337 0.49044 0.0
H565 H 0.59001 0.0557 0.45458 0.0
H566 H 0.42552 0.93365 0.51579 0.0
H567 H 0.40768 1.01337 0.48939 0.0
H568 H 0.479 0.89717 0.56965 0.0
H569 H 0.52947 0.86804 0.57631 0.0
C570 C 0.54509 0.06836 0.99166 0.0
C571 C 0.56217 0.04951 0.04104 0.0
C572 C 0.50295 0.96791 0.02792 0.0
C573 C 0.48757 0.9836 0.97828 0.0
N574 N 0.50007 0.03734 0.91121 0.0
N575 N 0.56179 0.96754 0.10314 0.0
C576 C 0.51011 0.0311 0.95973 0.0
C577 C 0.54267 0.99495 0.05819 0.0
N578 N 0.56296 0.12046 0.97448 0.0
N579 N 0.47851 0.93039 0.04708 0.0
H580 H 0.58808 0.98825 0.12957 0.0
H581 H 0.55218 0.92137 0.11381 0.0
H582 H 0.44887 0.91073 0.02649 0.0
H583 H 0.48566 0.92455 0.08396 0.0
H584 H 0.54795 0.14378 0.94108 0.0
H585 H 0.5921 0.14251 0.99399 0.0
H586 H 0.51843 0.06441 0.89554 0.0
H587 H 0.47598 1.00959 0.88639 0.0
C588 C 0.06626 0.53045 0.50027 0.0
C589 C 0.06237 0.47377 0.52867 0.0
C590 C 0.98616 0.4993 0.50624 0.0
C591 C 0.99031 0.55701 0.47885 0.0
N592 N 0.03597 0.63443 0.45626 0.0
N593 N 1.01607 0.39378 0.54822 0.0
C594 C 0.03084 0.57465 0.47775 0.0
C595 C 0.02157 0.45492 0.52854 0.0
N596 N 0.10342 0.53896 0.49214 0.0
N597 N 0.94878 0.48972 0.51364 0.0
H598 H 0.04053 0.35919 0.56445 0.0
H599 H 0.98648 0.37376 0.54449 0.0
H600 H 0.92309 0.52327 0.49999 0.0
H601 H 0.94459 0.45363 0.53746 0.0
H602 H 0.10749 0.57437 0.46785 0.0
H603 H 0.12897 0.50504 0.50567 0.0
H604 H 0.06546 0.65439 0.45946 0.0
H605 H 1.01114 0.66772 0.43843 0.0
C606 C 0.036 0.56855 0.97673 0.0
C607 C 0.0536 0.54935 0.02597 0.0
C608 C 0.99379 0.4692 0.01409 0.0
C609 C 0.97895 0.48243 0.96402 0.0
N610 N 0.98797 0.5422 0.89657 0.0
N611 N 0.05004 0.47734 0.09131 0.0
C612 C 1.00023 0.5322 0.94516 0.0
C613 C 0.03287 0.49824 0.04441 0.0
N614 N 0.05414 0.62032 0.95953 0.0
N615 N 0.96887 0.43328 0.03353 0.0
H616 H 0.07411 0.50332 0.1175 0.0
H617 H 0.04094 0.43245 0.10414 0.0
H618 H 0.93914 0.41384 0.01314 0.0
H619 H 0.97535 0.42899 0.07035 0.0
H620 H 0.03911 0.64515 0.92676 0.0
H621 H 0.08366 0.64134 0.97875 0.0
H622 H 1.00414 0.57281 0.88013 0.0
H623 H 0.96401 0.51479 0.87135 0.0
loop_
_geom_bond_atom_site_label_1
_geom_bond_atom_site_label_2
_geom_bond_distance
_geom_bond_site_symmetry_2
_ccdc_geom_bond_type
Co0 N4 2.148 . S
Co0 N10 2.128 . S
Co0 N20 2.194 . S
Co0 O25 2.351 . S
Co0 O26 2.155 . S
Co0 O27 2.096 . S
C1 N4 1.301 . S
C1 N5 1.328 . S
C1 H6 0.930 . S
C2 C3 1.333 . S
C2 N4 1.317 . S
C2 H7 0.930 . S
C3 C2 1.333 . S
C3 N5 1.350 . S
C3 H29 0.931 . S
N4 Co0 2.148 . S
N4 C1 1.301 . S
N4 C2 1.317 . S
N5 C1 1.328 . S
N5 C3 1.350 . S
H6 C1 0.930 . S
H7 C2 0.930 . S
C8 O9 1.224 . S
C8 O27 1.247 . S
O9 C8 1.224 . S
N10 Co0 2.128 . S
N10 C11 1.355 . S
N10 C13 1.311 . S
C11 N10 1.355 . S
C11 C12 1.363 . S
C11 H23 0.929 . S
C12 C11 1.363 . S
C12 N14 1.375 . S
C12 H30 0.931 . S
C13 N10 1.311 . S
C13 N14 1.347 . S
C13 H24 0.929 . S
N14 C12 1.375 . S
N14 C13 1.347 . S
C15 C18 1.365 . S
C15 N20 1.328 1_565 S
C15 H21 0.929 . S
C16 C17 1.362 . S
C16 C19 1.378 1_565 S
C16 H31 0.929 . S
C17 C16 1.362 . S
C17 C18 1.366 . S
C18 C15 1.365 . S
C18 C17 1.366 . S
C18 H32 0.930 . S
C19 C16 1.378 1_545 S
C19 N20 1.315 . S
C19 H22 0.930 . S
N20 Co0 2.194 . S
N20 C15 1.328 1_545 S
N20 C19 1.315 . S
H21 C15 0.929 . S
H22 C19 0.930 . S
H23 C11 0.929 . S
H24 C13 0.929 . S
O25 Co0 2.351 . S
O25 C28 1.244 . S
O26 Co0 2.155 . S
O26 C28 1.240 . S
O27 Co0 2.096 . S
O27 C8 1.247 . S
C28 O25 1.244 . S
C28 O26 1.240 . S
H29 C3 0.931 . S
H30 C12 0.931 . S
H31 C16 0.929 . S
H32 C18 0.930 . S
Co33 N37 2.148 . S
Co33 N43 2.128 . S
Co33 N53 2.194 . S
Co33 O58 2.351 . S
Co33 O59 2.155 . S
Co33 O60 2.096 . S
C34 N37 1.301 . S
C34 N38 1.328 . S
C34 H39 0.930 . S
C35 C36 1.333 . S
C35 N37 1.317 . S
C35 H40 0.930 . S
C36 C35 1.333 . S
C36 N38 1.350 . S
C36 H62 0.931 . S
N37 Co33 2.148 . S
N37 C34 1.301 . S
N37 C35 1.317 . S
N38 C34 1.328 . S
N38 C36 1.350 . S
H39 C34 0.930 . S
H40 C35 0.930 . S
C41 O42 1.224 . S
C41 O60 1.247 . S
O42 C41 1.224 . S
N43 Co33 2.128 . S
N43 C44 1.355 . S
N43 C46 1.311 . S
C44 N43 1.355 . S
C44 C45 1.363 . S
C44 H56 0.929 . S
C45 C44 1.363 . S
C45 N47 1.375 . S
C45 H63 0.931 . S
C46 N43 1.311 . S
C46 N47 1.347 . S
C46 H57 0.929 . S
N47 C45 1.375 . S
N47 C46 1.347 . S
C48 C51 1.365 . S
C48 N53 1.328 1_565 S
C48 H54 0.929 . S
C49 C50 1.362 . S
C49 C52 1.378 1_565 S
C49 H64 0.929 . S
C50 C49 1.362 . S
C50 C51 1.366 . S
C51 C48 1.365 . S
C51 C50 1.366 . S
C51 H65 0.930 . S
C52 C49 1.378 1_545 S
C52 N53 1.315 . S
C52 H55 0.930 . S
N53 Co33 2.194 . S
N53 C48 1.328 1_545 S
N53 C52 1.315 . S
H54 C48 0.929 . S
H55 C52 0.930 . S
H56 C44 0.929 . S
H57 C46 0.929 . S
O58 Co33 2.351 . S
O58 C61 1.244 . S
O59 Co33 2.155 . S
O59 C61 1.240 . S
O60 Co33 2.096 . S
O60 C41 1.247 . S
C61 O58 1.244 . S
C61 O59 1.240 . S
H62 C36 0.931 . S
H63 C45 0.931 . S
H64 C49 0.929 . S
H65 C51 0.930 . S
Co66 N70 2.148 . S
Co66 N76 2.128 . S
Co66 N86 2.194 . S
Co66 O91 2.351 . S
Co66 O92 2.155 . S
Co66 O93 2.096 . S
C67 N70 1.301 . S
C67 N71 1.328 . S
C67 H72 0.930 . S
C68 C69 1.333 . S
C68 N70 1.317 . S
C68 H73 0.930 . S
C69 C68 1.333 . S
C69 N71 1.350 . S
C69 H95 0.931 . S
N70 Co66 2.148 . S
N70 C67 1.301 . S
N70 C68 1.317 . S
N71 C67 1.328 . S
N71 C69 1.350 . S
H72 C67 0.930 . S
H73 C68 0.930 . S
C74 O75 1.224 . S
C74 O93 1.247 . S
O75 C74 1.224 . S
N76 Co66 2.128 . S
N76 C77 1.355 . S
N76 C79 1.311 . S
C77 N76 1.355 . S
C77 C78 1.363 . S
C77 H89 0.929 . S
C78 C77 1.363 . S
C78 N80 1.375 . S
C78 H96 0.931 . S
C79 N76 1.311 . S
C79 N80 1.347 . S
C79 H90 0.929 . S
N80 C78 1.375 . S
N80 C79 1.347 . S
C81 C84 1.365 . S
C81 N86 1.328 1_545 S
C81 H87 0.929 . S
C82 C83 1.362 . S
C82 C85 1.378 1_545 S
C82 H97 0.929 . S
C83 C82 1.362 . S
C83 C84 1.366 . S
C84 C81 1.365 . S
C84 C83 1.366 . S
C84 H98 0.930 . S
C85 C82 1.378 1_565 S
C85 N86 1.315 . S
C85 H88 0.930 . S
N86 Co66 2.194 . S
N86 C81 1.328 1_565 S
N86 C85 1.315 . S
H87 C81 0.929 . S
H88 C85 0.930 . S
H89 C77 0.929 . S
H90 C79 0.929 . S
O91 Co66 2.351 . S
O91 C94 1.244 . S
O92 Co66 2.155 . S
O92 C94 1.240 . S
O93 Co66 2.096 . S
O93 C74 1.247 . S
C94 O91 1.244 . S
C94 O92 1.240 . S
H95 C69 0.931 . S
H96 C78 0.931 . S
H97 C82 0.929 . S
H98 C84 0.930 . S
Co99 N103 2.148 . S
Co99 N109 2.128 . S
Co99 N119 2.194 . S
Co99 O124 2.351 . S
Co99 O125 2.155 . S
Co99 O126 2.096 . S
C100 N103 1.301 . S
C100 N104 1.328 . S
C100 H105 0.930 . S
C101 C102 1.333 . S
C101 N103 1.317 . S
C101 H106 0.930 . S
C102 C101 1.333 . S
C102 N104 1.350 . S
C102 H128 0.931 . S
N103 Co99 2.148 . S
N103 C100 1.301 . S
N103 C101 1.317 . S
N104 C100 1.328 . S
N104 C102 1.350 . S
H105 C100 0.930 . S
H106 C101 0.930 . S
C107 O108 1.224 . S
C107 O126 1.247 . S
O108 C107 1.224 . S
N109 Co99 2.128 . S
N109 C110 1.355 . S
N109 C112 1.311 . S
C110 N109 1.355 . S
C110 C111 1.363 . S
C110 H122 0.929 . S
C111 C110 1.363 . S
C111 N113 1.375 . S
C111 H129 0.931 . S
C112 N109 1.311 . S
C112 N113 1.347 . S
C112 H123 0.929 . S
N113 C111 1.375 . S
N113 C112 1.347 . S
C114 C117 1.365 . S
C114 N119 1.328 1_545 S
C114 H120 0.929 . S
C115 C116 1.362 . S
C115 C118 1.378 1_545 S
C115 H130 0.929 . S
C116 C115 1.362 . S
C116 C117 1.366 . S
C117 C114 1.365 . S
C117 C116 1.366 . S
C117 H131 0.930 . S
C118 C115 1.378 1_565 S
C118 N119 1.315 . S
C118 H121 0.930 . S
N119 Co99 2.194 . S
N119 C114 1.328 1_565 S
N119 C118 1.315 . S
H120 C114 0.929 . S
H121 C118 0.930 . S
H122 C110 0.929 . S
H123 C112 0.929 . S
O124 Co99 2.351 . S
O124 C127 1.244 . S
O125 Co99 2.155 . S
O125 C127 1.240 . S
O126 Co99 2.096 . S
O126 C107 1.247 . S
C127 O124 1.244 . S
C127 O125 1.240 . S
H128 C102 0.931 . S
H129 C111 0.931 . S
H130 C115 0.929 . S
H131 C117 0.930 . S
Co132 N136 2.148 . S
Co132 N142 2.128 . S
Co132 N152 2.194 . S
Co132 O157 2.351 . S
Co132 O158 2.155 . S
Co132 O159 2.096 . S
C133 N136 1.301 . S
C133 N137 1.328 . S
C133 H138 0.930 . S
C134 C135 1.333 . S
C134 N136 1.317 . S
C134 H139 0.930 . S
C135 C134 1.333 . S
C135 N137 1.350 . S
C135 H161 0.931 . S
N136 Co132 2.148 . S
N136 C133 1.301 . S
N136 C134 1.317 . S
N137 C133 1.328 . S
N137 C135 1.350 . S
H138 C133 0.930 . S
H139 C134 0.930 . S
C140 O141 1.224 . S
C140 O159 1.247 . S
O141 C140 1.224 . S
N142 Co132 2.128 . S
N142 C143 1.355 . S
N142 C145 1.311 . S
C143 N142 1.355 . S
C143 C144 1.363 . S
C143 H155 0.929 . S
C144 C143 1.363 . S
C144 N146 1.375 . S
C144 H162 0.931 . S
C145 N142 1.311 . S
C145 N146 1.347 . S
C145 H156 0.929 . S
N146 C144 1.375 . S
N146 C145 1.347 . S
C147 C150 1.365 . S
C147 N152 1.328 . S
C147 H153 0.929 . S
C148 C149 1.362 . S
C148 C151 1.378 . S
C148 H163 0.929 . S
C149 C148 1.362 . S
C149 C150 1.366 . S
C150 C147 1.365 . S
C150 C149 1.366 . S
C150 H164 0.930 . S
C151 C148 1.378 . S
C151 N152 1.315 . S
C151 H154 0.930 . S
N152 Co132 2.194 . S
N152 C147 1.328 . S
N152 C151 1.315 . S
H153 C147 0.929 . S
H154 C151 0.930 . S
H155 C143 0.929 . S
H156 C145 0.929 . S
O157 Co132 2.351 . S
O157 C160 1.244 . S
O158 Co132 2.155 . S
O158 C160 1.240 . S
O159 Co132 2.096 . S
O159 C140 1.247 . S
C160 O157 1.244 . S
C160 O158 1.240 . S
H161 C135 0.931 . S
H162 C144 0.931 . S
H163 C148 0.929 . S
H164 C150 0.930 . S
Co165 N169 2.148 . S
Co165 N175 2.128 . S
Co165 N185 2.194 . S
Co165 O190 2.351 . S
Co165 O191 2.155 . S
Co165 O192 2.096 . S
C166 N169 1.301 . S
C166 N170 1.328 . S
C166 H171 0.930 . S
C167 C168 1.333 . S
C167 N169 1.317 . S
C167 H172 0.930 . S
C168 C167 1.333 . S
C168 N170 1.350 . S
C168 H194 0.931 . S
N169 Co165 2.148 . S
N169 C166 1.301 . S
N169 C167 1.317 . S
N170 C166 1.328 . S
N170 C168 1.350 . S
H171 C166 0.930 . S
H172 C167 0.930 . S
C173 O174 1.224 . S
C173 O192 1.247 . S
O174 C173 1.224 . S
N175 Co165 2.128 . S
N175 C176 1.355 . S
N175 C178 1.311 . S
C176 N175 1.355 . S
C176 C177 1.363 . S
C176 H188 0.929 . S
C177 C176 1.363 . S
C177 N179 1.375 . S
C177 H195 0.931 . S
C178 N175 1.311 . S
C178 N179 1.347 . S
C178 H189 0.929 . S
N179 C177 1.375 . S
N179 C178 1.347 . S
C180 C183 1.365 . S
C180 N185 1.328 . S
C180 H186 0.929 . S
C181 C182 1.362 . S
C181 C184 1.378 . S
C181 H196 0.929 . S
C182 C181 1.362 . S
C182 C183 1.366 . S
C183 C180 1.365 . S
C183 C182 1.366 . S
C183 H197 0.930 . S
C184 C181 1.378 . S
C184 N185 1.315 . S
C184 H187 0.930 . S
N185 Co165 2.194 . S
N185 C180 1.328 . S
N185 C184 1.315 . S
H186 C180 0.929 . S
H187 C184 0.930 . S
H188 C176 0.929 . S
H189 C178 0.929 . S
O190 Co165 2.351 . S
O190 C193 1.244 . S
O191 Co165 2.155 . S
O191 C193 1.240 . S
O192 Co165 2.096 . S
O192 C173 1.247 . S
C193 O190 1.244 . S
C193 O191 1.240 . S
H194 C168 0.931 . S
H195 C177 0.931 . S
H196 C181 0.929 . S
H197 C183 0.930 . S
Co198 N202 2.148 . S
Co198 N208 2.128 . S
Co198 N218 2.194 . S
Co198 O223 2.351 . S
Co198 O224 2.155 . S
Co198 O225 2.096 . S
C199 N202 1.301 . S
C199 N203 1.328 . S
C199 H204 0.930 . S
C200 C201 1.333 . S
C200 N202 1.317 . S
C200 H205 0.930 . S
C201 C200 1.333 . S
C201 N203 1.350 . S
C201 H227 0.931 . S
N202 Co198 2.148 . S
N202 C199 1.301 . S
N202 C200 1.317 . S
N203 C199 1.328 . S
N203 C201 1.350 . S
H204 C199 0.930 . S
H205 C200 0.930 . S
C206 O207 1.224 . S
C206 O225 1.247 . S
O207 C206 1.224 . S
N208 Co198 2.128 . S
N208 C209 1.355 . S
N208 C211 1.311 . S
C209 N208 1.355 . S
C209 C210 1.363 . S
C209 H221 0.929 . S
C210 C209 1.363 . S
C210 N212 1.375 . S
C210 H228 0.931 . S
C211 N208 1.311 . S
C211 N212 1.347 . S
C211 H222 0.929 . S
N212 C210 1.375 . S
N212 C211 1.347 . S
C213 C216 1.365 . S
C213 N218 1.328 . S
C213 H219 0.929 . S
C214 C215 1.362 . S
C214 C217 1.378 . S
C214 H229 0.929 . S
C215 C214 1.362 . S
C215 C216 1.366 . S
C216 C213 1.365 . S
C216 C215 1.366 . S
C216 H230 0.930 . S
C217 C214 1.378 . S
C217 N218 1.315 . S
C217 H220 0.930 . S
N218 Co198 2.194 . S
N218 C213 1.328 . S
N218 C217 1.315 . S
H219 C213 0.929 . S
H220 C217 0.930 . S
H221 C209 0.929 . S
H222 C211 0.929 . S
O223 Co198 2.351 . S
O223 C226 1.244 . S
O224 Co198 2.155 . S
O224 C226 1.240 . S
O225 Co198 2.096 . S
O225 C206 1.247 . S
C226 O223 1.244 . S
C226 O224 1.240 . S
H227 C201 0.931 . S
H228 C210 0.931 . S
H229 C214 0.929 . S
H230 C216 0.930 . S
Co231 N235 2.148 . S
Co231 N241 2.128 . S
Co231 N251 2.194 . S
Co231 O256 2.351 . S
Co231 O257 2.155 . S
Co231 O258 2.096 . S
C232 N235 1.301 . S
C232 N236 1.328 . S
C232 H237 0.930 . S
C233 C234 1.333 . S
C233 N235 1.317 . S
C233 H238 0.930 . S
C234 C233 1.333 . S
C234 N236 1.350 . S
C234 H260 0.931 . S
N235 Co231 2.148 . S
N235 C232 1.301 . S
N235 C233 1.317 . S
N236 C232 1.328 . S
N236 C234 1.350 . S
H237 C232 0.930 . S
H238 C233 0.930 . S
C239 O240 1.224 . S
C239 O258 1.247 . S
O240 C239 1.224 . S
N241 Co231 2.128 . S
N241 C242 1.355 . S
N241 C244 1.311 . S
C242 N241 1.355 . S
C242 C243 1.363 . S
C242 H254 0.929 . S
C243 C242 1.363 . S
C243 N245 1.375 . S
C243 H261 0.931 . S
C244 N241 1.311 . S
C244 N245 1.347 . S
C244 H255 0.929 . S
N245 C243 1.375 . S
N245 C244 1.347 . S
C246 C249 1.365 . S
C246 N251 1.328 . S
C246 H252 0.929 . S
C247 C248 1.362 . S
C247 C250 1.378 . S
C247 H262 0.929 . S
C248 C247 1.362 . S
C248 C249 1.366 . S
C249 C246 1.365 . S
C249 C248 1.366 . S
C249 H263 0.930 . S
C250 C247 1.378 . S
C250 N251 1.315 . S
C250 H253 0.930 . S
N251 Co231 2.194 . S
N251 C246 1.328 . S
N251 C250 1.315 . S
H252 C246 0.929 . S
H253 C250 0.930 . S
H254 C242 0.929 . S
H255 C244 0.929 . S
O256 Co231 2.351 . S
O256 C259 1.244 . S
O257 Co231 2.155 . S
O257 C259 1.240 . S
O258 Co231 2.096 . S
O258 C239 1.247 . S
C259 O256 1.244 . S
C259 O257 1.240 . S
H260 C234 0.931 . S
H261 C243 0.931 . S
H262 C247 0.929 . S
H263 C249 0.930 . S
C264 C265 1.363 . S
C264 C270 1.379 . S
C264 N272 1.356 . S
C265 C264 1.363 . S
C265 C271 1.363 . S
C266 C267 1.363 . S
C266 C271 1.379 . S
C266 N273 1.356 . S
C267 C266 1.363 . S
C267 C270 1.363 . S
N268 C270 1.356 . S
N268 H280 0.984 . S
N268 H281 0.985 . S
N269 C271 1.356 . S
N269 H274 0.984 . S
N269 H275 0.985 . S
C270 C264 1.379 . S
C270 C267 1.363 . S
C270 N268 1.356 . S
C271 C265 1.363 . S
C271 C266 1.379 . S
C271 N269 1.356 . S
N272 C264 1.356 . S
N272 H278 0.984 . S
N272 H279 0.984 . S
N273 C266 1.356 . S
N273 H276 0.984 . S
N273 H277 0.985 . S
H274 N269 0.984 . S
H275 N269 0.985 . S
H276 N273 0.984 . S
H277 N273 0.985 . S
H278 N272 0.984 . S
H279 N272 0.984 . S
H280 N268 0.984 . S
H281 N268 0.985 . S
C282 C283 1.363 1_556 S
C282 C288 1.379 . S
C282 N290 1.356 . S
C283 C282 1.363 1_554 S
C283 C289 1.363 . S
C284 C285 1.363 1_554 S
C284 C289 1.379 . S
C284 N291 1.356 . S
C285 C284 1.363 1_556 S
C285 C288 1.363 . S
N286 C288 1.356 . S
N286 H298 0.984 . S
N286 H299 0.985 . S
N287 C289 1.356 . S
N287 H292 0.984 . S
N287 H293 0.985 . S
C288 C282 1.379 . S
C288 C285 1.363 . S
C288 N286 1.356 . S
C289 C283 1.363 . S
C289 C284 1.379 . S
C289 N287 1.356 . S
N290 C282 1.356 . S
N290 H296 0.984 . S
N290 H297 0.984 1_556 S
N291 C284 1.356 . S
N291 H294 0.984 1_554 S
N291 H295 0.985 . S
H292 N287 0.984 . S
H293 N287 0.985 . S
H294 N291 0.984 1_556 S
H295 N291 0.985 . S
H296 N290 0.984 . S
H297 N290 0.984 1_554 S
H298 N286 0.984 . S
H299 N286 0.985 . S
C300 C301 1.363 . S
C300 C306 1.379 . S
C300 N308 1.356 . S
C301 C300 1.363 . S
C301 C307 1.363 . S
C302 C303 1.363 . S
C302 C307 1.379 . S
C302 N309 1.356 . S
C303 C302 1.363 . S
C303 C306 1.363 . S
N304 C306 1.356 . S
N304 H316 0.984 . S
N304 H317 0.985 . S
N305 C307 1.356 . S
N305 H310 0.984 . S
N305 H311 0.985 . S
C306 C300 1.379 . S
C306 C303 1.363 . S
C306 N304 1.356 . S
C307 C301 1.363 . S
C307 C302 1.379 . S
C307 N305 1.356 . S
N308 C300 1.356 . S
N308 H314 0.984 . S
N308 H315 0.984 . S
N309 C302 1.356 . S
N309 H312 0.984 . S
N309 H313 0.985 . S
H310 N305 0.984 . S
H311 N305 0.985 . S
H312 N309 0.984 . S
H313 N309 0.985 . S
H314 N308 0.984 . S
H315 N308 0.984 . S
H316 N304 0.984 . S
H317 N304 0.985 . S
C318 C319 1.363 1_554 S
C318 C324 1.379 . S
C318 N326 1.356 . S
C319 C318 1.363 1_556 S
C319 C325 1.363 . S
C320 C321 1.363 1_556 S
C320 C325 1.379 . S
C320 N327 1.356 . S
C321 C320 1.363 1_554 S
C321 C324 1.363 . S
N322 C324 1.356 . S
N322 H334 0.984 . S
N322 H335 0.985 . S
N323 C325 1.356 . S
N323 H328 0.984 . S
N323 H329 0.985 . S
C324 C318 1.379 . S
C324 C321 1.363 . S
C324 N322 1.356 . S
C325 C319 1.363 . S
C325 C320 1.379 . S
C325 N323 1.356 . S
N326 C318 1.356 . S
N326 H332 0.984 . S
N326 H333 0.984 . S
N327 C320 1.356 . S
N327 H330 0.984 . S
N327 H331 0.985 . S
H328 N323 0.984 . S
H329 N323 0.985 . S
H330 N327 0.984 . S
H331 N327 0.985 . S
H332 N326 0.984 . S
H333 N326 0.984 . S
H334 N322 0.984 . S
H335 N322 0.985 . S
C336 C337 1.363 . S
C336 C342 1.379 . S
C336 N344 1.356 1_545 S
C337 C336 1.363 . S
C337 C343 1.363 . S
C338 C339 1.363 . S
C338 C343 1.379 . S
C338 N345 1.356 . S
C339 C338 1.363 . S
C339 C342 1.363 . S
N340 C342 1.356 1_565 S
N340 H352 0.984 . S
N340 H353 0.985 . S
N341 C343 1.356 . S
N341 H346 0.984 . S
N341 H347 0.985 . S
C342 C336 1.379 . S
C342 C339 1.363 . S
C342 N340 1.356 1_545 S
C343 C337 1.363 . S
C343 C338 1.379 . S
C343 N341 1.356 . S
N344 C336 1.356 1_565 S
N344 H350 0.984 . S
N344 H351 0.984 . S
N345 C338 1.356 . S
N345 H348 0.984 . S
N345 H349 0.985 . S
H346 N341 0.984 . S
H347 N341 0.985 . S
H348 N345 0.984 . S
H349 N345 0.985 . S
H350 N344 0.984 . S
H351 N344 0.984 . S
H352 N340 0.984 . S
H353 N340 0.985 . S
C354 C355 1.363 . S
C354 C360 1.379 . S
C354 N362 1.356 1_565 S
C355 C354 1.363 . S
C355 C361 1.363 . S
C356 C357 1.363 . S
C356 C361 1.379 . S
C356 N363 1.356 . S
C357 C356 1.363 . S
C357 C360 1.363 . S
N358 C360 1.356 1_545 S
N358 H370 0.984 . S
N358 H371 0.985 . S
N359 C361 1.356 . S
N359 H364 0.984 . S
N359 H365 0.985 . S
C360 C354 1.379 . S
C360 C357 1.363 . S
C360 N358 1.356 1_565 S
C361 C355 1.363 . S
C361 C356 1.379 . S
C361 N359 1.356 . S
N362 C354 1.356 1_545 S
N362 H368 0.984 . S
N362 H369 0.984 . S
N363 C356 1.356 . S
N363 H366 0.984 . S
N363 H367 0.985 . S
H364 N359 0.984 . S
H365 N359 0.985 . S
H366 N363 0.984 . S
H367 N363 0.985 . S
H368 N362 0.984 . S
H369 N362 0.984 . S
H370 N358 0.984 . S
H371 N358 0.985 . S
C372 C373 1.363 . S
C372 C378 1.379 1_455 S
C372 N380 1.356 . S
C373 C372 1.363 . S
C373 C379 1.363 . S
C374 C375 1.363 . S
C374 C379 1.379 1_655 S
C374 N381 1.356 . S
C375 C374 1.363 . S
C375 C378 1.363 . S
N376 C378 1.356 . S
N376 H388 0.984 . S
N376 H389 0.985 . S
N377 C379 1.356 . S
N377 H382 0.984 . S
N377 H383 0.985 . S
C378 C372 1.379 1_655 S
C378 C375 1.363 . S
C378 N376 1.356 . S
C379 C373 1.363 . S
C379 C374 1.379 1_455 S
C379 N377 1.356 . S
N380 C372 1.356 . S
N380 H386 0.984 . S
N380 H387 0.984 . S
N381 C374 1.356 . S
N381 H384 0.984 . S
N381 H385 0.985 . S
H382 N377 0.984 . S
H383 N377 0.985 . S
H384 N381 0.984 . S
H385 N381 0.985 . S
H386 N380 0.984 . S
H387 N380 0.984 . S
H388 N376 0.984 . S
H389 N376 0.985 . S
C390 C391 1.363 . S
C390 C396 1.379 1_455 S
C390 N398 1.356 . S
C391 C390 1.363 . S
C391 C397 1.363 . S
C392 C393 1.363 . S
C392 C397 1.379 1_655 S
C392 N399 1.356 . S
C393 C392 1.363 . S
C393 C396 1.363 . S
N394 C396 1.356 . S
N394 H406 0.984 . S
N394 H407 0.985 . S
N395 C397 1.356 . S
N395 H400 0.984 . S
N395 H401 0.985 . S
C396 C390 1.379 1_655 S
C396 C393 1.363 . S
C396 N394 1.356 . S
C397 C391 1.363 . S
C397 C392 1.379 1_455 S
C397 N395 1.356 . S
N398 C390 1.356 . S
N398 H404 0.984 . S
N398 H405 0.984 . S
N399 C392 1.356 . S
N399 H402 0.984 . S
N399 H403 0.985 . S
H400 N395 0.984 . S
H401 N395 0.985 . S
H402 N399 0.984 . S
H403 N399 0.985 . S
H404 N398 0.984 . S
H405 N398 0.984 . S
H406 N394 0.984 . S
H407 N394 0.985 . S
C408 C409 1.363 . S
C408 C414 1.379 . S
C408 N416 1.356 . S
C409 C408 1.363 . S
C409 C415 1.363 . S
C410 C411 1.363 . S
C410 C415 1.379 . S
C410 N417 1.356 . S
C411 C410 1.363 . S
C411 C414 1.363 . S
N412 C414 1.356 . S
N412 H424 0.984 . S
N412 H425 0.985 . S
N413 C415 1.356 . S
N413 H418 0.984 . S
N413 H419 0.985 . S
C414 C408 1.379 . S
C414 C411 1.363 . S
C414 N412 1.356 . S
C415 C409 1.363 . S
C415 C410 1.379 . S
C415 N413 1.356 . S
N416 C408 1.356 . S
N416 H422 0.984 . S
N416 H423 0.984 . S
N417 C410 1.356 . S
N417 H420 0.984 . S
N417 H421 0.985 . S
H418 N413 0.984 . S
H419 N413 0.985 . S
H420 N417 0.984 . S
H421 N417 0.985 . S
H422 N416 0.984 . S
H423 N416 0.984 . S
H424 N412 0.984 . S
H425 N412 0.985 . S
C426 C427 1.363 . S
C426 C432 1.379 . S
C426 N434 1.356 . S
C427 C426 1.363 . S
C427 C433 1.363 . S
C428 C429 1.363 . S
C428 C433 1.379 . S
C428 N435 1.356 . S
C429 C428 1.363 . S
C429 C432 1.363 . S
N430 C432 1.356 . S
N430 H442 0.984 . S
N430 H443 0.985 . S
N431 C433 1.356 . S
N431 H436 0.984 . S
N431 H437 0.985 . S
C432 C426 1.379 . S
C432 C429 1.363 . S
C432 N430 1.356 . S
C433 C427 1.363 . S
C433 C428 1.379 . S
C433 N431 1.356 . S
N434 C426 1.356 . S
N434 H440 0.984 . S
N434 H441 0.984 . S
N435 C428 1.356 . S
N435 H438 0.984 . S
N435 H439 0.985 . S
H436 N431 0.984 . S
H437 N431 0.985 . S
H438 N435 0.984 . S
H439 N435 0.985 . S
H440 N434 0.984 . S
H441 N434 0.984 . S
H442 N430 0.984 . S
H443 N430 0.985 . S
C444 C445 1.363 . S
C444 C450 1.379 . S
C444 N452 1.356 . S
C445 C444 1.363 . S
C445 C451 1.363 . S
C446 C447 1.363 . S
C446 C451 1.379 . S
C446 N453 1.356 . S
C447 C446 1.363 . S
C447 C450 1.363 . S
N448 C450 1.356 . S
N448 H460 0.984 . S
N448 H461 0.985 . S
N449 C451 1.356 . S
N449 H454 0.984 . S
N449 H455 0.985 . S
C450 C444 1.379 . S
C450 C447 1.363 . S
C450 N448 1.356 . S
C451 C445 1.363 . S
C451 C446 1.379 . S
C451 N449 1.356 . S
N452 C444 1.356 . S
N452 H458 0.984 . S
N452 H459 0.984 . S
N453 C446 1.356 . S
N453 H456 0.984 . S
N453 H457 0.985 . S
H454 N449 0.984 . S
H455 N449 0.985 . S
H456 N453 0.984 . S
H457 N453 0.985 . S
H458 N452 0.984 . S
H459 N452 0.984 . S
H460 N448 0.984 . S
H461 N448 0.985 . S
C462 C463 1.363 . S
C462 C468 1.379 . S
C462 N470 1.356 . S
C463 C462 1.363 . S
C463 C469 1.363 . S
C464 C465 1.363 . S
C464 C469 1.379 . S
C464 N471 1.356 . S
C465 C464 1.363 . S
C465 C468 1.363 . S
N466 C468 1.356 . S
N466 H478 0.984 . S
N466 H479 0.985 . S
N467 C469 1.356 . S
N467 H472 0.984 . S
N467 H473 0.985 . S
C468 C462 1.379 . S
C468 C465 1.363 . S
C468 N466 1.356 . S
C469 C463 1.363 . S
C469 C464 1.379 . S
C469 N467 1.356 . S
N470 C462 1.356 . S
N470 H476 0.984 . S
N470 H477 0.984 . S
N471 C464 1.356 . S
N471 H474 0.984 . S
N471 H475 0.985 . S
H472 N467 0.984 . S
H473 N467 0.985 . S
H474 N471 0.984 . S
H475 N471 0.985 . S
H476 N470 0.984 . S
H477 N470 0.984 . S
H478 N466 0.984 . S
H479 N466 0.985 . S
C480 C481 1.363 . S
C480 C486 1.379 . S
C480 N488 1.356 . S
C481 C480 1.363 . S
C481 C487 1.363 . S
C482 C483 1.363 . S
C482 C487 1.379 . S
C482 N489 1.356 . S
C483 C482 1.363 . S
C483 C486 1.363 . S
N484 C486 1.356 . S
N484 H496 0.984 . S
N484 H497 0.985 . S
N485 C487 1.356 . S
N485 H490 0.984 . S
N485 H491 0.985 . S
C486 C480 1.379 . S
C486 C483 1.363 . S
C486 N484 1.356 . S
C487 C481 1.363 . S
C487 C482 1.379 . S
C487 N485 1.356 . S
N488 C480 1.356 . S
N488 H494 0.984 . S
N488 H495 0.984 . S
N489 C482 1.356 . S
N489 H492 0.984 . S
N489 H493 0.985 . S
H490 N485 0.984 . S
H491 N485 0.985 . S
H492 N489 0.984 . S
H493 N489 0.985 . S
H494 N488 0.984 . S
H495 N488 0.984 . S
H496 N484 0.984 . S
H497 N484 0.985 . S
C498 C499 1.363 . S
C498 C504 1.379 . S
C498 N506 1.356 . S
C499 C498 1.363 . S
C499 C505 1.363 . S
C500 C501 1.363 . S
C500 C505 1.379 . S
C500 N507 1.356 . S
C501 C500 1.363 . S
C501 C504 1.363 . S
N502 C504 1.356 . S
N502 H514 0.984 . S
N502 H515 0.985 . S
N503 C505 1.356 . S
N503 H508 0.984 . S
N503 H509 0.985 . S
C504 C498 1.379 . S
C504 C501 1.363 . S
C504 N502 1.356 . S
C505 C499 1.363 . S
C505 C500 1.379 . S
C505 N503 1.356 . S
N506 C498 1.356 . S
N506 H512 0.984 . S
N506 H513 0.984 . S
N507 C500 1.356 . S
N507 H510 0.984 . S
N507 H511 0.985 . S
H508 N503 0.984 . S
H509 N503 0.985 . S
H510 N507 0.984 . S
H511 N507 0.985 . S
H512 N506 0.984 . S
H513 N506 0.984 . S
H514 N502 0.984 . S
H515 N502 0.985 . S
C516 C517 1.363 . S
C516 C522 1.379 . S
C516 N524 1.356 . S
C517 C516 1.363 . S
C517 C523 1.363 . S
C518 C519 1.363 . S
C518 C523 1.379 . S
C518 N525 1.356 . S
C519 C518 1.363 . S
C519 C522 1.363 . S
N520 C522 1.356 . S
N520 H532 0.984 . S
N520 H533 0.985 . S
N521 C523 1.356 . S
N521 H526 0.984 . S
N521 H527 0.985 . S
C522 C516 1.379 . S
C522 C519 1.363 . S
C522 N520 1.356 . S
C523 C517 1.363 . S
C523 C518 1.379 . S
C523 N521 1.356 . S
N524 C516 1.356 . S
N524 H530 0.984 . S
N524 H531 0.984 . S
N525 C518 1.356 . S
N525 H528 0.984 . S
N525 H529 0.985 . S
H526 N521 0.984 . S
H527 N521 0.985 . S
H528 N525 0.984 . S
H529 N525 0.985 . S
H530 N524 0.984 . S
H531 N524 0.984 . S
H532 N520 0.984 . S
H533 N520 0.985 . S
C534 C535 1.363 . S
C534 C540 1.379 . S
C534 N542 1.356 . S
C535 C534 1.363 . S
C535 C541 1.363 . S
C536 C537 1.363 . S
C536 C541 1.379 . S
C536 N543 1.356 . S
C537 C536 1.363 . S
C537 C540 1.363 . S
N538 C540 1.356 . S
N538 H550 0.984 . S
N538 H551 0.985 . S
N539 C541 1.356 . S
N539 H544 0.984 . S
N539 H545 0.985 . S
C540 C534 1.379 . S
C540 C537 1.363 . S
C540 N538 1.356 . S
C541 C535 1.363 . S
C541 C536 1.379 . S
C541 N539 1.356 . S
N542 C534 1.356 . S
N542 H548 0.984 . S
N542 H549 0.984 . S
N543 C536 1.356 . S
N543 H546 0.984 . S
N543 H547 0.985 . S
H544 N539 0.984 . S
H545 N539 0.985 . S
H546 N543 0.984 . S
H547 N543 0.985 . S
H548 N542 0.984 . S
H549 N542 0.984 . S
H550 N538 0.984 . S
H551 N538 0.985 . S
C552 C553 1.363 1_565 S
C552 C558 1.379 . S
C552 N560 1.356 . S
C553 C552 1.363 1_545 S
C553 C559 1.363 . S
C554 C555 1.363 1_545 S
C554 C559 1.379 . S
C554 N561 1.356 . S
C555 C554 1.363 1_565 S
C555 C558 1.363 . S
N556 C558 1.356 . S
N556 H568 0.984 . S
N556 H569 0.985 . S
N557 C559 1.356 . S
N557 H562 0.984 . S
N557 H563 0.985 . S
C558 C552 1.379 . S
C558 C555 1.363 . S
C558 N556 1.356 . S
C559 C553 1.363 . S
C559 C554 1.379 . S
C559 N557 1.356 . S
N560 C552 1.356 . S
N560 H566 0.984 . S
N560 H567 0.984 1_565 S
N561 C554 1.356 . S
N561 H564 0.984 1_545 S
N561 H565 0.985 . S
H562 N557 0.984 . S
H563 N557 0.985 . S
H564 N561 0.984 1_565 S
H565 N561 0.985 . S
H566 N560 0.984 . S
H567 N560 0.984 1_545 S
H568 N556 0.984 . S
H569 N556 0.985 . S
C570 C571 1.363 1_556 S
C570 C576 1.379 . S
C570 N578 1.356 . S
C571 C570 1.363 1_554 S
C571 C577 1.363 1_545 S
C572 C573 1.363 1_554 S
C572 C577 1.379 . S
C572 N579 1.356 . S
C573 C572 1.363 1_556 S
C573 C576 1.363 1_565 S
N574 C576 1.356 . S
N574 H586 0.984 . S
N574 H587 0.985 1_545 S
N575 C577 1.356 . S
N575 H580 0.984 1_565 S
N575 H581 0.985 . S
C576 C570 1.379 . S
C576 C573 1.363 1_545 S
C576 N574 1.356 . S
C577 C571 1.363 1_565 S
C577 C572 1.379 . S
C577 N575 1.356 . S
N578 C570 1.356 . S
N578 H584 0.984 . S
N578 H585 0.984 1_556 S
N579 C572 1.356 . S
N579 H582 0.984 1_554 S
N579 H583 0.985 . S
H580 N575 0.984 1_545 S
H581 N575 0.985 . S
H582 N579 0.984 1_556 S
H583 N579 0.985 . S
H584 N578 0.984 . S
H585 N578 0.984 1_554 S
H586 N574 0.984 . S
H587 N574 0.985 1_565 S
C588 C589 1.363 . S
C588 C594 1.379 . S
C588 N596 1.356 . S
C589 C588 1.363 . S
C589 C595 1.363 1_455 S
C590 C591 1.363 . S
C590 C595 1.379 . S
C590 N597 1.356 . S
C591 C590 1.363 . S
C591 C594 1.363 1_655 S
N592 C594 1.355 . S
N592 H604 0.989 . S
N592 H605 0.980 1_455 S
N593 C595 1.355 . S
N593 H598 0.980 1_655 S
N593 H599 0.989 . S
C594 C588 1.379 . S
C594 C591 1.363 1_455 S
C594 N592 1.355 . S
C595 C589 1.363 1_655 S
C595 C590 1.379 . S
C595 N593 1.355 . S
N596 C588 1.356 . S
N596 H602 0.984 . S
N596 H603 0.984 . S
N597 C590 1.356 . S
N597 H600 0.984 . S
N597 H601 0.985 . S
H598 N593 0.980 1_455 S
H599 N593 0.989 . S
H600 N597 0.984 . S
H601 N597 0.985 . S
H602 N596 0.984 . S
H603 N596 0.984 . S
H604 N592 0.989 . S
H605 N592 0.980 1_655 S
C606 C607 1.363 1_656 S
C606 C612 1.379 . S
C606 N614 1.356 1_655 S
C607 C606 1.363 1_454 S
C607 C613 1.363 . S
C608 C609 1.363 1_454 S
C608 C613 1.379 . S
C608 N615 1.356 1_455 S
C609 C608 1.363 1_656 S
C609 C612 1.363 . S
N610 C612 1.356 . S
N610 H622 0.984 . S
N610 H623 0.985 . S
N611 C613 1.356 . S
N611 H616 0.984 . S
N611 H617 0.985 . S
C612 C606 1.379 . S
C612 C609 1.363 . S
C612 N610 1.356 . S
C613 C607 1.363 . S
C613 C608 1.379 . S
C613 N611 1.356 . S
N614 C606 1.356 1_455 S
N614 H620 0.984 1_455 S
N614 H621 0.984 1_556 S
N615 C608 1.356 1_655 S
N615 H618 0.984 1_554 S
N615 H619 0.985 1_655 S
H616 N611 0.984 . S
H617 N611 0.985 . S
H618 N615 0.984 1_556 S
H619 N615 0.985 1_455 S
H620 N614 0.984 1_655 S
H621 N614 0.984 1_554 S
H622 N610 0.984 . S
H623 N610 0.985 . S
C265 N212 1.994 . S
C267 N14 1.994 . S
C283 N47 1.994 . S
C285 N245 1.994 . S
C301 N80 1.994 . S
C303 N146 1.994 . S
C319 N113 1.994 . S
C321 N179 1.994 . S
C337 N38 1.477 . S
C339 N5 1.477 . S
C355 N71 1.477 . S
C357 N104 1.477 . S
C373 N170 1.477 . S
C375 N137 1.477 . S
C391 N203 1.477 . S
C393 N236 1.477 . S
C409 C173 1.218 . S
C411 C17 1.235 . S
C427 C50 1.235 . S
C429 C140 1.218 . S
C445 C83 1.235 . S
C447 C239 1.218 . S
C463 C206 1.218 . S
C465 C116 1.235 . S
C481 C149 1.235 . S
C483 C41 1.218 . S
C499 C182 1.235 . S
C501 C8 1.218 . S
C517 C215 1.235 . S
C519 C107 1.218 . S
C535 C74 1.218 . S
C537 C248 1.235 . S
C553 C28 1.531 . S
C555 C94 1.531 . S
C571 C61 1.531 . S
C573 C127 1.531 . S
C589 C226 1.531 . S
C591 C160 1.531 . S
C607 C193 1.531 . S
C609 C259 1.531 . S
