# Generated by pormake.
# Topology sml, (6)-cn, num edge types: 1
# Building blocks:
#     Node 0, Type 0, BuildingBlock: MIFKUJ_clean_sbu_0, # of connection points: 6
#     Node 1, Type 0, BuildingBlock: MIFKUJ_clean_sbu_0, # of connection points: 6
#     Node 2, Type 0, BuildingBlock: MIFKUJ_clean_sbu_0, # of connection points: 6
#     Node 3, Type 0, BuildingBlock: MIFKUJ_clean_sbu_0, # of connection points: 6
#     Node 4, Type 0, BuildingBlock: MIFKUJ_clean_sbu_0, # of connection points: 6
#     Node 5, Type 0, BuildingBlock: MIFKUJ_clean_sbu_0, # of connection points: 6
#     Edge 6, Type (0, 0), BuildingBlock: UVAHIK_clean_linker_0, # of connection points: 2
#     Edge 7, Type (0, 0), BuildingBlock: UVAHIK_clean_linker_0, # of connection points: 2
#     Edge 8, Type (0, 0), BuildingBlock: UVAHIK_clean_linker_0, # of connection points: 2
#     Edge 9, Type (0, 0), BuildingBlock: UVAHIK_clean_linker_0, # of connection points: 2
#     Edge 10, Type (0, 0), BuildingBlock: UVAHIK_clean_linker_0, # of connection points: 2
#     Edge 11, Type (0, 0), BuildingBlock: UVAHIK_clean_linker_0, # of connection points: 2
#     Edge 12, Type (0, 0), BuildingBlock: UVAHIK_clean_linker_0, # of connection points: 2
#     Edge 13, Type (0, 0), BuildingBlock: UVAHIK_clean_linker_0, # of connection points: 2
#     Edge 14, Type (0, 0), BuildingBlock: UVAHIK_clean_linker_0, # of connection points: 2
#     Edge 15, Type (0, 0), BuildingBlock: UVAHIK_clean_linker_0, # of connection points: 2
#     Edge 16, Type (0, 0), BuildingBlock: UVAHIK_clean_linker_0, # of connection points: 2
#     Edge 17, Type (0, 0), BuildingBlock: UVAHIK_clean_linker_0, # of connection points: 2
#     Edge 18, Type (0, 0), BuildingBlock: UVAHIK_clean_linker_0, # of connection points: 2
#     Edge 19, Type (0, 0), BuildingBlock: UVAHIK_clean_linker_0, # of connection points: 2
#     Edge 20, Type (0, 0), BuildingBlock: UVAHIK_clean_linker_0, # of connection points: 2
#     Edge 21, Type (0, 0), BuildingBlock: UVAHIK_clean_linker_0, # of connection points: 2
#     Edge 22, Type (0, 0), BuildingBlock: UVAHIK_clean_linker_0, # of connection points: 2
#     Edge 23, Type (0, 0), BuildingBlock: UVAHIK_clean_linker_0, # of connection points: 2
# Relax obj value: 0.139
# Max RMSD: 0.175
# Mean RMSD: 0.175
data_MOF--net-sml--node1-MIFKUJ_clean_sbu_0--edge1-UVAHIK_clean_linker_0
_symmetry_space_group_name_H-M    P1
_symmetry_Int_Tables_number       1
_symmetry_cell_setting            triclinic
loop_
_symmetry_equiv_pos_as_xyz
'x, y, z'
_cell_length_a     49.412938
_cell_length_b     49.38856
_cell_length_c     22.583064
_cell_angle_alpha  90.063256
_cell_angle_beta   89.923035
_cell_angle_gamma 119.97085
loop_
_atom_site_label
_atom_site_type_symbol
_atom_site_fract_x
_atom_site_fract_y
_atom_site_fract_z
_atom_type_partial_charge
Zn0 Zn 0.21303 0.42186 0.06296 0.0
Zn1 Zn 0.19649 0.41856 0.93381 0.0
C2 C 0.21895 0.47975 0.0922 0.0
O3 O 0.24697 0.48434 0.10393 0.0
C4 C 0.20054 0.36575 0.89756 0.0
O5 O 0.17553 0.36109 0.86859 0.0
O6 O 0.22237 0.41682 0.14783 0.0
O7 O 0.17607 0.37978 0.03956 0.0
O8 O 0.15644 0.40046 0.97979 0.0
C9 C 0.19838 0.40684 0.18089 0.0
O10 O 0.17145 0.39951 0.15649 0.0
O11 O 0.19851 0.45351 0.07117 0.0
C12 C 0.2135 0.433 0.81568 0.0
O13 O 0.24032 0.44153 0.84187 0.0
O14 O 0.18897 0.4226 0.84733 0.0
O15 O 0.23004 0.46114 0.95795 0.0
O16 O 0.25323 0.44251 0.01364 0.0
O17 O 0.21349 0.38868 0.93331 0.0
C18 C 0.15241 0.38 0.01813 0.0
C19 C 0.25501 0.46339 0.97823 0.0
Zn20 Zn 0.79301 0.21341 0.39541 0.0
Zn21 Zn 0.78301 0.1971 0.26668 0.0
C22 C 0.74348 0.22302 0.42386 0.0
O23 O 0.7682 0.25048 0.43385 0.0
C24 C 0.84374 0.20146 0.25835 0.0
O25 O 0.82717 0.17202 0.24229 0.0
O26 O 0.80825 0.22347 0.47954 0.0
O27 O 0.79675 0.17514 0.37533 0.0
O28 O 0.759 0.15653 0.31004 0.0
C29 C 0.79346 0.19978 0.51299 0.0
O30 O 0.77243 0.17321 0.48923 0.0
O31 O 0.74735 0.20099 0.40441 0.0
C32 C 0.79247 0.21444 0.14838 0.0
O33 O 0.81052 0.24099 0.1757 0.0
O34 O 0.77616 0.19 0.17917 0.0
O35 O 0.77214 0.22986 0.28638 0.0
O36 O 0.81301 0.25308 0.34465 0.0
O37 O 0.82974 0.21588 0.27485 0.0
C38 C 0.77359 0.15187 0.35122 0.0
C39 C 0.79411 0.25478 0.30858 0.0
Zn40 Zn 0.57878 0.79237 0.73856 0.0
Zn41 Zn 0.58441 0.78261 0.6092 0.0
C42 C 0.52091 0.73998 0.7665 0.0
O43 O 0.51586 0.76321 0.77761 0.0
C44 C 0.63984 0.84373 0.59971 0.0
O45 O 0.65322 0.82732 0.58586 0.0
O46 O 0.58357 0.80741 0.82273 0.0
O47 O 0.62135 0.79813 0.71724 0.0
O48 O 0.60258 0.76003 0.65248 0.0
C49 C 0.59347 0.79367 0.85658 0.0
O50 O 0.60019 0.77331 0.83339 0.0
O51 O 0.54749 0.74608 0.74673 0.0
C52 C 0.57539 0.79117 0.49118 0.0
O53 O 0.56598 0.8084 0.51893 0.0
O54 O 0.58439 0.77546 0.52163 0.0
O55 O 0.54055 0.77055 0.63011 0.0
O56 O 0.55765 0.81121 0.68898 0.0
O57 O 0.61138 0.82957 0.61581 0.0
C58 C 0.622 0.77522 0.69313 0.0
C59 C 0.53709 0.79207 0.65315 0.0
Zn60 Zn 0.79247 0.58018 0.06505 0.0
Zn61 Zn 0.81051 0.59352 0.93548 0.0
C62 C 0.78314 0.52088 0.08983 0.0
O63 O 0.75535 0.5177 0.09799 0.0
C64 C 0.80248 0.6476 0.93639 0.0
O65 O 0.83244 0.66239 0.92372 0.0
O66 O 0.78009 0.58279 0.14876 0.0
O67 O 0.83087 0.62306 0.05262 0.0
O68 O 0.85184 0.61291 0.97613 0.0
C69 C 0.80282 0.58928 0.18341 0.0
O70 O 0.82907 0.59327 0.16077 0.0
O71 O 0.80523 0.54709 0.07192 0.0
C72 C 0.79192 0.58731 0.81835 0.0
O73 O 0.76563 0.57826 0.84707 0.0
O74 O 0.81678 0.5955 0.84773 0.0
O75 O 0.78073 0.54847 0.95207 0.0
O76 O 0.75422 0.56186 0.0111 0.0
O77 O 0.7889 0.61858 0.94819 0.0
C78 C 0.85491 0.62825 0.02312 0.0
C79 C 0.75467 0.54317 0.9728 0.0
Zn80 Zn 0.21044 0.78701 0.39644 0.0
Zn81 Zn 0.22549 0.80478 0.2674 0.0
C82 C 0.25916 0.77761 0.43069 0.0
O83 O 0.23414 0.75036 0.44054 0.0
C84 C 0.16966 0.80326 0.23336 0.0
O85 O 0.19052 0.82825 0.20494 0.0
O86 O 0.19457 0.77759 0.48077 0.0
O87 O 0.20747 0.82516 0.37275 0.0
O88 O 0.24827 0.84455 0.31404 0.0
C89 C 0.20886 0.80147 0.51405 0.0
O90 O 0.22931 0.8282 0.48999 0.0
O91 O 0.25584 0.79933 0.408 0.0
C92 C 0.22186 0.78762 0.14896 0.0
O93 O 0.20319 0.76098 0.1754 0.0
O94 O 0.23673 0.8121 0.18051 0.0
O95 O 0.23323 0.77036 0.29142 0.0
O96 O 0.19073 0.74735 0.34557 0.0
O97 O 0.17898 0.78919 0.26772 0.0
C98 C 0.23188 0.84869 0.35239 0.0
C99 C 0.20998 0.74544 0.31066 0.0
Zn100 Zn 0.42929 0.21444 0.73068 0.0
Zn101 Zn 0.41264 0.2161 0.59903 0.0
C102 C 0.49037 0.26374 0.75062 0.0
O103 O 0.49377 0.23914 0.75659 0.0
C104 C 0.35867 0.15449 0.60394 0.0
O105 O 0.3442 0.16978 0.58966 0.0
O106 O 0.42657 0.1987 0.81377 0.0
O107 O 0.38743 0.21261 0.72118 0.0
O108 O 0.39384 0.23896 0.63883 0.0
C109 C 0.42177 0.21553 0.8502 0.0
O110 O 0.42009 0.23956 0.82984 0.0
O111 O 0.46369 0.25971 0.73658 0.0
C112 C 0.41626 0.20049 0.4825 0.0
O113 O 0.42564 0.18378 0.51209 0.0
O114 O 0.40903 0.21822 0.51097 0.0
O115 O 0.458 0.23158 0.61331 0.0
O116 O 0.44539 0.19298 0.67516 0.0
O117 O 0.38769 0.16981 0.61556 0.0
C118 C 0.38073 0.22947 0.68879 0.0
C119 C 0.46345 0.21112 0.6351 0.0
C120 C 0.34509 0.25145 0.67301 0.0
C121 C 0.35881 0.23933 0.7114 0.0
C122 C 0.32574 0.26225 0.69537 0.0
C123 C 0.31485 0.29982 0.82106 0.0
H124 H 0.22868 0.26527 0.7721 0.0
C125 C 0.2378 0.34637 0.91942 0.0
C126 C 0.21582 0.3475 0.88176 0.0
C127 C 0.25351 0.33063 0.90193 0.0
C128 C 0.25284 0.27564 0.78566 0.0
H129 H 0.36252 0.22863 0.80326 0.0
H130 H 0.32979 0.24867 0.84216 0.0
H131 H 0.25968 0.24347 0.73251 0.0
H132 H 0.19318 0.33326 0.79615 0.0
H133 H 0.22137 0.30738 0.76454 0.0
H134 H 0.309 0.33307 0.87167 0.0
C135 C 0.33378 0.24941 0.79485 0.0
C136 C 0.27046 0.26292 0.76317 0.0
C137 C 0.35246 0.23792 0.77244 0.0
C138 C 0.20969 0.33245 0.82658 0.0
C139 C 0.22582 0.31736 0.80857 0.0
C140 C 0.29751 0.31306 0.84252 0.0
C141 C 0.32039 0.26176 0.75655 0.0
C142 C 0.30158 0.27493 0.78067 0.0
C143 C 0.2481 0.31629 0.84578 0.0
C144 C 0.26623 0.30125 0.82501 0.0
H145 H 0.34942 0.25273 0.62578 0.0
H146 H 0.31563 0.27175 0.66509 0.0
H147 H 0.33894 0.30954 0.83486 0.0
H148 H 0.2429 0.35768 0.96233 0.0
H149 H 0.26995 0.32984 0.9325 0.0
C150 C 0.09789 0.36781 0.04048 0.0
C151 C 0.12106 0.35928 0.0434 0.0
C152 C 0.06919 0.3498 0.06889 0.0
C153 C 0.01315 0.2723 0.11752 0.0
H154 H 0.98701 0.31314 0.23227 0.0
C155 C 0.8946 0.20347 0.23776 0.0
C156 C 0.87779 0.21911 0.24709 0.0
C157 C 0.92593 0.21998 0.21999 0.0
C158 C 0.99364 0.30136 0.19982 0.0
H159 H 0.13205 0.32477 0.07697 0.0
H160 H 0.08118 0.29257 0.12482 0.0
H161 H 0.03765 0.34278 0.18374 0.0
H162 H 0.88082 0.26446 0.24628 0.0
H163 H 0.93464 0.29295 0.21318 0.0
H164 H 0.96871 0.23136 0.13061 0.0
C165 C 0.08559 0.31347 0.10122 0.0
C166 C 0.02277 0.31837 0.17237 0.0
C167 C 0.11461 0.33187 0.07391 0.0
C168 C 0.89319 0.25171 0.24004 0.0
C169 C 0.92426 0.26812 0.22123 0.0
C170 C 0.9837 0.2554 0.14401 0.0
C171 C 0.06285 0.32258 0.09968 0.0
C172 C 0.03265 0.30406 0.13065 0.0
C173 C 0.941 0.25247 0.21004 0.0
C174 C 0.97335 0.26978 0.18516 0.0
H175 H 0.10225 0.38891 0.01773 0.0
H176 H 0.05189 0.35715 0.06683 0.0
H177 H 0.02027 0.26084 0.08521 0.0
H178 H 0.88339 0.17836 0.24321 0.0
H179 H 0.93814 0.20713 0.21329 0.0
C180 C 0.78132 0.11321 0.41001 0.0
C181 C 0.76201 0.12006 0.37508 0.0
C182 C 0.76965 0.08361 0.43547 0.0
C183 C 0.70135 0.00208 0.42882 0.0
H184 H 0.73161 0.99479 0.58305 0.0
C185 C 0.63779 0.89182 0.57361 0.0
C186 C 0.65562 0.87746 0.58557 0.0
C187 C 0.65202 0.92224 0.55129 0.0
C188 C 0.72309 0.99659 0.5399 0.0
H189 H 0.71524 0.10141 0.33994 0.0
H190 H 0.69451 0.0505 0.38609 0.0
H191 H 0.75384 0.04601 0.53577 0.0
H192 H 0.7025 0.88429 0.58664 0.0
H193 H 0.72755 0.93814 0.54947 0.0
H194 H 0.66967 0.95274 0.43464 0.0
C195 C 0.719 0.06736 0.39231 0.0
C196 C 0.73594 0.02586 0.51243 0.0
C197 C 0.73084 0.09671 0.36595 0.0
C198 C 0.68819 0.89477 0.5778 0.0
C199 C 0.70252 0.92551 0.55664 0.0
C200 C 0.6881 0.97304 0.45687 0.0
C201 C 0.73819 0.06033 0.42755 0.0
C202 C 0.72519 0.02905 0.45647 0.0
C203 C 0.6844 0.93913 0.54174 0.0
C204 C 0.6988 0.97006 0.51262 0.0
H205 H 0.8055 0.13075 0.4177 0.0
H206 H 0.7854 0.07904 0.46122 0.0
H207 H 0.69293 0.00323 0.38521 0.0
H208 H 0.61263 0.87907 0.57876 0.0
H209 H 0.63764 0.93239 0.54032 0.0
C210 C 0.6688 0.78415 0.75181 0.0
C211 C 0.64286 0.76439 0.71677 0.0
C212 C 0.68728 0.77312 0.77722 0.0
C213 C 0.70276 0.70632 0.76984 0.0
H214 H 0.73912 0.73635 0.92503 0.0
C215 C 0.75157 0.64417 0.91196 0.0
C216 C 0.78363 0.66266 0.92449 0.0
C217 C 0.73469 0.65786 0.89073 0.0
C218 C 0.72912 0.7279 0.88162 0.0
H219 H 0.61574 0.71751 0.6813 0.0
H220 H 0.64689 0.6979 0.72728 0.0
H221 H 0.70928 0.75767 0.87778 0.0
H222 H 0.8226 0.71013 0.92816 0.0
H223 H 0.79256 0.73418 0.89278 0.0
H224 H 0.7216 0.67563 0.77521 0.0
C225 C 0.6539 0.72225 0.73368 0.0
C226 C 0.71224 0.74023 0.85419 0.0
C227 C 0.63584 0.73346 0.70741 0.0
C228 C 0.79795 0.69531 0.91881 0.0
C229 C 0.78083 0.70907 0.89867 0.0
C230 C 0.71903 0.69359 0.7978 0.0
C231 C 0.67988 0.74188 0.76907 0.0
C232 C 0.69871 0.72953 0.7979 0.0
C233 C 0.74932 0.69033 0.88282 0.0
C234 C 0.73225 0.70419 0.85391 0.0
H235 H 0.67482 0.80816 0.75968 0.0
H236 H 0.70738 0.78917 0.80315 0.0
H237 H 0.69352 0.69799 0.72597 0.0
H238 H 0.73984 0.61894 0.9156 0.0
H239 H 0.71033 0.64301 0.87907 0.0
C240 C 0.11293 0.76701 0.25565 0.0
C241 C 0.13619 0.78931 0.21857 0.0
C242 C 0.08148 0.75231 0.23878 0.0
C243 C 0.02745 0.75628 0.12657 0.0
H244 H 0.97517 0.66878 0.1672 0.0
C245 C 0.91297 0.661 0.00975 0.0
C246 C 0.8864 0.65078 0.04583 0.0
C247 C 0.94285 0.68041 0.03284 0.0
C248 C 0.98958 0.69327 0.1559 0.0
H249 H 0.14482 0.81377 0.13487 0.0
H250 H 0.09061 0.78735 0.1043 0.0
H251 H 0.02848 0.69772 0.20499 0.0
H252 H 0.87041 0.65364 0.13404 0.0
H253 H 0.92278 0.6866 0.17458 0.0
H254 H 0.9886 0.75084 0.07473 0.0
C255 C 0.09613 0.78184 0.1474 0.0
C256 C 0.02003 0.71001 0.17791 0.0
C257 C 0.1274 0.79694 0.1648 0.0
C258 C 0.89034 0.66094 0.10509 0.0
C259 C 0.92023 0.67978 0.1284 0.0
C260 C 0.99719 0.73931 0.10363 0.0
C261 C 0.07268 0.75911 0.18387 0.0
C262 C 0.03953 0.74175 0.16328 0.0
C263 C 0.94663 0.68943 0.09253 0.0
C264 C 0.97816 0.7077 0.11802 0.0
H265 H 0.11905 0.7608 0.29752 0.0
H266 H 0.06414 0.73547 0.26875 0.0
H267 H 0.04135 0.78079 0.11526 0.0
H268 H 0.91071 0.65371 0.96391 0.0
H269 H 0.96306 0.68767 0.00459 0.0
C270 C 0.36133 0.10615 0.58336 0.0
C271 C 0.34325 0.12038 0.59377 0.0
C272 C 0.34735 0.07523 0.56376 0.0
C273 C 0.27509 0.01528 0.48862 0.0
H274 H 0.31149 0.9629 0.51848 0.0
C275 C 0.22192 0.88627 0.4098 0.0
C276 C 0.24276 0.8799 0.37858 0.0
C277 C 0.23268 0.91497 0.43844 0.0
C278 C 0.30117 0.97737 0.50975 0.0
H279 H 0.2961 0.11273 0.59564 0.0
H280 H 0.27142 0.05825 0.5643 0.0
H281 H 0.3319 0.01272 0.57009 0.0
H282 H 0.29117 0.89861 0.35281 0.0
H283 H 0.31002 0.94853 0.40398 0.0
H284 H 0.24384 0.97921 0.42929 0.0
C285 C 0.29658 0.0713 0.56893 0.0
C286 C 0.31291 0.006 0.53906 0.0
C287 C 0.31067 0.10245 0.58756 0.0
C288 C 0.27452 0.90292 0.37613 0.0
C289 C 0.28535 0.93135 0.40576 0.0
C290 C 0.26298 0.98635 0.46021 0.0
C291 C 0.31482 0.05752 0.55504 0.0
C292 C 0.30042 0.02566 0.52815 0.0
C293 C 0.26456 0.93755 0.4374 0.0
C294 C 0.27626 0.96741 0.46977 0.0
H295 H 0.38655 0.11939 0.58722 0.0
H296 H 0.36235 0.06581 0.55283 0.0
H297 H 0.26515 0.02986 0.47801 0.0
H298 H 0.19733 0.86895 0.41254 0.0
H299 H 0.21622 0.91922 0.46267 0.0
C300 C 0.183 0.41827 0.7208 0.0
C301 C 0.21188 0.4325 0.75029 0.0
C302 C 0.18179 0.41562 0.65906 0.0
C303 C 0.22834 0.41496 0.5315 0.0
H304 H 0.16947 0.42783 0.43981 0.0
C305 C 0.22987 0.42061 0.27467 0.0
C306 C 0.20073 0.40647 0.24611 0.0
C307 C 0.2316 0.42293 0.33651 0.0
C308 C 0.18581 0.4238 0.46486 0.0
H309 H 0.26216 0.45603 0.73804 0.0
H310 H 0.26001 0.45181 0.63064 0.0
H311 H 0.17155 0.43453 0.54693 0.0
H312 H 0.15055 0.38236 0.26006 0.0
H313 H 0.15361 0.38604 0.36739 0.0
H314 H 0.24261 0.40428 0.44928 0.0
C315 C 0.23829 0.44213 0.65515 0.0
C316 C 0.187 0.42766 0.52624 0.0
C317 C 0.23949 0.44475 0.71673 0.0
C318 C 0.1734 0.39368 0.28062 0.0
C319 C 0.17513 0.39596 0.34218 0.0
C320 C 0.22717 0.41112 0.47005 0.0
C321 C 0.20943 0.42719 0.62562 0.0
C322 C 0.20825 0.42325 0.56029 0.0
C323 C 0.20422 0.41114 0.37082 0.0
C324 C 0.2058 0.41539 0.43607 0.0
H325 H 0.16131 0.40847 0.74544 0.0
H326 H 0.15917 0.40375 0.63765 0.0
H327 H 0.24467 0.41093 0.55657 0.0
H328 H 0.25134 0.43076 0.24927 0.0
H329 H 0.25439 0.43489 0.35729 0.0
C330 C 0.81041 0.2406 0.05013 0.0
C331 C 0.79252 0.21313 0.08303 0.0
C332 C 0.81146 0.23953 0.98848 0.0
C333 C 0.76882 0.19088 0.86004 0.0
H334 H 0.84777 0.24055 0.77847 0.0
C335 C 0.78174 0.17488 0.61257 0.0
C336 C 0.79741 0.20205 0.57794 0.0
C337 C 0.78273 0.17671 0.67414 0.0
C338 C 0.82553 0.2268 0.80063 0.0
H339 H 0.76163 0.16299 0.07706 0.0
H340 H 0.76367 0.16108 0.96925 0.0
H341 H 0.8458 0.2425 0.88639 0.0
H342 H 0.82735 0.25241 0.58072 0.0
H343 H 0.82901 0.25564 0.68897 0.0
H344 H 0.74855 0.17512 0.77446 0.0
C345 C 0.77659 0.18351 0.99118 0.0
C346 C 0.82437 0.22791 0.86238 0.0
C347 C 0.77551 0.18457 0.05294 0.0
C348 C 0.81506 0.23107 0.60626 0.0
C349 C 0.81606 0.2329 0.66816 0.0
C350 C 0.77 0.18973 0.79843 0.0
C351 C 0.79468 0.21098 0.9583 0.0
C352 C 0.796 0.20989 0.89275 0.0
C353 C 0.79939 0.20576 0.70264 0.0
C354 C 0.79837 0.20756 0.76807 0.0
H355 H 0.82372 0.26301 0.07194 0.0
H356 H 0.82522 0.26116 0.96441 0.0
H357 H 0.74651 0.17718 0.882 0.0
H358 H 0.76818 0.1521 0.59217 0.0
H359 H 0.7702 0.15533 0.6995 0.0
C360 C 0.56705 0.80947 0.39349 0.0
C361 C 0.57717 0.79186 0.42583 0.0
C362 C 0.56987 0.81148 0.33197 0.0
C363 C 0.61373 0.80286 0.20868 0.0
H364 H 0.54573 0.79648 0.11271 0.0
C365 C 0.6072 0.78334 0.95694 0.0
C366 C 0.59527 0.79829 0.9214 0.0
C367 C 0.60687 0.78539 0.01847 0.0
C368 C 0.56513 0.79883 0.13891 0.0
H369 H 0.5979 0.76227 0.41891 0.0
H370 H 0.60256 0.76556 0.31109 0.0
H371 H 0.54059 0.79321 0.22021 0.0
H372 H 0.57448 0.82794 0.92246 0.0
H373 H 0.57414 0.83176 0.03044 0.0
H374 H 0.63819 0.80825 0.12738 0.0
C375 C 0.59278 0.7781 0.33358 0.0
C376 C 0.56214 0.79685 0.20049 0.0
C377 C 0.5899 0.77603 0.39524 0.0
C378 C 0.58378 0.81611 0.94869 0.0
C379 C 0.5834 0.81812 0.01047 0.0
C380 C 0.61674 0.80488 0.14712 0.0
C381 C 0.58291 0.79597 0.30134 0.0
C382 C 0.5863 0.79858 0.236 0.0
C383 C 0.59461 0.80245 0.046 0.0
C384 C 0.59236 0.8026 0.11152 0.0
H385 H 0.55722 0.82204 0.4157 0.0
H386 H 0.56237 0.8257 0.30848 0.0
H387 H 0.63298 0.80486 0.23492 0.0
H388 H 0.61627 0.76945 0.93735 0.0
H389 H 0.61532 0.77273 0.04448 0.0
C390 C 0.76457 0.57935 0.72159 0.0
C391 C 0.79226 0.58802 0.75305 0.0
C392 C 0.76461 0.57978 0.65983 0.0
C393 C 0.80888 0.57691 0.53171 0.0
H394 H 0.76391 0.60993 0.44514 0.0
C395 C 0.82671 0.60079 0.28359 0.0
C396 C 0.80007 0.59101 0.24815 0.0
C397 C 0.82449 0.6007 0.34499 0.0
C398 C 0.77625 0.60031 0.46878 0.0
H399 H 0.84178 0.60428 0.74452 0.0
H400 H 0.84188 0.6052 0.63652 0.0
H401 H 0.76287 0.60945 0.55342 0.0
H402 H 0.75031 0.57432 0.24917 0.0
H403 H 0.74637 0.57403 0.35743 0.0
H404 H 0.82236 0.56784 0.44741 0.0
C405 C 0.82007 0.59771 0.65971 0.0
C406 C 0.77569 0.60006 0.53066 0.0
C407 C 0.82005 0.59732 0.72152 0.0
C408 C 0.77122 0.58197 0.27543 0.0
C409 C 0.76898 0.58187 0.33725 0.0
C410 C 0.80944 0.57717 0.47004 0.0
C411 C 0.79233 0.58883 0.62826 0.0
C412 C 0.79226 0.58861 0.5627 0.0
C413 C 0.79557 0.59077 0.37254 0.0
C414 C 0.79343 0.58918 0.43794 0.0
H415 H 0.74275 0.57206 0.7446 0.0
H416 H 0.74282 0.5725 0.6368 0.0
H417 H 0.82131 0.56732 0.55515 0.0
H418 H 0.84939 0.60826 0.26398 0.0
H419 H 0.84549 0.60834 0.37098 0.0
C420 C 0.2202 0.82656 0.61362 0.0
C421 C 0.20575 0.79917 0.57927 0.0
C422 C 0.2208 0.82494 0.6752 0.0
C423 C 0.18453 0.77316 0.80384 0.0
H424 H 0.26381 0.82909 0.87907 0.0
C425 C 0.2069 0.76145 0.0502 0.0
C426 C 0.22265 0.78914 0.08351 0.0
C427 C 0.20515 0.76254 0.98866 0.0
C428 C 0.24142 0.81357 0.85888 0.0
H429 H 0.17953 0.74854 0.58276 0.0
H430 H 0.18065 0.74568 0.69087 0.0
H431 H 0.25869 0.83089 0.77208 0.0
H432 H 0.24946 0.83969 0.07815 0.0
H433 H 0.24626 0.84163 0.97042 0.0
H434 H 0.16726 0.75587 0.89074 0.0
C435 C 0.1914 0.76844 0.66992 0.0
C436 C 0.23846 0.81459 0.79754 0.0
C437 C 0.19077 0.77006 0.60804 0.0
C438 C 0.23729 0.81795 0.05373 0.0
C439 C 0.23549 0.81904 0.992 0.0
C440 C 0.18748 0.77216 0.86526 0.0
C441 C 0.20701 0.79589 0.70406 0.0
C442 C 0.20996 0.79447 0.76931 0.0
C443 C 0.21906 0.79133 0.95883 0.0
C444 C 0.21597 0.79237 0.89351 0.0
H445 H 0.2317 0.84939 0.59291 0.0
H446 H 0.23239 0.84652 0.70023 0.0
H447 H 0.16218 0.75761 0.78352 0.0
H448 H 0.19552 0.73883 0.07171 0.0
H449 H 0.19285 0.74075 0.96441 0.0
C450 C 0.42107 0.1776 0.38716 0.0
C451 C 0.414 0.19822 0.41732 0.0
C452 C 0.41925 0.17542 0.32555 0.0
C453 C 0.385 0.19275 0.19606 0.0
H454 H 0.45277 0.19228 0.10996 0.0
C455 C 0.40897 0.22575 0.9513 0.0
C456 C 0.41794 0.20873 0.91423 0.0
C457 C 0.40584 0.22033 0.01204 0.0
C458 C 0.43341 0.19183 0.13338 0.0
H459 H 0.39922 0.23254 0.40662 0.0
H460 H 0.39642 0.22903 0.29882 0.0
H461 H 0.45248 0.19113 0.21796 0.0
H462 H 0.43033 0.17237 0.91165 0.0
H463 H 0.42492 0.1629 0.01872 0.0
H464 H 0.3663 0.19415 0.11149 0.0
C465 C 0.40298 0.21425 0.32295 0.0
C466 C 0.43325 0.19123 0.19521 0.0
C467 C 0.4048 0.21643 0.38464 0.0
C468 C 0.42342 0.18586 0.93919 0.0
C469 C 0.42044 0.18053 0.00035 0.0
C470 C 0.38518 0.19337 0.1343 0.0
C471 C 0.41031 0.1938 0.29275 0.0
C472 C 0.40933 0.19223 0.22719 0.0
C473 C 0.41166 0.1978 0.03731 0.0
C474 C 0.40968 0.19352 0.10237 0.0
H475 H 0.42806 0.16309 0.41107 0.0
H476 H 0.42466 0.15918 0.30361 0.0
H477 H 0.36592 0.19289 0.21945 0.0
H478 H 0.40451 0.24352 0.93353 0.0
H479 H 0.39954 0.23437 0.03943 0.0
C480 C 0.18093 0.49748 0.11963 0.0
C481 C 0.21155 0.50459 0.10583 0.0
C482 C 0.17496 0.52116 0.13783 0.0
C483 C 0.20672 0.60588 0.13094 0.0
H484 H 0.16861 0.59898 0.28463 0.0
C485 C 0.22987 0.7144 0.2588 0.0
C486 C 0.2055 0.71504 0.28972 0.0
C487 C 0.22577 0.68671 0.23442 0.0
C488 C 0.17874 0.60106 0.24115 0.0
H489 H 0.25963 0.54194 0.09822 0.0
H490 H 0.24911 0.58316 0.12833 0.0
H491 H 0.1693 0.55361 0.24206 0.0
H492 H 0.15785 0.68674 0.32072 0.0
H493 H 0.15054 0.63785 0.27745 0.0
H494 H 0.21666 0.65321 0.12987 0.0
C495 C 0.22978 0.55939 0.12565 0.0
C496 C 0.17913 0.57511 0.21683 0.0
C497 C 0.23582 0.53577 0.10867 0.0
C498 C 0.17706 0.68697 0.29716 0.0
C499 C 0.1729 0.65903 0.2724 0.0
C500 C 0.20611 0.63161 0.15486 0.0
C501 C 0.1994 0.55232 0.1411 0.0
C502 C 0.19405 0.57767 0.16239 0.0
C503 C 0.1971 0.65878 0.23982 0.0
C504 C 0.19316 0.62988 0.2112 0.0
H505 H 0.16184 0.47355 0.11817 0.0
H506 H 0.15133 0.51516 0.14945 0.0
H507 H 0.21793 0.60831 0.08846 0.0
H508 H 0.25225 0.73546 0.25282 0.0
H509 H 0.24522 0.68724 0.21118 0.0
C510 C 0.6876 0.18854 0.45503 0.0
C511 C 0.71223 0.2181 0.43866 0.0
C512 C 0.65941 0.18525 0.4762 0.0
C513 C 0.62877 0.23335 0.54332 0.0
H514 H 0.54731 0.1617 0.51077 0.0
C515 C 0.51509 0.23479 0.58413 0.0
C516 C 0.4911 0.20948 0.61504 0.0
C517 C 0.54132 0.23372 0.56464 0.0
C518 C 0.56997 0.18167 0.52065 0.0
H519 H 0.72604 0.26691 0.42763 0.0
H520 H 0.67684 0.26107 0.46207 0.0
H521 H 0.59421 0.1637 0.46975 0.0
H522 H 0.47561 0.16296 0.64907 0.0
H523 H 0.52163 0.16092 0.61383 0.0
H524 H 0.60453 0.25171 0.59266 0.0
C525 C 0.67947 0.24058 0.46111 0.0
C526 C 0.59684 0.18283 0.49726 0.0
C527 C 0.70763 0.24391 0.44086 0.0
C528 C 0.49381 0.18287 0.6256 0.0
C529 C 0.51998 0.18161 0.60518 0.0
C530 C 0.60202 0.23233 0.566 0.0
C531 C 0.65529 0.21142 0.48074 0.0
C532 C 0.62656 0.20896 0.50756 0.0
C533 C 0.54407 0.20717 0.57491 0.0
C534 C 0.57234 0.20671 0.55429 0.0
H535 H 0.6906 0.16827 0.45394 0.0
H536 H 0.64135 0.16245 0.49105 0.0
H537 H 0.65125 0.25341 0.55381 0.0
H538 H 0.51375 0.25565 0.57531 0.0
H539 H 0.5594 0.25363 0.54094 0.0
C540 C 0.31365 0.48991 0.96678 0.0
C541 C 0.28535 0.48966 0.958 0.0
C542 C 0.3416 0.51398 0.94276 0.0
C543 C 0.36926 0.57458 0.82521 0.0
H544 H 0.44636 0.61642 0.91488 0.0
C545 C 0.46481 0.70037 0.77993 0.0
C546 C 0.49613 0.70763 0.77925 0.0
C547 C 0.44118 0.67064 0.79629 0.0
C548 C 0.42512 0.60458 0.88896 0.0
H549 H 0.26449 0.51519 0.91942 0.0
H550 H 0.31272 0.55692 0.87905 0.0
H551 H 0.40095 0.57015 0.95638 0.0
H552 H 0.52737 0.68943 0.79458 0.0
H553 H 0.48571 0.63719 0.82471 0.0
H554 H 0.39287 0.60972 0.75909 0.0
C555 C 0.31345 0.53825 0.90279 0.0
C556 C 0.39914 0.57811 0.91268 0.0
C557 C 0.28575 0.51436 0.92645 0.0
C558 C 0.50335 0.68435 0.79441 0.0
C559 C 0.47963 0.65462 0.81196 0.0
C560 C 0.39502 0.60105 0.80186 0.0
C561 C 0.34164 0.53813 0.90958 0.0
C562 C 0.37061 0.56342 0.8818 0.0
C563 C 0.44833 0.64757 0.81324 0.0
C564 C 0.42293 0.61683 0.83416 0.0
H565 H 0.31408 0.47117 0.99085 0.0
H566 H 0.36296 0.51327 0.94887 0.0
H567 H 0.34792 0.56332 0.7995 0.0
H568 H 0.45856 0.71783 0.76831 0.0
H569 H 0.41729 0.66596 0.79738 0.0
C570 C 0.82513 0.31332 0.29783 0.0
C571 C 0.79671 0.28503 0.29289 0.0
C572 C 0.82729 0.34144 0.27925 0.0
C573 C 0.77905 0.37756 0.2525 0.0
H574 H 0.84206 0.43067 0.13839 0.0
C575 C 0.76294 0.46505 0.11534 0.0
C576 C 0.7886 0.49517 0.10722 0.0
C577 C 0.767 0.44126 0.13885 0.0
C578 C 0.8246 0.41634 0.17088 0.0
H579 H 0.74818 0.26406 0.26617 0.0
H580 H 0.75185 0.31283 0.23491 0.0
H581 H 0.84405 0.3863 0.18233 0.0
H582 H 0.83892 0.5237 0.115 0.0
H583 H 0.84607 0.48191 0.15694 0.0
H584 H 0.75936 0.40708 0.24126 0.0
C585 C 0.77248 0.31342 0.25275 0.0
C586 C 0.82579 0.39101 0.19605 0.0
C587 C 0.77045 0.28545 0.27036 0.0
C588 C 0.81871 0.50066 0.12068 0.0
C589 C 0.82279 0.47675 0.1447 0.0
C590 C 0.77796 0.40284 0.22775 0.0
C591 C 0.80091 0.34168 0.25663 0.0
C592 C 0.80252 0.37094 0.23594 0.0
C593 C 0.79682 0.44699 0.15541 0.0
C594 C 0.80018 0.42202 0.1854 0.0
H595 H 0.84577 0.31362 0.31478 0.0
H596 H 0.84946 0.36297 0.28282 0.0
H597 H 0.76113 0.36279 0.28393 0.0
H598 H 0.73948 0.45996 0.10462 0.0
H599 H 0.7466 0.41838 0.14484 0.0
C600 C 0.29362 0.75723 0.46371 0.0
C601 C 0.28997 0.78297 0.45039 0.0
C602 C 0.32138 0.76154 0.48814 0.0
C603 C 0.40473 0.81925 0.5133 0.0
H604 H 0.39573 0.75921 0.63351 0.0
C605 C 0.50929 0.82267 0.64098 0.0
C606 C 0.50913 0.79416 0.63807 0.0
C607 C 0.48312 0.82442 0.62246 0.0
C608 C 0.3986 0.77619 0.6001 0.0
H609 H 0.31293 0.83356 0.45044 0.0
H610 H 0.36163 0.84118 0.49421 0.0
H611 H 0.34935 0.75682 0.59103 0.0
H612 H 0.48132 0.74505 0.61534 0.0
H613 H 0.43572 0.74799 0.58439 0.0
H614 H 0.45424 0.83845 0.52282 0.0
C615 C 0.343 0.81762 0.48516 0.0
C616 C 0.37205 0.77472 0.57543 0.0
C617 C 0.31514 0.81328 0.46013 0.0
C618 C 0.48218 0.76737 0.61788 0.0
C619 C 0.456 0.76901 0.60045 0.0
C620 C 0.43141 0.82087 0.5385 0.0
C621 C 0.34616 0.79172 0.50057 0.0
C622 C 0.37472 0.79564 0.53051 0.0
C623 C 0.45625 0.79755 0.60204 0.0
C624 C 0.42851 0.79882 0.58104 0.0
H625 H 0.27481 0.73358 0.45599 0.0
H626 H 0.3233 0.74109 0.49774 0.0
H627 H 0.40762 0.83567 0.47875 0.0
H628 H 0.52985 0.8437 0.65609 0.0
H629 H 0.48382 0.84668 0.62423 0.0
C630 C 0.69616 0.51234 0.9619 0.0
C631 C 0.72566 0.51526 0.95269 0.0
C632 C 0.66911 0.48608 0.94065 0.0
C633 C 0.63906 0.40426 0.8989 0.0
H634 H 0.57895 0.41264 0.80189 0.0
C635 C 0.54709 0.29996 0.76772 0.0
C636 C 0.51654 0.29497 0.76616 0.0
C637 C 0.57162 0.32802 0.78911 0.0
C638 C 0.59529 0.40986 0.82954 0.0
H639 H 0.74989 0.49287 0.91464 0.0
H640 H 0.70293 0.44719 0.87864 0.0
H641 H 0.62298 0.45922 0.84564 0.0
H642 H 0.48782 0.31587 0.78368 0.0
H643 H 0.5307 0.36486 0.82242 0.0
H644 H 0.61163 0.35515 0.88381 0.0
C645 C 0.70063 0.4651 0.90206 0.0
C646 C 0.62046 0.43653 0.85456 0.0
C647 C 0.72754 0.49137 0.92247 0.0
C648 C 0.51119 0.31914 0.7842 0.0
C649 C 0.53577 0.34721 0.80632 0.0
C650 C 0.61388 0.37769 0.87446 0.0
C651 C 0.67115 0.46216 0.9108 0.0
C652 C 0.64287 0.43398 0.88859 0.0
C653 C 0.56616 0.35167 0.81031 0.0
C654 C 0.59199 0.38015 0.83848 0.0
H655 H 0.69403 0.53046 0.9848 0.0
H656 H 0.64662 0.48429 0.94813 0.0
H657 H 0.65571 0.40156 0.9258 0.0
H658 H 0.552 0.28192 0.75333 0.0
H659 H 0.59485 0.33097 0.78981 0.0
loop_
_geom_bond_atom_site_label_1
_geom_bond_atom_site_label_2
_geom_bond_distance
_geom_bond_site_symmetry_2
_ccdc_geom_bond_type
Zn0 O6 1.969 . S
Zn0 O7 1.965 . S
Zn0 O11 2.024 . S
Zn0 O16 1.969 . S
Zn1 O8 1.969 . S
Zn1 O14 1.969 . S
Zn1 O15 1.965 . S
Zn1 O17 2.024 . S
C2 O3 1.229 . S
C2 O11 1.058 . S
O3 C2 1.229 . S
C4 O5 1.229 . S
C4 O17 1.058 . S
O5 C4 1.229 . S
O6 Zn0 1.969 . S
O6 C9 1.267 . S
O7 Zn0 1.965 . S
O7 C18 1.260 . S
O8 Zn1 1.969 . S
O8 C18 1.258 1_556 S
C9 O6 1.267 . S
C9 O10 1.228 . S
O10 C9 1.228 . S
O11 Zn0 2.024 . S
O11 C2 1.058 . S
C12 O13 1.228 . S
C12 O14 1.267 . S
O13 C12 1.228 . S
O14 Zn1 1.969 . S
O14 C12 1.267 . S
O15 Zn1 1.965 . S
O15 C19 1.260 . S
O16 Zn0 1.969 . S
O16 C19 1.258 1_554 S
O17 Zn1 2.024 . S
O17 C4 1.058 . S
C18 O7 1.260 . S
C18 O8 1.258 1_554 S
C19 O15 1.260 . S
C19 O16 1.258 1_556 S
Zn20 O26 1.969 . S
Zn20 O27 1.965 . S
Zn20 O31 2.024 . S
Zn20 O36 1.969 . S
Zn21 O28 1.969 . S
Zn21 O34 1.969 . S
Zn21 O35 1.965 . S
Zn21 O37 2.024 . S
C22 O23 1.229 . S
C22 O31 1.058 . S
O23 C22 1.229 . S
C24 O25 1.229 . S
C24 O37 1.058 . S
O25 C24 1.229 . S
O26 Zn20 1.969 . S
O26 C29 1.267 . S
O27 Zn20 1.965 . S
O27 C38 1.260 . S
O28 Zn21 1.969 . S
O28 C38 1.258 . S
C29 O26 1.267 . S
C29 O30 1.228 . S
O30 C29 1.228 . S
O31 Zn20 2.024 . S
O31 C22 1.058 . S
C32 O33 1.228 . S
C32 O34 1.267 . S
O33 C32 1.228 . S
O34 Zn21 1.969 . S
O34 C32 1.267 . S
O35 Zn21 1.965 . S
O35 C39 1.260 . S
O36 Zn20 1.969 . S
O36 C39 1.258 . S
O37 Zn21 2.024 . S
O37 C24 1.058 . S
C38 O27 1.260 . S
C38 O28 1.258 . S
C39 O35 1.260 . S
C39 O36 1.258 . S
Zn40 O46 1.969 . S
Zn40 O47 1.965 . S
Zn40 O51 2.024 . S
Zn40 O56 1.969 . S
Zn41 O48 1.969 . S
Zn41 O54 1.969 . S
Zn41 O55 1.965 . S
Zn41 O57 2.024 . S
C42 O43 1.229 . S
C42 O51 1.058 . S
O43 C42 1.229 . S
C44 O45 1.229 . S
C44 O57 1.058 . S
O45 C44 1.229 . S
O46 Zn40 1.969 . S
O46 C49 1.267 . S
O47 Zn40 1.965 . S
O47 C58 1.260 . S
O48 Zn41 1.969 . S
O48 C58 1.258 . S
C49 O46 1.267 . S
C49 O50 1.228 . S
O50 C49 1.228 . S
O51 Zn40 2.024 . S
O51 C42 1.058 . S
C52 O53 1.228 . S
C52 O54 1.267 . S
O53 C52 1.228 . S
O54 Zn41 1.969 . S
O54 C52 1.267 . S
O55 Zn41 1.965 . S
O55 C59 1.260 . S
O56 Zn40 1.969 . S
O56 C59 1.258 . S
O57 Zn41 2.024 . S
O57 C44 1.058 . S
C58 O47 1.260 . S
C58 O48 1.258 . S
C59 O55 1.260 . S
C59 O56 1.258 . S
Zn60 O66 1.969 . S
Zn60 O67 1.965 . S
Zn60 O71 2.024 . S
Zn60 O76 1.969 . S
Zn61 O68 1.969 . S
Zn61 O74 1.969 . S
Zn61 O75 1.965 . S
Zn61 O77 2.024 . S
C62 O63 1.229 . S
C62 O71 1.058 . S
O63 C62 1.229 . S
C64 O65 1.229 . S
C64 O77 1.058 . S
O65 C64 1.229 . S
O66 Zn60 1.969 . S
O66 C69 1.267 . S
O67 Zn60 1.965 . S
O67 C78 1.260 . S
O68 Zn61 1.969 . S
O68 C78 1.258 1_556 S
C69 O66 1.267 . S
C69 O70 1.228 . S
O70 C69 1.228 . S
O71 Zn60 2.024 . S
O71 C62 1.058 . S
C72 O73 1.228 . S
C72 O74 1.267 . S
O73 C72 1.228 . S
O74 Zn61 1.969 . S
O74 C72 1.267 . S
O75 Zn61 1.965 . S
O75 C79 1.260 . S
O76 Zn60 1.969 . S
O76 C79 1.258 1_554 S
O77 Zn61 2.024 . S
O77 C64 1.058 . S
C78 O67 1.260 . S
C78 O68 1.258 1_554 S
C79 O75 1.260 . S
C79 O76 1.258 1_556 S
Zn80 O86 1.969 . S
Zn80 O87 1.965 . S
Zn80 O91 2.024 . S
Zn80 O96 1.969 . S
Zn81 O88 1.969 . S
Zn81 O94 1.969 . S
Zn81 O95 1.965 . S
Zn81 O97 2.024 . S
C82 O83 1.229 . S
C82 O91 1.058 . S
O83 C82 1.229 . S
C84 O85 1.229 . S
C84 O97 1.058 . S
O85 C84 1.229 . S
O86 Zn80 1.969 . S
O86 C89 1.267 . S
O87 Zn80 1.965 . S
O87 C98 1.260 . S
O88 Zn81 1.969 . S
O88 C98 1.258 . S
C89 O86 1.267 . S
C89 O90 1.228 . S
O90 C89 1.228 . S
O91 Zn80 2.024 . S
O91 C82 1.058 . S
C92 O93 1.228 . S
C92 O94 1.267 . S
O93 C92 1.228 . S
O94 Zn81 1.969 . S
O94 C92 1.267 . S
O95 Zn81 1.965 . S
O95 C99 1.260 . S
O96 Zn80 1.969 . S
O96 C99 1.258 . S
O97 Zn81 2.024 . S
O97 C84 1.058 . S
C98 O87 1.260 . S
C98 O88 1.258 . S
C99 O95 1.260 . S
C99 O96 1.258 . S
Zn100 O106 1.969 . S
Zn100 O107 1.965 . S
Zn100 O111 2.024 . S
Zn100 O116 1.969 . S
Zn101 O108 1.969 . S
Zn101 O114 1.969 . S
Zn101 O115 1.965 . S
Zn101 O117 2.024 . S
C102 O103 1.229 . S
C102 O111 1.058 . S
O103 C102 1.229 . S
C104 O105 1.229 . S
C104 O117 1.058 . S
O105 C104 1.229 . S
O106 Zn100 1.969 . S
O106 C109 1.267 . S
O107 Zn100 1.965 . S
O107 C118 1.260 . S
O108 Zn101 1.969 . S
O108 C118 1.258 . S
C109 O106 1.267 . S
C109 O110 1.228 . S
O110 C109 1.228 . S
O111 Zn100 2.024 . S
O111 C102 1.058 . S
C112 O113 1.228 . S
C112 O114 1.267 . S
O113 C112 1.228 . S
O114 Zn101 1.969 . S
O114 C112 1.267 . S
O115 Zn101 1.965 . S
O115 C119 1.260 . S
O116 Zn100 1.969 . S
O116 C119 1.258 . S
O117 Zn101 2.024 . S
O117 C104 1.058 . S
C118 O107 1.260 . S
C118 O108 1.258 . S
C119 O115 1.260 . S
C119 O116 1.258 . S
C120 C121 1.349 . S
C120 C122 1.327 . S
C120 H145 0.950 . S
C121 C120 1.349 . S
C121 C137 1.349 . S
C122 C120 1.327 . S
C122 C141 1.429 . S
C122 H146 0.950 . S
C123 C140 1.574 . S
C123 C142 1.368 . S
C123 H147 0.949 . S
H124 C128 0.949 . S
C125 C126 1.349 . S
C125 C127 1.327 . S
C125 H148 0.950 . S
C126 C125 1.349 . S
C126 C138 1.349 . S
C127 C125 1.327 . S
C127 C143 1.429 . S
C127 H149 0.950 . S
C128 H124 0.949 . S
C128 C136 1.574 . S
C128 C144 1.368 . S
H129 C137 0.950 . S
H130 C135 0.950 . S
H131 C136 0.949 . S
H132 C138 0.950 . S
H133 C139 0.950 . S
H134 C140 0.949 . S
C135 H130 0.950 . S
C135 C137 1.327 . S
C135 C141 1.429 . S
C136 C128 1.574 . S
C136 H131 0.949 . S
C136 C142 1.368 . S
C137 C121 1.349 . S
C137 H129 0.950 . S
C137 C135 1.327 . S
C138 C126 1.349 . S
C138 H132 0.950 . S
C138 C139 1.327 . S
C139 H133 0.950 . S
C139 C138 1.327 . S
C139 C143 1.429 . S
C140 C123 1.574 . S
C140 H134 0.949 . S
C140 C144 1.368 . S
C141 C122 1.429 . S
C141 C135 1.429 . S
C141 C142 1.523 . S
C142 C123 1.368 . S
C142 C136 1.368 . S
C142 C141 1.523 . S
C143 C127 1.429 . S
C143 C139 1.429 . S
C143 C144 1.523 . S
C144 C128 1.368 . S
C144 C140 1.368 . S
C144 C143 1.523 . S
H145 C120 0.950 . S
H146 C122 0.950 . S
H147 C123 0.949 . S
H148 C125 0.950 . S
H149 C127 0.950 . S
C150 C151 1.349 . S
C150 C152 1.327 . S
C150 H175 0.950 . S
C151 C150 1.349 . S
C151 C167 1.349 . S
C152 C150 1.327 . S
C152 C171 1.429 . S
C152 H176 0.950 . S
C153 C170 1.574 1_455 S
C153 C172 1.368 . S
C153 H177 0.949 . S
H154 C158 0.949 1_655 S
C155 C156 1.349 . S
C155 C157 1.327 . S
C155 H178 0.950 . S
C156 C155 1.349 . S
C156 C168 1.349 . S
C157 C155 1.327 . S
C157 C173 1.429 . S
C157 H179 0.950 . S
C158 H154 0.949 1_455 S
C158 C166 1.574 . S
C158 C174 1.368 1_455 S
H159 C167 0.950 . S
H160 C165 0.950 . S
H161 C166 0.949 . S
H162 C168 0.950 . S
H163 C169 0.950 . S
H164 C170 0.949 . S
C165 H160 0.950 . S
C165 C167 1.327 . S
C165 C171 1.429 . S
C166 C158 1.574 . S
C166 H161 0.949 . S
C166 C172 1.368 . S
C167 C151 1.349 . S
C167 H159 0.950 . S
C167 C165 1.327 . S
C168 C156 1.349 . S
C168 H162 0.950 . S
C168 C169 1.327 . S
C169 H163 0.950 . S
C169 C168 1.327 . S
C169 C173 1.429 . S
C170 C153 1.574 1_655 S
C170 H164 0.949 . S
C170 C174 1.368 . S
C171 C152 1.429 . S
C171 C165 1.429 . S
C171 C172 1.523 . S
C172 C153 1.368 . S
C172 C166 1.368 . S
C172 C171 1.523 . S
C173 C157 1.429 . S
C173 C169 1.429 . S
C173 C174 1.523 . S
C174 C158 1.368 1_655 S
C174 C170 1.368 . S
C174 C173 1.523 . S
H175 C150 0.950 . S
H176 C152 0.950 . S
H177 C153 0.949 . S
H178 C155 0.950 . S
H179 C157 0.950 . S
C180 C181 1.349 . S
C180 C182 1.327 . S
C180 H205 0.950 . S
C181 C180 1.349 . S
C181 C197 1.349 . S
C182 C180 1.327 . S
C182 C201 1.429 . S
C182 H206 0.950 . S
C183 C200 1.574 1_545 S
C183 C202 1.368 . S
C183 H207 0.949 . S
H184 C188 0.949 1_565 S
C185 C186 1.349 . S
C185 C187 1.327 . S
C185 H208 0.950 . S
C186 C185 1.349 . S
C186 C198 1.349 . S
C187 C185 1.327 . S
C187 C203 1.429 . S
C187 H209 0.950 . S
C188 H184 0.949 1_545 S
C188 C196 1.574 . S
C188 C204 1.368 1_545 S
H189 C197 0.950 . S
H190 C195 0.950 . S
H191 C196 0.949 . S
H192 C198 0.950 . S
H193 C199 0.950 . S
H194 C200 0.949 . S
C195 H190 0.950 . S
C195 C197 1.327 . S
C195 C201 1.429 . S
C196 C188 1.574 . S
C196 H191 0.949 . S
C196 C202 1.368 . S
C197 C181 1.349 . S
C197 H189 0.950 . S
C197 C195 1.327 . S
C198 C186 1.349 . S
C198 H192 0.950 . S
C198 C199 1.327 . S
C199 H193 0.950 . S
C199 C198 1.327 . S
C199 C203 1.429 . S
C200 C183 1.574 1_565 S
C200 H194 0.949 . S
C200 C204 1.368 . S
C201 C182 1.429 . S
C201 C195 1.429 . S
C201 C202 1.523 . S
C202 C183 1.368 . S
C202 C196 1.368 . S
C202 C201 1.523 . S
C203 C187 1.429 . S
C203 C199 1.429 . S
C203 C204 1.523 . S
C204 C188 1.368 1_565 S
C204 C200 1.368 . S
C204 C203 1.523 . S
H205 C180 0.950 . S
H206 C182 0.950 . S
H207 C183 0.949 . S
H208 C185 0.950 . S
H209 C187 0.950 . S
C210 C211 1.349 . S
C210 C212 1.327 . S
C210 H235 0.950 . S
C211 C210 1.349 . S
C211 C227 1.349 . S
C212 C210 1.327 . S
C212 C231 1.429 . S
C212 H236 0.950 . S
C213 C230 1.574 . S
C213 C232 1.368 . S
C213 H237 0.949 . S
H214 C218 0.949 . S
C215 C216 1.349 . S
C215 C217 1.327 . S
C215 H238 0.950 . S
C216 C215 1.349 . S
C216 C228 1.349 . S
C217 C215 1.327 . S
C217 C233 1.429 . S
C217 H239 0.950 . S
C218 H214 0.949 . S
C218 C226 1.574 . S
C218 C234 1.368 . S
H219 C227 0.950 . S
H220 C225 0.950 . S
H221 C226 0.949 . S
H222 C228 0.950 . S
H223 C229 0.950 . S
H224 C230 0.949 . S
C225 H220 0.950 . S
C225 C227 1.327 . S
C225 C231 1.429 . S
C226 C218 1.574 . S
C226 H221 0.949 . S
C226 C232 1.368 . S
C227 C211 1.349 . S
C227 H219 0.950 . S
C227 C225 1.327 . S
C228 C216 1.349 . S
C228 H222 0.950 . S
C228 C229 1.327 . S
C229 H223 0.950 . S
C229 C228 1.327 . S
C229 C233 1.429 . S
C230 C213 1.574 . S
C230 H224 0.949 . S
C230 C234 1.368 . S
C231 C212 1.429 . S
C231 C225 1.429 . S
C231 C232 1.523 . S
C232 C213 1.368 . S
C232 C226 1.368 . S
C232 C231 1.523 . S
C233 C217 1.429 . S
C233 C229 1.429 . S
C233 C234 1.523 . S
C234 C218 1.368 . S
C234 C230 1.368 . S
C234 C233 1.523 . S
H235 C210 0.950 . S
H236 C212 0.950 . S
H237 C213 0.949 . S
H238 C215 0.950 . S
H239 C217 0.950 . S
C240 C241 1.349 . S
C240 C242 1.327 . S
C240 H265 0.950 . S
C241 C240 1.349 . S
C241 C257 1.349 . S
C242 C240 1.327 . S
C242 C261 1.429 . S
C242 H266 0.950 . S
C243 C260 1.574 1_455 S
C243 C262 1.368 . S
C243 H267 0.949 . S
H244 C248 0.949 . S
C245 C246 1.349 . S
C245 C247 1.327 . S
C245 H268 0.950 1_554 S
C246 C245 1.349 . S
C246 C258 1.349 . S
C247 C245 1.327 . S
C247 C263 1.429 . S
C247 H269 0.950 . S
C248 H244 0.949 . S
C248 C256 1.574 . S
C248 C264 1.368 . S
H249 C257 0.950 . S
H250 C255 0.950 . S
H251 C256 0.949 . S
H252 C258 0.950 . S
H253 C259 0.950 . S
H254 C260 0.949 . S
C255 H250 0.950 . S
C255 C257 1.327 . S
C255 C261 1.429 . S
C256 C248 1.574 . S
C256 H251 0.949 . S
C256 C262 1.368 1_655 S
C257 C241 1.349 . S
C257 H249 0.950 . S
C257 C255 1.327 . S
C258 C246 1.349 . S
C258 H252 0.950 . S
C258 C259 1.327 . S
C259 H253 0.950 . S
C259 C258 1.327 . S
C259 C263 1.429 . S
C260 C243 1.574 1_655 S
C260 H254 0.949 . S
C260 C264 1.368 . S
C261 C242 1.429 . S
C261 C255 1.429 . S
C261 C262 1.523 . S
C262 C243 1.368 . S
C262 C256 1.368 1_455 S
C262 C261 1.523 . S
C263 C247 1.429 . S
C263 C259 1.429 . S
C263 C264 1.523 . S
C264 C248 1.368 . S
C264 C260 1.368 . S
C264 C263 1.523 . S
H265 C240 0.950 . S
H266 C242 0.950 . S
H267 C243 0.949 . S
H268 C245 0.950 1_556 S
H269 C247 0.950 . S
C270 C271 1.349 . S
C270 C272 1.327 . S
C270 H295 0.950 . S
C271 C270 1.349 . S
C271 C287 1.349 . S
C272 C270 1.327 . S
C272 C291 1.429 . S
C272 H296 0.950 . S
C273 C290 1.600 . S
C273 C292 1.373 1_565 S
C273 H297 0.922 1_565 S
H274 C278 0.949 . S
C275 C276 1.349 . S
C275 C277 1.327 . S
C275 H298 0.950 . S
C276 C275 1.349 . S
C276 C288 1.349 . S
C277 C275 1.327 . S
C277 C293 1.429 . S
C277 H299 0.950 . S
C278 H274 0.949 . S
C278 C286 1.575 . S
C278 C294 1.368 . S
H279 C287 0.950 . S
H280 C285 0.950 . S
H281 C286 0.949 1_545 S
H282 C288 0.950 . S
H283 C289 0.950 . S
H284 C290 0.949 . S
C285 H280 0.950 . S
C285 C287 1.327 . S
C285 C291 1.429 . S
C286 C278 1.575 . S
C286 H281 0.949 1_565 S
C286 C292 1.367 1_565 S
C287 C271 1.349 . S
C287 H279 0.950 . S
C287 C285 1.327 . S
C288 C276 1.349 . S
C288 H282 0.950 . S
C288 C289 1.327 . S
C289 H283 0.950 . S
C289 C288 1.327 . S
C289 C293 1.429 . S
C290 C273 1.600 . S
C290 H284 0.949 . S
C290 C294 1.368 . S
C291 C272 1.429 . S
C291 C285 1.429 . S
C291 C292 1.523 . S
C292 C273 1.373 1_545 S
C292 C286 1.367 1_545 S
C292 C291 1.523 . S
C293 C277 1.429 . S
C293 C289 1.429 . S
C293 C294 1.523 . S
C294 C278 1.368 . S
C294 C290 1.368 . S
C294 C293 1.523 . S
H295 C270 0.950 . S
H296 C272 0.950 . S
H297 C273 0.922 1_545 S
H298 C275 0.950 . S
H299 C277 0.950 . S
C300 C301 1.349 . S
C300 C302 1.327 . S
C300 H325 0.950 . S
C301 C300 1.349 . S
C301 C317 1.349 . S
C302 C300 1.327 . S
C302 C321 1.429 . S
C302 H326 0.950 . S
C303 C320 1.574 . S
C303 C322 1.368 . S
C303 H327 0.949 . S
H304 C308 0.949 . S
C305 C306 1.349 . S
C305 C307 1.327 . S
C305 H328 0.950 . S
C306 C305 1.349 . S
C306 C318 1.349 . S
C307 C305 1.327 . S
C307 C323 1.429 . S
C307 H329 0.950 . S
C308 H304 0.949 . S
C308 C316 1.574 . S
C308 C324 1.368 . S
H309 C317 0.950 . S
H310 C315 0.950 . S
H311 C316 0.949 . S
H312 C318 0.950 . S
H313 C319 0.950 . S
H314 C320 0.949 . S
C315 H310 0.950 . S
C315 C317 1.327 . S
C315 C321 1.429 . S
C316 C308 1.574 . S
C316 H311 0.949 . S
C316 C322 1.368 . S
C317 C301 1.349 . S
C317 H309 0.950 . S
C317 C315 1.327 . S
C318 C306 1.349 . S
C318 H312 0.950 . S
C318 C319 1.327 . S
C319 H313 0.950 . S
C319 C318 1.327 . S
C319 C323 1.429 . S
C320 C303 1.574 . S
C320 H314 0.949 . S
C320 C324 1.368 . S
C321 C302 1.429 . S
C321 C315 1.429 . S
C321 C322 1.523 . S
C322 C303 1.368 . S
C322 C316 1.368 . S
C322 C321 1.523 . S
C323 C307 1.429 . S
C323 C319 1.429 . S
C323 C324 1.523 . S
C324 C308 1.368 . S
C324 C320 1.368 . S
C324 C323 1.523 . S
H325 C300 0.950 . S
H326 C302 0.950 . S
H327 C303 0.949 . S
H328 C305 0.950 . S
H329 C307 0.950 . S
C330 C331 1.349 . S
C330 C332 1.327 . S
C330 H355 0.950 . S
C331 C330 1.349 . S
C331 C347 1.349 . S
C332 C330 1.327 . S
C332 C351 1.429 1_554 S
C332 H356 0.950 1_554 S
C333 C350 1.574 . S
C333 C352 1.368 . S
C333 H357 0.949 . S
H334 C338 0.949 . S
C335 C336 1.349 . S
C335 C337 1.327 . S
C335 H358 0.950 . S
C336 C335 1.349 . S
C336 C348 1.349 . S
C337 C335 1.327 . S
C337 C353 1.429 . S
C337 H359 0.950 . S
C338 H334 0.949 . S
C338 C346 1.574 . S
C338 C354 1.368 . S
H339 C347 0.950 . S
H340 C345 0.957 . S
H341 C346 0.949 . S
H342 C348 0.950 . S
H343 C349 0.950 . S
H344 C350 0.949 . S
C345 H340 0.957 . S
C345 C347 1.314 1_556 S
C345 C351 1.435 . S
C346 C338 1.574 . S
C346 H341 0.949 . S
C346 C352 1.368 . S
C347 C331 1.349 . S
C347 H339 0.950 . S
C347 C345 1.314 1_554 S
C348 C336 1.349 . S
C348 H342 0.950 . S
C348 C349 1.327 . S
C349 H343 0.950 . S
C349 C348 1.327 . S
C349 C353 1.429 . S
C350 C333 1.574 . S
C350 H344 0.949 . S
C350 C354 1.368 . S
C351 C332 1.429 1_556 S
C351 C345 1.435 . S
C351 C352 1.523 . S
C352 C333 1.368 . S
C352 C346 1.368 . S
C352 C351 1.523 . S
C353 C337 1.429 . S
C353 C349 1.429 . S
C353 C354 1.523 . S
C354 C338 1.368 . S
C354 C350 1.368 . S
C354 C353 1.523 . S
H355 C330 0.950 . S
H356 C332 0.950 1_556 S
H357 C333 0.949 . S
H358 C335 0.950 . S
H359 C337 0.950 . S
C360 C361 1.349 . S
C360 C362 1.327 . S
C360 H385 0.950 . S
C361 C360 1.349 . S
C361 C377 1.349 . S
C362 C360 1.327 . S
C362 C381 1.429 . S
C362 H386 0.950 . S
C363 C380 1.574 . S
C363 C382 1.368 . S
C363 H387 0.949 . S
H364 C368 0.949 . S
C365 C366 1.349 . S
C365 C367 1.327 1_556 S
C365 H388 0.950 . S
C366 C365 1.349 . S
C366 C378 1.349 . S
C367 C365 1.327 1_554 S
C367 C383 1.429 . S
C367 H389 0.950 . S
C368 H364 0.949 . S
C368 C376 1.574 . S
C368 C384 1.368 . S
H369 C377 0.950 . S
H370 C375 0.950 . S
H371 C376 0.949 . S
H372 C378 0.950 . S
H373 C379 0.950 . S
H374 C380 0.949 . S
C375 H370 0.950 . S
C375 C377 1.327 . S
C375 C381 1.429 . S
C376 C368 1.574 . S
C376 H371 0.949 . S
C376 C382 1.368 . S
C377 C361 1.349 . S
C377 H369 0.950 . S
C377 C375 1.327 . S
C378 C366 1.349 . S
C378 H372 0.950 . S
C378 C379 1.327 1_556 S
C379 H373 0.950 . S
C379 C378 1.327 1_554 S
C379 C383 1.429 . S
C380 C363 1.574 . S
C380 H374 0.949 . S
C380 C384 1.368 . S
C381 C362 1.429 . S
C381 C375 1.429 . S
C381 C382 1.523 . S
C382 C363 1.368 . S
C382 C376 1.368 . S
C382 C381 1.523 . S
C383 C367 1.429 . S
C383 C379 1.429 . S
C383 C384 1.523 . S
C384 C368 1.368 . S
C384 C380 1.368 . S
C384 C383 1.523 . S
H385 C360 0.950 . S
H386 C362 0.950 . S
H387 C363 0.949 . S
H388 C365 0.950 . S
H389 C367 0.950 . S
C390 C391 1.349 . S
C390 C392 1.327 . S
C390 H415 0.950 . S
C391 C390 1.349 . S
C391 C407 1.349 . S
C392 C390 1.327 . S
C392 C411 1.429 . S
C392 H416 0.950 . S
C393 C410 1.574 . S
C393 C412 1.368 . S
C393 H417 0.949 . S
H394 C398 0.949 . S
C395 C396 1.349 . S
C395 C397 1.327 . S
C395 H418 0.950 . S
C396 C395 1.349 . S
C396 C408 1.349 . S
C397 C395 1.327 . S
C397 C413 1.429 . S
C397 H419 0.950 . S
C398 H394 0.949 . S
C398 C406 1.574 . S
C398 C414 1.368 . S
H399 C407 0.950 . S
H400 C405 0.950 . S
H401 C406 0.949 . S
H402 C408 0.950 . S
H403 C409 0.950 . S
H404 C410 0.949 . S
C405 H400 0.950 . S
C405 C407 1.327 . S
C405 C411 1.429 . S
C406 C398 1.574 . S
C406 H401 0.949 . S
C406 C412 1.368 . S
C407 C391 1.349 . S
C407 H399 0.950 . S
C407 C405 1.327 . S
C408 C396 1.349 . S
C408 H402 0.950 . S
C408 C409 1.327 . S
C409 H403 0.950 . S
C409 C408 1.327 . S
C409 C413 1.429 . S
C410 C393 1.574 . S
C410 H404 0.949 . S
C410 C414 1.368 . S
C411 C392 1.429 . S
C411 C405 1.429 . S
C411 C412 1.523 . S
C412 C393 1.368 . S
C412 C406 1.368 . S
C412 C411 1.523 . S
C413 C397 1.429 . S
C413 C409 1.429 . S
C413 C414 1.523 . S
C414 C398 1.368 . S
C414 C410 1.368 . S
C414 C413 1.523 . S
H415 C390 0.950 . S
H416 C392 0.950 . S
H417 C393 0.949 . S
H418 C395 0.950 . S
H419 C397 0.950 . S
C420 C421 1.349 . S
C420 C422 1.327 . S
C420 H445 0.950 . S
C421 C420 1.349 . S
C421 C437 1.349 . S
C422 C420 1.327 . S
C422 C441 1.429 . S
C422 H446 0.950 . S
C423 C440 1.574 . S
C423 C442 1.368 . S
C423 H447 0.949 . S
H424 C428 0.949 . S
C425 C426 1.349 . S
C425 C427 1.327 . S
C425 H448 0.950 . S
C426 C425 1.349 . S
C426 C438 1.349 . S
C427 C425 1.327 . S
C427 C443 1.429 1_554 S
C427 H449 0.950 1_554 S
C428 H424 0.949 . S
C428 C436 1.574 . S
C428 C444 1.368 . S
H429 C437 0.950 . S
H430 C435 0.950 . S
H431 C436 0.949 . S
H432 C438 0.950 . S
H433 C439 0.950 . S
H434 C440 0.949 . S
C435 H430 0.950 . S
C435 C437 1.327 . S
C435 C441 1.429 . S
C436 C428 1.574 . S
C436 H431 0.949 . S
C436 C442 1.368 . S
C437 C421 1.349 . S
C437 H429 0.950 . S
C437 C435 1.327 . S
C438 C426 1.349 . S
C438 H432 0.950 . S
C438 C439 1.327 1_554 S
C439 H433 0.950 . S
C439 C438 1.327 1_556 S
C439 C443 1.429 . S
C440 C423 1.574 . S
C440 H434 0.949 . S
C440 C444 1.368 . S
C441 C422 1.429 . S
C441 C435 1.429 . S
C441 C442 1.523 . S
C442 C423 1.368 . S
C442 C436 1.368 . S
C442 C441 1.523 . S
C443 C427 1.429 1_556 S
C443 C439 1.429 . S
C443 C444 1.523 . S
C444 C428 1.368 . S
C444 C440 1.368 . S
C444 C443 1.523 . S
H445 C420 0.950 . S
H446 C422 0.950 . S
H447 C423 0.949 . S
H448 C425 0.950 . S
H449 C427 0.950 1_556 S
C450 C451 1.349 . S
C450 C452 1.327 . S
C450 H475 0.950 . S
C451 C450 1.349 . S
C451 C467 1.349 . S
C452 C450 1.327 . S
C452 C471 1.429 . S
C452 H476 0.950 . S
C453 C470 1.574 . S
C453 C472 1.368 . S
C453 H477 0.949 . S
H454 C458 0.949 . S
C455 C456 1.349 . S
C455 C457 1.327 1_556 S
C455 H478 0.950 . S
C456 C455 1.349 . S
C456 C468 1.349 . S
C457 C455 1.327 1_554 S
C457 C473 1.429 . S
C457 H479 0.950 . S
C458 H454 0.949 . S
C458 C466 1.574 . S
C458 C474 1.368 . S
H459 C467 0.950 . S
H460 C465 0.950 . S
H461 C466 0.949 . S
H462 C468 0.950 . S
H463 C469 0.950 . S
H464 C470 0.949 . S
C465 H460 0.950 . S
C465 C467 1.327 . S
C465 C471 1.429 . S
C466 C458 1.574 . S
C466 H461 0.949 . S
C466 C472 1.368 . S
C467 C451 1.349 . S
C467 H459 0.950 . S
C467 C465 1.327 . S
C468 C456 1.349 . S
C468 H462 0.950 . S
C468 C469 1.327 1_556 S
C469 H463 0.950 . S
C469 C468 1.327 1_554 S
C469 C473 1.429 . S
C470 C453 1.574 . S
C470 H464 0.949 . S
C470 C474 1.368 . S
C471 C452 1.429 . S
C471 C465 1.429 . S
C471 C472 1.523 . S
C472 C453 1.368 . S
C472 C466 1.368 . S
C472 C471 1.523 . S
C473 C457 1.429 . S
C473 C469 1.429 . S
C473 C474 1.523 . S
C474 C458 1.368 . S
C474 C470 1.368 . S
C474 C473 1.523 . S
H475 C450 0.950 . S
H476 C452 0.950 . S
H477 C453 0.949 . S
H478 C455 0.950 . S
H479 C457 0.950 . S
C480 C481 1.349 . S
C480 C482 1.327 . S
C480 H505 0.950 . S
C481 C480 1.349 . S
C481 C497 1.349 . S
C482 C480 1.327 . S
C482 C501 1.429 . S
C482 H506 0.950 . S
C483 C500 1.574 . S
C483 C502 1.368 . S
C483 H507 0.949 . S
H484 C488 0.949 . S
C485 C486 1.349 . S
C485 C487 1.327 . S
C485 H508 0.950 . S
C486 C485 1.349 . S
C486 C498 1.349 . S
C487 C485 1.327 . S
C487 C503 1.429 . S
C487 H509 0.950 . S
C488 H484 0.949 . S
C488 C496 1.574 . S
C488 C504 1.368 . S
H489 C497 0.950 . S
H490 C495 0.950 . S
H491 C496 0.949 . S
H492 C498 0.950 . S
H493 C499 0.950 . S
H494 C500 0.949 . S
C495 H490 0.950 . S
C495 C497 1.327 . S
C495 C501 1.429 . S
C496 C488 1.574 . S
C496 H491 0.949 . S
C496 C502 1.368 . S
C497 C481 1.349 . S
C497 H489 0.950 . S
C497 C495 1.327 . S
C498 C486 1.349 . S
C498 H492 0.950 . S
C498 C499 1.327 . S
C499 H493 0.950 . S
C499 C498 1.327 . S
C499 C503 1.429 . S
C500 C483 1.574 . S
C500 H494 0.949 . S
C500 C504 1.368 . S
C501 C482 1.429 . S
C501 C495 1.429 . S
C501 C502 1.523 . S
C502 C483 1.368 . S
C502 C496 1.368 . S
C502 C501 1.523 . S
C503 C487 1.429 . S
C503 C499 1.429 . S
C503 C504 1.523 . S
C504 C488 1.368 . S
C504 C500 1.368 . S
C504 C503 1.523 . S
H505 C480 0.950 . S
H506 C482 0.950 . S
H507 C483 0.949 . S
H508 C485 0.950 . S
H509 C487 0.950 . S
C510 C511 1.349 . S
C510 C512 1.327 . S
C510 H535 0.950 . S
C511 C510 1.349 . S
C511 C527 1.349 . S
C512 C510 1.327 . S
C512 C531 1.429 . S
C512 H536 0.950 . S
C513 C530 1.574 . S
C513 C532 1.368 . S
C513 H537 0.949 . S
H514 C518 0.949 . S
C515 C516 1.349 . S
C515 C517 1.327 . S
C515 H538 0.950 . S
C516 C515 1.349 . S
C516 C528 1.349 . S
C517 C515 1.327 . S
C517 C533 1.429 . S
C517 H539 0.950 . S
C518 H514 0.949 . S
C518 C526 1.574 . S
C518 C534 1.368 . S
H519 C527 0.950 . S
H520 C525 0.950 . S
H521 C526 0.949 . S
H522 C528 0.950 . S
H523 C529 0.950 . S
H524 C530 0.949 . S
C525 H520 0.950 . S
C525 C527 1.327 . S
C525 C531 1.429 . S
C526 C518 1.574 . S
C526 H521 0.949 . S
C526 C532 1.368 . S
C527 C511 1.349 . S
C527 H519 0.950 . S
C527 C525 1.327 . S
C528 C516 1.349 . S
C528 H522 0.950 . S
C528 C529 1.327 . S
C529 H523 0.950 . S
C529 C528 1.327 . S
C529 C533 1.429 . S
C530 C513 1.574 . S
C530 H524 0.949 . S
C530 C534 1.368 . S
C531 C512 1.429 . S
C531 C525 1.429 . S
C531 C532 1.523 . S
C532 C513 1.368 . S
C532 C526 1.368 . S
C532 C531 1.523 . S
C533 C517 1.429 . S
C533 C529 1.429 . S
C533 C534 1.523 . S
C534 C518 1.368 . S
C534 C530 1.368 . S
C534 C533 1.523 . S
H535 C510 0.950 . S
H536 C512 0.950 . S
H537 C513 0.949 . S
H538 C515 0.950 . S
H539 C517 0.950 . S
C540 C541 1.349 . S
C540 C542 1.327 . S
C540 H565 0.950 1_556 S
C541 C540 1.349 . S
C541 C557 1.349 . S
C542 C540 1.327 . S
C542 C561 1.429 . S
C542 H566 0.950 1_556 S
C543 C560 1.574 . S
C543 C562 1.368 . S
C543 H567 0.949 . S
H544 C548 0.949 . S
C545 C546 1.349 . S
C545 C547 1.327 . S
C545 H568 0.950 . S
C546 C545 1.349 . S
C546 C558 1.349 . S
C547 C545 1.327 . S
C547 C563 1.429 . S
C547 H569 0.950 . S
C548 H544 0.949 . S
C548 C556 1.574 . S
C548 C564 1.368 . S
H549 C557 0.950 . S
H550 C555 0.950 . S
H551 C556 0.949 . S
H552 C558 0.950 . S
H553 C559 0.950 . S
H554 C560 0.949 . S
C555 H550 0.950 . S
C555 C557 1.327 . S
C555 C561 1.429 . S
C556 C548 1.574 . S
C556 H551 0.949 . S
C556 C562 1.368 . S
C557 C541 1.349 . S
C557 H549 0.950 . S
C557 C555 1.327 . S
C558 C546 1.349 . S
C558 H552 0.950 . S
C558 C559 1.327 . S
C559 H553 0.950 . S
C559 C558 1.327 . S
C559 C563 1.429 . S
C560 C543 1.574 . S
C560 H554 0.949 . S
C560 C564 1.368 . S
C561 C542 1.429 . S
C561 C555 1.429 . S
C561 C562 1.523 . S
C562 C543 1.368 . S
C562 C556 1.368 . S
C562 C561 1.523 . S
C563 C547 1.429 . S
C563 C559 1.429 . S
C563 C564 1.523 . S
C564 C548 1.368 . S
C564 C560 1.368 . S
C564 C563 1.523 . S
H565 C540 0.950 1_554 S
H566 C542 0.950 1_554 S
H567 C543 0.949 . S
H568 C545 0.950 . S
H569 C547 0.950 . S
C570 C571 1.349 . S
C570 C572 1.327 . S
C570 H595 0.950 . S
C571 C570 1.349 . S
C571 C587 1.349 . S
C572 C570 1.327 . S
C572 C591 1.429 . S
C572 H596 0.950 . S
C573 C590 1.574 . S
C573 C592 1.368 . S
C573 H597 0.949 . S
H574 C578 0.949 . S
C575 C576 1.349 . S
C575 C577 1.327 . S
C575 H598 0.950 . S
C576 C575 1.349 . S
C576 C588 1.349 . S
C577 C575 1.327 . S
C577 C593 1.429 . S
C577 H599 0.950 . S
C578 H574 0.949 . S
C578 C586 1.574 . S
C578 C594 1.368 . S
H579 C587 0.950 . S
H580 C585 0.950 . S
H581 C586 0.949 . S
H582 C588 0.950 . S
H583 C589 0.950 . S
H584 C590 0.949 . S
C585 H580 0.950 . S
C585 C587 1.327 . S
C585 C591 1.429 . S
C586 C578 1.574 . S
C586 H581 0.949 . S
C586 C592 1.368 . S
C587 C571 1.349 . S
C587 H579 0.950 . S
C587 C585 1.327 . S
C588 C576 1.349 . S
C588 H582 0.950 . S
C588 C589 1.327 . S
C589 H583 0.950 . S
C589 C588 1.327 . S
C589 C593 1.429 . S
C590 C573 1.574 . S
C590 H584 0.949 . S
C590 C594 1.368 . S
C591 C572 1.429 . S
C591 C585 1.429 . S
C591 C592 1.523 . S
C592 C573 1.368 . S
C592 C586 1.368 . S
C592 C591 1.523 . S
C593 C577 1.429 . S
C593 C589 1.429 . S
C593 C594 1.523 . S
C594 C578 1.368 . S
C594 C590 1.368 . S
C594 C593 1.523 . S
H595 C570 0.950 . S
H596 C572 0.950 . S
H597 C573 0.949 . S
H598 C575 0.950 . S
H599 C577 0.950 . S
C600 C601 1.349 . S
C600 C602 1.327 . S
C600 H625 0.950 . S
C601 C600 1.349 . S
C601 C617 1.349 . S
C602 C600 1.327 . S
C602 C621 1.429 . S
C602 H626 0.950 . S
C603 C620 1.574 . S
C603 C622 1.368 . S
C603 H627 0.949 . S
H604 C608 0.949 . S
C605 C606 1.349 . S
C605 C607 1.327 . S
C605 H628 0.950 . S
C606 C605 1.349 . S
C606 C618 1.349 . S
C607 C605 1.327 . S
C607 C623 1.429 . S
C607 H629 0.950 . S
C608 H604 0.949 . S
C608 C616 1.574 . S
C608 C624 1.368 . S
H609 C617 0.950 . S
H610 C615 0.950 . S
H611 C616 0.949 . S
H612 C618 0.950 . S
H613 C619 0.950 . S
H614 C620 0.949 . S
C615 H610 0.950 . S
C615 C617 1.327 . S
C615 C621 1.429 . S
C616 C608 1.574 . S
C616 H611 0.949 . S
C616 C622 1.368 . S
C617 C601 1.349 . S
C617 H609 0.950 . S
C617 C615 1.327 . S
C618 C606 1.349 . S
C618 H612 0.950 . S
C618 C619 1.327 . S
C619 H613 0.950 . S
C619 C618 1.327 . S
C619 C623 1.429 . S
C620 C603 1.574 . S
C620 H614 0.949 . S
C620 C624 1.368 . S
C621 C602 1.429 . S
C621 C615 1.429 . S
C621 C622 1.523 . S
C622 C603 1.368 . S
C622 C616 1.368 . S
C622 C621 1.523 . S
C623 C607 1.429 . S
C623 C619 1.429 . S
C623 C624 1.523 . S
C624 C608 1.368 . S
C624 C620 1.368 . S
C624 C623 1.523 . S
H625 C600 0.950 . S
H626 C602 0.950 . S
H627 C603 0.949 . S
H628 C605 0.950 . S
H629 C607 0.950 . S
C630 C631 1.349 . S
C630 C632 1.327 . S
C630 H655 0.950 1_556 S
C631 C630 1.349 . S
C631 C647 1.349 . S
C632 C630 1.327 . S
C632 C651 1.429 . S
C632 H656 0.950 . S
C633 C650 1.574 . S
C633 C652 1.368 . S
C633 H657 0.949 . S
H634 C638 0.949 . S
C635 C636 1.349 . S
C635 C637 1.327 . S
C635 H658 0.950 . S
C636 C635 1.349 . S
C636 C648 1.349 . S
C637 C635 1.327 . S
C637 C653 1.429 . S
C637 H659 0.950 . S
C638 H634 0.949 . S
C638 C646 1.574 . S
C638 C654 1.368 . S
H639 C647 0.950 . S
H640 C645 0.950 . S
H641 C646 0.949 . S
H642 C648 0.950 . S
H643 C649 0.950 . S
H644 C650 0.949 . S
C645 H640 0.950 . S
C645 C647 1.327 . S
C645 C651 1.429 . S
C646 C638 1.574 . S
C646 H641 0.949 . S
C646 C652 1.368 . S
C647 C631 1.349 . S
C647 H639 0.950 . S
C647 C645 1.327 . S
C648 C636 1.349 . S
C648 H642 0.950 . S
C648 C649 1.327 . S
C649 H643 0.950 . S
C649 C648 1.327 . S
C649 C653 1.429 . S
C650 C633 1.574 . S
C650 H644 0.949 . S
C650 C654 1.368 . S
C651 C632 1.429 . S
C651 C645 1.429 . S
C651 C652 1.523 . S
C652 C633 1.368 . S
C652 C646 1.368 . S
C652 C651 1.523 . S
C653 C637 1.429 . S
C653 C649 1.429 . S
C653 C654 1.523 . S
C654 C638 1.368 . S
C654 C650 1.368 . S
C654 C653 1.523 . S
H655 C630 0.950 1_554 S
H656 C632 0.950 . S
H657 C633 0.949 . S
H658 C635 0.950 . S
H659 C637 0.950 . S
C121 C118 1.337 . S
C126 C4 1.271 . S
C151 C18 1.337 . S
C156 C24 1.271 . S
C181 C38 1.337 . S
C186 C44 1.271 . S
C211 C58 1.337 . S
C216 C64 1.271 . S
C241 C84 1.271 . S
C246 C78 1.337 . S
C271 C104 1.271 . S
C276 C98 1.337 . S
C301 C12 1.213 . S
C306 C9 1.213 . S
C331 C32 1.213 . S
C336 C29 1.213 . S
C361 C52 1.213 . S
C366 C49 1.213 . S
C391 C72 1.213 . S
C396 C69 1.213 . S
C421 C89 1.213 . S
C426 C92 1.213 . S
C451 C112 1.213 . S
C456 C109 1.213 . S
C481 C2 1.413 . S
C486 C99 1.484 . S
C511 C22 1.412 . S
C516 C119 1.484 . S
C541 C19 1.484 . S
C546 C42 1.412 . S
C571 C39 1.484 . S
C576 C62 1.412 . S
C601 C82 1.413 . S
C606 C59 1.484 . S
C631 C79 1.484 . S
C636 C102 1.412 . S
