# Generated by pormake.
# Topology gsi, (4)-cn, num edge types: 1
# Building blocks:
#     Node 0, Type 0, BuildingBlock: ICAMEG_clean_sbu_1, # of connection points: 4
#     Node 1, Type 0, BuildingBlock: ICAMEG_clean_sbu_1, # of connection points: 4
#     Node 2, Type 0, BuildingBlock: ICAMEG_clean_sbu_1, # of connection points: 4
#     Node 3, Type 0, BuildingBlock: ICAMEG_clean_sbu_1, # of connection points: 4
#     Node 4, Type 0, BuildingBlock: ICAMEG_clean_sbu_1, # of connection points: 4
#     Node 5, Type 0, BuildingBlock: ICAMEG_clean_sbu_1, # of connection points: 4
#     Node 6, Type 0, BuildingBlock: ICAMEG_clean_sbu_1, # of connection points: 4
#     Node 7, Type 0, BuildingBlock: ICAMEG_clean_sbu_1, # of connection points: 4
#     Node 8, Type 0, BuildingBlock: ICAMEG_clean_sbu_1, # of connection points: 4
#     Node 9, Type 0, BuildingBlock: ICAMEG_clean_sbu_1, # of connection points: 4
#     Node 10, Type 0, BuildingBlock: ICAMEG_clean_sbu_1, # of connection points: 4
#     Node 11, Type 0, BuildingBlock: ICAMEG_clean_sbu_1, # of connection points: 4
#     Node 12, Type 0, BuildingBlock: ICAMEG_clean_sbu_1, # of connection points: 4
#     Node 13, Type 0, BuildingBlock: ICAMEG_clean_sbu_1, # of connection points: 4
#     Node 14, Type 0, BuildingBlock: ICAMEG_clean_sbu_1, # of connection points: 4
#     Node 15, Type 0, BuildingBlock: ICAMEG_clean_sbu_1, # of connection points: 4
#     Edge 16, Type (0, 0), None
#     Edge 17, Type (0, 0), None
#     Edge 18, Type (0, 0), None
#     Edge 19, Type (0, 0), None
#     Edge 20, Type (0, 0), None
#     Edge 21, Type (0, 0), None
#     Edge 22, Type (0, 0), None
#     Edge 23, Type (0, 0), None
#     Edge 24, Type (0, 0), None
#     Edge 25, Type (0, 0), None
#     Edge 26, Type (0, 0), None
#     Edge 27, Type (0, 0), None
#     Edge 28, Type (0, 0), None
#     Edge 29, Type (0, 0), None
#     Edge 30, Type (0, 0), None
#     Edge 31, Type (0, 0), None
#     Edge 32, Type (0, 0), None
#     Edge 33, Type (0, 0), None
#     Edge 34, Type (0, 0), None
#     Edge 35, Type (0, 0), None
#     Edge 36, Type (0, 0), None
#     Edge 37, Type (0, 0), None
#     Edge 38, Type (0, 0), None
#     Edge 39, Type (0, 0), None
#     Edge 40, Type (0, 0), None
#     Edge 41, Type (0, 0), None
#     Edge 42, Type (0, 0), None
#     Edge 43, Type (0, 0), None
#     Edge 44, Type (0, 0), None
#     Edge 45, Type (0, 0), None
#     Edge 46, Type (0, 0), None
#     Edge 47, Type (0, 0), None
# Relax obj value: 0.179
# Max RMSD: 0.243
# Mean RMSD: 0.185
data_MOF--net-gsi--node1-ICAMEG_clean_sbu_1--edge1-none
_symmetry_space_group_name_H-M    P1
_symmetry_Int_Tables_number       1
_symmetry_cell_setting            triclinic
loop_
_symmetry_equiv_pos_as_xyz
'x, y, z'
_cell_length_a     17.403146
_cell_length_b     24.35953
_cell_length_c     24.570899
_cell_angle_alpha  90.042235
_cell_angle_beta   89.989764
_cell_angle_gamma 101.42251
loop_
_atom_site_label
_atom_site_type_symbol
_atom_site_fract_x
_atom_site_fract_y
_atom_site_fract_z
_atom_type_partial_charge
Co0 Co 0.09868 0.13036 0.19336 0.0
Co1 Co 0.20584 0.2008 0.08933 0.0
O2 O 0.15955 0.13275 0.12701 0.0
C3 C 0.17829 0.02734 0.20099 0.0
O4 O 0.1884 0.02754 0.1481 0.0
C5 C 0.19969 0.10436 0.00392 0.0
O6 O 0.1584 0.06766 0.03704 0.0
O7 O 0.08651 0.2186 0.08123 0.0
O8 O 0.0422 0.1919 0.16565 0.0
H9 H 0.2565 0.40812 0.05349 0.0
H10 H 0.04792 -0.00427 0.17158 0.0
O11 O 0.15151 0.06771 0.22368 0.0
H12 H 0.87778 0.08311 0.05966 0.0
H13 H 0.81558 0.05129 0.30327 0.0
H14 H 0.14066 0.16824 0.31097 0.0
H15 H 0.93156 0.12614 0.14504 0.0
H16 H 0.90998 0.0777 0.27679 0.0
O17 O 0.20725 0.15707 0.01617 0.0
H18 H 0.18766 0.31903 0.09377 0.0
H19 H 0.33566 0.23097 0.00621 0.0
H20 H -0.00808 0.15987 0.39066 0.0
H21 H -0.00184 0.94998 0.08778 0.0
H22 H 0.90494 0.14887 0.43024 0.0
H23 H 0.91438 -0.00379 0.02822 0.0
O24 O 0.18557 0.19451 0.227 0.0
H25 H 0.43741 0.12036 0.02958 0.0
H26 H 0.3331 0.20697 0.18429 0.0
H27 H 0.45856 0.18393 0.18902 0.0
H28 H 0.52362 0.15696 0.10584 0.0
H29 H 0.30429 0.10425 0.06446 0.0
H30 H 0.40607 0.3184 0.96618 0.0
H31 H 0.36615 0.40776 -0.01115 0.0
O32 O 0.22036 0.24974 0.156 0.0
C33 C 0.03 0.21341 0.1189 0.0
C34 C 0.27415 0.36922 0.04312 0.0
C35 C 0.35847 0.31898 -0.00559 0.0
N36 N 0.25714 0.26934 0.05299 0.0
C37 C 0.23522 0.31868 0.06571 0.0
C38 C 0.31868 0.26935 0.01808 0.0
C39 C 0.33575 0.3691 0.00694 0.0
C40 C 0.0244 0.02035 0.14278 0.0
N41 N 0.01623 0.07396 0.1545 0.0
C42 C 0.98933 -0.0083 0.09702 0.0
C43 C 0.94074 0.0166 0.0646 0.0
C44 C 0.92036 0.06572 0.08224 0.0
C45 C 0.95534 0.09198 0.12911 0.0
C46 C 0.88138 0.07866 0.30579 0.0
C47 C 0.07868 0.15847 0.31196 0.0
C48 C 0.95445 0.08609 0.25371 0.0
N49 N 0.03755 0.1234 0.26216 0.0
C50 C 0.04222 0.17156 0.37406 0.0
C51 C 0.94308 0.14053 0.3911 0.0
C52 C 0.22106 0.24244 0.20678 0.0
C53 C 0.41685 0.14532 0.06081 0.0
C54 C 0.35423 0.19246 0.14803 0.0
C55 C 0.42843 0.18007 0.15112 0.0
C56 C 0.46365 0.16279 0.10496 0.0
N57 N 0.31069 0.18088 0.10188 0.0
C58 C 0.33766 0.14577 0.06644 0.0
Co59 Co 0.88094 0.32178 0.1931 0.0
Co60 Co 0.77369 0.25091 0.08933 0.0
O61 O 0.81992 0.31909 0.12686 0.0
C62 C 0.80154 0.4249 0.2006 0.0
O63 O 0.79155 0.42466 0.14771 0.0
C64 C 0.77972 0.34726 0.004 0.0
O65 O 0.82123 0.38394 0.03707 0.0
O66 O 0.89306 0.23316 0.08118 0.0
O67 O 0.93741 0.26016 0.16554 0.0
H68 H 0.72339 0.04354 0.05352 0.0
H69 H 0.93199 0.45638 0.17134 0.0
O70 O 0.82812 0.3845 0.22333 0.0
H71 H 0.10196 0.36881 0.05932 0.0
H72 H 0.16429 0.40109 0.30276 0.0
H73 H 0.83922 0.28407 0.31065 0.0
H74 H 0.04795 0.32581 0.14458 0.0
H75 H 0.06978 0.3748 0.27634 0.0
O76 O 0.77208 0.29454 0.01618 0.0
H77 H 0.792 0.13273 0.09385 0.0
H78 H 0.64376 0.22047 0.00634 0.0
H79 H 0.98823 0.29229 0.38995 0.0
H80 H 0.98177 0.50208 0.08757 0.0
H81 H 0.0754 0.30305 0.4293 0.0
H82 H 0.06558 0.45581 0.02799 0.0
O83 O 0.79414 0.25769 0.22693 0.0
H84 H 0.54214 0.33131 0.02972 0.0
H85 H 0.64596 0.24405 0.18409 0.0
H86 H 0.52064 0.26741 0.18894 0.0
H87 H 0.45575 0.2945 0.10581 0.0
H88 H 0.67527 0.3474 0.06467 0.0
H89 H 0.57356 0.13294 0.96624 0.0
H90 H 0.61374 0.04369 -0.01114 0.0
O91 O 0.75943 0.20214 0.15607 0.0
C92 C 0.94957 0.23844 0.11886 0.0
C93 C 0.70565 0.08239 0.04315 0.0
C94 C 0.62118 0.13246 -0.00553 0.0
N95 N 0.72244 0.18226 0.05305 0.0
C96 C 0.74446 0.13298 0.06575 0.0
C97 C 0.66086 0.18214 0.01816 0.0
C98 C 0.64405 0.08239 0.00696 0.0
C99 C 0.95536 0.4317 0.14246 0.0
N100 N 0.96334 0.37805 0.15408 0.0
C101 C -0.00951 0.46032 0.09674 0.0
C102 C 0.03909 0.43539 0.0643 0.0
C103 C 0.05933 0.38622 0.08187 0.0
C104 C 0.0242 0.35996 0.12867 0.0
C105 C 0.09845 0.37377 0.3053 0.0
C106 C 0.90122 0.29383 0.31151 0.0
C107 C 0.02521 0.36643 0.25332 0.0
N108 N 0.94217 0.32903 0.26179 0.0
C109 C 0.93788 0.28062 0.37344 0.0
C110 C 0.03701 0.31162 0.3904 0.0
C111 C 0.75882 0.20963 0.20685 0.0
C112 C 0.56265 0.3063 0.0609 0.0
C113 C 0.62504 0.2589 0.14796 0.0
C114 C 0.55087 0.27136 0.15109 0.0
C115 C 0.51574 0.28871 0.10495 0.0
N116 N 0.66877 0.27073 0.10193 0.0
C117 C 0.64184 0.3059 0.0666 0.0
Co118 Co 0.09664 0.84644 0.23645 0.0
Co119 Co 0.2026 0.80847 0.34979 0.0
O120 O 0.16258 0.86226 0.30288 0.0
C121 C 0.16547 0.97229 0.23059 0.0
O122 O 0.1527 0.97407 0.28283 0.0
C123 C 0.21966 0.86912 0.46797 0.0
O124 O 0.19486 0.91246 0.48821 0.0
O125 O 0.08161 0.76307 0.35704 0.0
O126 O 0.03758 0.77454 0.27127 0.0
H127 H 0.21835 0.61504 0.3499 0.0
H128 H 0.08414 0.90269 0.34764 0.0
O129 O 0.15306 0.92421 0.20567 0.0
H130 H 0.7739 0.92283 0.30048 0.0
H131 H 0.07029 0.85915 0.03372 0.0
H132 H 0.94637 0.76717 0.19907 0.0
H133 H 0.92329 0.87104 0.1911 0.0
H134 H 0.13128 0.88141 0.12219 0.0
O135 O 0.19462 0.85485 0.41884 0.0
H136 H 0.14631 0.69385 0.36749 0.0
H137 H 0.35778 0.81469 0.4394 0.0
H138 H 0.88897 0.73975 0.10936 0.0
H139 H -0.00753 0.93368 0.4131 0.0
H140 H 0.94792 0.78833 0.02661 0.0
H141 H 0.84276 0.94013 0.39735 0.0
O142 O 0.17448 0.80238 0.2046 0.0
H143 H 0.47331 0.927 0.39524 0.0
H144 H 0.30281 0.84211 0.24807 0.0
H145 H 0.44159 0.87011 0.23077 0.0
H146 H 0.52908 0.91214 0.30522 0.0
H147 H 0.33462 0.89594 0.41059 0.0
H148 H 0.4597 0.75897 0.44706 0.0
H149 H 0.44788 0.65338 0.38102 0.0
O150 O 0.21086 0.76027 0.27963 0.0
C151 C 0.02717 0.75092 0.31858 0.0
C152 C 0.25527 0.65518 0.35128 0.0
C153 C 0.41174 0.74075 0.42119 0.0
N154 N 0.24909 0.75624 0.39942 0.0
C155 C 0.20802 0.70252 0.37198 0.0
C156 C 0.33463 0.77372 0.42596 0.0
C157 C 0.40263 0.67835 0.38379 0.0
C158 C 0.03005 0.90277 0.32756 0.0
N159 N 0.01352 0.8836 0.2657 0.0
C160 C 0.96912 0.92389 0.37267 0.0
C161 C 0.87669 0.92942 0.36351 0.0
C162 C 0.83335 0.91605 0.30366 0.0
C163 C 0.93163 0.88257 0.2336 0.0
C164 C 0.042 0.83963 0.07003 0.0
C165 C 0.97425 0.78797 0.16345 0.0
C166 C 0.07533 0.85313 0.1211 0.0
N167 N 0.04023 0.82913 0.16764 0.0
C168 C 0.93966 0.77316 0.11275 0.0
C169 C 0.97342 0.79966 0.06601 0.0
C170 C 0.2017 0.76229 0.22696 0.0
C171 C 0.43657 0.90462 0.36359 0.0
C172 C 0.33916 0.85457 0.28226 0.0
C173 C 0.41894 0.8725 0.27156 0.0
C174 C 0.46818 0.89615 0.31324 0.0
N175 N 0.3094 0.85428 0.33423 0.0
C176 C 0.3564 0.88557 0.3724 0.0
Co177 Co 0.88343 0.6058 0.23624 0.0
Co178 Co 0.77741 0.6437 0.34963 0.0
O179 O 0.81741 0.58994 0.30262 0.0
C180 C 0.81452 0.47999 0.23021 0.0
O181 O 0.82737 0.47824 0.28244 0.0
C182 C 0.76017 0.58275 0.46765 0.0
O183 O 0.7851 0.53942 0.48772 0.0
O184 O 0.89841 0.68905 0.35698 0.0
O185 O 0.94244 0.67769 0.27117 0.0
H186 H 0.76174 0.83709 0.35 0.0
H187 H 0.89585 0.54959 0.34738 0.0
O188 O 0.82702 0.52804 0.20533 0.0
H189 H 0.20608 0.52932 0.30024 0.0
H190 H 0.90971 0.59336 0.03347 0.0
H191 H 0.03377 0.68505 0.19902 0.0
H192 H 0.05686 0.58125 0.19092 0.0
H193 H 0.84883 0.5709 0.12193 0.0
O194 O 0.78527 0.59721 0.41859 0.0
H195 H 0.83374 0.75828 0.36743 0.0
H196 H 0.62225 0.63754 0.43926 0.0
H197 H 0.09111 0.71263 0.10935 0.0
H198 H 0.98739 0.51848 0.41278 0.0
H199 H 0.03199 0.66427 0.02648 0.0
H200 H 0.1371 0.51199 0.39705 0.0
O201 O 0.80561 0.64986 0.20445 0.0
H202 H 0.50653 0.52527 0.39477 0.0
H203 H 0.67731 0.61013 0.24782 0.0
H204 H 0.53857 0.58217 0.2304 0.0
H205 H 0.45094 0.54014 0.30474 0.0
H206 H 0.64519 0.55627 0.41023 0.0
H207 H 0.52036 0.69329 0.44708 0.0
H208 H 0.53224 0.79887 0.38113 0.0
O209 O 0.76923 0.69196 0.27955 0.0
C210 C 0.95285 0.70125 0.31853 0.0
C211 C 0.7248 0.79697 0.35131 0.0
C212 C 0.56835 0.7115 0.42124 0.0
N213 N 0.73097 0.69594 0.39938 0.0
C214 C 0.77204 0.74964 0.37197 0.0
C215 C 0.64546 0.67852 0.42596 0.0
C216 C 0.57747 0.77388 0.38388 0.0
C217 C 0.94993 0.54946 0.32729 0.0
N218 N 0.96654 0.56866 0.26547 0.0
C219 C 0.01079 0.52828 0.37237 0.0
C220 C 0.10321 0.52271 0.36322 0.0
C221 C 0.14662 0.53611 0.30341 0.0
C222 C 0.04846 0.56969 0.23339 0.0
C223 C 0.93805 0.61281 0.06982 0.0
C224 C 0.00588 0.6643 0.16335 0.0
C225 C 0.90478 0.5992 0.12088 0.0
N226 N 0.9399 0.62313 0.16746 0.0
C227 C 0.04042 0.67921 0.11267 0.0
C228 C 0.00658 0.65282 0.06587 0.0
C229 C 0.77841 0.68995 0.22687 0.0
C230 C 0.54333 0.54765 0.36318 0.0
C231 C 0.64091 0.5977 0.28198 0.0
C232 C 0.56114 0.57978 0.27121 0.0
C233 C 0.51182 0.55613 0.31281 0.0
N234 N 0.67058 0.59795 0.33396 0.0
C235 C 0.62349 0.56669 0.37206 0.0
Co236 Co 0.3809 0.82162 0.69313 0.0
Co237 Co 0.2737 0.75079 0.58928 0.0
O238 O 0.31985 0.81895 0.62689 0.0
C239 C 0.30141 0.92471 0.70068 0.0
O240 O 0.29133 0.92445 0.6478 0.0
C241 C 0.27982 0.84726 0.50411 0.0
O242 O 0.32121 0.8839 0.53727 0.0
O243 O 0.3931 0.73308 0.58117 0.0
O244 O 0.43739 0.76002 0.66555 0.0
H245 H 0.22351 0.5434 0.55359 0.0
H246 H 0.43176 0.95621 0.67126 0.0
O247 O 0.32806 0.88433 0.72339 0.0
H248 H 0.60205 0.86871 0.55946 0.0
H249 H 0.66419 0.90092 0.80286 0.0
H250 H 0.33913 0.78391 0.81068 0.0
H251 H 0.54797 0.82572 0.64471 0.0
H252 H 0.56972 0.8746 0.77641 0.0
O253 O 0.27218 0.79451 0.51617 0.0
H254 H 0.29211 0.63264 0.59381 0.0
H255 H 0.14398 0.72028 0.50606 0.0
H256 H 0.48807 0.79219 0.89007 0.0
H257 H 0.48156 0.00186 0.58749 0.0
H258 H 0.57519 0.803 0.92947 0.0
H259 H 0.56554 0.95563 0.52802 0.0
O260 O 0.29411 0.7575 0.72691 0.0
H261 H 0.04165 0.83057 0.52946 0.0
H262 H 0.14647 0.74461 0.68424 0.0
H263 H 0.02094 0.76756 0.68903 0.0
H264 H 0.95571 0.79433 0.60592 0.0
H265 H 0.1747 0.84699 0.5643 0.0
H266 H 0.07376 0.6327 0.4661 0.0
H267 H 0.11388 0.54347 0.4889 0.0
O268 O 0.25936 0.70199 0.656 0.0
C269 C 0.4496 0.73836 0.61885 0.0
C270 C 0.20578 0.58224 0.54316 0.0
C271 C 0.12136 0.63225 0.49436 0.0
N272 N 0.22256 0.68213 0.55294 0.0
C273 C 0.24459 0.63286 0.5657 0.0
C274 C 0.16102 0.68196 0.51799 0.0
C275 C 0.14419 0.5822 0.50695 0.0
C276 C 0.45522 0.93153 0.64244 0.0
N277 N 0.46329 0.87791 0.65413 0.0
C278 C 0.49035 0.96013 0.59671 0.0
C279 C 0.53905 0.93522 0.56433 0.0
C280 C 0.55935 0.8861 0.58196 0.0
C281 C 0.52421 0.85985 0.62877 0.0
C282 C 0.59837 0.87359 0.80539 0.0
C283 C 0.40113 0.79367 0.81157 0.0
C284 C 0.52518 0.86621 0.75337 0.0
N285 N 0.44213 0.82883 0.76183 0.0
C286 C 0.43774 0.7805 0.87354 0.0
C287 C 0.53686 0.81152 0.89052 0.0
C288 C 0.25876 0.70946 0.70679 0.0
C289 C 0.06233 0.80576 0.56073 0.0
C290 C 0.12526 0.75903 0.648 0.0
C291 C 0.05103 0.77137 0.65113 0.0
C292 C 0.01568 0.78851 0.60498 0.0
N293 N 0.16873 0.77054 0.60181 0.0
C294 C 0.14155 0.80542 0.56629 0.0
Co295 Co 0.9407 0.85672 0.76778 0.0
Co296 Co 0.78556 0.8397 0.85542 0.0
O297 O 0.89416 0.84495 0.84037 0.0
C298 C 0.98141 0.75455 0.81769 0.0
O299 O 0.96768 0.77388 0.86541 0.0
C300 C 0.84354 0.88512 0.9767 0.0
O301 O 0.91733 0.9085 0.96871 0.0
O302 O 0.79471 0.92005 0.82265 0.0
O303 O 0.88903 0.92316 0.75843 0.0
H304 H 0.5205 0.76381 0.76929 0.0
H305 H 0.01593 0.86811 0.88302 0.0
O306 O 0.98868 0.78696 0.77607 0.0
H307 H 0.18497 0.00395 0.76715 0.0
H308 H 0.15794 0.9223 0.63199 0.0
H309 H 0.87446 0.88391 0.66501 0.0
H310 H 0.04978 0.96643 0.7403 0.0
H311 H 0.10382 0.86931 0.71413 0.0
O312 O 0.80046 0.86429 0.9362 0.0
H313 H 0.65413 0.75449 0.81625 0.0
H314 H 0.70423 0.9139 0.9207 0.0
H315 H 0.92745 0.93512 0.58333 0.0
H316 H 0.14017 0.91951 0.91896 0.0
H317 H 0.07062 0.95603 0.56685 0.0
H318 H 0.23139 -0.01863 0.85885 0.0
O319 O 0.85203 0.80151 0.72898 0.0
H320 H 0.88475 0.70551 -0.01592 0.0
H321 H 0.75825 0.71795 0.80937 0.0
H322 H 0.79411 0.63174 0.83428 0.0
H323 H 0.85718 0.62466 0.92466 0.0
H324 H 0.85612 0.79141 0.95543 0.0
H325 H 0.60728 0.90147 0.89499 0.0
H326 H 0.43445 0.88961 0.83959 0.0
O327 O 0.75357 0.81087 0.77966 0.0
C328 C 0.83608 0.94457 0.78155 0.0
C329 C 0.53677 0.78727 0.80586 0.0
C330 C 0.55736 0.90987 0.88809 0.0
N331 N 0.67291 0.83378 0.86826 0.0
C332 C 0.62692 0.78632 0.83032 0.0
C333 C 0.64899 0.88767 0.89669 0.0
C334 C 0.48811 0.87364 0.84611 0.0
C335 C 0.05236 0.89653 0.85612 0.0
N336 N 0.02987 0.90607 0.80396 0.0
C337 C 0.12385 0.92504 0.87716 0.0
C338 C 0.1749 0.9604 0.84354 0.0
C339 C 0.14879 0.97347 0.79265 0.0
C340 C 0.07252 0.95053 0.77665 0.0
C341 C 0.09609 0.91344 0.63929 0.0
C342 C 0.93688 0.89073 0.65777 0.0
C343 C 0.06467 0.88309 0.68522 0.0
N344 N 0.98586 0.87445 0.69549 0.0
C345 C 0.96645 0.9203 0.61129 0.0
C346 C 0.04675 0.93246 0.60242 0.0
C347 C 0.77903 0.7878 0.73969 0.0
C348 C 0.85398 0.70792 0.94616 0.0
C349 C 0.78164 0.71712 0.84838 0.0
C350 C 0.80392 0.66675 0.86231 0.0
C351 C 0.83938 0.66231 0.91211 0.0
N352 N 0.79163 0.76258 0.88263 0.0
C353 C 0.83191 0.75746 0.93027 0.0
Co354 Co 0.03908 0.59526 0.76801 0.0
Co355 Co 0.19424 0.61244 0.85567 0.0
O356 O 0.0857 0.60724 0.84055 0.0
C357 C -0.0013 0.69771 0.81773 0.0
O358 O 0.0127 0.67861 0.86547 0.0
C359 C 0.13584 0.56713 0.97684 0.0
O360 O 0.062 0.54393 0.9688 0.0
O361 O 0.18503 0.53202 0.82285 0.0
O362 O 0.09059 0.52873 0.75871 0.0
H363 H 0.45927 0.68829 0.7699 0.0
H364 H 0.96393 0.58441 0.88327 0.0
O365 O -0.00878 0.66512 0.77619 0.0
H366 H 0.79472 0.44808 0.76778 0.0
H367 H 0.82156 0.52871 0.63274 0.0
H368 H 0.10517 0.56792 0.6652 0.0
H369 H 0.92994 0.48544 0.74084 0.0
H370 H 0.87582 0.5824 0.71453 0.0
O371 O 0.17906 0.58783 0.93638 0.0
H372 H 0.3256 0.69759 0.81696 0.0
H373 H 0.27546 0.53817 0.921 0.0
H374 H 0.05213 0.51652 0.58362 0.0
H375 H 0.83984 0.53297 0.91945 0.0
H376 H 0.90887 0.49498 0.56751 0.0
H377 H 0.74846 0.47096 0.85946 0.0
O378 O 0.12784 0.65023 0.72908 0.0
H379 H 0.09603 0.74726 -0.01547 0.0
H380 H 0.22126 0.73402 0.80943 0.0
H381 H 0.18561 0.82031 0.83429 0.0
H382 H 0.12299 0.82781 0.92475 0.0
H383 H 0.12501 0.66132 0.95624 0.0
H384 H 0.37239 0.55051 0.89524 0.0
H385 H 0.54523 0.56238 0.83975 0.0
O386 O 0.22636 0.6413 0.77994 0.0
C387 C 0.14359 0.50738 0.7818 0.0
C388 C 0.44297 0.66478 0.80636 0.0
C389 C 0.42231 0.5421 0.88827 0.0
N390 N 0.30684 0.61828 0.8687 0.0
C391 C 0.35285 0.66575 0.83088 0.0
C392 C 0.33071 0.56434 0.89699 0.0
C393 C 0.49157 0.57835 0.84633 0.0
C394 C 0.9275 0.55582 0.85648 0.0
N395 N 0.9499 0.54608 0.80432 0.0
C396 C 0.85608 0.52731 0.87764 0.0
C397 C 0.80495 0.49185 0.84411 0.0
C398 C 0.83097 0.47862 0.79322 0.0
C399 C 0.90723 0.50148 0.77715 0.0
C400 C 0.88344 0.53782 0.63987 0.0
C401 C 0.04273 0.56099 0.65805 0.0
C402 C 0.91494 0.56853 0.68562 0.0
N403 N -0.00621 0.57733 0.69579 0.0
C404 C 0.01311 0.53123 0.61165 0.0
C405 C 0.93278 0.51876 0.60297 0.0
C406 C 0.20085 0.66401 0.73977 0.0
C407 C 0.12641 0.74464 0.94648 0.0
C408 C 0.19809 0.73498 0.84851 0.0
C409 C 0.17596 0.78542 0.86241 0.0
C410 C 0.14075 0.79009 0.91227 0.0
N411 N 0.18831 0.68965 0.88288 0.0
C412 C 0.14848 0.69504 0.93068 0.0
Co413 Co 0.79507 0.17149 0.5951 0.0
Co414 Co 0.81403 0.11764 0.72018 0.0
O415 O 0.78388 0.1067 0.64435 0.0
C416 C 0.6649 0.0836 0.534 0.0
O417 O 0.65346 0.04631 0.57304 0.0
C418 C 0.80426 -0.01357 0.74622 0.0
O419 O 0.75365 0.95991 0.71119 0.0
O420 O 0.93097 0.15796 0.69719 0.0
O421 O 0.89473 0.21567 0.63586 0.0
H422 H 0.8626 0.27492 0.83335 0.0
H423 H 0.79317 0.04947 0.56655 0.0
O424 O 0.70532 0.13326 0.54332 0.0
H425 H 0.03623 0.15891 0.49481 0.0
H426 H 0.80526 0.27625 0.4173 0.0
H427 H 0.81895 0.29277 0.61551 0.0
H428 H 0.93531 0.20518 0.53487 0.0
H429 H 0.79999 0.19149 0.47348 0.0
O430 O 0.84369 0.03659 0.73285 0.0
H431 H 0.89708 0.21566 0.76182 0.0
H432 H 0.83097 0.04353 0.84378 0.0
H433 H 0.81521 0.37609 0.56066 0.0
H434 H 0.88788 0.00075 0.52583 0.0
H435 H 0.80722 0.36798 0.45997 0.0
H436 H 0.01493 0.05498 0.49267 0.0
O437 O 0.72254 0.20989 0.64175 0.0
H438 H 0.5771 0.94722 0.70316 0.0
H439 H 0.61791 0.12139 0.79609 0.0
H440 H 0.54959 0.12484 0.84911 0.0
H441 H 0.47825 0.96376 0.79198 0.0
H442 H 0.69055 0.02184 0.67002 0.0
H443 H 0.79876 0.07224 0.94826 0.0
H444 H 0.79335 0.18676 0.97293 0.0
O445 O 0.78101 0.19409 0.71723 0.0
C446 C 0.9478 0.20469 0.66857 0.0
C447 C 0.83941 0.23185 0.84036 0.0
C448 C 0.8085 0.10418 0.91714 0.0
N449 N 0.85178 0.1293 0.79937 0.0
C450 C 0.86515 0.19294 0.79441 0.0
C451 C 0.8359 0.08769 0.85098 0.0
C452 C 0.79819 0.17316 0.93208 0.0
C453 C 0.84598 0.07438 0.55034 0.0
N454 N 0.86119 0.13182 0.55351 0.0
C455 C 0.90076 0.04586 0.52854 0.0
C456 C 0.97202 0.07625 0.51047 0.0
C457 C 0.98561 0.13438 0.51303 0.0
C458 C 0.92886 0.16117 0.53431 0.0
C459 C 0.80518 0.27939 0.46064 0.0
C460 C 0.81341 0.28807 0.57194 0.0
C461 C 0.8034 0.2318 0.49274 0.0
N462 N 0.8071 0.23652 0.54789 0.0
C463 C 0.81163 0.33583 0.54109 0.0
C464 C 0.80705 0.33129 0.48484 0.0
C465 C 0.73616 0.22031 0.69229 0.0
C466 C 0.58813 -0.01674 0.72836 0.0
C467 C 0.65961 0.12968 0.76999 0.0
C468 C 0.57953 0.1013 0.81369 0.0
C469 C 0.5296 -0.00504 0.7818 0.0
N470 N 0.69564 0.09159 0.73071 0.0
C471 C 0.66215 0.0329 0.70616 0.0
Co472 Co 0.18472 0.28034 0.595 0.0
Co473 Co 0.16563 0.33421 0.72025 0.0
O474 O 0.19571 0.34511 0.6444 0.0
C475 C 0.31399 0.36858 0.53384 0.0
O476 O 0.3244 0.40616 0.57267 0.0
C477 C 0.17538 0.46547 0.74644 0.0
O478 O 0.22598 0.49195 0.7114 0.0
O479 O 0.04875 0.29381 0.69723 0.0
O480 O 0.08487 0.23619 0.63559 0.0
H481 H 0.11691 0.17698 0.83337 0.0
H482 H 0.18493 0.40249 0.56773 0.0
O483 O 0.27462 0.31865 0.54337 0.0
H484 H 0.94479 0.29198 0.49278 0.0
H485 H 0.17531 0.17498 0.41729 0.0
H486 H 0.16091 0.15914 0.61551 0.0
H487 H 0.04643 0.24641 0.5316 0.0
H488 H 0.18089 0.25999 0.47328 0.0
O489 O 0.13595 0.41528 0.73306 0.0
H490 H 0.08256 0.23617 0.76185 0.0
H491 H 0.14869 0.40837 0.8439 0.0
H492 H 0.16495 0.07566 0.56088 0.0
H493 H 0.08997 0.4507 0.52684 0.0
H494 H 0.17316 0.08339 0.46018 0.0
H495 H 0.96416 0.39599 0.49224 0.0
O496 O 0.25724 0.24206 0.64175 0.0
H497 H 0.4024 0.50473 0.70351 0.0
H498 H 0.36175 0.33053 0.79615 0.0
H499 H 0.43006 0.32712 0.84918 0.0
H500 H 0.50131 0.48819 0.79223 0.0
H501 H 0.2891 0.43001 0.6702 0.0
H502 H 0.18089 0.37976 0.94836 0.0
H503 H 0.1862 0.26527 0.97297 0.0
O504 O 0.1986 0.25776 0.71721 0.0
C505 C 0.03192 0.2471 0.66853 0.0
C506 C 0.14023 0.22004 0.84038 0.0
C507 C 0.17116 0.34779 0.91721 0.0
N508 N 0.12789 0.32256 0.79944 0.0
C509 C 0.1145 0.25892 0.79444 0.0
C510 C 0.14376 0.36422 0.85107 0.0
C511 C 0.18146 0.27882 0.93212 0.0
C512 C 0.13271 0.37734 0.55097 0.0
N513 N 0.11848 0.31986 0.55329 0.0
C514 C 0.07773 0.40558 0.52904 0.0
C515 C 0.00715 0.37489 0.51014 0.0
C516 C -0.00541 0.31676 0.51179 0.0
C517 C 0.05177 0.29029 0.5328 0.0
C518 C 0.1754 0.17201 0.46065 0.0
C519 C 0.16674 0.16372 0.57195 0.0
C520 C 0.17736 0.21975 0.49264 0.0
N521 N 0.17317 0.2152 0.5478 0.0
C522 C 0.16866 0.11585 0.54122 0.0
C523 C 0.17337 0.12019 0.48496 0.0
C524 C 0.24355 0.2316 0.69227 0.0
C525 C 0.39145 0.46865 0.72861 0.0
C526 C 0.32006 0.32222 0.77004 0.0
C527 C 0.40011 0.35064 0.81378 0.0
C528 C 0.44997 0.45698 0.78203 0.0
N529 N 0.28402 0.36028 0.73081 0.0
C530 C 0.31748 0.41898 0.70634 0.0
Co531 Co 0.53922 0.0953 0.26804 0.0
Co532 Co 0.69434 0.11254 0.35577 0.0
O533 O 0.58583 0.10731 0.34058 0.0
C534 C 0.49885 0.19777 0.31774 0.0
O535 O 0.51278 0.17865 0.36549 0.0
C536 C 0.63575 0.06706 0.47683 0.0
O537 O 0.56193 0.04383 0.46873 0.0
O538 O 0.68521 0.03216 0.32287 0.0
O539 O 0.59069 0.02876 0.25878 0.0
H540 H 0.95936 0.18852 0.27011 0.0
H541 H 0.46413 0.08442 0.38333 0.0
O542 O 0.49141 0.16518 0.27621 0.0
H543 H 0.29477 0.94819 0.26784 0.0
H544 H 0.32176 0.02909 0.13254 0.0
H545 H 0.60531 0.06789 0.16525 0.0
H546 H 0.42996 -0.01447 0.24085 0.0
H547 H 0.37597 0.08245 0.21452 0.0
O548 O 0.67905 0.08782 0.43642 0.0
H549 H 0.8257 0.19778 0.31727 0.0
H550 H 0.77561 0.03826 0.42111 0.0
H551 H 0.5523 0.01664 0.08358 0.0
H552 H 0.34007 0.03298 0.41954 0.0
H553 H 0.40907 -0.00462 0.0673 0.0
H554 H 0.2486 0.97105 0.35955 0.0
O555 O 0.62801 0.15022 0.2291 0.0
H556 H 0.59602 0.24723 0.48472 0.0
H557 H 0.7213 0.23415 0.30958 0.0
H558 H 0.6856 0.32041 0.33451 0.0
H559 H 0.62294 0.32784 0.42498 0.0
H560 H 0.62509 0.16133 0.45639 0.0
H561 H 0.87252 0.0506 0.39532 0.0
H562 H 0.04534 0.06253 0.33977 0.0
O563 O 0.72653 0.14156 0.28009 0.0
C564 C 0.64375 0.00748 0.28185 0.0
C565 C 0.94306 0.16495 0.30653 0.0
C566 C 0.92243 0.04219 0.38831 0.0
N567 N 0.80697 0.1184 0.36887 0.0
C568 C 0.85296 0.1659 0.3311 0.0
C569 C 0.83085 0.06444 0.3971 0.0
C570 C -0.00832 0.07848 0.34638 0.0
C571 C 0.42766 0.05585 0.35654 0.0
N572 N 0.45002 0.04615 0.30436 0.0
C573 C 0.35626 0.02735 0.37772 0.0
C574 C 0.30508 -0.00807 0.34418 0.0
C575 C 0.33105 -0.02128 0.29328 0.0
C576 C 0.4073 0.00158 0.27718 0.0
C577 C 0.38362 0.03808 0.13975 0.0
C578 C 0.54288 0.06102 0.15806 0.0
C579 C 0.41509 0.0686 0.1856 0.0
N580 N 0.49393 0.07735 0.19581 0.0
C581 C 0.51328 0.03137 0.1116 0.0
C582 C 0.43296 0.01905 0.10283 0.0
C583 C 0.70099 0.16414 0.23985 0.0
C584 C 0.6264 0.24465 0.44666 0.0
C585 C 0.6981 0.23507 0.34867 0.0
C586 C 0.67596 0.2855 0.36262 0.0
C587 C 0.64073 0.29013 0.41248 0.0
N588 N 0.68833 0.18972 0.38302 0.0
C589 C 0.6485 0.19506 0.43082 0.0
Co590 Co 0.59863 0.63019 0.69331 0.0
Co591 Co 0.70585 0.70068 0.58937 0.0
O592 O 0.65948 0.63261 0.62697 0.0
C593 C 0.67816 0.52715 0.7009 0.0
O594 O 0.68818 0.52733 0.648 0.0
C595 C 0.69976 0.60436 0.5038 0.0
O596 O 0.65832 0.56757 0.53677 0.0
O597 O 0.58655 0.71852 0.58123 0.0
O598 O 0.54218 0.69176 0.66563 0.0
H599 H 0.75663 0.90798 0.55341 0.0
H600 H 0.54769 0.49555 0.67166 0.0
O601 O 0.65145 0.56753 0.72361 0.0
H602 H 0.37786 0.58299 0.5595 0.0
H603 H 0.31548 0.55113 0.80316 0.0
H604 H 0.64058 0.66808 0.81093 0.0
H605 H 0.43159 0.62604 0.64488 0.0
H606 H 0.40991 0.57749 0.7767 0.0
O607 O 0.70736 0.65704 0.51617 0.0
H608 H 0.68777 0.81894 0.59378 0.0
H609 H 0.8359 0.73077 0.5065 0.0
H610 H 0.49176 0.65977 0.89052 0.0
H611 H 0.49794 0.44974 0.58787 0.0
H612 H 0.40473 0.64884 0.93005 0.0
H613 H 0.41434 0.49599 0.5282 0.0
O614 O 0.68554 0.69431 0.72702 0.0
H615 H 0.93685 0.61956 0.52983 0.0
H616 H 0.83367 0.70757 0.68411 0.0
H617 H 0.9589 0.68408 0.68888 0.0
H618 H 0.02358 0.65677 0.60568 0.0
H619 H 0.80366 0.60381 0.56484 0.0
H620 H 0.90629 0.81815 0.46632 0.0
H621 H 0.8663 0.90753 0.48881 0.0
O622 O 0.72028 0.74959 0.65604 0.0
C623 C 0.53003 0.71332 0.61889 0.0
C624 C 0.77429 0.86907 0.5431 0.0
C625 C 0.85866 0.81876 0.49452 0.0
N626 N 0.75725 0.76921 0.55309 0.0
C627 C 0.73535 0.81857 0.56574 0.0
C628 C 0.81886 0.76917 0.51824 0.0
C629 C 0.8359 0.8689 0.50694 0.0
C630 C 0.52425 0.52016 0.6428 0.0
N631 N 0.51618 0.57381 0.65443 0.0
C632 C 0.48919 0.49149 0.59705 0.0
C633 C 0.44069 0.51641 0.56457 0.0
C634 C 0.42038 0.56557 0.58213 0.0
C635 C 0.45535 0.59186 0.62899 0.0
C636 C 0.38129 0.57848 0.80569 0.0
C637 C 0.57859 0.65831 0.81189 0.0
C638 C 0.45441 0.58587 0.75364 0.0
N639 N 0.5375 0.62319 0.7621 0.0
C640 C 0.54207 0.67145 0.87394 0.0
C641 C 0.44293 0.64044 0.89096 0.0
C642 C 0.721 0.74226 0.70682 0.0
C643 C 0.91649 0.64474 0.56097 0.0
C644 C 0.85448 0.69261 0.64797 0.0
C645 C 0.92861 0.68008 0.65104 0.0
C646 C 0.96359 0.66256 0.60489 0.0
N647 N 0.81064 0.68068 0.60199 0.0
C648 C 0.83733 0.64525 0.56676 0.0
Co649 Co 0.59643 0.34628 0.73642 0.0
Co650 Co 0.70239 0.30834 0.84976 0.0
O651 O 0.66237 0.36211 0.80284 0.0
C652 C 0.66534 0.4721 0.73051 0.0
O653 O 0.65259 0.4739 0.78276 0.0
C654 C 0.71946 0.36905 0.96791 0.0
O655 O 0.69459 0.41236 -0.01183 0.0
O656 O 0.58141 0.26295 0.85702 0.0
O657 O 0.53736 0.27439 0.77126 0.0
H658 H 0.71813 0.11492 0.84991 0.0
H659 H 0.58396 0.40259 0.84758 0.0
O660 O 0.65287 0.42403 0.70561 0.0
H661 H 0.2737 0.4227 0.80045 0.0
H662 H 0.57007 0.35896 0.53368 0.0
H663 H 0.44617 0.267 0.69905 0.0
H664 H 0.42306 0.37086 0.69107 0.0
H665 H 0.63108 0.38122 0.62215 0.0
O666 O 0.69439 0.35475 0.9188 0.0
H667 H 0.64611 0.19374 0.86748 0.0
H668 H 0.85761 0.31457 0.93935 0.0
H669 H 0.38876 0.23957 0.60934 0.0
H670 H 0.49231 0.4336 0.91304 0.0
H671 H 0.44769 0.28815 0.52659 0.0
H672 H 0.3426 0.44005 0.8973 0.0
O673 O 0.67426 0.3022 0.70458 0.0
H674 H 0.9731 0.42689 0.89519 0.0
H675 H 0.8026 0.34196 0.74804 0.0
H676 H 0.94138 0.36996 0.73074 0.0
H677 H 0.02887 0.412 0.80518 0.0
H678 H 0.83442 0.39584 0.91053 0.0
H679 H 0.95949 0.25884 0.94707 0.0
H680 H 0.94765 0.15323 0.88105 0.0
O681 O 0.71067 0.26012 0.77962 0.0
C682 C 0.52696 0.25079 0.81857 0.0
C683 C 0.75506 0.15505 0.85128 0.0
C684 C 0.91152 0.24061 0.92121 0.0
N685 N 0.74888 0.25612 0.89941 0.0
C686 C 0.70781 0.2024 0.87198 0.0
C687 C 0.83442 0.27359 0.92596 0.0
C688 C 0.9024 0.1782 0.88381 0.0
C689 C 0.52987 0.40266 0.82751 0.0
N690 N 0.51331 0.38346 0.76566 0.0
C691 C 0.46895 0.42379 0.87261 0.0
C692 C 0.37652 0.42932 0.86346 0.0
C693 C 0.33316 0.41592 0.80362 0.0
C694 C 0.43141 0.38241 0.73356 0.0
C695 C 0.54178 0.33944 0.57 0.0
C696 C 0.47404 0.28779 0.66342 0.0
C697 C 0.57512 0.35294 0.62106 0.0
N698 N 0.54002 0.32896 0.66761 0.0
C699 C 0.43945 0.27298 0.61273 0.0
C700 C 0.4732 0.29948 0.56599 0.0
C701 C 0.70149 0.26213 0.72695 0.0
C702 C 0.93636 0.40449 0.86354 0.0
C703 C 0.83895 0.35443 0.78223 0.0
C704 C 0.91873 0.37236 0.77153 0.0
C705 C 0.96798 0.39601 0.8132 0.0
N706 N 0.8092 0.35415 0.83419 0.0
C707 C 0.85619 0.38545 0.87235 0.0
Co708 Co 0.38322 0.10564 0.73627 0.0
Co709 Co 0.2772 0.14357 0.84966 0.0
O710 O 0.3172 0.0898 0.80266 0.0
C711 C 0.31439 -0.02019 0.73028 0.0
O712 O 0.32725 -0.02193 0.78251 0.0
C713 C 0.25995 0.08266 0.9677 0.0
O714 O 0.28487 0.03933 -0.01221 0.0
O715 O 0.39821 0.18893 0.857 0.0
O716 O 0.44222 0.17754 0.77118 0.0
H717 H 0.26152 0.33697 0.84999 0.0
H718 H 0.39567 0.04947 0.84743 0.0
O719 O 0.32684 0.02786 0.70539 0.0
H720 H 0.70588 0.02919 0.80028 0.0
H721 H 0.40948 0.09318 0.5335 0.0
H722 H 0.53357 0.18487 0.69904 0.0
H723 H 0.55663 0.08107 0.69095 0.0
H724 H 0.34862 0.07072 0.62198 0.0
O725 O 0.28505 0.0971 0.91863 0.0
H726 H 0.33354 0.25817 0.86746 0.0
H727 H 0.12208 0.13742 0.93932 0.0
H728 H 0.5909 0.21244 0.60937 0.0
H729 H 0.48723 0.01839 0.91284 0.0
H730 H 0.53176 0.1641 0.5265 0.0
H731 H 0.63693 0.0119 0.8971 0.0
O732 O 0.3054 0.14969 0.70447 0.0
H733 H 0.00632 0.02516 0.89481 0.0
H734 H 0.17711 0.10999 0.74786 0.0
H735 H 0.03837 0.08202 0.73044 0.0
H736 H 0.95073 0.04001 0.80478 0.0
H737 H 0.14497 0.05618 0.91029 0.0
H738 H 0.02015 0.19315 0.94707 0.0
H739 H 0.03201 0.29872 0.8811 0.0
O740 O 0.26903 0.19182 0.77956 0.0
C741 C 0.45264 0.20111 0.81854 0.0
C742 C 0.22459 0.29685 0.85132 0.0
C743 C 0.06813 0.21136 0.92123 0.0
N744 N 0.23077 0.19583 0.89939 0.0
C745 C 0.27184 0.24952 0.87198 0.0
C746 C 0.14525 0.17839 0.92596 0.0
C747 C 0.07725 0.27374 0.88386 0.0
C748 C 0.44974 0.04934 0.82735 0.0
N749 N 0.46634 0.06851 0.76551 0.0
C750 C 0.51061 0.02818 0.87242 0.0
C751 C 0.60303 0.0226 0.86327 0.0
C752 C 0.64643 0.03598 0.80344 0.0
C753 C 0.54825 0.06953 0.73342 0.0
C754 C 0.43782 0.11263 0.56985 0.0
C755 C 0.50567 0.16413 0.66337 0.0
C756 C 0.40457 0.09902 0.62091 0.0
N757 N 0.43969 0.12296 0.66749 0.0
C758 C 0.5402 0.17903 0.61269 0.0
C759 C 0.50636 0.15264 0.56589 0.0
C760 C 0.27822 0.18979 0.72688 0.0
C761 C 0.04313 0.04753 0.86322 0.0
C762 C 0.1407 0.09756 0.78202 0.0
C763 C 0.06094 0.07964 0.77124 0.0
C764 C 0.01162 0.056 0.81285 0.0
N765 N 0.17037 0.09783 0.834 0.0
C766 C 0.12328 0.06657 0.8721 0.0
Co767 Co 0.44084 0.35675 0.26777 0.0
Co768 Co 0.28567 0.33981 0.35535 0.0
O769 O 0.39428 0.34502 0.34037 0.0
C770 C 0.48155 0.2546 0.31769 0.0
O771 O 0.46774 0.27391 0.36541 0.0
C772 C 0.34348 0.38503 0.47673 0.0
O773 O 0.41733 0.40829 0.46883 0.0
O774 O 0.29488 0.42019 0.32264 0.0
O775 O 0.38913 0.4232 0.25838 0.0
H776 H 0.02059 0.26403 0.26911 0.0
H777 H 0.51613 0.36812 0.38298 0.0
O778 O 0.48887 0.28702 0.27608 0.0
H779 H 0.68503 0.50404 0.2671 0.0
H780 H 0.65813 0.42266 0.13219 0.0
H781 H 0.3746 0.38387 0.16497 0.0
H782 H 0.54981 0.46652 0.24031 0.0
H783 H 0.60396 0.36936 0.21416 0.0
O784 O 0.30044 0.3643 0.43617 0.0
H785 H 0.15424 0.25468 0.31597 0.0
H786 H 0.20438 0.414 0.4206 0.0
H787 H 0.4276 0.43522 0.08338 0.0
H788 H 0.64041 0.41952 0.41889 0.0
H789 H 0.57081 0.4564 0.06706 0.0
H790 H 0.73153 0.48144 0.35878 0.0
O791 O 0.35219 0.3015 0.22898 0.0
H792 H 0.38472 0.20548 0.48392 0.0
H793 H 0.25829 0.21808 0.30923 0.0
H794 H 0.29413 0.13185 0.33406 0.0
H795 H 0.35716 0.12469 0.42444 0.0
H796 H 0.35616 0.29141 0.45532 0.0
H797 H 0.10741 0.40158 0.39493 0.0
H798 H 0.93456 0.38976 0.33958 0.0
O799 O 0.25374 0.31113 0.27953 0.0
C800 C 0.33624 0.44468 0.28151 0.0
C801 C 0.03686 0.28744 0.30571 0.0
C802 C 0.05748 0.40997 0.38806 0.0
N803 N 0.17303 0.33391 0.36811 0.0
C804 C 0.12703 0.28648 0.33012 0.0
C805 C 0.14912 0.38778 0.3966 0.0
C806 C 0.98822 0.37378 0.34607 0.0
C807 C 0.55253 0.39656 0.35609 0.0
N808 N 0.52998 0.40613 0.30394 0.0
C809 C 0.62404 0.42507 0.37711 0.0
C810 C 0.67503 0.46047 0.34348 0.0
C811 C 0.64887 0.47356 0.29262 0.0
C812 C 0.57259 0.45062 0.27664 0.0
C813 C 0.59627 0.41368 0.13942 0.0
C814 C 0.43703 0.39076 0.15777 0.0
C815 C 0.56482 0.38316 0.18525 0.0
N816 N 0.486 0.37447 0.19549 0.0
C817 C 0.46661 0.42043 0.11135 0.0
C818 C 0.54693 0.43272 0.10256 0.0
C819 C 0.27917 0.28793 0.23962 0.0
C820 C 0.35397 0.20793 0.446 0.0
C821 C 0.28165 0.21722 0.34823 0.0
C822 C 0.30393 0.16684 0.36212 0.0
C823 C 0.33937 0.16235 0.41191 0.0
N824 N 0.29165 0.26266 0.38251 0.0
C825 C 0.33191 0.25748 0.43015 0.0
Co826 Co 0.2952 0.67163 0.09506 0.0
Co827 Co 0.31423 0.61779 0.22016 0.0
O828 O 0.28408 0.60686 0.14433 0.0
C829 C 0.16513 0.58367 0.03399 0.0
O830 O 0.15391 0.54633 0.07299 0.0
C831 C 0.30446 0.48655 0.24618 0.0
O832 O 0.25386 0.46006 0.21112 0.0
O833 O 0.43115 0.65813 0.19717 0.0
O834 O 0.39493 0.71581 0.13578 0.0
H835 H 0.36281 0.77505 0.33335 0.0
H836 H 0.29359 0.54957 0.06674 0.0
O837 O 0.20539 0.63338 0.04333 0.0
H838 H 0.53606 0.65922 -0.00565 0.0
H839 H 0.30507 0.77647 0.91729 0.0
H840 H 0.31912 0.7929 0.1155 0.0
H841 H 0.43499 0.70536 0.03415 0.0
H842 H 0.29982 0.69167 0.97343 0.0
O843 O 0.34389 0.53673 0.23285 0.0
H844 H 0.39727 0.71582 0.26182 0.0
H845 H 0.3312 0.54367 0.34375 0.0
H846 H 0.3153 0.87625 0.06071 0.0
H847 H 0.38838 0.50094 0.02602 0.0
H848 H 0.30718 0.86819 0.96002 0.0
H849 H 0.51518 0.55527 -0.00744 0.0
O850 O 0.2227 0.71003 0.14175 0.0
H851 H 0.07734 0.44738 0.20308 0.0
H852 H 0.11811 0.62152 0.29608 0.0
H853 H 0.04977 0.62495 0.3491 0.0
H854 H 0.97845 0.46389 0.29191 0.0
H855 H 0.19078 0.52201 0.16999 0.0
H856 H 0.29904 0.57237 0.44824 0.0
H857 H 0.29367 0.68689 0.47294 0.0
O858 O 0.28121 0.69424 0.21721 0.0
C859 C 0.44797 0.70485 0.16855 0.0
C860 C 0.3396 0.73199 0.34036 0.0
C861 C 0.30875 0.60431 0.41712 0.0
N862 N 0.35198 0.62945 0.29935 0.0
C863 C 0.36534 0.69309 0.2944 0.0
C864 C 0.33613 0.58783 0.35095 0.0
C865 C 0.29843 0.67329 0.43207 0.0
C866 C 0.34629 0.57453 0.05043 0.0
N867 N 0.36131 0.63198 0.05343 0.0
C868 C 0.40112 0.54605 0.02862 0.0
C869 C 0.47225 0.57651 0.01037 0.0
C870 C 0.48562 0.63464 0.01273 0.0
C871 C 0.42878 0.66137 0.03396 0.0
C872 C 0.30508 0.77959 0.96064 0.0
C873 C 0.31349 0.78822 0.07193 0.0
C874 C 0.30329 0.73197 -0.0073 0.0
N875 N 0.30712 0.73668 0.04785 0.0
C876 C 0.31167 0.83599 0.04111 0.0
C877 C 0.30702 0.83148 -0.01514 0.0
C878 C 0.23635 0.72046 0.19229 0.0
C879 C 0.08835 0.48342 0.2283 0.0
C880 C 0.15982 0.62982 0.26999 0.0
C881 C 0.07973 0.60143 0.31367 0.0
C882 C 0.0298 0.4951 0.28174 0.0
N883 N 0.19585 0.59175 0.2307 0.0
C884 C 0.16237 0.53306 0.20613 0.0
Co885 Co 0.68486 0.7805 0.09503 0.0
Co886 Co 0.66583 0.83437 0.22026 0.0
O887 O 0.69591 0.84528 0.14442 0.0
C888 C 0.81421 0.86867 0.03384 0.0
O889 O 0.82482 0.90622 0.07271 0.0
C890 C 0.67558 0.9656 0.24649 0.0
O891 O 0.72619 -0.0079 0.21148 0.0
O892 O 0.54893 0.79398 0.19725 0.0
O893 O 0.58507 0.73634 0.13566 0.0
H894 H 0.61713 0.67711 0.33336 0.0
H895 H 0.68533 0.90263 0.06756 0.0
O896 O 0.77471 0.81878 0.04336 0.0
H897 H 0.44465 0.79226 -0.0068 0.0
H898 H 0.67513 0.67523 0.91728 0.0
H899 H 0.66106 0.65928 0.1155 0.0
H900 H 0.54617 0.74658 0.0323 0.0
H901 H 0.68075 0.7602 0.97333 0.0
O902 O 0.63614 0.91543 0.23306 0.0
H903 H 0.58275 0.73633 0.26185 0.0
H904 H 0.64892 0.90851 0.34393 0.0
H905 H 0.665 0.57582 0.0608 0.0
H906 H 0.59043 0.9509 0.02666 0.0
H907 H 0.67307 0.58362 0.9601 0.0
H908 H 0.4644 0.89625 -0.00767 0.0
O909 O 0.7574 0.7422 0.14174 0.0
H910 H 0.90265 0.0049 0.20359 0.0
H911 H 0.86194 0.83066 0.29616 0.0
H912 H 0.93024 0.82723 0.34918 0.0
H913 H 0.0015 -0.01168 0.29232 0.0
H914 H 0.78934 0.9302 0.17024 0.0
H915 H 0.68117 0.87989 0.44837 0.0
H916 H 0.68653 0.76539 0.47296 0.0
O917 O 0.6988 0.75792 0.21722 0.0
C918 C 0.53209 0.74727 0.16854 0.0
C919 C 0.64042 0.72018 0.34038 0.0
C920 C 0.6714 0.84793 0.41722 0.0
N921 N 0.62809 0.82271 0.29945 0.0
C922 C 0.61469 0.75907 0.29445 0.0
C923 C 0.64399 0.86436 0.35109 0.0
C924 C 0.6817 0.77895 0.43212 0.0
C925 C 0.63301 0.87751 0.05089 0.0
N926 N 0.61862 0.82004 0.05337 0.0
C927 C 0.57808 0.90579 0.02897 0.0
C928 C 0.50737 0.87514 0.01022 0.0
C929 C 0.49462 0.81701 0.01205 0.0
C930 C 0.55172 0.79049 0.03313 0.0
C931 C 0.6753 0.67223 0.96064 0.0
C932 C 0.66681 0.66388 0.07193 0.0
C933 C 0.67726 0.71995 -0.00734 0.0
N934 N 0.67321 0.71537 0.04781 0.0
C935 C 0.66868 0.61603 0.04117 0.0
C936 C 0.67331 0.6204 -0.01509 0.0
C937 C 0.74374 0.73176 0.19227 0.0
C938 C 0.89167 0.96882 0.22868 0.0
C939 C 0.82026 0.82237 0.27004 0.0
C940 C 0.9003 0.85076 0.3138 0.0
C941 C 0.95017 0.95712 0.2821 0.0
N942 N 0.78423 0.86044 0.23082 0.0
C943 C 0.8177 0.91916 0.20638 0.0
loop_
_geom_bond_atom_site_label_1
_geom_bond_atom_site_label_2
_geom_bond_distance
_geom_bond_site_symmetry_2
_ccdc_geom_bond_type
Co0 O2 2.143 . S
Co0 O8 2.074 . S
Co0 O11 2.093 . S
Co0 O24 2.097 . S
Co0 N41 2.151 . S
Co0 N49 2.214 . S
Co1 O2 2.160 . S
Co1 O7 2.058 . S
Co1 O17 2.057 . S
Co1 O32 2.037 . S
Co1 N36 2.145 . S
Co1 N57 2.257 . S
O2 Co0 2.143 . S
O2 Co1 2.160 . S
C3 O4 1.278 . S
C3 O11 1.224 . S
O4 C3 1.278 . S
C5 O6 1.245 . S
C5 O17 1.232 . S
O6 C5 1.245 . S
O7 Co1 2.058 . S
O7 C33 1.269 . S
O8 Co0 2.074 . S
O8 C33 1.257 . S
H9 C34 0.930 . S
H10 C40 0.930 . S
O11 Co0 2.093 . S
O11 C3 1.224 . S
H12 C44 0.929 . S
H13 C46 0.930 . S
H14 C47 0.930 . S
H15 C45 0.929 . S
H16 C48 0.928 . S
O17 Co1 2.057 . S
O17 C5 1.232 . S
H18 C37 0.929 . S
H19 C38 0.929 . S
H20 C50 0.931 . S
H21 C42 0.929 . S
H22 C51 0.930 . S
H23 C43 0.931 . S
O24 Co0 2.097 . S
O24 C52 1.214 . S
H25 C53 0.929 . S
H26 C54 0.929 . S
H27 C55 0.930 . S
H28 C56 0.929 . S
H29 C58 0.930 . S
H30 C35 0.930 1_556 S
H31 C39 0.930 . S
O32 Co1 2.037 . S
O32 C52 1.234 . S
C33 O7 1.269 . S
C33 O8 1.257 . S
C34 H9 0.930 . S
C34 C37 1.388 . S
C34 C39 1.418 . S
C35 H30 0.930 1_554 S
C35 C38 1.404 . S
C35 C39 1.353 . S
N36 Co1 2.145 . S
N36 C37 1.397 . S
N36 C38 1.334 . S
C37 H18 0.929 . S
C37 C34 1.388 . S
C37 N36 1.397 . S
C38 H19 0.929 . S
C38 C35 1.404 . S
C38 N36 1.334 . S
C39 H31 0.930 . S
C39 C34 1.418 . S
C39 C35 1.353 . S
C40 H10 0.930 . S
C40 N41 1.330 . S
C40 C42 1.446 1_445 S
N41 Co0 2.151 . S
N41 C40 1.330 . S
N41 C45 1.418 1_455 S
C42 H21 0.929 . S
C42 C40 1.446 1_665 S
C42 C43 1.332 . S
C43 H23 0.931 . S
C43 C42 1.332 . S
C43 C44 1.267 1_565 S
C44 H12 0.929 . S
C44 C43 1.267 1_545 S
C44 C45 1.251 . S
C45 H15 0.929 . S
C45 N41 1.418 1_655 S
C45 C44 1.251 . S
C46 H13 0.930 . S
C46 C48 1.406 . S
C46 C51 1.261 . S
C47 H14 0.930 . S
C47 N49 1.325 . S
C47 C50 1.357 1_455 S
C48 H16 0.928 . S
C48 C46 1.406 . S
C48 N49 1.261 1_655 S
N49 Co0 2.214 . S
N49 C47 1.325 . S
N49 C48 1.261 1_455 S
C50 H20 0.931 . S
C50 C47 1.357 1_655 S
C50 C51 1.312 . S
C51 H22 0.930 . S
C51 C46 1.261 . S
C51 C50 1.312 . S
C52 O24 1.214 . S
C52 O32 1.234 . S
C53 H25 0.929 . S
C53 C56 1.391 . S
C53 C58 1.391 . S
C54 H26 0.929 . S
C54 C55 1.390 . S
C54 N57 1.391 . S
C55 H27 0.930 . S
C55 C54 1.390 . S
C55 C56 1.392 . S
C56 H28 0.929 . S
C56 C53 1.391 . S
C56 C55 1.392 . S
N57 Co1 2.257 . S
N57 C54 1.391 . S
N57 C58 1.388 . S
C58 H29 0.930 . S
C58 C53 1.391 . S
C58 N57 1.388 . S
Co59 O61 2.143 . S
Co59 O67 2.074 . S
Co59 O70 2.093 . S
Co59 O83 2.097 . S
Co59 N100 2.151 . S
Co59 N108 2.214 . S
Co60 O61 2.160 . S
Co60 O66 2.058 . S
Co60 O76 2.057 . S
Co60 O91 2.037 . S
Co60 N95 2.145 . S
Co60 N116 2.257 . S
O61 Co59 2.143 . S
O61 Co60 2.160 . S
C62 O63 1.278 . S
C62 O70 1.224 . S
O63 C62 1.278 . S
C64 O65 1.245 . S
C64 O76 1.232 . S
O65 C64 1.245 . S
O66 Co60 2.058 . S
O66 C92 1.269 . S
O67 Co59 2.074 . S
O67 C92 1.257 . S
H68 C93 0.930 . S
H69 C99 0.930 . S
O70 Co59 2.093 . S
O70 C62 1.224 . S
H71 C103 0.929 . S
H72 C105 0.930 . S
H73 C106 0.930 . S
H74 C104 0.929 . S
H75 C107 0.928 . S
O76 Co60 2.057 . S
O76 C64 1.232 . S
H77 C96 0.929 . S
H78 C97 0.929 . S
H79 C109 0.931 . S
H80 C101 0.929 . S
H81 C110 0.930 . S
H82 C102 0.931 . S
O83 Co59 2.097 . S
O83 C111 1.214 . S
H84 C112 0.929 . S
H85 C113 0.929 . S
H86 C114 0.930 . S
H87 C115 0.929 . S
H88 C117 0.930 . S
H89 C94 0.930 1_556 S
H90 C98 0.930 . S
O91 Co60 2.037 . S
O91 C111 1.234 . S
C92 O66 1.269 . S
C92 O67 1.257 . S
C93 H68 0.930 . S
C93 C96 1.388 . S
C93 C98 1.418 . S
C94 H89 0.930 1_554 S
C94 C97 1.404 . S
C94 C98 1.353 . S
N95 Co60 2.145 . S
N95 C96 1.397 . S
N95 C97 1.334 . S
C96 H77 0.929 . S
C96 C93 1.388 . S
C96 N95 1.397 . S
C97 H78 0.929 . S
C97 C94 1.404 . S
C97 N95 1.334 . S
C98 H90 0.930 . S
C98 C93 1.418 . S
C98 C94 1.353 . S
C99 H69 0.930 . S
C99 N100 1.330 . S
C99 C101 1.446 1_655 S
N100 Co59 2.151 . S
N100 C99 1.330 . S
N100 C104 1.418 1_655 S
C101 H80 0.929 . S
C101 C99 1.446 1_455 S
C101 C102 1.332 . S
C102 H82 0.931 . S
C102 C101 1.332 . S
C102 C103 1.267 . S
C103 H71 0.929 . S
C103 C102 1.267 . S
C103 C104 1.251 . S
C104 H74 0.929 . S
C104 N100 1.418 1_455 S
C104 C103 1.251 . S
C105 H72 0.930 . S
C105 C107 1.406 . S
C105 C110 1.261 . S
C106 H73 0.930 . S
C106 N108 1.325 . S
C106 C109 1.357 1_655 S
C107 H75 0.928 . S
C107 C105 1.406 . S
C107 N108 1.261 1_455 S
N108 Co59 2.214 . S
N108 C106 1.325 . S
N108 C107 1.261 1_655 S
C109 H79 0.931 . S
C109 C106 1.357 1_455 S
C109 C110 1.312 . S
C110 H81 0.930 . S
C110 C105 1.261 . S
C110 C109 1.312 . S
C111 O83 1.214 . S
C111 O91 1.234 . S
C112 H84 0.929 . S
C112 C115 1.391 . S
C112 C117 1.391 . S
C113 H85 0.929 . S
C113 C114 1.390 . S
C113 N116 1.391 . S
C114 H86 0.930 . S
C114 C113 1.390 . S
C114 C115 1.392 . S
C115 H87 0.929 . S
C115 C112 1.391 . S
C115 C114 1.392 . S
N116 Co60 2.257 . S
N116 C113 1.391 . S
N116 C117 1.388 . S
C117 H88 0.930 . S
C117 C112 1.391 . S
C117 N116 1.388 . S
Co118 O120 2.143 . S
Co118 O126 2.074 . S
Co118 O129 2.093 . S
Co118 O142 2.097 . S
Co118 N159 2.151 . S
Co118 N167 2.214 . S
Co119 O120 2.160 . S
Co119 O125 2.058 . S
Co119 O135 2.057 . S
Co119 O150 2.037 . S
Co119 N154 2.145 . S
Co119 N175 2.257 . S
O120 Co118 2.143 . S
O120 Co119 2.160 . S
C121 O122 1.278 . S
C121 O129 1.224 . S
O122 C121 1.278 . S
C123 O124 1.245 . S
C123 O135 1.232 . S
O124 C123 1.245 . S
O125 Co119 2.058 . S
O125 C151 1.269 . S
O126 Co118 2.074 . S
O126 C151 1.257 . S
H127 C152 0.930 . S
H128 C158 0.930 . S
O129 Co118 2.093 . S
O129 C121 1.224 . S
H130 C162 0.929 . S
H131 C164 0.930 . S
H132 C165 0.930 . S
H133 C163 0.929 . S
H134 C166 0.928 . S
O135 Co119 2.057 . S
O135 C123 1.232 . S
H136 C155 0.929 . S
H137 C156 0.929 . S
H138 C168 0.931 . S
H139 C160 0.929 . S
H140 C169 0.930 . S
H141 C161 0.931 . S
O142 Co118 2.097 . S
O142 C170 1.214 . S
H143 C171 0.929 . S
H144 C172 0.929 . S
H145 C173 0.930 . S
H146 C174 0.929 . S
H147 C176 0.930 . S
H148 C153 0.930 . S
H149 C157 0.930 . S
O150 Co119 2.037 . S
O150 C170 1.234 . S
C151 O125 1.269 . S
C151 O126 1.257 . S
C152 H127 0.930 . S
C152 C155 1.388 . S
C152 C157 1.418 . S
C153 H148 0.930 . S
C153 C156 1.404 . S
C153 C157 1.353 . S
N154 Co119 2.145 . S
N154 C155 1.397 . S
N154 C156 1.334 . S
C155 H136 0.929 . S
C155 C152 1.388 . S
C155 N154 1.397 . S
C156 H137 0.929 . S
C156 C153 1.404 . S
C156 N154 1.334 . S
C157 H149 0.930 . S
C157 C152 1.418 . S
C157 C153 1.353 . S
C158 H128 0.930 . S
C158 N159 1.330 . S
C158 C160 1.446 1_465 S
N159 Co118 2.151 . S
N159 C158 1.330 . S
N159 C163 1.418 1_455 S
C160 H139 0.929 . S
C160 C158 1.446 1_645 S
C160 C161 1.332 1_545 S
C161 H141 0.931 . S
C161 C160 1.332 1_565 S
C161 C162 1.267 . S
C162 H130 0.929 . S
C162 C161 1.267 . S
C162 C163 1.251 . S
C163 H133 0.929 . S
C163 N159 1.418 1_655 S
C163 C162 1.251 . S
C164 H131 0.930 . S
C164 C166 1.406 1_655 S
C164 C169 1.261 . S
C165 H132 0.930 . S
C165 N167 1.325 . S
C165 C168 1.357 1_455 S
C166 H134 0.928 . S
C166 C164 1.406 1_455 S
C166 N167 1.261 . S
N167 Co118 2.214 . S
N167 C165 1.325 . S
N167 C166 1.261 . S
C168 H138 0.931 . S
C168 C165 1.357 1_655 S
C168 C169 1.312 . S
C169 H140 0.930 . S
C169 C164 1.261 . S
C169 C168 1.312 . S
C170 O142 1.214 . S
C170 O150 1.234 . S
C171 H143 0.929 . S
C171 C174 1.391 . S
C171 C176 1.391 . S
C172 H144 0.929 . S
C172 C173 1.390 . S
C172 N175 1.391 . S
C173 H145 0.930 . S
C173 C172 1.390 . S
C173 C174 1.392 . S
C174 H146 0.929 . S
C174 C171 1.391 . S
C174 C173 1.392 . S
N175 Co119 2.257 . S
N175 C172 1.391 . S
N175 C176 1.388 . S
C176 H147 0.930 . S
C176 C171 1.391 . S
C176 N175 1.388 . S
Co177 O179 2.143 . S
Co177 O185 2.074 . S
Co177 O188 2.093 . S
Co177 O201 2.097 . S
Co177 N218 2.151 . S
Co177 N226 2.214 . S
Co178 O179 2.160 . S
Co178 O184 2.058 . S
Co178 O194 2.057 . S
Co178 O209 2.037 . S
Co178 N213 2.145 . S
Co178 N234 2.257 . S
O179 Co177 2.143 . S
O179 Co178 2.160 . S
C180 O181 1.278 . S
C180 O188 1.224 . S
O181 C180 1.278 . S
C182 O183 1.245 . S
C182 O194 1.232 . S
O183 C182 1.245 . S
O184 Co178 2.058 . S
O184 C210 1.269 . S
O185 Co177 2.074 . S
O185 C210 1.257 . S
H186 C211 0.930 . S
H187 C217 0.930 . S
O188 Co177 2.093 . S
O188 C180 1.224 . S
H189 C221 0.929 . S
H190 C223 0.930 . S
H191 C224 0.930 . S
H192 C222 0.929 . S
H193 C225 0.928 . S
O194 Co178 2.057 . S
O194 C182 1.232 . S
H195 C214 0.929 . S
H196 C215 0.929 . S
H197 C227 0.931 . S
H198 C219 0.929 . S
H199 C228 0.930 . S
H200 C220 0.931 . S
O201 Co177 2.097 . S
O201 C229 1.214 . S
H202 C230 0.929 . S
H203 C231 0.929 . S
H204 C232 0.930 . S
H205 C233 0.929 . S
H206 C235 0.930 . S
H207 C212 0.930 . S
H208 C216 0.930 . S
O209 Co178 2.037 . S
O209 C229 1.234 . S
C210 O184 1.269 . S
C210 O185 1.257 . S
C211 H186 0.930 . S
C211 C214 1.388 . S
C211 C216 1.418 . S
C212 H207 0.930 . S
C212 C215 1.404 . S
C212 C216 1.353 . S
N213 Co178 2.145 . S
N213 C214 1.397 . S
N213 C215 1.334 . S
C214 H195 0.929 . S
C214 C211 1.388 . S
C214 N213 1.397 . S
C215 H196 0.929 . S
C215 C212 1.404 . S
C215 N213 1.334 . S
C216 H208 0.930 . S
C216 C211 1.418 . S
C216 C212 1.353 . S
C217 H187 0.930 . S
C217 N218 1.330 . S
C217 C219 1.446 1_655 S
N218 Co177 2.151 . S
N218 C217 1.330 . S
N218 C222 1.418 1_655 S
C219 H198 0.929 . S
C219 C217 1.446 1_455 S
C219 C220 1.332 . S
C220 H200 0.931 . S
C220 C219 1.332 . S
C220 C221 1.267 . S
C221 H189 0.929 . S
C221 C220 1.267 . S
C221 C222 1.251 . S
C222 H192 0.929 . S
C222 N218 1.418 1_455 S
C222 C221 1.251 . S
C223 H190 0.930 . S
C223 C225 1.406 1_455 S
C223 C228 1.261 . S
C224 H191 0.930 . S
C224 N226 1.325 . S
C224 C227 1.357 1_655 S
C225 H193 0.928 . S
C225 C223 1.406 1_655 S
C225 N226 1.261 . S
N226 Co177 2.214 . S
N226 C224 1.325 . S
N226 C225 1.261 . S
C227 H197 0.931 . S
C227 C224 1.357 1_455 S
C227 C228 1.312 . S
C228 H199 0.930 . S
C228 C223 1.261 . S
C228 C227 1.312 . S
C229 O201 1.214 . S
C229 O209 1.234 . S
C230 H202 0.929 . S
C230 C233 1.391 . S
C230 C235 1.391 . S
C231 H203 0.929 . S
C231 C232 1.390 . S
C231 N234 1.391 . S
C232 H204 0.930 . S
C232 C231 1.390 . S
C232 C233 1.392 . S
C233 H205 0.929 . S
C233 C230 1.391 . S
C233 C232 1.392 . S
N234 Co178 2.257 . S
N234 C231 1.391 . S
N234 C235 1.388 . S
C235 H206 0.930 . S
C235 C230 1.391 . S
C235 N234 1.388 . S
Co236 O238 2.143 . S
Co236 O244 2.074 . S
Co236 O247 2.093 . S
Co236 O260 2.097 . S
Co236 N277 2.151 . S
Co236 N285 2.214 . S
Co237 O238 2.160 . S
Co237 O243 2.058 . S
Co237 O253 2.057 . S
Co237 O268 2.037 . S
Co237 N272 2.145 . S
Co237 N293 2.257 . S
O238 Co236 2.143 . S
O238 Co237 2.160 . S
C239 O240 1.278 . S
C239 O247 1.224 . S
O240 C239 1.278 . S
C241 O242 1.245 . S
C241 O253 1.232 . S
O242 C241 1.245 . S
O243 Co237 2.058 . S
O243 C269 1.269 . S
O244 Co236 2.074 . S
O244 C269 1.257 . S
H245 C270 0.930 . S
H246 C276 0.930 . S
O247 Co236 2.093 . S
O247 C239 1.224 . S
H248 C280 0.929 . S
H249 C282 0.930 . S
H250 C283 0.930 . S
H251 C281 0.929 . S
H252 C284 0.928 . S
O253 Co237 2.057 . S
O253 C241 1.232 . S
H254 C273 0.929 . S
H255 C274 0.929 . S
H256 C286 0.931 . S
H257 C278 0.929 . S
H258 C287 0.930 . S
H259 C279 0.931 . S
O260 Co236 2.097 . S
O260 C288 1.214 . S
H261 C289 0.929 . S
H262 C290 0.929 . S
H263 C291 0.930 1_655 S
H264 C292 0.929 1_655 S
H265 C294 0.930 . S
H266 C271 0.930 . S
H267 C275 0.930 . S
O268 Co237 2.037 . S
O268 C288 1.234 . S
C269 O243 1.269 . S
C269 O244 1.257 . S
C270 H245 0.930 . S
C270 C273 1.388 . S
C270 C275 1.418 . S
C271 H266 0.930 . S
C271 C274 1.404 . S
C271 C275 1.353 . S
N272 Co237 2.145 . S
N272 C273 1.397 . S
N272 C274 1.334 . S
C273 H254 0.929 . S
C273 C270 1.388 . S
C273 N272 1.397 . S
C274 H255 0.929 . S
C274 C271 1.404 . S
C274 N272 1.334 . S
C275 H267 0.930 . S
C275 C270 1.418 . S
C275 C271 1.353 . S
C276 H246 0.930 . S
C276 N277 1.330 . S
C276 C278 1.446 1_565 S
N277 Co236 2.151 . S
N277 C276 1.330 . S
N277 C281 1.418 . S
C278 H257 0.929 . S
C278 C276 1.446 1_545 S
C278 C279 1.332 . S
C279 H259 0.931 . S
C279 C278 1.332 . S
C279 C280 1.267 1_545 S
C280 H248 0.929 . S
C280 C279 1.267 1_565 S
C280 C281 1.251 . S
C281 H251 0.929 . S
C281 N277 1.418 . S
C281 C280 1.251 . S
C282 H249 0.930 . S
C282 C284 1.406 . S
C282 C287 1.261 . S
C283 H250 0.930 . S
C283 N285 1.325 . S
C283 C286 1.357 . S
C284 H252 0.928 . S
C284 C282 1.406 . S
C284 N285 1.261 . S
N285 Co236 2.214 . S
N285 C283 1.325 . S
N285 C284 1.261 . S
C286 H256 0.931 . S
C286 C283 1.357 . S
C286 C287 1.312 . S
C287 H258 0.930 . S
C287 C282 1.261 . S
C287 C286 1.312 . S
C288 O260 1.214 . S
C288 O268 1.234 . S
C289 H261 0.929 . S
C289 C292 1.391 . S
C289 C294 1.391 . S
C290 H262 0.929 . S
C290 C291 1.390 . S
C290 N293 1.391 . S
C291 H263 0.930 1_455 S
C291 C290 1.390 . S
C291 C292 1.392 . S
C292 H264 0.929 1_455 S
C292 C289 1.391 . S
C292 C291 1.392 . S
N293 Co237 2.257 . S
N293 C290 1.391 . S
N293 C294 1.388 . S
C294 H265 0.930 . S
C294 C289 1.391 . S
C294 N293 1.388 . S
Co295 O297 2.143 . S
Co295 O303 2.074 . S
Co295 O306 2.093 1_655 S
Co295 O319 2.097 . S
Co295 N336 2.151 1_655 S
Co295 N344 2.214 1_655 S
Co296 O297 2.160 . S
Co296 O302 2.058 . S
Co296 O312 2.057 . S
Co296 O327 2.037 . S
Co296 N331 2.145 . S
Co296 N352 2.257 . S
O297 Co295 2.143 . S
O297 Co296 2.160 . S
C298 O299 1.274 1_455 S
C298 O306 1.225 . S
O299 C298 1.274 1_655 S
C300 O301 1.245 . S
C300 O312 1.232 . S
O301 C300 1.245 . S
O302 Co296 2.058 . S
O302 C328 1.269 . S
O303 Co295 2.074 . S
O303 C328 1.257 . S
H304 C329 0.930 . S
H305 C335 0.930 . S
O306 Co295 2.093 1_455 S
O306 C298 1.225 . S
H307 C339 0.929 . S
H308 C341 0.930 . S
H309 C342 0.930 . S
H310 C340 0.929 1_545 S
H311 C343 0.928 . S
O312 Co296 2.057 . S
O312 C300 1.232 . S
H313 C332 0.929 . S
H314 C333 0.929 . S
H315 C345 0.931 . S
H316 C337 0.929 . S
H317 C346 0.930 . S
H318 C338 0.931 . S
O319 Co295 2.097 . S
O319 C347 1.214 . S
H320 C348 0.929 . S
H321 C349 0.929 . S
H322 C350 0.930 . S
H323 C351 0.929 . S
H324 C353 0.930 . S
H325 C330 0.930 . S
H326 C334 0.930 . S
O327 Co296 2.037 . S
O327 C347 1.234 . S
C328 O302 1.269 . S
C328 O303 1.257 . S
C329 H304 0.930 . S
C329 C332 1.388 . S
C329 C334 1.418 . S
C330 H325 0.930 . S
C330 C333 1.404 . S
C330 C334 1.353 . S
N331 Co296 2.145 . S
N331 C332 1.397 . S
N331 C333 1.334 . S
C332 H313 0.929 . S
C332 C329 1.388 . S
C332 N331 1.397 . S
C333 H314 0.929 . S
C333 C330 1.404 . S
C333 N331 1.334 . S
C334 H326 0.930 . S
C334 C329 1.418 . S
C334 C330 1.353 . S
C335 H305 0.930 . S
C335 N336 1.330 . S
C335 C337 1.446 . S
N336 Co295 2.151 1_455 S
N336 C335 1.330 . S
N336 C340 1.418 . S
C337 H316 0.929 . S
C337 C335 1.446 . S
C337 C338 1.332 1_565 S
C338 H318 0.931 . S
C338 C337 1.332 1_545 S
C338 C339 1.267 . S
C339 H307 0.929 . S
C339 C338 1.267 . S
C339 C340 1.251 1_545 S
C340 H310 0.929 1_565 S
C340 N336 1.418 . S
C340 C339 1.251 1_565 S
C341 H308 0.930 . S
C341 C343 1.406 . S
C341 C346 1.261 . S
C342 H309 0.930 . S
C342 N344 1.325 1_655 S
C342 C345 1.357 . S
C343 H311 0.928 . S
C343 C341 1.406 . S
C343 N344 1.261 . S
N344 Co295 2.214 1_455 S
N344 C342 1.325 1_455 S
N344 C343 1.261 . S
C345 H315 0.931 . S
C345 C342 1.357 . S
C345 C346 1.312 1_655 S
C346 H317 0.930 . S
C346 C341 1.261 . S
C346 C345 1.312 1_455 S
C347 O319 1.214 . S
C347 O327 1.234 . S
C348 H320 0.929 . S
C348 C351 1.391 . S
C348 C353 1.391 . S
C349 H321 0.929 . S
C349 C350 1.390 . S
C349 N352 1.391 . S
C350 H322 0.930 . S
C350 C349 1.390 . S
C350 C351 1.392 . S
C351 H323 0.929 . S
C351 C348 1.391 . S
C351 C350 1.392 . S
N352 Co296 2.257 . S
N352 C349 1.391 . S
N352 C353 1.388 . S
C353 H324 0.930 . S
C353 C348 1.391 . S
C353 N352 1.388 . S
Co354 O356 2.143 . S
Co354 O362 2.074 . S
Co354 O365 2.093 1_455 S
Co354 O378 2.097 . S
Co354 N395 2.151 1_455 S
Co354 N403 2.214 1_455 S
Co355 O356 2.160 . S
Co355 O361 2.058 . S
Co355 O371 2.057 . S
Co355 O386 2.037 . S
Co355 N390 2.145 . S
Co355 N411 2.257 . S
O356 Co354 2.143 . S
O356 Co355 2.160 . S
C357 O358 1.274 1_655 S
C357 O365 1.225 . S
O358 C357 1.274 1_455 S
C359 O360 1.245 . S
C359 O371 1.232 . S
O360 C359 1.245 . S
O361 Co355 2.058 . S
O361 C387 1.269 . S
O362 Co354 2.074 . S
O362 C387 1.257 . S
H363 C388 0.930 . S
H364 C394 0.930 . S
O365 Co354 2.093 1_655 S
O365 C357 1.225 . S
H366 C398 0.929 . S
H367 C400 0.930 . S
H368 C401 0.930 . S
H369 C399 0.929 . S
H370 C402 0.928 . S
O371 Co355 2.057 . S
O371 C359 1.232 . S
H372 C391 0.929 . S
H373 C392 0.929 . S
H374 C404 0.931 . S
H375 C396 0.929 . S
H376 C405 0.930 . S
H377 C397 0.931 . S
O378 Co354 2.097 . S
O378 C406 1.214 . S
H379 C407 0.929 . S
H380 C408 0.929 . S
H381 C409 0.930 . S
H382 C410 0.929 . S
H383 C412 0.930 . S
H384 C389 0.930 . S
H385 C393 0.930 . S
O386 Co355 2.037 . S
O386 C406 1.234 . S
C387 O361 1.269 . S
C387 O362 1.257 . S
C388 H363 0.930 . S
C388 C391 1.388 . S
C388 C393 1.418 . S
C389 H384 0.930 . S
C389 C392 1.404 . S
C389 C393 1.353 . S
N390 Co355 2.145 . S
N390 C391 1.397 . S
N390 C392 1.334 . S
C391 H372 0.929 . S
C391 C388 1.388 . S
C391 N390 1.397 . S
C392 H373 0.929 . S
C392 C389 1.404 . S
C392 N390 1.334 . S
C393 H385 0.930 . S
C393 C388 1.418 . S
C393 C389 1.353 . S
C394 H364 0.930 . S
C394 N395 1.330 . S
C394 C396 1.446 . S
N395 Co354 2.151 1_655 S
N395 C394 1.330 . S
N395 C399 1.418 . S
C396 H375 0.929 . S
C396 C394 1.446 . S
C396 C397 1.332 . S
C397 H377 0.931 . S
C397 C396 1.332 . S
C397 C398 1.267 . S
C398 H366 0.929 . S
C398 C397 1.267 . S
C398 C399 1.251 . S
C399 H369 0.929 . S
C399 N395 1.418 . S
C399 C398 1.251 . S
C400 H367 0.930 . S
C400 C402 1.406 . S
C400 C405 1.261 . S
C401 H368 0.930 . S
C401 N403 1.325 1_455 S
C401 C404 1.357 . S
C402 H370 0.928 . S
C402 C400 1.406 . S
C402 N403 1.261 . S
N403 Co354 2.214 1_655 S
N403 C401 1.325 1_655 S
N403 C402 1.261 . S
C404 H374 0.931 . S
C404 C401 1.357 . S
C404 C405 1.312 1_455 S
C405 H376 0.930 . S
C405 C400 1.261 . S
C405 C404 1.312 1_655 S
C406 O378 1.214 . S
C406 O386 1.234 . S
C407 H379 0.929 . S
C407 C410 1.391 . S
C407 C412 1.391 . S
C408 H380 0.929 . S
C408 C409 1.390 . S
C408 N411 1.391 . S
C409 H381 0.930 . S
C409 C408 1.390 . S
C409 C410 1.392 . S
C410 H382 0.929 . S
C410 C407 1.391 . S
C410 C409 1.392 . S
N411 Co355 2.257 . S
N411 C408 1.391 . S
N411 C412 1.388 . S
C412 H383 0.930 . S
C412 C407 1.391 . S
C412 N411 1.388 . S
Co413 O415 2.143 . S
Co413 O421 2.074 . S
Co413 O424 2.093 . S
Co413 O437 2.097 . S
Co413 N454 2.151 . S
Co413 N462 2.214 . S
Co414 O415 2.160 . S
Co414 O420 2.058 . S
Co414 O430 2.057 . S
Co414 O445 2.037 . S
Co414 N449 2.145 . S
Co414 N470 2.257 . S
O415 Co413 2.143 . S
O415 Co414 2.160 . S
C416 O417 1.278 . S
C416 O424 1.224 . S
O417 C416 1.278 . S
C418 O419 1.245 . S
C418 O430 1.232 . S
O419 C418 1.245 . S
O420 Co414 2.058 . S
O420 C446 1.269 . S
O421 Co413 2.074 . S
O421 C446 1.257 . S
H422 C447 0.930 . S
H423 C453 0.930 . S
O424 Co413 2.093 . S
O424 C416 1.224 . S
H425 C457 0.929 . S
H426 C459 0.930 . S
H427 C460 0.930 . S
H428 C458 0.929 . S
H429 C461 0.928 . S
O430 Co414 2.057 . S
O430 C418 1.232 . S
H431 C450 0.929 . S
H432 C451 0.929 . S
H433 C463 0.931 . S
H434 C455 0.929 . S
H435 C464 0.930 . S
H436 C456 0.931 . S
O437 Co413 2.097 . S
O437 C465 1.214 . S
H438 C466 0.929 1_565 S
H439 C467 0.929 . S
H440 C468 0.930 . S
H441 C469 0.929 . S
H442 C471 0.930 . S
H443 C448 0.930 . S
H444 C452 0.930 1_554 S
O445 Co414 2.037 . S
O445 C465 1.234 . S
C446 O420 1.269 . S
C446 O421 1.257 . S
C447 H422 0.930 . S
C447 C450 1.388 . S
C447 C452 1.418 . S
C448 H443 0.930 . S
C448 C451 1.404 . S
C448 C452 1.353 . S
N449 Co414 2.145 . S
N449 C450 1.397 . S
N449 C451 1.334 . S
C450 H431 0.929 . S
C450 C447 1.388 . S
C450 N449 1.397 . S
C451 H432 0.929 . S
C451 C448 1.404 . S
C451 N449 1.334 . S
C452 H444 0.930 1_556 S
C452 C447 1.418 . S
C452 C448 1.353 . S
C453 H423 0.930 . S
C453 N454 1.330 . S
C453 C455 1.446 . S
N454 Co413 2.151 . S
N454 C453 1.330 . S
N454 C458 1.418 . S
C455 H434 0.929 . S
C455 C453 1.446 . S
C455 C456 1.332 1_655 S
C456 H436 0.931 . S
C456 C455 1.332 1_455 S
C456 C457 1.267 . S
C457 H425 0.929 . S
C457 C456 1.267 . S
C457 C458 1.251 1_455 S
C458 H428 0.929 . S
C458 N454 1.418 . S
C458 C457 1.251 1_655 S
C459 H426 0.930 . S
C459 C461 1.406 . S
C459 C464 1.261 . S
C460 H427 0.930 . S
C460 N462 1.325 . S
C460 C463 1.357 . S
C461 H429 0.928 . S
C461 C459 1.406 . S
C461 N462 1.261 . S
N462 Co413 2.214 . S
N462 C460 1.325 . S
N462 C461 1.261 . S
C463 H433 0.931 . S
C463 C460 1.357 . S
C463 C464 1.312 . S
C464 H435 0.930 . S
C464 C459 1.261 . S
C464 C463 1.312 . S
C465 O437 1.214 . S
C465 O445 1.234 . S
C466 H438 0.929 1_545 S
C466 C469 1.391 . S
C466 C471 1.391 . S
C467 H439 0.929 . S
C467 C468 1.390 . S
C467 N470 1.391 . S
C468 H440 0.930 . S
C468 C467 1.390 . S
C468 C469 1.392 . S
C469 H441 0.929 . S
C469 C466 1.391 . S
C469 C468 1.392 . S
N470 Co414 2.257 . S
N470 C467 1.391 . S
N470 C471 1.388 . S
C471 H442 0.930 . S
C471 C466 1.391 . S
C471 N470 1.388 . S
Co472 O474 2.143 . S
Co472 O480 2.074 . S
Co472 O483 2.093 . S
Co472 O496 2.097 . S
Co472 N513 2.151 . S
Co472 N521 2.214 . S
Co473 O474 2.160 . S
Co473 O479 2.058 . S
Co473 O489 2.057 . S
Co473 O504 2.037 . S
Co473 N508 2.145 . S
Co473 N529 2.257 . S
O474 Co472 2.143 . S
O474 Co473 2.160 . S
C475 O476 1.278 . S
C475 O483 1.224 . S
O476 C475 1.278 . S
C477 O478 1.245 . S
C477 O489 1.232 . S
O478 C477 1.245 . S
O479 Co473 2.058 . S
O479 C505 1.269 . S
O480 Co472 2.074 . S
O480 C505 1.257 . S
H481 C506 0.930 . S
H482 C512 0.930 . S
O483 Co472 2.093 . S
O483 C475 1.224 . S
H484 C516 0.929 . S
H485 C518 0.930 . S
H486 C519 0.930 . S
H487 C517 0.929 . S
H488 C520 0.928 . S
O489 Co473 2.057 . S
O489 C477 1.232 . S
H490 C509 0.929 . S
H491 C510 0.929 . S
H492 C522 0.931 . S
H493 C514 0.929 . S
H494 C523 0.930 . S
H495 C515 0.931 . S
O496 Co472 2.097 . S
O496 C524 1.214 . S
H497 C525 0.929 . S
H498 C526 0.929 . S
H499 C527 0.930 . S
H500 C528 0.929 . S
H501 C530 0.930 . S
H502 C507 0.930 . S
H503 C511 0.930 1_554 S
O504 Co473 2.037 . S
O504 C524 1.234 . S
C505 O479 1.269 . S
C505 O480 1.257 . S
C506 H481 0.930 . S
C506 C509 1.388 . S
C506 C511 1.418 . S
C507 H502 0.930 . S
C507 C510 1.404 . S
C507 C511 1.353 . S
N508 Co473 2.145 . S
N508 C509 1.397 . S
N508 C510 1.334 . S
C509 H490 0.929 . S
C509 C506 1.388 . S
C509 N508 1.397 . S
C510 H491 0.929 . S
C510 C507 1.404 . S
C510 N508 1.334 . S
C511 H503 0.930 1_556 S
C511 C506 1.418 . S
C511 C507 1.353 . S
C512 H482 0.930 . S
C512 N513 1.330 . S
C512 C514 1.446 . S
N513 Co472 2.151 . S
N513 C512 1.330 . S
N513 C517 1.418 . S
C514 H493 0.929 . S
C514 C512 1.446 . S
C514 C515 1.332 1_455 S
C515 H495 0.931 . S
C515 C514 1.332 1_655 S
C515 C516 1.267 . S
C516 H484 0.929 . S
C516 C515 1.267 . S
C516 C517 1.251 1_655 S
C517 H487 0.929 . S
C517 N513 1.418 . S
C517 C516 1.251 1_455 S
C518 H485 0.930 . S
C518 C520 1.406 . S
C518 C523 1.261 . S
C519 H486 0.930 . S
C519 N521 1.325 . S
C519 C522 1.357 . S
C520 H488 0.928 . S
C520 C518 1.406 . S
C520 N521 1.261 . S
N521 Co472 2.214 . S
N521 C519 1.325 . S
N521 C520 1.261 . S
C522 H492 0.931 . S
C522 C519 1.357 . S
C522 C523 1.312 . S
C523 H494 0.930 . S
C523 C518 1.261 . S
C523 C522 1.312 . S
C524 O496 1.214 . S
C524 O504 1.234 . S
C525 H497 0.929 . S
C525 C528 1.391 . S
C525 C530 1.391 . S
C526 H498 0.929 . S
C526 C527 1.390 . S
C526 N529 1.391 . S
C527 H499 0.930 . S
C527 C526 1.390 . S
C527 C528 1.392 . S
C528 H500 0.929 . S
C528 C525 1.391 . S
C528 C527 1.392 . S
N529 Co473 2.257 . S
N529 C526 1.391 . S
N529 C530 1.388 . S
C530 H501 0.930 . S
C530 C525 1.391 . S
C530 N529 1.388 . S
Co531 O533 2.143 . S
Co531 O539 2.074 . S
Co531 O542 2.093 . S
Co531 O555 2.097 . S
Co531 N572 2.151 . S
Co531 N580 2.214 . S
Co532 O533 2.160 . S
Co532 O538 2.058 . S
Co532 O548 2.057 . S
Co532 O563 2.037 . S
Co532 N567 2.145 . S
Co532 N588 2.257 . S
O533 Co531 2.143 . S
O533 Co532 2.160 . S
C534 O535 1.278 . S
C534 O542 1.224 . S
O535 C534 1.278 . S
C536 O537 1.245 . S
C536 O548 1.232 . S
O537 C536 1.245 . S
O538 Co532 2.058 . S
O538 C564 1.269 . S
O539 Co531 2.074 . S
O539 C564 1.257 . S
H540 C565 0.930 1_455 S
H541 C571 0.930 . S
O542 Co531 2.093 . S
O542 C534 1.224 . S
H543 C575 0.929 . S
H544 C577 0.930 . S
H545 C578 0.930 . S
H546 C576 0.929 1_565 S
H547 C579 0.928 . S
O548 Co532 2.057 . S
O548 C536 1.232 . S
H549 C568 0.929 . S
H550 C569 0.929 . S
H551 C581 0.931 . S
H552 C573 0.929 . S
H553 C582 0.930 . S
H554 C574 0.931 . S
O555 Co531 2.097 . S
O555 C583 1.214 . S
H556 C584 0.929 . S
H557 C585 0.929 . S
H558 C586 0.930 . S
H559 C587 0.929 . S
H560 C589 0.930 . S
H561 C566 0.930 1_455 S
H562 C570 0.930 . S
O563 Co532 2.037 . S
O563 C583 1.234 . S
C564 O538 1.269 . S
C564 O539 1.257 . S
C565 H540 0.930 1_655 S
C565 C568 1.388 . S
C565 C570 1.418 1_655 S
C566 H561 0.930 1_655 S
C566 C569 1.404 . S
C566 C570 1.353 1_655 S
N567 Co532 2.145 . S
N567 C568 1.397 . S
N567 C569 1.334 . S
C568 H549 0.929 . S
C568 C565 1.388 . S
C568 N567 1.397 . S
C569 H550 0.929 . S
C569 C566 1.404 . S
C569 N567 1.334 . S
C570 H562 0.930 . S
C570 C565 1.418 1_455 S
C570 C566 1.353 1_455 S
C571 H541 0.930 . S
C571 N572 1.330 . S
C571 C573 1.446 . S
N572 Co531 2.151 . S
N572 C571 1.330 . S
N572 C576 1.418 . S
C573 H552 0.929 . S
C573 C571 1.446 . S
C573 C574 1.332 1_545 S
C574 H554 0.931 . S
C574 C573 1.332 1_565 S
C574 C575 1.267 . S
C575 H543 0.929 . S
C575 C574 1.267 . S
C575 C576 1.251 1_565 S
C576 H546 0.929 1_545 S
C576 N572 1.418 . S
C576 C575 1.251 1_545 S
C577 H544 0.930 . S
C577 C579 1.406 . S
C577 C582 1.261 . S
C578 H545 0.930 . S
C578 N580 1.325 . S
C578 C581 1.357 . S
C579 H547 0.928 . S
C579 C577 1.406 . S
C579 N580 1.261 . S
N580 Co531 2.214 . S
N580 C578 1.325 . S
N580 C579 1.261 . S
C581 H551 0.931 . S
C581 C578 1.357 . S
C581 C582 1.312 . S
C582 H553 0.930 . S
C582 C577 1.261 . S
C582 C581 1.312 . S
C583 O555 1.214 . S
C583 O563 1.234 . S
C584 H556 0.929 . S
C584 C587 1.391 . S
C584 C589 1.391 . S
C585 H557 0.929 . S
C585 C586 1.390 . S
C585 N588 1.391 . S
C586 H558 0.930 . S
C586 C585 1.390 . S
C586 C587 1.392 . S
C587 H559 0.929 . S
C587 C584 1.391 . S
C587 C586 1.392 . S
N588 Co532 2.257 . S
N588 C585 1.391 . S
N588 C589 1.388 . S
C589 H560 0.930 . S
C589 C584 1.391 . S
C589 N588 1.388 . S
Co590 O592 2.143 . S
Co590 O598 2.074 . S
Co590 O601 2.093 . S
Co590 O614 2.097 . S
Co590 N631 2.151 . S
Co590 N639 2.214 . S
Co591 O592 2.160 . S
Co591 O597 2.058 . S
Co591 O607 2.057 . S
Co591 O622 2.037 . S
Co591 N626 2.145 . S
Co591 N647 2.257 . S
O592 Co590 2.143 . S
O592 Co591 2.160 . S
C593 O594 1.278 . S
C593 O601 1.224 . S
O594 C593 1.278 . S
C595 O596 1.245 . S
C595 O607 1.232 . S
O596 C595 1.245 . S
O597 Co591 2.058 . S
O597 C623 1.269 . S
O598 Co590 2.074 . S
O598 C623 1.257 . S
H599 C624 0.930 . S
H600 C630 0.930 . S
O601 Co590 2.093 . S
O601 C593 1.224 . S
H602 C634 0.929 . S
H603 C636 0.930 . S
H604 C637 0.930 . S
H605 C635 0.929 . S
H606 C638 0.928 . S
O607 Co591 2.057 . S
O607 C595 1.232 . S
H608 C627 0.929 . S
H609 C628 0.929 . S
H610 C640 0.931 . S
H611 C632 0.929 . S
H612 C641 0.930 . S
H613 C633 0.931 . S
O614 Co590 2.097 . S
O614 C642 1.214 . S
H615 C643 0.929 . S
H616 C644 0.929 . S
H617 C645 0.930 1_455 S
H618 C646 0.929 1_455 S
H619 C648 0.930 . S
H620 C625 0.930 . S
H621 C629 0.930 . S
O622 Co591 2.037 . S
O622 C642 1.234 . S
C623 O597 1.269 . S
C623 O598 1.257 . S
C624 H599 0.930 . S
C624 C627 1.388 . S
C624 C629 1.418 . S
C625 H620 0.930 . S
C625 C628 1.404 . S
C625 C629 1.353 . S
N626 Co591 2.145 . S
N626 C627 1.397 . S
N626 C628 1.334 . S
C627 H608 0.929 . S
C627 C624 1.388 . S
C627 N626 1.397 . S
C628 H609 0.929 . S
C628 C625 1.404 . S
C628 N626 1.334 . S
C629 H621 0.930 . S
C629 C624 1.418 . S
C629 C625 1.353 . S
C630 H600 0.930 . S
C630 N631 1.330 . S
C630 C632 1.446 . S
N631 Co590 2.151 . S
N631 C630 1.330 . S
N631 C635 1.418 . S
C632 H611 0.929 . S
C632 C630 1.446 . S
C632 C633 1.332 . S
C633 H613 0.931 . S
C633 C632 1.332 . S
C633 C634 1.267 . S
C634 H602 0.929 . S
C634 C633 1.267 . S
C634 C635 1.251 . S
C635 H605 0.929 . S
C635 N631 1.418 . S
C635 C634 1.251 . S
C636 H603 0.930 . S
C636 C638 1.406 . S
C636 C641 1.261 . S
C637 H604 0.930 . S
C637 N639 1.325 . S
C637 C640 1.357 . S
C638 H606 0.928 . S
C638 C636 1.406 . S
C638 N639 1.261 . S
N639 Co590 2.214 . S
N639 C637 1.325 . S
N639 C638 1.261 . S
C640 H610 0.931 . S
C640 C637 1.357 . S
C640 C641 1.312 . S
C641 H612 0.930 . S
C641 C636 1.261 . S
C641 C640 1.312 . S
C642 O614 1.214 . S
C642 O622 1.234 . S
C643 H615 0.929 . S
C643 C646 1.391 . S
C643 C648 1.391 . S
C644 H616 0.929 . S
C644 C645 1.390 . S
C644 N647 1.391 . S
C645 H617 0.930 1_655 S
C645 C644 1.390 . S
C645 C646 1.392 . S
C646 H618 0.929 1_655 S
C646 C643 1.391 . S
C646 C645 1.392 . S
N647 Co591 2.257 . S
N647 C644 1.391 . S
N647 C648 1.388 . S
C648 H619 0.930 . S
C648 C643 1.391 . S
C648 N647 1.388 . S
Co649 O651 2.143 . S
Co649 O657 2.074 . S
Co649 O660 2.093 . S
Co649 O673 2.097 . S
Co649 N690 2.151 . S
Co649 N698 2.214 . S
Co650 O651 2.160 . S
Co650 O656 2.058 . S
Co650 O666 2.057 . S
Co650 O681 2.037 . S
Co650 N685 2.145 . S
Co650 N706 2.257 . S
O651 Co649 2.143 . S
O651 Co650 2.160 . S
C652 O653 1.278 . S
C652 O660 1.224 . S
O653 C652 1.278 . S
C654 O655 1.245 . S
C654 O666 1.232 . S
O655 C654 1.245 . S
O656 Co650 2.058 . S
O656 C682 1.269 . S
O657 Co649 2.074 . S
O657 C682 1.257 . S
H658 C683 0.930 . S
H659 C689 0.930 . S
O660 Co649 2.093 . S
O660 C652 1.224 . S
H661 C693 0.929 . S
H662 C695 0.930 . S
H663 C696 0.930 . S
H664 C694 0.929 . S
H665 C697 0.928 . S
O666 Co650 2.057 . S
O666 C654 1.232 . S
H667 C686 0.929 . S
H668 C687 0.929 . S
H669 C699 0.931 . S
H670 C691 0.929 . S
H671 C700 0.930 . S
H672 C692 0.931 . S
O673 Co649 2.097 . S
O673 C701 1.214 . S
H674 C702 0.929 . S
H675 C703 0.929 . S
H676 C704 0.930 1_455 S
H677 C705 0.940 . S
H678 C707 0.930 . S
H679 C684 0.930 1_554 S
H680 C688 0.930 . S
O681 Co650 2.037 . S
O681 C701 1.234 . S
C682 O656 1.269 . S
C682 O657 1.257 . S
C683 H658 0.930 . S
C683 C686 1.388 . S
C683 C688 1.418 . S
C684 H679 0.930 1_556 S
C684 C687 1.404 . S
C684 C688 1.353 . S
N685 Co650 2.145 . S
N685 C686 1.397 . S
N685 C687 1.334 . S
C686 H667 0.929 . S
C686 C683 1.388 . S
C686 N685 1.397 . S
C687 H668 0.929 . S
C687 C684 1.404 . S
C687 N685 1.334 . S
C688 H680 0.930 . S
C688 C683 1.418 . S
C688 C684 1.353 . S
C689 H659 0.930 . S
C689 N690 1.330 . S
C689 C691 1.446 . S
N690 Co649 2.151 . S
N690 C689 1.330 . S
N690 C694 1.418 . S
C691 H670 0.929 . S
C691 C689 1.446 . S
C691 C692 1.332 . S
C692 H672 0.931 . S
C692 C691 1.332 . S
C692 C693 1.267 . S
C693 H661 0.929 . S
C693 C692 1.267 . S
C693 C694 1.251 . S
C694 H664 0.929 . S
C694 N690 1.418 . S
C694 C693 1.251 . S
C695 H662 0.930 . S
C695 C697 1.406 . S
C695 C700 1.261 . S
C696 H663 0.930 . S
C696 N698 1.325 . S
C696 C699 1.357 . S
C697 H665 0.928 . S
C697 C695 1.406 . S
C697 N698 1.261 . S
N698 Co649 2.214 . S
N698 C696 1.325 . S
N698 C697 1.261 . S
C699 H669 0.931 . S
C699 C696 1.357 . S
C699 C700 1.312 . S
C700 H671 0.930 . S
C700 C695 1.261 . S
C700 C699 1.312 . S
C701 O673 1.214 . S
C701 O681 1.234 . S
C702 H674 0.929 . S
C702 C705 1.383 1_655 S
C702 C707 1.391 . S
C703 H675 0.929 . S
C703 C704 1.390 . S
C703 N706 1.391 . S
C704 H676 0.930 1_655 S
C704 C703 1.390 . S
C704 C705 1.390 1_655 S
C705 H677 0.940 . S
C705 C702 1.383 1_455 S
C705 C704 1.390 1_455 S
N706 Co650 2.257 . S
N706 C703 1.391 . S
N706 C707 1.388 . S
C707 H678 0.930 . S
C707 C702 1.391 . S
C707 N706 1.388 . S
Co708 O710 2.143 . S
Co708 O716 2.074 . S
Co708 O719 2.093 . S
Co708 O732 2.097 . S
Co708 N749 2.151 . S
Co708 N757 2.214 . S
Co709 O710 2.160 . S
Co709 O715 2.058 . S
Co709 O725 2.057 . S
Co709 O740 2.037 . S
Co709 N744 2.145 . S
Co709 N765 2.257 . S
O710 Co708 2.143 . S
O710 Co709 2.160 . S
C711 O712 1.278 . S
C711 O719 1.224 . S
O712 C711 1.278 . S
C713 O714 1.245 . S
C713 O725 1.232 . S
O714 C713 1.245 . S
O715 Co709 2.058 . S
O715 C741 1.269 . S
O716 Co708 2.074 . S
O716 C741 1.257 . S
H717 C742 0.930 . S
H718 C748 0.930 . S
O719 Co708 2.093 . S
O719 C711 1.224 . S
H720 C752 0.929 . S
H721 C754 0.930 . S
H722 C755 0.930 . S
H723 C753 0.929 . S
H724 C756 0.928 . S
O725 Co709 2.057 . S
O725 C713 1.232 . S
H726 C745 0.929 . S
H727 C746 0.929 . S
H728 C758 0.931 . S
H729 C750 0.929 . S
H730 C759 0.930 . S
H731 C751 0.931 . S
O732 Co708 2.097 . S
O732 C760 1.214 . S
H733 C761 0.929 . S
H734 C762 0.929 . S
H735 C763 0.930 1_655 S
H736 C764 0.940 . S
H737 C766 0.930 . S
H738 C743 0.930 1_554 S
H739 C747 0.930 . S
O740 Co709 2.037 . S
O740 C760 1.234 . S
C741 O715 1.269 . S
C741 O716 1.257 . S
C742 H717 0.930 . S
C742 C745 1.388 . S
C742 C747 1.418 . S
C743 H738 0.930 1_556 S
C743 C746 1.404 . S
C743 C747 1.353 . S
N744 Co709 2.145 . S
N744 C745 1.397 . S
N744 C746 1.334 . S
C745 H726 0.929 . S
C745 C742 1.388 . S
C745 N744 1.397 . S
C746 H727 0.929 . S
C746 C743 1.404 . S
C746 N744 1.334 . S
C747 H739 0.930 . S
C747 C742 1.418 . S
C747 C743 1.353 . S
C748 H718 0.930 . S
C748 N749 1.330 . S
C748 C750 1.446 1_545 S
N749 Co708 2.151 . S
N749 C748 1.330 . S
N749 C753 1.418 . S
C750 H729 0.929 . S
C750 C748 1.446 1_565 S
C750 C751 1.332 1_565 S
C751 H731 0.931 . S
C751 C750 1.332 1_545 S
C751 C752 1.267 . S
C752 H720 0.929 . S
C752 C751 1.267 . S
C752 C753 1.251 . S
C753 H723 0.929 . S
C753 N749 1.418 . S
C753 C752 1.251 . S
C754 H721 0.930 . S
C754 C756 1.406 . S
C754 C759 1.261 . S
C755 H722 0.930 . S
C755 N757 1.325 . S
C755 C758 1.357 . S
C756 H724 0.928 . S
C756 C754 1.406 . S
C756 N757 1.261 . S
N757 Co708 2.214 . S
N757 C755 1.325 . S
N757 C756 1.261 . S
C758 H728 0.931 . S
C758 C755 1.357 . S
C758 C759 1.312 . S
C759 H730 0.930 . S
C759 C754 1.261 . S
C759 C758 1.312 . S
C760 O732 1.214 . S
C760 O740 1.234 . S
C761 H733 0.929 . S
C761 C764 1.383 1_455 S
C761 C766 1.391 . S
C762 H734 0.929 . S
C762 C763 1.390 . S
C762 N765 1.391 . S
C763 H735 0.930 1_455 S
C763 C762 1.390 . S
C763 C764 1.390 1_455 S
C764 H736 0.940 . S
C764 C761 1.383 1_655 S
C764 C763 1.390 1_655 S
N765 Co709 2.257 . S
N765 C762 1.391 . S
N765 C766 1.388 . S
C766 H737 0.930 . S
C766 C761 1.391 . S
C766 N765 1.388 . S
Co767 O769 2.143 . S
Co767 O775 2.074 . S
Co767 O778 2.093 . S
Co767 O791 2.097 . S
Co767 N808 2.151 . S
Co767 N816 2.214 . S
Co768 O769 2.160 . S
Co768 O774 2.058 . S
Co768 O784 2.057 . S
Co768 O799 2.037 . S
Co768 N803 2.145 . S
Co768 N824 2.257 . S
O769 Co767 2.143 . S
O769 Co768 2.160 . S
C770 O771 1.278 . S
C770 O778 1.224 . S
O771 C770 1.278 . S
C772 O773 1.245 . S
C772 O784 1.232 . S
O773 C772 1.245 . S
O774 Co768 2.058 . S
O774 C800 1.269 . S
O775 Co767 2.074 . S
O775 C800 1.257 . S
H776 C801 0.930 1_655 S
H777 C807 0.930 . S
O778 Co767 2.093 . S
O778 C770 1.224 . S
H779 C811 0.929 . S
H780 C813 0.930 . S
H781 C814 0.930 . S
H782 C812 0.929 . S
H783 C815 0.928 . S
O784 Co768 2.057 . S
O784 C772 1.232 . S
H785 C804 0.929 . S
H786 C805 0.929 . S
H787 C817 0.931 . S
H788 C809 0.929 . S
H789 C818 0.930 . S
H790 C810 0.931 . S
O791 Co767 2.097 . S
O791 C819 1.214 . S
H792 C820 0.929 . S
H793 C821 0.929 . S
H794 C822 0.930 . S
H795 C823 0.929 . S
H796 C825 0.930 . S
H797 C802 0.930 1_655 S
H798 C806 0.930 . S
O799 Co768 2.037 . S
O799 C819 1.234 . S
C800 O774 1.269 . S
C800 O775 1.257 . S
C801 H776 0.930 1_455 S
C801 C804 1.388 . S
C801 C806 1.418 1_455 S
C802 H797 0.930 1_455 S
C802 C805 1.404 . S
C802 C806 1.353 1_455 S
N803 Co768 2.145 . S
N803 C804 1.397 . S
N803 C805 1.334 . S
C804 H785 0.929 . S
C804 C801 1.388 . S
C804 N803 1.397 . S
C805 H786 0.929 . S
C805 C802 1.404 . S
C805 N803 1.334 . S
C806 H798 0.930 . S
C806 C801 1.418 1_655 S
C806 C802 1.353 1_655 S
C807 H777 0.930 . S
C807 N808 1.330 . S
C807 C809 1.446 . S
N808 Co767 2.151 . S
N808 C807 1.330 . S
N808 C812 1.418 . S
C809 H788 0.929 . S
C809 C807 1.446 . S
C809 C810 1.332 . S
C810 H790 0.931 . S
C810 C809 1.332 . S
C810 C811 1.267 . S
C811 H779 0.929 . S
C811 C810 1.267 . S
C811 C812 1.251 . S
C812 H782 0.929 . S
C812 N808 1.418 . S
C812 C811 1.251 . S
C813 H780 0.930 . S
C813 C815 1.406 . S
C813 C818 1.261 . S
C814 H781 0.930 . S
C814 N816 1.325 . S
C814 C817 1.357 . S
C815 H783 0.928 . S
C815 C813 1.406 . S
C815 N816 1.261 . S
N816 Co767 2.214 . S
N816 C814 1.325 . S
N816 C815 1.261 . S
C817 H787 0.931 . S
C817 C814 1.357 . S
C817 C818 1.312 . S
C818 H789 0.930 . S
C818 C813 1.261 . S
C818 C817 1.312 . S
C819 O791 1.214 . S
C819 O799 1.234 . S
C820 H792 0.929 . S
C820 C823 1.391 . S
C820 C825 1.391 . S
C821 H793 0.929 . S
C821 C822 1.390 . S
C821 N824 1.391 . S
C822 H794 0.930 . S
C822 C821 1.390 . S
C822 C823 1.392 . S
C823 H795 0.929 . S
C823 C820 1.391 . S
C823 C822 1.392 . S
N824 Co768 2.257 . S
N824 C821 1.391 . S
N824 C825 1.388 . S
C825 H796 0.930 . S
C825 C820 1.391 . S
C825 N824 1.388 . S
Co826 O828 2.143 . S
Co826 O834 2.074 . S
Co826 O837 2.093 . S
Co826 O850 2.097 . S
Co826 N867 2.151 . S
Co826 N875 2.214 . S
Co827 O828 2.160 . S
Co827 O833 2.058 . S
Co827 O843 2.057 . S
Co827 O858 2.037 . S
Co827 N862 2.145 . S
Co827 N883 2.257 . S
O828 Co826 2.143 . S
O828 Co827 2.160 . S
C829 O830 1.278 . S
C829 O837 1.224 . S
O830 C829 1.278 . S
C831 O832 1.245 . S
C831 O843 1.232 . S
O832 C831 1.245 . S
O833 Co827 2.058 . S
O833 C859 1.269 . S
O834 Co826 2.074 . S
O834 C859 1.257 . S
H835 C860 0.930 . S
H836 C866 0.930 . S
O837 Co826 2.093 . S
O837 C829 1.224 . S
H838 C870 0.929 . S
H839 C872 0.930 . S
H840 C873 0.930 . S
H841 C871 0.929 . S
H842 C874 0.928 1_556 S
O843 Co827 2.057 . S
O843 C831 1.232 . S
H844 C863 0.929 . S
H845 C864 0.929 . S
H846 C876 0.931 . S
H847 C868 0.929 . S
H848 C877 0.930 . S
H849 C869 0.931 . S
O850 Co826 2.097 . S
O850 C878 1.214 . S
H851 C879 0.929 . S
H852 C880 0.929 . S
H853 C881 0.930 . S
H854 C882 0.929 1_655 S
H855 C884 0.930 . S
H856 C861 0.930 . S
H857 C865 0.930 . S
O858 Co827 2.037 . S
O858 C878 1.234 . S
C859 O833 1.269 . S
C859 O834 1.257 . S
C860 H835 0.930 . S
C860 C863 1.388 . S
C860 C865 1.418 . S
C861 H856 0.930 . S
C861 C864 1.404 . S
C861 C865 1.353 . S
N862 Co827 2.145 . S
N862 C863 1.397 . S
N862 C864 1.334 . S
C863 H844 0.929 . S
C863 C860 1.388 . S
C863 N862 1.397 . S
C864 H845 0.929 . S
C864 C861 1.404 . S
C864 N862 1.334 . S
C865 H857 0.930 . S
C865 C860 1.418 . S
C865 C861 1.353 . S
C866 H836 0.930 . S
C866 N867 1.330 . S
C866 C868 1.446 1_554 S
N867 Co826 2.151 . S
N867 C866 1.330 . S
N867 C871 1.418 . S
C868 H847 0.929 . S
C868 C866 1.446 1_556 S
C868 C869 1.332 . S
C869 H849 0.931 . S
C869 C868 1.332 . S
C869 C870 1.267 1_556 S
C870 H838 0.929 . S
C870 C869 1.267 1_554 S
C870 C871 1.251 . S
C871 H841 0.929 . S
C871 N867 1.418 . S
C871 C870 1.251 . S
C872 H839 0.930 . S
C872 C874 1.406 1_556 S
C872 C877 1.261 1_556 S
C873 H840 0.930 . S
C873 N875 1.325 . S
C873 C876 1.357 . S
C874 H842 0.928 1_554 S
C874 C872 1.406 1_554 S
C874 N875 1.261 . S
N875 Co826 2.214 . S
N875 C873 1.325 . S
N875 C874 1.261 . S
C876 H846 0.931 . S
C876 C873 1.357 . S
C876 C877 1.312 . S
C877 H848 0.930 . S
C877 C872 1.261 1_554 S
C877 C876 1.312 . S
C878 O850 1.214 . S
C878 O858 1.234 . S
C879 H851 0.929 . S
C879 C882 1.391 . S
C879 C884 1.391 . S
C880 H852 0.929 . S
C880 C881 1.390 . S
C880 N883 1.391 . S
C881 H853 0.930 . S
C881 C880 1.390 . S
C881 C882 1.392 . S
C882 H854 0.929 1_455 S
C882 C879 1.391 . S
C882 C881 1.392 . S
N883 Co827 2.257 . S
N883 C880 1.391 . S
N883 C884 1.388 . S
C884 H855 0.930 . S
C884 C879 1.391 . S
C884 N883 1.388 . S
Co885 O887 2.143 . S
Co885 O893 2.074 . S
Co885 O896 2.093 . S
Co885 O909 2.097 . S
Co885 N926 2.151 . S
Co885 N934 2.214 . S
Co886 O887 2.160 . S
Co886 O892 2.058 . S
Co886 O902 2.057 . S
Co886 O917 2.037 . S
Co886 N921 2.145 . S
Co886 N942 2.257 . S
O887 Co885 2.143 . S
O887 Co886 2.160 . S
C888 O889 1.278 . S
C888 O896 1.224 . S
O889 C888 1.278 . S
C890 O891 1.245 . S
C890 O902 1.232 . S
O891 C890 1.245 . S
O892 Co886 2.058 . S
O892 C918 1.269 . S
O893 Co885 2.074 . S
O893 C918 1.257 . S
H894 C919 0.930 . S
H895 C925 0.930 . S
O896 Co885 2.093 . S
O896 C888 1.224 . S
H897 C929 0.929 . S
H898 C931 0.930 . S
H899 C932 0.930 . S
H900 C930 0.929 . S
H901 C933 0.928 1_556 S
O902 Co886 2.057 . S
O902 C890 1.232 . S
H903 C922 0.929 . S
H904 C923 0.929 . S
H905 C935 0.931 . S
H906 C927 0.929 . S
H907 C936 0.930 . S
H908 C928 0.931 . S
O909 Co885 2.097 . S
O909 C937 1.214 . S
H910 C938 0.929 1_545 S
H911 C939 0.929 . S
H912 C940 0.930 . S
H913 C941 0.929 1_455 S
H914 C943 0.930 . S
H915 C920 0.930 . S
H916 C924 0.930 . S
O917 Co886 2.037 . S
O917 C937 1.234 . S
C918 O892 1.269 . S
C918 O893 1.257 . S
C919 H894 0.930 . S
C919 C922 1.388 . S
C919 C924 1.418 . S
C920 H915 0.930 . S
C920 C923 1.404 . S
C920 C924 1.353 . S
N921 Co886 2.145 . S
N921 C922 1.397 . S
N921 C923 1.334 . S
C922 H903 0.929 . S
C922 C919 1.388 . S
C922 N921 1.397 . S
C923 H904 0.929 . S
C923 C920 1.404 . S
C923 N921 1.334 . S
C924 H916 0.930 . S
C924 C919 1.418 . S
C924 C920 1.353 . S
C925 H895 0.930 . S
C925 N926 1.330 . S
C925 C927 1.446 1_554 S
N926 Co885 2.151 . S
N926 C925 1.330 . S
N926 C930 1.418 . S
C927 H906 0.929 . S
C927 C925 1.446 1_556 S
C927 C928 1.332 . S
C928 H908 0.931 . S
C928 C927 1.332 . S
C928 C929 1.267 1_556 S
C929 H897 0.929 . S
C929 C928 1.267 1_554 S
C929 C930 1.251 . S
C930 H900 0.929 . S
C930 N926 1.418 . S
C930 C929 1.251 . S
C931 H898 0.930 . S
C931 C933 1.406 1_556 S
C931 C936 1.261 1_556 S
C932 H899 0.930 . S
C932 N934 1.325 . S
C932 C935 1.357 . S
C933 H901 0.928 1_554 S
C933 C931 1.406 1_554 S
C933 N934 1.261 . S
N934 Co885 2.214 . S
N934 C932 1.325 . S
N934 C933 1.261 . S
C935 H905 0.931 . S
C935 C932 1.357 . S
C935 C936 1.312 . S
C936 H907 0.930 . S
C936 C931 1.261 1_554 S
C936 C935 1.312 . S
C937 O909 1.214 . S
C937 O917 1.234 . S
C938 H910 0.929 1_565 S
C938 C941 1.391 . S
C938 C943 1.391 . S
C939 H911 0.929 . S
C939 C940 1.390 . S
C939 N942 1.391 . S
C940 H912 0.930 . S
C940 C939 1.390 . S
C940 C941 1.392 . S
C941 H913 0.929 1_655 S
C941 C938 1.391 . S
C941 C940 1.392 . S
N942 Co886 2.257 . S
N942 C939 1.391 . S
N942 C943 1.388 . S
C943 H914 0.930 . S
C943 C938 1.391 . S
C943 N942 1.388 . S
C52 C819 1.826 . S
C111 C583 1.826 . S
C878 C170 1.283 . S
C229 C937 1.283 . S
C288 C406 1.826 . S
C642 C347 1.826 . S
C701 C465 1.283 . S
C524 C760 1.283 . S
C121 C3 1.550 1_565 S
C62 C180 1.550 . S
C713 C5 2.066 1_556 S
C64 C654 2.066 1_554 S
C241 C123 2.066 . S
C595 C182 2.066 . S
C92 C33 2.332 1_655 S
C210 C151 1.753 1_655 S
C623 C269 2.332 . S
C418 C328 2.053 1_545 S
C387 C477 2.053 . S
C888 C300 1.934 1_554 S
C359 C829 1.934 1_556 S
C536 C416 1.934 . S
C475 C772 1.934 . S
C357 C298 1.269 1_655 S
C505 C446 2.042 1_455 S
C534 C770 1.267 . S
C593 C652 1.550 . S
C711 C239 1.550 1_545 S
C741 C682 1.753 . S
C831 C800 2.053 . S
C564 C890 2.053 1_545 S
C918 C859 2.042 . S
