# Generated by pormake.
# Topology wna, (6)-cn, num edge types: 1
# Building blocks:
#     Node 0, Type 0, BuildingBlock: JUFBIX_clean_sbu_0, # of connection points: 6
#     Node 1, Type 0, BuildingBlock: JUFBIX_clean_sbu_0, # of connection points: 6
#     Node 2, Type 0, BuildingBlock: JUFBIX_clean_sbu_0, # of connection points: 6
#     Node 3, Type 0, BuildingBlock: JUFBIX_clean_sbu_0, # of connection points: 6
#     Node 4, Type 0, BuildingBlock: JUFBIX_clean_sbu_0, # of connection points: 6
#     Node 5, Type 0, BuildingBlock: JUFBIX_clean_sbu_0, # of connection points: 6
#     Node 6, Type 0, BuildingBlock: JUFBIX_clean_sbu_0, # of connection points: 6
#     Node 7, Type 0, BuildingBlock: JUFBIX_clean_sbu_0, # of connection points: 6
#     Node 8, Type 0, BuildingBlock: JUFBIX_clean_sbu_0, # of connection points: 6
#     Node 9, Type 0, BuildingBlock: JUFBIX_clean_sbu_0, # of connection points: 6
#     Node 10, Type 0, BuildingBlock: JUFBIX_clean_sbu_0, # of connection points: 6
#     Node 11, Type 0, BuildingBlock: JUFBIX_clean_sbu_0, # of connection points: 6
#     Node 12, Type 0, BuildingBlock: JUFBIX_clean_sbu_0, # of connection points: 6
#     Node 13, Type 0, BuildingBlock: JUFBIX_clean_sbu_0, # of connection points: 6
#     Node 14, Type 0, BuildingBlock: JUFBIX_clean_sbu_0, # of connection points: 6
#     Node 15, Type 0, BuildingBlock: JUFBIX_clean_sbu_0, # of connection points: 6
#     Node 16, Type 0, BuildingBlock: JUFBIX_clean_sbu_0, # of connection points: 6
#     Node 17, Type 0, BuildingBlock: JUFBIX_clean_sbu_0, # of connection points: 6
#     Node 18, Type 0, BuildingBlock: JUFBIX_clean_sbu_0, # of connection points: 6
#     Node 19, Type 0, BuildingBlock: JUFBIX_clean_sbu_0, # of connection points: 6
#     Node 20, Type 0, BuildingBlock: JUFBIX_clean_sbu_0, # of connection points: 6
#     Node 21, Type 0, BuildingBlock: JUFBIX_clean_sbu_0, # of connection points: 6
#     Node 22, Type 0, BuildingBlock: JUFBIX_clean_sbu_0, # of connection points: 6
#     Node 23, Type 0, BuildingBlock: JUFBIX_clean_sbu_0, # of connection points: 6
#     Node 24, Type 0, BuildingBlock: JUFBIX_clean_sbu_0, # of connection points: 6
#     Node 25, Type 0, BuildingBlock: JUFBIX_clean_sbu_0, # of connection points: 6
#     Node 26, Type 0, BuildingBlock: JUFBIX_clean_sbu_0, # of connection points: 6
#     Node 27, Type 0, BuildingBlock: JUFBIX_clean_sbu_0, # of connection points: 6
#     Node 28, Type 0, BuildingBlock: JUFBIX_clean_sbu_0, # of connection points: 6
#     Node 29, Type 0, BuildingBlock: JUFBIX_clean_sbu_0, # of connection points: 6
#     Node 30, Type 0, BuildingBlock: JUFBIX_clean_sbu_0, # of connection points: 6
#     Node 31, Type 0, BuildingBlock: JUFBIX_clean_sbu_0, # of connection points: 6
#     Node 32, Type 0, BuildingBlock: JUFBIX_clean_sbu_0, # of connection points: 6
#     Node 33, Type 0, BuildingBlock: JUFBIX_clean_sbu_0, # of connection points: 6
#     Node 34, Type 0, BuildingBlock: JUFBIX_clean_sbu_0, # of connection points: 6
#     Node 35, Type 0, BuildingBlock: JUFBIX_clean_sbu_0, # of connection points: 6
#     Edge 36, Type (0, 0), BuildingBlock: OJICUG_clean_linker_0, # of connection points: 2
#     Edge 37, Type (0, 0), BuildingBlock: OJICUG_clean_linker_0, # of connection points: 2
#     Edge 38, Type (0, 0), BuildingBlock: OJICUG_clean_linker_0, # of connection points: 2
#     Edge 39, Type (0, 0), BuildingBlock: OJICUG_clean_linker_0, # of connection points: 2
#     Edge 40, Type (0, 0), BuildingBlock: OJICUG_clean_linker_0, # of connection points: 2
#     Edge 41, Type (0, 0), BuildingBlock: OJICUG_clean_linker_0, # of connection points: 2
#     Edge 42, Type (0, 0), BuildingBlock: OJICUG_clean_linker_0, # of connection points: 2
#     Edge 43, Type (0, 0), BuildingBlock: OJICUG_clean_linker_0, # of connection points: 2
#     Edge 44, Type (0, 0), BuildingBlock: OJICUG_clean_linker_0, # of connection points: 2
#     Edge 45, Type (0, 0), BuildingBlock: OJICUG_clean_linker_0, # of connection points: 2
#     Edge 46, Type (0, 0), BuildingBlock: OJICUG_clean_linker_0, # of connection points: 2
#     Edge 47, Type (0, 0), BuildingBlock: OJICUG_clean_linker_0, # of connection points: 2
#     Edge 48, Type (0, 0), BuildingBlock: OJICUG_clean_linker_0, # of connection points: 2
#     Edge 49, Type (0, 0), BuildingBlock: OJICUG_clean_linker_0, # of connection points: 2
#     Edge 50, Type (0, 0), BuildingBlock: OJICUG_clean_linker_0, # of connection points: 2
#     Edge 51, Type (0, 0), BuildingBlock: OJICUG_clean_linker_0, # of connection points: 2
#     Edge 52, Type (0, 0), BuildingBlock: OJICUG_clean_linker_0, # of connection points: 2
#     Edge 53, Type (0, 0), BuildingBlock: OJICUG_clean_linker_0, # of connection points: 2
#     Edge 54, Type (0, 0), BuildingBlock: OJICUG_clean_linker_0, # of connection points: 2
#     Edge 55, Type (0, 0), BuildingBlock: OJICUG_clean_linker_0, # of connection points: 2
#     Edge 56, Type (0, 0), BuildingBlock: OJICUG_clean_linker_0, # of connection points: 2
#     Edge 57, Type (0, 0), BuildingBlock: OJICUG_clean_linker_0, # of connection points: 2
#     Edge 58, Type (0, 0), BuildingBlock: OJICUG_clean_linker_0, # of connection points: 2
#     Edge 59, Type (0, 0), BuildingBlock: OJICUG_clean_linker_0, # of connection points: 2
#     Edge 60, Type (0, 0), BuildingBlock: OJICUG_clean_linker_0, # of connection points: 2
#     Edge 61, Type (0, 0), BuildingBlock: OJICUG_clean_linker_0, # of connection points: 2
#     Edge 62, Type (0, 0), BuildingBlock: OJICUG_clean_linker_0, # of connection points: 2
#     Edge 63, Type (0, 0), BuildingBlock: OJICUG_clean_linker_0, # of connection points: 2
#     Edge 64, Type (0, 0), BuildingBlock: OJICUG_clean_linker_0, # of connection points: 2
#     Edge 65, Type (0, 0), BuildingBlock: OJICUG_clean_linker_0, # of connection points: 2
#     Edge 66, Type (0, 0), BuildingBlock: OJICUG_clean_linker_0, # of connection points: 2
#     Edge 67, Type (0, 0), BuildingBlock: OJICUG_clean_linker_0, # of connection points: 2
#     Edge 68, Type (0, 0), BuildingBlock: OJICUG_clean_linker_0, # of connection points: 2
#     Edge 69, Type (0, 0), BuildingBlock: OJICUG_clean_linker_0, # of connection points: 2
#     Edge 70, Type (0, 0), BuildingBlock: OJICUG_clean_linker_0, # of connection points: 2
#     Edge 71, Type (0, 0), BuildingBlock: OJICUG_clean_linker_0, # of connection points: 2
#     Edge 72, Type (0, 0), BuildingBlock: OJICUG_clean_linker_0, # of connection points: 2
#     Edge 73, Type (0, 0), BuildingBlock: OJICUG_clean_linker_0, # of connection points: 2
#     Edge 74, Type (0, 0), BuildingBlock: OJICUG_clean_linker_0, # of connection points: 2
#     Edge 75, Type (0, 0), BuildingBlock: OJICUG_clean_linker_0, # of connection points: 2
#     Edge 76, Type (0, 0), BuildingBlock: OJICUG_clean_linker_0, # of connection points: 2
#     Edge 77, Type (0, 0), BuildingBlock: OJICUG_clean_linker_0, # of connection points: 2
#     Edge 78, Type (0, 0), BuildingBlock: OJICUG_clean_linker_0, # of connection points: 2
#     Edge 79, Type (0, 0), BuildingBlock: OJICUG_clean_linker_0, # of connection points: 2
#     Edge 80, Type (0, 0), BuildingBlock: OJICUG_clean_linker_0, # of connection points: 2
#     Edge 81, Type (0, 0), BuildingBlock: OJICUG_clean_linker_0, # of connection points: 2
#     Edge 82, Type (0, 0), BuildingBlock: OJICUG_clean_linker_0, # of connection points: 2
#     Edge 83, Type (0, 0), BuildingBlock: OJICUG_clean_linker_0, # of connection points: 2
#     Edge 84, Type (0, 0), BuildingBlock: OJICUG_clean_linker_0, # of connection points: 2
#     Edge 85, Type (0, 0), BuildingBlock: OJICUG_clean_linker_0, # of connection points: 2
#     Edge 86, Type (0, 0), BuildingBlock: OJICUG_clean_linker_0, # of connection points: 2
#     Edge 87, Type (0, 0), BuildingBlock: OJICUG_clean_linker_0, # of connection points: 2
#     Edge 88, Type (0, 0), BuildingBlock: OJICUG_clean_linker_0, # of connection points: 2
#     Edge 89, Type (0, 0), BuildingBlock: OJICUG_clean_linker_0, # of connection points: 2
#     Edge 90, Type (0, 0), BuildingBlock: OJICUG_clean_linker_0, # of connection points: 2
#     Edge 91, Type (0, 0), BuildingBlock: OJICUG_clean_linker_0, # of connection points: 2
#     Edge 92, Type (0, 0), BuildingBlock: OJICUG_clean_linker_0, # of connection points: 2
#     Edge 93, Type (0, 0), BuildingBlock: OJICUG_clean_linker_0, # of connection points: 2
#     Edge 94, Type (0, 0), BuildingBlock: OJICUG_clean_linker_0, # of connection points: 2
#     Edge 95, Type (0, 0), BuildingBlock: OJICUG_clean_linker_0, # of connection points: 2
#     Edge 96, Type (0, 0), BuildingBlock: OJICUG_clean_linker_0, # of connection points: 2
#     Edge 97, Type (0, 0), BuildingBlock: OJICUG_clean_linker_0, # of connection points: 2
#     Edge 98, Type (0, 0), BuildingBlock: OJICUG_clean_linker_0, # of connection points: 2
#     Edge 99, Type (0, 0), BuildingBlock: OJICUG_clean_linker_0, # of connection points: 2
#     Edge 100, Type (0, 0), BuildingBlock: OJICUG_clean_linker_0, # of connection points: 2
#     Edge 101, Type (0, 0), BuildingBlock: OJICUG_clean_linker_0, # of connection points: 2
#     Edge 102, Type (0, 0), BuildingBlock: OJICUG_clean_linker_0, # of connection points: 2
#     Edge 103, Type (0, 0), BuildingBlock: OJICUG_clean_linker_0, # of connection points: 2
#     Edge 104, Type (0, 0), BuildingBlock: OJICUG_clean_linker_0, # of connection points: 2
#     Edge 105, Type (0, 0), BuildingBlock: OJICUG_clean_linker_0, # of connection points: 2
#     Edge 106, Type (0, 0), BuildingBlock: OJICUG_clean_linker_0, # of connection points: 2
#     Edge 107, Type (0, 0), BuildingBlock: OJICUG_clean_linker_0, # of connection points: 2
#     Edge 108, Type (0, 0), BuildingBlock: OJICUG_clean_linker_0, # of connection points: 2
#     Edge 109, Type (0, 0), BuildingBlock: OJICUG_clean_linker_0, # of connection points: 2
#     Edge 110, Type (0, 0), BuildingBlock: OJICUG_clean_linker_0, # of connection points: 2
#     Edge 111, Type (0, 0), BuildingBlock: OJICUG_clean_linker_0, # of connection points: 2
#     Edge 112, Type (0, 0), BuildingBlock: OJICUG_clean_linker_0, # of connection points: 2
#     Edge 113, Type (0, 0), BuildingBlock: OJICUG_clean_linker_0, # of connection points: 2
#     Edge 114, Type (0, 0), BuildingBlock: OJICUG_clean_linker_0, # of connection points: 2
#     Edge 115, Type (0, 0), BuildingBlock: OJICUG_clean_linker_0, # of connection points: 2
#     Edge 116, Type (0, 0), BuildingBlock: OJICUG_clean_linker_0, # of connection points: 2
#     Edge 117, Type (0, 0), BuildingBlock: OJICUG_clean_linker_0, # of connection points: 2
#     Edge 118, Type (0, 0), BuildingBlock: OJICUG_clean_linker_0, # of connection points: 2
#     Edge 119, Type (0, 0), BuildingBlock: OJICUG_clean_linker_0, # of connection points: 2
#     Edge 120, Type (0, 0), BuildingBlock: OJICUG_clean_linker_0, # of connection points: 2
#     Edge 121, Type (0, 0), BuildingBlock: OJICUG_clean_linker_0, # of connection points: 2
#     Edge 122, Type (0, 0), BuildingBlock: OJICUG_clean_linker_0, # of connection points: 2
#     Edge 123, Type (0, 0), BuildingBlock: OJICUG_clean_linker_0, # of connection points: 2
#     Edge 124, Type (0, 0), BuildingBlock: OJICUG_clean_linker_0, # of connection points: 2
#     Edge 125, Type (0, 0), BuildingBlock: OJICUG_clean_linker_0, # of connection points: 2
#     Edge 126, Type (0, 0), BuildingBlock: OJICUG_clean_linker_0, # of connection points: 2
#     Edge 127, Type (0, 0), BuildingBlock: OJICUG_clean_linker_0, # of connection points: 2
#     Edge 128, Type (0, 0), BuildingBlock: OJICUG_clean_linker_0, # of connection points: 2
#     Edge 129, Type (0, 0), BuildingBlock: OJICUG_clean_linker_0, # of connection points: 2
#     Edge 130, Type (0, 0), BuildingBlock: OJICUG_clean_linker_0, # of connection points: 2
#     Edge 131, Type (0, 0), BuildingBlock: OJICUG_clean_linker_0, # of connection points: 2
#     Edge 132, Type (0, 0), BuildingBlock: OJICUG_clean_linker_0, # of connection points: 2
#     Edge 133, Type (0, 0), BuildingBlock: OJICUG_clean_linker_0, # of connection points: 2
#     Edge 134, Type (0, 0), BuildingBlock: OJICUG_clean_linker_0, # of connection points: 2
#     Edge 135, Type (0, 0), BuildingBlock: OJICUG_clean_linker_0, # of connection points: 2
#     Edge 136, Type (0, 0), BuildingBlock: OJICUG_clean_linker_0, # of connection points: 2
#     Edge 137, Type (0, 0), BuildingBlock: OJICUG_clean_linker_0, # of connection points: 2
#     Edge 138, Type (0, 0), BuildingBlock: OJICUG_clean_linker_0, # of connection points: 2
#     Edge 139, Type (0, 0), BuildingBlock: OJICUG_clean_linker_0, # of connection points: 2
#     Edge 140, Type (0, 0), BuildingBlock: OJICUG_clean_linker_0, # of connection points: 2
#     Edge 141, Type (0, 0), BuildingBlock: OJICUG_clean_linker_0, # of connection points: 2
#     Edge 142, Type (0, 0), BuildingBlock: OJICUG_clean_linker_0, # of connection points: 2
#     Edge 143, Type (0, 0), BuildingBlock: OJICUG_clean_linker_0, # of connection points: 2
# Relax obj value: 0.467
# Max RMSD: 0.274
# Mean RMSD: 0.274
data_MOF--net-wna--node1-JUFBIX_clean_sbu_0--edge1-OJICUG_clean_linker_0
_symmetry_space_group_name_H-M    P1
_symmetry_Int_Tables_number       1
_symmetry_cell_setting            triclinic
loop_
_symmetry_equiv_pos_as_xyz
'x, y, z'
_cell_length_a     34.391783
_cell_length_b     34.429352
_cell_length_c     56.799223
_cell_angle_alpha  89.970524
_cell_angle_beta   90.043053
_cell_angle_gamma 119.97015
loop_
_atom_site_label
_atom_site_type_symbol
_atom_site_fract_x
_atom_site_fract_y
_atom_site_fract_z
_atom_type_partial_charge
Co0 Co 0.05726 0.22545 0.16591 0.0
C1 C 0.06351 0.30641 0.17689 0.0
Co2 Co 0.12117 0.27248 0.18309 0.0
C3 C 0.98322 0.13834 0.15959 0.0
C4 C 0.96965 0.18568 0.14252 0.0
N5 N 1.00185 0.1823 0.15438 0.0
N6 N 0.94087 0.11404 0.15166 0.0
C7 C 0.93184 0.14359 0.14094 0.0
H8 H 0.99962 0.12459 0.17022 0.0
H9 H 0.97285 0.21678 0.13619 0.0
C10 C 0.11666 0.19286 0.16964 0.0
N11 N 0.17743 0.3133 0.19459 0.0
C12 C 0.2156 0.31526 0.18712 0.0
C13 C 0.19105 0.34788 0.20974 0.0
N14 N 0.25242 0.34928 0.19693 0.0
C15 C 0.23742 0.37033 0.21112 0.0
C16 C 0.05858 0.21968 0.21573 0.0
O17 O 0.0792 0.18474 0.16123 0.0
O18 O 0.1397 0.22872 0.18116 0.0
O19 O 0.09865 0.25228 0.21415 0.0
O20 O 0.03645 0.20261 0.19693 0.0
O21 O 0.10219 0.31613 0.18454 0.0
H22 H 0.16887 0.35664 0.21883 0.0
H23 H 0.2166 0.29297 0.17401 0.0
O24 O 0.03685 0.26689 0.16958 0.0
O25 O 0.07761 0.24964 0.13552 0.0
O26 O 0.14305 0.29319 0.15207 0.0
C27 C 0.11821 0.28103 0.1339 0.0
H28 H 0.90014 0.13547 0.13288 0.0
H29 H 0.25838 0.39958 0.22173 0.0
Co30 Co 0.79573 0.83625 0.16687 0.0
C31 C 0.7152 0.75986 0.1782 0.0
Co32 Co 0.74694 0.84983 0.18492 0.0
C33 C 0.88293 0.8491 0.16041 0.0
C34 C 0.83565 0.79025 0.14181 0.0
N35 N 0.83901 0.82461 0.1548 0.0
N36 N 0.90721 0.83168 0.15162 0.0
C37 C 0.87769 0.79439 0.13995 0.0
H38 H 0.89666 0.87815 0.17182 0.0
H39 H 0.80458 0.76326 0.13483 0.0
C40 C 0.8263 0.92678 0.1713 0.0
N41 N 0.70574 0.8645 0.19674 0.0
C42 C 0.70209 0.899 0.18807 0.0
C43 C 0.67373 0.8462 0.21349 0.0
N44 N 0.66983 0.90362 0.1987 0.0
C45 C 0.65132 0.87025 0.21467 0.0
C46 C 0.80151 0.8413 0.2168 0.0
O47 O 0.83699 0.89863 0.16405 0.0
O48 O 0.7888 0.91251 0.18142 0.0
O49 O 0.76997 0.85045 0.21554 0.0
O50 O 0.81729 0.83498 0.19786 0.0
O51 O 0.70534 0.7873 0.18778 0.0
H52 H 0.66706 0.81735 0.22403 0.0
H53 H 0.72227 0.92012 0.17371 0.0
O54 O 0.75373 0.77434 0.16901 0.0
O55 O 0.77266 0.83603 0.13616 0.0
O56 O 0.72331 0.84756 0.15465 0.0
C57 C 0.73766 0.83983 0.13569 0.0
H58 H 0.88581 0.77163 0.13097 0.0
H59 H 0.62421 0.8642 0.22651 0.0
Co60 Co 0.18538 0.96247 0.16742 0.0
C61 C 0.26133 0.95822 0.17927 0.0
Co62 Co 0.1707 0.89932 0.18506 0.0
C63 C 0.18099 0.04281 0.16417 0.0
C64 C 0.21293 0.03574 0.13348 0.0
N65 N 0.19603 0.0168 0.1546 0.0
N66 N 0.18756 0.07683 0.15 0.0
C67 C 0.20732 0.07254 0.13051 0.0
H68 H 0.16285 0.03547 0.18063 0.0
H69 H 0.22659 0.02261 0.12064 0.0
C70 C 0.09437 0.90179 0.17122 0.0
N71 N 0.15616 0.84393 0.19756 0.0
C72 C 0.1293 0.80467 0.18656 0.0
C73 C 0.16242 0.83226 0.21932 0.0
N74 N 0.11816 0.76908 0.20047 0.0
C75 C 0.13857 0.78606 0.22124 0.0
C76 C 0.1791 0.9631 0.21694 0.0
O77 O 0.12286 0.9412 0.16473 0.0
O78 O 0.10817 0.87766 0.18085 0.0
O79 O 0.169 0.9222 0.21564 0.0
O80 O 0.18677 0.98547 0.19807 0.0
O81 O 0.23305 0.92071 0.18837 0.0
H82 H 0.18098 0.85573 0.23324 0.0
H83 H 0.11519 0.80215 0.1692 0.0
O84 O 0.2477 0.98288 0.1698 0.0
O85 O 0.18543 0.93886 0.13684 0.0
O86 O 0.17422 0.87803 0.15508 0.0
C87 C 0.18195 0.90028 0.13622 0.0
H88 H 0.21608 0.09381 0.1151 0.0
H89 H 0.13507 0.76657 0.23688 0.0
Co90 Co 0.23215 0.05543 0.35642 0.0
C91 C 0.31299 0.06122 0.3444 0.0
Co92 Co 0.27948 0.11864 0.33867 0.0
C93 C 0.14518 0.98184 0.36364 0.0
C94 C 0.19281 0.96891 0.38094 0.0
N95 N 0.18931 1.00054 0.3686 0.0
N96 N 0.12088 0.94006 0.37222 0.0
C97 C 0.1506 0.93139 0.38307 0.0
H98 H 0.13125 0.99766 0.35271 0.0
H99 H 0.22405 0.97228 0.38723 0.0
C100 C 0.20008 0.11494 0.3527 0.0
N101 N 0.31997 0.17423 0.3266 0.0
C102 C 0.32324 0.21236 0.33494 0.0
C103 C 0.35297 0.18774 0.31043 0.0
N104 N 0.35637 0.24908 0.32469 0.0
C105 C 0.37572 0.23413 0.3093 0.0
C106 C 0.22485 0.055 0.30682 0.0
O107 O 0.19086 0.07669 0.36028 0.0
O108 O 0.23681 0.13843 0.34196 0.0
O109 O 0.25659 0.09555 0.30801 0.0
O110 O 0.20921 0.03303 0.32577 0.0
O111 O 0.32197 0.09914 0.3361 0.0
H112 H 0.36043 0.1655 0.30046 0.0
H113 H 0.30256 0.21344 0.34899 0.0
O114 O 0.27428 0.03534 0.35304 0.0
O115 O 0.25652 0.07787 0.38693 0.0
O116 O 0.30294 0.14062 0.36889 0.0
C117 C 0.29007 0.11753 0.38761 0.0
H118 H 0.14251 0.9001 0.39157 0.0
H119 H 0.40393 0.25511 0.29804 0.0
Co120 Co 0.96669 0.18026 0.35605 0.0
C121 C 0.96366 0.25695 0.34425 0.0
Co122 Co 0.90461 0.16683 0.33754 0.0
C123 C 0.0402 0.1662 0.36356 0.0
C124 C 0.0525 0.22623 0.38112 0.0
N125 N 0.02113 0.19125 0.36861 0.0
N126 N 0.08211 0.18399 0.37217 0.0
C127 C 0.09029 0.22198 0.3832 0.0
H128 H 0.02462 0.13664 0.35251 0.0
H129 H 0.04887 0.25387 0.38748 0.0
C130 C 0.90559 0.08979 0.35195 0.0
N131 N 0.84928 0.15255 0.32482 0.0
C132 C 0.80974 0.12566 0.33562 0.0
C133 C 0.83801 0.15828 0.30286 0.0
N134 N 0.77441 0.11398 0.32137 0.0
C135 C 0.79181 0.13404 0.3006 0.0
C136 C 0.96834 0.17428 0.3062 0.0
O137 O 0.94423 0.11791 0.35953 0.0
O138 O 0.88273 0.10385 0.34113 0.0
O139 O 0.9279 0.16583 0.30722 0.0
O140 O 0.99003 0.18043 0.32528 0.0
O141 O 0.92631 0.22968 0.33459 0.0
H142 H 0.86176 0.17649 0.28898 0.0
H143 H 0.80689 0.11172 0.35305 0.0
O144 O 0.98754 0.2422 0.35341 0.0
O145 O 0.9437 0.18153 0.38642 0.0
O146 O 0.88286 0.16966 0.36771 0.0
C147 C 0.90489 0.17765 0.38672 0.0
H148 H 0.12152 0.24532 0.39175 0.0
H149 H 0.77266 0.12987 0.28473 0.0
Co150 Co 0.84207 0.79331 0.35723 0.0
C151 C 0.76677 0.71184 0.34724 0.0
Co152 Co 0.85759 0.74472 0.34046 0.0
C153 C 0.84437 0.87715 0.35918 0.0
C154 C 0.81088 0.83793 0.38958 0.0
N155 N 0.83005 0.83655 0.36909 0.0
N156 N 0.83515 0.90372 0.37255 0.0
C157 C 0.81448 0.87958 0.39188 0.0
H158 H 0.86361 0.88821 0.34305 0.0
H159 H 0.79674 0.81113 0.40241 0.0
C160 C 0.93335 0.82524 0.3528 0.0
N161 N 0.87269 0.70351 0.32915 0.0
C162 C 0.90831 0.70106 0.33721 0.0
C163 C 0.85225 0.66918 0.3138 0.0
N164 N 0.91134 0.66708 0.32757 0.0
C165 C 0.87597 0.64646 0.31289 0.0
C166 C 0.8467 0.79667 0.30745 0.0
O167 O 0.90465 0.83551 0.35987 0.0
O168 O 0.91972 0.78758 0.34301 0.0
O169 O 0.85614 0.76542 0.30928 0.0
O170 O 0.8405 0.81323 0.32608 0.0
O171 O 0.79498 0.70201 0.33862 0.0
H172 H 0.82182 0.66079 0.30425 0.0
H173 H 0.93098 0.72292 0.35065 0.0
O174 O 0.7803 0.751 0.35534 0.0
O175 O 0.84185 0.7712 0.38801 0.0
O176 O 0.85793 0.72356 0.37129 0.0
C177 C 0.84851 0.73813 0.38964 0.0
H178 H 0.8037 0.89155 0.40673 0.0
H179 H 0.86803 0.61733 0.30225 0.0
Co180 Co 0.90643 0.74295 0.83987 0.0
C181 C 0.91056 0.82295 0.85232 0.0
Co182 Co 0.97042 0.79129 0.85672 0.0
C183 C 0.81211 0.69928 0.8366 0.0
C184 C 0.83623 0.66796 0.81283 0.0
N185 N 0.85014 0.70173 0.82853 0.0
N186 N 0.77509 0.6659 0.82661 0.0
C187 C 0.78979 0.64561 0.81169 0.0
H188 H 0.81135 0.72091 0.8502 0.0
H189 H 0.85825 0.65985 0.80308 0.0
C190 C 0.96436 0.70985 0.84666 0.0
N191 N 0.02577 0.83469 0.86819 0.0
C192 C 0.0447 0.87853 0.86263 0.0
C193 C 0.05746 0.8315 0.88067 0.0
N194 N 0.08674 0.90292 0.87097 0.0
C195 C 0.09527 0.87357 0.88229 0.0
C196 C 0.90935 0.73645 0.88906 0.0
O197 O 0.92597 0.69987 0.83845 0.0
O198 O 0.99043 0.74936 0.85419 0.0
O199 O 0.94954 0.76869 0.88739 0.0
O200 O 0.88493 0.72249 0.87079 0.0
O201 O 0.94895 0.83261 0.86002 0.0
H202 H 0.05387 0.80054 0.8875 0.0
H203 H 0.02871 0.89214 0.85159 0.0
O204 O 0.88711 0.78586 0.84192 0.0
O205 O 0.9289 0.76324 0.8087 0.0
O206 O 0.99162 0.81241 0.82573 0.0
C207 C 0.96928 0.79529 0.80702 0.0
H208 H 0.76862 0.61708 0.80068 0.0
H209 H 0.12659 0.88185 0.89087 0.0
Co210 Co 0.28107 0.16731 0.83823 0.0
C211 C 0.20179 0.09025 0.85187 0.0
Co212 Co 0.23228 0.18068 0.85638 0.0
C213 C 0.32593 0.11822 0.83465 0.0
C214 C 0.35435 0.17152 0.80952 0.0
N215 N 0.32219 0.15278 0.82616 0.0
N216 N 0.35839 0.11399 0.82399 0.0
C217 C 0.37695 0.14768 0.80821 0.0
H218 H 0.30578 0.09685 0.84895 0.0
H219 H 0.36107 0.20062 0.79917 0.0
C220 C 0.31267 0.25719 0.845 0.0
N221 N 0.18935 0.19227 0.86885 0.0
C222 C 0.14524 0.16766 0.86373 0.0
C223 C 0.19314 0.22647 0.88215 0.0
N224 N 0.12125 0.18483 0.87316 0.0
C225 C 0.15114 0.22213 0.88469 0.0
C226 C 0.29069 0.17717 0.8874 0.0
O227 O 0.32254 0.22986 0.83532 0.0
O228 O 0.27419 0.24257 0.85427 0.0
O229 O 0.25558 0.18073 0.88693 0.0
O230 O 0.30519 0.16965 0.86844 0.0
O231 O 0.19105 0.11834 0.85915 0.0
H232 H 0.22443 0.25342 0.88894 0.0
H233 H 0.13109 0.13865 0.85228 0.0
O234 O 0.23933 0.10458 0.84179 0.0
O235 O 0.25753 0.16661 0.8077 0.0
O236 O 0.21032 0.18206 0.82553 0.0
C237 C 0.22591 0.17567 0.80654 0.0
H238 H 0.40431 0.15416 0.79645 0.0
H239 H 0.14326 0.24474 0.89402 0.0
Co240 Co 0.85959 0.11874 0.83968 0.0
C241 C 0.93436 0.11512 0.85383 0.0
Co242 Co 0.84244 0.05398 0.85599 0.0
C243 C 0.90214 0.21358 0.83857 0.0
C244 C 0.86662 0.18616 0.80633 0.0
N245 N 0.87453 0.17443 0.82771 0.0
N246 N 0.91218 0.24918 0.82488 0.0
C247 C 0.89027 0.23233 0.80445 0.0
H248 H 0.91729 0.21599 0.85563 0.0
H249 H 0.84682 0.16275 0.79264 0.0
C250 C 0.76822 0.06019 0.84383 0.0
N251 N 0.83044 0.99883 0.86774 0.0
C252 C 0.85629 0.98047 0.86311 0.0
C253 C 0.79456 0.96661 0.87935 0.0
N254 N 0.83822 0.93823 0.87115 0.0
C255 C 0.79915 0.92904 0.88133 0.0
C256 C 0.84572 0.11429 0.88837 0.0
O257 O 0.79763 0.09908 0.83687 0.0
O258 O 0.78049 0.03326 0.85158 0.0
O259 O 0.83777 0.07416 0.88641 0.0
O260 O 0.85793 0.13961 0.87043 0.0
O261 O 0.90515 0.07632 0.86081 0.0
H262 H 0.76623 0.9696 0.88517 0.0
H263 H 0.88676 0.9969 0.85276 0.0
O264 O 0.92155 0.13907 0.84317 0.0
O265 O 0.85981 0.09615 0.8086 0.0
O266 O 0.84524 0.03318 0.8255 0.0
C267 C 0.85162 0.05585 0.80685 0.0
H268 H 0.89249 0.25191 0.78906 0.0
H269 H 0.77536 0.89731 0.88925 0.0
Co270 Co 0.74914 0.89998 0.68516 0.0
C271 C 0.82754 0.90198 0.67124 0.0
Co272 Co 0.79732 0.96277 0.66719 0.0
C273 C 0.69508 0.80544 0.68738 0.0
C274 C 0.69154 0.83414 0.72016 0.0
N275 N 0.7084 0.84507 0.69816 0.0
N276 N 0.67109 0.77035 0.70165 0.0
C277 C 0.66896 0.78799 0.72244 0.0
H278 H 0.70579 0.80228 0.66991 0.0
H279 H 0.69745 0.85805 0.73399 0.0
C280 C 0.71762 0.95895 0.67918 0.0
N281 N 0.84088 0.01661 0.65393 0.0
C282 C 0.88202 0.04272 0.66339 0.0
C283 C 0.84296 0.03487 0.63259 0.0
N284 N 0.90956 0.07615 0.64897 0.0
C285 C 0.88548 0.07141 0.6294 0.0
C286 C 0.73778 0.89986 0.63636 0.0
O287 O 0.70857 0.9217 0.68854 0.0
O288 O 0.75564 0.98333 0.66942 0.0
O289 O 0.77308 0.93831 0.63677 0.0
O290 O 0.72344 0.878 0.65534 0.0
O291 O 0.83843 0.94134 0.66468 0.0
H292 H 0.8161 0.02145 0.61976 0.0
H293 H 0.89283 0.03584 0.67999 0.0
O294 O 0.78966 0.8779 0.68091 0.0
O295 O 0.7746 0.92357 0.71555 0.0
O296 O 0.81948 0.9867 0.69773 0.0
C297 C 0.8052 0.96458 0.71669 0.0
H298 H 0.65382 0.769 0.73832 0.0
H299 H 0.898 0.09221 0.61383 0.0
Co300 Co 0.1238 0.85096 0.68485 0.0
C301 C 0.12101 0.92798 0.67179 0.0
Co302 Co 0.06136 0.83746 0.66681 0.0
C303 C 0.21794 0.90074 0.68822 0.0
C304 C 0.19364 0.84699 0.71308 0.0
N305 N 0.17983 0.86578 0.69664 0.0
N306 N 0.25489 0.90513 0.69872 0.0
C307 C 0.2401 0.87117 0.71432 0.0
H308 H 0.21882 0.92226 0.6741 0.0
H309 H 0.17153 0.81765 0.72333 0.0
C310 C 0.06609 0.76102 0.67741 0.0
N311 N 1.00637 0.82574 0.65477 0.0
C312 C 0.98676 0.84999 0.66048 0.0
C313 C 0.97545 0.79142 0.64171 0.0
N314 N 0.94503 0.83246 0.65169 0.0
C315 C 0.93742 0.79534 0.63991 0.0
C316 C 0.12322 0.84222 0.63556 0.0
O317 O 0.10328 0.78837 0.68714 0.0
O318 O 0.04178 0.77553 0.66853 0.0
O319 O 0.08429 0.83805 0.63612 0.0
O320 O 0.14538 0.84975 0.6545 0.0
O321 O 0.08225 0.89989 0.66436 0.0
H322 H 0.97968 0.76459 0.63464 0.0
H323 H 1.00198 0.87894 0.67196 0.0
O324 O 0.14421 0.91359 0.68186 0.0
O325 O 0.10106 0.85049 0.71554 0.0
O326 O 0.0384 0.83539 0.69779 0.0
C327 C 0.06032 0.84122 0.71675 0.0
H328 H 0.2612 0.86471 0.72594 0.0
H329 H 0.90656 0.77256 0.63089 0.0
Co330 Co 0.16989 0.27226 0.68305 0.0
C331 C 0.0961 0.19279 0.66923 0.0
Co332 Co 0.18864 0.22638 0.66654 0.0
C333 C 0.11783 0.31446 0.68689 0.0
C334 C 0.17518 0.34748 0.70941 0.0
N335 N 0.15397 0.31255 0.69448 0.0
N336 N 0.11541 0.3489 0.69635 0.0
C337 C 0.15153 0.37018 0.71049 0.0
H338 H 0.0945 0.29201 0.67382 0.0
H339 H 0.20626 0.35646 0.71843 0.0
C340 C 0.26186 0.30748 0.6782 0.0
N341 N 0.20164 0.18369 0.65513 0.0
C342 C 0.1759 0.13957 0.65986 0.0
C343 C 0.23805 0.18742 0.64406 0.0
N344 N 0.19449 0.11549 0.65239 0.0
C345 C 0.23384 0.14537 0.64247 0.0
C346 C 0.18323 0.28182 0.63418 0.0
O347 O 0.23171 0.31649 0.68439 0.0
O348 O 0.25046 0.2679 0.67154 0.0
O349 O 0.19423 0.25175 0.63623 0.0
O350 O 0.16825 0.29251 0.65198 0.0
O351 O 0.12606 0.18567 0.66075 0.0
H352 H 0.2665 0.21874 0.63837 0.0
H353 H 0.14509 0.12554 0.66992 0.0
O354 O 0.1081 0.22799 0.6812 0.0
O355 O 0.17276 0.25255 0.71423 0.0
O356 O 0.18487 0.20244 0.69732 0.0
C357 C 0.17994 0.21979 0.716 0.0
H358 H 0.16017 0.39991 0.72075 0.0
H359 H 0.25805 0.1375 0.63501 0.0
Co360 Co 0.72451 0.56031 0.49986 0.0
C361 C 0.73308 0.64186 0.51087 0.0
Co362 Co 0.7893 0.60606 0.51635 0.0
C363 C 0.6502 0.4735 0.4933 0.0
C364 C 0.63599 0.52133 0.47736 0.0
N365 N 0.66868 0.51761 0.48847 0.0
N366 N 0.6075 0.44941 0.48583 0.0
C367 C 0.59808 0.47928 0.47583 0.0
H368 H 0.66695 0.45947 0.50341 0.0
H369 H 0.63891 0.55262 0.47159 0.0
C370 C 0.78294 0.52612 0.50304 0.0
N371 N 0.84583 0.64627 0.52766 0.0
C372 C 0.88366 0.64772 0.52003 0.0
C373 C 0.86006 0.6818 0.54221 0.0
N374 N 0.92087 0.68248 0.52908 0.0
C375 C 0.90645 0.70438 0.54301 0.0
C376 C 0.72629 0.55462 0.54937 0.0
O377 O 0.74603 0.51926 0.4944 0.0
O378 O 0.80627 0.56135 0.51497 0.0
O379 O 0.76642 0.5871 0.54759 0.0
O380 O 0.70411 0.53692 0.5307 0.0
O381 O 0.7722 0.65078 0.51716 0.0
H382 H 0.83829 0.69136 0.55108 0.0
H383 H 0.88411 0.62479 0.50715 0.0
O384 O 0.70464 0.60216 0.50449 0.0
O385 O 0.7445 0.58528 0.46948 0.0
O386 O 0.81133 0.62553 0.48526 0.0
C387 C 0.7857 0.61497 0.46745 0.0
H388 H 0.56602 0.47142 0.46834 0.0
H389 H 0.92785 0.73455 0.5529 0.0
Co390 Co 0.4628 0.1713 0.50035 0.0
C391 C 0.38201 0.09469 0.51125 0.0
Co392 Co 0.41395 0.18458 0.51855 0.0
C393 C 0.54982 0.18387 0.4937 0.0
C394 C 0.5023 0.1253 0.47499 0.0
N395 N 0.50589 0.15963 0.4881 0.0
N396 N 0.57388 0.1663 0.4848 0.0
C397 C 0.54422 0.12919 0.47306 0.0
H398 H 0.5637 0.21282 0.50519 0.0
H399 H 0.47115 0.09846 0.468 0.0
C400 C 0.49347 0.26178 0.50515 0.0
N401 N 0.37282 0.19924 0.53053 0.0
C402 C 0.36951 0.23414 0.52216 0.0
C403 C 0.34037 0.18038 0.54701 0.0
N404 N 0.33702 0.23844 0.53274 0.0
C405 C 0.31801 0.20447 0.54834 0.0
C406 C 0.46859 0.17563 0.55028 0.0
O407 O 0.50416 0.23374 0.49769 0.0
O408 O 0.45601 0.24732 0.51534 0.0
O409 O 0.43689 0.18458 0.54916 0.0
O410 O 0.48441 0.16965 0.53127 0.0
O411 O 0.37209 0.12191 0.52104 0.0
H412 H 0.33326 0.15104 0.55723 0.0
H413 H 0.38997 0.25568 0.508 0.0
O414 O 0.42075 0.1094 0.50227 0.0
O415 O 0.43975 0.17147 0.46972 0.0
O416 O 0.39046 0.18295 0.48831 0.0
C417 C 0.40481 0.17535 0.46931 0.0
H418 H 0.55217 0.10637 0.464 0.0
H419 H 0.2905 0.19794 0.55999 0.0
Co420 Co 0.85189 0.29607 0.50012 0.0
C421 C 0.92774 0.29192 0.5118 0.0
Co422 Co 0.83719 0.2331 0.5179 0.0
C423 C 0.84699 0.37598 0.49677 0.0
C424 C 0.87846 0.36883 0.46592 0.0
N425 N 0.86214 0.35012 0.48716 0.0
N426 N 0.85291 0.40968 0.48254 0.0
C427 C 0.87241 0.40537 0.46294 0.0
H428 H 0.82918 0.36873 0.51334 0.0
H429 H 0.89201 0.3557 0.45301 0.0
C430 C 0.76085 0.23538 0.50426 0.0
N431 N 0.82322 0.17814 0.53063 0.0
C432 C 0.79655 0.13862 0.51984 0.0
C433 C 0.83023 0.16704 0.55238 0.0
N434 N 0.78627 0.10341 0.53388 0.0
C435 C 0.80698 0.12087 0.55452 0.0
C436 C 0.84604 0.29721 0.54966 0.0
O437 O 0.78935 0.27472 0.4977 0.0
O438 O 0.7746 0.21119 0.51387 0.0
O439 O 0.83572 0.25625 0.54841 0.0
O440 O 0.85376 0.31949 0.53075 0.0
O441 O 0.89947 0.25462 0.52106 0.0
H442 H 0.84895 0.19084 0.56614 0.0
H443 H 0.78202 0.13562 0.50256 0.0
O444 O 0.91421 0.31658 0.50224 0.0
O445 O 0.85146 0.27208 0.46957 0.0
O446 O 0.84044 0.21146 0.48796 0.0
C447 C 0.84793 0.23349 0.46904 0.0
H448 H 0.88076 0.42647 0.44749 0.0
H449 H 0.80408 0.10172 0.5702 0.0
Co450 Co 0.89963 0.39008 0.68905 0.0
C451 C 0.9794 0.39384 0.67728 0.0
Co452 Co 0.94822 0.45297 0.67129 0.0
C453 C 0.81477 0.31013 0.69258 0.0
C454 C 0.8538 0.31751 0.72333 0.0
N455 N 0.85588 0.3361 0.70208 0.0
N456 N 0.78722 0.27649 0.70689 0.0
C457 C 0.81129 0.28094 0.72642 0.0
H458 H 0.804 0.31724 0.67602 0.0
H459 H 0.88065 0.33073 0.73615 0.0
C460 C 0.86982 0.45101 0.68501 0.0
N461 N 0.98922 0.50801 0.65857 0.0
C462 C 1.00208 0.54748 0.66942 0.0
C463 C 1.00683 0.51923 0.63674 0.0
N464 N 0.0265 0.58277 0.65534 0.0
C465 C 0.02944 0.56541 0.63462 0.0
C466 C 0.89245 0.38897 0.63955 0.0
O467 O 0.85869 0.41159 0.69155 0.0
O468 O 0.90777 0.475 0.6754 0.0
O469 O 0.92332 0.42985 0.6408 0.0
O470 O 0.87781 0.3667 0.65845 0.0
O471 O 0.98875 0.43126 0.66804 0.0
H472 H 1.00148 0.4955 0.62289 0.0
H473 H 0.99078 0.55037 0.68678 0.0
O474 O 0.94121 0.36941 0.68685 0.0
O475 O 0.92341 0.41404 0.71956 0.0
O476 O 0.97334 0.47455 0.70124 0.0
C477 C 0.95863 0.45251 0.72015 0.0
H478 H 0.79876 0.25992 0.74191 0.0
H479 H 0.04519 0.58461 0.61888 0.0
Co480 Co 0.63713 0.5165 0.68974 0.0
C481 C 0.63121 0.59201 0.67967 0.0
Co482 Co 0.57328 0.50135 0.67288 0.0
C483 C 0.71169 0.50402 0.69575 0.0
C484 C 0.72341 0.56301 0.71424 0.0
N485 N 0.69232 0.5285 0.70135 0.0
N486 N 0.75347 0.5216 0.70446 0.0
C487 C 0.76136 0.55898 0.71605 0.0
H488 H 0.69619 0.47477 0.68448 0.0
H489 H 0.71929 0.58994 0.72125 0.0
C490 C 0.57719 0.42523 0.6854 0.0
N491 N 0.51701 0.48639 0.66151 0.0
C492 C 0.47901 0.45114 0.66981 0.0
C493 C 0.50306 0.50573 0.64548 0.0
N494 N 0.44196 0.44717 0.65963 0.0
C495 C 0.45662 0.48164 0.64436 0.0
C496 C 0.63627 0.51164 0.64003 0.0
O497 O 0.61577 0.45373 0.69296 0.0
O498 O 0.55381 0.43913 0.67509 0.0
O499 O 0.59583 0.50327 0.64171 0.0
O500 O 0.65862 0.51686 0.65875 0.0
O501 O 0.5929 0.56391 0.67131 0.0
H502 H 0.52506 0.53544 0.63545 0.0
H503 H 0.47832 0.42916 0.68363 0.0
O504 O 0.65705 0.57832 0.6873 0.0
O505 O 0.61617 0.51796 0.72037 0.0
O506 O 0.5518 0.50061 0.70383 0.0
C507 C 0.5762 0.51065 0.7221 0.0
H508 H 0.79231 0.5818 0.72498 0.0
H509 H 0.43542 0.48855 0.63307 0.0
Co510 Co 0.50806 0.12617 0.69019 0.0
C511 C 0.4346 0.04484 0.67914 0.0
Co512 Co 0.52654 0.08004 0.67372 0.0
C513 C 0.52142 0.21327 0.6969 0.0
C514 C 0.45944 0.1657 0.71298 0.0
N515 N 0.49548 0.16915 0.70162 0.0
N516 N 0.50334 0.23761 0.70468 0.0
C517 C 0.46408 0.20791 0.71475 0.0
H518 H 0.55205 0.22716 0.68669 0.0
H519 H 0.431 0.13449 0.71879 0.0
C520 C 0.60056 0.1597 0.68702 0.0
N521 N 0.54228 0.03952 0.66235 0.0
C522 C 0.57861 0.03782 0.66983 0.0
C523 C 0.5208 1.00426 0.64765 0.0
N524 N 0.58089 1.00319 0.66051 0.0
C525 C 0.54449 0.98158 0.64659 0.0
C526 C 0.51571 0.13197 0.64069 0.0
O527 O 0.57072 0.16688 0.6956 0.0
O528 O 0.5884 0.12435 0.67517 0.0
O529 O 0.52297 0.09924 0.64249 0.0
O530 O 0.51121 0.14963 0.65936 0.0
O531 O 0.46465 0.03576 0.67281 0.0
H532 H 0.48952 0.99504 0.63878 0.0
H533 H 0.60218 0.06056 0.68272 0.0
O534 O 0.4461 0.08457 0.68558 0.0
O535 O 0.50304 0.10129 0.72054 0.0
O536 O 0.52879 0.0603 0.70485 0.0
C537 C 0.514 0.07122 0.72263 0.0
H538 H 0.44023 0.21601 0.72248 0.0
H539 H 0.53567 0.95164 0.63648 0.0
Co540 Co 0.57412 0.07908 0.17314 0.0
C541 C 0.5805 0.15891 0.18659 0.0
Co542 Co 0.63886 0.12484 0.18977 0.0
C543 C 0.47965 0.03756 0.16931 0.0
C544 C 0.50335 1.00358 0.14713 0.0
N545 N 0.51752 0.039 0.16175 0.0
N546 N 0.44247 1.0029 0.16016 0.0
C547 C 0.45696 0.98106 0.14622 0.0
H548 H 0.47913 0.06044 0.18221 0.0
H549 H 0.52515 0.99404 0.13827 0.0
C550 C 0.63014 0.04322 0.17859 0.0
N551 N 0.69476 0.16731 0.2012 0.0
C552 C 0.71366 0.2114 0.19625 0.0
C553 C 0.72719 0.16329 0.21241 0.0
N554 N 0.75641 0.2352 0.20371 0.0
C555 C 0.76538 0.20514 0.21387 0.0
C556 C 0.57755 0.07017 0.22205 0.0
O557 O 0.59109 0.03437 0.1722 0.0
O558 O 0.65855 0.08286 0.18508 0.0
O559 O 0.61875 0.09986 0.22007 0.0
O560 O 0.55202 0.05943 0.20419 0.0
O561 O 0.61747 0.16598 0.19525 0.0
H562 H 0.7239 0.1319 0.21829 0.0
H563 H 0.69714 0.22558 0.18607 0.0
O564 O 0.55727 0.12369 0.17465 0.0
O565 O 0.59712 0.0984 0.14195 0.0
O566 O 0.65934 0.14838 0.15901 0.0
C567 C 0.63722 0.131 0.14029 0.0
H568 H 0.43561 0.951 0.13625 0.0
H569 H 0.7973 0.21274 0.22145 0.0
Co570 Co 0.94985 0.50061 0.17114 0.0
C571 C 0.87155 0.42277 0.18454 0.0
Co572 Co 0.9002 0.51303 0.18914 0.0
C573 C 1.00428 0.46027 0.16957 0.0
C574 C 1.00796 0.49193 0.13656 0.0
N575 N 0.99143 0.48688 0.15859 0.0
N576 N 0.02756 0.44809 0.15537 0.0
C577 C 0.02979 0.46755 0.13445 0.0
H578 H 0.99331 0.4466 0.18705 0.0
H579 H 1.00194 0.50952 0.12253 0.0
C580 C 0.98017 0.5904 0.17819 0.0
N581 N 0.8563 0.52336 0.20164 0.0
C582 C 0.8123 0.4986 0.19619 0.0
C583 C 0.85947 0.5572 0.21502 0.0
N584 N 0.78783 0.51546 0.20543 0.0
C585 C 0.8173 0.55257 0.21725 0.0
C586 C 0.95898 0.51026 0.22024 0.0
O587 O 0.99029 0.56355 0.16808 0.0
O588 O 0.94166 0.57518 0.18757 0.0
O589 O 0.92311 0.51247 0.21973 0.0
O590 O 0.97442 0.50401 0.20127 0.0
O591 O 0.85981 0.45047 0.19128 0.0
H592 H 0.8905 0.58423 0.22201 0.0
H593 H 0.79865 0.46985 0.18457 0.0
O594 O 0.90969 0.43758 0.17498 0.0
O595 O 0.92527 0.49914 0.14064 0.0
O596 O 0.87852 0.51514 0.15841 0.0
C597 C 0.89396 0.50862 0.13944 0.0
H598 H 0.04415 0.46264 0.11855 0.0
H599 H 0.80905 0.57495 0.22654 0.0
Co600 Co 0.52512 0.45061 0.17387 0.0
C601 C 0.6005 0.44664 0.18666 0.0
Co602 Co 0.50852 0.38606 0.19041 0.0
C603 C 0.56717 0.54539 0.17214 0.0
C604 C 0.531 0.51711 0.14016 0.0
N605 N 0.53944 0.50593 0.16157 0.0
N606 N 0.57673 0.58062 0.15825 0.0
C607 C 0.55446 0.56324 0.13797 0.0
H608 H 0.58275 0.54829 0.18911 0.0
H609 H 0.511 0.49334 0.12665 0.0
C610 C 0.43367 0.39203 0.17957 0.0
N611 N 0.49782 0.33165 0.20289 0.0
C612 C 0.51405 0.30668 0.19337 0.0
C613 C 0.4801 0.31175 0.22373 0.0
N614 N 0.5075 0.27241 0.20729 0.0
C615 C 0.48644 0.27537 0.22658 0.0
C616 C 0.51421 0.448 0.22269 0.0
O617 O 0.46276 0.43036 0.17168 0.0
O618 O 0.4463 0.36558 0.18771 0.0
O619 O 0.50712 0.40817 0.22094 0.0
O620 O 0.52447 0.47242 0.20449 0.0
O621 O 0.57145 0.40762 0.19349 0.0
H622 H 0.46539 0.32396 0.23647 0.0
H623 H 0.53302 0.31497 0.17714 0.0
O624 O 0.58735 0.47112 0.17684 0.0
O625 O 0.52446 0.42744 0.14281 0.0
O626 O 0.508 0.364 0.15971 0.0
C627 C 0.51488 0.38672 0.14106 0.0
H628 H 0.55629 0.58242 0.12248 0.0
H629 H 0.47722 0.25347 0.24174 0.0
Co630 Co 0.41422 0.23261 0.0187 0.0
C631 C 0.49253 0.23473 1.00447 0.0
Co632 Co 0.46244 0.29589 1.00117 0.0
C633 C 0.36102 0.13805 0.0201 0.0
C634 C 0.35541 0.16558 0.05285 0.0
N635 N 0.37346 0.17726 0.03113 0.0
N636 N 0.33645 0.10246 0.03398 0.0
C637 C 0.33295 0.11938 0.05473 0.0
H638 H 0.3727 0.13557 1.00277 0.0
H639 H 0.36029 0.18903 0.06677 0.0
C640 C 0.38216 0.29118 0.01341 0.0
N641 N 0.50583 0.35067 0.98893 0.0
C642 C 0.55003 0.36932 0.99382 0.0
C643 C 0.50231 0.38247 0.97679 0.0
N644 N 0.5743 0.41132 0.98543 0.0
C645 C 0.54448 0.42004 0.97474 0.0
C646 C 0.40359 0.23443 0.96983 0.0
O647 O 0.37295 0.25339 0.02202 0.0
O648 O 0.42066 0.31645 1.00436 0.0
O649 O 0.43817 0.27343 0.97056 0.0
O650 O 0.38968 0.21156 0.98857 0.0
O651 O 0.50306 0.27382 0.99763 0.0
H652 H 0.47105 0.37925 0.97065 0.0
H653 H 0.564 0.35334 1.0046 0.0
O654 O 0.45512 0.21103 0.01462 0.0
O655 O 0.4387 0.25555 0.0493 0.0
O656 O 0.48537 0.31852 0.03177 0.0
C657 C 0.4701 0.29623 0.05064 0.0
H658 H 0.3169 0.09985 0.07034 0.0
H659 H 0.55247 0.45147 0.96642 0.0
Co660 Co 0.79046 0.18593 0.01678 0.0
C661 C 0.78661 0.26091 1.00329 0.0
Co662 Co 0.72562 0.16916 1.00053 0.0
C663 C 0.88552 0.22847 0.01817 0.0
C664 C 0.85768 0.19336 0.05044 0.0
N665 N 0.84618 0.20083 0.02889 0.0
N666 N 0.92095 0.23889 0.03211 0.0
C667 C 0.90385 0.21732 0.05257 0.0
H668 H 0.88817 0.24352 1.00107 0.0
H669 H 0.83408 0.17382 0.06412 0.0
C670 C 0.73217 0.09482 0.01191 0.0
N671 N 0.67038 0.15704 0.98872 0.0
C672 C 0.65145 0.18228 0.99359 0.0
C673 C 0.63857 0.12141 0.97678 0.0
N674 N 0.60922 0.16404 0.98538 0.0
C675 C 0.60067 0.12551 0.97483 0.0
C676 C 0.78642 0.17342 0.96805 0.0
O677 O 0.77101 0.12399 0.01911 0.0
O678 O 0.70522 0.10727 1.00441 0.0
O679 O 0.74626 0.16549 0.97004 0.0
O680 O 0.81169 0.18512 0.98602 0.0
O681 O 0.74773 0.23192 0.99623 0.0
H682 H 0.64207 0.09356 0.97067 0.0
H683 H 0.66749 0.21244 1.00418 0.0
O684 O 0.81058 0.24783 0.01372 0.0
O685 O 0.76746 0.18528 0.04786 0.0
O686 O 0.70436 0.17089 0.03108 0.0
C687 C 0.72706 0.17688 0.04969 0.0
H688 H 0.92323 0.22015 0.06816 0.0
H689 H 0.56919 0.10179 0.96664 0.0
Co690 Co 0.83832 0.60773 0.01644 0.0
C691 C 0.76219 0.52774 1.0039 0.0
Co692 Co 0.85384 0.55948 0.99944 0.0
C693 C 0.78784 0.65152 0.01995 0.0
C694 C 0.84382 0.68311 0.04342 0.0
N695 N 0.82345 0.649 0.02794 0.0
N696 N 0.78469 0.68529 0.02977 0.0
C697 C 0.82002 0.70576 0.04449 0.0
H698 H 0.76518 0.62979 1.00647 0.0
H699 H 0.8742 0.69137 0.05298 0.0
C700 C 0.92947 0.64082 1.00963 0.0
N701 N 0.86554 0.5162 0.98765 0.0
C702 C 0.84059 0.47225 0.99295 0.0
C703 C 0.89994 0.51953 0.97468 0.0
N704 N 0.85774 0.44791 0.98396 0.0
C705 C 0.89536 0.47741 0.97252 0.0
C706 C 0.84781 0.61482 0.96729 0.0
O707 O 0.90112 0.65071 0.01799 0.0
O708 O 0.91594 0.60142 1.00189 0.0
O709 O 0.85533 0.5823 0.96888 0.0
O710 O 0.83746 0.62872 0.98561 0.0
O711 O 0.79094 0.51812 0.99622 0.0
H712 H 0.92712 0.55057 0.96781 0.0
H713 H 0.8113 0.45847 1.00421 0.0
O714 O 0.77587 0.56488 0.01427 0.0
O715 O 0.84037 0.58693 0.04754 0.0
O716 O 0.85417 0.53806 0.03038 0.0
C717 C 0.84884 0.55495 0.04914 0.0
H718 H 0.82785 0.73467 0.05529 0.0
H719 H 0.91801 0.46919 0.96346 0.0
Co720 Co 0.3917 0.89378 0.83352 0.0
C721 C 0.39966 0.9756 0.8443 0.0
Co722 Co 0.45654 0.94108 0.84974 0.0
C723 C 0.31672 0.80707 0.8274 0.0
C724 C 0.3039 0.85502 0.81045 0.0
N725 N 0.33588 0.85107 0.82219 0.0
N726 N 0.27422 0.78327 0.81956 0.0
C727 C 0.26569 0.81322 0.80892 0.0
H728 H 0.33289 0.79294 0.83791 0.0
H729 H 0.30754 0.88633 0.80415 0.0
C730 C 0.45114 0.86111 0.83673 0.0
N731 N 0.51285 0.98161 0.86106 0.0
C732 C 0.55077 0.9841 0.85284 0.0
C733 C 0.52681 0.01527 0.87683 0.0
N734 N 0.5878 0.01753 0.86277 0.0
C735 C 0.57321 0.03771 0.87783 0.0
C736 C 0.39377 0.88869 0.88293 0.0
O737 O 0.41294 0.85223 0.82901 0.0
O738 O 0.47476 0.8976 0.8476 0.0
O739 O 0.43402 0.92099 0.88108 0.0
O740 O 0.37125 0.87144 0.86432 0.0
O741 O 0.43857 0.98488 0.85118 0.0
H742 H 0.50483 0.02335 0.88664 0.0
H743 H 0.55142 0.96259 0.83914 0.0
O744 O 0.37198 0.93599 0.83745 0.0
O745 O 0.41187 0.91764 0.8029 0.0
O746 O 0.47797 0.96133 0.81874 0.0
C747 C 0.45252 0.94878 0.80082 0.0
H748 H 0.23409 0.80555 0.80089 0.0
H749 H 0.59446 0.06627 0.88881 0.0
Co750 Co 0.12967 0.50554 0.83385 0.0
C751 C 0.05023 0.42837 0.84548 0.0
Co752 Co 0.08039 0.51809 0.85211 0.0
C753 C 0.21727 0.51968 0.82618 0.0
C754 C 0.1695 0.46083 0.80774 0.0
N755 N 0.17315 0.49499 0.82102 0.0
N756 N 0.24135 0.50245 0.81688 0.0
C757 C 0.21151 0.46519 0.80531 0.0
H758 H 0.23128 0.54858 0.83771 0.0
H759 H 0.13823 0.43373 0.80101 0.0
C760 C 0.15834 0.59576 0.83825 0.0
N761 N 0.03906 0.53171 0.865 0.0
C762 C 0.02558 0.55788 0.85413 0.0
C763 C 0.02295 0.52663 0.88713 0.0
N764 N 1.00229 0.56976 0.86849 0.0
C765 C 1.00072 0.55058 0.8894 0.0
C766 C 0.13714 0.51073 0.88346 0.0
O767 O 0.17001 0.56802 0.83151 0.0
O768 O 0.12028 0.58107 0.8479 0.0
O769 O 0.10587 0.52025 0.88238 0.0
O770 O 0.1521 0.50375 0.86444 0.0
O771 O 0.04028 0.45529 0.85561 0.0
H772 H 0.02944 0.50924 0.90109 0.0
H773 H 0.03603 0.5714 0.83658 0.0
O774 O 0.08836 0.44351 0.83568 0.0
O775 O 0.10602 0.50586 0.8034 0.0
O776 O 0.05486 0.51409 0.82216 0.0
C777 C 0.07005 0.50791 0.80308 0.0
H778 H 0.2194 0.44246 0.7961 0.0
H779 H 0.98647 0.55535 0.90538 0.0
Co780 Co 0.52039 0.63113 0.83349 0.0
C781 C 0.59471 0.62474 0.84523 0.0
Co782 Co 0.50305 0.56644 0.84996 0.0
C783 C 0.50611 0.70427 0.82599 0.0
C784 C 0.56756 0.71794 0.80948 0.0
N785 N 0.5321 0.68601 0.82147 0.0
N786 N 0.52364 0.74612 0.81747 0.0
C787 C 0.56257 0.75523 0.80714 0.0
H788 H 0.4759 0.68808 0.83655 0.0
H789 H 0.59584 0.71494 0.80358 0.0
C790 C 0.42819 0.57024 0.83618 0.0
N791 N 0.4883 0.51098 0.86218 0.0
C792 C 0.46072 0.47163 0.85149 0.0
C793 C 0.49641 0.49964 0.88362 0.0
N794 N 0.45092 0.43629 0.86534 0.0
C795 C 0.4729 0.4535 0.88571 0.0
C796 C 0.512 0.63 0.88265 0.0
O797 O 0.45754 0.60885 0.82905 0.0
O798 O 0.4409 0.54613 0.84677 0.0
O799 O 0.50348 0.58959 0.88095 0.0
O800 O 0.51837 0.65259 0.86397 0.0
O801 O 0.5652 0.58606 0.85243 0.0
H802 H 0.51626 0.52329 0.89722 0.0
H803 H 0.44542 0.46889 0.83445 0.0
O804 O 0.58253 0.65178 0.83752 0.0
O805 O 0.52431 0.61027 0.80311 0.0
O806 O 0.50405 0.54497 0.8193 0.0
C807 C 0.51608 0.57004 0.80128 0.0
H808 H 0.58599 0.78671 0.79888 0.0
H809 H 0.47083 0.43418 0.90119 0.0
Co810 Co 0.56513 0.7212 0.02257 0.0
C811 C 0.6462 0.72726 1.01063 0.0
Co812 Co 0.61254 0.78456 1.00495 0.0
C813 C 0.47824 0.64743 0.03008 0.0
C814 C 0.5263 0.63478 0.0471 0.0
N815 N 0.52248 0.66626 0.03481 0.0
N816 N 0.45419 0.60572 0.0388 0.0
C817 C 0.48419 0.59722 0.04945 0.0
H818 H 0.46401 0.66313 0.01928 0.0
H819 H 0.55768 0.63829 0.05324 0.0
C820 C 0.53298 0.78068 0.01898 0.0
N821 N 0.65291 0.84029 0.99291 0.0
C822 C 0.65609 0.87838 1.00127 0.0
C823 C 0.68589 0.85391 0.97672 0.0
N824 N 0.68915 0.91517 0.99102 0.0
C825 C 0.70853 0.9003 0.9756 0.0
C826 C 0.5579 0.72079 0.97298 0.0
O827 O 0.52365 0.74232 0.02644 0.0
O828 O 0.56978 0.80423 1.00832 0.0
O829 O 0.58955 0.76141 0.97425 0.0
O830 O 0.54221 0.69871 0.9919 0.0
O831 O 0.65517 0.76519 1.00233 0.0
H832 H 0.69342 0.83174 0.96672 0.0
H833 H 0.63541 0.87938 0.01535 0.0
O834 O 0.60745 0.70131 0.0192 0.0
O835 O 0.58949 0.74367 0.05309 0.0
O836 O 0.63607 0.8065 0.03519 0.0
C837 C 0.62311 0.78328 0.05386 0.0
H838 H 0.47633 0.56602 0.05799 0.0
H839 H 0.7367 0.92133 0.96433 0.0
Co840 Co 0.30049 0.84761 0.02282 0.0
C841 C 0.29734 0.92447 1.01165 0.0
Co842 Co 0.23825 0.83458 1.00465 0.0
C843 C 0.3739 0.83319 0.03002 0.0
C844 C 0.38614 0.89261 0.04823 0.0
N845 N 0.35487 0.85818 0.03537 0.0
N846 N 0.41562 0.85042 0.03881 0.0
C847 C 0.42379 0.88806 0.05024 0.0
H848 H 0.35844 0.80406 0.01866 0.0
H849 H 0.38254 0.92007 0.05491 0.0
C850 C 0.23932 0.75728 0.0182 0.0
N851 N 0.18289 0.82046 0.99193 0.0
C852 C 0.14336 0.79364 1.00278 0.0
C853 C 0.17153 0.82558 0.96987 0.0
N854 N 0.10798 0.78137 0.98847 0.0
C855 C 0.12534 0.80105 0.96762 0.0
C856 C 0.30251 0.84293 0.97316 0.0
O857 O 0.27859 0.78521 0.02505 0.0
O858 O 0.21575 0.77171 1.00853 0.0
O859 O 0.26164 0.8332 0.97424 0.0
O860 O 0.32442 0.8497 0.99218 0.0
O861 O 0.26044 0.89741 1.00153 0.0
H862 H 0.19524 0.84341 0.95592 0.0
H863 H 0.14058 0.78 0.02028 0.0
O864 O 0.32086 0.90958 0.02113 0.0
O865 O 0.27675 0.84707 0.05335 0.0
O866 O 0.21681 0.83786 0.03468 0.0
C867 C 0.23847 0.84447 0.05372 0.0
H868 H 0.45488 0.91092 0.05904 0.0
H869 H 0.10618 0.79634 0.95168 0.0
Co870 Co 0.175 0.4595 0.02351 0.0
C871 C 0.09978 0.37866 0.01238 0.0
Co872 Co 0.19074 0.41129 1.00666 0.0
C873 C 0.18713 0.54636 0.0294 0.0
C874 C 0.12738 0.49887 0.04729 0.0
N875 N 0.1626 0.50252 0.03497 0.0
N876 N 0.16888 0.57033 0.03754 0.0
C877 C 0.13104 0.54069 0.04877 0.0
H878 H 0.21685 0.56022 0.01846 0.0
H879 H 0.10014 0.46774 0.05403 0.0
C880 C 0.26647 0.49082 0.02004 0.0
N881 N 0.20584 0.37017 0.99533 0.0
C882 C 0.24113 0.36739 1.0036 0.0
C883 C 0.18595 0.33645 0.9796 0.0
N884 N 0.24452 0.33384 0.99371 0.0
C885 C 0.20971 0.31377 0.97865 0.0
C886 C 0.18186 0.46476 0.97384 0.0
O887 O 0.2377 0.50064 0.02748 0.0
O888 O 0.25293 0.4539 1.00948 0.0
O889 O 0.18994 0.43254 0.97553 0.0
O890 O 0.17609 0.48147 0.99255 0.0
O891 O 0.12822 0.36858 1.00442 0.0
H892 H 0.15595 0.32853 0.96975 0.0
H893 H 0.26338 0.3888 0.01731 0.0
O894 O 0.11321 0.4179 0.02028 0.0
O895 O 0.1721 0.43604 0.05414 0.0
O896 O 0.19041 0.3898 0.03757 0.0
C897 C 0.17958 0.40348 0.0558 0.0
H898 H 0.1076 0.54858 0.05719 0.0
H899 H 0.20224 0.28514 0.9677 0.0
Co900 Co 0.23979 0.41235 0.50715 0.0
C901 C 0.24515 0.49226 0.52005 0.0
Co902 Co 0.30472 0.45952 0.52336 0.0
C903 C 0.14542 0.36926 0.50348 0.0
C904 C 0.16999 0.33748 0.48028 0.0
N905 N 0.18358 0.37164 0.49571 0.0
N906 N 0.10864 0.3354 0.49359 0.0
C907 C 0.12361 0.31485 0.47903 0.0
H908 H 0.1444 0.3911 0.51686 0.0
H909 H 0.1922 0.32914 0.47089 0.0
C910 C 0.29685 0.37779 0.51272 0.0
N911 N 0.36037 0.5025 0.53475 0.0
C912 C 0.37901 0.54649 0.5296 0.0
C913 C 0.3927 0.49901 0.5464 0.0
N914 N 0.42147 0.57071 0.53739 0.0
C915 C 0.43058 0.54107 0.54792 0.0
C916 C 0.24371 0.40449 0.55604 0.0
O917 O 0.25799 0.36866 0.50581 0.0
O918 O 0.32462 0.41739 0.51957 0.0
O919 O 0.28435 0.43565 0.55395 0.0
O920 O 0.21819 0.39201 0.53814 0.0
O921 O 0.2833 0.50095 0.52773 0.0
H922 H 0.38955 0.46784 0.55259 0.0
H923 H 0.36255 0.56034 0.5191 0.0
O924 O 0.22135 0.45575 0.50922 0.0
O925 O 0.26254 0.43252 0.47583 0.0
O926 O 0.32543 0.48183 0.49258 0.0
C927 C 0.3029 0.46462 0.47397 0.0
H928 H 0.10263 0.28585 0.46827 0.0
H929 H 0.46239 0.5491 0.55582 0.0
Co930 Co 0.61577 0.83511 0.50473 0.0
C931 C 0.536 0.75812 0.51795 0.0
Co932 Co 0.56692 0.84862 0.52279 0.0
C933 C 0.66029 0.78557 0.50137 0.0
C934 C 0.68928 0.83899 0.47632 0.0
N935 N 0.65689 0.82032 0.49285 0.0
N936 N 0.69281 0.78119 0.49086 0.0
C937 C 0.7117 0.81495 0.47513 0.0
H938 H 0.63985 0.7642 0.51559 0.0
H939 H 0.6963 0.86818 0.46598 0.0
C940 C 0.64795 0.92499 0.51201 0.0
N941 N 0.52387 0.86049 0.53498 0.0
C942 C 0.47987 0.83631 0.52949 0.0
C943 C 0.52767 0.89499 0.54802 0.0
N944 N 0.45598 0.85406 0.53841 0.0
C945 C 0.48583 0.89125 0.55003 0.0
C946 C 0.62451 0.8441 0.55401 0.0
O947 O 0.65775 0.89766 0.50227 0.0
O948 O 0.60923 0.91047 0.52098 0.0
O949 O 0.58965 0.84813 0.55349 0.0
O950 O 0.63902 0.8366 0.53504 0.0
O951 O 0.52535 0.78624 0.52531 0.0
H952 H 0.55891 0.92181 0.55494 0.0
H953 H 0.46579 0.80721 0.5181 0.0
O954 O 0.57359 0.77245 0.5079 0.0
O955 O 0.59306 0.83527 0.47407 0.0
O956 O 0.54566 0.85057 0.49181 0.0
C957 C 0.56157 0.84452 0.47284 0.0
H958 H 0.73916 0.82136 0.46346 0.0
H959 H 0.47804 0.91419 0.55909 0.0
Co960 Co 0.19249 0.78641 0.50468 0.0
C961 C 0.26881 0.78493 0.51944 0.0
Co962 Co 0.17766 0.72356 0.52261 0.0
C963 C 0.23316 0.88092 0.50283 0.0
C964 C 0.20076 0.85275 0.47 0.0
N965 N 0.20686 0.84147 0.49188 0.0
N966 N 0.24412 0.91625 0.48877 0.0
C967 C 0.22419 0.89893 0.46795 0.0
H968 H 0.24704 0.88377 0.52028 0.0
H969 H 0.18261 0.82905 0.45609 0.0
C970 C 0.10184 0.72726 0.50973 0.0
N971 N 0.16651 0.66925 0.53531 0.0
C972 C 0.19219 0.65065 0.53073 0.0
C973 C 0.1313 0.63773 0.54761 0.0
N974 N 0.17464 0.60894 0.53948 0.0
C975 C 0.13607 0.60034 0.55006 0.0
C976 C 0.1796 0.78532 0.55344 0.0
O977 O 0.13028 0.76505 0.50103 0.0
O978 O 0.11536 0.70253 0.51915 0.0
O979 O 0.17551 0.74647 0.55296 0.0
O980 O 0.1885 0.80789 0.5346 0.0
O981 O 0.24025 0.74593 0.52636 0.0
H982 H 0.10319 0.64098 0.55357 0.0
H983 H 0.22204 0.66638 0.51988 0.0
O984 O 0.25513 0.80849 0.50908 0.0
O985 O 0.19451 0.76299 0.47429 0.0
O986 O 0.17834 0.70044 0.49228 0.0
C987 C 0.18542 0.72234 0.47326 0.0
H988 H 0.22778 0.91818 0.4522 0.0
H989 H 0.11268 0.56905 0.55851 0.0
Co990 Co 0.08121 0.56552 0.35195 0.0
C991 C 0.15947 0.56772 0.33742 0.0
Co992 Co 0.12928 0.62875 0.33429 0.0
C993 C 0.02802 0.47086 0.35316 0.0
C994 C 0.0227 0.4981 0.38607 0.0
N995 N 0.04057 0.51 0.36432 0.0
N996 N 1.00352 0.43513 0.36696 0.0
C997 C 1.00023 0.45187 0.38782 0.0
H998 H 0.03953 0.46853 0.33576 0.0
H999 H 0.02771 0.52141 0.40008 0.0
C1000 C 0.04899 0.62403 0.34684 0.0
N1001 N 0.17248 0.68359 0.32206 0.0
C1002 C 0.2167 0.70236 0.3269 0.0
C1003 C 0.16877 0.71536 0.31 0.0
N1004 N 0.24081 0.74441 0.31856 0.0
C1005 C 0.21087 0.75304 0.30795 0.0
C1006 C 0.07041 0.56744 0.30308 0.0
O1007 O 0.03985 0.58623 0.35544 0.0
O1008 O 0.08742 0.64924 0.33771 0.0
O1009 O 0.10492 0.60646 0.30379 0.0
O1010 O 0.05653 0.54456 0.32182 0.0
O1011 O 0.16991 0.60678 0.33055 0.0
H1012 H 0.13744 0.71205 0.30392 0.0
H1013 H 0.23079 0.68641 0.33762 0.0
O1014 O 0.12218 0.54406 0.34769 0.0
O1015 O 0.106 0.58847 0.38257 0.0
O1016 O 0.15247 0.6512 0.36478 0.0
C1017 C 0.13759 0.62911 0.38372 0.0
H1018 H 0.98431 0.43221 0.40341 0.0
H1019 H 0.21871 0.78447 0.29969 0.0
Co1020 Co 0.45732 0.51957 0.35079 0.0
C1021 C 0.45344 0.59443 0.33714 0.0
Co1022 Co 0.39266 0.50267 0.33426 0.0
C1023 C 0.55237 0.56228 0.3527 0.0
C1024 C 0.52395 0.52685 0.38482 0.0
N1025 N 0.51284 0.53455 0.36322 0.0
N1026 N 0.58757 0.57255 0.36681 0.0
C1027 C 0.57008 0.55075 0.38717 0.0
H1028 H 0.55532 0.57741 0.33559 0.0
H1029 H 0.5001 0.5071 0.39837 0.0
C1030 C 0.39923 0.42849 0.34577 0.0
N1031 N 0.33761 0.49047 0.32211 0.0
C1032 C 0.31855 0.51565 0.32681 0.0
C1033 C 0.306 0.45479 0.31012 0.0
N1034 N 0.27643 0.49733 0.31844 0.0
C1035 C 0.26808 0.4588 0.30796 0.0
C1036 C 0.45421 0.5072 0.30209 0.0
O1037 O 0.43795 0.45766 0.35311 0.0
O1038 O 0.37234 0.4409 0.33814 0.0
O1039 O 0.41397 0.49915 0.30388 0.0
O1040 O 0.47919 0.51896 0.32017 0.0
O1041 O 0.4147 0.56537 0.32995 0.0
H1042 H 0.30962 0.42695 0.30412 0.0
H1043 H 0.33438 0.54579 0.33741 0.0
O1044 O 0.47735 0.58146 0.34773 0.0
O1045 O 0.43366 0.51871 0.38173 0.0
O1046 O 0.37074 0.50421 0.3647 0.0
C1047 C 0.39318 0.51015 0.3834 0.0
H1048 H 0.58919 0.55326 0.40283 0.0
H1049 H 0.2367 0.43502 0.29971 0.0
Co1050 Co 0.5048 0.94129 0.34933 0.0
C1051 C 0.42863 0.8612 0.337 0.0
Co1052 Co 0.52021 0.89279 0.33257 0.0
C1053 C 0.45453 0.98531 0.35286 0.0
C1054 C 0.51061 0.01671 0.37627 0.0
N1055 N 0.49013 0.98269 0.36076 0.0
N1056 N 0.4515 0.01906 0.36278 0.0
C1057 C 0.48689 0.03941 0.37747 0.0
H1058 H 0.43173 0.96359 0.33941 0.0
H1059 H 0.54097 0.0248 0.38582 0.0
C1060 C 0.59584 0.97413 0.34257 0.0
N1061 N 0.5319 0.84943 0.32092 0.0
C1062 C 0.50703 0.80553 0.32634 0.0
C1063 C 0.56626 0.8527 0.30794 0.0
N1064 N 0.5242 0.78117 0.31741 0.0
C1065 C 0.56175 0.81061 0.30589 0.0
C1066 C 0.51428 0.94792 0.30017 0.0
O1067 O 0.56755 0.98415 0.35085 0.0
O1068 O 0.58227 0.93467 0.33493 0.0
O1069 O 0.5216 0.91529 0.30192 0.0
O1070 O 0.50398 0.96207 0.31841 0.0
O1071 O 0.45735 0.85144 0.32945 0.0
H1072 H 0.59337 0.88371 0.30099 0.0
H1073 H 0.47777 0.79182 0.33762 0.0
O1074 O 0.44232 0.8985 0.34719 0.0
O1075 O 0.50685 0.92077 0.3805 0.0
O1076 O 0.52068 0.87171 0.36359 0.0
C1077 C 0.51539 0.88886 0.38227 0.0
H1078 H 0.49476 0.06823 0.38835 0.0
H1079 H 0.58439 0.80235 0.29686 0.0
C1080 C 0.12337 0.13773 0.14368 0.0
C1081 C 0.1347 0.16269 0.16469 0.0
H1082 H 0.13286 0.09171 0.12219 0.0
C1083 C 0.1649 0.16001 0.18036 0.0
H1084 H 0.10052 0.13953 0.13117 0.0
C1085 C 0.18253 0.13203 0.17538 0.0
C1086 C 0.17156 0.10755 0.15429 0.0
H1087 H 0.17433 0.17899 0.19662 0.0
H1088 H 0.2049 0.12953 0.18793 0.0
C1089 C 0.14216 0.11086 0.13839 0.0
C1090 C 0.86612 0.0501 0.16151 0.0
C1091 C 0.91143 0.0669 0.15573 0.0
H1092 H 0.80383 0.99265 0.17159 0.0
C1093 C 0.92855 0.03742 0.1553 0.0
H1094 H 0.85231 0.07227 0.16223 0.0
C1095 C 0.90097 0.99199 0.16049 0.0
C1096 C 0.8558 0.97519 0.16663 0.0
H1097 H 0.96335 0.04957 0.15081 0.0
H1098 H 0.91512 0.97008 0.15982 0.0
C1099 C 0.83864 1.00471 0.16714 0.0
C1100 C 0.02945 0.91251 0.16137 0.0
C1101 C 0.04603 0.88351 0.16639 0.0
H1102 H 0.97202 0.91845 0.15267 0.0
C1103 C 0.01633 0.8369 0.16579 0.0
H1104 H 0.0515 0.94853 0.16158 0.0
C1105 C 0.97096 0.81971 0.16022 0.0
C1106 C 0.95434 0.84882 0.15561 0.0
H1107 H 0.02825 0.81371 0.16937 0.0
H1108 H 0.94863 0.78376 0.16007 0.0
C1109 C 0.98403 0.89534 0.15626 0.0
C1110 C 0.12455 0.10371 0.36343 0.0
C1111 C 0.16968 0.13282 0.3575 0.0
H1112 H 0.06129 0.09751 0.37272 0.0
C1113 C 0.18592 0.17931 0.35712 0.0
H1114 H 0.11112 0.06778 0.36396 0.0
C1115 C 0.15758 0.1963 0.36265 0.0
C1116 C 0.1123 0.16709 0.36819 0.0
H1117 H 0.22065 0.20261 0.3528 0.0
H1118 H 0.17071 0.23216 0.36206 0.0
C1119 C 0.09607 0.12067 0.36846 0.0
C1120 C 0.83969 0.96319 0.34666 0.0
C1121 C 0.8502 0.9501 0.36805 0.0
H1122 H 0.84826 0.01804 0.32493 0.0
C1123 C 0.87856 0.983 0.38412 0.0
H1124 H 0.81812 0.93809 0.334 0.0
C1125 C 0.89706 0.02844 0.37863 0.0
C1126 C 0.88644 0.04168 0.35727 0.0
H1127 H 0.88746 0.97344 0.40055 0.0
H1128 H 0.91938 0.05327 0.3912 0.0
C1129 C 0.85699 1.00866 0.34148 0.0
C1130 C 1.0113 0.8378 0.35734 0.0
C1131 C 0.98176 0.855 0.35755 0.0
H1132 H 0.07885 0.8514 0.36241 0.0
C1133 C 0.9986 0.90022 0.36343 0.0
H1134 H 0.99927 0.80295 0.35309 0.0
C1135 C 0.04414 0.92784 0.36858 0.0
C1136 C 0.07361 0.91063 0.36841 0.0
H1137 H 0.97668 0.91438 0.36388 0.0
H1138 H 0.05642 0.96274 0.37279 0.0
C1139 C 0.05671 0.86527 0.36294 0.0
C1140 C 0.9204 0.89783 0.86321 0.0
C1141 C 0.89202 0.85283 0.85688 0.0
H1142 H 0.92519 0.9603 0.87277 0.0
C1143 C 0.84538 0.83601 0.85596 0.0
H1144 H 0.95641 0.91169 0.86418 0.0
C1145 C 0.82752 0.86361 0.86137 0.0
C1146 C 0.85599 0.90875 0.86733 0.0
H1147 H 0.82258 0.80135 0.85133 0.0
H1148 H 0.79158 0.85 0.86033 0.0
C1149 C 0.90257 0.9256 0.86816 0.0
C1150 C 0.1268 0.02495 0.86204 0.0
C1151 C 0.17219 0.04182 0.8564 0.0
H1152 H 0.06408 0.96725 0.87115 0.0
C1153 C 0.18942 0.01236 0.85622 0.0
H1154 H 0.1126 0.04683 0.86242 0.0
C1155 C 0.16177 0.96693 0.8617 0.0
C1156 C 0.11625 0.95005 0.86698 0.0
H1157 H 0.2244 0.02449 0.85215 0.0
H1158 H 0.17563 0.94478 0.86129 0.0
C1159 C 0.09905 0.97948 0.86705 0.0
C1160 C 0.99876 0.10405 0.86445 0.0
C1161 C 0.98242 0.1331 0.85909 0.0
H1162 H 0.05624 0.09814 0.87314 0.0
C1163 C 1.01224 0.17969 0.85939 0.0
H1164 H 0.97656 0.06804 0.86445 0.0
C1165 C 0.05759 0.19685 0.86488 0.0
C1166 C 0.07405 0.16772 0.86966 0.0
H1167 H 1.00046 0.20291 0.85555 0.0
H1168 H 0.08005 0.23278 0.8647 0.0
C1169 C 0.04424 0.12121 0.86944 0.0
C1170 C 0.90324 0.91291 0.66147 0.0
C1171 C 0.85767 0.88379 0.66647 0.0
H1172 H 0.96668 0.9191 0.65279 0.0
C1173 C 0.8409 0.83721 0.66588 0.0
H1174 H 0.91711 0.94892 0.66168 0.0
C1175 C 0.86921 0.82017 0.66031 0.0
C1176 C 0.9149 0.84941 0.65571 0.0
H1177 H 0.80581 0.81393 0.66945 0.0
H1178 H 0.8557 0.78424 0.66016 0.0
C1179 C 0.9316 0.89589 0.65636 0.0
C1180 C 0.13003 0.03878 0.65541 0.0
C1181 C 0.17662 0.06829 0.65639 0.0
H1182 H 0.07593 0.97139 0.65948 0.0
C1183 C 0.20486 0.05144 0.6627 0.0
H1184 H 0.10758 0.05095 0.65051 0.0
C1185 C 0.18671 1.006 0.66828 0.0
C1186 C 0.14005 0.97646 0.66724 0.0
H1187 H 0.2408 0.07359 0.66385 0.0
H1188 H 0.20929 0.99394 0.67313 0.0
C1189 C 0.11196 0.99331 0.66059 0.0
C1190 C 0.96947 0.13108 0.67455 0.0
C1191 C 0.95621 0.10704 0.65333 0.0
H1192 H 0.02425 0.17767 0.69608 0.0
C1193 C 0.98914 0.11084 0.63744 0.0
H1194 H 0.94445 0.12821 0.68709 0.0
C1195 C 0.03475 0.1378 0.64289 0.0
C1196 C 0.04806 0.16228 0.66405 0.0
H1197 H 0.97949 0.09201 0.62114 0.0
H1198 H 0.05959 0.14005 0.63041 0.0
C1199 C 0.01495 0.15905 0.6797 0.0
C1200 C 0.84737 0.4639 0.50843 0.0
C1201 C 0.83697 0.44037 0.48705 0.0
H1202 H 0.83889 0.51011 0.53012 0.0
C1203 C 0.80816 0.44458 0.47108 0.0
H1204 H 0.86928 0.46073 0.52102 0.0
C1205 C 0.78946 0.47145 0.47659 0.0
C1206 C 0.8003 0.49548 0.49789 0.0
H1207 H 0.79929 0.42615 0.45465 0.0
H1208 H 0.76717 0.47405 0.46402 0.0
C1209 C 0.82982 0.49182 0.51364 0.0
C1210 C 0.50574 0.33982 0.50163 0.0
C1211 C 0.52287 0.31029 0.50058 0.0
H1212 H 0.51925 0.40744 0.49724 0.0
C1213 C 0.56782 0.32719 0.49396 0.0
H1214 H 0.4711 0.32773 0.50646 0.0
C1215 C 0.59522 0.37268 0.48883 0.0
C1216 C 0.57815 0.40219 0.48981 0.0
H1217 H 0.58195 0.30529 0.49285 0.0
H1218 H 0.62985 0.38487 0.48395 0.0
C1219 C 0.53304 0.38529 0.49608 0.0
C1220 C 0.63731 0.15381 0.49335 0.0
C1221 C 0.62095 0.18314 0.48877 0.0
H1222 H 0.6944 0.1474 0.50245 0.0
C1223 C 0.65082 0.22961 0.48945 0.0
H1224 H 0.61482 0.11789 0.49318 0.0
C1225 C 0.69619 0.24652 0.49455 0.0
C1226 C 0.71253 0.21731 0.49953 0.0
H1227 H 0.639 0.25287 0.4859 0.0
H1228 H 0.7184 0.28252 0.49478 0.0
C1229 C 0.68265 0.17075 0.49891 0.0
C1230 C 0.85702 0.51607 0.69021 0.0
C1231 C 0.83997 0.46944 0.68978 0.0
H1232 H 0.84266 0.56935 0.69577 0.0
C1233 C 0.79446 0.44055 0.69497 0.0
H1234 H 0.8921 0.53916 0.68651 0.0
C1235 C 0.76639 0.45786 0.70009 0.0
C1236 C 0.78335 0.50438 0.70054 0.0
H1237 H 0.78042 0.40451 0.69489 0.0
H1238 H 0.73132 0.43485 0.70381 0.0
C1239 C 0.82899 0.53339 0.69577 0.0
C1240 C 0.56806 0.31428 0.70177 0.0
C1241 C 0.52143 0.28488 0.7008 0.0
H1242 H 0.62231 0.38171 0.69776 0.0
C1243 C 0.49331 0.30188 0.69458 0.0
H1244 H 0.59043 0.30195 0.70659 0.0
C1245 C 0.51156 0.34733 0.68905 0.0
C1246 C 0.55825 0.37679 0.69008 0.0
H1247 H 0.45735 0.27982 0.69343 0.0
H1248 H 0.48902 0.35944 0.68423 0.0
C1249 C 0.58627 0.35984 0.69668 0.0
C1250 C 0.70773 0.24185 0.71853 0.0
C1251 C 0.74054 0.24569 0.70255 0.0
H1252 H 0.63735 0.21255 0.72575 0.0
C1253 C 0.72715 0.22164 0.68133 0.0
H1254 H 0.7175 0.26068 0.73483 0.0
C1255 C 0.68162 0.19357 0.67629 0.0
C1256 C 0.64864 0.19029 0.69204 0.0
H1257 H 0.75209 0.22453 0.66873 0.0
H1258 H 0.6722 0.17491 0.65993 0.0
C1259 C 0.6621 0.21483 0.71318 0.0
C1260 C 0.57255 0.21238 0.21327 0.0
C1261 C 0.56269 0.18909 0.19177 0.0
H1262 H 0.56103 0.2563 0.23543 0.0
C1263 C 0.53326 0.19258 0.17589 0.0
H1264 H 0.59472 0.2098 0.22594 0.0
C1265 C 0.51478 0.21961 0.18119 0.0
C1266 C 0.52416 0.24236 0.20277 0.0
H1267 H 0.52493 0.17481 0.15926 0.0
H1268 H 0.49297 0.22273 0.16851 0.0
C1269 C 0.55292 0.23837 0.21886 0.0
C1270 C 0.85914 0.34463 0.1885 0.0
C1271 C 0.84209 0.37425 0.18907 0.0
H1272 H 0.84517 0.2769 0.1932 0.0
C1273 C 0.79688 0.35745 0.19515 0.0
H1274 H 0.89396 0.35668 0.18408 0.0
C1275 C 0.76919 0.31203 0.20026 0.0
C1276 C 0.78611 0.28238 0.19973 0.0
H1277 H 0.78276 0.37938 0.19588 0.0
H1278 H 0.73443 0.30002 0.20476 0.0
C1279 C 0.83145 0.29914 0.19398 0.0
C1280 C 0.71078 0.45195 0.20077 0.0
C1281 C 0.74066 0.49843 0.20156 0.0
H1282 H 0.64297 0.39907 0.19563 0.0
C1283 C 0.72418 0.52776 0.19734 0.0
H1284 H 0.72271 0.42868 0.20403 0.0
C1285 C 0.67877 0.51088 0.19202 0.0
C1286 C 0.64882 0.46434 0.19132 0.0
H1287 H 0.74663 0.56368 0.1976 0.0
H1288 H 0.66702 0.53431 0.18873 0.0
C1289 C 0.66524 0.43505 0.19595 0.0
C1290 C 0.53384 0.1524 0.99452 0.0
C1291 C 0.57928 0.1813 0.98918 0.0
H1292 H 0.4709 0.14672 1.00409 0.0
C1293 C 0.59592 0.2278 0.98891 0.0
H1294 H 0.52036 0.11648 0.9951 0.0
C1295 C 0.56776 0.24513 0.99387 0.0
C1296 C 0.52248 0.21634 0.99963 0.0
H1297 H 0.6308 0.25076 0.98476 0.0
H1298 H 0.58158 0.28113 0.9934 0.0
C1299 C 0.50577 0.16977 0.99991 0.0
C1300 C 0.77607 0.3257 0.99283 0.0
C1301 C 0.80488 0.30906 0.99822 0.0
H1302 H 0.77069 0.38339 0.98405 0.0
C1303 C 0.85157 0.33862 0.99801 0.0
H1304 H 0.74 0.3037 0.99275 0.0
C1305 C 0.86908 0.38397 0.99254 0.0
C1306 C 0.84021 0.40072 0.98765 0.0
H1307 H 0.87463 0.32663 1.00188 0.0
H1308 H 0.90508 0.40618 0.99274 0.0
C1309 C 0.79358 0.37119 0.98784 0.0
C1310 C 0.65142 0.42429 0.98881 0.0
C1311 C 0.62157 0.44102 0.98925 0.0
H1312 H 0.71929 0.43856 0.99292 0.0
C1313 C 0.63822 0.48637 0.99474 0.0
H1314 H 0.63938 0.38943 0.98459 0.0
C1315 C 0.68374 0.51429 1.00003 0.0
C1316 C 0.71367 0.49759 0.99946 0.0
H1317 H 0.61582 0.49993 0.99547 0.0
H1318 H 0.69557 0.5491 1.00428 0.0
C1319 C 0.69707 0.45236 0.99361 0.0
C1320 C 0.51622 0.84817 0.83249 0.0
C1321 C 0.46955 0.83125 0.83172 0.0
H1322 H 0.5701 0.83436 0.828 0.0
C1323 C 0.44119 0.78628 0.82536 0.0
H1324 H 0.53902 0.88281 0.83714 0.0
C1325 C 0.4591 0.75857 0.82037 0.0
C1326 C 0.50573 0.77552 0.82113 0.0
H1327 H 0.40517 0.77237 0.82451 0.0
H1328 H 0.43654 0.72381 0.81584 0.0
C1329 C 0.53415 0.82068 0.82701 0.0
C1330 C 0.17096 0.67391 0.83409 0.0
C1331 C 0.18795 0.64425 0.83378 0.0
H1332 H 0.18521 0.74171 0.82931 0.0
C1333 C 0.23332 0.66099 0.82812 0.0
H1334 H 0.136 0.66189 0.8382 0.0
C1335 C 0.26126 0.70643 0.82318 0.0
C1336 C 0.24438 0.73611 0.82344 0.0
H1337 H 0.2474 0.63901 0.82762 0.0
H1338 H 0.29616 0.71843 0.81902 0.0
C1339 C 0.19887 0.71941 0.82876 0.0
C1340 C 0.34981 0.50626 0.8308 0.0
C1341 C 0.38005 0.55274 0.83117 0.0
H1342 H 0.28177 0.45373 0.8254 0.0
C1343 C 0.36409 0.58221 0.826 0.0
H1344 H 0.36125 0.48272 0.83451 0.0
C1345 C 0.31865 0.56556 0.82106 0.0
C1346 C 0.28845 0.51914 0.82066 0.0
H1347 H 0.38661 0.61816 0.82607 0.0
H1348 H 0.30702 0.58896 0.81745 0.0
C1349 C 0.3045 0.48961 0.82535 0.0
C1350 C 0.4574 0.76968 0.02953 0.0
C1351 C 0.50269 0.7987 0.02387 0.0
H1352 H 0.39416 0.76372 0.03867 0.0
C1353 C 0.51922 0.84525 0.02384 0.0
H1354 H 0.44373 0.7337 0.02979 0.0
C1355 C 0.49104 0.8624 0.02947 0.0
C1356 C 0.44561 0.8333 0.03472 0.0
H1357 H 0.55407 0.86849 0.01974 0.0
H1358 H 0.50443 0.89831 0.02915 0.0
C1359 C 0.42907 0.78681 0.03463 0.0
C1360 C 0.17413 0.67916 0.0228 0.0
C1361 C 0.22076 0.70889 0.0227 0.0
H1362 H 0.12088 0.61141 0.02814 0.0
C1363 C 0.24971 0.69239 0.02812 0.0
H1364 H 0.15099 0.69104 0.01891 0.0
C1365 C 0.23248 0.64708 0.03323 0.0
C1366 C 0.18595 0.61734 0.03344 0.0
H1367 H 0.28577 0.71448 0.02829 0.0
H1368 H 0.25559 0.63522 0.03721 0.0
C1369 C 0.15685 0.6338 0.02834 0.0
C1370 C 0.33166 0.56558 0.03099 0.0
C1371 C 0.31485 0.52046 0.02489 0.0
H1372 H 0.38958 0.62812 0.04024 0.0
C1373 C 0.34446 0.50337 0.0243 0.0
H1374 H 0.30967 0.57965 0.03171 0.0
C1375 C 0.38996 0.53089 0.02969 0.0
C1376 C 0.40685 0.5762 0.0353 0.0
H1377 H 0.33242 0.4686 0.01986 0.0
H1378 H 0.41218 0.51714 0.02884 0.0
C1379 C 0.37728 0.59326 0.03591 0.0
C1380 C 0.25598 0.56752 0.53119 0.0
C1381 C 0.22717 0.52251 0.52501 0.0
H1382 H 0.26149 0.63042 0.5406 0.0
C1383 C 0.18057 0.50603 0.52446 0.0
H1384 H 0.29198 0.58112 0.53186 0.0
C1385 C 0.16316 0.53395 0.52999 0.0
C1386 C 0.19203 0.57913 0.53571 0.0
H1387 H 0.15745 0.47138 0.51996 0.0
H1388 H 0.12724 0.52059 0.52919 0.0
C1389 C 0.23859 0.59566 0.53622 0.0
C1390 C 0.46131 0.69282 0.52869 0.0
C1391 C 0.50645 0.70966 0.5225 0.0
H1392 H 0.39897 0.63519 0.53839 0.0
C1393 C 0.52362 0.68013 0.52189 0.0
H1394 H 0.44716 0.71472 0.52944 0.0
C1395 C 0.49616 0.63472 0.52748 0.0
C1396 C 0.45088 0.61788 0.53333 0.0
H1397 H 0.55841 0.69221 0.5174 0.0
H1398 H 0.50999 0.61256 0.52669 0.0
C1399 C 0.43376 0.64736 0.53384 0.0
C1400 C 0.39255 0.86657 0.52987 0.0
C1401 C 0.40885 0.83726 0.53465 0.0
H1402 H 0.33542 0.87292 0.52072 0.0
C1403 C 0.37884 0.79081 0.5344 0.0
H1404 H 0.41515 0.90247 0.52972 0.0
C1405 C 0.3334 0.77389 0.5295 0.0
C1406 C 0.31711 0.80307 0.52427 0.0
H1407 H 0.39063 0.76757 0.53811 0.0
H1408 H 0.3111 0.7379 0.52955 0.0
C1409 C 0.34712 0.84961 0.52448 0.0
C1410 C 0.17281 0.50283 0.33284 0.0
C1411 C 0.18944 0.54939 0.33251 0.0
H1412 H 0.18755 0.44962 0.3281 0.0
C1413 C 0.23468 0.57823 0.3267 0.0
H1414 H 0.13797 0.47974 0.33706 0.0
C1415 C 0.2629 0.56096 0.32177 0.0
C1416 C 0.24637 0.51448 0.32211 0.0
H1417 H 0.24843 0.61421 0.3262 0.0
H1418 H 0.29777 0.58395 0.3176 0.0
C1419 C 0.20095 0.48552 0.32747 0.0
C1420 C 0.44275 0.65903 0.3265 0.0
C1421 C 0.47162 0.64253 0.33202 0.0
H1422 H 0.43723 0.71655 0.31751 0.0
C1423 C 0.5183 0.67216 0.33183 0.0
H1424 H 0.40668 0.63696 0.3264 0.0
C1425 C 0.53572 0.71744 0.32624 0.0
C1426 C 0.50678 0.73405 0.32123 0.0
H1427 H 0.5414 0.66027 0.33579 0.0
H1428 H 0.57171 0.73973 0.32646 0.0
C1429 C 0.46017 0.70445 0.3214 0.0
C1430 C 0.3046 0.81957 0.32784 0.0
C1431 C 0.28806 0.77422 0.32238 0.0
H1432 H 0.36186 0.88239 0.33736 0.0
C1433 C 0.318 0.75759 0.32196 0.0
H1434 H 0.28213 0.83304 0.32856 0.0
C1435 C 0.36361 0.78576 0.32677 0.0
C1436 C 0.38012 0.83098 0.33258 0.0
H1437 H 0.30605 0.72276 0.31775 0.0
H1438 H 0.38589 0.77202 0.3261 0.0
C1439 C 0.35011 0.84758 0.33313 0.0
C1440 C 0.30832 0.32588 0.1896 0.0
C1441 C 0.29792 0.36025 0.19241 0.0
H1442 H 0.35952 0.30896 0.18333 0.0
C1443 C 0.33208 0.405 0.18993 0.0
H1444 H 0.28249 0.29109 0.19152 0.0
C1445 C 0.37592 0.4152 0.18465 0.0
C1446 C 0.38649 0.38082 0.18228 0.0
H1447 H 0.32472 0.43196 0.1918 0.0
H1448 H 0.40179 0.45008 0.18313 0.0
C1449 C 0.35227 0.33607 0.18485 0.0
C1450 C 0.60521 0.96262 0.18649 0.0
C1451 C 0.64015 1.0066 0.18199 0.0
H1452 H 0.58749 0.8953 0.19602 0.0
C1453 C 0.68476 0.01603 0.18338 0.0
H1454 H 0.57048 0.95457 0.18598 0.0
C1455 C 0.69425 0.98216 0.18897 0.0
C1456 C 0.65942 0.93838 0.19379 0.0
H1457 H 0.71233 0.04967 0.1803 0.0
H1458 H 0.72897 0.99031 0.18992 0.0
C1459 C 0.61481 0.92888 0.19258 0.0
C1460 C 0.04881 0.69965 0.2106 0.0
C1461 C 0.08468 0.72372 0.19512 0.0
H1462 H 0.98691 0.63915 0.21689 0.0
C1463 C 0.08558 0.70427 0.17351 0.0
H1464 H 0.04718 0.71432 0.22716 0.0
C1465 C 0.05146 0.66093 0.16768 0.0
C1466 C 0.01513 0.63716 0.18303 0.0
H1467 H 0.11293 0.7226 0.16128 0.0
H1468 H 0.05327 0.64617 0.15117 0.0
C1469 C 1.0141 0.65703 0.2045 0.0
C1470 C 0.41246 0.32831 0.33214 0.0
C1471 C 0.36759 0.29427 0.32991 0.0
H1472 H 0.45768 0.39756 0.33981 0.0
C1473 C 0.33321 0.30418 0.33412 0.0
H1474 H 0.43939 0.32121 0.32921 0.0
C1475 C 0.34343 0.34756 0.34008 0.0
C1476 C 0.38828 0.38168 0.3424 0.0
H1477 H 0.29833 0.27838 0.33243 0.0
H1478 H 0.31627 0.3545 0.34262 0.0
C1479 C 0.42275 0.37163 0.33858 0.0
C1480 C 0.66458 1.00715 0.31768 0.0
C1481 C 0.64259 0.00959 0.33803 0.0
H1482 H 0.72351 0.03963 0.29603 0.0
C1483 C 0.66427 0.04765 0.3525 0.0
H1484 H 0.64839 0.97853 0.30599 0.0
C1485 C 0.70761 0.08216 0.34693 0.0
C1486 C 0.72909 0.0799 0.32637 0.0
H1487 H 0.64788 0.05052 0.36814 0.0
H1488 H 0.72433 0.11087 0.35852 0.0
C1489 C 0.70717 0.04226 0.31175 0.0
C1490 C 0.93479 0.61127 0.33556 0.0
C1491 C 0.94561 0.65601 0.33266 0.0
H1492 H 0.95906 0.56616 0.3432 0.0
C1493 C 0.99035 0.69033 0.3357 0.0
H1494 H 0.90047 0.58436 0.33354 0.0
C1495 C 0.0239 0.68011 0.34101 0.0
C1496 C 1.01315 0.63537 0.34398 0.0
H1497 H 0.99947 0.72511 0.33348 0.0
H1498 H 0.0583 0.70715 0.34259 0.0
C1499 C 0.96819 0.60104 0.34144 0.0
C1500 C 0.65165 0.60079 0.83914 0.0
C1501 C 0.64172 0.63547 0.84236 0.0
H1502 H 0.70209 0.58346 0.83097 0.0
C1503 C 0.67634 0.68014 0.84021 0.0
H1504 H 0.62545 0.56598 0.84028 0.0
C1505 C 0.72004 0.68994 0.83506 0.0
C1506 C 0.7298 0.6553 0.83143 0.0
H1507 H 0.66958 0.70749 0.84231 0.0
H1508 H 0.74617 0.72468 0.83348 0.0
C1509 C 0.69523 0.61063 0.83348 0.0
C1510 C 0.41392 0.08955 0.83051 0.0
C1511 C 0.36918 0.07951 0.82888 0.0
H1512 H 0.45869 0.06458 0.83753 0.0
C1513 C 0.33456 0.03546 0.83333 0.0
H1514 H 0.44106 0.12336 0.82737 0.0
C1515 C 0.3444 1.00185 0.83898 0.0
C1516 C 0.38913 0.01184 0.8408 0.0
H1517 H 0.29975 0.02693 0.83208 0.0
H1518 H 0.31702 0.968 0.84178 0.0
C1519 C 0.42385 0.05609 0.83667 0.0
C1520 C 0.98061 0.31858 0.81389 0.0
C1521 C 0.9458 0.29456 0.82994 0.0
H1522 H 0.04174 0.37929 0.80671 0.0
C1523 C 0.94597 0.31417 0.85167 0.0
H1524 H 0.98136 0.30374 0.79722 0.0
C1525 C 0.9801 0.35773 0.85705 0.0
C1526 C 0.01536 0.38148 0.8411 0.0
H1527 H 0.91941 0.29583 0.86431 0.0
H1528 H 0.97914 0.37268 0.87366 0.0
C1529 C 0.01537 0.36141 0.81954 0.0
C1530 C 0.62649 0.66072 0.67008 0.0
C1531 C 0.64246 0.63857 0.68449 0.0
H1532 H 0.62401 0.7212 0.66431 0.0
C1533 C 0.66655 0.65991 0.70504 0.0
H1534 H 0.60748 0.6448 0.65429 0.0
C1535 C 0.67426 0.70243 0.71118 0.0
C1536 C 0.65908 0.7249 0.69659 0.0
H1537 H 0.67863 0.64331 0.71669 0.0
H1538 H 0.69309 0.71835 0.72701 0.0
C1539 C 0.63553 0.704 0.67587 0.0
C1540 C 0.35273 0.01782 0.68395 0.0
C1541 C 0.38784 1.0083 0.68247 0.0
H1542 H 0.28275 0.99212 0.69039 0.0
C1543 C 0.37859 0.96416 0.68667 0.0
H1544 H 0.35894 0.05157 0.68109 0.0
C1545 C 0.33517 0.93038 0.69258 0.0
C1546 C 0.30011 0.93994 0.69389 0.0
H1547 H 0.40517 0.95598 0.68605 0.0
H1548 H 0.32881 0.89669 0.69579 0.0
C1549 C 0.30925 0.98389 0.68936 0.0
C1550 C 0.05995 0.41588 0.68204 0.0
C1551 C 0.01474 0.38193 0.68011 0.0
H1552 H 0.12758 0.43182 0.68942 0.0
C1553 C 1.00333 0.33712 0.68357 0.0
H1554 H 0.06955 0.45081 0.67986 0.0
C1555 C 0.03652 0.32643 0.68884 0.0
C1556 C 0.08152 0.36041 0.6913 0.0
H1557 H 0.96871 0.3104 0.68241 0.0
H1558 H 0.02697 0.29163 0.69147 0.0
C1559 C 0.09301 0.40521 0.68785 0.0
C1560 C 0.99952 0.73867 0.52015 0.0
C1561 C 0.96618 0.69389 0.52373 0.0
H1562 H 0.06854 0.78421 0.51205 0.0
C1563 C 0.97718 0.6599 0.52123 0.0
H1564 H 0.99163 0.76531 0.52172 0.0
C1565 C 0.02104 0.67055 0.51588 0.0
C1566 C 0.05449 0.71534 0.51236 0.0
H1567 H 0.95196 0.62512 0.52397 0.0
H1568 H 0.02891 0.64381 0.51478 0.0
C1569 C 0.04322 0.74929 0.51426 0.0
C1570 C 0.28189 0.26342 0.52623 0.0
C1571 C 0.32654 0.27319 0.52794 0.0
H1572 H 0.23747 0.28882 0.51923 0.0
C1573 C 0.36136 0.31724 0.52368 0.0
H1574 H 0.2546 0.22964 0.52922 0.0
C1575 C 0.35179 0.3511 0.51813 0.0
C1576 C 0.30715 0.34137 0.51621 0.0
H1577 H 0.3961 0.32557 0.52499 0.0
H1578 H 0.37932 0.38492 0.51547 0.0
C1579 C 0.27225 0.29713 0.52016 0.0
C1580 C 0.71983 0.99478 0.50161 0.0
C1581 C 0.68326 0.97151 0.51687 0.0
H1582 H 0.78156 0.05614 0.49517 0.0
C1583 C 0.68215 0.99169 0.5382 0.0
H1584 H 0.72167 0.97972 0.48521 0.0
C1585 C 0.71698 0.03427 0.54423 0.0
C1586 C 0.75301 0.0579 0.52879 0.0
H1587 H 0.65474 0.97415 0.55051 0.0
H1588 H 0.71526 0.0493 0.56065 0.0
C1589 C 0.75407 0.03807 0.50735 0.0
C1590 C 0.06856 0.69135 0.68768 0.0
C1591 C 0.05489 0.7145 0.67253 0.0
H1592 H 0.06939 0.63019 0.69399 0.0
C1593 C 0.03328 0.6942 0.65126 0.0
H1594 H 0.08569 0.70648 0.70403 0.0
C1595 C 0.02565 0.65168 0.64518 0.0
C1596 C 0.03847 0.6282 0.6605 0.0
H1597 H 0.02311 0.71163 0.63903 0.0
H1598 H 1.00869 0.63659 0.62881 0.0
C1599 C 0.05963 0.64812 0.68189 0.0
C1600 C 0.34376 0.33435 0.6738 0.0
C1601 C 0.30874 0.34399 0.67529 0.0
H1602 H 0.41379 0.35997 0.66756 0.0
C1603 C 0.31821 0.3883 0.67147 0.0
H1604 H 0.33738 0.30048 0.67639 0.0
C1605 C 0.36176 0.42212 0.66584 0.0
C1606 C 0.39672 0.41241 0.66444 0.0
H1607 H 0.29172 0.3966 0.67212 0.0
H1608 H 0.36828 0.45592 0.66286 0.0
C1609 C 0.38738 0.36832 0.66867 0.0
C1610 C 0.63691 0.93664 0.67474 0.0
C1611 C 0.68211 0.97069 0.67645 0.0
H1612 H 0.56909 0.92044 0.66766 0.0
C1613 C 0.69334 0.01541 0.67286 0.0
H1614 H 0.62743 0.90176 0.67702 0.0
C1615 C 0.65997 0.02593 0.6677 0.0
C1616 C 0.61496 0.99186 0.66547 0.0
H1617 H 0.72795 0.04221 0.67384 0.0
H1618 H 0.6694 0.06068 0.66497 0.0
C1619 C 0.60365 0.94712 0.66904 0.0
C1620 C 0.34219 0.01486 0.17308 0.0
C1621 C 0.30866 0.97007 0.1765 0.0
H1622 H 0.41139 0.0603 0.16522 0.0
C1623 C 0.31989 0.9361 0.17458 0.0
H1624 H 0.33436 0.04163 0.17422 0.0
C1625 C 0.36365 0.94672 0.16881 0.0
C1626 C 0.3971 0.99151 0.16537 0.0
H1627 H 0.29452 0.90118 0.17674 0.0
H1628 H 0.37151 0.92004 0.16724 0.0
C1629 C 0.38611 0.02551 0.16785 0.0
C1630 C 0.02004 0.3748 0.14651 0.0
C1631 C 0.038 0.41347 0.16047 0.0
H1632 H 1.01267 0.30992 0.14139 0.0
C1633 C 0.06312 0.41628 0.18057 0.0
H1634 H 0.99996 0.37176 0.13118 0.0
C1635 C 0.0712 0.3813 0.18627 0.0
C1636 C 0.05271 0.34228 0.17244 0.0
H1637 H 0.07676 0.44576 0.19167 0.0
H1638 H 0.09162 0.38462 0.20149 0.0
C1639 C 0.02679 0.33929 0.1526 0.0
C1640 C 0.61021 0.64633 0.1845 0.0
C1641 C 0.61028 0.62614 0.16302 0.0
H1642 H 0.64335 0.70531 0.20616 0.0
C1643 C 0.64537 0.64962 0.14705 0.0
H1644 H 0.58344 0.62839 0.19709 0.0
C1645 C 0.68025 0.69248 0.15255 0.0
C1646 C 0.68004 0.71309 0.1739 0.0
H1647 H 0.64628 0.63429 0.13057 0.0
H1648 H 0.70691 0.70994 0.13983 0.0
C1649 C 0.64444 0.68992 0.18973 0.0
C1650 C 0.32948 0.99096 0.03799 0.0
C1651 C 0.3087 0.97106 0.0165 0.0
H1652 H 0.35321 0.04814 0.06069 0.0
C1653 C 0.29575 0.99454 1.00116 0.0
H1654 H 0.33905 0.97327 0.05038 0.0
C1655 C 0.30453 0.0377 1.00703 0.0
C1656 C 0.32479 0.05719 0.02865 0.0
H1657 H 0.27925 0.97972 0.98464 0.0
H1658 H 0.29527 0.05588 0.9948 0.0
C1659 C 0.33694 0.03338 0.04412 0.0
C1660 C 0.03032 0.3456 0.03656 0.0
C1661 C 0.05288 0.34336 0.01641 0.0
H1662 H 0.97082 0.31282 0.05774 0.0
C1663 C 0.03164 0.30558 1.00173 0.0
H1664 H 0.04617 0.37404 0.04838 0.0
C1665 C 0.98816 0.27105 1.00694 0.0
C1666 C 0.96621 0.27307 0.02734 0.0
H1667 H 0.04851 0.30293 0.98623 0.0
H1668 H 0.97172 0.24248 0.99524 0.0
C1669 C 0.98762 0.31047 0.04214 0.0
C1670 C 0.70559 0.66167 0.02168 0.0
C1671 C 0.75021 0.69617 0.02487 0.0
H1672 H 0.63759 0.64442 0.01464 0.0
C1673 C 0.76071 0.74086 0.02222 0.0
H1674 H 0.69671 0.62692 0.02371 0.0
C1675 C 0.72711 0.75086 0.01639 0.0
C1676 C 0.6823 0.71632 0.01364 0.0
H1677 H 0.79493 0.76792 0.02438 0.0
H1678 H 0.73599 0.78569 0.01479 0.0
C1679 C 0.67187 0.67164 0.01639 0.0
C1680 C 0.7109 0.08352 0.84984 0.0
C1681 C 0.72114 0.04909 0.84653 0.0
H1682 H 0.66015 0.10026 0.85825 0.0
C1683 C 0.68681 1.00429 0.8486 0.0
H1684 H 0.7369 0.11842 0.84875 0.0
C1685 C 0.64308 0.99411 0.85387 0.0
C1686 C 0.63306 0.0285 0.85769 0.0
H1687 H 0.69385 0.97715 0.84641 0.0
H1688 H 0.61715 0.95929 0.85546 0.0
C1689 C 0.66729 0.07329 0.85562 0.0
C1690 C 0.95741 0.63527 0.83751 0.0
C1691 C 0.9755 0.67432 0.8513 0.0
H1692 H 0.95264 0.57116 0.8322 0.0
C1693 C 1.00144 0.67768 0.87119 0.0
H1694 H 0.937 0.63169 0.82223 0.0
C1695 C 1.00864 0.64251 0.87736 0.0
C1696 C 0.99111 0.60384 0.86342 0.0
H1697 H 0.01529 0.70711 0.88236 0.0
H1698 H 0.02881 0.64586 0.8927 0.0
C1699 C 0.96593 0.60065 0.84329 0.0
C1700 C 0.3474 0.3244 0.87075 0.0
C1701 C 0.34776 0.30395 0.84938 0.0
H1702 H 0.3812 0.38243 0.89285 0.0
C1703 C 0.38344 0.32724 0.83361 0.0
H1704 H 0.32068 0.30685 0.88343 0.0
C1705 C 0.41762 0.37079 0.83893 0.0
C1706 C 0.4174 0.39083 0.86044 0.0
H1707 H 0.38464 0.31196 0.81716 0.0
H1708 H 0.44448 0.38883 0.8264 0.0
C1709 C 0.38222 0.36723 0.87635 0.0
C1710 C 0.74523 0.99447 0.99836 0.0
C1711 C 0.70036 0.96038 0.99625 0.0
H1712 H 0.79051 0.06378 1.00587 0.0
C1713 C 0.66601 0.97032 1.00053 0.0
H1714 H 0.77216 0.98737 0.9954 0.0
C1715 C 0.67627 0.01377 1.00638 0.0
C1716 C 0.72113 0.04794 1.00857 0.0
H1717 H 0.63112 0.94449 0.99893 0.0
H1718 H 0.64913 0.02073 1.00896 0.0
C1719 C 0.75556 0.03785 1.00472 0.0
C1720 C 0.99777 0.71455 0.01957 0.0
C1721 C 0.97627 0.67641 1.00515 0.0
H1722 H 0.05762 0.77798 0.02558 0.0
C1723 C 0.99847 0.67402 0.98487 0.0
H1724 H 0.98125 0.7174 0.03517 0.0
C1725 C 0.04101 0.70926 0.97895 0.0
C1726 C 0.06273 0.74702 0.99351 0.0
H1727 H 0.98248 0.64532 0.97321 0.0
H1728 H 0.05746 0.70666 0.96326 0.0
C1729 C 0.04108 0.7492 0.01403 0.0
C1730 C 0.26807 0.27812 1.00156 0.0
C1731 C 0.27881 0.32284 0.9988 0.0
H1732 H 0.29243 0.2331 1.00923 0.0
C1733 C 0.32343 0.35725 1.00208 0.0
H1734 H 0.23382 0.25116 0.99934 0.0
C1735 C 0.35698 0.34713 1.00753 0.0
C1736 C 0.3463 0.3024 1.01038 0.0
H1737 H 0.33245 0.39203 0.99998 0.0
H1738 H 0.39131 0.37423 1.00931 0.0
C1739 C 0.30146 0.26797 1.00757 0.0
C1740 C 0.02939 0.27948 0.5012 0.0
C1741 C 0.06322 0.32425 0.49833 0.0
H1742 H 0.95995 0.23424 0.50855 0.0
C1743 C 0.05266 0.35851 0.50105 0.0
H1744 H 0.03697 0.25264 0.4994 0.0
C1745 C 1.00877 0.34816 0.50605 0.0
C1746 C 0.97489 0.30339 0.50901 0.0
H1747 H 0.0783 0.3933 0.49886 0.0
H1748 H 1.00127 0.37512 0.50745 0.0
C1749 C 0.98565 0.26913 0.50677 0.0
C1750 C 0.74803 0.75612 0.49695 0.0
C1751 C 0.70337 0.74652 0.49578 0.0
H1752 H 0.79254 0.7306 0.50346 0.0
C1753 C 0.66865 0.70268 0.50059 0.0
H1754 H 0.77529 0.78973 0.49351 0.0
C1755 C 0.67829 0.66888 0.50615 0.0
C1756 C 0.72294 0.67842 0.50748 0.0
H1757 H 0.63389 0.69441 0.49967 0.0
H1758 H 0.65079 0.6352 0.50923 0.0
C1759 C 0.75777 0.72245 0.50299 0.0
C1760 C 0.27588 0.98139 0.51547 0.0
C1761 C 0.27733 0.96172 0.49405 0.0
H1762 H 0.30783 0.03961 0.53774 0.0
C1763 C 0.31362 0.98553 0.47879 0.0
H1764 H 0.24819 0.96322 0.52753 0.0
C1765 C 0.3483 0.02809 0.48496 0.0
C1766 C 0.34681 0.04814 0.50628 0.0
H1767 H 0.31566 0.97065 0.46238 0.0
H1768 H 0.37589 0.04575 0.47276 0.0
C1769 C 0.30998 0.02469 0.52137 0.0
C1770 C 1.00434 0.36607 0.37672 0.0
C1771 C 0.99178 0.38987 0.36149 0.0
H1772 H 1.00655 0.30594 0.3827 0.0
C1773 C 0.97089 0.37034 0.33998 0.0
H1774 H 0.02108 0.38084 0.39319 0.0
C1775 C 0.96186 0.32711 0.33402 0.0
C1776 C 0.97521 0.30361 0.34912 0.0
H1777 H 0.96131 0.38851 0.32794 0.0
H1778 H 0.94485 0.31223 0.31762 0.0
C1779 C 0.99665 0.32361 0.37048 0.0
C1780 C 0.69793 0.63973 0.33615 0.0
C1781 C 0.72002 0.67643 0.35146 0.0
H1782 H 0.63721 0.57771 0.32907 0.0
C1783 C 0.69828 0.67766 0.37217 0.0
H1784 H 0.71417 0.63788 0.3202 0.0
C1785 C 0.65541 0.64265 0.37762 0.0
C1786 C 0.63304 0.60642 0.36216 0.0
H1787 H 0.71484 0.70525 0.38447 0.0
H1788 H 0.63921 0.64428 0.39363 0.0
C1789 C 0.65432 0.60536 0.34126 0.0
C1790 C 0.39389 0.08471 0.34987 0.0
C1791 C 0.34903 0.0502 0.34727 0.0
H1792 H 0.46179 0.10168 0.35753 0.0
C1793 C 0.33857 1.0055 0.34998 0.0
H1794 H 0.40279 0.11955 0.34829 0.0
C1795 C 0.37232 0.99548 0.35505 0.0
C1796 C 0.417 0.02996 0.35808 0.0
H1797 H 0.30425 0.97832 0.34833 0.0
H1798 H 0.36344 0.96072 0.35705 0.0
C1799 C 0.42752 0.07466 0.35549 0.0
C1800 C 0.12325 0.3595 0.08637 0.0
C1801 C 0.16628 0.37515 0.07699 0.0
H1802 H 0.07357 0.31541 0.11098 0.0
C1803 C 0.19291 0.35796 0.08568 0.0
H1804 H 0.1017 0.37147 0.07954 0.0
C1805 C 0.17715 0.32651 0.10402 0.0
C1806 C 0.13365 0.31011 0.11298 0.0
H1807 H 0.22587 0.36896 0.07833 0.0
H1808 H 0.19868 0.31471 0.11108 0.0
C1809 C 0.10682 0.32677 0.10395 0.0
C1810 C 0.63364 0.78925 0.09761 0.0
C1811 C 0.65189 0.79999 0.07494 0.0
H1812 H 0.64693 0.79477 0.13462 0.0
C1813 C 0.69892 0.82503 0.07225 0.0
H1814 H 0.59764 0.76972 0.10011 0.0
C1815 C 0.72725 0.83824 0.0919 0.0
C1816 C 0.70895 0.82794 0.11457 0.0
H1817 H 0.71387 0.83312 0.05487 0.0
H1818 H 0.76329 0.85651 0.08939 0.0
C1819 C 0.66191 0.80375 0.11726 0.0
C1820 C 0.18527 0.89434 0.09241 0.0
C1821 C 0.19361 0.88378 0.11495 0.0
H1822 H 0.19205 0.88884 0.05531 0.0
C1823 C 0.21587 0.85895 0.11733 0.0
H1824 H 0.16852 0.91366 0.09013 0.0
C1825 C 0.2305 0.84582 0.0975 0.0
C1826 C 0.2218 0.85603 0.07496 0.0
H1827 H 0.22333 0.85093 0.1346 0.0
H1828 H 0.24852 0.82774 0.09978 0.0
C1829 C 0.19861 0.87995 0.07257 0.0
C1830 C 0.39424 0.17352 0.42556 0.0
C1831 C 0.37601 0.16334 0.44824 0.0
H1832 H 0.38076 0.1679 0.38854 0.0
C1833 C 0.32899 0.1389 0.45098 0.0
H1834 H 0.43027 0.19195 0.42302 0.0
C1835 C 0.30067 0.12399 0.43135 0.0
C1836 C 0.31886 0.13458 0.40867 0.0
H1837 H 0.31408 0.12998 0.46835 0.0
H1838 H 0.26469 0.10426 0.43389 0.0
C1839 C 0.36586 0.1599 0.40593 0.0
C1840 C 0.89724 0.17963 0.43047 0.0
C1841 C 0.88784 0.18902 0.40788 0.0
H1842 H 0.8906 0.18544 0.46755 0.0
C1843 C 0.86382 0.21207 0.40541 0.0
H1844 H 0.91592 0.16222 0.4328 0.0
C1845 C 0.85043 0.22654 0.42521 0.0
C1846 C 0.85954 0.21685 0.4478 0.0
H1847 H 0.8567 0.22029 0.38811 0.0
H1848 H 0.83306 0.24526 0.42289 0.0
C1849 C 0.88256 0.19278 0.45025 0.0
C1850 C 0.85947 0.68893 0.41813 0.0
C1851 C 0.83553 0.71016 0.41101 0.0
H1852 H 0.8626 0.64211 0.44208 0.0
C1853 C 0.79461 0.69854 0.42202 0.0
H1854 H 0.89071 0.69682 0.40956 0.0
C1855 C 0.77743 0.66561 0.4395 0.0
C1856 C 0.80146 0.64462 0.44676 0.0
H1857 H 0.77503 0.71367 0.41647 0.0
H1858 H 0.74585 0.65736 0.4478 0.0
C1859 C 0.84309 0.6572 0.43633 0.0
C1860 C 0.92042 0.69051 0.91885 0.0
C1861 C 0.89427 0.70823 0.91023 0.0
H1862 H 0.92473 0.64489 0.94291 0.0
C1863 C 0.85123 0.69299 0.91955 0.0
H1864 H 0.95324 0.70095 0.91148 0.0
C1865 C 0.83525 0.66153 0.93788 0.0
C1866 C 0.86114 0.64319 0.94614 0.0
H1867 H 0.83019 0.70557 0.91274 0.0
H1868 H 0.80269 0.65137 0.94552 0.0
C1869 C 0.90372 0.65776 0.9364 0.0
C1870 C 0.30033 0.17952 0.9312 0.0
C1871 C 0.31909 0.189 0.90863 0.0
H1872 H 0.31286 0.18562 0.96831 0.0
C1873 C 0.36619 0.21276 0.90619 0.0
H1874 H 0.26424 0.16163 0.93352 0.0
C1875 C 0.39405 0.22769 0.92601 0.0
C1876 C 0.37529 0.2178 0.94858 0.0
H1877 H 0.38152 0.22114 0.8889 0.0
H1878 H 0.43012 0.24682 0.92369 0.0
C1879 C 0.32821 0.19315 0.95102 0.0
C1880 C 0.78949 0.10159 0.9191 0.0
C1881 C 0.83247 0.12897 0.90967 0.0
H1882 H 0.74054 0.09546 0.94441 0.0
C1883 C 0.85959 0.17231 0.91876 0.0
H1884 H 0.76761 0.06845 0.91196 0.0
C1885 C 0.84441 0.18747 0.93758 0.0
C1886 C 0.80106 0.16032 0.94668 0.0
H1887 H 0.89254 0.19421 0.9114 0.0
H1888 H 0.86632 0.22038 0.94495 0.0
C1889 C 0.77368 0.11738 0.93724 0.0
C1890 C 0.6342 0.84582 0.59785 0.0
C1891 C 0.65287 0.85546 0.57525 0.0
H1892 H 0.64689 0.85136 0.63494 0.0
C1893 C 0.69996 0.87878 0.57277 0.0
H1894 H 0.59812 0.82824 0.6002 0.0
C1895 C 0.72792 0.89316 0.59255 0.0
C1896 C 0.70927 0.88318 0.61515 0.0
H1897 H 0.71526 0.88726 0.55548 0.0
H1898 H 0.76398 0.91205 0.59019 0.0
C1899 C 0.66218 0.85892 0.61763 0.0
C1900 C 0.14534 0.82666 0.572 0.0
C1901 C 0.16781 0.80207 0.57456 0.0
H1902 H 0.11258 0.85798 0.58937 0.0
C1903 C 0.17651 0.79214 0.59717 0.0
H1904 H 0.13766 0.8342 0.55467 0.0
C1905 C 0.16332 0.8069 0.6169 0.0
C1906 C 0.13992 0.83057 0.61436 0.0
H1907 H 0.19346 0.77304 0.59957 0.0
H1908 H 0.17013 0.79845 0.63422 0.0
C1909 C 0.13082 0.84015 0.59175 0.0
C1910 C 0.18491 0.35851 0.5859 0.0
C1911 C 0.22877 0.376 0.57722 0.0
H1912 H 0.13603 0.315 0.61124 0.0
C1913 C 0.25641 0.36067 0.58667 0.0
H1914 H 0.16276 0.36926 0.57852 0.0
C1915 C 0.24037 0.32806 0.60431 0.0
C1916 C 0.19682 0.31105 0.6133 0.0
H1917 H 0.28995 0.37279 0.57984 0.0
H1918 H 0.26253 0.31706 0.61143 0.0
C1919 C 0.16944 0.32707 0.60425 0.0
C1920 C 0.03367 0.49395 0.73933 0.0
C1921 C 0.98656 0.46911 0.74152 0.0
H1922 H 0.09732 0.52501 0.75713 0.0
C1923 C 0.9674 0.4585 0.764 0.0
H1924 H 0.04936 0.50203 0.72212 0.0
C1925 C 0.99488 0.47276 0.78395 0.0
C1926 C 0.04201 0.4966 0.78175 0.0
H1927 H 0.93129 0.43918 0.76613 0.0
H1928 H 0.97923 0.4638 0.80115 0.0
C1929 C 0.06119 0.50696 0.75927 0.0
C1930 C 0.59005 0.56432 0.75444 0.0
C1931 C 0.56118 0.52316 0.74356 0.0
H1932 H 0.59725 0.61231 0.78061 0.0
C1933 C 0.51644 0.49806 0.75119 0.0
H1934 H 0.6244 0.58473 0.7485 0.0
C1935 C 0.50115 0.51349 0.76984 0.0
C1936 C 0.52977 0.55527 0.7802 0.0
H1937 H 0.49345 0.46658 0.74274 0.0
H1938 H 0.46696 0.49312 0.77603 0.0
C1939 C 0.57428 0.58054 0.77238 0.0
C1940 C 0.52737 0.02592 0.75272 0.0
C1941 C 0.50015 0.04198 0.74351 0.0
H1942 H 0.53365 0.98374 0.7786 0.0
C1943 C 0.45647 0.025 0.75231 0.0
H1944 H 0.56086 0.03795 0.74585 0.0
C1945 C 0.44016 0.99241 0.76996 0.0
C1946 C 0.46765 0.97708 0.7796 0.0
H1947 H 0.43443 0.03602 0.74505 0.0
H1948 H 0.40654 0.98033 0.77666 0.0
C1949 C 0.51161 0.9945 0.77108 0.0
C1950 C 0.51957 0.02777 0.25287 0.0
C1951 C 0.56166 0.04088 0.24285 0.0
H1952 H 0.47148 0.98794 0.27942 0.0
C1953 C 0.58622 0.02085 0.25071 0.0
H1954 H 0.49971 0.04217 0.24668 0.0
C1955 C 0.56905 0.98822 0.26832 0.0
C1956 C 0.52759 0.97596 0.27886 0.0
H1957 H 0.61822 0.02957 0.24276 0.0
H1958 H 0.58899 0.97375 0.27429 0.0
C1959 C 0.50316 0.99634 0.27121 0.0
C1960 C 0.99536 0.5254 0.284 0.0
C1961 C 0.04243 0.5507 0.28177 0.0
H1962 H 0.93168 0.4934 0.26622 0.0
C1963 C 0.06157 0.56127 0.25929 0.0
H1964 H 0.97974 0.51733 0.30123 0.0
C1965 C 0.03408 0.54645 0.23936 0.0
C1966 C 0.98697 0.52207 0.24159 0.0
H1967 H 0.09765 0.5809 0.25714 0.0
H1968 H 0.04971 0.55538 0.22215 0.0
C1969 C 0.96781 0.51182 0.26407 0.0
C1970 C 0.52767 0.50643 0.2528 0.0
C1971 C 0.50114 0.4627 0.24407 0.0
H1972 H 0.5337 0.55483 0.27862 0.0
C1973 C 0.45852 0.43487 0.25379 0.0
H1974 H 0.56031 0.52868 0.24521 0.0
C1975 C 0.44241 0.45061 0.27181 0.0
C1976 C 0.46916 0.49399 0.28086 0.0
H1977 H 0.43704 0.40141 0.24692 0.0
H1978 H 0.40952 0.42837 0.27917 0.0
C1979 C 0.51224 0.52157 0.27154 0.0
C1980 C 0.96688 0.16761 0.26207 0.0
C1981 C 0.99149 0.18142 0.28315 0.0
H1982 H 0.96872 0.16802 0.22439 0.0
C1983 C 0.03873 0.20533 0.28189 0.0
H1984 H 0.93052 0.14916 0.26238 0.0
C1985 C 0.06073 0.21689 0.26006 0.0
C1986 C 0.03605 0.20408 0.23897 0.0
H1987 H 0.05877 0.21666 0.29778 0.0
H1988 H 0.09704 0.23657 0.25971 0.0
C1989 C 0.98888 0.17842 0.24027 0.0
C1990 C 0.85116 0.79878 0.26311 0.0
C1991 C 0.83915 0.81154 0.28414 0.0
H1992 H 0.84953 0.79897 0.2254 0.0
C1993 C 0.81725 0.83684 0.28276 0.0
H1994 H 0.86809 0.77939 0.26352 0.0
C1995 C 0.80599 0.84751 0.26094 0.0
C1996 C 0.81705 0.83387 0.23992 0.0
H1997 H 0.80742 0.84725 0.2986 0.0
H1998 H 0.78796 0.86583 0.26057 0.0
C1999 C 0.84059 0.81016 0.24126 0.0
C2000 C 0.22054 0.05593 0.26262 0.0
C2001 C 0.20894 0.03175 0.28382 0.0
H2002 H 0.21939 0.05325 0.22498 0.0
C2003 C 0.18446 0.98452 0.28283 0.0
H2004 H 0.23927 0.09225 0.26273 0.0
C2005 C 0.17363 0.96203 0.26118 0.0
C2006 C 0.18631 0.98622 0.23998 0.0
H2007 H 0.17505 0.96477 0.29884 0.0
H2008 H 0.15611 0.92571 0.26105 0.0
C2009 C 0.20902 0.03345 0.24097 0.0
C2010 C 0.96752 0.79768 0.76268 0.0
C2011 C 0.992 0.81038 0.78381 0.0
H2012 H 0.96987 0.79827 0.72498 0.0
C2013 C 0.03923 0.83581 0.78265 0.0
H2014 H 0.93121 0.77818 0.76293 0.0
C2015 C 0.06147 0.84673 0.76093 0.0
C2016 C 0.03706 0.83325 0.7398 0.0
H2017 H 0.05924 0.84611 0.79858 0.0
H2018 H 0.09782 0.86518 0.76071 0.0
C2019 C 0.98978 0.80935 0.74093 0.0
C2020 C 0.20863 0.17886 0.74063 0.0
C2021 C 0.18718 0.20458 0.73928 0.0
H2022 H 0.238 0.14987 0.76278 0.0
C2023 C 0.17589 0.21798 0.76033 0.0
H2024 H 0.21798 0.16805 0.72477 0.0
C2025 C 0.18677 0.20684 0.78217 0.0
C2026 C 0.20997 0.1828 0.78346 0.0
H2027 H 0.15938 0.23776 0.75994 0.0
H2028 H 0.17841 0.21855 0.79804 0.0
C2029 C 0.22026 0.16847 0.76243 0.0
C2030 C 0.82313 0.98605 0.78249 0.0
C2031 C 0.84448 0.03323 0.78363 0.0
H2032 H 0.79367 0.92738 0.76063 0.0
C2033 C 0.85551 0.05756 0.76248 0.0
H2034 H 0.81395 0.96611 0.79842 0.0
C2035 C 0.84445 0.03519 0.74076 0.0
C2036 C 0.82133 0.98794 0.73968 0.0
H2037 H 0.8719 0.09382 0.76271 0.0
H2038 H 0.85262 0.055 0.7248 0.0
C2039 C 0.81135 0.96369 0.76081 0.0
C2040 C 0.70621 0.5419 0.6155 0.0
C2041 C 0.65895 0.51907 0.6168 0.0
H2042 H 0.76459 0.5714 0.59333 0.0
C2043 C 0.63426 0.50582 0.59575 0.0
H2044 H 0.72637 0.55278 0.63137 0.0
C2045 C 0.6563 0.51581 0.57394 0.0
C2046 C 0.70357 0.54011 0.57263 0.0
H2047 H 0.59791 0.48819 0.5961 0.0
H2048 H 0.63615 0.50575 0.55806 0.0
C2049 C 0.72824 0.55269 0.59369 0.0
C2050 C 0.48628 0.17236 0.61616 0.0
C2051 C 0.50795 0.14683 0.61742 0.0
H2052 H 0.45651 0.20113 0.59413 0.0
C2053 C 0.51904 0.1334 0.59633 0.0
H2054 H 0.47704 0.18317 0.63206 0.0
C2055 C 0.50787 0.14442 0.57453 0.0
C2056 C 0.48454 0.16835 0.57333 0.0
H2057 H 0.5357 0.11376 0.59665 0.0
H2058 H 0.51616 0.13277 0.55863 0.0
C2059 C 0.47434 0.18261 0.59441 0.0
C2060 C 0.85174 0.31861 0.61553 0.0
C2061 C 0.87641 0.36584 0.61653 0.0
H2062 H 0.82303 0.25985 0.59373 0.0
C2063 C 0.888 0.39007 0.59535 0.0
H2064 H 0.84225 0.29881 0.63151 0.0
C2065 C 0.87631 0.36762 0.57368 0.0
C2066 C 0.85342 0.32039 0.57268 0.0
H2067 H 0.90688 0.42638 0.59548 0.0
H2068 H 0.88669 0.38742 0.55769 0.0
C2069 C 0.84071 0.29616 0.59386 0.0
C2070 C 0.65724 0.14629 0.07427 0.0
C2071 C 0.70452 0.16926 0.07295 0.0
H2072 H 0.59889 0.11578 0.09642 0.0
C2073 C 0.72923 0.18179 0.094 0.0
H2074 H 0.63705 0.1359 0.05841 0.0
C2075 C 0.7072 0.17086 0.11581 0.0
C2076 C 0.65993 0.14633 0.1171 0.0
H2077 H 0.76558 0.19941 0.09363 0.0
H2078 H 0.72735 0.18034 0.13169 0.0
C2079 C 0.63523 0.13458 0.09606 0.0
C2080 C 0.88951 0.50317 0.09522 0.0
C2081 C 0.87845 0.51644 0.11637 0.0
H2082 H 0.88809 0.50414 0.05756 0.0
C2083 C 0.85498 0.54025 0.11524 0.0
H2084 H 0.90753 0.48484 0.09542 0.0
C2085 C 0.84446 0.55206 0.09349 0.0
C2086 C 0.85639 0.53963 0.07234 0.0
H2087 H 0.84606 0.55119 0.1312 0.0
H2088 H 0.82758 0.57151 0.09326 0.0
C2089 C 0.87825 0.51425 0.07349 0.0
C2090 C 0.51981 0.38866 0.09673 0.0
C2091 C 0.50764 0.36413 0.11783 0.0
H2092 H 0.51837 0.38649 0.05904 0.0
C2093 C 0.48572 0.31693 0.11659 0.0
H2094 H 0.53672 0.42495 0.09702 0.0
C2095 C 0.47454 0.29478 0.09484 0.0
C2096 C 0.48573 0.31926 0.07374 0.0
H2097 H 0.47575 0.29685 0.13248 0.0
H2098 H 0.45642 0.25846 0.09456 0.0
C2099 C 0.50934 0.3665 0.07495 0.0
C2100 C 0.32397 0.84753 0.90734 0.0
C2101 C 0.37118 0.87355 0.90618 0.0
H2102 H 0.2653 0.81776 0.92922 0.0
C2103 C 0.39558 0.88681 0.92733 0.0
H2104 H 0.30398 0.83676 0.89141 0.0
C2105 C 0.37324 0.87514 0.94907 0.0
C2106 C 0.32596 0.85068 0.95017 0.0
H2107 H 0.43187 0.90678 0.92709 0.0
H2108 H 0.39307 0.8867 0.96503 0.0
C2109 C 0.30165 0.83661 0.92903 0.0
C2110 C 0.15365 0.50626 0.94934 0.0
C2111 C 0.1749 0.48033 0.9506 0.0
H2112 H 0.12483 0.53594 0.92731 0.0
C2113 C 0.18647 0.46736 0.9295 0.0
H2114 H 0.14413 0.51682 0.96523 0.0
C2115 C 0.17601 0.47906 0.9077 0.0
C2116 C 0.153 0.5033 0.9065 0.0
H2117 H 0.20287 0.44747 0.92982 0.0
H2118 H 0.18451 0.46762 0.89179 0.0
C2119 C 0.14248 0.51724 0.92759 0.0
C2120 C 0.54122 0.69984 0.90707 0.0
C2121 C 0.51926 0.65264 0.90587 0.0
H2122 H 0.57095 0.75838 0.92904 0.0
C2123 C 0.50753 0.62818 0.927 0.0
H2124 H 0.55094 0.71986 0.89116 0.0
C2125 C 0.51842 0.65042 0.94875 0.0
C2126 C 0.54207 0.69766 0.94991 0.0
H2127 H 0.49066 0.5919 0.92673 0.0
H2128 H 0.50969 0.6305 0.96469 0.0
C2129 C 0.55284 0.72206 0.9288 0.0
C2130 C 0.30093 0.46752 0.42964 0.0
C2131 C 0.32553 0.47961 0.45072 0.0
H2132 H 0.30298 0.46857 0.39196 0.0
C2133 C 0.37282 0.50434 0.44945 0.0
H2134 H 0.26459 0.44855 0.42996 0.0
C2135 C 0.39495 0.51521 0.42768 0.0
C2136 C 0.37037 0.50243 0.4066 0.0
H2137 H 0.39294 0.51411 0.46534 0.0
H2138 H 0.43131 0.53304 0.42737 0.0
C2139 C 0.32307 0.47918 0.40786 0.0
C2140 C 0.51159 0.88705 0.42665 0.0
C2141 C 0.52323 0.87409 0.40556 0.0
H2142 H 0.51373 0.88711 0.46436 0.0
C2143 C 0.54518 0.84883 0.40687 0.0
H2144 H 0.49467 0.90645 0.4263 0.0
C2145 C 0.55678 0.83833 0.42866 0.0
C2146 C 0.54599 0.85209 0.44973 0.0
H2147 H 0.5548 0.83833 0.391 0.0
H2148 H 0.57479 0.81999 0.42897 0.0
C2149 C 0.52246 0.87582 0.44847 0.0
C2150 C 0.19053 0.72257 0.42904 0.0
C2151 C 0.17803 0.69874 0.45034 0.0
H2152 H 0.18841 0.7193 0.39141 0.0
C2153 C 0.15491 0.65147 0.44954 0.0
H2154 H 0.20831 0.75889 0.429 0.0
C2155 C 0.14276 0.62863 0.42797 0.0
C2156 C 0.15415 0.65249 0.40667 0.0
H2157 H 0.14459 0.63195 0.46562 0.0
H2158 H 0.12365 0.59233 0.42801 0.0
C2159 C 0.1791 0.69974 0.40748 0.0
loop_
_geom_bond_atom_site_label_1
_geom_bond_atom_site_label_2
_geom_bond_distance
_geom_bond_site_symmetry_2
_ccdc_geom_bond_type
Co0 N5 2.057 1_455 S
Co0 O17 2.021 . S
Co0 O20 2.062 . S
Co0 O24 2.117 . S
Co0 O25 2.020 . S
C1 O21 1.259 . S
C1 O24 1.258 . S
Co2 N11 2.057 . S
Co2 O18 2.117 . S
Co2 O19 2.020 . S
Co2 O21 2.021 . S
Co2 O26 2.062 . S
C3 N5 1.316 . S
C3 N6 1.347 . S
C3 H8 0.931 . S
C4 N5 1.375 . S
C4 C7 1.350 . S
C4 H9 0.930 . S
N5 Co0 2.057 1_655 S
N5 C3 1.316 . S
N5 C4 1.375 . S
N6 C3 1.347 . S
N6 C7 1.373 . S
C7 C4 1.350 . S
C7 N6 1.373 . S
C7 H28 0.931 . S
H8 C3 0.931 . S
H9 C4 0.930 . S
C10 O17 1.259 . S
C10 O18 1.258 . S
N11 Co2 2.057 . S
N11 C12 1.316 . S
N11 C13 1.375 . S
C12 N11 1.316 . S
C12 N14 1.347 . S
C12 H23 0.931 . S
C13 N11 1.375 . S
C13 C15 1.350 . S
C13 H22 0.930 . S
N14 C12 1.347 . S
N14 C15 1.373 . S
C15 C13 1.350 . S
C15 N14 1.373 . S
C15 H29 0.931 . S
C16 O19 1.256 . S
C16 O20 1.255 . S
O17 Co0 2.021 . S
O17 C10 1.259 . S
O18 Co2 2.117 . S
O18 C10 1.258 . S
O19 Co2 2.020 . S
O19 C16 1.256 . S
O20 Co0 2.062 . S
O20 C16 1.255 . S
O21 C1 1.259 . S
O21 Co2 2.021 . S
H22 C13 0.930 . S
H23 C12 0.931 . S
O24 Co0 2.117 . S
O24 C1 1.258 . S
O25 Co0 2.020 . S
O25 C27 1.256 . S
O26 Co2 2.062 . S
O26 C27 1.255 . S
C27 O25 1.256 . S
C27 O26 1.255 . S
H28 C7 0.931 . S
H29 C15 0.931 . S
Co30 N35 2.057 . S
Co30 O47 2.021 . S
Co30 O50 2.062 . S
Co30 O54 2.117 . S
Co30 O55 2.020 . S
C31 O51 1.259 . S
C31 O54 1.258 . S
Co32 N41 2.057 . S
Co32 O48 2.117 . S
Co32 O49 2.020 . S
Co32 O51 2.021 . S
Co32 O56 2.062 . S
C33 N35 1.316 . S
C33 N36 1.347 . S
C33 H38 0.931 . S
C34 N35 1.375 . S
C34 C37 1.350 . S
C34 H39 0.930 . S
N35 Co30 2.057 . S
N35 C33 1.316 . S
N35 C34 1.375 . S
N36 C33 1.347 . S
N36 C37 1.373 . S
C37 C34 1.350 . S
C37 N36 1.373 . S
C37 H58 0.931 . S
H38 C33 0.931 . S
H39 C34 0.930 . S
C40 O47 1.259 . S
C40 O48 1.258 . S
N41 Co32 2.057 . S
N41 C42 1.316 . S
N41 C43 1.375 . S
C42 N41 1.316 . S
C42 N44 1.347 . S
C42 H53 0.931 . S
C43 N41 1.375 . S
C43 C45 1.350 . S
C43 H52 0.930 . S
N44 C42 1.347 . S
N44 C45 1.373 . S
C45 C43 1.350 . S
C45 N44 1.373 . S
C45 H59 0.931 . S
C46 O49 1.256 . S
C46 O50 1.255 . S
O47 Co30 2.021 . S
O47 C40 1.259 . S
O48 Co32 2.117 . S
O48 C40 1.258 . S
O49 Co32 2.020 . S
O49 C46 1.256 . S
O50 Co30 2.062 . S
O50 C46 1.255 . S
O51 C31 1.259 . S
O51 Co32 2.021 . S
H52 C43 0.930 . S
H53 C42 0.931 . S
O54 Co30 2.117 . S
O54 C31 1.258 . S
O55 Co30 2.020 . S
O55 C57 1.256 . S
O56 Co32 2.062 . S
O56 C57 1.255 . S
C57 O55 1.256 . S
C57 O56 1.255 . S
H58 C37 0.931 . S
H59 C45 0.931 . S
Co60 N65 2.057 1_565 S
Co60 O77 2.021 . S
Co60 O80 2.062 . S
Co60 O84 2.117 . S
Co60 O85 2.020 . S
C61 O81 1.259 . S
C61 O84 1.258 . S
Co62 N71 2.057 . S
Co62 O78 2.117 . S
Co62 O79 2.020 . S
Co62 O81 2.021 . S
Co62 O86 2.062 . S
C63 N65 1.316 . S
C63 N66 1.347 . S
C63 H68 0.931 . S
C64 N65 1.375 . S
C64 C67 1.350 . S
C64 H69 0.930 . S
N65 Co60 2.057 1_545 S
N65 C63 1.316 . S
N65 C64 1.375 . S
N66 C63 1.347 . S
N66 C67 1.373 . S
C67 C64 1.350 . S
C67 N66 1.373 . S
C67 H88 0.931 . S
H68 C63 0.931 . S
H69 C64 0.930 . S
C70 O77 1.259 . S
C70 O78 1.258 . S
N71 Co62 2.057 . S
N71 C72 1.316 . S
N71 C73 1.375 . S
C72 N71 1.316 . S
C72 N74 1.347 . S
C72 H83 0.931 . S
C73 N71 1.375 . S
C73 C75 1.350 . S
C73 H82 0.930 . S
N74 C72 1.347 . S
N74 C75 1.373 . S
C75 C73 1.350 . S
C75 N74 1.373 . S
C75 H89 0.931 . S
C76 O79 1.256 . S
C76 O80 1.255 . S
O77 Co60 2.021 . S
O77 C70 1.259 . S
O78 Co62 2.117 . S
O78 C70 1.258 . S
O79 Co62 2.020 . S
O79 C76 1.256 . S
O80 Co60 2.062 . S
O80 C76 1.255 . S
O81 C61 1.259 . S
O81 Co62 2.021 . S
H82 C73 0.930 . S
H83 C72 0.931 . S
O84 Co60 2.117 . S
O84 C61 1.258 . S
O85 Co60 2.020 . S
O85 C87 1.256 . S
O86 Co62 2.062 . S
O86 C87 1.255 . S
C87 O85 1.256 . S
C87 O86 1.255 . S
H88 C67 0.931 . S
H89 C75 0.931 . S
Co90 N95 2.057 1_545 S
Co90 O107 2.021 . S
Co90 O110 2.062 . S
Co90 O114 2.117 . S
Co90 O115 2.020 . S
C91 O111 1.259 . S
C91 O114 1.258 . S
Co92 N101 2.057 . S
Co92 O108 2.117 . S
Co92 O109 2.020 . S
Co92 O111 2.021 . S
Co92 O116 2.062 . S
C93 N95 1.316 . S
C93 N96 1.347 . S
C93 H98 0.931 . S
C94 N95 1.375 . S
C94 C97 1.350 . S
C94 H99 0.930 . S
N95 Co90 2.057 1_565 S
N95 C93 1.316 . S
N95 C94 1.375 . S
N96 C93 1.347 . S
N96 C97 1.373 . S
C97 C94 1.350 . S
C97 N96 1.373 . S
C97 H118 0.931 . S
H98 C93 0.931 . S
H99 C94 0.930 . S
C100 O107 1.259 . S
C100 O108 1.258 . S
N101 Co92 2.057 . S
N101 C102 1.316 . S
N101 C103 1.375 . S
C102 N101 1.316 . S
C102 N104 1.347 . S
C102 H113 0.931 . S
C103 N101 1.375 . S
C103 C105 1.350 . S
C103 H112 0.930 . S
N104 C102 1.347 . S
N104 C105 1.373 . S
C105 C103 1.350 . S
C105 N104 1.373 . S
C105 H119 0.931 . S
C106 O109 1.256 . S
C106 O110 1.255 . S
O107 Co90 2.021 . S
O107 C100 1.259 . S
O108 Co92 2.117 . S
O108 C100 1.258 . S
O109 Co92 2.020 . S
O109 C106 1.256 . S
O110 Co90 2.062 . S
O110 C106 1.255 . S
O111 C91 1.259 . S
O111 Co92 2.021 . S
H112 C103 0.930 . S
H113 C102 0.931 . S
O114 Co90 2.117 . S
O114 C91 1.258 . S
O115 Co90 2.020 . S
O115 C117 1.256 . S
O116 Co92 2.062 . S
O116 C117 1.255 . S
C117 O115 1.256 . S
C117 O116 1.255 . S
H118 C97 0.931 . S
H119 C105 0.931 . S
Co120 N125 2.057 1_655 S
Co120 O137 2.021 . S
Co120 O140 2.062 . S
Co120 O144 2.117 . S
Co120 O145 2.020 . S
C121 O141 1.259 . S
C121 O144 1.258 . S
Co122 N131 2.057 . S
Co122 O138 2.117 . S
Co122 O139 2.020 . S
Co122 O141 2.021 . S
Co122 O146 2.062 . S
C123 N125 1.316 . S
C123 N126 1.347 . S
C123 H128 0.931 . S
C124 N125 1.375 . S
C124 C127 1.350 . S
C124 H129 0.930 . S
N125 Co120 2.057 1_455 S
N125 C123 1.316 . S
N125 C124 1.375 . S
N126 C123 1.347 . S
N126 C127 1.373 . S
C127 C124 1.350 . S
C127 N126 1.373 . S
C127 H148 0.931 . S
H128 C123 0.931 . S
H129 C124 0.930 . S
C130 O137 1.259 . S
C130 O138 1.258 . S
N131 Co122 2.057 . S
N131 C132 1.316 . S
N131 C133 1.375 . S
C132 N131 1.316 . S
C132 N134 1.347 . S
C132 H143 0.931 . S
C133 N131 1.375 . S
C133 C135 1.350 . S
C133 H142 0.930 . S
N134 C132 1.347 . S
N134 C135 1.373 . S
C135 C133 1.350 . S
C135 N134 1.373 . S
C135 H149 0.931 . S
C136 O139 1.256 . S
C136 O140 1.255 . S
O137 Co120 2.021 . S
O137 C130 1.259 . S
O138 Co122 2.117 . S
O138 C130 1.258 . S
O139 Co122 2.020 . S
O139 C136 1.256 . S
O140 Co120 2.062 . S
O140 C136 1.255 . S
O141 C121 1.259 . S
O141 Co122 2.021 . S
H142 C133 0.930 . S
H143 C132 0.931 . S
O144 Co120 2.117 . S
O144 C121 1.258 . S
O145 Co120 2.020 . S
O145 C147 1.256 . S
O146 Co122 2.062 . S
O146 C147 1.255 . S
C147 O145 1.256 . S
C147 O146 1.255 . S
H148 C127 0.931 . S
H149 C135 0.931 . S
Co150 N155 2.057 . S
Co150 O167 2.021 . S
Co150 O170 2.062 . S
Co150 O174 2.117 . S
Co150 O175 2.020 . S
C151 O171 1.259 . S
C151 O174 1.258 . S
Co152 N161 2.057 . S
Co152 O168 2.117 . S
Co152 O169 2.020 . S
Co152 O171 2.021 . S
Co152 O176 2.062 . S
C153 N155 1.316 . S
C153 N156 1.347 . S
C153 H158 0.931 . S
C154 N155 1.375 . S
C154 C157 1.350 . S
C154 H159 0.930 . S
N155 Co150 2.057 . S
N155 C153 1.316 . S
N155 C154 1.375 . S
N156 C153 1.347 . S
N156 C157 1.373 . S
C157 C154 1.350 . S
C157 N156 1.373 . S
C157 H178 0.931 . S
H158 C153 0.931 . S
H159 C154 0.930 . S
C160 O167 1.259 . S
C160 O168 1.258 . S
N161 Co152 2.057 . S
N161 C162 1.316 . S
N161 C163 1.375 . S
C162 N161 1.316 . S
C162 N164 1.347 . S
C162 H173 0.931 . S
C163 N161 1.375 . S
C163 C165 1.350 . S
C163 H172 0.930 . S
N164 C162 1.347 . S
N164 C165 1.373 . S
C165 C163 1.350 . S
C165 N164 1.373 . S
C165 H179 0.931 . S
C166 O169 1.256 . S
C166 O170 1.255 . S
O167 Co150 2.021 . S
O167 C160 1.259 . S
O168 Co152 2.117 . S
O168 C160 1.258 . S
O169 Co152 2.020 . S
O169 C166 1.256 . S
O170 Co150 2.062 . S
O170 C166 1.255 . S
O171 C151 1.259 . S
O171 Co152 2.021 . S
H172 C163 0.930 . S
H173 C162 0.931 . S
O174 Co150 2.117 . S
O174 C151 1.258 . S
O175 Co150 2.020 . S
O175 C177 1.256 . S
O176 Co152 2.062 . S
O176 C177 1.255 . S
C177 O175 1.256 . S
C177 O176 1.255 . S
H178 C157 0.931 . S
H179 C165 0.931 . S
Co180 N185 2.057 . S
Co180 O197 2.021 . S
Co180 O200 2.062 . S
Co180 O204 2.117 . S
Co180 O205 2.020 . S
C181 O201 1.259 . S
C181 O204 1.258 . S
Co182 N191 2.057 1_655 S
Co182 O198 2.117 . S
Co182 O199 2.020 . S
Co182 O201 2.021 . S
Co182 O206 2.062 . S
C183 N185 1.316 . S
C183 N186 1.347 . S
C183 H188 0.931 . S
C184 N185 1.375 . S
C184 C187 1.350 . S
C184 H189 0.930 . S
N185 Co180 2.057 . S
N185 C183 1.316 . S
N185 C184 1.375 . S
N186 C183 1.347 . S
N186 C187 1.373 . S
C187 C184 1.350 . S
C187 N186 1.373 . S
C187 H208 0.931 . S
H188 C183 0.931 . S
H189 C184 0.930 . S
C190 O197 1.259 . S
C190 O198 1.258 . S
N191 Co182 2.057 1_455 S
N191 C192 1.316 . S
N191 C193 1.375 . S
C192 N191 1.316 . S
C192 N194 1.347 . S
C192 H203 0.931 . S
C193 N191 1.375 . S
C193 C195 1.350 . S
C193 H202 0.930 . S
N194 C192 1.347 . S
N194 C195 1.373 . S
C195 C193 1.350 . S
C195 N194 1.373 . S
C195 H209 0.931 . S
C196 O199 1.256 . S
C196 O200 1.255 . S
O197 Co180 2.021 . S
O197 C190 1.259 . S
O198 Co182 2.117 . S
O198 C190 1.258 . S
O199 Co182 2.020 . S
O199 C196 1.256 . S
O200 Co180 2.062 . S
O200 C196 1.255 . S
O201 C181 1.259 . S
O201 Co182 2.021 . S
H202 C193 0.930 . S
H203 C192 0.931 . S
O204 Co180 2.117 . S
O204 C181 1.258 . S
O205 Co180 2.020 . S
O205 C207 1.256 . S
O206 Co182 2.062 . S
O206 C207 1.255 . S
C207 O205 1.256 . S
C207 O206 1.255 . S
H208 C187 0.931 . S
H209 C195 0.931 . S
Co210 N215 2.057 . S
Co210 O227 2.021 . S
Co210 O230 2.062 . S
Co210 O234 2.117 . S
Co210 O235 2.020 . S
C211 O231 1.259 . S
C211 O234 1.258 . S
Co212 N221 2.057 . S
Co212 O228 2.117 . S
Co212 O229 2.020 . S
Co212 O231 2.021 . S
Co212 O236 2.062 . S
C213 N215 1.316 . S
C213 N216 1.347 . S
C213 H218 0.931 . S
C214 N215 1.375 . S
C214 C217 1.350 . S
C214 H219 0.930 . S
N215 Co210 2.057 . S
N215 C213 1.316 . S
N215 C214 1.375 . S
N216 C213 1.347 . S
N216 C217 1.373 . S
C217 C214 1.350 . S
C217 N216 1.373 . S
C217 H238 0.931 . S
H218 C213 0.931 . S
H219 C214 0.930 . S
C220 O227 1.259 . S
C220 O228 1.258 . S
N221 Co212 2.057 . S
N221 C222 1.316 . S
N221 C223 1.375 . S
C222 N221 1.316 . S
C222 N224 1.347 . S
C222 H233 0.931 . S
C223 N221 1.375 . S
C223 C225 1.350 . S
C223 H232 0.930 . S
N224 C222 1.347 . S
N224 C225 1.373 . S
C225 C223 1.350 . S
C225 N224 1.373 . S
C225 H239 0.931 . S
C226 O229 1.256 . S
C226 O230 1.255 . S
O227 Co210 2.021 . S
O227 C220 1.259 . S
O228 Co212 2.117 . S
O228 C220 1.258 . S
O229 Co212 2.020 . S
O229 C226 1.256 . S
O230 Co210 2.062 . S
O230 C226 1.255 . S
O231 C211 1.259 . S
O231 Co212 2.021 . S
H232 C223 0.930 . S
H233 C222 0.931 . S
O234 Co210 2.117 . S
O234 C211 1.258 . S
O235 Co210 2.020 . S
O235 C237 1.256 . S
O236 Co212 2.062 . S
O236 C237 1.255 . S
C237 O235 1.256 . S
C237 O236 1.255 . S
H238 C217 0.931 . S
H239 C225 0.931 . S
Co240 N245 2.057 . S
Co240 O257 2.021 . S
Co240 O260 2.062 . S
Co240 O264 2.117 . S
Co240 O265 2.020 . S
C241 O261 1.259 . S
C241 O264 1.258 . S
Co242 N251 2.057 1_545 S
Co242 O258 2.117 . S
Co242 O259 2.020 . S
Co242 O261 2.021 . S
Co242 O266 2.062 . S
C243 N245 1.316 . S
C243 N246 1.347 . S
C243 H248 0.931 . S
C244 N245 1.375 . S
C244 C247 1.350 . S
C244 H249 0.930 . S
N245 Co240 2.057 . S
N245 C243 1.316 . S
N245 C244 1.375 . S
N246 C243 1.347 . S
N246 C247 1.373 . S
C247 C244 1.350 . S
C247 N246 1.373 . S
C247 H268 0.931 . S
H248 C243 0.931 . S
H249 C244 0.930 . S
C250 O257 1.259 . S
C250 O258 1.258 . S
N251 Co242 2.057 1_565 S
N251 C252 1.316 . S
N251 C253 1.375 . S
C252 N251 1.316 . S
C252 N254 1.347 . S
C252 H263 0.931 . S
C253 N251 1.375 . S
C253 C255 1.350 . S
C253 H262 0.930 . S
N254 C252 1.347 . S
N254 C255 1.373 . S
C255 C253 1.350 . S
C255 N254 1.373 . S
C255 H269 0.931 . S
C256 O259 1.256 . S
C256 O260 1.255 . S
O257 Co240 2.021 . S
O257 C250 1.259 . S
O258 Co242 2.117 . S
O258 C250 1.258 . S
O259 Co242 2.020 . S
O259 C256 1.256 . S
O260 Co240 2.062 . S
O260 C256 1.255 . S
O261 C241 1.259 . S
O261 Co242 2.021 . S
H262 C253 0.930 . S
H263 C252 0.931 . S
O264 Co240 2.117 . S
O264 C241 1.258 . S
O265 Co240 2.020 . S
O265 C267 1.256 . S
O266 Co242 2.062 . S
O266 C267 1.255 . S
C267 O265 1.256 . S
C267 O266 1.255 . S
H268 C247 0.931 . S
H269 C255 0.931 . S
Co270 N275 2.057 . S
Co270 O287 2.021 . S
Co270 O290 2.062 . S
Co270 O294 2.117 . S
Co270 O295 2.020 . S
C271 O291 1.259 . S
C271 O294 1.258 . S
Co272 N281 2.057 1_565 S
Co272 O288 2.117 . S
Co272 O289 2.020 . S
Co272 O291 2.021 . S
Co272 O296 2.062 . S
C273 N275 1.316 . S
C273 N276 1.347 . S
C273 H278 0.931 . S
C274 N275 1.375 . S
C274 C277 1.350 . S
C274 H279 0.930 . S
N275 Co270 2.057 . S
N275 C273 1.316 . S
N275 C274 1.375 . S
N276 C273 1.347 . S
N276 C277 1.373 . S
C277 C274 1.350 . S
C277 N276 1.373 . S
C277 H298 0.931 . S
H278 C273 0.931 . S
H279 C274 0.930 . S
C280 O287 1.259 . S
C280 O288 1.258 . S
N281 Co272 2.057 1_545 S
N281 C282 1.316 . S
N281 C283 1.375 . S
C282 N281 1.316 . S
C282 N284 1.347 . S
C282 H293 0.931 . S
C283 N281 1.375 . S
C283 C285 1.350 . S
C283 H292 0.930 . S
N284 C282 1.347 . S
N284 C285 1.373 . S
C285 C283 1.350 . S
C285 N284 1.373 . S
C285 H299 0.931 . S
C286 O289 1.256 . S
C286 O290 1.255 . S
O287 Co270 2.021 . S
O287 C280 1.259 . S
O288 Co272 2.117 . S
O288 C280 1.258 . S
O289 Co272 2.020 . S
O289 C286 1.256 . S
O290 Co270 2.062 . S
O290 C286 1.255 . S
O291 C271 1.259 . S
O291 Co272 2.021 . S
H292 C283 0.930 . S
H293 C282 0.931 . S
O294 Co270 2.117 . S
O294 C271 1.258 . S
O295 Co270 2.020 . S
O295 C297 1.256 . S
O296 Co272 2.062 . S
O296 C297 1.255 . S
C297 O295 1.256 . S
C297 O296 1.255 . S
H298 C277 0.931 . S
H299 C285 0.931 . S
Co300 N305 2.057 . S
Co300 O317 2.021 . S
Co300 O320 2.062 . S
Co300 O324 2.117 . S
Co300 O325 2.020 . S
C301 O321 1.259 . S
C301 O324 1.258 . S
Co302 N311 2.057 1_455 S
Co302 O318 2.117 . S
Co302 O319 2.020 . S
Co302 O321 2.021 . S
Co302 O326 2.062 . S
C303 N305 1.316 . S
C303 N306 1.347 . S
C303 H308 0.931 . S
C304 N305 1.375 . S
C304 C307 1.350 . S
C304 H309 0.930 . S
N305 Co300 2.057 . S
N305 C303 1.316 . S
N305 C304 1.375 . S
N306 C303 1.347 . S
N306 C307 1.373 . S
C307 C304 1.350 . S
C307 N306 1.373 . S
C307 H328 0.931 . S
H308 C303 0.931 . S
H309 C304 0.930 . S
C310 O317 1.259 . S
C310 O318 1.258 . S
N311 Co302 2.057 1_655 S
N311 C312 1.316 . S
N311 C313 1.375 . S
C312 N311 1.316 . S
C312 N314 1.347 . S
C312 H323 0.931 . S
C313 N311 1.375 . S
C313 C315 1.350 . S
C313 H322 0.930 . S
N314 C312 1.347 . S
N314 C315 1.373 . S
C315 C313 1.350 . S
C315 N314 1.373 . S
C315 H329 0.931 . S
C316 O319 1.256 . S
C316 O320 1.255 . S
O317 Co300 2.021 . S
O317 C310 1.259 . S
O318 Co302 2.117 . S
O318 C310 1.258 . S
O319 Co302 2.020 . S
O319 C316 1.256 . S
O320 Co300 2.062 . S
O320 C316 1.255 . S
O321 C301 1.259 . S
O321 Co302 2.021 . S
H322 C313 0.930 . S
H323 C312 0.931 . S
O324 Co300 2.117 . S
O324 C301 1.258 . S
O325 Co300 2.020 . S
O325 C327 1.256 . S
O326 Co302 2.062 . S
O326 C327 1.255 . S
C327 O325 1.256 . S
C327 O326 1.255 . S
H328 C307 0.931 . S
H329 C315 0.931 . S
Co330 N335 2.057 . S
Co330 O347 2.021 . S
Co330 O350 2.062 . S
Co330 O354 2.117 . S
Co330 O355 2.020 . S
C331 O351 1.259 . S
C331 O354 1.258 . S
Co332 N341 2.057 . S
Co332 O348 2.117 . S
Co332 O349 2.020 . S
Co332 O351 2.021 . S
Co332 O356 2.062 . S
C333 N335 1.316 . S
C333 N336 1.347 . S
C333 H338 0.931 . S
C334 N335 1.375 . S
C334 C337 1.350 . S
C334 H339 0.930 . S
N335 Co330 2.057 . S
N335 C333 1.316 . S
N335 C334 1.375 . S
N336 C333 1.347 . S
N336 C337 1.373 . S
C337 C334 1.350 . S
C337 N336 1.373 . S
C337 H358 0.931 . S
H338 C333 0.931 . S
H339 C334 0.930 . S
C340 O347 1.259 . S
C340 O348 1.258 . S
N341 Co332 2.057 . S
N341 C342 1.316 . S
N341 C343 1.375 . S
C342 N341 1.316 . S
C342 N344 1.347 . S
C342 H353 0.931 . S
C343 N341 1.375 . S
C343 C345 1.350 . S
C343 H352 0.930 . S
N344 C342 1.347 . S
N344 C345 1.373 . S
C345 C343 1.350 . S
C345 N344 1.373 . S
C345 H359 0.931 . S
C346 O349 1.256 . S
C346 O350 1.255 . S
O347 Co330 2.021 . S
O347 C340 1.259 . S
O348 Co332 2.117 . S
O348 C340 1.258 . S
O349 Co332 2.020 . S
O349 C346 1.256 . S
O350 Co330 2.062 . S
O350 C346 1.255 . S
O351 C331 1.259 . S
O351 Co332 2.021 . S
H352 C343 0.930 . S
H353 C342 0.931 . S
O354 Co330 2.117 . S
O354 C331 1.258 . S
O355 Co330 2.020 . S
O355 C357 1.256 . S
O356 Co332 2.062 . S
O356 C357 1.255 . S
C357 O355 1.256 . S
C357 O356 1.255 . S
H358 C337 0.931 . S
H359 C345 0.931 . S
Co360 N365 2.057 . S
Co360 O377 2.021 . S
Co360 O380 2.062 . S
Co360 O384 2.117 . S
Co360 O385 2.020 . S
C361 O381 1.259 . S
C361 O384 1.258 . S
Co362 N371 2.057 . S
Co362 O378 2.117 . S
Co362 O379 2.020 . S
Co362 O381 2.021 . S
Co362 O386 2.062 . S
C363 N365 1.316 . S
C363 N366 1.347 . S
C363 H368 0.931 . S
C364 N365 1.375 . S
C364 C367 1.350 . S
C364 H369 0.930 . S
N365 Co360 2.057 . S
N365 C363 1.316 . S
N365 C364 1.375 . S
N366 C363 1.347 . S
N366 C367 1.373 . S
C367 C364 1.350 . S
C367 N366 1.373 . S
C367 H388 0.931 . S
H368 C363 0.931 . S
H369 C364 0.930 . S
C370 O377 1.259 . S
C370 O378 1.258 . S
N371 Co362 2.057 . S
N371 C372 1.316 . S
N371 C373 1.375 . S
C372 N371 1.316 . S
C372 N374 1.347 . S
C372 H383 0.931 . S
C373 N371 1.375 . S
C373 C375 1.350 . S
C373 H382 0.930 . S
N374 C372 1.347 . S
N374 C375 1.373 . S
C375 C373 1.350 . S
C375 N374 1.373 . S
C375 H389 0.931 . S
C376 O379 1.256 . S
C376 O380 1.255 . S
O377 Co360 2.021 . S
O377 C370 1.259 . S
O378 Co362 2.117 . S
O378 C370 1.258 . S
O379 Co362 2.020 . S
O379 C376 1.256 . S
O380 Co360 2.062 . S
O380 C376 1.255 . S
O381 C361 1.259 . S
O381 Co362 2.021 . S
H382 C373 0.930 . S
H383 C372 0.931 . S
O384 Co360 2.117 . S
O384 C361 1.258 . S
O385 Co360 2.020 . S
O385 C387 1.256 . S
O386 Co362 2.062 . S
O386 C387 1.255 . S
C387 O385 1.256 . S
C387 O386 1.255 . S
H388 C367 0.931 . S
H389 C375 0.931 . S
Co390 N395 2.057 . S
Co390 O407 2.021 . S
Co390 O410 2.062 . S
Co390 O414 2.117 . S
Co390 O415 2.020 . S
C391 O411 1.259 . S
C391 O414 1.258 . S
Co392 N401 2.057 . S
Co392 O408 2.117 . S
Co392 O409 2.020 . S
Co392 O411 2.021 . S
Co392 O416 2.062 . S
C393 N395 1.316 . S
C393 N396 1.347 . S
C393 H398 0.931 . S
C394 N395 1.375 . S
C394 C397 1.350 . S
C394 H399 0.930 . S
N395 Co390 2.057 . S
N395 C393 1.316 . S
N395 C394 1.375 . S
N396 C393 1.347 . S
N396 C397 1.373 . S
C397 C394 1.350 . S
C397 N396 1.373 . S
C397 H418 0.931 . S
H398 C393 0.931 . S
H399 C394 0.930 . S
C400 O407 1.259 . S
C400 O408 1.258 . S
N401 Co392 2.057 . S
N401 C402 1.316 . S
N401 C403 1.375 . S
C402 N401 1.316 . S
C402 N404 1.347 . S
C402 H413 0.931 . S
C403 N401 1.375 . S
C403 C405 1.350 . S
C403 H412 0.930 . S
N404 C402 1.347 . S
N404 C405 1.373 . S
C405 C403 1.350 . S
C405 N404 1.373 . S
C405 H419 0.931 . S
C406 O409 1.256 . S
C406 O410 1.255 . S
O407 Co390 2.021 . S
O407 C400 1.259 . S
O408 Co392 2.117 . S
O408 C400 1.258 . S
O409 Co392 2.020 . S
O409 C406 1.256 . S
O410 Co390 2.062 . S
O410 C406 1.255 . S
O411 C391 1.259 . S
O411 Co392 2.021 . S
H412 C403 0.930 . S
H413 C402 0.931 . S
O414 Co390 2.117 . S
O414 C391 1.258 . S
O415 Co390 2.020 . S
O415 C417 1.256 . S
O416 Co392 2.062 . S
O416 C417 1.255 . S
C417 O415 1.256 . S
C417 O416 1.255 . S
H418 C397 0.931 . S
H419 C405 0.931 . S
Co420 N425 2.057 . S
Co420 O437 2.021 . S
Co420 O440 2.062 . S
Co420 O444 2.117 . S
Co420 O445 2.020 . S
C421 O441 1.259 . S
C421 O444 1.258 . S
Co422 N431 2.057 . S
Co422 O438 2.117 . S
Co422 O439 2.020 . S
Co422 O441 2.021 . S
Co422 O446 2.062 . S
C423 N425 1.316 . S
C423 N426 1.347 . S
C423 H428 0.931 . S
C424 N425 1.375 . S
C424 C427 1.350 . S
C424 H429 0.930 . S
N425 Co420 2.057 . S
N425 C423 1.316 . S
N425 C424 1.375 . S
N426 C423 1.347 . S
N426 C427 1.373 . S
C427 C424 1.350 . S
C427 N426 1.373 . S
C427 H448 0.931 . S
H428 C423 0.931 . S
H429 C424 0.930 . S
C430 O437 1.259 . S
C430 O438 1.258 . S
N431 Co422 2.057 . S
N431 C432 1.316 . S
N431 C433 1.375 . S
C432 N431 1.316 . S
C432 N434 1.347 . S
C432 H443 0.931 . S
C433 N431 1.375 . S
C433 C435 1.350 . S
C433 H442 0.930 . S
N434 C432 1.347 . S
N434 C435 1.373 . S
C435 C433 1.350 . S
C435 N434 1.373 . S
C435 H449 0.931 . S
C436 O439 1.256 . S
C436 O440 1.255 . S
O437 Co420 2.021 . S
O437 C430 1.259 . S
O438 Co422 2.117 . S
O438 C430 1.258 . S
O439 Co422 2.020 . S
O439 C436 1.256 . S
O440 Co420 2.062 . S
O440 C436 1.255 . S
O441 C421 1.259 . S
O441 Co422 2.021 . S
H442 C433 0.930 . S
H443 C432 0.931 . S
O444 Co420 2.117 . S
O444 C421 1.258 . S
O445 Co420 2.020 . S
O445 C447 1.256 . S
O446 Co422 2.062 . S
O446 C447 1.255 . S
C447 O445 1.256 . S
C447 O446 1.255 . S
H448 C427 0.931 . S
H449 C435 0.931 . S
Co450 N455 2.057 . S
Co450 O467 2.021 . S
Co450 O470 2.062 . S
Co450 O474 2.117 . S
Co450 O475 2.020 . S
C451 O471 1.259 . S
C451 O474 1.258 . S
Co452 N461 2.057 . S
Co452 O468 2.117 . S
Co452 O469 2.020 . S
Co452 O471 2.021 . S
Co452 O476 2.062 . S
C453 N455 1.316 . S
C453 N456 1.347 . S
C453 H458 0.931 . S
C454 N455 1.375 . S
C454 C457 1.350 . S
C454 H459 0.930 . S
N455 Co450 2.057 . S
N455 C453 1.316 . S
N455 C454 1.375 . S
N456 C453 1.347 . S
N456 C457 1.373 . S
C457 C454 1.350 . S
C457 N456 1.373 . S
C457 H478 0.931 . S
H458 C453 0.931 . S
H459 C454 0.930 . S
C460 O467 1.259 . S
C460 O468 1.258 . S
N461 Co452 2.057 . S
N461 C462 1.316 1_655 S
N461 C463 1.375 . S
C462 N461 1.316 1_455 S
C462 N464 1.347 . S
C462 H473 0.931 . S
C463 N461 1.375 . S
C463 C465 1.350 1_655 S
C463 H472 0.930 . S
N464 C462 1.347 . S
N464 C465 1.373 . S
C465 C463 1.350 1_455 S
C465 N464 1.373 . S
C465 H479 0.931 . S
C466 O469 1.256 . S
C466 O470 1.255 . S
O467 Co450 2.021 . S
O467 C460 1.259 . S
O468 Co452 2.117 . S
O468 C460 1.258 . S
O469 Co452 2.020 . S
O469 C466 1.256 . S
O470 Co450 2.062 . S
O470 C466 1.255 . S
O471 C451 1.259 . S
O471 Co452 2.021 . S
H472 C463 0.930 . S
H473 C462 0.931 . S
O474 Co450 2.117 . S
O474 C451 1.258 . S
O475 Co450 2.020 . S
O475 C477 1.256 . S
O476 Co452 2.062 . S
O476 C477 1.255 . S
C477 O475 1.256 . S
C477 O476 1.255 . S
H478 C457 0.931 . S
H479 C465 0.931 . S
Co480 N485 2.057 . S
Co480 O497 2.021 . S
Co480 O500 2.062 . S
Co480 O504 2.117 . S
Co480 O505 2.020 . S
C481 O501 1.259 . S
C481 O504 1.258 . S
Co482 N491 2.057 . S
Co482 O498 2.117 . S
Co482 O499 2.020 . S
Co482 O501 2.021 . S
Co482 O506 2.062 . S
C483 N485 1.316 . S
C483 N486 1.347 . S
C483 H488 0.931 . S
C484 N485 1.375 . S
C484 C487 1.350 . S
C484 H489 0.930 . S
N485 Co480 2.057 . S
N485 C483 1.316 . S
N485 C484 1.375 . S
N486 C483 1.347 . S
N486 C487 1.373 . S
C487 C484 1.350 . S
C487 N486 1.373 . S
C487 H508 0.931 . S
H488 C483 0.931 . S
H489 C484 0.930 . S
C490 O497 1.259 . S
C490 O498 1.258 . S
N491 Co482 2.057 . S
N491 C492 1.316 . S
N491 C493 1.375 . S
C492 N491 1.316 . S
C492 N494 1.347 . S
C492 H503 0.931 . S
C493 N491 1.375 . S
C493 C495 1.350 . S
C493 H502 0.930 . S
N494 C492 1.347 . S
N494 C495 1.373 . S
C495 C493 1.350 . S
C495 N494 1.373 . S
C495 H509 0.931 . S
C496 O499 1.256 . S
C496 O500 1.255 . S
O497 Co480 2.021 . S
O497 C490 1.259 . S
O498 Co482 2.117 . S
O498 C490 1.258 . S
O499 Co482 2.020 . S
O499 C496 1.256 . S
O500 Co480 2.062 . S
O500 C496 1.255 . S
O501 C481 1.259 . S
O501 Co482 2.021 . S
H502 C493 0.930 . S
H503 C492 0.931 . S
O504 Co480 2.117 . S
O504 C481 1.258 . S
O505 Co480 2.020 . S
O505 C507 1.256 . S
O506 Co482 2.062 . S
O506 C507 1.255 . S
C507 O505 1.256 . S
C507 O506 1.255 . S
H508 C487 0.931 . S
H509 C495 0.931 . S
Co510 N515 2.057 . S
Co510 O527 2.021 . S
Co510 O530 2.062 . S
Co510 O534 2.117 . S
Co510 O535 2.020 . S
C511 O531 1.259 . S
C511 O534 1.258 . S
Co512 N521 2.057 . S
Co512 O528 2.117 . S
Co512 O529 2.020 . S
Co512 O531 2.021 . S
Co512 O536 2.062 . S
C513 N515 1.316 . S
C513 N516 1.347 . S
C513 H518 0.931 . S
C514 N515 1.375 . S
C514 C517 1.350 . S
C514 H519 0.930 . S
N515 Co510 2.057 . S
N515 C513 1.316 . S
N515 C514 1.375 . S
N516 C513 1.347 . S
N516 C517 1.373 . S
C517 C514 1.350 . S
C517 N516 1.373 . S
C517 H538 0.931 . S
H518 C513 0.931 . S
H519 C514 0.930 . S
C520 O527 1.259 . S
C520 O528 1.258 . S
N521 Co512 2.057 . S
N521 C522 1.316 1_545 S
N521 C523 1.375 . S
C522 N521 1.316 1_565 S
C522 N524 1.347 . S
C522 H533 0.931 . S
C523 N521 1.375 . S
C523 C525 1.350 1_545 S
C523 H532 0.930 . S
N524 C522 1.347 . S
N524 C525 1.373 . S
C525 C523 1.350 1_565 S
C525 N524 1.373 . S
C525 H539 0.931 . S
C526 O529 1.256 . S
C526 O530 1.255 . S
O527 Co510 2.021 . S
O527 C520 1.259 . S
O528 Co512 2.117 . S
O528 C520 1.258 . S
O529 Co512 2.020 . S
O529 C526 1.256 . S
O530 Co510 2.062 . S
O530 C526 1.255 . S
O531 C511 1.259 . S
O531 Co512 2.021 . S
H532 C523 0.930 . S
H533 C522 0.931 . S
O534 Co510 2.117 . S
O534 C511 1.258 . S
O535 Co510 2.020 . S
O535 C537 1.256 . S
O536 Co512 2.062 . S
O536 C537 1.255 . S
C537 O535 1.256 . S
C537 O536 1.255 . S
H538 C517 0.931 . S
H539 C525 0.931 . S
Co540 N545 2.057 . S
Co540 O557 2.021 . S
Co540 O560 2.062 . S
Co540 O564 2.117 . S
Co540 O565 2.020 . S
C541 O561 1.259 . S
C541 O564 1.258 . S
Co542 N551 2.057 . S
Co542 O558 2.117 . S
Co542 O559 2.020 . S
Co542 O561 2.021 . S
Co542 O566 2.062 . S
C543 N545 1.316 1_565 S
C543 N546 1.347 . S
C543 H548 0.931 . S
C544 N545 1.375 . S
C544 C547 1.350 1_545 S
C544 H549 0.930 . S
N545 Co540 2.057 . S
N545 C543 1.316 1_545 S
N545 C544 1.375 . S
N546 C543 1.347 . S
N546 C547 1.373 . S
C547 C544 1.350 1_565 S
C547 N546 1.373 . S
C547 H568 0.931 . S
H548 C543 0.931 . S
H549 C544 0.930 . S
C550 O557 1.259 . S
C550 O558 1.258 . S
N551 Co542 2.057 . S
N551 C552 1.316 . S
N551 C553 1.375 . S
C552 N551 1.316 . S
C552 N554 1.347 . S
C552 H563 0.931 . S
C553 N551 1.375 . S
C553 C555 1.350 . S
C553 H562 0.930 . S
N554 C552 1.347 . S
N554 C555 1.373 . S
C555 C553 1.350 . S
C555 N554 1.373 . S
C555 H569 0.931 . S
C556 O559 1.256 . S
C556 O560 1.255 . S
O557 Co540 2.021 . S
O557 C550 1.259 . S
O558 Co542 2.117 . S
O558 C550 1.258 . S
O559 Co542 2.020 . S
O559 C556 1.256 . S
O560 Co540 2.062 . S
O560 C556 1.255 . S
O561 C541 1.259 . S
O561 Co542 2.021 . S
H562 C553 0.930 . S
H563 C552 0.931 . S
O564 Co540 2.117 . S
O564 C541 1.258 . S
O565 Co540 2.020 . S
O565 C567 1.256 . S
O566 Co542 2.062 . S
O566 C567 1.255 . S
C567 O565 1.256 . S
C567 O566 1.255 . S
H568 C547 0.931 . S
H569 C555 0.931 . S
Co570 N575 2.057 . S
Co570 O587 2.021 . S
Co570 O590 2.062 . S
Co570 O594 2.117 . S
Co570 O595 2.020 . S
C571 O591 1.259 . S
C571 O594 1.258 . S
Co572 N581 2.057 . S
Co572 O588 2.117 . S
Co572 O589 2.020 . S
Co572 O591 2.021 . S
Co572 O596 2.062 . S
C573 N575 1.316 1_455 S
C573 N576 1.347 . S
C573 H578 0.931 . S
C574 N575 1.375 . S
C574 C577 1.350 1_655 S
C574 H579 0.930 . S
N575 Co570 2.057 . S
N575 C573 1.316 1_655 S
N575 C574 1.375 . S
N576 C573 1.347 . S
N576 C577 1.373 . S
C577 C574 1.350 1_455 S
C577 N576 1.373 . S
C577 H598 0.931 . S
H578 C573 0.931 . S
H579 C574 0.930 . S
C580 O587 1.259 . S
C580 O588 1.258 . S
N581 Co572 2.057 . S
N581 C582 1.316 . S
N581 C583 1.375 . S
C582 N581 1.316 . S
C582 N584 1.347 . S
C582 H593 0.931 . S
C583 N581 1.375 . S
C583 C585 1.350 . S
C583 H592 0.930 . S
N584 C582 1.347 . S
N584 C585 1.373 . S
C585 C583 1.350 . S
C585 N584 1.373 . S
C585 H599 0.931 . S
C586 O589 1.256 . S
C586 O590 1.255 . S
O587 Co570 2.021 . S
O587 C580 1.259 . S
O588 Co572 2.117 . S
O588 C580 1.258 . S
O589 Co572 2.020 . S
O589 C586 1.256 . S
O590 Co570 2.062 . S
O590 C586 1.255 . S
O591 C571 1.259 . S
O591 Co572 2.021 . S
H592 C583 0.930 . S
H593 C582 0.931 . S
O594 Co570 2.117 . S
O594 C571 1.258 . S
O595 Co570 2.020 . S
O595 C597 1.256 . S
O596 Co572 2.062 . S
O596 C597 1.255 . S
C597 O595 1.256 . S
C597 O596 1.255 . S
H598 C577 0.931 . S
H599 C585 0.931 . S
Co600 N605 2.057 . S
Co600 O617 2.021 . S
Co600 O620 2.062 . S
Co600 O624 2.117 . S
Co600 O625 2.020 . S
C601 O621 1.259 . S
C601 O624 1.258 . S
Co602 N611 2.057 . S
Co602 O618 2.117 . S
Co602 O619 2.020 . S
Co602 O621 2.021 . S
Co602 O626 2.062 . S
C603 N605 1.316 . S
C603 N606 1.347 . S
C603 H608 0.931 . S
C604 N605 1.375 . S
C604 C607 1.350 . S
C604 H609 0.930 . S
N605 Co600 2.057 . S
N605 C603 1.316 . S
N605 C604 1.375 . S
N606 C603 1.347 . S
N606 C607 1.373 . S
C607 C604 1.350 . S
C607 N606 1.373 . S
C607 H628 0.931 . S
H608 C603 0.931 . S
H609 C604 0.930 . S
C610 O617 1.259 . S
C610 O618 1.258 . S
N611 Co602 2.057 . S
N611 C612 1.316 . S
N611 C613 1.375 . S
C612 N611 1.316 . S
C612 N614 1.347 . S
C612 H623 0.931 . S
C613 N611 1.375 . S
C613 C615 1.350 . S
C613 H622 0.930 . S
N614 C612 1.347 . S
N614 C615 1.373 . S
C615 C613 1.350 . S
C615 N614 1.373 . S
C615 H629 0.931 . S
C616 O619 1.256 . S
C616 O620 1.255 . S
O617 Co600 2.021 . S
O617 C610 1.259 . S
O618 Co602 2.117 . S
O618 C610 1.258 . S
O619 Co602 2.020 . S
O619 C616 1.256 . S
O620 Co600 2.062 . S
O620 C616 1.255 . S
O621 C601 1.259 . S
O621 Co602 2.021 . S
H622 C613 0.930 . S
H623 C612 0.931 . S
O624 Co600 2.117 . S
O624 C601 1.258 . S
O625 Co600 2.020 . S
O625 C627 1.256 . S
O626 Co602 2.062 . S
O626 C627 1.255 . S
C627 O625 1.256 . S
C627 O626 1.255 . S
H628 C607 0.931 . S
H629 C615 0.931 . S
Co630 N635 2.057 . S
Co630 O647 2.021 . S
Co630 O650 2.062 1_554 S
Co630 O654 2.123 . S
Co630 O655 2.020 . S
C631 O651 1.259 . S
C631 O654 1.251 1_556 S
Co632 N641 2.057 . S
Co632 O648 2.117 . S
Co632 O649 2.020 . S
Co632 O651 2.021 . S
Co632 O656 2.062 1_556 S
C633 N635 1.316 . S
C633 N636 1.347 . S
C633 H638 0.931 . S
C634 N635 1.375 . S
C634 C637 1.350 . S
C634 H639 0.930 . S
N635 Co630 2.057 . S
N635 C633 1.316 . S
N635 C634 1.375 . S
N636 C633 1.347 . S
N636 C637 1.373 . S
C637 C634 1.350 . S
C637 N636 1.373 . S
C637 H658 0.931 . S
H638 C633 0.931 . S
H639 C634 0.930 . S
C640 O647 1.260 . S
C640 O648 1.258 1_554 S
N641 Co632 2.057 . S
N641 C642 1.316 . S
N641 C643 1.375 . S
C642 N641 1.316 . S
C642 N644 1.347 . S
C642 H653 0.931 . S
C643 N641 1.375 . S
C643 C645 1.350 . S
C643 H652 0.930 . S
N644 C642 1.347 . S
N644 C645 1.373 . S
C645 C643 1.350 . S
C645 N644 1.373 . S
C645 H659 0.931 . S
C646 O649 1.256 . S
C646 O650 1.255 . S
O647 Co630 2.021 . S
O647 C640 1.260 . S
O648 Co632 2.117 . S
O648 C640 1.258 1_556 S
O649 Co632 2.020 . S
O649 C646 1.256 . S
O650 Co630 2.062 1_556 S
O650 C646 1.255 . S
O651 C631 1.259 . S
O651 Co632 2.021 . S
H652 C643 0.930 . S
H653 C642 0.931 . S
O654 Co630 2.123 . S
O654 C631 1.251 1_554 S
O655 Co630 2.020 . S
O655 C657 1.256 . S
O656 Co632 2.062 1_554 S
O656 C657 1.255 . S
C657 O655 1.256 . S
C657 O656 1.255 . S
H658 C637 0.931 . S
H659 C645 0.931 . S
Co660 N665 2.057 . S
Co660 O677 2.021 . S
Co660 O680 2.062 1_554 S
Co660 O684 2.123 . S
Co660 O685 2.020 . S
C661 O681 1.259 . S
C661 O684 1.250 1_556 S
Co662 N671 2.057 . S
Co662 O678 2.117 . S
Co662 O679 2.020 . S
Co662 O681 2.021 . S
Co662 O686 2.062 1_556 S
C663 N665 1.316 . S
C663 N666 1.347 . S
C663 H668 0.931 . S
C664 N665 1.375 . S
C664 C667 1.350 . S
C664 H669 0.930 . S
N665 Co660 2.057 . S
N665 C663 1.316 . S
N665 C664 1.375 . S
N666 C663 1.347 . S
N666 C667 1.373 . S
C667 C664 1.350 . S
C667 N666 1.373 . S
C667 H688 0.931 . S
H668 C663 0.931 . S
H669 C664 0.930 . S
C670 O677 1.260 . S
C670 O678 1.258 1_554 S
N671 Co662 2.057 . S
N671 C672 1.316 . S
N671 C673 1.375 . S
C672 N671 1.316 . S
C672 N674 1.347 . S
C672 H683 0.931 . S
C673 N671 1.375 . S
C673 C675 1.350 . S
C673 H682 0.930 . S
N674 C672 1.347 . S
N674 C675 1.373 . S
C675 C673 1.350 . S
C675 N674 1.373 . S
C675 H689 0.931 . S
C676 O679 1.256 . S
C676 O680 1.255 . S
O677 Co660 2.021 . S
O677 C670 1.260 . S
O678 Co662 2.117 . S
O678 C670 1.258 1_556 S
O679 Co662 2.020 . S
O679 C676 1.256 . S
O680 Co660 2.062 1_556 S
O680 C676 1.255 . S
O681 C661 1.259 . S
O681 Co662 2.021 . S
H682 C673 0.930 . S
H683 C672 0.931 . S
O684 Co660 2.123 . S
O684 C661 1.250 1_554 S
O685 Co660 2.020 . S
O685 C687 1.256 . S
O686 Co662 2.062 1_554 S
O686 C687 1.255 . S
C687 O685 1.256 . S
C687 O686 1.255 . S
H688 C667 0.931 . S
H689 C675 0.931 . S
Co690 N695 2.057 . S
Co690 O707 2.021 . S
Co690 O710 2.062 1_554 S
Co690 O714 2.123 . S
Co690 O715 2.020 . S
C691 O711 1.259 . S
C691 O714 1.250 1_556 S
Co692 N701 2.057 . S
Co692 O708 2.117 . S
Co692 O709 2.020 . S
Co692 O711 2.021 . S
Co692 O716 2.062 1_556 S
C693 N695 1.316 . S
C693 N696 1.347 . S
C693 H698 0.931 . S
C694 N695 1.375 . S
C694 C697 1.350 . S
C694 H699 0.930 . S
N695 Co690 2.057 . S
N695 C693 1.316 . S
N695 C694 1.375 . S
N696 C693 1.347 . S
N696 C697 1.373 . S
C697 C694 1.350 . S
C697 N696 1.373 . S
C697 H718 0.931 . S
H698 C693 0.931 . S
H699 C694 0.930 . S
C700 O707 1.260 . S
C700 O708 1.258 1_554 S
N701 Co692 2.057 . S
N701 C702 1.316 . S
N701 C703 1.375 . S
C702 N701 1.316 . S
C702 N704 1.347 . S
C702 H713 0.931 . S
C703 N701 1.375 . S
C703 C705 1.350 . S
C703 H712 0.930 . S
N704 C702 1.347 . S
N704 C705 1.373 . S
C705 C703 1.350 . S
C705 N704 1.373 . S
C705 H719 0.931 . S
C706 O709 1.256 . S
C706 O710 1.255 . S
O707 Co690 2.021 . S
O707 C700 1.260 . S
O708 Co692 2.117 . S
O708 C700 1.258 1_556 S
O709 Co692 2.020 . S
O709 C706 1.256 . S
O710 Co690 2.062 1_556 S
O710 C706 1.255 . S
O711 C691 1.259 . S
O711 Co692 2.021 . S
H712 C703 0.930 . S
H713 C702 0.931 . S
O714 Co690 2.123 . S
O714 C691 1.250 1_554 S
O715 Co690 2.020 . S
O715 C717 1.256 . S
O716 Co692 2.062 1_554 S
O716 C717 1.255 . S
C717 O715 1.256 . S
C717 O716 1.255 . S
H718 C697 0.931 . S
H719 C705 0.931 . S
Co720 N725 2.057 . S
Co720 O737 2.021 . S
Co720 O740 2.062 . S
Co720 O744 2.117 . S
Co720 O745 2.020 . S
C721 O741 1.259 . S
C721 O744 1.258 . S
Co722 N731 2.057 . S
Co722 O738 2.117 . S
Co722 O739 2.020 . S
Co722 O741 2.021 . S
Co722 O746 2.062 . S
C723 N725 1.316 . S
C723 N726 1.347 . S
C723 H728 0.931 . S
C724 N725 1.375 . S
C724 C727 1.350 . S
C724 H729 0.930 . S
N725 Co720 2.057 . S
N725 C723 1.316 . S
N725 C724 1.375 . S
N726 C723 1.347 . S
N726 C727 1.373 . S
C727 C724 1.350 . S
C727 N726 1.373 . S
C727 H748 0.931 . S
H728 C723 0.931 . S
H729 C724 0.930 . S
C730 O737 1.259 . S
C730 O738 1.258 . S
N731 Co722 2.057 . S
N731 C732 1.316 1_565 S
N731 C733 1.375 . S
C732 N731 1.316 1_545 S
C732 N734 1.347 . S
C732 H743 0.931 . S
C733 N731 1.375 . S
C733 C735 1.350 1_565 S
C733 H742 0.930 . S
N734 C732 1.347 . S
N734 C735 1.373 . S
C735 C733 1.350 1_545 S
C735 N734 1.373 . S
C735 H749 0.931 . S
C736 O739 1.256 . S
C736 O740 1.255 . S
O737 Co720 2.021 . S
O737 C730 1.259 . S
O738 Co722 2.117 . S
O738 C730 1.258 . S
O739 Co722 2.020 . S
O739 C736 1.256 . S
O740 Co720 2.062 . S
O740 C736 1.255 . S
O741 C721 1.259 . S
O741 Co722 2.021 . S
H742 C733 0.930 . S
H743 C732 0.931 . S
O744 Co720 2.117 . S
O744 C721 1.258 . S
O745 Co720 2.020 . S
O745 C747 1.256 . S
O746 Co722 2.062 . S
O746 C747 1.255 . S
C747 O745 1.256 . S
C747 O746 1.255 . S
H748 C727 0.931 . S
H749 C735 0.931 . S
Co750 N755 2.057 . S
Co750 O767 2.021 . S
Co750 O770 2.062 . S
Co750 O774 2.117 . S
Co750 O775 2.020 . S
C751 O771 1.259 . S
C751 O774 1.258 . S
Co752 N761 2.057 . S
Co752 O768 2.117 . S
Co752 O769 2.020 . S
Co752 O771 2.021 . S
Co752 O776 2.062 . S
C753 N755 1.316 . S
C753 N756 1.347 . S
C753 H758 0.931 . S
C754 N755 1.375 . S
C754 C757 1.350 . S
C754 H759 0.930 . S
N755 Co750 2.057 . S
N755 C753 1.316 . S
N755 C754 1.375 . S
N756 C753 1.347 . S
N756 C757 1.373 . S
C757 C754 1.350 . S
C757 N756 1.373 . S
C757 H778 0.931 . S
H758 C753 0.931 . S
H759 C754 0.930 . S
C760 O767 1.259 . S
C760 O768 1.258 . S
N761 Co752 2.057 . S
N761 C762 1.316 1_455 S
N761 C763 1.375 . S
C762 N761 1.316 1_655 S
C762 N764 1.347 . S
C762 H773 0.931 . S
C763 N761 1.375 . S
C763 C765 1.350 1_455 S
C763 H772 0.930 . S
N764 C762 1.347 . S
N764 C765 1.373 . S
C765 C763 1.350 1_655 S
C765 N764 1.373 . S
C765 H779 0.931 . S
C766 O769 1.256 . S
C766 O770 1.255 . S
O767 Co750 2.021 . S
O767 C760 1.259 . S
O768 Co752 2.117 . S
O768 C760 1.258 . S
O769 Co752 2.020 . S
O769 C766 1.256 . S
O770 Co750 2.062 . S
O770 C766 1.255 . S
O771 C751 1.259 . S
O771 Co752 2.021 . S
H772 C763 0.930 . S
H773 C762 0.931 . S
O774 Co750 2.117 . S
O774 C751 1.258 . S
O775 Co750 2.020 . S
O775 C777 1.256 . S
O776 Co752 2.062 . S
O776 C777 1.255 . S
C777 O775 1.256 . S
C777 O776 1.255 . S
H778 C757 0.931 . S
H779 C765 0.931 . S
Co780 N785 2.057 . S
Co780 O797 2.021 . S
Co780 O800 2.062 . S
Co780 O804 2.117 . S
Co780 O805 2.020 . S
C781 O801 1.259 . S
C781 O804 1.258 . S
Co782 N791 2.057 . S
Co782 O798 2.117 . S
Co782 O799 2.020 . S
Co782 O801 2.021 . S
Co782 O806 2.062 . S
C783 N785 1.316 . S
C783 N786 1.347 . S
C783 H788 0.931 . S
C784 N785 1.375 . S
C784 C787 1.350 . S
C784 H789 0.930 . S
N785 Co780 2.057 . S
N785 C783 1.316 . S
N785 C784 1.375 . S
N786 C783 1.347 . S
N786 C787 1.373 . S
C787 C784 1.350 . S
C787 N786 1.373 . S
C787 H808 0.931 . S
H788 C783 0.931 . S
H789 C784 0.930 . S
C790 O797 1.259 . S
C790 O798 1.258 . S
N791 Co782 2.057 . S
N791 C792 1.316 . S
N791 C793 1.375 . S
C792 N791 1.316 . S
C792 N794 1.347 . S
C792 H803 0.931 . S
C793 N791 1.375 . S
C793 C795 1.350 . S
C793 H802 0.930 . S
N794 C792 1.347 . S
N794 C795 1.373 . S
C795 C793 1.350 . S
C795 N794 1.373 . S
C795 H809 0.931 . S
C796 O799 1.256 . S
C796 O800 1.255 . S
O797 Co780 2.021 . S
O797 C790 1.259 . S
O798 Co782 2.117 . S
O798 C790 1.258 . S
O799 Co782 2.020 . S
O799 C796 1.256 . S
O800 Co780 2.062 . S
O800 C796 1.255 . S
O801 C781 1.259 . S
O801 Co782 2.021 . S
H802 C793 0.930 . S
H803 C792 0.931 . S
O804 Co780 2.117 . S
O804 C781 1.258 . S
O805 Co780 2.020 . S
O805 C807 1.256 . S
O806 Co782 2.062 . S
O806 C807 1.255 . S
C807 O805 1.256 . S
C807 O806 1.255 . S
H808 C787 0.931 . S
H809 C795 0.931 . S
Co810 N815 2.057 . S
Co810 O827 2.021 . S
Co810 O830 2.062 1_554 S
Co810 O834 2.117 . S
Co810 O835 2.020 . S
C811 O831 1.260 . S
C811 O834 1.258 1_556 S
Co812 N821 2.057 . S
Co812 O828 2.123 . S
Co812 O829 2.020 . S
Co812 O831 2.021 . S
Co812 O836 2.062 1_556 S
C813 N815 1.316 . S
C813 N816 1.347 . S
C813 H818 0.931 . S
C814 N815 1.375 . S
C814 C817 1.350 . S
C814 H819 0.930 . S
N815 Co810 2.057 . S
N815 C813 1.316 . S
N815 C814 1.375 . S
N816 C813 1.347 . S
N816 C817 1.373 . S
C817 C814 1.350 . S
C817 N816 1.373 . S
C817 H838 0.931 . S
H818 C813 0.931 . S
H819 C814 0.930 . S
C820 O827 1.259 . S
C820 O828 1.251 1_554 S
N821 Co812 2.057 . S
N821 C822 1.316 . S
N821 C823 1.375 . S
C822 N821 1.316 . S
C822 N824 1.347 . S
C822 H833 0.931 . S
C823 N821 1.375 . S
C823 C825 1.350 . S
C823 H832 0.930 . S
N824 C822 1.347 . S
N824 C825 1.373 . S
C825 C823 1.350 . S
C825 N824 1.373 . S
C825 H839 0.931 . S
C826 O829 1.256 . S
C826 O830 1.255 . S
O827 Co810 2.021 . S
O827 C820 1.259 . S
O828 Co812 2.123 . S
O828 C820 1.251 1_556 S
O829 Co812 2.020 . S
O829 C826 1.256 . S
O830 Co810 2.062 1_556 S
O830 C826 1.255 . S
O831 C811 1.260 . S
O831 Co812 2.021 . S
H832 C823 0.930 . S
H833 C822 0.931 . S
O834 Co810 2.117 . S
O834 C811 1.258 1_554 S
O835 Co810 2.020 . S
O835 C837 1.256 . S
O836 Co812 2.062 1_554 S
O836 C837 1.255 . S
C837 O835 1.256 . S
C837 O836 1.255 . S
H838 C817 0.931 . S
H839 C825 0.931 . S
Co840 N845 2.057 . S
Co840 O857 2.021 . S
Co840 O860 2.062 1_554 S
Co840 O864 2.117 . S
Co840 O865 2.020 . S
C841 O861 1.260 . S
C841 O864 1.258 1_556 S
Co842 N851 2.057 . S
Co842 O858 2.123 . S
Co842 O859 2.020 . S
Co842 O861 2.021 . S
Co842 O866 2.062 1_556 S
C843 N845 1.316 . S
C843 N846 1.347 . S
C843 H848 0.931 . S
C844 N845 1.375 . S
C844 C847 1.350 . S
C844 H849 0.930 . S
N845 Co840 2.057 . S
N845 C843 1.316 . S
N845 C844 1.375 . S
N846 C843 1.347 . S
N846 C847 1.373 . S
C847 C844 1.350 . S
C847 N846 1.373 . S
C847 H868 0.931 . S
H848 C843 0.931 . S
H849 C844 0.930 . S
C850 O857 1.259 . S
C850 O858 1.250 1_554 S
N851 Co842 2.057 . S
N851 C852 1.316 . S
N851 C853 1.375 . S
C852 N851 1.316 . S
C852 N854 1.347 . S
C852 H863 0.931 . S
C853 N851 1.375 . S
C853 C855 1.350 . S
C853 H862 0.930 . S
N854 C852 1.347 . S
N854 C855 1.373 . S
C855 C853 1.350 . S
C855 N854 1.373 . S
C855 H869 0.931 . S
C856 O859 1.256 . S
C856 O860 1.255 . S
O857 Co840 2.021 . S
O857 C850 1.259 . S
O858 Co842 2.123 . S
O858 C850 1.250 1_556 S
O859 Co842 2.020 . S
O859 C856 1.256 . S
O860 Co840 2.062 1_556 S
O860 C856 1.255 . S
O861 C841 1.260 . S
O861 Co842 2.021 . S
H862 C853 0.930 . S
H863 C852 0.931 . S
O864 Co840 2.117 . S
O864 C841 1.258 1_554 S
O865 Co840 2.020 . S
O865 C867 1.256 . S
O866 Co842 2.062 1_554 S
O866 C867 1.255 . S
C867 O865 1.256 . S
C867 O866 1.255 . S
H868 C847 0.931 . S
H869 C855 0.931 . S
Co870 N875 2.057 . S
Co870 O887 2.021 . S
Co870 O890 2.062 1_554 S
Co870 O894 2.117 . S
Co870 O895 2.020 . S
C871 O891 1.260 . S
C871 O894 1.258 1_556 S
Co872 N881 2.057 . S
Co872 O888 2.123 . S
Co872 O889 2.020 . S
Co872 O891 2.021 . S
Co872 O896 2.062 1_556 S
C873 N875 1.316 . S
C873 N876 1.347 . S
C873 H878 0.931 . S
C874 N875 1.375 . S
C874 C877 1.350 . S
C874 H879 0.930 . S
N875 Co870 2.057 . S
N875 C873 1.316 . S
N875 C874 1.375 . S
N876 C873 1.347 . S
N876 C877 1.373 . S
C877 C874 1.350 . S
C877 N876 1.373 . S
C877 H898 0.931 . S
H878 C873 0.931 . S
H879 C874 0.930 . S
C880 O887 1.259 . S
C880 O888 1.250 1_554 S
N881 Co872 2.057 . S
N881 C882 1.316 . S
N881 C883 1.375 . S
C882 N881 1.316 . S
C882 N884 1.347 . S
C882 H893 0.931 . S
C883 N881 1.375 . S
C883 C885 1.350 . S
C883 H892 0.930 . S
N884 C882 1.347 . S
N884 C885 1.373 . S
C885 C883 1.350 . S
C885 N884 1.373 . S
C885 H899 0.931 . S
C886 O889 1.256 . S
C886 O890 1.255 . S
O887 Co870 2.021 . S
O887 C880 1.259 . S
O888 Co872 2.123 . S
O888 C880 1.250 1_556 S
O889 Co872 2.020 . S
O889 C886 1.256 . S
O890 Co870 2.062 1_556 S
O890 C886 1.255 . S
O891 C871 1.260 . S
O891 Co872 2.021 . S
H892 C883 0.930 . S
H893 C882 0.931 . S
O894 Co870 2.117 . S
O894 C871 1.258 1_554 S
O895 Co870 2.020 . S
O895 C897 1.256 . S
O896 Co872 2.062 1_554 S
O896 C897 1.255 . S
C897 O895 1.256 . S
C897 O896 1.255 . S
H898 C877 0.931 . S
H899 C885 0.931 . S
Co900 N905 2.057 . S
Co900 O917 2.021 . S
Co900 O920 2.062 . S
Co900 O924 2.117 . S
Co900 O925 2.020 . S
C901 O921 1.259 . S
C901 O924 1.258 . S
Co902 N911 2.057 . S
Co902 O918 2.117 . S
Co902 O919 2.020 . S
Co902 O921 2.021 . S
Co902 O926 2.062 . S
C903 N905 1.316 . S
C903 N906 1.347 . S
C903 H908 0.931 . S
C904 N905 1.375 . S
C904 C907 1.350 . S
C904 H909 0.930 . S
N905 Co900 2.057 . S
N905 C903 1.316 . S
N905 C904 1.375 . S
N906 C903 1.347 . S
N906 C907 1.373 . S
C907 C904 1.350 . S
C907 N906 1.373 . S
C907 H928 0.931 . S
H908 C903 0.931 . S
H909 C904 0.930 . S
C910 O917 1.259 . S
C910 O918 1.258 . S
N911 Co902 2.057 . S
N911 C912 1.316 . S
N911 C913 1.375 . S
C912 N911 1.316 . S
C912 N914 1.347 . S
C912 H923 0.931 . S
C913 N911 1.375 . S
C913 C915 1.350 . S
C913 H922 0.930 . S
N914 C912 1.347 . S
N914 C915 1.373 . S
C915 C913 1.350 . S
C915 N914 1.373 . S
C915 H929 0.931 . S
C916 O919 1.256 . S
C916 O920 1.255 . S
O917 Co900 2.021 . S
O917 C910 1.259 . S
O918 Co902 2.117 . S
O918 C910 1.258 . S
O919 Co902 2.020 . S
O919 C916 1.256 . S
O920 Co900 2.062 . S
O920 C916 1.255 . S
O921 C901 1.259 . S
O921 Co902 2.021 . S
H922 C913 0.930 . S
H923 C912 0.931 . S
O924 Co900 2.117 . S
O924 C901 1.258 . S
O925 Co900 2.020 . S
O925 C927 1.256 . S
O926 Co902 2.062 . S
O926 C927 1.255 . S
C927 O925 1.256 . S
C927 O926 1.255 . S
H928 C907 0.931 . S
H929 C915 0.931 . S
Co930 N935 2.057 . S
Co930 O947 2.021 . S
Co930 O950 2.062 . S
Co930 O954 2.117 . S
Co930 O955 2.020 . S
C931 O951 1.259 . S
C931 O954 1.258 . S
Co932 N941 2.057 . S
Co932 O948 2.117 . S
Co932 O949 2.020 . S
Co932 O951 2.021 . S
Co932 O956 2.062 . S
C933 N935 1.316 . S
C933 N936 1.347 . S
C933 H938 0.931 . S
C934 N935 1.375 . S
C934 C937 1.350 . S
C934 H939 0.930 . S
N935 Co930 2.057 . S
N935 C933 1.316 . S
N935 C934 1.375 . S
N936 C933 1.347 . S
N936 C937 1.373 . S
C937 C934 1.350 . S
C937 N936 1.373 . S
C937 H958 0.931 . S
H938 C933 0.931 . S
H939 C934 0.930 . S
C940 O947 1.259 . S
C940 O948 1.258 . S
N941 Co932 2.057 . S
N941 C942 1.316 . S
N941 C943 1.375 . S
C942 N941 1.316 . S
C942 N944 1.347 . S
C942 H953 0.931 . S
C943 N941 1.375 . S
C943 C945 1.350 . S
C943 H952 0.930 . S
N944 C942 1.347 . S
N944 C945 1.373 . S
C945 C943 1.350 . S
C945 N944 1.373 . S
C945 H959 0.931 . S
C946 O949 1.256 . S
C946 O950 1.255 . S
O947 Co930 2.021 . S
O947 C940 1.259 . S
O948 Co932 2.117 . S
O948 C940 1.258 . S
O949 Co932 2.020 . S
O949 C946 1.256 . S
O950 Co930 2.062 . S
O950 C946 1.255 . S
O951 C931 1.259 . S
O951 Co932 2.021 . S
H952 C943 0.930 . S
H953 C942 0.931 . S
O954 Co930 2.117 . S
O954 C931 1.258 . S
O955 Co930 2.020 . S
O955 C957 1.256 . S
O956 Co932 2.062 . S
O956 C957 1.255 . S
C957 O955 1.256 . S
C957 O956 1.255 . S
H958 C937 0.931 . S
H959 C945 0.931 . S
Co960 N965 2.057 . S
Co960 O977 2.021 . S
Co960 O980 2.062 . S
Co960 O984 2.117 . S
Co960 O985 2.020 . S
C961 O981 1.259 . S
C961 O984 1.258 . S
Co962 N971 2.057 . S
Co962 O978 2.117 . S
Co962 O979 2.020 . S
Co962 O981 2.021 . S
Co962 O986 2.062 . S
C963 N965 1.316 . S
C963 N966 1.347 . S
C963 H968 0.931 . S
C964 N965 1.375 . S
C964 C967 1.350 . S
C964 H969 0.930 . S
N965 Co960 2.057 . S
N965 C963 1.316 . S
N965 C964 1.375 . S
N966 C963 1.347 . S
N966 C967 1.373 . S
C967 C964 1.350 . S
C967 N966 1.373 . S
C967 H988 0.931 . S
H968 C963 0.931 . S
H969 C964 0.930 . S
C970 O977 1.259 . S
C970 O978 1.258 . S
N971 Co962 2.057 . S
N971 C972 1.316 . S
N971 C973 1.375 . S
C972 N971 1.316 . S
C972 N974 1.347 . S
C972 H983 0.931 . S
C973 N971 1.375 . S
C973 C975 1.350 . S
C973 H982 0.930 . S
N974 C972 1.347 . S
N974 C975 1.373 . S
C975 C973 1.350 . S
C975 N974 1.373 . S
C975 H989 0.931 . S
C976 O979 1.256 . S
C976 O980 1.255 . S
O977 Co960 2.021 . S
O977 C970 1.259 . S
O978 Co962 2.117 . S
O978 C970 1.258 . S
O979 Co962 2.020 . S
O979 C976 1.256 . S
O980 Co960 2.062 . S
O980 C976 1.255 . S
O981 C961 1.259 . S
O981 Co962 2.021 . S
H982 C973 0.930 . S
H983 C972 0.931 . S
O984 Co960 2.117 . S
O984 C961 1.258 . S
O985 Co960 2.020 . S
O985 C987 1.256 . S
O986 Co962 2.062 . S
O986 C987 1.255 . S
C987 O985 1.256 . S
C987 O986 1.255 . S
H988 C967 0.931 . S
H989 C975 0.931 . S
Co990 N995 2.057 . S
Co990 O1007 2.021 . S
Co990 O1010 2.062 . S
Co990 O1014 2.117 . S
Co990 O1015 2.020 . S
C991 O1011 1.259 . S
C991 O1014 1.258 . S
Co992 N1001 2.057 . S
Co992 O1008 2.117 . S
Co992 O1009 2.020 . S
Co992 O1011 2.021 . S
Co992 O1016 2.062 . S
C993 N995 1.316 1_655 S
C993 N996 1.347 . S
C993 H998 0.931 . S
C994 N995 1.375 . S
C994 C997 1.350 1_455 S
C994 H999 0.930 . S
N995 Co990 2.057 . S
N995 C993 1.316 1_455 S
N995 C994 1.375 . S
N996 C993 1.347 . S
N996 C997 1.373 . S
C997 C994 1.350 1_655 S
C997 N996 1.373 . S
C997 H1018 0.931 . S
H998 C993 0.931 . S
H999 C994 0.930 . S
C1000 O1007 1.259 . S
C1000 O1008 1.258 . S
N1001 Co992 2.057 . S
N1001 C1002 1.316 . S
N1001 C1003 1.375 . S
C1002 N1001 1.316 . S
C1002 N1004 1.347 . S
C1002 H1013 0.931 . S
C1003 N1001 1.375 . S
C1003 C1005 1.350 . S
C1003 H1012 0.930 . S
N1004 C1002 1.347 . S
N1004 C1005 1.373 . S
C1005 C1003 1.350 . S
C1005 N1004 1.373 . S
C1005 H1019 0.931 . S
C1006 O1009 1.256 . S
C1006 O1010 1.255 . S
O1007 Co990 2.021 . S
O1007 C1000 1.259 . S
O1008 Co992 2.117 . S
O1008 C1000 1.258 . S
O1009 Co992 2.020 . S
O1009 C1006 1.256 . S
O1010 Co990 2.062 . S
O1010 C1006 1.255 . S
O1011 C991 1.259 . S
O1011 Co992 2.021 . S
H1012 C1003 0.930 . S
H1013 C1002 0.931 . S
O1014 Co990 2.117 . S
O1014 C991 1.258 . S
O1015 Co990 2.020 . S
O1015 C1017 1.256 . S
O1016 Co992 2.062 . S
O1016 C1017 1.255 . S
C1017 O1015 1.256 . S
C1017 O1016 1.255 . S
H1018 C997 0.931 . S
H1019 C1005 0.931 . S
Co1020 N1025 2.057 . S
Co1020 O1037 2.021 . S
Co1020 O1040 2.062 . S
Co1020 O1044 2.117 . S
Co1020 O1045 2.020 . S
C1021 O1041 1.259 . S
C1021 O1044 1.258 . S
Co1022 N1031 2.057 . S
Co1022 O1038 2.117 . S
Co1022 O1039 2.020 . S
Co1022 O1041 2.021 . S
Co1022 O1046 2.062 . S
C1023 N1025 1.316 . S
C1023 N1026 1.347 . S
C1023 H1028 0.931 . S
C1024 N1025 1.375 . S
C1024 C1027 1.350 . S
C1024 H1029 0.930 . S
N1025 Co1020 2.057 . S
N1025 C1023 1.316 . S
N1025 C1024 1.375 . S
N1026 C1023 1.347 . S
N1026 C1027 1.373 . S
C1027 C1024 1.350 . S
C1027 N1026 1.373 . S
C1027 H1048 0.931 . S
H1028 C1023 0.931 . S
H1029 C1024 0.930 . S
C1030 O1037 1.259 . S
C1030 O1038 1.258 . S
N1031 Co1022 2.057 . S
N1031 C1032 1.316 . S
N1031 C1033 1.375 . S
C1032 N1031 1.316 . S
C1032 N1034 1.347 . S
C1032 H1043 0.931 . S
C1033 N1031 1.375 . S
C1033 C1035 1.350 . S
C1033 H1042 0.930 . S
N1034 C1032 1.347 . S
N1034 C1035 1.373 . S
C1035 C1033 1.350 . S
C1035 N1034 1.373 . S
C1035 H1049 0.931 . S
C1036 O1039 1.256 . S
C1036 O1040 1.255 . S
O1037 Co1020 2.021 . S
O1037 C1030 1.259 . S
O1038 Co1022 2.117 . S
O1038 C1030 1.258 . S
O1039 Co1022 2.020 . S
O1039 C1036 1.256 . S
O1040 Co1020 2.062 . S
O1040 C1036 1.255 . S
O1041 C1021 1.259 . S
O1041 Co1022 2.021 . S
H1042 C1033 0.930 . S
H1043 C1032 0.931 . S
O1044 Co1020 2.117 . S
O1044 C1021 1.258 . S
O1045 Co1020 2.020 . S
O1045 C1047 1.256 . S
O1046 Co1022 2.062 . S
O1046 C1047 1.255 . S
C1047 O1045 1.256 . S
C1047 O1046 1.255 . S
H1048 C1027 0.931 . S
H1049 C1035 0.931 . S
Co1050 N1055 2.057 . S
Co1050 O1067 2.021 . S
Co1050 O1070 2.062 . S
Co1050 O1074 2.117 . S
Co1050 O1075 2.020 . S
C1051 O1071 1.259 . S
C1051 O1074 1.258 . S
Co1052 N1061 2.057 . S
Co1052 O1068 2.117 . S
Co1052 O1069 2.020 . S
Co1052 O1071 2.021 . S
Co1052 O1076 2.062 . S
C1053 N1055 1.316 1_545 S
C1053 N1056 1.347 . S
C1053 H1058 0.931 . S
C1054 N1055 1.375 . S
C1054 C1057 1.350 1_565 S
C1054 H1059 0.930 . S
N1055 Co1050 2.057 . S
N1055 C1053 1.316 1_565 S
N1055 C1054 1.375 . S
N1056 C1053 1.347 . S
N1056 C1057 1.373 . S
C1057 C1054 1.350 1_545 S
C1057 N1056 1.373 . S
C1057 H1078 0.931 . S
H1058 C1053 0.931 . S
H1059 C1054 0.930 . S
C1060 O1067 1.259 . S
C1060 O1068 1.258 . S
N1061 Co1052 2.057 . S
N1061 C1062 1.316 . S
N1061 C1063 1.375 . S
C1062 N1061 1.316 . S
C1062 N1064 1.347 . S
C1062 H1073 0.931 . S
C1063 N1061 1.375 . S
C1063 C1065 1.350 . S
C1063 H1072 0.930 . S
N1064 C1062 1.347 . S
N1064 C1065 1.373 . S
C1065 C1063 1.350 . S
C1065 N1064 1.373 . S
C1065 H1079 0.931 . S
C1066 O1069 1.256 . S
C1066 O1070 1.255 . S
O1067 Co1050 2.021 . S
O1067 C1060 1.259 . S
O1068 Co1052 2.117 . S
O1068 C1060 1.258 . S
O1069 Co1052 2.020 . S
O1069 C1066 1.256 . S
O1070 Co1050 2.062 . S
O1070 C1066 1.255 . S
O1071 C1051 1.259 . S
O1071 Co1052 2.021 . S
H1072 C1063 0.930 . S
H1073 C1062 0.931 . S
O1074 Co1050 2.117 . S
O1074 C1051 1.258 . S
O1075 Co1050 2.020 . S
O1075 C1077 1.256 . S
O1076 Co1052 2.062 . S
O1076 C1077 1.255 . S
C1077 O1075 1.256 . S
C1077 O1076 1.255 . S
H1078 C1057 0.931 . S
H1079 C1065 0.931 . S
C1080 C1081 1.387 . S
C1080 H1084 0.950 . S
C1080 C1089 1.390 . S
C1081 C1080 1.387 . S
C1081 C1083 1.387 . S
H1082 C1089 0.950 . S
C1083 C1081 1.387 . S
C1083 C1085 1.390 . S
C1083 H1087 0.950 . S
H1084 C1080 0.950 . S
C1085 C1083 1.390 . S
C1085 C1086 1.387 . S
C1085 H1088 0.950 . S
C1086 C1085 1.387 . S
C1086 C1089 1.387 . S
H1087 C1083 0.950 . S
H1088 C1085 0.950 . S
C1089 C1080 1.390 . S
C1089 H1082 0.950 . S
C1089 C1086 1.387 . S
C1090 C1091 1.387 . S
C1090 H1094 0.950 . S
C1090 C1099 1.390 . S
C1091 C1090 1.387 . S
C1091 C1093 1.387 . S
H1092 C1099 0.950 . S
C1093 C1091 1.387 . S
C1093 C1095 1.390 1_545 S
C1093 H1097 0.950 . S
H1094 C1090 0.950 . S
C1095 C1093 1.390 1_565 S
C1095 C1096 1.387 . S
C1095 H1098 0.950 . S
C1096 C1095 1.387 . S
C1096 C1099 1.387 1_565 S
H1097 C1093 0.950 . S
H1098 C1095 0.950 . S
C1099 C1090 1.390 . S
C1099 H1092 0.950 . S
C1099 C1096 1.387 1_545 S
C1100 C1101 1.387 . S
C1100 H1104 0.950 . S
C1100 C1109 1.390 1_455 S
C1101 C1100 1.387 . S
C1101 C1103 1.387 1_455 S
H1102 C1109 0.950 . S
C1103 C1101 1.387 1_655 S
C1103 C1105 1.390 . S
C1103 H1107 0.950 . S
H1104 C1100 0.950 . S
C1105 C1103 1.390 . S
C1105 C1106 1.387 . S
C1105 H1108 0.950 . S
C1106 C1105 1.387 . S
C1106 C1109 1.387 . S
H1107 C1103 0.950 . S
H1108 C1105 0.950 . S
C1109 C1100 1.390 1_655 S
C1109 H1102 0.950 . S
C1109 C1106 1.387 . S
C1110 C1111 1.387 . S
C1110 H1114 0.950 . S
C1110 C1119 1.390 . S
C1111 C1110 1.387 . S
C1111 C1113 1.387 . S
H1112 C1119 0.950 . S
C1113 C1111 1.387 . S
C1113 C1115 1.390 . S
C1113 H1117 0.950 . S
H1114 C1110 0.950 . S
C1115 C1113 1.390 . S
C1115 C1116 1.387 . S
C1115 H1118 0.950 . S
C1116 C1115 1.387 . S
C1116 C1119 1.387 . S
H1117 C1113 0.950 . S
H1118 C1115 0.950 . S
C1119 C1110 1.390 . S
C1119 H1112 0.950 . S
C1119 C1116 1.387 . S
C1120 C1121 1.387 . S
C1120 H1124 0.950 . S
C1120 C1129 1.390 . S
C1121 C1120 1.387 . S
C1121 C1123 1.387 . S
H1122 C1129 0.950 . S
C1123 C1121 1.387 . S
C1123 C1125 1.390 1_565 S
C1123 H1127 0.950 . S
H1124 C1120 0.950 . S
C1125 C1123 1.390 1_545 S
C1125 C1126 1.387 . S
C1125 H1128 0.950 . S
C1126 C1125 1.387 . S
C1126 C1129 1.387 1_545 S
H1127 C1123 0.950 . S
H1128 C1125 0.950 . S
C1129 C1120 1.390 . S
C1129 H1122 0.950 . S
C1129 C1126 1.387 1_565 S
C1130 C1131 1.387 . S
C1130 H1134 0.950 . S
C1130 C1139 1.390 1_655 S
C1131 C1130 1.387 . S
C1131 C1133 1.387 1_655 S
H1132 C1139 0.950 . S
C1133 C1131 1.387 1_455 S
C1133 C1135 1.390 . S
C1133 H1137 0.950 . S
H1134 C1130 0.950 . S
C1135 C1133 1.390 . S
C1135 C1136 1.387 . S
C1135 H1138 0.950 . S
C1136 C1135 1.387 . S
C1136 C1139 1.387 . S
H1137 C1133 0.950 . S
H1138 C1135 0.950 . S
C1139 C1130 1.390 1_455 S
C1139 H1132 0.950 . S
C1139 C1136 1.387 . S
C1140 C1141 1.387 . S
C1140 H1144 0.950 . S
C1140 C1149 1.390 . S
C1141 C1140 1.387 . S
C1141 C1143 1.387 . S
H1142 C1149 0.950 . S
C1143 C1141 1.387 . S
C1143 C1145 1.390 . S
C1143 H1147 0.950 . S
H1144 C1140 0.950 . S
C1145 C1143 1.390 . S
C1145 C1146 1.387 . S
C1145 H1148 0.950 . S
C1146 C1145 1.387 . S
C1146 C1149 1.387 . S
H1147 C1143 0.950 . S
H1148 C1145 0.950 . S
C1149 C1140 1.390 . S
C1149 H1142 0.950 . S
C1149 C1146 1.387 . S
C1150 C1151 1.387 . S
C1150 H1154 0.950 . S
C1150 C1159 1.390 1_545 S
C1151 C1150 1.387 . S
C1151 C1153 1.387 1_545 S
H1152 C1159 0.950 . S
C1153 C1151 1.387 1_565 S
C1153 C1155 1.390 . S
C1153 H1157 0.950 . S
H1154 C1150 0.950 . S
C1155 C1153 1.390 . S
C1155 C1156 1.387 . S
C1155 H1158 0.950 . S
C1156 C1155 1.387 . S
C1156 C1159 1.387 . S
H1157 C1153 0.950 . S
H1158 C1155 0.950 . S
C1159 C1150 1.390 1_565 S
C1159 H1152 0.950 . S
C1159 C1156 1.387 . S
C1160 C1161 1.387 . S
C1160 H1164 0.950 . S
C1160 C1169 1.390 1_655 S
C1161 C1160 1.387 . S
C1161 C1163 1.387 1_655 S
H1162 C1169 0.950 . S
C1163 C1161 1.387 1_455 S
C1163 C1165 1.390 . S
C1163 H1167 0.950 . S
H1164 C1160 0.950 . S
C1165 C1163 1.390 . S
C1165 C1166 1.387 . S
C1165 H1168 0.950 . S
C1166 C1165 1.387 . S
C1166 C1169 1.387 . S
H1167 C1163 0.950 . S
H1168 C1165 0.950 . S
C1169 C1160 1.390 1_455 S
C1169 H1162 0.950 . S
C1169 C1166 1.387 . S
C1170 C1171 1.387 . S
C1170 H1174 0.950 . S
C1170 C1179 1.390 . S
C1171 C1170 1.387 . S
C1171 C1173 1.387 . S
H1172 C1179 0.950 . S
C1173 C1171 1.387 . S
C1173 C1175 1.390 . S
C1173 H1177 0.950 . S
H1174 C1170 0.950 . S
C1175 C1173 1.390 . S
C1175 C1176 1.387 . S
C1175 H1178 0.950 . S
C1176 C1175 1.387 . S
C1176 C1179 1.387 . S
H1177 C1173 0.950 . S
H1178 C1175 0.950 . S
C1179 C1170 1.390 . S
C1179 H1172 0.950 . S
C1179 C1176 1.387 . S
C1180 C1181 1.387 . S
C1180 H1184 0.950 . S
C1180 C1189 1.390 . S
C1181 C1180 1.387 . S
C1181 C1183 1.387 . S
H1182 C1189 0.950 1_565 S
C1183 C1181 1.387 . S
C1183 C1185 1.390 . S
C1183 H1187 0.950 . S
H1184 C1180 0.950 . S
C1185 C1183 1.390 . S
C1185 C1186 1.387 1_545 S
C1185 H1188 0.950 1_545 S
C1186 C1185 1.387 1_565 S
C1186 C1189 1.387 1_565 S
H1187 C1183 0.950 . S
H1188 C1185 0.950 1_565 S
C1189 C1180 1.390 . S
C1189 H1182 0.950 1_545 S
C1189 C1186 1.387 1_545 S
C1190 C1191 1.387 . S
C1190 H1194 0.950 . S
C1190 C1199 1.390 . S
C1191 C1190 1.387 . S
C1191 C1193 1.387 . S
H1192 C1199 0.950 . S
C1193 C1191 1.387 . S
C1193 C1195 1.390 1_655 S
C1193 H1197 0.950 . S
H1194 C1190 0.950 . S
C1195 C1193 1.390 1_455 S
C1195 C1196 1.387 . S
C1195 H1198 0.950 . S
C1196 C1195 1.387 . S
C1196 C1199 1.387 1_455 S
H1197 C1193 0.950 . S
H1198 C1195 0.950 . S
C1199 C1190 1.390 . S
C1199 H1192 0.950 . S
C1199 C1196 1.387 1_655 S
C1200 C1201 1.387 . S
C1200 H1204 0.950 . S
C1200 C1209 1.390 . S
C1201 C1200 1.387 . S
C1201 C1203 1.387 . S
H1202 C1209 0.950 . S
C1203 C1201 1.387 . S
C1203 C1205 1.390 . S
C1203 H1207 0.950 . S
H1204 C1200 0.950 . S
C1205 C1203 1.390 . S
C1205 C1206 1.387 . S
C1205 H1208 0.950 . S
C1206 C1205 1.387 . S
C1206 C1209 1.387 . S
H1207 C1203 0.950 . S
H1208 C1205 0.950 . S
C1209 C1200 1.390 . S
C1209 H1202 0.950 . S
C1209 C1206 1.387 . S
C1210 C1211 1.387 . S
C1210 H1214 0.950 . S
C1210 C1219 1.390 . S
C1211 C1210 1.387 . S
C1211 C1213 1.387 . S
H1212 C1219 0.950 . S
C1213 C1211 1.387 . S
C1213 C1215 1.390 . S
C1213 H1217 0.950 . S
H1214 C1210 0.950 . S
C1215 C1213 1.390 . S
C1215 C1216 1.387 . S
C1215 H1218 0.950 . S
C1216 C1215 1.387 . S
C1216 C1219 1.387 . S
H1217 C1213 0.950 . S
H1218 C1215 0.950 . S
C1219 C1210 1.390 . S
C1219 H1212 0.950 . S
C1219 C1216 1.387 . S
C1220 C1221 1.387 . S
C1220 H1224 0.950 . S
C1220 C1229 1.390 . S
C1221 C1220 1.387 . S
C1221 C1223 1.387 . S
H1222 C1229 0.950 . S
C1223 C1221 1.387 . S
C1223 C1225 1.390 . S
C1223 H1227 0.950 . S
H1224 C1220 0.950 . S
C1225 C1223 1.390 . S
C1225 C1226 1.387 . S
C1225 H1228 0.950 . S
C1226 C1225 1.387 . S
C1226 C1229 1.387 . S
H1227 C1223 0.950 . S
H1228 C1225 0.950 . S
C1229 C1220 1.390 . S
C1229 H1222 0.950 . S
C1229 C1226 1.387 . S
C1230 C1231 1.387 . S
C1230 H1234 0.950 . S
C1230 C1239 1.390 . S
C1231 C1230 1.387 . S
C1231 C1233 1.387 . S
H1232 C1239 0.950 . S
C1233 C1231 1.387 . S
C1233 C1235 1.390 . S
C1233 H1237 0.950 . S
H1234 C1230 0.950 . S
C1235 C1233 1.390 . S
C1235 C1236 1.387 . S
C1235 H1238 0.950 . S
C1236 C1235 1.387 . S
C1236 C1239 1.387 . S
H1237 C1233 0.950 . S
H1238 C1235 0.950 . S
C1239 C1230 1.390 . S
C1239 H1232 0.950 . S
C1239 C1236 1.387 . S
C1240 C1241 1.387 . S
C1240 H1244 0.950 . S
C1240 C1249 1.390 . S
C1241 C1240 1.387 . S
C1241 C1243 1.387 . S
H1242 C1249 0.950 . S
C1243 C1241 1.387 . S
C1243 C1245 1.390 . S
C1243 H1247 0.950 . S
H1244 C1240 0.950 . S
C1245 C1243 1.390 . S
C1245 C1246 1.387 . S
C1245 H1248 0.950 . S
C1246 C1245 1.387 . S
C1246 C1249 1.387 . S
H1247 C1243 0.950 . S
H1248 C1245 0.950 . S
C1249 C1240 1.390 . S
C1249 H1242 0.950 . S
C1249 C1246 1.387 . S
C1250 C1251 1.387 . S
C1250 H1254 0.950 . S
C1250 C1259 1.390 . S
C1251 C1250 1.387 . S
C1251 C1253 1.387 . S
H1252 C1259 0.950 . S
C1253 C1251 1.387 . S
C1253 C1255 1.390 . S
C1253 H1257 0.950 . S
H1254 C1250 0.950 . S
C1255 C1253 1.390 . S
C1255 C1256 1.387 . S
C1255 H1258 0.950 . S
C1256 C1255 1.387 . S
C1256 C1259 1.387 . S
H1257 C1253 0.950 . S
H1258 C1255 0.950 . S
C1259 C1250 1.390 . S
C1259 H1252 0.950 . S
C1259 C1256 1.387 . S
C1260 C1261 1.387 . S
C1260 H1264 0.950 . S
C1260 C1269 1.390 . S
C1261 C1260 1.387 . S
C1261 C1263 1.387 . S
H1262 C1269 0.950 . S
C1263 C1261 1.387 . S
C1263 C1265 1.390 . S
C1263 H1267 0.950 . S
H1264 C1260 0.950 . S
C1265 C1263 1.390 . S
C1265 C1266 1.387 . S
C1265 H1268 0.950 . S
C1266 C1265 1.387 . S
C1266 C1269 1.387 . S
H1267 C1263 0.950 . S
H1268 C1265 0.950 . S
C1269 C1260 1.390 . S
C1269 H1262 0.950 . S
C1269 C1266 1.387 . S
C1270 C1271 1.387 . S
C1270 H1274 0.950 . S
C1270 C1279 1.390 . S
C1271 C1270 1.387 . S
C1271 C1273 1.387 . S
H1272 C1279 0.950 . S
C1273 C1271 1.387 . S
C1273 C1275 1.390 . S
C1273 H1277 0.950 . S
H1274 C1270 0.950 . S
C1275 C1273 1.390 . S
C1275 C1276 1.387 . S
C1275 H1278 0.950 . S
C1276 C1275 1.387 . S
C1276 C1279 1.387 . S
H1277 C1273 0.950 . S
H1278 C1275 0.950 . S
C1279 C1270 1.390 . S
C1279 H1272 0.950 . S
C1279 C1276 1.387 . S
C1280 C1281 1.387 . S
C1280 H1284 0.950 . S
C1280 C1289 1.390 . S
C1281 C1280 1.387 . S
C1281 C1283 1.387 . S
H1282 C1289 0.950 . S
C1283 C1281 1.387 . S
C1283 C1285 1.390 . S
C1283 H1287 0.950 . S
H1284 C1280 0.950 . S
C1285 C1283 1.390 . S
C1285 C1286 1.387 . S
C1285 H1288 0.950 . S
C1286 C1285 1.387 . S
C1286 C1289 1.387 . S
H1287 C1283 0.950 . S
H1288 C1285 0.950 . S
C1289 C1280 1.390 . S
C1289 H1282 0.950 . S
C1289 C1286 1.387 . S
C1290 C1291 1.387 1_554 S
C1290 H1294 0.950 . S
C1290 C1299 1.390 . S
C1291 C1290 1.387 1_556 S
C1291 C1293 1.387 . S
H1292 C1299 0.950 . S
C1293 C1291 1.387 . S
C1293 C1295 1.390 . S
C1293 H1297 0.950 . S
H1294 C1290 0.950 . S
C1295 C1293 1.390 . S
C1295 C1296 1.387 . S
C1295 H1298 0.950 . S
C1296 C1295 1.387 . S
C1296 C1299 1.387 1_556 S
H1297 C1293 0.950 . S
H1298 C1295 0.950 . S
C1299 C1290 1.390 . S
C1299 H1292 0.950 . S
C1299 C1296 1.387 1_554 S
C1300 C1301 1.387 . S
C1300 H1304 0.950 . S
C1300 C1309 1.390 . S
C1301 C1300 1.387 . S
C1301 C1303 1.387 . S
H1302 C1309 0.950 . S
C1303 C1301 1.387 . S
C1303 C1305 1.390 . S
C1303 H1307 0.950 . S
H1304 C1300 0.950 . S
C1305 C1303 1.390 . S
C1305 C1306 1.387 . S
C1305 H1308 0.950 . S
C1306 C1305 1.387 . S
C1306 C1309 1.387 . S
H1307 C1303 0.950 . S
H1308 C1305 0.950 . S
C1309 C1300 1.390 . S
C1309 H1302 0.950 . S
C1309 C1306 1.387 . S
C1310 C1311 1.390 1_554 S
C1310 H1314 0.948 . S
C1310 C1319 1.390 . S
C1311 C1310 1.390 1_556 S
C1311 C1313 1.387 . S
H1312 C1319 0.950 . S
C1313 C1311 1.387 . S
C1313 C1315 1.390 . S
C1313 H1317 0.950 . S
H1314 C1310 0.948 . S
C1315 C1313 1.390 . S
C1315 C1316 1.387 . S
C1315 H1318 0.950 . S
C1316 C1315 1.387 . S
C1316 C1319 1.387 1_556 S
H1317 C1313 0.950 . S
H1318 C1315 0.950 . S
C1319 C1310 1.390 . S
C1319 H1312 0.950 . S
C1319 C1316 1.387 1_554 S
C1320 C1321 1.387 . S
C1320 H1324 0.950 . S
C1320 C1329 1.390 . S
C1321 C1320 1.387 . S
C1321 C1323 1.387 . S
H1322 C1329 0.950 . S
C1323 C1321 1.387 . S
C1323 C1325 1.390 . S
C1323 H1327 0.950 . S
H1324 C1320 0.950 . S
C1325 C1323 1.390 . S
C1325 C1326 1.387 . S
C1325 H1328 0.950 . S
C1326 C1325 1.387 . S
C1326 C1329 1.387 . S
H1327 C1323 0.950 . S
H1328 C1325 0.950 . S
C1329 C1320 1.390 . S
C1329 H1322 0.950 . S
C1329 C1326 1.387 . S
C1330 C1331 1.387 . S
C1330 H1334 0.950 . S
C1330 C1339 1.390 . S
C1331 C1330 1.387 . S
C1331 C1333 1.387 . S
H1332 C1339 0.950 . S
C1333 C1331 1.387 . S
C1333 C1335 1.390 . S
C1333 H1337 0.950 . S
H1334 C1330 0.950 . S
C1335 C1333 1.390 . S
C1335 C1336 1.387 . S
C1335 H1338 0.950 . S
C1336 C1335 1.387 . S
C1336 C1339 1.387 . S
H1337 C1333 0.950 . S
H1338 C1335 0.950 . S
C1339 C1330 1.390 . S
C1339 H1332 0.950 . S
C1339 C1336 1.387 . S
C1340 C1341 1.387 . S
C1340 H1344 0.950 . S
C1340 C1349 1.390 . S
C1341 C1340 1.387 . S
C1341 C1343 1.387 . S
H1342 C1349 0.950 . S
C1343 C1341 1.387 . S
C1343 C1345 1.390 . S
C1343 H1347 0.950 . S
H1344 C1340 0.950 . S
C1345 C1343 1.390 . S
C1345 C1346 1.387 . S
C1345 H1348 0.950 . S
C1346 C1345 1.387 . S
C1346 C1349 1.387 . S
H1347 C1343 0.950 . S
H1348 C1345 0.950 . S
C1349 C1340 1.390 . S
C1349 H1342 0.950 . S
C1349 C1346 1.387 . S
C1350 C1351 1.387 . S
C1350 H1354 0.950 . S
C1350 C1359 1.390 . S
C1351 C1350 1.387 . S
C1351 C1353 1.387 1_554 S
H1352 C1359 0.950 . S
C1353 C1351 1.387 1_556 S
C1353 C1355 1.390 . S
C1353 H1357 0.950 . S
H1354 C1350 0.950 . S
C1355 C1353 1.390 . S
C1355 C1356 1.387 1_556 S
C1355 H1358 0.950 . S
C1356 C1355 1.387 1_554 S
C1356 C1359 1.387 . S
H1357 C1353 0.950 . S
H1358 C1355 0.950 . S
C1359 C1350 1.390 . S
C1359 H1352 0.950 . S
C1359 C1356 1.387 . S
C1360 C1361 1.387 . S
C1360 H1364 0.950 . S
C1360 C1369 1.390 . S
C1361 C1360 1.387 . S
C1361 C1363 1.387 1_554 S
H1362 C1369 0.950 . S
C1363 C1361 1.387 1_556 S
C1363 C1365 1.382 1_556 S
C1363 H1367 0.950 . S
H1364 C1360 0.950 . S
C1365 C1363 1.382 1_554 S
C1365 C1366 1.415 . S
C1365 H1368 0.932 1_554 S
C1366 C1365 1.415 . S
C1366 C1369 1.387 . S
H1367 C1363 0.950 . S
H1368 C1365 0.932 1_556 S
C1369 C1360 1.390 . S
C1369 H1362 0.950 . S
C1369 C1366 1.387 . S
C1370 C1371 1.387 . S
C1370 H1374 0.950 . S
C1370 C1379 1.390 . S
C1371 C1370 1.387 . S
C1371 C1373 1.387 1_554 S
H1372 C1379 0.950 . S
C1373 C1371 1.387 1_556 S
C1373 C1375 1.390 . S
C1373 H1377 0.950 . S
H1374 C1370 0.950 . S
C1375 C1373 1.390 . S
C1375 C1376 1.387 1_556 S
C1375 H1378 0.950 . S
C1376 C1375 1.387 1_554 S
C1376 C1379 1.387 . S
H1377 C1373 0.950 . S
H1378 C1375 0.950 . S
C1379 C1370 1.390 . S
C1379 H1372 0.950 . S
C1379 C1376 1.387 . S
C1380 C1381 1.387 . S
C1380 H1384 0.950 . S
C1380 C1389 1.390 . S
C1381 C1380 1.387 . S
C1381 C1383 1.387 . S
H1382 C1389 0.950 . S
C1383 C1381 1.387 . S
C1383 C1385 1.390 . S
C1383 H1387 0.950 . S
H1384 C1380 0.950 . S
C1385 C1383 1.390 . S
C1385 C1386 1.387 . S
C1385 H1388 0.950 . S
C1386 C1385 1.387 . S
C1386 C1389 1.387 . S
H1387 C1383 0.950 . S
H1388 C1385 0.950 . S
C1389 C1380 1.390 . S
C1389 H1382 0.950 . S
C1389 C1386 1.387 . S
C1390 C1391 1.387 . S
C1390 H1394 0.950 . S
C1390 C1399 1.390 . S
C1391 C1390 1.387 . S
C1391 C1393 1.387 . S
H1392 C1399 0.950 . S
C1393 C1391 1.387 . S
C1393 C1395 1.390 . S
C1393 H1397 0.950 . S
H1394 C1390 0.950 . S
C1395 C1393 1.390 . S
C1395 C1396 1.387 . S
C1395 H1398 0.950 . S
C1396 C1395 1.387 . S
C1396 C1399 1.387 . S
H1397 C1393 0.950 . S
H1398 C1395 0.950 . S
C1399 C1390 1.390 . S
C1399 H1392 0.950 . S
C1399 C1396 1.387 . S
C1400 C1401 1.387 . S
C1400 H1404 0.950 . S
C1400 C1409 1.390 . S
C1401 C1400 1.387 . S
C1401 C1403 1.387 . S
H1402 C1409 0.950 . S
C1403 C1401 1.387 . S
C1403 C1405 1.390 . S
C1403 H1407 0.950 . S
H1404 C1400 0.950 . S
C1405 C1403 1.390 . S
C1405 C1406 1.387 . S
C1405 H1408 0.950 . S
C1406 C1405 1.387 . S
C1406 C1409 1.387 . S
H1407 C1403 0.950 . S
H1408 C1405 0.950 . S
C1409 C1400 1.390 . S
C1409 H1402 0.950 . S
C1409 C1406 1.387 . S
C1410 C1411 1.387 . S
C1410 H1414 0.950 . S
C1410 C1419 1.390 . S
C1411 C1410 1.387 . S
C1411 C1413 1.387 . S
H1412 C1419 0.950 . S
C1413 C1411 1.387 . S
C1413 C1415 1.390 . S
C1413 H1417 0.950 . S
H1414 C1410 0.950 . S
C1415 C1413 1.390 . S
C1415 C1416 1.387 . S
C1415 H1418 0.950 . S
C1416 C1415 1.387 . S
C1416 C1419 1.387 . S
H1417 C1413 0.950 . S
H1418 C1415 0.950 . S
C1419 C1410 1.390 . S
C1419 H1412 0.950 . S
C1419 C1416 1.387 . S
C1420 C1421 1.387 . S
C1420 H1424 0.950 . S
C1420 C1429 1.390 . S
C1421 C1420 1.387 . S
C1421 C1423 1.387 . S
H1422 C1429 0.950 . S
C1423 C1421 1.387 . S
C1423 C1425 1.390 . S
C1423 H1427 0.950 . S
H1424 C1420 0.950 . S
C1425 C1423 1.390 . S
C1425 C1426 1.387 . S
C1425 H1428 0.950 . S
C1426 C1425 1.387 . S
C1426 C1429 1.387 . S
H1427 C1423 0.950 . S
H1428 C1425 0.950 . S
C1429 C1420 1.390 . S
C1429 H1422 0.950 . S
C1429 C1426 1.387 . S
C1430 C1431 1.387 . S
C1430 H1434 0.950 . S
C1430 C1439 1.390 . S
C1431 C1430 1.387 . S
C1431 C1433 1.387 . S
H1432 C1439 0.950 . S
C1433 C1431 1.387 . S
C1433 C1435 1.390 . S
C1433 H1437 0.950 . S
H1434 C1430 0.950 . S
C1435 C1433 1.390 . S
C1435 C1436 1.387 . S
C1435 H1438 0.950 . S
C1436 C1435 1.387 . S
C1436 C1439 1.387 . S
H1437 C1433 0.950 . S
H1438 C1435 0.950 . S
C1439 C1430 1.390 . S
C1439 H1432 0.950 . S
C1439 C1436 1.387 . S
C1440 C1441 1.387 . S
C1440 H1444 0.950 . S
C1440 C1449 1.390 . S
C1441 C1440 1.387 . S
C1441 C1443 1.387 . S
H1442 C1449 0.950 . S
C1443 C1441 1.387 . S
C1443 C1445 1.390 . S
C1443 H1447 0.950 . S
H1444 C1440 0.950 . S
C1445 C1443 1.390 . S
C1445 C1446 1.387 . S
C1445 H1448 0.950 . S
C1446 C1445 1.387 . S
C1446 C1449 1.387 . S
H1447 C1443 0.950 . S
H1448 C1445 0.950 . S
C1449 C1440 1.390 . S
C1449 H1442 0.950 . S
C1449 C1446 1.387 . S
C1450 C1451 1.387 . S
C1450 H1454 0.950 . S
C1450 C1459 1.390 . S
C1451 C1450 1.387 . S
C1451 C1453 1.387 . S
H1452 C1459 0.950 . S
C1453 C1451 1.387 . S
C1453 C1455 1.390 . S
C1453 H1457 0.950 . S
H1454 C1450 0.950 . S
C1455 C1453 1.390 . S
C1455 C1456 1.387 . S
C1455 H1458 0.950 . S
C1456 C1455 1.387 . S
C1456 C1459 1.387 . S
H1457 C1453 0.950 . S
H1458 C1455 0.950 . S
C1459 C1450 1.390 . S
C1459 H1452 0.950 . S
C1459 C1456 1.387 . S
C1460 C1461 1.387 . S
C1460 H1464 0.950 . S
C1460 C1469 1.390 . S
C1461 C1460 1.387 . S
C1461 C1463 1.387 . S
H1462 C1469 0.950 . S
C1463 C1461 1.387 . S
C1463 C1465 1.390 . S
C1463 H1467 0.950 . S
H1464 C1460 0.950 . S
C1465 C1463 1.390 . S
C1465 C1466 1.387 . S
C1465 H1468 0.950 . S
C1466 C1465 1.387 . S
C1466 C1469 1.387 . S
H1467 C1463 0.950 . S
H1468 C1465 0.950 . S
C1469 C1460 1.390 . S
C1469 H1462 0.950 . S
C1469 C1466 1.387 . S
C1470 C1471 1.387 . S
C1470 H1474 0.950 . S
C1470 C1479 1.390 . S
C1471 C1470 1.387 . S
C1471 C1473 1.387 . S
H1472 C1479 0.950 . S
C1473 C1471 1.387 . S
C1473 C1475 1.390 . S
C1473 H1477 0.950 . S
H1474 C1470 0.950 . S
C1475 C1473 1.390 . S
C1475 C1476 1.387 . S
C1475 H1478 0.950 . S
C1476 C1475 1.387 . S
C1476 C1479 1.387 . S
H1477 C1473 0.950 . S
H1478 C1475 0.950 . S
C1479 C1470 1.390 . S
C1479 H1472 0.950 . S
C1479 C1476 1.387 . S
C1480 C1481 1.387 . S
C1480 H1484 0.950 1_545 S
C1480 C1489 1.390 . S
C1481 C1480 1.387 . S
C1481 C1483 1.387 . S
H1482 C1489 0.950 . S
C1483 C1481 1.387 . S
C1483 C1485 1.390 . S
C1483 H1487 0.950 . S
H1484 C1480 0.950 1_565 S
C1485 C1483 1.390 . S
C1485 C1486 1.387 . S
C1485 H1488 0.950 . S
C1486 C1485 1.387 . S
C1486 C1489 1.387 . S
H1487 C1483 0.950 . S
H1488 C1485 0.950 . S
C1489 C1480 1.390 . S
C1489 H1482 0.950 . S
C1489 C1486 1.387 . S
C1490 C1491 1.387 . S
C1490 H1494 0.950 . S
C1490 C1499 1.390 . S
C1491 C1490 1.387 . S
C1491 C1493 1.387 . S
H1492 C1499 0.950 . S
C1493 C1491 1.387 . S
C1493 C1495 1.390 . S
C1493 H1497 0.950 . S
H1494 C1490 0.950 . S
C1495 C1493 1.390 . S
C1495 C1496 1.387 . S
C1495 H1498 0.950 1_655 S
C1496 C1495 1.387 . S
C1496 C1499 1.387 . S
H1497 C1493 0.950 . S
H1498 C1495 0.950 1_455 S
C1499 C1490 1.390 . S
C1499 H1492 0.950 . S
C1499 C1496 1.387 . S
C1500 C1501 1.387 . S
C1500 H1504 0.950 . S
C1500 C1509 1.390 . S
C1501 C1500 1.387 . S
C1501 C1503 1.387 . S
H1502 C1509 0.950 . S
C1503 C1501 1.387 . S
C1503 C1505 1.390 . S
C1503 H1507 0.950 . S
H1504 C1500 0.950 . S
C1505 C1503 1.390 . S
C1505 C1506 1.387 . S
C1505 H1508 0.950 . S
C1506 C1505 1.387 . S
C1506 C1509 1.387 . S
H1507 C1503 0.950 . S
H1508 C1505 0.950 . S
C1509 C1500 1.390 . S
C1509 H1502 0.950 . S
C1509 C1506 1.387 . S
C1510 C1511 1.387 . S
C1510 H1514 0.950 . S
C1510 C1519 1.390 . S
C1511 C1510 1.387 . S
C1511 C1513 1.387 . S
H1512 C1519 0.950 . S
C1513 C1511 1.387 . S
C1513 C1515 1.390 . S
C1513 H1517 0.950 . S
H1514 C1510 0.950 . S
C1515 C1513 1.390 . S
C1515 C1516 1.387 . S
C1515 H1518 0.950 . S
C1516 C1515 1.387 . S
C1516 C1519 1.387 . S
H1517 C1513 0.950 . S
H1518 C1515 0.950 . S
C1519 C1510 1.390 . S
C1519 H1512 0.950 . S
C1519 C1516 1.387 . S
C1520 C1521 1.387 . S
C1520 H1524 0.950 . S
C1520 C1529 1.390 . S
C1521 C1520 1.387 . S
C1521 C1523 1.387 . S
H1522 C1529 0.950 . S
C1523 C1521 1.387 . S
C1523 C1525 1.390 . S
C1523 H1527 0.950 . S
H1524 C1520 0.950 . S
C1525 C1523 1.390 . S
C1525 C1526 1.387 . S
C1525 H1528 0.950 . S
C1526 C1525 1.387 . S
C1526 C1529 1.387 . S
H1527 C1523 0.950 . S
H1528 C1525 0.950 . S
C1529 C1520 1.390 . S
C1529 H1522 0.950 . S
C1529 C1526 1.387 . S
C1530 C1531 1.387 . S
C1530 H1534 0.950 . S
C1530 C1539 1.390 . S
C1531 C1530 1.387 . S
C1531 C1533 1.387 . S
H1532 C1539 0.950 . S
C1533 C1531 1.387 . S
C1533 C1535 1.390 . S
C1533 H1537 0.950 . S
H1534 C1530 0.950 . S
C1535 C1533 1.390 . S
C1535 C1536 1.387 . S
C1535 H1538 0.950 . S
C1536 C1535 1.387 . S
C1536 C1539 1.387 . S
H1537 C1533 0.950 . S
H1538 C1535 0.950 . S
C1539 C1530 1.390 . S
C1539 H1532 0.950 . S
C1539 C1536 1.387 . S
C1540 C1541 1.387 . S
C1540 H1544 0.950 . S
C1540 C1549 1.390 . S
C1541 C1540 1.387 . S
C1541 C1543 1.387 . S
H1542 C1549 0.950 . S
C1543 C1541 1.387 . S
C1543 C1545 1.390 . S
C1543 H1547 0.950 . S
H1544 C1540 0.950 . S
C1545 C1543 1.390 . S
C1545 C1546 1.387 . S
C1545 H1548 0.950 . S
C1546 C1545 1.387 . S
C1546 C1549 1.387 . S
H1547 C1543 0.950 . S
H1548 C1545 0.950 . S
C1549 C1540 1.390 . S
C1549 H1542 0.950 . S
C1549 C1546 1.387 . S
C1550 C1551 1.387 . S
C1550 H1554 0.950 . S
C1550 C1559 1.390 . S
C1551 C1550 1.387 . S
C1551 C1553 1.387 . S
H1552 C1559 0.950 . S
C1553 C1551 1.387 . S
C1553 C1555 1.390 . S
C1553 H1557 0.950 1_455 S
H1554 C1550 0.950 . S
C1555 C1553 1.390 . S
C1555 C1556 1.387 . S
C1555 H1558 0.950 . S
C1556 C1555 1.387 . S
C1556 C1559 1.387 . S
H1557 C1553 0.950 1_655 S
H1558 C1555 0.950 . S
C1559 C1550 1.390 . S
C1559 H1552 0.950 . S
C1559 C1556 1.387 . S
C1560 C1561 1.387 1_455 S
C1560 H1564 0.950 . S
C1560 C1569 1.390 . S
C1561 C1560 1.387 1_655 S
C1561 C1563 1.387 . S
H1562 C1569 0.950 . S
C1563 C1561 1.387 . S
C1563 C1565 1.390 1_655 S
C1563 H1567 0.950 . S
H1564 C1560 0.950 . S
C1565 C1563 1.390 1_455 S
C1565 C1566 1.387 . S
C1565 H1568 0.950 . S
C1566 C1565 1.387 . S
C1566 C1569 1.387 . S
H1567 C1563 0.950 . S
H1568 C1565 0.950 . S
C1569 C1560 1.390 . S
C1569 H1562 0.950 . S
C1569 C1566 1.387 . S
C1570 C1571 1.387 . S
C1570 H1574 0.950 . S
C1570 C1579 1.390 . S
C1571 C1570 1.387 . S
C1571 C1573 1.387 . S
H1572 C1579 0.950 . S
C1573 C1571 1.387 . S
C1573 C1575 1.390 . S
C1573 H1577 0.950 . S
H1574 C1570 0.950 . S
C1575 C1573 1.390 . S
C1575 C1576 1.387 . S
C1575 H1578 0.950 . S
C1576 C1575 1.387 . S
C1576 C1579 1.387 . S
H1577 C1573 0.950 . S
H1578 C1575 0.950 . S
C1579 C1570 1.390 . S
C1579 H1572 0.950 . S
C1579 C1576 1.387 . S
C1580 C1581 1.387 . S
C1580 H1584 0.950 . S
C1580 C1589 1.390 1_565 S
C1581 C1580 1.387 . S
C1581 C1583 1.387 . S
H1582 C1589 0.950 . S
C1583 C1581 1.387 . S
C1583 C1585 1.390 . S
C1583 H1587 0.950 . S
H1584 C1580 0.950 . S
C1585 C1583 1.390 . S
C1585 C1586 1.387 1_565 S
C1585 H1588 0.950 1_565 S
C1586 C1585 1.387 1_545 S
C1586 C1589 1.387 . S
H1587 C1583 0.950 . S
H1588 C1585 0.950 1_545 S
C1589 C1580 1.390 1_545 S
C1589 H1582 0.950 . S
C1589 C1586 1.387 . S
C1590 C1591 1.387 . S
C1590 H1594 0.950 . S
C1590 C1599 1.390 . S
C1591 C1590 1.387 . S
C1591 C1593 1.387 . S
H1592 C1599 0.950 . S
C1593 C1591 1.387 . S
C1593 C1595 1.390 . S
C1593 H1597 0.950 . S
H1594 C1590 0.950 . S
C1595 C1593 1.390 . S
C1595 C1596 1.387 . S
C1595 H1598 0.950 . S
C1596 C1595 1.387 . S
C1596 C1599 1.387 . S
H1597 C1593 0.950 . S
H1598 C1595 0.950 . S
C1599 C1590 1.390 . S
C1599 H1592 0.950 . S
C1599 C1596 1.387 . S
C1600 C1601 1.387 . S
C1600 H1604 0.950 . S
C1600 C1609 1.390 . S
C1601 C1600 1.387 . S
C1601 C1603 1.387 . S
H1602 C1609 0.950 . S
C1603 C1601 1.387 . S
C1603 C1605 1.390 . S
C1603 H1607 0.950 . S
H1604 C1600 0.950 . S
C1605 C1603 1.390 . S
C1605 C1606 1.387 . S
C1605 H1608 0.950 . S
C1606 C1605 1.387 . S
C1606 C1609 1.387 . S
H1607 C1603 0.950 . S
H1608 C1605 0.950 . S
C1609 C1600 1.390 . S
C1609 H1602 0.950 . S
C1609 C1606 1.387 . S
C1610 C1611 1.387 . S
C1610 H1614 0.950 . S
C1610 C1619 1.390 . S
C1611 C1610 1.387 . S
C1611 C1613 1.387 . S
H1612 C1619 0.950 . S
C1613 C1611 1.387 . S
C1613 C1615 1.390 . S
C1613 H1617 0.950 . S
H1614 C1610 0.950 . S
C1615 C1613 1.390 . S
C1615 C1616 1.387 . S
C1615 H1618 0.950 . S
C1616 C1615 1.387 . S
C1616 C1619 1.387 . S
H1617 C1613 0.950 . S
H1618 C1615 0.950 . S
C1619 C1610 1.390 . S
C1619 H1612 0.950 . S
C1619 C1616 1.387 . S
C1620 C1621 1.387 . S
C1620 H1624 0.950 . S
C1620 C1629 1.390 . S
C1621 C1620 1.387 . S
C1621 C1623 1.387 . S
H1622 C1629 0.950 . S
C1623 C1621 1.387 . S
C1623 C1625 1.390 . S
C1623 H1627 0.950 . S
H1624 C1620 0.950 . S
C1625 C1623 1.390 . S
C1625 C1626 1.387 . S
C1625 H1628 0.950 . S
C1626 C1625 1.387 . S
C1626 C1629 1.387 . S
H1627 C1623 0.950 . S
H1628 C1625 0.950 . S
C1629 C1620 1.390 . S
C1629 H1622 0.950 . S
C1629 C1626 1.387 . S
C1630 C1631 1.387 . S
C1630 H1634 0.950 . S
C1630 C1639 1.390 . S
C1631 C1630 1.387 . S
C1631 C1633 1.387 . S
H1632 C1639 0.950 . S
C1633 C1631 1.387 . S
C1633 C1635 1.390 . S
C1633 H1637 0.950 . S
H1634 C1630 0.950 . S
C1635 C1633 1.390 . S
C1635 C1636 1.387 . S
C1635 H1638 0.950 . S
C1636 C1635 1.387 . S
C1636 C1639 1.387 . S
H1637 C1633 0.950 . S
H1638 C1635 0.950 . S
C1639 C1630 1.390 . S
C1639 H1632 0.950 . S
C1639 C1636 1.387 . S
C1640 C1641 1.387 . S
C1640 H1644 0.950 . S
C1640 C1649 1.390 . S
C1641 C1640 1.387 . S
C1641 C1643 1.387 . S
H1642 C1649 0.950 . S
C1643 C1641 1.387 . S
C1643 C1645 1.390 . S
C1643 H1647 0.950 . S
H1644 C1640 0.950 . S
C1645 C1643 1.390 . S
C1645 C1646 1.387 . S
C1645 H1648 0.950 . S
C1646 C1645 1.387 . S
C1646 C1649 1.387 . S
H1647 C1643 0.950 . S
H1648 C1645 0.950 . S
C1649 C1640 1.390 . S
C1649 H1642 0.950 . S
C1649 C1646 1.387 . S
C1650 C1651 1.387 . S
C1650 H1654 0.950 . S
C1650 C1659 1.390 . S
C1651 C1650 1.387 . S
C1651 C1653 1.387 1_554 S
H1652 C1659 0.950 . S
C1653 C1651 1.387 1_556 S
C1653 C1655 1.390 1_565 S
C1653 H1657 0.950 . S
H1654 C1650 0.950 . S
C1655 C1653 1.390 1_545 S
C1655 C1656 1.387 1_556 S
C1655 H1658 0.950 . S
C1656 C1655 1.387 1_554 S
C1656 C1659 1.387 1_545 S
H1657 C1653 0.950 . S
H1658 C1655 0.950 . S
C1659 C1650 1.390 . S
C1659 H1652 0.950 . S
C1659 C1656 1.387 1_565 S
C1660 C1661 1.387 . S
C1660 H1664 0.950 . S
C1660 C1669 1.390 1_455 S
C1661 C1660 1.387 . S
C1661 C1663 1.387 1_554 S
H1662 C1669 0.950 . S
C1663 C1661 1.387 1_556 S
C1663 C1665 1.388 1_556 S
C1663 H1667 0.950 . S
H1664 C1660 0.950 . S
C1665 C1663 1.388 1_554 S
C1665 C1666 1.394 1_455 S
C1665 H1668 0.946 1_554 S
C1666 C1665 1.394 1_655 S
C1666 C1669 1.387 . S
H1667 C1663 0.950 . S
H1668 C1665 0.946 1_556 S
C1669 C1660 1.390 1_655 S
C1669 H1662 0.950 . S
C1669 C1666 1.387 . S
C1670 C1671 1.387 . S
C1670 H1674 0.950 . S
C1670 C1679 1.390 . S
C1671 C1670 1.387 . S
C1671 C1673 1.387 . S
H1672 C1679 0.950 . S
C1673 C1671 1.387 . S
C1673 C1675 1.390 . S
C1673 H1677 0.950 . S
H1674 C1670 0.950 . S
C1675 C1673 1.390 . S
C1675 C1676 1.387 . S
C1675 H1678 0.950 . S
C1676 C1675 1.387 . S
C1676 C1679 1.387 . S
H1677 C1673 0.950 . S
H1678 C1675 0.950 . S
C1679 C1670 1.390 . S
C1679 H1672 0.950 . S
C1679 C1676 1.387 . S
C1680 C1681 1.387 . S
C1680 H1684 0.950 . S
C1680 C1689 1.390 . S
C1681 C1680 1.387 . S
C1681 C1683 1.387 . S
H1682 C1689 0.950 . S
C1683 C1681 1.387 . S
C1683 C1685 1.390 . S
C1683 H1687 0.950 . S
H1684 C1680 0.950 . S
C1685 C1683 1.390 . S
C1685 C1686 1.387 . S
C1685 H1688 0.950 . S
C1686 C1685 1.387 . S
C1686 C1689 1.387 . S
H1687 C1683 0.950 . S
H1688 C1685 0.950 . S
C1689 C1680 1.390 . S
C1689 H1682 0.950 . S
C1689 C1686 1.387 . S
C1690 C1691 1.387 . S
C1690 H1694 0.950 . S
C1690 C1699 1.390 . S
C1691 C1690 1.387 . S
C1691 C1693 1.387 . S
H1692 C1699 0.950 . S
C1693 C1691 1.387 . S
C1693 C1695 1.390 . S
C1693 H1697 0.950 . S
H1694 C1690 0.950 . S
C1695 C1693 1.390 . S
C1695 C1696 1.387 . S
C1695 H1698 0.950 . S
C1696 C1695 1.387 . S
C1696 C1699 1.387 . S
H1697 C1693 0.950 . S
H1698 C1695 0.950 . S
C1699 C1690 1.390 . S
C1699 H1692 0.950 . S
C1699 C1696 1.387 . S
C1700 C1701 1.387 . S
C1700 H1704 0.950 . S
C1700 C1709 1.390 . S
C1701 C1700 1.387 . S
C1701 C1703 1.387 . S
H1702 C1709 0.950 . S
C1703 C1701 1.387 . S
C1703 C1705 1.390 . S
C1703 H1707 0.950 . S
H1704 C1700 0.950 . S
C1705 C1703 1.390 . S
C1705 C1706 1.387 . S
C1705 H1708 0.950 . S
C1706 C1705 1.387 . S
C1706 C1709 1.387 . S
H1707 C1703 0.950 . S
H1708 C1705 0.950 . S
C1709 C1700 1.390 . S
C1709 H1702 0.950 . S
C1709 C1706 1.387 . S
C1710 C1711 1.387 1_545 S
C1710 H1714 0.950 . S
C1710 C1719 1.390 . S
C1711 C1710 1.387 1_565 S
C1711 C1713 1.387 1_556 S
H1712 C1719 0.950 . S
C1713 C1711 1.387 1_554 S
C1713 C1715 1.390 1_565 S
C1713 H1717 0.950 . S
H1714 C1710 0.950 . S
C1715 C1713 1.390 1_545 S
C1715 C1716 1.387 1_554 S
C1715 H1718 0.950 . S
C1716 C1715 1.387 1_556 S
C1716 C1719 1.387 . S
H1717 C1713 0.950 . S
H1718 C1715 0.950 . S
C1719 C1710 1.390 . S
C1719 H1712 0.950 . S
C1719 C1716 1.387 . S
C1720 C1721 1.387 1_554 S
C1720 H1724 0.950 . S
C1720 C1729 1.390 1_655 S
C1721 C1720 1.387 1_556 S
C1721 C1723 1.387 . S
H1722 C1729 0.950 . S
C1723 C1721 1.387 . S
C1723 C1725 1.390 . S
C1723 H1727 0.950 . S
H1724 C1720 0.950 . S
C1725 C1723 1.390 . S
C1725 C1726 1.387 1_655 S
C1725 H1728 0.950 1_655 S
C1726 C1725 1.387 1_455 S
C1726 C1729 1.387 1_556 S
H1727 C1723 0.950 . S
H1728 C1725 0.950 1_455 S
C1729 C1720 1.390 1_455 S
C1729 H1722 0.950 . S
C1729 C1726 1.387 1_554 S
C1730 C1731 1.387 . S
C1730 H1734 0.950 . S
C1730 C1739 1.390 . S
C1731 C1730 1.387 . S
C1731 C1733 1.387 . S
H1732 C1739 0.950 . S
C1733 C1731 1.387 . S
C1733 C1735 1.390 . S
C1733 H1737 0.950 . S
H1734 C1730 0.950 . S
C1735 C1733 1.390 . S
C1735 C1736 1.387 . S
C1735 H1738 0.950 . S
C1736 C1735 1.387 . S
C1736 C1739 1.387 . S
H1737 C1733 0.950 . S
H1738 C1735 0.950 . S
C1739 C1730 1.390 . S
C1739 H1732 0.950 . S
C1739 C1736 1.387 . S
C1740 C1741 1.387 1_655 S
C1740 H1744 0.950 . S
C1740 C1749 1.390 . S
C1741 C1740 1.387 1_455 S
C1741 C1743 1.387 . S
H1742 C1749 0.950 . S
C1743 C1741 1.387 . S
C1743 C1745 1.390 1_455 S
C1743 H1747 0.950 . S
H1744 C1740 0.950 . S
C1745 C1743 1.390 1_655 S
C1745 C1746 1.387 . S
C1745 H1748 0.950 . S
C1746 C1745 1.387 . S
C1746 C1749 1.387 . S
H1747 C1743 0.950 . S
H1748 C1745 0.950 . S
C1749 C1740 1.390 . S
C1749 H1742 0.950 . S
C1749 C1746 1.387 . S
C1750 C1751 1.387 . S
C1750 H1754 0.950 . S
C1750 C1759 1.390 . S
C1751 C1750 1.387 . S
C1751 C1753 1.387 . S
H1752 C1759 0.950 . S
C1753 C1751 1.387 . S
C1753 C1755 1.390 . S
C1753 H1757 0.950 . S
H1754 C1750 0.950 . S
C1755 C1753 1.390 . S
C1755 C1756 1.387 . S
C1755 H1758 0.950 . S
C1756 C1755 1.387 . S
C1756 C1759 1.387 . S
H1757 C1753 0.950 . S
H1758 C1755 0.950 . S
C1759 C1750 1.390 . S
C1759 H1752 0.950 . S
C1759 C1756 1.387 . S
C1760 C1761 1.387 . S
C1760 H1764 0.950 . S
C1760 C1769 1.390 1_565 S
C1761 C1760 1.387 . S
C1761 C1763 1.387 1_565 S
H1762 C1769 0.950 . S
C1763 C1761 1.387 1_545 S
C1763 C1765 1.390 . S
C1763 H1767 0.950 1_545 S
H1764 C1760 0.950 . S
C1765 C1763 1.390 . S
C1765 C1766 1.387 . S
C1765 H1768 0.950 . S
C1766 C1765 1.387 . S
C1766 C1769 1.387 . S
H1767 C1763 0.950 1_565 S
H1768 C1765 0.950 . S
C1769 C1760 1.390 1_545 S
C1769 H1762 0.950 . S
C1769 C1766 1.387 . S
C1770 C1771 1.387 . S
C1770 H1774 0.950 . S
C1770 C1779 1.390 . S
C1771 C1770 1.387 . S
C1771 C1773 1.387 . S
H1772 C1779 0.950 . S
C1773 C1771 1.387 . S
C1773 C1775 1.390 . S
C1773 H1777 0.950 . S
H1774 C1770 0.950 . S
C1775 C1773 1.390 . S
C1775 C1776 1.387 . S
C1775 H1778 0.950 . S
C1776 C1775 1.387 . S
C1776 C1779 1.387 . S
H1777 C1773 0.950 . S
H1778 C1775 0.950 . S
C1779 C1770 1.390 . S
C1779 H1772 0.950 . S
C1779 C1776 1.387 . S
C1780 C1781 1.387 . S
C1780 H1784 0.950 . S
C1780 C1789 1.390 . S
C1781 C1780 1.387 . S
C1781 C1783 1.387 . S
H1782 C1789 0.950 . S
C1783 C1781 1.387 . S
C1783 C1785 1.390 . S
C1783 H1787 0.950 . S
H1784 C1780 0.950 . S
C1785 C1783 1.390 . S
C1785 C1786 1.387 . S
C1785 H1788 0.950 . S
C1786 C1785 1.387 . S
C1786 C1789 1.387 . S
H1787 C1783 0.950 . S
H1788 C1785 0.950 . S
C1789 C1780 1.390 . S
C1789 H1782 0.950 . S
C1789 C1786 1.387 . S
C1790 C1791 1.387 . S
C1790 H1794 0.950 . S
C1790 C1799 1.390 . S
C1791 C1790 1.387 . S
C1791 C1793 1.387 . S
H1792 C1799 0.950 . S
C1793 C1791 1.387 . S
C1793 C1795 1.390 . S
C1793 H1797 0.950 . S
H1794 C1790 0.950 . S
C1795 C1793 1.390 . S
C1795 C1796 1.387 . S
C1795 H1798 0.950 . S
C1796 C1795 1.387 . S
C1796 C1799 1.387 . S
H1797 C1793 0.950 . S
H1798 C1795 0.950 . S
C1799 C1790 1.390 . S
C1799 H1792 0.950 . S
C1799 C1796 1.387 . S
C1800 C1801 1.387 . S
C1800 H1804 0.950 . S
C1800 C1809 1.390 . S
C1801 C1800 1.387 . S
C1801 C1803 1.387 . S
H1802 C1809 0.950 . S
C1803 C1801 1.387 . S
C1803 C1805 1.390 . S
C1803 H1807 0.950 . S
H1804 C1800 0.950 . S
C1805 C1803 1.390 . S
C1805 C1806 1.387 . S
C1805 H1808 0.950 . S
C1806 C1805 1.387 . S
C1806 C1809 1.387 . S
H1807 C1803 0.950 . S
H1808 C1805 0.950 . S
C1809 C1800 1.390 . S
C1809 H1802 0.950 . S
C1809 C1806 1.387 . S
C1810 C1811 1.387 . S
C1810 H1814 0.950 . S
C1810 C1819 1.390 . S
C1811 C1810 1.387 . S
C1811 C1813 1.387 . S
H1812 C1819 0.950 . S
C1813 C1811 1.387 . S
C1813 C1815 1.390 . S
C1813 H1817 0.950 . S
H1814 C1810 0.950 . S
C1815 C1813 1.390 . S
C1815 C1816 1.387 . S
C1815 H1818 0.950 . S
C1816 C1815 1.387 . S
C1816 C1819 1.387 . S
H1817 C1813 0.950 . S
H1818 C1815 0.950 . S
C1819 C1810 1.390 . S
C1819 H1812 0.950 . S
C1819 C1816 1.387 . S
C1820 C1821 1.387 . S
C1820 H1824 0.950 . S
C1820 C1829 1.390 . S
C1821 C1820 1.387 . S
C1821 C1823 1.387 . S
H1822 C1829 0.950 . S
C1823 C1821 1.387 . S
C1823 C1825 1.390 . S
C1823 H1827 0.950 . S
H1824 C1820 0.950 . S
C1825 C1823 1.390 . S
C1825 C1826 1.387 . S
C1825 H1828 0.950 . S
C1826 C1825 1.387 . S
C1826 C1829 1.387 . S
H1827 C1823 0.950 . S
H1828 C1825 0.950 . S
C1829 C1820 1.390 . S
C1829 H1822 0.950 . S
C1829 C1826 1.387 . S
C1830 C1831 1.387 . S
C1830 H1834 0.950 . S
C1830 C1839 1.390 . S
C1831 C1830 1.387 . S
C1831 C1833 1.387 . S
H1832 C1839 0.950 . S
C1833 C1831 1.387 . S
C1833 C1835 1.390 . S
C1833 H1837 0.950 . S
H1834 C1830 0.950 . S
C1835 C1833 1.390 . S
C1835 C1836 1.387 . S
C1835 H1838 0.950 . S
C1836 C1835 1.387 . S
C1836 C1839 1.387 . S
H1837 C1833 0.950 . S
H1838 C1835 0.950 . S
C1839 C1830 1.390 . S
C1839 H1832 0.950 . S
C1839 C1836 1.387 . S
C1840 C1841 1.387 . S
C1840 H1844 0.950 . S
C1840 C1849 1.390 . S
C1841 C1840 1.387 . S
C1841 C1843 1.387 . S
H1842 C1849 0.950 . S
C1843 C1841 1.387 . S
C1843 C1845 1.390 . S
C1843 H1847 0.950 . S
H1844 C1840 0.950 . S
C1845 C1843 1.390 . S
C1845 C1846 1.387 . S
C1845 H1848 0.950 . S
C1846 C1845 1.387 . S
C1846 C1849 1.387 . S
H1847 C1843 0.950 . S
H1848 C1845 0.950 . S
C1849 C1840 1.390 . S
C1849 H1842 0.950 . S
C1849 C1846 1.387 . S
C1850 C1851 1.387 . S
C1850 H1854 0.950 . S
C1850 C1859 1.390 . S
C1851 C1850 1.387 . S
C1851 C1853 1.387 . S
H1852 C1859 0.950 . S
C1853 C1851 1.387 . S
C1853 C1855 1.390 . S
C1853 H1857 0.950 . S
H1854 C1850 0.950 . S
C1855 C1853 1.390 . S
C1855 C1856 1.387 . S
C1855 H1858 0.950 . S
C1856 C1855 1.387 . S
C1856 C1859 1.387 . S
H1857 C1853 0.950 . S
H1858 C1855 0.950 . S
C1859 C1850 1.390 . S
C1859 H1852 0.950 . S
C1859 C1856 1.387 . S
C1860 C1861 1.387 . S
C1860 H1864 0.950 . S
C1860 C1869 1.390 . S
C1861 C1860 1.387 . S
C1861 C1863 1.387 . S
H1862 C1869 0.950 . S
C1863 C1861 1.387 . S
C1863 C1865 1.390 . S
C1863 H1867 0.950 . S
H1864 C1860 0.950 . S
C1865 C1863 1.390 . S
C1865 C1866 1.387 . S
C1865 H1868 0.950 . S
C1866 C1865 1.387 . S
C1866 C1869 1.387 . S
H1867 C1863 0.950 . S
H1868 C1865 0.950 . S
C1869 C1860 1.390 . S
C1869 H1862 0.950 . S
C1869 C1866 1.387 . S
C1870 C1871 1.387 . S
C1870 H1874 0.950 . S
C1870 C1879 1.390 . S
C1871 C1870 1.387 . S
C1871 C1873 1.387 . S
H1872 C1879 0.950 . S
C1873 C1871 1.387 . S
C1873 C1875 1.390 . S
C1873 H1877 0.950 . S
H1874 C1870 0.950 . S
C1875 C1873 1.390 . S
C1875 C1876 1.387 . S
C1875 H1878 0.950 . S
C1876 C1875 1.387 . S
C1876 C1879 1.387 . S
H1877 C1873 0.950 . S
H1878 C1875 0.950 . S
C1879 C1870 1.390 . S
C1879 H1872 0.950 . S
C1879 C1876 1.387 . S
C1880 C1881 1.387 . S
C1880 H1884 0.950 . S
C1880 C1889 1.390 . S
C1881 C1880 1.387 . S
C1881 C1883 1.387 . S
H1882 C1889 0.950 . S
C1883 C1881 1.387 . S
C1883 C1885 1.390 . S
C1883 H1887 0.950 . S
H1884 C1880 0.950 . S
C1885 C1883 1.390 . S
C1885 C1886 1.387 . S
C1885 H1888 0.950 . S
C1886 C1885 1.387 . S
C1886 C1889 1.387 . S
H1887 C1883 0.950 . S
H1888 C1885 0.950 . S
C1889 C1880 1.390 . S
C1889 H1882 0.950 . S
C1889 C1886 1.387 . S
C1890 C1891 1.387 . S
C1890 H1894 0.950 . S
C1890 C1899 1.390 . S
C1891 C1890 1.387 . S
C1891 C1893 1.387 . S
H1892 C1899 0.950 . S
C1893 C1891 1.387 . S
C1893 C1895 1.390 . S
C1893 H1897 0.950 . S
H1894 C1890 0.950 . S
C1895 C1893 1.390 . S
C1895 C1896 1.387 . S
C1895 H1898 0.950 . S
C1896 C1895 1.387 . S
C1896 C1899 1.387 . S
H1897 C1893 0.950 . S
H1898 C1895 0.950 . S
C1899 C1890 1.390 . S
C1899 H1892 0.950 . S
C1899 C1896 1.387 . S
C1900 C1901 1.387 . S
C1900 H1904 0.950 . S
C1900 C1909 1.390 . S
C1901 C1900 1.387 . S
C1901 C1903 1.387 . S
H1902 C1909 0.950 . S
C1903 C1901 1.387 . S
C1903 C1905 1.390 . S
C1903 H1907 0.950 . S
H1904 C1900 0.950 . S
C1905 C1903 1.390 . S
C1905 C1906 1.387 . S
C1905 H1908 0.950 . S
C1906 C1905 1.387 . S
C1906 C1909 1.387 . S
H1907 C1903 0.950 . S
H1908 C1905 0.950 . S
C1909 C1900 1.390 . S
C1909 H1902 0.950 . S
C1909 C1906 1.387 . S
C1910 C1911 1.387 . S
C1910 H1914 0.950 . S
C1910 C1919 1.390 . S
C1911 C1910 1.387 . S
C1911 C1913 1.387 . S
H1912 C1919 0.950 . S
C1913 C1911 1.387 . S
C1913 C1915 1.390 . S
C1913 H1917 0.950 . S
H1914 C1910 0.950 . S
C1915 C1913 1.390 . S
C1915 C1916 1.387 . S
C1915 H1918 0.950 . S
C1916 C1915 1.387 . S
C1916 C1919 1.387 . S
H1917 C1913 0.950 . S
H1918 C1915 0.950 . S
C1919 C1910 1.390 . S
C1919 H1912 0.950 . S
C1919 C1916 1.387 . S
C1920 C1921 1.387 1_455 S
C1920 H1924 0.950 . S
C1920 C1929 1.390 . S
C1921 C1920 1.387 1_655 S
C1921 C1923 1.387 . S
H1922 C1929 0.950 . S
C1923 C1921 1.387 . S
C1923 C1925 1.390 . S
C1923 H1927 0.950 . S
H1924 C1920 0.950 . S
C1925 C1923 1.390 . S
C1925 C1926 1.387 1_655 S
C1925 H1928 0.950 . S
C1926 C1925 1.387 1_455 S
C1926 C1929 1.387 . S
H1927 C1923 0.950 . S
H1928 C1925 0.950 . S
C1929 C1920 1.390 . S
C1929 H1922 0.950 . S
C1929 C1926 1.387 . S
C1930 C1931 1.387 . S
C1930 H1934 0.950 . S
C1930 C1939 1.390 . S
C1931 C1930 1.387 . S
C1931 C1933 1.387 . S
H1932 C1939 0.950 . S
C1933 C1931 1.387 . S
C1933 C1935 1.390 . S
C1933 H1937 0.950 . S
H1934 C1930 0.950 . S
C1935 C1933 1.390 . S
C1935 C1936 1.387 . S
C1935 H1938 0.950 . S
C1936 C1935 1.387 . S
C1936 C1939 1.387 . S
H1937 C1933 0.950 . S
H1938 C1935 0.950 . S
C1939 C1930 1.390 . S
C1939 H1932 0.950 . S
C1939 C1936 1.387 . S
C1940 C1941 1.387 . S
C1940 H1944 0.950 . S
C1940 C1949 1.390 1_545 S
C1941 C1940 1.387 . S
C1941 C1943 1.387 . S
H1942 C1949 0.950 . S
C1943 C1941 1.387 . S
C1943 C1945 1.390 1_545 S
C1943 H1947 0.950 . S
H1944 C1940 0.950 . S
C1945 C1943 1.390 1_565 S
C1945 C1946 1.387 . S
C1945 H1948 0.950 . S
C1946 C1945 1.387 . S
C1946 C1949 1.387 . S
H1947 C1943 0.950 . S
H1948 C1945 0.950 . S
C1949 C1940 1.390 1_565 S
C1949 H1942 0.950 . S
C1949 C1946 1.387 . S
C1950 C1951 1.387 . S
C1950 H1954 0.950 . S
C1950 C1959 1.390 1_545 S
C1951 C1950 1.387 . S
C1951 C1953 1.387 . S
H1952 C1959 0.950 . S
C1953 C1951 1.387 . S
C1953 C1955 1.390 1_545 S
C1953 H1957 0.950 . S
H1954 C1950 0.950 . S
C1955 C1953 1.390 1_565 S
C1955 C1956 1.387 . S
C1955 H1958 0.950 . S
C1956 C1955 1.387 . S
C1956 C1959 1.387 . S
H1957 C1953 0.950 . S
H1958 C1955 0.950 . S
C1959 C1950 1.390 1_565 S
C1959 H1952 0.950 . S
C1959 C1956 1.387 . S
C1960 C1961 1.387 1_655 S
C1960 H1964 0.950 . S
C1960 C1969 1.390 . S
C1961 C1960 1.387 1_455 S
C1961 C1963 1.387 . S
H1962 C1969 0.950 . S
C1963 C1961 1.387 . S
C1963 C1965 1.390 . S
C1963 H1967 0.950 . S
H1964 C1960 0.950 . S
C1965 C1963 1.390 . S
C1965 C1966 1.387 1_455 S
C1965 H1968 0.950 . S
C1966 C1965 1.387 1_655 S
C1966 C1969 1.387 . S
H1967 C1963 0.950 . S
H1968 C1965 0.950 . S
C1969 C1960 1.390 . S
C1969 H1962 0.950 . S
C1969 C1966 1.387 . S
C1970 C1971 1.387 . S
C1970 H1974 0.950 . S
C1970 C1979 1.390 . S
C1971 C1970 1.387 . S
C1971 C1973 1.387 . S
H1972 C1979 0.950 . S
C1973 C1971 1.387 . S
C1973 C1975 1.390 . S
C1973 H1977 0.950 . S
H1974 C1970 0.950 . S
C1975 C1973 1.390 . S
C1975 C1976 1.387 . S
C1975 H1978 0.950 . S
C1976 C1975 1.387 . S
C1976 C1979 1.387 . S
H1977 C1973 0.950 . S
H1978 C1975 0.950 . S
C1979 C1970 1.390 . S
C1979 H1972 0.950 . S
C1979 C1976 1.387 . S
C1980 C1981 1.387 . S
C1980 H1984 0.950 . S
C1980 C1989 1.390 1_655 S
C1981 C1980 1.387 . S
C1981 C1983 1.387 . S
H1982 C1989 0.950 . S
C1983 C1981 1.387 . S
C1983 C1985 1.390 1_655 S
C1983 H1987 0.950 . S
H1984 C1980 0.950 . S
C1985 C1983 1.390 1_455 S
C1985 C1986 1.387 . S
C1985 H1988 0.950 . S
C1986 C1985 1.387 . S
C1986 C1989 1.387 . S
H1987 C1983 0.950 . S
H1988 C1985 0.950 . S
C1989 C1980 1.390 1_455 S
C1989 H1982 0.950 . S
C1989 C1986 1.387 . S
C1990 C1991 1.387 . S
C1990 H1994 0.950 . S
C1990 C1999 1.390 . S
C1991 C1990 1.387 . S
C1991 C1993 1.387 . S
H1992 C1999 0.950 . S
C1993 C1991 1.387 . S
C1993 C1995 1.390 . S
C1993 H1997 0.950 . S
H1994 C1990 0.950 . S
C1995 C1993 1.390 . S
C1995 C1996 1.387 . S
C1995 H1998 0.950 . S
C1996 C1995 1.387 . S
C1996 C1999 1.387 . S
H1997 C1993 0.950 . S
H1998 C1995 0.950 . S
C1999 C1990 1.390 . S
C1999 H1992 0.950 . S
C1999 C1996 1.387 . S
C2000 C2001 1.387 . S
C2000 H2004 0.950 . S
C2000 C2009 1.390 1_545 S
C2001 C2000 1.387 . S
C2001 C2003 1.387 . S
H2002 C2009 0.950 . S
C2003 C2001 1.387 . S
C2003 C2005 1.390 1_545 S
C2003 H2007 0.950 . S
H2004 C2000 0.950 . S
C2005 C2003 1.390 1_565 S
C2005 C2006 1.387 . S
C2005 H2008 0.950 . S
C2006 C2005 1.387 . S
C2006 C2009 1.387 . S
H2007 C2003 0.950 . S
H2008 C2005 0.950 . S
C2009 C2000 1.390 1_565 S
C2009 H2002 0.950 . S
C2009 C2006 1.387 . S
C2010 C2011 1.387 . S
C2010 H2014 0.950 . S
C2010 C2019 1.390 1_655 S
C2011 C2010 1.387 . S
C2011 C2013 1.387 . S
H2012 C2019 0.950 . S
C2013 C2011 1.387 . S
C2013 C2015 1.390 1_655 S
C2013 H2017 0.950 . S
H2014 C2010 0.950 . S
C2015 C2013 1.390 1_455 S
C2015 C2016 1.387 . S
C2015 H2018 0.950 . S
C2016 C2015 1.387 . S
C2016 C2019 1.387 . S
H2017 C2013 0.950 . S
H2018 C2015 0.950 . S
C2019 C2010 1.390 1_455 S
C2019 H2012 0.950 . S
C2019 C2016 1.387 . S
C2020 C2021 1.387 . S
C2020 H2024 0.950 . S
C2020 C2029 1.390 . S
C2021 C2020 1.387 . S
C2021 C2023 1.387 . S
H2022 C2029 0.950 . S
C2023 C2021 1.387 . S
C2023 C2025 1.390 . S
C2023 H2027 0.950 . S
H2024 C2020 0.950 . S
C2025 C2023 1.390 . S
C2025 C2026 1.387 . S
C2025 H2028 0.950 . S
C2026 C2025 1.387 . S
C2026 C2029 1.387 . S
H2027 C2023 0.950 . S
H2028 C2025 0.950 . S
C2029 C2020 1.390 . S
C2029 H2022 0.950 . S
C2029 C2026 1.387 . S
C2030 C2031 1.387 . S
C2030 H2034 0.950 . S
C2030 C2039 1.390 1_545 S
C2031 C2030 1.387 . S
C2031 C2033 1.387 . S
H2032 C2039 0.950 . S
C2033 C2031 1.387 . S
C2033 C2035 1.390 1_545 S
C2033 H2037 0.950 . S
H2034 C2030 0.950 . S
C2035 C2033 1.390 1_565 S
C2035 C2036 1.387 . S
C2035 H2038 0.950 . S
C2036 C2035 1.387 . S
C2036 C2039 1.387 . S
H2037 C2033 0.950 . S
H2038 C2035 0.950 . S
C2039 C2030 1.390 1_565 S
C2039 H2032 0.950 . S
C2039 C2036 1.387 . S
C2040 C2041 1.387 . S
C2040 H2044 0.950 . S
C2040 C2049 1.390 . S
C2041 C2040 1.387 . S
C2041 C2043 1.387 . S
H2042 C2049 0.950 . S
C2043 C2041 1.387 . S
C2043 C2045 1.390 . S
C2043 H2047 0.950 . S
H2044 C2040 0.950 . S
C2045 C2043 1.390 . S
C2045 C2046 1.387 . S
C2045 H2048 0.950 . S
C2046 C2045 1.387 . S
C2046 C2049 1.387 . S
H2047 C2043 0.950 . S
H2048 C2045 0.950 . S
C2049 C2040 1.390 . S
C2049 H2042 0.950 . S
C2049 C2046 1.387 . S
C2050 C2051 1.387 . S
C2050 H2054 0.950 . S
C2050 C2059 1.390 . S
C2051 C2050 1.387 . S
C2051 C2053 1.387 . S
H2052 C2059 0.950 . S
C2053 C2051 1.387 . S
C2053 C2055 1.390 . S
C2053 H2057 0.950 . S
H2054 C2050 0.950 . S
C2055 C2053 1.390 . S
C2055 C2056 1.387 . S
C2055 H2058 0.950 . S
C2056 C2055 1.387 . S
C2056 C2059 1.387 . S
H2057 C2053 0.950 . S
H2058 C2055 0.950 . S
C2059 C2050 1.390 . S
C2059 H2052 0.950 . S
C2059 C2056 1.387 . S
C2060 C2061 1.387 . S
C2060 H2064 0.950 . S
C2060 C2069 1.390 . S
C2061 C2060 1.387 . S
C2061 C2063 1.387 . S
H2062 C2069 0.950 . S
C2063 C2061 1.387 . S
C2063 C2065 1.390 . S
C2063 H2067 0.950 . S
H2064 C2060 0.950 . S
C2065 C2063 1.390 . S
C2065 C2066 1.387 . S
C2065 H2068 0.950 . S
C2066 C2065 1.387 . S
C2066 C2069 1.387 . S
H2067 C2063 0.950 . S
H2068 C2065 0.950 . S
C2069 C2060 1.390 . S
C2069 H2062 0.950 . S
C2069 C2066 1.387 . S
C2070 C2071 1.387 . S
C2070 H2074 0.950 . S
C2070 C2079 1.390 . S
C2071 C2070 1.387 . S
C2071 C2073 1.387 . S
H2072 C2079 0.950 . S
C2073 C2071 1.387 . S
C2073 C2075 1.390 . S
C2073 H2077 0.950 . S
H2074 C2070 0.950 . S
C2075 C2073 1.390 . S
C2075 C2076 1.387 . S
C2075 H2078 0.950 . S
C2076 C2075 1.387 . S
C2076 C2079 1.387 . S
H2077 C2073 0.950 . S
H2078 C2075 0.950 . S
C2079 C2070 1.390 . S
C2079 H2072 0.950 . S
C2079 C2076 1.387 . S
C2080 C2081 1.387 . S
C2080 H2084 0.950 . S
C2080 C2089 1.390 . S
C2081 C2080 1.387 . S
C2081 C2083 1.387 . S
H2082 C2089 0.950 . S
C2083 C2081 1.387 . S
C2083 C2085 1.390 . S
C2083 H2087 0.950 . S
H2084 C2080 0.950 . S
C2085 C2083 1.390 . S
C2085 C2086 1.387 . S
C2085 H2088 0.950 . S
C2086 C2085 1.387 . S
C2086 C2089 1.387 . S
H2087 C2083 0.950 . S
H2088 C2085 0.950 . S
C2089 C2080 1.390 . S
C2089 H2082 0.950 . S
C2089 C2086 1.387 . S
C2090 C2091 1.387 . S
C2090 H2094 0.950 . S
C2090 C2099 1.390 . S
C2091 C2090 1.387 . S
C2091 C2093 1.387 . S
H2092 C2099 0.950 . S
C2093 C2091 1.387 . S
C2093 C2095 1.390 . S
C2093 H2097 0.950 . S
H2094 C2090 0.950 . S
C2095 C2093 1.390 . S
C2095 C2096 1.387 . S
C2095 H2098 0.950 . S
C2096 C2095 1.387 . S
C2096 C2099 1.387 . S
H2097 C2093 0.950 . S
H2098 C2095 0.950 . S
C2099 C2090 1.390 . S
C2099 H2092 0.950 . S
C2099 C2096 1.387 . S
C2100 C2101 1.387 . S
C2100 H2104 0.950 . S
C2100 C2109 1.390 . S
C2101 C2100 1.387 . S
C2101 C2103 1.387 . S
H2102 C2109 0.950 . S
C2103 C2101 1.387 . S
C2103 C2105 1.390 . S
C2103 H2107 0.950 . S
H2104 C2100 0.950 . S
C2105 C2103 1.390 . S
C2105 C2106 1.387 . S
C2105 H2108 0.950 . S
C2106 C2105 1.387 . S
C2106 C2109 1.387 . S
H2107 C2103 0.950 . S
H2108 C2105 0.950 . S
C2109 C2100 1.390 . S
C2109 H2102 0.950 . S
C2109 C2106 1.387 . S
C2110 C2111 1.387 . S
C2110 H2114 0.950 . S
C2110 C2119 1.390 . S
C2111 C2110 1.387 . S
C2111 C2113 1.387 . S
H2112 C2119 0.950 . S
C2113 C2111 1.387 . S
C2113 C2115 1.390 . S
C2113 H2117 0.950 . S
H2114 C2110 0.950 . S
C2115 C2113 1.390 . S
C2115 C2116 1.387 . S
C2115 H2118 0.950 . S
C2116 C2115 1.387 . S
C2116 C2119 1.387 . S
H2117 C2113 0.950 . S
H2118 C2115 0.950 . S
C2119 C2110 1.390 . S
C2119 H2112 0.950 . S
C2119 C2116 1.387 . S
C2120 C2121 1.387 . S
C2120 H2124 0.950 . S
C2120 C2129 1.390 . S
C2121 C2120 1.387 . S
C2121 C2123 1.387 . S
H2122 C2129 0.950 . S
C2123 C2121 1.387 . S
C2123 C2125 1.390 . S
C2123 H2127 0.950 . S
H2124 C2120 0.950 . S
C2125 C2123 1.390 . S
C2125 C2126 1.387 . S
C2125 H2128 0.950 . S
C2126 C2125 1.387 . S
C2126 C2129 1.387 . S
H2127 C2123 0.950 . S
H2128 C2125 0.950 . S
C2129 C2120 1.390 . S
C2129 H2122 0.950 . S
C2129 C2126 1.387 . S
C2130 C2131 1.387 . S
C2130 H2134 0.950 . S
C2130 C2139 1.390 . S
C2131 C2130 1.387 . S
C2131 C2133 1.387 . S
H2132 C2139 0.950 . S
C2133 C2131 1.387 . S
C2133 C2135 1.390 . S
C2133 H2137 0.950 . S
H2134 C2130 0.950 . S
C2135 C2133 1.390 . S
C2135 C2136 1.387 . S
C2135 H2138 0.950 . S
C2136 C2135 1.387 . S
C2136 C2139 1.387 . S
H2137 C2133 0.950 . S
H2138 C2135 0.950 . S
C2139 C2130 1.390 . S
C2139 H2132 0.950 . S
C2139 C2136 1.387 . S
C2140 C2141 1.387 . S
C2140 H2144 0.950 . S
C2140 C2149 1.390 . S
C2141 C2140 1.387 . S
C2141 C2143 1.387 . S
H2142 C2149 0.950 . S
C2143 C2141 1.387 . S
C2143 C2145 1.390 . S
C2143 H2147 0.950 . S
H2144 C2140 0.950 . S
C2145 C2143 1.390 . S
C2145 C2146 1.387 . S
C2145 H2148 0.950 . S
C2146 C2145 1.387 . S
C2146 C2149 1.387 . S
H2147 C2143 0.950 . S
H2148 C2145 0.950 . S
C2149 C2140 1.390 . S
C2149 H2142 0.950 . S
C2149 C2146 1.387 . S
C2150 C2151 1.387 . S
C2150 H2154 0.950 . S
C2150 C2159 1.390 . S
C2151 C2150 1.387 . S
C2151 C2153 1.387 . S
H2152 C2159 0.950 . S
C2153 C2151 1.387 . S
C2153 C2155 1.390 . S
C2153 H2157 0.950 . S
H2154 C2150 0.950 . S
C2155 C2153 1.390 . S
C2155 C2156 1.387 . S
C2155 H2158 0.950 . S
C2156 C2155 1.387 . S
C2156 C2159 1.387 . S
H2157 C2153 0.950 . S
H2158 C2155 0.950 . S
C2159 C2150 1.390 . S
C2159 H2152 0.950 . S
C2159 C2156 1.387 . S
C1081 C10 1.563 . S
C1086 N66 1.561 . S
C1091 N6 1.559 . S
C1096 C40 1.562 . S
C1101 C70 1.563 . S
C1106 N36 1.561 . S
C1111 C100 1.563 . S
C1116 N126 1.561 . S
C1121 N156 1.559 . S
C1126 C130 1.563 . S
C1131 C160 1.563 . S
C1136 N96 1.560 . S
C1141 C181 1.562 . S
C1146 N254 1.560 . S
C1151 C211 1.562 . S
C1156 N194 1.559 . S
C1161 C241 1.562 . S
C1166 N224 1.559 . S
C1171 C271 1.563 . S
C1176 N314 1.559 . S
C1181 N344 1.560 . S
C1186 C301 1.562 . S
C1191 N284 1.561 . S
C1196 C331 1.563 . S
C1201 N426 1.559 . S
C1206 C370 1.563 . S
C1211 C400 1.562 . S
C1216 N366 1.559 . S
C1221 N396 1.559 . S
C1226 C430 1.562 . S
C1231 C460 1.563 . S
C1236 N486 1.559 . S
C1241 N516 1.560 . S
C1246 C490 1.563 . S
C1251 N456 1.561 . S
C1256 C520 1.563 . S
C1261 C541 1.563 . S
C1266 N614 1.559 . S
C1271 C571 1.563 . S
C1276 N554 1.561 . S
C1281 N584 1.559 . S
C1286 C601 1.562 . S
C1291 N674 1.561 . S
C1296 C631 1.563 . S
C1301 C661 1.562 . S
C1306 N704 1.560 . S
C1311 N644 1.560 . S
C1316 C691 1.562 . S
C1321 C730 1.562 . S
C1326 N786 1.559 . S
C1331 C760 1.562 . S
C1336 N726 1.559 . S
C1341 C790 1.562 . S
C1346 N756 1.559 . S
C1351 C820 1.563 . S
C1356 N846 1.561 . S
C1361 C850 1.562 . S
C1366 N876 1.560 . S
C1371 C880 1.563 . S
C1376 N816 1.561 . S
C1381 C901 1.563 . S
C1386 N974 1.559 . S
C1391 C931 1.562 . S
C1396 N914 1.559 . S
C1401 N944 1.561 . S
C1406 C961 1.563 . S
C1411 C991 1.563 . S
C1416 N1034 1.559 . S
C1421 C1021 1.562 . S
C1426 N1064 1.559 . S
C1431 N1004 1.559 . S
C1436 C1051 1.563 . S
C1441 N14 1.158 . S
C1446 C610 1.374 . S
C1451 C550 1.375 1_565 S
C1456 N44 1.162 . S
C1461 N74 1.162 . S
C1466 C580 1.375 1_455 S
C1471 N104 1.162 . S
C1476 C1030 1.375 . S
C1481 C1060 1.375 1_545 S
C1486 N134 1.161 . S
C1491 N164 1.159 . S
C1496 C1000 1.374 1_655 S
C1501 C781 1.374 . S
C1506 N186 1.158 . S
C1511 N216 1.155 . S
C1516 C721 1.373 1_545 S
C1521 N246 1.155 . S
C1526 C751 1.373 1_655 S
C1531 C481 1.375 . S
C1536 N276 1.162 . S
C1541 C511 1.375 1_565 S
C1546 N306 1.162 . S
C1551 C451 1.374 1_455 S
C1556 N336 1.158 . S
C1561 N374 1.159 . S
C1566 C970 1.374 . S
C1571 N404 1.162 . S
C1576 C910 1.375 . S
C1581 C940 1.373 . S
C1586 N434 1.155 . S
C1591 C310 1.372 . S
C1596 N464 1.155 . S
C1601 C340 1.373 . S
C1606 N494 1.155 . S
C1611 C280 1.374 . S
C1616 N524 1.159 . S
C1621 C61 1.373 . S
C1626 N546 1.158 . S
C1631 N576 1.156 . S
C1636 C1 1.373 . S
C1641 N606 1.162 . S
C1646 C31 1.375 . S
C1651 C841 1.372 1_554 S
C1656 N636 1.155 . S
C1661 C871 1.372 1_554 S
C1666 N666 1.156 . S
C1671 N696 1.158 . S
C1676 C811 1.373 1_554 S
C1681 C250 1.373 . S
C1686 N734 1.158 . S
C1691 C190 1.373 . S
C1696 N764 1.155 . S
C1701 C220 1.375 . S
C1706 N794 1.162 . S
C1711 N824 1.162 . S
C1716 C670 1.374 1_556 S
C1721 C700 1.372 1_556 S
C1726 N854 1.155 . S
C1731 N884 1.158 . S
C1736 C640 1.373 1_556 S
C1741 N906 1.158 . S
C1746 C421 1.374 . S
C1751 N936 1.155 . S
C1756 C361 1.373 . S
C1761 N966 1.162 . S
C1766 C391 1.375 . S
C1771 N996 1.155 . S
C1776 C121 1.373 . S
C1781 C151 1.375 . S
C1786 N1026 1.161 . S
C1791 C91 1.374 . S
C1796 N1056 1.158 . S
C1801 C897 1.554 . S
C1806 C27 1.554 . S
C1811 C837 1.554 . S
C1816 C57 1.553 . S
C1821 C87 1.554 . S
C1826 C867 1.553 . S
C1831 C417 1.552 . S
C1836 C117 1.551 . S
C1841 C147 1.552 . S
C1846 C447 1.551 . S
C1851 C177 1.551 . S
C1856 C387 1.551 . S
C1861 C196 1.551 . S
C1866 C706 1.551 . S
C1871 C226 1.553 . S
C1876 C646 1.554 . S
C1881 C256 1.551 . S
C1886 C676 1.552 . S
C1891 C946 1.554 . S
C1896 C286 1.554 . S
C1901 C976 1.554 . S
C1906 C316 1.554 . S
C1911 C916 1.554 . S
C1916 C346 1.554 . S
C1921 C477 1.552 . S
C1926 C777 1.553 . S
C1931 C507 1.554 . S
C1936 C807 1.554 . S
C1941 C537 1.551 . S
C1946 C747 1.551 . S
C1951 C556 1.554 . S
C1956 C1066 1.554 . S
C1961 C1006 1.553 . S
C1966 C586 1.552 . S
C1971 C616 1.554 . S
C1976 C1036 1.554 . S
C1981 C136 2.070 . S
C1986 C16 2.069 . S
C1991 C166 2.071 . S
C1996 C46 2.071 . S
C2001 C106 2.071 . S
C2006 C76 2.071 . S
C2011 C207 2.069 . S
C2016 C327 2.069 . S
C2021 C357 2.071 . S
C2026 C237 2.071 . S
C2031 C267 2.071 . S
C2036 C297 2.071 . S
C2041 C496 2.071 . S
C2046 C376 2.071 . S
C2051 C526 2.072 . S
C2056 C406 2.072 . S
C2061 C466 2.069 . S
C2066 C436 2.069 . S
C2071 C687 2.070 . S
C2076 C567 2.069 . S
C2081 C597 2.071 . S
C2086 C717 2.071 . S
C2091 C627 2.069 . S
C2096 C657 2.069 . S
C2101 C736 2.070 . S
C2106 C856 2.070 . S
C2111 C886 2.070 . S
C2116 C766 2.070 . S
C2121 C796 2.069 . S
C2126 C826 2.069 . S
C2131 C927 2.069 . S
C2136 C1047 2.070 . S
C2141 C1077 2.069 . S
C2146 C957 2.070 . S
C2151 C987 2.069 . S
C2156 C1017 2.069 . S
