# Generated by pormake.
# Topology ume, (4)-cn, num edge types: 1
# Building blocks:
#     Node 0, Type 0, BuildingBlock: NAWXER_clean_sbu_0, # of connection points: 4
#     Node 1, Type 0, BuildingBlock: NAWXER_clean_sbu_0, # of connection points: 4
#     Node 2, Type 0, BuildingBlock: NAWXER_clean_sbu_0, # of connection points: 4
#     Node 3, Type 0, BuildingBlock: NAWXER_clean_sbu_0, # of connection points: 4
#     Node 4, Type 0, BuildingBlock: NAWXER_clean_sbu_0, # of connection points: 4
#     Node 5, Type 0, BuildingBlock: NAWXER_clean_sbu_0, # of connection points: 4
#     Node 6, Type 0, BuildingBlock: NAWXER_clean_sbu_0, # of connection points: 4
#     Node 7, Type 0, BuildingBlock: NAWXER_clean_sbu_0, # of connection points: 4
#     Node 8, Type 0, BuildingBlock: NAWXER_clean_sbu_0, # of connection points: 4
#     Node 9, Type 0, BuildingBlock: NAWXER_clean_sbu_0, # of connection points: 4
#     Node 10, Type 0, BuildingBlock: NAWXER_clean_sbu_0, # of connection points: 4
#     Node 11, Type 0, BuildingBlock: NAWXER_clean_sbu_0, # of connection points: 4
#     Node 12, Type 0, BuildingBlock: NAWXER_clean_sbu_0, # of connection points: 4
#     Node 13, Type 0, BuildingBlock: NAWXER_clean_sbu_0, # of connection points: 4
#     Node 14, Type 0, BuildingBlock: NAWXER_clean_sbu_0, # of connection points: 4
#     Node 15, Type 0, BuildingBlock: NAWXER_clean_sbu_0, # of connection points: 4
#     Edge 16, Type (0, 0), BuildingBlock: ZUJKAS_clean_linker_0, # of connection points: 2
#     Edge 17, Type (0, 0), BuildingBlock: ZUJKAS_clean_linker_0, # of connection points: 2
#     Edge 18, Type (0, 0), BuildingBlock: ZUJKAS_clean_linker_0, # of connection points: 2
#     Edge 19, Type (0, 0), BuildingBlock: ZUJKAS_clean_linker_0, # of connection points: 2
#     Edge 20, Type (0, 0), BuildingBlock: ZUJKAS_clean_linker_0, # of connection points: 2
#     Edge 21, Type (0, 0), BuildingBlock: ZUJKAS_clean_linker_0, # of connection points: 2
#     Edge 22, Type (0, 0), BuildingBlock: ZUJKAS_clean_linker_0, # of connection points: 2
#     Edge 23, Type (0, 0), BuildingBlock: ZUJKAS_clean_linker_0, # of connection points: 2
#     Edge 24, Type (0, 0), BuildingBlock: ZUJKAS_clean_linker_0, # of connection points: 2
#     Edge 25, Type (0, 0), BuildingBlock: ZUJKAS_clean_linker_0, # of connection points: 2
#     Edge 26, Type (0, 0), BuildingBlock: ZUJKAS_clean_linker_0, # of connection points: 2
#     Edge 27, Type (0, 0), BuildingBlock: ZUJKAS_clean_linker_0, # of connection points: 2
#     Edge 28, Type (0, 0), BuildingBlock: ZUJKAS_clean_linker_0, # of connection points: 2
#     Edge 29, Type (0, 0), BuildingBlock: ZUJKAS_clean_linker_0, # of connection points: 2
#     Edge 30, Type (0, 0), BuildingBlock: ZUJKAS_clean_linker_0, # of connection points: 2
#     Edge 31, Type (0, 0), BuildingBlock: ZUJKAS_clean_linker_0, # of connection points: 2
#     Edge 32, Type (0, 0), BuildingBlock: ZUJKAS_clean_linker_0, # of connection points: 2
#     Edge 33, Type (0, 0), BuildingBlock: ZUJKAS_clean_linker_0, # of connection points: 2
#     Edge 34, Type (0, 0), BuildingBlock: ZUJKAS_clean_linker_0, # of connection points: 2
#     Edge 35, Type (0, 0), BuildingBlock: ZUJKAS_clean_linker_0, # of connection points: 2
#     Edge 36, Type (0, 0), BuildingBlock: ZUJKAS_clean_linker_0, # of connection points: 2
#     Edge 37, Type (0, 0), BuildingBlock: ZUJKAS_clean_linker_0, # of connection points: 2
#     Edge 38, Type (0, 0), BuildingBlock: ZUJKAS_clean_linker_0, # of connection points: 2
#     Edge 39, Type (0, 0), BuildingBlock: ZUJKAS_clean_linker_0, # of connection points: 2
#     Edge 40, Type (0, 0), BuildingBlock: ZUJKAS_clean_linker_0, # of connection points: 2
#     Edge 41, Type (0, 0), BuildingBlock: ZUJKAS_clean_linker_0, # of connection points: 2
#     Edge 42, Type (0, 0), BuildingBlock: ZUJKAS_clean_linker_0, # of connection points: 2
#     Edge 43, Type (0, 0), BuildingBlock: ZUJKAS_clean_linker_0, # of connection points: 2
#     Edge 44, Type (0, 0), BuildingBlock: ZUJKAS_clean_linker_0, # of connection points: 2
#     Edge 45, Type (0, 0), BuildingBlock: ZUJKAS_clean_linker_0, # of connection points: 2
#     Edge 46, Type (0, 0), BuildingBlock: ZUJKAS_clean_linker_0, # of connection points: 2
#     Edge 47, Type (0, 0), BuildingBlock: ZUJKAS_clean_linker_0, # of connection points: 2
# Relax obj value: 0.054
# Max RMSD: 0.243
# Mean RMSD: 0.243
data_MOF--net-ume--node1-NAWXER_clean_sbu_0--edge1-ZUJKAS_clean_linker_0
_symmetry_space_group_name_H-M    P1
_symmetry_Int_Tables_number       1
_symmetry_cell_setting            triclinic
loop_
_symmetry_equiv_pos_as_xyz
'x, y, z'
_cell_length_a     37.308179
_cell_length_b     37.320959
_cell_length_c     146.91876
_cell_angle_alpha  89.930422
_cell_angle_beta   90.011372
_cell_angle_gamma 89.99039
loop_
_atom_site_label
_atom_site_type_symbol
_atom_site_fract_x
_atom_site_fract_y
_atom_site_fract_z
_atom_type_partial_charge
C0 C 0.24426 0.08817 0.33893 0.0
C1 C 0.25919 0.11158 0.30653 0.0
O2 O 0.24458 0.11783 0.33469 0.0
Zn3 Zn 0.24945 0.09873 0.32264 0.0
O4 O 0.24628 0.05885 0.33439 0.0
Zn5 Zn 0.25138 0.04423 0.32011 0.0
O6 O 0.29369 0.01675 0.32025 0.0
O7 O 0.30264 0.07405 0.32318 0.0
O8 O 0.25845 0.07776 0.30815 0.0
O9 O 0.25444 0.13334 0.31305 0.0
O10 O 0.19756 0.07366 0.32017 0.0
O11 O 0.21006 0.01686 0.31765 0.0
C12 C 0.31495 0.04212 0.32216 0.0
C13 C 0.18709 0.04163 0.31836 0.0
C14 C 0.95577 0.81486 0.57193 0.0
C15 C 0.95319 0.68735 0.56771 0.0
O16 O 0.9807 0.79303 0.57006 0.0
Zn17 Zn 0.95208 0.75167 0.56966 0.0
O18 O 0.92344 0.80337 0.57283 0.0
Zn19 Zn 0.89746 0.75066 0.5721 0.0
O20 O 0.87795 0.74573 0.58413 0.0
O21 O 0.93699 0.74611 0.58388 0.0
O22 O 0.92141 0.69841 0.56958 0.0
O23 O 0.97839 0.70983 0.567 0.0
O24 O 0.91914 0.76135 0.55773 0.0
O25 O 0.86329 0.75658 0.56241 0.0
C26 C 0.90753 0.74453 0.58839 0.0
C27 C 0.88541 0.76243 0.55602 0.0
C28 C 0.18396 0.45306 0.82131 0.0
C29 C 0.3123 0.44728 0.81813 0.0
O30 O 0.20631 0.47742 0.81932 0.0
Zn31 Zn 0.24768 0.44814 0.81956 0.0
O32 O 0.19503 0.42087 0.82269 0.0
Zn33 Zn 0.24712 0.39392 0.82264 0.0
O34 O 0.24998 0.37614 0.83483 0.0
O35 O 0.25142 0.43511 0.83403 0.0
O36 O 0.30027 0.41638 0.82047 0.0
O37 O 0.29066 0.4728 0.81673 0.0
O38 O 0.23907 0.41349 0.80796 0.0
O39 O 0.24141 0.35839 0.81326 0.0
C40 C 0.25164 0.40625 0.83882 0.0
C41 C 0.23719 0.37958 0.8066 0.0
C42 C 0.54179 0.6858 0.07135 0.0
C43 C 0.54751 0.81341 0.06743 0.0
O44 O 0.51759 0.70814 0.06924 0.0
Zn45 Zn 0.54704 0.74909 0.06922 0.0
O46 O 0.57415 0.69665 0.07258 0.0
Zn47 Zn 0.60132 0.74863 0.07211 0.0
O48 O 0.6195 0.75281 0.08428 0.0
O49 O 0.56052 0.75385 0.08358 0.0
O50 O 0.57885 0.80156 0.06947 0.0
O51 O 0.52188 0.79154 0.06651 0.0
O52 O 0.58128 0.73992 0.0575 0.0
O53 O 0.63654 0.74183 0.06274 0.0
C54 C 0.58948 0.75463 0.08831 0.0
C55 C 0.61519 0.73763 0.0561 0.0
C56 C 0.2423 0.40695 0.93679 0.0
C57 C 0.25992 0.3811 0.96899 0.0
O58 O 0.24444 0.37689 0.94081 0.0
Zn59 Zn 0.24865 0.39496 0.95297 0.0
O60 O 0.24288 0.43585 0.94153 0.0
Zn61 Zn 0.24786 0.44922 0.95591 0.0
O62 O 0.28879 0.47889 0.95584 0.0
O63 O 0.3004 0.42247 0.95244 0.0
O64 O 0.2574 0.41496 0.96758 0.0
O65 O 0.25584 0.35973 0.96237 0.0
O66 O 0.19555 0.41704 0.95558 0.0
O67 O 0.20516 0.47388 0.95877 0.0
C68 C 0.31117 0.45484 0.95367 0.0
C69 C 0.18349 0.44812 0.95776 0.0
C70 C 0.5893 0.74156 0.18622 0.0
C71 C 0.61779 0.75469 0.2184 0.0
O72 O 0.61961 0.74138 0.19015 0.0
Zn73 Zn 0.60245 0.74554 0.20236 0.0
O74 O 0.56064 0.7434 0.19106 0.0
Zn75 Zn 0.5484 0.74728 0.20558 0.0
O76 O 0.52122 0.78992 0.20623 0.0
O77 O 0.57753 0.79861 0.20209 0.0
O78 O 0.58379 0.75372 0.21711 0.0
O79 O 0.6386 0.75035 0.21166 0.0
O80 O 0.57788 0.69341 0.20477 0.0
O81 O 0.52174 0.70545 0.20824 0.0
C82 C 0.54613 0.811 0.20383 0.0
C83 C 0.54635 0.68264 0.20699 0.0
C84 C 0.24053 0.11686 0.46902 0.0
C85 C 0.25829 0.09131 0.43685 0.0
O86 O 0.24563 0.13819 0.46242 0.0
Zn87 Zn 0.25218 0.103 0.45304 0.0
O88 O 0.24218 0.08295 0.46761 0.0
Zn89 Zn 0.25132 0.04871 0.45591 0.0
O90 O 0.29323 0.02273 0.45873 0.0
O91 O 0.30454 0.07942 0.45573 0.0
O92 O 0.25676 0.0623 0.44155 0.0
O93 O 0.25714 0.12129 0.4409 0.0
O94 O 0.19969 0.07687 0.45238 0.0
O95 O 0.20973 0.02009 0.45576 0.0
C96 C 0.31568 0.04786 0.45782 0.0
C97 C 0.18805 0.04476 0.45356 0.0
C98 C 0.95125 0.81296 0.70706 0.0
C99 C 0.95263 0.68489 0.70339 0.0
O100 O 0.97632 0.79041 0.70797 0.0
Zn101 Zn 0.94979 0.74855 0.70535 0.0
O102 O 0.91958 0.80198 0.70504 0.0
Zn103 Zn 0.89531 0.74976 0.70263 0.0
O104 O 0.86037 0.74445 0.71215 0.0
O105 O 0.91584 0.741 0.71718 0.0
O106 O 0.92066 0.69695 0.70222 0.0
O107 O 0.97774 0.70639 0.70536 0.0
O108 O 0.9357 0.75344 0.69101 0.0
O109 O 0.87667 0.75419 0.69051 0.0
C110 C 0.88198 0.73988 0.71872 0.0
C111 C 0.90652 0.75499 0.68638 0.0
C112 C 0.81084 0.54377 0.8211 0.0
C113 C 0.68257 0.55041 0.81772 0.0
O114 O 0.7885 0.51958 0.81898 0.0
Zn115 Zn 0.7472 0.5491 0.81918 0.0
O116 O 0.79984 0.57594 0.82251 0.0
Zn117 Zn 0.74801 0.60323 0.82237 0.0
O118 O 0.74502 0.62061 0.83458 0.0
O119 O 0.74311 0.56167 0.83366 0.0
O120 O 0.69479 0.58112 0.82015 0.0
O121 O 0.70407 0.52485 0.81624 0.0
O122 O 0.75629 0.58408 0.80765 0.0
O123 O 0.75416 0.63901 0.81304 0.0
C124 C 0.743 0.59035 0.8385 0.0
C125 C 0.75839 0.61803 0.80635 0.0
C126 C 0.40928 0.24176 0.08883 0.0
C127 C 0.38443 0.25871 0.05656 0.0
O128 O 0.3794 0.242 0.0847 0.0
Zn129 Zn 0.39791 0.2476 0.07259 0.0
O130 O 0.43838 0.24419 0.0842 0.0
Zn131 Zn 0.45236 0.25006 0.06991 0.0
O132 O 0.47961 0.29254 0.07013 0.0
O133 O 0.42231 0.30083 0.07326 0.0
O134 O 0.41832 0.25805 0.05809 0.0
O135 O 0.36292 0.25311 0.06309 0.0
O136 O 0.42313 0.19607 0.06989 0.0
O137 O 0.47976 0.20895 0.06721 0.0
C138 C 0.45411 0.31345 0.0722 0.0
C139 C 0.45513 0.18584 0.06795 0.0
C140 C 0.68712 0.95194 0.32086 0.0
C141 C 0.815 0.94748 0.31752 0.0
O142 O 0.70944 0.97627 0.31885 0.0
Zn143 Zn 0.75055 0.94713 0.319 0.0
O144 O 0.69811 0.91963 0.32211 0.0
Zn145 Zn 0.75047 0.8929 0.32182 0.0
O146 O 0.754 0.87434 0.33396 0.0
O147 O 0.75439 0.93333 0.33339 0.0
O148 O 0.80343 0.91597 0.31949 0.0
O149 O 0.79284 0.97281 0.31651 0.0
O150 O 0.74245 0.91312 0.3072 0.0
O151 O 0.74471 0.85783 0.31239 0.0
C152 C 0.75515 0.90423 0.33806 0.0
C153 C 0.74066 0.87923 0.30576 0.0
C154 C 0.09088 0.25718 0.58856 0.0
C155 C 0.11546 0.24111 0.55627 0.0
O156 O 0.12076 0.25638 0.58444 0.0
Zn157 Zn 0.10212 0.25168 0.57232 0.0
O158 O 0.06174 0.25557 0.58392 0.0
Zn159 Zn 0.04767 0.25058 0.5696 0.0
O160 O 0.01946 0.20872 0.56971 0.0
O161 O 0.07648 0.19901 0.5729 0.0
O162 O 0.08158 0.24249 0.55778 0.0
O163 O 0.13703 0.24582 0.56283 0.0
O164 O 0.07804 0.30391 0.56976 0.0
O165 O 0.02118 0.29239 0.567 0.0
C166 C 0.04441 0.18716 0.57178 0.0
C167 C 0.04628 0.31493 0.56783 0.0
C168 C 0.76237 0.88681 0.46845 0.0
C169 C 0.74469 0.90883 0.43607 0.0
O170 O 0.75633 0.8647 0.46208 0.0
Zn171 Zn 0.75071 0.89885 0.45238 0.0
O172 O 0.76163 0.92053 0.46671 0.0
Zn173 Zn 0.75227 0.95347 0.45475 0.0
O174 O 0.71067 0.98024 0.45741 0.0
O175 O 0.69875 0.92329 0.45498 0.0
O176 O 0.74662 0.9383 0.44055 0.0
O177 O 0.74549 0.8793 0.44036 0.0
O178 O 0.80372 0.92422 0.45163 0.0
O179 O 0.79397 0.98163 0.45432 0.0
C180 C 0.68797 0.95519 0.45681 0.0
C181 C 0.81555 0.95643 0.45248 0.0
C182 C 0.04716 0.18441 0.70717 0.0
C183 C 0.04249 0.31231 0.70341 0.0
O184 O 0.02165 0.20642 0.70812 0.0
Zn185 Zn 0.04714 0.24881 0.70546 0.0
O186 O 0.07857 0.19609 0.70513 0.0
Zn187 Zn 0.10155 0.24898 0.70272 0.0
O188 O 0.13639 0.25511 0.71223 0.0
O189 O 0.08091 0.2572 0.71729 0.0
O190 O 0.07481 0.30119 0.70226 0.0
O191 O 0.01804 0.29011 0.70542 0.0
O192 O 0.06129 0.24424 0.69112 0.0
O193 O 0.12032 0.24504 0.69063 0.0
C194 C 0.11475 0.25912 0.7188 0.0
C195 C 0.0905 0.24345 0.68649 0.0
C196 C 0.68377 0.54347 0.95342 0.0
C197 C 0.81183 0.54336 0.95731 0.0
O198 O 0.70487 0.5181 0.95547 0.0
Zn199 Zn 0.74741 0.5455 0.9555 0.0
O200 O 0.69629 0.57523 0.95222 0.0
Zn201 Zn 0.74939 0.59991 0.95268 0.0
O202 O 0.75426 0.61814 0.94054 0.0
O203 O 0.75256 0.55917 0.94115 0.0
O204 O 0.80122 0.5751 0.95524 0.0
O205 O 0.78897 0.51858 0.95823 0.0
O206 O 0.73981 0.5798 0.96725 0.0
O207 O 0.74416 0.63511 0.96214 0.0
C208 C 0.75458 0.58819 0.93646 0.0
C209 C 0.73902 0.6137 0.96872 0.0
C210 C 0.45255 0.18286 0.20421 0.0
C211 C 0.44909 0.31105 0.20771 0.0
O212 O 0.47693 0.20437 0.2067 0.0
Zn213 Zn 0.44868 0.2464 0.20618 0.0
O214 O 0.42086 0.19461 0.2025 0.0
Zn215 Zn 0.39463 0.247 0.20291 0.0
O216 O 0.37741 0.25125 0.19071 0.0
O217 O 0.43641 0.25069 0.19165 0.0
O218 O 0.41789 0.29957 0.20542 0.0
O219 O 0.47422 0.28881 0.20897 0.0
O220 O 0.41338 0.23837 0.21766 0.0
O221 O 0.35857 0.24088 0.21218 0.0
C222 C 0.40774 0.25203 0.1868 0.0
C223 C 0.3794 0.23657 0.21891 0.0
H224 H 0.87169 0.90082 0.3193 0.0
H225 H 0.93585 0.91589 0.31887 0.0
H226 H 0.90954 0.02659 0.31381 0.0
H227 H 0.84595 0.0121 0.31415 0.0
H228 H 0.97435 0.96065 0.30313 0.0
H229 H 0.9756 0.01867 0.33805 0.0
H230 H 0.94346 0.98512 0.33458 0.0
H231 H 0.93879 0.03044 0.33069 0.0
C232 C 0.87962 0.9283 0.31804 0.0
C233 C 0.85373 0.95526 0.3168 0.0
C234 C 0.91616 0.93682 0.31779 0.0
C235 C 0.9271 0.97236 0.31638 0.0
C236 C 0.90143 -0.00092 0.31497 0.0
H237 H 0.12931 0.0872 0.31908 0.0
H238 H 0.06571 0.07097 0.31797 0.0
C239 C 0.86511 0.99065 0.31516 0.0
C240 C 0.96532 0.98213 0.31651 0.0
H241 H 0.02809 0.02553 0.32926 0.0
C242 C 0.98631 0.9746 0.30885 0.0
C243 C 0.98034 0.00079 0.32394 0.0
C244 C 0.95858 0.00918 0.33233 0.0
C245 C 0.02218 0.9857 0.30838 0.0
C246 C 0.03742 0.00405 0.31587 0.0
C247 C 0.01627 0.01159 0.32353 0.0
C248 C 0.07568 0.01431 0.31608 0.0
C249 C 0.04314 0.97838 0.2998 0.0
C250 C 0.10214 0.98782 0.31544 0.0
C251 C 0.13825 0.99698 0.31603 0.0
C252 C 0.14868 0.03282 0.31737 0.0
C253 C 0.12212 0.0594 0.31802 0.0
C254 C 0.08585 0.05018 0.31739 0.0
H255 H 0.02514 0.97439 0.29386 0.0
H256 H 0.06189 0.00067 0.29824 0.0
H257 H 0.05905 0.95351 0.30071 0.0
H258 H 0.09486 0.9599 0.31467 0.0
H259 H 0.15796 0.97575 0.31557 0.0
H260 H 0.01852 0.65702 0.56485 0.0
H261 H 0.03329 0.59353 0.56413 0.0
H262 H 0.92186 0.56646 0.56773 0.0
H263 H 0.90655 0.63041 0.56851 0.0
H264 H 0.01384 0.5416 0.57898 0.0
H265 H 0.96044 0.50859 0.54458 0.0
H266 H 0.9727 0.5537 0.54778 0.0
H267 H 0.93232 0.53414 0.55214 0.0
C268 C 0.99698 0.6377 0.56543 0.0
C269 C 0.96129 0.64878 0.56676 0.0
C270 C 0.00555 0.60143 0.56502 0.0
C271 C 0.97865 0.57554 0.56584 0.0
C272 C 0.9429 0.58627 0.56701 0.0
H273 H 0.9807 0.34534 0.56543 0.0
H274 H 0.96586 0.40877 0.56487 0.0
C275 C 0.93424 0.62271 0.56748 0.0
C276 C 0.98858 0.53733 0.56586 0.0
H277 H 0.98547 0.46121 0.55309 0.0
C278 C 0.0077 0.52391 0.57333 0.0
C279 C 0.98043 0.51465 0.55847 0.0
C280 C 0.96051 0.52833 0.55023 0.0
C281 C 0.01849 0.48796 0.57369 0.0
C282 C 0.01074 0.46525 0.56624 0.0
C283 C 0.99159 0.47879 0.55876 0.0
C284 C 0.02066 0.42688 0.56628 0.0
C285 C 0.03718 0.47446 0.58214 0.0
C286 C 0.05656 0.41599 0.5671 0.0
C287 C 0.06522 0.37954 0.5675 0.0
C288 C 0.03808 0.35351 0.56697 0.0
C289 C 0.0023 0.36465 0.56588 0.0
C290 C 0.99371 0.40093 0.56554 0.0
H291 H 0.03281 0.49255 0.58804 0.0
H292 H 0.02768 0.44721 0.584 0.0
H293 H 0.06644 0.47305 0.58085 0.0
H294 H 0.07785 0.43566 0.56747 0.0
H295 H 0.09303 0.37179 0.56828 0.0
H296 H 0.6491 0.5076 0.80553 0.0
H297 H 0.58561 0.49182 0.80501 0.0
H298 H 0.56591 0.55971 0.82826 0.0
H299 H 0.62917 0.57732 0.82839 0.0
H300 H 0.54863 0.45682 0.81654 0.0
H301 H 0.48449 0.58973 0.81293 0.0
H302 H 0.53216 0.58361 0.81173 0.0
H303 H 0.51227 0.58762 0.82287 0.0
C304 C 0.63099 0.5197 0.8104 0.0
C305 C 0.6438 0.54387 0.81695 0.0
C306 C 0.59477 0.51057 0.81013 0.0
C307 C 0.57073 0.52482 0.81653 0.0
C308 C 0.58356 0.54917 0.82307 0.0
H309 H 0.36634 0.41955 0.82849 0.0
H310 H 0.42959 0.43727 0.82823 0.0
C311 C 0.61973 0.5591 0.82318 0.0
C312 C 0.53288 0.51241 0.81663 0.0
H313 H 0.44614 0.54124 0.81702 0.0
C314 C 0.52622 0.47533 0.81656 0.0
C315 C 0.50354 0.53646 0.81657 0.0
C316 C 0.50846 0.57654 0.81593 0.0
C317 C 0.49121 0.46163 0.81638 0.0
C318 C 0.46189 0.48566 0.81672 0.0
C319 C 0.46855 0.52273 0.81683 0.0
C320 C 0.42404 0.47325 0.81672 0.0
C321 C 0.48622 0.42163 0.81554 0.0
C322 C 0.39962 0.48806 0.81049 0.0
C323 C 0.36344 0.47884 0.81083 0.0
C324 C 0.35102 0.45405 0.81729 0.0
C325 C 0.37546 0.43829 0.82335 0.0
C326 C 0.41161 0.44829 0.82317 0.0
H327 H 0.50999 0.40871 0.81238 0.0
H328 H 0.48283 0.40988 0.82243 0.0
H329 H 0.46225 0.41498 0.8114 0.0
H330 H 0.40846 0.50729 0.80543 0.0
H331 H 0.34505 0.49134 0.80608 0.0
H332 H 0.52124 0.15696 0.06526 0.0
H333 H 0.53727 0.09378 0.06432 0.0
H334 H 0.4262 0.06441 0.06742 0.0
H335 H 0.40963 0.12798 0.06842 0.0
H336 H 0.51828 0.04029 0.07879 0.0
H337 H 0.46664 0.00916 0.04411 0.0
H338 H 0.47784 0.0542 0.04761 0.0
H339 H 0.43757 0.03349 0.0517 0.0
C340 C 0.50006 0.13719 0.06568 0.0
C341 C 0.46409 0.1475 0.06692 0.0
C342 C 0.50935 0.10111 0.06515 0.0
C343 C 0.4829 0.07468 0.06575 0.0
C344 C 0.44689 0.08465 0.06686 0.0
H345 H 0.48283 0.84536 0.06482 0.0
H346 H 0.46949 0.90908 0.06427 0.0
C347 C 0.43752 0.12088 0.06745 0.0
C348 C 0.49344 0.03663 0.0656 0.0
H349 H 0.49072 0.96114 0.0526 0.0
C350 C 0.51239 0.02288 0.07307 0.0
C351 C 0.48564 0.01434 0.05812 0.0
C352 C 0.46599 0.02839 0.04988 0.0
C353 C 0.52311 0.98689 0.07335 0.0
C354 C 0.51547 0.9645 0.06583 0.0
C355 C 0.49673 0.97846 0.05833 0.0
C356 C 0.52461 0.92594 0.06585 0.0
C357 C 0.54144 0.97296 0.0818 0.0
C358 C 0.56022 0.91422 0.06678 0.0
C359 C 0.56802 0.87757 0.06719 0.0
C360 C 0.54031 0.85218 0.06655 0.0
C361 C 0.50486 0.86415 0.06535 0.0
C362 C 0.49712 0.90061 0.06501 0.0
H363 H 0.53729 0.99101 0.08772 0.0
H364 H 0.53145 0.94585 0.08362 0.0
H365 H 0.57069 0.97106 0.08054 0.0
H366 H 0.58192 0.9334 0.06724 0.0
H367 H 0.5956 0.86916 0.06805 0.0
H368 H 0.12746 0.40485 0.95266 0.0
H369 H 0.0633 0.4195 0.95324 0.0
H370 H 0.0881 0.52127 0.96559 0.0
H371 H 0.15181 0.50701 0.96508 0.0
H372 H 0.0296 0.48194 0.97385 0.0
H373 H 0.01743 0.49779 0.93629 0.0
H374 H 0.03669 0.45648 0.9403 0.0
H375 H 0.06018 0.49786 0.94206 0.0
C376 C 0.11917 0.43017 0.95557 0.0
C377 C 0.14468 0.45488 0.95876 0.0
C378 C 0.08261 0.43856 0.95585 0.0
C379 C 0.07119 0.47163 0.95935 0.0
C380 C 0.09648 0.49569 0.96283 0.0
H381 H 0.86963 0.58528 0.95284 0.0
H382 H 0.93322 0.56871 0.95375 0.0
C383 C 0.13288 0.48748 0.96251 0.0
C384 C 0.033 0.48194 0.95922 0.0
H385 H 0.96479 0.50575 0.94497 0.0
C386 C 0.01532 0.48702 0.96755 0.0
C387 C 0.01483 0.48911 0.95098 0.0
C388 C 0.03318 0.48534 0.94188 0.0
C389 C 0.97963 0.49876 0.96784 0.0
C390 C 0.96129 0.50536 0.95959 0.0
C391 C 0.97906 0.50061 0.95127 0.0
C392 C 0.92324 0.51616 0.95944 0.0
C393 C 0.96191 0.50448 0.97695 0.0
C394 C 0.89687 0.49205 0.96235 0.0
C395 C 0.86074 0.50131 0.96181 0.0
C396 C 0.8503 0.53491 0.95835 0.0
C397 C 0.87685 0.55929 0.95557 0.0
C398 C 0.9131 0.54986 0.95606 0.0
H399 H 0.98184 0.50607 0.98256 0.0
H400 H 0.94568 0.52943 0.97692 0.0
H401 H 0.94365 0.4817 0.97839 0.0
H402 H 0.90421 0.46576 0.96486 0.0
H403 H 0.84098 0.4819 0.96401 0.0
H404 H 0.50871 0.34213 0.21489 0.0
H405 H 0.52362 0.4057 0.21539 0.0
H406 H 0.42226 0.43149 0.20289 0.0
H407 H 0.40694 0.36753 0.20234 0.0
H408 H 0.48599 0.4632 0.19454 0.0
H409 H 0.47928 0.48483 0.23192 0.0
H410 H 0.505 0.44656 0.22839 0.0
H411 H 0.45754 0.44755 0.22636 0.0
C412 C 0.48936 0.36126 0.21231 0.0
C413 C 0.45659 0.34979 0.20857 0.0
C414 C 0.49791 0.39759 0.21264 0.0
C415 C 0.47392 0.42318 0.20925 0.0
C416 C 0.44102 0.41201 0.20558 0.0
H417 H 0.48522 0.65299 0.21374 0.0
H418 H 0.46889 0.58978 0.21425 0.0
C419 C 0.43228 0.37555 0.2053 0.0
C420 C 0.48413 0.46142 0.20918 0.0
H421 H 0.50526 0.53144 0.2231 0.0
C422 C 0.49006 0.47824 0.20077 0.0
C423 C 0.48931 0.48081 0.21733 0.0
C424 C 0.4822 0.4642 0.22652 0.0
C425 C 0.50158 0.51398 0.2003 0.0
C426 C 0.50755 0.53312 0.20846 0.0
C427 C 0.50108 0.51645 0.21687 0.0
C428 C 0.51866 0.57112 0.2084 0.0
C429 C 0.50678 0.53121 0.1911 0.0
C430 C 0.55242 0.58144 0.20509 0.0
C431 C 0.562 0.61769 0.20481 0.0
C432 C 0.53785 0.64407 0.20782 0.0
C433 C 0.5044 0.6334 0.21132 0.0
C434 C 0.49499 0.59728 0.21164 0.0
H435 H 0.49457 0.51511 0.18555 0.0
H436 H 0.49492 0.5585 0.19098 0.0
H437 H 0.53589 0.53381 0.1897 0.0
H438 H 0.57123 0.56148 0.20268 0.0
H439 H 0.58796 0.62507 0.20209 0.0
H440 H 0.37272 0.094 0.45607 0.0
H441 H 0.43673 0.07851 0.45669 0.0
H442 H 0.40955 0.96832 0.46212 0.0
H443 H 0.34602 0.98325 0.46159 0.0
H444 H 0.47493 0.03388 0.47261 0.0
H445 H 0.47558 0.97519 0.43776 0.0
H446 H 0.44381 0.0092 0.44116 0.0
H447 H 0.43872 0.96409 0.44516 0.0
C448 C 0.38041 0.06656 0.45747 0.0
C449 C 0.3543 0.03985 0.45874 0.0
C450 C 0.41688 0.0578 0.45782 0.0
C451 C 0.42753 0.02227 0.45938 0.0
C452 C 0.40164 0.99582 0.46086 0.0
H453 H 0.63078 0.90888 0.45627 0.0
H454 H 0.56704 0.92426 0.4576 0.0
C455 C 0.36537 0.00449 0.46056 0.0
C456 C 0.4657 0.01225 0.45926 0.0
H457 H 0.52841 0.96916 0.44642 0.0
C458 C 0.48681 0.0199 0.46689 0.0
C459 C 0.48063 0.99359 0.45181 0.0
C460 C 0.45872 0.98507 0.44346 0.0
C461 C 0.52277 0.00904 0.46731 0.0
C462 C 0.53796 0.9908 0.45979 0.0
C463 C 0.51664 0.98303 0.45218 0.0
C464 C 0.57634 0.98102 0.45949 0.0
C465 C 0.54392 0.01657 0.47585 0.0
C466 C 0.60248 0.00785 0.46006 0.0
C467 C 0.63867 -0.00082 0.45935 0.0
C468 C 0.64951 0.9635 0.45795 0.0
C469 C 0.62328 0.93657 0.45738 0.0
C470 C 0.58693 0.94531 0.45813 0.0
H471 H 0.52605 0.02032 0.48182 0.0
H472 H 0.563 0.99451 0.47736 0.0
H473 H 0.55948 0.04164 0.47491 0.0
H474 H 0.59486 0.03567 0.46087 0.0
H475 H 0.65812 0.02067 0.45976 0.0
H476 H 0.09018 0.12786 0.70229 0.0
H477 H 0.0748 0.06389 0.70287 0.0
H478 H 0.9722 0.08993 0.71464 0.0
H479 H 0.98718 0.15345 0.71413 0.0
H480 H 0.01038 0.03152 0.72325 0.0
H481 H 0.99759 0.01787 0.68566 0.0
H482 H 0.0387 0.03704 0.68981 0.0
H483 H 0.99732 0.06084 0.6913 0.0
C484 C 0.0645 0.11988 0.70507 0.0
C485 C 0.0398 0.14569 0.7081 0.0
C486 C 0.0557 0.08343 0.70535 0.0
C487 C 0.02221 0.07241 0.70869 0.0
C488 C 0.9981 0.098 0.712 0.0
H489 H 0.90907 0.87028 0.70232 0.0
H490 H 0.92514 0.93402 0.70312 0.0
C491 C 0.00672 0.13429 0.71168 0.0
C492 C 0.01163 0.0343 0.70862 0.0
H493 H 0.98889 0.96556 0.69445 0.0
C494 C 0.00579 0.017 0.71697 0.0
C495 C 0.00509 0.01582 0.70039 0.0
C496 C 0.00969 0.03377 0.69126 0.0
C497 C 0.99396 0.98136 0.71731 0.0
C498 C 0.98805 0.96269 0.70908 0.0
C499 C 0.99349 0.9801 0.70073 0.0
C500 C 0.97747 0.92459 0.709 0.0
C501 C 0.98748 0.96402 0.72644 0.0
C502 C 0.00162 0.89849 0.71205 0.0
C503 C 0.99265 0.86231 0.71157 0.0
C504 C 0.9593 0.85152 0.70804 0.0
C505 C 0.93486 0.87779 0.70512 0.0
C506 C 0.94402 0.91411 0.70554 0.0
H507 H 0.98546 0.98416 0.73198 0.0
H508 H 0.96253 0.94781 0.72633 0.0
H509 H 0.01013 0.94579 0.72804 0.0
H510 H 0.02772 0.90611 0.71464 0.0
H511 H 0.01209 0.84276 0.71389 0.0
H512 H 0.6299 0.90656 0.32301 0.0
H513 H 0.56638 0.9232 0.324 0.0
H514 H 0.59497 0.0349 0.32202 0.0
H515 H 0.65801 0.01872 0.32087 0.0
H516 H 0.53093 0.96796 0.33662 0.0
H517 H 0.52234 0.02202 0.30145 0.0
H518 H 0.55923 0.99455 0.30526 0.0
H519 H 0.55764 0.04135 0.30814 0.0
C520 C 0.62259 0.93464 0.32278 0.0
C521 C 0.64889 0.9613 0.32176 0.0
C522 C 0.5864 0.94407 0.32335 0.0
C523 C 0.57612 0.98021 0.32291 0.0
C524 C 0.60238 0.00684 0.32216 0.0
H525 H 0.37028 0.09013 0.32349 0.0
H526 H 0.43448 0.07633 0.32452 0.0
C527 C 0.6384 0.99749 0.32153 0.0
C528 C 0.53794 0.99033 0.32321 0.0
H529 H 0.47243 0.03264 0.31108 0.0
C530 C 0.51804 0.98198 0.33103 0.0
C531 C 0.5214 0.00871 0.31591 0.0
C532 C 0.54112 0.01692 0.30718 0.0
C533 C 0.48192 0.9919 0.33177 0.0
C534 C 0.46548 0.0103 0.32447 0.0
C535 C 0.4854 0.01883 0.31669 0.0
C536 C 0.42696 0.01885 0.3245 0.0
C537 C 0.46164 0.9829 0.34036 0.0
C538 C 0.40187 0.99103 0.3241 0.0
C539 C 0.36546 -0.00125 0.32344 0.0
C540 C 0.3535 0.03448 0.32317 0.0
C541 C 0.37872 0.06237 0.32371 0.0
C542 C 0.41529 0.05457 0.3243 0.0
H543 H 0.48001 0.97663 0.3461 0.0
H544 H 0.44389 0.00542 0.34238 0.0
H545 H 0.44456 0.95907 0.33911 0.0
H546 H 0.41052 0.96331 0.32409 0.0
H547 H 0.34671 0.97664 0.32306 0.0
H548 H 0.90919 0.8715 0.5732 0.0
H549 H 0.92475 0.9353 0.57405 0.0
H550 H 0.0371 0.90806 0.5741 0.0
H551 H 0.02202 0.84472 0.5731 0.0
H552 H 0.96654 0.97338 0.587 0.0
H553 H 0.02745 0.97703 0.55253 0.0
H554 H -0.00052 0.94054 0.55635 0.0
H555 H 0.04565 0.94295 0.55982 0.0
C556 C 0.93717 0.87916 0.57341 0.0
C557 C 0.96437 0.85317 0.57297 0.0
C558 C 0.94599 0.91551 0.57391 0.0
C559 C 0.98204 0.92622 0.57396 0.0
C560 C 0.00914 0.90028 0.57386 0.0
H561 H 0.09159 0.13158 0.574 0.0
H562 H 0.07703 0.0677 0.57534 0.0
C563 C 0.00042 0.8641 0.57331 0.0
C564 C 0.99162 0.96453 0.574 0.0
H565 H 0.03586 0.02843 0.56177 0.0
C566 C 0.98155 0.98553 0.58148 0.0
C567 C 0.01126 0.98008 0.56677 0.0
C568 C 0.02134 0.95911 0.55837 0.0
C569 C 0.99111 0.02179 0.58198 0.0
C570 C 0.01088 0.03723 0.57477 0.0
C571 C 0.02099 0.01623 0.56731 0.0
C572 C 0.01967 0.07567 0.57458 0.0
C573 C 0.98036 0.04327 0.59023 0.0
C574 C 0.99217 0.10091 0.57364 0.0
C575 C 0.00033 0.13717 0.57282 0.0
C576 C 0.03619 0.14879 0.5729 0.0
C577 C 0.06373 0.12342 0.57393 0.0
C578 C 0.0555 0.08702 0.57471 0.0
H579 H 0.9729 0.02574 0.59605 0.0
H580 H 0.00245 0.06132 0.59239 0.0
H581 H 0.95682 0.06015 0.58851 0.0
H582 H 0.9644 0.09247 0.57337 0.0
H583 H 0.97847 0.15604 0.57204 0.0
H584 H 0.12722 0.40689 0.82295 0.0
H585 H 0.06338 0.42237 0.82336 0.0
H586 H 0.09026 0.5346 0.82176 0.0
H587 H 0.15377 0.5195 0.82117 0.0
H588 H 0.02501 0.46467 0.83552 0.0
H589 H 0.02056 0.5223 0.80071 0.0
H590 H 0.05773 0.49571 0.80474 0.0
H591 H 0.05417 0.54221 0.80782 0.0
C592 C 0.11949 0.43485 0.82269 0.0
C593 C 0.14549 0.46195 0.82193 0.0
C594 C 0.08308 0.44363 0.82292 0.0
C595 C 0.07218 0.47957 0.82241 0.0
C596 C 0.09811 0.50666 0.82193 0.0
H597 H 0.86745 0.58971 0.82317 0.0
H598 H 0.93119 0.57411 0.82405 0.0
C599 C 0.13441 0.49795 0.82164 0.0
C600 C 0.03371 0.48892 0.8224 0.0
H601 H 0.96929 0.53185 0.81 0.0
C602 C 0.01274 0.47918 0.82993 0.0
C603 C 0.01788 0.50783 0.81507 0.0
C604 C 0.03864 0.51734 0.80659 0.0
C605 C 0.97635 0.48845 0.8304 0.0
C606 C 0.96073 0.50769 0.82313 0.0
C607 C 0.98162 0.51737 0.81559 0.0
C608 C 0.92234 0.51698 0.82304 0.0
C609 C 0.95494 0.47807 0.8387 0.0
C610 C 0.89657 0.48994 0.82213 0.0
C611 C 0.86031 0.49871 0.82156 0.0
C612 C 0.84923 0.53471 0.82191 0.0
C613 C 0.87516 0.56175 0.82291 0.0
C614 C 0.9115 0.55293 0.82341 0.0
H615 H 0.97246 0.46994 0.84446 0.0
H616 H 0.93764 0.50063 0.84093 0.0
H617 H 0.93725 0.45514 0.83699 0.0
H618 H 0.90458 0.46209 0.8217 0.0
H619 H 0.84101 0.47724 0.8208 0.0
H620 H 0.58711 0.62856 0.07341 0.0
H621 H 0.57044 0.56512 0.07446 0.0
H622 H 0.45863 0.59392 0.07292 0.0
H623 H 0.47487 0.65696 0.0717 0.0
H624 H 0.52655 0.5293 0.08715 0.0
H625 H 0.47033 0.52202 0.05219 0.0
H626 H 0.49792 0.55882 0.05598 0.0
H627 H 0.45132 0.55693 0.05906 0.0
C628 C 0.559 0.62133 0.0733 0.0
C629 C 0.53233 0.64766 0.07236 0.0
C630 C 0.54955 0.58517 0.07391 0.0
C631 C 0.51337 0.57497 0.0736 0.0
C632 C 0.48672 0.60128 0.07296 0.0
H633 H 0.40553 0.36806 0.07394 0.0
H634 H 0.41859 0.43231 0.07518 0.0
C635 C 0.4961 0.63728 0.07229 0.0
C636 C 0.50329 0.5368 0.07387 0.0
H637 H 0.46096 0.47153 0.0617 0.0
C638 C 0.51229 0.51658 0.08159 0.0
C639 C 0.48463 0.52048 0.06659 0.0
C640 C 0.47575 0.54055 0.05795 0.0
C641 C 0.50282 0.48034 0.08225 0.0
C642 C 0.4842 0.4641 0.07497 0.0
C643 C 0.47495 0.48435 0.06729 0.0
C644 C 0.47617 0.4255 0.0749 0.0
C645 C 0.51257 0.45968 0.09073 0.0
C646 C 0.50429 0.40079 0.07428 0.0
C647 C 0.49699 0.36435 0.07351 0.0
C648 C 0.46139 0.35199 0.07333 0.0
C649 C 0.43321 0.37681 0.07408 0.0
C650 C 0.44058 0.4134 0.07479 0.0
H651 H 0.51895 0.47779 0.09651 0.0
H652 H 0.4904 0.44154 0.09278 0.0
H653 H 0.53656 0.44298 0.08934 0.0
H654 H 0.5319 0.4098 0.0742 0.0
H655 H 0.51931 0.34591 0.07297 0.0
H656 H 0.33987 0.52184 0.95326 0.0
H657 H 0.40284 0.53825 0.95182 0.0
H658 H 0.43179 0.42648 0.95037 0.0
H659 H 0.36851 0.40972 0.9516 0.0
H660 H 0.45635 0.52079 0.96354 0.0
H661 H 0.48665 0.46893 0.92901 0.0
H662 H 0.44141 0.47424 0.93316 0.0
H663 H 0.46764 0.43598 0.9365 0.0
C664 C 0.35956 0.50068 0.95256 0.0
C665 C 0.34925 0.46444 0.95255 0.0
C666 C 0.39551 0.51015 0.95173 0.0
C667 C 0.42185 0.48362 0.95087 0.0
C668 C 0.41174 0.44739 0.95082 0.0
H669 H 0.65069 0.47846 0.95381 0.0
H670 H 0.58663 0.4661 0.95271 0.0
C671 C 0.37564 0.43785 0.95159 0.0
C672 C 0.46002 0.494 0.95059 0.0
H673 H 0.53665 0.48688 0.93805 0.0
C674 C 0.47385 0.51369 0.95793 0.0
C675 C 0.48265 0.4847 0.94325 0.0
C676 C 0.46881 0.46509 0.93499 0.0
C677 C 0.51003 0.52357 0.95824 0.0
C678 C 0.53274 0.51372 0.95097 0.0
C679 C 0.51894 0.49437 0.94359 0.0
C680 C 0.57139 0.52167 0.95119 0.0
C681 C 0.52398 0.54355 0.96643 0.0
C682 C 0.58383 0.55705 0.95057 0.0
C683 C 0.62049 0.56429 0.95119 0.0
C684 C 0.6451 0.53619 0.95246 0.0
C685 C 0.63242 0.50074 0.9529 0.0
C686 C 0.59588 0.49356 0.95223 0.0
H687 H 0.50431 0.54387 0.97211 0.0
H688 H 0.54931 0.53129 0.9689 0.0
H689 H 0.52984 0.57168 0.96448 0.0
H690 H 0.56516 0.57901 0.94968 0.0
H691 H 0.62947 0.59185 0.9508 0.0
H692 H 0.5735 0.85887 0.19162 0.0
H693 H 0.55744 0.92233 0.19005 0.0
H694 H 0.48716 0.91312 0.2133 0.0
H695 H 0.50134 0.84949 0.21446 0.0
H696 H 0.45511 0.94852 0.20079 0.0
H697 H 0.59181 0.00521 0.2043 0.0
H698 H 0.58774 0.97529 0.19483 0.0
H699 H 0.58248 0.95847 0.20625 0.0
C700 C 0.55482 0.87064 0.1964 0.0
C701 C 0.53867 0.84955 0.20317 0.0
C702 C 0.54581 0.90687 0.19555 0.0
C703 C 0.52154 0.92272 0.20166 0.0
C704 C 0.50587 0.90155 0.20849 0.0
H705 H 0.49873 0.1447 0.21458 0.0
H706 H 0.51371 0.08129 0.21326 0.0
C707 C 0.51405 0.86525 0.20917 0.0
C708 C 0.51149 0.96106 0.20092 0.0
H709 H 0.54538 0.0459 0.20069 0.0
C710 C 0.47487 0.96984 0.2008 0.0
C711 C 0.53727 0.98886 0.20096 0.0
C712 C 0.57698 0.98155 0.20168 0.0
C713 C 0.46324 0.00554 0.20105 0.0
C714 C 0.48901 0.03335 0.20094 0.0
C715 C 0.52563 0.02457 0.20074 0.0
C716 C 0.47892 0.07166 0.20171 0.0
C717 C 0.42355 0.01281 0.20189 0.0
C718 C 0.45426 0.08744 0.19567 0.0
C719 C 0.4448 0.1235 0.19662 0.0
C720 C 0.46088 0.14454 0.20339 0.0
C721 C 0.48604 0.12898 0.20929 0.0
C722 C 0.49469 0.09281 0.20852 0.0
H723 H 0.40886 0.98912 0.20455 0.0
H724 H 0.41824 0.03584 0.20647 0.0
H725 H 0.41247 0.01911 0.19506 0.0
H726 H 0.44257 0.07202 0.19019 0.0
H727 H 0.42572 0.13517 0.19191 0.0
H728 H 0.87186 0.90928 0.45168 0.0
H729 H 0.93587 0.92424 0.45098 0.0
H730 H 0.90955 0.03672 0.45005 0.0
H731 H 0.846 0.02225 0.4509 0.0
H732 H 0.97551 0.96443 0.43798 0.0
H733 H 0.97652 0.02867 0.47205 0.0
H734 H 0.94016 0.00061 0.46821 0.0
H735 H 0.94319 0.04642 0.46447 0.0
C736 C 0.87977 0.93716 0.4513 0.0
C737 C 0.85398 0.9646 0.45147 0.0
C738 C 0.91624 0.94564 0.45089 0.0
C739 C 0.92725 0.98158 0.45065 0.0
C740 C 0.90152 0.00887 0.45045 0.0
H741 H 0.13227 0.0913 0.45084 0.0
H742 H 0.06857 0.07619 0.44935 0.0
C743 C 0.86523 0.00049 0.45091 0.0
C744 C 0.96564 0.99088 0.45076 0.0
H745 H 0.02865 0.03625 0.463 0.0
C746 C 0.98724 0.97997 0.44346 0.0
C747 C 0.98068 0.01118 0.45793 0.0
C748 C 0.95905 0.02214 0.46616 0.0
C749 C 0.02358 0.98941 0.44307 0.0
C750 C 0.03846 0.00995 0.45021 0.0
C751 C 0.01689 0.02081 0.4575 0.0
C752 C 0.07686 0.01898 0.4505 0.0
C753 C 0.04571 0.97779 0.43501 0.0
C754 C 0.10223 0.99176 0.4517 0.0
C755 C 0.13839 0.00024 0.45262 0.0
C756 C 0.14979 0.03616 0.45235 0.0
C757 C 0.12429 0.06341 0.45106 0.0
C758 C 0.08799 0.05486 0.45019 0.0
H759 H 0.02863 0.96965 0.42917 0.0
H760 H 0.06389 -0.00034 0.43277 0.0
H761 H 0.06249 0.9545 0.43699 0.0
H762 H 0.09395 0.96398 0.45212 0.0
H763 H 0.15736 0.97861 0.4536 0.0
H764 H 0.97581 0.34172 0.70288 0.0
H765 H 0.96007 0.40488 0.70163 0.0
H766 H 0.07219 0.43284 0.70062 0.0
H767 H 0.08832 0.36932 0.70168 0.0
H768 H 0.97758 0.45758 0.71362 0.0
H769 H 0.03108 0.48914 0.67928 0.0
H770 H 0.02514 0.44376 0.68328 0.0
H771 H 0.06341 0.46946 0.68684 0.0
C772 C 0.9972 0.36122 0.70233 0.0
C773 C 0.03335 0.35055 0.70239 0.0
C774 C 0.98811 0.3973 0.70161 0.0
C775 C 0.01493 0.42342 0.70093 0.0
C776 C 0.05108 0.41296 0.70094 0.0
H777 H 0.01815 0.65277 0.70383 0.0
H778 H 0.03149 0.58892 0.70282 0.0
C779 C 0.06025 0.37673 0.70161 0.0
C780 C 0.00483 0.46168 0.70073 0.0
H781 H 0.01204 0.53861 0.6883 0.0
C782 C 0.98485 0.47526 0.70805 0.0
C783 C 0.01438 0.48454 0.69345 0.0
C784 C 0.03439 0.47098 0.68522 0.0
C785 C 0.97477 0.51137 0.70838 0.0
C786 C 0.98468 0.53428 0.70115 0.0
C787 C 0.00447 0.52076 0.69381 0.0
C788 C 0.97614 0.57281 0.70134 0.0
C789 C 0.95441 0.52501 0.71655 0.0
C790 C 0.94056 0.58472 0.70071 0.0
C791 C 0.93275 0.62127 0.70128 0.0
C792 C 0.96048 0.64631 0.70249 0.0
C793 C 0.99614 0.63417 0.70295 0.0
C794 C 0.00388 0.59774 0.70234 0.0
H795 H 0.9544 0.50539 0.72224 0.0
H796 H 0.96613 0.55059 0.71901 0.0
H797 H 0.92618 0.53029 0.71458 0.0
H798 H 0.91889 0.56572 0.69984 0.0
H799 H 0.90506 0.62983 0.70087 0.0
H800 H 0.24478 0.02952 0.35017 0.0
H801 H 0.24604 0.02878 0.36683 0.0
H802 H 0.24396 0.14429 0.36718 0.0
H803 H 0.24219 0.14533 0.35056 0.0
H804 H 0.29758 0.05856 0.37822 0.0
H805 H 0.16414 0.11842 0.38495 0.0
H806 H 0.1767 0.10116 0.37393 0.0
H807 H 0.19162 0.14478 0.37748 0.0
C808 C 0.24421 0.05478 0.35378 0.0
C809 C 0.24322 0.08749 0.34902 0.0
C810 C 0.24502 0.05429 0.36331 0.0
C811 C 0.24462 0.08645 0.36825 0.0
C812 C 0.24353 0.11912 0.36352 0.0
H813 H 0.25955 0.14757 0.42489 0.0
H814 H 0.25771 0.14519 0.40827 0.0
C815 C 0.24269 0.11966 0.354 0.0
C816 C 0.24678 0.08595 0.37834 0.0
H817 H 0.20369 0.11354 0.3976 0.0
C818 C 0.27694 0.07032 0.38247 0.0
C819 C 0.21984 0.10137 0.38386 0.0
C820 C 0.18608 0.11709 0.37985 0.0
C821 C 0.28131 0.07049 0.39197 0.0
C822 C 0.25454 0.08625 0.39748 0.0
C823 C 0.22425 0.10161 0.39336 0.0
C824 C 0.25742 0.08731 0.40755 0.0
C825 C 0.31496 0.05468 0.39601 0.0
C826 C 0.2579 0.05552 0.41266 0.0
C827 C 0.25901 0.05676 0.42218 0.0
C828 C 0.25946 0.08985 0.42676 0.0
C829 C 0.25933 0.12163 0.4216 0.0
C830 C 0.25819 0.12034 0.41209 0.0
H831 H 0.33648 0.05166 0.39084 0.0
H832 H 0.32516 0.07159 0.40166 0.0
H833 H 0.30885 0.02773 0.39881 0.0
H834 H 0.25669 0.02974 0.4093 0.0
H835 H 0.25887 0.03178 0.42594 0.0
H836 H 0.96607 0.74319 0.59964 0.0
H837 H 0.96674 0.74372 0.6163 0.0
H838 H 0.85118 0.74424 0.61665 0.0
H839 H 0.85019 0.74322 0.60002 0.0
H840 H 0.93797 0.79557 0.62778 0.0
H841 H 0.87536 0.66316 0.63427 0.0
H842 H 0.89296 0.67574 0.62327 0.0
H843 H 0.84968 0.69155 0.62686 0.0
C844 C 0.94077 0.74304 0.60326 0.0
C845 C 0.90806 0.743 0.59848 0.0
C846 C 0.94123 0.74343 0.61278 0.0
C847 C 0.90903 0.74356 0.61772 0.0
C848 C 0.87635 0.74339 0.61298 0.0
H849 H 0.84978 0.75693 0.67458 0.0
H850 H 0.85147 0.75551 0.65795 0.0
C851 C 0.87586 0.74298 0.60346 0.0
C852 C 0.90959 0.74533 0.62781 0.0
H853 H 0.88165 0.70187 0.64701 0.0
C854 C 0.92589 0.77497 0.632 0.0
C855 C 0.89375 0.71846 0.63329 0.0
C856 C 0.87723 0.68525 0.62921 0.0
C857 C 0.92604 0.77888 0.64151 0.0
C858 C 0.90995 0.75213 0.64698 0.0
C859 C 0.89386 0.72239 0.6428 0.0
C860 C 0.90933 0.75449 0.65706 0.0
C861 C 0.94258 0.81203 0.64561 0.0
C862 C 0.94134 0.75437 0.66209 0.0
C863 C 0.9405 0.75524 0.67161 0.0
C864 C 0.90759 0.75605 0.67629 0.0
C865 C 0.8756 0.75641 0.67121 0.0
C866 C 0.87648 0.75552 0.6617 0.0
H867 H 0.94565 0.83379 0.6405 0.0
H868 H 0.92612 0.82217 0.65135 0.0
H869 H 0.96959 0.80535 0.64828 0.0
H870 H 0.96698 0.75292 0.65865 0.0
H871 H 0.96563 0.7547 0.6753 0.0
H872 H 0.25249 0.35025 0.85083 0.0
H873 H 0.25004 0.35284 0.86743 0.0
H874 H 0.24892 0.46827 0.86632 0.0
H875 H 0.25176 0.46603 0.84967 0.0
H876 H 0.29605 0.43983 0.87952 0.0
H877 H 0.16072 0.37916 0.88226 0.0
H878 H 0.19191 0.35298 0.87576 0.0
H879 H 0.17833 0.39634 0.87167 0.0
C880 C 0.25182 0.37625 0.8541 0.0
C881 C 0.25211 0.40795 0.8489 0.0
C882 C 0.25018 0.37765 0.86359 0.0
C883 C 0.24858 0.41073 0.8681 0.0
C884 C 0.24985 0.44246 0.86297 0.0
H885 H 0.24023 0.46673 0.92594 0.0
H886 H 0.24093 0.46919 0.90929 0.0
C887 C 0.25149 0.44111 0.85345 0.0
C888 C 0.24578 0.41207 0.87817 0.0
H889 H 0.19361 0.38531 0.89603 0.0
C890 C 0.27354 0.42819 0.88314 0.0
C891 C 0.21634 0.39688 0.88286 0.0
C892 C 0.18494 0.38065 0.87787 0.0
C893 C 0.27319 0.42855 0.89271 0.0
C894 C 0.24397 0.41291 0.8974 0.0
C895 C 0.216 0.39722 0.89242 0.0
C896 C 0.24238 0.41167 0.90749 0.0
C897 C 0.30463 0.44463 0.89771 0.0
C898 C 0.24179 0.37852 0.91201 0.0
C899 C 0.24115 0.37699 0.92151 0.0
C900 C 0.24089 0.40864 0.92671 0.0
C901 C 0.24059 0.44184 0.92216 0.0
C902 C 0.24124 0.44332 0.91264 0.0
H903 H 0.32838 0.44778 0.89322 0.0
H904 H 0.29708 0.47155 0.90028 0.0
H905 H 0.31226 0.42781 0.90364 0.0
H906 H 0.24244 0.35376 0.90816 0.0
H907 H 0.24131 0.35097 0.92478 0.0
H908 H 0.52979 0.75689 0.09917 0.0
H909 H 0.52747 0.75652 0.11583 0.0
H910 H 0.64294 0.75404 0.11691 0.0
H911 H 0.64558 0.75489 0.10031 0.0
H912 H 0.55418 0.70452 0.12762 0.0
H913 H 0.61857 0.83582 0.13422 0.0
H914 H 0.60175 0.82333 0.12314 0.0
H915 H 0.64456 0.80707 0.12699 0.0
C916 C 0.55472 0.75664 0.10295 0.0
C917 C 0.58789 0.75609 0.09839 0.0
C918 C 0.55332 0.75634 0.11247 0.0
C919 C 0.58502 0.75575 0.11762 0.0
C920 C 0.61814 0.75527 0.11309 0.0
H921 H 0.64485 0.7388 0.17411 0.0
H922 H 0.64184 0.74134 0.15752 0.0
C923 C 0.61959 0.75558 0.10358 0.0
C924 C 0.58355 0.75417 0.12771 0.0
H925 H 0.61195 0.79681 0.14696 0.0
C926 C 0.5665 0.72485 0.13186 0.0
C927 C 0.59967 0.78073 0.13322 0.0
C928 C 0.61688 0.8137 0.12918 0.0
C929 C 0.5661 0.7208 0.14137 0.0
C930 C 0.58275 0.74706 0.14687 0.0
C931 C 0.59934 0.77663 0.14272 0.0
C932 C 0.58398 0.74408 0.15694 0.0
C933 C 0.54887 0.68792 0.14544 0.0
C934 C 0.5524 0.74477 0.16213 0.0
C935 C 0.55399 0.74327 0.17164 0.0
C936 C 0.58724 0.74123 0.17614 0.0
C937 C 0.61878 0.74028 0.17089 0.0
C938 C 0.61715 0.74181 0.1614 0.0
H939 H 0.54468 0.66657 0.14029 0.0
H940 H 0.5655 0.67695 0.15106 0.0
H941 H 0.52233 0.69527 0.14829 0.0
H942 H 0.52654 0.74713 0.15883 0.0
H943 H 0.52921 0.74427 0.17547 0.0
H944 H 0.7435 0.64584 0.85064 0.0
H945 H 0.74531 0.64249 0.86723 0.0
H946 H 0.74203 0.52714 0.86588 0.0
H947 H 0.7407 0.53016 0.84923 0.0
H948 H 0.69664 0.61188 0.87937 0.0
H949 H 0.83 0.54622 0.88187 0.0
H950 H 0.81397 0.56657 0.87148 0.0
H951 H 0.79793 0.52317 0.87488 0.0
C952 C 0.74311 0.61971 0.85385 0.0
C953 C 0.74215 0.58825 0.84858 0.0
C954 C 0.74415 0.61787 0.86334 0.0
C955 C 0.74441 0.58458 0.86779 0.0
C956 C 0.74262 0.5531 0.86258 0.0
H957 H 0.753 0.52883 0.92549 0.0
H958 H 0.75018 0.52715 0.90884 0.0
C959 C 0.7416 0.5549 0.85306 0.0
C960 C 0.74628 0.58306 0.87787 0.0
H961 H 0.79826 0.5547 0.89564 0.0
C962 C 0.71886 0.59939 0.88293 0.0
C963 C 0.77527 0.56668 0.8825 0.0
C964 C 0.80616 0.54991 0.87743 0.0
C965 C 0.71954 0.59967 0.89248 0.0
C966 C 0.74875 0.58371 0.8971 0.0
C967 C 0.77594 0.56694 0.89207 0.0
C968 C 0.75179 0.58472 0.90717 0.0
C969 C 0.68874 0.61665 0.89755 0.0
C970 C 0.7545 0.61761 0.91174 0.0
C971 C 0.75615 0.61869 0.92124 0.0
C972 C 0.7553 0.58684 0.92637 0.0
C973 C 0.75362 0.55386 0.92175 0.0
C974 C 0.75199 0.55283 0.91224 0.0
H975 H 0.66448 0.61905 0.8932 0.0
H976 H 0.68178 0.60091 0.90372 0.0
H977 H 0.69659 0.644 0.89973 0.0
H978 H 0.75515 0.64251 0.90795 0.0
H979 H 0.75763 0.64454 0.92456 0.0
H980 H 0.35217 0.25363 0.17468 0.0
H981 H 0.3553 0.25177 0.15809 0.0
H982 H 0.47075 0.25078 0.15941 0.0
H983 H 0.46793 0.2521 0.17607 0.0
H984 H 0.38717 0.29915 0.14596 0.0
H985 H 0.44863 0.16391 0.1434 0.0
H986 H 0.42911 0.18055 0.15381 0.0
H987 H 0.47294 0.19514 0.15035 0.0
C988 C 0.37829 0.25305 0.17146 0.0
C989 C 0.40982 0.25282 0.17672 0.0
C990 C 0.38 0.25199 0.16197 0.0
C991 C 0.41322 0.25052 0.15751 0.0
C992 C 0.4448 0.25112 0.16271 0.0
H993 H 0.46856 0.24194 0.09985 0.0
H994 H 0.47018 0.24426 0.11651 0.0
C995 C 0.44313 0.25214 0.17223 0.0
C996 C 0.41455 0.2487 0.14743 0.0
H997 H 0.44118 0.19611 0.12964 0.0
C998 C 0.39896 0.27662 0.14239 0.0
C999 C 0.42999 0.21927 0.14278 0.0
C1000 C 0.44586 0.18782 0.14784 0.0
C1001 C 0.39853 0.27603 0.13283 0.0
C1002 C 0.41361 0.24644 0.12819 0.0
C1003 C 0.42962 0.21872 0.13322 0.0
C1004 C 0.41257 0.24364 0.11813 0.0
C1005 C 0.38235 0.30732 0.12777 0.0
C1006 C 0.37965 0.24165 0.11353 0.0
C1007 C 0.3786 0.24026 0.10403 0.0
C1008 C 0.4105 0.24069 0.09892 0.0
C1009 C 0.44349 0.24166 0.10357 0.0
C1010 C 0.44449 0.243 0.11308 0.0
H1011 H 0.38039 0.33152 0.13214 0.0
H1012 H 0.39841 0.31405 0.12164 0.0
H1013 H 0.35489 0.30013 0.12552 0.0
H1014 H 0.35471 0.24139 0.11731 0.0
H1015 H 0.35273 0.23935 0.10069 0.0
H1016 H 0.75572 0.84766 0.34993 0.0
H1017 H 0.75342 0.84959 0.36654 0.0
H1018 H 0.75293 0.96507 0.36573 0.0
H1019 H 0.75558 0.96347 0.34908 0.0
H1020 H 0.80034 0.93565 0.37877 0.0
H1021 H 0.66442 0.87615 0.38156 0.0
H1022 H 0.69548 0.85012 0.37497 0.0
H1023 H 0.68192 0.89361 0.37099 0.0
C1024 C 0.75522 0.87351 0.35327 0.0
C1025 C 0.75564 0.90543 0.34816 0.0
C1026 C 0.75367 0.87454 0.36277 0.0
C1027 C 0.75232 0.90746 0.36736 0.0
C1028 C 0.75368 0.93938 0.36231 0.0
H1029 H 0.74415 0.96724 0.42477 0.0
H1030 H 0.74538 0.96772 0.40812 0.0
C1031 C 0.75521 0.9384 0.35279 0.0
C1032 C 0.74972 0.90853 0.37743 0.0
H1033 H 0.69701 0.88308 0.39532 0.0
C1034 C 0.77767 0.92438 0.3824 0.0
C1035 C 0.7201 0.89375 0.38214 0.0
C1036 C 0.68859 0.87772 0.37716 0.0
C1037 C 0.77722 0.92508 0.39196 0.0
C1038 C 0.74767 0.91014 0.39667 0.0
C1039 C 0.71963 0.89448 0.3917 0.0
C1040 C 0.74561 0.91 0.40676 0.0
C1041 C 0.80884 0.94092 0.39694 0.0
C1042 C 0.74408 0.87741 0.41151 0.0
C1043 C 0.7431 0.87701 0.42103 0.0
C1044 C 0.74345 0.90927 0.42598 0.0
C1045 C 0.74404 0.94191 0.42118 0.0
C1046 C 0.745 0.94225 0.41166 0.0
H1047 H 0.83285 0.94293 0.3925 0.0
H1048 H 0.80188 0.96831 0.39927 0.0
H1049 H 0.8158 0.9246 0.40301 0.0
H1050 H 0.74428 0.85221 0.40786 0.0
H1051 H 0.74258 0.8514 0.4245 0.0
H1052 H 0.03143 0.24241 0.67539 0.0
H1053 H 0.03013 0.24347 0.65873 0.0
H1054 H 0.14568 0.24419 0.65811 0.0
H1055 H 0.1473 0.24267 0.67472 0.0
H1056 H 0.05868 0.29578 0.64722 0.0
H1057 H 0.12086 0.16344 0.64048 0.0
H1058 H 0.1035 0.17573 0.65151 0.0
H1059 H 0.1468 0.19145 0.6479 0.0
C1060 C 0.05658 0.24241 0.67171 0.0
C1061 C 0.08948 0.2423 0.6764 0.0
C1062 C 0.05578 0.2431 0.66219 0.0
C1063 C 0.0878 0.24343 0.65717 0.0
C1064 C 0.12064 0.2432 0.66183 0.0
H1065 H 0.14746 0.2589 0.60041 0.0
H1066 H 0.14548 0.25696 0.61704 0.0
C1067 C 0.12149 0.24251 0.67134 0.0
C1068 C 0.08695 0.24548 0.64709 0.0
H1069 H 0.11495 0.20278 0.62781 0.0
C1070 C 0.07072 0.27532 0.64296 0.0
C1071 C 0.10275 0.21879 0.64155 0.0
C1072 C 0.11918 0.18537 0.64557 0.0
C1073 C 0.07066 0.27965 0.63346 0.0
C1074 C 0.08679 0.25314 0.62794 0.0
C1075 C 0.10274 0.22315 0.63206 0.0
C1076 C 0.0876 0.25598 0.61786 0.0
C1077 C 0.05422 0.31302 0.62942 0.0
C1078 C 0.05569 0.25607 0.6128 0.0
C1079 C 0.0567 0.25724 0.60329 0.0
C1080 C 0.08968 0.25813 0.59865 0.0
C1081 C 0.12159 0.25833 0.60376 0.0
C1082 C 0.12053 0.25714 0.61326 0.0
H1083 H 0.05106 0.33453 0.63458 0.0
H1084 H 0.07081 0.32342 0.62373 0.0
H1085 H 0.02726 0.30649 0.6267 0.0
H1086 H 0.02999 0.25452 0.61621 0.0
H1087 H 0.03162 0.25683 0.59957 0.0
H1088 H 0.27428 0.18047 0.30147 0.0
H1089 H 0.29153 0.20228 0.28644 0.0
H1090 H 0.27947 0.09573 0.27552 0.0
H1091 H 0.26323 0.07342 0.29064 0.0
H1092 H 0.34054 0.12485 0.27 0.0
H1093 H 0.23174 0.22317 0.2644 0.0
H1094 H 0.2556 0.23147 0.27478 0.0
H1095 H 0.2304 0.19064 0.27348 0.0
C1096 C 0.27489 0.16169 0.29586 0.0
C1097 C 0.26725 0.12518 0.29726 0.0
C1098 C 0.28455 0.1743 0.28724 0.0
C1099 C 0.28618 0.15083 0.27978 0.0
C1100 C 0.27823 0.11441 0.28115 0.0
H1101 H 0.31047 0.21811 0.22326 0.0
H1102 H 0.28782 0.19725 0.23796 0.0
C1103 C 0.26889 0.1017 0.2898 0.0
C1104 C 0.2981 0.16387 0.2707 0.0
H1105 H 0.28229 0.22749 0.25443 0.0
C1106 C 0.32762 0.14713 0.26657 0.0
C1107 C 0.281 0.19265 0.26615 0.0
C1108 C 0.2477 0.21027 0.26988 0.0
C1109 C 0.34091 0.15875 0.25812 0.0
C1110 C 0.32492 0.18867 0.25379 0.0
C1111 C 0.29492 0.20494 0.25782 0.0
C1112 C 0.33849 0.20299 0.24498 0.0
C1113 C 0.37153 0.13833 0.25386 0.0
C1114 C 0.37428 0.21411 0.24408 0.0
C1115 C 0.38741 0.22574 0.23566 0.0
C1116 C 0.36483 0.22709 0.228 0.0
C1117 C 0.32861 0.21739 0.22902 0.0
C1118 C 0.3156 0.20542 0.23742 0.0
H1119 H 0.37341 0.11062 0.25659 0.0
H1120 H 0.36857 0.13685 0.24635 0.0
H1121 H 0.39711 0.15218 0.25543 0.0
H1122 H 0.39221 0.21349 0.24987 0.0
H1123 H 0.41535 0.23334 0.23514 0.0
H1124 H 0.78857 0.92573 0.48277 0.0
H1125 H 0.80887 0.90327 0.49755 0.0
H1126 H 0.77798 0.79614 0.48987 0.0
H1127 H 0.75853 0.81819 0.47499 0.0
H1128 H 0.77482 0.86956 0.51126 0.0
H1129 H 0.88073 0.78077 0.49746 0.0
H1130 H 0.85784 0.81353 0.49055 0.0
H1131 H 0.83709 0.77105 0.49297 0.0
C1132 C 0.78599 0.89739 0.48423 0.0
C1133 C 0.77219 0.87371 0.47766 0.0
C1134 C 0.79765 0.88458 0.49268 0.0
C1135 C 0.79569 0.84788 0.49476 0.0
C1136 C 0.78072 0.82439 0.48834 0.0
H1137 H 0.81662 0.75971 0.54956 0.0
H1138 H 0.79471 0.77947 0.53469 0.0
C1139 C 0.76934 0.83711 0.47985 0.0
C1140 C 0.80922 0.8343 0.50364 0.0
H1141 H 0.86788 0.77493 0.51324 0.0
C1142 C 0.79522 0.84892 0.51169 0.0
C1143 C 0.83629 0.80777 0.50421 0.0
C1144 C 0.85415 0.79261 0.49584 0.0
C1145 C 0.80719 0.83748 0.52029 0.0
C1146 C 0.83327 0.80997 0.52086 0.0
C1147 C 0.84759 0.79567 0.51281 0.0
C1148 C 0.84671 0.79629 0.52974 0.0
C1149 C 0.7924 0.85565 0.52865 0.0
C1150 C 0.88347 0.79765 0.53178 0.0
C1151 C 0.89618 0.78582 0.54022 0.0
C1152 C 0.87235 0.77242 0.54682 0.0
C1153 C 0.83567 0.77019 0.54467 0.0
C1154 C 0.82304 0.78174 0.53619 0.0
H1155 H 0.78097 0.88239 0.52702 0.0
H1156 H 0.77059 0.83897 0.53156 0.0
H1157 H 0.81344 0.85904 0.53393 0.0
H1158 H 0.90229 0.80853 0.52689 0.0
H1159 H 0.92458 0.78793 0.54165 0.0
H1160 H 0.18333 0.27637 0.72371 0.0
H1161 H 0.20504 0.29417 0.73871 0.0
H1162 H 0.09917 0.27877 0.74985 0.0
H1163 H 0.07696 0.26194 0.73477 0.0
H1164 H 0.12678 0.34081 0.75531 0.0
H1165 H 0.22804 0.23447 0.76068 0.0
H1166 H 0.23532 0.25874 0.75031 0.0
H1167 H 0.19525 0.23237 0.75167 0.0
C1168 C 0.1647 0.27638 0.72937 0.0
C1169 C 0.12839 0.2676 0.72804 0.0
C1170 C 0.17724 0.28637 0.73797 0.0
C1171 C 0.15393 0.28722 0.74547 0.0
C1172 C 0.11773 0.27816 0.74418 0.0
H1173 H 0.21978 0.31068 0.80201 0.0
H1174 H 0.19966 0.28848 0.78722 0.0
C1175 C 0.10507 0.26848 0.73555 0.0
C1176 C 0.16683 0.29936 0.75454 0.0
H1177 H 0.23076 0.28457 0.77077 0.0
C1178 C 0.14938 0.32835 0.75871 0.0
C1179 C 0.19605 0.28285 0.75905 0.0
C1180 C 0.21451 0.25016 0.75524 0.0
C1181 C 0.16064 0.34164 0.76718 0.0
C1182 C 0.19088 0.32618 0.7715 0.0
C1183 C 0.20793 0.29677 0.76741 0.0
C1184 C 0.20465 0.3396 0.78037 0.0
C1185 C 0.13949 0.37162 0.7715 0.0
C1186 C 0.21506 0.37554 0.7814 0.0
C1187 C 0.22629 0.38841 0.78987 0.0
C1188 C 0.22791 0.36544 0.79746 0.0
C1189 C 0.21883 0.32913 0.79632 0.0
C1190 C 0.2073 0.31637 0.78786 0.0
H1191 H 0.11182 0.37312 0.76873 0.0
H1192 H 0.13785 0.36825 0.779 0.0
H1193 H 0.1529 0.39753 0.77004 0.0
H1194 H 0.21424 0.39375 0.77566 0.0
H1195 H 0.2334 0.41644 0.79049 0.0
H1196 H 0.7227 0.68266 0.97346 0.0
H1197 H 0.70382 0.70486 0.98833 0.0
H1198 H 0.71655 0.59896 0.99967 0.0
H1199 H 0.73441 0.57627 0.98473 0.0
H1200 H 0.6545 0.62742 1.00475 0.0
H1201 H 0.7616 0.72739 1.01061 0.0
H1202 H 0.73826 0.73488 1.0001 0.0
H1203 H 0.76408 0.69455 1.00163 0.0
C1204 C 0.7219 0.66414 0.97914 0.0
C1205 C 0.7302 0.62768 0.9779 0.0
C1206 C 0.71128 0.67695 0.98766 0.0
C1207 C 0.70933 0.65376 0.99518 0.0
C1208 C 0.71798 0.61742 0.99399 0.0
H1209 H 0.68388 0.71943 0.05155 0.0
H1210 H 0.70613 0.69928 0.03678 0.0
C1211 C 0.72827 0.6045 0.98544 0.0
C1212 C 0.69651 0.66693 1.00417 0.0
H1213 H 0.71086 0.73057 0.02047 0.0
C1214 C 0.66697 0.64985 1.00821 0.0
C1215 C 0.713 0.69594 1.00875 0.0
C1216 C 0.74621 0.71401 1.0051 0.0
C1217 C 0.65322 0.66119 0.01663 0.0
C1218 C 0.66875 0.69117 0.02102 0.0
C1219 C 0.6986 0.70794 0.01704 0.0
C1220 C 0.65516 0.7048 0.02989 0.0
C1221 C 0.62271 0.64034 0.02081 0.0
C1222 C 0.61925 0.71544 0.0309 0.0
C1223 C 0.60632 0.72666 0.03938 0.0
C1224 C 0.62922 0.72806 0.04698 0.0
C1225 C 0.66548 0.71867 0.04585 0.0
C1226 C 0.67828 0.70713 0.0374 0.0
H1227 H 0.62102 0.61276 0.018 0.0
H1228 H 0.62566 0.63846 0.02832 0.0
H1229 H 0.59705 0.65412 0.01928 0.0
H1230 H 0.60112 0.71486 0.02515 0.0
H1231 H 0.57834 0.73401 0.03999 0.0
H1232 H 0.42204 0.26486 0.04061 0.0
H1233 H 0.39932 0.28374 0.02573 0.0
H1234 H 0.29299 0.2938 0.03696 0.0
H1235 H 0.31523 0.2739 0.05177 0.0
H1236 H 0.29075 0.26325 0.02054 0.0
H1237 H 0.37516 0.3852 0.01878 0.0
H1238 H 0.40095 0.34494 0.02006 0.0
H1239 H 0.37106 0.35875 0.02901 0.0
C1240 C 0.39378 0.27094 0.0399 0.0
C1241 C 0.37051 0.26807 0.0474 0.0
C1242 C 0.38088 0.28201 0.03141 0.0
C1243 C 0.34458 0.29103 0.03027 0.0
C1244 C 0.32113 0.28722 0.03768 0.0
H1245 H 0.26224 0.41801 0.98508 0.0
H1246 H 0.28041 0.3955 1.00003 0.0
C1247 C 0.33392 0.27582 0.04615 0.0
C1248 C 0.33095 0.30451 0.02138 0.0
H1249 H 0.34334 0.36967 1.00534 0.0
C1250 C 0.30217 0.28659 0.01723 0.0
C1251 C 0.34537 0.3354 0.01713 0.0
C1252 C 0.37458 0.35742 0.02151 0.0
C1253 C 0.28781 0.29833 1.00889 0.0
C1254 C 0.30326 0.32829 1.00446 0.0
C1255 C 0.33168 0.34651 1.00868 0.0
C1256 C 0.29045 0.34131 0.99545 0.0
C1257 C 0.25571 0.27895 1.00505 0.0
C1258 C 0.29003 0.31842 0.98787 0.0
C1259 C 0.27924 0.33112 0.97933 0.0
C1260 C 0.26923 0.36718 0.97816 0.0
C1261 C 0.26972 0.39009 0.98575 0.0
C1262 C 0.28017 0.37726 0.9943 0.0
H1263 H 0.24058 0.2646 1.01045 0.0
H1264 H 0.2372 0.29775 1.00155 0.0
H1265 H 0.26495 0.25872 1.00004 0.0
H1266 H 0.29875 0.29086 0.9885 0.0
H1267 H 0.27957 0.31284 0.97361 0.0
H1268 H 0.73686 0.91639 0.28967 0.0
H1269 H 0.71872 0.89357 0.27476 0.0
H1270 H 0.70519 0.78798 0.28621 0.0
H1271 H 0.72431 0.81028 0.30106 0.0
H1272 H 0.73702 0.78456 0.26987 0.0
H1273 H 0.61693 0.87157 0.26754 0.0
H1274 H 0.65778 0.89633 0.2689 0.0
H1275 H 0.64267 0.86709 0.27787 0.0
C1276 C 0.7302 0.88827 0.28901 0.0
C1277 C 0.73182 0.86523 0.29658 0.0
C1278 C 0.71956 0.87531 0.28048 0.0
C1279 C 0.70977 0.83921 0.27939 0.0
C1280 C 0.71239 0.81597 0.28688 0.0
H1281 H 0.58165 0.75747 0.23458 0.0
H1282 H 0.60498 0.77548 0.24944 0.0
C1283 C 0.72333 0.8288 0.29538 0.0
C1284 C 0.69651 0.82559 0.2705 0.0
H1285 H 0.63202 0.83842 0.25431 0.0
C1286 C 0.71401 0.79628 0.26647 0.0
C1287 C 0.66607 0.84044 0.26614 0.0
C1288 C 0.64453 0.87034 0.27037 0.0
C1289 C 0.7022 0.7817 0.25818 0.0
C1290 C 0.6726 0.79744 0.25366 0.0
C1291 C 0.65489 0.82651 0.25773 0.0
C1292 C 0.65926 0.78419 0.24473 0.0
C1293 C 0.72107 0.74906 0.25447 0.0
C1294 C 0.68198 0.78289 0.23711 0.0
C1295 C 0.6688 0.77216 0.22862 0.0
C1296 C 0.63244 0.76311 0.22753 0.0
C1297 C 0.60979 0.76422 0.23518 0.0
C1298 C 0.62308 0.7746 0.24368 0.0
H1299 H 0.73526 0.73409 0.25994 0.0
H1300 H 0.70194 0.73062 0.25108 0.0
H1301 H 0.74136 0.75763 0.2494 0.0
H1302 H 0.70975 0.79102 0.23767 0.0
H1303 H 0.6869 0.77198 0.22286 0.0
H1304 H 0.23543 0.07999 0.48512 0.0
H1305 H 0.2157 0.10294 0.49988 0.0
H1306 H 0.20225 0.20818 0.48821 0.0
H1307 H 0.22301 0.18575 0.47352 0.0
H1308 H 0.2326 0.21252 0.50459 0.0
H1309 H 0.11361 0.12415 0.50676 0.0
H1310 H 0.15469 0.09961 0.50561 0.0
H1311 H 0.13988 0.1284 0.49652 0.0
C1312 C 0.22842 0.10806 0.4857 0.0
C1313 C 0.23061 0.13097 0.47811 0.0
C1314 C 0.21686 0.12109 0.49414 0.0
C1315 C 0.20665 0.15712 0.49512 0.0
C1316 C 0.20975 0.18024 0.48761 0.0
H1317 H 0.0779 0.23707 0.54027 0.0
H1318 H 0.10042 0.21926 0.5253 0.0
C1319 C 0.22165 0.16734 0.47921 0.0
C1320 C 0.19275 0.17086 0.50394 0.0
H1321 H 0.1283 0.15715 0.52009 0.0
C1322 C 0.2097 0.20049 0.50796 0.0
C1323 C 0.16242 0.15565 0.50827 0.0
C1324 C 0.14134 0.12545 0.50403 0.0
C1325 C 0.19759 0.21493 0.51624 0.0
C1326 C 0.16828 0.19868 0.52077 0.0
C1327 C 0.15097 0.16942 0.51668 0.0
C1328 C 0.15515 0.21138 0.52977 0.0
C1329 C 0.2159 0.2479 0.51993 0.0
C1330 C 0.17835 0.2129 0.53729 0.0
C1331 C 0.16564 0.22349 0.54583 0.0
C1332 C 0.12927 0.23218 0.54708 0.0
C1333 C 0.10606 0.23063 0.53954 0.0
C1334 C 0.11889 0.22038 0.53098 0.0
H1335 H 0.22944 0.2633 0.51444 0.0
H1336 H 0.19656 0.26585 0.52342 0.0
H1337 H 0.23669 0.23968 0.52492 0.0
H1338 H 0.20619 0.20516 0.53661 0.0
H1339 H 0.18419 0.22399 0.5515 0.0
H1340 H 0.81311 0.72392 0.72366 0.0
H1341 H 0.79126 0.70602 0.73865 0.0
H1342 H 0.89753 0.71912 0.74972 0.0
H1343 H 0.91986 0.73603 0.73466 0.0
H1344 H 0.86903 0.65741 0.75509 0.0
H1345 H 0.76951 0.76506 0.76077 0.0
H1346 H 0.76166 0.74133 0.75035 0.0
H1347 H 0.80216 0.76701 0.75173 0.0
C1348 C 0.8318 0.7234 0.7293 0.0
C1349 C 0.86825 0.73153 0.72796 0.0
C1350 C 0.81918 0.71336 0.7379 0.0
C1351 C 0.84258 0.71181 0.74537 0.0
C1352 C 0.87891 0.72027 0.74407 0.0
H1353 H 0.77671 0.68688 0.80191 0.0
H1354 H 0.79711 0.70945 0.78716 0.0
C1355 C 0.89164 0.73 0.73545 0.0
C1356 C 0.8296 0.69949 0.75443 0.0
H1357 H 0.76609 0.71455 0.77075 0.0
C1358 C 0.84666 0.67007 0.75854 0.0
C1359 C 0.8007 0.71625 0.759 0.0
C1360 C 0.78269 0.74938 0.75528 0.0
C1361 C 0.83531 0.6566 0.76699 0.0
C1362 C 0.80535 0.67231 0.77136 0.0
C1363 C 0.7887 0.70215 0.76734 0.0
C1364 C 0.79145 0.65869 0.7802 0.0
C1365 C 0.85608 0.62613 0.77123 0.0
C1366 C 0.7806 0.62284 0.78116 0.0
C1367 C 0.76923 0.60976 0.78961 0.0
C1368 C 0.7679 0.63242 0.79724 0.0
C1369 C 0.77743 0.66867 0.79618 0.0
C1370 C 0.78912 0.68163 0.78774 0.0
H1371 H 0.88371 0.6244 0.76844 0.0
H1372 H 0.85781 0.62913 0.77873 0.0
H1373 H 0.84232 0.60047 0.7697 0.0
H1374 H 0.78117 0.60486 0.77538 0.0
H1375 H 0.76176 0.5818 0.79017 0.0
loop_
_geom_bond_atom_site_label_1
_geom_bond_atom_site_label_2
_geom_bond_distance
_geom_bond_site_symmetry_2
_ccdc_geom_bond_type
C0 O2 1.247 . S
C0 O4 1.258 . S
C1 O8 1.247 . S
C1 O9 1.258 . S
O2 C0 1.247 . S
O2 Zn3 2.028 . S
Zn3 O2 2.028 . S
Zn3 O7 2.035 . S
Zn3 O9 2.035 . S
Zn3 O10 2.028 . S
O4 C0 1.258 . S
O4 Zn5 2.035 . S
Zn5 O4 2.035 . S
Zn5 O6 2.028 . S
Zn5 O8 2.028 . S
Zn5 O11 2.035 . S
O6 Zn5 2.028 . S
O6 C12 1.247 . S
O7 Zn3 2.035 . S
O7 C12 1.258 . S
O8 C1 1.247 . S
O8 Zn5 2.028 . S
O9 C1 1.258 . S
O9 Zn3 2.035 . S
O10 Zn3 2.028 . S
O10 C13 1.247 . S
O11 Zn5 2.035 . S
O11 C13 1.258 . S
C12 O6 1.247 . S
C12 O7 1.258 . S
C13 O10 1.247 . S
C13 O11 1.258 . S
C14 O16 1.247 . S
C14 O18 1.258 . S
C15 O22 1.247 . S
C15 O23 1.258 . S
O16 C14 1.247 . S
O16 Zn17 2.028 . S
Zn17 O16 2.028 . S
Zn17 O21 2.035 . S
Zn17 O23 2.035 . S
Zn17 O24 2.028 . S
O18 C14 1.258 . S
O18 Zn19 2.035 . S
Zn19 O18 2.035 . S
Zn19 O20 2.028 . S
Zn19 O22 2.028 . S
Zn19 O25 2.035 . S
O20 Zn19 2.028 . S
O20 C26 1.247 . S
O21 Zn17 2.035 . S
O21 C26 1.258 . S
O22 C15 1.247 . S
O22 Zn19 2.028 . S
O23 C15 1.258 . S
O23 Zn17 2.035 . S
O24 Zn17 2.028 . S
O24 C27 1.247 . S
O25 Zn19 2.035 . S
O25 C27 1.258 . S
C26 O20 1.247 . S
C26 O21 1.258 . S
C27 O24 1.247 . S
C27 O25 1.258 . S
C28 O30 1.247 . S
C28 O32 1.258 . S
C29 O36 1.247 . S
C29 O37 1.258 . S
O30 C28 1.247 . S
O30 Zn31 2.028 . S
Zn31 O30 2.028 . S
Zn31 O35 2.035 . S
Zn31 O37 2.035 . S
Zn31 O38 2.028 . S
O32 C28 1.258 . S
O32 Zn33 2.035 . S
Zn33 O32 2.035 . S
Zn33 O34 2.028 . S
Zn33 O36 2.028 . S
Zn33 O39 2.035 . S
O34 Zn33 2.028 . S
O34 C40 1.247 . S
O35 Zn31 2.035 . S
O35 C40 1.258 . S
O36 C29 1.247 . S
O36 Zn33 2.028 . S
O37 C29 1.258 . S
O37 Zn31 2.035 . S
O38 Zn31 2.028 . S
O38 C41 1.247 . S
O39 Zn33 2.035 . S
O39 C41 1.258 . S
C40 O34 1.247 . S
C40 O35 1.258 . S
C41 O38 1.247 . S
C41 O39 1.258 . S
C42 O44 1.247 . S
C42 O46 1.258 . S
C43 O50 1.247 . S
C43 O51 1.258 . S
O44 C42 1.247 . S
O44 Zn45 2.028 . S
Zn45 O44 2.028 . S
Zn45 O49 2.035 . S
Zn45 O51 2.035 . S
Zn45 O52 2.028 . S
O46 C42 1.258 . S
O46 Zn47 2.035 . S
Zn47 O46 2.035 . S
Zn47 O48 2.028 . S
Zn47 O50 2.028 . S
Zn47 O53 2.035 . S
O48 Zn47 2.028 . S
O48 C54 1.247 . S
O49 Zn45 2.035 . S
O49 C54 1.258 . S
O50 C43 1.247 . S
O50 Zn47 2.028 . S
O51 C43 1.258 . S
O51 Zn45 2.035 . S
O52 Zn45 2.028 . S
O52 C55 1.247 . S
O53 Zn47 2.035 . S
O53 C55 1.258 . S
C54 O48 1.247 . S
C54 O49 1.258 . S
C55 O52 1.247 . S
C55 O53 1.258 . S
C56 O58 1.247 . S
C56 O60 1.258 . S
C57 O64 1.247 . S
C57 O65 1.258 . S
O58 C56 1.247 . S
O58 Zn59 2.028 . S
Zn59 O58 2.028 . S
Zn59 O63 2.035 . S
Zn59 O65 2.035 . S
Zn59 O66 2.028 . S
O60 C56 1.258 . S
O60 Zn61 2.035 . S
Zn61 O60 2.035 . S
Zn61 O62 2.028 . S
Zn61 O64 2.028 . S
Zn61 O67 2.035 . S
O62 Zn61 2.028 . S
O62 C68 1.247 . S
O63 Zn59 2.035 . S
O63 C68 1.258 . S
O64 C57 1.247 . S
O64 Zn61 2.028 . S
O65 C57 1.258 . S
O65 Zn59 2.035 . S
O66 Zn59 2.028 . S
O66 C69 1.247 . S
O67 Zn61 2.035 . S
O67 C69 1.258 . S
C68 O62 1.247 . S
C68 O63 1.258 . S
C69 O66 1.247 . S
C69 O67 1.258 . S
C70 O72 1.247 . S
C70 O74 1.258 . S
C71 O78 1.247 . S
C71 O79 1.258 . S
O72 C70 1.247 . S
O72 Zn73 2.028 . S
Zn73 O72 2.028 . S
Zn73 O77 2.035 . S
Zn73 O79 2.035 . S
Zn73 O80 2.028 . S
O74 C70 1.258 . S
O74 Zn75 2.035 . S
Zn75 O74 2.035 . S
Zn75 O76 2.028 . S
Zn75 O78 2.028 . S
Zn75 O81 2.035 . S
O76 Zn75 2.028 . S
O76 C82 1.247 . S
O77 Zn73 2.035 . S
O77 C82 1.258 . S
O78 C71 1.247 . S
O78 Zn75 2.028 . S
O79 C71 1.258 . S
O79 Zn73 2.035 . S
O80 Zn73 2.028 . S
O80 C83 1.247 . S
O81 Zn75 2.035 . S
O81 C83 1.258 . S
C82 O76 1.247 . S
C82 O77 1.258 . S
C83 O80 1.247 . S
C83 O81 1.258 . S
C84 O86 1.247 . S
C84 O88 1.258 . S
C85 O92 1.247 . S
C85 O93 1.258 . S
O86 C84 1.247 . S
O86 Zn87 2.028 . S
Zn87 O86 2.028 . S
Zn87 O91 2.035 . S
Zn87 O93 2.035 . S
Zn87 O94 2.028 . S
O88 C84 1.258 . S
O88 Zn89 2.035 . S
Zn89 O88 2.035 . S
Zn89 O90 2.028 . S
Zn89 O92 2.028 . S
Zn89 O95 2.035 . S
O90 Zn89 2.028 . S
O90 C96 1.247 . S
O91 Zn87 2.035 . S
O91 C96 1.258 . S
O92 C85 1.247 . S
O92 Zn89 2.028 . S
O93 C85 1.258 . S
O93 Zn87 2.035 . S
O94 Zn87 2.028 . S
O94 C97 1.247 . S
O95 Zn89 2.035 . S
O95 C97 1.258 . S
C96 O90 1.247 . S
C96 O91 1.258 . S
C97 O94 1.247 . S
C97 O95 1.258 . S
C98 O100 1.247 . S
C98 O102 1.258 . S
C99 O106 1.247 . S
C99 O107 1.258 . S
O100 C98 1.247 . S
O100 Zn101 2.028 . S
Zn101 O100 2.028 . S
Zn101 O105 2.035 . S
Zn101 O107 2.035 . S
Zn101 O108 2.028 . S
O102 C98 1.258 . S
O102 Zn103 2.035 . S
Zn103 O102 2.035 . S
Zn103 O104 2.028 . S
Zn103 O106 2.028 . S
Zn103 O109 2.035 . S
O104 Zn103 2.028 . S
O104 C110 1.247 . S
O105 Zn101 2.035 . S
O105 C110 1.258 . S
O106 C99 1.247 . S
O106 Zn103 2.028 . S
O107 C99 1.258 . S
O107 Zn101 2.035 . S
O108 Zn101 2.028 . S
O108 C111 1.247 . S
O109 Zn103 2.035 . S
O109 C111 1.258 . S
C110 O104 1.247 . S
C110 O105 1.258 . S
C111 O108 1.247 . S
C111 O109 1.258 . S
C112 O114 1.247 . S
C112 O116 1.258 . S
C113 O120 1.247 . S
C113 O121 1.258 . S
O114 C112 1.247 . S
O114 Zn115 2.028 . S
Zn115 O114 2.028 . S
Zn115 O119 2.035 . S
Zn115 O121 2.035 . S
Zn115 O122 2.028 . S
O116 C112 1.258 . S
O116 Zn117 2.035 . S
Zn117 O116 2.035 . S
Zn117 O118 2.028 . S
Zn117 O120 2.028 . S
Zn117 O123 2.035 . S
O118 Zn117 2.028 . S
O118 C124 1.247 . S
O119 Zn115 2.035 . S
O119 C124 1.258 . S
O120 C113 1.247 . S
O120 Zn117 2.028 . S
O121 C113 1.258 . S
O121 Zn115 2.035 . S
O122 Zn115 2.028 . S
O122 C125 1.247 . S
O123 Zn117 2.035 . S
O123 C125 1.258 . S
C124 O118 1.247 . S
C124 O119 1.258 . S
C125 O122 1.247 . S
C125 O123 1.258 . S
C126 O128 1.247 . S
C126 O130 1.258 . S
C127 O134 1.247 . S
C127 O135 1.258 . S
O128 C126 1.247 . S
O128 Zn129 2.028 . S
Zn129 O128 2.028 . S
Zn129 O133 2.035 . S
Zn129 O135 2.035 . S
Zn129 O136 2.028 . S
O130 C126 1.258 . S
O130 Zn131 2.035 . S
Zn131 O130 2.035 . S
Zn131 O132 2.028 . S
Zn131 O134 2.028 . S
Zn131 O137 2.035 . S
O132 Zn131 2.028 . S
O132 C138 1.247 . S
O133 Zn129 2.035 . S
O133 C138 1.258 . S
O134 C127 1.247 . S
O134 Zn131 2.028 . S
O135 C127 1.258 . S
O135 Zn129 2.035 . S
O136 Zn129 2.028 . S
O136 C139 1.247 . S
O137 Zn131 2.035 . S
O137 C139 1.258 . S
C138 O132 1.247 . S
C138 O133 1.258 . S
C139 O136 1.247 . S
C139 O137 1.258 . S
C140 O142 1.247 . S
C140 O144 1.258 . S
C141 O148 1.247 . S
C141 O149 1.258 . S
O142 C140 1.247 . S
O142 Zn143 2.028 . S
Zn143 O142 2.028 . S
Zn143 O147 2.035 . S
Zn143 O149 2.035 . S
Zn143 O150 2.028 . S
O144 C140 1.258 . S
O144 Zn145 2.035 . S
Zn145 O144 2.035 . S
Zn145 O146 2.028 . S
Zn145 O148 2.028 . S
Zn145 O151 2.035 . S
O146 Zn145 2.028 . S
O146 C152 1.247 . S
O147 Zn143 2.035 . S
O147 C152 1.258 . S
O148 C141 1.247 . S
O148 Zn145 2.028 . S
O149 C141 1.258 . S
O149 Zn143 2.035 . S
O150 Zn143 2.028 . S
O150 C153 1.247 . S
O151 Zn145 2.035 . S
O151 C153 1.258 . S
C152 O146 1.247 . S
C152 O147 1.258 . S
C153 O150 1.247 . S
C153 O151 1.258 . S
C154 O156 1.247 . S
C154 O158 1.258 . S
C155 O162 1.247 . S
C155 O163 1.258 . S
O156 C154 1.247 . S
O156 Zn157 2.028 . S
Zn157 O156 2.028 . S
Zn157 O161 2.035 . S
Zn157 O163 2.035 . S
Zn157 O164 2.028 . S
O158 C154 1.258 . S
O158 Zn159 2.035 . S
Zn159 O158 2.035 . S
Zn159 O160 2.028 . S
Zn159 O162 2.028 . S
Zn159 O165 2.035 . S
O160 Zn159 2.028 . S
O160 C166 1.247 . S
O161 Zn157 2.035 . S
O161 C166 1.258 . S
O162 C155 1.247 . S
O162 Zn159 2.028 . S
O163 C155 1.258 . S
O163 Zn157 2.035 . S
O164 Zn157 2.028 . S
O164 C167 1.247 . S
O165 Zn159 2.035 . S
O165 C167 1.258 . S
C166 O160 1.247 . S
C166 O161 1.258 . S
C167 O164 1.247 . S
C167 O165 1.258 . S
C168 O170 1.247 . S
C168 O172 1.258 . S
C169 O176 1.247 . S
C169 O177 1.258 . S
O170 C168 1.247 . S
O170 Zn171 2.028 . S
Zn171 O170 2.028 . S
Zn171 O175 2.035 . S
Zn171 O177 2.035 . S
Zn171 O178 2.028 . S
O172 C168 1.258 . S
O172 Zn173 2.035 . S
Zn173 O172 2.035 . S
Zn173 O174 2.028 . S
Zn173 O176 2.028 . S
Zn173 O179 2.035 . S
O174 Zn173 2.028 . S
O174 C180 1.247 . S
O175 Zn171 2.035 . S
O175 C180 1.258 . S
O176 C169 1.247 . S
O176 Zn173 2.028 . S
O177 C169 1.258 . S
O177 Zn171 2.035 . S
O178 Zn171 2.028 . S
O178 C181 1.247 . S
O179 Zn173 2.035 . S
O179 C181 1.258 . S
C180 O174 1.247 . S
C180 O175 1.258 . S
C181 O178 1.247 . S
C181 O179 1.258 . S
C182 O184 1.247 . S
C182 O186 1.258 . S
C183 O190 1.247 . S
C183 O191 1.258 . S
O184 C182 1.247 . S
O184 Zn185 2.028 . S
Zn185 O184 2.028 . S
Zn185 O189 2.035 . S
Zn185 O191 2.035 . S
Zn185 O192 2.028 . S
O186 C182 1.258 . S
O186 Zn187 2.035 . S
Zn187 O186 2.035 . S
Zn187 O188 2.028 . S
Zn187 O190 2.028 . S
Zn187 O193 2.035 . S
O188 Zn187 2.028 . S
O188 C194 1.247 . S
O189 Zn185 2.035 . S
O189 C194 1.258 . S
O190 C183 1.247 . S
O190 Zn187 2.028 . S
O191 C183 1.258 . S
O191 Zn185 2.035 . S
O192 Zn185 2.028 . S
O192 C195 1.247 . S
O193 Zn187 2.035 . S
O193 C195 1.258 . S
C194 O188 1.247 . S
C194 O189 1.258 . S
C195 O192 1.247 . S
C195 O193 1.258 . S
C196 O198 1.247 . S
C196 O200 1.258 . S
C197 O204 1.247 . S
C197 O205 1.258 . S
O198 C196 1.247 . S
O198 Zn199 2.028 . S
Zn199 O198 2.028 . S
Zn199 O203 2.035 . S
Zn199 O205 2.035 . S
Zn199 O206 2.028 . S
O200 C196 1.258 . S
O200 Zn201 2.035 . S
Zn201 O200 2.035 . S
Zn201 O202 2.028 . S
Zn201 O204 2.028 . S
Zn201 O207 2.035 . S
O202 Zn201 2.028 . S
O202 C208 1.247 . S
O203 Zn199 2.035 . S
O203 C208 1.258 . S
O204 C197 1.247 . S
O204 Zn201 2.028 . S
O205 C197 1.258 . S
O205 Zn199 2.035 . S
O206 Zn199 2.028 . S
O206 C209 1.247 . S
O207 Zn201 2.035 . S
O207 C209 1.258 . S
C208 O202 1.247 . S
C208 O203 1.258 . S
C209 O206 1.247 . S
C209 O207 1.258 . S
C210 O212 1.247 . S
C210 O214 1.258 . S
C211 O218 1.247 . S
C211 O219 1.258 . S
O212 C210 1.247 . S
O212 Zn213 2.028 . S
Zn213 O212 2.028 . S
Zn213 O217 2.035 . S
Zn213 O219 2.035 . S
Zn213 O220 2.028 . S
O214 C210 1.258 . S
O214 Zn215 2.035 . S
Zn215 O214 2.035 . S
Zn215 O216 2.028 . S
Zn215 O218 2.028 . S
Zn215 O221 2.035 . S
O216 Zn215 2.028 . S
O216 C222 1.247 . S
O217 Zn213 2.035 . S
O217 C222 1.258 . S
O218 C211 1.247 . S
O218 Zn215 2.028 . S
O219 C211 1.258 . S
O219 Zn213 2.035 . S
O220 Zn213 2.028 . S
O220 C223 1.247 . S
O221 Zn215 2.035 . S
O221 C223 1.258 . S
C222 O216 1.247 . S
C222 O217 1.258 . S
C223 O220 1.247 . S
C223 O221 1.258 . S
H224 C232 0.929 . S
H225 C234 0.930 . S
H226 C236 0.930 . S
H227 C239 0.929 . S
H228 C242 0.930 . S
H229 C244 0.960 . S
H230 C244 0.960 . S
H231 C244 0.960 . S
C232 H224 0.929 . S
C232 C233 1.377 . S
C232 C234 1.384 . S
C233 C232 1.377 . S
C233 C239 1.390 . S
C234 H225 0.930 . S
C234 C232 1.384 . S
C234 C235 1.372 . S
C235 C234 1.372 . S
C235 C236 1.400 . S
C235 C240 1.490 . S
C236 H226 0.930 . S
C236 C235 1.400 . S
C236 C239 1.386 . S
H237 C253 0.930 . S
H238 C254 0.931 . S
C239 H227 0.929 . S
C239 C233 1.390 . S
C239 C236 1.386 . S
C240 C235 1.490 . S
C240 C242 1.395 . S
C240 C243 1.403 1_565 S
H241 C247 0.930 . S
C242 H228 0.930 . S
C242 C240 1.395 . S
C242 C245 1.403 1_655 S
C243 C240 1.403 1_545 S
C243 C244 1.524 . S
C243 C247 1.400 1_655 S
C244 H229 0.960 . S
C244 H230 0.960 . S
C244 H231 0.960 . S
C244 C243 1.524 . S
C245 C242 1.403 1_455 S
C245 C246 1.392 1_565 S
C245 C249 1.495 . S
C246 C245 1.392 1_545 S
C246 C247 1.385 . S
C246 C248 1.478 . S
C247 H241 0.930 . S
C247 C243 1.400 1_455 S
C247 C246 1.385 . S
C248 C246 1.478 . S
C248 C250 1.381 . S
C248 C254 1.383 . S
C249 C245 1.495 . S
C249 H255 0.959 . S
C249 H256 0.961 . S
C249 H257 0.960 . S
C250 C248 1.381 . S
C250 C251 1.394 . S
C250 H258 0.930 . S
C251 C250 1.394 . S
C251 C252 1.383 . S
C251 H259 0.929 . S
C252 C251 1.383 . S
C252 C253 1.377 . S
C253 H237 0.930 . S
C253 C252 1.377 . S
C253 C254 1.379 . S
C254 H238 0.931 . S
C254 C248 1.383 . S
C254 C253 1.379 . S
H255 C249 0.959 . S
H256 C249 0.961 . S
H257 C249 0.960 . S
H258 C250 0.930 . S
H259 C251 0.929 . S
H260 C268 0.929 . S
H261 C270 0.930 1_455 S
H262 C272 0.930 . S
H263 C275 0.929 . S
H264 C278 0.930 . S
H265 C280 0.960 . S
H266 C280 0.960 . S
H267 C280 0.960 . S
C268 H260 0.929 . S
C268 C269 1.377 . S
C268 C270 1.384 . S
C269 C268 1.377 . S
C269 C275 1.390 . S
C270 H261 0.930 1_655 S
C270 C268 1.384 . S
C270 C271 1.372 . S
C271 C270 1.372 . S
C271 C272 1.400 . S
C271 C276 1.490 . S
C272 H262 0.930 . S
C272 C271 1.400 . S
C272 C275 1.386 . S
H273 C289 0.930 . S
H274 C290 0.931 1_655 S
C275 H263 0.929 . S
C275 C269 1.390 . S
C275 C272 1.386 . S
C276 C271 1.490 . S
C276 C278 1.395 1_655 S
C276 C279 1.403 . S
H277 C283 0.930 . S
C278 H264 0.930 . S
C278 C276 1.395 1_455 S
C278 C281 1.403 . S
C279 C276 1.403 . S
C279 C280 1.524 . S
C279 C283 1.400 . S
C280 H265 0.960 . S
C280 H266 0.960 . S
C280 H267 0.960 . S
C280 C279 1.524 . S
C281 C278 1.403 . S
C281 C282 1.392 . S
C281 C285 1.495 . S
C282 C281 1.392 . S
C282 C283 1.385 1_455 S
C282 C284 1.478 . S
C283 H277 0.930 . S
C283 C279 1.400 . S
C283 C282 1.385 1_655 S
C284 C282 1.478 . S
C284 C286 1.381 . S
C284 C290 1.383 . S
C285 C281 1.495 . S
C285 H291 0.959 . S
C285 H292 0.961 . S
C285 H293 0.960 . S
C286 C284 1.381 . S
C286 C287 1.394 . S
C286 H294 0.930 . S
C287 C286 1.394 . S
C287 C288 1.383 . S
C287 H295 0.929 . S
C288 C287 1.383 . S
C288 C289 1.377 . S
C289 H273 0.930 . S
C289 C288 1.377 . S
C289 C290 1.379 . S
C290 H274 0.931 1_455 S
C290 C284 1.383 . S
C290 C289 1.379 . S
H291 C285 0.959 . S
H292 C285 0.961 . S
H293 C285 0.960 . S
H294 C286 0.930 . S
H295 C287 0.929 . S
H296 C304 0.929 . S
H297 C306 0.930 . S
H298 C308 0.930 . S
H299 C311 0.929 . S
H300 C314 0.930 . S
H301 C316 0.960 . S
H302 C316 0.960 . S
H303 C316 0.960 . S
C304 H296 0.929 . S
C304 C305 1.377 . S
C304 C306 1.384 . S
C305 C304 1.377 . S
C305 C311 1.390 . S
C306 H297 0.930 . S
C306 C304 1.384 . S
C306 C307 1.372 . S
C307 C306 1.372 . S
C307 C308 1.400 . S
C307 C312 1.490 . S
C308 H298 0.930 . S
C308 C307 1.400 . S
C308 C311 1.386 . S
H309 C325 0.930 . S
H310 C326 0.931 . S
C311 H299 0.929 . S
C311 C305 1.390 . S
C311 C308 1.386 . S
C312 C307 1.490 . S
C312 C314 1.395 . S
C312 C315 1.403 . S
H313 C319 0.930 . S
C314 H300 0.930 . S
C314 C312 1.395 . S
C314 C317 1.403 . S
C315 C312 1.403 . S
C315 C316 1.524 . S
C315 C319 1.400 . S
C316 H301 0.960 . S
C316 H302 0.960 . S
C316 H303 0.960 . S
C316 C315 1.524 . S
C317 C314 1.403 . S
C317 C318 1.392 . S
C317 C321 1.495 . S
C318 C317 1.392 . S
C318 C319 1.385 . S
C318 C320 1.478 . S
C319 H313 0.930 . S
C319 C315 1.400 . S
C319 C318 1.385 . S
C320 C318 1.478 . S
C320 C322 1.381 . S
C320 C326 1.383 . S
C321 C317 1.495 . S
C321 H327 0.959 . S
C321 H328 0.961 . S
C321 H329 0.960 . S
C322 C320 1.381 . S
C322 C323 1.394 . S
C322 H330 0.930 . S
C323 C322 1.394 . S
C323 C324 1.383 . S
C323 H331 0.929 . S
C324 C323 1.383 . S
C324 C325 1.377 . S
C325 H309 0.930 . S
C325 C324 1.377 . S
C325 C326 1.379 . S
C326 H310 0.931 . S
C326 C320 1.383 . S
C326 C325 1.379 . S
H327 C321 0.959 . S
H328 C321 0.961 . S
H329 C321 0.960 . S
H330 C322 0.930 . S
H331 C323 0.929 . S
H332 C340 0.929 . S
H333 C342 0.930 . S
H334 C344 0.930 . S
H335 C347 0.929 . S
H336 C350 0.930 . S
H337 C352 0.960 1_565 S
H338 C352 0.960 . S
H339 C352 0.960 . S
C340 H332 0.929 . S
C340 C341 1.377 . S
C340 C342 1.384 . S
C341 C340 1.377 . S
C341 C347 1.390 . S
C342 H333 0.930 . S
C342 C340 1.384 . S
C342 C343 1.372 . S
C343 C342 1.372 . S
C343 C344 1.400 . S
C343 C348 1.490 . S
C344 H334 0.930 . S
C344 C343 1.400 . S
C344 C347 1.386 . S
H345 C361 0.930 . S
H346 C362 0.931 . S
C347 H335 0.929 . S
C347 C341 1.390 . S
C347 C344 1.386 . S
C348 C343 1.490 . S
C348 C350 1.395 . S
C348 C351 1.403 . S
H349 C355 0.930 . S
C350 H336 0.930 . S
C350 C348 1.395 . S
C350 C353 1.403 1_545 S
C351 C348 1.403 . S
C351 C352 1.524 . S
C351 C355 1.400 1_545 S
C352 H337 0.960 1_545 S
C352 H338 0.960 . S
C352 H339 0.960 . S
C352 C351 1.524 . S
C353 C350 1.403 1_565 S
C353 C354 1.392 . S
C353 C357 1.495 . S
C354 C353 1.392 . S
C354 C355 1.385 . S
C354 C356 1.478 . S
C355 H349 0.930 . S
C355 C351 1.400 1_565 S
C355 C354 1.385 . S
C356 C354 1.478 . S
C356 C358 1.381 . S
C356 C362 1.383 . S
C357 C353 1.495 . S
C357 H363 0.959 1_565 S
C357 H364 0.961 . S
C357 H365 0.960 . S
C358 C356 1.381 . S
C358 C359 1.394 . S
C358 H366 0.930 . S
C359 C358 1.394 . S
C359 C360 1.383 . S
C359 H367 0.929 . S
C360 C359 1.383 . S
C360 C361 1.377 . S
C361 H345 0.930 . S
C361 C360 1.377 . S
C361 C362 1.379 . S
C362 H346 0.931 . S
C362 C356 1.383 . S
C362 C361 1.379 . S
H363 C357 0.959 1_545 S
H364 C357 0.961 . S
H365 C357 0.960 . S
H366 C358 0.930 . S
H367 C359 0.929 . S
H368 C376 0.929 . S
H369 C378 0.930 . S
H370 C380 0.930 . S
H371 C383 0.929 . S
H372 C386 0.930 . S
H373 C388 0.960 . S
H374 C388 0.960 . S
H375 C388 0.960 . S
C376 H368 0.929 . S
C376 C377 1.377 . S
C376 C378 1.384 . S
C377 C376 1.377 . S
C377 C383 1.390 . S
C378 H369 0.930 . S
C378 C376 1.384 . S
C378 C379 1.372 . S
C379 C378 1.372 . S
C379 C380 1.400 . S
C379 C384 1.490 . S
C380 H370 0.930 . S
C380 C379 1.400 . S
C380 C383 1.386 . S
H381 C397 0.930 . S
H382 C398 0.931 . S
C383 H371 0.929 . S
C383 C377 1.390 . S
C383 C380 1.386 . S
C384 C379 1.490 . S
C384 C386 1.395 . S
C384 C387 1.403 . S
H385 C391 0.930 . S
C386 H372 0.930 . S
C386 C384 1.395 . S
C386 C389 1.403 1_455 S
C387 C384 1.403 . S
C387 C388 1.524 . S
C387 C391 1.400 1_455 S
C388 H373 0.960 . S
C388 H374 0.960 . S
C388 H375 0.960 . S
C388 C387 1.524 . S
C389 C386 1.403 1_655 S
C389 C390 1.392 . S
C389 C393 1.495 . S
C390 C389 1.392 . S
C390 C391 1.385 . S
C390 C392 1.478 . S
C391 H385 0.930 . S
C391 C387 1.400 1_655 S
C391 C390 1.385 . S
C392 C390 1.478 . S
C392 C394 1.381 . S
C392 C398 1.383 . S
C393 C389 1.495 . S
C393 H399 0.959 . S
C393 H400 0.961 . S
C393 H401 0.960 . S
C394 C392 1.381 . S
C394 C395 1.394 . S
C394 H402 0.930 . S
C395 C394 1.394 . S
C395 C396 1.383 . S
C395 H403 0.929 . S
C396 C395 1.383 . S
C396 C397 1.377 . S
C397 H381 0.930 . S
C397 C396 1.377 . S
C397 C398 1.379 . S
C398 H382 0.931 . S
C398 C392 1.383 . S
C398 C397 1.379 . S
H399 C393 0.959 . S
H400 C393 0.961 . S
H401 C393 0.960 . S
H402 C394 0.930 . S
H403 C395 0.929 . S
H404 C412 0.929 . S
H405 C414 0.930 . S
H406 C416 0.930 . S
H407 C419 0.929 . S
H408 C422 0.930 . S
H409 C424 0.960 . S
H410 C424 0.960 . S
H411 C424 0.960 . S
C412 H404 0.929 . S
C412 C413 1.377 . S
C412 C414 1.384 . S
C413 C412 1.377 . S
C413 C419 1.390 . S
C414 H405 0.930 . S
C414 C412 1.384 . S
C414 C415 1.372 . S
C415 C414 1.372 . S
C415 C416 1.400 . S
C415 C420 1.490 . S
C416 H406 0.930 . S
C416 C415 1.400 . S
C416 C419 1.386 . S
H417 C433 0.930 . S
H418 C434 0.931 . S
C419 H407 0.929 . S
C419 C413 1.390 . S
C419 C416 1.386 . S
C420 C415 1.490 . S
C420 C422 1.395 . S
C420 C423 1.403 . S
H421 C427 0.930 . S
C422 H408 0.930 . S
C422 C420 1.395 . S
C422 C425 1.403 . S
C423 C420 1.403 . S
C423 C424 1.524 . S
C423 C427 1.400 . S
C424 H409 0.960 . S
C424 H410 0.960 . S
C424 H411 0.960 . S
C424 C423 1.524 . S
C425 C422 1.403 . S
C425 C426 1.392 . S
C425 C429 1.495 . S
C426 C425 1.392 . S
C426 C427 1.385 . S
C426 C428 1.478 . S
C427 H421 0.930 . S
C427 C423 1.400 . S
C427 C426 1.385 . S
C428 C426 1.478 . S
C428 C430 1.381 . S
C428 C434 1.383 . S
C429 C425 1.495 . S
C429 H435 0.959 . S
C429 H436 0.961 . S
C429 H437 0.960 . S
C430 C428 1.381 . S
C430 C431 1.394 . S
C430 H438 0.930 . S
C431 C430 1.394 . S
C431 C432 1.383 . S
C431 H439 0.929 . S
C432 C431 1.383 . S
C432 C433 1.377 . S
C433 H417 0.930 . S
C433 C432 1.377 . S
C433 C434 1.379 . S
C434 H418 0.931 . S
C434 C428 1.383 . S
C434 C433 1.379 . S
H435 C429 0.959 . S
H436 C429 0.961 . S
H437 C429 0.960 . S
H438 C430 0.930 . S
H439 C431 0.929 . S
H440 C448 0.929 . S
H441 C450 0.930 . S
H442 C452 0.930 . S
H443 C455 0.929 . S
H444 C458 0.930 . S
H445 C460 0.960 . S
H446 C460 0.960 . S
H447 C460 0.960 . S
C448 H440 0.929 . S
C448 C449 1.377 . S
C448 C450 1.384 . S
C449 C448 1.377 . S
C449 C455 1.390 . S
C450 H441 0.930 . S
C450 C448 1.384 . S
C450 C451 1.372 . S
C451 C450 1.372 . S
C451 C452 1.400 . S
C451 C456 1.490 . S
C452 H442 0.930 . S
C452 C451 1.400 . S
C452 C455 1.386 . S
H453 C469 0.930 . S
H454 C470 0.931 . S
C455 H443 0.929 . S
C455 C449 1.390 . S
C455 C452 1.386 . S
C456 C451 1.490 . S
C456 C458 1.395 . S
C456 C459 1.403 1_545 S
H457 C463 0.930 . S
C458 H444 0.930 . S
C458 C456 1.395 . S
C458 C461 1.403 . S
C459 C456 1.403 1_565 S
C459 C460 1.524 . S
C459 C463 1.400 . S
C460 H445 0.960 . S
C460 H446 0.960 . S
C460 H447 0.960 . S
C460 C459 1.524 . S
C461 C458 1.403 . S
C461 C462 1.392 1_545 S
C461 C465 1.495 . S
C462 C461 1.392 1_565 S
C462 C463 1.385 . S
C462 C464 1.478 . S
C463 H457 0.930 . S
C463 C459 1.400 . S
C463 C462 1.385 . S
C464 C462 1.478 . S
C464 C466 1.381 . S
C464 C470 1.383 . S
C465 C461 1.495 . S
C465 H471 0.959 . S
C465 H472 0.961 . S
C465 H473 0.960 . S
C466 C464 1.381 . S
C466 C467 1.394 . S
C466 H474 0.930 . S
C467 C466 1.394 . S
C467 C468 1.383 . S
C467 H475 0.929 . S
C468 C467 1.383 . S
C468 C469 1.377 . S
C469 H453 0.930 . S
C469 C468 1.377 . S
C469 C470 1.379 . S
C470 H454 0.931 . S
C470 C464 1.383 . S
C470 C469 1.379 . S
H471 C465 0.959 . S
H472 C465 0.961 . S
H473 C465 0.960 . S
H474 C466 0.930 . S
H475 C467 0.929 . S
H476 C484 0.929 . S
H477 C486 0.930 . S
H478 C488 0.930 . S
H479 C491 0.929 . S
H480 C494 0.930 . S
H481 C496 0.960 1_565 S
H482 C496 0.960 . S
H483 C496 0.960 . S
C484 H476 0.929 . S
C484 C485 1.377 . S
C484 C486 1.384 . S
C485 C484 1.377 . S
C485 C491 1.390 . S
C486 H477 0.930 . S
C486 C484 1.384 . S
C486 C487 1.372 . S
C487 C486 1.372 . S
C487 C488 1.400 . S
C487 C492 1.490 . S
C488 H478 0.930 . S
C488 C487 1.400 . S
C488 C491 1.386 . S
H489 C505 0.930 . S
H490 C506 0.931 . S
C491 H479 0.929 . S
C491 C485 1.390 . S
C491 C488 1.386 . S
C492 C487 1.490 . S
C492 C494 1.395 1_455 S
C492 C495 1.403 . S
H493 C499 0.930 . S
C494 H480 0.930 . S
C494 C492 1.395 1_655 S
C494 C497 1.403 1_545 S
C495 C492 1.403 . S
C495 C496 1.524 . S
C495 C499 1.400 1_545 S
C496 H481 0.960 1_545 S
C496 H482 0.960 . S
C496 H483 0.960 . S
C496 C495 1.524 . S
C497 C494 1.403 1_565 S
C497 C498 1.392 . S
C497 C501 1.495 . S
C498 C497 1.392 . S
C498 C499 1.385 1_655 S
C498 C500 1.478 . S
C499 H493 0.930 . S
C499 C495 1.400 1_565 S
C499 C498 1.385 1_455 S
C500 C498 1.478 . S
C500 C502 1.381 . S
C500 C506 1.383 . S
C501 C497 1.495 . S
C501 H507 0.959 1_565 S
C501 H508 0.961 . S
C501 H509 0.960 . S
C502 C500 1.381 . S
C502 C503 1.394 . S
C502 H510 0.930 . S
C503 C502 1.394 . S
C503 C504 1.383 . S
C503 H511 0.929 . S
C504 C503 1.383 . S
C504 C505 1.377 . S
C505 H489 0.930 . S
C505 C504 1.377 . S
C505 C506 1.379 . S
C506 H490 0.931 . S
C506 C500 1.383 . S
C506 C505 1.379 . S
H507 C501 0.959 1_545 S
H508 C501 0.961 . S
H509 C501 0.960 . S
H510 C502 0.930 . S
H511 C503 0.929 . S
H512 C520 0.929 . S
H513 C522 0.930 . S
H514 C524 0.930 1_545 S
H515 C527 0.929 . S
H516 C530 0.930 . S
H517 C532 0.960 . S
H518 C532 0.960 1_565 S
H519 C532 0.960 . S
C520 H512 0.929 . S
C520 C521 1.377 . S
C520 C522 1.384 . S
C521 C520 1.377 . S
C521 C527 1.390 . S
C522 H513 0.930 . S
C522 C520 1.384 . S
C522 C523 1.372 . S
C523 C522 1.372 . S
C523 C524 1.400 . S
C523 C528 1.490 . S
C524 H514 0.930 1_565 S
C524 C523 1.400 . S
C524 C527 1.386 . S
H525 C541 0.930 . S
H526 C542 0.931 . S
C527 H515 0.929 . S
C527 C521 1.390 . S
C527 C524 1.386 . S
C528 C523 1.490 . S
C528 C530 1.395 . S
C528 C531 1.406 . S
H529 C535 0.930 . S
C530 H516 0.930 . S
C530 C528 1.395 . S
C530 C533 1.403 . S
C531 C528 1.406 . S
C531 C532 1.523 1_565 S
C531 C535 1.397 1_565 S
C532 H517 0.960 . S
C532 H518 0.960 1_545 S
C532 H519 0.960 . S
C532 C531 1.523 1_545 S
C533 C530 1.403 . S
C533 C534 1.392 1_565 S
C533 C537 1.495 . S
C534 C533 1.392 1_545 S
C534 C535 1.385 . S
C534 C536 1.478 . S
C535 H529 0.930 . S
C535 C531 1.397 1_545 S
C535 C534 1.385 . S
C536 C534 1.478 . S
C536 C538 1.381 . S
C536 C542 1.383 . S
C537 C533 1.495 . S
C537 H543 0.959 . S
C537 H544 0.961 1_565 S
C537 H545 0.960 . S
C538 C536 1.381 . S
C538 C539 1.394 . S
C538 H546 0.930 1_545 S
C539 C538 1.394 . S
C539 C540 1.383 . S
C539 H547 0.929 . S
C540 C539 1.383 . S
C540 C541 1.377 . S
C541 H525 0.930 . S
C541 C540 1.377 . S
C541 C542 1.379 . S
C542 H526 0.931 . S
C542 C536 1.383 . S
C542 C541 1.379 . S
H543 C537 0.959 . S
H544 C537 0.961 1_545 S
H545 C537 0.960 . S
H546 C538 0.930 1_565 S
H547 C539 0.929 . S
H548 C556 0.929 . S
H549 C558 0.930 . S
H550 C560 0.941 . S
H551 C563 0.929 . S
H552 C566 0.930 . S
H553 C568 0.960 . S
H554 C568 0.960 . S
H555 C568 0.960 . S
C556 H548 0.929 . S
C556 C557 1.377 . S
C556 C558 1.384 . S
C557 C556 1.377 . S
C557 C563 1.390 . S
C558 H549 0.930 . S
C558 C556 1.384 . S
C558 C559 1.372 . S
C559 C558 1.372 . S
C559 C560 1.400 . S
C559 C564 1.490 . S
C560 H550 0.941 . S
C560 C559 1.400 . S
C560 C563 1.386 . S
H561 C577 0.930 . S
H562 C578 0.931 . S
C563 H551 0.929 . S
C563 C557 1.390 . S
C563 C560 1.386 . S
C564 C559 1.490 . S
C564 C566 1.395 . S
C564 C567 1.403 1_655 S
H565 C571 0.930 . S
C566 H552 0.930 . S
C566 C564 1.395 . S
C566 C569 1.403 1_565 S
C567 C564 1.403 1_455 S
C567 C568 1.524 . S
C567 C571 1.400 1_565 S
C568 H553 0.960 . S
C568 H554 0.960 . S
C568 H555 0.960 . S
C568 C567 1.524 . S
C569 C566 1.403 1_545 S
C569 C570 1.392 1_655 S
C569 C573 1.495 . S
C570 C569 1.392 1_455 S
C570 C571 1.385 . S
C570 C572 1.478 . S
C571 H565 0.930 . S
C571 C567 1.400 1_545 S
C571 C570 1.385 . S
C572 C570 1.478 . S
C572 C574 1.381 . S
C572 C578 1.383 . S
C573 C569 1.495 . S
C573 H579 0.959 . S
C573 H580 0.961 . S
C573 H581 0.960 . S
C574 C572 1.381 . S
C574 C575 1.394 . S
C574 H582 0.930 1_455 S
C575 C574 1.394 . S
C575 C576 1.383 . S
C575 H583 0.929 . S
C576 C575 1.383 . S
C576 C577 1.377 . S
C577 H561 0.930 . S
C577 C576 1.377 . S
C577 C578 1.379 . S
C578 H562 0.931 . S
C578 C572 1.383 . S
C578 C577 1.379 . S
H579 C573 0.959 . S
H580 C573 0.961 . S
H581 C573 0.960 . S
H582 C574 0.930 1_655 S
H583 C575 0.929 . S
H584 C592 0.929 . S
H585 C594 0.930 . S
H586 C596 0.930 . S
H587 C599 0.929 . S
H588 C602 0.934 . S
H589 C604 0.960 . S
H590 C604 0.960 . S
H591 C604 0.960 . S
C592 H584 0.929 . S
C592 C593 1.377 . S
C592 C594 1.384 . S
C593 C592 1.377 . S
C593 C599 1.390 . S
C594 H585 0.930 . S
C594 C592 1.384 . S
C594 C595 1.372 . S
C595 C594 1.372 . S
C595 C596 1.400 . S
C595 C600 1.490 . S
C596 H586 0.930 . S
C596 C595 1.400 . S
C596 C599 1.386 . S
H597 C613 0.930 . S
H598 C614 0.931 . S
C599 H587 0.929 . S
C599 C593 1.390 . S
C599 C596 1.386 . S
C600 C595 1.490 . S
C600 C602 1.421 . S
C600 C603 1.403 . S
H601 C607 0.930 . S
C602 H588 0.934 . S
C602 C600 1.421 . S
C602 C605 1.374 1_455 S
C603 C600 1.403 . S
C603 C604 1.524 . S
C603 C607 1.400 1_455 S
C604 H589 0.960 . S
C604 H590 0.960 . S
C604 H591 0.960 . S
C604 C603 1.524 . S
C605 C602 1.374 1_655 S
C605 C606 1.392 . S
C605 C609 1.495 . S
C606 C605 1.392 . S
C606 C607 1.385 . S
C606 C608 1.478 . S
C607 H601 0.930 . S
C607 C603 1.400 1_655 S
C607 C606 1.385 . S
C608 C606 1.478 . S
C608 C610 1.381 . S
C608 C614 1.383 . S
C609 C605 1.495 . S
C609 H615 0.959 . S
C609 H616 0.961 . S
C609 H617 0.960 . S
C610 C608 1.381 . S
C610 C611 1.394 . S
C610 H618 0.930 . S
C611 C610 1.394 . S
C611 C612 1.383 . S
C611 H619 0.929 . S
C612 C611 1.383 . S
C612 C613 1.377 . S
C613 H597 0.930 . S
C613 C612 1.377 . S
C613 C614 1.379 . S
C614 H598 0.931 . S
C614 C608 1.383 . S
C614 C613 1.379 . S
H615 C609 0.959 . S
H616 C609 0.961 . S
H617 C609 0.960 . S
H618 C610 0.930 . S
H619 C611 0.929 . S
H620 C628 0.929 . S
H621 C630 0.930 . S
H622 C632 0.930 . S
H623 C635 0.929 . S
H624 C638 0.930 . S
H625 C640 0.960 . S
H626 C640 0.960 . S
H627 C640 0.960 . S
C628 H620 0.929 . S
C628 C629 1.377 . S
C628 C630 1.384 . S
C629 C628 1.377 . S
C629 C635 1.390 . S
C630 H621 0.930 . S
C630 C628 1.384 . S
C630 C631 1.372 . S
C631 C630 1.372 . S
C631 C632 1.400 . S
C631 C636 1.490 . S
C632 H622 0.930 . S
C632 C631 1.400 . S
C632 C635 1.386 . S
H633 C649 0.930 . S
H634 C650 0.931 . S
C635 H623 0.929 . S
C635 C629 1.390 . S
C635 C632 1.386 . S
C636 C631 1.490 . S
C636 C638 1.395 . S
C636 C639 1.403 . S
H637 C643 0.930 . S
C638 H624 0.930 . S
C638 C636 1.395 . S
C638 C641 1.403 . S
C639 C636 1.403 . S
C639 C640 1.524 . S
C639 C643 1.400 . S
C640 H625 0.960 . S
C640 H626 0.960 . S
C640 H627 0.960 . S
C640 C639 1.524 . S
C641 C638 1.403 . S
C641 C642 1.392 . S
C641 C645 1.495 . S
C642 C641 1.392 . S
C642 C643 1.385 . S
C642 C644 1.478 . S
C643 H637 0.930 . S
C643 C639 1.400 . S
C643 C642 1.385 . S
C644 C642 1.478 . S
C644 C646 1.381 . S
C644 C650 1.383 . S
C645 C641 1.495 . S
C645 H651 0.959 . S
C645 H652 0.961 . S
C645 H653 0.960 . S
C646 C644 1.381 . S
C646 C647 1.394 . S
C646 H654 0.930 . S
C647 C646 1.394 . S
C647 C648 1.383 . S
C647 H655 0.929 . S
C648 C647 1.383 . S
C648 C649 1.377 . S
C649 H633 0.930 . S
C649 C648 1.377 . S
C649 C650 1.379 . S
C650 H634 0.931 . S
C650 C644 1.383 . S
C650 C649 1.379 . S
H651 C645 0.959 . S
H652 C645 0.961 . S
H653 C645 0.960 . S
H654 C646 0.930 . S
H655 C647 0.929 . S
H656 C664 0.929 . S
H657 C666 0.930 . S
H658 C668 0.930 . S
H659 C671 0.929 . S
H660 C674 0.930 . S
H661 C676 0.960 . S
H662 C676 0.960 . S
H663 C676 0.960 . S
C664 H656 0.929 . S
C664 C665 1.377 . S
C664 C666 1.384 . S
C665 C664 1.377 . S
C665 C671 1.390 . S
C666 H657 0.930 . S
C666 C664 1.384 . S
C666 C667 1.372 . S
C667 C666 1.372 . S
C667 C668 1.400 . S
C667 C672 1.490 . S
C668 H658 0.930 . S
C668 C667 1.400 . S
C668 C671 1.386 . S
H669 C685 0.930 . S
H670 C686 0.931 . S
C671 H659 0.929 . S
C671 C665 1.390 . S
C671 C668 1.386 . S
C672 C667 1.490 . S
C672 C674 1.395 . S
C672 C675 1.403 . S
H673 C679 0.930 . S
C674 H660 0.930 . S
C674 C672 1.395 . S
C674 C677 1.403 . S
C675 C672 1.403 . S
C675 C676 1.524 . S
C675 C679 1.400 . S
C676 H661 0.960 . S
C676 H662 0.960 . S
C676 H663 0.960 . S
C676 C675 1.524 . S
C677 C674 1.403 . S
C677 C678 1.392 . S
C677 C681 1.495 . S
C678 C677 1.392 . S
C678 C679 1.385 . S
C678 C680 1.478 . S
C679 H673 0.930 . S
C679 C675 1.400 . S
C679 C678 1.385 . S
C680 C678 1.478 . S
C680 C682 1.381 . S
C680 C686 1.383 . S
C681 C677 1.495 . S
C681 H687 0.959 . S
C681 H688 0.961 . S
C681 H689 0.960 . S
C682 C680 1.381 . S
C682 C683 1.394 . S
C682 H690 0.930 . S
C683 C682 1.394 . S
C683 C684 1.383 . S
C683 H691 0.929 . S
C684 C683 1.383 . S
C684 C685 1.377 . S
C685 H669 0.930 . S
C685 C684 1.377 . S
C685 C686 1.379 . S
C686 H670 0.931 . S
C686 C680 1.383 . S
C686 C685 1.379 . S
H687 C681 0.959 . S
H688 C681 0.961 . S
H689 C681 0.960 . S
H690 C682 0.930 . S
H691 C683 0.929 . S
H692 C700 0.929 . S
H693 C702 0.930 . S
H694 C704 0.930 . S
H695 C707 0.929 . S
H696 C710 0.930 . S
H697 C712 0.966 . S
H698 C712 0.958 1_565 S
H699 C712 0.956 1_565 S
C700 H692 0.929 . S
C700 C701 1.377 . S
C700 C702 1.384 . S
C701 C700 1.377 . S
C701 C707 1.390 . S
C702 H693 0.930 . S
C702 C700 1.384 . S
C702 C703 1.372 . S
C703 C702 1.372 . S
C703 C704 1.400 . S
C703 C708 1.490 . S
C704 H694 0.930 . S
C704 C703 1.400 . S
C704 C707 1.386 . S
H705 C721 0.930 . S
H706 C722 0.931 . S
C707 H695 0.929 . S
C707 C701 1.390 . S
C707 C704 1.386 . S
C708 C703 1.490 . S
C708 C710 1.395 . S
C708 C711 1.403 . S
H709 C715 0.930 . S
C710 H696 0.930 . S
C710 C708 1.395 . S
C710 C713 1.419 . S
C711 C708 1.403 . S
C711 C712 1.523 1_565 S
C711 C715 1.400 1_565 S
C712 H697 0.966 . S
C712 H698 0.958 1_545 S
C712 H699 0.956 1_545 S
C712 C711 1.523 1_545 S
C713 C710 1.419 . S
C713 C714 1.377 1_565 S
C713 C717 1.496 . S
C714 C713 1.377 1_545 S
C714 C715 1.385 . S
C714 C716 1.478 . S
C715 H709 0.930 . S
C715 C711 1.400 1_545 S
C715 C714 1.385 . S
C716 C714 1.478 . S
C716 C718 1.381 . S
C716 C722 1.383 . S
C717 C713 1.496 . S
C717 H723 0.959 . S
C717 H724 0.961 1_565 S
C717 H725 0.960 1_565 S
C718 C716 1.381 . S
C718 C719 1.394 . S
C718 H726 0.930 . S
C719 C718 1.394 . S
C719 C720 1.383 . S
C719 H727 0.929 . S
C720 C719 1.383 . S
C720 C721 1.377 . S
C721 H705 0.930 . S
C721 C720 1.377 . S
C721 C722 1.379 . S
C722 H706 0.931 . S
C722 C716 1.383 . S
C722 C721 1.379 . S
H723 C717 0.959 . S
H724 C717 0.961 1_545 S
H725 C717 0.960 1_545 S
H726 C718 0.930 . S
H727 C719 0.929 . S
H728 C736 0.929 . S
H729 C738 0.930 . S
H730 C740 0.930 . S
H731 C743 0.929 . S
H732 C746 0.930 . S
H733 C748 0.960 . S
H734 C748 0.960 . S
H735 C748 0.960 . S
C736 H728 0.929 . S
C736 C737 1.377 . S
C736 C738 1.384 . S
C737 C736 1.377 . S
C737 C743 1.390 . S
C738 H729 0.930 . S
C738 C736 1.384 . S
C738 C739 1.372 . S
C739 C738 1.372 . S
C739 C740 1.400 . S
C739 C744 1.490 . S
C740 H730 0.930 . S
C740 C739 1.400 . S
C740 C743 1.386 . S
H741 C757 0.930 . S
H742 C758 0.931 . S
C743 H731 0.929 . S
C743 C737 1.390 . S
C743 C740 1.386 . S
C744 C739 1.490 . S
C744 C746 1.395 . S
C744 C747 1.403 1_565 S
H745 C751 0.930 . S
C746 H732 0.930 . S
C746 C744 1.395 . S
C746 C749 1.403 1_655 S
C747 C744 1.403 1_545 S
C747 C748 1.524 . S
C747 C751 1.400 1_655 S
C748 H733 0.960 . S
C748 H734 0.960 . S
C748 H735 0.960 . S
C748 C747 1.524 . S
C749 C746 1.403 1_455 S
C749 C750 1.392 1_565 S
C749 C753 1.495 . S
C750 C749 1.392 1_545 S
C750 C751 1.385 . S
C750 C752 1.478 . S
C751 H745 0.930 . S
C751 C747 1.400 1_455 S
C751 C750 1.385 . S
C752 C750 1.478 . S
C752 C754 1.381 . S
C752 C758 1.383 . S
C753 C749 1.495 . S
C753 H759 0.959 . S
C753 H760 0.961 . S
C753 H761 0.960 . S
C754 C752 1.381 . S
C754 C755 1.394 . S
C754 H762 0.930 . S
C755 C754 1.394 . S
C755 C756 1.383 . S
C755 H763 0.929 . S
C756 C755 1.383 . S
C756 C757 1.377 . S
C757 H741 0.930 . S
C757 C756 1.377 . S
C757 C758 1.379 . S
C758 H742 0.931 . S
C758 C752 1.383 . S
C758 C757 1.379 . S
H759 C753 0.959 . S
H760 C753 0.961 . S
H761 C753 0.960 . S
H762 C754 0.930 . S
H763 C755 0.929 . S
H764 C772 0.929 . S
H765 C774 0.930 . S
H766 C776 0.930 . S
H767 C779 0.929 . S
H768 C782 0.930 . S
H769 C784 0.960 . S
H770 C784 0.960 . S
H771 C784 0.960 . S
C772 H764 0.929 . S
C772 C773 1.377 . S
C772 C774 1.384 . S
C773 C772 1.377 . S
C773 C779 1.390 . S
C774 H765 0.930 . S
C774 C772 1.384 . S
C774 C775 1.372 . S
C775 C774 1.372 . S
C775 C776 1.400 . S
C775 C780 1.490 . S
C776 H766 0.930 . S
C776 C775 1.400 . S
C776 C779 1.386 . S
H777 C793 0.930 . S
H778 C794 0.931 . S
C779 H767 0.929 . S
C779 C773 1.390 . S
C779 C776 1.386 . S
C780 C775 1.490 . S
C780 C782 1.395 1_455 S
C780 C783 1.403 . S
H781 C787 0.930 . S
C782 H768 0.930 . S
C782 C780 1.395 1_655 S
C782 C785 1.403 . S
C783 C780 1.403 . S
C783 C784 1.524 . S
C783 C787 1.400 . S
C784 H769 0.960 . S
C784 H770 0.960 . S
C784 H771 0.960 . S
C784 C783 1.524 . S
C785 C782 1.403 . S
C785 C786 1.392 . S
C785 C789 1.495 . S
C786 C785 1.392 . S
C786 C787 1.385 1_655 S
C786 C788 1.478 . S
C787 H781 0.930 . S
C787 C783 1.400 . S
C787 C786 1.385 1_455 S
C788 C786 1.478 . S
C788 C790 1.381 . S
C788 C794 1.383 . S
C789 C785 1.495 . S
C789 H795 0.959 . S
C789 H796 0.961 . S
C789 H797 0.960 . S
C790 C788 1.381 . S
C790 C791 1.394 . S
C790 H798 0.930 . S
C791 C790 1.394 . S
C791 C792 1.383 . S
C791 H799 0.929 . S
C792 C791 1.383 . S
C792 C793 1.377 . S
C793 H777 0.930 . S
C793 C792 1.377 . S
C793 C794 1.379 . S
C794 H778 0.931 . S
C794 C788 1.383 . S
C794 C793 1.379 . S
H795 C789 0.959 . S
H796 C789 0.961 . S
H797 C789 0.960 . S
H798 C790 0.930 . S
H799 C791 0.929 . S
H800 C808 0.929 . S
H801 C810 0.930 . S
H802 C812 0.930 . S
H803 C815 0.929 . S
H804 C818 0.930 . S
H805 C820 0.960 . S
H806 C820 0.960 . S
H807 C820 0.960 . S
C808 H800 0.929 . S
C808 C809 1.377 . S
C808 C810 1.384 . S
C809 C808 1.377 . S
C809 C815 1.390 . S
C810 H801 0.930 . S
C810 C808 1.384 . S
C810 C811 1.372 . S
C811 C810 1.372 . S
C811 C812 1.400 . S
C811 C816 1.490 . S
C812 H802 0.930 . S
C812 C811 1.400 . S
C812 C815 1.386 . S
H813 C829 0.930 . S
H814 C830 0.931 . S
C815 H803 0.929 . S
C815 C809 1.390 . S
C815 C812 1.386 . S
C816 C811 1.490 . S
C816 C818 1.395 . S
C816 C819 1.403 . S
H817 C823 0.930 . S
C818 H804 0.930 . S
C818 C816 1.395 . S
C818 C821 1.403 . S
C819 C816 1.403 . S
C819 C820 1.524 . S
C819 C823 1.400 . S
C820 H805 0.960 . S
C820 H806 0.960 . S
C820 H807 0.960 . S
C820 C819 1.524 . S
C821 C818 1.403 . S
C821 C822 1.392 . S
C821 C825 1.495 1_545 S
C822 C821 1.392 . S
C822 C823 1.385 . S
C822 C824 1.478 . S
C823 H817 0.930 . S
C823 C819 1.400 . S
C823 C822 1.385 . S
C824 C822 1.478 . S
C824 C826 1.381 . S
C824 C830 1.383 . S
C825 C821 1.495 1_565 S
C825 H831 0.959 . S
C825 H832 0.961 . S
C825 H833 0.960 . S
C826 C824 1.381 . S
C826 C827 1.394 . S
C826 H834 0.930 . S
C827 C826 1.394 . S
C827 C828 1.383 . S
C827 H835 0.929 . S
C828 C827 1.383 . S
C828 C829 1.377 . S
C829 H813 0.930 . S
C829 C828 1.377 . S
C829 C830 1.379 . S
C830 H814 0.931 . S
C830 C824 1.383 . S
C830 C829 1.379 . S
H831 C825 0.959 . S
H832 C825 0.961 . S
H833 C825 0.960 . S
H834 C826 0.930 . S
H835 C827 0.929 . S
H836 C844 0.929 . S
H837 C846 0.930 . S
H838 C848 0.930 . S
H839 C851 0.929 . S
H840 C854 0.930 . S
H841 C856 0.960 . S
H842 C856 0.960 . S
H843 C856 0.960 . S
C844 H836 0.929 . S
C844 C845 1.377 . S
C844 C846 1.384 . S
C845 C844 1.377 . S
C845 C851 1.390 . S
C846 H837 0.930 . S
C846 C844 1.384 . S
C846 C847 1.372 . S
C847 C846 1.372 . S
C847 C848 1.400 . S
C847 C852 1.490 . S
C848 H838 0.930 . S
C848 C847 1.400 . S
C848 C851 1.386 . S
H849 C865 0.930 . S
H850 C866 0.931 . S
C851 H839 0.929 . S
C851 C845 1.390 . S
C851 C848 1.386 . S
C852 C847 1.490 . S
C852 C854 1.395 . S
C852 C855 1.403 . S
H853 C859 0.930 . S
C854 H840 0.930 . S
C854 C852 1.395 . S
C854 C857 1.403 . S
C855 C852 1.403 . S
C855 C856 1.524 . S
C855 C859 1.400 . S
C856 H841 0.960 . S
C856 H842 0.960 . S
C856 H843 0.960 . S
C856 C855 1.524 . S
C857 C854 1.403 . S
C857 C858 1.392 . S
C857 C861 1.504 . S
C858 C857 1.392 . S
C858 C859 1.385 . S
C858 C860 1.478 . S
C859 H853 0.930 . S
C859 C855 1.400 . S
C859 C858 1.385 . S
C860 C858 1.478 . S
C860 C862 1.381 . S
C860 C866 1.383 . S
C861 C857 1.504 . S
C861 H867 0.953 1_655 S
C861 H868 0.964 . S
C861 H869 0.955 1_655 S
C862 C860 1.381 . S
C862 C863 1.394 . S
C862 H870 0.930 . S
C863 C862 1.394 . S
C863 C864 1.383 . S
C863 H871 0.929 . S
C864 C863 1.383 . S
C864 C865 1.377 . S
C865 H849 0.930 . S
C865 C864 1.377 . S
C865 C866 1.379 . S
C866 H850 0.931 . S
C866 C860 1.383 . S
C866 C865 1.379 . S
H867 C861 0.953 1_455 S
H868 C861 0.964 . S
H869 C861 0.955 1_455 S
H870 C862 0.930 . S
H871 C863 0.929 . S
H872 C880 0.929 . S
H873 C882 0.930 . S
H874 C884 0.930 . S
H875 C887 0.929 . S
H876 C890 0.930 . S
H877 C892 0.960 . S
H878 C892 0.960 . S
H879 C892 0.960 . S
C880 H872 0.929 . S
C880 C881 1.377 . S
C880 C882 1.384 . S
C881 C880 1.377 . S
C881 C887 1.390 . S
C882 H873 0.930 . S
C882 C880 1.384 . S
C882 C883 1.372 . S
C883 C882 1.372 . S
C883 C884 1.400 . S
C883 C888 1.490 . S
C884 H874 0.930 . S
C884 C883 1.400 . S
C884 C887 1.386 . S
H885 C901 0.930 . S
H886 C902 0.931 . S
C887 H875 0.929 . S
C887 C881 1.390 . S
C887 C884 1.386 . S
C888 C883 1.490 . S
C888 C890 1.395 . S
C888 C891 1.403 . S
H889 C895 0.930 . S
C890 H876 0.930 . S
C890 C888 1.395 . S
C890 C893 1.403 . S
C891 C888 1.403 . S
C891 C892 1.524 . S
C891 C895 1.400 . S
C892 H877 0.960 . S
C892 H878 0.960 . S
C892 H879 0.960 . S
C892 C891 1.524 . S
C893 C890 1.403 . S
C893 C894 1.392 . S
C893 C897 1.495 . S
C894 C893 1.392 . S
C894 C895 1.385 . S
C894 C896 1.478 . S
C895 H889 0.930 . S
C895 C891 1.400 . S
C895 C894 1.385 . S
C896 C894 1.478 . S
C896 C898 1.381 . S
C896 C902 1.383 . S
C897 C893 1.495 . S
C897 H903 0.959 . S
C897 H904 0.961 . S
C897 H905 0.960 . S
C898 C896 1.381 . S
C898 C899 1.394 . S
C898 H906 0.930 . S
C899 C898 1.394 . S
C899 C900 1.383 . S
C899 H907 0.929 . S
C900 C899 1.383 . S
C900 C901 1.377 . S
C901 H885 0.930 . S
C901 C900 1.377 . S
C901 C902 1.379 . S
C902 H886 0.931 . S
C902 C896 1.383 . S
C902 C901 1.379 . S
H903 C897 0.959 . S
H904 C897 0.961 . S
H905 C897 0.960 . S
H906 C898 0.930 . S
H907 C899 0.929 . S
H908 C916 0.929 . S
H909 C918 0.930 . S
H910 C920 0.930 . S
H911 C923 0.929 . S
H912 C926 0.930 . S
H913 C928 0.960 . S
H914 C928 0.960 . S
H915 C928 0.960 . S
C916 H908 0.929 . S
C916 C917 1.377 . S
C916 C918 1.384 . S
C917 C916 1.377 . S
C917 C923 1.390 . S
C918 H909 0.930 . S
C918 C916 1.384 . S
C918 C919 1.372 . S
C919 C918 1.372 . S
C919 C920 1.400 . S
C919 C924 1.490 . S
C920 H910 0.930 . S
C920 C919 1.400 . S
C920 C923 1.386 . S
H921 C937 0.930 . S
H922 C938 0.931 . S
C923 H911 0.929 . S
C923 C917 1.390 . S
C923 C920 1.386 . S
C924 C919 1.490 . S
C924 C926 1.395 . S
C924 C927 1.403 . S
H925 C931 0.930 . S
C926 H912 0.930 . S
C926 C924 1.395 . S
C926 C929 1.403 . S
C927 C924 1.403 . S
C927 C928 1.524 . S
C927 C931 1.400 . S
C928 H913 0.960 . S
C928 H914 0.960 . S
C928 H915 0.960 . S
C928 C927 1.524 . S
C929 C926 1.403 . S
C929 C930 1.392 . S
C929 C933 1.495 . S
C930 C929 1.392 . S
C930 C931 1.385 . S
C930 C932 1.478 . S
C931 H925 0.930 . S
C931 C927 1.400 . S
C931 C930 1.385 . S
C932 C930 1.478 . S
C932 C934 1.381 . S
C932 C938 1.383 . S
C933 C929 1.495 . S
C933 H939 0.959 . S
C933 H940 0.961 . S
C933 H941 0.960 . S
C934 C932 1.381 . S
C934 C935 1.394 . S
C934 H942 0.930 . S
C935 C934 1.394 . S
C935 C936 1.383 . S
C935 H943 0.929 . S
C936 C935 1.383 . S
C936 C937 1.377 . S
C937 H921 0.930 . S
C937 C936 1.377 . S
C937 C938 1.379 . S
C938 H922 0.931 . S
C938 C932 1.383 . S
C938 C937 1.379 . S
H939 C933 0.959 . S
H940 C933 0.961 . S
H941 C933 0.960 . S
H942 C934 0.930 . S
H943 C935 0.929 . S
H944 C952 0.929 . S
H945 C954 0.930 . S
H946 C956 0.930 . S
H947 C959 0.929 . S
H948 C962 0.930 . S
H949 C964 0.960 . S
H950 C964 0.960 . S
H951 C964 0.960 . S
C952 H944 0.929 . S
C952 C953 1.377 . S
C952 C954 1.384 . S
C953 C952 1.377 . S
C953 C959 1.390 . S
C954 H945 0.930 . S
C954 C952 1.384 . S
C954 C955 1.372 . S
C955 C954 1.372 . S
C955 C956 1.400 . S
C955 C960 1.490 . S
C956 H946 0.930 . S
C956 C955 1.400 . S
C956 C959 1.386 . S
H957 C973 0.930 . S
H958 C974 0.931 . S
C959 H947 0.929 . S
C959 C953 1.390 . S
C959 C956 1.386 . S
C960 C955 1.490 . S
C960 C962 1.395 . S
C960 C963 1.403 . S
H961 C967 0.930 . S
C962 H948 0.930 . S
C962 C960 1.395 . S
C962 C965 1.403 . S
C963 C960 1.403 . S
C963 C964 1.524 . S
C963 C967 1.400 . S
C964 H949 0.960 . S
C964 H950 0.960 . S
C964 H951 0.960 . S
C964 C963 1.524 . S
C965 C962 1.403 . S
C965 C966 1.392 . S
C965 C969 1.495 . S
C966 C965 1.392 . S
C966 C967 1.385 . S
C966 C968 1.478 . S
C967 H961 0.930 . S
C967 C963 1.400 . S
C967 C966 1.385 . S
C968 C966 1.478 . S
C968 C970 1.381 . S
C968 C974 1.383 . S
C969 C965 1.495 . S
C969 H975 0.959 . S
C969 H976 0.961 . S
C969 H977 0.960 . S
C970 C968 1.381 . S
C970 C971 1.394 . S
C970 H978 0.930 . S
C971 C970 1.394 . S
C971 C972 1.383 . S
C971 H979 0.929 . S
C972 C971 1.383 . S
C972 C973 1.377 . S
C973 H957 0.930 . S
C973 C972 1.377 . S
C973 C974 1.379 . S
C974 H958 0.931 . S
C974 C968 1.383 . S
C974 C973 1.379 . S
H975 C969 0.959 . S
H976 C969 0.961 . S
H977 C969 0.960 . S
H978 C970 0.930 . S
H979 C971 0.929 . S
H980 C988 0.929 . S
H981 C990 0.930 . S
H982 C992 0.930 . S
H983 C995 0.929 . S
H984 C998 0.930 . S
H985 C1000 0.960 . S
H986 C1000 0.960 . S
H987 C1000 0.960 . S
C988 H980 0.929 . S
C988 C989 1.377 . S
C988 C990 1.384 . S
C989 C988 1.377 . S
C989 C995 1.390 . S
C990 H981 0.930 . S
C990 C988 1.384 . S
C990 C991 1.372 . S
C991 C990 1.372 . S
C991 C992 1.400 . S
C991 C996 1.490 . S
C992 H982 0.930 . S
C992 C991 1.400 . S
C992 C995 1.386 . S
H993 C1009 0.930 . S
H994 C1010 0.931 . S
C995 H983 0.929 . S
C995 C989 1.390 . S
C995 C992 1.386 . S
C996 C991 1.490 . S
C996 C998 1.395 . S
C996 C999 1.403 . S
H997 C1003 0.930 . S
C998 H984 0.930 . S
C998 C996 1.395 . S
C998 C1001 1.403 . S
C999 C996 1.403 . S
C999 C1000 1.524 . S
C999 C1003 1.400 . S
C1000 H985 0.960 . S
C1000 H986 0.960 . S
C1000 H987 0.960 . S
C1000 C999 1.524 . S
C1001 C998 1.403 . S
C1001 C1002 1.392 . S
C1001 C1005 1.495 . S
C1002 C1001 1.392 . S
C1002 C1003 1.385 . S
C1002 C1004 1.478 . S
C1003 H997 0.930 . S
C1003 C999 1.400 . S
C1003 C1002 1.385 . S
C1004 C1002 1.478 . S
C1004 C1006 1.381 . S
C1004 C1010 1.383 . S
C1005 C1001 1.495 . S
C1005 H1011 0.959 . S
C1005 H1012 0.961 . S
C1005 H1013 0.960 . S
C1006 C1004 1.381 . S
C1006 C1007 1.394 . S
C1006 H1014 0.930 . S
C1007 C1006 1.394 . S
C1007 C1008 1.383 . S
C1007 H1015 0.929 . S
C1008 C1007 1.383 . S
C1008 C1009 1.377 . S
C1009 H993 0.930 . S
C1009 C1008 1.377 . S
C1009 C1010 1.379 . S
C1010 H994 0.931 . S
C1010 C1004 1.383 . S
C1010 C1009 1.379 . S
H1011 C1005 0.959 . S
H1012 C1005 0.961 . S
H1013 C1005 0.960 . S
H1014 C1006 0.930 . S
H1015 C1007 0.929 . S
H1016 C1024 0.929 . S
H1017 C1026 0.930 . S
H1018 C1028 0.930 . S
H1019 C1031 0.929 . S
H1020 C1034 0.930 . S
H1021 C1036 0.960 . S
H1022 C1036 0.960 . S
H1023 C1036 0.960 . S
C1024 H1016 0.929 . S
C1024 C1025 1.377 . S
C1024 C1026 1.384 . S
C1025 C1024 1.377 . S
C1025 C1031 1.390 . S
C1026 H1017 0.930 . S
C1026 C1024 1.384 . S
C1026 C1027 1.372 . S
C1027 C1026 1.372 . S
C1027 C1028 1.400 . S
C1027 C1032 1.490 . S
C1028 H1018 0.930 . S
C1028 C1027 1.400 . S
C1028 C1031 1.386 . S
H1029 C1045 0.930 . S
H1030 C1046 0.931 . S
C1031 H1019 0.929 . S
C1031 C1025 1.390 . S
C1031 C1028 1.386 . S
C1032 C1027 1.490 . S
C1032 C1034 1.395 . S
C1032 C1035 1.403 . S
H1033 C1039 0.930 . S
C1034 H1020 0.930 . S
C1034 C1032 1.395 . S
C1034 C1037 1.403 . S
C1035 C1032 1.403 . S
C1035 C1036 1.524 . S
C1035 C1039 1.400 . S
C1036 H1021 0.960 . S
C1036 H1022 0.960 . S
C1036 H1023 0.960 . S
C1036 C1035 1.524 . S
C1037 C1034 1.403 . S
C1037 C1038 1.392 . S
C1037 C1041 1.495 . S
C1038 C1037 1.392 . S
C1038 C1039 1.385 . S
C1038 C1040 1.478 . S
C1039 H1033 0.930 . S
C1039 C1035 1.400 . S
C1039 C1038 1.385 . S
C1040 C1038 1.478 . S
C1040 C1042 1.381 . S
C1040 C1046 1.383 . S
C1041 C1037 1.495 . S
C1041 H1047 0.959 . S
C1041 H1048 0.961 . S
C1041 H1049 0.960 . S
C1042 C1040 1.381 . S
C1042 C1043 1.394 . S
C1042 H1050 0.930 . S
C1043 C1042 1.394 . S
C1043 C1044 1.383 . S
C1043 H1051 0.929 . S
C1044 C1043 1.383 . S
C1044 C1045 1.377 . S
C1045 H1029 0.930 . S
C1045 C1044 1.377 . S
C1045 C1046 1.379 . S
C1046 H1030 0.931 . S
C1046 C1040 1.383 . S
C1046 C1045 1.379 . S
H1047 C1041 0.959 . S
H1048 C1041 0.961 . S
H1049 C1041 0.960 . S
H1050 C1042 0.930 . S
H1051 C1043 0.929 . S
H1052 C1060 0.929 . S
H1053 C1062 0.930 . S
H1054 C1064 0.930 . S
H1055 C1067 0.929 . S
H1056 C1070 0.930 . S
H1057 C1072 0.960 . S
H1058 C1072 0.960 . S
H1059 C1072 0.960 . S
C1060 H1052 0.929 . S
C1060 C1061 1.377 . S
C1060 C1062 1.384 . S
C1061 C1060 1.377 . S
C1061 C1067 1.390 . S
C1062 H1053 0.930 . S
C1062 C1060 1.384 . S
C1062 C1063 1.372 . S
C1063 C1062 1.372 . S
C1063 C1064 1.400 . S
C1063 C1068 1.490 . S
C1064 H1054 0.930 . S
C1064 C1063 1.400 . S
C1064 C1067 1.386 . S
H1065 C1081 0.930 . S
H1066 C1082 0.931 . S
C1067 H1055 0.929 . S
C1067 C1061 1.390 . S
C1067 C1064 1.386 . S
C1068 C1063 1.490 . S
C1068 C1070 1.395 . S
C1068 C1071 1.403 . S
H1069 C1075 0.930 . S
C1070 H1056 0.930 . S
C1070 C1068 1.395 . S
C1070 C1073 1.403 . S
C1071 C1068 1.403 . S
C1071 C1072 1.524 . S
C1071 C1075 1.400 . S
C1072 H1057 0.960 . S
C1072 H1058 0.960 . S
C1072 H1059 0.960 . S
C1072 C1071 1.524 . S
C1073 C1070 1.403 . S
C1073 C1074 1.392 . S
C1073 C1077 1.495 1_455 S
C1074 C1073 1.392 . S
C1074 C1075 1.385 . S
C1074 C1076 1.478 . S
C1075 H1069 0.930 . S
C1075 C1071 1.400 . S
C1075 C1074 1.385 . S
C1076 C1074 1.478 . S
C1076 C1078 1.381 . S
C1076 C1082 1.383 . S
C1077 C1073 1.495 1_655 S
C1077 H1083 0.959 . S
C1077 H1084 0.963 . S
C1077 H1085 0.960 . S
C1078 C1076 1.381 . S
C1078 C1079 1.394 . S
C1078 H1086 0.930 . S
C1079 C1078 1.394 . S
C1079 C1080 1.383 . S
C1079 H1087 0.929 . S
C1080 C1079 1.383 . S
C1080 C1081 1.377 . S
C1081 H1065 0.930 . S
C1081 C1080 1.377 . S
C1081 C1082 1.379 . S
C1082 H1066 0.931 . S
C1082 C1076 1.383 . S
C1082 C1081 1.379 . S
H1083 C1077 0.959 . S
H1084 C1077 0.963 . S
H1085 C1077 0.960 . S
H1086 C1078 0.930 . S
H1087 C1079 0.929 . S
H1088 C1096 0.929 . S
H1089 C1098 0.930 . S
H1090 C1100 0.930 . S
H1091 C1103 0.929 . S
H1092 C1106 0.930 . S
H1093 C1108 0.960 . S
H1094 C1108 0.960 . S
H1095 C1108 0.960 . S
C1096 H1088 0.929 . S
C1096 C1097 1.377 . S
C1096 C1098 1.384 . S
C1097 C1096 1.377 . S
C1097 C1103 1.390 . S
C1098 H1089 0.930 . S
C1098 C1096 1.384 . S
C1098 C1099 1.372 . S
C1099 C1098 1.372 . S
C1099 C1100 1.400 . S
C1099 C1104 1.490 . S
C1100 H1090 0.930 . S
C1100 C1099 1.400 . S
C1100 C1103 1.386 . S
H1101 C1117 0.930 . S
H1102 C1118 0.931 . S
C1103 H1091 0.929 . S
C1103 C1097 1.390 . S
C1103 C1100 1.386 . S
C1104 C1099 1.490 . S
C1104 C1106 1.395 . S
C1104 C1107 1.403 . S
H1105 C1111 0.930 . S
C1106 H1092 0.930 . S
C1106 C1104 1.395 . S
C1106 C1109 1.403 . S
C1107 C1104 1.403 . S
C1107 C1108 1.524 . S
C1107 C1111 1.400 . S
C1108 H1093 0.960 . S
C1108 H1094 0.960 . S
C1108 H1095 0.960 . S
C1108 C1107 1.524 . S
C1109 C1106 1.403 . S
C1109 C1110 1.392 . S
C1109 C1113 1.495 . S
C1110 C1109 1.392 . S
C1110 C1111 1.385 . S
C1110 C1112 1.478 . S
C1111 H1105 0.930 . S
C1111 C1107 1.400 . S
C1111 C1110 1.385 . S
C1112 C1110 1.478 . S
C1112 C1114 1.381 . S
C1112 C1118 1.383 . S
C1113 C1109 1.495 . S
C1113 H1119 0.959 . S
C1113 H1120 0.961 . S
C1113 H1121 0.960 . S
C1114 C1112 1.381 . S
C1114 C1115 1.394 . S
C1114 H1122 0.930 . S
C1115 C1114 1.394 . S
C1115 C1116 1.383 . S
C1115 H1123 0.929 . S
C1116 C1115 1.383 . S
C1116 C1117 1.377 . S
C1117 H1101 0.930 . S
C1117 C1116 1.377 . S
C1117 C1118 1.379 . S
C1118 H1102 0.931 . S
C1118 C1112 1.383 . S
C1118 C1117 1.379 . S
H1119 C1113 0.959 . S
H1120 C1113 0.961 . S
H1121 C1113 0.960 . S
H1122 C1114 0.930 . S
H1123 C1115 0.929 . S
H1124 C1132 0.929 . S
H1125 C1134 0.930 . S
H1126 C1136 0.930 . S
H1127 C1139 0.929 . S
H1128 C1142 0.930 . S
H1129 C1144 0.960 . S
H1130 C1144 0.960 . S
H1131 C1144 0.960 . S
C1132 H1124 0.929 . S
C1132 C1133 1.377 . S
C1132 C1134 1.384 . S
C1133 C1132 1.377 . S
C1133 C1139 1.390 . S
C1134 H1125 0.930 . S
C1134 C1132 1.384 . S
C1134 C1135 1.372 . S
C1135 C1134 1.372 . S
C1135 C1136 1.400 . S
C1135 C1140 1.490 . S
C1136 H1126 0.930 . S
C1136 C1135 1.400 . S
C1136 C1139 1.386 . S
H1137 C1153 0.930 . S
H1138 C1154 0.931 . S
C1139 H1127 0.929 . S
C1139 C1133 1.390 . S
C1139 C1136 1.386 . S
C1140 C1135 1.490 . S
C1140 C1142 1.395 . S
C1140 C1143 1.403 . S
H1141 C1147 0.930 . S
C1142 H1128 0.930 . S
C1142 C1140 1.395 . S
C1142 C1145 1.403 . S
C1143 C1140 1.403 . S
C1143 C1144 1.524 . S
C1143 C1147 1.400 . S
C1144 H1129 0.960 . S
C1144 H1130 0.960 . S
C1144 H1131 0.960 . S
C1144 C1143 1.524 . S
C1145 C1142 1.403 . S
C1145 C1146 1.392 . S
C1145 C1149 1.495 . S
C1146 C1145 1.392 . S
C1146 C1147 1.385 . S
C1146 C1148 1.478 . S
C1147 H1141 0.930 . S
C1147 C1143 1.400 . S
C1147 C1146 1.385 . S
C1148 C1146 1.478 . S
C1148 C1150 1.381 . S
C1148 C1154 1.383 . S
C1149 C1145 1.495 . S
C1149 H1155 0.959 . S
C1149 H1156 0.961 . S
C1149 H1157 0.960 . S
C1150 C1148 1.381 . S
C1150 C1151 1.394 . S
C1150 H1158 0.930 . S
C1151 C1150 1.394 . S
C1151 C1152 1.383 . S
C1151 H1159 0.929 . S
C1152 C1151 1.383 . S
C1152 C1153 1.377 . S
C1153 H1137 0.930 . S
C1153 C1152 1.377 . S
C1153 C1154 1.379 . S
C1154 H1138 0.931 . S
C1154 C1148 1.383 . S
C1154 C1153 1.379 . S
H1155 C1149 0.959 . S
H1156 C1149 0.961 . S
H1157 C1149 0.960 . S
H1158 C1150 0.930 . S
H1159 C1151 0.929 . S
H1160 C1168 0.929 . S
H1161 C1170 0.930 . S
H1162 C1172 0.930 . S
H1163 C1175 0.929 . S
H1164 C1178 0.930 . S
H1165 C1180 0.960 . S
H1166 C1180 0.960 . S
H1167 C1180 0.960 . S
C1168 H1160 0.929 . S
C1168 C1169 1.377 . S
C1168 C1170 1.384 . S
C1169 C1168 1.377 . S
C1169 C1175 1.390 . S
C1170 H1161 0.930 . S
C1170 C1168 1.384 . S
C1170 C1171 1.372 . S
C1171 C1170 1.372 . S
C1171 C1172 1.400 . S
C1171 C1176 1.490 . S
C1172 H1162 0.930 . S
C1172 C1171 1.400 . S
C1172 C1175 1.386 . S
H1173 C1189 0.930 . S
H1174 C1190 0.931 . S
C1175 H1163 0.929 . S
C1175 C1169 1.390 . S
C1175 C1172 1.386 . S
C1176 C1171 1.490 . S
C1176 C1178 1.395 . S
C1176 C1179 1.403 . S
H1177 C1183 0.930 . S
C1178 H1164 0.930 . S
C1178 C1176 1.395 . S
C1178 C1181 1.403 . S
C1179 C1176 1.403 . S
C1179 C1180 1.524 . S
C1179 C1183 1.400 . S
C1180 H1165 0.960 . S
C1180 H1166 0.960 . S
C1180 H1167 0.960 . S
C1180 C1179 1.524 . S
C1181 C1178 1.403 . S
C1181 C1182 1.392 . S
C1181 C1185 1.495 . S
C1182 C1181 1.392 . S
C1182 C1183 1.385 . S
C1182 C1184 1.478 . S
C1183 H1177 0.930 . S
C1183 C1179 1.400 . S
C1183 C1182 1.385 . S
C1184 C1182 1.478 . S
C1184 C1186 1.381 . S
C1184 C1190 1.383 . S
C1185 C1181 1.495 . S
C1185 H1191 0.959 . S
C1185 H1192 0.961 . S
C1185 H1193 0.960 . S
C1186 C1184 1.381 . S
C1186 C1187 1.394 . S
C1186 H1194 0.930 . S
C1187 C1186 1.394 . S
C1187 C1188 1.383 . S
C1187 H1195 0.929 . S
C1188 C1187 1.383 . S
C1188 C1189 1.377 . S
C1189 H1173 0.930 . S
C1189 C1188 1.377 . S
C1189 C1190 1.379 . S
C1190 H1174 0.931 . S
C1190 C1184 1.383 . S
C1190 C1189 1.379 . S
H1191 C1185 0.959 . S
H1192 C1185 0.961 . S
H1193 C1185 0.960 . S
H1194 C1186 0.930 . S
H1195 C1187 0.929 . S
H1196 C1204 0.929 . S
H1197 C1206 0.930 . S
H1198 C1208 0.930 . S
H1199 C1211 0.929 . S
H1200 C1214 0.930 . S
H1201 C1216 0.888 1_554 S
H1202 C1216 1.016 . S
H1203 C1216 0.981 . S
C1204 H1196 0.929 . S
C1204 C1205 1.377 . S
C1204 C1206 1.384 . S
C1205 C1204 1.377 . S
C1205 C1211 1.390 . S
C1206 H1197 0.930 . S
C1206 C1204 1.384 . S
C1206 C1207 1.372 . S
C1207 C1206 1.372 . S
C1207 C1208 1.400 . S
C1207 C1212 1.490 . S
C1208 H1198 0.930 . S
C1208 C1207 1.400 . S
C1208 C1211 1.386 . S
H1209 C1225 0.930 . S
H1210 C1226 0.931 . S
C1211 H1199 0.929 . S
C1211 C1205 1.390 . S
C1211 C1208 1.386 . S
C1212 C1207 1.490 . S
C1212 C1214 1.395 . S
C1212 C1215 1.480 . S
H1213 C1219 0.930 . S
C1214 H1200 0.930 . S
C1214 C1212 1.395 . S
C1214 C1217 1.420 . S
C1215 C1212 1.480 . S
C1215 C1216 1.524 . S
C1215 C1219 1.323 1_556 S
C1216 H1201 0.888 1_556 S
C1216 H1202 1.016 . S
C1216 H1203 0.981 . S
C1216 C1215 1.524 . S
C1217 C1214 1.420 . S
C1217 C1218 1.376 1_556 S
C1217 C1221 1.495 . S
C1218 C1217 1.376 1_554 S
C1218 C1219 1.385 . S
C1218 C1220 1.478 . S
C1219 H1213 0.930 . S
C1219 C1215 1.323 1_554 S
C1219 C1218 1.385 . S
C1220 C1218 1.478 . S
C1220 C1222 1.381 . S
C1220 C1226 1.383 . S
C1221 C1217 1.495 . S
C1221 H1227 0.982 . S
C1221 H1228 0.944 1_556 S
C1221 H1229 0.955 1_556 S
C1222 C1220 1.381 . S
C1222 C1223 1.394 . S
C1222 H1230 0.930 . S
C1223 C1222 1.394 . S
C1223 C1224 1.383 . S
C1223 H1231 0.929 . S
C1224 C1223 1.383 . S
C1224 C1225 1.377 . S
C1225 H1209 0.930 . S
C1225 C1224 1.377 . S
C1225 C1226 1.379 . S
C1226 H1210 0.931 . S
C1226 C1220 1.383 . S
C1226 C1225 1.379 . S
H1227 C1221 0.982 . S
H1228 C1221 0.944 1_554 S
H1229 C1221 0.955 1_554 S
H1230 C1222 0.930 . S
H1231 C1223 0.929 . S
H1232 C1240 0.929 . S
H1233 C1242 0.930 . S
H1234 C1244 0.930 . S
H1235 C1247 0.929 . S
H1236 C1250 0.926 . S
H1237 C1252 0.960 . S
H1238 C1252 0.960 . S
H1239 C1252 0.960 . S
C1240 H1232 0.929 . S
C1240 C1241 1.377 . S
C1240 C1242 1.384 . S
C1241 C1240 1.377 . S
C1241 C1247 1.390 . S
C1242 H1233 0.930 . S
C1242 C1240 1.384 . S
C1242 C1243 1.372 . S
C1243 C1242 1.372 . S
C1243 C1244 1.400 . S
C1243 C1248 1.490 . S
C1244 H1234 0.930 . S
C1244 C1243 1.400 . S
C1244 C1247 1.386 . S
H1245 C1261 0.930 . S
H1246 C1262 0.931 . S
C1247 H1235 0.929 . S
C1247 C1241 1.390 . S
C1247 C1244 1.386 . S
C1248 C1243 1.490 . S
C1248 C1250 1.386 . S
C1248 C1251 1.403 . S
H1249 C1255 0.930 . S
C1250 H1236 0.926 . S
C1250 C1248 1.386 . S
C1250 C1253 1.413 1_554 S
C1251 C1248 1.403 . S
C1251 C1252 1.524 . S
C1251 C1255 1.400 1_554 S
C1252 H1237 0.960 . S
C1252 H1238 0.960 . S
C1252 H1239 0.960 . S
C1252 C1251 1.524 . S
C1253 C1250 1.413 1_556 S
C1253 C1254 1.392 . S
C1253 C1257 1.495 . S
C1254 C1253 1.392 . S
C1254 C1255 1.385 . S
C1254 C1256 1.478 . S
C1255 H1249 0.930 . S
C1255 C1251 1.400 1_556 S
C1255 C1254 1.385 . S
C1256 C1254 1.478 . S
C1256 C1258 1.381 . S
C1256 C1262 1.383 . S
C1257 C1253 1.495 . S
C1257 H1263 0.959 . S
C1257 H1264 0.961 . S
C1257 H1265 0.960 . S
C1258 C1256 1.381 . S
C1258 C1259 1.394 . S
C1258 H1266 0.930 . S
C1259 C1258 1.394 . S
C1259 C1260 1.383 . S
C1259 H1267 0.929 . S
C1260 C1259 1.383 . S
C1260 C1261 1.377 . S
C1261 H1245 0.930 . S
C1261 C1260 1.377 . S
C1261 C1262 1.379 . S
C1262 H1246 0.931 . S
C1262 C1256 1.383 . S
C1262 C1261 1.379 . S
H1263 C1257 0.959 . S
H1264 C1257 0.961 . S
H1265 C1257 0.960 . S
H1266 C1258 0.930 . S
H1267 C1259 0.929 . S
H1268 C1276 0.929 . S
H1269 C1278 0.930 . S
H1270 C1280 0.930 . S
H1271 C1283 0.929 . S
H1272 C1286 0.930 . S
H1273 C1288 0.960 . S
H1274 C1288 0.960 . S
H1275 C1288 0.960 . S
C1276 H1268 0.929 . S
C1276 C1277 1.377 . S
C1276 C1278 1.384 . S
C1277 C1276 1.377 . S
C1277 C1283 1.390 . S
C1278 H1269 0.930 . S
C1278 C1276 1.384 . S
C1278 C1279 1.372 . S
C1279 C1278 1.372 . S
C1279 C1280 1.400 . S
C1279 C1284 1.490 . S
C1280 H1270 0.930 . S
C1280 C1279 1.400 . S
C1280 C1283 1.386 . S
H1281 C1297 0.930 . S
H1282 C1298 0.931 . S
C1283 H1271 0.929 . S
C1283 C1277 1.390 . S
C1283 C1280 1.386 . S
C1284 C1279 1.490 . S
C1284 C1286 1.395 . S
C1284 C1287 1.403 . S
H1285 C1291 0.930 . S
C1286 H1272 0.930 . S
C1286 C1284 1.395 . S
C1286 C1289 1.403 . S
C1287 C1284 1.403 . S
C1287 C1288 1.524 . S
C1287 C1291 1.400 . S
C1288 H1273 0.960 . S
C1288 H1274 0.960 . S
C1288 H1275 0.960 . S
C1288 C1287 1.524 . S
C1289 C1286 1.403 . S
C1289 C1290 1.392 . S
C1289 C1293 1.495 . S
C1290 C1289 1.392 . S
C1290 C1291 1.385 . S
C1290 C1292 1.478 . S
C1291 H1285 0.930 . S
C1291 C1287 1.400 . S
C1291 C1290 1.385 . S
C1292 C1290 1.478 . S
C1292 C1294 1.381 . S
C1292 C1298 1.383 . S
C1293 C1289 1.495 . S
C1293 H1299 0.959 . S
C1293 H1300 0.961 . S
C1293 H1301 0.960 . S
C1294 C1292 1.381 . S
C1294 C1295 1.394 . S
C1294 H1302 0.930 . S
C1295 C1294 1.394 . S
C1295 C1296 1.383 . S
C1295 H1303 0.929 . S
C1296 C1295 1.383 . S
C1296 C1297 1.377 . S
C1297 H1281 0.930 . S
C1297 C1296 1.377 . S
C1297 C1298 1.379 . S
C1298 H1282 0.931 . S
C1298 C1292 1.383 . S
C1298 C1297 1.379 . S
H1299 C1293 0.959 . S
H1300 C1293 0.961 . S
H1301 C1293 0.960 . S
H1302 C1294 0.930 . S
H1303 C1295 0.929 . S
H1304 C1312 0.929 . S
H1305 C1314 0.930 . S
H1306 C1316 0.930 . S
H1307 C1319 0.929 . S
H1308 C1322 0.930 . S
H1309 C1324 0.960 . S
H1310 C1324 0.960 . S
H1311 C1324 0.960 . S
C1312 H1304 0.929 . S
C1312 C1313 1.377 . S
C1312 C1314 1.384 . S
C1313 C1312 1.377 . S
C1313 C1319 1.390 . S
C1314 H1305 0.930 . S
C1314 C1312 1.384 . S
C1314 C1315 1.372 . S
C1315 C1314 1.372 . S
C1315 C1316 1.400 . S
C1315 C1320 1.490 . S
C1316 H1306 0.930 . S
C1316 C1315 1.400 . S
C1316 C1319 1.386 . S
H1317 C1333 0.930 . S
H1318 C1334 0.931 . S
C1319 H1307 0.929 . S
C1319 C1313 1.390 . S
C1319 C1316 1.386 . S
C1320 C1315 1.490 . S
C1320 C1322 1.395 . S
C1320 C1323 1.403 . S
H1321 C1327 0.930 . S
C1322 H1308 0.930 . S
C1322 C1320 1.395 . S
C1322 C1325 1.403 . S
C1323 C1320 1.403 . S
C1323 C1324 1.524 . S
C1323 C1327 1.400 . S
C1324 H1309 0.960 . S
C1324 H1310 0.960 . S
C1324 H1311 0.960 . S
C1324 C1323 1.524 . S
C1325 C1322 1.403 . S
C1325 C1326 1.392 . S
C1325 C1329 1.495 . S
C1326 C1325 1.392 . S
C1326 C1327 1.385 . S
C1326 C1328 1.478 . S
C1327 H1321 0.930 . S
C1327 C1323 1.400 . S
C1327 C1326 1.385 . S
C1328 C1326 1.478 . S
C1328 C1330 1.381 . S
C1328 C1334 1.383 . S
C1329 C1325 1.495 . S
C1329 H1335 0.959 . S
C1329 H1336 0.961 . S
C1329 H1337 0.960 . S
C1330 C1328 1.381 . S
C1330 C1331 1.394 . S
C1330 H1338 0.930 . S
C1331 C1330 1.394 . S
C1331 C1332 1.383 . S
C1331 H1339 0.929 . S
C1332 C1331 1.383 . S
C1332 C1333 1.377 . S
C1333 H1317 0.930 . S
C1333 C1332 1.377 . S
C1333 C1334 1.379 . S
C1334 H1318 0.931 . S
C1334 C1328 1.383 . S
C1334 C1333 1.379 . S
H1335 C1329 0.959 . S
H1336 C1329 0.961 . S
H1337 C1329 0.960 . S
H1338 C1330 0.930 . S
H1339 C1331 0.929 . S
H1340 C1348 0.929 . S
H1341 C1350 0.930 . S
H1342 C1352 0.930 . S
H1343 C1355 0.929 . S
H1344 C1358 0.930 . S
H1345 C1360 0.960 . S
H1346 C1360 0.960 . S
H1347 C1360 0.960 . S
C1348 H1340 0.929 . S
C1348 C1349 1.377 . S
C1348 C1350 1.384 . S
C1349 C1348 1.377 . S
C1349 C1355 1.390 . S
C1350 H1341 0.930 . S
C1350 C1348 1.384 . S
C1350 C1351 1.372 . S
C1351 C1350 1.372 . S
C1351 C1352 1.400 . S
C1351 C1356 1.490 . S
C1352 H1342 0.930 . S
C1352 C1351 1.400 . S
C1352 C1355 1.386 . S
H1353 C1369 0.930 . S
H1354 C1370 0.931 . S
C1355 H1343 0.929 . S
C1355 C1349 1.390 . S
C1355 C1352 1.386 . S
C1356 C1351 1.490 . S
C1356 C1358 1.395 . S
C1356 C1359 1.403 . S
H1357 C1363 0.930 . S
C1358 H1344 0.930 . S
C1358 C1356 1.395 . S
C1358 C1361 1.403 . S
C1359 C1356 1.403 . S
C1359 C1360 1.524 . S
C1359 C1363 1.400 . S
C1360 H1345 0.960 . S
C1360 H1346 0.960 . S
C1360 H1347 0.960 . S
C1360 C1359 1.524 . S
C1361 C1358 1.403 . S
C1361 C1362 1.392 . S
C1361 C1365 1.495 . S
C1362 C1361 1.392 . S
C1362 C1363 1.385 . S
C1362 C1364 1.478 . S
C1363 H1357 0.930 . S
C1363 C1359 1.400 . S
C1363 C1362 1.385 . S
C1364 C1362 1.478 . S
C1364 C1366 1.381 . S
C1364 C1370 1.383 . S
C1365 C1361 1.495 . S
C1365 H1371 0.959 . S
C1365 H1372 0.961 . S
C1365 H1373 0.960 . S
C1366 C1364 1.381 . S
C1366 C1367 1.394 . S
C1366 H1374 0.930 . S
C1367 C1366 1.394 . S
C1367 C1368 1.383 . S
C1367 H1375 0.929 . S
C1368 C1367 1.383 . S
C1368 C1369 1.377 . S
C1369 H1353 0.930 . S
C1369 C1368 1.377 . S
C1369 C1370 1.379 . S
C1370 H1354 0.931 . S
C1370 C1364 1.383 . S
C1370 C1369 1.379 . S
H1371 C1365 0.959 . S
H1372 C1365 0.961 . S
H1373 C1365 0.960 . S
H1374 C1366 0.930 . S
H1375 C1367 0.929 . S
C233 C141 2.163 . S
C252 C13 2.143 . S
C269 C15 2.161 . S
C288 C167 2.169 . S
C305 C113 2.166 . S
C324 C29 2.171 . S
C341 C139 2.162 . S
C360 C43 2.170 . S
C377 C69 2.167 . S
C396 C197 2.159 . S
C413 C211 2.160 . S
C432 C83 2.156 . S
C449 C96 2.159 . S
C468 C180 2.140 . S
C485 C182 2.164 . S
C504 C98 2.163 . S
C521 C140 1.374 . S
C540 C12 1.356 . S
C557 C14 1.371 . S
C576 C166 1.343 . S
C593 C28 1.368 . S
C612 C112 1.341 . S
C629 C42 1.371 . S
C648 C138 1.342 . S
C665 C68 1.368 . S
C684 C196 1.390 . S
C701 C82 1.373 . S
C720 C210 1.390 . S
C737 C181 1.369 . S
C756 C97 1.345 . S
C773 C183 1.371 . S
C792 C99 1.393 . S
C809 C0 1.670 . S
C828 C85 1.671 . S
C845 C26 1.671 . S
C864 C111 1.677 . S
C881 C40 1.669 . S
C900 C56 1.666 . S
C917 C54 1.670 . S
C936 C70 1.675 . S
C953 C124 1.667 . S
C972 C208 1.659 . S
C989 C222 1.666 . S
C1008 C126 1.652 . S
C1025 C152 1.667 . S
C1044 C169 1.659 . S
C1061 C195 1.671 . S
C1080 C154 1.675 . S
C1097 C1 1.746 . S
C1116 C223 1.754 . S
C1133 C168 1.744 . S
C1152 C27 1.735 . S
C1169 C194 1.743 . S
C1188 C41 1.743 . S
C1205 C209 1.745 . S
C1224 C55 1.753 . S
C1241 C127 1.747 . S
C1260 C57 1.732 . S
C1277 C153 1.749 . S
C1296 C71 1.739 . S
C1313 C84 1.748 . S
C1332 C155 1.737 . S
C1349 C110 1.744 . S
C1368 C125 1.752 . S
