# Generated by pormake.
# Topology ula, (4)-cn, num edge types: 1
# Building blocks:
#     Node 0, Type 0, BuildingBlock: NAWXER_clean_sbu_0, # of connection points: 4
#     Node 1, Type 0, BuildingBlock: NAWXER_clean_sbu_0, # of connection points: 4
#     Node 2, Type 0, BuildingBlock: NAWXER_clean_sbu_0, # of connection points: 4
#     Node 3, Type 0, BuildingBlock: NAWXER_clean_sbu_0, # of connection points: 4
#     Node 4, Type 0, BuildingBlock: NAWXER_clean_sbu_0, # of connection points: 4
#     Node 5, Type 0, BuildingBlock: NAWXER_clean_sbu_0, # of connection points: 4
#     Node 6, Type 0, BuildingBlock: NAWXER_clean_sbu_0, # of connection points: 4
#     Node 7, Type 0, BuildingBlock: NAWXER_clean_sbu_0, # of connection points: 4
#     Node 8, Type 0, BuildingBlock: NAWXER_clean_sbu_0, # of connection points: 4
#     Node 9, Type 0, BuildingBlock: NAWXER_clean_sbu_0, # of connection points: 4
#     Node 10, Type 0, BuildingBlock: NAWXER_clean_sbu_0, # of connection points: 4
#     Node 11, Type 0, BuildingBlock: NAWXER_clean_sbu_0, # of connection points: 4
#     Node 12, Type 0, BuildingBlock: NAWXER_clean_sbu_0, # of connection points: 4
#     Node 13, Type 0, BuildingBlock: NAWXER_clean_sbu_0, # of connection points: 4
#     Node 14, Type 0, BuildingBlock: NAWXER_clean_sbu_0, # of connection points: 4
#     Node 15, Type 0, BuildingBlock: NAWXER_clean_sbu_0, # of connection points: 4
#     Node 16, Type 0, BuildingBlock: NAWXER_clean_sbu_0, # of connection points: 4
#     Node 17, Type 0, BuildingBlock: NAWXER_clean_sbu_0, # of connection points: 4
#     Node 18, Type 0, BuildingBlock: NAWXER_clean_sbu_0, # of connection points: 4
#     Node 19, Type 0, BuildingBlock: NAWXER_clean_sbu_0, # of connection points: 4
#     Node 20, Type 0, BuildingBlock: NAWXER_clean_sbu_0, # of connection points: 4
#     Node 21, Type 0, BuildingBlock: NAWXER_clean_sbu_0, # of connection points: 4
#     Node 22, Type 0, BuildingBlock: NAWXER_clean_sbu_0, # of connection points: 4
#     Node 23, Type 0, BuildingBlock: NAWXER_clean_sbu_0, # of connection points: 4
#     Node 24, Type 0, BuildingBlock: NAWXER_clean_sbu_0, # of connection points: 4
#     Node 25, Type 0, BuildingBlock: NAWXER_clean_sbu_0, # of connection points: 4
#     Node 26, Type 0, BuildingBlock: NAWXER_clean_sbu_0, # of connection points: 4
#     Node 27, Type 0, BuildingBlock: NAWXER_clean_sbu_0, # of connection points: 4
#     Node 28, Type 0, BuildingBlock: NAWXER_clean_sbu_0, # of connection points: 4
#     Node 29, Type 0, BuildingBlock: NAWXER_clean_sbu_0, # of connection points: 4
#     Node 30, Type 0, BuildingBlock: NAWXER_clean_sbu_0, # of connection points: 4
#     Node 31, Type 0, BuildingBlock: NAWXER_clean_sbu_0, # of connection points: 4
#     Node 32, Type 0, BuildingBlock: NAWXER_clean_sbu_0, # of connection points: 4
#     Node 33, Type 0, BuildingBlock: NAWXER_clean_sbu_0, # of connection points: 4
#     Node 34, Type 0, BuildingBlock: NAWXER_clean_sbu_0, # of connection points: 4
#     Node 35, Type 0, BuildingBlock: NAWXER_clean_sbu_0, # of connection points: 4
#     Node 36, Type 0, BuildingBlock: NAWXER_clean_sbu_0, # of connection points: 4
#     Node 37, Type 0, BuildingBlock: NAWXER_clean_sbu_0, # of connection points: 4
#     Node 38, Type 0, BuildingBlock: NAWXER_clean_sbu_0, # of connection points: 4
#     Node 39, Type 0, BuildingBlock: NAWXER_clean_sbu_0, # of connection points: 4
#     Node 40, Type 0, BuildingBlock: NAWXER_clean_sbu_0, # of connection points: 4
#     Node 41, Type 0, BuildingBlock: NAWXER_clean_sbu_0, # of connection points: 4
#     Node 42, Type 0, BuildingBlock: NAWXER_clean_sbu_0, # of connection points: 4
#     Node 43, Type 0, BuildingBlock: NAWXER_clean_sbu_0, # of connection points: 4
#     Node 44, Type 0, BuildingBlock: NAWXER_clean_sbu_0, # of connection points: 4
#     Node 45, Type 0, BuildingBlock: NAWXER_clean_sbu_0, # of connection points: 4
#     Node 46, Type 0, BuildingBlock: NAWXER_clean_sbu_0, # of connection points: 4
#     Node 47, Type 0, BuildingBlock: NAWXER_clean_sbu_0, # of connection points: 4
#     Node 48, Type 0, BuildingBlock: NAWXER_clean_sbu_0, # of connection points: 4
#     Node 49, Type 0, BuildingBlock: NAWXER_clean_sbu_0, # of connection points: 4
#     Node 50, Type 0, BuildingBlock: NAWXER_clean_sbu_0, # of connection points: 4
#     Node 51, Type 0, BuildingBlock: NAWXER_clean_sbu_0, # of connection points: 4
#     Node 52, Type 0, BuildingBlock: NAWXER_clean_sbu_0, # of connection points: 4
#     Node 53, Type 0, BuildingBlock: NAWXER_clean_sbu_0, # of connection points: 4
#     Node 54, Type 0, BuildingBlock: NAWXER_clean_sbu_0, # of connection points: 4
#     Node 55, Type 0, BuildingBlock: NAWXER_clean_sbu_0, # of connection points: 4
#     Node 56, Type 0, BuildingBlock: NAWXER_clean_sbu_0, # of connection points: 4
#     Node 57, Type 0, BuildingBlock: NAWXER_clean_sbu_0, # of connection points: 4
#     Node 58, Type 0, BuildingBlock: NAWXER_clean_sbu_0, # of connection points: 4
#     Node 59, Type 0, BuildingBlock: NAWXER_clean_sbu_0, # of connection points: 4
#     Node 60, Type 0, BuildingBlock: NAWXER_clean_sbu_0, # of connection points: 4
#     Node 61, Type 0, BuildingBlock: NAWXER_clean_sbu_0, # of connection points: 4
#     Node 62, Type 0, BuildingBlock: NAWXER_clean_sbu_0, # of connection points: 4
#     Node 63, Type 0, BuildingBlock: NAWXER_clean_sbu_0, # of connection points: 4
#     Node 64, Type 0, BuildingBlock: NAWXER_clean_sbu_0, # of connection points: 4
#     Node 65, Type 0, BuildingBlock: NAWXER_clean_sbu_0, # of connection points: 4
#     Node 66, Type 0, BuildingBlock: NAWXER_clean_sbu_0, # of connection points: 4
#     Node 67, Type 0, BuildingBlock: NAWXER_clean_sbu_0, # of connection points: 4
#     Node 68, Type 0, BuildingBlock: NAWXER_clean_sbu_0, # of connection points: 4
#     Node 69, Type 0, BuildingBlock: NAWXER_clean_sbu_0, # of connection points: 4
#     Node 70, Type 0, BuildingBlock: NAWXER_clean_sbu_0, # of connection points: 4
#     Node 71, Type 0, BuildingBlock: NAWXER_clean_sbu_0, # of connection points: 4
#     Node 72, Type 0, BuildingBlock: NAWXER_clean_sbu_0, # of connection points: 4
#     Node 73, Type 0, BuildingBlock: NAWXER_clean_sbu_0, # of connection points: 4
#     Node 74, Type 0, BuildingBlock: NAWXER_clean_sbu_0, # of connection points: 4
#     Node 75, Type 0, BuildingBlock: NAWXER_clean_sbu_0, # of connection points: 4
#     Node 76, Type 0, BuildingBlock: NAWXER_clean_sbu_0, # of connection points: 4
#     Node 77, Type 0, BuildingBlock: NAWXER_clean_sbu_0, # of connection points: 4
#     Node 78, Type 0, BuildingBlock: NAWXER_clean_sbu_0, # of connection points: 4
#     Node 79, Type 0, BuildingBlock: NAWXER_clean_sbu_0, # of connection points: 4
#     Node 80, Type 0, BuildingBlock: NAWXER_clean_sbu_0, # of connection points: 4
#     Node 81, Type 0, BuildingBlock: NAWXER_clean_sbu_0, # of connection points: 4
#     Node 82, Type 0, BuildingBlock: NAWXER_clean_sbu_0, # of connection points: 4
#     Node 83, Type 0, BuildingBlock: NAWXER_clean_sbu_0, # of connection points: 4
#     Node 84, Type 0, BuildingBlock: NAWXER_clean_sbu_0, # of connection points: 4
#     Node 85, Type 0, BuildingBlock: NAWXER_clean_sbu_0, # of connection points: 4
#     Node 86, Type 0, BuildingBlock: NAWXER_clean_sbu_0, # of connection points: 4
#     Node 87, Type 0, BuildingBlock: NAWXER_clean_sbu_0, # of connection points: 4
#     Node 88, Type 0, BuildingBlock: NAWXER_clean_sbu_0, # of connection points: 4
#     Node 89, Type 0, BuildingBlock: NAWXER_clean_sbu_0, # of connection points: 4
#     Node 90, Type 0, BuildingBlock: NAWXER_clean_sbu_0, # of connection points: 4
#     Node 91, Type 0, BuildingBlock: NAWXER_clean_sbu_0, # of connection points: 4
#     Node 92, Type 0, BuildingBlock: NAWXER_clean_sbu_0, # of connection points: 4
#     Node 93, Type 0, BuildingBlock: NAWXER_clean_sbu_0, # of connection points: 4
#     Node 94, Type 0, BuildingBlock: NAWXER_clean_sbu_0, # of connection points: 4
#     Node 95, Type 0, BuildingBlock: NAWXER_clean_sbu_0, # of connection points: 4
#     Edge 96, Type (0, 0), BuildingBlock: OJICUG_clean_linker_0, # of connection points: 2
#     Edge 97, Type (0, 0), BuildingBlock: OJICUG_clean_linker_0, # of connection points: 2
#     Edge 98, Type (0, 0), BuildingBlock: OJICUG_clean_linker_0, # of connection points: 2
#     Edge 99, Type (0, 0), BuildingBlock: OJICUG_clean_linker_0, # of connection points: 2
#     Edge 100, Type (0, 0), BuildingBlock: OJICUG_clean_linker_0, # of connection points: 2
#     Edge 101, Type (0, 0), BuildingBlock: OJICUG_clean_linker_0, # of connection points: 2
#     Edge 102, Type (0, 0), BuildingBlock: OJICUG_clean_linker_0, # of connection points: 2
#     Edge 103, Type (0, 0), BuildingBlock: OJICUG_clean_linker_0, # of connection points: 2
#     Edge 104, Type (0, 0), BuildingBlock: OJICUG_clean_linker_0, # of connection points: 2
#     Edge 105, Type (0, 0), BuildingBlock: OJICUG_clean_linker_0, # of connection points: 2
#     Edge 106, Type (0, 0), BuildingBlock: OJICUG_clean_linker_0, # of connection points: 2
#     Edge 107, Type (0, 0), BuildingBlock: OJICUG_clean_linker_0, # of connection points: 2
#     Edge 108, Type (0, 0), BuildingBlock: OJICUG_clean_linker_0, # of connection points: 2
#     Edge 109, Type (0, 0), BuildingBlock: OJICUG_clean_linker_0, # of connection points: 2
#     Edge 110, Type (0, 0), BuildingBlock: OJICUG_clean_linker_0, # of connection points: 2
#     Edge 111, Type (0, 0), BuildingBlock: OJICUG_clean_linker_0, # of connection points: 2
#     Edge 112, Type (0, 0), BuildingBlock: OJICUG_clean_linker_0, # of connection points: 2
#     Edge 113, Type (0, 0), BuildingBlock: OJICUG_clean_linker_0, # of connection points: 2
#     Edge 114, Type (0, 0), BuildingBlock: OJICUG_clean_linker_0, # of connection points: 2
#     Edge 115, Type (0, 0), BuildingBlock: OJICUG_clean_linker_0, # of connection points: 2
#     Edge 116, Type (0, 0), BuildingBlock: OJICUG_clean_linker_0, # of connection points: 2
#     Edge 117, Type (0, 0), BuildingBlock: OJICUG_clean_linker_0, # of connection points: 2
#     Edge 118, Type (0, 0), BuildingBlock: OJICUG_clean_linker_0, # of connection points: 2
#     Edge 119, Type (0, 0), BuildingBlock: OJICUG_clean_linker_0, # of connection points: 2
#     Edge 120, Type (0, 0), BuildingBlock: OJICUG_clean_linker_0, # of connection points: 2
#     Edge 121, Type (0, 0), BuildingBlock: OJICUG_clean_linker_0, # of connection points: 2
#     Edge 122, Type (0, 0), BuildingBlock: OJICUG_clean_linker_0, # of connection points: 2
#     Edge 123, Type (0, 0), BuildingBlock: OJICUG_clean_linker_0, # of connection points: 2
#     Edge 124, Type (0, 0), BuildingBlock: OJICUG_clean_linker_0, # of connection points: 2
#     Edge 125, Type (0, 0), BuildingBlock: OJICUG_clean_linker_0, # of connection points: 2
#     Edge 126, Type (0, 0), BuildingBlock: OJICUG_clean_linker_0, # of connection points: 2
#     Edge 127, Type (0, 0), BuildingBlock: OJICUG_clean_linker_0, # of connection points: 2
#     Edge 128, Type (0, 0), BuildingBlock: OJICUG_clean_linker_0, # of connection points: 2
#     Edge 129, Type (0, 0), BuildingBlock: OJICUG_clean_linker_0, # of connection points: 2
#     Edge 130, Type (0, 0), BuildingBlock: OJICUG_clean_linker_0, # of connection points: 2
#     Edge 131, Type (0, 0), BuildingBlock: OJICUG_clean_linker_0, # of connection points: 2
#     Edge 132, Type (0, 0), BuildingBlock: OJICUG_clean_linker_0, # of connection points: 2
#     Edge 133, Type (0, 0), BuildingBlock: OJICUG_clean_linker_0, # of connection points: 2
#     Edge 134, Type (0, 0), BuildingBlock: OJICUG_clean_linker_0, # of connection points: 2
#     Edge 135, Type (0, 0), BuildingBlock: OJICUG_clean_linker_0, # of connection points: 2
#     Edge 136, Type (0, 0), BuildingBlock: OJICUG_clean_linker_0, # of connection points: 2
#     Edge 137, Type (0, 0), BuildingBlock: OJICUG_clean_linker_0, # of connection points: 2
#     Edge 138, Type (0, 0), BuildingBlock: OJICUG_clean_linker_0, # of connection points: 2
#     Edge 139, Type (0, 0), BuildingBlock: OJICUG_clean_linker_0, # of connection points: 2
#     Edge 140, Type (0, 0), BuildingBlock: OJICUG_clean_linker_0, # of connection points: 2
#     Edge 141, Type (0, 0), BuildingBlock: OJICUG_clean_linker_0, # of connection points: 2
#     Edge 142, Type (0, 0), BuildingBlock: OJICUG_clean_linker_0, # of connection points: 2
#     Edge 143, Type (0, 0), BuildingBlock: OJICUG_clean_linker_0, # of connection points: 2
#     Edge 144, Type (0, 0), BuildingBlock: OJICUG_clean_linker_0, # of connection points: 2
#     Edge 145, Type (0, 0), BuildingBlock: OJICUG_clean_linker_0, # of connection points: 2
#     Edge 146, Type (0, 0), BuildingBlock: OJICUG_clean_linker_0, # of connection points: 2
#     Edge 147, Type (0, 0), BuildingBlock: OJICUG_clean_linker_0, # of connection points: 2
#     Edge 148, Type (0, 0), BuildingBlock: OJICUG_clean_linker_0, # of connection points: 2
#     Edge 149, Type (0, 0), BuildingBlock: OJICUG_clean_linker_0, # of connection points: 2
#     Edge 150, Type (0, 0), BuildingBlock: OJICUG_clean_linker_0, # of connection points: 2
#     Edge 151, Type (0, 0), BuildingBlock: OJICUG_clean_linker_0, # of connection points: 2
#     Edge 152, Type (0, 0), BuildingBlock: OJICUG_clean_linker_0, # of connection points: 2
#     Edge 153, Type (0, 0), BuildingBlock: OJICUG_clean_linker_0, # of connection points: 2
#     Edge 154, Type (0, 0), BuildingBlock: OJICUG_clean_linker_0, # of connection points: 2
#     Edge 155, Type (0, 0), BuildingBlock: OJICUG_clean_linker_0, # of connection points: 2
#     Edge 156, Type (0, 0), BuildingBlock: OJICUG_clean_linker_0, # of connection points: 2
#     Edge 157, Type (0, 0), BuildingBlock: OJICUG_clean_linker_0, # of connection points: 2
#     Edge 158, Type (0, 0), BuildingBlock: OJICUG_clean_linker_0, # of connection points: 2
#     Edge 159, Type (0, 0), BuildingBlock: OJICUG_clean_linker_0, # of connection points: 2
#     Edge 160, Type (0, 0), BuildingBlock: OJICUG_clean_linker_0, # of connection points: 2
#     Edge 161, Type (0, 0), BuildingBlock: OJICUG_clean_linker_0, # of connection points: 2
#     Edge 162, Type (0, 0), BuildingBlock: OJICUG_clean_linker_0, # of connection points: 2
#     Edge 163, Type (0, 0), BuildingBlock: OJICUG_clean_linker_0, # of connection points: 2
#     Edge 164, Type (0, 0), BuildingBlock: OJICUG_clean_linker_0, # of connection points: 2
#     Edge 165, Type (0, 0), BuildingBlock: OJICUG_clean_linker_0, # of connection points: 2
#     Edge 166, Type (0, 0), BuildingBlock: OJICUG_clean_linker_0, # of connection points: 2
#     Edge 167, Type (0, 0), BuildingBlock: OJICUG_clean_linker_0, # of connection points: 2
#     Edge 168, Type (0, 0), BuildingBlock: OJICUG_clean_linker_0, # of connection points: 2
#     Edge 169, Type (0, 0), BuildingBlock: OJICUG_clean_linker_0, # of connection points: 2
#     Edge 170, Type (0, 0), BuildingBlock: OJICUG_clean_linker_0, # of connection points: 2
#     Edge 171, Type (0, 0), BuildingBlock: OJICUG_clean_linker_0, # of connection points: 2
#     Edge 172, Type (0, 0), BuildingBlock: OJICUG_clean_linker_0, # of connection points: 2
#     Edge 173, Type (0, 0), BuildingBlock: OJICUG_clean_linker_0, # of connection points: 2
#     Edge 174, Type (0, 0), BuildingBlock: OJICUG_clean_linker_0, # of connection points: 2
#     Edge 175, Type (0, 0), BuildingBlock: OJICUG_clean_linker_0, # of connection points: 2
#     Edge 176, Type (0, 0), BuildingBlock: OJICUG_clean_linker_0, # of connection points: 2
#     Edge 177, Type (0, 0), BuildingBlock: OJICUG_clean_linker_0, # of connection points: 2
#     Edge 178, Type (0, 0), BuildingBlock: OJICUG_clean_linker_0, # of connection points: 2
#     Edge 179, Type (0, 0), BuildingBlock: OJICUG_clean_linker_0, # of connection points: 2
#     Edge 180, Type (0, 0), BuildingBlock: OJICUG_clean_linker_0, # of connection points: 2
#     Edge 181, Type (0, 0), BuildingBlock: OJICUG_clean_linker_0, # of connection points: 2
#     Edge 182, Type (0, 0), BuildingBlock: OJICUG_clean_linker_0, # of connection points: 2
#     Edge 183, Type (0, 0), BuildingBlock: OJICUG_clean_linker_0, # of connection points: 2
#     Edge 184, Type (0, 0), BuildingBlock: OJICUG_clean_linker_0, # of connection points: 2
#     Edge 185, Type (0, 0), BuildingBlock: OJICUG_clean_linker_0, # of connection points: 2
#     Edge 186, Type (0, 0), BuildingBlock: OJICUG_clean_linker_0, # of connection points: 2
#     Edge 187, Type (0, 0), BuildingBlock: OJICUG_clean_linker_0, # of connection points: 2
#     Edge 188, Type (0, 0), BuildingBlock: OJICUG_clean_linker_0, # of connection points: 2
#     Edge 189, Type (0, 0), BuildingBlock: OJICUG_clean_linker_0, # of connection points: 2
#     Edge 190, Type (0, 0), BuildingBlock: OJICUG_clean_linker_0, # of connection points: 2
#     Edge 191, Type (0, 0), BuildingBlock: OJICUG_clean_linker_0, # of connection points: 2
#     Edge 192, Type (0, 0), BuildingBlock: OJICUG_clean_linker_0, # of connection points: 2
#     Edge 193, Type (0, 0), BuildingBlock: OJICUG_clean_linker_0, # of connection points: 2
#     Edge 194, Type (0, 0), BuildingBlock: OJICUG_clean_linker_0, # of connection points: 2
#     Edge 195, Type (0, 0), BuildingBlock: OJICUG_clean_linker_0, # of connection points: 2
#     Edge 196, Type (0, 0), BuildingBlock: OJICUG_clean_linker_0, # of connection points: 2
#     Edge 197, Type (0, 0), BuildingBlock: OJICUG_clean_linker_0, # of connection points: 2
#     Edge 198, Type (0, 0), BuildingBlock: OJICUG_clean_linker_0, # of connection points: 2
#     Edge 199, Type (0, 0), BuildingBlock: OJICUG_clean_linker_0, # of connection points: 2
#     Edge 200, Type (0, 0), BuildingBlock: OJICUG_clean_linker_0, # of connection points: 2
#     Edge 201, Type (0, 0), BuildingBlock: OJICUG_clean_linker_0, # of connection points: 2
#     Edge 202, Type (0, 0), BuildingBlock: OJICUG_clean_linker_0, # of connection points: 2
#     Edge 203, Type (0, 0), BuildingBlock: OJICUG_clean_linker_0, # of connection points: 2
#     Edge 204, Type (0, 0), BuildingBlock: OJICUG_clean_linker_0, # of connection points: 2
#     Edge 205, Type (0, 0), BuildingBlock: OJICUG_clean_linker_0, # of connection points: 2
#     Edge 206, Type (0, 0), BuildingBlock: OJICUG_clean_linker_0, # of connection points: 2
#     Edge 207, Type (0, 0), BuildingBlock: OJICUG_clean_linker_0, # of connection points: 2
#     Edge 208, Type (0, 0), BuildingBlock: OJICUG_clean_linker_0, # of connection points: 2
#     Edge 209, Type (0, 0), BuildingBlock: OJICUG_clean_linker_0, # of connection points: 2
#     Edge 210, Type (0, 0), BuildingBlock: OJICUG_clean_linker_0, # of connection points: 2
#     Edge 211, Type (0, 0), BuildingBlock: OJICUG_clean_linker_0, # of connection points: 2
#     Edge 212, Type (0, 0), BuildingBlock: OJICUG_clean_linker_0, # of connection points: 2
#     Edge 213, Type (0, 0), BuildingBlock: OJICUG_clean_linker_0, # of connection points: 2
#     Edge 214, Type (0, 0), BuildingBlock: OJICUG_clean_linker_0, # of connection points: 2
#     Edge 215, Type (0, 0), BuildingBlock: OJICUG_clean_linker_0, # of connection points: 2
#     Edge 216, Type (0, 0), BuildingBlock: OJICUG_clean_linker_0, # of connection points: 2
#     Edge 217, Type (0, 0), BuildingBlock: OJICUG_clean_linker_0, # of connection points: 2
#     Edge 218, Type (0, 0), BuildingBlock: OJICUG_clean_linker_0, # of connection points: 2
#     Edge 219, Type (0, 0), BuildingBlock: OJICUG_clean_linker_0, # of connection points: 2
#     Edge 220, Type (0, 0), BuildingBlock: OJICUG_clean_linker_0, # of connection points: 2
#     Edge 221, Type (0, 0), BuildingBlock: OJICUG_clean_linker_0, # of connection points: 2
#     Edge 222, Type (0, 0), BuildingBlock: OJICUG_clean_linker_0, # of connection points: 2
#     Edge 223, Type (0, 0), BuildingBlock: OJICUG_clean_linker_0, # of connection points: 2
#     Edge 224, Type (0, 0), BuildingBlock: OJICUG_clean_linker_0, # of connection points: 2
#     Edge 225, Type (0, 0), BuildingBlock: OJICUG_clean_linker_0, # of connection points: 2
#     Edge 226, Type (0, 0), BuildingBlock: OJICUG_clean_linker_0, # of connection points: 2
#     Edge 227, Type (0, 0), BuildingBlock: OJICUG_clean_linker_0, # of connection points: 2
#     Edge 228, Type (0, 0), BuildingBlock: OJICUG_clean_linker_0, # of connection points: 2
#     Edge 229, Type (0, 0), BuildingBlock: OJICUG_clean_linker_0, # of connection points: 2
#     Edge 230, Type (0, 0), BuildingBlock: OJICUG_clean_linker_0, # of connection points: 2
#     Edge 231, Type (0, 0), BuildingBlock: OJICUG_clean_linker_0, # of connection points: 2
#     Edge 232, Type (0, 0), BuildingBlock: OJICUG_clean_linker_0, # of connection points: 2
#     Edge 233, Type (0, 0), BuildingBlock: OJICUG_clean_linker_0, # of connection points: 2
#     Edge 234, Type (0, 0), BuildingBlock: OJICUG_clean_linker_0, # of connection points: 2
#     Edge 235, Type (0, 0), BuildingBlock: OJICUG_clean_linker_0, # of connection points: 2
#     Edge 236, Type (0, 0), BuildingBlock: OJICUG_clean_linker_0, # of connection points: 2
#     Edge 237, Type (0, 0), BuildingBlock: OJICUG_clean_linker_0, # of connection points: 2
#     Edge 238, Type (0, 0), BuildingBlock: OJICUG_clean_linker_0, # of connection points: 2
#     Edge 239, Type (0, 0), BuildingBlock: OJICUG_clean_linker_0, # of connection points: 2
#     Edge 240, Type (0, 0), BuildingBlock: OJICUG_clean_linker_0, # of connection points: 2
#     Edge 241, Type (0, 0), BuildingBlock: OJICUG_clean_linker_0, # of connection points: 2
#     Edge 242, Type (0, 0), BuildingBlock: OJICUG_clean_linker_0, # of connection points: 2
#     Edge 243, Type (0, 0), BuildingBlock: OJICUG_clean_linker_0, # of connection points: 2
#     Edge 244, Type (0, 0), BuildingBlock: OJICUG_clean_linker_0, # of connection points: 2
#     Edge 245, Type (0, 0), BuildingBlock: OJICUG_clean_linker_0, # of connection points: 2
#     Edge 246, Type (0, 0), BuildingBlock: OJICUG_clean_linker_0, # of connection points: 2
#     Edge 247, Type (0, 0), BuildingBlock: OJICUG_clean_linker_0, # of connection points: 2
#     Edge 248, Type (0, 0), BuildingBlock: OJICUG_clean_linker_0, # of connection points: 2
#     Edge 249, Type (0, 0), BuildingBlock: OJICUG_clean_linker_0, # of connection points: 2
#     Edge 250, Type (0, 0), BuildingBlock: OJICUG_clean_linker_0, # of connection points: 2
#     Edge 251, Type (0, 0), BuildingBlock: OJICUG_clean_linker_0, # of connection points: 2
#     Edge 252, Type (0, 0), BuildingBlock: OJICUG_clean_linker_0, # of connection points: 2
#     Edge 253, Type (0, 0), BuildingBlock: OJICUG_clean_linker_0, # of connection points: 2
#     Edge 254, Type (0, 0), BuildingBlock: OJICUG_clean_linker_0, # of connection points: 2
#     Edge 255, Type (0, 0), BuildingBlock: OJICUG_clean_linker_0, # of connection points: 2
#     Edge 256, Type (0, 0), BuildingBlock: OJICUG_clean_linker_0, # of connection points: 2
#     Edge 257, Type (0, 0), BuildingBlock: OJICUG_clean_linker_0, # of connection points: 2
#     Edge 258, Type (0, 0), BuildingBlock: OJICUG_clean_linker_0, # of connection points: 2
#     Edge 259, Type (0, 0), BuildingBlock: OJICUG_clean_linker_0, # of connection points: 2
#     Edge 260, Type (0, 0), BuildingBlock: OJICUG_clean_linker_0, # of connection points: 2
#     Edge 261, Type (0, 0), BuildingBlock: OJICUG_clean_linker_0, # of connection points: 2
#     Edge 262, Type (0, 0), BuildingBlock: OJICUG_clean_linker_0, # of connection points: 2
#     Edge 263, Type (0, 0), BuildingBlock: OJICUG_clean_linker_0, # of connection points: 2
#     Edge 264, Type (0, 0), BuildingBlock: OJICUG_clean_linker_0, # of connection points: 2
#     Edge 265, Type (0, 0), BuildingBlock: OJICUG_clean_linker_0, # of connection points: 2
#     Edge 266, Type (0, 0), BuildingBlock: OJICUG_clean_linker_0, # of connection points: 2
#     Edge 267, Type (0, 0), BuildingBlock: OJICUG_clean_linker_0, # of connection points: 2
#     Edge 268, Type (0, 0), BuildingBlock: OJICUG_clean_linker_0, # of connection points: 2
#     Edge 269, Type (0, 0), BuildingBlock: OJICUG_clean_linker_0, # of connection points: 2
#     Edge 270, Type (0, 0), BuildingBlock: OJICUG_clean_linker_0, # of connection points: 2
#     Edge 271, Type (0, 0), BuildingBlock: OJICUG_clean_linker_0, # of connection points: 2
#     Edge 272, Type (0, 0), BuildingBlock: OJICUG_clean_linker_0, # of connection points: 2
#     Edge 273, Type (0, 0), BuildingBlock: OJICUG_clean_linker_0, # of connection points: 2
#     Edge 274, Type (0, 0), BuildingBlock: OJICUG_clean_linker_0, # of connection points: 2
#     Edge 275, Type (0, 0), BuildingBlock: OJICUG_clean_linker_0, # of connection points: 2
#     Edge 276, Type (0, 0), BuildingBlock: OJICUG_clean_linker_0, # of connection points: 2
#     Edge 277, Type (0, 0), BuildingBlock: OJICUG_clean_linker_0, # of connection points: 2
#     Edge 278, Type (0, 0), BuildingBlock: OJICUG_clean_linker_0, # of connection points: 2
#     Edge 279, Type (0, 0), BuildingBlock: OJICUG_clean_linker_0, # of connection points: 2
#     Edge 280, Type (0, 0), BuildingBlock: OJICUG_clean_linker_0, # of connection points: 2
#     Edge 281, Type (0, 0), BuildingBlock: OJICUG_clean_linker_0, # of connection points: 2
#     Edge 282, Type (0, 0), BuildingBlock: OJICUG_clean_linker_0, # of connection points: 2
#     Edge 283, Type (0, 0), BuildingBlock: OJICUG_clean_linker_0, # of connection points: 2
#     Edge 284, Type (0, 0), BuildingBlock: OJICUG_clean_linker_0, # of connection points: 2
#     Edge 285, Type (0, 0), BuildingBlock: OJICUG_clean_linker_0, # of connection points: 2
#     Edge 286, Type (0, 0), BuildingBlock: OJICUG_clean_linker_0, # of connection points: 2
#     Edge 287, Type (0, 0), BuildingBlock: OJICUG_clean_linker_0, # of connection points: 2
# Relax obj value: 0.041
# Max RMSD: 0.060
# Mean RMSD: 0.060
data_MOF--net-ula--node1-NAWXER_clean_sbu_0--edge1-OJICUG_clean_linker_0
_symmetry_space_group_name_H-M    P1
_symmetry_Int_Tables_number       1
_symmetry_cell_setting            triclinic
loop_
_symmetry_equiv_pos_as_xyz
'x, y, z'
_cell_length_a     49.639426
_cell_length_b     49.641086
_cell_length_c     49.640306
_cell_angle_alpha  90.000993
_cell_angle_beta   89.998
_cell_angle_gamma 90.000019
loop_
_atom_site_label
_atom_site_type_symbol
_atom_site_fract_x
_atom_site_fract_y
_atom_site_fract_z
_atom_type_partial_charge
C0 C 1.00192 0.02929 0.38515 0.0
C1 C 0.08934 0.07124 0.35839 0.0
O2 O 0.02484 0.02005 0.39247 0.0
Zn3 Zn 0.04655 0.04827 0.37467 0.0
O4 O 1.00067 0.05094 0.37128 0.0
Zn5 Zn 0.02575 0.08079 0.35351 0.0
O6 O 1.01547 0.07476 0.31592 0.0
O7 O 0.03585 0.03973 0.33448 0.0
O8 O 0.06828 0.08369 0.35029 0.0
O9 O 0.08646 0.05053 0.37331 0.0
O10 O 0.03441 0.08026 0.39954 0.0
O11 O 1.01498 0.11224 0.37555 0.0
C12 C 0.02391 0.05051 0.31439 0.0
C13 C 0.0222 0.10286 0.39835 0.0
C14 C 0.23384 0.77412 0.56422 0.0
C15 C 0.18154 0.77245 0.64821 0.0
O16 O 0.20959 0.76568 0.56577 0.0
Zn17 Zn 0.20358 0.77598 0.60336 0.0
O18 O 0.24463 0.78608 0.5843 0.0
Zn19 Zn 0.23611 0.7968 0.62448 0.0
O20 O 0.26436 0.77513 0.64227 0.0
O21 O 0.23347 0.75093 0.62111 0.0
O22 O 0.20414 0.78467 0.64938 0.0
O23 O 0.17215 0.76521 0.62542 0.0
O24 O 0.20066 0.81851 0.60012 0.0
O25 O 0.23384 0.83671 0.6231 0.0
C26 C 0.25513 0.7522 0.63497 0.0
C27 C 0.21311 0.83958 0.6082 0.0
C28 C 0.51049 0.98392 0.81433 0.0
C29 C 0.51222 0.93152 0.89827 0.0
O30 O 0.51893 0.95967 0.81584 0.0
Zn31 Zn 0.50867 0.95362 0.85344 0.0
O32 O 0.49855 0.99468 0.83444 0.0
Zn33 Zn 0.48787 0.98613 0.87462 0.0
O34 O 0.50957 1.01434 0.89243 0.0
O35 O 0.53374 0.98347 0.87121 0.0
O36 O 0.50001 0.95412 0.89947 0.0
O37 O 0.51944 0.92216 0.87546 0.0
O38 O 0.46614 0.95072 0.85023 0.0
O39 O 0.44796 0.98387 0.87327 0.0
C40 C 0.53249 1.00511 0.8851 0.0
C41 C 0.44507 0.96317 0.85833 0.0
C42 C 0.35332 0.26211 0.14803 0.0
C43 C 0.30103 0.26048 0.06403 0.0
O44 O 0.36272 0.26934 0.12524 0.0
Zn45 Zn 0.33128 0.25861 0.10317 0.0
O46 O 0.3307 0.24992 0.14919 0.0
Zn47 Zn 0.29872 0.23782 0.1243 0.0
O48 O 0.30096 0.19791 0.12292 0.0
O49 O 0.33416 0.21608 0.09994 0.0
O50 O 0.29023 0.24854 0.08411 0.0
O51 O 0.32529 0.2689 0.06557 0.0
O52 O 0.30142 0.2837 0.12092 0.0
O53 O 0.27051 0.25953 0.14208 0.0
C54 C 0.32168 0.19502 0.10802 0.0
C55 C 0.27976 0.28246 0.13477 0.0
C56 C 0.0894 0.96302 0.17609 0.0
C57 C 1.00195 1.00495 0.14942 0.0
O58 O 0.08651 0.98375 0.1612 0.0
Zn59 Zn 0.0466 0.98598 0.15984 0.0
O60 O 0.06835 0.95053 0.18416 0.0
Zn61 Zn 0.02582 0.9534 0.18095 0.0
O62 O 1.01509 0.92198 0.15886 0.0
O63 O 0.03451 0.95401 0.13492 0.0
O64 O 1.00072 0.98327 0.16324 0.0
O65 O 0.02487 1.01421 0.1421 0.0
O66 O 0.03589 0.99443 0.20004 0.0
O67 O 1.01554 0.95936 0.21856 0.0
C68 C 0.02232 0.9314 0.13608 0.0
C69 C 0.02395 0.98362 0.22012 0.0
C70 C 0.30075 0.77394 0.46996 0.0
C71 C 0.35305 0.77223 0.38596 0.0
O72 O 0.32501 0.76552 0.46842 0.0
Zn73 Zn 0.331 0.77576 0.43081 0.0
O74 O 0.28995 0.78585 0.44986 0.0
Zn75 Zn 0.29843 0.79651 0.40965 0.0
O76 O 0.27023 0.77475 0.39191 0.0
O77 O 0.30116 0.75064 0.4131 0.0
O78 O 0.33043 0.78441 0.38477 0.0
O79 O 0.36245 0.76502 0.40875 0.0
O80 O 0.33385 0.81829 0.43399 0.0
O81 O 0.30065 0.83643 0.41098 0.0
C82 C 0.27949 0.75185 0.39924 0.0
C83 C 0.32136 0.83934 0.42589 0.0
C84 C 0.51038 0.05088 0.72011 0.0
C85 C 0.51201 0.10319 0.63613 0.0
O86 O 0.51879 0.07514 0.71857 0.0
Zn87 Zn 0.50851 0.08114 0.68098 0.0
O88 O 0.49844 0.04009 0.70002 0.0
Zn89 Zn 0.48773 0.04859 0.65983 0.0
O90 O 0.50945 0.02037 0.64205 0.0
O91 O 0.5336 0.05129 0.66323 0.0
O92 O 0.49982 0.08058 0.63495 0.0
O93 O 0.51924 0.11259 0.65892 0.0
O94 O 0.46598 0.08401 0.68419 0.0
O95 O 0.44782 0.05082 0.6612 0.0
C96 C 0.53237 0.02963 0.64937 0.0
C97 C 0.44492 0.07154 0.67611 0.0
C98 C 0.21332 0.19516 0.92582 0.0
C99 C 0.25521 0.2826 0.89905 0.0
O100 O 0.23401 0.19805 0.91087 0.0
Zn101 Zn 0.23626 0.23796 0.90952 0.0
O102 O 0.20086 0.21622 0.93392 0.0
Zn103 Zn 0.20374 0.25874 0.93072 0.0
O104 O 0.17226 0.26949 0.90871 0.0
O105 O 0.20422 0.25007 0.88468 0.0
O106 O 0.23357 0.28383 0.91294 0.0
O107 O 0.26445 0.25968 0.89171 0.0
O108 O 0.24482 0.24864 0.9497 0.0
O109 O 0.2098 0.26901 0.96831 0.0
C110 C 0.18162 0.26227 0.8859 0.0
C111 C 0.23406 0.26057 0.96981 0.0
C112 C 0.35867 0.08937 0.07109 0.0
C113 C 0.38534 1.00189 0.0292 0.0
O114 O 0.37359 0.08646 0.05038 0.0
Zn115 Zn 0.37492 0.04655 0.04815 0.0
O116 O 0.35056 0.06832 0.08356 0.0
Zn117 Zn 0.35374 0.02579 0.0807 0.0
O118 O 0.37578 1.01503 0.11216 0.0
O119 O 0.39978 0.03443 0.08016 0.0
O120 O 0.37147 1.00067 0.05086 0.0
O121 O 0.39268 0.0248 0.01995 0.0
O122 O 0.33472 0.03588 0.03964 0.0
O123 O 0.31613 1.01555 0.07469 0.0
C124 C 0.39858 0.02224 0.10277 0.0
C125 C 0.31461 0.02397 0.05043 0.0
C126 C 0.26207 0.14821 0.35298 0.0
C127 C 0.26041 0.06423 0.30066 0.0
O128 O 0.26931 0.12542 0.36237 0.0
Zn129 Zn 0.25855 0.10336 0.33093 0.0
O130 O 0.24987 0.14939 0.33037 0.0
Zn131 Zn 0.23776 0.1245 0.29838 0.0
O132 O 0.19784 0.12314 0.30064 0.0
O133 O 0.21603 0.10014 0.33382 0.0
O134 O 0.24846 0.08432 0.28987 0.0
O135 O 0.26883 0.06576 0.32491 0.0
O136 O 0.28363 0.12111 0.30106 0.0
O137 O 0.25947 0.14229 0.27016 0.0
C138 C 0.19496 0.10822 0.32136 0.0
C139 C 0.28239 0.13497 0.2794 0.0
C140 C 0.22005 1.01059 0.5504 0.0
C141 C 0.13614 1.01232 0.60284 0.0
O142 O 0.21854 0.01904 0.57465 0.0
Zn143 Zn 0.18095 1.00877 0.58072 0.0
O144 O 0.19994 0.99865 0.53965 0.0
Zn145 Zn 0.15976 0.98797 0.54822 0.0
O146 O 0.14193 1.00967 0.52002 0.0
O147 O 0.16316 0.03384 0.55088 0.0
O148 O 0.13493 1.00011 0.58025 0.0
O149 O 0.15895 0.01955 0.61219 0.0
O150 O 0.18416 0.96625 0.58363 0.0
O151 O 0.16111 0.94806 0.55049 0.0
C152 C 0.14926 0.03259 0.52925 0.0
C153 C 0.17605 0.94518 0.57119 0.0
C154 C 0.33946 0.92622 0.82126 0.0
C155 C 0.25205 0.8995 0.77926 0.0
O156 O 0.33658 0.91132 0.80052 0.0
Zn157 Zn 0.29667 0.90995 0.79826 0.0
O158 O 0.31839 0.93429 0.83372 0.0
Zn159 Zn 0.27586 0.93107 0.83082 0.0
O160 O 0.2651 0.90899 0.86224 0.0
O161 O 0.28455 0.88505 0.83023 0.0
O162 O 0.2508 0.91334 0.80093 0.0
O163 O 0.27498 0.89219 0.77002 0.0
O164 O 0.28596 0.95015 0.78978 0.0
O165 O 0.26557 0.96867 0.82483 0.0
C166 C 0.27234 0.88621 0.85283 0.0
C167 C 0.274 0.97022 0.80057 0.0
C168 C 0.31429 1.01046 0.48346 0.0
C169 C 0.39833 1.01208 0.43124 0.0
O170 O 0.31585 0.01886 0.4592 0.0
Zn171 Zn 0.35345 1.00858 0.45324 0.0
O172 O 0.33436 0.99852 0.49427 0.0
Zn173 Zn 0.37456 0.9878 0.48582 0.0
O174 O 0.3923 1.00953 0.51405 0.0
O175 O 0.37117 0.03367 0.48311 0.0
O176 O 0.39948 0.99989 0.45385 0.0
O177 O 0.37555 0.0193 0.42181 0.0
O178 O 0.35023 0.96605 0.45037 0.0
O179 O 0.37319 0.94789 0.48359 0.0
C180 C 0.38499 0.03244 0.50479 0.0
C181 C 0.3583 0.94499 0.46286 0.0
C182 C 0.27217 0.1485 0.6814 0.0
C183 C 0.27387 0.0645 0.7337 0.0
O184 O 0.26495 0.1257 0.672 0.0
Zn185 Zn 0.27569 0.10365 0.70345 0.0
O186 O 0.28436 0.14968 0.70401 0.0
Zn187 Zn 0.29647 0.1248 0.736 0.0
O188 O 0.33638 0.12345 0.73377 0.0
O189 O 0.31823 0.10045 0.70058 0.0
O190 O 0.28579 0.0846 0.74449 0.0
O191 O 0.26544 0.06604 0.70944 0.0
O192 O 0.25059 0.12137 0.7333 0.0
O193 O 0.27474 0.14256 0.76422 0.0
C194 C 0.33928 0.10854 0.71305 0.0
C195 C 0.25182 0.13522 0.75497 0.0
C196 C 0.22033 0.02408 0.98354 0.0
C197 C 0.13632 0.02245 0.93128 0.0
O198 O 0.21878 1.01566 0.95929 0.0
Zn199 Zn 0.18118 0.02595 0.9533 0.0
O200 O 0.20026 0.03604 0.99434 0.0
Zn201 Zn 0.16007 0.04676 0.98586 0.0
O202 O 0.14229 0.02507 1.01409 0.0
O203 O 0.16343 1.00089 0.98318 0.0
O204 O 0.13516 0.03466 0.95388 0.0
O205 O 0.1591 1.01521 0.92187 0.0
O206 O 0.18442 0.06848 0.9504 0.0
O207 O 0.16145 0.08667 0.9836 0.0
C208 C 0.14959 1.00214 1.00484 0.0
C209 C 0.17635 0.08955 0.96287 0.0
C210 C 0.26216 0.88605 0.18132 0.0
C211 C 0.26046 0.97 0.2337 0.0
O212 O 0.26938 0.90885 0.17195 0.0
Zn213 Zn 0.25863 0.93088 0.20341 0.0
O214 O 0.24996 0.88485 0.20393 0.0
Zn215 Zn 0.23785 0.90971 0.23595 0.0
O216 O 0.19794 0.91106 0.23371 0.0
O217 O 0.2161 0.93409 0.20054 0.0
O218 O 0.24853 0.9499 0.24448 0.0
O219 O 0.26889 0.96848 0.20945 0.0
O220 O 0.28372 0.91313 0.23325 0.0
O221 O 0.25957 0.89192 0.26415 0.0
C222 C 0.19504 0.92599 0.21301 0.0
C223 C 0.28249 0.89926 0.25491 0.0
C224 C 0.07124 0.35846 0.08924 0.0
C225 C 0.0293 0.3852 1.00181 0.0
O226 O 0.05053 0.37339 0.08636 0.0
Zn227 Zn 0.04827 0.37473 0.04644 0.0
O228 O 0.08369 0.35035 0.06817 0.0
Zn229 Zn 0.08079 0.35355 0.02565 0.0
O230 O 0.11225 0.37558 1.01487 0.0
O231 O 0.08028 0.39958 0.03431 0.0
O232 O 0.05094 0.37132 1.00057 0.0
O233 O 0.02006 0.39253 0.02473 0.0
O234 O 0.03973 0.33454 0.03577 0.0
O235 O 0.07475 0.31595 1.01539 0.0
C236 C 0.10288 0.39838 0.0221 0.0
C237 C 0.05049 0.31444 0.02384 0.0
C238 C 0.57114 0.176 0.94507 0.0
C239 C 0.52923 0.14924 0.03251 0.0
O240 O 0.55044 0.16106 0.94796 0.0
Zn241 Zn 0.54818 0.15972 0.98787 0.0
O242 O 0.58359 0.18412 0.96614 0.0
Zn243 Zn 0.58069 0.18092 1.00866 0.0
O244 O 0.61217 0.15892 0.01943 0.0
O245 O 0.58021 0.13489 1.0 0.0
O246 O 0.55086 0.16314 0.03374 0.0
O247 O 0.52 0.14189 1.0096 0.0
O248 O 0.53961 0.1999 0.99855 0.0
O249 O 0.57462 0.21851 0.01892 0.0
C250 C 0.60281 0.13611 1.01221 0.0
C251 C 0.55036 0.22001 1.01048 0.0
C252 C 0.13501 0.27953 0.28228 0.0
C253 C 0.10826 0.32146 0.19485 0.0
O254 O 0.1423 0.27027 0.25936 0.0
Zn255 Zn 0.12454 0.2985 0.23765 0.0
O256 O 0.12118 0.3012 0.28353 0.0
Zn257 Zn 0.10344 0.33107 0.25844 0.0
O258 O 0.06584 0.3251 0.26875 0.0
O259 O 0.08435 0.29004 0.24839 0.0
O260 O 0.1002 0.33395 0.21592 0.0
O261 O 0.12315 0.30073 0.19774 0.0
O262 O 0.14947 0.33047 0.24973 0.0
O263 O 0.12554 0.3625 0.26917 0.0
C264 C 0.06428 0.30085 0.26034 0.0
C265 C 0.14832 0.35308 0.26193 0.0
C266 C 0.96336 0.85849 0.44511 0.0
C267 C 1.00527 0.88527 0.53255 0.0
O268 O 0.98406 0.87343 0.448 0.0
Zn269 Zn 0.98631 0.87479 0.48791 0.0
O270 O 0.95091 0.85039 0.46618 0.0
Zn271 Zn 0.95379 0.85361 0.5087 0.0
O272 O 0.92232 0.87562 0.51946 0.0
O273 O 0.95429 0.89964 0.50003 0.0
O274 O 0.98363 0.87139 0.53378 0.0
O275 O 1.01451 0.8926 0.50963 0.0
O276 O 0.99486 0.8346 0.4986 0.0
O277 O 0.95984 0.81601 0.51897 0.0
C278 C 0.93168 0.89843 0.51223 0.0
C279 C 0.98409 0.8145 0.51053 0.0
C280 C 0.88607 0.18156 0.26231 0.0
C281 C 0.97001 0.23395 0.26051 0.0
O282 O 0.90888 0.1722 0.26952 0.0
Zn283 Zn 0.93089 0.20366 0.25873 0.0
O284 O 0.88486 0.20416 0.2501 0.0
Zn285 Zn 0.9097 0.23617 0.23794 0.0
O286 O 0.91102 0.23391 0.19803 0.0
O287 O 0.93407 0.20076 0.2162 0.0
O288 O 0.9499 0.24472 0.24859 0.0
O289 O 0.9685 0.2097 0.26895 0.0
O290 O 0.91315 0.23351 0.28381 0.0
O291 O 0.89192 0.26438 0.25967 0.0
C292 C 0.92595 0.21321 0.19514 0.0
C293 C 0.89927 0.25516 0.28258 0.0
C294 C 0.46333 0.67605 0.58932 0.0
C295 C 0.50527 0.64924 0.50191 0.0
O296 O 0.48403 0.66111 0.58644 0.0
Zn297 Zn 0.48629 0.65974 0.54653 0.0
O298 O 0.45087 0.68415 0.56825 0.0
Zn299 Zn 0.45378 0.68092 0.52572 0.0
O300 O 0.42231 0.65891 0.51496 0.0
O301 O 0.45427 0.6349 0.53441 0.0
O302 O 0.48363 0.66313 0.50065 0.0
O303 O 0.51449 0.64192 0.52484 0.0
O304 O 0.49485 0.69993 0.53583 0.0
O305 O 0.45983 0.71851 0.51545 0.0
C306 C 0.43167 0.6361 0.52219 0.0
C307 C 0.48408 0.72002 0.52389 0.0
C308 C 0.1486 0.6815 0.27219 0.0
C309 C 0.06458 0.73378 0.27388 0.0
O310 O 0.1258 0.6721 0.26498 0.0
Zn311 Zn 0.10373 0.70354 0.27571 0.0
O312 O 0.14977 0.70412 0.28437 0.0
Zn313 Zn 0.12488 0.73611 0.29647 0.0
O314 O 0.12353 0.73389 0.33638 0.0
O315 O 0.10053 0.70069 0.31824 0.0
O316 O 0.08467 0.74458 0.28579 0.0
O317 O 0.06612 0.70952 0.26546 0.0
O318 O 0.12144 0.73339 0.2506 0.0
O319 O 0.14262 0.76433 0.27472 0.0
C320 C 0.10862 0.71318 0.33929 0.0
C321 C 0.13528 0.75506 0.25181 0.0
C322 C 0.39924 0.27943 0.75182 0.0
C323 C 0.42595 0.32134 0.83928 0.0
O324 O 0.39189 0.27019 0.77474 0.0
Zn325 Zn 0.40969 0.29839 0.79646 0.0
O326 O 0.41313 0.30107 0.75059 0.0
Zn327 Zn 0.4309 0.3309 0.77569 0.0
O328 O 0.4685 0.32483 0.76545 0.0
O329 O 0.44988 0.28982 0.7858 0.0
O330 O 0.43408 0.33379 0.81822 0.0
O331 O 0.41102 0.30064 0.83638 0.0
O332 O 0.38487 0.33041 0.78432 0.0
O333 O 0.4089 0.36237 0.76491 0.0
C334 C 0.47 0.30058 0.77388 0.0
C335 C 0.38609 0.35302 0.77212 0.0
C336 C 1.01229 0.93169 0.63617 0.0
C337 C 1.01061 0.98407 0.72012 0.0
O338 O 1.00008 0.95429 0.63498 0.0
Zn339 Zn 0.98795 0.98629 0.65984 0.0
O340 O 0.01953 0.92232 0.65897 0.0
Zn341 Zn 1.00877 0.95377 0.681 0.0
O342 O 0.96624 0.95086 0.68424 0.0
O343 O 0.94804 0.98402 0.66122 0.0
O344 O 0.01905 0.95982 0.71859 0.0
O345 O 0.99866 0.99484 0.70002 0.0
O346 O 1.00963 1.01451 0.64203 0.0
O347 O 0.03382 0.98363 0.66322 0.0
C348 C 0.94517 0.96331 0.67615 0.0
C349 C 0.03256 1.00528 0.64934 0.0
C350 C 0.80062 0.26048 0.47022 0.0
C351 C 0.85294 0.26218 0.38624 0.0
O352 O 0.78984 0.24853 0.45013 0.0
Zn353 Zn 0.79836 0.23783 0.40994 0.0
O354 O 0.82487 0.26891 0.46868 0.0
Zn355 Zn 0.83089 0.25863 0.43109 0.0
O356 O 0.80102 0.2837 0.41334 0.0
O357 O 0.77013 0.25952 0.39216 0.0
O358 O 0.86233 0.26941 0.40903 0.0
O359 O 0.83034 0.24996 0.38506 0.0
O360 O 0.80063 0.19792 0.4113 0.0
O361 O 0.8338 0.2161 0.43431 0.0
C362 C 0.77936 0.28245 0.39948 0.0
C363 C 0.82135 0.19504 0.42622 0.0
C364 C 0.58956 0.07124 0.17612 0.0
C365 C 0.50217 0.02926 0.1493 0.0
O366 O 0.56848 0.08368 0.18421 0.0
Zn367 Zn 0.52595 0.08075 0.18098 0.0
O368 O 0.58669 0.05054 0.16118 0.0
Zn369 Zn 0.54678 0.04825 0.15981 0.0
O370 O 0.53463 0.08025 0.13495 0.0
O371 O 0.51516 0.1122 0.15895 0.0
O372 O 0.5251 0.02004 0.14198 0.0
O373 O 0.5009 0.05089 0.16319 0.0
O374 O 0.51567 0.0747 0.21856 0.0
O375 O 0.53607 0.03969 0.19999 0.0
C376 C 0.52239 0.10284 0.13615 0.0
C377 C 0.52412 0.05045 0.22008 0.0
C378 C 0.75508 0.75203 0.89957 0.0
C379 C 0.71311 0.83946 0.92626 0.0
O380 O 0.73341 0.75079 0.91341 0.0
Zn381 Zn 0.70353 0.77587 0.93113 0.0
O382 O 0.76432 0.77495 0.89225 0.0
Zn383 Zn 0.73609 0.79666 0.91001 0.0
O384 O 0.74457 0.78596 0.9502 0.0
O385 O 0.70952 0.7656 0.96874 0.0
O386 O 0.73384 0.83657 0.91136 0.0
O387 O 0.70064 0.8184 0.93434 0.0
O388 O 0.6721 0.76512 0.90906 0.0
O389 O 0.70412 0.78454 0.8851 0.0
C390 C 0.73377 0.77403 0.97029 0.0
C391 C 0.68151 0.77234 0.88627 0.0
C392 C 0.94513 0.07155 0.85843 0.0
C393 C 0.03261 0.02965 0.88507 0.0
O394 O 0.96618 0.08404 0.85035 0.0
Zn395 Zn 1.00871 0.08119 0.85355 0.0
O396 O 0.94804 0.05081 0.87332 0.0
Zn397 Zn 0.98796 0.0486 0.87466 0.0
O398 O 1.00004 0.08058 0.89958 0.0
O399 O 0.01943 0.11262 0.87564 0.0
O400 O 1.00971 0.02038 0.8924 0.0
O401 O 0.03383 0.05133 0.87125 0.0
O402 O 0.01898 0.07523 0.81593 0.0
O403 O 0.99865 0.04015 0.83446 0.0
C404 C 1.01221 0.1032 0.89842 0.0
C405 C 1.01057 0.05097 0.81438 0.0
C406 C 0.71303 0.19512 0.60847 0.0
C407 C 0.7549 0.28258 0.63521 0.0
O408 O 0.70055 0.21618 0.60037 0.0
Zn409 Zn 0.70341 0.2587 0.60359 0.0
O410 O 0.73374 0.19802 0.62339 0.0
Zn411 Zn 0.73596 0.23793 0.62475 0.0
O412 O 0.70395 0.25002 0.64961 0.0
O413 O 0.67195 0.26943 0.62564 0.0
O414 O 0.76416 0.25967 0.64253 0.0
O415 O 0.73324 0.28381 0.62134 0.0
O416 O 0.70942 0.26897 0.56599 0.0
O417 O 0.74447 0.24863 0.58456 0.0
C418 C 0.68133 0.2622 0.64843 0.0
C419 C 0.73368 0.26056 0.56446 0.0
C420 C 0.52411 0.98355 0.31434 0.0
C421 C 0.52241 0.93131 0.39837 0.0
O422 O 0.53603 0.99436 0.33443 0.0
Zn423 Zn 0.5467 0.9859 0.37464 0.0
O424 O 0.5157 0.95929 0.31589 0.0
Zn425 Zn 0.52594 0.95332 0.35351 0.0
O426 O 0.50082 0.98319 0.3712 0.0
O427 O 0.52495 1.01413 0.39237 0.0
O428 O 0.5152 0.92189 0.37559 0.0
O429 O 0.53459 0.95392 0.39954 0.0
O430 O 0.58661 0.98368 0.37332 0.0
O431 O 0.56847 0.95046 0.35033 0.0
C432 C 0.50204 1.00486 0.38503 0.0
C433 C 0.58952 0.96295 0.35842 0.0
C434 C 0.85303 0.77237 0.14851 0.0
C435 C 0.80067 0.77401 0.06456 0.0
O436 O 0.83042 0.78456 0.14971 0.0
Zn437 Zn 0.7984 0.79665 0.12484 0.0
O438 O 0.86241 0.76514 0.12572 0.0
Zn439 Zn 0.83095 0.77587 0.10368 0.0
O440 O 0.83381 0.8184 0.10046 0.0
O441 O 0.80063 0.83656 0.12347 0.0
O442 O 0.82493 0.76559 0.06608 0.0
O443 O 0.78988 0.78595 0.08465 0.0
O444 O 0.7702 0.77493 0.14263 0.0
O445 O 0.80111 0.75078 0.12144 0.0
C446 C 0.82134 0.83945 0.10855 0.0
C447 C 0.77945 0.75201 0.13531 0.0
C448 C 0.63611 1.0122 0.93153 0.0
C449 C 0.72004 1.01053 0.98392 0.0
O450 O 0.63491 1.0 0.95414 0.0
Zn451 Zn 0.65976 0.98789 0.98615 0.0
O452 O 0.65891 0.01943 0.92216 0.0
Zn453 Zn 0.68093 1.00868 0.95362 0.0
O454 O 0.68416 0.96615 0.95074 0.0
O455 O 0.66113 0.94797 0.98391 0.0
O456 O 0.71853 0.01896 0.95966 0.0
O457 O 0.69995 0.99859 0.99469 0.0
O458 O 0.64196 1.00959 1.01435 0.0
O459 O 0.66315 0.03376 0.98347 0.0
C460 C 0.67606 0.94509 0.9632 0.0
C461 C 0.64928 0.03252 1.00511 0.0
C462 C 0.77413 0.97027 0.734 0.0
C463 C 0.77244 0.88631 0.68166 0.0
O464 O 0.78608 0.95019 0.74477 0.0
Zn465 Zn 0.7968 0.91001 0.73624 0.0
O466 O 0.76569 0.96874 0.70975 0.0
Zn467 Zn 0.77597 0.93115 0.70371 0.0
O468 O 0.75092 0.91338 0.73358 0.0
O469 O 0.77511 0.8922 0.76446 0.0
O470 O 0.7652 0.9091 0.67227 0.0
O471 O 0.78466 0.88513 0.70425 0.0
O472 O 0.83671 0.91138 0.73395 0.0
O473 O 0.8185 0.93438 0.70079 0.0
C474 C 0.75218 0.89952 0.75523 0.0
C475 C 0.83957 0.9263 0.71324 0.0
C476 C 0.85838 0.08942 0.46321 0.0
C477 C 0.88517 1.00201 0.50516 0.0
O478 O 0.85027 0.06835 0.45076 0.0
Zn479 Zn 0.85349 0.02583 0.45368 0.0
O480 O 0.87331 0.08654 0.48391 0.0
Zn481 Zn 0.87467 0.04663 0.48618 0.0
O482 O 0.89951 0.03449 0.45417 0.0
O483 O 0.8755 1.01504 0.42221 0.0
O484 O 0.89249 0.02494 0.51439 0.0
O485 O 0.87128 1.00076 0.48352 0.0
O486 O 0.8159 1.01555 0.45974 0.0
O487 O 0.83448 0.03594 0.49475 0.0
C488 C 0.8983 0.02227 0.43157 0.0
C489 C 0.81438 0.02399 0.48399 0.0
C490 C 0.7825 0.13501 0.25533 0.0
C491 C 0.69515 0.10822 0.21326 0.0
O492 O 0.78378 0.12112 0.23369 0.0
Zn493 Zn 0.75876 0.10333 0.20381 0.0
O494 O 0.75956 0.14233 0.26453 0.0
Zn495 Zn 0.73791 0.1245 0.2363 0.0
O496 O 0.74861 0.08432 0.24488 0.0
O497 O 0.76904 0.06574 0.20989 0.0
O498 O 0.698 0.12314 0.23397 0.0
O499 O 0.71623 0.10011 0.20084 0.0
O500 O 0.76958 0.12534 0.17237 0.0
O501 O 0.75009 0.14935 0.20431 0.0
C502 C 0.76057 0.06423 0.23413 0.0
C503 C 0.76234 0.14815 0.18173 0.0
C504 C 0.72011 0.02404 0.55089 0.0
C505 C 0.63605 0.0224 0.60309 0.0
O506 O 0.70004 0.03597 0.54007 0.0
Zn507 Zn 0.65983 0.04667 0.54851 0.0
O508 O 0.71855 1.01563 0.57515 0.0
Zn509 Zn 0.68094 0.0259 0.5811 0.0
O510 O 0.66324 1.0008 0.55122 0.0
O511 O 0.6421 0.02494 0.52028 0.0
O512 O 0.65883 1.01518 0.61252 0.0
O513 O 0.6349 0.03459 0.58047 0.0
O514 O 0.6612 0.08659 0.55073 0.0
O515 O 0.68415 0.06843 0.58396 0.0
C516 C 0.64942 1.00203 0.52954 0.0
C517 C 0.67608 0.08948 0.57147 0.0
C518 C 0.76226 0.88594 0.35328 0.0
C519 C 0.76063 0.96998 0.30106 0.0
O520 O 0.7501 0.88478 0.33065 0.0
Zn521 Zn 0.73803 0.90969 0.29867 0.0
O522 O 0.76947 0.90872 0.3627 0.0
Zn523 Zn 0.75877 0.93081 0.33127 0.0
O524 O 0.71624 0.93402 0.33409 0.0
O525 O 0.69811 0.91105 0.30086 0.0
O526 O 0.76903 0.96843 0.32532 0.0
O527 O 0.74872 0.9499 0.29023 0.0
O528 O 0.75979 0.89197 0.27045 0.0
O529 O 0.7839 0.91312 0.30141 0.0
C530 C 0.6952 0.92594 0.32158 0.0
C531 C 0.78269 0.8993 0.27973 0.0
C532 C 0.89828 1.01218 0.10315 0.0
C533 C 0.81428 1.01052 0.05085 0.0
O534 O 0.89945 0.99998 0.08054 0.0
Zn535 Zn 0.87456 0.98788 0.04855 0.0
O536 O 0.87549 0.01941 0.11255 0.0
Zn537 Zn 0.85342 1.00867 0.08111 0.0
O538 O 0.85021 0.96614 0.08399 0.0
O539 O 0.8732 0.94797 0.0508 0.0
O540 O 0.81582 0.01894 0.07511 0.0
O541 O 0.83437 0.99858 0.04006 0.0
O542 O 0.89233 1.00959 0.02033 0.0
O543 O 0.87117 0.03375 0.05125 0.0
C544 C 0.85829 0.94508 0.07152 0.0
C545 C 0.88502 0.03251 0.02958 0.0
C546 C 0.77405 0.06451 0.80094 0.0
C547 C 0.77237 0.14849 0.85327 0.0
O548 O 0.78597 0.08461 0.79014 0.0
Zn549 Zn 0.79664 0.12481 0.79864 0.0
O550 O 0.76563 0.06604 0.8252 0.0
Zn551 Zn 0.77589 0.10365 0.8312 0.0
O552 O 0.75077 0.12137 0.80135 0.0
O553 O 0.7749 0.14256 0.77043 0.0
O554 O 0.76516 0.1257 0.86266 0.0
O555 O 0.78454 0.14968 0.83064 0.0
O556 O 0.83656 0.12347 0.80085 0.0
O557 O 0.81842 0.10045 0.83404 0.0
C558 C 0.75199 0.13522 0.77969 0.0
C559 C 0.83947 0.10854 0.82156 0.0
C560 C 1.00539 0.64942 0.03265 0.0
C561 C 0.96342 0.67612 0.94522 0.0
O562 O 0.98373 0.66328 0.03389 0.0
Zn563 Zn 0.95387 0.68103 1.00881 0.0
O564 O 1.01463 0.64209 1.00973 0.0
Zn565 Zn 0.98641 0.65987 0.98801 0.0
O566 O 0.99493 0.70006 0.99869 0.0
O567 O 0.9599 0.71863 0.01906 0.0
O568 O 0.98414 0.66121 0.9481 0.0
O569 O 0.95097 0.68422 0.96629 0.0
O570 O 0.92243 0.65898 0.01959 0.0
O571 O 0.95442 0.635 1.00015 0.0
C572 C 0.98415 0.72016 1.01062 0.0
C573 C 0.93182 0.63618 1.01236 0.0
C574 C 0.46332 0.85836 0.08933 0.0
C575 C 0.50526 0.88508 1.00189 0.0
O576 O 0.45087 0.85024 0.06826 0.0
Zn577 Zn 0.45378 0.85342 0.02573 0.0
O578 O 0.48402 0.87329 0.08644 0.0
Zn579 Zn 0.48629 0.87462 0.04653 0.0
O580 O 0.45428 0.89945 0.03438 0.0
O581 O 0.42231 0.87544 1.01495 0.0
O582 O 0.51449 0.89242 0.0248 0.0
O583 O 0.48362 0.87119 1.00065 0.0
O584 O 0.45984 0.81582 1.0155 0.0
O585 O 0.49485 0.83443 0.03587 0.0
C586 C 0.43168 0.89824 0.02217 0.0
C587 C 0.48409 0.81432 0.02394 0.0
C588 C 0.88627 0.68148 0.77253 0.0
C589 C 0.97026 0.73377 0.77413 0.0
O590 O 0.8851 0.70408 0.78474 0.0
Zn591 Zn 0.91001 0.73606 0.79684 0.0
O592 O 0.90905 0.67208 0.76528 0.0
Zn593 Zn 0.93113 0.70351 0.77602 0.0
O594 O 0.93439 0.70062 0.81855 0.0
O595 O 0.91141 0.7338 0.83675 0.0
O596 O 0.96871 0.70951 0.7657 0.0
O597 O 0.95019 0.74456 0.78609 0.0
O598 O 0.89222 0.76429 0.77516 0.0
O599 O 0.91336 0.73339 0.75097 0.0
C600 C 0.92633 0.71309 0.83962 0.0
C601 C 0.89951 0.75505 0.75223 0.0
C602 C 0.07114 0.1761 0.58938 0.0
C603 C 0.02919 0.1493 0.50197 0.0
O604 O 0.08358 0.18421 0.56831 0.0
Zn605 Zn 0.08066 0.18099 0.52579 0.0
O606 O 0.05044 0.16116 0.58651 0.0
Zn607 Zn 0.04816 0.1598 0.5466 0.0
O608 O 0.08019 0.13497 0.53446 0.0
O609 O 0.11213 0.15899 0.51501 0.0
O610 O 0.01996 0.14197 0.5249 0.0
O611 O 0.05082 0.1632 0.50072 0.0
O612 O 0.07459 0.21858 0.51552 0.0
O613 O 0.03958 0.19998 0.53591 0.0
C614 C 0.10278 0.13618 0.52224 0.0
C615 C 0.05034 0.22008 0.52397 0.0
C616 C 0.14844 0.85309 0.77217 0.0
C617 C 0.06449 0.80071 0.77394 0.0
O618 O 0.14965 0.83049 0.78437 0.0
Zn619 Zn 0.1248 0.79848 0.79652 0.0
O620 O 0.12563 0.86246 0.76496 0.0
Zn621 Zn 0.10361 0.831 0.77573 0.0
O622 O 0.10043 0.8339 0.81826 0.0
O623 O 0.12347 0.80074 0.83643 0.0
O624 O 0.06601 0.82497 0.7655 0.0
O625 O 0.0846 0.78994 0.78586 0.0
O626 O 0.14258 0.77027 0.77479 0.0
O627 O 0.12136 0.80115 0.75064 0.0
C628 C 0.10855 0.82144 0.83932 0.0
C629 C 0.13524 0.77951 0.75188 0.0
C630 C 0.52911 0.38522 0.53267 0.0
C631 C 0.57116 0.35849 0.44529 0.0
O632 O 0.55075 0.37133 0.53394 0.0
Zn633 Zn 0.58063 0.35357 0.50889 0.0
O634 O 0.51991 0.39256 0.50974 0.0
Zn635 Zn 0.54814 0.37476 0.48806 0.0
O636 O 0.53957 0.33457 0.49872 0.0
O637 O 0.57457 0.31597 0.51913 0.0
O638 O 0.55045 0.37343 0.44815 0.0
O639 O 0.58359 0.35038 0.46636 0.0
O640 O 0.61207 0.37558 0.51972 0.0
O641 O 0.58014 0.3996 0.50026 0.0
C642 C 0.55033 0.31446 0.51066 0.0
C643 C 0.60272 0.39839 0.51251 0.0
C644 C 0.92587 0.32138 0.69519 0.0
C645 C 0.89926 0.2795 0.78268 0.0
O646 O 0.93396 0.33388 0.71623 0.0
Zn647 Zn 0.93078 0.33104 0.75876 0.0
O648 O 0.91097 0.30066 0.6981 0.0
Zn649 Zn 0.90964 0.29845 0.73802 0.0
O650 O 0.88474 0.33043 0.75012 0.0
O651 O 0.9087 0.36247 0.76949 0.0
O652 O 0.89193 0.27023 0.75978 0.0
O653 O 0.9131 0.30118 0.78389 0.0
O654 O 0.9684 0.32508 0.769 0.0
O655 O 0.94986 0.29 0.74868 0.0
C656 C 0.88591 0.35305 0.76229 0.0
C657 C 0.96995 0.30082 0.76059 0.0
C658 C 0.60851 0.71317 0.19537 0.0
C659 C 0.63517 0.75508 0.28284 0.0
O660 O 0.60042 0.7007 0.21643 0.0
Zn661 Zn 0.6036 0.70356 0.25895 0.0
O662 O 0.62343 0.73389 0.19827 0.0
Zn663 Zn 0.62476 0.73612 0.23818 0.0
O664 O 0.64964 0.70413 0.2503 0.0
O665 O 0.62566 0.67212 0.2697 0.0
O666 O 0.64251 0.76434 0.25993 0.0
O667 O 0.62132 0.73342 0.28406 0.0
O668 O 0.56599 0.70957 0.26919 0.0
O669 O 0.58456 0.74461 0.24885 0.0
C670 C 0.64846 0.68152 0.26248 0.0
C671 C 0.56446 0.73382 0.26076 0.0
C672 C 0.58948 0.57149 0.85847 0.0
C673 C 0.502 0.52959 0.88511 0.0
O674 O 0.58658 0.55075 0.87334 0.0
Zn675 Zn 0.54666 0.54855 0.87472 0.0
O676 O 0.56843 0.58401 0.85043 0.0
Zn677 Zn 0.5259 0.58118 0.85366 0.0
O678 O 0.51521 0.61258 0.8758 0.0
O679 O 0.5346 0.58049 0.89969 0.0
O680 O 0.50079 0.5513 0.87132 0.0
O681 O 0.52491 0.52031 0.89242 0.0
O682 O 0.53594 0.54016 0.83451 0.0
O683 O 0.51561 0.57527 0.81604 0.0
C684 C 0.52244 0.60312 0.89857 0.0
C685 C 0.52401 0.55101 0.81445 0.0
C686 C 0.68184 0.27228 0.14884 0.0
C687 C 0.73411 0.27395 0.06481 0.0
O688 O 0.67243 0.26507 0.12604 0.0
Zn689 Zn 0.70388 0.27578 0.10398 0.0
O690 O 0.70447 0.28444 0.15002 0.0
Zn691 Zn 0.73647 0.29651 0.12512 0.0
O692 O 0.73428 0.33643 0.12379 0.0
O693 O 0.70106 0.31831 0.1008 0.0
O694 O 0.74493 0.28585 0.08491 0.0
O695 O 0.70985 0.26555 0.06636 0.0
O696 O 0.73372 0.25064 0.12167 0.0
O697 O 0.76467 0.27473 0.14285 0.0
C698 C 0.71356 0.33935 0.1089 0.0
C699 C 0.75539 0.25184 0.13551 0.0
C700 C 1.012 0.4313 0.39839 0.0
C701 C 1.01039 0.48353 0.31434 0.0
O702 O 0.01922 0.42188 0.37561 0.0
Zn703 Zn 1.00852 0.45331 0.35351 0.0
O704 O 0.99983 0.45393 0.39954 0.0
Zn705 Zn 0.98776 0.48591 0.37463 0.0
O706 O 0.94785 0.48371 0.37327 0.0
O707 O 0.96599 0.45048 0.3503 0.0
O708 O 0.99847 0.49435 0.33442 0.0
O709 O 0.01879 0.45926 0.3159 0.0
O710 O 0.03364 0.48317 0.37121 0.0
O711 O 1.00951 0.51413 0.39236 0.0
C712 C 0.94494 0.46298 0.35838 0.0
C713 C 0.03242 0.50486 0.38504 0.0
C714 C 0.85308 0.76225 0.64864 0.0
C715 C 0.80073 0.76055 0.56468 0.0
O716 O 0.86247 0.76946 0.62584 0.0
Zn717 Zn 0.831 0.75872 0.6038 0.0
O718 O 0.83046 0.75007 0.64983 0.0
Zn719 Zn 0.79845 0.73797 0.62498 0.0
O720 O 0.80067 0.69805 0.62364 0.0
O721 O 0.83386 0.71619 0.60061 0.0
O722 O 0.78994 0.74864 0.58478 0.0
O723 O 0.82499 0.76897 0.56619 0.0
O724 O 0.80117 0.78384 0.62154 0.0
O725 O 0.77025 0.75972 0.64274 0.0
C726 C 0.82138 0.69514 0.60871 0.0
C727 C 0.77951 0.78262 0.6354 0.0
C728 C 0.52386 0.48413 0.72017 0.0
C729 C 0.5221 0.4317 0.63626 0.0
O730 O 0.51541 0.45989 0.71866 0.0
Zn731 Zn 0.52567 0.45381 0.68107 0.0
O732 O 0.53581 0.49489 0.70006 0.0
Zn733 Zn 0.54649 0.4863 0.65988 0.0
O734 O 0.5248 0.51451 0.64205 0.0
O735 O 0.50061 0.48366 0.66328 0.0
O736 O 0.53433 0.45428 0.63505 0.0
O737 O 0.51487 0.42235 0.65907 0.0
O738 O 0.5682 0.45088 0.68428 0.0
O739 O 0.5864 0.48402 0.66122 0.0
C740 C 0.50187 0.50529 0.64938 0.0
C741 C 0.58927 0.46331 0.67616 0.0
C742 C 0.8009 0.27405 0.97046 0.0
C743 C 0.85312 0.27238 0.88642 0.0
O744 O 0.82515 0.26562 0.96889 0.0
Zn745 Zn 0.83113 0.2759 0.93129 0.0
O746 O 0.7901 0.286 0.95039 0.0
Zn747 Zn 0.79857 0.29671 0.91019 0.0
O748 O 0.77032 0.27502 0.89243 0.0
O749 O 0.80124 0.25084 0.91356 0.0
O750 O 0.83052 0.28459 0.88527 0.0
O751 O 0.86254 0.26514 0.9092 0.0
O752 O 0.83404 0.31843 0.93451 0.0
O753 O 0.80083 0.33662 0.91156 0.0
C754 C 0.77957 0.25209 0.89972 0.0
C755 C 0.82157 0.3395 0.92644 0.0
C756 C 1.01226 0.60295 0.13624 0.0
C757 C 1.01048 0.55048 0.22012 0.0
O758 O 0.01949 0.61229 0.15906 0.0
Zn759 Zn 1.00867 0.58082 0.18104 0.0
O760 O 1.00002 0.58037 0.13502 0.0
Zn761 Zn 0.98784 0.54835 0.15983 0.0
O762 O 0.94793 0.55065 0.16119 0.0
O763 O 0.96614 0.58377 0.18426 0.0
O764 O 0.99853 0.53974 0.20001 0.0
O765 O 0.01894 0.57473 0.21862 0.0
O766 O 0.03372 0.55097 0.16323 0.0
O767 O 1.00951 0.52015 0.14198 0.0
C768 C 0.94507 0.57134 0.17615 0.0
C769 C 0.03244 0.52934 0.14932 0.0
C770 C 0.73375 0.76043 0.47047 0.0
C771 C 0.68141 0.76211 0.38652 0.0
O772 O 0.7095 0.76888 0.46894 0.0
Zn773 Zn 0.70346 0.75857 0.43136 0.0
O774 O 0.74452 0.74846 0.45039 0.0
Zn775 Zn 0.73597 0.73773 0.41022 0.0
O776 O 0.76421 0.75938 0.3924 0.0
O777 O 0.73335 0.7836 0.41358 0.0
O778 O 0.70399 0.74988 0.38534 0.0
O779 O 0.67203 0.76936 0.40931 0.0
O780 O 0.70052 0.71604 0.43461 0.0
O781 O 0.73367 0.69782 0.41161 0.0
C782 C 0.755 0.78232 0.39971 0.0
C783 C 0.71296 0.69496 0.42653 0.0
C784 C 0.89838 0.52242 0.6033 0.0
C785 C 0.81425 0.52404 0.55121 0.0
O786 O 0.87561 0.5152 0.61276 0.0
Zn787 Zn 0.85346 0.52591 0.58137 0.0
O788 O 0.89949 0.5346 0.58068 0.0
Zn789 Zn 0.87452 0.54668 0.54875 0.0
O790 O 0.87316 0.58659 0.55096 0.0
O791 O 0.85024 0.56844 0.58422 0.0
O792 O 0.83431 0.53597 0.54036 0.0
O793 O 0.81584 0.51563 0.57547 0.0
O794 O 0.87113 0.50081 0.55147 0.0
O795 O 0.89222 0.52495 0.52049 0.0
C796 C 0.8583 0.58949 0.57172 0.0
C797 C 0.88492 0.50203 0.52977 0.0
C798 C 0.69513 0.60847 0.82151 0.0
C799 C 0.78259 0.63517 0.77962 0.0
O800 O 0.69803 0.62339 0.80081 0.0
Zn801 Zn 0.73794 0.62473 0.79857 0.0
O802 O 0.71618 0.60036 0.83398 0.0
Zn803 Zn 0.75871 0.60356 0.83112 0.0
O804 O 0.76946 0.6256 0.86257 0.0
O805 O 0.75005 0.64959 0.83058 0.0
O806 O 0.78382 0.6213 0.80127 0.0
O807 O 0.75968 0.64251 0.77037 0.0
O808 O 0.74862 0.58454 0.79005 0.0
O809 O 0.76896 0.56595 0.82509 0.0
C810 C 0.76224 0.6484 0.85319 0.0
C811 C 0.76053 0.56443 0.80084 0.0
C812 C 0.63664 0.51205 0.10368 0.0
C813 C 0.72056 0.51049 0.05124 0.0
O814 O 0.65944 0.5193 0.11305 0.0
Zn815 Zn 0.68147 0.5086 0.08156 0.0
O816 O 0.63545 0.49987 0.08106 0.0
Zn817 Zn 0.6603 0.48781 0.04903 0.0
O818 O 0.66169 0.4479 0.05125 0.0
O819 O 0.68471 0.46607 0.08442 0.0
O820 O 0.70047 0.49855 0.04048 0.0
O821 O 0.71905 0.5189 0.07551 0.0
O822 O 0.66365 0.53369 0.05174 0.0
O823 O 0.64246 0.50952 0.02085 0.0
C824 C 0.67662 0.44501 0.07195 0.0
C825 C 0.64977 0.53244 0.0301 0.0
C826 C 0.83928 0.42604 0.32144 0.0
C827 C 0.7518 0.39939 0.27956 0.0
O828 O 0.83637 0.41114 0.30072 0.0
Zn829 Zn 0.79646 0.4098 0.29851 0.0
O830 O 0.81823 0.43414 0.33393 0.0
Zn831 Zn 0.7757 0.43094 0.33108 0.0
O832 O 0.76496 0.40888 0.36252 0.0
O833 O 0.78436 0.38491 0.3305 0.0
O834 O 0.75059 0.41323 0.30123 0.0
O835 O 0.77471 0.39205 0.27029 0.0
O836 O 0.78578 0.45 0.29003 0.0
O837 O 0.76545 0.46856 0.3251 0.0
C838 C 0.77218 0.38609 0.35311 0.0
C839 C 0.77387 0.4701 0.30084 0.0
C840 C 0.8147 0.51054 0.98416 0.0
C841 C 0.89858 0.51225 0.93168 0.0
O842 O 0.81618 0.51897 0.9599 0.0
Zn843 Zn 0.85377 0.50871 0.95381 0.0
O844 O 0.83481 0.4986 0.9949 0.0
Zn845 Zn 0.87498 0.48791 0.98631 0.0
O846 O 0.89281 0.50962 1.01451 0.0
O847 O 0.87157 0.53378 0.98365 0.0
O848 O 0.89981 0.50004 0.95428 0.0
O849 O 0.87577 0.51948 0.92233 0.0
O850 O 0.85056 0.46618 0.95092 0.0
O851 O 0.87363 0.448 0.98405 0.0
C852 C 0.88546 0.53254 1.00528 0.0
C853 C 0.85867 0.44511 0.96337 0.0
C854 C 0.75208 0.63512 0.25524 0.0
C855 C 0.83947 0.60836 0.21323 0.0
O856 O 0.77501 0.64243 0.26447 0.0
Zn857 Zn 0.79669 0.62464 0.23623 0.0
O858 O 0.75081 0.62127 0.23358 0.0
Zn859 Zn 0.77587 0.60351 0.2037 0.0
O860 O 0.76557 0.56592 0.20971 0.0
O861 O 0.78597 0.58445 0.24474 0.0
O862 O 0.8184 0.60028 0.20078 0.0
O863 O 0.8366 0.62326 0.23396 0.0
O864 O 0.78456 0.64954 0.20426 0.0
O865 O 0.7651 0.62558 0.17227 0.0
C866 C 0.77401 0.56438 0.23396 0.0
C867 C 0.77235 0.64836 0.18166 0.0
C868 C 0.67591 0.58938 0.46361 0.0
C869 C 0.64917 0.50199 0.50564 0.0
O870 O 0.66099 0.58651 0.48432 0.0
Zn871 Zn 0.65964 0.5466 0.48662 0.0
O872 O 0.68401 0.5683 0.45117 0.0
Zn873 Zn 0.68081 0.52578 0.45411 0.0
O874 O 0.65878 0.51496 0.42268 0.0
O875 O 0.63478 0.53443 0.45463 0.0
O876 O 0.66304 0.50073 0.48399 0.0
O877 O 0.64184 0.52492 0.51485 0.0
O878 O 0.69983 0.53592 0.49517 0.0
O879 O 0.7184 0.51552 0.46015 0.0
C880 C 0.63597 0.52219 0.43205 0.0
C881 C 0.71993 0.52397 0.4844 0.0
C882 C 0.76035 0.4702 0.73388 0.0
C883 C 0.76198 0.38624 0.68154 0.0
O884 O 0.76878 0.46867 0.70963 0.0
Zn885 Zn 0.75847 0.43108 0.7036 0.0
O886 O 0.74839 0.45013 0.74466 0.0
Zn887 Zn 0.73766 0.40995 0.73614 0.0
O888 O 0.75935 0.39214 0.76436 0.0
O889 O 0.78353 0.41331 0.73346 0.0
O890 O 0.74977 0.38506 0.70414 0.0
O891 O 0.76922 0.40903 0.67216 0.0
O892 O 0.71594 0.43433 0.7007 0.0
O893 O 0.69775 0.41134 0.73388 0.0
C894 C 0.78227 0.39944 0.75512 0.0
C895 C 0.69487 0.42625 0.71317 0.0
C896 C 0.5716 0.85832 0.58946 0.0
C897 C 0.52964 0.88499 0.50203 0.0
O898 O 0.55087 0.87321 0.58657 0.0
Zn899 Zn 0.54863 0.87456 0.54666 0.0
O900 O 0.58409 0.85024 0.5684 0.0
Zn901 Zn 0.5812 0.85346 0.52587 0.0
O902 O 0.61262 0.87555 0.51513 0.0
O903 O 0.58059 0.89949 0.53455 0.0
O904 O 0.55132 0.87117 0.50079 0.0
O905 O 0.52039 0.89231 0.52495 0.0
O906 O 0.54017 0.83436 0.53595 0.0
O907 O 0.57524 0.81585 0.51559 0.0
C908 C 0.6032 0.89833 0.52235 0.0
C909 C 0.55099 0.81429 0.52401 0.0
C910 C 0.02968 0.64953 0.53237 0.0
C911 C 0.07162 0.67624 0.44493 0.0
O912 O 0.02041 0.64223 0.50945 0.0
Zn913 Zn 0.04865 0.65998 0.48773 0.0
O914 O 0.05135 0.66336 0.5336 0.0
Zn915 Zn 0.08123 0.68108 0.50852 0.0
O916 O 0.07527 0.71868 0.51881 0.0
O917 O 0.04019 0.70017 0.49845 0.0
O918 O 0.0841 0.68431 0.46599 0.0
O919 O 0.05088 0.66135 0.44782 0.0
O920 O 0.08062 0.63505 0.49982 0.0
O921 O 0.11265 0.65898 0.51924 0.0
C922 C 0.05101 0.72024 0.5104 0.0
C923 C 0.10323 0.6362 0.51201 0.0
C924 C 0.63527 0.77951 0.78258 0.0
C925 C 0.60862 0.82142 0.69511 0.0
O926 O 0.64261 0.77026 0.75967 0.0
Zn927 Zn 0.62487 0.79848 0.73793 0.0
O928 O 0.62142 0.80117 0.7838 0.0
Zn929 Zn 0.60371 0.83103 0.75869 0.0
O930 O 0.5661 0.82504 0.76894 0.0
O931 O 0.58466 0.78999 0.7486 0.0
O932 O 0.60052 0.8339 0.71616 0.0
O933 O 0.62354 0.80071 0.69802 0.0
O934 O 0.64975 0.83047 0.75006 0.0
O935 O 0.62577 0.86247 0.76945 0.0
C936 C 0.56457 0.80079 0.76051 0.0
C937 C 0.64857 0.85308 0.76225 0.0
C938 C 0.48344 0.31426 1.01038 0.0
C939 C 0.43125 0.39833 1.01203 0.0
O940 O 0.45918 0.31583 0.01879 0.0
Zn941 Zn 0.45324 0.35344 1.00852 0.0
O942 O 0.49426 0.33434 0.99846 0.0
Zn943 Zn 0.48583 0.37455 0.98776 0.0
O944 O 0.51407 0.39226 1.0095 0.0
O945 O 0.48311 0.37113 0.03364 0.0
O946 O 0.45387 0.39948 0.99985 0.0
O947 O 0.42182 0.37555 0.01925 0.0
O948 O 0.45039 0.35023 0.96599 0.0
O949 O 0.48362 0.37319 0.94785 0.0
C950 C 0.5048 0.38494 0.03241 0.0
C951 C 0.46289 0.3583 0.94494 0.0
C952 C 0.47031 0.73387 0.76038 0.0
C953 C 0.38635 0.68152 0.76204 0.0
O954 O 0.46878 0.70962 0.76881 0.0
Zn955 Zn 0.43119 0.70359 0.75852 0.0
O956 O 0.45023 0.74465 0.74842 0.0
Zn957 Zn 0.41004 0.73611 0.7377 0.0
O958 O 0.39223 0.76433 0.75938 0.0
O959 O 0.41341 0.73345 0.78357 0.0
O960 O 0.38517 0.70412 0.74982 0.0
O961 O 0.40915 0.67214 0.76928 0.0
O962 O 0.43442 0.70067 0.71599 0.0
O963 O 0.41142 0.73384 0.69779 0.0
C964 C 0.39954 0.7551 0.78231 0.0
C965 C 0.42633 0.71312 0.69492 0.0
C966 C 1.00489 0.14948 1.00208 0.0
C967 C 0.96293 0.17621 0.0895 0.0
O968 O 1.01414 0.14218 0.025 0.0
Zn969 Zn 0.9859 0.15994 0.04671 0.0
O970 O 0.98321 0.16332 1.00083 0.0
Zn971 Zn 0.95333 0.18105 0.02591 0.0
O972 O 0.95931 0.21864 1.01561 0.0
O973 O 0.99437 0.20013 0.03598 0.0
O974 O 0.95045 0.18428 0.06844 0.0
O975 O 0.98366 0.16132 0.08661 0.0
O976 O 0.95393 0.13502 0.0346 0.0
O977 O 0.92191 0.15896 1.01517 0.0
C978 C 0.98356 0.2202 0.02403 0.0
C979 C 0.93132 0.13618 0.02241 0.0
C980 C 0.64827 0.1814 0.77241 0.0
C981 C 0.56423 0.23363 0.77398 0.0
O982 O 0.62549 0.17198 0.76516 0.0
Zn983 Zn 0.60339 0.2034 0.77588 0.0
O984 O 0.64941 0.20401 0.7846 0.0
Zn985 Zn 0.62448 0.23598 0.79668 0.0
O986 O 0.62308 0.23374 0.83659 0.0
O987 O 0.60013 0.20052 0.8184 0.0
O988 O 0.58429 0.24444 0.78594 0.0
O989 O 0.56579 0.20938 0.76556 0.0
O990 O 0.62112 0.23328 0.7508 0.0
O991 O 0.64224 0.26421 0.77498 0.0
C992 C 0.60818 0.21301 0.83947 0.0
C993 C 0.63495 0.25496 0.75205 0.0
C994 C 0.97033 0.8007 0.27401 0.0
C995 C 0.88638 0.85307 0.27243 0.0
O996 O 0.9688 0.82496 0.26559 0.0
Zn997 Zn 0.93121 0.83099 0.27591 0.0
O998 O 0.95025 0.78993 0.28597 0.0
Zn999 Zn 0.91007 0.79846 0.29672 0.0
O1000 O 0.89225 0.77026 0.27503 0.0
O1001 O 0.91341 0.80115 0.25084 0.0
O1002 O 0.8852 0.83046 0.28463 0.0
O1003 O 0.90917 0.86245 0.26518 0.0
O1004 O 0.93446 0.83389 0.31843 0.0
O1005 O 0.91147 0.80071 0.33663 0.0
C1006 C 0.89954 0.7795 0.2521 0.0
C1007 C 0.92638 0.82143 0.3395 0.0
C1008 C 0.53291 0.50455 0.14976 0.0
C1009 C 0.44532 0.46277 0.17622 0.0
O1010 O 0.53407 0.48282 0.16351 0.0
Zn1011 Zn 0.50888 0.45296 0.1811 0.0
O1012 O 0.51003 0.51389 0.14244 0.0
Zn1013 Zn 0.4882 0.48565 0.16005 0.0
O1014 O 0.49887 0.49395 0.20028 0.0
O1015 O 0.51911 0.4588 0.21876 0.0
O1016 O 0.44828 0.48353 0.16137 0.0
O1017 O 0.46634 0.45021 0.18427 0.0
O1018 O 0.51952 0.42156 0.15892 0.0
O1019 O 0.50022 0.45371 0.13506 0.0
C1020 C 0.51074 0.48307 0.22035 0.0
C1021 C 0.51233 0.43105 0.13616 0.0
C1022 C 0.35305 0.76219 0.8859 0.0
C1023 C 0.3007 0.76052 0.96986 0.0
O1024 O 0.33044 0.75 0.88471 0.0
Zn1025 Zn 0.29843 0.7379 0.90958 0.0
O1026 O 0.36243 0.76942 0.9087 0.0
Zn1027 Zn 0.33097 0.75867 0.93074 0.0
O1028 O 0.33384 0.71614 0.93395 0.0
O1029 O 0.30066 0.69798 0.91093 0.0
O1030 O 0.32496 0.76894 0.96834 0.0
O1031 O 0.28991 0.74859 0.94977 0.0
O1032 O 0.27022 0.75962 0.89179 0.0
O1033 O 0.30113 0.78377 0.91299 0.0
C1034 C 0.32137 0.69509 0.92586 0.0
C1035 C 0.27947 0.78254 0.89912 0.0
C1036 C 1.00212 0.5297 0.64941 0.0
C1037 C 0.08958 0.57164 0.67603 0.0
O1038 O 1.00089 0.55138 0.66323 0.0
Zn1039 Zn 0.026 0.58126 0.68092 0.0
O1040 O 0.02503 0.52044 0.64208 0.0
Zn1041 Zn 0.04676 0.54868 0.6598 0.0
O1042 O 0.03608 0.54023 0.7 0.0
O1043 O 1.01573 0.57531 0.71853 0.0
O1044 O 0.08668 0.55091 0.66114 0.0
O1045 O 0.06853 0.58412 0.68412 0.0
O1046 O 1.01526 0.61268 0.65882 0.0
O1047 O 0.03466 0.58064 0.63488 0.0
C1048 C 0.02415 0.55105 0.72008 0.0
C1049 C 0.02247 0.60326 0.63604 0.0
C1050 C 0.21304 0.33938 0.42591 0.0
C1051 C 0.25491 0.25189 0.39923 0.0
O1052 O 0.20055 0.31833 0.43399 0.0
Zn1053 Zn 0.20339 0.2758 0.43079 0.0
O1054 O 0.23376 0.33647 0.411 0.0
Zn1055 Zn 0.23597 0.29655 0.40965 0.0
O1056 O 0.20398 0.28447 0.38476 0.0
O1057 O 0.17195 0.26508 0.40872 0.0
O1058 O 0.26418 0.2748 0.39191 0.0
O1059 O 0.23324 0.25068 0.41308 0.0
O1060 O 0.20937 0.26555 0.4684 0.0
O1061 O 0.24444 0.28587 0.44985 0.0
C1062 C 0.18136 0.2723 0.38593 0.0
C1063 C 0.23363 0.27396 0.46995 0.0
C1064 C 0.44509 0.571 0.35849 0.0
C1065 C 0.53242 0.52899 0.38546 0.0
O1066 O 0.46618 0.5834 0.35037 0.0
Zn1067 Zn 0.50871 0.58042 0.35362 0.0
O1068 O 0.44793 0.55032 0.37346 0.0
Zn1069 Zn 0.48783 0.54799 0.37485 0.0
O1070 O 0.49999 0.58005 0.39963 0.0
O1071 O 0.51952 0.61192 0.37556 0.0
O1072 O 0.50947 0.51981 0.39279 0.0
O1073 O 0.53371 0.55059 0.37151 0.0
O1074 O 0.51902 0.57425 0.31607 0.0
O1075 O 0.49856 0.5393 0.3347 0.0
C1076 C 0.51225 0.60263 0.39838 0.0
C1077 C 0.51056 0.55 0.31459 0.0
C1078 C 0.18147 0.76218 0.1481 0.0
C1079 C 0.23377 0.7605 0.06411 0.0
O1080 O 0.20407 0.74996 0.14927 0.0
Zn1081 Zn 0.23605 0.73783 0.12438 0.0
O1082 O 0.17208 0.76942 0.12532 0.0
Zn1083 Zn 0.20351 0.75865 0.10325 0.0
O1084 O 0.20059 0.71612 0.10003 0.0
O1085 O 0.23378 0.69793 0.12301 0.0
O1086 O 0.20952 0.76893 0.06565 0.0
O1087 O 0.24456 0.74855 0.08419 0.0
O1088 O 0.26428 0.75953 0.14217 0.0
O1089 O 0.23338 0.78371 0.12101 0.0
C1090 C 0.21305 0.69505 0.10811 0.0
C1091 C 0.25504 0.78245 0.13486 0.0
C1092 C 0.02237 0.43166 0.89821 0.0
C1093 C 0.0241 0.4841 0.81432 0.0
O1094 O 0.0346 0.45424 0.89943 0.0
Zn1095 Zn 0.04675 0.48626 0.87459 0.0
O1096 O 1.01514 0.42231 0.8754 0.0
Zn1097 Zn 0.02593 0.45378 0.8534 0.0
O1098 O 0.06846 0.45085 0.85017 0.0
O1099 O 0.08666 0.48398 0.87323 0.0
O1100 O 1.01565 0.45986 0.81582 0.0
O1101 O 0.03606 0.49485 0.83442 0.0
O1102 O 0.02507 0.51447 0.89244 0.0
O1103 O 1.00088 0.48362 0.87121 0.0
C1104 C 0.08953 0.46328 0.85828 0.0
C1105 C 1.00214 0.50525 0.88511 0.0
C1106 C 0.35288 0.27238 0.64817 0.0
C1107 C 0.30054 0.27406 0.56421 0.0
O1108 O 0.33029 0.2846 0.64936 0.0
Zn1109 Zn 0.29829 0.29673 0.62448 0.0
O1110 O 0.36226 0.26514 0.62538 0.0
Zn1111 Zn 0.33082 0.27591 0.60333 0.0
O1112 O 0.33374 0.31844 0.60011 0.0
O1113 O 0.30057 0.33664 0.62311 0.0
O1114 O 0.32479 0.26562 0.56574 0.0
O1115 O 0.28976 0.28602 0.5843 0.0
O1116 O 0.27007 0.27504 0.64229 0.0
O1117 O 0.30095 0.25085 0.6211 0.0
C1118 C 0.32129 0.33951 0.6082 0.0
C1119 C 0.2793 0.25211 0.63497 0.0
C1120 C 0.14945 0.5325 0.5048 0.0
C1121 C 0.17612 0.44503 0.46289 0.0
O1122 O 0.16328 0.53372 0.48312 0.0
Zn1123 Zn 0.18099 0.50861 0.45325 0.0
O1124 O 0.14213 0.50959 0.51406 0.0
Zn1125 Zn 0.15987 0.48785 0.48584 0.0
O1126 O 0.20007 0.49855 0.49429 0.0
O1127 O 0.2186 0.51888 0.45922 0.0
O1128 O 0.16123 0.44793 0.48362 0.0
O1129 O 0.1842 0.46608 0.4504 0.0
O1130 O 0.1589 0.51933 0.42183 0.0
O1131 O 0.13496 0.49994 0.45387 0.0
C1132 C 0.22015 0.51048 0.48348 0.0
C1133 C 0.13612 0.51211 0.43125 0.0
C1134 C 0.27415 0.47001 0.23362 0.0
C1135 C 0.27252 0.38605 0.18126 0.0
O1136 O 0.28605 0.4499 0.24442 0.0
Zn1137 Zn 0.29672 0.4097 0.23592 0.0
O1138 O 0.26577 0.46849 0.20935 0.0
Zn1139 Zn 0.27602 0.43088 0.20335 0.0
O1140 O 0.25086 0.41315 0.23315 0.0
O1141 O 0.27494 0.39194 0.26409 0.0
O1142 O 0.26533 0.40885 0.17187 0.0
O1143 O 0.28467 0.38485 0.20389 0.0
O1144 O 0.33664 0.41103 0.23376 0.0
O1145 O 0.31856 0.43406 0.20055 0.0
C1146 C 0.25204 0.39929 0.25481 0.0
C1147 C 0.33958 0.42595 0.21306 0.0
C1148 C 0.35829 0.58945 0.96289 0.0
C1149 C 0.38497 0.50201 1.00483 0.0
O1150 O 0.35021 0.56839 0.95041 0.0
Zn1151 Zn 0.35342 0.52586 0.95329 0.0
O1152 O 0.37318 0.58656 0.98362 0.0
Zn1153 Zn 0.37453 0.54665 0.98586 0.0
O1154 O 0.39944 0.53454 0.95389 0.0
O1155 O 0.37551 0.51512 0.92186 0.0
O1156 O 0.39228 0.52492 1.01409 0.0
O1157 O 0.37113 0.50077 0.98316 0.0
O1158 O 0.31581 0.51559 0.95926 0.0
O1159 O 0.33434 0.53595 0.99432 0.0
C1160 C 0.39829 0.52235 0.93128 0.0
C1161 C 0.31425 0.52401 0.98352 0.0
C1162 C 0.28269 0.63525 0.75491 0.0
C1163 C 0.19523 0.60859 0.71299 0.0
O1164 O 0.28391 0.62142 0.73323 0.0
Zn1165 Zn 0.25881 0.60371 0.70337 0.0
O1166 O 0.25977 0.64258 0.76417 0.0
Zn1167 Zn 0.23804 0.62484 0.73594 0.0
O1168 O 0.24872 0.58463 0.7444 0.0
O1169 O 0.26907 0.5661 0.70934 0.0
O1170 O 0.19813 0.62349 0.73371 0.0
O1171 O 0.21628 0.60051 0.7005 0.0
O1172 O 0.26955 0.62579 0.67194 0.0
O1173 O 0.25015 0.64974 0.70396 0.0
C1174 C 0.26065 0.56455 0.73359 0.0
C1175 C 0.26233 0.64857 0.68135 0.0
C1176 C 0.17599 0.58944 0.07113 0.0
C1177 C 0.14924 0.50201 0.02919 0.0
O1178 O 0.18408 0.56838 0.08359 0.0
Zn1179 Zn 0.18086 0.52585 0.0807 0.0
O1180 O 0.16107 0.58656 0.05042 0.0
Zn1181 Zn 0.1597 0.54665 0.04817 0.0
O1182 O 0.13483 0.53453 0.08018 0.0
O1183 O 0.15882 0.51509 0.11215 0.0
O1184 O 0.14191 0.52493 0.01995 0.0
O1185 O 0.16311 0.50077 0.05085 0.0
O1186 O 0.21846 0.51558 0.07467 0.0
O1187 O 0.19989 0.53595 0.03964 0.0
C1188 C 0.13603 0.52232 0.10278 0.0
C1189 C 0.21999 0.52401 0.05042 0.0
C1190 C 0.26058 0.47026 0.80046 0.0
C1191 C 0.26226 0.38627 0.85275 0.0
O1192 O 0.24862 0.45019 0.78967 0.0
Zn1193 Zn 0.2379 0.41 0.79818 0.0
O1194 O 0.26902 0.46872 0.82471 0.0
Zn1195 Zn 0.25873 0.43112 0.83072 0.0
O1196 O 0.28378 0.41337 0.80083 0.0
O1197 O 0.25959 0.39221 0.76994 0.0
O1198 O 0.2695 0.40905 0.86214 0.0
O1199 O 0.25004 0.3851 0.83015 0.0
O1200 O 0.19799 0.41138 0.80046 0.0
O1201 O 0.2162 0.43435 0.83364 0.0
C1202 C 0.28252 0.39952 0.77917 0.0
C1203 C 0.19513 0.42628 0.82119 0.0
C1204 C 0.39829 0.51226 0.60287 0.0
C1205 C 0.31439 0.51054 0.55042 0.0
O1206 O 0.39951 0.50004 0.58027 0.0
Zn1207 Zn 0.37467 0.4879 0.54825 0.0
O1208 O 0.37548 0.51949 0.61221 0.0
Zn1209 Zn 0.35348 0.50871 0.58075 0.0
O1210 O 0.35026 0.46618 0.58366 0.0
O1211 O 0.37331 0.44799 0.55052 0.0
O1212 O 0.31589 0.51898 0.57467 0.0
O1213 O 0.33449 0.49859 0.53967 0.0
O1214 O 0.39251 0.50959 0.52005 0.0
O1215 O 0.37128 0.53377 0.5509 0.0
C1216 C 0.35837 0.44511 0.57122 0.0
C1217 C 0.38518 0.53251 0.52927 0.0
C1218 C 0.27241 0.64817 0.35298 0.0
C1219 C 0.2741 0.56423 0.30059 0.0
O1220 O 0.28465 0.64935 0.33039 0.0
Zn1221 Zn 0.29679 0.62449 0.2984 0.0
O1222 O 0.26515 0.62537 0.36234 0.0
Zn1223 Zn 0.27594 0.60333 0.3309 0.0
O1224 O 0.31846 0.60008 0.33384 0.0
O1225 O 0.3367 0.62309 0.3007 0.0
O1226 O 0.26564 0.56575 0.32484 0.0
O1227 O 0.28607 0.58432 0.28984 0.0
O1228 O 0.27513 0.64232 0.27017 0.0
O1229 O 0.25091 0.62113 0.30102 0.0
C1230 C 0.33955 0.60816 0.32141 0.0
C1231 C 0.25219 0.63501 0.27938 0.0
C1232 C 0.50478 0.14949 0.53247 0.0
C1233 C 0.4629 0.17616 0.44499 0.0
O1234 O 0.4831 0.16331 0.53369 0.0
Zn1235 Zn 0.45323 0.18101 0.50857 0.0
O1236 O 0.51406 0.14218 0.50955 0.0
Zn1237 Zn 0.48583 0.15992 0.48782 0.0
O1238 O 0.49427 0.20012 0.49854 0.0
O1239 O 0.45917 0.21862 0.51886 0.0
O1240 O 0.48364 0.16128 0.44791 0.0
O1241 O 0.45039 0.18423 0.46604 0.0
O1242 O 0.42181 0.15891 0.51928 0.0
O1243 O 0.45387 0.13498 0.49989 0.0
C1244 C 0.48343 0.22019 0.51046 0.0
C1245 C 0.43124 0.13613 0.51206 0.0
C1246 C 0.93114 0.39835 0.52246 0.0
C1247 C 0.98339 0.31432 0.52406 0.0
O1248 O 0.95376 0.3995 0.53463 0.0
Zn1249 Zn 0.98574 0.37459 0.54671 0.0
O1250 O 0.92172 0.37556 0.51523 0.0
Zn1251 Zn 0.95316 0.35348 0.52594 0.0
O1252 O 0.95031 0.35025 0.56847 0.0
O1253 O 0.98353 0.37322 0.58662 0.0
O1254 O 0.95913 0.31587 0.51565 0.0
O1255 O 0.9942 0.3344 0.53599 0.0
O1256 O 1.01397 0.39234 0.52498 0.0
O1257 O 0.98302 0.3712 0.50084 0.0
C1258 C 0.96281 0.35833 0.58952 0.0
C1259 C 1.0047 0.38503 0.50206 0.0
C1260 C 0.42598 0.21303 0.33931 0.0
C1261 C 0.39944 0.25487 0.25177 0.0
O1262 O 0.43407 0.20053 0.31827 0.0
Zn1263 Zn 0.43092 0.20334 0.27574 0.0
O1264 O 0.41108 0.23376 0.33637 0.0
Zn1265 Zn 0.40977 0.23594 0.29645 0.0
O1266 O 0.38487 0.20396 0.28436 0.0
O1267 O 0.40883 0.1719 0.26502 0.0
O1268 O 0.39208 0.26416 0.27466 0.0
O1269 O 0.41326 0.23319 0.25058 0.0
O1270 O 0.46856 0.20928 0.26553 0.0
O1271 O 0.44999 0.24437 0.28581 0.0
C1272 C 0.38604 0.18133 0.27221 0.0
C1273 C 0.4701 0.23355 0.27394 0.0
C1274 C 0.52975 0.64934 1.00228 0.0
C1275 C 0.57158 0.67614 0.08974 0.0
O1276 O 0.55143 0.66317 1.00106 0.0
Zn1277 Zn 0.58126 0.68093 0.02616 0.0
O1278 O 0.52047 0.64204 0.0252 0.0
Zn1279 Zn 0.54868 0.65982 0.04693 0.0
O1280 O 0.54021 0.70001 0.03617 0.0
O1281 O 0.57529 0.71852 1.01583 0.0
O1282 O 0.55086 0.66124 0.08684 0.0
O1283 O 0.58408 0.6842 0.06869 0.0
O1284 O 0.61272 0.65884 1.0155 0.0
O1285 O 0.58068 0.63491 0.03491 0.0
C1286 C 0.55102 0.72007 0.02422 0.0
C1287 C 0.60331 0.63606 0.02276 0.0
C1288 C 0.63518 0.2794 0.25238 0.0
C1289 C 0.60823 0.32142 0.33971 0.0
O1290 O 0.62126 0.30101 0.25108 0.0
Zn1291 Zn 0.60339 0.33087 0.27609 0.0
O1292 O 0.64248 0.27021 0.27532 0.0
Zn1293 Zn 0.62458 0.29841 0.29696 0.0
O1294 O 0.58442 0.28977 0.28621 0.0
O1295 O 0.56583 0.32475 0.26577 0.0
O1296 O 0.62318 0.30072 0.33686 0.0
O1297 O 0.60012 0.33383 0.31862 0.0
O1298 O 0.62537 0.36234 0.26529 0.0
O1299 O 0.6494 0.33044 0.2848 0.0
C1300 C 0.56432 0.30051 0.27422 0.0
C1301 C 0.64817 0.35301 0.27255 0.0
C1302 C 0.02965 0.88515 0.0324 0.0
C1303 C 0.07159 0.85845 0.94496 0.0
O1304 O 0.05134 0.87134 0.03364 0.0
Zn1305 Zn 0.08122 0.85362 1.00855 0.0
O1306 O 0.0204 0.89246 1.00948 0.0
Zn1307 Zn 0.04864 0.87472 0.98776 0.0
O1308 O 0.04019 0.83452 0.99849 0.0
O1309 O 0.07527 0.81602 0.01885 0.0
O1310 O 0.05086 0.87334 0.94785 0.0
O1311 O 0.08409 0.85038 0.96602 0.0
O1312 O 0.11264 0.87572 0.01927 0.0
O1313 O 0.08061 0.89965 0.99985 0.0
C1314 C 0.05101 0.81445 1.01043 0.0
C1315 C 0.10322 0.8985 1.01204 0.0
C1316 C 0.39945 0.77941 0.28234 0.0
C1317 C 0.42626 0.82137 0.19494 0.0
O1318 O 0.41329 0.80108 0.2836 0.0
Zn1319 Zn 0.43104 0.83096 0.25853 0.0
O1320 O 0.39216 0.77016 0.25941 0.0
Zn1321 Zn 0.40995 0.7984 0.23772 0.0
O1322 O 0.45013 0.78991 0.24848 0.0
O1323 O 0.46863 0.82497 0.26887 0.0
O1324 O 0.41136 0.80064 0.19781 0.0
O1325 O 0.43432 0.83385 0.21601 0.0
O1326 O 0.40895 0.86238 0.26927 0.0
O1327 O 0.38502 0.83037 0.24981 0.0
C1328 C 0.47019 0.80072 0.26046 0.0
C1329 C 0.38617 0.85297 0.26202 0.0
C1330 C 0.06422 0.23392 0.76046 0.0
C1331 C 0.14817 0.18155 0.76209 0.0
O1332 O 0.08431 0.24469 0.74849 0.0
Zn1333 Zn 0.12448 0.23614 0.73775 0.0
O1334 O 0.06576 0.20967 0.76889 0.0
Zn1335 Zn 0.10334 0.20363 0.75858 0.0
O1336 O 0.12114 0.23349 0.78363 0.0
O1337 O 0.14232 0.26436 0.75942 0.0
O1338 O 0.12537 0.17218 0.76934 0.0
O1339 O 0.14935 0.20414 0.74987 0.0
O1340 O 0.12309 0.23387 0.69784 0.0
O1341 O 0.10008 0.20071 0.71605 0.0
C1342 C 0.13502 0.25514 0.78235 0.0
C1343 C 0.10817 0.21315 0.69498 0.0
C1344 C 1.01102 0.10087 0.44719 0.0
C1345 C 1.01636 0.1166 0.42414 0.0
H1346 H 1.00984 0.09924 0.49037 0.0
C1347 C 0.0198 0.14442 0.42708 0.0
H1348 H 1.00796 0.07932 0.44539 0.0
C1349 C 0.02096 0.15575 0.45292 0.0
C1350 C 0.01823 0.13951 0.4761 0.0
H1351 H 0.02392 0.15697 0.40971 0.0
H1352 H 0.02609 0.17688 0.45484 0.0
C1353 C 1.01172 0.11226 0.47296 0.0
C1354 C 0.12872 0.77128 0.70283 0.0
C1355 C 0.14499 0.76853 0.72599 0.0
H1356 H 0.12745 0.77423 0.65962 0.0
C1357 C 0.17222 0.76198 0.72282 0.0
H1358 H 0.10759 0.77644 0.70478 0.0
C1359 C 0.18358 0.76125 0.69704 0.0
C1360 C 0.16783 0.76662 0.674 0.0
H1361 H 0.18526 0.76008 0.74023 0.0
H1362 H 0.20512 0.75816 0.69522 0.0
C1363 C 0.14001 0.7701 0.67698 0.0
C1364 C 0.52344 0.9335 0.9471 0.0
C1365 C 0.51807 0.91778 0.92404 0.0
H1366 H 0.52465 0.93513 0.99028 0.0
C1367 C 0.5146 0.88996 0.92699 0.0
H1368 H 0.52652 0.95505 0.9453 0.0
C1369 C 0.51345 0.87863 0.95282 0.0
C1370 C 0.51621 0.89487 0.976 0.0
H1371 H 0.51047 0.87742 0.90961 0.0
H1372 H 0.5083 0.8575 0.95475 0.0
C1373 C 0.52274 0.92211 0.97287 0.0
C1374 C 0.40606 0.263 0.20272 0.0
C1375 C 0.38978 0.26586 0.22585 0.0
H1376 H 0.40738 0.26003 0.15951 0.0
C1377 C 0.36259 0.27258 0.22264 0.0
H1378 H 0.42715 0.25772 0.2047 0.0
C1379 C 0.35127 0.27337 0.19684 0.0
C1380 C 0.36703 0.2679 0.17383 0.0
H1381 H 0.34954 0.27457 0.24002 0.0
H1382 H 0.32975 0.27659 0.19498 0.0
C1383 C 0.39482 0.26425 0.17685 0.0
C1384 C 0.02141 0.8786 0.08143 0.0
C1385 C 0.01863 0.89487 0.05828 0.0
H1386 H 0.0243 0.87732 0.12464 0.0
C1387 C 1.01198 0.92208 0.06144 0.0
H1388 H 0.02664 0.85749 0.07948 0.0
C1389 C 1.01117 0.93342 0.08723 0.0
C1390 C 1.01655 0.91767 0.11027 0.0
H1391 H 1.01005 0.93511 0.04405 0.0
H1392 H 1.00801 0.95495 0.08906 0.0
C1393 C 0.02014 0.88987 0.10728 0.0
C1394 C 0.40593 0.77117 0.33138 0.0
C1395 C 0.38968 0.76841 0.30821 0.0
H1396 H 0.40715 0.77409 0.37459 0.0
C1397 C 0.36245 0.76183 0.31134 0.0
H1398 H 0.42705 0.77635 0.32945 0.0
C1399 C 0.35107 0.76107 0.33711 0.0
C1400 C 0.3668 0.76643 0.36017 0.0
H1401 H 0.34944 0.75992 0.29393 0.0
H1402 H 0.32953 0.75795 0.33891 0.0
C1403 C 0.39461 0.76995 0.35722 0.0
C1404 C 0.52243 0.11256 0.56151 0.0
C1405 C 0.51578 0.13977 0.55835 0.0
H1406 H 0.52638 0.07968 0.58911 0.0
C1407 C 0.51297 0.15603 0.58152 0.0
H1408 H 0.52438 0.09954 0.54411 0.0
C1409 C 0.51421 0.14474 0.60736 0.0
C1410 C 0.5178 0.11693 0.61034 0.0
H1411 H 0.50773 0.17713 0.57957 0.0
H1412 H 0.51003 0.15727 0.62473 0.0
C1413 C 0.52321 0.1012 0.58729 0.0
C1414 C 0.17209 0.27266 0.8113 0.0
C1415 C 0.14484 0.26612 0.80821 0.0
H1416 H 0.20506 0.2765 0.8388 0.0
C1417 C 0.12864 0.26338 0.83142 0.0
H1418 H 0.18507 0.27455 0.79386 0.0
C1419 C 0.14001 0.26458 0.85724 0.0
C1420 C 0.16783 0.26806 0.86013 0.0
H1421 H 0.10751 0.25822 0.82953 0.0
H1422 H 0.12749 0.26046 0.87464 0.0
C1423 C 0.18352 0.27341 0.83705 0.0
C1424 C 0.42728 0.01985 0.14436 0.0
C1425 C 0.42436 1.01642 0.11653 0.0
H1426 H 0.45501 0.02613 0.17684 0.0
C1427 C 0.44744 1.01109 0.10081 0.0
H1428 H 0.40989 0.02395 0.15689 0.0
C1429 C 0.4732 1.0118 0.11223 0.0
C1430 C 0.4763 0.01829 0.13948 0.0
H1431 H 0.44566 1.00803 0.07926 0.0
H1432 H 0.49062 1.00992 0.09922 0.0
C1433 C 0.45311 0.02101 0.15571 0.0
C1434 C 0.26309 0.20284 0.40579 0.0
C1435 C 0.2659 0.226 0.38952 0.0
H1436 H 0.26013 0.15964 0.40706 0.0
C1437 C 0.27253 0.22282 0.36231 0.0
H1438 H 0.25786 0.2048 0.42689 0.0
C1439 C 0.2733 0.19703 0.35096 0.0
C1440 C 0.26788 0.174 0.3667 0.0
H1441 H 0.27448 0.24022 0.34927 0.0
H1442 H 0.27646 0.1952 0.32943 0.0
C1443 C 0.2643 0.17699 0.3945 0.0
C1444 C 0.06155 0.0228 0.61231 0.0
C1445 C 0.05843 1.01626 0.63955 0.0
H1446 H 0.08909 0.02661 0.57935 0.0
C1447 C 0.08162 1.01351 0.65577 0.0
H1448 H 0.04412 0.0247 0.59931 0.0
C1449 C 0.10745 1.01468 0.64443 0.0
C1450 C 0.11037 0.01816 0.61661 0.0
H1451 H 0.07971 1.00835 0.6769 0.0
H1452 H 0.12483 1.01055 0.65696 0.0
C1453 C 0.08731 0.02352 0.6009 0.0
C1454 C 0.26192 0.81159 0.86215 0.0
C1455 C 0.26849 0.80842 0.88938 0.0
H1456 H 0.25807 0.83919 0.82926 0.0
C1457 C 0.27124 0.83158 0.90565 0.0
H1458 H 0.26002 0.79418 0.84912 0.0
C1459 C 0.27003 0.85743 0.89436 0.0
C1460 C 0.26653 0.86041 0.86655 0.0
H1461 H 0.27641 0.82963 0.92677 0.0
H1462 H 0.27416 0.87479 0.90692 0.0
C1463 C 0.26117 0.83737 0.8508 0.0
C1464 C 0.42714 1.0143 0.38972 0.0
C1465 C 0.42414 0.01786 0.41753 0.0
H1466 H 0.45496 1.00786 0.35735 0.0
C1467 C 0.44717 0.02326 0.43329 0.0
H1468 H 0.40978 1.01014 0.37716 0.0
C1469 C 0.47296 0.02248 0.42195 0.0
C1470 C 0.47615 1.01586 0.39473 0.0
H1471 H 0.44533 0.02641 0.45481 0.0
H1472 H 0.49035 0.02442 0.435 0.0
C1473 C 0.453 1.01307 0.37845 0.0
C1474 C 0.26985 0.17723 0.63984 0.0
C1475 C 0.26636 0.17429 0.66766 0.0
H1476 H 0.2762 0.20498 0.60738 0.0
C1477 C 0.26102 0.19735 0.68338 0.0
H1478 H 0.27396 0.15985 0.6273 0.0
C1479 C 0.26177 0.22312 0.67199 0.0
C1480 C 0.26831 0.22624 0.64475 0.0
H1481 H 0.25793 0.19555 0.70492 0.0
H1482 H 0.25988 0.24053 0.68501 0.0
C1483 C 0.27104 0.20306 0.62851 0.0
C1484 C 0.10752 0.02022 0.88976 0.0
C1485 C 0.11051 1.01665 0.91757 0.0
H1486 H 0.0797 0.02667 0.85739 0.0
C1487 C 0.08749 1.01125 0.93332 0.0
H1488 H 0.12487 0.02438 0.87721 0.0
C1489 C 0.06169 1.01203 0.92198 0.0
C1490 C 0.05851 0.01866 0.89477 0.0
H1491 H 0.08933 1.0081 0.95485 0.0
H1492 H 0.0443 1.01009 0.93503 0.0
C1493 C 0.08166 0.02145 0.87849 0.0
C1494 C 0.27334 0.83721 0.18328 0.0
C1495 C 0.26797 0.86027 0.16757 0.0
H1496 H 0.2745 0.79403 0.18489 0.0
C1497 C 0.26446 0.85734 0.13975 0.0
H1498 H 0.27645 0.839 0.20482 0.0
C1499 C 0.26327 0.83151 0.12841 0.0
C1500 C 0.26603 0.80832 0.14464 0.0
H1501 H 0.26033 0.87472 0.12722 0.0
H1502 H 0.25809 0.82959 0.10729 0.0
C1503 C 0.2726 0.81145 0.17188 0.0
C1504 C 0.15574 0.45296 0.02098 0.0
C1505 C 0.13949 0.47613 0.01821 0.0
H1506 H 0.15697 0.40976 0.02394 0.0
C1507 C 0.11226 0.47298 1.01162 0.0
H1508 H 0.17686 0.4549 0.02617 0.0
C1509 C 0.10089 0.44721 1.01087 0.0
C1510 C 0.11662 0.42416 1.01626 0.0
H1511 H 0.09924 0.49039 1.00969 0.0
H1512 H 0.07935 0.4454 1.00775 0.0
C1513 C 0.14443 0.42712 0.01979 0.0
C1514 C 0.60087 0.08728 0.02342 0.0
C1515 C 0.61658 0.11034 0.01803 0.0
H1516 H 0.59926 0.0441 0.02461 0.0
C1517 C 0.6444 0.10741 1.0145 0.0
H1518 H 0.57933 0.08907 0.02655 0.0
C1519 C 0.65573 0.08158 1.0133 0.0
C1520 C 0.6395 0.05839 1.01609 0.0
H1521 H 0.65692 0.12479 1.01034 0.0
H1522 H 0.67685 0.07966 1.00811 0.0
C1523 C 0.61227 0.06152 0.02268 0.0
C1524 C 0.17713 0.39459 0.26417 0.0
C1525 C 0.17413 0.36678 0.26772 0.0
H1526 H 0.20495 0.42697 0.25775 0.0
C1527 C 0.19715 0.35102 0.27312 0.0
H1528 H 0.15978 0.40715 0.26 0.0
C1529 C 0.22294 0.36236 0.27237 0.0
C1530 C 0.22613 0.38958 0.26576 0.0
H1531 H 0.19531 0.32949 0.27626 0.0
H1532 H 0.24033 0.34931 0.27431 0.0
C1533 C 0.20299 0.40586 0.26296 0.0
C1534 C 0.92221 0.97303 0.52267 0.0
C1535 C 0.89497 0.97614 0.51613 0.0
H1536 H 0.95517 0.9455 0.52649 0.0
C1537 C 0.87875 0.95295 0.51338 0.0
H1538 H 0.93521 0.99046 0.52457 0.0
C1539 C 0.89009 0.92712 0.51457 0.0
C1540 C 0.91792 0.9242 0.51804 0.0
H1541 H 0.85762 0.95485 0.50823 0.0
H1542 H 0.87757 0.90974 0.51044 0.0
C1543 C 0.93363 0.94727 0.5234 0.0
C1544 C 0.83156 0.12862 0.26359 0.0
C1545 C 0.80836 0.14484 0.2663 0.0
H1546 H 0.87477 0.12744 0.26064 0.0
C1547 C 0.81146 0.1721 0.27278 0.0
H1548 H 0.82966 0.10748 0.25848 0.0
C1549 C 0.83722 0.18352 0.27348 0.0
C1550 C 0.8603 0.16781 0.26815 0.0
H1551 H 0.79403 0.1851 0.27465 0.0
H1552 H 0.83899 0.20507 0.27652 0.0
C1553 C 0.85738 0.13998 0.26474 0.0
C1554 C 0.37875 0.58157 0.52104 0.0
C1555 C 0.39498 0.55838 0.51829 0.0
H1556 H 0.37756 0.62478 0.52398 0.0
C1557 C 0.42222 0.5615 0.51175 0.0
H1558 H 0.35762 0.57966 0.5262 0.0
C1559 C 0.43363 0.58726 0.51102 0.0
C1560 C 0.41791 0.61033 0.51637 0.0
H1561 H 0.43522 0.54408 0.50985 0.0
H1562 H 0.45517 0.58905 0.50792 0.0
C1563 C 0.39009 0.6074 0.51986 0.0
C1564 C 0.17731 0.63993 0.26988 0.0
C1565 C 0.17439 0.66775 0.26641 0.0
H1566 H 0.20504 0.60745 0.27623 0.0
C1567 C 0.19746 0.68347 0.26111 0.0
H1568 H 0.15992 0.62739 0.27396 0.0
C1569 C 0.22322 0.67206 0.26186 0.0
C1570 C 0.22633 0.64481 0.26838 0.0
H1571 H 0.19568 0.70501 0.25803 0.0
H1572 H 0.24065 0.68507 0.26 0.0
C1573 C 0.20314 0.62859 0.27109 0.0
C1574 C 0.3115 0.36249 0.76163 0.0
C1575 C 0.30838 0.38973 0.76818 0.0
H1576 H 0.33903 0.32954 0.75781 0.0
C1577 C 0.33158 0.40595 0.77094 0.0
H1578 H 0.29407 0.34949 0.75972 0.0
C1579 C 0.3574 0.3946 0.76977 0.0
C1580 C 0.36032 0.36678 0.76628 0.0
H1581 H 0.32967 0.42708 0.77611 0.0
H1582 H 0.37479 0.40713 0.7739 0.0
C1583 C 0.33726 0.35108 0.76091 0.0
C1584 C 0.02276 0.92229 0.56156 0.0
C1585 C 1.01623 0.89505 0.55843 0.0
H1586 H 0.02656 0.95522 0.58913 0.0
C1587 C 1.01348 0.87881 0.58161 0.0
H1588 H 0.02466 0.93531 0.54415 0.0
C1589 C 1.01465 0.89013 0.60744 0.0
C1590 C 0.01812 0.91795 0.61039 0.0
H1591 H 1.00834 0.85768 0.57968 0.0
H1592 H 1.01053 0.87759 0.62482 0.0
C1593 C 0.02348 0.93368 0.58733 0.0
C1594 C 0.89448 0.26455 0.35748 0.0
C1595 C 0.86666 0.26802 0.36045 0.0
H1596 H 0.92691 0.25822 0.32969 0.0
C1597 C 0.85091 0.27338 0.33741 0.0
H1598 H 0.90703 0.26042 0.37484 0.0
C1599 C 0.86228 0.27266 0.31163 0.0
C1600 C 0.88952 0.26613 0.30847 0.0
H1601 H 0.82937 0.27647 0.33922 0.0
H1602 H 0.84925 0.27457 0.29422 0.0
C1603 C 0.90578 0.26338 0.33163 0.0
C1604 C 0.51117 0.10081 0.08732 0.0
C1605 C 0.51652 0.11656 0.11037 0.0
H1606 H 0.50994 0.09916 0.04414 0.0
C1607 C 0.51992 0.14439 0.10741 0.0
H1608 H 0.50813 0.07926 0.08913 0.0
C1609 C 0.52103 0.1557 0.08157 0.0
C1610 C 0.51829 0.13945 0.0584 0.0
H1611 H 0.52403 0.15694 0.12478 0.0
H1612 H 0.52613 0.17684 0.07963 0.0
C1613 C 0.51182 0.11219 0.06155 0.0
C1614 C 0.68355 0.76114 0.83744 0.0
C1615 C 0.6678 0.76654 0.86047 0.0
H1616 H 0.68525 0.75997 0.79426 0.0
C1617 C 0.63999 0.77009 0.85748 0.0
H1618 H 0.70508 0.758 0.83927 0.0
C1619 C 0.62871 0.7713 0.83162 0.0
C1620 C 0.64499 0.76852 0.80847 0.0
H1621 H 0.62743 0.77425 0.87483 0.0
H1622 H 0.6076 0.77651 0.82966 0.0
C1623 C 0.67221 0.7619 0.81165 0.0
C1624 C 0.02254 0.11255 0.97305 0.0
C1625 C 1.01591 0.13976 0.97621 0.0
H1626 H 0.0265 0.07966 0.94545 0.0
C1627 C 1.01315 0.15602 0.95304 0.0
H1628 H 0.02446 0.09952 0.99045 0.0
C1629 C 1.01441 0.14473 0.9272 0.0
C1630 C 0.01798 0.11693 0.92422 0.0
H1631 H 1.00793 0.17713 0.95499 0.0
H1632 H 1.01027 0.15728 0.90983 0.0
C1633 C 0.02335 0.10119 0.94727 0.0
C1634 C 0.63977 0.26442 0.67717 0.0
C1635 C 0.66758 0.26798 0.67422 0.0
H1636 H 0.60735 0.25797 0.70493 0.0
C1637 C 0.6833 0.27337 0.69727 0.0
H1638 H 0.62724 0.26027 0.65979 0.0
C1639 C 0.67192 0.27259 0.72305 0.0
C1640 C 0.6447 0.26597 0.72618 0.0
H1641 H 0.70483 0.27652 0.69547 0.0
H1642 H 0.68494 0.27451 0.74046 0.0
C1643 C 0.62846 0.26319 0.703 0.0
C1644 C 0.51202 0.92195 0.473 0.0
C1645 C 0.51863 0.89473 0.47615 0.0
H1646 H 0.5081 0.95484 0.4454 0.0
C1647 C 0.52141 0.87847 0.45298 0.0
H1648 H 0.5101 0.93497 0.4904 0.0
C1649 C 0.52017 0.88977 0.42714 0.0
C1650 C 0.51662 0.91757 0.42417 0.0
H1651 H 0.52661 0.85736 0.45492 0.0
H1652 H 0.52432 0.87722 0.40977 0.0
C1653 C 0.51124 0.93331 0.44722 0.0
C1654 C 0.8625 0.76198 0.22313 0.0
C1655 C 0.88974 0.76852 0.22623 0.0
H1656 H 0.82954 0.75814 0.19559 0.0
C1657 C 0.90596 0.77127 0.20304 0.0
H1658 H 0.8495 0.76009 0.24056 0.0
C1659 C 0.89462 0.77006 0.17721 0.0
C1660 C 0.86679 0.76658 0.17429 0.0
H1661 H 0.92709 0.77642 0.20494 0.0
H1662 H 0.90714 0.77418 0.15982 0.0
C1663 C 0.85108 0.76123 0.19737 0.0
C1664 C 0.58727 0.02338 0.9335 0.0
C1665 C 0.61033 0.01801 0.91778 0.0
H1666 H 0.54408 0.02456 0.93513 0.0
C1667 C 0.60738 1.01451 0.88996 0.0
H1668 H 0.58906 0.02649 0.95504 0.0
C1669 C 0.58155 1.01332 0.87864 0.0
C1670 C 0.55837 1.01609 0.89488 0.0
H1671 H 0.62476 1.01038 0.87743 0.0
H1672 H 0.57963 1.00815 0.85752 0.0
C1673 C 0.5615 0.02265 0.92211 0.0
C1674 C 0.77133 0.83167 0.62885 0.0
C1675 C 0.76854 0.80852 0.64513 0.0
H1676 H 0.7743 0.87488 0.62757 0.0
C1677 C 0.76195 0.8117 0.67235 0.0
H1678 H 0.77652 0.82971 0.60774 0.0
C1679 C 0.76121 0.83749 0.6837 0.0
C1680 C 0.76661 0.86052 0.66794 0.0
H1681 H 0.76001 0.79431 0.68539 0.0
H1682 H 0.75808 0.83932 0.70523 0.0
C1683 C 0.77014 0.85752 0.64013 0.0
C1684 C 0.94713 1.01105 0.43355 0.0
C1685 C 0.92408 1.01643 0.41783 0.0
H1686 H 0.99032 1.00985 0.43518 0.0
C1687 C 0.92703 0.01991 0.39001 0.0
H1688 H 0.94533 1.00796 0.45509 0.0
C1689 C 0.95286 0.02108 0.37868 0.0
C1690 C 0.97604 0.01831 0.39492 0.0
H1691 H 0.90965 0.02405 0.37747 0.0
H1692 H 0.95479 0.02624 0.35756 0.0
C1693 C 0.9729 1.01176 0.42216 0.0
C1694 C 0.76352 0.20278 0.12894 0.0
C1695 C 0.76635 0.22593 0.14521 0.0
H1696 H 0.76048 0.15958 0.12765 0.0
C1697 C 0.77296 0.22273 0.17243 0.0
H1698 H 0.75831 0.20476 0.10783 0.0
C1699 C 0.77367 0.19694 0.18377 0.0
C1700 C 0.76823 0.17393 0.16801 0.0
H1701 H 0.77493 0.24012 0.18547 0.0
H1702 H 0.77681 0.1951 0.2053 0.0
C1703 C 0.76468 0.17693 0.14021 0.0
C1704 C 0.60726 0.02015 0.64462 0.0
C1705 C 0.61024 1.01663 0.61681 0.0
H1706 H 0.57947 0.02657 0.67702 0.0
C1707 C 0.5872 1.01127 0.60106 0.0
H1708 H 0.62463 0.02428 0.65717 0.0
C1709 C 0.56142 1.01205 0.61241 0.0
C1710 C 0.55825 0.01863 0.63964 0.0
H1711 H 0.58902 1.00815 0.57952 0.0
H1712 H 0.54402 1.01014 0.59937 0.0
C1713 C 0.58141 0.02138 0.65591 0.0
C1714 C 0.77333 0.83707 0.35129 0.0
C1715 C 0.76802 0.86014 0.36702 0.0
H1716 H 0.77443 0.79388 0.34966 0.0
C1717 C 0.76453 0.8572 0.39484 0.0
H1718 H 0.77643 0.83886 0.32975 0.0
C1719 C 0.7633 0.83136 0.40616 0.0
C1720 C 0.76601 0.80818 0.38992 0.0
H1721 H 0.76044 0.87458 0.40738 0.0
H1722 H 0.75814 0.82945 0.42729 0.0
C1723 C 0.77256 0.8113 0.36268 0.0
C1724 C 0.95291 1.01317 0.15596 0.0
C1725 C 0.97607 1.01596 0.1397 0.0
H1726 H 0.9097 1.01024 0.15723 0.0
C1727 C 0.9729 0.02259 0.11248 0.0
H1728 H 0.95486 1.00794 0.17707 0.0
C1729 C 0.94711 0.02337 0.10113 0.0
C1730 C 0.92408 0.01797 0.11688 0.0
H1731 H 0.9903 0.02453 0.09945 0.0
H1732 H 0.94529 0.02653 0.0796 0.0
C1733 C 0.92706 1.0144 0.14468 0.0
C1734 C 0.77134 0.20304 0.90617 0.0
C1735 C 0.76857 0.22623 0.88995 0.0
H1736 H 0.77426 0.15983 0.90737 0.0
C1737 C 0.76197 0.22311 0.86272 0.0
H1738 H 0.77653 0.20496 0.92729 0.0
C1739 C 0.76121 0.19734 0.85132 0.0
C1740 C 0.76658 0.17428 0.86703 0.0
H1741 H 0.76006 0.24053 0.84971 0.0
H1742 H 0.75808 0.19555 0.82978 0.0
C1743 C 0.77012 0.17721 0.89484 0.0
C1744 C 0.92246 0.56157 0.02281 0.0
C1745 C 0.89522 0.55842 1.01626 0.0
H1746 H 0.95537 0.58916 0.02664 0.0
C1747 C 0.87897 0.58159 1.01351 0.0
H1748 H 0.93549 0.54416 0.02471 0.0
C1749 C 0.89027 0.60743 1.0147 0.0
C1750 C 0.91809 0.6104 0.01819 0.0
H1751 H 0.85784 0.57965 1.00836 0.0
H1752 H 0.87772 0.6248 1.01058 0.0
C1753 C 0.93383 0.58735 0.02355 0.0
C1754 C 0.4223 0.97284 1.01163 0.0
C1755 C 0.39507 0.97599 0.01824 0.0
H1756 H 0.4552 0.94524 1.00777 0.0
C1757 C 0.37882 0.95283 0.02104 0.0
H1758 H 0.43532 0.99024 1.00969 0.0
C1759 C 0.39013 0.92698 0.01986 0.0
C1760 C 0.41794 0.92402 1.01632 0.0
H1761 H 0.35771 0.95477 0.02624 0.0
H1762 H 0.37759 0.90962 0.02404 0.0
C1763 C 0.43367 0.94706 1.0109 0.0
C1764 C 0.83164 0.62865 0.77141 0.0
C1765 C 0.80848 0.64492 0.76865 0.0
H1766 H 0.87485 0.62739 0.77435 0.0
C1767 C 0.81165 0.67215 0.76209 0.0
H1768 H 0.82969 0.60753 0.77658 0.0
C1769 C 0.83743 0.68351 0.76136 0.0
C1770 C 0.86047 0.66776 0.76672 0.0
H1771 H 0.79424 0.68519 0.76018 0.0
H1772 H 0.83925 0.70505 0.75826 0.0
C1773 C 0.85749 0.63995 0.77022 0.0
C1774 C 0.10082 0.08735 0.51103 0.0
C1775 C 0.11654 0.11041 0.5164 0.0
H1776 H 0.09922 0.04417 0.50984 0.0
C1777 C 0.14436 0.10748 0.51987 0.0
H1778 H 0.07928 0.08914 0.50794 0.0
C1779 C 0.1557 0.08165 0.52104 0.0
C1780 C 0.13947 0.05846 0.51828 0.0
H1781 H 0.15689 0.12486 0.52401 0.0
H1782 H 0.17683 0.07974 0.52619 0.0
C1783 C 0.11223 0.06159 0.51174 0.0
C1784 C 0.17716 0.89465 0.76985 0.0
C1785 C 0.17422 0.86684 0.76634 0.0
H1786 H 0.20492 0.92709 0.77622 0.0
C1787 C 0.19727 0.85112 0.76095 0.0
H1788 H 0.15978 0.90718 0.77399 0.0
C1789 C 0.22304 0.8625 0.76169 0.0
C1790 C 0.22618 0.88974 0.76827 0.0
H1791 H 0.19547 0.82958 0.75784 0.0
H1792 H 0.24046 0.84949 0.75978 0.0
C1793 C 0.203 0.90597 0.77104 0.0
C1794 C 0.60071 0.44722 0.52374 0.0
C1795 C 0.61645 0.42416 0.51839 0.0
H1796 H 0.59909 0.4904 0.52495 0.0
C1797 C 0.64428 0.42711 0.515 0.0
H1798 H 0.57916 0.44542 0.52677 0.0
C1799 C 0.65561 0.45294 0.51388 0.0
C1800 C 0.63937 0.47612 0.5166 0.0
H1801 H 0.65683 0.40973 0.51089 0.0
H1802 H 0.67676 0.45487 0.50878 0.0
C1803 C 0.61211 0.47299 0.52307 0.0
C1804 C 0.83706 0.35105 0.77342 0.0
C1805 C 0.86011 0.36679 0.76808 0.0
H1806 H 0.79387 0.34941 0.77455 0.0
C1807 C 0.85716 0.3946 0.76459 0.0
H1808 H 0.83886 0.32951 0.77652 0.0
C1809 C 0.83132 0.40592 0.76338 0.0
C1810 C 0.80814 0.38967 0.76611 0.0
H1811 H 0.87454 0.40715 0.76047 0.0
H1812 H 0.82939 0.42704 0.75821 0.0
C1813 C 0.81128 0.36243 0.77266 0.0
C1814 C 0.67719 0.63996 0.26474 0.0
C1815 C 0.67424 0.66777 0.26827 0.0
H1816 H 0.70495 0.60752 0.25832 0.0
C1817 C 0.6973 0.68349 0.27363 0.0
H1818 H 0.65981 0.62742 0.26061 0.0
C1819 C 0.72308 0.67211 0.27285 0.0
C1820 C 0.72621 0.64488 0.26626 0.0
H1821 H 0.69551 0.70503 0.27675 0.0
H1822 H 0.74049 0.68513 0.27475 0.0
C1823 C 0.70303 0.62864 0.26351 0.0
C1824 C 0.52151 0.6559 0.95325 0.0
C1825 C 0.51875 0.63961 0.9764 0.0
H1826 H 0.52438 0.6572 0.91003 0.0
C1827 C 0.51215 0.6124 0.97322 0.0
H1828 H 0.52672 0.67701 0.95521 0.0
C1829 C 0.51135 0.60106 0.94742 0.0
C1830 C 0.5167 0.61682 0.92439 0.0
H1831 H 0.51024 0.59935 0.99061 0.0
H1832 H 0.5082 0.57953 0.94559 0.0
C1833 C 0.52025 0.64463 0.92739 0.0
C1834 C 0.67232 0.26199 0.22346 0.0
C1835 C 0.64505 0.26843 0.22653 0.0
H1836 H 0.70532 0.25823 0.19597 0.0
C1837 C 0.62885 0.27109 0.20332 0.0
H1838 H 0.6853 0.26016 0.24091 0.0
C1839 C 0.64023 0.2699 0.17751 0.0
C1840 C 0.66807 0.26651 0.17462 0.0
H1841 H 0.6077 0.27617 0.20519 0.0
H1842 H 0.62771 0.27394 0.1601 0.0
C1843 C 0.68377 0.26125 0.19772 0.0
C1844 C 0.02234 0.42196 0.47302 0.0
C1845 C 1.0157 0.39475 0.47618 0.0
H1846 H 0.02631 0.45484 0.44541 0.0
C1847 C 1.01292 0.37849 0.45302 0.0
H1848 H 0.02428 0.43499 0.49042 0.0
C1849 C 1.01417 0.38977 0.42717 0.0
C1850 C 0.01776 0.41758 0.42419 0.0
H1851 H 1.00769 0.35738 0.45496 0.0
H1852 H 1.01002 0.37723 0.4098 0.0
C1853 C 0.02315 0.43332 0.44723 0.0
C1854 C 0.85112 0.77342 0.69748 0.0
C1855 C 0.86684 0.76805 0.67441 0.0
H1856 H 0.8495 0.77457 0.74066 0.0
C1857 C 0.89465 0.76451 0.67735 0.0
H1858 H 0.82959 0.77655 0.69569 0.0
C1859 C 0.90598 0.76329 0.70318 0.0
C1860 C 0.88975 0.76606 0.72637 0.0
H1861 H 0.90718 0.76037 0.65997 0.0
H1862 H 0.9271 0.7581 0.7051 0.0
C1863 C 0.86252 0.77266 0.72324 0.0
C1864 C 0.51089 0.43366 0.58743 0.0
C1865 C 0.51625 0.41794 0.61049 0.0
H1866 H 0.50971 0.43527 0.54425 0.0
C1867 C 0.51971 0.39012 0.60756 0.0
H1868 H 0.50781 0.4552 0.58922 0.0
C1869 C 0.52087 0.37878 0.58173 0.0
C1870 C 0.51813 0.39501 0.55854 0.0
H1871 H 0.52383 0.37759 0.62494 0.0
H1872 H 0.52602 0.35765 0.57981 0.0
C1873 C 0.5116 0.42226 0.56167 0.0
C1874 C 0.89462 0.2701 0.85759 0.0
C1875 C 0.86681 0.26656 0.86061 0.0
H1876 H 0.92698 0.27651 0.82974 0.0
C1877 C 0.85104 0.26116 0.83759 0.0
H1878 H 0.90719 0.27426 0.87493 0.0
C1879 C 0.86236 0.26191 0.81179 0.0
C1880 C 0.88958 0.26851 0.80859 0.0
H1881 H 0.82951 0.25802 0.83945 0.0
H1882 H 0.8493 0.25997 0.79441 0.0
C1883 C 0.90587 0.2713 0.83172 0.0
C1884 C 0.02285 0.61238 0.06166 0.0
C1885 C 1.01634 0.63963 0.05853 0.0
H1886 H 0.02659 0.57944 0.08922 0.0
C1887 C 1.01357 0.65587 0.08171 0.0
H1888 H 0.02476 0.59937 0.04424 0.0
C1889 C 1.0147 0.64453 0.10754 0.0
C1890 C 0.01814 0.6167 0.11048 0.0
H1891 H 1.00844 0.677 0.07979 0.0
H1892 H 1.01056 0.65707 0.12492 0.0
C1893 C 0.02353 0.60098 0.08743 0.0
C1894 C 0.62861 0.76328 0.33188 0.0
C1895 C 0.64489 0.76606 0.30873 0.0
H1896 H 0.62732 0.7603 0.37509 0.0
C1897 C 0.67211 0.77264 0.31192 0.0
H1898 H 0.60749 0.7581 0.32991 0.0
C1899 C 0.68346 0.77336 0.33771 0.0
C1900 C 0.6677 0.76797 0.36073 0.0
H1901 H 0.68516 0.77457 0.29452 0.0
H1902 H 0.70499 0.77648 0.33954 0.0
C1903 C 0.63989 0.76446 0.35774 0.0
C1904 C 0.92722 0.5202 0.64478 0.0
C1905 C 0.9242 0.51665 0.61698 0.0
H1906 H 0.95507 0.52665 0.67714 0.0
C1907 C 0.94722 0.51129 0.6012 0.0
H1908 H 0.90988 0.52433 0.65736 0.0
C1909 C 0.97302 0.51207 0.61251 0.0
C1910 C 0.97623 0.51868 0.63973 0.0
H1911 H 0.94537 0.50814 0.57967 0.0
H1912 H 0.9904 0.51016 0.59945 0.0
C1913 C 0.95309 0.52144 0.65603 0.0
C1914 C 0.77268 0.723 0.8626 0.0
C1915 C 0.76607 0.72615 0.88982 0.0
H1916 H 0.77658 0.69543 0.82968 0.0
C1917 C 0.76328 0.70297 0.90606 0.0
H1918 H 0.77461 0.74042 0.84958 0.0
C1919 C 0.7645 0.67713 0.89475 0.0
C1920 C 0.76805 0.67418 0.86694 0.0
H1921 H 0.75808 0.7049 0.92718 0.0
H1922 H 0.76034 0.65976 0.90729 0.0
C1923 C 0.77344 0.69723 0.85122 0.0
C1924 C 0.58785 0.52338 0.10172 0.0
C1925 C 0.61086 0.5178 0.11744 0.0
H1926 H 0.54467 0.52459 0.09999 0.0
C1927 C 0.60784 0.51393 0.1452 0.0
H1928 H 0.58971 0.52675 0.08023 0.0
C1929 C 0.58197 0.5126 0.15643 0.0
C1930 C 0.55884 0.51558 0.14016 0.0
H1931 H 0.62518 0.50962 0.15772 0.0
H1932 H 0.57999 0.50716 0.17748 0.0
C1933 C 0.56205 0.5225 0.11303 0.0
C1934 C 0.77112 0.33149 0.40597 0.0
C1935 C 0.76836 0.30832 0.38972 0.0
H1936 H 0.77403 0.3747 0.40721 0.0
C1937 C 0.76179 0.31147 0.36249 0.0
H1938 H 0.7763 0.32956 0.42709 0.0
C1939 C 0.76102 0.33724 0.35112 0.0
C1940 C 0.76638 0.36029 0.36685 0.0
H1941 H 0.75988 0.29405 0.34947 0.0
H1942 H 0.75791 0.33905 0.32958 0.0
C1943 C 0.7699 0.35733 0.39466 0.0
C1944 C 0.92725 0.51464 0.89008 0.0
C1945 C 0.92434 0.51809 0.91791 0.0
H1946 H 0.95497 0.50834 0.85758 0.0
C1947 C 0.94742 0.52345 0.93361 0.0
H1948 H 0.90986 0.51052 0.87756 0.0
C1949 C 0.97318 0.52274 0.92218 0.0
C1950 C 0.97628 0.51622 0.89493 0.0
H1951 H 0.94565 0.52652 0.95515 0.0
H1952 H 0.99061 0.52463 0.93518 0.0
C1953 C 0.95307 0.51348 0.87872 0.0
C1954 C 0.76192 0.72298 0.1723 0.0
C1955 C 0.76847 0.72613 0.14507 0.0
H1956 H 0.75808 0.69539 0.20522 0.0
C1957 C 0.77122 0.70296 0.12881 0.0
H1958 H 0.76002 0.74039 0.18533 0.0
C1959 C 0.77003 0.67712 0.14012 0.0
C1960 C 0.76654 0.67416 0.16793 0.0
H1961 H 0.77639 0.7049 0.10769 0.0
H1962 H 0.77415 0.65975 0.12757 0.0
C1963 C 0.76118 0.6972 0.18368 0.0
C1964 C 0.60729 0.51958 0.39047 0.0
C1965 C 0.61019 0.51631 0.41832 0.0
H1966 H 0.57957 0.52568 0.35794 0.0
C1967 C 0.58712 0.51106 0.43405 0.0
H1968 H 0.62468 0.52361 0.37792 0.0
C1969 C 0.56136 0.5117 0.42262 0.0
C1970 C 0.55826 0.51804 0.39533 0.0
H1971 H 0.58888 0.50812 0.45562 0.0
H1972 H 0.54393 0.50991 0.43563 0.0
C1973 C 0.58147 0.52067 0.3791 0.0
C1974 C 0.77317 0.33741 0.68355 0.0
C1975 C 0.76779 0.36045 0.66781 0.0
H1976 H 0.77436 0.29423 0.68522 0.0
C1977 C 0.76428 0.35748 0.64 0.0
H1978 H 0.77629 0.33923 0.70509 0.0
C1979 C 0.76309 0.33164 0.6287 0.0
C1980 C 0.76587 0.30847 0.64496 0.0
H1981 H 0.76014 0.37484 0.62745 0.0
H1982 H 0.75791 0.32969 0.60758 0.0
C1983 C 0.77244 0.31163 0.67219 0.0
C1984 C 0.60115 0.94717 0.51117 0.0
C1985 C 0.61691 0.92414 0.51655 0.0
H1986 H 0.59944 0.99035 0.51001 0.0
C1987 C 0.64471 0.92714 0.5201 0.0
H1988 H 0.57962 0.94533 0.50803 0.0
C1989 C 0.65599 0.95299 0.52132 0.0
C1990 C 0.63971 0.97614 0.51854 0.0
H1991 H 0.65728 0.90978 0.52425 0.0
H1992 H 0.6771 0.95495 0.52652 0.0
C1993 C 0.61249 0.97296 0.51193 0.0
C1994 C 0.15602 0.58154 0.51301 0.0
C1995 C 0.13974 0.55839 0.51579 0.0
H1996 H 0.15731 0.62475 0.51009 0.0
C1997 C 0.11252 0.56157 0.5224 0.0
H1998 H 0.17713 0.57957 0.5078 0.0
C1999 C 0.10118 0.58736 0.52318 0.0
C2000 C 0.11694 0.61039 0.5178 0.0
H2001 H 0.09947 0.54418 0.52433 0.0
H2002 H 0.07965 0.5892 0.52632 0.0
C2003 C 0.14474 0.60739 0.51424 0.0
C2004 C 0.67729 0.89464 0.76465 0.0
C2005 C 0.67435 0.86681 0.76808 0.0
H2006 H 0.70505 0.9271 0.75836 0.0
C2007 C 0.69741 0.85108 0.77341 0.0
H2008 H 0.65991 0.90718 0.76055 0.0
C2009 C 0.72318 0.86247 0.7727 0.0
C2010 C 0.72631 0.88972 0.76621 0.0
H2011 H 0.69562 0.82953 0.77646 0.0
H2012 H 0.7406 0.84945 0.77458 0.0
C2013 C 0.70313 0.90597 0.76349 0.0
C2014 C 0.38972 0.42711 1.01429 0.0
C2015 C 0.41753 0.42413 0.01781 0.0
H2016 H 0.35732 0.45491 1.00788 0.0
C2017 C 0.43328 0.44717 0.02317 0.0
H2018 H 0.37717 0.40975 1.01016 0.0
C2019 C 0.42193 0.47296 0.02241 0.0
C2020 C 0.3947 0.47612 1.01583 0.0
H2021 H 0.45482 0.44535 0.0263 0.0
H2022 H 0.43496 0.49036 0.02432 0.0
C2023 C 0.37843 0.45296 1.01307 0.0
C2024 C 0.33753 0.68354 0.77327 0.0
C2025 C 0.36056 0.6678 0.76786 0.0
H2026 H 0.29435 0.68522 0.77445 0.0
C2027 C 0.35758 0.63999 0.76431 0.0
H2028 H 0.33936 0.70507 0.77641 0.0
C2029 C 0.33173 0.6287 0.76311 0.0
C2030 C 0.30857 0.64497 0.7659 0.0
H2031 H 0.37494 0.62744 0.76015 0.0
H2032 H 0.32978 0.60759 0.7579 0.0
C2033 C 0.31175 0.67219 0.77252 0.0
C2034 C 0.87849 0.08155 0.02134 0.0
C2035 C 0.89476 0.05839 0.01859 0.0
H2036 H 0.87723 0.12476 0.02426 0.0
C2037 C 0.92199 0.06155 1.01201 0.0
H2038 H 0.85737 0.0796 0.02652 0.0
C2039 C 0.93335 0.08734 1.01125 0.0
C2040 C 0.9176 0.11038 1.01661 0.0
H2041 H 0.93502 0.04415 1.01011 0.0
H2042 H 0.95489 0.08916 1.00814 0.0
C2043 C 0.88979 0.1074 0.02013 0.0
C2044 C 0.70294 0.12864 0.77148 0.0
C2045 C 0.72609 0.14492 0.76869 0.0
H2046 H 0.65973 0.12733 0.77438 0.0
C2047 C 0.7229 0.17213 0.76204 0.0
H2048 H 0.70491 0.10753 0.77671 0.0
C2049 C 0.69711 0.18346 0.76125 0.0
C2050 C 0.67408 0.1677 0.76663 0.0
H2051 H 0.74029 0.18517 0.76011 0.0
H2052 H 0.69526 0.20498 0.75808 0.0
C2053 C 0.67709 0.1399 0.77022 0.0
C2054 C 0.8576 0.8946 0.2703 0.0
C2055 C 0.86059 0.86681 0.26665 0.0
H2056 H 0.82979 0.92697 0.27683 0.0
C2057 C 0.83755 0.85107 0.26121 0.0
H2058 H 0.87496 0.90714 0.2745 0.0
C2059 C 0.81176 0.86242 0.26202 0.0
C2060 C 0.80859 0.88961 0.26872 0.0
H2061 H 0.83939 0.82955 0.258 0.0
H2062 H 0.79437 0.84938 0.26004 0.0
C2063 C 0.83174 0.90587 0.27155 0.0
C2064 C 0.51436 0.38956 0.10731 0.0
C2065 C 0.51803 0.41735 0.11033 0.0
H2066 H 0.50776 0.35723 0.07948 0.0
C2067 C 0.52342 0.43311 0.0873 0.0
H2068 H 0.5102 0.377 0.12466 0.0
C2069 C 0.52255 0.4218 0.0615 0.0
C2070 C 0.51584 0.39461 0.05831 0.0
H2071 H 0.52664 0.45463 0.08915 0.0
H2072 H 0.5245 0.43485 0.04412 0.0
C2073 C 0.51305 0.37832 0.08145 0.0
C2074 C 0.39463 0.76454 0.85719 0.0
C2075 C 0.3668 0.768 0.86012 0.0
H2076 H 0.4271 0.7582 0.82945 0.0
C2077 C 0.35109 0.77334 0.83705 0.0
H2078 H 0.40716 0.76043 0.87458 0.0
C2079 C 0.36249 0.77261 0.81129 0.0
C2080 C 0.38974 0.76608 0.80817 0.0
H2081 H 0.32954 0.77643 0.83883 0.0
H2082 H 0.34948 0.7745 0.79387 0.0
C2083 C 0.40597 0.76335 0.83136 0.0
C2084 C 0.02021 0.64479 0.60726 0.0
C2085 C 1.01668 0.61698 0.61023 0.0
H2086 H 0.02663 0.67719 0.57946 0.0
C2087 C 1.01131 0.60123 0.5872 0.0
H2088 H 0.02434 0.65734 0.62462 0.0
C2089 C 1.01208 0.61258 0.56141 0.0
C2090 C 0.01867 0.63981 0.55825 0.0
H2091 H 1.00818 0.57969 0.58902 0.0
H2092 H 1.01017 0.59955 0.54401 0.0
C2093 C 0.02143 0.65607 0.58141 0.0
C2094 C 0.1285 0.27131 0.33133 0.0
C2095 C 0.14475 0.26853 0.30816 0.0
H2096 H 0.12726 0.27422 0.37454 0.0
C2097 C 0.17198 0.26191 0.31131 0.0
H2098 H 0.10739 0.27652 0.32939 0.0
C2099 C 0.18335 0.26114 0.33709 0.0
C2100 C 0.16762 0.26652 0.36014 0.0
H2101 H 0.185 0.25999 0.2939 0.0
H2102 H 0.20488 0.25799 0.33889 0.0
C2103 C 0.13981 0.27007 0.35717 0.0
C2104 C 0.52277 0.61218 0.47295 0.0
C2105 C 0.51622 0.63942 0.47604 0.0
H2106 H 0.52658 0.57919 0.44545 0.0
C2107 C 0.51345 0.65562 0.45283 0.0
H2108 H 0.52469 0.59919 0.49039 0.0
C2109 C 0.51462 0.64424 0.42702 0.0
C2110 C 0.5181 0.61642 0.42412 0.0
H2111 H 0.50829 0.67675 0.45473 0.0
H2112 H 0.51047 0.65675 0.40962 0.0
C2113 C 0.52349 0.60074 0.4472 0.0
C2114 C 0.18353 0.77341 0.19692 0.0
C2115 C 0.16777 0.76801 0.1739 0.0
H2116 H 0.18525 0.7746 0.2401 0.0
C2117 C 0.13996 0.76446 0.17691 0.0
H2118 H 0.20506 0.77656 0.19508 0.0
C2119 C 0.1287 0.76325 0.20277 0.0
C2120 C 0.14498 0.76605 0.22591 0.0
H2121 H 0.1274 0.76029 0.15956 0.0
H2122 H 0.10759 0.75804 0.20474 0.0
C2123 C 0.1722 0.77267 0.22272 0.0
C2124 C 1.01183 0.42223 0.9728 0.0
C2125 C 0.01834 0.39498 0.97593 0.0
H2126 H 1.00807 0.45518 0.94524 0.0
C2127 C 0.0211 0.37875 0.95275 0.0
H2128 H 1.00992 0.43524 0.99022 0.0
C2129 C 0.01996 0.39008 0.92692 0.0
C2130 C 1.01651 0.41791 0.92398 0.0
H2131 H 0.02624 0.35762 0.95467 0.0
H2132 H 0.02409 0.37755 0.90954 0.0
C2133 C 1.01114 0.43363 0.94703 0.0
C2134 C 0.40573 0.27123 0.70277 0.0
C2135 C 0.38947 0.26846 0.72594 0.0
H2136 H 0.40698 0.27418 0.65956 0.0
C2137 C 0.36224 0.26191 0.72278 0.0
H2138 H 0.42686 0.27639 0.70471 0.0
C2139 C 0.35087 0.26118 0.697 0.0
C2140 C 0.36661 0.26655 0.67396 0.0
H2141 H 0.34921 0.25999 0.74019 0.0
H2142 H 0.32933 0.25808 0.69519 0.0
C2143 C 0.39443 0.27004 0.67693 0.0
C2144 C 0.08729 0.5233 0.43328 0.0
C2145 C 0.11032 0.51789 0.41753 0.0
H2146 H 0.0441 0.52446 0.43499 0.0
C2147 C 0.10732 0.51429 0.38973 0.0
H2148 H 0.08913 0.52648 0.4548 0.0
C2149 C 0.08146 0.51305 0.37846 0.0
C2150 C 0.05831 0.51586 0.39474 0.0
H2151 H 0.12468 0.51012 0.37718 0.0
H2152 H 0.0795 0.50781 0.35736 0.0
C2153 C 0.0615 0.52251 0.42194 0.0
C2154 C 0.26214 0.31144 0.17176 0.0
C2155 C 0.26878 0.30833 0.14454 0.0
H2156 H 0.25819 0.33898 0.2047 0.0
C2157 C 0.27158 0.33152 0.12833 0.0
H2158 H 0.2602 0.29402 0.18476 0.0
C2159 C 0.27034 0.35735 0.13967 0.0
C2160 C 0.26676 0.36027 0.16748 0.0
H2161 H 0.2768 0.32961 0.10722 0.0
H2162 H 0.2745 0.37474 0.12715 0.0
C2163 C 0.26136 0.33721 0.18317 0.0
C2164 C 0.4271 0.52015 0.88977 0.0
C2165 C 0.42409 0.51655 0.91757 0.0
H2166 H 0.45493 0.52663 0.85741 0.0
C2167 C 0.44712 0.51114 0.93333 0.0
H2168 H 0.40975 0.52433 0.87721 0.0
C2169 C 0.47291 0.51192 0.922 0.0
C2170 C 0.47611 0.51858 0.89479 0.0
H2171 H 0.44527 0.50796 0.95485 0.0
H2172 H 0.4903 0.50997 0.93505 0.0
C2173 C 0.45296 0.52139 0.87851 0.0
C2174 C 0.27269 0.7232 0.67197 0.0
C2175 C 0.26614 0.72633 0.64473 0.0
H2176 H 0.27655 0.69563 0.70489 0.0
C2177 C 0.26341 0.70316 0.62848 0.0
H2178 H 0.27457 0.74061 0.68499 0.0
C2179 C 0.26463 0.67732 0.63979 0.0
C2180 C 0.26812 0.67437 0.66761 0.0
H2181 H 0.25825 0.70508 0.60736 0.0
H2182 H 0.26053 0.65994 0.62725 0.0
C2183 C 0.27346 0.69743 0.68335 0.0
C2184 C 0.06141 0.51191 0.11223 0.0
C2185 C 0.05831 0.51838 0.13949 0.0
H2186 H 0.08894 0.50816 0.07926 0.0
C2187 C 0.0815 0.52108 0.15572 0.0
H2188 H 0.04398 0.51005 0.09923 0.0
C2189 C 0.10733 0.51991 0.14436 0.0
C2190 C 0.11024 0.5165 0.11653 0.0
H2191 H 0.0796 0.52618 0.17686 0.0
H2192 H 0.12472 0.524 0.1569 0.0
C2193 C 0.08717 0.51119 0.10081 0.0
C2194 C 0.26344 0.33164 0.90556 0.0
C2195 C 0.26618 0.30848 0.88929 0.0
H2196 H 0.2605 0.37485 0.90684 0.0
C2197 C 0.27271 0.31165 0.86205 0.0
H2198 H 0.2583 0.32969 0.92669 0.0
C2199 C 0.27344 0.33743 0.85069 0.0
C2200 C 0.26809 0.36047 0.86645 0.0
H2201 H 0.27461 0.29425 0.84901 0.0
H2202 H 0.27652 0.33926 0.82915 0.0
C2203 C 0.26462 0.35749 0.89427 0.0
C2204 C 0.44712 0.52347 0.60091 0.0
C2205 C 0.42406 0.51811 0.61662 0.0
H2206 H 0.49031 0.52466 0.59931 0.0
C2207 C 0.42698 0.51467 0.64445 0.0
H2208 H 0.44534 0.52653 0.57936 0.0
C2209 C 0.45281 0.51351 0.6558 0.0
C2210 C 0.476 0.51626 0.63957 0.0
H2211 H 0.40959 0.51054 0.65698 0.0
H2212 H 0.45472 0.50838 0.67693 0.0
C2213 C 0.47288 0.52277 0.61232 0.0
C2214 C 0.27133 0.7028 0.40579 0.0
C2215 C 0.26852 0.72595 0.38952 0.0
H2216 H 0.27431 0.65959 0.40706 0.0
C2217 C 0.2619 0.72277 0.36231 0.0
H2218 H 0.27654 0.70476 0.4269 0.0
C2219 C 0.26116 0.69698 0.35096 0.0
C2220 C 0.26658 0.67395 0.3667 0.0
H2221 H 0.25995 0.74017 0.34927 0.0
H2222 H 0.25802 0.69515 0.32943 0.0
C2223 C 0.27013 0.67694 0.39451 0.0
C2224 C 0.42193 0.0615 0.52241 0.0
C2225 C 0.39471 0.05833 0.51579 0.0
H2226 H 0.45481 0.08911 0.52634 0.0
C2227 C 0.37844 0.08148 0.51302 0.0
H2228 H 0.43496 0.0441 0.52433 0.0
C2229 C 0.38972 0.10733 0.51427 0.0
C2230 C 0.41752 0.11032 0.51782 0.0
H2231 H 0.35733 0.07953 0.50781 0.0
H2232 H 0.37716 0.12469 0.51012 0.0
C2233 C 0.43327 0.08728 0.5232 0.0
C2234 C 0.93316 0.44718 0.51128 0.0
C2235 C 0.91742 0.42415 0.51669 0.0
H2236 H 0.93486 0.49036 0.51013 0.0
C2237 C 0.88962 0.42714 0.5203 0.0
H2238 H 0.95468 0.44535 0.50809 0.0
C2239 C 0.87834 0.45299 0.52156 0.0
C2240 C 0.89461 0.47615 0.51875 0.0
H2241 H 0.87707 0.40978 0.52448 0.0
H2242 H 0.85724 0.45495 0.52681 0.0
C2243 C 0.92182 0.47297 0.51208 0.0
C2244 C 0.33719 0.18333 0.26106 0.0
C2245 C 0.36024 0.16759 0.26643 0.0
H2246 H 0.29401 0.18498 0.25992 0.0
C2247 C 0.35728 0.13978 0.26996 0.0
H2248 H 0.339 0.20486 0.25794 0.0
C2249 C 0.33144 0.12848 0.27117 0.0
C2250 C 0.30827 0.14473 0.26841 0.0
H2251 H 0.37465 0.12724 0.27409 0.0
H2252 H 0.32951 0.10736 0.27636 0.0
C2253 C 0.31141 0.17195 0.26183 0.0
C2254 C 0.60136 0.58719 1.0117 0.0
C2255 C 0.61707 0.61027 1.01704 0.0
H2256 H 0.59975 0.54401 1.0106 0.0
C2257 C 0.64488 0.60733 0.02061 0.0
H2258 H 0.57983 0.58898 1.00855 0.0
C2259 C 0.65621 0.5815 0.02188 0.0
C2260 C 0.63998 0.55831 0.01912 0.0
H2261 H 0.65741 0.62472 0.02474 0.0
H2262 H 0.67733 0.57959 0.02709 0.0
C2263 C 0.61276 0.56143 1.01251 0.0
C2264 C 0.70274 0.40589 0.27141 0.0
C2265 C 0.72591 0.38964 0.26859 0.0
H2266 H 0.65954 0.40711 0.27443 0.0
C2267 C 0.72276 0.36242 0.26198 0.0
H2268 H 0.70468 0.427 0.27662 0.0
C2269 C 0.69698 0.35104 0.26126 0.0
C2270 C 0.67394 0.36677 0.26669 0.0
H2271 H 0.74017 0.3494 0.26002 0.0
H2272 H 0.69517 0.32951 0.25812 0.0
C2273 C 0.6769 0.39458 0.27024 0.0
C2274 C 0.14476 0.92726 1.01433 0.0
C2275 C 0.11694 0.9243 0.01781 0.0
H2276 H 0.1772 0.95503 1.00796 0.0
C2277 C 0.1012 0.94736 0.02314 0.0
H2278 H 0.15731 0.90989 1.01023 0.0
C2279 C 0.11258 0.97313 0.02238 0.0
C2280 C 0.13982 0.97627 1.01584 0.0
H2281 H 0.07966 0.94555 0.02623 0.0
H2282 H 0.09955 0.99054 0.02426 0.0
C2283 C 0.15608 0.9531 1.01312 0.0
C2284 C 0.33153 0.90578 0.26313 0.0
C2285 C 0.30838 0.88951 0.26588 0.0
H2286 H 0.37474 0.90706 0.26021 0.0
C2287 C 0.31154 0.86227 0.27243 0.0
H2288 H 0.32958 0.9269 0.25798 0.0
C2289 C 0.33733 0.85092 0.27317 0.0
C2290 C 0.36037 0.86668 0.26782 0.0
H2291 H 0.29414 0.84924 0.27432 0.0
H2292 H 0.33916 0.82938 0.27626 0.0
C2293 C 0.35738 0.89449 0.26433 0.0
C2294 C 0.19699 0.18355 0.7733 0.0
C2295 C 0.17395 0.16781 0.76791 0.0
H2296 H 0.24018 0.18522 0.77449 0.0
C2297 C 0.17692 0.14001 0.76437 0.0
H2298 H 0.19518 0.20508 0.77644 0.0
C2299 C 0.20277 0.12871 0.76316 0.0
C2300 C 0.22593 0.14496 0.76595 0.0
H2301 H 0.15956 0.12746 0.76021 0.0
H2302 H 0.20471 0.10759 0.75796 0.0
C2303 C 0.22277 0.17218 0.77255 0.0
C2304 C 0.01927 0.02865 0.24174 0.0
C2305 C 0.02003 1.00036 0.24433 0.0
H2306 H 0.01942 0.06689 0.26193 0.0
C2307 C 0.01915 0.98888 0.27004 0.0
H2308 H 0.01956 0.03805 0.22204 0.0
C2309 C 0.01937 1.00545 0.29278 0.0
C2310 C 0.02002 0.03375 0.29019 0.0
H2311 H 0.01962 0.96721 0.27258 0.0
H2312 H 0.01974 0.99606 0.31249 0.0
C2313 C 0.01903 0.04522 0.26448 0.0
C2314 C 0.2789 0.76952 0.54262 0.0
C2315 C 0.25061 0.77018 0.54002 0.0
H2316 H 0.31715 0.7697 0.52243 0.0
C2317 C 0.23913 0.76915 0.51432 0.0
H2318 H 0.28829 0.76991 0.56232 0.0
C2319 C 0.25571 0.76933 0.49158 0.0
C2320 C 0.284 0.77007 0.49417 0.0
H2321 H 0.21746 0.76954 0.51177 0.0
H2322 H 0.24632 0.76959 0.47187 0.0
C2323 C 0.29548 0.76923 0.51988 0.0
C2324 C 0.5153 0.98924 0.76442 0.0
C2325 C 0.51436 1.00069 0.79014 0.0
H2326 H 0.51472 0.99644 0.72198 0.0
C2327 C 0.51503 0.02899 0.79275 0.0
H2328 H 0.5149 0.96757 0.76186 0.0
C2329 C 0.51523 0.04558 0.77002 0.0
C2330 C 0.5143 0.03412 0.74431 0.0
H2331 H 0.5147 0.03837 0.81246 0.0
H2332 H 0.51478 0.06724 0.77258 0.0
C2333 C 0.51504 1.00582 0.74169 0.0
C2334 C 0.27914 0.26511 0.99138 0.0
C2335 C 0.25084 0.26445 0.994 0.0
H2336 H 0.31739 0.26485 1.01155 0.0
C2337 C 0.23938 0.26542 0.01972 0.0
H2338 H 0.28851 0.26476 0.97167 0.0
C2339 C 0.25597 0.26517 0.04245 0.0
C2340 C 0.28427 0.26442 0.03983 0.0
H2341 H 0.21771 0.26503 0.02228 0.0
H2342 H 0.24659 0.26487 0.06216 0.0
C2343 C 0.29573 0.26532 1.01412 0.0
C2344 C 0.24195 0.01945 0.02859 0.0
C2345 C 0.24454 0.02016 1.00029 0.0
H2346 H 0.26214 0.01961 0.06683 0.0
C2347 C 0.27025 0.0192 0.98881 0.0
H2348 H 0.22224 0.01979 0.03798 0.0
C2349 C 0.29299 0.01941 1.00538 0.0
C2350 C 0.2904 0.0201 0.03368 0.0
H2351 H 0.27279 0.01964 0.96714 0.0
H2352 H 0.31269 0.01972 0.99599 0.0
C2353 C 0.26469 0.01919 0.04516 0.0
C2354 C 0.26526 1.01432 0.29535 0.0
C2355 C 0.26432 0.04003 0.28389 0.0
H2356 H 0.26472 0.97188 0.28815 0.0
C2357 C 0.26504 0.04264 0.2556 0.0
H2358 H 0.26482 1.01176 0.31702 0.0
C2359 C 0.26528 0.01991 0.23901 0.0
C2360 C 0.26435 0.9942 0.25047 0.0
H2361 H 0.26471 0.06235 0.24622 0.0
H2362 H 0.26486 0.02247 0.21734 0.0
C2363 C 0.26504 0.99158 0.27877 0.0
C2364 C 0.24163 1.01507 0.50532 0.0
C2365 C 0.24424 1.01446 0.53362 0.0
H2366 H 0.26181 1.01478 0.46707 0.0
C2367 C 0.26995 1.01545 0.54508 0.0
H2368 H 0.22193 1.0147 0.49594 0.0
C2369 C 0.29269 1.01519 0.5285 0.0
C2370 C 0.29008 1.0144 0.5002 0.0
H2371 H 0.27251 1.01509 0.56675 0.0
H2372 H 0.3124 1.01491 0.53788 0.0
C2373 C 0.26437 1.01528 0.48874 0.0
C2374 C 0.26911 1.01458 0.73896 0.0
C2375 C 0.26999 0.04029 0.75044 0.0
H2376 H 0.26974 0.97214 0.74613 0.0
C2377 C 0.26928 0.04288 0.77874 0.0
H2378 H 0.26954 1.01204 0.71729 0.0
C2379 C 0.26909 0.02013 0.79531 0.0
C2380 C 0.27007 0.99443 0.78383 0.0
H2381 H 0.26957 0.06258 0.78814 0.0
H2382 H 0.26951 0.02267 0.81698 0.0
C2383 C 0.26938 0.99184 0.75553 0.0
C2384 C 0.02861 0.24179 0.01932 0.0
C2385 C 1.00031 0.2444 0.02007 0.0
H2386 H 0.06686 0.26197 0.01944 0.0
C2387 C 0.98884 0.27011 0.01913 0.0
H2388 H 0.038 0.22209 0.01965 0.0
C2389 C 1.00543 0.29285 0.01931 0.0
C2390 C 0.03372 0.29024 0.01997 0.0
H2391 H 0.96718 0.27266 0.01959 0.0
H2392 H 0.99604 0.31255 0.01964 0.0
C2393 C 0.04519 0.26453 0.01904 0.0
C2394 C 0.54505 0.26991 1.01537 0.0
C2395 C 0.53358 0.24421 1.01434 0.0
H2396 H 0.53786 0.31236 1.01487 0.0
C2397 C 0.50528 0.2416 1.01494 0.0
H2398 H 0.56672 0.27247 1.01503 0.0
C2399 C 0.4887 0.26434 1.01516 0.0
C2400 C 0.50018 0.29005 1.01431 0.0
H2401 H 0.4959 0.2219 1.01454 0.0
H2402 H 0.46703 0.26179 1.01464 0.0
C2403 C 0.52847 0.29265 1.01512 0.0
C2404 C 0.01993 0.23924 0.26531 0.0
C2405 C 0.99422 0.25071 0.26436 0.0
H2406 H 0.06237 0.24642 0.26473 0.0
C2407 C 0.99162 0.27901 0.26501 0.0
H2408 H 0.02248 0.21757 0.26493 0.0
C2409 C 1.01437 0.29558 0.2652 0.0
C2410 C 0.04007 0.28411 0.26428 0.0
H2411 H 0.97192 0.2884 0.26467 0.0
H2412 H 1.01182 0.31725 0.26473 0.0
C2413 C 0.04267 0.25581 0.26504 0.0
C2414 C 1.00597 0.74185 0.5151 0.0
C2415 C 0.03426 0.74445 0.51434 0.0
H2416 H 0.96772 0.76204 0.51499 0.0
C2417 C 0.04574 0.77016 0.51524 0.0
H2418 H 0.99658 0.72215 0.5148 0.0
C2419 C 0.02916 0.7929 0.51504 0.0
C2420 C 1.00086 0.7903 0.5144 0.0
H2421 H 0.06741 0.77271 0.51477 0.0
H2422 H 0.03855 0.8126 0.51469 0.0
C2423 C 0.98939 0.76459 0.51537 0.0
C2424 C 0.50595 0.79268 0.51931 0.0
C2425 C 0.53425 0.79008 0.52008 0.0
H2426 H 0.46771 0.77248 0.51942 0.0
C2427 C 0.54572 0.76437 0.51917 0.0
H2428 H 0.49656 0.81238 0.51961 0.0
C2429 C 0.52915 0.74163 0.51938 0.0
C2430 C 0.50085 0.74423 0.52001 0.0
H2431 H 0.56739 0.76183 0.51965 0.0
H2432 H 0.53854 0.72193 0.51973 0.0
C2433 C 0.48938 0.76993 0.51905 0.0
C2434 C 1.01466 0.73906 0.26915 0.0
C2435 C 0.04037 0.75053 0.27 0.0
H2436 H 0.97221 0.74625 0.26982 0.0
C2437 C 0.04297 0.77882 0.26924 0.0
H2438 H 1.0121 0.71739 0.26962 0.0
C2439 C 0.02023 0.7954 0.26905 0.0
C2440 C 0.99452 0.78393 0.27008 0.0
H2441 H 0.06268 0.78821 0.2695 0.0
H2442 H 0.02279 0.81707 0.26944 0.0
C2443 C 0.99192 0.75564 0.26942 0.0
C2444 C 0.54264 0.27867 0.76927 0.0
C2445 C 0.54002 0.25038 0.77004 0.0
H2446 H 0.52247 0.31692 0.76939 0.0
C2447 C 0.51431 0.23891 0.76916 0.0
H2448 H 0.56234 0.28805 0.76955 0.0
C2449 C 0.49158 0.2555 0.76937 0.0
C2450 C 0.49419 0.2838 0.77 0.0
H2451 H 0.51175 0.21725 0.76964 0.0
H2452 H 0.47187 0.24612 0.76974 0.0
C2453 C 0.5199 0.29526 0.76901 0.0
C2454 C 1.01551 0.98937 0.77002 0.0
C2455 C 1.0145 1.00084 0.74431 0.0
H2456 H 1.015 0.99655 0.81247 0.0
C2457 C 1.01513 0.02914 0.74171 0.0
H2458 H 1.01514 0.9677 0.77257 0.0
C2459 C 1.01536 0.04571 0.76446 0.0
C2460 C 1.01449 0.03423 0.79016 0.0
H2461 H 1.01475 0.03852 0.72201 0.0
H2462 H 1.01487 0.06738 0.76191 0.0
C2463 C 1.01527 1.00594 0.79276 0.0
C2464 C 0.77874 0.26517 0.54286 0.0
C2465 C 0.75044 0.26445 0.54026 0.0
H2466 H 0.81699 0.26496 0.52268 0.0
C2467 C 0.73898 0.26534 0.51454 0.0
H2468 H 0.78812 0.26487 0.56257 0.0
C2469 C 0.75556 0.26508 0.49181 0.0
C2470 C 0.78386 0.2644 0.49442 0.0
H2471 H 0.71731 0.2649 0.51199 0.0
H2472 H 0.74618 0.26472 0.4721 0.0
C2473 C 0.79532 0.26537 0.52012 0.0
C2474 C 0.51936 0.98881 0.26442 0.0
C2475 C 0.52021 1.00029 0.29013 0.0
H2476 H 0.51999 0.996 0.22197 0.0
C2477 C 0.51944 0.02858 0.29273 0.0
H2478 H 0.51985 0.96714 0.26187 0.0
C2479 C 0.51921 0.04515 0.26998 0.0
C2480 C 0.52023 0.03368 0.24428 0.0
H2481 H 0.5197 0.03797 0.31243 0.0
H2482 H 0.51958 0.06682 0.27254 0.0
C2483 C 0.5196 1.00538 0.24168 0.0
C2484 C 0.75561 0.76943 0.04295 0.0
C2485 C 0.78391 0.77012 0.04035 0.0
H2486 H 0.71737 0.76965 0.02275 0.0
C2487 C 0.79539 0.76916 1.01464 0.0
H2488 H 0.74622 0.76978 0.06265 0.0
C2489 C 0.77882 0.7694 0.9919 0.0
C2490 C 0.75052 0.77012 0.9945 0.0
H2491 H 0.81706 0.76957 1.0121 0.0
H2492 H 0.78821 0.76971 0.9722 0.0
C2493 C 0.73904 0.76921 0.0202 0.0
C2494 C 0.76995 1.0154 0.98922 0.0
C2495 C 0.74424 1.01443 1.00069 0.0
H2496 H 0.8124 1.01487 0.99642 0.0
C2497 C 0.74163 1.0151 0.02898 0.0
H2498 H 0.77251 1.015 0.96755 0.0
C2499 C 0.76437 1.01534 0.04557 0.0
C2500 C 0.79008 1.01443 0.0341 0.0
H2501 H 0.72192 1.01475 0.03837 0.0
H2502 H 0.76181 1.01488 0.06723 0.0
C2503 C 0.79269 1.01517 1.0058 0.0
C2504 C 0.76942 0.04291 0.75589 0.0
C2505 C 0.77016 0.0403 0.78418 0.0
H2506 H 0.76961 0.02274 0.71764 0.0
C2507 C 0.76929 1.01459 0.79565 0.0
H2508 H 0.7697 0.06262 0.74651 0.0
C2509 C 0.76954 0.99186 0.77907 0.0
C2510 C 0.77021 0.99447 0.75077 0.0
H2511 H 0.76975 1.01204 0.81732 0.0
H2512 H 0.76992 0.97215 0.78845 0.0
C2513 C 0.76921 0.02018 0.73931 0.0
C2514 C 0.74173 0.01933 0.50586 0.0
C2515 C 0.74433 0.02012 0.53415 0.0
H2516 H 0.76193 0.01945 0.46762 0.0
C2517 C 0.77004 0.01927 0.54563 0.0
H2518 H 0.72203 0.01959 0.49647 0.0
C2519 C 0.79278 0.0195 0.52906 0.0
C2520 C 0.79018 0.02011 0.50076 0.0
H2521 H 0.77258 0.01977 0.5673 0.0
H2522 H 0.81248 0.01989 0.53845 0.0
C2523 C 0.76448 0.01909 0.48929 0.0
C2524 C 0.76537 0.9916 0.25603 0.0
C2525 C 0.76454 0.9942 0.28432 0.0
H2526 H 0.76525 1.01178 0.21778 0.0
C2527 C 0.76531 0.01991 0.2958 0.0
H2528 H 0.76516 0.97189 0.24664 0.0
C2529 C 0.76505 0.04265 0.27922 0.0
C2530 C 0.76448 0.04004 0.25092 0.0
H2531 H 0.76478 0.02246 0.31746 0.0
H2532 H 0.7646 0.06235 0.2886 0.0
C2533 C 0.76557 1.01434 0.23945 0.0
C2534 C 0.04576 0.76454 1.01532 0.0
C2535 C 0.03427 0.79024 1.01438 0.0
H2536 H 0.0386 0.72209 1.0148 0.0
C2537 C 1.00598 0.79283 1.01513 0.0
H2538 H 0.06743 0.762 1.01485 0.0
C2539 C 0.98941 0.77008 1.01541 0.0
C2540 C 1.0009 0.74438 1.01448 0.0
H2541 H 0.99658 0.81253 1.01481 0.0
H2542 H 0.96774 0.77262 1.01502 0.0
C2543 C 0.0292 0.74179 1.01513 0.0
C2544 C 0.52916 0.79272 0.01946 0.0
C2545 C 0.50086 0.79011 0.0201 0.0
H2546 H 0.56741 0.77254 0.01978 0.0
C2547 C 0.4894 0.7644 0.01917 0.0
H2548 H 0.53855 0.81243 0.01979 0.0
C2549 C 0.50598 0.74166 0.01947 0.0
C2550 C 0.53428 0.74427 0.02024 0.0
H2551 H 0.46773 0.76184 0.01955 0.0
H2552 H 0.4966 0.72196 0.0198 0.0
C2553 C 0.54574 0.76998 0.0193 0.0
C2554 C 1.01458 0.79541 0.76917 0.0
C2555 C 0.04029 0.78394 0.77008 0.0
H2556 H 0.97214 0.7882 0.7698 0.0
C2557 C 0.0429 0.75565 0.76939 0.0
H2558 H 1.01202 0.81707 0.76959 0.0
C2559 C 0.02017 0.73906 0.76921 0.0
C2560 C 0.99446 0.75053 0.77017 0.0
H2561 H 0.06261 0.74627 0.76969 0.0
H2562 H 0.02273 0.7174 0.76965 0.0
C2563 C 0.99184 0.77882 0.76945 0.0
C2564 C 1.00525 0.24166 0.51948 0.0
C2565 C 0.03355 0.24428 0.52009 0.0
H2566 H 0.967 0.26184 0.51976 0.0
C2567 C 0.04501 0.26999 0.51908 0.0
H2568 H 0.99587 0.22196 0.51986 0.0
C2569 C 0.02843 0.29272 0.51933 0.0
C2570 C 1.00014 0.29011 0.52012 0.0
H2571 H 0.06668 0.27255 0.51944 0.0
H2572 H 0.03781 0.31243 0.5196 0.0
C2573 C 0.98867 0.2644 0.51926 0.0
C2574 C 0.50525 0.29285 0.5151 0.0
C2575 C 0.53355 0.29026 0.5145 0.0
H2576 H 0.46701 0.27265 0.51478 0.0
C2577 C 0.54503 0.26455 0.5155 0.0
H2578 H 0.49586 0.31255 0.51473 0.0
C2579 C 0.52846 0.24181 0.51522 0.0
C2580 C 0.50016 0.2444 0.51442 0.0
H2581 H 0.5667 0.262 0.51515 0.0
H2582 H 0.53785 0.22211 0.51494 0.0
C2583 C 0.48868 0.27011 0.51529 0.0
C2584 C 1.01433 0.23922 0.76544 0.0
C2585 C 0.04003 0.25069 0.76438 0.0
H2586 H 0.97188 0.24639 0.76502 0.0
C2587 C 0.04263 0.27899 0.765 0.0
H2588 H 1.01178 0.21755 0.76508 0.0
C2589 C 0.01988 0.29556 0.76528 0.0
C2590 C 0.99417 0.28408 0.76447 0.0
H2591 H 0.06233 0.28838 0.76458 0.0
H2592 H 0.02242 0.31723 0.76478 0.0
C2593 C 0.99158 0.25579 0.76525 0.0
C2594 C 0.51453 0.73909 0.26545 0.0
C2595 C 0.54024 0.75057 0.26461 0.0
H2596 H 0.47209 0.74627 0.26474 0.0
C2597 C 0.54283 0.77887 0.26532 0.0
H2598 H 0.51198 0.71742 0.26501 0.0
C2599 C 0.52009 0.79544 0.26547 0.0
C2600 C 0.49439 0.78396 0.26444 0.0
H2601 H 0.56254 0.78826 0.26506 0.0
H2602 H 0.52264 0.81711 0.26505 0.0
C2603 C 0.49179 0.75567 0.26513 0.0
C2604 C 0.51923 0.54578 0.76453 0.0
C2605 C 0.52005 0.53429 0.79023 0.0
H2606 H 0.51986 0.53861 0.72208 0.0
C2607 C 0.51921 0.506 0.79282 0.0
H2608 H 0.51977 0.56745 0.76199 0.0
C2609 C 0.51895 0.48943 0.77007 0.0
C2610 C 0.52 0.50091 0.74437 0.0
H2611 H 0.51945 0.4966 0.81252 0.0
H2612 H 0.51927 0.46776 0.77262 0.0
C2613 C 0.51944 0.52921 0.74178 0.0
C2614 C 0.73933 0.2692 1.01488 0.0
C2615 C 0.75083 0.27008 0.04058 0.0
H2616 H 0.74646 0.26982 0.97243 0.0
C2617 C 0.77913 0.26936 0.04314 0.0
H2618 H 0.71765 0.26965 1.01236 0.0
C2619 C 0.79568 0.26915 0.02038 0.0
C2620 C 0.78417 0.27014 0.99468 0.0
H2621 H 0.78855 0.26964 0.06283 0.0
H2622 H 0.81735 0.26956 0.0229 0.0
C2623 C 0.75587 0.26946 0.99212 0.0
C2624 C 1.01492 0.50539 0.24169 0.0
C2625 C 1.01435 0.53369 0.2443 0.0
H2626 H 1.01462 0.46714 0.26186 0.0
C2627 C 1.0154 0.54514 0.27002 0.0
H2628 H 1.01451 0.49601 0.22198 0.0
C2629 C 1.01515 0.52856 0.29275 0.0
C2630 C 1.01433 0.50027 0.29014 0.0
H2631 H 1.01507 0.56681 0.27258 0.0
H2632 H 1.01492 0.53794 0.31246 0.0
C2633 C 1.01515 0.4888 0.26442 0.0
C2634 C 0.79542 0.76529 0.51476 0.0
C2635 C 0.78396 0.76443 0.54048 0.0
H2636 H 0.7882 0.76464 0.47232 0.0
C2637 C 0.75567 0.76518 0.5431 0.0
H2638 H 0.81709 0.76483 0.5122 0.0
C2639 C 0.73908 0.76537 0.52037 0.0
C2640 C 0.75053 0.76436 0.49466 0.0
H2641 H 0.74629 0.76491 0.56281 0.0
H2642 H 0.71741 0.76498 0.52294 0.0
C2643 C 0.77883 0.76503 0.49203 0.0
C2644 C 0.74156 0.51952 0.52946 0.0
C2645 C 0.74414 0.5201 0.50116 0.0
H2646 H 0.76179 0.51982 0.56768 0.0
C2647 C 0.76983 0.51905 0.48966 0.0
H2648 H 0.72187 0.51994 0.53887 0.0
C2649 C 0.79259 0.51928 0.50621 0.0
C2650 C 0.79002 0.52011 0.53451 0.0
H2651 H 0.77236 0.51937 0.46799 0.0
H2652 H 0.81228 0.51952 0.4968 0.0
C2653 C 0.76432 0.51929 0.54601 0.0
C2654 C 0.76498 0.49178 0.77895 0.0
C2655 C 0.7643 0.4944 0.75065 0.0
H2656 H 0.76482 0.51195 0.8172 0.0
C2657 C 0.7653 0.5201 0.73919 0.0
H2658 H 0.7646 0.47207 0.78833 0.0
C2659 C 0.76512 0.54284 0.75578 0.0
C2660 C 0.7644 0.54023 0.78407 0.0
H2661 H 0.76489 0.52267 0.71752 0.0
H2662 H 0.76484 0.56255 0.7464 0.0
C2663 C 0.76527 0.51451 0.79553 0.0
C2664 C 0.77047 0.51534 0.04588 0.0
C2665 C 0.74474 0.51442 0.03445 0.0
H2666 H 0.8129 0.51477 0.03861 0.0
C2667 C 0.74208 0.51515 1.00616 0.0
H2668 H 0.77306 0.51489 0.06754 0.0
C2669 C 0.76479 0.51539 0.98954 0.0
C2670 C 0.79052 0.51444 1.00096 0.0
H2671 H 0.72236 0.51484 0.99681 0.0
H2672 H 0.7622 0.51499 0.96788 0.0
C2673 C 0.79318 0.51512 0.02926 0.0
C2674 C 0.76925 0.49173 0.2558 0.0
C2675 C 0.76999 0.49432 0.2841 0.0
H2676 H 0.76945 0.51193 0.21756 0.0
C2677 C 0.76914 0.52002 0.29558 0.0
H2678 H 0.76951 0.47202 0.24641 0.0
C2679 C 0.76942 0.54277 0.27901 0.0
C2680 C 0.77008 0.54017 0.25071 0.0
H2681 H 0.7696 0.52257 0.31725 0.0
H2682 H 0.76981 0.56247 0.28841 0.0
C2683 C 0.76906 0.51447 0.23923 0.0
C2684 C 0.52021 0.73917 0.76532 0.0
C2685 C 0.49451 0.75064 0.7643 0.0
H2686 H 0.56266 0.74635 0.76487 0.0
C2687 C 0.4919 0.77893 0.76496 0.0
H2688 H 0.52277 0.7175 0.76493 0.0
C2689 C 0.51464 0.79551 0.76523 0.0
C2690 C 0.54035 0.78404 0.76438 0.0
H2691 H 0.4722 0.78832 0.76457 0.0
H2692 H 0.51209 0.81718 0.76477 0.0
C2693 C 0.54295 0.75574 0.76513 0.0
C2694 C 0.51486 0.50487 0.29305 0.0
C2695 C 0.51447 0.53318 0.29043 0.0
H2696 H 0.51448 0.46662 0.27285 0.0
C2697 C 0.51581 0.54463 0.26473 0.0
H2698 H 0.51422 0.49549 0.31275 0.0
C2699 C 0.51567 0.52805 0.242 0.0
C2700 C 0.51464 0.49976 0.24459 0.0
H2701 H 0.51565 0.5663 0.26217 0.0
H2702 H 0.51565 0.53743 0.22229 0.0
C2703 C 0.51517 0.48829 0.27031 0.0
C2704 C 0.29541 0.76535 0.01978 0.0
C2705 C 0.28394 0.76442 0.99407 0.0
H2706 H 0.28821 0.76477 0.06222 0.0
C2707 C 0.25564 0.76512 0.99146 0.0
H2708 H 0.31708 0.76492 0.02233 0.0
C2709 C 0.23906 0.76535 1.0142 0.0
C2710 C 0.25053 0.76441 0.03991 0.0
H2711 H 0.24625 0.7648 0.97176 0.0
H2712 H 0.21739 0.76492 1.01165 0.0
C2713 C 0.27883 0.76511 0.04251 0.0
C2714 C 0.01939 0.54577 0.77001 0.0
C2715 C 0.02023 0.53431 0.74429 0.0
H2716 H 0.02003 0.53857 0.81245 0.0
C2717 C 0.01943 0.50601 0.74168 0.0
H2718 H 0.0199 0.56744 0.77256 0.0
C2719 C 0.01919 0.48943 0.76442 0.0
C2720 C 0.02022 0.50089 0.79013 0.0
H2721 H 0.01968 0.49663 0.72197 0.0
H2722 H 0.01954 0.46776 0.76185 0.0
C2723 C 0.01962 0.52919 0.79274 0.0
C2724 C 0.2389 0.26923 0.51987 0.0
C2725 C 0.25037 0.27007 0.49416 0.0
H2726 H 0.24608 0.2699 0.56232 0.0
C2727 C 0.27867 0.26931 0.49157 0.0
H2728 H 0.21723 0.26971 0.52242 0.0
C2729 C 0.29524 0.26911 0.51431 0.0
C2730 C 0.28377 0.27014 0.54001 0.0
H2731 H 0.28806 0.26956 0.47186 0.0
H2732 H 0.31691 0.26948 0.51176 0.0
C2733 C 0.25547 0.2695 0.54261 0.0
C2734 C 0.27007 0.51525 0.48876 0.0
C2735 C 0.24436 0.5144 0.50023 0.0
H2736 H 0.31252 0.51464 0.49596 0.0
C2737 C 0.24175 0.51519 0.52852 0.0
H2738 H 0.27263 0.51476 0.46709 0.0
C2739 C 0.26449 0.51543 0.5451 0.0
C2740 C 0.2902 0.51442 0.53364 0.0
H2741 H 0.22204 0.51493 0.5379 0.0
H2742 H 0.26193 0.51508 0.56677 0.0
C2743 C 0.29281 0.51503 0.50534 0.0
C2744 C 0.26935 0.51992 0.23893 0.0
C2745 C 0.27024 0.49421 0.25038 0.0
H2746 H 0.26994 0.56236 0.24614 0.0
C2747 C 0.26948 0.49159 0.27868 0.0
H2748 H 0.26983 0.52249 0.21726 0.0
C2749 C 0.26923 0.51432 0.29527 0.0
C2750 C 0.27021 0.54004 0.28381 0.0
H2751 H 0.26977 0.47188 0.28806 0.0
H2752 H 0.26961 0.51176 0.31694 0.0
C2753 C 0.26957 0.54265 0.25552 0.0
C2754 C 0.26433 0.51922 0.98878 0.0
C2755 C 0.29004 0.5201 1.00026 0.0
H2756 H 0.22189 0.51982 0.99597 0.0
C2757 C 0.29264 0.51935 0.02856 0.0
H2758 H 0.26179 0.51968 0.96711 0.0
C2759 C 0.26989 0.51913 0.04513 0.0
C2760 C 0.24419 0.52011 0.03366 0.0
H2761 H 0.31234 0.51964 0.03795 0.0
H2762 H 0.27244 0.51952 0.0668 0.0
C2763 C 0.24159 0.51945 1.00536 0.0
C2764 C 0.26542 0.51463 0.73885 0.0
C2765 C 0.26454 0.54033 0.75033 0.0
H2766 H 0.2648 0.47218 0.74601 0.0
C2767 C 0.26528 0.54292 0.77863 0.0
H2768 H 0.26496 0.51209 0.71718 0.0
C2769 C 0.26549 0.52017 0.79519 0.0
C2770 C 0.2645 0.49447 0.78371 0.0
H2771 H 0.265 0.56262 0.78803 0.0
H2772 H 0.26509 0.52271 0.81686 0.0
C2773 C 0.26517 0.49188 0.75541 0.0
C2774 C 0.54278 0.2554 0.26975 0.0
C2775 C 0.54016 0.2837 0.27028 0.0
H2776 H 0.5226 0.21715 0.26999 0.0
C2777 C 0.51445 0.29515 0.26907 0.0
H2778 H 0.56248 0.24602 0.27028 0.0
C2779 C 0.49172 0.27857 0.26921 0.0
C2780 C 0.49432 0.25028 0.27008 0.0
H2781 H 0.51188 0.31682 0.26935 0.0
H2782 H 0.472 0.28795 0.26933 0.0
C2783 C 0.52004 0.23881 0.26942 0.0
C2784 C 0.16562 0.07924 0.35116 0.0
C2785 C 0.16782 0.09921 0.33101 0.0
H2786 H 0.13954 0.05464 0.37546 0.0
C2787 C 0.14395 0.10994 0.32024 0.0
H2788 H 0.18351 0.07036 0.35994 0.0
C2789 C 0.11868 0.10102 0.32938 0.0
C2790 C 0.11648 0.08088 0.34937 0.0
H2791 H 0.14476 0.12529 0.30476 0.0
H2792 H 0.10079 0.10979 0.3205 0.0
C2793 C 0.14035 0.07012 0.3601 0.0
C2794 C 0.17434 0.89417 0.57009 0.0
C2795 C 0.18508 0.91805 0.58084 0.0
H2796 H 0.1745 0.85101 0.57035 0.0
C2797 C 0.20508 0.91585 0.60097 0.0
H2798 H 0.15897 0.89497 0.55463 0.0
C2799 C 0.21422 0.89058 0.6099 0.0
C2800 C 0.20344 0.86671 0.59918 0.0
H2801 H 0.21396 0.93375 0.60974 0.0
H2802 H 0.22971 0.88978 0.62524 0.0
C2803 C 0.18328 0.8689 0.57922 0.0
C2804 C 0.39047 0.92449 0.82015 0.0
C2805 C 0.36659 0.93522 0.83092 0.0
H2806 H 0.43363 0.92464 0.82041 0.0
C2807 C 0.36879 0.95518 0.85109 0.0
H2808 H 0.38966 0.90915 0.80466 0.0
C2809 C 0.39407 0.96429 0.86004 0.0
C2810 C 0.41794 0.95353 0.8493 0.0
H2811 H 0.3509 0.96405 0.85987 0.0
H2812 H 0.39487 0.97975 0.87541 0.0
C2813 C 0.41574 0.93341 0.8293 0.0
C2814 C 0.32054 0.14402 0.10976 0.0
C2815 C 0.33133 0.16788 0.09902 0.0
H2816 H 0.32078 0.10086 0.10963 0.0
C2817 C 0.35148 0.16566 0.07905 0.0
H2818 H 0.30506 0.14484 0.12511 0.0
C2819 C 0.36041 0.14037 0.06994 0.0
C2820 C 0.34966 0.11652 0.08072 0.0
H2821 H 0.36027 0.18354 0.07017 0.0
H2822 H 0.37577 0.13955 0.05447 0.0
C2823 C 0.32967 0.11874 0.10085 0.0
C2824 C 0.16568 0.95501 0.18326 0.0
C2825 C 0.1679 0.93501 0.20338 0.0
H2826 H 0.13959 0.97965 0.15902 0.0
C2827 C 0.14404 0.92426 0.21415 0.0
H2828 H 0.18357 0.96391 0.17449 0.0
C2829 C 0.11876 0.9332 0.20504 0.0
C2830 C 0.11654 0.95336 0.18508 0.0
H2831 H 0.14485 0.90889 0.22961 0.0
H2832 H 0.10087 0.92441 0.21392 0.0
C2833 C 0.14041 0.96415 0.17435 0.0
C2834 C 0.36004 0.89399 0.46401 0.0
C2835 C 0.3493 0.91785 0.45322 0.0
H2836 H 0.35991 0.85083 0.46379 0.0
C2837 C 0.32933 0.91563 0.43307 0.0
H2838 H 0.37538 0.89481 0.4795 0.0
C2839 C 0.32022 0.89034 0.42415 0.0
C2840 C 0.33099 0.86649 0.4349 0.0
H2841 H 0.32045 0.93351 0.42428 0.0
H2842 H 0.30475 0.88952 0.40878 0.0
C2843 C 0.35112 0.86871 0.45489 0.0
C2844 C 0.41556 0.10133 0.70509 0.0
C2845 C 0.41778 0.08118 0.68511 0.0
H2846 H 0.38947 0.12562 0.72968 0.0
C2847 C 0.39392 0.07041 0.67436 0.0
H2848 H 0.43345 0.11011 0.71397 0.0
C2849 C 0.36864 0.07954 0.68328 0.0
C2850 C 0.36642 0.09953 0.70342 0.0
H2851 H 0.39474 0.05493 0.65901 0.0
H2852 H 0.35075 0.07066 0.67449 0.0
C2853 C 0.39029 0.11026 0.7142 0.0
C2854 C 0.18356 0.16582 0.95485 0.0
C2855 C 0.20368 0.16802 0.93484 0.0
H2856 H 0.1593 0.13974 0.97948 0.0
C2857 C 0.21443 0.14415 0.9241 0.0
H2858 H 0.17479 0.18371 0.96374 0.0
C2859 C 0.20531 0.11888 0.93304 0.0
C2860 C 0.18536 0.11668 0.95321 0.0
H2861 H 0.2299 0.14496 0.90872 0.0
H2862 H 0.21418 0.10099 0.92425 0.0
C2863 C 0.17464 0.14055 0.96399 0.0
C2864 C 0.10102 0.32944 0.11858 0.0
C2865 C 0.08089 0.34945 0.11637 0.0
H2866 H 0.12529 0.30483 0.14465 0.0
C2867 C 0.07014 0.3602 0.14024 0.0
H2868 H 0.10978 0.32055 0.10069 0.0
C2869 C 0.07928 0.35127 0.16552 0.0
C2870 C 0.09924 0.33111 0.16772 0.0
H2871 H 0.05468 0.37557 0.13944 0.0
H2872 H 0.07041 0.36007 0.18341 0.0
C2873 C 0.10995 0.32032 0.14385 0.0
C2874 C 0.60092 0.20502 0.91574 0.0
C2875 C 0.5808 0.18502 0.91794 0.0
H2876 H 0.62519 0.22965 0.88967 0.0
C2877 C 0.57006 0.17426 0.89407 0.0
H2878 H 0.60967 0.21392 0.93363 0.0
C2879 C 0.5792 0.18319 0.8688 0.0
C2880 C 0.59916 0.20336 0.8666 0.0
H2881 H 0.5546 0.15888 0.89487 0.0
H2882 H 0.57034 0.17439 0.8509 0.0
C2883 C 0.60986 0.21415 0.89047 0.0
C2884 C 0.96449 0.86019 0.3941 0.0
C2885 C 0.95372 0.84946 0.41798 0.0
H2886 H 0.96424 0.86002 0.35094 0.0
C2887 C 0.93359 0.82947 0.41578 0.0
H2888 H 0.97996 0.87556 0.39491 0.0
C2889 C 0.92467 0.82032 0.39051 0.0
C2890 C 0.9354 0.83109 0.36664 0.0
H2891 H 0.92482 0.82059 0.43367 0.0
H2892 H 0.90932 0.80484 0.38971 0.0
C2893 C 0.95537 0.85125 0.36883 0.0
C2894 C 0.93312 0.20519 0.11885 0.0
C2895 C 0.95328 0.18523 0.11664 0.0
H2896 H 0.90883 0.22978 0.14495 0.0
C2897 C 0.96407 0.17451 0.14051 0.0
H2898 H 0.92432 0.21406 0.10097 0.0
C2899 C 0.95495 0.18344 0.16578 0.0
C2900 C 0.93495 0.20356 0.16799 0.0
H2901 H 0.97957 0.15917 0.13969 0.0
H2902 H 0.96385 0.17467 0.18367 0.0
C2903 C 0.92419 0.21431 0.14413 0.0
C2904 C 0.46444 0.67435 0.64032 0.0
C2905 C 0.45368 0.68508 0.61645 0.0
H2906 H 0.46419 0.67452 0.68349 0.0
C2907 C 0.43354 0.70507 0.61864 0.0
H2908 H 0.47991 0.65898 0.63952 0.0
C2909 C 0.42462 0.71422 0.64391 0.0
C2910 C 0.43535 0.70345 0.66779 0.0
H2911 H 0.42477 0.71395 0.60075 0.0
H2912 H 0.40927 0.7297 0.64471 0.0
C2913 C 0.45532 0.6833 0.66559 0.0
C2914 C 0.07961 0.68342 0.36865 0.0
C2915 C 0.09961 0.70355 0.36643 0.0
H2916 H 0.055 0.65916 0.39474 0.0
C2917 C 0.11035 0.71433 0.39029 0.0
H2918 H 0.07073 0.67464 0.35077 0.0
C2919 C 0.10142 0.70521 0.41557 0.0
C2920 C 0.08126 0.68524 0.41779 0.0
H2921 H 0.12571 0.72979 0.38948 0.0
H2922 H 0.1102 0.7141 0.43346 0.0
C2923 C 0.07048 0.67451 0.39393 0.0
C2924 C 0.42417 0.32023 0.89028 0.0
C2925 C 0.43495 0.33098 0.86642 0.0
H2926 H 0.42427 0.32048 0.93345 0.0
C2927 C 0.45496 0.35109 0.86865 0.0
H2928 H 0.4088 0.30477 0.88946 0.0
C2929 C 0.46407 0.36001 0.89393 0.0
C2930 C 0.45325 0.3493 0.91779 0.0
H2931 H 0.46387 0.35985 0.85077 0.0
H2932 H 0.47957 0.37535 0.89476 0.0
C2933 C 0.43309 0.32935 0.91556 0.0
C2934 C 0.89416 0.96442 0.67446 0.0
C2935 C 0.91804 0.95366 0.68518 0.0
H2936 H 0.85099 0.96416 0.67464 0.0
C2937 C 0.91585 0.93352 0.70517 0.0
H2938 H 0.89495 0.97989 0.6591 0.0
C2939 C 0.89058 0.92459 0.71432 0.0
C2940 C 0.8667 0.93531 0.70356 0.0
H2941 H 0.93375 0.92475 0.71405 0.0
H2942 H 0.88979 0.90924 0.72981 0.0
C2943 C 0.86889 0.95529 0.68341 0.0
C2944 C 0.82023 0.14403 0.4245 0.0
C2945 C 0.83101 0.1679 0.43523 0.0
H2946 H 0.82048 0.10087 0.42466 0.0
C2947 C 0.85116 0.1657 0.45519 0.0
H2948 H 0.80475 0.14484 0.40915 0.0
C2949 C 0.8601 0.14043 0.46432 0.0
C2950 C 0.84936 0.11656 0.45356 0.0
H2951 H 0.85995 0.18359 0.46407 0.0
H2952 H 0.87546 0.13962 0.47979 0.0
C2953 C 0.82937 0.11876 0.43343 0.0
C2954 C 0.61887 0.10103 0.20514 0.0
C2955 C 0.61669 0.08089 0.18516 0.0
H2956 H 0.64493 0.12531 0.22979 0.0
C2957 C 0.64057 0.07012 0.17445 0.0
H2958 H 0.60097 0.10981 0.214 0.0
C2959 C 0.66583 0.07924 0.18342 0.0
C2960 C 0.66802 0.09921 0.20357 0.0
H2961 H 0.63978 0.05464 0.15909 0.0
H2962 H 0.68373 0.07035 0.17466 0.0
C2963 C 0.64414 0.10995 0.21431 0.0
C2964 C 0.68329 0.86881 0.95522 0.0
C2965 C 0.70345 0.8666 0.93526 0.0
H2966 H 0.65898 0.89489 0.9798 0.0
C2967 C 0.71423 0.89047 0.92453 0.0
H2968 H 0.6745 0.85092 0.9641 0.0
C2969 C 0.70509 0.91574 0.93344 0.0
C2970 C 0.68509 0.91795 0.95357 0.0
H2971 H 0.72972 0.88965 0.90918 0.0
H2972 H 0.71398 0.93363 0.92467 0.0
C2973 C 0.67435 0.89408 0.96433 0.0
C2974 C 0.89413 0.0704 0.86019 0.0
C2975 C 0.91798 0.08119 0.84944 0.0
H2976 H 0.85097 0.07064 0.86008 0.0
C2977 C 0.91576 0.10135 0.82948 0.0
H2978 H 0.89496 0.05491 0.87553 0.0
C2979 C 0.89047 0.11028 0.82039 0.0
C2980 C 0.86662 0.09953 0.83117 0.0
H2981 H 0.93364 0.11014 0.82059 0.0
H2982 H 0.88964 0.12565 0.80492 0.0
C2983 C 0.86884 0.07953 0.85129 0.0
C2984 C 0.67436 0.14049 0.57032 0.0
C2985 C 0.68509 0.11663 0.58111 0.0
H2986 H 0.6745 0.18365 0.57056 0.0
C2987 C 0.70505 0.11884 0.60127 0.0
H2988 H 0.65902 0.13967 0.55483 0.0
C2989 C 0.71417 0.14412 0.6102 0.0
C2990 C 0.7034 0.16798 0.59945 0.0
H2991 H 0.71393 0.10096 0.61006 0.0
H2992 H 0.72963 0.14494 0.62557 0.0
C2993 C 0.68328 0.16576 0.57945 0.0
C2994 C 0.64052 0.96408 0.36021 0.0
C2995 C 0.61667 0.9533 0.34945 0.0
H2996 H 0.68369 0.96383 0.36013 0.0
C2997 C 0.61891 0.93316 0.32947 0.0
H2998 H 0.63969 0.97956 0.37557 0.0
C2999 C 0.64419 0.92423 0.32038 0.0
C3000 C 0.66804 0.93496 0.33119 0.0
H3001 H 0.60103 0.92438 0.32057 0.0
H3002 H 0.64502 0.90887 0.30491 0.0
C3003 C 0.66581 0.95495 0.35132 0.0
C3004 C 0.85111 0.8688 0.07953 0.0
C3005 C 0.83097 0.86659 0.09952 0.0
H3006 H 0.87537 0.89489 0.05491 0.0
C3007 C 0.8202 0.89046 0.11026 0.0
H3008 H 0.85989 0.85092 0.07065 0.0
C3009 C 0.82931 0.91573 0.10132 0.0
C3010 C 0.84929 0.91794 0.08117 0.0
H3011 H 0.80473 0.88965 0.12563 0.0
H3012 H 0.82043 0.93362 0.11011 0.0
C3013 C 0.86002 0.89408 0.0704 0.0
C3014 C 0.93361 0.7051 0.91589 0.0
C3015 C 0.95375 0.68512 0.91809 0.0
H3016 H 0.9093 0.7297 0.88983 0.0
C3017 C 0.9645 0.67438 0.89421 0.0
H3018 H 0.92484 0.71399 0.93379 0.0
C3019 C 0.95535 0.6833 0.86894 0.0
C3020 C 0.93537 0.70344 0.86675 0.0
H3021 H 0.97998 0.65902 0.89501 0.0
H3022 H 0.96422 0.67451 0.85105 0.0
C3023 C 0.92465 0.71422 0.89062 0.0
C3024 C 0.43353 0.82935 0.11866 0.0
C3025 C 0.45366 0.84935 0.11646 0.0
H3026 H 0.40924 0.80474 0.14474 0.0
C3027 C 0.4644 0.8601 0.14033 0.0
H3028 H 0.42477 0.82046 0.10077 0.0
C3029 C 0.45526 0.85118 0.16561 0.0
C3030 C 0.43529 0.83102 0.16781 0.0
H3031 H 0.47987 0.87547 0.13953 0.0
H3032 H 0.46412 0.85997 0.1835 0.0
C3033 C 0.42459 0.82023 0.14393 0.0
C3034 C 0.07917 0.18333 0.66566 0.0
C3035 C 0.09914 0.20349 0.66785 0.0
H3036 H 0.05457 0.15903 0.6396 0.0
C3037 C 0.10986 0.21425 0.64397 0.0
H3038 H 0.0703 0.17456 0.68356 0.0
C3039 C 0.10093 0.20511 0.61871 0.0
C3040 C 0.08079 0.18512 0.61652 0.0
H3041 H 0.12521 0.22974 0.64477 0.0
H3042 H 0.10969 0.21399 0.60081 0.0
C3043 C 0.07004 0.17439 0.64039 0.0
C3044 C 0.07043 0.86015 0.89396 0.0
C3045 C 0.08123 0.84943 0.91782 0.0
H3046 H 0.07064 0.85998 0.85079 0.0
C3047 C 0.10139 0.82947 0.9156 0.0
H3048 H 0.05494 0.87549 0.89477 0.0
C3049 C 0.11031 0.82034 0.89033 0.0
C3050 C 0.09955 0.83109 0.86646 0.0
H3051 H 0.11019 0.8206 0.93349 0.0
H3052 H 0.12568 0.80488 0.88951 0.0
C3053 C 0.07955 0.85122 0.86868 0.0
C3054 C 0.60993 0.32035 0.39071 0.0
C3055 C 0.5992 0.3311 0.36683 0.0
H3056 H 0.60976 0.32063 0.43387 0.0
C3057 C 0.57921 0.35124 0.36901 0.0
H3058 H 0.62529 0.30488 0.38992 0.0
C3059 C 0.57007 0.36019 0.39428 0.0
C3060 C 0.58083 0.34947 0.41816 0.0
H3061 H 0.57033 0.36 0.35111 0.0
H3062 H 0.55459 0.37554 0.39507 0.0
C3063 C 0.60098 0.3295 0.41597 0.0
C3064 C 0.96396 0.36007 0.64052 0.0
C3065 C 0.95317 0.34932 0.61667 0.0
H3066 H 0.96374 0.35994 0.68369 0.0
C3067 C 0.93303 0.32934 0.6189 0.0
H3068 H 0.97944 0.37542 0.6397 0.0
C3069 C 0.92412 0.32023 0.64418 0.0
C3070 C 0.93487 0.33101 0.66804 0.0
H3071 H 0.92424 0.32045 0.60102 0.0
H3072 H 0.90876 0.30475 0.64501 0.0
C3073 C 0.95485 0.35115 0.66581 0.0
C3074 C 0.61026 0.71429 0.14437 0.0
C3075 C 0.59951 0.70352 0.16823 0.0
H3076 H 0.61014 0.71402 0.10121 0.0
C3077 C 0.57952 0.68339 0.16602 0.0
H3078 H 0.62563 0.72976 0.14518 0.0
C3079 C 0.57041 0.67446 0.14074 0.0
C3080 C 0.5812 0.68518 0.11688 0.0
H3081 H 0.57062 0.67462 0.18391 0.0
H3082 H 0.55493 0.6591 0.13993 0.0
C3083 C 0.60135 0.70515 0.11909 0.0
C3084 C 0.61885 0.6013 0.82951 0.0
C3085 C 0.61663 0.58113 0.84947 0.0
H3086 H 0.64495 0.6256 0.80494 0.0
C3087 C 0.64049 0.57032 0.86018 0.0
H3088 H 0.60096 0.61011 0.82065 0.0
C3089 C 0.66577 0.57944 0.85126 0.0
C3090 C 0.66799 0.59946 0.83115 0.0
H3091 H 0.63967 0.55482 0.87551 0.0
H3092 H 0.68365 0.57054 0.86002 0.0
C3093 C 0.64413 0.61022 0.8204 0.0
C3094 C 0.68378 0.36873 0.07993 0.0
C3095 C 0.70394 0.3665 0.0999 0.0
H3096 H 0.6595 0.39484 0.05535 0.0
C3097 C 0.71474 0.39036 0.11063 0.0
H3098 H 0.67498 0.35085 0.07105 0.0
C3099 C 0.70563 0.41564 0.10171 0.0
C3100 C 0.68563 0.41787 0.08158 0.0
H3101 H 0.73023 0.38953 0.12597 0.0
H3102 H 0.71453 0.43352 0.11048 0.0
C3103 C 0.67487 0.39401 0.07082 0.0
C3104 C 0.91557 0.4332 0.3294 0.0
C3105 C 0.91779 0.45335 0.34938 0.0
H3106 H 0.88945 0.40893 0.30482 0.0
C3107 C 0.89394 0.46414 0.36012 0.0
H3108 H 0.93344 0.42441 0.32052 0.0
C3109 C 0.86865 0.45503 0.3512 0.0
C3110 C 0.86643 0.43504 0.33107 0.0
H3111 H 0.89477 0.47963 0.37547 0.0
H3112 H 0.85077 0.46393 0.35999 0.0
C3113 C 0.89028 0.42429 0.32029 0.0
C3114 C 0.82935 0.61886 0.60154 0.0
C3115 C 0.8493 0.61664 0.58136 0.0
H3116 H 0.80479 0.64496 0.62585 0.0
C3117 C 0.86002 0.6405 0.57056 0.0
H3118 H 0.82048 0.60098 0.61034 0.0
C3119 C 0.85111 0.66578 0.57969 0.0
C3120 C 0.831 0.668 0.5997 0.0
H3121 H 0.87535 0.63967 0.55506 0.0
H3122 H 0.85988 0.68366 0.57078 0.0
C3123 C 0.82024 0.64414 0.61047 0.0
C3124 C 0.64028 0.46439 0.67443 0.0
C3125 C 0.6164 0.45365 0.68517 0.0
H3126 H 0.68344 0.46411 0.67457 0.0
C3127 C 0.61859 0.43352 0.70517 0.0
H3128 H 0.63948 0.47986 0.65906 0.0
C3129 C 0.64386 0.42457 0.71429 0.0
C3130 C 0.66774 0.43528 0.70351 0.0
H3131 H 0.6007 0.42476 0.71406 0.0
H3132 H 0.64466 0.40923 0.72978 0.0
C3133 C 0.66555 0.45525 0.68336 0.0
C3134 C 0.85143 0.36883 0.95538 0.0
C3135 C 0.83125 0.36663 0.93543 0.0
H3136 H 0.87577 0.39491 0.97994 0.0
C3137 C 0.82047 0.3905 0.92472 0.0
H3138 H 0.86022 0.35094 0.96424 0.0
C3139 C 0.82962 0.41577 0.93363 0.0
C3140 C 0.84964 0.41798 0.95373 0.0
H3141 H 0.80496 0.3897 0.90939 0.0
H3142 H 0.82073 0.43366 0.92486 0.0
C3143 C 0.86038 0.39411 0.96449 0.0
C3144 C 0.89048 0.61005 0.21433 0.0
C3145 C 0.8666 0.59934 0.20356 0.0
H3146 H 0.93364 0.60988 0.21407 0.0
C3147 C 0.86879 0.57939 0.18339 0.0
H3148 H 0.88968 0.62539 0.22983 0.0
C3149 C 0.89406 0.57026 0.17444 0.0
C3150 C 0.91794 0.581 0.18518 0.0
H3151 H 0.85089 0.57053 0.1746 0.0
H3152 H 0.89485 0.5548 0.15906 0.0
C3153 C 0.91575 0.60112 0.20518 0.0
C3154 C 0.70491 0.61869 0.43379 0.0
C3155 C 0.68493 0.61651 0.45393 0.0
H3156 H 0.72953 0.64475 0.40949 0.0
C3157 C 0.6742 0.64039 0.46468 0.0
H3158 H 0.71379 0.60079 0.42502 0.0
C3159 C 0.68314 0.66565 0.45554 0.0
C3160 C 0.70329 0.66784 0.43556 0.0
H3161 H 0.65884 0.6396 0.48016 0.0
H3162 H 0.67437 0.68355 0.46441 0.0
C3163 C 0.71405 0.64396 0.42484 0.0
C3164 C 0.57961 0.85117 0.66574 0.0
C3165 C 0.59961 0.83105 0.66797 0.0
H3166 H 0.55499 0.87542 0.63964 0.0
C3167 C 0.61035 0.82027 0.64411 0.0
H3168 H 0.57072 0.85996 0.68363 0.0
C3169 C 0.60142 0.82937 0.61882 0.0
C3170 C 0.58126 0.84933 0.61661 0.0
H3171 H 0.62572 0.8048 0.64493 0.0
H3172 H 0.61021 0.82048 0.60094 0.0
C3173 C 0.57048 0.86007 0.64046 0.0
C3174 C 0.39058 0.42412 0.21423 0.0
C3175 C 0.36675 0.43493 0.20346 0.0
H3176 H 0.43375 0.42416 0.21402 0.0
C3177 C 0.36902 0.45494 0.18336 0.0
H3178 H 0.38972 0.40873 0.22967 0.0
C3179 C 0.39432 0.46403 0.17447 0.0
C3180 C 0.41815 0.45318 0.1852 0.0
H3181 H 0.35116 0.46388 0.17458 0.0
H3182 H 0.39518 0.47953 0.15914 0.0
C3183 C 0.41588 0.433 0.20514 0.0
C3184 C 0.32022 0.64408 0.92413 0.0
C3185 C 0.33099 0.66795 0.93488 0.0
H3186 H 0.32045 0.60092 0.92428 0.0
C3187 C 0.35112 0.66573 0.95488 0.0
H3188 H 0.30476 0.6449 0.90877 0.0
C3189 C 0.36003 0.64045 0.96401 0.0
C3190 C 0.34929 0.61659 0.95323 0.0
H3191 H 0.3599 0.68362 0.96376 0.0
H3192 H 0.37537 0.63964 0.9795 0.0
C3193 C 0.32933 0.61881 0.93307 0.0
C3194 C 0.14422 0.61034 0.71413 0.0
C3195 C 0.16808 0.59959 0.70335 0.0
H3196 H 0.10106 0.61021 0.7139 0.0
C3197 C 0.16586 0.57961 0.68321 0.0
H3198 H 0.14505 0.6257 0.7296 0.0
C3199 C 0.14058 0.57049 0.67429 0.0
C3200 C 0.11672 0.58127 0.68504 0.0
H3201 H 0.18375 0.57072 0.67443 0.0
H3202 H 0.13976 0.55501 0.65894 0.0
C3203 C 0.11894 0.60142 0.70501 0.0
C3204 C 0.17437 0.39403 0.46403 0.0
C3205 C 0.18512 0.41789 0.45325 0.0
H3206 H 0.1745 0.35087 0.4638 0.0
C3207 C 0.2051 0.41566 0.4331 0.0
H3208 H 0.15902 0.39485 0.47951 0.0
C3209 C 0.2142 0.39038 0.42417 0.0
C3210 C 0.20342 0.36652 0.43492 0.0
H3211 H 0.21399 0.43354 0.42431 0.0
H3212 H 0.22968 0.38956 0.40881 0.0
C3213 C 0.18328 0.36875 0.45491 0.0
C3214 C 0.36883 0.57915 0.35125 0.0
C3215 C 0.36667 0.59911 0.33108 0.0
H3216 H 0.39485 0.55453 0.37557 0.0
C3217 C 0.39056 0.60979 0.32031 0.0
H3218 H 0.35092 0.57032 0.36003 0.0
C3219 C 0.41581 0.60082 0.32945 0.0
C3220 C 0.41797 0.5807 0.34945 0.0
H3221 H 0.38979 0.62513 0.30481 0.0
H3222 H 0.43372 0.60955 0.32056 0.0
C3223 C 0.39408 0.56999 0.3602 0.0
C3224 C 0.18323 0.66572 0.07913 0.0
C3225 C 0.20339 0.66792 0.0991 0.0
H3226 H 0.15892 0.63964 0.05454 0.0
C3227 C 0.21415 0.64405 0.10983 0.0
H3228 H 0.17446 0.68361 0.07025 0.0
C3229 C 0.20501 0.61878 0.10091 0.0
C3230 C 0.18502 0.61658 0.08077 0.0
H3231 H 0.22964 0.64485 0.12517 0.0
H3232 H 0.21389 0.60088 0.10968 0.0
C3233 C 0.17429 0.64045 0.07001 0.0
C3234 C 0.16581 0.45525 0.85103 0.0
C3235 C 0.168 0.43529 0.83086 0.0
H3236 H 0.13974 0.47984 0.87536 0.0
C3237 C 0.14412 0.42458 0.82009 0.0
H3238 H 0.1837 0.46411 0.85981 0.0
C3239 C 0.11885 0.43351 0.82924 0.0
C3240 C 0.11666 0.45363 0.84925 0.0
H3241 H 0.14491 0.40924 0.8046 0.0
H3242 H 0.10095 0.42475 0.82036 0.0
C3243 C 0.14054 0.46438 0.85998 0.0
C3244 C 0.32934 0.41578 0.60099 0.0
C3245 C 0.34934 0.41798 0.58087 0.0
H3246 H 0.3047 0.38971 0.62526 0.0
C3247 C 0.36007 0.39411 0.57011 0.0
H3248 H 0.32046 0.43368 0.60977 0.0
C3249 C 0.35112 0.36884 0.57923 0.0
C3250 C 0.33096 0.36664 0.59919 0.0
H3251 H 0.37544 0.39491 0.55464 0.0
H3252 H 0.3599 0.35094 0.57035 0.0
C3253 C 0.32019 0.39052 0.60992 0.0
C3254 C 0.45496 0.18329 0.3687 0.0
C3255 C 0.43497 0.20342 0.36646 0.0
H3256 H 0.47955 0.15905 0.39483 0.0
C3257 C 0.42421 0.21422 0.39031 0.0
H3258 H 0.46385 0.1745 0.35083 0.0
C3259 C 0.43312 0.20512 0.4156 0.0
C3260 C 0.45327 0.18515 0.41784 0.0
H3261 H 0.40885 0.22969 0.38947 0.0
H3262 H 0.42433 0.21402 0.43347 0.0
C3263 C 0.46407 0.17439 0.39399 0.0
loop_
_geom_bond_atom_site_label_1
_geom_bond_atom_site_label_2
_geom_bond_distance
_geom_bond_site_symmetry_2
_ccdc_geom_bond_type
C0 O2 1.247 . S
C0 O4 1.258 . S
C1 O8 1.247 . S
C1 O9 1.258 . S
O2 C0 1.247 . S
O2 Zn3 2.028 1_655 S
Zn3 O2 2.028 1_455 S
Zn3 O7 2.035 . S
Zn3 O9 2.035 . S
Zn3 O10 2.028 . S
O4 C0 1.258 . S
O4 Zn5 2.035 1_655 S
Zn5 O4 2.035 1_455 S
Zn5 O6 2.028 . S
Zn5 O8 2.028 . S
Zn5 O11 2.035 . S
O6 Zn5 2.028 . S
O6 C12 1.247 . S
O7 Zn3 2.035 . S
O7 C12 1.258 . S
O8 C1 1.247 . S
O8 Zn5 2.028 . S
O9 C1 1.258 . S
O9 Zn3 2.035 . S
O10 Zn3 2.028 . S
O10 C13 1.247 . S
O11 Zn5 2.035 . S
O11 C13 1.258 . S
C12 O6 1.247 . S
C12 O7 1.258 . S
C13 O10 1.247 . S
C13 O11 1.258 . S
C14 O16 1.247 . S
C14 O18 1.258 . S
C15 O22 1.247 . S
C15 O23 1.258 . S
O16 C14 1.247 . S
O16 Zn17 2.028 . S
Zn17 O16 2.028 . S
Zn17 O21 2.035 . S
Zn17 O23 2.035 . S
Zn17 O24 2.028 . S
O18 C14 1.258 . S
O18 Zn19 2.035 . S
Zn19 O18 2.035 . S
Zn19 O20 2.028 . S
Zn19 O22 2.028 . S
Zn19 O25 2.035 . S
O20 Zn19 2.028 . S
O20 C26 1.247 . S
O21 Zn17 2.035 . S
O21 C26 1.258 . S
O22 C15 1.247 . S
O22 Zn19 2.028 . S
O23 C15 1.258 . S
O23 Zn17 2.035 . S
O24 Zn17 2.028 . S
O24 C27 1.247 . S
O25 Zn19 2.035 . S
O25 C27 1.258 . S
C26 O20 1.247 . S
C26 O21 1.258 . S
C27 O24 1.247 . S
C27 O25 1.258 . S
C28 O30 1.247 . S
C28 O32 1.258 . S
C29 O36 1.247 . S
C29 O37 1.258 . S
O30 C28 1.247 . S
O30 Zn31 2.028 . S
Zn31 O30 2.028 . S
Zn31 O35 2.035 . S
Zn31 O37 2.035 . S
Zn31 O38 2.028 . S
O32 C28 1.258 . S
O32 Zn33 2.035 . S
Zn33 O32 2.035 . S
Zn33 O34 2.028 . S
Zn33 O36 2.028 . S
Zn33 O39 2.035 . S
O34 Zn33 2.028 . S
O34 C40 1.247 . S
O35 Zn31 2.035 . S
O35 C40 1.258 . S
O36 C29 1.247 . S
O36 Zn33 2.028 . S
O37 C29 1.258 . S
O37 Zn31 2.035 . S
O38 Zn31 2.028 . S
O38 C41 1.247 . S
O39 Zn33 2.035 . S
O39 C41 1.258 . S
C40 O34 1.247 . S
C40 O35 1.258 . S
C41 O38 1.247 . S
C41 O39 1.258 . S
C42 O44 1.247 . S
C42 O46 1.258 . S
C43 O50 1.247 . S
C43 O51 1.258 . S
O44 C42 1.247 . S
O44 Zn45 2.028 . S
Zn45 O44 2.028 . S
Zn45 O49 2.035 . S
Zn45 O51 2.035 . S
Zn45 O52 2.028 . S
O46 C42 1.258 . S
O46 Zn47 2.035 . S
Zn47 O46 2.035 . S
Zn47 O48 2.028 . S
Zn47 O50 2.028 . S
Zn47 O53 2.035 . S
O48 Zn47 2.028 . S
O48 C54 1.247 . S
O49 Zn45 2.035 . S
O49 C54 1.258 . S
O50 C43 1.247 . S
O50 Zn47 2.028 . S
O51 C43 1.258 . S
O51 Zn45 2.035 . S
O52 Zn45 2.028 . S
O52 C55 1.247 . S
O53 Zn47 2.035 . S
O53 C55 1.258 . S
C54 O48 1.247 . S
C54 O49 1.258 . S
C55 O52 1.247 . S
C55 O53 1.258 . S
C56 O58 1.247 . S
C56 O60 1.258 . S
C57 O64 1.247 . S
C57 O65 1.258 . S
O58 C56 1.247 . S
O58 Zn59 2.028 . S
Zn59 O58 2.028 . S
Zn59 O63 2.035 . S
Zn59 O65 2.035 1_455 S
Zn59 O66 2.028 . S
O60 C56 1.258 . S
O60 Zn61 2.035 . S
Zn61 O60 2.035 . S
Zn61 O62 2.028 . S
Zn61 O64 2.028 1_455 S
Zn61 O67 2.035 . S
O62 Zn61 2.028 . S
O62 C68 1.247 . S
O63 Zn59 2.035 . S
O63 C68 1.258 . S
O64 C57 1.247 . S
O64 Zn61 2.028 1_655 S
O65 C57 1.258 . S
O65 Zn59 2.035 1_655 S
O66 Zn59 2.028 . S
O66 C69 1.247 . S
O67 Zn61 2.035 . S
O67 C69 1.258 . S
C68 O62 1.247 . S
C68 O63 1.258 . S
C69 O66 1.247 . S
C69 O67 1.258 . S
C70 O72 1.247 . S
C70 O74 1.258 . S
C71 O78 1.247 . S
C71 O79 1.258 . S
O72 C70 1.247 . S
O72 Zn73 2.028 . S
Zn73 O72 2.028 . S
Zn73 O77 2.035 . S
Zn73 O79 2.035 . S
Zn73 O80 2.028 . S
O74 C70 1.258 . S
O74 Zn75 2.035 . S
Zn75 O74 2.035 . S
Zn75 O76 2.028 . S
Zn75 O78 2.028 . S
Zn75 O81 2.035 . S
O76 Zn75 2.028 . S
O76 C82 1.247 . S
O77 Zn73 2.035 . S
O77 C82 1.258 . S
O78 C71 1.247 . S
O78 Zn75 2.028 . S
O79 C71 1.258 . S
O79 Zn73 2.035 . S
O80 Zn73 2.028 . S
O80 C83 1.247 . S
O81 Zn75 2.035 . S
O81 C83 1.258 . S
C82 O76 1.247 . S
C82 O77 1.258 . S
C83 O80 1.247 . S
C83 O81 1.258 . S
C84 O86 1.247 . S
C84 O88 1.258 . S
C85 O92 1.247 . S
C85 O93 1.258 . S
O86 C84 1.247 . S
O86 Zn87 2.028 . S
Zn87 O86 2.028 . S
Zn87 O91 2.035 . S
Zn87 O93 2.035 . S
Zn87 O94 2.028 . S
O88 C84 1.258 . S
O88 Zn89 2.035 . S
Zn89 O88 2.035 . S
Zn89 O90 2.028 . S
Zn89 O92 2.028 . S
Zn89 O95 2.035 . S
O90 Zn89 2.028 . S
O90 C96 1.247 . S
O91 Zn87 2.035 . S
O91 C96 1.258 . S
O92 C85 1.247 . S
O92 Zn89 2.028 . S
O93 C85 1.258 . S
O93 Zn87 2.035 . S
O94 Zn87 2.028 . S
O94 C97 1.247 . S
O95 Zn89 2.035 . S
O95 C97 1.258 . S
C96 O90 1.247 . S
C96 O91 1.258 . S
C97 O94 1.247 . S
C97 O95 1.258 . S
C98 O100 1.247 . S
C98 O102 1.258 . S
C99 O106 1.247 . S
C99 O107 1.258 . S
O100 C98 1.247 . S
O100 Zn101 2.028 . S
Zn101 O100 2.028 . S
Zn101 O105 2.035 . S
Zn101 O107 2.035 . S
Zn101 O108 2.028 . S
O102 C98 1.258 . S
O102 Zn103 2.035 . S
Zn103 O102 2.035 . S
Zn103 O104 2.028 . S
Zn103 O106 2.028 . S
Zn103 O109 2.035 . S
O104 Zn103 2.028 . S
O104 C110 1.247 . S
O105 Zn101 2.035 . S
O105 C110 1.258 . S
O106 C99 1.247 . S
O106 Zn103 2.028 . S
O107 C99 1.258 . S
O107 Zn101 2.035 . S
O108 Zn101 2.028 . S
O108 C111 1.247 . S
O109 Zn103 2.035 . S
O109 C111 1.258 . S
C110 O104 1.247 . S
C110 O105 1.258 . S
C111 O108 1.247 . S
C111 O109 1.258 . S
C112 O114 1.247 . S
C112 O116 1.258 . S
C113 O120 1.247 . S
C113 O121 1.258 . S
O114 C112 1.247 . S
O114 Zn115 2.028 . S
Zn115 O114 2.028 . S
Zn115 O119 2.035 . S
Zn115 O121 2.035 1_545 S
Zn115 O122 2.028 . S
O116 C112 1.258 . S
O116 Zn117 2.035 . S
Zn117 O116 2.035 . S
Zn117 O118 2.028 . S
Zn117 O120 2.028 1_545 S
Zn117 O123 2.035 . S
O118 Zn117 2.028 . S
O118 C124 1.247 . S
O119 Zn115 2.035 . S
O119 C124 1.258 . S
O120 C113 1.247 . S
O120 Zn117 2.028 1_565 S
O121 C113 1.258 . S
O121 Zn115 2.035 1_565 S
O122 Zn115 2.028 . S
O122 C125 1.247 . S
O123 Zn117 2.035 . S
O123 C125 1.258 . S
C124 O118 1.247 . S
C124 O119 1.258 . S
C125 O122 1.247 . S
C125 O123 1.258 . S
C126 O128 1.247 . S
C126 O130 1.258 . S
C127 O134 1.247 . S
C127 O135 1.258 . S
O128 C126 1.247 . S
O128 Zn129 2.028 . S
Zn129 O128 2.028 . S
Zn129 O133 2.035 . S
Zn129 O135 2.035 . S
Zn129 O136 2.028 . S
O130 C126 1.258 . S
O130 Zn131 2.035 . S
Zn131 O130 2.035 . S
Zn131 O132 2.028 . S
Zn131 O134 2.028 . S
Zn131 O137 2.035 . S
O132 Zn131 2.028 . S
O132 C138 1.247 . S
O133 Zn129 2.035 . S
O133 C138 1.258 . S
O134 C127 1.247 . S
O134 Zn131 2.028 . S
O135 C127 1.258 . S
O135 Zn129 2.035 . S
O136 Zn129 2.028 . S
O136 C139 1.247 . S
O137 Zn131 2.035 . S
O137 C139 1.258 . S
C138 O132 1.247 . S
C138 O133 1.258 . S
C139 O136 1.247 . S
C139 O137 1.258 . S
C140 O142 1.247 . S
C140 O144 1.258 . S
C141 O148 1.247 . S
C141 O149 1.258 . S
O142 C140 1.247 . S
O142 Zn143 2.028 . S
Zn143 O142 2.028 . S
Zn143 O147 2.035 1_565 S
Zn143 O149 2.035 . S
Zn143 O150 2.028 . S
O144 C140 1.258 . S
O144 Zn145 2.035 . S
Zn145 O144 2.035 . S
Zn145 O146 2.028 1_565 S
Zn145 O148 2.028 . S
Zn145 O151 2.035 . S
O146 Zn145 2.028 1_545 S
O146 C152 1.247 . S
O147 Zn143 2.035 1_545 S
O147 C152 1.258 . S
O148 C141 1.247 . S
O148 Zn145 2.028 . S
O149 C141 1.258 . S
O149 Zn143 2.035 . S
O150 Zn143 2.028 . S
O150 C153 1.247 . S
O151 Zn145 2.035 . S
O151 C153 1.258 . S
C152 O146 1.247 . S
C152 O147 1.258 . S
C153 O150 1.247 . S
C153 O151 1.258 . S
C154 O156 1.247 . S
C154 O158 1.258 . S
C155 O162 1.247 . S
C155 O163 1.258 . S
O156 C154 1.247 . S
O156 Zn157 2.028 . S
Zn157 O156 2.028 . S
Zn157 O161 2.035 . S
Zn157 O163 2.035 . S
Zn157 O164 2.028 . S
O158 C154 1.258 . S
O158 Zn159 2.035 . S
Zn159 O158 2.035 . S
Zn159 O160 2.028 . S
Zn159 O162 2.028 . S
Zn159 O165 2.035 . S
O160 Zn159 2.028 . S
O160 C166 1.247 . S
O161 Zn157 2.035 . S
O161 C166 1.258 . S
O162 C155 1.247 . S
O162 Zn159 2.028 . S
O163 C155 1.258 . S
O163 Zn157 2.035 . S
O164 Zn157 2.028 . S
O164 C167 1.247 . S
O165 Zn159 2.035 . S
O165 C167 1.258 . S
C166 O160 1.247 . S
C166 O161 1.258 . S
C167 O164 1.247 . S
C167 O165 1.258 . S
C168 O170 1.247 . S
C168 O172 1.258 . S
C169 O176 1.247 . S
C169 O177 1.258 . S
O170 C168 1.247 . S
O170 Zn171 2.028 . S
Zn171 O170 2.028 . S
Zn171 O175 2.035 1_565 S
Zn171 O177 2.035 . S
Zn171 O178 2.028 . S
O172 C168 1.258 . S
O172 Zn173 2.035 . S
Zn173 O172 2.035 . S
Zn173 O174 2.028 1_565 S
Zn173 O176 2.028 . S
Zn173 O179 2.035 . S
O174 Zn173 2.028 1_545 S
O174 C180 1.247 . S
O175 Zn171 2.035 1_545 S
O175 C180 1.258 . S
O176 C169 1.247 . S
O176 Zn173 2.028 . S
O177 C169 1.258 . S
O177 Zn171 2.035 . S
O178 Zn171 2.028 . S
O178 C181 1.247 . S
O179 Zn173 2.035 . S
O179 C181 1.258 . S
C180 O174 1.247 . S
C180 O175 1.258 . S
C181 O178 1.247 . S
C181 O179 1.258 . S
C182 O184 1.247 . S
C182 O186 1.258 . S
C183 O190 1.247 . S
C183 O191 1.258 . S
O184 C182 1.247 . S
O184 Zn185 2.028 . S
Zn185 O184 2.028 . S
Zn185 O189 2.035 . S
Zn185 O191 2.035 . S
Zn185 O192 2.028 . S
O186 C182 1.258 . S
O186 Zn187 2.035 . S
Zn187 O186 2.035 . S
Zn187 O188 2.028 . S
Zn187 O190 2.028 . S
Zn187 O193 2.035 . S
O188 Zn187 2.028 . S
O188 C194 1.247 . S
O189 Zn185 2.035 . S
O189 C194 1.258 . S
O190 C183 1.247 . S
O190 Zn187 2.028 . S
O191 C183 1.258 . S
O191 Zn185 2.035 . S
O192 Zn185 2.028 . S
O192 C195 1.247 . S
O193 Zn187 2.035 . S
O193 C195 1.258 . S
C194 O188 1.247 . S
C194 O189 1.258 . S
C195 O192 1.247 . S
C195 O193 1.258 . S
C196 O198 1.247 . S
C196 O200 1.258 . S
C197 O204 1.247 . S
C197 O205 1.258 . S
O198 C196 1.247 . S
O198 Zn199 2.028 . S
Zn199 O198 2.028 . S
Zn199 O203 2.035 1_545 S
Zn199 O205 2.035 . S
Zn199 O206 2.028 . S
O200 C196 1.258 . S
O200 Zn201 2.035 . S
Zn201 O200 2.035 . S
Zn201 O202 2.028 1_545 S
Zn201 O204 2.028 . S
Zn201 O207 2.035 . S
O202 Zn201 2.028 1_565 S
O202 C208 1.247 . S
O203 Zn199 2.035 1_565 S
O203 C208 1.258 . S
O204 C197 1.247 . S
O204 Zn201 2.028 . S
O205 C197 1.258 . S
O205 Zn199 2.035 . S
O206 Zn199 2.028 . S
O206 C209 1.247 . S
O207 Zn201 2.035 . S
O207 C209 1.258 . S
C208 O202 1.247 . S
C208 O203 1.258 . S
C209 O206 1.247 . S
C209 O207 1.258 . S
C210 O212 1.247 . S
C210 O214 1.258 . S
C211 O218 1.247 . S
C211 O219 1.258 . S
O212 C210 1.247 . S
O212 Zn213 2.028 . S
Zn213 O212 2.028 . S
Zn213 O217 2.035 . S
Zn213 O219 2.035 . S
Zn213 O220 2.028 . S
O214 C210 1.258 . S
O214 Zn215 2.035 . S
Zn215 O214 2.035 . S
Zn215 O216 2.028 . S
Zn215 O218 2.028 . S
Zn215 O221 2.035 . S
O216 Zn215 2.028 . S
O216 C222 1.247 . S
O217 Zn213 2.035 . S
O217 C222 1.258 . S
O218 C211 1.247 . S
O218 Zn215 2.028 . S
O219 C211 1.258 . S
O219 Zn213 2.035 . S
O220 Zn213 2.028 . S
O220 C223 1.247 . S
O221 Zn215 2.035 . S
O221 C223 1.258 . S
C222 O216 1.247 . S
C222 O217 1.258 . S
C223 O220 1.247 . S
C223 O221 1.258 . S
C224 O226 1.247 . S
C224 O228 1.258 . S
C225 O232 1.247 . S
C225 O233 1.258 . S
O226 C224 1.247 . S
O226 Zn227 2.028 . S
Zn227 O226 2.028 . S
Zn227 O231 2.035 . S
Zn227 O233 2.035 1_554 S
Zn227 O234 2.028 . S
O228 C224 1.258 . S
O228 Zn229 2.035 . S
Zn229 O228 2.035 . S
Zn229 O230 2.028 . S
Zn229 O232 2.028 1_554 S
Zn229 O235 2.035 . S
O230 Zn229 2.028 . S
O230 C236 1.247 . S
O231 Zn227 2.035 . S
O231 C236 1.258 . S
O232 C225 1.247 . S
O232 Zn229 2.028 1_556 S
O233 C225 1.258 . S
O233 Zn227 2.035 1_556 S
O234 Zn227 2.028 . S
O234 C237 1.247 . S
O235 Zn229 2.035 . S
O235 C237 1.258 . S
C236 O230 1.247 . S
C236 O231 1.258 . S
C237 O234 1.247 . S
C237 O235 1.258 . S
C238 O240 1.247 . S
C238 O242 1.258 . S
C239 O246 1.247 . S
C239 O247 1.258 . S
O240 C238 1.247 . S
O240 Zn241 2.028 . S
Zn241 O240 2.028 . S
Zn241 O245 2.035 . S
Zn241 O247 2.035 1_556 S
Zn241 O248 2.028 . S
O242 C238 1.258 . S
O242 Zn243 2.035 . S
Zn243 O242 2.035 . S
Zn243 O244 2.028 . S
Zn243 O246 2.028 1_556 S
Zn243 O249 2.035 . S
O244 Zn243 2.028 . S
O244 C250 1.247 . S
O245 Zn241 2.035 . S
O245 C250 1.258 . S
O246 C239 1.247 . S
O246 Zn243 2.028 1_554 S
O247 C239 1.258 . S
O247 Zn241 2.035 1_554 S
O248 Zn241 2.028 . S
O248 C251 1.247 . S
O249 Zn243 2.035 . S
O249 C251 1.258 . S
C250 O244 1.247 . S
C250 O245 1.258 . S
C251 O248 1.247 . S
C251 O249 1.258 . S
C252 O254 1.247 . S
C252 O256 1.258 . S
C253 O260 1.247 . S
C253 O261 1.258 . S
O254 C252 1.247 . S
O254 Zn255 2.028 . S
Zn255 O254 2.028 . S
Zn255 O259 2.035 . S
Zn255 O261 2.035 . S
Zn255 O262 2.028 . S
O256 C252 1.258 . S
O256 Zn257 2.035 . S
Zn257 O256 2.035 . S
Zn257 O258 2.028 . S
Zn257 O260 2.028 . S
Zn257 O263 2.035 . S
O258 Zn257 2.028 . S
O258 C264 1.247 . S
O259 Zn255 2.035 . S
O259 C264 1.258 . S
O260 C253 1.247 . S
O260 Zn257 2.028 . S
O261 C253 1.258 . S
O261 Zn255 2.035 . S
O262 Zn255 2.028 . S
O262 C265 1.247 . S
O263 Zn257 2.035 . S
O263 C265 1.258 . S
C264 O258 1.247 . S
C264 O259 1.258 . S
C265 O262 1.247 . S
C265 O263 1.258 . S
C266 O268 1.247 . S
C266 O270 1.258 . S
C267 O274 1.247 . S
C267 O275 1.258 . S
O268 C266 1.247 . S
O268 Zn269 2.028 . S
Zn269 O268 2.028 . S
Zn269 O273 2.035 . S
Zn269 O275 2.035 . S
Zn269 O276 2.028 . S
O270 C266 1.258 . S
O270 Zn271 2.035 . S
Zn271 O270 2.035 . S
Zn271 O272 2.028 . S
Zn271 O274 2.028 . S
Zn271 O277 2.035 . S
O272 Zn271 2.028 . S
O272 C278 1.247 . S
O273 Zn269 2.035 . S
O273 C278 1.258 . S
O274 C267 1.247 . S
O274 Zn271 2.028 . S
O275 C267 1.258 . S
O275 Zn269 2.035 . S
O276 Zn269 2.028 . S
O276 C279 1.247 . S
O277 Zn271 2.035 . S
O277 C279 1.258 . S
C278 O272 1.247 . S
C278 O273 1.258 . S
C279 O276 1.247 . S
C279 O277 1.258 . S
C280 O282 1.247 . S
C280 O284 1.258 . S
C281 O288 1.247 . S
C281 O289 1.258 . S
O282 C280 1.247 . S
O282 Zn283 2.028 . S
Zn283 O282 2.028 . S
Zn283 O287 2.035 . S
Zn283 O289 2.035 . S
Zn283 O290 2.028 . S
O284 C280 1.258 . S
O284 Zn285 2.035 . S
Zn285 O284 2.035 . S
Zn285 O286 2.028 . S
Zn285 O288 2.028 . S
Zn285 O291 2.035 . S
O286 Zn285 2.028 . S
O286 C292 1.247 . S
O287 Zn283 2.035 . S
O287 C292 1.258 . S
O288 C281 1.247 . S
O288 Zn285 2.028 . S
O289 C281 1.258 . S
O289 Zn283 2.035 . S
O290 Zn283 2.028 . S
O290 C293 1.247 . S
O291 Zn285 2.035 . S
O291 C293 1.258 . S
C292 O286 1.247 . S
C292 O287 1.258 . S
C293 O290 1.247 . S
C293 O291 1.258 . S
C294 O296 1.247 . S
C294 O298 1.258 . S
C295 O302 1.247 . S
C295 O303 1.258 . S
O296 C294 1.247 . S
O296 Zn297 2.028 . S
Zn297 O296 2.028 . S
Zn297 O301 2.035 . S
Zn297 O303 2.035 . S
Zn297 O304 2.028 . S
O298 C294 1.258 . S
O298 Zn299 2.035 . S
Zn299 O298 2.035 . S
Zn299 O300 2.028 . S
Zn299 O302 2.028 . S
Zn299 O305 2.035 . S
O300 Zn299 2.028 . S
O300 C306 1.247 . S
O301 Zn297 2.035 . S
O301 C306 1.258 . S
O302 C295 1.247 . S
O302 Zn299 2.028 . S
O303 C295 1.258 . S
O303 Zn297 2.035 . S
O304 Zn297 2.028 . S
O304 C307 1.247 . S
O305 Zn299 2.035 . S
O305 C307 1.258 . S
C306 O300 1.247 . S
C306 O301 1.258 . S
C307 O304 1.247 . S
C307 O305 1.258 . S
C308 O310 1.247 . S
C308 O312 1.258 . S
C309 O316 1.247 . S
C309 O317 1.258 . S
O310 C308 1.247 . S
O310 Zn311 2.028 . S
Zn311 O310 2.028 . S
Zn311 O315 2.035 . S
Zn311 O317 2.035 . S
Zn311 O318 2.028 . S
O312 C308 1.258 . S
O312 Zn313 2.035 . S
Zn313 O312 2.035 . S
Zn313 O314 2.028 . S
Zn313 O316 2.028 . S
Zn313 O319 2.035 . S
O314 Zn313 2.028 . S
O314 C320 1.247 . S
O315 Zn311 2.035 . S
O315 C320 1.258 . S
O316 C309 1.247 . S
O316 Zn313 2.028 . S
O317 C309 1.258 . S
O317 Zn311 2.035 . S
O318 Zn311 2.028 . S
O318 C321 1.247 . S
O319 Zn313 2.035 . S
O319 C321 1.258 . S
C320 O314 1.247 . S
C320 O315 1.258 . S
C321 O318 1.247 . S
C321 O319 1.258 . S
C322 O324 1.247 . S
C322 O326 1.258 . S
C323 O330 1.247 . S
C323 O331 1.258 . S
O324 C322 1.247 . S
O324 Zn325 2.028 . S
Zn325 O324 2.028 . S
Zn325 O329 2.035 . S
Zn325 O331 2.035 . S
Zn325 O332 2.028 . S
O326 C322 1.258 . S
O326 Zn327 2.035 . S
Zn327 O326 2.035 . S
Zn327 O328 2.028 . S
Zn327 O330 2.028 . S
Zn327 O333 2.035 . S
O328 Zn327 2.028 . S
O328 C334 1.247 . S
O329 Zn325 2.035 . S
O329 C334 1.258 . S
O330 C323 1.247 . S
O330 Zn327 2.028 . S
O331 C323 1.258 . S
O331 Zn325 2.035 . S
O332 Zn325 2.028 . S
O332 C335 1.247 . S
O333 Zn327 2.035 . S
O333 C335 1.258 . S
C334 O328 1.247 . S
C334 O329 1.258 . S
C335 O332 1.247 . S
C335 O333 1.258 . S
C336 O338 1.247 . S
C336 O340 1.258 . S
C337 O344 1.247 . S
C337 O345 1.258 . S
O338 C336 1.247 . S
O338 Zn339 2.028 . S
Zn339 O338 2.028 . S
Zn339 O343 2.035 . S
Zn339 O345 2.035 . S
Zn339 O346 2.028 1_655 S
O340 C336 1.258 . S
O340 Zn341 2.035 . S
Zn341 O340 2.035 . S
Zn341 O342 2.028 . S
Zn341 O344 2.028 . S
Zn341 O347 2.035 1_655 S
O342 Zn341 2.028 . S
O342 C348 1.247 . S
O343 Zn339 2.035 . S
O343 C348 1.258 . S
O344 C337 1.247 . S
O344 Zn341 2.028 . S
O345 C337 1.258 . S
O345 Zn339 2.035 . S
O346 Zn339 2.028 1_455 S
O346 C349 1.247 . S
O347 Zn341 2.035 1_455 S
O347 C349 1.258 . S
C348 O342 1.247 . S
C348 O343 1.258 . S
C349 O346 1.247 . S
C349 O347 1.258 . S
C350 O352 1.247 . S
C350 O354 1.258 . S
C351 O358 1.247 . S
C351 O359 1.258 . S
O352 C350 1.247 . S
O352 Zn353 2.028 . S
Zn353 O352 2.028 . S
Zn353 O357 2.035 . S
Zn353 O359 2.035 . S
Zn353 O360 2.028 . S
O354 C350 1.258 . S
O354 Zn355 2.035 . S
Zn355 O354 2.035 . S
Zn355 O356 2.028 . S
Zn355 O358 2.028 . S
Zn355 O361 2.035 . S
O356 Zn355 2.028 . S
O356 C362 1.247 . S
O357 Zn353 2.035 . S
O357 C362 1.258 . S
O358 C351 1.247 . S
O358 Zn355 2.028 . S
O359 C351 1.258 . S
O359 Zn353 2.035 . S
O360 Zn353 2.028 . S
O360 C363 1.247 . S
O361 Zn355 2.035 . S
O361 C363 1.258 . S
C362 O356 1.247 . S
C362 O357 1.258 . S
C363 O360 1.247 . S
C363 O361 1.258 . S
C364 O366 1.247 . S
C364 O368 1.258 . S
C365 O372 1.247 . S
C365 O373 1.258 . S
O366 C364 1.247 . S
O366 Zn367 2.028 . S
Zn367 O366 2.028 . S
Zn367 O371 2.035 . S
Zn367 O373 2.035 . S
Zn367 O374 2.028 . S
O368 C364 1.258 . S
O368 Zn369 2.035 . S
Zn369 O368 2.035 . S
Zn369 O370 2.028 . S
Zn369 O372 2.028 . S
Zn369 O375 2.035 . S
O370 Zn369 2.028 . S
O370 C376 1.247 . S
O371 Zn367 2.035 . S
O371 C376 1.258 . S
O372 C365 1.247 . S
O372 Zn369 2.028 . S
O373 C365 1.258 . S
O373 Zn367 2.035 . S
O374 Zn367 2.028 . S
O374 C377 1.247 . S
O375 Zn369 2.035 . S
O375 C377 1.258 . S
C376 O370 1.247 . S
C376 O371 1.258 . S
C377 O374 1.247 . S
C377 O375 1.258 . S
C378 O380 1.247 . S
C378 O382 1.258 . S
C379 O386 1.247 . S
C379 O387 1.258 . S
O380 C378 1.247 . S
O380 Zn381 2.028 . S
Zn381 O380 2.028 . S
Zn381 O385 2.035 . S
Zn381 O387 2.035 . S
Zn381 O388 2.028 . S
O382 C378 1.258 . S
O382 Zn383 2.035 . S
Zn383 O382 2.035 . S
Zn383 O384 2.028 . S
Zn383 O386 2.028 . S
Zn383 O389 2.035 . S
O384 Zn383 2.028 . S
O384 C390 1.247 . S
O385 Zn381 2.035 . S
O385 C390 1.258 . S
O386 C379 1.247 . S
O386 Zn383 2.028 . S
O387 C379 1.258 . S
O387 Zn381 2.035 . S
O388 Zn381 2.028 . S
O388 C391 1.247 . S
O389 Zn383 2.035 . S
O389 C391 1.258 . S
C390 O384 1.247 . S
C390 O385 1.258 . S
C391 O388 1.247 . S
C391 O389 1.258 . S
C392 O394 1.247 . S
C392 O396 1.258 . S
C393 O400 1.247 . S
C393 O401 1.258 . S
O394 C392 1.247 . S
O394 Zn395 2.028 . S
Zn395 O394 2.028 . S
Zn395 O399 2.035 . S
Zn395 O401 2.035 1_655 S
Zn395 O402 2.028 . S
O396 C392 1.258 . S
O396 Zn397 2.035 . S
Zn397 O396 2.035 . S
Zn397 O398 2.028 . S
Zn397 O400 2.028 1_655 S
Zn397 O403 2.035 . S
O398 Zn397 2.028 . S
O398 C404 1.247 . S
O399 Zn395 2.035 . S
O399 C404 1.258 . S
O400 C393 1.247 . S
O400 Zn397 2.028 1_455 S
O401 C393 1.258 . S
O401 Zn395 2.035 1_455 S
O402 Zn395 2.028 . S
O402 C405 1.247 . S
O403 Zn397 2.035 . S
O403 C405 1.258 . S
C404 O398 1.247 . S
C404 O399 1.258 . S
C405 O402 1.247 . S
C405 O403 1.258 . S
C406 O408 1.247 . S
C406 O410 1.258 . S
C407 O414 1.247 . S
C407 O415 1.258 . S
O408 C406 1.247 . S
O408 Zn409 2.028 . S
Zn409 O408 2.028 . S
Zn409 O413 2.035 . S
Zn409 O415 2.035 . S
Zn409 O416 2.028 . S
O410 C406 1.258 . S
O410 Zn411 2.035 . S
Zn411 O410 2.035 . S
Zn411 O412 2.028 . S
Zn411 O414 2.028 . S
Zn411 O417 2.035 . S
O412 Zn411 2.028 . S
O412 C418 1.247 . S
O413 Zn409 2.035 . S
O413 C418 1.258 . S
O414 C407 1.247 . S
O414 Zn411 2.028 . S
O415 C407 1.258 . S
O415 Zn409 2.035 . S
O416 Zn409 2.028 . S
O416 C419 1.247 . S
O417 Zn411 2.035 . S
O417 C419 1.258 . S
C418 O412 1.247 . S
C418 O413 1.258 . S
C419 O416 1.247 . S
C419 O417 1.258 . S
C420 O422 1.247 . S
C420 O424 1.258 . S
C421 O428 1.247 . S
C421 O429 1.258 . S
O422 C420 1.247 . S
O422 Zn423 2.028 . S
Zn423 O422 2.028 . S
Zn423 O427 2.035 . S
Zn423 O429 2.035 . S
Zn423 O430 2.028 . S
O424 C420 1.258 . S
O424 Zn425 2.035 . S
Zn425 O424 2.035 . S
Zn425 O426 2.028 . S
Zn425 O428 2.028 . S
Zn425 O431 2.035 . S
O426 Zn425 2.028 . S
O426 C432 1.247 . S
O427 Zn423 2.035 . S
O427 C432 1.258 . S
O428 C421 1.247 . S
O428 Zn425 2.028 . S
O429 C421 1.258 . S
O429 Zn423 2.035 . S
O430 Zn423 2.028 . S
O430 C433 1.247 . S
O431 Zn425 2.035 . S
O431 C433 1.258 . S
C432 O426 1.247 . S
C432 O427 1.258 . S
C433 O430 1.247 . S
C433 O431 1.258 . S
C434 O436 1.247 . S
C434 O438 1.258 . S
C435 O442 1.247 . S
C435 O443 1.258 . S
O436 C434 1.247 . S
O436 Zn437 2.028 . S
Zn437 O436 2.028 . S
Zn437 O441 2.035 . S
Zn437 O443 2.035 . S
Zn437 O444 2.028 . S
O438 C434 1.258 . S
O438 Zn439 2.035 . S
Zn439 O438 2.035 . S
Zn439 O440 2.028 . S
Zn439 O442 2.028 . S
Zn439 O445 2.035 . S
O440 Zn439 2.028 . S
O440 C446 1.247 . S
O441 Zn437 2.035 . S
O441 C446 1.258 . S
O442 C435 1.247 . S
O442 Zn439 2.028 . S
O443 C435 1.258 . S
O443 Zn437 2.035 . S
O444 Zn437 2.028 . S
O444 C447 1.247 . S
O445 Zn439 2.035 . S
O445 C447 1.258 . S
C446 O440 1.247 . S
C446 O441 1.258 . S
C447 O444 1.247 . S
C447 O445 1.258 . S
C448 O450 1.247 . S
C448 O452 1.258 . S
C449 O456 1.247 . S
C449 O457 1.258 . S
O450 C448 1.247 . S
O450 Zn451 2.028 . S
Zn451 O450 2.028 . S
Zn451 O455 2.035 . S
Zn451 O457 2.035 . S
Zn451 O458 2.028 1_565 S
O452 C448 1.258 . S
O452 Zn453 2.035 . S
Zn453 O452 2.035 . S
Zn453 O454 2.028 . S
Zn453 O456 2.028 . S
Zn453 O459 2.035 1_565 S
O454 Zn453 2.028 . S
O454 C460 1.247 . S
O455 Zn451 2.035 . S
O455 C460 1.258 . S
O456 C449 1.247 . S
O456 Zn453 2.028 . S
O457 C449 1.258 . S
O457 Zn451 2.035 . S
O458 Zn451 2.028 1_545 S
O458 C461 1.247 . S
O459 Zn453 2.035 1_545 S
O459 C461 1.258 . S
C460 O454 1.247 . S
C460 O455 1.258 . S
C461 O458 1.247 . S
C461 O459 1.258 . S
C462 O464 1.247 . S
C462 O466 1.258 . S
C463 O470 1.247 . S
C463 O471 1.258 . S
O464 C462 1.247 . S
O464 Zn465 2.028 . S
Zn465 O464 2.028 . S
Zn465 O469 2.035 . S
Zn465 O471 2.035 . S
Zn465 O472 2.028 . S
O466 C462 1.258 . S
O466 Zn467 2.035 . S
Zn467 O466 2.035 . S
Zn467 O468 2.028 . S
Zn467 O470 2.028 . S
Zn467 O473 2.035 . S
O468 Zn467 2.028 . S
O468 C474 1.247 . S
O469 Zn465 2.035 . S
O469 C474 1.258 . S
O470 C463 1.247 . S
O470 Zn467 2.028 . S
O471 C463 1.258 . S
O471 Zn465 2.035 . S
O472 Zn465 2.028 . S
O472 C475 1.247 . S
O473 Zn467 2.035 . S
O473 C475 1.258 . S
C474 O468 1.247 . S
C474 O469 1.258 . S
C475 O472 1.247 . S
C475 O473 1.258 . S
C476 O478 1.247 . S
C476 O480 1.258 . S
C477 O484 1.247 . S
C477 O485 1.258 . S
O478 C476 1.247 . S
O478 Zn479 2.028 . S
Zn479 O478 2.028 . S
Zn479 O483 2.035 . S
Zn479 O485 2.035 1_545 S
Zn479 O486 2.028 . S
O480 C476 1.258 . S
O480 Zn481 2.035 . S
Zn481 O480 2.035 . S
Zn481 O482 2.028 . S
Zn481 O484 2.028 1_545 S
Zn481 O487 2.035 . S
O482 Zn481 2.028 . S
O482 C488 1.247 . S
O483 Zn479 2.035 . S
O483 C488 1.258 . S
O484 C477 1.247 . S
O484 Zn481 2.028 1_565 S
O485 C477 1.258 . S
O485 Zn479 2.035 1_565 S
O486 Zn479 2.028 . S
O486 C489 1.247 . S
O487 Zn481 2.035 . S
O487 C489 1.258 . S
C488 O482 1.247 . S
C488 O483 1.258 . S
C489 O486 1.247 . S
C489 O487 1.258 . S
C490 O492 1.247 . S
C490 O494 1.258 . S
C491 O498 1.247 . S
C491 O499 1.258 . S
O492 C490 1.247 . S
O492 Zn493 2.028 . S
Zn493 O492 2.028 . S
Zn493 O497 2.035 . S
Zn493 O499 2.035 . S
Zn493 O500 2.028 . S
O494 C490 1.258 . S
O494 Zn495 2.035 . S
Zn495 O494 2.035 . S
Zn495 O496 2.028 . S
Zn495 O498 2.028 . S
Zn495 O501 2.035 . S
O496 Zn495 2.028 . S
O496 C502 1.247 . S
O497 Zn493 2.035 . S
O497 C502 1.258 . S
O498 C491 1.247 . S
O498 Zn495 2.028 . S
O499 C491 1.258 . S
O499 Zn493 2.035 . S
O500 Zn493 2.028 . S
O500 C503 1.247 . S
O501 Zn495 2.035 . S
O501 C503 1.258 . S
C502 O496 1.247 . S
C502 O497 1.258 . S
C503 O500 1.247 . S
C503 O501 1.258 . S
C504 O506 1.247 . S
C504 O508 1.258 . S
C505 O512 1.247 . S
C505 O513 1.258 . S
O506 C504 1.247 . S
O506 Zn507 2.028 . S
Zn507 O506 2.028 . S
Zn507 O511 2.035 1_545 S
Zn507 O513 2.035 . S
Zn507 O514 2.028 . S
O508 C504 1.258 . S
O508 Zn509 2.035 . S
Zn509 O508 2.035 . S
Zn509 O510 2.028 1_545 S
Zn509 O512 2.028 . S
Zn509 O515 2.035 . S
O510 Zn509 2.028 1_565 S
O510 C516 1.247 . S
O511 Zn507 2.035 1_565 S
O511 C516 1.258 . S
O512 C505 1.247 . S
O512 Zn509 2.028 . S
O513 C505 1.258 . S
O513 Zn507 2.035 . S
O514 Zn507 2.028 . S
O514 C517 1.247 . S
O515 Zn509 2.035 . S
O515 C517 1.258 . S
C516 O510 1.247 . S
C516 O511 1.258 . S
C517 O514 1.247 . S
C517 O515 1.258 . S
C518 O520 1.247 . S
C518 O522 1.258 . S
C519 O526 1.247 . S
C519 O527 1.258 . S
O520 C518 1.247 . S
O520 Zn521 2.028 . S
Zn521 O520 2.028 . S
Zn521 O525 2.035 . S
Zn521 O527 2.035 . S
Zn521 O528 2.028 . S
O522 C518 1.258 . S
O522 Zn523 2.035 . S
Zn523 O522 2.035 . S
Zn523 O524 2.028 . S
Zn523 O526 2.028 . S
Zn523 O529 2.035 . S
O524 Zn523 2.028 . S
O524 C530 1.247 . S
O525 Zn521 2.035 . S
O525 C530 1.258 . S
O526 C519 1.247 . S
O526 Zn523 2.028 . S
O527 C519 1.258 . S
O527 Zn521 2.035 . S
O528 Zn521 2.028 . S
O528 C531 1.247 . S
O529 Zn523 2.035 . S
O529 C531 1.258 . S
C530 O524 1.247 . S
C530 O525 1.258 . S
C531 O528 1.247 . S
C531 O529 1.258 . S
C532 O534 1.247 . S
C532 O536 1.258 . S
C533 O540 1.247 . S
C533 O541 1.258 . S
O534 C532 1.247 . S
O534 Zn535 2.028 . S
Zn535 O534 2.028 . S
Zn535 O539 2.035 . S
Zn535 O541 2.035 . S
Zn535 O542 2.028 1_565 S
O536 C532 1.258 . S
O536 Zn537 2.035 . S
Zn537 O536 2.035 . S
Zn537 O538 2.028 . S
Zn537 O540 2.028 . S
Zn537 O543 2.035 1_565 S
O538 Zn537 2.028 . S
O538 C544 1.247 . S
O539 Zn535 2.035 . S
O539 C544 1.258 . S
O540 C533 1.247 . S
O540 Zn537 2.028 . S
O541 C533 1.258 . S
O541 Zn535 2.035 . S
O542 Zn535 2.028 1_545 S
O542 C545 1.247 . S
O543 Zn537 2.035 1_545 S
O543 C545 1.258 . S
C544 O538 1.247 . S
C544 O539 1.258 . S
C545 O542 1.247 . S
C545 O543 1.258 . S
C546 O548 1.247 . S
C546 O550 1.258 . S
C547 O554 1.247 . S
C547 O555 1.258 . S
O548 C546 1.247 . S
O548 Zn549 2.028 . S
Zn549 O548 2.028 . S
Zn549 O553 2.035 . S
Zn549 O555 2.035 . S
Zn549 O556 2.028 . S
O550 C546 1.258 . S
O550 Zn551 2.035 . S
Zn551 O550 2.035 . S
Zn551 O552 2.028 . S
Zn551 O554 2.028 . S
Zn551 O557 2.035 . S
O552 Zn551 2.028 . S
O552 C558 1.247 . S
O553 Zn549 2.035 . S
O553 C558 1.258 . S
O554 C547 1.247 . S
O554 Zn551 2.028 . S
O555 C547 1.258 . S
O555 Zn549 2.035 . S
O556 Zn549 2.028 . S
O556 C559 1.247 . S
O557 Zn551 2.035 . S
O557 C559 1.258 . S
C558 O552 1.247 . S
C558 O553 1.258 . S
C559 O556 1.247 . S
C559 O557 1.258 . S
C560 O562 1.247 . S
C560 O564 1.258 . S
C561 O568 1.247 . S
C561 O569 1.258 . S
O562 C560 1.247 . S
O562 Zn563 2.028 1_554 S
Zn563 O562 2.028 1_556 S
Zn563 O567 2.035 . S
Zn563 O569 2.035 . S
Zn563 O570 2.028 . S
O564 C560 1.258 . S
O564 Zn565 2.035 1_554 S
Zn565 O564 2.035 1_556 S
Zn565 O566 2.028 . S
Zn565 O568 2.028 . S
Zn565 O571 2.035 . S
O566 Zn565 2.028 . S
O566 C572 1.247 . S
O567 Zn563 2.035 . S
O567 C572 1.258 . S
O568 C561 1.247 . S
O568 Zn565 2.028 . S
O569 C561 1.258 . S
O569 Zn563 2.035 . S
O570 Zn563 2.028 . S
O570 C573 1.247 . S
O571 Zn565 2.035 . S
O571 C573 1.258 . S
C572 O566 1.247 . S
C572 O567 1.258 . S
C573 O570 1.247 . S
C573 O571 1.258 . S
C574 O576 1.247 . S
C574 O578 1.258 . S
C575 O582 1.247 . S
C575 O583 1.258 . S
O576 C574 1.247 . S
O576 Zn577 2.028 . S
Zn577 O576 2.028 . S
Zn577 O581 2.035 . S
Zn577 O583 2.035 1_554 S
Zn577 O584 2.028 . S
O578 C574 1.258 . S
O578 Zn579 2.035 . S
Zn579 O578 2.035 . S
Zn579 O580 2.028 . S
Zn579 O582 2.028 1_554 S
Zn579 O585 2.035 . S
O580 Zn579 2.028 . S
O580 C586 1.247 . S
O581 Zn577 2.035 . S
O581 C586 1.258 . S
O582 C575 1.247 . S
O582 Zn579 2.028 1_556 S
O583 C575 1.258 . S
O583 Zn577 2.035 1_556 S
O584 Zn577 2.028 . S
O584 C587 1.247 . S
O585 Zn579 2.035 . S
O585 C587 1.258 . S
C586 O580 1.247 . S
C586 O581 1.258 . S
C587 O584 1.247 . S
C587 O585 1.258 . S
C588 O590 1.247 . S
C588 O592 1.258 . S
C589 O596 1.247 . S
C589 O597 1.258 . S
O590 C588 1.247 . S
O590 Zn591 2.028 . S
Zn591 O590 2.028 . S
Zn591 O595 2.035 . S
Zn591 O597 2.035 . S
Zn591 O598 2.028 . S
O592 C588 1.258 . S
O592 Zn593 2.035 . S
Zn593 O592 2.035 . S
Zn593 O594 2.028 . S
Zn593 O596 2.028 . S
Zn593 O599 2.035 . S
O594 Zn593 2.028 . S
O594 C600 1.247 . S
O595 Zn591 2.035 . S
O595 C600 1.258 . S
O596 C589 1.247 . S
O596 Zn593 2.028 . S
O597 C589 1.258 . S
O597 Zn591 2.035 . S
O598 Zn591 2.028 . S
O598 C601 1.247 . S
O599 Zn593 2.035 . S
O599 C601 1.258 . S
C600 O594 1.247 . S
C600 O595 1.258 . S
C601 O598 1.247 . S
C601 O599 1.258 . S
C602 O604 1.247 . S
C602 O606 1.258 . S
C603 O610 1.247 . S
C603 O611 1.258 . S
O604 C602 1.247 . S
O604 Zn605 2.028 . S
Zn605 O604 2.028 . S
Zn605 O609 2.035 . S
Zn605 O611 2.035 . S
Zn605 O612 2.028 . S
O606 C602 1.258 . S
O606 Zn607 2.035 . S
Zn607 O606 2.035 . S
Zn607 O608 2.028 . S
Zn607 O610 2.028 . S
Zn607 O613 2.035 . S
O608 Zn607 2.028 . S
O608 C614 1.247 . S
O609 Zn605 2.035 . S
O609 C614 1.258 . S
O610 C603 1.247 . S
O610 Zn607 2.028 . S
O611 C603 1.258 . S
O611 Zn605 2.035 . S
O612 Zn605 2.028 . S
O612 C615 1.247 . S
O613 Zn607 2.035 . S
O613 C615 1.258 . S
C614 O608 1.247 . S
C614 O609 1.258 . S
C615 O612 1.247 . S
C615 O613 1.258 . S
C616 O618 1.247 . S
C616 O620 1.258 . S
C617 O624 1.247 . S
C617 O625 1.258 . S
O618 C616 1.247 . S
O618 Zn619 2.028 . S
Zn619 O618 2.028 . S
Zn619 O623 2.035 . S
Zn619 O625 2.035 . S
Zn619 O626 2.028 . S
O620 C616 1.258 . S
O620 Zn621 2.035 . S
Zn621 O620 2.035 . S
Zn621 O622 2.028 . S
Zn621 O624 2.028 . S
Zn621 O627 2.035 . S
O622 Zn621 2.028 . S
O622 C628 1.247 . S
O623 Zn619 2.035 . S
O623 C628 1.258 . S
O624 C617 1.247 . S
O624 Zn621 2.028 . S
O625 C617 1.258 . S
O625 Zn619 2.035 . S
O626 Zn619 2.028 . S
O626 C629 1.247 . S
O627 Zn621 2.035 . S
O627 C629 1.258 . S
C628 O622 1.247 . S
C628 O623 1.258 . S
C629 O626 1.247 . S
C629 O627 1.258 . S
C630 O632 1.247 . S
C630 O634 1.258 . S
C631 O638 1.247 . S
C631 O639 1.258 . S
O632 C630 1.247 . S
O632 Zn633 2.028 . S
Zn633 O632 2.028 . S
Zn633 O637 2.035 . S
Zn633 O639 2.035 . S
Zn633 O640 2.028 . S
O634 C630 1.258 . S
O634 Zn635 2.035 . S
Zn635 O634 2.035 . S
Zn635 O636 2.028 . S
Zn635 O638 2.028 . S
Zn635 O641 2.035 . S
O636 Zn635 2.028 . S
O636 C642 1.247 . S
O637 Zn633 2.035 . S
O637 C642 1.258 . S
O638 C631 1.247 . S
O638 Zn635 2.028 . S
O639 C631 1.258 . S
O639 Zn633 2.035 . S
O640 Zn633 2.028 . S
O640 C643 1.247 . S
O641 Zn635 2.035 . S
O641 C643 1.258 . S
C642 O636 1.247 . S
C642 O637 1.258 . S
C643 O640 1.247 . S
C643 O641 1.258 . S
C644 O646 1.247 . S
C644 O648 1.258 . S
C645 O652 1.247 . S
C645 O653 1.258 . S
O646 C644 1.247 . S
O646 Zn647 2.028 . S
Zn647 O646 2.028 . S
Zn647 O651 2.035 . S
Zn647 O653 2.035 . S
Zn647 O654 2.028 . S
O648 C644 1.258 . S
O648 Zn649 2.035 . S
Zn649 O648 2.035 . S
Zn649 O650 2.028 . S
Zn649 O652 2.028 . S
Zn649 O655 2.035 . S
O650 Zn649 2.028 . S
O650 C656 1.247 . S
O651 Zn647 2.035 . S
O651 C656 1.258 . S
O652 C645 1.247 . S
O652 Zn649 2.028 . S
O653 C645 1.258 . S
O653 Zn647 2.035 . S
O654 Zn647 2.028 . S
O654 C657 1.247 . S
O655 Zn649 2.035 . S
O655 C657 1.258 . S
C656 O650 1.247 . S
C656 O651 1.258 . S
C657 O654 1.247 . S
C657 O655 1.258 . S
C658 O660 1.247 . S
C658 O662 1.258 . S
C659 O666 1.247 . S
C659 O667 1.258 . S
O660 C658 1.247 . S
O660 Zn661 2.028 . S
Zn661 O660 2.028 . S
Zn661 O665 2.035 . S
Zn661 O667 2.035 . S
Zn661 O668 2.028 . S
O662 C658 1.258 . S
O662 Zn663 2.035 . S
Zn663 O662 2.035 . S
Zn663 O664 2.028 . S
Zn663 O666 2.028 . S
Zn663 O669 2.035 . S
O664 Zn663 2.028 . S
O664 C670 1.247 . S
O665 Zn661 2.035 . S
O665 C670 1.258 . S
O666 C659 1.247 . S
O666 Zn663 2.028 . S
O667 C659 1.258 . S
O667 Zn661 2.035 . S
O668 Zn661 2.028 . S
O668 C671 1.247 . S
O669 Zn663 2.035 . S
O669 C671 1.258 . S
C670 O664 1.247 . S
C670 O665 1.258 . S
C671 O668 1.247 . S
C671 O669 1.258 . S
C672 O674 1.247 . S
C672 O676 1.258 . S
C673 O680 1.247 . S
C673 O681 1.258 . S
O674 C672 1.247 . S
O674 Zn675 2.028 . S
Zn675 O674 2.028 . S
Zn675 O679 2.035 . S
Zn675 O681 2.035 . S
Zn675 O682 2.028 . S
O676 C672 1.258 . S
O676 Zn677 2.035 . S
Zn677 O676 2.035 . S
Zn677 O678 2.028 . S
Zn677 O680 2.028 . S
Zn677 O683 2.035 . S
O678 Zn677 2.028 . S
O678 C684 1.247 . S
O679 Zn675 2.035 . S
O679 C684 1.258 . S
O680 C673 1.247 . S
O680 Zn677 2.028 . S
O681 C673 1.258 . S
O681 Zn675 2.035 . S
O682 Zn675 2.028 . S
O682 C685 1.247 . S
O683 Zn677 2.035 . S
O683 C685 1.258 . S
C684 O678 1.247 . S
C684 O679 1.258 . S
C685 O682 1.247 . S
C685 O683 1.258 . S
C686 O688 1.247 . S
C686 O690 1.258 . S
C687 O694 1.247 . S
C687 O695 1.258 . S
O688 C686 1.247 . S
O688 Zn689 2.028 . S
Zn689 O688 2.028 . S
Zn689 O693 2.035 . S
Zn689 O695 2.035 . S
Zn689 O696 2.028 . S
O690 C686 1.258 . S
O690 Zn691 2.035 . S
Zn691 O690 2.035 . S
Zn691 O692 2.028 . S
Zn691 O694 2.028 . S
Zn691 O697 2.035 . S
O692 Zn691 2.028 . S
O692 C698 1.247 . S
O693 Zn689 2.035 . S
O693 C698 1.258 . S
O694 C687 1.247 . S
O694 Zn691 2.028 . S
O695 C687 1.258 . S
O695 Zn689 2.035 . S
O696 Zn689 2.028 . S
O696 C699 1.247 . S
O697 Zn691 2.035 . S
O697 C699 1.258 . S
C698 O692 1.247 . S
C698 O693 1.258 . S
C699 O696 1.247 . S
C699 O697 1.258 . S
C700 O702 1.247 . S
C700 O704 1.258 . S
C701 O708 1.247 . S
C701 O709 1.258 . S
O702 C700 1.247 . S
O702 Zn703 2.028 . S
Zn703 O702 2.028 . S
Zn703 O707 2.035 . S
Zn703 O709 2.035 . S
Zn703 O710 2.028 1_655 S
O704 C700 1.258 . S
O704 Zn705 2.035 . S
Zn705 O704 2.035 . S
Zn705 O706 2.028 . S
Zn705 O708 2.028 . S
Zn705 O711 2.035 1_655 S
O706 Zn705 2.028 . S
O706 C712 1.247 . S
O707 Zn703 2.035 . S
O707 C712 1.258 . S
O708 C701 1.247 . S
O708 Zn705 2.028 . S
O709 C701 1.258 . S
O709 Zn703 2.035 . S
O710 Zn703 2.028 1_455 S
O710 C713 1.247 . S
O711 Zn705 2.035 1_455 S
O711 C713 1.258 . S
C712 O706 1.247 . S
C712 O707 1.258 . S
C713 O710 1.247 . S
C713 O711 1.258 . S
C714 O716 1.247 . S
C714 O718 1.258 . S
C715 O722 1.247 . S
C715 O723 1.258 . S
O716 C714 1.247 . S
O716 Zn717 2.028 . S
Zn717 O716 2.028 . S
Zn717 O721 2.035 . S
Zn717 O723 2.035 . S
Zn717 O724 2.028 . S
O718 C714 1.258 . S
O718 Zn719 2.035 . S
Zn719 O718 2.035 . S
Zn719 O720 2.028 . S
Zn719 O722 2.028 . S
Zn719 O725 2.035 . S
O720 Zn719 2.028 . S
O720 C726 1.247 . S
O721 Zn717 2.035 . S
O721 C726 1.258 . S
O722 C715 1.247 . S
O722 Zn719 2.028 . S
O723 C715 1.258 . S
O723 Zn717 2.035 . S
O724 Zn717 2.028 . S
O724 C727 1.247 . S
O725 Zn719 2.035 . S
O725 C727 1.258 . S
C726 O720 1.247 . S
C726 O721 1.258 . S
C727 O724 1.247 . S
C727 O725 1.258 . S
C728 O730 1.247 . S
C728 O732 1.258 . S
C729 O736 1.247 . S
C729 O737 1.258 . S
O730 C728 1.247 . S
O730 Zn731 2.028 . S
Zn731 O730 2.028 . S
Zn731 O735 2.035 . S
Zn731 O737 2.035 . S
Zn731 O738 2.028 . S
O732 C728 1.258 . S
O732 Zn733 2.035 . S
Zn733 O732 2.035 . S
Zn733 O734 2.028 . S
Zn733 O736 2.028 . S
Zn733 O739 2.035 . S
O734 Zn733 2.028 . S
O734 C740 1.247 . S
O735 Zn731 2.035 . S
O735 C740 1.258 . S
O736 C729 1.247 . S
O736 Zn733 2.028 . S
O737 C729 1.258 . S
O737 Zn731 2.035 . S
O738 Zn731 2.028 . S
O738 C741 1.247 . S
O739 Zn733 2.035 . S
O739 C741 1.258 . S
C740 O734 1.247 . S
C740 O735 1.258 . S
C741 O738 1.247 . S
C741 O739 1.258 . S
C742 O744 1.247 . S
C742 O746 1.258 . S
C743 O750 1.247 . S
C743 O751 1.258 . S
O744 C742 1.247 . S
O744 Zn745 2.028 . S
Zn745 O744 2.028 . S
Zn745 O749 2.035 . S
Zn745 O751 2.035 . S
Zn745 O752 2.028 . S
O746 C742 1.258 . S
O746 Zn747 2.035 . S
Zn747 O746 2.035 . S
Zn747 O748 2.028 . S
Zn747 O750 2.028 . S
Zn747 O753 2.035 . S
O748 Zn747 2.028 . S
O748 C754 1.247 . S
O749 Zn745 2.035 . S
O749 C754 1.258 . S
O750 C743 1.247 . S
O750 Zn747 2.028 . S
O751 C743 1.258 . S
O751 Zn745 2.035 . S
O752 Zn745 2.028 . S
O752 C755 1.247 . S
O753 Zn747 2.035 . S
O753 C755 1.258 . S
C754 O748 1.247 . S
C754 O749 1.258 . S
C755 O752 1.247 . S
C755 O753 1.258 . S
C756 O758 1.247 . S
C756 O760 1.258 . S
C757 O764 1.247 . S
C757 O765 1.258 . S
O758 C756 1.247 . S
O758 Zn759 2.028 . S
Zn759 O758 2.028 . S
Zn759 O763 2.035 . S
Zn759 O765 2.035 . S
Zn759 O766 2.028 1_655 S
O760 C756 1.258 . S
O760 Zn761 2.035 . S
Zn761 O760 2.035 . S
Zn761 O762 2.028 . S
Zn761 O764 2.028 . S
Zn761 O767 2.035 1_655 S
O762 Zn761 2.028 . S
O762 C768 1.247 . S
O763 Zn759 2.035 . S
O763 C768 1.258 . S
O764 C757 1.247 . S
O764 Zn761 2.028 . S
O765 C757 1.258 . S
O765 Zn759 2.035 . S
O766 Zn759 2.028 1_455 S
O766 C769 1.247 . S
O767 Zn761 2.035 1_455 S
O767 C769 1.258 . S
C768 O762 1.247 . S
C768 O763 1.258 . S
C769 O766 1.247 . S
C769 O767 1.258 . S
C770 O772 1.247 . S
C770 O774 1.258 . S
C771 O778 1.247 . S
C771 O779 1.258 . S
O772 C770 1.247 . S
O772 Zn773 2.028 . S
Zn773 O772 2.028 . S
Zn773 O777 2.035 . S
Zn773 O779 2.035 . S
Zn773 O780 2.028 . S
O774 C770 1.258 . S
O774 Zn775 2.035 . S
Zn775 O774 2.035 . S
Zn775 O776 2.028 . S
Zn775 O778 2.028 . S
Zn775 O781 2.035 . S
O776 Zn775 2.028 . S
O776 C782 1.247 . S
O777 Zn773 2.035 . S
O777 C782 1.258 . S
O778 C771 1.247 . S
O778 Zn775 2.028 . S
O779 C771 1.258 . S
O779 Zn773 2.035 . S
O780 Zn773 2.028 . S
O780 C783 1.247 . S
O781 Zn775 2.035 . S
O781 C783 1.258 . S
C782 O776 1.247 . S
C782 O777 1.258 . S
C783 O780 1.247 . S
C783 O781 1.258 . S
C784 O786 1.247 . S
C784 O788 1.258 . S
C785 O792 1.247 . S
C785 O793 1.258 . S
O786 C784 1.247 . S
O786 Zn787 2.028 . S
Zn787 O786 2.028 . S
Zn787 O791 2.035 . S
Zn787 O793 2.035 . S
Zn787 O794 2.028 . S
O788 C784 1.258 . S
O788 Zn789 2.035 . S
Zn789 O788 2.035 . S
Zn789 O790 2.028 . S
Zn789 O792 2.028 . S
Zn789 O795 2.035 . S
O790 Zn789 2.028 . S
O790 C796 1.247 . S
O791 Zn787 2.035 . S
O791 C796 1.258 . S
O792 C785 1.247 . S
O792 Zn789 2.028 . S
O793 C785 1.258 . S
O793 Zn787 2.035 . S
O794 Zn787 2.028 . S
O794 C797 1.247 . S
O795 Zn789 2.035 . S
O795 C797 1.258 . S
C796 O790 1.247 . S
C796 O791 1.258 . S
C797 O794 1.247 . S
C797 O795 1.258 . S
C798 O800 1.247 . S
C798 O802 1.258 . S
C799 O806 1.247 . S
C799 O807 1.258 . S
O800 C798 1.247 . S
O800 Zn801 2.028 . S
Zn801 O800 2.028 . S
Zn801 O805 2.035 . S
Zn801 O807 2.035 . S
Zn801 O808 2.028 . S
O802 C798 1.258 . S
O802 Zn803 2.035 . S
Zn803 O802 2.035 . S
Zn803 O804 2.028 . S
Zn803 O806 2.028 . S
Zn803 O809 2.035 . S
O804 Zn803 2.028 . S
O804 C810 1.247 . S
O805 Zn801 2.035 . S
O805 C810 1.258 . S
O806 C799 1.247 . S
O806 Zn803 2.028 . S
O807 C799 1.258 . S
O807 Zn801 2.035 . S
O808 Zn801 2.028 . S
O808 C811 1.247 . S
O809 Zn803 2.035 . S
O809 C811 1.258 . S
C810 O804 1.247 . S
C810 O805 1.258 . S
C811 O808 1.247 . S
C811 O809 1.258 . S
C812 O814 1.247 . S
C812 O816 1.258 . S
C813 O820 1.247 . S
C813 O821 1.258 . S
O814 C812 1.247 . S
O814 Zn815 2.028 . S
Zn815 O814 2.028 . S
Zn815 O819 2.035 . S
Zn815 O821 2.035 . S
Zn815 O822 2.028 . S
O816 C812 1.258 . S
O816 Zn817 2.035 . S
Zn817 O816 2.035 . S
Zn817 O818 2.028 . S
Zn817 O820 2.028 . S
Zn817 O823 2.035 . S
O818 Zn817 2.028 . S
O818 C824 1.247 . S
O819 Zn815 2.035 . S
O819 C824 1.258 . S
O820 C813 1.247 . S
O820 Zn817 2.028 . S
O821 C813 1.258 . S
O821 Zn815 2.035 . S
O822 Zn815 2.028 . S
O822 C825 1.247 . S
O823 Zn817 2.035 . S
O823 C825 1.258 . S
C824 O818 1.247 . S
C824 O819 1.258 . S
C825 O822 1.247 . S
C825 O823 1.258 . S
C826 O828 1.247 . S
C826 O830 1.258 . S
C827 O834 1.247 . S
C827 O835 1.258 . S
O828 C826 1.247 . S
O828 Zn829 2.028 . S
Zn829 O828 2.028 . S
Zn829 O833 2.035 . S
Zn829 O835 2.035 . S
Zn829 O836 2.028 . S
O830 C826 1.258 . S
O830 Zn831 2.035 . S
Zn831 O830 2.035 . S
Zn831 O832 2.028 . S
Zn831 O834 2.028 . S
Zn831 O837 2.035 . S
O832 Zn831 2.028 . S
O832 C838 1.247 . S
O833 Zn829 2.035 . S
O833 C838 1.258 . S
O834 C827 1.247 . S
O834 Zn831 2.028 . S
O835 C827 1.258 . S
O835 Zn829 2.035 . S
O836 Zn829 2.028 . S
O836 C839 1.247 . S
O837 Zn831 2.035 . S
O837 C839 1.258 . S
C838 O832 1.247 . S
C838 O833 1.258 . S
C839 O836 1.247 . S
C839 O837 1.258 . S
C840 O842 1.247 . S
C840 O844 1.258 . S
C841 O848 1.247 . S
C841 O849 1.258 . S
O842 C840 1.247 . S
O842 Zn843 2.028 . S
Zn843 O842 2.028 . S
Zn843 O847 2.035 . S
Zn843 O849 2.035 . S
Zn843 O850 2.028 . S
O844 C840 1.258 . S
O844 Zn845 2.035 . S
Zn845 O844 2.035 . S
Zn845 O846 2.028 . S
Zn845 O848 2.028 . S
Zn845 O851 2.035 . S
O846 Zn845 2.028 . S
O846 C852 1.247 . S
O847 Zn843 2.035 . S
O847 C852 1.258 . S
O848 C841 1.247 . S
O848 Zn845 2.028 . S
O849 C841 1.258 . S
O849 Zn843 2.035 . S
O850 Zn843 2.028 . S
O850 C853 1.247 . S
O851 Zn845 2.035 . S
O851 C853 1.258 . S
C852 O846 1.247 . S
C852 O847 1.258 . S
C853 O850 1.247 . S
C853 O851 1.258 . S
C854 O856 1.247 . S
C854 O858 1.258 . S
C855 O862 1.247 . S
C855 O863 1.258 . S
O856 C854 1.247 . S
O856 Zn857 2.028 . S
Zn857 O856 2.028 . S
Zn857 O861 2.035 . S
Zn857 O863 2.035 . S
Zn857 O864 2.028 . S
O858 C854 1.258 . S
O858 Zn859 2.035 . S
Zn859 O858 2.035 . S
Zn859 O860 2.028 . S
Zn859 O862 2.028 . S
Zn859 O865 2.035 . S
O860 Zn859 2.028 . S
O860 C866 1.247 . S
O861 Zn857 2.035 . S
O861 C866 1.258 . S
O862 C855 1.247 . S
O862 Zn859 2.028 . S
O863 C855 1.258 . S
O863 Zn857 2.035 . S
O864 Zn857 2.028 . S
O864 C867 1.247 . S
O865 Zn859 2.035 . S
O865 C867 1.258 . S
C866 O860 1.247 . S
C866 O861 1.258 . S
C867 O864 1.247 . S
C867 O865 1.258 . S
C868 O870 1.247 . S
C868 O872 1.258 . S
C869 O876 1.247 . S
C869 O877 1.258 . S
O870 C868 1.247 . S
O870 Zn871 2.028 . S
Zn871 O870 2.028 . S
Zn871 O875 2.035 . S
Zn871 O877 2.035 . S
Zn871 O878 2.028 . S
O872 C868 1.258 . S
O872 Zn873 2.035 . S
Zn873 O872 2.035 . S
Zn873 O874 2.028 . S
Zn873 O876 2.028 . S
Zn873 O879 2.035 . S
O874 Zn873 2.028 . S
O874 C880 1.247 . S
O875 Zn871 2.035 . S
O875 C880 1.258 . S
O876 C869 1.247 . S
O876 Zn873 2.028 . S
O877 C869 1.258 . S
O877 Zn871 2.035 . S
O878 Zn871 2.028 . S
O878 C881 1.247 . S
O879 Zn873 2.035 . S
O879 C881 1.258 . S
C880 O874 1.247 . S
C880 O875 1.258 . S
C881 O878 1.247 . S
C881 O879 1.258 . S
C882 O884 1.247 . S
C882 O886 1.258 . S
C883 O890 1.247 . S
C883 O891 1.258 . S
O884 C882 1.247 . S
O884 Zn885 2.028 . S
Zn885 O884 2.028 . S
Zn885 O889 2.035 . S
Zn885 O891 2.035 . S
Zn885 O892 2.028 . S
O886 C882 1.258 . S
O886 Zn887 2.035 . S
Zn887 O886 2.035 . S
Zn887 O888 2.028 . S
Zn887 O890 2.028 . S
Zn887 O893 2.035 . S
O888 Zn887 2.028 . S
O888 C894 1.247 . S
O889 Zn885 2.035 . S
O889 C894 1.258 . S
O890 C883 1.247 . S
O890 Zn887 2.028 . S
O891 C883 1.258 . S
O891 Zn885 2.035 . S
O892 Zn885 2.028 . S
O892 C895 1.247 . S
O893 Zn887 2.035 . S
O893 C895 1.258 . S
C894 O888 1.247 . S
C894 O889 1.258 . S
C895 O892 1.247 . S
C895 O893 1.258 . S
C896 O898 1.247 . S
C896 O900 1.258 . S
C897 O904 1.247 . S
C897 O905 1.258 . S
O898 C896 1.247 . S
O898 Zn899 2.028 . S
Zn899 O898 2.028 . S
Zn899 O903 2.035 . S
Zn899 O905 2.035 . S
Zn899 O906 2.028 . S
O900 C896 1.258 . S
O900 Zn901 2.035 . S
Zn901 O900 2.035 . S
Zn901 O902 2.028 . S
Zn901 O904 2.028 . S
Zn901 O907 2.035 . S
O902 Zn901 2.028 . S
O902 C908 1.247 . S
O903 Zn899 2.035 . S
O903 C908 1.258 . S
O904 C897 1.247 . S
O904 Zn901 2.028 . S
O905 C897 1.258 . S
O905 Zn899 2.035 . S
O906 Zn899 2.028 . S
O906 C909 1.247 . S
O907 Zn901 2.035 . S
O907 C909 1.258 . S
C908 O902 1.247 . S
C908 O903 1.258 . S
C909 O906 1.247 . S
C909 O907 1.258 . S
C910 O912 1.247 . S
C910 O914 1.258 . S
C911 O918 1.247 . S
C911 O919 1.258 . S
O912 C910 1.247 . S
O912 Zn913 2.028 . S
Zn913 O912 2.028 . S
Zn913 O917 2.035 . S
Zn913 O919 2.035 . S
Zn913 O920 2.028 . S
O914 C910 1.258 . S
O914 Zn915 2.035 . S
Zn915 O914 2.035 . S
Zn915 O916 2.028 . S
Zn915 O918 2.028 . S
Zn915 O921 2.035 . S
O916 Zn915 2.028 . S
O916 C922 1.247 . S
O917 Zn913 2.035 . S
O917 C922 1.258 . S
O918 C911 1.247 . S
O918 Zn915 2.028 . S
O919 C911 1.258 . S
O919 Zn913 2.035 . S
O920 Zn913 2.028 . S
O920 C923 1.247 . S
O921 Zn915 2.035 . S
O921 C923 1.258 . S
C922 O916 1.247 . S
C922 O917 1.258 . S
C923 O920 1.247 . S
C923 O921 1.258 . S
C924 O926 1.247 . S
C924 O928 1.258 . S
C925 O932 1.247 . S
C925 O933 1.258 . S
O926 C924 1.247 . S
O926 Zn927 2.028 . S
Zn927 O926 2.028 . S
Zn927 O931 2.035 . S
Zn927 O933 2.035 . S
Zn927 O934 2.028 . S
O928 C924 1.258 . S
O928 Zn929 2.035 . S
Zn929 O928 2.035 . S
Zn929 O930 2.028 . S
Zn929 O932 2.028 . S
Zn929 O935 2.035 . S
O930 Zn929 2.028 . S
O930 C936 1.247 . S
O931 Zn927 2.035 . S
O931 C936 1.258 . S
O932 C925 1.247 . S
O932 Zn929 2.028 . S
O933 C925 1.258 . S
O933 Zn927 2.035 . S
O934 Zn927 2.028 . S
O934 C937 1.247 . S
O935 Zn929 2.035 . S
O935 C937 1.258 . S
C936 O930 1.247 . S
C936 O931 1.258 . S
C937 O934 1.247 . S
C937 O935 1.258 . S
C938 O940 1.247 . S
C938 O942 1.258 . S
C939 O946 1.247 . S
C939 O947 1.258 . S
O940 C938 1.247 . S
O940 Zn941 2.028 . S
Zn941 O940 2.028 . S
Zn941 O945 2.035 1_556 S
Zn941 O947 2.035 . S
Zn941 O948 2.028 . S
O942 C938 1.258 . S
O942 Zn943 2.035 . S
Zn943 O942 2.035 . S
Zn943 O944 2.028 1_556 S
Zn943 O946 2.028 . S
Zn943 O949 2.035 . S
O944 Zn943 2.028 1_554 S
O944 C950 1.247 . S
O945 Zn941 2.035 1_554 S
O945 C950 1.258 . S
O946 C939 1.247 . S
O946 Zn943 2.028 . S
O947 C939 1.258 . S
O947 Zn941 2.035 . S
O948 Zn941 2.028 . S
O948 C951 1.247 . S
O949 Zn943 2.035 . S
O949 C951 1.258 . S
C950 O944 1.247 . S
C950 O945 1.258 . S
C951 O948 1.247 . S
C951 O949 1.258 . S
C952 O954 1.247 . S
C952 O956 1.258 . S
C953 O960 1.247 . S
C953 O961 1.258 . S
O954 C952 1.247 . S
O954 Zn955 2.028 . S
Zn955 O954 2.028 . S
Zn955 O959 2.035 . S
Zn955 O961 2.035 . S
Zn955 O962 2.028 . S
O956 C952 1.258 . S
O956 Zn957 2.035 . S
Zn957 O956 2.035 . S
Zn957 O958 2.028 . S
Zn957 O960 2.028 . S
Zn957 O963 2.035 . S
O958 Zn957 2.028 . S
O958 C964 1.247 . S
O959 Zn955 2.035 . S
O959 C964 1.258 . S
O960 C953 1.247 . S
O960 Zn957 2.028 . S
O961 C953 1.258 . S
O961 Zn955 2.035 . S
O962 Zn955 2.028 . S
O962 C965 1.247 . S
O963 Zn957 2.035 . S
O963 C965 1.258 . S
C964 O958 1.247 . S
C964 O959 1.258 . S
C965 O962 1.247 . S
C965 O963 1.258 . S
C966 O968 1.247 . S
C966 O970 1.258 . S
C967 O974 1.247 . S
C967 O975 1.258 . S
O968 C966 1.247 . S
O968 Zn969 2.028 1_556 S
Zn969 O968 2.028 1_554 S
Zn969 O973 2.035 . S
Zn969 O975 2.035 . S
Zn969 O976 2.028 . S
O970 C966 1.258 . S
O970 Zn971 2.035 1_556 S
Zn971 O970 2.035 1_554 S
Zn971 O972 2.028 . S
Zn971 O974 2.028 . S
Zn971 O977 2.035 . S
O972 Zn971 2.028 . S
O972 C978 1.247 . S
O973 Zn969 2.035 . S
O973 C978 1.258 . S
O974 C967 1.247 . S
O974 Zn971 2.028 . S
O975 C967 1.258 . S
O975 Zn969 2.035 . S
O976 Zn969 2.028 . S
O976 C979 1.247 . S
O977 Zn971 2.035 . S
O977 C979 1.258 . S
C978 O972 1.247 . S
C978 O973 1.258 . S
C979 O976 1.247 . S
C979 O977 1.258 . S
C980 O982 1.247 . S
C980 O984 1.258 . S
C981 O988 1.247 . S
C981 O989 1.258 . S
O982 C980 1.247 . S
O982 Zn983 2.028 . S
Zn983 O982 2.028 . S
Zn983 O987 2.035 . S
Zn983 O989 2.035 . S
Zn983 O990 2.028 . S
O984 C980 1.258 . S
O984 Zn985 2.035 . S
Zn985 O984 2.035 . S
Zn985 O986 2.028 . S
Zn985 O988 2.028 . S
Zn985 O991 2.035 . S
O986 Zn985 2.028 . S
O986 C992 1.247 . S
O987 Zn983 2.035 . S
O987 C992 1.258 . S
O988 C981 1.247 . S
O988 Zn985 2.028 . S
O989 C981 1.258 . S
O989 Zn983 2.035 . S
O990 Zn983 2.028 . S
O990 C993 1.247 . S
O991 Zn985 2.035 . S
O991 C993 1.258 . S
C992 O986 1.247 . S
C992 O987 1.258 . S
C993 O990 1.247 . S
C993 O991 1.258 . S
C994 O996 1.247 . S
C994 O998 1.258 . S
C995 O1002 1.247 . S
C995 O1003 1.258 . S
O996 C994 1.247 . S
O996 Zn997 2.028 . S
Zn997 O996 2.028 . S
Zn997 O1001 2.035 . S
Zn997 O1003 2.035 . S
Zn997 O1004 2.028 . S
O998 C994 1.258 . S
O998 Zn999 2.035 . S
Zn999 O998 2.035 . S
Zn999 O1000 2.028 . S
Zn999 O1002 2.028 . S
Zn999 O1005 2.035 . S
O1000 Zn999 2.028 . S
O1000 C1006 1.247 . S
O1001 Zn997 2.035 . S
O1001 C1006 1.258 . S
O1002 C995 1.247 . S
O1002 Zn999 2.028 . S
O1003 C995 1.258 . S
O1003 Zn997 2.035 . S
O1004 Zn997 2.028 . S
O1004 C1007 1.247 . S
O1005 Zn999 2.035 . S
O1005 C1007 1.258 . S
C1006 O1000 1.247 . S
C1006 O1001 1.258 . S
C1007 O1004 1.247 . S
C1007 O1005 1.258 . S
C1008 O1010 1.247 . S
C1008 O1012 1.258 . S
C1009 O1016 1.247 . S
C1009 O1017 1.258 . S
O1010 C1008 1.247 . S
O1010 Zn1011 2.028 . S
Zn1011 O1010 2.028 . S
Zn1011 O1015 2.035 . S
Zn1011 O1017 2.035 . S
Zn1011 O1018 2.028 . S
O1012 C1008 1.258 . S
O1012 Zn1013 2.035 . S
Zn1013 O1012 2.035 . S
Zn1013 O1014 2.028 . S
Zn1013 O1016 2.028 . S
Zn1013 O1019 2.035 . S
O1014 Zn1013 2.028 . S
O1014 C1020 1.247 . S
O1015 Zn1011 2.035 . S
O1015 C1020 1.258 . S
O1016 C1009 1.247 . S
O1016 Zn1013 2.028 . S
O1017 C1009 1.258 . S
O1017 Zn1011 2.035 . S
O1018 Zn1011 2.028 . S
O1018 C1021 1.247 . S
O1019 Zn1013 2.035 . S
O1019 C1021 1.258 . S
C1020 O1014 1.247 . S
C1020 O1015 1.258 . S
C1021 O1018 1.247 . S
C1021 O1019 1.258 . S
C1022 O1024 1.247 . S
C1022 O1026 1.258 . S
C1023 O1030 1.247 . S
C1023 O1031 1.258 . S
O1024 C1022 1.247 . S
O1024 Zn1025 2.028 . S
Zn1025 O1024 2.028 . S
Zn1025 O1029 2.035 . S
Zn1025 O1031 2.035 . S
Zn1025 O1032 2.028 . S
O1026 C1022 1.258 . S
O1026 Zn1027 2.035 . S
Zn1027 O1026 2.035 . S
Zn1027 O1028 2.028 . S
Zn1027 O1030 2.028 . S
Zn1027 O1033 2.035 . S
O1028 Zn1027 2.028 . S
O1028 C1034 1.247 . S
O1029 Zn1025 2.035 . S
O1029 C1034 1.258 . S
O1030 C1023 1.247 . S
O1030 Zn1027 2.028 . S
O1031 C1023 1.258 . S
O1031 Zn1025 2.035 . S
O1032 Zn1025 2.028 . S
O1032 C1035 1.247 . S
O1033 Zn1027 2.035 . S
O1033 C1035 1.258 . S
C1034 O1028 1.247 . S
C1034 O1029 1.258 . S
C1035 O1032 1.247 . S
C1035 O1033 1.258 . S
C1036 O1038 1.247 . S
C1036 O1040 1.258 . S
C1037 O1044 1.247 . S
C1037 O1045 1.258 . S
O1038 C1036 1.247 . S
O1038 Zn1039 2.028 1_655 S
Zn1039 O1038 2.028 1_455 S
Zn1039 O1043 2.035 . S
Zn1039 O1045 2.035 . S
Zn1039 O1046 2.028 . S
O1040 C1036 1.258 . S
O1040 Zn1041 2.035 1_655 S
Zn1041 O1040 2.035 1_455 S
Zn1041 O1042 2.028 . S
Zn1041 O1044 2.028 . S
Zn1041 O1047 2.035 . S
O1042 Zn1041 2.028 . S
O1042 C1048 1.247 . S
O1043 Zn1039 2.035 . S
O1043 C1048 1.258 . S
O1044 C1037 1.247 . S
O1044 Zn1041 2.028 . S
O1045 C1037 1.258 . S
O1045 Zn1039 2.035 . S
O1046 Zn1039 2.028 . S
O1046 C1049 1.247 . S
O1047 Zn1041 2.035 . S
O1047 C1049 1.258 . S
C1048 O1042 1.247 . S
C1048 O1043 1.258 . S
C1049 O1046 1.247 . S
C1049 O1047 1.258 . S
C1050 O1052 1.247 . S
C1050 O1054 1.258 . S
C1051 O1058 1.247 . S
C1051 O1059 1.258 . S
O1052 C1050 1.247 . S
O1052 Zn1053 2.028 . S
Zn1053 O1052 2.028 . S
Zn1053 O1057 2.035 . S
Zn1053 O1059 2.035 . S
Zn1053 O1060 2.028 . S
O1054 C1050 1.258 . S
O1054 Zn1055 2.035 . S
Zn1055 O1054 2.035 . S
Zn1055 O1056 2.028 . S
Zn1055 O1058 2.028 . S
Zn1055 O1061 2.035 . S
O1056 Zn1055 2.028 . S
O1056 C1062 1.247 . S
O1057 Zn1053 2.035 . S
O1057 C1062 1.258 . S
O1058 C1051 1.247 . S
O1058 Zn1055 2.028 . S
O1059 C1051 1.258 . S
O1059 Zn1053 2.035 . S
O1060 Zn1053 2.028 . S
O1060 C1063 1.247 . S
O1061 Zn1055 2.035 . S
O1061 C1063 1.258 . S
C1062 O1056 1.247 . S
C1062 O1057 1.258 . S
C1063 O1060 1.247 . S
C1063 O1061 1.258 . S
C1064 O1066 1.247 . S
C1064 O1068 1.258 . S
C1065 O1072 1.247 . S
C1065 O1073 1.258 . S
O1066 C1064 1.247 . S
O1066 Zn1067 2.028 . S
Zn1067 O1066 2.028 . S
Zn1067 O1071 2.035 . S
Zn1067 O1073 2.035 . S
Zn1067 O1074 2.028 . S
O1068 C1064 1.258 . S
O1068 Zn1069 2.035 . S
Zn1069 O1068 2.035 . S
Zn1069 O1070 2.028 . S
Zn1069 O1072 2.028 . S
Zn1069 O1075 2.035 . S
O1070 Zn1069 2.028 . S
O1070 C1076 1.247 . S
O1071 Zn1067 2.035 . S
O1071 C1076 1.258 . S
O1072 C1065 1.247 . S
O1072 Zn1069 2.028 . S
O1073 C1065 1.258 . S
O1073 Zn1067 2.035 . S
O1074 Zn1067 2.028 . S
O1074 C1077 1.247 . S
O1075 Zn1069 2.035 . S
O1075 C1077 1.258 . S
C1076 O1070 1.247 . S
C1076 O1071 1.258 . S
C1077 O1074 1.247 . S
C1077 O1075 1.258 . S
C1078 O1080 1.247 . S
C1078 O1082 1.258 . S
C1079 O1086 1.247 . S
C1079 O1087 1.258 . S
O1080 C1078 1.247 . S
O1080 Zn1081 2.028 . S
Zn1081 O1080 2.028 . S
Zn1081 O1085 2.035 . S
Zn1081 O1087 2.035 . S
Zn1081 O1088 2.028 . S
O1082 C1078 1.258 . S
O1082 Zn1083 2.035 . S
Zn1083 O1082 2.035 . S
Zn1083 O1084 2.028 . S
Zn1083 O1086 2.028 . S
Zn1083 O1089 2.035 . S
O1084 Zn1083 2.028 . S
O1084 C1090 1.247 . S
O1085 Zn1081 2.035 . S
O1085 C1090 1.258 . S
O1086 C1079 1.247 . S
O1086 Zn1083 2.028 . S
O1087 C1079 1.258 . S
O1087 Zn1081 2.035 . S
O1088 Zn1081 2.028 . S
O1088 C1091 1.247 . S
O1089 Zn1083 2.035 . S
O1089 C1091 1.258 . S
C1090 O1084 1.247 . S
C1090 O1085 1.258 . S
C1091 O1088 1.247 . S
C1091 O1089 1.258 . S
C1092 O1094 1.247 . S
C1092 O1096 1.258 . S
C1093 O1100 1.247 . S
C1093 O1101 1.258 . S
O1094 C1092 1.247 . S
O1094 Zn1095 2.028 . S
Zn1095 O1094 2.028 . S
Zn1095 O1099 2.035 . S
Zn1095 O1101 2.035 . S
Zn1095 O1102 2.028 1_455 S
O1096 C1092 1.258 . S
O1096 Zn1097 2.035 . S
Zn1097 O1096 2.035 . S
Zn1097 O1098 2.028 . S
Zn1097 O1100 2.028 . S
Zn1097 O1103 2.035 1_455 S
O1098 Zn1097 2.028 . S
O1098 C1104 1.247 . S
O1099 Zn1095 2.035 . S
O1099 C1104 1.258 . S
O1100 C1093 1.247 . S
O1100 Zn1097 2.028 . S
O1101 C1093 1.258 . S
O1101 Zn1095 2.035 . S
O1102 Zn1095 2.028 1_655 S
O1102 C1105 1.247 . S
O1103 Zn1097 2.035 1_655 S
O1103 C1105 1.258 . S
C1104 O1098 1.247 . S
C1104 O1099 1.258 . S
C1105 O1102 1.247 . S
C1105 O1103 1.258 . S
C1106 O1108 1.247 . S
C1106 O1110 1.258 . S
C1107 O1114 1.247 . S
C1107 O1115 1.258 . S
O1108 C1106 1.247 . S
O1108 Zn1109 2.028 . S
Zn1109 O1108 2.028 . S
Zn1109 O1113 2.035 . S
Zn1109 O1115 2.035 . S
Zn1109 O1116 2.028 . S
O1110 C1106 1.258 . S
O1110 Zn1111 2.035 . S
Zn1111 O1110 2.035 . S
Zn1111 O1112 2.028 . S
Zn1111 O1114 2.028 . S
Zn1111 O1117 2.035 . S
O1112 Zn1111 2.028 . S
O1112 C1118 1.247 . S
O1113 Zn1109 2.035 . S
O1113 C1118 1.258 . S
O1114 C1107 1.247 . S
O1114 Zn1111 2.028 . S
O1115 C1107 1.258 . S
O1115 Zn1109 2.035 . S
O1116 Zn1109 2.028 . S
O1116 C1119 1.247 . S
O1117 Zn1111 2.035 . S
O1117 C1119 1.258 . S
C1118 O1112 1.247 . S
C1118 O1113 1.258 . S
C1119 O1116 1.247 . S
C1119 O1117 1.258 . S
C1120 O1122 1.247 . S
C1120 O1124 1.258 . S
C1121 O1128 1.247 . S
C1121 O1129 1.258 . S
O1122 C1120 1.247 . S
O1122 Zn1123 2.028 . S
Zn1123 O1122 2.028 . S
Zn1123 O1127 2.035 . S
Zn1123 O1129 2.035 . S
Zn1123 O1130 2.028 . S
O1124 C1120 1.258 . S
O1124 Zn1125 2.035 . S
Zn1125 O1124 2.035 . S
Zn1125 O1126 2.028 . S
Zn1125 O1128 2.028 . S
Zn1125 O1131 2.035 . S
O1126 Zn1125 2.028 . S
O1126 C1132 1.247 . S
O1127 Zn1123 2.035 . S
O1127 C1132 1.258 . S
O1128 C1121 1.247 . S
O1128 Zn1125 2.028 . S
O1129 C1121 1.258 . S
O1129 Zn1123 2.035 . S
O1130 Zn1123 2.028 . S
O1130 C1133 1.247 . S
O1131 Zn1125 2.035 . S
O1131 C1133 1.258 . S
C1132 O1126 1.247 . S
C1132 O1127 1.258 . S
C1133 O1130 1.247 . S
C1133 O1131 1.258 . S
C1134 O1136 1.247 . S
C1134 O1138 1.258 . S
C1135 O1142 1.247 . S
C1135 O1143 1.258 . S
O1136 C1134 1.247 . S
O1136 Zn1137 2.028 . S
Zn1137 O1136 2.028 . S
Zn1137 O1141 2.035 . S
Zn1137 O1143 2.035 . S
Zn1137 O1144 2.028 . S
O1138 C1134 1.258 . S
O1138 Zn1139 2.035 . S
Zn1139 O1138 2.035 . S
Zn1139 O1140 2.028 . S
Zn1139 O1142 2.028 . S
Zn1139 O1145 2.035 . S
O1140 Zn1139 2.028 . S
O1140 C1146 1.247 . S
O1141 Zn1137 2.035 . S
O1141 C1146 1.258 . S
O1142 C1135 1.247 . S
O1142 Zn1139 2.028 . S
O1143 C1135 1.258 . S
O1143 Zn1137 2.035 . S
O1144 Zn1137 2.028 . S
O1144 C1147 1.247 . S
O1145 Zn1139 2.035 . S
O1145 C1147 1.258 . S
C1146 O1140 1.247 . S
C1146 O1141 1.258 . S
C1147 O1144 1.247 . S
C1147 O1145 1.258 . S
C1148 O1150 1.247 . S
C1148 O1152 1.258 . S
C1149 O1156 1.247 . S
C1149 O1157 1.258 . S
O1150 C1148 1.247 . S
O1150 Zn1151 2.028 . S
Zn1151 O1150 2.028 . S
Zn1151 O1155 2.035 . S
Zn1151 O1157 2.035 . S
Zn1151 O1158 2.028 . S
O1152 C1148 1.258 . S
O1152 Zn1153 2.035 . S
Zn1153 O1152 2.035 . S
Zn1153 O1154 2.028 . S
Zn1153 O1156 2.028 . S
Zn1153 O1159 2.035 . S
O1154 Zn1153 2.028 . S
O1154 C1160 1.247 . S
O1155 Zn1151 2.035 . S
O1155 C1160 1.258 . S
O1156 C1149 1.247 . S
O1156 Zn1153 2.028 . S
O1157 C1149 1.258 . S
O1157 Zn1151 2.035 . S
O1158 Zn1151 2.028 . S
O1158 C1161 1.247 . S
O1159 Zn1153 2.035 . S
O1159 C1161 1.258 . S
C1160 O1154 1.247 . S
C1160 O1155 1.258 . S
C1161 O1158 1.247 . S
C1161 O1159 1.258 . S
C1162 O1164 1.247 . S
C1162 O1166 1.258 . S
C1163 O1170 1.247 . S
C1163 O1171 1.258 . S
O1164 C1162 1.247 . S
O1164 Zn1165 2.028 . S
Zn1165 O1164 2.028 . S
Zn1165 O1169 2.035 . S
Zn1165 O1171 2.035 . S
Zn1165 O1172 2.028 . S
O1166 C1162 1.258 . S
O1166 Zn1167 2.035 . S
Zn1167 O1166 2.035 . S
Zn1167 O1168 2.028 . S
Zn1167 O1170 2.028 . S
Zn1167 O1173 2.035 . S
O1168 Zn1167 2.028 . S
O1168 C1174 1.247 . S
O1169 Zn1165 2.035 . S
O1169 C1174 1.258 . S
O1170 C1163 1.247 . S
O1170 Zn1167 2.028 . S
O1171 C1163 1.258 . S
O1171 Zn1165 2.035 . S
O1172 Zn1165 2.028 . S
O1172 C1175 1.247 . S
O1173 Zn1167 2.035 . S
O1173 C1175 1.258 . S
C1174 O1168 1.247 . S
C1174 O1169 1.258 . S
C1175 O1172 1.247 . S
C1175 O1173 1.258 . S
C1176 O1178 1.247 . S
C1176 O1180 1.258 . S
C1177 O1184 1.247 . S
C1177 O1185 1.258 . S
O1178 C1176 1.247 . S
O1178 Zn1179 2.028 . S
Zn1179 O1178 2.028 . S
Zn1179 O1183 2.035 . S
Zn1179 O1185 2.035 . S
Zn1179 O1186 2.028 . S
O1180 C1176 1.258 . S
O1180 Zn1181 2.035 . S
Zn1181 O1180 2.035 . S
Zn1181 O1182 2.028 . S
Zn1181 O1184 2.028 . S
Zn1181 O1187 2.035 . S
O1182 Zn1181 2.028 . S
O1182 C1188 1.247 . S
O1183 Zn1179 2.035 . S
O1183 C1188 1.258 . S
O1184 C1177 1.247 . S
O1184 Zn1181 2.028 . S
O1185 C1177 1.258 . S
O1185 Zn1179 2.035 . S
O1186 Zn1179 2.028 . S
O1186 C1189 1.247 . S
O1187 Zn1181 2.035 . S
O1187 C1189 1.258 . S
C1188 O1182 1.247 . S
C1188 O1183 1.258 . S
C1189 O1186 1.247 . S
C1189 O1187 1.258 . S
C1190 O1192 1.247 . S
C1190 O1194 1.258 . S
C1191 O1198 1.247 . S
C1191 O1199 1.258 . S
O1192 C1190 1.247 . S
O1192 Zn1193 2.028 . S
Zn1193 O1192 2.028 . S
Zn1193 O1197 2.035 . S
Zn1193 O1199 2.035 . S
Zn1193 O1200 2.028 . S
O1194 C1190 1.258 . S
O1194 Zn1195 2.035 . S
Zn1195 O1194 2.035 . S
Zn1195 O1196 2.028 . S
Zn1195 O1198 2.028 . S
Zn1195 O1201 2.035 . S
O1196 Zn1195 2.028 . S
O1196 C1202 1.247 . S
O1197 Zn1193 2.035 . S
O1197 C1202 1.258 . S
O1198 C1191 1.247 . S
O1198 Zn1195 2.028 . S
O1199 C1191 1.258 . S
O1199 Zn1193 2.035 . S
O1200 Zn1193 2.028 . S
O1200 C1203 1.247 . S
O1201 Zn1195 2.035 . S
O1201 C1203 1.258 . S
C1202 O1196 1.247 . S
C1202 O1197 1.258 . S
C1203 O1200 1.247 . S
C1203 O1201 1.258 . S
C1204 O1206 1.247 . S
C1204 O1208 1.258 . S
C1205 O1212 1.247 . S
C1205 O1213 1.258 . S
O1206 C1204 1.247 . S
O1206 Zn1207 2.028 . S
Zn1207 O1206 2.028 . S
Zn1207 O1211 2.035 . S
Zn1207 O1213 2.035 . S
Zn1207 O1214 2.028 . S
O1208 C1204 1.258 . S
O1208 Zn1209 2.035 . S
Zn1209 O1208 2.035 . S
Zn1209 O1210 2.028 . S
Zn1209 O1212 2.028 . S
Zn1209 O1215 2.035 . S
O1210 Zn1209 2.028 . S
O1210 C1216 1.247 . S
O1211 Zn1207 2.035 . S
O1211 C1216 1.258 . S
O1212 C1205 1.247 . S
O1212 Zn1209 2.028 . S
O1213 C1205 1.258 . S
O1213 Zn1207 2.035 . S
O1214 Zn1207 2.028 . S
O1214 C1217 1.247 . S
O1215 Zn1209 2.035 . S
O1215 C1217 1.258 . S
C1216 O1210 1.247 . S
C1216 O1211 1.258 . S
C1217 O1214 1.247 . S
C1217 O1215 1.258 . S
C1218 O1220 1.247 . S
C1218 O1222 1.258 . S
C1219 O1226 1.247 . S
C1219 O1227 1.258 . S
O1220 C1218 1.247 . S
O1220 Zn1221 2.028 . S
Zn1221 O1220 2.028 . S
Zn1221 O1225 2.035 . S
Zn1221 O1227 2.035 . S
Zn1221 O1228 2.028 . S
O1222 C1218 1.258 . S
O1222 Zn1223 2.035 . S
Zn1223 O1222 2.035 . S
Zn1223 O1224 2.028 . S
Zn1223 O1226 2.028 . S
Zn1223 O1229 2.035 . S
O1224 Zn1223 2.028 . S
O1224 C1230 1.247 . S
O1225 Zn1221 2.035 . S
O1225 C1230 1.258 . S
O1226 C1219 1.247 . S
O1226 Zn1223 2.028 . S
O1227 C1219 1.258 . S
O1227 Zn1221 2.035 . S
O1228 Zn1221 2.028 . S
O1228 C1231 1.247 . S
O1229 Zn1223 2.035 . S
O1229 C1231 1.258 . S
C1230 O1224 1.247 . S
C1230 O1225 1.258 . S
C1231 O1228 1.247 . S
C1231 O1229 1.258 . S
C1232 O1234 1.247 . S
C1232 O1236 1.258 . S
C1233 O1240 1.247 . S
C1233 O1241 1.258 . S
O1234 C1232 1.247 . S
O1234 Zn1235 2.028 . S
Zn1235 O1234 2.028 . S
Zn1235 O1239 2.035 . S
Zn1235 O1241 2.035 . S
Zn1235 O1242 2.028 . S
O1236 C1232 1.258 . S
O1236 Zn1237 2.035 . S
Zn1237 O1236 2.035 . S
Zn1237 O1238 2.028 . S
Zn1237 O1240 2.028 . S
Zn1237 O1243 2.035 . S
O1238 Zn1237 2.028 . S
O1238 C1244 1.247 . S
O1239 Zn1235 2.035 . S
O1239 C1244 1.258 . S
O1240 C1233 1.247 . S
O1240 Zn1237 2.028 . S
O1241 C1233 1.258 . S
O1241 Zn1235 2.035 . S
O1242 Zn1235 2.028 . S
O1242 C1245 1.247 . S
O1243 Zn1237 2.035 . S
O1243 C1245 1.258 . S
C1244 O1238 1.247 . S
C1244 O1239 1.258 . S
C1245 O1242 1.247 . S
C1245 O1243 1.258 . S
C1246 O1248 1.247 . S
C1246 O1250 1.258 . S
C1247 O1254 1.247 . S
C1247 O1255 1.258 . S
O1248 C1246 1.247 . S
O1248 Zn1249 2.028 . S
Zn1249 O1248 2.028 . S
Zn1249 O1253 2.035 . S
Zn1249 O1255 2.035 . S
Zn1249 O1256 2.028 . S
O1250 C1246 1.258 . S
O1250 Zn1251 2.035 . S
Zn1251 O1250 2.035 . S
Zn1251 O1252 2.028 . S
Zn1251 O1254 2.028 . S
Zn1251 O1257 2.035 . S
O1252 Zn1251 2.028 . S
O1252 C1258 1.247 . S
O1253 Zn1249 2.035 . S
O1253 C1258 1.258 . S
O1254 C1247 1.247 . S
O1254 Zn1251 2.028 . S
O1255 C1247 1.258 . S
O1255 Zn1249 2.035 . S
O1256 Zn1249 2.028 . S
O1256 C1259 1.247 . S
O1257 Zn1251 2.035 . S
O1257 C1259 1.258 . S
C1258 O1252 1.247 . S
C1258 O1253 1.258 . S
C1259 O1256 1.247 . S
C1259 O1257 1.258 . S
C1260 O1262 1.247 . S
C1260 O1264 1.258 . S
C1261 O1268 1.247 . S
C1261 O1269 1.258 . S
O1262 C1260 1.247 . S
O1262 Zn1263 2.028 . S
Zn1263 O1262 2.028 . S
Zn1263 O1267 2.035 . S
Zn1263 O1269 2.035 . S
Zn1263 O1270 2.028 . S
O1264 C1260 1.258 . S
O1264 Zn1265 2.035 . S
Zn1265 O1264 2.035 . S
Zn1265 O1266 2.028 . S
Zn1265 O1268 2.028 . S
Zn1265 O1271 2.035 . S
O1266 Zn1265 2.028 . S
O1266 C1272 1.247 . S
O1267 Zn1263 2.035 . S
O1267 C1272 1.258 . S
O1268 C1261 1.247 . S
O1268 Zn1265 2.028 . S
O1269 C1261 1.258 . S
O1269 Zn1263 2.035 . S
O1270 Zn1263 2.028 . S
O1270 C1273 1.247 . S
O1271 Zn1265 2.035 . S
O1271 C1273 1.258 . S
C1272 O1266 1.247 . S
C1272 O1267 1.258 . S
C1273 O1270 1.247 . S
C1273 O1271 1.258 . S
C1274 O1276 1.247 . S
C1274 O1278 1.258 . S
C1275 O1282 1.247 . S
C1275 O1283 1.258 . S
O1276 C1274 1.247 . S
O1276 Zn1277 2.028 1_556 S
Zn1277 O1276 2.028 1_554 S
Zn1277 O1281 2.035 . S
Zn1277 O1283 2.035 . S
Zn1277 O1284 2.028 . S
O1278 C1274 1.258 . S
O1278 Zn1279 2.035 1_556 S
Zn1279 O1278 2.035 1_554 S
Zn1279 O1280 2.028 . S
Zn1279 O1282 2.028 . S
Zn1279 O1285 2.035 . S
O1280 Zn1279 2.028 . S
O1280 C1286 1.247 . S
O1281 Zn1277 2.035 . S
O1281 C1286 1.258 . S
O1282 C1275 1.247 . S
O1282 Zn1279 2.028 . S
O1283 C1275 1.258 . S
O1283 Zn1277 2.035 . S
O1284 Zn1277 2.028 . S
O1284 C1287 1.247 . S
O1285 Zn1279 2.035 . S
O1285 C1287 1.258 . S
C1286 O1280 1.247 . S
C1286 O1281 1.258 . S
C1287 O1284 1.247 . S
C1287 O1285 1.258 . S
C1288 O1290 1.247 . S
C1288 O1292 1.258 . S
C1289 O1296 1.247 . S
C1289 O1297 1.258 . S
O1290 C1288 1.247 . S
O1290 Zn1291 2.028 . S
Zn1291 O1290 2.028 . S
Zn1291 O1295 2.035 . S
Zn1291 O1297 2.035 . S
Zn1291 O1298 2.028 . S
O1292 C1288 1.258 . S
O1292 Zn1293 2.035 . S
Zn1293 O1292 2.035 . S
Zn1293 O1294 2.028 . S
Zn1293 O1296 2.028 . S
Zn1293 O1299 2.035 . S
O1294 Zn1293 2.028 . S
O1294 C1300 1.247 . S
O1295 Zn1291 2.035 . S
O1295 C1300 1.258 . S
O1296 C1289 1.247 . S
O1296 Zn1293 2.028 . S
O1297 C1289 1.258 . S
O1297 Zn1291 2.035 . S
O1298 Zn1291 2.028 . S
O1298 C1301 1.247 . S
O1299 Zn1293 2.035 . S
O1299 C1301 1.258 . S
C1300 O1294 1.247 . S
C1300 O1295 1.258 . S
C1301 O1298 1.247 . S
C1301 O1299 1.258 . S
C1302 O1304 1.247 . S
C1302 O1306 1.258 . S
C1303 O1310 1.247 . S
C1303 O1311 1.258 . S
O1304 C1302 1.247 . S
O1304 Zn1305 2.028 1_554 S
Zn1305 O1304 2.028 1_556 S
Zn1305 O1309 2.035 . S
Zn1305 O1311 2.035 . S
Zn1305 O1312 2.028 . S
O1306 C1302 1.258 . S
O1306 Zn1307 2.035 1_554 S
Zn1307 O1306 2.035 1_556 S
Zn1307 O1308 2.028 . S
Zn1307 O1310 2.028 . S
Zn1307 O1313 2.035 . S
O1308 Zn1307 2.028 . S
O1308 C1314 1.247 . S
O1309 Zn1305 2.035 . S
O1309 C1314 1.258 . S
O1310 C1303 1.247 . S
O1310 Zn1307 2.028 . S
O1311 C1303 1.258 . S
O1311 Zn1305 2.035 . S
O1312 Zn1305 2.028 . S
O1312 C1315 1.247 . S
O1313 Zn1307 2.035 . S
O1313 C1315 1.258 . S
C1314 O1308 1.247 . S
C1314 O1309 1.258 . S
C1315 O1312 1.247 . S
C1315 O1313 1.258 . S
C1316 O1318 1.247 . S
C1316 O1320 1.258 . S
C1317 O1324 1.247 . S
C1317 O1325 1.258 . S
O1318 C1316 1.247 . S
O1318 Zn1319 2.028 . S
Zn1319 O1318 2.028 . S
Zn1319 O1323 2.035 . S
Zn1319 O1325 2.035 . S
Zn1319 O1326 2.028 . S
O1320 C1316 1.258 . S
O1320 Zn1321 2.035 . S
Zn1321 O1320 2.035 . S
Zn1321 O1322 2.028 . S
Zn1321 O1324 2.028 . S
Zn1321 O1327 2.035 . S
O1322 Zn1321 2.028 . S
O1322 C1328 1.247 . S
O1323 Zn1319 2.035 . S
O1323 C1328 1.258 . S
O1324 C1317 1.247 . S
O1324 Zn1321 2.028 . S
O1325 C1317 1.258 . S
O1325 Zn1319 2.035 . S
O1326 Zn1319 2.028 . S
O1326 C1329 1.247 . S
O1327 Zn1321 2.035 . S
O1327 C1329 1.258 . S
C1328 O1322 1.247 . S
C1328 O1323 1.258 . S
C1329 O1326 1.247 . S
C1329 O1327 1.258 . S
C1330 O1332 1.247 . S
C1330 O1334 1.258 . S
C1331 O1338 1.247 . S
C1331 O1339 1.258 . S
O1332 C1330 1.247 . S
O1332 Zn1333 2.028 . S
Zn1333 O1332 2.028 . S
Zn1333 O1337 2.035 . S
Zn1333 O1339 2.035 . S
Zn1333 O1340 2.028 . S
O1334 C1330 1.258 . S
O1334 Zn1335 2.035 . S
Zn1335 O1334 2.035 . S
Zn1335 O1336 2.028 . S
Zn1335 O1338 2.028 . S
Zn1335 O1341 2.035 . S
O1336 Zn1335 2.028 . S
O1336 C1342 1.247 . S
O1337 Zn1333 2.035 . S
O1337 C1342 1.258 . S
O1338 C1331 1.247 . S
O1338 Zn1335 2.028 . S
O1339 C1331 1.258 . S
O1339 Zn1333 2.035 . S
O1340 Zn1333 2.028 . S
O1340 C1343 1.247 . S
O1341 Zn1335 2.035 . S
O1341 C1343 1.258 . S
C1342 O1336 1.247 . S
C1342 O1337 1.258 . S
C1343 O1340 1.247 . S
C1343 O1341 1.258 . S
C1344 C1345 1.387 . S
C1344 H1348 0.950 1_455 S
C1344 C1353 1.390 . S
C1345 C1344 1.387 . S
C1345 C1347 1.387 . S
H1346 C1353 0.950 . S
C1347 C1345 1.387 . S
C1347 C1349 1.390 . S
C1347 H1351 0.950 . S
H1348 C1344 0.950 1_655 S
C1349 C1347 1.390 . S
C1349 C1350 1.387 . S
C1349 H1352 0.950 . S
C1350 C1349 1.387 . S
C1350 C1353 1.387 . S
H1351 C1347 0.950 . S
H1352 C1349 0.950 . S
C1353 C1344 1.390 . S
C1353 H1346 0.950 . S
C1353 C1350 1.387 . S
C1354 C1355 1.387 . S
C1354 H1358 0.950 . S
C1354 C1363 1.390 . S
C1355 C1354 1.387 . S
C1355 C1357 1.387 . S
H1356 C1363 0.950 . S
C1357 C1355 1.387 . S
C1357 C1359 1.390 . S
C1357 H1361 0.950 . S
H1358 C1354 0.950 . S
C1359 C1357 1.390 . S
C1359 C1360 1.387 . S
C1359 H1362 0.950 . S
C1360 C1359 1.387 . S
C1360 C1363 1.387 . S
H1361 C1357 0.950 . S
H1362 C1359 0.950 . S
C1363 C1354 1.390 . S
C1363 H1356 0.950 . S
C1363 C1360 1.387 . S
C1364 C1365 1.387 . S
C1364 H1368 0.950 . S
C1364 C1373 1.390 . S
C1365 C1364 1.387 . S
C1365 C1367 1.387 . S
H1366 C1373 0.950 . S
C1367 C1365 1.387 . S
C1367 C1369 1.390 . S
C1367 H1371 0.950 . S
H1368 C1364 0.950 . S
C1369 C1367 1.390 . S
C1369 C1370 1.387 . S
C1369 H1372 0.950 . S
C1370 C1369 1.387 . S
C1370 C1373 1.387 . S
H1371 C1367 0.950 . S
H1372 C1369 0.950 . S
C1373 C1364 1.390 . S
C1373 H1366 0.950 . S
C1373 C1370 1.387 . S
C1374 C1375 1.387 . S
C1374 H1378 0.950 . S
C1374 C1383 1.390 . S
C1375 C1374 1.387 . S
C1375 C1377 1.387 . S
H1376 C1383 0.950 . S
C1377 C1375 1.387 . S
C1377 C1379 1.390 . S
C1377 H1381 0.950 . S
H1378 C1374 0.950 . S
C1379 C1377 1.390 . S
C1379 C1380 1.387 . S
C1379 H1382 0.950 . S
C1380 C1379 1.387 . S
C1380 C1383 1.387 . S
H1381 C1377 0.950 . S
H1382 C1379 0.950 . S
C1383 C1374 1.390 . S
C1383 H1376 0.950 . S
C1383 C1380 1.387 . S
C1384 C1385 1.387 . S
C1384 H1388 0.950 . S
C1384 C1393 1.390 . S
C1385 C1384 1.387 . S
C1385 C1387 1.387 . S
H1386 C1393 0.950 . S
C1387 C1385 1.387 . S
C1387 C1389 1.390 . S
C1387 H1391 0.950 . S
H1388 C1384 0.950 . S
C1389 C1387 1.390 . S
C1389 C1390 1.387 . S
C1389 H1392 0.950 1_455 S
C1390 C1389 1.387 . S
C1390 C1393 1.387 . S
H1391 C1387 0.950 . S
H1392 C1389 0.950 1_655 S
C1393 C1384 1.390 . S
C1393 H1386 0.950 . S
C1393 C1390 1.387 . S
C1394 C1395 1.387 . S
C1394 H1398 0.950 . S
C1394 C1403 1.390 . S
C1395 C1394 1.387 . S
C1395 C1397 1.387 . S
H1396 C1403 0.950 . S
C1397 C1395 1.387 . S
C1397 C1399 1.390 . S
C1397 H1401 0.950 . S
H1398 C1394 0.950 . S
C1399 C1397 1.390 . S
C1399 C1400 1.387 . S
C1399 H1402 0.950 . S
C1400 C1399 1.387 . S
C1400 C1403 1.387 . S
H1401 C1397 0.950 . S
H1402 C1399 0.950 . S
C1403 C1394 1.390 . S
C1403 H1396 0.950 . S
C1403 C1400 1.387 . S
C1404 C1405 1.387 . S
C1404 H1408 0.950 . S
C1404 C1413 1.390 . S
C1405 C1404 1.387 . S
C1405 C1407 1.387 . S
H1406 C1413 0.950 . S
C1407 C1405 1.387 . S
C1407 C1409 1.390 . S
C1407 H1411 0.950 . S
H1408 C1404 0.950 . S
C1409 C1407 1.390 . S
C1409 C1410 1.387 . S
C1409 H1412 0.950 . S
C1410 C1409 1.387 . S
C1410 C1413 1.387 . S
H1411 C1407 0.950 . S
H1412 C1409 0.950 . S
C1413 C1404 1.390 . S
C1413 H1406 0.950 . S
C1413 C1410 1.387 . S
C1414 C1415 1.387 . S
C1414 H1418 0.950 . S
C1414 C1423 1.390 . S
C1415 C1414 1.387 . S
C1415 C1417 1.387 . S
H1416 C1423 0.950 . S
C1417 C1415 1.387 . S
C1417 C1419 1.390 . S
C1417 H1421 0.950 . S
H1418 C1414 0.950 . S
C1419 C1417 1.390 . S
C1419 C1420 1.387 . S
C1419 H1422 0.950 . S
C1420 C1419 1.387 . S
C1420 C1423 1.387 . S
H1421 C1417 0.950 . S
H1422 C1419 0.950 . S
C1423 C1414 1.390 . S
C1423 H1416 0.950 . S
C1423 C1420 1.387 . S
C1424 C1425 1.387 . S
C1424 H1428 0.950 . S
C1424 C1433 1.390 . S
C1425 C1424 1.387 . S
C1425 C1427 1.387 . S
H1426 C1433 0.950 . S
C1427 C1425 1.387 . S
C1427 C1429 1.390 . S
C1427 H1431 0.950 1_545 S
H1428 C1424 0.950 . S
C1429 C1427 1.390 . S
C1429 C1430 1.387 . S
C1429 H1432 0.950 . S
C1430 C1429 1.387 . S
C1430 C1433 1.387 . S
H1431 C1427 0.950 1_565 S
H1432 C1429 0.950 . S
C1433 C1424 1.390 . S
C1433 H1426 0.950 . S
C1433 C1430 1.387 . S
C1434 C1435 1.387 . S
C1434 H1438 0.950 . S
C1434 C1443 1.390 . S
C1435 C1434 1.387 . S
C1435 C1437 1.387 . S
H1436 C1443 0.950 . S
C1437 C1435 1.387 . S
C1437 C1439 1.390 . S
C1437 H1441 0.950 . S
H1438 C1434 0.950 . S
C1439 C1437 1.390 . S
C1439 C1440 1.387 . S
C1439 H1442 0.950 . S
C1440 C1439 1.387 . S
C1440 C1443 1.387 . S
H1441 C1437 0.950 . S
H1442 C1439 0.950 . S
C1443 C1434 1.390 . S
C1443 H1436 0.950 . S
C1443 C1440 1.387 . S
C1444 C1445 1.387 . S
C1444 H1448 0.950 . S
C1444 C1453 1.390 . S
C1445 C1444 1.387 . S
C1445 C1447 1.387 . S
H1446 C1453 0.950 . S
C1447 C1445 1.387 . S
C1447 C1449 1.390 . S
C1447 H1451 0.950 . S
H1448 C1444 0.950 . S
C1449 C1447 1.390 . S
C1449 C1450 1.387 . S
C1449 H1452 0.987 . S
C1450 C1449 1.387 . S
C1450 C1453 1.387 . S
H1451 C1447 0.950 . S
H1452 C1449 0.987 . S
C1453 C1444 1.390 . S
C1453 H1446 0.950 . S
C1453 C1450 1.387 . S
C1454 C1455 1.387 . S
C1454 H1458 0.950 . S
C1454 C1463 1.390 . S
C1455 C1454 1.387 . S
C1455 C1457 1.387 . S
H1456 C1463 0.950 . S
C1457 C1455 1.387 . S
C1457 C1459 1.390 . S
C1457 H1461 0.950 . S
H1458 C1454 0.950 . S
C1459 C1457 1.390 . S
C1459 C1460 1.387 . S
C1459 H1462 0.950 . S
C1460 C1459 1.387 . S
C1460 C1463 1.387 . S
H1461 C1457 0.950 . S
H1462 C1459 0.950 . S
C1463 C1454 1.390 . S
C1463 H1456 0.950 . S
C1463 C1460 1.387 . S
C1464 C1465 1.387 . S
C1464 H1468 0.950 . S
C1464 C1473 1.390 . S
C1465 C1464 1.387 . S
C1465 C1467 1.387 . S
H1466 C1473 0.950 . S
C1467 C1465 1.387 . S
C1467 C1469 1.390 . S
C1467 H1471 0.950 1_565 S
H1468 C1464 0.950 . S
C1469 C1467 1.390 . S
C1469 C1470 1.387 . S
C1469 H1472 0.950 . S
C1470 C1469 1.387 . S
C1470 C1473 1.387 . S
H1471 C1467 0.950 1_545 S
H1472 C1469 0.950 . S
C1473 C1464 1.390 . S
C1473 H1466 0.950 . S
C1473 C1470 1.387 . S
C1474 C1475 1.387 . S
C1474 H1478 0.950 . S
C1474 C1483 1.390 . S
C1475 C1474 1.387 . S
C1475 C1477 1.387 . S
H1476 C1483 0.950 . S
C1477 C1475 1.387 . S
C1477 C1479 1.390 . S
C1477 H1481 0.950 . S
H1478 C1474 0.950 . S
C1479 C1477 1.390 . S
C1479 C1480 1.387 . S
C1479 H1482 0.950 . S
C1480 C1479 1.387 . S
C1480 C1483 1.387 . S
H1481 C1477 0.950 . S
H1482 C1479 0.950 . S
C1483 C1474 1.390 . S
C1483 H1476 0.950 . S
C1483 C1480 1.387 . S
C1484 C1485 1.387 . S
C1484 H1488 0.915 1_545 S
C1484 C1493 1.390 . S
C1485 C1484 1.387 . S
C1485 C1487 1.387 . S
H1486 C1493 0.950 . S
C1487 C1485 1.387 . S
C1487 C1489 1.390 . S
C1487 H1491 0.950 . S
H1488 C1484 0.915 1_565 S
C1489 C1487 1.390 . S
C1489 C1490 1.387 . S
C1489 H1492 0.950 . S
C1490 C1489 1.387 . S
C1490 C1493 1.387 . S
H1491 C1487 0.950 . S
H1492 C1489 0.950 . S
C1493 C1484 1.390 . S
C1493 H1486 0.950 . S
C1493 C1490 1.387 . S
C1494 C1495 1.387 . S
C1494 H1498 0.950 . S
C1494 C1503 1.390 . S
C1495 C1494 1.387 . S
C1495 C1497 1.387 . S
H1496 C1503 0.950 . S
C1497 C1495 1.387 . S
C1497 C1499 1.390 . S
C1497 H1501 0.950 . S
H1498 C1494 0.950 . S
C1499 C1497 1.390 . S
C1499 C1500 1.387 . S
C1499 H1502 0.950 . S
C1500 C1499 1.387 . S
C1500 C1503 1.387 . S
H1501 C1497 0.950 . S
H1502 C1499 0.950 . S
C1503 C1494 1.390 . S
C1503 H1496 0.950 . S
C1503 C1500 1.387 . S
C1504 C1505 1.387 . S
C1504 H1508 0.950 . S
C1504 C1513 1.390 . S
C1505 C1504 1.387 . S
C1505 C1507 1.387 . S
H1506 C1513 0.950 . S
C1507 C1505 1.387 . S
C1507 C1509 1.390 . S
C1507 H1511 0.950 . S
H1508 C1504 0.950 . S
C1509 C1507 1.390 . S
C1509 C1510 1.387 . S
C1509 H1512 0.950 1_554 S
C1510 C1509 1.387 . S
C1510 C1513 1.387 . S
H1511 C1507 0.950 . S
H1512 C1509 0.950 1_556 S
C1513 C1504 1.390 . S
C1513 H1506 0.950 . S
C1513 C1510 1.387 . S
C1514 C1515 1.387 . S
C1514 H1518 0.950 . S
C1514 C1523 1.390 . S
C1515 C1514 1.387 . S
C1515 C1517 1.387 . S
H1516 C1523 0.950 . S
C1517 C1515 1.387 . S
C1517 C1519 1.390 . S
C1517 H1521 0.950 . S
H1518 C1514 0.950 . S
C1519 C1517 1.390 . S
C1519 C1520 1.387 . S
C1519 H1522 0.950 . S
C1520 C1519 1.387 . S
C1520 C1523 1.387 . S
H1521 C1517 0.950 . S
H1522 C1519 0.950 . S
C1523 C1514 1.390 . S
C1523 H1516 0.950 . S
C1523 C1520 1.387 . S
C1524 C1525 1.387 . S
C1524 H1528 0.950 . S
C1524 C1533 1.390 . S
C1525 C1524 1.387 . S
C1525 C1527 1.387 . S
H1526 C1533 0.950 . S
C1527 C1525 1.387 . S
C1527 C1529 1.390 . S
C1527 H1531 0.950 . S
H1528 C1524 0.950 . S
C1529 C1527 1.390 . S
C1529 C1530 1.387 . S
C1529 H1532 0.950 . S
C1530 C1529 1.387 . S
C1530 C1533 1.387 . S
H1531 C1527 0.950 . S
H1532 C1529 0.950 . S
C1533 C1524 1.390 . S
C1533 H1526 0.950 . S
C1533 C1530 1.387 . S
C1534 C1535 1.387 . S
C1534 H1538 0.950 . S
C1534 C1543 1.390 . S
C1535 C1534 1.387 . S
C1535 C1537 1.387 . S
H1536 C1543 0.950 . S
C1537 C1535 1.387 . S
C1537 C1539 1.390 . S
C1537 H1541 0.950 . S
H1538 C1534 0.950 . S
C1539 C1537 1.390 . S
C1539 C1540 1.387 . S
C1539 H1542 0.950 . S
C1540 C1539 1.387 . S
C1540 C1543 1.387 . S
H1541 C1537 0.950 . S
H1542 C1539 0.950 . S
C1543 C1534 1.390 . S
C1543 H1536 0.950 . S
C1543 C1540 1.387 . S
C1544 C1545 1.387 . S
C1544 H1548 0.950 . S
C1544 C1553 1.390 . S
C1545 C1544 1.387 . S
C1545 C1547 1.387 . S
H1546 C1553 0.950 . S
C1547 C1545 1.387 . S
C1547 C1549 1.390 . S
C1547 H1551 0.950 . S
H1548 C1544 0.950 . S
C1549 C1547 1.390 . S
C1549 C1550 1.387 . S
C1549 H1552 0.950 . S
C1550 C1549 1.387 . S
C1550 C1553 1.387 . S
H1551 C1547 0.950 . S
H1552 C1549 0.950 . S
C1553 C1544 1.390 . S
C1553 H1546 0.950 . S
C1553 C1550 1.387 . S
C1554 C1555 1.387 . S
C1554 H1558 0.950 . S
C1554 C1563 1.390 . S
C1555 C1554 1.387 . S
C1555 C1557 1.387 . S
H1556 C1563 0.950 . S
C1557 C1555 1.387 . S
C1557 C1559 1.390 . S
C1557 H1561 0.950 . S
H1558 C1554 0.950 . S
C1559 C1557 1.390 . S
C1559 C1560 1.387 . S
C1559 H1562 0.950 . S
C1560 C1559 1.387 . S
C1560 C1563 1.387 . S
H1561 C1557 0.950 . S
H1562 C1559 0.950 . S
C1563 C1554 1.390 . S
C1563 H1556 0.950 . S
C1563 C1560 1.387 . S
C1564 C1565 1.387 . S
C1564 H1568 0.950 . S
C1564 C1573 1.390 . S
C1565 C1564 1.387 . S
C1565 C1567 1.387 . S
H1566 C1573 0.950 . S
C1567 C1565 1.387 . S
C1567 C1569 1.390 . S
C1567 H1571 0.950 . S
H1568 C1564 0.950 . S
C1569 C1567 1.390 . S
C1569 C1570 1.387 . S
C1569 H1572 0.950 . S
C1570 C1569 1.387 . S
C1570 C1573 1.387 . S
H1571 C1567 0.950 . S
H1572 C1569 0.950 . S
C1573 C1564 1.390 . S
C1573 H1566 0.950 . S
C1573 C1570 1.387 . S
C1574 C1575 1.387 . S
C1574 H1578 0.950 . S
C1574 C1583 1.390 . S
C1575 C1574 1.387 . S
C1575 C1577 1.387 . S
H1576 C1583 0.950 . S
C1577 C1575 1.387 . S
C1577 C1579 1.390 . S
C1577 H1581 0.950 . S
H1578 C1574 0.950 . S
C1579 C1577 1.390 . S
C1579 C1580 1.387 . S
C1579 H1582 0.950 . S
C1580 C1579 1.387 . S
C1580 C1583 1.387 . S
H1581 C1577 0.950 . S
H1582 C1579 0.950 . S
C1583 C1574 1.390 . S
C1583 H1576 0.950 . S
C1583 C1580 1.387 . S
C1584 C1585 1.387 . S
C1584 H1588 0.950 . S
C1584 C1593 1.390 . S
C1585 C1584 1.387 . S
C1585 C1587 1.387 . S
H1586 C1593 0.950 1_455 S
C1587 C1585 1.387 . S
C1587 C1589 1.390 . S
C1587 H1591 0.950 . S
H1588 C1584 0.950 . S
C1589 C1587 1.390 . S
C1589 C1590 1.387 . S
C1589 H1592 0.950 . S
C1590 C1589 1.387 . S
C1590 C1593 1.387 . S
H1591 C1587 0.950 . S
H1592 C1589 0.950 . S
C1593 C1584 1.390 . S
C1593 H1586 0.950 1_655 S
C1593 C1590 1.387 . S
C1594 C1595 1.387 . S
C1594 H1598 0.950 . S
C1594 C1603 1.390 . S
C1595 C1594 1.387 . S
C1595 C1597 1.387 . S
H1596 C1603 0.950 . S
C1597 C1595 1.387 . S
C1597 C1599 1.390 . S
C1597 H1601 0.950 . S
H1598 C1594 0.950 . S
C1599 C1597 1.390 . S
C1599 C1600 1.387 . S
C1599 H1602 0.950 . S
C1600 C1599 1.387 . S
C1600 C1603 1.387 . S
H1601 C1597 0.950 . S
H1602 C1599 0.950 . S
C1603 C1594 1.390 . S
C1603 H1596 0.950 . S
C1603 C1600 1.387 . S
C1604 C1605 1.387 . S
C1604 H1608 0.950 . S
C1604 C1613 1.390 . S
C1605 C1604 1.387 . S
C1605 C1607 1.387 . S
H1606 C1613 0.950 . S
C1607 C1605 1.387 . S
C1607 C1609 1.390 . S
C1607 H1611 0.950 . S
H1608 C1604 0.950 . S
C1609 C1607 1.390 . S
C1609 C1610 1.387 . S
C1609 H1612 0.950 . S
C1610 C1609 1.387 . S
C1610 C1613 1.387 . S
H1611 C1607 0.950 . S
H1612 C1609 0.950 . S
C1613 C1604 1.390 . S
C1613 H1606 0.950 . S
C1613 C1610 1.387 . S
C1614 C1615 1.387 . S
C1614 H1618 0.950 . S
C1614 C1623 1.390 . S
C1615 C1614 1.387 . S
C1615 C1617 1.387 . S
H1616 C1623 0.950 . S
C1617 C1615 1.387 . S
C1617 C1619 1.390 . S
C1617 H1621 0.950 . S
H1618 C1614 0.950 . S
C1619 C1617 1.390 . S
C1619 C1620 1.387 . S
C1619 H1622 0.950 . S
C1620 C1619 1.387 . S
C1620 C1623 1.387 . S
H1621 C1617 0.950 . S
H1622 C1619 0.950 . S
C1623 C1614 1.390 . S
C1623 H1616 0.950 . S
C1623 C1620 1.387 . S
C1624 C1625 1.387 . S
C1624 H1628 0.950 . S
C1624 C1633 1.390 . S
C1625 C1624 1.387 . S
C1625 C1627 1.387 . S
H1626 C1633 0.950 . S
C1627 C1625 1.387 . S
C1627 C1629 1.390 . S
C1627 H1631 0.950 . S
H1628 C1624 0.950 . S
C1629 C1627 1.390 . S
C1629 C1630 1.387 . S
C1629 H1632 0.950 . S
C1630 C1629 1.387 . S
C1630 C1633 1.387 . S
H1631 C1627 0.950 . S
H1632 C1629 0.950 . S
C1633 C1624 1.390 . S
C1633 H1626 0.950 . S
C1633 C1630 1.387 . S
C1634 C1635 1.387 . S
C1634 H1638 0.950 . S
C1634 C1643 1.390 . S
C1635 C1634 1.387 . S
C1635 C1637 1.387 . S
H1636 C1643 0.950 . S
C1637 C1635 1.387 . S
C1637 C1639 1.390 . S
C1637 H1641 0.950 . S
H1638 C1634 0.950 . S
C1639 C1637 1.390 . S
C1639 C1640 1.387 . S
C1639 H1642 0.950 . S
C1640 C1639 1.387 . S
C1640 C1643 1.387 . S
H1641 C1637 0.950 . S
H1642 C1639 0.950 . S
C1643 C1634 1.390 . S
C1643 H1636 0.950 . S
C1643 C1640 1.387 . S
C1644 C1645 1.387 . S
C1644 H1648 0.950 . S
C1644 C1653 1.390 . S
C1645 C1644 1.387 . S
C1645 C1647 1.387 . S
H1646 C1653 0.950 . S
C1647 C1645 1.387 . S
C1647 C1649 1.390 . S
C1647 H1651 0.950 . S
H1648 C1644 0.950 . S
C1649 C1647 1.390 . S
C1649 C1650 1.387 . S
C1649 H1652 0.950 . S
C1650 C1649 1.387 . S
C1650 C1653 1.387 . S
H1651 C1647 0.950 . S
H1652 C1649 0.950 . S
C1653 C1644 1.390 . S
C1653 H1646 0.950 . S
C1653 C1650 1.387 . S
C1654 C1655 1.387 . S
C1654 H1658 0.950 . S
C1654 C1663 1.390 . S
C1655 C1654 1.387 . S
C1655 C1657 1.387 . S
H1656 C1663 0.950 . S
C1657 C1655 1.387 . S
C1657 C1659 1.390 . S
C1657 H1661 0.950 . S
H1658 C1654 0.950 . S
C1659 C1657 1.390 . S
C1659 C1660 1.387 . S
C1659 H1662 0.950 . S
C1660 C1659 1.387 . S
C1660 C1663 1.387 . S
H1661 C1657 0.950 . S
H1662 C1659 0.950 . S
C1663 C1654 1.390 . S
C1663 H1656 0.950 . S
C1663 C1660 1.387 . S
C1664 C1665 1.387 . S
C1664 H1668 0.950 1_565 S
C1664 C1673 1.390 . S
C1665 C1664 1.387 . S
C1665 C1667 1.387 . S
H1666 C1673 0.950 . S
C1667 C1665 1.387 . S
C1667 C1669 1.390 . S
C1667 H1671 0.950 . S
H1668 C1664 0.950 1_545 S
C1669 C1667 1.390 . S
C1669 C1670 1.387 . S
C1669 H1672 0.950 . S
C1670 C1669 1.387 . S
C1670 C1673 1.387 . S
H1671 C1667 0.950 . S
H1672 C1669 0.950 . S
C1673 C1664 1.390 . S
C1673 H1666 0.950 . S
C1673 C1670 1.387 . S
C1674 C1675 1.387 . S
C1674 H1678 0.950 . S
C1674 C1683 1.390 . S
C1675 C1674 1.387 . S
C1675 C1677 1.387 . S
H1676 C1683 0.950 . S
C1677 C1675 1.387 . S
C1677 C1679 1.390 . S
C1677 H1681 0.950 . S
H1678 C1674 0.950 . S
C1679 C1677 1.390 . S
C1679 C1680 1.387 . S
C1679 H1682 0.950 . S
C1680 C1679 1.387 . S
C1680 C1683 1.387 . S
H1681 C1677 0.950 . S
H1682 C1679 0.950 . S
C1683 C1674 1.390 . S
C1683 H1676 0.950 . S
C1683 C1680 1.387 . S
C1684 C1685 1.387 . S
C1684 H1688 0.950 1_545 S
C1684 C1693 1.390 . S
C1685 C1684 1.387 . S
C1685 C1687 1.387 . S
H1686 C1693 0.950 . S
C1687 C1685 1.387 . S
C1687 C1689 1.390 . S
C1687 H1691 0.950 . S
H1688 C1684 0.950 1_565 S
C1689 C1687 1.390 . S
C1689 C1690 1.387 . S
C1689 H1692 0.950 . S
C1690 C1689 1.387 . S
C1690 C1693 1.387 . S
H1691 C1687 0.950 . S
H1692 C1689 0.950 . S
C1693 C1684 1.390 . S
C1693 H1686 0.950 . S
C1693 C1690 1.387 . S
C1694 C1695 1.387 . S
C1694 H1698 0.950 . S
C1694 C1703 1.390 . S
C1695 C1694 1.387 . S
C1695 C1697 1.387 . S
H1696 C1703 0.950 . S
C1697 C1695 1.387 . S
C1697 C1699 1.390 . S
C1697 H1701 0.950 . S
H1698 C1694 0.950 . S
C1699 C1697 1.390 . S
C1699 C1700 1.387 . S
C1699 H1702 0.950 . S
C1700 C1699 1.387 . S
C1700 C1703 1.387 . S
H1701 C1697 0.950 . S
H1702 C1699 0.950 . S
C1703 C1694 1.390 . S
C1703 H1696 0.950 . S
C1703 C1700 1.387 . S
C1704 C1705 1.387 . S
C1704 H1708 0.959 . S
C1704 C1713 1.390 . S
C1705 C1704 1.387 . S
C1705 C1707 1.387 . S
H1706 C1713 0.950 . S
C1707 C1705 1.387 . S
C1707 C1709 1.390 . S
C1707 H1711 0.950 . S
H1708 C1704 0.959 . S
C1709 C1707 1.390 . S
C1709 C1710 1.387 . S
C1709 H1712 0.950 . S
C1710 C1709 1.387 . S
C1710 C1713 1.387 . S
H1711 C1707 0.950 . S
H1712 C1709 0.950 . S
C1713 C1704 1.390 . S
C1713 H1706 0.950 . S
C1713 C1710 1.387 . S
C1714 C1715 1.387 . S
C1714 H1718 0.950 . S
C1714 C1723 1.390 . S
C1715 C1714 1.387 . S
C1715 C1717 1.387 . S
H1716 C1723 0.950 . S
C1717 C1715 1.387 . S
C1717 C1719 1.390 . S
C1717 H1721 0.950 . S
H1718 C1714 0.950 . S
C1719 C1717 1.390 . S
C1719 C1720 1.387 . S
C1719 H1722 0.950 . S
C1720 C1719 1.387 . S
C1720 C1723 1.387 . S
H1721 C1717 0.950 . S
H1722 C1719 0.950 . S
C1723 C1714 1.390 . S
C1723 H1716 0.950 . S
C1723 C1720 1.387 . S
C1724 C1725 1.387 . S
C1724 H1728 0.950 . S
C1724 C1733 1.390 . S
C1725 C1724 1.387 . S
C1725 C1727 1.387 . S
H1726 C1733 0.950 . S
C1727 C1725 1.387 . S
C1727 C1729 1.390 . S
C1727 H1731 0.950 . S
H1728 C1724 0.950 . S
C1729 C1727 1.390 . S
C1729 C1730 1.387 . S
C1729 H1732 0.950 1_565 S
C1730 C1729 1.387 . S
C1730 C1733 1.387 . S
H1731 C1727 0.950 . S
H1732 C1729 0.950 1_545 S
C1733 C1724 1.390 . S
C1733 H1726 0.950 . S
C1733 C1730 1.387 . S
C1734 C1735 1.387 . S
C1734 H1738 0.950 . S
C1734 C1743 1.390 . S
C1735 C1734 1.387 . S
C1735 C1737 1.387 . S
H1736 C1743 0.950 . S
C1737 C1735 1.387 . S
C1737 C1739 1.390 . S
C1737 H1741 0.950 . S
H1738 C1734 0.950 . S
C1739 C1737 1.390 . S
C1739 C1740 1.387 . S
C1739 H1742 0.950 . S
C1740 C1739 1.387 . S
C1740 C1743 1.387 . S
H1741 C1737 0.950 . S
H1742 C1739 0.950 . S
C1743 C1734 1.390 . S
C1743 H1736 0.950 . S
C1743 C1740 1.387 . S
C1744 C1745 1.387 . S
C1744 H1748 0.950 . S
C1744 C1753 1.390 . S
C1745 C1744 1.387 . S
C1745 C1747 1.387 . S
H1746 C1753 0.950 . S
C1747 C1745 1.387 . S
C1747 C1749 1.390 . S
C1747 H1751 0.950 . S
H1748 C1744 0.950 . S
C1749 C1747 1.390 . S
C1749 C1750 1.387 . S
C1749 H1752 0.950 . S
C1750 C1749 1.387 . S
C1750 C1753 1.387 . S
H1751 C1747 0.950 . S
H1752 C1749 0.950 . S
C1753 C1744 1.390 . S
C1753 H1746 0.950 . S
C1753 C1750 1.387 . S
C1754 C1755 1.387 . S
C1754 H1758 0.950 . S
C1754 C1763 1.390 . S
C1755 C1754 1.387 . S
C1755 C1757 1.387 . S
H1756 C1763 0.950 1_556 S
C1757 C1755 1.387 . S
C1757 C1759 1.390 . S
C1757 H1761 0.950 . S
H1758 C1754 0.950 . S
C1759 C1757 1.390 . S
C1759 C1760 1.387 . S
C1759 H1762 0.950 . S
C1760 C1759 1.387 . S
C1760 C1763 1.387 . S
H1761 C1757 0.950 . S
H1762 C1759 0.950 . S
C1763 C1754 1.390 . S
C1763 H1756 0.950 1_554 S
C1763 C1760 1.387 . S
C1764 C1765 1.387 . S
C1764 H1768 0.950 . S
C1764 C1773 1.390 . S
C1765 C1764 1.387 . S
C1765 C1767 1.387 . S
H1766 C1773 0.950 . S
C1767 C1765 1.387 . S
C1767 C1769 1.390 . S
C1767 H1771 0.950 . S
H1768 C1764 0.950 . S
C1769 C1767 1.390 . S
C1769 C1770 1.387 . S
C1769 H1772 0.950 . S
C1770 C1769 1.387 . S
C1770 C1773 1.387 . S
H1771 C1767 0.950 . S
H1772 C1769 0.950 . S
C1773 C1764 1.390 . S
C1773 H1766 0.950 . S
C1773 C1770 1.387 . S
C1774 C1775 1.387 . S
C1774 H1778 0.950 . S
C1774 C1783 1.390 . S
C1775 C1774 1.387 . S
C1775 C1777 1.387 . S
H1776 C1783 0.950 . S
C1777 C1775 1.387 . S
C1777 C1779 1.390 . S
C1777 H1781 0.950 . S
H1778 C1774 0.950 . S
C1779 C1777 1.390 . S
C1779 C1780 1.387 . S
C1779 H1782 0.950 . S
C1780 C1779 1.387 . S
C1780 C1783 1.387 . S
H1781 C1777 0.950 . S
H1782 C1779 0.950 . S
C1783 C1774 1.390 . S
C1783 H1776 0.950 . S
C1783 C1780 1.387 . S
C1784 C1785 1.387 . S
C1784 H1788 0.950 . S
C1784 C1793 1.390 . S
C1785 C1784 1.387 . S
C1785 C1787 1.387 . S
H1786 C1793 0.950 . S
C1787 C1785 1.387 . S
C1787 C1789 1.390 . S
C1787 H1791 0.950 . S
H1788 C1784 0.950 . S
C1789 C1787 1.390 . S
C1789 C1790 1.387 . S
C1789 H1792 0.950 . S
C1790 C1789 1.387 . S
C1790 C1793 1.387 . S
H1791 C1787 0.950 . S
H1792 C1789 0.950 . S
C1793 C1784 1.390 . S
C1793 H1786 0.950 . S
C1793 C1790 1.387 . S
C1794 C1795 1.387 . S
C1794 H1798 0.950 . S
C1794 C1803 1.390 . S
C1795 C1794 1.387 . S
C1795 C1797 1.387 . S
H1796 C1803 0.950 . S
C1797 C1795 1.387 . S
C1797 C1799 1.390 . S
C1797 H1801 0.950 . S
H1798 C1794 0.950 . S
C1799 C1797 1.390 . S
C1799 C1800 1.387 . S
C1799 H1802 0.950 . S
C1800 C1799 1.387 . S
C1800 C1803 1.387 . S
H1801 C1797 0.950 . S
H1802 C1799 0.950 . S
C1803 C1794 1.390 . S
C1803 H1796 0.950 . S
C1803 C1800 1.387 . S
C1804 C1805 1.387 . S
C1804 H1808 0.950 . S
C1804 C1813 1.390 . S
C1805 C1804 1.387 . S
C1805 C1807 1.387 . S
H1806 C1813 0.950 . S
C1807 C1805 1.387 . S
C1807 C1809 1.390 . S
C1807 H1811 0.950 . S
H1808 C1804 0.950 . S
C1809 C1807 1.390 . S
C1809 C1810 1.387 . S
C1809 H1812 0.950 . S
C1810 C1809 1.387 . S
C1810 C1813 1.387 . S
H1811 C1807 0.950 . S
H1812 C1809 0.950 . S
C1813 C1804 1.390 . S
C1813 H1806 0.950 . S
C1813 C1810 1.387 . S
C1814 C1815 1.387 . S
C1814 H1818 0.950 . S
C1814 C1823 1.390 . S
C1815 C1814 1.387 . S
C1815 C1817 1.387 . S
H1816 C1823 0.950 . S
C1817 C1815 1.387 . S
C1817 C1819 1.390 . S
C1817 H1821 0.950 . S
H1818 C1814 0.950 . S
C1819 C1817 1.390 . S
C1819 C1820 1.387 . S
C1819 H1822 0.950 . S
C1820 C1819 1.387 . S
C1820 C1823 1.387 . S
H1821 C1817 0.950 . S
H1822 C1819 0.950 . S
C1823 C1814 1.390 . S
C1823 H1816 0.950 . S
C1823 C1820 1.387 . S
C1824 C1825 1.387 . S
C1824 H1828 0.950 . S
C1824 C1833 1.390 . S
C1825 C1824 1.387 . S
C1825 C1827 1.387 . S
H1826 C1833 0.950 . S
C1827 C1825 1.387 . S
C1827 C1829 1.390 . S
C1827 H1831 0.950 . S
H1828 C1824 0.950 . S
C1829 C1827 1.390 . S
C1829 C1830 1.387 . S
C1829 H1832 0.950 . S
C1830 C1829 1.387 . S
C1830 C1833 1.387 . S
H1831 C1827 0.950 . S
H1832 C1829 0.950 . S
C1833 C1824 1.390 . S
C1833 H1826 0.950 . S
C1833 C1830 1.387 . S
C1834 C1835 1.387 . S
C1834 H1838 0.950 . S
C1834 C1843 1.390 . S
C1835 C1834 1.387 . S
C1835 C1837 1.387 . S
H1836 C1843 0.950 . S
C1837 C1835 1.387 . S
C1837 C1839 1.390 . S
C1837 H1841 0.950 . S
H1838 C1834 0.950 . S
C1839 C1837 1.390 . S
C1839 C1840 1.387 . S
C1839 H1842 0.950 . S
C1840 C1839 1.387 . S
C1840 C1843 1.387 . S
H1841 C1837 0.950 . S
H1842 C1839 0.950 . S
C1843 C1834 1.390 . S
C1843 H1836 0.950 . S
C1843 C1840 1.387 . S
C1844 C1845 1.387 . S
C1844 H1848 0.950 . S
C1844 C1853 1.390 . S
C1845 C1844 1.387 . S
C1845 C1847 1.387 . S
H1846 C1853 0.950 1_455 S
C1847 C1845 1.387 . S
C1847 C1849 1.390 . S
C1847 H1851 0.950 . S
H1848 C1844 0.950 . S
C1849 C1847 1.390 . S
C1849 C1850 1.387 . S
C1849 H1852 0.950 . S
C1850 C1849 1.387 . S
C1850 C1853 1.387 . S
H1851 C1847 0.950 . S
H1852 C1849 0.950 . S
C1853 C1844 1.390 . S
C1853 H1846 0.950 1_655 S
C1853 C1850 1.387 . S
C1854 C1855 1.387 . S
C1854 H1858 0.950 . S
C1854 C1863 1.390 . S
C1855 C1854 1.387 . S
C1855 C1857 1.387 . S
H1856 C1863 0.950 . S
C1857 C1855 1.387 . S
C1857 C1859 1.390 . S
C1857 H1861 0.950 . S
H1858 C1854 0.950 . S
C1859 C1857 1.390 . S
C1859 C1860 1.387 . S
C1859 H1862 0.950 . S
C1860 C1859 1.387 . S
C1860 C1863 1.387 . S
H1861 C1857 0.950 . S
H1862 C1859 0.950 . S
C1863 C1854 1.390 . S
C1863 H1856 0.950 . S
C1863 C1860 1.387 . S
C1864 C1865 1.387 . S
C1864 H1868 0.950 . S
C1864 C1873 1.390 . S
C1865 C1864 1.387 . S
C1865 C1867 1.387 . S
H1866 C1873 0.950 . S
C1867 C1865 1.387 . S
C1867 C1869 1.390 . S
C1867 H1871 0.950 . S
H1868 C1864 0.950 . S
C1869 C1867 1.390 . S
C1869 C1870 1.387 . S
C1869 H1872 0.950 . S
C1870 C1869 1.387 . S
C1870 C1873 1.387 . S
H1871 C1867 0.950 . S
H1872 C1869 0.950 . S
C1873 C1864 1.390 . S
C1873 H1866 0.950 . S
C1873 C1870 1.387 . S
C1874 C1875 1.387 . S
C1874 H1878 0.950 . S
C1874 C1883 1.390 . S
C1875 C1874 1.387 . S
C1875 C1877 1.387 . S
H1876 C1883 0.950 . S
C1877 C1875 1.387 . S
C1877 C1879 1.390 . S
C1877 H1881 0.950 . S
H1878 C1874 0.950 . S
C1879 C1877 1.390 . S
C1879 C1880 1.387 . S
C1879 H1882 0.950 . S
C1880 C1879 1.387 . S
C1880 C1883 1.387 . S
H1881 C1877 0.950 . S
H1882 C1879 0.950 . S
C1883 C1874 1.390 . S
C1883 H1876 0.950 . S
C1883 C1880 1.387 . S
C1884 C1885 1.387 . S
C1884 H1888 0.950 . S
C1884 C1893 1.390 . S
C1885 C1884 1.387 . S
C1885 C1887 1.387 . S
H1886 C1893 0.950 . S
C1887 C1885 1.387 . S
C1887 C1889 1.390 . S
C1887 H1891 0.950 . S
H1888 C1884 0.950 . S
C1889 C1887 1.390 . S
C1889 C1890 1.387 . S
C1889 H1892 0.950 . S
C1890 C1889 1.387 . S
C1890 C1893 1.387 . S
H1891 C1887 0.950 . S
H1892 C1889 0.950 . S
C1893 C1884 1.390 . S
C1893 H1886 0.950 . S
C1893 C1890 1.387 . S
C1894 C1895 1.387 . S
C1894 H1898 0.950 . S
C1894 C1903 1.390 . S
C1895 C1894 1.387 . S
C1895 C1897 1.387 . S
H1896 C1903 0.950 . S
C1897 C1895 1.387 . S
C1897 C1899 1.390 . S
C1897 H1901 0.950 . S
H1898 C1894 0.950 . S
C1899 C1897 1.390 . S
C1899 C1900 1.387 . S
C1899 H1902 0.950 . S
C1900 C1899 1.387 . S
C1900 C1903 1.387 . S
H1901 C1897 0.950 . S
H1902 C1899 0.950 . S
C1903 C1894 1.390 . S
C1903 H1896 0.950 . S
C1903 C1900 1.387 . S
C1904 C1905 1.387 . S
C1904 H1908 0.950 . S
C1904 C1913 1.390 . S
C1905 C1904 1.387 . S
C1905 C1907 1.387 . S
H1906 C1913 0.950 . S
C1907 C1905 1.387 . S
C1907 C1909 1.390 . S
C1907 H1911 0.950 . S
H1908 C1904 0.950 . S
C1909 C1907 1.390 . S
C1909 C1910 1.387 . S
C1909 H1912 0.950 . S
C1910 C1909 1.387 . S
C1910 C1913 1.387 . S
H1911 C1907 0.950 . S
H1912 C1909 0.950 . S
C1913 C1904 1.390 . S
C1913 H1906 0.950 . S
C1913 C1910 1.387 . S
C1914 C1915 1.387 . S
C1914 H1918 0.950 . S
C1914 C1923 1.390 . S
C1915 C1914 1.387 . S
C1915 C1917 1.387 . S
H1916 C1923 0.950 . S
C1917 C1915 1.387 . S
C1917 C1919 1.390 . S
C1917 H1921 0.950 . S
H1918 C1914 0.950 . S
C1919 C1917 1.390 . S
C1919 C1920 1.387 . S
C1919 H1922 0.950 . S
C1920 C1919 1.387 . S
C1920 C1923 1.387 . S
H1921 C1917 0.950 . S
H1922 C1919 0.950 . S
C1923 C1914 1.390 . S
C1923 H1916 0.950 . S
C1923 C1920 1.387 . S
C1924 C1925 1.387 . S
C1924 H1928 0.950 . S
C1924 C1933 1.390 . S
C1925 C1924 1.387 . S
C1925 C1927 1.387 . S
H1926 C1933 0.950 . S
C1927 C1925 1.387 . S
C1927 C1929 1.390 . S
C1927 H1931 0.950 . S
H1928 C1924 0.950 . S
C1929 C1927 1.390 . S
C1929 C1930 1.387 . S
C1929 H1932 0.950 . S
C1930 C1929 1.387 . S
C1930 C1933 1.387 . S
H1931 C1927 0.950 . S
H1932 C1929 0.950 . S
C1933 C1924 1.390 . S
C1933 H1926 0.950 . S
C1933 C1930 1.387 . S
C1934 C1935 1.387 . S
C1934 H1938 0.950 . S
C1934 C1943 1.390 . S
C1935 C1934 1.387 . S
C1935 C1937 1.387 . S
H1936 C1943 0.950 . S
C1937 C1935 1.387 . S
C1937 C1939 1.390 . S
C1937 H1941 0.950 . S
H1938 C1934 0.950 . S
C1939 C1937 1.390 . S
C1939 C1940 1.387 . S
C1939 H1942 0.950 . S
C1940 C1939 1.387 . S
C1940 C1943 1.387 . S
H1941 C1937 0.950 . S
H1942 C1939 0.950 . S
C1943 C1934 1.390 . S
C1943 H1936 0.950 . S
C1943 C1940 1.387 . S
C1944 C1945 1.387 . S
C1944 H1948 0.950 . S
C1944 C1953 1.390 . S
C1945 C1944 1.387 . S
C1945 C1947 1.387 . S
H1946 C1953 0.950 . S
C1947 C1945 1.387 . S
C1947 C1949 1.390 . S
C1947 H1951 0.950 . S
H1948 C1944 0.950 . S
C1949 C1947 1.390 . S
C1949 C1950 1.387 . S
C1949 H1952 0.950 . S
C1950 C1949 1.387 . S
C1950 C1953 1.387 . S
H1951 C1947 0.950 . S
H1952 C1949 0.950 . S
C1953 C1944 1.390 . S
C1953 H1946 0.950 . S
C1953 C1950 1.387 . S
C1954 C1955 1.387 . S
C1954 H1958 0.950 . S
C1954 C1963 1.390 . S
C1955 C1954 1.387 . S
C1955 C1957 1.387 . S
H1956 C1963 0.950 . S
C1957 C1955 1.387 . S
C1957 C1959 1.390 . S
C1957 H1961 0.950 . S
H1958 C1954 0.950 . S
C1959 C1957 1.390 . S
C1959 C1960 1.387 . S
C1959 H1962 0.950 . S
C1960 C1959 1.387 . S
C1960 C1963 1.387 . S
H1961 C1957 0.950 . S
H1962 C1959 0.950 . S
C1963 C1954 1.390 . S
C1963 H1956 0.950 . S
C1963 C1960 1.387 . S
C1964 C1965 1.387 . S
C1964 H1968 0.950 . S
C1964 C1973 1.390 . S
C1965 C1964 1.387 . S
C1965 C1967 1.387 . S
H1966 C1973 0.950 . S
C1967 C1965 1.387 . S
C1967 C1969 1.390 . S
C1967 H1971 0.950 . S
H1968 C1964 0.950 . S
C1969 C1967 1.390 . S
C1969 C1970 1.387 . S
C1969 H1972 0.950 . S
C1970 C1969 1.387 . S
C1970 C1973 1.387 . S
H1971 C1967 0.950 . S
H1972 C1969 0.950 . S
C1973 C1964 1.390 . S
C1973 H1966 0.950 . S
C1973 C1970 1.387 . S
C1974 C1975 1.387 . S
C1974 H1978 0.950 . S
C1974 C1983 1.390 . S
C1975 C1974 1.387 . S
C1975 C1977 1.387 . S
H1976 C1983 0.950 . S
C1977 C1975 1.387 . S
C1977 C1979 1.390 . S
C1977 H1981 0.950 . S
H1978 C1974 0.950 . S
C1979 C1977 1.390 . S
C1979 C1980 1.387 . S
C1979 H1982 0.950 . S
C1980 C1979 1.387 . S
C1980 C1983 1.387 . S
H1981 C1977 0.950 . S
H1982 C1979 0.950 . S
C1983 C1974 1.390 . S
C1983 H1976 0.950 . S
C1983 C1980 1.387 . S
C1984 C1985 1.387 . S
C1984 H1988 0.950 . S
C1984 C1993 1.390 . S
C1985 C1984 1.387 . S
C1985 C1987 1.387 . S
H1986 C1993 0.950 . S
C1987 C1985 1.387 . S
C1987 C1989 1.390 . S
C1987 H1991 0.950 . S
H1988 C1984 0.950 . S
C1989 C1987 1.390 . S
C1989 C1990 1.387 . S
C1989 H1992 0.950 . S
C1990 C1989 1.387 . S
C1990 C1993 1.387 . S
H1991 C1987 0.950 . S
H1992 C1989 0.950 . S
C1993 C1984 1.390 . S
C1993 H1986 0.950 . S
C1993 C1990 1.387 . S
C1994 C1995 1.387 . S
C1994 H1998 0.950 . S
C1994 C2003 1.390 . S
C1995 C1994 1.387 . S
C1995 C1997 1.387 . S
H1996 C2003 0.950 . S
C1997 C1995 1.387 . S
C1997 C1999 1.390 . S
C1997 H2001 0.950 . S
H1998 C1994 0.950 . S
C1999 C1997 1.390 . S
C1999 C2000 1.387 . S
C1999 H2002 0.950 . S
C2000 C1999 1.387 . S
C2000 C2003 1.387 . S
H2001 C1997 0.950 . S
H2002 C1999 0.950 . S
C2003 C1994 1.390 . S
C2003 H1996 0.950 . S
C2003 C2000 1.387 . S
C2004 C2005 1.387 . S
C2004 H2008 0.950 . S
C2004 C2013 1.390 . S
C2005 C2004 1.387 . S
C2005 C2007 1.387 . S
H2006 C2013 0.950 . S
C2007 C2005 1.387 . S
C2007 C2009 1.390 . S
C2007 H2011 0.950 . S
H2008 C2004 0.950 . S
C2009 C2007 1.390 . S
C2009 C2010 1.387 . S
C2009 H2012 0.950 . S
C2010 C2009 1.387 . S
C2010 C2013 1.387 . S
H2011 C2007 0.950 . S
H2012 C2009 0.950 . S
C2013 C2004 1.390 . S
C2013 H2006 0.950 . S
C2013 C2010 1.387 . S
C2014 C2015 1.387 . S
C2014 H2018 0.950 . S
C2014 C2023 1.390 . S
C2015 C2014 1.387 . S
C2015 C2017 1.387 . S
H2016 C2023 0.950 . S
C2017 C2015 1.387 . S
C2017 C2019 1.390 . S
C2017 H2021 0.950 . S
H2018 C2014 0.950 . S
C2019 C2017 1.390 . S
C2019 C2020 1.387 . S
C2019 H2022 0.950 . S
C2020 C2019 1.387 . S
C2020 C2023 1.387 . S
H2021 C2017 0.950 . S
H2022 C2019 0.950 . S
C2023 C2014 1.390 . S
C2023 H2016 0.950 . S
C2023 C2020 1.387 . S
C2024 C2025 1.387 . S
C2024 H2028 0.950 . S
C2024 C2033 1.390 . S
C2025 C2024 1.387 . S
C2025 C2027 1.387 . S
H2026 C2033 0.950 . S
C2027 C2025 1.387 . S
C2027 C2029 1.390 . S
C2027 H2031 0.950 . S
H2028 C2024 0.950 . S
C2029 C2027 1.390 . S
C2029 C2030 1.387 . S
C2029 H2032 0.950 . S
C2030 C2029 1.387 . S
C2030 C2033 1.387 . S
H2031 C2027 0.950 . S
H2032 C2029 0.950 . S
C2033 C2024 1.390 . S
C2033 H2026 0.950 . S
C2033 C2030 1.387 . S
C2034 C2035 1.387 . S
C2034 H2038 0.950 . S
C2034 C2043 1.390 . S
C2035 C2034 1.387 . S
C2035 C2037 1.387 . S
H2036 C2043 0.950 . S
C2037 C2035 1.387 . S
C2037 C2039 1.390 . S
C2037 H2041 0.950 . S
H2038 C2034 0.950 . S
C2039 C2037 1.390 . S
C2039 C2040 1.387 . S
C2039 H2042 0.950 1_554 S
C2040 C2039 1.387 . S
C2040 C2043 1.387 . S
H2041 C2037 0.950 . S
H2042 C2039 0.950 1_556 S
C2043 C2034 1.390 . S
C2043 H2036 0.950 . S
C2043 C2040 1.387 . S
C2044 C2045 1.387 . S
C2044 H2048 0.950 . S
C2044 C2053 1.390 . S
C2045 C2044 1.387 . S
C2045 C2047 1.387 . S
H2046 C2053 0.950 . S
C2047 C2045 1.387 . S
C2047 C2049 1.390 . S
C2047 H2051 0.950 . S
H2048 C2044 0.950 . S
C2049 C2047 1.390 . S
C2049 C2050 1.387 . S
C2049 H2052 0.950 . S
C2050 C2049 1.387 . S
C2050 C2053 1.387 . S
H2051 C2047 0.950 . S
H2052 C2049 0.950 . S
C2053 C2044 1.390 . S
C2053 H2046 0.950 . S
C2053 C2050 1.387 . S
C2054 C2055 1.387 . S
C2054 H2058 0.950 . S
C2054 C2063 1.390 . S
C2055 C2054 1.387 . S
C2055 C2057 1.387 . S
H2056 C2063 0.950 . S
C2057 C2055 1.387 . S
C2057 C2059 1.390 . S
C2057 H2061 0.950 . S
H2058 C2054 0.950 . S
C2059 C2057 1.390 . S
C2059 C2060 1.387 . S
C2059 H2062 0.950 . S
C2060 C2059 1.387 . S
C2060 C2063 1.387 . S
H2061 C2057 0.950 . S
H2062 C2059 0.950 . S
C2063 C2054 1.390 . S
C2063 H2056 0.950 . S
C2063 C2060 1.387 . S
C2064 C2065 1.387 . S
C2064 H2068 0.950 . S
C2064 C2073 1.390 . S
C2065 C2064 1.387 . S
C2065 C2067 1.387 . S
H2066 C2073 0.950 . S
C2067 C2065 1.387 . S
C2067 C2069 1.390 . S
C2067 H2071 0.950 . S
H2068 C2064 0.950 . S
C2069 C2067 1.390 . S
C2069 C2070 1.387 . S
C2069 H2072 0.950 . S
C2070 C2069 1.387 . S
C2070 C2073 1.387 . S
H2071 C2067 0.950 . S
H2072 C2069 0.950 . S
C2073 C2064 1.390 . S
C2073 H2066 0.950 . S
C2073 C2070 1.387 . S
C2074 C2075 1.387 . S
C2074 H2078 0.950 . S
C2074 C2083 1.390 . S
C2075 C2074 1.387 . S
C2075 C2077 1.387 . S
H2076 C2083 0.950 . S
C2077 C2075 1.387 . S
C2077 C2079 1.390 . S
C2077 H2081 0.950 . S
H2078 C2074 0.950 . S
C2079 C2077 1.390 . S
C2079 C2080 1.387 . S
C2079 H2082 0.950 . S
C2080 C2079 1.387 . S
C2080 C2083 1.387 . S
H2081 C2077 0.950 . S
H2082 C2079 0.950 . S
C2083 C2074 1.390 . S
C2083 H2076 0.950 . S
C2083 C2080 1.387 . S
C2084 C2085 1.387 . S
C2084 H2088 0.950 . S
C2084 C2093 1.390 . S
C2085 C2084 1.387 . S
C2085 C2087 1.387 . S
H2086 C2093 0.950 . S
C2087 C2085 1.387 . S
C2087 C2089 1.390 . S
C2087 H2091 0.950 . S
H2088 C2084 0.950 . S
C2089 C2087 1.390 . S
C2089 C2090 1.387 . S
C2089 H2092 0.950 . S
C2090 C2089 1.387 . S
C2090 C2093 1.387 . S
H2091 C2087 0.950 . S
H2092 C2089 0.950 . S
C2093 C2084 1.390 . S
C2093 H2086 0.950 . S
C2093 C2090 1.387 . S
C2094 C2095 1.387 . S
C2094 H2098 0.950 . S
C2094 C2103 1.390 . S
C2095 C2094 1.387 . S
C2095 C2097 1.387 . S
H2096 C2103 0.950 . S
C2097 C2095 1.387 . S
C2097 C2099 1.390 . S
C2097 H2101 0.950 . S
H2098 C2094 0.950 . S
C2099 C2097 1.390 . S
C2099 C2100 1.387 . S
C2099 H2102 0.950 . S
C2100 C2099 1.387 . S
C2100 C2103 1.387 . S
H2101 C2097 0.950 . S
H2102 C2099 0.950 . S
C2103 C2094 1.390 . S
C2103 H2096 0.950 . S
C2103 C2100 1.387 . S
C2104 C2105 1.387 . S
C2104 H2108 0.950 . S
C2104 C2113 1.390 . S
C2105 C2104 1.387 . S
C2105 C2107 1.387 . S
H2106 C2113 0.950 . S
C2107 C2105 1.387 . S
C2107 C2109 1.390 . S
C2107 H2111 0.950 . S
H2108 C2104 0.950 . S
C2109 C2107 1.390 . S
C2109 C2110 1.387 . S
C2109 H2112 0.950 . S
C2110 C2109 1.387 . S
C2110 C2113 1.387 . S
H2111 C2107 0.950 . S
H2112 C2109 0.950 . S
C2113 C2104 1.390 . S
C2113 H2106 0.950 . S
C2113 C2110 1.387 . S
C2114 C2115 1.387 . S
C2114 H2118 0.950 . S
C2114 C2123 1.390 . S
C2115 C2114 1.387 . S
C2115 C2117 1.387 . S
H2116 C2123 0.950 . S
C2117 C2115 1.387 . S
C2117 C2119 1.390 . S
C2117 H2121 0.950 . S
H2118 C2114 0.950 . S
C2119 C2117 1.390 . S
C2119 C2120 1.387 . S
C2119 H2122 0.950 . S
C2120 C2119 1.387 . S
C2120 C2123 1.387 . S
H2121 C2117 0.950 . S
H2122 C2119 0.950 . S
C2123 C2114 1.390 . S
C2123 H2116 0.950 . S
C2123 C2120 1.387 . S
C2124 C2125 1.387 . S
C2124 H2128 0.950 . S
C2124 C2133 1.390 . S
C2125 C2124 1.387 . S
C2125 C2127 1.387 . S
H2126 C2133 0.950 1_655 S
C2127 C2125 1.387 . S
C2127 C2129 1.390 . S
C2127 H2131 0.950 . S
H2128 C2124 0.950 . S
C2129 C2127 1.390 . S
C2129 C2130 1.387 . S
C2129 H2132 0.950 . S
C2130 C2129 1.387 . S
C2130 C2133 1.387 . S
H2131 C2127 0.950 . S
H2132 C2129 0.950 . S
C2133 C2124 1.390 . S
C2133 H2126 0.950 1_455 S
C2133 C2130 1.387 . S
C2134 C2135 1.387 . S
C2134 H2138 0.950 . S
C2134 C2143 1.390 . S
C2135 C2134 1.387 . S
C2135 C2137 1.387 . S
H2136 C2143 0.950 . S
C2137 C2135 1.387 . S
C2137 C2139 1.390 . S
C2137 H2141 0.950 . S
H2138 C2134 0.950 . S
C2139 C2137 1.390 . S
C2139 C2140 1.387 . S
C2139 H2142 0.950 . S
C2140 C2139 1.387 . S
C2140 C2143 1.387 . S
H2141 C2137 0.950 . S
H2142 C2139 0.950 . S
C2143 C2134 1.390 . S
C2143 H2136 0.950 . S
C2143 C2140 1.387 . S
C2144 C2145 1.387 . S
C2144 H2148 0.950 . S
C2144 C2153 1.390 . S
C2145 C2144 1.387 . S
C2145 C2147 1.387 . S
H2146 C2153 0.950 . S
C2147 C2145 1.387 . S
C2147 C2149 1.390 . S
C2147 H2151 0.950 . S
H2148 C2144 0.950 . S
C2149 C2147 1.390 . S
C2149 C2150 1.387 . S
C2149 H2152 0.950 . S
C2150 C2149 1.387 . S
C2150 C2153 1.387 . S
H2151 C2147 0.950 . S
H2152 C2149 0.950 . S
C2153 C2144 1.390 . S
C2153 H2146 0.950 . S
C2153 C2150 1.387 . S
C2154 C2155 1.387 . S
C2154 H2158 0.950 . S
C2154 C2163 1.390 . S
C2155 C2154 1.387 . S
C2155 C2157 1.387 . S
H2156 C2163 0.950 . S
C2157 C2155 1.387 . S
C2157 C2159 1.390 . S
C2157 H2161 0.950 . S
H2158 C2154 0.950 . S
C2159 C2157 1.390 . S
C2159 C2160 1.387 . S
C2159 H2162 0.950 . S
C2160 C2159 1.387 . S
C2160 C2163 1.387 . S
H2161 C2157 0.950 . S
H2162 C2159 0.950 . S
C2163 C2154 1.390 . S
C2163 H2156 0.950 . S
C2163 C2160 1.387 . S
C2164 C2165 1.387 . S
C2164 H2168 0.950 . S
C2164 C2173 1.390 . S
C2165 C2164 1.387 . S
C2165 C2167 1.387 . S
H2166 C2173 0.950 . S
C2167 C2165 1.387 . S
C2167 C2169 1.390 . S
C2167 H2171 0.950 . S
H2168 C2164 0.950 . S
C2169 C2167 1.390 . S
C2169 C2170 1.387 . S
C2169 H2172 0.950 . S
C2170 C2169 1.387 . S
C2170 C2173 1.387 . S
H2171 C2167 0.950 . S
H2172 C2169 0.950 . S
C2173 C2164 1.390 . S
C2173 H2166 0.950 . S
C2173 C2170 1.387 . S
C2174 C2175 1.387 . S
C2174 H2178 0.950 . S
C2174 C2183 1.390 . S
C2175 C2174 1.387 . S
C2175 C2177 1.387 . S
H2176 C2183 0.950 . S
C2177 C2175 1.387 . S
C2177 C2179 1.390 . S
C2177 H2181 0.950 . S
H2178 C2174 0.950 . S
C2179 C2177 1.390 . S
C2179 C2180 1.387 . S
C2179 H2182 0.950 . S
C2180 C2179 1.387 . S
C2180 C2183 1.387 . S
H2181 C2177 0.950 . S
H2182 C2179 0.950 . S
C2183 C2174 1.390 . S
C2183 H2176 0.950 . S
C2183 C2180 1.387 . S
C2184 C2185 1.387 . S
C2184 H2188 0.950 . S
C2184 C2193 1.390 . S
C2185 C2184 1.387 . S
C2185 C2187 1.387 . S
H2186 C2193 0.950 . S
C2187 C2185 1.387 . S
C2187 C2189 1.390 . S
C2187 H2191 0.950 . S
H2188 C2184 0.950 . S
C2189 C2187 1.390 . S
C2189 C2190 1.387 . S
C2189 H2192 0.950 . S
C2190 C2189 1.387 . S
C2190 C2193 1.387 . S
H2191 C2187 0.950 . S
H2192 C2189 0.950 . S
C2193 C2184 1.390 . S
C2193 H2186 0.950 . S
C2193 C2190 1.387 . S
C2194 C2195 1.387 . S
C2194 H2198 0.950 . S
C2194 C2203 1.390 . S
C2195 C2194 1.387 . S
C2195 C2197 1.387 . S
H2196 C2203 0.950 . S
C2197 C2195 1.387 . S
C2197 C2199 1.390 . S
C2197 H2201 0.950 . S
H2198 C2194 0.950 . S
C2199 C2197 1.390 . S
C2199 C2200 1.387 . S
C2199 H2202 0.950 . S
C2200 C2199 1.387 . S
C2200 C2203 1.387 . S
H2201 C2197 0.950 . S
H2202 C2199 0.950 . S
C2203 C2194 1.390 . S
C2203 H2196 0.950 . S
C2203 C2200 1.387 . S
C2204 C2205 1.387 . S
C2204 H2208 0.950 . S
C2204 C2213 1.390 . S
C2205 C2204 1.387 . S
C2205 C2207 1.387 . S
H2206 C2213 0.950 . S
C2207 C2205 1.387 . S
C2207 C2209 1.390 . S
C2207 H2211 0.950 . S
H2208 C2204 0.950 . S
C2209 C2207 1.390 . S
C2209 C2210 1.387 . S
C2209 H2212 0.950 . S
C2210 C2209 1.387 . S
C2210 C2213 1.387 . S
H2211 C2207 0.950 . S
H2212 C2209 0.950 . S
C2213 C2204 1.390 . S
C2213 H2206 0.950 . S
C2213 C2210 1.387 . S
C2214 C2215 1.387 . S
C2214 H2218 0.950 . S
C2214 C2223 1.390 . S
C2215 C2214 1.387 . S
C2215 C2217 1.387 . S
H2216 C2223 0.950 . S
C2217 C2215 1.387 . S
C2217 C2219 1.390 . S
C2217 H2221 0.950 . S
H2218 C2214 0.950 . S
C2219 C2217 1.390 . S
C2219 C2220 1.387 . S
C2219 H2222 0.950 . S
C2220 C2219 1.387 . S
C2220 C2223 1.387 . S
H2221 C2217 0.950 . S
H2222 C2219 0.950 . S
C2223 C2214 1.390 . S
C2223 H2216 0.950 . S
C2223 C2220 1.387 . S
C2224 C2225 1.387 . S
C2224 H2228 0.950 . S
C2224 C2233 1.390 . S
C2225 C2224 1.387 . S
C2225 C2227 1.387 . S
H2226 C2233 0.950 . S
C2227 C2225 1.387 . S
C2227 C2229 1.390 . S
C2227 H2231 0.950 . S
H2228 C2224 0.950 . S
C2229 C2227 1.390 . S
C2229 C2230 1.387 . S
C2229 H2232 0.950 . S
C2230 C2229 1.387 . S
C2230 C2233 1.387 . S
H2231 C2227 0.950 . S
H2232 C2229 0.950 . S
C2233 C2224 1.390 . S
C2233 H2226 0.950 . S
C2233 C2230 1.387 . S
C2234 C2235 1.387 . S
C2234 H2238 0.950 . S
C2234 C2243 1.390 . S
C2235 C2234 1.387 . S
C2235 C2237 1.387 . S
H2236 C2243 0.950 . S
C2237 C2235 1.387 . S
C2237 C2239 1.390 . S
C2237 H2241 0.950 . S
H2238 C2234 0.950 . S
C2239 C2237 1.390 . S
C2239 C2240 1.387 . S
C2239 H2242 0.950 . S
C2240 C2239 1.387 . S
C2240 C2243 1.387 . S
H2241 C2237 0.950 . S
H2242 C2239 0.950 . S
C2243 C2234 1.390 . S
C2243 H2236 0.950 . S
C2243 C2240 1.387 . S
C2244 C2245 1.387 . S
C2244 H2248 0.950 . S
C2244 C2253 1.390 . S
C2245 C2244 1.387 . S
C2245 C2247 1.387 . S
H2246 C2253 0.950 . S
C2247 C2245 1.387 . S
C2247 C2249 1.390 . S
C2247 H2251 0.950 . S
H2248 C2244 0.950 . S
C2249 C2247 1.390 . S
C2249 C2250 1.387 . S
C2249 H2252 0.950 . S
C2250 C2249 1.387 . S
C2250 C2253 1.387 . S
H2251 C2247 0.950 . S
H2252 C2249 0.950 . S
C2253 C2244 1.390 . S
C2253 H2246 0.950 . S
C2253 C2250 1.387 . S
C2254 C2255 1.387 . S
C2254 H2258 0.950 1_554 S
C2254 C2263 1.390 . S
C2255 C2254 1.387 . S
C2255 C2257 1.387 . S
H2256 C2263 0.950 . S
C2257 C2255 1.387 . S
C2257 C2259 1.390 . S
C2257 H2261 0.950 . S
H2258 C2254 0.950 1_556 S
C2259 C2257 1.390 . S
C2259 C2260 1.387 . S
C2259 H2262 0.950 . S
C2260 C2259 1.387 . S
C2260 C2263 1.387 . S
H2261 C2257 0.950 . S
H2262 C2259 0.950 . S
C2263 C2254 1.390 . S
C2263 H2256 0.950 . S
C2263 C2260 1.387 . S
C2264 C2265 1.387 . S
C2264 H2268 0.950 . S
C2264 C2273 1.390 . S
C2265 C2264 1.387 . S
C2265 C2267 1.387 . S
H2266 C2273 0.950 . S
C2267 C2265 1.387 . S
C2267 C2269 1.390 . S
C2267 H2271 0.950 . S
H2268 C2264 0.950 . S
C2269 C2267 1.390 . S
C2269 C2270 1.387 . S
C2269 H2272 0.950 . S
C2270 C2269 1.387 . S
C2270 C2273 1.387 . S
H2271 C2267 0.950 . S
H2272 C2269 0.950 . S
C2273 C2264 1.390 . S
C2273 H2266 0.950 . S
C2273 C2270 1.387 . S
C2274 C2275 1.387 . S
C2274 H2278 0.950 . S
C2274 C2283 1.390 . S
C2275 C2274 1.387 . S
C2275 C2277 1.387 . S
H2276 C2283 0.950 . S
C2277 C2275 1.387 . S
C2277 C2279 1.390 . S
C2277 H2281 0.950 1_556 S
H2278 C2274 0.950 . S
C2279 C2277 1.390 . S
C2279 C2280 1.387 . S
C2279 H2282 0.950 . S
C2280 C2279 1.387 . S
C2280 C2283 1.387 . S
H2281 C2277 0.950 1_554 S
H2282 C2279 0.950 . S
C2283 C2274 1.390 . S
C2283 H2276 0.950 . S
C2283 C2280 1.387 . S
C2284 C2285 1.387 . S
C2284 H2288 0.950 . S
C2284 C2293 1.390 . S
C2285 C2284 1.387 . S
C2285 C2287 1.387 . S
H2286 C2293 0.950 . S
C2287 C2285 1.387 . S
C2287 C2289 1.390 . S
C2287 H2291 0.950 . S
H2288 C2284 0.950 . S
C2289 C2287 1.390 . S
C2289 C2290 1.387 . S
C2289 H2292 0.950 . S
C2290 C2289 1.387 . S
C2290 C2293 1.387 . S
H2291 C2287 0.950 . S
H2292 C2289 0.950 . S
C2293 C2284 1.390 . S
C2293 H2286 0.950 . S
C2293 C2290 1.387 . S
C2294 C2295 1.387 . S
C2294 H2298 0.950 . S
C2294 C2303 1.390 . S
C2295 C2294 1.387 . S
C2295 C2297 1.387 . S
H2296 C2303 0.950 . S
C2297 C2295 1.387 . S
C2297 C2299 1.390 . S
C2297 H2301 0.950 . S
H2298 C2294 0.950 . S
C2299 C2297 1.390 . S
C2299 C2300 1.387 . S
C2299 H2302 0.950 . S
C2300 C2299 1.387 . S
C2300 C2303 1.387 . S
H2301 C2297 0.950 . S
H2302 C2299 0.950 . S
C2303 C2294 1.390 . S
C2303 H2296 0.950 . S
C2303 C2300 1.387 . S
C2304 C2305 1.387 . S
C2304 H2308 0.950 . S
C2304 C2313 1.390 1_565 S
C2305 C2304 1.387 . S
C2305 C2307 1.387 1_455 S
H2306 C2313 0.950 . S
C2307 C2305 1.387 1_655 S
C2307 C2309 1.390 1_565 S
C2307 H2311 0.950 . S
H2308 C2304 0.950 . S
C2309 C2307 1.390 1_545 S
C2309 C2310 1.387 1_655 S
C2309 H2312 0.950 . S
C2310 C2309 1.387 1_455 S
C2310 C2313 1.387 . S
H2311 C2307 0.950 . S
H2312 C2309 0.950 . S
C2313 C2304 1.390 1_545 S
C2313 H2306 0.950 . S
C2313 C2310 1.387 . S
C2314 C2315 1.387 . S
C2314 H2318 0.950 . S
C2314 C2323 1.390 . S
C2315 C2314 1.387 . S
C2315 C2317 1.387 . S
H2316 C2323 0.950 . S
C2317 C2315 1.387 . S
C2317 C2319 1.390 . S
C2317 H2321 0.950 . S
H2318 C2314 0.950 . S
C2319 C2317 1.390 . S
C2319 C2320 1.387 . S
C2319 H2322 0.950 . S
C2320 C2319 1.387 . S
C2320 C2323 1.387 . S
H2321 C2317 0.950 . S
H2322 C2319 0.950 . S
C2323 C2314 1.390 . S
C2323 H2316 0.950 . S
C2323 C2320 1.387 . S
C2324 C2325 1.387 . S
C2324 H2328 0.950 . S
C2324 C2333 1.390 1_565 S
C2325 C2324 1.387 . S
C2325 C2327 1.387 . S
H2326 C2333 0.950 . S
C2327 C2325 1.387 . S
C2327 C2329 1.390 1_565 S
C2327 H2331 0.950 . S
H2328 C2324 0.950 . S
C2329 C2327 1.390 1_545 S
C2329 C2330 1.387 . S
C2329 H2332 0.950 . S
C2330 C2329 1.387 . S
C2330 C2333 1.387 . S
H2331 C2327 0.950 . S
H2332 C2329 0.950 . S
C2333 C2324 1.390 1_545 S
C2333 H2326 0.950 . S
C2333 C2330 1.387 . S
C2334 C2335 1.387 . S
C2334 H2338 0.950 . S
C2334 C2343 1.390 1_556 S
C2335 C2334 1.387 . S
C2335 C2337 1.387 . S
H2336 C2343 0.950 . S
C2337 C2335 1.387 . S
C2337 C2339 1.390 1_556 S
C2337 H2341 0.950 . S
H2338 C2334 0.950 . S
C2339 C2337 1.390 1_554 S
C2339 C2340 1.387 . S
C2339 H2342 0.950 . S
C2340 C2339 1.387 . S
C2340 C2343 1.387 . S
H2341 C2337 0.950 . S
H2342 C2339 0.950 . S
C2343 C2334 1.390 1_554 S
C2343 H2336 0.950 . S
C2343 C2340 1.387 . S
C2344 C2345 1.387 1_565 S
C2344 H2348 0.950 . S
C2344 C2353 1.390 1_556 S
C2345 C2344 1.387 1_545 S
C2345 C2347 1.387 . S
H2346 C2353 0.950 . S
C2347 C2345 1.387 . S
C2347 C2349 1.390 1_556 S
C2347 H2351 0.950 . S
H2348 C2344 0.950 . S
C2349 C2347 1.390 1_554 S
C2349 C2350 1.387 . S
C2349 H2352 0.950 . S
C2350 C2349 1.387 . S
C2350 C2353 1.387 1_545 S
H2351 C2347 0.950 . S
H2352 C2349 0.950 . S
C2353 C2344 1.390 1_554 S
C2353 H2346 0.950 . S
C2353 C2350 1.387 1_565 S
C2354 C2355 1.387 . S
C2354 H2358 0.950 . S
C2354 C2363 1.390 1_545 S
C2355 C2354 1.387 . S
C2355 C2357 1.387 . S
H2356 C2363 0.950 . S
C2357 C2355 1.387 . S
C2357 C2359 1.390 1_545 S
C2357 H2361 0.950 . S
H2358 C2354 0.950 . S
C2359 C2357 1.390 1_565 S
C2359 C2360 1.387 . S
C2359 H2362 0.950 . S
C2360 C2359 1.387 . S
C2360 C2363 1.387 . S
H2361 C2357 0.950 . S
H2362 C2359 0.950 . S
C2363 C2354 1.390 1_565 S
C2363 H2356 0.950 . S
C2363 C2360 1.387 . S
C2364 C2365 1.387 1_545 S
C2364 H2368 0.950 . S
C2364 C2373 1.390 . S
C2365 C2364 1.387 1_565 S
C2365 C2367 1.387 . S
H2366 C2373 0.950 . S
C2367 C2365 1.387 . S
C2367 C2369 1.390 . S
C2367 H2371 0.950 . S
H2368 C2364 0.950 . S
C2369 C2367 1.390 . S
C2369 C2370 1.387 . S
C2369 H2372 0.950 . S
C2370 C2369 1.387 . S
C2370 C2373 1.387 1_565 S
H2371 C2367 0.950 . S
H2372 C2369 0.950 . S
C2373 C2364 1.390 . S
C2373 H2366 0.950 . S
C2373 C2370 1.387 1_545 S
C2374 C2375 1.387 . S
C2374 H2378 0.950 . S
C2374 C2383 1.390 1_545 S
C2375 C2374 1.387 . S
C2375 C2377 1.387 . S
H2376 C2383 0.950 . S
C2377 C2375 1.387 . S
C2377 C2379 1.390 1_545 S
C2377 H2381 0.950 . S
H2378 C2374 0.950 . S
C2379 C2377 1.390 1_565 S
C2379 C2380 1.387 . S
C2379 H2382 0.950 . S
C2380 C2379 1.387 . S
C2380 C2383 1.387 . S
H2381 C2377 0.950 . S
H2382 C2379 0.950 . S
C2383 C2374 1.390 1_565 S
C2383 H2376 0.950 . S
C2383 C2380 1.387 . S
C2384 C2385 1.387 1_556 S
C2384 H2388 0.950 . S
C2384 C2393 1.390 1_655 S
C2385 C2384 1.387 1_554 S
C2385 C2387 1.387 . S
H2386 C2393 0.950 . S
C2387 C2385 1.387 . S
C2387 C2389 1.390 1_655 S
C2387 H2391 0.950 . S
H2388 C2384 0.950 . S
C2389 C2387 1.390 1_455 S
C2389 C2390 1.387 . S
C2389 H2392 0.950 . S
C2390 C2389 1.387 . S
C2390 C2393 1.387 1_554 S
H2391 C2387 0.950 . S
H2392 C2389 0.950 . S
C2393 C2384 1.390 1_455 S
C2393 H2386 0.950 . S
C2393 C2390 1.387 1_556 S
C2394 C2395 1.387 1_554 S
C2394 H2398 0.950 . S
C2394 C2403 1.390 . S
C2395 C2394 1.387 1_556 S
C2395 C2397 1.387 . S
H2396 C2403 0.950 . S
C2397 C2395 1.387 . S
C2397 C2399 1.390 . S
C2397 H2401 0.950 . S
H2398 C2394 0.950 . S
C2399 C2397 1.390 . S
C2399 C2400 1.387 . S
C2399 H2402 0.950 . S
C2400 C2399 1.387 . S
C2400 C2403 1.387 1_556 S
H2401 C2397 0.950 . S
H2402 C2399 0.950 . S
C2403 C2394 1.390 . S
C2403 H2396 0.950 . S
C2403 C2400 1.387 1_554 S
C2404 C2405 1.387 . S
C2404 H2408 0.950 . S
C2404 C2413 1.390 1_655 S
C2405 C2404 1.387 . S
C2405 C2407 1.387 . S
H2406 C2413 0.950 . S
C2407 C2405 1.387 . S
C2407 C2409 1.390 1_655 S
C2407 H2411 0.950 . S
H2408 C2404 0.950 . S
C2409 C2407 1.390 1_455 S
C2409 C2410 1.387 . S
C2409 H2412 0.950 . S
C2410 C2409 1.387 . S
C2410 C2413 1.387 . S
H2411 C2407 0.950 . S
H2412 C2409 0.950 . S
C2413 C2404 1.390 1_455 S
C2413 H2406 0.950 . S
C2413 C2410 1.387 . S
C2414 C2415 1.387 . S
C2414 H2418 0.950 . S
C2414 C2423 1.390 1_455 S
C2415 C2414 1.387 . S
C2415 C2417 1.387 . S
H2416 C2423 0.950 . S
C2417 C2415 1.387 . S
C2417 C2419 1.390 1_455 S
C2417 H2421 0.950 . S
H2418 C2414 0.950 . S
C2419 C2417 1.390 1_655 S
C2419 C2420 1.387 . S
C2419 H2422 0.950 . S
C2420 C2419 1.387 . S
C2420 C2423 1.387 . S
H2421 C2417 0.950 . S
H2422 C2419 0.950 . S
C2423 C2414 1.390 1_655 S
C2423 H2416 0.950 . S
C2423 C2420 1.387 . S
C2424 C2425 1.387 . S
C2424 H2428 0.950 . S
C2424 C2433 1.390 . S
C2425 C2424 1.387 . S
C2425 C2427 1.387 . S
H2426 C2433 0.950 . S
C2427 C2425 1.387 . S
C2427 C2429 1.390 . S
C2427 H2431 0.950 . S
H2428 C2424 0.950 . S
C2429 C2427 1.390 . S
C2429 C2430 1.387 . S
C2429 H2432 0.950 . S
C2430 C2429 1.387 . S
C2430 C2433 1.387 . S
H2431 C2427 0.950 . S
H2432 C2429 0.950 . S
C2433 C2424 1.390 . S
C2433 H2426 0.950 . S
C2433 C2430 1.387 . S
C2434 C2435 1.387 . S
C2434 H2438 0.950 . S
C2434 C2443 1.390 1_455 S
C2435 C2434 1.387 . S
C2435 C2437 1.387 . S
H2436 C2443 0.950 . S
C2437 C2435 1.387 . S
C2437 C2439 1.390 1_455 S
C2437 H2441 0.950 . S
H2438 C2434 0.950 . S
C2439 C2437 1.390 1_655 S
C2439 C2440 1.387 . S
C2439 H2442 0.950 . S
C2440 C2439 1.387 . S
C2440 C2443 1.387 . S
H2441 C2437 0.950 . S
H2442 C2439 0.950 . S
C2443 C2434 1.390 1_655 S
C2443 H2436 0.950 . S
C2443 C2440 1.387 . S
C2444 C2445 1.387 . S
C2444 H2448 0.950 . S
C2444 C2453 1.390 . S
C2445 C2444 1.387 . S
C2445 C2447 1.387 . S
H2446 C2453 0.950 . S
C2447 C2445 1.387 . S
C2447 C2449 1.390 . S
C2447 H2451 0.950 . S
H2448 C2444 0.950 . S
C2449 C2447 1.390 . S
C2449 C2450 1.387 . S
C2449 H2452 0.950 . S
C2450 C2449 1.387 . S
C2450 C2453 1.387 . S
H2451 C2447 0.950 . S
H2452 C2449 0.950 . S
C2453 C2444 1.390 . S
C2453 H2446 0.950 . S
C2453 C2450 1.387 . S
C2454 C2455 1.387 1_455 S
C2454 H2458 0.950 . S
C2454 C2463 1.390 1_565 S
C2455 C2454 1.387 1_655 S
C2455 C2457 1.387 . S
H2456 C2463 0.950 . S
C2457 C2455 1.387 . S
C2457 C2459 1.390 1_565 S
C2457 H2461 0.950 . S
H2458 C2454 0.950 . S
C2459 C2457 1.390 1_545 S
C2459 C2460 1.387 . S
C2459 H2462 0.950 . S
C2460 C2459 1.387 . S
C2460 C2463 1.387 1_655 S
H2461 C2457 0.950 . S
H2462 C2459 0.950 . S
C2463 C2454 1.390 1_545 S
C2463 H2456 0.950 . S
C2463 C2460 1.387 1_455 S
C2464 C2465 1.387 . S
C2464 H2468 0.950 . S
C2464 C2473 1.390 . S
C2465 C2464 1.387 . S
C2465 C2467 1.387 . S
H2466 C2473 0.950 . S
C2467 C2465 1.387 . S
C2467 C2469 1.390 . S
C2467 H2471 0.950 . S
H2468 C2464 0.950 . S
C2469 C2467 1.390 . S
C2469 C2470 1.387 . S
C2469 H2472 0.950 . S
C2470 C2469 1.387 . S
C2470 C2473 1.387 . S
H2471 C2467 0.950 . S
H2472 C2469 0.950 . S
C2473 C2464 1.390 . S
C2473 H2466 0.950 . S
C2473 C2470 1.387 . S
C2474 C2475 1.387 . S
C2474 H2478 0.950 . S
C2474 C2483 1.390 1_565 S
C2475 C2474 1.387 . S
C2475 C2477 1.387 . S
H2476 C2483 0.950 . S
C2477 C2475 1.387 . S
C2477 C2479 1.390 1_565 S
C2477 H2481 0.950 . S
H2478 C2474 0.950 . S
C2479 C2477 1.390 1_545 S
C2479 C2480 1.387 . S
C2479 H2482 0.950 . S
C2480 C2479 1.387 . S
C2480 C2483 1.387 . S
H2481 C2477 0.950 . S
H2482 C2479 0.950 . S
C2483 C2474 1.390 1_545 S
C2483 H2476 0.950 . S
C2483 C2480 1.387 . S
C2484 C2485 1.387 . S
C2484 H2488 0.950 . S
C2484 C2493 1.390 1_554 S
C2485 C2484 1.387 . S
C2485 C2487 1.387 . S
H2486 C2493 0.950 . S
C2487 C2485 1.387 . S
C2487 C2489 1.390 1_554 S
C2487 H2491 0.950 . S
H2488 C2484 0.950 . S
C2489 C2487 1.390 1_556 S
C2489 C2490 1.387 . S
C2489 H2492 0.950 . S
C2490 C2489 1.387 . S
C2490 C2493 1.387 . S
H2491 C2487 0.950 . S
H2492 C2489 0.950 . S
C2493 C2484 1.390 1_556 S
C2493 H2486 0.950 . S
C2493 C2490 1.387 . S
C2494 C2495 1.387 1_545 S
C2494 H2498 0.950 . S
C2494 C2503 1.390 1_556 S
C2495 C2494 1.387 1_565 S
C2495 C2497 1.387 . S
H2496 C2503 0.950 . S
C2497 C2495 1.387 . S
C2497 C2499 1.390 1_556 S
C2497 H2501 0.950 . S
H2498 C2494 0.950 . S
C2499 C2497 1.390 1_554 S
C2499 C2500 1.387 . S
C2499 H2502 0.950 . S
C2500 C2499 1.387 . S
C2500 C2503 1.387 1_565 S
H2501 C2497 0.950 . S
H2502 C2499 0.950 . S
C2503 C2494 1.390 1_554 S
C2503 H2496 0.950 . S
C2503 C2500 1.387 1_545 S
C2504 C2505 1.387 . S
C2504 H2508 0.950 . S
C2504 C2513 1.390 1_545 S
C2505 C2504 1.387 . S
C2505 C2507 1.387 . S
H2506 C2513 0.950 . S
C2507 C2505 1.387 . S
C2507 C2509 1.390 1_545 S
C2507 H2511 0.950 . S
H2508 C2504 0.950 . S
C2509 C2507 1.390 1_565 S
C2509 C2510 1.387 . S
C2509 H2512 0.950 . S
C2510 C2509 1.387 . S
C2510 C2513 1.387 . S
H2511 C2507 0.950 . S
H2512 C2509 0.950 . S
C2513 C2504 1.390 1_565 S
C2513 H2506 0.950 . S
C2513 C2510 1.387 . S
C2514 C2515 1.387 1_565 S
C2514 H2518 0.950 . S
C2514 C2523 1.390 . S
C2515 C2514 1.387 1_545 S
C2515 C2517 1.387 . S
H2516 C2523 0.950 . S
C2517 C2515 1.387 . S
C2517 C2519 1.390 . S
C2517 H2521 0.950 . S
H2518 C2514 0.950 . S
C2519 C2517 1.390 . S
C2519 C2520 1.387 . S
C2519 H2522 0.950 . S
C2520 C2519 1.387 . S
C2520 C2523 1.387 1_545 S
H2521 C2517 0.950 . S
H2522 C2519 0.950 . S
C2523 C2514 1.390 . S
C2523 H2516 0.950 . S
C2523 C2520 1.387 1_565 S
C2524 C2525 1.387 . S
C2524 H2528 0.950 . S
C2524 C2533 1.390 1_565 S
C2525 C2524 1.387 . S
C2525 C2527 1.387 . S
H2526 C2533 0.950 . S
C2527 C2525 1.387 . S
C2527 C2529 1.390 1_565 S
C2527 H2531 0.950 . S
H2528 C2524 0.950 . S
C2529 C2527 1.390 1_545 S
C2529 C2530 1.387 . S
C2529 H2532 0.950 . S
C2530 C2529 1.387 . S
C2530 C2533 1.387 . S
H2531 C2527 0.950 . S
H2532 C2529 0.950 . S
C2533 C2524 1.390 1_545 S
C2533 H2526 0.950 . S
C2533 C2530 1.387 . S
C2534 C2535 1.387 1_554 S
C2534 H2538 0.950 . S
C2534 C2543 1.390 1_455 S
C2535 C2534 1.387 1_556 S
C2535 C2537 1.387 . S
H2536 C2543 0.950 . S
C2537 C2535 1.387 . S
C2537 C2539 1.390 1_455 S
C2537 H2541 0.950 . S
H2538 C2534 0.950 . S
C2539 C2537 1.390 1_655 S
C2539 C2540 1.387 . S
C2539 H2542 0.950 . S
C2540 C2539 1.387 . S
C2540 C2543 1.387 1_556 S
H2541 C2537 0.950 . S
H2542 C2539 0.950 . S
C2543 C2534 1.390 1_655 S
C2543 H2536 0.950 . S
C2543 C2540 1.387 1_554 S
C2544 C2545 1.387 1_556 S
C2544 H2548 0.950 . S
C2544 C2553 1.390 . S
C2545 C2544 1.387 1_554 S
C2545 C2547 1.387 . S
H2546 C2553 0.950 . S
C2547 C2545 1.387 . S
C2547 C2549 1.390 . S
C2547 H2551 0.950 . S
H2548 C2544 0.950 . S
C2549 C2547 1.390 . S
C2549 C2550 1.387 . S
C2549 H2552 0.950 . S
C2550 C2549 1.387 . S
C2550 C2553 1.387 1_554 S
H2551 C2547 0.950 . S
H2552 C2549 0.950 . S
C2553 C2544 1.390 . S
C2553 H2546 0.950 . S
C2553 C2550 1.387 1_556 S
C2554 C2555 1.387 . S
C2554 H2558 0.950 . S
C2554 C2563 1.390 1_455 S
C2555 C2554 1.387 . S
C2555 C2557 1.387 . S
H2556 C2563 0.950 . S
C2557 C2555 1.387 . S
C2557 C2559 1.390 1_455 S
C2557 H2561 0.950 . S
H2558 C2554 0.950 . S
C2559 C2557 1.390 1_655 S
C2559 C2560 1.387 . S
C2559 H2562 0.950 . S
C2560 C2559 1.387 . S
C2560 C2563 1.387 . S
H2561 C2557 0.950 . S
H2562 C2559 0.950 . S
C2563 C2554 1.390 1_655 S
C2563 H2556 0.950 . S
C2563 C2560 1.387 . S
C2564 C2565 1.387 . S
C2564 H2568 0.950 . S
C2564 C2573 1.390 1_455 S
C2565 C2564 1.387 . S
C2565 C2567 1.387 . S
H2566 C2573 0.950 . S
C2567 C2565 1.387 . S
C2567 C2569 1.390 1_455 S
C2567 H2571 0.950 . S
H2568 C2564 0.950 . S
C2569 C2567 1.390 1_655 S
C2569 C2570 1.387 . S
C2569 H2572 0.950 . S
C2570 C2569 1.387 . S
C2570 C2573 1.387 . S
H2571 C2567 0.950 . S
H2572 C2569 0.950 . S
C2573 C2564 1.390 1_655 S
C2573 H2566 0.950 . S
C2573 C2570 1.387 . S
C2574 C2575 1.387 . S
C2574 H2578 0.950 . S
C2574 C2583 1.390 . S
C2575 C2574 1.387 . S
C2575 C2577 1.387 . S
H2576 C2583 0.950 . S
C2577 C2575 1.387 . S
C2577 C2579 1.390 . S
C2577 H2581 0.950 . S
H2578 C2574 0.950 . S
C2579 C2577 1.390 . S
C2579 C2580 1.387 . S
C2579 H2582 0.950 . S
C2580 C2579 1.387 . S
C2580 C2583 1.387 . S
H2581 C2577 0.950 . S
H2582 C2579 0.950 . S
C2583 C2574 1.390 . S
C2583 H2576 0.950 . S
C2583 C2580 1.387 . S
C2584 C2585 1.387 . S
C2584 H2588 0.950 . S
C2584 C2593 1.390 1_455 S
C2585 C2584 1.387 . S
C2585 C2587 1.387 . S
H2586 C2593 0.950 . S
C2587 C2585 1.387 . S
C2587 C2589 1.390 1_455 S
C2587 H2591 0.950 . S
H2588 C2584 0.950 . S
C2589 C2587 1.390 1_655 S
C2589 C2590 1.387 . S
C2589 H2592 0.950 . S
C2590 C2589 1.387 . S
C2590 C2593 1.387 . S
H2591 C2587 0.950 . S
H2592 C2589 0.950 . S
C2593 C2584 1.390 1_655 S
C2593 H2586 0.950 . S
C2593 C2590 1.387 . S
C2594 C2595 1.387 . S
C2594 H2598 0.950 . S
C2594 C2603 1.390 . S
C2595 C2594 1.387 . S
C2595 C2597 1.387 . S
H2596 C2603 0.950 . S
C2597 C2595 1.387 . S
C2597 C2599 1.390 . S
C2597 H2601 0.950 . S
H2598 C2594 0.950 . S
C2599 C2597 1.390 . S
C2599 C2600 1.387 . S
C2599 H2602 0.950 . S
C2600 C2599 1.387 . S
C2600 C2603 1.387 . S
H2601 C2597 0.950 . S
H2602 C2599 0.950 . S
C2603 C2594 1.390 . S
C2603 H2596 0.950 . S
C2603 C2600 1.387 . S
C2604 C2605 1.387 . S
C2604 H2608 0.950 . S
C2604 C2613 1.390 . S
C2605 C2604 1.387 . S
C2605 C2607 1.387 . S
H2606 C2613 0.950 . S
C2607 C2605 1.387 . S
C2607 C2609 1.390 . S
C2607 H2611 0.950 . S
H2608 C2604 0.950 . S
C2609 C2607 1.390 . S
C2609 C2610 1.387 . S
C2609 H2612 0.950 . S
C2610 C2609 1.387 . S
C2610 C2613 1.387 . S
H2611 C2607 0.950 . S
H2612 C2609 0.950 . S
C2613 C2604 1.390 . S
C2613 H2606 0.950 . S
C2613 C2610 1.387 . S
C2614 C2615 1.387 . S
C2614 H2618 0.950 . S
C2614 C2623 1.390 1_554 S
C2615 C2614 1.387 . S
C2615 C2617 1.387 . S
H2616 C2623 0.950 . S
C2617 C2615 1.387 . S
C2617 C2619 1.390 1_554 S
C2617 H2621 0.950 . S
H2618 C2614 0.950 . S
C2619 C2617 1.390 1_556 S
C2619 C2620 1.387 . S
C2619 H2622 0.950 . S
C2620 C2619 1.387 . S
C2620 C2623 1.387 . S
H2621 C2617 0.950 . S
H2622 C2619 0.950 . S
C2623 C2614 1.390 1_556 S
C2623 H2616 0.950 . S
C2623 C2620 1.387 . S
C2624 C2625 1.387 1_455 S
C2624 H2628 0.950 . S
C2624 C2633 1.390 . S
C2625 C2624 1.387 1_655 S
C2625 C2627 1.387 . S
H2626 C2633 0.950 . S
C2627 C2625 1.387 . S
C2627 C2629 1.390 . S
C2627 H2631 0.950 . S
H2628 C2624 0.950 . S
C2629 C2627 1.390 . S
C2629 C2630 1.387 . S
C2629 H2632 0.950 . S
C2630 C2629 1.387 . S
C2630 C2633 1.387 1_655 S
H2631 C2627 0.950 . S
H2632 C2629 0.950 . S
C2633 C2624 1.390 . S
C2633 H2626 0.950 . S
C2633 C2630 1.387 1_455 S
C2634 C2635 1.387 . S
C2634 H2638 0.950 . S
C2634 C2643 1.390 . S
C2635 C2634 1.387 . S
C2635 C2637 1.387 . S
H2636 C2643 0.950 . S
C2637 C2635 1.387 . S
C2637 C2639 1.390 . S
C2637 H2641 0.950 . S
H2638 C2634 0.950 . S
C2639 C2637 1.390 . S
C2639 C2640 1.387 . S
C2639 H2642 0.950 . S
C2640 C2639 1.387 . S
C2640 C2643 1.387 . S
H2641 C2637 0.950 . S
H2642 C2639 0.950 . S
C2643 C2634 1.390 . S
C2643 H2636 0.950 . S
C2643 C2640 1.387 . S
C2644 C2645 1.387 . S
C2644 H2648 0.950 . S
C2644 C2653 1.390 . S
C2645 C2644 1.387 . S
C2645 C2647 1.387 . S
H2646 C2653 0.950 . S
C2647 C2645 1.387 . S
C2647 C2649 1.390 . S
C2647 H2651 0.950 . S
H2648 C2644 0.950 . S
C2649 C2647 1.390 . S
C2649 C2650 1.387 . S
C2649 H2652 0.950 . S
C2650 C2649 1.387 . S
C2650 C2653 1.387 . S
H2651 C2647 0.950 . S
H2652 C2649 0.950 . S
C2653 C2644 1.390 . S
C2653 H2646 0.950 . S
C2653 C2650 1.387 . S
C2654 C2655 1.387 . S
C2654 H2658 0.950 . S
C2654 C2663 1.390 . S
C2655 C2654 1.387 . S
C2655 C2657 1.387 . S
H2656 C2663 0.950 . S
C2657 C2655 1.387 . S
C2657 C2659 1.390 . S
C2657 H2661 0.950 . S
H2658 C2654 0.950 . S
C2659 C2657 1.390 . S
C2659 C2660 1.387 . S
C2659 H2662 0.950 . S
C2660 C2659 1.387 . S
C2660 C2663 1.387 . S
H2661 C2657 0.950 . S
H2662 C2659 0.950 . S
C2663 C2654 1.390 . S
C2663 H2656 0.950 . S
C2663 C2660 1.387 . S
C2664 C2665 1.387 . S
C2664 H2668 0.950 . S
C2664 C2673 1.390 1_554 S
C2665 C2664 1.387 . S
C2665 C2667 1.387 . S
H2666 C2673 0.950 . S
C2667 C2665 1.387 . S
C2667 C2669 1.390 1_554 S
C2667 H2671 0.950 . S
H2668 C2664 0.950 . S
C2669 C2667 1.390 1_556 S
C2669 C2670 1.387 . S
C2669 H2672 0.950 . S
C2670 C2669 1.387 . S
C2670 C2673 1.387 . S
H2671 C2667 0.950 . S
H2672 C2669 0.950 . S
C2673 C2664 1.390 1_556 S
C2673 H2666 0.950 . S
C2673 C2670 1.387 . S
C2674 C2675 1.387 . S
C2674 H2678 0.950 . S
C2674 C2683 1.390 . S
C2675 C2674 1.387 . S
C2675 C2677 1.387 . S
H2676 C2683 0.950 . S
C2677 C2675 1.387 . S
C2677 C2679 1.390 . S
C2677 H2681 0.950 . S
H2678 C2674 0.950 . S
C2679 C2677 1.390 . S
C2679 C2680 1.387 . S
C2679 H2682 0.950 . S
C2680 C2679 1.387 . S
C2680 C2683 1.387 . S
H2681 C2677 0.950 . S
H2682 C2679 0.950 . S
C2683 C2674 1.390 . S
C2683 H2676 0.950 . S
C2683 C2680 1.387 . S
C2684 C2685 1.387 . S
C2684 H2688 0.950 . S
C2684 C2693 1.390 . S
C2685 C2684 1.387 . S
C2685 C2687 1.387 . S
H2686 C2693 0.950 . S
C2687 C2685 1.387 . S
C2687 C2689 1.390 . S
C2687 H2691 0.950 . S
H2688 C2684 0.950 . S
C2689 C2687 1.390 . S
C2689 C2690 1.387 . S
C2689 H2692 0.950 . S
C2690 C2689 1.387 . S
C2690 C2693 1.387 . S
H2691 C2687 0.950 . S
H2692 C2689 0.950 . S
C2693 C2684 1.390 . S
C2693 H2686 0.950 . S
C2693 C2690 1.387 . S
C2694 C2695 1.387 . S
C2694 H2698 0.950 . S
C2694 C2703 1.390 . S
C2695 C2694 1.387 . S
C2695 C2697 1.387 . S
H2696 C2703 0.950 . S
C2697 C2695 1.387 . S
C2697 C2699 1.390 . S
C2697 H2701 0.950 . S
H2698 C2694 0.950 . S
C2699 C2697 1.390 . S
C2699 C2700 1.387 . S
C2699 H2702 0.950 . S
C2700 C2699 1.387 . S
C2700 C2703 1.387 . S
H2701 C2697 0.950 . S
H2702 C2699 0.950 . S
C2703 C2694 1.390 . S
C2703 H2696 0.950 . S
C2703 C2700 1.387 . S
C2704 C2705 1.387 . S
C2704 H2708 0.950 . S
C2704 C2713 1.390 1_556 S
C2705 C2704 1.387 . S
C2705 C2707 1.387 . S
H2706 C2713 0.950 . S
C2707 C2705 1.387 . S
C2707 C2709 1.390 1_556 S
C2707 H2711 0.950 . S
H2708 C2704 0.950 . S
C2709 C2707 1.390 1_554 S
C2709 C2710 1.387 . S
C2709 H2712 0.950 . S
C2710 C2709 1.387 . S
C2710 C2713 1.387 . S
H2711 C2707 0.950 . S
H2712 C2709 0.950 . S
C2713 C2704 1.390 1_554 S
C2713 H2706 0.950 . S
C2713 C2710 1.387 . S
C2714 C2715 1.387 . S
C2714 H2718 0.950 . S
C2714 C2723 1.390 . S
C2715 C2714 1.387 . S
C2715 C2717 1.387 1_455 S
H2716 C2723 0.950 . S
C2717 C2715 1.387 1_655 S
C2717 C2719 1.390 . S
C2717 H2721 0.950 . S
H2718 C2714 0.950 . S
C2719 C2717 1.390 . S
C2719 C2720 1.387 1_655 S
C2719 H2722 0.950 . S
C2720 C2719 1.387 1_455 S
C2720 C2723 1.387 . S
H2721 C2717 0.950 . S
H2722 C2719 0.950 . S
C2723 C2714 1.390 . S
C2723 H2716 0.950 . S
C2723 C2720 1.387 . S
C2724 C2725 1.387 . S
C2724 H2728 0.950 . S
C2724 C2733 1.390 . S
C2725 C2724 1.387 . S
C2725 C2727 1.387 . S
H2726 C2733 0.950 . S
C2727 C2725 1.387 . S
C2727 C2729 1.390 . S
C2727 H2731 0.950 . S
H2728 C2724 0.950 . S
C2729 C2727 1.390 . S
C2729 C2730 1.387 . S
C2729 H2732 0.950 . S
C2730 C2729 1.387 . S
C2730 C2733 1.387 . S
H2731 C2727 0.950 . S
H2732 C2729 0.950 . S
C2733 C2724 1.390 . S
C2733 H2726 0.950 . S
C2733 C2730 1.387 . S
C2734 C2735 1.387 . S
C2734 H2738 0.950 . S
C2734 C2743 1.390 . S
C2735 C2734 1.387 . S
C2735 C2737 1.387 . S
H2736 C2743 0.950 . S
C2737 C2735 1.387 . S
C2737 C2739 1.390 . S
C2737 H2741 0.950 . S
H2738 C2734 0.950 . S
C2739 C2737 1.390 . S
C2739 C2740 1.387 . S
C2739 H2742 0.950 . S
C2740 C2739 1.387 . S
C2740 C2743 1.387 . S
H2741 C2737 0.950 . S
H2742 C2739 0.950 . S
C2743 C2734 1.390 . S
C2743 H2736 0.950 . S
C2743 C2740 1.387 . S
C2744 C2745 1.387 . S
C2744 H2748 0.950 . S
C2744 C2753 1.390 . S
C2745 C2744 1.387 . S
C2745 C2747 1.387 . S
H2746 C2753 0.950 . S
C2747 C2745 1.387 . S
C2747 C2749 1.390 . S
C2747 H2751 0.950 . S
H2748 C2744 0.950 . S
C2749 C2747 1.390 . S
C2749 C2750 1.387 . S
C2749 H2752 0.950 . S
C2750 C2749 1.387 . S
C2750 C2753 1.387 . S
H2751 C2747 0.950 . S
H2752 C2749 0.950 . S
C2753 C2744 1.390 . S
C2753 H2746 0.950 . S
C2753 C2750 1.387 . S
C2754 C2755 1.387 . S
C2754 H2758 0.950 . S
C2754 C2763 1.390 1_556 S
C2755 C2754 1.387 . S
C2755 C2757 1.387 . S
H2756 C2763 0.950 . S
C2757 C2755 1.387 . S
C2757 C2759 1.390 1_556 S
C2757 H2761 0.950 . S
H2758 C2754 0.950 . S
C2759 C2757 1.390 1_554 S
C2759 C2760 1.387 . S
C2759 H2762 0.950 . S
C2760 C2759 1.387 . S
C2760 C2763 1.387 . S
H2761 C2757 0.950 . S
H2762 C2759 0.950 . S
C2763 C2754 1.390 1_554 S
C2763 H2756 0.950 . S
C2763 C2760 1.387 . S
C2764 C2765 1.387 . S
C2764 H2768 0.950 . S
C2764 C2773 1.390 . S
C2765 C2764 1.387 . S
C2765 C2767 1.387 . S
H2766 C2773 0.950 . S
C2767 C2765 1.387 . S
C2767 C2769 1.390 . S
C2767 H2771 0.950 . S
H2768 C2764 0.950 . S
C2769 C2767 1.390 . S
C2769 C2770 1.387 . S
C2769 H2772 0.950 . S
C2770 C2769 1.387 . S
C2770 C2773 1.387 . S
H2771 C2767 0.950 . S
H2772 C2769 0.950 . S
C2773 C2764 1.390 . S
C2773 H2766 0.950 . S
C2773 C2770 1.387 . S
C2774 C2775 1.387 . S
C2774 H2778 0.950 . S
C2774 C2783 1.390 . S
C2775 C2774 1.387 . S
C2775 C2777 1.387 . S
H2776 C2783 0.950 . S
C2777 C2775 1.387 . S
C2777 C2779 1.390 . S
C2777 H2781 0.950 . S
H2778 C2774 0.950 . S
C2779 C2777 1.390 . S
C2779 C2780 1.387 . S
C2779 H2782 0.950 . S
C2780 C2779 1.387 . S
C2780 C2783 1.387 . S
H2781 C2777 0.950 . S
H2782 C2779 0.950 . S
C2783 C2774 1.390 . S
C2783 H2776 0.950 . S
C2783 C2780 1.387 . S
C2784 C2785 1.387 . S
C2784 H2788 0.950 . S
C2784 C2793 1.390 . S
C2785 C2784 1.387 . S
C2785 C2787 1.387 . S
H2786 C2793 0.950 . S
C2787 C2785 1.387 . S
C2787 C2789 1.390 . S
C2787 H2791 0.950 . S
H2788 C2784 0.950 . S
C2789 C2787 1.390 . S
C2789 C2790 1.387 . S
C2789 H2792 0.950 . S
C2790 C2789 1.387 . S
C2790 C2793 1.387 . S
H2791 C2787 0.950 . S
H2792 C2789 0.950 . S
C2793 C2784 1.390 . S
C2793 H2786 0.950 . S
C2793 C2790 1.387 . S
C2794 C2795 1.387 . S
C2794 H2798 0.950 . S
C2794 C2803 1.390 . S
C2795 C2794 1.387 . S
C2795 C2797 1.387 . S
H2796 C2803 0.950 . S
C2797 C2795 1.387 . S
C2797 C2799 1.390 . S
C2797 H2801 0.950 . S
H2798 C2794 0.950 . S
C2799 C2797 1.390 . S
C2799 C2800 1.387 . S
C2799 H2802 0.950 . S
C2800 C2799 1.387 . S
C2800 C2803 1.387 . S
H2801 C2797 0.950 . S
H2802 C2799 0.950 . S
C2803 C2794 1.390 . S
C2803 H2796 0.950 . S
C2803 C2800 1.387 . S
C2804 C2805 1.387 . S
C2804 H2808 0.950 . S
C2804 C2813 1.390 . S
C2805 C2804 1.387 . S
C2805 C2807 1.387 . S
H2806 C2813 0.950 . S
C2807 C2805 1.387 . S
C2807 C2809 1.390 . S
C2807 H2811 0.950 . S
H2808 C2804 0.950 . S
C2809 C2807 1.390 . S
C2809 C2810 1.387 . S
C2809 H2812 0.950 . S
C2810 C2809 1.387 . S
C2810 C2813 1.387 . S
H2811 C2807 0.950 . S
H2812 C2809 0.950 . S
C2813 C2804 1.390 . S
C2813 H2806 0.950 . S
C2813 C2810 1.387 . S
C2814 C2815 1.387 . S
C2814 H2818 0.950 . S
C2814 C2823 1.390 . S
C2815 C2814 1.387 . S
C2815 C2817 1.387 . S
H2816 C2823 0.950 . S
C2817 C2815 1.387 . S
C2817 C2819 1.390 . S
C2817 H2821 0.950 . S
H2818 C2814 0.950 . S
C2819 C2817 1.390 . S
C2819 C2820 1.387 . S
C2819 H2822 0.950 . S
C2820 C2819 1.387 . S
C2820 C2823 1.387 . S
H2821 C2817 0.950 . S
H2822 C2819 0.950 . S
C2823 C2814 1.390 . S
C2823 H2816 0.950 . S
C2823 C2820 1.387 . S
C2824 C2825 1.387 . S
C2824 H2828 0.950 . S
C2824 C2833 1.390 . S
C2825 C2824 1.387 . S
C2825 C2827 1.387 . S
H2826 C2833 0.950 . S
C2827 C2825 1.387 . S
C2827 C2829 1.390 . S
C2827 H2831 0.950 . S
H2828 C2824 0.950 . S
C2829 C2827 1.390 . S
C2829 C2830 1.387 . S
C2829 H2832 0.950 . S
C2830 C2829 1.387 . S
C2830 C2833 1.387 . S
H2831 C2827 0.950 . S
H2832 C2829 0.950 . S
C2833 C2824 1.390 . S
C2833 H2826 0.950 . S
C2833 C2830 1.387 . S
C2834 C2835 1.387 . S
C2834 H2838 0.950 . S
C2834 C2843 1.390 . S
C2835 C2834 1.387 . S
C2835 C2837 1.387 . S
H2836 C2843 0.950 . S
C2837 C2835 1.387 . S
C2837 C2839 1.390 . S
C2837 H2841 0.950 . S
H2838 C2834 0.950 . S
C2839 C2837 1.390 . S
C2839 C2840 1.387 . S
C2839 H2842 0.950 . S
C2840 C2839 1.387 . S
C2840 C2843 1.387 . S
H2841 C2837 0.950 . S
H2842 C2839 0.950 . S
C2843 C2834 1.390 . S
C2843 H2836 0.950 . S
C2843 C2840 1.387 . S
C2844 C2845 1.387 . S
C2844 H2848 0.950 . S
C2844 C2853 1.390 . S
C2845 C2844 1.387 . S
C2845 C2847 1.387 . S
H2846 C2853 0.950 . S
C2847 C2845 1.387 . S
C2847 C2849 1.390 . S
C2847 H2851 0.950 . S
H2848 C2844 0.950 . S
C2849 C2847 1.390 . S
C2849 C2850 1.387 . S
C2849 H2852 0.950 . S
C2850 C2849 1.387 . S
C2850 C2853 1.387 . S
H2851 C2847 0.950 . S
H2852 C2849 0.950 . S
C2853 C2844 1.390 . S
C2853 H2846 0.950 . S
C2853 C2850 1.387 . S
C2854 C2855 1.387 . S
C2854 H2858 0.950 . S
C2854 C2863 1.390 . S
C2855 C2854 1.387 . S
C2855 C2857 1.387 . S
H2856 C2863 0.950 . S
C2857 C2855 1.387 . S
C2857 C2859 1.390 . S
C2857 H2861 0.950 . S
H2858 C2854 0.950 . S
C2859 C2857 1.390 . S
C2859 C2860 1.387 . S
C2859 H2862 0.950 . S
C2860 C2859 1.387 . S
C2860 C2863 1.387 . S
H2861 C2857 0.950 . S
H2862 C2859 0.950 . S
C2863 C2854 1.390 . S
C2863 H2856 0.950 . S
C2863 C2860 1.387 . S
C2864 C2865 1.387 . S
C2864 H2868 0.950 . S
C2864 C2873 1.390 . S
C2865 C2864 1.387 . S
C2865 C2867 1.387 . S
H2866 C2873 0.950 . S
C2867 C2865 1.387 . S
C2867 C2869 1.390 . S
C2867 H2871 0.950 . S
H2868 C2864 0.950 . S
C2869 C2867 1.390 . S
C2869 C2870 1.387 . S
C2869 H2872 0.950 . S
C2870 C2869 1.387 . S
C2870 C2873 1.387 . S
H2871 C2867 0.950 . S
H2872 C2869 0.950 . S
C2873 C2864 1.390 . S
C2873 H2866 0.950 . S
C2873 C2870 1.387 . S
C2874 C2875 1.387 . S
C2874 H2878 0.950 . S
C2874 C2883 1.390 . S
C2875 C2874 1.387 . S
C2875 C2877 1.387 . S
H2876 C2883 0.950 . S
C2877 C2875 1.387 . S
C2877 C2879 1.390 . S
C2877 H2881 0.950 . S
H2878 C2874 0.950 . S
C2879 C2877 1.390 . S
C2879 C2880 1.387 . S
C2879 H2882 0.950 . S
C2880 C2879 1.387 . S
C2880 C2883 1.387 . S
H2881 C2877 0.950 . S
H2882 C2879 0.950 . S
C2883 C2874 1.390 . S
C2883 H2876 0.950 . S
C2883 C2880 1.387 . S
C2884 C2885 1.387 . S
C2884 H2888 0.950 . S
C2884 C2893 1.390 . S
C2885 C2884 1.387 . S
C2885 C2887 1.387 . S
H2886 C2893 0.950 . S
C2887 C2885 1.387 . S
C2887 C2889 1.390 . S
C2887 H2891 0.950 . S
H2888 C2884 0.950 . S
C2889 C2887 1.390 . S
C2889 C2890 1.387 . S
C2889 H2892 0.950 . S
C2890 C2889 1.387 . S
C2890 C2893 1.387 . S
H2891 C2887 0.950 . S
H2892 C2889 0.950 . S
C2893 C2884 1.390 . S
C2893 H2886 0.950 . S
C2893 C2890 1.387 . S
C2894 C2895 1.387 . S
C2894 H2898 0.950 . S
C2894 C2903 1.390 . S
C2895 C2894 1.387 . S
C2895 C2897 1.387 . S
H2896 C2903 0.950 . S
C2897 C2895 1.387 . S
C2897 C2899 1.390 . S
C2897 H2901 0.950 . S
H2898 C2894 0.950 . S
C2899 C2897 1.390 . S
C2899 C2900 1.387 . S
C2899 H2902 0.950 . S
C2900 C2899 1.387 . S
C2900 C2903 1.387 . S
H2901 C2897 0.950 . S
H2902 C2899 0.950 . S
C2903 C2894 1.390 . S
C2903 H2896 0.950 . S
C2903 C2900 1.387 . S
C2904 C2905 1.387 . S
C2904 H2908 0.950 . S
C2904 C2913 1.390 . S
C2905 C2904 1.387 . S
C2905 C2907 1.387 . S
H2906 C2913 0.950 . S
C2907 C2905 1.387 . S
C2907 C2909 1.390 . S
C2907 H2911 0.950 . S
H2908 C2904 0.950 . S
C2909 C2907 1.390 . S
C2909 C2910 1.387 . S
C2909 H2912 0.950 . S
C2910 C2909 1.387 . S
C2910 C2913 1.387 . S
H2911 C2907 0.950 . S
H2912 C2909 0.950 . S
C2913 C2904 1.390 . S
C2913 H2906 0.950 . S
C2913 C2910 1.387 . S
C2914 C2915 1.387 . S
C2914 H2918 0.950 . S
C2914 C2923 1.390 . S
C2915 C2914 1.387 . S
C2915 C2917 1.387 . S
H2916 C2923 0.950 . S
C2917 C2915 1.387 . S
C2917 C2919 1.390 . S
C2917 H2921 0.950 . S
H2918 C2914 0.950 . S
C2919 C2917 1.390 . S
C2919 C2920 1.387 . S
C2919 H2922 0.950 . S
C2920 C2919 1.387 . S
C2920 C2923 1.387 . S
H2921 C2917 0.950 . S
H2922 C2919 0.950 . S
C2923 C2914 1.390 . S
C2923 H2916 0.950 . S
C2923 C2920 1.387 . S
C2924 C2925 1.387 . S
C2924 H2928 0.950 . S
C2924 C2933 1.390 . S
C2925 C2924 1.387 . S
C2925 C2927 1.387 . S
H2926 C2933 0.950 . S
C2927 C2925 1.387 . S
C2927 C2929 1.390 . S
C2927 H2931 0.950 . S
H2928 C2924 0.950 . S
C2929 C2927 1.390 . S
C2929 C2930 1.387 . S
C2929 H2932 0.950 . S
C2930 C2929 1.387 . S
C2930 C2933 1.387 . S
H2931 C2927 0.950 . S
H2932 C2929 0.950 . S
C2933 C2924 1.390 . S
C2933 H2926 0.950 . S
C2933 C2930 1.387 . S
C2934 C2935 1.387 . S
C2934 H2938 0.950 . S
C2934 C2943 1.390 . S
C2935 C2934 1.387 . S
C2935 C2937 1.387 . S
H2936 C2943 0.950 . S
C2937 C2935 1.387 . S
C2937 C2939 1.390 . S
C2937 H2941 0.950 . S
H2938 C2934 0.950 . S
C2939 C2937 1.390 . S
C2939 C2940 1.387 . S
C2939 H2942 0.950 . S
C2940 C2939 1.387 . S
C2940 C2943 1.387 . S
H2941 C2937 0.950 . S
H2942 C2939 0.950 . S
C2943 C2934 1.390 . S
C2943 H2936 0.950 . S
C2943 C2940 1.387 . S
C2944 C2945 1.387 . S
C2944 H2948 0.950 . S
C2944 C2953 1.390 . S
C2945 C2944 1.387 . S
C2945 C2947 1.387 . S
H2946 C2953 0.950 . S
C2947 C2945 1.387 . S
C2947 C2949 1.390 . S
C2947 H2951 0.950 . S
H2948 C2944 0.950 . S
C2949 C2947 1.390 . S
C2949 C2950 1.387 . S
C2949 H2952 0.950 . S
C2950 C2949 1.387 . S
C2950 C2953 1.387 . S
H2951 C2947 0.950 . S
H2952 C2949 0.950 . S
C2953 C2944 1.390 . S
C2953 H2946 0.950 . S
C2953 C2950 1.387 . S
C2954 C2955 1.387 . S
C2954 H2958 0.950 . S
C2954 C2963 1.390 . S
C2955 C2954 1.387 . S
C2955 C2957 1.387 . S
H2956 C2963 0.950 . S
C2957 C2955 1.387 . S
C2957 C2959 1.390 . S
C2957 H2961 0.950 . S
H2958 C2954 0.950 . S
C2959 C2957 1.390 . S
C2959 C2960 1.387 . S
C2959 H2962 0.950 . S
C2960 C2959 1.387 . S
C2960 C2963 1.387 . S
H2961 C2957 0.950 . S
H2962 C2959 0.950 . S
C2963 C2954 1.390 . S
C2963 H2956 0.950 . S
C2963 C2960 1.387 . S
C2964 C2965 1.387 . S
C2964 H2968 0.950 . S
C2964 C2973 1.390 . S
C2965 C2964 1.387 . S
C2965 C2967 1.387 . S
H2966 C2973 0.950 . S
C2967 C2965 1.387 . S
C2967 C2969 1.390 . S
C2967 H2971 0.950 . S
H2968 C2964 0.950 . S
C2969 C2967 1.390 . S
C2969 C2970 1.387 . S
C2969 H2972 0.950 . S
C2970 C2969 1.387 . S
C2970 C2973 1.387 . S
H2971 C2967 0.950 . S
H2972 C2969 0.950 . S
C2973 C2964 1.390 . S
C2973 H2966 0.950 . S
C2973 C2970 1.387 . S
C2974 C2975 1.387 . S
C2974 H2978 0.950 . S
C2974 C2983 1.390 . S
C2975 C2974 1.387 . S
C2975 C2977 1.387 . S
H2976 C2983 0.950 . S
C2977 C2975 1.387 . S
C2977 C2979 1.390 . S
C2977 H2981 0.950 . S
H2978 C2974 0.950 . S
C2979 C2977 1.390 . S
C2979 C2980 1.387 . S
C2979 H2982 0.950 . S
C2980 C2979 1.387 . S
C2980 C2983 1.387 . S
H2981 C2977 0.950 . S
H2982 C2979 0.950 . S
C2983 C2974 1.390 . S
C2983 H2976 0.950 . S
C2983 C2980 1.387 . S
C2984 C2985 1.387 . S
C2984 H2988 0.950 . S
C2984 C2993 1.390 . S
C2985 C2984 1.387 . S
C2985 C2987 1.387 . S
H2986 C2993 0.950 . S
C2987 C2985 1.387 . S
C2987 C2989 1.390 . S
C2987 H2991 0.950 . S
H2988 C2984 0.950 . S
C2989 C2987 1.390 . S
C2989 C2990 1.387 . S
C2989 H2992 0.950 . S
C2990 C2989 1.387 . S
C2990 C2993 1.387 . S
H2991 C2987 0.950 . S
H2992 C2989 0.950 . S
C2993 C2984 1.390 . S
C2993 H2986 0.950 . S
C2993 C2990 1.387 . S
C2994 C2995 1.387 . S
C2994 H2998 0.950 . S
C2994 C3003 1.390 . S
C2995 C2994 1.387 . S
C2995 C2997 1.387 . S
H2996 C3003 0.950 . S
C2997 C2995 1.387 . S
C2997 C2999 1.390 . S
C2997 H3001 0.950 . S
H2998 C2994 0.950 . S
C2999 C2997 1.390 . S
C2999 C3000 1.387 . S
C2999 H3002 0.950 . S
C3000 C2999 1.387 . S
C3000 C3003 1.387 . S
H3001 C2997 0.950 . S
H3002 C2999 0.950 . S
C3003 C2994 1.390 . S
C3003 H2996 0.950 . S
C3003 C3000 1.387 . S
C3004 C3005 1.387 . S
C3004 H3008 0.950 . S
C3004 C3013 1.390 . S
C3005 C3004 1.387 . S
C3005 C3007 1.387 . S
H3006 C3013 0.950 . S
C3007 C3005 1.387 . S
C3007 C3009 1.390 . S
C3007 H3011 0.950 . S
H3008 C3004 0.950 . S
C3009 C3007 1.390 . S
C3009 C3010 1.387 . S
C3009 H3012 0.950 . S
C3010 C3009 1.387 . S
C3010 C3013 1.387 . S
H3011 C3007 0.950 . S
H3012 C3009 0.950 . S
C3013 C3004 1.390 . S
C3013 H3006 0.950 . S
C3013 C3010 1.387 . S
C3014 C3015 1.387 . S
C3014 H3018 0.950 . S
C3014 C3023 1.390 . S
C3015 C3014 1.387 . S
C3015 C3017 1.387 . S
H3016 C3023 0.950 . S
C3017 C3015 1.387 . S
C3017 C3019 1.390 . S
C3017 H3021 0.950 . S
H3018 C3014 0.950 . S
C3019 C3017 1.390 . S
C3019 C3020 1.387 . S
C3019 H3022 0.950 . S
C3020 C3019 1.387 . S
C3020 C3023 1.387 . S
H3021 C3017 0.950 . S
H3022 C3019 0.950 . S
C3023 C3014 1.390 . S
C3023 H3016 0.950 . S
C3023 C3020 1.387 . S
C3024 C3025 1.387 . S
C3024 H3028 0.950 . S
C3024 C3033 1.390 . S
C3025 C3024 1.387 . S
C3025 C3027 1.387 . S
H3026 C3033 0.950 . S
C3027 C3025 1.387 . S
C3027 C3029 1.390 . S
C3027 H3031 0.950 . S
H3028 C3024 0.950 . S
C3029 C3027 1.390 . S
C3029 C3030 1.387 . S
C3029 H3032 0.950 . S
C3030 C3029 1.387 . S
C3030 C3033 1.387 . S
H3031 C3027 0.950 . S
H3032 C3029 0.950 . S
C3033 C3024 1.390 . S
C3033 H3026 0.950 . S
C3033 C3030 1.387 . S
C3034 C3035 1.387 . S
C3034 H3038 0.950 . S
C3034 C3043 1.390 . S
C3035 C3034 1.387 . S
C3035 C3037 1.387 . S
H3036 C3043 0.950 . S
C3037 C3035 1.387 . S
C3037 C3039 1.390 . S
C3037 H3041 0.950 . S
H3038 C3034 0.950 . S
C3039 C3037 1.390 . S
C3039 C3040 1.387 . S
C3039 H3042 0.950 . S
C3040 C3039 1.387 . S
C3040 C3043 1.387 . S
H3041 C3037 0.950 . S
H3042 C3039 0.950 . S
C3043 C3034 1.390 . S
C3043 H3036 0.950 . S
C3043 C3040 1.387 . S
C3044 C3045 1.387 . S
C3044 H3048 0.950 . S
C3044 C3053 1.390 . S
C3045 C3044 1.387 . S
C3045 C3047 1.387 . S
H3046 C3053 0.950 . S
C3047 C3045 1.387 . S
C3047 C3049 1.390 . S
C3047 H3051 0.950 . S
H3048 C3044 0.950 . S
C3049 C3047 1.390 . S
C3049 C3050 1.387 . S
C3049 H3052 0.950 . S
C3050 C3049 1.387 . S
C3050 C3053 1.387 . S
H3051 C3047 0.950 . S
H3052 C3049 0.950 . S
C3053 C3044 1.390 . S
C3053 H3046 0.950 . S
C3053 C3050 1.387 . S
C3054 C3055 1.387 . S
C3054 H3058 0.950 . S
C3054 C3063 1.390 . S
C3055 C3054 1.387 . S
C3055 C3057 1.387 . S
H3056 C3063 0.950 . S
C3057 C3055 1.387 . S
C3057 C3059 1.390 . S
C3057 H3061 0.950 . S
H3058 C3054 0.950 . S
C3059 C3057 1.390 . S
C3059 C3060 1.387 . S
C3059 H3062 0.950 . S
C3060 C3059 1.387 . S
C3060 C3063 1.387 . S
H3061 C3057 0.950 . S
H3062 C3059 0.950 . S
C3063 C3054 1.390 . S
C3063 H3056 0.950 . S
C3063 C3060 1.387 . S
C3064 C3065 1.387 . S
C3064 H3068 0.950 . S
C3064 C3073 1.390 . S
C3065 C3064 1.387 . S
C3065 C3067 1.387 . S
H3066 C3073 0.950 . S
C3067 C3065 1.387 . S
C3067 C3069 1.390 . S
C3067 H3071 0.950 . S
H3068 C3064 0.950 . S
C3069 C3067 1.390 . S
C3069 C3070 1.387 . S
C3069 H3072 0.950 . S
C3070 C3069 1.387 . S
C3070 C3073 1.387 . S
H3071 C3067 0.950 . S
H3072 C3069 0.950 . S
C3073 C3064 1.390 . S
C3073 H3066 0.950 . S
C3073 C3070 1.387 . S
C3074 C3075 1.387 . S
C3074 H3078 0.950 . S
C3074 C3083 1.390 . S
C3075 C3074 1.387 . S
C3075 C3077 1.387 . S
H3076 C3083 0.950 . S
C3077 C3075 1.387 . S
C3077 C3079 1.390 . S
C3077 H3081 0.950 . S
H3078 C3074 0.950 . S
C3079 C3077 1.390 . S
C3079 C3080 1.387 . S
C3079 H3082 0.950 . S
C3080 C3079 1.387 . S
C3080 C3083 1.387 . S
H3081 C3077 0.950 . S
H3082 C3079 0.950 . S
C3083 C3074 1.390 . S
C3083 H3076 0.950 . S
C3083 C3080 1.387 . S
C3084 C3085 1.387 . S
C3084 H3088 0.950 . S
C3084 C3093 1.390 . S
C3085 C3084 1.387 . S
C3085 C3087 1.387 . S
H3086 C3093 0.950 . S
C3087 C3085 1.387 . S
C3087 C3089 1.390 . S
C3087 H3091 0.950 . S
H3088 C3084 0.950 . S
C3089 C3087 1.390 . S
C3089 C3090 1.387 . S
C3089 H3092 0.950 . S
C3090 C3089 1.387 . S
C3090 C3093 1.387 . S
H3091 C3087 0.950 . S
H3092 C3089 0.950 . S
C3093 C3084 1.390 . S
C3093 H3086 0.950 . S
C3093 C3090 1.387 . S
C3094 C3095 1.387 . S
C3094 H3098 0.950 . S
C3094 C3103 1.390 . S
C3095 C3094 1.387 . S
C3095 C3097 1.387 . S
H3096 C3103 0.950 . S
C3097 C3095 1.387 . S
C3097 C3099 1.390 . S
C3097 H3101 0.950 . S
H3098 C3094 0.950 . S
C3099 C3097 1.390 . S
C3099 C3100 1.387 . S
C3099 H3102 0.950 . S
C3100 C3099 1.387 . S
C3100 C3103 1.387 . S
H3101 C3097 0.950 . S
H3102 C3099 0.950 . S
C3103 C3094 1.390 . S
C3103 H3096 0.950 . S
C3103 C3100 1.387 . S
C3104 C3105 1.387 . S
C3104 H3108 0.950 . S
C3104 C3113 1.390 . S
C3105 C3104 1.387 . S
C3105 C3107 1.387 . S
H3106 C3113 0.950 . S
C3107 C3105 1.387 . S
C3107 C3109 1.390 . S
C3107 H3111 0.950 . S
H3108 C3104 0.950 . S
C3109 C3107 1.390 . S
C3109 C3110 1.387 . S
C3109 H3112 0.950 . S
C3110 C3109 1.387 . S
C3110 C3113 1.387 . S
H3111 C3107 0.950 . S
H3112 C3109 0.950 . S
C3113 C3104 1.390 . S
C3113 H3106 0.950 . S
C3113 C3110 1.387 . S
C3114 C3115 1.387 . S
C3114 H3118 0.950 . S
C3114 C3123 1.390 . S
C3115 C3114 1.387 . S
C3115 C3117 1.387 . S
H3116 C3123 0.950 . S
C3117 C3115 1.387 . S
C3117 C3119 1.390 . S
C3117 H3121 0.950 . S
H3118 C3114 0.950 . S
C3119 C3117 1.390 . S
C3119 C3120 1.387 . S
C3119 H3122 0.950 . S
C3120 C3119 1.387 . S
C3120 C3123 1.387 . S
H3121 C3117 0.950 . S
H3122 C3119 0.950 . S
C3123 C3114 1.390 . S
C3123 H3116 0.950 . S
C3123 C3120 1.387 . S
C3124 C3125 1.387 . S
C3124 H3128 0.950 . S
C3124 C3133 1.390 . S
C3125 C3124 1.387 . S
C3125 C3127 1.387 . S
H3126 C3133 0.950 . S
C3127 C3125 1.387 . S
C3127 C3129 1.390 . S
C3127 H3131 0.950 . S
H3128 C3124 0.950 . S
C3129 C3127 1.390 . S
C3129 C3130 1.387 . S
C3129 H3132 0.950 . S
C3130 C3129 1.387 . S
C3130 C3133 1.387 . S
H3131 C3127 0.950 . S
H3132 C3129 0.950 . S
C3133 C3124 1.390 . S
C3133 H3126 0.950 . S
C3133 C3130 1.387 . S
C3134 C3135 1.387 . S
C3134 H3138 0.950 . S
C3134 C3143 1.390 . S
C3135 C3134 1.387 . S
C3135 C3137 1.387 . S
H3136 C3143 0.950 . S
C3137 C3135 1.387 . S
C3137 C3139 1.390 . S
C3137 H3141 0.950 . S
H3138 C3134 0.950 . S
C3139 C3137 1.390 . S
C3139 C3140 1.387 . S
C3139 H3142 0.950 . S
C3140 C3139 1.387 . S
C3140 C3143 1.387 . S
H3141 C3137 0.950 . S
H3142 C3139 0.950 . S
C3143 C3134 1.390 . S
C3143 H3136 0.950 . S
C3143 C3140 1.387 . S
C3144 C3145 1.387 . S
C3144 H3148 0.950 . S
C3144 C3153 1.390 . S
C3145 C3144 1.387 . S
C3145 C3147 1.387 . S
H3146 C3153 0.950 . S
C3147 C3145 1.387 . S
C3147 C3149 1.390 . S
C3147 H3151 0.950 . S
H3148 C3144 0.950 . S
C3149 C3147 1.390 . S
C3149 C3150 1.387 . S
C3149 H3152 0.950 . S
C3150 C3149 1.387 . S
C3150 C3153 1.387 . S
H3151 C3147 0.950 . S
H3152 C3149 0.950 . S
C3153 C3144 1.390 . S
C3153 H3146 0.950 . S
C3153 C3150 1.387 . S
C3154 C3155 1.387 . S
C3154 H3158 0.950 . S
C3154 C3163 1.390 . S
C3155 C3154 1.387 . S
C3155 C3157 1.387 . S
H3156 C3163 0.950 . S
C3157 C3155 1.387 . S
C3157 C3159 1.390 . S
C3157 H3161 0.950 . S
H3158 C3154 0.950 . S
C3159 C3157 1.390 . S
C3159 C3160 1.387 . S
C3159 H3162 0.950 . S
C3160 C3159 1.387 . S
C3160 C3163 1.387 . S
H3161 C3157 0.950 . S
H3162 C3159 0.950 . S
C3163 C3154 1.390 . S
C3163 H3156 0.950 . S
C3163 C3160 1.387 . S
C3164 C3165 1.387 . S
C3164 H3168 0.950 . S
C3164 C3173 1.390 . S
C3165 C3164 1.387 . S
C3165 C3167 1.387 . S
H3166 C3173 0.950 . S
C3167 C3165 1.387 . S
C3167 C3169 1.390 . S
C3167 H3171 0.950 . S
H3168 C3164 0.950 . S
C3169 C3167 1.390 . S
C3169 C3170 1.387 . S
C3169 H3172 0.950 . S
C3170 C3169 1.387 . S
C3170 C3173 1.387 . S
H3171 C3167 0.950 . S
H3172 C3169 0.950 . S
C3173 C3164 1.390 . S
C3173 H3166 0.950 . S
C3173 C3170 1.387 . S
C3174 C3175 1.387 . S
C3174 H3178 0.950 . S
C3174 C3183 1.390 . S
C3175 C3174 1.387 . S
C3175 C3177 1.387 . S
H3176 C3183 0.950 . S
C3177 C3175 1.387 . S
C3177 C3179 1.390 . S
C3177 H3181 0.950 . S
H3178 C3174 0.950 . S
C3179 C3177 1.390 . S
C3179 C3180 1.387 . S
C3179 H3182 0.950 . S
C3180 C3179 1.387 . S
C3180 C3183 1.387 . S
H3181 C3177 0.950 . S
H3182 C3179 0.950 . S
C3183 C3174 1.390 . S
C3183 H3176 0.950 . S
C3183 C3180 1.387 . S
C3184 C3185 1.387 . S
C3184 H3188 0.950 . S
C3184 C3193 1.390 . S
C3185 C3184 1.387 . S
C3185 C3187 1.387 . S
H3186 C3193 0.950 . S
C3187 C3185 1.387 . S
C3187 C3189 1.390 . S
C3187 H3191 0.950 . S
H3188 C3184 0.950 . S
C3189 C3187 1.390 . S
C3189 C3190 1.387 . S
C3189 H3192 0.950 . S
C3190 C3189 1.387 . S
C3190 C3193 1.387 . S
H3191 C3187 0.950 . S
H3192 C3189 0.950 . S
C3193 C3184 1.390 . S
C3193 H3186 0.950 . S
C3193 C3190 1.387 . S
C3194 C3195 1.387 . S
C3194 H3198 0.950 . S
C3194 C3203 1.390 . S
C3195 C3194 1.387 . S
C3195 C3197 1.387 . S
H3196 C3203 0.950 . S
C3197 C3195 1.387 . S
C3197 C3199 1.390 . S
C3197 H3201 0.950 . S
H3198 C3194 0.950 . S
C3199 C3197 1.390 . S
C3199 C3200 1.387 . S
C3199 H3202 0.950 . S
C3200 C3199 1.387 . S
C3200 C3203 1.387 . S
H3201 C3197 0.950 . S
H3202 C3199 0.950 . S
C3203 C3194 1.390 . S
C3203 H3196 0.950 . S
C3203 C3200 1.387 . S
C3204 C3205 1.387 . S
C3204 H3208 0.950 . S
C3204 C3213 1.390 . S
C3205 C3204 1.387 . S
C3205 C3207 1.387 . S
H3206 C3213 0.950 . S
C3207 C3205 1.387 . S
C3207 C3209 1.390 . S
C3207 H3211 0.950 . S
H3208 C3204 0.950 . S
C3209 C3207 1.390 . S
C3209 C3210 1.387 . S
C3209 H3212 0.950 . S
C3210 C3209 1.387 . S
C3210 C3213 1.387 . S
H3211 C3207 0.950 . S
H3212 C3209 0.950 . S
C3213 C3204 1.390 . S
C3213 H3206 0.950 . S
C3213 C3210 1.387 . S
C3214 C3215 1.387 . S
C3214 H3218 0.950 . S
C3214 C3223 1.390 . S
C3215 C3214 1.387 . S
C3215 C3217 1.387 . S
H3216 C3223 0.950 . S
C3217 C3215 1.387 . S
C3217 C3219 1.390 . S
C3217 H3221 0.950 . S
H3218 C3214 0.950 . S
C3219 C3217 1.390 . S
C3219 C3220 1.387 . S
C3219 H3222 0.950 . S
C3220 C3219 1.387 . S
C3220 C3223 1.387 . S
H3221 C3217 0.950 . S
H3222 C3219 0.950 . S
C3223 C3214 1.390 . S
C3223 H3216 0.950 . S
C3223 C3220 1.387 . S
C3224 C3225 1.387 . S
C3224 H3228 0.950 . S
C3224 C3233 1.390 . S
C3225 C3224 1.387 . S
C3225 C3227 1.387 . S
H3226 C3233 0.950 . S
C3227 C3225 1.387 . S
C3227 C3229 1.390 . S
C3227 H3231 0.950 . S
H3228 C3224 0.950 . S
C3229 C3227 1.390 . S
C3229 C3230 1.387 . S
C3229 H3232 0.950 . S
C3230 C3229 1.387 . S
C3230 C3233 1.387 . S
H3231 C3227 0.950 . S
H3232 C3229 0.950 . S
C3233 C3224 1.390 . S
C3233 H3226 0.950 . S
C3233 C3230 1.387 . S
C3234 C3235 1.387 . S
C3234 H3238 0.950 . S
C3234 C3243 1.390 . S
C3235 C3234 1.387 . S
C3235 C3237 1.387 . S
H3236 C3243 0.950 . S
C3237 C3235 1.387 . S
C3237 C3239 1.390 . S
C3237 H3241 0.950 . S
H3238 C3234 0.950 . S
C3239 C3237 1.390 . S
C3239 C3240 1.387 . S
C3239 H3242 0.950 . S
C3240 C3239 1.387 . S
C3240 C3243 1.387 . S
H3241 C3237 0.950 . S
H3242 C3239 0.950 . S
C3243 C3234 1.390 . S
C3243 H3236 0.950 . S
C3243 C3240 1.387 . S
C3244 C3245 1.387 . S
C3244 H3248 0.950 . S
C3244 C3253 1.390 . S
C3245 C3244 1.387 . S
C3245 C3247 1.387 . S
H3246 C3253 0.950 . S
C3247 C3245 1.387 . S
C3247 C3249 1.390 . S
C3247 H3251 0.950 . S
H3248 C3244 0.950 . S
C3249 C3247 1.390 . S
C3249 C3250 1.387 . S
C3249 H3252 0.950 . S
C3250 C3249 1.387 . S
C3250 C3253 1.387 . S
H3251 C3247 0.950 . S
H3252 C3249 0.950 . S
C3253 C3244 1.390 . S
C3253 H3246 0.950 . S
C3253 C3250 1.387 . S
C3254 C3255 1.387 . S
C3254 H3258 0.950 . S
C3254 C3263 1.390 . S
C3255 C3254 1.387 . S
C3255 C3257 1.387 . S
H3256 C3263 0.950 . S
C3257 C3255 1.387 . S
C3257 C3259 1.390 . S
C3257 H3261 0.950 . S
H3258 C3254 0.950 . S
C3259 C3257 1.390 . S
C3259 C3260 1.387 . S
C3259 H3262 0.950 . S
C3260 C3259 1.387 . S
C3260 C3263 1.387 . S
H3261 C3257 0.950 . S
H3262 C3259 0.950 . S
C3263 C3254 1.390 . S
C3263 H3256 0.950 . S
C3263 C3260 1.387 . S
C1345 C13 1.501 . S
C1350 C603 1.503 . S
C1355 C629 1.504 . S
C1360 C15 1.501 . S
C1365 C29 1.501 . S
C1370 C575 1.503 . S
C1375 C1261 1.504 . S
C1380 C42 1.501 . S
C1385 C1302 1.505 . S
C1390 C68 1.501 . S
C1395 C1316 1.505 . S
C1400 C71 1.501 . S
C1405 C1232 1.505 . S
C1410 C85 1.501 . S
C1415 C1342 1.504 . S
C1420 C110 1.500 . S
C1425 C124 1.501 . S
C1430 C365 1.504 . S
C1435 C1051 1.504 . S
C1440 C126 1.501 . S
C1445 C349 1.504 . S
C1450 C141 1.501 . S
C1455 C1035 1.503 . S
C1460 C166 1.501 . S
C1465 C169 1.501 . S
C1470 C432 1.505 . S
C1475 C182 1.500 . S
C1480 C1119 1.504 . S
C1485 C197 1.500 . S
C1490 C393 1.503 . S
C1495 C210 1.500 . S
C1500 C1091 1.503 . S
C1505 C1177 1.504 . S
C1510 C236 1.501 . S
C1515 C250 1.501 . S
C1520 C461 1.503 . S
C1525 C265 1.500 . S
C1530 C1146 1.504 . S
C1535 C477 1.503 . S
C1540 C278 1.500 . S
C1545 C490 1.505 . S
C1550 C280 1.501 . S
C1555 C1217 1.504 . S
C1560 C306 1.501 . S
C1565 C308 1.500 . S
C1570 C1231 1.503 . S
C1575 C1202 1.504 . S
C1580 C335 1.500 . S
C1585 C267 1.505 . S
C1590 C336 1.501 . S
C1595 C351 1.500 . S
C1600 C293 1.504 . S
C1605 C376 1.500 . S
C1610 C239 1.504 . S
C1615 C391 1.501 . S
C1620 C924 1.504 . S
C1625 C966 1.503 . S
C1630 C404 1.500 . S
C1635 C418 1.501 . S
C1640 C993 1.504 . S
C1645 C897 1.504 . S
C1650 C421 1.500 . S
C1655 C1006 1.504 . S
C1660 C434 1.501 . S
C1665 C448 1.501 . S
C1670 C40 1.504 . S
C1675 C727 1.504 . S
C1680 C463 1.500 . S
C1685 C488 1.501 . S
C1690 C0 1.504 . S
C1695 C699 1.504 . S
C1700 C503 1.500 . S
C1705 C505 1.501 . S
C1710 C96 1.504 . S
C1715 C518 1.500 . S
C1720 C782 1.503 . S
C1725 C57 1.504 . S
C1730 C532 1.500 . S
C1735 C754 1.504 . S
C1740 C547 1.501 . S
C1745 C852 1.503 . S
C1750 C573 1.500 . S
C1755 C113 1.505 . S
C1760 C586 1.501 . S
C1765 C799 1.504 . S
C1770 C588 1.500 . S
C1775 C614 1.501 . S
C1780 C152 1.504 . S
C1785 C616 1.500 . S
C1790 C155 1.504 . S
C1795 C643 1.501 . S
C1800 C869 1.505 . S
C1805 C656 1.500 . S
C1810 C894 1.503 . S
C1815 C670 1.500 . S
C1820 C854 1.503 . S
C1825 C1274 1.504 . S
C1830 C684 1.500 . S
C1835 C1288 1.505 . S
C1840 C686 1.501 . S
C1845 C1259 1.503 . S
C1850 C700 1.500 . S
C1855 C714 1.500 . S
C1860 C601 1.503 . S
C1865 C729 1.501 . S
C1870 C630 1.505 . S
C1875 C743 1.501 . S
C1880 C645 1.504 . S
C1885 C560 1.505 . S
C1890 C756 1.501 . S
C1895 C659 1.504 . S
C1900 C771 1.501 . S
C1905 C784 1.501 . S
C1910 C1036 1.505 . S
C1915 C378 1.505 . S
C1920 C810 1.501 . S
C1925 C812 1.500 . S
C1930 C1008 1.504 . S
C1935 C362 1.504 . S
C1940 C838 1.500 . S
C1945 C841 1.500 . S
C1950 C1105 1.503 . S
C1955 C447 1.503 . S
C1960 C867 1.501 . S
C1965 C880 1.501 . S
C1970 C1065 1.504 . S
C1975 C883 1.501 . S
C1980 C407 1.504 . S
C1985 C908 1.500 . S
C1990 C516 1.504 . S
C1995 C1120 1.505 . S
C2000 C923 1.501 . S
C2005 C937 1.500 . S
C2010 C474 1.504 . S
C2015 C939 1.500 . S
C2020 C1149 1.503 . S
C2025 C953 1.501 . S
C2030 C1162 1.504 . S
C2035 C545 1.504 . S
C2040 C979 1.501 . S
C2045 C558 1.505 . S
C2050 C980 1.501 . S
C2055 C995 1.501 . S
C2060 C531 1.504 . S
C2065 C1021 1.501 . S
C2070 C950 1.503 . S
C2075 C1022 1.500 . S
C2080 C964 1.503 . S
C2085 C1049 1.501 . S
C2090 C910 1.504 . S
C2095 C252 1.503 . S
C2100 C1062 1.501 . S
C2105 C295 1.504 . S
C2110 C1076 1.500 . S
C2115 C1078 1.500 . S
C2120 C321 1.504 . S
C2125 C225 1.505 . S
C2130 C1092 1.501 . S
C2135 C322 1.503 . S
C2140 C1106 1.500 . S
C2145 C1133 1.501 . S
C2150 C713 1.505 . S
C2155 C55 1.505 . S
C2160 C1135 1.500 . S
C2165 C1160 1.500 . S
C2170 C673 1.504 . S
C2175 C26 1.503 . S
C2180 C1175 1.500 . S
C2185 C769 1.504 . S
C2190 C1188 1.500 . S
C2195 C99 1.505 . S
C2200 C1191 1.501 . S
C2205 C1204 1.501 . S
C2210 C740 1.504 . S
C2215 C82 1.503 . S
C2220 C1218 1.501 . S
C2225 C180 1.504 . S
C2230 C1245 1.501 . S
C2235 C1246 1.501 . S
C2240 C797 1.505 . S
C2245 C1272 1.500 . S
C2250 C139 1.504 . S
C2255 C1287 1.501 . S
C2260 C825 1.505 . S
C2265 C827 1.504 . S
C2270 C1301 1.500 . S
C2275 C1315 1.500 . S
C2280 C208 1.503 . S
C2285 C223 1.504 . S
C2290 C1329 1.500 . S
C2295 C1331 1.501 . S
C2300 C195 1.505 . S
C2305 C69 1.589 . S
C2310 C12 1.589 . S
C2315 C14 1.589 . S
C2320 C70 1.589 . S
C2325 C28 1.588 . S
C2330 C84 1.588 . S
C2335 C111 1.588 . S
C2340 C43 1.588 . S
C2345 C196 1.589 . S
C2350 C125 1.588 . S
C2355 C127 1.588 . S
C2360 C211 1.588 . S
C2365 C140 1.588 . S
C2370 C168 1.588 . S
C2375 C183 1.588 . S
C2380 C167 1.588 . S
C2385 C978 1.589 . S
C2390 C237 1.588 . S
C2395 C251 1.588 . S
C2400 C938 1.588 . S
C2405 C281 1.588 . S
C2410 C264 1.588 . S
C2415 C922 1.589 . S
C2420 C279 1.589 . S
C2425 C909 1.588 . S
C2430 C307 1.588 . S
C2435 C309 1.588 . S
C2440 C994 1.589 . S
C2445 C981 1.588 . S
C2450 C334 1.588 . S
C2455 C337 1.589 . S
C2460 C405 1.589 . S
C2465 C419 1.588 . S
C2470 C350 1.588 . S
C2475 C420 1.588 . S
C2480 C377 1.588 . S
C2485 C435 1.589 . S
C2490 C390 1.588 . S
C2495 C449 1.589 . S
C2500 C533 1.589 . S
C2505 C546 1.588 . S
C2510 C462 1.588 . S
C2515 C504 1.589 . S
C2520 C489 1.589 . S
C2525 C519 1.589 . S
C2530 C502 1.588 . S
C2535 C1314 1.589 . S
C2540 C572 1.589 . S
C2545 C587 1.589 . S
C2550 C1286 1.589 . S
C2555 C617 1.588 . S
C2560 C589 1.588 . S
C2565 C615 1.588 . S
C2570 C1247 1.588 . S
C2575 C642 1.588 . S
C2580 C1244 1.588 . S
C2585 C1330 1.588 . S
C2590 C657 1.589 . S
C2595 C671 1.589 . S
C2600 C1328 1.588 . S
C2605 C685 1.589 . S
C2610 C728 1.589 . S
C2615 C687 1.588 . S
C2620 C742 1.589 . S
C2625 C757 1.588 . S
C2630 C701 1.588 . S
C2635 C715 1.588 . S
C2640 C770 1.589 . S
C2645 C881 1.589 . S
C2650 C785 1.589 . S
C2655 C882 1.589 . S
C2660 C811 1.588 . S
C2665 C813 1.588 . S
C2670 C840 1.588 . S
C2675 C839 1.588 . S
C2680 C866 1.588 . S
C2685 C952 1.588 . S
C2690 C936 1.588 . S
C2695 C1077 1.588 . S
C2700 C1020 1.588 . S
C2705 C1023 1.589 . S
C2710 C1079 1.589 . S
C2715 C1048 1.588 . S
C2720 C1093 1.588 . S
C2725 C1063 1.588 . S
C2730 C1107 1.588 . S
C2735 C1132 1.588 . S
C2740 C1205 1.588 . S
C2745 C1134 1.588 . S
C2750 C1219 1.589 . S
C2755 C1161 1.589 . S
C2760 C1189 1.589 . S
C2765 C1174 1.588 . S
C2770 C1190 1.588 . S
C2775 C1300 1.588 . S
C2780 C1273 1.588 . S
C2785 C138 1.494 . S
C2790 C1 1.496 . S
C2795 C153 1.494 . S
C2800 C27 1.494 . S
C2805 C154 1.493 . S
C2810 C41 1.495 . S
C2815 C54 1.493 . S
C2820 C112 1.494 . S
C2825 C222 1.494 . S
C2830 C56 1.494 . S
C2835 C181 1.495 . S
C2840 C83 1.496 . S
C2845 C97 1.494 . S
C2850 C194 1.492 . S
C2855 C98 1.494 . S
C2860 C209 1.495 . S
C2865 C224 1.493 . S
C2870 C253 1.494 . S
C2875 C238 1.494 . S
C2880 C992 1.493 . S
C2885 C266 1.492 . S
C2890 C1007 1.494 . S
C2895 C967 1.496 . S
C2900 C292 1.494 . S
C2905 C294 1.493 . S
C2910 C965 1.496 . S
C2915 C320 1.494 . S
C2920 C911 1.495 . S
C2925 C323 1.494 . S
C2930 C951 1.495 . S
C2935 C348 1.494 . S
C2940 C475 1.492 . S
C2945 C363 1.493 . S
C2950 C476 1.494 . S
C2955 C364 1.495 . S
C2960 C491 1.494 . S
C2965 C379 1.493 . S
C2970 C460 1.496 . S
C2975 C392 1.496 . S
C2980 C559 1.494 . S
C2985 C517 1.494 . S
C2990 C406 1.495 . S
C2995 C433 1.494 . S
C3000 C530 1.495 . S
C3005 C446 1.495 . S
C3010 C544 1.496 . S
C3015 C561 1.493 . S
C3020 C600 1.495 . S
C3025 C574 1.495 . S
C3030 C1317 1.494 . S
C3035 C1343 1.492 . S
C3040 C602 1.494 . S
C3045 C1303 1.494 . S
C3050 C628 1.494 . S
C3055 C1289 1.494 . S
C3060 C631 1.494 . S
C3065 C1258 1.495 . S
C3070 C644 1.494 . S
C3075 C658 1.496 . S
C3080 C1275 1.494 . S
C3085 C672 1.494 . S
C3090 C798 1.494 . S
C3095 C698 1.493 . S
C3100 C824 1.492 . S
C3105 C712 1.494 . S
C3110 C826 1.494 . S
C3115 C796 1.494 . S
C3120 C726 1.494 . S
C3125 C741 1.494 . S
C3130 C895 1.494 . S
C3135 C755 1.495 . S
C3140 C853 1.494 . S
C3145 C855 1.495 . S
C3150 C768 1.494 . S
C3155 C868 1.494 . S
C3160 C783 1.494 . S
C3165 C925 1.494 . S
C3170 C896 1.492 . S
C3175 C1147 1.492 . S
C3180 C1009 1.492 . S
C3185 C1034 1.495 . S
C3190 C1148 1.494 . S
C3195 C1163 1.492 . S
C3200 C1037 1.492 . S
C3205 C1121 1.494 . S
C3210 C1050 1.495 . S
C3215 C1230 1.494 . S
C3220 C1064 1.494 . S
C3225 C1090 1.494 . S
C3230 C1176 1.495 . S
C3235 C1203 1.492 . S
C3240 C1104 1.494 . S
C3245 C1216 1.494 . S
C3250 C1118 1.495 . S
C3255 C1260 1.494 . S
C3260 C1233 1.494 . S
