# Generated by pormake.
# Topology lta, (4)-cn, num edge types: 1
# Building blocks:
#     Node 0, Type 0, BuildingBlock: ICAMEG_clean_sbu_1, # of connection points: 4
#     Node 1, Type 0, BuildingBlock: ICAMEG_clean_sbu_1, # of connection points: 4
#     Node 2, Type 0, BuildingBlock: ICAMEG_clean_sbu_1, # of connection points: 4
#     Node 3, Type 0, BuildingBlock: ICAMEG_clean_sbu_1, # of connection points: 4
#     Node 4, Type 0, BuildingBlock: ICAMEG_clean_sbu_1, # of connection points: 4
#     Node 5, Type 0, BuildingBlock: ICAMEG_clean_sbu_1, # of connection points: 4
#     Node 6, Type 0, BuildingBlock: ICAMEG_clean_sbu_1, # of connection points: 4
#     Node 7, Type 0, BuildingBlock: ICAMEG_clean_sbu_1, # of connection points: 4
#     Node 8, Type 0, BuildingBlock: ICAMEG_clean_sbu_1, # of connection points: 4
#     Node 9, Type 0, BuildingBlock: ICAMEG_clean_sbu_1, # of connection points: 4
#     Node 10, Type 0, BuildingBlock: ICAMEG_clean_sbu_1, # of connection points: 4
#     Node 11, Type 0, BuildingBlock: ICAMEG_clean_sbu_1, # of connection points: 4
#     Node 12, Type 0, BuildingBlock: ICAMEG_clean_sbu_1, # of connection points: 4
#     Node 13, Type 0, BuildingBlock: ICAMEG_clean_sbu_1, # of connection points: 4
#     Node 14, Type 0, BuildingBlock: ICAMEG_clean_sbu_1, # of connection points: 4
#     Node 15, Type 0, BuildingBlock: ICAMEG_clean_sbu_1, # of connection points: 4
#     Node 16, Type 0, BuildingBlock: ICAMEG_clean_sbu_1, # of connection points: 4
#     Node 17, Type 0, BuildingBlock: ICAMEG_clean_sbu_1, # of connection points: 4
#     Node 18, Type 0, BuildingBlock: ICAMEG_clean_sbu_1, # of connection points: 4
#     Node 19, Type 0, BuildingBlock: ICAMEG_clean_sbu_1, # of connection points: 4
#     Node 20, Type 0, BuildingBlock: ICAMEG_clean_sbu_1, # of connection points: 4
#     Node 21, Type 0, BuildingBlock: ICAMEG_clean_sbu_1, # of connection points: 4
#     Node 22, Type 0, BuildingBlock: ICAMEG_clean_sbu_1, # of connection points: 4
#     Node 23, Type 0, BuildingBlock: ICAMEG_clean_sbu_1, # of connection points: 4
#     Edge 24, Type (0, 0), BuildingBlock: XIVTED_clean_linker_0, # of connection points: 2
#     Edge 25, Type (0, 0), BuildingBlock: XIVTED_clean_linker_0, # of connection points: 2
#     Edge 26, Type (0, 0), BuildingBlock: XIVTED_clean_linker_0, # of connection points: 2
#     Edge 27, Type (0, 0), BuildingBlock: XIVTED_clean_linker_0, # of connection points: 2
#     Edge 28, Type (0, 0), BuildingBlock: XIVTED_clean_linker_0, # of connection points: 2
#     Edge 29, Type (0, 0), BuildingBlock: XIVTED_clean_linker_0, # of connection points: 2
#     Edge 30, Type (0, 0), BuildingBlock: XIVTED_clean_linker_0, # of connection points: 2
#     Edge 31, Type (0, 0), BuildingBlock: XIVTED_clean_linker_0, # of connection points: 2
#     Edge 32, Type (0, 0), BuildingBlock: XIVTED_clean_linker_0, # of connection points: 2
#     Edge 33, Type (0, 0), BuildingBlock: XIVTED_clean_linker_0, # of connection points: 2
#     Edge 34, Type (0, 0), BuildingBlock: XIVTED_clean_linker_0, # of connection points: 2
#     Edge 35, Type (0, 0), BuildingBlock: XIVTED_clean_linker_0, # of connection points: 2
#     Edge 36, Type (0, 0), BuildingBlock: XIVTED_clean_linker_0, # of connection points: 2
#     Edge 37, Type (0, 0), BuildingBlock: XIVTED_clean_linker_0, # of connection points: 2
#     Edge 38, Type (0, 0), BuildingBlock: XIVTED_clean_linker_0, # of connection points: 2
#     Edge 39, Type (0, 0), BuildingBlock: XIVTED_clean_linker_0, # of connection points: 2
#     Edge 40, Type (0, 0), BuildingBlock: XIVTED_clean_linker_0, # of connection points: 2
#     Edge 41, Type (0, 0), BuildingBlock: XIVTED_clean_linker_0, # of connection points: 2
#     Edge 42, Type (0, 0), BuildingBlock: XIVTED_clean_linker_0, # of connection points: 2
#     Edge 43, Type (0, 0), BuildingBlock: XIVTED_clean_linker_0, # of connection points: 2
#     Edge 44, Type (0, 0), BuildingBlock: XIVTED_clean_linker_0, # of connection points: 2
#     Edge 45, Type (0, 0), BuildingBlock: XIVTED_clean_linker_0, # of connection points: 2
#     Edge 46, Type (0, 0), BuildingBlock: XIVTED_clean_linker_0, # of connection points: 2
#     Edge 47, Type (0, 0), BuildingBlock: XIVTED_clean_linker_0, # of connection points: 2
#     Edge 48, Type (0, 0), BuildingBlock: XIVTED_clean_linker_0, # of connection points: 2
#     Edge 49, Type (0, 0), BuildingBlock: XIVTED_clean_linker_0, # of connection points: 2
#     Edge 50, Type (0, 0), BuildingBlock: XIVTED_clean_linker_0, # of connection points: 2
#     Edge 51, Type (0, 0), BuildingBlock: XIVTED_clean_linker_0, # of connection points: 2
#     Edge 52, Type (0, 0), BuildingBlock: XIVTED_clean_linker_0, # of connection points: 2
#     Edge 53, Type (0, 0), BuildingBlock: XIVTED_clean_linker_0, # of connection points: 2
#     Edge 54, Type (0, 0), BuildingBlock: XIVTED_clean_linker_0, # of connection points: 2
#     Edge 55, Type (0, 0), BuildingBlock: XIVTED_clean_linker_0, # of connection points: 2
#     Edge 56, Type (0, 0), BuildingBlock: XIVTED_clean_linker_0, # of connection points: 2
#     Edge 57, Type (0, 0), BuildingBlock: XIVTED_clean_linker_0, # of connection points: 2
#     Edge 58, Type (0, 0), BuildingBlock: XIVTED_clean_linker_0, # of connection points: 2
#     Edge 59, Type (0, 0), BuildingBlock: XIVTED_clean_linker_0, # of connection points: 2
#     Edge 60, Type (0, 0), BuildingBlock: XIVTED_clean_linker_0, # of connection points: 2
#     Edge 61, Type (0, 0), BuildingBlock: XIVTED_clean_linker_0, # of connection points: 2
#     Edge 62, Type (0, 0), BuildingBlock: XIVTED_clean_linker_0, # of connection points: 2
#     Edge 63, Type (0, 0), BuildingBlock: XIVTED_clean_linker_0, # of connection points: 2
#     Edge 64, Type (0, 0), BuildingBlock: XIVTED_clean_linker_0, # of connection points: 2
#     Edge 65, Type (0, 0), BuildingBlock: XIVTED_clean_linker_0, # of connection points: 2
#     Edge 66, Type (0, 0), BuildingBlock: XIVTED_clean_linker_0, # of connection points: 2
#     Edge 67, Type (0, 0), BuildingBlock: XIVTED_clean_linker_0, # of connection points: 2
#     Edge 68, Type (0, 0), BuildingBlock: XIVTED_clean_linker_0, # of connection points: 2
#     Edge 69, Type (0, 0), BuildingBlock: XIVTED_clean_linker_0, # of connection points: 2
#     Edge 70, Type (0, 0), BuildingBlock: XIVTED_clean_linker_0, # of connection points: 2
#     Edge 71, Type (0, 0), BuildingBlock: XIVTED_clean_linker_0, # of connection points: 2
# Relax obj value: 0.361
# Max RMSD: 0.250
# Mean RMSD: 0.250
data_MOF--net-lta--node1-ICAMEG_clean_sbu_1--edge1-XIVTED_clean_linker_0
_symmetry_space_group_name_H-M    P1
_symmetry_Int_Tables_number       1
_symmetry_cell_setting            triclinic
loop_
_symmetry_equiv_pos_as_xyz
'x, y, z'
_cell_length_a     59.949447
_cell_length_b     59.931621
_cell_length_c     59.938675
_cell_angle_alpha  90.001966
_cell_angle_beta   90.000994
_cell_angle_gamma 90.00992
loop_
_atom_site_label
_atom_site_type_symbol
_atom_site_fract_x
_atom_site_fract_y
_atom_site_fract_z
_atom_type_partial_charge
Co0 Co 0.12678 0.34897 0.48908 0.0
Co1 Co 0.11948 0.29371 0.50487 0.0
O2 O 0.13228 0.31688 0.48543 0.0
C3 C 0.12267 0.34055 0.43921 0.0
O4 O 0.12753 0.3193 0.44085 0.0
C5 C 0.16843 0.28478 0.50659 0.0
O6 O 0.17213 0.30621 0.50929 0.0
O7 O 0.12829 0.31018 0.53252 0.0
O8 O 0.1305 0.3461 0.52187 0.0
H9 H 0.07331 0.26486 0.56862 0.0
H10 H 0.16304 0.33236 0.45898 0.0
O11 O 0.12241 0.35331 0.4562 0.0
H12 H 0.20012 0.38252 0.51245 0.0
H13 H 0.1337 0.4304 0.46932 0.0
H14 H 0.10043 0.37584 0.52116 0.0
H15 H 0.15957 0.37624 0.51447 0.0
H16 H 0.14097 0.39014 0.46482 0.0
O17 O 0.14856 0.27742 0.50507 0.0
H18 H 0.08948 0.29377 0.5442 0.0
H19 H 0.12271 0.24402 0.50623 0.0
H20 H 0.09294 0.41597 0.52642 0.0
H21 H 0.20348 0.33839 0.45617 0.0
H22 H 0.10963 0.44356 0.50038 0.0
H23 H 0.22238 0.3636 0.48307 0.0
O24 O 0.09395 0.34393 0.49162 0.0
H25 H 0.13235 0.25896 0.42961 0.0
H26 H 0.07724 0.27249 0.48911 0.0
H27 H 0.06586 0.25207 0.4553 0.0
H28 H 0.09355 0.24509 0.42527 0.0
H29 H 0.1429 0.27968 0.46353 0.0
H30 H 0.10705 0.21459 0.53034 0.0
H31 H 0.08208 0.22494 0.56175 0.0
O32 O 0.09011 0.30912 0.50485 0.0
C33 C 0.1313 0.33084 0.5366 0.0
C34 C 0.08414 0.26013 0.55497 0.0
C35 C 0.1031 0.23193 0.5335 0.0
N36 N 0.10698 0.2706 0.52377 0.0
C37 C 0.09332 0.27643 0.54107 0.0
C38 C 0.11198 0.24867 0.51995 0.0
C39 C 0.08908 0.23774 0.55112 0.0
C40 C 0.17091 0.34366 0.47048 0.0
N41 N 0.15872 0.35424 0.48658 0.0
C42 C 0.19394 0.34688 0.46893 0.0
C43 C 0.20454 0.36098 0.48406 0.0
C44 C 0.19206 0.37159 0.50054 0.0
C45 C 0.16908 0.36795 0.5016 0.0
C46 C 0.12637 0.41855 0.48081 0.0
C47 C 0.10788 0.38776 0.50985 0.0
C48 C 0.13037 0.39572 0.4783 0.0
N49 N 0.12127 0.38067 0.49283 0.0
C50 C 0.10352 0.41045 0.51287 0.0
C51 C 0.11287 0.42592 0.49824 0.0
C52 C 0.08204 0.3278 0.49874 0.0
C53 C 0.12013 0.26189 0.44257 0.0
C54 C 0.08931 0.26981 0.47602 0.0
C55 C 0.0828 0.25809 0.45696 0.0
C56 C 0.09835 0.25415 0.44013 0.0
N57 N 0.11068 0.27742 0.47828 0.0
C58 C 0.12603 0.27355 0.46187 0.0
Co59 Co 0.64916 0.12512 0.48147 0.0
Co60 Co 0.69984 0.11683 0.50563 0.0
O61 O 0.6809 0.13154 0.48357 0.0
C62 C 0.6595 0.11975 0.43279 0.0
O63 O 0.6716 0.10197 0.43694 0.0
C64 C 0.71135 0.16485 0.50922 0.0
O65 O 0.68994 0.1693 0.51016 0.0
O66 O 0.68002 0.12709 0.5303 0.0
O67 O 0.647 0.11976 0.51432 0.0
H68 H 0.71584 0.06917 0.57275 0.0
H69 H 0.66639 0.16719 0.46189 0.0
O70 O 0.65039 0.13063 0.44859 0.0
H71 H 0.6109 0.19039 0.51801 0.0
H72 H 0.57147 0.13628 0.45144 0.0
H73 H 0.61903 0.09097 0.50097 0.0
H74 H 0.6185 0.1505 0.51138 0.0
H75 H 0.61147 0.14496 0.45568 0.0
O76 O 0.71806 0.14471 0.50808 0.0
H77 H 0.69194 0.08727 0.54458 0.0
H78 H 0.74885 0.11638 0.51401 0.0
H79 H 0.57906 0.08191 0.49744 0.0
H80 H 0.6591 0.20726 0.46779 0.0
H81 H 0.55501 0.10461 0.47249 0.0
H82 H 0.63124 0.21908 0.49609 0.0
O83 O 0.65578 0.09288 0.47721 0.0
H84 H 0.74353 0.12574 0.43463 0.0
H85 H 0.72015 0.07306 0.49335 0.0
H86 H 0.74353 0.05965 0.46227 0.0
H87 H 0.75542 0.08608 0.43265 0.0
H88 H 0.72 0.13841 0.46592 0.0
H89 H 0.77336 0.09875 0.54197 0.0
H90 H 0.75687 0.07486 0.57156 0.0
O91 O 0.68216 0.08839 0.50345 0.0
C92 C 0.65912 0.12334 0.53143 0.0
C93 C 0.72323 0.07949 0.55991 0.0
C94 C 0.75551 0.09612 0.54266 0.0
N95 N 0.719 0.10276 0.52759 0.0
C96 C 0.70978 0.08975 0.54388 0.0
C97 C 0.74154 0.10611 0.52691 0.0
C98 C 0.74624 0.08271 0.55924 0.0
C99 C 0.65406 0.1722 0.47405 0.0
N100 N 0.64284 0.15652 0.48622 0.0
C101 C 0.65008 0.19492 0.4774 0.0
C102 C 0.63448 0.20154 0.49331 0.0
C103 C 0.62308 0.18545 0.50563 0.0
C104 C 0.62751 0.16288 0.50185 0.0
C105 C 0.58177 0.1263 0.46241 0.0
C106 C 0.60864 0.10106 0.49024 0.0
C107 C 0.60445 0.1311 0.46485 0.0
N108 N 0.61756 0.11859 0.4787 0.0
C109 C 0.58603 0.0958 0.48824 0.0
C110 C 0.57254 0.10853 0.47422 0.0
C111 C 0.66746 0.08062 0.4901 0.0
C112 C 0.73851 0.11407 0.44747 0.0
C113 C 0.72522 0.08466 0.48051 0.0
C114 C 0.73849 0.07697 0.46297 0.0
C115 C 0.74516 0.09182 0.44636 0.0
N116 N 0.71884 0.10654 0.48153 0.0
C117 C 0.72525 0.12117 0.46527 0.0
Co118 Co 0.87281 0.64667 0.50244 0.0
Co119 Co 0.88009 0.70308 0.50789 0.0
O120 O 0.86514 0.67737 0.49454 0.0
C121 C 0.87517 0.64445 0.45275 0.0
O122 O 0.8899 0.66067 0.45277 0.0
C123 C 0.83193 0.71457 0.51246 0.0
O124 O 0.82787 0.69432 0.51977 0.0
O125 O 0.8729 0.69206 0.53846 0.0
O126 O 0.87842 0.65519 0.53415 0.0
H127 H 0.93159 0.74135 0.56184 0.0
H128 H 0.82999 0.65595 0.47944 0.0
O129 O 0.86699 0.63726 0.47098 0.0
H130 H 0.80923 0.62048 0.55071 0.0
H131 H 0.86345 0.56324 0.49927 0.0
H132 H 0.90797 0.62526 0.52998 0.0
H133 H 0.84876 0.6263 0.54101 0.0
H134 H 0.85384 0.60226 0.49043 0.0
O135 O 0.85165 0.72035 0.50717 0.0
H136 H 0.91279 0.70911 0.5445 0.0
H137 H 0.87852 0.75224 0.49994 0.0
H138 H 0.91801 0.58647 0.53944 0.0
H139 H 0.79024 0.65017 0.48835 0.0
H140 H 0.89574 0.55516 0.5239 0.0
H141 H 0.77964 0.6324 0.52426 0.0
O142 O 0.90489 0.65212 0.49541 0.0
H143 H 0.8625 0.72045 0.42781 0.0
H144 H 0.92106 0.72071 0.48552 0.0
H145 H 0.93022 0.73307 0.44739 0.0
H146 H 0.90079 0.73305 0.41822 0.0
H147 H 0.85415 0.708 0.46613 0.0
H148 H 0.89676 0.78497 0.51696 0.0
H149 H 0.9236 0.77961 0.54808 0.0
O150 O 0.90915 0.68685 0.50865 0.0
C151 C 0.87562 0.67245 0.54623 0.0
C152 C 0.91996 0.74389 0.54827 0.0
C153 C 0.90039 0.76838 0.5231 0.0
N154 N 0.89465 0.72877 0.52116 0.0
C155 C 0.9093 0.7257 0.53835 0.0
C156 C 0.89005 0.74979 0.51358 0.0
C157 C 0.91546 0.76536 0.54055 0.0
C158 C 0.82552 0.64799 0.49499 0.0
N159 N 0.84169 0.64141 0.50964 0.0
C160 C 0.80298 0.64485 0.49999 0.0
C161 C 0.79704 0.63491 0.52015 0.0
C162 C 0.81363 0.62823 0.53501 0.0
C163 C 0.83599 0.63163 0.52945 0.0
C164 C 0.87328 0.57675 0.50612 0.0
C165 C 0.89808 0.61172 0.52332 0.0
C166 C 0.86796 0.59888 0.50113 0.0
N167 N 0.88026 0.61603 0.50977 0.0
C168 C 0.90389 0.5898 0.52869 0.0
C169 C 0.89138 0.57223 0.51999 0.0
C170 C 0.91711 0.66848 0.50144 0.0
C171 C 0.87546 0.72056 0.44038 0.0
C172 C 0.90822 0.72049 0.47291 0.0
C173 C 0.91348 0.7276 0.45136 0.0
C174 C 0.89695 0.7276 0.435 0.0
N175 N 0.88711 0.71362 0.47807 0.0
C176 C 0.87082 0.71359 0.46212 0.0
Co177 Co 0.34991 0.87416 0.49429 0.0
Co178 Co 0.29562 0.88361 0.51167 0.0
O179 O 0.31762 0.87084 0.49088 0.0
C180 C 0.34156 0.88003 0.44447 0.0
O181 O 0.32012 0.87595 0.44582 0.0
C182 C 0.28428 0.83549 0.51021 0.0
O183 O 0.3055 0.831 0.51325 0.0
O184 O 0.31154 0.87145 0.53823 0.0
O185 O 0.34726 0.86944 0.527 0.0
H186 H 0.26992 0.92595 0.57935 0.0
H187 H 0.33057 0.83983 0.46349 0.0
O188 O 0.35417 0.87941 0.46155 0.0
H189 H 0.37984 0.79832 0.51443 0.0
H190 H 0.43059 0.86342 0.47321 0.0
H191 H 0.37859 0.89776 0.52693 0.0
H192 H 0.37587 0.83907 0.51791 0.0
H193 H 0.38995 0.85859 0.46898 0.0
O194 O 0.27758 0.85565 0.5095 0.0
H195 H 0.29768 0.91015 0.55344 0.0
H196 H 0.24591 0.88337 0.51317 0.0
H197 H 0.41913 0.90279 0.53195 0.0
H198 H 0.33428 0.79925 0.45921 0.0
H199 H 0.44542 0.88555 0.50496 0.0
H200 H 0.35903 0.77811 0.48484 0.0
O201 O 0.34662 0.90702 0.49803 0.0
H202 H 0.25958 0.88004 0.436 0.0
H203 H 0.27796 0.92861 0.4998 0.0
H204 H 0.25834 0.94445 0.46732 0.0
H205 H 0.24895 0.92008 0.43514 0.0
H206 H 0.27948 0.86495 0.46868 0.0
H207 H 0.21757 0.89873 0.53874 0.0
H208 H 0.22952 0.92027 0.57207 0.0
O209 O 0.31315 0.91178 0.5143 0.0
C210 C 0.33217 0.8679 0.54185 0.0
C211 C 0.2645 0.91663 0.56487 0.0
C212 C 0.23512 0.90133 0.54209 0.0
N213 N 0.27344 0.89592 0.53177 0.0
C214 C 0.28015 0.90767 0.55011 0.0
C215 C 0.25125 0.89262 0.52771 0.0
C216 C 0.24184 0.91342 0.56078 0.0
C217 C 0.34171 0.831 0.47442 0.0
N218 N 0.35333 0.84206 0.49061 0.0
C219 C 0.3436 0.80789 0.47204 0.0
C220 C 0.35744 0.79603 0.48646 0.0
C221 C 0.3691 0.80735 0.50306 0.0
C222 C 0.36677 0.83046 0.50495 0.0
C223 C 0.4193 0.87098 0.48511 0.0
C224 C 0.38994 0.89008 0.51521 0.0
C225 C 0.39627 0.86836 0.48276 0.0
N226 N 0.38191 0.87774 0.4978 0.0
C227 C 0.41287 0.89305 0.51809 0.0
C228 C 0.42761 0.88339 0.50293 0.0
C229 C 0.33189 0.91913 0.50746 0.0
C230 C 0.26356 0.89082 0.44993 0.0
C231 C 0.27414 0.91793 0.48579 0.0
C232 C 0.26292 0.92698 0.46748 0.0
C233 C 0.25763 0.91329 0.44944 0.0
N234 N 0.27993 0.89587 0.48613 0.0
C235 C 0.27476 0.88235 0.46852 0.0
Co236 Co 0.12902 0.6498 0.50362 0.0
Co237 Co 0.12033 0.7053 0.48974 0.0
O238 O 0.13366 0.68185 0.50848 0.0
C239 C 0.12568 0.65614 0.55385 0.0
O240 O 0.12998 0.67756 0.55286 0.0
C241 C 0.16879 0.71603 0.48895 0.0
O242 O 0.1732 0.69485 0.48551 0.0
O243 O 0.13039 0.69039 0.46172 0.0
O244 O 0.13219 0.65406 0.47094 0.0
H245 H 0.07452 0.735 0.42611 0.0
H246 H 0.16535 0.66614 0.53388 0.0
O247 O 0.12528 0.64404 0.53637 0.0
H248 H 0.20285 0.6194 0.4777 0.0
H249 H 0.13857 0.56786 0.5199 0.0
H250 H 0.103 0.62348 0.4708 0.0
H251 H 0.16214 0.62464 0.47656 0.0
H252 H 0.14469 0.60811 0.526 0.0
O253 O 0.14871 0.72267 0.49079 0.0
H254 H 0.09133 0.70573 0.44965 0.0
H255 H 0.12148 0.75507 0.49061 0.0
H256 H 0.09663 0.58339 0.46395 0.0
H257 H 0.20596 0.6611 0.53582 0.0
H258 H 0.1145 0.55528 0.48859 0.0
H259 H 0.22508 0.63762 0.50756 0.0
O260 O 0.09605 0.65402 0.50162 0.0
H261 H 0.13015 0.73746 0.56659 0.0
H262 H 0.07685 0.72389 0.50544 0.0
H263 H 0.06391 0.74236 0.53981 0.0
H264 H 0.09067 0.74934 0.57068 0.0
H265 H 0.14229 0.71869 0.53207 0.0
H266 H 0.10516 0.78487 0.46741 0.0
H267 H 0.08142 0.77491 0.43494 0.0
O268 O 0.09163 0.68873 0.48835 0.0
C269 C 0.13332 0.66991 0.45688 0.0
C270 C 0.08481 0.73956 0.44023 0.0
C271 C 0.10203 0.76755 0.4634 0.0
N272 N 0.1073 0.72868 0.47153 0.0
C273 C 0.09434 0.72306 0.45364 0.0
C274 C 0.11128 0.7506 0.47643 0.0
C275 C 0.0887 0.76194 0.44519 0.0
C276 C 0.17331 0.65554 0.5218 0.0
N277 N 0.16113 0.64532 0.50545 0.0
C278 C 0.19643 0.6529 0.52285 0.0
C279 C 0.20716 0.63977 0.50696 0.0
C280 C 0.19471 0.62955 0.49022 0.0
C281 C 0.17162 0.63259 0.48968 0.0
C282 C 0.13073 0.57995 0.50902 0.0
C283 C 0.11094 0.61134 0.48152 0.0
C284 C 0.13408 0.60276 0.51243 0.0
N285 N 0.12434 0.61813 0.49866 0.0
C286 C 0.10722 0.58867 0.4776 0.0
C287 C 0.11722 0.5729 0.49145 0.0
C288 C 0.0839 0.66981 0.49418 0.0
C289 C 0.11832 0.73451 0.55326 0.0
C290 C 0.08854 0.72659 0.51888 0.0
C291 C 0.08114 0.7372 0.53827 0.0
C292 C 0.09617 0.74114 0.55556 0.0
N293 N 0.11029 0.72007 0.51677 0.0
C294 C 0.12512 0.72396 0.53363 0.0
Co295 Co 0.3494 0.12923 0.52336 0.0
Co296 Co 0.29979 0.12047 0.49727 0.0
O297 O 0.31778 0.13569 0.51982 0.0
C298 C 0.33903 0.12422 0.57222 0.0
O299 O 0.32835 0.10546 0.56852 0.0
C300 C 0.28804 0.16836 0.49218 0.0
O301 O 0.30942 0.17311 0.49194 0.0
O302 O 0.32059 0.13033 0.47325 0.0
O303 O 0.35287 0.12318 0.49071 0.0
H304 H 0.28672 0.07158 0.43039 0.0
H305 H 0.3315 0.17177 0.54119 0.0
O306 O 0.347 0.13555 0.5561 0.0
H307 H 0.3895 0.19353 0.48705 0.0
H308 H 0.42609 0.14079 0.55581 0.0
H309 H 0.37987 0.09426 0.50616 0.0
H310 H 0.38144 0.15382 0.49423 0.0
H311 H 0.38632 0.14961 0.54995 0.0
O312 O 0.28157 0.14817 0.49356 0.0
H313 H 0.30938 0.09027 0.45919 0.0
H314 H 0.25114 0.11959 0.48694 0.0
H315 H 0.4196 0.08506 0.51128 0.0
H316 H 0.33922 0.21168 0.53471 0.0
H317 H 0.44298 0.10838 0.53625 0.0
H318 H 0.36835 0.22278 0.50741 0.0
O319 O 0.34243 0.09713 0.52808 0.0
H320 H 0.25319 0.13052 0.56624 0.0
H321 H 0.27907 0.07685 0.50951 0.0
H322 H 0.25449 0.06393 0.53986 0.0
H323 H 0.24133 0.09087 0.56847 0.0
H324 H 0.27795 0.1427 0.53572 0.0
H325 H 0.22787 0.10135 0.45831 0.0
H326 H 0.24566 0.07707 0.42982 0.0
O327 O 0.31738 0.09215 0.50068 0.0
C328 C 0.34151 0.12649 0.47301 0.0
C329 C 0.27877 0.08208 0.44274 0.0
C330 C 0.24575 0.09881 0.45839 0.0
N331 N 0.28159 0.10591 0.47481 0.0
C332 C 0.29151 0.09267 0.45913 0.0
C333 C 0.25902 0.10915 0.47452 0.0
C334 C 0.25574 0.08518 0.44242 0.0
C335 C 0.34437 0.17647 0.52946 0.0
N336 N 0.35606 0.16049 0.51816 0.0
C337 C 0.34859 0.19909 0.52578 0.0
C338 C 0.36491 0.20531 0.51044 0.0
C339 C 0.37677 0.18891 0.49899 0.0
C340 C 0.37208 0.16645 0.50307 0.0
C341 C 0.41608 0.13056 0.5448 0.0
C342 C 0.38997 0.10464 0.51687 0.0
C343 C 0.39354 0.13544 0.54144 0.0
N344 N 0.38082 0.1226 0.52751 0.0
C345 C 0.41245 0.09929 0.5198 0.0
C346 C 0.42556 0.11237 0.53384 0.0
C347 C 0.33129 0.08464 0.51495 0.0
C348 C 0.25876 0.11864 0.55384 0.0
C349 C 0.27347 0.08867 0.52193 0.0
C350 C 0.25951 0.08126 0.53905 0.0
C351 C 0.25213 0.09639 0.55509 0.0
N352 N 0.27984 0.11055 0.52076 0.0
C353 C 0.27272 0.12545 0.53647 0.0
Co354 Co 0.87047 0.3496 0.49406 0.0
Co355 Co 0.8773 0.29256 0.48798 0.0
O356 O 0.86382 0.31867 0.50265 0.0
C357 C 0.8697 0.35017 0.54488 0.0
O358 O 0.86504 0.32887 0.54658 0.0
C359 C 0.82849 0.28245 0.4863 0.0
O360 O 0.82444 0.30292 0.47961 0.0
O361 O 0.86911 0.3039 0.4577 0.0
O362 O 0.8703 0.34113 0.46206 0.0
H363 H 0.92515 0.25353 0.43127 0.0
H364 H 0.83111 0.33944 0.52295 0.0
O365 O 0.87148 0.35966 0.52594 0.0
H366 H 0.80067 0.37816 0.45717 0.0
H367 H 0.86326 0.43326 0.4983 0.0
H368 H 0.90075 0.37032 0.46084 0.0
H369 H 0.84106 0.37144 0.46053 0.0
H370 H 0.85469 0.39445 0.509 0.0
O371 O 0.8484 0.27607 0.48992 0.0
H372 H 0.9081 0.28606 0.44982 0.0
H373 H 0.87466 0.24335 0.49542 0.0
H374 H 0.90958 0.40888 0.44942 0.0
H375 H 0.79071 0.34607 0.52041 0.0
H376 H 0.89083 0.44066 0.46827 0.0
H377 H 0.77517 0.36553 0.4873 0.0
O378 O 0.9032 0.34389 0.49589 0.0
H379 H 0.86268 0.27162 0.56788 0.0
H380 H 0.91923 0.2748 0.50827 0.0
H381 H 0.92983 0.26085 0.54545 0.0
H382 H 0.90142 0.25911 0.57557 0.0
H383 H 0.8529 0.28583 0.53054 0.0
H384 H 0.89118 0.21035 0.47724 0.0
H385 H 0.9167 0.21533 0.44497 0.0
O386 O 0.90666 0.30798 0.48596 0.0
C387 C 0.86859 0.32373 0.45007 0.0
C388 C 0.91408 0.25114 0.44534 0.0
C389 C 0.89499 0.22691 0.47112 0.0
N390 N 0.89046 0.26663 0.47373 0.0
C391 C 0.90441 0.2695 0.45594 0.0
C392 C 0.88562 0.24566 0.4813 0.0
C393 C 0.90932 0.22972 0.45302 0.0
C394 C 0.82465 0.34826 0.50871 0.0
N395 N 0.83861 0.3554 0.49216 0.0
C396 C 0.80167 0.35183 0.50726 0.0
C397 C 0.79295 0.36269 0.48866 0.0
C398 C 0.80724 0.36978 0.47175 0.0
C399 C 0.83012 0.36591 0.47377 0.0
C400 C 0.87153 0.41954 0.48996 0.0
C401 C 0.89238 0.38406 0.469 0.0
C402 C 0.8668 0.39753 0.49599 0.0
N403 N 0.8771 0.38012 0.48545 0.0
C404 C 0.89751 0.40586 0.46251 0.0
C405 C 0.88699 0.42369 0.47309 0.0
C406 C 0.91498 0.32696 0.49071 0.0
C407 C 0.87521 0.27231 0.5549 0.0
C408 C 0.90684 0.2744 0.52134 0.0
C409 C 0.91291 0.26633 0.54234 0.0
C410 C 0.89696 0.26532 0.55921 0.0
N411 N 0.8855 0.2813 0.51724 0.0
C412 C 0.86976 0.28027 0.53369 0.0
Co413 Co 0.64896 0.86912 0.50622 0.0
Co414 Co 0.70292 0.88096 0.4904 0.0
O415 O 0.68111 0.86665 0.51 0.0
C416 C 0.65263 0.88397 0.55374 0.0
O417 O 0.66546 0.90067 0.54771 0.0
C418 C 0.71593 0.8334 0.49081 0.0
O419 O 0.69497 0.82852 0.48677 0.0
O420 O 0.68817 0.86891 0.46315 0.0
O421 O 0.65199 0.86731 0.47311 0.0
H422 H 0.72868 0.92662 0.42493 0.0
H423 H 0.66796 0.83441 0.53591 0.0
O424 O 0.64516 0.87026 0.53934 0.0
H425 H 0.62368 0.79338 0.48 0.0
H426 H 0.56879 0.85334 0.52592 0.0
H427 H 0.6194 0.89408 0.47543 0.0
H428 H 0.6255 0.8345 0.47921 0.0
H429 H 0.60959 0.84993 0.53 0.0
O430 O 0.72207 0.8537 0.4924 0.0
H431 H 0.7009 0.90884 0.44952 0.0
H432 H 0.7526 0.88274 0.49028 0.0
H433 H 0.57869 0.89774 0.47058 0.0
H434 H 0.66641 0.79331 0.53749 0.0
H435 H 0.5531 0.87728 0.49595 0.0
H436 H 0.64423 0.77252 0.50933 0.0
O437 O 0.6511 0.90237 0.50483 0.0
H438 H 0.73461 0.87715 0.56795 0.0
H439 H 0.71895 0.92614 0.50374 0.0
H440 H 0.73623 0.94199 0.53755 0.0
H441 H 0.74422 0.91741 0.56994 0.0
H442 H 0.71719 0.86202 0.53388 0.0
H443 H 0.78098 0.90009 0.46605 0.0
H444 H 0.76906 0.92229 0.43314 0.0
O445 O 0.68417 0.90837 0.48806 0.0
C446 C 0.66758 0.86602 0.45869 0.0
C447 C 0.73408 0.91701 0.43923 0.0
C448 C 0.76343 0.9021 0.46229 0.0
N449 N 0.7251 0.89482 0.47133 0.0
C450 C 0.71842 0.90693 0.45322 0.0
C451 C 0.74729 0.89225 0.47591 0.0
C452 C 0.75674 0.91456 0.44384 0.0
C453 C 0.65813 0.82549 0.5237 0.0
N454 N 0.64689 0.83683 0.50743 0.0
C455 C 0.65737 0.80221 0.52464 0.0
C456 C 0.64495 0.79056 0.50882 0.0
C457 C 0.63344 0.80225 0.49234 0.0
C458 C 0.63461 0.82552 0.49191 0.0
C459 C 0.57977 0.86231 0.51473 0.0
C460 C 0.60836 0.88501 0.48644 0.0
C461 C 0.60289 0.8605 0.51701 0.0
N462 N 0.61686 0.87168 0.50286 0.0
C463 C 0.58533 0.8872 0.48366 0.0
C464 C 0.57098 0.87574 0.49791 0.0
C465 C 0.66535 0.91506 0.49536 0.0
C466 C 0.73128 0.88801 0.55392 0.0
C467 C 0.72233 0.91535 0.51778 0.0
C468 C 0.73215 0.92441 0.53687 0.0
C469 C 0.73664 0.91061 0.55504 0.0
N470 N 0.71719 0.89314 0.51678 0.0
C471 C 0.72148 0.87952 0.53455 0.0
Co472 Co 0.49966 0.12516 0.35081 0.0
Co473 Co 0.50974 0.11502 0.2948 0.0
O474 O 0.49233 0.12855 0.31916 0.0
C475 C 0.449 0.12077 0.34886 0.0
O476 O 0.44778 0.12456 0.32735 0.0
C477 C 0.50892 0.16315 0.28351 0.0
O478 O 0.51476 0.16742 0.30418 0.0
O479 O 0.53852 0.12616 0.30723 0.0
O480 O 0.53191 0.12869 0.34405 0.0
H481 H 0.57215 0.0702 0.2612 0.0
H482 H 0.46771 0.16039 0.33554 0.0
O483 O 0.46757 0.12108 0.3592 0.0
H484 H 0.52619 0.20038 0.37714 0.0
H485 H 0.48961 0.13725 0.43341 0.0
H486 H 0.53488 0.10056 0.37533 0.0
H487 H 0.52777 0.15952 0.37305 0.0
H488 H 0.48019 0.14174 0.39361 0.0
O489 O 0.50644 0.14306 0.27702 0.0
H490 H 0.55044 0.08698 0.29186 0.0
H491 H 0.50513 0.11517 0.24527 0.0
H492 H 0.5451 0.09592 0.41495 0.0
H493 H 0.46531 0.20112 0.33947 0.0
H494 H 0.52238 0.11435 0.44429 0.0
H495 H 0.49473 0.22148 0.36037 0.0
O496 O 0.50174 0.09217 0.34727 0.0
H497 H 0.43041 0.12149 0.26836 0.0
H498 H 0.49409 0.07051 0.27891 0.0
H499 H 0.45886 0.05594 0.26349 0.0
H500 H 0.42673 0.08152 0.25804 0.0
H501 H 0.46584 0.1353 0.28404 0.0
H502 H 0.52644 0.09885 0.21408 0.0
H503 H 0.56017 0.07611 0.22197 0.0
O504 O 0.51342 0.08675 0.31201 0.0
C505 C 0.54479 0.12965 0.32722 0.0
C506 C 0.55745 0.08004 0.25755 0.0
C507 C 0.53182 0.09614 0.2311 0.0
N508 N 0.52648 0.10194 0.27038 0.0
C509 C 0.54507 0.08954 0.27485 0.0
C510 C 0.51985 0.10539 0.24883 0.0
C511 C 0.55073 0.08337 0.23554 0.0
C512 C 0.48034 0.16892 0.34502 0.0
N513 N 0.49758 0.15736 0.35444 0.0
C514 C 0.479 0.1921 0.34704 0.0
C515 C 0.49553 0.20352 0.35871 0.0
C516 C 0.51318 0.19169 0.36811 0.0
C517 C 0.51398 0.16853 0.36573 0.0
C518 C 0.49966 0.12917 0.42078 0.0
C519 C 0.525 0.10874 0.38801 0.0
C520 C 0.49436 0.13158 0.39821 0.0
N521 N 0.50708 0.12156 0.38215 0.0
C522 C 0.53082 0.10599 0.41041 0.0
C523 C 0.51806 0.11632 0.42687 0.0
C524 C 0.50868 0.07969 0.3315 0.0
C525 C 0.4443 0.11018 0.27063 0.0
C526 C 0.48013 0.08172 0.2768 0.0
C527 C 0.46025 0.07338 0.26795 0.0
C528 C 0.44223 0.08775 0.26487 0.0
N529 N 0.48202 0.10374 0.28243 0.0
C530 C 0.46444 0.11793 0.27942 0.0
Co531 Co 0.87261 0.47953 0.35056 0.0
Co532 Co 0.87658 0.503 0.29774 0.0
O533 O 0.86588 0.47982 0.31844 0.0
C534 C 0.87739 0.43116 0.33578 0.0
O535 O 0.87188 0.43552 0.31508 0.0
C536 C 0.82744 0.50156 0.28889 0.0
O537 O 0.82344 0.49987 0.31036 0.0
O538 O 0.86591 0.52741 0.31776 0.0
O539 O 0.86749 0.51231 0.35211 0.0
H540 H 0.91691 0.57351 0.27685 0.0
H541 H 0.83657 0.4507 0.33114 0.0
O542 O 0.87816 0.44646 0.35051 0.0
H543 H 0.8002 0.49451 0.39034 0.0
H544 H 0.87031 0.44877 0.42879 0.0
H545 H 0.89874 0.50903 0.38048 0.0
H546 H 0.84027 0.49921 0.38261 0.0
H547 H 0.86124 0.44944 0.38868 0.0
O548 O 0.84736 0.50302 0.28172 0.0
H549 H 0.90337 0.54435 0.30252 0.0
H550 H 0.87248 0.51027 0.24862 0.0
H551 H 0.908 0.50915 0.42059 0.0
H552 H 0.79667 0.4452 0.33855 0.0
H553 H 0.89377 0.47885 0.44502 0.0
H554 H 0.77811 0.46723 0.36831 0.0
O555 O 0.90509 0.48432 0.34475 0.0
H556 H 0.86918 0.43189 0.25386 0.0
H557 H 0.91957 0.49358 0.27433 0.0
H558 H 0.93324 0.46365 0.24969 0.0
H559 H 0.90794 0.43254 0.23922 0.0
H560 H 0.85633 0.46199 0.27878 0.0
H561 H 0.88554 0.53914 0.22239 0.0
H562 H 0.90799 0.57102 0.23645 0.0
O563 O 0.90608 0.50363 0.31274 0.0
C564 C 0.86439 0.52872 0.33895 0.0
C565 C 0.90713 0.5597 0.27051 0.0
C566 C 0.8895 0.54043 0.23995 0.0
N567 N 0.8871 0.52564 0.27711 0.0
C568 C 0.89942 0.54314 0.28497 0.0
C569 C 0.88208 0.52418 0.25491 0.0
C570 C 0.90211 0.5583 0.24786 0.0
C571 C 0.82891 0.46005 0.34439 0.0
N572 N 0.84103 0.47496 0.35667 0.0
C573 C 0.80615 0.457 0.34839 0.0
C574 C 0.79573 0.46941 0.36505 0.0
C575 C 0.80811 0.48471 0.3774 0.0
C576 C 0.83082 0.48732 0.37291 0.0
C577 C 0.87659 0.46209 0.41833 0.0
C578 C 0.89234 0.49588 0.39104 0.0
C579 C 0.87157 0.46252 0.39558 0.0
N580 N 0.87933 0.47935 0.38226 0.0
C581 C 0.89771 0.49599 0.41372 0.0
C582 C 0.88974 0.47897 0.42742 0.0
C583 C 0.91553 0.49536 0.32985 0.0
C584 C 0.88037 0.44535 0.25831 0.0
C585 C 0.90855 0.47998 0.27012 0.0
C586 C 0.91634 0.46314 0.25603 0.0
C587 C 0.90212 0.44571 0.25012 0.0
N588 N 0.8872 0.47949 0.27813 0.0
C589 C 0.87316 0.46249 0.27235 0.0
Co590 Co 0.51202 0.8691 0.34964 0.0
Co591 Co 0.49072 0.87858 0.29789 0.0
O592 O 0.51114 0.8628 0.3178 0.0
C593 C 0.56112 0.87227 0.34114 0.0
O594 O 0.55791 0.88941 0.32787 0.0
C595 C 0.485 0.83082 0.28594 0.0
O596 O 0.48254 0.82635 0.30724 0.0
O597 O 0.46468 0.86949 0.31648 0.0
O598 O 0.47937 0.87595 0.35028 0.0
H599 H 0.42682 0.92945 0.27897 0.0
H600 H 0.53045 0.82626 0.33318 0.0
O601 O 0.54466 0.86222 0.35005 0.0
H602 H 0.47084 0.80547 0.38592 0.0
H603 H 0.53747 0.85634 0.4287 0.0
H604 H 0.49274 0.90414 0.37888 0.0
H605 H 0.47958 0.84504 0.37879 0.0
H606 H 0.53492 0.84801 0.38849 0.0
O607 O 0.4878 0.85088 0.27947 0.0
H608 H 0.45298 0.91003 0.30408 0.0
H609 H 0.48464 0.87947 0.24853 0.0
H610 H 0.49464 0.91292 0.41902 0.0
H611 H 0.52243 0.78647 0.34003 0.0
H612 H 0.51716 0.88895 0.44423 0.0
H613 H 0.49238 0.77586 0.36651 0.0
O614 O 0.51816 0.90108 0.34331 0.0
H615 H 0.56316 0.8663 0.25751 0.0
H616 H 0.50603 0.92173 0.27828 0.0
H617 H 0.53878 0.93364 0.25642 0.0
H618 H 0.5676 0.90582 0.24585 0.0
H619 H 0.53024 0.85513 0.27952 0.0
H620 H 0.45868 0.89842 0.22283 0.0
H621 H 0.42957 0.92369 0.23802 0.0
O622 O 0.49347 0.90689 0.31572 0.0
C623 C 0.46272 0.87317 0.33733 0.0
C624 C 0.43946 0.91852 0.27215 0.0
C625 C 0.45733 0.90108 0.24064 0.0
N626 N 0.4704 0.89372 0.27778 0.0
C627 C 0.45436 0.90751 0.28628 0.0
C628 C 0.47193 0.89035 0.25528 0.0
C629 C 0.441 0.91527 0.24917 0.0
C630 C 0.51751 0.82176 0.3449 0.0
N631 N 0.50556 0.83795 0.35562 0.0
C632 C 0.51297 0.79921 0.34864 0.0
C633 C 0.49608 0.79327 0.36347 0.0
C634 C 0.48397 0.80988 0.37435 0.0
C635 C 0.48895 0.83226 0.37019 0.0
C636 C 0.52756 0.86688 0.41789 0.0
C637 C 0.50242 0.89352 0.38975 0.0
C638 C 0.52608 0.86228 0.3951 0.0
N639 N 0.51353 0.87547 0.38136 0.0
C640 C 0.5035 0.89862 0.41247 0.0
C641 C 0.51616 0.88518 0.4266 0.0
C642 C 0.50663 0.91395 0.33092 0.0
C643 C 0.55068 0.87857 0.26196 0.0
C644 C 0.51852 0.90953 0.27379 0.0
C645 C 0.53701 0.91637 0.26138 0.0
C646 C 0.55318 0.90075 0.25544 0.0
N647 N 0.51615 0.88772 0.28006 0.0
C648 C 0.53196 0.87233 0.27436 0.0
Co649 Co 0.12625 0.50773 0.35205 0.0
Co650 Co 0.11993 0.49399 0.29679 0.0
O651 O 0.1343 0.51093 0.32064 0.0
C652 C 0.12267 0.55696 0.34639 0.0
O653 O 0.1079 0.55394 0.3305 0.0
C654 C 0.1686 0.48858 0.28795 0.0
O655 O 0.17229 0.48624 0.3094 0.0
O656 O 0.12611 0.46525 0.31248 0.0
O657 O 0.12109 0.47511 0.34834 0.0
H658 H 0.06836 0.43582 0.26543 0.0
H659 H 0.16879 0.5303 0.34045 0.0
O660 O 0.13133 0.54037 0.35644 0.0
H661 H 0.19025 0.46528 0.38607 0.0
H662 H 0.13423 0.52412 0.43406 0.0
H663 H 0.09142 0.48294 0.37712 0.0
H664 H 0.15067 0.47292 0.37792 0.0
H665 H 0.14422 0.52701 0.39425 0.0
O666 O 0.14891 0.49155 0.28061 0.0
H667 H 0.08645 0.45762 0.29528 0.0
H668 H 0.1235 0.49407 0.2471 0.0
H669 H 0.08101 0.47941 0.41676 0.0
H670 H 0.20855 0.52345 0.34848 0.0
H671 H 0.10247 0.5001 0.44555 0.0
H672 H 0.21951 0.49069 0.37137 0.0
O673 O 0.09414 0.51302 0.34533 0.0
H674 H 0.13973 0.57033 0.26836 0.0
H675 H 0.08023 0.51388 0.27412 0.0
H676 H 0.07228 0.54982 0.25578 0.0
H677 H 0.10219 0.57834 0.25276 0.0
H678 H 0.14684 0.53423 0.28679 0.0
H679 H 0.10599 0.47249 0.21675 0.0
H680 H 0.07812 0.44319 0.22584 0.0
O681 O 0.09036 0.49621 0.31205 0.0
C682 C 0.12323 0.46054 0.33302 0.0
C683 C 0.08043 0.44858 0.26126 0.0
C684 C 0.10158 0.46913 0.23394 0.0
N685 N 0.10591 0.47719 0.27294 0.0
C686 C 0.09069 0.46102 0.27808 0.0
C687 C 0.1115 0.48125 0.2512 0.0
C688 C 0.08594 0.45271 0.23905 0.0
C689 C 0.1734 0.51615 0.35064 0.0
N690 N 0.15741 0.50207 0.35876 0.0
C691 C 0.19595 0.5123 0.35504 0.0
C692 C 0.20209 0.49389 0.36784 0.0
C693 C 0.18569 0.47961 0.37608 0.0
C694 C 0.1633 0.48398 0.37133 0.0
C695 C 0.12477 0.51499 0.42168 0.0
C696 C 0.10094 0.4919 0.38955 0.0
C697 C 0.13032 0.5166 0.3991 0.0
N698 N 0.1185 0.50506 0.38337 0.0
C699 C 0.09492 0.48987 0.41197 0.0
C700 C 0.10696 0.50151 0.42811 0.0
C701 C 0.08219 0.50509 0.32959 0.0
C702 C 0.12656 0.55804 0.26957 0.0
C703 C 0.09324 0.52626 0.27307 0.0
C704 C 0.08869 0.54656 0.26256 0.0
C705 C 0.10549 0.56254 0.26085 0.0
N706 N 0.11393 0.52197 0.28161 0.0
C707 C 0.13049 0.53755 0.27995 0.0
Co708 Co 0.49453 0.87565 0.64839 0.0
Co709 Co 0.50721 0.88221 0.7038 0.0
O710 O 0.49082 0.8676 0.67973 0.0
C711 C 0.4451 0.87826 0.65308 0.0
O712 O 0.44737 0.89332 0.66884 0.0
C713 C 0.51285 0.83363 0.71286 0.0
O714 O 0.51643 0.8302 0.69153 0.0
O715 O 0.53619 0.87598 0.68867 0.0
O716 O 0.52708 0.88111 0.65261 0.0
H717 H 0.56466 0.93406 0.73602 0.0
H718 H 0.47261 0.83273 0.65986 0.0
O719 O 0.4621 0.86999 0.64342 0.0
H720 H 0.53854 0.81228 0.61512 0.0
H721 H 0.48003 0.86735 0.56606 0.0
H722 H 0.51902 0.91102 0.62388 0.0
H723 H 0.53001 0.85175 0.6229 0.0
H724 H 0.47644 0.85732 0.60581 0.0
O725 O 0.50931 0.85325 0.72018 0.0
H726 H 0.54354 0.91571 0.70584 0.0
H727 H 0.50606 0.87901 0.75349 0.0
H728 H 0.52322 0.92151 0.58432 0.0
H729 H 0.48033 0.79306 0.65217 0.0
H730 H 0.50364 0.8996 0.55509 0.0
H731 H 0.51356 0.78261 0.62974 0.0
O732 O 0.48848 0.90766 0.6551 0.0
H733 H 0.43044 0.86248 0.73103 0.0
H734 H 0.48671 0.92219 0.72545 0.0
H735 H 0.45041 0.93023 0.743 0.0
H736 H 0.42197 0.90022 0.74593 0.0
H737 H 0.4669 0.85526 0.7134 0.0
H738 H 0.52694 0.89679 0.78417 0.0
H739 H 0.55641 0.92461 0.77552 0.0
O740 O 0.50522 0.91171 0.68836 0.0
C741 C 0.5413 0.87872 0.66821 0.0
C742 C 0.55183 0.922 0.74001 0.0
C743 C 0.53067 0.90106 0.76703 0.0
N744 N 0.5235 0.89641 0.7279 0.0
C745 C 0.53977 0.9116 0.72299 0.0
C746 C 0.51896 0.89099 0.74958 0.0
C747 C 0.5472 0.91668 0.76216 0.0
C748 C 0.48695 0.82834 0.64985 0.0
N749 N 0.50079 0.84456 0.64179 0.0
C750 C 0.4913 0.80584 0.64565 0.0
C751 C 0.50997 0.79998 0.6331 0.0
C752 C 0.524 0.81662 0.62491 0.0
C753 C 0.51913 0.83895 0.62944 0.0
C754 C 0.48868 0.877 0.57864 0.0
C755 C 0.51055 0.90133 0.61126 0.0
C756 C 0.48667 0.87143 0.60118 0.0
N757 N 0.49764 0.88348 0.61714 0.0
C758 C 0.51294 0.90738 0.58888 0.0
C759 C 0.50193 0.89509 0.57249 0.0
C760 C 0.49607 0.91976 0.67089 0.0
C761 C 0.4427 0.87569 0.72988 0.0
C762 C 0.47439 0.90911 0.72651 0.0
C763 C 0.45388 0.91372 0.73656 0.0
C764 C 0.43795 0.89687 0.73821 0.0
N765 N 0.47894 0.8883 0.71839 0.0
C766 C 0.4634 0.87169 0.71996 0.0
Co767 Co 0.12813 0.4896 0.64904 0.0
Co768 Co 0.12176 0.50855 0.70219 0.0
O769 O 0.13548 0.48826 0.68067 0.0
C770 C 0.12147 0.44003 0.65332 0.0
O771 O 0.10354 0.44306 0.66552 0.0
C772 C 0.17009 0.51126 0.71321 0.0
O773 O 0.1743 0.5151 0.69206 0.0
O774 O 0.13204 0.53494 0.68473 0.0
O775 O 0.12352 0.52258 0.65045 0.0
H776 H 0.07607 0.57464 0.72621 0.0
H777 H 0.17015 0.4677 0.66325 0.0
O778 O 0.13295 0.4566 0.64658 0.0
H779 H 0.19323 0.52857 0.61293 0.0
H780 H 0.13679 0.46806 0.56828 0.0
H781 H 0.09378 0.51303 0.62211 0.0
H782 H 0.1534 0.52192 0.6208 0.0
H783 H 0.14637 0.46757 0.60829 0.0
O784 O 0.15008 0.50862 0.71985 0.0
H785 H 0.09297 0.54872 0.6991 0.0
H786 H 0.12261 0.51183 0.75183 0.0
H787 H 0.0838 0.51419 0.58222 0.0
H788 H 0.21015 0.47361 0.65564 0.0
H789 H 0.10537 0.49157 0.555 0.0
H790 H 0.22191 0.50428 0.63037 0.0
O791 O 0.09594 0.48538 0.65609 0.0
H792 H 0.13026 0.43335 0.73829 0.0
H793 H 0.07825 0.49505 0.72229 0.0
H794 H 0.06478 0.46202 0.74279 0.0
H795 H 0.09089 0.43089 0.75096 0.0
H796 H 0.14299 0.46663 0.71768 0.0
H797 H 0.1062 0.53747 0.77951 0.0
H798 H 0.08266 0.56909 0.76674 0.0
O799 O 0.0929 0.50877 0.6852 0.0
C800 C 0.12795 0.53824 0.66414 0.0
C801 C 0.08625 0.56089 0.73198 0.0
C802 C 0.10319 0.54005 0.7619 0.0
N803 N 0.10865 0.52869 0.72387 0.0
C804 C 0.09582 0.54612 0.71671 0.0
C805 C 0.11249 0.52562 0.74614 0.0
C806 C 0.08997 0.55778 0.75472 0.0
C807 C 0.17513 0.48093 0.65206 0.0
N808 N 0.15945 0.49437 0.6424 0.0
C809 C 0.19781 0.48426 0.64789 0.0
C810 C 0.2044 0.5015 0.63374 0.0
C811 C 0.18831 0.51514 0.62396 0.0
C812 C 0.16578 0.51133 0.62852 0.0
C813 C 0.12729 0.47802 0.57998 0.0
C814 C 0.10334 0.50324 0.61036 0.0
C815 C 0.1326 0.47776 0.60267 0.0
N816 N 0.12073 0.49036 0.61753 0.0
C817 C 0.09757 0.50392 0.5878 0.0
C818 C 0.10966 0.49121 0.57253 0.0
C819 C 0.08437 0.49727 0.66943 0.0
C820 C 0.11874 0.44683 0.73488 0.0
C821 C 0.0897 0.48155 0.72573 0.0
C822 C 0.08199 0.46291 0.73738 0.0
C823 C 0.09664 0.44545 0.74197 0.0
N824 N 0.11143 0.48282 0.71891 0.0
C825 C 0.12587 0.46575 0.72328 0.0
Co826 Co 0.49988 0.13127 0.6517 0.0
Co827 Co 0.49118 0.1244 0.7085 0.0
O828 O 0.50783 0.13659 0.68299 0.0
C829 C 0.5503 0.12577 0.65353 0.0
O830 O 0.55147 0.13009 0.67493 0.0
C831 C 0.49193 0.17332 0.71737 0.0
O832 O 0.48654 0.17706 0.69647 0.0
O833 O 0.46194 0.13414 0.69581 0.0
O834 O 0.46787 0.13575 0.65881 0.0
H835 H 0.43032 0.08024 0.74558 0.0
H836 H 0.53294 0.16661 0.66405 0.0
O837 O 0.53178 0.12618 0.64311 0.0
H838 H 0.47414 0.20538 0.62177 0.0
H839 H 0.50925 0.13814 0.56848 0.0
H840 H 0.46385 0.10593 0.62908 0.0
H841 H 0.47186 0.16486 0.62823 0.0
H842 H 0.519 0.14506 0.60784 0.0
O843 O 0.49403 0.15344 0.72455 0.0
H844 H 0.45121 0.09569 0.71368 0.0
H845 H 0.49649 0.12754 0.75791 0.0
H846 H 0.45331 0.09887 0.58989 0.0
H847 H 0.53602 0.207 0.65773 0.0
H848 H 0.4762 0.11497 0.55931 0.0
H849 H 0.50645 0.22675 0.63648 0.0
O850 O 0.49711 0.09846 0.65704 0.0
H851 H 0.57065 0.13465 0.73329 0.0
H852 H 0.50819 0.08148 0.72724 0.0
H853 H 0.54397 0.0689 0.74308 0.0
H854 H 0.5755 0.09559 0.74628 0.0
H855 H 0.5347 0.14643 0.71718 0.0
H856 H 0.47599 0.11259 0.79029 0.0
H857 H 0.44269 0.08867 0.78423 0.0
O858 O 0.48814 0.09514 0.69324 0.0
C859 C 0.45531 0.13712 0.67584 0.0
C860 C 0.44482 0.09061 0.74844 0.0
C861 C 0.47043 0.10879 0.77353 0.0
N862 N 0.47508 0.11246 0.73391 0.0
C863 C 0.45673 0.09938 0.73044 0.0
C864 C 0.48193 0.11727 0.75513 0.0
C865 C 0.45176 0.09536 0.77012 0.0
C866 C 0.52021 0.17486 0.65445 0.0
N867 N 0.50249 0.16316 0.64618 0.0
C868 C 0.52195 0.19785 0.65107 0.0
C869 C 0.50533 0.20893 0.6392 0.0
C870 C 0.48721 0.19696 0.63094 0.0
C871 C 0.48602 0.17399 0.63467 0.0
C872 C 0.49916 0.13105 0.58167 0.0
C873 C 0.47375 0.11314 0.61584 0.0
C874 C 0.50464 0.13484 0.60399 0.0
N875 N 0.49192 0.12601 0.62074 0.0
C876 C 0.46775 0.10903 0.59369 0.0
C877 C 0.48058 0.11806 0.57653 0.0
C878 C 0.49153 0.08683 0.67397 0.0
C879 C 0.55704 0.12286 0.732 0.0
C880 C 0.52189 0.09314 0.7283 0.0
C881 C 0.54208 0.08594 0.73742 0.0
C882 C 0.55976 0.10094 0.73925 0.0
N883 N 0.51936 0.11465 0.72116 0.0
C884 C 0.5366 0.12946 0.72297 0.0
Co885 Co 0.8746 0.52 0.65266 0.0
Co886 Co 0.88099 0.49176 0.70157 0.0
O887 O 0.86809 0.51628 0.68428 0.0
C888 C 0.88539 0.56783 0.66323 0.0
O889 O 0.90379 0.56182 0.67346 0.0
C890 C 0.83284 0.49068 0.71356 0.0
O891 O 0.82796 0.49102 0.69221 0.0
O892 O 0.86874 0.46937 0.68014 0.0
O893 O 0.87717 0.48708 0.6483 0.0
H894 H 0.92298 0.42 0.71247 0.0
H895 H 0.83441 0.54167 0.67165 0.0
O896 O 0.87184 0.55322 0.65584 0.0
H897 H 0.80638 0.49169 0.61261 0.0
H898 H 0.86548 0.55536 0.57692 0.0
H899 H 0.90724 0.50005 0.62123 0.0
H900 H 0.84671 0.49449 0.62022 0.0
H901 H 0.85666 0.54946 0.61668 0.0
O902 O 0.85311 0.49034 0.71989 0.0
H903 H 0.90718 0.45115 0.69074 0.0
H904 H 0.88095 0.48 0.74992 0.0
H905 H 0.91639 0.5052 0.58147 0.0
H906 H 0.79395 0.53956 0.66443 0.0
H907 H 0.89545 0.53301 0.55905 0.0
H908 H 0.7797 0.51437 0.63476 0.0
O909 O 0.90711 0.52099 0.65932 0.0
H910 H 0.87796 0.55998 0.75025 0.0
H911 H 0.92565 0.49901 0.72238 0.0
H912 H 0.94157 0.52716 0.7478 0.0
H913 H 0.91765 0.55789 0.76197 0.0
H914 H 0.86276 0.53158 0.72463 0.0
H915 H 0.89631 0.44905 0.77226 0.0
H916 H 0.91758 0.41881 0.75354 0.0
O917 O 0.90947 0.49286 0.68394 0.0
C918 C 0.87235 0.46944 0.65918 0.0
C919 C 0.91379 0.43311 0.72082 0.0
C920 C 0.89879 0.44939 0.75438 0.0
N921 N 0.89327 0.46745 0.71905 0.0
C922 C 0.90484 0.45082 0.70861 0.0
C923 C 0.89008 0.46684 0.74163 0.0
C924 C 0.91074 0.43244 0.74387 0.0
C925 C 0.82834 0.53084 0.65856 0.0
N926 N 0.84291 0.5183 0.64631 0.0
C927 C 0.80541 0.52964 0.65461 0.0
C928 C 0.79743 0.51548 0.63799 0.0
C929 C 0.81239 0.50273 0.62557 0.0
C930 C 0.8352 0.50435 0.63 0.0
C931 C 0.87467 0.54312 0.58651 0.0
C932 C 0.89791 0.51204 0.61155 0.0
C933 C 0.86978 0.53973 0.60905 0.0
N934 N 0.88127 0.52424 0.62124 0.0
C935 C 0.90323 0.51495 0.58906 0.0
C936 C 0.89149 0.53059 0.57649 0.0
C937 C 0.91831 0.50652 0.67018 0.0
C938 C 0.88854 0.54663 0.74424 0.0
C939 C 0.91514 0.51236 0.72841 0.0
C940 C 0.92424 0.52823 0.74284 0.0
C941 C 0.91081 0.54547 0.75079 0.0
N942 N 0.89325 0.51357 0.72212 0.0
C943 C 0.88 0.53047 0.72978 0.0
Co944 Co 0.35166 0.50061 0.12857 0.0
Co945 Co 0.29511 0.50626 0.1215 0.0
O946 O 0.32096 0.49253 0.13568 0.0
C947 C 0.35226 0.45136 0.12308 0.0
O948 O 0.33591 0.45307 0.1086 0.0
C949 C 0.28496 0.50966 0.17002 0.0
O950 O 0.30503 0.51771 0.17351 0.0
O951 O 0.30623 0.53679 0.1289 0.0
O952 O 0.34335 0.53257 0.12516 0.0
H953 H 0.25587 0.56095 0.07154 0.0
H954 H 0.34208 0.47469 0.16967 0.0
O955 O 0.36055 0.4687 0.13215 0.0
H956 H 0.37794 0.54411 0.19548 0.0
H957 H 0.435 0.49668 0.13833 0.0
H958 H 0.37338 0.53058 0.09566 0.0
H959 H 0.37213 0.53728 0.15534 0.0
H960 H 0.39592 0.4868 0.14662 0.0
O961 O 0.27858 0.50486 0.15034 0.0
H962 H 0.28847 0.54326 0.08935 0.0
H963 H 0.24599 0.49855 0.12425 0.0
H964 H 0.4122 0.5411 0.08698 0.0
H965 H 0.34782 0.48074 0.20996 0.0
H966 H 0.44333 0.52416 0.10845 0.0
H967 H 0.3658 0.51569 0.2231 0.0
O968 O 0.3463 0.49601 0.09601 0.0
H969 H 0.27787 0.42585 0.13786 0.0
H970 H 0.27661 0.48475 0.0805 0.0
H971 H 0.26395 0.44684 0.07081 0.0
H972 H 0.26448 0.41707 0.09964 0.0
H973 H 0.29061 0.46395 0.14673 0.0
H974 H 0.21292 0.5159 0.107 0.0
H975 H 0.21776 0.54728 0.08035 0.0
O976 O 0.31086 0.50756 0.09221 0.0
C977 C 0.32597 0.54456 0.12737 0.0
C978 C 0.25355 0.54726 0.08309 0.0
C979 C 0.22944 0.522 0.10301 0.0
N980 N 0.26915 0.51982 0.10773 0.0
C981 C 0.27195 0.53714 0.09318 0.0
C982 C 0.24823 0.51229 0.11279 0.0
C983 C 0.23217 0.53959 0.08805 0.0
C984 C 0.35014 0.48983 0.17524 0.0
N985 N 0.35687 0.50555 0.16015 0.0
C986 C 0.35325 0.49321 0.19808 0.0
C987 C 0.36331 0.51284 0.20544 0.0
C988 C 0.37011 0.5288 0.18996 0.0
C989 C 0.36672 0.52486 0.16725 0.0
C990 C 0.42158 0.50421 0.1289 0.0
C991 C 0.38683 0.52318 0.10512 0.0
C992 C 0.39942 0.49863 0.13347 0.0
N993 N 0.38238 0.50822 0.12174 0.0
C994 C 0.40878 0.52916 0.10009 0.0
C995 C 0.42625 0.51963 0.11212 0.0
C996 C 0.32964 0.50176 0.08404 0.0
C997 C 0.27754 0.43868 0.12516 0.0
C998 C 0.27707 0.47187 0.09306 0.0
C999 C 0.26978 0.45045 0.08752 0.0
C1000 C 0.27006 0.43376 0.10371 0.0
N1001 N 0.28439 0.47659 0.11414 0.0
C1002 C 0.28468 0.46031 0.1301 0.0
Co1003 Co 0.35264 0.52166 0.87331 0.0
Co1004 Co 0.29929 0.49978 0.87874 0.0
O1005 O 0.32043 0.52214 0.86723 0.0
C1006 C 0.33915 0.57035 0.8782 0.0
O1007 O 0.31824 0.56654 0.87308 0.0
C1008 C 0.29021 0.49985 0.82967 0.0
O1009 O 0.31173 0.49997 0.82564 0.0
O1010 O 0.31848 0.47455 0.86844 0.0
O1011 O 0.3532 0.48883 0.86861 0.0
H1012 H 0.27692 0.43084 0.92094 0.0
H1013 H 0.33342 0.55071 0.83741 0.0
O1014 O 0.35354 0.55473 0.87853 0.0
H1015 H 0.39011 0.50436 0.80019 0.0
H1016 H 0.43162 0.55023 0.86907 0.0
H1017 H 0.38225 0.4917 0.89923 0.0
H1018 H 0.38326 0.50049 0.84052 0.0
H1019 H 0.39132 0.55054 0.86077 0.0
O1020 O 0.283 0.49957 0.84964 0.0
H1021 H 0.30325 0.45893 0.90639 0.0
H1022 H 0.24997 0.49377 0.87532 0.0
H1023 H 0.42251 0.49058 0.90768 0.0
H1024 H 0.33996 0.55536 0.79723 0.0
H1025 H 0.44748 0.52001 0.89258 0.0
H1026 H 0.36845 0.53204 0.77825 0.0
O1027 O 0.34735 0.5175 0.90594 0.0
H1028 H 0.25714 0.57178 0.87012 0.0
H1029 H 0.27679 0.5109 0.92179 0.0
H1030 H 0.25312 0.54179 0.93503 0.0
H1031 H 0.24306 0.5725 0.90909 0.0
H1032 H 0.28109 0.54075 0.85769 0.0
H1033 H 0.22309 0.46598 0.88937 0.0
H1034 H 0.23651 0.43427 0.91243 0.0
O1035 O 0.31464 0.49948 0.90811 0.0
C1036 C 0.33956 0.47271 0.8663 0.0
C1037 C 0.27086 0.44459 0.91091 0.0
C1038 C 0.24066 0.46429 0.89317 0.0
N1039 N 0.27818 0.47797 0.89001 0.0
C1040 C 0.28569 0.46055 0.90264 0.0
C1041 C 0.25597 0.47993 0.88519 0.0
C1042 C 0.2482 0.44651 0.90612 0.0
C1043 C 0.34613 0.54079 0.82953 0.0
N1044 N 0.3582 0.52565 0.84156 0.0
C1045 C 0.34964 0.54337 0.80664 0.0
C1046 C 0.36558 0.53024 0.79599 0.0
C1047 C 0.37773 0.51472 0.80828 0.0
C1048 C 0.37375 0.51259 0.83114 0.0
C1049 C 0.42092 0.53728 0.87571 0.0
C1050 C 0.39304 0.50446 0.89244 0.0
C1051 C 0.39807 0.53741 0.87113 0.0
N1052 N 0.38446 0.52106 0.87939 0.0
C1053 C 0.41581 0.50379 0.89735 0.0
C1054 C 0.42981 0.52032 0.8889 0.0
C1055 C 0.33224 0.50738 0.91698 0.0
C1056 C 0.2614 0.5585 0.88159 0.0
C1057 C 0.27275 0.52432 0.91048 0.0
C1058 C 0.25921 0.54171 0.91803 0.0
C1059 C 0.25354 0.55891 0.90346 0.0
N1060 N 0.28045 0.52406 0.88901 0.0
C1061 C 0.2749 0.54083 0.87462 0.0
Co1062 Co 0.50475 0.35893 0.87552 0.0
Co1063 Co 0.51045 0.30235 0.88191 0.0
O1064 O 0.49695 0.32828 0.8675 0.0
C1065 C 0.45515 0.36014 0.87855 0.0
O1066 O 0.45576 0.34363 0.89294 0.0
C1067 C 0.51452 0.29185 0.83336 0.0
O1068 O 0.52046 0.31252 0.82925 0.0
O1069 O 0.54098 0.31365 0.87504 0.0
O1070 O 0.53656 0.35053 0.88047 0.0
H1071 H 0.5645 0.26344 0.93279 0.0
H1072 H 0.48083 0.35036 0.83302 0.0
O1073 O 0.4731 0.36809 0.87043 0.0
H1074 H 0.5516 0.38629 0.81136 0.0
H1075 H 0.50145 0.44245 0.86689 0.0
H1076 H 0.53289 0.38007 0.91037 0.0
H1077 H 0.54284 0.37961 0.85099 0.0
H1078 H 0.49206 0.40352 0.85741 0.0
O1079 O 0.51002 0.28561 0.85314 0.0
H1080 H 0.54697 0.29593 0.91462 0.0
H1081 H 0.50284 0.25317 0.87932 0.0
H1082 H 0.54288 0.41875 0.92029 0.0
H1083 H 0.4888 0.35702 0.79321 0.0
H1084 H 0.52715 0.45026 0.89845 0.0
H1085 H 0.52444 0.37503 0.78215 0.0
O1086 O 0.49843 0.35307 0.90771 0.0
H1087 H 0.43061 0.28463 0.86362 0.0
H1088 H 0.48805 0.2838 0.92245 0.0
H1089 H 0.45001 0.2709 0.93119 0.0
H1090 H 0.42097 0.2712 0.90163 0.0
H1091 H 0.46884 0.29761 0.8557 0.0
H1092 H 0.52005 0.22021 0.89692 0.0
H1093 H 0.55105 0.22524 0.92395 0.0
O1094 O 0.51104 0.31802 0.91126 0.0
C1095 C 0.54867 0.33328 0.87775 0.0
C1096 C 0.55098 0.26103 0.92108 0.0
C1097 C 0.52605 0.23677 0.90092 0.0
N1098 N 0.52384 0.27647 0.896 0.0
C1099 C 0.54095 0.27937 0.91077 0.0
C1100 C 0.51642 0.25549 0.89094 0.0
C1101 C 0.54344 0.2396 0.91609 0.0
C1102 C 0.49627 0.35843 0.82836 0.0
N1103 N 0.5113 0.36466 0.84433 0.0
C1104 C 0.50073 0.36206 0.80578 0.0
C1105 C 0.52075 0.37214 0.79959 0.0
C1106 C 0.536 0.37844 0.81597 0.0
C1107 C 0.53098 0.37454 0.83838 0.0
C1108 C 0.50844 0.42886 0.87651 0.0
C1109 C 0.52604 0.39369 0.90073 0.0
C1110 C 0.50313 0.40678 0.87126 0.0
N1111 N 0.51204 0.38953 0.88323 0.0
C1112 C 0.53172 0.41556 0.90646 0.0
C1113 C 0.52287 0.43323 0.89421 0.0
C1114 C 0.50438 0.33643 0.91959 0.0
C1115 C 0.44312 0.28439 0.87664 0.0
C1116 C 0.4755 0.28416 0.90956 0.0
C1117 C 0.45399 0.27673 0.91457 0.0
C1118 C 0.43771 0.27688 0.89797 0.0
N1119 N 0.48068 0.29148 0.8886 0.0
C1120 C 0.46481 0.29167 0.87224 0.0
Co1121 Co 0.653 0.48321 0.87201 0.0
Co1122 Co 0.70487 0.50715 0.88095 0.0
O1123 O 0.68544 0.48389 0.86827 0.0
C1124 C 0.66777 0.43512 0.87826 0.0
O1125 O 0.68901 0.43974 0.87597 0.0
C1126 C 0.71588 0.50714 0.83266 0.0
O1127 O 0.6944 0.50797 0.82844 0.0
O1128 O 0.68565 0.53158 0.86907 0.0
O1129 O 0.6515 0.51611 0.86773 0.0
H1130 H 0.72247 0.5772 0.92359 0.0
H1131 H 0.67533 0.455 0.83759 0.0
O1132 O 0.65283 0.45011 0.87664 0.0
H1133 H 0.62037 0.50024 0.79651 0.0
H1134 H 0.57543 0.45222 0.86213 0.0
H1135 H 0.62082 0.51165 0.89649 0.0
H1136 H 0.62405 0.50385 0.8373 0.0
H1137 H 0.61617 0.45337 0.85642 0.0
O1138 O 0.72282 0.50725 0.85275 0.0
H1139 H 0.69795 0.54813 0.90788 0.0
H1140 H 0.75399 0.51487 0.88013 0.0
H1141 H 0.58008 0.51131 0.90236 0.0
H1142 H 0.67201 0.45064 0.79692 0.0
H1143 H 0.55712 0.48141 0.88514 0.0
H1144 H 0.64441 0.47341 0.77604 0.0
O1145 O 0.65629 0.48689 0.90485 0.0
H1146 H 0.75035 0.43678 0.87661 0.0
H1147 H 0.72418 0.49734 0.92576 0.0
H1148 H 0.74795 0.46757 0.94124 0.0
H1149 H 0.76128 0.43704 0.91659 0.0
H1150 H 0.72624 0.46666 0.8619 0.0
H1151 H 0.77912 0.54366 0.8954 0.0
H1152 H 0.76338 0.57507 0.91738 0.0
O1153 O 0.68738 0.50744 0.90936 0.0
C1154 C 0.66465 0.5327 0.866 0.0
C1155 C 0.72953 0.56358 0.91407 0.0
C1156 C 0.76132 0.54477 0.89822 0.0
N1157 N 0.72452 0.52979 0.89316 0.0
C1158 C 0.71573 0.54706 0.90516 0.0
C1159 C 0.747 0.52855 0.88956 0.0
C1160 C 0.75248 0.56239 0.91056 0.0
C1161 C 0.66304 0.46472 0.82878 0.0
N1162 N 0.64972 0.47946 0.83996 0.0
C1163 C 0.66134 0.46229 0.80567 0.0
C1164 C 0.64589 0.4751 0.79395 0.0
C1165 C 0.63241 0.49016 0.80543 0.0
C1166 C 0.6346 0.49216 0.82854 0.0
C1167 C 0.58525 0.46536 0.86967 0.0
C1168 C 0.61091 0.4987 0.88878 0.0
C1169 C 0.60834 0.46607 0.86656 0.0
N1170 N 0.62085 0.48267 0.87599 0.0
C1171 C 0.58786 0.49854 0.89223 0.0
C1172 C 0.57499 0.48175 0.88259 0.0
C1173 C 0.66983 0.49805 0.91688 0.0
C1174 C 0.74467 0.45 0.88752 0.0
C1175 C 0.72969 0.48399 0.91496 0.0
C1176 C 0.74326 0.46724 0.9238 0.0
C1177 C 0.75076 0.45014 0.90996 0.0
N1178 N 0.72374 0.48372 0.89294 0.0
C1179 C 0.73108 0.46703 0.87926 0.0
Co1180 Co 0.49919 0.64794 0.87099 0.0
Co1181 Co 0.49498 0.70457 0.87836 0.0
O1182 O 0.50806 0.67849 0.86385 0.0
C1183 C 0.54852 0.64577 0.87546 0.0
O1184 O 0.54769 0.6626 0.88946 0.0
C1185 C 0.49214 0.71592 0.82992 0.0
O1186 O 0.48396 0.69603 0.82571 0.0
O1187 O 0.46422 0.69432 0.87065 0.0
O1188 O 0.46754 0.65717 0.87496 0.0
H1189 H 0.44101 0.74445 0.92857 0.0
H1190 H 0.52469 0.65687 0.82952 0.0
O1191 O 0.53071 0.63798 0.86689 0.0
H1192 H 0.45386 0.62314 0.80474 0.0
H1193 H 0.5005 0.56451 0.86101 0.0
H1194 H 0.46921 0.62702 0.9044 0.0
H1195 H 0.4615 0.62865 0.84477 0.0
H1196 H 0.51127 0.60333 0.85252 0.0
O1197 O 0.4969 0.7216 0.84981 0.0
H1198 H 0.45794 0.71168 0.91034 0.0
H1199 H 0.5041 0.75352 0.87657 0.0
H1200 H 0.45782 0.58848 0.91328 0.0
H1201 H 0.51784 0.65141 0.78931 0.0
H1202 H 0.47349 0.55691 0.8915 0.0
H1203 H 0.48217 0.6345 0.77669 0.0
O1204 O 0.50456 0.65305 0.90347 0.0
H1205 H 0.57582 0.71997 0.86246 0.0
H1206 H 0.51685 0.7219 0.9197 0.0
H1207 H 0.55503 0.73342 0.92966 0.0
H1208 H 0.58485 0.73255 0.90089 0.0
H1209 H 0.53744 0.70834 0.85331 0.0
H1210 H 0.48751 0.78677 0.89426 0.0
H1211 H 0.4558 0.78233 0.92055 0.0
O1212 O 0.49316 0.68849 0.90745 0.0
C1213 C 0.45596 0.6748 0.8725 0.0
C1214 C 0.45485 0.7466 0.91718 0.0
C1215 C 0.48093 0.77035 0.89789 0.0
N1216 N 0.48205 0.73067 0.89248 0.0
C1217 C 0.46453 0.7281 0.90684 0.0
C1218 C 0.4902 0.75147 0.88786 0.0
C1219 C 0.46314 0.76785 0.91266 0.0
C1220 C 0.50923 0.64929 0.82417 0.0
N1221 N 0.49357 0.64299 0.83949 0.0
C1222 C 0.5054 0.64633 0.80137 0.0
C1223 C 0.48537 0.63687 0.7943 0.0
C1224 C 0.46947 0.63051 0.81003 0.0
C1225 C 0.47387 0.63372 0.83268 0.0
C1226 C 0.49354 0.57813 0.8706 0.0
C1227 C 0.47604 0.61338 0.89478 0.0
C1228 C 0.49963 0.60014 0.86592 0.0
N1229 N 0.49077 0.61744 0.87786 0.0
C1230 C 0.46956 0.59159 0.89992 0.0
C1231 C 0.47837 0.57388 0.8877 0.0
C1232 C 0.49895 0.66968 0.91554 0.0
C1233 C 0.56298 0.72044 0.87513 0.0
C1234 C 0.52973 0.72129 0.90716 0.0
C1235 C 0.55132 0.72794 0.91286 0.0
C1236 C 0.56804 0.72747 0.89671 0.0
N1237 N 0.52489 0.7144 0.88597 0.0
C1238 C 0.54119 0.71393 0.87004 0.0
Co1239 Co 0.64655 0.50189 0.12745 0.0
Co1240 Co 0.70189 0.49174 0.11886 0.0
O1241 O 0.67784 0.50766 0.13403 0.0
C1242 C 0.64709 0.55164 0.12415 0.0
O1243 O 0.66256 0.55047 0.10868 0.0
C1244 C 0.7136 0.48762 0.16678 0.0
O1245 O 0.69328 0.4803 0.17045 0.0
O1246 O 0.68893 0.46245 0.12765 0.0
O1247 O 0.65257 0.46955 0.12193 0.0
H1248 H 0.7348 0.43305 0.06882 0.0
H1249 H 0.65873 0.52447 0.16973 0.0
O1250 O 0.63949 0.53398 0.13318 0.0
H1251 H 0.61865 0.45623 0.19225 0.0
H1252 H 0.56381 0.51055 0.13916 0.0
H1253 H 0.62238 0.47571 0.09308 0.0
H1254 H 0.62403 0.46514 0.15246 0.0
H1255 H 0.60357 0.51711 0.14744 0.0
O1256 O 0.71977 0.49263 0.14706 0.0
H1257 H 0.70438 0.45349 0.08752 0.0
H1258 H 0.75144 0.49594 0.11921 0.0
H1259 H 0.58282 0.46854 0.08434 0.0
H1260 H 0.65349 0.51634 0.20974 0.0
H1261 H 0.55321 0.48599 0.1075 0.0
H1262 H 0.6334 0.48195 0.22121 0.0
O1263 O 0.65185 0.5083 0.09529 0.0
H1264 H 0.72643 0.57087 0.13174 0.0
H1265 H 0.71876 0.51078 0.07606 0.0
H1266 H 0.73372 0.54732 0.06449 0.0
H1267 H 0.73769 0.57766 0.09244 0.0
H1268 H 0.71137 0.53413 0.14256 0.0
H1269 H 0.78239 0.47584 0.10101 0.0
H1270 H 0.77414 0.44421 0.07553 0.0
O1271 O 0.68455 0.49064 0.09023 0.0
C1272 C 0.66881 0.45618 0.12499 0.0
C1273 C 0.73861 0.44685 0.07984 0.0
C1274 C 0.76532 0.47084 0.09793 0.0
N1275 N 0.72612 0.47598 0.10432 0.0
C1276 C 0.72144 0.45852 0.09043 0.0
C1277 C 0.74773 0.48212 0.10824 0.0
C1278 C 0.76068 0.4531 0.08363 0.0
C1279 C 0.64976 0.5096 0.1746 0.0
N1280 N 0.64163 0.49535 0.15877 0.0
C1281 C 0.64693 0.50503 0.19727 0.0
C1282 C 0.63568 0.48572 0.2037 0.0
C1283 C 0.62742 0.47127 0.18746 0.0
C1284 C 0.63057 0.47638 0.16495 0.0
C1285 C 0.57655 0.50281 0.12898 0.0
C1286 C 0.6096 0.4833 0.10329 0.0
C1287 C 0.5991 0.50651 0.13354 0.0
N1288 N 0.61529 0.49668 0.12085 0.0
C1289 C 0.58722 0.47921 0.09823 0.0
C1290 C 0.57062 0.48903 0.11121 0.0
C1291 C 0.66681 0.49978 0.08279 0.0
C1292 C 0.72484 0.55776 0.11942 0.0
C1293 C 0.72038 0.52391 0.08832 0.0
C1294 C 0.7289 0.54456 0.08167 0.0
C1295 C 0.73113 0.56157 0.09736 0.0
N1296 N 0.71431 0.52029 0.11 0.0
C1297 C 0.7164 0.5369 0.12547 0.0
Co1298 Co 0.48098 0.64784 0.12645 0.0
Co1299 Co 0.50163 0.70158 0.12043 0.0
O1300 O 0.47969 0.68011 0.13202 0.0
C1301 C 0.43211 0.66034 0.12117 0.0
O1302 O 0.43558 0.68137 0.12602 0.0
C1303 C 0.50059 0.71134 0.16929 0.0
O1304 O 0.50164 0.68987 0.17353 0.0
O1305 O 0.52712 0.68322 0.13147 0.0
O1306 O 0.51382 0.64809 0.1313 0.0
H1307 H 0.57059 0.72498 0.07887 0.0
H1308 H 0.45132 0.66685 0.16198 0.0
O1309 O 0.44795 0.64616 0.12111 0.0
H1310 H 0.49889 0.61183 0.20015 0.0
H1311 H 0.45403 0.56833 0.1316 0.0
H1312 H 0.51169 0.6185 0.10109 0.0
H1313 H 0.50277 0.61824 0.15975 0.0
H1314 H 0.45289 0.60873 0.13942 0.0
O1315 O 0.50085 0.71836 0.14925 0.0
H1316 H 0.54295 0.6982 0.09342 0.0
H1317 H 0.50642 0.75109 0.1232 0.0
H1318 H 0.51363 0.57816 0.09312 0.0
H1319 H 0.44667 0.66075 0.20222 0.0
H1320 H 0.48462 0.55279 0.10839 0.0
H1321 H 0.4706 0.6331 0.22168 0.0
O1322 O 0.48514 0.65279 0.09378 0.0
H1323 H 0.42858 0.74226 0.1271 0.0
H1324 H 0.49067 0.72295 0.07677 0.0
H1325 H 0.45947 0.74563 0.06257 0.0
H1326 H 0.42815 0.75551 0.08784 0.0
H1327 H 0.45993 0.71926 0.14049 0.0
H1328 H 0.53375 0.77843 0.10912 0.0
H1329 H 0.56608 0.76542 0.08671 0.0
O1330 O 0.50279 0.6857 0.09132 0.0
C1331 C 0.52952 0.6622 0.13375 0.0
C1332 C 0.55657 0.73085 0.0886 0.0
C1333 C 0.53591 0.76085 0.10561 0.0
N1334 N 0.52308 0.72305 0.10914 0.0
C1335 C 0.54085 0.71577 0.09687 0.0
C1336 C 0.52052 0.74527 0.1136 0.0
C1337 C 0.55403 0.75354 0.09302 0.0
C1338 C 0.46151 0.6545 0.17007 0.0
N1339 N 0.47699 0.64263 0.15826 0.0
C1340 C 0.45893 0.65124 0.193 0.0
C1341 C 0.47239 0.63576 0.20392 0.0
C1342 C 0.48827 0.62384 0.19185 0.0
C1343 C 0.49038 0.62756 0.16895 0.0
C1344 C 0.46679 0.57921 0.12489 0.0
C1345 C 0.49912 0.60754 0.10795 0.0
C1346 C 0.4662 0.60211 0.1292 0.0
N1347 N 0.4823 0.61595 0.12083 0.0
C1348 C 0.50026 0.58472 0.10332 0.0
C1349 C 0.48396 0.5705 0.11187 0.0
C1350 C 0.49517 0.66786 0.08262 0.0
C1351 C 0.44212 0.73806 0.11592 0.0
C1352 C 0.47699 0.7269 0.08779 0.0
C1353 C 0.45942 0.73989 0.07969 0.0
C1354 C 0.44188 0.74546 0.09389 0.0
N1355 N 0.47708 0.71963 0.10941 0.0
C1356 C 0.45998 0.72511 0.12343 0.0
Co1357 Co 0.5113 0.34968 0.13245 0.0
Co1358 Co 0.49202 0.29647 0.12185 0.0
O1359 O 0.51259 0.31735 0.13618 0.0
C1360 C 0.55873 0.34288 0.1183 0.0
O1361 O 0.55222 0.33084 0.10119 0.0
C1362 C 0.48958 0.28455 0.16986 0.0
O1363 O 0.48781 0.30586 0.17461 0.0
O1364 O 0.46547 0.3138 0.13204 0.0
O1365 O 0.47815 0.34915 0.1336 0.0
H1366 H 0.42673 0.27443 0.07408 0.0
H1367 H 0.53886 0.32976 0.16841 0.0
O1368 O 0.5446 0.35094 0.13193 0.0
H1369 H 0.48549 0.37926 0.20673 0.0
H1370 H 0.53709 0.42857 0.1458 0.0
H1371 H 0.48338 0.38068 0.10588 0.0
H1372 H 0.48535 0.37609 0.1657 0.0
H1373 H 0.53763 0.38774 0.15093 0.0
O1374 O 0.4911 0.27814 0.14967 0.0
H1375 H 0.45272 0.30077 0.09209 0.0
H1376 H 0.48799 0.24686 0.12155 0.0
H1377 H 0.48209 0.42147 0.10046 0.0
H1378 H 0.53976 0.3326 0.20945 0.0
H1379 H 0.50912 0.44569 0.12048 0.0
H1380 H 0.51286 0.35742 0.22889 0.0
O1381 O 0.51023 0.34676 0.09918 0.0
H1382 H 0.56663 0.25933 0.13092 0.0
H1383 H 0.50604 0.27702 0.07819 0.0
H1384 H 0.53909 0.25648 0.06486 0.0
H1385 H 0.56966 0.24745 0.09134 0.0
H1386 H 0.53336 0.28003 0.14349 0.0
H1387 H 0.46228 0.21993 0.10402 0.0
H1388 H 0.43143 0.23368 0.08001 0.0
O1389 O 0.49267 0.3141 0.09378 0.0
C1390 C 0.46256 0.33474 0.13452 0.0
C1391 C 0.44012 0.26823 0.08448 0.0
C1392 C 0.46005 0.23765 0.10131 0.0
N1393 N 0.47187 0.27537 0.10782 0.0
C1394 C 0.4549 0.28307 0.0947 0.0
C1395 C 0.47451 0.25298 0.11126 0.0
C1396 C 0.44276 0.24537 0.08783 0.0
C1397 C 0.52722 0.34072 0.17674 0.0
N1398 N 0.51204 0.35271 0.16468 0.0
C1399 C 0.52776 0.34221 0.19998 0.0
C1400 C 0.51265 0.35612 0.21088 0.0
C1401 C 0.49727 0.36836 0.19846 0.0
C1402 C 0.49721 0.36643 0.17524 0.0
C1403 C 0.5252 0.41819 0.13701 0.0
C1404 C 0.49508 0.39113 0.11478 0.0
C1405 C 0.52546 0.39505 0.1398 0.0
N1406 N 0.51045 0.38184 0.12882 0.0
C1407 C 0.49432 0.41421 0.11159 0.0
C1408 C 0.5095 0.42779 0.12281 0.0
C1409 C 0.50089 0.33234 0.08657 0.0
C1410 C 0.55339 0.26313 0.11924 0.0
C1411 C 0.51931 0.27326 0.08978 0.0
C1412 C 0.53796 0.26156 0.08216 0.0
C1413 C 0.5551 0.25649 0.09702 0.0
N1414 N 0.51773 0.27966 0.11161 0.0
C1415 C 0.53449 0.27479 0.12627 0.0
H1416 H 0.15326 0.42603 0.33093 0.0
H1417 H 0.0872 0.36534 0.42739 0.0
H1418 H 0.0867 0.44304 0.35194 0.0
H1419 H 0.14969 0.34026 0.40237 0.0
H1420 H 0.08414 0.38956 0.39492 0.0
H1421 H 0.15025 0.39065 0.35168 0.0
C1422 C 0.13778 0.4219 0.33929 0.0
C1423 C 0.1202 0.43727 0.33991 0.0
C1424 C 0.09837 0.3785 0.39614 0.0
C1425 C 0.11674 0.39746 0.36381 0.0
C1426 C 0.10002 0.36462 0.41466 0.0
C1427 C 0.11867 0.3509 0.41739 0.0
C1428 C 0.1159 0.37923 0.38057 0.0
C1429 C 0.13498 0.35059 0.40064 0.0
C1430 C 0.13608 0.40184 0.35122 0.0
C1431 C 0.10061 0.43152 0.35121 0.0
N1432 N 0.13348 0.36497 0.38309 0.0
N1433 N 0.0995 0.41222 0.36291 0.0
H1434 H 0.64597 0.16001 0.41698 0.0
H1435 H 0.57973 0.10199 0.31842 0.0
H1436 H 0.65607 0.0917 0.39669 0.0
H1437 H 0.56295 0.16499 0.34861 0.0
H1438 H 0.61582 0.10277 0.3378 0.0
H1439 H 0.62458 0.1666 0.38304 0.0
C1440 C 0.64413 0.14652 0.40507 0.0
C1441 C 0.65237 0.12515 0.40985 0.0
C1442 C 0.60454 0.11677 0.33961 0.0
C1443 C 0.62744 0.13244 0.37119 0.0
C1444 C 0.58408 0.11642 0.32838 0.0
C1445 C 0.56847 0.13342 0.33209 0.0
C1446 C 0.60923 0.13425 0.35454 0.0
C1447 C 0.57459 0.15154 0.34547 0.0
C1448 C 0.63186 0.15028 0.38571 0.0
C1449 C 0.64979 0.10837 0.39372 0.0
N1450 N 0.59437 0.15135 0.35646 0.0
N1451 N 0.63705 0.11222 0.37531 0.0
H1452 H 0.83909 0.61792 0.44562 0.0
H1453 H 0.88524 0.5686 0.33084 0.0
H1454 H 0.89736 0.64412 0.41242 0.0
H1455 H 0.8348 0.5379 0.37182 0.0
H1456 H 0.88436 0.60158 0.35526 0.0
H1457 H 0.83189 0.5941 0.41359 0.0
C1458 C 0.85028 0.61883 0.43146 0.0
C1459 C 0.86911 0.63274 0.43188 0.0
C1460 C 0.87317 0.58779 0.35861 0.0
C1461 C 0.86105 0.6052 0.39506 0.0
C1462 C 0.87353 0.56909 0.34458 0.0
C1463 C 0.86022 0.55049 0.34954 0.0
C1464 C 0.85927 0.5878 0.37751 0.0
C1465 C 0.84553 0.55179 0.36765 0.0
C1466 C 0.84615 0.6052 0.41313 0.0
C1467 C 0.88277 0.63348 0.41286 0.0
N1468 N 0.84559 0.57001 0.38107 0.0
N1469 N 0.87868 0.6196 0.39532 0.0
H1470 H 0.36835 0.91432 0.43363 0.0
H1471 H 0.42385 0.84904 0.33178 0.0
H1472 H 0.34049 0.85359 0.40716 0.0
H1473 H 0.45144 0.90656 0.365 0.0
H1474 H 0.38901 0.8541 0.35321 0.0
H1475 H 0.3939 0.91609 0.40211 0.0
C1476 C 0.3673 0.90165 0.42076 0.0
C1477 C 0.35241 0.88383 0.42285 0.0
C1478 C 0.4026 0.86578 0.35549 0.0
C1479 C 0.38228 0.88505 0.38719 0.0
C1480 C 0.42237 0.86292 0.34326 0.0
C1481 C 0.44053 0.87718 0.34703 0.0
C1482 C 0.40113 0.88317 0.37123 0.0
C1483 C 0.43793 0.89494 0.36198 0.0
C1484 C 0.38199 0.90252 0.40284 0.0
C1485 C 0.35172 0.86769 0.40592 0.0
N1486 N 0.41872 0.89732 0.3736 0.0
N1487 N 0.36683 0.86841 0.38893 0.0
H1488 H 0.09055 0.55475 0.64619 0.0
H1489 H 0.15036 0.66094 0.59215 0.0
H1490 H 0.15827 0.57268 0.66222 0.0
H1491 H 0.09469 0.6252 0.56397 0.0
H1492 H 0.14879 0.63633 0.62515 0.0
H1493 H 0.08694 0.58881 0.62423 0.0
C1494 C 0.1045 0.56624 0.64544 0.0
C1495 C 0.12476 0.56102 0.65579 0.0
C1496 C 0.13667 0.63426 0.61191 0.0
C1497 C 0.12103 0.59966 0.63024 0.0
C1498 C 0.13746 0.64833 0.59324 0.0
C1499 C 0.12266 0.64491 0.57543 0.0
C1500 C 0.1207 0.61711 0.61275 0.0
C1501 C 0.10644 0.62824 0.57736 0.0
C1502 C 0.1025 0.58559 0.63285 0.0
C1503 C 0.14238 0.57631 0.65444 0.0
N1504 N 0.10595 0.61493 0.59562 0.0
N1505 N 0.14026 0.59489 0.64146 0.0
H1506 H 0.35231 0.16501 0.58711 0.0
H1507 H 0.42052 0.10973 0.68606 0.0
H1508 H 0.34343 0.09696 0.60883 0.0
H1509 H 0.4368 0.17177 0.65367 0.0
H1510 H 0.38415 0.10986 0.66714 0.0
H1511 H 0.37426 0.17246 0.62052 0.0
C1512 C 0.35452 0.15176 0.59922 0.0
C1513 C 0.34647 0.13019 0.59496 0.0
C1514 C 0.39539 0.12381 0.66475 0.0
C1515 C 0.372 0.1385 0.63305 0.0
C1516 C 0.41601 0.12384 0.67572 0.0
C1517 C 0.43154 0.14074 0.67127 0.0
C1518 C 0.39047 0.14083 0.64936 0.0
C1519 C 0.42521 0.15843 0.65741 0.0
C1520 C 0.36712 0.15601 0.61827 0.0
C1521 C 0.34956 0.11376 0.61136 0.0
N1522 N 0.40527 0.15787 0.64671 0.0
N1523 N 0.36256 0.11811 0.62947 0.0
H1524 H 0.84598 0.43153 0.66232 0.0
H1525 H 0.89752 0.3852 0.54897 0.0
H1526 H 0.90275 0.45925 0.62793 0.0
H1527 H 0.84898 0.34709 0.58596 0.0
H1528 H 0.9004 0.41114 0.57981 0.0
H1529 H 0.84736 0.39896 0.637 0.0
C1530 C 0.85886 0.43059 0.64969 0.0
C1531 C 0.87395 0.44825 0.6468 0.0
C1532 C 0.8892 0.39706 0.58146 0.0
C1533 C 0.8757 0.41147 0.61813 0.0
C1534 C 0.88755 0.38223 0.56376 0.0
C1535 C 0.87289 0.3641 0.56489 0.0
C1536 C 0.87577 0.39411 0.60045 0.0
C1537 C 0.8605 0.36092 0.58453 0.0
C1538 C 0.85964 0.4121 0.63527 0.0
C1539 C 0.89041 0.44628 0.63033 0.0
N1540 N 0.86195 0.37604 0.60151 0.0
N1541 N 0.89072 0.4284 0.6166 0.0
H1542 H 0.56706 0.91509 0.66106 0.0
H1543 H 0.63858 0.84647 0.57498 0.0
H1544 H 0.5673 0.84335 0.65769 0.0
H1545 H 0.64673 0.91732 0.58465 0.0
H1546 H 0.61765 0.84441 0.60976 0.0
H1547 H 0.60107 0.91599 0.63836 0.0
C1548 C 0.57489 0.89951 0.65624 0.0
C1549 C 0.56474 0.87911 0.66139 0.0
C1550 C 0.62432 0.86038 0.60457 0.0
C1551 C 0.60289 0.87992 0.63471 0.0
C1552 C 0.63627 0.86156 0.58468 0.0
C1553 C 0.6441 0.88216 0.57679 0.0
C1554 C 0.61971 0.88002 0.61649 0.0
C1555 C 0.64087 0.90113 0.59011 0.0
C1556 C 0.59415 0.9 0.64314 0.0
C1557 C 0.57495 0.85937 0.6543 0.0
N1558 N 0.62849 0.89969 0.60911 0.0
N1559 N 0.59329 0.86026 0.641 0.0
H1560 H 0.33382 0.14672 0.43213 0.0
H1561 H 0.44381 0.09056 0.38159 0.0
H1562 H 0.37566 0.09833 0.46511 0.0
H1563 H 0.40891 0.14319 0.34721 0.0
H1564 H 0.41395 0.08885 0.40891 0.0
H1565 H 0.35656 0.14217 0.39804 0.0
C1566 C 0.34761 0.13504 0.43212 0.0
C1567 C 0.3532 0.12324 0.45157 0.0
C1568 C 0.41253 0.10067 0.39532 0.0
C1569 C 0.37884 0.11774 0.41293 0.0
C1570 C 0.42957 0.10154 0.37966 0.0
C1571 C 0.42881 0.11711 0.3623 0.0
C1572 C 0.39474 0.11588 0.39402 0.0
C1573 C 0.40998 0.13091 0.36042 0.0
C1574 C 0.36054 0.13246 0.41274 0.0
C1575 C 0.37107 0.1082 0.45071 0.0
N1576 N 0.39378 0.13028 0.3764 0.0
N1577 N 0.38323 0.10599 0.43183 0.0
H1578 H 0.83345 0.33672 0.42469 0.0
H1579 H 0.91148 0.41162 0.35803 0.0
H1580 H 0.90376 0.32242 0.42206 0.0
H1581 H 0.84519 0.39926 0.33326 0.0
H1582 H 0.90953 0.377 0.3796 0.0
H1583 H 0.83656 0.35684 0.3892 0.0
C1584 C 0.84931 0.33691 0.41601 0.0
C1585 C 0.86831 0.32764 0.42594 0.0
C1586 C 0.89565 0.38144 0.36892 0.0
C1587 C 0.87229 0.35157 0.38622 0.0
C1588 C 0.8968 0.40115 0.35661 0.0
C1589 C 0.87857 0.40802 0.34376 0.0
C1590 C 0.87577 0.36903 0.36905 0.0
C1591 C 0.85969 0.39424 0.34278 0.0
C1592 C 0.85115 0.34854 0.39589 0.0
C1593 C 0.88869 0.32904 0.41461 0.0
N1594 N 0.85853 0.37562 0.35575 0.0
N1595 N 0.89028 0.3413 0.3956 0.0
H1596 H 0.57529 0.83297 0.35874 0.0
H1597 H 0.67515 0.89248 0.42241 0.0
H1598 H 0.59772 0.89974 0.34392 0.0
H1599 H 0.64345 0.83129 0.44278 0.0
H1600 H 0.655 0.89057 0.38677 0.0
H1601 H 0.60826 0.82736 0.38184 0.0
C1602 C 0.58746 0.84629 0.35995 0.0
C1603 C 0.58357 0.867 0.34977 0.0
C1604 C 0.6529 0.87728 0.39882 0.0
C1605 C 0.62113 0.86088 0.37664 0.0
C1606 C 0.66452 0.87827 0.41904 0.0
C1607 C 0.6607 0.86211 0.4355 0.0
C1608 C 0.6375 0.85995 0.39518 0.0
C1609 C 0.64655 0.84421 0.43057 0.0
C1610 C 0.60625 0.84311 0.37322 0.0
C1611 C 0.60001 0.88357 0.35165 0.0
N1612 N 0.63528 0.84373 0.41095 0.0
N1613 N 0.61787 0.88034 0.36531 0.0
H1614 H 0.16987 0.64971 0.4401 0.0
H1615 H 0.09698 0.59495 0.34428 0.0
H1616 H 0.10449 0.67328 0.42198 0.0
H1617 H 0.1603 0.57015 0.3678 0.0
H1618 H 0.10343 0.62967 0.3651 0.0
H1619 H 0.17103 0.62748 0.406 0.0
C1620 C 0.15609 0.65075 0.42845 0.0
C1621 C 0.13709 0.66325 0.43367 0.0
C1622 C 0.1161 0.6168 0.3653 0.0
C1623 C 0.13771 0.63709 0.39522 0.0
C1624 C 0.11245 0.59703 0.35338 0.0
C1625 C 0.12793 0.57953 0.35474 0.0
C1626 C 0.1354 0.61898 0.37848 0.0
C1627 C 0.14772 0.58307 0.36669 0.0
C1628 C 0.15662 0.63793 0.40908 0.0
C1629 C 0.1195 0.66393 0.4183 0.0
N1630 N 0.15075 0.60225 0.37829 0.0
N1631 N 0.12 0.65057 0.39994 0.0
H1632 H 0.32488 0.89278 0.57928 0.0
H1633 H 0.43339 0.83943 0.63306 0.0
H1634 H 0.35828 0.83374 0.55556 0.0
H1635 H 0.40648 0.90308 0.65317 0.0
H1636 H 0.39941 0.83197 0.61212 0.0
H1637 H 0.34766 0.8915 0.61332 0.0
C1638 C 0.3364 0.87907 0.58166 0.0
C1639 C 0.33994 0.86343 0.56464 0.0
C1640 C 0.4007 0.84745 0.62136 0.0
C1641 C 0.36619 0.86207 0.60305 0.0
C1642 C 0.42012 0.85171 0.63333 0.0
C1643 C 0.42289 0.8721 0.64446 0.0
C1644 C 0.38404 0.86386 0.62011 0.0
C1645 C 0.40505 0.88724 0.6446 0.0
C1646 C 0.34955 0.87847 0.60095 0.0
C1647 C 0.35528 0.84621 0.56826 0.0
N1648 N 0.38651 0.88303 0.63215 0.0
N1649 N 0.36804 0.84616 0.58694 0.0
H1650 H 0.16087 0.42626 0.63544 0.0
H1651 H 0.10466 0.32331 0.57281 0.0
H1652 H 0.09394 0.40349 0.64899 0.0
H1653 H 0.16484 0.35669 0.55214 0.0
H1654 H 0.10515 0.34499 0.60768 0.0
H1655 H 0.16705 0.39335 0.61243 0.0
C1656 C 0.14758 0.41411 0.6339 0.0
C1657 C 0.1267 0.41785 0.6438 0.0
C1658 C 0.11856 0.34712 0.59576 0.0
C1659 C 0.13358 0.3802 0.61711 0.0
C1660 C 0.11839 0.33461 0.57601 0.0
C1661 C 0.1347 0.33838 0.55968 0.0
C1662 C 0.13523 0.3633 0.59907 0.0
C1663 C 0.15192 0.35346 0.56433 0.0
C1664 C 0.15112 0.39531 0.62071 0.0
C1665 C 0.11023 0.40135 0.64149 0.0
N1666 N 0.15162 0.36552 0.58348 0.0
N1667 N 0.11386 0.38342 0.628 0.0
H1668 H 0.59186 0.14494 0.65784 0.0
H1669 H 0.63097 0.09037 0.54259 0.0
H1670 H 0.55442 0.09749 0.61883 0.0
H1671 H 0.66284 0.14891 0.56965 0.0
H1672 H 0.60847 0.08732 0.57614 0.0
H1673 H 0.62297 0.14158 0.63107 0.0
C1674 C 0.59043 0.13347 0.64395 0.0
C1675 C 0.57058 0.12158 0.64034 0.0
C1676 C 0.62045 0.10079 0.57495 0.0
C1677 C 0.60575 0.11763 0.61001 0.0
C1678 C 0.63328 0.10254 0.55577 0.0
C1679 C 0.64838 0.12018 0.55326 0.0
C1680 C 0.62238 0.11702 0.59171 0.0
C1681 C 0.65118 0.13519 0.571 0.0
C1682 C 0.60806 0.13167 0.62866 0.0
C1683 C 0.56938 0.1071 0.62207 0.0
N1684 N 0.63794 0.13352 0.58945 0.0
N1685 N 0.58664 0.10562 0.60759 0.0
H1686 H 0.91722 0.60047 0.65878 0.0
H1687 H 0.83984 0.66542 0.57288 0.0
H1688 H 0.84706 0.58777 0.64886 0.0
H1689 H 0.91158 0.66851 0.57318 0.0
H1690 H 0.84084 0.64651 0.60914 0.0
H1691 H 0.91377 0.63441 0.63631 0.0
C1692 C 0.90095 0.60515 0.65247 0.0
C1693 C 0.88249 0.59104 0.65533 0.0
C1694 C 0.85636 0.65196 0.60166 0.0
C1695 C 0.87849 0.62967 0.62944 0.0
C1696 C 0.85574 0.66296 0.58113 0.0
C1697 C 0.87565 0.66866 0.57036 0.0
C1698 C 0.87706 0.64638 0.61121 0.0
C1699 C 0.8959 0.66456 0.58125 0.0
C1700 C 0.89902 0.62446 0.63951 0.0
C1701 C 0.86182 0.59797 0.64674 0.0
N1702 N 0.89612 0.65335 0.60096 0.0
N1703 N 0.86046 0.61658 0.63389 0.0
H1704 H 0.37498 0.44003 0.16055 0.0
H1705 H 0.42703 0.33113 0.10629 0.0
H1706 H 0.35239 0.41303 0.09776 0.0
H1707 H 0.44757 0.35969 0.16894 0.0
H1708 H 0.39416 0.35562 0.10637 0.0
H1709 H 0.39605 0.40603 0.16728 0.0
C1710 C 0.37431 0.4268 0.14824 0.0
C1711 C 0.36227 0.4295 0.12837 0.0
C1712 C 0.40554 0.35611 0.12039 0.0
C1713 C 0.3867 0.39049 0.13581 0.0
C1714 C 0.42414 0.34199 0.12044 0.0
C1715 C 0.43996 0.34362 0.13757 0.0
C1716 C 0.40298 0.3719 0.13757 0.0
C1717 C 0.43579 0.35817 0.15534 0.0
C1718 C 0.38632 0.40732 0.15211 0.0
C1719 C 0.36165 0.41166 0.11321 0.0
N1720 N 0.41787 0.37195 0.15474 0.0
N1721 N 0.37408 0.39303 0.11704 0.0
H1722 H 0.42749 0.66798 0.83791 0.0
H1723 H 0.36127 0.58783 0.91333 0.0
H1724 H 0.43077 0.67185 0.90953 0.0
H1725 H 0.33755 0.60376 0.84742 0.0
H1726 H 0.38361 0.62192 0.91325 0.0
H1727 H 0.39147 0.64878 0.84095 0.0
C1728 C 0.42002 0.66574 0.85422 0.0
C1729 C 0.43177 0.67169 0.8735 0.0
C1730 C 0.37305 0.6184 0.89902 0.0
C1731 C 0.39138 0.64889 0.87722 0.0
C1732 C 0.36028 0.59898 0.89913 0.0
C1733 C 0.34753 0.59324 0.88045 0.0
C1734 C 0.37372 0.63171 0.87972 0.0
C1735 C 0.34703 0.60789 0.86224 0.0
C1736 C 0.39959 0.6546 0.85599 0.0
C1737 C 0.42194 0.66774 0.89431 0.0
N1738 N 0.36042 0.62625 0.86208 0.0
N1739 N 0.40252 0.65615 0.89566 0.0
H1740 H 0.44662 0.38508 0.84171 0.0
H1741 H 0.33281 0.43409 0.88971 0.0
H1742 H 0.41524 0.35992 0.90141 0.0
H1743 H 0.36991 0.46179 0.83474 0.0
H1744 H 0.35747 0.4013 0.88927 0.0
H1745 H 0.41365 0.40744 0.83412 0.0
C1746 C 0.43266 0.38412 0.85315 0.0
C1747 C 0.43384 0.37096 0.87246 0.0
C1748 C 0.35986 0.41432 0.87697 0.0
C1749 C 0.39597 0.39684 0.86399 0.0
C1750 C 0.34567 0.43289 0.87708 0.0
C1751 C 0.34955 0.45065 0.86235 0.0
C1752 C 0.37787 0.41364 0.86194 0.0
C1753 C 0.36659 0.44852 0.84653 0.0
C1754 C 0.41378 0.39688 0.84879 0.0
C1755 C 0.41508 0.37002 0.88644 0.0
N1756 N 0.38025 0.4305 0.8469 0.0
N1757 N 0.397 0.38314 0.88215 0.0
H1758 H 0.66673 0.40307 0.84622 0.0
H1759 H 0.57305 0.33901 0.91501 0.0
H1760 H 0.64941 0.41611 0.91469 0.0
H1761 H 0.57792 0.33793 0.84337 0.0
H1762 H 0.60971 0.3569 0.91697 0.0
H1763 H 0.64309 0.36953 0.84702 0.0
C1764 C 0.65868 0.39827 0.86168 0.0
C1765 C 0.66006 0.41204 0.8805 0.0
C1766 C 0.60312 0.35216 0.90082 0.0
C1767 C 0.63276 0.37435 0.88144 0.0
C1768 C 0.58234 0.34178 0.89975 0.0
C1769 C 0.57278 0.33688 0.87903 0.0
C1770 C 0.61413 0.35807 0.88099 0.0
C1771 C 0.58505 0.34123 0.85964 0.0
C1772 C 0.64505 0.37933 0.86208 0.0
C1773 C 0.64887 0.40566 0.89995 0.0
N1774 N 0.60501 0.35195 0.86105 0.0
N1775 N 0.63549 0.38738 0.89987 0.0
H1776 H 0.63575 0.5428 0.83283 0.0
H1777 H 0.58841 0.64816 0.89823 0.0
H1778 H 0.66889 0.57138 0.88983 0.0
H1779 H 0.55719 0.61761 0.84098 0.0
H1780 H 0.6216 0.62501 0.89179 0.0
H1781 H 0.61105 0.57504 0.83134 0.0
C1782 C 0.63807 0.55616 0.84476 0.0
C1783 C 0.65417 0.55442 0.86157 0.0
C1784 C 0.60759 0.62365 0.88047 0.0
C1785 C 0.62554 0.59113 0.86051 0.0
C1786 C 0.58866 0.63686 0.88413 0.0
C1787 C 0.56986 0.63449 0.87038 0.0
C1788 C 0.60764 0.60809 0.8629 0.0
C1789 C 0.57113 0.61969 0.85228 0.0
C1790 C 0.62393 0.57456 0.84399 0.0
C1791 C 0.65668 0.57221 0.87656 0.0
N1792 N 0.58955 0.60695 0.84923 0.0
N1793 N 0.64217 0.58969 0.87598 0.0
H1794 H 0.64677 0.59076 0.09995 0.0
H1795 H 0.54107 0.63363 0.1667 0.0
H1796 H 0.62202 0.56113 0.16072 0.0
H1797 H 0.56794 0.6688 0.11009 0.0
H1798 H 0.5748 0.61098 0.16834 0.0
H1799 H 0.62248 0.6231 0.10645 0.0
C1800 C 0.6366 0.59126 0.11487 0.0
C1801 C 0.63608 0.57304 0.12959 0.0
C1802 C 0.57363 0.62391 0.15578 0.0
C1803 C 0.60825 0.6098 0.13705 0.0
C1804 C 0.55438 0.63687 0.15492 0.0
C1805 C 0.55178 0.65294 0.1382 0.0
C1806 C 0.59019 0.62663 0.13939 0.0
C1807 C 0.56945 0.65659 0.12331 0.0
C1808 C 0.6227 0.60969 0.11855 0.0
C1809 C 0.62264 0.5746 0.14869 0.0
N1810 N 0.58779 0.64318 0.12394 0.0
N1811 N 0.60909 0.59246 0.1517 0.0
H1812 H 0.33366 0.57299 0.16182 0.0
H1813 H 0.41551 0.63653 0.08671 0.0
H1814 H 0.32924 0.56952 0.09023 0.0
H1815 H 0.39803 0.66312 0.15113 0.0
H1816 H 0.38123 0.61448 0.0868 0.0
H1817 H 0.35351 0.60866 0.15851 0.0
C1818 C 0.33594 0.58036 0.14547 0.0
C1819 C 0.32963 0.56867 0.12626 0.0
C1820 C 0.38448 0.6256 0.10067 0.0
C1821 C 0.35314 0.60859 0.12225 0.0
C1822 C 0.40402 0.63817 0.10057 0.0
C1823 C 0.40935 0.65166 0.11885 0.0
C1824 C 0.37063 0.62588 0.11959 0.0
C1825 C 0.39423 0.65303 0.13663 0.0
C1826 C 0.34742 0.60058 0.14354 0.0
C1827 C 0.33362 0.57834 0.10539 0.0
N1828 N 0.37574 0.63983 0.13684 0.0
N1829 N 0.34557 0.59753 0.10389 0.0
H1830 H 0.66384 0.43004 0.08862 0.0
H1831 H 0.58062 0.35458 0.1562 0.0
H1832 H 0.65928 0.42963 0.16028 0.0
H1833 H 0.58947 0.34938 0.08498 0.0
H1834 H 0.61525 0.3757 0.15869 0.0
H1835 H 0.64317 0.39479 0.08737 0.0
C1836 C 0.65922 0.42195 0.10412 0.0
C1837 C 0.66336 0.4324 0.12459 0.0
C1838 C 0.60995 0.36959 0.14254 0.0
C1839 C 0.63899 0.39278 0.12336 0.0
C1840 C 0.59016 0.35749 0.14112 0.0
C1841 C 0.58202 0.35056 0.1203 0.0
C1842 C 0.62147 0.37525 0.12293 0.0
C1843 C 0.59512 0.35455 0.10134 0.0
C1844 C 0.64727 0.40196 0.10343 0.0
C1845 C 0.65659 0.42179 0.14422 0.0
N1846 N 0.61397 0.36711 0.10303 0.0
N1847 N 0.64439 0.40271 0.14312 0.0
H1848 H 0.05622 0.36466 0.48822 0.0
H1849 H 0.94515 0.29363 0.48355 0.0
H1850 H 0.05136 0.29607 0.50997 0.0
H1851 H 0.94143 0.36421 0.49793 0.0
H1852 H 0.98541 0.29552 0.48628 0.0
H1853 H 0.01519 0.36618 0.48617 0.0
C1854 C 0.04663 0.34999 0.49262 0.0
C1855 C 0.05738 0.3301 0.49896 0.0
C1856 C 0.9758 0.31061 0.48889 0.0
C1857 C 0.01076 0.33172 0.49632 0.0
C1858 C 0.95272 0.30959 0.48732 0.0
C1859 C 0.93969 0.32873 0.49093 0.0
C1860 C 0.98623 0.33096 0.49373 0.0
C1861 C 0.95077 0.34898 0.49528 0.0
C1862 C 0.02328 0.35092 0.49148 0.0
C1863 C 0.04403 0.31168 0.50465 0.0
N1864 N 0.97349 0.3496 0.49654 0.0
N1865 N 0.02153 0.31289 0.50294 0.0
H1866 H 0.66915 0.05328 0.52622 0.0
H1867 H 0.67421 0.94159 0.45974 0.0
H1868 H 0.65616 0.05298 0.45543 0.0
H1869 H 0.64629 0.94304 0.52602 0.0
H1870 H 0.67076 0.98228 0.45775 0.0
H1871 H 0.66413 0.01273 0.52695 0.0
C1872 C 0.66519 0.04464 0.51084 0.0
C1873 C 0.66322 0.05639 0.49068 0.0
C1874 C 0.66508 0.97366 0.47258 0.0
C1875 C 0.65772 0.01013 0.49141 0.0
C1876 C 0.66711 0.95051 0.47377 0.0
C1877 C 0.66054 0.93906 0.49309 0.0
C1878 C 0.65706 0.98546 0.49111 0.0
C1879 C 0.65142 0.95131 0.5108 0.0
C1880 C 0.66216 0.02158 0.51132 0.0
C1881 C 0.65782 0.04448 0.47129 0.0
N1882 N 0.65034 0.97397 0.50957 0.0
N1883 N 0.65563 0.02188 0.47204 0.0
H1884 H 0.94734 0.70167 0.50834 0.0
H1885 H 0.0586 0.6325 0.50456 0.0
H1886 H 0.94339 0.63155 0.49187 0.0
H1887 H 0.05297 0.70041 0.48093 0.0
H1888 H 0.01754 0.6301 0.50527 0.0
H1889 H 0.98746 0.69995 0.50496 0.0
C1890 C 0.95481 0.68585 0.50387 0.0
C1891 C 0.94175 0.6668 0.49996 0.0
C1892 C 0.02549 0.64537 0.49978 0.0
C1893 C 0.98822 0.66474 0.49651 0.0
C1894 C 0.04885 0.64681 0.49943 0.0
C1895 C 0.05935 0.66683 0.49306 0.0
C1896 C 0.01275 0.66417 0.49408 0.0
C1897 C 0.04582 0.68475 0.48636 0.0
C1898 C 0.97784 0.68494 0.50195 0.0
C1899 C 0.95277 0.64672 0.49475 0.0
N1900 N 0.02333 0.68307 0.48734 0.0
N1901 N 0.97549 0.64616 0.49326 0.0
H1902 H 0.33803 0.05742 0.55105 0.0
H1903 H 0.35506 0.94664 0.4794 0.0
H1904 H 0.33361 0.05698 0.47923 0.0
H1905 H 0.31823 0.94634 0.54125 0.0
H1906 H 0.35836 0.98744 0.48219 0.0
H1907 H 0.34164 0.01645 0.55053 0.0
C1908 C 0.33813 0.0487 0.53522 0.0
C1909 C 0.33531 0.06041 0.51517 0.0
C1910 C 0.34982 0.97831 0.49524 0.0
C1911 C 0.3399 0.01409 0.51444 0.0
C1912 C 0.34802 0.95512 0.49373 0.0
C1913 C 0.33619 0.94322 0.51003 0.0
C1914 C 0.34022 0.98949 0.51345 0.0
C1915 C 0.32727 0.95498 0.52821 0.0
C1916 C 0.3401 0.02545 0.53493 0.0
C1917 C 0.33548 0.04845 0.49505 0.0
N1918 N 0.32949 0.97751 0.52947 0.0
N1919 N 0.33781 0.02592 0.49518 0.0
H1920 H 0.47183 0.94283 0.33189 0.0
H1921 H 0.54061 0.05142 0.31584 0.0
H1922 H 0.5434 0.93994 0.33836 0.0
H1923 H 0.48067 0.05302 0.35559 0.0
H1924 H 0.54133 0.01061 0.31931 0.0
H1925 H 0.47349 0.98354 0.33591 0.0
C1926 C 0.48787 0.95083 0.33426 0.0
C1927 C 0.50753 0.93818 0.33478 0.0
C1928 C 0.52823 0.01997 0.32751 0.0
C1929 C 0.50954 0.98448 0.3389 0.0
C1930 C 0.52774 0.04316 0.32546 0.0
C1931 C 0.51055 0.0555 0.33546 0.0
C1932 C 0.51101 0.00907 0.33899 0.0
C1933 C 0.49426 0.04406 0.34776 0.0
C1934 C 0.48878 0.97394 0.33667 0.0
C1935 C 0.52791 0.94921 0.33797 0.0
N1936 N 0.49463 0.02139 0.34884 0.0
N1937 N 0.52845 0.97187 0.33951 0.0
H1938 H 0.94321 0.51475 0.29941 0.0
H1939 H 0.05633 0.51028 0.36746 0.0
H1940 H 0.94381 0.48411 0.36471 0.0
H1941 H 0.05174 0.50014 0.29626 0.0
H1942 H 0.01524 0.50887 0.36958 0.0
H1943 H 0.98338 0.51857 0.30116 0.0
C1944 C 0.95171 0.50876 0.31418 0.0
C1945 C 0.93999 0.49862 0.33177 0.0
C1946 C 0.02343 0.50707 0.35357 0.0
C1947 C 0.98634 0.50345 0.33392 0.0
C1948 C 0.04677 0.50803 0.35229 0.0
C1949 C 0.05756 0.50555 0.33159 0.0
C1950 C 0.01096 0.50419 0.33396 0.0
C1951 C 0.04433 0.50239 0.31253 0.0
C1952 C 0.97473 0.51102 0.31513 0.0
C1953 C 0.95217 0.49172 0.35062 0.0
N1954 N 0.02181 0.50198 0.31417 0.0
N1955 N 0.97479 0.49424 0.35122 0.0
H1956 H 0.48424 0.94587 0.63464 0.0
H1957 H 0.4815 0.05695 0.70681 0.0
H1958 H 0.50431 0.95009 0.70375 0.0
H1959 H 0.49696 0.06034 0.63644 0.0
H1960 H 0.48133 0.01661 0.7045 0.0
H1961 H 0.48161 0.98694 0.63366 0.0
C1962 C 0.48794 0.95532 0.64959 0.0
C1963 C 0.49425 0.9444 0.6694 0.0
C1964 C 0.48474 0.02616 0.68954 0.0
C1965 C 0.491 0.99101 0.66837 0.0
C1966 C 0.48484 0.04929 0.69079 0.0
C1967 C 0.48968 0.06222 0.67185 0.0
C1968 C 0.48924 0.01562 0.66917 0.0
C1969 C 0.49341 0.05106 0.65152 0.0
C1970 C 0.48652 0.97868 0.64896 0.0
C1971 C 0.49909 0.95755 0.68818 0.0
N1972 N 0.49318 0.02831 0.6507 0.0
N1973 N 0.49718 0.98003 0.68722 0.0
H1974 H 0.94424 0.46937 0.67355 0.0
H1975 H 0.05828 0.53359 0.67655 0.0
H1976 H 0.94763 0.53973 0.65864 0.0
H1977 H 0.05525 0.46503 0.65484 0.0
H1978 H 0.01769 0.53606 0.67336 0.0
H1979 H 0.98484 0.46703 0.66997 0.0
C1980 C 0.95355 0.48432 0.66945 0.0
C1981 C 0.94261 0.50483 0.66653 0.0
C1982 C 0.02592 0.52055 0.6691 0.0
C1983 C 0.98899 0.50225 0.66268 0.0
C1984 C 0.04903 0.51906 0.67106 0.0
C1985 C 0.06005 0.49901 0.6661 0.0
C1986 C 0.01367 0.50169 0.66267 0.0
C1987 C 0.04733 0.48077 0.65881 0.0
C1988 C 0.97666 0.48291 0.66727 0.0
C1989 C 0.95543 0.52361 0.66101 0.0
N1990 N 0.02471 0.48243 0.65765 0.0
N1991 N 0.97803 0.52195 0.65961 0.0
H1992 H 0.3675 0.51964 0.94431 0.0
H1993 H 0.29604 0.50592 0.05377 0.0
H1994 H 0.30205 0.4894 0.94587 0.0
H1995 H 0.36762 0.49851 0.05783 0.0
H1996 H 0.29859 0.50606 0.01352 0.0
H1997 H 0.36879 0.51721 0.98537 0.0
C1998 C 0.35347 0.51248 0.95317 0.0
C1999 C 0.33447 0.50508 0.94154 0.0
C2000 C 0.31376 0.50425 0.02317 0.0
C2001 C 0.33586 0.50247 0.98817 0.0
C2002 C 0.31235 0.50414 0.04627 0.0
C2003 C 0.33162 0.5018 0.05938 0.0
C2004 C 0.33462 0.50247 0.01281 0.0
C2005 C 0.35231 0.50006 0.0484 0.0
C2006 C 0.3543 0.51103 0.97653 0.0
C2007 C 0.31691 0.49571 0.95393 0.0
N2008 N 0.35331 0.50057 0.02565 0.0
N2009 N 0.31796 0.49494 0.97647 0.0
H2010 H 0.51027 0.30252 0.94919 0.0
H2011 H 0.51486 0.36904 0.06192 0.0
H2012 H 0.4976 0.37348 0.94665 0.0
H2013 H 0.48458 0.30393 0.05509 0.0
H2014 H 0.51498 0.37242 0.02083 0.0
H2015 H 0.50851 0.3039 0.98943 0.0
C2016 C 0.50696 0.31846 0.957 0.0
C2017 C 0.50362 0.33786 0.9443 0.0
C2018 C 0.5082 0.35756 0.02856 0.0
C2019 C 0.5021 0.33951 0.99091 0.0
C2020 C 0.5082 0.35555 0.05191 0.0
C2021 C 0.50005 0.33601 0.06208 0.0
C2022 C 0.50036 0.33976 0.01551 0.0
C2023 C 0.4914 0.31917 0.04824 0.0
C2024 C 0.50601 0.31918 0.98009 0.0
C2025 C 0.49995 0.35805 0.95575 0.0
N2026 N 0.49206 0.32134 0.02579 0.0
N2027 N 0.49937 0.35841 0.97853 0.0
H2028 H 0.67928 0.53287 0.9447 0.0
H2029 H 0.67248 0.46469 0.05494 0.0
H2030 H 0.65117 0.4666 0.94409 0.0
H2031 H 0.6539 0.53417 0.05566 0.0
H2032 H 0.66961 0.4647 0.01411 0.0
H2033 H 0.67489 0.53388 0.98541 0.0
C2034 C 0.67205 0.51861 0.95314 0.0
C2035 C 0.66559 0.4996 0.94108 0.0
C2036 C 0.66593 0.47986 0.02324 0.0
C2037 C 0.661 0.50053 0.98744 0.0
C2038 C 0.66766 0.47989 0.04643 0.0
C2039 C 0.66337 0.49945 0.0585 0.0
C2040 C 0.6606 0.49971 0.01206 0.0
C2041 C 0.65718 0.51875 0.04683 0.0
C2042 C 0.66946 0.51927 0.97628 0.0
C2043 C 0.65626 0.4816 0.95278 0.0
N2044 N 0.65636 0.51853 0.02412 0.0
N2045 N 0.65461 0.48233 0.9754 0.0
H2046 H 0.49437 0.70321 0.94585 0.0
H2047 H 0.48291 0.63232 0.05567 0.0
H2048 H 0.50315 0.63175 0.94178 0.0
H2049 H 0.51326 0.69771 0.05341 0.0
H2050 H 0.48498 0.63073 0.01461 0.0
H2051 H 0.49495 0.70074 0.98609 0.0
C2052 C 0.4966 0.68694 0.95334 0.0
C2053 C 0.49914 0.66769 0.94022 0.0
C2054 C 0.49129 0.64527 0.02329 0.0
C2055 C 0.49928 0.66479 0.9868 0.0
C2056 C 0.49005 0.64626 0.04665 0.0
C2057 C 0.49755 0.66536 0.05809 0.0
C2058 C 0.49972 0.66363 0.01145 0.0
C2059 C 0.50687 0.68279 0.0455 0.0
C2060 C 0.4969 0.68558 0.97643 0.0
C2061 C 0.50143 0.64705 0.95121 0.0
N2062 N 0.50741 0.6816 0.02295 0.0
N2063 N 0.50131 0.6461 0.97398 0.0
H2064 H 0.21386 0.29292 0.50706 0.0
H2065 H 0.24303 0.16371 0.4886 0.0
H2066 H 0.16552 0.23986 0.50063 0.0
H2067 H 0.29416 0.21382 0.4967 0.0
H2068 H 0.21477 0.19247 0.4916 0.0
H2069 H 0.24385 0.26527 0.50241 0.0
C2070 C 0.20954 0.27552 0.50474 0.0
C2071 C 0.1871 0.26873 0.50432 0.0
C2072 C 0.23214 0.19731 0.49267 0.0
C2073 C 0.2212 0.23718 0.49886 0.0
C2074 C 0.24836 0.18082 0.49092 0.0
C2075 C 0.27105 0.1863 0.49246 0.0
C2076 C 0.23849 0.21961 0.49608 0.0
C2077 C 0.27684 0.20885 0.49538 0.0
C2078 C 0.22665 0.25978 0.50204 0.0
C2079 C 0.1825 0.24598 0.50115 0.0
N2080 N 0.26064 0.22471 0.4972 0.0
N2081 N 0.19933 0.23113 0.49856 0.0
H2082 H 0.75647 0.16133 0.51296 0.0
H2083 H 0.78291 0.28881 0.48245 0.0
H2084 H 0.70431 0.20975 0.5019 0.0
H2085 H 0.83228 0.23911 0.49928 0.0
H2086 H 0.75351 0.26096 0.48931 0.0
H2087 H 0.78414 0.19048 0.50809 0.0
C2088 C 0.7508 0.17816 0.50961 0.0
C2089 C 0.728 0.18306 0.50781 0.0
C2090 C 0.77081 0.25627 0.49151 0.0
C2091 C 0.75983 0.21677 0.502 0.0
C2092 C 0.78758 0.27212 0.48755 0.0
C2093 C 0.81014 0.26631 0.49018 0.0
C2094 C 0.77672 0.23452 0.49809 0.0
C2095 C 0.8152 0.24445 0.49693 0.0
C2096 C 0.76666 0.19487 0.50681 0.0
C2097 C 0.72172 0.20525 0.5035 0.0
N2098 N 0.79869 0.22945 0.50057 0.0
N2099 N 0.73758 0.22131 0.5006 0.0
H2100 H 0.78633 0.70831 0.51526 0.0
H2101 H 0.76094 0.83797 0.49503 0.0
H2102 H 0.83638 0.75894 0.50414 0.0
H2103 H 0.70895 0.78809 0.49434 0.0
H2104 H 0.7884 0.80878 0.50097 0.0
H2105 H 0.75726 0.73687 0.51019 0.0
C2106 C 0.79121 0.72538 0.51184 0.0
C2107 C 0.81384 0.73121 0.51009 0.0
C2108 C 0.77101 0.80412 0.49948 0.0
C2109 C 0.78083 0.7638 0.50434 0.0
C2110 C 0.75527 0.82084 0.4961 0.0
C2111 C 0.73259 0.81549 0.49408 0.0
C2112 C 0.76413 0.78177 0.50099 0.0
C2113 C 0.7263 0.79295 0.49566 0.0
C2114 C 0.77464 0.74162 0.50888 0.0
C2115 C 0.81921 0.75356 0.50556 0.0
N2116 N 0.742 0.77687 0.49906 0.0
N2117 N 0.80288 0.76895 0.50289 0.0
H2118 H 0.21433 0.70908 0.49107 0.0
H2119 H 0.23935 0.83965 0.50521 0.0
H2120 H 0.16446 0.76106 0.49236 0.0
H2121 H 0.29156 0.79007 0.50777 0.0
H2122 H 0.21216 0.8103 0.49952 0.0
H2123 H 0.24335 0.7377 0.4961 0.0
C2124 C 0.20949 0.72645 0.49232 0.0
C2125 C 0.18691 0.73265 0.49131 0.0
C2126 C 0.22953 0.80571 0.50134 0.0
C2127 C 0.21986 0.7653 0.49709 0.0
C2128 C 0.24514 0.82254 0.50462 0.0
C2129 C 0.26782 0.81735 0.50705 0.0
C2130 C 0.23649 0.78336 0.50044 0.0
C2131 C 0.27422 0.79481 0.50606 0.0
C2132 C 0.22603 0.74274 0.49524 0.0
C2133 C 0.18158 0.75539 0.4931 0.0
N2134 N 0.25861 0.77859 0.50282 0.0
N2135 N 0.19788 0.77078 0.49589 0.0
H2136 H 0.49729 0.15949 0.23971 0.0
H2137 H 0.49484 0.29089 0.21516 0.0
H2138 H 0.51146 0.20857 0.29054 0.0
H2139 H 0.48722 0.23943 0.1653 0.0
H2140 H 0.49864 0.26176 0.24379 0.0
H2141 H 0.49126 0.18932 0.21303 0.0
C2142 C 0.49916 0.17658 0.24531 0.0
C2143 C 0.50504 0.18149 0.26742 0.0
C2144 C 0.49606 0.25693 0.22657 0.0
C2145 C 0.49809 0.21599 0.23671 0.0
C2146 C 0.49381 0.27352 0.21025 0.0
C2147 C 0.49077 0.2676 0.18778 0.0
C2148 C 0.49514 0.23433 0.22032 0.0
C2149 C 0.48966 0.24485 0.18236 0.0
C2150 C 0.49569 0.19367 0.23 0.0
C2151 C 0.50707 0.20402 0.27362 0.0
N2152 N 0.49187 0.22913 0.19846 0.0
N2153 N 0.50364 0.22047 0.25832 0.0
H2154 H 0.78317 0.4899 0.29491 0.0
H2155 H 0.75626 0.50314 0.16452 0.0
H2156 H 0.83005 0.51185 0.24482 0.0
H2157 H 0.70743 0.47878 0.21157 0.0
H2158 H 0.7827 0.50769 0.1948 0.0
H2159 H 0.75433 0.48717 0.26578 0.0
C2160 C 0.78736 0.49429 0.27789 0.0
C2161 C 0.80912 0.50099 0.2723 0.0
C2162 C 0.76623 0.50135 0.19862 0.0
C2163 C 0.77637 0.49785 0.23904 0.0
C2164 C 0.75106 0.49871 0.18126 0.0
C2165 C 0.72957 0.49044 0.18544 0.0
C2166 C 0.76003 0.49569 0.22051 0.0
C2167 C 0.72386 0.48512 0.20757 0.0
C2168 C 0.77094 0.49265 0.26128 0.0
C2169 C 0.81363 0.50641 0.24997 0.0
N2170 N 0.73903 0.48779 0.2243 0.0
N2171 N 0.79748 0.50467 0.23426 0.0
H2172 H 0.49705 0.70415 0.21476 0.0
H2173 H 0.48689 0.835 0.24073 0.0
H2174 H 0.49858 0.75654 0.16531 0.0
H2175 H 0.48552 0.78527 0.29284 0.0
H2176 H 0.49038 0.8056 0.21316 0.0
H2177 H 0.4924 0.7327 0.24392 0.0
C2178 C 0.49648 0.72158 0.21003 0.0
C2179 C 0.49827 0.72791 0.18752 0.0
C2180 C 0.48927 0.80099 0.2306 0.0
C2181 C 0.49285 0.76052 0.22066 0.0
C2182 C 0.48724 0.81785 0.24642 0.0
C2183 C 0.48592 0.81265 0.2692 0.0
C2184 C 0.49008 0.77859 0.23744 0.0
C2185 C 0.48643 0.79004 0.27544 0.0
C2186 C 0.49378 0.73784 0.22666 0.0
C2187 C 0.49732 0.75075 0.18237 0.0
N2188 N 0.48854 0.7738 0.25964 0.0
N2189 N 0.49469 0.76611 0.19875 0.0
H2190 H 0.16609 0.48031 0.24362 0.0
H2191 H 0.2911 0.51724 0.21516 0.0
H2192 H 0.21316 0.49779 0.29522 0.0
H2193 H 0.24321 0.49217 0.1675 0.0
H2194 H 0.26396 0.51014 0.24518 0.0
H2195 H 0.19531 0.48412 0.21597 0.0
C2196 C 0.18268 0.48487 0.24915 0.0
C2197 C 0.18716 0.48887 0.27175 0.0
C2198 C 0.25954 0.50616 0.22812 0.0
C2199 C 0.22096 0.49349 0.23993 0.0
C2200 C 0.27496 0.51027 0.211 0.0
C2201 C 0.26938 0.50549 0.18873 0.0
C2202 C 0.23848 0.49726 0.22283 0.0
C2203 C 0.2483 0.49632 0.18432 0.0
C2204 C 0.19944 0.48703 0.23331 0.0
C2205 C 0.20905 0.49451 0.27794 0.0
N2206 N 0.2337 0.49261 0.20115 0.0
N2207 N 0.22517 0.49688 0.26205 0.0
H2208 H 0.50811 0.75815 0.83421 0.0
H2209 H 0.50722 0.7887 0.70423 0.0
H2210 H 0.48594 0.71104 0.78437 0.0
H2211 H 0.51593 0.83587 0.75797 0.0
H2212 H 0.50302 0.75871 0.73205 0.0
H2213 H 0.51474 0.78538 0.8052 0.0
C2214 C 0.50457 0.75347 0.81712 0.0
C2215 C 0.49625 0.73224 0.81181 0.0
C2216 C 0.50593 0.77564 0.73763 0.0
C2217 C 0.50393 0.76372 0.77815 0.0
C2218 C 0.50845 0.79271 0.72181 0.0
C2219 C 0.51185 0.81483 0.72881 0.0
C2220 C 0.50708 0.78081 0.76049 0.0
C2221 C 0.51318 0.81913 0.75176 0.0
C2222 C 0.50839 0.76913 0.80048 0.0
C2223 C 0.49222 0.72726 0.78924 0.0
N2224 N 0.51079 0.80233 0.76669 0.0
N2225 N 0.49607 0.74294 0.77318 0.0
H2226 H 0.29737 0.50574 0.78441 0.0
H2227 H 0.16633 0.50353 0.7578 0.0
H2228 H 0.24513 0.49601 0.83306 0.0
H2229 H 0.2156 0.51464 0.70642 0.0
H2230 H 0.19593 0.50018 0.78509 0.0
H2231 H 0.26869 0.50833 0.7551 0.0
C2232 C 0.27996 0.50405 0.78892 0.0
C2233 C 0.27369 0.5007 0.81127 0.0
C2234 C 0.2004 0.50336 0.76788 0.0
C2235 C 0.24095 0.50369 0.77797 0.0
C2236 C 0.18342 0.50531 0.75221 0.0
C2237 C 0.18842 0.50945 0.72972 0.0
C2238 C 0.22275 0.50555 0.7612 0.0
C2239 C 0.21097 0.51151 0.7236 0.0
C2240 C 0.26362 0.50558 0.77221 0.0
C2241 C 0.25087 0.49869 0.81615 0.0
N2242 N 0.22735 0.50955 0.73927 0.0
N2243 N 0.23545 0.50024 0.79971 0.0
H2244 H 0.49076 0.21882 0.70942 0.0
H2245 H 0.51336 0.24689 0.83788 0.0
H2246 H 0.50262 0.17024 0.76131 0.0
H2247 H 0.51163 0.29858 0.78775 0.0
H2248 H 0.50861 0.21906 0.80909 0.0
H2249 H 0.4975 0.24874 0.7368 0.0
C2250 C 0.49475 0.21444 0.72649 0.0
C2251 C 0.49597 0.19196 0.73308 0.0
C2252 C 0.50932 0.23644 0.80421 0.0
C2253 C 0.50371 0.22593 0.76427 0.0
C2254 C 0.51199 0.25243 0.82074 0.0
C2255 C 0.51278 0.27516 0.81526 0.0
C2256 C 0.50726 0.24304 0.78184 0.0
C2257 C 0.51113 0.28121 0.79267 0.0
C2258 C 0.49865 0.2315 0.74205 0.0
C2259 C 0.50134 0.18725 0.75537 0.0
N2260 N 0.50829 0.26521 0.77671 0.0
N2261 N 0.50492 0.20402 0.77006 0.0
H2262 H 0.70815 0.50498 0.78734 0.0
H2263 H 0.83783 0.48967 0.75876 0.0
H2264 H 0.76116 0.5041 0.83612 0.0
H2265 H 0.78736 0.49502 0.70762 0.0
H2266 H 0.80915 0.49357 0.78706 0.0
H2267 H 0.73609 0.50039 0.75772 0.0
C2268 C 0.72562 0.50391 0.79183 0.0
C2269 C 0.73229 0.50499 0.81428 0.0
C2270 C 0.80424 0.49386 0.76968 0.0
C2271 C 0.76424 0.49959 0.78053 0.0
C2272 C 0.82067 0.49158 0.75343 0.0
C2273 C 0.81505 0.49202 0.7307 0.0
C2274 C 0.78187 0.49663 0.76332 0.0
C2275 C 0.79246 0.49454 0.72494 0.0
C2276 C 0.74154 0.50125 0.77492 0.0
C2277 C 0.75516 0.50341 0.8191 0.0
N2278 N 0.77667 0.4968 0.74116 0.0
N2279 N 0.77022 0.50077 0.80241 0.0
loop_
_geom_bond_atom_site_label_1
_geom_bond_atom_site_label_2
_geom_bond_distance
_geom_bond_site_symmetry_2
_ccdc_geom_bond_type
Co0 O2 2.143 . S
Co0 O8 2.074 . S
Co0 O11 2.093 . S
Co0 O24 2.097 . S
Co0 N41 2.151 . S
Co0 N49 2.214 . S
Co1 O2 2.160 . S
Co1 O7 2.058 . S
Co1 O17 2.057 . S
Co1 O32 2.037 . S
Co1 N36 2.145 . S
Co1 N57 2.257 . S
O2 Co0 2.143 . S
O2 Co1 2.160 . S
C3 O4 1.278 . S
C3 O11 1.224 . S
O4 C3 1.278 . S
C5 O6 1.245 . S
C5 O17 1.232 . S
O6 C5 1.245 . S
O7 Co1 2.058 . S
O7 C33 1.269 . S
O8 Co0 2.074 . S
O8 C33 1.257 . S
H9 C34 0.930 . S
H10 C40 0.930 . S
O11 Co0 2.093 . S
O11 C3 1.224 . S
H12 C44 0.929 . S
H13 C46 0.930 . S
H14 C47 0.930 . S
H15 C45 0.929 . S
H16 C48 0.928 . S
O17 Co1 2.057 . S
O17 C5 1.232 . S
H18 C37 0.929 . S
H19 C38 0.929 . S
H20 C50 0.931 . S
H21 C42 0.929 . S
H22 C51 0.930 . S
H23 C43 0.931 . S
O24 Co0 2.097 . S
O24 C52 1.214 . S
H25 C53 0.929 . S
H26 C54 0.929 . S
H27 C55 0.930 . S
H28 C56 0.929 . S
H29 C58 0.930 . S
H30 C35 0.930 . S
H31 C39 0.930 . S
O32 Co1 2.037 . S
O32 C52 1.234 . S
C33 O7 1.269 . S
C33 O8 1.257 . S
C34 H9 0.930 . S
C34 C37 1.388 . S
C34 C39 1.418 . S
C35 H30 0.930 . S
C35 C38 1.404 . S
C35 C39 1.353 . S
N36 Co1 2.145 . S
N36 C37 1.397 . S
N36 C38 1.334 . S
C37 H18 0.929 . S
C37 C34 1.388 . S
C37 N36 1.397 . S
C38 H19 0.929 . S
C38 C35 1.404 . S
C38 N36 1.334 . S
C39 H31 0.930 . S
C39 C34 1.418 . S
C39 C35 1.353 . S
C40 H10 0.930 . S
C40 N41 1.330 . S
C40 C42 1.446 . S
N41 Co0 2.151 . S
N41 C40 1.330 . S
N41 C45 1.418 . S
C42 H21 0.929 . S
C42 C40 1.446 . S
C42 C43 1.332 . S
C43 H23 0.931 . S
C43 C42 1.332 . S
C43 C44 1.267 . S
C44 H12 0.929 . S
C44 C43 1.267 . S
C44 C45 1.251 . S
C45 H15 0.929 . S
C45 N41 1.418 . S
C45 C44 1.251 . S
C46 H13 0.930 . S
C46 C48 1.406 . S
C46 C51 1.261 . S
C47 H14 0.930 . S
C47 N49 1.325 . S
C47 C50 1.357 . S
C48 H16 0.928 . S
C48 C46 1.406 . S
C48 N49 1.261 . S
N49 Co0 2.214 . S
N49 C47 1.325 . S
N49 C48 1.261 . S
C50 H20 0.931 . S
C50 C47 1.357 . S
C50 C51 1.312 . S
C51 H22 0.930 . S
C51 C46 1.261 . S
C51 C50 1.312 . S
C52 O24 1.214 . S
C52 O32 1.234 . S
C53 H25 0.929 . S
C53 C56 1.391 . S
C53 C58 1.391 . S
C54 H26 0.929 . S
C54 C55 1.390 . S
C54 N57 1.391 . S
C55 H27 0.930 . S
C55 C54 1.390 . S
C55 C56 1.392 . S
C56 H28 0.929 . S
C56 C53 1.391 . S
C56 C55 1.392 . S
N57 Co1 2.257 . S
N57 C54 1.391 . S
N57 C58 1.388 . S
C58 H29 0.930 . S
C58 C53 1.391 . S
C58 N57 1.388 . S
Co59 O61 2.143 . S
Co59 O67 2.074 . S
Co59 O70 2.093 . S
Co59 O83 2.097 . S
Co59 N100 2.151 . S
Co59 N108 2.214 . S
Co60 O61 2.160 . S
Co60 O66 2.058 . S
Co60 O76 2.057 . S
Co60 O91 2.037 . S
Co60 N95 2.145 . S
Co60 N116 2.257 . S
O61 Co59 2.143 . S
O61 Co60 2.160 . S
C62 O63 1.278 . S
C62 O70 1.224 . S
O63 C62 1.278 . S
C64 O65 1.245 . S
C64 O76 1.232 . S
O65 C64 1.245 . S
O66 Co60 2.058 . S
O66 C92 1.269 . S
O67 Co59 2.074 . S
O67 C92 1.257 . S
H68 C93 0.930 . S
H69 C99 0.930 . S
O70 Co59 2.093 . S
O70 C62 1.224 . S
H71 C103 0.929 . S
H72 C105 0.930 . S
H73 C106 0.930 . S
H74 C104 0.929 . S
H75 C107 0.928 . S
O76 Co60 2.057 . S
O76 C64 1.232 . S
H77 C96 0.929 . S
H78 C97 0.929 . S
H79 C109 0.931 . S
H80 C101 0.929 . S
H81 C110 0.930 . S
H82 C102 0.931 . S
O83 Co59 2.097 . S
O83 C111 1.214 . S
H84 C112 0.929 . S
H85 C113 0.929 . S
H86 C114 0.930 . S
H87 C115 0.929 . S
H88 C117 0.930 . S
H89 C94 0.930 . S
H90 C98 0.930 . S
O91 Co60 2.037 . S
O91 C111 1.234 . S
C92 O66 1.269 . S
C92 O67 1.257 . S
C93 H68 0.930 . S
C93 C96 1.388 . S
C93 C98 1.418 . S
C94 H89 0.930 . S
C94 C97 1.404 . S
C94 C98 1.353 . S
N95 Co60 2.145 . S
N95 C96 1.397 . S
N95 C97 1.334 . S
C96 H77 0.929 . S
C96 C93 1.388 . S
C96 N95 1.397 . S
C97 H78 0.929 . S
C97 C94 1.404 . S
C97 N95 1.334 . S
C98 H90 0.930 . S
C98 C93 1.418 . S
C98 C94 1.353 . S
C99 H69 0.930 . S
C99 N100 1.330 . S
C99 C101 1.446 . S
N100 Co59 2.151 . S
N100 C99 1.330 . S
N100 C104 1.418 . S
C101 H80 0.929 . S
C101 C99 1.446 . S
C101 C102 1.332 . S
C102 H82 0.931 . S
C102 C101 1.332 . S
C102 C103 1.267 . S
C103 H71 0.929 . S
C103 C102 1.267 . S
C103 C104 1.251 . S
C104 H74 0.929 . S
C104 N100 1.418 . S
C104 C103 1.251 . S
C105 H72 0.930 . S
C105 C107 1.406 . S
C105 C110 1.261 . S
C106 H73 0.930 . S
C106 N108 1.325 . S
C106 C109 1.357 . S
C107 H75 0.928 . S
C107 C105 1.406 . S
C107 N108 1.261 . S
N108 Co59 2.214 . S
N108 C106 1.325 . S
N108 C107 1.261 . S
C109 H79 0.931 . S
C109 C106 1.357 . S
C109 C110 1.312 . S
C110 H81 0.930 . S
C110 C105 1.261 . S
C110 C109 1.312 . S
C111 O83 1.214 . S
C111 O91 1.234 . S
C112 H84 0.929 . S
C112 C115 1.391 . S
C112 C117 1.391 . S
C113 H85 0.929 . S
C113 C114 1.390 . S
C113 N116 1.391 . S
C114 H86 0.930 . S
C114 C113 1.390 . S
C114 C115 1.392 . S
C115 H87 0.929 . S
C115 C112 1.391 . S
C115 C114 1.392 . S
N116 Co60 2.257 . S
N116 C113 1.391 . S
N116 C117 1.388 . S
C117 H88 0.930 . S
C117 C112 1.391 . S
C117 N116 1.388 . S
Co118 O120 2.143 . S
Co118 O126 2.074 . S
Co118 O129 2.093 . S
Co118 O142 2.097 . S
Co118 N159 2.151 . S
Co118 N167 2.214 . S
Co119 O120 2.160 . S
Co119 O125 2.058 . S
Co119 O135 2.057 . S
Co119 O150 2.037 . S
Co119 N154 2.145 . S
Co119 N175 2.257 . S
O120 Co118 2.143 . S
O120 Co119 2.160 . S
C121 O122 1.278 . S
C121 O129 1.224 . S
O122 C121 1.278 . S
C123 O124 1.245 . S
C123 O135 1.232 . S
O124 C123 1.245 . S
O125 Co119 2.058 . S
O125 C151 1.269 . S
O126 Co118 2.074 . S
O126 C151 1.257 . S
H127 C152 0.930 . S
H128 C158 0.930 . S
O129 Co118 2.093 . S
O129 C121 1.224 . S
H130 C162 0.929 . S
H131 C164 0.930 . S
H132 C165 0.930 . S
H133 C163 0.929 . S
H134 C166 0.928 . S
O135 Co119 2.057 . S
O135 C123 1.232 . S
H136 C155 0.929 . S
H137 C156 0.929 . S
H138 C168 0.931 . S
H139 C160 0.929 . S
H140 C169 0.930 . S
H141 C161 0.931 . S
O142 Co118 2.097 . S
O142 C170 1.214 . S
H143 C171 0.929 . S
H144 C172 0.929 . S
H145 C173 0.930 . S
H146 C174 0.929 . S
H147 C176 0.930 . S
H148 C153 0.930 . S
H149 C157 0.930 . S
O150 Co119 2.037 . S
O150 C170 1.234 . S
C151 O125 1.269 . S
C151 O126 1.257 . S
C152 H127 0.930 . S
C152 C155 1.388 . S
C152 C157 1.418 . S
C153 H148 0.930 . S
C153 C156 1.404 . S
C153 C157 1.353 . S
N154 Co119 2.145 . S
N154 C155 1.397 . S
N154 C156 1.334 . S
C155 H136 0.929 . S
C155 C152 1.388 . S
C155 N154 1.397 . S
C156 H137 0.929 . S
C156 C153 1.404 . S
C156 N154 1.334 . S
C157 H149 0.930 . S
C157 C152 1.418 . S
C157 C153 1.353 . S
C158 H128 0.930 . S
C158 N159 1.330 . S
C158 C160 1.446 . S
N159 Co118 2.151 . S
N159 C158 1.330 . S
N159 C163 1.418 . S
C160 H139 0.929 . S
C160 C158 1.446 . S
C160 C161 1.332 . S
C161 H141 0.931 . S
C161 C160 1.332 . S
C161 C162 1.267 . S
C162 H130 0.929 . S
C162 C161 1.267 . S
C162 C163 1.251 . S
C163 H133 0.929 . S
C163 N159 1.418 . S
C163 C162 1.251 . S
C164 H131 0.930 . S
C164 C166 1.406 . S
C164 C169 1.261 . S
C165 H132 0.930 . S
C165 N167 1.325 . S
C165 C168 1.357 . S
C166 H134 0.928 . S
C166 C164 1.406 . S
C166 N167 1.261 . S
N167 Co118 2.214 . S
N167 C165 1.325 . S
N167 C166 1.261 . S
C168 H138 0.931 . S
C168 C165 1.357 . S
C168 C169 1.312 . S
C169 H140 0.930 . S
C169 C164 1.261 . S
C169 C168 1.312 . S
C170 O142 1.214 . S
C170 O150 1.234 . S
C171 H143 0.929 . S
C171 C174 1.391 . S
C171 C176 1.391 . S
C172 H144 0.929 . S
C172 C173 1.390 . S
C172 N175 1.391 . S
C173 H145 0.930 . S
C173 C172 1.390 . S
C173 C174 1.392 . S
C174 H146 0.929 . S
C174 C171 1.391 . S
C174 C173 1.392 . S
N175 Co119 2.257 . S
N175 C172 1.391 . S
N175 C176 1.388 . S
C176 H147 0.930 . S
C176 C171 1.391 . S
C176 N175 1.388 . S
Co177 O179 2.143 . S
Co177 O185 2.074 . S
Co177 O188 2.093 . S
Co177 O201 2.097 . S
Co177 N218 2.151 . S
Co177 N226 2.214 . S
Co178 O179 2.160 . S
Co178 O184 2.058 . S
Co178 O194 2.057 . S
Co178 O209 2.037 . S
Co178 N213 2.145 . S
Co178 N234 2.257 . S
O179 Co177 2.143 . S
O179 Co178 2.160 . S
C180 O181 1.278 . S
C180 O188 1.224 . S
O181 C180 1.278 . S
C182 O183 1.245 . S
C182 O194 1.232 . S
O183 C182 1.245 . S
O184 Co178 2.058 . S
O184 C210 1.269 . S
O185 Co177 2.074 . S
O185 C210 1.257 . S
H186 C211 0.930 . S
H187 C217 0.930 . S
O188 Co177 2.093 . S
O188 C180 1.224 . S
H189 C221 0.929 . S
H190 C223 0.930 . S
H191 C224 0.930 . S
H192 C222 0.929 . S
H193 C225 0.928 . S
O194 Co178 2.057 . S
O194 C182 1.232 . S
H195 C214 0.929 . S
H196 C215 0.929 . S
H197 C227 0.931 . S
H198 C219 0.929 . S
H199 C228 0.930 . S
H200 C220 0.931 . S
O201 Co177 2.097 . S
O201 C229 1.214 . S
H202 C230 0.929 . S
H203 C231 0.929 . S
H204 C232 0.930 . S
H205 C233 0.929 . S
H206 C235 0.930 . S
H207 C212 0.930 . S
H208 C216 0.930 . S
O209 Co178 2.037 . S
O209 C229 1.234 . S
C210 O184 1.269 . S
C210 O185 1.257 . S
C211 H186 0.930 . S
C211 C214 1.388 . S
C211 C216 1.418 . S
C212 H207 0.930 . S
C212 C215 1.404 . S
C212 C216 1.353 . S
N213 Co178 2.145 . S
N213 C214 1.397 . S
N213 C215 1.334 . S
C214 H195 0.929 . S
C214 C211 1.388 . S
C214 N213 1.397 . S
C215 H196 0.929 . S
C215 C212 1.404 . S
C215 N213 1.334 . S
C216 H208 0.930 . S
C216 C211 1.418 . S
C216 C212 1.353 . S
C217 H187 0.930 . S
C217 N218 1.330 . S
C217 C219 1.446 . S
N218 Co177 2.151 . S
N218 C217 1.330 . S
N218 C222 1.418 . S
C219 H198 0.929 . S
C219 C217 1.446 . S
C219 C220 1.332 . S
C220 H200 0.931 . S
C220 C219 1.332 . S
C220 C221 1.267 . S
C221 H189 0.929 . S
C221 C220 1.267 . S
C221 C222 1.251 . S
C222 H192 0.929 . S
C222 N218 1.418 . S
C222 C221 1.251 . S
C223 H190 0.930 . S
C223 C225 1.406 . S
C223 C228 1.261 . S
C224 H191 0.930 . S
C224 N226 1.325 . S
C224 C227 1.357 . S
C225 H193 0.928 . S
C225 C223 1.406 . S
C225 N226 1.261 . S
N226 Co177 2.214 . S
N226 C224 1.325 . S
N226 C225 1.261 . S
C227 H197 0.931 . S
C227 C224 1.357 . S
C227 C228 1.312 . S
C228 H199 0.930 . S
C228 C223 1.261 . S
C228 C227 1.312 . S
C229 O201 1.214 . S
C229 O209 1.234 . S
C230 H202 0.929 . S
C230 C233 1.391 . S
C230 C235 1.391 . S
C231 H203 0.929 . S
C231 C232 1.390 . S
C231 N234 1.391 . S
C232 H204 0.930 . S
C232 C231 1.390 . S
C232 C233 1.392 . S
C233 H205 0.929 . S
C233 C230 1.391 . S
C233 C232 1.392 . S
N234 Co178 2.257 . S
N234 C231 1.391 . S
N234 C235 1.388 . S
C235 H206 0.930 . S
C235 C230 1.391 . S
C235 N234 1.388 . S
Co236 O238 2.143 . S
Co236 O244 2.074 . S
Co236 O247 2.093 . S
Co236 O260 2.097 . S
Co236 N277 2.151 . S
Co236 N285 2.214 . S
Co237 O238 2.160 . S
Co237 O243 2.058 . S
Co237 O253 2.057 . S
Co237 O268 2.037 . S
Co237 N272 2.145 . S
Co237 N293 2.257 . S
O238 Co236 2.143 . S
O238 Co237 2.160 . S
C239 O240 1.278 . S
C239 O247 1.224 . S
O240 C239 1.278 . S
C241 O242 1.245 . S
C241 O253 1.232 . S
O242 C241 1.245 . S
O243 Co237 2.058 . S
O243 C269 1.269 . S
O244 Co236 2.074 . S
O244 C269 1.257 . S
H245 C270 0.930 . S
H246 C276 0.930 . S
O247 Co236 2.093 . S
O247 C239 1.224 . S
H248 C280 0.929 . S
H249 C282 0.930 . S
H250 C283 0.930 . S
H251 C281 0.929 . S
H252 C284 0.928 . S
O253 Co237 2.057 . S
O253 C241 1.232 . S
H254 C273 0.929 . S
H255 C274 0.929 . S
H256 C286 0.931 . S
H257 C278 0.929 . S
H258 C287 0.930 . S
H259 C279 0.931 . S
O260 Co236 2.097 . S
O260 C288 1.214 . S
H261 C289 0.929 . S
H262 C290 0.929 . S
H263 C291 0.930 . S
H264 C292 0.929 . S
H265 C294 0.930 . S
H266 C271 0.930 . S
H267 C275 0.930 . S
O268 Co237 2.037 . S
O268 C288 1.234 . S
C269 O243 1.269 . S
C269 O244 1.257 . S
C270 H245 0.930 . S
C270 C273 1.388 . S
C270 C275 1.418 . S
C271 H266 0.930 . S
C271 C274 1.404 . S
C271 C275 1.353 . S
N272 Co237 2.145 . S
N272 C273 1.397 . S
N272 C274 1.334 . S
C273 H254 0.929 . S
C273 C270 1.388 . S
C273 N272 1.397 . S
C274 H255 0.929 . S
C274 C271 1.404 . S
C274 N272 1.334 . S
C275 H267 0.930 . S
C275 C270 1.418 . S
C275 C271 1.353 . S
C276 H246 0.930 . S
C276 N277 1.330 . S
C276 C278 1.446 . S
N277 Co236 2.151 . S
N277 C276 1.330 . S
N277 C281 1.418 . S
C278 H257 0.929 . S
C278 C276 1.446 . S
C278 C279 1.332 . S
C279 H259 0.931 . S
C279 C278 1.332 . S
C279 C280 1.267 . S
C280 H248 0.929 . S
C280 C279 1.267 . S
C280 C281 1.251 . S
C281 H251 0.929 . S
C281 N277 1.418 . S
C281 C280 1.251 . S
C282 H249 0.930 . S
C282 C284 1.406 . S
C282 C287 1.261 . S
C283 H250 0.930 . S
C283 N285 1.325 . S
C283 C286 1.357 . S
C284 H252 0.928 . S
C284 C282 1.406 . S
C284 N285 1.261 . S
N285 Co236 2.214 . S
N285 C283 1.325 . S
N285 C284 1.261 . S
C286 H256 0.931 . S
C286 C283 1.357 . S
C286 C287 1.312 . S
C287 H258 0.930 . S
C287 C282 1.261 . S
C287 C286 1.312 . S
C288 O260 1.214 . S
C288 O268 1.234 . S
C289 H261 0.929 . S
C289 C292 1.391 . S
C289 C294 1.391 . S
C290 H262 0.929 . S
C290 C291 1.390 . S
C290 N293 1.391 . S
C291 H263 0.930 . S
C291 C290 1.390 . S
C291 C292 1.392 . S
C292 H264 0.929 . S
C292 C289 1.391 . S
C292 C291 1.392 . S
N293 Co237 2.257 . S
N293 C290 1.391 . S
N293 C294 1.388 . S
C294 H265 0.930 . S
C294 C289 1.391 . S
C294 N293 1.388 . S
Co295 O297 2.143 . S
Co295 O303 2.074 . S
Co295 O306 2.093 . S
Co295 O319 2.097 . S
Co295 N336 2.151 . S
Co295 N344 2.214 . S
Co296 O297 2.160 . S
Co296 O302 2.058 . S
Co296 O312 2.057 . S
Co296 O327 2.037 . S
Co296 N331 2.145 . S
Co296 N352 2.257 . S
O297 Co295 2.143 . S
O297 Co296 2.160 . S
C298 O299 1.278 . S
C298 O306 1.224 . S
O299 C298 1.278 . S
C300 O301 1.245 . S
C300 O312 1.232 . S
O301 C300 1.245 . S
O302 Co296 2.058 . S
O302 C328 1.269 . S
O303 Co295 2.074 . S
O303 C328 1.257 . S
H304 C329 0.930 . S
H305 C335 0.930 . S
O306 Co295 2.093 . S
O306 C298 1.224 . S
H307 C339 0.929 . S
H308 C341 0.930 . S
H309 C342 0.930 . S
H310 C340 0.929 . S
H311 C343 0.928 . S
O312 Co296 2.057 . S
O312 C300 1.232 . S
H313 C332 0.929 . S
H314 C333 0.929 . S
H315 C345 0.931 . S
H316 C337 0.929 . S
H317 C346 0.930 . S
H318 C338 0.931 . S
O319 Co295 2.097 . S
O319 C347 1.214 . S
H320 C348 0.929 . S
H321 C349 0.929 . S
H322 C350 0.930 . S
H323 C351 0.929 . S
H324 C353 0.930 . S
H325 C330 0.930 . S
H326 C334 0.930 . S
O327 Co296 2.037 . S
O327 C347 1.234 . S
C328 O302 1.269 . S
C328 O303 1.257 . S
C329 H304 0.930 . S
C329 C332 1.388 . S
C329 C334 1.418 . S
C330 H325 0.930 . S
C330 C333 1.404 . S
C330 C334 1.353 . S
N331 Co296 2.145 . S
N331 C332 1.397 . S
N331 C333 1.334 . S
C332 H313 0.929 . S
C332 C329 1.388 . S
C332 N331 1.397 . S
C333 H314 0.929 . S
C333 C330 1.404 . S
C333 N331 1.334 . S
C334 H326 0.930 . S
C334 C329 1.418 . S
C334 C330 1.353 . S
C335 H305 0.930 . S
C335 N336 1.330 . S
C335 C337 1.446 . S
N336 Co295 2.151 . S
N336 C335 1.330 . S
N336 C340 1.418 . S
C337 H316 0.929 . S
C337 C335 1.446 . S
C337 C338 1.332 . S
C338 H318 0.931 . S
C338 C337 1.332 . S
C338 C339 1.267 . S
C339 H307 0.929 . S
C339 C338 1.267 . S
C339 C340 1.251 . S
C340 H310 0.929 . S
C340 N336 1.418 . S
C340 C339 1.251 . S
C341 H308 0.930 . S
C341 C343 1.406 . S
C341 C346 1.261 . S
C342 H309 0.930 . S
C342 N344 1.325 . S
C342 C345 1.357 . S
C343 H311 0.928 . S
C343 C341 1.406 . S
C343 N344 1.261 . S
N344 Co295 2.214 . S
N344 C342 1.325 . S
N344 C343 1.261 . S
C345 H315 0.931 . S
C345 C342 1.357 . S
C345 C346 1.312 . S
C346 H317 0.930 . S
C346 C341 1.261 . S
C346 C345 1.312 . S
C347 O319 1.214 . S
C347 O327 1.234 . S
C348 H320 0.929 . S
C348 C351 1.391 . S
C348 C353 1.391 . S
C349 H321 0.929 . S
C349 C350 1.390 . S
C349 N352 1.391 . S
C350 H322 0.930 . S
C350 C349 1.390 . S
C350 C351 1.392 . S
C351 H323 0.929 . S
C351 C348 1.391 . S
C351 C350 1.392 . S
N352 Co296 2.257 . S
N352 C349 1.391 . S
N352 C353 1.388 . S
C353 H324 0.930 . S
C353 C348 1.391 . S
C353 N352 1.388 . S
Co354 O356 2.143 . S
Co354 O362 2.074 . S
Co354 O365 2.093 . S
Co354 O378 2.097 . S
Co354 N395 2.151 . S
Co354 N403 2.214 . S
Co355 O356 2.160 . S
Co355 O361 2.058 . S
Co355 O371 2.057 . S
Co355 O386 2.037 . S
Co355 N390 2.145 . S
Co355 N411 2.257 . S
O356 Co354 2.143 . S
O356 Co355 2.160 . S
C357 O358 1.278 . S
C357 O365 1.224 . S
O358 C357 1.278 . S
C359 O360 1.245 . S
C359 O371 1.232 . S
O360 C359 1.245 . S
O361 Co355 2.058 . S
O361 C387 1.269 . S
O362 Co354 2.074 . S
O362 C387 1.257 . S
H363 C388 0.930 . S
H364 C394 0.930 . S
O365 Co354 2.093 . S
O365 C357 1.224 . S
H366 C398 0.929 . S
H367 C400 0.930 . S
H368 C401 0.930 . S
H369 C399 0.929 . S
H370 C402 0.928 . S
O371 Co355 2.057 . S
O371 C359 1.232 . S
H372 C391 0.929 . S
H373 C392 0.929 . S
H374 C404 0.931 . S
H375 C396 0.929 . S
H376 C405 0.930 . S
H377 C397 0.931 . S
O378 Co354 2.097 . S
O378 C406 1.214 . S
H379 C407 0.929 . S
H380 C408 0.929 . S
H381 C409 0.930 . S
H382 C410 0.929 . S
H383 C412 0.930 . S
H384 C389 0.930 . S
H385 C393 0.930 . S
O386 Co355 2.037 . S
O386 C406 1.234 . S
C387 O361 1.269 . S
C387 O362 1.257 . S
C388 H363 0.930 . S
C388 C391 1.388 . S
C388 C393 1.418 . S
C389 H384 0.930 . S
C389 C392 1.404 . S
C389 C393 1.353 . S
N390 Co355 2.145 . S
N390 C391 1.397 . S
N390 C392 1.334 . S
C391 H372 0.929 . S
C391 C388 1.388 . S
C391 N390 1.397 . S
C392 H373 0.929 . S
C392 C389 1.404 . S
C392 N390 1.334 . S
C393 H385 0.930 . S
C393 C388 1.418 . S
C393 C389 1.353 . S
C394 H364 0.930 . S
C394 N395 1.330 . S
C394 C396 1.446 . S
N395 Co354 2.151 . S
N395 C394 1.330 . S
N395 C399 1.418 . S
C396 H375 0.929 . S
C396 C394 1.446 . S
C396 C397 1.332 . S
C397 H377 0.931 . S
C397 C396 1.332 . S
C397 C398 1.267 . S
C398 H366 0.929 . S
C398 C397 1.267 . S
C398 C399 1.251 . S
C399 H369 0.929 . S
C399 N395 1.418 . S
C399 C398 1.251 . S
C400 H367 0.930 . S
C400 C402 1.406 . S
C400 C405 1.261 . S
C401 H368 0.930 . S
C401 N403 1.325 . S
C401 C404 1.357 . S
C402 H370 0.928 . S
C402 C400 1.406 . S
C402 N403 1.261 . S
N403 Co354 2.214 . S
N403 C401 1.325 . S
N403 C402 1.261 . S
C404 H374 0.931 . S
C404 C401 1.357 . S
C404 C405 1.312 . S
C405 H376 0.930 . S
C405 C400 1.261 . S
C405 C404 1.312 . S
C406 O378 1.214 . S
C406 O386 1.234 . S
C407 H379 0.929 . S
C407 C410 1.391 . S
C407 C412 1.391 . S
C408 H380 0.929 . S
C408 C409 1.390 . S
C408 N411 1.391 . S
C409 H381 0.930 . S
C409 C408 1.390 . S
C409 C410 1.392 . S
C410 H382 0.929 . S
C410 C407 1.391 . S
C410 C409 1.392 . S
N411 Co355 2.257 . S
N411 C408 1.391 . S
N411 C412 1.388 . S
C412 H383 0.930 . S
C412 C407 1.391 . S
C412 N411 1.388 . S
Co413 O415 2.143 . S
Co413 O421 2.074 . S
Co413 O424 2.093 . S
Co413 O437 2.097 . S
Co413 N454 2.151 . S
Co413 N462 2.214 . S
Co414 O415 2.160 . S
Co414 O420 2.058 . S
Co414 O430 2.057 . S
Co414 O445 2.037 . S
Co414 N449 2.145 . S
Co414 N470 2.257 . S
O415 Co413 2.143 . S
O415 Co414 2.160 . S
C416 O417 1.278 . S
C416 O424 1.224 . S
O417 C416 1.278 . S
C418 O419 1.245 . S
C418 O430 1.232 . S
O419 C418 1.245 . S
O420 Co414 2.058 . S
O420 C446 1.269 . S
O421 Co413 2.074 . S
O421 C446 1.257 . S
H422 C447 0.930 . S
H423 C453 0.930 . S
O424 Co413 2.093 . S
O424 C416 1.224 . S
H425 C457 0.929 . S
H426 C459 0.930 . S
H427 C460 0.930 . S
H428 C458 0.929 . S
H429 C461 0.928 . S
O430 Co414 2.057 . S
O430 C418 1.232 . S
H431 C450 0.929 . S
H432 C451 0.929 . S
H433 C463 0.931 . S
H434 C455 0.929 . S
H435 C464 0.930 . S
H436 C456 0.931 . S
O437 Co413 2.097 . S
O437 C465 1.214 . S
H438 C466 0.929 . S
H439 C467 0.929 . S
H440 C468 0.930 . S
H441 C469 0.929 . S
H442 C471 0.930 . S
H443 C448 0.930 . S
H444 C452 0.930 . S
O445 Co414 2.037 . S
O445 C465 1.234 . S
C446 O420 1.269 . S
C446 O421 1.257 . S
C447 H422 0.930 . S
C447 C450 1.388 . S
C447 C452 1.418 . S
C448 H443 0.930 . S
C448 C451 1.404 . S
C448 C452 1.353 . S
N449 Co414 2.145 . S
N449 C450 1.397 . S
N449 C451 1.334 . S
C450 H431 0.929 . S
C450 C447 1.388 . S
C450 N449 1.397 . S
C451 H432 0.929 . S
C451 C448 1.404 . S
C451 N449 1.334 . S
C452 H444 0.930 . S
C452 C447 1.418 . S
C452 C448 1.353 . S
C453 H423 0.930 . S
C453 N454 1.330 . S
C453 C455 1.446 . S
N454 Co413 2.151 . S
N454 C453 1.330 . S
N454 C458 1.418 . S
C455 H434 0.929 . S
C455 C453 1.446 . S
C455 C456 1.332 . S
C456 H436 0.931 . S
C456 C455 1.332 . S
C456 C457 1.267 . S
C457 H425 0.929 . S
C457 C456 1.267 . S
C457 C458 1.251 . S
C458 H428 0.929 . S
C458 N454 1.418 . S
C458 C457 1.251 . S
C459 H426 0.930 . S
C459 C461 1.406 . S
C459 C464 1.261 . S
C460 H427 0.930 . S
C460 N462 1.325 . S
C460 C463 1.357 . S
C461 H429 0.928 . S
C461 C459 1.406 . S
C461 N462 1.261 . S
N462 Co413 2.214 . S
N462 C460 1.325 . S
N462 C461 1.261 . S
C463 H433 0.931 . S
C463 C460 1.357 . S
C463 C464 1.312 . S
C464 H435 0.930 . S
C464 C459 1.261 . S
C464 C463 1.312 . S
C465 O437 1.214 . S
C465 O445 1.234 . S
C466 H438 0.929 . S
C466 C469 1.391 . S
C466 C471 1.391 . S
C467 H439 0.929 . S
C467 C468 1.390 . S
C467 N470 1.391 . S
C468 H440 0.930 . S
C468 C467 1.390 . S
C468 C469 1.392 . S
C469 H441 0.929 . S
C469 C466 1.391 . S
C469 C468 1.392 . S
N470 Co414 2.257 . S
N470 C467 1.391 . S
N470 C471 1.388 . S
C471 H442 0.930 . S
C471 C466 1.391 . S
C471 N470 1.388 . S
Co472 O474 2.143 . S
Co472 O480 2.074 . S
Co472 O483 2.093 . S
Co472 O496 2.097 . S
Co472 N513 2.151 . S
Co472 N521 2.214 . S
Co473 O474 2.160 . S
Co473 O479 2.058 . S
Co473 O489 2.057 . S
Co473 O504 2.037 . S
Co473 N508 2.145 . S
Co473 N529 2.257 . S
O474 Co472 2.143 . S
O474 Co473 2.160 . S
C475 O476 1.278 . S
C475 O483 1.224 . S
O476 C475 1.278 . S
C477 O478 1.245 . S
C477 O489 1.232 . S
O478 C477 1.245 . S
O479 Co473 2.058 . S
O479 C505 1.269 . S
O480 Co472 2.074 . S
O480 C505 1.257 . S
H481 C506 0.930 . S
H482 C512 0.930 . S
O483 Co472 2.093 . S
O483 C475 1.224 . S
H484 C516 0.929 . S
H485 C518 0.930 . S
H486 C519 0.930 . S
H487 C517 0.929 . S
H488 C520 0.928 . S
O489 Co473 2.057 . S
O489 C477 1.232 . S
H490 C509 0.929 . S
H491 C510 0.929 . S
H492 C522 0.931 . S
H493 C514 0.929 . S
H494 C523 0.930 . S
H495 C515 0.931 . S
O496 Co472 2.097 . S
O496 C524 1.214 . S
H497 C525 0.929 . S
H498 C526 0.929 . S
H499 C527 0.930 . S
H500 C528 0.929 . S
H501 C530 0.930 . S
H502 C507 0.930 . S
H503 C511 0.930 . S
O504 Co473 2.037 . S
O504 C524 1.234 . S
C505 O479 1.269 . S
C505 O480 1.257 . S
C506 H481 0.930 . S
C506 C509 1.388 . S
C506 C511 1.418 . S
C507 H502 0.930 . S
C507 C510 1.404 . S
C507 C511 1.353 . S
N508 Co473 2.145 . S
N508 C509 1.397 . S
N508 C510 1.334 . S
C509 H490 0.929 . S
C509 C506 1.388 . S
C509 N508 1.397 . S
C510 H491 0.929 . S
C510 C507 1.404 . S
C510 N508 1.334 . S
C511 H503 0.930 . S
C511 C506 1.418 . S
C511 C507 1.353 . S
C512 H482 0.930 . S
C512 N513 1.330 . S
C512 C514 1.446 . S
N513 Co472 2.151 . S
N513 C512 1.330 . S
N513 C517 1.418 . S
C514 H493 0.929 . S
C514 C512 1.446 . S
C514 C515 1.332 . S
C515 H495 0.931 . S
C515 C514 1.332 . S
C515 C516 1.267 . S
C516 H484 0.929 . S
C516 C515 1.267 . S
C516 C517 1.251 . S
C517 H487 0.929 . S
C517 N513 1.418 . S
C517 C516 1.251 . S
C518 H485 0.930 . S
C518 C520 1.406 . S
C518 C523 1.261 . S
C519 H486 0.930 . S
C519 N521 1.325 . S
C519 C522 1.357 . S
C520 H488 0.928 . S
C520 C518 1.406 . S
C520 N521 1.261 . S
N521 Co472 2.214 . S
N521 C519 1.325 . S
N521 C520 1.261 . S
C522 H492 0.931 . S
C522 C519 1.357 . S
C522 C523 1.312 . S
C523 H494 0.930 . S
C523 C518 1.261 . S
C523 C522 1.312 . S
C524 O496 1.214 . S
C524 O504 1.234 . S
C525 H497 0.929 . S
C525 C528 1.391 . S
C525 C530 1.391 . S
C526 H498 0.929 . S
C526 C527 1.390 . S
C526 N529 1.391 . S
C527 H499 0.930 . S
C527 C526 1.390 . S
C527 C528 1.392 . S
C528 H500 0.929 . S
C528 C525 1.391 . S
C528 C527 1.392 . S
N529 Co473 2.257 . S
N529 C526 1.391 . S
N529 C530 1.388 . S
C530 H501 0.930 . S
C530 C525 1.391 . S
C530 N529 1.388 . S
Co531 O533 2.143 . S
Co531 O539 2.074 . S
Co531 O542 2.093 . S
Co531 O555 2.097 . S
Co531 N572 2.151 . S
Co531 N580 2.214 . S
Co532 O533 2.160 . S
Co532 O538 2.058 . S
Co532 O548 2.057 . S
Co532 O563 2.037 . S
Co532 N567 2.145 . S
Co532 N588 2.257 . S
O533 Co531 2.143 . S
O533 Co532 2.160 . S
C534 O535 1.278 . S
C534 O542 1.224 . S
O535 C534 1.278 . S
C536 O537 1.245 . S
C536 O548 1.232 . S
O537 C536 1.245 . S
O538 Co532 2.058 . S
O538 C564 1.269 . S
O539 Co531 2.074 . S
O539 C564 1.257 . S
H540 C565 0.930 . S
H541 C571 0.930 . S
O542 Co531 2.093 . S
O542 C534 1.224 . S
H543 C575 0.929 . S
H544 C577 0.930 . S
H545 C578 0.930 . S
H546 C576 0.929 . S
H547 C579 0.928 . S
O548 Co532 2.057 . S
O548 C536 1.232 . S
H549 C568 0.929 . S
H550 C569 0.929 . S
H551 C581 0.931 . S
H552 C573 0.929 . S
H553 C582 0.930 . S
H554 C574 0.931 . S
O555 Co531 2.097 . S
O555 C583 1.214 . S
H556 C584 0.929 . S
H557 C585 0.929 . S
H558 C586 0.930 . S
H559 C587 0.929 . S
H560 C589 0.930 . S
H561 C566 0.930 . S
H562 C570 0.930 . S
O563 Co532 2.037 . S
O563 C583 1.234 . S
C564 O538 1.269 . S
C564 O539 1.257 . S
C565 H540 0.930 . S
C565 C568 1.388 . S
C565 C570 1.418 . S
C566 H561 0.930 . S
C566 C569 1.404 . S
C566 C570 1.353 . S
N567 Co532 2.145 . S
N567 C568 1.397 . S
N567 C569 1.334 . S
C568 H549 0.929 . S
C568 C565 1.388 . S
C568 N567 1.397 . S
C569 H550 0.929 . S
C569 C566 1.404 . S
C569 N567 1.334 . S
C570 H562 0.930 . S
C570 C565 1.418 . S
C570 C566 1.353 . S
C571 H541 0.930 . S
C571 N572 1.330 . S
C571 C573 1.446 . S
N572 Co531 2.151 . S
N572 C571 1.330 . S
N572 C576 1.418 . S
C573 H552 0.929 . S
C573 C571 1.446 . S
C573 C574 1.332 . S
C574 H554 0.931 . S
C574 C573 1.332 . S
C574 C575 1.267 . S
C575 H543 0.929 . S
C575 C574 1.267 . S
C575 C576 1.251 . S
C576 H546 0.929 . S
C576 N572 1.418 . S
C576 C575 1.251 . S
C577 H544 0.930 . S
C577 C579 1.406 . S
C577 C582 1.261 . S
C578 H545 0.930 . S
C578 N580 1.325 . S
C578 C581 1.357 . S
C579 H547 0.928 . S
C579 C577 1.406 . S
C579 N580 1.261 . S
N580 Co531 2.214 . S
N580 C578 1.325 . S
N580 C579 1.261 . S
C581 H551 0.931 . S
C581 C578 1.357 . S
C581 C582 1.312 . S
C582 H553 0.930 . S
C582 C577 1.261 . S
C582 C581 1.312 . S
C583 O555 1.214 . S
C583 O563 1.234 . S
C584 H556 0.929 . S
C584 C587 1.391 . S
C584 C589 1.391 . S
C585 H557 0.929 . S
C585 C586 1.390 . S
C585 N588 1.391 . S
C586 H558 0.930 . S
C586 C585 1.390 . S
C586 C587 1.392 . S
C587 H559 0.929 . S
C587 C584 1.391 . S
C587 C586 1.392 . S
N588 Co532 2.257 . S
N588 C585 1.391 . S
N588 C589 1.388 . S
C589 H560 0.930 . S
C589 C584 1.391 . S
C589 N588 1.388 . S
Co590 O592 2.143 . S
Co590 O598 2.074 . S
Co590 O601 2.093 . S
Co590 O614 2.097 . S
Co590 N631 2.151 . S
Co590 N639 2.214 . S
Co591 O592 2.160 . S
Co591 O597 2.058 . S
Co591 O607 2.057 . S
Co591 O622 2.037 . S
Co591 N626 2.145 . S
Co591 N647 2.257 . S
O592 Co590 2.143 . S
O592 Co591 2.160 . S
C593 O594 1.278 . S
C593 O601 1.224 . S
O594 C593 1.278 . S
C595 O596 1.245 . S
C595 O607 1.232 . S
O596 C595 1.245 . S
O597 Co591 2.058 . S
O597 C623 1.269 . S
O598 Co590 2.074 . S
O598 C623 1.257 . S
H599 C624 0.930 . S
H600 C630 0.930 . S
O601 Co590 2.093 . S
O601 C593 1.224 . S
H602 C634 0.929 . S
H603 C636 0.930 . S
H604 C637 0.930 . S
H605 C635 0.929 . S
H606 C638 0.928 . S
O607 Co591 2.057 . S
O607 C595 1.232 . S
H608 C627 0.929 . S
H609 C628 0.929 . S
H610 C640 0.931 . S
H611 C632 0.929 . S
H612 C641 0.930 . S
H613 C633 0.931 . S
O614 Co590 2.097 . S
O614 C642 1.214 . S
H615 C643 0.929 . S
H616 C644 0.929 . S
H617 C645 0.930 . S
H618 C646 0.929 . S
H619 C648 0.930 . S
H620 C625 0.930 . S
H621 C629 0.930 . S
O622 Co591 2.037 . S
O622 C642 1.234 . S
C623 O597 1.269 . S
C623 O598 1.257 . S
C624 H599 0.930 . S
C624 C627 1.388 . S
C624 C629 1.418 . S
C625 H620 0.930 . S
C625 C628 1.404 . S
C625 C629 1.353 . S
N626 Co591 2.145 . S
N626 C627 1.397 . S
N626 C628 1.334 . S
C627 H608 0.929 . S
C627 C624 1.388 . S
C627 N626 1.397 . S
C628 H609 0.929 . S
C628 C625 1.404 . S
C628 N626 1.334 . S
C629 H621 0.930 . S
C629 C624 1.418 . S
C629 C625 1.353 . S
C630 H600 0.930 . S
C630 N631 1.330 . S
C630 C632 1.446 . S
N631 Co590 2.151 . S
N631 C630 1.330 . S
N631 C635 1.418 . S
C632 H611 0.929 . S
C632 C630 1.446 . S
C632 C633 1.332 . S
C633 H613 0.931 . S
C633 C632 1.332 . S
C633 C634 1.267 . S
C634 H602 0.929 . S
C634 C633 1.267 . S
C634 C635 1.251 . S
C635 H605 0.929 . S
C635 N631 1.418 . S
C635 C634 1.251 . S
C636 H603 0.930 . S
C636 C638 1.406 . S
C636 C641 1.261 . S
C637 H604 0.930 . S
C637 N639 1.325 . S
C637 C640 1.357 . S
C638 H606 0.928 . S
C638 C636 1.406 . S
C638 N639 1.261 . S
N639 Co590 2.214 . S
N639 C637 1.325 . S
N639 C638 1.261 . S
C640 H610 0.931 . S
C640 C637 1.357 . S
C640 C641 1.312 . S
C641 H612 0.930 . S
C641 C636 1.261 . S
C641 C640 1.312 . S
C642 O614 1.214 . S
C642 O622 1.234 . S
C643 H615 0.929 . S
C643 C646 1.391 . S
C643 C648 1.391 . S
C644 H616 0.929 . S
C644 C645 1.390 . S
C644 N647 1.391 . S
C645 H617 0.930 . S
C645 C644 1.390 . S
C645 C646 1.392 . S
C646 H618 0.929 . S
C646 C643 1.391 . S
C646 C645 1.392 . S
N647 Co591 2.257 . S
N647 C644 1.391 . S
N647 C648 1.388 . S
C648 H619 0.930 . S
C648 C643 1.391 . S
C648 N647 1.388 . S
Co649 O651 2.143 . S
Co649 O657 2.074 . S
Co649 O660 2.093 . S
Co649 O673 2.097 . S
Co649 N690 2.151 . S
Co649 N698 2.214 . S
Co650 O651 2.160 . S
Co650 O656 2.058 . S
Co650 O666 2.057 . S
Co650 O681 2.037 . S
Co650 N685 2.145 . S
Co650 N706 2.257 . S
O651 Co649 2.143 . S
O651 Co650 2.160 . S
C652 O653 1.278 . S
C652 O660 1.224 . S
O653 C652 1.278 . S
C654 O655 1.245 . S
C654 O666 1.232 . S
O655 C654 1.245 . S
O656 Co650 2.058 . S
O656 C682 1.269 . S
O657 Co649 2.074 . S
O657 C682 1.257 . S
H658 C683 0.930 . S
H659 C689 0.930 . S
O660 Co649 2.093 . S
O660 C652 1.224 . S
H661 C693 0.929 . S
H662 C695 0.930 . S
H663 C696 0.930 . S
H664 C694 0.929 . S
H665 C697 0.928 . S
O666 Co650 2.057 . S
O666 C654 1.232 . S
H667 C686 0.929 . S
H668 C687 0.929 . S
H669 C699 0.931 . S
H670 C691 0.929 . S
H671 C700 0.930 . S
H672 C692 0.931 . S
O673 Co649 2.097 . S
O673 C701 1.214 . S
H674 C702 0.929 . S
H675 C703 0.929 . S
H676 C704 0.930 . S
H677 C705 0.929 . S
H678 C707 0.930 . S
H679 C684 0.930 . S
H680 C688 0.930 . S
O681 Co650 2.037 . S
O681 C701 1.234 . S
C682 O656 1.269 . S
C682 O657 1.257 . S
C683 H658 0.930 . S
C683 C686 1.388 . S
C683 C688 1.418 . S
C684 H679 0.930 . S
C684 C687 1.404 . S
C684 C688 1.353 . S
N685 Co650 2.145 . S
N685 C686 1.397 . S
N685 C687 1.334 . S
C686 H667 0.929 . S
C686 C683 1.388 . S
C686 N685 1.397 . S
C687 H668 0.929 . S
C687 C684 1.404 . S
C687 N685 1.334 . S
C688 H680 0.930 . S
C688 C683 1.418 . S
C688 C684 1.353 . S
C689 H659 0.930 . S
C689 N690 1.330 . S
C689 C691 1.446 . S
N690 Co649 2.151 . S
N690 C689 1.330 . S
N690 C694 1.418 . S
C691 H670 0.929 . S
C691 C689 1.446 . S
C691 C692 1.332 . S
C692 H672 0.931 . S
C692 C691 1.332 . S
C692 C693 1.267 . S
C693 H661 0.929 . S
C693 C692 1.267 . S
C693 C694 1.251 . S
C694 H664 0.929 . S
C694 N690 1.418 . S
C694 C693 1.251 . S
C695 H662 0.930 . S
C695 C697 1.406 . S
C695 C700 1.261 . S
C696 H663 0.930 . S
C696 N698 1.325 . S
C696 C699 1.357 . S
C697 H665 0.928 . S
C697 C695 1.406 . S
C697 N698 1.261 . S
N698 Co649 2.214 . S
N698 C696 1.325 . S
N698 C697 1.261 . S
C699 H669 0.931 . S
C699 C696 1.357 . S
C699 C700 1.312 . S
C700 H671 0.930 . S
C700 C695 1.261 . S
C700 C699 1.312 . S
C701 O673 1.214 . S
C701 O681 1.234 . S
C702 H674 0.929 . S
C702 C705 1.391 . S
C702 C707 1.391 . S
C703 H675 0.929 . S
C703 C704 1.390 . S
C703 N706 1.391 . S
C704 H676 0.930 . S
C704 C703 1.390 . S
C704 C705 1.392 . S
C705 H677 0.929 . S
C705 C702 1.391 . S
C705 C704 1.392 . S
N706 Co650 2.257 . S
N706 C703 1.391 . S
N706 C707 1.388 . S
C707 H678 0.930 . S
C707 C702 1.391 . S
C707 N706 1.388 . S
Co708 O710 2.143 . S
Co708 O716 2.074 . S
Co708 O719 2.093 . S
Co708 O732 2.097 . S
Co708 N749 2.151 . S
Co708 N757 2.214 . S
Co709 O710 2.160 . S
Co709 O715 2.058 . S
Co709 O725 2.057 . S
Co709 O740 2.037 . S
Co709 N744 2.145 . S
Co709 N765 2.257 . S
O710 Co708 2.143 . S
O710 Co709 2.160 . S
C711 O712 1.278 . S
C711 O719 1.224 . S
O712 C711 1.278 . S
C713 O714 1.245 . S
C713 O725 1.232 . S
O714 C713 1.245 . S
O715 Co709 2.058 . S
O715 C741 1.269 . S
O716 Co708 2.074 . S
O716 C741 1.257 . S
H717 C742 0.930 . S
H718 C748 0.930 . S
O719 Co708 2.093 . S
O719 C711 1.224 . S
H720 C752 0.929 . S
H721 C754 0.930 . S
H722 C755 0.930 . S
H723 C753 0.929 . S
H724 C756 0.928 . S
O725 Co709 2.057 . S
O725 C713 1.232 . S
H726 C745 0.929 . S
H727 C746 0.929 . S
H728 C758 0.931 . S
H729 C750 0.929 . S
H730 C759 0.930 . S
H731 C751 0.931 . S
O732 Co708 2.097 . S
O732 C760 1.214 . S
H733 C761 0.929 . S
H734 C762 0.929 . S
H735 C763 0.930 . S
H736 C764 0.929 . S
H737 C766 0.930 . S
H738 C743 0.930 . S
H739 C747 0.930 . S
O740 Co709 2.037 . S
O740 C760 1.234 . S
C741 O715 1.269 . S
C741 O716 1.257 . S
C742 H717 0.930 . S
C742 C745 1.388 . S
C742 C747 1.418 . S
C743 H738 0.930 . S
C743 C746 1.404 . S
C743 C747 1.353 . S
N744 Co709 2.145 . S
N744 C745 1.397 . S
N744 C746 1.334 . S
C745 H726 0.929 . S
C745 C742 1.388 . S
C745 N744 1.397 . S
C746 H727 0.929 . S
C746 C743 1.404 . S
C746 N744 1.334 . S
C747 H739 0.930 . S
C747 C742 1.418 . S
C747 C743 1.353 . S
C748 H718 0.930 . S
C748 N749 1.330 . S
C748 C750 1.446 . S
N749 Co708 2.151 . S
N749 C748 1.330 . S
N749 C753 1.418 . S
C750 H729 0.929 . S
C750 C748 1.446 . S
C750 C751 1.332 . S
C751 H731 0.931 . S
C751 C750 1.332 . S
C751 C752 1.267 . S
C752 H720 0.929 . S
C752 C751 1.267 . S
C752 C753 1.251 . S
C753 H723 0.929 . S
C753 N749 1.418 . S
C753 C752 1.251 . S
C754 H721 0.930 . S
C754 C756 1.406 . S
C754 C759 1.261 . S
C755 H722 0.930 . S
C755 N757 1.325 . S
C755 C758 1.357 . S
C756 H724 0.928 . S
C756 C754 1.406 . S
C756 N757 1.261 . S
N757 Co708 2.214 . S
N757 C755 1.325 . S
N757 C756 1.261 . S
C758 H728 0.931 . S
C758 C755 1.357 . S
C758 C759 1.312 . S
C759 H730 0.930 . S
C759 C754 1.261 . S
C759 C758 1.312 . S
C760 O732 1.214 . S
C760 O740 1.234 . S
C761 H733 0.929 . S
C761 C764 1.391 . S
C761 C766 1.391 . S
C762 H734 0.929 . S
C762 C763 1.390 . S
C762 N765 1.391 . S
C763 H735 0.930 . S
C763 C762 1.390 . S
C763 C764 1.392 . S
C764 H736 0.929 . S
C764 C761 1.391 . S
C764 C763 1.392 . S
N765 Co709 2.257 . S
N765 C762 1.391 . S
N765 C766 1.388 . S
C766 H737 0.930 . S
C766 C761 1.391 . S
C766 N765 1.388 . S
Co767 O769 2.143 . S
Co767 O775 2.074 . S
Co767 O778 2.093 . S
Co767 O791 2.097 . S
Co767 N808 2.151 . S
Co767 N816 2.214 . S
Co768 O769 2.160 . S
Co768 O774 2.058 . S
Co768 O784 2.057 . S
Co768 O799 2.037 . S
Co768 N803 2.145 . S
Co768 N824 2.257 . S
O769 Co767 2.143 . S
O769 Co768 2.160 . S
C770 O771 1.278 . S
C770 O778 1.224 . S
O771 C770 1.278 . S
C772 O773 1.245 . S
C772 O784 1.232 . S
O773 C772 1.245 . S
O774 Co768 2.058 . S
O774 C800 1.269 . S
O775 Co767 2.074 . S
O775 C800 1.257 . S
H776 C801 0.930 . S
H777 C807 0.930 . S
O778 Co767 2.093 . S
O778 C770 1.224 . S
H779 C811 0.929 . S
H780 C813 0.930 . S
H781 C814 0.930 . S
H782 C812 0.929 . S
H783 C815 0.928 . S
O784 Co768 2.057 . S
O784 C772 1.232 . S
H785 C804 0.929 . S
H786 C805 0.929 . S
H787 C817 0.931 . S
H788 C809 0.929 . S
H789 C818 0.930 . S
H790 C810 0.931 . S
O791 Co767 2.097 . S
O791 C819 1.214 . S
H792 C820 0.929 . S
H793 C821 0.929 . S
H794 C822 0.930 . S
H795 C823 0.929 . S
H796 C825 0.930 . S
H797 C802 0.930 . S
H798 C806 0.930 . S
O799 Co768 2.037 . S
O799 C819 1.234 . S
C800 O774 1.269 . S
C800 O775 1.257 . S
C801 H776 0.930 . S
C801 C804 1.388 . S
C801 C806 1.418 . S
C802 H797 0.930 . S
C802 C805 1.404 . S
C802 C806 1.353 . S
N803 Co768 2.145 . S
N803 C804 1.397 . S
N803 C805 1.334 . S
C804 H785 0.929 . S
C804 C801 1.388 . S
C804 N803 1.397 . S
C805 H786 0.929 . S
C805 C802 1.404 . S
C805 N803 1.334 . S
C806 H798 0.930 . S
C806 C801 1.418 . S
C806 C802 1.353 . S
C807 H777 0.930 . S
C807 N808 1.330 . S
C807 C809 1.446 . S
N808 Co767 2.151 . S
N808 C807 1.330 . S
N808 C812 1.418 . S
C809 H788 0.929 . S
C809 C807 1.446 . S
C809 C810 1.332 . S
C810 H790 0.931 . S
C810 C809 1.332 . S
C810 C811 1.267 . S
C811 H779 0.929 . S
C811 C810 1.267 . S
C811 C812 1.251 . S
C812 H782 0.929 . S
C812 N808 1.418 . S
C812 C811 1.251 . S
C813 H780 0.930 . S
C813 C815 1.406 . S
C813 C818 1.261 . S
C814 H781 0.930 . S
C814 N816 1.325 . S
C814 C817 1.357 . S
C815 H783 0.928 . S
C815 C813 1.406 . S
C815 N816 1.261 . S
N816 Co767 2.214 . S
N816 C814 1.325 . S
N816 C815 1.261 . S
C817 H787 0.931 . S
C817 C814 1.357 . S
C817 C818 1.312 . S
C818 H789 0.930 . S
C818 C813 1.261 . S
C818 C817 1.312 . S
C819 O791 1.214 . S
C819 O799 1.234 . S
C820 H792 0.929 . S
C820 C823 1.391 . S
C820 C825 1.391 . S
C821 H793 0.929 . S
C821 C822 1.390 . S
C821 N824 1.391 . S
C822 H794 0.930 . S
C822 C821 1.390 . S
C822 C823 1.392 . S
C823 H795 0.929 . S
C823 C820 1.391 . S
C823 C822 1.392 . S
N824 Co768 2.257 . S
N824 C821 1.391 . S
N824 C825 1.388 . S
C825 H796 0.930 . S
C825 C820 1.391 . S
C825 N824 1.388 . S
Co826 O828 2.143 . S
Co826 O834 2.074 . S
Co826 O837 2.093 . S
Co826 O850 2.097 . S
Co826 N867 2.151 . S
Co826 N875 2.214 . S
Co827 O828 2.160 . S
Co827 O833 2.058 . S
Co827 O843 2.057 . S
Co827 O858 2.037 . S
Co827 N862 2.145 . S
Co827 N883 2.257 . S
O828 Co826 2.143 . S
O828 Co827 2.160 . S
C829 O830 1.278 . S
C829 O837 1.224 . S
O830 C829 1.278 . S
C831 O832 1.245 . S
C831 O843 1.232 . S
O832 C831 1.245 . S
O833 Co827 2.058 . S
O833 C859 1.269 . S
O834 Co826 2.074 . S
O834 C859 1.257 . S
H835 C860 0.930 . S
H836 C866 0.930 . S
O837 Co826 2.093 . S
O837 C829 1.224 . S
H838 C870 0.929 . S
H839 C872 0.930 . S
H840 C873 0.930 . S
H841 C871 0.929 . S
H842 C874 0.928 . S
O843 Co827 2.057 . S
O843 C831 1.232 . S
H844 C863 0.929 . S
H845 C864 0.929 . S
H846 C876 0.931 . S
H847 C868 0.929 . S
H848 C877 0.930 . S
H849 C869 0.931 . S
O850 Co826 2.097 . S
O850 C878 1.214 . S
H851 C879 0.929 . S
H852 C880 0.929 . S
H853 C881 0.930 . S
H854 C882 0.929 . S
H855 C884 0.930 . S
H856 C861 0.930 . S
H857 C865 0.930 . S
O858 Co827 2.037 . S
O858 C878 1.234 . S
C859 O833 1.269 . S
C859 O834 1.257 . S
C860 H835 0.930 . S
C860 C863 1.388 . S
C860 C865 1.418 . S
C861 H856 0.930 . S
C861 C864 1.404 . S
C861 C865 1.353 . S
N862 Co827 2.145 . S
N862 C863 1.397 . S
N862 C864 1.334 . S
C863 H844 0.929 . S
C863 C860 1.388 . S
C863 N862 1.397 . S
C864 H845 0.929 . S
C864 C861 1.404 . S
C864 N862 1.334 . S
C865 H857 0.930 . S
C865 C860 1.418 . S
C865 C861 1.353 . S
C866 H836 0.930 . S
C866 N867 1.330 . S
C866 C868 1.446 . S
N867 Co826 2.151 . S
N867 C866 1.330 . S
N867 C871 1.418 . S
C868 H847 0.929 . S
C868 C866 1.446 . S
C868 C869 1.332 . S
C869 H849 0.931 . S
C869 C868 1.332 . S
C869 C870 1.267 . S
C870 H838 0.929 . S
C870 C869 1.267 . S
C870 C871 1.251 . S
C871 H841 0.929 . S
C871 N867 1.418 . S
C871 C870 1.251 . S
C872 H839 0.930 . S
C872 C874 1.406 . S
C872 C877 1.261 . S
C873 H840 0.930 . S
C873 N875 1.325 . S
C873 C876 1.357 . S
C874 H842 0.928 . S
C874 C872 1.406 . S
C874 N875 1.261 . S
N875 Co826 2.214 . S
N875 C873 1.325 . S
N875 C874 1.261 . S
C876 H846 0.931 . S
C876 C873 1.357 . S
C876 C877 1.312 . S
C877 H848 0.930 . S
C877 C872 1.261 . S
C877 C876 1.312 . S
C878 O850 1.214 . S
C878 O858 1.234 . S
C879 H851 0.929 . S
C879 C882 1.391 . S
C879 C884 1.391 . S
C880 H852 0.929 . S
C880 C881 1.390 . S
C880 N883 1.391 . S
C881 H853 0.930 . S
C881 C880 1.390 . S
C881 C882 1.392 . S
C882 H854 0.929 . S
C882 C879 1.391 . S
C882 C881 1.392 . S
N883 Co827 2.257 . S
N883 C880 1.391 . S
N883 C884 1.388 . S
C884 H855 0.930 . S
C884 C879 1.391 . S
C884 N883 1.388 . S
Co885 O887 2.143 . S
Co885 O893 2.074 . S
Co885 O896 2.093 . S
Co885 O909 2.097 . S
Co885 N926 2.151 . S
Co885 N934 2.214 . S
Co886 O887 2.160 . S
Co886 O892 2.058 . S
Co886 O902 2.057 . S
Co886 O917 2.037 . S
Co886 N921 2.145 . S
Co886 N942 2.257 . S
O887 Co885 2.143 . S
O887 Co886 2.160 . S
C888 O889 1.278 . S
C888 O896 1.224 . S
O889 C888 1.278 . S
C890 O891 1.245 . S
C890 O902 1.232 . S
O891 C890 1.245 . S
O892 Co886 2.058 . S
O892 C918 1.269 . S
O893 Co885 2.074 . S
O893 C918 1.257 . S
H894 C919 0.930 . S
H895 C925 0.930 . S
O896 Co885 2.093 . S
O896 C888 1.224 . S
H897 C929 0.929 . S
H898 C931 0.930 . S
H899 C932 0.930 . S
H900 C930 0.929 . S
H901 C933 0.928 . S
O902 Co886 2.057 . S
O902 C890 1.232 . S
H903 C922 0.929 . S
H904 C923 0.929 . S
H905 C935 0.931 . S
H906 C927 0.929 . S
H907 C936 0.930 . S
H908 C928 0.931 . S
O909 Co885 2.097 . S
O909 C937 1.214 . S
H910 C938 0.929 . S
H911 C939 0.929 . S
H912 C940 0.930 . S
H913 C941 0.929 . S
H914 C943 0.930 . S
H915 C920 0.930 . S
H916 C924 0.930 . S
O917 Co886 2.037 . S
O917 C937 1.234 . S
C918 O892 1.269 . S
C918 O893 1.257 . S
C919 H894 0.930 . S
C919 C922 1.388 . S
C919 C924 1.418 . S
C920 H915 0.930 . S
C920 C923 1.404 . S
C920 C924 1.353 . S
N921 Co886 2.145 . S
N921 C922 1.397 . S
N921 C923 1.334 . S
C922 H903 0.929 . S
C922 C919 1.388 . S
C922 N921 1.397 . S
C923 H904 0.929 . S
C923 C920 1.404 . S
C923 N921 1.334 . S
C924 H916 0.930 . S
C924 C919 1.418 . S
C924 C920 1.353 . S
C925 H895 0.930 . S
C925 N926 1.330 . S
C925 C927 1.446 . S
N926 Co885 2.151 . S
N926 C925 1.330 . S
N926 C930 1.418 . S
C927 H906 0.929 . S
C927 C925 1.446 . S
C927 C928 1.332 . S
C928 H908 0.931 . S
C928 C927 1.332 . S
C928 C929 1.267 . S
C929 H897 0.929 . S
C929 C928 1.267 . S
C929 C930 1.251 . S
C930 H900 0.929 . S
C930 N926 1.418 . S
C930 C929 1.251 . S
C931 H898 0.930 . S
C931 C933 1.406 . S
C931 C936 1.261 . S
C932 H899 0.930 . S
C932 N934 1.325 . S
C932 C935 1.357 . S
C933 H901 0.928 . S
C933 C931 1.406 . S
C933 N934 1.261 . S
N934 Co885 2.214 . S
N934 C932 1.325 . S
N934 C933 1.261 . S
C935 H905 0.931 . S
C935 C932 1.357 . S
C935 C936 1.312 . S
C936 H907 0.930 . S
C936 C931 1.261 . S
C936 C935 1.312 . S
C937 O909 1.214 . S
C937 O917 1.234 . S
C938 H910 0.929 . S
C938 C941 1.391 . S
C938 C943 1.391 . S
C939 H911 0.929 . S
C939 C940 1.390 . S
C939 N942 1.391 . S
C940 H912 0.930 . S
C940 C939 1.390 . S
C940 C941 1.392 . S
C941 H913 0.929 . S
C941 C938 1.391 . S
C941 C940 1.392 . S
N942 Co886 2.257 . S
N942 C939 1.391 . S
N942 C943 1.388 . S
C943 H914 0.930 . S
C943 C938 1.391 . S
C943 N942 1.388 . S
Co944 O946 2.143 . S
Co944 O952 2.074 . S
Co944 O955 2.093 . S
Co944 O968 2.097 . S
Co944 N985 2.151 . S
Co944 N993 2.214 . S
Co945 O946 2.160 . S
Co945 O951 2.058 . S
Co945 O961 2.057 . S
Co945 O976 2.037 . S
Co945 N980 2.145 . S
Co945 N1001 2.257 . S
O946 Co944 2.143 . S
O946 Co945 2.160 . S
C947 O948 1.278 . S
C947 O955 1.224 . S
O948 C947 1.278 . S
C949 O950 1.245 . S
C949 O961 1.232 . S
O950 C949 1.245 . S
O951 Co945 2.058 . S
O951 C977 1.269 . S
O952 Co944 2.074 . S
O952 C977 1.257 . S
H953 C978 0.930 . S
H954 C984 0.930 . S
O955 Co944 2.093 . S
O955 C947 1.224 . S
H956 C988 0.929 . S
H957 C990 0.930 . S
H958 C991 0.930 . S
H959 C989 0.929 . S
H960 C992 0.928 . S
O961 Co945 2.057 . S
O961 C949 1.232 . S
H962 C981 0.929 . S
H963 C982 0.929 . S
H964 C994 0.931 . S
H965 C986 0.929 . S
H966 C995 0.930 . S
H967 C987 0.931 . S
O968 Co944 2.097 . S
O968 C996 1.214 . S
H969 C997 0.929 . S
H970 C998 0.929 . S
H971 C999 0.930 . S
H972 C1000 0.929 . S
H973 C1002 0.930 . S
H974 C979 0.930 . S
H975 C983 0.930 . S
O976 Co945 2.037 . S
O976 C996 1.234 . S
C977 O951 1.269 . S
C977 O952 1.257 . S
C978 H953 0.930 . S
C978 C981 1.388 . S
C978 C983 1.418 . S
C979 H974 0.930 . S
C979 C982 1.404 . S
C979 C983 1.353 . S
N980 Co945 2.145 . S
N980 C981 1.397 . S
N980 C982 1.334 . S
C981 H962 0.929 . S
C981 C978 1.388 . S
C981 N980 1.397 . S
C982 H963 0.929 . S
C982 C979 1.404 . S
C982 N980 1.334 . S
C983 H975 0.930 . S
C983 C978 1.418 . S
C983 C979 1.353 . S
C984 H954 0.930 . S
C984 N985 1.330 . S
C984 C986 1.446 . S
N985 Co944 2.151 . S
N985 C984 1.330 . S
N985 C989 1.418 . S
C986 H965 0.929 . S
C986 C984 1.446 . S
C986 C987 1.332 . S
C987 H967 0.931 . S
C987 C986 1.332 . S
C987 C988 1.267 . S
C988 H956 0.929 . S
C988 C987 1.267 . S
C988 C989 1.251 . S
C989 H959 0.929 . S
C989 N985 1.418 . S
C989 C988 1.251 . S
C990 H957 0.930 . S
C990 C992 1.406 . S
C990 C995 1.261 . S
C991 H958 0.930 . S
C991 N993 1.325 . S
C991 C994 1.357 . S
C992 H960 0.928 . S
C992 C990 1.406 . S
C992 N993 1.261 . S
N993 Co944 2.214 . S
N993 C991 1.325 . S
N993 C992 1.261 . S
C994 H964 0.931 . S
C994 C991 1.357 . S
C994 C995 1.312 . S
C995 H966 0.930 . S
C995 C990 1.261 . S
C995 C994 1.312 . S
C996 O968 1.214 . S
C996 O976 1.234 . S
C997 H969 0.929 . S
C997 C1000 1.391 . S
C997 C1002 1.391 . S
C998 H970 0.929 . S
C998 C999 1.390 . S
C998 N1001 1.391 . S
C999 H971 0.930 . S
C999 C998 1.390 . S
C999 C1000 1.392 . S
C1000 H972 0.929 . S
C1000 C997 1.391 . S
C1000 C999 1.392 . S
N1001 Co945 2.257 . S
N1001 C998 1.391 . S
N1001 C1002 1.388 . S
C1002 H973 0.930 . S
C1002 C997 1.391 . S
C1002 N1001 1.388 . S
Co1003 O1005 2.143 . S
Co1003 O1011 2.074 . S
Co1003 O1014 2.093 . S
Co1003 O1027 2.097 . S
Co1003 N1044 2.151 . S
Co1003 N1052 2.214 . S
Co1004 O1005 2.160 . S
Co1004 O1010 2.058 . S
Co1004 O1020 2.057 . S
Co1004 O1035 2.037 . S
Co1004 N1039 2.145 . S
Co1004 N1060 2.257 . S
O1005 Co1003 2.143 . S
O1005 Co1004 2.160 . S
C1006 O1007 1.278 . S
C1006 O1014 1.224 . S
O1007 C1006 1.278 . S
C1008 O1009 1.245 . S
C1008 O1020 1.232 . S
O1009 C1008 1.245 . S
O1010 Co1004 2.058 . S
O1010 C1036 1.269 . S
O1011 Co1003 2.074 . S
O1011 C1036 1.257 . S
H1012 C1037 0.930 . S
H1013 C1043 0.930 . S
O1014 Co1003 2.093 . S
O1014 C1006 1.224 . S
H1015 C1047 0.929 . S
H1016 C1049 0.930 . S
H1017 C1050 0.930 . S
H1018 C1048 0.929 . S
H1019 C1051 0.928 . S
O1020 Co1004 2.057 . S
O1020 C1008 1.232 . S
H1021 C1040 0.929 . S
H1022 C1041 0.929 . S
H1023 C1053 0.931 . S
H1024 C1045 0.929 . S
H1025 C1054 0.930 . S
H1026 C1046 0.931 . S
O1027 Co1003 2.097 . S
O1027 C1055 1.214 . S
H1028 C1056 0.929 . S
H1029 C1057 0.929 . S
H1030 C1058 0.930 . S
H1031 C1059 0.929 . S
H1032 C1061 0.930 . S
H1033 C1038 0.930 . S
H1034 C1042 0.930 . S
O1035 Co1004 2.037 . S
O1035 C1055 1.234 . S
C1036 O1010 1.269 . S
C1036 O1011 1.257 . S
C1037 H1012 0.930 . S
C1037 C1040 1.388 . S
C1037 C1042 1.418 . S
C1038 H1033 0.930 . S
C1038 C1041 1.404 . S
C1038 C1042 1.353 . S
N1039 Co1004 2.145 . S
N1039 C1040 1.397 . S
N1039 C1041 1.334 . S
C1040 H1021 0.929 . S
C1040 C1037 1.388 . S
C1040 N1039 1.397 . S
C1041 H1022 0.929 . S
C1041 C1038 1.404 . S
C1041 N1039 1.334 . S
C1042 H1034 0.930 . S
C1042 C1037 1.418 . S
C1042 C1038 1.353 . S
C1043 H1013 0.930 . S
C1043 N1044 1.330 . S
C1043 C1045 1.446 . S
N1044 Co1003 2.151 . S
N1044 C1043 1.330 . S
N1044 C1048 1.418 . S
C1045 H1024 0.929 . S
C1045 C1043 1.446 . S
C1045 C1046 1.332 . S
C1046 H1026 0.931 . S
C1046 C1045 1.332 . S
C1046 C1047 1.267 . S
C1047 H1015 0.929 . S
C1047 C1046 1.267 . S
C1047 C1048 1.251 . S
C1048 H1018 0.929 . S
C1048 N1044 1.418 . S
C1048 C1047 1.251 . S
C1049 H1016 0.930 . S
C1049 C1051 1.406 . S
C1049 C1054 1.261 . S
C1050 H1017 0.930 . S
C1050 N1052 1.325 . S
C1050 C1053 1.357 . S
C1051 H1019 0.928 . S
C1051 C1049 1.406 . S
C1051 N1052 1.261 . S
N1052 Co1003 2.214 . S
N1052 C1050 1.325 . S
N1052 C1051 1.261 . S
C1053 H1023 0.931 . S
C1053 C1050 1.357 . S
C1053 C1054 1.312 . S
C1054 H1025 0.930 . S
C1054 C1049 1.261 . S
C1054 C1053 1.312 . S
C1055 O1027 1.214 . S
C1055 O1035 1.234 . S
C1056 H1028 0.929 . S
C1056 C1059 1.391 . S
C1056 C1061 1.391 . S
C1057 H1029 0.929 . S
C1057 C1058 1.390 . S
C1057 N1060 1.391 . S
C1058 H1030 0.930 . S
C1058 C1057 1.390 . S
C1058 C1059 1.392 . S
C1059 H1031 0.929 . S
C1059 C1056 1.391 . S
C1059 C1058 1.392 . S
N1060 Co1004 2.257 . S
N1060 C1057 1.391 . S
N1060 C1061 1.388 . S
C1061 H1032 0.930 . S
C1061 C1056 1.391 . S
C1061 N1060 1.388 . S
Co1062 O1064 2.143 . S
Co1062 O1070 2.074 . S
Co1062 O1073 2.093 . S
Co1062 O1086 2.097 . S
Co1062 N1103 2.151 . S
Co1062 N1111 2.214 . S
Co1063 O1064 2.160 . S
Co1063 O1069 2.058 . S
Co1063 O1079 2.057 . S
Co1063 O1094 2.037 . S
Co1063 N1098 2.145 . S
Co1063 N1119 2.257 . S
O1064 Co1062 2.143 . S
O1064 Co1063 2.160 . S
C1065 O1066 1.278 . S
C1065 O1073 1.224 . S
O1066 C1065 1.278 . S
C1067 O1068 1.245 . S
C1067 O1079 1.232 . S
O1068 C1067 1.245 . S
O1069 Co1063 2.058 . S
O1069 C1095 1.269 . S
O1070 Co1062 2.074 . S
O1070 C1095 1.257 . S
H1071 C1096 0.930 . S
H1072 C1102 0.930 . S
O1073 Co1062 2.093 . S
O1073 C1065 1.224 . S
H1074 C1106 0.929 . S
H1075 C1108 0.930 . S
H1076 C1109 0.930 . S
H1077 C1107 0.929 . S
H1078 C1110 0.928 . S
O1079 Co1063 2.057 . S
O1079 C1067 1.232 . S
H1080 C1099 0.929 . S
H1081 C1100 0.929 . S
H1082 C1112 0.931 . S
H1083 C1104 0.929 . S
H1084 C1113 0.930 . S
H1085 C1105 0.931 . S
O1086 Co1062 2.097 . S
O1086 C1114 1.214 . S
H1087 C1115 0.929 . S
H1088 C1116 0.929 . S
H1089 C1117 0.930 . S
H1090 C1118 0.929 . S
H1091 C1120 0.930 . S
H1092 C1097 0.930 . S
H1093 C1101 0.930 . S
O1094 Co1063 2.037 . S
O1094 C1114 1.234 . S
C1095 O1069 1.269 . S
C1095 O1070 1.257 . S
C1096 H1071 0.930 . S
C1096 C1099 1.388 . S
C1096 C1101 1.418 . S
C1097 H1092 0.930 . S
C1097 C1100 1.404 . S
C1097 C1101 1.353 . S
N1098 Co1063 2.145 . S
N1098 C1099 1.397 . S
N1098 C1100 1.334 . S
C1099 H1080 0.929 . S
C1099 C1096 1.388 . S
C1099 N1098 1.397 . S
C1100 H1081 0.929 . S
C1100 C1097 1.404 . S
C1100 N1098 1.334 . S
C1101 H1093 0.930 . S
C1101 C1096 1.418 . S
C1101 C1097 1.353 . S
C1102 H1072 0.930 . S
C1102 N1103 1.330 . S
C1102 C1104 1.446 . S
N1103 Co1062 2.151 . S
N1103 C1102 1.330 . S
N1103 C1107 1.418 . S
C1104 H1083 0.929 . S
C1104 C1102 1.446 . S
C1104 C1105 1.332 . S
C1105 H1085 0.931 . S
C1105 C1104 1.332 . S
C1105 C1106 1.267 . S
C1106 H1074 0.929 . S
C1106 C1105 1.267 . S
C1106 C1107 1.251 . S
C1107 H1077 0.929 . S
C1107 N1103 1.418 . S
C1107 C1106 1.251 . S
C1108 H1075 0.930 . S
C1108 C1110 1.406 . S
C1108 C1113 1.261 . S
C1109 H1076 0.930 . S
C1109 N1111 1.325 . S
C1109 C1112 1.357 . S
C1110 H1078 0.928 . S
C1110 C1108 1.406 . S
C1110 N1111 1.261 . S
N1111 Co1062 2.214 . S
N1111 C1109 1.325 . S
N1111 C1110 1.261 . S
C1112 H1082 0.931 . S
C1112 C1109 1.357 . S
C1112 C1113 1.312 . S
C1113 H1084 0.930 . S
C1113 C1108 1.261 . S
C1113 C1112 1.312 . S
C1114 O1086 1.214 . S
C1114 O1094 1.234 . S
C1115 H1087 0.929 . S
C1115 C1118 1.391 . S
C1115 C1120 1.391 . S
C1116 H1088 0.929 . S
C1116 C1117 1.390 . S
C1116 N1119 1.391 . S
C1117 H1089 0.930 . S
C1117 C1116 1.390 . S
C1117 C1118 1.392 . S
C1118 H1090 0.929 . S
C1118 C1115 1.391 . S
C1118 C1117 1.392 . S
N1119 Co1063 2.257 . S
N1119 C1116 1.391 . S
N1119 C1120 1.388 . S
C1120 H1091 0.930 . S
C1120 C1115 1.391 . S
C1120 N1119 1.388 . S
Co1121 O1123 2.143 . S
Co1121 O1129 2.074 . S
Co1121 O1132 2.093 . S
Co1121 O1145 2.097 . S
Co1121 N1162 2.151 . S
Co1121 N1170 2.214 . S
Co1122 O1123 2.160 . S
Co1122 O1128 2.058 . S
Co1122 O1138 2.057 . S
Co1122 O1153 2.037 . S
Co1122 N1157 2.145 . S
Co1122 N1178 2.257 . S
O1123 Co1121 2.143 . S
O1123 Co1122 2.160 . S
C1124 O1125 1.278 . S
C1124 O1132 1.224 . S
O1125 C1124 1.278 . S
C1126 O1127 1.245 . S
C1126 O1138 1.232 . S
O1127 C1126 1.245 . S
O1128 Co1122 2.058 . S
O1128 C1154 1.269 . S
O1129 Co1121 2.074 . S
O1129 C1154 1.257 . S
H1130 C1155 0.930 . S
H1131 C1161 0.930 . S
O1132 Co1121 2.093 . S
O1132 C1124 1.224 . S
H1133 C1165 0.929 . S
H1134 C1167 0.930 . S
H1135 C1168 0.930 . S
H1136 C1166 0.929 . S
H1137 C1169 0.928 . S
O1138 Co1122 2.057 . S
O1138 C1126 1.232 . S
H1139 C1158 0.929 . S
H1140 C1159 0.929 . S
H1141 C1171 0.931 . S
H1142 C1163 0.929 . S
H1143 C1172 0.930 . S
H1144 C1164 0.931 . S
O1145 Co1121 2.097 . S
O1145 C1173 1.214 . S
H1146 C1174 0.929 . S
H1147 C1175 0.929 . S
H1148 C1176 0.930 . S
H1149 C1177 0.929 . S
H1150 C1179 0.930 . S
H1151 C1156 0.930 . S
H1152 C1160 0.930 . S
O1153 Co1122 2.037 . S
O1153 C1173 1.234 . S
C1154 O1128 1.269 . S
C1154 O1129 1.257 . S
C1155 H1130 0.930 . S
C1155 C1158 1.388 . S
C1155 C1160 1.418 . S
C1156 H1151 0.930 . S
C1156 C1159 1.404 . S
C1156 C1160 1.353 . S
N1157 Co1122 2.145 . S
N1157 C1158 1.397 . S
N1157 C1159 1.334 . S
C1158 H1139 0.929 . S
C1158 C1155 1.388 . S
C1158 N1157 1.397 . S
C1159 H1140 0.929 . S
C1159 C1156 1.404 . S
C1159 N1157 1.334 . S
C1160 H1152 0.930 . S
C1160 C1155 1.418 . S
C1160 C1156 1.353 . S
C1161 H1131 0.930 . S
C1161 N1162 1.330 . S
C1161 C1163 1.446 . S
N1162 Co1121 2.151 . S
N1162 C1161 1.330 . S
N1162 C1166 1.418 . S
C1163 H1142 0.929 . S
C1163 C1161 1.446 . S
C1163 C1164 1.332 . S
C1164 H1144 0.931 . S
C1164 C1163 1.332 . S
C1164 C1165 1.267 . S
C1165 H1133 0.929 . S
C1165 C1164 1.267 . S
C1165 C1166 1.251 . S
C1166 H1136 0.929 . S
C1166 N1162 1.418 . S
C1166 C1165 1.251 . S
C1167 H1134 0.930 . S
C1167 C1169 1.406 . S
C1167 C1172 1.261 . S
C1168 H1135 0.930 . S
C1168 N1170 1.325 . S
C1168 C1171 1.357 . S
C1169 H1137 0.928 . S
C1169 C1167 1.406 . S
C1169 N1170 1.261 . S
N1170 Co1121 2.214 . S
N1170 C1168 1.325 . S
N1170 C1169 1.261 . S
C1171 H1141 0.931 . S
C1171 C1168 1.357 . S
C1171 C1172 1.312 . S
C1172 H1143 0.930 . S
C1172 C1167 1.261 . S
C1172 C1171 1.312 . S
C1173 O1145 1.214 . S
C1173 O1153 1.234 . S
C1174 H1146 0.929 . S
C1174 C1177 1.391 . S
C1174 C1179 1.391 . S
C1175 H1147 0.929 . S
C1175 C1176 1.390 . S
C1175 N1178 1.391 . S
C1176 H1148 0.930 . S
C1176 C1175 1.390 . S
C1176 C1177 1.392 . S
C1177 H1149 0.929 . S
C1177 C1174 1.391 . S
C1177 C1176 1.392 . S
N1178 Co1122 2.257 . S
N1178 C1175 1.391 . S
N1178 C1179 1.388 . S
C1179 H1150 0.930 . S
C1179 C1174 1.391 . S
C1179 N1178 1.388 . S
Co1180 O1182 2.143 . S
Co1180 O1188 2.074 . S
Co1180 O1191 2.093 . S
Co1180 O1204 2.097 . S
Co1180 N1221 2.151 . S
Co1180 N1229 2.214 . S
Co1181 O1182 2.160 . S
Co1181 O1187 2.058 . S
Co1181 O1197 2.057 . S
Co1181 O1212 2.037 . S
Co1181 N1216 2.145 . S
Co1181 N1237 2.257 . S
O1182 Co1180 2.143 . S
O1182 Co1181 2.160 . S
C1183 O1184 1.278 . S
C1183 O1191 1.224 . S
O1184 C1183 1.278 . S
C1185 O1186 1.245 . S
C1185 O1197 1.232 . S
O1186 C1185 1.245 . S
O1187 Co1181 2.058 . S
O1187 C1213 1.269 . S
O1188 Co1180 2.074 . S
O1188 C1213 1.257 . S
H1189 C1214 0.930 . S
H1190 C1220 0.930 . S
O1191 Co1180 2.093 . S
O1191 C1183 1.224 . S
H1192 C1224 0.929 . S
H1193 C1226 0.930 . S
H1194 C1227 0.930 . S
H1195 C1225 0.929 . S
H1196 C1228 0.928 . S
O1197 Co1181 2.057 . S
O1197 C1185 1.232 . S
H1198 C1217 0.929 . S
H1199 C1218 0.929 . S
H1200 C1230 0.931 . S
H1201 C1222 0.929 . S
H1202 C1231 0.930 . S
H1203 C1223 0.931 . S
O1204 Co1180 2.097 . S
O1204 C1232 1.214 . S
H1205 C1233 0.929 . S
H1206 C1234 0.929 . S
H1207 C1235 0.930 . S
H1208 C1236 0.929 . S
H1209 C1238 0.930 . S
H1210 C1215 0.930 . S
H1211 C1219 0.930 . S
O1212 Co1181 2.037 . S
O1212 C1232 1.234 . S
C1213 O1187 1.269 . S
C1213 O1188 1.257 . S
C1214 H1189 0.930 . S
C1214 C1217 1.388 . S
C1214 C1219 1.418 . S
C1215 H1210 0.930 . S
C1215 C1218 1.404 . S
C1215 C1219 1.353 . S
N1216 Co1181 2.145 . S
N1216 C1217 1.397 . S
N1216 C1218 1.334 . S
C1217 H1198 0.929 . S
C1217 C1214 1.388 . S
C1217 N1216 1.397 . S
C1218 H1199 0.929 . S
C1218 C1215 1.404 . S
C1218 N1216 1.334 . S
C1219 H1211 0.930 . S
C1219 C1214 1.418 . S
C1219 C1215 1.353 . S
C1220 H1190 0.930 . S
C1220 N1221 1.330 . S
C1220 C1222 1.446 . S
N1221 Co1180 2.151 . S
N1221 C1220 1.330 . S
N1221 C1225 1.418 . S
C1222 H1201 0.929 . S
C1222 C1220 1.446 . S
C1222 C1223 1.332 . S
C1223 H1203 0.931 . S
C1223 C1222 1.332 . S
C1223 C1224 1.267 . S
C1224 H1192 0.929 . S
C1224 C1223 1.267 . S
C1224 C1225 1.251 . S
C1225 H1195 0.929 . S
C1225 N1221 1.418 . S
C1225 C1224 1.251 . S
C1226 H1193 0.930 . S
C1226 C1228 1.406 . S
C1226 C1231 1.261 . S
C1227 H1194 0.930 . S
C1227 N1229 1.325 . S
C1227 C1230 1.357 . S
C1228 H1196 0.928 . S
C1228 C1226 1.406 . S
C1228 N1229 1.261 . S
N1229 Co1180 2.214 . S
N1229 C1227 1.325 . S
N1229 C1228 1.261 . S
C1230 H1200 0.931 . S
C1230 C1227 1.357 . S
C1230 C1231 1.312 . S
C1231 H1202 0.930 . S
C1231 C1226 1.261 . S
C1231 C1230 1.312 . S
C1232 O1204 1.214 . S
C1232 O1212 1.234 . S
C1233 H1205 0.929 . S
C1233 C1236 1.391 . S
C1233 C1238 1.391 . S
C1234 H1206 0.929 . S
C1234 C1235 1.390 . S
C1234 N1237 1.391 . S
C1235 H1207 0.930 . S
C1235 C1234 1.390 . S
C1235 C1236 1.392 . S
C1236 H1208 0.929 . S
C1236 C1233 1.391 . S
C1236 C1235 1.392 . S
N1237 Co1181 2.257 . S
N1237 C1234 1.391 . S
N1237 C1238 1.388 . S
C1238 H1209 0.930 . S
C1238 C1233 1.391 . S
C1238 N1237 1.388 . S
Co1239 O1241 2.143 . S
Co1239 O1247 2.074 . S
Co1239 O1250 2.093 . S
Co1239 O1263 2.097 . S
Co1239 N1280 2.151 . S
Co1239 N1288 2.214 . S
Co1240 O1241 2.160 . S
Co1240 O1246 2.058 . S
Co1240 O1256 2.057 . S
Co1240 O1271 2.037 . S
Co1240 N1275 2.145 . S
Co1240 N1296 2.257 . S
O1241 Co1239 2.143 . S
O1241 Co1240 2.160 . S
C1242 O1243 1.278 . S
C1242 O1250 1.224 . S
O1243 C1242 1.278 . S
C1244 O1245 1.245 . S
C1244 O1256 1.232 . S
O1245 C1244 1.245 . S
O1246 Co1240 2.058 . S
O1246 C1272 1.269 . S
O1247 Co1239 2.074 . S
O1247 C1272 1.257 . S
H1248 C1273 0.930 . S
H1249 C1279 0.930 . S
O1250 Co1239 2.093 . S
O1250 C1242 1.224 . S
H1251 C1283 0.929 . S
H1252 C1285 0.930 . S
H1253 C1286 0.930 . S
H1254 C1284 0.929 . S
H1255 C1287 0.928 . S
O1256 Co1240 2.057 . S
O1256 C1244 1.232 . S
H1257 C1276 0.929 . S
H1258 C1277 0.929 . S
H1259 C1289 0.931 . S
H1260 C1281 0.929 . S
H1261 C1290 0.930 . S
H1262 C1282 0.931 . S
O1263 Co1239 2.097 . S
O1263 C1291 1.214 . S
H1264 C1292 0.929 . S
H1265 C1293 0.929 . S
H1266 C1294 0.930 . S
H1267 C1295 0.929 . S
H1268 C1297 0.930 . S
H1269 C1274 0.930 . S
H1270 C1278 0.930 . S
O1271 Co1240 2.037 . S
O1271 C1291 1.234 . S
C1272 O1246 1.269 . S
C1272 O1247 1.257 . S
C1273 H1248 0.930 . S
C1273 C1276 1.388 . S
C1273 C1278 1.418 . S
C1274 H1269 0.930 . S
C1274 C1277 1.404 . S
C1274 C1278 1.353 . S
N1275 Co1240 2.145 . S
N1275 C1276 1.397 . S
N1275 C1277 1.334 . S
C1276 H1257 0.929 . S
C1276 C1273 1.388 . S
C1276 N1275 1.397 . S
C1277 H1258 0.929 . S
C1277 C1274 1.404 . S
C1277 N1275 1.334 . S
C1278 H1270 0.930 . S
C1278 C1273 1.418 . S
C1278 C1274 1.353 . S
C1279 H1249 0.930 . S
C1279 N1280 1.330 . S
C1279 C1281 1.446 . S
N1280 Co1239 2.151 . S
N1280 C1279 1.330 . S
N1280 C1284 1.418 . S
C1281 H1260 0.929 . S
C1281 C1279 1.446 . S
C1281 C1282 1.332 . S
C1282 H1262 0.931 . S
C1282 C1281 1.332 . S
C1282 C1283 1.267 . S
C1283 H1251 0.929 . S
C1283 C1282 1.267 . S
C1283 C1284 1.251 . S
C1284 H1254 0.929 . S
C1284 N1280 1.418 . S
C1284 C1283 1.251 . S
C1285 H1252 0.930 . S
C1285 C1287 1.406 . S
C1285 C1290 1.261 . S
C1286 H1253 0.930 . S
C1286 N1288 1.325 . S
C1286 C1289 1.357 . S
C1287 H1255 0.928 . S
C1287 C1285 1.406 . S
C1287 N1288 1.261 . S
N1288 Co1239 2.214 . S
N1288 C1286 1.325 . S
N1288 C1287 1.261 . S
C1289 H1259 0.931 . S
C1289 C1286 1.357 . S
C1289 C1290 1.312 . S
C1290 H1261 0.930 . S
C1290 C1285 1.261 . S
C1290 C1289 1.312 . S
C1291 O1263 1.214 . S
C1291 O1271 1.234 . S
C1292 H1264 0.929 . S
C1292 C1295 1.391 . S
C1292 C1297 1.391 . S
C1293 H1265 0.929 . S
C1293 C1294 1.390 . S
C1293 N1296 1.391 . S
C1294 H1266 0.930 . S
C1294 C1293 1.390 . S
C1294 C1295 1.392 . S
C1295 H1267 0.929 . S
C1295 C1292 1.391 . S
C1295 C1294 1.392 . S
N1296 Co1240 2.257 . S
N1296 C1293 1.391 . S
N1296 C1297 1.388 . S
C1297 H1268 0.930 . S
C1297 C1292 1.391 . S
C1297 N1296 1.388 . S
Co1298 O1300 2.143 . S
Co1298 O1306 2.074 . S
Co1298 O1309 2.093 . S
Co1298 O1322 2.097 . S
Co1298 N1339 2.151 . S
Co1298 N1347 2.214 . S
Co1299 O1300 2.160 . S
Co1299 O1305 2.058 . S
Co1299 O1315 2.057 . S
Co1299 O1330 2.037 . S
Co1299 N1334 2.145 . S
Co1299 N1355 2.257 . S
O1300 Co1298 2.143 . S
O1300 Co1299 2.160 . S
C1301 O1302 1.278 . S
C1301 O1309 1.224 . S
O1302 C1301 1.278 . S
C1303 O1304 1.245 . S
C1303 O1315 1.232 . S
O1304 C1303 1.245 . S
O1305 Co1299 2.058 . S
O1305 C1331 1.269 . S
O1306 Co1298 2.074 . S
O1306 C1331 1.257 . S
H1307 C1332 0.930 . S
H1308 C1338 0.930 . S
O1309 Co1298 2.093 . S
O1309 C1301 1.224 . S
H1310 C1342 0.929 . S
H1311 C1344 0.930 . S
H1312 C1345 0.930 . S
H1313 C1343 0.929 . S
H1314 C1346 0.928 . S
O1315 Co1299 2.057 . S
O1315 C1303 1.232 . S
H1316 C1335 0.929 . S
H1317 C1336 0.929 . S
H1318 C1348 0.931 . S
H1319 C1340 0.929 . S
H1320 C1349 0.930 . S
H1321 C1341 0.931 . S
O1322 Co1298 2.097 . S
O1322 C1350 1.214 . S
H1323 C1351 0.929 . S
H1324 C1352 0.929 . S
H1325 C1353 0.930 . S
H1326 C1354 0.929 . S
H1327 C1356 0.930 . S
H1328 C1333 0.930 . S
H1329 C1337 0.930 . S
O1330 Co1299 2.037 . S
O1330 C1350 1.234 . S
C1331 O1305 1.269 . S
C1331 O1306 1.257 . S
C1332 H1307 0.930 . S
C1332 C1335 1.388 . S
C1332 C1337 1.418 . S
C1333 H1328 0.930 . S
C1333 C1336 1.404 . S
C1333 C1337 1.353 . S
N1334 Co1299 2.145 . S
N1334 C1335 1.397 . S
N1334 C1336 1.334 . S
C1335 H1316 0.929 . S
C1335 C1332 1.388 . S
C1335 N1334 1.397 . S
C1336 H1317 0.929 . S
C1336 C1333 1.404 . S
C1336 N1334 1.334 . S
C1337 H1329 0.930 . S
C1337 C1332 1.418 . S
C1337 C1333 1.353 . S
C1338 H1308 0.930 . S
C1338 N1339 1.330 . S
C1338 C1340 1.446 . S
N1339 Co1298 2.151 . S
N1339 C1338 1.330 . S
N1339 C1343 1.418 . S
C1340 H1319 0.929 . S
C1340 C1338 1.446 . S
C1340 C1341 1.332 . S
C1341 H1321 0.931 . S
C1341 C1340 1.332 . S
C1341 C1342 1.267 . S
C1342 H1310 0.929 . S
C1342 C1341 1.267 . S
C1342 C1343 1.251 . S
C1343 H1313 0.929 . S
C1343 N1339 1.418 . S
C1343 C1342 1.251 . S
C1344 H1311 0.930 . S
C1344 C1346 1.406 . S
C1344 C1349 1.261 . S
C1345 H1312 0.930 . S
C1345 N1347 1.325 . S
C1345 C1348 1.357 . S
C1346 H1314 0.928 . S
C1346 C1344 1.406 . S
C1346 N1347 1.261 . S
N1347 Co1298 2.214 . S
N1347 C1345 1.325 . S
N1347 C1346 1.261 . S
C1348 H1318 0.931 . S
C1348 C1345 1.357 . S
C1348 C1349 1.312 . S
C1349 H1320 0.930 . S
C1349 C1344 1.261 . S
C1349 C1348 1.312 . S
C1350 O1322 1.214 . S
C1350 O1330 1.234 . S
C1351 H1323 0.929 . S
C1351 C1354 1.391 . S
C1351 C1356 1.391 . S
C1352 H1324 0.929 . S
C1352 C1353 1.390 . S
C1352 N1355 1.391 . S
C1353 H1325 0.930 . S
C1353 C1352 1.390 . S
C1353 C1354 1.392 . S
C1354 H1326 0.929 . S
C1354 C1351 1.391 . S
C1354 C1353 1.392 . S
N1355 Co1299 2.257 . S
N1355 C1352 1.391 . S
N1355 C1356 1.388 . S
C1356 H1327 0.930 . S
C1356 C1351 1.391 . S
C1356 N1355 1.388 . S
Co1357 O1359 2.143 . S
Co1357 O1365 2.074 . S
Co1357 O1368 2.093 . S
Co1357 O1381 2.097 . S
Co1357 N1398 2.151 . S
Co1357 N1406 2.214 . S
Co1358 O1359 2.160 . S
Co1358 O1364 2.058 . S
Co1358 O1374 2.057 . S
Co1358 O1389 2.037 . S
Co1358 N1393 2.145 . S
Co1358 N1414 2.257 . S
O1359 Co1357 2.143 . S
O1359 Co1358 2.160 . S
C1360 O1361 1.278 . S
C1360 O1368 1.224 . S
O1361 C1360 1.278 . S
C1362 O1363 1.245 . S
C1362 O1374 1.232 . S
O1363 C1362 1.245 . S
O1364 Co1358 2.058 . S
O1364 C1390 1.269 . S
O1365 Co1357 2.074 . S
O1365 C1390 1.257 . S
H1366 C1391 0.930 . S
H1367 C1397 0.930 . S
O1368 Co1357 2.093 . S
O1368 C1360 1.224 . S
H1369 C1401 0.929 . S
H1370 C1403 0.930 . S
H1371 C1404 0.930 . S
H1372 C1402 0.929 . S
H1373 C1405 0.928 . S
O1374 Co1358 2.057 . S
O1374 C1362 1.232 . S
H1375 C1394 0.929 . S
H1376 C1395 0.929 . S
H1377 C1407 0.931 . S
H1378 C1399 0.929 . S
H1379 C1408 0.930 . S
H1380 C1400 0.931 . S
O1381 Co1357 2.097 . S
O1381 C1409 1.214 . S
H1382 C1410 0.929 . S
H1383 C1411 0.929 . S
H1384 C1412 0.930 . S
H1385 C1413 0.929 . S
H1386 C1415 0.930 . S
H1387 C1392 0.930 . S
H1388 C1396 0.930 . S
O1389 Co1358 2.037 . S
O1389 C1409 1.234 . S
C1390 O1364 1.269 . S
C1390 O1365 1.257 . S
C1391 H1366 0.930 . S
C1391 C1394 1.388 . S
C1391 C1396 1.418 . S
C1392 H1387 0.930 . S
C1392 C1395 1.404 . S
C1392 C1396 1.353 . S
N1393 Co1358 2.145 . S
N1393 C1394 1.397 . S
N1393 C1395 1.334 . S
C1394 H1375 0.929 . S
C1394 C1391 1.388 . S
C1394 N1393 1.397 . S
C1395 H1376 0.929 . S
C1395 C1392 1.404 . S
C1395 N1393 1.334 . S
C1396 H1388 0.930 . S
C1396 C1391 1.418 . S
C1396 C1392 1.353 . S
C1397 H1367 0.930 . S
C1397 N1398 1.330 . S
C1397 C1399 1.446 . S
N1398 Co1357 2.151 . S
N1398 C1397 1.330 . S
N1398 C1402 1.418 . S
C1399 H1378 0.929 . S
C1399 C1397 1.446 . S
C1399 C1400 1.332 . S
C1400 H1380 0.931 . S
C1400 C1399 1.332 . S
C1400 C1401 1.267 . S
C1401 H1369 0.929 . S
C1401 C1400 1.267 . S
C1401 C1402 1.251 . S
C1402 H1372 0.929 . S
C1402 N1398 1.418 . S
C1402 C1401 1.251 . S
C1403 H1370 0.930 . S
C1403 C1405 1.406 . S
C1403 C1408 1.261 . S
C1404 H1371 0.930 . S
C1404 N1406 1.325 . S
C1404 C1407 1.357 . S
C1405 H1373 0.928 . S
C1405 C1403 1.406 . S
C1405 N1406 1.261 . S
N1406 Co1357 2.214 . S
N1406 C1404 1.325 . S
N1406 C1405 1.261 . S
C1407 H1377 0.931 . S
C1407 C1404 1.357 . S
C1407 C1408 1.312 . S
C1408 H1379 0.930 . S
C1408 C1403 1.261 . S
C1408 C1407 1.312 . S
C1409 O1381 1.214 . S
C1409 O1389 1.234 . S
C1410 H1382 0.929 . S
C1410 C1413 1.391 . S
C1410 C1415 1.391 . S
C1411 H1383 0.929 . S
C1411 C1412 1.390 . S
C1411 N1414 1.391 . S
C1412 H1384 0.930 . S
C1412 C1411 1.390 . S
C1412 C1413 1.392 . S
C1413 H1385 0.929 . S
C1413 C1410 1.391 . S
C1413 C1412 1.392 . S
N1414 Co1358 2.257 . S
N1414 C1411 1.391 . S
N1414 C1415 1.388 . S
C1415 H1386 0.930 . S
C1415 C1410 1.391 . S
C1415 N1414 1.388 . S
H1416 C1422 0.930 . S
H1417 C1426 0.930 . S
H1418 C1431 0.929 . S
H1419 C1429 0.929 . S
H1420 C1424 0.929 . S
H1421 C1430 0.929 . S
C1422 H1416 0.930 . S
C1422 C1423 1.367 . S
C1422 C1430 1.378 . S
C1423 C1422 1.367 . S
C1423 C1431 1.433 . S
C1424 H1420 0.929 . S
C1424 C1426 1.378 . S
C1424 C1428 1.350 . S
C1425 C1428 1.463 . S
C1425 C1430 1.350 . S
C1425 N1433 1.427 . S
C1426 H1417 0.930 . S
C1426 C1424 1.378 . S
C1426 C1427 1.367 . S
C1427 C1426 1.367 . S
C1427 C1429 1.433 . S
C1428 C1424 1.350 . S
C1428 C1425 1.463 . S
C1428 N1432 1.427 . S
C1429 H1419 0.929 . S
C1429 C1427 1.433 . S
C1429 N1432 1.384 . S
C1430 H1421 0.929 . S
C1430 C1422 1.378 . S
C1430 C1425 1.350 . S
C1431 H1418 0.929 . S
C1431 C1423 1.433 . S
C1431 N1433 1.384 . S
N1432 C1428 1.427 . S
N1432 C1429 1.384 . S
N1433 C1425 1.427 . S
N1433 C1431 1.384 . S
H1434 C1440 0.930 . S
H1435 C1444 0.930 . S
H1436 C1449 0.929 . S
H1437 C1447 0.929 . S
H1438 C1442 0.929 . S
H1439 C1448 0.929 . S
C1440 H1434 0.930 . S
C1440 C1441 1.367 . S
C1440 C1448 1.378 . S
C1441 C1440 1.367 . S
C1441 C1449 1.433 . S
C1442 H1438 0.929 . S
C1442 C1444 1.378 . S
C1442 C1446 1.350 . S
C1443 C1446 1.463 . S
C1443 C1448 1.350 . S
C1443 N1451 1.427 . S
C1444 H1435 0.930 . S
C1444 C1442 1.378 . S
C1444 C1445 1.367 . S
C1445 C1444 1.367 . S
C1445 C1447 1.433 . S
C1446 C1442 1.350 . S
C1446 C1443 1.463 . S
C1446 N1450 1.427 . S
C1447 H1437 0.929 . S
C1447 C1445 1.433 . S
C1447 N1450 1.384 . S
C1448 H1439 0.929 . S
C1448 C1440 1.378 . S
C1448 C1443 1.350 . S
C1449 H1436 0.929 . S
C1449 C1441 1.433 . S
C1449 N1451 1.384 . S
N1450 C1446 1.427 . S
N1450 C1447 1.384 . S
N1451 C1443 1.427 . S
N1451 C1449 1.384 . S
H1452 C1458 0.930 . S
H1453 C1462 0.930 . S
H1454 C1467 0.929 . S
H1455 C1465 0.929 . S
H1456 C1460 0.929 . S
H1457 C1466 0.929 . S
C1458 H1452 0.930 . S
C1458 C1459 1.367 . S
C1458 C1466 1.378 . S
C1459 C1458 1.367 . S
C1459 C1467 1.433 . S
C1460 H1456 0.929 . S
C1460 C1462 1.378 . S
C1460 C1464 1.350 . S
C1461 C1464 1.463 . S
C1461 C1466 1.350 . S
C1461 N1469 1.427 . S
C1462 H1453 0.930 . S
C1462 C1460 1.378 . S
C1462 C1463 1.367 . S
C1463 C1462 1.367 . S
C1463 C1465 1.433 . S
C1464 C1460 1.350 . S
C1464 C1461 1.463 . S
C1464 N1468 1.427 . S
C1465 H1455 0.929 . S
C1465 C1463 1.433 . S
C1465 N1468 1.384 . S
C1466 H1457 0.929 . S
C1466 C1458 1.378 . S
C1466 C1461 1.350 . S
C1467 H1454 0.929 . S
C1467 C1459 1.433 . S
C1467 N1469 1.384 . S
N1468 C1464 1.427 . S
N1468 C1465 1.384 . S
N1469 C1461 1.427 . S
N1469 C1467 1.384 . S
H1470 C1476 0.930 . S
H1471 C1480 0.930 . S
H1472 C1485 0.929 . S
H1473 C1483 0.929 . S
H1474 C1478 0.929 . S
H1475 C1484 0.929 . S
C1476 H1470 0.930 . S
C1476 C1477 1.367 . S
C1476 C1484 1.378 . S
C1477 C1476 1.367 . S
C1477 C1485 1.433 . S
C1478 H1474 0.929 . S
C1478 C1480 1.378 . S
C1478 C1482 1.350 . S
C1479 C1482 1.463 . S
C1479 C1484 1.350 . S
C1479 N1487 1.427 . S
C1480 H1471 0.930 . S
C1480 C1478 1.378 . S
C1480 C1481 1.367 . S
C1481 C1480 1.367 . S
C1481 C1483 1.433 . S
C1482 C1478 1.350 . S
C1482 C1479 1.463 . S
C1482 N1486 1.427 . S
C1483 H1473 0.929 . S
C1483 C1481 1.433 . S
C1483 N1486 1.384 . S
C1484 H1475 0.929 . S
C1484 C1476 1.378 . S
C1484 C1479 1.350 . S
C1485 H1472 0.929 . S
C1485 C1477 1.433 . S
C1485 N1487 1.384 . S
N1486 C1482 1.427 . S
N1486 C1483 1.384 . S
N1487 C1479 1.427 . S
N1487 C1485 1.384 . S
H1488 C1494 0.930 . S
H1489 C1498 0.930 . S
H1490 C1503 0.929 . S
H1491 C1501 0.929 . S
H1492 C1496 0.929 . S
H1493 C1502 0.929 . S
C1494 H1488 0.930 . S
C1494 C1495 1.367 . S
C1494 C1502 1.378 . S
C1495 C1494 1.367 . S
C1495 C1503 1.433 . S
C1496 H1492 0.929 . S
C1496 C1498 1.378 . S
C1496 C1500 1.350 . S
C1497 C1500 1.463 . S
C1497 C1502 1.350 . S
C1497 N1505 1.427 . S
C1498 H1489 0.930 . S
C1498 C1496 1.378 . S
C1498 C1499 1.367 . S
C1499 C1498 1.367 . S
C1499 C1501 1.433 . S
C1500 C1496 1.350 . S
C1500 C1497 1.463 . S
C1500 N1504 1.427 . S
C1501 H1491 0.929 . S
C1501 C1499 1.433 . S
C1501 N1504 1.384 . S
C1502 H1493 0.929 . S
C1502 C1494 1.378 . S
C1502 C1497 1.350 . S
C1503 H1490 0.929 . S
C1503 C1495 1.433 . S
C1503 N1505 1.384 . S
N1504 C1500 1.427 . S
N1504 C1501 1.384 . S
N1505 C1497 1.427 . S
N1505 C1503 1.384 . S
H1506 C1512 0.930 . S
H1507 C1516 0.930 . S
H1508 C1521 0.929 . S
H1509 C1519 0.929 . S
H1510 C1514 0.929 . S
H1511 C1520 0.929 . S
C1512 H1506 0.930 . S
C1512 C1513 1.367 . S
C1512 C1520 1.378 . S
C1513 C1512 1.367 . S
C1513 C1521 1.433 . S
C1514 H1510 0.929 . S
C1514 C1516 1.378 . S
C1514 C1518 1.350 . S
C1515 C1518 1.463 . S
C1515 C1520 1.350 . S
C1515 N1523 1.427 . S
C1516 H1507 0.930 . S
C1516 C1514 1.378 . S
C1516 C1517 1.367 . S
C1517 C1516 1.367 . S
C1517 C1519 1.433 . S
C1518 C1514 1.350 . S
C1518 C1515 1.463 . S
C1518 N1522 1.427 . S
C1519 H1509 0.929 . S
C1519 C1517 1.433 . S
C1519 N1522 1.384 . S
C1520 H1511 0.929 . S
C1520 C1512 1.378 . S
C1520 C1515 1.350 . S
C1521 H1508 0.929 . S
C1521 C1513 1.433 . S
C1521 N1523 1.384 . S
N1522 C1518 1.427 . S
N1522 C1519 1.384 . S
N1523 C1515 1.427 . S
N1523 C1521 1.384 . S
H1524 C1530 0.930 . S
H1525 C1534 0.930 . S
H1526 C1539 0.929 . S
H1527 C1537 0.929 . S
H1528 C1532 0.929 . S
H1529 C1538 0.929 . S
C1530 H1524 0.930 . S
C1530 C1531 1.367 . S
C1530 C1538 1.378 . S
C1531 C1530 1.367 . S
C1531 C1539 1.433 . S
C1532 H1528 0.929 . S
C1532 C1534 1.378 . S
C1532 C1536 1.350 . S
C1533 C1536 1.463 . S
C1533 C1538 1.350 . S
C1533 N1541 1.427 . S
C1534 H1525 0.930 . S
C1534 C1532 1.378 . S
C1534 C1535 1.367 . S
C1535 C1534 1.367 . S
C1535 C1537 1.433 . S
C1536 C1532 1.350 . S
C1536 C1533 1.463 . S
C1536 N1540 1.427 . S
C1537 H1527 0.929 . S
C1537 C1535 1.433 . S
C1537 N1540 1.384 . S
C1538 H1529 0.929 . S
C1538 C1530 1.378 . S
C1538 C1533 1.350 . S
C1539 H1526 0.929 . S
C1539 C1531 1.433 . S
C1539 N1541 1.384 . S
N1540 C1536 1.427 . S
N1540 C1537 1.384 . S
N1541 C1533 1.427 . S
N1541 C1539 1.384 . S
H1542 C1548 0.930 . S
H1543 C1552 0.930 . S
H1544 C1557 0.929 . S
H1545 C1555 0.929 . S
H1546 C1550 0.929 . S
H1547 C1556 0.929 . S
C1548 H1542 0.930 . S
C1548 C1549 1.367 . S
C1548 C1556 1.378 . S
C1549 C1548 1.367 . S
C1549 C1557 1.433 . S
C1550 H1546 0.929 . S
C1550 C1552 1.378 . S
C1550 C1554 1.350 . S
C1551 C1554 1.463 . S
C1551 C1556 1.350 . S
C1551 N1559 1.427 . S
C1552 H1543 0.930 . S
C1552 C1550 1.378 . S
C1552 C1553 1.367 . S
C1553 C1552 1.367 . S
C1553 C1555 1.433 . S
C1554 C1550 1.350 . S
C1554 C1551 1.463 . S
C1554 N1558 1.427 . S
C1555 H1545 0.929 . S
C1555 C1553 1.433 . S
C1555 N1558 1.384 . S
C1556 H1547 0.929 . S
C1556 C1548 1.378 . S
C1556 C1551 1.350 . S
C1557 H1544 0.929 . S
C1557 C1549 1.433 . S
C1557 N1559 1.384 . S
N1558 C1554 1.427 . S
N1558 C1555 1.384 . S
N1559 C1551 1.427 . S
N1559 C1557 1.384 . S
H1560 C1566 0.930 . S
H1561 C1570 0.930 . S
H1562 C1575 0.929 . S
H1563 C1573 0.929 . S
H1564 C1568 0.929 . S
H1565 C1574 0.929 . S
C1566 H1560 0.930 . S
C1566 C1567 1.367 . S
C1566 C1574 1.378 . S
C1567 C1566 1.367 . S
C1567 C1575 1.433 . S
C1568 H1564 0.929 . S
C1568 C1570 1.378 . S
C1568 C1572 1.350 . S
C1569 C1572 1.463 . S
C1569 C1574 1.350 . S
C1569 N1577 1.427 . S
C1570 H1561 0.930 . S
C1570 C1568 1.378 . S
C1570 C1571 1.367 . S
C1571 C1570 1.367 . S
C1571 C1573 1.433 . S
C1572 C1568 1.350 . S
C1572 C1569 1.463 . S
C1572 N1576 1.427 . S
C1573 H1563 0.929 . S
C1573 C1571 1.433 . S
C1573 N1576 1.384 . S
C1574 H1565 0.929 . S
C1574 C1566 1.378 . S
C1574 C1569 1.350 . S
C1575 H1562 0.929 . S
C1575 C1567 1.433 . S
C1575 N1577 1.384 . S
N1576 C1572 1.427 . S
N1576 C1573 1.384 . S
N1577 C1569 1.427 . S
N1577 C1575 1.384 . S
H1578 C1584 0.930 . S
H1579 C1588 0.930 . S
H1580 C1593 0.929 . S
H1581 C1591 0.929 . S
H1582 C1586 0.929 . S
H1583 C1592 0.929 . S
C1584 H1578 0.930 . S
C1584 C1585 1.367 . S
C1584 C1592 1.378 . S
C1585 C1584 1.367 . S
C1585 C1593 1.433 . S
C1586 H1582 0.929 . S
C1586 C1588 1.378 . S
C1586 C1590 1.350 . S
C1587 C1590 1.463 . S
C1587 C1592 1.350 . S
C1587 N1595 1.427 . S
C1588 H1579 0.930 . S
C1588 C1586 1.378 . S
C1588 C1589 1.367 . S
C1589 C1588 1.367 . S
C1589 C1591 1.433 . S
C1590 C1586 1.350 . S
C1590 C1587 1.463 . S
C1590 N1594 1.427 . S
C1591 H1581 0.929 . S
C1591 C1589 1.433 . S
C1591 N1594 1.384 . S
C1592 H1583 0.929 . S
C1592 C1584 1.378 . S
C1592 C1587 1.350 . S
C1593 H1580 0.929 . S
C1593 C1585 1.433 . S
C1593 N1595 1.384 . S
N1594 C1590 1.427 . S
N1594 C1591 1.384 . S
N1595 C1587 1.427 . S
N1595 C1593 1.384 . S
H1596 C1602 0.930 . S
H1597 C1606 0.930 . S
H1598 C1611 0.929 . S
H1599 C1609 0.929 . S
H1600 C1604 0.929 . S
H1601 C1610 0.929 . S
C1602 H1596 0.930 . S
C1602 C1603 1.367 . S
C1602 C1610 1.378 . S
C1603 C1602 1.367 . S
C1603 C1611 1.433 . S
C1604 H1600 0.929 . S
C1604 C1606 1.378 . S
C1604 C1608 1.350 . S
C1605 C1608 1.463 . S
C1605 C1610 1.350 . S
C1605 N1613 1.427 . S
C1606 H1597 0.930 . S
C1606 C1604 1.378 . S
C1606 C1607 1.367 . S
C1607 C1606 1.367 . S
C1607 C1609 1.433 . S
C1608 C1604 1.350 . S
C1608 C1605 1.463 . S
C1608 N1612 1.427 . S
C1609 H1599 0.929 . S
C1609 C1607 1.433 . S
C1609 N1612 1.384 . S
C1610 H1601 0.929 . S
C1610 C1602 1.378 . S
C1610 C1605 1.350 . S
C1611 H1598 0.929 . S
C1611 C1603 1.433 . S
C1611 N1613 1.384 . S
N1612 C1608 1.427 . S
N1612 C1609 1.384 . S
N1613 C1605 1.427 . S
N1613 C1611 1.384 . S
H1614 C1620 0.930 . S
H1615 C1624 0.930 . S
H1616 C1629 0.929 . S
H1617 C1627 0.929 . S
H1618 C1622 0.929 . S
H1619 C1628 0.929 . S
C1620 H1614 0.930 . S
C1620 C1621 1.367 . S
C1620 C1628 1.378 . S
C1621 C1620 1.367 . S
C1621 C1629 1.433 . S
C1622 H1618 0.929 . S
C1622 C1624 1.378 . S
C1622 C1626 1.350 . S
C1623 C1626 1.463 . S
C1623 C1628 1.350 . S
C1623 N1631 1.427 . S
C1624 H1615 0.930 . S
C1624 C1622 1.378 . S
C1624 C1625 1.367 . S
C1625 C1624 1.367 . S
C1625 C1627 1.433 . S
C1626 C1622 1.350 . S
C1626 C1623 1.463 . S
C1626 N1630 1.427 . S
C1627 H1617 0.929 . S
C1627 C1625 1.433 . S
C1627 N1630 1.384 . S
C1628 H1619 0.929 . S
C1628 C1620 1.378 . S
C1628 C1623 1.350 . S
C1629 H1616 0.929 . S
C1629 C1621 1.433 . S
C1629 N1631 1.384 . S
N1630 C1626 1.427 . S
N1630 C1627 1.384 . S
N1631 C1623 1.427 . S
N1631 C1629 1.384 . S
H1632 C1638 0.930 . S
H1633 C1642 0.930 . S
H1634 C1647 0.929 . S
H1635 C1645 0.929 . S
H1636 C1640 0.929 . S
H1637 C1646 0.929 . S
C1638 H1632 0.930 . S
C1638 C1639 1.367 . S
C1638 C1646 1.378 . S
C1639 C1638 1.367 . S
C1639 C1647 1.433 . S
C1640 H1636 0.929 . S
C1640 C1642 1.378 . S
C1640 C1644 1.350 . S
C1641 C1644 1.463 . S
C1641 C1646 1.350 . S
C1641 N1649 1.427 . S
C1642 H1633 0.930 . S
C1642 C1640 1.378 . S
C1642 C1643 1.367 . S
C1643 C1642 1.367 . S
C1643 C1645 1.433 . S
C1644 C1640 1.350 . S
C1644 C1641 1.463 . S
C1644 N1648 1.427 . S
C1645 H1635 0.929 . S
C1645 C1643 1.433 . S
C1645 N1648 1.384 . S
C1646 H1637 0.929 . S
C1646 C1638 1.378 . S
C1646 C1641 1.350 . S
C1647 H1634 0.929 . S
C1647 C1639 1.433 . S
C1647 N1649 1.384 . S
N1648 C1644 1.427 . S
N1648 C1645 1.384 . S
N1649 C1641 1.427 . S
N1649 C1647 1.384 . S
H1650 C1656 0.930 . S
H1651 C1660 0.930 . S
H1652 C1665 0.929 . S
H1653 C1663 0.929 . S
H1654 C1658 0.929 . S
H1655 C1664 0.929 . S
C1656 H1650 0.930 . S
C1656 C1657 1.367 . S
C1656 C1664 1.378 . S
C1657 C1656 1.367 . S
C1657 C1665 1.433 . S
C1658 H1654 0.929 . S
C1658 C1660 1.378 . S
C1658 C1662 1.350 . S
C1659 C1662 1.463 . S
C1659 C1664 1.350 . S
C1659 N1667 1.427 . S
C1660 H1651 0.930 . S
C1660 C1658 1.378 . S
C1660 C1661 1.367 . S
C1661 C1660 1.367 . S
C1661 C1663 1.433 . S
C1662 C1658 1.350 . S
C1662 C1659 1.463 . S
C1662 N1666 1.427 . S
C1663 H1653 0.929 . S
C1663 C1661 1.433 . S
C1663 N1666 1.384 . S
C1664 H1655 0.929 . S
C1664 C1656 1.378 . S
C1664 C1659 1.350 . S
C1665 H1652 0.929 . S
C1665 C1657 1.433 . S
C1665 N1667 1.384 . S
N1666 C1662 1.427 . S
N1666 C1663 1.384 . S
N1667 C1659 1.427 . S
N1667 C1665 1.384 . S
H1668 C1674 0.930 . S
H1669 C1678 0.930 . S
H1670 C1683 0.929 . S
H1671 C1681 0.929 . S
H1672 C1676 0.929 . S
H1673 C1682 0.929 . S
C1674 H1668 0.930 . S
C1674 C1675 1.367 . S
C1674 C1682 1.378 . S
C1675 C1674 1.367 . S
C1675 C1683 1.433 . S
C1676 H1672 0.929 . S
C1676 C1678 1.378 . S
C1676 C1680 1.350 . S
C1677 C1680 1.463 . S
C1677 C1682 1.350 . S
C1677 N1685 1.427 . S
C1678 H1669 0.930 . S
C1678 C1676 1.378 . S
C1678 C1679 1.367 . S
C1679 C1678 1.367 . S
C1679 C1681 1.433 . S
C1680 C1676 1.350 . S
C1680 C1677 1.463 . S
C1680 N1684 1.427 . S
C1681 H1671 0.929 . S
C1681 C1679 1.433 . S
C1681 N1684 1.384 . S
C1682 H1673 0.929 . S
C1682 C1674 1.378 . S
C1682 C1677 1.350 . S
C1683 H1670 0.929 . S
C1683 C1675 1.433 . S
C1683 N1685 1.384 . S
N1684 C1680 1.427 . S
N1684 C1681 1.384 . S
N1685 C1677 1.427 . S
N1685 C1683 1.384 . S
H1686 C1692 0.930 . S
H1687 C1696 0.930 . S
H1688 C1701 0.929 . S
H1689 C1699 0.929 . S
H1690 C1694 0.929 . S
H1691 C1700 0.929 . S
C1692 H1686 0.930 . S
C1692 C1693 1.367 . S
C1692 C1700 1.378 . S
C1693 C1692 1.367 . S
C1693 C1701 1.433 . S
C1694 H1690 0.929 . S
C1694 C1696 1.378 . S
C1694 C1698 1.350 . S
C1695 C1698 1.463 . S
C1695 C1700 1.350 . S
C1695 N1703 1.427 . S
C1696 H1687 0.930 . S
C1696 C1694 1.378 . S
C1696 C1697 1.367 . S
C1697 C1696 1.367 . S
C1697 C1699 1.433 . S
C1698 C1694 1.350 . S
C1698 C1695 1.463 . S
C1698 N1702 1.427 . S
C1699 H1689 0.929 . S
C1699 C1697 1.433 . S
C1699 N1702 1.384 . S
C1700 H1691 0.929 . S
C1700 C1692 1.378 . S
C1700 C1695 1.350 . S
C1701 H1688 0.929 . S
C1701 C1693 1.433 . S
C1701 N1703 1.384 . S
N1702 C1698 1.427 . S
N1702 C1699 1.384 . S
N1703 C1695 1.427 . S
N1703 C1701 1.384 . S
H1704 C1710 0.930 . S
H1705 C1714 0.930 . S
H1706 C1719 0.929 . S
H1707 C1717 0.929 . S
H1708 C1712 0.929 . S
H1709 C1718 0.929 . S
C1710 H1704 0.930 . S
C1710 C1711 1.367 . S
C1710 C1718 1.378 . S
C1711 C1710 1.367 . S
C1711 C1719 1.433 . S
C1712 H1708 0.929 . S
C1712 C1714 1.378 . S
C1712 C1716 1.350 . S
C1713 C1716 1.463 . S
C1713 C1718 1.350 . S
C1713 N1721 1.427 . S
C1714 H1705 0.930 . S
C1714 C1712 1.378 . S
C1714 C1715 1.367 . S
C1715 C1714 1.367 . S
C1715 C1717 1.433 . S
C1716 C1712 1.350 . S
C1716 C1713 1.463 . S
C1716 N1720 1.427 . S
C1717 H1707 0.929 . S
C1717 C1715 1.433 . S
C1717 N1720 1.384 . S
C1718 H1709 0.929 . S
C1718 C1710 1.378 . S
C1718 C1713 1.350 . S
C1719 H1706 0.929 . S
C1719 C1711 1.433 . S
C1719 N1721 1.384 . S
N1720 C1716 1.427 . S
N1720 C1717 1.384 . S
N1721 C1713 1.427 . S
N1721 C1719 1.384 . S
H1722 C1728 0.930 . S
H1723 C1732 0.930 . S
H1724 C1737 0.929 . S
H1725 C1735 0.929 . S
H1726 C1730 0.929 . S
H1727 C1736 0.929 . S
C1728 H1722 0.930 . S
C1728 C1729 1.367 . S
C1728 C1736 1.378 . S
C1729 C1728 1.367 . S
C1729 C1737 1.433 . S
C1730 H1726 0.929 . S
C1730 C1732 1.378 . S
C1730 C1734 1.350 . S
C1731 C1734 1.463 . S
C1731 C1736 1.350 . S
C1731 N1739 1.427 . S
C1732 H1723 0.930 . S
C1732 C1730 1.378 . S
C1732 C1733 1.367 . S
C1733 C1732 1.367 . S
C1733 C1735 1.433 . S
C1734 C1730 1.350 . S
C1734 C1731 1.463 . S
C1734 N1738 1.427 . S
C1735 H1725 0.929 . S
C1735 C1733 1.433 . S
C1735 N1738 1.384 . S
C1736 H1727 0.929 . S
C1736 C1728 1.378 . S
C1736 C1731 1.350 . S
C1737 H1724 0.929 . S
C1737 C1729 1.433 . S
C1737 N1739 1.384 . S
N1738 C1734 1.427 . S
N1738 C1735 1.384 . S
N1739 C1731 1.427 . S
N1739 C1737 1.384 . S
H1740 C1746 0.930 . S
H1741 C1750 0.930 . S
H1742 C1755 0.929 . S
H1743 C1753 0.929 . S
H1744 C1748 0.929 . S
H1745 C1754 0.929 . S
C1746 H1740 0.930 . S
C1746 C1747 1.367 . S
C1746 C1754 1.378 . S
C1747 C1746 1.367 . S
C1747 C1755 1.433 . S
C1748 H1744 0.929 . S
C1748 C1750 1.378 . S
C1748 C1752 1.350 . S
C1749 C1752 1.463 . S
C1749 C1754 1.350 . S
C1749 N1757 1.427 . S
C1750 H1741 0.930 . S
C1750 C1748 1.378 . S
C1750 C1751 1.367 . S
C1751 C1750 1.367 . S
C1751 C1753 1.433 . S
C1752 C1748 1.350 . S
C1752 C1749 1.463 . S
C1752 N1756 1.427 . S
C1753 H1743 0.929 . S
C1753 C1751 1.433 . S
C1753 N1756 1.384 . S
C1754 H1745 0.929 . S
C1754 C1746 1.378 . S
C1754 C1749 1.350 . S
C1755 H1742 0.929 . S
C1755 C1747 1.433 . S
C1755 N1757 1.384 . S
N1756 C1752 1.427 . S
N1756 C1753 1.384 . S
N1757 C1749 1.427 . S
N1757 C1755 1.384 . S
H1758 C1764 0.930 . S
H1759 C1768 0.930 . S
H1760 C1773 0.929 . S
H1761 C1771 0.929 . S
H1762 C1766 0.929 . S
H1763 C1772 0.929 . S
C1764 H1758 0.930 . S
C1764 C1765 1.367 . S
C1764 C1772 1.378 . S
C1765 C1764 1.367 . S
C1765 C1773 1.433 . S
C1766 H1762 0.929 . S
C1766 C1768 1.378 . S
C1766 C1770 1.350 . S
C1767 C1770 1.463 . S
C1767 C1772 1.350 . S
C1767 N1775 1.427 . S
C1768 H1759 0.930 . S
C1768 C1766 1.378 . S
C1768 C1769 1.367 . S
C1769 C1768 1.367 . S
C1769 C1771 1.433 . S
C1770 C1766 1.350 . S
C1770 C1767 1.463 . S
C1770 N1774 1.427 . S
C1771 H1761 0.929 . S
C1771 C1769 1.433 . S
C1771 N1774 1.384 . S
C1772 H1763 0.929 . S
C1772 C1764 1.378 . S
C1772 C1767 1.350 . S
C1773 H1760 0.929 . S
C1773 C1765 1.433 . S
C1773 N1775 1.384 . S
N1774 C1770 1.427 . S
N1774 C1771 1.384 . S
N1775 C1767 1.427 . S
N1775 C1773 1.384 . S
H1776 C1782 0.930 . S
H1777 C1786 0.930 . S
H1778 C1791 0.929 . S
H1779 C1789 0.929 . S
H1780 C1784 0.929 . S
H1781 C1790 0.929 . S
C1782 H1776 0.930 . S
C1782 C1783 1.367 . S
C1782 C1790 1.378 . S
C1783 C1782 1.367 . S
C1783 C1791 1.433 . S
C1784 H1780 0.929 . S
C1784 C1786 1.378 . S
C1784 C1788 1.350 . S
C1785 C1788 1.463 . S
C1785 C1790 1.350 . S
C1785 N1793 1.427 . S
C1786 H1777 0.930 . S
C1786 C1784 1.378 . S
C1786 C1787 1.367 . S
C1787 C1786 1.367 . S
C1787 C1789 1.433 . S
C1788 C1784 1.350 . S
C1788 C1785 1.463 . S
C1788 N1792 1.427 . S
C1789 H1779 0.929 . S
C1789 C1787 1.433 . S
C1789 N1792 1.384 . S
C1790 H1781 0.929 . S
C1790 C1782 1.378 . S
C1790 C1785 1.350 . S
C1791 H1778 0.929 . S
C1791 C1783 1.433 . S
C1791 N1793 1.384 . S
N1792 C1788 1.427 . S
N1792 C1789 1.384 . S
N1793 C1785 1.427 . S
N1793 C1791 1.384 . S
H1794 C1800 0.930 . S
H1795 C1804 0.930 . S
H1796 C1809 0.929 . S
H1797 C1807 0.929 . S
H1798 C1802 0.929 . S
H1799 C1808 0.929 . S
C1800 H1794 0.930 . S
C1800 C1801 1.367 . S
C1800 C1808 1.378 . S
C1801 C1800 1.367 . S
C1801 C1809 1.433 . S
C1802 H1798 0.929 . S
C1802 C1804 1.378 . S
C1802 C1806 1.350 . S
C1803 C1806 1.463 . S
C1803 C1808 1.350 . S
C1803 N1811 1.427 . S
C1804 H1795 0.930 . S
C1804 C1802 1.378 . S
C1804 C1805 1.367 . S
C1805 C1804 1.367 . S
C1805 C1807 1.433 . S
C1806 C1802 1.350 . S
C1806 C1803 1.463 . S
C1806 N1810 1.427 . S
C1807 H1797 0.929 . S
C1807 C1805 1.433 . S
C1807 N1810 1.384 . S
C1808 H1799 0.929 . S
C1808 C1800 1.378 . S
C1808 C1803 1.350 . S
C1809 H1796 0.929 . S
C1809 C1801 1.433 . S
C1809 N1811 1.384 . S
N1810 C1806 1.427 . S
N1810 C1807 1.384 . S
N1811 C1803 1.427 . S
N1811 C1809 1.384 . S
H1812 C1818 0.930 . S
H1813 C1822 0.930 . S
H1814 C1827 0.929 . S
H1815 C1825 0.929 . S
H1816 C1820 0.929 . S
H1817 C1826 0.929 . S
C1818 H1812 0.930 . S
C1818 C1819 1.367 . S
C1818 C1826 1.378 . S
C1819 C1818 1.367 . S
C1819 C1827 1.433 . S
C1820 H1816 0.929 . S
C1820 C1822 1.378 . S
C1820 C1824 1.350 . S
C1821 C1824 1.463 . S
C1821 C1826 1.350 . S
C1821 N1829 1.427 . S
C1822 H1813 0.930 . S
C1822 C1820 1.378 . S
C1822 C1823 1.367 . S
C1823 C1822 1.367 . S
C1823 C1825 1.433 . S
C1824 C1820 1.350 . S
C1824 C1821 1.463 . S
C1824 N1828 1.427 . S
C1825 H1815 0.929 . S
C1825 C1823 1.433 . S
C1825 N1828 1.384 . S
C1826 H1817 0.929 . S
C1826 C1818 1.378 . S
C1826 C1821 1.350 . S
C1827 H1814 0.929 . S
C1827 C1819 1.433 . S
C1827 N1829 1.384 . S
N1828 C1824 1.427 . S
N1828 C1825 1.384 . S
N1829 C1821 1.427 . S
N1829 C1827 1.384 . S
H1830 C1836 0.930 . S
H1831 C1840 0.930 . S
H1832 C1845 0.929 . S
H1833 C1843 0.929 . S
H1834 C1838 0.929 . S
H1835 C1844 0.929 . S
C1836 H1830 0.930 . S
C1836 C1837 1.367 . S
C1836 C1844 1.378 . S
C1837 C1836 1.367 . S
C1837 C1845 1.433 . S
C1838 H1834 0.929 . S
C1838 C1840 1.378 . S
C1838 C1842 1.350 . S
C1839 C1842 1.463 . S
C1839 C1844 1.350 . S
C1839 N1847 1.427 . S
C1840 H1831 0.930 . S
C1840 C1838 1.378 . S
C1840 C1841 1.367 . S
C1841 C1840 1.367 . S
C1841 C1843 1.433 . S
C1842 C1838 1.350 . S
C1842 C1839 1.463 . S
C1842 N1846 1.427 . S
C1843 H1833 0.929 . S
C1843 C1841 1.433 . S
C1843 N1846 1.384 . S
C1844 H1835 0.929 . S
C1844 C1836 1.378 . S
C1844 C1839 1.350 . S
C1845 H1832 0.929 . S
C1845 C1837 1.433 . S
C1845 N1847 1.384 . S
N1846 C1842 1.427 . S
N1846 C1843 1.384 . S
N1847 C1839 1.427 . S
N1847 C1845 1.384 . S
H1848 C1854 0.930 . S
H1849 C1858 0.930 . S
H1850 C1863 0.929 . S
H1851 C1861 0.929 . S
H1852 C1856 0.929 . S
H1853 C1862 0.929 . S
C1854 H1848 0.930 . S
C1854 C1855 1.367 . S
C1854 C1862 1.378 . S
C1855 C1854 1.367 . S
C1855 C1863 1.433 . S
C1856 H1852 0.929 . S
C1856 C1858 1.378 . S
C1856 C1860 1.350 . S
C1857 C1860 1.463 1_455 S
C1857 C1862 1.350 . S
C1857 N1865 1.427 . S
C1858 H1849 0.930 . S
C1858 C1856 1.378 . S
C1858 C1859 1.367 . S
C1859 C1858 1.367 . S
C1859 C1861 1.433 . S
C1860 C1856 1.350 . S
C1860 C1857 1.463 1_655 S
C1860 N1864 1.427 . S
C1861 H1851 0.929 . S
C1861 C1859 1.433 . S
C1861 N1864 1.384 . S
C1862 H1853 0.929 . S
C1862 C1854 1.378 . S
C1862 C1857 1.350 . S
C1863 H1850 0.929 . S
C1863 C1855 1.433 . S
C1863 N1865 1.384 . S
N1864 C1860 1.427 . S
N1864 C1861 1.384 . S
N1865 C1857 1.427 . S
N1865 C1863 1.384 . S
H1866 C1872 0.930 . S
H1867 C1876 0.930 . S
H1868 C1881 0.929 . S
H1869 C1879 0.929 . S
H1870 C1874 0.929 . S
H1871 C1880 0.929 . S
C1872 H1866 0.930 . S
C1872 C1873 1.367 . S
C1872 C1880 1.378 . S
C1873 C1872 1.367 . S
C1873 C1881 1.433 . S
C1874 H1870 0.929 . S
C1874 C1876 1.378 . S
C1874 C1878 1.350 . S
C1875 C1878 1.463 1_545 S
C1875 C1880 1.350 . S
C1875 N1883 1.427 . S
C1876 H1867 0.930 . S
C1876 C1874 1.378 . S
C1876 C1877 1.367 . S
C1877 C1876 1.367 . S
C1877 C1879 1.433 . S
C1878 C1874 1.350 . S
C1878 C1875 1.463 1_565 S
C1878 N1882 1.427 . S
C1879 H1869 0.929 . S
C1879 C1877 1.433 . S
C1879 N1882 1.384 . S
C1880 H1871 0.929 . S
C1880 C1872 1.378 . S
C1880 C1875 1.350 . S
C1881 H1868 0.929 . S
C1881 C1873 1.433 . S
C1881 N1883 1.384 . S
N1882 C1878 1.427 . S
N1882 C1879 1.384 . S
N1883 C1875 1.427 . S
N1883 C1881 1.384 . S
H1884 C1890 0.930 . S
H1885 C1894 0.930 . S
H1886 C1899 0.929 . S
H1887 C1897 0.929 . S
H1888 C1892 0.929 . S
H1889 C1898 0.929 . S
C1890 H1884 0.930 . S
C1890 C1891 1.367 . S
C1890 C1898 1.378 . S
C1891 C1890 1.367 . S
C1891 C1899 1.433 . S
C1892 H1888 0.929 . S
C1892 C1894 1.378 . S
C1892 C1896 1.350 . S
C1893 C1896 1.463 1_655 S
C1893 C1898 1.350 . S
C1893 N1901 1.427 . S
C1894 H1885 0.930 . S
C1894 C1892 1.378 . S
C1894 C1895 1.367 . S
C1895 C1894 1.367 . S
C1895 C1897 1.433 . S
C1896 C1892 1.350 . S
C1896 C1893 1.463 1_455 S
C1896 N1900 1.427 . S
C1897 H1887 0.929 . S
C1897 C1895 1.433 . S
C1897 N1900 1.384 . S
C1898 H1889 0.929 . S
C1898 C1890 1.378 . S
C1898 C1893 1.350 . S
C1899 H1886 0.929 . S
C1899 C1891 1.433 . S
C1899 N1901 1.384 . S
N1900 C1896 1.427 . S
N1900 C1897 1.384 . S
N1901 C1893 1.427 . S
N1901 C1899 1.384 . S
H1902 C1908 0.930 . S
H1903 C1912 0.930 . S
H1904 C1917 0.929 . S
H1905 C1915 0.929 . S
H1906 C1910 0.929 . S
H1907 C1916 0.929 . S
C1908 H1902 0.930 . S
C1908 C1909 1.367 . S
C1908 C1916 1.378 . S
C1909 C1908 1.367 . S
C1909 C1917 1.433 . S
C1910 H1906 0.929 . S
C1910 C1912 1.378 . S
C1910 C1914 1.350 . S
C1911 C1914 1.463 1_545 S
C1911 C1916 1.350 . S
C1911 N1919 1.427 . S
C1912 H1903 0.930 . S
C1912 C1910 1.378 . S
C1912 C1913 1.367 . S
C1913 C1912 1.367 . S
C1913 C1915 1.433 . S
C1914 C1910 1.350 . S
C1914 C1911 1.463 1_565 S
C1914 N1918 1.427 . S
C1915 H1905 0.929 . S
C1915 C1913 1.433 . S
C1915 N1918 1.384 . S
C1916 H1907 0.929 . S
C1916 C1908 1.378 . S
C1916 C1911 1.350 . S
C1917 H1904 0.929 . S
C1917 C1909 1.433 . S
C1917 N1919 1.384 . S
N1918 C1914 1.427 . S
N1918 C1915 1.384 . S
N1919 C1911 1.427 . S
N1919 C1917 1.384 . S
H1920 C1926 0.930 . S
H1921 C1930 0.930 . S
H1922 C1935 0.929 . S
H1923 C1933 0.929 . S
H1924 C1928 0.929 . S
H1925 C1934 0.929 . S
C1926 H1920 0.930 . S
C1926 C1927 1.367 . S
C1926 C1934 1.378 . S
C1927 C1926 1.367 . S
C1927 C1935 1.433 . S
C1928 H1924 0.929 . S
C1928 C1930 1.378 . S
C1928 C1932 1.350 . S
C1929 C1932 1.463 1_565 S
C1929 C1934 1.350 . S
C1929 N1937 1.427 . S
C1930 H1921 0.930 . S
C1930 C1928 1.378 . S
C1930 C1931 1.367 . S
C1931 C1930 1.367 . S
C1931 C1933 1.433 . S
C1932 C1928 1.350 . S
C1932 C1929 1.463 1_545 S
C1932 N1936 1.427 . S
C1933 H1923 0.929 . S
C1933 C1931 1.433 . S
C1933 N1936 1.384 . S
C1934 H1925 0.929 . S
C1934 C1926 1.378 . S
C1934 C1929 1.350 . S
C1935 H1922 0.929 . S
C1935 C1927 1.433 . S
C1935 N1937 1.384 . S
N1936 C1932 1.427 . S
N1936 C1933 1.384 . S
N1937 C1929 1.427 . S
N1937 C1935 1.384 . S
H1938 C1944 0.930 . S
H1939 C1948 0.930 . S
H1940 C1953 0.929 . S
H1941 C1951 0.929 . S
H1942 C1946 0.929 . S
H1943 C1952 0.929 . S
C1944 H1938 0.930 . S
C1944 C1945 1.367 . S
C1944 C1952 1.378 . S
C1945 C1944 1.367 . S
C1945 C1953 1.433 . S
C1946 H1942 0.929 . S
C1946 C1948 1.378 . S
C1946 C1950 1.350 . S
C1947 C1950 1.463 1_655 S
C1947 C1952 1.350 . S
C1947 N1955 1.427 . S
C1948 H1939 0.930 . S
C1948 C1946 1.378 . S
C1948 C1949 1.367 . S
C1949 C1948 1.367 . S
C1949 C1951 1.433 . S
C1950 C1946 1.350 . S
C1950 C1947 1.463 1_455 S
C1950 N1954 1.427 . S
C1951 H1941 0.929 . S
C1951 C1949 1.433 . S
C1951 N1954 1.384 . S
C1952 H1943 0.929 . S
C1952 C1944 1.378 . S
C1952 C1947 1.350 . S
C1953 H1940 0.929 . S
C1953 C1945 1.433 . S
C1953 N1955 1.384 . S
N1954 C1950 1.427 . S
N1954 C1951 1.384 . S
N1955 C1947 1.427 . S
N1955 C1953 1.384 . S
H1956 C1962 0.930 . S
H1957 C1966 0.930 . S
H1958 C1971 0.929 . S
H1959 C1969 0.929 . S
H1960 C1964 0.929 . S
H1961 C1970 0.929 . S
C1962 H1956 0.930 . S
C1962 C1963 1.367 . S
C1962 C1970 1.378 . S
C1963 C1962 1.367 . S
C1963 C1971 1.433 . S
C1964 H1960 0.929 . S
C1964 C1966 1.378 . S
C1964 C1968 1.350 . S
C1965 C1968 1.463 1_565 S
C1965 C1970 1.350 . S
C1965 N1973 1.427 . S
C1966 H1957 0.930 . S
C1966 C1964 1.378 . S
C1966 C1967 1.367 . S
C1967 C1966 1.367 . S
C1967 C1969 1.433 . S
C1968 C1964 1.350 . S
C1968 C1965 1.463 1_545 S
C1968 N1972 1.427 . S
C1969 H1959 0.929 . S
C1969 C1967 1.433 . S
C1969 N1972 1.384 . S
C1970 H1961 0.929 . S
C1970 C1962 1.378 . S
C1970 C1965 1.350 . S
C1971 H1958 0.929 . S
C1971 C1963 1.433 . S
C1971 N1973 1.384 . S
N1972 C1968 1.427 . S
N1972 C1969 1.384 . S
N1973 C1965 1.427 . S
N1973 C1971 1.384 . S
H1974 C1980 0.930 . S
H1975 C1984 0.930 . S
H1976 C1989 0.929 . S
H1977 C1987 0.929 . S
H1978 C1982 0.929 . S
H1979 C1988 0.929 . S
C1980 H1974 0.930 . S
C1980 C1981 1.367 . S
C1980 C1988 1.378 . S
C1981 C1980 1.367 . S
C1981 C1989 1.433 . S
C1982 H1978 0.929 . S
C1982 C1984 1.378 . S
C1982 C1986 1.350 . S
C1983 C1986 1.463 1_655 S
C1983 C1988 1.350 . S
C1983 N1991 1.427 . S
C1984 H1975 0.930 . S
C1984 C1982 1.378 . S
C1984 C1985 1.367 . S
C1985 C1984 1.367 . S
C1985 C1987 1.433 . S
C1986 C1982 1.350 . S
C1986 C1983 1.463 1_455 S
C1986 N1990 1.427 . S
C1987 H1977 0.929 . S
C1987 C1985 1.433 . S
C1987 N1990 1.384 . S
C1988 H1979 0.929 . S
C1988 C1980 1.378 . S
C1988 C1983 1.350 . S
C1989 H1976 0.929 . S
C1989 C1981 1.433 . S
C1989 N1991 1.384 . S
N1990 C1986 1.427 . S
N1990 C1987 1.384 . S
N1991 C1983 1.427 . S
N1991 C1989 1.384 . S
H1992 C1998 0.930 . S
H1993 C2002 0.930 . S
H1994 C2007 0.929 . S
H1995 C2005 0.929 . S
H1996 C2000 0.929 . S
H1997 C2006 0.929 . S
C1998 H1992 0.930 . S
C1998 C1999 1.367 . S
C1998 C2006 1.378 . S
C1999 C1998 1.367 . S
C1999 C2007 1.433 . S
C2000 H1996 0.929 . S
C2000 C2002 1.378 . S
C2000 C2004 1.350 . S
C2001 C2004 1.463 1_556 S
C2001 C2006 1.350 . S
C2001 N2009 1.427 . S
C2002 H1993 0.930 . S
C2002 C2000 1.378 . S
C2002 C2003 1.367 . S
C2003 C2002 1.367 . S
C2003 C2005 1.433 . S
C2004 C2000 1.350 . S
C2004 C2001 1.463 1_554 S
C2004 N2008 1.427 . S
C2005 H1995 0.929 . S
C2005 C2003 1.433 . S
C2005 N2008 1.384 . S
C2006 H1997 0.929 . S
C2006 C1998 1.378 . S
C2006 C2001 1.350 . S
C2007 H1994 0.929 . S
C2007 C1999 1.433 . S
C2007 N2009 1.384 . S
N2008 C2004 1.427 . S
N2008 C2005 1.384 . S
N2009 C2001 1.427 . S
N2009 C2007 1.384 . S
H2010 C2016 0.930 . S
H2011 C2020 0.930 . S
H2012 C2025 0.929 . S
H2013 C2023 0.929 . S
H2014 C2018 0.929 . S
H2015 C2024 0.929 . S
C2016 H2010 0.930 . S
C2016 C2017 1.367 . S
C2016 C2024 1.378 . S
C2017 C2016 1.367 . S
C2017 C2025 1.433 . S
C2018 H2014 0.929 . S
C2018 C2020 1.378 . S
C2018 C2022 1.350 . S
C2019 C2022 1.463 1_556 S
C2019 C2024 1.350 . S
C2019 N2027 1.427 . S
C2020 H2011 0.930 . S
C2020 C2018 1.378 . S
C2020 C2021 1.367 . S
C2021 C2020 1.367 . S
C2021 C2023 1.433 . S
C2022 C2018 1.350 . S
C2022 C2019 1.463 1_554 S
C2022 N2026 1.427 . S
C2023 H2013 0.929 . S
C2023 C2021 1.433 . S
C2023 N2026 1.384 . S
C2024 H2015 0.929 . S
C2024 C2016 1.378 . S
C2024 C2019 1.350 . S
C2025 H2012 0.929 . S
C2025 C2017 1.433 . S
C2025 N2027 1.384 . S
N2026 C2022 1.427 . S
N2026 C2023 1.384 . S
N2027 C2019 1.427 . S
N2027 C2025 1.384 . S
H2028 C2034 0.930 . S
H2029 C2038 0.930 . S
H2030 C2043 0.929 . S
H2031 C2041 0.929 . S
H2032 C2036 0.929 . S
H2033 C2042 0.929 . S
C2034 H2028 0.930 . S
C2034 C2035 1.367 . S
C2034 C2042 1.378 . S
C2035 C2034 1.367 . S
C2035 C2043 1.433 . S
C2036 H2032 0.929 . S
C2036 C2038 1.378 . S
C2036 C2040 1.350 . S
C2037 C2040 1.463 1_556 S
C2037 C2042 1.350 . S
C2037 N2045 1.427 . S
C2038 H2029 0.930 . S
C2038 C2036 1.378 . S
C2038 C2039 1.367 . S
C2039 C2038 1.367 . S
C2039 C2041 1.433 . S
C2040 C2036 1.350 . S
C2040 C2037 1.463 1_554 S
C2040 N2044 1.427 . S
C2041 H2031 0.929 . S
C2041 C2039 1.433 . S
C2041 N2044 1.384 . S
C2042 H2033 0.929 . S
C2042 C2034 1.378 . S
C2042 C2037 1.350 . S
C2043 H2030 0.929 . S
C2043 C2035 1.433 . S
C2043 N2045 1.384 . S
N2044 C2040 1.427 . S
N2044 C2041 1.384 . S
N2045 C2037 1.427 . S
N2045 C2043 1.384 . S
H2046 C2052 0.930 . S
H2047 C2056 0.930 . S
H2048 C2061 0.929 . S
H2049 C2059 0.929 . S
H2050 C2054 0.929 . S
H2051 C2060 0.929 . S
C2052 H2046 0.930 . S
C2052 C2053 1.367 . S
C2052 C2060 1.378 . S
C2053 C2052 1.367 . S
C2053 C2061 1.433 . S
C2054 H2050 0.929 . S
C2054 C2056 1.378 . S
C2054 C2058 1.350 . S
C2055 C2058 1.463 1_556 S
C2055 C2060 1.350 . S
C2055 N2063 1.427 . S
C2056 H2047 0.930 . S
C2056 C2054 1.378 . S
C2056 C2057 1.367 . S
C2057 C2056 1.367 . S
C2057 C2059 1.433 . S
C2058 C2054 1.350 . S
C2058 C2055 1.463 1_554 S
C2058 N2062 1.427 . S
C2059 H2049 0.929 . S
C2059 C2057 1.433 . S
C2059 N2062 1.384 . S
C2060 H2051 0.929 . S
C2060 C2052 1.378 . S
C2060 C2055 1.350 . S
C2061 H2048 0.929 . S
C2061 C2053 1.433 . S
C2061 N2063 1.384 . S
N2062 C2058 1.427 . S
N2062 C2059 1.384 . S
N2063 C2055 1.427 . S
N2063 C2061 1.384 . S
H2064 C2070 0.930 . S
H2065 C2074 0.930 . S
H2066 C2079 0.929 . S
H2067 C2077 0.929 . S
H2068 C2072 0.929 . S
H2069 C2078 0.929 . S
C2070 H2064 0.930 . S
C2070 C2071 1.367 . S
C2070 C2078 1.378 . S
C2071 C2070 1.367 . S
C2071 C2079 1.433 . S
C2072 H2068 0.929 . S
C2072 C2074 1.378 . S
C2072 C2076 1.350 . S
C2073 C2076 1.463 . S
C2073 C2078 1.350 . S
C2073 N2081 1.427 . S
C2074 H2065 0.930 . S
C2074 C2072 1.378 . S
C2074 C2075 1.367 . S
C2075 C2074 1.367 . S
C2075 C2077 1.433 . S
C2076 C2072 1.350 . S
C2076 C2073 1.463 . S
C2076 N2080 1.427 . S
C2077 H2067 0.929 . S
C2077 C2075 1.433 . S
C2077 N2080 1.384 . S
C2078 H2069 0.929 . S
C2078 C2070 1.378 . S
C2078 C2073 1.350 . S
C2079 H2066 0.929 . S
C2079 C2071 1.433 . S
C2079 N2081 1.384 . S
N2080 C2076 1.427 . S
N2080 C2077 1.384 . S
N2081 C2073 1.427 . S
N2081 C2079 1.384 . S
H2082 C2088 0.930 . S
H2083 C2092 0.930 . S
H2084 C2097 0.929 . S
H2085 C2095 0.929 . S
H2086 C2090 0.929 . S
H2087 C2096 0.929 . S
C2088 H2082 0.930 . S
C2088 C2089 1.367 . S
C2088 C2096 1.378 . S
C2089 C2088 1.367 . S
C2089 C2097 1.433 . S
C2090 H2086 0.929 . S
C2090 C2092 1.378 . S
C2090 C2094 1.350 . S
C2091 C2094 1.463 . S
C2091 C2096 1.350 . S
C2091 N2099 1.427 . S
C2092 H2083 0.930 . S
C2092 C2090 1.378 . S
C2092 C2093 1.367 . S
C2093 C2092 1.367 . S
C2093 C2095 1.433 . S
C2094 C2090 1.350 . S
C2094 C2091 1.463 . S
C2094 N2098 1.427 . S
C2095 H2085 0.929 . S
C2095 C2093 1.433 . S
C2095 N2098 1.384 . S
C2096 H2087 0.929 . S
C2096 C2088 1.378 . S
C2096 C2091 1.350 . S
C2097 H2084 0.929 . S
C2097 C2089 1.433 . S
C2097 N2099 1.384 . S
N2098 C2094 1.427 . S
N2098 C2095 1.384 . S
N2099 C2091 1.427 . S
N2099 C2097 1.384 . S
H2100 C2106 0.930 . S
H2101 C2110 0.930 . S
H2102 C2115 0.929 . S
H2103 C2113 0.929 . S
H2104 C2108 0.929 . S
H2105 C2114 0.929 . S
C2106 H2100 0.930 . S
C2106 C2107 1.367 . S
C2106 C2114 1.378 . S
C2107 C2106 1.367 . S
C2107 C2115 1.433 . S
C2108 H2104 0.929 . S
C2108 C2110 1.378 . S
C2108 C2112 1.350 . S
C2109 C2112 1.463 . S
C2109 C2114 1.350 . S
C2109 N2117 1.427 . S
C2110 H2101 0.930 . S
C2110 C2108 1.378 . S
C2110 C2111 1.367 . S
C2111 C2110 1.367 . S
C2111 C2113 1.433 . S
C2112 C2108 1.350 . S
C2112 C2109 1.463 . S
C2112 N2116 1.427 . S
C2113 H2103 0.929 . S
C2113 C2111 1.433 . S
C2113 N2116 1.384 . S
C2114 H2105 0.929 . S
C2114 C2106 1.378 . S
C2114 C2109 1.350 . S
C2115 H2102 0.929 . S
C2115 C2107 1.433 . S
C2115 N2117 1.384 . S
N2116 C2112 1.427 . S
N2116 C2113 1.384 . S
N2117 C2109 1.427 . S
N2117 C2115 1.384 . S
H2118 C2124 0.930 . S
H2119 C2128 0.930 . S
H2120 C2133 0.929 . S
H2121 C2131 0.929 . S
H2122 C2126 0.929 . S
H2123 C2132 0.929 . S
C2124 H2118 0.930 . S
C2124 C2125 1.367 . S
C2124 C2132 1.378 . S
C2125 C2124 1.367 . S
C2125 C2133 1.433 . S
C2126 H2122 0.929 . S
C2126 C2128 1.378 . S
C2126 C2130 1.350 . S
C2127 C2130 1.463 . S
C2127 C2132 1.350 . S
C2127 N2135 1.427 . S
C2128 H2119 0.930 . S
C2128 C2126 1.378 . S
C2128 C2129 1.367 . S
C2129 C2128 1.367 . S
C2129 C2131 1.433 . S
C2130 C2126 1.350 . S
C2130 C2127 1.463 . S
C2130 N2134 1.427 . S
C2131 H2121 0.929 . S
C2131 C2129 1.433 . S
C2131 N2134 1.384 . S
C2132 H2123 0.929 . S
C2132 C2124 1.378 . S
C2132 C2127 1.350 . S
C2133 H2120 0.929 . S
C2133 C2125 1.433 . S
C2133 N2135 1.384 . S
N2134 C2130 1.427 . S
N2134 C2131 1.384 . S
N2135 C2127 1.427 . S
N2135 C2133 1.384 . S
H2136 C2142 0.930 . S
H2137 C2146 0.930 . S
H2138 C2151 0.929 . S
H2139 C2149 0.929 . S
H2140 C2144 0.929 . S
H2141 C2150 0.929 . S
C2142 H2136 0.930 . S
C2142 C2143 1.367 . S
C2142 C2150 1.378 . S
C2143 C2142 1.367 . S
C2143 C2151 1.433 . S
C2144 H2140 0.929 . S
C2144 C2146 1.378 . S
C2144 C2148 1.350 . S
C2145 C2148 1.463 . S
C2145 C2150 1.350 . S
C2145 N2153 1.427 . S
C2146 H2137 0.930 . S
C2146 C2144 1.378 . S
C2146 C2147 1.367 . S
C2147 C2146 1.367 . S
C2147 C2149 1.433 . S
C2148 C2144 1.350 . S
C2148 C2145 1.463 . S
C2148 N2152 1.427 . S
C2149 H2139 0.929 . S
C2149 C2147 1.433 . S
C2149 N2152 1.384 . S
C2150 H2141 0.929 . S
C2150 C2142 1.378 . S
C2150 C2145 1.350 . S
C2151 H2138 0.929 . S
C2151 C2143 1.433 . S
C2151 N2153 1.384 . S
N2152 C2148 1.427 . S
N2152 C2149 1.384 . S
N2153 C2145 1.427 . S
N2153 C2151 1.384 . S
H2154 C2160 0.930 . S
H2155 C2164 0.930 . S
H2156 C2169 0.929 . S
H2157 C2167 0.929 . S
H2158 C2162 0.929 . S
H2159 C2168 0.929 . S
C2160 H2154 0.930 . S
C2160 C2161 1.367 . S
C2160 C2168 1.378 . S
C2161 C2160 1.367 . S
C2161 C2169 1.433 . S
C2162 H2158 0.929 . S
C2162 C2164 1.378 . S
C2162 C2166 1.350 . S
C2163 C2166 1.463 . S
C2163 C2168 1.350 . S
C2163 N2171 1.427 . S
C2164 H2155 0.930 . S
C2164 C2162 1.378 . S
C2164 C2165 1.367 . S
C2165 C2164 1.367 . S
C2165 C2167 1.433 . S
C2166 C2162 1.350 . S
C2166 C2163 1.463 . S
C2166 N2170 1.427 . S
C2167 H2157 0.929 . S
C2167 C2165 1.433 . S
C2167 N2170 1.384 . S
C2168 H2159 0.929 . S
C2168 C2160 1.378 . S
C2168 C2163 1.350 . S
C2169 H2156 0.929 . S
C2169 C2161 1.433 . S
C2169 N2171 1.384 . S
N2170 C2166 1.427 . S
N2170 C2167 1.384 . S
N2171 C2163 1.427 . S
N2171 C2169 1.384 . S
H2172 C2178 0.930 . S
H2173 C2182 0.930 . S
H2174 C2187 0.929 . S
H2175 C2185 0.929 . S
H2176 C2180 0.929 . S
H2177 C2186 0.929 . S
C2178 H2172 0.930 . S
C2178 C2179 1.367 . S
C2178 C2186 1.378 . S
C2179 C2178 1.367 . S
C2179 C2187 1.433 . S
C2180 H2176 0.929 . S
C2180 C2182 1.378 . S
C2180 C2184 1.350 . S
C2181 C2184 1.463 . S
C2181 C2186 1.350 . S
C2181 N2189 1.427 . S
C2182 H2173 0.930 . S
C2182 C2180 1.378 . S
C2182 C2183 1.367 . S
C2183 C2182 1.367 . S
C2183 C2185 1.433 . S
C2184 C2180 1.350 . S
C2184 C2181 1.463 . S
C2184 N2188 1.427 . S
C2185 H2175 0.929 . S
C2185 C2183 1.433 . S
C2185 N2188 1.384 . S
C2186 H2177 0.929 . S
C2186 C2178 1.378 . S
C2186 C2181 1.350 . S
C2187 H2174 0.929 . S
C2187 C2179 1.433 . S
C2187 N2189 1.384 . S
N2188 C2184 1.427 . S
N2188 C2185 1.384 . S
N2189 C2181 1.427 . S
N2189 C2187 1.384 . S
H2190 C2196 0.930 . S
H2191 C2200 0.930 . S
H2192 C2205 0.929 . S
H2193 C2203 0.929 . S
H2194 C2198 0.929 . S
H2195 C2204 0.929 . S
C2196 H2190 0.930 . S
C2196 C2197 1.367 . S
C2196 C2204 1.378 . S
C2197 C2196 1.367 . S
C2197 C2205 1.433 . S
C2198 H2194 0.929 . S
C2198 C2200 1.378 . S
C2198 C2202 1.350 . S
C2199 C2202 1.463 . S
C2199 C2204 1.350 . S
C2199 N2207 1.427 . S
C2200 H2191 0.930 . S
C2200 C2198 1.378 . S
C2200 C2201 1.367 . S
C2201 C2200 1.367 . S
C2201 C2203 1.433 . S
C2202 C2198 1.350 . S
C2202 C2199 1.463 . S
C2202 N2206 1.427 . S
C2203 H2193 0.929 . S
C2203 C2201 1.433 . S
C2203 N2206 1.384 . S
C2204 H2195 0.929 . S
C2204 C2196 1.378 . S
C2204 C2199 1.350 . S
C2205 H2192 0.929 . S
C2205 C2197 1.433 . S
C2205 N2207 1.384 . S
N2206 C2202 1.427 . S
N2206 C2203 1.384 . S
N2207 C2199 1.427 . S
N2207 C2205 1.384 . S
H2208 C2214 0.930 . S
H2209 C2218 0.930 . S
H2210 C2223 0.929 . S
H2211 C2221 0.929 . S
H2212 C2216 0.929 . S
H2213 C2222 0.929 . S
C2214 H2208 0.930 . S
C2214 C2215 1.367 . S
C2214 C2222 1.378 . S
C2215 C2214 1.367 . S
C2215 C2223 1.433 . S
C2216 H2212 0.929 . S
C2216 C2218 1.378 . S
C2216 C2220 1.350 . S
C2217 C2220 1.463 . S
C2217 C2222 1.350 . S
C2217 N2225 1.427 . S
C2218 H2209 0.930 . S
C2218 C2216 1.378 . S
C2218 C2219 1.367 . S
C2219 C2218 1.367 . S
C2219 C2221 1.433 . S
C2220 C2216 1.350 . S
C2220 C2217 1.463 . S
C2220 N2224 1.427 . S
C2221 H2211 0.929 . S
C2221 C2219 1.433 . S
C2221 N2224 1.384 . S
C2222 H2213 0.929 . S
C2222 C2214 1.378 . S
C2222 C2217 1.350 . S
C2223 H2210 0.929 . S
C2223 C2215 1.433 . S
C2223 N2225 1.384 . S
N2224 C2220 1.427 . S
N2224 C2221 1.384 . S
N2225 C2217 1.427 . S
N2225 C2223 1.384 . S
H2226 C2232 0.930 . S
H2227 C2236 0.930 . S
H2228 C2241 0.929 . S
H2229 C2239 0.929 . S
H2230 C2234 0.929 . S
H2231 C2240 0.929 . S
C2232 H2226 0.930 . S
C2232 C2233 1.367 . S
C2232 C2240 1.378 . S
C2233 C2232 1.367 . S
C2233 C2241 1.433 . S
C2234 H2230 0.929 . S
C2234 C2236 1.378 . S
C2234 C2238 1.350 . S
C2235 C2238 1.463 . S
C2235 C2240 1.350 . S
C2235 N2243 1.427 . S
C2236 H2227 0.930 . S
C2236 C2234 1.378 . S
C2236 C2237 1.367 . S
C2237 C2236 1.367 . S
C2237 C2239 1.433 . S
C2238 C2234 1.350 . S
C2238 C2235 1.463 . S
C2238 N2242 1.427 . S
C2239 H2229 0.929 . S
C2239 C2237 1.433 . S
C2239 N2242 1.384 . S
C2240 H2231 0.929 . S
C2240 C2232 1.378 . S
C2240 C2235 1.350 . S
C2241 H2228 0.929 . S
C2241 C2233 1.433 . S
C2241 N2243 1.384 . S
N2242 C2238 1.427 . S
N2242 C2239 1.384 . S
N2243 C2235 1.427 . S
N2243 C2241 1.384 . S
H2244 C2250 0.930 . S
H2245 C2254 0.930 . S
H2246 C2259 0.929 . S
H2247 C2257 0.929 . S
H2248 C2252 0.929 . S
H2249 C2258 0.929 . S
C2250 H2244 0.930 . S
C2250 C2251 1.367 . S
C2250 C2258 1.378 . S
C2251 C2250 1.367 . S
C2251 C2259 1.433 . S
C2252 H2248 0.929 . S
C2252 C2254 1.378 . S
C2252 C2256 1.350 . S
C2253 C2256 1.463 . S
C2253 C2258 1.350 . S
C2253 N2261 1.427 . S
C2254 H2245 0.930 . S
C2254 C2252 1.378 . S
C2254 C2255 1.367 . S
C2255 C2254 1.367 . S
C2255 C2257 1.433 . S
C2256 C2252 1.350 . S
C2256 C2253 1.463 . S
C2256 N2260 1.427 . S
C2257 H2247 0.929 . S
C2257 C2255 1.433 . S
C2257 N2260 1.384 . S
C2258 H2249 0.929 . S
C2258 C2250 1.378 . S
C2258 C2253 1.350 . S
C2259 H2246 0.929 . S
C2259 C2251 1.433 . S
C2259 N2261 1.384 . S
N2260 C2256 1.427 . S
N2260 C2257 1.384 . S
N2261 C2253 1.427 . S
N2261 C2259 1.384 . S
H2262 C2268 0.930 . S
H2263 C2272 0.930 . S
H2264 C2277 0.929 . S
H2265 C2275 0.929 . S
H2266 C2270 0.929 . S
H2267 C2276 0.929 . S
C2268 H2262 0.930 . S
C2268 C2269 1.367 . S
C2268 C2276 1.378 . S
C2269 C2268 1.367 . S
C2269 C2277 1.433 . S
C2270 H2266 0.929 . S
C2270 C2272 1.378 . S
C2270 C2274 1.350 . S
C2271 C2274 1.463 . S
C2271 C2276 1.350 . S
C2271 N2279 1.427 . S
C2272 H2263 0.930 . S
C2272 C2270 1.378 . S
C2272 C2273 1.367 . S
C2273 C2272 1.367 . S
C2273 C2275 1.433 . S
C2274 C2270 1.350 . S
C2274 C2271 1.463 . S
C2274 N2278 1.427 . S
C2275 H2265 0.929 . S
C2275 C2273 1.433 . S
C2275 N2278 1.384 . S
C2276 H2267 0.929 . S
C2276 C2268 1.378 . S
C2276 C2271 1.350 . S
C2277 H2264 0.929 . S
C2277 C2269 1.433 . S
C2277 N2279 1.384 . S
N2278 C2274 1.427 . S
N2278 C2275 1.384 . S
N2279 C2271 1.427 . S
N2279 C2277 1.384 . S
C1423 C682 1.574 . S
C1427 C3 1.500 . S
C1441 C62 1.509 . S
C1445 C505 1.572 . S
C1459 C121 1.503 . S
C1463 C564 1.574 . S
C1477 C180 1.500 . S
C1481 C623 1.574 . S
C1495 C800 1.568 . S
C1499 C239 1.516 . S
C1513 C298 1.517 . S
C1517 C859 1.566 . S
C1531 C918 1.574 . S
C1535 C357 1.500 . S
C1549 C741 1.572 . S
C1553 C416 1.509 . S
C1567 C328 1.571 . S
C1571 C475 1.503 . S
C1585 C387 1.573 . S
C1589 C534 1.501 . S
C1603 C593 1.513 . S
C1607 C446 1.569 . S
C1621 C269 1.571 . S
C1625 C652 1.504 . S
C1639 C210 1.571 . S
C1643 C711 1.511 . S
C1657 C770 1.507 . S
C1661 C33 1.573 . S
C1675 C829 1.515 . S
C1679 C92 1.569 . S
C1693 C888 1.506 . S
C1697 C151 1.570 . S
C1711 C947 1.502 . S
C1715 C1390 1.574 . S
C1729 C1213 1.571 . S
C1733 C1006 1.504 . S
C1747 C1065 1.512 . S
C1751 C1036 1.570 . S
C1765 C1124 1.516 . S
C1769 C1095 1.566 . S
C1783 C1154 1.568 . S
C1787 C1183 1.511 . S
C1801 C1242 1.514 . S
C1805 C1331 1.567 . S
C1819 C977 1.570 . S
C1823 C1301 1.506 . S
C1837 C1272 1.573 . S
C1841 C1360 1.507 . S
C1855 C52 1.648 . S
C1859 C406 1.648 . S
C1873 C111 1.649 . S
C1877 C465 1.649 . S
C1891 C170 1.649 . S
C1895 C288 1.648 . S
C1909 C347 1.648 . S
C1913 C229 1.648 . S
C1927 C642 1.649 . S
C1931 C524 1.649 . S
C1945 C583 1.649 . S
C1949 C701 1.648 . S
C1963 C760 1.648 . S
C1967 C878 1.648 . S
C1981 C937 1.649 . S
C1985 C819 1.649 . S
C1999 C1055 1.649 . S
C2003 C996 1.649 . S
C2017 C1114 1.648 . S
C2021 C1409 1.648 . S
C2035 C1173 1.649 . S
C2039 C1291 1.649 . S
C2053 C1232 1.649 . S
C2057 C1350 1.648 . S
C2071 C5 1.141 . S
C2075 C300 1.139 . S
C2089 C64 1.141 . S
C2093 C359 1.142 . S
C2107 C123 1.138 . S
C2111 C418 1.136 . S
C2125 C241 1.141 . S
C2129 C182 1.139 . S
C2143 C477 1.141 . S
C2147 C1362 1.142 . S
C2161 C536 1.142 . S
C2165 C1244 1.141 . S
C2179 C1303 1.142 . S
C2183 C595 1.141 . S
C2197 C654 1.134 . S
C2201 C949 1.135 . S
C2215 C1185 1.137 . S
C2219 C713 1.140 . S
C2233 C1008 1.142 . S
C2237 C772 1.141 . S
C2251 C831 1.137 . S
C2255 C1067 1.135 . S
C2269 C1126 1.138 . S
C2273 C890 1.136 . S
