# Generated by pormake.
# Topology tzs, (4)-cn, num edge types: 1
# Building blocks:
#     Node 0, Type 0, BuildingBlock: QUQFOY_clean_sbu_3, # of connection points: 4
#     Node 1, Type 0, BuildingBlock: QUQFOY_clean_sbu_3, # of connection points: 4
#     Node 2, Type 0, BuildingBlock: QUQFOY_clean_sbu_3, # of connection points: 4
#     Node 3, Type 0, BuildingBlock: QUQFOY_clean_sbu_3, # of connection points: 4
#     Node 4, Type 0, BuildingBlock: QUQFOY_clean_sbu_3, # of connection points: 4
#     Node 5, Type 0, BuildingBlock: QUQFOY_clean_sbu_3, # of connection points: 4
#     Node 6, Type 0, BuildingBlock: QUQFOY_clean_sbu_3, # of connection points: 4
#     Node 7, Type 0, BuildingBlock: QUQFOY_clean_sbu_3, # of connection points: 4
#     Node 8, Type 0, BuildingBlock: QUQFOY_clean_sbu_3, # of connection points: 4
#     Node 9, Type 0, BuildingBlock: QUQFOY_clean_sbu_3, # of connection points: 4
#     Node 10, Type 0, BuildingBlock: QUQFOY_clean_sbu_3, # of connection points: 4
#     Node 11, Type 0, BuildingBlock: QUQFOY_clean_sbu_3, # of connection points: 4
#     Node 12, Type 0, BuildingBlock: QUQFOY_clean_sbu_3, # of connection points: 4
#     Node 13, Type 0, BuildingBlock: QUQFOY_clean_sbu_3, # of connection points: 4
#     Node 14, Type 0, BuildingBlock: QUQFOY_clean_sbu_3, # of connection points: 4
#     Node 15, Type 0, BuildingBlock: QUQFOY_clean_sbu_3, # of connection points: 4
#     Edge 16, Type (0, 0), BuildingBlock: AJUNOK_clean_linker_0, # of connection points: 2
#     Edge 17, Type (0, 0), BuildingBlock: AJUNOK_clean_linker_0, # of connection points: 2
#     Edge 18, Type (0, 0), BuildingBlock: AJUNOK_clean_linker_0, # of connection points: 2
#     Edge 19, Type (0, 0), BuildingBlock: AJUNOK_clean_linker_0, # of connection points: 2
#     Edge 20, Type (0, 0), BuildingBlock: AJUNOK_clean_linker_0, # of connection points: 2
#     Edge 21, Type (0, 0), BuildingBlock: AJUNOK_clean_linker_0, # of connection points: 2
#     Edge 22, Type (0, 0), BuildingBlock: AJUNOK_clean_linker_0, # of connection points: 2
#     Edge 23, Type (0, 0), BuildingBlock: AJUNOK_clean_linker_0, # of connection points: 2
#     Edge 24, Type (0, 0), BuildingBlock: AJUNOK_clean_linker_0, # of connection points: 2
#     Edge 25, Type (0, 0), BuildingBlock: AJUNOK_clean_linker_0, # of connection points: 2
#     Edge 26, Type (0, 0), BuildingBlock: AJUNOK_clean_linker_0, # of connection points: 2
#     Edge 27, Type (0, 0), BuildingBlock: AJUNOK_clean_linker_0, # of connection points: 2
#     Edge 28, Type (0, 0), BuildingBlock: AJUNOK_clean_linker_0, # of connection points: 2
#     Edge 29, Type (0, 0), BuildingBlock: AJUNOK_clean_linker_0, # of connection points: 2
#     Edge 30, Type (0, 0), BuildingBlock: AJUNOK_clean_linker_0, # of connection points: 2
#     Edge 31, Type (0, 0), BuildingBlock: AJUNOK_clean_linker_0, # of connection points: 2
#     Edge 32, Type (0, 0), BuildingBlock: AJUNOK_clean_linker_0, # of connection points: 2
#     Edge 33, Type (0, 0), BuildingBlock: AJUNOK_clean_linker_0, # of connection points: 2
#     Edge 34, Type (0, 0), BuildingBlock: AJUNOK_clean_linker_0, # of connection points: 2
#     Edge 35, Type (0, 0), BuildingBlock: AJUNOK_clean_linker_0, # of connection points: 2
#     Edge 36, Type (0, 0), BuildingBlock: AJUNOK_clean_linker_0, # of connection points: 2
#     Edge 37, Type (0, 0), BuildingBlock: AJUNOK_clean_linker_0, # of connection points: 2
#     Edge 38, Type (0, 0), BuildingBlock: AJUNOK_clean_linker_0, # of connection points: 2
#     Edge 39, Type (0, 0), BuildingBlock: AJUNOK_clean_linker_0, # of connection points: 2
#     Edge 40, Type (0, 0), BuildingBlock: AJUNOK_clean_linker_0, # of connection points: 2
#     Edge 41, Type (0, 0), BuildingBlock: AJUNOK_clean_linker_0, # of connection points: 2
#     Edge 42, Type (0, 0), BuildingBlock: AJUNOK_clean_linker_0, # of connection points: 2
#     Edge 43, Type (0, 0), BuildingBlock: AJUNOK_clean_linker_0, # of connection points: 2
#     Edge 44, Type (0, 0), BuildingBlock: AJUNOK_clean_linker_0, # of connection points: 2
#     Edge 45, Type (0, 0), BuildingBlock: AJUNOK_clean_linker_0, # of connection points: 2
#     Edge 46, Type (0, 0), BuildingBlock: AJUNOK_clean_linker_0, # of connection points: 2
#     Edge 47, Type (0, 0), BuildingBlock: AJUNOK_clean_linker_0, # of connection points: 2
# Relax obj value: 0.117
# Max RMSD: 0.119
# Mean RMSD: 0.119
data_MOF--net-tzs--node1-QUQFOY_clean_sbu_3--edge1-AJUNOK_clean_linker_0
_symmetry_space_group_name_H-M    P1
_symmetry_Int_Tables_number       1
_symmetry_cell_setting            triclinic
loop_
_symmetry_equiv_pos_as_xyz
'x, y, z'
_cell_length_a     38.256051
_cell_length_b     38.351864
_cell_length_c     31.114455
_cell_angle_alpha  90.093034
_cell_angle_beta   90.132183
_cell_angle_gamma 89.864824
loop_
_atom_site_label
_atom_site_type_symbol
_atom_site_fract_x
_atom_site_fract_y
_atom_site_fract_z
_atom_type_partial_charge
C0 C 0.03883 0.31977 0.16977 0.0
O1 O 0.03228 0.3347 0.1343 0.0
Cd2 Cd 0.07554 0.36033 0.09185 0.0
O3 O 0.07027 0.31569 0.18292 0.0
Cd4 Cd 0.13035 0.32518 0.15271 0.0
C5 C 0.11642 0.41094 0.16927 0.0
O6 O 0.11138 0.30988 0.08222 0.0
O7 O 0.16158 0.33453 0.0834 0.0
O8 O 0.14739 0.26768 0.1799 0.0
C9 C 0.13897 0.31736 0.06238 0.0
O10 O 0.09475 0.40875 0.13828 0.0
C11 C 0.17794 0.27701 0.19099 0.0
O12 O 0.13376 0.38441 0.18137 0.0
O13 O 0.18527 0.30903 0.18646 0.0
C14 C 0.63208 0.04148 0.17092 0.0
O15 O 0.61362 0.03712 0.1374 0.0
Cd16 Cd 0.5903 0.08255 0.09523 0.0
O17 O 0.63995 0.07202 0.18423 0.0
Cd18 Cd 0.63008 0.13254 0.15723 0.0
C19 C 0.5432 0.12248 0.17503 0.0
O20 O 0.64298 0.1149 0.08555 0.0
O21 O 0.61943 0.16559 0.08932 0.0
O22 O 0.68801 0.14971 0.1837 0.0
C23 C 0.63607 0.1433 0.06718 0.0
O24 O 0.54219 0.10576 0.13966 0.0
C25 C 0.67814 0.17977 0.19597 0.0
O26 O 0.57209 0.1339 0.18948 0.0
O27 O 0.64581 0.18658 0.19239 0.0
C28 C 0.92295 0.63278 0.16429 0.0
O29 O 0.92656 0.61411 0.13085 0.0
Cd30 Cd 0.87981 0.59285 0.0887 0.0
O31 O 0.89265 0.64152 0.17771 0.0
Cd32 Cd 0.8314 0.63344 0.15261 0.0
C33 C 0.83832 0.54589 0.16714 0.0
O34 O 0.84799 0.64614 0.08046 0.0
O35 O 0.79604 0.62583 0.08578 0.0
O36 O 0.81769 0.69172 0.18023 0.0
C37 C 0.81893 0.64056 0.06272 0.0
O38 O 0.85488 0.54515 0.1317 0.0
C39 C 0.78754 0.68348 0.19379 0.0
O40 O 0.82839 0.57479 0.18312 0.0
O41 O 0.77891 0.65168 0.19014 0.0
C42 C 0.32833 0.91317 0.17192 0.0
O43 O 0.34595 0.91811 0.13795 0.0
Cd44 Cd 0.36735 0.87348 0.09285 0.0
O45 O 0.32031 0.88241 0.18406 0.0
Cd46 Cd 0.32951 0.82236 0.15516 0.0
C47 C 0.41711 0.83149 0.16853 0.0
O48 O 0.31436 0.84131 0.08456 0.0
O49 O 0.33757 0.7904 0.086 0.0
O50 O 0.27256 0.80472 0.1836 0.0
C51 C 0.32056 0.8132 0.06509 0.0
O52 O 0.41687 0.8488 0.13365 0.0
C53 C 0.28278 0.77451 0.19476 0.0
O54 O 0.38869 0.82042 0.18453 0.0
O55 O 0.31497 0.76774 0.18964 0.0
C56 C 0.04363 0.63023 0.27265 0.0
O57 O 0.03648 0.61515 0.30782 0.0
Cd58 Cd 0.07919 0.58811 0.3506 0.0
O59 O 0.07528 0.63391 0.26046 0.0
Cd60 Cd 0.13512 0.62251 0.28993 0.0
C61 C 0.11872 0.53728 0.27231 0.0
O62 O 0.11686 0.63708 0.36111 0.0
O63 O 0.16748 0.61295 0.35827 0.0
O64 O 0.1519 0.68003 0.2633 0.0
C65 C 0.14485 0.62926 0.38025 0.0
O66 O 0.0972 0.53988 0.30329 0.0
C67 C 0.18221 0.67067 0.25135 0.0
O68 O 0.13684 0.56332 0.26061 0.0
O69 O 0.18964 0.63857 0.25526 0.0
C70 C 0.32751 0.0362 0.27622 0.0
O71 O 0.34584 0.03253 0.30997 0.0
Cd72 Cd 0.36686 0.0788 0.35276 0.0
O73 O 0.31896 0.06646 0.26256 0.0
Cd74 Cd 0.3275 0.12739 0.2889 0.0
C75 C 0.41518 0.11996 0.27551 0.0
O76 O 0.31316 0.11015 0.36029 0.0
O77 O 0.33532 0.16135 0.35677 0.0
O78 O 0.27 0.14399 0.26035 0.0
C79 C 0.31875 0.1389 0.37854 0.0
O80 O 0.41558 0.10353 0.31103 0.0
C81 C 0.27988 0.17392 0.24788 0.0
O82 O 0.38637 0.12989 0.25913 0.0
O83 O 0.31207 0.18087 0.25231 0.0
C84 C 0.91798 0.32815 0.27606 0.0
O85 O 0.92284 0.34814 0.30809 0.0
Cd86 Cd 0.87744 0.37306 0.34957 0.0
O87 O 0.88712 0.32003 0.26404 0.0
Cd88 Cd 0.82662 0.3323 0.28906 0.0
C89 C 0.83708 0.41887 0.26909 0.0
O90 O 0.84376 0.32159 0.36174 0.0
O91 O 0.79223 0.3433 0.35546 0.0
O92 O 0.81 0.27391 0.26427 0.0
C93 C 0.81481 0.32842 0.37905 0.0
O94 O 0.85395 0.42038 0.30437 0.0
C95 C 0.78001 0.28328 0.25094 0.0
O96 O 0.82567 0.38983 0.25525 0.0
O97 O 0.77295 0.31556 0.25323 0.0
C98 C 0.63045 0.9188 0.27469 0.0
O99 O 0.61107 0.92318 0.30735 0.0
Cd100 Cd 0.58889 0.87738 0.34995 0.0
O101 O 0.63994 0.88831 0.26294 0.0
Cd102 Cd 0.63201 0.82776 0.28978 0.0
C103 C 0.54485 0.83408 0.26996 0.0
O104 O 0.64225 0.8464 0.36193 0.0
O105 O 0.62286 0.79407 0.35713 0.0
O106 O 0.69129 0.81476 0.26496 0.0
C107 C 0.63666 0.81766 0.38013 0.0
O108 O 0.54275 0.8513 0.30489 0.0
C109 C 0.68398 0.78424 0.25196 0.0
O110 O 0.57436 0.82366 0.25622 0.0
O111 O 0.65225 0.77493 0.2548 0.0
C112 C 0.83127 0.5422 0.77594 0.0
O113 O 0.85063 0.53844 0.80881 0.0
Cd114 Cd 0.87266 0.58507 0.85028 0.0
O115 O 0.82219 0.57247 0.76292 0.0
Cd116 Cd 0.8305 0.63346 0.7885 0.0
C117 C 0.91771 0.62646 0.77014 0.0
O118 O 0.81867 0.61557 0.8602 0.0
O119 O 0.83857 0.66772 0.85604 0.0
O120 O 0.77172 0.64663 0.76191 0.0
C121 C 0.82345 0.64455 0.87826 0.0
O122 O 0.9195 0.60972 0.80539 0.0
C123 C 0.77941 0.67706 0.74907 0.0
O124 O 0.88834 0.63691 0.75593 0.0
O125 O 0.81115 0.68615 0.75266 0.0
C126 C 0.41898 0.83133 0.77772 0.0
O127 O 0.42238 0.8506 0.81067 0.0
Cd128 Cd 0.37542 0.87186 0.8523 0.0
O129 O 0.38885 0.82157 0.76474 0.0
Cd130 Cd 0.32765 0.82838 0.79067 0.0
C131 C 0.33276 0.91542 0.77157 0.0
O132 O 0.34583 0.81776 0.86283 0.0
O133 O 0.29299 0.83622 0.85771 0.0
O134 O 0.31522 0.7693 0.76489 0.0
C135 C 0.31667 0.82238 0.88065 0.0
O136 O 0.34952 0.91777 0.80685 0.0
C137 C 0.28468 0.7767 0.75162 0.0
O138 O 0.3229 0.88585 0.75767 0.0
O139 O 0.27527 0.80837 0.75458 0.0
C140 C 0.12521 0.41608 0.77254 0.0
O141 O 0.10683 0.42091 0.80597 0.0
Cd142 Cd 0.08468 0.37592 0.84989 0.0
O143 O 0.13358 0.38537 0.76038 0.0
Cd144 Cd 0.12426 0.32519 0.78756 0.0
C145 C 0.03679 0.33363 0.77253 0.0
O146 O 0.1371 0.34301 0.85949 0.0
O147 O 0.1155 0.29156 0.85487 0.0
O148 O 0.18229 0.30886 0.761 0.0
C149 C 0.1308 0.31437 0.87761 0.0
O150 O 0.03642 0.35084 0.80756 0.0
C151 C 0.17283 0.27887 0.74817 0.0
O152 O 0.06552 0.32291 0.75681 0.0
O153 O 0.1406 0.27171 0.7515 0.0
C154 C 0.53625 0.12898 0.77618 0.0
O155 O 0.53185 0.1106 0.80964 0.0
Cd156 Cd 0.5779 0.08997 0.85382 0.0
O157 O 0.56679 0.13829 0.76451 0.0
Cd158 Cd 0.62737 0.1315 0.79213 0.0
C159 C 0.62242 0.04401 0.77652 0.0
O160 O 0.60915 0.14314 0.86433 0.0
O161 O 0.66176 0.124 0.85925 0.0
O162 O 0.63992 0.1902 0.76577 0.0
C163 C 0.63824 0.13791 0.8823 0.0
O164 O 0.60497 0.04292 0.8113 0.0
C165 C 0.6703 0.18257 0.75229 0.0
O166 O 0.63223 0.07308 0.76115 0.0
O167 O 0.67969 0.15092 0.75563 0.0
C168 C 0.82563 0.41964 0.67105 0.0
O169 O 0.84357 0.42397 0.6372 0.0
Cd170 Cd 0.86367 0.37827 0.5928 0.0
O171 O 0.81604 0.38926 0.68285 0.0
Cd172 Cd 0.82166 0.32896 0.65392 0.0
C173 C 0.90912 0.33446 0.67109 0.0
O174 O 0.80938 0.3486 0.58289 0.0
O175 O 0.82943 0.29635 0.58528 0.0
O176 O 0.76313 0.31559 0.68085 0.0
C177 C 0.81444 0.32012 0.5637 0.0
O178 O 0.91075 0.35184 0.63631 0.0
C179 C 0.77109 0.28497 0.69296 0.0
O180 O 0.87981 0.32409 0.68526 0.0
O181 O 0.8028 0.27585 0.68862 0.0
C182 C 0.54134 0.83215 0.67235 0.0
O183 O 0.53632 0.8505 0.63897 0.0
Cd184 Cd 0.58172 0.87199 0.59516 0.0
O185 O 0.57212 0.82313 0.68382 0.0
Cd186 Cd 0.63223 0.83048 0.65506 0.0
C187 C 0.62504 0.9174 0.67386 0.0
O188 O 0.61258 0.81846 0.58379 0.0
O189 O 0.66471 0.83896 0.58663 0.0
O190 O 0.64586 0.77185 0.68099 0.0
C191 C 0.64117 0.82368 0.56493 0.0
O192 O 0.60734 0.919 0.6392 0.0
C193 C 0.67667 0.77943 0.69298 0.0
O194 O 0.63621 0.88823 0.68759 0.0
O195 O 0.68584 0.81106 0.68916 0.0
C196 C 0.12975 0.53883 0.66845 0.0
O197 O 0.11172 0.53525 0.63444 0.0
Cd198 Cd 0.09196 0.58169 0.59129 0.0
O199 O 0.13889 0.56898 0.68184 0.0
Cd200 Cd 0.13275 0.62986 0.6546 0.0
C201 C 0.04505 0.62508 0.66865 0.0
O202 O 0.14653 0.61101 0.58377 0.0
O203 O 0.12561 0.66288 0.58589 0.0
O204 O 0.19108 0.64299 0.68284 0.0
C205 C 0.14152 0.63948 0.56469 0.0
O206 O 0.04426 0.60811 0.63346 0.0
C207 C 0.18319 0.67369 0.69476 0.0
O208 O 0.07406 0.63467 0.68471 0.0
O209 O 0.15154 0.6829 0.69001 0.0
C210 C 0.41432 0.12946 0.66921 0.0
O211 O 0.41896 0.11133 0.63553 0.0
Cd212 Cd 0.37394 0.08919 0.59133 0.0
O213 O 0.38363 0.13767 0.68185 0.0
Cd214 Cd 0.3233 0.12891 0.65348 0.0
C215 C 0.33158 0.04164 0.6685 0.0
O216 O 0.34136 0.14171 0.5817 0.0
O217 O 0.28991 0.11993 0.58567 0.0
O218 O 0.30632 0.1867 0.68012 0.0
C219 C 0.31279 0.13527 0.5632 0.0
O220 O 0.34886 0.04108 0.63358 0.0
C221 C 0.27624 0.17697 0.69243 0.0
O222 O 0.32082 0.0704 0.68402 0.0
O223 O 0.26939 0.14475 0.68885 0.0
C224 C 0.2192 0.19165 0.22674 0.0
C225 C 0.2547 0.20032 0.2318 0.0
C226 C 0.19452 0.21667 0.21398 0.0
C227 C 0.20431 0.25142 0.20609 0.0
H228 H 0.21028 0.16534 0.23288 0.0
H229 H 0.16755 0.20865 0.21038 0.0
S230 S 0.29408 0.28762 0.21424 0.0
N231 N 0.29846 0.24619 0.22743 0.0
N232 N 0.25214 0.29314 0.20379 0.0
C233 C 0.23975 0.26046 0.21094 0.0
C234 C 0.26491 0.23494 0.22363 0.0
C235 C 0.76337 0.22245 0.23003 0.0
C236 C 0.75379 0.25757 0.23597 0.0
C237 C 0.73869 0.19737 0.21765 0.0
C238 C 0.70339 0.20638 0.21111 0.0
H239 H 0.79017 0.21417 0.23495 0.0
H240 H 0.74741 0.17073 0.21313 0.0
S241 S 0.66466 0.29482 0.22287 0.0
N242 N 0.70641 0.30006 0.23451 0.0
N243 N 0.6601 0.25303 0.21162 0.0
C244 C 0.69341 0.24141 0.21717 0.0
C245 C 0.71858 0.26697 0.22942 0.0
C246 C 0.72751 0.70003 0.21726 0.0
C247 C 0.76244 0.70979 0.21014 0.0
C248 C 0.7024 0.72445 0.23006 0.0
C249 C 0.71116 0.75966 0.23661 0.0
H250 H 0.71923 0.67332 0.21241 0.0
H251 H 0.67591 0.71545 0.23512 0.0
S252 S 0.79912 0.79877 0.22295 0.0
N253 N 0.80464 0.75719 0.21085 0.0
N254 N 0.7574 0.80313 0.23534 0.0
C255 C 0.74606 0.76985 0.22995 0.0
C256 C 0.77169 0.74492 0.21663 0.0
C257 C 0.22265 0.7565 0.21694 0.0
C258 C 0.25798 0.74776 0.21037 0.0
C259 C 0.19828 0.73133 0.22963 0.0
C260 C 0.20822 0.69635 0.23598 0.0
H261 H 0.21362 0.783 0.21215 0.0
H262 H 0.17144 0.73944 0.23451 0.0
S263 S 0.29759 0.6598 0.22307 0.0
N264 N 0.30171 0.70151 0.21131 0.0
N265 N 0.25595 0.65428 0.23489 0.0
C266 C 0.24346 0.6872 0.22946 0.0
C267 C 0.26832 0.71288 0.2168 0.0
C268 C 0.73699 0.76169 0.7141 0.0
C269 C 0.70172 0.7526 0.7081 0.0
C270 C 0.76187 0.73688 0.72639 0.0
C271 C 0.75254 0.70191 0.7335 0.0
H272 H 0.74568 0.78822 0.70895 0.0
H273 H 0.78862 0.7454 0.73078 0.0
S274 S 0.66358 0.66442 0.7222 0.0
N275 N 0.65863 0.70602 0.71003 0.0
N276 N 0.70546 0.65932 0.73353 0.0
C277 C 0.71735 0.69234 0.72764 0.0
C278 C 0.69194 0.71768 0.71488 0.0
C279 C 0.20031 0.73384 0.71636 0.0
C280 C 0.20976 0.69869 0.7105 0.0
C281 C 0.22491 0.75879 0.72878 0.0
C282 C 0.26005 0.74967 0.73619 0.0
H283 H 0.17366 0.7424 0.71089 0.0
H284 H 0.2161 0.78544 0.73296 0.0
S285 S 0.29846 0.66108 0.72562 0.0
N286 N 0.25684 0.65593 0.71306 0.0
N287 N 0.30315 0.7029 0.73687 0.0
C288 C 0.26997 0.71459 0.73063 0.0
C289 C 0.24483 0.6891 0.7177 0.0
C290 C 0.23367 0.26207 0.72692 0.0
C291 C 0.19846 0.25269 0.73275 0.0
C292 C 0.25874 0.23736 0.7144 0.0
C293 C 0.24963 0.20225 0.70761 0.0
H294 H 0.24204 0.28871 0.73211 0.0
H295 H 0.28546 0.24591 0.71004 0.0
S296 S 0.16089 0.16414 0.71861 0.0
N297 N 0.15575 0.20574 0.73064 0.0
N298 N 0.20277 0.15938 0.70749 0.0
C299 C 0.2145 0.19249 0.71343 0.0
C300 C 0.18895 0.21768 0.72583 0.0
C301 C 0.72981 0.20021 0.72852 0.0
C302 C 0.69474 0.20937 0.73608 0.0
C303 C 0.75423 0.22501 0.71537 0.0
C304 C 0.74463 0.26004 0.70891 0.0
H305 H 0.73872 0.17365 0.73318 0.0
H306 H 0.78086 0.21644 0.70991 0.0
S307 S 0.65597 0.29767 0.72391 0.0
N308 N 0.65149 0.25603 0.73606 0.0
N309 N 0.69747 0.30272 0.71093 0.0
C310 C 0.7096 0.26966 0.71616 0.0
C311 C 0.68466 0.24433 0.72981 0.0
C312 C 0.15823 0.33467 0.94559 0.0
C313 C 0.1361 0.31089 0.92434 0.0
C314 C 0.1607 0.33535 -0.00958 0.0
C315 C 0.14077 0.31252 0.01551 0.0
H316 H 0.17305 0.35369 0.92752 0.0
H317 H 0.17696 0.35499 0.00544 0.0
S318 S 0.08226 0.2424 -0.02438 0.0
N319 N 0.09657 0.26171 0.93167 0.0
N320 N 0.10088 0.26315 0.01615 0.0
C321 C 0.12011 0.28725 -0.00532 0.0
C322 C 0.11787 0.28634 0.94899 0.0
C323 C 0.61719 0.16374 0.95092 0.0
C324 C 0.64181 0.14284 0.92912 0.0
C325 C 0.61676 0.16564 -0.00418 0.0
C326 C 0.64065 0.14631 0.0204 0.0
H327 H 0.59736 0.17796 0.9332 0.0
H328 H 0.59646 0.18084 0.0113 0.0
S329 S 0.71305 0.09114 -0.02089 0.0
N330 N 0.69283 0.10524 0.93552 0.0
N331 N 0.69176 0.10842 0.02006 0.0
C332 C 0.66668 0.12695 -0.00094 0.0
C333 C 0.66737 0.12534 0.95332 0.0
C334 C 0.83974 0.66909 0.94965 0.0
C335 C 0.81773 0.64793 0.9248 0.0
C336 C 0.83867 0.66764 -0.00546 0.0
C337 C 0.81524 0.64538 0.01598 0.0
H338 H 0.85923 0.68538 0.93447 0.0
H339 H 0.85722 0.68321 0.01255 0.0
S340 S 0.74854 0.58875 0.96509 0.0
N341 N 0.76927 0.60691 0.92441 0.0
N342 N 0.76701 0.60459 0.00896 0.0
C343 C 0.79128 0.6261 -0.00853 0.0
C344 C 0.79265 0.62725 0.94575 0.0
C345 C 0.33824 0.79165 -0.00719 0.0
C346 C 0.3152 0.81118 0.01831 0.0
C347 C 0.33739 0.79446 0.94803 0.0
C348 C 0.31317 0.81649 0.92723 0.0
H349 H 0.35828 0.77558 0.00751 0.0
H350 H 0.35663 0.78006 0.92962 0.0
S351 S 0.24397 0.86916 -0.02035 0.0
N352 N 0.26517 0.85048 0.0198 0.0
N353 N 0.26333 0.85536 0.93537 0.0
C354 C 0.28835 0.83419 0.95225 0.0
C355 C 0.28947 0.83165 -0.00208 0.0
C356 C 0.12382 0.66097 0.49235 0.0
C357 C 0.14673 0.64134 0.51795 0.0
C358 C 0.12441 0.65776 0.44757 0.0
C359 C 0.14817 0.63516 0.42692 0.0
H360 H 0.10411 0.67741 0.50698 0.0
H361 H 0.10528 0.67236 0.42906 0.0
S362 S 0.21694 0.58203 0.47974 0.0
N363 N 0.19619 0.60135 0.51973 0.0
N364 N 0.19754 0.59568 0.43539 0.0
C365 C 0.17283 0.61732 0.45209 0.0
C366 C 0.17203 0.6203 0.49769 0.0
C367 C 0.33379 0.16157 0.49504 0.0
C368 C 0.30973 0.13984 0.51629 0.0
C369 C 0.33519 0.16297 0.45016 0.0
C370 C 0.31284 0.14233 0.42506 0.0
H371 H 0.35255 0.1768 0.5132 0.0
H372 H 0.35512 0.17884 0.43517 0.0
S373 S 0.24206 0.08474 0.46468 0.0
N374 N 0.26063 0.10013 0.50873 0.0
N375 N 0.26348 0.10242 0.42421 0.0
C376 C 0.2872 0.1222 0.44579 0.0
C377 C 0.28554 0.12106 0.4915 0.0
C378 C 0.83296 0.30014 0.44733 0.0
C379 C 0.81034 0.32325 0.42563 0.0
C380 C 0.8327 0.29751 0.49214 0.0
C381 C 0.81013 0.31829 0.51676 0.0
H382 H 0.85179 0.28463 0.42964 0.0
H383 H 0.85153 0.28048 0.50759 0.0
S384 S 0.74292 0.37974 0.47549 0.0
N385 N 0.76246 0.36472 0.43194 0.0
N386 N 0.76225 0.36018 0.51642 0.0
C387 C 0.786 0.34001 0.49543 0.0
C388 C 0.78599 0.34237 0.44974 0.0
C389 C 0.6649 0.83979 0.49323 0.0
C390 C 0.64379 0.81802 0.51827 0.0
C391 C 0.66335 0.83836 0.44835 0.0
C392 C 0.64105 0.81475 0.42704 0.0
H393 H 0.68138 0.85926 0.50827 0.0
H394 H 0.67902 0.85663 0.43021 0.0
S395 S 0.58411 0.7489 0.4784 0.0
N396 N 0.60245 0.76987 0.51896 0.0
N397 N 0.59996 0.76689 0.43441 0.0
C398 C 0.62162 0.79121 0.45175 0.0
C399 C 0.62285 0.79296 0.49747 0.0
C400 C 0.0877 0.48997 0.23314 0.0
C401 C 0.11944 0.50489 0.24656 0.0
C402 C 0.08715 0.46015 0.20705 0.0
C403 C 0.11831 0.44355 0.19451 0.0
H404 H 0.06305 0.50181 0.24225 0.0
H405 H 0.06209 0.44956 0.1974 0.0
S406 S 0.20825 0.47194 0.22163 0.0
N407 N 0.18282 0.50125 0.24494 0.0
N408 N 0.18177 0.44396 0.19767 0.0
C409 C 0.15024 0.4579 0.20814 0.0
C410 C 0.15082 0.48896 0.23365 0.0
C411 C 0.47794 0.1251 0.18133 0.0
C412 C 0.51097 0.12585 0.20126 0.0
C413 C 0.44709 0.12486 0.20566 0.0
C414 C 0.44806 0.12453 0.25092 0.0
H415 H 0.47587 0.12416 0.14662 0.0
H416 H 0.42233 0.12349 0.18879 0.0
S417 S 0.52776 0.12787 0.3189 0.0
N418 N 0.54269 0.1279 0.26915 0.0
N419 N 0.48475 0.12658 0.31471 0.0
C420 C 0.48085 0.12615 0.27128 0.0
C421 C 0.51227 0.12708 0.24652 0.0
C422 C 0.83372 0.51453 0.23738 0.0
C423 C 0.83381 0.51327 0.19214 0.0
C424 C 0.83387 0.48391 0.26203 0.0
C425 C 0.83328 0.45081 0.24248 0.0
H426 H 0.83504 0.53935 0.25396 0.0
H427 H 0.835 0.48621 0.29672 0.0
S428 S 0.8306 0.43326 0.12507 0.0
N429 N 0.8316 0.4762 0.12877 0.0
N430 N 0.831 0.4187 0.17498 0.0
C431 C 0.83174 0.4492 0.19726 0.0
C432 C 0.83228 0.48039 0.17215 0.0
C433 C 0.47992 0.82784 0.26306 0.0
C434 C 0.51297 0.82898 0.2434 0.0
C435 C 0.44914 0.82679 0.23848 0.0
C436 C 0.45015 0.82769 0.19324 0.0
H437 H 0.47776 0.82839 0.29776 0.0
H438 H 0.42432 0.82685 0.25517 0.0
S439 S 0.53004 0.82897 0.12593 0.0
N440 N 0.54488 0.82914 0.17581 0.0
N441 N 0.48701 0.82808 0.12975 0.0
C442 C 0.48302 0.82783 0.17314 0.0
C443 C 0.51441 0.82819 0.19816 0.0
C444 C 0.81969 0.51363 0.70562 0.0
C445 C 0.8222 0.5111 0.75052 0.0
C446 C 0.81848 0.48364 0.68007 0.0
C447 C 0.81914 0.4502 0.69862 0.0
H448 H 0.82102 0.53879 0.68992 0.0
H449 H 0.81865 0.48667 0.64545 0.0
S450 S 0.81968 0.42989 0.81509 0.0
N451 N 0.82102 0.47288 0.81285 0.0
N452 N 0.8183 0.4164 0.7647 0.0
C453 C 0.81851 0.44741 0.7436 0.0
C454 C 0.82023 0.47794 0.76962 0.0
C455 C 0.47746 0.823 0.68124 0.0
C456 C 0.51105 0.82417 0.69973 0.0
C457 C 0.44752 0.82241 0.7069 0.0
C458 C 0.45023 0.82361 0.75188 0.0
H459 H 0.47421 0.82412 0.64666 0.0
H460 H 0.42217 0.82347 0.69135 0.0
S461 S 0.53205 0.82178 0.8161 0.0
N462 N 0.54532 0.82237 0.76565 0.0
N463 N 0.48891 0.8218 0.81401 0.0
C464 C 0.48363 0.82214 0.77079 0.0
C465 C 0.51413 0.82223 0.74465 0.0
C466 C 0.13391 0.48004 0.76488 0.0
C467 C 0.13412 0.44662 0.74605 0.0
C468 C 0.13545 0.5101 0.73961 0.0
C469 C 0.13673 0.50769 0.69464 0.0
H470 H 0.13091 0.48307 0.79931 0.0
H471 H 0.13317 0.53527 0.75524 0.0
S472 S 0.14359 0.42663 0.62997 0.0
N473 N 0.14028 0.41298 0.68009 0.0
N474 N 0.14272 0.46963 0.63248 0.0
C475 C 0.13978 0.47455 0.67561 0.0
C476 C 0.13866 0.44392 0.70137 0.0
C477 C 0.44202 0.13602 0.74104 0.0
C478 C 0.44493 0.13747 0.69613 0.0
C479 C 0.47188 0.1354 0.76703 0.0
C480 C 0.50558 0.13675 0.74899 0.0
H481 H 0.4167 0.1329 0.75607 0.0
H482 H 0.46855 0.13225 0.80138 0.0
S483 S 0.52665 0.14694 0.63335 0.0
N484 N 0.48358 0.14469 0.63487 0.0
N485 N 0.53984 0.14404 0.68379 0.0
C486 C 0.50865 0.14141 0.70436 0.0
C487 C 0.47824 0.14158 0.67788 0.0
C488 C 0.6284 0.01295 0.70611 0.0
C489 C 0.62791 0.01156 0.75134 0.0
C490 C 0.62865 -0.01761 0.68122 0.0
C491 C 0.62928 0.94926 0.70056 0.0
H492 H 0.6269 0.03781 0.68971 0.0
H493 H 0.62759 -0.01525 0.64655 0.0
S494 S 0.6313 0.93144 0.81786 0.0
N495 N 0.63003 0.97439 0.81445 0.0
N496 N 0.6314 0.917 0.76784 0.0
C497 C 0.63063 0.94755 0.74577 0.0
C498 C 0.62967 0.97866 0.7711 0.0
C499 C -0.01714 0.63034 0.76334 0.0
C500 C 0.94969 0.63078 0.74369 0.0
C501 C 0.01357 0.63043 0.73877 0.0
C502 C 0.01235 0.63015 0.69352 0.0
H503 H -0.01487 0.62921 0.79803 0.0
H504 H 0.03843 0.62908 0.75542 0.0
S505 S 0.93225 0.63332 0.62622 0.0
N506 N 0.91759 0.63302 0.67609 0.0
N507 N 0.9753 0.63232 0.63006 0.0
C508 C 0.97943 0.63173 0.67345 0.0
C509 C 0.94814 0.63232 0.69847 0.0
C510 C 0.32654 0.01067 0.73891 0.0
C511 C 0.32732 0.0091 0.69369 0.0
C512 C 0.3272 -0.01977 0.76388 0.0
C513 C 0.32784 0.94702 0.74465 0.0
H514 H 0.32702 0.03562 0.75526 0.0
H515 H 0.32791 -0.01721 0.79855 0.0
S516 S 0.32708 0.92865 0.62737 0.0
N517 N 0.32687 0.97162 0.63067 0.0
N518 N 0.32723 0.91442 0.67743 0.0
C519 C 0.32685 0.94507 0.69942 0.0
C520 C 0.32686 0.97609 0.67401 0.0
C521 C 0.00504 0.32878 0.70237 0.0
C522 C 0.00397 0.32929 0.74762 0.0
C523 C 0.97424 0.32936 0.67777 0.0
C524 C 0.94117 0.32962 0.69744 0.0
H525 H 0.02988 0.32954 0.68574 0.0
H526 H 0.97638 0.33029 0.64308 0.0
S527 S 0.92407 0.32823 0.81492 0.0
N528 N 0.96711 0.32829 0.81109 0.0
N529 N 0.90926 0.3285 0.76504 0.0
C530 C 0.93974 0.3284 0.74267 0.0
C531 C 0.97111 0.3285 0.76769 0.0
C532 C 0.31891 0.00723 0.20548 0.0
C533 C 0.31951 0.00495 0.25049 0.0
C534 C 0.31943 0.9771 0.18014 0.0
C535 C 0.32006 0.94371 0.19894 0.0
H536 H 0.32052 0.03233 0.1897 0.0
H537 H 0.32104 -0.01996 0.14557 0.0
S538 S 0.3153 0.92399 0.31542 0.0
N539 N 0.31601 0.96699 0.3129 0.0
N540 N 0.31662 0.91023 0.26514 0.0
C541 C 0.31732 0.94113 0.24382 0.0
C542 C 0.31721 0.97183 0.26966 0.0
C543 C -0.01757 0.32106 0.26817 0.0
C544 C 0.94867 0.31723 0.25056 0.0
C545 C 0.01222 0.3183 0.24241 0.0
C546 C 0.00917 0.31198 0.19815 0.0
H547 H -0.01414 0.32817 0.30162 0.0
H548 H 0.03746 0.32397 0.25663 0.0
S549 S 0.92761 0.29288 0.13797 0.0
N550 N 0.91447 0.30129 0.18742 0.0
N551 N 0.97061 0.29646 0.13896 0.0
C552 C 0.97595 0.30466 0.18099 0.0
C553 C 0.94561 0.30715 0.20726 0.0
C554 C 0.63812 -0.01709 0.2673 0.0
C555 C 0.63914 0.94953 0.24842 0.0
C556 C 0.63906 0.01303 0.24205 0.0
C557 C 0.64052 0.01067 0.19708 0.0
H558 H 0.63483 -0.01417 0.3017 0.0
H559 H 0.636 0.03812 0.25768 0.0
S560 S 0.64949 0.92983 0.13239 0.0
N561 N 0.64636 0.91608 0.18249 0.0
N562 N 0.64764 0.97281 0.13493 0.0
C563 C 0.64451 0.97763 0.17805 0.0
C564 C 0.644 0.94696 0.20379 0.0
C565 C -0.01941 0.6433 0.2615 0.0
C566 C 0.01433 0.63971 0.24403 0.0
C567 C 0.95101 0.64401 0.23508 0.0
C568 C 0.95417 0.64074 0.19032 0.0
H569 H 0.97681 0.64365 0.296 0.0
H570 H 0.9255 0.64457 0.25011 0.0
S571 S 0.03679 0.63758 0.12814 0.0
N572 N 0.04942 0.6381 0.17891 0.0
N573 N -0.00633 0.63922 0.12914 0.0
C574 C -0.01216 0.64047 0.1722 0.0
C575 C 0.01801 0.64008 0.19911 0.0
loop_
_geom_bond_atom_site_label_1
_geom_bond_atom_site_label_2
_geom_bond_distance
_geom_bond_site_symmetry_2
_ccdc_geom_bond_type
C0 O1 1.306 . S
C0 O3 1.160 . S
O1 C0 1.306 . S
O1 Cd2 2.228 . S
Cd2 O1 2.228 . S
Cd2 O6 2.273 . S
Cd2 O10 2.277 . S
O3 C0 1.160 . S
O3 Cd4 2.203 . S
Cd4 O3 2.203 . S
Cd4 O6 2.411 . S
Cd4 O7 2.333 . S
Cd4 O8 2.352 . S
Cd4 O12 2.277 . S
Cd4 O13 2.356 . S
C5 O10 1.209 . S
C5 O12 1.226 . S
O6 Cd2 2.273 . S
O6 Cd4 2.411 . S
O6 C9 1.320 . S
O7 Cd4 2.333 . S
O7 C9 1.214 . S
O8 Cd4 2.352 . S
O8 C11 1.258 . S
C9 O6 1.320 . S
C9 O7 1.214 . S
O10 Cd2 2.277 . S
O10 C5 1.209 . S
C11 O8 1.258 . S
C11 O13 1.282 . S
O12 Cd4 2.277 . S
O12 C5 1.226 . S
O13 Cd4 2.356 . S
O13 C11 1.282 . S
C14 O15 1.306 . S
C14 O17 1.160 . S
O15 C14 1.306 . S
O15 Cd16 2.228 . S
Cd16 O15 2.228 . S
Cd16 O20 2.273 . S
Cd16 O24 2.277 . S
O17 C14 1.160 . S
O17 Cd18 2.203 . S
Cd18 O17 2.203 . S
Cd18 O20 2.411 . S
Cd18 O21 2.333 . S
Cd18 O22 2.352 . S
Cd18 O26 2.277 . S
Cd18 O27 2.356 . S
C19 O24 1.209 . S
C19 O26 1.226 . S
O20 Cd16 2.273 . S
O20 Cd18 2.411 . S
O20 C23 1.320 . S
O21 Cd18 2.333 . S
O21 C23 1.214 . S
O22 Cd18 2.352 . S
O22 C25 1.258 . S
C23 O20 1.320 . S
C23 O21 1.214 . S
O24 Cd16 2.277 . S
O24 C19 1.209 . S
C25 O22 1.258 . S
C25 O27 1.282 . S
O26 Cd18 2.277 . S
O26 C19 1.226 . S
O27 Cd18 2.356 . S
O27 C25 1.282 . S
C28 O29 1.306 . S
C28 O31 1.160 . S
O29 C28 1.306 . S
O29 Cd30 2.228 . S
Cd30 O29 2.228 . S
Cd30 O34 2.273 . S
Cd30 O38 2.277 . S
O31 C28 1.160 . S
O31 Cd32 2.203 . S
Cd32 O31 2.203 . S
Cd32 O34 2.411 . S
Cd32 O35 2.333 . S
Cd32 O36 2.352 . S
Cd32 O40 2.277 . S
Cd32 O41 2.356 . S
C33 O38 1.209 . S
C33 O40 1.226 . S
O34 Cd30 2.273 . S
O34 Cd32 2.411 . S
O34 C37 1.320 . S
O35 Cd32 2.333 . S
O35 C37 1.214 . S
O36 Cd32 2.352 . S
O36 C39 1.258 . S
C37 O34 1.320 . S
C37 O35 1.214 . S
O38 Cd30 2.277 . S
O38 C33 1.209 . S
C39 O36 1.258 . S
C39 O41 1.282 . S
O40 Cd32 2.277 . S
O40 C33 1.226 . S
O41 Cd32 2.356 . S
O41 C39 1.282 . S
C42 O43 1.306 . S
C42 O45 1.160 . S
O43 C42 1.306 . S
O43 Cd44 2.228 . S
Cd44 O43 2.228 . S
Cd44 O48 2.273 . S
Cd44 O52 2.277 . S
O45 C42 1.160 . S
O45 Cd46 2.203 . S
Cd46 O45 2.203 . S
Cd46 O48 2.411 . S
Cd46 O49 2.333 . S
Cd46 O50 2.352 . S
Cd46 O54 2.277 . S
Cd46 O55 2.356 . S
C47 O52 1.209 . S
C47 O54 1.226 . S
O48 Cd44 2.273 . S
O48 Cd46 2.411 . S
O48 C51 1.320 . S
O49 Cd46 2.333 . S
O49 C51 1.214 . S
O50 Cd46 2.352 . S
O50 C53 1.258 . S
C51 O48 1.320 . S
C51 O49 1.214 . S
O52 Cd44 2.277 . S
O52 C47 1.209 . S
C53 O50 1.258 . S
C53 O55 1.282 . S
O54 Cd46 2.277 . S
O54 C47 1.226 . S
O55 Cd46 2.356 . S
O55 C53 1.282 . S
C56 O57 1.306 . S
C56 O59 1.160 . S
O57 C56 1.306 . S
O57 Cd58 2.228 . S
Cd58 O57 2.228 . S
Cd58 O62 2.273 . S
Cd58 O66 2.277 . S
O59 C56 1.160 . S
O59 Cd60 2.203 . S
Cd60 O59 2.203 . S
Cd60 O62 2.411 . S
Cd60 O63 2.333 . S
Cd60 O64 2.352 . S
Cd60 O68 2.277 . S
Cd60 O69 2.356 . S
C61 O66 1.209 . S
C61 O68 1.226 . S
O62 Cd58 2.273 . S
O62 Cd60 2.411 . S
O62 C65 1.320 . S
O63 Cd60 2.333 . S
O63 C65 1.214 . S
O64 Cd60 2.352 . S
O64 C67 1.258 . S
C65 O62 1.320 . S
C65 O63 1.214 . S
O66 Cd58 2.277 . S
O66 C61 1.209 . S
C67 O64 1.258 . S
C67 O69 1.282 . S
O68 Cd60 2.277 . S
O68 C61 1.226 . S
O69 Cd60 2.356 . S
O69 C67 1.282 . S
C70 O71 1.306 . S
C70 O73 1.160 . S
O71 C70 1.306 . S
O71 Cd72 2.228 . S
Cd72 O71 2.228 . S
Cd72 O76 2.273 . S
Cd72 O80 2.277 . S
O73 C70 1.160 . S
O73 Cd74 2.203 . S
Cd74 O73 2.203 . S
Cd74 O76 2.411 . S
Cd74 O77 2.333 . S
Cd74 O78 2.352 . S
Cd74 O82 2.277 . S
Cd74 O83 2.356 . S
C75 O80 1.209 . S
C75 O82 1.226 . S
O76 Cd72 2.273 . S
O76 Cd74 2.411 . S
O76 C79 1.320 . S
O77 Cd74 2.333 . S
O77 C79 1.214 . S
O78 Cd74 2.352 . S
O78 C81 1.258 . S
C79 O76 1.320 . S
C79 O77 1.214 . S
O80 Cd72 2.277 . S
O80 C75 1.209 . S
C81 O78 1.258 . S
C81 O83 1.282 . S
O82 Cd74 2.277 . S
O82 C75 1.226 . S
O83 Cd74 2.356 . S
O83 C81 1.282 . S
C84 O85 1.306 . S
C84 O87 1.160 . S
O85 C84 1.306 . S
O85 Cd86 2.228 . S
Cd86 O85 2.228 . S
Cd86 O90 2.273 . S
Cd86 O94 2.277 . S
O87 C84 1.160 . S
O87 Cd88 2.203 . S
Cd88 O87 2.203 . S
Cd88 O90 2.411 . S
Cd88 O91 2.333 . S
Cd88 O92 2.352 . S
Cd88 O96 2.277 . S
Cd88 O97 2.356 . S
C89 O94 1.209 . S
C89 O96 1.226 . S
O90 Cd86 2.273 . S
O90 Cd88 2.411 . S
O90 C93 1.320 . S
O91 Cd88 2.333 . S
O91 C93 1.214 . S
O92 Cd88 2.352 . S
O92 C95 1.258 . S
C93 O90 1.320 . S
C93 O91 1.214 . S
O94 Cd86 2.277 . S
O94 C89 1.209 . S
C95 O92 1.258 . S
C95 O97 1.282 . S
O96 Cd88 2.277 . S
O96 C89 1.226 . S
O97 Cd88 2.356 . S
O97 C95 1.282 . S
C98 O99 1.306 . S
C98 O101 1.160 . S
O99 C98 1.306 . S
O99 Cd100 2.228 . S
Cd100 O99 2.228 . S
Cd100 O104 2.273 . S
Cd100 O108 2.277 . S
O101 C98 1.160 . S
O101 Cd102 2.203 . S
Cd102 O101 2.203 . S
Cd102 O104 2.411 . S
Cd102 O105 2.333 . S
Cd102 O106 2.352 . S
Cd102 O110 2.277 . S
Cd102 O111 2.356 . S
C103 O108 1.209 . S
C103 O110 1.226 . S
O104 Cd100 2.273 . S
O104 Cd102 2.411 . S
O104 C107 1.320 . S
O105 Cd102 2.333 . S
O105 C107 1.214 . S
O106 Cd102 2.352 . S
O106 C109 1.258 . S
C107 O104 1.320 . S
C107 O105 1.214 . S
O108 Cd100 2.277 . S
O108 C103 1.209 . S
C109 O106 1.258 . S
C109 O111 1.282 . S
O110 Cd102 2.277 . S
O110 C103 1.226 . S
O111 Cd102 2.356 . S
O111 C109 1.282 . S
C112 O113 1.306 . S
C112 O115 1.160 . S
O113 C112 1.306 . S
O113 Cd114 2.228 . S
Cd114 O113 2.228 . S
Cd114 O118 2.273 . S
Cd114 O122 2.277 . S
O115 C112 1.160 . S
O115 Cd116 2.203 . S
Cd116 O115 2.203 . S
Cd116 O118 2.411 . S
Cd116 O119 2.333 . S
Cd116 O120 2.352 . S
Cd116 O124 2.277 . S
Cd116 O125 2.356 . S
C117 O122 1.209 . S
C117 O124 1.226 . S
O118 Cd114 2.273 . S
O118 Cd116 2.411 . S
O118 C121 1.320 . S
O119 Cd116 2.333 . S
O119 C121 1.214 . S
O120 Cd116 2.352 . S
O120 C123 1.258 . S
C121 O118 1.320 . S
C121 O119 1.214 . S
O122 Cd114 2.277 . S
O122 C117 1.209 . S
C123 O120 1.258 . S
C123 O125 1.282 . S
O124 Cd116 2.277 . S
O124 C117 1.226 . S
O125 Cd116 2.356 . S
O125 C123 1.282 . S
C126 O127 1.306 . S
C126 O129 1.160 . S
O127 C126 1.306 . S
O127 Cd128 2.228 . S
Cd128 O127 2.228 . S
Cd128 O132 2.273 . S
Cd128 O136 2.277 . S
O129 C126 1.160 . S
O129 Cd130 2.203 . S
Cd130 O129 2.203 . S
Cd130 O132 2.411 . S
Cd130 O133 2.333 . S
Cd130 O134 2.352 . S
Cd130 O138 2.277 . S
Cd130 O139 2.356 . S
C131 O136 1.209 . S
C131 O138 1.226 . S
O132 Cd128 2.273 . S
O132 Cd130 2.411 . S
O132 C135 1.320 . S
O133 Cd130 2.333 . S
O133 C135 1.214 . S
O134 Cd130 2.352 . S
O134 C137 1.258 . S
C135 O132 1.320 . S
C135 O133 1.214 . S
O136 Cd128 2.277 . S
O136 C131 1.209 . S
C137 O134 1.258 . S
C137 O139 1.282 . S
O138 Cd130 2.277 . S
O138 C131 1.226 . S
O139 Cd130 2.356 . S
O139 C137 1.282 . S
C140 O141 1.306 . S
C140 O143 1.160 . S
O141 C140 1.306 . S
O141 Cd142 2.228 . S
Cd142 O141 2.228 . S
Cd142 O146 2.273 . S
Cd142 O150 2.277 . S
O143 C140 1.160 . S
O143 Cd144 2.203 . S
Cd144 O143 2.203 . S
Cd144 O146 2.411 . S
Cd144 O147 2.333 . S
Cd144 O148 2.352 . S
Cd144 O152 2.277 . S
Cd144 O153 2.356 . S
C145 O150 1.209 . S
C145 O152 1.226 . S
O146 Cd142 2.273 . S
O146 Cd144 2.411 . S
O146 C149 1.320 . S
O147 Cd144 2.333 . S
O147 C149 1.214 . S
O148 Cd144 2.352 . S
O148 C151 1.258 . S
C149 O146 1.320 . S
C149 O147 1.214 . S
O150 Cd142 2.277 . S
O150 C145 1.209 . S
C151 O148 1.258 . S
C151 O153 1.282 . S
O152 Cd144 2.277 . S
O152 C145 1.226 . S
O153 Cd144 2.356 . S
O153 C151 1.282 . S
C154 O155 1.306 . S
C154 O157 1.160 . S
O155 C154 1.306 . S
O155 Cd156 2.228 . S
Cd156 O155 2.228 . S
Cd156 O160 2.273 . S
Cd156 O164 2.277 . S
O157 C154 1.160 . S
O157 Cd158 2.203 . S
Cd158 O157 2.203 . S
Cd158 O160 2.411 . S
Cd158 O161 2.333 . S
Cd158 O162 2.352 . S
Cd158 O166 2.277 . S
Cd158 O167 2.356 . S
C159 O164 1.209 . S
C159 O166 1.226 . S
O160 Cd156 2.273 . S
O160 Cd158 2.411 . S
O160 C163 1.320 . S
O161 Cd158 2.333 . S
O161 C163 1.214 . S
O162 Cd158 2.352 . S
O162 C165 1.258 . S
C163 O160 1.320 . S
C163 O161 1.214 . S
O164 Cd156 2.277 . S
O164 C159 1.209 . S
C165 O162 1.258 . S
C165 O167 1.282 . S
O166 Cd158 2.277 . S
O166 C159 1.226 . S
O167 Cd158 2.356 . S
O167 C165 1.282 . S
C168 O169 1.306 . S
C168 O171 1.160 . S
O169 C168 1.306 . S
O169 Cd170 2.228 . S
Cd170 O169 2.228 . S
Cd170 O174 2.273 . S
Cd170 O178 2.277 . S
O171 C168 1.160 . S
O171 Cd172 2.203 . S
Cd172 O171 2.203 . S
Cd172 O174 2.411 . S
Cd172 O175 2.333 . S
Cd172 O176 2.352 . S
Cd172 O180 2.277 . S
Cd172 O181 2.356 . S
C173 O178 1.209 . S
C173 O180 1.226 . S
O174 Cd170 2.273 . S
O174 Cd172 2.411 . S
O174 C177 1.320 . S
O175 Cd172 2.333 . S
O175 C177 1.214 . S
O176 Cd172 2.352 . S
O176 C179 1.258 . S
C177 O174 1.320 . S
C177 O175 1.214 . S
O178 Cd170 2.277 . S
O178 C173 1.209 . S
C179 O176 1.258 . S
C179 O181 1.282 . S
O180 Cd172 2.277 . S
O180 C173 1.226 . S
O181 Cd172 2.356 . S
O181 C179 1.282 . S
C182 O183 1.306 . S
C182 O185 1.160 . S
O183 C182 1.306 . S
O183 Cd184 2.228 . S
Cd184 O183 2.228 . S
Cd184 O188 2.273 . S
Cd184 O192 2.277 . S
O185 C182 1.160 . S
O185 Cd186 2.203 . S
Cd186 O185 2.203 . S
Cd186 O188 2.411 . S
Cd186 O189 2.333 . S
Cd186 O190 2.352 . S
Cd186 O194 2.277 . S
Cd186 O195 2.356 . S
C187 O192 1.209 . S
C187 O194 1.226 . S
O188 Cd184 2.273 . S
O188 Cd186 2.411 . S
O188 C191 1.320 . S
O189 Cd186 2.333 . S
O189 C191 1.214 . S
O190 Cd186 2.352 . S
O190 C193 1.258 . S
C191 O188 1.320 . S
C191 O189 1.214 . S
O192 Cd184 2.277 . S
O192 C187 1.209 . S
C193 O190 1.258 . S
C193 O195 1.282 . S
O194 Cd186 2.277 . S
O194 C187 1.226 . S
O195 Cd186 2.356 . S
O195 C193 1.282 . S
C196 O197 1.306 . S
C196 O199 1.160 . S
O197 C196 1.306 . S
O197 Cd198 2.228 . S
Cd198 O197 2.228 . S
Cd198 O202 2.273 . S
Cd198 O206 2.277 . S
O199 C196 1.160 . S
O199 Cd200 2.203 . S
Cd200 O199 2.203 . S
Cd200 O202 2.411 . S
Cd200 O203 2.333 . S
Cd200 O204 2.352 . S
Cd200 O208 2.277 . S
Cd200 O209 2.356 . S
C201 O206 1.209 . S
C201 O208 1.226 . S
O202 Cd198 2.273 . S
O202 Cd200 2.411 . S
O202 C205 1.320 . S
O203 Cd200 2.333 . S
O203 C205 1.214 . S
O204 Cd200 2.352 . S
O204 C207 1.258 . S
C205 O202 1.320 . S
C205 O203 1.214 . S
O206 Cd198 2.277 . S
O206 C201 1.209 . S
C207 O204 1.258 . S
C207 O209 1.282 . S
O208 Cd200 2.277 . S
O208 C201 1.226 . S
O209 Cd200 2.356 . S
O209 C207 1.282 . S
C210 O211 1.306 . S
C210 O213 1.160 . S
O211 C210 1.306 . S
O211 Cd212 2.228 . S
Cd212 O211 2.228 . S
Cd212 O216 2.273 . S
Cd212 O220 2.277 . S
O213 C210 1.160 . S
O213 Cd214 2.203 . S
Cd214 O213 2.203 . S
Cd214 O216 2.411 . S
Cd214 O217 2.333 . S
Cd214 O218 2.352 . S
Cd214 O222 2.277 . S
Cd214 O223 2.356 . S
C215 O220 1.209 . S
C215 O222 1.226 . S
O216 Cd212 2.273 . S
O216 Cd214 2.411 . S
O216 C219 1.320 . S
O217 Cd214 2.333 . S
O217 C219 1.214 . S
O218 Cd214 2.352 . S
O218 C221 1.258 . S
C219 O216 1.320 . S
C219 O217 1.214 . S
O220 Cd212 2.277 . S
O220 C215 1.209 . S
C221 O218 1.258 . S
C221 O223 1.282 . S
O222 Cd214 2.277 . S
O222 C215 1.226 . S
O223 Cd214 2.356 . S
O223 C221 1.282 . S
C224 C225 1.369 . S
C224 C226 1.419 . S
C224 H228 0.930 . S
C225 C224 1.369 . S
C225 C234 1.429 . S
C226 C224 1.419 . S
C226 C227 1.363 . S
C226 H229 0.929 . S
C227 C226 1.363 . S
C227 C233 1.428 . S
H228 C224 0.930 . S
H229 C226 0.929 . S
S230 N231 1.613 . S
S230 N232 1.610 . S
N231 S230 1.613 . S
N231 C234 1.350 . S
N232 S230 1.610 . S
N232 C233 1.351 . S
C233 C227 1.428 . S
C233 N232 1.351 . S
C233 C234 1.434 . S
C234 C225 1.429 . S
C234 N231 1.350 . S
C234 C233 1.434 . S
C235 C236 1.369 . S
C235 C237 1.419 . S
C235 H239 0.930 . S
C236 C235 1.369 . S
C236 C245 1.429 . S
C237 C235 1.419 . S
C237 C238 1.363 . S
C237 H240 0.929 . S
C238 C237 1.363 . S
C238 C244 1.428 . S
H239 C235 0.930 . S
H240 C237 0.929 . S
S241 N242 1.613 . S
S241 N243 1.610 . S
N242 S241 1.613 . S
N242 C245 1.350 . S
N243 S241 1.610 . S
N243 C244 1.351 . S
C244 C238 1.428 . S
C244 N243 1.351 . S
C244 C245 1.434 . S
C245 C236 1.429 . S
C245 N242 1.350 . S
C245 C244 1.434 . S
C246 C247 1.369 . S
C246 C248 1.419 . S
C246 H250 0.930 . S
C247 C246 1.369 . S
C247 C256 1.429 . S
C248 C246 1.419 . S
C248 C249 1.363 . S
C248 H251 0.929 . S
C249 C248 1.363 . S
C249 C255 1.428 . S
H250 C246 0.930 . S
H251 C248 0.929 . S
S252 N253 1.613 . S
S252 N254 1.610 . S
N253 S252 1.613 . S
N253 C256 1.350 . S
N254 S252 1.610 . S
N254 C255 1.351 . S
C255 C249 1.428 . S
C255 N254 1.351 . S
C255 C256 1.434 . S
C256 C247 1.429 . S
C256 N253 1.350 . S
C256 C255 1.434 . S
C257 C258 1.369 . S
C257 C259 1.419 . S
C257 H261 0.930 . S
C258 C257 1.369 . S
C258 C267 1.429 . S
C259 C257 1.419 . S
C259 C260 1.363 . S
C259 H262 0.929 . S
C260 C259 1.363 . S
C260 C266 1.428 . S
H261 C257 0.930 . S
H262 C259 0.929 . S
S263 N264 1.613 . S
S263 N265 1.610 . S
N264 S263 1.613 . S
N264 C267 1.350 . S
N265 S263 1.610 . S
N265 C266 1.351 . S
C266 C260 1.428 . S
C266 N265 1.351 . S
C266 C267 1.434 . S
C267 C258 1.429 . S
C267 N264 1.350 . S
C267 C266 1.434 . S
C268 C269 1.369 . S
C268 C270 1.419 . S
C268 H272 0.930 . S
C269 C268 1.369 . S
C269 C278 1.429 . S
C270 C268 1.419 . S
C270 C271 1.363 . S
C270 H273 0.929 . S
C271 C270 1.363 . S
C271 C277 1.428 . S
H272 C268 0.930 . S
H273 C270 0.929 . S
S274 N275 1.613 . S
S274 N276 1.610 . S
N275 S274 1.613 . S
N275 C278 1.350 . S
N276 S274 1.610 . S
N276 C277 1.351 . S
C277 C271 1.428 . S
C277 N276 1.351 . S
C277 C278 1.434 . S
C278 C269 1.429 . S
C278 N275 1.350 . S
C278 C277 1.434 . S
C279 C280 1.369 . S
C279 C281 1.419 . S
C279 H283 0.930 . S
C280 C279 1.369 . S
C280 C289 1.429 . S
C281 C279 1.419 . S
C281 C282 1.363 . S
C281 H284 0.929 . S
C282 C281 1.363 . S
C282 C288 1.428 . S
H283 C279 0.930 . S
H284 C281 0.929 . S
S285 N286 1.613 . S
S285 N287 1.610 . S
N286 S285 1.613 . S
N286 C289 1.350 . S
N287 S285 1.610 . S
N287 C288 1.351 . S
C288 C282 1.428 . S
C288 N287 1.351 . S
C288 C289 1.434 . S
C289 C280 1.429 . S
C289 N286 1.350 . S
C289 C288 1.434 . S
C290 C291 1.369 . S
C290 C292 1.419 . S
C290 H294 0.930 . S
C291 C290 1.369 . S
C291 C300 1.429 . S
C292 C290 1.419 . S
C292 C293 1.363 . S
C292 H295 0.929 . S
C293 C292 1.363 . S
C293 C299 1.428 . S
H294 C290 0.930 . S
H295 C292 0.929 . S
S296 N297 1.613 . S
S296 N298 1.610 . S
N297 S296 1.613 . S
N297 C300 1.350 . S
N298 S296 1.610 . S
N298 C299 1.351 . S
C299 C293 1.428 . S
C299 N298 1.351 . S
C299 C300 1.434 . S
C300 C291 1.429 . S
C300 N297 1.350 . S
C300 C299 1.434 . S
C301 C302 1.369 . S
C301 C303 1.419 . S
C301 H305 0.930 . S
C302 C301 1.369 . S
C302 C311 1.429 . S
C303 C301 1.419 . S
C303 C304 1.363 . S
C303 H306 0.929 . S
C304 C303 1.363 . S
C304 C310 1.428 . S
H305 C301 0.930 . S
H306 C303 0.929 . S
S307 N308 1.613 . S
S307 N309 1.610 . S
N308 S307 1.613 . S
N308 C311 1.350 . S
N309 S307 1.610 . S
N309 C310 1.351 . S
C310 C304 1.428 . S
C310 N309 1.351 . S
C310 C311 1.434 . S
C311 C302 1.429 . S
C311 N308 1.350 . S
C311 C310 1.434 . S
C312 C313 1.369 . S
C312 C314 1.419 1_556 S
C312 H316 0.930 . S
C313 C312 1.369 . S
C313 C322 1.429 . S
C314 C312 1.419 1_554 S
C314 C315 1.363 . S
C314 H317 0.929 . S
C315 C314 1.363 . S
C315 C321 1.428 . S
H316 C312 0.930 . S
H317 C314 0.929 . S
S318 N319 1.613 . S
S318 N320 1.610 1_556 S
N319 S318 1.613 . S
N319 C322 1.350 . S
N320 S318 1.610 1_554 S
N320 C321 1.351 . S
C321 C315 1.428 . S
C321 N320 1.351 . S
C321 C322 1.434 1_554 S
C322 C313 1.429 . S
C322 N319 1.350 . S
C322 C321 1.434 1_556 S
C323 C324 1.369 . S
C323 C325 1.419 1_556 S
C323 H327 0.930 . S
C324 C323 1.369 . S
C324 C333 1.429 . S
C325 C323 1.419 1_554 S
C325 C326 1.363 . S
C325 H328 0.929 . S
C326 C325 1.363 . S
C326 C332 1.428 . S
H327 C323 0.930 . S
H328 C325 0.929 . S
S329 N330 1.627 . S
S329 N331 1.596 1_556 S
N330 S329 1.627 . S
N330 C333 1.350 . S
N331 S329 1.596 1_554 S
N331 C332 1.351 . S
C332 C326 1.428 . S
C332 N331 1.351 . S
C332 C333 1.434 1_554 S
C333 C324 1.429 . S
C333 N330 1.350 . S
C333 C332 1.434 1_556 S
C334 C335 1.369 . S
C334 C336 1.419 1_556 S
C334 H338 0.930 . S
C335 C334 1.369 . S
C335 C344 1.429 . S
C336 C334 1.419 1_554 S
C336 C337 1.363 . S
C336 H339 0.929 . S
C337 C336 1.363 . S
C337 C343 1.428 . S
H338 C334 0.930 . S
H339 C336 0.929 . S
S340 N341 1.613 1_554 S
S340 N342 1.610 . S
N341 S340 1.613 1_556 S
N341 C344 1.350 . S
N342 S340 1.610 . S
N342 C343 1.351 . S
C343 C337 1.428 . S
C343 N342 1.351 . S
C343 C344 1.434 1_554 S
C344 C335 1.429 . S
C344 N341 1.350 . S
C344 C343 1.434 1_556 S
C345 C346 1.369 . S
C345 C347 1.419 1_554 S
C345 H349 0.930 . S
C346 C345 1.369 . S
C346 C355 1.429 . S
C347 C345 1.419 1_556 S
C347 C348 1.363 . S
C347 H350 0.929 . S
C348 C347 1.363 . S
C348 C354 1.428 . S
H349 C345 0.930 . S
H350 C347 0.929 . S
S351 N352 1.613 1_556 S
S351 N353 1.610 . S
N352 S351 1.613 1_554 S
N352 C355 1.350 . S
N353 S351 1.610 . S
N353 C354 1.351 . S
C354 C348 1.428 . S
C354 N353 1.351 . S
C354 C355 1.434 1_556 S
C355 C346 1.429 . S
C355 N352 1.350 . S
C355 C354 1.434 1_554 S
C356 C357 1.369 . S
C356 C358 1.419 . S
C356 H360 0.930 . S
C357 C356 1.369 . S
C357 C366 1.429 . S
C358 C356 1.419 . S
C358 C359 1.363 . S
C358 H361 0.929 . S
C359 C358 1.363 . S
C359 C365 1.428 . S
H360 C356 0.930 . S
H361 C358 0.929 . S
S362 N363 1.613 . S
S362 N364 1.610 . S
N363 S362 1.613 . S
N363 C366 1.350 . S
N364 S362 1.610 . S
N364 C365 1.351 . S
C365 C359 1.428 . S
C365 N364 1.351 . S
C365 C366 1.434 . S
C366 C357 1.429 . S
C366 N363 1.350 . S
C366 C365 1.434 . S
C367 C368 1.369 . S
C367 C369 1.419 . S
C367 H371 0.930 . S
C368 C367 1.369 . S
C368 C377 1.429 . S
C369 C367 1.419 . S
C369 C370 1.363 . S
C369 H372 0.929 . S
C370 C369 1.363 . S
C370 C376 1.428 . S
H371 C367 0.930 . S
H372 C369 0.929 . S
S373 N374 1.613 . S
S373 N375 1.610 . S
N374 S373 1.613 . S
N374 C377 1.350 . S
N375 S373 1.610 . S
N375 C376 1.351 . S
C376 C370 1.428 . S
C376 N375 1.351 . S
C376 C377 1.434 . S
C377 C368 1.429 . S
C377 N374 1.350 . S
C377 C376 1.434 . S
C378 C379 1.369 . S
C378 C380 1.419 . S
C378 H382 0.930 . S
C379 C378 1.369 . S
C379 C388 1.429 . S
C380 C378 1.419 . S
C380 C381 1.363 . S
C380 H383 0.929 . S
C381 C380 1.363 . S
C381 C387 1.428 . S
H382 C378 0.930 . S
H383 C380 0.929 . S
S384 N385 1.613 . S
S384 N386 1.610 . S
N385 S384 1.613 . S
N385 C388 1.350 . S
N386 S384 1.610 . S
N386 C387 1.351 . S
C387 C381 1.428 . S
C387 N386 1.351 . S
C387 C388 1.434 . S
C388 C379 1.429 . S
C388 N385 1.350 . S
C388 C387 1.434 . S
C389 C390 1.369 . S
C389 C391 1.419 . S
C389 H393 0.930 . S
C390 C389 1.369 . S
C390 C399 1.429 . S
C391 C389 1.419 . S
C391 C392 1.363 . S
C391 H394 0.929 . S
C392 C391 1.363 . S
C392 C398 1.428 . S
H393 C389 0.930 . S
H394 C391 0.929 . S
S395 N396 1.613 . S
S395 N397 1.610 . S
N396 S395 1.613 . S
N396 C399 1.350 . S
N397 S395 1.610 . S
N397 C398 1.351 . S
C398 C392 1.428 . S
C398 N397 1.351 . S
C398 C399 1.434 . S
C399 C390 1.429 . S
C399 N396 1.350 . S
C399 C398 1.434 . S
C400 C401 1.369 . S
C400 C402 1.419 . S
C400 H404 0.930 . S
C401 C400 1.369 . S
C401 C410 1.429 . S
C402 C400 1.419 . S
C402 C403 1.363 . S
C402 H405 0.929 . S
C403 C402 1.363 . S
C403 C409 1.428 . S
H404 C400 0.930 . S
H405 C402 0.929 . S
S406 N407 1.613 . S
S406 N408 1.610 . S
N407 S406 1.613 . S
N407 C410 1.350 . S
N408 S406 1.610 . S
N408 C409 1.351 . S
C409 C403 1.428 . S
C409 N408 1.351 . S
C409 C410 1.434 . S
C410 C401 1.429 . S
C410 N407 1.350 . S
C410 C409 1.434 . S
C411 C412 1.369 . S
C411 C413 1.419 . S
C411 H415 0.930 . S
C412 C411 1.369 . S
C412 C421 1.429 . S
C413 C411 1.419 . S
C413 C414 1.363 . S
C413 H416 0.929 . S
C414 C413 1.363 . S
C414 C420 1.428 . S
H415 C411 0.930 . S
H416 C413 0.929 . S
S417 N418 1.613 . S
S417 N419 1.610 . S
N418 S417 1.613 . S
N418 C421 1.350 . S
N419 S417 1.610 . S
N419 C420 1.351 . S
C420 C414 1.428 . S
C420 N419 1.351 . S
C420 C421 1.434 . S
C421 C412 1.429 . S
C421 N418 1.350 . S
C421 C420 1.434 . S
C422 C423 1.369 . S
C422 C424 1.419 . S
C422 H426 0.930 . S
C423 C422 1.369 . S
C423 C432 1.429 . S
C424 C422 1.419 . S
C424 C425 1.363 . S
C424 H427 0.929 . S
C425 C424 1.363 . S
C425 C431 1.428 . S
H426 C422 0.930 . S
H427 C424 0.929 . S
S428 N429 1.613 . S
S428 N430 1.610 . S
N429 S428 1.613 . S
N429 C432 1.350 . S
N430 S428 1.610 . S
N430 C431 1.351 . S
C431 C425 1.428 . S
C431 N430 1.351 . S
C431 C432 1.434 . S
C432 C423 1.429 . S
C432 N429 1.350 . S
C432 C431 1.434 . S
C433 C434 1.369 . S
C433 C435 1.419 . S
C433 H437 0.930 . S
C434 C433 1.369 . S
C434 C443 1.429 . S
C435 C433 1.419 . S
C435 C436 1.363 . S
C435 H438 0.929 . S
C436 C435 1.363 . S
C436 C442 1.428 . S
H437 C433 0.930 . S
H438 C435 0.929 . S
S439 N440 1.613 . S
S439 N441 1.610 . S
N440 S439 1.613 . S
N440 C443 1.350 . S
N441 S439 1.610 . S
N441 C442 1.351 . S
C442 C436 1.428 . S
C442 N441 1.351 . S
C442 C443 1.434 . S
C443 C434 1.429 . S
C443 N440 1.350 . S
C443 C442 1.434 . S
C444 C445 1.369 . S
C444 C446 1.419 . S
C444 H448 0.930 . S
C445 C444 1.369 . S
C445 C454 1.429 . S
C446 C444 1.419 . S
C446 C447 1.363 . S
C446 H449 0.929 . S
C447 C446 1.363 . S
C447 C453 1.428 . S
H448 C444 0.930 . S
H449 C446 0.929 . S
S450 N451 1.613 . S
S450 N452 1.610 . S
N451 S450 1.613 . S
N451 C454 1.350 . S
N452 S450 1.610 . S
N452 C453 1.351 . S
C453 C447 1.428 . S
C453 N452 1.351 . S
C453 C454 1.434 . S
C454 C445 1.429 . S
C454 N451 1.350 . S
C454 C453 1.434 . S
C455 C456 1.369 . S
C455 C457 1.419 . S
C455 H459 0.930 . S
C456 C455 1.369 . S
C456 C465 1.429 . S
C457 C455 1.419 . S
C457 C458 1.363 . S
C457 H460 0.929 . S
C458 C457 1.363 . S
C458 C464 1.428 . S
H459 C455 0.930 . S
H460 C457 0.929 . S
S461 N462 1.613 . S
S461 N463 1.610 . S
N462 S461 1.613 . S
N462 C465 1.350 . S
N463 S461 1.610 . S
N463 C464 1.351 . S
C464 C458 1.428 . S
C464 N463 1.351 . S
C464 C465 1.434 . S
C465 C456 1.429 . S
C465 N462 1.350 . S
C465 C464 1.434 . S
C466 C467 1.369 . S
C466 C468 1.419 . S
C466 H470 0.930 . S
C467 C466 1.369 . S
C467 C476 1.429 . S
C468 C466 1.419 . S
C468 C469 1.363 . S
C468 H471 0.929 . S
C469 C468 1.363 . S
C469 C475 1.428 . S
H470 C466 0.930 . S
H471 C468 0.929 . S
S472 N473 1.613 . S
S472 N474 1.610 . S
N473 S472 1.613 . S
N473 C476 1.350 . S
N474 S472 1.610 . S
N474 C475 1.351 . S
C475 C469 1.428 . S
C475 N474 1.351 . S
C475 C476 1.434 . S
C476 C467 1.429 . S
C476 N473 1.350 . S
C476 C475 1.434 . S
C477 C478 1.369 . S
C477 C479 1.419 . S
C477 H481 0.930 . S
C478 C477 1.369 . S
C478 C487 1.429 . S
C479 C477 1.419 . S
C479 C480 1.363 . S
C479 H482 0.929 . S
C480 C479 1.363 . S
C480 C486 1.428 . S
H481 C477 0.930 . S
H482 C479 0.929 . S
S483 N484 1.613 . S
S483 N485 1.610 . S
N484 S483 1.613 . S
N484 C487 1.350 . S
N485 S483 1.610 . S
N485 C486 1.351 . S
C486 C480 1.428 . S
C486 N485 1.351 . S
C486 C487 1.434 . S
C487 C478 1.429 . S
C487 N484 1.350 . S
C487 C486 1.434 . S
C488 C489 1.369 . S
C488 C490 1.419 1_545 S
C488 H492 0.930 . S
C489 C488 1.369 . S
C489 C498 1.429 . S
C490 C488 1.419 1_565 S
C490 C491 1.363 . S
C490 H493 0.929 . S
C491 C490 1.363 . S
C491 C497 1.428 . S
H492 C488 0.930 . S
H493 C490 0.929 . S
S494 N495 1.613 1_565 S
S494 N496 1.610 . S
N495 S494 1.613 1_545 S
N495 C498 1.350 . S
N496 S494 1.610 . S
N496 C497 1.351 . S
C497 C491 1.428 . S
C497 N496 1.351 . S
C497 C498 1.434 1_565 S
C498 C489 1.429 . S
C498 N495 1.350 . S
C498 C497 1.434 1_545 S
C499 C500 1.369 . S
C499 C501 1.419 1_655 S
C499 H503 0.930 . S
C500 C499 1.369 . S
C500 C509 1.429 . S
C501 C499 1.419 1_455 S
C501 C502 1.363 . S
C501 H504 0.929 . S
C502 C501 1.363 . S
C502 C508 1.428 . S
H503 C499 0.930 . S
H504 C501 0.929 . S
S505 N506 1.613 . S
S505 N507 1.610 1_655 S
N506 S505 1.613 . S
N506 C509 1.350 . S
N507 S505 1.610 1_455 S
N507 C508 1.351 . S
C508 C502 1.428 . S
C508 N507 1.351 . S
C508 C509 1.434 1_455 S
C509 C500 1.429 . S
C509 N506 1.350 . S
C509 C508 1.434 1_655 S
C510 C511 1.369 . S
C510 C512 1.419 1_545 S
C510 H514 0.930 . S
C511 C510 1.369 . S
C511 C520 1.429 . S
C512 C510 1.419 1_565 S
C512 C513 1.363 . S
C512 H515 0.929 . S
C513 C512 1.363 . S
C513 C519 1.428 . S
H514 C510 0.930 . S
H515 C512 0.929 . S
S516 N517 1.613 1_565 S
S516 N518 1.610 . S
N517 S516 1.613 1_545 S
N517 C520 1.350 . S
N518 S516 1.610 . S
N518 C519 1.351 . S
C519 C513 1.428 . S
C519 N518 1.351 . S
C519 C520 1.434 1_565 S
C520 C511 1.429 . S
C520 N517 1.350 . S
C520 C519 1.434 1_545 S
C521 C522 1.369 . S
C521 C523 1.419 1_455 S
C521 H525 0.930 . S
C522 C521 1.369 . S
C522 C531 1.429 . S
C523 C521 1.419 1_655 S
C523 C524 1.363 . S
C523 H526 0.929 . S
C524 C523 1.363 . S
C524 C530 1.428 . S
H525 C521 0.930 . S
H526 C523 0.929 . S
S527 N528 1.613 1_655 S
S527 N529 1.610 . S
N528 S527 1.613 1_455 S
N528 C531 1.350 . S
N529 S527 1.610 . S
N529 C530 1.351 . S
C530 C524 1.428 . S
C530 N529 1.351 . S
C530 C531 1.434 1_655 S
C531 C522 1.429 . S
C531 N528 1.350 . S
C531 C530 1.434 1_455 S
C532 C533 1.369 . S
C532 C534 1.419 1_545 S
C532 H536 0.930 . S
C533 C532 1.369 . S
C533 C542 1.429 . S
C534 C532 1.419 1_565 S
C534 C535 1.363 . S
C534 H537 0.929 . S
C535 C534 1.363 . S
C535 C541 1.428 . S
H536 C532 0.930 . S
H537 C534 0.929 . S
S538 N539 1.613 1_565 S
S538 N540 1.610 . S
N539 S538 1.613 1_545 S
N539 C542 1.350 . S
N540 S538 1.610 . S
N540 C541 1.351 . S
C541 C535 1.428 . S
C541 N540 1.351 . S
C541 C542 1.434 1_565 S
C542 C533 1.429 . S
C542 N539 1.350 . S
C542 C541 1.434 1_545 S
C543 C544 1.369 . S
C543 C545 1.419 1_655 S
C543 H547 0.930 . S
C544 C543 1.369 . S
C544 C553 1.429 . S
C545 C543 1.419 1_455 S
C545 C546 1.363 . S
C545 H548 0.929 . S
C546 C545 1.363 . S
C546 C552 1.428 . S
H547 C543 0.930 . S
H548 C545 0.929 . S
S549 N550 1.613 . S
S549 N551 1.610 1_655 S
N550 S549 1.613 . S
N550 C553 1.350 . S
N551 S549 1.610 1_455 S
N551 C552 1.351 . S
C552 C546 1.428 . S
C552 N551 1.351 . S
C552 C553 1.434 1_455 S
C553 C544 1.429 . S
C553 N550 1.350 . S
C553 C552 1.434 1_655 S
C554 C555 1.369 . S
C554 C556 1.419 1_565 S
C554 H558 0.930 . S
C555 C554 1.369 . S
C555 C564 1.429 . S
C556 C554 1.419 1_545 S
C556 C557 1.363 . S
C556 H559 0.929 . S
C557 C556 1.363 . S
C557 C563 1.428 . S
H558 C554 0.930 . S
H559 C556 0.929 . S
S560 N561 1.613 . S
S560 N562 1.610 1_565 S
N561 S560 1.613 . S
N561 C564 1.350 . S
N562 S560 1.610 1_545 S
N562 C563 1.351 . S
C563 C557 1.428 . S
C563 N562 1.351 . S
C563 C564 1.434 1_545 S
C564 C555 1.429 . S
C564 N561 1.350 . S
C564 C563 1.434 1_565 S
C565 C566 1.369 . S
C565 C567 1.419 1_455 S
C565 H569 0.930 . S
C566 C565 1.369 . S
C566 C575 1.429 . S
C567 C565 1.419 1_655 S
C567 C568 1.363 . S
C567 H570 0.929 . S
C568 C567 1.363 . S
C568 C574 1.428 . S
H569 C565 0.930 . S
H570 C567 0.929 . S
S571 N572 1.613 . S
S571 N573 1.610 1_455 S
N572 S571 1.613 . S
N572 C575 1.350 . S
N573 S571 1.610 1_655 S
N573 C574 1.351 . S
C574 C568 1.428 . S
C574 N573 1.351 . S
C574 C575 1.434 1_655 S
C575 C566 1.429 . S
C575 N572 1.350 . S
C575 C574 1.434 1_455 S
C225 C81 1.442 . S
C227 C11 1.440 . S
C236 C95 1.439 . S
C238 C25 1.440 . S
C247 C39 1.441 . S
C249 C109 1.443 . S
C258 C53 1.442 . S
C260 C67 1.440 . S
C269 C193 1.439 . S
C271 C123 1.441 . S
C280 C207 1.441 . S
C282 C137 1.443 . S
C291 C151 1.439 . S
C293 C221 1.441 . S
C302 C165 1.442 . S
C304 C179 1.443 . S
C313 C149 1.541 . S
C315 C9 1.540 . S
C324 C163 1.540 . S
C326 C23 1.540 . S
C335 C121 1.540 . S
C337 C37 1.541 . S
C346 C51 1.540 . S
C348 C135 1.540 . S
C357 C205 1.539 . S
C359 C65 1.541 . S
C368 C219 1.541 . S
C370 C79 1.540 . S
C379 C93 1.541 . S
C381 C177 1.540 . S
C390 C191 1.539 . S
C392 C107 1.541 . S
C401 C61 1.826 . S
C403 C5 1.827 . S
C412 C19 1.825 . S
C414 C75 1.827 . S
C423 C33 1.827 . S
C425 C89 1.825 . S
C434 C103 1.825 . S
C436 C47 1.827 . S
C445 C112 1.086 . S
C447 C168 1.093 . S
C456 C182 1.095 . S
C458 C126 1.087 . S
C467 C140 1.092 . S
C469 C196 1.091 . S
C478 C210 1.082 . S
C480 C154 1.088 . S
C489 C159 1.827 . S
C491 C187 1.825 . S
C500 C117 1.825 . S
C502 C201 1.827 . S
C511 C215 1.827 . S
C513 C131 1.825 . S
C522 C145 1.827 . S
C524 C173 1.825 . S
C533 C70 1.086 . S
C535 C42 1.093 . S
C544 C84 1.094 . S
C546 C0 1.089 . S
C555 C98 1.093 . S
C557 C14 1.085 . S
C566 C56 1.094 . S
C568 C28 1.088 . S
