# Generated by pormake.
# Topology neb, (4)-cn, num edge types: 1
# Building blocks:
#     Node 0, Type 0, BuildingBlock: QUQFOY_clean_sbu_1, # of connection points: 4
#     Node 1, Type 0, BuildingBlock: QUQFOY_clean_sbu_1, # of connection points: 4
#     Node 2, Type 0, BuildingBlock: QUQFOY_clean_sbu_1, # of connection points: 4
#     Node 3, Type 0, BuildingBlock: QUQFOY_clean_sbu_1, # of connection points: 4
#     Node 4, Type 0, BuildingBlock: QUQFOY_clean_sbu_1, # of connection points: 4
#     Node 5, Type 0, BuildingBlock: QUQFOY_clean_sbu_1, # of connection points: 4
#     Node 6, Type 0, BuildingBlock: QUQFOY_clean_sbu_1, # of connection points: 4
#     Node 7, Type 0, BuildingBlock: QUQFOY_clean_sbu_1, # of connection points: 4
#     Node 8, Type 0, BuildingBlock: QUQFOY_clean_sbu_1, # of connection points: 4
#     Node 9, Type 0, BuildingBlock: QUQFOY_clean_sbu_1, # of connection points: 4
#     Node 10, Type 0, BuildingBlock: QUQFOY_clean_sbu_1, # of connection points: 4
#     Node 11, Type 0, BuildingBlock: QUQFOY_clean_sbu_1, # of connection points: 4
#     Node 12, Type 0, BuildingBlock: QUQFOY_clean_sbu_1, # of connection points: 4
#     Node 13, Type 0, BuildingBlock: QUQFOY_clean_sbu_1, # of connection points: 4
#     Node 14, Type 0, BuildingBlock: QUQFOY_clean_sbu_1, # of connection points: 4
#     Node 15, Type 0, BuildingBlock: QUQFOY_clean_sbu_1, # of connection points: 4
#     Edge 16, Type (0, 0), BuildingBlock: TEMPAE_clean_linker_10, # of connection points: 2
#     Edge 17, Type (0, 0), BuildingBlock: TEMPAE_clean_linker_10, # of connection points: 2
#     Edge 18, Type (0, 0), BuildingBlock: TEMPAE_clean_linker_10, # of connection points: 2
#     Edge 19, Type (0, 0), BuildingBlock: TEMPAE_clean_linker_10, # of connection points: 2
#     Edge 20, Type (0, 0), BuildingBlock: TEMPAE_clean_linker_10, # of connection points: 2
#     Edge 21, Type (0, 0), BuildingBlock: TEMPAE_clean_linker_10, # of connection points: 2
#     Edge 22, Type (0, 0), BuildingBlock: TEMPAE_clean_linker_10, # of connection points: 2
#     Edge 23, Type (0, 0), BuildingBlock: TEMPAE_clean_linker_10, # of connection points: 2
#     Edge 24, Type (0, 0), BuildingBlock: TEMPAE_clean_linker_10, # of connection points: 2
#     Edge 25, Type (0, 0), BuildingBlock: TEMPAE_clean_linker_10, # of connection points: 2
#     Edge 26, Type (0, 0), BuildingBlock: TEMPAE_clean_linker_10, # of connection points: 2
#     Edge 27, Type (0, 0), BuildingBlock: TEMPAE_clean_linker_10, # of connection points: 2
#     Edge 28, Type (0, 0), BuildingBlock: TEMPAE_clean_linker_10, # of connection points: 2
#     Edge 29, Type (0, 0), BuildingBlock: TEMPAE_clean_linker_10, # of connection points: 2
#     Edge 30, Type (0, 0), BuildingBlock: TEMPAE_clean_linker_10, # of connection points: 2
#     Edge 31, Type (0, 0), BuildingBlock: TEMPAE_clean_linker_10, # of connection points: 2
#     Edge 32, Type (0, 0), BuildingBlock: TEMPAE_clean_linker_10, # of connection points: 2
#     Edge 33, Type (0, 0), BuildingBlock: TEMPAE_clean_linker_10, # of connection points: 2
#     Edge 34, Type (0, 0), BuildingBlock: TEMPAE_clean_linker_10, # of connection points: 2
#     Edge 35, Type (0, 0), BuildingBlock: TEMPAE_clean_linker_10, # of connection points: 2
#     Edge 36, Type (0, 0), BuildingBlock: TEMPAE_clean_linker_10, # of connection points: 2
#     Edge 37, Type (0, 0), BuildingBlock: TEMPAE_clean_linker_10, # of connection points: 2
#     Edge 38, Type (0, 0), BuildingBlock: TEMPAE_clean_linker_10, # of connection points: 2
#     Edge 39, Type (0, 0), BuildingBlock: TEMPAE_clean_linker_10, # of connection points: 2
#     Edge 40, Type (0, 0), BuildingBlock: TEMPAE_clean_linker_10, # of connection points: 2
#     Edge 41, Type (0, 0), BuildingBlock: TEMPAE_clean_linker_10, # of connection points: 2
#     Edge 42, Type (0, 0), BuildingBlock: TEMPAE_clean_linker_10, # of connection points: 2
#     Edge 43, Type (0, 0), BuildingBlock: TEMPAE_clean_linker_10, # of connection points: 2
#     Edge 44, Type (0, 0), BuildingBlock: TEMPAE_clean_linker_10, # of connection points: 2
#     Edge 45, Type (0, 0), BuildingBlock: TEMPAE_clean_linker_10, # of connection points: 2
#     Edge 46, Type (0, 0), BuildingBlock: TEMPAE_clean_linker_10, # of connection points: 2
#     Edge 47, Type (0, 0), BuildingBlock: TEMPAE_clean_linker_10, # of connection points: 2
# Relax obj value: 0.019
# Max RMSD: 0.097
# Mean RMSD: 0.097
data_MOF--net-neb--node1-QUQFOY_clean_sbu_1--edge1-TEMPAE_clean_linker_10
_symmetry_space_group_name_H-M    P1
_symmetry_Int_Tables_number       1
_symmetry_cell_setting            triclinic
loop_
_symmetry_equiv_pos_as_xyz
'x, y, z'
_cell_length_a     50.311875
_cell_length_b     22.1885
_cell_length_c     79.423933
_cell_angle_alpha  89.986803
_cell_angle_beta   89.997752
_cell_angle_gamma 90.004017
loop_
_atom_site_label
_atom_site_type_symbol
_atom_site_fract_x
_atom_site_fract_y
_atom_site_fract_z
_atom_type_partial_charge
O0 O 0.13506 0.02072 0.43107 0.0
Cd1 Cd 0.11423 0.08857 0.44289 0.0
Cd2 Cd 0.16622 0.13902 0.44238 0.0
O3 O 0.17435 0.06369 0.42787 0.0
O4 O 0.07936 0.04858 0.44738 0.0
O5 O 0.10469 0.08567 0.46762 0.0
C6 C 0.08324 0.0579 0.46319 0.0
C7 C 0.19767 0.16928 0.46244 0.0
C8 C 0.15861 0.01982 0.42528 0.0
C9 C 0.12107 0.20778 0.4256 0.0
O10 O 0.14491 0.20691 0.4309 0.0
O11 O 0.10548 0.16393 0.42855 0.0
O12 O 0.20121 0.17887 0.44661 0.0
O13 O 0.17632 0.14143 0.46702 0.0
O14 O 0.15413 0.04163 0.83229 0.0
Cd15 Cd 0.16551 0.10908 0.81628 0.0
Cd16 Cd 0.11193 0.12949 0.816 0.0
O17 O 0.11077 0.04695 0.8282 0.0
O18 O 0.20314 0.09061 0.81022 0.0
O19 O 0.17047 0.09106 0.79158 0.0
C20 C 0.19531 0.08257 0.79495 0.0
C21 C 0.0812 0.15223 0.79487 0.0
C22 C 0.13081 0.02215 0.83506 0.0
C23 C 0.14721 0.21959 0.83368 0.0
O24 O 0.12372 0.2015 0.83067 0.0
O25 O 0.16721 0.19162 0.82783 0.0
O26 O 0.07402 0.14644 0.81035 0.0
O27 O 0.10592 0.14345 0.79119 0.0
O28 O 0.90041 0.95702 0.58178 0.0
Cd29 Cd 0.91743 0.88655 0.5688 0.0
Cd30 Cd 0.86451 0.84598 0.56828 0.0
O31 O 0.8586 0.92677 0.58071 0.0
O32 O 0.95447 0.91291 0.56351 0.0
O33 O 0.92417 0.89611 0.54388 0.0
C34 C 0.94805 0.91222 0.54782 0.0
C35 C 0.83454 0.81608 0.54742 0.0
C36 C 0.87602 0.9648 0.58537 0.0
C37 C 0.9049 0.76971 0.58654 0.0
O38 O 0.88078 0.77723 0.58226 0.0
O39 O 0.92265 0.80728 0.58211 0.0
O40 O 0.8276 0.81881 0.563 0.0
O41 O 0.8585 0.83154 0.54348 0.0
O42 O 0.88295 0.97014 0.1823 0.0
Cd43 Cd 0.86274 0.90105 0.19392 0.0
Cd44 Cd 0.91561 0.85288 0.1939 0.0
O45 O 0.92334 0.93158 0.1808 0.0
O46 O 0.82696 0.93867 0.19684 0.0
O47 O 0.85119 0.90718 0.21829 0.0
C48 C 0.82981 0.93289 0.21286 0.0
C49 C 0.94573 0.82226 0.21471 0.0
C50 C 0.907 0.9737 0.17757 0.0
C51 C 0.87241 0.78316 0.17579 0.0
O52 O 0.89646 0.78583 0.18069 0.0
O53 O 0.85592 0.82442 0.17964 0.0
O54 O 0.95187 0.82079 0.19897 0.0
O55 O 0.92238 0.8416 0.21879 0.0
O56 O 0.121 0.53095 0.93144 0.0
Cd57 Cd 0.10865 0.60397 0.94557 0.0
Cd58 Cd 0.16201 0.6248 0.94556 0.0
O59 O 0.16428 0.54003 0.93546 0.0
O60 O 0.07077 0.58679 0.95131 0.0
O61 O 0.10263 0.59191 0.97045 0.0
C62 C 0.07796 0.58234 0.96682 0.0
C63 C 0.19137 0.65693 0.9665 0.0
C64 C 0.14459 0.51194 0.92926 0.0
C65 C 0.12759 0.70824 0.92547 0.0
O66 O 0.15081 0.68829 0.92829 0.0
O67 O 0.1075 0.68552 0.93283 0.0
O68 O 0.19952 0.64496 0.9515 0.0
O69 O 0.16648 0.64915 0.96986 0.0
O70 O 0.14188 0.52051 0.33102 0.0
Cd71 Cd 0.16313 0.58779 0.31925 0.0
Cd72 Cd 0.1109 0.6389 0.31942 0.0
O73 O 0.10255 0.56364 0.33393 0.0
O74 O 0.19821 0.54759 0.31561 0.0
O75 O 0.17377 0.58283 0.29471 0.0
C76 C 0.19503 0.55547 0.29968 0.0
C77 C 0.07967 0.66951 0.29925 0.0
C78 C 0.11823 0.51975 0.33665 0.0
C79 C 0.15598 0.70749 0.33634 0.0
O80 O 0.13219 0.70665 0.33096 0.0
O81 O 0.17159 0.66359 0.33347 0.0
O82 O 0.07601 0.67912 0.31507 0.0
O83 O 0.10099 0.64139 0.29474 0.0
O84 O 0.88905 0.46829 0.08113 0.0
Cd85 Cd 0.90982 0.39981 0.06963 0.0
Cd86 Cd 0.85726 0.34952 0.0707 0.0
O87 O 0.84951 0.42666 0.08454 0.0
O88 O 0.94491 0.43961 0.06577 0.0
O89 O 0.92039 0.40323 0.04506 0.0
C90 C 0.94165 0.4309 0.04989 0.0
C91 C 0.82542 0.31601 0.05125 0.0
C92 C 0.8655 0.47026 0.08688 0.0
C93 C 0.90257 0.28213 0.08779 0.0
O94 O 0.8786 0.28305 0.08275 0.0
O95 O 0.91834 0.32513 0.08429 0.0
O96 O 0.82207 0.30954 0.06722 0.0
O97 O 0.84675 0.34287 0.04618 0.0
O98 O 0.88223 0.45998 0.6818 0.0
Cd99 Cd 0.86042 0.39216 0.69279 0.0
Cd100 Cd 0.91234 0.33979 0.69332 0.0
O101 O 0.92106 0.41467 0.67881 0.0
O102 O 0.82534 0.4326 0.69616 0.0
O103 O 0.84896 0.39555 0.7172 0.0
C104 C 0.828 0.42379 0.71209 0.0
C105 C 0.94425 0.30736 0.71282 0.0
C106 C 0.90589 0.45952 0.67621 0.0
C107 C 0.86788 0.27318 0.67544 0.0
O108 O 0.89115 0.2725 0.68165 0.0
O109 O 0.85252 0.3179 0.6778 0.0
O110 O 0.94727 0.29905 0.6969 0.0
O111 O 0.92317 0.3353 0.71782 0.0
O112 O 0.6205 0.04677 0.92962 0.0
Cd113 Cd 0.6091 0.1133 0.94614 0.0
Cd114 Cd 0.66269 0.12067 0.94705 0.0
O115 O 0.66265 0.03581 0.93647 0.0
O116 O 0.57091 0.0923 0.94969 0.0
O117 O 0.60008 0.0959 0.97048 0.0
C118 C 0.5762 0.0846 0.9654 0.0
C119 C 0.6922 0.14754 0.96856 0.0
C120 C 0.64251 0.01936 0.928 0.0
C121 C 0.63119 0.21518 0.92793 0.0
O122 O 0.65316 0.18794 0.93018 0.0
O123 O 0.61031 0.19796 0.93556 0.0
O124 O 0.70046 0.13609 0.95354 0.0
O125 O 0.66709 0.14191 0.9716 0.0
O126 O 0.65781 0.06165 0.33263 0.0
Cd127 Cd 0.66437 0.12793 0.31499 0.0
Cd128 Cd 0.61259 0.12372 0.31507 0.0
O129 O 0.61705 0.03839 0.3249 0.0
O130 O 0.70237 0.1198 0.30816 0.0
O131 O 0.66875 0.10326 0.29077 0.0
C132 C 0.69408 0.10334 0.2935 0.0
C133 C 0.58367 0.14902 0.29332 0.0
C134 C 0.63747 0.02796 0.33386 0.0
C135 C 0.63926 0.22491 0.33331 0.0
O136 O 0.619 0.19087 0.33241 0.0
O137 O 0.65965 0.21383 0.32439 0.0
O138 O 0.57483 0.13211 0.30781 0.0
O139 O 0.60907 0.14858 0.29085 0.0
O140 O 0.4021 0.93386 0.08321 0.0
Cd141 Cd 0.412 0.86999 0.06543 0.0
Cd142 Cd 0.35853 0.86269 0.06573 0.0
O143 O 0.35956 0.94575 0.07717 0.0
O144 O 0.44981 0.88653 0.05927 0.0
O145 O 0.41645 0.89655 0.04132 0.0
C146 C 0.44155 0.90137 0.04448 0.0
C147 C 0.32548 0.83648 0.04636 0.0
C148 C 0.38014 0.96117 0.08541 0.0
C149 C 0.39151 0.76583 0.08292 0.0
O150 O 0.36963 0.79391 0.08157 0.0
O151 O 0.41177 0.7832 0.07471 0.0
O152 O 0.32033 0.8424 0.06215 0.0
O153 O 0.34931 0.84832 0.04128 0.0
O154 O 0.38228 0.96875 0.68108 0.0
Cd155 Cd 0.36263 0.89764 0.69208 0.0
Cd156 Cd 0.41549 0.85164 0.69217 0.0
O157 O 0.42303 0.93212 0.67989 0.0
O158 O 0.32669 0.93355 0.69568 0.0
O159 O 0.3515 0.89946 0.71656 0.0
C160 C 0.32987 0.92527 0.71159 0.0
C161 C 0.4451 0.81839 0.71291 0.0
C162 C 0.40644 0.97374 0.67667 0.0
C163 C 0.37331 0.78275 0.67293 0.0
O164 O 0.39721 0.78577 0.67807 0.0
O165 O 0.3564 0.82281 0.67701 0.0
O166 O 0.45183 0.82009 0.69728 0.0
O167 O 0.42153 0.83635 0.71695 0.0
O168 O 0.62133 0.56015 0.4293 0.0
Cd169 Cd 0.61384 0.6269 0.44665 0.0
Cd170 Cd 0.66702 0.62615 0.44619 0.0
O171 O 0.66366 0.54308 0.43486 0.0
O172 O 0.57598 0.6155 0.45343 0.0
O173 O 0.6097 0.60337 0.47101 0.0
C174 C 0.58442 0.6009 0.4682 0.0
C175 C 0.69978 0.64845 0.46606 0.0
C176 C 0.64245 0.52979 0.42699 0.0
C177 C 0.63709 0.72706 0.42864 0.0
O178 O 0.65818 0.69621 0.43024 0.0
O179 O 0.61628 0.71258 0.43674 0.0
O180 O 0.7055 0.64141 0.45039 0.0
O181 O 0.67551 0.63971 0.47076 0.0
O182 O 0.65322 0.5484 0.83243 0.0
Cd183 Cd 0.663 0.61503 0.81544 0.0
Cd184 Cd 0.60948 0.62242 0.81578 0.0
O185 O 0.61036 0.53877 0.82701 0.0
O186 O 0.70088 0.59952 0.80931 0.0
O187 O 0.66791 0.59332 0.79097 0.0
C188 C 0.69296 0.58788 0.79424 0.0
C189 C 0.5776 0.64857 0.79562 0.0
C190 C 0.63116 0.52163 0.83474 0.0
C191 C 0.64236 0.71783 0.83374 0.0
O192 O 0.62031 0.69076 0.8319 0.0
O193 O 0.66279 0.70022 0.82576 0.0
O194 O 0.57152 0.64321 0.81129 0.0
O195 O 0.60169 0.63654 0.79112 0.0
O196 O 0.39577 0.46911 0.57864 0.0
Cd197 Cd 0.41583 0.39857 0.56769 0.0
Cd198 Cd 0.36267 0.35205 0.56726 0.0
O199 O 0.3551 0.43193 0.57979 0.0
O200 O 0.45189 0.43499 0.56497 0.0
O201 O 0.42808 0.40271 0.54343 0.0
C202 C 0.44941 0.42837 0.54895 0.0
C203 C 0.33253 0.32076 0.54654 0.0
C204 C 0.37159 0.47373 0.58303 0.0
C205 C 0.4048 0.28266 0.58645 0.0
O206 O 0.38098 0.28552 0.58114 0.0
O207 O 0.42168 0.32309 0.5826 0.0
O208 O 0.32624 0.32084 0.56225 0.0
O209 O 0.35606 0.33879 0.54243 0.0
O210 O 0.37173 0.43567 0.17925 0.0
Cd211 Cd 0.36195 0.37001 0.19659 0.0
Cd212 Cd 0.41577 0.3625 0.19583 0.0
O213 O 0.4146 0.44594 0.18456 0.0
O214 O 0.32393 0.38532 0.20244 0.0
O215 O 0.35658 0.39289 0.22095 0.0
C216 C 0.33156 0.39758 0.21753 0.0
C217 C 0.44914 0.33484 0.21483 0.0
C218 C 0.39376 0.46245 0.17678 0.0
C219 C 0.38245 0.26651 0.17857 0.0
O220 O 0.40442 0.29418 0.17995 0.0
O221 O 0.36223 0.28408 0.18677 0.0
O222 O 0.45403 0.34197 0.19905 0.0
O223 O 0.42544 0.3466 0.22014 0.0
C224 C 0.32157 0.26684 0.51977 0.0
C225 C 0.31319 0.29999 0.5338 0.0
C226 C 0.30302 0.24367 0.5082 0.0
C227 C 0.27559 0.25602 0.51041 0.0
C228 C 0.26718 0.29094 0.52435 0.0
C229 C 0.28604 0.31147 0.53605 0.0
C230 C 0.31272 0.20506 0.49381 0.0
C231 C 0.23828 0.30707 0.52684 0.0
C232 C 0.23123 0.24474 0.47176 0.0
C233 C 0.21738 0.19104 0.47483 0.0
C234 C 0.24994 0.26679 0.48334 0.0
C235 C 0.25568 0.23312 0.49805 0.0
C236 C 0.24205 0.1782 0.50105 0.0
C237 C 0.22266 0.15838 0.48954 0.0
C238 C 0.26325 0.32659 0.47995 0.0
C239 C 0.24818 0.14005 0.5163 0.0
H240 H 0.34256 0.2574 0.51813 0.0
H241 H 0.27958 0.33742 0.54687 0.0
H242 H 0.30264 0.16058 0.49414 0.0
H243 H 0.30761 0.22649 0.48162 0.0
H244 H 0.33455 0.19773 0.49423 0.0
H245 H 0.23519 0.33688 0.53791 0.0
H246 H 0.23054 0.33019 0.51546 0.0
H247 H 0.22633 0.26557 0.52862 0.0
H248 H 0.22699 0.2703 0.46044 0.0
H249 H 0.2121 0.11659 0.49184 0.0
H250 H 0.28506 0.32038 0.47888 0.0
H251 H 0.25968 0.35777 0.49064 0.0
H252 H 0.25591 0.34814 0.46821 0.0
H253 H 0.26974 0.1295 0.51669 0.0
H254 H 0.23684 0.0971 0.51636 0.0
H255 H 0.24338 0.16531 0.52795 0.0
C256 C 0.99455 0.918 0.53713 0.0
C257 C 0.96751 0.93084 0.5349 0.0
C258 C 0.01356 0.93734 0.52536 0.0
C259 C 1.00543 0.97242 0.51138 0.0
C260 C 0.97811 0.98593 0.50916 0.0
C261 C 0.9594 0.96396 0.5208 0.0
C262 C 0.04232 0.92001 0.52787 0.0
C263 C 0.96873 0.02471 0.49472 0.0
C264 C 0.05875 0.06877 0.49046 0.0
C265 C 0.06374 0.03615 0.47571 0.0
C266 C 0.03941 0.04923 0.50203 0.0
C267 C 0.02552 0.99464 0.49905 0.0
C268 C 0.03102 0.96091 0.48432 0.0
C269 C 0.0497 0.98268 0.47268 0.0
C270 C 0.03355 0.08743 0.51732 0.0
C271 C 0.01741 0.90146 0.48095 0.0
H272 H 1.0008 0.89212 0.54801 0.0
H273 H 0.93851 0.9745 0.51919 0.0
H274 H 0.04992 0.89678 0.51647 0.0
H275 H 0.05458 0.96101 0.52971 0.0
H276 H 0.04514 0.88992 0.5389 0.0
H277 H 0.94693 0.03262 0.49507 0.0
H278 H 0.97903 0.06893 0.49507 0.0
H279 H 0.97383 0.00311 0.48255 0.0
H280 H 0.06946 0.11038 0.49273 0.0
H281 H 0.05372 0.95716 0.46133 0.0
H282 H 0.0381 0.06182 0.52896 0.0
H283 H 1.01208 0.09888 0.51768 0.0
H284 H 0.04524 0.1299 0.51743 0.0
H285 H 0.02073 0.87026 0.49167 0.0
H286 H 0.0247 0.87961 0.46924 0.0
H287 H 0.99565 0.90829 0.47982 0.0
C288 C 0.30585 0.91866 0.73918 0.0
C289 C 0.30967 0.94722 0.72364 0.0
C290 C 0.28648 0.93953 0.75055 0.0
C291 C 0.27131 0.9914 0.74649 0.0
C292 C 0.27541 0.02079 0.73089 0.0
C293 C 0.29423 -0.00226 0.71955 0.0
C294 C 0.28217 0.90595 0.76685 0.0
C295 C 0.26032 0.0773 0.7263 0.0
C296 C 0.20601 0.02312 0.76908 0.0
C297 C 0.21428 0.06191 0.78198 0.0
C298 C 0.22442 -0.00097 0.75759 0.0
C299 C 0.25155 0.01583 0.7587 0.0
C300 C 0.2598 0.05647 0.77141 0.0
C301 C 0.24114 0.07817 0.78308 0.0
C302 C 0.21496 0.95457 0.74451 0.0
C303 C 0.28833 0.07714 0.77269 0.0
H304 H 0.31767 0.87937 0.74231 0.0
H305 H 0.29734 0.02028 0.70759 0.0
H306 H 0.28704 0.93554 0.77767 0.0
H307 H 0.26094 0.89308 0.76809 0.0
H308 H 0.29454 0.86459 0.7677 0.0
H309 H 0.26623 0.09537 0.71381 0.0
H310 H 0.23866 0.06806 0.72612 0.0
H311 H 0.26384 0.11258 0.73595 0.0
H312 H 0.18529 0.00992 0.76836 0.0
H313 H 0.24754 0.10835 0.79302 0.0
H314 H 0.22604 0.91156 0.74584 0.0
H315 H 0.21905 0.97213 0.7317 0.0
H316 H 0.19335 0.94505 0.74558 0.0
H317 H 0.30146 0.03808 0.77528 0.0
H318 H 0.29123 0.1111 0.7828 0.0
H319 H 0.29481 0.09704 0.76054 0.0
C320 C 0.06942 0.20828 0.76861 0.0
C321 C 0.06169 0.17116 0.78201 0.0
C322 C 0.05051 0.23139 0.75729 0.0
C323 C 0.0234 0.21528 0.75912 0.0
C324 C 0.01569 0.17608 0.77232 0.0
C325 C 0.03487 0.15536 0.78378 0.0
C326 C 0.05943 0.27431 0.74366 0.0
C327 C 0.98717 0.15616 0.77437 0.0
C328 C 0.96896 0.31337 0.74015 0.0
C329 C 0.96424 0.28412 0.72481 0.0
C330 C 0.98857 0.29218 0.7513 0.0
C331 C 1.00307 0.23935 0.74724 0.0
C332 C 0.99794 0.20906 0.7319 0.0
C333 C 0.9789 0.2324 0.72075 0.0
C334 C 0.99397 0.32667 0.76732 0.0
C335 C 1.01231 0.15156 0.72735 0.0
H336 H 0.09012 0.22113 0.76737 0.0
H337 H 0.02889 0.12645 0.79412 0.0
H338 H 0.05439 0.25581 0.73109 0.0
H339 H 0.04875 0.31783 0.74497 0.0
H340 H 0.08115 0.28311 0.74411 0.0
H341 H 0.98472 0.12294 0.78472 0.0
H342 H 0.97438 0.19569 0.77706 0.0
H343 H 0.97989 0.13564 0.76249 0.0
H344 H 0.95776 0.35362 0.74323 0.0
H345 H 0.9751 0.20939 0.70895 0.0
H346 H 0.01529 0.33929 0.76795 0.0
H347 H 0.98971 0.29783 0.7784 0.0
H348 H 0.98178 0.36827 0.76827 0.0
H349 H 0.03399 0.16 0.72649 0.0
H350 H 1.00541 0.13252 0.71517 0.0
H351 H 1.00923 0.11733 0.73735 0.0
C352 C 0.78928 0.81364 0.53484 0.0
C353 C 0.81567 0.79365 0.5347 0.0
C354 C 0.7706 0.79037 0.52343 0.0
C355 C 0.77825 0.744 0.51216 0.0
C356 C 0.80489 0.72318 0.51215 0.0
C357 C 0.82345 0.74924 0.5232 0.0
C358 C 0.74273 0.81564 0.52337 0.0
C359 C 0.81361 0.67239 0.50078 0.0
C360 C 0.72188 0.64869 0.49432 0.0
C361 C 0.72012 0.67092 0.47787 0.0
C362 C 0.7413 0.67072 0.50549 0.0
C363 C 0.75844 0.71792 0.50026 0.0
C364 C 0.75632 0.74112 0.48371 0.0
C365 C 0.73757 0.71642 0.47261 0.0
C366 C 0.74358 0.64329 0.52282 0.0
C367 C 0.77339 0.79304 0.47785 0.0
H368 H 0.78335 0.84806 0.54377 0.0
H369 H 0.84381 0.73322 0.52333 0.0
H370 H 0.73741 0.83114 0.51052 0.0
H371 H 0.72832 0.78003 0.52692 0.0
H372 H 0.74044 0.85402 0.53223 0.0
H373 H 0.83476 0.65988 0.50277 0.0
H374 H 0.80105 0.63208 0.50305 0.0
H375 H 0.81093 0.68537 0.4874 0.0
H376 H 0.70842 0.61332 0.49833 0.0
H377 H 0.73594 0.73412 0.45993 0.0
H378 H 0.7388 0.67753 0.53253 0.0
H379 H 0.76431 0.62824 0.5251 0.0
H380 H 0.73004 0.6042 0.52452 0.0
H381 H 0.77054 0.83233 0.4863 0.0
H382 H 0.76867 0.80704 0.46475 0.0
H383 H 0.7947 0.78048 0.47845 0.0
C384 C 0.70547 0.03831 0.26882 0.0
C385 C 0.71316 0.0817 0.28068 0.0
C386 C 0.7241 0.01286 0.25771 0.0
C387 C 0.75088 0.0326 0.25816 0.0
C388 C 0.75852 0.07787 0.26976 0.0
C389 C 0.73966 0.1012 0.28105 0.0
C390 C 0.7153 0.96375 0.2458 0.0
C391 C 0.78666 0.10149 0.27031 0.0
C392 C 0.80628 0.93352 0.24071 0.0
C393 C 0.80951 0.9573 0.2245 0.0
C394 C 0.78687 0.95674 0.25169 0.0
C395 C 0.77093 0.00606 0.24649 0.0
C396 C 0.7744 0.03064 0.23019 0.0
C397 C 0.79337 0.0054 0.21932 0.0
C398 C 0.78332 0.92832 0.26881 0.0
C399 C 0.7584 0.08428 0.22433 0.0
H400 H 0.68506 0.0226 0.26864 0.0
H401 H 0.74565 0.13487 0.29018 0.0
H402 H 0.71912 0.97747 0.23259 0.0
H403 H 0.727 0.9222 0.24816 0.0
H404 H 0.69384 0.95297 0.24715 0.0
H405 H 0.78906 0.13885 0.2795 0.0
H406 H 0.80051 0.06466 0.2738 0.0
H407 H 0.79265 0.11791 0.25767 0.0
H408 H 0.81864 0.89615 0.24471 0.0
H409 H 0.79598 0.02432 0.20684 0.0
H410 H 0.76236 0.91392 0.27049 0.0
H411 H 0.78772 0.96179 0.2788 0.0
H412 H 0.79644 0.8886 0.27065 0.0
H413 H 0.73689 0.07333 0.22453 0.0
H414 H 0.76388 0.09875 0.2114 0.0
H415 H 0.76149 0.12275 0.23304 0.0
C416 C 0.99221 0.81176 0.22515 0.0
C417 C 0.96498 0.80159 0.22752 0.0
C418 C 1.01097 0.79114 0.23691 0.0
C419 C 1.00236 0.75743 0.25104 0.0
C420 C 0.97484 0.74643 0.25338 0.0
C421 C 0.95641 0.7697 0.24174 0.0
C422 C 0.03998 0.80585 0.23427 0.0
C423 C 0.96491 0.70911 0.26797 0.0
C424 C 0.05452 0.65848 0.27221 0.0
C425 C 0.06015 0.6916 0.28679 0.0
C426 C 0.03526 0.6786 0.26066 0.0
C427 C 0.02215 0.7343 0.26345 0.0
C428 C 0.02826 0.76844 0.27801 0.0
C429 C 0.0468 0.74608 0.28965 0.0
C430 C 0.0287 0.63994 0.24558 0.0
C431 C 0.01553 0.82903 0.28116 0.0
H432 H 0.99882 0.83673 0.21419 0.0
H433 H 0.93536 0.76125 0.24346 0.0
H434 H 0.04801 0.82919 0.24554 0.0
H435 H 0.05156 0.76375 0.23263 0.0
H436 H 0.04325 0.83496 0.22308 0.0
H437 H 0.94301 0.70276 0.26764 0.0
H438 H 0.97458 0.66415 0.26781 0.0
H439 H 0.9703 0.73099 0.28005 0.0
H440 H 0.06469 0.61609 0.27007 0.0
H441 H 0.05132 0.77198 0.30087 0.0
H442 H 0.03365 0.66436 0.23381 0.0
H443 H 1.00705 0.63035 0.24529 0.0
H444 H 0.03967 0.59649 0.24568 0.0
H445 H 0.0193 0.85944 0.27032 0.0
H446 H 0.02317 0.8509 0.29278 0.0
H447 H 0.99369 0.82391 0.28233 0.0
C448 C 0.28737 0.76831 0.0406 0.0
C449 C 0.30507 0.81247 0.03481 0.0
C450 C 0.26859 0.74217 0.02979 0.0
C451 C 0.26677 0.76238 0.01292 0.0
C452 C 0.28416 0.80825 0.00713 0.0
C453 C 0.30353 0.83188 0.01807 0.0
C454 C 0.25118 0.69182 0.03629 0.0
C455 C 0.28226 0.83242 0.9894 0.0
C456 C 0.2363 0.66062 0.9796 0.0
C457 C 0.21002 0.68134 0.9791 0.0
C458 C 0.25481 0.6857 0.99082 0.0
C459 C 0.24711 0.73439 1.00127 0.0
C460 C 0.22057 0.75579 1.00069 0.0
C461 C 0.20219 0.72816 0.98983 0.0
C462 C 0.28258 0.65997 0.99151 0.0
C463 C 0.2118 0.80882 0.01122 0.0
H464 H 0.28879 0.75274 0.05352 0.0
H465 H 0.31716 0.86623 0.01363 0.0
H466 H 0.22994 0.70457 0.03524 0.0
H467 H 0.25413 0.65081 0.02852 0.0
H468 H 0.2555 0.68048 0.04964 0.0
H469 H 0.29598 0.87087 0.98722 0.0
H470 H 0.28706 0.79629 0.98025 0.0
H471 H 0.26163 0.84741 0.98677 0.0
H472 H 0.24231 0.6243 0.9713 0.0
H473 H 0.18193 0.74473 0.98924 0.0
H474 H 0.28754 0.6468 1.00462 0.0
H475 H 0.2972 0.69462 0.98758 0.0
H476 H 0.28493 0.61994 0.98324 0.0
H477 H 0.21429 0.79845 0.02479 0.0
H478 H 0.19071 0.82112 0.00892 0.0
H479 H 0.22448 0.84849 0.0084 0.0
C480 C 0.06632 0.52719 0.99324 0.0
C481 C 0.05852 0.56395 0.97978 0.0
C482 C 0.04749 0.50453 1.00469 0.0
C483 C 0.02038 0.5208 1.00293 0.0
C484 C 1.0126 0.55964 0.98967 0.0
C485 C 0.0317 0.57985 0.97807 0.0
C486 C 0.05647 0.46192 0.01838 0.0
C487 C 0.9841 0.57977 0.98769 0.0
C488 C 0.96599 0.42381 0.02243 0.0
C489 C 0.96153 0.45354 0.03773 0.0
C490 C 0.98547 0.44449 0.01112 0.0
C491 C 1.00014 0.49731 0.01497 0.0
C492 C 0.99527 0.5281 0.03027 0.0
C493 C 0.97636 0.50525 0.04158 0.0
C494 C 0.9906 0.40946 0.99516 0.0
C495 C 1.0098 0.5856 0.0346 0.0
H496 H 0.08702 0.51424 0.99444 0.0
H497 H 0.02567 0.60846 0.96768 0.0
H498 H 0.05164 0.48089 0.03093 0.0
H499 H 0.04567 0.4185 0.01723 0.0
H500 H 0.07816 0.45283 0.01783 0.0
H501 H 0.9816 0.61269 0.97727 0.0
H502 H 0.9712 0.54028 0.98515 0.0
H503 H 0.97699 0.60073 0.99955 0.0
H504 H 0.95466 0.38358 0.0195 0.0
H505 H 0.97276 0.52864 0.05335 0.0
H506 H 1.01189 0.3966 0.99444 0.0
H507 H 0.98625 0.43799 0.98403 0.0
H508 H 0.97831 0.36795 0.99437 0.0
H509 H 0.03148 0.57697 0.03539 0.0
H510 H 1.00307 0.60512 0.04676 0.0
H511 H 1.00669 0.61952 0.02452 0.0
C512 C 0.31976 0.45834 0.24301 0.0
C513 C 0.31211 0.41841 0.23023 0.0
C514 C 0.30093 0.48206 0.25429 0.0
C515 C 0.27398 0.46388 0.25307 0.0
C516 C 0.26634 0.42222 0.24046 0.0
C517 C 0.28542 0.40075 0.22903 0.0
C518 C 0.30974 0.52751 0.26728 0.0
C519 C 0.23803 0.4002 0.23905 0.0
C520 C 0.23063 0.48239 0.29194 0.0
C521 C 0.21504 0.53248 0.28764 0.0
C522 C 0.24964 0.45923 0.28074 0.0
C523 C 0.25378 0.48801 0.26505 0.0
C524 C 0.23835 0.53922 0.26074 0.0
C525 C 0.21884 0.56027 0.27198 0.0
C526 C 0.26504 0.40347 0.28562 0.0
C527 C 0.24264 0.57209 0.24431 0.0
H528 H 0.34033 0.47258 0.24383 0.0
H529 H 0.27947 0.36966 0.2192 0.0
H530 H 0.2983 0.56991 0.26574 0.0
H531 H 0.3056 0.51027 0.28012 0.0
H532 H 0.33128 0.53802 0.26632 0.0
H533 H 0.23558 0.36581 0.22901 0.0
H534 H 0.23153 0.38039 0.25121 0.0
H535 H 0.22459 0.43857 0.23629 0.0
H536 H 0.22758 0.46046 0.30399 0.0
H537 H 0.20694 0.59926 0.26868 0.0
H538 H 0.28662 0.41361 0.286 0.0
H539 H 0.26205 0.36774 0.27603 0.0
H540 H 0.25895 0.38556 0.2981 0.0
H541 H 0.26373 0.58619 0.24322 0.0
H542 H 0.22981 0.61263 0.24316 0.0
H543 H 0.23838 0.54159 0.23359 0.0
C544 C 0.70268 0.21018 0.99388 0.0
C545 C 0.71099 0.16921 0.98154 0.0
C546 C 0.72097 0.2354 1.00527 0.0
C547 C 0.74802 0.21767 1.00463 0.0
C548 C 0.75629 0.17481 0.9925 0.0
C549 C 0.73777 0.15189 0.98092 0.0
C550 C 0.71149 0.28213 0.01771 0.0
C551 C 0.78473 0.1532 0.99172 0.0
C552 C 0.80219 0.31746 0.02331 0.0
C553 C 0.80562 0.29164 0.03927 0.0
C554 C 0.78308 0.29472 0.01204 0.0
C555 C 0.7677 0.24375 0.01665 0.0
C556 C 0.77141 0.21706 0.03267 0.0
C557 C 0.79002 0.2419 0.04387 0.0
C558 C 0.77923 0.32545 0.99526 0.0
C559 C 0.75605 0.16163 0.03788 0.0
H560 H 0.68205 0.22421 0.99424 0.0
H561 H 0.74422 0.12006 0.97141 0.0
H562 H 0.71536 0.26667 0.03076 0.0
H563 H 0.72272 0.32469 0.01588 0.0
H564 H 0.68993 0.2918 0.0164 0.0
H565 H 0.78763 0.11743 0.98211 0.0
H566 H 0.7981 0.19142 0.9887 0.0
H567 H 0.79089 0.1353 1.00417 0.0
H568 H 0.8141 0.35615 0.01977 0.0
H569 H 0.79278 0.22147 0.05614 0.0
H570 H 0.75809 0.33869 0.99371 0.0
H571 H 0.78409 0.29384 0.9849 0.0
H572 H 0.79184 0.36626 0.99392 0.0
H573 H 0.73443 0.17128 0.03781 0.0
H574 H 0.76171 0.14554 0.05063 0.0
H575 H 0.75958 0.12472 0.02872 0.0
C576 C 0.73891 0.58292 0.7825 0.0
C577 C 0.71207 0.56644 0.78142 0.0
C578 C 0.75769 0.56043 0.77103 0.0
C579 C 0.74958 0.51891 0.7585 0.0
C580 C 0.72247 0.502 0.75738 0.0
C581 C 0.70395 0.52673 0.7687 0.0
C582 C 0.78622 0.58109 0.77233 0.0
C583 C 0.71313 0.45677 0.74447 0.0
C584 C 0.79269 0.49783 0.71963 0.0
C585 C 0.8079 0.44723 0.72401 0.0
C586 C 0.77383 0.52189 0.73078 0.0
C587 C 0.76947 0.49356 0.74651 0.0
C588 C 0.78446 0.44174 0.75089 0.0
C589 C 0.80382 0.41975 0.73968 0.0
C590 C 0.7589 0.57823 0.72584 0.0
C591 C 0.77992 0.40935 0.76735 0.0
H592 H 0.74523 0.61381 0.79229 0.0
H593 H 0.68325 0.51336 0.76797 0.0
H594 H 0.79929 0.54215 0.77515 0.0
H595 H 0.79284 0.60023 0.76012 0.0
H596 H 0.78904 0.61565 0.78229 0.0
H597 H 0.69149 0.44747 0.74547 0.0
H598 H 0.71744 0.47346 0.7316 0.0
H599 H 0.72412 0.41377 0.74609 0.0
H600 H 0.79596 0.51955 0.70758 0.0
H601 H 0.81544 0.3804 0.74304 0.0
H602 H 0.76235 0.6141 0.73533 0.0
H603 H 0.73723 0.56915 0.72559 0.0
H604 H 0.765 0.59547 0.71329 0.0
H605 H 0.78461 0.43974 0.77803 0.0
H606 H 0.7923 0.36809 0.76851 0.0
H607 H 0.75868 0.3965 0.76853 0.0
C608 C 0.53782 0.01659 0.97079 0.0
C609 C 0.55585 0.0596 0.97686 0.0
C610 C 0.51903 0.98977 0.98149 0.0
C611 C 0.51752 0.00812 0.99853 0.0
C612 C 0.53527 0.05275 1.00462 0.0
C613 C 0.55462 0.07709 0.99378 0.0
C614 C 0.50121 0.94077 0.97463 0.0
C615 C 0.53372 0.07499 0.02255 0.0
C616 C 0.45283 0.97429 0.02162 0.0
C617 C 0.46034 0.92607 0.03197 0.0
C618 C 0.47136 0.00216 0.01088 0.0
C619 C 0.49769 0.97968 0.01002 0.0
C620 C 0.50506 0.92961 0.02007 0.0
C621 C 0.48643 0.90422 0.03117 0.0
C622 C 0.46294 0.0566 1.0008 0.0
C623 C 0.53259 0.90276 0.01907 0.0
H624 H 0.53898 0.00249 0.95774 0.0
H625 H 0.56849 0.11055 0.99844 0.0
H626 H 0.50389 0.89888 0.98208 0.0
H627 H 0.48008 0.95423 0.97583 0.0
H628 H 0.50539 0.93062 0.96119 0.0
H629 H 0.5478 0.11255 0.02502 0.0
H630 H 0.51325 0.09063 0.02538 0.0
H631 H 0.53826 0.03764 0.03137 0.0
H632 H 0.43275 0.99175 0.02243 0.0
H633 H 0.49221 0.86683 0.03917 0.0
H634 H 0.46525 0.04754 0.98715 0.0
H635 H 0.47596 0.09544 1.0039 0.0
H636 H 0.44197 0.06954 1.00327 0.0
H637 H 0.53734 0.89078 1.00584 0.0
H638 H 0.53467 0.86178 0.027 0.0
H639 H 0.54754 0.93635 0.02323 0.0
C640 C 0.47073 0.32507 0.24315 0.0
C641 C 0.46967 0.30946 0.22608 0.0
C642 C 0.49008 0.29982 0.25382 0.0
C643 C 0.50802 0.25623 0.24738 0.0
C644 C 0.50672 0.23985 0.23018 0.0
C645 C 0.48789 0.26748 0.21969 0.0
C646 C 0.49138 0.31989 0.27196 0.0
C647 C 0.5248 0.19208 0.22294 0.0
C648 C 0.57252 0.22222 0.27056 0.0
C649 C 0.56516 0.17285 0.28052 0.0
C650 C 0.55404 0.25029 0.25986 0.0
C651 C 0.52788 0.22699 0.25866 0.0
C652 C 0.52071 0.17563 0.26824 0.0
C653 C 0.53929 0.14991 0.27931 0.0
C654 C 0.56225 0.306 0.25025 0.0
C655 C 0.49336 0.14802 0.26686 0.0
H656 H 0.45669 0.35767 0.24808 0.0
H657 H 0.48687 0.25475 0.20652 0.0
H658 H 0.48695 0.28136 0.2804 0.0
H659 H 0.51175 0.33567 0.27501 0.0
H660 H 0.4771 0.35677 0.27474 0.0
H661 H 0.52083 0.18355 0.20939 0.0
H662 H 0.54587 0.20577 0.22438 0.0
H663 H 0.52219 0.14923 0.22996 0.0
H664 H 0.59241 0.24058 0.27171 0.0
H665 H 0.5336 0.1117 0.28702 0.0
H666 H 0.54915 0.34426 0.25374 0.0
H667 H 0.55986 0.29854 0.23653 0.0
H668 H 0.5832 0.31895 0.25277 0.0
H669 H 0.47818 0.18052 0.27135 0.0
H670 H 0.4915 0.10591 0.27434 0.0
H671 H 0.48876 0.13773 0.2535 0.0
C672 C 0.49066 0.81217 0.72502 0.0
C673 C 0.46387 0.79516 0.72562 0.0
C674 C 0.5091 0.78881 0.73658 0.0
C675 C 0.50075 0.74528 0.74852 0.0
C676 C 0.47371 0.72733 0.74898 0.0
C677 C 0.45545 0.75352 0.73774 0.0
C678 C 0.53745 0.81111 0.73611 0.0
C679 C 0.46419 0.67952 0.76109 0.0
C680 C 0.55541 0.64724 0.76739 0.0
C681 C 0.55786 0.67195 0.78352 0.0
C682 C 0.53633 0.66947 0.75601 0.0
C683 C 0.52026 0.71929 0.76066 0.0
C684 C 0.52313 0.74504 0.77687 0.0
C685 C 0.54149 0.72019 0.78822 0.0
C686 C 0.53321 0.63934 0.73909 0.0
C687 C 0.50725 0.79967 0.78211 0.0
H688 H 0.49709 0.84454 0.71563 0.0
H689 H 0.43477 0.73981 0.73801 0.0
H690 H 0.54328 0.82847 0.74868 0.0
H691 H 0.55107 0.77341 0.73303 0.0
H692 H 0.54036 0.84747 0.72667 0.0
H693 H 0.44281 0.6687 0.75934 0.0
H694 H 0.47598 0.63769 0.75936 0.0
H695 H 0.46726 0.69466 0.77425 0.0
H696 H 0.568 0.6097 0.76382 0.0
H697 H 0.54363 0.7397 0.80067 0.0
H698 H 0.53837 0.6714 0.72889 0.0
H699 H 0.51218 0.62584 0.73718 0.0
H700 H 0.546 0.59878 0.73783 0.0
H701 H 0.51064 0.83701 0.77305 0.0
H702 H 0.51257 0.81558 0.79493 0.0
H703 H 0.48571 0.78916 0.78188 0.0
C704 C 0.48592 0.50073 0.54253 0.0
C705 C 0.46995 0.45226 0.5374 0.0
C706 C 0.50488 0.52602 0.53167 0.0
C707 C 0.50855 0.5011 0.51543 0.0
C708 C 0.49288 0.45123 0.51031 0.0
C709 C 0.47345 0.42799 0.52127 0.0
C710 C 0.52058 0.58024 0.53744 0.0
C711 C 0.49667 0.42242 0.49326 0.0
C712 C 0.53893 0.59685 0.48068 0.0
C713 C 0.56559 0.57861 0.48108 0.0
C714 C 0.52029 0.57291 0.49202 0.0
C715 C 0.52835 0.5282 0.50369 0.0
C716 C 0.5553 0.50966 0.50415 0.0
C717 C 0.57369 0.53579 0.49299 0.0
C718 C 0.49196 0.59529 0.49147 0.0
C719 C 0.56454 0.46112 0.51611 0.0
H720 H 0.4831 0.52005 0.55494 0.0
H721 H 0.46123 0.39033 0.51731 0.0
H722 H 0.54216 0.5701 0.53715 0.0
H723 H 0.51712 0.61855 0.52872 0.0
H724 H 0.51513 0.5946 0.55038 0.0
H725 H 0.48394 0.38196 0.49155 0.0
H726 H 0.49187 0.45532 0.4832 0.0
H727 H 0.51776 0.4091 0.49158 0.0
H728 H 0.53263 0.63008 0.4715 0.0
H729 H 0.59423 0.52104 0.49317 0.0
H730 H 0.48587 0.61168 0.50409 0.0
H731 H 0.47841 0.55781 0.48805 0.0
H732 H 0.48923 0.63237 0.48222 0.0
H733 H 0.56064 0.47486 0.52931 0.0
H734 H 0.58608 0.45124 0.51475 0.0
H735 H 0.55318 0.41904 0.51381 0.0
C736 C 0.14969 0.81114 0.34778 0.0
C737 C 0.16423 0.75726 0.34761 0.0
C738 C 0.15384 0.85459 0.36031 0.0
C739 C 0.17281 0.84367 0.37312 0.0
C740 C 0.18882 0.79124 0.37239 0.0
C741 C 0.18443 0.74868 0.35957 0.0
C742 C 0.13663 0.91038 0.36044 0.0
C743 C 0.20926 0.77799 0.3858 0.0
C744 C 0.18572 0.97857 0.40143 0.0
C745 C 0.16628 0.96998 0.41388 0.0
C746 C 0.18932 0.93598 0.38851 0.0
C747 C 0.17329 0.88353 0.38819 0.0
C748 C 0.15515 0.87257 0.40148 0.0
C749 C 0.15178 0.91603 0.41409 0.0
C750 C 0.2089 0.94924 0.3746 0.0
C751 C 0.13797 0.81674 0.40179 0.0
H752 H 0.13426 0.81838 0.33846 0.0
H753 H 0.19573 0.7071 0.35953 0.0
H754 H 0.12255 0.9081 0.37118 0.0
H755 H 0.14901 0.95128 0.36216 0.0
H756 H 0.12496 0.91532 0.34864 0.0
H757 H 0.22288 0.74098 0.38202 0.0
H758 H 0.22121 0.81874 0.38865 0.0
H759 H 0.199 0.7645 0.39758 0.0
H760 H 0.19698 0.02021 0.40117 0.0
H761 H 0.13695 0.90878 0.42379 0.0
H762 H 0.19791 0.96272 0.36309 0.0
H763 H 0.22067 0.9085 0.37145 0.0
H764 H 0.22275 0.98626 0.37804 0.0
H765 H 0.12321 0.819 0.39143 0.0
H766 H 0.12707 0.81177 0.41388 0.0
H767 H 0.15023 0.77586 0.39975 0.0
C768 C 0.12745 0.31124 0.41404 0.0
C769 C 0.11274 0.25759 0.41436 0.0
C770 C 0.12319 0.35468 0.40152 0.0
C771 C 0.1039 0.34402 0.38888 0.0
C772 C 0.08773 0.29189 0.38978 0.0
C773 C 0.09226 0.24931 0.40258 0.0
C774 C 0.14061 0.41014 0.4012 0.0
C775 C 0.06694 0.27896 0.37657 0.0
C776 C 0.09115 0.47911 0.3606 0.0
C777 C 0.11036 0.47003 0.34805 0.0
C778 C 0.08752 0.43659 0.37354 0.0
C779 C 0.10329 0.38373 0.37377 0.0
C780 C 0.12115 0.37228 0.36036 0.0
C781 C 0.12456 0.41569 0.34773 0.0
C782 C 0.06824 0.45039 0.38758 0.0
C783 C 0.13804 0.31602 0.35995 0.0
H784 H 0.14309 0.31829 0.42322 0.0
H785 H 0.08081 0.20792 0.40274 0.0
H786 H 0.15444 0.40752 0.39034 0.0
H787 H 0.12834 0.45127 0.39955 0.0
H788 H 0.15254 0.41495 0.41289 0.0
H789 H 0.05323 0.24233 0.38052 0.0
H790 H 0.05512 0.31995 0.37377 0.0
H791 H 0.07687 0.26504 0.36472 0.0
H792 H 0.08013 0.52107 0.36093 0.0
H793 H 0.13922 0.40809 0.33795 0.0
H794 H 0.07949 0.4639 0.39898 0.0
H795 H 0.05641 0.4099 0.39088 0.0
H796 H 0.05446 0.48758 0.38419 0.0
H797 H 0.15303 0.31798 0.37019 0.0
H798 H 0.14866 0.31069 0.34777 0.0
H799 H 0.12561 0.27546 0.36212 0.0
C800 C 0.16976 0.25697 0.85935 0.0
C801 C 0.15123 0.26663 0.84646 0.0
C802 C 0.17075 0.29515 0.8734 0.0
C803 C 0.15347 0.34537 0.87419 0.0
C804 C 0.13577 0.35721 0.8607 0.0
C805 C 0.13443 0.31678 0.84714 0.0
C806 C 0.1892 0.27983 0.88777 0.0
C807 C 0.11777 0.41165 0.8608 0.0
C808 C 0.13208 0.4147 0.91568 0.0
C809 C 0.14931 0.46399 0.91684 0.0
C810 C 0.13416 0.37379 0.90228 0.0
C811 C 0.15311 0.38427 0.8894 0.0
C812 C 0.17087 0.43349 0.89071 0.0
C813 C 0.16907 0.47214 0.90461 0.0
C814 C 0.11557 0.32041 0.90164 0.0
C815 C 0.19068 0.44741 0.87696 0.0
H816 H 0.18238 0.21737 0.85895 0.0
H817 H 0.12005 0.32393 0.83717 0.0
H818 H 0.20209 0.31884 0.89084 0.0
H819 H 0.17733 0.26953 0.8992 0.0
H820 H 0.20204 0.24042 0.88491 0.0
H821 H 0.10731 0.41776 0.8486 0.0
H822 H 0.10266 0.40684 0.87087 0.0
H823 H 0.12941 0.45299 0.86355 0.0
H824 H 0.11675 0.4087 0.92514 0.0
H825 H 0.18205 0.51107 0.90536 0.0
H826 H 0.12692 0.27839 0.89923 0.0
H827 H 0.10128 0.3261 0.89113 0.0
H828 H 0.10415 0.31498 0.91352 0.0
H829 H 0.20326 0.4075 0.87431 0.0
H830 H 0.20381 0.48591 0.88025 0.0
H831 H 0.17991 0.45852 0.86516 0.0
C832 C 0.13905 0.74708 0.89725 0.0
C833 C 0.12402 0.75295 0.91199 0.0
C834 C 0.13678 0.78893 0.88416 0.0
C835 C 0.11969 0.83905 0.88613 0.0
C836 C 0.10397 0.84459 0.90087 0.0
C837 C 0.106 0.80065 0.91357 0.0
C838 C 0.15338 0.7805 0.86848 0.0
C839 C 0.08608 0.89829 0.90357 0.0
C840 C 0.14411 0.9748 0.86198 0.0
C841 C 0.12708 0.97544 0.84803 0.0
C842 C 0.14094 0.93249 0.87487 0.0
C843 C 0.12073 0.88843 0.87353 0.0
C844 C 0.10327 0.88902 0.85952 0.0
C845 C 0.10639 0.93336 0.84702 0.0
C846 C 0.15958 0.93433 0.88979 0.0
C847 C 0.08199 0.84168 0.85747 0.0
H848 H 0.15261 0.70937 0.89591 0.0
H849 H 0.09433 0.80485 0.92499 0.0
H850 H 0.14089 0.78568 0.85706 0.0
H851 H 0.16906 0.81559 0.86797 0.0
H852 H 0.16312 0.73559 0.86809 0.0
H853 H 0.07348 0.89328 0.91497 0.0
H854 H 0.09838 0.93949 0.90497 0.0
H855 H 0.07301 0.90522 0.89249 0.0
H856 H 0.15978 0.00817 0.86296 0.0
H857 H 0.09315 0.93415 0.83625 0.0
H858 H 0.17256 0.89391 0.88969 0.0
H859 H 0.14812 0.93356 0.90172 0.0
H860 H 0.17244 0.97505 0.88971 0.0
H861 H 0.09141 0.79681 0.85588 0.0
H862 H 0.06905 0.85054 0.84641 0.0
H863 H 0.06941 0.83938 0.86892 0.0
C864 C 0.84455 0.23757 0.6495 0.0
C865 C 0.86051 0.22483 0.66354 0.0
C866 C 0.84246 0.19631 0.63614 0.0
C867 C 0.85632 0.14085 0.63704 0.0
C868 C 0.87061 0.12588 0.65182 0.0
C869 C 0.87273 0.16828 0.66482 0.0
C870 C 0.82715 0.21405 0.62057 0.0
C871 C 0.88519 0.06665 0.65346 0.0
C872 C 0.84551 0.01105 0.60664 0.0
C873 C 0.86842 0.01512 0.59661 0.0
C874 C 0.8405 0.0534 0.6194 0.0
C875 C 0.85862 0.10129 0.62199 0.0
C876 C 0.88076 0.10788 0.61112 0.0
C877 C 0.88551 0.06444 0.59866 0.0
C878 C 0.8168 0.04456 0.6308 0.0
C879 C 0.90028 0.15904 0.61323 0.0
H880 H 0.8352 0.28143 0.64841 0.0
H881 H 0.88492 0.15813 0.67572 0.0
H882 H 0.84134 0.22503 0.61032 0.0
H883 H 0.81457 0.17623 0.61612 0.0
H884 H 0.81432 0.25401 0.6228 0.0
H885 H 0.89265 0.059 0.66645 0.0
H886 H 0.872 0.02862 0.64993 0.0
H887 H 0.9024 0.06613 0.64472 0.0
H888 H 0.83225 0.97291 0.60517 0.0
H889 H 0.9031 0.06814 0.59084 0.0
H890 H 0.806 0.08763 0.63263 0.0
H891 H 0.82373 0.02932 0.64336 0.0
H892 H 0.80274 0.01043 0.62576 0.0
H893 H 0.88962 0.2027 0.61408 0.0
H894 H 0.91473 0.16146 0.60267 0.0
H895 H 0.91152 0.15298 0.62513 0.0
C896 C 0.93152 0.49665 0.65133 0.0
C897 C 0.91417 0.50849 0.66475 0.0
C898 C 0.93481 0.5386 0.63824 0.0
C899 C 0.92073 0.59382 0.63879 0.0
C900 C 0.905 0.60793 0.65304 0.0
C901 C 0.90172 0.56485 0.66577 0.0
C902 C 0.95164 0.52178 0.62323 0.0
C903 C 0.89012 0.66687 0.65432 0.0
C904 C 0.9336 0.72442 0.60897 0.0
C905 C 0.91166 0.71981 0.59812 0.0
C906 C 0.93765 0.68208 0.62187 0.0
C907 C 0.91956 0.63369 0.62376 0.0
C908 C 0.89846 0.62668 0.61212 0.0
C909 C 0.89464 0.6701 0.59954 0.0
C910 C 0.96025 0.69132 0.6341 0.0
C911 C 0.87902 0.57501 0.61349 0.0
H912 H 0.94108 0.45298 0.65045 0.0
H913 H 0.88848 0.57435 0.67622 0.0
H914 H 0.93849 0.51075 0.61244 0.0
H915 H 0.96441 0.56006 0.61933 0.0
H916 H 0.96445 0.48209 0.62585 0.0
H917 H 0.88154 0.67398 0.66705 0.0
H918 H 0.90346 0.70523 0.65133 0.0
H919 H 0.87368 0.66738 0.64501 0.0
H920 H 0.94678 0.76291 0.60797 0.0
H921 H 0.87782 0.666 0.59108 0.0
H922 H 0.97108 0.64848 0.63628 0.0
H923 H 0.95215 0.70621 0.64641 0.0
H924 H 0.97457 0.72586 0.6296 0.0
H925 H 0.88981 0.53158 0.61461 0.0
H926 H 0.86548 0.57252 0.60246 0.0
H927 H 0.86679 0.58049 0.62501 0.0
C928 C 0.87255 0.57496 0.09724 0.0
C929 C 0.85825 0.52082 0.09812 0.0
C930 C 0.87007 0.61891 0.10981 0.0
C931 C 0.85313 0.60815 0.12372 0.0
C932 C 0.83721 0.55552 0.12408 0.0
C933 C 0.83984 0.51251 0.11118 0.0
C934 C 0.88703 0.67497 0.10876 0.0
C935 C 0.81893 0.54241 0.13869 0.0
C936 C 0.87958 0.68121 0.16337 0.0
C937 C 0.86443 0.73412 0.16421 0.0
C938 C 0.87489 0.638 0.15085 0.0
C939 C 0.85482 0.64836 0.13868 0.0
C940 C 0.8385 0.70013 0.13998 0.0
C941 C 0.8434 0.7423 0.15283 0.0
C942 C 0.89244 0.58282 0.15011 0.0
C943 C 0.81703 0.71295 0.12721 0.0
H944 H 0.8866 0.5819 0.08707 0.0
H945 H 0.82879 0.47066 0.11196 0.0
H946 H 0.8749 0.71572 0.11127 0.0
H947 H 0.90283 0.67299 0.11849 0.0
H948 H 0.89666 0.67994 0.09624 0.0
H949 H 0.80495 0.505 0.13585 0.0
H950 H 0.83096 0.52956 0.14983 0.0
H951 H 0.80729 0.58303 0.14214 0.0
H952 H 0.89568 0.67433 0.17224 0.0
H953 H 0.83166 0.78322 0.15337 0.0
H954 H 0.90546 0.5854 0.13885 0.0
H955 H 0.88017 0.5415 0.14888 0.0
H956 H 0.90522 0.57838 0.16145 0.0
H957 H 0.82633 0.72587 0.11507 0.0
H958 H 0.80372 0.75013 0.13129 0.0
H959 H 0.80486 0.67211 0.12487 0.0
C960 C 0.90028 0.07788 0.1667 0.0
C961 C 0.91474 0.02393 0.16636 0.0
C962 C 0.90347 0.12135 0.15405 0.0
C963 C 0.9212 0.11008 0.14057 0.0
C964 C 0.93722 0.05762 0.14077 0.0
C965 C 0.93394 0.01525 0.15377 0.0
C966 C 0.88641 0.17734 0.15452 0.0
C967 C 0.95626 0.04385 0.12661 0.0
C968 C 0.89618 0.17989 0.10013 0.0
C969 C 0.91094 0.23339 0.09936 0.0
C970 C 0.9006 0.1375 0.1129 0.0
C971 C 0.92009 0.14916 0.12535 0.0
C972 C 0.93622 0.20124 0.12405 0.0
C973 C 0.93155 0.2427 0.11099 0.0
C974 C 0.88325 0.08198 0.11363 0.0
C975 C 0.95716 0.21526 0.13707 0.0
H976 H 0.88562 0.08502 0.1765 0.0
H977 H 0.9451 0.97348 0.15341 0.0
H978 H 0.89862 0.21801 0.15203 0.0
H979 H 0.87106 0.17465 0.14451 0.0
H980 H 0.87622 0.18299 0.16683 0.0
H981 H 0.97026 0.00701 0.12995 0.0
H982 H 0.94482 0.0298 0.11532 0.0
H983 H 0.96787 0.08446 0.12312 0.0
H984 H 0.88042 0.1721 0.09107 0.0
H985 H 0.94301 0.28404 0.11049 0.0
H986 H 0.86968 0.08512 0.12461 0.0
H987 H 0.89561 0.04102 0.11534 0.0
H988 H 0.87104 0.07643 0.10208 0.0
H989 H 0.94736 0.22954 0.14893 0.0
H990 H 0.97067 0.25195 0.1329 0.0
H991 H 0.96919 0.17466 0.13996 0.0
C992 C 0.66446 0.80807 0.84678 0.0
C993 C 0.64471 0.76356 0.84716 0.0
C994 C 0.66676 0.85009 0.85997 0.0
C995 C 0.64941 0.84607 0.87399 0.0
C996 C 0.63003 0.79998 0.87462 0.0
C997 C 0.62769 0.75992 0.86112 0.0
C998 C 0.6872 0.89966 0.8587 0.0
C999 C 0.61147 0.79338 0.88947 0.0
C1000 C 0.6635 0.9273 0.91525 0.0
C1001 C 0.6452 0.97474 0.91434 0.0
C1002 C 0.66566 0.88545 0.902 0.0
C1003 C 0.64971 0.89266 0.88741 0.0
C1004 C 0.63202 0.94197 0.88623 0.0
C1005 C 0.62972 0.98181 0.89979 0.0
C1006 C 0.68425 0.83251 0.90384 0.0
C1007 C 0.61506 0.95205 0.87078 0.0
H1008 H 0.67773 0.81066 0.83606 0.0
H1009 H 0.61274 0.72477 0.86166 0.0
H1010 H 0.67704 0.94401 0.85815 0.0
H1011 H 0.70003 0.89991 0.87005 0.0
H1012 H 0.69998 0.89488 0.84737 0.0
H1013 H 0.59917 0.75189 0.88868 0.0
H1014 H 0.62298 0.79217 0.90139 0.0
H1015 H 0.59797 0.83283 0.89012 0.0
H1016 H 0.67559 0.9221 0.92645 0.0
H1017 H 0.61595 0.01928 0.89888 0.0
H1018 H 0.69775 0.8297 0.89283 0.0
H1019 H 0.67257 0.7901 0.90419 0.0
H1020 H 0.69642 0.83534 0.91548 0.0
H1021 H 0.62753 0.95089 0.85926 0.0
H1022 H 0.60434 -0.0042 0.87119 0.0
H1023 H 0.60017 0.91539 0.86967 0.0
C1024 C 0.64643 0.25707 0.90065 0.0
C1025 C 0.62953 0.26142 0.91463 0.0
C1026 C 0.64462 0.29792 0.88729 0.0
C1027 C 0.62596 0.34548 0.88813 0.0
C1028 C 0.60883 0.35034 0.90224 0.0
C1029 C 0.61053 0.30752 0.91525 0.0
C1030 C 0.66284 0.29036 0.8723 0.0
C1031 C 0.58921 0.40149 0.90375 0.0
C1032 C 0.64581 0.48134 0.86232 0.0
C1033 C 0.62934 0.47591 0.84816 0.0
C1034 C 0.64402 0.44063 0.87572 0.0
C1035 C 0.62586 0.39212 0.87473 0.0
C1036 C 0.60912 0.38628 0.86046 0.0
C1037 C 0.61076 0.42899 0.84742 0.0
C1038 C 0.66178 0.44926 0.89087 0.0
C1039 C 0.59005 0.33411 0.85879 0.0
H1040 H 0.6608 0.22072 0.89997 0.0
H1041 H 0.59738 0.3107 0.92602 0.0
H1042 H 0.65109 0.28989 0.86048 0.0
H1043 H 0.67676 0.32903 0.87156 0.0
H1044 H 0.67468 0.24817 0.873 0.0
H1045 H 0.57683 0.39792 0.91529 0.0
H1046 H 0.60003 0.44507 0.90404 0.0
H1047 H 0.57591 0.40246 0.89262 0.0
H1048 H 0.65984 0.51835 0.86309 0.0
H1049 H 0.59796 0.42499 0.8365 0.0
H1050 H 0.67614 0.41145 0.89175 0.0
H1051 H 0.64977 0.44899 0.90259 0.0
H1052 H 0.67314 0.49215 0.89029 0.0
H1053 H 0.60133 0.29113 0.85854 0.0
H1054 H 0.57783 0.33713 0.84717 0.0
H1055 H 0.57659 0.33232 0.86984 0.0
C1056 C 0.65807 0.32014 0.34542 0.0
C1057 C 0.64019 0.27187 0.34645 0.0
C1058 C 0.65972 0.36279 0.35845 0.0
C1059 C 0.64363 0.35579 0.37296 0.0
C1060 C 0.62585 0.30664 0.37413 0.0
C1061 C 0.6241 0.26577 0.36077 0.0
C1062 C 0.67841 0.41562 0.35663 0.0
C1063 C 0.60871 0.29702 0.38953 0.0
C1064 C 0.66158 0.43731 0.41349 0.0
C1065 C 0.64284 0.484 0.41352 0.0
C1066 C 0.66226 0.39522 0.40028 0.0
C1067 C 0.64426 0.40125 0.38665 0.0
C1068 C 0.62572 0.44909 0.38649 0.0
C1069 C 0.62501 0.48937 0.40003 0.0
C1070 C 0.68185 0.34378 0.40102 0.0
C1071 C 0.60656 0.45772 0.37204 0.0
H1072 H 0.67057 0.32481 0.33438 0.0
H1073 H 0.61055 0.22794 0.36177 0.0
H1074 H 0.66701 0.45838 0.35722 0.0
H1075 H 0.69281 0.41618 0.3672 0.0
H1076 H 0.68962 0.41438 0.34459 0.0
H1077 H 0.59706 0.25456 0.38884 0.0
H1078 H 0.62129 0.29571 0.401 0.0
H1079 H 0.59467 0.33519 0.39099 0.0
H1080 H 0.67543 0.43325 0.42388 0.0
H1081 H 0.61078 0.52608 0.39984 0.0
H1082 H 0.69466 0.34402 0.38966 0.0
H1083 H 0.671 0.30023 0.40113 0.0
H1084 H 0.69474 0.34601 0.41237 0.0
H1085 H 0.61757 0.45963 0.35995 0.0
H1086 H 0.5946 0.49955 0.37334 0.0
H1087 H 0.59276 0.41881 0.37132 0.0
C1088 C 0.65399 0.77003 0.40186 0.0
C1089 C 0.63612 0.77375 0.41539 0.0
C1090 C 0.65262 0.81029 0.38835 0.0
C1091 C 0.63333 0.85658 0.38853 0.0
C1092 C 0.61536 0.8612 0.40221 0.0
C1093 C 0.61672 0.81907 0.41542 0.0
C1094 C 0.67182 0.80311 0.37385 0.0
C1095 C 0.59498 0.91102 0.40298 0.0
C1096 C 0.65207 0.99128 0.3619 0.0
C1097 C 0.63643 0.98274 0.34747 0.0
C1098 C 0.65037 0.95188 0.37561 0.0
C1099 C 0.63313 0.90168 0.37472 0.0
C1100 C 0.61732 0.89252 0.36017 0.0
C1101 C 0.61888 0.93378 0.34677 0.0
C1102 C 0.6672 0.96382 0.39102 0.0
C1103 C 0.59922 0.83855 0.35863 0.0
H1104 H 0.66875 0.73445 0.40158 0.0
H1105 H 0.60282 0.82187 0.42582 0.0
H1106 H 0.66076 0.79993 0.36179 0.0
H1107 H 0.68492 0.84322 0.37302 0.0
H1108 H 0.68452 0.76244 0.37518 0.0
H1109 H 0.58234 0.90809 0.41442 0.0
H1110 H 0.60512 0.95544 0.40289 0.0
H1111 H 0.58198 0.90935 0.39171 0.0
H1112 H 0.6653 0.02976 0.36265 0.0
H1113 H 0.60667 0.92732 0.33567 0.0
H1114 H 0.68202 0.92725 0.39258 0.0
H1115 H 0.65457 0.96415 0.40247 0.0
H1116 H 0.67796 0.00745 0.39022 0.0
H1117 H 0.61117 0.79655 0.35915 0.0
H1118 H 0.58769 0.83887 0.34671 0.0
H1119 H 0.58512 0.8372 0.36936 0.0
C1120 C 0.36069 0.17427 0.16648 0.0
C1121 C 0.37994 0.21975 0.16547 0.0
C1122 C 0.35834 0.131 0.15362 0.0
C1123 C 0.37509 0.13478 0.13931 0.0
C1124 C 0.39399 0.1817 0.13808 0.0
C1125 C 0.39642 0.22302 0.15126 0.0
C1126 C 0.33842 0.08059 0.15551 0.0
C1127 C 0.41187 0.18805 0.12288 0.0
C1128 C 0.39434 -0.00086 0.11334 0.0
C1129 C 0.37806 0.00562 0.09913 0.0
C1130 C 0.39246 0.03909 0.1269 0.0
C1131 C 0.37439 0.08778 0.12604 0.0
C1132 C 0.35767 0.09433 0.11179 0.0
C1133 C 0.35943 0.05247 0.09856 0.0
C1134 C 0.41026 0.02984 0.14201 0.0
C1135 C 0.33865 0.14665 0.11028 0.0
H1136 H 0.34786 0.17193 0.17743 0.0
H1137 H 0.41098 0.25888 0.15025 0.0
H1138 H 0.32493 0.07943 0.14447 0.0
H1139 H 0.34898 0.0367 0.15592 0.0
H1140 H 0.32628 0.08521 0.16712 0.0
H1141 H 0.42403 0.22982 0.12332 0.0
H1142 H 0.4255 0.14886 0.12211 0.0
H1143 H 0.39983 0.18853 0.11118 0.0
H1144 H 0.40838 0.96213 0.11397 0.0
H1145 H 0.34675 0.05722 0.0876 0.0
H1146 H 0.39838 0.03096 0.15378 0.0
H1147 H 0.425 0.06694 0.14275 0.0
H1148 H 0.42119 0.98638 0.14145 0.0
H1149 H 0.32571 0.14924 0.12156 0.0
H1150 H 0.32589 0.14323 0.0989 0.0
H1151 H 0.35003 0.18942 0.10962 0.0
C1152 C 0.41487 0.55269 0.16324 0.0
C1153 C 0.39554 0.50724 0.16309 0.0
C1154 C 0.4166 0.5943 0.14992 0.0
C1155 C 0.39912 0.58889 0.13601 0.0
C1156 C 0.38023 0.54173 0.13559 0.0
C1157 C 0.37842 0.50207 0.14924 0.0
C1158 C 0.43651 0.64504 0.15098 0.0
C1159 C 0.36158 0.53369 0.12085 0.0
C1160 C 0.37821 0.72482 0.11065 0.0
C1161 C 0.39397 0.71954 0.09616 0.0
C1162 C 0.38059 0.68399 0.12396 0.0
C1163 C 0.39866 0.63546 0.12259 0.0
C1164 C 0.41471 0.62971 0.108 0.0
C1165 C 0.41248 0.67257 0.09501 0.0
C1166 C 0.36353 0.69256 0.13944 0.0
C1167 C 0.43369 0.57757 0.10596 0.0
H1168 H 0.42821 0.55646 0.1739 0.0
H1169 H 0.36382 0.46615 0.14891 0.0
H1170 H 0.4491 0.64595 0.13952 0.0
H1171 H 0.42586 0.68879 0.15159 0.0
H1172 H 0.44957 0.64111 0.1622 0.0
H1173 H 0.34987 0.49135 0.12175 0.0
H1174 H 0.34752 0.57215 0.12026 0.0
H1175 H 0.37292 0.53323 0.10887 0.0
H1176 H 0.36427 0.76187 0.11176 0.0
H1177 H 0.42477 0.66871 0.08385 0.0
H1178 H 0.37607 0.69232 0.15093 0.0
H1179 H 0.34923 0.65471 0.14058 0.0
H1180 H 0.35212 0.73542 0.13909 0.0
H1181 H 0.44761 0.57565 0.11677 0.0
H1182 H 0.44542 0.58072 0.09414 0.0
H1183 H 0.4224 0.5346 0.10586 0.0
C1184 C 0.34604 0.74453 0.64883 0.0
C1185 C 0.36604 0.73485 0.66084 0.0
C1186 C 0.34202 0.70347 0.63559 0.0
C1187 C 0.35811 0.65126 0.63457 0.0
C1188 C 0.37708 0.63943 0.64732 0.0
C1189 C 0.38098 0.68163 0.66021 0.0
C1190 C 0.32177 0.7179 0.62217 0.0
C1191 C 0.39428 0.58364 0.6469 0.0
C1192 C 0.34417 0.51717 0.60629 0.0
C1193 C 0.36384 0.5247 0.59395 0.0
C1194 C 0.34083 0.55998 0.61915 0.0
C1195 C 0.35727 0.61177 0.61945 0.0
C1196 C 0.37551 0.62197 0.60617 0.0
C1197 C 0.37875 0.57803 0.59367 0.0
C1198 C 0.32126 0.54732 0.63311 0.0
C1199 C 0.393 0.67728 0.6058 0.0
H1200 H 0.33451 0.78579 0.64922 0.0
H1201 H 0.39628 0.67369 0.66957 0.0
H1202 H 0.3322 0.731 0.61041 0.0
H1203 H 0.30947 0.67776 0.61925 0.0
H1204 H 0.30845 0.75548 0.62595 0.0
H1205 H 0.40609 0.5781 0.65862 0.0
H1206 H 0.38184 0.54286 0.6451 0.0
H1207 H 0.40822 0.58632 0.6361 0.0
H1208 H 0.33267 0.47586 0.6066 0.0
H1209 H 0.3938 0.58427 0.58405 0.0
H1210 H 0.30975 0.58837 0.63631 0.0
H1211 H 0.33227 0.53352 0.6446 0.0
H1212 H 0.30719 0.5107 0.62973 0.0
H1213 H 0.38105 0.71847 0.60812 0.0
H1214 H 0.40354 0.68231 0.59359 0.0
H1215 H 0.40808 0.67416 0.61596 0.0
C1216 C 0.39697 0.18148 0.59918 0.0
C1217 C 0.41193 0.2347 0.59858 0.0
C1218 C 0.40071 0.13932 0.61211 0.0
C1219 C 0.41954 0.1512 0.62495 0.0
C1220 C 0.43562 0.20344 0.62398 0.0
C1221 C 0.43177 0.24443 0.6107 0.0
C1222 C 0.38353 0.0835 0.61247 0.0
C1223 C 0.45571 0.21796 0.6375 0.0
C1224 C 0.39891 0.07779 0.66588 0.0
C1225 C 0.41401 0.02474 0.66569 0.0
C1226 C 0.40202 0.12163 0.65332 0.0
C1227 C 0.42033 0.1116 0.64007 0.0
C1228 C 0.4369 0.06005 0.64043 0.0
C1229 C 0.4337 0.01736 0.65335 0.0
C1230 C 0.38438 0.17669 0.65363 0.0
C1231 C 0.45653 0.04754 0.62649 0.0
H1232 H 0.38178 0.1735 0.58976 0.0
H1233 H 0.4433 0.28569 0.61035 0.0
H1234 H 0.39598 0.04275 0.61432 0.0
H1235 H 0.3695 0.08614 0.62322 0.0
H1236 H 0.37183 0.07794 0.60071 0.0
H1237 H 0.46896 0.25579 0.63381 0.0
H1238 H 0.44514 0.23066 0.64924 0.0
H1239 H 0.4681 0.17794 0.64041 0.0
H1240 H 0.38383 0.0839 0.67548 0.0
H1241 H 0.44534 0.97626 0.65308 0.0
H1242 H 0.36939 0.17336 0.64342 0.0
H1243 H 0.39624 0.21803 0.65134 0.0
H1244 H 0.37374 0.18158 0.66581 0.0
H1245 H 0.44557 0.03388 0.61497 0.0
H1246 H 0.4706 0.01089 0.62987 0.0
H1247 H 0.46806 0.08864 0.62335 0.0
loop_
_geom_bond_atom_site_label_1
_geom_bond_atom_site_label_2
_geom_bond_distance
_geom_bond_site_symmetry_2
_ccdc_geom_bond_type
O0 Cd1 2.223 . S
O0 C8 1.315 . S
Cd1 O0 2.223 . S
Cd1 O4 2.297 . S
Cd1 O5 2.439 . S
Cd1 O11 2.240 . S
Cd2 O3 2.240 . S
Cd2 O10 2.223 . S
Cd2 O12 2.297 . S
Cd2 O13 2.439 . S
O3 Cd2 2.240 . S
O3 C8 1.279 . S
O4 Cd1 2.297 . S
O4 C6 1.247 . S
O5 Cd1 2.439 . S
O5 C6 1.208 . S
C6 O4 1.247 . S
C6 O5 1.208 . S
C7 O12 1.247 . S
C7 O13 1.208 . S
C8 O0 1.315 . S
C8 O3 1.279 . S
C9 O10 1.315 . S
C9 O11 1.279 . S
O10 Cd2 2.223 . S
O10 C9 1.315 . S
O11 Cd1 2.240 . S
O11 C9 1.279 . S
O12 Cd2 2.297 . S
O12 C7 1.247 . S
O13 Cd2 2.439 . S
O13 C7 1.208 . S
O14 Cd15 2.223 . S
O14 C22 1.315 . S
Cd15 O14 2.223 . S
Cd15 O18 2.297 . S
Cd15 O19 2.439 . S
Cd15 O25 2.240 . S
Cd16 O17 2.240 . S
Cd16 O24 2.223 . S
Cd16 O26 2.297 . S
Cd16 O27 2.439 . S
O17 Cd16 2.240 . S
O17 C22 1.279 . S
O18 Cd15 2.297 . S
O18 C20 1.247 . S
O19 Cd15 2.439 . S
O19 C20 1.208 . S
C20 O18 1.247 . S
C20 O19 1.208 . S
C21 O26 1.247 . S
C21 O27 1.208 . S
C22 O14 1.315 . S
C22 O17 1.279 . S
C23 O24 1.315 . S
C23 O25 1.279 . S
O24 Cd16 2.223 . S
O24 C23 1.315 . S
O25 Cd15 2.240 . S
O25 C23 1.279 . S
O26 Cd16 2.297 . S
O26 C21 1.247 . S
O27 Cd16 2.439 . S
O27 C21 1.208 . S
O28 Cd29 2.223 . S
O28 C36 1.315 . S
Cd29 O28 2.223 . S
Cd29 O32 2.297 . S
Cd29 O33 2.439 . S
Cd29 O39 2.240 . S
Cd30 O31 2.240 . S
Cd30 O38 2.223 . S
Cd30 O40 2.297 . S
Cd30 O41 2.439 . S
O31 Cd30 2.240 . S
O31 C36 1.279 . S
O32 Cd29 2.297 . S
O32 C34 1.247 . S
O33 Cd29 2.439 . S
O33 C34 1.208 . S
C34 O32 1.247 . S
C34 O33 1.208 . S
C35 O40 1.247 . S
C35 O41 1.208 . S
C36 O28 1.315 . S
C36 O31 1.279 . S
C37 O38 1.315 . S
C37 O39 1.279 . S
O38 Cd30 2.223 . S
O38 C37 1.315 . S
O39 Cd29 2.240 . S
O39 C37 1.279 . S
O40 Cd30 2.297 . S
O40 C35 1.247 . S
O41 Cd30 2.439 . S
O41 C35 1.208 . S
O42 Cd43 2.223 . S
O42 C50 1.315 . S
Cd43 O42 2.223 . S
Cd43 O46 2.297 . S
Cd43 O47 2.439 . S
Cd43 O53 2.240 . S
Cd44 O45 2.240 . S
Cd44 O52 2.223 . S
Cd44 O54 2.297 . S
Cd44 O55 2.439 . S
O45 Cd44 2.240 . S
O45 C50 1.279 . S
O46 Cd43 2.297 . S
O46 C48 1.247 . S
O47 Cd43 2.439 . S
O47 C48 1.208 . S
C48 O46 1.247 . S
C48 O47 1.208 . S
C49 O54 1.247 . S
C49 O55 1.208 . S
C50 O42 1.315 . S
C50 O45 1.279 . S
C51 O52 1.315 . S
C51 O53 1.279 . S
O52 Cd44 2.223 . S
O52 C51 1.315 . S
O53 Cd43 2.240 . S
O53 C51 1.279 . S
O54 Cd44 2.297 . S
O54 C49 1.247 . S
O55 Cd44 2.439 . S
O55 C49 1.208 . S
O56 Cd57 2.223 . S
O56 C64 1.315 . S
Cd57 O56 2.223 . S
Cd57 O60 2.297 . S
Cd57 O61 2.439 . S
Cd57 O67 2.240 . S
Cd58 O59 2.240 . S
Cd58 O66 2.223 . S
Cd58 O68 2.297 . S
Cd58 O69 2.439 . S
O59 Cd58 2.240 . S
O59 C64 1.279 . S
O60 Cd57 2.297 . S
O60 C62 1.247 . S
O61 Cd57 2.439 . S
O61 C62 1.208 . S
C62 O60 1.247 . S
C62 O61 1.208 . S
C63 O68 1.247 . S
C63 O69 1.208 . S
C64 O56 1.315 . S
C64 O59 1.279 . S
C65 O66 1.315 . S
C65 O67 1.279 . S
O66 Cd58 2.223 . S
O66 C65 1.315 . S
O67 Cd57 2.240 . S
O67 C65 1.279 . S
O68 Cd58 2.297 . S
O68 C63 1.247 . S
O69 Cd58 2.439 . S
O69 C63 1.208 . S
O70 Cd71 2.223 . S
O70 C78 1.315 . S
Cd71 O70 2.223 . S
Cd71 O74 2.297 . S
Cd71 O75 2.439 . S
Cd71 O81 2.240 . S
Cd72 O73 2.240 . S
Cd72 O80 2.223 . S
Cd72 O82 2.297 . S
Cd72 O83 2.439 . S
O73 Cd72 2.240 . S
O73 C78 1.279 . S
O74 Cd71 2.297 . S
O74 C76 1.247 . S
O75 Cd71 2.439 . S
O75 C76 1.208 . S
C76 O74 1.247 . S
C76 O75 1.208 . S
C77 O82 1.247 . S
C77 O83 1.208 . S
C78 O70 1.315 . S
C78 O73 1.279 . S
C79 O80 1.315 . S
C79 O81 1.279 . S
O80 Cd72 2.223 . S
O80 C79 1.315 . S
O81 Cd71 2.240 . S
O81 C79 1.279 . S
O82 Cd72 2.297 . S
O82 C77 1.247 . S
O83 Cd72 2.439 . S
O83 C77 1.208 . S
O84 Cd85 2.223 . S
O84 C92 1.315 . S
Cd85 O84 2.223 . S
Cd85 O88 2.297 . S
Cd85 O89 2.439 . S
Cd85 O95 2.240 . S
Cd86 O87 2.240 . S
Cd86 O94 2.223 . S
Cd86 O96 2.297 . S
Cd86 O97 2.439 . S
O87 Cd86 2.240 . S
O87 C92 1.279 . S
O88 Cd85 2.297 . S
O88 C90 1.247 . S
O89 Cd85 2.439 . S
O89 C90 1.208 . S
C90 O88 1.247 . S
C90 O89 1.208 . S
C91 O96 1.247 . S
C91 O97 1.208 . S
C92 O84 1.315 . S
C92 O87 1.279 . S
C93 O94 1.315 . S
C93 O95 1.279 . S
O94 Cd86 2.223 . S
O94 C93 1.315 . S
O95 Cd85 2.240 . S
O95 C93 1.279 . S
O96 Cd86 2.297 . S
O96 C91 1.247 . S
O97 Cd86 2.439 . S
O97 C91 1.208 . S
O98 Cd99 2.223 . S
O98 C106 1.315 . S
Cd99 O98 2.223 . S
Cd99 O102 2.297 . S
Cd99 O103 2.439 . S
Cd99 O109 2.240 . S
Cd100 O101 2.240 . S
Cd100 O108 2.223 . S
Cd100 O110 2.297 . S
Cd100 O111 2.439 . S
O101 Cd100 2.240 . S
O101 C106 1.279 . S
O102 Cd99 2.297 . S
O102 C104 1.247 . S
O103 Cd99 2.439 . S
O103 C104 1.208 . S
C104 O102 1.247 . S
C104 O103 1.208 . S
C105 O110 1.247 . S
C105 O111 1.208 . S
C106 O98 1.315 . S
C106 O101 1.279 . S
C107 O108 1.315 . S
C107 O109 1.279 . S
O108 Cd100 2.223 . S
O108 C107 1.315 . S
O109 Cd99 2.240 . S
O109 C107 1.279 . S
O110 Cd100 2.297 . S
O110 C105 1.247 . S
O111 Cd100 2.439 . S
O111 C105 1.208 . S
O112 Cd113 2.223 . S
O112 C120 1.315 . S
Cd113 O112 2.223 . S
Cd113 O116 2.297 . S
Cd113 O117 2.439 . S
Cd113 O123 2.240 . S
Cd114 O115 2.240 . S
Cd114 O122 2.223 . S
Cd114 O124 2.297 . S
Cd114 O125 2.439 . S
O115 Cd114 2.240 . S
O115 C120 1.279 . S
O116 Cd113 2.297 . S
O116 C118 1.247 . S
O117 Cd113 2.439 . S
O117 C118 1.208 . S
C118 O116 1.247 . S
C118 O117 1.208 . S
C119 O124 1.247 . S
C119 O125 1.208 . S
C120 O112 1.315 . S
C120 O115 1.279 . S
C121 O122 1.315 . S
C121 O123 1.279 . S
O122 Cd114 2.223 . S
O122 C121 1.315 . S
O123 Cd113 2.240 . S
O123 C121 1.279 . S
O124 Cd114 2.297 . S
O124 C119 1.247 . S
O125 Cd114 2.439 . S
O125 C119 1.208 . S
O126 Cd127 2.223 . S
O126 C134 1.315 . S
Cd127 O126 2.223 . S
Cd127 O130 2.297 . S
Cd127 O131 2.439 . S
Cd127 O137 2.240 . S
Cd128 O129 2.240 . S
Cd128 O136 2.223 . S
Cd128 O138 2.297 . S
Cd128 O139 2.439 . S
O129 Cd128 2.240 . S
O129 C134 1.279 . S
O130 Cd127 2.297 . S
O130 C132 1.247 . S
O131 Cd127 2.439 . S
O131 C132 1.208 . S
C132 O130 1.247 . S
C132 O131 1.208 . S
C133 O138 1.247 . S
C133 O139 1.208 . S
C134 O126 1.315 . S
C134 O129 1.279 . S
C135 O136 1.315 . S
C135 O137 1.279 . S
O136 Cd128 2.223 . S
O136 C135 1.315 . S
O137 Cd127 2.240 . S
O137 C135 1.279 . S
O138 Cd128 2.297 . S
O138 C133 1.247 . S
O139 Cd128 2.439 . S
O139 C133 1.208 . S
O140 Cd141 2.223 . S
O140 C148 1.315 . S
Cd141 O140 2.223 . S
Cd141 O144 2.297 . S
Cd141 O145 2.439 . S
Cd141 O151 2.240 . S
Cd142 O143 2.240 . S
Cd142 O150 2.223 . S
Cd142 O152 2.297 . S
Cd142 O153 2.439 . S
O143 Cd142 2.240 . S
O143 C148 1.279 . S
O144 Cd141 2.297 . S
O144 C146 1.247 . S
O145 Cd141 2.439 . S
O145 C146 1.208 . S
C146 O144 1.247 . S
C146 O145 1.208 . S
C147 O152 1.247 . S
C147 O153 1.208 . S
C148 O140 1.315 . S
C148 O143 1.279 . S
C149 O150 1.315 . S
C149 O151 1.279 . S
O150 Cd142 2.223 . S
O150 C149 1.315 . S
O151 Cd141 2.240 . S
O151 C149 1.279 . S
O152 Cd142 2.297 . S
O152 C147 1.247 . S
O153 Cd142 2.439 . S
O153 C147 1.208 . S
O154 Cd155 2.223 . S
O154 C162 1.315 . S
Cd155 O154 2.223 . S
Cd155 O158 2.297 . S
Cd155 O159 2.439 . S
Cd155 O165 2.240 . S
Cd156 O157 2.240 . S
Cd156 O164 2.223 . S
Cd156 O166 2.297 . S
Cd156 O167 2.439 . S
O157 Cd156 2.240 . S
O157 C162 1.279 . S
O158 Cd155 2.297 . S
O158 C160 1.247 . S
O159 Cd155 2.439 . S
O159 C160 1.208 . S
C160 O158 1.247 . S
C160 O159 1.208 . S
C161 O166 1.247 . S
C161 O167 1.208 . S
C162 O154 1.315 . S
C162 O157 1.279 . S
C163 O164 1.315 . S
C163 O165 1.279 . S
O164 Cd156 2.223 . S
O164 C163 1.315 . S
O165 Cd155 2.240 . S
O165 C163 1.279 . S
O166 Cd156 2.297 . S
O166 C161 1.247 . S
O167 Cd156 2.439 . S
O167 C161 1.208 . S
O168 Cd169 2.223 . S
O168 C176 1.315 . S
Cd169 O168 2.223 . S
Cd169 O172 2.297 . S
Cd169 O173 2.439 . S
Cd169 O179 2.240 . S
Cd170 O171 2.240 . S
Cd170 O178 2.223 . S
Cd170 O180 2.297 . S
Cd170 O181 2.439 . S
O171 Cd170 2.240 . S
O171 C176 1.279 . S
O172 Cd169 2.297 . S
O172 C174 1.247 . S
O173 Cd169 2.439 . S
O173 C174 1.208 . S
C174 O172 1.247 . S
C174 O173 1.208 . S
C175 O180 1.247 . S
C175 O181 1.208 . S
C176 O168 1.315 . S
C176 O171 1.279 . S
C177 O178 1.315 . S
C177 O179 1.279 . S
O178 Cd170 2.223 . S
O178 C177 1.315 . S
O179 Cd169 2.240 . S
O179 C177 1.279 . S
O180 Cd170 2.297 . S
O180 C175 1.247 . S
O181 Cd170 2.439 . S
O181 C175 1.208 . S
O182 Cd183 2.223 . S
O182 C190 1.315 . S
Cd183 O182 2.223 . S
Cd183 O186 2.297 . S
Cd183 O187 2.439 . S
Cd183 O193 2.240 . S
Cd184 O185 2.240 . S
Cd184 O192 2.223 . S
Cd184 O194 2.297 . S
Cd184 O195 2.439 . S
O185 Cd184 2.240 . S
O185 C190 1.279 . S
O186 Cd183 2.297 . S
O186 C188 1.247 . S
O187 Cd183 2.439 . S
O187 C188 1.208 . S
C188 O186 1.247 . S
C188 O187 1.208 . S
C189 O194 1.247 . S
C189 O195 1.208 . S
C190 O182 1.315 . S
C190 O185 1.279 . S
C191 O192 1.315 . S
C191 O193 1.279 . S
O192 Cd184 2.223 . S
O192 C191 1.315 . S
O193 Cd183 2.240 . S
O193 C191 1.279 . S
O194 Cd184 2.297 . S
O194 C189 1.247 . S
O195 Cd184 2.439 . S
O195 C189 1.208 . S
O196 Cd197 2.223 . S
O196 C204 1.315 . S
Cd197 O196 2.223 . S
Cd197 O200 2.297 . S
Cd197 O201 2.439 . S
Cd197 O207 2.240 . S
Cd198 O199 2.240 . S
Cd198 O206 2.223 . S
Cd198 O208 2.297 . S
Cd198 O209 2.439 . S
O199 Cd198 2.240 . S
O199 C204 1.279 . S
O200 Cd197 2.297 . S
O200 C202 1.247 . S
O201 Cd197 2.439 . S
O201 C202 1.208 . S
C202 O200 1.247 . S
C202 O201 1.208 . S
C203 O208 1.247 . S
C203 O209 1.208 . S
C204 O196 1.315 . S
C204 O199 1.279 . S
C205 O206 1.315 . S
C205 O207 1.279 . S
O206 Cd198 2.223 . S
O206 C205 1.315 . S
O207 Cd197 2.240 . S
O207 C205 1.279 . S
O208 Cd198 2.297 . S
O208 C203 1.247 . S
O209 Cd198 2.439 . S
O209 C203 1.208 . S
O210 Cd211 2.223 . S
O210 C218 1.315 . S
Cd211 O210 2.223 . S
Cd211 O214 2.297 . S
Cd211 O215 2.439 . S
Cd211 O221 2.240 . S
Cd212 O213 2.240 . S
Cd212 O220 2.223 . S
Cd212 O222 2.297 . S
Cd212 O223 2.439 . S
O213 Cd212 2.240 . S
O213 C218 1.279 . S
O214 Cd211 2.297 . S
O214 C216 1.247 . S
O215 Cd211 2.439 . S
O215 C216 1.208 . S
C216 O214 1.247 . S
C216 O215 1.208 . S
C217 O222 1.247 . S
C217 O223 1.208 . S
C218 O210 1.315 . S
C218 O213 1.279 . S
C219 O220 1.315 . S
C219 O221 1.279 . S
O220 Cd212 2.223 . S
O220 C219 1.315 . S
O221 Cd211 2.240 . S
O221 C219 1.279 . S
O222 Cd212 2.297 . S
O222 C217 1.247 . S
O223 Cd212 2.439 . S
O223 C217 1.208 . S
C224 C225 1.391 . S
C224 C226 1.394 . S
C224 H240 0.931 . S
C225 C224 1.391 . S
C225 C229 1.376 . S
C226 C224 1.394 . S
C226 C227 1.369 . S
C226 C230 1.531 . S
C227 C226 1.369 . S
C227 C228 1.410 . S
C227 C235 1.503 . S
C228 C227 1.410 . S
C228 C229 1.392 . S
C228 C231 1.511 . S
C229 C225 1.376 . S
C229 C228 1.392 . S
C229 H241 0.929 . S
C230 C226 1.531 . S
C230 H242 0.960 . S
C230 H243 0.962 . S
C230 H244 0.960 . S
C231 C228 1.511 . S
C231 H245 0.961 . S
C231 H246 0.961 . S
C231 H247 0.961 . S
C232 C233 1.370 . S
C232 C234 1.363 . S
C232 H248 0.931 . S
C233 C232 1.370 . S
C233 C237 1.408 . S
C234 C232 1.363 . S
C234 C235 1.370 . S
C234 C238 1.524 . S
C235 C227 1.503 . S
C235 C234 1.370 . S
C235 C236 1.403 . S
C236 C235 1.403 . S
C236 C237 1.404 . S
C236 C239 1.539 . S
C237 C233 1.408 . S
C237 C236 1.404 . S
C237 H249 0.930 . S
C238 C234 1.524 . S
C238 H250 0.956 . S
C238 H251 0.961 . S
C238 H252 0.961 . S
C239 C236 1.539 . S
C239 H253 0.958 . S
C239 H254 0.961 . S
C239 H255 0.960 . S
H240 C224 0.931 . S
H241 C229 0.929 . S
H242 C230 0.960 . S
H243 C230 0.962 . S
H244 C230 0.960 . S
H245 C231 0.961 . S
H246 C231 0.961 . S
H247 C231 0.961 . S
H248 C232 0.931 . S
H249 C237 0.930 . S
H250 C238 0.956 . S
H251 C238 0.961 . S
H252 C238 0.961 . S
H253 C239 0.958 . S
H254 C239 0.961 . S
H255 C239 0.960 . S
C256 C257 1.391 . S
C256 C258 1.394 . S
C256 H272 0.931 . S
C257 C256 1.391 . S
C257 C261 1.376 1_565 S
C258 C256 1.394 . S
C258 C259 1.369 . S
C258 C262 1.542 . S
C259 C258 1.369 . S
C259 C260 1.410 1_565 S
C259 C267 1.503 1_665 S
C260 C259 1.410 1_545 S
C260 C261 1.392 . S
C260 C263 1.511 . S
C261 C257 1.376 1_545 S
C261 C260 1.392 . S
C261 H273 0.929 . S
C262 C258 1.542 . S
C262 H274 0.954 1_655 S
C262 H275 0.948 1_655 S
C262 H276 0.970 . S
C263 C260 1.511 . S
C263 H277 0.961 . S
C263 H278 0.961 . S
C263 H279 0.961 . S
C264 C265 1.370 . S
C264 C266 1.363 . S
C264 H280 0.931 . S
C265 C264 1.370 . S
C265 C269 1.408 . S
C266 C264 1.363 . S
C266 C267 1.370 . S
C266 C270 1.524 . S
C267 C259 1.503 1_445 S
C267 C266 1.370 . S
C267 C268 1.403 . S
C268 C267 1.403 . S
C268 C269 1.404 . S
C268 C271 1.539 1_445 S
C269 C265 1.408 . S
C269 C268 1.404 . S
C269 H281 0.930 . S
C270 C266 1.524 . S
C270 H282 0.956 1_545 S
C270 H283 0.961 . S
C270 H284 0.961 . S
C271 C268 1.539 1_665 S
C271 H285 0.958 . S
C271 H286 0.961 1_565 S
C271 H287 0.960 1_565 S
H272 C256 0.931 . S
H273 C261 0.929 . S
H274 C262 0.954 1_455 S
H275 C262 0.948 1_455 S
H276 C262 0.970 . S
H277 C263 0.961 . S
H278 C263 0.961 . S
H279 C263 0.961 . S
H280 C264 0.931 . S
H281 C269 0.930 . S
H282 C270 0.956 1_565 S
H283 C270 0.961 . S
H284 C270 0.961 . S
H285 C271 0.958 . S
H286 C271 0.961 1_545 S
H287 C271 0.960 1_545 S
C288 C289 1.391 . S
C288 C290 1.394 . S
C288 H304 0.931 . S
C289 C288 1.391 . S
C289 C293 1.376 . S
C290 C288 1.394 . S
C290 C291 1.369 1_565 S
C290 C294 1.531 . S
C291 C290 1.369 1_545 S
C291 C292 1.410 . S
C291 C299 1.503 . S
C292 C291 1.410 . S
C292 C293 1.392 1_545 S
C292 C295 1.511 . S
C293 C289 1.376 . S
C293 C292 1.392 1_565 S
C293 H305 0.929 . S
C294 C290 1.531 . S
C294 H306 0.960 1_565 S
C294 H307 0.962 . S
C294 H308 0.960 . S
C295 C292 1.511 . S
C295 H309 0.961 . S
C295 H310 0.961 . S
C295 H311 0.961 . S
C296 C297 1.370 1_565 S
C296 C298 1.363 . S
C296 H312 0.931 . S
C297 C296 1.370 1_545 S
C297 C301 1.408 . S
C298 C296 1.363 . S
C298 C299 1.370 1_565 S
C298 C302 1.524 . S
C299 C291 1.503 . S
C299 C298 1.370 1_545 S
C299 C300 1.403 . S
C300 C299 1.403 . S
C300 C301 1.404 . S
C300 C303 1.539 . S
C301 C297 1.408 . S
C301 C300 1.404 . S
C301 H313 0.930 . S
C302 C298 1.524 . S
C302 H314 0.956 . S
C302 H315 0.961 . S
C302 H316 0.961 . S
C303 C300 1.539 . S
C303 H317 0.958 . S
C303 H318 0.961 . S
C303 H319 0.960 . S
H304 C288 0.931 . S
H305 C293 0.929 . S
H306 C294 0.960 1_545 S
H307 C294 0.962 . S
H308 C294 0.960 . S
H309 C295 0.961 . S
H310 C295 0.961 . S
H311 C295 0.961 . S
H312 C296 0.931 . S
H313 C301 0.930 . S
H314 C302 0.956 . S
H315 C302 0.961 . S
H316 C302 0.961 . S
H317 C303 0.958 . S
H318 C303 0.961 . S
H319 C303 0.960 . S
C320 C321 1.391 . S
C320 C322 1.394 . S
C320 H336 0.931 . S
C321 C320 1.391 . S
C321 C325 1.376 . S
C322 C320 1.394 . S
C322 C323 1.369 . S
C322 C326 1.531 . S
C323 C322 1.369 . S
C323 C324 1.410 . S
C323 C331 1.503 1_455 S
C324 C323 1.410 . S
C324 C325 1.392 . S
C324 C327 1.511 1_455 S
C325 C321 1.376 . S
C325 C324 1.392 . S
C325 H337 0.929 . S
C326 C322 1.531 . S
C326 H338 0.960 . S
C326 H339 0.962 . S
C326 H340 0.960 . S
C327 C324 1.511 1_655 S
C327 H341 0.961 . S
C327 H342 0.961 . S
C327 H343 0.961 . S
C328 C329 1.370 . S
C328 C330 1.363 . S
C328 H344 0.931 . S
C329 C328 1.370 . S
C329 C333 1.408 . S
C330 C328 1.363 . S
C330 C331 1.370 . S
C330 C334 1.524 . S
C331 C323 1.503 1_655 S
C331 C330 1.370 . S
C331 C332 1.403 . S
C332 C331 1.403 . S
C332 C333 1.404 . S
C332 C335 1.539 . S
C333 C329 1.408 . S
C333 C332 1.404 . S
C333 H345 0.930 . S
C334 C330 1.524 . S
C334 H346 0.956 1_655 S
C334 H347 0.961 . S
C334 H348 0.961 . S
C335 C332 1.539 . S
C335 H349 0.958 . S
C335 H350 0.961 . S
C335 H351 0.960 . S
H336 C320 0.931 . S
H337 C325 0.929 . S
H338 C326 0.960 . S
H339 C326 0.962 . S
H340 C326 0.960 . S
H341 C327 0.961 . S
H342 C327 0.961 . S
H343 C327 0.961 . S
H344 C328 0.931 . S
H345 C333 0.930 . S
H346 C334 0.956 1_455 S
H347 C334 0.961 . S
H348 C334 0.961 . S
H349 C335 0.958 . S
H350 C335 0.961 . S
H351 C335 0.960 . S
C352 C353 1.391 . S
C352 C354 1.394 . S
C352 H368 0.931 . S
C353 C352 1.391 . S
C353 C357 1.376 . S
C354 C352 1.394 . S
C354 C355 1.369 . S
C354 C358 1.531 . S
C355 C354 1.369 . S
C355 C356 1.410 . S
C355 C363 1.503 . S
C356 C355 1.410 . S
C356 C357 1.392 . S
C356 C359 1.511 . S
C357 C353 1.376 . S
C357 C356 1.392 . S
C357 H369 0.929 . S
C358 C354 1.531 . S
C358 H370 0.960 . S
C358 H371 0.962 . S
C358 H372 0.960 . S
C359 C356 1.511 . S
C359 H373 0.961 . S
C359 H374 0.961 . S
C359 H375 0.961 . S
C360 C361 1.370 . S
C360 C362 1.363 . S
C360 H376 0.931 . S
C361 C360 1.370 . S
C361 C365 1.408 . S
C362 C360 1.363 . S
C362 C363 1.370 . S
C362 C366 1.524 . S
C363 C355 1.503 . S
C363 C362 1.370 . S
C363 C364 1.403 . S
C364 C363 1.403 . S
C364 C365 1.404 . S
C364 C367 1.539 . S
C365 C361 1.408 . S
C365 C364 1.404 . S
C365 H377 0.930 . S
C366 C362 1.524 . S
C366 H378 0.956 . S
C366 H379 0.961 . S
C366 H380 0.961 . S
C367 C364 1.539 . S
C367 H381 0.958 . S
C367 H382 0.961 . S
C367 H383 0.960 . S
H368 C352 0.931 . S
H369 C357 0.929 . S
H370 C358 0.960 . S
H371 C358 0.962 . S
H372 C358 0.960 . S
H373 C359 0.961 . S
H374 C359 0.961 . S
H375 C359 0.961 . S
H376 C360 0.931 . S
H377 C365 0.930 . S
H378 C366 0.956 . S
H379 C366 0.961 . S
H380 C366 0.961 . S
H381 C367 0.958 . S
H382 C367 0.961 . S
H383 C367 0.960 . S
C384 C385 1.391 . S
C384 C386 1.394 . S
C384 H400 0.931 . S
C385 C384 1.391 . S
C385 C389 1.376 . S
C386 C384 1.394 . S
C386 C387 1.369 . S
C386 C390 1.531 1_545 S
C387 C386 1.369 . S
C387 C388 1.410 . S
C387 C395 1.504 1_545 S
C388 C387 1.410 . S
C388 C389 1.392 . S
C388 C391 1.511 . S
C389 C385 1.376 . S
C389 C388 1.392 . S
C389 H401 0.929 . S
C390 C386 1.531 1_565 S
C390 H402 0.960 . S
C390 H403 0.962 . S
C390 H404 0.960 . S
C391 C388 1.511 . S
C391 H405 0.961 . S
C391 H406 0.961 . S
C391 H407 0.961 . S
C392 C393 1.370 . S
C392 C394 1.363 . S
C392 H408 0.931 . S
C393 C392 1.370 . S
C393 C397 1.408 1_565 S
C394 C392 1.363 . S
C394 C395 1.369 . S
C394 C398 1.524 . S
C395 C387 1.504 1_565 S
C395 C394 1.369 . S
C395 C396 1.403 1_565 S
C396 C395 1.403 1_545 S
C396 C397 1.404 . S
C396 C399 1.539 . S
C397 C393 1.408 1_545 S
C397 C396 1.404 . S
C397 H409 0.930 . S
C398 C394 1.524 . S
C398 H410 0.956 . S
C398 H411 0.961 . S
C398 H412 0.961 . S
C399 C396 1.539 . S
C399 H413 0.958 . S
C399 H414 0.961 . S
C399 H415 0.960 . S
H400 C384 0.931 . S
H401 C389 0.929 . S
H402 C390 0.960 . S
H403 C390 0.962 . S
H404 C390 0.960 . S
H405 C391 0.961 . S
H406 C391 0.961 . S
H407 C391 0.961 . S
H408 C392 0.931 . S
H409 C397 0.930 . S
H410 C398 0.956 . S
H411 C398 0.961 . S
H412 C398 0.961 . S
H413 C399 0.958 . S
H414 C399 0.961 . S
H415 C399 0.960 . S
C416 C417 1.391 . S
C416 C418 1.394 . S
C416 H432 0.931 . S
C417 C416 1.391 . S
C417 C421 1.376 . S
C418 C416 1.394 . S
C418 C419 1.369 . S
C418 C422 1.529 . S
C419 C418 1.369 . S
C419 C420 1.410 . S
C419 C427 1.503 1_655 S
C420 C419 1.410 . S
C420 C421 1.392 . S
C420 C423 1.511 . S
C421 C417 1.376 . S
C421 C420 1.392 . S
C421 H433 0.929 . S
C422 C418 1.529 . S
C422 H434 0.961 1_655 S
C422 H435 0.963 1_655 S
C422 H436 0.960 . S
C423 C420 1.511 . S
C423 H437 0.961 . S
C423 H438 0.961 . S
C423 H439 0.961 . S
C424 C425 1.370 . S
C424 C426 1.363 . S
C424 H440 0.931 . S
C425 C424 1.370 . S
C425 C429 1.408 . S
C426 C424 1.363 . S
C426 C427 1.370 . S
C426 C430 1.524 . S
C427 C419 1.503 1_455 S
C427 C426 1.370 . S
C427 C428 1.403 . S
C428 C427 1.403 . S
C428 C429 1.404 . S
C428 C431 1.539 1_455 S
C429 C425 1.408 . S
C429 C428 1.404 . S
C429 H441 0.930 . S
C430 C426 1.524 . S
C430 H442 0.956 . S
C430 H443 0.961 . S
C430 H444 0.961 . S
C431 C428 1.539 1_655 S
C431 H445 0.958 . S
C431 H446 0.961 . S
C431 H447 0.960 . S
H432 C416 0.931 . S
H433 C421 0.929 . S
H434 C422 0.961 1_455 S
H435 C422 0.963 1_455 S
H436 C422 0.960 . S
H437 C423 0.961 . S
H438 C423 0.961 . S
H439 C423 0.961 . S
H440 C424 0.931 . S
H441 C429 0.930 . S
H442 C430 0.956 . S
H443 C430 0.961 . S
H444 C430 0.961 . S
H445 C431 0.958 . S
H446 C431 0.961 . S
H447 C431 0.960 . S
C448 C449 1.391 . S
C448 C450 1.394 . S
C448 H464 0.931 . S
C449 C448 1.391 . S
C449 C453 1.376 . S
C450 C448 1.394 . S
C450 C451 1.369 . S
C450 C454 1.531 . S
C451 C450 1.369 . S
C451 C452 1.410 1_554 S
C451 C459 1.503 1_554 S
C452 C451 1.410 1_556 S
C452 C453 1.392 1_556 S
C452 C455 1.511 . S
C453 C449 1.376 . S
C453 C452 1.392 1_554 S
C453 H465 0.929 . S
C454 C450 1.531 . S
C454 H466 0.960 . S
C454 H467 0.962 . S
C454 H468 0.960 . S
C455 C452 1.511 . S
C455 H469 0.961 . S
C455 H470 0.961 . S
C455 H471 0.961 . S
C456 C457 1.370 . S
C456 C458 1.363 . S
C456 H472 0.931 . S
C457 C456 1.370 . S
C457 C461 1.408 . S
C458 C456 1.363 . S
C458 C459 1.370 . S
C458 C462 1.524 . S
C459 C451 1.503 1_556 S
C459 C458 1.370 . S
C459 C460 1.403 . S
C460 C459 1.403 . S
C460 C461 1.404 . S
C460 C463 1.539 . S
C461 C457 1.408 . S
C461 C460 1.404 . S
C461 H473 0.930 . S
C462 C458 1.524 . S
C462 H474 0.956 1_556 S
C462 H475 0.961 . S
C462 H476 0.961 . S
C463 C460 1.539 . S
C463 H477 0.958 1_556 S
C463 H478 0.961 . S
C463 H479 0.960 . S
H464 C448 0.931 . S
H465 C453 0.929 . S
H466 C454 0.960 . S
H467 C454 0.962 . S
H468 C454 0.960 . S
H469 C455 0.961 . S
H470 C455 0.961 . S
H471 C455 0.961 . S
H472 C456 0.931 . S
H473 C461 0.930 . S
H474 C462 0.956 1_554 S
H475 C462 0.961 . S
H476 C462 0.961 . S
H477 C463 0.958 1_554 S
H478 C463 0.961 . S
H479 C463 0.960 . S
C480 C481 1.391 . S
C480 C482 1.394 1_556 S
C480 H496 0.931 . S
C481 C480 1.391 . S
C481 C485 1.376 . S
C482 C480 1.394 1_554 S
C482 C483 1.369 1_554 S
C482 C486 1.531 . S
C483 C482 1.369 1_556 S
C483 C484 1.410 . S
C483 C491 1.503 1_456 S
C484 C483 1.410 . S
C484 C485 1.392 . S
C484 C487 1.511 1_455 S
C485 C481 1.376 . S
C485 C484 1.392 . S
C485 H497 0.929 . S
C486 C482 1.531 . S
C486 H498 0.960 . S
C486 H499 0.962 . S
C486 H500 0.960 . S
C487 C484 1.511 1_655 S
C487 H501 0.961 . S
C487 H502 0.961 . S
C487 H503 0.961 . S
C488 C489 1.370 . S
C488 C490 1.363 . S
C488 H504 0.931 . S
C489 C488 1.370 . S
C489 C493 1.408 . S
C490 C488 1.363 . S
C490 C491 1.370 . S
C490 C494 1.524 1_554 S
C491 C483 1.503 1_654 S
C491 C490 1.370 . S
C491 C492 1.403 . S
C492 C491 1.403 . S
C492 C493 1.404 . S
C492 C495 1.539 . S
C493 C489 1.408 . S
C493 C492 1.404 . S
C493 H505 0.930 . S
C494 C490 1.524 1_556 S
C494 H506 0.956 1_655 S
C494 H507 0.961 . S
C494 H508 0.961 . S
C495 C492 1.539 . S
C495 H509 0.958 . S
C495 H510 0.961 . S
C495 H511 0.960 . S
H496 C480 0.931 . S
H497 C485 0.929 . S
H498 C486 0.960 . S
H499 C486 0.962 . S
H500 C486 0.960 . S
H501 C487 0.961 . S
H502 C487 0.961 . S
H503 C487 0.961 . S
H504 C488 0.931 . S
H505 C493 0.930 . S
H506 C494 0.956 1_455 S
H507 C494 0.961 . S
H508 C494 0.961 . S
H509 C495 0.958 . S
H510 C495 0.961 . S
H511 C495 0.960 . S
C512 C513 1.391 . S
C512 C514 1.394 . S
C512 H528 0.931 . S
C513 C512 1.391 . S
C513 C517 1.376 . S
C514 C512 1.394 . S
C514 C515 1.369 . S
C514 C518 1.531 . S
C515 C514 1.369 . S
C515 C516 1.410 . S
C515 C523 1.503 . S
C516 C515 1.410 . S
C516 C517 1.392 . S
C516 C519 1.511 . S
C517 C513 1.376 . S
C517 C516 1.392 . S
C517 H529 0.929 . S
C518 C514 1.531 . S
C518 H530 0.960 . S
C518 H531 0.962 . S
C518 H532 0.960 . S
C519 C516 1.511 . S
C519 H533 0.961 . S
C519 H534 0.961 . S
C519 H535 0.961 . S
C520 C521 1.370 . S
C520 C522 1.363 . S
C520 H536 0.931 . S
C521 C520 1.370 . S
C521 C525 1.408 . S
C522 C520 1.363 . S
C522 C523 1.370 . S
C522 C526 1.524 . S
C523 C515 1.503 . S
C523 C522 1.370 . S
C523 C524 1.403 . S
C524 C523 1.403 . S
C524 C525 1.404 . S
C524 C527 1.539 . S
C525 C521 1.408 . S
C525 C524 1.404 . S
C525 H537 0.930 . S
C526 C522 1.524 . S
C526 H538 0.956 . S
C526 H539 0.961 . S
C526 H540 0.961 . S
C527 C524 1.539 . S
C527 H541 0.958 . S
C527 H542 0.961 . S
C527 H543 0.960 . S
H528 C512 0.931 . S
H529 C517 0.929 . S
H530 C518 0.960 . S
H531 C518 0.962 . S
H532 C518 0.960 . S
H533 C519 0.961 . S
H534 C519 0.961 . S
H535 C519 0.961 . S
H536 C520 0.931 . S
H537 C525 0.930 . S
H538 C526 0.956 . S
H539 C526 0.961 . S
H540 C526 0.961 . S
H541 C527 0.958 . S
H542 C527 0.961 . S
H543 C527 0.960 . S
C544 C545 1.391 . S
C544 C546 1.394 1_556 S
C544 H560 0.931 . S
C545 C544 1.391 . S
C545 C549 1.376 . S
C546 C544 1.394 1_554 S
C546 C547 1.369 1_554 S
C546 C550 1.531 . S
C547 C546 1.369 1_556 S
C547 C548 1.410 . S
C547 C555 1.503 1_556 S
C548 C547 1.410 . S
C548 C549 1.392 . S
C548 C551 1.511 . S
C549 C545 1.376 . S
C549 C548 1.392 . S
C549 H561 0.929 . S
C550 C546 1.531 . S
C550 H562 0.960 . S
C550 H563 0.962 . S
C550 H564 0.960 . S
C551 C548 1.511 . S
C551 H565 0.961 . S
C551 H566 0.961 . S
C551 H567 0.961 . S
C552 C553 1.370 . S
C552 C554 1.363 . S
C552 H568 0.931 . S
C553 C552 1.370 . S
C553 C557 1.408 . S
C554 C552 1.363 . S
C554 C555 1.370 . S
C554 C558 1.524 1_554 S
C555 C547 1.503 1_554 S
C555 C554 1.370 . S
C555 C556 1.403 . S
C556 C555 1.403 . S
C556 C557 1.404 . S
C556 C559 1.539 . S
C557 C553 1.408 . S
C557 C556 1.404 . S
C557 H569 0.930 . S
C558 C554 1.524 1_556 S
C558 H570 0.956 . S
C558 H571 0.961 . S
C558 H572 0.961 . S
C559 C556 1.539 . S
C559 H573 0.958 . S
C559 H574 0.961 . S
C559 H575 0.960 . S
H560 C544 0.931 . S
H561 C549 0.929 . S
H562 C550 0.960 . S
H563 C550 0.962 . S
H564 C550 0.960 . S
H565 C551 0.961 . S
H566 C551 0.961 . S
H567 C551 0.961 . S
H568 C552 0.931 . S
H569 C557 0.930 . S
H570 C558 0.956 . S
H571 C558 0.961 . S
H572 C558 0.961 . S
H573 C559 0.958 . S
H574 C559 0.961 . S
H575 C559 0.960 . S
C576 C577 1.391 . S
C576 C578 1.394 . S
C576 H592 0.931 . S
C577 C576 1.391 . S
C577 C581 1.376 . S
C578 C576 1.394 . S
C578 C579 1.369 . S
C578 C582 1.531 . S
C579 C578 1.369 . S
C579 C580 1.410 . S
C579 C587 1.503 . S
C580 C579 1.410 . S
C580 C581 1.392 . S
C580 C583 1.511 . S
C581 C577 1.376 . S
C581 C580 1.392 . S
C581 H593 0.929 . S
C582 C578 1.531 . S
C582 H594 0.960 . S
C582 H595 0.962 . S
C582 H596 0.960 . S
C583 C580 1.511 . S
C583 H597 0.961 . S
C583 H598 0.961 . S
C583 H599 0.961 . S
C584 C585 1.370 . S
C584 C586 1.363 . S
C584 H600 0.931 . S
C585 C584 1.370 . S
C585 C589 1.408 . S
C586 C584 1.363 . S
C586 C587 1.370 . S
C586 C590 1.524 . S
C587 C579 1.503 . S
C587 C586 1.370 . S
C587 C588 1.403 . S
C588 C587 1.403 . S
C588 C589 1.404 . S
C588 C591 1.539 . S
C589 C585 1.408 . S
C589 C588 1.404 . S
C589 H601 0.930 . S
C590 C586 1.524 . S
C590 H602 0.956 . S
C590 H603 0.961 . S
C590 H604 0.961 . S
C591 C588 1.539 . S
C591 H605 0.958 . S
C591 H606 0.961 . S
C591 H607 0.960 . S
H592 C576 0.931 . S
H593 C581 0.929 . S
H594 C582 0.960 . S
H595 C582 0.962 . S
H596 C582 0.960 . S
H597 C583 0.961 . S
H598 C583 0.961 . S
H599 C583 0.961 . S
H600 C584 0.931 . S
H601 C589 0.930 . S
H602 C590 0.956 . S
H603 C590 0.961 . S
H604 C590 0.961 . S
H605 C591 0.958 . S
H606 C591 0.961 . S
H607 C591 0.960 . S
C608 C609 1.391 . S
C608 C610 1.394 . S
C608 H624 0.931 . S
C609 C608 1.391 . S
C609 C613 1.376 . S
C610 C608 1.394 . S
C610 C611 1.369 1_545 S
C610 C614 1.528 1_545 S
C611 C610 1.369 1_565 S
C611 C612 1.408 1_566 S
C611 C619 1.503 1_556 S
C612 C611 1.408 1_544 S
C612 C613 1.399 1_554 S
C612 C615 1.507 1_545 S
C613 C609 1.376 . S
C613 C612 1.399 1_556 S
C613 H625 0.929 . S
C614 C610 1.528 1_565 S
C614 H626 0.974 . S
C614 H627 0.945 1_565 S
C614 H628 0.965 . S
C615 C612 1.507 1_565 S
C615 H629 0.961 1_565 S
C615 H630 0.961 . S
C615 H631 0.961 . S
C616 C617 1.370 1_545 S
C616 C618 1.363 . S
C616 H632 0.931 . S
C617 C616 1.370 1_565 S
C617 C621 1.408 . S
C618 C616 1.363 . S
C618 C619 1.370 1_545 S
C618 C622 1.524 . S
C619 C611 1.503 1_554 S
C619 C618 1.370 1_565 S
C619 C620 1.403 . S
C620 C619 1.403 . S
C620 C621 1.404 . S
C620 C623 1.540 1_554 S
C621 C617 1.408 . S
C621 C620 1.404 . S
C621 H633 0.930 . S
C622 C618 1.524 . S
C622 H634 0.956 1_554 S
C622 H635 0.961 . S
C622 H636 0.961 . S
C623 C620 1.540 1_556 S
C623 H637 0.957 . S
C623 H638 0.962 1_556 S
C623 H639 0.959 . S
H624 C608 0.931 . S
H625 C613 0.929 . S
H626 C614 0.974 . S
H627 C614 0.945 1_545 S
H628 C614 0.965 . S
H629 C615 0.961 1_545 S
H630 C615 0.961 . S
H631 C615 0.961 . S
H632 C616 0.931 . S
H633 C621 0.930 . S
H634 C622 0.956 1_556 S
H635 C622 0.961 . S
H636 C622 0.961 . S
H637 C623 0.957 . S
H638 C623 0.962 1_554 S
H639 C623 0.959 . S
C640 C641 1.391 . S
C640 C642 1.394 . S
C640 H656 0.931 . S
C641 C640 1.391 . S
C641 C645 1.376 . S
C642 C640 1.394 . S
C642 C643 1.369 . S
C642 C646 1.531 . S
C643 C642 1.369 . S
C643 C644 1.410 . S
C643 C651 1.503 . S
C644 C643 1.410 . S
C644 C645 1.392 . S
C644 C647 1.511 . S
C645 C641 1.376 . S
C645 C644 1.392 . S
C645 H657 0.929 . S
C646 C642 1.531 . S
C646 H658 0.960 . S
C646 H659 0.962 . S
C646 H660 0.960 . S
C647 C644 1.511 . S
C647 H661 0.961 . S
C647 H662 0.961 . S
C647 H663 0.961 . S
C648 C649 1.370 . S
C648 C650 1.363 . S
C648 H664 0.931 . S
C649 C648 1.370 . S
C649 C653 1.408 . S
C650 C648 1.363 . S
C650 C651 1.370 . S
C650 C654 1.524 . S
C651 C643 1.503 . S
C651 C650 1.370 . S
C651 C652 1.403 . S
C652 C651 1.403 . S
C652 C653 1.404 . S
C652 C655 1.539 . S
C653 C649 1.408 . S
C653 C652 1.404 . S
C653 H665 0.930 . S
C654 C650 1.524 . S
C654 H666 0.956 . S
C654 H667 0.961 . S
C654 H668 0.961 . S
C655 C652 1.539 . S
C655 H669 0.958 . S
C655 H670 0.961 . S
C655 H671 0.960 . S
H656 C640 0.931 . S
H657 C645 0.929 . S
H658 C646 0.960 . S
H659 C646 0.962 . S
H660 C646 0.960 . S
H661 C647 0.961 . S
H662 C647 0.961 . S
H663 C647 0.961 . S
H664 C648 0.931 . S
H665 C653 0.930 . S
H666 C654 0.956 . S
H667 C654 0.961 . S
H668 C654 0.961 . S
H669 C655 0.958 . S
H670 C655 0.961 . S
H671 C655 0.960 . S
C672 C673 1.391 . S
C672 C674 1.394 . S
C672 H688 0.931 . S
C673 C672 1.391 . S
C673 C677 1.376 . S
C674 C672 1.394 . S
C674 C675 1.369 . S
C674 C678 1.531 . S
C675 C674 1.369 . S
C675 C676 1.410 . S
C675 C683 1.503 . S
C676 C675 1.410 . S
C676 C677 1.392 . S
C676 C679 1.511 . S
C677 C673 1.376 . S
C677 C676 1.392 . S
C677 H689 0.929 . S
C678 C674 1.531 . S
C678 H690 0.960 . S
C678 H691 0.962 . S
C678 H692 0.960 . S
C679 C676 1.511 . S
C679 H693 0.961 . S
C679 H694 0.961 . S
C679 H695 0.961 . S
C680 C681 1.370 . S
C680 C682 1.363 . S
C680 H696 0.931 . S
C681 C680 1.370 . S
C681 C685 1.408 . S
C682 C680 1.363 . S
C682 C683 1.370 . S
C682 C686 1.524 . S
C683 C675 1.503 . S
C683 C682 1.370 . S
C683 C684 1.403 . S
C684 C683 1.403 . S
C684 C685 1.404 . S
C684 C687 1.539 . S
C685 C681 1.408 . S
C685 C684 1.404 . S
C685 H697 0.930 . S
C686 C682 1.524 . S
C686 H698 0.956 . S
C686 H699 0.961 . S
C686 H700 0.961 . S
C687 C684 1.539 . S
C687 H701 0.958 . S
C687 H702 0.961 . S
C687 H703 0.960 . S
H688 C672 0.931 . S
H689 C677 0.929 . S
H690 C678 0.960 . S
H691 C678 0.962 . S
H692 C678 0.960 . S
H693 C679 0.961 . S
H694 C679 0.961 . S
H695 C679 0.961 . S
H696 C680 0.931 . S
H697 C685 0.930 . S
H698 C686 0.956 . S
H699 C686 0.961 . S
H700 C686 0.961 . S
H701 C687 0.958 . S
H702 C687 0.961 . S
H703 C687 0.960 . S
C704 C705 1.391 . S
C704 C706 1.394 . S
C704 H720 0.931 . S
C705 C704 1.391 . S
C705 C709 1.376 . S
C706 C704 1.394 . S
C706 C707 1.369 . S
C706 C710 1.531 . S
C707 C706 1.369 . S
C707 C708 1.410 . S
C707 C715 1.503 . S
C708 C707 1.410 . S
C708 C709 1.392 . S
C708 C711 1.511 . S
C709 C705 1.376 . S
C709 C708 1.392 . S
C709 H721 0.929 . S
C710 C706 1.531 . S
C710 H722 0.960 . S
C710 H723 0.962 . S
C710 H724 0.960 . S
C711 C708 1.511 . S
C711 H725 0.961 . S
C711 H726 0.961 . S
C711 H727 0.961 . S
C712 C713 1.370 . S
C712 C714 1.363 . S
C712 H728 0.931 . S
C713 C712 1.370 . S
C713 C717 1.408 . S
C714 C712 1.363 . S
C714 C715 1.370 . S
C714 C718 1.524 . S
C715 C707 1.503 . S
C715 C714 1.370 . S
C715 C716 1.403 . S
C716 C715 1.403 . S
C716 C717 1.404 . S
C716 C719 1.539 . S
C717 C713 1.408 . S
C717 C716 1.404 . S
C717 H729 0.930 . S
C718 C714 1.524 . S
C718 H730 0.956 . S
C718 H731 0.961 . S
C718 H732 0.961 . S
C719 C716 1.539 . S
C719 H733 0.958 . S
C719 H734 0.961 . S
C719 H735 0.960 . S
H720 C704 0.931 . S
H721 C709 0.929 . S
H722 C710 0.960 . S
H723 C710 0.962 . S
H724 C710 0.960 . S
H725 C711 0.961 . S
H726 C711 0.961 . S
H727 C711 0.961 . S
H728 C712 0.931 . S
H729 C717 0.930 . S
H730 C718 0.956 . S
H731 C718 0.961 . S
H732 C718 0.961 . S
H733 C719 0.958 . S
H734 C719 0.961 . S
H735 C719 0.960 . S
C736 C737 1.391 . S
C736 C738 1.394 . S
C736 H752 0.931 . S
C737 C736 1.391 . S
C737 C741 1.376 . S
C738 C736 1.394 . S
C738 C739 1.369 . S
C738 C742 1.531 . S
C739 C738 1.369 . S
C739 C740 1.410 . S
C739 C747 1.503 . S
C740 C739 1.410 . S
C740 C741 1.392 . S
C740 C743 1.511 . S
C741 C737 1.376 . S
C741 C740 1.392 . S
C741 H753 0.929 . S
C742 C738 1.531 . S
C742 H754 0.960 . S
C742 H755 0.962 . S
C742 H756 0.960 . S
C743 C740 1.511 . S
C743 H757 0.961 . S
C743 H758 0.961 . S
C743 H759 0.961 . S
C744 C745 1.370 . S
C744 C746 1.363 . S
C744 H760 0.931 1_565 S
C745 C744 1.370 . S
C745 C749 1.408 . S
C746 C744 1.363 . S
C746 C747 1.370 . S
C746 C750 1.524 . S
C747 C739 1.503 . S
C747 C746 1.370 . S
C747 C748 1.403 . S
C748 C747 1.403 . S
C748 C749 1.404 . S
C748 C751 1.539 . S
C749 C745 1.408 . S
C749 C748 1.404 . S
C749 H761 0.930 . S
C750 C746 1.524 . S
C750 H762 0.956 . S
C750 H763 0.961 . S
C750 H764 0.953 1_565 S
C751 C748 1.539 . S
C751 H765 0.958 . S
C751 H766 0.961 . S
C751 H767 0.960 . S
H752 C736 0.931 . S
H753 C741 0.929 . S
H754 C742 0.960 . S
H755 C742 0.962 . S
H756 C742 0.960 . S
H757 C743 0.961 . S
H758 C743 0.961 . S
H759 C743 0.961 . S
H760 C744 0.931 1_545 S
H761 C749 0.930 . S
H762 C750 0.956 . S
H763 C750 0.961 . S
H764 C750 0.953 1_545 S
H765 C751 0.958 . S
H766 C751 0.961 . S
H767 C751 0.960 . S
C768 C769 1.391 . S
C768 C770 1.394 . S
C768 H784 0.931 . S
C769 C768 1.391 . S
C769 C773 1.376 . S
C770 C768 1.394 . S
C770 C771 1.369 . S
C770 C774 1.531 . S
C771 C770 1.369 . S
C771 C772 1.410 . S
C771 C779 1.503 . S
C772 C771 1.410 . S
C772 C773 1.392 . S
C772 C775 1.511 . S
C773 C769 1.376 . S
C773 C772 1.392 . S
C773 H785 0.929 . S
C774 C770 1.531 . S
C774 H786 0.960 . S
C774 H787 0.962 . S
C774 H788 0.960 . S
C775 C772 1.511 . S
C775 H789 0.961 . S
C775 H790 0.961 . S
C775 H791 0.961 . S
C776 C777 1.370 . S
C776 C778 1.363 . S
C776 H792 0.931 . S
C777 C776 1.370 . S
C777 C781 1.408 . S
C778 C776 1.363 . S
C778 C779 1.370 . S
C778 C782 1.524 . S
C779 C771 1.503 . S
C779 C778 1.370 . S
C779 C780 1.403 . S
C780 C779 1.403 . S
C780 C781 1.404 . S
C780 C783 1.539 . S
C781 C777 1.408 . S
C781 C780 1.404 . S
C781 H793 0.930 . S
C782 C778 1.524 . S
C782 H794 0.956 . S
C782 H795 0.961 . S
C782 H796 0.961 . S
C783 C780 1.539 . S
C783 H797 0.958 . S
C783 H798 0.961 . S
C783 H799 0.960 . S
H784 C768 0.931 . S
H785 C773 0.929 . S
H786 C774 0.960 . S
H787 C774 0.962 . S
H788 C774 0.960 . S
H789 C775 0.961 . S
H790 C775 0.961 . S
H791 C775 0.961 . S
H792 C776 0.931 . S
H793 C781 0.930 . S
H794 C782 0.956 . S
H795 C782 0.961 . S
H796 C782 0.961 . S
H797 C783 0.958 . S
H798 C783 0.961 . S
H799 C783 0.960 . S
C800 C801 1.391 . S
C800 C802 1.394 . S
C800 H816 0.931 . S
C801 C800 1.391 . S
C801 C805 1.376 . S
C802 C800 1.394 . S
C802 C803 1.369 . S
C802 C806 1.531 . S
C803 C802 1.369 . S
C803 C804 1.410 . S
C803 C811 1.503 . S
C804 C803 1.410 . S
C804 C805 1.392 . S
C804 C807 1.511 . S
C805 C801 1.376 . S
C805 C804 1.392 . S
C805 H817 0.929 . S
C806 C802 1.531 . S
C806 H818 0.960 . S
C806 H819 0.962 . S
C806 H820 0.960 . S
C807 C804 1.511 . S
C807 H821 0.961 . S
C807 H822 0.961 . S
C807 H823 0.961 . S
C808 C809 1.370 . S
C808 C810 1.363 . S
C808 H824 0.931 . S
C809 C808 1.370 . S
C809 C813 1.408 . S
C810 C808 1.363 . S
C810 C811 1.370 . S
C810 C814 1.524 . S
C811 C803 1.503 . S
C811 C810 1.370 . S
C811 C812 1.403 . S
C812 C811 1.403 . S
C812 C813 1.404 . S
C812 C815 1.539 . S
C813 C809 1.408 . S
C813 C812 1.404 . S
C813 H825 0.930 . S
C814 C810 1.524 . S
C814 H826 0.956 . S
C814 H827 0.961 . S
C814 H828 0.961 . S
C815 C812 1.539 . S
C815 H829 0.958 . S
C815 H830 0.961 . S
C815 H831 0.960 . S
H816 C800 0.931 . S
H817 C805 0.929 . S
H818 C806 0.960 . S
H819 C806 0.962 . S
H820 C806 0.960 . S
H821 C807 0.961 . S
H822 C807 0.961 . S
H823 C807 0.961 . S
H824 C808 0.931 . S
H825 C813 0.930 . S
H826 C814 0.956 . S
H827 C814 0.961 . S
H828 C814 0.961 . S
H829 C815 0.958 . S
H830 C815 0.961 . S
H831 C815 0.960 . S
C832 C833 1.391 . S
C832 C834 1.394 . S
C832 H848 0.931 . S
C833 C832 1.391 . S
C833 C837 1.376 . S
C834 C832 1.394 . S
C834 C835 1.369 . S
C834 C838 1.531 . S
C835 C834 1.369 . S
C835 C836 1.410 . S
C835 C843 1.503 . S
C836 C835 1.410 . S
C836 C837 1.392 . S
C836 C839 1.511 . S
C837 C833 1.376 . S
C837 C836 1.392 . S
C837 H849 0.929 . S
C838 C834 1.531 . S
C838 H850 0.960 . S
C838 H851 0.962 . S
C838 H852 0.960 . S
C839 C836 1.511 . S
C839 H853 0.961 . S
C839 H854 0.961 . S
C839 H855 0.961 . S
C840 C841 1.370 . S
C840 C842 1.363 . S
C840 H856 0.931 1_565 S
C841 C840 1.370 . S
C841 C845 1.408 . S
C842 C840 1.363 . S
C842 C843 1.370 . S
C842 C846 1.524 . S
C843 C835 1.503 . S
C843 C842 1.370 . S
C843 C844 1.403 . S
C844 C843 1.403 . S
C844 C845 1.404 . S
C844 C847 1.539 . S
C845 C841 1.408 . S
C845 C844 1.404 . S
C845 H857 0.930 . S
C846 C842 1.524 . S
C846 H858 0.956 . S
C846 H859 0.961 . S
C846 H860 0.961 . S
C847 C844 1.539 . S
C847 H861 0.958 . S
C847 H862 0.961 . S
C847 H863 0.960 . S
H848 C832 0.931 . S
H849 C837 0.929 . S
H850 C838 0.960 . S
H851 C838 0.962 . S
H852 C838 0.960 . S
H853 C839 0.961 . S
H854 C839 0.961 . S
H855 C839 0.961 . S
H856 C840 0.931 1_545 S
H857 C845 0.930 . S
H858 C846 0.956 . S
H859 C846 0.961 . S
H860 C846 0.961 . S
H861 C847 0.958 . S
H862 C847 0.961 . S
H863 C847 0.960 . S
C864 C865 1.391 . S
C864 C866 1.394 . S
C864 H880 0.931 . S
C865 C864 1.391 . S
C865 C869 1.376 . S
C866 C864 1.394 . S
C866 C867 1.369 . S
C866 C870 1.531 . S
C867 C866 1.369 . S
C867 C868 1.410 . S
C867 C875 1.503 . S
C868 C867 1.410 . S
C868 C869 1.392 . S
C868 C871 1.511 . S
C869 C865 1.376 . S
C869 C868 1.392 . S
C869 H881 0.929 . S
C870 C866 1.531 . S
C870 H882 0.960 . S
C870 H883 0.962 . S
C870 H884 0.960 . S
C871 C868 1.511 . S
C871 H885 0.961 . S
C871 H886 0.961 . S
C871 H887 0.961 . S
C872 C873 1.370 . S
C872 C874 1.363 . S
C872 H888 0.931 1_545 S
C873 C872 1.370 . S
C873 C877 1.408 . S
C874 C872 1.363 . S
C874 C875 1.370 . S
C874 C878 1.524 . S
C875 C867 1.503 . S
C875 C874 1.370 . S
C875 C876 1.403 . S
C876 C875 1.403 . S
C876 C877 1.404 . S
C876 C879 1.539 . S
C877 C873 1.408 . S
C877 C876 1.404 . S
C877 H889 0.930 . S
C878 C874 1.524 . S
C878 H890 0.956 . S
C878 H891 0.961 . S
C878 H892 0.961 . S
C879 C876 1.539 . S
C879 H893 0.958 . S
C879 H894 0.961 . S
C879 H895 0.960 . S
H880 C864 0.931 . S
H881 C869 0.929 . S
H882 C870 0.960 . S
H883 C870 0.962 . S
H884 C870 0.960 . S
H885 C871 0.961 . S
H886 C871 0.961 . S
H887 C871 0.961 . S
H888 C872 0.931 1_565 S
H889 C877 0.930 . S
H890 C878 0.956 . S
H891 C878 0.961 . S
H892 C878 0.961 . S
H893 C879 0.958 . S
H894 C879 0.961 . S
H895 C879 0.960 . S
C896 C897 1.391 . S
C896 C898 1.394 . S
C896 H912 0.931 . S
C897 C896 1.391 . S
C897 C901 1.376 . S
C898 C896 1.394 . S
C898 C899 1.369 . S
C898 C902 1.531 . S
C899 C898 1.369 . S
C899 C900 1.410 . S
C899 C907 1.503 . S
C900 C899 1.410 . S
C900 C901 1.392 . S
C900 C903 1.511 . S
C901 C897 1.376 . S
C901 C900 1.392 . S
C901 H913 0.929 . S
C902 C898 1.531 . S
C902 H914 0.960 . S
C902 H915 0.962 . S
C902 H916 0.960 . S
C903 C900 1.511 . S
C903 H917 0.961 . S
C903 H918 0.961 . S
C903 H919 0.961 . S
C904 C905 1.370 . S
C904 C906 1.363 . S
C904 H920 0.931 . S
C905 C904 1.370 . S
C905 C909 1.408 . S
C906 C904 1.363 . S
C906 C907 1.370 . S
C906 C910 1.524 . S
C907 C899 1.503 . S
C907 C906 1.370 . S
C907 C908 1.403 . S
C908 C907 1.403 . S
C908 C909 1.404 . S
C908 C911 1.539 . S
C909 C905 1.408 . S
C909 C908 1.404 . S
C909 H921 0.930 . S
C910 C906 1.524 . S
C910 H922 0.956 . S
C910 H923 0.961 . S
C910 H924 0.961 . S
C911 C908 1.539 . S
C911 H925 0.958 . S
C911 H926 0.961 . S
C911 H927 0.960 . S
H912 C896 0.931 . S
H913 C901 0.929 . S
H914 C902 0.960 . S
H915 C902 0.962 . S
H916 C902 0.960 . S
H917 C903 0.961 . S
H918 C903 0.961 . S
H919 C903 0.961 . S
H920 C904 0.931 . S
H921 C909 0.930 . S
H922 C910 0.956 . S
H923 C910 0.961 . S
H924 C910 0.961 . S
H925 C911 0.958 . S
H926 C911 0.961 . S
H927 C911 0.960 . S
C928 C929 1.391 . S
C928 C930 1.394 . S
C928 H944 0.931 . S
C929 C928 1.391 . S
C929 C933 1.376 . S
C930 C928 1.394 . S
C930 C931 1.369 . S
C930 C934 1.531 . S
C931 C930 1.369 . S
C931 C932 1.410 . S
C931 C939 1.503 . S
C932 C931 1.410 . S
C932 C933 1.392 . S
C932 C935 1.511 . S
C933 C929 1.376 . S
C933 C932 1.392 . S
C933 H945 0.929 . S
C934 C930 1.531 . S
C934 H946 0.960 . S
C934 H947 0.962 . S
C934 H948 0.960 . S
C935 C932 1.511 . S
C935 H949 0.961 . S
C935 H950 0.961 . S
C935 H951 0.961 . S
C936 C937 1.370 . S
C936 C938 1.363 . S
C936 H952 0.931 . S
C937 C936 1.370 . S
C937 C941 1.408 . S
C938 C936 1.363 . S
C938 C939 1.370 . S
C938 C942 1.524 . S
C939 C931 1.503 . S
C939 C938 1.370 . S
C939 C940 1.403 . S
C940 C939 1.403 . S
C940 C941 1.404 . S
C940 C943 1.539 . S
C941 C937 1.408 . S
C941 C940 1.404 . S
C941 H953 0.930 . S
C942 C938 1.524 . S
C942 H954 0.956 . S
C942 H955 0.961 . S
C942 H956 0.961 . S
C943 C940 1.539 . S
C943 H957 0.958 . S
C943 H958 0.961 . S
C943 H959 0.960 . S
H944 C928 0.931 . S
H945 C933 0.929 . S
H946 C934 0.960 . S
H947 C934 0.962 . S
H948 C934 0.960 . S
H949 C935 0.961 . S
H950 C935 0.961 . S
H951 C935 0.961 . S
H952 C936 0.931 . S
H953 C941 0.930 . S
H954 C942 0.956 . S
H955 C942 0.961 . S
H956 C942 0.961 . S
H957 C943 0.958 . S
H958 C943 0.961 . S
H959 C943 0.960 . S
C960 C961 1.391 . S
C960 C962 1.394 . S
C960 H976 0.931 . S
C961 C960 1.391 . S
C961 C965 1.376 1_545 S
C962 C960 1.394 . S
C962 C963 1.369 . S
C962 C966 1.531 . S
C963 C962 1.369 . S
C963 C964 1.410 . S
C963 C971 1.503 . S
C964 C963 1.410 . S
C964 C965 1.392 1_545 S
C964 C967 1.511 . S
C965 C961 1.376 1_565 S
C965 C964 1.392 1_565 S
C965 H977 0.929 . S
C966 C962 1.531 . S
C966 H978 0.960 . S
C966 H979 0.962 . S
C966 H980 0.960 . S
C967 C964 1.511 . S
C967 H981 0.961 . S
C967 H982 0.961 . S
C967 H983 0.961 . S
C968 C969 1.370 . S
C968 C970 1.363 . S
C968 H984 0.931 . S
C969 C968 1.370 . S
C969 C973 1.408 . S
C970 C968 1.363 . S
C970 C971 1.370 . S
C970 C974 1.524 . S
C971 C963 1.503 . S
C971 C970 1.370 . S
C971 C972 1.403 . S
C972 C971 1.403 . S
C972 C973 1.404 . S
C972 C975 1.539 . S
C973 C969 1.408 . S
C973 C972 1.404 . S
C973 H985 0.930 . S
C974 C970 1.524 . S
C974 H986 0.956 . S
C974 H987 0.961 . S
C974 H988 0.961 . S
C975 C972 1.539 . S
C975 H989 0.958 . S
C975 H990 0.961 . S
C975 H991 0.960 . S
H976 C960 0.931 . S
H977 C965 0.929 . S
H978 C966 0.960 . S
H979 C966 0.962 . S
H980 C966 0.960 . S
H981 C967 0.961 . S
H982 C967 0.961 . S
H983 C967 0.961 . S
H984 C968 0.931 . S
H985 C973 0.930 . S
H986 C974 0.956 . S
H987 C974 0.961 . S
H988 C974 0.961 . S
H989 C975 0.958 . S
H990 C975 0.961 . S
H991 C975 0.960 . S
C992 C993 1.391 . S
C992 C994 1.394 . S
C992 H1008 0.931 . S
C993 C992 1.391 . S
C993 C997 1.376 . S
C994 C992 1.394 . S
C994 C995 1.369 . S
C994 C998 1.531 . S
C995 C994 1.369 . S
C995 C996 1.410 . S
C995 C1003 1.503 . S
C996 C995 1.410 . S
C996 C997 1.392 . S
C996 C999 1.511 . S
C997 C993 1.376 . S
C997 C996 1.392 . S
C997 H1009 0.929 . S
C998 C994 1.531 . S
C998 H1010 0.960 . S
C998 H1011 0.962 . S
C998 H1012 0.960 . S
C999 C996 1.511 . S
C999 H1013 0.961 . S
C999 H1014 0.961 . S
C999 H1015 0.961 . S
C1000 C1001 1.370 . S
C1000 C1002 1.363 . S
C1000 H1016 0.931 . S
C1001 C1000 1.370 . S
C1001 C1005 1.408 1_565 S
C1002 C1000 1.363 . S
C1002 C1003 1.370 . S
C1002 C1006 1.524 . S
C1003 C995 1.503 . S
C1003 C1002 1.370 . S
C1003 C1004 1.403 . S
C1004 C1003 1.403 . S
C1004 C1005 1.404 1_565 S
C1004 C1007 1.539 . S
C1005 C1001 1.408 1_545 S
C1005 C1004 1.404 1_545 S
C1005 H1017 0.930 . S
C1006 C1002 1.524 . S
C1006 H1018 0.956 . S
C1006 H1019 0.961 . S
C1006 H1020 0.961 . S
C1007 C1004 1.539 . S
C1007 H1021 0.958 . S
C1007 H1022 0.961 . S
C1007 H1023 0.960 . S
H1008 C992 0.931 . S
H1009 C997 0.929 . S
H1010 C998 0.960 . S
H1011 C998 0.962 . S
H1012 C998 0.960 . S
H1013 C999 0.961 . S
H1014 C999 0.961 . S
H1015 C999 0.961 . S
H1016 C1000 0.931 . S
H1017 C1005 0.930 . S
H1018 C1006 0.956 . S
H1019 C1006 0.961 . S
H1020 C1006 0.961 . S
H1021 C1007 0.958 . S
H1022 C1007 0.961 . S
H1023 C1007 0.960 . S
C1024 C1025 1.391 . S
C1024 C1026 1.394 . S
C1024 H1040 0.931 . S
C1025 C1024 1.391 . S
C1025 C1029 1.376 . S
C1026 C1024 1.394 . S
C1026 C1027 1.369 . S
C1026 C1030 1.531 . S
C1027 C1026 1.369 . S
C1027 C1028 1.410 . S
C1027 C1035 1.503 . S
C1028 C1027 1.410 . S
C1028 C1029 1.392 . S
C1028 C1031 1.511 . S
C1029 C1025 1.376 . S
C1029 C1028 1.392 . S
C1029 H1041 0.929 . S
C1030 C1026 1.531 . S
C1030 H1042 0.960 . S
C1030 H1043 0.962 . S
C1030 H1044 0.960 . S
C1031 C1028 1.511 . S
C1031 H1045 0.961 . S
C1031 H1046 0.961 . S
C1031 H1047 0.961 . S
C1032 C1033 1.370 . S
C1032 C1034 1.363 . S
C1032 H1048 0.931 . S
C1033 C1032 1.370 . S
C1033 C1037 1.408 . S
C1034 C1032 1.363 . S
C1034 C1035 1.370 . S
C1034 C1038 1.524 . S
C1035 C1027 1.503 . S
C1035 C1034 1.370 . S
C1035 C1036 1.403 . S
C1036 C1035 1.403 . S
C1036 C1037 1.404 . S
C1036 C1039 1.539 . S
C1037 C1033 1.408 . S
C1037 C1036 1.404 . S
C1037 H1049 0.930 . S
C1038 C1034 1.524 . S
C1038 H1050 0.956 . S
C1038 H1051 0.961 . S
C1038 H1052 0.961 . S
C1039 C1036 1.539 . S
C1039 H1053 0.958 . S
C1039 H1054 0.961 . S
C1039 H1055 0.960 . S
H1040 C1024 0.931 . S
H1041 C1029 0.929 . S
H1042 C1030 0.960 . S
H1043 C1030 0.962 . S
H1044 C1030 0.960 . S
H1045 C1031 0.961 . S
H1046 C1031 0.961 . S
H1047 C1031 0.961 . S
H1048 C1032 0.931 . S
H1049 C1037 0.930 . S
H1050 C1038 0.956 . S
H1051 C1038 0.961 . S
H1052 C1038 0.961 . S
H1053 C1039 0.958 . S
H1054 C1039 0.961 . S
H1055 C1039 0.960 . S
C1056 C1057 1.391 . S
C1056 C1058 1.394 . S
C1056 H1072 0.931 . S
C1057 C1056 1.391 . S
C1057 C1061 1.376 . S
C1058 C1056 1.394 . S
C1058 C1059 1.369 . S
C1058 C1062 1.531 . S
C1059 C1058 1.369 . S
C1059 C1060 1.410 . S
C1059 C1067 1.503 . S
C1060 C1059 1.410 . S
C1060 C1061 1.392 . S
C1060 C1063 1.511 . S
C1061 C1057 1.376 . S
C1061 C1060 1.392 . S
C1061 H1073 0.929 . S
C1062 C1058 1.531 . S
C1062 H1074 0.960 . S
C1062 H1075 0.962 . S
C1062 H1076 0.960 . S
C1063 C1060 1.511 . S
C1063 H1077 0.961 . S
C1063 H1078 0.961 . S
C1063 H1079 0.961 . S
C1064 C1065 1.370 . S
C1064 C1066 1.363 . S
C1064 H1080 0.931 . S
C1065 C1064 1.370 . S
C1065 C1069 1.408 . S
C1066 C1064 1.363 . S
C1066 C1067 1.370 . S
C1066 C1070 1.524 . S
C1067 C1059 1.503 . S
C1067 C1066 1.370 . S
C1067 C1068 1.403 . S
C1068 C1067 1.403 . S
C1068 C1069 1.404 . S
C1068 C1071 1.539 . S
C1069 C1065 1.408 . S
C1069 C1068 1.404 . S
C1069 H1081 0.930 . S
C1070 C1066 1.524 . S
C1070 H1082 0.956 . S
C1070 H1083 0.961 . S
C1070 H1084 0.961 . S
C1071 C1068 1.539 . S
C1071 H1085 0.958 . S
C1071 H1086 0.961 . S
C1071 H1087 0.960 . S
H1072 C1056 0.931 . S
H1073 C1061 0.929 . S
H1074 C1062 0.960 . S
H1075 C1062 0.962 . S
H1076 C1062 0.960 . S
H1077 C1063 0.961 . S
H1078 C1063 0.961 . S
H1079 C1063 0.961 . S
H1080 C1064 0.931 . S
H1081 C1069 0.930 . S
H1082 C1070 0.956 . S
H1083 C1070 0.961 . S
H1084 C1070 0.961 . S
H1085 C1071 0.958 . S
H1086 C1071 0.961 . S
H1087 C1071 0.960 . S
C1088 C1089 1.391 . S
C1088 C1090 1.394 . S
C1088 H1104 0.931 . S
C1089 C1088 1.391 . S
C1089 C1093 1.376 . S
C1090 C1088 1.394 . S
C1090 C1091 1.369 . S
C1090 C1094 1.531 . S
C1091 C1090 1.369 . S
C1091 C1092 1.410 . S
C1091 C1099 1.503 . S
C1092 C1091 1.410 . S
C1092 C1093 1.392 . S
C1092 C1095 1.511 . S
C1093 C1089 1.376 . S
C1093 C1092 1.392 . S
C1093 H1105 0.929 . S
C1094 C1090 1.531 . S
C1094 H1106 0.960 . S
C1094 H1107 0.962 . S
C1094 H1108 0.960 . S
C1095 C1092 1.511 . S
C1095 H1109 0.961 . S
C1095 H1110 0.961 . S
C1095 H1111 0.961 . S
C1096 C1097 1.372 . S
C1096 C1098 1.377 . S
C1096 H1112 0.915 1_565 S
C1097 C1096 1.372 . S
C1097 C1101 1.408 . S
C1098 C1096 1.377 . S
C1098 C1099 1.370 . S
C1098 C1102 1.524 . S
C1099 C1091 1.503 . S
C1099 C1098 1.370 . S
C1099 C1100 1.403 . S
C1100 C1099 1.403 . S
C1100 C1101 1.404 . S
C1100 C1103 1.539 . S
C1101 C1097 1.408 . S
C1101 C1100 1.404 . S
C1101 H1113 0.930 . S
C1102 C1098 1.524 . S
C1102 H1114 0.956 . S
C1102 H1115 0.961 . S
C1102 H1116 0.961 1_565 S
C1103 C1100 1.539 . S
C1103 H1117 0.958 . S
C1103 H1118 0.961 . S
C1103 H1119 0.960 . S
H1104 C1088 0.931 . S
H1105 C1093 0.929 . S
H1106 C1094 0.960 . S
H1107 C1094 0.962 . S
H1108 C1094 0.960 . S
H1109 C1095 0.961 . S
H1110 C1095 0.961 . S
H1111 C1095 0.961 . S
H1112 C1096 0.915 1_545 S
H1113 C1101 0.930 . S
H1114 C1102 0.956 . S
H1115 C1102 0.961 . S
H1116 C1102 0.961 1_545 S
H1117 C1103 0.958 . S
H1118 C1103 0.961 . S
H1119 C1103 0.960 . S
C1120 C1121 1.391 . S
C1120 C1122 1.394 . S
C1120 H1136 0.931 . S
C1121 C1120 1.391 . S
C1121 C1125 1.376 . S
C1122 C1120 1.394 . S
C1122 C1123 1.369 . S
C1122 C1126 1.531 . S
C1123 C1122 1.369 . S
C1123 C1124 1.410 . S
C1123 C1131 1.503 . S
C1124 C1123 1.410 . S
C1124 C1125 1.392 . S
C1124 C1127 1.511 . S
C1125 C1121 1.376 . S
C1125 C1124 1.392 . S
C1125 H1137 0.929 . S
C1126 C1122 1.531 . S
C1126 H1138 0.960 . S
C1126 H1139 0.962 . S
C1126 H1140 0.960 . S
C1127 C1124 1.511 . S
C1127 H1141 0.961 . S
C1127 H1142 0.961 . S
C1127 H1143 0.961 . S
C1128 C1129 1.370 . S
C1128 C1130 1.363 . S
C1128 H1144 0.931 1_545 S
C1129 C1128 1.370 . S
C1129 C1133 1.408 . S
C1130 C1128 1.363 . S
C1130 C1131 1.370 . S
C1130 C1134 1.524 . S
C1131 C1123 1.503 . S
C1131 C1130 1.370 . S
C1131 C1132 1.403 . S
C1132 C1131 1.403 . S
C1132 C1133 1.404 . S
C1132 C1135 1.539 . S
C1133 C1129 1.408 . S
C1133 C1132 1.404 . S
C1133 H1145 0.930 . S
C1134 C1130 1.524 . S
C1134 H1146 0.956 . S
C1134 H1147 0.961 . S
C1134 H1148 0.961 . S
C1135 C1132 1.539 . S
C1135 H1149 0.958 . S
C1135 H1150 0.961 . S
C1135 H1151 0.960 . S
H1136 C1120 0.931 . S
H1137 C1125 0.929 . S
H1138 C1126 0.960 . S
H1139 C1126 0.962 . S
H1140 C1126 0.960 . S
H1141 C1127 0.961 . S
H1142 C1127 0.961 . S
H1143 C1127 0.961 . S
H1144 C1128 0.931 1_565 S
H1145 C1133 0.930 . S
H1146 C1134 0.956 . S
H1147 C1134 0.961 . S
H1148 C1134 0.961 . S
H1149 C1135 0.958 . S
H1150 C1135 0.961 . S
H1151 C1135 0.960 . S
C1152 C1153 1.391 . S
C1152 C1154 1.394 . S
C1152 H1168 0.931 . S
C1153 C1152 1.391 . S
C1153 C1157 1.376 . S
C1154 C1152 1.394 . S
C1154 C1155 1.369 . S
C1154 C1158 1.531 . S
C1155 C1154 1.369 . S
C1155 C1156 1.410 . S
C1155 C1163 1.503 . S
C1156 C1155 1.410 . S
C1156 C1157 1.392 . S
C1156 C1159 1.511 . S
C1157 C1153 1.376 . S
C1157 C1156 1.392 . S
C1157 H1169 0.929 . S
C1158 C1154 1.531 . S
C1158 H1170 0.960 . S
C1158 H1171 0.962 . S
C1158 H1172 0.960 . S
C1159 C1156 1.511 . S
C1159 H1173 0.961 . S
C1159 H1174 0.961 . S
C1159 H1175 0.961 . S
C1160 C1161 1.370 . S
C1160 C1162 1.363 . S
C1160 H1176 0.931 . S
C1161 C1160 1.370 . S
C1161 C1165 1.408 . S
C1162 C1160 1.363 . S
C1162 C1163 1.370 . S
C1162 C1166 1.524 . S
C1163 C1155 1.503 . S
C1163 C1162 1.370 . S
C1163 C1164 1.403 . S
C1164 C1163 1.403 . S
C1164 C1165 1.404 . S
C1164 C1167 1.539 . S
C1165 C1161 1.408 . S
C1165 C1164 1.404 . S
C1165 H1177 0.930 . S
C1166 C1162 1.524 . S
C1166 H1178 0.956 . S
C1166 H1179 0.961 . S
C1166 H1180 0.961 . S
C1167 C1164 1.539 . S
C1167 H1181 0.958 . S
C1167 H1182 0.961 . S
C1167 H1183 0.960 . S
H1168 C1152 0.931 . S
H1169 C1157 0.929 . S
H1170 C1158 0.960 . S
H1171 C1158 0.962 . S
H1172 C1158 0.960 . S
H1173 C1159 0.961 . S
H1174 C1159 0.961 . S
H1175 C1159 0.961 . S
H1176 C1160 0.931 . S
H1177 C1165 0.930 . S
H1178 C1166 0.956 . S
H1179 C1166 0.961 . S
H1180 C1166 0.961 . S
H1181 C1167 0.958 . S
H1182 C1167 0.961 . S
H1183 C1167 0.960 . S
C1184 C1185 1.391 . S
C1184 C1186 1.394 . S
C1184 H1200 0.931 . S
C1185 C1184 1.391 . S
C1185 C1189 1.376 . S
C1186 C1184 1.394 . S
C1186 C1187 1.369 . S
C1186 C1190 1.531 . S
C1187 C1186 1.369 . S
C1187 C1188 1.410 . S
C1187 C1195 1.503 . S
C1188 C1187 1.410 . S
C1188 C1189 1.392 . S
C1188 C1191 1.511 . S
C1189 C1185 1.376 . S
C1189 C1188 1.392 . S
C1189 H1201 0.929 . S
C1190 C1186 1.531 . S
C1190 H1202 0.960 . S
C1190 H1203 0.962 . S
C1190 H1204 0.960 . S
C1191 C1188 1.511 . S
C1191 H1205 0.961 . S
C1191 H1206 0.961 . S
C1191 H1207 0.961 . S
C1192 C1193 1.370 . S
C1192 C1194 1.363 . S
C1192 H1208 0.931 . S
C1193 C1192 1.370 . S
C1193 C1197 1.408 . S
C1194 C1192 1.363 . S
C1194 C1195 1.370 . S
C1194 C1198 1.524 . S
C1195 C1187 1.503 . S
C1195 C1194 1.370 . S
C1195 C1196 1.403 . S
C1196 C1195 1.403 . S
C1196 C1197 1.404 . S
C1196 C1199 1.539 . S
C1197 C1193 1.408 . S
C1197 C1196 1.404 . S
C1197 H1209 0.930 . S
C1198 C1194 1.524 . S
C1198 H1210 0.956 . S
C1198 H1211 0.961 . S
C1198 H1212 0.961 . S
C1199 C1196 1.539 . S
C1199 H1213 0.958 . S
C1199 H1214 0.961 . S
C1199 H1215 0.960 . S
H1200 C1184 0.931 . S
H1201 C1189 0.929 . S
H1202 C1190 0.960 . S
H1203 C1190 0.962 . S
H1204 C1190 0.960 . S
H1205 C1191 0.961 . S
H1206 C1191 0.961 . S
H1207 C1191 0.961 . S
H1208 C1192 0.931 . S
H1209 C1197 0.930 . S
H1210 C1198 0.956 . S
H1211 C1198 0.961 . S
H1212 C1198 0.961 . S
H1213 C1199 0.958 . S
H1214 C1199 0.961 . S
H1215 C1199 0.960 . S
C1216 C1217 1.391 . S
C1216 C1218 1.394 . S
C1216 H1232 0.931 . S
C1217 C1216 1.391 . S
C1217 C1221 1.376 . S
C1218 C1216 1.394 . S
C1218 C1219 1.369 . S
C1218 C1222 1.531 . S
C1219 C1218 1.369 . S
C1219 C1220 1.410 . S
C1219 C1227 1.503 . S
C1220 C1219 1.410 . S
C1220 C1221 1.392 . S
C1220 C1223 1.511 . S
C1221 C1217 1.376 . S
C1221 C1220 1.392 . S
C1221 H1233 0.929 . S
C1222 C1218 1.531 . S
C1222 H1234 0.960 . S
C1222 H1235 0.962 . S
C1222 H1236 0.960 . S
C1223 C1220 1.511 . S
C1223 H1237 0.961 . S
C1223 H1238 0.961 . S
C1223 H1239 0.961 . S
C1224 C1225 1.370 . S
C1224 C1226 1.363 . S
C1224 H1240 0.931 . S
C1225 C1224 1.370 . S
C1225 C1229 1.408 1_545 S
C1226 C1224 1.363 . S
C1226 C1227 1.370 . S
C1226 C1230 1.524 . S
C1227 C1219 1.503 . S
C1227 C1226 1.370 . S
C1227 C1228 1.403 . S
C1228 C1227 1.403 . S
C1228 C1229 1.404 1_545 S
C1228 C1231 1.539 . S
C1229 C1225 1.408 1_565 S
C1229 C1228 1.404 1_565 S
C1229 H1241 0.930 . S
C1230 C1226 1.524 . S
C1230 H1242 0.956 . S
C1230 H1243 0.961 . S
C1230 H1244 0.961 . S
C1231 C1228 1.539 . S
C1231 H1245 0.962 . S
C1231 H1246 0.961 1_545 S
C1231 H1247 0.960 . S
H1232 C1216 0.931 . S
H1233 C1221 0.929 . S
H1234 C1222 0.960 . S
H1235 C1222 0.962 . S
H1236 C1222 0.960 . S
H1237 C1223 0.961 . S
H1238 C1223 0.961 . S
H1239 C1223 0.961 . S
H1240 C1224 0.931 . S
H1241 C1229 0.930 . S
H1242 C1230 0.956 . S
H1243 C1230 0.961 . S
H1244 C1230 0.961 . S
H1245 C1231 0.962 . S
H1246 C1231 0.961 1_565 S
H1247 C1231 0.960 . S
C225 C203 1.468 . S
C233 C7 1.498 . S
C257 C34 1.506 . S
C265 C6 1.480 . S
C289 C160 1.506 . S
C297 C20 1.482 . S
C321 C21 1.472 . S
C329 C105 1.496 . S
C353 C35 1.483 . S
C361 C175 1.489 . S
C385 C132 1.482 . S
C393 C48 1.493 . S
C417 C49 1.506 . S
C425 C77 1.480 . S
C449 C147 1.466 . S
C457 C63 1.496 . S
C481 C62 1.476 . S
C489 C90 1.495 . S
C513 C216 1.483 . S
C521 C76 1.492 . S
C545 C119 1.480 . S
C553 C91 1.494 . S
C577 C188 1.501 . S
C585 C104 1.481 . S
C609 C118 1.501 . S
C617 C146 1.482 . S
C641 C217 1.513 . S
C649 C133 1.478 . S
C673 C161 1.478 . S
C681 C189 1.491 . S
C705 C202 1.460 . S
C713 C174 1.500 . S
C737 C79 1.684 . S
C745 C8 1.687 1_565 S
C769 C9 1.697 . S
C777 C78 1.693 . S
C801 C23 1.695 . S
C809 C64 1.694 . S
C833 C65 1.698 . S
C841 C22 1.694 1_565 S
C865 C107 1.680 . S
C873 C36 1.684 1_545 S
C897 C106 1.672 . S
C905 C37 1.687 . S
C929 C92 1.679 . S
C937 C51 1.691 . S
C961 C50 1.699 1_545 S
C969 C93 1.693 . S
C993 C191 1.672 . S
C1001 C120 1.685 1_565 S
C1025 C121 1.690 . S
C1033 C190 1.690 . S
C1057 C135 1.674 . S
C1065 C176 1.686 . S
C1089 C177 1.691 . S
C1097 C134 1.690 1_565 S
C1121 C219 1.697 . S
C1129 C148 1.691 1_545 S
C1153 C218 1.691 . S
C1161 C149 1.688 . S
C1185 C163 1.675 . S
C1193 C204 1.683 . S
C1217 C205 1.684 . S
C1225 C162 1.693 1_545 S
