# Generated by pormake.
# Topology uol, (4)-cn, num edge types: 1
# Building blocks:
#     Node 0, Type 0, BuildingBlock: KOZSID_clean_sbu_0, # of connection points: 4
#     Node 1, Type 0, BuildingBlock: KOZSID_clean_sbu_0, # of connection points: 4
#     Node 2, Type 0, BuildingBlock: KOZSID_clean_sbu_0, # of connection points: 4
#     Node 3, Type 0, BuildingBlock: KOZSID_clean_sbu_0, # of connection points: 4
#     Node 4, Type 0, BuildingBlock: KOZSID_clean_sbu_0, # of connection points: 4
#     Node 5, Type 0, BuildingBlock: KOZSID_clean_sbu_0, # of connection points: 4
#     Node 6, Type 0, BuildingBlock: KOZSID_clean_sbu_0, # of connection points: 4
#     Node 7, Type 0, BuildingBlock: KOZSID_clean_sbu_0, # of connection points: 4
#     Node 8, Type 0, BuildingBlock: KOZSID_clean_sbu_0, # of connection points: 4
#     Node 9, Type 0, BuildingBlock: KOZSID_clean_sbu_0, # of connection points: 4
#     Node 10, Type 0, BuildingBlock: KOZSID_clean_sbu_0, # of connection points: 4
#     Node 11, Type 0, BuildingBlock: KOZSID_clean_sbu_0, # of connection points: 4
#     Edge 12, Type (0, 0), BuildingBlock: KIFKEQ_clean_linker_1, # of connection points: 2
#     Edge 13, Type (0, 0), BuildingBlock: KIFKEQ_clean_linker_1, # of connection points: 2
#     Edge 14, Type (0, 0), BuildingBlock: KIFKEQ_clean_linker_1, # of connection points: 2
#     Edge 15, Type (0, 0), BuildingBlock: KIFKEQ_clean_linker_1, # of connection points: 2
#     Edge 16, Type (0, 0), BuildingBlock: KIFKEQ_clean_linker_1, # of connection points: 2
#     Edge 17, Type (0, 0), BuildingBlock: KIFKEQ_clean_linker_1, # of connection points: 2
#     Edge 18, Type (0, 0), BuildingBlock: KIFKEQ_clean_linker_1, # of connection points: 2
#     Edge 19, Type (0, 0), BuildingBlock: KIFKEQ_clean_linker_1, # of connection points: 2
#     Edge 20, Type (0, 0), BuildingBlock: KIFKEQ_clean_linker_1, # of connection points: 2
#     Edge 21, Type (0, 0), BuildingBlock: KIFKEQ_clean_linker_1, # of connection points: 2
#     Edge 22, Type (0, 0), BuildingBlock: KIFKEQ_clean_linker_1, # of connection points: 2
#     Edge 23, Type (0, 0), BuildingBlock: KIFKEQ_clean_linker_1, # of connection points: 2
#     Edge 24, Type (0, 0), BuildingBlock: KIFKEQ_clean_linker_1, # of connection points: 2
#     Edge 25, Type (0, 0), BuildingBlock: KIFKEQ_clean_linker_1, # of connection points: 2
#     Edge 26, Type (0, 0), BuildingBlock: KIFKEQ_clean_linker_1, # of connection points: 2
#     Edge 27, Type (0, 0), BuildingBlock: KIFKEQ_clean_linker_1, # of connection points: 2
#     Edge 28, Type (0, 0), BuildingBlock: KIFKEQ_clean_linker_1, # of connection points: 2
#     Edge 29, Type (0, 0), BuildingBlock: KIFKEQ_clean_linker_1, # of connection points: 2
#     Edge 30, Type (0, 0), BuildingBlock: KIFKEQ_clean_linker_1, # of connection points: 2
#     Edge 31, Type (0, 0), BuildingBlock: KIFKEQ_clean_linker_1, # of connection points: 2
#     Edge 32, Type (0, 0), BuildingBlock: KIFKEQ_clean_linker_1, # of connection points: 2
#     Edge 33, Type (0, 0), BuildingBlock: KIFKEQ_clean_linker_1, # of connection points: 2
#     Edge 34, Type (0, 0), BuildingBlock: KIFKEQ_clean_linker_1, # of connection points: 2
#     Edge 35, Type (0, 0), BuildingBlock: KIFKEQ_clean_linker_1, # of connection points: 2
# Relax obj value: 0.144
# Max RMSD: 0.327
# Mean RMSD: 0.313
data_MOF--net-uol--node1-KOZSID_clean_sbu_0--edge1-KIFKEQ_clean_linker_1
_symmetry_space_group_name_H-M    P1
_symmetry_Int_Tables_number       1
_symmetry_cell_setting            triclinic
loop_
_symmetry_equiv_pos_as_xyz
'x, y, z'
_cell_length_a     41.857762
_cell_length_b     44.624962
_cell_length_c     68.131354
_cell_angle_alpha  89.995613
_cell_angle_beta   90.023146
_cell_angle_gamma 117.97119
loop_
_atom_site_label
_atom_site_type_symbol
_atom_site_fract_x
_atom_site_fract_y
_atom_site_fract_z
_atom_type_partial_charge
C0 C 0.18209 0.33828 0.08892 0.0
C1 C 0.17322 0.32582 0.06994 0.0
C2 C 0.13728 0.31682 0.06741 0.0
C3 C 0.12635 0.32436 0.08491 0.0
N4 N 0.1532 0.33758 0.09818 0.0
Co5 Co 0.14935 0.35165 0.12523 0.0
N6 N 0.09618 0.32245 0.12551 0.0
C7 C 0.07514 0.31022 0.10947 0.0
C8 C 0.03903 0.29229 0.11388 0.0
C9 C 0.03716 0.29359 0.13391 0.0
C10 C 0.07244 0.31226 0.14069 0.0
N11 N 0.14519 0.36619 0.15225 0.0
C12 C 0.11749 0.35231 0.16534 0.0
C13 C 0.1265 0.37104 0.1826 0.0
C14 C 0.16043 0.39789 0.17992 0.0
C15 C 0.17053 0.39408 0.16129 0.0
N16 N 0.20253 0.38037 0.12466 0.0
C17 C 0.22189 0.40662 0.13662 0.0
C18 C 0.2585 0.42025 0.13332 0.0
C19 C 0.26212 0.40122 0.11839 0.0
C20 C 0.22743 0.37701 0.11338 0.0
N21 N 0.14293 0.38996 0.11479 0.0
C22 C 0.14059 0.45023 0.10362 0.0
C23 C 0.16445 0.44036 0.09458 0.0
C24 C 0.16525 0.41044 0.10035 0.0
C25 C 0.11694 0.42812 0.11787 0.0
C26 C 0.11832 0.39827 0.12307 0.0
N27 N 0.15717 0.31448 0.1359 0.0
C28 C 0.19211 0.29872 0.15777 0.0
C29 C 0.18254 0.26856 0.14742 0.0
C30 C 0.1575 0.2607 0.13197 0.0
C31 C 0.14488 0.28386 0.12657 0.0
C32 C 0.1796 0.3212 0.15174 0.0
H33 H 0.12657 0.27771 0.11428 0.0
H34 H 0.18984 0.34492 0.15943 0.0
H35 H 0.18466 0.40433 0.09344 0.0
H36 H 0.10014 0.38251 0.13433 0.0
C37 C 0.09049 0.31283 0.09086 0.0
C38 C 0.21828 0.35176 0.09755 0.0
C39 C 0.08171 0.32306 0.16126 0.0
C40 C 0.20534 0.41242 0.15312 0.0
H41 H 0.19077 0.32324 0.05917 0.0
H42 H 0.12072 0.30449 0.05473 0.0
H43 H 1.01673 0.27942 0.10378 0.0
H44 H 1.01249 0.28285 0.14245 0.0
H45 H 0.11033 0.36603 0.19575 0.0
H46 H 0.17632 0.41714 0.19058 0.0
H47 H 0.28011 0.44028 0.14153 0.0
H48 H 0.28731 0.4045 0.11214 0.0
H49 H 0.18273 0.45569 0.08313 0.0
H50 H 0.09811 0.43419 0.12557 0.0
H51 H 0.21014 0.30564 0.17028 0.0
H52 H 0.14885 0.23761 0.12355 0.0
C53 C 0.71763 0.15551 0.29547 0.0
C54 C 0.70589 0.17836 0.30166 0.0
C55 C 0.73135 0.20014 0.31443 0.0
C56 C 0.75728 0.18964 0.31526 0.0
N57 N 0.74997 0.16252 0.30383 0.0
Co58 Co 0.78226 0.14118 0.30021 0.0
N59 N 0.81214 0.16491 0.32376 0.0
C60 C 0.81068 0.19033 0.33371 0.0
C61 C 0.83378 0.20165 0.34941 0.0
C62 C 0.85166 0.18273 0.3492 0.0
C63 C 0.8385 0.16088 0.33324 0.0
N64 N 0.8151 0.12065 0.2962 0.0
C65 C 0.84347 0.12298 0.30708 0.0
C66 C 0.86063 0.10674 0.29785 0.0
C67 C 0.84302 0.09448 0.28043 0.0
C68 C 0.81612 0.10382 0.27998 0.0
N69 N 0.75103 0.11671 0.27717 0.0
C70 C 0.75929 0.09993 0.26333 0.0
C71 C 0.73266 0.08482 0.24946 0.0
C72 C 0.70593 0.09272 0.25475 0.0
C73 C 0.71784 0.11258 0.27152 0.0
N74 N 0.81515 0.1792 0.28283 0.0
C75 C 0.86728 0.22051 0.25482 0.0
C76 C 0.83014 0.20447 0.25036 0.0
C77 C 0.80451 0.1847 0.2647 0.0
C78 C 0.87726 0.21744 0.27395 0.0
C79 C 0.85122 0.19682 0.28749 0.0
N80 N 0.75113 0.1027 0.31738 0.0
C81 C 0.72751 0.04311 0.32499 0.0
C82 C 0.71971 0.04821 0.34434 0.0
C83 C 0.72614 0.08111 0.34949 0.0
C84 C 0.74144 0.1078 0.33579 0.0
C85 C 0.743 0.07039 0.31188 0.0
H86 H 0.74665 0.13278 0.34038 0.0
H87 H 0.74987 0.06535 0.29751 0.0
H88 H 0.77631 0.1728 0.26071 0.0
H89 H 0.8614 0.19405 0.30134 0.0
C90 C 0.7858 0.20146 0.32859 0.0
C91 C 0.69799 0.1288 0.28088 0.0
C92 C 0.85725 0.14279 0.32523 0.0
C93 C 0.79013 0.09561 0.26521 0.0
H94 H 0.68153 0.17938 0.29735 0.0
H95 H 0.73048 0.22055 0.32259 0.0
H96 H 0.83747 0.22152 0.35968 0.0
H97 H 0.87337 0.18604 0.35904 0.0
H98 H 0.88404 0.10475 0.303 0.0
H99 H 0.84916 0.0805 0.26939 0.0
H100 H 0.73225 0.0691 0.23727 0.0
H101 H 0.68065 0.08485 0.24704 0.0
H102 H 0.821 0.20673 0.23582 0.0
H103 H 0.9055 0.22927 0.2782 0.0
H104 H 0.72334 1.01842 0.32015 0.0
H105 H 0.71989 0.08637 0.3641 0.0
C106 C 0.67356 0.82638 0.42764 0.0
C107 C 0.68784 0.82891 0.40898 0.0
C108 C 0.69986 0.80509 0.40794 0.0
C109 C 0.69216 0.78933 0.42594 0.0
N110 N 0.67601 0.80177 0.43812 0.0
Co111 Co 0.66099 0.78708 0.46547 0.0
N112 N 0.69496 0.76792 0.46776 0.0
C113 C 0.70964 0.7593 0.45261 0.0
C114 C 0.73137 0.74563 0.45858 0.0
C115 C 0.73 0.74541 0.47871 0.0
C116 C 0.70747 0.75909 0.48395 0.0
N117 N 0.64567 0.77197 0.49282 0.0
C118 C 0.66212 0.7627 0.507 0.0
C119 C 0.64174 0.75396 0.52411 0.0
C120 C 0.61132 0.75733 0.52027 0.0
C121 C 0.61477 0.76807 0.50112 0.0
N122 N 0.62745 0.80669 0.46292 0.0
C123 C 0.59858 0.79939 0.47436 0.0
C124 C 0.58182 0.8186 0.46967 0.0
C125 C 0.60152 0.83916 0.45438 0.0
C126 C 0.62923 0.83127 0.45051 0.0
N127 N 0.62273 0.74276 0.45594 0.0
C128 C 0.56405 0.67962 0.44467 0.0
C129 C 0.57164 0.70993 0.43472 0.0
C130 C 0.6008 0.74099 0.44058 0.0
C131 C 0.58741 0.68199 0.46013 0.0
C132 C 0.61644 0.7134 0.46537 0.0
N133 N 0.69835 0.83119 0.47515 0.0
C134 C 0.71434 0.87963 0.49619 0.0
C135 C 0.74778 0.89727 0.48685 0.0
C136 C 0.75652 0.88088 0.47184 0.0
C137 C 0.73167 0.84756 0.46645 0.0
C138 C 0.68997 0.84695 0.49001 0.0
H139 H 0.73899 0.83537 0.45491 0.0
H140 H 0.66383 0.83489 0.49693 0.0
H141 H 0.60531 0.76374 0.43281 0.0
H142 H 0.63335 0.71393 0.47744 0.0
C143 C 0.70648 0.76881 0.43336 0.0
C144 C 0.65634 0.84639 0.43475 0.0
C145 C 0.69566 0.76 0.50419 0.0
C146 C 0.59338 0.78042 0.49165 0.0
H147 H 0.68963 0.8463 0.39744 0.0
H148 H 0.71431 0.80113 0.39589 0.0
H149 H 0.74705 0.73754 0.44944 0.0
H150 H 0.74346 0.73567 0.48839 0.0
H151 H 0.64807 0.74596 0.53791 0.0
H152 H 0.59002 0.75369 0.53049 0.0
H153 H 0.55935 0.81915 0.4772 0.0
H154 H 0.59635 0.85806 0.44718 0.0
H155 H 0.55526 0.70986 0.42242 0.0
H156 H 0.58295 0.65988 0.46862 0.0
H157 H 0.70649 0.89154 0.50774 0.0
H158 H 0.78226 0.89373 0.46431 0.0
C159 C 0.87307 0.70278 0.58892 0.0
C160 C 0.88231 0.71547 0.57001 0.0
C161 C 0.91824 0.72432 0.56765 0.0
C162 C 0.9288 0.71647 0.58518 0.0
N163 N 0.90173 0.7032 0.59831 0.0
Co164 Co 0.90505 0.68859 0.62531 0.0
N165 N 0.95826 0.71744 0.62586 0.0
C166 C 0.97957 0.72978 0.60994 0.0
C167 C 1.01563 0.74744 0.61452 0.0
C168 C 1.01718 0.74584 0.63456 0.0
C169 C 0.98178 0.72729 0.64116 0.0
N170 N 0.9087 0.67353 0.65228 0.0
C171 C 0.93622 0.68709 0.66552 0.0
C172 C 0.92684 0.66809 0.68268 0.0
C173 C 0.89287 0.64141 0.67979 0.0
C174 C 0.8831 0.64558 0.66114 0.0
N175 N 0.85182 0.6602 0.62448 0.0
C176 C 0.83215 0.63382 0.6363 0.0
C177 C 0.79562 0.62041 0.63282 0.0
C178 C 0.79236 0.6397 0.61793 0.0
C179 C 0.82718 0.66383 0.6131 0.0
N180 N 0.91117 0.65023 0.61471 0.0
C181 C 0.91272 0.58972 0.60332 0.0
C182 C 0.88938 0.60016 0.59421 0.0
C183 C 0.88896 0.63018 0.6001 0.0
C184 C 0.93631 0.61141 0.61775 0.0
C185 C 0.93534 0.6414 0.62305 0.0
N186 N 0.89748 0.7258 0.63613 0.0
C187 C 0.86254 0.74153 0.65799 0.0
C188 C 0.87243 0.77187 0.64778 0.0
C189 C 0.89764 0.77983 0.63242 0.0
C190 C 0.91009 0.75658 0.62695 0.0
C191 C 0.87488 0.71897 0.65189 0.0
H192 H 0.92854 0.76281 0.61473 0.0
H193 H 0.86437 0.69512 0.65945 0.0
H194 H 0.86989 0.63671 0.59313 0.0
H195 H 0.95345 0.65684 0.63444 0.0
C196 C 0.96453 0.72762 0.59127 0.0
C197 C 0.83671 0.68925 0.59733 0.0
C198 C 0.97213 0.71631 0.66167 0.0
C199 C 0.84837 0.6276 0.65281 0.0
H200 H 0.865 0.71826 0.55916 0.0
H201 H 0.93503 0.7367 0.55506 0.0
H202 H 0.0381 0.76035 0.60454 0.0
H203 H 0.04171 0.75634 0.64322 0.0
H204 H 0.9428 0.67282 0.6959 0.0
H205 H 0.87672 0.62206 0.69033 0.0
H206 H 0.77381 0.60032 0.64088 0.0
H207 H 0.76731 0.63661 0.61157 0.0
H208 H 0.87121 0.5852 0.58262 0.0
H209 H 0.95477 0.60489 0.6255 0.0
H210 H 0.84434 0.73451 0.67043 0.0
H211 H 0.90654 0.80307 0.62413 0.0
C212 C 0.33654 0.88501 0.7968 0.0
C213 C 0.34986 0.86456 0.80496 0.0
C214 C 0.32485 0.84402 0.81829 0.0
C215 C 0.29788 0.85319 0.81773 0.0
N216 N 0.30415 0.87843 0.80495 0.0
Co217 Co 0.27148 0.89916 0.8002 0.0
N218 N 0.24163 0.87695 0.82403 0.0
C219 C 0.24389 0.85304 0.83514 0.0
C220 C 0.22081 0.84284 0.85086 0.0
C221 C 0.20212 0.86092 0.84947 0.0
C222 C 0.21485 0.88119 0.83286 0.0
N223 N 0.23812 0.9188 0.79499 0.0
C224 C 0.20925 0.91652 0.80533 0.0
C225 C 0.19175 0.93166 0.7953 0.0
C226 C 0.20968 0.94317 0.77789 0.0
C227 C 0.23708 0.93449 0.77827 0.0
N228 N 0.30293 0.92257 0.77702 0.0
C229 C 0.29468 0.93846 0.76262 0.0
C230 C 0.32091 0.95204 0.74844 0.0
C231 C 0.34743 0.94409 0.7541 0.0
C232 C 0.33591 0.92603 0.77151 0.0
N233 N 0.23891 0.85989 0.78339 0.0
C234 C 0.18635 0.81818 0.75563 0.0
C235 C 0.22336 0.83461 0.75092 0.0
C236 C 0.24922 0.85451 0.76515 0.0
C237 C 0.17679 0.82075 0.77493 0.0
C238 C 0.20305 0.84152 0.78836 0.0
N239 N 0.30212 0.93884 0.81676 0.0
C240 C 0.32199 0.99802 0.82392 0.0
C241 C 0.33106 0.99409 0.84319 0.0
C242 C 0.3279 0.96238 0.84847 0.0
C243 C 0.31335 0.93513 0.83508 0.0
C244 C 0.30812 0.97044 0.81097 0.0
H245 H 0.30974 0.91078 0.83993 0.0
H246 H 0.30069 0.97456 0.79653 0.0
H247 H 0.27728 0.86665 0.76091 0.0
H248 H 0.19304 0.84381 0.80237 0.0
C249 C 0.26949 0.84236 0.83107 0.0
C250 C 0.35532 0.90966 0.78108 0.0
C251 C 0.19554 0.89794 0.82383 0.0
C252 C 0.26348 0.94232 0.76379 0.0
H253 H 0.37522 0.86463 0.80183 0.0
H254 H 0.32686 0.82562 0.82786 0.0
H255 H 0.21772 0.82427 0.86193 0.0
H256 H 0.18028 0.85812 0.85905 0.0
H257 H 0.16797 0.93345 0.79992 0.0
H258 H 0.20344 0.95624 0.76634 0.0
H259 H 0.32094 0.96631 0.73558 0.0
H260 H 0.37206 0.95018 0.74611 0.0
H261 H 0.23224 0.83262 0.73628 0.0
H262 H 0.14867 0.80848 0.77941 0.0
H263 H 0.32481 0.02221 0.81895 0.0
H264 H 0.33488 0.95814 0.86315 0.0
C265 C 0.37887 0.21577 0.92705 0.0
C266 C 0.36379 0.21323 0.90859 0.0
C267 C 0.35108 0.23657 0.90805 0.0
C268 C 0.35923 0.25212 0.92611 0.0
N269 N 0.37631 0.24 0.93786 0.0
Co270 Co 0.39267 0.25485 0.96501 0.0
N271 N 0.35815 0.27323 0.96816 0.0
C272 C 0.34251 0.28164 0.95338 0.0
C273 C 0.32073 0.29492 0.95988 0.0
C274 C 0.32311 0.29511 0.97997 0.0
C275 C 0.34624 0.28181 0.98465 0.0
N276 N 0.40914 0.26994 0.99223 0.0
C277 C 0.39306 0.2788 1.00682 0.0
C278 C 0.4143 0.28778 0.02362 0.0
C279 C 0.44485 0.28501 0.01917 0.0
C280 C 0.44064 0.27435 0.99997 0.0
N281 N 0.42693 0.23618 0.96152 0.0
C282 C 0.45649 0.24398 0.97249 0.0
C283 C 0.47327 0.22495 0.96748 0.0
C284 C 0.4529 0.20401 0.95248 0.0
C285 C 0.42481 0.21157 0.94902 0.0
N286 N 0.42987 0.29947 0.95524 0.0
C287 C 0.48829 0.36276 0.94407 0.0
C288 C 0.48028 0.3327 0.93375 0.0
C289 C 0.45124 0.30155 0.93955 0.0
C290 C 0.4653 0.36014 0.95977 0.0
C291 C 0.43637 0.32863 0.96497 0.0
N292 N 0.35653 0.21044 0.97494 0.0
C293 C 0.34464 0.16073 0.99388 0.0
C294 C 0.30991 0.14312 0.9859 0.0
C295 C 0.29814 0.16054 0.97305 0.0
C296 C 0.32199 0.19426 0.96769 0.0
C297 C 0.36724 0.19419 0.98838 0.0
H298 H 0.313 0.20686 0.95721 0.0
H299 H 0.39405 0.20642 0.9945 0.0
H300 H 0.44651 0.27897 0.93153 0.0
H301 H 0.41985 0.32785 0.97729 0.0
C302 C 0.34487 0.27228 0.93398 0.0
C303 C 0.39689 0.19611 0.93362 0.0
C304 C 0.35911 0.28102 1.00465 0.0
C305 C 0.46209 0.26273 0.98991 0.0
H306 H 0.36197 0.19617 0.89685 0.0
H307 H 0.33599 0.2404 0.89628 0.0
H308 H 0.30439 0.30276 0.95111 0.0
H309 H 0.3099 0.30461 0.98998 0.0
H310 H 0.40847 0.29561 0.03761 0.0
H311 H 0.46681 0.28904 0.02901 0.0
H312 H 0.49612 0.22461 0.97472 0.0
H313 H 0.45788 0.18499 0.94532 0.0
H314 H 0.49633 0.33301 0.92123 0.0
H315 H 0.47006 0.38209 0.96852 0.0
H316 H 0.35463 0.14844 1.00408 0.0
H317 H 0.27139 0.14782 0.96661 0.0
C318 C 0.58165 0.8833 0.71799 0.0
C319 C 0.54779 0.86212 0.71016 0.0
C320 C 0.5523 0.8411 0.69721 0.0
C321 C 0.58855 0.85071 0.69763 0.0
N322 N 0.60753 0.87668 0.70999 0.0
Co323 Co 0.66107 0.89832 0.71436 0.0
N324 N 0.66863 0.87549 0.69079 0.0
C325 C 0.64241 0.8506 0.68019 0.0
C326 C 0.65516 0.84004 0.66457 0.0
C327 C 0.69191 0.85892 0.6655 0.0
C328 C 0.69958 0.88 0.68177 0.0
N329 N 0.71428 0.91908 0.71914 0.0
C330 C 0.74093 0.91714 0.70866 0.0
C331 C 0.77385 0.93326 0.71839 0.0
C332 C 0.76755 0.94503 0.73573 0.0
C333 C 0.73127 0.93555 0.73563 0.0
N334 N 0.65303 0.92209 0.73735 0.0
C335 C 0.67731 0.9385 0.7516 0.0
C336 C 0.66462 0.95224 0.76568 0.0
C337 C 0.62998 0.94384 0.76008 0.0
C338 C 0.62341 0.92539 0.74282 0.0
N339 N 0.65554 0.85992 0.73157 0.0
C340 C 0.66631 0.81854 0.75958 0.0
C341 C 0.64508 0.83444 0.764 0.0
C342 C 0.63922 0.85422 0.74964 0.0
C343 C 0.67943 0.82168 0.74047 0.0
C344 C 0.67401 0.84232 0.72692 0.0
N345 N 0.66884 0.93716 0.69739 0.0
C346 C 0.70491 0.99691 0.6902 0.0
C347 C 0.69244 0.99215 0.67076 0.0
C348 C 0.66611 0.95936 0.66536 0.0
C349 C 0.65447 0.93243 0.67888 0.0
C350 C 0.69282 0.96937 0.70316 0.0
H351 H 0.63485 0.90757 0.67405 0.0
H352 H 0.70434 0.97414 0.71763 0.0
H353 H 0.62276 0.86595 0.75362 0.0
H354 H 0.68704 0.84511 0.7131 0.0
C355 C 0.60612 0.83955 0.68449 0.0
C356 C 0.58757 0.90863 0.73332 0.0
C357 C 0.73593 0.89788 0.69039 0.0
C358 C 0.71266 0.94314 0.7502 0.0
H359 H 0.52239 0.86201 0.71327 0.0
H360 H 0.53182 0.82207 0.68794 0.0
H361 H 0.63961 0.82078 0.65384 0.0
H362 H 0.7109 0.85615 0.65588 0.0
H363 H 0.79953 0.93547 0.71362 0.0
H364 H 0.78707 0.95875 0.74709 0.0
H365 H 0.67899 0.96703 0.77836 0.0
H366 H 0.61141 0.94998 0.76801 0.0
H367 H 0.63358 0.83209 0.7785 0.0
H368 H 0.6959 0.80991 0.73624 0.0
H369 H 0.72529 0.02152 0.69524 0.0
H370 H 0.65486 0.95436 0.65068 0.0
C371 C 0.86398 0.70292 0.92629 0.0
C372 C 0.8677 0.71577 0.94518 0.0
C373 C 0.84082 0.72486 0.94759 0.0
C374 C 0.82223 0.71698 0.93012 0.0
N375 N 0.83574 0.70347 0.91697 0.0
Co376 Co 0.81756 0.68883 0.89 0.0
N377 N 0.79357 0.71801 0.88948 0.0
C378 C 0.78487 0.73054 0.90542 0.0
C379 C 0.76666 0.74838 0.90086 0.0
C380 C 0.76334 0.74669 0.88083 0.0
C381 C 0.7799 0.7279 0.87421 0.0
N382 N 0.79864 0.67375 0.86307 0.0
C383 C 0.78475 0.6874 0.84985 0.0
C384 C 0.77491 0.66834 0.83271 0.0
C385 C 0.78198 0.64153 0.8356 0.0
C386 C 0.79601 0.64569 0.85423 0.0
N387 N 0.84204 0.66013 0.89082 0.0
C388 C 0.83501 0.63362 0.87904 0.0
C389 C 0.85794 0.61999 0.88249 0.0
C390 C 0.8807 0.63927 0.89732 0.0
C391 C 0.87032 0.66362 0.90214 0.0
N392 N 0.77295 0.65074 0.90068 0.0
C393 C 0.71054 0.59058 0.91211 0.0
C394 C 0.74431 0.60069 0.92116 0.0
C395 C 0.77494 0.63056 0.91526 0.0
C396 C 0.70884 0.61242 0.89772 0.0
C397 C 0.73997 0.64222 0.8924 0.0
N398 N 0.86241 0.72578 0.8791 0.0
C399 C 0.91294 0.74113 0.85719 0.0
C400 C 0.93344 0.77163 0.86725 0.0
C401 C 0.91632 0.77983 0.88257 0.0
C402 C 0.88067 0.75668 0.88815 0.0
C403 C 0.87806 0.7187 0.86339 0.0
H404 H 0.86854 0.76307 0.90035 0.0
H405 H 0.86461 0.69475 0.85592 0.0
H406 H 0.80052 0.63685 0.92218 0.0
H407 H 0.73744 0.65777 0.88103 0.0
C408 C 0.79781 0.72835 0.92406 0.0
C409 C 0.88654 0.68914 0.91784 0.0
C410 C 0.77829 0.71675 0.85371 0.0
C411 C 0.81253 0.6275 0.86256 0.0
H412 H 0.88788 0.71852 0.95598 0.0
H413 H 0.83666 0.73742 0.96017 0.0
H414 H 0.75731 0.76145 0.91086 0.0
H415 H 0.74935 0.75726 0.8722 0.0
H416 H 0.76369 0.67311 0.81951 0.0
H417 H 0.77855 0.62208 0.82508 0.0
H418 H 0.85941 0.59976 0.87444 0.0
H419 H 0.90259 0.63604 0.90365 0.0
H420 H 0.74737 0.58557 0.93271 0.0
H421 H 0.68388 0.60614 0.89002 0.0
H422 H 0.92406 0.73393 0.84481 0.0
H423 H 0.93074 0.80321 0.89074 0.0
C424 C 0.18347 0.82558 0.08835 0.0
C425 C 0.17103 0.82891 0.10668 0.0
C426 C 0.1349 0.8058 0.10732 0.0
C427 C 0.12736 0.78964 0.08944 0.0
N428 N 0.15653 0.80115 0.07771 0.0
Co429 Co 0.15774 0.78568 0.05066 0.0
N430 N 0.10488 0.76762 0.04752 0.0
C431 C 0.0809 0.75969 0.06229 0.0
C432 C 0.04585 0.74655 0.0558 0.0
C433 C 0.04794 0.74594 0.03572 0.0
C434 C 0.08433 0.75889 0.03103 0.0
N435 N 0.15888 0.77009 0.02354 0.0
C436 C 0.13392 0.76118 0.00895 0.0
C437 C 0.14598 0.7518 0.99223 0.0
C438 C 0.17919 0.75435 0.99675 0.0
C439 C 0.18577 0.76529 0.01589 0.0
N440 N 0.21061 0.80397 0.05414 0.0
C441 C 0.23211 0.7956 0.04335 0.0
C442 C 0.26793 0.81404 0.04855 0.0
C443 C 0.26875 0.8352 0.06348 0.0
C444 C 0.23327 0.82842 0.06665 0.0
N445 N 0.14997 0.74109 0.0607 0.0
C446 C 0.14511 0.67783 0.07201 0.0
C447 C 0.16716 0.70795 0.0823 0.0
C448 C 0.16925 0.73907 0.07643 0.0
C449 C 0.12465 0.68037 0.05632 0.0
C450 C 0.12722 0.71185 0.05106 0.0
N451 N 0.16636 0.83004 0.04045 0.0
C452 C 0.20438 0.87938 0.02131 0.0
C453 C 0.18733 0.89722 0.02905 0.0
C454 C 0.15808 0.88008 0.04189 0.0
C455 C 0.14808 0.84644 0.04748 0.0
C456 C 0.1934 0.846 0.02703 0.0
H457 H 0.12643 0.83407 0.05794 0.0
H458 H 0.2079 0.83357 0.02108 0.0
H459 H 0.18714 0.7617 0.0844 0.0
H460 H 0.11145 0.71257 0.03873 0.0
C461 C 0.09276 0.7695 0.08164 0.0
C462 C 0.22122 0.84453 0.08182 0.0
C463 C 0.09788 0.75928 0.01105 0.0
C464 C 0.21881 0.77668 0.02599 0.0
H465 H 0.18641 0.84631 0.11826 0.0
H466 H 0.11605 0.80255 0.11902 0.0
H467 H 1.02174 0.73911 0.06456 0.0
H468 H 1.0252 0.73645 0.02571 0.0
H469 H 0.13225 0.74383 0.97827 0.0
H470 H 0.19695 0.74995 0.98698 0.0
H471 H 0.29097 0.81376 0.04153 0.0
H472 H 0.29275 0.8538 0.07088 0.0
H473 H 0.18295 0.70772 0.09482 0.0
H474 H 0.10744 0.65838 0.04761 0.0
H475 H 0.22668 0.89142 0.01109 0.0
H476 H 0.14408 0.89296 0.04816 0.0
C477 C 0.47093 0.15482 0.22023 0.0
C478 C 0.50549 0.17754 0.21392 0.0
C479 C 0.50175 0.19912 0.20104 0.0
C480 C 0.46532 0.18866 0.20026 0.0
N481 N 0.44556 0.16174 0.21183 0.0
Co482 Co 0.39196 0.14055 0.21557 0.0
N483 N 0.38569 0.16398 0.19193 0.0
C484 C 0.41252 0.18919 0.18183 0.0
C485 C 0.40064 0.20032 0.16608 0.0
C486 C 0.36384 0.1815 0.16641 0.0
C487 C 0.35524 0.1599 0.18249 0.0
N488 N 0.33864 0.1202 0.21971 0.0
C489 C 0.31255 0.12249 0.20885 0.0
C490 C 0.27923 0.10645 0.21817 0.0
C491 C 0.28469 0.09438 0.23563 0.0
C492 C 0.3209 0.10361 0.23601 0.0
N493 N 0.39885 0.11634 0.23871 0.0
C494 C 0.37389 0.09976 0.25263 0.0
C495 C 0.38548 0.0848 0.26655 0.0
C496 C 0.42007 0.09261 0.26123 0.0
C497 C 0.42792 0.11226 0.24437 0.0
N498 N 0.39734 0.17884 0.2328 0.0
C499 C 0.38667 0.22045 0.26067 0.0
C500 C 0.4077 0.20437 0.26521 0.0
C501 C 0.4135 0.18446 0.25092 0.0
C502 C 0.37364 0.21728 0.24153 0.0
C503 C 0.37901 0.19653 0.22806 0.0
N504 N 0.38435 0.10179 0.19856 0.0
C505 C 0.34803 0.04215 0.19118 0.0
C506 C 0.36088 0.04693 0.17182 0.0
C507 C 0.38749 0.0797 0.16656 0.0
C508 C 0.39906 0.10659 0.18015 0.0
C509 C 0.36005 0.0696 0.20419 0.0
H510 H 0.41892 0.13147 0.17546 0.0
H511 H 0.34821 0.06479 0.21857 0.0
H512 H 0.42976 0.17255 0.25497 0.0
H513 H 0.36607 0.1937 0.2142 0.0
C514 C 0.44856 0.20032 0.18687 0.0
C515 C 0.46394 0.12834 0.23495 0.0
C516 C 0.31848 0.14206 0.19062 0.0
C517 C 0.33875 0.09551 0.25079 0.0
H518 H 0.53088 0.17859 0.21822 0.0
H519 H 0.52298 0.21939 0.19277 0.0
H520 H 0.41678 0.22001 0.1557 0.0
H521 H 0.34539 0.18473 0.15657 0.0
H522 H 0.25383 0.10448 0.21306 0.0
H523 H 0.26465 0.08057 0.24674 0.0
H524 H 0.37025 0.06927 0.27882 0.0
H525 H 0.43752 0.08484 0.26897 0.0
H526 H 0.4191 0.20671 0.27975 0.0
H527 H 0.35729 0.22914 0.23722 0.0
H528 H 0.32741 1.01759 0.19612 0.0
H529 H 0.39899 0.08474 0.15195 0.0
C530 C 0.19005 0.33848 0.42654 0.0
C531 C 0.18656 0.32605 0.44552 0.0
C532 C 0.21362 0.31721 0.44804 0.0
C533 C 0.23206 0.32481 0.43053 0.0
N534 N 0.21829 0.3379 0.41726 0.0
Co535 Co 0.2362 0.35209 0.39022 0.0
N536 N 0.26045 0.32315 0.38994 0.0
C537 C 0.2694 0.31102 0.40597 0.0
C538 C 0.28775 0.29326 0.40155 0.0
C539 C 0.2909 0.29456 0.38152 0.0
C540 C 0.2741 0.31306 0.37475 0.0
N541 N 0.25491 0.36674 0.36322 0.0
C542 C 0.26881 0.35295 0.35011 0.0
C543 C 0.27845 0.3717 0.33286 0.0
C544 C 0.27122 0.39845 0.33555 0.0
C545 C 0.2573 0.39458 0.35419 0.0
N546 N 0.21145 0.38056 0.39079 0.0
C547 C 0.2182 0.40679 0.37883 0.0
C548 C 0.19508 0.42026 0.38214 0.0
C549 C 0.1725 0.40116 0.39708 0.0
C550 C 0.18316 0.37708 0.40209 0.0
N551 N 0.28074 0.39056 0.40071 0.0
C552 C 0.34291 0.45113 0.41199 0.0
C553 C 0.30913 0.44085 0.42105 0.0
C554 C 0.27863 0.41081 0.41521 0.0
C555 C 0.34475 0.42925 0.39767 0.0
C556 C 0.31373 0.39923 0.39243 0.0
N557 N 0.19132 0.31478 0.37951 0.0
C558 C 0.14059 0.29891 0.35765 0.0
C559 C 0.11997 0.26884 0.36807 0.0
C560 C 0.13718 0.26103 0.38353 0.0
C561 C 0.17299 0.28419 0.38889 0.0
C562 C 0.17559 0.3214 0.36365 0.0
H563 H 0.18516 0.2781 0.40119 0.0
H564 H 0.18906 0.34509 0.35592 0.0
H565 H 0.25304 0.40442 0.42214 0.0
H566 H 0.31636 0.38364 0.38112 0.0
C567 C 0.25658 0.3135 0.42458 0.0
C568 C 0.16722 0.35184 0.41793 0.0
C569 C 0.27545 0.32376 0.35418 0.0
C570 C 0.24062 0.41274 0.36235 0.0
H571 H 0.16643 0.32341 0.45631 0.0
H572 H 0.21799 0.30498 0.46072 0.0
H573 H 0.29731 0.28048 0.41165 0.0
H574 H 0.30491 0.28392 0.37297 0.0
H575 H 0.28964 0.36674 0.3197 0.0
H576 H 0.27446 0.41766 0.3249 0.0
H577 H 0.19338 0.44024 0.37395 0.0
H578 H 0.15053 0.40433 0.40334 0.0
H579 H 0.30595 0.45595 0.43256 0.0
H580 H 0.36971 0.43562 0.38996 0.0
H581 H 0.12946 0.30578 0.34512 0.0
H582 H 0.12272 0.238 0.39199 0.0
C583 C 0.86784 0.21452 0.58762 0.0
C584 C 0.8798 0.21207 0.60625 0.0
C585 C 0.91565 0.23591 0.6072 0.0
C586 C 0.9235 0.25159 0.58917 0.0
N587 N 0.89478 0.23908 0.57707 0.0
Co588 Co 0.89413 0.25366 0.54973 0.0
N589 N 0.94724 0.27283 0.54729 0.0
C590 C 0.97071 0.28153 0.56237 0.0
C591 C 1.00605 0.29521 0.5563 0.0
C592 C 1.00467 0.29536 0.53618 0.0
C593 C 0.9684 0.28163 0.53104 0.0
N594 N 0.8936 0.26866 0.52238 0.0
C595 C 0.91917 0.27789 0.50813 0.0
C596 C 0.90733 0.28655 0.49106 0.0
C597 C 0.87358 0.28317 0.49499 0.0
C598 C 0.86649 0.2725 0.51416 0.0
N599 N 0.841 0.23403 0.55242 0.0
C600 C 0.8193 0.24127 0.54105 0.0
C601 C 0.78338 0.22207 0.54585 0.0
C602 C 0.78271 0.20157 0.56113 0.0
C603 C 0.81836 0.20951 0.56489 0.0
N604 N 0.90027 0.29799 0.55925 0.0
C605 C 0.90486 0.36116 0.57052 0.0
C606 C 0.88223 0.33089 0.58052 0.0
C607 C 0.88026 0.2998 0.57466 0.0
C608 C 0.9257 0.35874 0.555 0.0
C609 C 0.92325 0.32732 0.54976 0.0
N610 N 0.88731 0.20952 0.54005 0.0
C611 C 0.85472 0.16103 0.51907 0.0
C612 C 0.87069 0.14346 0.52834 0.0
C613 C 0.89597 0.15992 0.54329 0.0
C614 C 0.90441 0.19323 0.54868 0.0
C615 C 0.86301 0.1937 0.52526 0.0
H616 H 0.92403 0.20547 0.56017 0.0
H617 H 0.84882 0.2057 0.51839 0.0
H618 H 0.8621 0.27709 0.58247 0.0
H619 H 0.93951 0.32676 0.53764 0.0
C620 C 0.95826 0.27209 0.58166 0.0
C621 C 0.83055 0.19447 0.58062 0.0
C622 C 0.95545 0.28064 0.51084 0.0
C623 C 0.83287 0.26018 0.52372 0.0
H624 H 0.86432 0.19473 0.61784 0.0
H625 H 0.93418 0.23992 0.6192 0.0
H626 H 0.02992 0.30336 0.56537 0.0
H627 H 0.02778 0.30509 0.52643 0.0
H628 H 0.9215 0.2945 0.47722 0.0
H629 H 0.8558 0.28676 0.48482 0.0
H630 H 0.76027 0.22148 0.53838 0.0
H631 H 0.75873 0.1827 0.56841 0.0
H632 H 0.86603 0.331 0.59286 0.0
H633 H 0.94328 0.38083 0.54648 0.0
H634 H 0.83485 0.14907 0.50757 0.0
H635 H 0.90898 0.14713 0.55076 0.0
H636 H 0.19946 0.66609 0.08757 0.0
H637 H 0.08824 0.61262 0.06832 0.0
H638 H 0.19783 0.6124 0.09561 0.0
H639 H 0.08753 0.55892 0.0749 0.0
H640 H 0.08379 0.46592 0.10422 0.0
H641 H 0.08502 0.51992 0.09785 0.0
H642 H 0.19876 0.56426 0.08383 0.0
H643 H 0.19817 0.51098 0.09171 0.0
C644 C 0.17452 0.64302 0.08504 0.0
C645 C 0.14399 0.64434 0.07722 0.0
C646 C 0.17379 0.61185 0.08937 0.0
C647 C 0.14261 0.58067 0.08588 0.0
C648 C 0.11205 0.58201 0.07812 0.0
C649 C 0.11265 0.61317 0.07399 0.0
C650 C 0.10931 0.48719 0.10008 0.0
C651 C 0.1409 0.48346 0.09864 0.0
C652 C 0.10989 0.51838 0.09607 0.0
C653 C 0.142 0.5471 0.09022 0.0
C654 C 0.17349 0.54327 0.08857 0.0
C655 C 0.173 0.51217 0.09278 0.0
H656 H 0.67967 0.14225 0.24413 0.0
H657 H 0.63424 0.10576 0.30129 0.0
H658 H 0.62236 0.13923 0.23338 0.0
H659 H 0.57688 0.10293 0.29073 0.0
H660 H 0.49596 0.14237 0.27164 0.0
H661 H 0.55037 0.13958 0.28242 0.0
H662 H 0.55914 0.10236 0.22528 0.0
H663 H 0.50449 0.10495 0.21469 0.0
C664 C 0.65715 0.13283 0.25429 0.0
C665 C 0.6615 0.12358 0.27349 0.0
C666 C 0.62415 0.1312 0.24815 0.0
C667 C 0.59448 0.1208 0.2611 0.0
C668 C 0.5989 0.11137 0.28029 0.0
C669 C 0.63177 0.11267 0.28634 0.0
C670 C 0.50899 0.13279 0.26154 0.0
C671 C 0.49525 0.12323 0.24239 0.0
C672 C 0.54043 0.1313 0.26769 0.0
C673 C 0.55964 0.12073 0.2548 0.0
C674 C 0.54562 0.11095 0.23566 0.0
C675 C 0.51398 0.11211 0.2296 0.0
H676 H 0.55667 0.61467 0.44762 0.0
H677 H 0.49754 0.66741 0.42944 0.0
H678 H 0.50417 0.5608 0.44076 0.0
H679 H 0.44597 0.61358 0.42106 0.0
H680 H 0.34519 0.51134 0.42428 0.0
H681 H 0.39737 0.56481 0.4324 0.0
H682 H 0.46796 0.52205 0.41774 0.0
H683 H 0.41569 0.46779 0.41117 0.0
C684 C 0.5326 0.61503 0.44213 0.0
C685 C 0.5319 0.64606 0.43931 0.0
C686 C 0.50233 0.58378 0.43783 0.0
C687 C 0.47018 0.58217 0.43026 0.0
C688 C 0.46966 0.61322 0.42715 0.0
C689 C 0.4998 0.64448 0.43168 0.0
C690 C 0.37171 0.51291 0.42312 0.0
C691 C 0.37556 0.48453 0.41704 0.0
C692 C 0.40202 0.54413 0.42747 0.0
C693 C 0.43753 0.54846 0.42572 0.0
C694 C 0.44139 0.52011 0.41961 0.0
C695 C 0.41106 0.48877 0.41548 0.0
H696 H 0.85474 0.52966 0.59089 0.0
H697 H 0.96871 0.57292 0.60419 0.0
H698 H 0.85333 0.47615 0.58274 0.0
H699 H 0.96661 0.51863 0.59757 0.0
H700 H 0.96249 0.42604 0.56755 0.0
H701 H 0.96398 0.47995 0.57443 0.0
H702 H 0.85304 0.42731 0.59417 0.0
H703 H 0.85066 0.37343 0.58578 0.0
C704 C 0.87965 0.52802 0.59208 0.0
C705 C 0.91189 0.55631 0.59822 0.0
C706 C 0.87867 0.49678 0.58771 0.0
C707 C 0.90978 0.49236 0.5895 0.0
C708 C 0.94202 0.52064 0.59566 0.0
C709 C 0.9431 0.55199 0.59982 0.0
C710 C 0.93809 0.42572 0.57305 0.0
C711 C 0.90635 0.39473 0.57589 0.0
C712 C 0.93915 0.457 0.57737 0.0
C713 C 0.90865 0.45864 0.58495 0.0
C714 C 0.87706 0.42763 0.58806 0.0
C715 C 0.87587 0.39635 0.58354 0.0
H716 H 0.52958 0.86077 0.75374 0.0
H717 H 0.57289 0.96283 0.73177 0.0
H718 H 0.47476 0.86263 0.76446 0.0
H719 H 0.51792 0.96504 0.74257 0.0
H720 H 0.42424 0.96393 0.78179 0.0
H721 H 0.48113 0.96564 0.77089 0.0
H722 H 0.4213 0.8624 0.75038 0.0
H723 H 0.36489 0.86102 0.76119 0.0
C724 C 0.52743 0.88375 0.7513 0.0
C725 C 0.55555 0.91151 0.7417 0.0
C726 C 0.49578 0.88478 0.75732 0.0
C727 C 0.49124 0.91383 0.7542 0.0
C728 C 0.52015 0.94219 0.74531 0.0
C729 C 0.55176 0.94099 0.73909 0.0
C730 C 0.42333 0.9418 0.77473 0.0
C731 C 0.38998 0.91225 0.77253 0.0
C732 C 0.45598 0.94271 0.76846 0.0
C733 C 0.45629 0.91398 0.75994 0.0
C734 C 0.42261 0.88484 0.75722 0.0
C735 C 0.39009 0.88409 0.76328 0.0
H736 H 0.55443 0.3747 0.92855 0.0
H737 H 0.49634 0.42785 0.94775 0.0
H738 H 0.60632 0.42847 0.92045 0.0
H739 H 0.54918 0.48165 0.94111 0.0
H740 H 0.63799 0.57461 0.91151 0.0
H741 H 0.5854 0.52054 0.91802 0.0
H742 H 0.65526 0.47677 0.93225 0.0
H743 H 0.70776 0.53011 0.92425 0.0
C744 C 0.55246 0.39772 0.93106 0.0
C745 C 0.52057 0.39629 0.93887 0.0
C746 C 0.58279 0.42893 0.9267 0.0
C747 C 0.58264 0.46004 0.93016 0.0
C748 C 0.5507 0.4586 0.93792 0.0
C749 C 0.52025 0.4274 0.94208 0.0
C750 C 0.64238 0.55345 0.91573 0.0
C751 C 0.67775 0.55734 0.9172 0.0
C752 C 0.61188 0.52223 0.91982 0.0
C753 C 0.61546 0.49366 0.92576 0.0
C754 C 0.65085 0.49765 0.92744 0.0
C755 C 0.68133 0.52878 0.92315 0.0
H756 H 0.30536 0.18819 0.2102 0.0
H757 H 0.27379 0.12571 0.1583 0.0
H758 H 0.27033 0.21608 0.19923 0.0
H759 H 0.23796 0.15342 0.14729 0.0
H760 H 0.15361 0.19824 0.14653 0.0
H761 H 0.18284 0.16417 0.15684 0.0
H762 H 0.28045 0.25582 0.17032 0.0
H763 H 0.25234 0.28965 0.15945 0.0
C764 C 0.29039 0.18005 0.19658 0.0
C765 C 0.29234 0.15485 0.18508 0.0
C766 C 0.27044 0.19613 0.19023 0.0
C767 C 0.25158 0.18723 0.17228 0.0
C768 C 0.25205 0.16077 0.16121 0.0
C769 C 0.27248 0.14491 0.16749 0.0
C770 C 0.18143 0.21115 0.15146 0.0
C771 C 0.20014 0.24689 0.15253 0.0
C772 C 0.19813 0.19157 0.15743 0.0
C773 C 0.23376 0.20726 0.16478 0.0
C774 C 0.25269 0.24286 0.16523 0.0
C775 C 0.23634 0.2623 0.15906 0.0
H776 H 0.88557 0.12665 0.35764 0.0
H777 H 0.91653 0.18856 0.30552 0.0
H778 H 0.94916 0.15422 0.36857 0.0
H779 H 0.97951 0.21634 0.31641 0.0
H780 H 0.07139 0.29006 0.356 0.0
H781 H 1.00937 0.25633 0.34524 0.0
H782 H 1.01494 0.16457 0.35896 0.0
H783 H 0.07834 0.19855 0.36915 0.0
C784 C 0.90609 0.14569 0.34839 0.0
C785 C 0.89618 0.15551 0.33075 0.0
C786 C 0.94242 0.16148 0.35462 0.0
C787 C 0.96938 0.18775 0.34347 0.0
C788 C 0.95941 0.19653 0.32548 0.0
C789 C 0.92336 0.18052 0.31918 0.0
C790 C 0.05994 0.2627 0.35646 0.0
C791 C 0.08065 0.24723 0.36302 0.0
C792 C 1.0241 0.24332 0.35035 0.0
C793 C 1.00729 0.20772 0.35091 0.0
C794 C 0.02716 0.19198 0.35829 0.0
C795 C 0.06349 0.2115 0.36419 0.0
H796 H 0.87789 0.11913 0.49282 0.0
H797 H 0.8366 0.08719 0.55122 0.0
H798 H 0.85394 0.06004 0.48272 0.0
H799 H 0.81022 0.028 0.54107 0.0
H800 H 0.77955 0.92167 0.52231 0.0
H801 H 0.81461 0.98078 0.5324 0.0
H802 H 0.80237 1.01273 0.47412 0.0
H803 H 0.76964 0.95352 0.46397 0.0
C804 C 0.86372 0.09928 0.50351 0.0
C805 C 0.85932 0.10764 0.52282 0.0
C806 C 0.84949 0.06527 0.49769 0.0
C807 C 0.82954 0.03861 0.51091 0.0
C808 C 0.82585 0.04733 0.53041 0.0
C809 C 0.84085 0.08137 0.53631 0.0
C810 C 0.7851 0.94151 0.51164 0.0
C811 C 0.7722 0.93311 0.49234 0.0
C812 C 0.80482 0.97553 0.51745 0.0
C813 C 0.81134 1.00216 0.50424 0.0
C814 C 0.7988 0.99341 0.48476 0.0
C815 C 0.77981 0.95936 0.47886 0.0
H816 H 0.90181 0.84223 0.64737 0.0
H817 H 0.80248 0.75089 0.6594 0.0
H818 H 0.87269 0.87637 0.65771 0.0
H819 H 0.77445 0.78475 0.67029 0.0
H820 H 0.7486 0.85159 0.71009 0.0
H821 H 0.78399 0.82392 0.69938 0.0
H822 H 0.81811 0.88766 0.6479 0.0
H823 H 0.78195 0.91516 0.65866 0.0
C824 C 0.87388 0.82936 0.65211 0.0
C825 C 0.85495 0.79361 0.65292 0.0
C826 C 0.85724 0.84897 0.6581 0.0
C827 C 0.82146 0.83329 0.66521 0.0
C828 C 0.80233 0.79769 0.6654 0.0
C829 C 0.81863 0.77823 0.65922 0.0
C830 C 0.76408 0.86004 0.69664 0.0
C831 C 0.76249 0.88546 0.68518 0.0
C832 C 0.78422 0.84409 0.69044 0.0
C833 C 0.80362 0.85332 0.67267 0.0
C834 C 0.80359 0.88004 0.66168 0.0
C835 C 0.78298 0.8958 0.66781 0.0
H836 H 0.97414 0.84197 0.86696 0.0
H837 H 0.98245 0.75049 0.85606 0.0
H838 H 0.03727 0.87598 0.85636 0.0
H839 H 0.04426 0.78418 0.84498 0.0
H840 H 0.13685 0.84979 0.80486 0.0
H841 H 0.07386 0.82195 0.81572 0.0
H842 H 0.10303 0.88846 0.86599 0.0
H843 H 0.16657 0.91618 0.85505 0.0
C844 C 0.98926 0.82905 0.86241 0.0
C845 C 0.97259 0.7933 0.862 0.0
C846 C 1.02543 0.84858 0.85628 0.0
C847 C 0.04561 0.83279 0.84944 0.0
C848 C 0.02928 0.7972 0.84964 0.0
C849 C 0.99358 0.77783 0.85595 0.0
C850 C 0.12971 0.85878 0.81806 0.0
C851 C 0.15654 0.88508 0.82913 0.0
C852 C 0.09367 0.84273 0.82437 0.0
C853 C 0.0834 0.85272 0.84185 0.0
C854 C 0.10999 0.88024 0.85243 0.0
C855 C 0.14629 0.89611 0.8462 0.0
H856 H 0.25673 0.94644 0.03251 0.0
H857 H 0.15113 0.93088 0.01484 0.0
H858 H 0.28325 1.0052 0.0219 0.0
H859 H 0.17789 0.99005 1.0035 0.0
H860 H 0.24043 0.10951 1.00057 0.0
H861 H 0.20822 0.05025 0.01178 0.0
H862 H 0.29752 0.0349 0.99191 0.0
H863 H 0.32962 0.09379 0.98148 0.0
C864 C 0.23918 0.95569 0.02629 0.0
C865 C 0.20193 0.93393 0.02429 0.0
C866 C 0.2544 0.98939 0.02004 0.0
C867 C 0.23296 1.00241 0.01133 0.0
C868 C 0.19531 0.98101 0.01009 0.0
C869 C 0.17993 0.94712 0.01658 0.0
C870 C 0.25281 0.0932 0.99847 0.0
C871 C 0.28772 0.10635 0.99041 0.0
C872 C 0.23442 0.05925 1.00487 0.0
C873 C 0.25052 0.03778 1.0032 0.0
C874 C 0.28464 0.05076 0.99411 0.0
C875 C 0.30301 0.08452 0.98795 0.0
H876 H 0.27569 0.39246 0.0741 0.0
H877 H 0.21965 0.29158 0.0981 0.0
H878 H 0.31223 0.3752 0.05358 0.0
H879 H 0.25653 0.27416 0.07802 0.0
H880 H 0.2919 0.24413 0.02024 0.0
H881 H 0.2613 0.26187 0.0446 0.0
H882 H 0.35808 0.35794 0.05082 0.0
H883 H 0.38801 0.34022 0.02593 0.0
C884 C 0.2721 0.36687 0.07544 0.0
C885 C 0.24533 0.34352 0.08795 0.0
C886 C 0.29294 0.35684 0.06363 0.0
C887 C 0.2874 0.3231 0.06393 0.0
C888 C 0.26134 0.30016 0.07705 0.0
C889 C 0.24048 0.3102 0.08878 0.0
C890 C 0.30675 0.26876 0.02712 0.0
C891 C 0.34256 0.29047 0.0215 0.0
C892 C 0.28929 0.27901 0.04116 0.0
C893 C 0.3071 0.31143 0.0499 0.0
C894 C 0.34325 0.33294 0.0444 0.0
C895 C 0.36067 0.32264 0.03032 0.0
H896 H 0.87368 0.19823 0.2182 0.0
H897 H 0.92721 0.28281 0.25776 0.0
H898 H 0.92562 0.22368 0.19587 0.0
H899 H 0.97901 0.30827 0.23551 0.0
H900 H 0.05082 0.35742 0.18034 0.0
H901 H 0.99814 0.33421 0.20218 0.0
H902 H 0.99017 0.23463 0.19629 0.0
H903 H 0.04337 0.25817 0.17479 0.0
C904 C 0.89619 0.22258 0.22194 0.0
C905 C 0.89616 0.23848 0.23976 0.0
C906 C 0.92621 0.23698 0.20927 0.0
C907 C 0.95678 0.26794 0.21393 0.0
C908 C 0.95601 0.28451 0.23137 0.0
C909 C 0.92628 0.26988 0.24415 0.0
C910 C 0.03839 0.33076 0.18416 0.0
C911 C 0.05189 0.3098 0.17627 0.0
C912 C 1.00797 0.31736 0.19654 0.0
C913 C 0.98969 0.28246 0.201 0.0
C914 C 1.00325 0.26153 0.19306 0.0
C915 C 0.03397 0.27504 0.18092 0.0
H916 H 0.67173 0.9806 0.33871 0.0
H917 H 0.73838 0.05068 0.38336 0.0
H918 H 0.65524 0.93356 0.36147 0.0
H919 H 0.72083 1.00365 0.40642 0.0
H920 H 0.71811 0.90658 0.43321 0.0
H921 H 0.7314 0.95591 0.41252 0.0
H922 H 0.62194 0.90574 0.3903 0.0
H923 H 0.60928 0.8562 0.41071 0.0
C924 C 0.68273 0.9861 0.35343 0.0
C925 C 0.70666 1.01969 0.35903 0.0
C926 C 0.6729 0.95901 0.36663 0.0
C927 C 0.68668 0.9645 0.38592 0.0
C928 C 0.70993 0.99819 0.39168 0.0
C929 C 0.71968 0.02534 0.37847 0.0
C930 C 0.69679 0.90645 0.42412 0.0
C931 C 0.66247 0.87784 0.42387 0.0
C932 C 0.70433 0.93476 0.41226 0.0
C933 C 0.67781 0.93512 0.39962 0.0
C934 C 0.64324 0.90648 0.39964 0.0
C935 C 0.63572 0.87821 0.41155 0.0
H936 H 0.83565 0.74958 0.59741 0.0
H937 H 0.77942 0.64843 0.57379 0.0
H938 H 0.79906 0.76693 0.57701 0.0
H939 H 0.74312 0.6656 0.55298 0.0
H940 H 0.66713 0.70076 0.5254 0.0
H941 H 0.69731 0.68305 0.55017 0.0
H942 H 0.79436 0.77872 0.5434 0.0
H943 H 0.76354 0.79646 0.51913 0.0
C944 C 0.81484 0.73089 0.58811 0.0
C945 C 0.80983 0.6975 0.58749 0.0
C946 C 0.79415 0.74088 0.57619 0.0
C947 C 0.7681 0.71783 0.56311 0.0
C948 C 0.76242 0.68405 0.563 0.0
C949 C 0.78311 0.67406 0.57499 0.0
C950 C 0.69464 0.71823 0.52961 0.0
C951 C 0.71274 0.75031 0.52069 0.0
C952 C 0.71218 0.70794 0.54362 0.0
C953 C 0.74844 0.72938 0.54898 0.0
C954 C 0.7663 0.76166 0.54007 0.0
C955 C 0.74872 0.77189 0.52608 0.0
H956 H 0.17962 0.84073 0.71914 0.0
H957 H 0.12616 0.75593 0.75856 0.0
H958 H 0.12763 0.81545 0.69684 0.0
H959 H 0.07427 0.73066 0.73633 0.0
H960 H 1.00262 0.68176 0.68097 0.0
H961 H 0.05505 0.70484 0.70301 0.0
H962 H 0.06321 0.80449 0.6971 0.0
H963 H 1.01029 0.78109 0.67538 0.0
C964 C 0.1571 0.81638 0.72287 0.0
C965 C 0.1572 0.80037 0.74065 0.0
C966 C 0.12704 0.80207 0.71021 0.0
C967 C 0.09647 0.77109 0.71482 0.0
C968 C 0.09727 0.75444 0.73222 0.0
C969 C 0.12704 0.76898 0.745 0.0
C970 C 1.01502 0.7084 0.68483 0.0
C971 C 1.00167 0.72944 0.67686 0.0
C972 C 0.0453 0.72173 0.69733 0.0
C973 C 0.06359 0.75662 0.70184 0.0
C974 C 0.05014 0.7776 0.69383 0.0
C975 C 1.01956 0.76417 0.68157 0.0
H976 H 0.44336 0.18205 0.91121 0.0
H977 H 0.33259 0.13881 0.93056 0.0
H978 H 0.42824 0.13169 0.89097 0.0
H979 H 0.31711 0.08899 0.90984 0.0
H980 H 0.29773 0.03302 0.84997 0.0
H981 H 0.31452 0.07978 0.87311 0.0
H982 H 0.4052 0.06664 0.89265 0.0
H983 H 0.38806 1.01928 0.86946 0.0
C984 C 0.41603 0.16135 0.91161 0.0
C985 C 0.38937 0.16403 0.92294 0.0
C986 C 0.40726 0.13259 0.89985 0.0
C987 C 0.37143 0.10621 0.89873 0.0
C988 C 0.34492 0.10884 0.91024 0.0
C989 C 0.3538 0.13728 0.9222 0.0
C990 C 0.3213 0.04006 0.85917 0.0
C991 C 0.34162 0.0224 0.85775 0.0
C992 C 0.33077 0.06675 0.87257 0.0
C993 C 0.3612 0.07703 0.88481 0.0
C994 C 0.38169 0.0595 0.8834 0.0
C995 C 0.37177 0.03225 0.87019 0.0
H996 H 0.69493 0.84097 0.7962 0.0
H997 H 0.6642 0.75633 0.75672 0.0
H998 H 0.7215 0.81569 0.81861 0.0
H999 H 0.69058 0.73101 0.77908 0.0
H1000 H 0.71305 0.6822 0.83459 0.0
H1001 H 0.68363 0.70522 0.81256 0.0
H1002 H 0.77526 0.80483 0.81824 0.0
H1003 H 0.80489 0.78149 0.83992 0.0
C1004 C 0.69317 0.81663 0.79249 0.0
C1005 C 0.6773 0.80066 0.77467 0.0
C1006 C 0.70883 0.80233 0.80522 0.0
C1007 C 0.70854 0.77139 0.80061 0.0
C1008 C 0.69126 0.75475 0.78317 0.0
C1009 C 0.67615 0.7693 0.77033 0.0
C1010 C 0.72731 0.70882 0.83068 0.0
C1011 C 0.76177 0.72985 0.83856 0.0
C1012 C 0.71031 0.72211 0.81819 0.0
C1013 C 0.72694 0.75697 0.81362 0.0
C1014 C 0.76144 0.77796 0.82155 0.0
C1015 C 0.77863 0.76456 0.83379 0.0
H1016 H 0.9484 0.74909 0.91727 0.0
H1017 H 0.90272 0.64838 0.94158 0.0
H1018 H 1.00257 0.76631 0.93746 0.0
H1019 H 0.95639 0.66545 0.96221 0.0
H1020 H 0.06805 0.79644 0.99524 0.0
H1021 H 1.01972 0.77882 0.97086 0.0
H1022 H 1.01939 0.68224 0.96507 0.0
H1023 H 0.06703 0.69985 0.98998 0.0
C1024 C 0.95039 0.73045 0.92669 0.0
C1025 C 0.92173 0.69724 0.92757 0.0
C1026 C 0.98122 0.74038 0.93848 0.0
C1027 C 0.98409 0.71744 0.95171 0.0
C1028 C 0.95568 0.6838 0.95207 0.0
C1029 C 0.92486 0.67388 0.9402 0.0
C1030 C 0.05803 0.77171 0.98845 0.0
C1031 C 0.07185 0.74984 0.9942 0.0
C1032 C 0.03033 0.76153 0.9744 0.0
C1033 C 1.01543 0.72901 0.96577 0.0
C1034 C 0.02978 0.70732 0.97141 0.0
C1035 C 0.05749 0.71755 0.98549 0.0
H1036 H 0.27679 0.85344 0.10669 0.0
H1037 H 0.2213 0.9055 0.08261 0.0
H1038 H 0.31399 0.90301 0.12697 0.0
H1039 H 0.25752 0.95484 0.10325 0.0
H1040 H 0.34536 0.04909 0.13263 0.0
H1041 H 0.31569 1.00187 0.10973 0.0
H1042 H 0.30922 0.93192 0.15526 0.0
H1043 H 0.34011 0.97914 0.17784 0.0
C1044 C 0.27307 0.8758 0.10548 0.0
C1045 C 0.24671 0.87589 0.09274 0.0
C1046 C 0.29401 0.90412 0.11733 0.0
C1047 C 0.28897 0.93326 0.1169 0.0
C1048 C 0.26281 0.93332 0.10386 0.0
C1049 C 0.24189 0.90499 0.09204 0.0
C1050 C 0.33826 0.02373 0.13769 0.0
C1051 C 0.3452 1.01821 0.15724 0.0
C1052 C 0.32072 0.99646 0.12457 0.0
C1053 C 0.30965 0.96274 0.13053 0.0
C1054 C 0.31749 0.95737 0.14993 0.0
C1055 C 0.33494 0.98458 0.16304 0.0
H1056 H 0.35818 0.1985 0.29737 0.0
H1057 H 0.38893 0.28269 0.25756 0.0
H1058 H 0.33184 0.22414 0.31965 0.0
H1059 H 0.36273 0.30835 0.27976 0.0
H1060 H 0.34048 0.358 0.33486 0.0
H1061 H 0.36976 0.33461 0.31301 0.0
H1062 H 0.27825 0.23506 0.31928 0.0
H1063 H 0.24879 0.25877 0.3408 0.0
C1064 C 0.35999 0.22281 0.29356 0.0
C1065 C 0.3758 0.23854 0.27568 0.0
C1066 C 0.34445 0.23732 0.3062 0.0
C1067 C 0.34479 0.26823 0.30146 0.0
C1068 C 0.36201 0.28463 0.28397 0.0
C1069 C 0.37702 0.26988 0.27121 0.0
C1070 C 0.32622 0.33131 0.33112 0.0
C1071 C 0.29185 0.3104 0.33913 0.0
C1072 C 0.34313 0.31781 0.31873 0.0
C1073 C 0.3265 0.28286 0.31438 0.0
C1074 C 0.29208 0.26199 0.32243 0.0
C1075 C 0.27498 0.2756 0.33458 0.0
H1076 H 0.10587 0.2915 0.41763 0.0
H1077 H 0.15048 0.39259 0.44132 0.0
H1078 H 0.05181 0.27402 0.43791 0.0
H1079 H 0.09689 0.37528 0.46202 0.0
H1080 H 0.98582 0.33984 0.4896 0.0
H1081 H 0.03361 0.35766 0.46479 0.0
H1082 H 0.03533 0.26213 0.4715 0.0
H1083 H 0.98685 0.24426 0.4958 0.0
C1084 C 0.10365 0.31016 0.42692 0.0
C1085 C 0.13199 0.34356 0.42761 0.0
C1086 C 0.07289 0.30008 0.43877 0.0
C1087 C 0.06979 0.32307 0.45184 0.0
C1088 C 0.09783 0.35688 0.452 0.0
C1089 C 0.12858 0.36695 0.44008 0.0
C1090 C 0.9959 0.32242 0.48536 0.0
C1091 C 0.98205 0.29034 0.49428 0.0
C1092 C 1.02367 0.33277 0.47133 0.0
C1093 C 0.03856 0.31141 0.46595 0.0
C1094 C 1.02427 0.27913 0.47485 0.0
C1095 C 0.99651 0.26883 0.48885 0.0
H1096 H 0.70893 0.9901 0.63176 0.0
H1097 H 0.71235 0.0598 0.67666 0.0
H1098 H 0.73836 0.03728 0.60883 0.0
H1099 H 0.74292 0.10702 0.65401 0.0
H1100 H 0.77389 0.18457 0.60482 0.0
H1101 H 0.73728 0.13499 0.62526 0.0
H1102 H 0.79657 0.08503 0.60277 0.0
H1103 H 0.83231 0.13438 0.58205 0.0
C1104 C 0.71558 1.0154 0.63674 0.0
C1105 C 0.70817 0.02087 0.6562 0.0
C1106 C 0.73296 0.04264 0.62361 0.0
C1107 C 0.74338 0.07627 0.62947 0.0
C1108 C 0.73513 0.08162 0.64878 0.0
C1109 C 0.71787 0.05442 0.66192 0.0
C1110 C 0.77838 0.1626 0.60393 0.0
C1111 C 0.80539 0.16302 0.59153 0.0
C1112 C 0.75778 0.13431 0.61586 0.0
C1113 C 0.76378 0.10572 0.6158 0.0
C1114 C 0.79058 0.10614 0.60309 0.0
C1115 C 0.8112 0.13446 0.59122 0.0
loop_
_geom_bond_atom_site_label_1
_geom_bond_atom_site_label_2
_geom_bond_distance
_geom_bond_site_symmetry_2
_ccdc_geom_bond_type
C0 C1 1.443 . S
C0 N4 1.376 . S
C0 C38 1.389 . S
C1 C0 1.443 . S
C1 C2 1.340 . S
C1 H41 0.951 . S
C2 C1 1.340 . S
C2 C3 1.439 . S
C2 H42 0.950 . S
C3 C2 1.439 . S
C3 N4 1.374 . S
C3 C37 1.395 . S
N4 C0 1.376 . S
N4 C3 1.374 . S
N4 Co5 2.008 . S
Co5 N4 2.008 . S
Co5 N6 1.995 . S
Co5 N11 2.008 . S
Co5 N16 1.995 . S
Co5 N21 2.282 . S
Co5 N27 2.282 . S
N6 Co5 1.995 . S
N6 C7 1.376 . S
N6 C10 1.383 . S
C7 N6 1.376 . S
C7 C8 1.446 . S
C7 C37 1.391 . S
C8 C7 1.446 . S
C8 C9 1.339 . S
C8 H43 0.949 . S
C9 C8 1.339 . S
C9 C10 1.439 . S
C9 H44 0.950 . S
C10 N6 1.383 . S
C10 C9 1.439 . S
C10 C39 1.392 . S
N11 Co5 2.008 . S
N11 C12 1.376 . S
N11 C15 1.374 . S
C12 N11 1.376 . S
C12 C13 1.443 . S
C12 C39 1.389 . S
C13 C12 1.443 . S
C13 C14 1.340 . S
C13 H45 0.951 . S
C14 C13 1.340 . S
C14 C15 1.439 . S
C14 H46 0.950 . S
C15 N11 1.374 . S
C15 C14 1.439 . S
C15 C40 1.395 . S
N16 Co5 1.995 . S
N16 C17 1.376 . S
N16 C20 1.383 . S
C17 N16 1.376 . S
C17 C18 1.446 . S
C17 C40 1.391 . S
C18 C17 1.446 . S
C18 C19 1.339 . S
C18 H47 0.949 . S
C19 C18 1.339 . S
C19 C20 1.439 . S
C19 H48 0.950 . S
C20 N16 1.383 . S
C20 C19 1.439 . S
C20 C38 1.392 . S
N21 Co5 2.282 . S
N21 C24 1.332 . S
N21 C26 1.332 . S
C22 C23 1.386 . S
C22 C25 1.388 . S
C23 C22 1.386 . S
C23 C24 1.382 . S
C23 H49 0.950 . S
C24 N21 1.332 . S
C24 C23 1.382 . S
C24 H35 0.952 . S
C25 C22 1.388 . S
C25 C26 1.382 . S
C25 H50 0.950 . S
C26 N21 1.332 . S
C26 C25 1.382 . S
C26 H36 0.948 . S
N27 Co5 2.282 . S
N27 C31 1.332 . S
N27 C32 1.332 . S
C28 C29 1.388 . S
C28 C32 1.382 . S
C28 H51 0.950 . S
C29 C28 1.388 . S
C29 C30 1.386 . S
C30 C29 1.386 . S
C30 C31 1.382 . S
C30 H52 0.950 . S
C31 N27 1.332 . S
C31 C30 1.382 . S
C31 H33 0.952 . S
C32 N27 1.332 . S
C32 C28 1.382 . S
C32 H34 0.948 . S
H33 C31 0.952 . S
H34 C32 0.948 . S
H35 C24 0.952 . S
H36 C26 0.948 . S
C37 C3 1.395 . S
C37 C7 1.391 . S
C38 C0 1.389 . S
C38 C20 1.392 . S
C39 C10 1.392 . S
C39 C12 1.389 . S
C40 C15 1.395 . S
C40 C17 1.391 . S
H41 C1 0.951 . S
H42 C2 0.950 . S
H43 C8 0.949 . S
H44 C9 0.950 . S
H45 C13 0.951 . S
H46 C14 0.950 . S
H47 C18 0.949 . S
H48 C19 0.950 . S
H49 C23 0.950 . S
H50 C25 0.950 . S
H51 C28 0.950 . S
H52 C30 0.950 . S
C53 C54 1.443 . S
C53 N57 1.376 . S
C53 C91 1.389 . S
C54 C53 1.443 . S
C54 C55 1.340 . S
C54 H94 0.951 . S
C55 C54 1.340 . S
C55 C56 1.439 . S
C55 H95 0.950 . S
C56 C55 1.439 . S
C56 N57 1.374 . S
C56 C90 1.395 . S
N57 C53 1.376 . S
N57 C56 1.374 . S
N57 Co58 2.008 . S
Co58 N57 2.008 . S
Co58 N59 1.995 . S
Co58 N64 2.008 . S
Co58 N69 1.995 . S
Co58 N74 2.282 . S
Co58 N80 2.282 . S
N59 Co58 1.995 . S
N59 C60 1.376 . S
N59 C63 1.383 . S
C60 N59 1.376 . S
C60 C61 1.446 . S
C60 C90 1.391 . S
C61 C60 1.446 . S
C61 C62 1.339 . S
C61 H96 0.949 . S
C62 C61 1.339 . S
C62 C63 1.439 . S
C62 H97 0.950 . S
C63 N59 1.383 . S
C63 C62 1.439 . S
C63 C92 1.392 . S
N64 Co58 2.008 . S
N64 C65 1.376 . S
N64 C68 1.374 . S
C65 N64 1.376 . S
C65 C66 1.443 . S
C65 C92 1.389 . S
C66 C65 1.443 . S
C66 C67 1.340 . S
C66 H98 0.951 . S
C67 C66 1.340 . S
C67 C68 1.439 . S
C67 H99 0.950 . S
C68 N64 1.374 . S
C68 C67 1.439 . S
C68 C93 1.395 . S
N69 Co58 1.995 . S
N69 C70 1.376 . S
N69 C73 1.383 . S
C70 N69 1.376 . S
C70 C71 1.446 . S
C70 C93 1.391 . S
C71 C70 1.446 . S
C71 C72 1.339 . S
C71 H100 0.949 . S
C72 C71 1.339 . S
C72 C73 1.439 . S
C72 H101 0.950 . S
C73 N69 1.383 . S
C73 C72 1.439 . S
C73 C91 1.392 . S
N74 Co58 2.282 . S
N74 C77 1.332 . S
N74 C79 1.332 . S
C75 C76 1.386 . S
C75 C78 1.388 . S
C76 C75 1.386 . S
C76 C77 1.382 . S
C76 H102 0.950 . S
C77 N74 1.332 . S
C77 C76 1.382 . S
C77 H88 0.952 . S
C78 C75 1.388 . S
C78 C79 1.382 . S
C78 H103 0.950 . S
C79 N74 1.332 . S
C79 C78 1.382 . S
C79 H89 0.948 . S
N80 Co58 2.282 . S
N80 C84 1.332 . S
N80 C85 1.332 . S
C81 C82 1.388 . S
C81 C85 1.382 . S
C81 H104 0.950 . S
C82 C81 1.388 . S
C82 C83 1.386 . S
C83 C82 1.386 . S
C83 C84 1.382 . S
C83 H105 0.950 . S
C84 N80 1.332 . S
C84 C83 1.382 . S
C84 H86 0.952 . S
C85 N80 1.332 . S
C85 C81 1.382 . S
C85 H87 0.948 . S
H86 C84 0.952 . S
H87 C85 0.948 . S
H88 C77 0.952 . S
H89 C79 0.948 . S
C90 C56 1.395 . S
C90 C60 1.391 . S
C91 C53 1.389 . S
C91 C73 1.392 . S
C92 C63 1.392 . S
C92 C65 1.389 . S
C93 C68 1.395 . S
C93 C70 1.391 . S
H94 C54 0.951 . S
H95 C55 0.950 . S
H96 C61 0.949 . S
H97 C62 0.950 . S
H98 C66 0.951 . S
H99 C67 0.950 . S
H100 C71 0.949 . S
H101 C72 0.950 . S
H102 C76 0.950 . S
H103 C78 0.950 . S
H104 C81 0.950 . S
H105 C83 0.950 . S
C106 C107 1.443 . S
C106 N110 1.376 . S
C106 C144 1.389 . S
C107 C106 1.443 . S
C107 C108 1.340 . S
C107 H147 0.951 . S
C108 C107 1.340 . S
C108 C109 1.439 . S
C108 H148 0.950 . S
C109 C108 1.439 . S
C109 N110 1.374 . S
C109 C143 1.395 . S
N110 C106 1.376 . S
N110 C109 1.374 . S
N110 Co111 2.008 . S
Co111 N110 2.008 . S
Co111 N112 1.995 . S
Co111 N117 2.008 . S
Co111 N122 1.995 . S
Co111 N127 2.282 . S
Co111 N133 2.282 . S
N112 Co111 1.995 . S
N112 C113 1.376 . S
N112 C116 1.383 . S
C113 N112 1.376 . S
C113 C114 1.446 . S
C113 C143 1.391 . S
C114 C113 1.446 . S
C114 C115 1.339 . S
C114 H149 0.949 . S
C115 C114 1.339 . S
C115 C116 1.439 . S
C115 H150 0.950 . S
C116 N112 1.383 . S
C116 C115 1.439 . S
C116 C145 1.392 . S
N117 Co111 2.008 . S
N117 C118 1.376 . S
N117 C121 1.374 . S
C118 N117 1.376 . S
C118 C119 1.443 . S
C118 C145 1.389 . S
C119 C118 1.443 . S
C119 C120 1.340 . S
C119 H151 0.951 . S
C120 C119 1.340 . S
C120 C121 1.439 . S
C120 H152 0.950 . S
C121 N117 1.374 . S
C121 C120 1.439 . S
C121 C146 1.395 . S
N122 Co111 1.995 . S
N122 C123 1.376 . S
N122 C126 1.383 . S
C123 N122 1.376 . S
C123 C124 1.446 . S
C123 C146 1.391 . S
C124 C123 1.446 . S
C124 C125 1.339 . S
C124 H153 0.949 . S
C125 C124 1.339 . S
C125 C126 1.439 . S
C125 H154 0.950 . S
C126 N122 1.383 . S
C126 C125 1.439 . S
C126 C144 1.392 . S
N127 Co111 2.282 . S
N127 C130 1.332 . S
N127 C132 1.332 . S
C128 C129 1.386 . S
C128 C131 1.388 . S
C129 C128 1.386 . S
C129 C130 1.382 . S
C129 H155 0.950 . S
C130 N127 1.332 . S
C130 C129 1.382 . S
C130 H141 0.952 . S
C131 C128 1.388 . S
C131 C132 1.382 . S
C131 H156 0.950 . S
C132 N127 1.332 . S
C132 C131 1.382 . S
C132 H142 0.948 . S
N133 Co111 2.282 . S
N133 C137 1.332 . S
N133 C138 1.332 . S
C134 C135 1.388 . S
C134 C138 1.382 . S
C134 H157 0.950 . S
C135 C134 1.388 . S
C135 C136 1.386 . S
C136 C135 1.386 . S
C136 C137 1.382 . S
C136 H158 0.950 . S
C137 N133 1.332 . S
C137 C136 1.382 . S
C137 H139 0.952 . S
C138 N133 1.332 . S
C138 C134 1.382 . S
C138 H140 0.948 . S
H139 C137 0.952 . S
H140 C138 0.948 . S
H141 C130 0.952 . S
H142 C132 0.948 . S
C143 C109 1.395 . S
C143 C113 1.391 . S
C144 C106 1.389 . S
C144 C126 1.392 . S
C145 C116 1.392 . S
C145 C118 1.389 . S
C146 C121 1.395 . S
C146 C123 1.391 . S
H147 C107 0.951 . S
H148 C108 0.950 . S
H149 C114 0.949 . S
H150 C115 0.950 . S
H151 C119 0.951 . S
H152 C120 0.950 . S
H153 C124 0.949 . S
H154 C125 0.950 . S
H155 C129 0.950 . S
H156 C131 0.950 . S
H157 C134 0.950 . S
H158 C136 0.950 . S
C159 C160 1.443 . S
C159 N163 1.376 . S
C159 C197 1.389 . S
C160 C159 1.443 . S
C160 C161 1.340 . S
C160 H200 0.951 . S
C161 C160 1.340 . S
C161 C162 1.439 . S
C161 H201 0.950 . S
C162 C161 1.439 . S
C162 N163 1.374 . S
C162 C196 1.395 . S
N163 C159 1.376 . S
N163 C162 1.374 . S
N163 Co164 2.008 . S
Co164 N163 2.008 . S
Co164 N165 1.995 . S
Co164 N170 2.008 . S
Co164 N175 1.995 . S
Co164 N180 2.282 . S
Co164 N186 2.282 . S
N165 Co164 1.995 . S
N165 C166 1.376 . S
N165 C169 1.383 . S
C166 N165 1.376 . S
C166 C167 1.446 . S
C166 C196 1.391 . S
C167 C166 1.446 . S
C167 C168 1.339 . S
C167 H202 0.949 . S
C168 C167 1.339 . S
C168 C169 1.439 . S
C168 H203 0.950 . S
C169 N165 1.383 . S
C169 C168 1.439 . S
C169 C198 1.392 . S
N170 Co164 2.008 . S
N170 C171 1.376 . S
N170 C174 1.374 . S
C171 N170 1.376 . S
C171 C172 1.443 . S
C171 C198 1.389 . S
C172 C171 1.443 . S
C172 C173 1.340 . S
C172 H204 0.951 . S
C173 C172 1.340 . S
C173 C174 1.439 . S
C173 H205 0.950 . S
C174 N170 1.374 . S
C174 C173 1.439 . S
C174 C199 1.395 . S
N175 Co164 1.995 . S
N175 C176 1.376 . S
N175 C179 1.383 . S
C176 N175 1.376 . S
C176 C177 1.446 . S
C176 C199 1.391 . S
C177 C176 1.446 . S
C177 C178 1.339 . S
C177 H206 0.949 . S
C178 C177 1.339 . S
C178 C179 1.439 . S
C178 H207 0.950 . S
C179 N175 1.383 . S
C179 C178 1.439 . S
C179 C197 1.392 . S
N180 Co164 2.282 . S
N180 C183 1.332 . S
N180 C185 1.332 . S
C181 C182 1.386 . S
C181 C184 1.388 . S
C182 C181 1.386 . S
C182 C183 1.382 . S
C182 H208 0.950 . S
C183 N180 1.332 . S
C183 C182 1.382 . S
C183 H194 0.952 . S
C184 C181 1.388 . S
C184 C185 1.382 . S
C184 H209 0.950 . S
C185 N180 1.332 . S
C185 C184 1.382 . S
C185 H195 0.948 . S
N186 Co164 2.282 . S
N186 C190 1.332 . S
N186 C191 1.332 . S
C187 C188 1.388 . S
C187 C191 1.382 . S
C187 H210 0.950 . S
C188 C187 1.388 . S
C188 C189 1.386 . S
C189 C188 1.386 . S
C189 C190 1.382 . S
C189 H211 0.950 . S
C190 N186 1.332 . S
C190 C189 1.382 . S
C190 H192 0.952 . S
C191 N186 1.332 . S
C191 C187 1.382 . S
C191 H193 0.948 . S
H192 C190 0.952 . S
H193 C191 0.948 . S
H194 C183 0.952 . S
H195 C185 0.948 . S
C196 C162 1.395 . S
C196 C166 1.391 . S
C197 C159 1.389 . S
C197 C179 1.392 . S
C198 C169 1.392 . S
C198 C171 1.389 . S
C199 C174 1.395 . S
C199 C176 1.391 . S
H200 C160 0.951 . S
H201 C161 0.950 . S
H202 C167 0.949 . S
H203 C168 0.950 . S
H204 C172 0.951 . S
H205 C173 0.950 . S
H206 C177 0.949 . S
H207 C178 0.950 . S
H208 C182 0.950 . S
H209 C184 0.950 . S
H210 C187 0.950 . S
H211 C189 0.950 . S
C212 C213 1.443 . S
C212 N216 1.376 . S
C212 C250 1.389 . S
C213 C212 1.443 . S
C213 C214 1.340 . S
C213 H253 0.951 . S
C214 C213 1.340 . S
C214 C215 1.439 . S
C214 H254 0.950 . S
C215 C214 1.439 . S
C215 N216 1.374 . S
C215 C249 1.395 . S
N216 C212 1.376 . S
N216 C215 1.374 . S
N216 Co217 2.008 . S
Co217 N216 2.008 . S
Co217 N218 1.995 . S
Co217 N223 2.008 . S
Co217 N228 1.995 . S
Co217 N233 2.282 . S
Co217 N239 2.282 . S
N218 Co217 1.995 . S
N218 C219 1.376 . S
N218 C222 1.383 . S
C219 N218 1.376 . S
C219 C220 1.446 . S
C219 C249 1.391 . S
C220 C219 1.446 . S
C220 C221 1.339 . S
C220 H255 0.949 . S
C221 C220 1.339 . S
C221 C222 1.439 . S
C221 H256 0.950 . S
C222 N218 1.383 . S
C222 C221 1.439 . S
C222 C251 1.392 . S
N223 Co217 2.008 . S
N223 C224 1.376 . S
N223 C227 1.374 . S
C224 N223 1.376 . S
C224 C225 1.443 . S
C224 C251 1.389 . S
C225 C224 1.443 . S
C225 C226 1.340 . S
C225 H257 0.951 . S
C226 C225 1.340 . S
C226 C227 1.439 . S
C226 H258 0.950 . S
C227 N223 1.374 . S
C227 C226 1.439 . S
C227 C252 1.395 . S
N228 Co217 1.995 . S
N228 C229 1.376 . S
N228 C232 1.383 . S
C229 N228 1.376 . S
C229 C230 1.446 . S
C229 C252 1.391 . S
C230 C229 1.446 . S
C230 C231 1.339 . S
C230 H259 0.949 . S
C231 C230 1.339 . S
C231 C232 1.439 . S
C231 H260 0.950 . S
C232 N228 1.383 . S
C232 C231 1.439 . S
C232 C250 1.392 . S
N233 Co217 2.282 . S
N233 C236 1.332 . S
N233 C238 1.332 . S
C234 C235 1.386 . S
C234 C237 1.388 . S
C235 C234 1.386 . S
C235 C236 1.382 . S
C235 H261 0.950 . S
C236 N233 1.332 . S
C236 C235 1.382 . S
C236 H247 0.952 . S
C237 C234 1.388 . S
C237 C238 1.382 . S
C237 H262 0.950 . S
C238 N233 1.332 . S
C238 C237 1.382 . S
C238 H248 0.948 . S
N239 Co217 2.282 . S
N239 C243 1.332 . S
N239 C244 1.332 . S
C240 C241 1.388 . S
C240 C244 1.382 . S
C240 H263 0.950 . S
C241 C240 1.388 . S
C241 C242 1.386 . S
C242 C241 1.386 . S
C242 C243 1.382 . S
C242 H264 0.950 . S
C243 N239 1.332 . S
C243 C242 1.382 . S
C243 H245 0.952 . S
C244 N239 1.332 . S
C244 C240 1.382 . S
C244 H246 0.948 . S
H245 C243 0.952 . S
H246 C244 0.948 . S
H247 C236 0.952 . S
H248 C238 0.948 . S
C249 C215 1.395 . S
C249 C219 1.391 . S
C250 C212 1.389 . S
C250 C232 1.392 . S
C251 C222 1.392 . S
C251 C224 1.389 . S
C252 C227 1.395 . S
C252 C229 1.391 . S
H253 C213 0.951 . S
H254 C214 0.950 . S
H255 C220 0.949 . S
H256 C221 0.950 . S
H257 C225 0.951 . S
H258 C226 0.950 . S
H259 C230 0.949 . S
H260 C231 0.950 . S
H261 C235 0.950 . S
H262 C237 0.950 . S
H263 C240 0.950 . S
H264 C242 0.950 . S
C265 C266 1.443 . S
C265 N269 1.376 . S
C265 C303 1.389 . S
C266 C265 1.443 . S
C266 C267 1.340 . S
C266 H306 0.951 . S
C267 C266 1.340 . S
C267 C268 1.439 . S
C267 H307 0.950 . S
C268 C267 1.439 . S
C268 N269 1.374 . S
C268 C302 1.395 . S
N269 C265 1.376 . S
N269 C268 1.374 . S
N269 Co270 2.008 . S
Co270 N269 2.008 . S
Co270 N271 1.995 . S
Co270 N276 2.008 . S
Co270 N281 1.995 . S
Co270 N286 2.282 . S
Co270 N292 2.282 . S
N271 Co270 1.995 . S
N271 C272 1.376 . S
N271 C275 1.383 . S
C272 N271 1.376 . S
C272 C273 1.446 . S
C272 C302 1.391 . S
C273 C272 1.446 . S
C273 C274 1.339 . S
C273 H308 0.949 . S
C274 C273 1.339 . S
C274 C275 1.439 . S
C274 H309 0.950 . S
C275 N271 1.383 . S
C275 C274 1.439 . S
C275 C304 1.392 . S
N276 Co270 2.008 . S
N276 C277 1.376 . S
N276 C280 1.374 . S
C277 N276 1.376 . S
C277 C278 1.443 . S
C277 C304 1.389 . S
C278 C277 1.443 . S
C278 C279 1.340 . S
C278 H310 0.951 . S
C279 C278 1.340 . S
C279 C280 1.439 . S
C279 H311 0.950 . S
C280 N276 1.374 . S
C280 C279 1.439 . S
C280 C305 1.395 . S
N281 Co270 1.995 . S
N281 C282 1.376 . S
N281 C285 1.383 . S
C282 N281 1.376 . S
C282 C283 1.446 . S
C282 C305 1.391 . S
C283 C282 1.446 . S
C283 C284 1.339 . S
C283 H312 0.949 . S
C284 C283 1.339 . S
C284 C285 1.439 . S
C284 H313 0.950 . S
C285 N281 1.383 . S
C285 C284 1.439 . S
C285 C303 1.392 . S
N286 Co270 2.282 . S
N286 C289 1.332 . S
N286 C291 1.332 . S
C287 C288 1.386 . S
C287 C290 1.388 . S
C288 C287 1.386 . S
C288 C289 1.382 . S
C288 H314 0.950 . S
C289 N286 1.332 . S
C289 C288 1.382 . S
C289 H300 0.952 . S
C290 C287 1.388 . S
C290 C291 1.382 . S
C290 H315 0.950 . S
C291 N286 1.332 . S
C291 C290 1.382 . S
C291 H301 0.948 . S
N292 Co270 2.282 . S
N292 C296 1.332 . S
N292 C297 1.332 . S
C293 C294 1.388 . S
C293 C297 1.382 . S
C293 H316 0.950 . S
C294 C293 1.388 . S
C294 C295 1.386 . S
C295 C294 1.386 . S
C295 C296 1.382 . S
C295 H317 0.950 . S
C296 N292 1.332 . S
C296 C295 1.382 . S
C296 H298 0.952 . S
C297 N292 1.332 . S
C297 C293 1.382 . S
C297 H299 0.948 . S
H298 C296 0.952 . S
H299 C297 0.948 . S
H300 C289 0.952 . S
H301 C291 0.948 . S
C302 C268 1.395 . S
C302 C272 1.391 . S
C303 C265 1.389 . S
C303 C285 1.392 . S
C304 C275 1.392 . S
C304 C277 1.389 . S
C305 C280 1.395 . S
C305 C282 1.391 . S
H306 C266 0.951 . S
H307 C267 0.950 . S
H308 C273 0.949 . S
H309 C274 0.950 . S
H310 C278 0.951 . S
H311 C279 0.950 . S
H312 C283 0.949 . S
H313 C284 0.950 . S
H314 C288 0.950 . S
H315 C290 0.950 . S
H316 C293 0.950 . S
H317 C295 0.950 . S
C318 C319 1.443 . S
C318 N322 1.376 . S
C318 C356 1.389 . S
C319 C318 1.443 . S
C319 C320 1.340 . S
C319 H359 0.951 . S
C320 C319 1.340 . S
C320 C321 1.439 . S
C320 H360 0.950 . S
C321 C320 1.439 . S
C321 N322 1.374 . S
C321 C355 1.395 . S
N322 C318 1.376 . S
N322 C321 1.374 . S
N322 Co323 2.008 . S
Co323 N322 2.008 . S
Co323 N324 1.995 . S
Co323 N329 2.008 . S
Co323 N334 1.995 . S
Co323 N339 2.282 . S
Co323 N345 2.282 . S
N324 Co323 1.995 . S
N324 C325 1.376 . S
N324 C328 1.383 . S
C325 N324 1.376 . S
C325 C326 1.446 . S
C325 C355 1.391 . S
C326 C325 1.446 . S
C326 C327 1.339 . S
C326 H361 0.949 . S
C327 C326 1.339 . S
C327 C328 1.439 . S
C327 H362 0.950 . S
C328 N324 1.383 . S
C328 C327 1.439 . S
C328 C357 1.392 . S
N329 Co323 2.008 . S
N329 C330 1.376 . S
N329 C333 1.374 . S
C330 N329 1.376 . S
C330 C331 1.443 . S
C330 C357 1.389 . S
C331 C330 1.443 . S
C331 C332 1.340 . S
C331 H363 0.951 . S
C332 C331 1.340 . S
C332 C333 1.439 . S
C332 H364 0.950 . S
C333 N329 1.374 . S
C333 C332 1.439 . S
C333 C358 1.395 . S
N334 Co323 1.995 . S
N334 C335 1.376 . S
N334 C338 1.383 . S
C335 N334 1.376 . S
C335 C336 1.446 . S
C335 C358 1.391 . S
C336 C335 1.446 . S
C336 C337 1.339 . S
C336 H365 0.949 . S
C337 C336 1.339 . S
C337 C338 1.439 . S
C337 H366 0.950 . S
C338 N334 1.383 . S
C338 C337 1.439 . S
C338 C356 1.392 . S
N339 Co323 2.282 . S
N339 C342 1.332 . S
N339 C344 1.332 . S
C340 C341 1.386 . S
C340 C343 1.388 . S
C341 C340 1.386 . S
C341 C342 1.382 . S
C341 H367 0.950 . S
C342 N339 1.332 . S
C342 C341 1.382 . S
C342 H353 0.952 . S
C343 C340 1.388 . S
C343 C344 1.382 . S
C343 H368 0.950 . S
C344 N339 1.332 . S
C344 C343 1.382 . S
C344 H354 0.948 . S
N345 Co323 2.282 . S
N345 C349 1.332 . S
N345 C350 1.332 . S
C346 C347 1.388 . S
C346 C350 1.382 . S
C346 H369 0.950 . S
C347 C346 1.388 . S
C347 C348 1.386 . S
C348 C347 1.386 . S
C348 C349 1.382 . S
C348 H370 0.950 . S
C349 N345 1.332 . S
C349 C348 1.382 . S
C349 H351 0.952 . S
C350 N345 1.332 . S
C350 C346 1.382 . S
C350 H352 0.948 . S
H351 C349 0.952 . S
H352 C350 0.948 . S
H353 C342 0.952 . S
H354 C344 0.948 . S
C355 C321 1.395 . S
C355 C325 1.391 . S
C356 C318 1.389 . S
C356 C338 1.392 . S
C357 C328 1.392 . S
C357 C330 1.389 . S
C358 C333 1.395 . S
C358 C335 1.391 . S
H359 C319 0.951 . S
H360 C320 0.950 . S
H361 C326 0.949 . S
H362 C327 0.950 . S
H363 C331 0.951 . S
H364 C332 0.950 . S
H365 C336 0.949 . S
H366 C337 0.950 . S
H367 C341 0.950 . S
H368 C343 0.950 . S
H369 C346 0.950 . S
H370 C348 0.950 . S
C371 C372 1.443 . S
C371 N375 1.376 . S
C371 C409 1.389 . S
C372 C371 1.443 . S
C372 C373 1.340 . S
C372 H412 0.951 . S
C373 C372 1.340 . S
C373 C374 1.439 . S
C373 H413 0.950 . S
C374 C373 1.439 . S
C374 N375 1.374 . S
C374 C408 1.395 . S
N375 C371 1.376 . S
N375 C374 1.374 . S
N375 Co376 2.008 . S
Co376 N375 2.008 . S
Co376 N377 1.995 . S
Co376 N382 2.008 . S
Co376 N387 1.995 . S
Co376 N392 2.282 . S
Co376 N398 2.282 . S
N377 Co376 1.995 . S
N377 C378 1.376 . S
N377 C381 1.383 . S
C378 N377 1.376 . S
C378 C379 1.446 . S
C378 C408 1.391 . S
C379 C378 1.446 . S
C379 C380 1.339 . S
C379 H414 0.949 . S
C380 C379 1.339 . S
C380 C381 1.439 . S
C380 H415 0.950 . S
C381 N377 1.383 . S
C381 C380 1.439 . S
C381 C410 1.392 . S
N382 Co376 2.008 . S
N382 C383 1.376 . S
N382 C386 1.374 . S
C383 N382 1.376 . S
C383 C384 1.443 . S
C383 C410 1.389 . S
C384 C383 1.443 . S
C384 C385 1.340 . S
C384 H416 0.951 . S
C385 C384 1.340 . S
C385 C386 1.439 . S
C385 H417 0.950 . S
C386 N382 1.374 . S
C386 C385 1.439 . S
C386 C411 1.395 . S
N387 Co376 1.995 . S
N387 C388 1.376 . S
N387 C391 1.383 . S
C388 N387 1.376 . S
C388 C389 1.446 . S
C388 C411 1.391 . S
C389 C388 1.446 . S
C389 C390 1.339 . S
C389 H418 0.949 . S
C390 C389 1.339 . S
C390 C391 1.439 . S
C390 H419 0.950 . S
C391 N387 1.383 . S
C391 C390 1.439 . S
C391 C409 1.392 . S
N392 Co376 2.282 . S
N392 C395 1.332 . S
N392 C397 1.332 . S
C393 C394 1.386 . S
C393 C396 1.388 . S
C394 C393 1.386 . S
C394 C395 1.382 . S
C394 H420 0.950 . S
C395 N392 1.332 . S
C395 C394 1.382 . S
C395 H406 0.952 . S
C396 C393 1.388 . S
C396 C397 1.382 . S
C396 H421 0.950 . S
C397 N392 1.332 . S
C397 C396 1.382 . S
C397 H407 0.948 . S
N398 Co376 2.282 . S
N398 C402 1.332 . S
N398 C403 1.332 . S
C399 C400 1.388 . S
C399 C403 1.382 . S
C399 H422 0.950 . S
C400 C399 1.388 . S
C400 C401 1.386 . S
C401 C400 1.386 . S
C401 C402 1.382 . S
C401 H423 0.950 . S
C402 N398 1.332 . S
C402 C401 1.382 . S
C402 H404 0.952 . S
C403 N398 1.332 . S
C403 C399 1.382 . S
C403 H405 0.948 . S
H404 C402 0.952 . S
H405 C403 0.948 . S
H406 C395 0.952 . S
H407 C397 0.948 . S
C408 C374 1.395 . S
C408 C378 1.391 . S
C409 C371 1.389 . S
C409 C391 1.392 . S
C410 C381 1.392 . S
C410 C383 1.389 . S
C411 C386 1.395 . S
C411 C388 1.391 . S
H412 C372 0.951 . S
H413 C373 0.950 . S
H414 C379 0.949 . S
H415 C380 0.950 . S
H416 C384 0.951 . S
H417 C385 0.950 . S
H418 C389 0.949 . S
H419 C390 0.950 . S
H420 C394 0.950 . S
H421 C396 0.950 . S
H422 C399 0.950 . S
H423 C401 0.950 . S
C424 C425 1.443 . S
C424 N428 1.376 . S
C424 C462 1.389 . S
C425 C424 1.443 . S
C425 C426 1.340 . S
C425 H465 0.951 . S
C426 C425 1.340 . S
C426 C427 1.439 . S
C426 H466 0.950 . S
C427 C426 1.439 . S
C427 N428 1.374 . S
C427 C461 1.395 . S
N428 C424 1.376 . S
N428 C427 1.374 . S
N428 Co429 2.008 . S
Co429 N428 2.008 . S
Co429 N430 1.995 . S
Co429 N435 2.008 . S
Co429 N440 1.995 . S
Co429 N445 2.282 . S
Co429 N451 2.282 . S
N430 Co429 1.995 . S
N430 C431 1.376 . S
N430 C434 1.383 . S
C431 N430 1.376 . S
C431 C432 1.446 . S
C431 C461 1.391 . S
C432 C431 1.446 . S
C432 C433 1.339 . S
C432 H467 0.949 . S
C433 C432 1.339 . S
C433 C434 1.439 . S
C433 H468 0.950 . S
C434 N430 1.383 . S
C434 C433 1.439 . S
C434 C463 1.392 . S
N435 Co429 2.008 . S
N435 C436 1.376 . S
N435 C439 1.374 . S
C436 N435 1.376 . S
C436 C437 1.443 . S
C436 C463 1.389 . S
C437 C436 1.443 . S
C437 C438 1.340 . S
C437 H469 0.951 . S
C438 C437 1.340 . S
C438 C439 1.439 . S
C438 H470 0.950 . S
C439 N435 1.374 . S
C439 C438 1.439 . S
C439 C464 1.395 . S
N440 Co429 1.995 . S
N440 C441 1.376 . S
N440 C444 1.383 . S
C441 N440 1.376 . S
C441 C442 1.446 . S
C441 C464 1.391 . S
C442 C441 1.446 . S
C442 C443 1.339 . S
C442 H471 0.949 . S
C443 C442 1.339 . S
C443 C444 1.439 . S
C443 H472 0.950 . S
C444 N440 1.383 . S
C444 C443 1.439 . S
C444 C462 1.392 . S
N445 Co429 2.282 . S
N445 C448 1.332 . S
N445 C450 1.332 . S
C446 C447 1.386 . S
C446 C449 1.388 . S
C447 C446 1.386 . S
C447 C448 1.382 . S
C447 H473 0.950 . S
C448 N445 1.332 . S
C448 C447 1.382 . S
C448 H459 0.952 . S
C449 C446 1.388 . S
C449 C450 1.382 . S
C449 H474 0.950 . S
C450 N445 1.332 . S
C450 C449 1.382 . S
C450 H460 0.948 . S
N451 Co429 2.282 . S
N451 C455 1.332 . S
N451 C456 1.332 . S
C452 C453 1.388 . S
C452 C456 1.382 . S
C452 H475 0.950 . S
C453 C452 1.388 . S
C453 C454 1.386 . S
C454 C453 1.386 . S
C454 C455 1.382 . S
C454 H476 0.950 . S
C455 N451 1.332 . S
C455 C454 1.382 . S
C455 H457 0.952 . S
C456 N451 1.332 . S
C456 C452 1.382 . S
C456 H458 0.948 . S
H457 C455 0.952 . S
H458 C456 0.948 . S
H459 C448 0.952 . S
H460 C450 0.948 . S
C461 C427 1.395 . S
C461 C431 1.391 . S
C462 C424 1.389 . S
C462 C444 1.392 . S
C463 C434 1.392 . S
C463 C436 1.389 . S
C464 C439 1.395 . S
C464 C441 1.391 . S
H465 C425 0.951 . S
H466 C426 0.950 . S
H467 C432 0.949 . S
H468 C433 0.950 . S
H469 C437 0.951 . S
H470 C438 0.950 . S
H471 C442 0.949 . S
H472 C443 0.950 . S
H473 C447 0.950 . S
H474 C449 0.950 . S
H475 C452 0.950 . S
H476 C454 0.950 . S
C477 C478 1.443 . S
C477 N481 1.376 . S
C477 C515 1.389 . S
C478 C477 1.443 . S
C478 C479 1.340 . S
C478 H518 0.951 . S
C479 C478 1.340 . S
C479 C480 1.439 . S
C479 H519 0.950 . S
C480 C479 1.439 . S
C480 N481 1.374 . S
C480 C514 1.395 . S
N481 C477 1.376 . S
N481 C480 1.374 . S
N481 Co482 2.008 . S
Co482 N481 2.008 . S
Co482 N483 1.995 . S
Co482 N488 2.008 . S
Co482 N493 1.995 . S
Co482 N498 2.282 . S
Co482 N504 2.282 . S
N483 Co482 1.995 . S
N483 C484 1.376 . S
N483 C487 1.383 . S
C484 N483 1.376 . S
C484 C485 1.446 . S
C484 C514 1.391 . S
C485 C484 1.446 . S
C485 C486 1.339 . S
C485 H520 0.949 . S
C486 C485 1.339 . S
C486 C487 1.439 . S
C486 H521 0.950 . S
C487 N483 1.383 . S
C487 C486 1.439 . S
C487 C516 1.392 . S
N488 Co482 2.008 . S
N488 C489 1.376 . S
N488 C492 1.374 . S
C489 N488 1.376 . S
C489 C490 1.443 . S
C489 C516 1.389 . S
C490 C489 1.443 . S
C490 C491 1.340 . S
C490 H522 0.951 . S
C491 C490 1.340 . S
C491 C492 1.439 . S
C491 H523 0.950 . S
C492 N488 1.374 . S
C492 C491 1.439 . S
C492 C517 1.395 . S
N493 Co482 1.995 . S
N493 C494 1.376 . S
N493 C497 1.383 . S
C494 N493 1.376 . S
C494 C495 1.446 . S
C494 C517 1.391 . S
C495 C494 1.446 . S
C495 C496 1.339 . S
C495 H524 0.949 . S
C496 C495 1.339 . S
C496 C497 1.439 . S
C496 H525 0.950 . S
C497 N493 1.383 . S
C497 C496 1.439 . S
C497 C515 1.392 . S
N498 Co482 2.282 . S
N498 C501 1.332 . S
N498 C503 1.332 . S
C499 C500 1.386 . S
C499 C502 1.388 . S
C500 C499 1.386 . S
C500 C501 1.382 . S
C500 H526 0.950 . S
C501 N498 1.332 . S
C501 C500 1.382 . S
C501 H512 0.952 . S
C502 C499 1.388 . S
C502 C503 1.382 . S
C502 H527 0.950 . S
C503 N498 1.332 . S
C503 C502 1.382 . S
C503 H513 0.948 . S
N504 Co482 2.282 . S
N504 C508 1.332 . S
N504 C509 1.332 . S
C505 C506 1.388 . S
C505 C509 1.382 . S
C505 H528 0.950 . S
C506 C505 1.388 . S
C506 C507 1.386 . S
C507 C506 1.386 . S
C507 C508 1.382 . S
C507 H529 0.950 . S
C508 N504 1.332 . S
C508 C507 1.382 . S
C508 H510 0.952 . S
C509 N504 1.332 . S
C509 C505 1.382 . S
C509 H511 0.948 . S
H510 C508 0.952 . S
H511 C509 0.948 . S
H512 C501 0.952 . S
H513 C503 0.948 . S
C514 C480 1.395 . S
C514 C484 1.391 . S
C515 C477 1.389 . S
C515 C497 1.392 . S
C516 C487 1.392 . S
C516 C489 1.389 . S
C517 C492 1.395 . S
C517 C494 1.391 . S
H518 C478 0.951 . S
H519 C479 0.950 . S
H520 C485 0.949 . S
H521 C486 0.950 . S
H522 C490 0.951 . S
H523 C491 0.950 . S
H524 C495 0.949 . S
H525 C496 0.950 . S
H526 C500 0.950 . S
H527 C502 0.950 . S
H528 C505 0.950 . S
H529 C507 0.950 . S
C530 C531 1.443 . S
C530 N534 1.376 . S
C530 C568 1.389 . S
C531 C530 1.443 . S
C531 C532 1.340 . S
C531 H571 0.951 . S
C532 C531 1.340 . S
C532 C533 1.439 . S
C532 H572 0.950 . S
C533 C532 1.439 . S
C533 N534 1.374 . S
C533 C567 1.395 . S
N534 C530 1.376 . S
N534 C533 1.374 . S
N534 Co535 2.008 . S
Co535 N534 2.008 . S
Co535 N536 1.995 . S
Co535 N541 2.008 . S
Co535 N546 1.995 . S
Co535 N551 2.282 . S
Co535 N557 2.282 . S
N536 Co535 1.995 . S
N536 C537 1.376 . S
N536 C540 1.383 . S
C537 N536 1.376 . S
C537 C538 1.446 . S
C537 C567 1.391 . S
C538 C537 1.446 . S
C538 C539 1.339 . S
C538 H573 0.949 . S
C539 C538 1.339 . S
C539 C540 1.439 . S
C539 H574 0.950 . S
C540 N536 1.383 . S
C540 C539 1.439 . S
C540 C569 1.392 . S
N541 Co535 2.008 . S
N541 C542 1.376 . S
N541 C545 1.374 . S
C542 N541 1.376 . S
C542 C543 1.443 . S
C542 C569 1.389 . S
C543 C542 1.443 . S
C543 C544 1.340 . S
C543 H575 0.951 . S
C544 C543 1.340 . S
C544 C545 1.439 . S
C544 H576 0.950 . S
C545 N541 1.374 . S
C545 C544 1.439 . S
C545 C570 1.395 . S
N546 Co535 1.995 . S
N546 C547 1.376 . S
N546 C550 1.383 . S
C547 N546 1.376 . S
C547 C548 1.446 . S
C547 C570 1.391 . S
C548 C547 1.446 . S
C548 C549 1.339 . S
C548 H577 0.949 . S
C549 C548 1.339 . S
C549 C550 1.439 . S
C549 H578 0.950 . S
C550 N546 1.383 . S
C550 C549 1.439 . S
C550 C568 1.392 . S
N551 Co535 2.282 . S
N551 C554 1.332 . S
N551 C556 1.332 . S
C552 C553 1.386 . S
C552 C555 1.388 . S
C553 C552 1.386 . S
C553 C554 1.382 . S
C553 H579 0.950 . S
C554 N551 1.332 . S
C554 C553 1.382 . S
C554 H565 0.952 . S
C555 C552 1.388 . S
C555 C556 1.382 . S
C555 H580 0.950 . S
C556 N551 1.332 . S
C556 C555 1.382 . S
C556 H566 0.948 . S
N557 Co535 2.282 . S
N557 C561 1.332 . S
N557 C562 1.332 . S
C558 C559 1.388 . S
C558 C562 1.382 . S
C558 H581 0.950 . S
C559 C558 1.388 . S
C559 C560 1.386 . S
C560 C559 1.386 . S
C560 C561 1.382 . S
C560 H582 0.950 . S
C561 N557 1.332 . S
C561 C560 1.382 . S
C561 H563 0.952 . S
C562 N557 1.332 . S
C562 C558 1.382 . S
C562 H564 0.948 . S
H563 C561 0.952 . S
H564 C562 0.948 . S
H565 C554 0.952 . S
H566 C556 0.948 . S
C567 C533 1.395 . S
C567 C537 1.391 . S
C568 C530 1.389 . S
C568 C550 1.392 . S
C569 C540 1.392 . S
C569 C542 1.389 . S
C570 C545 1.395 . S
C570 C547 1.391 . S
H571 C531 0.951 . S
H572 C532 0.950 . S
H573 C538 0.949 . S
H574 C539 0.950 . S
H575 C543 0.951 . S
H576 C544 0.950 . S
H577 C548 0.949 . S
H578 C549 0.950 . S
H579 C553 0.950 . S
H580 C555 0.950 . S
H581 C558 0.950 . S
H582 C560 0.950 . S
C583 C584 1.443 . S
C583 N587 1.376 . S
C583 C621 1.389 . S
C584 C583 1.443 . S
C584 C585 1.340 . S
C584 H624 0.951 . S
C585 C584 1.340 . S
C585 C586 1.439 . S
C585 H625 0.950 . S
C586 C585 1.439 . S
C586 N587 1.374 . S
C586 C620 1.395 . S
N587 C583 1.376 . S
N587 C586 1.374 . S
N587 Co588 2.008 . S
Co588 N587 2.008 . S
Co588 N589 1.995 . S
Co588 N594 2.008 . S
Co588 N599 1.995 . S
Co588 N604 2.282 . S
Co588 N610 2.282 . S
N589 Co588 1.995 . S
N589 C590 1.376 . S
N589 C593 1.383 . S
C590 N589 1.376 . S
C590 C591 1.446 . S
C590 C620 1.391 . S
C591 C590 1.446 . S
C591 C592 1.339 . S
C591 H626 0.949 . S
C592 C591 1.339 . S
C592 C593 1.439 . S
C592 H627 0.950 . S
C593 N589 1.383 . S
C593 C592 1.439 . S
C593 C622 1.392 . S
N594 Co588 2.008 . S
N594 C595 1.376 . S
N594 C598 1.374 . S
C595 N594 1.376 . S
C595 C596 1.443 . S
C595 C622 1.389 . S
C596 C595 1.443 . S
C596 C597 1.340 . S
C596 H628 0.951 . S
C597 C596 1.340 . S
C597 C598 1.439 . S
C597 H629 0.950 . S
C598 N594 1.374 . S
C598 C597 1.439 . S
C598 C623 1.395 . S
N599 Co588 1.995 . S
N599 C600 1.376 . S
N599 C603 1.383 . S
C600 N599 1.376 . S
C600 C601 1.446 . S
C600 C623 1.391 . S
C601 C600 1.446 . S
C601 C602 1.339 . S
C601 H630 0.949 . S
C602 C601 1.339 . S
C602 C603 1.439 . S
C602 H631 0.950 . S
C603 N599 1.383 . S
C603 C602 1.439 . S
C603 C621 1.392 . S
N604 Co588 2.282 . S
N604 C607 1.332 . S
N604 C609 1.332 . S
C605 C606 1.386 . S
C605 C608 1.388 . S
C606 C605 1.386 . S
C606 C607 1.382 . S
C606 H632 0.950 . S
C607 N604 1.332 . S
C607 C606 1.382 . S
C607 H618 0.952 . S
C608 C605 1.388 . S
C608 C609 1.382 . S
C608 H633 0.950 . S
C609 N604 1.332 . S
C609 C608 1.382 . S
C609 H619 0.948 . S
N610 Co588 2.282 . S
N610 C614 1.332 . S
N610 C615 1.332 . S
C611 C612 1.388 . S
C611 C615 1.382 . S
C611 H634 0.950 . S
C612 C611 1.388 . S
C612 C613 1.386 . S
C613 C612 1.386 . S
C613 C614 1.382 . S
C613 H635 0.950 . S
C614 N610 1.332 . S
C614 C613 1.382 . S
C614 H616 0.952 . S
C615 N610 1.332 . S
C615 C611 1.382 . S
C615 H617 0.948 . S
H616 C614 0.952 . S
H617 C615 0.948 . S
H618 C607 0.952 . S
H619 C609 0.948 . S
C620 C586 1.395 . S
C620 C590 1.391 . S
C621 C583 1.389 . S
C621 C603 1.392 . S
C622 C593 1.392 . S
C622 C595 1.389 . S
C623 C598 1.395 . S
C623 C600 1.391 . S
H624 C584 0.951 . S
H625 C585 0.950 . S
H626 C591 0.949 . S
H627 C592 0.950 . S
H628 C596 0.951 . S
H629 C597 0.950 . S
H630 C601 0.949 . S
H631 C602 0.950 . S
H632 C606 0.950 . S
H633 C608 0.950 . S
H634 C611 0.950 . S
H635 C613 0.950 . S
H636 C644 0.950 . S
H637 C649 0.950 . S
H638 C646 0.950 . S
H639 C648 0.950 . S
H640 C650 0.950 . S
H641 C652 0.950 . S
H642 C654 0.950 . S
H643 C655 0.950 . S
C644 H636 0.950 . S
C644 C645 1.386 . S
C644 C646 1.391 . S
C645 C644 1.386 . S
C645 C649 1.393 . S
C646 H638 0.950 . S
C646 C644 1.391 . S
C646 C647 1.400 . S
C647 C646 1.400 . S
C647 C648 1.398 . S
C647 C653 1.491 . S
C648 H639 0.950 . S
C648 C647 1.398 . S
C648 C649 1.391 . S
C649 H637 0.950 . S
C649 C645 1.393 . S
C649 C648 1.391 . S
C650 H640 0.950 . S
C650 C651 1.386 . S
C650 C652 1.391 . S
C651 C650 1.386 . S
C651 C655 1.393 . S
C652 H641 0.950 . S
C652 C650 1.391 . S
C652 C653 1.400 . S
C653 C647 1.491 . S
C653 C652 1.400 . S
C653 C654 1.398 . S
C654 H642 0.950 . S
C654 C653 1.398 . S
C654 C655 1.391 . S
C655 H643 0.950 . S
C655 C651 1.393 . S
C655 C654 1.391 . S
H656 C664 0.950 . S
H657 C669 0.950 . S
H658 C666 0.950 . S
H659 C668 0.950 . S
H660 C670 0.950 . S
H661 C672 0.950 . S
H662 C674 0.950 . S
H663 C675 0.950 . S
C664 H656 0.950 . S
C664 C665 1.386 . S
C664 C666 1.391 . S
C665 C664 1.386 . S
C665 C669 1.393 . S
C666 H658 0.950 . S
C666 C664 1.391 . S
C666 C667 1.400 . S
C667 C666 1.400 . S
C667 C668 1.398 . S
C667 C673 1.491 . S
C668 H659 0.950 . S
C668 C667 1.398 . S
C668 C669 1.391 . S
C669 H657 0.950 . S
C669 C665 1.393 . S
C669 C668 1.391 . S
C670 H660 0.950 . S
C670 C671 1.386 . S
C670 C672 1.391 . S
C671 C670 1.386 . S
C671 C675 1.393 . S
C672 H661 0.950 . S
C672 C670 1.391 . S
C672 C673 1.400 . S
C673 C667 1.491 . S
C673 C672 1.400 . S
C673 C674 1.398 . S
C674 H662 0.950 . S
C674 C673 1.398 . S
C674 C675 1.391 . S
C675 H663 0.950 . S
C675 C671 1.393 . S
C675 C674 1.391 . S
H676 C684 0.950 . S
H677 C689 0.950 . S
H678 C686 0.950 . S
H679 C688 0.950 . S
H680 C690 0.950 . S
H681 C692 0.950 . S
H682 C694 0.950 . S
H683 C695 0.950 . S
C684 H676 0.950 . S
C684 C685 1.386 . S
C684 C686 1.391 . S
C685 C684 1.386 . S
C685 C689 1.393 . S
C686 H678 0.950 . S
C686 C684 1.391 . S
C686 C687 1.400 . S
C687 C686 1.400 . S
C687 C688 1.398 . S
C687 C693 1.491 . S
C688 H679 0.950 . S
C688 C687 1.398 . S
C688 C689 1.391 . S
C689 H677 0.950 . S
C689 C685 1.393 . S
C689 C688 1.391 . S
C690 H680 0.950 . S
C690 C691 1.386 . S
C690 C692 1.391 . S
C691 C690 1.386 . S
C691 C695 1.393 . S
C692 H681 0.950 . S
C692 C690 1.391 . S
C692 C693 1.400 . S
C693 C687 1.491 . S
C693 C692 1.400 . S
C693 C694 1.398 . S
C694 H682 0.950 . S
C694 C693 1.398 . S
C694 C695 1.391 . S
C695 H683 0.950 . S
C695 C691 1.393 . S
C695 C694 1.391 . S
H696 C704 0.950 . S
H697 C709 0.950 . S
H698 C706 0.950 . S
H699 C708 0.950 . S
H700 C710 0.950 . S
H701 C712 0.950 . S
H702 C714 0.950 . S
H703 C715 0.950 . S
C704 H696 0.950 . S
C704 C705 1.386 . S
C704 C706 1.391 . S
C705 C704 1.386 . S
C705 C709 1.393 . S
C706 H698 0.950 . S
C706 C704 1.391 . S
C706 C707 1.400 . S
C707 C706 1.400 . S
C707 C708 1.398 . S
C707 C713 1.491 . S
C708 H699 0.950 . S
C708 C707 1.398 . S
C708 C709 1.391 . S
C709 H697 0.950 . S
C709 C705 1.393 . S
C709 C708 1.391 . S
C710 H700 0.950 . S
C710 C711 1.386 . S
C710 C712 1.391 . S
C711 C710 1.386 . S
C711 C715 1.393 . S
C712 H701 0.950 . S
C712 C710 1.391 . S
C712 C713 1.400 . S
C713 C707 1.491 . S
C713 C712 1.400 . S
C713 C714 1.398 . S
C714 H702 0.950 . S
C714 C713 1.398 . S
C714 C715 1.391 . S
C715 H703 0.950 . S
C715 C711 1.393 . S
C715 C714 1.391 . S
H716 C724 0.950 . S
H717 C729 0.950 . S
H718 C726 0.950 . S
H719 C728 0.950 . S
H720 C730 0.950 . S
H721 C732 0.950 . S
H722 C734 0.950 . S
H723 C735 0.950 . S
C724 H716 0.950 . S
C724 C725 1.386 . S
C724 C726 1.391 . S
C725 C724 1.386 . S
C725 C729 1.393 . S
C726 H718 0.950 . S
C726 C724 1.391 . S
C726 C727 1.400 . S
C727 C726 1.400 . S
C727 C728 1.398 . S
C727 C733 1.491 . S
C728 H719 0.950 . S
C728 C727 1.398 . S
C728 C729 1.391 . S
C729 H717 0.950 . S
C729 C725 1.393 . S
C729 C728 1.391 . S
C730 H720 0.950 . S
C730 C731 1.386 . S
C730 C732 1.391 . S
C731 C730 1.386 . S
C731 C735 1.393 . S
C732 H721 0.950 . S
C732 C730 1.391 . S
C732 C733 1.400 . S
C733 C727 1.491 . S
C733 C732 1.400 . S
C733 C734 1.398 . S
C734 H722 0.950 . S
C734 C733 1.398 . S
C734 C735 1.391 . S
C735 H723 0.950 . S
C735 C731 1.393 . S
C735 C734 1.391 . S
H736 C744 0.950 . S
H737 C749 0.950 . S
H738 C746 0.950 . S
H739 C748 0.950 . S
H740 C750 0.950 . S
H741 C752 0.950 . S
H742 C754 0.950 . S
H743 C755 0.950 . S
C744 H736 0.950 . S
C744 C745 1.386 . S
C744 C746 1.391 . S
C745 C744 1.386 . S
C745 C749 1.393 . S
C746 H738 0.950 . S
C746 C744 1.391 . S
C746 C747 1.400 . S
C747 C746 1.400 . S
C747 C748 1.398 . S
C747 C753 1.491 . S
C748 H739 0.950 . S
C748 C747 1.398 . S
C748 C749 1.391 . S
C749 H737 0.950 . S
C749 C745 1.393 . S
C749 C748 1.391 . S
C750 H740 0.950 . S
C750 C751 1.386 . S
C750 C752 1.391 . S
C751 C750 1.386 . S
C751 C755 1.393 . S
C752 H741 0.950 . S
C752 C750 1.391 . S
C752 C753 1.400 . S
C753 C747 1.491 . S
C753 C752 1.400 . S
C753 C754 1.398 . S
C754 H742 0.950 . S
C754 C753 1.398 . S
C754 C755 1.391 . S
C755 H743 0.950 . S
C755 C751 1.393 . S
C755 C754 1.391 . S
H756 C764 0.950 . S
H757 C769 0.950 . S
H758 C766 0.950 . S
H759 C768 0.950 . S
H760 C770 0.950 . S
H761 C772 0.950 . S
H762 C774 0.950 . S
H763 C775 0.950 . S
C764 H756 0.950 . S
C764 C765 1.386 . S
C764 C766 1.391 . S
C765 C764 1.386 . S
C765 C769 1.393 . S
C766 H758 0.950 . S
C766 C764 1.391 . S
C766 C767 1.400 . S
C767 C766 1.400 . S
C767 C768 1.398 . S
C767 C773 1.491 . S
C768 H759 0.950 . S
C768 C767 1.398 . S
C768 C769 1.391 . S
C769 H757 0.950 . S
C769 C765 1.393 . S
C769 C768 1.391 . S
C770 H760 0.950 . S
C770 C771 1.386 . S
C770 C772 1.391 . S
C771 C770 1.386 . S
C771 C775 1.393 . S
C772 H761 0.950 . S
C772 C770 1.391 . S
C772 C773 1.400 . S
C773 C767 1.491 . S
C773 C772 1.400 . S
C773 C774 1.398 . S
C774 H762 0.950 . S
C774 C773 1.398 . S
C774 C775 1.391 . S
C775 H763 0.950 . S
C775 C771 1.393 . S
C775 C774 1.391 . S
H776 C784 0.950 . S
H777 C789 0.950 . S
H778 C786 0.950 . S
H779 C788 0.950 . S
H780 C790 0.950 . S
H781 C792 0.950 . S
H782 C794 0.950 . S
H783 C795 0.950 . S
C784 H776 0.950 . S
C784 C785 1.386 . S
C784 C786 1.391 . S
C785 C784 1.386 . S
C785 C789 1.393 . S
C786 H778 0.950 . S
C786 C784 1.391 . S
C786 C787 1.400 . S
C787 C786 1.400 . S
C787 C788 1.398 . S
C787 C793 1.491 . S
C788 H779 0.950 . S
C788 C787 1.398 . S
C788 C789 1.391 . S
C789 H777 0.950 . S
C789 C785 1.393 . S
C789 C788 1.391 . S
C790 H780 0.950 . S
C790 C791 1.386 . S
C790 C792 1.391 1_455 S
C791 C790 1.386 . S
C791 C795 1.393 . S
C792 H781 0.950 . S
C792 C790 1.391 1_655 S
C792 C793 1.400 . S
C793 C787 1.491 . S
C793 C792 1.400 . S
C793 C794 1.398 . S
C794 H782 0.950 . S
C794 C793 1.398 . S
C794 C795 1.391 1_655 S
C795 H783 0.950 . S
C795 C791 1.393 . S
C795 C794 1.391 1_455 S
H796 C804 0.950 . S
H797 C809 0.950 . S
H798 C806 0.950 . S
H799 C808 0.950 1_565 S
H800 C810 0.950 . S
H801 C812 0.950 . S
H802 C814 0.950 1_545 S
H803 C815 0.950 . S
C804 H796 0.950 . S
C804 C805 1.386 . S
C804 C806 1.391 . S
C805 C804 1.386 . S
C805 C809 1.393 . S
C806 H798 0.950 . S
C806 C804 1.391 . S
C806 C807 1.400 . S
C807 C806 1.400 . S
C807 C808 1.398 . S
C807 C813 1.491 1_545 S
C808 H799 0.950 1_545 S
C808 C807 1.398 . S
C808 C809 1.391 . S
C809 H797 0.950 . S
C809 C805 1.393 . S
C809 C808 1.391 . S
C810 H800 0.950 . S
C810 C811 1.386 . S
C810 C812 1.391 . S
C811 C810 1.386 . S
C811 C815 1.393 . S
C812 H801 0.950 . S
C812 C810 1.391 . S
C812 C813 1.400 . S
C813 C807 1.491 1_565 S
C813 C812 1.400 . S
C813 C814 1.398 . S
C814 H802 0.950 1_565 S
C814 C813 1.398 . S
C814 C815 1.391 . S
C815 H803 0.950 . S
C815 C811 1.393 . S
C815 C814 1.391 . S
H816 C824 0.950 . S
H817 C829 0.950 . S
H818 C826 0.950 . S
H819 C828 0.950 . S
H820 C830 0.950 . S
H821 C832 0.950 . S
H822 C834 0.950 . S
H823 C835 0.950 . S
C824 H816 0.950 . S
C824 C825 1.386 . S
C824 C826 1.391 . S
C825 C824 1.386 . S
C825 C829 1.393 . S
C826 H818 0.950 . S
C826 C824 1.391 . S
C826 C827 1.400 . S
C827 C826 1.400 . S
C827 C828 1.398 . S
C827 C833 1.491 . S
C828 H819 0.950 . S
C828 C827 1.398 . S
C828 C829 1.391 . S
C829 H817 0.950 . S
C829 C825 1.393 . S
C829 C828 1.391 . S
C830 H820 0.950 . S
C830 C831 1.386 . S
C830 C832 1.391 . S
C831 C830 1.386 . S
C831 C835 1.393 . S
C832 H821 0.950 . S
C832 C830 1.391 . S
C832 C833 1.400 . S
C833 C827 1.491 . S
C833 C832 1.400 . S
C833 C834 1.398 . S
C834 H822 0.950 . S
C834 C833 1.398 . S
C834 C835 1.391 . S
C835 H823 0.950 . S
C835 C831 1.393 . S
C835 C834 1.391 . S
H836 C844 0.950 . S
H837 C849 0.950 . S
H838 C846 0.950 . S
H839 C848 0.950 . S
H840 C850 0.950 . S
H841 C852 0.950 . S
H842 C854 0.950 . S
H843 C855 0.950 . S
C844 H836 0.950 . S
C844 C845 1.386 . S
C844 C846 1.391 1_655 S
C845 C844 1.386 . S
C845 C849 1.393 . S
C846 H838 0.950 . S
C846 C844 1.391 1_455 S
C846 C847 1.400 . S
C847 C846 1.400 . S
C847 C848 1.398 . S
C847 C853 1.491 . S
C848 H839 0.950 . S
C848 C847 1.398 . S
C848 C849 1.391 1_455 S
C849 H837 0.950 . S
C849 C845 1.393 . S
C849 C848 1.391 1_655 S
C850 H840 0.950 . S
C850 C851 1.386 . S
C850 C852 1.391 . S
C851 C850 1.386 . S
C851 C855 1.393 . S
C852 H841 0.950 . S
C852 C850 1.391 . S
C852 C853 1.400 . S
C853 C847 1.491 . S
C853 C852 1.400 . S
C853 C854 1.398 . S
C854 H842 0.950 . S
C854 C853 1.398 . S
C854 C855 1.391 . S
C855 H843 0.950 . S
C855 C851 1.393 . S
C855 C854 1.391 . S
H856 C864 0.950 . S
H857 C869 0.950 . S
H858 C866 0.950 . S
H859 C868 0.950 . S
H860 C870 0.950 . S
H861 C872 0.950 . S
H862 C874 0.950 . S
H863 C875 0.950 . S
C864 H856 0.950 . S
C864 C865 1.386 . S
C864 C866 1.391 . S
C865 C864 1.386 . S
C865 C869 1.393 . S
C866 H858 0.950 . S
C866 C864 1.391 . S
C866 C867 1.400 . S
C867 C866 1.400 . S
C867 C868 1.398 . S
C867 C873 1.491 1_564 S
C868 H859 0.950 . S
C868 C867 1.398 . S
C868 C869 1.391 . S
C869 H857 0.950 . S
C869 C865 1.393 . S
C869 C868 1.391 . S
C870 H860 0.950 . S
C870 C871 1.386 . S
C870 C872 1.391 . S
C871 C870 1.386 . S
C871 C875 1.393 . S
C872 H861 0.950 . S
C872 C870 1.391 . S
C872 C873 1.400 . S
C873 C867 1.491 1_546 S
C873 C872 1.400 . S
C873 C874 1.398 . S
C874 H862 0.950 . S
C874 C873 1.398 . S
C874 C875 1.391 . S
C875 H863 0.950 . S
C875 C871 1.393 . S
C875 C874 1.391 . S
H876 C884 0.950 . S
H877 C889 0.950 . S
H878 C886 0.950 . S
H879 C888 0.950 . S
H880 C890 0.950 . S
H881 C892 0.950 . S
H882 C894 0.950 . S
H883 C895 0.950 . S
C884 H876 0.950 . S
C884 C885 1.386 . S
C884 C886 1.391 . S
C885 C884 1.386 . S
C885 C889 1.393 . S
C886 H878 0.950 . S
C886 C884 1.391 . S
C886 C887 1.400 . S
C887 C886 1.400 . S
C887 C888 1.398 . S
C887 C893 1.491 . S
C888 H879 0.950 . S
C888 C887 1.398 . S
C888 C889 1.391 . S
C889 H877 0.950 . S
C889 C885 1.393 . S
C889 C888 1.391 . S
C890 H880 0.950 . S
C890 C891 1.386 . S
C890 C892 1.391 1_556 S
C891 C890 1.386 . S
C891 C895 1.393 . S
C892 H881 0.950 . S
C892 C890 1.391 1_554 S
C892 C893 1.400 . S
C893 C887 1.491 . S
C893 C892 1.400 . S
C893 C894 1.398 . S
C894 H882 0.950 . S
C894 C893 1.398 . S
C894 C895 1.391 1_554 S
C895 H883 0.950 . S
C895 C891 1.393 . S
C895 C894 1.391 1_556 S
H896 C904 0.950 . S
H897 C909 0.950 . S
H898 C906 0.950 . S
H899 C908 0.950 . S
H900 C910 0.950 . S
H901 C912 0.950 1_655 S
H902 C914 0.950 . S
H903 C915 0.950 . S
C904 H896 0.950 . S
C904 C905 1.386 . S
C904 C906 1.391 . S
C905 C904 1.386 . S
C905 C909 1.393 . S
C906 H898 0.950 . S
C906 C904 1.391 . S
C906 C907 1.400 . S
C907 C906 1.400 . S
C907 C908 1.398 . S
C907 C913 1.491 1_655 S
C908 H899 0.950 . S
C908 C907 1.398 . S
C908 C909 1.391 . S
C909 H897 0.950 . S
C909 C905 1.393 . S
C909 C908 1.391 . S
C910 H900 0.950 . S
C910 C911 1.386 . S
C910 C912 1.391 . S
C911 C910 1.386 . S
C911 C915 1.393 . S
C912 H901 0.950 1_455 S
C912 C910 1.391 . S
C912 C913 1.400 . S
C913 C907 1.491 1_455 S
C913 C912 1.400 . S
C913 C914 1.398 . S
C914 H902 0.950 . S
C914 C913 1.398 . S
C914 C915 1.391 . S
C915 H903 0.950 . S
C915 C911 1.393 . S
C915 C914 1.391 . S
H916 C924 0.949 . S
H917 C929 0.950 . S
H918 C926 0.950 . S
H919 C928 0.950 . S
H920 C930 0.950 . S
H921 C932 0.950 . S
H922 C934 0.950 . S
H923 C935 0.950 . S
C924 H916 0.949 . S
C924 C925 1.357 1_565 S
C924 C926 1.421 . S
C925 C924 1.357 1_545 S
C925 C929 1.393 . S
C926 H918 0.950 . S
C926 C924 1.421 . S
C926 C927 1.400 . S
C927 C926 1.400 . S
C927 C928 1.398 1_565 S
C927 C933 1.491 . S
C928 H919 0.950 . S
C928 C927 1.398 1_545 S
C928 C929 1.391 . S
C929 H917 0.950 . S
C929 C925 1.393 . S
C929 C928 1.391 . S
C930 H920 0.950 . S
C930 C931 1.386 . S
C930 C932 1.391 . S
C931 C930 1.386 . S
C931 C935 1.393 . S
C932 H921 0.950 . S
C932 C930 1.391 . S
C932 C933 1.400 . S
C933 C927 1.491 . S
C933 C932 1.400 . S
C933 C934 1.398 . S
C934 H922 0.950 . S
C934 C933 1.398 . S
C934 C935 1.391 . S
C935 H923 0.950 . S
C935 C931 1.393 . S
C935 C934 1.391 . S
H936 C944 0.950 . S
H937 C949 0.950 . S
H938 C946 0.950 . S
H939 C948 0.950 . S
H940 C950 0.950 . S
H941 C952 0.950 . S
H942 C954 0.950 . S
H943 C955 0.950 . S
C944 H936 0.950 . S
C944 C945 1.386 . S
C944 C946 1.391 . S
C945 C944 1.386 . S
C945 C949 1.393 . S
C946 H938 0.950 . S
C946 C944 1.391 . S
C946 C947 1.400 . S
C947 C946 1.400 . S
C947 C948 1.398 . S
C947 C953 1.491 . S
C948 H939 0.950 . S
C948 C947 1.398 . S
C948 C949 1.391 . S
C949 H937 0.950 . S
C949 C945 1.393 . S
C949 C948 1.391 . S
C950 H940 0.950 . S
C950 C951 1.386 . S
C950 C952 1.391 . S
C951 C950 1.386 . S
C951 C955 1.393 . S
C952 H941 0.950 . S
C952 C950 1.391 . S
C952 C953 1.400 . S
C953 C947 1.491 . S
C953 C952 1.400 . S
C953 C954 1.398 . S
C954 H942 0.950 . S
C954 C953 1.398 . S
C954 C955 1.391 . S
C955 H943 0.950 . S
C955 C951 1.393 . S
C955 C954 1.391 . S
H956 C964 0.950 . S
H957 C969 0.950 . S
H958 C966 0.950 . S
H959 C968 0.950 . S
H960 C970 0.950 . S
H961 C972 0.950 . S
H962 C974 0.950 . S
H963 C975 0.950 . S
C964 H956 0.950 . S
C964 C965 1.386 . S
C964 C966 1.391 . S
C965 C964 1.386 . S
C965 C969 1.393 . S
C966 H958 0.950 . S
C966 C964 1.391 . S
C966 C967 1.400 . S
C967 C966 1.400 . S
C967 C968 1.398 . S
C967 C973 1.491 1_455 S
C968 H959 0.950 . S
C968 C967 1.398 . S
C968 C969 1.391 . S
C969 H957 0.950 . S
C969 C965 1.393 . S
C969 C968 1.391 . S
C970 H960 0.950 . S
C970 C971 1.386 . S
C970 C972 1.391 . S
C971 C970 1.386 . S
C971 C975 1.393 . S
C972 H961 0.950 . S
C972 C970 1.391 . S
C972 C973 1.400 . S
C973 C967 1.491 1_655 S
C973 C972 1.400 . S
C973 C974 1.398 . S
C974 H962 0.950 . S
C974 C973 1.398 . S
C974 C975 1.391 . S
C975 H963 0.950 . S
C975 C971 1.393 . S
C975 C974 1.391 . S
H976 C984 0.950 . S
H977 C989 0.950 . S
H978 C986 0.950 . S
H979 C988 0.950 . S
H980 C990 0.950 . S
H981 C992 0.950 . S
H982 C994 0.950 . S
H983 C995 0.950 . S
C984 H976 0.950 . S
C984 C985 1.386 . S
C984 C986 1.391 . S
C985 C984 1.386 . S
C985 C989 1.393 . S
C986 H978 0.950 . S
C986 C984 1.391 . S
C986 C987 1.400 . S
C987 C986 1.400 . S
C987 C988 1.398 . S
C987 C993 1.491 . S
C988 H979 0.950 . S
C988 C987 1.398 . S
C988 C989 1.391 . S
C989 H977 0.950 . S
C989 C985 1.393 . S
C989 C988 1.391 . S
C990 H980 0.950 . S
C990 C991 1.386 . S
C990 C992 1.391 1_565 S
C991 C990 1.386 . S
C991 C995 1.393 . S
C992 H981 0.950 . S
C992 C990 1.391 1_545 S
C992 C993 1.400 . S
C993 C987 1.491 . S
C993 C992 1.400 . S
C993 C994 1.398 . S
C994 H982 0.950 . S
C994 C993 1.398 . S
C994 C995 1.391 1_545 S
C995 H983 0.950 . S
C995 C991 1.393 . S
C995 C994 1.391 1_565 S
H996 C1004 0.950 . S
H997 C1009 0.950 . S
H998 C1006 0.950 . S
H999 C1008 0.950 . S
H1000 C1010 0.950 . S
H1001 C1012 0.950 . S
H1002 C1014 0.950 . S
H1003 C1015 0.950 . S
C1004 H996 0.950 . S
C1004 C1005 1.386 . S
C1004 C1006 1.391 . S
C1005 C1004 1.386 . S
C1005 C1009 1.393 . S
C1006 H998 0.950 . S
C1006 C1004 1.391 . S
C1006 C1007 1.400 . S
C1007 C1006 1.400 . S
C1007 C1008 1.398 . S
C1007 C1013 1.491 . S
C1008 H999 0.950 . S
C1008 C1007 1.398 . S
C1008 C1009 1.391 . S
C1009 H997 0.950 . S
C1009 C1005 1.393 . S
C1009 C1008 1.391 . S
C1010 H1000 0.950 . S
C1010 C1011 1.386 . S
C1010 C1012 1.391 . S
C1011 C1010 1.386 . S
C1011 C1015 1.393 . S
C1012 H1001 0.950 . S
C1012 C1010 1.391 . S
C1012 C1013 1.400 . S
C1013 C1007 1.491 . S
C1013 C1012 1.400 . S
C1013 C1014 1.398 . S
C1014 H1002 0.950 . S
C1014 C1013 1.398 . S
C1014 C1015 1.391 . S
C1015 H1003 0.950 . S
C1015 C1011 1.393 . S
C1015 C1014 1.391 . S
H1016 C1024 0.950 . S
H1017 C1029 0.950 . S
H1018 C1026 0.950 . S
H1019 C1028 0.950 . S
H1020 C1030 0.950 . S
H1021 C1032 0.953 1_655 S
H1022 C1034 0.950 . S
H1023 C1035 0.950 . S
C1024 H1016 0.950 . S
C1024 C1025 1.386 . S
C1024 C1026 1.391 . S
C1025 C1024 1.386 . S
C1025 C1029 1.393 . S
C1026 H1018 0.950 . S
C1026 C1024 1.391 . S
C1026 C1027 1.400 . S
C1027 C1026 1.400 . S
C1027 C1028 1.398 . S
C1027 C1033 1.491 1_655 S
C1028 H1019 0.950 . S
C1028 C1027 1.398 . S
C1028 C1029 1.391 . S
C1029 H1017 0.950 . S
C1029 C1025 1.393 . S
C1029 C1028 1.391 . S
C1030 H1020 0.950 . S
C1030 C1031 1.386 . S
C1030 C1032 1.391 1_554 S
C1031 C1030 1.386 . S
C1031 C1035 1.393 1_554 S
C1032 H1021 0.953 1_455 S
C1032 C1030 1.391 1_556 S
C1032 C1033 1.400 . S
C1033 C1027 1.491 1_455 S
C1033 C1032 1.400 . S
C1033 C1034 1.398 . S
C1034 H1022 0.950 . S
C1034 C1033 1.398 . S
C1034 C1035 1.391 . S
C1035 H1023 0.950 . S
C1035 C1031 1.393 1_556 S
C1035 C1034 1.391 . S
H1036 C1044 0.950 . S
H1037 C1049 0.950 . S
H1038 C1046 0.950 . S
H1039 C1048 0.950 . S
H1040 C1050 0.950 . S
H1041 C1052 0.950 . S
H1042 C1054 0.950 . S
H1043 C1055 0.949 . S
C1044 H1036 0.950 . S
C1044 C1045 1.386 . S
C1044 C1046 1.391 . S
C1045 C1044 1.386 . S
C1045 C1049 1.393 . S
C1046 H1038 0.950 . S
C1046 C1044 1.391 . S
C1046 C1047 1.400 . S
C1047 C1046 1.400 . S
C1047 C1048 1.398 . S
C1047 C1053 1.491 . S
C1048 H1039 0.950 . S
C1048 C1047 1.398 . S
C1048 C1049 1.391 . S
C1049 H1037 0.950 . S
C1049 C1045 1.393 . S
C1049 C1048 1.391 . S
C1050 H1040 0.950 . S
C1050 C1051 1.386 . S
C1050 C1052 1.383 1_545 S
C1051 C1050 1.386 . S
C1051 C1055 1.411 . S
C1052 H1041 0.950 . S
C1052 C1050 1.383 1_565 S
C1052 C1053 1.408 . S
C1053 C1047 1.491 . S
C1053 C1052 1.408 . S
C1053 C1054 1.398 . S
C1054 H1042 0.950 . S
C1054 C1053 1.398 . S
C1054 C1055 1.371 1_565 S
C1055 H1043 0.949 . S
C1055 C1051 1.411 . S
C1055 C1054 1.371 1_545 S
H1056 C1064 0.950 . S
H1057 C1069 0.950 . S
H1058 C1066 0.950 . S
H1059 C1068 0.950 . S
H1060 C1070 0.950 . S
H1061 C1072 0.950 . S
H1062 C1074 0.950 . S
H1063 C1075 0.950 . S
C1064 H1056 0.950 . S
C1064 C1065 1.386 . S
C1064 C1066 1.391 . S
C1065 C1064 1.386 . S
C1065 C1069 1.393 . S
C1066 H1058 0.950 . S
C1066 C1064 1.391 . S
C1066 C1067 1.400 . S
C1067 C1066 1.400 . S
C1067 C1068 1.398 . S
C1067 C1073 1.491 . S
C1068 H1059 0.950 . S
C1068 C1067 1.398 . S
C1068 C1069 1.391 . S
C1069 H1057 0.950 . S
C1069 C1065 1.393 . S
C1069 C1068 1.391 . S
C1070 H1060 0.950 . S
C1070 C1071 1.386 . S
C1070 C1072 1.391 . S
C1071 C1070 1.386 . S
C1071 C1075 1.393 . S
C1072 H1061 0.950 . S
C1072 C1070 1.391 . S
C1072 C1073 1.400 . S
C1073 C1067 1.491 . S
C1073 C1072 1.400 . S
C1073 C1074 1.398 . S
C1074 H1062 0.950 . S
C1074 C1073 1.398 . S
C1074 C1075 1.391 . S
C1075 H1063 0.950 . S
C1075 C1071 1.393 . S
C1075 C1074 1.391 . S
H1076 C1084 0.950 . S
H1077 C1089 0.950 . S
H1078 C1086 0.950 1_655 S
H1079 C1088 0.950 . S
H1080 C1090 0.950 . S
H1081 C1092 0.950 1_455 S
H1082 C1094 0.950 . S
H1083 C1095 0.950 . S
C1084 H1076 0.950 . S
C1084 C1085 1.386 . S
C1084 C1086 1.391 . S
C1085 C1084 1.386 . S
C1085 C1089 1.393 . S
C1086 H1078 0.950 1_455 S
C1086 C1084 1.391 . S
C1086 C1087 1.400 . S
C1087 C1086 1.400 . S
C1087 C1088 1.398 . S
C1087 C1093 1.491 1_455 S
C1088 H1079 0.950 . S
C1088 C1087 1.398 . S
C1088 C1089 1.391 . S
C1089 H1077 0.950 . S
C1089 C1085 1.393 . S
C1089 C1088 1.391 . S
C1090 H1080 0.950 . S
C1090 C1091 1.386 . S
C1090 C1092 1.391 . S
C1091 C1090 1.386 . S
C1091 C1095 1.393 . S
C1092 H1081 0.950 1_655 S
C1092 C1090 1.391 . S
C1092 C1093 1.400 . S
C1093 C1087 1.491 1_655 S
C1093 C1092 1.400 . S
C1093 C1094 1.398 . S
C1094 H1082 0.950 . S
C1094 C1093 1.398 . S
C1094 C1095 1.391 . S
C1095 H1083 0.950 . S
C1095 C1091 1.393 . S
C1095 C1094 1.391 . S
H1096 C1104 0.950 . S
H1097 C1109 0.950 . S
H1098 C1106 0.950 . S
H1099 C1108 0.950 . S
H1100 C1110 0.950 . S
H1101 C1112 0.950 . S
H1102 C1114 0.950 . S
H1103 C1115 0.950 . S
C1104 H1096 0.950 . S
C1104 C1105 1.386 . S
C1104 C1106 1.391 1_565 S
C1105 C1104 1.386 . S
C1105 C1109 1.393 . S
C1106 H1098 0.950 . S
C1106 C1104 1.391 1_545 S
C1106 C1107 1.400 . S
C1107 C1106 1.400 . S
C1107 C1108 1.398 . S
C1107 C1113 1.491 . S
C1108 H1099 0.950 . S
C1108 C1107 1.398 . S
C1108 C1109 1.391 1_545 S
C1109 H1097 0.950 . S
C1109 C1105 1.393 . S
C1109 C1108 1.391 1_565 S
C1110 H1100 0.950 . S
C1110 C1111 1.386 . S
C1110 C1112 1.391 . S
C1111 C1110 1.386 . S
C1111 C1115 1.393 . S
C1112 H1101 0.950 . S
C1112 C1110 1.391 . S
C1112 C1113 1.400 . S
C1113 C1107 1.491 . S
C1113 C1112 1.400 . S
C1113 C1114 1.398 . S
C1114 H1102 0.950 . S
C1114 C1113 1.398 . S
C1114 C1115 1.391 . S
C1115 H1103 0.950 . S
C1115 C1111 1.393 . S
C1115 C1114 1.391 . S
C645 C446 1.766 . S
C651 C22 1.764 . S
C665 C91 1.734 . S
C671 C515 1.723 . S
C685 C128 1.750 . S
C691 C552 1.757 . S
C705 C181 1.767 . S
C711 C605 1.758 . S
C725 C356 1.734 . S
C731 C250 1.743 . S
C745 C287 1.766 . S
C751 C393 1.764 . S
C765 C516 1.456 . S
C771 C29 1.442 . S
C785 C92 1.471 . S
C791 C559 1.463 . S
C805 C612 1.350 . S
C811 C135 1.339 . S
C825 C188 1.464 . S
C831 C357 1.471 . S
C845 C400 1.463 . S
C851 C251 1.471 . S
C865 C453 1.333 . S
C871 C294 1.334 . S
C885 C38 2.183 . S
C891 C304 2.170 . S
C905 C75 2.359 . S
C911 C39 2.373 . S
C925 C82 2.210 . S
C931 C144 2.302 . S
C945 C197 2.178 . S
C951 C145 2.179 . S
C965 C234 2.364 . S
C971 C198 2.367 . S
C985 C303 2.296 . S
C991 C241 2.216 . S
C1005 C340 2.361 . S
C1011 C410 2.371 . S
C1025 C409 2.179 . S
C1031 C463 2.175 . S
C1045 C462 2.302 . S
C1051 C506 2.211 . S
C1065 C499 2.362 . S
C1071 C569 2.371 . S
C1085 C568 2.178 . S
C1091 C622 2.179 . S
C1105 C347 2.227 . S
C1111 C621 2.300 . S
