# Generated by pormake.
# Topology uoe, (4)-cn, num edge types: 1
# Building blocks:
#     Node 0, Type 0, BuildingBlock: QUQFOY_clean_sbu_1, # of connection points: 4
#     Node 1, Type 0, BuildingBlock: QUQFOY_clean_sbu_1, # of connection points: 4
#     Node 2, Type 0, BuildingBlock: QUQFOY_clean_sbu_1, # of connection points: 4
#     Node 3, Type 0, BuildingBlock: QUQFOY_clean_sbu_1, # of connection points: 4
#     Node 4, Type 0, BuildingBlock: QUQFOY_clean_sbu_1, # of connection points: 4
#     Node 5, Type 0, BuildingBlock: QUQFOY_clean_sbu_1, # of connection points: 4
#     Node 6, Type 0, BuildingBlock: QUQFOY_clean_sbu_1, # of connection points: 4
#     Node 7, Type 0, BuildingBlock: QUQFOY_clean_sbu_1, # of connection points: 4
#     Node 8, Type 0, BuildingBlock: QUQFOY_clean_sbu_1, # of connection points: 4
#     Node 9, Type 0, BuildingBlock: QUQFOY_clean_sbu_1, # of connection points: 4
#     Node 10, Type 0, BuildingBlock: QUQFOY_clean_sbu_1, # of connection points: 4
#     Node 11, Type 0, BuildingBlock: QUQFOY_clean_sbu_1, # of connection points: 4
#     Node 12, Type 0, BuildingBlock: QUQFOY_clean_sbu_1, # of connection points: 4
#     Node 13, Type 0, BuildingBlock: QUQFOY_clean_sbu_1, # of connection points: 4
#     Node 14, Type 0, BuildingBlock: QUQFOY_clean_sbu_1, # of connection points: 4
#     Node 15, Type 0, BuildingBlock: QUQFOY_clean_sbu_1, # of connection points: 4
#     Node 16, Type 0, BuildingBlock: QUQFOY_clean_sbu_1, # of connection points: 4
#     Node 17, Type 0, BuildingBlock: QUQFOY_clean_sbu_1, # of connection points: 4
#     Node 18, Type 0, BuildingBlock: QUQFOY_clean_sbu_1, # of connection points: 4
#     Node 19, Type 0, BuildingBlock: QUQFOY_clean_sbu_1, # of connection points: 4
#     Node 20, Type 0, BuildingBlock: QUQFOY_clean_sbu_1, # of connection points: 4
#     Node 21, Type 0, BuildingBlock: QUQFOY_clean_sbu_1, # of connection points: 4
#     Node 22, Type 0, BuildingBlock: QUQFOY_clean_sbu_1, # of connection points: 4
#     Node 23, Type 0, BuildingBlock: QUQFOY_clean_sbu_1, # of connection points: 4
#     Node 24, Type 0, BuildingBlock: QUQFOY_clean_sbu_1, # of connection points: 4
#     Node 25, Type 0, BuildingBlock: QUQFOY_clean_sbu_1, # of connection points: 4
#     Node 26, Type 0, BuildingBlock: QUQFOY_clean_sbu_1, # of connection points: 4
#     Node 27, Type 0, BuildingBlock: QUQFOY_clean_sbu_1, # of connection points: 4
#     Node 28, Type 0, BuildingBlock: QUQFOY_clean_sbu_1, # of connection points: 4
#     Node 29, Type 0, BuildingBlock: QUQFOY_clean_sbu_1, # of connection points: 4
#     Node 30, Type 0, BuildingBlock: QUQFOY_clean_sbu_1, # of connection points: 4
#     Node 31, Type 0, BuildingBlock: QUQFOY_clean_sbu_1, # of connection points: 4
#     Edge 32, Type (0, 0), BuildingBlock: UVAHIK_clean_linker_0, # of connection points: 2
#     Edge 33, Type (0, 0), BuildingBlock: UVAHIK_clean_linker_0, # of connection points: 2
#     Edge 34, Type (0, 0), BuildingBlock: UVAHIK_clean_linker_0, # of connection points: 2
#     Edge 35, Type (0, 0), BuildingBlock: UVAHIK_clean_linker_0, # of connection points: 2
#     Edge 36, Type (0, 0), BuildingBlock: UVAHIK_clean_linker_0, # of connection points: 2
#     Edge 37, Type (0, 0), BuildingBlock: UVAHIK_clean_linker_0, # of connection points: 2
#     Edge 38, Type (0, 0), BuildingBlock: UVAHIK_clean_linker_0, # of connection points: 2
#     Edge 39, Type (0, 0), BuildingBlock: UVAHIK_clean_linker_0, # of connection points: 2
#     Edge 40, Type (0, 0), BuildingBlock: UVAHIK_clean_linker_0, # of connection points: 2
#     Edge 41, Type (0, 0), BuildingBlock: UVAHIK_clean_linker_0, # of connection points: 2
#     Edge 42, Type (0, 0), BuildingBlock: UVAHIK_clean_linker_0, # of connection points: 2
#     Edge 43, Type (0, 0), BuildingBlock: UVAHIK_clean_linker_0, # of connection points: 2
#     Edge 44, Type (0, 0), BuildingBlock: UVAHIK_clean_linker_0, # of connection points: 2
#     Edge 45, Type (0, 0), BuildingBlock: UVAHIK_clean_linker_0, # of connection points: 2
#     Edge 46, Type (0, 0), BuildingBlock: UVAHIK_clean_linker_0, # of connection points: 2
#     Edge 47, Type (0, 0), BuildingBlock: UVAHIK_clean_linker_0, # of connection points: 2
#     Edge 48, Type (0, 0), BuildingBlock: UVAHIK_clean_linker_0, # of connection points: 2
#     Edge 49, Type (0, 0), BuildingBlock: UVAHIK_clean_linker_0, # of connection points: 2
#     Edge 50, Type (0, 0), BuildingBlock: UVAHIK_clean_linker_0, # of connection points: 2
#     Edge 51, Type (0, 0), BuildingBlock: UVAHIK_clean_linker_0, # of connection points: 2
#     Edge 52, Type (0, 0), BuildingBlock: UVAHIK_clean_linker_0, # of connection points: 2
#     Edge 53, Type (0, 0), BuildingBlock: UVAHIK_clean_linker_0, # of connection points: 2
#     Edge 54, Type (0, 0), BuildingBlock: UVAHIK_clean_linker_0, # of connection points: 2
#     Edge 55, Type (0, 0), BuildingBlock: UVAHIK_clean_linker_0, # of connection points: 2
#     Edge 56, Type (0, 0), BuildingBlock: UVAHIK_clean_linker_0, # of connection points: 2
#     Edge 57, Type (0, 0), BuildingBlock: UVAHIK_clean_linker_0, # of connection points: 2
#     Edge 58, Type (0, 0), BuildingBlock: UVAHIK_clean_linker_0, # of connection points: 2
#     Edge 59, Type (0, 0), BuildingBlock: UVAHIK_clean_linker_0, # of connection points: 2
#     Edge 60, Type (0, 0), BuildingBlock: UVAHIK_clean_linker_0, # of connection points: 2
#     Edge 61, Type (0, 0), BuildingBlock: UVAHIK_clean_linker_0, # of connection points: 2
#     Edge 62, Type (0, 0), BuildingBlock: UVAHIK_clean_linker_0, # of connection points: 2
#     Edge 63, Type (0, 0), BuildingBlock: UVAHIK_clean_linker_0, # of connection points: 2
#     Edge 64, Type (0, 0), BuildingBlock: UVAHIK_clean_linker_0, # of connection points: 2
#     Edge 65, Type (0, 0), BuildingBlock: UVAHIK_clean_linker_0, # of connection points: 2
#     Edge 66, Type (0, 0), BuildingBlock: UVAHIK_clean_linker_0, # of connection points: 2
#     Edge 67, Type (0, 0), BuildingBlock: UVAHIK_clean_linker_0, # of connection points: 2
#     Edge 68, Type (0, 0), BuildingBlock: UVAHIK_clean_linker_0, # of connection points: 2
#     Edge 69, Type (0, 0), BuildingBlock: UVAHIK_clean_linker_0, # of connection points: 2
#     Edge 70, Type (0, 0), BuildingBlock: UVAHIK_clean_linker_0, # of connection points: 2
#     Edge 71, Type (0, 0), BuildingBlock: UVAHIK_clean_linker_0, # of connection points: 2
#     Edge 72, Type (0, 0), BuildingBlock: UVAHIK_clean_linker_0, # of connection points: 2
#     Edge 73, Type (0, 0), BuildingBlock: UVAHIK_clean_linker_0, # of connection points: 2
#     Edge 74, Type (0, 0), BuildingBlock: UVAHIK_clean_linker_0, # of connection points: 2
#     Edge 75, Type (0, 0), BuildingBlock: UVAHIK_clean_linker_0, # of connection points: 2
#     Edge 76, Type (0, 0), BuildingBlock: UVAHIK_clean_linker_0, # of connection points: 2
#     Edge 77, Type (0, 0), BuildingBlock: UVAHIK_clean_linker_0, # of connection points: 2
#     Edge 78, Type (0, 0), BuildingBlock: UVAHIK_clean_linker_0, # of connection points: 2
#     Edge 79, Type (0, 0), BuildingBlock: UVAHIK_clean_linker_0, # of connection points: 2
#     Edge 80, Type (0, 0), BuildingBlock: UVAHIK_clean_linker_0, # of connection points: 2
#     Edge 81, Type (0, 0), BuildingBlock: UVAHIK_clean_linker_0, # of connection points: 2
#     Edge 82, Type (0, 0), BuildingBlock: UVAHIK_clean_linker_0, # of connection points: 2
#     Edge 83, Type (0, 0), BuildingBlock: UVAHIK_clean_linker_0, # of connection points: 2
#     Edge 84, Type (0, 0), BuildingBlock: UVAHIK_clean_linker_0, # of connection points: 2
#     Edge 85, Type (0, 0), BuildingBlock: UVAHIK_clean_linker_0, # of connection points: 2
#     Edge 86, Type (0, 0), BuildingBlock: UVAHIK_clean_linker_0, # of connection points: 2
#     Edge 87, Type (0, 0), BuildingBlock: UVAHIK_clean_linker_0, # of connection points: 2
#     Edge 88, Type (0, 0), BuildingBlock: UVAHIK_clean_linker_0, # of connection points: 2
#     Edge 89, Type (0, 0), BuildingBlock: UVAHIK_clean_linker_0, # of connection points: 2
#     Edge 90, Type (0, 0), BuildingBlock: UVAHIK_clean_linker_0, # of connection points: 2
#     Edge 91, Type (0, 0), BuildingBlock: UVAHIK_clean_linker_0, # of connection points: 2
#     Edge 92, Type (0, 0), BuildingBlock: UVAHIK_clean_linker_0, # of connection points: 2
#     Edge 93, Type (0, 0), BuildingBlock: UVAHIK_clean_linker_0, # of connection points: 2
#     Edge 94, Type (0, 0), BuildingBlock: UVAHIK_clean_linker_0, # of connection points: 2
#     Edge 95, Type (0, 0), BuildingBlock: UVAHIK_clean_linker_0, # of connection points: 2
# Relax obj value: 0.070
# Max RMSD: 0.139
# Mean RMSD: 0.139
data_MOF--net-uoe--node1-QUQFOY_clean_sbu_1--edge1-UVAHIK_clean_linker_0
_symmetry_space_group_name_H-M    P1
_symmetry_Int_Tables_number       1
_symmetry_cell_setting            triclinic
loop_
_symmetry_equiv_pos_as_xyz
'x, y, z'
_cell_length_a     101.24348
_cell_length_b     101.28737
_cell_length_c     36.422009
_cell_angle_alpha  89.991232
_cell_angle_beta   90.012051
_cell_angle_gamma 89.986525
loop_
_atom_site_label
_atom_site_type_symbol
_atom_site_fract_x
_atom_site_fract_y
_atom_site_fract_z
_atom_type_partial_charge
O0 O 0.09453 0.46726 0.12226 0.0
Cd1 Cd 0.08726 0.45652 0.07918 0.0
Cd2 Cd 0.09709 0.47862 0.04316 0.0
O3 O 0.10751 0.48086 0.09184 0.0
O4 O 0.08467 0.4389 0.10274 0.0
O5 O 0.09969 0.44257 0.05994 0.0
C6 C 0.09472 0.43474 0.08433 0.0
C7 C 0.10691 0.48361 0.98655 0.0
C8 C 0.10366 0.47585 0.122 0.0
C9 C 0.06728 0.47448 0.04778 0.0
O10 O 0.07697 0.48233 0.04353 0.0
O11 O 0.06926 0.46263 0.0581 0.0
O12 O 0.10395 0.49269 0.00989 0.0
O13 O 0.10491 0.47149 0.9961 0.0
O14 O 0.7867 0.84448 0.37665 0.0
Cd15 Cd 0.79722 0.83737 0.3329 0.0
Cd16 Cd 0.77505 0.84705 0.29831 0.0
O17 O 0.77308 0.85763 0.34686 0.0
O18 O 0.81508 0.83495 0.35513 0.0
O19 O 0.81083 0.84996 0.31268 0.0
C20 C 0.81897 0.84503 0.33639 0.0
C21 C 0.77012 0.85653 0.24117 0.0
C22 C 0.77815 0.85364 0.37684 0.0
C23 C 0.77916 0.81731 0.30318 0.0
O24 O 0.77123 0.82697 0.29966 0.0
O25 O 0.79114 0.81934 0.31219 0.0
O26 O 0.76102 0.85386 0.26476 0.0
O27 O 0.78223 0.85448 0.25082 0.0
O28 O 0.40353 0.53433 0.61894 0.0
Cd29 Cd 0.41387 0.54512 0.58087 0.0
Cd30 Cd 0.40583 0.52186 0.53994 0.0
O31 O 0.39507 0.51787 0.58678 0.0
O32 O 0.41685 0.56166 0.60955 0.0
O33 O 0.40383 0.56083 0.56101 0.0
C34 C 0.40827 0.56738 0.58884 0.0
C35 C 0.39678 0.51754 0.482 0.0
C36 C 0.39615 0.52423 0.61667 0.0
C37 C 0.43523 0.52724 0.5519 0.0
O38 O 0.42601 0.51946 0.54228 0.0
O39 O 0.43258 0.53853 0.56555 0.0
O40 O 0.40031 0.50815 0.50376 0.0
O41 O 0.3979 0.52953 0.49376 0.0
O42 O 0.71812 0.15735 0.86972 0.0
Cd43 Cd 0.70743 0.16523 0.8273 0.0
Cd44 Cd 0.72996 0.15603 0.79095 0.0
O45 O 0.73245 0.1453 0.83894 0.0
O46 O 0.69001 0.16798 0.85179 0.0
O47 O 0.69305 0.1534 0.80751 0.0
C48 C 0.68547 0.15831 0.83259 0.0
C49 C 0.73508 0.14667 0.73382 0.0
C50 C 0.72708 0.14859 0.86912 0.0
C51 C 0.72536 0.18571 0.79793 0.0
O52 O 0.73333 0.17618 0.79277 0.0
O53 O 0.71353 0.18347 0.80806 0.0
O54 O 0.74414 0.14966 0.75723 0.0
O55 O 0.72293 0.14841 0.74352 0.0
O56 O 0.09761 0.5344 0.47065 0.0
Cd57 Cd 0.08928 0.5456 0.51134 0.0
Cd58 Cd 0.09839 0.5233 0.55051 0.0
O59 O 0.10908 0.51997 0.50286 0.0
O60 O 0.08647 0.56258 0.48452 0.0
O61 O 0.10082 0.56046 0.52979 0.0
C62 C 0.09597 0.56756 0.50354 0.0
C63 C 0.10765 0.51899 0.6083 0.0
C64 C 0.10612 0.52521 0.47223 0.0
C65 C 0.06869 0.52796 0.54219 0.0
O66 O 0.07822 0.52014 0.54898 0.0
O67 O 0.07093 0.53956 0.53026 0.0
O68 O 0.10451 0.50961 0.58608 0.0
O69 O 0.10613 0.53099 0.59698 0.0
O70 O 0.71809 0.84896 0.72368 0.0
Cd71 Cd 0.70655 0.83927 0.76123 0.0
Cd72 Cd 0.72945 0.84758 0.80355 0.0
O73 O 0.7334 0.85873 0.75712 0.0
O74 O 0.69058 0.83635 0.73001 0.0
O75 O 0.69038 0.8493 0.77863 0.0
C76 C 0.6844 0.84488 0.7498 0.0
C77 C 0.73415 0.85603 0.86218 0.0
C78 C 0.7278 0.85683 0.72633 0.0
C79 C 0.72422 0.81806 0.79035 0.0
O80 O 0.73194 0.82737 0.79983 0.0
O81 O 0.71283 0.8206 0.77719 0.0
O82 O 0.74339 0.85271 0.83971 0.0
O83 O 0.7221 0.8551 0.8508 0.0
O84 O 0.40575 0.46696 0.96527 0.0
Cd85 Cd 0.41509 0.45591 0.00464 0.0
Cd86 Cd 0.40615 0.4781 0.04635 0.0
O87 O 0.39536 0.48172 0.99922 0.0
O88 O 0.41787 0.43903 0.97742 0.0
O89 O 0.4042 0.4408 0.02442 0.0
C90 C 0.40879 0.43383 0.99757 0.0
C91 C 0.39686 0.48303 0.1037 0.0
C92 C 0.39752 0.47636 0.96826 0.0
C93 C 0.43581 0.47365 0.03573 0.0
O94 O 0.42629 0.4812 0.0446 0.0
O95 O 0.43356 0.4623 0.02201 0.0
O96 O 0.40017 0.49215 0.0809 0.0
O97 O 0.39832 0.47091 0.09339 0.0
O98 O 0.78522 0.15752 0.21818 0.0
Cd99 Cd 0.79605 0.16571 0.25985 0.0
Cd100 Cd 0.77384 0.15646 0.29739 0.0
O101 O 0.77092 0.14567 0.24971 0.0
O102 O 0.81329 0.16859 0.23445 0.0
O103 O 0.81072 0.15416 0.27935 0.0
C104 C 0.81808 0.15907 0.25378 0.0
C105 C 0.76983 0.1471 0.35514 0.0
C106 C 0.77621 0.14882 0.21929 0.0
C107 C 0.77811 0.18615 0.28967 0.0
O108 O 0.77027 0.17657 0.29566 0.0
O109 O 0.78986 0.18398 0.27876 0.0
O110 O 0.76033 0.15 0.33301 0.0
O111 O 0.78178 0.14894 0.34375 0.0
O112 O 0.90309 0.53484 0.96655 0.0
Cd113 Cd 0.91355 0.54578 0.00407 0.0
Cd114 Cd 0.90577 0.52251 0.04561 0.0
O115 O 0.89476 0.51846 0.99927 0.0
O116 O 0.91626 0.56231 0.97504 0.0
O117 O 0.90347 0.56146 0.02403 0.0
C118 C 0.90772 0.568 0.99595 0.0
C119 C 0.89719 0.51805 0.10405 0.0
C120 C 0.89573 0.52475 0.96922 0.0
C121 C 0.93511 0.52797 0.03206 0.0
O122 O 0.92593 0.52019 0.04207 0.0
O123 O 0.93238 0.53928 0.01866 0.0
O124 O 0.9006 0.50872 0.08199 0.0
O125 O 0.89813 0.53006 0.09235 0.0
O126 O 0.21722 0.15683 0.71557 0.0
Cd127 Cd 0.20621 0.16457 0.75755 0.0
Cd128 Cd 0.2285 0.15539 0.79469 0.0
O129 O 0.23139 0.14471 0.74677 0.0
O130 O 0.18888 0.16714 0.73237 0.0
O131 O 0.19187 0.15252 0.77658 0.0
C132 C 0.18436 0.15737 0.75122 0.0
C133 C 0.23283 0.14617 0.85251 0.0
C134 C 0.2262 0.14809 0.71639 0.0
C135 C 0.22392 0.18507 0.78761 0.0
O136 O 0.23186 0.17553 0.79295 0.0
O137 O 0.21212 0.18284 0.77715 0.0
O138 O 0.24221 0.14909 0.83001 0.0
O139 O 0.22082 0.14785 0.8414 0.0
O140 O 0.59925 0.46789 0.4672 0.0
Cd141 Cd 0.58927 0.45752 0.50686 0.0
Cd142 Cd 0.59774 0.48101 0.54569 0.0
O143 O 0.60835 0.48429 0.49815 0.0
O144 O 0.58611 0.44064 0.47995 0.0
O145 O 0.59958 0.44212 0.52743 0.0
C146 C 0.59493 0.43522 0.50052 0.0
C147 C 0.60701 0.4862 0.60281 0.0
C148 C 0.60688 0.47781 0.46858 0.0
C149 C 0.56823 0.47577 0.53553 0.0
O150 O 0.57756 0.48361 0.54385 0.0
O151 O 0.57072 0.4643 0.52285 0.0
O152 O 0.60358 0.49524 0.57984 0.0
O153 O 0.60569 0.47404 0.59274 0.0
O154 O 0.28489 0.84514 0.21922 0.0
Cd155 Cd 0.29584 0.83719 0.26097 0.0
Cd156 Cd 0.27366 0.84609 0.29869 0.0
O157 O 0.27073 0.85701 0.25119 0.0
O158 O 0.3134 0.83509 0.23666 0.0
O159 O 0.30977 0.84936 0.28141 0.0
C160 C 0.31755 0.84484 0.25624 0.0
C161 C 0.26938 0.8552 0.35666 0.0
C162 C 0.27591 0.85388 0.2206 0.0
C163 C 0.27826 0.81645 0.29032 0.0
O164 O 0.27032 0.82595 0.29641 0.0
O165 O 0.29 0.81877 0.27958 0.0
O166 O 0.25998 0.85227 0.33423 0.0
O167 O 0.28138 0.85355 0.34546 0.0
O168 O 0.90647 0.467 0.6216 0.0
Cd169 Cd 0.91589 0.45592 0.58243 0.0
Cd170 Cd 0.9073 0.47824 0.5407 0.0
O171 O 0.89629 0.48184 0.58744 0.0
O172 O 0.91851 0.43903 0.60975 0.0
O173 O 0.905 0.44085 0.56242 0.0
C174 C 0.90948 0.43386 0.5894 0.0
C175 C 0.89831 0.48321 0.48296 0.0
C176 C 0.89831 0.47644 0.61843 0.0
C177 C 0.93687 0.47358 0.55246 0.0
O178 O 0.92745 0.48123 0.54342 0.0
O179 O 0.93447 0.46219 0.56573 0.0
O180 O 0.90156 0.49232 0.50588 0.0
O181 O 0.89969 0.47109 0.49333 0.0
O182 O 0.28574 0.15745 0.36792 0.0
Cd183 Cd 0.29679 0.16546 0.32647 0.0
Cd184 Cd 0.27427 0.15632 0.28827 0.0
O185 O 0.27146 0.14561 0.33623 0.0
O186 O 0.31404 0.16811 0.35217 0.0
O187 O 0.31133 0.15363 0.30749 0.0
C188 C 0.31872 0.15846 0.33314 0.0
C189 C 0.26893 0.14709 0.23103 0.0
C190 C 0.27669 0.14879 0.36672 0.0
C191 C 0.27905 0.18603 0.29618 0.0
O192 O 0.27115 0.17651 0.29008 0.0
O193 O 0.29077 0.18377 0.30731 0.0
O194 O 0.25996 0.15023 0.25451 0.0
O195 O 0.28112 0.14859 0.24069 0.0
O196 O 0.59776 0.53505 0.12042 0.0
Cd197 Cd 0.58815 0.5464 0.08217 0.0
Cd198 Cd 0.5968 0.52444 0.039 0.0
O199 O 0.60762 0.52018 0.08561 0.0
O200 O 0.58544 0.56303 0.11065 0.0
O201 O 0.59883 0.56175 0.06293 0.0
C202 C 0.59434 0.56847 0.09042 0.0
C203 C 0.60601 0.52048 0.98102 0.0
C204 C 0.60575 0.52548 0.1168 0.0
C205 C 0.56721 0.52894 0.05069 0.0
O206 O 0.57665 0.52146 0.04083 0.0
O207 O 0.56956 0.54013 0.06524 0.0
O208 O 0.60261 0.51097 0.00249 0.0
O209 O 0.60467 0.5324 0.99306 0.0
O210 O 0.21768 0.846 0.87237 0.0
Cd211 Cd 0.20689 0.83795 0.83044 0.0
Cd212 Cd 0.22928 0.84732 0.79346 0.0
O213 O 0.23173 0.85824 0.84115 0.0
O214 O 0.18965 0.83502 0.85581 0.0
O215 O 0.19223 0.8496 0.8113 0.0
C216 C 0.18488 0.84464 0.83683 0.0
C217 C 0.23427 0.85641 0.73589 0.0
C218 C 0.22649 0.8549 0.87149 0.0
C219 C 0.22497 0.8176 0.80115 0.0
O220 O 0.23284 0.82721 0.79587 0.0
O221 O 0.21312 0.81973 0.81123 0.0
O222 O 0.24337 0.85364 0.75939 0.0
O223 O 0.22214 0.85464 0.74576 0.0
O224 O 0.6021 0.97015 0.60829 0.0
Cd225 Cd 0.59002 0.95854 0.57648 0.0
Cd226 Cd 0.59717 0.98162 0.52859 0.0
O227 O 0.60855 0.98678 0.5733 0.0
O228 O 0.58747 0.9437 0.61198 0.0
O229 O 0.59816 0.94126 0.55968 0.0
C230 C 0.59465 0.93641 0.59101 0.0
C231 C 0.60525 0.98599 0.46948 0.0
C232 C 0.60884 0.98057 0.60356 0.0
C233 C 0.56807 0.97605 0.54754 0.0
O234 O 0.57699 0.98331 0.53351 0.0
O235 O 0.57106 0.96539 0.56423 0.0
O236 O 0.60145 0.99532 0.49105 0.0
O237 O 0.60484 0.97404 0.48186 0.0
O238 O 0.28599 0.34445 0.87264 0.0
Cd239 Cd 0.2966 0.33684 0.82974 0.0
Cd240 Cd 0.27438 0.34652 0.79392 0.0
O241 O 0.27227 0.35726 0.8421 0.0
O242 O 0.31415 0.33404 0.85356 0.0
O243 O 0.31081 0.34889 0.8101 0.0
C244 C 0.31853 0.34388 0.83473 0.0
C245 C 0.26946 0.35595 0.73671 0.0
C246 C 0.27738 0.35356 0.87227 0.0
C247 C 0.27843 0.31675 0.80004 0.0
O248 O 0.27058 0.32644 0.79562 0.0
O249 O 0.29035 0.31877 0.80969 0.0
O250 O 0.26035 0.35323 0.7602 0.0
O251 O 0.28157 0.35393 0.74642 0.0
O252 O 0.90738 0.03706 0.12996 0.0
Cd253 Cd 0.91618 0.04772 0.08881 0.0
Cd254 Cd 0.90708 0.02547 0.04985 0.0
O255 O 0.89626 0.02247 0.09727 0.0
O256 O 0.91882 0.06506 0.11369 0.0
O257 O 0.90478 0.06223 0.06792 0.0
C258 C 0.90943 0.06972 0.09357 0.0
C259 C 0.89773 0.02063 0.99256 0.0
C260 C 0.89886 0.02789 0.1279 0.0
C261 C 0.93674 0.02976 0.05876 0.0
O262 O 0.92717 0.02203 0.05172 0.0
O263 O 0.93456 0.04138 0.07069 0.0
O264 O 0.90077 0.01147 0.01559 0.0
O265 O 0.89947 0.03273 0.00267 0.0
O266 O 0.21837 0.65521 0.36469 0.0
Cd267 Cd 0.20707 0.66354 0.32421 0.0
Cd268 Cd 0.22954 0.6548 0.28493 0.0
O269 O 0.23303 0.64406 0.33241 0.0
O270 O 0.19013 0.66625 0.35135 0.0
O271 O 0.19217 0.65202 0.30581 0.0
C272 C 0.18512 0.65679 0.33223 0.0
C273 C 0.23396 0.64574 0.22694 0.0
C274 C 0.22771 0.64687 0.36305 0.0
C275 C 0.22455 0.6844 0.29401 0.0
O276 O 0.23247 0.67499 0.287 0.0
O277 O 0.21294 0.682 0.30575 0.0
O278 O 0.24331 0.64893 0.24923 0.0
O279 O 0.22194 0.6471 0.23827 0.0
O280 O 0.59634 0.03582 0.95325 0.0
Cd281 Cd 0.58769 0.04624 0.99511 0.0
Cd282 Cd 0.59728 0.02419 0.03308 0.0
O283 O 0.60801 0.02151 0.98534 0.0
O284 O 0.58488 0.06372 0.97109 0.0
O285 O 0.59917 0.06064 0.01615 0.0
C286 C 0.59437 0.06827 0.99099 0.0
C287 C 0.60685 0.0197 0.09027 0.0
C288 C 0.60512 0.02689 0.95486 0.0
C289 C 0.56754 0.02797 0.02568 0.0
O290 O 0.57726 0.02033 0.03193 0.0
O291 O 0.5695 0.03966 0.01399 0.0
O292 O 0.60405 0.01042 0.06739 0.0
O293 O 0.60479 0.03173 0.07998 0.0
O294 O 0.21856 0.34759 0.21943 0.0
Cd295 Cd 0.20726 0.33887 0.25924 0.0
Cd296 Cd 0.22974 0.34758 0.29929 0.0
O297 O 0.23318 0.35859 0.25225 0.0
O298 O 0.19045 0.33615 0.23143 0.0
O299 O 0.19214 0.35009 0.27773 0.0
C300 C 0.18525 0.34542 0.25082 0.0
C301 C 0.23417 0.3564 0.35759 0.0
C302 C 0.22785 0.35597 0.22149 0.0
C303 C 0.22489 0.31797 0.28894 0.0
O304 O 0.23273 0.32741 0.29651 0.0
O305 O 0.2133 0.32036 0.27701 0.0
O306 O 0.24351 0.35331 0.33519 0.0
O307 O 0.22215 0.35508 0.34622 0.0
O308 O 0.90222 0.96974 0.47548 0.0
Cd309 Cd 0.91323 0.95836 0.5107 0.0
Cd310 Cd 0.9061 0.98159 0.55508 0.0
O311 O 0.89498 0.98633 0.50945 0.0
O312 O 0.9159 0.94244 0.47911 0.0
O313 O 0.90374 0.94209 0.52932 0.0
C314 C 0.90781 0.93616 0.50004 0.0
C315 C 0.89776 0.98604 0.61383 0.0
C316 C 0.89529 0.9801 0.4792 0.0
C317 C 0.93523 0.97573 0.53893 0.0
O318 O 0.92629 0.98343 0.55089 0.0
O319 O 0.9322 0.96474 0.5241 0.0
O320 O 0.90145 0.99535 0.59207 0.0
O321 O 0.89836 0.97406 0.60175 0.0
O322 O 0.28665 0.65848 0.71322 0.0
Cd323 Cd 0.29733 0.66574 0.75649 0.0
Cd324 Cd 0.27505 0.65614 0.79199 0.0
O325 O 0.27283 0.64566 0.74341 0.0
O326 O 0.315 0.6683 0.73327 0.0
O327 O 0.31123 0.65335 0.77619 0.0
C328 C 0.31913 0.65831 0.75196 0.0
C329 C 0.2699 0.64649 0.84875 0.0
C330 C 0.27796 0.64946 0.71333 0.0
C331 C 0.2794 0.68589 0.7869 0.0
O332 O 0.27146 0.67626 0.79103 0.0
O333 O 0.29129 0.68381 0.77712 0.0
O334 O 0.26087 0.64945 0.82522 0.0
O335 O 0.28206 0.64839 0.83932 0.0
O336 O 0.40394 0.03557 0.47214 0.0
Cd337 Cd 0.41413 0.04659 0.50992 0.0
Cd338 Cd 0.40606 0.02322 0.55206 0.0
O339 O 0.39552 0.0192 0.50479 0.0
O340 O 0.41696 0.0631 0.48084 0.0
O341 O 0.40387 0.06226 0.52921 0.0
C342 C 0.40827 0.06878 0.50125 0.0
C343 C 0.39697 0.01772 0.60928 0.0
C344 C 0.39663 0.02543 0.47468 0.0
C345 C 0.4355 0.02895 0.54017 0.0
O346 O 0.4263 0.02122 0.55024 0.0
O347 O 0.43284 0.0401 0.52564 0.0
O348 O 0.40079 0.00881 0.5864 0.0
O349 O 0.39783 0.02991 0.59914 0.0
O350 O 0.71695 0.65795 0.21584 0.0
Cd351 Cd 0.70631 0.66557 0.2587 0.0
Cd352 Cd 0.72865 0.65604 0.2946 0.0
O353 O 0.73097 0.64543 0.24632 0.0
O354 O 0.68875 0.6683 0.23493 0.0
O355 O 0.69215 0.6535 0.27849 0.0
C356 C 0.6844 0.65847 0.25388 0.0
C357 C 0.73371 0.64654 0.35163 0.0
C358 C 0.72574 0.64902 0.21618 0.0
C359 C 0.72437 0.68578 0.28853 0.0
O360 O 0.73226 0.67614 0.29314 0.0
O361 O 0.71249 0.6837 0.27865 0.0
O362 O 0.74277 0.64943 0.32815 0.0
O363 O 0.72157 0.64843 0.34202 0.0
O364 O 0.09529 0.96684 0.96359 0.0
Cd365 Cd 0.08789 0.95631 0.00694 0.0
Cd366 Cd 0.09785 0.97843 0.04218 0.0
O367 O 0.10835 0.98047 0.99359 0.0
O368 O 0.08501 0.93873 0.98358 0.0
O369 O 0.10008 0.94219 0.02638 0.0
C370 C 0.09497 0.93441 0.00207 0.0
C371 C 0.10761 0.98331 0.09892 0.0
C372 C 0.10446 0.97538 0.96358 0.0
C373 C 0.06804 0.97454 0.03756 0.0
O374 O 0.07779 0.98235 0.04144 0.0
O375 O 0.06995 0.96262 0.02782 0.0
O376 O 0.10483 0.99243 0.0755 0.0
O377 O 0.10549 0.97121 0.08936 0.0
O378 O 0.78545 0.3466 0.71734 0.0
Cd379 Cd 0.79626 0.33856 0.75931 0.0
Cd380 Cd 0.77363 0.34769 0.79631 0.0
O381 O 0.77105 0.35848 0.74841 0.0
O382 O 0.81354 0.33566 0.73409 0.0
O383 O 0.81089 0.35021 0.77864 0.0
C384 C 0.81829 0.34524 0.75325 0.0
C385 C 0.7684 0.35688 0.85363 0.0
C386 C 0.77642 0.35528 0.71814 0.0
C387 C 0.77835 0.31802 0.78867 0.0
O388 O 0.77037 0.32753 0.79417 0.0
O389 O 0.79014 0.3203 0.77835 0.0
O390 O 0.75939 0.35389 0.8301 0.0
O391 O 0.78057 0.35525 0.84395 0.0
O392 O 0.40678 0.96725 0.12532 0.0
Cd393 Cd 0.41529 0.95616 0.08457 0.0
Cd394 Cd 0.40641 0.97808 0.04443 0.0
O395 O 0.3959 0.98182 0.09194 0.0
O396 O 0.4173 0.93868 0.1093 0.0
O397 O 0.40334 0.94216 0.06363 0.0
C398 C 0.40771 0.93444 0.08919 0.0
C399 C 0.39691 0.98219 0.98691 0.0
C400 C 0.39847 0.97659 0.12285 0.0
C401 C 0.43605 0.9735 0.05295 0.0
O402 O 0.42654 0.98124 0.04535 0.0
O403 O 0.43378 0.96205 0.06596 0.0
O404 O 0.4002 0.99165 0.0087 0.0
O405 O 0.39845 0.97023 0.99849 0.0
O406 O 0.78491 0.65739 0.86725 0.0
Cd407 Cd 0.79597 0.66545 0.82586 0.0
Cd408 Cd 0.77367 0.6564 0.78755 0.0
O409 O 0.77049 0.64578 0.83542 0.0
O410 O 0.81328 0.66795 0.8513 0.0
O411 O 0.81039 0.65359 0.8064 0.0
C412 C 0.81787 0.65833 0.83199 0.0
C413 C 0.76933 0.64703 0.72993 0.0
C414 C 0.77575 0.64885 0.86596 0.0
C415 C 0.77834 0.68608 0.79532 0.0
O416 O 0.77046 0.67657 0.78889 0.0
O417 O 0.78999 0.68382 0.8069 0.0
O418 O 0.75995 0.65017 0.75218 0.0
O419 O 0.78134 0.64861 0.74112 0.0
O420 O 0.09711 0.03387 0.61487 0.0
Cd421 Cd 0.08877 0.04517 0.57441 0.0
Cd422 Cd 0.09767 0.02279 0.53481 0.0
O423 O 0.1083 0.01928 0.58248 0.0
O424 O 0.086 0.06207 0.60161 0.0
O425 O 0.10028 0.06009 0.55616 0.0
C426 C 0.09546 0.06712 0.58258 0.0
C427 C 0.10702 0.01846 0.47716 0.0
C428 C 0.10548 0.02456 0.61316 0.0
C429 C 0.06802 0.02773 0.54317 0.0
O430 O 0.07746 0.01984 0.53604 0.0
O431 O 0.07038 0.03925 0.55554 0.0
O432 O 0.10371 0.00908 0.49921 0.0
O433 O 0.10559 0.03045 0.48856 0.0
O434 O 0.71724 0.34676 0.36962 0.0
Cd435 Cd 0.70625 0.33862 0.32818 0.0
Cd436 Cd 0.72859 0.34771 0.29031 0.0
O437 O 0.7316 0.3585 0.33797 0.0
O438 O 0.68907 0.33583 0.35394 0.0
O439 O 0.69158 0.35026 0.30904 0.0
C440 C 0.68426 0.34537 0.33475 0.0
C441 C 0.73284 0.35689 0.23239 0.0
C442 C 0.72632 0.35539 0.36844 0.0
C443 C 0.72404 0.31805 0.29837 0.0
O444 O 0.73194 0.32757 0.2923 0.0
O445 O 0.71231 0.32031 0.30929 0.0
O446 O 0.74225 0.35394 0.25477 0.0
O447 O 0.72085 0.35523 0.24363 0.0
C448 C 0.95957 0.53086 0.02096 0.0
C449 C 0.94901 0.52331 0.03464 0.0
C450 C 0.9725 0.52585 0.02149 0.0
C451 C 0.99069 0.49416 0.02552 0.0
H452 H 0.02058 0.51583 0.0535 0.0
C453 C 0.04258 0.47212 0.0532 0.0
C454 C 0.05364 0.47957 0.04248 0.0
C455 C 0.02984 0.47746 0.05069 0.0
C456 C 0.01237 0.50967 0.04511 0.0
H457 H 0.9439 0.50467 0.06059 0.0
H458 H 0.96627 0.49609 0.06167 0.0
H459 H 0.99849 0.52544 0.05236 0.0
H460 H 0.05988 0.49834 0.01952 0.0
H461 H 0.03776 0.50749 0.01453 0.0
H462 H 0.00453 0.4784 0.01818 0.0
C463 C 0.96458 0.50578 0.04996 0.0
C464 C 0.9997 0.5152 0.04451 0.0
C465 C 0.95173 0.51077 0.04955 0.0
C466 C 0.05162 0.49234 0.0283 0.0
C467 C 0.03891 0.49765 0.02568 0.0
C468 C 0.00336 0.48865 0.026 0.0
C469 C 0.97511 0.51316 0.03555 0.0
C470 C 0.98869 0.50749 0.03497 0.0
C471 C 0.02785 0.49036 0.03728 0.0
C472 C 0.01437 0.4963 0.036 0.0
H473 H 0.95784 0.54054 0.00924 0.0
H474 H 0.98039 0.53178 0.01003 0.0
H475 H 0.98246 0.488 0.01741 0.0
H476 H 0.04377 0.46229 0.06439 0.0
H477 H 0.02158 0.4716 0.06021 0.0
C478 C 0.76093 0.80158 0.28728 0.0
C479 C 0.77404 0.80366 0.29878 0.0
C480 C 0.75564 0.78886 0.28572 0.0
C481 C 0.76464 0.75343 0.28304 0.0
H482 H 0.72881 0.74848 0.31823 0.0
C483 C 0.74252 0.70159 0.30444 0.0
C484 C 0.72945 0.69945 0.29271 0.0
C485 C 0.7478 0.71432 0.30581 0.0
C486 C 0.73877 0.74971 0.30793 0.0
H487 H 0.79194 0.79386 0.31688 0.0
H488 H 0.78265 0.77161 0.31438 0.0
H489 H 0.73855 0.77049 0.31845 0.0
H490 H 0.71159 0.70917 0.274 0.0
H491 H 0.72083 0.73145 0.27626 0.0
H492 H 0.76486 0.73264 0.27258 0.0
C493 C 0.7765 0.77986 0.30627 0.0
C494 C 0.74436 0.76234 0.30803 0.0
C495 C 0.78183 0.79262 0.3078 0.0
C496 C 0.72167 0.71045 0.28326 0.0
C497 C 0.72697 0.72322 0.28465 0.0
C498 C 0.75905 0.7408 0.28297 0.0
C499 C 0.76328 0.77785 0.29567 0.0
C500 C 0.75737 0.76437 0.29556 0.0
C501 C 0.74016 0.72529 0.29548 0.0
C502 C 0.74605 0.73877 0.29546 0.0
H503 H 0.75465 0.80982 0.27986 0.0
H504 H 0.74551 0.78767 0.27672 0.0
H505 H 0.7746 0.75466 0.27274 0.0
H506 H 0.7488 0.69338 0.31217 0.0
H507 H 0.7579 0.71556 0.31498 0.0
C508 C 0.45184 0.51039 0.53186 0.0
C509 C 0.44912 0.52265 0.54842 0.0
C510 C 0.46472 0.50547 0.53048 0.0
C511 C 0.49984 0.51509 0.53746 0.0
H512 H 0.50501 0.47783 0.55771 0.0
C513 C 0.55181 0.4928 0.5557 0.0
C514 C 0.55439 0.48046 0.53941 0.0
C515 C 0.53897 0.49778 0.55746 0.0
C516 C 0.50374 0.48822 0.55157 0.0
H517 H 0.45796 0.53947 0.57586 0.0
H518 H 0.48051 0.53082 0.57358 0.0
H519 H 0.48281 0.48712 0.55909 0.0
H520 H 0.54533 0.46359 0.51281 0.0
H521 H 0.52285 0.47235 0.51565 0.0
H522 H 0.52077 0.51618 0.52985 0.0
C523 C 0.47263 0.52507 0.56144 0.0
C524 C 0.491 0.49356 0.55238 0.0
C525 C 0.4597 0.53001 0.56284 0.0
C526 C 0.54371 0.4731 0.52563 0.0
C527 C 0.53081 0.47811 0.52736 0.0
C528 C 0.51259 0.50974 0.53662 0.0
C529 C 0.47526 0.51265 0.54564 0.0
C530 C 0.48888 0.50706 0.54525 0.0
C531 C 0.52831 0.4906 0.54293 0.0
C532 C 0.51471 0.49624 0.54368 0.0
H533 H 0.44399 0.50447 0.52019 0.0
H534 H 0.4664 0.49601 0.51744 0.0
H535 H 0.49856 0.52547 0.53133 0.0
H536 H 0.55975 0.49872 0.56688 0.0
H537 H 0.53739 0.50729 0.57032 0.0
C538 C 0.72243 0.2103 0.80446 0.0
C539 C 0.73027 0.19946 0.79412 0.0
C540 C 0.72757 0.22314 0.80344 0.0
C541 C 0.75946 0.24108 0.80435 0.0
H542 H 0.7383 0.27079 0.77215 0.0
C543 C 0.78129 0.29344 0.78178 0.0
C544 C 0.77345 0.30426 0.7923 0.0
C545 C 0.77617 0.2806 0.78265 0.0
C546 C 0.7443 0.26262 0.78164 0.0
H547 H 0.74955 0.19373 0.77342 0.0
H548 H 0.75838 0.21603 0.77121 0.0
H549 H 0.72886 0.24865 0.77139 0.0
H550 H 0.75417 0.30993 0.81315 0.0
H551 H 0.74537 0.28762 0.81509 0.0
H552 H 0.77491 0.25505 0.81459 0.0
C553 C 0.74835 0.21461 0.78082 0.0
C554 C 0.73888 0.24992 0.78118 0.0
C555 C 0.74324 0.20181 0.78184 0.0
C556 C 0.76049 0.30187 0.80459 0.0
C557 C 0.75539 0.28906 0.80546 0.0
C558 C 0.76489 0.25378 0.8048 0.0
C559 C 0.74066 0.22543 0.79206 0.0
C560 C 0.74639 0.23898 0.79251 0.0
C561 C 0.76309 0.27828 0.79405 0.0
C562 C 0.75737 0.26472 0.7935 0.0
H563 H 0.71242 0.20886 0.81416 0.0
H564 H 0.7214 0.23123 0.81256 0.0
H565 H 0.76547 0.23291 0.81385 0.0
H566 H 0.7913 0.29491 0.77206 0.0
H567 H 0.78235 0.27252 0.77342 0.0
C568 C 0.05261 0.51053 0.56179 0.0
C569 C 0.05494 0.52304 0.54631 0.0
C570 C 0.03987 0.50527 0.56311 0.0
C571 C 0.00442 0.51409 0.55676 0.0
H572 H 1.00023 0.47696 0.53333 0.0
C573 C 0.95314 0.49092 0.53347 0.0
C574 C 0.95066 0.47847 0.5492 0.0
C575 C 0.9659 0.49614 0.53273 0.0
C576 C 1.00123 0.4873 0.54033 0.0
H577 H 0.04556 0.53997 0.52085 0.0
H578 H 0.02327 0.53074 0.52291 0.0
H579 H 0.02222 0.48676 0.53362 0.0
H580 H 0.95982 0.46163 0.57572 0.0
H581 H 0.98216 0.47079 0.57454 0.0
H582 H 0.98342 0.51463 0.56335 0.0
C583 C 0.03133 0.52504 0.53434 0.0
C584 C 0.01385 0.49293 0.54053 0.0
C585 C 0.04412 0.53033 0.53307 0.0
C586 C 0.96137 0.47122 0.56332 0.0
C587 C 0.97418 0.47647 0.56256 0.0
C588 C 0.9918 0.50846 0.55652 0.0
C589 C 0.02908 0.51236 0.54892 0.0
C590 C 0.01561 0.5064 0.54876 0.0
C591 C 0.97656 0.48908 0.5477 0.0
C592 C 0.99004 0.495 0.54824 0.0
H593 H 0.06068 0.50465 0.57253 0.0
H594 H 0.03848 0.49561 0.57524 0.0
H595 H 0.00541 0.52443 0.56376 0.0
H596 H 0.94518 0.49677 0.52207 0.0
H597 H 0.96741 0.50576 0.5204 0.0
C598 C 0.76087 0.70221 0.77611 0.0
C599 C 0.77343 0.69984 0.79133 0.0
C600 C 0.75562 0.71496 0.77503 0.0
C601 C 0.76448 0.7504 0.78204 0.0
H602 H 0.72739 0.75456 0.80615 0.0
C603 C 0.74152 0.80157 0.80828 0.0
C604 C 0.72904 0.80422 0.79287 0.0
C605 C 0.74669 0.78879 0.80823 0.0
C606 C 0.73772 0.75357 0.79896 0.0
H607 H 0.79043 0.70917 0.81655 0.0
H608 H 0.78121 0.73145 0.81495 0.0
H609 H 0.73714 0.73256 0.80489 0.0
H610 H 0.71211 0.79533 0.76607 0.0
H611 H 0.72119 0.77296 0.76593 0.0
H612 H 0.76506 0.77143 0.7763 0.0
C613 C 0.77547 0.72342 0.80352 0.0
C614 C 0.74333 0.74094 0.79819 0.0
C615 C 0.78076 0.71063 0.80452 0.0
C616 C 0.72172 0.79366 0.77826 0.0
C617 C 0.72692 0.78082 0.77825 0.0
C618 C 0.75888 0.76303 0.78286 0.0
C619 C 0.76275 0.72572 0.78921 0.0
C620 C 0.75679 0.73919 0.78975 0.0
C621 C 0.73956 0.77827 0.79278 0.0
C622 C 0.74543 0.76478 0.79144 0.0
H623 H 0.75496 0.69417 0.76541 0.0
H624 H 0.74592 0.71638 0.76311 0.0
H625 H 0.77481 0.74943 0.77487 0.0
H626 H 0.74742 0.80942 0.82003 0.0
H627 H 0.75633 0.78716 0.82034 0.0
C628 C 0.55102 0.51191 0.02918 0.0
C629 C 0.55344 0.52404 0.0468 0.0
C630 C 0.5383 0.50661 0.02783 0.0
C631 C 0.50291 0.51496 0.03756 0.0
H632 H 0.49915 0.47736 0.05509 0.0
C633 C 0.45186 0.49083 0.05716 0.0
C634 C 0.44954 0.47863 0.03981 0.0
C635 C 0.46456 0.49617 0.05874 0.0
C636 C 0.50003 0.48784 0.04973 0.0
H637 H 0.54422 0.54025 0.07604 0.0
H638 H 0.52195 0.53094 0.07379 0.0
H639 H 0.52105 0.48736 0.05573 0.0
H640 H 0.45891 0.46236 0.01122 0.0
H641 H 0.48113 0.47175 0.01376 0.0
H642 H 0.48189 0.51543 0.0315 0.0
C643 C 0.52994 0.52558 0.06081 0.0
C644 C 0.51259 0.49359 0.05009 0.0
C645 C 0.54271 0.53091 0.06218 0.0
C646 C 0.46034 0.47174 0.02489 0.0
C647 C 0.47309 0.47712 0.02643 0.0
C648 C 0.49034 0.50921 0.03717 0.0
C649 C 0.52762 0.51327 0.04406 0.0
C650 C 0.5142 0.50722 0.04395 0.0
C651 C 0.47532 0.48949 0.04296 0.0
C652 C 0.48873 0.49557 0.04328 0.0
H653 H 0.559 0.50637 0.01676 0.0
H654 H 0.53684 0.49725 0.01404 0.0
H655 H 0.50379 0.52544 0.03221 0.0
H656 H 0.44382 0.49638 0.06923 0.0
H657 H 0.46594 0.50557 0.07235 0.0
C658 C 0.74182 0.30194 0.28147 0.0
C659 C 0.72898 0.3043 0.29473 0.0
C660 C 0.74701 0.28917 0.28066 0.0
C661 C 0.73784 0.25381 0.28355 0.0
H662 H 0.77424 0.24918 0.31425 0.0
C663 C 0.76025 0.20216 0.30669 0.0
C664 C 0.7731 0.19987 0.29345 0.0
C665 C 0.75501 0.21491 0.30768 0.0
C666 C 0.76411 0.2503 0.30523 0.0
H667 H 0.71142 0.29493 0.31672 0.0
H668 H 0.72053 0.27259 0.31548 0.0
H669 H 0.76459 0.27122 0.31336 0.0
H670 H 0.79064 0.20934 0.27165 0.0
H671 H 0.78146 0.23164 0.27318 0.0
H672 H 0.73737 0.2329 0.27539 0.0
C673 C 0.72654 0.28066 0.30545 0.0
C674 C 0.75857 0.26295 0.30469 0.0
C675 C 0.72133 0.29348 0.30625 0.0
C676 C 0.78072 0.21074 0.28211 0.0
C677 C 0.77546 0.22353 0.28308 0.0
C678 C 0.74339 0.24116 0.28408 0.0
C679 C 0.73952 0.27838 0.29311 0.0
C680 C 0.74537 0.26488 0.29379 0.0
C681 C 0.76247 0.22575 0.29543 0.0
C682 C 0.7566 0.23924 0.29494 0.0
H683 H 0.74799 0.31001 0.27212 0.0
H684 H 0.75694 0.28775 0.27029 0.0
H685 H 0.72771 0.25495 0.27452 0.0
H686 H 0.75411 0.19405 0.3159 0.0
H687 H 0.74508 0.21628 0.31804 0.0
C688 C 0.26024 0.30101 0.78384 0.0
C689 C 0.27328 0.3031 0.79589 0.0
C690 C 0.25492 0.2883 0.78244 0.0
C691 C 0.26391 0.25284 0.78133 0.0
H692 H 0.22785 0.24801 0.81479 0.0
C693 C 0.24183 0.20108 0.80399 0.0
C694 C 0.22887 0.19881 0.79156 0.0
C695 C 0.24703 0.21385 0.80507 0.0
C696 C 0.23788 0.24921 0.80498 0.0
H697 H 0.29104 0.29333 0.81519 0.0
H698 H 0.28171 0.27111 0.81297 0.0
H699 H 0.23757 0.27004 0.81468 0.0
H700 H 0.2111 0.20831 0.77138 0.0
H701 H 0.22021 0.23066 0.77316 0.0
H702 H 0.26423 0.232 0.77173 0.0
C703 C 0.27564 0.27934 0.80429 0.0
C704 C 0.24346 0.26184 0.80488 0.0
C705 C 0.28098 0.29209 0.80566 0.0
C706 C 0.2211 0.2097 0.78118 0.0
C707 C 0.22632 0.22252 0.78228 0.0
C708 C 0.25834 0.24021 0.78146 0.0
C709 C 0.26248 0.2773 0.79309 0.0
C710 C 0.25655 0.26383 0.79306 0.0
C711 C 0.23942 0.22472 0.79376 0.0
C712 C 0.24526 0.23822 0.79337 0.0
H713 H 0.25403 0.30923 0.77586 0.0
H714 H 0.24485 0.28709 0.77298 0.0
H715 H 0.27394 0.25402 0.77151 0.0
H716 H 0.24809 0.19296 0.81246 0.0
H717 H 0.25705 0.2152 0.81476 0.0
C718 C 0.2606 0.80025 0.30745 0.0
C719 C 0.27335 0.80268 0.29362 0.0
C720 C 0.25539 0.78748 0.30785 0.0
C721 C 0.26451 0.75212 0.30205 0.0
H722 H 0.22782 0.74778 0.27379 0.0
C723 C 0.24201 0.70072 0.27627 0.0
C724 C 0.22935 0.69821 0.29058 0.0
C725 C 0.24716 0.71351 0.27583 0.0
C726 C 0.23803 0.74882 0.28212 0.0
H727 H 0.29073 0.79345 0.27015 0.0
H728 H 0.28159 0.77113 0.27061 0.0
H729 H 0.23748 0.76981 0.27561 0.0
H730 H 0.21203 0.70734 0.31475 0.0
H731 H 0.22107 0.72971 0.31411 0.0
H732 H 0.26507 0.73113 0.3085 0.0
C733 C 0.27567 0.77913 0.28146 0.0
C734 C 0.24359 0.76147 0.2832 0.0
C735 C 0.2809 0.79194 0.28111 0.0
C736 C 0.2218 0.70891 0.30345 0.0
C737 C 0.22697 0.72175 0.30301 0.0
C738 C 0.25896 0.73948 0.30094 0.0
C739 C 0.26277 0.77678 0.29437 0.0
C740 C 0.2569 0.76328 0.29321 0.0
C741 C 0.23981 0.72417 0.2897 0.0
C742 C 0.24566 0.73766 0.29092 0.0
H743 H 0.25452 0.80826 0.31757 0.0
H744 H 0.24555 0.78601 0.3187 0.0
H745 H 0.27473 0.75316 0.3104 0.0
H746 H 0.24809 0.69276 0.26586 0.0
H747 H 0.25696 0.71504 0.26469 0.0
C748 C 0.28158 0.2106 0.30474 0.0
C749 C 0.27412 0.19978 0.2923 0.0
C750 C 0.27631 0.22339 0.30378 0.0
C751 C 0.24417 0.24096 0.30032 0.0
H752 H 0.26568 0.27128 0.27517 0.0
C753 C 0.2223 0.29346 0.27903 0.0
C754 C 0.22977 0.30418 0.29214 0.0
C755 C 0.22752 0.28064 0.27952 0.0
C756 C 0.25956 0.26294 0.28267 0.0
H757 H 0.25541 0.19406 0.26784 0.0
H758 H 0.24638 0.21628 0.26567 0.0
H759 H 0.27541 0.24927 0.2741 0.0
H760 H 0.24844 0.30967 0.31723 0.0
H761 H 0.25739 0.28742 0.31848 0.0
H762 H 0.22832 0.25464 0.30887 0.0
C763 C 0.25618 0.21488 0.27693 0.0
C764 C 0.26515 0.25031 0.28204 0.0
C765 C 0.26142 0.20212 0.27794 0.0
C766 C 0.24242 0.3017 0.30664 0.0
C767 C 0.24761 0.28892 0.30712 0.0
C768 C 0.23858 0.2536 0.30092 0.0
C769 C 0.26346 0.22566 0.29033 0.0
C770 C 0.25754 0.23915 0.29087 0.0
C771 C 0.24033 0.27825 0.29311 0.0
C772 C 0.24621 0.26475 0.29219 0.0
H773 H 0.29136 0.20916 0.3161 0.0
H774 H 0.28216 0.23145 0.31458 0.0
H775 H 0.23806 0.23262 0.30788 0.0
H776 H 0.21255 0.29501 0.26758 0.0
H777 H 0.22167 0.27266 0.26829 0.0
C778 C 0.28211 0.71056 0.78195 0.0
C779 C 0.27435 0.69957 0.79148 0.0
C780 C 0.27684 0.72334 0.78362 0.0
C781 C 0.24475 0.74095 0.78309 0.0
H782 H 0.2655 0.77066 0.81719 0.0
C783 C 0.22229 0.79297 0.80742 0.0
C784 C 0.23004 0.8039 0.7974 0.0
C785 C 0.22756 0.78017 0.80626 0.0
C786 C 0.25961 0.76249 0.80719 0.0
H787 H 0.25508 0.69349 0.81147 0.0
H788 H 0.24603 0.71568 0.81484 0.0
H789 H 0.27519 0.74862 0.817 0.0
H790 H 0.24933 0.80986 0.77722 0.0
H791 H 0.25838 0.78766 0.7748 0.0
H792 H 0.22918 0.75483 0.77327 0.0
C793 C 0.25609 0.71444 0.80534 0.0
C794 C 0.26517 0.74985 0.8071 0.0
C795 C 0.26134 0.7017 0.80365 0.0
C796 C 0.24307 0.8017 0.78539 0.0
C797 C 0.24832 0.78896 0.78424 0.0
C798 C 0.23918 0.7536 0.7832 0.0
C799 C 0.26369 0.72542 0.79487 0.0
C800 C 0.25781 0.73891 0.79506 0.0
C801 C 0.2407 0.77804 0.79508 0.0
C802 C 0.24655 0.76454 0.79518 0.0
H803 H 0.29216 0.70928 0.77235 0.0
H804 H 0.28295 0.73156 0.7751 0.0
H805 H 0.23886 0.73279 0.77304 0.0
H806 H 0.21224 0.79429 0.81691 0.0
H807 H 0.22144 0.772 0.81506 0.0
C808 C 0.45985 0.03098 0.52641 0.0
C809 C 0.44939 0.02439 0.54398 0.0
C810 C 0.47271 0.02585 0.5277 0.0
C811 C 0.49065 0.99437 0.54391 0.0
H812 H 0.5213 0.01709 0.5521 0.0
C813 C 0.54397 0.9742 0.56485 0.0
C814 C 0.55413 0.98066 0.5456 0.0
C815 C 0.53108 0.97931 0.5648 0.0
C816 C 0.51285 0.0106 0.54943 0.0
H817 H 0.44443 0.00748 0.57798 0.0
H818 H 0.46674 0.99875 0.58074 0.0
H819 H 0.49926 0.02677 0.55238 0.0
H820 H 0.55851 0.99735 0.51017 0.0
H821 H 0.5362 0.00608 0.50982 0.0
H822 H 0.50427 0.9782 0.54101 0.0
C823 C 0.46501 0.0077 0.56517 0.0
C824 C 0.5002 0.01617 0.54956 0.0
C825 C 0.45219 0.01278 0.56378 0.0
C826 C 0.551 0.99214 0.5256 0.0
C827 C 0.53819 0.99723 0.52558 0.0
C828 C 0.50331 0.9888 0.54385 0.0
C829 C 0.47541 0.01403 0.54669 0.0
C830 C 0.48892 0.00813 0.54674 0.0
C831 C 0.52809 0.991 0.54554 0.0
C832 C 0.51457 0.99685 0.54645 0.0
H833 H 0.45805 0.03991 0.5108 0.0
H834 H 0.48046 0.03095 0.51292 0.0
H835 H 0.48222 0.98788 0.54107 0.0
H836 H 0.54601 0.96536 0.58061 0.0
H837 H 0.52354 0.9743 0.58063 0.0
C838 C 0.96141 0.03241 0.06503 0.0
C839 C 0.95046 0.02477 0.05448 0.0
C840 C 0.97423 0.02721 0.06292 0.0
C841 C 0.99378 1.00024 0.01981 0.0
H842 H 0.01804 0.00667 0.10021 0.0
C843 C 0.04333 0.97215 0.0331 0.0
C844 C 0.05444 0.97974 0.04257 0.0
C845 C 0.03061 0.97754 0.03536 0.0
C846 C 0.01143 0.00487 0.07737 0.0
H847 H 0.94448 0.0057 0.0328 0.0
H848 H 0.96665 0.99668 0.02952 0.0
H849 H 0.99616 0.01676 0.1011 0.0
H850 H 0.06081 0.99888 0.06275 0.0
H851 H 0.03874 0.00823 0.06653 0.0
H852 H 0.00903 0.98831 0.99616 0.0
C853 C 0.96542 0.00674 0.03902 0.0
C854 C 0.99889 0.0107 0.07783 0.0
C855 C 0.95266 0.01191 0.04113 0.0
C856 C 0.0525 0.99273 0.05521 0.0
C857 C 0.03981 0.99809 0.05758 0.0
C858 C 0.0063 0.9944 0.0194 0.0
C859 C 0.97637 0.01426 0.05014 0.0
C860 C 0.98989 0.00844 0.04908 0.0
C861 C 0.02871 0.99063 0.0473 0.0
C862 C 0.01528 0.99663 0.04819 0.0
H863 H 0.96009 0.04234 0.07539 0.0
H864 H 0.98246 0.03334 0.07126 0.0
H865 H 0.98719 0.99844 0.99692 0.0
H866 H 0.04445 0.96212 0.02329 0.0
H867 H 0.02225 0.97147 0.02769 0.0
C868 C 0.55195 0.01014 0.04558 0.0
C869 C 0.55392 0.02283 0.03077 0.0
C870 C 0.53927 0.00482 0.04852 0.0
C871 C 0.50379 0.01368 0.04921 0.0
H872 H 0.49893 0.97676 0.02434 0.0
C873 C 0.45204 0.99091 0.03284 0.0
C874 C 0.44979 0.97836 0.04816 0.0
C875 C 0.4648 0.99608 0.03051 0.0
C876 C 0.50014 0.98704 0.03178 0.0
H877 H 0.54398 0.03994 0.00803 0.0
H878 H 0.5218 0.03058 0.01288 0.0
H879 H 0.52092 0.98652 0.02118 0.0
H880 H 0.45934 0.96126 0.0723 0.0
H881 H 0.48169 0.97033 0.0683 0.0
H882 H 0.483 0.01421 0.05967 0.0
C883 C 0.53011 0.02481 0.02255 0.0
C884 C 0.51275 0.99265 0.02998 0.0
C885 C 0.54283 0.03016 0.01965 0.0
C886 C 0.46071 0.97095 0.06028 0.0
C887 C 0.47352 0.97614 0.0579 0.0
C888 C 0.49118 0.00808 0.05096 0.0
C889 C 0.52819 0.012 0.03667 0.0
C890 C 0.51474 0.00605 0.03865 0.0
C891 C 0.47569 0.98885 0.04343 0.0
C892 C 0.48918 0.9947 0.04215 0.0
H893 H 0.56024 0.00422 0.0547 0.0
H894 H 0.53816 0.99505 0.06019 0.0
H895 H 0.50498 0.02397 0.05666 0.0
H896 H 0.44391 0.99689 0.02295 0.0
H897 H 0.46612 0.00578 0.01853 0.0
C898 C 0.05168 0.01072 0.52224 0.0
C899 C 0.05421 0.02299 0.53894 0.0
C900 C 0.03887 0.00561 0.5208 0.0
C901 C 0.00352 0.01475 0.53024 0.0
H902 H 0.999 0.97734 0.5493 0.0
C903 C 0.95235 0.99222 0.55794 0.0
C904 C 0.94921 0.98017 0.54072 0.0
C905 C 0.96523 0.99712 0.55739 0.0
C906 C 1.0001 0.98777 0.54352 0.0
H907 H 0.04511 0.03964 0.56654 0.0
H908 H 0.02275 0.03066 0.56441 0.0
H909 H 0.02115 0.9868 0.54817 0.0
H910 H 0.95736 0.96369 0.51023 0.0
H911 H 0.97995 0.97229 0.5093 0.0
H912 H 0.98246 0.01573 0.52595 0.0
C913 C 0.03069 0.02504 0.55201 0.0
C914 C 0.01281 0.99321 0.54282 0.0
C915 C 0.04353 0.03019 0.55333 0.0
C916 C 0.95941 0.97297 0.52381 0.0
C917 C 0.97236 0.97789 0.52333 0.0
C918 C 0.99083 0.00932 0.53105 0.0
C919 C 0.02822 0.0126 0.53614 0.0
C920 C 0.01469 0.00679 0.53627 0.0
C921 C 0.97537 0.99013 0.53966 0.0
C922 C 0.98895 0.99577 0.53789 0.0
H923 H 0.05965 0.00493 0.51059 0.0
H924 H 0.03733 0.99614 0.50768 0.0
H925 H 0.00459 0.02519 0.52449 0.0
H926 H 0.9448 0.99802 0.5715 0.0
H927 H 0.96724 0.00643 0.57089 0.0
C928 C 0.11367 0.5005 0.94006 0.0
C929 C 0.11131 0.4872 0.949 0.0
C930 C 0.11602 0.50427 0.90374 0.0
C931 C 0.12425 0.49179 0.81051 0.0
H932 H 0.10425 0.52239 0.7787 0.0
C933 C 0.1127 0.50274 0.65818 0.0
C934 C 0.11177 0.51594 0.64647 0.0
C935 C 0.11493 0.49971 0.6951 0.0
C936 C 0.11012 0.51398 0.78714 0.0
H937 H 0.1102 0.46735 0.92696 0.0
H938 H 0.11421 0.47396 0.8634 0.0
H939 H 0.10408 0.51608 0.84306 0.0
H940 H 0.11309 0.53633 0.6642 0.0
H941 H 0.11719 0.53105 0.72867 0.0
H942 H 0.13008 0.48958 0.75429 0.0
C943 C 0.11434 0.48146 0.88457 0.0
C944 C 0.11001 0.51034 0.82415 0.0
C945 C 0.112 0.47767 0.92101 0.0
C946 C 0.11371 0.52606 0.67232 0.0
C947 C 0.11595 0.52302 0.70933 0.0
C948 C 0.12438 0.49546 0.77342 0.0
C949 C 0.11604 0.49486 0.87538 0.0
C950 C 0.11695 0.49912 0.83628 0.0
C951 C 0.1163 0.50981 0.72133 0.0
C952 C 0.11718 0.50651 0.76118 0.0
H953 H 0.11331 0.50809 0.96097 0.0
H954 H 0.11755 0.51464 0.89778 0.0
H955 H 0.12984 0.4832 0.81899 0.0
H956 H 0.11125 0.49469 0.63903 0.0
H957 H 0.11499 0.48944 0.70329 0.0
C958 C 0.75063 0.86034 0.91205 0.0
C959 C 0.73738 0.85983 0.9005 0.0
C960 C 0.75379 0.8625 0.94893 0.0
C961 C 0.73963 0.85847 0.04145 0.0
H962 H 0.77081 0.8778 0.07201 0.0
C963 C 0.75327 0.863 0.19418 0.0
C964 C 0.76655 0.86061 0.20331 0.0
C965 C 0.74951 0.86504 0.1577 0.0
C966 C 0.76211 0.87231 0.0639 0.0
H967 H 0.71707 0.86174 0.91853 0.0
H968 H 0.72259 0.86567 0.98294 0.0
H969 H 0.76438 0.87769 0.00736 0.0
H970 H 0.78639 0.85908 0.18132 0.0
H971 H 0.77981 0.86254 0.1175 0.0
H972 H 0.73746 0.85287 0.09772 0.0
C973 C 0.73054 0.86419 0.96349 0.0
C974 C 0.75841 0.87225 0.02683 0.0
C975 C 0.72737 0.86203 0.92652 0.0
C976 C 0.77608 0.86093 0.17525 0.0
C977 C 0.7723 0.86295 0.13864 0.0
C978 C 0.74331 0.85854 0.07845 0.0
C979 C 0.74379 0.86421 0.97529 0.0
C980 C 0.7472 0.8652 0.01506 0.0
C981 C 0.75892 0.86471 0.12932 0.0
C982 C 0.75466 0.86536 0.09015 0.0
H983 H 0.7586 0.85868 0.89278 0.0
H984 H 0.76409 0.86229 0.95697 0.0
H985 H 0.73108 0.85273 0.03339 0.0
H986 H 0.74568 0.86292 0.21513 0.0
H987 H 0.73915 0.86663 0.15164 0.0
C988 C 0.3902 0.4998 0.1505 0.0
C989 C 0.39253 0.48652 0.14133 0.0
C990 C 0.38783 0.50349 0.18685 0.0
C991 C 0.37967 0.49078 0.27989 0.0
H992 H 0.39962 0.52136 0.31194 0.0
C993 C 0.39181 0.50137 0.43195 0.0
C994 C 0.39259 0.51455 0.44391 0.0
C995 C 0.38943 0.49842 0.39506 0.0
C996 C 0.39376 0.51295 0.30343 0.0
H997 H 0.39359 0.46661 0.16295 0.0
H998 H 0.3896 0.47307 0.22664 0.0
H999 H 0.39972 0.51519 0.24751 0.0
H1000 H 0.39083 0.53497 0.42675 0.0
H1001 H 0.38651 0.52982 0.3623 0.0
H1002 H 0.37396 0.48841 0.33616 0.0
C1003 C 0.38948 0.48063 0.20561 0.0
C1004 C 0.39383 0.50939 0.26638 0.0
C1005 C 0.39181 0.47692 0.16911 0.0
C1006 C 0.39034 0.52472 0.41841 0.0
C1007 C 0.38796 0.52176 0.38143 0.0
C1008 C 0.37959 0.49436 0.31703 0.0
C1009 C 0.38779 0.49401 0.21502 0.0
C1010 C 0.38691 0.49818 0.25416 0.0
C1011 C 0.38775 0.50858 0.36917 0.0
C1012 C 0.38677 0.5054 0.32932 0.0
H1013 H 0.39056 0.50744 0.12971 0.0
H1014 H 0.38629 0.51384 0.19298 0.0
H1015 H 0.37409 0.48219 0.27134 0.0
H1016 H 0.39348 0.49329 0.45085 0.0
H1017 H 0.38948 0.48817 0.38662 0.0
C1018 C 0.75205 0.1404 0.68702 0.0
C1019 C 0.73871 0.14247 0.69614 0.0
C1020 C 0.75582 0.13818 0.65065 0.0
C1021 C 0.74337 0.12973 0.55755 0.0
H1022 H 0.77346 0.1504 0.52545 0.0
C1023 C 0.75379 0.14162 0.40517 0.0
C1024 C 0.76694 0.14287 0.39331 0.0
C1025 C 0.75087 0.13929 0.44211 0.0
C1026 C 0.7652 0.14435 0.53396 0.0
H1027 H 0.7188 0.14319 0.67433 0.0
H1028 H 0.72539 0.1394 0.61066 0.0
H1029 H 0.76726 0.1504 0.58988 0.0
H1030 H 0.7874 0.14198 0.41077 0.0
H1031 H 0.78232 0.1377 0.47526 0.0
H1032 H 0.74119 0.12388 0.50134 0.0
C1033 C 0.73294 0.13941 0.63174 0.0
C1034 C 0.76162 0.14436 0.57101 0.0
C1035 C 0.72915 0.14162 0.66824 0.0
C1036 C 0.77715 0.14113 0.41901 0.0
C1037 C 0.77423 0.13877 0.45603 0.0
C1038 C 0.74697 0.12969 0.52042 0.0
C1039 C 0.74636 0.13798 0.6224 0.0
C1040 C 0.75057 0.13718 0.58325 0.0
C1041 C 0.76105 0.13811 0.46819 0.0
C1042 C 0.75785 0.13714 0.50807 0.0
H1043 H 0.75967 0.14088 0.70786 0.0
H1044 H 0.76621 0.13686 0.64455 0.0
H1045 H 0.73491 0.12395 0.56612 0.0
H1046 H 0.74567 0.14291 0.38613 0.0
H1047 H 0.74061 0.13899 0.45042 0.0
C1048 C 0.89117 0.5251 0.1681 0.0
C1049 C 0.89328 0.51498 0.14235 0.0
C1050 C 0.88904 0.52207 0.20515 0.0
C1051 C 0.88103 0.49455 0.26953 0.0
H1052 H 0.90135 0.51535 0.33867 0.0
C1053 C 0.89337 0.47711 0.41745 0.0
C1054 C 0.89412 0.48672 0.44521 0.0
C1055 C 0.89108 0.48081 0.38092 0.0
C1056 C 0.89542 0.50956 0.31991 0.0
H1057 H 0.89421 0.49373 0.13511 0.0
H1058 H 0.89063 0.4885 0.19948 0.0
H1059 H 0.90104 0.52157 0.27425 0.0
H1060 H 0.89227 0.50766 0.4567 0.0
H1061 H 0.88807 0.51405 0.39337 0.0
H1062 H 0.87566 0.48237 0.3153 0.0
C1063 C 0.8905 0.49876 0.19116 0.0
C1064 C 0.89523 0.51315 0.28287 0.0
C1065 C 0.89264 0.50178 0.1542 0.0
C1066 C 0.89189 0.50001 0.43594 0.0
C1067 C 0.88956 0.50369 0.39956 0.0
C1068 C 0.88122 0.49095 0.30666 0.0
C1069 C 0.88894 0.50887 0.21726 0.0
C1070 C 0.88815 0.50562 0.25711 0.0
C1071 C 0.88946 0.4942 0.37143 0.0
C1072 C 0.88852 0.49835 0.33226 0.0
H1073 H 0.89156 0.53536 0.15986 0.0
H1074 H 0.88767 0.53009 0.22444 0.0
H1075 H 0.87534 0.48862 0.2505 0.0
H1076 H 0.89507 0.4668 0.42368 0.0
H1077 H 0.89116 0.47324 0.35994 0.0
C1078 C 0.24912 0.14101 0.90223 0.0
C1079 C 0.23591 0.14216 0.89076 0.0
C1080 C 0.25222 0.13893 0.9392 0.0
C1081 C 0.23832 0.1446 0.03133 0.0
H1082 H 0.26864 0.12424 0.06353 0.0
C1083 C 0.2518 0.14109 0.18435 0.0
C1084 C 0.26518 0.14296 0.19334 0.0
C1085 C 0.24795 0.13887 0.14803 0.0
C1086 C 0.26018 0.13002 0.05496 0.0
H1087 H 0.21554 0.14139 0.90901 0.0
H1088 H 0.22093 0.13757 0.97355 0.0
H1089 H 0.26216 0.12389 0.99891 0.0
H1090 H 0.28506 0.14339 0.17131 0.0
H1091 H 0.27833 0.13962 0.10774 0.0
H1092 H 0.23646 0.15093 0.08707 0.0
C1093 C 0.22892 0.13851 0.95397 0.0
C1094 C 0.25646 0.12982 0.01791 0.0
C1095 C 0.22583 0.1406 0.91693 0.0
C1096 C 0.27468 0.14197 0.16534 0.0
C1097 C 0.27081 0.13976 0.12889 0.0
C1098 C 0.24203 0.14479 0.0683 0.0
C1099 C 0.24217 0.13794 0.96571 0.0
C1100 C 0.24555 0.13722 0.00554 0.0
C1101 C 0.25736 0.1385 0.11968 0.0
C1102 C 0.25308 0.1376 0.08057 0.0
H1103 H 0.25715 0.14217 0.88284 0.0
H1104 H 0.26252 0.13869 0.94717 0.0
H1105 H 0.23004 0.15063 0.02279 0.0
H1106 H 0.24422 0.14169 0.20527 0.0
H1107 H 0.23754 0.13767 0.14207 0.0
C1108 C 0.61146 0.50453 0.93081 0.0
C1109 C 0.61035 0.51767 0.94294 0.0
C1110 C 0.61399 0.50171 0.89394 0.0
C1111 C 0.60949 0.51627 0.80241 0.0
H1112 H 0.62987 0.48596 0.77037 0.0
C1113 C 0.61335 0.50316 0.64947 0.0
C1114 C 0.61129 0.48983 0.64039 0.0
C1115 C 0.61566 0.50692 0.6858 0.0
C1116 C 0.6241 0.49442 0.7789 0.0
H1117 H 0.61166 0.53815 0.9261 0.0
H1118 H 0.61623 0.53322 0.86164 0.0
H1119 H 0.6298 0.49215 0.83522 0.0
H1120 H 0.61067 0.46992 0.66214 0.0
H1121 H 0.61455 0.4765 0.72576 0.0
H1122 H 0.60353 0.5184 0.74644 0.0
C1123 C 0.61493 0.5251 0.88064 0.0
C1124 C 0.62406 0.49798 0.81605 0.0
C1125 C 0.61241 0.52793 0.91762 0.0
C1126 C 0.61223 0.48026 0.66823 0.0
C1127 C 0.6145 0.48404 0.70469 0.0
C1128 C 0.60953 0.51273 0.76535 0.0
C1129 C 0.61547 0.51194 0.86821 0.0
C1130 C 0.61661 0.50885 0.82834 0.0
C1131 C 0.61591 0.49746 0.71402 0.0
C1132 C 0.61671 0.50167 0.75315 0.0
H1133 H 0.60995 0.49637 0.94958 0.0
H1134 H 0.61419 0.49147 0.88536 0.0
H1135 H 0.60344 0.52454 0.81091 0.0
H1136 H 0.61282 0.51077 0.62864 0.0
H1137 H 0.61698 0.5173 0.69188 0.0
C1138 C 0.25115 0.86248 0.68863 0.0
C1139 C 0.23784 0.86038 0.69795 0.0
C1140 C 0.25487 0.86448 0.65211 0.0
C1141 C 0.24228 0.87227 0.55871 0.0
H1142 H 0.27266 0.85186 0.52739 0.0
C1143 C 0.25313 0.86029 0.40653 0.0
C1144 C 0.26634 0.85927 0.39487 0.0
C1145 C 0.2501 0.86255 0.44344 0.0
C1146 C 0.26431 0.85784 0.53568 0.0
H1147 H 0.21792 0.85934 0.6763 0.0
H1148 H 0.22443 0.86275 0.61239 0.0
H1149 H 0.26641 0.85203 0.5918 0.0
H1150 H 0.28673 0.86043 0.41271 0.0
H1151 H 0.28145 0.86458 0.47714 0.0
H1152 H 0.24007 0.87789 0.50231 0.0
C1153 C 0.23199 0.86294 0.63342 0.0
C1154 C 0.2607 0.85792 0.57271 0.0
C1155 C 0.22825 0.86095 0.67006 0.0
C1156 C 0.27646 0.86112 0.42077 0.0
C1157 C 0.27342 0.8634 0.45777 0.0
C1158 C 0.24591 0.87221 0.52159 0.0
C1159 C 0.24539 0.86441 0.62391 0.0
C1160 C 0.24957 0.86504 0.58469 0.0
C1161 C 0.2602 0.86387 0.4697 0.0
C1162 C 0.25689 0.86487 0.50953 0.0
H1163 H 0.25879 0.86221 0.70944 0.0
H1164 H 0.26524 0.86585 0.64588 0.0
H1165 H 0.23375 0.87799 0.56706 0.0
H1166 H 0.24508 0.85891 0.38734 0.0
H1167 H 0.23982 0.8627 0.45157 0.0
C1168 C 0.61392 0.00324 0.13753 0.0
C1169 C 0.61113 0.01641 0.1281 0.0
C1170 C 0.6161 0.99967 0.17408 0.0
C1171 C 0.62272 0.01279 0.26766 0.0
H1172 H 0.60358 0.98152 0.29844 0.0
C1173 C 0.60941 0.00214 0.41881 0.0
C1174 C 0.6092 0.98899 0.43118 0.0
C1175 C 0.61189 0.00506 0.38197 0.0
C1176 C 0.6092 0.99013 0.2903 0.0
H1177 H 0.60907 0.03627 0.14949 0.0
H1178 H 0.61272 0.03002 0.21346 0.0
H1179 H 0.60403 0.98756 0.23388 0.0
H1180 H 0.61195 0.96861 0.41474 0.0
H1181 H 0.61641 0.97371 0.35031 0.0
H1182 H 0.62763 0.01549 0.32439 0.0
C1183 C 0.61336 0.02246 0.19252 0.0
C1184 C 0.60946 0.99361 0.25319 0.0
C1185 C 0.61122 0.02605 0.15584 0.0
C1186 C 0.61199 0.97884 0.40607 0.0
C1187 C 0.61447 0.98176 0.36911 0.0
C1188 C 0.62247 0.0093 0.30485 0.0
C1189 C 0.61547 0.00917 0.20217 0.0
C1190 C 0.61609 0.00506 0.24142 0.0
C1191 C 0.61423 0.9949 0.3565 0.0
C1192 C 0.61556 0.99802 0.31669 0.0
H1193 H 0.61404 0.99558 0.11679 0.0
H1194 H 0.61798 0.9894 0.18042 0.0
H1195 H 0.62807 0.02157 0.25948 0.0
H1196 H 0.6073 0.01022 0.43741 0.0
H1197 H 0.61146 0.01527 0.37323 0.0
C1198 C 0.25048 0.36107 0.40762 0.0
C1199 C 0.23726 0.36031 0.39591 0.0
C1200 C 0.25354 0.36319 0.44457 0.0
C1201 C 0.23926 0.35853 0.53672 0.0
H1202 H 0.27016 0.37808 0.56842 0.0
C1203 C 0.25262 0.36246 0.68974 0.0
C1204 C 0.26591 0.36012 0.69892 0.0
C1205 C 0.24889 0.36465 0.6533 0.0
C1206 C 0.26154 0.37253 0.55999 0.0
H1207 H 0.21689 0.3618 0.41371 0.0
H1208 H 0.22223 0.3657 0.47824 0.0
H1209 H 0.26382 0.37825 0.5037 0.0
H1210 H 0.28579 0.35885 0.6771 0.0
H1211 H 0.27927 0.36258 0.61333 0.0
H1212 H 0.23708 0.35262 0.59273 0.0
C1213 C 0.23024 0.36442 0.45886 0.0
C1214 C 0.25789 0.37262 0.52288 0.0
C1215 C 0.22717 0.36228 0.42182 0.0
C1216 C 0.27547 0.36064 0.67098 0.0
C1217 C 0.27173 0.36282 0.63441 0.0
C1218 C 0.24288 0.35846 0.57375 0.0
C1219 C 0.24347 0.36463 0.47084 0.0
C1220 C 0.24679 0.3655 0.51069 0.0
C1221 C 0.25834 0.36453 0.62503 0.0
C1222 C 0.25414 0.36534 0.58585 0.0
H1223 H 0.25852 0.35959 0.38842 0.0
H1224 H 0.26383 0.36314 0.45273 0.0
H1225 H 0.23081 0.35272 0.52833 0.0
H1226 H 0.245 0.36222 0.71059 0.0
H1227 H 0.23854 0.36619 0.64718 0.0
C1228 C 0.89298 0.02674 0.92698 0.0
C1229 C 0.89345 0.01716 0.95486 0.0
C1230 C 0.89072 0.02304 0.89045 0.0
C1231 C 0.89477 0.99415 0.82991 0.0
H1232 H 0.8756 0.01553 0.75951 0.0
C1233 C 0.89135 0.97895 0.67756 0.0
C1234 C 0.89382 0.98908 0.65212 0.0
C1235 C 0.88904 0.98193 0.71457 0.0
C1236 C 0.88104 0.00947 0.77882 0.0
H1237 H 0.89109 0.99629 0.96656 0.0
H1238 H 0.88694 0.9899 0.9032 0.0
H1239 H 0.87558 0.02174 0.82432 0.0
H1240 H 0.89526 0.01032 0.64535 0.0
H1241 H 0.89137 0.01547 0.70961 0.0
H1242 H 0.9005 0.98206 0.78451 0.0
C1243 C 0.88863 1.00023 0.90931 0.0
C1244 C 0.88103 0.01304 0.81596 0.0
C1245 C 0.89093 0.00391 0.94571 0.0
C1246 C 0.8934 0.00226 0.6642 0.0
C1247 C 0.89108 0.00523 0.7011 0.0
C1248 C 0.89478 0.99059 0.79285 0.0
C1249 C 0.88885 0.00968 0.88107 0.0
C1250 C 0.88802 0.0055 0.84191 0.0
C1251 C 0.88912 0.9951 0.7269 0.0
C1252 C 0.88806 0.99829 0.76674 0.0
H1253 H 0.89491 0.03702 0.93311 0.0
H1254 H 0.89105 0.03058 0.86938 0.0
H1255 H 0.90047 0.98824 0.84897 0.0
H1256 H 0.89157 0.96869 0.66913 0.0
H1257 H 0.88738 0.97389 0.73363 0.0
C1258 C 0.27571 0.64146 0.91443 0.0
C1259 C 0.26622 0.64219 0.88633 0.0
C1260 C 0.27186 0.63918 0.95085 0.0
C1261 C 0.24291 0.64366 0.01104 0.0
H1262 H 0.26353 0.62351 0.08107 0.0
C1263 C 0.22697 0.63982 0.16274 0.0
C1264 C 0.23706 0.64172 0.18872 0.0
C1265 C 0.23006 0.63764 0.12573 0.0
C1266 C 0.25769 0.62923 0.06189 0.0
H1267 H 0.24532 0.64036 0.87417 0.0
H1268 H 0.23866 0.63621 0.93734 0.0
H1269 H 0.26998 0.62374 0.01644 0.0
H1270 H 0.25831 0.64225 0.19638 0.0
H1271 H 0.26365 0.6386 0.13212 0.0
H1272 H 0.23081 0.64943 0.05639 0.0
C1273 C 0.24905 0.63767 0.93147 0.0
C1274 C 0.2614 0.62936 0.02484 0.0
C1275 C 0.25289 0.63996 0.89517 0.0
C1276 C 0.25028 0.64082 0.17713 0.0
C1277 C 0.25336 0.63865 0.14021 0.0
C1278 C 0.23922 0.64354 0.04802 0.0
C1279 C 0.25843 0.63758 0.95992 0.0
C1280 C 0.25412 0.63669 0.999 0.0
C1281 C 0.24329 0.6373 0.11386 0.0
C1282 C 0.24664 0.63645 0.07404 0.0
H1283 H 0.28606 0.64317 0.90857 0.0
H1284 H 0.27934 0.63926 0.97208 0.0
H1285 H 0.2372 0.64961 0.99209 0.0
H1286 H 0.21669 0.64041 0.17076 0.0
H1287 H 0.22205 0.63643 0.10629 0.0
C1288 C 0.39128 0.99828 0.93718 0.0
C1289 C 0.39258 0.98512 0.94888 0.0
C1290 C 0.38891 1.00124 0.90029 0.0
C1291 C 0.39436 0.98719 0.80858 0.0
H1292 H 0.37357 0.01718 0.77619 0.0
C1293 C 0.39102 1.00054 0.6557 0.0
C1294 C 0.39273 0.01394 0.64678 0.0
C1295 C 0.38868 0.99667 0.69193 0.0
C1296 C 0.37946 0.00881 0.78482 0.0
H1297 H 0.39174 0.96469 0.93123 0.0
H1298 H 0.38745 0.96985 0.86677 0.0
H1299 H 0.37335 0.01078 0.84089 0.0
H1300 H 0.39274 0.03383 0.6687 0.0
H1301 H 0.38881 0.02706 0.73217 0.0
H1302 H 0.40073 0.98537 0.7529 0.0
C1303 C 0.38848 0.97791 0.88612 0.0
C1304 C 0.37933 0.00513 0.82189 0.0
C1305 C 0.39084 0.97494 0.92311 0.0
C1306 C 0.39144 0.02344 0.67467 0.0
C1307 C 0.38915 0.01955 0.71105 0.0
C1308 C 0.39449 0.99086 0.77161 0.0
C1309 C 0.38779 0.99111 0.87413 0.0
C1310 C 0.3869 0.99436 0.8343 0.0
C1311 C 0.38805 0.00609 0.72023 0.0
C1312 C 0.38716 0.00179 0.75928 0.0
H1313 H 0.39255 0.00637 0.95631 0.0
H1314 H 0.38857 0.01151 0.89207 0.0
H1315 H 0.40052 0.97901 0.8172 0.0
H1316 H 0.39183 0.99297 0.63483 0.0
H1317 H 0.3876 0.98625 0.69786 0.0
C1318 C 0.72782 0.64169 0.41736 0.0
C1319 C 0.73734 0.64233 0.38932 0.0
C1320 C 0.73163 0.63951 0.45386 0.0
C1321 C 0.76051 0.64413 0.51414 0.0
H1322 H 0.73986 0.6242 0.58452 0.0
C1323 C 0.77636 0.64085 0.66597 0.0
C1324 C 0.76626 0.64282 0.69184 0.0
C1325 C 0.7733 0.63851 0.62901 0.0
C1326 C 0.74571 0.62986 0.56524 0.0
H1327 H 0.75825 0.64039 0.37739 0.0
H1328 H 0.76483 0.6364 0.44069 0.0
H1329 H 0.73344 0.62424 0.51984 0.0
H1330 H 0.745 0.6433 0.69941 0.0
H1331 H 0.7397 0.6394 0.63525 0.0
H1332 H 0.77258 0.65004 0.55942 0.0
C1333 C 0.75445 0.63787 0.4347 0.0
C1334 C 0.74202 0.62988 0.52816 0.0
C1335 C 0.75066 0.64007 0.39833 0.0
C1336 C 0.75305 0.64183 0.68024 0.0
C1337 C 0.74999 0.63951 0.64337 0.0
C1338 C 0.76418 0.64413 0.55114 0.0
C1339 C 0.74504 0.6379 0.46308 0.0
C1340 C 0.74931 0.63712 0.5022 0.0
C1341 C 0.76007 0.6381 0.61711 0.0
C1342 C 0.75675 0.63712 0.57728 0.0
H1343 H 0.71748 0.64342 0.41136 0.0
H1344 H 0.72412 0.63967 0.47502 0.0
H1345 H 0.76623 0.65002 0.49508 0.0
H1346 H 0.78664 0.64151 0.674 0.0
H1347 H 0.78132 0.63726 0.60965 0.0
C1348 C 0.11213 0.00222 0.42733 0.0
C1349 C 0.11126 0.01542 0.4391 0.0
C1350 C 0.11452 0.99922 0.39048 0.0
C1351 C 0.1103 0.0136 0.29837 0.0
H1352 H 0.12993 0.98269 0.26715 0.0
C1353 C 0.1144 1.00013 0.14557 0.0
C1354 C 0.11194 0.98685 0.13656 0.0
C1355 C 0.11664 0.00388 0.18196 0.0
C1356 C 0.12436 0.99132 0.27545 0.0
H1357 H 0.11284 0.03581 0.42158 0.0
H1358 H 0.11721 0.03056 0.35723 0.0
H1359 H 0.1299 0.98903 0.33188 0.0
H1360 H 0.11055 0.96702 0.15858 0.0
H1361 H 0.11439 0.97358 0.22224 0.0
H1362 H 0.10454 0.01578 0.24223 0.0
C1363 C 0.11581 0.02253 0.37647 0.0
C1364 C 0.12435 0.99496 0.31255 0.0
C1365 C 0.11341 0.02555 0.41341 0.0
C1366 C 0.11244 0.97732 0.16458 0.0
C1367 C 0.11467 0.98109 0.20108 0.0
C1368 C 0.11034 0.00998 0.26134 0.0
C1369 C 0.11611 0.00932 0.36439 0.0
C1370 C 0.11717 0.00606 0.32456 0.0
C1371 C 0.11647 0.99447 0.21031 0.0
C1372 C 0.11724 0.99871 0.24944 0.0
H1373 H 0.11053 0.99417 0.44636 0.0
H1374 H 0.11453 0.98894 0.38222 0.0
H1375 H 0.10445 0.02205 0.30661 0.0
H1376 H 0.11419 0.00772 0.12465 0.0
H1377 H 0.11825 0.01423 0.18797 0.0
C1378 C 0.72574 0.36264 0.16817 0.0
C1379 C 0.73587 0.36095 0.19415 0.0
C1380 C 0.72878 0.36484 0.13114 0.0
C1381 C 0.75624 0.37364 0.06714 0.0
H1382 H 0.73604 0.3529 0.99758 0.0
C1383 C 0.77424 0.36181 0.91936 0.0
C1384 C 0.76471 0.36097 0.89138 0.0
C1385 C 0.77042 0.36395 0.95587 0.0
C1386 C 0.74166 0.35895 0.01647 0.0
H1387 H 0.75712 0.3608 0.20179 0.0
H1388 H 0.76239 0.36447 0.13749 0.0
H1389 H 0.72971 0.353 0.06193 0.0
H1390 H 0.74376 0.36245 0.87957 0.0
H1391 H 0.73715 0.36636 0.94288 0.0
H1392 H 0.76839 0.37932 0.02156 0.0
C1393 C 0.7521 0.36425 0.14559 0.0
C1394 C 0.73801 0.35902 0.05347 0.0
C1395 C 0.74907 0.36207 0.18254 0.0
C1396 C 0.75136 0.36293 0.90046 0.0
C1397 C 0.74755 0.36509 0.93685 0.0
C1398 C 0.75992 0.37356 0.03005 0.0
C1399 C 0.74201 0.36539 0.11925 0.0
C1400 C 0.74532 0.36625 0.0794 0.0
C1401 C 0.75698 0.36531 0.96516 0.0
C1402 C 0.75274 0.36611 0.0043 0.0
H1403 H 0.71547 0.36188 0.1762 0.0
H1404 H 0.72075 0.36589 0.1117 0.0
H1405 H 0.762 0.37947 0.08624 0.0
H1406 H 0.78461 0.36031 0.91331 0.0
H1407 H 0.77795 0.36398 0.97699 0.0
C1408 C 0.12072 0.50963 0.43661 0.0
C1409 C 0.11217 0.52056 0.43756 0.0
C1410 C 0.1254 0.50479 0.40296 0.0
C1411 C 0.12381 0.49095 0.329 0.0
H1412 H 0.12611 0.51373 0.24364 0.0
C1413 C 0.10439 0.47485 0.19032 0.0
C1414 C 0.10953 0.47997 0.15743 0.0
C1415 C 0.10932 0.47895 0.22411 0.0
C1416 C 0.12582 0.50715 0.26707 0.0
H1417 H 0.10239 0.53537 0.40403 0.0
H1418 H 0.11011 0.52682 0.34617 0.0
H1419 H 0.12753 0.52324 0.30471 0.0
H1420 H 0.12429 0.49305 0.13428 0.0
H1421 H 0.13307 0.50016 0.19372 0.0
H1422 H 0.1221 0.47486 0.29137 0.0
C1423 C 0.11349 0.52205 0.37105 0.0
C1424 C 0.12646 0.51264 0.3022 0.0
C1425 C 0.10889 0.52688 0.40444 0.0
C1426 C 0.12004 0.48901 0.15915 0.0
C1427 C 0.12506 0.49309 0.19319 0.0
C1428 C 0.12339 0.48544 0.29389 0.0
C1429 C 0.12161 0.51081 0.36971 0.0
C1430 C 0.12466 0.50471 0.33352 0.0
C1431 C 0.11963 0.48821 0.22611 0.0
C1432 C 0.1236 0.49356 0.26252 0.0
H1433 H 0.12352 0.5046 0.46169 0.0
H1434 H 0.13175 0.49619 0.40296 0.0
H1435 H 0.12245 0.48449 0.35238 0.0
H1436 H 0.09629 0.46787 0.19016 0.0
H1437 H 0.10463 0.4752 0.24871 0.0
C1438 C 0.72605 0.86107 0.65913 0.0
C1439 C 0.73277 0.86318 0.69239 0.0
C1440 C 0.73127 0.86555 0.62608 0.0
C1441 C 0.76342 0.87298 0.58481 0.0
H1442 H 0.74118 0.8778 0.49917 0.0
C1443 C 0.76571 0.87039 0.41471 0.0
C1444 C 0.77412 0.85937 0.41254 0.0
C1445 C 0.76179 0.87534 0.44898 0.0
C1446 C 0.74764 0.87679 0.52269 0.0
H1447 H 0.74985 0.8725 0.7172 0.0
H1448 H 0.75895 0.8806 0.65914 0.0
H1449 H 0.73166 0.87977 0.5601 0.0
H1450 H 0.78515 0.84506 0.4447 0.0
H1451 H 0.77803 0.85327 0.50358 0.0
H1452 H 0.77942 0.87011 0.54743 0.0
C1453 C 0.74972 0.87519 0.65871 0.0
C1454 C 0.74212 0.87773 0.55776 0.0
C1455 C 0.7445 0.87061 0.69201 0.0
C1456 C 0.7787 0.85359 0.44523 0.0
C1457 C 0.77472 0.85843 0.47922 0.0
C1458 C 0.76898 0.87229 0.54978 0.0
C1459 C 0.74334 0.87241 0.62521 0.0
C1460 C 0.74978 0.87506 0.58917 0.0
C1461 C 0.76615 0.86931 0.48168 0.0
C1462 C 0.76101 0.8734 0.51826 0.0
H1463 H 0.71693 0.85548 0.65829 0.0
H1464 H 0.72614 0.86296 0.60102 0.0
H1465 H 0.76968 0.87092 0.60821 0.0
H1466 H 0.7621 0.87512 0.39002 0.0
H1467 H 0.75526 0.8838 0.44982 0.0
C1468 C 0.38781 0.50628 0.65777 0.0
C1469 C 0.38931 0.51977 0.65011 0.0
C1470 C 0.3836 0.50219 0.69256 0.0
C1471 C 0.3845 0.51475 0.78731 0.0
H1472 H 0.36801 0.48114 0.80927 0.0
C1473 C 0.38533 0.49397 0.93353 0.0
C1474 C 0.39093 0.48129 0.93477 0.0
C1475 C 0.38071 0.49912 0.90026 0.0
C1476 C 0.37252 0.49061 0.80354 0.0
H1477 H 0.38632 0.53957 0.67101 0.0
H1478 H 0.37842 0.53249 0.73095 0.0
H1479 H 0.36762 0.48959 0.74639 0.0
H1480 H 0.39512 0.46367 0.90288 0.0
H1481 H 0.38714 0.47264 0.84517 0.0
H1482 H 0.38978 0.51559 0.84402 0.0
C1483 C 0.38101 0.52503 0.71092 0.0
C1484 C 0.37237 0.49542 0.76754 0.0
C1485 C 0.38547 0.52909 0.67653 0.0
C1486 C 0.391 0.47355 0.90274 0.0
C1487 C 0.38629 0.47863 0.86969 0.0
C1488 C 0.38456 0.51 0.82323 0.0
C1489 C 0.38061 0.51154 0.71998 0.0
C1490 C 0.37872 0.50736 0.75879 0.0
C1491 C 0.38147 0.49161 0.86785 0.0
C1492 C 0.37896 0.49769 0.83151 0.0
H1493 H 0.39074 0.49891 0.63781 0.0
H1494 H 0.38351 0.49172 0.69856 0.0
H1495 H 0.38972 0.52386 0.78169 0.0
H1496 H 0.38508 0.50014 0.95781 0.0
H1497 H 0.37696 0.50914 0.89962 0.0
C1498 C 0.77774 0.14669 0.15128 0.0
C1499 C 0.77184 0.14271 0.1844 0.0
C1500 C 0.77324 0.14184 0.11782 0.0
C1501 C 0.7432 0.1287 0.07561 0.0
H1502 H 0.76612 0.12867 0.99032 0.0
C1503 C 0.74124 0.13291 0.90581 0.0
C1504 C 0.73131 0.1426 0.9043 0.0
C1505 C 0.74559 0.12802 0.93974 0.0
C1506 C 0.75953 0.12829 0.01371 0.0
H1507 H 0.75697 0.12995 0.20838 0.0
H1508 H 0.74914 0.12127 0.14952 0.0
H1509 H 0.77572 0.12811 0.05138 0.0
H1510 H 0.71783 0.15436 0.93723 0.0
H1511 H 0.7256 0.14628 0.99559 0.0
H1512 H 0.72702 0.12886 0.03794 0.0
C1513 C 0.75716 0.12835 0.1496 0.0
C1514 C 0.76506 0.12817 0.04885 0.0
C1515 C 0.76165 0.1333 0.18331 0.0
C1516 C 0.72552 0.14693 0.93724 0.0
C1517 C 0.72989 0.14213 0.97091 0.0
C1518 C 0.73767 0.12859 0.04047 0.0
C1519 C 0.76276 0.13275 0.11638 0.0
C1520 C 0.75697 0.12919 0.08016 0.0
C1521 C 0.7401 0.13276 0.97275 0.0
C1522 C 0.74578 0.1292 0.00913 0.0
H1523 H 0.78564 0.1539 0.15096 0.0
H1524 H 0.77764 0.14572 0.09297 0.0
H1525 H 0.73663 0.12941 0.09898 0.0
H1526 H 0.74581 0.12928 0.8809 0.0
H1527 H 0.75339 0.12071 0.94012 0.0
C1528 C 0.88593 0.49401 0.65283 0.0
C1529 C 0.8916 0.48135 0.65177 0.0
C1530 C 0.88118 0.49914 0.68596 0.0
C1531 C 0.87277 0.4906 0.78257 0.0
H1532 H 0.88944 0.5241 0.80453 0.0
C1533 C 0.88753 0.50664 0.92846 0.0
C1534 C 0.88884 0.52016 0.93598 0.0
C1535 C 0.8834 0.50245 0.89369 0.0
C1536 C 0.88437 0.51492 0.79887 0.0
H1537 H 0.89582 0.46379 0.68387 0.0
H1538 H 0.88762 0.47274 0.74134 0.0
H1539 H 0.88982 0.51577 0.74229 0.0
H1540 H 0.8856 0.53989 0.91485 0.0
H1541 H 0.87784 0.53263 0.85493 0.0
H1542 H 0.86771 0.48957 0.83961 0.0
C1543 C 0.8868 0.47871 0.71677 0.0
C1544 C 0.88461 0.51013 0.763 0.0
C1545 C 0.89164 0.47364 0.68385 0.0
C1546 C 0.88488 0.5294 0.90945 0.0
C1547 C 0.88051 0.52523 0.87507 0.0
C1548 C 0.87244 0.49544 0.81853 0.0
C1549 C 0.88189 0.49165 0.71844 0.0
C1550 C 0.8792 0.49774 0.75468 0.0
C1551 C 0.88032 0.51173 0.86613 0.0
C1552 C 0.8786 0.50748 0.82731 0.0
H1553 H 0.8857 0.50016 0.62851 0.0
H1554 H 0.87734 0.50913 0.68645 0.0
H1555 H 0.8684 0.48106 0.77681 0.0
H1556 H 0.89056 0.49934 0.9485 0.0
H1557 H 0.88347 0.49198 0.88779 0.0
C1558 C 0.22496 0.14661 0.6482 0.0
C1559 C 0.23065 0.14224 0.68124 0.0
C1560 C 0.22951 0.14196 0.61456 0.0
C1561 C 0.23764 0.12864 0.545 0.0
H1562 H 0.27571 0.12847 0.53497 0.0
C1563 C 0.26202 0.13334 0.40262 0.0
C1564 C 0.2722 0.14277 0.40162 0.0
C1565 C 0.25743 0.12846 0.43631 0.0
C1566 C 0.26505 0.12845 0.53725 0.0
H1567 H 0.24522 0.12903 0.70481 0.0
H1568 H 0.25313 0.12072 0.64563 0.0
H1569 H 0.26594 0.12892 0.59581 0.0
H1570 H 0.28587 0.15406 0.43523 0.0
H1571 H 0.27769 0.146 0.49316 0.0
H1572 H 0.23675 0.12946 0.48647 0.0
C1573 C 0.24524 0.12794 0.64593 0.0
C1574 C 0.25942 0.12851 0.57226 0.0
C1575 C 0.2407 0.13268 0.67983 0.0
C1576 C 0.27798 0.14684 0.43483 0.0
C1577 C 0.27338 0.14205 0.46826 0.0
C1578 C 0.24326 0.12881 0.50999 0.0
C1579 C 0.23983 0.1327 0.61284 0.0
C1580 C 0.24565 0.12928 0.57654 0.0
C1581 C 0.26292 0.13294 0.4696 0.0
C1582 C 0.25705 0.1294 0.50575 0.0
H1583 H 0.21717 0.15394 0.64811 0.0
H1584 H 0.22527 0.14612 0.58985 0.0
H1585 H 0.22697 0.12881 0.54729 0.0
H1586 H 0.25743 0.12992 0.37749 0.0
H1587 H 0.24943 0.12136 0.4363 0.0
C1588 C 0.61288 0.52802 0.18189 0.0
C1589 C 0.6124 0.52028 0.14988 0.0
C1590 C 0.61756 0.52272 0.21471 0.0
C1591 C 0.61799 0.49131 0.2611 0.0
H1592 H 0.63625 0.51088 0.33728 0.0
C1593 C 0.61681 0.47239 0.40805 0.0
C1594 C 0.6136 0.48192 0.43459 0.0
C1595 C 0.62124 0.4762 0.37341 0.0
C1596 C 0.63113 0.50529 0.31632 0.0
H1597 H 0.61725 0.5012 0.12655 0.0
H1598 H 0.6253 0.49182 0.18437 0.0
H1599 H 0.63604 0.51931 0.27437 0.0
H1600 H 0.61327 0.50283 0.44674 0.0
H1601 H 0.62046 0.5096 0.3856 0.0
H1602 H 0.6123 0.47776 0.30287 0.0
C1603 C 0.62201 0.502 0.18389 0.0
C1604 C 0.63108 0.51008 0.2803 0.0
C1605 C 0.61744 0.50736 0.15084 0.0
C1606 C 0.61569 0.49531 0.4267 0.0
C1607 C 0.61988 0.49915 0.39169 0.0
C1608 C 0.61795 0.48659 0.29703 0.0
C1609 C 0.62178 0.50953 0.21634 0.0
C1610 C 0.62418 0.50332 0.25257 0.0
C1611 C 0.62227 0.48964 0.36423 0.0
C1612 C 0.6242 0.4937 0.32534 0.0
H1613 H 0.6092 0.53806 0.18194 0.0
H1614 H 0.61712 0.52873 0.23928 0.0
H1615 H 0.61241 0.48599 0.24049 0.0
H1616 H 0.6155 0.46197 0.41371 0.0
H1617 H 0.62335 0.4686 0.35335 0.0
C1618 C 0.2249 0.85675 0.93954 0.0
C1619 C 0.23071 0.86098 0.90655 0.0
C1620 C 0.22929 0.86157 0.97315 0.0
C1621 C 0.23725 0.87502 0.04265 0.0
H1622 H 0.27531 0.87505 0.05321 0.0
C1623 C 0.26138 0.8696 0.18514 0.0
C1624 C 0.27148 0.86007 0.18588 0.0
C1625 C 0.25688 0.87469 0.1516 0.0
C1626 C 0.26465 0.87512 0.05077 0.0
H1627 H 0.24529 0.87417 0.88297 0.0
H1628 H 0.25292 0.88279 0.94209 0.0
H1629 H 0.26564 0.87473 0.99223 0.0
H1630 H 0.2851 0.84883 0.152 0.0
H1631 H 0.27707 0.85726 0.09431 0.0
H1632 H 0.23627 0.87407 0.10115 0.0
C1633 C 0.24507 0.87553 0.9418 0.0
C1634 C 0.25908 0.87514 0.01569 0.0
C1635 C 0.24069 0.87062 0.90793 0.0
C1636 C 0.27727 0.85612 0.15259 0.0
C1637 C 0.27276 0.86112 0.1193 0.0
C1638 C 0.24282 0.87476 0.07773 0.0
C1639 C 0.23957 0.87087 0.97488 0.0
C1640 C 0.24532 0.87437 0.01122 0.0
C1641 C 0.26239 0.87034 0.11821 0.0
C1642 C 0.25659 0.8741 0.08214 0.0
H1643 H 0.21716 0.84937 0.93965 0.0
H1644 H 0.22498 0.85749 0.99787 0.0
H1645 H 0.22659 0.87487 0.04021 0.0
H1646 H 0.25679 0.87293 0.21035 0.0
H1647 H 0.24895 0.88187 0.15179 0.0
C1648 C 0.61619 0.99932 0.6431 0.0
C1649 C 0.61624 0.98578 0.63518 0.0
C1650 C 0.62041 0.00381 0.6775 0.0
C1651 C 0.6219 0.99074 0.77152 0.0
H1652 H 0.63354 0.02625 0.79437 0.0
C1653 C 0.61872 0.01075 0.9186 0.0
C1654 C 0.61167 0.02268 0.92053 0.0
C1655 C 0.62369 0.0063 0.88496 0.0
C1656 C 0.63038 0.01626 0.78838 0.0
H1657 H 0.62207 0.96645 0.65482 0.0
H1658 H 0.63005 0.97429 0.71399 0.0
H1659 H 0.63494 0.0182 0.7312 0.0
H1660 H 0.60508 0.03971 0.88926 0.0
H1661 H 0.61364 0.03192 0.8309 0.0
H1662 H 0.61691 0.98894 0.82826 0.0
C1663 C 0.62624 0.98144 0.69456 0.0
C1664 C 0.63113 0.01167 0.75222 0.0
C1665 C 0.62176 0.97694 0.66059 0.0
C1666 C 0.61034 0.0304 0.88865 0.0
C1667 C 0.61539 0.02601 0.85522 0.0
C1668 C 0.62125 0.99529 0.80759 0.0
C1669 C 0.62495 0.99481 0.70422 0.0
C1670 C 0.6265 0.999 0.74315 0.0
C1671 C 0.62183 0.01377 0.8528 0.0
C1672 C 0.62506 0.00824 0.8162 0.0
H1673 H 0.61191 0.00631 0.62395 0.0
H1674 H 0.61919 0.01417 0.68395 0.0
H1675 H 0.618 0.98102 0.76567 0.0
H1676 H 0.61997 0.00463 0.94274 0.0
H1677 H 0.62869 0.99685 0.88389 0.0
C1678 C 0.22616 0.35929 0.15389 0.0
C1679 C 0.23257 0.36221 0.18714 0.0
C1680 C 0.23106 0.36399 0.12071 0.0
C1681 C 0.26242 0.37389 0.07915 0.0
H1682 H 0.23976 0.3767 0.99367 0.0
C1683 C 0.26439 0.37013 0.90926 0.0
C1684 C 0.27334 0.35954 0.90763 0.0
C1685 C 0.26037 0.37523 0.94327 0.0
C1686 C 0.24631 0.37627 0.01713 0.0
H1687 H 0.24876 0.37308 0.21172 0.0
H1688 H 0.25731 0.38151 0.15336 0.0
H1689 H 0.23021 0.3782 0.05466 0.0
H1690 H 0.28533 0.34623 0.94048 0.0
H1691 H 0.27807 0.35468 0.99894 0.0
H1692 H 0.27853 0.37202 0.04164 0.0
C1693 C 0.24857 0.37535 0.15309 0.0
C1694 C 0.24079 0.37694 0.05223 0.0
C1695 C 0.24366 0.37056 0.18654 0.0
C1696 C 0.27842 0.3544 0.94057 0.0
C1697 C 0.27437 0.35939 0.97431 0.0
C1698 C 0.26796 0.37347 0.04408 0.0
C1699 C 0.24248 0.37187 0.11968 0.0
C1700 C 0.24867 0.37494 0.0836 0.0
C1701 C 0.2652 0.36979 0.97624 0.0
C1702 C 0.25988 0.37383 0.01265 0.0
H1703 H 0.21753 0.35297 0.15321 0.0
H1704 H 0.22621 0.36084 0.0957 0.0
H1705 H 0.26884 0.37239 0.10255 0.0
H1706 H 0.26038 0.37439 0.88435 0.0
H1707 H 0.25337 0.38331 0.94372 0.0
C1708 C 0.8834 0.97621 0.42058 0.0
C1709 C 0.88826 0.98515 0.44672 0.0
C1710 C 0.87907 0.98067 0.38642 0.0
C1711 C 0.87311 0.01094 0.32975 0.0
H1712 H 0.88854 0.98921 0.25328 0.0
C1713 C 0.89326 0.03107 0.194 0.0
C1714 C 0.89233 0.02338 0.16196 0.0
C1715 C 0.88834 0.02637 0.22727 0.0
C1716 C 0.88388 0.99527 0.27407 0.0
H1717 H 0.89161 0.00579 0.45893 0.0
H1718 H 0.8846 0.01362 0.39861 0.0
H1719 H 0.88771 0.98099 0.31561 0.0
H1720 H 0.88484 0.00506 0.13926 0.0
H1721 H 0.87636 0.99675 0.1978 0.0
H1722 H 0.8701 0.02557 0.28799 0.0
C1723 C 0.88379 0.00318 0.40462 0.0
C1724 C 0.88337 0.99055 0.30998 0.0
C1725 C 0.88786 0.99872 0.43918 0.0
C1726 C 0.88577 0.01117 0.16353 0.0
C1727 C 0.88094 0.00641 0.197 0.0
C1728 C 0.87372 0.01572 0.29374 0.0
C1729 C 0.87985 0.99414 0.37732 0.0
C1730 C 0.87831 0.99846 0.3385 0.0
C1731 C 0.88245 0.01385 0.22934 0.0
C1732 C 0.87946 0.00806 0.26577 0.0
H1733 H 0.88343 0.96569 0.42602 0.0
H1734 H 0.87573 0.97347 0.36651 0.0
H1735 H 0.86894 0.0172 0.35088 0.0
H1736 H 0.89813 0.04059 0.19366 0.0
H1737 H 0.8898 0.03228 0.25174 0.0
C1738 C 0.27883 0.64894 0.64497 0.0
C1739 C 0.2738 0.64368 0.67782 0.0
C1740 C 0.27467 0.64412 0.61113 0.0
C1741 C 0.24643 0.62755 0.56819 0.0
H1742 H 0.26889 0.63126 0.48258 0.0
C1743 C 0.24359 0.63254 0.39861 0.0
C1744 C 0.23249 0.64089 0.3977 0.0
C1745 C 0.24856 0.62799 0.43225 0.0
C1746 C 0.26249 0.62982 0.50604 0.0
H1747 H 0.26078 0.62883 0.7008 0.0
H1748 H 0.25357 0.62023 0.64127 0.0
H1749 H 0.27864 0.63166 0.54345 0.0
H1750 H 0.21753 0.6504 0.43131 0.0
H1751 H 0.22632 0.64292 0.48915 0.0
H1752 H 0.23028 0.62567 0.53077 0.0
C1753 C 0.26063 0.62825 0.64187 0.0
C1754 C 0.26807 0.63026 0.54108 0.0
C1755 C 0.26476 0.63316 0.67598 0.0
C1756 C 0.22615 0.64407 0.43087 0.0
C1757 C 0.23111 0.63959 0.46424 0.0
C1758 C 0.24087 0.62689 0.53313 0.0
C1759 C 0.26542 0.6338 0.60901 0.0
C1760 C 0.26002 0.62991 0.57257 0.0
C1761 C 0.24252 0.6317 0.46554 0.0
C1762 C 0.24873 0.62879 0.50169 0.0
H1763 H 0.2858 0.65705 0.64524 0.0
H1764 H 0.27835 0.6489 0.58659 0.0
H1765 H 0.2399 0.62716 0.5917 0.0
H1766 H 0.24863 0.62983 0.37351 0.0
H1767 H 0.25728 0.62181 0.43221 0.0
C1768 C 0.39265 0.97392 0.18894 0.0
C1769 C 0.39216 0.98155 0.15674 0.0
C1770 C 0.38803 0.97899 0.22211 0.0
C1771 C 0.38571 0.01038 0.26825 0.0
H1772 H 0.36911 0.98983 0.34536 0.0
C1773 C 0.38598 0.02992 0.41452 0.0
C1774 C 0.38991 0.02075 0.44128 0.0
C1775 C 0.38169 0.02566 0.38014 0.0
C1776 C 0.37376 0.99569 0.32415 0.0
H1777 H 0.38578 1.00022 0.1336 0.0
H1778 H 0.37786 0.00921 0.19199 0.0
H1779 H 0.36974 0.98122 0.28267 0.0
H1780 H 0.39168 0.99997 0.45417 0.0
H1781 H 0.38476 0.99245 0.39347 0.0
H1782 H 0.39054 0.02445 0.30953 0.0
C1783 C 0.38184 0.99928 0.19139 0.0
C1784 C 0.37406 0.99079 0.28826 0.0
C1785 C 0.38634 0.99413 0.15801 0.0
C1786 C 0.38868 0.00721 0.43395 0.0
C1787 C 0.38464 0.00293 0.39918 0.0
C1788 C 0.38552 0.01522 0.30406 0.0
C1789 C 0.38293 0.99186 0.22389 0.0
C1790 C 0.38035 0.99794 0.26018 0.0
C1791 C 0.38156 0.01214 0.37143 0.0
C1792 C 0.37985 0.00779 0.33269 0.0
H1793 H 0.39695 0.96412 0.18879 0.0
H1794 H 0.38914 0.97309 0.24672 0.0
H1795 H 0.39081 0.01603 0.24735 0.0
H1796 H 0.38664 0.04043 0.41978 0.0
H1797 H 0.37902 0.03301 0.35987 0.0
C1798 C 0.7244 0.64787 0.14793 0.0
C1799 C 0.72995 0.64317 0.1808 0.0
C1800 C 0.72875 0.64317 0.11414 0.0
C1801 C 0.7363 0.62973 0.0442 0.0
H1802 H 0.77433 0.62811 0.03385 0.0
C1803 C 0.76068 0.63376 0.90172 0.0
C1804 C 0.77116 0.64286 0.90078 0.0
C1805 C 0.75597 0.62896 0.93538 0.0
C1806 C 0.76367 0.6285 0.03623 0.0
H1807 H 0.74403 0.62933 0.20391 0.0
H1808 H 0.75157 0.62093 0.14447 0.0
H1809 H 0.76464 0.62882 0.09479 0.0
H1810 H 0.78524 0.65361 0.93442 0.0
H1811 H 0.77688 0.64568 0.9923 0.0
H1812 H 0.73539 0.6307 0.98569 0.0
C1813 C 0.74396 0.62845 0.14501 0.0
C1814 C 0.75809 0.6287 0.07128 0.0
C1815 C 0.73964 0.63324 0.17906 0.0
C1816 C 0.77712 0.64665 0.93399 0.0
C1817 C 0.77241 0.64194 0.96739 0.0
C1818 C 0.74189 0.62975 0.00915 0.0
C1819 C 0.73871 0.63353 0.1121 0.0
C1820 C 0.74436 0.63 0.07568 0.0
C1821 C 0.76165 0.63319 0.96867 0.0
C1822 C 0.75568 0.62981 0.00481 0.0
H1823 H 0.7169 0.6555 0.14811 0.0
H1824 H 0.72465 0.64758 0.08956 0.0
H1825 H 0.72565 0.63031 0.04658 0.0
H1826 H 0.75594 0.63056 0.87659 0.0
H1827 H 0.74774 0.62214 0.93534 0.0
C1828 C 0.12073 0.98851 0.92597 0.0
C1829 C 0.11031 0.97937 0.92801 0.0
C1830 C 0.12564 0.99255 0.89178 0.0
C1831 C 0.12372 0.98478 0.79114 0.0
H1832 H 0.12734 0.02263 0.78006 0.0
C1833 C 0.10831 0.02608 0.68096 0.0
C1834 C 0.11158 0.01985 0.64772 0.0
C1835 C 0.11304 0.02127 0.71422 0.0
C1836 C 0.1264 0.01202 0.78265 0.0
H1837 H 0.09716 0.96702 0.89571 0.0
H1838 H 0.10531 0.97429 0.83691 0.0
H1839 H 0.1263 0.01312 0.84119 0.0
H1840 H 0.12301 0.00402 0.62326 0.0
H1841 H 0.13146 0.99561 0.68177 0.0
H1842 H 0.12253 0.98381 0.73268 0.0
C1843 C 0.11001 0.97815 0.86136 0.0
C1844 C 0.126 0.00653 0.81781 0.0
C1845 C 0.10519 0.97409 0.8953 0.0
C1846 C 0.12021 0.00898 0.64843 0.0
C1847 C 0.12503 0.00415 0.68195 0.0
C1848 C 0.1239 0.99029 0.756 0.0
C1849 C 0.12019 0.98754 0.85903 0.0
C1850 C 0.12397 0.99291 0.82247 0.0
C1851 C 0.12128 0.01011 0.71531 0.0
C1852 C 0.12456 0.00405 0.75141 0.0
H1853 H 0.12496 0.99268 0.9507 0.0
H1854 H 0.13356 0.99972 0.891 0.0
H1855 H 0.12257 0.97419 0.79374 0.0
H1856 H 0.10173 0.03452 0.68156 0.0
H1857 H 0.10967 0.02597 0.73921 0.0
C1858 C 0.77784 0.357 0.65001 0.0
C1859 C 0.7721 0.36128 0.68305 0.0
C1860 C 0.77337 0.36177 0.6164 0.0
C1861 C 0.76535 0.37524 0.54694 0.0
H1862 H 0.72729 0.37571 0.53669 0.0
C1863 C 0.74105 0.37077 0.4044 0.0
C1864 C 0.7308 0.36141 0.40334 0.0
C1865 C 0.74564 0.37562 0.43812 0.0
C1866 C 0.73795 0.37564 0.53903 0.0
H1867 H 0.75754 0.37448 0.7067 0.0
H1868 H 0.74979 0.38302 0.64761 0.0
H1869 H 0.73702 0.37509 0.59757 0.0
H1870 H 0.71701 0.35024 0.43686 0.0
H1871 H 0.72519 0.35825 0.49483 0.0
H1872 H 0.76627 0.37448 0.48841 0.0
C1873 C 0.75764 0.37576 0.64785 0.0
C1874 C 0.74355 0.37549 0.57408 0.0
C1875 C 0.76209 0.3709 0.68171 0.0
C1876 C 0.72496 0.3574 0.43651 0.0
C1877 C 0.72956 0.36216 0.46997 0.0
C1878 C 0.75975 0.37515 0.5119 0.0
C1879 C 0.76309 0.37107 0.61473 0.0
C1880 C 0.75732 0.3746 0.57843 0.0
C1881 C 0.74009 0.37119 0.47137 0.0
C1882 C 0.74597 0.37467 0.50756 0.0
H1883 H 0.78559 0.34962 0.64987 0.0
H1884 H 0.77764 0.35765 0.59166 0.0
H1885 H 0.77602 0.37499 0.54929 0.0
H1886 H 0.74569 0.37414 0.3793 0.0
H1887 H 0.75369 0.38266 0.43816 0.0
C1888 C 0.09605 0.4143 0.12295 0.0
C1889 C 0.10144 0.42229 0.09512 0.0
C1890 C 0.10347 0.40411 0.13869 0.0
C1891 C 0.13391 0.38381 0.12791 0.0
H1892 H 0.1327 0.38244 0.23431 0.0
C1893 C 0.16576 0.34662 0.20854 0.0
C1894 C 0.17272 0.35173 0.23881 0.0
C1895 C 0.15553 0.35383 0.19225 0.0
C1896 C 0.13317 0.3827 0.20462 0.0
H1897 H 0.11862 0.42529 0.06062 0.0
H1898 H 0.13157 0.40753 0.08805 0.0
H1899 H 0.11801 0.39737 0.20128 0.0
H1900 H 0.17386 0.36813 0.27689 0.0
H1901 H 0.15603 0.38072 0.24848 0.0
H1902 H 0.14941 0.3695 0.13132 0.0
C1903 C 0.12157 0.40909 0.09764 0.0
C1904 C 0.12463 0.39115 0.18559 0.0
C1905 C 0.11413 0.4193 0.08185 0.0
C1906 C 0.16867 0.36387 0.25375 0.0
C1907 C 0.15842 0.3711 0.2374 0.0
C1908 C 0.14243 0.37533 0.14694 0.0
C1909 C 0.11648 0.40163 0.12704 0.0
C1910 C 0.12497 0.39193 0.14698 0.0
C1911 C 0.15199 0.36635 0.20575 0.0
C1912 C 0.14227 0.37475 0.18558 0.0
H1913 H 0.08628 0.41628 0.13377 0.0
H1914 H 0.09912 0.39838 0.1607 0.0
H1915 H 0.13439 0.38406 0.09822 0.0
H1916 H 0.16857 0.33728 0.19639 0.0
H1917 H 0.15061 0.34973 0.16843 0.0
C1918 C 0.89044 0.91851 0.50399 0.0
C1919 C 0.90198 0.92347 0.48759 0.0
C1920 C 0.88341 0.90816 0.48753 0.0
C1921 C 0.87222 0.88304 0.45332 0.0
H1922 H 0.86889 0.8857 0.34747 0.0
C1923 C 0.84001 0.84628 0.37244 0.0
C1924 C 0.83148 0.85182 0.34612 0.0
C1925 C 0.85034 0.8537 0.38747 0.0
C1926 C 0.86969 0.88481 0.37702 0.0
H1927 H 0.91569 0.9208 0.44245 0.0
H1928 H 0.90366 0.9026 0.41436 0.0
H1929 H 0.88346 0.90078 0.38019 0.0
H1930 H 0.82762 0.8693 0.31347 0.0
H1931 H 0.84556 0.88227 0.33975 0.0
H1932 H 0.85801 0.86745 0.45032 0.0
C1933 C 0.89981 0.90692 0.43937 0.0
C1934 C 0.87819 0.89337 0.39581 0.0
C1935 C 0.90679 0.91728 0.45572 0.0
C1936 C 0.83404 0.86469 0.33353 0.0
C1937 C 0.84435 0.87214 0.34866 0.0
C1938 C 0.86371 0.87449 0.43453 0.0
C1939 C 0.8878 0.90249 0.45437 0.0
C1940 C 0.87947 0.8927 0.43427 0.0
C1941 C 0.85239 0.86688 0.37665 0.0
C1942 C 0.86222 0.87535 0.39616 0.0
H1943 H 0.8864 0.9231 0.52839 0.0
H1944 H 0.87417 0.90508 0.49982 0.0
H1945 H 0.87303 0.88215 0.48286 0.0
H1946 H 0.83838 0.83637 0.38266 0.0
H1947 H 0.8565 0.84922 0.40832 0.0
C1948 C 0.39044 0.58456 0.58459 0.0
C1949 C 0.40231 0.58013 0.60034 0.0
C1950 C 0.38334 0.59495 0.60065 0.0
C1951 C 0.37191 0.62021 0.63355 0.0
H1952 H 0.36979 0.61859 0.73981 0.0
C1953 C 0.33983 0.6571 0.71442 0.0
C1954 C 0.33166 0.65163 0.74169 0.0
C1955 C 0.35014 0.64974 0.69907 0.0
C1956 C 0.37025 0.61918 0.71015 0.0
H1957 H 0.41652 0.58378 0.64375 0.0
H1958 H 0.40434 0.60203 0.67115 0.0
H1959 H 0.38441 0.60354 0.70708 0.0
H1960 H 0.32842 0.63436 0.77566 0.0
H1961 H 0.34635 0.62149 0.74887 0.0
H1962 H 0.35734 0.63548 0.63653 0.0
C1963 C 0.40031 0.59728 0.64698 0.0
C1964 C 0.37877 0.61065 0.69134 0.0
C1965 C 0.40737 0.58689 0.63101 0.0
C1966 C 0.33456 0.63891 0.75485 0.0
C1967 C 0.34486 0.63152 0.73944 0.0
C1968 C 0.36339 0.62875 0.65237 0.0
C1969 C 0.38799 0.60116 0.63276 0.0
C1970 C 0.37962 0.61095 0.65275 0.0
C1971 C 0.35253 0.6367 0.71055 0.0
C1972 C 0.36234 0.62825 0.6909 0.0
H1973 H 0.38622 0.57953 0.56112 0.0
H1974 H 0.37387 0.59761 0.58901 0.0
H1975 H 0.37237 0.6208 0.60389 0.0
H1976 H 0.33792 0.6669 0.70372 0.0
H1977 H 0.35601 0.65415 0.67748 0.0
C1978 C 0.66935 0.13951 0.82865 0.0
C1979 C 0.67284 0.15189 0.8431 0.0
C1980 C 0.65895 0.13224 0.84401 0.0
C1981 C 0.64142 0.12857 0.93223 0.0
H1982 H 0.61844 0.10554 0.87625 0.0
C1983 C 0.59565 0.08869 0.95242 0.0
C1984 C 0.60084 0.08092 0.98102 0.0
C1985 C 0.60303 0.09903 0.93732 0.0
C1986 C 0.62465 0.11204 0.89236 0.0
H1987 H 0.66753 0.16673 0.88345 0.0
H1988 H 0.64931 0.15419 0.90971 0.0
H1989 H 0.63336 0.1205 0.84418 0.0
H1990 H 0.61754 0.07849 0.01767 0.0
H1991 H 0.63041 0.09651 0.99134 0.0
H1992 H 0.63275 0.12007 0.98042 0.0
C1993 C 0.65478 0.14994 0.88706 0.0
C1994 C 0.63332 0.12052 0.87391 0.0
C1995 C 0.66516 0.15719 0.87172 0.0
C1996 C 0.61321 0.08431 0.99579 0.0
C1997 C 0.62061 0.09465 0.98064 0.0
C1998 C 0.63277 0.12007 0.95069 0.0
C1999 C 0.6518 0.1372 0.87417 0.0
C2000 C 0.64191 0.12881 0.89359 0.0
C2001 C 0.61578 0.10186 0.95041 0.0
C2002 C 0.62435 0.11161 0.931 0.0
H2003 H 0.67509 0.1351 0.80676 0.0
H2004 H 0.65698 0.12244 0.83347 0.0
H2005 H 0.64801 0.13469 0.94833 0.0
H2006 H 0.58612 0.08642 0.94048 0.0
H2007 H 0.59888 0.10456 0.91462 0.0
C2008 C 0.16891 0.63802 0.33024 0.0
C2009 C 0.17261 0.65043 0.34413 0.0
C2010 C 0.1587 0.63081 0.34678 0.0
C2011 C 0.13358 0.61901 0.37951 0.0
H2012 H 0.13396 0.61933 0.48602 0.0
C2013 C 0.09692 0.58737 0.46246 0.0
C2014 C 0.10232 0.58007 0.49168 0.0
C2015 C 0.1041 0.59758 0.446 0.0
C2016 C 0.13372 0.6191 0.4563 0.0
H2017 H 0.16786 0.66537 0.38472 0.0
H2018 H 0.14994 0.65295 0.41294 0.0
H2019 H 0.14882 0.63381 0.45212 0.0
H2020 H 0.11924 0.5783 0.52782 0.0
H2021 H 0.13179 0.59607 0.49908 0.0
H2022 H 0.11887 0.60393 0.38369 0.0
C2023 C 0.15512 0.64862 0.38987 0.0
C2024 C 0.14214 0.62753 0.43679 0.0
C2025 C 0.16532 0.65581 0.37341 0.0
C2026 C 0.11475 0.58376 0.50551 0.0
C2027 C 0.12195 0.59397 0.48897 0.0
C2028 C 0.12516 0.61059 0.39902 0.0
C2029 C 0.15194 0.63585 0.37754 0.0
C2030 C 0.14229 0.62751 0.39812 0.0
C2031 C 0.11688 0.60075 0.45827 0.0
C2032 C 0.12521 0.61042 0.43769 0.0
H2033 H 0.17436 0.63355 0.30788 0.0
H2034 H 0.1566 0.62099 0.33662 0.0
H2035 H 0.13333 0.61879 0.34979 0.0
H2036 H 0.08735 0.58484 0.45119 0.0
H2037 H 0.09975 0.60278 0.42298 0.0
C2038 C 0.60751 0.91535 0.58219 0.0
C2039 C 0.60022 0.92381 0.60503 0.0
C2040 C 0.6145 0.90464 0.59705 0.0
C2041 C 0.62 0.88556 0.68498 0.0
H2042 H 0.65398 0.8784 0.64025 0.0
C2043 C 0.66511 0.86041 0.75706 0.0
C2044 C 0.67182 0.85075 0.73652 0.0
C2045 C 0.65464 0.86755 0.74143 0.0
C2046 C 0.64446 0.8802 0.65287 0.0
H2047 H 0.5942 0.92735 0.66133 0.0
H2048 H 0.60667 0.90924 0.68724 0.0
H2049 H 0.63901 0.89399 0.61127 0.0
H2050 H 0.67232 0.84061 0.684 0.0
H2051 H 0.65431 0.85322 0.6568 0.0
H2052 H 0.62599 0.87222 0.72776 0.0
C2053 C 0.60679 0.91048 0.65774 0.0
C2054 C 0.63578 0.88909 0.63609 0.0
C2055 C 0.59963 0.92099 0.64281 0.0
C2056 C 0.6674 0.84797 0.7007 0.0
C2057 C 0.65712 0.85524 0.68495 0.0
C2058 C 0.62883 0.87686 0.70215 0.0
C2059 C 0.61459 0.90229 0.63526 0.0
C2060 C 0.62342 0.892 0.65194 0.0
C2061 C 0.65084 0.86532 0.70481 0.0
C2062 C 0.64116 0.87412 0.6863 0.0
H2063 H 0.60813 0.9172 0.55295 0.0
H2064 H 0.62006 0.89839 0.57855 0.0
H2065 H 0.61051 0.88726 0.69782 0.0
H2066 H 0.66828 0.86282 0.78466 0.0
H2067 H 0.64998 0.8753 0.75733 0.0
C2068 C 0.33902 0.34492 0.87319 0.0
C2069 C 0.33112 0.35037 0.84525 0.0
C2070 C 0.34937 0.35217 0.88868 0.0
C2071 C 0.36272 0.37323 0.93498 0.0
H2072 H 0.38475 0.39747 0.88001 0.0
C2073 C 0.3904 0.41724 0.00159 0.0
C2074 C 0.40253 0.42119 0.98639 0.0
C2075 C 0.38314 0.40694 0.98573 0.0
C2076 C 0.37882 0.39063 0.89583 0.0
H2077 H 0.32844 0.36748 0.81028 0.0
H2078 H 0.34647 0.38016 0.8373 0.0
H2079 H 0.36998 0.38255 0.84734 0.0
H2080 H 0.41698 0.41675 0.94418 0.0
H2081 H 0.40448 0.39866 0.91711 0.0
H2082 H 0.37155 0.38133 0.98348 0.0
C2083 C 0.34472 0.37022 0.84716 0.0
C2084 C 0.37022 0.38217 0.87705 0.0
C2085 C 0.33436 0.36295 0.83161 0.0
C2086 C 0.40764 0.41403 0.95649 0.0
C2087 C 0.4004 0.40372 0.94071 0.0
C2088 C 0.37131 0.3817 0.95377 0.0
C2089 C 0.3521 0.36508 0.87667 0.0
C2090 C 0.36196 0.37345 0.89637 0.0
C2091 C 0.38786 0.40032 0.95435 0.0
C2092 C 0.37938 0.39061 0.93447 0.0
H2093 H 0.33685 0.33523 0.88428 0.0
H2094 H 0.35502 0.34779 0.91079 0.0
H2095 H 0.35639 0.36677 0.95085 0.0
H2096 H 0.38614 0.42259 0.02447 0.0
H2097 H 0.3735 0.40465 0.99691 0.0
C2098 C 0.83824 0.15813 0.21402 0.0
C2099 C 0.83075 0.15279 0.24295 0.0
C2100 C 0.84866 0.15099 0.19847 0.0
C2101 C 0.86217 0.12976 0.15319 0.0
H2102 H 0.88548 0.10692 0.20878 0.0
C2103 C 0.89055 0.08572 0.08903 0.0
C2104 C 0.90294 0.08235 0.10371 0.0
C2105 C 0.88314 0.09603 0.10432 0.0
C2106 C 0.87918 0.11337 0.19277 0.0
H2107 H 0.82885 0.13603 0.27958 0.0
H2108 H 0.84701 0.12355 0.25248 0.0
H2109 H 0.87054 0.12178 0.2411 0.0
H2110 H 0.91767 0.08782 0.1442 0.0
H2111 H 0.9049 0.10592 0.17026 0.0
H2112 H 0.87079 0.12131 0.10485 0.0
C2113 C 0.84488 0.13331 0.24187 0.0
C2114 C 0.87049 0.12178 0.21136 0.0
C2115 C 0.83445 0.14047 0.25747 0.0
C2116 C 0.90813 0.09009 0.13234 0.0
C2117 C 0.90074 0.1004 0.14756 0.0
C2118 C 0.87084 0.12132 0.13459 0.0
C2119 C 0.85185 0.13831 0.21144 0.0
C2120 C 0.86178 0.13 0.19183 0.0
C2121 C 0.88797 0.10322 0.13458 0.0
C2122 C 0.87938 0.11292 0.15412 0.0
H2123 H 0.83571 0.16762 0.20224 0.0
H2124 H 0.85399 0.15527 0.17562 0.0
H2125 H 0.85549 0.13581 0.13719 0.0
H2126 H 0.88623 0.07992 0.06713 0.0
H2127 H 0.87332 0.09787 0.09369 0.0
C2128 C 0.90659 0.58753 0.95388 0.0
C2129 C 0.9016 0.58067 0.98446 0.0
C2130 C 0.89941 0.59786 0.93797 0.0
C2131 C 0.87788 0.61121 0.89355 0.0
H2132 H 0.8558 0.63538 0.94859 0.0
C2133 C 0.83366 0.63922 0.82906 0.0
C2134 C 0.8304 0.65177 0.84282 0.0
C2135 C 0.84396 0.63189 0.84471 0.0
C2136 C 0.86203 0.62884 0.93269 0.0
H2137 H 0.88547 0.57981 0.02351 0.0
H2138 H 0.87291 0.59775 0.99568 0.0
H2139 H 0.87095 0.62081 0.98115 0.0
H2140 H 0.83604 0.66682 0.88218 0.0
H2141 H 0.85416 0.6542 0.90878 0.0
H2142 H 0.869 0.61927 0.84509 0.0
C2143 C 0.88243 0.59524 0.98409 0.0
C2144 C 0.87062 0.62035 0.95146 0.0
C2145 C 0.88965 0.58493 1.00012 0.0
C2146 C 0.83822 0.65715 0.87101 0.0
C2147 C 0.84855 0.64985 0.88656 0.0
C2148 C 0.8693 0.61971 0.87479 0.0
C2149 C 0.88703 0.60157 0.9521 0.0
C2150 C 0.87856 0.61132 0.93218 0.0
C2151 C 0.8513 0.63696 0.87441 0.0
C2152 C 0.86115 0.62854 0.89409 0.0
H2153 H 0.9158 0.58456 0.9412 0.0
H2154 H 0.90342 0.6027 0.91391 0.0
H2155 H 0.8837 0.60428 0.87772 0.0
H2156 H 0.82779 0.63474 0.80754 0.0
H2157 H 0.84572 0.62197 0.83473 0.0
C2158 C 0.09648 0.08678 0.62422 0.0
C2159 C 0.10178 0.07963 0.59455 0.0
C2160 C 0.10365 0.09701 0.6406 0.0
C2161 C 0.13284 0.119 0.6293 0.0
H2162 H 0.1333 0.11828 0.73579 0.0
C2163 C 0.16864 0.1382 0.75362 0.0
C2164 C 0.1719 0.15077 0.74 0.0
C2165 C 0.15847 0.13081 0.73751 0.0
C2166 C 0.1333 0.11862 0.70607 0.0
H2167 H 0.11849 0.07817 0.55759 0.0
H2168 H 0.13101 0.096 0.58617 0.0
H2169 H 0.11885 0.10327 0.70231 0.0
H2170 H 0.16639 0.16579 0.70039 0.0
H2171 H 0.14854 0.15306 0.6729 0.0
H2172 H 0.14765 0.13401 0.63303 0.0
C2173 C 0.12127 0.09374 0.5967 0.0
C2174 C 0.12489 0.11011 0.68682 0.0
C2175 C 0.11408 0.0835 0.58025 0.0
C2176 C 0.1642 0.15611 0.71147 0.0
C2177 C 0.15404 0.14875 0.69543 0.0
C2178 C 0.14123 0.12753 0.64855 0.0
C2179 C 0.11631 0.10036 0.62779 0.0
C2180 C 0.12464 0.11009 0.64815 0.0
C2181 C 0.1513 0.13584 0.70744 0.0
C2182 C 0.14167 0.12737 0.6872 0.0
H2183 H 0.08701 0.08411 0.63586 0.0
H2184 H 0.09939 0.10208 0.66396 0.0
H2185 H 0.13284 0.11935 0.59958 0.0
H2186 H 0.17441 0.13374 0.7754 0.0
H2187 H 0.1567 0.12089 0.74741 0.0
C2188 C 0.66812 0.36419 0.33208 0.0
C2189 C 0.67166 0.35171 0.34587 0.0
C2190 C 0.65778 0.37136 0.34807 0.0
C2191 C 0.63244 0.38316 0.37929 0.0
H2192 H 0.63185 0.38246 0.48577 0.0
C2193 C 0.59563 0.41526 0.46001 0.0
C2194 C 0.60095 0.42245 0.48958 0.0
C2195 C 0.6027 0.40486 0.44412 0.0
C2196 C 0.63188 0.38279 0.45605 0.0
H2197 H 0.66648 0.33663 0.38562 0.0
H2198 H 0.64831 0.34899 0.41286 0.0
H2199 H 0.64687 0.36796 0.45254 0.0
H2200 H 0.61753 0.42377 0.52703 0.0
H2201 H 0.6299 0.40568 0.49926 0.0
H2202 H 0.61786 0.39839 0.38282 0.0
C2203 C 0.65373 0.35339 0.39032 0.0
C2204 C 0.64039 0.37435 0.43692 0.0
C2205 C 0.66407 0.34624 0.37442 0.0
C2206 C 0.61311 0.41841 0.50443 0.0
C2207 C 0.62021 0.40801 0.48843 0.0
C2208 C 0.62392 0.3916 0.39842 0.0
C2209 C 0.65071 0.36622 0.37816 0.0
C2210 C 0.6409 0.37452 0.39827 0.0
C2211 C 0.61529 0.4014 0.45729 0.0
C2212 C 0.62363 0.39164 0.43709 0.0
H2213 H 0.6738 0.36873 0.31029 0.0
H2214 H 0.65581 0.38124 0.33807 0.0
H2215 H 0.63246 0.38349 0.34957 0.0
H2216 H 0.58625 0.41806 0.44799 0.0
H2217 H 0.59845 0.39979 0.42075 0.0
C2218 C 0.4058 0.9138 0.12678 0.0
C2219 C 0.40066 0.92213 0.09934 0.0
C2220 C 0.39801 0.90385 0.14234 0.0
C2221 C 0.38015 0.88033 0.16235 0.0
H2222 H 0.34516 0.89253 0.18936 0.0
C2223 C 0.33824 0.84659 0.21873 0.0
C2224 C 0.32987 0.85187 0.24585 0.0
C2225 C 0.3482 0.85431 0.20293 0.0
C2226 C 0.35494 0.889 0.18231 0.0
H2227 H 0.38355 0.92595 0.06514 0.0
H2228 H 0.36997 0.90857 0.09225 0.0
H2229 H 0.35972 0.90694 0.15428 0.0
H2230 H 0.32597 0.86916 0.27924 0.0
H2231 H 0.34337 0.88261 0.25174 0.0
H2232 H 0.37529 0.86236 0.19054 0.0
C2233 C 0.38 0.90984 0.10198 0.0
C2234 C 0.36322 0.89719 0.16171 0.0
C2235 C 0.38783 0.91971 0.08617 0.0
C2236 C 0.33224 0.86477 0.25846 0.0
C2237 C 0.34213 0.87253 0.24243 0.0
C2238 C 0.37179 0.87206 0.18267 0.0
C2239 C 0.38485 0.90208 0.13105 0.0
C2240 C 0.37593 0.89298 0.1515 0.0
C2241 C 0.34995 0.86752 0.21368 0.0
C2242 C 0.3591 0.87633 0.19305 0.0
H2243 H 0.41565 0.91538 0.13758 0.0
H2244 H 0.40204 0.89806 0.1647 0.0
H2245 H 0.38988 0.8768 0.15488 0.0
H2246 H 0.33669 0.83669 0.20835 0.0
H2247 H 0.35403 0.85017 0.18083 0.0
C2248 C 0.83862 0.34595 0.71413 0.0
C2249 C 0.83097 0.3515 0.74242 0.0
C2250 C 0.84908 0.35301 0.69849 0.0
C2251 C 0.86275 0.37384 0.65221 0.0
H2252 H 0.88537 0.3976 0.70694 0.0
C2253 C 0.89093 0.41747 0.58539 0.0
C2254 C 0.90313 0.42127 0.60048 0.0
C2255 C 0.88358 0.40723 0.60128 0.0
C2256 C 0.87928 0.39089 0.69118 0.0
H2257 H 0.82881 0.36856 0.77782 0.0
H2258 H 0.847 0.38091 0.75051 0.0
H2259 H 0.87045 0.38289 0.73978 0.0
H2260 H 0.91761 0.41662 0.64245 0.0
H2261 H 0.90497 0.39863 0.66953 0.0
H2262 H 0.87158 0.38185 0.6036 0.0
C2263 C 0.84499 0.37104 0.7405 0.0
C2264 C 0.87059 0.38256 0.71007 0.0
C2265 C 0.83453 0.36395 0.75622 0.0
C2266 C 0.90821 0.41401 0.63024 0.0
C2267 C 0.9009 0.40377 0.64604 0.0
C2268 C 0.87144 0.38218 0.63332 0.0
C2269 C 0.85214 0.36582 0.71067 0.0
C2270 C 0.8621 0.37402 0.69084 0.0
C2271 C 0.88829 0.40053 0.63255 0.0
C2272 C 0.87972 0.39092 0.65252 0.0
H2273 H 0.8362 0.33634 0.70292 0.0
H2274 H 0.85455 0.34855 0.67614 0.0
H2275 H 0.85625 0.36753 0.63641 0.0
H2276 H 0.88669 0.42289 0.56262 0.0
H2277 H 0.87389 0.40507 0.59022 0.0
C2278 C 0.40722 0.08819 0.45872 0.0
C2279 C 0.40214 0.08139 0.48929 0.0
C2280 C 0.40007 0.09846 0.44239 0.0
C2281 C 0.37866 0.11166 0.39712 0.0
H2282 H 0.35632 0.13589 0.45111 0.0
C2283 C 0.33459 0.1394 0.33092 0.0
C2284 C 0.33125 0.15197 0.34438 0.0
C2285 C 0.34487 0.13214 0.34697 0.0
C2286 C 0.36263 0.12934 0.43549 0.0
H2287 H 0.38587 0.08059 0.52788 0.0
H2288 H 0.37336 0.09842 0.49934 0.0
H2289 H 0.37139 0.12144 0.48434 0.0
H2290 H 0.3367 0.16712 0.38364 0.0
H2291 H 0.35477 0.15462 0.41093 0.0
H2292 H 0.36993 0.11958 0.34827 0.0
C2293 C 0.38293 0.09591 0.48807 0.0
C2294 C 0.37117 0.12091 0.45465 0.0
C2295 C 0.39012 0.08566 0.50451 0.0
C2296 C 0.33895 0.15743 0.37269 0.0
C2297 C 0.34925 0.1502 0.38863 0.0
C2298 C 0.37013 0.12009 0.37796 0.0
C2299 C 0.38762 0.10217 0.45609 0.0
C2300 C 0.37921 0.11185 0.43576 0.0
C2301 C 0.35208 0.13729 0.37678 0.0
C2302 C 0.36189 0.12895 0.39688 0.0
H2303 H 0.41649 0.08522 0.44636 0.0
H2304 H 0.40415 0.10325 0.41835 0.0
H2305 H 0.38456 0.10471 0.38156 0.0
H2306 H 0.32881 0.13485 0.30933 0.0
H2307 H 0.34669 0.1222 0.3372 0.0
C2308 C 0.61255 0.58526 0.08658 0.0
C2309 C 0.60053 0.58109 0.10202 0.0
C2310 C 0.61976 0.59556 0.10263 0.0
C2311 C 0.63146 0.62075 0.13517 0.0
H2312 H 0.63318 0.61949 0.24153 0.0
C2313 C 0.6638 0.65744 0.21587 0.0
C2314 C 0.6718 0.65195 0.24351 0.0
C2315 C 0.65343 0.65018 0.20047 0.0
C2316 C 0.63283 0.61998 0.21184 0.0
H2317 H 0.58622 0.58512 0.14491 0.0
H2318 H 0.59863 0.60321 0.17231 0.0
H2319 H 0.61845 0.60455 0.2088 0.0
H2320 H 0.67467 0.63476 0.27806 0.0
H2321 H 0.65663 0.62207 0.25118 0.0
H2322 H 0.64624 0.6358 0.13814 0.0
C2323 C 0.60267 0.59832 0.14838 0.0
C2324 C 0.62425 0.61151 0.19303 0.0
C2325 C 0.59549 0.58802 0.1324 0.0
C2326 C 0.66867 0.63933 0.25697 0.0
C2327 C 0.6583 0.63204 0.24149 0.0
C2328 C 0.64004 0.62922 0.15399 0.0
C2329 C 0.6151 0.60195 0.13444 0.0
C2330 C 0.62355 0.61167 0.15441 0.0
C2331 C 0.65081 0.63722 0.21226 0.0
C2332 C 0.64095 0.62885 0.19257 0.0
H2333 H 0.61676 0.58009 0.06332 0.0
H2334 H 0.62933 0.59802 0.09122 0.0
H2335 H 0.63111 0.62124 0.10549 0.0
H2336 H 0.66589 0.66717 0.20494 0.0
H2337 H 0.64769 0.65461 0.1786 0.0
C2338 C 0.16861 0.86335 0.83379 0.0
C2339 C 0.1723 0.851 0.84813 0.0
C2340 C 0.15833 0.8706 0.84987 0.0
C2341 C 0.14177 0.87436 0.93945 0.0
H2342 H 0.11806 0.89721 0.88521 0.0
C2343 C 0.11407 0.91861 0.00493 0.0
C2344 C 0.10147 0.92184 0.9914 0.0
C2345 C 0.12137 0.90831 0.98916 0.0
C2346 C 0.12448 0.89076 0.90085 0.0
H2347 H 0.16746 0.8362 0.88904 0.0
H2348 H 0.14946 0.84871 0.91656 0.0
H2349 H 0.13267 0.88225 0.85204 0.0
H2350 H 0.08631 0.91617 0.95237 0.0
H2351 H 0.09892 0.89812 0.92541 0.0
H2352 H 0.13362 0.88293 0.98826 0.0
C2353 C 0.15468 0.85295 0.89343 0.0
C2354 C 0.13297 0.88229 0.88176 0.0
C2355 C 0.16493 0.84571 0.87738 0.0
C2356 C 0.09601 0.914 0.96337 0.0
C2357 C 0.1033 0.90372 0.94763 0.0
C2358 C 0.1333 0.88287 0.95854 0.0
C2359 C 0.15152 0.86566 0.88064 0.0
C2360 C 0.14181 0.87406 0.90079 0.0
C2361 C 0.11623 0.90101 0.95951 0.0
C2362 C 0.12463 0.89127 0.93949 0.0
H2363 H 0.17412 0.86775 0.81143 0.0
H2364 H 0.15622 0.88037 0.83937 0.0
H2365 H 0.14855 0.86829 0.95506 0.0
H2366 H 0.11861 0.92448 0.02634 0.0
H2367 H 0.13132 0.90654 0.99893 0.0
loop_
_geom_bond_atom_site_label_1
_geom_bond_atom_site_label_2
_geom_bond_distance
_geom_bond_site_symmetry_2
_ccdc_geom_bond_type
O0 Cd1 2.223 . S
O0 C8 1.315 . S
Cd1 O0 2.223 . S
Cd1 O4 2.297 . S
Cd1 O5 2.439 . S
Cd1 O11 2.240 . S
Cd2 O3 2.240 . S
Cd2 O10 2.223 . S
Cd2 O12 2.297 1_554 S
Cd2 O13 2.439 1_554 S
O3 Cd2 2.240 . S
O3 C8 1.279 . S
O4 Cd1 2.297 . S
O4 C6 1.247 . S
O5 Cd1 2.439 . S
O5 C6 1.208 . S
C6 O4 1.247 . S
C6 O5 1.208 . S
C7 O12 1.247 . S
C7 O13 1.208 . S
C8 O0 1.315 . S
C8 O3 1.279 . S
C9 O10 1.315 . S
C9 O11 1.279 . S
O10 Cd2 2.223 . S
O10 C9 1.315 . S
O11 Cd1 2.240 . S
O11 C9 1.279 . S
O12 Cd2 2.297 1_556 S
O12 C7 1.247 . S
O13 Cd2 2.439 1_556 S
O13 C7 1.208 . S
O14 Cd15 2.223 . S
O14 C22 1.315 . S
Cd15 O14 2.223 . S
Cd15 O18 2.297 . S
Cd15 O19 2.439 . S
Cd15 O25 2.240 . S
Cd16 O17 2.240 . S
Cd16 O24 2.223 . S
Cd16 O26 2.297 . S
Cd16 O27 2.439 . S
O17 Cd16 2.240 . S
O17 C22 1.279 . S
O18 Cd15 2.297 . S
O18 C20 1.247 . S
O19 Cd15 2.439 . S
O19 C20 1.208 . S
C20 O18 1.247 . S
C20 O19 1.208 . S
C21 O26 1.247 . S
C21 O27 1.208 . S
C22 O14 1.315 . S
C22 O17 1.279 . S
C23 O24 1.315 . S
C23 O25 1.279 . S
O24 Cd16 2.223 . S
O24 C23 1.315 . S
O25 Cd15 2.240 . S
O25 C23 1.279 . S
O26 Cd16 2.297 . S
O26 C21 1.247 . S
O27 Cd16 2.439 . S
O27 C21 1.208 . S
O28 Cd29 2.223 . S
O28 C36 1.315 . S
Cd29 O28 2.223 . S
Cd29 O32 2.297 . S
Cd29 O33 2.439 . S
Cd29 O39 2.240 . S
Cd30 O31 2.240 . S
Cd30 O38 2.223 . S
Cd30 O40 2.297 . S
Cd30 O41 2.439 . S
O31 Cd30 2.240 . S
O31 C36 1.279 . S
O32 Cd29 2.297 . S
O32 C34 1.247 . S
O33 Cd29 2.439 . S
O33 C34 1.208 . S
C34 O32 1.247 . S
C34 O33 1.208 . S
C35 O40 1.247 . S
C35 O41 1.208 . S
C36 O28 1.315 . S
C36 O31 1.279 . S
C37 O38 1.315 . S
C37 O39 1.279 . S
O38 Cd30 2.223 . S
O38 C37 1.315 . S
O39 Cd29 2.240 . S
O39 C37 1.279 . S
O40 Cd30 2.297 . S
O40 C35 1.247 . S
O41 Cd30 2.439 . S
O41 C35 1.208 . S
O42 Cd43 2.223 . S
O42 C50 1.315 . S
Cd43 O42 2.223 . S
Cd43 O46 2.297 . S
Cd43 O47 2.439 . S
Cd43 O53 2.240 . S
Cd44 O45 2.240 . S
Cd44 O52 2.223 . S
Cd44 O54 2.297 . S
Cd44 O55 2.439 . S
O45 Cd44 2.240 . S
O45 C50 1.279 . S
O46 Cd43 2.297 . S
O46 C48 1.247 . S
O47 Cd43 2.439 . S
O47 C48 1.208 . S
C48 O46 1.247 . S
C48 O47 1.208 . S
C49 O54 1.247 . S
C49 O55 1.208 . S
C50 O42 1.315 . S
C50 O45 1.279 . S
C51 O52 1.315 . S
C51 O53 1.279 . S
O52 Cd44 2.223 . S
O52 C51 1.315 . S
O53 Cd43 2.240 . S
O53 C51 1.279 . S
O54 Cd44 2.297 . S
O54 C49 1.247 . S
O55 Cd44 2.439 . S
O55 C49 1.208 . S
O56 Cd57 2.223 . S
O56 C64 1.315 . S
Cd57 O56 2.223 . S
Cd57 O60 2.297 . S
Cd57 O61 2.439 . S
Cd57 O67 2.240 . S
Cd58 O59 2.240 . S
Cd58 O66 2.223 . S
Cd58 O68 2.297 . S
Cd58 O69 2.439 . S
O59 Cd58 2.240 . S
O59 C64 1.279 . S
O60 Cd57 2.297 . S
O60 C62 1.247 . S
O61 Cd57 2.439 . S
O61 C62 1.208 . S
C62 O60 1.247 . S
C62 O61 1.208 . S
C63 O68 1.247 . S
C63 O69 1.208 . S
C64 O56 1.315 . S
C64 O59 1.279 . S
C65 O66 1.315 . S
C65 O67 1.279 . S
O66 Cd58 2.223 . S
O66 C65 1.315 . S
O67 Cd57 2.240 . S
O67 C65 1.279 . S
O68 Cd58 2.297 . S
O68 C63 1.247 . S
O69 Cd58 2.439 . S
O69 C63 1.208 . S
O70 Cd71 2.223 . S
O70 C78 1.315 . S
Cd71 O70 2.223 . S
Cd71 O74 2.297 . S
Cd71 O75 2.439 . S
Cd71 O81 2.240 . S
Cd72 O73 2.240 . S
Cd72 O80 2.223 . S
Cd72 O82 2.297 . S
Cd72 O83 2.439 . S
O73 Cd72 2.240 . S
O73 C78 1.279 . S
O74 Cd71 2.297 . S
O74 C76 1.247 . S
O75 Cd71 2.439 . S
O75 C76 1.208 . S
C76 O74 1.247 . S
C76 O75 1.208 . S
C77 O82 1.247 . S
C77 O83 1.208 . S
C78 O70 1.315 . S
C78 O73 1.279 . S
C79 O80 1.315 . S
C79 O81 1.279 . S
O80 Cd72 2.223 . S
O80 C79 1.315 . S
O81 Cd71 2.240 . S
O81 C79 1.279 . S
O82 Cd72 2.297 . S
O82 C77 1.247 . S
O83 Cd72 2.439 . S
O83 C77 1.208 . S
O84 Cd85 2.223 . S
O84 C92 1.315 . S
Cd85 O84 2.223 . S
Cd85 O88 2.297 . S
Cd85 O89 2.439 1_556 S
Cd85 O95 2.240 1_556 S
Cd86 O87 2.240 1_554 S
Cd86 O94 2.223 . S
Cd86 O96 2.297 . S
Cd86 O97 2.439 . S
O87 Cd86 2.240 1_556 S
O87 C92 1.279 . S
O88 Cd85 2.297 . S
O88 C90 1.247 . S
O89 Cd85 2.439 1_554 S
O89 C90 1.208 1_554 S
C90 O88 1.247 . S
C90 O89 1.208 1_556 S
C91 O96 1.247 . S
C91 O97 1.208 . S
C92 O84 1.315 . S
C92 O87 1.279 . S
C93 O94 1.315 . S
C93 O95 1.279 . S
O94 Cd86 2.223 . S
O94 C93 1.315 . S
O95 Cd85 2.240 1_554 S
O95 C93 1.279 . S
O96 Cd86 2.297 . S
O96 C91 1.247 . S
O97 Cd86 2.439 . S
O97 C91 1.208 . S
O98 Cd99 2.223 . S
O98 C106 1.315 . S
Cd99 O98 2.223 . S
Cd99 O102 2.297 . S
Cd99 O103 2.439 . S
Cd99 O109 2.240 . S
Cd100 O101 2.240 . S
Cd100 O108 2.223 . S
Cd100 O110 2.297 . S
Cd100 O111 2.439 . S
O101 Cd100 2.240 . S
O101 C106 1.279 . S
O102 Cd99 2.297 . S
O102 C104 1.247 . S
O103 Cd99 2.439 . S
O103 C104 1.208 . S
C104 O102 1.247 . S
C104 O103 1.208 . S
C105 O110 1.247 . S
C105 O111 1.208 . S
C106 O98 1.315 . S
C106 O101 1.279 . S
C107 O108 1.315 . S
C107 O109 1.279 . S
O108 Cd100 2.223 . S
O108 C107 1.315 . S
O109 Cd99 2.240 . S
O109 C107 1.279 . S
O110 Cd100 2.297 . S
O110 C105 1.247 . S
O111 Cd100 2.439 . S
O111 C105 1.208 . S
O112 Cd113 2.223 . S
O112 C120 1.315 . S
Cd113 O112 2.223 . S
Cd113 O116 2.297 . S
Cd113 O117 2.439 1_556 S
Cd113 O123 2.240 1_556 S
Cd114 O115 2.240 1_554 S
Cd114 O122 2.223 . S
Cd114 O124 2.297 . S
Cd114 O125 2.439 . S
O115 Cd114 2.240 1_556 S
O115 C120 1.279 . S
O116 Cd113 2.297 . S
O116 C118 1.247 . S
O117 Cd113 2.439 1_554 S
O117 C118 1.208 1_554 S
C118 O116 1.247 . S
C118 O117 1.208 1_556 S
C119 O124 1.247 . S
C119 O125 1.208 . S
C120 O112 1.315 . S
C120 O115 1.279 . S
C121 O122 1.315 . S
C121 O123 1.279 . S
O122 Cd114 2.223 . S
O122 C121 1.315 . S
O123 Cd113 2.240 1_554 S
O123 C121 1.279 . S
O124 Cd114 2.297 . S
O124 C119 1.247 . S
O125 Cd114 2.439 . S
O125 C119 1.208 . S
O126 Cd127 2.223 . S
O126 C134 1.315 . S
Cd127 O126 2.223 . S
Cd127 O130 2.297 . S
Cd127 O131 2.439 . S
Cd127 O137 2.240 . S
Cd128 O129 2.240 . S
Cd128 O136 2.223 . S
Cd128 O138 2.297 . S
Cd128 O139 2.439 . S
O129 Cd128 2.240 . S
O129 C134 1.279 . S
O130 Cd127 2.297 . S
O130 C132 1.247 . S
O131 Cd127 2.439 . S
O131 C132 1.208 . S
C132 O130 1.247 . S
C132 O131 1.208 . S
C133 O138 1.247 . S
C133 O139 1.208 . S
C134 O126 1.315 . S
C134 O129 1.279 . S
C135 O136 1.315 . S
C135 O137 1.279 . S
O136 Cd128 2.223 . S
O136 C135 1.315 . S
O137 Cd127 2.240 . S
O137 C135 1.279 . S
O138 Cd128 2.297 . S
O138 C133 1.247 . S
O139 Cd128 2.439 . S
O139 C133 1.208 . S
O140 Cd141 2.223 . S
O140 C148 1.315 . S
Cd141 O140 2.223 . S
Cd141 O144 2.297 . S
Cd141 O145 2.439 . S
Cd141 O151 2.240 . S
Cd142 O143 2.240 . S
Cd142 O150 2.223 . S
Cd142 O152 2.297 . S
Cd142 O153 2.439 . S
O143 Cd142 2.240 . S
O143 C148 1.279 . S
O144 Cd141 2.297 . S
O144 C146 1.247 . S
O145 Cd141 2.439 . S
O145 C146 1.208 . S
C146 O144 1.247 . S
C146 O145 1.208 . S
C147 O152 1.247 . S
C147 O153 1.208 . S
C148 O140 1.315 . S
C148 O143 1.279 . S
C149 O150 1.315 . S
C149 O151 1.279 . S
O150 Cd142 2.223 . S
O150 C149 1.315 . S
O151 Cd141 2.240 . S
O151 C149 1.279 . S
O152 Cd142 2.297 . S
O152 C147 1.247 . S
O153 Cd142 2.439 . S
O153 C147 1.208 . S
O154 Cd155 2.223 . S
O154 C162 1.315 . S
Cd155 O154 2.223 . S
Cd155 O158 2.297 . S
Cd155 O159 2.439 . S
Cd155 O165 2.240 . S
Cd156 O157 2.240 . S
Cd156 O164 2.223 . S
Cd156 O166 2.297 . S
Cd156 O167 2.439 . S
O157 Cd156 2.240 . S
O157 C162 1.279 . S
O158 Cd155 2.297 . S
O158 C160 1.247 . S
O159 Cd155 2.439 . S
O159 C160 1.208 . S
C160 O158 1.247 . S
C160 O159 1.208 . S
C161 O166 1.247 . S
C161 O167 1.208 . S
C162 O154 1.315 . S
C162 O157 1.279 . S
C163 O164 1.315 . S
C163 O165 1.279 . S
O164 Cd156 2.223 . S
O164 C163 1.315 . S
O165 Cd155 2.240 . S
O165 C163 1.279 . S
O166 Cd156 2.297 . S
O166 C161 1.247 . S
O167 Cd156 2.439 . S
O167 C161 1.208 . S
O168 Cd169 2.223 . S
O168 C176 1.315 . S
Cd169 O168 2.223 . S
Cd169 O172 2.297 . S
Cd169 O173 2.439 . S
Cd169 O179 2.240 . S
Cd170 O171 2.240 . S
Cd170 O178 2.223 . S
Cd170 O180 2.297 . S
Cd170 O181 2.439 . S
O171 Cd170 2.240 . S
O171 C176 1.279 . S
O172 Cd169 2.297 . S
O172 C174 1.247 . S
O173 Cd169 2.439 . S
O173 C174 1.208 . S
C174 O172 1.247 . S
C174 O173 1.208 . S
C175 O180 1.247 . S
C175 O181 1.208 . S
C176 O168 1.315 . S
C176 O171 1.279 . S
C177 O178 1.315 . S
C177 O179 1.279 . S
O178 Cd170 2.223 . S
O178 C177 1.315 . S
O179 Cd169 2.240 . S
O179 C177 1.279 . S
O180 Cd170 2.297 . S
O180 C175 1.247 . S
O181 Cd170 2.439 . S
O181 C175 1.208 . S
O182 Cd183 2.223 . S
O182 C190 1.315 . S
Cd183 O182 2.223 . S
Cd183 O186 2.297 . S
Cd183 O187 2.439 . S
Cd183 O193 2.240 . S
Cd184 O185 2.240 . S
Cd184 O192 2.223 . S
Cd184 O194 2.297 . S
Cd184 O195 2.439 . S
O185 Cd184 2.240 . S
O185 C190 1.279 . S
O186 Cd183 2.297 . S
O186 C188 1.247 . S
O187 Cd183 2.439 . S
O187 C188 1.208 . S
C188 O186 1.247 . S
C188 O187 1.208 . S
C189 O194 1.247 . S
C189 O195 1.208 . S
C190 O182 1.315 . S
C190 O185 1.279 . S
C191 O192 1.315 . S
C191 O193 1.279 . S
O192 Cd184 2.223 . S
O192 C191 1.315 . S
O193 Cd183 2.240 . S
O193 C191 1.279 . S
O194 Cd184 2.297 . S
O194 C189 1.247 . S
O195 Cd184 2.439 . S
O195 C189 1.208 . S
O196 Cd197 2.223 . S
O196 C204 1.315 . S
Cd197 O196 2.223 . S
Cd197 O200 2.297 . S
Cd197 O201 2.439 . S
Cd197 O207 2.240 . S
Cd198 O199 2.240 . S
Cd198 O206 2.223 . S
Cd198 O208 2.297 1_554 S
Cd198 O209 2.439 1_554 S
O199 Cd198 2.240 . S
O199 C204 1.279 . S
O200 Cd197 2.297 . S
O200 C202 1.247 . S
O201 Cd197 2.439 . S
O201 C202 1.208 . S
C202 O200 1.247 . S
C202 O201 1.208 . S
C203 O208 1.247 . S
C203 O209 1.208 . S
C204 O196 1.315 . S
C204 O199 1.279 . S
C205 O206 1.315 . S
C205 O207 1.279 . S
O206 Cd198 2.223 . S
O206 C205 1.315 . S
O207 Cd197 2.240 . S
O207 C205 1.279 . S
O208 Cd198 2.297 1_556 S
O208 C203 1.247 . S
O209 Cd198 2.439 1_556 S
O209 C203 1.208 . S
O210 Cd211 2.223 . S
O210 C218 1.315 . S
Cd211 O210 2.223 . S
Cd211 O214 2.297 . S
Cd211 O215 2.439 . S
Cd211 O221 2.240 . S
Cd212 O213 2.240 . S
Cd212 O220 2.223 . S
Cd212 O222 2.297 . S
Cd212 O223 2.439 . S
O213 Cd212 2.240 . S
O213 C218 1.279 . S
O214 Cd211 2.297 . S
O214 C216 1.247 . S
O215 Cd211 2.439 . S
O215 C216 1.208 . S
C216 O214 1.247 . S
C216 O215 1.208 . S
C217 O222 1.247 . S
C217 O223 1.208 . S
C218 O210 1.315 . S
C218 O213 1.279 . S
C219 O220 1.315 . S
C219 O221 1.279 . S
O220 Cd212 2.223 . S
O220 C219 1.315 . S
O221 Cd211 2.240 . S
O221 C219 1.279 . S
O222 Cd212 2.297 . S
O222 C217 1.247 . S
O223 Cd212 2.439 . S
O223 C217 1.208 . S
O224 Cd225 2.223 . S
O224 C232 1.315 . S
Cd225 O224 2.223 . S
Cd225 O228 2.297 . S
Cd225 O229 2.439 . S
Cd225 O235 2.240 . S
Cd226 O227 2.240 . S
Cd226 O234 2.223 . S
Cd226 O236 2.297 . S
Cd226 O237 2.439 . S
O227 Cd226 2.240 . S
O227 C232 1.279 . S
O228 Cd225 2.297 . S
O228 C230 1.247 . S
O229 Cd225 2.439 . S
O229 C230 1.208 . S
C230 O228 1.247 . S
C230 O229 1.208 . S
C231 O236 1.247 . S
C231 O237 1.208 . S
C232 O224 1.315 . S
C232 O227 1.279 . S
C233 O234 1.315 . S
C233 O235 1.279 . S
O234 Cd226 2.223 . S
O234 C233 1.315 . S
O235 Cd225 2.240 . S
O235 C233 1.279 . S
O236 Cd226 2.297 . S
O236 C231 1.247 . S
O237 Cd226 2.439 . S
O237 C231 1.208 . S
O238 Cd239 2.223 . S
O238 C246 1.315 . S
Cd239 O238 2.223 . S
Cd239 O242 2.297 . S
Cd239 O243 2.439 . S
Cd239 O249 2.240 . S
Cd240 O241 2.240 . S
Cd240 O248 2.223 . S
Cd240 O250 2.297 . S
Cd240 O251 2.439 . S
O241 Cd240 2.240 . S
O241 C246 1.279 . S
O242 Cd239 2.297 . S
O242 C244 1.247 . S
O243 Cd239 2.439 . S
O243 C244 1.208 . S
C244 O242 1.247 . S
C244 O243 1.208 . S
C245 O250 1.247 . S
C245 O251 1.208 . S
C246 O238 1.315 . S
C246 O241 1.279 . S
C247 O248 1.315 . S
C247 O249 1.279 . S
O248 Cd240 2.223 . S
O248 C247 1.315 . S
O249 Cd239 2.240 . S
O249 C247 1.279 . S
O250 Cd240 2.297 . S
O250 C245 1.247 . S
O251 Cd240 2.439 . S
O251 C245 1.208 . S
O252 Cd253 2.223 . S
O252 C260 1.315 . S
Cd253 O252 2.223 . S
Cd253 O256 2.297 . S
Cd253 O257 2.439 . S
Cd253 O263 2.240 . S
Cd254 O255 2.240 . S
Cd254 O262 2.223 . S
Cd254 O264 2.297 1_554 S
Cd254 O265 2.439 1_554 S
O255 Cd254 2.240 . S
O255 C260 1.279 . S
O256 Cd253 2.297 . S
O256 C258 1.247 . S
O257 Cd253 2.439 . S
O257 C258 1.208 . S
C258 O256 1.247 . S
C258 O257 1.208 . S
C259 O264 1.247 . S
C259 O265 1.208 . S
C260 O252 1.315 . S
C260 O255 1.279 . S
C261 O262 1.315 . S
C261 O263 1.279 . S
O262 Cd254 2.223 . S
O262 C261 1.315 . S
O263 Cd253 2.240 . S
O263 C261 1.279 . S
O264 Cd254 2.297 1_556 S
O264 C259 1.247 . S
O265 Cd254 2.439 1_556 S
O265 C259 1.208 . S
O266 Cd267 2.223 . S
O266 C274 1.315 . S
Cd267 O266 2.223 . S
Cd267 O270 2.297 . S
Cd267 O271 2.439 . S
Cd267 O277 2.240 . S
Cd268 O269 2.240 . S
Cd268 O276 2.223 . S
Cd268 O278 2.297 . S
Cd268 O279 2.439 . S
O269 Cd268 2.240 . S
O269 C274 1.279 . S
O270 Cd267 2.297 . S
O270 C272 1.247 . S
O271 Cd267 2.439 . S
O271 C272 1.208 . S
C272 O270 1.247 . S
C272 O271 1.208 . S
C273 O278 1.247 . S
C273 O279 1.208 . S
C274 O266 1.315 . S
C274 O269 1.279 . S
C275 O276 1.315 . S
C275 O277 1.279 . S
O276 Cd268 2.223 . S
O276 C275 1.315 . S
O277 Cd267 2.240 . S
O277 C275 1.279 . S
O278 Cd268 2.297 . S
O278 C273 1.247 . S
O279 Cd268 2.439 . S
O279 C273 1.208 . S
O280 Cd281 2.223 . S
O280 C288 1.315 . S
Cd281 O280 2.223 . S
Cd281 O284 2.297 . S
Cd281 O285 2.439 1_556 S
Cd281 O291 2.240 1_556 S
Cd282 O283 2.240 1_554 S
Cd282 O290 2.223 . S
Cd282 O292 2.297 . S
Cd282 O293 2.439 . S
O283 Cd282 2.240 1_556 S
O283 C288 1.279 . S
O284 Cd281 2.297 . S
O284 C286 1.247 . S
O285 Cd281 2.439 1_554 S
O285 C286 1.208 1_554 S
C286 O284 1.247 . S
C286 O285 1.208 1_556 S
C287 O292 1.247 . S
C287 O293 1.208 . S
C288 O280 1.315 . S
C288 O283 1.279 . S
C289 O290 1.315 . S
C289 O291 1.279 . S
O290 Cd282 2.223 . S
O290 C289 1.315 . S
O291 Cd281 2.240 1_554 S
O291 C289 1.279 . S
O292 Cd282 2.297 . S
O292 C287 1.247 . S
O293 Cd282 2.439 . S
O293 C287 1.208 . S
O294 Cd295 2.223 . S
O294 C302 1.315 . S
Cd295 O294 2.223 . S
Cd295 O298 2.297 . S
Cd295 O299 2.439 . S
Cd295 O305 2.240 . S
Cd296 O297 2.240 . S
Cd296 O304 2.223 . S
Cd296 O306 2.297 . S
Cd296 O307 2.439 . S
O297 Cd296 2.240 . S
O297 C302 1.279 . S
O298 Cd295 2.297 . S
O298 C300 1.247 . S
O299 Cd295 2.439 . S
O299 C300 1.208 . S
C300 O298 1.247 . S
C300 O299 1.208 . S
C301 O306 1.247 . S
C301 O307 1.208 . S
C302 O294 1.315 . S
C302 O297 1.279 . S
C303 O304 1.315 . S
C303 O305 1.279 . S
O304 Cd296 2.223 . S
O304 C303 1.315 . S
O305 Cd295 2.240 . S
O305 C303 1.279 . S
O306 Cd296 2.297 . S
O306 C301 1.247 . S
O307 Cd296 2.439 . S
O307 C301 1.208 . S
O308 Cd309 2.223 . S
O308 C316 1.315 . S
Cd309 O308 2.223 . S
Cd309 O312 2.297 . S
Cd309 O313 2.439 . S
Cd309 O319 2.240 . S
Cd310 O311 2.240 . S
Cd310 O318 2.223 . S
Cd310 O320 2.297 . S
Cd310 O321 2.439 . S
O311 Cd310 2.240 . S
O311 C316 1.279 . S
O312 Cd309 2.297 . S
O312 C314 1.247 . S
O313 Cd309 2.439 . S
O313 C314 1.208 . S
C314 O312 1.247 . S
C314 O313 1.208 . S
C315 O320 1.247 . S
C315 O321 1.208 . S
C316 O308 1.315 . S
C316 O311 1.279 . S
C317 O318 1.315 . S
C317 O319 1.279 . S
O318 Cd310 2.223 . S
O318 C317 1.315 . S
O319 Cd309 2.240 . S
O319 C317 1.279 . S
O320 Cd310 2.297 . S
O320 C315 1.247 . S
O321 Cd310 2.439 . S
O321 C315 1.208 . S
O322 Cd323 2.223 . S
O322 C330 1.315 . S
Cd323 O322 2.223 . S
Cd323 O326 2.297 . S
Cd323 O327 2.439 . S
Cd323 O333 2.240 . S
Cd324 O325 2.240 . S
Cd324 O332 2.223 . S
Cd324 O334 2.297 . S
Cd324 O335 2.439 . S
O325 Cd324 2.240 . S
O325 C330 1.279 . S
O326 Cd323 2.297 . S
O326 C328 1.247 . S
O327 Cd323 2.439 . S
O327 C328 1.208 . S
C328 O326 1.247 . S
C328 O327 1.208 . S
C329 O334 1.247 . S
C329 O335 1.208 . S
C330 O322 1.315 . S
C330 O325 1.279 . S
C331 O332 1.315 . S
C331 O333 1.279 . S
O332 Cd324 2.223 . S
O332 C331 1.315 . S
O333 Cd323 2.240 . S
O333 C331 1.279 . S
O334 Cd324 2.297 . S
O334 C329 1.247 . S
O335 Cd324 2.439 . S
O335 C329 1.208 . S
O336 Cd337 2.223 . S
O336 C344 1.315 . S
Cd337 O336 2.223 . S
Cd337 O340 2.297 . S
Cd337 O341 2.439 . S
Cd337 O347 2.240 . S
Cd338 O339 2.240 . S
Cd338 O346 2.223 . S
Cd338 O348 2.297 . S
Cd338 O349 2.439 . S
O339 Cd338 2.240 . S
O339 C344 1.279 . S
O340 Cd337 2.297 . S
O340 C342 1.247 . S
O341 Cd337 2.439 . S
O341 C342 1.208 . S
C342 O340 1.247 . S
C342 O341 1.208 . S
C343 O348 1.247 . S
C343 O349 1.208 . S
C344 O336 1.315 . S
C344 O339 1.279 . S
C345 O346 1.315 . S
C345 O347 1.279 . S
O346 Cd338 2.223 . S
O346 C345 1.315 . S
O347 Cd337 2.240 . S
O347 C345 1.279 . S
O348 Cd338 2.297 . S
O348 C343 1.247 . S
O349 Cd338 2.439 . S
O349 C343 1.208 . S
O350 Cd351 2.223 . S
O350 C358 1.315 . S
Cd351 O350 2.223 . S
Cd351 O354 2.297 . S
Cd351 O355 2.439 . S
Cd351 O361 2.240 . S
Cd352 O353 2.240 . S
Cd352 O360 2.223 . S
Cd352 O362 2.297 . S
Cd352 O363 2.439 . S
O353 Cd352 2.240 . S
O353 C358 1.279 . S
O354 Cd351 2.297 . S
O354 C356 1.247 . S
O355 Cd351 2.439 . S
O355 C356 1.208 . S
C356 O354 1.247 . S
C356 O355 1.208 . S
C357 O362 1.247 . S
C357 O363 1.208 . S
C358 O350 1.315 . S
C358 O353 1.279 . S
C359 O360 1.315 . S
C359 O361 1.279 . S
O360 Cd352 2.223 . S
O360 C359 1.315 . S
O361 Cd351 2.240 . S
O361 C359 1.279 . S
O362 Cd352 2.297 . S
O362 C357 1.247 . S
O363 Cd352 2.439 . S
O363 C357 1.208 . S
O364 Cd365 2.223 . S
O364 C372 1.315 . S
Cd365 O364 2.223 . S
Cd365 O368 2.297 . S
Cd365 O369 2.439 1_556 S
Cd365 O375 2.240 1_556 S
Cd366 O367 2.240 1_554 S
Cd366 O374 2.223 . S
Cd366 O376 2.297 . S
Cd366 O377 2.439 . S
O367 Cd366 2.240 1_556 S
O367 C372 1.279 . S
O368 Cd365 2.297 . S
O368 C370 1.247 . S
O369 Cd365 2.439 1_554 S
O369 C370 1.208 1_554 S
C370 O368 1.247 . S
C370 O369 1.208 1_556 S
C371 O376 1.247 . S
C371 O377 1.208 . S
C372 O364 1.315 . S
C372 O367 1.279 . S
C373 O374 1.315 . S
C373 O375 1.279 . S
O374 Cd366 2.223 . S
O374 C373 1.315 . S
O375 Cd365 2.240 1_554 S
O375 C373 1.279 . S
O376 Cd366 2.297 . S
O376 C371 1.247 . S
O377 Cd366 2.439 . S
O377 C371 1.208 . S
O378 Cd379 2.223 . S
O378 C386 1.315 . S
Cd379 O378 2.223 . S
Cd379 O382 2.297 . S
Cd379 O383 2.439 . S
Cd379 O389 2.240 . S
Cd380 O381 2.240 . S
Cd380 O388 2.223 . S
Cd380 O390 2.297 . S
Cd380 O391 2.439 . S
O381 Cd380 2.240 . S
O381 C386 1.279 . S
O382 Cd379 2.297 . S
O382 C384 1.247 . S
O383 Cd379 2.439 . S
O383 C384 1.208 . S
C384 O382 1.247 . S
C384 O383 1.208 . S
C385 O390 1.247 . S
C385 O391 1.208 . S
C386 O378 1.315 . S
C386 O381 1.279 . S
C387 O388 1.315 . S
C387 O389 1.279 . S
O388 Cd380 2.223 . S
O388 C387 1.315 . S
O389 Cd379 2.240 . S
O389 C387 1.279 . S
O390 Cd380 2.297 . S
O390 C385 1.247 . S
O391 Cd380 2.439 . S
O391 C385 1.208 . S
O392 Cd393 2.223 . S
O392 C400 1.315 . S
Cd393 O392 2.223 . S
Cd393 O396 2.297 . S
Cd393 O397 2.439 . S
Cd393 O403 2.240 . S
Cd394 O395 2.240 . S
Cd394 O402 2.223 . S
Cd394 O404 2.297 1_554 S
Cd394 O405 2.439 1_554 S
O395 Cd394 2.240 . S
O395 C400 1.279 . S
O396 Cd393 2.297 . S
O396 C398 1.247 . S
O397 Cd393 2.439 . S
O397 C398 1.208 . S
C398 O396 1.247 . S
C398 O397 1.208 . S
C399 O404 1.247 . S
C399 O405 1.208 . S
C400 O392 1.315 . S
C400 O395 1.279 . S
C401 O402 1.315 . S
C401 O403 1.279 . S
O402 Cd394 2.223 . S
O402 C401 1.315 . S
O403 Cd393 2.240 . S
O403 C401 1.279 . S
O404 Cd394 2.297 1_556 S
O404 C399 1.247 . S
O405 Cd394 2.439 1_556 S
O405 C399 1.208 . S
O406 Cd407 2.223 . S
O406 C414 1.315 . S
Cd407 O406 2.223 . S
Cd407 O410 2.297 . S
Cd407 O411 2.439 . S
Cd407 O417 2.240 . S
Cd408 O409 2.240 . S
Cd408 O416 2.223 . S
Cd408 O418 2.297 . S
Cd408 O419 2.439 . S
O409 Cd408 2.240 . S
O409 C414 1.279 . S
O410 Cd407 2.297 . S
O410 C412 1.247 . S
O411 Cd407 2.439 . S
O411 C412 1.208 . S
C412 O410 1.247 . S
C412 O411 1.208 . S
C413 O418 1.247 . S
C413 O419 1.208 . S
C414 O406 1.315 . S
C414 O409 1.279 . S
C415 O416 1.315 . S
C415 O417 1.279 . S
O416 Cd408 2.223 . S
O416 C415 1.315 . S
O417 Cd407 2.240 . S
O417 C415 1.279 . S
O418 Cd408 2.297 . S
O418 C413 1.247 . S
O419 Cd408 2.439 . S
O419 C413 1.208 . S
O420 Cd421 2.223 . S
O420 C428 1.315 . S
Cd421 O420 2.223 . S
Cd421 O424 2.297 . S
Cd421 O425 2.439 . S
Cd421 O431 2.240 . S
Cd422 O423 2.240 . S
Cd422 O430 2.223 . S
Cd422 O432 2.297 . S
Cd422 O433 2.439 . S
O423 Cd422 2.240 . S
O423 C428 1.279 . S
O424 Cd421 2.297 . S
O424 C426 1.247 . S
O425 Cd421 2.439 . S
O425 C426 1.208 . S
C426 O424 1.247 . S
C426 O425 1.208 . S
C427 O432 1.247 . S
C427 O433 1.208 . S
C428 O420 1.315 . S
C428 O423 1.279 . S
C429 O430 1.315 . S
C429 O431 1.279 . S
O430 Cd422 2.223 . S
O430 C429 1.315 . S
O431 Cd421 2.240 . S
O431 C429 1.279 . S
O432 Cd422 2.297 . S
O432 C427 1.247 . S
O433 Cd422 2.439 . S
O433 C427 1.208 . S
O434 Cd435 2.223 . S
O434 C442 1.315 . S
Cd435 O434 2.223 . S
Cd435 O438 2.297 . S
Cd435 O439 2.439 . S
Cd435 O445 2.240 . S
Cd436 O437 2.240 . S
Cd436 O444 2.223 . S
Cd436 O446 2.297 . S
Cd436 O447 2.439 . S
O437 Cd436 2.240 . S
O437 C442 1.279 . S
O438 Cd435 2.297 . S
O438 C440 1.247 . S
O439 Cd435 2.439 . S
O439 C440 1.208 . S
C440 O438 1.247 . S
C440 O439 1.208 . S
C441 O446 1.247 . S
C441 O447 1.208 . S
C442 O434 1.315 . S
C442 O437 1.279 . S
C443 O444 1.315 . S
C443 O445 1.279 . S
O444 Cd436 2.223 . S
O444 C443 1.315 . S
O445 Cd435 2.240 . S
O445 C443 1.279 . S
O446 Cd436 2.297 . S
O446 C441 1.247 . S
O447 Cd436 2.439 . S
O447 C441 1.208 . S
C448 C449 1.349 . S
C448 C450 1.327 . S
C448 H473 0.950 . S
C449 C448 1.349 . S
C449 C465 1.340 1_554 S
C450 C448 1.327 . S
C450 C469 1.429 . S
C450 H474 0.950 . S
C451 C468 1.574 1_655 S
C451 C470 1.368 . S
C451 H475 0.949 1_554 S
H452 C456 0.949 . S
C453 C454 1.349 . S
C453 C455 1.327 . S
C453 H476 0.950 . S
C454 C453 1.349 . S
C454 C466 1.349 . S
C455 C453 1.327 . S
C455 C471 1.429 . S
C455 H477 0.976 . S
C456 H452 0.949 . S
C456 C464 1.574 1_455 S
C456 C472 1.368 . S
H457 C465 0.960 . S
H458 C463 0.950 1_556 S
H459 C464 0.949 . S
H460 C466 0.950 . S
H461 C467 0.950 . S
H462 C468 0.949 1_556 S
C463 H458 0.950 1_554 S
C463 C465 1.326 1_554 S
C463 C469 1.429 . S
C464 C456 1.574 1_655 S
C464 H459 0.949 . S
C464 C470 1.368 . S
C465 C449 1.340 1_556 S
C465 H457 0.960 . S
C465 C463 1.326 1_556 S
C466 C454 1.349 . S
C466 H460 0.950 . S
C466 C467 1.327 . S
C467 H461 0.950 . S
C467 C466 1.327 . S
C467 C471 1.429 . S
C468 C451 1.574 1_455 S
C468 H462 0.949 1_554 S
C468 C472 1.368 . S
C469 C450 1.429 . S
C469 C463 1.429 . S
C469 C470 1.523 . S
C470 C451 1.368 . S
C470 C464 1.368 . S
C470 C469 1.523 . S
C471 C455 1.429 . S
C471 C467 1.429 . S
C471 C472 1.523 . S
C472 C456 1.368 . S
C472 C468 1.368 . S
C472 C471 1.523 . S
H473 C448 0.950 . S
H474 C450 0.950 . S
H475 C451 0.949 1_556 S
H476 C453 0.950 . S
H477 C455 0.976 . S
C478 C479 1.349 . S
C478 C480 1.327 . S
C478 H503 0.950 . S
C479 C478 1.349 . S
C479 C495 1.349 . S
C480 C478 1.327 . S
C480 C499 1.429 . S
C480 H504 0.950 . S
C481 C498 1.574 . S
C481 C500 1.368 . S
C481 H505 0.949 . S
H482 C486 0.949 . S
C483 C484 1.349 . S
C483 C485 1.327 . S
C483 H506 0.950 . S
C484 C483 1.349 . S
C484 C496 1.349 . S
C485 C483 1.327 . S
C485 C501 1.429 . S
C485 H507 0.950 . S
C486 H482 0.949 . S
C486 C494 1.574 . S
C486 C502 1.368 . S
H487 C495 0.950 . S
H488 C493 0.950 . S
H489 C494 0.949 . S
H490 C496 0.950 . S
H491 C497 0.950 . S
H492 C498 0.949 . S
C493 H488 0.950 . S
C493 C495 1.327 . S
C493 C499 1.429 . S
C494 C486 1.574 . S
C494 H489 0.949 . S
C494 C500 1.368 . S
C495 C479 1.349 . S
C495 H487 0.950 . S
C495 C493 1.327 . S
C496 C484 1.349 . S
C496 H490 0.950 . S
C496 C497 1.327 . S
C497 H491 0.950 . S
C497 C496 1.327 . S
C497 C501 1.429 . S
C498 C481 1.574 . S
C498 H492 0.949 . S
C498 C502 1.368 . S
C499 C480 1.429 . S
C499 C493 1.429 . S
C499 C500 1.523 . S
C500 C481 1.368 . S
C500 C494 1.368 . S
C500 C499 1.523 . S
C501 C485 1.429 . S
C501 C497 1.429 . S
C501 C502 1.523 . S
C502 C486 1.368 . S
C502 C498 1.368 . S
C502 C501 1.523 . S
H503 C478 0.950 . S
H504 C480 0.950 . S
H505 C481 0.949 . S
H506 C483 0.950 . S
H507 C485 0.950 . S
C508 C509 1.349 . S
C508 C510 1.327 . S
C508 H533 0.950 . S
C509 C508 1.349 . S
C509 C525 1.349 . S
C510 C508 1.327 . S
C510 C529 1.429 . S
C510 H534 0.950 . S
C511 C528 1.574 . S
C511 C530 1.368 . S
C511 H535 0.949 . S
H512 C516 0.949 . S
C513 C514 1.349 . S
C513 C515 1.327 . S
C513 H536 0.950 . S
C514 C513 1.349 . S
C514 C526 1.349 . S
C515 C513 1.327 . S
C515 C531 1.429 . S
C515 H537 0.950 . S
C516 H512 0.949 . S
C516 C524 1.574 . S
C516 C532 1.368 . S
H517 C525 0.950 . S
H518 C523 0.950 . S
H519 C524 0.949 . S
H520 C526 0.950 . S
H521 C527 0.950 . S
H522 C528 0.949 . S
C523 H518 0.950 . S
C523 C525 1.327 . S
C523 C529 1.429 . S
C524 C516 1.574 . S
C524 H519 0.949 . S
C524 C530 1.368 . S
C525 C509 1.349 . S
C525 H517 0.950 . S
C525 C523 1.327 . S
C526 C514 1.349 . S
C526 H520 0.950 . S
C526 C527 1.327 . S
C527 H521 0.950 . S
C527 C526 1.327 . S
C527 C531 1.429 . S
C528 C511 1.574 . S
C528 H522 0.949 . S
C528 C532 1.368 . S
C529 C510 1.429 . S
C529 C523 1.429 . S
C529 C530 1.523 . S
C530 C511 1.368 . S
C530 C524 1.368 . S
C530 C529 1.523 . S
C531 C515 1.429 . S
C531 C527 1.429 . S
C531 C532 1.523 . S
C532 C516 1.368 . S
C532 C528 1.368 . S
C532 C531 1.523 . S
H533 C508 0.950 . S
H534 C510 0.950 . S
H535 C511 0.949 . S
H536 C513 0.950 . S
H537 C515 0.950 . S
C538 C539 1.349 . S
C538 C540 1.327 . S
C538 H563 0.950 . S
C539 C538 1.349 . S
C539 C555 1.349 . S
C540 C538 1.327 . S
C540 C559 1.429 . S
C540 H564 0.950 . S
C541 C558 1.574 . S
C541 C560 1.368 . S
C541 H565 0.949 . S
H542 C546 0.949 . S
C543 C544 1.349 . S
C543 C545 1.327 . S
C543 H566 0.950 . S
C544 C543 1.349 . S
C544 C556 1.349 . S
C545 C543 1.327 . S
C545 C561 1.429 . S
C545 H567 0.950 . S
C546 H542 0.949 . S
C546 C554 1.574 . S
C546 C562 1.368 . S
H547 C555 0.950 . S
H548 C553 0.950 . S
H549 C554 0.949 . S
H550 C556 0.950 . S
H551 C557 0.950 . S
H552 C558 0.949 . S
C553 H548 0.950 . S
C553 C555 1.327 . S
C553 C559 1.429 . S
C554 C546 1.574 . S
C554 H549 0.949 . S
C554 C560 1.368 . S
C555 C539 1.349 . S
C555 H547 0.950 . S
C555 C553 1.327 . S
C556 C544 1.349 . S
C556 H550 0.950 . S
C556 C557 1.327 . S
C557 H551 0.950 . S
C557 C556 1.327 . S
C557 C561 1.429 . S
C558 C541 1.574 . S
C558 H552 0.949 . S
C558 C562 1.368 . S
C559 C540 1.429 . S
C559 C553 1.429 . S
C559 C560 1.523 . S
C560 C541 1.368 . S
C560 C554 1.368 . S
C560 C559 1.523 . S
C561 C545 1.429 . S
C561 C557 1.429 . S
C561 C562 1.523 . S
C562 C546 1.368 . S
C562 C558 1.368 . S
C562 C561 1.523 . S
H563 C538 0.950 . S
H564 C540 0.950 . S
H565 C541 0.949 . S
H566 C543 0.950 . S
H567 C545 0.950 . S
C568 C569 1.349 . S
C568 C570 1.327 . S
C568 H593 0.950 . S
C569 C568 1.349 . S
C569 C585 1.349 . S
C570 C568 1.327 . S
C570 C589 1.429 . S
C570 H594 0.950 . S
C571 C588 1.574 1_455 S
C571 C590 1.368 . S
C571 H595 0.949 . S
H572 C576 0.949 . S
C573 C574 1.349 . S
C573 C575 1.327 . S
C573 H596 0.950 . S
C574 C573 1.349 . S
C574 C586 1.349 . S
C575 C573 1.327 . S
C575 C591 1.429 . S
C575 H597 0.950 . S
C576 H572 0.949 . S
C576 C584 1.574 1_655 S
C576 C592 1.368 . S
H577 C585 0.950 . S
H578 C583 0.950 . S
H579 C584 0.949 . S
H580 C586 0.950 . S
H581 C587 0.950 . S
H582 C588 0.949 . S
C583 H578 0.950 . S
C583 C585 1.327 . S
C583 C589 1.429 . S
C584 C576 1.574 1_455 S
C584 H579 0.949 . S
C584 C590 1.368 . S
C585 C569 1.349 . S
C585 H577 0.950 . S
C585 C583 1.327 . S
C586 C574 1.349 . S
C586 H580 0.950 . S
C586 C587 1.327 . S
C587 H581 0.950 . S
C587 C586 1.327 . S
C587 C591 1.429 . S
C588 C571 1.574 1_655 S
C588 H582 0.949 . S
C588 C592 1.368 . S
C589 C570 1.429 . S
C589 C583 1.429 . S
C589 C590 1.523 . S
C590 C571 1.368 . S
C590 C584 1.368 . S
C590 C589 1.523 . S
C591 C575 1.429 . S
C591 C587 1.429 . S
C591 C592 1.523 . S
C592 C576 1.368 . S
C592 C588 1.368 . S
C592 C591 1.523 . S
H593 C568 0.950 . S
H594 C570 0.950 . S
H595 C571 0.949 . S
H596 C573 0.950 . S
H597 C575 0.950 . S
C598 C599 1.349 . S
C598 C600 1.327 . S
C598 H623 0.950 . S
C599 C598 1.349 . S
C599 C615 1.349 . S
C600 C598 1.327 . S
C600 C619 1.429 . S
C600 H624 0.950 . S
C601 C618 1.574 . S
C601 C620 1.368 . S
C601 H625 0.949 . S
H602 C606 0.949 . S
C603 C604 1.349 . S
C603 C605 1.327 . S
C603 H626 0.950 . S
C604 C603 1.349 . S
C604 C616 1.349 . S
C605 C603 1.327 . S
C605 C621 1.429 . S
C605 H627 0.950 . S
C606 H602 0.949 . S
C606 C614 1.574 . S
C606 C622 1.368 . S
H607 C615 0.950 . S
H608 C613 0.950 . S
H609 C614 0.949 . S
H610 C616 0.950 . S
H611 C617 0.950 . S
H612 C618 0.949 . S
C613 H608 0.950 . S
C613 C615 1.327 . S
C613 C619 1.429 . S
C614 C606 1.574 . S
C614 H609 0.949 . S
C614 C620 1.368 . S
C615 C599 1.349 . S
C615 H607 0.950 . S
C615 C613 1.327 . S
C616 C604 1.349 . S
C616 H610 0.950 . S
C616 C617 1.327 . S
C617 H611 0.950 . S
C617 C616 1.327 . S
C617 C621 1.429 . S
C618 C601 1.574 . S
C618 H612 0.949 . S
C618 C622 1.368 . S
C619 C600 1.429 . S
C619 C613 1.429 . S
C619 C620 1.523 . S
C620 C601 1.368 . S
C620 C614 1.368 . S
C620 C619 1.523 . S
C621 C605 1.429 . S
C621 C617 1.429 . S
C621 C622 1.523 . S
C622 C606 1.368 . S
C622 C618 1.368 . S
C622 C621 1.523 . S
H623 C598 0.950 . S
H624 C600 0.950 . S
H625 C601 0.949 . S
H626 C603 0.950 . S
H627 C605 0.950 . S
C628 C629 1.349 . S
C628 C630 1.327 . S
C628 H653 0.950 . S
C629 C628 1.349 . S
C629 C645 1.349 . S
C630 C628 1.327 . S
C630 C649 1.429 . S
C630 H654 0.943 1_554 S
C631 C648 1.574 . S
C631 C650 1.368 . S
C631 H655 0.949 . S
H632 C636 0.949 1_556 S
C633 C634 1.349 . S
C633 C635 1.327 . S
C633 H656 0.950 . S
C634 C633 1.349 . S
C634 C646 1.349 1_554 S
C635 C633 1.327 . S
C635 C651 1.429 . S
C635 H657 0.950 . S
C636 H632 0.949 1_554 S
C636 C644 1.574 . S
C636 C652 1.368 . S
H637 C645 0.950 . S
H638 C643 0.950 . S
H639 C644 0.949 1_556 S
H640 C646 0.950 . S
H641 C647 0.950 1_556 S
H642 C648 0.949 . S
C643 H638 0.950 . S
C643 C645 1.327 . S
C643 C649 1.429 . S
C644 C636 1.574 . S
C644 H639 0.949 1_554 S
C644 C650 1.368 . S
C645 C629 1.349 . S
C645 H637 0.950 . S
C645 C643 1.327 . S
C646 C634 1.349 1_556 S
C646 H640 0.950 . S
C646 C647 1.327 1_556 S
C647 H641 0.950 1_554 S
C647 C646 1.327 1_554 S
C647 C651 1.429 . S
C648 C631 1.574 . S
C648 H642 0.949 . S
C648 C652 1.368 . S
C649 C630 1.429 . S
C649 C643 1.429 . S
C649 C650 1.523 . S
C650 C631 1.368 . S
C650 C644 1.368 . S
C650 C649 1.523 . S
C651 C635 1.429 . S
C651 C647 1.429 . S
C651 C652 1.523 . S
C652 C636 1.368 . S
C652 C648 1.368 . S
C652 C651 1.523 . S
H653 C628 0.950 . S
H654 C630 0.943 1_556 S
H655 C631 0.949 . S
H656 C633 0.950 . S
H657 C635 0.950 . S
C658 C659 1.349 . S
C658 C660 1.327 . S
C658 H683 0.950 . S
C659 C658 1.349 . S
C659 C675 1.349 . S
C660 C658 1.327 . S
C660 C679 1.429 . S
C660 H684 0.950 . S
C661 C678 1.574 . S
C661 C680 1.368 . S
C661 H685 0.949 . S
H662 C666 0.949 . S
C663 C664 1.349 . S
C663 C665 1.327 . S
C663 H686 0.950 . S
C664 C663 1.349 . S
C664 C676 1.349 . S
C665 C663 1.327 . S
C665 C681 1.429 . S
C665 H687 0.950 . S
C666 H662 0.949 . S
C666 C674 1.574 . S
C666 C682 1.368 . S
H667 C675 0.950 . S
H668 C673 0.950 . S
H669 C674 0.949 . S
H670 C676 0.950 . S
H671 C677 0.950 . S
H672 C678 0.949 . S
C673 H668 0.950 . S
C673 C675 1.327 . S
C673 C679 1.429 . S
C674 C666 1.574 . S
C674 H669 0.949 . S
C674 C680 1.368 . S
C675 C659 1.349 . S
C675 H667 0.950 . S
C675 C673 1.327 . S
C676 C664 1.349 . S
C676 H670 0.950 . S
C676 C677 1.327 . S
C677 H671 0.950 . S
C677 C676 1.327 . S
C677 C681 1.429 . S
C678 C661 1.574 . S
C678 H672 0.949 . S
C678 C682 1.368 . S
C679 C660 1.429 . S
C679 C673 1.429 . S
C679 C680 1.523 . S
C680 C661 1.368 . S
C680 C674 1.368 . S
C680 C679 1.523 . S
C681 C665 1.429 . S
C681 C677 1.429 . S
C681 C682 1.523 . S
C682 C666 1.368 . S
C682 C678 1.368 . S
C682 C681 1.523 . S
H683 C658 0.950 . S
H684 C660 0.950 . S
H685 C661 0.949 . S
H686 C663 0.950 . S
H687 C665 0.950 . S
C688 C689 1.349 . S
C688 C690 1.327 . S
C688 H713 0.950 . S
C689 C688 1.349 . S
C689 C705 1.349 . S
C690 C688 1.327 . S
C690 C709 1.429 . S
C690 H714 0.950 . S
C691 C708 1.574 . S
C691 C710 1.368 . S
C691 H715 0.949 . S
H692 C696 0.949 . S
C693 C694 1.349 . S
C693 C695 1.327 . S
C693 H716 0.950 . S
C694 C693 1.349 . S
C694 C706 1.349 . S
C695 C693 1.327 . S
C695 C711 1.429 . S
C695 H717 0.950 . S
C696 H692 0.949 . S
C696 C704 1.574 . S
C696 C712 1.368 . S
H697 C705 0.950 . S
H698 C703 0.950 . S
H699 C704 0.949 . S
H700 C706 0.950 . S
H701 C707 0.950 . S
H702 C708 0.949 . S
C703 H698 0.950 . S
C703 C705 1.327 . S
C703 C709 1.429 . S
C704 C696 1.574 . S
C704 H699 0.949 . S
C704 C710 1.368 . S
C705 C689 1.349 . S
C705 H697 0.950 . S
C705 C703 1.327 . S
C706 C694 1.349 . S
C706 H700 0.950 . S
C706 C707 1.327 . S
C707 H701 0.950 . S
C707 C706 1.327 . S
C707 C711 1.429 . S
C708 C691 1.574 . S
C708 H702 0.949 . S
C708 C712 1.368 . S
C709 C690 1.429 . S
C709 C703 1.429 . S
C709 C710 1.523 . S
C710 C691 1.368 . S
C710 C704 1.368 . S
C710 C709 1.523 . S
C711 C695 1.429 . S
C711 C707 1.429 . S
C711 C712 1.523 . S
C712 C696 1.368 . S
C712 C708 1.368 . S
C712 C711 1.523 . S
H713 C688 0.950 . S
H714 C690 0.950 . S
H715 C691 0.949 . S
H716 C693 0.950 . S
H717 C695 0.950 . S
C718 C719 1.349 . S
C718 C720 1.327 . S
C718 H743 0.950 . S
C719 C718 1.349 . S
C719 C735 1.349 . S
C720 C718 1.327 . S
C720 C739 1.429 . S
C720 H744 0.950 . S
C721 C738 1.574 . S
C721 C740 1.368 . S
C721 H745 0.949 . S
H722 C726 0.949 . S
C723 C724 1.349 . S
C723 C725 1.327 . S
C723 H746 0.950 . S
C724 C723 1.349 . S
C724 C736 1.349 . S
C725 C723 1.327 . S
C725 C741 1.429 . S
C725 H747 0.950 . S
C726 H722 0.949 . S
C726 C734 1.574 . S
C726 C742 1.368 . S
H727 C735 0.950 . S
H728 C733 0.950 . S
H729 C734 0.949 . S
H730 C736 0.950 . S
H731 C737 0.950 . S
H732 C738 0.949 . S
C733 H728 0.950 . S
C733 C735 1.327 . S
C733 C739 1.429 . S
C734 C726 1.574 . S
C734 H729 0.949 . S
C734 C740 1.368 . S
C735 C719 1.349 . S
C735 H727 0.950 . S
C735 C733 1.327 . S
C736 C724 1.349 . S
C736 H730 0.950 . S
C736 C737 1.327 . S
C737 H731 0.950 . S
C737 C736 1.327 . S
C737 C741 1.429 . S
C738 C721 1.574 . S
C738 H732 0.949 . S
C738 C742 1.368 . S
C739 C720 1.429 . S
C739 C733 1.429 . S
C739 C740 1.523 . S
C740 C721 1.368 . S
C740 C734 1.368 . S
C740 C739 1.523 . S
C741 C725 1.429 . S
C741 C737 1.429 . S
C741 C742 1.523 . S
C742 C726 1.368 . S
C742 C738 1.368 . S
C742 C741 1.523 . S
H743 C718 0.950 . S
H744 C720 0.950 . S
H745 C721 0.949 . S
H746 C723 0.950 . S
H747 C725 0.950 . S
C748 C749 1.349 . S
C748 C750 1.327 . S
C748 H773 0.950 . S
C749 C748 1.349 . S
C749 C765 1.349 . S
C750 C748 1.327 . S
C750 C769 1.429 . S
C750 H774 0.950 . S
C751 C768 1.574 . S
C751 C770 1.368 . S
C751 H775 0.949 . S
H752 C756 0.949 . S
C753 C754 1.349 . S
C753 C755 1.327 . S
C753 H776 0.950 . S
C754 C753 1.349 . S
C754 C766 1.349 . S
C755 C753 1.327 . S
C755 C771 1.429 . S
C755 H777 0.950 . S
C756 H752 0.949 . S
C756 C764 1.574 . S
C756 C772 1.368 . S
H757 C765 0.950 . S
H758 C763 0.950 . S
H759 C764 0.949 . S
H760 C766 0.950 . S
H761 C767 0.950 . S
H762 C768 0.949 . S
C763 H758 0.950 . S
C763 C765 1.327 . S
C763 C769 1.429 . S
C764 C756 1.574 . S
C764 H759 0.949 . S
C764 C770 1.368 . S
C765 C749 1.349 . S
C765 H757 0.950 . S
C765 C763 1.327 . S
C766 C754 1.349 . S
C766 H760 0.950 . S
C766 C767 1.327 . S
C767 H761 0.950 . S
C767 C766 1.327 . S
C767 C771 1.429 . S
C768 C751 1.574 . S
C768 H762 0.949 . S
C768 C772 1.368 . S
C769 C750 1.429 . S
C769 C763 1.429 . S
C769 C770 1.523 . S
C770 C751 1.368 . S
C770 C764 1.368 . S
C770 C769 1.523 . S
C771 C755 1.429 . S
C771 C767 1.429 . S
C771 C772 1.523 . S
C772 C756 1.368 . S
C772 C768 1.368 . S
C772 C771 1.523 . S
H773 C748 0.950 . S
H774 C750 0.950 . S
H775 C751 0.949 . S
H776 C753 0.950 . S
H777 C755 0.950 . S
C778 C779 1.349 . S
C778 C780 1.327 . S
C778 H803 0.950 . S
C779 C778 1.349 . S
C779 C795 1.349 . S
C780 C778 1.327 . S
C780 C799 1.429 . S
C780 H804 0.950 . S
C781 C798 1.574 . S
C781 C800 1.368 . S
C781 H805 0.949 . S
H782 C786 0.949 . S
C783 C784 1.349 . S
C783 C785 1.327 . S
C783 H806 0.950 . S
C784 C783 1.349 . S
C784 C796 1.349 . S
C785 C783 1.327 . S
C785 C801 1.429 . S
C785 H807 0.950 . S
C786 H782 0.949 . S
C786 C794 1.574 . S
C786 C802 1.368 . S
H787 C795 0.950 . S
H788 C793 0.950 . S
H789 C794 0.949 . S
H790 C796 0.950 . S
H791 C797 0.950 . S
H792 C798 0.949 . S
C793 H788 0.950 . S
C793 C795 1.327 . S
C793 C799 1.429 . S
C794 C786 1.574 . S
C794 H789 0.949 . S
C794 C800 1.368 . S
C795 C779 1.349 . S
C795 H787 0.950 . S
C795 C793 1.327 . S
C796 C784 1.349 . S
C796 H790 0.950 . S
C796 C797 1.327 . S
C797 H791 0.950 . S
C797 C796 1.327 . S
C797 C801 1.429 . S
C798 C781 1.574 . S
C798 H792 0.949 . S
C798 C802 1.368 . S
C799 C780 1.429 . S
C799 C793 1.429 . S
C799 C800 1.523 . S
C800 C781 1.368 . S
C800 C794 1.368 . S
C800 C799 1.523 . S
C801 C785 1.429 . S
C801 C797 1.429 . S
C801 C802 1.523 . S
C802 C786 1.368 . S
C802 C798 1.368 . S
C802 C801 1.523 . S
H803 C778 0.950 . S
H804 C780 0.950 . S
H805 C781 0.949 . S
H806 C783 0.950 . S
H807 C785 0.950 . S
C808 C809 1.349 . S
C808 C810 1.327 . S
C808 H833 0.950 . S
C809 C808 1.349 . S
C809 C825 1.349 . S
C810 C808 1.327 . S
C810 C829 1.429 . S
C810 H834 0.950 . S
C811 C828 1.574 . S
C811 C830 1.368 1_565 S
C811 H835 0.949 . S
H812 C816 0.949 . S
C813 C814 1.349 . S
C813 C815 1.327 . S
C813 H836 0.950 . S
C814 C813 1.349 . S
C814 C826 1.349 . S
C815 C813 1.327 . S
C815 C831 1.429 . S
C815 H837 0.950 . S
C816 H812 0.949 . S
C816 C824 1.574 . S
C816 C832 1.368 1_545 S
H817 C825 0.950 . S
H818 C823 0.950 . S
H819 C824 0.949 . S
H820 C826 0.950 . S
H821 C827 0.950 . S
H822 C828 0.949 . S
C823 H818 0.950 . S
C823 C825 1.327 . S
C823 C829 1.429 . S
C824 C816 1.574 . S
C824 H819 0.949 . S
C824 C830 1.368 . S
C825 C809 1.349 . S
C825 H817 0.950 . S
C825 C823 1.327 . S
C826 C814 1.349 . S
C826 H820 0.950 . S
C826 C827 1.327 . S
C827 H821 0.950 . S
C827 C826 1.327 . S
C827 C831 1.429 . S
C828 C811 1.574 . S
C828 H822 0.949 . S
C828 C832 1.368 . S
C829 C810 1.429 . S
C829 C823 1.429 . S
C829 C830 1.523 . S
C830 C811 1.368 1_545 S
C830 C824 1.368 . S
C830 C829 1.523 . S
C831 C815 1.429 . S
C831 C827 1.429 . S
C831 C832 1.523 . S
C832 C816 1.368 1_565 S
C832 C828 1.368 . S
C832 C831 1.523 . S
H833 C808 0.950 . S
H834 C810 0.950 . S
H835 C811 0.949 . S
H836 C813 0.950 . S
H837 C815 0.950 . S
C838 C839 1.349 . S
C838 C840 1.327 . S
C838 H863 0.950 . S
C839 C838 1.349 . S
C839 C855 1.349 . S
C840 C838 1.327 . S
C840 C859 1.429 . S
C840 H864 0.950 . S
C841 C858 1.574 1_655 S
C841 C860 1.368 1_565 S
C841 H865 0.949 . S
H842 C846 0.949 1_556 S
C843 C844 1.349 . S
C843 C845 1.327 . S
C843 H866 0.950 . S
C844 C843 1.349 . S
C844 C856 1.349 . S
C845 C843 1.327 . S
C845 C861 1.429 . S
C845 H867 0.950 . S
C846 H842 0.949 1_554 S
C846 C854 1.574 1_455 S
C846 C862 1.368 1_545 S
H847 C855 0.950 . S
H848 C853 0.931 1_565 S
H849 C854 0.949 . S
H850 C856 0.950 1_556 S
H851 C857 0.927 1_546 S
H852 C858 0.949 . S
C853 H848 0.931 1_545 S
C853 C855 1.327 . S
C853 C859 1.429 . S
C854 C846 1.574 1_655 S
C854 H849 0.949 . S
C854 C860 1.368 . S
C855 C839 1.349 . S
C855 H847 0.950 . S
C855 C853 1.327 . S
C856 C844 1.349 . S
C856 H850 0.950 1_554 S
C856 C857 1.327 . S
C857 H851 0.927 1_564 S
C857 C856 1.327 . S
C857 C861 1.429 . S
C858 C841 1.574 1_455 S
C858 H852 0.949 . S
C858 C862 1.368 . S
C859 C840 1.429 . S
C859 C853 1.429 . S
C859 C860 1.523 . S
C860 C841 1.368 1_545 S
C860 C854 1.368 . S
C860 C859 1.523 . S
C861 C845 1.429 . S
C861 C857 1.429 . S
C861 C862 1.523 . S
C862 C846 1.368 1_565 S
C862 C858 1.368 . S
C862 C861 1.523 . S
H863 C838 0.950 . S
H864 C840 0.950 . S
H865 C841 0.949 . S
H866 C843 0.950 . S
H867 C845 0.950 . S
C868 C869 1.349 . S
C868 C870 1.327 . S
C868 H893 0.950 1_554 S
C869 C868 1.349 . S
C869 C885 1.349 . S
C870 C868 1.327 . S
C870 C889 1.429 . S
C870 H894 0.950 1_544 S
C871 C888 1.574 . S
C871 C890 1.368 . S
C871 H895 0.949 . S
H872 C876 0.949 . S
C873 C874 1.349 . S
C873 C875 1.327 . S
C873 H896 0.950 . S
C874 C873 1.349 . S
C874 C886 1.349 . S
C875 C873 1.327 . S
C875 C891 1.429 . S
C875 H897 0.950 1_565 S
C876 H872 0.949 . S
C876 C884 1.574 . S
C876 C892 1.368 . S
H877 C885 0.950 . S
H878 C883 0.950 . S
H879 C884 0.949 1_556 S
H880 C886 0.950 . S
H881 C887 0.950 . S
H882 C888 0.949 . S
C883 H878 0.950 . S
C883 C885 1.327 . S
C883 C889 1.429 . S
C884 C876 1.574 . S
C884 H879 0.949 1_554 S
C884 C890 1.368 1_565 S
C885 C869 1.349 . S
C885 H877 0.950 . S
C885 C883 1.327 . S
C886 C874 1.349 . S
C886 H880 0.950 . S
C886 C887 1.327 . S
C887 H881 0.950 . S
C887 C886 1.327 . S
C887 C891 1.429 . S
C888 C871 1.574 . S
C888 H882 0.949 . S
C888 C892 1.368 1_545 S
C889 C870 1.429 . S
C889 C883 1.429 . S
C889 C890 1.523 . S
C890 C871 1.368 . S
C890 C884 1.368 1_545 S
C890 C889 1.523 . S
C891 C875 1.429 . S
C891 C887 1.429 . S
C891 C892 1.523 . S
C892 C876 1.368 . S
C892 C888 1.368 1_565 S
C892 C891 1.523 . S
H893 C868 0.950 1_556 S
H894 C870 0.950 1_566 S
H895 C871 0.949 . S
H896 C873 0.950 . S
H897 C875 0.950 1_545 S
C898 C899 1.349 . S
C898 C900 1.327 . S
C898 H923 0.950 . S
C899 C898 1.349 . S
C899 C915 1.349 . S
C900 C898 1.327 . S
C900 C919 1.429 . S
C900 H924 0.950 . S
C901 C918 1.574 1_445 S
C901 C920 1.368 . S
C901 H925 0.949 . S
H902 C906 0.949 . S
C903 C904 1.349 . S
C903 C905 1.327 . S
C903 H926 0.950 . S
C904 C903 1.349 . S
C904 C916 1.349 . S
C905 C903 1.327 . S
C905 C921 1.429 . S
C905 H927 0.950 . S
C906 H902 0.949 . S
C906 C914 1.574 1_665 S
C906 C922 1.368 . S
H907 C915 0.950 . S
H908 C913 0.950 . S
H909 C914 0.949 . S
H910 C916 0.950 . S
H911 C917 0.950 . S
H912 C918 0.949 . S
C913 H908 0.950 . S
C913 C915 1.327 . S
C913 C919 1.429 . S
C914 C906 1.574 1_445 S
C914 H909 0.949 . S
C914 C920 1.368 . S
C915 C899 1.349 . S
C915 H907 0.950 . S
C915 C913 1.327 . S
C916 C904 1.349 . S
C916 H910 0.950 . S
C916 C917 1.327 . S
C917 H911 0.950 . S
C917 C916 1.327 . S
C917 C921 1.429 . S
C918 C901 1.574 1_665 S
C918 H912 0.949 . S
C918 C922 1.368 . S
C919 C900 1.429 . S
C919 C913 1.429 . S
C919 C920 1.523 . S
C920 C901 1.368 . S
C920 C914 1.368 . S
C920 C919 1.523 . S
C921 C905 1.429 . S
C921 C917 1.429 . S
C921 C922 1.523 . S
C922 C906 1.368 . S
C922 C918 1.368 . S
C922 C921 1.523 . S
H923 C898 0.950 . S
H924 C900 0.950 . S
H925 C901 0.949 . S
H926 C903 0.950 . S
H927 C905 0.950 . S
C928 C929 1.349 . S
C928 C930 1.327 . S
C928 H953 0.950 . S
C929 C928 1.349 . S
C929 C945 1.349 . S
C930 C928 1.327 . S
C930 C949 1.429 . S
C930 H954 0.950 . S
C931 C948 1.574 . S
C931 C950 1.368 . S
C931 H955 0.949 . S
H932 C936 0.949 . S
C933 C934 1.349 . S
C933 C935 1.327 . S
C933 H956 0.950 . S
C934 C933 1.349 . S
C934 C946 1.349 . S
C935 C933 1.327 . S
C935 C951 1.429 . S
C935 H957 0.950 . S
C936 H932 0.949 . S
C936 C944 1.574 . S
C936 C952 1.368 . S
H937 C945 0.950 . S
H938 C943 0.950 . S
H939 C944 0.949 . S
H940 C946 0.950 . S
H941 C947 0.950 . S
H942 C948 0.949 . S
C943 H938 0.950 . S
C943 C945 1.327 . S
C943 C949 1.429 . S
C944 C936 1.574 . S
C944 H939 0.949 . S
C944 C950 1.368 . S
C945 C929 1.349 . S
C945 H937 0.950 . S
C945 C943 1.327 . S
C946 C934 1.349 . S
C946 H940 0.950 . S
C946 C947 1.327 . S
C947 H941 0.950 . S
C947 C946 1.327 . S
C947 C951 1.429 . S
C948 C931 1.574 . S
C948 H942 0.949 . S
C948 C952 1.368 . S
C949 C930 1.429 . S
C949 C943 1.429 . S
C949 C950 1.523 . S
C950 C931 1.368 . S
C950 C944 1.368 . S
C950 C949 1.523 . S
C951 C935 1.429 . S
C951 C947 1.429 . S
C951 C952 1.523 . S
C952 C936 1.368 . S
C952 C948 1.368 . S
C952 C951 1.523 . S
H953 C928 0.950 . S
H954 C930 0.950 . S
H955 C931 0.949 . S
H956 C933 0.950 . S
H957 C935 0.950 . S
C958 C959 1.349 . S
C958 C960 1.327 . S
C958 H983 0.950 . S
C959 C958 1.349 . S
C959 C975 1.349 . S
C960 C958 1.327 . S
C960 C979 1.429 . S
C960 H984 0.950 . S
C961 C978 1.574 . S
C961 C980 1.368 . S
C961 H985 0.949 . S
H962 C966 0.949 . S
C963 C964 1.349 . S
C963 C965 1.327 . S
C963 H986 0.950 . S
C964 C963 1.349 . S
C964 C976 1.349 . S
C965 C963 1.327 . S
C965 C981 1.429 . S
C965 H987 0.950 . S
C966 H962 0.949 . S
C966 C974 1.574 . S
C966 C982 1.368 . S
H967 C975 0.950 . S
H968 C973 0.950 . S
H969 C974 0.949 1_556 S
H970 C976 0.950 . S
H971 C977 0.950 . S
H972 C978 0.949 . S
C973 H968 0.950 . S
C973 C975 1.327 . S
C973 C979 1.429 . S
C974 C966 1.574 . S
C974 H969 0.949 1_554 S
C974 C980 1.368 . S
C975 C959 1.349 . S
C975 H967 0.950 . S
C975 C973 1.327 . S
C976 C964 1.349 . S
C976 H970 0.950 . S
C976 C977 1.327 . S
C977 H971 0.950 . S
C977 C976 1.327 . S
C977 C981 1.429 . S
C978 C961 1.574 . S
C978 H972 0.949 . S
C978 C982 1.368 . S
C979 C960 1.429 . S
C979 C973 1.429 . S
C979 C980 1.523 1_556 S
C980 C961 1.368 . S
C980 C974 1.368 . S
C980 C979 1.523 1_554 S
C981 C965 1.429 . S
C981 C977 1.429 . S
C981 C982 1.523 . S
C982 C966 1.368 . S
C982 C978 1.368 . S
C982 C981 1.523 . S
H983 C958 0.950 . S
H984 C960 0.950 . S
H985 C961 0.949 . S
H986 C963 0.950 . S
H987 C965 0.950 . S
C988 C989 1.349 . S
C988 C990 1.327 . S
C988 H1013 0.950 . S
C989 C988 1.349 . S
C989 C1005 1.349 . S
C990 C988 1.327 . S
C990 C1009 1.429 . S
C990 H1014 0.950 . S
C991 C1008 1.574 . S
C991 C1010 1.368 . S
C991 H1015 0.949 . S
H992 C996 0.949 . S
C993 C994 1.349 . S
C993 C995 1.327 . S
C993 H1016 0.950 . S
C994 C993 1.349 . S
C994 C1006 1.349 . S
C995 C993 1.327 . S
C995 C1011 1.429 . S
C995 H1017 0.950 . S
C996 H992 0.949 . S
C996 C1004 1.574 . S
C996 C1012 1.368 . S
H997 C1005 0.950 . S
H998 C1003 0.950 . S
H999 C1004 0.949 . S
H1000 C1006 0.950 . S
H1001 C1007 0.950 . S
H1002 C1008 0.949 . S
C1003 H998 0.950 . S
C1003 C1005 1.327 . S
C1003 C1009 1.429 . S
C1004 C996 1.574 . S
C1004 H999 0.949 . S
C1004 C1010 1.368 . S
C1005 C989 1.349 . S
C1005 H997 0.950 . S
C1005 C1003 1.327 . S
C1006 C994 1.349 . S
C1006 H1000 0.950 . S
C1006 C1007 1.327 . S
C1007 H1001 0.950 . S
C1007 C1006 1.327 . S
C1007 C1011 1.429 . S
C1008 C991 1.574 . S
C1008 H1002 0.949 . S
C1008 C1012 1.368 . S
C1009 C990 1.429 . S
C1009 C1003 1.429 . S
C1009 C1010 1.523 . S
C1010 C991 1.368 . S
C1010 C1004 1.368 . S
C1010 C1009 1.523 . S
C1011 C995 1.429 . S
C1011 C1007 1.429 . S
C1011 C1012 1.523 . S
C1012 C996 1.368 . S
C1012 C1008 1.368 . S
C1012 C1011 1.523 . S
H1013 C988 0.950 . S
H1014 C990 0.950 . S
H1015 C991 0.949 . S
H1016 C993 0.950 . S
H1017 C995 0.950 . S
C1018 C1019 1.349 . S
C1018 C1020 1.327 . S
C1018 H1043 0.950 . S
C1019 C1018 1.349 . S
C1019 C1035 1.349 . S
C1020 C1018 1.327 . S
C1020 C1039 1.429 . S
C1020 H1044 0.950 . S
C1021 C1038 1.574 . S
C1021 C1040 1.368 . S
C1021 H1045 0.949 . S
H1022 C1026 0.949 . S
C1023 C1024 1.349 . S
C1023 C1025 1.327 . S
C1023 H1046 0.950 . S
C1024 C1023 1.349 . S
C1024 C1036 1.349 . S
C1025 C1023 1.327 . S
C1025 C1041 1.429 . S
C1025 H1047 0.950 . S
C1026 H1022 0.949 . S
C1026 C1034 1.574 . S
C1026 C1042 1.368 . S
H1027 C1035 0.950 . S
H1028 C1033 0.950 . S
H1029 C1034 0.949 . S
H1030 C1036 0.950 . S
H1031 C1037 0.950 . S
H1032 C1038 0.949 . S
C1033 H1028 0.950 . S
C1033 C1035 1.327 . S
C1033 C1039 1.429 . S
C1034 C1026 1.574 . S
C1034 H1029 0.949 . S
C1034 C1040 1.368 . S
C1035 C1019 1.349 . S
C1035 H1027 0.950 . S
C1035 C1033 1.327 . S
C1036 C1024 1.349 . S
C1036 H1030 0.950 . S
C1036 C1037 1.327 . S
C1037 H1031 0.950 . S
C1037 C1036 1.327 . S
C1037 C1041 1.429 . S
C1038 C1021 1.574 . S
C1038 H1032 0.949 . S
C1038 C1042 1.368 . S
C1039 C1020 1.429 . S
C1039 C1033 1.429 . S
C1039 C1040 1.523 . S
C1040 C1021 1.368 . S
C1040 C1034 1.368 . S
C1040 C1039 1.523 . S
C1041 C1025 1.429 . S
C1041 C1037 1.429 . S
C1041 C1042 1.523 . S
C1042 C1026 1.368 . S
C1042 C1038 1.368 . S
C1042 C1041 1.523 . S
H1043 C1018 0.950 . S
H1044 C1020 0.950 . S
H1045 C1021 0.949 . S
H1046 C1023 0.950 . S
H1047 C1025 0.950 . S
C1048 C1049 1.349 . S
C1048 C1050 1.327 . S
C1048 H1073 0.950 . S
C1049 C1048 1.349 . S
C1049 C1065 1.349 . S
C1050 C1048 1.327 . S
C1050 C1069 1.429 . S
C1050 H1074 0.950 . S
C1051 C1068 1.574 . S
C1051 C1070 1.368 . S
C1051 H1075 0.949 . S
H1052 C1056 0.949 . S
C1053 C1054 1.349 . S
C1053 C1055 1.327 . S
C1053 H1076 0.950 . S
C1054 C1053 1.349 . S
C1054 C1066 1.349 . S
C1055 C1053 1.327 . S
C1055 C1071 1.429 . S
C1055 H1077 0.950 . S
C1056 H1052 0.949 . S
C1056 C1064 1.574 . S
C1056 C1072 1.368 . S
H1057 C1065 0.950 . S
H1058 C1063 0.950 . S
H1059 C1064 0.949 . S
H1060 C1066 0.950 . S
H1061 C1067 0.950 . S
H1062 C1068 0.949 . S
C1063 H1058 0.950 . S
C1063 C1065 1.327 . S
C1063 C1069 1.429 . S
C1064 C1056 1.574 . S
C1064 H1059 0.949 . S
C1064 C1070 1.368 . S
C1065 C1049 1.349 . S
C1065 H1057 0.950 . S
C1065 C1063 1.327 . S
C1066 C1054 1.349 . S
C1066 H1060 0.950 . S
C1066 C1067 1.327 . S
C1067 H1061 0.950 . S
C1067 C1066 1.327 . S
C1067 C1071 1.429 . S
C1068 C1051 1.574 . S
C1068 H1062 0.949 . S
C1068 C1072 1.368 . S
C1069 C1050 1.429 . S
C1069 C1063 1.429 . S
C1069 C1070 1.523 . S
C1070 C1051 1.368 . S
C1070 C1064 1.368 . S
C1070 C1069 1.523 . S
C1071 C1055 1.429 . S
C1071 C1067 1.429 . S
C1071 C1072 1.523 . S
C1072 C1056 1.368 . S
C1072 C1068 1.368 . S
C1072 C1071 1.523 . S
H1073 C1048 0.950 . S
H1074 C1050 0.950 . S
H1075 C1051 0.949 . S
H1076 C1053 0.950 . S
H1077 C1055 0.950 . S
C1078 C1079 1.349 . S
C1078 C1080 1.327 . S
C1078 H1103 0.950 . S
C1079 C1078 1.349 . S
C1079 C1095 1.349 . S
C1080 C1078 1.327 . S
C1080 C1099 1.429 . S
C1080 H1104 0.950 . S
C1081 C1098 1.574 . S
C1081 C1100 1.368 . S
C1081 H1105 0.949 . S
H1082 C1086 0.949 . S
C1083 C1084 1.349 . S
C1083 C1085 1.327 . S
C1083 H1106 0.950 . S
C1084 C1083 1.349 . S
C1084 C1096 1.349 . S
C1085 C1083 1.327 . S
C1085 C1101 1.429 . S
C1085 H1107 0.950 . S
C1086 H1082 0.949 . S
C1086 C1094 1.574 . S
C1086 C1102 1.368 . S
H1087 C1095 0.950 . S
H1088 C1093 0.950 . S
H1089 C1094 0.949 1_556 S
H1090 C1096 0.950 . S
H1091 C1097 0.950 . S
H1092 C1098 0.949 . S
C1093 H1088 0.950 . S
C1093 C1095 1.327 . S
C1093 C1099 1.429 . S
C1094 C1086 1.574 . S
C1094 H1089 0.949 1_554 S
C1094 C1100 1.368 . S
C1095 C1079 1.349 . S
C1095 H1087 0.950 . S
C1095 C1093 1.327 . S
C1096 C1084 1.349 . S
C1096 H1090 0.950 . S
C1096 C1097 1.327 . S
C1097 H1091 0.950 . S
C1097 C1096 1.327 . S
C1097 C1101 1.429 . S
C1098 C1081 1.574 . S
C1098 H1092 0.949 . S
C1098 C1102 1.368 . S
C1099 C1080 1.429 . S
C1099 C1093 1.429 . S
C1099 C1100 1.523 1_556 S
C1100 C1081 1.368 . S
C1100 C1094 1.368 . S
C1100 C1099 1.523 1_554 S
C1101 C1085 1.429 . S
C1101 C1097 1.429 . S
C1101 C1102 1.523 . S
C1102 C1086 1.368 . S
C1102 C1098 1.368 . S
C1102 C1101 1.523 . S
H1103 C1078 0.950 . S
H1104 C1080 0.950 . S
H1105 C1081 0.949 . S
H1106 C1083 0.950 . S
H1107 C1085 0.950 . S
C1108 C1109 1.349 . S
C1108 C1110 1.327 . S
C1108 H1133 0.950 . S
C1109 C1108 1.349 . S
C1109 C1125 1.349 . S
C1110 C1108 1.327 . S
C1110 C1129 1.429 . S
C1110 H1134 0.950 . S
C1111 C1128 1.574 . S
C1111 C1130 1.368 . S
C1111 H1135 0.949 . S
H1112 C1116 0.949 . S
C1113 C1114 1.349 . S
C1113 C1115 1.327 . S
C1113 H1136 0.950 . S
C1114 C1113 1.349 . S
C1114 C1126 1.349 . S
C1115 C1113 1.327 . S
C1115 C1131 1.429 . S
C1115 H1137 0.950 . S
C1116 H1112 0.949 . S
C1116 C1124 1.574 . S
C1116 C1132 1.368 . S
H1117 C1125 0.950 . S
H1118 C1123 0.950 . S
H1119 C1124 0.949 . S
H1120 C1126 0.950 . S
H1121 C1127 0.950 . S
H1122 C1128 0.949 . S
C1123 H1118 0.950 . S
C1123 C1125 1.327 . S
C1123 C1129 1.429 . S
C1124 C1116 1.574 . S
C1124 H1119 0.949 . S
C1124 C1130 1.368 . S
C1125 C1109 1.349 . S
C1125 H1117 0.950 . S
C1125 C1123 1.327 . S
C1126 C1114 1.349 . S
C1126 H1120 0.950 . S
C1126 C1127 1.327 . S
C1127 H1121 0.950 . S
C1127 C1126 1.327 . S
C1127 C1131 1.429 . S
C1128 C1111 1.574 . S
C1128 H1122 0.949 . S
C1128 C1132 1.368 . S
C1129 C1110 1.429 . S
C1129 C1123 1.429 . S
C1129 C1130 1.523 . S
C1130 C1111 1.368 . S
C1130 C1124 1.368 . S
C1130 C1129 1.523 . S
C1131 C1115 1.429 . S
C1131 C1127 1.429 . S
C1131 C1132 1.523 . S
C1132 C1116 1.368 . S
C1132 C1128 1.368 . S
C1132 C1131 1.523 . S
H1133 C1108 0.950 . S
H1134 C1110 0.950 . S
H1135 C1111 0.949 . S
H1136 C1113 0.950 . S
H1137 C1115 0.950 . S
C1138 C1139 1.349 . S
C1138 C1140 1.327 . S
C1138 H1163 0.950 . S
C1139 C1138 1.349 . S
C1139 C1155 1.349 . S
C1140 C1138 1.327 . S
C1140 C1159 1.429 . S
C1140 H1164 0.950 . S
C1141 C1158 1.574 . S
C1141 C1160 1.368 . S
C1141 H1165 0.949 . S
H1142 C1146 0.949 . S
C1143 C1144 1.349 . S
C1143 C1145 1.327 . S
C1143 H1166 0.950 . S
C1144 C1143 1.349 . S
C1144 C1156 1.349 . S
C1145 C1143 1.327 . S
C1145 C1161 1.429 . S
C1145 H1167 0.950 . S
C1146 H1142 0.949 . S
C1146 C1154 1.574 . S
C1146 C1162 1.368 . S
H1147 C1155 0.950 . S
H1148 C1153 0.950 . S
H1149 C1154 0.949 . S
H1150 C1156 0.950 . S
H1151 C1157 0.950 . S
H1152 C1158 0.949 . S
C1153 H1148 0.950 . S
C1153 C1155 1.327 . S
C1153 C1159 1.429 . S
C1154 C1146 1.574 . S
C1154 H1149 0.949 . S
C1154 C1160 1.368 . S
C1155 C1139 1.349 . S
C1155 H1147 0.950 . S
C1155 C1153 1.327 . S
C1156 C1144 1.349 . S
C1156 H1150 0.950 . S
C1156 C1157 1.327 . S
C1157 H1151 0.950 . S
C1157 C1156 1.327 . S
C1157 C1161 1.429 . S
C1158 C1141 1.574 . S
C1158 H1152 0.949 . S
C1158 C1162 1.368 . S
C1159 C1140 1.429 . S
C1159 C1153 1.429 . S
C1159 C1160 1.523 . S
C1160 C1141 1.368 . S
C1160 C1154 1.368 . S
C1160 C1159 1.523 . S
C1161 C1145 1.429 . S
C1161 C1157 1.429 . S
C1161 C1162 1.523 . S
C1162 C1146 1.368 . S
C1162 C1158 1.368 . S
C1162 C1161 1.523 . S
H1163 C1138 0.950 . S
H1164 C1140 0.950 . S
H1165 C1141 0.949 . S
H1166 C1143 0.950 . S
H1167 C1145 0.950 . S
C1168 C1169 1.349 . S
C1168 C1170 1.330 . S
C1168 H1193 0.950 1_545 S
C1169 C1168 1.349 . S
C1169 C1185 1.349 . S
C1170 C1168 1.330 . S
C1170 C1189 1.434 . S
C1170 H1194 0.941 1_545 S
C1171 C1188 1.574 . S
C1171 C1190 1.368 . S
C1171 H1195 0.949 . S
H1172 C1176 0.949 . S
C1173 C1174 1.349 . S
C1173 C1175 1.331 . S
C1173 H1196 0.950 1_565 S
C1174 C1173 1.349 . S
C1174 C1186 1.349 . S
C1175 C1173 1.331 . S
C1175 C1191 1.436 . S
C1175 H1197 0.937 1_565 S
C1176 H1172 0.949 . S
C1176 C1184 1.574 . S
C1176 C1192 1.368 . S
H1177 C1185 0.950 . S
H1178 C1183 0.950 . S
H1179 C1184 0.949 . S
H1180 C1186 0.950 . S
H1181 C1187 0.950 . S
H1182 C1188 0.949 . S
C1183 H1178 0.950 . S
C1183 C1185 1.327 . S
C1183 C1189 1.429 . S
C1184 C1176 1.574 . S
C1184 H1179 0.949 . S
C1184 C1190 1.368 1_565 S
C1185 C1169 1.349 . S
C1185 H1177 0.950 . S
C1185 C1183 1.327 . S
C1186 C1174 1.349 . S
C1186 H1180 0.950 . S
C1186 C1187 1.327 . S
C1187 H1181 0.950 . S
C1187 C1186 1.327 . S
C1187 C1191 1.429 . S
C1188 C1171 1.574 . S
C1188 H1182 0.949 . S
C1188 C1192 1.368 1_545 S
C1189 C1170 1.434 . S
C1189 C1183 1.429 . S
C1189 C1190 1.523 . S
C1190 C1171 1.368 . S
C1190 C1184 1.368 1_545 S
C1190 C1189 1.523 . S
C1191 C1175 1.436 . S
C1191 C1187 1.429 . S
C1191 C1192 1.523 . S
C1192 C1176 1.368 . S
C1192 C1188 1.368 1_565 S
C1192 C1191 1.523 . S
H1193 C1168 0.950 1_565 S
H1194 C1170 0.941 1_565 S
H1195 C1171 0.949 . S
H1196 C1173 0.950 1_545 S
H1197 C1175 0.937 1_545 S
C1198 C1199 1.349 . S
C1198 C1200 1.327 . S
C1198 H1223 0.950 . S
C1199 C1198 1.349 . S
C1199 C1215 1.349 . S
C1200 C1198 1.327 . S
C1200 C1219 1.429 . S
C1200 H1224 0.950 . S
C1201 C1218 1.574 . S
C1201 C1220 1.368 . S
C1201 H1225 0.949 . S
H1202 C1206 0.949 . S
C1203 C1204 1.349 . S
C1203 C1205 1.327 . S
C1203 H1226 0.950 . S
C1204 C1203 1.349 . S
C1204 C1216 1.349 . S
C1205 C1203 1.327 . S
C1205 C1221 1.429 . S
C1205 H1227 0.950 . S
C1206 H1202 0.949 . S
C1206 C1214 1.574 . S
C1206 C1222 1.368 . S
H1207 C1215 0.950 . S
H1208 C1213 0.950 . S
H1209 C1214 0.949 . S
H1210 C1216 0.950 . S
H1211 C1217 0.950 . S
H1212 C1218 0.949 . S
C1213 H1208 0.950 . S
C1213 C1215 1.327 . S
C1213 C1219 1.429 . S
C1214 C1206 1.574 . S
C1214 H1209 0.949 . S
C1214 C1220 1.368 . S
C1215 C1199 1.349 . S
C1215 H1207 0.950 . S
C1215 C1213 1.327 . S
C1216 C1204 1.349 . S
C1216 H1210 0.950 . S
C1216 C1217 1.327 . S
C1217 H1211 0.950 . S
C1217 C1216 1.327 . S
C1217 C1221 1.429 . S
C1218 C1201 1.574 . S
C1218 H1212 0.949 . S
C1218 C1222 1.368 . S
C1219 C1200 1.429 . S
C1219 C1213 1.429 . S
C1219 C1220 1.523 . S
C1220 C1201 1.368 . S
C1220 C1214 1.368 . S
C1220 C1219 1.523 . S
C1221 C1205 1.429 . S
C1221 C1217 1.429 . S
C1221 C1222 1.523 . S
C1222 C1206 1.368 . S
C1222 C1218 1.368 . S
C1222 C1221 1.523 . S
H1223 C1198 0.950 . S
H1224 C1200 0.950 . S
H1225 C1201 0.949 . S
H1226 C1203 0.950 . S
H1227 C1205 0.950 . S
C1228 C1229 1.349 . S
C1228 C1230 1.327 . S
C1228 H1253 0.950 . S
C1229 C1228 1.349 . S
C1229 C1245 1.349 . S
C1230 C1228 1.327 . S
C1230 C1249 1.429 . S
C1230 H1254 0.950 . S
C1231 C1248 1.574 . S
C1231 C1250 1.368 1_565 S
C1231 H1255 0.949 . S
H1232 C1236 0.949 . S
C1233 C1234 1.349 . S
C1233 C1235 1.327 . S
C1233 H1256 0.950 . S
C1234 C1233 1.349 . S
C1234 C1246 1.349 . S
C1235 C1233 1.327 . S
C1235 C1251 1.429 . S
C1235 H1257 0.950 . S
C1236 H1232 0.949 . S
C1236 C1244 1.574 . S
C1236 C1252 1.368 1_545 S
H1237 C1245 0.950 1_565 S
H1238 C1243 0.932 1_565 S
H1239 C1244 0.949 . S
H1240 C1246 0.950 1_545 S
H1241 C1247 0.937 1_545 S
H1242 C1248 0.949 . S
C1243 H1238 0.932 1_545 S
C1243 C1245 1.333 . S
C1243 C1249 1.440 . S
C1244 C1236 1.574 . S
C1244 H1239 0.949 . S
C1244 C1250 1.368 . S
C1245 C1229 1.349 . S
C1245 H1237 0.950 1_545 S
C1245 C1243 1.333 . S
C1246 C1234 1.349 . S
C1246 H1240 0.950 1_565 S
C1246 C1247 1.332 . S
C1247 H1241 0.937 1_565 S
C1247 C1246 1.332 . S
C1247 C1251 1.437 . S
C1248 C1231 1.574 . S
C1248 H1242 0.949 . S
C1248 C1252 1.368 . S
C1249 C1230 1.429 . S
C1249 C1243 1.440 . S
C1249 C1250 1.523 . S
C1250 C1231 1.368 1_545 S
C1250 C1244 1.368 . S
C1250 C1249 1.523 . S
C1251 C1235 1.429 . S
C1251 C1247 1.437 . S
C1251 C1252 1.523 . S
C1252 C1236 1.368 1_565 S
C1252 C1248 1.368 . S
C1252 C1251 1.523 . S
H1253 C1228 0.950 . S
H1254 C1230 0.950 . S
H1255 C1231 0.949 . S
H1256 C1233 0.950 . S
H1257 C1235 0.950 . S
C1258 C1259 1.349 . S
C1258 C1260 1.327 . S
C1258 H1283 0.950 . S
C1259 C1258 1.349 . S
C1259 C1275 1.349 . S
C1260 C1258 1.327 . S
C1260 C1279 1.429 . S
C1260 H1284 0.950 . S
C1261 C1278 1.574 . S
C1261 C1280 1.368 . S
C1261 H1285 0.949 1_554 S
H1262 C1266 0.949 . S
C1263 C1264 1.349 . S
C1263 C1265 1.327 . S
C1263 H1286 0.950 . S
C1264 C1263 1.349 . S
C1264 C1276 1.349 . S
C1265 C1263 1.327 . S
C1265 C1281 1.429 . S
C1265 H1287 0.950 . S
C1266 H1262 0.949 . S
C1266 C1274 1.574 . S
C1266 C1282 1.368 . S
H1267 C1275 0.950 . S
H1268 C1273 0.950 . S
H1269 C1274 0.949 . S
H1270 C1276 0.950 . S
H1271 C1277 0.950 . S
H1272 C1278 0.949 . S
C1273 H1268 0.950 . S
C1273 C1275 1.327 . S
C1273 C1279 1.429 . S
C1274 C1266 1.574 . S
C1274 H1269 0.949 . S
C1274 C1280 1.368 . S
C1275 C1259 1.349 . S
C1275 H1267 0.950 . S
C1275 C1273 1.327 . S
C1276 C1264 1.349 . S
C1276 H1270 0.950 . S
C1276 C1277 1.327 . S
C1277 H1271 0.950 . S
C1277 C1276 1.327 . S
C1277 C1281 1.429 . S
C1278 C1261 1.574 . S
C1278 H1272 0.949 . S
C1278 C1282 1.368 . S
C1279 C1260 1.429 . S
C1279 C1273 1.429 . S
C1279 C1280 1.523 1_556 S
C1280 C1261 1.368 . S
C1280 C1274 1.368 . S
C1280 C1279 1.523 1_554 S
C1281 C1265 1.429 . S
C1281 C1277 1.429 . S
C1281 C1282 1.523 . S
C1282 C1266 1.368 . S
C1282 C1278 1.368 . S
C1282 C1281 1.523 . S
H1283 C1258 0.950 . S
H1284 C1260 0.950 . S
H1285 C1261 0.949 1_556 S
H1286 C1263 0.950 . S
H1287 C1265 0.950 . S
C1288 C1289 1.349 . S
C1288 C1290 1.348 . S
C1288 H1313 0.941 1_565 S
C1289 C1288 1.349 . S
C1289 C1305 1.349 . S
C1290 C1288 1.348 . S
C1290 C1309 1.463 . S
C1290 H1314 0.897 1_565 S
C1291 C1308 1.574 . S
C1291 C1310 1.368 . S
C1291 H1315 0.949 . S
H1292 C1296 0.949 . S
C1293 C1294 1.349 . S
C1293 C1295 1.346 . S
C1293 H1316 0.938 1_545 S
C1294 C1293 1.349 . S
C1294 C1306 1.349 . S
C1295 C1293 1.346 . S
C1295 C1311 1.460 . S
C1295 H1317 0.901 1_545 S
C1296 H1292 0.949 . S
C1296 C1304 1.574 . S
C1296 C1312 1.368 . S
H1297 C1305 0.950 . S
H1298 C1303 0.950 . S
H1299 C1304 0.949 . S
H1300 C1306 0.950 . S
H1301 C1307 0.950 . S
H1302 C1308 0.949 . S
C1303 H1298 0.950 . S
C1303 C1305 1.327 . S
C1303 C1309 1.429 . S
C1304 C1296 1.574 . S
C1304 H1299 0.949 . S
C1304 C1310 1.368 1_545 S
C1305 C1289 1.349 . S
C1305 H1297 0.950 . S
C1305 C1303 1.327 . S
C1306 C1294 1.349 . S
C1306 H1300 0.950 . S
C1306 C1307 1.327 . S
C1307 H1301 0.950 . S
C1307 C1306 1.327 . S
C1307 C1311 1.429 . S
C1308 C1291 1.574 . S
C1308 H1302 0.949 . S
C1308 C1312 1.368 1_565 S
C1309 C1290 1.463 . S
C1309 C1303 1.429 . S
C1309 C1310 1.523 . S
C1310 C1291 1.368 . S
C1310 C1304 1.368 1_565 S
C1310 C1309 1.523 . S
C1311 C1295 1.460 . S
C1311 C1307 1.429 . S
C1311 C1312 1.523 . S
C1312 C1296 1.368 . S
C1312 C1308 1.368 1_545 S
C1312 C1311 1.523 . S
H1313 C1288 0.941 1_545 S
H1314 C1290 0.897 1_545 S
H1315 C1291 0.949 . S
H1316 C1293 0.938 1_565 S
H1317 C1295 0.901 1_565 S
C1318 C1319 1.349 . S
C1318 C1320 1.327 . S
C1318 H1343 0.950 . S
C1319 C1318 1.349 . S
C1319 C1335 1.349 . S
C1320 C1318 1.327 . S
C1320 C1339 1.429 . S
C1320 H1344 0.950 . S
C1321 C1338 1.574 . S
C1321 C1340 1.368 . S
C1321 H1345 0.949 . S
H1322 C1326 0.949 . S
C1323 C1324 1.349 . S
C1323 C1325 1.327 . S
C1323 H1346 0.950 . S
C1324 C1323 1.349 . S
C1324 C1336 1.349 . S
C1325 C1323 1.327 . S
C1325 C1341 1.429 . S
C1325 H1347 0.950 . S
C1326 H1322 0.949 . S
C1326 C1334 1.574 . S
C1326 C1342 1.368 . S
H1327 C1335 0.950 . S
H1328 C1333 0.950 . S
H1329 C1334 0.949 . S
H1330 C1336 0.950 . S
H1331 C1337 0.950 . S
H1332 C1338 0.949 . S
C1333 H1328 0.950 . S
C1333 C1335 1.327 . S
C1333 C1339 1.429 . S
C1334 C1326 1.574 . S
C1334 H1329 0.949 . S
C1334 C1340 1.368 . S
C1335 C1319 1.349 . S
C1335 H1327 0.950 . S
C1335 C1333 1.327 . S
C1336 C1324 1.349 . S
C1336 H1330 0.950 . S
C1336 C1337 1.327 . S
C1337 H1331 0.950 . S
C1337 C1336 1.327 . S
C1337 C1341 1.429 . S
C1338 C1321 1.574 . S
C1338 H1332 0.949 . S
C1338 C1342 1.368 . S
C1339 C1320 1.429 . S
C1339 C1333 1.429 . S
C1339 C1340 1.523 . S
C1340 C1321 1.368 . S
C1340 C1334 1.368 . S
C1340 C1339 1.523 . S
C1341 C1325 1.429 . S
C1341 C1337 1.429 . S
C1341 C1342 1.523 . S
C1342 C1326 1.368 . S
C1342 C1338 1.368 . S
C1342 C1341 1.523 . S
H1343 C1318 0.950 . S
H1344 C1320 0.950 . S
H1345 C1321 0.949 . S
H1346 C1323 0.950 . S
H1347 C1325 0.950 . S
C1348 C1349 1.349 . S
C1348 C1350 1.327 . S
C1348 H1373 0.979 . S
C1349 C1348 1.349 . S
C1349 C1365 1.349 . S
C1350 C1348 1.327 . S
C1350 C1369 1.429 . S
C1350 H1374 0.950 1_545 S
C1351 C1368 1.574 . S
C1351 C1370 1.368 . S
C1351 H1375 0.949 . S
H1352 C1356 0.949 . S
C1353 C1354 1.349 . S
C1353 C1355 1.327 . S
C1353 H1376 0.977 . S
C1354 C1353 1.349 . S
C1354 C1366 1.349 . S
C1355 C1353 1.327 . S
C1355 C1371 1.429 . S
C1355 H1377 0.950 1_565 S
C1356 H1352 0.949 . S
C1356 C1364 1.574 . S
C1356 C1372 1.368 . S
H1357 C1365 0.950 . S
H1358 C1363 0.950 . S
H1359 C1364 0.949 . S
H1360 C1366 0.950 . S
H1361 C1367 0.950 . S
H1362 C1368 0.949 . S
C1363 H1358 0.950 . S
C1363 C1365 1.327 . S
C1363 C1369 1.429 . S
C1364 C1356 1.574 . S
C1364 H1359 0.949 . S
C1364 C1370 1.368 1_565 S
C1365 C1349 1.349 . S
C1365 H1357 0.950 . S
C1365 C1363 1.327 . S
C1366 C1354 1.349 . S
C1366 H1360 0.950 . S
C1366 C1367 1.327 . S
C1367 H1361 0.950 . S
C1367 C1366 1.327 . S
C1367 C1371 1.429 . S
C1368 C1351 1.574 . S
C1368 H1362 0.949 . S
C1368 C1372 1.368 1_545 S
C1369 C1350 1.429 . S
C1369 C1363 1.429 . S
C1369 C1370 1.523 . S
C1370 C1351 1.368 . S
C1370 C1364 1.368 1_545 S
C1370 C1369 1.523 . S
C1371 C1355 1.429 . S
C1371 C1367 1.429 . S
C1371 C1372 1.523 . S
C1372 C1356 1.368 . S
C1372 C1368 1.368 1_565 S
C1372 C1371 1.523 . S
H1373 C1348 0.979 . S
H1374 C1350 0.950 1_565 S
H1375 C1351 0.949 . S
H1376 C1353 0.977 . S
H1377 C1355 0.950 1_545 S
C1378 C1379 1.349 . S
C1378 C1380 1.327 . S
C1378 H1403 0.950 . S
C1379 C1378 1.349 . S
C1379 C1395 1.349 . S
C1380 C1378 1.327 . S
C1380 C1399 1.429 . S
C1380 H1404 0.950 . S
C1381 C1398 1.574 . S
C1381 C1400 1.368 . S
C1381 H1405 0.949 . S
H1382 C1386 0.949 1_556 S
C1383 C1384 1.349 . S
C1383 C1385 1.327 . S
C1383 H1406 0.950 . S
C1384 C1383 1.349 . S
C1384 C1396 1.349 . S
C1385 C1383 1.327 . S
C1385 C1401 1.429 . S
C1385 H1407 0.950 . S
C1386 H1382 0.949 1_554 S
C1386 C1394 1.574 . S
C1386 C1402 1.368 . S
H1387 C1395 0.950 . S
H1388 C1393 0.950 . S
H1389 C1394 0.949 . S
H1390 C1396 0.950 . S
H1391 C1397 0.950 . S
H1392 C1398 0.949 . S
C1393 H1388 0.950 . S
C1393 C1395 1.327 . S
C1393 C1399 1.429 . S
C1394 C1386 1.574 . S
C1394 H1389 0.949 . S
C1394 C1400 1.368 . S
C1395 C1379 1.349 . S
C1395 H1387 0.950 . S
C1395 C1393 1.327 . S
C1396 C1384 1.349 . S
C1396 H1390 0.950 . S
C1396 C1397 1.327 . S
C1397 H1391 0.950 . S
C1397 C1396 1.327 . S
C1397 C1401 1.429 . S
C1398 C1381 1.574 . S
C1398 H1392 0.949 . S
C1398 C1402 1.368 . S
C1399 C1380 1.429 . S
C1399 C1393 1.429 . S
C1399 C1400 1.523 . S
C1400 C1381 1.368 . S
C1400 C1394 1.368 . S
C1400 C1399 1.523 . S
C1401 C1385 1.429 . S
C1401 C1397 1.429 . S
C1401 C1402 1.523 1_556 S
C1402 C1386 1.368 . S
C1402 C1398 1.368 . S
C1402 C1401 1.523 1_554 S
H1403 C1378 0.950 . S
H1404 C1380 0.950 . S
H1405 C1381 0.949 . S
H1406 C1383 0.950 . S
H1407 C1385 0.950 . S
C1408 C1409 1.349 . S
C1408 C1410 1.327 . S
C1408 H1433 0.950 . S
C1409 C1408 1.349 . S
C1409 C1425 1.349 . S
C1410 C1408 1.327 . S
C1410 C1429 1.429 . S
C1410 H1434 0.950 . S
C1411 C1428 1.574 . S
C1411 C1430 1.368 . S
C1411 H1435 0.949 . S
H1412 C1416 0.949 . S
C1413 C1414 1.349 . S
C1413 C1415 1.327 . S
C1413 H1436 0.950 . S
C1414 C1413 1.349 . S
C1414 C1426 1.349 . S
C1415 C1413 1.327 . S
C1415 C1431 1.429 . S
C1415 H1437 0.950 . S
C1416 H1412 0.949 . S
C1416 C1424 1.574 . S
C1416 C1432 1.368 . S
H1417 C1425 0.950 . S
H1418 C1423 0.950 . S
H1419 C1424 0.949 . S
H1420 C1426 0.950 . S
H1421 C1427 0.950 . S
H1422 C1428 0.949 . S
C1423 H1418 0.950 . S
C1423 C1425 1.327 . S
C1423 C1429 1.429 . S
C1424 C1416 1.574 . S
C1424 H1419 0.949 . S
C1424 C1430 1.368 . S
C1425 C1409 1.349 . S
C1425 H1417 0.950 . S
C1425 C1423 1.327 . S
C1426 C1414 1.349 . S
C1426 H1420 0.950 . S
C1426 C1427 1.327 . S
C1427 H1421 0.950 . S
C1427 C1426 1.327 . S
C1427 C1431 1.429 . S
C1428 C1411 1.574 . S
C1428 H1422 0.949 . S
C1428 C1432 1.368 . S
C1429 C1410 1.429 . S
C1429 C1423 1.429 . S
C1429 C1430 1.523 . S
C1430 C1411 1.368 . S
C1430 C1424 1.368 . S
C1430 C1429 1.523 . S
C1431 C1415 1.429 . S
C1431 C1427 1.429 . S
C1431 C1432 1.523 . S
C1432 C1416 1.368 . S
C1432 C1428 1.368 . S
C1432 C1431 1.523 . S
H1433 C1408 0.950 . S
H1434 C1410 0.950 . S
H1435 C1411 0.949 . S
H1436 C1413 0.950 . S
H1437 C1415 0.950 . S
C1438 C1439 1.349 . S
C1438 C1440 1.327 . S
C1438 H1463 0.950 . S
C1439 C1438 1.349 . S
C1439 C1455 1.349 . S
C1440 C1438 1.327 . S
C1440 C1459 1.429 . S
C1440 H1464 0.950 . S
C1441 C1458 1.574 . S
C1441 C1460 1.368 . S
C1441 H1465 0.949 . S
H1442 C1446 0.949 . S
C1443 C1444 1.349 . S
C1443 C1445 1.327 . S
C1443 H1466 0.950 . S
C1444 C1443 1.349 . S
C1444 C1456 1.349 . S
C1445 C1443 1.327 . S
C1445 C1461 1.429 . S
C1445 H1467 0.950 . S
C1446 H1442 0.949 . S
C1446 C1454 1.574 . S
C1446 C1462 1.368 . S
H1447 C1455 0.950 . S
H1448 C1453 0.950 . S
H1449 C1454 0.949 . S
H1450 C1456 0.950 . S
H1451 C1457 0.950 . S
H1452 C1458 0.949 . S
C1453 H1448 0.950 . S
C1453 C1455 1.327 . S
C1453 C1459 1.429 . S
C1454 C1446 1.574 . S
C1454 H1449 0.949 . S
C1454 C1460 1.368 . S
C1455 C1439 1.349 . S
C1455 H1447 0.950 . S
C1455 C1453 1.327 . S
C1456 C1444 1.349 . S
C1456 H1450 0.950 . S
C1456 C1457 1.327 . S
C1457 H1451 0.950 . S
C1457 C1456 1.327 . S
C1457 C1461 1.429 . S
C1458 C1441 1.574 . S
C1458 H1452 0.949 . S
C1458 C1462 1.368 . S
C1459 C1440 1.429 . S
C1459 C1453 1.429 . S
C1459 C1460 1.523 . S
C1460 C1441 1.368 . S
C1460 C1454 1.368 . S
C1460 C1459 1.523 . S
C1461 C1445 1.429 . S
C1461 C1457 1.429 . S
C1461 C1462 1.523 . S
C1462 C1446 1.368 . S
C1462 C1458 1.368 . S
C1462 C1461 1.523 . S
H1463 C1438 0.950 . S
H1464 C1440 0.950 . S
H1465 C1441 0.949 . S
H1466 C1443 0.950 . S
H1467 C1445 0.950 . S
C1468 C1469 1.349 . S
C1468 C1470 1.327 . S
C1468 H1493 0.950 . S
C1469 C1468 1.349 . S
C1469 C1485 1.349 . S
C1470 C1468 1.327 . S
C1470 C1489 1.429 . S
C1470 H1494 0.950 . S
C1471 C1488 1.574 . S
C1471 C1490 1.368 . S
C1471 H1495 0.949 . S
H1472 C1476 0.949 . S
C1473 C1474 1.349 . S
C1473 C1475 1.327 . S
C1473 H1496 0.950 . S
C1474 C1473 1.349 . S
C1474 C1486 1.349 . S
C1475 C1473 1.327 . S
C1475 C1491 1.429 . S
C1475 H1497 0.950 . S
C1476 H1472 0.949 . S
C1476 C1484 1.574 . S
C1476 C1492 1.368 . S
H1477 C1485 0.950 . S
H1478 C1483 0.950 . S
H1479 C1484 0.949 . S
H1480 C1486 0.950 . S
H1481 C1487 0.950 . S
H1482 C1488 0.949 . S
C1483 H1478 0.950 . S
C1483 C1485 1.327 . S
C1483 C1489 1.429 . S
C1484 C1476 1.574 . S
C1484 H1479 0.949 . S
C1484 C1490 1.368 . S
C1485 C1469 1.349 . S
C1485 H1477 0.950 . S
C1485 C1483 1.327 . S
C1486 C1474 1.349 . S
C1486 H1480 0.950 . S
C1486 C1487 1.327 . S
C1487 H1481 0.950 . S
C1487 C1486 1.327 . S
C1487 C1491 1.429 . S
C1488 C1471 1.574 . S
C1488 H1482 0.949 . S
C1488 C1492 1.368 . S
C1489 C1470 1.429 . S
C1489 C1483 1.429 . S
C1489 C1490 1.523 . S
C1490 C1471 1.368 . S
C1490 C1484 1.368 . S
C1490 C1489 1.523 . S
C1491 C1475 1.429 . S
C1491 C1487 1.429 . S
C1491 C1492 1.523 . S
C1492 C1476 1.368 . S
C1492 C1488 1.368 . S
C1492 C1491 1.523 . S
H1493 C1468 0.950 . S
H1494 C1470 0.950 . S
H1495 C1471 0.949 . S
H1496 C1473 0.950 . S
H1497 C1475 0.950 . S
C1498 C1499 1.349 . S
C1498 C1500 1.327 . S
C1498 H1523 0.950 . S
C1499 C1498 1.349 . S
C1499 C1515 1.349 . S
C1500 C1498 1.327 . S
C1500 C1519 1.429 . S
C1500 H1524 0.950 . S
C1501 C1518 1.574 . S
C1501 C1520 1.368 . S
C1501 H1525 0.949 . S
H1502 C1506 0.949 1_556 S
C1503 C1504 1.349 . S
C1503 C1505 1.327 . S
C1503 H1526 0.950 . S
C1504 C1503 1.349 . S
C1504 C1516 1.349 . S
C1505 C1503 1.327 . S
C1505 C1521 1.429 . S
C1505 H1527 0.950 . S
C1506 H1502 0.949 1_554 S
C1506 C1514 1.574 . S
C1506 C1522 1.368 . S
H1507 C1515 0.950 . S
H1508 C1513 0.950 . S
H1509 C1514 0.949 . S
H1510 C1516 0.950 . S
H1511 C1517 0.950 . S
H1512 C1518 0.949 . S
C1513 H1508 0.950 . S
C1513 C1515 1.327 . S
C1513 C1519 1.429 . S
C1514 C1506 1.574 . S
C1514 H1509 0.949 . S
C1514 C1520 1.368 . S
C1515 C1499 1.349 . S
C1515 H1507 0.950 . S
C1515 C1513 1.327 . S
C1516 C1504 1.349 . S
C1516 H1510 0.950 . S
C1516 C1517 1.327 . S
C1517 H1511 0.950 . S
C1517 C1516 1.327 . S
C1517 C1521 1.429 . S
C1518 C1501 1.574 . S
C1518 H1512 0.949 . S
C1518 C1522 1.368 . S
C1519 C1500 1.429 . S
C1519 C1513 1.429 . S
C1519 C1520 1.523 . S
C1520 C1501 1.368 . S
C1520 C1514 1.368 . S
C1520 C1519 1.523 . S
C1521 C1505 1.429 . S
C1521 C1517 1.429 . S
C1521 C1522 1.523 1_556 S
C1522 C1506 1.368 . S
C1522 C1518 1.368 . S
C1522 C1521 1.523 1_554 S
H1523 C1498 0.950 . S
H1524 C1500 0.950 . S
H1525 C1501 0.949 . S
H1526 C1503 0.950 . S
H1527 C1505 0.950 . S
C1528 C1529 1.349 . S
C1528 C1530 1.327 . S
C1528 H1553 0.950 . S
C1529 C1528 1.349 . S
C1529 C1545 1.349 . S
C1530 C1528 1.327 . S
C1530 C1549 1.429 . S
C1530 H1554 0.950 . S
C1531 C1548 1.574 . S
C1531 C1550 1.368 . S
C1531 H1555 0.949 . S
H1532 C1536 0.949 . S
C1533 C1534 1.349 . S
C1533 C1535 1.327 . S
C1533 H1556 0.950 . S
C1534 C1533 1.349 . S
C1534 C1546 1.349 . S
C1535 C1533 1.327 . S
C1535 C1551 1.429 . S
C1535 H1557 0.950 . S
C1536 H1532 0.949 . S
C1536 C1544 1.574 . S
C1536 C1552 1.368 . S
H1537 C1545 0.950 . S
H1538 C1543 0.950 . S
H1539 C1544 0.949 . S
H1540 C1546 0.950 . S
H1541 C1547 0.950 . S
H1542 C1548 0.949 . S
C1543 H1538 0.950 . S
C1543 C1545 1.327 . S
C1543 C1549 1.429 . S
C1544 C1536 1.574 . S
C1544 H1539 0.949 . S
C1544 C1550 1.368 . S
C1545 C1529 1.349 . S
C1545 H1537 0.950 . S
C1545 C1543 1.327 . S
C1546 C1534 1.349 . S
C1546 H1540 0.950 . S
C1546 C1547 1.327 . S
C1547 H1541 0.950 . S
C1547 C1546 1.327 . S
C1547 C1551 1.429 . S
C1548 C1531 1.574 . S
C1548 H1542 0.949 . S
C1548 C1552 1.368 . S
C1549 C1530 1.429 . S
C1549 C1543 1.429 . S
C1549 C1550 1.523 . S
C1550 C1531 1.368 . S
C1550 C1544 1.368 . S
C1550 C1549 1.523 . S
C1551 C1535 1.429 . S
C1551 C1547 1.429 . S
C1551 C1552 1.523 . S
C1552 C1536 1.368 . S
C1552 C1548 1.368 . S
C1552 C1551 1.523 . S
H1553 C1528 0.950 . S
H1554 C1530 0.950 . S
H1555 C1531 0.949 . S
H1556 C1533 0.950 . S
H1557 C1535 0.950 . S
C1558 C1559 1.349 . S
C1558 C1560 1.327 . S
C1558 H1583 0.950 . S
C1559 C1558 1.349 . S
C1559 C1575 1.349 . S
C1560 C1558 1.327 . S
C1560 C1579 1.429 . S
C1560 H1584 0.950 . S
C1561 C1578 1.574 . S
C1561 C1580 1.368 . S
C1561 H1585 0.949 . S
H1562 C1566 0.949 . S
C1563 C1564 1.349 . S
C1563 C1565 1.327 . S
C1563 H1586 0.950 . S
C1564 C1563 1.349 . S
C1564 C1576 1.349 . S
C1565 C1563 1.327 . S
C1565 C1581 1.429 . S
C1565 H1587 0.950 . S
C1566 H1562 0.949 . S
C1566 C1574 1.574 . S
C1566 C1582 1.368 . S
H1567 C1575 0.950 . S
H1568 C1573 0.950 . S
H1569 C1574 0.949 . S
H1570 C1576 0.950 . S
H1571 C1577 0.950 . S
H1572 C1578 0.949 . S
C1573 H1568 0.950 . S
C1573 C1575 1.327 . S
C1573 C1579 1.429 . S
C1574 C1566 1.574 . S
C1574 H1569 0.949 . S
C1574 C1580 1.368 . S
C1575 C1559 1.349 . S
C1575 H1567 0.950 . S
C1575 C1573 1.327 . S
C1576 C1564 1.349 . S
C1576 H1570 0.950 . S
C1576 C1577 1.327 . S
C1577 H1571 0.950 . S
C1577 C1576 1.327 . S
C1577 C1581 1.429 . S
C1578 C1561 1.574 . S
C1578 H1572 0.949 . S
C1578 C1582 1.368 . S
C1579 C1560 1.429 . S
C1579 C1573 1.429 . S
C1579 C1580 1.523 . S
C1580 C1561 1.368 . S
C1580 C1574 1.368 . S
C1580 C1579 1.523 . S
C1581 C1565 1.429 . S
C1581 C1577 1.429 . S
C1581 C1582 1.523 . S
C1582 C1566 1.368 . S
C1582 C1578 1.368 . S
C1582 C1581 1.523 . S
H1583 C1558 0.950 . S
H1584 C1560 0.950 . S
H1585 C1561 0.949 . S
H1586 C1563 0.950 . S
H1587 C1565 0.950 . S
C1588 C1589 1.349 . S
C1588 C1590 1.327 . S
C1588 H1613 0.950 . S
C1589 C1588 1.349 . S
C1589 C1605 1.349 . S
C1590 C1588 1.327 . S
C1590 C1609 1.429 . S
C1590 H1614 0.950 . S
C1591 C1608 1.574 . S
C1591 C1610 1.368 . S
C1591 H1615 0.949 . S
H1592 C1596 0.949 . S
C1593 C1594 1.349 . S
C1593 C1595 1.327 . S
C1593 H1616 0.950 . S
C1594 C1593 1.349 . S
C1594 C1606 1.349 . S
C1595 C1593 1.327 . S
C1595 C1611 1.429 . S
C1595 H1617 0.950 . S
C1596 H1592 0.949 . S
C1596 C1604 1.574 . S
C1596 C1612 1.368 . S
H1597 C1605 0.950 . S
H1598 C1603 0.950 . S
H1599 C1604 0.949 . S
H1600 C1606 0.950 . S
H1601 C1607 0.950 . S
H1602 C1608 0.949 . S
C1603 H1598 0.950 . S
C1603 C1605 1.327 . S
C1603 C1609 1.429 . S
C1604 C1596 1.574 . S
C1604 H1599 0.949 . S
C1604 C1610 1.368 . S
C1605 C1589 1.349 . S
C1605 H1597 0.950 . S
C1605 C1603 1.327 . S
C1606 C1594 1.349 . S
C1606 H1600 0.950 . S
C1606 C1607 1.327 . S
C1607 H1601 0.950 . S
C1607 C1606 1.327 . S
C1607 C1611 1.429 . S
C1608 C1591 1.574 . S
C1608 H1602 0.949 . S
C1608 C1612 1.368 . S
C1609 C1590 1.429 . S
C1609 C1603 1.429 . S
C1609 C1610 1.523 . S
C1610 C1591 1.368 . S
C1610 C1604 1.368 . S
C1610 C1609 1.523 . S
C1611 C1595 1.429 . S
C1611 C1607 1.429 . S
C1611 C1612 1.523 . S
C1612 C1596 1.368 . S
C1612 C1608 1.368 . S
C1612 C1611 1.523 . S
H1613 C1588 0.950 . S
H1614 C1590 0.950 . S
H1615 C1591 0.949 . S
H1616 C1593 0.950 . S
H1617 C1595 0.950 . S
C1618 C1619 1.349 . S
C1618 C1620 1.327 . S
C1618 H1643 0.950 . S
C1619 C1618 1.349 . S
C1619 C1635 1.349 . S
C1620 C1618 1.327 . S
C1620 C1639 1.429 . S
C1620 H1644 0.950 . S
C1621 C1638 1.574 . S
C1621 C1640 1.368 . S
C1621 H1645 0.949 . S
H1622 C1626 0.949 . S
C1623 C1624 1.349 . S
C1623 C1625 1.327 . S
C1623 H1646 0.950 . S
C1624 C1623 1.349 . S
C1624 C1636 1.349 . S
C1625 C1623 1.327 . S
C1625 C1641 1.429 . S
C1625 H1647 0.950 . S
C1626 H1622 0.949 . S
C1626 C1634 1.574 . S
C1626 C1642 1.368 . S
H1627 C1635 0.950 . S
H1628 C1633 0.950 . S
H1629 C1634 0.949 1_556 S
H1630 C1636 0.950 . S
H1631 C1637 0.950 . S
H1632 C1638 0.949 . S
C1633 H1628 0.950 . S
C1633 C1635 1.327 . S
C1633 C1639 1.429 . S
C1634 C1626 1.574 . S
C1634 H1629 0.949 1_554 S
C1634 C1640 1.368 . S
C1635 C1619 1.349 . S
C1635 H1627 0.950 . S
C1635 C1633 1.327 . S
C1636 C1624 1.349 . S
C1636 H1630 0.950 . S
C1636 C1637 1.327 . S
C1637 H1631 0.950 . S
C1637 C1636 1.327 . S
C1637 C1641 1.429 . S
C1638 C1621 1.574 . S
C1638 H1632 0.949 . S
C1638 C1642 1.368 . S
C1639 C1620 1.429 . S
C1639 C1633 1.429 . S
C1639 C1640 1.523 1_556 S
C1640 C1621 1.368 . S
C1640 C1634 1.368 . S
C1640 C1639 1.523 1_554 S
C1641 C1625 1.429 . S
C1641 C1637 1.429 . S
C1641 C1642 1.523 . S
C1642 C1626 1.368 . S
C1642 C1638 1.368 . S
C1642 C1641 1.523 . S
H1643 C1618 0.950 . S
H1644 C1620 0.950 . S
H1645 C1621 0.949 . S
H1646 C1623 0.950 . S
H1647 C1625 0.950 . S
C1648 C1649 1.349 . S
C1648 C1650 1.320 1_565 S
C1648 H1673 0.950 1_565 S
C1649 C1648 1.349 . S
C1649 C1665 1.349 . S
C1650 C1648 1.320 1_545 S
C1650 C1669 1.414 1_545 S
C1650 H1674 0.972 . S
C1651 C1668 1.574 . S
C1651 C1670 1.368 . S
C1651 H1675 0.949 . S
H1652 C1656 0.949 . S
C1653 C1654 1.349 . S
C1653 C1655 1.319 1_545 S
C1653 H1676 0.950 1_545 S
C1654 C1653 1.349 . S
C1654 C1666 1.349 . S
C1655 C1653 1.319 1_565 S
C1655 C1671 1.412 1_565 S
C1655 H1677 0.976 . S
C1656 H1652 0.949 . S
C1656 C1664 1.574 . S
C1656 C1672 1.368 . S
H1657 C1665 0.950 . S
H1658 C1663 0.950 . S
H1659 C1664 0.949 . S
H1660 C1666 0.950 . S
H1661 C1667 0.950 . S
H1662 C1668 0.949 . S
C1663 H1658 0.950 . S
C1663 C1665 1.327 . S
C1663 C1669 1.429 . S
C1664 C1656 1.574 . S
C1664 H1659 0.949 . S
C1664 C1670 1.368 1_545 S
C1665 C1649 1.349 . S
C1665 H1657 0.950 . S
C1665 C1663 1.327 . S
C1666 C1654 1.349 . S
C1666 H1660 0.950 . S
C1666 C1667 1.327 . S
C1667 H1661 0.950 . S
C1667 C1666 1.327 . S
C1667 C1671 1.429 . S
C1668 C1651 1.574 . S
C1668 H1662 0.949 . S
C1668 C1672 1.368 1_565 S
C1669 C1650 1.414 1_565 S
C1669 C1663 1.429 . S
C1669 C1670 1.523 . S
C1670 C1651 1.368 . S
C1670 C1664 1.368 1_565 S
C1670 C1669 1.523 . S
C1671 C1655 1.412 1_545 S
C1671 C1667 1.429 . S
C1671 C1672 1.523 . S
C1672 C1656 1.368 . S
C1672 C1668 1.368 1_545 S
C1672 C1671 1.523 . S
H1673 C1648 0.950 1_545 S
H1674 C1650 0.972 . S
H1675 C1651 0.949 . S
H1676 C1653 0.950 1_565 S
H1677 C1655 0.976 . S
C1678 C1679 1.349 . S
C1678 C1680 1.327 . S
C1678 H1703 0.950 . S
C1679 C1678 1.349 . S
C1679 C1695 1.349 . S
C1680 C1678 1.327 . S
C1680 C1699 1.429 . S
C1680 H1704 0.950 . S
C1681 C1698 1.574 . S
C1681 C1700 1.368 . S
C1681 H1705 0.949 . S
H1682 C1686 0.949 1_556 S
C1683 C1684 1.349 . S
C1683 C1685 1.327 . S
C1683 H1706 0.950 . S
C1684 C1683 1.349 . S
C1684 C1696 1.349 . S
C1685 C1683 1.327 . S
C1685 C1701 1.429 . S
C1685 H1707 0.950 . S
C1686 H1682 0.949 1_554 S
C1686 C1694 1.574 . S
C1686 C1702 1.368 . S
H1687 C1695 0.950 . S
H1688 C1693 0.950 . S
H1689 C1694 0.949 . S
H1690 C1696 0.950 . S
H1691 C1697 0.950 . S
H1692 C1698 0.949 . S
C1693 H1688 0.950 . S
C1693 C1695 1.327 . S
C1693 C1699 1.429 . S
C1694 C1686 1.574 . S
C1694 H1689 0.949 . S
C1694 C1700 1.368 . S
C1695 C1679 1.349 . S
C1695 H1687 0.950 . S
C1695 C1693 1.327 . S
C1696 C1684 1.349 . S
C1696 H1690 0.950 . S
C1696 C1697 1.327 . S
C1697 H1691 0.950 . S
C1697 C1696 1.327 . S
C1697 C1701 1.429 . S
C1698 C1681 1.574 . S
C1698 H1692 0.949 . S
C1698 C1702 1.368 . S
C1699 C1680 1.429 . S
C1699 C1693 1.429 . S
C1699 C1700 1.523 . S
C1700 C1681 1.368 . S
C1700 C1694 1.368 . S
C1700 C1699 1.523 . S
C1701 C1685 1.429 . S
C1701 C1697 1.429 . S
C1701 C1702 1.523 1_556 S
C1702 C1686 1.368 . S
C1702 C1698 1.368 . S
C1702 C1701 1.523 1_554 S
H1703 C1678 0.950 . S
H1704 C1680 0.950 . S
H1705 C1681 0.949 . S
H1706 C1683 0.950 . S
H1707 C1685 0.950 . S
C1708 C1709 1.349 . S
C1708 C1710 1.327 . S
C1708 H1733 0.950 . S
C1709 C1708 1.349 . S
C1709 C1725 1.349 . S
C1710 C1708 1.327 . S
C1710 C1729 1.429 . S
C1710 H1734 0.950 . S
C1711 C1728 1.574 . S
C1711 C1730 1.368 1_545 S
C1711 H1735 0.949 . S
H1712 C1716 0.949 . S
C1713 C1714 1.349 . S
C1713 C1715 1.327 . S
C1713 H1736 0.950 . S
C1714 C1713 1.349 . S
C1714 C1726 1.349 . S
C1715 C1713 1.327 . S
C1715 C1731 1.429 . S
C1715 H1737 0.950 . S
C1716 H1712 0.949 . S
C1716 C1724 1.574 . S
C1716 C1732 1.368 1_565 S
H1717 C1725 0.950 1_545 S
H1718 C1723 0.961 . S
H1719 C1724 0.949 . S
H1720 C1726 0.950 1_565 S
H1721 C1727 0.957 . S
H1722 C1728 0.949 . S
C1723 H1718 0.961 . S
C1723 C1725 1.323 1_545 S
C1723 C1729 1.421 1_545 S
C1724 C1716 1.574 . S
C1724 H1719 0.949 . S
C1724 C1730 1.368 . S
C1725 C1709 1.349 . S
C1725 H1717 0.950 1_565 S
C1725 C1723 1.323 1_565 S
C1726 C1714 1.349 . S
C1726 H1720 0.950 1_545 S
C1726 C1727 1.325 1_545 S
C1727 H1721 0.957 . S
C1727 C1726 1.325 1_565 S
C1727 C1731 1.424 1_565 S
C1728 C1711 1.574 . S
C1728 H1722 0.949 . S
C1728 C1732 1.368 . S
C1729 C1710 1.429 . S
C1729 C1723 1.421 1_565 S
C1729 C1730 1.523 . S
C1730 C1711 1.368 1_565 S
C1730 C1724 1.368 . S
C1730 C1729 1.523 . S
C1731 C1715 1.429 . S
C1731 C1727 1.424 1_545 S
C1731 C1732 1.523 . S
C1732 C1716 1.368 1_545 S
C1732 C1728 1.368 . S
C1732 C1731 1.523 . S
H1733 C1708 0.950 . S
H1734 C1710 0.950 . S
H1735 C1711 0.949 . S
H1736 C1713 0.950 . S
H1737 C1715 0.950 . S
C1738 C1739 1.349 . S
C1738 C1740 1.327 . S
C1738 H1763 0.950 . S
C1739 C1738 1.349 . S
C1739 C1755 1.349 . S
C1740 C1738 1.327 . S
C1740 C1759 1.429 . S
C1740 H1764 0.950 . S
C1741 C1758 1.574 . S
C1741 C1760 1.368 . S
C1741 H1765 0.949 . S
H1742 C1746 0.949 . S
C1743 C1744 1.349 . S
C1743 C1745 1.327 . S
C1743 H1766 0.950 . S
C1744 C1743 1.349 . S
C1744 C1756 1.349 . S
C1745 C1743 1.327 . S
C1745 C1761 1.429 . S
C1745 H1767 0.950 . S
C1746 H1742 0.949 . S
C1746 C1754 1.574 . S
C1746 C1762 1.368 . S
H1747 C1755 0.950 . S
H1748 C1753 0.950 . S
H1749 C1754 0.949 . S
H1750 C1756 0.950 . S
H1751 C1757 0.950 . S
H1752 C1758 0.949 . S
C1753 H1748 0.950 . S
C1753 C1755 1.327 . S
C1753 C1759 1.429 . S
C1754 C1746 1.574 . S
C1754 H1749 0.949 . S
C1754 C1760 1.368 . S
C1755 C1739 1.349 . S
C1755 H1747 0.950 . S
C1755 C1753 1.327 . S
C1756 C1744 1.349 . S
C1756 H1750 0.950 . S
C1756 C1757 1.327 . S
C1757 H1751 0.950 . S
C1757 C1756 1.327 . S
C1757 C1761 1.429 . S
C1758 C1741 1.574 . S
C1758 H1752 0.949 . S
C1758 C1762 1.368 . S
C1759 C1740 1.429 . S
C1759 C1753 1.429 . S
C1759 C1760 1.523 . S
C1760 C1741 1.368 . S
C1760 C1754 1.368 . S
C1760 C1759 1.523 . S
C1761 C1745 1.429 . S
C1761 C1757 1.429 . S
C1761 C1762 1.523 . S
C1762 C1746 1.368 . S
C1762 C1758 1.368 . S
C1762 C1761 1.523 . S
H1763 C1738 0.950 . S
H1764 C1740 0.950 . S
H1765 C1741 0.949 . S
H1766 C1743 0.950 . S
H1767 C1745 0.950 . S
C1768 C1769 1.349 . S
C1768 C1770 1.327 . S
C1768 H1793 0.950 . S
C1769 C1768 1.349 . S
C1769 C1785 1.349 . S
C1770 C1768 1.327 . S
C1770 C1789 1.429 . S
C1770 H1794 0.950 . S
C1771 C1788 1.574 . S
C1771 C1790 1.368 1_545 S
C1771 H1795 0.949 . S
H1772 C1776 0.949 . S
C1773 C1774 1.349 . S
C1773 C1775 1.327 . S
C1773 H1796 0.950 . S
C1774 C1773 1.349 . S
C1774 C1786 1.349 . S
C1775 C1773 1.327 . S
C1775 C1791 1.429 . S
C1775 H1797 0.950 . S
C1776 H1772 0.949 . S
C1776 C1784 1.574 . S
C1776 C1792 1.368 1_565 S
H1777 C1785 0.950 1_545 S
H1778 C1783 0.950 . S
H1779 C1784 0.949 . S
H1780 C1786 0.950 1_565 S
H1781 C1787 0.950 . S
H1782 C1788 0.949 . S
C1783 H1778 0.950 . S
C1783 C1785 1.327 1_545 S
C1783 C1789 1.429 1_545 S
C1784 C1776 1.574 . S
C1784 H1779 0.949 . S
C1784 C1790 1.368 . S
C1785 C1769 1.349 . S
C1785 H1777 0.950 1_565 S
C1785 C1783 1.327 1_565 S
C1786 C1774 1.349 . S
C1786 H1780 0.950 1_545 S
C1786 C1787 1.327 1_545 S
C1787 H1781 0.950 . S
C1787 C1786 1.327 1_565 S
C1787 C1791 1.429 1_565 S
C1788 C1771 1.574 . S
C1788 H1782 0.949 . S
C1788 C1792 1.368 . S
C1789 C1770 1.429 . S
C1789 C1783 1.429 1_565 S
C1789 C1790 1.523 . S
C1790 C1771 1.368 1_565 S
C1790 C1784 1.368 . S
C1790 C1789 1.523 . S
C1791 C1775 1.429 . S
C1791 C1787 1.429 1_545 S
C1791 C1792 1.523 . S
C1792 C1776 1.368 1_545 S
C1792 C1788 1.368 . S
C1792 C1791 1.523 . S
H1793 C1768 0.950 . S
H1794 C1770 0.950 . S
H1795 C1771 0.949 . S
H1796 C1773 0.950 . S
H1797 C1775 0.950 . S
C1798 C1799 1.349 . S
C1798 C1800 1.327 . S
C1798 H1823 0.950 . S
C1799 C1798 1.349 . S
C1799 C1815 1.349 . S
C1800 C1798 1.327 . S
C1800 C1819 1.429 . S
C1800 H1824 0.950 . S
C1801 C1818 1.574 . S
C1801 C1820 1.368 . S
C1801 H1825 0.949 . S
H1802 C1806 0.949 . S
C1803 C1804 1.349 . S
C1803 C1805 1.327 . S
C1803 H1826 0.950 . S
C1804 C1803 1.349 . S
C1804 C1816 1.349 . S
C1805 C1803 1.327 . S
C1805 C1821 1.429 . S
C1805 H1827 0.950 . S
C1806 H1802 0.949 . S
C1806 C1814 1.574 . S
C1806 C1822 1.368 . S
H1807 C1815 0.950 . S
H1808 C1813 0.950 . S
H1809 C1814 0.949 . S
H1810 C1816 0.950 . S
H1811 C1817 0.950 . S
H1812 C1818 0.949 1_556 S
C1813 H1808 0.950 . S
C1813 C1815 1.327 . S
C1813 C1819 1.429 . S
C1814 C1806 1.574 . S
C1814 H1809 0.949 . S
C1814 C1820 1.368 . S
C1815 C1799 1.349 . S
C1815 H1807 0.950 . S
C1815 C1813 1.327 . S
C1816 C1804 1.349 . S
C1816 H1810 0.950 . S
C1816 C1817 1.327 . S
C1817 H1811 0.950 . S
C1817 C1816 1.327 . S
C1817 C1821 1.429 . S
C1818 C1801 1.574 . S
C1818 H1812 0.949 1_554 S
C1818 C1822 1.368 . S
C1819 C1800 1.429 . S
C1819 C1813 1.429 . S
C1819 C1820 1.523 . S
C1820 C1801 1.368 . S
C1820 C1814 1.368 . S
C1820 C1819 1.523 . S
C1821 C1805 1.429 . S
C1821 C1817 1.429 . S
C1821 C1822 1.523 1_556 S
C1822 C1806 1.368 . S
C1822 C1818 1.368 . S
C1822 C1821 1.523 1_554 S
H1823 C1798 0.950 . S
H1824 C1800 0.950 . S
H1825 C1801 0.949 . S
H1826 C1803 0.950 . S
H1827 C1805 0.950 . S
C1828 C1829 1.349 . S
C1828 C1830 1.327 . S
C1828 H1853 0.950 . S
C1829 C1828 1.349 . S
C1829 C1845 1.349 . S
C1830 C1828 1.327 . S
C1830 C1849 1.429 . S
C1830 H1854 0.950 1_565 S
C1831 C1848 1.574 . S
C1831 C1850 1.368 . S
C1831 H1855 0.949 . S
H1832 C1836 0.949 . S
C1833 C1834 1.349 . S
C1833 C1835 1.327 . S
C1833 H1856 0.950 . S
C1834 C1833 1.349 . S
C1834 C1846 1.349 . S
C1835 C1833 1.327 . S
C1835 C1851 1.429 . S
C1835 H1857 0.950 1_545 S
C1836 H1832 0.949 . S
C1836 C1844 1.574 . S
C1836 C1852 1.368 . S
H1837 C1845 0.950 . S
H1838 C1843 0.950 . S
H1839 C1844 0.949 . S
H1840 C1846 0.950 . S
H1841 C1847 0.950 . S
H1842 C1848 0.949 . S
C1843 H1838 0.950 . S
C1843 C1845 1.327 . S
C1843 C1849 1.429 . S
C1844 C1836 1.574 . S
C1844 H1839 0.949 . S
C1844 C1850 1.368 1_545 S
C1845 C1829 1.349 . S
C1845 H1837 0.950 . S
C1845 C1843 1.327 . S
C1846 C1834 1.349 . S
C1846 H1840 0.950 . S
C1846 C1847 1.327 . S
C1847 H1841 0.950 . S
C1847 C1846 1.327 . S
C1847 C1851 1.429 . S
C1848 C1831 1.574 . S
C1848 H1842 0.949 . S
C1848 C1852 1.368 1_565 S
C1849 C1830 1.429 . S
C1849 C1843 1.429 . S
C1849 C1850 1.523 . S
C1850 C1831 1.368 . S
C1850 C1844 1.368 1_565 S
C1850 C1849 1.523 . S
C1851 C1835 1.429 . S
C1851 C1847 1.429 . S
C1851 C1852 1.523 . S
C1852 C1836 1.368 . S
C1852 C1848 1.368 1_545 S
C1852 C1851 1.523 . S
H1853 C1828 0.950 . S
H1854 C1830 0.950 1_545 S
H1855 C1831 0.949 . S
H1856 C1833 0.950 . S
H1857 C1835 0.950 1_565 S
C1858 C1859 1.349 . S
C1858 C1860 1.327 . S
C1858 H1883 0.950 . S
C1859 C1858 1.349 . S
C1859 C1875 1.349 . S
C1860 C1858 1.327 . S
C1860 C1879 1.429 . S
C1860 H1884 0.950 . S
C1861 C1878 1.574 . S
C1861 C1880 1.368 . S
C1861 H1885 0.949 . S
H1862 C1866 0.949 . S
C1863 C1864 1.349 . S
C1863 C1865 1.327 . S
C1863 H1886 0.950 . S
C1864 C1863 1.349 . S
C1864 C1876 1.349 . S
C1865 C1863 1.327 . S
C1865 C1881 1.429 . S
C1865 H1887 0.950 . S
C1866 H1862 0.949 . S
C1866 C1874 1.574 . S
C1866 C1882 1.368 . S
H1867 C1875 0.950 . S
H1868 C1873 0.950 . S
H1869 C1874 0.949 . S
H1870 C1876 0.950 . S
H1871 C1877 0.950 . S
H1872 C1878 0.949 . S
C1873 H1868 0.950 . S
C1873 C1875 1.327 . S
C1873 C1879 1.429 . S
C1874 C1866 1.574 . S
C1874 H1869 0.949 . S
C1874 C1880 1.368 . S
C1875 C1859 1.349 . S
C1875 H1867 0.950 . S
C1875 C1873 1.327 . S
C1876 C1864 1.349 . S
C1876 H1870 0.950 . S
C1876 C1877 1.327 . S
C1877 H1871 0.950 . S
C1877 C1876 1.327 . S
C1877 C1881 1.429 . S
C1878 C1861 1.574 . S
C1878 H1872 0.949 . S
C1878 C1882 1.368 . S
C1879 C1860 1.429 . S
C1879 C1873 1.429 . S
C1879 C1880 1.523 . S
C1880 C1861 1.368 . S
C1880 C1874 1.368 . S
C1880 C1879 1.523 . S
C1881 C1865 1.429 . S
C1881 C1877 1.429 . S
C1881 C1882 1.523 . S
C1882 C1866 1.368 . S
C1882 C1878 1.368 . S
C1882 C1881 1.523 . S
H1883 C1858 0.950 . S
H1884 C1860 0.950 . S
H1885 C1861 0.949 . S
H1886 C1863 0.950 . S
H1887 C1865 0.950 . S
C1888 C1889 1.349 . S
C1888 C1890 1.327 . S
C1888 H1913 0.950 . S
C1889 C1888 1.349 . S
C1889 C1905 1.349 . S
C1890 C1888 1.327 . S
C1890 C1909 1.429 . S
C1890 H1914 0.950 . S
C1891 C1908 1.574 . S
C1891 C1910 1.368 . S
C1891 H1915 0.949 . S
H1892 C1896 0.949 . S
C1893 C1894 1.349 . S
C1893 C1895 1.327 . S
C1893 H1916 0.950 . S
C1894 C1893 1.349 . S
C1894 C1906 1.349 . S
C1895 C1893 1.327 . S
C1895 C1911 1.429 . S
C1895 H1917 0.950 . S
C1896 H1892 0.949 . S
C1896 C1904 1.574 . S
C1896 C1912 1.368 . S
H1897 C1905 0.950 . S
H1898 C1903 0.950 . S
H1899 C1904 0.949 . S
H1900 C1906 0.950 . S
H1901 C1907 0.950 . S
H1902 C1908 0.949 . S
C1903 H1898 0.950 . S
C1903 C1905 1.327 . S
C1903 C1909 1.429 . S
C1904 C1896 1.574 . S
C1904 H1899 0.949 . S
C1904 C1910 1.368 . S
C1905 C1889 1.349 . S
C1905 H1897 0.950 . S
C1905 C1903 1.327 . S
C1906 C1894 1.349 . S
C1906 H1900 0.950 . S
C1906 C1907 1.327 . S
C1907 H1901 0.950 . S
C1907 C1906 1.327 . S
C1907 C1911 1.429 . S
C1908 C1891 1.574 . S
C1908 H1902 0.949 . S
C1908 C1912 1.368 . S
C1909 C1890 1.429 . S
C1909 C1903 1.429 . S
C1909 C1910 1.523 . S
C1910 C1891 1.368 . S
C1910 C1904 1.368 . S
C1910 C1909 1.523 . S
C1911 C1895 1.429 . S
C1911 C1907 1.429 . S
C1911 C1912 1.523 . S
C1912 C1896 1.368 . S
C1912 C1908 1.368 . S
C1912 C1911 1.523 . S
H1913 C1888 0.950 . S
H1914 C1890 0.950 . S
H1915 C1891 0.949 . S
H1916 C1893 0.950 . S
H1917 C1895 0.950 . S
C1918 C1919 1.349 . S
C1918 C1920 1.327 . S
C1918 H1943 0.950 . S
C1919 C1918 1.349 . S
C1919 C1935 1.349 . S
C1920 C1918 1.327 . S
C1920 C1939 1.429 . S
C1920 H1944 0.950 . S
C1921 C1938 1.574 . S
C1921 C1940 1.368 . S
C1921 H1945 0.949 . S
H1922 C1926 0.949 . S
C1923 C1924 1.349 . S
C1923 C1925 1.327 . S
C1923 H1946 0.950 . S
C1924 C1923 1.349 . S
C1924 C1936 1.349 . S
C1925 C1923 1.327 . S
C1925 C1941 1.429 . S
C1925 H1947 0.950 . S
C1926 H1922 0.949 . S
C1926 C1934 1.574 . S
C1926 C1942 1.368 . S
H1927 C1935 0.950 . S
H1928 C1933 0.950 . S
H1929 C1934 0.949 . S
H1930 C1936 0.950 . S
H1931 C1937 0.950 . S
H1932 C1938 0.949 . S
C1933 H1928 0.950 . S
C1933 C1935 1.327 . S
C1933 C1939 1.429 . S
C1934 C1926 1.574 . S
C1934 H1929 0.949 . S
C1934 C1940 1.368 . S
C1935 C1919 1.349 . S
C1935 H1927 0.950 . S
C1935 C1933 1.327 . S
C1936 C1924 1.349 . S
C1936 H1930 0.950 . S
C1936 C1937 1.327 . S
C1937 H1931 0.950 . S
C1937 C1936 1.327 . S
C1937 C1941 1.429 . S
C1938 C1921 1.574 . S
C1938 H1932 0.949 . S
C1938 C1942 1.368 . S
C1939 C1920 1.429 . S
C1939 C1933 1.429 . S
C1939 C1940 1.523 . S
C1940 C1921 1.368 . S
C1940 C1934 1.368 . S
C1940 C1939 1.523 . S
C1941 C1925 1.429 . S
C1941 C1937 1.429 . S
C1941 C1942 1.523 . S
C1942 C1926 1.368 . S
C1942 C1938 1.368 . S
C1942 C1941 1.523 . S
H1943 C1918 0.950 . S
H1944 C1920 0.950 . S
H1945 C1921 0.949 . S
H1946 C1923 0.950 . S
H1947 C1925 0.950 . S
C1948 C1949 1.349 . S
C1948 C1950 1.327 . S
C1948 H1973 0.950 . S
C1949 C1948 1.349 . S
C1949 C1965 1.349 . S
C1950 C1948 1.327 . S
C1950 C1969 1.429 . S
C1950 H1974 0.950 . S
C1951 C1968 1.574 . S
C1951 C1970 1.368 . S
C1951 H1975 0.949 . S
H1952 C1956 0.949 . S
C1953 C1954 1.349 . S
C1953 C1955 1.327 . S
C1953 H1976 0.950 . S
C1954 C1953 1.349 . S
C1954 C1966 1.349 . S
C1955 C1953 1.327 . S
C1955 C1971 1.429 . S
C1955 H1977 0.950 . S
C1956 H1952 0.949 . S
C1956 C1964 1.574 . S
C1956 C1972 1.368 . S
H1957 C1965 0.950 . S
H1958 C1963 0.950 . S
H1959 C1964 0.949 . S
H1960 C1966 0.950 . S
H1961 C1967 0.950 . S
H1962 C1968 0.949 . S
C1963 H1958 0.950 . S
C1963 C1965 1.327 . S
C1963 C1969 1.429 . S
C1964 C1956 1.574 . S
C1964 H1959 0.949 . S
C1964 C1970 1.368 . S
C1965 C1949 1.349 . S
C1965 H1957 0.950 . S
C1965 C1963 1.327 . S
C1966 C1954 1.349 . S
C1966 H1960 0.950 . S
C1966 C1967 1.327 . S
C1967 H1961 0.950 . S
C1967 C1966 1.327 . S
C1967 C1971 1.429 . S
C1968 C1951 1.574 . S
C1968 H1962 0.949 . S
C1968 C1972 1.368 . S
C1969 C1950 1.429 . S
C1969 C1963 1.429 . S
C1969 C1970 1.523 . S
C1970 C1951 1.368 . S
C1970 C1964 1.368 . S
C1970 C1969 1.523 . S
C1971 C1955 1.429 . S
C1971 C1967 1.429 . S
C1971 C1972 1.523 . S
C1972 C1956 1.368 . S
C1972 C1968 1.368 . S
C1972 C1971 1.523 . S
H1973 C1948 0.950 . S
H1974 C1950 0.950 . S
H1975 C1951 0.949 . S
H1976 C1953 0.950 . S
H1977 C1955 0.950 . S
C1978 C1979 1.349 . S
C1978 C1980 1.327 . S
C1978 H2003 0.950 . S
C1979 C1978 1.349 . S
C1979 C1995 1.349 . S
C1980 C1978 1.327 . S
C1980 C1999 1.429 . S
C1980 H2004 0.950 . S
C1981 C1998 1.574 . S
C1981 C2000 1.368 . S
C1981 H2005 0.949 . S
H1982 C1986 0.949 . S
C1983 C1984 1.349 . S
C1983 C1985 1.327 . S
C1983 H2006 0.950 . S
C1984 C1983 1.349 . S
C1984 C1996 1.349 . S
C1985 C1983 1.327 . S
C1985 C2001 1.429 . S
C1985 H2007 0.950 . S
C1986 H1982 0.949 . S
C1986 C1994 1.574 . S
C1986 C2002 1.368 . S
H1987 C1995 0.950 . S
H1988 C1993 0.950 . S
H1989 C1994 0.949 . S
H1990 C1996 0.950 . S
H1991 C1997 0.950 . S
H1992 C1998 0.949 . S
C1993 H1988 0.950 . S
C1993 C1995 1.327 . S
C1993 C1999 1.429 . S
C1994 C1986 1.574 . S
C1994 H1989 0.949 . S
C1994 C2000 1.368 . S
C1995 C1979 1.349 . S
C1995 H1987 0.950 . S
C1995 C1993 1.327 . S
C1996 C1984 1.349 . S
C1996 H1990 0.950 . S
C1996 C1997 1.327 . S
C1997 H1991 0.950 . S
C1997 C1996 1.327 . S
C1997 C2001 1.429 . S
C1998 C1981 1.574 . S
C1998 H1992 0.949 . S
C1998 C2002 1.368 . S
C1999 C1980 1.429 . S
C1999 C1993 1.429 . S
C1999 C2000 1.523 . S
C2000 C1981 1.368 . S
C2000 C1994 1.368 . S
C2000 C1999 1.523 . S
C2001 C1985 1.429 . S
C2001 C1997 1.429 . S
C2001 C2002 1.523 . S
C2002 C1986 1.368 . S
C2002 C1998 1.368 . S
C2002 C2001 1.523 . S
H2003 C1978 0.950 . S
H2004 C1980 0.950 . S
H2005 C1981 0.949 . S
H2006 C1983 0.950 . S
H2007 C1985 0.950 . S
C2008 C2009 1.349 . S
C2008 C2010 1.327 . S
C2008 H2033 0.950 . S
C2009 C2008 1.349 . S
C2009 C2025 1.349 . S
C2010 C2008 1.327 . S
C2010 C2029 1.429 . S
C2010 H2034 0.950 . S
C2011 C2028 1.574 . S
C2011 C2030 1.368 . S
C2011 H2035 0.949 . S
H2012 C2016 0.949 . S
C2013 C2014 1.349 . S
C2013 C2015 1.327 . S
C2013 H2036 0.950 . S
C2014 C2013 1.349 . S
C2014 C2026 1.349 . S
C2015 C2013 1.327 . S
C2015 C2031 1.429 . S
C2015 H2037 0.950 . S
C2016 H2012 0.949 . S
C2016 C2024 1.574 . S
C2016 C2032 1.368 . S
H2017 C2025 0.950 . S
H2018 C2023 0.950 . S
H2019 C2024 0.949 . S
H2020 C2026 0.950 . S
H2021 C2027 0.950 . S
H2022 C2028 0.949 . S
C2023 H2018 0.950 . S
C2023 C2025 1.327 . S
C2023 C2029 1.429 . S
C2024 C2016 1.574 . S
C2024 H2019 0.949 . S
C2024 C2030 1.368 . S
C2025 C2009 1.349 . S
C2025 H2017 0.950 . S
C2025 C2023 1.327 . S
C2026 C2014 1.349 . S
C2026 H2020 0.950 . S
C2026 C2027 1.327 . S
C2027 H2021 0.950 . S
C2027 C2026 1.327 . S
C2027 C2031 1.429 . S
C2028 C2011 1.574 . S
C2028 H2022 0.949 . S
C2028 C2032 1.368 . S
C2029 C2010 1.429 . S
C2029 C2023 1.429 . S
C2029 C2030 1.523 . S
C2030 C2011 1.368 . S
C2030 C2024 1.368 . S
C2030 C2029 1.523 . S
C2031 C2015 1.429 . S
C2031 C2027 1.429 . S
C2031 C2032 1.523 . S
C2032 C2016 1.368 . S
C2032 C2028 1.368 . S
C2032 C2031 1.523 . S
H2033 C2008 0.950 . S
H2034 C2010 0.950 . S
H2035 C2011 0.949 . S
H2036 C2013 0.950 . S
H2037 C2015 0.950 . S
C2038 C2039 1.349 . S
C2038 C2040 1.327 . S
C2038 H2063 0.950 . S
C2039 C2038 1.349 . S
C2039 C2055 1.349 . S
C2040 C2038 1.327 . S
C2040 C2059 1.429 . S
C2040 H2064 0.950 . S
C2041 C2058 1.574 . S
C2041 C2060 1.368 . S
C2041 H2065 0.949 . S
H2042 C2046 0.949 . S
C2043 C2044 1.349 . S
C2043 C2045 1.327 . S
C2043 H2066 0.950 . S
C2044 C2043 1.349 . S
C2044 C2056 1.349 . S
C2045 C2043 1.327 . S
C2045 C2061 1.429 . S
C2045 H2067 0.950 . S
C2046 H2042 0.949 . S
C2046 C2054 1.574 . S
C2046 C2062 1.368 . S
H2047 C2055 0.950 . S
H2048 C2053 0.950 . S
H2049 C2054 0.949 . S
H2050 C2056 0.950 . S
H2051 C2057 0.950 . S
H2052 C2058 0.949 . S
C2053 H2048 0.950 . S
C2053 C2055 1.327 . S
C2053 C2059 1.429 . S
C2054 C2046 1.574 . S
C2054 H2049 0.949 . S
C2054 C2060 1.368 . S
C2055 C2039 1.349 . S
C2055 H2047 0.950 . S
C2055 C2053 1.327 . S
C2056 C2044 1.349 . S
C2056 H2050 0.950 . S
C2056 C2057 1.327 . S
C2057 H2051 0.950 . S
C2057 C2056 1.327 . S
C2057 C2061 1.429 . S
C2058 C2041 1.574 . S
C2058 H2052 0.949 . S
C2058 C2062 1.368 . S
C2059 C2040 1.429 . S
C2059 C2053 1.429 . S
C2059 C2060 1.523 . S
C2060 C2041 1.368 . S
C2060 C2054 1.368 . S
C2060 C2059 1.523 . S
C2061 C2045 1.429 . S
C2061 C2057 1.429 . S
C2061 C2062 1.523 . S
C2062 C2046 1.368 . S
C2062 C2058 1.368 . S
C2062 C2061 1.523 . S
H2063 C2038 0.950 . S
H2064 C2040 0.950 . S
H2065 C2041 0.949 . S
H2066 C2043 0.950 . S
H2067 C2045 0.950 . S
C2068 C2069 1.349 . S
C2068 C2070 1.327 . S
C2068 H2093 0.950 . S
C2069 C2068 1.349 . S
C2069 C2085 1.349 . S
C2070 C2068 1.327 . S
C2070 C2089 1.429 . S
C2070 H2094 0.950 . S
C2071 C2088 1.574 . S
C2071 C2090 1.368 . S
C2071 H2095 0.949 . S
H2072 C2076 0.949 . S
C2073 C2074 1.349 . S
C2073 C2075 1.327 . S
C2073 H2096 0.950 . S
C2074 C2073 1.349 . S
C2074 C2086 1.349 . S
C2075 C2073 1.327 . S
C2075 C2091 1.429 . S
C2075 H2097 0.950 . S
C2076 H2072 0.949 . S
C2076 C2084 1.574 . S
C2076 C2092 1.368 . S
H2077 C2085 0.950 . S
H2078 C2083 0.950 . S
H2079 C2084 0.949 . S
H2080 C2086 0.950 . S
H2081 C2087 0.950 . S
H2082 C2088 0.949 . S
C2083 H2078 0.950 . S
C2083 C2085 1.327 . S
C2083 C2089 1.429 . S
C2084 C2076 1.574 . S
C2084 H2079 0.949 . S
C2084 C2090 1.368 . S
C2085 C2069 1.349 . S
C2085 H2077 0.950 . S
C2085 C2083 1.327 . S
C2086 C2074 1.349 . S
C2086 H2080 0.950 . S
C2086 C2087 1.327 . S
C2087 H2081 0.950 . S
C2087 C2086 1.327 . S
C2087 C2091 1.429 . S
C2088 C2071 1.574 . S
C2088 H2082 0.949 . S
C2088 C2092 1.368 . S
C2089 C2070 1.429 . S
C2089 C2083 1.429 . S
C2089 C2090 1.523 . S
C2090 C2071 1.368 . S
C2090 C2084 1.368 . S
C2090 C2089 1.523 . S
C2091 C2075 1.429 . S
C2091 C2087 1.429 . S
C2091 C2092 1.523 . S
C2092 C2076 1.368 . S
C2092 C2088 1.368 . S
C2092 C2091 1.523 . S
H2093 C2068 0.950 . S
H2094 C2070 0.950 . S
H2095 C2071 0.949 . S
H2096 C2073 0.950 . S
H2097 C2075 0.950 . S
C2098 C2099 1.349 . S
C2098 C2100 1.327 . S
C2098 H2123 0.950 . S
C2099 C2098 1.349 . S
C2099 C2115 1.349 . S
C2100 C2098 1.327 . S
C2100 C2119 1.429 . S
C2100 H2124 0.950 . S
C2101 C2118 1.574 . S
C2101 C2120 1.368 . S
C2101 H2125 0.949 . S
H2102 C2106 0.949 . S
C2103 C2104 1.349 . S
C2103 C2105 1.327 . S
C2103 H2126 0.950 . S
C2104 C2103 1.349 . S
C2104 C2116 1.349 . S
C2105 C2103 1.327 . S
C2105 C2121 1.429 . S
C2105 H2127 0.950 . S
C2106 H2102 0.949 . S
C2106 C2114 1.574 . S
C2106 C2122 1.368 . S
H2107 C2115 0.950 . S
H2108 C2113 0.950 . S
H2109 C2114 0.949 . S
H2110 C2116 0.950 . S
H2111 C2117 0.950 . S
H2112 C2118 0.949 . S
C2113 H2108 0.950 . S
C2113 C2115 1.327 . S
C2113 C2119 1.429 . S
C2114 C2106 1.574 . S
C2114 H2109 0.949 . S
C2114 C2120 1.368 . S
C2115 C2099 1.349 . S
C2115 H2107 0.950 . S
C2115 C2113 1.327 . S
C2116 C2104 1.349 . S
C2116 H2110 0.950 . S
C2116 C2117 1.327 . S
C2117 H2111 0.950 . S
C2117 C2116 1.327 . S
C2117 C2121 1.429 . S
C2118 C2101 1.574 . S
C2118 H2112 0.949 . S
C2118 C2122 1.368 . S
C2119 C2100 1.429 . S
C2119 C2113 1.429 . S
C2119 C2120 1.523 . S
C2120 C2101 1.368 . S
C2120 C2114 1.368 . S
C2120 C2119 1.523 . S
C2121 C2105 1.429 . S
C2121 C2117 1.429 . S
C2121 C2122 1.523 . S
C2122 C2106 1.368 . S
C2122 C2118 1.368 . S
C2122 C2121 1.523 . S
H2123 C2098 0.950 . S
H2124 C2100 0.950 . S
H2125 C2101 0.949 . S
H2126 C2103 0.950 . S
H2127 C2105 0.950 . S
C2128 C2129 1.349 . S
C2128 C2130 1.327 . S
C2128 H2153 0.949 1_556 S
C2129 C2128 1.349 . S
C2129 C2145 1.349 . S
C2130 C2128 1.327 . S
C2130 C2149 1.429 . S
C2130 H2154 0.950 . S
C2131 C2148 1.574 . S
C2131 C2150 1.368 . S
C2131 H2155 0.949 . S
H2132 C2136 0.949 . S
C2133 C2134 1.349 . S
C2133 C2135 1.327 . S
C2133 H2156 0.950 . S
C2134 C2133 1.349 . S
C2134 C2146 1.349 . S
C2135 C2133 1.327 . S
C2135 C2151 1.429 . S
C2135 H2157 0.950 . S
C2136 H2132 0.949 . S
C2136 C2144 1.574 . S
C2136 C2152 1.368 . S
H2137 C2145 0.950 . S
H2138 C2143 0.950 . S
H2139 C2144 0.949 . S
H2140 C2146 0.950 . S
H2141 C2147 0.950 . S
H2142 C2148 0.949 . S
C2143 H2138 0.950 . S
C2143 C2145 1.327 . S
C2143 C2149 1.429 . S
C2144 C2136 1.574 . S
C2144 H2139 0.949 . S
C2144 C2150 1.368 . S
C2145 C2129 1.349 . S
C2145 H2137 0.950 . S
C2145 C2143 1.327 . S
C2146 C2134 1.349 . S
C2146 H2140 0.950 . S
C2146 C2147 1.327 . S
C2147 H2141 0.950 . S
C2147 C2146 1.327 . S
C2147 C2151 1.429 . S
C2148 C2131 1.574 . S
C2148 H2142 0.949 . S
C2148 C2152 1.368 . S
C2149 C2130 1.429 . S
C2149 C2143 1.429 . S
C2149 C2150 1.523 . S
C2150 C2131 1.368 . S
C2150 C2144 1.368 . S
C2150 C2149 1.523 . S
C2151 C2135 1.429 . S
C2151 C2147 1.429 . S
C2151 C2152 1.523 . S
C2152 C2136 1.368 . S
C2152 C2148 1.368 . S
C2152 C2151 1.523 . S
H2153 C2128 0.949 1_554 S
H2154 C2130 0.950 . S
H2155 C2131 0.949 . S
H2156 C2133 0.950 . S
H2157 C2135 0.950 . S
C2158 C2159 1.349 . S
C2158 C2160 1.327 . S
C2158 H2183 0.950 . S
C2159 C2158 1.349 . S
C2159 C2175 1.349 . S
C2160 C2158 1.327 . S
C2160 C2179 1.429 . S
C2160 H2184 0.950 . S
C2161 C2178 1.574 . S
C2161 C2180 1.368 . S
C2161 H2185 0.949 . S
H2162 C2166 0.949 . S
C2163 C2164 1.349 . S
C2163 C2165 1.327 . S
C2163 H2186 0.950 . S
C2164 C2163 1.349 . S
C2164 C2176 1.349 . S
C2165 C2163 1.327 . S
C2165 C2181 1.429 . S
C2165 H2187 0.950 . S
C2166 H2162 0.949 . S
C2166 C2174 1.574 . S
C2166 C2182 1.368 . S
H2167 C2175 0.950 . S
H2168 C2173 0.950 . S
H2169 C2174 0.949 . S
H2170 C2176 0.950 . S
H2171 C2177 0.950 . S
H2172 C2178 0.949 . S
C2173 H2168 0.950 . S
C2173 C2175 1.327 . S
C2173 C2179 1.429 . S
C2174 C2166 1.574 . S
C2174 H2169 0.949 . S
C2174 C2180 1.368 . S
C2175 C2159 1.349 . S
C2175 H2167 0.950 . S
C2175 C2173 1.327 . S
C2176 C2164 1.349 . S
C2176 H2170 0.950 . S
C2176 C2177 1.327 . S
C2177 H2171 0.950 . S
C2177 C2176 1.327 . S
C2177 C2181 1.429 . S
C2178 C2161 1.574 . S
C2178 H2172 0.949 . S
C2178 C2182 1.368 . S
C2179 C2160 1.429 . S
C2179 C2173 1.429 . S
C2179 C2180 1.523 . S
C2180 C2161 1.368 . S
C2180 C2174 1.368 . S
C2180 C2179 1.523 . S
C2181 C2165 1.429 . S
C2181 C2177 1.429 . S
C2181 C2182 1.523 . S
C2182 C2166 1.368 . S
C2182 C2178 1.368 . S
C2182 C2181 1.523 . S
H2183 C2158 0.950 . S
H2184 C2160 0.950 . S
H2185 C2161 0.949 . S
H2186 C2163 0.950 . S
H2187 C2165 0.950 . S
C2188 C2189 1.349 . S
C2188 C2190 1.327 . S
C2188 H2213 0.950 . S
C2189 C2188 1.349 . S
C2189 C2205 1.349 . S
C2190 C2188 1.327 . S
C2190 C2209 1.429 . S
C2190 H2214 0.950 . S
C2191 C2208 1.574 . S
C2191 C2210 1.368 . S
C2191 H2215 0.949 . S
H2192 C2196 0.949 . S
C2193 C2194 1.349 . S
C2193 C2195 1.327 . S
C2193 H2216 0.950 . S
C2194 C2193 1.349 . S
C2194 C2206 1.349 . S
C2195 C2193 1.327 . S
C2195 C2211 1.429 . S
C2195 H2217 0.950 . S
C2196 H2192 0.949 . S
C2196 C2204 1.574 . S
C2196 C2212 1.368 . S
H2197 C2205 0.950 . S
H2198 C2203 0.950 . S
H2199 C2204 0.949 . S
H2200 C2206 0.950 . S
H2201 C2207 0.950 . S
H2202 C2208 0.949 . S
C2203 H2198 0.950 . S
C2203 C2205 1.327 . S
C2203 C2209 1.429 . S
C2204 C2196 1.574 . S
C2204 H2199 0.949 . S
C2204 C2210 1.368 . S
C2205 C2189 1.349 . S
C2205 H2197 0.950 . S
C2205 C2203 1.327 . S
C2206 C2194 1.349 . S
C2206 H2200 0.950 . S
C2206 C2207 1.327 . S
C2207 H2201 0.950 . S
C2207 C2206 1.327 . S
C2207 C2211 1.429 . S
C2208 C2191 1.574 . S
C2208 H2202 0.949 . S
C2208 C2212 1.368 . S
C2209 C2190 1.429 . S
C2209 C2203 1.429 . S
C2209 C2210 1.523 . S
C2210 C2191 1.368 . S
C2210 C2204 1.368 . S
C2210 C2209 1.523 . S
C2211 C2195 1.429 . S
C2211 C2207 1.429 . S
C2211 C2212 1.523 . S
C2212 C2196 1.368 . S
C2212 C2208 1.368 . S
C2212 C2211 1.523 . S
H2213 C2188 0.950 . S
H2214 C2190 0.950 . S
H2215 C2191 0.949 . S
H2216 C2193 0.950 . S
H2217 C2195 0.950 . S
C2218 C2219 1.349 . S
C2218 C2220 1.327 . S
C2218 H2243 0.950 . S
C2219 C2218 1.349 . S
C2219 C2235 1.349 . S
C2220 C2218 1.327 . S
C2220 C2239 1.429 . S
C2220 H2244 0.950 . S
C2221 C2238 1.574 . S
C2221 C2240 1.368 . S
C2221 H2245 0.949 . S
H2222 C2226 0.949 . S
C2223 C2224 1.349 . S
C2223 C2225 1.327 . S
C2223 H2246 0.950 . S
C2224 C2223 1.349 . S
C2224 C2236 1.349 . S
C2225 C2223 1.327 . S
C2225 C2241 1.429 . S
C2225 H2247 0.950 . S
C2226 H2222 0.949 . S
C2226 C2234 1.574 . S
C2226 C2242 1.368 . S
H2227 C2235 0.950 . S
H2228 C2233 0.950 . S
H2229 C2234 0.949 . S
H2230 C2236 0.950 . S
H2231 C2237 0.950 . S
H2232 C2238 0.949 . S
C2233 H2228 0.950 . S
C2233 C2235 1.327 . S
C2233 C2239 1.429 . S
C2234 C2226 1.574 . S
C2234 H2229 0.949 . S
C2234 C2240 1.368 . S
C2235 C2219 1.349 . S
C2235 H2227 0.950 . S
C2235 C2233 1.327 . S
C2236 C2224 1.349 . S
C2236 H2230 0.950 . S
C2236 C2237 1.327 . S
C2237 H2231 0.950 . S
C2237 C2236 1.327 . S
C2237 C2241 1.429 . S
C2238 C2221 1.574 . S
C2238 H2232 0.949 . S
C2238 C2242 1.368 . S
C2239 C2220 1.429 . S
C2239 C2233 1.429 . S
C2239 C2240 1.523 . S
C2240 C2221 1.368 . S
C2240 C2234 1.368 . S
C2240 C2239 1.523 . S
C2241 C2225 1.429 . S
C2241 C2237 1.429 . S
C2241 C2242 1.523 . S
C2242 C2226 1.368 . S
C2242 C2238 1.368 . S
C2242 C2241 1.523 . S
H2243 C2218 0.950 . S
H2244 C2220 0.950 . S
H2245 C2221 0.949 . S
H2246 C2223 0.950 . S
H2247 C2225 0.950 . S
C2248 C2249 1.349 . S
C2248 C2250 1.327 . S
C2248 H2273 0.950 . S
C2249 C2248 1.349 . S
C2249 C2265 1.349 . S
C2250 C2248 1.327 . S
C2250 C2269 1.429 . S
C2250 H2274 0.950 . S
C2251 C2268 1.574 . S
C2251 C2270 1.368 . S
C2251 H2275 0.949 . S
H2252 C2256 0.949 . S
C2253 C2254 1.349 . S
C2253 C2255 1.327 . S
C2253 H2276 0.950 . S
C2254 C2253 1.349 . S
C2254 C2266 1.349 . S
C2255 C2253 1.327 . S
C2255 C2271 1.429 . S
C2255 H2277 0.950 . S
C2256 H2252 0.949 . S
C2256 C2264 1.574 . S
C2256 C2272 1.368 . S
H2257 C2265 0.950 . S
H2258 C2263 0.950 . S
H2259 C2264 0.949 . S
H2260 C2266 0.950 . S
H2261 C2267 0.950 . S
H2262 C2268 0.949 . S
C2263 H2258 0.950 . S
C2263 C2265 1.327 . S
C2263 C2269 1.429 . S
C2264 C2256 1.574 . S
C2264 H2259 0.949 . S
C2264 C2270 1.368 . S
C2265 C2249 1.349 . S
C2265 H2257 0.950 . S
C2265 C2263 1.327 . S
C2266 C2254 1.349 . S
C2266 H2260 0.950 . S
C2266 C2267 1.327 . S
C2267 H2261 0.950 . S
C2267 C2266 1.327 . S
C2267 C2271 1.429 . S
C2268 C2251 1.574 . S
C2268 H2262 0.949 . S
C2268 C2272 1.368 . S
C2269 C2250 1.429 . S
C2269 C2263 1.429 . S
C2269 C2270 1.523 . S
C2270 C2251 1.368 . S
C2270 C2264 1.368 . S
C2270 C2269 1.523 . S
C2271 C2255 1.429 . S
C2271 C2267 1.429 . S
C2271 C2272 1.523 . S
C2272 C2256 1.368 . S
C2272 C2268 1.368 . S
C2272 C2271 1.523 . S
H2273 C2248 0.950 . S
H2274 C2250 0.950 . S
H2275 C2251 0.949 . S
H2276 C2253 0.950 . S
H2277 C2255 0.950 . S
C2278 C2279 1.349 . S
C2278 C2280 1.327 . S
C2278 H2303 0.950 . S
C2279 C2278 1.349 . S
C2279 C2295 1.349 . S
C2280 C2278 1.327 . S
C2280 C2299 1.429 . S
C2280 H2304 0.950 . S
C2281 C2298 1.574 . S
C2281 C2300 1.368 . S
C2281 H2305 0.949 . S
H2282 C2286 0.949 . S
C2283 C2284 1.349 . S
C2283 C2285 1.327 . S
C2283 H2306 0.950 . S
C2284 C2283 1.349 . S
C2284 C2296 1.349 . S
C2285 C2283 1.327 . S
C2285 C2301 1.429 . S
C2285 H2307 0.950 . S
C2286 H2282 0.949 . S
C2286 C2294 1.574 . S
C2286 C2302 1.368 . S
H2287 C2295 0.950 . S
H2288 C2293 0.950 . S
H2289 C2294 0.949 . S
H2290 C2296 0.950 . S
H2291 C2297 0.950 . S
H2292 C2298 0.949 . S
C2293 H2288 0.950 . S
C2293 C2295 1.327 . S
C2293 C2299 1.429 . S
C2294 C2286 1.574 . S
C2294 H2289 0.949 . S
C2294 C2300 1.368 . S
C2295 C2279 1.349 . S
C2295 H2287 0.950 . S
C2295 C2293 1.327 . S
C2296 C2284 1.349 . S
C2296 H2290 0.950 . S
C2296 C2297 1.327 . S
C2297 H2291 0.950 . S
C2297 C2296 1.327 . S
C2297 C2301 1.429 . S
C2298 C2281 1.574 . S
C2298 H2292 0.949 . S
C2298 C2302 1.368 . S
C2299 C2280 1.429 . S
C2299 C2293 1.429 . S
C2299 C2300 1.523 . S
C2300 C2281 1.368 . S
C2300 C2294 1.368 . S
C2300 C2299 1.523 . S
C2301 C2285 1.429 . S
C2301 C2297 1.429 . S
C2301 C2302 1.523 . S
C2302 C2286 1.368 . S
C2302 C2298 1.368 . S
C2302 C2301 1.523 . S
H2303 C2278 0.950 . S
H2304 C2280 0.950 . S
H2305 C2281 0.949 . S
H2306 C2283 0.950 . S
H2307 C2285 0.950 . S
C2308 C2309 1.349 . S
C2308 C2310 1.327 . S
C2308 H2333 0.950 . S
C2309 C2308 1.349 . S
C2309 C2325 1.349 . S
C2310 C2308 1.327 . S
C2310 C2329 1.429 . S
C2310 H2334 0.950 . S
C2311 C2328 1.574 . S
C2311 C2330 1.368 . S
C2311 H2335 0.949 . S
H2312 C2316 0.949 . S
C2313 C2314 1.349 . S
C2313 C2315 1.327 . S
C2313 H2336 0.950 . S
C2314 C2313 1.349 . S
C2314 C2326 1.349 . S
C2315 C2313 1.327 . S
C2315 C2331 1.429 . S
C2315 H2337 0.950 . S
C2316 H2312 0.949 . S
C2316 C2324 1.574 . S
C2316 C2332 1.368 . S
H2317 C2325 0.950 . S
H2318 C2323 0.950 . S
H2319 C2324 0.949 . S
H2320 C2326 0.950 . S
H2321 C2327 0.950 . S
H2322 C2328 0.949 . S
C2323 H2318 0.950 . S
C2323 C2325 1.327 . S
C2323 C2329 1.429 . S
C2324 C2316 1.574 . S
C2324 H2319 0.949 . S
C2324 C2330 1.368 . S
C2325 C2309 1.349 . S
C2325 H2317 0.950 . S
C2325 C2323 1.327 . S
C2326 C2314 1.349 . S
C2326 H2320 0.950 . S
C2326 C2327 1.327 . S
C2327 H2321 0.950 . S
C2327 C2326 1.327 . S
C2327 C2331 1.429 . S
C2328 C2311 1.574 . S
C2328 H2322 0.949 . S
C2328 C2332 1.368 . S
C2329 C2310 1.429 . S
C2329 C2323 1.429 . S
C2329 C2330 1.523 . S
C2330 C2311 1.368 . S
C2330 C2324 1.368 . S
C2330 C2329 1.523 . S
C2331 C2315 1.429 . S
C2331 C2327 1.429 . S
C2331 C2332 1.523 . S
C2332 C2316 1.368 . S
C2332 C2328 1.368 . S
C2332 C2331 1.523 . S
H2333 C2308 0.950 . S
H2334 C2310 0.950 . S
H2335 C2311 0.949 . S
H2336 C2313 0.950 . S
H2337 C2315 0.950 . S
C2338 C2339 1.349 . S
C2338 C2340 1.327 . S
C2338 H2363 0.950 . S
C2339 C2338 1.349 . S
C2339 C2355 1.349 . S
C2340 C2338 1.327 . S
C2340 C2359 1.429 . S
C2340 H2364 0.950 . S
C2341 C2358 1.574 . S
C2341 C2360 1.368 . S
C2341 H2365 0.949 . S
H2342 C2346 0.949 . S
C2343 C2344 1.349 1_554 S
C2343 C2345 1.327 1_554 S
C2343 H2366 0.950 . S
C2344 C2343 1.349 1_556 S
C2344 C2356 1.349 . S
C2345 C2343 1.327 1_556 S
C2345 C2361 1.429 . S
C2345 H2367 0.950 1_556 S
C2346 H2342 0.949 . S
C2346 C2354 1.574 . S
C2346 C2362 1.368 . S
H2347 C2355 0.950 . S
H2348 C2353 0.950 . S
H2349 C2354 0.949 . S
H2350 C2356 0.950 . S
H2351 C2357 0.950 . S
H2352 C2358 0.949 . S
C2353 H2348 0.950 . S
C2353 C2355 1.327 . S
C2353 C2359 1.429 . S
C2354 C2346 1.574 . S
C2354 H2349 0.949 . S
C2354 C2360 1.368 . S
C2355 C2339 1.349 . S
C2355 H2347 0.950 . S
C2355 C2353 1.327 . S
C2356 C2344 1.349 . S
C2356 H2350 0.950 . S
C2356 C2357 1.327 . S
C2357 H2351 0.950 . S
C2357 C2356 1.327 . S
C2357 C2361 1.429 . S
C2358 C2341 1.574 . S
C2358 H2352 0.949 . S
C2358 C2362 1.368 . S
C2359 C2340 1.429 . S
C2359 C2353 1.429 . S
C2359 C2360 1.523 . S
C2360 C2341 1.368 . S
C2360 C2354 1.368 . S
C2360 C2359 1.523 . S
C2361 C2345 1.429 . S
C2361 C2357 1.429 . S
C2361 C2362 1.523 . S
C2362 C2346 1.368 . S
C2362 C2358 1.368 . S
C2362 C2361 1.523 . S
H2363 C2338 0.950 . S
H2364 C2340 0.950 . S
H2365 C2341 0.949 . S
H2366 C2343 0.950 . S
H2367 C2345 0.950 1_554 S
C449 C121 1.311 . S
C454 C9 1.311 . S
C479 C23 1.311 . S
C484 C359 1.311 . S
C509 C37 1.311 . S
C514 C149 1.311 . S
C539 C51 1.311 . S
C544 C387 1.311 . S
C569 C65 1.311 . S
C574 C177 1.311 . S
C599 C415 1.311 . S
C604 C79 1.311 . S
C629 C205 1.311 . S
C634 C93 1.311 . S
C659 C443 1.311 . S
C664 C107 1.311 . S
C689 C247 1.311 . S
C694 C135 1.311 . S
C719 C163 1.311 . S
C724 C275 1.311 . S
C749 C191 1.311 . S
C754 C303 1.311 . S
C779 C331 1.311 . S
C784 C219 1.311 . S
C809 C345 1.311 . S
C814 C233 1.311 . S
C839 C261 1.311 . S
C844 C373 1.311 . S
C869 C289 1.311 . S
C874 C401 1.311 . S
C899 C429 1.311 . S
C904 C317 1.311 . S
C929 C7 1.166 . S
C934 C63 1.166 . S
C959 C77 1.166 . S
C964 C21 1.166 . S
C989 C91 1.166 . S
C994 C35 1.166 . S
C1019 C49 1.166 . S
C1024 C105 1.166 . S
C1049 C119 1.166 . S
C1054 C175 1.166 . S
C1079 C133 1.166 . S
C1084 C189 1.166 . S
C1109 C203 1.166 . S
C1114 C147 1.166 . S
C1139 C217 1.166 . S
C1144 C161 1.166 . S
C1169 C287 1.166 . S
C1174 C231 1.166 . S
C1199 C301 1.166 . S
C1204 C245 1.166 . S
C1229 C259 1.166 . S
C1234 C315 1.166 . S
C1259 C329 1.166 . S
C1264 C273 1.166 . S
C1289 C399 1.166 . S
C1294 C343 1.166 . S
C1319 C357 1.166 . S
C1324 C413 1.166 . S
C1349 C427 1.166 . S
C1354 C371 1.166 . S
C1379 C441 1.166 . S
C1384 C385 1.166 . S
C1409 C64 0.900 . S
C1414 C8 0.900 . S
C1439 C78 0.900 . S
C1444 C22 0.900 . S
C1469 C36 0.900 . S
C1474 C92 0.900 . S
C1499 C106 0.900 . S
C1504 C50 0.900 . S
C1529 C176 0.900 . S
C1534 C120 0.900 . S
C1559 C134 0.900 . S
C1564 C190 0.900 . S
C1589 C204 0.900 . S
C1594 C148 0.900 . S
C1619 C218 0.900 . S
C1624 C162 0.900 . S
C1649 C232 0.900 . S
C1654 C288 0.900 . S
C1679 C302 0.900 . S
C1684 C246 0.900 . S
C1709 C316 0.900 . S
C1714 C260 0.900 . S
C1739 C330 0.900 . S
C1744 C274 0.900 . S
C1769 C400 0.900 . S
C1774 C344 0.900 . S
C1799 C358 0.900 . S
C1804 C414 0.900 . S
C1829 C372 0.900 . S
C1834 C428 0.900 . S
C1859 C386 0.900 . S
C1864 C442 0.900 . S
C1889 C6 1.379 . S
C1894 C300 1.379 . S
C1919 C314 1.379 . S
C1924 C20 1.379 . S
C1949 C34 1.379 . S
C1954 C328 1.379 . S
C1979 C48 1.379 . S
C1984 C286 1.379 . S
C2009 C272 1.379 . S
C2014 C62 1.379 . S
C2039 C230 1.379 . S
C2044 C76 1.379 . S
C2069 C244 1.379 . S
C2074 C90 1.379 . S
C2099 C104 1.379 . S
C2104 C258 1.379 . S
C2129 C118 1.379 . S
C2134 C412 1.379 . S
C2159 C426 1.379 . S
C2164 C132 1.379 . S
C2189 C440 1.379 . S
C2194 C146 1.379 . S
C2219 C398 1.379 . S
C2224 C160 1.379 . S
C2249 C384 1.379 . S
C2254 C174 1.379 . S
C2279 C342 1.379 . S
C2284 C188 1.379 . S
C2309 C202 1.379 . S
C2314 C356 1.379 . S
C2339 C216 1.379 . S
C2344 C370 1.379 . S
