# Generated by pormake.
# Topology vmd, (6)-cn, num edge types: 1
# Building blocks:
#     Node 0, Type 0, BuildingBlock: IZENUY_clean_sbu_0, # of connection points: 6
#     Node 1, Type 0, BuildingBlock: IZENUY_clean_sbu_0, # of connection points: 6
#     Node 2, Type 0, BuildingBlock: IZENUY_clean_sbu_0, # of connection points: 6
#     Node 3, Type 0, BuildingBlock: IZENUY_clean_sbu_0, # of connection points: 6
#     Node 4, Type 0, BuildingBlock: IZENUY_clean_sbu_0, # of connection points: 6
#     Node 5, Type 0, BuildingBlock: IZENUY_clean_sbu_0, # of connection points: 6
#     Node 6, Type 0, BuildingBlock: IZENUY_clean_sbu_0, # of connection points: 6
#     Node 7, Type 0, BuildingBlock: IZENUY_clean_sbu_0, # of connection points: 6
#     Edge 8, Type (0, 0), BuildingBlock: EZIPEK_clean_linker_0, # of connection points: 2
#     Edge 9, Type (0, 0), BuildingBlock: EZIPEK_clean_linker_0, # of connection points: 2
#     Edge 10, Type (0, 0), BuildingBlock: EZIPEK_clean_linker_0, # of connection points: 2
#     Edge 11, Type (0, 0), BuildingBlock: EZIPEK_clean_linker_0, # of connection points: 2
#     Edge 12, Type (0, 0), BuildingBlock: EZIPEK_clean_linker_0, # of connection points: 2
#     Edge 13, Type (0, 0), BuildingBlock: EZIPEK_clean_linker_0, # of connection points: 2
#     Edge 14, Type (0, 0), BuildingBlock: EZIPEK_clean_linker_0, # of connection points: 2
#     Edge 15, Type (0, 0), BuildingBlock: EZIPEK_clean_linker_0, # of connection points: 2
#     Edge 16, Type (0, 0), BuildingBlock: EZIPEK_clean_linker_0, # of connection points: 2
#     Edge 17, Type (0, 0), BuildingBlock: EZIPEK_clean_linker_0, # of connection points: 2
#     Edge 18, Type (0, 0), BuildingBlock: EZIPEK_clean_linker_0, # of connection points: 2
#     Edge 19, Type (0, 0), BuildingBlock: EZIPEK_clean_linker_0, # of connection points: 2
#     Edge 20, Type (0, 0), BuildingBlock: EZIPEK_clean_linker_0, # of connection points: 2
#     Edge 21, Type (0, 0), BuildingBlock: EZIPEK_clean_linker_0, # of connection points: 2
#     Edge 22, Type (0, 0), BuildingBlock: EZIPEK_clean_linker_0, # of connection points: 2
#     Edge 23, Type (0, 0), BuildingBlock: EZIPEK_clean_linker_0, # of connection points: 2
#     Edge 24, Type (0, 0), BuildingBlock: EZIPEK_clean_linker_0, # of connection points: 2
#     Edge 25, Type (0, 0), BuildingBlock: EZIPEK_clean_linker_0, # of connection points: 2
#     Edge 26, Type (0, 0), BuildingBlock: EZIPEK_clean_linker_0, # of connection points: 2
#     Edge 27, Type (0, 0), BuildingBlock: EZIPEK_clean_linker_0, # of connection points: 2
#     Edge 28, Type (0, 0), BuildingBlock: EZIPEK_clean_linker_0, # of connection points: 2
#     Edge 29, Type (0, 0), BuildingBlock: EZIPEK_clean_linker_0, # of connection points: 2
#     Edge 30, Type (0, 0), BuildingBlock: EZIPEK_clean_linker_0, # of connection points: 2
#     Edge 31, Type (0, 0), BuildingBlock: EZIPEK_clean_linker_0, # of connection points: 2
# Relax obj value: 0.251
# Max RMSD: 0.250
# Mean RMSD: 0.249
data_MOF--net-vmd--node1-IZENUY_clean_sbu_0--edge1-EZIPEK_clean_linker_0
_symmetry_space_group_name_H-M    P1
_symmetry_Int_Tables_number       1
_symmetry_cell_setting            triclinic
loop_
_symmetry_equiv_pos_as_xyz
'x, y, z'
_cell_length_a     35.370905
_cell_length_b     19.638895
_cell_length_c     21.314262
_cell_angle_alpha  89.856171
_cell_angle_beta   97.765402
_cell_angle_gamma 89.627423
loop_
_atom_site_label
_atom_site_type_symbol
_atom_site_fract_x
_atom_site_fract_y
_atom_site_fract_z
_atom_type_partial_charge
Fe0 Fe 0.1628 0.50239 0.28129 0.0
Fe1 Fe 0.16268 0.3627 0.34522 0.0
O2 O 0.18434 0.42215 0.29893 0.0
Fe3 Fe 0.22676 0.40049 0.26971 0.0
O4 O 0.25265 0.47277 0.30616 0.0
O5 O 0.2081 0.54835 0.27479 0.0
O6 O 0.16923 0.52299 0.36469 0.0
C7 C 0.15419 0.48926 0.40518 0.0
C8 C 0.18024 0.46172 0.16604 0.0
O9 O 0.14243 0.42928 0.39184 0.0
C10 C 0.19715 0.27617 0.25885 0.0
O11 O 0.11337 0.47148 0.28295 0.0
O12 O 0.11968 0.3598 0.28796 0.0
O13 O 0.21324 0.44607 0.19399 0.0
O14 O 0.15544 0.48435 0.19787 0.0
C15 C 0.23592 0.34918 0.39789 0.0
O16 O 0.18213 0.28389 0.30956 0.0
O17 O 0.20366 0.32828 0.22896 0.0
C18 C 0.0988 0.41227 0.27632 0.0
O19 O 0.20257 0.3646 0.4056 0.0
O20 O 0.24644 0.35084 0.34283 0.0
C21 C 0.24287 0.53352 0.29362 0.0
Fe22 Fe 0.86836 0.48915 0.22141 0.0
Fe23 Fe 0.86947 0.34598 0.16511 0.0
O24 O 0.84694 0.40861 0.20761 0.0
Fe25 Fe 0.80387 0.39037 0.23698 0.0
O26 O 0.77841 0.46183 0.19558 0.0
O27 O 0.82323 0.53611 0.22505 0.0
O28 O 0.862 0.50624 0.13773 0.0
C29 C 0.87416 0.46834 0.09718 0.0
C30 C 0.84842 0.46251 0.33763 0.0
O31 O 0.88828 0.40979 0.1128 0.0
C32 C 0.83415 0.26596 0.25537 0.0
O33 O 0.91779 0.45781 0.22066 0.0
O34 O 0.91236 0.34643 0.22269 0.0
O35 O 0.81627 0.44063 0.31108 0.0
O36 O 0.87509 0.47552 0.30582 0.0
C37 C 0.79664 0.32738 0.11292 0.0
O38 O 0.85111 0.27065 0.20637 0.0
O39 O 0.8264 0.31962 0.28214 0.0
C40 C 0.93263 0.39913 0.23131 0.0
O41 O 0.82984 0.34225 0.10478 0.0
O42 O 0.78484 0.3361 0.16657 0.0
C43 C 0.78851 0.52264 0.20596 0.0
Fe44 Fe 0.80587 0.63176 0.73466 0.0
Fe45 Fe 0.87296 0.67943 0.66808 0.0
O46 O 0.84974 0.6152 0.70732 0.0
Fe47 Fe 0.87114 0.53353 0.71914 0.0
O48 O 0.82614 0.4854 0.72246 0.0
O49 O 0.7818 0.56071 0.69198 0.0
O50 O 0.78694 0.68583 0.6639 0.0
C51 C 0.80013 0.69804 0.61208 0.0
C52 C 0.85202 0.56305 0.83628 0.0
O53 O 0.83421 0.68715 0.60646 0.0
C54 C 0.93616 0.6221 0.73289 0.0
O55 O 0.82559 0.70273 0.78158 0.0
O56 O 0.85379 0.75373 0.71059 0.0
O57 O 0.87767 0.54453 0.80388 0.0
O58 O 0.81924 0.58095 0.80819 0.0
C59 C 0.87782 0.56054 0.59556 0.0
O60 O 0.91549 0.67522 0.72667 0.0
O61 O 0.92096 0.56423 0.72008 0.0
C62 C 0.83508 0.75694 0.75777 0.0
O63 O 0.8925 0.61712 0.61511 0.0
O64 O 0.86472 0.5208 0.6341 0.0
C65 C 0.79145 0.49971 0.70322 0.0
Fe66 Fe 0.16726 0.53915 0.7821 0.0
Fe67 Fe 0.2311 0.63954 0.76681 0.0
O68 O 0.18926 0.61877 0.7988 0.0
Fe69 Fe 0.16869 0.67878 0.84672 0.0
O70 O 0.14992 0.6126 0.89603 0.0
O71 O 0.17426 0.51715 0.86462 0.0
O72 O 0.21236 0.49226 0.77496 0.0
C73 C 0.24732 0.50595 0.79213 0.0
C74 C 0.10355 0.63073 0.77993 0.0
O75 O 0.25758 0.56664 0.80296 0.0
C76 C 0.20107 0.7643 0.75739 0.0
O77 O 0.15927 0.557 0.69861 0.0
O78 O 0.21731 0.59342 0.69124 0.0
O79 O 0.12427 0.68281 0.79192 0.0
O80 O 0.11813 0.57123 0.7858 0.0
C81 C 0.24292 0.69322 0.89407 0.0
O82 O 0.20688 0.71209 0.72704 0.0
O83 O 0.18691 0.75684 0.80891 0.0
C84 C 0.18504 0.57189 0.66571 0.0
O85 O 0.25205 0.68995 0.83815 0.0
O86 O 0.21022 0.67675 0.90459 0.0
C87 C 0.16279 0.55256 0.90749 0.0
Fe88 Fe 0.6625 0.98904 0.27409 0.0
Fe89 Fe 0.66366 0.84529 0.33086 0.0
O90 O 0.68488 0.90848 0.28743 0.0
Fe91 Fe 0.7277 0.89104 0.25672 0.0
O92 O 0.7527 0.96279 0.29757 0.0
O93 O 0.70697 0.03653 0.2683 0.0
O94 O 0.66967 1.00572 0.35774 0.0
C95 C 0.65901 0.96696 0.39911 0.0
C96 C 0.68166 0.96404 0.15734 0.0
O97 O 0.64533 0.90845 0.38397 0.0
C98 C 0.69787 0.76653 0.23843 0.0
O99 O 0.61355 0.95762 0.27725 0.0
O100 O 0.61974 0.84636 0.27507 0.0
O101 O 0.71392 0.94144 0.18338 0.0
O102 O 0.65493 0.97582 0.18958 0.0
C103 C 0.73756 0.82683 0.38028 0.0
O104 O 0.68171 0.77064 0.28832 0.0
O105 O 0.70558 0.82041 0.21196 0.0
C106 C 0.59884 0.89904 0.2681 0.0
O107 O 0.70434 0.8407 0.38992 0.0
O108 O 0.74827 0.83627 0.32599 0.0
C109 C 0.74194 0.02362 0.28684 0.0
Fe110 Fe 0.36632 0.99307 0.23377 0.0
Fe111 Fe 0.36726 0.85243 0.1715 0.0
O112 O 0.3445 0.91256 0.21647 0.0
Fe113 Fe 0.30012 0.89439 0.24284 0.0
O114 O 0.27674 0.97114 0.20658 0.0
O115 O 0.32224 0.0409 0.24166 0.0
O116 O 0.36008 1.01431 0.15027 0.0
C117 C 0.37064 0.97707 0.1074 0.0
C118 C 0.34632 0.95847 0.34794 0.0
O119 O 0.38435 0.91804 0.12076 0.0
C120 C 0.33394 0.76741 0.26011 0.0
O121 O 0.4155 0.96359 0.23163 0.0
O122 O 0.41147 0.8528 0.22647 0.0
O123 O 0.31446 0.93629 0.32018 0.0
O124 O 0.3729 0.97499 0.317 0.0
C125 C 0.29285 0.83771 0.11774 0.0
O126 O 0.35153 0.77593 0.21245 0.0
O127 O 0.31772 0.81715 0.28229 0.0
C128 C 0.4315 0.90572 0.23645 0.0
O129 O 0.327 0.84784 0.11179 0.0
O130 O 0.28009 0.84729 0.17013 0.0
C131 C 0.28745 0.03048 0.2222 0.0
Fe132 Fe 0.30265 0.1435 0.7449 0.0
Fe133 Fe 0.36527 0.18357 0.66451 0.0
O134 O 0.3456 0.12473 0.71378 0.0
Fe135 Fe 0.36916 0.04621 0.73308 0.0
O136 O 0.32503 0.99871 0.74304 0.0
O137 O 0.27858 0.06912 0.70745 0.0
O138 O 0.28099 0.19574 0.67591 0.0
C139 C 0.29018 0.20251 0.62061 0.0
C140 C 0.34986 0.07752 0.84719 0.0
O141 O 0.32257 0.18514 0.6088 0.0
C142 C 0.43217 0.13545 0.72815 0.0
O143 O 0.32331 0.21817 0.78496 0.0
O144 O 0.34996 0.26027 0.70635 0.0
O145 O 0.37719 0.07023 0.81548 0.0
O146 O 0.31707 0.09556 0.81974 0.0
C147 C 0.37057 0.05467 0.60628 0.0
O148 O 0.41094 0.18684 0.71567 0.0
O149 O 0.41793 0.07637 0.72589 0.0
C150 C 0.33696 0.26842 0.75887 0.0
O151 O 0.3816 0.11611 0.61351 0.0
O152 O 0.36181 0.02003 0.65182 0.0
C153 C 0.29007 1.00937 0.72207 0.0
Fe154 Fe 0.66458 0.18805 0.83043 0.0
Fe155 Fe 0.66212 0.04537 0.77446 0.0
O156 O 0.68592 0.12407 0.78819 0.0
Fe157 Fe 0.7299 0.13737 0.75828 0.0
O158 O 0.75127 0.18983 0.82759 0.0
O159 O 0.70544 0.19438 0.88829 0.0
O160 O 0.64765 0.12519 0.88588 0.0
C161 C 0.6594 0.0645 0.8991 0.0
C162 C 0.69806 0.2655 0.73579 0.0
O163 O 0.66953 0.02574 0.85742 0.0
C164 C 0.68164 0.06887 0.65833 0.0
O165 O 0.62001 0.18779 0.77604 0.0
O166 O 0.61327 0.07763 0.77913 0.0
O167 O 0.7123 0.21282 0.71457 0.0
O168 O 0.68095 0.26089 0.78464 0.0
C169 C 0.7409 1.00254 0.78485 0.0
O170 O 0.65445 0.06369 0.69068 0.0
O171 O 0.71457 0.08776 0.68464 0.0
C172 C 0.59884 0.13632 0.76904 0.0
O173 O 0.70546 0.99437 0.76775 0.0
O174 O 0.75293 0.06199 0.79756 0.0
C175 C 0.7392 0.20459 0.87985 0.0
C176 C 0.25558 0.20725 0.51248 0.0
C177 C 0.26681 0.24166 0.56954 0.0
C178 C 0.26405 0.35011 0.51112 0.0
C179 C 0.25738 0.31366 0.45316 0.0
N180 N 0.25493 0.20611 0.39926 0.0
N181 N 0.27123 0.34669 0.62649 0.0
C182 C 0.25559 0.24171 0.45411 0.0
C183 C 0.2682 0.3137 0.56989 0.0
N184 N 0.24241 0.1425 0.51478 0.0
N185 N 0.26688 0.41948 0.5091 0.0
H186 H 0.2715 0.32037 0.66905 0.0
H187 H 0.26956 0.39918 0.63118 0.0
H188 H 0.26494 0.4462 0.46634 0.0
H189 H 0.2733 0.45035 0.54859 0.0
H190 H 0.22853 0.11779 0.4751 0.0
H191 H 0.24057 0.11836 0.55801 0.0
H192 H 0.25532 0.15316 0.39743 0.0
H193 H 0.25915 0.22994 0.35721 0.0
C194 C 0.74722 0.30644 0.94861 0.0
C195 C 0.76174 0.24205 0.93262 0.0
C196 C 0.7906 0.22645 0.0425 0.0
C197 C 0.7753 0.29025 0.0589 0.0
N198 N 0.73401 0.38559 0.03078 0.0
N199 N 0.8052 0.14976 0.95921 0.0
C200 C 0.75202 0.32865 0.01269 0.0
C201 C 0.78597 0.20478 0.97821 0.0
N202 N 0.73036 0.34734 0.90106 0.0
N203 N 0.8082 0.1856 0.08953 0.0
H204 H 0.80255 0.13531 0.91177 0.0
H205 H 0.82582 0.12246 0.98864 0.0
H206 H 0.80781 0.19777 0.13685 0.0
H207 H 0.81871 0.13701 0.08248 0.0
H208 H 0.7211 0.39695 0.90726 0.0
H209 H 0.72991 0.33306 0.85403 0.0
H210 H 0.71411 0.41378 1.00076 0.0
H211 H 0.73689 0.40141 0.07791 0.0
C212 C 0.77857 0.82987 0.48387 0.0
C213 C 0.76085 0.79023 0.43334 0.0
C214 C 0.76371 0.69001 0.50401 0.0
C215 C 0.77808 0.7315 0.55601 0.0
N216 N 0.79584 0.84254 0.59697 0.0
N217 N 0.73629 0.6826 0.39389 0.0
C218 C 0.78439 0.80205 0.5462 0.0
C219 C 0.75348 0.72016 0.44317 0.0
N220 N 0.7906 0.89386 0.47145 0.0
N221 N 0.76154 0.62114 0.5124 0.0
H222 H 0.73398 0.70071 0.34778 0.0
H223 H 0.72487 0.63441 0.39846 0.0
H224 H 0.76675 0.59809 0.55695 0.0
H225 H 0.75628 0.58655 0.47538 0.0
H226 H 0.80653 0.92451 0.50478 0.0
H227 H 0.78766 0.91362 0.4255 0.0
H228 H 0.79736 0.89538 0.59476 0.0
H229 H 0.80063 0.82313 0.64262 0.0
C230 C 0.27227 0.73071 0.06313 0.0
C231 C 0.27118 0.80266 0.06291 0.0
C232 C 0.26466 0.80251 0.94652 0.0
C233 C 0.26546 0.7304 0.9471 0.0
N234 N 0.2832 0.6283 0.00476 0.0
N235 N 0.25924 0.90721 0.00574 0.0
C236 C 0.27301 0.69527 0.00534 0.0
C237 C 0.26528 0.83858 0.00464 0.0
N238 N 0.2716 0.69635 0.1186 0.0
N239 N 0.26537 0.83597 0.89063 0.0
H240 H 0.25708 0.93244 0.04816 0.0
H241 H 0.25271 0.93747 0.96555 0.0
H242 H 0.2693 0.80969 0.84967 0.0
H243 H 0.26684 0.88861 0.88616 0.0
H244 H 0.26843 0.64377 0.12091 0.0
H245 H 0.26963 0.72153 0.16106 0.0
H246 H 0.29232 0.60011 0.04553 0.0
H247 H 0.28685 0.60402 0.96242 0.0
C248 C 0.27128 0.15401 0.20184 0.0
C249 C 0.25982 0.08955 0.22216 0.0
C250 C 0.20217 0.14569 0.25349 0.0
C251 C 0.21765 0.2111 0.24414 0.0
N252 N 0.27507 0.27279 0.22468 0.0
N253 N 0.21527 0.02619 0.27642 0.0
C254 C 0.25417 0.21416 0.22187 0.0
C255 C 0.22528 0.08569 0.24999 0.0
N256 N 0.29918 0.15875 0.16361 0.0
N257 N 0.16512 0.14034 0.26424 0.0
H258 H 0.23106 0.98134 0.27636 0.0
H259 H 0.19302 0.02302 0.30371 0.0
H260 H 0.14712 0.18248 0.26512 0.0
H261 H 0.15121 0.09383 0.26542 0.0
H262 H 0.30501 0.2039 0.14098 0.0
H263 H 0.31386 0.11683 0.1495 0.0
H264 H 0.3033 0.27395 0.21565 0.0
H265 H 0.26748 0.31841 0.24378 0.0
C266 C 0.80434 0.0772 0.26001 0.0
C267 C 0.77012 0.08128 0.28866 0.0
C268 C 0.77671 0.20536 0.29235 0.0
C269 C 0.8133 0.20165 0.27024 0.0
N270 N 0.86557 0.12858 0.25054 0.0
N271 N 0.73255 0.14914 0.35167 0.0
C272 C 0.82833 0.13581 0.25979 0.0
C273 C 0.75959 0.14515 0.31175 0.0
N274 N 0.81312 0.01951 0.22925 0.0
N275 N 0.75581 0.26442 0.28996 0.0
H276 H 0.71903 0.10651 0.3669 0.0
H277 H 0.7268 0.19402 0.37483 0.0
H278 H 0.76288 0.30949 0.26924 0.0
H279 H 0.72786 0.26611 0.30046 0.0
H280 H 0.83547 0.01724 0.20206 0.0
H281 H 0.79608 0.97636 0.22509 0.0
H282 H 0.87868 0.08117 0.24795 0.0
H283 H 0.88439 0.16942 0.25288 0.0
C284 C 0.83014 0.88067 0.79727 0.0
C285 C 0.81266 0.82031 0.77077 0.0
C286 C 0.75398 0.88551 0.74224 0.0
C287 C 0.76793 0.94252 0.77904 0.0
N288 N 0.82019 0.9848 0.85437 0.0
N289 N 0.7508 0.7645 0.74652 0.0
C290 C 0.80651 0.93791 0.81013 0.0
C291 C 0.77237 0.82199 0.75306 0.0
N292 N 0.86882 0.88292 0.81201 0.0
N293 N 0.72492 0.89161 0.69347 0.0
H294 H 0.72117 0.76679 0.73496 0.0
H295 H 0.76085 0.71656 0.76145 0.0
H296 H 0.71503 0.93863 0.67537 0.0
H297 H 0.71566 0.85046 0.66458 0.0
H298 H 0.88333 0.92752 0.82615 0.0
H299 H 0.8863 0.84109 0.80589 0.0
H300 H 0.84699 0.98043 0.88126 0.0
H301 H 0.8033 0.02305 0.86989 0.0
C302 C 0.22997 0.95369 0.75441 0.0
C303 C 0.26257 0.95109 0.72162 0.0
C304 C 0.25601 0.82736 0.7142 0.0
C305 C 0.22112 0.82927 0.74213 0.0
N306 N 0.17047 0.90045 0.77165 0.0
N307 N 0.29997 0.88538 0.65666 0.0
C308 C 0.20671 0.89441 0.75688 0.0
C309 C 0.27263 0.88825 0.69613 0.0
N310 N 0.22225 1.01096 0.78672 0.0
N311 N 0.27673 0.7696 0.70789 0.0
H312 H 0.3119 0.9288 0.63963 0.0
H313 H 0.30832 0.83984 0.6372 0.0
H314 H 0.27195 0.72187 0.7264 0.0
H315 H 0.27195 0.72187 0.7264 0.0
H316 H 0.20157 1.01249 0.81719 0.0
H317 H 0.23866 0.05487 0.78801 0.0
H318 H 0.15746 0.94739 0.77733 0.0
H319 H 0.15192 0.85934 0.77087 0.0
C320 C 0.76931 0.6423 0.17623 0.0
C321 C 0.75976 0.57976 0.20255 0.0
C322 C 0.70259 0.63638 0.23371 0.0
C323 C 0.71748 0.7015 0.2212 0.0
N324 N 0.77439 0.76157 0.19641 0.0
N325 N 0.71842 0.52026 0.26604 0.0
C326 C 0.75318 0.70352 0.19603 0.0
C327 C 0.72643 0.57714 0.23347 0.0
N328 N 0.79465 0.6438 0.13329 0.0
N329 N 0.66573 0.63055 0.24525 0.0
H330 H 0.73529 0.47647 0.2694 0.0
H331 H 0.69681 0.51913 0.29478 0.0
H332 H 0.64694 0.67191 0.24262 0.0
H333 H 0.65276 0.58361 0.24986 0.0
H334 H 0.80014 0.68801 0.10892 0.0
H335 H 0.80644 0.5996 0.11684 0.0
H336 H 0.80157 0.76198 0.18257 0.0
H337 H 0.76874 0.80636 0.21913 0.0
C338 C 0.32576 0.63871 0.24436 0.0
C339 C 0.32351 0.69733 0.28237 0.0
C340 C 0.27663 0.63913 0.33943 0.0
C341 C 0.27326 0.58662 0.29342 0.0
N342 N 0.2964 0.53371 0.20342 0.0
N343 N 0.31327 0.73517 0.38589 0.0
C344 C 0.29889 0.58491 0.24703 0.0
C345 C 0.30386 0.69198 0.33617 0.0
N346 N 0.35501 0.63251 0.20897 0.0
N347 N 0.25325 0.63932 0.3855 0.0
H348 H 0.33574 0.76954 0.38678 0.0
H349 H 0.30242 0.73148 0.42878 0.0
H350 H 0.2348 0.59939 0.39172 0.0
H351 H 0.2508 0.68027 0.41564 0.0
H352 H 0.36 0.58926 0.18313 0.0
H353 H 0.37761 0.66671 0.21285 0.0
H354 H 0.31015 0.5345 0.16322 0.0
H355 H 0.27887 0.49171 0.20525 0.0
C356 C 0.33068 0.39806 0.74505 0.0
C357 C 0.32709 0.33867 0.7816 0.0
C358 C 0.27815 0.3953 0.83459 0.0
C359 C 0.2771 0.45102 0.79171 0.0
N360 N 0.30366 0.50672 0.7062 0.0
N361 N 0.31627 0.30268 0.88524 0.0
C362 C 0.30447 0.45368 0.74802 0.0
C363 C 0.30661 0.34405 0.83404 0.0
N364 N 0.36045 0.40264 0.71067 0.0
N365 N 0.25118 0.38941 0.87437 0.0
H366 H 0.34006 0.27046 0.88829 0.0
H367 H 0.30446 0.30741 0.92726 0.0
H368 H 0.22933 0.42481 0.87567 0.0
H369 H 0.24859 0.34622 0.90196 0.0
H370 H 0.36669 0.44594 0.68592 0.0
H371 H 0.38202 0.36582 0.71389 0.0
H372 H 0.31914 0.50755 0.66804 0.0
H373 H 0.28556 0.54856 0.7067 0.0
C374 C 0.73273 0.44926 0.74383 0.0
C375 C 0.76113 0.44561 0.70204 0.0
C376 C 0.73333 0.33662 0.66178 0.0
C377 C 0.7105 0.33418 0.71183 0.0
N378 N 0.67354 0.40428 0.77311 0.0
N379 N 0.78692 0.38648 0.61823 0.0
C380 C 0.70554 0.39557 0.74461 0.0
C381 C 0.76075 0.38963 0.6598 0.0
N382 N 0.73292 0.50185 0.78569 0.0
N383 N 0.72608 0.29174 0.61295 0.0
H384 H 0.80561 0.42613 0.61234 0.0
H385 H 0.79136 0.34329 0.59187 0.0
H386 H 0.70251 0.25957 0.60931 0.0
H387 H 0.73948 0.29296 0.57238 0.0
H388 H 0.71667 0.5023 0.82294 0.0
H389 H 0.75114 0.5432 0.78619 0.0
H390 H 0.66644 0.44982 0.79367 0.0
H391 H 0.65147 0.36893 0.76825 0.0
C392 C 0.03329 0.43515 0.30943 0.0
C393 C 0.05611 0.40484 0.2663 0.0
C394 C 0.99728 0.36561 0.20127 0.0
C395 C 0.97503 0.39341 0.24599 0.0
N396 N 0.97249 0.43768 0.35022 0.0
N397 N 0.05958 0.33068 0.17688 0.0
C398 C 0.99329 0.42322 0.30221 0.0
C399 C 0.038 0.36636 0.2143 0.0
N400 N 0.04933 0.47616 0.35728 0.0
N401 N 0.97965 0.34156 0.14473 0.0
H402 H 0.08924 0.33293 0.18174 0.0
H403 H 0.04822 0.29509 0.14352 0.0
H404 H 0.95016 0.33784 0.13387 0.0
H405 H 0.99409 0.32953 0.10672 0.0
H406 H 0.03341 0.50687 0.38384 0.0
H407 H 0.07839 0.48367 0.36831 0.0
H408 H 0.98461 0.45236 0.39537 0.0
H409 H 0.9434 0.42756 0.34715 0.0
C410 C 0.04229 0.61175 0.70737 0.0
C411 C 0.06087 0.63734 0.76543 0.0
C412 C 0.99777 0.66296 0.7981 0.0
C413 C 0.9792 0.62862 0.74365 0.0
N414 N 0.98552 0.56548 0.64767 0.0
N415 N 0.05629 0.6814 0.86965 0.0
C416 C 1.00199 0.60143 0.69885 0.0
C417 C 0.0386 0.662 0.81152 0.0
N418 N 0.0631 0.60031 0.65876 0.0
N419 N 0.97657 0.69669 0.8374 0.0
H420 H 0.08582 0.68341 0.88106 0.0
H421 H 0.04181 0.69076 0.9082 0.0
H422 H 0.94689 0.69608 0.832 0.0
H423 H 0.98834 0.72952 0.87296 0.0
H424 H 0.05101 0.58882 0.61275 0.0
H425 H 0.09227 0.6099 0.66258 0.0
H426 H 1.00108 0.53594 0.61954 0.0
H427 H 0.95634 0.56158 0.63465 0.0
C428 C 0.49548 0.94137 0.20423 0.0
C429 C 0.47448 0.9013 0.24372 0.0
C430 C 0.53578 0.85814 0.30011 0.0
C431 C 0.55612 0.89383 0.25709 0.0
N432 N 0.55429 0.95746 0.16021 0.0
N433 N 0.47538 0.81612 0.32605 0.0
C434 C 0.53558 0.93193 0.20707 0.0
C435 C 0.49489 0.85745 0.29011 0.0
N436 N 0.47784 0.99 0.1643 0.0
N437 N 0.55528 0.82879 0.35321 0.0
H438 H 0.44598 0.81894 0.32607 0.0
H439 H 0.48821 0.7764 0.3538 0.0
H440 H 0.5849 0.8281 0.36306 0.0
H441 H 0.54216 0.80999 0.39049 0.0
H442 H 0.49274 0.02744 0.14332 0.0
H443 H 0.4486 0.9968 0.1541 0.0
H444 H 0.54045 0.97743 0.11782 0.0
H445 H 0.58358 0.95251 0.1608 0.0
C446 C 0.53531 0.15128 0.81017 0.0
C447 C 0.5562 0.1443 0.75791 0.0
C448 C 0.49558 0.14582 0.68581 0.0
C449 C 0.47476 0.14316 0.73849 0.0
N450 N 0.47498 0.1377 0.85137 0.0
N451 N 0.55616 0.12903 0.64589 0.0
C452 C 0.49473 0.14431 0.80085 0.0
C453 C 0.53627 0.14002 0.69567 0.0
N454 N 0.55411 0.16675 0.86855 0.0
N455 N 0.47656 0.15578 0.62634 0.0
H456 H 0.58591 0.12779 0.65087 0.0
H457 H 0.54326 0.11682 0.60052 0.0
H458 H 0.44709 0.16189 0.61749 0.0
H459 H 0.49012 0.16464 0.58671 0.0
H460 H 0.54039 0.17865 0.9074 0.0
H461 H 0.58338 0.1749 0.87655 0.0
H462 H 0.48804 0.12955 0.89758 0.0
H463 H 0.44526 0.13596 0.84657 0.0
C464 C 0.13243 0.51711 0.00291 0.0
C465 C 0.16533 0.52267 0.97183 0.0
C466 C 0.20286 0.45976 0.05848 0.0
C467 C 0.17273 0.46751 0.09521 0.0
N468 N 0.10421 0.46838 0.09033 0.0
N469 N 0.23331 0.50533 0.97353 0.0
C470 C 0.13592 0.4865 0.06417 0.0
C471 C 0.20085 0.49503 1.00028 0.0
N472 N 0.09797 0.54069 0.97388 0.0
N473 N 0.23177 0.41433 0.07623 0.0
H474 H 0.23394 0.53377 0.93238 0.0
H475 H 0.26032 0.49087 0.9954 0.0
H476 H 0.23099 0.37977 0.11324 0.0
H477 H 0.25291 0.40288 0.0482 0.0
H478 H 0.07404 0.54683 0.99687 0.0
H479 H 0.09348 0.55658 0.92676 0.0
H480 H 0.07633 0.47654 0.06901 0.0
H481 H 0.10574 0.43659 0.12979 0.0
C482 C 0.87603 0.44371 0.4515 0.0
C483 C 0.85385 0.48439 0.405 0.0
C484 C 0.86 0.58141 0.47778 0.0
C485 C 0.87677 0.5383 0.5279 0.0
N486 N 0.90378 0.4289 0.56137 0.0
N487 N 0.81911 0.58834 0.37727 0.0
C488 C 0.88559 0.46939 0.5143 0.0
C489 C 0.84398 0.55199 0.41942 0.0
N490 N 0.8887 0.38116 0.43506 0.0
N491 N 0.86096 0.65059 0.48408 0.0
H492 H 0.80577 0.56767 0.33518 0.0
H493 H 0.80864 0.63623 0.387 0.0
H494 H 0.8766 0.67513 0.52202 0.0
H495 H 0.85135 0.68414 0.44736 0.0
H496 H 0.90859 0.35186 0.46402 0.0
H497 H 0.88066 0.35972 0.39054 0.0
H498 H 0.90642 0.3763 0.55772 0.0
H499 H 0.91598 0.44822 0.60495 0.0
C500 C 0.89652 0.53692 0.93816 0.0
C501 C 0.85891 0.55122 0.90708 0.0
C502 C 0.83253 0.51302 1.00152 0.0
C503 C 0.86955 0.49296 0.03044 0.0
N504 N 0.93708 0.48345 0.02608 0.0
N505 N 0.79632 0.58874 0.92677 0.0
C506 C 0.90167 0.50407 0.99862 0.0
C507 C 0.82819 0.54957 0.9435 0.0
N508 N 0.92727 0.56212 0.91335 0.0
N509 N 0.80104 0.49526 0.0284 0.0
H510 H 0.79481 0.62639 0.89204 0.0
H511 H 0.77433 0.59306 0.95451 0.0
H512 H 0.80249 0.46788 0.07057 0.0
H513 H 0.7733 0.50218 0.00567 0.0
H514 H 0.95532 0.55837 0.93531 0.0
H515 H 0.92432 0.59564 0.87506 0.0
H516 H 0.96085 0.48166 0.00218 0.0
H517 H 0.94243 0.46407 0.072 0.0
C518 C 0.16384 0.586 0.48534 0.0
C519 C 0.15318 0.51737 0.47046 0.0
C520 C 0.16741 0.48592 0.5817 0.0
C521 C 0.17836 0.55359 0.59764 0.0
N522 N 0.18184 0.67118 0.56643 0.0
N523 N 0.12448 0.41795 0.51134 0.0
C524 C 0.17537 0.60469 0.54984 0.0
C525 C 0.14877 0.47184 0.52053 0.0
N526 N 0.16114 0.63378 0.43826 0.0
N527 N 0.17543 0.43434 0.62457 0.0
H528 H 0.10503 0.41258 0.47037 0.0
H529 H 0.119 0.3859 0.5481 0.0
H530 H 0.19077 0.44188 0.6692 0.0
H531 H 0.1708 0.38328 0.61273 0.0
H532 H 0.17399 0.68134 0.44296 0.0
H533 H 0.14479 0.62618 0.39438 0.0
H534 H 0.17667 0.71216 0.5354 0.0
H535 H 0.19107 0.68613 0.61268 0.0
C536 C 0.63479 1.00371 0.98929 0.0
C537 C 0.66436 0.03933 0.96512 0.0
C538 C 0.70451 0.02847 0.06721 0.0
C539 C 0.67663 0.98702 0.09011 0.0
N540 N 0.62 0.91911 0.06505 0.0
N541 N 0.7319 0.06234 0.97483 0.0
C542 C 0.64291 0.97016 0.04898 0.0
C543 C 0.70061 0.04466 0.00204 0.0
N544 N 0.59925 1.00127 0.95524 0.0
N545 N 0.73372 0.05585 0.10747 0.0
H546 H 0.73084 0.07242 0.92661 0.0
H547 H 0.75943 0.05824 0.99919 0.0
H548 H 0.73653 0.05004 0.15633 0.0
H549 H 0.75246 0.09124 0.09259 0.0
H550 H 0.57573 0.98128 0.9734 0.0
H551 H 0.59278 0.02416 0.91079 0.0
H552 H 0.59676 0.90092 0.03458 0.0
H553 H 0.62675 0.89006 0.10615 0.0
C554 C 0.39562 1.00113 0.51288 0.0
C555 C 0.36448 0.02432 0.5424 0.0
C556 C 0.32068 1.00165 0.44604 0.0
C557 C 0.35141 0.97509 0.4168 0.0
N558 N 0.41552 0.92847 0.43166 0.0
N559 N 0.29631 0.02499 0.54406 0.0
C560 C 0.38825 0.96863 0.45294 0.0
C561 C 0.32667 0.01661 0.51153 0.0
N562 N 0.43208 1.00932 0.5422 0.0
N563 N 0.28668 0.01869 0.41103 0.0
H564 H 0.29881 0.04253 0.59046 0.0
H565 H 0.26897 1.00866 0.5263 0.0
H566 H 0.28278 0.02241 0.36198 0.0
H567 H 0.26356 0.03813 0.43063 0.0
H568 H 0.45602 1.00002 0.51978 0.0
H569 H 0.43828 0.02953 0.58762 0.0
H570 H 0.44179 0.91775 0.45835 0.0
H571 H 0.41012 0.8991 0.39078 0.0
C572 C 0.33368 0.04395 0.0178 0.0
C573 C 0.3656 1.00192 0.04039 0.0
C574 C 0.37997 0.99569 0.93159 0.0
C575 C 0.35446 0.05092 0.91347 0.0
N576 N 0.3117 0.13621 0.94775 0.0
N577 N 0.42408 0.94799 0.01604 0.0
C578 C 0.3328 0.07798 0.95907 0.0
C579 C 0.39043 0.98103 0.99672 0.0
N580 N 0.30254 0.04727 0.04907 0.0
N581 N 0.39202 0.95337 0.88739 0.0
H582 H 0.43415 0.93697 0.06297 0.0
H583 H 0.44397 0.93794 0.98523 0.0
H584 H 0.38098 0.95511 0.83957 0.0
H585 H 0.40845 0.90985 0.89974 0.0
H586 H 0.27762 0.07328 0.03091 0.0
H587 H 0.29961 0.01699 0.08827 0.0
H588 H 0.29807 0.15947 0.98261 0.0
H589 H 0.3112 0.16508 0.90673 0.0
C590 C 0.70053 0.06092 0.54734 0.0
C591 C 0.67625 0.04109 0.5921 0.0
C592 C 0.63742 0.97767 0.50749 0.0
C593 C 0.66476 0.98988 0.46621 0.0
N594 N 0.73035 0.0203 0.45959 0.0
N595 N 0.63101 0.95437 0.6161 0.0
C596 C 0.6988 0.0246 0.48985 0.0
C597 C 0.6472 0.99197 0.57287 0.0
N598 N 0.72429 0.11542 0.55744 0.0
N599 N 0.60207 0.95355 0.48512 0.0
H600 H 0.6414 0.95316 0.66418 0.0
H601 H 0.61145 0.91582 0.60272 0.0
H602 H 0.59297 0.94565 0.43713 0.0
H603 H 0.58056 0.949 0.51386 0.0
H604 H 0.74018 0.13315 0.52298 0.0
H605 H 0.72453 0.14803 0.59578 0.0
H606 H 0.75655 0.04089 0.47841 0.0
H607 H 0.73151 0.98955 0.42011 0.0
loop_
_geom_bond_atom_site_label_1
_geom_bond_atom_site_label_2
_geom_bond_distance
_geom_bond_site_symmetry_2
_ccdc_geom_bond_type
Fe0 O2 1.918 . S
Fe0 O5 1.997 . S
Fe0 O6 2.002 . S
Fe0 O11 1.976 . S
Fe0 O14 1.996 . S
Fe1 O2 1.918 . S
Fe1 O9 1.997 . S
Fe1 O12 1.996 . S
Fe1 O16 1.976 . S
Fe1 O19 2.002 . S
O2 Fe0 1.918 . S
O2 Fe1 1.918 . S
O2 Fe3 1.918 . S
Fe3 O2 1.918 . S
Fe3 O4 2.002 . S
Fe3 O13 1.976 . S
Fe3 O17 1.996 . S
Fe3 O20 1.997 . S
O4 Fe3 2.002 . S
O4 C21 1.295 . S
O5 Fe0 1.997 . S
O5 C21 1.235 . S
O6 Fe0 2.002 . S
O6 C7 1.295 . S
C7 O6 1.295 . S
C7 O9 1.235 . S
C8 O13 1.287 . S
C8 O14 1.255 . S
O9 Fe1 1.997 . S
O9 C7 1.235 . S
C10 O16 1.287 . S
C10 O17 1.255 . S
O11 Fe0 1.976 . S
O11 C18 1.287 . S
O12 Fe1 1.996 . S
O12 C18 1.255 . S
O13 Fe3 1.976 . S
O13 C8 1.287 . S
O14 Fe0 1.996 . S
O14 C8 1.255 . S
C15 O19 1.295 . S
C15 O20 1.235 . S
O16 Fe1 1.976 . S
O16 C10 1.287 . S
O17 Fe3 1.996 . S
O17 C10 1.255 . S
C18 O11 1.287 . S
C18 O12 1.255 . S
O19 Fe1 2.002 . S
O19 C15 1.295 . S
O20 Fe3 1.997 . S
O20 C15 1.235 . S
C21 O4 1.295 . S
C21 O5 1.235 . S
Fe22 O24 1.918 . S
Fe22 O27 1.997 . S
Fe22 O28 2.002 . S
Fe22 O33 1.976 . S
Fe22 O36 1.996 . S
Fe23 O24 1.918 . S
Fe23 O31 1.997 . S
Fe23 O34 1.996 . S
Fe23 O38 1.976 . S
Fe23 O41 2.002 . S
O24 Fe22 1.918 . S
O24 Fe23 1.918 . S
O24 Fe25 1.918 . S
Fe25 O24 1.918 . S
Fe25 O26 2.002 . S
Fe25 O35 1.976 . S
Fe25 O39 1.996 . S
Fe25 O42 1.997 . S
O26 Fe25 2.002 . S
O26 C43 1.295 . S
O27 Fe22 1.997 . S
O27 C43 1.235 . S
O28 Fe22 2.002 . S
O28 C29 1.295 . S
C29 O28 1.295 . S
C29 O31 1.235 . S
C30 O35 1.287 . S
C30 O36 1.255 . S
O31 Fe23 1.997 . S
O31 C29 1.235 . S
C32 O38 1.287 . S
C32 O39 1.255 . S
O33 Fe22 1.976 . S
O33 C40 1.287 . S
O34 Fe23 1.996 . S
O34 C40 1.255 . S
O35 Fe25 1.976 . S
O35 C30 1.287 . S
O36 Fe22 1.996 . S
O36 C30 1.255 . S
C37 O41 1.295 . S
C37 O42 1.235 . S
O38 Fe23 1.976 . S
O38 C32 1.287 . S
O39 Fe25 1.996 . S
O39 C32 1.255 . S
C40 O33 1.287 . S
C40 O34 1.255 . S
O41 Fe23 2.002 . S
O41 C37 1.295 . S
O42 Fe25 1.997 . S
O42 C37 1.235 . S
C43 O26 1.295 . S
C43 O27 1.235 . S
Fe44 O46 1.918 . S
Fe44 O49 1.997 . S
Fe44 O50 2.002 . S
Fe44 O55 1.976 . S
Fe44 O58 1.996 . S
Fe45 O46 1.918 . S
Fe45 O53 1.997 . S
Fe45 O56 1.996 . S
Fe45 O60 1.976 . S
Fe45 O63 2.002 . S
O46 Fe44 1.918 . S
O46 Fe45 1.918 . S
O46 Fe47 1.918 . S
Fe47 O46 1.918 . S
Fe47 O48 2.002 . S
Fe47 O57 1.976 . S
Fe47 O61 1.996 . S
Fe47 O64 1.997 . S
O48 Fe47 2.002 . S
O48 C65 1.295 . S
O49 Fe44 1.997 . S
O49 C65 1.235 . S
O50 Fe44 2.002 . S
O50 C51 1.295 . S
C51 O50 1.295 . S
C51 O53 1.235 . S
C52 O57 1.287 . S
C52 O58 1.255 . S
O53 Fe45 1.997 . S
O53 C51 1.235 . S
C54 O60 1.287 . S
C54 O61 1.255 . S
O55 Fe44 1.976 . S
O55 C62 1.287 . S
O56 Fe45 1.996 . S
O56 C62 1.255 . S
O57 Fe47 1.976 . S
O57 C52 1.287 . S
O58 Fe44 1.996 . S
O58 C52 1.255 . S
C59 O63 1.295 . S
C59 O64 1.235 . S
O60 Fe45 1.976 . S
O60 C54 1.287 . S
O61 Fe47 1.996 . S
O61 C54 1.255 . S
C62 O55 1.287 . S
C62 O56 1.255 . S
O63 Fe45 2.002 . S
O63 C59 1.295 . S
O64 Fe47 1.997 . S
O64 C59 1.235 . S
C65 O48 1.295 . S
C65 O49 1.235 . S
Fe66 O68 1.918 . S
Fe66 O71 1.997 . S
Fe66 O72 2.002 . S
Fe66 O77 1.976 . S
Fe66 O80 1.996 . S
Fe67 O68 1.918 . S
Fe67 O75 1.997 . S
Fe67 O78 1.996 . S
Fe67 O82 1.976 . S
Fe67 O85 2.002 . S
O68 Fe66 1.918 . S
O68 Fe67 1.918 . S
O68 Fe69 1.918 . S
Fe69 O68 1.918 . S
Fe69 O70 2.002 . S
Fe69 O79 1.976 . S
Fe69 O83 1.996 . S
Fe69 O86 1.997 . S
O70 Fe69 2.002 . S
O70 C87 1.295 . S
O71 Fe66 1.997 . S
O71 C87 1.235 . S
O72 Fe66 2.002 . S
O72 C73 1.295 . S
C73 O72 1.295 . S
C73 O75 1.235 . S
C74 O79 1.287 . S
C74 O80 1.255 . S
O75 Fe67 1.997 . S
O75 C73 1.235 . S
C76 O82 1.287 . S
C76 O83 1.255 . S
O77 Fe66 1.976 . S
O77 C84 1.287 . S
O78 Fe67 1.996 . S
O78 C84 1.255 . S
O79 Fe69 1.976 . S
O79 C74 1.287 . S
O80 Fe66 1.996 . S
O80 C74 1.255 . S
C81 O85 1.295 . S
C81 O86 1.235 . S
O82 Fe67 1.976 . S
O82 C76 1.287 . S
O83 Fe69 1.996 . S
O83 C76 1.255 . S
C84 O77 1.287 . S
C84 O78 1.255 . S
O85 Fe67 2.002 . S
O85 C81 1.295 . S
O86 Fe69 1.997 . S
O86 C81 1.235 . S
C87 O70 1.295 . S
C87 O71 1.235 . S
Fe88 O90 1.918 . S
Fe88 O93 1.997 1_565 S
Fe88 O94 2.002 . S
Fe88 O99 1.976 . S
Fe88 O102 1.996 . S
Fe89 O90 1.918 . S
Fe89 O97 1.997 . S
Fe89 O100 1.996 . S
Fe89 O104 1.976 . S
Fe89 O107 2.002 . S
O90 Fe88 1.918 . S
O90 Fe89 1.918 . S
O90 Fe91 1.918 . S
Fe91 O90 1.918 . S
Fe91 O92 2.002 . S
Fe91 O101 1.976 . S
Fe91 O105 1.996 . S
Fe91 O108 1.997 . S
O92 Fe91 2.002 . S
O92 C109 1.295 1_565 S
O93 Fe88 1.997 1_545 S
O93 C109 1.235 . S
O94 Fe88 2.002 . S
O94 C95 1.295 . S
C95 O94 1.295 . S
C95 O97 1.235 . S
C96 O101 1.287 . S
C96 O102 1.255 . S
O97 Fe89 1.997 . S
O97 C95 1.235 . S
C98 O104 1.287 . S
C98 O105 1.255 . S
O99 Fe88 1.976 . S
O99 C106 1.287 . S
O100 Fe89 1.996 . S
O100 C106 1.255 . S
O101 Fe91 1.976 . S
O101 C96 1.287 . S
O102 Fe88 1.996 . S
O102 C96 1.255 . S
C103 O107 1.295 . S
C103 O108 1.235 . S
O104 Fe89 1.976 . S
O104 C98 1.287 . S
O105 Fe91 1.996 . S
O105 C98 1.255 . S
C106 O99 1.287 . S
C106 O100 1.255 . S
O107 Fe89 2.002 . S
O107 C103 1.295 . S
O108 Fe91 1.997 . S
O108 C103 1.235 . S
C109 O92 1.295 1_545 S
C109 O93 1.235 . S
Fe110 O112 1.918 . S
Fe110 O115 1.997 1_565 S
Fe110 O116 2.002 . S
Fe110 O121 1.976 . S
Fe110 O124 1.996 . S
Fe111 O112 1.918 . S
Fe111 O119 1.997 . S
Fe111 O122 1.996 . S
Fe111 O126 1.976 . S
Fe111 O129 2.002 . S
O112 Fe110 1.918 . S
O112 Fe111 1.918 . S
O112 Fe113 1.918 . S
Fe113 O112 1.918 . S
Fe113 O114 2.002 . S
Fe113 O123 1.976 . S
Fe113 O127 1.996 . S
Fe113 O130 1.997 . S
O114 Fe113 2.002 . S
O114 C131 1.295 1_565 S
O115 Fe110 1.997 1_545 S
O115 C131 1.235 . S
O116 Fe110 2.002 . S
O116 C117 1.295 . S
C117 O116 1.295 . S
C117 O119 1.235 . S
C118 O123 1.287 . S
C118 O124 1.255 . S
O119 Fe111 1.997 . S
O119 C117 1.235 . S
C120 O126 1.287 . S
C120 O127 1.255 . S
O121 Fe110 1.976 . S
O121 C128 1.287 . S
O122 Fe111 1.996 . S
O122 C128 1.255 . S
O123 Fe113 1.976 . S
O123 C118 1.287 . S
O124 Fe110 1.996 . S
O124 C118 1.255 . S
C125 O129 1.295 . S
C125 O130 1.235 . S
O126 Fe111 1.976 . S
O126 C120 1.287 . S
O127 Fe113 1.996 . S
O127 C120 1.255 . S
C128 O121 1.287 . S
C128 O122 1.255 . S
O129 Fe111 2.002 . S
O129 C125 1.295 . S
O130 Fe113 1.997 . S
O130 C125 1.235 . S
C131 O114 1.295 1_545 S
C131 O115 1.235 . S
Fe132 O134 1.918 . S
Fe132 O137 1.997 . S
Fe132 O138 2.002 . S
Fe132 O143 1.976 . S
Fe132 O146 1.996 . S
Fe133 O134 1.918 . S
Fe133 O141 1.997 . S
Fe133 O144 1.996 . S
Fe133 O148 1.976 . S
Fe133 O151 2.002 . S
O134 Fe132 1.918 . S
O134 Fe133 1.918 . S
O134 Fe135 1.918 . S
Fe135 O134 1.918 . S
Fe135 O136 2.002 1_545 S
Fe135 O145 1.976 . S
Fe135 O149 1.996 . S
Fe135 O152 1.997 . S
O136 Fe135 2.002 1_565 S
O136 C153 1.295 . S
O137 Fe132 1.997 . S
O137 C153 1.235 1_545 S
O138 Fe132 2.002 . S
O138 C139 1.295 . S
C139 O138 1.295 . S
C139 O141 1.235 . S
C140 O145 1.287 . S
C140 O146 1.255 . S
O141 Fe133 1.997 . S
O141 C139 1.235 . S
C142 O148 1.287 . S
C142 O149 1.255 . S
O143 Fe132 1.976 . S
O143 C150 1.287 . S
O144 Fe133 1.996 . S
O144 C150 1.255 . S
O145 Fe135 1.976 . S
O145 C140 1.287 . S
O146 Fe132 1.996 . S
O146 C140 1.255 . S
C147 O151 1.295 . S
C147 O152 1.235 . S
O148 Fe133 1.976 . S
O148 C142 1.287 . S
O149 Fe135 1.996 . S
O149 C142 1.255 . S
C150 O143 1.287 . S
C150 O144 1.255 . S
O151 Fe133 2.002 . S
O151 C147 1.295 . S
O152 Fe135 1.997 . S
O152 C147 1.235 . S
C153 O136 1.295 . S
C153 O137 1.235 1_565 S
Fe154 O156 1.918 . S
Fe154 O159 1.997 . S
Fe154 O160 2.002 . S
Fe154 O165 1.976 . S
Fe154 O168 1.996 . S
Fe155 O156 1.918 . S
Fe155 O163 1.997 . S
Fe155 O166 1.996 . S
Fe155 O170 1.976 . S
Fe155 O173 2.002 1_545 S
O156 Fe154 1.918 . S
O156 Fe155 1.918 . S
O156 Fe157 1.918 . S
Fe157 O156 1.918 . S
Fe157 O158 2.002 . S
Fe157 O167 1.976 . S
Fe157 O171 1.996 . S
Fe157 O174 1.997 . S
O158 Fe157 2.002 . S
O158 C175 1.295 . S
O159 Fe154 1.997 . S
O159 C175 1.235 . S
O160 Fe154 2.002 . S
O160 C161 1.295 . S
C161 O160 1.295 . S
C161 O163 1.235 . S
C162 O167 1.287 . S
C162 O168 1.255 . S
O163 Fe155 1.997 . S
O163 C161 1.235 . S
C164 O170 1.287 . S
C164 O171 1.255 . S
O165 Fe154 1.976 . S
O165 C172 1.287 . S
O166 Fe155 1.996 . S
O166 C172 1.255 . S
O167 Fe157 1.976 . S
O167 C162 1.287 . S
O168 Fe154 1.996 . S
O168 C162 1.255 . S
C169 O173 1.295 . S
C169 O174 1.235 1_565 S
O170 Fe155 1.976 . S
O170 C164 1.287 . S
O171 Fe157 1.996 . S
O171 C164 1.255 . S
C172 O165 1.287 . S
C172 O166 1.255 . S
O173 Fe155 2.002 1_565 S
O173 C169 1.295 . S
O174 Fe157 1.997 . S
O174 C169 1.235 1_545 S
C175 O158 1.295 . S
C175 O159 1.235 . S
C176 C177 1.363 . S
C176 C182 1.379 . S
C176 N184 1.356 . S
C177 C176 1.363 . S
C177 C183 1.363 . S
C178 C179 1.363 . S
C178 C183 1.379 . S
C178 N185 1.356 . S
C179 C178 1.363 . S
C179 C182 1.363 . S
N180 C182 1.356 . S
N180 H192 0.984 . S
N180 H193 0.985 . S
N181 C183 1.356 . S
N181 H186 0.984 . S
N181 H187 0.985 . S
C182 C176 1.379 . S
C182 C179 1.363 . S
C182 N180 1.356 . S
C183 C177 1.363 . S
C183 C178 1.379 . S
C183 N181 1.356 . S
N184 C176 1.356 . S
N184 H190 0.984 . S
N184 H191 0.984 . S
N185 C178 1.356 . S
N185 H188 0.984 . S
N185 H189 0.985 . S
H186 N181 0.984 . S
H187 N181 0.985 . S
H188 N185 0.984 . S
H189 N185 0.985 . S
H190 N184 0.984 . S
H191 N184 0.984 . S
H192 N180 0.984 . S
H193 N180 0.985 . S
C194 C195 1.363 . S
C194 C200 1.379 1_556 S
C194 N202 1.356 . S
C195 C194 1.363 . S
C195 C201 1.363 . S
C196 C197 1.363 . S
C196 C201 1.379 1_554 S
C196 N203 1.356 . S
C197 C196 1.363 . S
C197 C200 1.363 . S
N198 C200 1.356 . S
N198 H210 0.984 1_554 S
N198 H211 0.985 . S
N199 C201 1.356 . S
N199 H204 0.984 . S
N199 H205 0.985 1_556 S
C200 C194 1.379 1_554 S
C200 C197 1.363 . S
C200 N198 1.356 . S
C201 C195 1.363 . S
C201 C196 1.379 1_556 S
C201 N199 1.356 . S
N202 C194 1.356 . S
N202 H208 0.984 . S
N202 H209 0.984 . S
N203 C196 1.356 . S
N203 H206 0.984 . S
N203 H207 0.985 . S
H204 N199 0.984 . S
H205 N199 0.985 1_554 S
H206 N203 0.984 . S
H207 N203 0.985 . S
H208 N202 0.984 . S
H209 N202 0.984 . S
H210 N198 0.984 1_556 S
H211 N198 0.985 . S
C212 C213 1.363 . S
C212 C218 1.379 . S
C212 N220 1.356 . S
C213 C212 1.363 . S
C213 C219 1.363 . S
C214 C215 1.363 . S
C214 C219 1.379 . S
C214 N221 1.356 . S
C215 C214 1.363 . S
C215 C218 1.363 . S
N216 C218 1.356 . S
N216 H228 0.984 . S
N216 H229 0.985 . S
N217 C219 1.356 . S
N217 H222 0.984 . S
N217 H223 0.985 . S
C218 C212 1.379 . S
C218 C215 1.363 . S
C218 N216 1.356 . S
C219 C213 1.363 . S
C219 C214 1.379 . S
C219 N217 1.356 . S
N220 C212 1.356 . S
N220 H226 0.984 . S
N220 H227 0.984 . S
N221 C214 1.356 . S
N221 H224 0.984 . S
N221 H225 0.985 . S
H222 N217 0.984 . S
H223 N217 0.985 . S
H224 N221 0.984 . S
H225 N221 0.985 . S
H226 N220 0.984 . S
H227 N220 0.984 . S
H228 N216 0.984 . S
H229 N216 0.985 . S
C230 C231 1.363 . S
C230 C236 1.379 1_554 S
C230 N238 1.356 . S
C231 C230 1.363 . S
C231 C237 1.363 . S
C232 C233 1.363 . S
C232 C237 1.379 1_556 S
C232 N239 1.356 . S
C233 C232 1.363 . S
C233 C236 1.363 . S
N234 C236 1.356 . S
N234 H246 0.984 . S
N234 H247 0.985 . S
N235 C237 1.356 . S
N235 H240 0.984 . S
N235 H241 0.985 . S
C236 C230 1.379 1_556 S
C236 C233 1.363 . S
C236 N234 1.356 . S
C237 C231 1.363 . S
C237 C232 1.379 1_554 S
C237 N235 1.356 . S
N238 C230 1.356 . S
N238 H244 0.984 . S
N238 H245 0.984 . S
N239 C232 1.356 . S
N239 H242 0.984 . S
N239 H243 0.985 . S
H240 N235 0.984 . S
H241 N235 0.985 . S
H242 N239 0.984 . S
H243 N239 0.985 . S
H244 N238 0.984 . S
H245 N238 0.984 . S
H246 N234 0.984 . S
H247 N234 0.985 . S
C248 C249 1.363 . S
C248 C254 1.379 . S
C248 N256 1.356 . S
C249 C248 1.363 . S
C249 C255 1.363 . S
C250 C251 1.363 . S
C250 C255 1.379 . S
C250 N257 1.356 . S
C251 C250 1.363 . S
C251 C254 1.363 . S
N252 C254 1.356 . S
N252 H264 0.984 . S
N252 H265 0.985 . S
N253 C255 1.356 1_565 S
N253 H258 0.984 . S
N253 H259 0.985 . S
C254 C248 1.379 . S
C254 C251 1.363 . S
C254 N252 1.356 . S
C255 C249 1.363 . S
C255 C250 1.379 . S
C255 N253 1.356 1_545 S
N256 C248 1.356 . S
N256 H262 0.984 . S
N256 H263 0.984 . S
N257 C250 1.356 . S
N257 H260 0.984 . S
N257 H261 0.985 . S
H258 N253 0.984 . S
H259 N253 0.985 . S
H260 N257 0.984 . S
H261 N257 0.985 . S
H262 N256 0.984 . S
H263 N256 0.984 . S
H264 N252 0.984 . S
H265 N252 0.985 . S
C266 C267 1.363 . S
C266 C272 1.379 . S
C266 N274 1.356 1_545 S
C267 C266 1.363 . S
C267 C273 1.363 . S
C268 C269 1.363 . S
C268 C273 1.379 . S
C268 N275 1.356 . S
C269 C268 1.363 . S
C269 C272 1.363 . S
N270 C272 1.356 . S
N270 H282 0.984 . S
N270 H283 0.985 . S
N271 C273 1.356 . S
N271 H276 0.984 . S
N271 H277 0.985 . S
C272 C266 1.379 . S
C272 C269 1.363 . S
C272 N270 1.356 . S
C273 C267 1.363 . S
C273 C268 1.379 . S
C273 N271 1.356 . S
N274 C266 1.356 1_565 S
N274 H280 0.984 . S
N274 H281 0.984 . S
N275 C268 1.356 . S
N275 H278 0.984 . S
N275 H279 0.985 . S
H276 N271 0.984 . S
H277 N271 0.985 . S
H278 N275 0.984 . S
H279 N275 0.985 . S
H280 N274 0.984 . S
H281 N274 0.984 . S
H282 N270 0.984 . S
H283 N270 0.985 . S
C284 C285 1.363 . S
C284 C290 1.379 . S
C284 N292 1.356 . S
C285 C284 1.363 . S
C285 C291 1.363 . S
C286 C287 1.363 . S
C286 C291 1.379 . S
C286 N293 1.356 . S
C287 C286 1.363 . S
C287 C290 1.363 . S
N288 C290 1.356 . S
N288 H300 0.984 . S
N288 H301 0.985 . S
N289 C291 1.356 . S
N289 H294 0.984 . S
N289 H295 0.985 . S
C290 C284 1.379 . S
C290 C287 1.363 . S
C290 N288 1.356 . S
C291 C285 1.363 . S
C291 C286 1.379 . S
C291 N289 1.356 . S
N292 C284 1.356 . S
N292 H298 0.984 . S
N292 H299 0.984 . S
N293 C286 1.356 . S
N293 H296 0.984 . S
N293 H297 0.985 . S
H294 N289 0.984 . S
H295 N289 0.985 . S
H296 N293 0.984 . S
H297 N293 0.985 . S
H298 N292 0.984 . S
H299 N292 0.984 . S
H300 N288 0.984 . S
H301 N288 0.985 . S
C302 C303 1.363 . S
C302 C308 1.379 . S
C302 N310 1.356 1_565 S
C303 C302 1.363 . S
C303 C309 1.363 . S
C304 C305 1.363 . S
C304 C309 1.379 . S
C304 N311 1.356 . S
C305 C304 1.363 . S
C305 C308 1.363 . S
N306 C308 1.356 . S
N306 H318 0.984 . S
N306 H319 0.985 . S
N307 C309 1.356 . S
N307 H312 0.984 . S
N307 H313 0.985 . S
C308 C302 1.379 . S
C308 C305 1.363 . S
C308 N306 1.356 . S
C309 C303 1.363 . S
C309 C304 1.379 . S
C309 N307 1.356 . S
N310 C302 1.356 1_545 S
N310 H316 0.984 . S
N310 H317 0.984 . S
N311 C304 1.356 . S
N311 H314 0.984 . S
N311 H315 0.985 . S
H312 N307 0.984 . S
H313 N307 0.985 . S
H314 N311 0.984 . S
H315 N311 0.985 . S
H316 N310 0.984 . S
H317 N310 0.984 . S
H318 N306 0.984 . S
H319 N306 0.985 . S
C320 C321 1.363 . S
C320 C326 1.379 . S
C320 N328 1.356 . S
C321 C320 1.363 . S
C321 C327 1.363 . S
C322 C323 1.363 . S
C322 C327 1.379 . S
C322 N329 1.356 . S
C323 C322 1.363 . S
C323 C326 1.363 . S
N324 C326 1.356 . S
N324 H336 0.984 . S
N324 H337 0.985 . S
N325 C327 1.356 . S
N325 H330 0.984 . S
N325 H331 0.985 . S
C326 C320 1.379 . S
C326 C323 1.363 . S
C326 N324 1.356 . S
C327 C321 1.363 . S
C327 C322 1.379 . S
C327 N325 1.356 . S
N328 C320 1.356 . S
N328 H334 0.984 . S
N328 H335 0.984 . S
N329 C322 1.356 . S
N329 H332 0.984 . S
N329 H333 0.985 . S
H330 N325 0.984 . S
H331 N325 0.985 . S
H332 N329 0.984 . S
H333 N329 0.985 . S
H334 N328 0.984 . S
H335 N328 0.984 . S
H336 N324 0.984 . S
H337 N324 0.985 . S
C338 C339 1.363 . S
C338 C344 1.379 . S
C338 N346 1.356 . S
C339 C338 1.363 . S
C339 C345 1.363 . S
C340 C341 1.363 . S
C340 C345 1.379 . S
C340 N347 1.356 . S
C341 C340 1.363 . S
C341 C344 1.363 . S
N342 C344 1.356 . S
N342 H354 0.984 . S
N342 H355 0.985 . S
N343 C345 1.356 . S
N343 H348 0.984 . S
N343 H349 0.985 . S
C344 C338 1.379 . S
C344 C341 1.363 . S
C344 N342 1.356 . S
C345 C339 1.363 . S
C345 C340 1.379 . S
C345 N343 1.356 . S
N346 C338 1.356 . S
N346 H352 0.984 . S
N346 H353 0.984 . S
N347 C340 1.356 . S
N347 H350 0.984 . S
N347 H351 0.985 . S
H348 N343 0.984 . S
H349 N343 0.985 . S
H350 N347 0.984 . S
H351 N347 0.985 . S
H352 N346 0.984 . S
H353 N346 0.984 . S
H354 N342 0.984 . S
H355 N342 0.985 . S
C356 C357 1.363 . S
C356 C362 1.379 . S
C356 N364 1.356 . S
C357 C356 1.363 . S
C357 C363 1.363 . S
C358 C359 1.363 . S
C358 C363 1.379 . S
C358 N365 1.356 . S
C359 C358 1.363 . S
C359 C362 1.363 . S
N360 C362 1.356 . S
N360 H372 0.984 . S
N360 H373 0.985 . S
N361 C363 1.356 . S
N361 H366 0.984 . S
N361 H367 0.985 . S
C362 C356 1.379 . S
C362 C359 1.363 . S
C362 N360 1.356 . S
C363 C357 1.363 . S
C363 C358 1.379 . S
C363 N361 1.356 . S
N364 C356 1.356 . S
N364 H370 0.984 . S
N364 H371 0.984 . S
N365 C358 1.356 . S
N365 H368 0.984 . S
N365 H369 0.985 . S
H366 N361 0.984 . S
H367 N361 0.985 . S
H368 N365 0.984 . S
H369 N365 0.985 . S
H370 N364 0.984 . S
H371 N364 0.984 . S
H372 N360 0.984 . S
H373 N360 0.985 . S
C374 C375 1.363 . S
C374 C380 1.379 . S
C374 N382 1.356 . S
C375 C374 1.363 . S
C375 C381 1.363 . S
C376 C377 1.363 . S
C376 C381 1.379 . S
C376 N383 1.356 . S
C377 C376 1.363 . S
C377 C380 1.363 . S
N378 C380 1.356 . S
N378 H390 0.984 . S
N378 H391 0.985 . S
N379 C381 1.356 . S
N379 H384 0.984 . S
N379 H385 0.985 . S
C380 C374 1.379 . S
C380 C377 1.363 . S
C380 N378 1.356 . S
C381 C375 1.363 . S
C381 C376 1.379 . S
C381 N379 1.356 . S
N382 C374 1.356 . S
N382 H388 0.984 . S
N382 H389 0.984 . S
N383 C376 1.356 . S
N383 H386 0.984 . S
N383 H387 0.985 . S
H384 N379 0.984 . S
H385 N379 0.985 . S
H386 N383 0.984 . S
H387 N383 0.985 . S
H388 N382 0.984 . S
H389 N382 0.984 . S
H390 N378 0.984 . S
H391 N378 0.985 . S
C392 C393 1.363 . S
C392 C398 1.379 1_455 S
C392 N400 1.356 . S
C393 C392 1.363 . S
C393 C399 1.363 . S
C394 C395 1.363 . S
C394 C399 1.379 1_655 S
C394 N401 1.356 . S
C395 C394 1.363 . S
C395 C398 1.363 . S
N396 C398 1.356 . S
N396 H408 0.984 . S
N396 H409 0.985 . S
N397 C399 1.356 . S
N397 H402 0.984 . S
N397 H403 0.985 . S
C398 C392 1.379 1_655 S
C398 C395 1.363 . S
C398 N396 1.356 . S
C399 C393 1.363 . S
C399 C394 1.379 1_455 S
C399 N397 1.356 . S
N400 C392 1.356 . S
N400 H406 0.984 . S
N400 H407 0.984 . S
N401 C394 1.356 . S
N401 H404 0.984 . S
N401 H405 0.985 . S
H402 N397 0.984 . S
H403 N397 0.985 . S
H404 N401 0.984 . S
H405 N401 0.985 . S
H406 N400 0.984 . S
H407 N400 0.984 . S
H408 N396 0.984 . S
H409 N396 0.985 . S
C410 C411 1.363 . S
C410 C416 1.379 1_455 S
C410 N418 1.356 . S
C411 C410 1.363 . S
C411 C417 1.363 . S
C412 C413 1.363 . S
C412 C417 1.379 1_655 S
C412 N419 1.356 . S
C413 C412 1.363 . S
C413 C416 1.363 . S
N414 C416 1.356 . S
N414 H426 0.984 . S
N414 H427 0.985 . S
N415 C417 1.356 . S
N415 H420 0.984 . S
N415 H421 0.985 . S
C416 C410 1.379 1_655 S
C416 C413 1.363 . S
C416 N414 1.356 . S
C417 C411 1.363 . S
C417 C412 1.379 1_455 S
C417 N415 1.356 . S
N418 C410 1.356 . S
N418 H424 0.984 . S
N418 H425 0.984 . S
N419 C412 1.356 . S
N419 H422 0.984 . S
N419 H423 0.985 . S
H420 N415 0.984 . S
H421 N415 0.985 . S
H422 N419 0.984 . S
H423 N419 0.985 . S
H424 N418 0.984 . S
H425 N418 0.984 . S
H426 N414 0.984 . S
H427 N414 0.985 . S
C428 C429 1.363 . S
C428 C434 1.379 . S
C428 N436 1.356 . S
C429 C428 1.363 . S
C429 C435 1.363 . S
C430 C431 1.363 . S
C430 C435 1.379 . S
C430 N437 1.356 . S
C431 C430 1.363 . S
C431 C434 1.363 . S
N432 C434 1.356 . S
N432 H444 0.984 . S
N432 H445 0.985 . S
N433 C435 1.356 . S
N433 H438 0.984 . S
N433 H439 0.985 . S
C434 C428 1.379 . S
C434 C431 1.363 . S
C434 N432 1.356 . S
C435 C429 1.363 . S
C435 C430 1.379 . S
C435 N433 1.356 . S
N436 C428 1.356 . S
N436 H442 0.984 . S
N436 H443 0.984 . S
N437 C430 1.356 . S
N437 H440 0.984 . S
N437 H441 0.985 . S
H438 N433 0.984 . S
H439 N433 0.985 . S
H440 N437 0.984 . S
H441 N437 0.985 . S
H442 N436 0.984 . S
H443 N436 0.984 . S
H444 N432 0.984 . S
H445 N432 0.985 . S
C446 C447 1.363 . S
C446 C452 1.379 . S
C446 N454 1.356 . S
C447 C446 1.363 . S
C447 C453 1.363 . S
C448 C449 1.363 . S
C448 C453 1.379 . S
C448 N455 1.356 . S
C449 C448 1.363 . S
C449 C452 1.363 . S
N450 C452 1.356 . S
N450 H462 0.984 . S
N450 H463 0.985 . S
N451 C453 1.356 . S
N451 H456 0.984 . S
N451 H457 0.985 . S
C452 C446 1.379 . S
C452 C449 1.363 . S
C452 N450 1.356 . S
C453 C447 1.363 . S
C453 C448 1.379 . S
C453 N451 1.356 . S
N454 C446 1.356 . S
N454 H460 0.984 . S
N454 H461 0.984 . S
N455 C448 1.356 . S
N455 H458 0.984 . S
N455 H459 0.985 . S
H456 N451 0.984 . S
H457 N451 0.985 . S
H458 N455 0.984 . S
H459 N455 0.985 . S
H460 N454 0.984 . S
H461 N454 0.984 . S
H462 N450 0.984 . S
H463 N450 0.985 . S
C464 C465 1.363 . S
C464 C470 1.379 1_556 S
C464 N472 1.356 . S
C465 C464 1.363 . S
C465 C471 1.363 1_556 S
C466 C467 1.363 . S
C466 C471 1.379 . S
C466 N473 1.356 . S
C467 C466 1.363 . S
C467 C470 1.363 . S
N468 C470 1.356 . S
N468 H480 0.984 . S
N468 H481 0.985 . S
N469 C471 1.356 1_556 S
N469 H474 0.984 . S
N469 H475 0.985 1_556 S
C470 C464 1.379 1_554 S
C470 C467 1.363 . S
C470 N468 1.356 . S
C471 C465 1.363 1_554 S
C471 C466 1.379 . S
C471 N469 1.356 1_554 S
N472 C464 1.356 . S
N472 H478 0.984 . S
N472 H479 0.984 . S
N473 C466 1.356 . S
N473 H476 0.984 . S
N473 H477 0.985 . S
H474 N469 0.984 . S
H475 N469 0.985 1_554 S
H476 N473 0.984 . S
H477 N473 0.985 . S
H478 N472 0.984 . S
H479 N472 0.984 . S
H480 N468 0.984 . S
H481 N468 0.985 . S
C482 C483 1.363 . S
C482 C488 1.379 . S
C482 N490 1.356 . S
C483 C482 1.363 . S
C483 C489 1.363 . S
C484 C485 1.363 . S
C484 C489 1.379 . S
C484 N491 1.356 . S
C485 C484 1.363 . S
C485 C488 1.363 . S
N486 C488 1.356 . S
N486 H498 0.984 . S
N486 H499 0.985 . S
N487 C489 1.356 . S
N487 H492 0.984 . S
N487 H493 0.985 . S
C488 C482 1.379 . S
C488 C485 1.363 . S
C488 N486 1.356 . S
C489 C483 1.363 . S
C489 C484 1.379 . S
C489 N487 1.356 . S
N490 C482 1.356 . S
N490 H496 0.984 . S
N490 H497 0.984 . S
N491 C484 1.356 . S
N491 H494 0.984 . S
N491 H495 0.985 . S
H492 N487 0.984 . S
H493 N487 0.985 . S
H494 N491 0.984 . S
H495 N491 0.985 . S
H496 N490 0.984 . S
H497 N490 0.984 . S
H498 N486 0.984 . S
H499 N486 0.985 . S
C500 C501 1.363 . S
C500 C506 1.379 1_556 S
C500 N508 1.356 . S
C501 C500 1.363 . S
C501 C507 1.363 . S
C502 C503 1.363 1_556 S
C502 C507 1.379 . S
C502 N509 1.356 1_556 S
C503 C502 1.363 1_554 S
C503 C506 1.363 . S
N504 C506 1.356 . S
N504 H516 0.984 . S
N504 H517 0.985 . S
N505 C507 1.356 . S
N505 H510 0.984 . S
N505 H511 0.985 . S
C506 C500 1.379 1_554 S
C506 C503 1.363 . S
C506 N504 1.356 . S
C507 C501 1.363 . S
C507 C502 1.379 . S
C507 N505 1.356 . S
N508 C500 1.356 . S
N508 H514 0.984 . S
N508 H515 0.984 . S
N509 C502 1.356 1_554 S
N509 H512 0.984 . S
N509 H513 0.985 1_554 S
H510 N505 0.984 . S
H511 N505 0.985 . S
H512 N509 0.984 . S
H513 N509 0.985 1_556 S
H514 N508 0.984 . S
H515 N508 0.984 . S
H516 N504 0.984 . S
H517 N504 0.985 . S
C518 C519 1.363 . S
C518 C524 1.379 . S
C518 N526 1.356 . S
C519 C518 1.363 . S
C519 C525 1.363 . S
C520 C521 1.363 . S
C520 C525 1.379 . S
C520 N527 1.356 . S
C521 C520 1.363 . S
C521 C524 1.363 . S
N522 C524 1.356 . S
N522 H534 0.984 . S
N522 H535 0.985 . S
N523 C525 1.356 . S
N523 H528 0.984 . S
N523 H529 0.985 . S
C524 C518 1.379 . S
C524 C521 1.363 . S
C524 N522 1.356 . S
C525 C519 1.363 . S
C525 C520 1.379 . S
C525 N523 1.356 . S
N526 C518 1.356 . S
N526 H532 0.984 . S
N526 H533 0.984 . S
N527 C520 1.356 . S
N527 H530 0.984 . S
N527 H531 0.985 . S
H528 N523 0.984 . S
H529 N523 0.985 . S
H530 N527 0.984 . S
H531 N527 0.985 . S
H532 N526 0.984 . S
H533 N526 0.984 . S
H534 N522 0.984 . S
H535 N522 0.985 . S
C536 C537 1.363 1_564 S
C536 C542 1.379 . S
C536 N544 1.356 1_564 S
C537 C536 1.363 1_546 S
C537 C543 1.364 . S
C538 C539 1.363 . S
C538 C543 1.375 1_564 S
C538 N545 1.356 . S
C539 C538 1.363 . S
C539 C542 1.363 . S
N540 C542 1.356 . S
N540 H552 0.984 . S
N540 H553 0.985 . S
N541 C543 1.359 . S
N541 H546 0.984 . S
N541 H547 0.985 . S
C542 C536 1.379 . S
C542 C539 1.363 . S
C542 N540 1.356 . S
C543 C537 1.364 . S
C543 C538 1.375 1_546 S
C543 N541 1.359 . S
N544 C536 1.356 1_546 S
N544 H550 0.984 . S
N544 H551 0.984 . S
N545 C538 1.356 . S
N545 H548 0.984 . S
N545 H549 0.985 . S
H546 N541 0.984 . S
H547 N541 0.985 . S
H548 N545 0.984 . S
H549 N545 0.985 . S
H550 N544 0.984 . S
H551 N544 0.984 . S
H552 N540 0.984 . S
H553 N540 0.985 . S
C554 C555 1.363 1_565 S
C554 C560 1.379 . S
C554 N562 1.356 . S
C555 C554 1.363 1_545 S
C555 C561 1.363 . S
C556 C557 1.368 . S
C556 C561 1.375 1_565 S
C556 N563 1.357 . S
C557 C556 1.368 . S
C557 C560 1.363 . S
N558 C560 1.356 . S
N558 H570 0.984 . S
N558 H571 0.985 . S
N559 C561 1.356 . S
N559 H564 0.984 . S
N559 H565 0.985 . S
C560 C554 1.379 . S
C560 C557 1.363 . S
C560 N558 1.356 . S
C561 C555 1.363 . S
C561 C556 1.375 1_545 S
C561 N559 1.356 . S
N562 C554 1.356 . S
N562 H568 0.984 . S
N562 H569 0.984 1_565 S
N563 C556 1.357 . S
N563 H566 0.984 . S
N563 H567 0.985 1_565 S
H564 N559 0.984 . S
H565 N559 0.985 . S
H566 N563 0.984 . S
H567 N563 0.985 1_545 S
H568 N562 0.984 . S
H569 N562 0.984 1_545 S
H570 N558 0.984 . S
H571 N558 0.985 . S
C572 C573 1.363 1_545 S
C572 C578 1.379 1_554 S
C572 N580 1.356 . S
C573 C572 1.363 1_565 S
C573 C579 1.363 1_554 S
C574 C575 1.363 1_565 S
C574 C579 1.379 . S
C574 N581 1.356 . S
C575 C574 1.363 1_545 S
C575 C578 1.363 . S
N576 C578 1.356 . S
N576 H588 0.984 . S
N576 H589 0.985 . S
N577 C579 1.356 . S
N577 H582 0.984 1_556 S
N577 H583 0.985 . S
C578 C572 1.379 1_556 S
C578 C575 1.363 . S
C578 N576 1.356 . S
C579 C573 1.363 1_556 S
C579 C574 1.379 . S
C579 N577 1.356 . S
N580 C572 1.356 . S
N580 H586 0.984 . S
N580 H587 0.984 . S
N581 C574 1.356 . S
N581 H584 0.984 1_565 S
N581 H585 0.985 . S
H582 N577 0.984 1_554 S
H583 N577 0.985 . S
H584 N581 0.984 1_545 S
H585 N581 0.985 . S
H586 N580 0.984 . S
H587 N580 0.984 . S
H588 N576 0.984 . S
H589 N576 0.985 . S
C590 C591 1.363 . S
C590 C596 1.379 . S
C590 N598 1.356 . S
C591 C590 1.363 . S
C591 C597 1.375 . S
C592 C593 1.363 . S
C592 C597 1.370 1_565 S
C592 N599 1.356 . S
C593 C592 1.363 . S
C593 C596 1.363 1_565 S
N594 C596 1.356 . S
N594 H606 0.984 . S
N594 H607 0.985 1_545 S
N595 C597 1.357 . S
N595 H600 0.984 . S
N595 H601 0.985 1_545 S
C596 C590 1.379 . S
C596 C593 1.363 1_545 S
C596 N594 1.356 . S
C597 C591 1.375 . S
C597 C592 1.370 1_545 S
C597 N595 1.357 . S
N598 C590 1.356 . S
N598 H604 0.984 . S
N598 H605 0.984 . S
N599 C592 1.356 . S
N599 H602 0.984 . S
N599 H603 0.985 . S
H600 N595 0.984 . S
H601 N595 0.985 1_565 S
H602 N599 0.984 . S
H603 N599 0.985 . S
H604 N598 0.984 . S
H605 N598 0.984 . S
H606 N594 0.984 . S
H607 N594 0.985 1_565 S
C177 C139 1.281 . S
C179 C15 1.265 . S
C195 C175 1.281 . S
C197 C37 1.265 . S
C213 C103 1.265 . S
C215 C51 1.281 . S
C231 C125 1.265 . S
C233 C81 1.281 . S
C249 C131 1.652 . S
C251 C10 1.581 . S
C267 C109 1.652 . S
C269 C32 1.581 . S
C285 C62 1.596 . S
C287 C169 1.660 . S
C303 C153 1.660 . S
C305 C76 1.596 . S
C321 C43 1.652 . S
C323 C98 1.581 . S
C339 C120 1.581 . S
C341 C21 1.652 . S
C357 C150 1.596 . S
C359 C73 1.660 . S
C375 C65 1.660 . S
C377 C162 1.596 . S
C393 C18 1.460 . S
C395 C40 1.460 . S
C411 C74 1.459 . S
C413 C54 1.459 . S
C429 C128 1.460 . S
C431 C106 1.460 . S
C447 C172 1.459 . S
C449 C142 1.459 . S
C465 C87 1.508 . S
C467 C8 1.495 . S
C483 C30 1.495 . S
C485 C59 1.508 . S
C501 C52 1.505 . S
C503 C29 1.508 . S
C519 C7 1.508 . S
C521 C84 1.505 . S
C537 C161 1.508 . S
C539 C96 1.495 . S
C555 C147 1.508 . S
C557 C118 1.495 . S
C573 C117 1.508 . S
C575 C140 1.505 . S
C591 C164 1.505 . S
C593 C95 1.508 . S
