# Generated by pormake.
# Topology mmt, (4)-cn, num edge types: 1
# Building blocks:
#     Node 0, Type 0, BuildingBlock: GALJAG_clean_sbu_0, # of connection points: 4
#     Node 1, Type 0, BuildingBlock: GALJAG_clean_sbu_0, # of connection points: 4
#     Node 2, Type 0, BuildingBlock: GALJAG_clean_sbu_0, # of connection points: 4
#     Node 3, Type 0, BuildingBlock: GALJAG_clean_sbu_0, # of connection points: 4
#     Node 4, Type 0, BuildingBlock: GALJAG_clean_sbu_0, # of connection points: 4
#     Node 5, Type 0, BuildingBlock: GALJAG_clean_sbu_0, # of connection points: 4
#     Node 6, Type 0, BuildingBlock: GALJAG_clean_sbu_0, # of connection points: 4
#     Node 7, Type 0, BuildingBlock: GALJAG_clean_sbu_0, # of connection points: 4
#     Edge 8, Type (0, 0), BuildingBlock: UVAHIK_clean_linker_0, # of connection points: 2
#     Edge 9, Type (0, 0), BuildingBlock: UVAHIK_clean_linker_0, # of connection points: 2
#     Edge 10, Type (0, 0), BuildingBlock: UVAHIK_clean_linker_0, # of connection points: 2
#     Edge 11, Type (0, 0), BuildingBlock: UVAHIK_clean_linker_0, # of connection points: 2
#     Edge 12, Type (0, 0), BuildingBlock: UVAHIK_clean_linker_0, # of connection points: 2
#     Edge 13, Type (0, 0), BuildingBlock: UVAHIK_clean_linker_0, # of connection points: 2
#     Edge 14, Type (0, 0), BuildingBlock: UVAHIK_clean_linker_0, # of connection points: 2
#     Edge 15, Type (0, 0), BuildingBlock: UVAHIK_clean_linker_0, # of connection points: 2
#     Edge 16, Type (0, 0), BuildingBlock: UVAHIK_clean_linker_0, # of connection points: 2
#     Edge 17, Type (0, 0), BuildingBlock: UVAHIK_clean_linker_0, # of connection points: 2
#     Edge 18, Type (0, 0), BuildingBlock: UVAHIK_clean_linker_0, # of connection points: 2
#     Edge 19, Type (0, 0), BuildingBlock: UVAHIK_clean_linker_0, # of connection points: 2
#     Edge 20, Type (0, 0), BuildingBlock: UVAHIK_clean_linker_0, # of connection points: 2
#     Edge 21, Type (0, 0), BuildingBlock: UVAHIK_clean_linker_0, # of connection points: 2
#     Edge 22, Type (0, 0), BuildingBlock: UVAHIK_clean_linker_0, # of connection points: 2
#     Edge 23, Type (0, 0), BuildingBlock: UVAHIK_clean_linker_0, # of connection points: 2
# Relax obj value: 0.016
# Max RMSD: 0.061
# Mean RMSD: 0.061
data_MOF--net-mmt--node1-GALJAG_clean_sbu_0--edge1-UVAHIK_clean_linker_0
_symmetry_space_group_name_H-M    P1
_symmetry_Int_Tables_number       1
_symmetry_cell_setting            triclinic
loop_
_symmetry_equiv_pos_as_xyz
'x, y, z'
_cell_length_a     32.327135
_cell_length_b     47.816969
_cell_length_c     53.235787
_cell_angle_alpha  89.891989
_cell_angle_beta   89.994888
_cell_angle_gamma 90.012804
loop_
_atom_site_label
_atom_site_type_symbol
_atom_site_fract_x
_atom_site_fract_y
_atom_site_fract_z
_atom_type_partial_charge
In0 In 0.1166 0.55984 0.33559 0.0
O1 O 0.16523 0.52503 0.33204 0.0
O2 O 0.17092 0.5606 0.30844 0.0
C3 C 0.08641 0.54535 0.3811 0.0
C4 C 0.14199 0.61315 0.34165 0.0
C5 C 0.05426 0.54543 0.30428 0.0
O6 O 0.12093 0.5368 0.37312 0.0
O7 O 0.06751 0.56154 0.36631 0.0
O8 O 0.06113 0.57036 0.31069 0.0
O9 O 0.07904 0.5278 0.31344 0.0
C10 C 0.18564 0.53739 0.31514 0.0
O11 O 0.12142 0.60512 0.32286 0.0
O12 O 0.149 0.59438 0.35782 0.0
In13 In 0.3739 0.93358 0.33748 0.0
O14 O 0.31031 0.95423 0.34208 0.0
O15 O 0.33714 0.95355 0.30574 0.0
C16 C 0.40455 0.94906 0.38238 0.0
C17 C 0.34484 0.88056 0.33952 0.0
C18 C 0.44106 0.94592 0.30946 0.0
O19 O 0.37596 0.96244 0.3715 0.0
O20 O 0.41729 0.92778 0.37069 0.0
O21 O 0.42869 0.92109 0.31254 0.0
O22 O 0.41955 0.96422 0.32039 0.0
C23 C 0.30675 0.96048 0.31915 0.0
O24 O 0.35446 0.89239 0.31917 0.0
O25 O 0.35066 0.89521 0.35884 0.0
In26 In 0.6165 0.43196 0.15838 0.0
O27 O 0.62429 0.38694 0.17131 0.0
O28 O 0.64576 0.39732 0.13471 0.0
C29 C 0.5543 0.44594 0.18995 0.0
C30 C 0.68616 0.45413 0.17834 0.0
C31 C 0.58596 0.44733 0.11327 0.0
O32 O 0.56083 0.42112 0.18308 0.0
O33 O 0.57935 0.46361 0.18116 0.0
O34 O 0.62062 0.45568 0.12122 0.0
O35 O 0.5671 0.43089 0.12789 0.0
C36 C 0.64184 0.37879 0.15146 0.0
O37 O 0.66543 0.46667 0.16169 0.0
O38 O 0.67149 0.43088 0.18498 0.0
In39 In 0.87539 0.06021 0.15987 0.0
O40 O 0.82509 0.02639 0.16225 0.0
O41 O 0.8248 0.05881 0.18944 0.0
C42 C 0.90604 0.04473 0.11484 0.0
C43 C 0.84539 0.11231 0.15288 0.0
C44 C 0.93973 0.04849 0.19067 0.0
O45 O 0.87527 0.0328 0.12479 0.0
O46 O 0.921 0.06459 0.12749 0.0
O47 O 0.93319 0.07257 0.18189 0.0
O48 O 0.91376 0.03029 0.18401 0.0
C49 C 0.80776 0.03697 0.18124 0.0
O50 O 0.86582 0.10525 0.17204 0.0
O51 O 0.84057 0.09317 0.13684 0.0
In52 In 0.87612 0.43395 0.65833 0.0
O53 O 0.87205 0.38843 0.67045 0.0
O54 O 0.84317 0.39974 0.63601 0.0
C55 C 0.93958 0.44881 0.68858 0.0
C56 C 0.80786 0.4562 0.67992 0.0
C57 C 0.90556 0.44823 0.61263 0.0
O58 O 0.93109 0.42366 0.68375 0.0
O59 O 0.91577 0.46641 0.67846 0.0
O60 O 0.87132 0.45703 0.62085 0.0
O61 O 0.9245 0.43187 0.62727 0.0
C62 C 0.85092 0.3807 0.65179 0.0
O63 O 0.82682 0.46829 0.66227 0.0
O64 O 0.82359 0.43334 0.68675 0.0
In65 In 0.61973 0.0605 0.65776 0.0
O66 O 0.68152 0.03699 0.65541 0.0
O67 O 0.65776 0.04706 0.69145 0.0
C68 C 0.58885 0.04313 0.61346 0.0
C69 C 0.6493 0.1132 0.65355 0.0
C70 C 0.55319 0.04793 0.68614 0.0
O71 O 0.61719 0.03003 0.62483 0.0
O72 O 0.57654 0.06504 0.62433 0.0
O73 O 0.56122 0.07266 0.67933 0.0
O74 O 0.57862 0.02978 0.67861 0.0
C75 C 0.68647 0.03603 0.67892 0.0
O76 O 0.63382 0.10383 0.6736 0.0
O77 O 0.64913 0.09624 0.63548 0.0
In78 In 0.37628 0.56197 0.83709 0.0
O79 O 0.32542 0.52856 0.83374 0.0
O80 O 0.32658 0.56147 0.80698 0.0
C81 C 0.40534 0.54704 0.88266 0.0
C82 C 0.34899 0.61482 0.8434 0.0
C83 C 0.44054 0.54749 0.80735 0.0
O84 O 0.37187 0.53756 0.87388 0.0
O85 O 0.42368 0.56438 0.86864 0.0
O86 O 0.43312 0.57249 0.81334 0.0
O87 O 0.41544 0.52986 0.81619 0.0
C88 C 0.30887 0.53964 0.8147 0.0
O89 O 0.36999 0.60728 0.82463 0.0
O90 O 0.34259 0.59585 0.85946 0.0
In91 In 0.11957 0.93569 0.83807 0.0
O92 O 0.18103 0.95967 0.84001 0.0
O93 O 0.15785 0.94824 0.80417 0.0
C94 C 0.08871 0.95242 0.88262 0.0
C95 C 0.14831 0.88278 0.84212 0.0
C96 C 0.05328 0.94893 0.80973 0.0
O97 O 0.11705 0.96566 0.87139 0.0
O98 O 0.07635 0.93069 0.87147 0.0
O99 O 0.06114 0.92409 0.81627 0.0
O100 O 0.07872 0.96692 0.81755 0.0
C101 C 0.18622 0.95993 0.81651 0.0
O102 O 0.13086 0.89187 0.82258 0.0
O103 O 0.15076 0.9002 0.85979 0.0
C104 C 0.24962 0.54351 0.28959 0.0
C105 C 0.22434 0.5262 0.30441 0.0
C106 C 0.28668 0.53343 0.27971 0.0
C107 C 0.33901 0.46995 0.25982 0.0
H108 H 0.43843 0.51493 0.26538 0.0
C109 C 0.49476 0.43335 0.21786 0.0
C110 C 0.51908 0.45389 0.20609 0.0
C111 C 0.46037 0.44095 0.23225 0.0
C112 C 0.4109 0.50222 0.2634 0.0
H113 H 0.21775 0.48468 0.32034 0.0
H114 H 0.28252 0.4668 0.30251 0.0
H115 H 0.37489 0.53044 0.28567 0.0
H116 H 0.52669 0.49845 0.2002 0.0
H117 H 0.46619 0.51171 0.22457 0.0
H118 H 0.37433 0.44226 0.23675 0.0
C119 C 0.27359 0.48824 0.29875 0.0
C120 C 0.37458 0.51107 0.27514 0.0
C121 C 0.23668 0.49848 0.30898 0.0
C122 C 0.50866 0.48216 0.20919 0.0
C123 C 0.47407 0.48975 0.22333 0.0
C124 C 0.37524 0.46124 0.2478 0.0
C125 C 0.29903 0.50571 0.28415 0.0
C126 C 0.33817 0.4952 0.27322 0.0
C127 C 0.44933 0.46926 0.23497 0.0
C128 C 0.41154 0.47746 0.24917 0.0
H129 H 0.24095 0.56499 0.28578 0.0
H130 H 0.30548 0.54724 0.26827 0.0
H131 H 0.31125 0.45745 0.25788 0.0
H132 H 0.50223 0.41138 0.21589 0.0
H133 H 0.44248 0.42462 0.24125 0.0
C134 C 0.98244 0.01453 0.21528 0.0
C135 C 0.97552 0.04199 0.20689 0.0
C136 C 0.01721 0.00817 0.2298 0.0
C137 C 0.12215 0.0338 0.24365 0.0
H138 H 0.11718 0.97913 0.29747 0.0
C139 C 0.26723 0.97934 0.28261 0.0
C140 C 0.26935 0.97365 0.30847 0.0
C141 C 0.23118 0.99026 0.27203 0.0
C142 C 0.11904 0.99471 0.28271 0.0
H143 H -0.00102 0.08446 0.20757 0.0
H144 H 0.05949 0.07343 0.23313 0.0
H145 H 0.05367 0.99349 0.27634 0.0
H146 H 0.23574 0.97549 0.34366 0.0
H147 H 0.17266 0.99488 0.32518 0.0
H148 H 0.18745 0.03512 0.25007 0.0
C149 C 0.03839 0.05672 0.22821 0.0
C150 C 0.0827 0.00267 0.2704 0.0
C151 C 0.00363 0.06307 0.21367 0.0
C152 C 0.23494 0.97962 0.32365 0.0
C153 C 0.19878 0.99056 0.31305 0.0
C154 C 0.15845 0.02584 0.25596 0.0
C155 C 0.04579 0.02915 0.23626 0.0
C156 C 0.08391 0.02203 0.2505 0.0
C157 C 0.19639 0.99578 0.28707 0.0
C158 C 0.15741 0.00591 0.27539 0.0
H159 H 0.96133 -0.00216 0.21032 0.0
H160 H 0.02226 0.98665 0.2354 0.0
H161 H 0.12427 0.04858 0.22827 0.0
H162 H 0.29322 0.97489 0.27041 0.0
H163 H 0.23022 0.99364 0.25192 0.0
C164 C 0.75043 0.44775 0.20354 0.0
C165 C 0.72502 0.46521 0.18895 0.0
C166 C 0.78748 0.45777 0.21349 0.0
C167 C 0.83942 0.52125 0.23394 0.0
H168 H 0.93893 0.47634 0.22866 0.0
C169 C 0.99488 0.55789 0.27625 0.0
C170 C 0.01906 0.53739 0.28816 0.0
C171 C 0.96056 0.55026 0.26182 0.0
C172 C 0.91136 0.48902 0.23056 0.0
H173 H 0.71824 0.5069 0.17344 0.0
H174 H 0.78302 0.52467 0.19135 0.0
H175 H 0.87564 0.4609 0.20802 0.0
H176 H 0.02651 0.49286 0.29426 0.0
H177 H 0.96615 0.47952 0.26975 0.0
H178 H 0.87449 0.54886 0.25724 0.0
C179 C 0.77419 0.50317 0.1949 0.0
C180 C 0.87518 0.48022 0.21862 0.0
C181 C 0.73727 0.493 0.18462 0.0
C182 C 0.00858 0.50911 0.28517 0.0
C183 C 0.97408 0.50148 0.27095 0.0
C184 C 0.87551 0.52993 0.24614 0.0
C185 C 0.79971 0.48557 0.20933 0.0
C186 C 0.83875 0.49606 0.22045 0.0
C187 C 0.94948 0.52195 0.25917 0.0
C188 C 0.91182 0.51373 0.24486 0.0
H189 H 0.74182 0.42622 0.20717 0.0
H190 H 0.80632 0.44386 0.22479 0.0
H191 H 0.81163 0.53373 0.23583 0.0
H192 H 0.00238 0.57987 0.27814 0.0
H193 H 0.94277 0.56656 0.25271 0.0
C194 C 0.75456 -0.00098 0.1857 0.0
C195 C 0.76982 0.02541 0.19269 0.0
C196 C 0.7182 0.98857 0.19652 0.0
C197 C 0.62261 0.01171 0.22686 0.0
H198 H 0.61903 0.93802 0.2573 0.0
C199 C 0.49293 0.98081 0.29469 0.0
C200 C 0.47787 0.95329 0.29441 0.0
C201 C 0.52763 0.98816 0.28059 0.0
C202 C 0.61922 0.95846 0.24851 0.0
H203 H 0.75914 0.06153 0.21641 0.0
H204 H 0.69561 0.04348 0.23497 0.0
H205 H 0.68144 0.95329 0.23522 0.0
H206 H 0.4872 0.91181 0.2791 0.0
H207 H 0.54753 0.92477 0.25389 0.0
H208 H 0.56061 0.01703 0.23982 0.0
C209 C 0.71166 0.03088 0.22117 0.0
C210 C 0.65501 0.96719 0.23593 0.0
C211 C 0.74815 0.04112 0.21065 0.0
C212 C 0.49824 0.93319 0.27971 0.0
C213 C 0.53289 0.9406 0.26538 0.0
C214 C 0.58678 0.00292 0.23915 0.0
C215 C 0.69624 0.00456 0.21419 0.0
C216 C 0.65728 0.99413 0.22546 0.0
C217 C 0.54795 0.96822 0.26561 0.0
C218 C 0.58491 0.97642 0.25063 0.0
H219 H 0.77071 0.98647 0.17191 0.0
H220 H 0.70686 0.96825 0.19079 0.0
H221 H 0.62332 0.03242 0.21856 0.0
H222 H 0.47809 0.99673 0.30601 0.0
H223 H 0.53884 0.00946 0.28172 0.0
C224 C 0.4875 0.51112 0.78955 0.0
C225 C 0.47644 0.53938 0.79184 0.0
C226 C 0.52228 0.5034 0.77565 0.0
C227 C 0.62019 0.53194 0.74974 0.0
H228 H 0.62051 0.46192 0.7131 0.0
C229 C 0.75645 0.49476 0.68662 0.0
C230 C 0.76963 0.46726 0.69135 0.0
C231 C 0.71997 0.50486 0.69749 0.0
C232 C 0.62084 0.48151 0.7233 0.0
H233 H 0.49249 0.58172 0.781 0.0
H234 H 0.55257 0.56822 0.75605 0.0
H235 H 0.55744 0.47733 0.73397 0.0
H236 H 0.75501 0.42871 0.71099 0.0
H237 H 0.69118 0.44621 0.72961 0.0
H238 H 0.68371 0.53608 0.73868 0.0
C239 C 0.53503 0.55202 0.76548 0.0
C240 C 0.58479 0.4903 0.73538 0.0
C241 C 0.50045 0.55977 0.77964 0.0
C242 C 0.74565 0.45002 0.70702 0.0
C243 C 0.709 0.45996 0.71756 0.0
C244 C 0.65614 0.52328 0.73738 0.0
C245 C 0.54656 0.52374 0.76344 0.0
C246 C 0.58417 0.5154 0.74913 0.0
C247 C 0.69579 0.48745 0.71292 0.0
C248 C 0.65696 0.49776 0.7244 0.0
H249 H 0.46972 0.49496 0.7989 0.0
H250 H 0.53056 0.48148 0.77494 0.0
H251 H 0.6211 0.55119 0.7604 0.0
H252 H 0.77438 0.50849 0.67461 0.0
H253 H 0.71034 0.52612 0.69357 0.0
C254 C 0.75676 0.01391 0.67675 0.0
C255 C 0.72354 0.02409 0.69107 0.0
C256 C 0.79273 0.00426 0.68858 0.0
C257 C 0.85031 0.01216 0.74776 0.0
H258 H 0.90934 0.9458 0.72624 0.0
C259 C 0.01027 0.98456 0.78753 0.0
C260 C 0.01697 0.95655 0.79436 0.0
C261 C 0.9754 0.9921 0.77364 0.0
C262 C 0.89305 0.9643 0.73252 0.0
H263 H 0.70128 0.03132 0.72895 0.0
H264 H 0.7636 0.01432 0.7495 0.0
H265 H 0.84561 0.95954 0.7047 0.0
H266 H 0.99288 0.91435 0.79162 0.0
H267 H 0.93154 0.92759 0.76751 0.0
H268 H 0.89705 0.01676 0.77581 0.0
C269 C 0.7623 0.01419 0.72917 0.0
C270 C 0.85682 0.97231 0.72004 0.0
C271 C 0.72648 0.02378 0.71739 0.0
C272 C 0.98847 0.93612 0.78664 0.0
C273 C 0.95351 0.94367 0.77271 0.0
C274 C 0.88646 0.00423 0.76015 0.0
C275 C 0.79606 0.00471 0.71492 0.0
C276 C 0.83495 0.99624 0.72765 0.0
C277 C 0.9464 0.9718 0.76628 0.0
C278 C 0.90823 0.9802 0.75272 0.0
H279 H 0.75531 0.01391 0.65642 0.0
H280 H 0.81834 0.99722 0.6771 0.0
H281 H 0.83449 0.03092 0.75387 0.0
H282 H 0.03185 0.00076 0.79307 0.0
H283 H 0.97116 0.01389 0.76865 0.0
C284 C 0.25075 0.54469 0.78435 0.0
C285 C 0.27127 0.52856 0.80252 0.0
C286 C 0.21499 0.53472 0.77278 0.0
C287 C 0.13124 0.48209 0.77934 0.0
H288 H 0.1127 0.50086 0.70932 0.0
C289 C -0.00196 0.43712 0.71761 0.0
C290 C 0.97586 0.45709 0.70366 0.0
C291 C 0.03374 0.44483 0.73075 0.0
C292 C 0.1174 0.4956 0.72892 0.0
H293 H 0.27063 0.48927 0.82285 0.0
H294 H 0.2086 0.47134 0.80206 0.0
H295 H 0.17668 0.51523 0.72964 0.0
H296 H 0.97317 0.50076 0.69275 0.0
H297 H 0.03589 0.51408 0.71533 0.0
H298 H 0.07197 0.46188 0.77817 0.0
C299 C 0.21968 0.492 0.79711 0.0
C300 C 0.15397 0.50391 0.74063 0.0
C301 C 0.25535 0.50216 0.80892 0.0
C302 C 0.98963 0.48494 0.70336 0.0
C303 C 0.0256 0.49253 0.71615 0.0
C304 C 0.09481 0.47344 0.76747 0.0
C305 C 0.19909 0.50817 0.77884 0.0
C306 C 0.16113 0.49768 0.76611 0.0
C307 C 0.04817 0.47251 0.72978 0.0
C308 C 0.08734 0.48049 0.74226 0.0
H309 H 0.26205 0.56525 0.77921 0.0
H310 H 0.19953 0.54808 0.75928 0.0
H311 H 0.13545 0.47717 0.79903 0.0
H312 H 0.98804 0.41551 0.71819 0.0
H313 H 0.05071 0.429 0.74106 0.0
C314 C 0.25583 0.98307 0.81838 0.0
C315 C 0.22309 0.97197 0.80419 0.0
C316 C 0.29155 0.99298 0.80644 0.0
C317 C 0.34989 0.98452 0.74758 0.0
H318 H 0.40693 0.05202 0.76824 0.0
C319 C 0.51013 0.01261 0.70868 0.0
C320 C 0.51665 0.0405 0.7014 0.0
C321 C 0.47501 0.00516 0.72236 0.0
C322 C 0.39119 0.03321 0.76219 0.0
H323 H 0.20142 0.96335 0.76643 0.0
H324 H 0.26332 0.98081 0.74568 0.0
H325 H 0.34319 0.03801 0.78966 0.0
H326 H 0.49196 0.0826 0.70313 0.0
H327 H 0.43013 0.0695 0.7269 0.0
H328 H 0.3972 0.97985 0.71989 0.0
C329 C 0.26184 0.98146 0.766 0.0
C330 C 0.35495 0.02505 0.7746 0.0
C331 C 0.22627 0.97159 0.77789 0.0
C332 C 0.4877 0.06093 0.70849 0.0
C333 C 0.45245 0.05345 0.72221 0.0
C334 C 0.38603 0.99261 0.73525 0.0
C335 C 0.29513 0.9919 0.78012 0.0
C336 C 0.33384 0.00067 0.76733 0.0
C337 C 0.44552 0.02542 0.72905 0.0
C338 C 0.40713 0.01703 0.7424 0.0
H339 H 0.25418 0.98362 0.83869 0.0
H340 H 0.3168 0.00074 0.81784 0.0
H341 H 0.33467 0.96543 0.74173 0.0
H342 H 0.53205 0.99642 0.70365 0.0
H343 H 0.47094 0.98346 0.72771 0.0
C344 C 0.09 0.51716 0.42071 0.0
C345 C 0.06878 0.53634 0.40541 0.0
C346 C 0.07245 0.50774 0.44319 0.0
C347 C 0.9929 0.5251 0.49057 0.0
H348 H 0.00036 0.44626 0.50715 0.0
C349 C 0.90168 0.47643 0.57303 0.0
C350 C 0.92295 0.45719 0.58824 0.0
C351 C 0.91907 0.48582 0.55049 0.0
C352 C -0.00164 0.46838 0.50293 0.0
H353 H 0.01277 0.56095 0.40175 0.0
H354 H 0.98203 0.54442 0.4409 0.0
H355 H 0.03222 0.46363 0.46865 0.0
H356 H 0.97889 0.43246 0.59169 0.0
H357 H 0.00935 0.44896 0.55247 0.0
H358 H 0.95908 0.52986 0.52485 0.0
C359 C 0.0124 0.53684 0.43568 0.0
C360 C 0.01666 0.47835 0.48087 0.0
C361 C 0.02992 0.54621 0.41319 0.0
C362 C 0.96169 0.44723 0.58032 0.0
C363 C 0.97906 0.45659 0.55779 0.0
C364 C 0.97461 0.51514 0.51263 0.0
C365 C 0.03333 0.51735 0.45087 0.0
C366 C 0.01416 0.50683 0.47444 0.0
C367 C 0.95808 0.47614 0.54268 0.0
C368 C 0.97713 0.48666 0.51907 0.0
H369 H 0.12005 0.50922 0.41522 0.0
H370 H 0.08963 0.49302 0.45463 0.0
H371 H 0.99091 0.54723 0.48634 0.0
H372 H 0.87173 0.48443 0.57863 0.0
H373 H 0.90186 0.50058 0.53912 0.0
C374 C 0.40827 0.98224 0.41861 0.0
C375 C 0.42246 0.95794 0.4066 0.0
C376 C 0.42607 0.991 0.44119 0.0
C377 C 0.52101 0.98385 0.4792 0.0
H378 H 0.45217 0.01314 0.53267 0.0
C379 C 0.58486 0.00867 0.57818 0.0
C380 C 0.57074 0.03336 0.58957 0.0
C381 C 0.56693 -0.00081 0.55585 0.0
C382 C 0.47186 0.00528 0.51781 0.0
H383 H 0.46605 0.92357 0.40892 0.0
H384 H 0.49681 0.93868 0.44846 0.0
H385 H 0.42016 0.99693 0.49387 0.0
H386 H 0.52709 0.06763 0.58646 0.0
H387 H 0.49609 0.05125 0.54743 0.0
H388 H 0.57272 0.99223 0.50315 0.0
C389 C 0.47234 0.95119 0.44028 0.0
C390 C 0.45352 0.99599 0.49558 0.0
C391 C 0.45454 0.94244 0.41771 0.0
C392 C 0.53856 0.04848 0.57815 0.0
C393 C 0.52062 0.03899 0.55588 0.0
C394 C 0.53936 0.99312 0.50144 0.0
C395 C 0.45844 0.97564 0.45223 0.0
C396 C 0.47788 0.98523 0.47599 0.0
C397 C 0.53448 0.01419 0.54452 0.0
C398 C 0.515 0.00402 0.52097 0.0
H399 H 0.38367 0.99466 0.41044 0.0
H400 H 0.41497 0.01011 0.44976 0.0
H401 H 0.54072 0.97606 0.46432 0.0
H402 H 0.60955 0.99655 0.58659 0.0
H403 H 0.57803 0.97986 0.54771 0.0
C404 C 0.58922 0.47627 0.0741 0.0
C405 C 0.56818 0.45673 0.08912 0.0
C406 C 0.57157 0.48598 0.05175 0.0
C407 C 0.49263 0.46888 0.00404 0.0
H408 H 0.49862 0.54808 0.98864 0.0
C409 C 0.40161 0.51797 0.92175 0.0
C410 C 0.42257 0.53781 0.90701 0.0
C411 C 0.41886 0.50837 0.94425 0.0
C412 C 0.49704 0.52586 0.99253 0.0
H413 H 0.5124 0.4318 0.09246 0.0
H414 H 0.48152 0.44882 0.05352 0.0
H415 H 0.53049 0.53031 0.02699 0.0
H416 H 0.47779 0.56339 0.90434 0.0
H417 H 0.50807 0.54649 0.94346 0.0
H418 H 0.45931 0.4644 0.96955 0.0
C419 C 0.5118 0.45647 0.05886 0.0
C420 C 0.51533 0.51568 0.0145 0.0
C421 C 0.52941 0.44681 0.08123 0.0
C422 C 0.46084 0.54815 0.91535 0.0
C423 C 0.47809 0.53856 0.93783 0.0
C424 C 0.47438 0.47906 0.98205 0.0
C425 C 0.53256 0.47629 0.04395 0.0
C426 C 0.51336 0.48707 0.0205 0.0
C427 C 0.45743 0.51842 0.95248 0.0
C428 C 0.47638 0.50767 0.97603 0.0
H429 H 0.61919 0.48425 0.07969 0.0
H430 H 0.58859 0.50097 0.04051 0.0
H431 H 0.49105 0.44667 0.00795 0.0
H432 H 0.372 0.50967 0.91582 0.0
H433 H 0.40187 0.49315 0.95526 0.0
C434 C 0.08528 0.98611 0.91852 0.0
C435 C 0.07073 0.9618 0.90668 0.0
C436 C 0.0676 0.99518 0.94105 0.0
C437 C 0.00457 0.97063 0.9948 0.0
H438 H 0.98404 0.04974 0.00475 0.0
C439 C 0.90821 0.01223 0.07806 0.0
C440 C 0.92378 0.03583 0.09057 0.0
C441 C 0.92587 0.00337 0.05547 0.0
C442 C 0.98994 0.02761 0.00235 0.0
H443 H 0.02632 0.9279 0.90911 0.0
H444 H 0.99518 0.94387 0.94821 0.0
H445 H 0.01592 0.03383 0.96578 0.0
H446 H 0.96976 0.06882 0.08915 0.0
H447 H 0.00063 0.05334 0.04974 0.0
H448 H 0.9784 0.96442 0.03132 0.0
C449 C 0.02061 0.95574 0.94033 0.0
C450 C 0.00827 0.01849 0.98004 0.0
C451 C 0.03831 0.94667 0.91785 0.0
C452 C 0.95706 0.05058 0.07992 0.0
C453 C 0.9746 0.0418 0.05728 0.0
C454 C 0.98615 0.97975 0.01707 0.0
C455 C 0.03498 0.98014 0.95219 0.0
C456 C 0.0158 0.98989 0.976 0.0
C457 C 0.95936 0.01801 0.04487 0.0
C458 C 0.97863 0.00833 0.0211 0.0
H459 H 0.1103 -0.00184 0.91037 0.0
H460 H 0.07975 0.01385 0.94985 0.0
H461 H 0.01053 0.9485 0.99247 0.0
H462 H 0.88255 0.00048 0.08581 0.0
H463 H 0.91312 0.98516 0.0462 0.0
C464 C 0.15755 0.65972 0.32271 0.0
C465 C 0.15913 0.64168 0.34352 0.0
C466 C 0.1765 0.68593 0.3236 0.0
C467 C 0.25694 0.72539 0.35835 0.0
H468 H 0.21039 0.78832 0.32202 0.0
C469 C 0.32092 0.83871 0.36375 0.0
C470 C 0.32596 0.85248 0.3406 0.0
C471 C 0.30088 0.81283 0.36493 0.0
C472 C 0.22384 0.77086 0.33212 0.0
H473 H 0.18063 0.63719 0.38186 0.0
H474 H 0.21263 0.6834 0.38377 0.0
H475 H 0.17271 0.74422 0.32358 0.0
H476 H 0.31443 0.84993 0.30056 0.0
H477 H 0.27891 0.80485 0.30269 0.0
H478 H 0.30774 0.75247 0.36722 0.0
C479 C 0.1977 0.67704 0.3665 0.0
C480 C 0.20235 0.74554 0.33297 0.0
C481 C 0.17908 0.65065 0.3655 0.0
C482 C 0.31104 0.83976 0.31864 0.0
C483 C 0.29051 0.81409 0.31988 0.0
C484 C 0.27818 0.75085 0.35775 0.0
C485 C 0.1971 0.69488 0.34543 0.0
C486 C 0.21884 0.72235 0.34583 0.0
C487 C 0.285 0.80048 0.34305 0.0
C488 C 0.26204 0.77371 0.34438 0.0
H489 H 0.14264 0.6533 0.30543 0.0
H490 H 0.17596 0.69881 0.30685 0.0
H491 H 0.27096 0.70791 0.3681 0.0
H492 H 0.33212 0.84805 0.38098 0.0
H493 H 0.29687 0.80282 0.38304 0.0
C494 C 0.82415 0.158 0.17116 0.0
C495 C 0.82681 0.14034 0.15022 0.0
C496 C 0.8049 0.18402 0.16925 0.0
C497 C 0.7322 0.22466 0.12918 0.0
H498 H 0.77046 0.28576 0.17099 0.0
C499 C 0.67279 0.34036 0.1256 0.0
C500 C 0.65972 0.35054 0.14905 0.0
C501 C 0.69261 0.31441 0.12386 0.0
C502 C 0.75949 0.26883 0.15924 0.0
H503 H 0.81221 0.13617 0.11069 0.0
H504 H 0.77995 0.1822 0.107 0.0
H505 H 0.80854 0.24184 0.1707 0.0
H506 H 0.65656 0.34152 0.18895 0.0
H507 H 0.6921 0.29659 0.18592 0.0
H508 H 0.68368 0.2524 0.11733 0.0
C509 C 0.79169 0.17567 0.12513 0.0
C510 C 0.78108 0.24358 0.15916 0.0
C511 C 0.81044 0.14938 0.12716 0.0
C512 C 0.66618 0.33416 0.17062 0.0
C513 C 0.68667 0.30856 0.16894 0.0
C514 C 0.71104 0.25019 0.12892 0.0
C515 C 0.78842 0.19328 0.14622 0.0
C516 C 0.76726 0.22091 0.14456 0.0
C517 C 0.70039 0.29861 0.14561 0.0
C518 C 0.72411 0.27225 0.14433 0.0
H519 H 0.83612 0.15146 0.18925 0.0
H520 H 0.8022 0.19658 0.18607 0.0
H521 H 0.72028 0.20765 0.11791 0.0
H522 H 0.66815 0.35259 0.10869 0.0
H523 H 0.70303 0.30709 0.10568 0.0
C524 C 0.67753 0.15303 0.62829 0.0
C525 C 0.66839 0.14115 0.65181 0.0
C526 C 0.69766 0.17887 0.62675 0.0
C527 C 0.76993 0.22279 0.66054 0.0
H528 H 0.72533 0.28475 0.62207 0.0
C529 C 0.83481 0.3341 0.67045 0.0
C530 C 0.83409 0.35212 0.64962 0.0
C531 C 0.81622 0.3078 0.66921 0.0
C532 C 0.73874 0.26754 0.6325 0.0
H533 H 0.67284 0.14692 0.6921 0.0
H534 H 0.70889 0.19178 0.68936 0.0
H535 H 0.68899 0.23998 0.62253 0.0
H536 H 0.81457 0.3565 0.61088 0.0
H537 H 0.78345 0.31006 0.60832 0.0
H538 H 0.82016 0.24974 0.6701 0.0
C539 C 0.70019 0.18118 0.67218 0.0
C540 C 0.71771 0.24198 0.63287 0.0
C541 C 0.67939 0.15564 0.67373 0.0
C542 C 0.81539 0.34304 0.62727 0.0
C543 C 0.79727 0.31652 0.6259 0.0
C544 C 0.79134 0.24814 0.65985 0.0
C545 C 0.70969 0.19293 0.64869 0.0
C546 C 0.73282 0.21956 0.64721 0.0
C547 C 0.79698 0.29867 0.64697 0.0
C548 C 0.7757 0.27103 0.64616 0.0
H549 H 0.66935 0.14228 0.6111 0.0
H550 H 0.70477 0.18753 0.60843 0.0
H551 H 0.7825 0.20562 0.67143 0.0
H552 H 0.8487 0.34063 0.688 0.0
H553 H 0.81598 0.29499 0.686 0.0
C554 C 0.31363 0.65245 0.86805 0.0
C555 C 0.33052 0.64294 0.8453 0.0
C556 C 0.29372 0.67841 0.86921 0.0
C557 C 0.23464 0.72647 0.83086 0.0
H558 H 0.26584 0.78416 0.87827 0.0
C559 C 0.17242 0.83867 0.82191 0.0
C560 C 0.16607 0.85442 0.84378 0.0
C561 C 0.1912 0.81241 0.82321 0.0
C562 C 0.25611 0.76814 0.86521 0.0
H563 H 0.3402 0.65309 0.80601 0.0
H564 H 0.3046 0.69809 0.80795 0.0
H565 H 0.30148 0.73914 0.879 0.0
H566 H 0.17332 0.85488 0.88423 0.0
H567 H 0.20455 0.80853 0.88671 0.0
H568 H 0.1886 0.75476 0.8174 0.0
C569 C 0.30706 0.68557 0.82487 0.0
C570 C 0.27675 0.74243 0.86558 0.0
C571 C 0.32761 0.65994 0.82382 0.0
C572 C 0.17807 0.84321 0.86705 0.0
C573 C 0.19628 0.81672 0.86842 0.0
C574 C 0.2135 0.75191 0.83076 0.0
C575 C 0.2897 0.69493 0.84751 0.0
C576 C 0.26658 0.72158 0.84815 0.0
C577 C 0.20346 0.80106 0.84648 0.0
C578 C 0.22436 0.7733 0.84767 0.0
H579 H 0.31546 0.63973 0.88488 0.0
H580 H 0.28047 0.68522 0.88686 0.0
H581 H 0.22589 0.71049 0.81746 0.0
H582 H 0.16379 0.84691 0.80368 0.0
H583 H 0.19692 0.80134 0.80583 0.0
loop_
_geom_bond_atom_site_label_1
_geom_bond_atom_site_label_2
_geom_bond_distance
_geom_bond_site_symmetry_2
_ccdc_geom_bond_type
In0 O1 2.294 . S
In0 O2 2.326 . S
In0 O6 2.266 . S
In0 O7 2.326 . S
In0 O8 2.266 . S
In0 O9 2.326 . S
In0 O11 2.294 . S
In0 O12 2.326 . S
O1 In0 2.294 . S
O1 C10 1.240 . S
O2 In0 2.326 . S
O2 C10 1.252 . S
C3 O6 1.252 . S
C3 O7 1.260 . S
C4 O11 1.240 . S
C4 O12 1.252 . S
C5 O8 1.252 . S
C5 O9 1.260 . S
O6 In0 2.266 . S
O6 C3 1.252 . S
O7 In0 2.326 . S
O7 C3 1.260 . S
O8 In0 2.266 . S
O8 C5 1.252 . S
O9 In0 2.326 . S
O9 C5 1.260 . S
C10 O1 1.240 . S
C10 O2 1.252 . S
O11 In0 2.294 . S
O11 C4 1.240 . S
O12 In0 2.326 . S
O12 C4 1.252 . S
In13 O14 2.294 . S
In13 O15 2.326 . S
In13 O19 2.266 . S
In13 O20 2.326 . S
In13 O21 2.266 . S
In13 O22 2.326 . S
In13 O24 2.294 . S
In13 O25 2.326 . S
O14 In13 2.294 . S
O14 C23 1.240 . S
O15 In13 2.326 . S
O15 C23 1.252 . S
C16 O19 1.252 . S
C16 O20 1.260 . S
C17 O24 1.240 . S
C17 O25 1.252 . S
C18 O21 1.252 . S
C18 O22 1.260 . S
O19 In13 2.266 . S
O19 C16 1.252 . S
O20 In13 2.326 . S
O20 C16 1.260 . S
O21 In13 2.266 . S
O21 C18 1.252 . S
O22 In13 2.326 . S
O22 C18 1.260 . S
C23 O14 1.240 . S
C23 O15 1.252 . S
O24 In13 2.294 . S
O24 C17 1.240 . S
O25 In13 2.326 . S
O25 C17 1.252 . S
In26 O27 2.294 . S
In26 O28 2.326 . S
In26 O32 2.266 . S
In26 O33 2.326 . S
In26 O34 2.266 . S
In26 O35 2.326 . S
In26 O37 2.294 . S
In26 O38 2.326 . S
O27 In26 2.294 . S
O27 C36 1.240 . S
O28 In26 2.326 . S
O28 C36 1.252 . S
C29 O32 1.252 . S
C29 O33 1.260 . S
C30 O37 1.240 . S
C30 O38 1.252 . S
C31 O34 1.252 . S
C31 O35 1.260 . S
O32 In26 2.266 . S
O32 C29 1.252 . S
O33 In26 2.326 . S
O33 C29 1.260 . S
O34 In26 2.266 . S
O34 C31 1.252 . S
O35 In26 2.326 . S
O35 C31 1.260 . S
C36 O27 1.240 . S
C36 O28 1.252 . S
O37 In26 2.294 . S
O37 C30 1.240 . S
O38 In26 2.326 . S
O38 C30 1.252 . S
In39 O40 2.294 . S
In39 O41 2.326 . S
In39 O45 2.266 . S
In39 O46 2.326 . S
In39 O47 2.266 . S
In39 O48 2.326 . S
In39 O50 2.294 . S
In39 O51 2.326 . S
O40 In39 2.294 . S
O40 C49 1.240 . S
O41 In39 2.326 . S
O41 C49 1.252 . S
C42 O45 1.252 . S
C42 O46 1.260 . S
C43 O50 1.240 . S
C43 O51 1.252 . S
C44 O47 1.252 . S
C44 O48 1.260 . S
O45 In39 2.266 . S
O45 C42 1.252 . S
O46 In39 2.326 . S
O46 C42 1.260 . S
O47 In39 2.266 . S
O47 C44 1.252 . S
O48 In39 2.326 . S
O48 C44 1.260 . S
C49 O40 1.240 . S
C49 O41 1.252 . S
O50 In39 2.294 . S
O50 C43 1.240 . S
O51 In39 2.326 . S
O51 C43 1.252 . S
In52 O53 2.294 . S
In52 O54 2.326 . S
In52 O58 2.266 . S
In52 O59 2.326 . S
In52 O60 2.266 . S
In52 O61 2.326 . S
In52 O63 2.294 . S
In52 O64 2.326 . S
O53 In52 2.294 . S
O53 C62 1.240 . S
O54 In52 2.326 . S
O54 C62 1.252 . S
C55 O58 1.252 . S
C55 O59 1.260 . S
C56 O63 1.240 . S
C56 O64 1.252 . S
C57 O60 1.252 . S
C57 O61 1.260 . S
O58 In52 2.266 . S
O58 C55 1.252 . S
O59 In52 2.326 . S
O59 C55 1.260 . S
O60 In52 2.266 . S
O60 C57 1.252 . S
O61 In52 2.326 . S
O61 C57 1.260 . S
C62 O53 1.240 . S
C62 O54 1.252 . S
O63 In52 2.294 . S
O63 C56 1.240 . S
O64 In52 2.326 . S
O64 C56 1.252 . S
In65 O66 2.294 . S
In65 O67 2.326 . S
In65 O71 2.266 . S
In65 O72 2.326 . S
In65 O73 2.266 . S
In65 O74 2.326 . S
In65 O76 2.294 . S
In65 O77 2.326 . S
O66 In65 2.294 . S
O66 C75 1.240 . S
O67 In65 2.326 . S
O67 C75 1.252 . S
C68 O71 1.252 . S
C68 O72 1.260 . S
C69 O76 1.240 . S
C69 O77 1.252 . S
C70 O73 1.252 . S
C70 O74 1.260 . S
O71 In65 2.266 . S
O71 C68 1.252 . S
O72 In65 2.326 . S
O72 C68 1.260 . S
O73 In65 2.266 . S
O73 C70 1.252 . S
O74 In65 2.326 . S
O74 C70 1.260 . S
C75 O66 1.240 . S
C75 O67 1.252 . S
O76 In65 2.294 . S
O76 C69 1.240 . S
O77 In65 2.326 . S
O77 C69 1.252 . S
In78 O79 2.294 . S
In78 O80 2.326 . S
In78 O84 2.266 . S
In78 O85 2.326 . S
In78 O86 2.266 . S
In78 O87 2.326 . S
In78 O89 2.294 . S
In78 O90 2.326 . S
O79 In78 2.294 . S
O79 C88 1.240 . S
O80 In78 2.326 . S
O80 C88 1.252 . S
C81 O84 1.252 . S
C81 O85 1.260 . S
C82 O89 1.240 . S
C82 O90 1.252 . S
C83 O86 1.252 . S
C83 O87 1.260 . S
O84 In78 2.266 . S
O84 C81 1.252 . S
O85 In78 2.326 . S
O85 C81 1.260 . S
O86 In78 2.266 . S
O86 C83 1.252 . S
O87 In78 2.326 . S
O87 C83 1.260 . S
C88 O79 1.240 . S
C88 O80 1.252 . S
O89 In78 2.294 . S
O89 C82 1.240 . S
O90 In78 2.326 . S
O90 C82 1.252 . S
In91 O92 2.294 . S
In91 O93 2.326 . S
In91 O97 2.266 . S
In91 O98 2.326 . S
In91 O99 2.266 . S
In91 O100 2.326 . S
In91 O102 2.294 . S
In91 O103 2.326 . S
O92 In91 2.294 . S
O92 C101 1.240 . S
O93 In91 2.326 . S
O93 C101 1.252 . S
C94 O97 1.252 . S
C94 O98 1.260 . S
C95 O102 1.240 . S
C95 O103 1.252 . S
C96 O99 1.252 . S
C96 O100 1.260 . S
O97 In91 2.266 . S
O97 C94 1.252 . S
O98 In91 2.326 . S
O98 C94 1.260 . S
O99 In91 2.266 . S
O99 C96 1.252 . S
O100 In91 2.326 . S
O100 C96 1.260 . S
C101 O92 1.240 . S
C101 O93 1.252 . S
O102 In91 2.294 . S
O102 C95 1.240 . S
O103 In91 2.326 . S
O103 C95 1.252 . S
C104 C105 1.349 . S
C104 C106 1.327 . S
C104 H129 0.950 . S
C105 C104 1.349 . S
C105 C121 1.349 . S
C106 C104 1.327 . S
C106 C125 1.429 . S
C106 H130 0.950 . S
C107 C124 1.574 . S
C107 C126 1.368 . S
C107 H131 0.949 . S
H108 C112 0.949 . S
C109 C110 1.349 . S
C109 C111 1.327 . S
C109 H132 0.950 . S
C110 C109 1.349 . S
C110 C122 1.349 . S
C111 C109 1.327 . S
C111 C127 1.429 . S
C111 H133 0.950 . S
C112 H108 0.949 . S
C112 C120 1.574 . S
C112 C128 1.368 . S
H113 C121 0.950 . S
H114 C119 0.950 . S
H115 C120 0.949 . S
H116 C122 0.950 . S
H117 C123 0.950 . S
H118 C124 0.949 . S
C119 H114 0.950 . S
C119 C121 1.327 . S
C119 C125 1.429 . S
C120 C112 1.574 . S
C120 H115 0.949 . S
C120 C126 1.368 . S
C121 C105 1.349 . S
C121 H113 0.950 . S
C121 C119 1.327 . S
C122 C110 1.349 . S
C122 H116 0.950 . S
C122 C123 1.327 . S
C123 H117 0.950 . S
C123 C122 1.327 . S
C123 C127 1.429 . S
C124 C107 1.574 . S
C124 H118 0.949 . S
C124 C128 1.368 . S
C125 C106 1.429 . S
C125 C119 1.429 . S
C125 C126 1.523 . S
C126 C107 1.368 . S
C126 C120 1.368 . S
C126 C125 1.523 . S
C127 C111 1.429 . S
C127 C123 1.429 . S
C127 C128 1.523 . S
C128 C112 1.368 . S
C128 C124 1.368 . S
C128 C127 1.523 . S
H129 C104 0.950 . S
H130 C106 0.950 . S
H131 C107 0.949 . S
H132 C109 0.950 . S
H133 C111 0.950 . S
C134 C135 1.349 . S
C134 C136 1.327 1_655 S
C134 H159 0.950 . S
C135 C134 1.349 . S
C135 C151 1.349 1_655 S
C136 C134 1.327 1_455 S
C136 C155 1.429 . S
C136 H160 0.950 . S
C137 C154 1.574 . S
C137 C156 1.368 . S
C137 H161 0.949 . S
H138 C142 0.949 . S
C139 C140 1.349 . S
C139 C141 1.327 . S
C139 H162 0.950 . S
C140 C139 1.349 . S
C140 C152 1.349 . S
C141 C139 1.327 . S
C141 C157 1.429 . S
C141 H163 0.950 . S
C142 H138 0.949 . S
C142 C150 1.574 . S
C142 C158 1.368 . S
H143 C151 0.950 . S
H144 C149 0.950 . S
H145 C150 0.949 . S
H146 C152 0.950 . S
H147 C153 0.950 . S
H148 C154 0.949 . S
C149 H144 0.950 . S
C149 C151 1.327 . S
C149 C155 1.429 . S
C150 C142 1.574 . S
C150 H145 0.949 . S
C150 C156 1.368 1_565 S
C151 C135 1.349 1_455 S
C151 H143 0.950 . S
C151 C149 1.327 . S
C152 C140 1.349 . S
C152 H146 0.950 . S
C152 C153 1.327 . S
C153 H147 0.950 . S
C153 C152 1.327 . S
C153 C157 1.429 . S
C154 C137 1.574 . S
C154 H148 0.949 . S
C154 C158 1.368 1_545 S
C155 C136 1.429 . S
C155 C149 1.429 . S
C155 C156 1.523 . S
C156 C137 1.368 . S
C156 C150 1.368 1_545 S
C156 C155 1.523 . S
C157 C141 1.429 . S
C157 C153 1.429 . S
C157 C158 1.523 . S
C158 C142 1.368 . S
C158 C154 1.368 1_565 S
C158 C157 1.523 . S
H159 C134 0.950 . S
H160 C136 0.950 . S
H161 C137 0.949 . S
H162 C139 0.950 . S
H163 C141 0.950 . S
C164 C165 1.349 . S
C164 C166 1.327 . S
C164 H189 0.950 . S
C165 C164 1.349 . S
C165 C181 1.349 . S
C166 C164 1.327 . S
C166 C185 1.429 . S
C166 H190 0.950 . S
C167 C184 1.574 . S
C167 C186 1.368 . S
C167 H191 0.949 . S
H168 C172 0.949 . S
C169 C170 1.349 1_655 S
C169 C171 1.327 . S
C169 H192 0.950 . S
C170 C169 1.349 1_455 S
C170 C182 1.349 . S
C171 C169 1.327 . S
C171 C187 1.429 . S
C171 H193 0.950 . S
C172 H168 0.949 . S
C172 C180 1.574 . S
C172 C188 1.368 . S
H173 C181 0.950 . S
H174 C179 0.950 . S
H175 C180 0.949 . S
H176 C182 0.950 . S
H177 C183 0.950 . S
H178 C184 0.949 . S
C179 H174 0.950 . S
C179 C181 1.327 . S
C179 C185 1.429 . S
C180 C172 1.574 . S
C180 H175 0.949 . S
C180 C186 1.368 . S
C181 C165 1.349 . S
C181 H173 0.950 . S
C181 C179 1.327 . S
C182 C170 1.349 . S
C182 H176 0.950 . S
C182 C183 1.327 1_455 S
C183 H177 0.950 . S
C183 C182 1.327 1_655 S
C183 C187 1.429 . S
C184 C167 1.574 . S
C184 H178 0.949 . S
C184 C188 1.368 . S
C185 C166 1.429 . S
C185 C179 1.429 . S
C185 C186 1.523 . S
C186 C167 1.368 . S
C186 C180 1.368 . S
C186 C185 1.523 . S
C187 C171 1.429 . S
C187 C183 1.429 . S
C187 C188 1.523 . S
C188 C172 1.368 . S
C188 C184 1.368 . S
C188 C187 1.523 . S
H189 C164 0.950 . S
H190 C166 0.950 . S
H191 C167 0.949 . S
H192 C169 0.950 . S
H193 C171 0.950 . S
C194 C195 1.349 . S
C194 C196 1.335 . S
C194 H219 0.950 1_545 S
C195 C194 1.349 . S
C195 C211 1.349 . S
C196 C194 1.335 . S
C196 C215 1.445 . S
C196 H220 0.925 1_545 S
C197 C214 1.574 . S
C197 C216 1.368 . S
C197 H221 0.949 . S
H198 C202 0.949 . S
C199 C200 1.349 . S
C199 C201 1.327 1_565 S
C199 H222 0.950 1_565 S
C200 C199 1.349 . S
C200 C212 1.349 . S
C201 C199 1.327 1_545 S
C201 C217 1.429 1_545 S
C201 H223 0.950 . S
C202 H198 0.949 . S
C202 C210 1.574 . S
C202 C218 1.368 . S
H203 C211 0.950 . S
H204 C209 0.950 . S
H205 C210 0.949 . S
H206 C212 0.950 . S
H207 C213 0.950 . S
H208 C214 0.949 . S
C209 H204 0.950 . S
C209 C211 1.327 . S
C209 C215 1.429 . S
C210 C202 1.574 . S
C210 H205 0.949 . S
C210 C216 1.368 1_565 S
C211 C195 1.349 . S
C211 H203 0.950 . S
C211 C209 1.327 . S
C212 C200 1.349 . S
C212 H206 0.950 . S
C212 C213 1.327 . S
C213 H207 0.950 . S
C213 C212 1.327 . S
C213 C217 1.429 . S
C214 C197 1.574 . S
C214 H208 0.949 . S
C214 C218 1.368 1_545 S
C215 C196 1.445 . S
C215 C209 1.429 . S
C215 C216 1.523 . S
C216 C197 1.368 . S
C216 C210 1.368 1_545 S
C216 C215 1.523 . S
C217 C201 1.429 1_565 S
C217 C213 1.429 . S
C217 C218 1.523 . S
C218 C202 1.368 . S
C218 C214 1.368 1_565 S
C218 C217 1.523 . S
H219 C194 0.950 1_565 S
H220 C196 0.925 1_565 S
H221 C197 0.949 . S
H222 C199 0.950 1_545 S
H223 C201 0.950 . S
C224 C225 1.349 . S
C224 C226 1.327 . S
C224 H249 0.950 . S
C225 C224 1.349 . S
C225 C241 1.349 . S
C226 C224 1.327 . S
C226 C245 1.429 . S
C226 H250 0.950 . S
C227 C244 1.574 . S
C227 C246 1.368 . S
C227 H251 0.949 . S
H228 C232 0.949 . S
C229 C230 1.349 . S
C229 C231 1.327 . S
C229 H252 0.950 . S
C230 C229 1.349 . S
C230 C242 1.349 . S
C231 C229 1.327 . S
C231 C247 1.429 . S
C231 H253 0.950 . S
C232 H228 0.949 . S
C232 C240 1.574 . S
C232 C248 1.368 . S
H233 C241 0.950 . S
H234 C239 0.950 . S
H235 C240 0.949 . S
H236 C242 0.950 . S
H237 C243 0.950 . S
H238 C244 0.949 . S
C239 H234 0.950 . S
C239 C241 1.327 . S
C239 C245 1.429 . S
C240 C232 1.574 . S
C240 H235 0.949 . S
C240 C246 1.368 . S
C241 C225 1.349 . S
C241 H233 0.950 . S
C241 C239 1.327 . S
C242 C230 1.349 . S
C242 H236 0.950 . S
C242 C243 1.327 . S
C243 H237 0.950 . S
C243 C242 1.327 . S
C243 C247 1.429 . S
C244 C227 1.574 . S
C244 H238 0.949 . S
C244 C248 1.368 . S
C245 C226 1.429 . S
C245 C239 1.429 . S
C245 C246 1.523 . S
C246 C227 1.368 . S
C246 C240 1.368 . S
C246 C245 1.523 . S
C247 C231 1.429 . S
C247 C243 1.429 . S
C247 C248 1.523 . S
C248 C232 1.368 . S
C248 C244 1.368 . S
C248 C247 1.523 . S
H249 C224 0.950 . S
H250 C226 0.950 . S
H251 C227 0.949 . S
H252 C229 0.950 . S
H253 C231 0.950 . S
C254 C255 1.349 . S
C254 C256 1.327 . S
C254 H279 0.949 1_545 S
C255 C254 1.349 . S
C255 C271 1.349 . S
C256 C254 1.327 . S
C256 C275 1.429 . S
C256 H280 0.950 1_545 S
C257 C274 1.574 . S
C257 C276 1.368 . S
C257 H281 0.949 . S
H258 C262 0.949 . S
C259 C260 1.353 . S
C259 C261 1.320 1_465 S
C259 H282 0.953 1_565 S
C260 C259 1.353 . S
C260 C272 1.349 . S
C261 C259 1.320 1_645 S
C261 C277 1.429 1_545 S
C261 H283 0.950 . S
C262 H258 0.949 . S
C262 C270 1.574 . S
C262 C278 1.368 . S
H263 C271 0.950 . S
H264 C269 0.950 . S
H265 C270 0.949 . S
H266 C272 0.950 . S
H267 C273 0.950 . S
H268 C274 0.949 . S
C269 H264 0.950 . S
C269 C271 1.327 . S
C269 C275 1.429 . S
C270 C262 1.574 . S
C270 H265 0.949 . S
C270 C276 1.368 1_565 S
C271 C255 1.349 . S
C271 H263 0.950 . S
C271 C269 1.327 . S
C272 C260 1.349 . S
C272 H266 0.950 . S
C272 C273 1.327 1_455 S
C273 H267 0.950 . S
C273 C272 1.327 1_655 S
C273 C277 1.429 . S
C274 C257 1.574 . S
C274 H268 0.949 . S
C274 C278 1.368 1_545 S
C275 C256 1.429 . S
C275 C269 1.429 . S
C275 C276 1.523 . S
C276 C257 1.368 . S
C276 C270 1.368 1_545 S
C276 C275 1.523 . S
C277 C261 1.429 1_565 S
C277 C273 1.429 . S
C277 C278 1.523 . S
C278 C262 1.368 . S
C278 C274 1.368 1_565 S
C278 C277 1.523 . S
H279 C254 0.949 1_565 S
H280 C256 0.950 1_565 S
H281 C257 0.949 . S
H282 C259 0.953 1_545 S
H283 C261 0.950 . S
C284 C285 1.349 . S
C284 C286 1.327 . S
C284 H309 0.950 . S
C285 C284 1.349 . S
C285 C301 1.349 . S
C286 C284 1.327 . S
C286 C305 1.429 . S
C286 H310 0.950 . S
C287 C304 1.574 . S
C287 C306 1.368 . S
C287 H311 0.949 . S
H288 C292 0.949 . S
C289 C290 1.349 . S
C289 C291 1.327 1_655 S
C289 H312 0.950 . S
C290 C289 1.349 . S
C290 C302 1.349 1_655 S
C291 C289 1.327 1_455 S
C291 C307 1.429 . S
C291 H313 0.950 . S
C292 H288 0.949 . S
C292 C300 1.574 . S
C292 C308 1.368 . S
H293 C301 0.950 . S
H294 C299 0.950 . S
H295 C300 0.949 . S
H296 C302 0.950 . S
H297 C303 0.950 . S
H298 C304 0.949 . S
C299 H294 0.950 . S
C299 C301 1.327 . S
C299 C305 1.429 . S
C300 C292 1.574 . S
C300 H295 0.949 . S
C300 C306 1.368 . S
C301 C285 1.349 . S
C301 H293 0.950 . S
C301 C299 1.327 . S
C302 C290 1.349 1_455 S
C302 H296 0.950 . S
C302 C303 1.327 . S
C303 H297 0.950 . S
C303 C302 1.327 . S
C303 C307 1.429 . S
C304 C287 1.574 . S
C304 H298 0.949 . S
C304 C308 1.368 . S
C305 C286 1.429 . S
C305 C299 1.429 . S
C305 C306 1.523 . S
C306 C287 1.368 . S
C306 C300 1.368 . S
C306 C305 1.523 . S
C307 C291 1.429 . S
C307 C303 1.429 . S
C307 C308 1.523 . S
C308 C292 1.368 . S
C308 C304 1.368 . S
C308 C307 1.523 . S
H309 C284 0.950 . S
H310 C286 0.950 . S
H311 C287 0.949 . S
H312 C289 0.950 . S
H313 C291 0.950 . S
C314 C315 1.349 . S
C314 C316 1.327 . S
C314 H339 0.956 . S
C315 C314 1.349 . S
C315 C331 1.349 . S
C316 C314 1.327 . S
C316 C335 1.429 . S
C316 H340 0.950 1_565 S
C317 C334 1.574 . S
C317 C336 1.368 . S
C317 H341 0.949 . S
H318 C322 0.949 . S
C319 C320 1.349 . S
C319 C321 1.327 1_545 S
C319 H342 0.950 1_545 S
C320 C319 1.349 . S
C320 C332 1.349 . S
C321 C319 1.327 1_565 S
C321 C337 1.429 1_565 S
C321 H343 0.950 . S
C322 H318 0.949 . S
C322 C330 1.574 . S
C322 C338 1.368 . S
H323 C331 0.950 . S
H324 C329 0.950 . S
H325 C330 0.949 . S
H326 C332 0.950 . S
H327 C333 0.950 . S
H328 C334 0.949 . S
C329 H324 0.950 . S
C329 C331 1.327 . S
C329 C335 1.429 . S
C330 C322 1.574 . S
C330 H325 0.949 . S
C330 C336 1.368 1_545 S
C331 C315 1.349 . S
C331 H323 0.950 . S
C331 C329 1.327 . S
C332 C320 1.349 . S
C332 H326 0.950 . S
C332 C333 1.327 . S
C333 H327 0.950 . S
C333 C332 1.327 . S
C333 C337 1.429 . S
C334 C317 1.574 . S
C334 H328 0.949 . S
C334 C338 1.368 1_565 S
C335 C316 1.429 . S
C335 C329 1.429 . S
C335 C336 1.523 . S
C336 C317 1.368 . S
C336 C330 1.368 1_565 S
C336 C335 1.523 . S
C337 C321 1.429 1_545 S
C337 C333 1.429 . S
C337 C338 1.523 . S
C338 C322 1.368 . S
C338 C334 1.368 1_545 S
C338 C337 1.523 . S
H339 C314 0.956 . S
H340 C316 0.950 1_545 S
H341 C317 0.949 . S
H342 C319 0.950 1_565 S
H343 C321 0.950 . S
C344 C345 1.349 . S
C344 C346 1.327 . S
C344 H369 0.950 . S
C345 C344 1.349 . S
C345 C361 1.349 . S
C346 C344 1.327 . S
C346 C365 1.429 . S
C346 H370 0.950 . S
C347 C364 1.574 . S
C347 C366 1.368 . S
C347 H371 0.949 . S
H348 C352 0.949 . S
C349 C350 1.349 . S
C349 C351 1.327 . S
C349 H372 0.950 . S
C350 C349 1.349 . S
C350 C362 1.349 . S
C351 C349 1.327 . S
C351 C367 1.429 . S
C351 H373 0.950 . S
C352 H348 0.949 . S
C352 C360 1.574 . S
C352 C368 1.368 . S
H353 C361 0.950 . S
H354 C359 0.950 . S
H355 C360 0.949 . S
H356 C362 0.950 . S
H357 C363 0.950 . S
H358 C364 0.949 . S
C359 H354 0.950 . S
C359 C361 1.327 . S
C359 C365 1.429 . S
C360 C352 1.574 . S
C360 H355 0.949 . S
C360 C366 1.368 1_655 S
C361 C345 1.349 . S
C361 H353 0.950 . S
C361 C359 1.327 . S
C362 C350 1.349 . S
C362 H356 0.950 . S
C362 C363 1.327 . S
C363 H357 0.950 . S
C363 C362 1.327 . S
C363 C367 1.429 . S
C364 C347 1.574 . S
C364 H358 0.949 . S
C364 C368 1.368 1_455 S
C365 C346 1.429 . S
C365 C359 1.429 . S
C365 C366 1.523 . S
C366 C347 1.368 . S
C366 C360 1.368 1_455 S
C366 C365 1.523 . S
C367 C351 1.429 . S
C367 C363 1.429 . S
C367 C368 1.523 . S
C368 C352 1.368 . S
C368 C364 1.368 1_655 S
C368 C367 1.523 . S
H369 C344 0.950 . S
H370 C346 0.950 . S
H371 C347 0.949 . S
H372 C349 0.950 . S
H373 C351 0.950 . S
C374 C375 1.349 . S
C374 C376 1.327 . S
C374 H399 0.950 . S
C375 C374 1.349 . S
C375 C391 1.349 . S
C376 C374 1.327 . S
C376 C395 1.429 . S
C376 H400 0.950 1_565 S
C377 C394 1.574 . S
C377 C396 1.368 . S
C377 H401 0.949 . S
H378 C382 0.949 . S
C379 C380 1.349 . S
C379 C381 1.327 . S
C379 H402 0.950 . S
C380 C379 1.349 . S
C380 C392 1.349 . S
C381 C379 1.327 . S
C381 C397 1.429 . S
C381 H403 0.950 1_545 S
C382 H378 0.949 . S
C382 C390 1.574 . S
C382 C398 1.368 . S
H383 C391 0.950 . S
H384 C389 0.950 . S
H385 C390 0.949 . S
H386 C392 0.950 . S
H387 C393 0.950 . S
H388 C394 0.949 . S
C389 H384 0.950 . S
C389 C391 1.327 . S
C389 C395 1.429 . S
C390 C382 1.574 . S
C390 H385 0.949 . S
C390 C396 1.368 1_545 S
C391 C375 1.349 . S
C391 H383 0.950 . S
C391 C389 1.327 . S
C392 C380 1.349 . S
C392 H386 0.950 . S
C392 C393 1.327 . S
C393 H387 0.950 . S
C393 C392 1.327 . S
C393 C397 1.429 . S
C394 C377 1.574 . S
C394 H388 0.949 . S
C394 C398 1.368 1_565 S
C395 C376 1.429 . S
C395 C389 1.429 . S
C395 C396 1.523 . S
C396 C377 1.368 . S
C396 C390 1.368 1_565 S
C396 C395 1.523 . S
C397 C381 1.429 . S
C397 C393 1.429 . S
C397 C398 1.523 . S
C398 C382 1.368 . S
C398 C394 1.368 1_545 S
C398 C397 1.523 . S
H399 C374 0.950 . S
H400 C376 0.950 1_545 S
H401 C377 0.949 . S
H402 C379 0.950 . S
H403 C381 0.950 1_565 S
C404 C405 1.349 . S
C404 C406 1.327 . S
C404 H429 0.950 . S
C405 C404 1.349 . S
C405 C421 1.349 . S
C406 C404 1.327 . S
C406 C425 1.429 . S
C406 H430 0.950 . S
C407 C424 1.574 1_554 S
C407 C426 1.368 . S
C407 H431 0.949 . S
H408 C412 0.949 . S
C409 C410 1.349 . S
C409 C411 1.327 . S
C409 H432 0.950 . S
C410 C409 1.349 . S
C410 C422 1.349 . S
C411 C409 1.327 . S
C411 C427 1.429 . S
C411 H433 0.950 . S
C412 H408 0.949 . S
C412 C420 1.574 1_556 S
C412 C428 1.368 . S
H413 C421 0.950 . S
H414 C419 0.950 . S
H415 C420 0.949 . S
H416 C422 0.950 . S
H417 C423 0.950 . S
H418 C424 0.949 . S
C419 H414 0.950 . S
C419 C421 1.327 . S
C419 C425 1.429 . S
C420 C412 1.574 1_554 S
C420 H415 0.949 . S
C420 C426 1.368 . S
C421 C405 1.349 . S
C421 H413 0.950 . S
C421 C419 1.327 . S
C422 C410 1.349 . S
C422 H416 0.950 . S
C422 C423 1.327 . S
C423 H417 0.950 . S
C423 C422 1.327 . S
C423 C427 1.429 . S
C424 C407 1.574 1_556 S
C424 H418 0.949 . S
C424 C428 1.368 . S
C425 C406 1.429 . S
C425 C419 1.429 . S
C425 C426 1.523 . S
C426 C407 1.368 . S
C426 C420 1.368 . S
C426 C425 1.523 . S
C427 C411 1.429 . S
C427 C423 1.429 . S
C427 C428 1.523 . S
C428 C412 1.368 . S
C428 C424 1.368 . S
C428 C427 1.523 . S
H429 C404 0.950 . S
H430 C406 0.950 . S
H431 C407 0.949 . S
H432 C409 0.950 . S
H433 C411 0.950 . S
C434 C435 1.349 . S
C434 C436 1.327 . S
C434 H459 0.950 . S
C435 C434 1.349 . S
C435 C451 1.349 . S
C436 C434 1.327 . S
C436 C455 1.429 . S
C436 H460 0.950 1_565 S
C437 C454 1.535 1_556 S
C437 C456 1.405 . S
C437 H461 0.953 . S
H438 C442 0.953 . S
C439 C440 1.349 . S
C439 C441 1.327 . S
C439 H462 0.950 . S
C440 C439 1.349 . S
C440 C452 1.349 . S
C441 C439 1.327 . S
C441 C457 1.429 . S
C441 H463 0.950 1_545 S
C442 H438 0.953 . S
C442 C450 1.535 1_554 S
C442 C458 1.405 . S
H443 C451 0.950 . S
H444 C449 0.950 . S
H445 C450 0.949 . S
H446 C452 0.950 . S
H447 C453 0.950 . S
H448 C454 0.949 . S
C449 H444 0.950 . S
C449 C451 1.327 . S
C449 C455 1.429 . S
C450 C442 1.535 1_556 S
C450 H445 0.949 . S
C450 C456 1.368 1_645 S
C451 C435 1.349 . S
C451 H443 0.950 . S
C451 C449 1.327 . S
C452 C440 1.349 . S
C452 H446 0.950 . S
C452 C453 1.327 . S
C453 H447 0.950 . S
C453 C452 1.327 . S
C453 C457 1.429 . S
C454 C437 1.535 1_554 S
C454 H448 0.949 . S
C454 C458 1.368 1_465 S
C455 C436 1.429 . S
C455 C449 1.429 . S
C455 C456 1.523 . S
C456 C437 1.405 . S
C456 C450 1.368 1_465 S
C456 C455 1.523 . S
C457 C441 1.429 . S
C457 C453 1.429 . S
C457 C458 1.523 . S
C458 C442 1.405 . S
C458 C454 1.368 1_645 S
C458 C457 1.523 . S
H459 C434 0.950 . S
H460 C436 0.950 1_545 S
H461 C437 0.953 . S
H462 C439 0.950 . S
H463 C441 0.950 1_565 S
C464 C465 1.349 . S
C464 C466 1.327 . S
C464 H489 0.950 . S
C465 C464 1.349 . S
C465 C481 1.349 . S
C466 C464 1.327 . S
C466 C485 1.429 . S
C466 H490 0.950 . S
C467 C484 1.574 . S
C467 C486 1.368 . S
C467 H491 0.949 . S
H468 C472 0.949 . S
C469 C470 1.349 . S
C469 C471 1.327 . S
C469 H492 0.950 . S
C470 C469 1.349 . S
C470 C482 1.349 . S
C471 C469 1.327 . S
C471 C487 1.429 . S
C471 H493 0.950 . S
C472 H468 0.949 . S
C472 C480 1.574 . S
C472 C488 1.368 . S
H473 C481 0.950 . S
H474 C479 0.950 . S
H475 C480 0.949 . S
H476 C482 0.950 . S
H477 C483 0.950 . S
H478 C484 0.949 . S
C479 H474 0.950 . S
C479 C481 1.327 . S
C479 C485 1.429 . S
C480 C472 1.574 . S
C480 H475 0.949 . S
C480 C486 1.368 . S
C481 C465 1.349 . S
C481 H473 0.950 . S
C481 C479 1.327 . S
C482 C470 1.349 . S
C482 H476 0.950 . S
C482 C483 1.327 . S
C483 H477 0.950 . S
C483 C482 1.327 . S
C483 C487 1.429 . S
C484 C467 1.574 . S
C484 H478 0.949 . S
C484 C488 1.368 . S
C485 C466 1.429 . S
C485 C479 1.429 . S
C485 C486 1.523 . S
C486 C467 1.368 . S
C486 C480 1.368 . S
C486 C485 1.523 . S
C487 C471 1.429 . S
C487 C483 1.429 . S
C487 C488 1.523 . S
C488 C472 1.368 . S
C488 C484 1.368 . S
C488 C487 1.523 . S
H489 C464 0.950 . S
H490 C466 0.950 . S
H491 C467 0.949 . S
H492 C469 0.950 . S
H493 C471 0.950 . S
C494 C495 1.349 . S
C494 C496 1.327 . S
C494 H519 0.950 . S
C495 C494 1.349 . S
C495 C511 1.349 . S
C496 C494 1.327 . S
C496 C515 1.429 . S
C496 H520 0.950 . S
C497 C514 1.574 . S
C497 C516 1.368 . S
C497 H521 0.949 . S
H498 C502 0.949 . S
C499 C500 1.349 . S
C499 C501 1.327 . S
C499 H522 0.950 . S
C500 C499 1.349 . S
C500 C512 1.349 . S
C501 C499 1.327 . S
C501 C517 1.429 . S
C501 H523 0.950 . S
C502 H498 0.949 . S
C502 C510 1.574 . S
C502 C518 1.368 . S
H503 C511 0.950 . S
H504 C509 0.950 . S
H505 C510 0.949 . S
H506 C512 0.950 . S
H507 C513 0.950 . S
H508 C514 0.949 . S
C509 H504 0.950 . S
C509 C511 1.327 . S
C509 C515 1.429 . S
C510 C502 1.574 . S
C510 H505 0.949 . S
C510 C516 1.368 . S
C511 C495 1.349 . S
C511 H503 0.950 . S
C511 C509 1.327 . S
C512 C500 1.349 . S
C512 H506 0.950 . S
C512 C513 1.327 . S
C513 H507 0.950 . S
C513 C512 1.327 . S
C513 C517 1.429 . S
C514 C497 1.574 . S
C514 H508 0.949 . S
C514 C518 1.368 . S
C515 C496 1.429 . S
C515 C509 1.429 . S
C515 C516 1.523 . S
C516 C497 1.368 . S
C516 C510 1.368 . S
C516 C515 1.523 . S
C517 C501 1.429 . S
C517 C513 1.429 . S
C517 C518 1.523 . S
C518 C502 1.368 . S
C518 C514 1.368 . S
C518 C517 1.523 . S
H519 C494 0.950 . S
H520 C496 0.950 . S
H521 C497 0.949 . S
H522 C499 0.950 . S
H523 C501 0.950 . S
C524 C525 1.349 . S
C524 C526 1.327 . S
C524 H549 0.950 . S
C525 C524 1.349 . S
C525 C541 1.349 . S
C526 C524 1.327 . S
C526 C545 1.429 . S
C526 H550 0.950 . S
C527 C544 1.574 . S
C527 C546 1.368 . S
C527 H551 0.949 . S
H528 C532 0.949 . S
C529 C530 1.349 . S
C529 C531 1.327 . S
C529 H552 0.950 . S
C530 C529 1.349 . S
C530 C542 1.349 . S
C531 C529 1.327 . S
C531 C547 1.429 . S
C531 H553 0.950 . S
C532 H528 0.949 . S
C532 C540 1.574 . S
C532 C548 1.368 . S
H533 C541 0.950 . S
H534 C539 0.950 . S
H535 C540 0.949 . S
H536 C542 0.950 . S
H537 C543 0.950 . S
H538 C544 0.949 . S
C539 H534 0.950 . S
C539 C541 1.327 . S
C539 C545 1.429 . S
C540 C532 1.574 . S
C540 H535 0.949 . S
C540 C546 1.368 . S
C541 C525 1.349 . S
C541 H533 0.950 . S
C541 C539 1.327 . S
C542 C530 1.349 . S
C542 H536 0.950 . S
C542 C543 1.327 . S
C543 H537 0.950 . S
C543 C542 1.327 . S
C543 C547 1.429 . S
C544 C527 1.574 . S
C544 H538 0.949 . S
C544 C548 1.368 . S
C545 C526 1.429 . S
C545 C539 1.429 . S
C545 C546 1.523 . S
C546 C527 1.368 . S
C546 C540 1.368 . S
C546 C545 1.523 . S
C547 C531 1.429 . S
C547 C543 1.429 . S
C547 C548 1.523 . S
C548 C532 1.368 . S
C548 C544 1.368 . S
C548 C547 1.523 . S
H549 C524 0.950 . S
H550 C526 0.950 . S
H551 C527 0.949 . S
H552 C529 0.950 . S
H553 C531 0.950 . S
C554 C555 1.349 . S
C554 C556 1.327 . S
C554 H579 0.950 . S
C555 C554 1.349 . S
C555 C571 1.349 . S
C556 C554 1.327 . S
C556 C575 1.429 . S
C556 H580 0.950 . S
C557 C574 1.574 . S
C557 C576 1.368 . S
C557 H581 0.949 . S
H558 C562 0.949 . S
C559 C560 1.349 . S
C559 C561 1.327 . S
C559 H582 0.950 . S
C560 C559 1.349 . S
C560 C572 1.349 . S
C561 C559 1.327 . S
C561 C577 1.429 . S
C561 H583 0.950 . S
C562 H558 0.949 . S
C562 C570 1.574 . S
C562 C578 1.368 . S
H563 C571 0.950 . S
H564 C569 0.950 . S
H565 C570 0.949 . S
H566 C572 0.950 . S
H567 C573 0.950 . S
H568 C574 0.949 . S
C569 H564 0.950 . S
C569 C571 1.327 . S
C569 C575 1.429 . S
C570 C562 1.574 . S
C570 H565 0.949 . S
C570 C576 1.368 . S
C571 C555 1.349 . S
C571 H563 0.950 . S
C571 C569 1.327 . S
C572 C560 1.349 . S
C572 H566 0.950 . S
C572 C573 1.327 . S
C573 H567 0.950 . S
C573 C572 1.327 . S
C573 C577 1.429 . S
C574 C557 1.574 . S
C574 H568 0.949 . S
C574 C578 1.368 . S
C575 C556 1.429 . S
C575 C569 1.429 . S
C575 C576 1.523 . S
C576 C557 1.368 . S
C576 C570 1.368 . S
C576 C575 1.523 . S
C577 C561 1.429 . S
C577 C573 1.429 . S
C577 C578 1.523 . S
C578 C562 1.368 . S
C578 C574 1.368 . S
C578 C577 1.523 . S
H579 C554 0.950 . S
H580 C556 0.950 . S
H581 C557 0.949 . S
H582 C559 0.950 . S
H583 C561 0.950 . S
C105 C10 1.571 . S
C110 C29 1.572 . S
C135 C44 1.572 . S
C140 C23 1.571 . S
C165 C30 1.571 . S
C170 C5 1.572 . S
C195 C49 1.571 . S
C200 C18 1.572 . S
C225 C83 1.572 . S
C230 C56 1.571 . S
C255 C75 1.571 . S
C260 C96 1.572 . S
C285 C88 1.571 . S
C290 C55 1.572 . S
C315 C101 1.571 . S
C320 C70 1.572 . S
C345 C3 1.518 . S
C350 C57 1.518 . S
C375 C16 1.518 . S
C380 C68 1.518 . S
C405 C31 1.518 . S
C410 C81 1.518 . S
C435 C94 1.518 . S
C440 C42 1.518 . S
C465 C4 1.522 . S
C470 C17 1.522 . S
C495 C43 1.522 . S
C500 C36 1.522 . S
C525 C69 1.522 . S
C530 C62 1.522 . S
C555 C82 1.522 . S
C560 C95 1.522 . S
