# Generated by pormake.
# Topology umv, (4)-cn, num edge types: 1
# Building blocks:
#     Node 0, Type 0, BuildingBlock: CEKHIL_clean_sbu_0, # of connection points: 4
#     Node 1, Type 0, BuildingBlock: CEKHIL_clean_sbu_0, # of connection points: 4
#     Node 2, Type 0, BuildingBlock: CEKHIL_clean_sbu_0, # of connection points: 4
#     Node 3, Type 0, BuildingBlock: CEKHIL_clean_sbu_0, # of connection points: 4
#     Node 4, Type 0, BuildingBlock: CEKHIL_clean_sbu_0, # of connection points: 4
#     Node 5, Type 0, BuildingBlock: CEKHIL_clean_sbu_0, # of connection points: 4
#     Node 6, Type 0, BuildingBlock: CEKHIL_clean_sbu_0, # of connection points: 4
#     Node 7, Type 0, BuildingBlock: CEKHIL_clean_sbu_0, # of connection points: 4
#     Node 8, Type 0, BuildingBlock: CEKHIL_clean_sbu_0, # of connection points: 4
#     Node 9, Type 0, BuildingBlock: CEKHIL_clean_sbu_0, # of connection points: 4
#     Node 10, Type 0, BuildingBlock: CEKHIL_clean_sbu_0, # of connection points: 4
#     Node 11, Type 0, BuildingBlock: CEKHIL_clean_sbu_0, # of connection points: 4
#     Node 12, Type 0, BuildingBlock: CEKHIL_clean_sbu_0, # of connection points: 4
#     Node 13, Type 0, BuildingBlock: CEKHIL_clean_sbu_0, # of connection points: 4
#     Node 14, Type 0, BuildingBlock: CEKHIL_clean_sbu_0, # of connection points: 4
#     Node 15, Type 0, BuildingBlock: CEKHIL_clean_sbu_0, # of connection points: 4
#     Node 16, Type 0, BuildingBlock: CEKHIL_clean_sbu_0, # of connection points: 4
#     Node 17, Type 0, BuildingBlock: CEKHIL_clean_sbu_0, # of connection points: 4
#     Node 18, Type 0, BuildingBlock: CEKHIL_clean_sbu_0, # of connection points: 4
#     Node 19, Type 0, BuildingBlock: CEKHIL_clean_sbu_0, # of connection points: 4
#     Node 20, Type 0, BuildingBlock: CEKHIL_clean_sbu_0, # of connection points: 4
#     Node 21, Type 0, BuildingBlock: CEKHIL_clean_sbu_0, # of connection points: 4
#     Node 22, Type 0, BuildingBlock: CEKHIL_clean_sbu_0, # of connection points: 4
#     Node 23, Type 0, BuildingBlock: CEKHIL_clean_sbu_0, # of connection points: 4
#     Node 24, Type 0, BuildingBlock: CEKHIL_clean_sbu_0, # of connection points: 4
#     Node 25, Type 0, BuildingBlock: CEKHIL_clean_sbu_0, # of connection points: 4
#     Node 26, Type 0, BuildingBlock: CEKHIL_clean_sbu_0, # of connection points: 4
#     Node 27, Type 0, BuildingBlock: CEKHIL_clean_sbu_0, # of connection points: 4
#     Node 28, Type 0, BuildingBlock: CEKHIL_clean_sbu_0, # of connection points: 4
#     Node 29, Type 0, BuildingBlock: CEKHIL_clean_sbu_0, # of connection points: 4
#     Node 30, Type 0, BuildingBlock: CEKHIL_clean_sbu_0, # of connection points: 4
#     Node 31, Type 0, BuildingBlock: CEKHIL_clean_sbu_0, # of connection points: 4
#     Edge 32, Type (0, 0), BuildingBlock: UVAHIK_clean_linker_0, # of connection points: 2
#     Edge 33, Type (0, 0), BuildingBlock: UVAHIK_clean_linker_0, # of connection points: 2
#     Edge 34, Type (0, 0), BuildingBlock: UVAHIK_clean_linker_0, # of connection points: 2
#     Edge 35, Type (0, 0), BuildingBlock: UVAHIK_clean_linker_0, # of connection points: 2
#     Edge 36, Type (0, 0), BuildingBlock: UVAHIK_clean_linker_0, # of connection points: 2
#     Edge 37, Type (0, 0), BuildingBlock: UVAHIK_clean_linker_0, # of connection points: 2
#     Edge 38, Type (0, 0), BuildingBlock: UVAHIK_clean_linker_0, # of connection points: 2
#     Edge 39, Type (0, 0), BuildingBlock: UVAHIK_clean_linker_0, # of connection points: 2
#     Edge 40, Type (0, 0), BuildingBlock: UVAHIK_clean_linker_0, # of connection points: 2
#     Edge 41, Type (0, 0), BuildingBlock: UVAHIK_clean_linker_0, # of connection points: 2
#     Edge 42, Type (0, 0), BuildingBlock: UVAHIK_clean_linker_0, # of connection points: 2
#     Edge 43, Type (0, 0), BuildingBlock: UVAHIK_clean_linker_0, # of connection points: 2
#     Edge 44, Type (0, 0), BuildingBlock: UVAHIK_clean_linker_0, # of connection points: 2
#     Edge 45, Type (0, 0), BuildingBlock: UVAHIK_clean_linker_0, # of connection points: 2
#     Edge 46, Type (0, 0), BuildingBlock: UVAHIK_clean_linker_0, # of connection points: 2
#     Edge 47, Type (0, 0), BuildingBlock: UVAHIK_clean_linker_0, # of connection points: 2
#     Edge 48, Type (0, 0), BuildingBlock: UVAHIK_clean_linker_0, # of connection points: 2
#     Edge 49, Type (0, 0), BuildingBlock: UVAHIK_clean_linker_0, # of connection points: 2
#     Edge 50, Type (0, 0), BuildingBlock: UVAHIK_clean_linker_0, # of connection points: 2
#     Edge 51, Type (0, 0), BuildingBlock: UVAHIK_clean_linker_0, # of connection points: 2
#     Edge 52, Type (0, 0), BuildingBlock: UVAHIK_clean_linker_0, # of connection points: 2
#     Edge 53, Type (0, 0), BuildingBlock: UVAHIK_clean_linker_0, # of connection points: 2
#     Edge 54, Type (0, 0), BuildingBlock: UVAHIK_clean_linker_0, # of connection points: 2
#     Edge 55, Type (0, 0), BuildingBlock: UVAHIK_clean_linker_0, # of connection points: 2
#     Edge 56, Type (0, 0), BuildingBlock: UVAHIK_clean_linker_0, # of connection points: 2
#     Edge 57, Type (0, 0), BuildingBlock: UVAHIK_clean_linker_0, # of connection points: 2
#     Edge 58, Type (0, 0), BuildingBlock: UVAHIK_clean_linker_0, # of connection points: 2
#     Edge 59, Type (0, 0), BuildingBlock: UVAHIK_clean_linker_0, # of connection points: 2
#     Edge 60, Type (0, 0), BuildingBlock: UVAHIK_clean_linker_0, # of connection points: 2
#     Edge 61, Type (0, 0), BuildingBlock: UVAHIK_clean_linker_0, # of connection points: 2
#     Edge 62, Type (0, 0), BuildingBlock: UVAHIK_clean_linker_0, # of connection points: 2
#     Edge 63, Type (0, 0), BuildingBlock: UVAHIK_clean_linker_0, # of connection points: 2
#     Edge 64, Type (0, 0), BuildingBlock: UVAHIK_clean_linker_0, # of connection points: 2
#     Edge 65, Type (0, 0), BuildingBlock: UVAHIK_clean_linker_0, # of connection points: 2
#     Edge 66, Type (0, 0), BuildingBlock: UVAHIK_clean_linker_0, # of connection points: 2
#     Edge 67, Type (0, 0), BuildingBlock: UVAHIK_clean_linker_0, # of connection points: 2
#     Edge 68, Type (0, 0), BuildingBlock: UVAHIK_clean_linker_0, # of connection points: 2
#     Edge 69, Type (0, 0), BuildingBlock: UVAHIK_clean_linker_0, # of connection points: 2
#     Edge 70, Type (0, 0), BuildingBlock: UVAHIK_clean_linker_0, # of connection points: 2
#     Edge 71, Type (0, 0), BuildingBlock: UVAHIK_clean_linker_0, # of connection points: 2
#     Edge 72, Type (0, 0), BuildingBlock: UVAHIK_clean_linker_0, # of connection points: 2
#     Edge 73, Type (0, 0), BuildingBlock: UVAHIK_clean_linker_0, # of connection points: 2
#     Edge 74, Type (0, 0), BuildingBlock: UVAHIK_clean_linker_0, # of connection points: 2
#     Edge 75, Type (0, 0), BuildingBlock: UVAHIK_clean_linker_0, # of connection points: 2
#     Edge 76, Type (0, 0), BuildingBlock: UVAHIK_clean_linker_0, # of connection points: 2
#     Edge 77, Type (0, 0), BuildingBlock: UVAHIK_clean_linker_0, # of connection points: 2
#     Edge 78, Type (0, 0), BuildingBlock: UVAHIK_clean_linker_0, # of connection points: 2
#     Edge 79, Type (0, 0), BuildingBlock: UVAHIK_clean_linker_0, # of connection points: 2
#     Edge 80, Type (0, 0), BuildingBlock: UVAHIK_clean_linker_0, # of connection points: 2
#     Edge 81, Type (0, 0), BuildingBlock: UVAHIK_clean_linker_0, # of connection points: 2
#     Edge 82, Type (0, 0), BuildingBlock: UVAHIK_clean_linker_0, # of connection points: 2
#     Edge 83, Type (0, 0), BuildingBlock: UVAHIK_clean_linker_0, # of connection points: 2
#     Edge 84, Type (0, 0), BuildingBlock: UVAHIK_clean_linker_0, # of connection points: 2
#     Edge 85, Type (0, 0), BuildingBlock: UVAHIK_clean_linker_0, # of connection points: 2
#     Edge 86, Type (0, 0), BuildingBlock: UVAHIK_clean_linker_0, # of connection points: 2
#     Edge 87, Type (0, 0), BuildingBlock: UVAHIK_clean_linker_0, # of connection points: 2
#     Edge 88, Type (0, 0), BuildingBlock: UVAHIK_clean_linker_0, # of connection points: 2
#     Edge 89, Type (0, 0), BuildingBlock: UVAHIK_clean_linker_0, # of connection points: 2
#     Edge 90, Type (0, 0), BuildingBlock: UVAHIK_clean_linker_0, # of connection points: 2
#     Edge 91, Type (0, 0), BuildingBlock: UVAHIK_clean_linker_0, # of connection points: 2
#     Edge 92, Type (0, 0), BuildingBlock: UVAHIK_clean_linker_0, # of connection points: 2
#     Edge 93, Type (0, 0), BuildingBlock: UVAHIK_clean_linker_0, # of connection points: 2
#     Edge 94, Type (0, 0), BuildingBlock: UVAHIK_clean_linker_0, # of connection points: 2
#     Edge 95, Type (0, 0), BuildingBlock: UVAHIK_clean_linker_0, # of connection points: 2
# Relax obj value: 0.131
# Max RMSD: 0.111
# Mean RMSD: 0.111
data_MOF--net-umv--node1-CEKHIL_clean_sbu_0--edge1-UVAHIK_clean_linker_0
_symmetry_space_group_name_H-M    P1
_symmetry_Int_Tables_number       1
_symmetry_cell_setting            triclinic
loop_
_symmetry_equiv_pos_as_xyz
'x, y, z'
_cell_length_a     135.4904
_cell_length_b     33.123039
_cell_length_c     74.003352
_cell_angle_alpha  89.978224
_cell_angle_beta   90.004271
_cell_angle_gamma 89.992255
loop_
_atom_site_label
_atom_site_type_symbol
_atom_site_fract_x
_atom_site_fract_y
_atom_site_fract_z
_atom_type_partial_charge
Co0 Co 0.05641 0.1084 0.31294 0.0
O1 O 0.04226 0.11403 0.31152 0.0
O2 O 0.05277 0.13645 0.29096 0.0
C3 C 0.05668 0.04346 0.32199 0.0
O4 O 0.07143 0.10721 0.30945 0.0
Co5 Co 0.06661 0.08939 0.34991 0.0
O6 O 0.07853 0.08257 0.33468 0.0
C7 C 0.05725 0.16804 0.3435 0.0
C8 C 0.04367 0.13326 0.29644 0.0
C9 C 0.07901 0.09437 0.31832 0.0
O10 O 0.05713 0.16123 0.32638 0.0
O11 O 0.05975 0.14146 0.35519 0.0
O12 O 0.05555 0.05164 0.3049 0.0
O13 O 0.05663 0.074 0.33267 0.0
Co14 Co 0.20281 0.13029 0.31464 0.0
O15 O 0.21696 0.12648 0.31221 0.0
O16 O 0.20618 0.10353 0.29223 0.0
C17 C 0.20222 0.19473 0.32422 0.0
O18 O 0.18775 0.12976 0.31215 0.0
Co19 Co 0.19319 0.1463 0.35236 0.0
O20 O 0.18093 0.15225 0.33801 0.0
C21 C 0.20348 0.07016 0.34483 0.0
C22 C 0.21535 0.10753 0.29713 0.0
C23 C 0.18023 0.14118 0.32157 0.0
O24 O 0.20283 0.07697 0.32775 0.0
O25 O 0.20103 0.09611 0.35682 0.0
O26 O 0.20308 0.18738 0.307 0.0
O27 O 0.20273 0.16382 0.33465 0.0
Co28 Co 0.06132 0.1197 0.94342 0.0
O29 O 0.04721 0.11282 0.94473 0.0
O30 O 0.05771 0.09461 0.96613 0.0
C31 C 0.06105 0.18313 0.93243 0.0
O32 O 0.07632 0.12293 0.94709 0.0
Co33 Co 0.07185 0.13538 0.90651 0.0
O34 O 0.08298 0.15128 0.92227 0.0
C35 C 0.06326 0.0557 0.91475 0.0
C36 C 0.04863 0.09604 0.96037 0.0
C37 C 0.08362 0.13921 0.93857 0.0
O38 O 0.06238 0.06522 0.93154 0.0
O39 O 0.06611 0.08056 0.90259 0.0
O40 O 0.06003 0.17732 0.94974 0.0
O41 O 0.06138 0.15106 0.9227 0.0
Co42 Co 0.20825 0.10042 0.94038 0.0
O43 O 0.2221 0.10585 0.94533 0.0
O44 O 0.21017 0.1253 0.96382 0.0
C45 C 0.20921 0.03714 0.92949 0.0
O46 O 0.19316 0.09863 0.94006 0.0
Co47 Co 0.20087 0.08552 0.90101 0.0
O48 O 0.18792 0.07678 0.91293 0.0
C49 C 0.20938 0.1639 0.91158 0.0
C50 C 0.21958 0.12303 0.96039 0.0
C51 C 0.18625 0.08712 0.92925 0.0
O52 O 0.20837 0.15498 0.9284 0.0
O53 O 0.2078 0.13871 0.89878 0.0
O54 O 0.20858 0.04264 0.94689 0.0
O55 O 0.20982 0.06926 0.91988 0.0
Co56 Co 0.95247 0.87444 0.68659 0.0
O57 O 0.96631 0.86832 0.69141 0.0
O58 O 0.9544 0.8465 0.70938 0.0
C59 C 0.95364 0.93892 0.67746 0.0
O60 O 0.93736 0.87639 0.68625 0.0
Co61 Co 0.94503 0.89469 0.6478 0.0
O62 O 0.9321 0.9024 0.65986 0.0
C63 C 0.95372 0.81523 0.65616 0.0
C64 C 0.96381 0.84938 0.70604 0.0
C65 C 0.93044 0.88966 0.67584 0.0
O66 O 0.95263 0.8217 0.67318 0.0
O67 O 0.95207 0.84209 0.64408 0.0
O68 O 0.95288 0.93113 0.69466 0.0
O69 O 0.95412 0.90822 0.66693 0.0
Co70 Co 0.80503 0.85825 0.69299 0.0
O71 O 0.79122 0.86657 0.69752 0.0
O72 O 0.80322 0.8887 0.7152 0.0
C73 C 0.80342 0.79298 0.68528 0.0
O74 O 0.82012 0.8544 0.69278 0.0
Co75 Co 0.81233 0.83259 0.65472 0.0
O76 O 0.82506 0.82326 0.66731 0.0
C77 C 0.80509 0.91534 0.66134 0.0
C78 C 0.79379 0.88647 0.71184 0.0
C79 C 0.82687 0.83825 0.68283 0.0
O80 O 0.80541 0.90959 0.67853 0.0
O81 O 0.80664 0.88735 0.64974 0.0
O82 O 0.80418 0.80255 0.70228 0.0
O83 O 0.80315 0.82255 0.67408 0.0
Co84 Co 0.95672 0.85402 0.06396 0.0
O85 O 0.97081 0.86127 0.0625 0.0
O86 O 0.96021 0.87952 0.04127 0.0
C87 C 0.95746 0.79067 0.07491 0.0
O88 O 0.94176 0.85095 0.06029 0.0
Co89 Co 0.94597 0.83608 0.1003 0.0
O90 O 0.93453 0.82313 0.08464 0.0
C91 C 0.95439 0.91695 0.09285 0.0
C92 C 0.9693 0.87825 0.04693 0.0
C93 C 0.93418 0.83605 0.06844 0.0
O94 O 0.95557 0.9081 0.07606 0.0
O95 O 0.95145 0.89142 0.10469 0.0
O96 O 0.95803 0.79646 0.05753 0.0
O97 O 0.95688 0.8226 0.08467 0.0
Co98 Co 0.81017 0.87534 0.06301 0.0
O99 O 0.79597 0.87031 0.06344 0.0
O100 O 0.80558 0.84911 0.04121 0.0
C101 C 0.8108 0.93956 0.07285 0.0
O102 O 0.82499 0.87583 0.05746 0.0
Co103 Co 0.82224 0.89232 0.09817 0.0
O104 O 0.8332 0.90266 0.08105 0.0
C105 C 0.81295 0.8128 0.0922 0.0
C106 C 0.79674 0.85232 0.04791 0.0
C107 C 0.8329 0.88975 0.06486 0.0
O108 O 0.81133 0.82169 0.07553 0.0
O109 O 0.81643 0.83805 0.10365 0.0
O110 O 0.80905 0.93246 0.05585 0.0
O111 O 0.81128 0.90838 0.08315 0.0
Co112 Co 0.0527 0.60351 0.81504 0.0
O113 O 0.03865 0.60972 0.81249 0.0
O114 O 0.04966 0.62889 0.79212 0.0
C115 C 0.05191 0.54016 0.82589 0.0
O116 O 0.06773 0.60115 0.81267 0.0
Co117 Co 0.06242 0.58607 0.85248 0.0
O118 O 0.07427 0.57338 0.83774 0.0
C119 C 0.05323 0.66505 0.84439 0.0
C120 C 0.04045 0.62678 0.79706 0.0
C121 C 0.07504 0.58608 0.82155 0.0
O122 O 0.05334 0.65751 0.82733 0.0
O123 O 0.05559 0.63908 0.85646 0.0
O124 O 0.05175 0.54586 0.80847 0.0
O125 O 0.05213 0.57214 0.83563 0.0
Co126 Co 0.19985 0.61887 0.81336 0.0
O127 O 0.21406 0.61509 0.81229 0.0
O128 O 0.20386 0.59126 0.79154 0.0
C129 C 0.1991 0.68372 0.82229 0.0
O130 O 0.18487 0.61771 0.80945 0.0
Co131 Co 0.18886 0.63713 0.84952 0.0
O132 O 0.17737 0.64612 0.83343 0.0
C133 C 0.19863 0.55863 0.84382 0.0
C134 C 0.21288 0.59559 0.79722 0.0
C135 C 0.17716 0.63196 0.81743 0.0
O136 O 0.19949 0.56619 0.82683 0.0
O137 O 0.19535 0.58432 0.85526 0.0
O138 O 0.20035 0.67549 0.80523 0.0
O139 O 0.19919 0.6533 0.83307 0.0
Co140 Co 0.05842 0.62904 0.44186 0.0
O141 O 0.0446 0.6187 0.44516 0.0
O142 O 0.05621 0.60151 0.46471 0.0
C143 C 0.05625 0.69262 0.43202 0.0
O144 O 0.07346 0.63573 0.4432 0.0
Co145 Co 0.06681 0.65107 0.4039 0.0
O146 O 0.07881 0.66562 0.41772 0.0
C147 C 0.0602 0.5679 0.41197 0.0
C148 C 0.0469 0.60142 0.4603 0.0
C149 C 0.0803 0.65261 0.4337 0.0
O150 O 0.05976 0.57593 0.42897 0.0
O151 O 0.06204 0.59455 0.39989 0.0
O152 O 0.05663 0.68571 0.44933 0.0
O153 O 0.05677 0.66154 0.42173 0.0
Co154 Co 0.20559 0.61189 0.4425 0.0
O155 O 0.2195 0.61946 0.44624 0.0
O156 O 0.20793 0.63928 0.46535 0.0
C157 C 0.207 0.54778 0.43281 0.0
O158 O 0.19047 0.60823 0.44331 0.0
Co159 Co 0.1974 0.59134 0.40417 0.0
O160 O 0.18508 0.57958 0.41758 0.0
C161 C 0.20491 0.67306 0.41241 0.0
C162 C 0.21727 0.63752 0.46122 0.0
C163 C 0.18355 0.59279 0.43352 0.0
O164 O 0.20504 0.66509 0.42943 0.0
O165 O 0.20291 0.64672 0.40028 0.0
O166 O 0.20659 0.5549 0.4501 0.0
O167 O 0.20702 0.57891 0.42251 0.0
Co168 Co 0.95217 0.37 0.19086 0.0
O169 O 0.96609 0.37104 0.1961 0.0
O170 O 0.95478 0.34311 0.21366 0.0
C171 C 0.95071 0.43449 0.18161 0.0
O172 O 0.9371 0.36404 0.18994 0.0
Co173 Co 0.94527 0.38403 0.15095 0.0
O174 O 0.93194 0.37859 0.16168 0.0
C175 C 0.95617 0.31118 0.16086 0.0
C176 C 0.96407 0.3504 0.21055 0.0
C177 C 0.93022 0.36875 0.17805 0.0
O178 O 0.9541 0.31745 0.1776 0.0
O179 O 0.95438 0.33691 0.1484 0.0
O180 O 0.95068 0.42661 0.19885 0.0
O181 O 0.95264 0.40449 0.17124 0.0
Co182 Co 0.80418 0.35308 0.19121 0.0
O183 O 0.79042 0.36276 0.19552 0.0
O184 O 0.80241 0.38252 0.21374 0.0
C185 C 0.80222 0.28838 0.18275 0.0
O186 O 0.81925 0.3473 0.19118 0.0
Co187 Co 0.81128 0.32884 0.15257 0.0
O188 O 0.82386 0.31727 0.16524 0.0
C189 C 0.80467 0.41199 0.16016 0.0
C190 C 0.793 0.38164 0.2101 0.0
C191 C 0.82584 0.3308 0.18096 0.0
O192 O 0.80497 0.40524 0.17729 0.0
O193 O 0.80599 0.38447 0.14826 0.0
O194 O 0.80293 0.29695 0.19986 0.0
O195 O 0.80213 0.31861 0.17192 0.0
Co196 Co 0.95457 0.35599 0.55928 0.0
O197 O 0.9688 0.35948 0.55944 0.0
O198 O 0.95914 0.38229 0.53757 0.0
C199 C 0.95339 0.29171 0.56879 0.0
O200 O 0.93977 0.35738 0.55391 0.0
Co201 Co 0.94253 0.34007 0.59454 0.0
O202 O 0.93136 0.33216 0.57759 0.0
C203 C 0.95258 0.41796 0.58886 0.0
C204 C 0.968 0.37824 0.54408 0.0
C205 C 0.93174 0.34488 0.56136 0.0
O206 O 0.95389 0.40942 0.57208 0.0
O207 O 0.949 0.39291 0.60029 0.0
O208 O 0.95519 0.29897 0.55181 0.0
O209 O 0.95327 0.32264 0.57927 0.0
Co210 Co 0.8098 0.3786 0.565 0.0
O211 O 0.79571 0.37029 0.56659 0.0
O212 O 0.805 0.35381 0.54311 0.0
C213 C 0.80992 0.44167 0.57623 0.0
O214 O 0.82436 0.38299 0.55804 0.0
Co215 Co 0.82278 0.3944 0.59909 0.0
O216 O 0.83293 0.41007 0.5811 0.0
C217 C 0.81412 0.31394 0.59248 0.0
C218 C 0.79632 0.35415 0.55063 0.0
C219 C 0.83226 0.39853 0.56474 0.0
O220 O 0.81197 0.32402 0.57616 0.0
O221 O 0.81768 0.3387 0.60406 0.0
O222 O 0.80777 0.43603 0.55927 0.0
O223 O 0.8111 0.40957 0.58576 0.0
Co224 Co 0.55735 0.11424 0.81122 0.0
O225 O 0.54325 0.12215 0.81089 0.0
O226 O 0.55331 0.13816 0.78848 0.0
C227 C 0.55696 0.05165 0.82323 0.0
O228 O 0.57223 0.10961 0.80637 0.0
Co229 Co 0.56887 0.09883 0.84721 0.0
O230 O 0.57937 0.08049 0.83055 0.0
C231 C 0.56055 0.17937 0.83891 0.0
C232 C 0.54438 0.13781 0.79494 0.0
C233 C 0.57963 0.0924 0.81419 0.0
O234 O 0.55893 0.16928 0.82237 0.0
O235 O 0.56376 0.15478 0.85091 0.0
O236 O 0.55569 0.0562 0.80589 0.0
O237 O 0.55774 0.08442 0.83234 0.0
Co238 Co 0.70347 0.13762 0.81456 0.0
O239 O 0.71763 0.13334 0.81271 0.0
O240 O 0.70704 0.10935 0.79263 0.0
C241 C 0.70293 0.20268 0.82323 0.0
O242 O 0.68843 0.13725 0.81162 0.0
Co243 Co 0.69368 0.15651 0.8519 0.0
O244 O 0.68149 0.16056 0.83723 0.0
C245 C 0.7033 0.07844 0.84542 0.0
C246 C 0.71616 0.11354 0.79781 0.0
C247 C 0.68085 0.14869 0.82088 0.0
O248 O 0.7032 0.08506 0.82828 0.0
O249 O 0.70083 0.10501 0.85712 0.0
O250 O 0.70393 0.19417 0.80615 0.0
O251 O 0.70329 0.17248 0.83409 0.0
Co252 Co 0.55902 0.12436 0.4415 0.0
O253 O 0.54504 0.12571 0.44612 0.0
O254 O 0.55613 0.09831 0.46434 0.0
C255 C 0.56063 0.1885 0.43194 0.0
O256 O 0.57407 0.11824 0.44126 0.0
Co257 Co 0.56641 0.1371 0.4018 0.0
O258 O 0.57959 0.13133 0.41308 0.0
C259 C 0.55544 0.06444 0.41172 0.0
C260 C 0.54689 0.10563 0.46081 0.0
C261 C 0.58109 0.12217 0.4296 0.0
O262 O 0.55724 0.07136 0.42851 0.0
O263 O 0.55738 0.08976 0.39916 0.0
O264 O 0.56043 0.18114 0.44922 0.0
O265 O 0.5588 0.15824 0.42165 0.0
Co266 Co 0.7072 0.10599 0.4453 0.0
O267 O 0.72099 0.11251 0.45028 0.0
O268 O 0.70901 0.12971 0.46909 0.0
C269 C 0.70856 0.04348 0.43354 0.0
O270 O 0.6921 0.10246 0.44468 0.0
Co271 Co 0.7003 0.09278 0.40534 0.0
O272 O 0.68751 0.08038 0.41713 0.0
C273 C 0.70839 0.17078 0.41728 0.0
C274 C 0.71843 0.12853 0.46556 0.0
C275 C 0.6855 0.0897 0.43346 0.0
O276 O 0.70699 0.16121 0.43394 0.0
O277 O 0.70725 0.14604 0.40416 0.0
O278 O 0.70794 0.0477 0.45101 0.0
O279 O 0.709 0.07641 0.4245 0.0
Co280 Co 0.45334 0.88271 0.19247 0.0
O281 O 0.46722 0.87129 0.19427 0.0
O282 O 0.45622 0.85707 0.21545 0.0
C283 C 0.45541 0.94516 0.18124 0.0
O284 O 0.43846 0.89082 0.19569 0.0
Co285 Co 0.44342 0.90243 0.15556 0.0
O286 O 0.43199 0.91853 0.17061 0.0
C287 C 0.45011 0.81946 0.16399 0.0
C288 C 0.46535 0.85561 0.20997 0.0
C289 C 0.43123 0.90703 0.18698 0.0
O290 O 0.45126 0.82868 0.18075 0.0
O291 O 0.44785 0.84534 0.15181 0.0
O292 O 0.45569 0.93975 0.19867 0.0
O293 O 0.45433 0.9133 0.17158 0.0
Co294 Co 0.30735 0.86643 0.19412 0.0
O295 O 0.2932 0.86941 0.19664 0.0
O296 O 0.30394 0.89356 0.21641 0.0
C297 C 0.30817 0.80179 0.18489 0.0
O298 O 0.32241 0.8681 0.19643 0.0
Co299 Co 0.31688 0.85007 0.15634 0.0
O300 O 0.32923 0.84552 0.17057 0.0
C301 C 0.30653 0.92612 0.16369 0.0
C302 C 0.29477 0.88889 0.2116 0.0
C303 C 0.32994 0.85713 0.18694 0.0
O304 O 0.30712 0.91941 0.18078 0.0
O305 O 0.30901 0.90013 0.15174 0.0
O306 O 0.30733 0.80954 0.20207 0.0
O307 O 0.30751 0.83237 0.17429 0.0
Co308 Co 0.45672 0.85303 0.56417 0.0
O309 O 0.47066 0.86394 0.56275 0.0
O310 O 0.45973 0.88163 0.54198 0.0
C311 C 0.45852 0.78905 0.57371 0.0
O312 O 0.44183 0.84641 0.56063 0.0
Co313 Co 0.4465 0.82874 0.60023 0.0
O314 O 0.43531 0.81336 0.58435 0.0
C315 C 0.45319 0.9128 0.59411 0.0
C316 C 0.46885 0.88191 0.54752 0.0
C317 C 0.43462 0.8281 0.5685 0.0
O318 O 0.45473 0.90543 0.57728 0.0
O319 O 0.45067 0.88563 0.60555 0.0
O320 O 0.45888 0.79678 0.55647 0.0
O321 O 0.45751 0.8196 0.58422 0.0
Co322 Co 0.31034 0.87443 0.56302 0.0
O323 O 0.2961 0.87145 0.56232 0.0
O324 O 0.30606 0.84774 0.54114 0.0
C325 C 0.31135 0.93897 0.57235 0.0
O326 O 0.32526 0.87242 0.55867 0.0
Co327 Co 0.32172 0.89105 0.59894 0.0
O328 O 0.33317 0.89897 0.58264 0.0
C329 C 0.31168 0.81315 0.59302 0.0
C330 C 0.2971 0.85236 0.5471 0.0
C331 C 0.33314 0.88533 0.56655 0.0
O332 O 0.31066 0.82131 0.57612 0.0
O333 O 0.31512 0.83838 0.60452 0.0
O334 O 0.30994 0.93136 0.55528 0.0
O335 O 0.31128 0.90821 0.58293 0.0
Co336 Co 0.5558 0.60721 0.314 0.0
O337 O 0.54169 0.61442 0.31301 0.0
O338 O 0.55212 0.63295 0.29153 0.0
C339 C 0.55515 0.54375 0.32472 0.0
O340 O 0.57068 0.60434 0.30977 0.0
Co341 Co 0.56699 0.58869 0.34976 0.0
O342 O 0.57831 0.57648 0.33368 0.0
C343 C 0.55845 0.66967 0.34299 0.0
C344 C 0.54308 0.63154 0.29743 0.0
C345 C 0.57841 0.58969 0.31752 0.0
O346 O 0.55706 0.66108 0.32622 0.0
O347 O 0.56156 0.64396 0.35461 0.0
O348 O 0.55443 0.54985 0.30738 0.0
O349 O 0.55585 0.57545 0.33461 0.0
Co350 Co 0.70114 0.62175 0.31414 0.0
O351 O 0.71521 0.61257 0.31537 0.0
O352 O 0.7058 0.59822 0.2918 0.0
C353 C 0.7016 0.68393 0.32648 0.0
O354 O 0.68653 0.6273 0.30747 0.0
Co355 Co 0.68814 0.63843 0.34816 0.0
O356 O 0.67827 0.65688 0.33025 0.0
C357 C 0.69611 0.55658 0.34085 0.0
C358 C 0.71451 0.5978 0.29916 0.0
C359 C 0.67877 0.64434 0.31403 0.0
O360 O 0.69881 0.56677 0.3248 0.0
O361 O 0.69245 0.5814 0.3523 0.0
O362 O 0.7034 0.6796 0.3093 0.0
O363 O 0.70013 0.65116 0.33534 0.0
Co364 Co 0.55664 0.62427 0.93973 0.0
O365 O 0.54279 0.62514 0.94536 0.0
O366 O 0.55442 0.60233 0.9637 0.0
C367 C 0.55732 0.68647 0.92731 0.0
O368 O 0.57173 0.6196 0.93859 0.0
Co369 Co 0.56331 0.63056 0.89934 0.0
O370 O 0.57675 0.62922 0.90984 0.0
C371 C 0.55227 0.56058 0.91256 0.0
C372 C 0.54506 0.60781 0.96053 0.0
C373 C 0.57857 0.62277 0.92651 0.0
O374 O 0.55486 0.56903 0.92885 0.0
O375 O 0.55382 0.58428 0.89921 0.0
O376 O 0.55783 0.68277 0.94483 0.0
O377 O 0.55565 0.65367 0.91867 0.0
Co378 Co 0.70466 0.61601 0.9429 0.0
O379 O 0.71849 0.62556 0.94648 0.0
O380 O 0.70687 0.64366 0.96579 0.0
C381 C 0.70667 0.55217 0.9333 0.0
O382 O 0.68958 0.60986 0.94372 0.0
Co383 Co 0.69677 0.59425 0.9045 0.0
O384 O 0.68467 0.57962 0.91801 0.0
C385 C 0.70326 0.67735 0.91287 0.0
C386 C 0.7162 0.64303 0.96156 0.0
C387 C 0.68291 0.59268 0.93389 0.0
O388 O 0.70358 0.66915 0.92987 0.0
O389 O 0.70153 0.65082 0.90069 0.0
O390 O 0.70619 0.55932 0.95057 0.0
O391 O 0.70641 0.5832 0.92293 0.0
Co392 Co 0.45091 0.3743 0.6928 0.0
O393 O 0.46505 0.36924 0.69469 0.0
O394 O 0.45444 0.34712 0.71513 0.0
C395 C 0.4507 0.43894 0.68332 0.0
O396 O 0.43584 0.375 0.69563 0.0
Co397 Co 0.44114 0.39203 0.65529 0.0
O398 O 0.42909 0.39969 0.67006 0.0
C399 C 0.45054 0.31371 0.66263 0.0
C400 C 0.46358 0.35051 0.70986 0.0
C401 C 0.42837 0.38774 0.68638 0.0
O402 O 0.45045 0.32107 0.67971 0.0
O403 O 0.44813 0.33982 0.65067 0.0
O404 O 0.45161 0.43132 0.7005 0.0
O405 O 0.45088 0.40805 0.67285 0.0
Co406 Co 0.30381 0.35522 0.69094 0.0
O407 O 0.28986 0.36192 0.69469 0.0
O408 O 0.30138 0.38153 0.71396 0.0
C409 C 0.30274 0.29139 0.68071 0.0
O410 O 0.31891 0.35228 0.69193 0.0
Co411 Co 0.31224 0.33704 0.65258 0.0
O412 O 0.32474 0.32703 0.6658 0.0
C413 C 0.30375 0.41674 0.66127 0.0
C414 C 0.29205 0.37953 0.70982 0.0
C415 C 0.32602 0.33878 0.68204 0.0
O416 O 0.30421 0.40897 0.67829 0.0
O417 O 0.30564 0.3906 0.64901 0.0
O418 O 0.30302 0.29786 0.69806 0.0
O419 O 0.3026 0.32294 0.67066 0.0
Co420 Co 0.45372 0.36279 0.06367 0.0
O421 O 0.46792 0.36717 0.06233 0.0
O422 O 0.45751 0.39139 0.04198 0.0
C423 C 0.4531 0.29752 0.07214 0.0
O424 O 0.43874 0.3636 0.06006 0.0
Co425 Co 0.44308 0.34274 0.10007 0.0
O426 O 0.43128 0.33648 0.08443 0.0
C427 C 0.4529 0.42104 0.09473 0.0
C428 C 0.46658 0.3872 0.04742 0.0
C429 C 0.43105 0.35025 0.06837 0.0
O430 O 0.45326 0.41494 0.07757 0.0
O431 O 0.45007 0.39425 0.10606 0.0
O432 O 0.45428 0.30636 0.05513 0.0
O433 O 0.45324 0.32756 0.08311 0.0
Co434 Co 0.30671 0.38457 0.06623 0.0
O435 O 0.2927 0.37622 0.06409 0.0
O436 O 0.30373 0.35797 0.04359 0.0
C437 C 0.30544 0.44806 0.0766 0.0
O438 O 0.32168 0.38868 0.06338 0.0
Co439 Co 0.31671 0.40421 0.10303 0.0
O440 O 0.32843 0.41707 0.08805 0.0
C441 C 0.30874 0.32267 0.09562 0.0
C442 C 0.29455 0.35872 0.04877 0.0
C443 C 0.32908 0.40393 0.07191 0.0
O444 O 0.3079 0.33104 0.07872 0.0
O445 O 0.31132 0.34868 0.10753 0.0
O446 O 0.30523 0.44164 0.05923 0.0
O447 O 0.30602 0.41662 0.08669 0.0
C448 C 0.0963 0.06902 0.31646 0.0
C449 C 0.08893 0.09499 0.30987 0.0
C450 C 0.10607 0.07299 0.31076 0.0
C451 C 0.1262 0.07948 0.29351 0.0
H452 H 0.13572 0.18938 0.29782 0.0
C453 C 0.16795 0.11557 0.29863 0.0
C454 C 0.17021 0.14033 0.3135 0.0
C455 C 0.15818 0.11189 0.29256 0.0
C456 C 0.13318 0.15853 0.29641 0.0
H457 H 0.08593 0.1441 0.29132 0.0
H458 H 0.10312 0.15136 0.28139 0.0
H459 H 0.11802 0.17652 0.29695 0.0
H460 H 0.16405 0.1824 0.33295 0.0
H461 H 0.14718 0.176 0.32248 0.0
H462 H 0.14137 0.06133 0.29418 0.0
C463 C 0.1013 0.12795 0.29105 0.0
C464 C 0.12302 0.15118 0.29571 0.0
C465 C 0.09145 0.12365 0.29664 0.0
C466 C 0.16258 0.16279 0.32155 0.0
C467 C 0.15288 0.15944 0.31541 0.0
C468 C 0.13637 0.08684 0.29419 0.0
C469 C 0.10875 0.10325 0.2984 0.0
C470 C 0.1194 0.11144 0.295 0.0
C471 C 0.15051 0.13338 0.30108 0.0
C472 C 0.13996 0.12634 0.29641 0.0
H473 H 0.09459 0.04638 0.32656 0.0
H474 H 0.1116 0.05373 0.31688 0.0
H475 H 0.12365 0.04854 0.29267 0.0
H476 H 0.17366 0.09788 0.29213 0.0
H477 H 0.15659 0.09172 0.28142 0.0
C478 C 0.16826 0.07493 0.92376 0.0
C479 C 0.17579 0.08851 0.93535 0.0
C480 C 0.15836 0.08049 0.92822 0.0
C481 C 0.14035 0.10099 0.96392 0.0
H482 H 0.12591 0.15127 0.92466 0.0
C483 C 0.09984 0.17282 0.94259 0.0
C484 C 0.09354 0.1405 0.94681 0.0
C485 C 0.10995 0.17005 0.94587 0.0
C486 C 0.12982 0.13774 0.9359 0.0
H487 H 0.17871 0.11639 0.96136 0.0
H488 H 0.16126 0.12598 0.96916 0.0
H489 H 0.14335 0.13701 0.9211 0.0
H490 H 0.09272 0.0814 0.95922 0.0
H491 H 0.11054 0.07611 0.96468 0.0
H492 H 0.12662 0.10119 0.97856 0.0
C493 C 0.16313 0.11113 0.95658 0.0
C494 C 0.13981 0.12912 0.93375 0.0
C495 C 0.17311 0.10574 0.95206 0.0
C496 C 0.09742 0.10681 0.95592 0.0
C497 C 0.10762 0.1038 0.95902 0.0
C498 C 0.13024 0.10927 0.96603 0.0
C499 C 0.15568 0.09962 0.94442 0.0
C500 C 0.14517 0.11025 0.9476 0.0
C501 C 0.11403 0.13459 0.95316 0.0
C502 C 0.12487 0.12768 0.95197 0.0
H503 H 0.16999 0.06102 0.9109 0.0
H504 H 0.15276 0.07068 0.91873 0.0
H505 H 0.14433 0.0864 0.97482 0.0
H506 H 0.09701 0.19933 0.93574 0.0
H507 H 0.11466 0.19472 0.94163 0.0
C508 C 0.91717 0.86419 0.69687 0.0
C509 C 0.92 0.8881 0.68203 0.0
C510 C 0.90717 0.85986 0.70141 0.0
C511 C 0.88234 0.90487 0.6941 0.0
H512 H 0.87279 0.79544 0.70045 0.0
C513 C 0.84433 0.81382 0.68088 0.0
C514 C 0.83735 0.83996 0.68868 0.0
C515 C 0.8544 0.81862 0.68433 0.0
C516 C 0.87535 0.82621 0.69882 0.0
H517 H 0.91453 0.92756 0.66085 0.0
H518 H 0.89723 0.92009 0.66876 0.0
H519 H 0.89053 0.80803 0.69846 0.0
H520 H 0.83548 0.89065 0.7069 0.0
H521 H 0.85314 0.89928 0.71282 0.0
H522 H 0.86716 0.92287 0.69371 0.0
C523 C 0.9027 0.90473 0.67694 0.0
C524 C 0.88552 0.83347 0.69783 0.0
C525 C 0.91264 0.90876 0.67232 0.0
C526 C 0.84066 0.86995 0.70069 0.0
C527 C 0.85078 0.87508 0.70398 0.0
C528 C 0.87218 0.89765 0.69521 0.0
C529 C 0.89981 0.87974 0.69135 0.0
C530 C 0.88913 0.87277 0.69498 0.0
C531 C 0.85777 0.84994 0.69555 0.0
C532 C 0.86855 0.8581 0.6971 0.0
H533 H 0.92263 0.84783 0.70465 0.0
H534 H 0.90519 0.84062 0.71268 0.0
H535 H 0.88488 0.93555 0.6921 0.0
H536 H 0.84203 0.79027 0.67164 0.0
H537 H 0.85957 0.79894 0.67749 0.0
C538 C 0.92185 0.87142 0.04881 0.0
C539 C 0.92438 0.83814 0.05965 0.0
C540 C 0.91206 0.87734 0.04333 0.0
C541 C 0.88786 0.83101 0.0366 0.0
H542 H 0.87711 0.9271 0.05899 0.0
C543 C 0.84634 0.84768 0.052 0.0
C544 C 0.8424 0.88605 0.05539 0.0
C545 C 0.85631 0.84327 0.04742 0.0
C546 C 0.87991 0.9007 0.05209 0.0
H547 H 0.91884 0.78348 0.07214 0.0
H548 H 0.9018 0.79309 0.06198 0.0
H549 H 0.89476 0.91575 0.05934 0.0
H550 H 0.84543 0.95008 0.05537 0.0
H551 H 0.86257 0.94302 0.04585 0.0
H552 H 0.87308 0.81596 0.02907 0.0
C553 C 0.90736 0.81482 0.05795 0.0
C554 C 0.89009 0.89414 0.05245 0.0
C555 C 0.91709 0.80943 0.06382 0.0
C556 C 0.84834 0.92017 0.05278 0.0
C557 C 0.85822 0.91592 0.04763 0.0
C558 C 0.87766 0.83804 0.0358 0.0
C559 C 0.9047 0.84948 0.04818 0.0
C560 C 0.89413 0.85878 0.04514 0.0
C561 C 0.86251 0.87731 0.04575 0.0
C562 C 0.87348 0.87245 0.04404 0.0
H563 H 0.9273 0.89419 0.04551 0.0
H564 H 0.91016 0.90435 0.03584 0.0
H565 H 0.89083 0.80355 0.03079 0.0
H566 H 0.84191 0.8209 0.05426 0.0
H567 H 0.85922 0.81296 0.04637 0.0
C568 C 0.09096 0.55202 0.81434 0.0
C569 C 0.08498 0.58648 0.81344 0.0
C570 C 0.10085 0.55373 0.80899 0.0
C571 C 0.12014 0.62318 0.78884 0.0
H572 H 0.13762 0.55652 0.81769 0.0
C573 C 0.16034 0.65886 0.81103 0.0
C574 C 0.16737 0.62808 0.80884 0.0
C575 C 0.15049 0.65242 0.80622 0.0
C576 C 0.13283 0.57487 0.80931 0.0
H577 H 0.08448 0.64951 0.80592 0.0
H578 H 0.10186 0.6536 0.79775 0.0
H579 H 0.11994 0.54724 0.82005 0.0
H580 H 0.16976 0.56711 0.79924 0.0
H581 H 0.15237 0.55525 0.79148 0.0
H582 H 0.13328 0.65305 0.77947 0.0
C583 C 0.09894 0.62456 0.80177 0.0
C584 C 0.12263 0.56946 0.81054 0.0
C585 C 0.08895 0.62241 0.80656 0.0
C586 C 0.16449 0.59144 0.80088 0.0
C587 C 0.15457 0.58461 0.79652 0.0
C588 C 0.13037 0.62928 0.78801 0.0
C589 C 0.10513 0.59044 0.80332 0.0
C590 C 0.11607 0.59386 0.80051 0.0
C591 C 0.14745 0.61474 0.79957 0.0
C592 C 0.13678 0.6054 0.79838 0.0
H593 H 0.08802 0.52385 0.81948 0.0
H594 H 0.10517 0.52632 0.80978 0.0
H595 H 0.11545 0.64203 0.78054 0.0
H596 H 0.16239 0.68732 0.81719 0.0
H597 H 0.14512 0.67597 0.80883 0.0
C598 C 0.09752 0.67936 0.43227 0.0
C599 C 0.09063 0.6534 0.44044 0.0
C600 C 0.10759 0.67518 0.43569 0.0
C601 C 0.12687 0.62837 0.46414 0.0
H602 H 0.14078 0.62075 0.41845 0.0
C603 C 0.16601 0.57018 0.43091 0.0
C604 C 0.17314 0.59359 0.43991 0.0
C605 C 0.15598 0.57576 0.43429 0.0
C606 C 0.13701 0.62264 0.43134 0.0
H607 H 0.0889 0.60482 0.45984 0.0
H608 H 0.10662 0.59735 0.46576 0.0
H609 H 0.12331 0.63706 0.41867 0.0
H610 H 0.17529 0.63905 0.46063 0.0
H611 H 0.15761 0.64882 0.46654 0.0
H612 H 0.14077 0.61378 0.47669 0.0
C613 C 0.10416 0.62099 0.4567 0.0
C614 C 0.12702 0.63242 0.43148 0.0
C615 C 0.09401 0.62525 0.45329 0.0
C616 C 0.16999 0.6206 0.45343 0.0
C617 C 0.15988 0.62618 0.45683 0.0
C618 C 0.137 0.61903 0.46401 0.0
C619 C 0.11106 0.64485 0.44734 0.0
C620 C 0.1218 0.63537 0.44783 0.0
C621 C 0.15278 0.60488 0.44676 0.0
C622 C 0.14213 0.61566 0.44754 0.0
H623 H 0.09516 0.70186 0.42255 0.0
H624 H 0.11271 0.69461 0.42857 0.0
H625 H 0.12303 0.63046 0.47694 0.0
H626 H 0.16816 0.54857 0.42065 0.0
H627 H 0.15068 0.55834 0.42658 0.0
C628 C 0.91326 0.34765 0.16949 0.0
C629 C 0.91975 0.36154 0.18292 0.0
C630 C 0.9032 0.34428 0.17286 0.0
C631 C 0.88377 0.33992 0.20782 0.0
H632 H 0.86763 0.37379 0.16723 0.0
C633 C 0.83984 0.35397 0.20114 0.0
C634 C 0.83637 0.33022 0.18667 0.0
C635 C 0.85003 0.35781 0.20438 0.0
C636 C 0.87204 0.36448 0.17872 0.0
H637 H 0.92079 0.381 0.2108 0.0
H638 H 0.90293 0.37583 0.21668 0.0
H639 H 0.88544 0.38189 0.1658 0.0
H640 H 0.84093 0.28939 0.16525 0.0
H641 H 0.85851 0.29674 0.17074 0.0
H642 H 0.87011 0.32249 0.22058 0.0
C643 C 0.90575 0.36732 0.20353 0.0
C644 C 0.88225 0.36879 0.17788 0.0
C645 C 0.91595 0.3703 0.20018 0.0
C646 C 0.84328 0.30844 0.17633 0.0
C647 C 0.85337 0.31248 0.17948 0.0
C648 C 0.87344 0.33594 0.20872 0.0
C649 C 0.89923 0.35527 0.1897 0.0
C650 C 0.8883 0.35529 0.19211 0.0
C651 C 0.85686 0.33805 0.19316 0.0
C652 C 0.86755 0.34716 0.19391 0.0
H653 H 0.91597 0.33977 0.15617 0.0
H654 H 0.89847 0.33353 0.16208 0.0
H655 H 0.88821 0.32935 0.21903 0.0
H656 H 0.83474 0.37108 0.20939 0.0
H657 H 0.85258 0.37781 0.21497 0.0
C658 C 0.92019 0.38457 0.54193 0.0
C659 C 0.92229 0.34914 0.55164 0.0
C660 C 0.91055 0.39249 0.53611 0.0
C661 C 0.88602 0.35098 0.52716 0.0
H662 H 0.87595 0.44022 0.5555 0.0
C663 C 0.84522 0.36153 0.54776 0.0
C664 C 0.84141 0.39823 0.55407 0.0
C665 C 0.85496 0.35921 0.54157 0.0
C666 C 0.87855 0.41599 0.54694 0.0
H667 H 0.91626 0.29281 0.56158 0.0
H668 H 0.8995 0.30596 0.55078 0.0
H669 H 0.89355 0.42845 0.55407 0.0
H670 H 0.84432 0.46192 0.55743 0.0
H671 H 0.861 0.45894 0.54517 0.0
H672 H 0.87107 0.33842 0.51986 0.0
C673 C 0.90525 0.32776 0.54789 0.0
C674 C 0.8887 0.40917 0.54625 0.0
C675 C 0.91481 0.32034 0.55413 0.0
C676 C 0.84716 0.43324 0.55268 0.0
C677 C 0.85678 0.43126 0.5459 0.0
C678 C 0.87584 0.35842 0.52743 0.0
C679 C 0.90296 0.36454 0.53945 0.0
C680 C 0.8925 0.37588 0.53687 0.0
C681 C 0.86102 0.39385 0.54114 0.0
C682 C 0.8719 0.39014 0.53792 0.0
H683 H 0.92582 0.40739 0.53999 0.0
H684 H 0.90892 0.42115 0.52971 0.0
H685 H 0.88881 0.32514 0.51979 0.0
H686 H 0.84093 0.33403 0.54893 0.0
H687 H 0.85786 0.32968 0.53829 0.0
C688 C 0.66285 0.1643 0.82209 0.0
C689 C 0.67078 0.14579 0.81304 0.0
C690 C 0.65315 0.15692 0.81682 0.0
C691 C 0.63561 0.12728 0.78344 0.0
H692 H 0.62223 0.07573 0.82364 0.0
C693 C 0.59554 0.05719 0.80871 0.0
C694 C 0.58931 0.09001 0.80502 0.0
C695 C 0.60554 0.05887 0.80431 0.0
C696 C 0.62585 0.08941 0.81211 0.0
H697 H 0.67471 0.1074 0.7904 0.0
H698 H 0.65754 0.09462 0.78112 0.0
H699 H 0.6397 0.09106 0.82591 0.0
H700 H 0.58842 0.14889 0.79241 0.0
H701 H 0.60605 0.15238 0.78506 0.0
H702 H 0.62154 0.12696 0.76993 0.0
C703 C 0.65897 0.11473 0.79235 0.0
C704 C 0.63585 0.09845 0.8135 0.0
C705 C 0.66877 0.122 0.7977 0.0
C706 C 0.59307 0.1231 0.79534 0.0
C707 C 0.60317 0.12505 0.79113 0.0
C708 C 0.62548 0.11858 0.7821 0.0
C709 C 0.6511 0.13114 0.80229 0.0
C710 C 0.6408 0.11799 0.79935 0.0
C711 C 0.60959 0.09377 0.79642 0.0
C712 C 0.62048 0.09985 0.79653 0.0
H713 H 0.66408 0.18335 0.83376 0.0
H714 H 0.64719 0.17013 0.8246 0.0
H715 H 0.6393 0.14256 0.7724 0.0
H716 H 0.59279 0.0311 0.81598 0.0
H717 H 0.61024 0.03382 0.80814 0.0
C718 C 0.66824 0.06623 0.42821 0.0
C719 C 0.67495 0.08803 0.43893 0.0
C720 C 0.65812 0.06925 0.43116 0.0
C721 C 0.6379 0.09416 0.46095 0.0
H722 H 0.62541 0.12947 0.4165 0.0
C723 C 0.59532 0.1272 0.45161 0.0
C724 C 0.59145 0.11448 0.43492 0.0
C725 C 0.60552 0.12423 0.45503 0.0
C726 C 0.62874 0.11931 0.42901 0.0
H727 H 0.67625 0.12777 0.46211 0.0
H728 H 0.65834 0.13292 0.46729 0.0
H729 H 0.64324 0.12281 0.41779 0.0
H730 H 0.59499 0.0856 0.40946 0.0
H731 H 0.61249 0.07929 0.41557 0.0
H732 H 0.62322 0.08944 0.47193 0.0
C733 C 0.66105 0.11364 0.45656 0.0
C734 C 0.63896 0.11573 0.42976 0.0
C735 C 0.67128 0.11069 0.45357 0.0
C736 C 0.59779 0.09647 0.42229 0.0
C737 C 0.60784 0.09305 0.42576 0.0
C738 C 0.62755 0.09745 0.46016 0.0
C739 C 0.6544 0.094 0.44494 0.0
C740 C 0.64364 0.10213 0.44552 0.0
C741 C 0.61192 0.10821 0.44185 0.0
C742 C 0.62286 0.10891 0.44396 0.0
H743 H 0.67078 0.04788 0.41702 0.0
H744 H 0.65314 0.05334 0.42218 0.0
H745 H 0.64136 0.08377 0.47329 0.0
H746 H 0.59057 0.14115 0.46158 0.0
H747 H 0.60843 0.136 0.4676 0.0
C748 C 0.34764 0.83638 0.18717 0.0
C749 C 0.34 0.85948 0.19477 0.0
C750 C 0.35738 0.84136 0.19287 0.0
C751 C 0.37378 0.91838 0.21084 0.0
H752 H 0.39242 0.82951 0.21131 0.0
C753 C 0.41875 0.88282 0.20973 0.0
C754 C 0.4213 0.90877 0.19543 0.0
C755 C 0.40891 0.87963 0.21544 0.0
C756 C 0.38733 0.85473 0.21161 0.0
H757 H 0.33654 0.90488 0.21489 0.0
H758 H 0.35369 0.914 0.22478 0.0
H759 H 0.37476 0.81556 0.21124 0.0
H760 H 0.41565 0.95405 0.17693 0.0
H761 H 0.39862 0.94852 0.18682 0.0
H762 H 0.38636 0.95754 0.21058 0.0
C763 C 0.35208 0.89198 0.21437 0.0
C764 C 0.3772 0.8467 0.21139 0.0
C765 C 0.34227 0.88661 0.20879 0.0
C766 C 0.41394 0.93348 0.18787 0.0
C767 C 0.40416 0.93055 0.19367 0.0
C768 C 0.38392 0.92643 0.21101 0.0
C769 C 0.35976 0.86981 0.20625 0.0
C770 C 0.37032 0.87838 0.21031 0.0
C771 C 0.40146 0.90266 0.20711 0.0
C772 C 0.39082 0.89467 0.21072 0.0
H773 H 0.34615 0.81501 0.17644 0.0
H774 H 0.3631 0.82416 0.18616 0.0
H775 H 0.36868 0.94348 0.20997 0.0
H776 H 0.42424 0.86339 0.21586 0.0
H777 H 0.40709 0.85816 0.22597 0.0
C778 C 0.34526 0.84333 0.54937 0.0
C779 C 0.34283 0.88011 0.5577 0.0
C780 C 0.35507 0.83492 0.54467 0.0
C781 C 0.37952 0.87524 0.53529 0.0
H782 H 0.38967 0.79246 0.56728 0.0
C783 C 0.42095 0.86442 0.55283 0.0
C784 C 0.42476 0.82848 0.56003 0.0
C785 C 0.41097 0.86719 0.54807 0.0
C786 C 0.38705 0.81483 0.55777 0.0
H787 H 0.34851 0.93801 0.56643 0.0
H788 H 0.36557 0.92398 0.55746 0.0
H789 H 0.37205 0.80421 0.56561 0.0
H790 H 0.42143 0.76631 0.56653 0.0
H791 H 0.40427 0.76982 0.55686 0.0
H792 H 0.39443 0.88567 0.52712 0.0
C793 C 0.35994 0.90152 0.55481 0.0
C794 C 0.37689 0.82167 0.55695 0.0
C795 C 0.3502 0.90949 0.55997 0.0
C796 C 0.41862 0.7945 0.56115 0.0
C797 C 0.40873 0.79681 0.55582 0.0
C798 C 0.3897 0.86768 0.53571 0.0
C799 C 0.36251 0.86365 0.54774 0.0
C800 C 0.37306 0.85257 0.54608 0.0
C801 C 0.40461 0.83368 0.54994 0.0
C802 C 0.39367 0.83813 0.54739 0.0
H803 H 0.33973 0.82002 0.54767 0.0
H804 H 0.35691 0.80543 0.53932 0.0
H805 H 0.37671 0.89924 0.52678 0.0
H806 H 0.42552 0.89121 0.55203 0.0
H807 H 0.40819 0.89633 0.54387 0.0
C808 C 0.66351 0.67761 0.30262 0.0
C809 C 0.66945 0.6431 0.30382 0.0
C810 C 0.65369 0.67452 0.29695 0.0
C811 C 0.63432 0.59905 0.28185 0.0
H812 H 0.61726 0.67055 0.30914 0.0
C813 C 0.59557 0.56463 0.31201 0.0
C814 C 0.58806 0.59272 0.30829 0.0
C815 C 0.60517 0.57104 0.3057 0.0
C816 C 0.62193 0.65075 0.3012 0.0
H817 H 0.67005 0.57867 0.29935 0.0
H818 H 0.65285 0.57248 0.29063 0.0
H819 H 0.63486 0.68295 0.30864 0.0
H820 H 0.58462 0.6487 0.29447 0.0
H821 H 0.60155 0.66071 0.28408 0.0
H822 H 0.6212 0.56486 0.27601 0.0
C823 C 0.65571 0.60241 0.29322 0.0
C824 C 0.63207 0.65796 0.30075 0.0
C825 C 0.66562 0.6058 0.29828 0.0
C826 C 0.59024 0.62639 0.29743 0.0
C827 C 0.59991 0.63334 0.29151 0.0
C828 C 0.62416 0.59124 0.28276 0.0
C829 C 0.64946 0.63652 0.29316 0.0
C830 C 0.63849 0.6318 0.29136 0.0
C831 C 0.60748 0.60611 0.29592 0.0
C832 C 0.61793 0.61675 0.29267 0.0
H833 H 0.66634 0.70674 0.3068 0.0
H834 H 0.64932 0.70184 0.29639 0.0
H835 H 0.63889 0.5787 0.27406 0.0
H836 H 0.59409 0.53841 0.32034 0.0
H837 H 0.61092 0.54985 0.30939 0.0
C838 C 0.66581 0.56526 0.93119 0.0
C839 C 0.67247 0.59109 0.94008 0.0
C840 C 0.65568 0.56863 0.93406 0.0
C841 C 0.63503 0.59684 0.96043 0.0
H842 H 0.62383 0.63613 0.91551 0.0
C843 C 0.59267 0.62807 0.94888 0.0
C844 C 0.58909 0.61764 0.93165 0.0
C845 C 0.60284 0.626 0.95267 0.0
C846 C 0.62679 0.62484 0.92813 0.0
H847 H 0.67369 0.63858 0.96014 0.0
H848 H 0.65577 0.64426 0.96521 0.0
H849 H 0.64161 0.62869 0.91834 0.0
H850 H 0.59327 0.59413 0.9054 0.0
H851 H 0.61071 0.58935 0.91208 0.0
H852 H 0.62009 0.5913 0.96994 0.0
C853 C 0.65853 0.62152 0.956 0.0
C854 C 0.63699 0.62096 0.92977 0.0
C855 C 0.66876 0.61824 0.95307 0.0
C856 C 0.59579 0.60332 0.91867 0.0
C857 C 0.60584 0.60078 0.92249 0.0
C858 C 0.62472 0.60034 0.95873 0.0
C859 C 0.65192 0.59763 0.94601 0.0
C860 C 0.6412 0.60618 0.94575 0.0
C861 C 0.60957 0.61314 0.93933 0.0
C862 C 0.62047 0.61336 0.94233 0.0
H863 H 0.66839 0.54359 0.92129 0.0
H864 H 0.65071 0.5498 0.92627 0.0
H865 H 0.63815 0.5853 0.97288 0.0
H866 H 0.58768 0.63913 0.95918 0.0
H867 H 0.60546 0.63565 0.9658 0.0
C868 C 0.3389 0.36253 0.70428 0.0
C869 C 0.33629 0.339 0.68919 0.0
C870 C 0.34881 0.36594 0.7096 0.0
C871 C 0.37375 0.3203 0.7033 0.0
H872 H 0.38319 0.42973 0.71 0.0
C873 C 0.41102 0.41271 0.68757 0.0
C874 C 0.41829 0.38626 0.69417 0.0
C875 C 0.40113 0.40775 0.69234 0.0
C876 C 0.38067 0.39893 0.70831 0.0
H877 H 0.34203 0.29896 0.66849 0.0
H878 H 0.35916 0.30494 0.6777 0.0
H879 H 0.36549 0.41693 0.70807 0.0
H880 H 0.42095 0.33504 0.71172 0.0
H881 H 0.40354 0.32605 0.72 0.0
H882 H 0.38895 0.3026 0.70254 0.0
C883 C 0.3536 0.3207 0.6855 0.0
C884 C 0.37051 0.39154 0.70736 0.0
C885 C 0.34375 0.31756 0.6801 0.0
C886 C 0.41552 0.35597 0.70647 0.0
C887 C 0.40555 0.35065 0.71108 0.0
C888 C 0.38391 0.32767 0.7043 0.0
C889 C 0.35629 0.34553 0.70008 0.0
C890 C 0.36694 0.3523 0.70423 0.0
C891 C 0.39821 0.37595 0.70372 0.0
C892 C 0.3875 0.36727 0.7062 0.0
H893 H 0.33335 0.37944 0.7116 0.0
H894 H 0.35063 0.38507 0.72099 0.0
H895 H 0.37124 0.28963 0.70115 0.0
H896 H 0.41293 0.4365 0.67815 0.0
H897 H 0.39571 0.42755 0.68625 0.0
C898 C 0.34623 0.43075 0.06821 0.0
C899 C 0.33902 0.40198 0.06367 0.0
C900 C 0.35604 0.42554 0.06277 0.0
C901 C 0.37349 0.34702 0.05817 0.0
H902 H 0.39051 0.42406 0.03404 0.0
C903 C 0.41523 0.32024 0.05787 0.0
C904 C 0.42127 0.35425 0.05991 0.0
C905 C 0.4053 0.32462 0.05318 0.0
C906 C 0.38592 0.40234 0.04101 0.0
H907 H 0.33634 0.34597 0.04935 0.0
H908 H 0.3536 0.33611 0.04045 0.0
H909 H 0.37274 0.43642 0.03552 0.0
H910 H 0.42188 0.41933 0.05829 0.0
H911 H 0.40445 0.42754 0.0512 0.0
H912 H 0.38647 0.31449 0.06514 0.0
C913 C 0.35159 0.36304 0.04788 0.0
C914 C 0.37572 0.40933 0.04165 0.0
C915 C 0.34172 0.36878 0.05292 0.0
C916 C 0.41735 0.39265 0.05651 0.0
C917 C 0.40733 0.3972 0.05237 0.0
C918 C 0.38367 0.34052 0.05796 0.0
C919 C 0.35885 0.39099 0.05307 0.0
C920 C 0.36945 0.3819 0.05041 0.0
C921 C 0.40106 0.36328 0.05116 0.0
C922 C 0.39009 0.36833 0.04959 0.0
H923 H 0.34435 0.45664 0.07646 0.0
H924 H 0.36153 0.44732 0.06704 0.0
H925 H 0.3688 0.32572 0.06524 0.0
H926 H 0.41814 0.29031 0.06045 0.0
H927 H 0.40088 0.29759 0.05176 0.0
C928 C 0.03713 0.17959 0.27234 0.0
C929 C 0.03537 0.1532 0.28687 0.0
C930 C 0.02935 0.20107 0.2644 0.0
C931 C 1.0021 0.20294 0.25954 0.0
H932 H 0.00617 0.31629 0.24879 0.0
C933 C 0.96998 0.30541 0.23575 0.0
C934 C 0.97209 0.33235 0.22159 0.0
C935 C 0.97762 0.28484 0.24464 0.0
C936 C 1.00492 0.28458 0.25154 0.0
H937 H 0.02401 0.12793 0.30413 0.0
H938 H 0.01046 0.16517 0.29025 0.0
H939 H 0.01965 0.27654 0.26145 0.0
H940 H 0.9839 0.35965 0.20604 0.0
H941 H 0.99713 0.32376 0.22132 0.0
H942 H 0.98742 0.2108 0.24945 0.0
C943 C 0.01784 0.16923 0.28494 0.0
C944 C 0.01267 0.26176 0.25878 0.0
C945 C 0.02562 0.14796 0.29294 0.0
C946 C 0.98201 0.33924 0.21693 0.0
C947 C 0.98962 0.3187 0.22578 0.0
C948 C 0.99436 0.22573 0.25223 0.0
C949 C 0.01961 0.19647 0.27072 0.0
C950 C 0.01137 0.22062 0.26284 0.0
C951 C 0.98754 0.29073 0.23957 0.0
C952 C 0.99567 0.26686 0.24807 0.0
H953 H 0.04456 0.18435 0.26735 0.0
H954 H 0.03096 0.22137 0.25331 0.0
H955 H 1.00088 0.17123 0.26231 0.0
H956 H 0.96242 0.2994 0.23967 0.0
H957 H 0.97574 0.26404 0.25539 0.0
C958 C 0.22163 0.06321 0.27209 0.0
C959 C 0.22355 0.08836 0.28698 0.0
C960 C 0.22931 0.04207 0.26366 0.0
C961 C 0.2566 0.03858 0.25883 0.0
H962 H 0.25199 0.92662 0.24609 0.0
C963 C 0.2884 0.9334 0.23648 0.0
C964 C 0.28654 0.90801 0.22166 0.0
C965 C 0.28069 0.95457 0.24479 0.0
C966 C 0.25338 0.95795 0.2494 0.0
H967 H 0.23508 0.11182 0.30437 0.0
H968 H 0.24843 0.07501 0.28974 0.0
H969 H 0.23862 0.96659 0.259 0.0
H970 H 0.27506 0.88414 0.20425 0.0
H971 H 0.26165 0.92102 0.21868 0.0
H972 H 0.27136 0.02996 0.24923 0.0
C973 C 0.24102 0.07176 0.28446 0.0
C974 C 0.2457 0.98092 0.25677 0.0
C975 C 0.23335 0.09278 0.29291 0.0
C976 C 0.27675 0.90336 0.21568 0.0
C977 C 0.26904 0.92443 0.224 0.0
C978 C 0.26428 0.01561 0.25146 0.0
C979 C 0.23909 0.04568 0.26989 0.0
C980 C 0.24721 0.02154 0.2616 0.0
C981 C 0.27092 0.95077 0.2385 0.0
C982 C 0.26278 0.97497 0.24666 0.0
H983 H 0.21417 0.05913 0.26718 0.0
H984 H 0.22758 0.02272 0.2523 0.0
H985 H 0.25799 0.0699 0.26215 0.0
H986 H 0.29585 0.93765 0.24143 0.0
H987 H 0.28238 0.97408 0.25611 0.0
C988 C 0.03074 0.07827 0.96332 0.0
C989 C 0.04038 0.07676 0.97033 0.0
C990 C 0.02303 0.05744 0.97178 0.0
C991 C 0.01838 0.97142 0.00245 0.0
H992 H 0.9921 0.01724 0.00569 0.0
C993 C 0.98715 0.89657 0.04387 0.0
C994 C 0.9775 0.89793 0.03696 0.0
C995 C 0.9948 0.91765 0.0354 0.0
C996 C 0.99936 0.00376 0.00468 0.0
H997 H 0.04943 0.05289 0.99198 0.0
H998 H 0.03596 0.01684 0.00688 0.0
H999 H 1.00544 0.05677 0.99238 0.0
H1000 H 0.96834 0.92192 0.01546 0.0
H1001 H 0.98174 0.9584 1.00051 0.0
H1002 H 0.01231 0.91841 0.01473 0.0
C1003 C 0.03438 0.03372 0.99468 0.0
C1004 C 0.00703 0.02649 0.99708 0.0
C1005 C 0.0421 0.05466 0.98623 0.0
C1006 C 0.9757 0.92023 0.02113 0.0
C1007 C 0.98337 0.94142 0.01265 0.0
C1008 C 0.01072 0.94869 0.01004 0.0
C1009 C 0.02477 0.03448 0.98745 0.0
C1010 C 0.01664 0.01063 0.99588 0.0
C1011 C 0.993 0.94071 0.01978 0.0
C1012 C 1.00111 0.96456 0.01128 0.0
H1013 H 0.02915 0.09491 0.95106 0.0
H1014 H 0.01577 0.0584 0.9657 0.0
H1015 H 0.02564 0.95793 1.00145 0.0
H1016 H 0.98879 0.87982 0.05609 0.0
H1017 H 1.00209 0.91676 0.04141 0.0
C1018 C 0.2244 0.16797 0.98629 0.0
C1019 C 0.22712 0.14262 0.97191 0.0
C1020 C 0.23157 0.19031 0.99558 0.0
C1021 C 0.25867 0.19841 0.00325 0.0
H1022 H 0.25272 0.31069 0.0133 0.0
C1023 C 0.28893 0.31188 0.02419 0.0
C1024 C 0.28666 0.33751 0.03872 0.0
C1025 C 0.28155 0.28858 0.01604 0.0
C1026 C 0.25447 0.2793 0.01072 0.0
H1027 H 0.23951 0.11964 0.95646 0.0
H1028 H 0.25193 0.15853 0.97247 0.0
H1029 H 0.24001 0.26724 1.00037 0.0
H1030 H 0.2748 0.35977 0.05572 0.0
H1031 H 0.26196 0.31933 0.0415 0.0
H1032 H 0.27315 0.21062 0.01343 0.0
C1033 C 0.24431 0.16108 0.97675 0.0
C1034 C 0.24717 0.25433 0.00339 0.0
C1035 C 0.23716 0.13887 0.96749 0.0
C1036 C 0.2768 0.34035 0.04453 0.0
C1037 C 0.26943 0.31726 0.03634 0.0
C1038 C 0.26597 0.22341 0.01052 0.0
C1039 C 0.2416 0.18763 0.9907 0.0
C1040 C 0.24919 0.2136 0.99948 0.0
C1041 C 0.27173 0.29061 0.02218 0.0
C1042 C 0.26397 0.2642 0.01427 0.0
H1043 H 0.21672 0.17152 0.99001 0.0
H1044 H 0.22925 0.21003 0.00644 0.0
H1045 H 0.26044 0.16706 1.00066 0.0
H1046 H 0.29646 0.30898 0.01941 0.0
H1047 H 0.28354 0.26875 0.00498 0.0
C1048 C 0.96881 0.80219 0.7311 0.0
C1049 C 0.97141 0.82916 0.71723 0.0
C1050 C 0.9761 0.77989 0.74013 0.0
C1051 C 1.00146 0.7418 0.73347 0.0
H1052 H 1.00114 0.72401 0.78521 0.0
C1053 C 0.03447 0.67115 0.77181 0.0
C1054 C 0.03239 0.64565 0.78649 0.0
C1055 C 0.02685 0.69204 0.76307 0.0
C1056 C 1.00127 0.72818 0.7707 0.0
H1057 H 0.98372 0.85519 0.70253 0.0
H1058 H 0.99635 0.81687 0.71834 0.0
H1059 H 0.98812 0.76422 0.77121 0.0
H1060 H 0.02067 0.62084 0.80307 0.0
H1061 H 0.00741 0.65644 0.78763 0.0
H1062 H 0.01456 0.70573 0.73288 0.0
C1063 C 0.9887 0.81223 0.72203 0.0
C1064 C 0.99381 0.75132 0.7627 0.0
C1065 C 0.98145 0.83445 0.71305 0.0
C1066 C 0.02252 0.64047 0.79187 0.0
C1067 C 0.01492 0.66116 0.7831 0.0
C1068 C 0.00889 0.71857 0.74145 0.0
C1069 C 0.98611 0.78411 0.73542 0.0
C1070 C 0.99386 0.75867 0.744 0.0
C1071 C 0.01699 0.68774 0.76878 0.0
C1072 C 0.00893 0.71162 0.76018 0.0
H1073 H 0.96113 0.79736 0.73458 0.0
H1074 H 0.97386 0.75837 0.75036 0.0
H1075 H 1.00162 0.74624 0.71897 0.0
H1076 H 0.042 0.67595 0.76741 0.0
H1077 H 0.02874 0.71254 0.7522 0.0
C1078 C 0.72266 0.06641 0.77407 0.0
C1079 C 0.72446 0.09371 0.78821 0.0
C1080 C 0.73043 0.04459 0.76631 0.0
C1081 C 0.7576 0.04186 0.761 0.0
H1082 H 0.7532 0.92779 0.7525 0.0
C1083 C 0.78888 0.93485 0.73656 0.0
C1084 C 0.78624 0.90755 0.72285 0.0
C1085 C 0.7816 0.95703 0.7457 0.0
C1086 C 0.75454 0.95966 0.75463 0.0
H1087 H 0.73587 0.12052 0.80489 0.0
H1088 H 0.74941 0.08263 0.7913 0.0
H1089 H 0.73999 0.96893 0.76508 0.0
H1090 H 0.77389 0.88147 0.7083 0.0
H1091 H 0.76132 0.92 0.724 0.0
H1092 H 0.77213 0.03263 0.75033 0.0
C1093 C 0.74201 0.0781 0.78617 0.0
C1094 C 0.74695 0.98328 0.76182 0.0
C1095 C 0.73423 0.09972 0.794 0.0
C1096 C 0.77619 0.90218 0.71881 0.0
C1097 C 0.76895 0.92417 0.72792 0.0
C1098 C 0.7652 0.01823 0.75373 0.0
C1099 C 0.74018 0.04975 0.77245 0.0
C1100 C 0.74835 0.02474 0.76495 0.0
C1101 C 0.77154 0.95218 0.74136 0.0
C1102 C 0.76374 0.97688 0.75029 0.0
H1103 H 0.71521 0.06108 0.76929 0.0
H1104 H 0.72878 0.02345 0.75556 0.0
H1105 H 0.7589 0.07376 0.76314 0.0
H1106 H 0.79657 0.9397 0.73996 0.0
H1107 H 0.78385 0.97803 0.75613 0.0
C1108 C 0.7217 0.68673 0.98768 0.0
C1109 C 0.72398 0.6628 0.97256 0.0
C1110 C 0.7292 0.70715 0.99707 0.0
C1111 C 0.7565 0.70805 0.00344 0.0
H1112 H 0.75258 0.8193 0.01803 0.0
C1113 C 0.78918 0.80979 0.0235 0.0
C1114 C 0.78803 0.8339 0.03898 0.0
C1115 C 0.78108 0.7897 0.01597 0.0
C1116 C 0.75376 0.78812 0.01419 0.0
H1117 H 0.73595 0.64122 0.95562 0.0
H1118 H 0.74886 0.6767 0.9717 0.0
H1119 H 0.73888 0.78149 0.00475 0.0
H1120 H 0.7774 0.85672 0.05836 0.0
H1121 H 0.76326 0.82178 0.04516 0.0
H1122 H 0.77138 0.71474 0.01261 0.0
C1123 C 0.74135 0.67947 0.97657 0.0
C1124 C 0.7459 0.76639 0.00664 0.0
C1125 C 0.7339 0.65924 0.96724 0.0
C1126 C 0.77854 0.83838 0.04643 0.0
C1127 C 0.77043 0.81847 0.03883 0.0
C1128 C 0.76435 0.72977 0.01089 0.0
C1129 C 0.73913 0.70385 0.99156 0.0
C1130 C 0.7472 0.72621 1.00095 0.0
C1131 C 0.77162 0.79337 0.02367 0.0
C1132 C 0.76312 0.77021 0.01617 0.0
H1133 H 0.71412 0.69016 0.99208 0.0
H1134 H 0.72724 0.72543 0.00865 0.0
H1135 H 0.75773 0.67692 0.99958 0.0
H1136 H 0.79638 0.80574 0.0174 0.0
H1137 H 0.78223 0.77113 0.00411 0.0
C1138 C 0.231 0.58108 0.7945 0.0
C1139 C 0.22135 0.57637 0.78785 0.0
C1140 C 0.2389 0.5602 0.78664 0.0
C1141 C 0.24419 0.46924 0.75946 0.0
H1142 H 0.2697 0.51934 0.75159 0.0
C1143 C 0.27429 0.39468 0.71583 0.0
C1144 C 0.28423 0.39885 0.72088 0.0
C1145 C 0.26686 0.41534 0.7251 0.0
C1146 C 0.26267 0.50469 0.75396 0.0
H1147 H 0.21246 0.54677 0.76741 0.0
H1148 H 0.22623 0.5106 0.75361 0.0
H1149 H 0.25629 0.55861 0.76494 0.0
H1150 H 0.29417 0.42744 0.73993 0.0
H1151 H 0.28114 0.46335 0.75633 0.0
H1152 H 0.25052 0.41538 0.74851 0.0
C1153 C 0.22768 0.53005 0.76507 0.0
C1154 C 0.25497 0.52726 0.76156 0.0
C1155 C 0.2198 0.55105 0.77288 0.0
C1156 C 0.28657 0.42354 0.73572 0.0
C1157 C 0.27911 0.44437 0.74502 0.0
C1158 C 0.25188 0.44668 0.75192 0.0
C1159 C 0.23731 0.53394 0.77199 0.0
C1160 C 0.2456 0.50992 0.76423 0.0
C1161 C 0.26917 0.44079 0.7397 0.0
C1162 C 0.2612 0.46419 0.74888 0.0
H1163 H 0.23245 0.60028 0.80604 0.0
H1164 H 0.2462 0.56371 0.79239 0.0
H1165 H 0.23715 0.45465 0.7617 0.0
H1166 H 0.27221 0.37602 0.70443 0.0
H1167 H 0.25932 0.41223 0.72043 0.0
C1168 C 0.04166 0.55667 0.48616 0.0
C1169 C 0.03922 0.58067 0.47114 0.0
C1170 C 0.03432 0.53491 0.49534 0.0
C1171 C 0.00708 0.52943 0.50144 0.0
H1172 H 0.01203 0.41812 0.51491 0.0
C1173 C 0.97537 0.42182 0.51994 0.0
C1174 C 0.97664 0.39737 0.53528 0.0
C1175 C 0.98333 0.44327 0.51269 0.0
C1176 C 0.01057 0.44928 0.51139 0.0
H1177 H 0.02715 0.60116 0.4542 0.0
H1178 H 0.01448 0.56336 0.46996 0.0
H1179 H 0.02538 0.45877 0.50211 0.0
H1180 H 0.98735 0.37522 0.55469 0.0
H1181 H 1.00126 0.41259 0.54196 0.0
H1182 H 0.99226 0.51988 0.51044 0.0
C1183 C 0.022 0.56153 0.47488 0.0
C1184 C 0.01822 0.47264 0.50411 0.0
C1185 C 0.0293 0.58309 0.46575 0.0
C1186 C 0.98613 0.39377 0.54285 0.0
C1187 C 0.99411 0.4151 0.53553 0.0
C1188 C 0.99944 0.5061 0.50862 0.0
C1189 C 0.0244 0.53693 0.48972 0.0
C1190 C 0.01653 0.51287 0.49882 0.0
C1191 C 0.99276 0.44069 0.52057 0.0
C1192 C 1.00105 0.4656 0.51347 0.0
H1193 H 0.04925 0.55412 0.49062 0.0
H1194 H 0.03641 0.51654 0.50683 0.0
H1195 H 1.00556 0.56053 0.49788 0.0
H1196 H 0.96818 0.42521 0.51376 0.0
H1197 H 0.98208 0.46217 0.50096 0.0
C1198 C 0.22276 0.68235 0.48688 0.0
C1199 C 0.22507 0.65733 0.47214 0.0
C1200 C 0.23024 0.70334 0.49605 0.0
C1201 C 0.2575 0.70513 0.50275 0.0
H1202 H 0.25333 0.81728 0.51562 0.0
C1203 C 0.28988 0.80861 0.52279 0.0
C1204 C 0.28851 0.83377 0.53786 0.0
C1205 C 0.28189 0.788 0.51513 0.0
C1206 C 0.25458 0.78588 0.51227 0.0
H1207 H 0.23706 0.63422 0.45569 0.0
H1208 H 0.24997 0.6707 0.47144 0.0
H1209 H 0.23979 0.77824 0.50255 0.0
H1210 H 0.2776 0.85795 0.55637 0.0
H1211 H 0.26366 0.82208 0.54298 0.0
H1212 H 0.2723 0.7128 0.51223 0.0
C1213 C 0.24245 0.67392 0.47615 0.0
C1214 C 0.24681 0.76343 0.50483 0.0
C1215 C 0.23501 0.65311 0.46703 0.0
C1216 C 0.27891 0.83883 0.54475 0.0
C1217 C 0.27091 0.81836 0.53704 0.0
C1218 C 0.26526 0.72756 0.5101 0.0
C1219 C 0.24018 0.69957 0.4907 0.0
C1220 C 0.2482 0.72286 0.49979 0.0
C1221 C 0.27232 0.79216 0.52232 0.0
C1222 C 0.26394 0.76832 0.51479 0.0
H1223 H 0.21517 0.68632 0.49112 0.0
H1224 H 0.22824 0.72253 0.50732 0.0
H1225 H 0.2588 0.67376 0.49938 0.0
H1226 H 0.29716 0.80408 0.51712 0.0
H1227 H 0.28321 0.76859 0.50361 0.0
C1228 C 0.78809 0.42648 0.23621 0.0
C1229 C 0.7855 0.40332 0.22101 0.0
C1230 C 0.7809 0.44915 0.24539 0.0
C1231 C 0.75664 0.49685 0.2378 0.0
H1232 H 0.75416 0.49686 0.28997 0.0
C1233 C 0.72201 0.55938 0.27339 0.0
C1234 C 0.72314 0.57944 0.28998 0.0
C1235 C 0.73005 0.54012 0.26522 0.0
C1236 C 0.75483 0.49774 0.2754 0.0
H1237 H 0.77328 0.38499 0.20388 0.0
H1238 H 0.76089 0.42418 0.21978 0.0
H1239 H 0.76754 0.45897 0.27569 0.0
H1240 H 0.73366 0.59564 0.31084 0.0
H1241 H 0.74772 0.56277 0.29642 0.0
H1242 H 0.74402 0.53557 0.23737 0.0
C1243 C 0.76845 0.42534 0.22451 0.0
C1244 C 0.7625 0.47594 0.26723 0.0
C1245 C 0.77557 0.40261 0.21547 0.0
C1246 C 0.73253 0.58035 0.29807 0.0
C1247 C 0.74058 0.56123 0.28986 0.0
C1248 C 0.74904 0.51879 0.24594 0.0
C1249 C 0.77103 0.44933 0.23941 0.0
C1250 C 0.76339 0.47473 0.24833 0.0
C1251 C 0.73944 0.54059 0.27338 0.0
C1252 C 0.74792 0.51907 0.26483 0.0
H1253 H 0.79567 0.42769 0.24079 0.0
H1254 H 0.78311 0.4674 0.25684 0.0
H1255 H 0.75724 0.49716 0.22321 0.0
H1256 H 0.71487 0.55788 0.26685 0.0
H1257 H 0.72882 0.52404 0.25268 0.0
C1258 C 0.77834 0.33591 0.55018 0.0
C1259 C 0.7877 0.33452 0.542 0.0
C1260 C 0.77035 0.31512 0.54261 0.0
C1261 C 0.76204 0.26602 0.50001 0.0
H1262 H 0.74387 0.20882 0.53142 0.0
C1263 C 0.73596 0.14563 0.47222 0.0
C1264 C 0.72596 0.14819 0.47712 0.0
C1265 C 0.74308 0.16839 0.48123 0.0
C1266 C 0.74883 0.22497 0.52251 0.0
H1267 H 0.796 0.31037 0.51941 0.0
H1268 H 0.78217 0.27368 0.50639 0.0
H1269 H 0.75706 0.24979 0.54459 0.0
H1270 H 0.71565 0.17521 0.49597 0.0
H1271 H 0.72821 0.21497 0.51197 0.0
H1272 H 0.75397 0.24054 0.47796 0.0
C1273 C 0.78091 0.29141 0.51846 0.0
C1274 C 0.75638 0.24855 0.53003 0.0
C1275 C 0.78887 0.31234 0.52597 0.0
C1276 C 0.7233 0.17256 0.4919 0.0
C1277 C 0.73048 0.19531 0.50103 0.0
C1278 C 0.75458 0.24228 0.49254 0.0
C1279 C 0.77155 0.29232 0.52671 0.0
C1280 C 0.76316 0.269 0.51886 0.0
C1281 C 0.74041 0.19424 0.49544 0.0
C1282 C 0.74797 0.22105 0.50367 0.0
H1283 H 0.7772 0.35278 0.56253 0.0
H1284 H 0.76323 0.31701 0.5492 0.0
H1285 H 0.76696 0.28207 0.49097 0.0
H1286 H 0.7383 0.12692 0.46101 0.0
H1287 H 0.75069 0.16626 0.47685 0.0
C1288 C 0.47024 0.30806 0.73534 0.0
C1289 C 0.47189 0.33141 0.71977 0.0
C1290 C 0.47806 0.28752 0.74371 0.0
C1291 C 0.50296 0.24672 0.73399 0.0
H1292 H 0.50534 0.24083 0.78611 0.0
C1293 C 0.53745 0.17918 0.7694 0.0
C1294 C 0.53597 0.15699 0.78535 0.0
C1295 C 0.52959 0.19986 0.76124 0.0
C1296 C 0.50473 0.24168 0.77153 0.0
H1297 H 0.48312 0.35232 0.70108 0.0
H1298 H 0.4967 0.31696 0.71571 0.0
H1299 H 0.49177 0.27872 0.77266 0.0
H1300 H 0.525 0.13826 0.80499 0.0
H1301 H 0.51131 0.17349 0.79063 0.0
H1302 H 0.51588 0.20954 0.73282 0.0
C1303 C 0.48935 0.31393 0.72133 0.0
C1304 C 0.49694 0.26351 0.76382 0.0
C1305 C 0.48156 0.33449 0.71301 0.0
C1306 C 0.52641 0.15519 0.79274 0.0
C1307 C 0.51857 0.17573 0.78457 0.0
C1308 C 0.51074 0.2248 0.7417 0.0
C1309 C 0.48769 0.28975 0.73665 0.0
C1310 C 0.49596 0.2664 0.74495 0.0
C1311 C 0.52006 0.19876 0.76883 0.0
C1312 C 0.51174 0.22198 0.76058 0.0
H1313 H 0.46287 0.30494 0.74086 0.0
H1314 H 0.47649 0.26897 0.75542 0.0
H1315 H 0.50235 0.24771 0.71941 0.0
H1316 H 0.54472 0.18138 0.76342 0.0
H1317 H 0.53106 0.21759 0.74924 0.0
C1318 C 0.47459 0.92921 0.52309 0.0
C1319 C 0.47677 0.90385 0.53778 0.0
C1320 C 0.48204 0.95225 0.51493 0.0
C1321 C 0.50708 -0.00652 0.524 0.0
H1322 H 0.50778 0.00945 0.47214 0.0
C1323 C 0.5407 0.06221 0.48628 0.0
C1324 C 0.53875 0.08813 0.47167 0.0
C1325 C 0.53298 0.04191 0.49502 0.0
C1326 C 0.50763 0.00571 0.48668 0.0
H1327 H 0.48852 0.88189 0.55509 0.0
H1328 H 0.50148 0.92119 0.54069 0.0
H1329 H 0.49468 0.96878 0.48547 0.0
H1330 H 0.5271 0.11429 0.45528 0.0
H1331 H 0.5137 0.07925 0.47059 0.0
H1332 H 0.52012 0.03006 0.52514 0.0
C1333 C 0.49401 0.92414 0.53569 0.0
C1334 C 0.5001 0.98237 0.49433 0.0
C1335 C 0.48657 0.90129 0.54385 0.0
C1336 C 0.52889 0.09443 0.46644 0.0
C1337 C 0.52119 0.07407 0.47513 0.0
C1338 C 0.51463 0.0167 0.51634 0.0
C1339 C 0.49183 0.95035 0.52127 0.0
C1340 C 0.49975 0.97579 0.51309 0.0
C1341 C 0.52315 0.04698 0.4893 0.0
C1342 C 0.51501 0.02304 0.49758 0.0
H1343 H 0.46709 0.93201 0.51815 0.0
H1344 H 0.48006 0.97234 0.50396 0.0
H1345 H 0.50695 0.98976 0.53854 0.0
H1346 H 0.54822 0.05659 0.4906 0.0
H1347 H 0.53476 0.02108 0.50583 0.0
C1348 C 0.47106 0.81321 0.23618 0.0
C1349 C 0.47321 0.83494 0.22035 0.0
C1350 C 0.47849 0.79141 0.24508 0.0
C1351 C 0.50573 0.78212 0.24887 0.0
H1352 H 0.49994 0.67397 0.26589 0.0
C1353 C 0.53658 0.67352 0.27182 0.0
C1354 C 0.53484 0.65128 0.28767 0.0
C1355 C 0.52892 0.69507 0.26357 0.0
C1356 C 0.50165 0.70427 0.26137 0.0
H1357 H 0.48487 0.85137 0.20163 0.0
H1358 H 0.49771 0.81343 0.21701 0.0
H1359 H 0.48682 0.71467 0.25246 0.0
H1360 H 0.52364 0.63339 0.30704 0.0
H1361 H 0.51032 0.67101 0.29269 0.0
H1362 H 0.52055 0.77174 0.2577 0.0
C1363 C 0.49035 0.81344 0.22271 0.0
C1364 C 0.49413 0.72765 0.25372 0.0
C1365 C 0.48296 0.83507 0.21383 0.0
C1366 C 0.52523 0.65016 0.29481 0.0
C1367 C 0.51757 0.67162 0.28654 0.0
C1368 C 0.51325 0.75876 0.2565 0.0
C1369 C 0.48821 0.79105 0.23836 0.0
C1370 C 0.49609 0.76679 0.24728 0.0
C1371 C 0.51935 0.6948 0.27096 0.0
C1372 C 0.51132 0.71947 0.26276 0.0
H1373 H 0.46363 0.81248 0.24153 0.0
H1374 H 0.47661 0.77484 0.25722 0.0
H1375 H 0.50747 0.81238 0.24432 0.0
H1376 H 0.5439 0.67497 0.26598 0.0
H1377 H 0.53051 0.7121 0.25141 0.0
C1378 C 0.48466 0.40214 0.04421 0.0
C1379 C 0.47493 0.40704 0.03796 0.0
C1380 C 0.49245 0.42341 0.03622 0.0
C1381 C 0.49926 0.48156 0.99503 0.0
H1382 H 0.51954 0.52683 0.02598 0.0
C1383 C 0.52725 0.5965 0.96774 0.0
C1384 C 0.53723 0.59033 0.97217 0.0
C1385 C 0.51981 0.57524 0.97667 0.0
C1386 C 0.51399 0.5141 0.01714 0.0
H1387 H 0.46579 0.4377 0.01822 0.0
H1388 H 0.47931 0.4751 0.00443 0.0
H1389 H 0.50634 0.48618 0.03919 0.0
H1390 H 0.54717 0.55827 0.99009 0.0
H1391 H 0.53411 0.52112 0.0058 0.0
H1392 H 0.50684 0.50972 0.97303 0.0
C1393 C 0.48098 0.45441 0.01534 0.0
C1394 C 0.50642 0.49067 0.0247 0.0
C1395 C 0.4732 0.43305 0.0233 0.0
C1396 C 0.53955 0.56384 0.9864 0.0
C1397 C 0.53207 0.54254 0.99539 0.0
C1398 C 0.50678 0.50508 0.98752 0.0
C1399 C 0.4907 0.45021 0.0218 0.0
C1400 C 0.49893 0.47423 0.01374 0.0
C1401 C 0.52212 0.54722 0.99029 0.0
C1402 C 0.51421 0.52187 0.99847 0.0
H1403 H 0.48625 0.38225 0.05546 0.0
H1404 H 0.49985 0.41883 0.04135 0.0
H1405 H 0.49375 0.46878 0.98612 0.0
H1406 H 0.52519 0.61685 0.95691 0.0
H1407 H 0.51221 0.58025 0.97267 0.0
C1408 C 0.0556 0.4958 0.41814 0.0
C1409 C 0.05831 0.52619 0.40584 0.0
C1410 C 0.05366 0.45668 0.41205 0.0
C1411 C 0.04766 0.39838 0.37091 0.0
H1412 H 0.0603 0.31004 0.39629 0.0
C1413 C 0.05523 0.24257 0.33897 0.0
C1414 C 0.05475 0.20859 0.35028 0.0
C1415 C 0.05384 0.28119 0.34613 0.0
C1416 C 0.05656 0.33424 0.38922 0.0
H1417 H 0.06106 0.53925 0.37748 0.0
H1418 H 0.05782 0.4712 0.36704 0.0
H1419 H 0.06127 0.37791 0.40863 0.0
H1420 H 0.05165 0.18801 0.37757 0.0
H1421 H 0.04907 0.25511 0.38989 0.0
H1422 H 0.04315 0.35468 0.35126 0.0
C1423 C 0.05703 0.47771 0.38131 0.0
C1424 C 0.05712 0.37311 0.39631 0.0
C1425 C 0.05898 0.51666 0.38736 0.0
C1426 C 0.05228 0.2137 0.36858 0.0
C1427 C 0.05081 0.25212 0.37567 0.0
C1428 C 0.04709 0.35943 0.36382 0.0
C1429 C 0.05437 0.44733 0.39357 0.0
C1430 C 0.05283 0.40565 0.38706 0.0
C1431 C 0.05186 0.28632 0.36465 0.0
C1432 C 0.05166 0.32709 0.37277 0.0
H1433 H 0.05494 0.50219 0.43244 0.0
H1434 H 0.05156 0.43379 0.42178 0.0
H1435 H 0.04416 0.42292 0.36364 0.0
H1436 H 0.05709 0.2395 0.3248 0.0
H1437 H 0.05475 0.30706 0.33733 0.0
C1438 C 0.20639 0.72437 0.38787 0.0
C1439 C 0.20722 0.71443 0.40629 0.0
C1440 C 0.2085 0.76322 0.38188 0.0
C1441 C 0.20879 0.86713 0.39762 0.0
H1442 H 0.22083 0.88719 0.35088 0.0
C1443 C 0.21047 0.0266 0.36903 0.0
C1444 C 0.20698 0.03055 0.35123 0.0
C1445 C 0.21295 0.98885 0.37591 0.0
C1446 C 0.21746 0.882 0.36395 0.0
H1447 H 0.21118 0.73738 0.43279 0.0
H1448 H 0.21487 0.8056 0.42222 0.0
H1449 H 0.22076 0.81883 0.36331 0.0
H1450 H 0.20391 -0.00149 0.32632 0.0
H1451 H 0.20799 0.93203 0.33855 0.0
H1452 H 0.20518 0.92978 0.39807 0.0
C1453 C 0.2125 0.78317 0.41251 0.0
C1454 C 0.21742 0.84297 0.37107 0.0
C1455 C 0.21038 0.74415 0.41855 0.0
C1456 C 0.20653 -0.00372 0.34011 0.0
C1457 C 0.20893 0.95831 0.34708 0.0
C1458 C 0.20883 0.90607 0.39053 0.0
C1459 C 0.21151 0.79309 0.39412 0.0
C1460 C 0.21287 0.83504 0.38777 0.0
C1461 C 0.2119 0.95418 0.36521 0.0
C1462 C 0.21297 0.91374 0.37345 0.0
H1463 H 0.20398 0.70229 0.37802 0.0
H1464 H 0.20747 0.77014 0.36769 0.0
H1465 H 0.2051 0.86188 0.41039 0.0
H1466 H 0.21112 0.05263 0.3778 0.0
H1467 H 0.21544 0.98669 0.38979 0.0
C1468 C 0.06215 0.00303 0.89084 0.0
C1469 C 0.06041 0.01482 0.9088 0.0
C1470 C 0.05886 0.96587 0.88456 0.0
C1471 C 0.05268 0.86479 0.89929 0.0
H1472 H 0.04191 0.85592 0.85084 0.0
C1473 C 0.04637 0.71018 0.86802 0.0
C1474 C 0.05043 0.70554 0.85069 0.0
C1475 C 0.04479 0.7485 0.87514 0.0
C1476 C 0.04489 0.85795 0.86439 0.0
H1477 H 0.05388 -0.00343 0.93433 0.0
H1478 H 0.0482 0.93095 0.92328 0.0
H1479 H 0.04464 0.92253 0.86407 0.0
H1480 H 0.0554 0.73699 0.82668 0.0
H1481 H 0.05297 0.80431 0.83938 0.0
H1482 H 0.0534 0.80051 0.8994 0.0
C1483 C 0.05212 0.95082 0.91414 0.0
C1484 C 0.04644 0.89597 0.87196 0.0
C1485 C 0.05541 0.98824 0.92046 0.0
C1486 C 0.0523 0.73984 0.84012 0.0
C1487 C 0.05085 0.77833 0.84736 0.0
C1488 C 0.05117 0.8268 0.89172 0.0
C1489 C 0.05375 0.93955 0.89607 0.0
C1490 C 0.05062 0.89968 0.88926 0.0
C1491 C 0.04737 0.78295 0.86517 0.0
C1492 C 0.04751 0.82301 0.874 0.0
H1493 H 0.06603 0.02259 0.8815 0.0
H1494 H 0.06043 0.95751 0.8707 0.0
H1495 H 0.056 0.8668 0.91258 0.0
H1496 H 0.04464 0.68412 0.87629 0.0
H1497 H 0.04187 0.75112 0.88872 0.0
C1498 C 0.20014 0.50838 0.86884 0.0
C1499 C 0.20179 0.51879 0.85067 0.0
C1500 C 0.2033 0.47126 0.87554 0.0
C1501 C 0.20894 0.36891 0.86074 0.0
H1502 H 0.21909 0.35729 0.90951 0.0
C1503 C 0.21629 0.2127 0.88943 0.0
C1504 C 0.21199 0.20545 0.90639 0.0
C1505 C 0.21754 0.252 0.88319 0.0
C1506 C 0.21627 0.36013 0.89587 0.0
H1507 H 0.20823 0.49862 0.82536 0.0
H1508 H 0.21374 0.43363 0.83714 0.0
H1509 H 0.21646 0.42472 0.89694 0.0
H1510 H 0.20629 0.23349 0.93071 0.0
H1511 H 0.20821 0.30248 0.91957 0.0
H1512 H 0.20841 0.30464 0.85977 0.0
C1513 C 0.20992 0.45417 0.84611 0.0
C1514 C 0.21476 0.39863 0.88869 0.0
C1515 C 0.20675 0.49135 0.83938 0.0
C1516 C 0.20958 0.23828 0.91754 0.0
C1517 C 0.21073 0.27775 0.91119 0.0
C1518 C 0.21044 0.33053 0.8679 0.0
C1519 C 0.20818 0.44373 0.86425 0.0
C1520 C 0.21089 0.40333 0.87117 0.0
C1521 C 0.21441 0.28486 0.8937 0.0
C1522 C 0.21395 0.32571 0.88565 0.0
H1523 H 0.19635 0.52876 0.87793 0.0
H1524 H 0.20169 0.46376 0.88948 0.0
H1525 H 0.20581 0.37153 0.84732 0.0
H1526 H 0.21842 0.18792 0.88071 0.0
H1527 H 0.22063 0.2566 0.86985 0.0
C1528 C 0.95575 0.74087 0.66109 0.0
C1529 C 0.95686 0.77493 0.64997 0.0
C1530 C 0.95792 0.70244 0.65441 0.0
C1531 C 0.95864 0.6495 0.61109 0.0
H1532 H 0.96859 0.5607 0.63997 0.0
C1533 C 0.95947 0.48729 0.58369 0.0
C1534 C 0.95533 0.45853 0.59543 0.0
C1535 C 0.96188 0.52576 0.59 0.0
C1536 C 0.96582 0.58529 0.63176 0.0
H1537 H 0.96187 0.79595 0.62373 0.0
H1538 H 0.9658 0.72915 0.61226 0.0
H1539 H 0.96901 0.62928 0.65214 0.0
H1540 H 0.95074 0.44735 0.62314 0.0
H1541 H 0.95478 0.51442 0.63395 0.0
H1542 H 0.95515 0.6056 0.59097 0.0
C1543 C 0.96298 0.7319 0.6259 0.0
C1544 C 0.96605 0.62444 0.63872 0.0
C1545 C 0.96072 0.77015 0.63249 0.0
C1546 C 0.95388 0.46876 0.61368 0.0
C1547 C 0.9563 0.5071 0.61996 0.0
C1548 C 0.95843 0.61046 0.60414 0.0
C1549 C 0.96133 0.69756 0.63659 0.0
C1550 C 0.96226 0.6568 0.6286 0.0
C1551 C 0.96022 0.53612 0.60816 0.0
C1552 C 0.96179 0.57787 0.61457 0.0
H1553 H 0.95284 0.74369 0.67466 0.0
H1554 H 0.9565 0.67649 0.66293 0.0
H1555 H 0.95552 0.67366 0.60306 0.0
H1556 H 0.96078 0.48026 0.56959 0.0
H1557 H 0.96496 0.54753 0.58065 0.0
C1558 C 0.80051 0.96206 0.63628 0.0
C1559 C 0.80327 0.9564 0.65441 0.0
C1560 C 0.79969 0.00079 0.62912 0.0
C1561 C 0.79872 0.10933 0.64118 0.0
H1562 H 0.81162 0.1229 0.59475 0.0
C1563 C 0.81367 0.2613 0.61662 0.0
C1564 C 0.81202 0.2723 0.59851 0.0
C1565 C 0.81123 0.22282 0.62271 0.0
C1566 C 0.80785 0.1195 0.60757 0.0
H1567 H 0.8069 0.98687 0.67949 0.0
H1568 H 0.80573 0.05462 0.66684 0.0
H1569 H 0.80942 0.05541 0.6071 0.0
H1570 H 0.80656 0.25126 0.57257 0.0
H1571 H 0.80239 0.18361 0.58329 0.0
H1572 H 0.7975 0.17374 0.64186 0.0
C1573 C 0.80404 0.02911 0.65823 0.0
C1574 C 0.80657 0.08086 0.61465 0.0
C1575 C 0.80477 0.9903 0.66546 0.0
C1576 C 0.80797 0.24372 0.58658 0.0
C1577 C 0.80558 0.20503 0.59269 0.0
C1578 C 0.80006 0.148 0.63413 0.0
C1579 C 0.80171 0.03469 0.63987 0.0
C1580 C 0.80214 0.07542 0.63167 0.0
C1581 C 0.80713 0.1944 0.61084 0.0
C1582 C 0.8048 0.15343 0.61742 0.0
H1583 H 0.79913 0.93651 0.6275 0.0
H1584 H 0.79767 0.00416 0.61504 0.0
H1585 H 0.79513 0.10604 0.65418 0.0
H1586 H 0.81678 0.28247 0.6262 0.0
H1587 H 0.81267 0.21514 0.6367 0.0
C1588 C 0.9587 0.23724 0.16603 0.0
C1589 C 0.96011 0.27167 0.15527 0.0
C1590 C 0.96105 0.19906 0.15928 0.0
C1591 C 0.96214 0.14881 0.11557 0.0
H1592 H 0.9705 0.05671 0.14403 0.0
C1593 C 0.96118 0.98643 0.08743 0.0
C1594 C 0.95682 0.95809 0.09912 0.0
C1595 C 0.96375 0.02475 0.09377 0.0
C1596 C 0.96817 0.08222 0.13592 0.0
H1597 H 0.96603 0.29372 0.12985 0.0
H1598 H 0.97026 0.22726 0.11825 0.0
H1599 H 0.97172 0.12453 0.15681 0.0
H1600 H 0.95174 0.94788 0.12662 0.0
H1601 H 0.95606 0.01457 0.13745 0.0
H1602 H 0.95823 0.10657 0.09497 0.0
C1603 C 0.96707 0.22957 0.13163 0.0
C1604 C 0.96888 0.12094 0.14323 0.0
C1605 C 0.96465 0.26759 0.13829 0.0
C1606 C 0.95511 0.96886 0.11723 0.0
C1607 C 0.95768 0.00699 0.12352 0.0
C1608 C 0.96143 0.11015 0.10828 0.0
C1609 C 0.96494 0.19483 0.14175 0.0
C1610 C 0.96563 0.1545 0.13328 0.0
C1611 C 0.96203 0.03531 0.1119 0.0
C1612 C 0.96418 0.07641 0.11858 0.0
H1613 H 0.95526 0.23952 0.1792 0.0
H1614 H 0.95927 0.17279 0.16736 0.0
H1615 H 0.95943 0.17399 0.10765 0.0
H1616 H 0.96267 0.97899 0.07345 0.0
H1617 H 0.96712 0.04603 0.08453 0.0
C1618 C 0.80055 0.46025 0.13545 0.0
C1619 C 0.80308 0.45357 0.15363 0.0
C1620 C 0.79986 0.49933 0.12865 0.0
C1621 C 0.79836 0.60698 0.14152 0.0
H1622 H 0.81167 0.6231 0.09564 0.0
C1623 C 0.81178 0.76191 0.11702 0.0
C1624 C 0.81061 0.77169 0.09865 0.0
C1625 C 0.80952 0.72338 0.1233 0.0
C1626 C 0.80778 0.61901 0.1083 0.0
H1627 H 0.80644 0.48268 0.17915 0.0
H1628 H 0.80546 0.5512 0.16713 0.0
H1629 H 0.80996 0.55522 0.10777 0.0
H1630 H 0.806 0.74865 0.0725 0.0
H1631 H 0.80211 0.68105 0.08354 0.0
H1632 H 0.79644 0.67112 0.14221 0.0
C1633 C 0.80388 0.52611 0.15821 0.0
C1634 C 0.80679 0.58014 0.11526 0.0
C1635 C 0.8045 0.48688 0.16507 0.0
C1636 C 0.80705 0.74206 0.08671 0.0
C1637 C 0.80483 0.70337 0.09301 0.0
C1638 C 0.79937 0.64594 0.13456 0.0
C1639 C 0.80176 0.53263 0.13983 0.0
C1640 C 0.80217 0.57375 0.13203 0.0
C1641 C 0.80606 0.6937 0.11136 0.0
C1642 C 0.80421 0.65232 0.118 0.0
H1643 H 0.79923 0.43523 0.12633 0.0
H1644 H 0.798 0.50344 0.11453 0.0
H1645 H 0.79465 0.6029 0.15435 0.0
H1646 H 0.81447 0.78396 0.12663 0.0
H1647 H 0.81069 0.71658 0.13746 0.0
C1648 C 0.56116 0.23357 0.86209 0.0
C1649 C 0.55793 0.22031 0.84505 0.0
C1650 C 0.55766 0.26949 0.86933 0.0
C1651 C 0.54729 0.36683 0.85798 0.0
H1652 H 0.54084 0.36828 0.9091 0.0
C1653 C 0.5419 0.51654 0.89325 0.0
C1654 C 0.54809 0.52078 0.90835 0.0
C1655 C 0.5396 0.47837 0.88662 0.0
C1656 C 0.54255 0.3683 0.89481 0.0
H1657 H 0.54876 0.23518 0.82192 0.0
H1658 H 0.54273 0.29888 0.83463 0.0
H1659 H 0.54406 0.30404 0.89404 0.0
H1660 H 0.55593 0.48888 0.92948 0.0
H1661 H 0.55218 0.42194 0.91761 0.0
H1662 H 0.54633 0.43102 0.85885 0.0
C1663 C 0.54792 0.28095 0.84234 0.0
C1664 C 0.5444 0.33164 0.8862 0.0
C1665 C 0.55142 0.24472 0.83505 0.0
C1666 C 0.55118 0.4863 0.91776 0.0
C1667 C 0.54898 0.448 0.91099 0.0
C1668 C 0.54547 0.40349 0.86658 0.0
C1669 C 0.55085 0.29308 0.85973 0.0
C1670 C 0.54715 0.33078 0.86789 0.0
C1671 C 0.54356 0.44382 0.89485 0.0
C1672 C 0.54343 0.40469 0.88523 0.0
H1673 H 0.56626 0.21577 0.87006 0.0
H1674 H 0.56028 0.27879 0.88253 0.0
H1675 H 0.54944 0.36698 0.84388 0.0
H1676 H 0.53925 0.54281 0.88599 0.0
H1677 H 0.53521 0.47601 0.87444 0.0
C1678 C 0.70443 0.72894 0.88837 0.0
C1679 C 0.70505 0.71924 0.90684 0.0
C1680 C 0.70611 0.7682 0.88246 0.0
C1681 C 0.70504 0.87247 0.8978 0.0
H1682 H 0.71885 0.8938 0.85284 0.0
C1683 C 0.7085 0.03304 0.8705 0.0
C1684 C 0.70604 0.03809 0.85218 0.0
C1685 C 0.71025 -0.00528 0.87751 0.0
C1686 C 0.71495 0.88824 0.86538 0.0
H1687 H 0.70809 0.74325 0.93357 0.0
H1688 H 0.71103 0.81219 0.92314 0.0
H1689 H 0.71847 0.82526 0.86503 0.0
H1690 H 0.70398 0.00717 0.82663 0.0
H1691 H 0.70682 0.93981 0.83902 0.0
H1692 H 0.70127 0.93501 0.89795 0.0
C1693 C 0.70917 0.78919 0.91331 0.0
C1694 C 0.71475 0.84911 0.87237 0.0
C1695 C 0.70748 0.74975 0.91927 0.0
C1696 C 0.70583 0.00418 0.84081 0.0
C1697 C 0.70751 0.96566 0.84789 0.0
C1698 C 0.70524 0.91153 0.89082 0.0
C1699 C 0.70846 0.79875 0.89485 0.0
C1700 C 0.70964 0.84076 0.88847 0.0
C1701 C 0.70951 0.96055 0.8664 0.0
C1702 C 0.71007 0.9197 0.87441 0.0
H1703 H 0.70256 0.70628 0.8784 0.0
H1704 H 0.70534 0.77482 0.86819 0.0
H1705 H 0.70092 0.86683 0.91009 0.0
H1706 H 0.70892 0.05868 0.87955 0.0
H1707 H 0.71199 0.99178 0.89173 0.0
C1708 C 0.5579 0.72113 0.36759 0.0
C1709 C 0.55608 0.71071 0.34948 0.0
C1710 C 0.55538 0.75917 0.37408 0.0
C1711 C 0.55147 0.86267 0.35927 0.0
H1712 H 0.54111 0.87612 0.4078 0.0
C1713 C 0.54729 0.01985 0.38915 0.0
C1714 C 0.5517 0.02454 0.4062 0.0
C1715 C 0.54515 0.98153 0.38251 0.0
C1716 C 0.54399 0.87279 0.39423 0.0
H1717 H 0.55012 0.73218 0.32398 0.0
H1718 H 0.54575 0.79901 0.3354 0.0
H1719 H 0.54261 0.80845 0.39495 0.0
H1720 H 0.55664 -0.00687 0.43027 0.0
H1721 H 0.55313 0.92589 0.41848 0.0
H1722 H 0.5532 0.92664 0.3587 0.0
C1723 C 0.54917 0.77754 0.3445 0.0
C1724 C 0.54485 0.83415 0.38688 0.0
C1725 C 0.55169 0.73933 0.33797 0.0
C1726 C 0.55328 0.99037 0.41705 0.0
C1727 C 0.55122 0.95189 0.41032 0.0
C1728 C 0.55061 0.90124 0.3666 0.0
C1729 C 0.55098 0.78775 0.36263 0.0
C1730 C 0.54882 0.8287 0.3695 0.0
C1731 C 0.54746 0.9471 0.39272 0.0
C1732 C 0.54706 0.90664 0.38429 0.0
H1733 H 0.56129 0.69993 0.37685 0.0
H1734 H 0.55706 0.76647 0.38801 0.0
H1735 H 0.55467 0.85938 0.34594 0.0
H1736 H 0.5458 0.04576 0.38063 0.0
H1737 H 0.54205 0.97878 0.36908 0.0
C1738 C 0.71654 0.2202 0.39709 0.0
C1739 C 0.7108 0.21262 0.41251 0.0
C1740 C 0.71733 0.25916 0.39022 0.0
C1741 C 0.71121 0.36671 0.39877 0.0
H1742 H 0.70578 0.36701 0.34725 0.0
C1743 C 0.69377 0.50194 0.36351 0.0
C1744 C 0.698 0.51511 0.3472 0.0
C1745 C 0.69659 0.46538 0.37115 0.0
C1746 C 0.70745 0.36744 0.36156 0.0
H1747 H 0.70203 0.23977 0.43373 0.0
H1748 H 0.70313 0.30804 0.42142 0.0
H1749 H 0.70939 0.30359 0.36245 0.0
H1750 H 0.70816 0.49931 0.32564 0.0
H1751 H 0.71302 0.43474 0.33903 0.0
H1752 H 0.70887 0.43054 0.39788 0.0
C1753 C 0.70716 0.28404 0.41477 0.0
C1754 C 0.70957 0.33119 0.37029 0.0
C1755 C 0.70649 0.24499 0.42181 0.0
C1756 C 0.70475 0.48992 0.3382 0.0
C1757 C 0.70756 0.45311 0.34588 0.0
C1758 C 0.70905 0.40295 0.39004 0.0
C1759 C 0.71225 0.29115 0.39849 0.0
C1760 C 0.71128 0.33033 0.38905 0.0
C1761 C 0.70367 0.44111 0.36264 0.0
C1762 C 0.70694 0.40345 0.37144 0.0
H1763 H 0.72008 0.19568 0.38989 0.0
H1764 H 0.72153 0.26391 0.37795 0.0
H1765 H 0.71265 0.36706 0.41317 0.0
H1766 H 0.68845 0.52036 0.37067 0.0
H1767 H 0.69328 0.45625 0.38384 0.0
C1768 C 0.45806 0.46519 0.12024 0.0
C1769 C 0.45553 0.46106 0.10192 0.0
C1770 C 0.45966 0.50324 0.12766 0.0
C1771 C 0.46333 0.61119 0.11638 0.0
H1772 H 0.44959 0.62835 0.16176 0.0
C1773 C 0.45059 0.76687 0.1399 0.0
C1774 C 0.45179 0.77737 0.15818 0.0
C1775 C 0.45258 0.72785 0.13402 0.0
C1776 C 0.45362 0.62388 0.14927 0.0
H1777 H 0.45317 0.49322 0.07677 0.0
H1778 H 0.45568 0.56001 0.08986 0.0
H1779 H 0.45069 0.5606 0.14925 0.0
H1780 H 0.45601 0.75486 0.18465 0.0
H1781 H 0.45942 0.68619 0.17427 0.0
H1782 H 0.4659 0.67492 0.11615 0.0
C1783 C 0.45659 0.53376 0.09843 0.0
C1784 C 0.45426 0.58509 0.14209 0.0
C1785 C 0.45509 0.49556 0.09094 0.0
C1786 C 0.45496 0.74773 0.17049 0.0
C1787 C 0.45692 0.70848 0.16458 0.0
C1788 C 0.46264 0.65003 0.12354 0.0
C1789 C 0.45865 0.53799 0.11696 0.0
C1790 C 0.45896 0.57846 0.1254 0.0
C1791 C 0.45581 0.69835 0.14626 0.0
C1792 C 0.45759 0.6568 0.13984 0.0
H1793 H 0.45865 0.43903 0.12896 0.0
H1794 H 0.46146 0.50548 0.14188 0.0
H1795 H 0.46714 0.60689 0.10366 0.0
H1796 H 0.44813 0.78881 0.13002 0.0
H1797 H 0.45146 0.72062 0.11989 0.0
C1798 C 0.29979 0.97024 0.13944 0.0
C1799 C 0.30322 0.96595 0.15726 0.0
C1800 C 0.29765 0.00828 0.13249 0.0
C1801 C 0.29437 0.11614 0.14434 0.0
H1802 H 0.30697 0.13342 0.09789 0.0
C1803 C 0.30742 0.27123 0.12017 0.0
C1804 C 0.30636 0.28143 0.10182 0.0
C1805 C 0.30501 0.23271 0.12624 0.0
C1806 C 0.30323 0.12899 0.11067 0.0
H1807 H 0.30649 -0.00229 0.18216 0.0
H1808 H 0.30303 0.06458 0.16983 0.0
H1809 H 0.30598 0.06562 0.11022 0.0
H1810 H 0.30178 0.25923 0.07551 0.0
H1811 H 0.2976 0.19164 0.08621 0.0
H1812 H 0.29198 0.18001 0.14501 0.0
C1813 C 0.30186 0.03842 0.16131 0.0
C1814 C 0.30265 0.09012 0.11776 0.0
C1815 C 0.30391 0.0002 0.16835 0.0
C1816 C 0.30276 0.25226 0.0897 0.0
C1817 C 0.30035 0.2136 0.09581 0.0
C1818 C 0.29497 0.15511 0.13725 0.0
C1819 C 0.29899 0.04287 0.14315 0.0
C1820 C 0.29841 0.0834 0.13483 0.0
C1821 C 0.30148 0.20349 0.11414 0.0
C1822 C 0.29962 0.16196 0.12055 0.0
H1823 H 0.29897 0.94424 0.13069 0.0
H1824 H 0.29523 0.01071 0.11858 0.0
H1825 H 0.29093 0.11175 0.1574 0.0
H1826 H 0.31017 0.29291 0.1299 0.0
H1827 H 0.30613 0.22554 0.14038 0.0
C1828 C 0.45269 0.23943 0.6677 0.0
C1829 C 0.45331 0.27314 0.65625 0.0
C1830 C 0.45446 0.20074 0.66092 0.0
C1831 C 0.45346 0.14622 0.61785 0.0
H1832 H 0.46565 0.05965 0.64516 0.0
C1833 C 0.45743 0.98563 0.58906 0.0
C1834 C 0.45448 0.95448 0.60079 0.0
C1835 C 0.45867 0.02487 0.59554 0.0
C1836 C 0.46221 0.08359 0.63742 0.0
H1837 H 0.45701 0.29325 0.62915 0.0
H1838 H 0.46028 0.22607 0.61749 0.0
H1839 H 0.46561 0.12814 0.65743 0.0
H1840 H 0.45064 0.94016 0.62859 0.0
H1841 H 0.45269 0.00854 0.63973 0.0
H1842 H 0.44991 0.10172 0.598 0.0
C1843 C 0.45812 0.22926 0.63151 0.0
C1844 C 0.46218 0.12269 0.64444 0.0
C1845 C 0.45626 0.26774 0.63822 0.0
C1846 C 0.45291 0.96337 0.61915 0.0
C1847 C 0.45417 0.0025 0.6256 0.0
C1848 C 0.45352 0.10724 0.61082 0.0
C1849 C 0.45697 0.19527 0.64264 0.0
C1850 C 0.45769 0.15429 0.63481 0.0
C1851 C 0.45701 0.03364 0.61387 0.0
C1852 C 0.45777 0.07546 0.62065 0.0
H1853 H 0.45046 0.24276 0.68168 0.0
H1854 H 0.45346 0.17506 0.66979 0.0
H1855 H 0.44978 0.16977 0.61024 0.0
H1856 H 0.45877 0.97978 0.57487 0.0
H1857 H 0.46093 0.04835 0.58623 0.0
C1858 C 0.3028 0.49137 0.66647 0.0
C1859 C 0.3012 0.45784 0.65525 0.0
C1860 C 0.30147 0.53042 0.65974 0.0
C1861 C 0.30248 0.58311 0.61634 0.0
H1862 H 0.29383 0.67534 0.6444 0.0
C1863 C 0.30433 0.74457 0.58796 0.0
C1864 C 0.30863 0.77298 0.59967 0.0
C1865 C 0.30148 0.70672 0.59442 0.0
C1866 C 0.29626 0.64979 0.63643 0.0
H1867 H 0.29611 0.43857 0.62881 0.0
H1868 H 0.29361 0.50646 0.61725 0.0
H1869 H 0.29199 0.60736 0.65682 0.0
H1870 H 0.31313 0.78409 0.62743 0.0
H1871 H 0.30831 0.71806 0.63851 0.0
H1872 H 0.30702 0.62535 0.59619 0.0
C1873 C 0.2962 0.50277 0.63101 0.0
C1874 C 0.29522 0.61098 0.64353 0.0
C1875 C 0.29762 0.4639 0.63764 0.0
C1876 C 0.30986 0.76296 0.618 0.0
C1877 C 0.307 0.72522 0.62443 0.0
C1878 C 0.30351 0.62181 0.60925 0.0
C1879 C 0.29842 0.53644 0.64176 0.0
C1880 C 0.29849 0.57731 0.63368 0.0
C1881 C 0.30285 0.69663 0.6127 0.0
C1882 C 0.3006 0.65558 0.61936 0.0
H1883 H 0.30553 0.48752 0.68012 0.0
H1884 H 0.30331 0.55581 0.66832 0.0
H1885 H 0.30524 0.55786 0.60853 0.0
H1886 H 0.30319 0.75146 0.57381 0.0
H1887 H 0.29822 0.68531 0.58511 0.0
C1888 C 0.06102 0.76523 0.42834 0.0
C1889 C 0.05496 0.73252 0.42379 0.0
C1890 C 0.06112 0.79973 0.41734 0.0
C1891 C 0.04751 0.85209 0.38056 0.0
H1892 H 0.07348 0.88895 0.36607 0.0
C1893 C 0.0525 0.96986 0.32384 0.0
C1894 C 0.05829 0.00272 0.32934 0.0
C1895 C 0.05258 0.93399 0.33395 0.0
C1896 C 0.06618 0.87896 0.37 0.0
H1897 H 0.04387 0.71054 0.40514 0.0
H1898 H 0.0439 0.77048 0.38627 0.0
H1899 H 0.07196 0.83635 0.38902 0.0
H1900 H 0.06922 0.02293 0.34873 0.0
H1901 H 0.06952 0.961 0.36589 0.0
H1902 H 0.04173 0.89483 0.36161 0.0
C1903 C 0.04858 0.76998 0.39814 0.0
C1904 C 0.06531 0.8492 0.38328 0.0
C1905 C 0.04858 0.73562 0.40892 0.0
C1906 C 0.06467 -0.00178 0.34415 0.0
C1907 C 0.06487 0.96251 0.35399 0.0
C1908 C 0.04838 0.88184 0.36728 0.0
C1909 C 0.05506 0.80191 0.40187 0.0
C1910 C 0.05596 0.83553 0.38874 0.0
C1911 C 0.05859 0.9305 0.34942 0.0
C1912 C 0.05773 0.89573 0.36193 0.0
H1913 H 0.06609 0.76311 0.43962 0.0
H1914 H 0.06613 0.82414 0.4206 0.0
H1915 H 0.0402 0.8423 0.38456 0.0
H1916 H 0.04746 0.97279 0.31255 0.0
H1917 H 0.04772 0.90956 0.33005 0.0
C1918 C 0.2016 0.4754 0.43044 0.0
C1919 C 0.20753 0.50753 0.42459 0.0
C1920 C 0.20091 0.44025 0.41991 0.0
C1921 C 0.21297 0.38547 0.38202 0.0
H1922 H 0.18656 0.34692 0.3716 0.0
C1923 C 0.20601 0.26862 0.32594 0.0
C1924 C 0.20065 0.23505 0.33202 0.0
C1925 C 0.20616 0.30414 0.33625 0.0
C1926 C 0.19398 0.35739 0.3744 0.0
H1927 H 0.21777 0.52777 0.40399 0.0
H1928 H 0.21667 0.46698 0.38593 0.0
H1929 H 0.18892 0.40044 0.39391 0.0
H1930 H 0.19064 0.2132 0.35266 0.0
H1931 H 0.19075 0.27468 0.37029 0.0
H1932 H 0.21803 0.34258 0.3625 0.0
C1933 C 0.21255 0.46835 0.39846 0.0
C1934 C 0.19534 0.38768 0.38731 0.0
C1935 C 0.21315 0.50327 0.40878 0.0
C1936 C 0.19487 0.23851 0.34768 0.0
C1937 C 0.19489 0.27391 0.35777 0.0
C1938 C 0.21161 0.35534 0.36909 0.0
C1939 C 0.20625 0.43682 0.40362 0.0
C1940 C 0.20485 0.40213 0.39121 0.0
C1941 C 0.20082 0.30657 0.35256 0.0
C1942 C 0.20211 0.341 0.36512 0.0
H1943 H 0.19713 0.47832 0.44249 0.0
H1944 H 0.19604 0.41621 0.42427 0.0
H1945 H 0.22041 0.39569 0.38486 0.0
H1946 H 0.21058 0.26652 0.31397 0.0
H1947 H 0.21072 0.32912 0.33184 0.0
C1948 C 0.04824 0.49848 0.85256 0.0
C1949 C 0.05198 0.5006 0.8349 0.0
C1950 C 0.04925 0.46357 0.86276 0.0
C1951 C 0.0651 0.37575 0.86804 0.0
H1952 H 0.04415 0.33911 0.89984 0.0
C1953 C 0.06611 0.22548 0.90645 0.0
C1954 C 0.06192 0.22306 0.92379 0.0
C1955 C 0.0657 0.26111 0.89657 0.0
C1956 C 0.05012 0.34945 0.89128 0.0
H1957 H 0.05949 0.46758 0.81374 0.0
H1958 H 0.06128 0.40541 0.83178 0.0
H1959 H 0.04103 0.39422 0.87878 0.0
H1960 H 0.05446 0.25666 0.94482 0.0
H1961 H 0.05368 0.31979 0.92737 0.0
H1962 H 0.07417 0.33077 0.88052 0.0
C1963 C 0.05758 0.43124 0.83766 0.0
C1964 C 0.04831 0.38072 0.87909 0.0
C1965 C 0.05648 0.46647 0.82729 0.0
C1966 C 0.05776 0.25778 0.93149 0.0
C1967 C 0.05725 0.29366 0.92146 0.0
C1968 C 0.0669 0.3444 0.88023 0.0
C1969 C 0.05407 0.42977 0.85559 0.0
C1970 C 0.05579 0.39428 0.86737 0.0
C1971 C 0.06102 0.29528 0.90372 0.0
C1972 C 0.05943 0.33091 0.89197 0.0
H1973 H 0.04471 0.52438 0.85876 0.0
H1974 H 0.04658 0.46369 0.87656 0.0
H1975 H 0.07105 0.38607 0.85943 0.0
H1976 H 0.06942 0.1994 0.90011 0.0
H1977 H 0.06859 0.26116 0.88292 0.0
C1978 C 0.203 0.96586 0.92672 0.0
C1979 C 0.20889 -0.00228 0.92042 0.0
C1980 C 0.20162 0.93146 0.91594 0.0
C1981 C 0.21203 0.8769 0.87656 0.0
H1982 H 0.1852 0.83969 0.86922 0.0
C1983 C 0.20319 0.75742 0.82269 0.0
C1984 C 0.19783 0.72467 0.8296 0.0
C1985 C 0.20369 0.79362 0.83246 0.0
C1986 C 0.19273 0.84976 0.87116 0.0
H1987 H 0.21831 0.01817 0.89858 0.0
H1988 H 0.21601 0.95864 0.88005 0.0
H1989 H 0.18847 0.89348 0.89102 0.0
H1990 H 0.18811 0.70501 0.85114 0.0
H1991 H 0.18887 0.76762 0.86792 0.0
H1992 H 0.21632 0.83319 0.85682 0.0
C1993 C 0.21245 0.95974 0.89315 0.0
C1994 C 0.19461 0.88024 0.88376 0.0
C1995 C 0.21373 -0.00605 0.90374 0.0
C1996 C 0.19235 0.72967 0.84555 0.0
C1997 C 0.19274 0.76573 0.85514 0.0
C1998 C 0.21015 0.84651 0.86398 0.0
C1999 C 0.20623 0.92846 0.89891 0.0
C2000 C 0.20428 0.89413 0.88658 0.0
C2001 C 0.19871 0.79756 0.8491 0.0
C2002 C 0.20049 0.83255 0.86115 0.0
H2003 H 0.19913 0.96836 0.93947 0.0
H2004 H 0.19684 0.90757 0.92075 0.0
H2005 H 0.21957 0.88674 0.87856 0.0
H2006 H 0.20751 0.75418 0.81046 0.0
H2007 H 0.20826 0.81794 0.82738 0.0
C2008 C 0.94488 0.24755 0.59076 0.0
C2009 C 0.95151 0.25135 0.57628 0.0
C2010 C 0.94447 0.21214 0.60083 0.0
C2011 C 0.96087 0.13282 0.61561 0.0
H2012 H 0.93716 0.08448 0.63553 0.0
C2013 C 0.96108 0.98475 0.65526 0.0
C2014 C 0.95449 0.97946 0.66968 0.0
C2015 C 0.9609 0.01985 0.645 0.0
C2016 C 0.94384 0.09818 0.63032 0.0
H2017 H 0.96253 0.22054 0.56024 0.0
H2018 H 0.96192 0.15802 0.57814 0.0
H2019 H 0.93578 0.13777 0.61281 0.0
H2020 H 0.94277 0.00691 0.68526 0.0
H2021 H 0.94243 0.06933 0.66714 0.0
H2022 H 0.96895 0.09372 0.63321 0.0
C2023 C 0.95702 0.18268 0.58161 0.0
C2024 C 0.94305 0.1283 0.61718 0.0
C2025 C 0.95731 0.21814 0.57128 0.0
C2026 C 0.94799 0.01072 0.67431 0.0
C2027 C 0.94773 0.04602 0.66382 0.0
C2028 C 0.96167 0.10289 0.6288 0.0
C2029 C 0.9508 0.17993 0.59682 0.0
C2030 C 0.95157 0.14577 0.60964 0.0
C2031 C 0.95406 0.05044 0.64882 0.0
C2032 C 0.95316 0.08505 0.63622 0.0
H2033 H 0.9403 0.27262 0.59489 0.0
H2034 H 0.93964 0.21106 0.61249 0.0
H2035 H 0.96756 0.14648 0.61039 0.0
H2036 H 0.96613 0.96087 0.65144 0.0
H2037 H 0.96579 0.02199 0.63346 0.0
C2038 C 0.80452 0.51342 0.58005 0.0
C2039 C 0.81083 0.48156 0.58479 0.0
C2040 C 0.80402 0.54791 0.59098 0.0
C2041 C 0.8167 0.60366 0.62763 0.0
H2042 H 0.79015 0.63263 0.64229 0.0
C2043 C 0.80963 0.72184 0.68353 0.0
C2044 C 0.80286 0.75163 0.67832 0.0
C2045 C 0.81036 0.68598 0.67353 0.0
C2046 C 0.79761 0.625 0.63828 0.0
H2047 H 0.8221 0.4619 0.60365 0.0
H2048 H 0.82137 0.52191 0.62235 0.0
H2049 H 0.79258 0.58025 0.61959 0.0
H2050 H 0.79119 0.76698 0.65956 0.0
H2051 H 0.79233 0.70485 0.64239 0.0
H2052 H 0.82173 0.64877 0.64617 0.0
C2053 C 0.81674 0.52041 0.61043 0.0
C2054 C 0.79899 0.59527 0.62517 0.0
C2055 C 0.81713 0.48591 0.59973 0.0
C2056 C 0.79643 0.74421 0.66385 0.0
C2057 C 0.79707 0.70853 0.65405 0.0
C2058 C 0.81532 0.63358 0.64069 0.0
C2059 C 0.80995 0.55114 0.60655 0.0
C2060 C 0.80854 0.58444 0.61964 0.0
C2061 C 0.80424 0.67953 0.65839 0.0
C2062 C 0.80575 0.64476 0.64607 0.0
H2063 H 0.79955 0.5106 0.56865 0.0
H2064 H 0.79879 0.57146 0.58759 0.0
H2065 H 0.82414 0.59589 0.6236 0.0
H2066 H 0.81475 0.72732 0.69451 0.0
H2067 H 0.81591 0.66394 0.67726 0.0
C2068 C 0.95297 0.50947 0.18101 0.0
C2069 C 0.94875 0.47445 0.17371 0.0
C2070 C 0.95307 0.54527 0.1709 0.0
C2071 C 0.94272 0.59546 0.13004 0.0
H2072 H 0.96875 0.64345 0.12683 0.0
C2073 C 0.95272 0.71719 0.07646 0.0
C2074 C 0.95746 0.75101 0.08384 0.0
C2075 C 0.95164 0.68197 0.08685 0.0
C2076 C 0.96143 0.6305 0.12764 0.0
H2077 H 0.94058 0.45002 0.15104 0.0
H2078 H 0.94066 0.512 0.13362 0.0
H2079 H 0.96582 0.58876 0.14816 0.0
H2080 H 0.96519 0.77426 0.1073 0.0
H2081 H 0.96342 0.71344 0.12514 0.0
H2082 H 0.93836 0.63737 0.10945 0.0
C2083 C 0.94395 0.51218 0.14697 0.0
C2084 C 0.95972 0.59944 0.13998 0.0
C2085 C 0.94395 0.47653 0.15692 0.0
C2086 C 0.96148 0.74855 0.10129 0.0
C2087 C 0.96052 0.7136 0.1115 0.0
C2088 C 0.94443 0.62666 0.11769 0.0
C2089 C 0.94884 0.5465 0.1535 0.0
C2090 C 0.95035 0.58163 0.14137 0.0
C2091 C 0.95543 0.68014 0.10458 0.0
C2092 C 0.95379 0.64463 0.11642 0.0
H2093 H 0.95676 0.50846 0.19389 0.0
H2094 H 0.95678 0.57151 0.17637 0.0
H2095 H 0.93541 0.58234 0.13083 0.0
H2096 H 0.94949 0.7186 0.06309 0.0
H2097 H 0.94773 0.65644 0.08116 0.0
C2098 C 0.80871 0.21778 0.18029 0.0
C2099 C 0.80187 0.24745 0.17524 0.0
C2100 C 0.80973 0.18276 0.16979 0.0
C2101 C 0.79768 0.1232 0.13329 0.0
H2102 H 0.8245 0.09608 0.11963 0.0
C2103 C 0.80552 0.01163 0.07557 0.0
C2104 C 0.81183 0.9801 0.08071 0.0
C2105 C 0.8049 0.04653 0.08622 0.0
C2106 C 0.81698 0.10331 0.12336 0.0
H2107 H 0.79038 0.26338 0.15619 0.0
H2108 H 0.79202 0.2026 0.13817 0.0
H2109 H 0.8216 0.1481 0.14242 0.0
H2110 H 0.82302 0.96145 0.0999 0.0
H2111 H 0.82209 0.02218 0.11813 0.0
H2112 H 0.79306 0.07866 0.11415 0.0
C2113 C 0.79659 0.20578 0.15008 0.0
C2114 C 0.81531 0.13275 0.13654 0.0
C2115 C 0.79566 0.24065 0.16039 0.0
C2116 C 0.81806 0.98526 0.09568 0.0
C2117 C 0.81756 0.02016 0.10611 0.0
C2118 C 0.79934 0.09394 0.12007 0.0
C2119 C 0.80384 0.17699 0.1543 0.0
C2120 C 0.80564 0.14312 0.1416 0.0
C2121 C 0.8107 0.05046 0.10192 0.0
C2122 C 0.809 0.08375 0.11493 0.0
H2123 H 0.81367 0.22282 0.19155 0.0
H2124 H 0.81532 0.16086 0.17344 0.0
H2125 H 0.79015 0.13022 0.13703 0.0
H2126 H 0.80059 0.00815 0.06415 0.0
H2127 H 0.79963 0.06973 0.08258 0.0
C2128 C 0.55793 0.72326 0.89822 0.0
C2129 C 0.55855 0.72458 0.91719 0.0
C2130 C 0.5585 0.75832 0.888 0.0
C2131 C 0.56689 0.86294 0.88788 0.0
H2132 H 0.54754 0.8745 0.84951 0.0
C2133 C 0.56018 0.01247 0.85114 0.0
C2134 C 0.55816 0.01245 0.83249 0.0
C2135 C 0.56102 0.97655 0.86069 0.0
C2136 C 0.5531 0.8714 0.85993 0.0
H2137 H 0.5605 0.76381 0.94031 0.0
H2138 H 0.5615 0.82611 0.9222 0.0
H2139 H 0.54724 0.81484 0.86877 0.0
H2140 H 0.55557 0.97449 0.80915 0.0
H2141 H 0.55705 0.91077 0.82603 0.0
H2142 H 0.57274 0.91961 0.87906 0.0
C2143 C 0.56059 0.79743 0.91538 0.0
C2144 C 0.55289 0.83739 0.87105 0.0
C2145 C 0.55999 0.76195 0.92573 0.0
C2146 C 0.55712 0.97539 0.8235 0.0
C2147 C 0.55794 0.93906 0.83317 0.0
C2148 C 0.56712 0.89696 0.87671 0.0
C2149 C 0.55968 0.79584 0.89641 0.0
C2150 C 0.55977 0.83283 0.88515 0.0
C2151 C 0.55986 0.93941 0.8519 0.0
C2152 C 0.56018 0.90167 0.86269 0.0
H2153 H 0.55686 0.69504 0.89111 0.0
H2154 H 0.55798 0.756 0.87343 0.0
H2155 H 0.57237 0.8599 0.89846 0.0
H2156 H 0.56096 0.04041 0.85859 0.0
H2157 H 0.56231 0.97801 0.87512 0.0
C2158 C 0.71376 0.50764 0.91018 0.0
C2159 C 0.70752 0.51197 0.92519 0.0
C2160 C 0.71334 0.47315 0.89953 0.0
C2161 C 0.69578 0.39645 0.88529 0.0
H2162 H 0.71878 0.34763 0.86299 0.0
C2163 C 0.69501 0.24827 0.84526 0.0
C2164 C 0.70137 0.24349 0.83045 0.0
C2165 C 0.69504 0.28375 0.85528 0.0
C2166 C 0.71229 0.3615 0.86886 0.0
H2167 H 0.69622 0.48343 0.94139 0.0
H2168 H 0.69545 0.42218 0.92259 0.0
H2169 H 0.72094 0.39952 0.88602 0.0
H2170 H 0.71236 0.27267 0.81377 0.0
H2171 H 0.71251 0.33545 0.83152 0.0
H2172 H 0.68713 0.35816 0.86819 0.0
C2173 C 0.70067 0.44571 0.91913 0.0
C2174 C 0.71352 0.39089 0.88217 0.0
C2175 C 0.70118 0.48033 0.93 0.0
C2176 C 0.70733 0.27589 0.82505 0.0
C2177 C 0.70748 0.31148 0.83531 0.0
C2178 C 0.69454 0.367 0.87198 0.0
C2179 C 0.70659 0.44233 0.90352 0.0
C2180 C 0.70528 0.40871 0.89053 0.0
C2181 C 0.70155 0.31513 0.85087 0.0
C2182 C 0.70279 0.3492 0.86364 0.0
H2183 H 0.71867 0.53189 0.9062 0.0
H2184 H 0.71792 0.47175 0.88755 0.0
H2185 H 0.68929 0.41025 0.8912 0.0
H2186 H 0.69034 0.2238 0.84973 0.0
H2187 H 0.69043 0.28543 0.86722 0.0
C2188 C 0.55069 0.50135 0.35073 0.0
C2189 C 0.55494 0.50397 0.33349 0.0
C2190 C 0.55149 0.46623 0.36087 0.0
C2191 C 0.56753 0.37951 0.36761 0.0
H2192 H 0.54579 0.34134 0.39717 0.0
C2193 C 0.56764 0.22994 0.40732 0.0
C2194 C 0.56266 0.22823 0.42393 0.0
C2195 C 0.56774 0.26537 0.39721 0.0
C2196 C 0.55197 0.3521 0.38924 0.0
H2197 H 0.56315 0.47176 0.31297 0.0
H2198 H 0.56463 0.40931 0.33093 0.0
H2199 H 0.54305 0.39578 0.37563 0.0
H2200 H 0.55444 0.26265 0.44369 0.0
H2201 H 0.55458 0.3253 0.42589 0.0
H2202 H 0.57643 0.33553 0.38123 0.0
C2203 C 0.56066 0.4348 0.33652 0.0
C2204 C 0.55039 0.38299 0.37677 0.0
C2205 C 0.55974 0.47019 0.32619 0.0
C2206 C 0.55837 0.26339 0.43094 0.0
C2207 C 0.55836 0.29895 0.42068 0.0
C2208 C 0.56911 0.34846 0.38008 0.0
C2209 C 0.55664 0.43281 0.35407 0.0
C2210 C 0.55815 0.39725 0.36591 0.0
C2211 C 0.56277 0.29979 0.40343 0.0
C2212 C 0.56136 0.3346 0.3911 0.0
H2213 H 0.54694 0.52705 0.35665 0.0
H2214 H 0.54842 0.46591 0.37438 0.0
H2215 H 0.57369 0.39034 0.35964 0.0
H2216 H 0.57108 0.20329 0.40168 0.0
H2217 H 0.57117 0.26493 0.38398 0.0
C2218 C 0.70492 0.96883 0.43191 0.0
C2219 C 0.70814 0.00475 0.42378 0.0
C2220 C 0.70389 0.93368 0.42148 0.0
C2221 C 0.70076 0.90171 0.37384 0.0
H2222 H 0.70966 0.79739 0.391 0.0
C2223 C 0.70441 0.75913 0.32816 0.0
C2224 C 0.70116 0.72296 0.33605 0.0
C2225 C 0.70486 0.79455 0.33854 0.0
C2226 C 0.70707 0.82632 0.38608 0.0
H2227 H 0.71322 0.03172 0.39866 0.0
H2228 H 0.71158 0.97105 0.38085 0.0
H2229 H 0.71108 0.85621 0.41066 0.0
H2230 H 0.69537 0.69601 0.36068 0.0
H2231 H 0.69604 0.75712 0.37837 0.0
H2232 H 0.69683 0.87179 0.34919 0.0
C2233 C 0.70958 0.96989 0.39502 0.0
C2234 C 0.70785 0.8599 0.39738 0.0
C2235 C 0.71059 0.00465 0.40532 0.0
C2236 C 0.698 0.72321 0.35416 0.0
C2237 C 0.69845 0.75823 0.36441 0.0
C2238 C 0.70001 0.86814 0.36252 0.0
C2239 C 0.70607 0.93419 0.40285 0.0
C2240 C 0.70474 0.89798 0.39135 0.0
C2241 C 0.70208 0.79404 0.3569 0.0
C2242 C 0.70315 0.83012 0.36854 0.0
H2243 H 0.70297 0.96818 0.4461 0.0
H2244 H 0.70116 0.90646 0.42787 0.0
H2245 H 0.69818 0.93062 0.3689 0.0
H2246 H 0.7069 0.75975 0.31425 0.0
H2247 H 0.70769 0.82191 0.33242 0.0
C2248 C 0.44541 0.25178 0.09444 0.0
C2249 C 0.45145 0.25652 0.07918 0.0
C2250 C 0.44532 0.21571 0.10402 0.0
C2251 C 0.46181 0.13249 0.11472 0.0
H2252 H 0.43886 0.09053 0.13984 0.0
C2253 C 0.46185 0.98561 0.15602 0.0
C2254 C 0.45648 0.98432 0.17221 0.0
C2255 C 0.46163 0.01975 0.1451 0.0
C2256 C 0.44535 0.10235 0.13311 0.0
H2257 H 0.4617 0.22653 0.06123 0.0
H2258 H 0.46157 0.16254 0.07812 0.0
H2259 H 0.43682 0.14364 0.11728 0.0
H2260 H 0.4469 0.01781 0.19015 0.0
H2261 H 0.44642 0.07834 0.17081 0.0
H2262 H 0.47032 0.09102 0.13053 0.0
C2263 C 0.45693 0.18715 0.08268 0.0
C2264 C 0.44418 0.13247 0.12008 0.0
C2265 C 0.45693 0.22347 0.07291 0.0
C2266 C 0.45119 0.01846 0.1778 0.0
C2267 C 0.45084 0.05271 0.16666 0.0
C2268 C 0.46297 0.10223 0.12769 0.0
C2269 C 0.45134 0.18344 0.09866 0.0
C2270 C 0.45241 0.14812 0.11084 0.0
C2271 C 0.45591 0.05324 0.15002 0.0
C2272 C 0.45476 0.08704 0.13709 0.0
H2273 H 0.44106 0.27659 0.09957 0.0
H2274 H 0.44099 0.21414 0.1163 0.0
H2275 H 0.46832 0.14449 0.10814 0.0
H2276 H 0.46596 0.95946 0.15144 0.0
H2277 H 0.46554 0.01907 0.13233 0.0
C2278 C 0.30485 0.72745 0.18365 0.0
C2279 C 0.30996 0.76141 0.1773 0.0
C2280 C 0.30491 0.6916 0.17357 0.0
C2281 C 0.31732 0.63898 0.13542 0.0
H2282 H 0.29116 0.59691 0.12566 0.0
C2283 C 0.31015 0.52115 0.07917 0.0
C2284 C 0.30466 0.48787 0.08514 0.0
C2285 C 0.31063 0.55611 0.08984 0.0
C2286 C 0.29852 0.60823 0.12831 0.0
H2287 H 0.31977 0.7837 0.15641 0.0
H2288 H 0.32 0.72176 0.13918 0.0
H2289 H 0.29324 0.6505 0.14791 0.0
H2290 H 0.29497 0.46526 0.10613 0.0
H2291 H 0.29568 0.52583 0.12445 0.0
H2292 H 0.32258 0.59668 0.11577 0.0
C2293 C 0.3159 0.72242 0.15174 0.0
C2294 C 0.29972 0.6386 0.14118 0.0
C2295 C 0.31572 0.75811 0.16161 0.0
C2296 C 0.29925 0.49069 0.10125 0.0
C2297 C 0.29962 0.52545 0.11172 0.0
C2298 C 0.31612 0.60853 0.12255 0.0
C2299 C 0.31022 0.68926 0.15722 0.0
C2300 C 0.30913 0.65434 0.14487 0.0
C2301 C 0.30551 0.55817 0.1064 0.0
C2302 C 0.3067 0.59281 0.11888 0.0
H2303 H 0.30031 0.72941 0.19567 0.0
H2304 H 0.30054 0.66624 0.1782 0.0
H2305 H 0.32467 0.65047 0.13803 0.0
H2306 H 0.31446 0.51933 0.06687 0.0
H2307 H 0.31517 0.58111 0.08538 0.0
C2308 C 0.44383 0.48425 0.65994 0.0
C2309 C 0.4496 0.47958 0.67555 0.0
C2310 C 0.44431 0.51952 0.64978 0.0
C2311 C 0.46203 0.59756 0.6383 0.0
H2312 H 0.43988 0.64606 0.61315 0.0
C2313 C 0.46491 0.74417 0.59739 0.0
C2314 C 0.45921 0.74864 0.5817 0.0
C2315 C 0.46415 0.70954 0.60791 0.0
C2316 C 0.44615 0.63234 0.61984 0.0
H2317 H 0.46 0.50885 0.69345 0.0
H2318 H 0.46092 0.57125 0.6755 0.0
H2319 H 0.43692 0.59368 0.63573 0.0
H2320 H 0.44849 0.72022 0.56419 0.0
H2321 H 0.44712 0.65871 0.58271 0.0
H2322 H 0.47127 0.63599 0.62236 0.0
C2323 C 0.45603 0.5473 0.67116 0.0
C2324 C 0.44445 0.60268 0.6329 0.0
C2325 C 0.45542 0.51192 0.68152 0.0
C2326 C 0.45307 0.717 0.57611 0.0
C2327 C 0.4522 0.68222 0.58683 0.0
C2328 C 0.46373 0.62715 0.62522 0.0
C2329 C 0.45069 0.55085 0.65489 0.0
C2330 C 0.45238 0.58495 0.64227 0.0
C2331 C 0.45756 0.6787 0.60309 0.0
C2332 C 0.45581 0.6449 0.61586 0.0
H2333 H 0.43926 0.45986 0.65504 0.0
H2334 H 0.44015 0.52112 0.6373 0.0
H2335 H 0.46831 0.5838 0.64497 0.0
H2336 H 0.46964 0.76847 0.602 0.0
H2337 H 0.4683 0.70807 0.62041 0.0
C2338 C 0.31841 0.98414 0.59561 0.0
C2339 C 0.31268 0.97965 0.57994 0.0
C2340 C 0.31807 0.01969 0.6056 0.0
C2341 C 0.30058 0.09925 0.61622 0.0
H2342 H 0.32262 0.147 0.64197 0.0
C2343 C 0.29747 0.24694 0.65592 0.0
C2344 C 0.30272 0.2514 0.67214 0.0
C2345 C 0.29852 0.21235 0.64548 0.0
C2346 C 0.31638 0.1335 0.63509 0.0
H2347 H 0.30257 0.00957 0.56169 0.0
H2348 H 0.30191 0.0724 0.57929 0.0
H2349 H 0.32563 0.0936 0.61985 0.0
H2350 H 0.31298 0.22293 0.69056 0.0
H2351 H 0.31488 0.16149 0.67211 0.0
H2352 H 0.29132 0.13884 0.63149 0.0
C2353 C 0.30665 0.0481 0.58386 0.0
C2354 C 0.31811 0.10325 0.62231 0.0
C2355 C 0.3071 0.01244 0.57368 0.0
C2356 C 0.30877 0.21983 0.67819 0.0
C2357 C 0.30993 0.18507 0.66755 0.0
C2358 C 0.29885 0.12938 0.62901 0.0
C2359 C 0.31189 0.05147 0.60024 0.0
C2360 C 0.31022 0.08586 0.61271 0.0
C2361 C 0.30493 0.18141 0.65091 0.0
C2362 C 0.30673 0.14697 0.63854 0.0
H2363 H 0.32283 0.9594 0.6007 0.0
H2364 H 0.32216 0.02118 0.61816 0.0
H2365 H 0.29432 0.08574 0.60939 0.0
H2366 H 0.29277 0.27099 0.65096 0.0
H2367 H 0.29465 0.21078 0.63269 0.0
loop_
_geom_bond_atom_site_label_1
_geom_bond_atom_site_label_2
_geom_bond_distance
_geom_bond_site_symmetry_2
_ccdc_geom_bond_type
Co0 O1 2.216 . S
Co0 O2 2.091 . S
Co0 O4 2.004 . S
Co0 O10 2.021 . S
Co0 O12 2.137 . S
Co0 O13 2.244 . S
O1 Co0 2.216 . S
O1 C8 1.247 . S
O2 Co0 2.091 . S
O2 C8 1.261 . S
C3 O12 1.247 . S
C3 O13 1.272 . S
O4 Co0 2.004 . S
O4 C9 1.259 . S
Co5 O6 2.061 . S
Co5 O11 2.052 . S
Co5 O13 2.135 . S
O6 Co5 2.061 . S
O6 C9 1.235 . S
C7 O10 1.238 . S
C7 O11 1.241 . S
C8 O1 1.247 . S
C8 O2 1.261 . S
C9 O4 1.259 . S
C9 O6 1.235 . S
O10 Co0 2.021 . S
O10 C7 1.238 . S
O11 Co5 2.052 . S
O11 C7 1.241 . S
O12 Co0 2.137 . S
O12 C3 1.247 . S
O13 Co0 2.244 . S
O13 C3 1.272 . S
O13 Co5 2.135 . S
Co14 O15 2.216 . S
Co14 O16 2.091 . S
Co14 O18 2.004 . S
Co14 O24 2.021 . S
Co14 O26 2.137 . S
Co14 O27 2.244 . S
O15 Co14 2.216 . S
O15 C22 1.247 . S
O16 Co14 2.091 . S
O16 C22 1.261 . S
C17 O26 1.247 . S
C17 O27 1.272 . S
O18 Co14 2.004 . S
O18 C23 1.259 . S
Co19 O20 2.061 . S
Co19 O25 2.052 . S
Co19 O27 2.135 . S
O20 Co19 2.061 . S
O20 C23 1.235 . S
C21 O24 1.238 . S
C21 O25 1.241 . S
C22 O15 1.247 . S
C22 O16 1.261 . S
C23 O18 1.259 . S
C23 O20 1.235 . S
O24 Co14 2.021 . S
O24 C21 1.238 . S
O25 Co19 2.052 . S
O25 C21 1.241 . S
O26 Co14 2.137 . S
O26 C17 1.247 . S
O27 Co14 2.244 . S
O27 C17 1.272 . S
O27 Co19 2.135 . S
Co28 O29 2.216 . S
Co28 O30 2.091 . S
Co28 O32 2.004 . S
Co28 O38 2.021 . S
Co28 O40 2.137 . S
Co28 O41 2.244 . S
O29 Co28 2.216 . S
O29 C36 1.247 . S
O30 Co28 2.091 . S
O30 C36 1.261 . S
C31 O40 1.247 . S
C31 O41 1.272 . S
O32 Co28 2.004 . S
O32 C37 1.259 . S
Co33 O34 2.061 . S
Co33 O39 2.052 . S
Co33 O41 2.135 . S
O34 Co33 2.061 . S
O34 C37 1.235 . S
C35 O38 1.238 . S
C35 O39 1.241 . S
C36 O29 1.247 . S
C36 O30 1.261 . S
C37 O32 1.259 . S
C37 O34 1.235 . S
O38 Co28 2.021 . S
O38 C35 1.238 . S
O39 Co33 2.052 . S
O39 C35 1.241 . S
O40 Co28 2.137 . S
O40 C31 1.247 . S
O41 Co28 2.244 . S
O41 C31 1.272 . S
O41 Co33 2.135 . S
Co42 O43 2.216 . S
Co42 O44 2.091 . S
Co42 O46 2.004 . S
Co42 O52 2.021 . S
Co42 O54 2.137 . S
Co42 O55 2.244 . S
O43 Co42 2.216 . S
O43 C50 1.247 . S
O44 Co42 2.091 . S
O44 C50 1.261 . S
C45 O54 1.247 . S
C45 O55 1.272 . S
O46 Co42 2.004 . S
O46 C51 1.259 . S
Co47 O48 2.061 . S
Co47 O53 2.052 . S
Co47 O55 2.135 . S
O48 Co47 2.061 . S
O48 C51 1.235 . S
C49 O52 1.238 . S
C49 O53 1.241 . S
C50 O43 1.247 . S
C50 O44 1.261 . S
C51 O46 1.259 . S
C51 O48 1.235 . S
O52 Co42 2.021 . S
O52 C49 1.238 . S
O53 Co47 2.052 . S
O53 C49 1.241 . S
O54 Co42 2.137 . S
O54 C45 1.247 . S
O55 Co42 2.244 . S
O55 C45 1.272 . S
O55 Co47 2.135 . S
Co56 O57 2.216 . S
Co56 O58 2.091 . S
Co56 O60 2.004 . S
Co56 O66 2.021 . S
Co56 O68 2.137 . S
Co56 O69 2.244 . S
O57 Co56 2.216 . S
O57 C64 1.247 . S
O58 Co56 2.091 . S
O58 C64 1.261 . S
C59 O68 1.247 . S
C59 O69 1.272 . S
O60 Co56 2.004 . S
O60 C65 1.259 . S
Co61 O62 2.061 . S
Co61 O67 2.052 . S
Co61 O69 2.135 . S
O62 Co61 2.061 . S
O62 C65 1.235 . S
C63 O66 1.238 . S
C63 O67 1.241 . S
C64 O57 1.247 . S
C64 O58 1.261 . S
C65 O60 1.259 . S
C65 O62 1.235 . S
O66 Co56 2.021 . S
O66 C63 1.238 . S
O67 Co61 2.052 . S
O67 C63 1.241 . S
O68 Co56 2.137 . S
O68 C59 1.247 . S
O69 Co56 2.244 . S
O69 C59 1.272 . S
O69 Co61 2.135 . S
Co70 O71 2.216 . S
Co70 O72 2.091 . S
Co70 O74 2.004 . S
Co70 O80 2.021 . S
Co70 O82 2.137 . S
Co70 O83 2.244 . S
O71 Co70 2.216 . S
O71 C78 1.247 . S
O72 Co70 2.091 . S
O72 C78 1.261 . S
C73 O82 1.247 . S
C73 O83 1.272 . S
O74 Co70 2.004 . S
O74 C79 1.259 . S
Co75 O76 2.061 . S
Co75 O81 2.052 . S
Co75 O83 2.135 . S
O76 Co75 2.061 . S
O76 C79 1.235 . S
C77 O80 1.238 . S
C77 O81 1.241 . S
C78 O71 1.247 . S
C78 O72 1.261 . S
C79 O74 1.259 . S
C79 O76 1.235 . S
O80 Co70 2.021 . S
O80 C77 1.238 . S
O81 Co75 2.052 . S
O81 C77 1.241 . S
O82 Co70 2.137 . S
O82 C73 1.247 . S
O83 Co70 2.244 . S
O83 C73 1.272 . S
O83 Co75 2.135 . S
Co84 O85 2.216 . S
Co84 O86 2.091 . S
Co84 O88 2.004 . S
Co84 O94 2.021 . S
Co84 O96 2.137 . S
Co84 O97 2.244 . S
O85 Co84 2.216 . S
O85 C92 1.247 . S
O86 Co84 2.091 . S
O86 C92 1.261 . S
C87 O96 1.247 . S
C87 O97 1.272 . S
O88 Co84 2.004 . S
O88 C93 1.259 . S
Co89 O90 2.061 . S
Co89 O95 2.052 . S
Co89 O97 2.135 . S
O90 Co89 2.061 . S
O90 C93 1.235 . S
C91 O94 1.238 . S
C91 O95 1.241 . S
C92 O85 1.247 . S
C92 O86 1.261 . S
C93 O88 1.259 . S
C93 O90 1.235 . S
O94 Co84 2.021 . S
O94 C91 1.238 . S
O95 Co89 2.052 . S
O95 C91 1.241 . S
O96 Co84 2.137 . S
O96 C87 1.247 . S
O97 Co84 2.244 . S
O97 C87 1.272 . S
O97 Co89 2.135 . S
Co98 O99 2.216 . S
Co98 O100 2.091 . S
Co98 O102 2.004 . S
Co98 O108 2.021 . S
Co98 O110 2.137 . S
Co98 O111 2.244 . S
O99 Co98 2.216 . S
O99 C106 1.247 . S
O100 Co98 2.091 . S
O100 C106 1.261 . S
C101 O110 1.247 . S
C101 O111 1.272 . S
O102 Co98 2.004 . S
O102 C107 1.259 . S
Co103 O104 2.061 . S
Co103 O109 2.052 . S
Co103 O111 2.135 . S
O104 Co103 2.061 . S
O104 C107 1.235 . S
C105 O108 1.238 . S
C105 O109 1.241 . S
C106 O99 1.247 . S
C106 O100 1.261 . S
C107 O102 1.259 . S
C107 O104 1.235 . S
O108 Co98 2.021 . S
O108 C105 1.238 . S
O109 Co103 2.052 . S
O109 C105 1.241 . S
O110 Co98 2.137 . S
O110 C101 1.247 . S
O111 Co98 2.244 . S
O111 C101 1.272 . S
O111 Co103 2.135 . S
Co112 O113 2.216 . S
Co112 O114 2.091 . S
Co112 O116 2.004 . S
Co112 O122 2.021 . S
Co112 O124 2.137 . S
Co112 O125 2.244 . S
O113 Co112 2.216 . S
O113 C120 1.247 . S
O114 Co112 2.091 . S
O114 C120 1.261 . S
C115 O124 1.247 . S
C115 O125 1.272 . S
O116 Co112 2.004 . S
O116 C121 1.259 . S
Co117 O118 2.061 . S
Co117 O123 2.052 . S
Co117 O125 2.135 . S
O118 Co117 2.061 . S
O118 C121 1.235 . S
C119 O122 1.238 . S
C119 O123 1.241 . S
C120 O113 1.247 . S
C120 O114 1.261 . S
C121 O116 1.259 . S
C121 O118 1.235 . S
O122 Co112 2.021 . S
O122 C119 1.238 . S
O123 Co117 2.052 . S
O123 C119 1.241 . S
O124 Co112 2.137 . S
O124 C115 1.247 . S
O125 Co112 2.244 . S
O125 C115 1.272 . S
O125 Co117 2.135 . S
Co126 O127 2.216 . S
Co126 O128 2.091 . S
Co126 O130 2.004 . S
Co126 O136 2.021 . S
Co126 O138 2.137 . S
Co126 O139 2.244 . S
O127 Co126 2.216 . S
O127 C134 1.247 . S
O128 Co126 2.091 . S
O128 C134 1.261 . S
C129 O138 1.247 . S
C129 O139 1.272 . S
O130 Co126 2.004 . S
O130 C135 1.259 . S
Co131 O132 2.061 . S
Co131 O137 2.052 . S
Co131 O139 2.135 . S
O132 Co131 2.061 . S
O132 C135 1.235 . S
C133 O136 1.238 . S
C133 O137 1.241 . S
C134 O127 1.247 . S
C134 O128 1.261 . S
C135 O130 1.259 . S
C135 O132 1.235 . S
O136 Co126 2.021 . S
O136 C133 1.238 . S
O137 Co131 2.052 . S
O137 C133 1.241 . S
O138 Co126 2.137 . S
O138 C129 1.247 . S
O139 Co126 2.244 . S
O139 C129 1.272 . S
O139 Co131 2.135 . S
Co140 O141 2.216 . S
Co140 O142 2.091 . S
Co140 O144 2.004 . S
Co140 O150 2.021 . S
Co140 O152 2.137 . S
Co140 O153 2.244 . S
O141 Co140 2.216 . S
O141 C148 1.247 . S
O142 Co140 2.091 . S
O142 C148 1.261 . S
C143 O152 1.247 . S
C143 O153 1.272 . S
O144 Co140 2.004 . S
O144 C149 1.259 . S
Co145 O146 2.061 . S
Co145 O151 2.052 . S
Co145 O153 2.135 . S
O146 Co145 2.061 . S
O146 C149 1.235 . S
C147 O150 1.238 . S
C147 O151 1.241 . S
C148 O141 1.247 . S
C148 O142 1.261 . S
C149 O144 1.259 . S
C149 O146 1.235 . S
O150 Co140 2.021 . S
O150 C147 1.238 . S
O151 Co145 2.052 . S
O151 C147 1.241 . S
O152 Co140 2.137 . S
O152 C143 1.247 . S
O153 Co140 2.244 . S
O153 C143 1.272 . S
O153 Co145 2.135 . S
Co154 O155 2.216 . S
Co154 O156 2.091 . S
Co154 O158 2.004 . S
Co154 O164 2.021 . S
Co154 O166 2.137 . S
Co154 O167 2.244 . S
O155 Co154 2.216 . S
O155 C162 1.247 . S
O156 Co154 2.091 . S
O156 C162 1.261 . S
C157 O166 1.247 . S
C157 O167 1.272 . S
O158 Co154 2.004 . S
O158 C163 1.259 . S
Co159 O160 2.061 . S
Co159 O165 2.052 . S
Co159 O167 2.135 . S
O160 Co159 2.061 . S
O160 C163 1.235 . S
C161 O164 1.238 . S
C161 O165 1.241 . S
C162 O155 1.247 . S
C162 O156 1.261 . S
C163 O158 1.259 . S
C163 O160 1.235 . S
O164 Co154 2.021 . S
O164 C161 1.238 . S
O165 Co159 2.052 . S
O165 C161 1.241 . S
O166 Co154 2.137 . S
O166 C157 1.247 . S
O167 Co154 2.244 . S
O167 C157 1.272 . S
O167 Co159 2.135 . S
Co168 O169 2.216 . S
Co168 O170 2.091 . S
Co168 O172 2.004 . S
Co168 O178 2.021 . S
Co168 O180 2.137 . S
Co168 O181 2.244 . S
O169 Co168 2.216 . S
O169 C176 1.247 . S
O170 Co168 2.091 . S
O170 C176 1.261 . S
C171 O180 1.247 . S
C171 O181 1.272 . S
O172 Co168 2.004 . S
O172 C177 1.259 . S
Co173 O174 2.061 . S
Co173 O179 2.052 . S
Co173 O181 2.135 . S
O174 Co173 2.061 . S
O174 C177 1.235 . S
C175 O178 1.238 . S
C175 O179 1.241 . S
C176 O169 1.247 . S
C176 O170 1.261 . S
C177 O172 1.259 . S
C177 O174 1.235 . S
O178 Co168 2.021 . S
O178 C175 1.238 . S
O179 Co173 2.052 . S
O179 C175 1.241 . S
O180 Co168 2.137 . S
O180 C171 1.247 . S
O181 Co168 2.244 . S
O181 C171 1.272 . S
O181 Co173 2.135 . S
Co182 O183 2.216 . S
Co182 O184 2.091 . S
Co182 O186 2.004 . S
Co182 O192 2.021 . S
Co182 O194 2.137 . S
Co182 O195 2.244 . S
O183 Co182 2.216 . S
O183 C190 1.247 . S
O184 Co182 2.091 . S
O184 C190 1.261 . S
C185 O194 1.247 . S
C185 O195 1.272 . S
O186 Co182 2.004 . S
O186 C191 1.259 . S
Co187 O188 2.061 . S
Co187 O193 2.052 . S
Co187 O195 2.135 . S
O188 Co187 2.061 . S
O188 C191 1.235 . S
C189 O192 1.238 . S
C189 O193 1.241 . S
C190 O183 1.247 . S
C190 O184 1.261 . S
C191 O186 1.259 . S
C191 O188 1.235 . S
O192 Co182 2.021 . S
O192 C189 1.238 . S
O193 Co187 2.052 . S
O193 C189 1.241 . S
O194 Co182 2.137 . S
O194 C185 1.247 . S
O195 Co182 2.244 . S
O195 C185 1.272 . S
O195 Co187 2.135 . S
Co196 O197 2.216 . S
Co196 O198 2.091 . S
Co196 O200 2.004 . S
Co196 O206 2.021 . S
Co196 O208 2.137 . S
Co196 O209 2.244 . S
O197 Co196 2.216 . S
O197 C204 1.247 . S
O198 Co196 2.091 . S
O198 C204 1.261 . S
C199 O208 1.247 . S
C199 O209 1.272 . S
O200 Co196 2.004 . S
O200 C205 1.259 . S
Co201 O202 2.061 . S
Co201 O207 2.052 . S
Co201 O209 2.135 . S
O202 Co201 2.061 . S
O202 C205 1.235 . S
C203 O206 1.238 . S
C203 O207 1.241 . S
C204 O197 1.247 . S
C204 O198 1.261 . S
C205 O200 1.259 . S
C205 O202 1.235 . S
O206 Co196 2.021 . S
O206 C203 1.238 . S
O207 Co201 2.052 . S
O207 C203 1.241 . S
O208 Co196 2.137 . S
O208 C199 1.247 . S
O209 Co196 2.244 . S
O209 C199 1.272 . S
O209 Co201 2.135 . S
Co210 O211 2.216 . S
Co210 O212 2.091 . S
Co210 O214 2.004 . S
Co210 O220 2.021 . S
Co210 O222 2.137 . S
Co210 O223 2.244 . S
O211 Co210 2.216 . S
O211 C218 1.247 . S
O212 Co210 2.091 . S
O212 C218 1.261 . S
C213 O222 1.247 . S
C213 O223 1.272 . S
O214 Co210 2.004 . S
O214 C219 1.259 . S
Co215 O216 2.061 . S
Co215 O221 2.052 . S
Co215 O223 2.135 . S
O216 Co215 2.061 . S
O216 C219 1.235 . S
C217 O220 1.238 . S
C217 O221 1.241 . S
C218 O211 1.247 . S
C218 O212 1.261 . S
C219 O214 1.259 . S
C219 O216 1.235 . S
O220 Co210 2.021 . S
O220 C217 1.238 . S
O221 Co215 2.052 . S
O221 C217 1.241 . S
O222 Co210 2.137 . S
O222 C213 1.247 . S
O223 Co210 2.244 . S
O223 C213 1.272 . S
O223 Co215 2.135 . S
Co224 O225 2.216 . S
Co224 O226 2.091 . S
Co224 O228 2.004 . S
Co224 O234 2.021 . S
Co224 O236 2.137 . S
Co224 O237 2.244 . S
O225 Co224 2.216 . S
O225 C232 1.247 . S
O226 Co224 2.091 . S
O226 C232 1.261 . S
C227 O236 1.247 . S
C227 O237 1.272 . S
O228 Co224 2.004 . S
O228 C233 1.259 . S
Co229 O230 2.061 . S
Co229 O235 2.052 . S
Co229 O237 2.135 . S
O230 Co229 2.061 . S
O230 C233 1.235 . S
C231 O234 1.238 . S
C231 O235 1.241 . S
C232 O225 1.247 . S
C232 O226 1.261 . S
C233 O228 1.259 . S
C233 O230 1.235 . S
O234 Co224 2.021 . S
O234 C231 1.238 . S
O235 Co229 2.052 . S
O235 C231 1.241 . S
O236 Co224 2.137 . S
O236 C227 1.247 . S
O237 Co224 2.244 . S
O237 C227 1.272 . S
O237 Co229 2.135 . S
Co238 O239 2.216 . S
Co238 O240 2.091 . S
Co238 O242 2.004 . S
Co238 O248 2.021 . S
Co238 O250 2.137 . S
Co238 O251 2.244 . S
O239 Co238 2.216 . S
O239 C246 1.247 . S
O240 Co238 2.091 . S
O240 C246 1.261 . S
C241 O250 1.247 . S
C241 O251 1.272 . S
O242 Co238 2.004 . S
O242 C247 1.259 . S
Co243 O244 2.061 . S
Co243 O249 2.052 . S
Co243 O251 2.135 . S
O244 Co243 2.061 . S
O244 C247 1.235 . S
C245 O248 1.238 . S
C245 O249 1.241 . S
C246 O239 1.247 . S
C246 O240 1.261 . S
C247 O242 1.259 . S
C247 O244 1.235 . S
O248 Co238 2.021 . S
O248 C245 1.238 . S
O249 Co243 2.052 . S
O249 C245 1.241 . S
O250 Co238 2.137 . S
O250 C241 1.247 . S
O251 Co238 2.244 . S
O251 C241 1.272 . S
O251 Co243 2.135 . S
Co252 O253 2.216 . S
Co252 O254 2.091 . S
Co252 O256 2.004 . S
Co252 O262 2.021 . S
Co252 O264 2.137 . S
Co252 O265 2.244 . S
O253 Co252 2.216 . S
O253 C260 1.247 . S
O254 Co252 2.091 . S
O254 C260 1.261 . S
C255 O264 1.247 . S
C255 O265 1.272 . S
O256 Co252 2.004 . S
O256 C261 1.259 . S
Co257 O258 2.061 . S
Co257 O263 2.052 . S
Co257 O265 2.135 . S
O258 Co257 2.061 . S
O258 C261 1.235 . S
C259 O262 1.238 . S
C259 O263 1.241 . S
C260 O253 1.247 . S
C260 O254 1.261 . S
C261 O256 1.259 . S
C261 O258 1.235 . S
O262 Co252 2.021 . S
O262 C259 1.238 . S
O263 Co257 2.052 . S
O263 C259 1.241 . S
O264 Co252 2.137 . S
O264 C255 1.247 . S
O265 Co252 2.244 . S
O265 C255 1.272 . S
O265 Co257 2.135 . S
Co266 O267 2.216 . S
Co266 O268 2.091 . S
Co266 O270 2.004 . S
Co266 O276 2.021 . S
Co266 O278 2.137 . S
Co266 O279 2.244 . S
O267 Co266 2.216 . S
O267 C274 1.247 . S
O268 Co266 2.091 . S
O268 C274 1.261 . S
C269 O278 1.247 . S
C269 O279 1.272 . S
O270 Co266 2.004 . S
O270 C275 1.259 . S
Co271 O272 2.061 . S
Co271 O277 2.052 . S
Co271 O279 2.135 . S
O272 Co271 2.061 . S
O272 C275 1.235 . S
C273 O276 1.238 . S
C273 O277 1.241 . S
C274 O267 1.247 . S
C274 O268 1.261 . S
C275 O270 1.259 . S
C275 O272 1.235 . S
O276 Co266 2.021 . S
O276 C273 1.238 . S
O277 Co271 2.052 . S
O277 C273 1.241 . S
O278 Co266 2.137 . S
O278 C269 1.247 . S
O279 Co266 2.244 . S
O279 C269 1.272 . S
O279 Co271 2.135 . S
Co280 O281 2.216 . S
Co280 O282 2.091 . S
Co280 O284 2.004 . S
Co280 O290 2.021 . S
Co280 O292 2.137 . S
Co280 O293 2.244 . S
O281 Co280 2.216 . S
O281 C288 1.247 . S
O282 Co280 2.091 . S
O282 C288 1.261 . S
C283 O292 1.247 . S
C283 O293 1.272 . S
O284 Co280 2.004 . S
O284 C289 1.259 . S
Co285 O286 2.061 . S
Co285 O291 2.052 . S
Co285 O293 2.135 . S
O286 Co285 2.061 . S
O286 C289 1.235 . S
C287 O290 1.238 . S
C287 O291 1.241 . S
C288 O281 1.247 . S
C288 O282 1.261 . S
C289 O284 1.259 . S
C289 O286 1.235 . S
O290 Co280 2.021 . S
O290 C287 1.238 . S
O291 Co285 2.052 . S
O291 C287 1.241 . S
O292 Co280 2.137 . S
O292 C283 1.247 . S
O293 Co280 2.244 . S
O293 C283 1.272 . S
O293 Co285 2.135 . S
Co294 O295 2.216 . S
Co294 O296 2.091 . S
Co294 O298 2.004 . S
Co294 O304 2.021 . S
Co294 O306 2.137 . S
Co294 O307 2.244 . S
O295 Co294 2.216 . S
O295 C302 1.247 . S
O296 Co294 2.091 . S
O296 C302 1.261 . S
C297 O306 1.247 . S
C297 O307 1.272 . S
O298 Co294 2.004 . S
O298 C303 1.259 . S
Co299 O300 2.061 . S
Co299 O305 2.052 . S
Co299 O307 2.135 . S
O300 Co299 2.061 . S
O300 C303 1.235 . S
C301 O304 1.238 . S
C301 O305 1.241 . S
C302 O295 1.247 . S
C302 O296 1.261 . S
C303 O298 1.259 . S
C303 O300 1.235 . S
O304 Co294 2.021 . S
O304 C301 1.238 . S
O305 Co299 2.052 . S
O305 C301 1.241 . S
O306 Co294 2.137 . S
O306 C297 1.247 . S
O307 Co294 2.244 . S
O307 C297 1.272 . S
O307 Co299 2.135 . S
Co308 O309 2.216 . S
Co308 O310 2.091 . S
Co308 O312 2.004 . S
Co308 O318 2.021 . S
Co308 O320 2.137 . S
Co308 O321 2.244 . S
O309 Co308 2.216 . S
O309 C316 1.247 . S
O310 Co308 2.091 . S
O310 C316 1.261 . S
C311 O320 1.247 . S
C311 O321 1.272 . S
O312 Co308 2.004 . S
O312 C317 1.259 . S
Co313 O314 2.061 . S
Co313 O319 2.052 . S
Co313 O321 2.135 . S
O314 Co313 2.061 . S
O314 C317 1.235 . S
C315 O318 1.238 . S
C315 O319 1.241 . S
C316 O309 1.247 . S
C316 O310 1.261 . S
C317 O312 1.259 . S
C317 O314 1.235 . S
O318 Co308 2.021 . S
O318 C315 1.238 . S
O319 Co313 2.052 . S
O319 C315 1.241 . S
O320 Co308 2.137 . S
O320 C311 1.247 . S
O321 Co308 2.244 . S
O321 C311 1.272 . S
O321 Co313 2.135 . S
Co322 O323 2.216 . S
Co322 O324 2.091 . S
Co322 O326 2.004 . S
Co322 O332 2.021 . S
Co322 O334 2.137 . S
Co322 O335 2.244 . S
O323 Co322 2.216 . S
O323 C330 1.247 . S
O324 Co322 2.091 . S
O324 C330 1.261 . S
C325 O334 1.247 . S
C325 O335 1.272 . S
O326 Co322 2.004 . S
O326 C331 1.259 . S
Co327 O328 2.061 . S
Co327 O333 2.052 . S
Co327 O335 2.135 . S
O328 Co327 2.061 . S
O328 C331 1.235 . S
C329 O332 1.238 . S
C329 O333 1.241 . S
C330 O323 1.247 . S
C330 O324 1.261 . S
C331 O326 1.259 . S
C331 O328 1.235 . S
O332 Co322 2.021 . S
O332 C329 1.238 . S
O333 Co327 2.052 . S
O333 C329 1.241 . S
O334 Co322 2.137 . S
O334 C325 1.247 . S
O335 Co322 2.244 . S
O335 C325 1.272 . S
O335 Co327 2.135 . S
Co336 O337 2.216 . S
Co336 O338 2.091 . S
Co336 O340 2.004 . S
Co336 O346 2.021 . S
Co336 O348 2.137 . S
Co336 O349 2.244 . S
O337 Co336 2.216 . S
O337 C344 1.247 . S
O338 Co336 2.091 . S
O338 C344 1.261 . S
C339 O348 1.247 . S
C339 O349 1.272 . S
O340 Co336 2.004 . S
O340 C345 1.259 . S
Co341 O342 2.061 . S
Co341 O347 2.052 . S
Co341 O349 2.135 . S
O342 Co341 2.061 . S
O342 C345 1.235 . S
C343 O346 1.238 . S
C343 O347 1.241 . S
C344 O337 1.247 . S
C344 O338 1.261 . S
C345 O340 1.259 . S
C345 O342 1.235 . S
O346 Co336 2.021 . S
O346 C343 1.238 . S
O347 Co341 2.052 . S
O347 C343 1.241 . S
O348 Co336 2.137 . S
O348 C339 1.247 . S
O349 Co336 2.244 . S
O349 C339 1.272 . S
O349 Co341 2.135 . S
Co350 O351 2.216 . S
Co350 O352 2.091 . S
Co350 O354 2.004 . S
Co350 O360 2.021 . S
Co350 O362 2.137 . S
Co350 O363 2.244 . S
O351 Co350 2.216 . S
O351 C358 1.247 . S
O352 Co350 2.091 . S
O352 C358 1.261 . S
C353 O362 1.247 . S
C353 O363 1.272 . S
O354 Co350 2.004 . S
O354 C359 1.259 . S
Co355 O356 2.061 . S
Co355 O361 2.052 . S
Co355 O363 2.135 . S
O356 Co355 2.061 . S
O356 C359 1.235 . S
C357 O360 1.238 . S
C357 O361 1.241 . S
C358 O351 1.247 . S
C358 O352 1.261 . S
C359 O354 1.259 . S
C359 O356 1.235 . S
O360 Co350 2.021 . S
O360 C357 1.238 . S
O361 Co355 2.052 . S
O361 C357 1.241 . S
O362 Co350 2.137 . S
O362 C353 1.247 . S
O363 Co350 2.244 . S
O363 C353 1.272 . S
O363 Co355 2.135 . S
Co364 O365 2.216 . S
Co364 O366 2.091 . S
Co364 O368 2.004 . S
Co364 O374 2.021 . S
Co364 O376 2.137 . S
Co364 O377 2.244 . S
O365 Co364 2.216 . S
O365 C372 1.247 . S
O366 Co364 2.091 . S
O366 C372 1.261 . S
C367 O376 1.247 . S
C367 O377 1.272 . S
O368 Co364 2.004 . S
O368 C373 1.259 . S
Co369 O370 2.061 . S
Co369 O375 2.052 . S
Co369 O377 2.135 . S
O370 Co369 2.061 . S
O370 C373 1.235 . S
C371 O374 1.238 . S
C371 O375 1.241 . S
C372 O365 1.247 . S
C372 O366 1.261 . S
C373 O368 1.259 . S
C373 O370 1.235 . S
O374 Co364 2.021 . S
O374 C371 1.238 . S
O375 Co369 2.052 . S
O375 C371 1.241 . S
O376 Co364 2.137 . S
O376 C367 1.247 . S
O377 Co364 2.244 . S
O377 C367 1.272 . S
O377 Co369 2.135 . S
Co378 O379 2.216 . S
Co378 O380 2.091 . S
Co378 O382 2.004 . S
Co378 O388 2.021 . S
Co378 O390 2.137 . S
Co378 O391 2.244 . S
O379 Co378 2.216 . S
O379 C386 1.247 . S
O380 Co378 2.091 . S
O380 C386 1.261 . S
C381 O390 1.247 . S
C381 O391 1.272 . S
O382 Co378 2.004 . S
O382 C387 1.259 . S
Co383 O384 2.061 . S
Co383 O389 2.052 . S
Co383 O391 2.135 . S
O384 Co383 2.061 . S
O384 C387 1.235 . S
C385 O388 1.238 . S
C385 O389 1.241 . S
C386 O379 1.247 . S
C386 O380 1.261 . S
C387 O382 1.259 . S
C387 O384 1.235 . S
O388 Co378 2.021 . S
O388 C385 1.238 . S
O389 Co383 2.052 . S
O389 C385 1.241 . S
O390 Co378 2.137 . S
O390 C381 1.247 . S
O391 Co378 2.244 . S
O391 C381 1.272 . S
O391 Co383 2.135 . S
Co392 O393 2.216 . S
Co392 O394 2.091 . S
Co392 O396 2.004 . S
Co392 O402 2.021 . S
Co392 O404 2.137 . S
Co392 O405 2.244 . S
O393 Co392 2.216 . S
O393 C400 1.247 . S
O394 Co392 2.091 . S
O394 C400 1.261 . S
C395 O404 1.247 . S
C395 O405 1.272 . S
O396 Co392 2.004 . S
O396 C401 1.259 . S
Co397 O398 2.061 . S
Co397 O403 2.052 . S
Co397 O405 2.135 . S
O398 Co397 2.061 . S
O398 C401 1.235 . S
C399 O402 1.238 . S
C399 O403 1.241 . S
C400 O393 1.247 . S
C400 O394 1.261 . S
C401 O396 1.259 . S
C401 O398 1.235 . S
O402 Co392 2.021 . S
O402 C399 1.238 . S
O403 Co397 2.052 . S
O403 C399 1.241 . S
O404 Co392 2.137 . S
O404 C395 1.247 . S
O405 Co392 2.244 . S
O405 C395 1.272 . S
O405 Co397 2.135 . S
Co406 O407 2.216 . S
Co406 O408 2.091 . S
Co406 O410 2.004 . S
Co406 O416 2.021 . S
Co406 O418 2.137 . S
Co406 O419 2.244 . S
O407 Co406 2.216 . S
O407 C414 1.247 . S
O408 Co406 2.091 . S
O408 C414 1.261 . S
C409 O418 1.247 . S
C409 O419 1.272 . S
O410 Co406 2.004 . S
O410 C415 1.259 . S
Co411 O412 2.061 . S
Co411 O417 2.052 . S
Co411 O419 2.135 . S
O412 Co411 2.061 . S
O412 C415 1.235 . S
C413 O416 1.238 . S
C413 O417 1.241 . S
C414 O407 1.247 . S
C414 O408 1.261 . S
C415 O410 1.259 . S
C415 O412 1.235 . S
O416 Co406 2.021 . S
O416 C413 1.238 . S
O417 Co411 2.052 . S
O417 C413 1.241 . S
O418 Co406 2.137 . S
O418 C409 1.247 . S
O419 Co406 2.244 . S
O419 C409 1.272 . S
O419 Co411 2.135 . S
Co420 O421 2.216 . S
Co420 O422 2.091 . S
Co420 O424 2.004 . S
Co420 O430 2.021 . S
Co420 O432 2.137 . S
Co420 O433 2.244 . S
O421 Co420 2.216 . S
O421 C428 1.247 . S
O422 Co420 2.091 . S
O422 C428 1.261 . S
C423 O432 1.247 . S
C423 O433 1.272 . S
O424 Co420 2.004 . S
O424 C429 1.259 . S
Co425 O426 2.061 . S
Co425 O431 2.052 . S
Co425 O433 2.135 . S
O426 Co425 2.061 . S
O426 C429 1.235 . S
C427 O430 1.238 . S
C427 O431 1.241 . S
C428 O421 1.247 . S
C428 O422 1.261 . S
C429 O424 1.259 . S
C429 O426 1.235 . S
O430 Co420 2.021 . S
O430 C427 1.238 . S
O431 Co425 2.052 . S
O431 C427 1.241 . S
O432 Co420 2.137 . S
O432 C423 1.247 . S
O433 Co420 2.244 . S
O433 C423 1.272 . S
O433 Co425 2.135 . S
Co434 O435 2.216 . S
Co434 O436 2.091 . S
Co434 O438 2.004 . S
Co434 O444 2.021 . S
Co434 O446 2.137 . S
Co434 O447 2.244 . S
O435 Co434 2.216 . S
O435 C442 1.247 . S
O436 Co434 2.091 . S
O436 C442 1.261 . S
C437 O446 1.247 . S
C437 O447 1.272 . S
O438 Co434 2.004 . S
O438 C443 1.259 . S
Co439 O440 2.061 . S
Co439 O445 2.052 . S
Co439 O447 2.135 . S
O440 Co439 2.061 . S
O440 C443 1.235 . S
C441 O444 1.238 . S
C441 O445 1.241 . S
C442 O435 1.247 . S
C442 O436 1.261 . S
C443 O438 1.259 . S
C443 O440 1.235 . S
O444 Co434 2.021 . S
O444 C441 1.238 . S
O445 Co439 2.052 . S
O445 C441 1.241 . S
O446 Co434 2.137 . S
O446 C437 1.247 . S
O447 Co434 2.244 . S
O447 C437 1.272 . S
O447 Co439 2.135 . S
C448 C449 1.349 . S
C448 C450 1.327 . S
C448 H473 0.950 . S
C449 C448 1.349 . S
C449 C465 1.349 . S
C450 C448 1.327 . S
C450 C469 1.429 . S
C450 H474 0.950 . S
C451 C468 1.574 . S
C451 C470 1.368 . S
C451 H475 0.949 . S
H452 C456 0.949 . S
C453 C454 1.349 . S
C453 C455 1.327 . S
C453 H476 0.950 . S
C454 C453 1.349 . S
C454 C466 1.349 . S
C455 C453 1.327 . S
C455 C471 1.429 . S
C455 H477 0.950 . S
C456 H452 0.949 . S
C456 C464 1.574 . S
C456 C472 1.368 . S
H457 C465 0.950 . S
H458 C463 0.950 . S
H459 C464 0.949 . S
H460 C466 0.950 . S
H461 C467 0.950 . S
H462 C468 0.949 . S
C463 H458 0.950 . S
C463 C465 1.327 . S
C463 C469 1.429 . S
C464 C456 1.574 . S
C464 H459 0.949 . S
C464 C470 1.368 . S
C465 C449 1.349 . S
C465 H457 0.950 . S
C465 C463 1.327 . S
C466 C454 1.349 . S
C466 H460 0.950 . S
C466 C467 1.327 . S
C467 H461 0.950 . S
C467 C466 1.327 . S
C467 C471 1.429 . S
C468 C451 1.574 . S
C468 H462 0.949 . S
C468 C472 1.368 . S
C469 C450 1.429 . S
C469 C463 1.429 . S
C469 C470 1.523 . S
C470 C451 1.368 . S
C470 C464 1.368 . S
C470 C469 1.523 . S
C471 C455 1.429 . S
C471 C467 1.429 . S
C471 C472 1.523 . S
C472 C456 1.368 . S
C472 C468 1.368 . S
C472 C471 1.523 . S
H473 C448 0.950 . S
H474 C450 0.950 . S
H475 C451 0.949 . S
H476 C453 0.950 . S
H477 C455 0.950 . S
C478 C479 1.349 . S
C478 C480 1.327 . S
C478 H503 0.950 . S
C479 C478 1.349 . S
C479 C495 1.349 . S
C480 C478 1.327 . S
C480 C499 1.429 . S
C480 H504 0.950 . S
C481 C498 1.574 . S
C481 C500 1.368 . S
C481 H505 0.949 . S
H482 C486 0.949 . S
C483 C484 1.349 . S
C483 C485 1.327 . S
C483 H506 0.950 . S
C484 C483 1.349 . S
C484 C496 1.349 . S
C485 C483 1.327 . S
C485 C501 1.429 . S
C485 H507 0.950 . S
C486 H482 0.949 . S
C486 C494 1.574 . S
C486 C502 1.368 . S
H487 C495 0.950 . S
H488 C493 0.950 . S
H489 C494 0.949 . S
H490 C496 0.950 . S
H491 C497 0.950 . S
H492 C498 0.949 . S
C493 H488 0.950 . S
C493 C495 1.327 . S
C493 C499 1.429 . S
C494 C486 1.574 . S
C494 H489 0.949 . S
C494 C500 1.368 . S
C495 C479 1.349 . S
C495 H487 0.950 . S
C495 C493 1.327 . S
C496 C484 1.349 . S
C496 H490 0.950 . S
C496 C497 1.327 . S
C497 H491 0.950 . S
C497 C496 1.327 . S
C497 C501 1.429 . S
C498 C481 1.574 . S
C498 H492 0.949 . S
C498 C502 1.368 . S
C499 C480 1.429 . S
C499 C493 1.429 . S
C499 C500 1.523 . S
C500 C481 1.368 . S
C500 C494 1.368 . S
C500 C499 1.523 . S
C501 C485 1.429 . S
C501 C497 1.429 . S
C501 C502 1.523 . S
C502 C486 1.368 . S
C502 C498 1.368 . S
C502 C501 1.523 . S
H503 C478 0.950 . S
H504 C480 0.950 . S
H505 C481 0.949 . S
H506 C483 0.950 . S
H507 C485 0.950 . S
C508 C509 1.349 . S
C508 C510 1.327 . S
C508 H533 0.950 . S
C509 C508 1.349 . S
C509 C525 1.349 . S
C510 C508 1.327 . S
C510 C529 1.429 . S
C510 H534 0.950 . S
C511 C528 1.574 . S
C511 C530 1.368 . S
C511 H535 0.949 . S
H512 C516 0.949 . S
C513 C514 1.349 . S
C513 C515 1.327 . S
C513 H536 0.950 . S
C514 C513 1.349 . S
C514 C526 1.349 . S
C515 C513 1.327 . S
C515 C531 1.429 . S
C515 H537 0.950 . S
C516 H512 0.949 . S
C516 C524 1.574 . S
C516 C532 1.368 . S
H517 C525 0.950 . S
H518 C523 0.950 . S
H519 C524 0.949 . S
H520 C526 0.950 . S
H521 C527 0.950 . S
H522 C528 0.949 . S
C523 H518 0.950 . S
C523 C525 1.327 . S
C523 C529 1.429 . S
C524 C516 1.574 . S
C524 H519 0.949 . S
C524 C530 1.368 . S
C525 C509 1.349 . S
C525 H517 0.950 . S
C525 C523 1.327 . S
C526 C514 1.349 . S
C526 H520 0.950 . S
C526 C527 1.327 . S
C527 H521 0.950 . S
C527 C526 1.327 . S
C527 C531 1.429 . S
C528 C511 1.574 . S
C528 H522 0.949 . S
C528 C532 1.368 . S
C529 C510 1.429 . S
C529 C523 1.429 . S
C529 C530 1.523 . S
C530 C511 1.368 . S
C530 C524 1.368 . S
C530 C529 1.523 . S
C531 C515 1.429 . S
C531 C527 1.429 . S
C531 C532 1.523 . S
C532 C516 1.368 . S
C532 C528 1.368 . S
C532 C531 1.523 . S
H533 C508 0.950 . S
H534 C510 0.950 . S
H535 C511 0.949 . S
H536 C513 0.950 . S
H537 C515 0.950 . S
C538 C539 1.349 . S
C538 C540 1.327 . S
C538 H563 0.950 . S
C539 C538 1.349 . S
C539 C555 1.349 . S
C540 C538 1.327 . S
C540 C559 1.429 . S
C540 H564 0.950 . S
C541 C558 1.574 . S
C541 C560 1.368 . S
C541 H565 0.949 . S
H542 C546 0.949 . S
C543 C544 1.349 . S
C543 C545 1.327 . S
C543 H566 0.950 . S
C544 C543 1.349 . S
C544 C556 1.349 . S
C545 C543 1.327 . S
C545 C561 1.429 . S
C545 H567 0.950 . S
C546 H542 0.949 . S
C546 C554 1.574 . S
C546 C562 1.368 . S
H547 C555 0.950 . S
H548 C553 0.950 . S
H549 C554 0.949 . S
H550 C556 0.950 . S
H551 C557 0.950 . S
H552 C558 0.949 . S
C553 H548 0.950 . S
C553 C555 1.327 . S
C553 C559 1.429 . S
C554 C546 1.574 . S
C554 H549 0.949 . S
C554 C560 1.368 . S
C555 C539 1.349 . S
C555 H547 0.950 . S
C555 C553 1.327 . S
C556 C544 1.349 . S
C556 H550 0.950 . S
C556 C557 1.327 . S
C557 H551 0.950 . S
C557 C556 1.327 . S
C557 C561 1.429 . S
C558 C541 1.574 . S
C558 H552 0.949 . S
C558 C562 1.368 . S
C559 C540 1.429 . S
C559 C553 1.429 . S
C559 C560 1.523 . S
C560 C541 1.368 . S
C560 C554 1.368 . S
C560 C559 1.523 . S
C561 C545 1.429 . S
C561 C557 1.429 . S
C561 C562 1.523 . S
C562 C546 1.368 . S
C562 C558 1.368 . S
C562 C561 1.523 . S
H563 C538 0.950 . S
H564 C540 0.950 . S
H565 C541 0.949 . S
H566 C543 0.950 . S
H567 C545 0.950 . S
C568 C569 1.349 . S
C568 C570 1.327 . S
C568 H593 0.950 . S
C569 C568 1.349 . S
C569 C585 1.349 . S
C570 C568 1.327 . S
C570 C589 1.429 . S
C570 H594 0.950 . S
C571 C588 1.574 . S
C571 C590 1.368 . S
C571 H595 0.949 . S
H572 C576 0.949 . S
C573 C574 1.349 . S
C573 C575 1.327 . S
C573 H596 0.950 . S
C574 C573 1.349 . S
C574 C586 1.349 . S
C575 C573 1.327 . S
C575 C591 1.429 . S
C575 H597 0.950 . S
C576 H572 0.949 . S
C576 C584 1.574 . S
C576 C592 1.368 . S
H577 C585 0.950 . S
H578 C583 0.950 . S
H579 C584 0.949 . S
H580 C586 0.950 . S
H581 C587 0.950 . S
H582 C588 0.949 . S
C583 H578 0.950 . S
C583 C585 1.327 . S
C583 C589 1.429 . S
C584 C576 1.574 . S
C584 H579 0.949 . S
C584 C590 1.368 . S
C585 C569 1.349 . S
C585 H577 0.950 . S
C585 C583 1.327 . S
C586 C574 1.349 . S
C586 H580 0.950 . S
C586 C587 1.327 . S
C587 H581 0.950 . S
C587 C586 1.327 . S
C587 C591 1.429 . S
C588 C571 1.574 . S
C588 H582 0.949 . S
C588 C592 1.368 . S
C589 C570 1.429 . S
C589 C583 1.429 . S
C589 C590 1.523 . S
C590 C571 1.368 . S
C590 C584 1.368 . S
C590 C589 1.523 . S
C591 C575 1.429 . S
C591 C587 1.429 . S
C591 C592 1.523 . S
C592 C576 1.368 . S
C592 C588 1.368 . S
C592 C591 1.523 . S
H593 C568 0.950 . S
H594 C570 0.950 . S
H595 C571 0.949 . S
H596 C573 0.950 . S
H597 C575 0.950 . S
C598 C599 1.349 . S
C598 C600 1.327 . S
C598 H623 0.950 . S
C599 C598 1.349 . S
C599 C615 1.349 . S
C600 C598 1.327 . S
C600 C619 1.429 . S
C600 H624 0.950 . S
C601 C618 1.574 . S
C601 C620 1.368 . S
C601 H625 0.949 . S
H602 C606 0.949 . S
C603 C604 1.349 . S
C603 C605 1.327 . S
C603 H626 0.950 . S
C604 C603 1.349 . S
C604 C616 1.349 . S
C605 C603 1.327 . S
C605 C621 1.429 . S
C605 H627 0.950 . S
C606 H602 0.949 . S
C606 C614 1.574 . S
C606 C622 1.368 . S
H607 C615 0.950 . S
H608 C613 0.950 . S
H609 C614 0.949 . S
H610 C616 0.950 . S
H611 C617 0.950 . S
H612 C618 0.949 . S
C613 H608 0.950 . S
C613 C615 1.327 . S
C613 C619 1.429 . S
C614 C606 1.574 . S
C614 H609 0.949 . S
C614 C620 1.368 . S
C615 C599 1.349 . S
C615 H607 0.950 . S
C615 C613 1.327 . S
C616 C604 1.349 . S
C616 H610 0.950 . S
C616 C617 1.327 . S
C617 H611 0.950 . S
C617 C616 1.327 . S
C617 C621 1.429 . S
C618 C601 1.574 . S
C618 H612 0.949 . S
C618 C622 1.368 . S
C619 C600 1.429 . S
C619 C613 1.429 . S
C619 C620 1.523 . S
C620 C601 1.368 . S
C620 C614 1.368 . S
C620 C619 1.523 . S
C621 C605 1.429 . S
C621 C617 1.429 . S
C621 C622 1.523 . S
C622 C606 1.368 . S
C622 C618 1.368 . S
C622 C621 1.523 . S
H623 C598 0.950 . S
H624 C600 0.950 . S
H625 C601 0.949 . S
H626 C603 0.950 . S
H627 C605 0.950 . S
C628 C629 1.349 . S
C628 C630 1.327 . S
C628 H653 0.950 . S
C629 C628 1.349 . S
C629 C645 1.349 . S
C630 C628 1.327 . S
C630 C649 1.429 . S
C630 H654 0.950 . S
C631 C648 1.574 . S
C631 C650 1.368 . S
C631 H655 0.949 . S
H632 C636 0.949 . S
C633 C634 1.349 . S
C633 C635 1.327 . S
C633 H656 0.950 . S
C634 C633 1.349 . S
C634 C646 1.349 . S
C635 C633 1.327 . S
C635 C651 1.429 . S
C635 H657 0.950 . S
C636 H632 0.949 . S
C636 C644 1.574 . S
C636 C652 1.368 . S
H637 C645 0.950 . S
H638 C643 0.950 . S
H639 C644 0.949 . S
H640 C646 0.950 . S
H641 C647 0.950 . S
H642 C648 0.949 . S
C643 H638 0.950 . S
C643 C645 1.327 . S
C643 C649 1.429 . S
C644 C636 1.574 . S
C644 H639 0.949 . S
C644 C650 1.368 . S
C645 C629 1.349 . S
C645 H637 0.950 . S
C645 C643 1.327 . S
C646 C634 1.349 . S
C646 H640 0.950 . S
C646 C647 1.327 . S
C647 H641 0.950 . S
C647 C646 1.327 . S
C647 C651 1.429 . S
C648 C631 1.574 . S
C648 H642 0.949 . S
C648 C652 1.368 . S
C649 C630 1.429 . S
C649 C643 1.429 . S
C649 C650 1.523 . S
C650 C631 1.368 . S
C650 C644 1.368 . S
C650 C649 1.523 . S
C651 C635 1.429 . S
C651 C647 1.429 . S
C651 C652 1.523 . S
C652 C636 1.368 . S
C652 C648 1.368 . S
C652 C651 1.523 . S
H653 C628 0.950 . S
H654 C630 0.950 . S
H655 C631 0.949 . S
H656 C633 0.950 . S
H657 C635 0.950 . S
C658 C659 1.349 . S
C658 C660 1.327 . S
C658 H683 0.950 . S
C659 C658 1.349 . S
C659 C675 1.349 . S
C660 C658 1.327 . S
C660 C679 1.429 . S
C660 H684 0.950 . S
C661 C678 1.574 . S
C661 C680 1.368 . S
C661 H685 0.949 . S
H662 C666 0.949 . S
C663 C664 1.349 . S
C663 C665 1.327 . S
C663 H686 0.950 . S
C664 C663 1.349 . S
C664 C676 1.349 . S
C665 C663 1.327 . S
C665 C681 1.429 . S
C665 H687 0.950 . S
C666 H662 0.949 . S
C666 C674 1.574 . S
C666 C682 1.368 . S
H667 C675 0.950 . S
H668 C673 0.950 . S
H669 C674 0.949 . S
H670 C676 0.950 . S
H671 C677 0.950 . S
H672 C678 0.949 . S
C673 H668 0.950 . S
C673 C675 1.327 . S
C673 C679 1.429 . S
C674 C666 1.574 . S
C674 H669 0.949 . S
C674 C680 1.368 . S
C675 C659 1.349 . S
C675 H667 0.950 . S
C675 C673 1.327 . S
C676 C664 1.349 . S
C676 H670 0.950 . S
C676 C677 1.327 . S
C677 H671 0.950 . S
C677 C676 1.327 . S
C677 C681 1.429 . S
C678 C661 1.574 . S
C678 H672 0.949 . S
C678 C682 1.368 . S
C679 C660 1.429 . S
C679 C673 1.429 . S
C679 C680 1.523 . S
C680 C661 1.368 . S
C680 C674 1.368 . S
C680 C679 1.523 . S
C681 C665 1.429 . S
C681 C677 1.429 . S
C681 C682 1.523 . S
C682 C666 1.368 . S
C682 C678 1.368 . S
C682 C681 1.523 . S
H683 C658 0.950 . S
H684 C660 0.950 . S
H685 C661 0.949 . S
H686 C663 0.950 . S
H687 C665 0.950 . S
C688 C689 1.349 . S
C688 C690 1.327 . S
C688 H713 0.950 . S
C689 C688 1.349 . S
C689 C705 1.349 . S
C690 C688 1.327 . S
C690 C709 1.429 . S
C690 H714 0.950 . S
C691 C708 1.574 . S
C691 C710 1.368 . S
C691 H715 0.949 . S
H692 C696 0.949 . S
C693 C694 1.349 . S
C693 C695 1.327 . S
C693 H716 0.950 . S
C694 C693 1.349 . S
C694 C706 1.349 . S
C695 C693 1.327 . S
C695 C711 1.429 . S
C695 H717 0.950 . S
C696 H692 0.949 . S
C696 C704 1.574 . S
C696 C712 1.368 . S
H697 C705 0.950 . S
H698 C703 0.950 . S
H699 C704 0.949 . S
H700 C706 0.950 . S
H701 C707 0.950 . S
H702 C708 0.949 . S
C703 H698 0.950 . S
C703 C705 1.327 . S
C703 C709 1.429 . S
C704 C696 1.574 . S
C704 H699 0.949 . S
C704 C710 1.368 . S
C705 C689 1.349 . S
C705 H697 0.950 . S
C705 C703 1.327 . S
C706 C694 1.349 . S
C706 H700 0.950 . S
C706 C707 1.327 . S
C707 H701 0.950 . S
C707 C706 1.327 . S
C707 C711 1.429 . S
C708 C691 1.574 . S
C708 H702 0.949 . S
C708 C712 1.368 . S
C709 C690 1.429 . S
C709 C703 1.429 . S
C709 C710 1.523 . S
C710 C691 1.368 . S
C710 C704 1.368 . S
C710 C709 1.523 . S
C711 C695 1.429 . S
C711 C707 1.429 . S
C711 C712 1.523 . S
C712 C696 1.368 . S
C712 C708 1.368 . S
C712 C711 1.523 . S
H713 C688 0.950 . S
H714 C690 0.950 . S
H715 C691 0.949 . S
H716 C693 0.950 . S
H717 C695 0.950 . S
C718 C719 1.349 . S
C718 C720 1.327 . S
C718 H743 0.950 . S
C719 C718 1.349 . S
C719 C735 1.349 . S
C720 C718 1.327 . S
C720 C739 1.429 . S
C720 H744 0.950 . S
C721 C738 1.574 . S
C721 C740 1.368 . S
C721 H745 0.949 . S
H722 C726 0.949 . S
C723 C724 1.349 . S
C723 C725 1.327 . S
C723 H746 0.950 . S
C724 C723 1.349 . S
C724 C736 1.349 . S
C725 C723 1.327 . S
C725 C741 1.429 . S
C725 H747 0.950 . S
C726 H722 0.949 . S
C726 C734 1.574 . S
C726 C742 1.368 . S
H727 C735 0.950 . S
H728 C733 0.950 . S
H729 C734 0.949 . S
H730 C736 0.950 . S
H731 C737 0.950 . S
H732 C738 0.949 . S
C733 H728 0.950 . S
C733 C735 1.327 . S
C733 C739 1.429 . S
C734 C726 1.574 . S
C734 H729 0.949 . S
C734 C740 1.368 . S
C735 C719 1.349 . S
C735 H727 0.950 . S
C735 C733 1.327 . S
C736 C724 1.349 . S
C736 H730 0.950 . S
C736 C737 1.327 . S
C737 H731 0.950 . S
C737 C736 1.327 . S
C737 C741 1.429 . S
C738 C721 1.574 . S
C738 H732 0.949 . S
C738 C742 1.368 . S
C739 C720 1.429 . S
C739 C733 1.429 . S
C739 C740 1.523 . S
C740 C721 1.368 . S
C740 C734 1.368 . S
C740 C739 1.523 . S
C741 C725 1.429 . S
C741 C737 1.429 . S
C741 C742 1.523 . S
C742 C726 1.368 . S
C742 C738 1.368 . S
C742 C741 1.523 . S
H743 C718 0.950 . S
H744 C720 0.950 . S
H745 C721 0.949 . S
H746 C723 0.950 . S
H747 C725 0.950 . S
C748 C749 1.349 . S
C748 C750 1.327 . S
C748 H773 0.950 . S
C749 C748 1.349 . S
C749 C765 1.349 . S
C750 C748 1.327 . S
C750 C769 1.429 . S
C750 H774 0.950 . S
C751 C768 1.574 . S
C751 C770 1.368 . S
C751 H775 0.949 . S
H752 C756 0.949 . S
C753 C754 1.349 . S
C753 C755 1.327 . S
C753 H776 0.950 . S
C754 C753 1.349 . S
C754 C766 1.349 . S
C755 C753 1.327 . S
C755 C771 1.429 . S
C755 H777 0.950 . S
C756 H752 0.949 . S
C756 C764 1.574 . S
C756 C772 1.368 . S
H757 C765 0.950 . S
H758 C763 0.950 . S
H759 C764 0.949 . S
H760 C766 0.950 . S
H761 C767 0.950 . S
H762 C768 0.949 . S
C763 H758 0.950 . S
C763 C765 1.327 . S
C763 C769 1.429 . S
C764 C756 1.574 . S
C764 H759 0.949 . S
C764 C770 1.368 . S
C765 C749 1.349 . S
C765 H757 0.950 . S
C765 C763 1.327 . S
C766 C754 1.349 . S
C766 H760 0.950 . S
C766 C767 1.327 . S
C767 H761 0.950 . S
C767 C766 1.327 . S
C767 C771 1.429 . S
C768 C751 1.574 . S
C768 H762 0.949 . S
C768 C772 1.368 . S
C769 C750 1.429 . S
C769 C763 1.429 . S
C769 C770 1.523 . S
C770 C751 1.368 . S
C770 C764 1.368 . S
C770 C769 1.523 . S
C771 C755 1.429 . S
C771 C767 1.429 . S
C771 C772 1.523 . S
C772 C756 1.368 . S
C772 C768 1.368 . S
C772 C771 1.523 . S
H773 C748 0.950 . S
H774 C750 0.950 . S
H775 C751 0.949 . S
H776 C753 0.950 . S
H777 C755 0.950 . S
C778 C779 1.349 . S
C778 C780 1.327 . S
C778 H803 0.950 . S
C779 C778 1.349 . S
C779 C795 1.349 . S
C780 C778 1.327 . S
C780 C799 1.429 . S
C780 H804 0.950 . S
C781 C798 1.574 . S
C781 C800 1.368 . S
C781 H805 0.949 . S
H782 C786 0.949 . S
C783 C784 1.349 . S
C783 C785 1.327 . S
C783 H806 0.950 . S
C784 C783 1.349 . S
C784 C796 1.349 . S
C785 C783 1.327 . S
C785 C801 1.429 . S
C785 H807 0.950 . S
C786 H782 0.949 . S
C786 C794 1.574 . S
C786 C802 1.368 . S
H787 C795 0.950 . S
H788 C793 0.950 . S
H789 C794 0.949 . S
H790 C796 0.950 . S
H791 C797 0.950 . S
H792 C798 0.949 . S
C793 H788 0.950 . S
C793 C795 1.327 . S
C793 C799 1.429 . S
C794 C786 1.574 . S
C794 H789 0.949 . S
C794 C800 1.368 . S
C795 C779 1.349 . S
C795 H787 0.950 . S
C795 C793 1.327 . S
C796 C784 1.349 . S
C796 H790 0.950 . S
C796 C797 1.327 . S
C797 H791 0.950 . S
C797 C796 1.327 . S
C797 C801 1.429 . S
C798 C781 1.574 . S
C798 H792 0.949 . S
C798 C802 1.368 . S
C799 C780 1.429 . S
C799 C793 1.429 . S
C799 C800 1.523 . S
C800 C781 1.368 . S
C800 C794 1.368 . S
C800 C799 1.523 . S
C801 C785 1.429 . S
C801 C797 1.429 . S
C801 C802 1.523 . S
C802 C786 1.368 . S
C802 C798 1.368 . S
C802 C801 1.523 . S
H803 C778 0.950 . S
H804 C780 0.950 . S
H805 C781 0.949 . S
H806 C783 0.950 . S
H807 C785 0.950 . S
C808 C809 1.349 . S
C808 C810 1.327 . S
C808 H833 0.950 . S
C809 C808 1.349 . S
C809 C825 1.349 . S
C810 C808 1.327 . S
C810 C829 1.429 . S
C810 H834 0.950 . S
C811 C828 1.574 . S
C811 C830 1.368 . S
C811 H835 0.949 . S
H812 C816 0.949 . S
C813 C814 1.349 . S
C813 C815 1.327 . S
C813 H836 0.950 . S
C814 C813 1.349 . S
C814 C826 1.349 . S
C815 C813 1.327 . S
C815 C831 1.429 . S
C815 H837 0.950 . S
C816 H812 0.949 . S
C816 C824 1.574 . S
C816 C832 1.368 . S
H817 C825 0.950 . S
H818 C823 0.950 . S
H819 C824 0.949 . S
H820 C826 0.950 . S
H821 C827 0.950 . S
H822 C828 0.949 . S
C823 H818 0.950 . S
C823 C825 1.327 . S
C823 C829 1.429 . S
C824 C816 1.574 . S
C824 H819 0.949 . S
C824 C830 1.368 . S
C825 C809 1.349 . S
C825 H817 0.950 . S
C825 C823 1.327 . S
C826 C814 1.349 . S
C826 H820 0.950 . S
C826 C827 1.327 . S
C827 H821 0.950 . S
C827 C826 1.327 . S
C827 C831 1.429 . S
C828 C811 1.574 . S
C828 H822 0.949 . S
C828 C832 1.368 . S
C829 C810 1.429 . S
C829 C823 1.429 . S
C829 C830 1.523 . S
C830 C811 1.368 . S
C830 C824 1.368 . S
C830 C829 1.523 . S
C831 C815 1.429 . S
C831 C827 1.429 . S
C831 C832 1.523 . S
C832 C816 1.368 . S
C832 C828 1.368 . S
C832 C831 1.523 . S
H833 C808 0.950 . S
H834 C810 0.950 . S
H835 C811 0.949 . S
H836 C813 0.950 . S
H837 C815 0.950 . S
C838 C839 1.349 . S
C838 C840 1.327 . S
C838 H863 0.950 . S
C839 C838 1.349 . S
C839 C855 1.349 . S
C840 C838 1.327 . S
C840 C859 1.429 . S
C840 H864 0.950 . S
C841 C858 1.574 . S
C841 C860 1.368 . S
C841 H865 0.949 . S
H842 C846 0.949 . S
C843 C844 1.349 . S
C843 C845 1.327 . S
C843 H866 0.950 . S
C844 C843 1.349 . S
C844 C856 1.349 . S
C845 C843 1.327 . S
C845 C861 1.429 . S
C845 H867 0.950 . S
C846 H842 0.949 . S
C846 C854 1.574 . S
C846 C862 1.368 . S
H847 C855 0.950 . S
H848 C853 0.950 . S
H849 C854 0.949 . S
H850 C856 0.950 . S
H851 C857 0.950 . S
H852 C858 0.949 . S
C853 H848 0.950 . S
C853 C855 1.327 . S
C853 C859 1.429 . S
C854 C846 1.574 . S
C854 H849 0.949 . S
C854 C860 1.368 . S
C855 C839 1.349 . S
C855 H847 0.950 . S
C855 C853 1.327 . S
C856 C844 1.349 . S
C856 H850 0.950 . S
C856 C857 1.327 . S
C857 H851 0.950 . S
C857 C856 1.327 . S
C857 C861 1.429 . S
C858 C841 1.574 . S
C858 H852 0.949 . S
C858 C862 1.368 . S
C859 C840 1.429 . S
C859 C853 1.429 . S
C859 C860 1.523 . S
C860 C841 1.368 . S
C860 C854 1.368 . S
C860 C859 1.523 . S
C861 C845 1.429 . S
C861 C857 1.429 . S
C861 C862 1.523 . S
C862 C846 1.368 . S
C862 C858 1.368 . S
C862 C861 1.523 . S
H863 C838 0.950 . S
H864 C840 0.950 . S
H865 C841 0.949 . S
H866 C843 0.950 . S
H867 C845 0.950 . S
C868 C869 1.349 . S
C868 C870 1.327 . S
C868 H893 0.950 . S
C869 C868 1.349 . S
C869 C885 1.349 . S
C870 C868 1.327 . S
C870 C889 1.429 . S
C870 H894 0.950 . S
C871 C888 1.574 . S
C871 C890 1.368 . S
C871 H895 0.949 . S
H872 C876 0.949 . S
C873 C874 1.349 . S
C873 C875 1.327 . S
C873 H896 0.950 . S
C874 C873 1.349 . S
C874 C886 1.349 . S
C875 C873 1.327 . S
C875 C891 1.429 . S
C875 H897 0.950 . S
C876 H872 0.949 . S
C876 C884 1.574 . S
C876 C892 1.368 . S
H877 C885 0.950 . S
H878 C883 0.950 . S
H879 C884 0.949 . S
H880 C886 0.950 . S
H881 C887 0.950 . S
H882 C888 0.949 . S
C883 H878 0.950 . S
C883 C885 1.327 . S
C883 C889 1.429 . S
C884 C876 1.574 . S
C884 H879 0.949 . S
C884 C890 1.368 . S
C885 C869 1.349 . S
C885 H877 0.950 . S
C885 C883 1.327 . S
C886 C874 1.349 . S
C886 H880 0.950 . S
C886 C887 1.327 . S
C887 H881 0.950 . S
C887 C886 1.327 . S
C887 C891 1.429 . S
C888 C871 1.574 . S
C888 H882 0.949 . S
C888 C892 1.368 . S
C889 C870 1.429 . S
C889 C883 1.429 . S
C889 C890 1.523 . S
C890 C871 1.368 . S
C890 C884 1.368 . S
C890 C889 1.523 . S
C891 C875 1.429 . S
C891 C887 1.429 . S
C891 C892 1.523 . S
C892 C876 1.368 . S
C892 C888 1.368 . S
C892 C891 1.523 . S
H893 C868 0.950 . S
H894 C870 0.950 . S
H895 C871 0.949 . S
H896 C873 0.950 . S
H897 C875 0.950 . S
C898 C899 1.349 . S
C898 C900 1.327 . S
C898 H923 0.950 . S
C899 C898 1.349 . S
C899 C915 1.349 . S
C900 C898 1.327 . S
C900 C919 1.429 . S
C900 H924 0.950 . S
C901 C918 1.574 . S
C901 C920 1.368 . S
C901 H925 0.949 . S
H902 C906 0.949 . S
C903 C904 1.349 . S
C903 C905 1.327 . S
C903 H926 0.950 . S
C904 C903 1.349 . S
C904 C916 1.349 . S
C905 C903 1.327 . S
C905 C921 1.429 . S
C905 H927 0.950 . S
C906 H902 0.949 . S
C906 C914 1.574 . S
C906 C922 1.368 . S
H907 C915 0.950 . S
H908 C913 0.950 . S
H909 C914 0.949 . S
H910 C916 0.950 . S
H911 C917 0.950 . S
H912 C918 0.949 . S
C913 H908 0.950 . S
C913 C915 1.327 . S
C913 C919 1.429 . S
C914 C906 1.574 . S
C914 H909 0.949 . S
C914 C920 1.368 . S
C915 C899 1.349 . S
C915 H907 0.950 . S
C915 C913 1.327 . S
C916 C904 1.349 . S
C916 H910 0.950 . S
C916 C917 1.327 . S
C917 H911 0.950 . S
C917 C916 1.327 . S
C917 C921 1.429 . S
C918 C901 1.574 . S
C918 H912 0.949 . S
C918 C922 1.368 . S
C919 C900 1.429 . S
C919 C913 1.429 . S
C919 C920 1.523 . S
C920 C901 1.368 . S
C920 C914 1.368 . S
C920 C919 1.523 . S
C921 C905 1.429 . S
C921 C917 1.429 . S
C921 C922 1.523 . S
C922 C906 1.368 . S
C922 C918 1.368 . S
C922 C921 1.523 . S
H923 C898 0.950 . S
H924 C900 0.950 . S
H925 C901 0.949 . S
H926 C903 0.950 . S
H927 C905 0.950 . S
C928 C929 1.349 . S
C928 C930 1.327 . S
C928 H953 0.950 . S
C929 C928 1.349 . S
C929 C945 1.349 . S
C930 C928 1.327 . S
C930 C949 1.429 . S
C930 H954 0.950 . S
C931 C948 1.574 . S
C931 C950 1.368 1_655 S
C931 H955 0.949 . S
H932 C936 0.949 . S
C933 C934 1.349 . S
C933 C935 1.327 . S
C933 H956 0.950 . S
C934 C933 1.349 . S
C934 C946 1.349 . S
C935 C933 1.327 . S
C935 C951 1.429 . S
C935 H957 0.950 . S
C936 H932 0.949 . S
C936 C944 1.574 . S
C936 C952 1.368 1_455 S
H937 C945 0.950 . S
H938 C943 0.950 . S
H939 C944 0.949 . S
H940 C946 0.950 . S
H941 C947 0.950 . S
H942 C948 0.949 . S
C943 H938 0.950 . S
C943 C945 1.327 . S
C943 C949 1.429 . S
C944 C936 1.574 . S
C944 H939 0.949 . S
C944 C950 1.368 . S
C945 C929 1.349 . S
C945 H937 0.950 . S
C945 C943 1.327 . S
C946 C934 1.349 . S
C946 H940 0.950 . S
C946 C947 1.327 . S
C947 H941 0.950 . S
C947 C946 1.327 . S
C947 C951 1.429 . S
C948 C931 1.574 . S
C948 H942 0.949 . S
C948 C952 1.368 . S
C949 C930 1.429 . S
C949 C943 1.429 . S
C949 C950 1.523 . S
C950 C931 1.368 1_455 S
C950 C944 1.368 . S
C950 C949 1.523 . S
C951 C935 1.429 . S
C951 C947 1.429 . S
C951 C952 1.523 . S
C952 C936 1.368 1_655 S
C952 C948 1.368 . S
C952 C951 1.523 . S
H953 C928 0.950 . S
H954 C930 0.950 . S
H955 C931 0.949 . S
H956 C933 0.950 . S
H957 C935 0.950 . S
C958 C959 1.349 . S
C958 C960 1.327 . S
C958 H983 0.950 . S
C959 C958 1.349 . S
C959 C975 1.349 . S
C960 C958 1.327 . S
C960 C979 1.429 . S
C960 H984 0.950 1_545 S
C961 C978 1.574 . S
C961 C980 1.368 . S
C961 H985 0.949 . S
H962 C966 0.949 . S
C963 C964 1.349 . S
C963 C965 1.327 . S
C963 H986 0.950 . S
C964 C963 1.349 . S
C964 C976 1.349 . S
C965 C963 1.327 . S
C965 C981 1.429 . S
C965 H987 0.950 1_565 S
C966 H962 0.949 . S
C966 C974 1.574 . S
C966 C982 1.368 . S
H967 C975 0.950 . S
H968 C973 0.950 . S
H969 C974 0.949 . S
H970 C976 0.950 . S
H971 C977 0.950 . S
H972 C978 0.949 . S
C973 H968 0.950 . S
C973 C975 1.327 . S
C973 C979 1.429 . S
C974 C966 1.574 . S
C974 H969 0.949 . S
C974 C980 1.368 1_565 S
C975 C959 1.349 . S
C975 H967 0.950 . S
C975 C973 1.327 . S
C976 C964 1.349 . S
C976 H970 0.950 . S
C976 C977 1.327 . S
C977 H971 0.950 . S
C977 C976 1.327 . S
C977 C981 1.429 . S
C978 C961 1.574 . S
C978 H972 0.949 . S
C978 C982 1.368 1_545 S
C979 C960 1.429 . S
C979 C973 1.429 . S
C979 C980 1.523 . S
C980 C961 1.368 . S
C980 C974 1.368 1_545 S
C980 C979 1.523 . S
C981 C965 1.429 . S
C981 C977 1.429 . S
C981 C982 1.523 . S
C982 C966 1.368 . S
C982 C978 1.368 1_565 S
C982 C981 1.523 . S
H983 C958 0.950 . S
H984 C960 0.950 1_565 S
H985 C961 0.949 . S
H986 C963 0.950 . S
H987 C965 0.950 1_545 S
C988 C989 1.349 . S
C988 C990 1.327 . S
C988 H1013 0.950 . S
C989 C988 1.349 . S
C989 C1005 1.349 . S
C990 C988 1.327 . S
C990 C1009 1.429 . S
C990 H1014 0.950 . S
C991 C1008 1.601 1_455 S
C991 C1010 1.368 1_565 S
C991 H1015 0.949 . S
H992 C996 0.949 . S
C993 C994 1.349 . S
C993 C995 1.327 . S
C993 H1016 0.950 . S
C994 C993 1.349 . S
C994 C1006 1.349 . S
C995 C993 1.327 . S
C995 C1011 1.429 . S
C995 H1017 0.950 . S
C996 H992 0.949 . S
C996 C1004 1.601 1_655 S
C996 C1012 1.368 1_545 S
H997 C1005 0.950 . S
H998 C1003 0.950 1_565 S
H999 C1004 0.953 . S
H1000 C1006 0.950 . S
H1001 C1007 0.950 1_545 S
H1002 C1008 0.953 . S
C1003 H998 0.950 1_545 S
C1003 C1005 1.327 . S
C1003 C1009 1.429 . S
C1004 C996 1.601 1_455 S
C1004 H999 0.953 . S
C1004 C1010 1.341 1_554 S
C1005 C989 1.349 . S
C1005 H997 0.950 . S
C1005 C1003 1.327 . S
C1006 C994 1.349 . S
C1006 H1000 0.950 . S
C1006 C1007 1.327 . S
C1007 H1001 0.950 1_565 S
C1007 C1006 1.327 . S
C1007 C1011 1.429 . S
C1008 C991 1.601 1_655 S
C1008 H1002 0.953 . S
C1008 C1012 1.341 1_556 S
C1009 C990 1.429 . S
C1009 C1003 1.429 . S
C1009 C1010 1.523 . S
C1010 C991 1.368 1_545 S
C1010 C1004 1.341 1_556 S
C1010 C1009 1.523 . S
C1011 C995 1.429 . S
C1011 C1007 1.429 . S
C1011 C1012 1.523 . S
C1012 C996 1.368 1_565 S
C1012 C1008 1.341 1_554 S
C1012 C1011 1.523 . S
H1013 C988 0.950 . S
H1014 C990 0.950 . S
H1015 C991 0.949 . S
H1016 C993 0.950 . S
H1017 C995 0.950 . S
C1018 C1019 1.349 . S
C1018 C1020 1.327 . S
C1018 H1043 0.950 . S
C1019 C1018 1.349 . S
C1019 C1035 1.349 . S
C1020 C1018 1.327 . S
C1020 C1039 1.429 . S
C1020 H1044 0.950 . S
C1021 C1038 1.574 1_556 S
C1021 C1040 1.368 . S
C1021 H1045 0.949 . S
H1022 C1026 0.949 . S
C1023 C1024 1.349 . S
C1023 C1025 1.327 . S
C1023 H1046 0.950 . S
C1024 C1023 1.349 . S
C1024 C1036 1.349 . S
C1025 C1023 1.327 . S
C1025 C1041 1.429 . S
C1025 H1047 0.950 . S
C1026 H1022 0.949 . S
C1026 C1034 1.574 1_554 S
C1026 C1042 1.368 . S
H1027 C1035 0.950 . S
H1028 C1033 0.950 . S
H1029 C1034 0.949 . S
H1030 C1036 0.950 . S
H1031 C1037 0.950 . S
H1032 C1038 0.949 . S
C1033 H1028 0.950 . S
C1033 C1035 1.327 . S
C1033 C1039 1.429 . S
C1034 C1026 1.574 1_556 S
C1034 H1029 0.949 . S
C1034 C1040 1.368 . S
C1035 C1019 1.349 . S
C1035 H1027 0.950 . S
C1035 C1033 1.327 . S
C1036 C1024 1.349 . S
C1036 H1030 0.950 . S
C1036 C1037 1.327 . S
C1037 H1031 0.950 . S
C1037 C1036 1.327 . S
C1037 C1041 1.429 . S
C1038 C1021 1.574 1_554 S
C1038 H1032 0.949 . S
C1038 C1042 1.368 . S
C1039 C1020 1.429 . S
C1039 C1033 1.429 . S
C1039 C1040 1.523 . S
C1040 C1021 1.368 . S
C1040 C1034 1.368 . S
C1040 C1039 1.523 . S
C1041 C1025 1.429 . S
C1041 C1037 1.429 . S
C1041 C1042 1.523 . S
C1042 C1026 1.368 . S
C1042 C1038 1.368 . S
C1042 C1041 1.523 . S
H1043 C1018 0.950 . S
H1044 C1020 0.950 . S
H1045 C1021 0.949 . S
H1046 C1023 0.950 . S
H1047 C1025 0.950 . S
C1048 C1049 1.349 . S
C1048 C1050 1.327 . S
C1048 H1073 0.950 . S
C1049 C1048 1.349 . S
C1049 C1065 1.349 . S
C1050 C1048 1.327 . S
C1050 C1069 1.429 . S
C1050 H1074 0.950 . S
C1051 C1068 1.574 1_655 S
C1051 C1070 1.368 . S
C1051 H1075 0.949 . S
H1052 C1056 0.949 . S
C1053 C1054 1.349 . S
C1053 C1055 1.327 . S
C1053 H1076 0.950 . S
C1054 C1053 1.349 . S
C1054 C1066 1.349 . S
C1055 C1053 1.327 . S
C1055 C1071 1.429 . S
C1055 H1077 0.950 . S
C1056 H1052 0.949 . S
C1056 C1064 1.574 1_455 S
C1056 C1072 1.368 . S
H1057 C1065 0.950 . S
H1058 C1063 0.950 . S
H1059 C1064 0.949 . S
H1060 C1066 0.950 . S
H1061 C1067 0.950 . S
H1062 C1068 0.949 . S
C1063 H1058 0.950 . S
C1063 C1065 1.327 . S
C1063 C1069 1.429 . S
C1064 C1056 1.574 1_655 S
C1064 H1059 0.949 . S
C1064 C1070 1.368 . S
C1065 C1049 1.349 . S
C1065 H1057 0.950 . S
C1065 C1063 1.327 . S
C1066 C1054 1.349 . S
C1066 H1060 0.950 . S
C1066 C1067 1.327 . S
C1067 H1061 0.950 . S
C1067 C1066 1.327 . S
C1067 C1071 1.429 . S
C1068 C1051 1.574 1_455 S
C1068 H1062 0.949 . S
C1068 C1072 1.368 . S
C1069 C1050 1.429 . S
C1069 C1063 1.429 . S
C1069 C1070 1.523 . S
C1070 C1051 1.368 . S
C1070 C1064 1.368 . S
C1070 C1069 1.523 . S
C1071 C1055 1.429 . S
C1071 C1067 1.429 . S
C1071 C1072 1.523 . S
C1072 C1056 1.368 . S
C1072 C1068 1.368 . S
C1072 C1071 1.523 . S
H1073 C1048 0.950 . S
H1074 C1050 0.950 . S
H1075 C1051 0.949 . S
H1076 C1053 0.950 . S
H1077 C1055 0.950 . S
C1078 C1079 1.349 . S
C1078 C1080 1.327 . S
C1078 H1103 0.950 . S
C1079 C1078 1.349 . S
C1079 C1095 1.349 . S
C1080 C1078 1.327 . S
C1080 C1099 1.429 . S
C1080 H1104 0.950 1_545 S
C1081 C1098 1.574 . S
C1081 C1100 1.368 . S
C1081 H1105 0.949 . S
H1082 C1086 0.949 . S
C1083 C1084 1.349 . S
C1083 C1085 1.327 . S
C1083 H1106 0.950 . S
C1084 C1083 1.349 . S
C1084 C1096 1.349 . S
C1085 C1083 1.327 . S
C1085 C1101 1.429 . S
C1085 H1107 0.950 1_565 S
C1086 H1082 0.949 . S
C1086 C1094 1.574 . S
C1086 C1102 1.368 . S
H1087 C1095 0.950 . S
H1088 C1093 0.950 . S
H1089 C1094 0.949 . S
H1090 C1096 0.950 . S
H1091 C1097 0.950 . S
H1092 C1098 0.949 . S
C1093 H1088 0.950 . S
C1093 C1095 1.327 . S
C1093 C1099 1.429 . S
C1094 C1086 1.574 . S
C1094 H1089 0.949 . S
C1094 C1100 1.368 1_565 S
C1095 C1079 1.349 . S
C1095 H1087 0.950 . S
C1095 C1093 1.327 . S
C1096 C1084 1.349 . S
C1096 H1090 0.950 . S
C1096 C1097 1.327 . S
C1097 H1091 0.950 . S
C1097 C1096 1.327 . S
C1097 C1101 1.429 . S
C1098 C1081 1.574 . S
C1098 H1092 0.949 . S
C1098 C1102 1.368 1_545 S
C1099 C1080 1.429 . S
C1099 C1093 1.429 . S
C1099 C1100 1.523 . S
C1100 C1081 1.368 . S
C1100 C1094 1.368 1_545 S
C1100 C1099 1.523 . S
C1101 C1085 1.429 . S
C1101 C1097 1.429 . S
C1101 C1102 1.523 . S
C1102 C1086 1.368 . S
C1102 C1098 1.368 1_565 S
C1102 C1101 1.523 . S
H1103 C1078 0.950 . S
H1104 C1080 0.950 1_565 S
H1105 C1081 0.949 . S
H1106 C1083 0.950 . S
H1107 C1085 0.950 1_545 S
C1108 C1109 1.349 . S
C1108 C1110 1.327 . S
C1108 H1133 0.950 . S
C1109 C1108 1.349 . S
C1109 C1125 1.349 . S
C1110 C1108 1.327 . S
C1110 C1129 1.429 . S
C1110 H1134 0.950 . S
C1111 C1128 1.574 1_556 S
C1111 C1130 1.368 . S
C1111 H1135 0.949 . S
H1112 C1116 0.949 . S
C1113 C1114 1.349 . S
C1113 C1115 1.327 . S
C1113 H1136 0.950 . S
C1114 C1113 1.349 . S
C1114 C1126 1.349 . S
C1115 C1113 1.327 . S
C1115 C1131 1.429 . S
C1115 H1137 0.950 . S
C1116 H1112 0.949 . S
C1116 C1124 1.574 1_554 S
C1116 C1132 1.368 . S
H1117 C1125 0.950 . S
H1118 C1123 0.950 . S
H1119 C1124 0.949 . S
H1120 C1126 0.950 . S
H1121 C1127 0.950 . S
H1122 C1128 0.949 . S
C1123 H1118 0.950 . S
C1123 C1125 1.327 . S
C1123 C1129 1.429 . S
C1124 C1116 1.574 1_556 S
C1124 H1119 0.949 . S
C1124 C1130 1.368 . S
C1125 C1109 1.349 . S
C1125 H1117 0.950 . S
C1125 C1123 1.327 . S
C1126 C1114 1.349 . S
C1126 H1120 0.950 . S
C1126 C1127 1.327 . S
C1127 H1121 0.950 . S
C1127 C1126 1.327 . S
C1127 C1131 1.429 . S
C1128 C1111 1.574 1_554 S
C1128 H1122 0.949 . S
C1128 C1132 1.368 . S
C1129 C1110 1.429 . S
C1129 C1123 1.429 . S
C1129 C1130 1.523 . S
C1130 C1111 1.368 . S
C1130 C1124 1.368 . S
C1130 C1129 1.523 . S
C1131 C1115 1.429 . S
C1131 C1127 1.429 . S
C1131 C1132 1.523 . S
C1132 C1116 1.368 . S
C1132 C1128 1.368 . S
C1132 C1131 1.523 . S
H1133 C1108 0.950 . S
H1134 C1110 0.950 . S
H1135 C1111 0.949 . S
H1136 C1113 0.950 . S
H1137 C1115 0.950 . S
C1138 C1139 1.349 . S
C1138 C1140 1.327 . S
C1138 H1163 0.950 . S
C1139 C1138 1.349 . S
C1139 C1155 1.349 . S
C1140 C1138 1.327 . S
C1140 C1159 1.429 . S
C1140 H1164 0.950 . S
C1141 C1158 1.574 . S
C1141 C1160 1.368 . S
C1141 H1165 0.949 . S
H1142 C1146 0.949 . S
C1143 C1144 1.349 . S
C1143 C1145 1.327 . S
C1143 H1166 0.950 . S
C1144 C1143 1.349 . S
C1144 C1156 1.349 . S
C1145 C1143 1.327 . S
C1145 C1161 1.429 . S
C1145 H1167 0.950 . S
C1146 H1142 0.949 . S
C1146 C1154 1.574 . S
C1146 C1162 1.368 . S
H1147 C1155 0.950 . S
H1148 C1153 0.950 . S
H1149 C1154 0.949 . S
H1150 C1156 0.950 . S
H1151 C1157 0.950 . S
H1152 C1158 0.949 . S
C1153 H1148 0.950 . S
C1153 C1155 1.327 . S
C1153 C1159 1.429 . S
C1154 C1146 1.574 . S
C1154 H1149 0.949 . S
C1154 C1160 1.368 . S
C1155 C1139 1.349 . S
C1155 H1147 0.950 . S
C1155 C1153 1.327 . S
C1156 C1144 1.349 . S
C1156 H1150 0.950 . S
C1156 C1157 1.327 . S
C1157 H1151 0.950 . S
C1157 C1156 1.327 . S
C1157 C1161 1.429 . S
C1158 C1141 1.574 . S
C1158 H1152 0.949 . S
C1158 C1162 1.368 . S
C1159 C1140 1.429 . S
C1159 C1153 1.429 . S
C1159 C1160 1.523 . S
C1160 C1141 1.368 . S
C1160 C1154 1.368 . S
C1160 C1159 1.523 . S
C1161 C1145 1.429 . S
C1161 C1157 1.429 . S
C1161 C1162 1.523 . S
C1162 C1146 1.368 . S
C1162 C1158 1.368 . S
C1162 C1161 1.523 . S
H1163 C1138 0.950 . S
H1164 C1140 0.950 . S
H1165 C1141 0.949 . S
H1166 C1143 0.950 . S
H1167 C1145 0.950 . S
C1168 C1169 1.349 . S
C1168 C1170 1.327 . S
C1168 H1193 0.950 . S
C1169 C1168 1.349 . S
C1169 C1185 1.349 . S
C1170 C1168 1.327 . S
C1170 C1189 1.429 . S
C1170 H1194 0.950 . S
C1171 C1188 1.574 1_455 S
C1171 C1190 1.368 . S
C1171 H1195 0.949 . S
H1172 C1176 0.949 . S
C1173 C1174 1.349 . S
C1173 C1175 1.327 . S
C1173 H1196 0.950 . S
C1174 C1173 1.349 . S
C1174 C1186 1.349 . S
C1175 C1173 1.327 . S
C1175 C1191 1.429 . S
C1175 H1197 0.950 . S
C1176 H1172 0.949 . S
C1176 C1184 1.574 1_655 S
C1176 C1192 1.368 . S
H1177 C1185 0.950 . S
H1178 C1183 0.950 . S
H1179 C1184 0.949 . S
H1180 C1186 0.950 . S
H1181 C1187 0.950 . S
H1182 C1188 0.949 . S
C1183 H1178 0.950 . S
C1183 C1185 1.327 . S
C1183 C1189 1.429 . S
C1184 C1176 1.574 1_455 S
C1184 H1179 0.949 . S
C1184 C1190 1.368 . S
C1185 C1169 1.349 . S
C1185 H1177 0.950 . S
C1185 C1183 1.327 . S
C1186 C1174 1.349 . S
C1186 H1180 0.950 . S
C1186 C1187 1.327 . S
C1187 H1181 0.950 . S
C1187 C1186 1.327 . S
C1187 C1191 1.429 . S
C1188 C1171 1.574 1_655 S
C1188 H1182 0.949 . S
C1188 C1192 1.368 . S
C1189 C1170 1.429 . S
C1189 C1183 1.429 . S
C1189 C1190 1.523 . S
C1190 C1171 1.368 . S
C1190 C1184 1.368 . S
C1190 C1189 1.523 . S
C1191 C1175 1.429 . S
C1191 C1187 1.429 . S
C1191 C1192 1.523 . S
C1192 C1176 1.368 . S
C1192 C1188 1.368 . S
C1192 C1191 1.523 . S
H1193 C1168 0.950 . S
H1194 C1170 0.950 . S
H1195 C1171 0.949 . S
H1196 C1173 0.950 . S
H1197 C1175 0.950 . S
C1198 C1199 1.349 . S
C1198 C1200 1.327 . S
C1198 H1223 0.950 . S
C1199 C1198 1.349 . S
C1199 C1215 1.349 . S
C1200 C1198 1.327 . S
C1200 C1219 1.429 . S
C1200 H1224 0.950 . S
C1201 C1218 1.574 . S
C1201 C1220 1.368 . S
C1201 H1225 0.949 . S
H1202 C1206 0.949 . S
C1203 C1204 1.349 . S
C1203 C1205 1.327 . S
C1203 H1226 0.950 . S
C1204 C1203 1.349 . S
C1204 C1216 1.349 . S
C1205 C1203 1.327 . S
C1205 C1221 1.429 . S
C1205 H1227 0.950 . S
C1206 H1202 0.949 . S
C1206 C1214 1.574 . S
C1206 C1222 1.368 . S
H1207 C1215 0.950 . S
H1208 C1213 0.950 . S
H1209 C1214 0.949 . S
H1210 C1216 0.950 . S
H1211 C1217 0.950 . S
H1212 C1218 0.949 . S
C1213 H1208 0.950 . S
C1213 C1215 1.327 . S
C1213 C1219 1.429 . S
C1214 C1206 1.574 . S
C1214 H1209 0.949 . S
C1214 C1220 1.368 . S
C1215 C1199 1.349 . S
C1215 H1207 0.950 . S
C1215 C1213 1.327 . S
C1216 C1204 1.349 . S
C1216 H1210 0.950 . S
C1216 C1217 1.327 . S
C1217 H1211 0.950 . S
C1217 C1216 1.327 . S
C1217 C1221 1.429 . S
C1218 C1201 1.574 . S
C1218 H1212 0.949 . S
C1218 C1222 1.368 . S
C1219 C1200 1.429 . S
C1219 C1213 1.429 . S
C1219 C1220 1.523 . S
C1220 C1201 1.368 . S
C1220 C1214 1.368 . S
C1220 C1219 1.523 . S
C1221 C1205 1.429 . S
C1221 C1217 1.429 . S
C1221 C1222 1.523 . S
C1222 C1206 1.368 . S
C1222 C1218 1.368 . S
C1222 C1221 1.523 . S
H1223 C1198 0.950 . S
H1224 C1200 0.950 . S
H1225 C1201 0.949 . S
H1226 C1203 0.950 . S
H1227 C1205 0.950 . S
C1228 C1229 1.349 . S
C1228 C1230 1.327 . S
C1228 H1253 0.950 . S
C1229 C1228 1.349 . S
C1229 C1245 1.349 . S
C1230 C1228 1.327 . S
C1230 C1249 1.429 . S
C1230 H1254 0.950 . S
C1231 C1248 1.574 . S
C1231 C1250 1.368 . S
C1231 H1255 0.949 . S
H1232 C1236 0.949 . S
C1233 C1234 1.349 . S
C1233 C1235 1.327 . S
C1233 H1256 0.950 . S
C1234 C1233 1.349 . S
C1234 C1246 1.349 . S
C1235 C1233 1.327 . S
C1235 C1251 1.429 . S
C1235 H1257 0.950 . S
C1236 H1232 0.949 . S
C1236 C1244 1.574 . S
C1236 C1252 1.368 . S
H1237 C1245 0.950 . S
H1238 C1243 0.950 . S
H1239 C1244 0.949 . S
H1240 C1246 0.950 . S
H1241 C1247 0.950 . S
H1242 C1248 0.949 . S
C1243 H1238 0.950 . S
C1243 C1245 1.327 . S
C1243 C1249 1.429 . S
C1244 C1236 1.574 . S
C1244 H1239 0.949 . S
C1244 C1250 1.368 . S
C1245 C1229 1.349 . S
C1245 H1237 0.950 . S
C1245 C1243 1.327 . S
C1246 C1234 1.349 . S
C1246 H1240 0.950 . S
C1246 C1247 1.327 . S
C1247 H1241 0.950 . S
C1247 C1246 1.327 . S
C1247 C1251 1.429 . S
C1248 C1231 1.574 . S
C1248 H1242 0.949 . S
C1248 C1252 1.368 . S
C1249 C1230 1.429 . S
C1249 C1243 1.429 . S
C1249 C1250 1.523 . S
C1250 C1231 1.368 . S
C1250 C1244 1.368 . S
C1250 C1249 1.523 . S
C1251 C1235 1.429 . S
C1251 C1247 1.429 . S
C1251 C1252 1.523 . S
C1252 C1236 1.368 . S
C1252 C1248 1.368 . S
C1252 C1251 1.523 . S
H1253 C1228 0.950 . S
H1254 C1230 0.950 . S
H1255 C1231 0.949 . S
H1256 C1233 0.950 . S
H1257 C1235 0.950 . S
C1258 C1259 1.349 . S
C1258 C1260 1.327 . S
C1258 H1283 0.950 . S
C1259 C1258 1.349 . S
C1259 C1275 1.349 . S
C1260 C1258 1.327 . S
C1260 C1279 1.429 . S
C1260 H1284 0.950 . S
C1261 C1278 1.574 . S
C1261 C1280 1.368 . S
C1261 H1285 0.949 . S
H1262 C1266 0.949 . S
C1263 C1264 1.349 . S
C1263 C1265 1.327 . S
C1263 H1286 0.950 . S
C1264 C1263 1.349 . S
C1264 C1276 1.349 . S
C1265 C1263 1.327 . S
C1265 C1281 1.429 . S
C1265 H1287 0.950 . S
C1266 H1262 0.949 . S
C1266 C1274 1.574 . S
C1266 C1282 1.368 . S
H1267 C1275 0.950 . S
H1268 C1273 0.950 . S
H1269 C1274 0.949 . S
H1270 C1276 0.950 . S
H1271 C1277 0.950 . S
H1272 C1278 0.949 . S
C1273 H1268 0.950 . S
C1273 C1275 1.327 . S
C1273 C1279 1.429 . S
C1274 C1266 1.574 . S
C1274 H1269 0.949 . S
C1274 C1280 1.368 . S
C1275 C1259 1.349 . S
C1275 H1267 0.950 . S
C1275 C1273 1.327 . S
C1276 C1264 1.349 . S
C1276 H1270 0.950 . S
C1276 C1277 1.327 . S
C1277 H1271 0.950 . S
C1277 C1276 1.327 . S
C1277 C1281 1.429 . S
C1278 C1261 1.574 . S
C1278 H1272 0.949 . S
C1278 C1282 1.368 . S
C1279 C1260 1.429 . S
C1279 C1273 1.429 . S
C1279 C1280 1.523 . S
C1280 C1261 1.368 . S
C1280 C1274 1.368 . S
C1280 C1279 1.523 . S
C1281 C1265 1.429 . S
C1281 C1277 1.429 . S
C1281 C1282 1.523 . S
C1282 C1266 1.368 . S
C1282 C1278 1.368 . S
C1282 C1281 1.523 . S
H1283 C1258 0.950 . S
H1284 C1260 0.950 . S
H1285 C1261 0.949 . S
H1286 C1263 0.950 . S
H1287 C1265 0.950 . S
C1288 C1289 1.349 . S
C1288 C1290 1.327 . S
C1288 H1313 0.950 . S
C1289 C1288 1.349 . S
C1289 C1305 1.349 . S
C1290 C1288 1.327 . S
C1290 C1309 1.429 . S
C1290 H1314 0.950 . S
C1291 C1308 1.574 . S
C1291 C1310 1.368 . S
C1291 H1315 0.949 . S
H1292 C1296 0.949 . S
C1293 C1294 1.349 . S
C1293 C1295 1.327 . S
C1293 H1316 0.950 . S
C1294 C1293 1.349 . S
C1294 C1306 1.349 . S
C1295 C1293 1.327 . S
C1295 C1311 1.429 . S
C1295 H1317 0.950 . S
C1296 H1292 0.949 . S
C1296 C1304 1.574 . S
C1296 C1312 1.368 . S
H1297 C1305 0.950 . S
H1298 C1303 0.950 . S
H1299 C1304 0.949 . S
H1300 C1306 0.950 . S
H1301 C1307 0.950 . S
H1302 C1308 0.949 . S
C1303 H1298 0.950 . S
C1303 C1305 1.327 . S
C1303 C1309 1.429 . S
C1304 C1296 1.574 . S
C1304 H1299 0.949 . S
C1304 C1310 1.368 . S
C1305 C1289 1.349 . S
C1305 H1297 0.950 . S
C1305 C1303 1.327 . S
C1306 C1294 1.349 . S
C1306 H1300 0.950 . S
C1306 C1307 1.327 . S
C1307 H1301 0.950 . S
C1307 C1306 1.327 . S
C1307 C1311 1.429 . S
C1308 C1291 1.574 . S
C1308 H1302 0.949 . S
C1308 C1312 1.368 . S
C1309 C1290 1.429 . S
C1309 C1303 1.429 . S
C1309 C1310 1.523 . S
C1310 C1291 1.368 . S
C1310 C1304 1.368 . S
C1310 C1309 1.523 . S
C1311 C1295 1.429 . S
C1311 C1307 1.429 . S
C1311 C1312 1.523 . S
C1312 C1296 1.368 . S
C1312 C1308 1.368 . S
C1312 C1311 1.523 . S
H1313 C1288 0.950 . S
H1314 C1290 0.950 . S
H1315 C1291 0.949 . S
H1316 C1293 0.950 . S
H1317 C1295 0.950 . S
C1318 C1319 1.349 . S
C1318 C1320 1.327 . S
C1318 H1343 0.950 . S
C1319 C1318 1.349 . S
C1319 C1335 1.349 . S
C1320 C1318 1.327 . S
C1320 C1339 1.429 . S
C1320 H1344 0.950 . S
C1321 C1338 1.563 1_565 S
C1321 C1340 1.378 . S
C1321 H1345 0.950 . S
H1322 C1326 0.950 . S
C1323 C1324 1.349 . S
C1323 C1325 1.327 . S
C1323 H1346 0.950 . S
C1324 C1323 1.349 . S
C1324 C1336 1.349 . S
C1325 C1323 1.327 . S
C1325 C1341 1.429 . S
C1325 H1347 0.950 . S
C1326 H1322 0.950 . S
C1326 C1334 1.563 1_545 S
C1326 C1342 1.378 . S
H1327 C1335 0.950 . S
H1328 C1333 0.950 . S
H1329 C1334 0.949 . S
H1330 C1336 0.950 . S
H1331 C1337 0.950 . S
H1332 C1338 0.949 . S
C1333 H1328 0.950 . S
C1333 C1335 1.327 . S
C1333 C1339 1.429 . S
C1334 C1326 1.563 1_565 S
C1334 H1329 0.949 . S
C1334 C1340 1.368 . S
C1335 C1319 1.349 . S
C1335 H1327 0.950 . S
C1335 C1333 1.327 . S
C1336 C1324 1.349 . S
C1336 H1330 0.950 . S
C1336 C1337 1.327 . S
C1337 H1331 0.950 . S
C1337 C1336 1.327 . S
C1337 C1341 1.429 . S
C1338 C1321 1.563 1_545 S
C1338 H1332 0.949 . S
C1338 C1342 1.368 . S
C1339 C1320 1.429 . S
C1339 C1333 1.429 . S
C1339 C1340 1.523 . S
C1340 C1321 1.378 . S
C1340 C1334 1.368 . S
C1340 C1339 1.523 . S
C1341 C1325 1.429 . S
C1341 C1337 1.429 . S
C1341 C1342 1.523 . S
C1342 C1326 1.378 . S
C1342 C1338 1.368 . S
C1342 C1341 1.523 . S
H1343 C1318 0.950 . S
H1344 C1320 0.950 . S
H1345 C1321 0.950 . S
H1346 C1323 0.950 . S
H1347 C1325 0.950 . S
C1348 C1349 1.349 . S
C1348 C1350 1.327 . S
C1348 H1373 0.950 . S
C1349 C1348 1.349 . S
C1349 C1365 1.349 . S
C1350 C1348 1.327 . S
C1350 C1369 1.429 . S
C1350 H1374 0.950 . S
C1351 C1368 1.574 . S
C1351 C1370 1.368 . S
C1351 H1375 0.949 . S
H1352 C1356 0.949 . S
C1353 C1354 1.349 . S
C1353 C1355 1.327 . S
C1353 H1376 0.950 . S
C1354 C1353 1.349 . S
C1354 C1366 1.349 . S
C1355 C1353 1.327 . S
C1355 C1371 1.429 . S
C1355 H1377 0.950 . S
C1356 H1352 0.949 . S
C1356 C1364 1.574 . S
C1356 C1372 1.368 . S
H1357 C1365 0.950 . S
H1358 C1363 0.950 . S
H1359 C1364 0.949 . S
H1360 C1366 0.950 . S
H1361 C1367 0.950 . S
H1362 C1368 0.949 . S
C1363 H1358 0.950 . S
C1363 C1365 1.327 . S
C1363 C1369 1.429 . S
C1364 C1356 1.574 . S
C1364 H1359 0.949 . S
C1364 C1370 1.368 . S
C1365 C1349 1.349 . S
C1365 H1357 0.950 . S
C1365 C1363 1.327 . S
C1366 C1354 1.349 . S
C1366 H1360 0.950 . S
C1366 C1367 1.327 . S
C1367 H1361 0.950 . S
C1367 C1366 1.327 . S
C1367 C1371 1.429 . S
C1368 C1351 1.574 . S
C1368 H1362 0.949 . S
C1368 C1372 1.368 . S
C1369 C1350 1.429 . S
C1369 C1363 1.429 . S
C1369 C1370 1.523 . S
C1370 C1351 1.368 . S
C1370 C1364 1.368 . S
C1370 C1369 1.523 . S
C1371 C1355 1.429 . S
C1371 C1367 1.429 . S
C1371 C1372 1.523 . S
C1372 C1356 1.368 . S
C1372 C1368 1.368 . S
C1372 C1371 1.523 . S
H1373 C1348 0.950 . S
H1374 C1350 0.950 . S
H1375 C1351 0.949 . S
H1376 C1353 0.950 . S
H1377 C1355 0.950 . S
C1378 C1379 1.349 . S
C1378 C1380 1.327 . S
C1378 H1403 0.950 . S
C1379 C1378 1.349 . S
C1379 C1395 1.349 . S
C1380 C1378 1.327 . S
C1380 C1399 1.429 . S
C1380 H1404 0.950 . S
C1381 C1398 1.574 . S
C1381 C1400 1.368 1_556 S
C1381 H1405 0.949 . S
H1382 C1386 0.949 . S
C1383 C1384 1.349 . S
C1383 C1385 1.327 . S
C1383 H1406 0.950 . S
C1384 C1383 1.349 . S
C1384 C1396 1.349 . S
C1385 C1383 1.327 . S
C1385 C1401 1.429 . S
C1385 H1407 0.950 . S
C1386 H1382 0.949 . S
C1386 C1394 1.574 . S
C1386 C1402 1.368 1_554 S
H1387 C1395 0.950 . S
H1388 C1393 0.950 1_556 S
H1389 C1394 0.949 . S
H1390 C1396 0.950 . S
H1391 C1397 0.950 1_554 S
H1392 C1398 0.949 . S
C1393 H1388 0.950 1_554 S
C1393 C1395 1.327 . S
C1393 C1399 1.429 . S
C1394 C1386 1.574 . S
C1394 H1389 0.949 . S
C1394 C1400 1.368 . S
C1395 C1379 1.349 . S
C1395 H1387 0.950 . S
C1395 C1393 1.327 . S
C1396 C1384 1.349 . S
C1396 H1390 0.950 . S
C1396 C1397 1.327 . S
C1397 H1391 0.950 1_556 S
C1397 C1396 1.327 . S
C1397 C1401 1.429 . S
C1398 C1381 1.574 . S
C1398 H1392 0.949 . S
C1398 C1402 1.368 . S
C1399 C1380 1.429 . S
C1399 C1393 1.429 . S
C1399 C1400 1.523 . S
C1400 C1381 1.368 1_554 S
C1400 C1394 1.368 . S
C1400 C1399 1.523 . S
C1401 C1385 1.429 . S
C1401 C1397 1.429 . S
C1401 C1402 1.523 . S
C1402 C1386 1.368 1_556 S
C1402 C1398 1.368 . S
C1402 C1401 1.523 . S
H1403 C1378 0.950 . S
H1404 C1380 0.950 . S
H1405 C1381 0.949 . S
H1406 C1383 0.950 . S
H1407 C1385 0.950 . S
C1408 C1409 1.349 . S
C1408 C1410 1.327 . S
C1408 H1433 0.950 . S
C1409 C1408 1.349 . S
C1409 C1425 1.349 . S
C1410 C1408 1.327 . S
C1410 C1429 1.429 . S
C1410 H1434 0.950 . S
C1411 C1428 1.574 . S
C1411 C1430 1.368 . S
C1411 H1435 0.949 . S
H1412 C1416 0.949 . S
C1413 C1414 1.349 . S
C1413 C1415 1.327 . S
C1413 H1436 0.950 . S
C1414 C1413 1.349 . S
C1414 C1426 1.349 . S
C1415 C1413 1.327 . S
C1415 C1431 1.429 . S
C1415 H1437 0.950 . S
C1416 H1412 0.949 . S
C1416 C1424 1.574 . S
C1416 C1432 1.368 . S
H1417 C1425 0.950 . S
H1418 C1423 0.950 . S
H1419 C1424 0.949 . S
H1420 C1426 0.950 . S
H1421 C1427 0.950 . S
H1422 C1428 0.949 . S
C1423 H1418 0.950 . S
C1423 C1425 1.327 . S
C1423 C1429 1.429 . S
C1424 C1416 1.574 . S
C1424 H1419 0.949 . S
C1424 C1430 1.368 . S
C1425 C1409 1.349 . S
C1425 H1417 0.950 . S
C1425 C1423 1.327 . S
C1426 C1414 1.349 . S
C1426 H1420 0.950 . S
C1426 C1427 1.327 . S
C1427 H1421 0.950 . S
C1427 C1426 1.327 . S
C1427 C1431 1.429 . S
C1428 C1411 1.574 . S
C1428 H1422 0.949 . S
C1428 C1432 1.368 . S
C1429 C1410 1.429 . S
C1429 C1423 1.429 . S
C1429 C1430 1.523 . S
C1430 C1411 1.368 . S
C1430 C1424 1.368 . S
C1430 C1429 1.523 . S
C1431 C1415 1.429 . S
C1431 C1427 1.429 . S
C1431 C1432 1.523 . S
C1432 C1416 1.368 . S
C1432 C1428 1.368 . S
C1432 C1431 1.523 . S
H1433 C1408 0.950 . S
H1434 C1410 0.950 . S
H1435 C1411 0.949 . S
H1436 C1413 0.950 . S
H1437 C1415 0.950 . S
C1438 C1439 1.349 . S
C1438 C1440 1.327 . S
C1438 H1463 0.950 . S
C1439 C1438 1.349 . S
C1439 C1455 1.349 . S
C1440 C1438 1.327 . S
C1440 C1459 1.429 . S
C1440 H1464 0.950 . S
C1441 C1458 1.574 . S
C1441 C1460 1.368 . S
C1441 H1465 0.949 . S
H1442 C1446 0.949 . S
C1443 C1444 1.349 . S
C1443 C1445 1.327 1_545 S
C1443 H1466 0.950 . S
C1444 C1443 1.349 . S
C1444 C1456 1.349 1_545 S
C1445 C1443 1.327 1_565 S
C1445 C1461 1.429 . S
C1445 H1467 0.950 . S
C1446 H1442 0.949 . S
C1446 C1454 1.574 . S
C1446 C1462 1.368 . S
H1447 C1455 0.950 . S
H1448 C1453 0.950 . S
H1449 C1454 0.949 . S
H1450 C1456 0.950 1_545 S
H1451 C1457 0.950 . S
H1452 C1458 0.949 . S
C1453 H1448 0.950 . S
C1453 C1455 1.327 . S
C1453 C1459 1.429 . S
C1454 C1446 1.574 . S
C1454 H1449 0.949 . S
C1454 C1460 1.368 . S
C1455 C1439 1.349 . S
C1455 H1447 0.950 . S
C1455 C1453 1.327 . S
C1456 C1444 1.349 1_565 S
C1456 H1450 0.950 1_565 S
C1456 C1457 1.327 . S
C1457 H1451 0.950 . S
C1457 C1456 1.327 . S
C1457 C1461 1.429 . S
C1458 C1441 1.574 . S
C1458 H1452 0.949 . S
C1458 C1462 1.368 . S
C1459 C1440 1.429 . S
C1459 C1453 1.429 . S
C1459 C1460 1.523 . S
C1460 C1441 1.368 . S
C1460 C1454 1.368 . S
C1460 C1459 1.523 . S
C1461 C1445 1.429 . S
C1461 C1457 1.429 . S
C1461 C1462 1.523 . S
C1462 C1446 1.368 . S
C1462 C1458 1.368 . S
C1462 C1461 1.523 . S
H1463 C1438 0.950 . S
H1464 C1440 0.950 . S
H1465 C1441 0.949 . S
H1466 C1443 0.950 . S
H1467 C1445 0.950 . S
C1468 C1469 1.349 . S
C1468 C1470 1.327 1_545 S
C1468 H1493 0.950 . S
C1469 C1468 1.349 . S
C1469 C1485 1.349 1_545 S
C1470 C1468 1.327 1_565 S
C1470 C1489 1.429 . S
C1470 H1494 0.950 . S
C1471 C1488 1.574 . S
C1471 C1490 1.368 . S
C1471 H1495 0.949 . S
H1472 C1476 0.949 . S
C1473 C1474 1.349 . S
C1473 C1475 1.327 . S
C1473 H1496 0.950 . S
C1474 C1473 1.349 . S
C1474 C1486 1.349 . S
C1475 C1473 1.327 . S
C1475 C1491 1.429 . S
C1475 H1497 0.950 . S
C1476 H1472 0.949 . S
C1476 C1484 1.574 . S
C1476 C1492 1.368 . S
H1477 C1485 0.953 . S
H1478 C1483 0.950 . S
H1479 C1484 0.949 . S
H1480 C1486 0.950 . S
H1481 C1487 0.950 . S
H1482 C1488 0.949 . S
C1483 H1478 0.950 . S
C1483 C1485 1.327 . S
C1483 C1489 1.429 . S
C1484 C1476 1.574 . S
C1484 H1479 0.949 . S
C1484 C1490 1.368 . S
C1485 C1469 1.349 1_565 S
C1485 H1477 0.953 . S
C1485 C1483 1.327 . S
C1486 C1474 1.349 . S
C1486 H1480 0.950 . S
C1486 C1487 1.327 . S
C1487 H1481 0.950 . S
C1487 C1486 1.327 . S
C1487 C1491 1.429 . S
C1488 C1471 1.574 . S
C1488 H1482 0.949 . S
C1488 C1492 1.368 . S
C1489 C1470 1.429 . S
C1489 C1483 1.429 . S
C1489 C1490 1.523 . S
C1490 C1471 1.368 . S
C1490 C1484 1.368 . S
C1490 C1489 1.523 . S
C1491 C1475 1.429 . S
C1491 C1487 1.429 . S
C1491 C1492 1.523 . S
C1492 C1476 1.368 . S
C1492 C1488 1.368 . S
C1492 C1491 1.523 . S
H1493 C1468 0.950 . S
H1494 C1470 0.950 . S
H1495 C1471 0.949 . S
H1496 C1473 0.950 . S
H1497 C1475 0.950 . S
C1498 C1499 1.349 . S
C1498 C1500 1.327 . S
C1498 H1523 0.950 . S
C1499 C1498 1.349 . S
C1499 C1515 1.349 . S
C1500 C1498 1.327 . S
C1500 C1519 1.429 . S
C1500 H1524 0.950 . S
C1501 C1518 1.574 . S
C1501 C1520 1.368 . S
C1501 H1525 0.949 . S
H1502 C1506 0.949 . S
C1503 C1504 1.349 . S
C1503 C1505 1.327 . S
C1503 H1526 0.950 . S
C1504 C1503 1.349 . S
C1504 C1516 1.349 . S
C1505 C1503 1.327 . S
C1505 C1521 1.429 . S
C1505 H1527 0.950 . S
C1506 H1502 0.949 . S
C1506 C1514 1.574 . S
C1506 C1522 1.368 . S
H1507 C1515 0.950 . S
H1508 C1513 0.950 . S
H1509 C1514 0.949 . S
H1510 C1516 0.950 . S
H1511 C1517 0.950 . S
H1512 C1518 0.949 . S
C1513 H1508 0.950 . S
C1513 C1515 1.327 . S
C1513 C1519 1.429 . S
C1514 C1506 1.574 . S
C1514 H1509 0.949 . S
C1514 C1520 1.368 . S
C1515 C1499 1.349 . S
C1515 H1507 0.950 . S
C1515 C1513 1.327 . S
C1516 C1504 1.349 . S
C1516 H1510 0.950 . S
C1516 C1517 1.327 . S
C1517 H1511 0.950 . S
C1517 C1516 1.327 . S
C1517 C1521 1.429 . S
C1518 C1501 1.574 . S
C1518 H1512 0.949 . S
C1518 C1522 1.368 . S
C1519 C1500 1.429 . S
C1519 C1513 1.429 . S
C1519 C1520 1.523 . S
C1520 C1501 1.368 . S
C1520 C1514 1.368 . S
C1520 C1519 1.523 . S
C1521 C1505 1.429 . S
C1521 C1517 1.429 . S
C1521 C1522 1.523 . S
C1522 C1506 1.368 . S
C1522 C1518 1.368 . S
C1522 C1521 1.523 . S
H1523 C1498 0.950 . S
H1524 C1500 0.950 . S
H1525 C1501 0.949 . S
H1526 C1503 0.950 . S
H1527 C1505 0.950 . S
C1528 C1529 1.349 . S
C1528 C1530 1.327 . S
C1528 H1553 0.950 . S
C1529 C1528 1.349 . S
C1529 C1545 1.349 . S
C1530 C1528 1.327 . S
C1530 C1549 1.429 . S
C1530 H1554 0.950 . S
C1531 C1548 1.574 . S
C1531 C1550 1.368 . S
C1531 H1555 0.949 . S
H1532 C1536 0.949 . S
C1533 C1534 1.349 . S
C1533 C1535 1.327 . S
C1533 H1556 0.950 . S
C1534 C1533 1.349 . S
C1534 C1546 1.349 . S
C1535 C1533 1.327 . S
C1535 C1551 1.429 . S
C1535 H1557 0.950 . S
C1536 H1532 0.949 . S
C1536 C1544 1.574 . S
C1536 C1552 1.368 . S
H1537 C1545 0.950 . S
H1538 C1543 0.950 . S
H1539 C1544 0.949 . S
H1540 C1546 0.950 . S
H1541 C1547 0.950 . S
H1542 C1548 0.949 . S
C1543 H1538 0.950 . S
C1543 C1545 1.327 . S
C1543 C1549 1.429 . S
C1544 C1536 1.574 . S
C1544 H1539 0.949 . S
C1544 C1550 1.368 . S
C1545 C1529 1.349 . S
C1545 H1537 0.950 . S
C1545 C1543 1.327 . S
C1546 C1534 1.349 . S
C1546 H1540 0.950 . S
C1546 C1547 1.327 . S
C1547 H1541 0.950 . S
C1547 C1546 1.327 . S
C1547 C1551 1.429 . S
C1548 C1531 1.574 . S
C1548 H1542 0.949 . S
C1548 C1552 1.368 . S
C1549 C1530 1.429 . S
C1549 C1543 1.429 . S
C1549 C1550 1.523 . S
C1550 C1531 1.368 . S
C1550 C1544 1.368 . S
C1550 C1549 1.523 . S
C1551 C1535 1.429 . S
C1551 C1547 1.429 . S
C1551 C1552 1.523 . S
C1552 C1536 1.368 . S
C1552 C1548 1.368 . S
C1552 C1551 1.523 . S
H1553 C1528 0.950 . S
H1554 C1530 0.950 . S
H1555 C1531 0.949 . S
H1556 C1533 0.950 . S
H1557 C1535 0.950 . S
C1558 C1559 1.349 . S
C1558 C1560 1.327 1_565 S
C1558 H1583 0.950 . S
C1559 C1558 1.349 . S
C1559 C1575 1.331 1_565 S
C1560 C1558 1.327 1_545 S
C1560 C1579 1.429 . S
C1560 H1584 0.950 . S
C1561 C1578 1.574 . S
C1561 C1580 1.368 . S
C1561 H1585 0.949 . S
H1562 C1566 0.949 . S
C1563 C1564 1.349 . S
C1563 C1565 1.327 . S
C1563 H1586 0.950 . S
C1564 C1563 1.349 . S
C1564 C1576 1.349 . S
C1565 C1563 1.327 . S
C1565 C1581 1.429 . S
C1565 H1587 0.950 . S
C1566 H1562 0.949 . S
C1566 C1574 1.574 . S
C1566 C1582 1.368 . S
H1567 C1575 0.945 1_565 S
H1568 C1573 0.950 . S
H1569 C1574 0.949 . S
H1570 C1576 0.950 . S
H1571 C1577 0.950 . S
H1572 C1578 0.949 . S
C1573 H1568 0.950 . S
C1573 C1575 1.350 . S
C1573 C1579 1.429 . S
C1574 C1566 1.574 . S
C1574 H1569 0.949 . S
C1574 C1580 1.368 . S
C1575 C1559 1.331 1_545 S
C1575 H1567 0.945 1_545 S
C1575 C1573 1.350 . S
C1576 C1564 1.349 . S
C1576 H1570 0.950 . S
C1576 C1577 1.327 . S
C1577 H1571 0.950 . S
C1577 C1576 1.327 . S
C1577 C1581 1.429 . S
C1578 C1561 1.574 . S
C1578 H1572 0.949 . S
C1578 C1582 1.368 . S
C1579 C1560 1.429 . S
C1579 C1573 1.429 . S
C1579 C1580 1.523 . S
C1580 C1561 1.368 . S
C1580 C1574 1.368 . S
C1580 C1579 1.523 . S
C1581 C1565 1.429 . S
C1581 C1577 1.429 . S
C1581 C1582 1.523 . S
C1582 C1566 1.368 . S
C1582 C1578 1.368 . S
C1582 C1581 1.523 . S
H1583 C1558 0.950 . S
H1584 C1560 0.950 . S
H1585 C1561 0.949 . S
H1586 C1563 0.950 . S
H1587 C1565 0.950 . S
C1588 C1589 1.349 . S
C1588 C1590 1.327 . S
C1588 H1613 0.950 . S
C1589 C1588 1.349 . S
C1589 C1605 1.349 . S
C1590 C1588 1.327 . S
C1590 C1609 1.429 . S
C1590 H1614 0.950 . S
C1591 C1608 1.574 . S
C1591 C1610 1.368 . S
C1591 H1615 0.949 . S
H1592 C1596 0.949 . S
C1593 C1594 1.349 1_545 S
C1593 C1595 1.327 . S
C1593 H1616 0.950 . S
C1594 C1593 1.349 1_565 S
C1594 C1606 1.349 . S
C1595 C1593 1.327 . S
C1595 C1611 1.429 . S
C1595 H1617 0.950 . S
C1596 H1592 0.949 . S
C1596 C1604 1.574 . S
C1596 C1612 1.368 . S
H1597 C1605 0.950 . S
H1598 C1603 0.950 . S
H1599 C1604 0.949 . S
H1600 C1606 0.950 . S
H1601 C1607 0.950 . S
H1602 C1608 0.949 . S
C1603 H1598 0.950 . S
C1603 C1605 1.327 . S
C1603 C1609 1.429 . S
C1604 C1596 1.574 . S
C1604 H1599 0.949 . S
C1604 C1610 1.368 . S
C1605 C1589 1.349 . S
C1605 H1597 0.950 . S
C1605 C1603 1.327 . S
C1606 C1594 1.349 . S
C1606 H1600 0.950 . S
C1606 C1607 1.327 1_565 S
C1607 H1601 0.950 . S
C1607 C1606 1.327 1_545 S
C1607 C1611 1.429 . S
C1608 C1591 1.574 . S
C1608 H1602 0.949 . S
C1608 C1612 1.368 . S
C1609 C1590 1.429 . S
C1609 C1603 1.429 . S
C1609 C1610 1.523 . S
C1610 C1591 1.368 . S
C1610 C1604 1.368 . S
C1610 C1609 1.523 . S
C1611 C1595 1.429 . S
C1611 C1607 1.429 . S
C1611 C1612 1.523 . S
C1612 C1596 1.368 . S
C1612 C1608 1.368 . S
C1612 C1611 1.523 . S
H1613 C1588 0.950 . S
H1614 C1590 0.950 . S
H1615 C1591 0.949 . S
H1616 C1593 0.950 . S
H1617 C1595 0.950 . S
C1618 C1619 1.349 . S
C1618 C1620 1.327 . S
C1618 H1643 0.950 . S
C1619 C1618 1.349 . S
C1619 C1635 1.349 . S
C1620 C1618 1.327 . S
C1620 C1639 1.429 . S
C1620 H1644 0.950 . S
C1621 C1638 1.574 . S
C1621 C1640 1.368 . S
C1621 H1645 0.949 . S
H1622 C1626 0.949 . S
C1623 C1624 1.349 . S
C1623 C1625 1.327 . S
C1623 H1646 0.950 . S
C1624 C1623 1.349 . S
C1624 C1636 1.349 . S
C1625 C1623 1.327 . S
C1625 C1641 1.429 . S
C1625 H1647 0.950 . S
C1626 H1622 0.949 . S
C1626 C1634 1.574 . S
C1626 C1642 1.368 . S
H1627 C1635 0.950 . S
H1628 C1633 0.950 . S
H1629 C1634 0.949 . S
H1630 C1636 0.950 . S
H1631 C1637 0.950 . S
H1632 C1638 0.949 . S
C1633 H1628 0.950 . S
C1633 C1635 1.327 . S
C1633 C1639 1.429 . S
C1634 C1626 1.574 . S
C1634 H1629 0.949 . S
C1634 C1640 1.368 . S
C1635 C1619 1.349 . S
C1635 H1627 0.950 . S
C1635 C1633 1.327 . S
C1636 C1624 1.349 . S
C1636 H1630 0.950 . S
C1636 C1637 1.327 . S
C1637 H1631 0.950 . S
C1637 C1636 1.327 . S
C1637 C1641 1.429 . S
C1638 C1621 1.574 . S
C1638 H1632 0.949 . S
C1638 C1642 1.368 . S
C1639 C1620 1.429 . S
C1639 C1633 1.429 . S
C1639 C1640 1.523 . S
C1640 C1621 1.368 . S
C1640 C1634 1.368 . S
C1640 C1639 1.523 . S
C1641 C1625 1.429 . S
C1641 C1637 1.429 . S
C1641 C1642 1.523 . S
C1642 C1626 1.368 . S
C1642 C1638 1.368 . S
C1642 C1641 1.523 . S
H1643 C1618 0.950 . S
H1644 C1620 0.950 . S
H1645 C1621 0.949 . S
H1646 C1623 0.950 . S
H1647 C1625 0.950 . S
C1648 C1649 1.349 . S
C1648 C1650 1.327 . S
C1648 H1673 0.950 . S
C1649 C1648 1.349 . S
C1649 C1665 1.349 . S
C1650 C1648 1.327 . S
C1650 C1669 1.429 . S
C1650 H1674 0.950 . S
C1651 C1668 1.574 . S
C1651 C1670 1.368 . S
C1651 H1675 0.949 . S
H1652 C1656 0.949 . S
C1653 C1654 1.349 . S
C1653 C1655 1.327 . S
C1653 H1676 0.950 . S
C1654 C1653 1.349 . S
C1654 C1666 1.349 . S
C1655 C1653 1.327 . S
C1655 C1671 1.429 . S
C1655 H1677 0.950 . S
C1656 H1652 0.949 . S
C1656 C1664 1.574 . S
C1656 C1672 1.368 . S
H1657 C1665 0.950 . S
H1658 C1663 0.950 . S
H1659 C1664 0.949 . S
H1660 C1666 0.950 . S
H1661 C1667 0.950 . S
H1662 C1668 0.949 . S
C1663 H1658 0.950 . S
C1663 C1665 1.327 . S
C1663 C1669 1.429 . S
C1664 C1656 1.574 . S
C1664 H1659 0.949 . S
C1664 C1670 1.368 . S
C1665 C1649 1.349 . S
C1665 H1657 0.950 . S
C1665 C1663 1.327 . S
C1666 C1654 1.349 . S
C1666 H1660 0.950 . S
C1666 C1667 1.327 . S
C1667 H1661 0.950 . S
C1667 C1666 1.327 . S
C1667 C1671 1.429 . S
C1668 C1651 1.574 . S
C1668 H1662 0.949 . S
C1668 C1672 1.368 . S
C1669 C1650 1.429 . S
C1669 C1663 1.429 . S
C1669 C1670 1.523 . S
C1670 C1651 1.368 . S
C1670 C1664 1.368 . S
C1670 C1669 1.523 . S
C1671 C1655 1.429 . S
C1671 C1667 1.429 . S
C1671 C1672 1.523 . S
C1672 C1656 1.368 . S
C1672 C1668 1.368 . S
C1672 C1671 1.523 . S
H1673 C1648 0.950 . S
H1674 C1650 0.950 . S
H1675 C1651 0.949 . S
H1676 C1653 0.950 . S
H1677 C1655 0.950 . S
C1678 C1679 1.349 . S
C1678 C1680 1.327 . S
C1678 H1703 0.950 . S
C1679 C1678 1.349 . S
C1679 C1695 1.349 . S
C1680 C1678 1.327 . S
C1680 C1699 1.429 . S
C1680 H1704 0.950 . S
C1681 C1698 1.574 . S
C1681 C1700 1.368 . S
C1681 H1705 0.949 . S
H1682 C1686 0.949 . S
C1683 C1684 1.349 . S
C1683 C1685 1.327 1_545 S
C1683 H1706 0.950 . S
C1684 C1683 1.349 . S
C1684 C1696 1.349 1_545 S
C1685 C1683 1.327 1_565 S
C1685 C1701 1.429 . S
C1685 H1707 0.950 . S
C1686 H1682 0.949 . S
C1686 C1694 1.574 . S
C1686 C1702 1.368 . S
H1687 C1695 0.950 . S
H1688 C1693 0.950 . S
H1689 C1694 0.949 . S
H1690 C1696 0.950 1_545 S
H1691 C1697 0.950 . S
H1692 C1698 0.949 . S
C1693 H1688 0.950 . S
C1693 C1695 1.327 . S
C1693 C1699 1.429 . S
C1694 C1686 1.574 . S
C1694 H1689 0.949 . S
C1694 C1700 1.368 . S
C1695 C1679 1.349 . S
C1695 H1687 0.950 . S
C1695 C1693 1.327 . S
C1696 C1684 1.349 1_565 S
C1696 H1690 0.950 1_565 S
C1696 C1697 1.327 . S
C1697 H1691 0.950 . S
C1697 C1696 1.327 . S
C1697 C1701 1.429 . S
C1698 C1681 1.574 . S
C1698 H1692 0.949 . S
C1698 C1702 1.368 . S
C1699 C1680 1.429 . S
C1699 C1693 1.429 . S
C1699 C1700 1.523 . S
C1700 C1681 1.368 . S
C1700 C1694 1.368 . S
C1700 C1699 1.523 . S
C1701 C1685 1.429 . S
C1701 C1697 1.429 . S
C1701 C1702 1.523 . S
C1702 C1686 1.368 . S
C1702 C1698 1.368 . S
C1702 C1701 1.523 . S
H1703 C1678 0.950 . S
H1704 C1680 0.950 . S
H1705 C1681 0.949 . S
H1706 C1683 0.950 . S
H1707 C1685 0.950 . S
C1708 C1709 1.349 . S
C1708 C1710 1.327 . S
C1708 H1733 0.950 . S
C1709 C1708 1.349 . S
C1709 C1725 1.349 . S
C1710 C1708 1.327 . S
C1710 C1729 1.429 . S
C1710 H1734 0.950 . S
C1711 C1728 1.574 . S
C1711 C1730 1.368 . S
C1711 H1735 0.949 . S
H1712 C1716 0.949 . S
C1713 C1714 1.349 . S
C1713 C1715 1.327 1_545 S
C1713 H1736 0.950 . S
C1714 C1713 1.349 . S
C1714 C1726 1.349 1_545 S
C1715 C1713 1.327 1_565 S
C1715 C1731 1.429 . S
C1715 H1737 0.950 . S
C1716 H1712 0.949 . S
C1716 C1724 1.574 . S
C1716 C1732 1.368 . S
H1717 C1725 0.950 . S
H1718 C1723 0.950 . S
H1719 C1724 0.949 . S
H1720 C1726 0.946 1_545 S
H1721 C1727 0.950 . S
H1722 C1728 0.949 . S
C1723 H1718 0.950 . S
C1723 C1725 1.327 . S
C1723 C1729 1.429 . S
C1724 C1716 1.574 . S
C1724 H1719 0.949 . S
C1724 C1730 1.368 . S
C1725 C1709 1.349 . S
C1725 H1717 0.950 . S
C1725 C1723 1.327 . S
C1726 C1714 1.349 1_565 S
C1726 H1720 0.946 1_565 S
C1726 C1727 1.327 . S
C1727 H1721 0.950 . S
C1727 C1726 1.327 . S
C1727 C1731 1.429 . S
C1728 C1711 1.574 . S
C1728 H1722 0.949 . S
C1728 C1732 1.368 . S
C1729 C1710 1.429 . S
C1729 C1723 1.429 . S
C1729 C1730 1.523 . S
C1730 C1711 1.368 . S
C1730 C1724 1.368 . S
C1730 C1729 1.523 . S
C1731 C1715 1.429 . S
C1731 C1727 1.429 . S
C1731 C1732 1.523 . S
C1732 C1716 1.368 . S
C1732 C1728 1.368 . S
C1732 C1731 1.523 . S
H1733 C1708 0.950 . S
H1734 C1710 0.950 . S
H1735 C1711 0.949 . S
H1736 C1713 0.950 . S
H1737 C1715 0.950 . S
C1738 C1739 1.349 . S
C1738 C1740 1.327 . S
C1738 H1763 0.950 . S
C1739 C1738 1.349 . S
C1739 C1755 1.349 . S
C1740 C1738 1.327 . S
C1740 C1759 1.429 . S
C1740 H1764 0.950 . S
C1741 C1758 1.574 . S
C1741 C1760 1.368 . S
C1741 H1765 0.949 . S
H1742 C1746 0.949 . S
C1743 C1744 1.349 . S
C1743 C1745 1.327 . S
C1743 H1766 0.950 . S
C1744 C1743 1.349 . S
C1744 C1756 1.349 . S
C1745 C1743 1.327 . S
C1745 C1761 1.429 . S
C1745 H1767 0.950 . S
C1746 H1742 0.949 . S
C1746 C1754 1.574 . S
C1746 C1762 1.368 . S
H1747 C1755 0.950 . S
H1748 C1753 0.950 . S
H1749 C1754 0.949 . S
H1750 C1756 0.950 . S
H1751 C1757 0.950 . S
H1752 C1758 0.949 . S
C1753 H1748 0.950 . S
C1753 C1755 1.327 . S
C1753 C1759 1.429 . S
C1754 C1746 1.574 . S
C1754 H1749 0.949 . S
C1754 C1760 1.368 . S
C1755 C1739 1.349 . S
C1755 H1747 0.950 . S
C1755 C1753 1.327 . S
C1756 C1744 1.349 . S
C1756 H1750 0.950 . S
C1756 C1757 1.327 . S
C1757 H1751 0.950 . S
C1757 C1756 1.327 . S
C1757 C1761 1.429 . S
C1758 C1741 1.574 . S
C1758 H1752 0.949 . S
C1758 C1762 1.368 . S
C1759 C1740 1.429 . S
C1759 C1753 1.429 . S
C1759 C1760 1.523 . S
C1760 C1741 1.368 . S
C1760 C1754 1.368 . S
C1760 C1759 1.523 . S
C1761 C1745 1.429 . S
C1761 C1757 1.429 . S
C1761 C1762 1.523 . S
C1762 C1746 1.368 . S
C1762 C1758 1.368 . S
C1762 C1761 1.523 . S
H1763 C1738 0.950 . S
H1764 C1740 0.950 . S
H1765 C1741 0.949 . S
H1766 C1743 0.950 . S
H1767 C1745 0.950 . S
C1768 C1769 1.349 . S
C1768 C1770 1.327 . S
C1768 H1793 0.950 . S
C1769 C1768 1.349 . S
C1769 C1785 1.349 . S
C1770 C1768 1.327 . S
C1770 C1789 1.429 . S
C1770 H1794 0.950 . S
C1771 C1788 1.574 . S
C1771 C1790 1.368 . S
C1771 H1795 0.949 . S
H1772 C1776 0.949 . S
C1773 C1774 1.349 . S
C1773 C1775 1.327 . S
C1773 H1796 0.950 . S
C1774 C1773 1.349 . S
C1774 C1786 1.349 . S
C1775 C1773 1.327 . S
C1775 C1791 1.429 . S
C1775 H1797 0.950 . S
C1776 H1772 0.949 . S
C1776 C1784 1.574 . S
C1776 C1792 1.368 . S
H1777 C1785 0.950 . S
H1778 C1783 0.950 . S
H1779 C1784 0.949 . S
H1780 C1786 0.950 . S
H1781 C1787 0.950 . S
H1782 C1788 0.949 . S
C1783 H1778 0.950 . S
C1783 C1785 1.327 . S
C1783 C1789 1.429 . S
C1784 C1776 1.574 . S
C1784 H1779 0.949 . S
C1784 C1790 1.368 . S
C1785 C1769 1.349 . S
C1785 H1777 0.950 . S
C1785 C1783 1.327 . S
C1786 C1774 1.349 . S
C1786 H1780 0.950 . S
C1786 C1787 1.327 . S
C1787 H1781 0.950 . S
C1787 C1786 1.327 . S
C1787 C1791 1.429 . S
C1788 C1771 1.574 . S
C1788 H1782 0.949 . S
C1788 C1792 1.368 . S
C1789 C1770 1.429 . S
C1789 C1783 1.429 . S
C1789 C1790 1.523 . S
C1790 C1771 1.368 . S
C1790 C1784 1.368 . S
C1790 C1789 1.523 . S
C1791 C1775 1.429 . S
C1791 C1787 1.429 . S
C1791 C1792 1.523 . S
C1792 C1776 1.368 . S
C1792 C1788 1.368 . S
C1792 C1791 1.523 . S
H1793 C1768 0.950 . S
H1794 C1770 0.950 . S
H1795 C1771 0.949 . S
H1796 C1773 0.950 . S
H1797 C1775 0.950 . S
C1798 C1799 1.349 . S
C1798 C1800 1.327 1_565 S
C1798 H1823 0.950 . S
C1799 C1798 1.349 . S
C1799 C1815 1.349 1_565 S
C1800 C1798 1.327 1_545 S
C1800 C1819 1.429 . S
C1800 H1824 0.950 . S
C1801 C1818 1.574 . S
C1801 C1820 1.368 . S
C1801 H1825 0.949 . S
H1802 C1806 0.949 . S
C1803 C1804 1.349 . S
C1803 C1805 1.327 . S
C1803 H1826 0.950 . S
C1804 C1803 1.349 . S
C1804 C1816 1.349 . S
C1805 C1803 1.327 . S
C1805 C1821 1.429 . S
C1805 H1827 0.950 . S
C1806 H1802 0.949 . S
C1806 C1814 1.574 . S
C1806 C1822 1.368 . S
H1807 C1815 0.950 . S
H1808 C1813 0.950 . S
H1809 C1814 0.949 . S
H1810 C1816 0.950 . S
H1811 C1817 0.950 . S
H1812 C1818 0.949 . S
C1813 H1808 0.950 . S
C1813 C1815 1.327 . S
C1813 C1819 1.429 . S
C1814 C1806 1.574 . S
C1814 H1809 0.949 . S
C1814 C1820 1.368 . S
C1815 C1799 1.349 1_545 S
C1815 H1807 0.950 . S
C1815 C1813 1.327 . S
C1816 C1804 1.349 . S
C1816 H1810 0.950 . S
C1816 C1817 1.327 . S
C1817 H1811 0.950 . S
C1817 C1816 1.327 . S
C1817 C1821 1.429 . S
C1818 C1801 1.574 . S
C1818 H1812 0.949 . S
C1818 C1822 1.368 . S
C1819 C1800 1.429 . S
C1819 C1813 1.429 . S
C1819 C1820 1.523 . S
C1820 C1801 1.368 . S
C1820 C1814 1.368 . S
C1820 C1819 1.523 . S
C1821 C1805 1.429 . S
C1821 C1817 1.429 . S
C1821 C1822 1.523 . S
C1822 C1806 1.368 . S
C1822 C1818 1.368 . S
C1822 C1821 1.523 . S
H1823 C1798 0.950 . S
H1824 C1800 0.950 . S
H1825 C1801 0.949 . S
H1826 C1803 0.950 . S
H1827 C1805 0.950 . S
C1828 C1829 1.349 . S
C1828 C1830 1.327 . S
C1828 H1853 0.950 . S
C1829 C1828 1.349 . S
C1829 C1845 1.349 . S
C1830 C1828 1.327 . S
C1830 C1849 1.429 . S
C1830 H1854 0.950 . S
C1831 C1848 1.574 . S
C1831 C1850 1.368 . S
C1831 H1855 0.949 . S
H1832 C1836 0.949 . S
C1833 C1834 1.331 1_545 S
C1833 C1835 1.351 . S
C1833 H1856 0.944 1_545 S
C1834 C1833 1.331 1_565 S
C1834 C1846 1.349 . S
C1835 C1833 1.351 . S
C1835 C1851 1.429 . S
C1835 H1857 0.950 . S
C1836 H1832 0.949 . S
C1836 C1844 1.574 . S
C1836 C1852 1.368 . S
H1837 C1845 0.950 . S
H1838 C1843 0.950 . S
H1839 C1844 0.949 . S
H1840 C1846 0.950 . S
H1841 C1847 0.950 . S
H1842 C1848 0.949 . S
C1843 H1838 0.950 . S
C1843 C1845 1.327 . S
C1843 C1849 1.429 . S
C1844 C1836 1.574 . S
C1844 H1839 0.949 . S
C1844 C1850 1.368 . S
C1845 C1829 1.349 . S
C1845 H1837 0.950 . S
C1845 C1843 1.327 . S
C1846 C1834 1.349 . S
C1846 H1840 0.950 . S
C1846 C1847 1.327 1_565 S
C1847 H1841 0.950 . S
C1847 C1846 1.327 1_545 S
C1847 C1851 1.429 . S
C1848 C1831 1.574 . S
C1848 H1842 0.949 . S
C1848 C1852 1.368 . S
C1849 C1830 1.429 . S
C1849 C1843 1.429 . S
C1849 C1850 1.523 . S
C1850 C1831 1.368 . S
C1850 C1844 1.368 . S
C1850 C1849 1.523 . S
C1851 C1835 1.429 . S
C1851 C1847 1.429 . S
C1851 C1852 1.523 . S
C1852 C1836 1.368 . S
C1852 C1848 1.368 . S
C1852 C1851 1.523 . S
H1853 C1828 0.950 . S
H1854 C1830 0.950 . S
H1855 C1831 0.949 . S
H1856 C1833 0.944 1_565 S
H1857 C1835 0.950 . S
C1858 C1859 1.349 . S
C1858 C1860 1.327 . S
C1858 H1883 0.950 . S
C1859 C1858 1.349 . S
C1859 C1875 1.349 . S
C1860 C1858 1.327 . S
C1860 C1879 1.429 . S
C1860 H1884 0.950 . S
C1861 C1878 1.574 . S
C1861 C1880 1.368 . S
C1861 H1885 0.949 . S
H1862 C1866 0.949 . S
C1863 C1864 1.349 . S
C1863 C1865 1.327 . S
C1863 H1886 0.950 . S
C1864 C1863 1.349 . S
C1864 C1876 1.349 . S
C1865 C1863 1.327 . S
C1865 C1881 1.429 . S
C1865 H1887 0.950 . S
C1866 H1862 0.949 . S
C1866 C1874 1.574 . S
C1866 C1882 1.368 . S
H1867 C1875 0.950 . S
H1868 C1873 0.950 . S
H1869 C1874 0.949 . S
H1870 C1876 0.950 . S
H1871 C1877 0.950 . S
H1872 C1878 0.949 . S
C1873 H1868 0.950 . S
C1873 C1875 1.327 . S
C1873 C1879 1.429 . S
C1874 C1866 1.574 . S
C1874 H1869 0.949 . S
C1874 C1880 1.368 . S
C1875 C1859 1.349 . S
C1875 H1867 0.950 . S
C1875 C1873 1.327 . S
C1876 C1864 1.349 . S
C1876 H1870 0.950 . S
C1876 C1877 1.327 . S
C1877 H1871 0.950 . S
C1877 C1876 1.327 . S
C1877 C1881 1.429 . S
C1878 C1861 1.574 . S
C1878 H1872 0.949 . S
C1878 C1882 1.368 . S
C1879 C1860 1.429 . S
C1879 C1873 1.429 . S
C1879 C1880 1.523 . S
C1880 C1861 1.368 . S
C1880 C1874 1.368 . S
C1880 C1879 1.523 . S
C1881 C1865 1.429 . S
C1881 C1877 1.429 . S
C1881 C1882 1.523 . S
C1882 C1866 1.368 . S
C1882 C1878 1.368 . S
C1882 C1881 1.523 . S
H1883 C1858 0.950 . S
H1884 C1860 0.950 . S
H1885 C1861 0.949 . S
H1886 C1863 0.950 . S
H1887 C1865 0.950 . S
C1888 C1889 1.349 . S
C1888 C1890 1.327 . S
C1888 H1913 0.950 . S
C1889 C1888 1.349 . S
C1889 C1905 1.349 . S
C1890 C1888 1.327 . S
C1890 C1909 1.429 . S
C1890 H1914 0.950 . S
C1891 C1908 1.574 . S
C1891 C1910 1.368 . S
C1891 H1915 0.949 . S
H1892 C1896 0.949 . S
C1893 C1894 1.349 1_565 S
C1893 C1895 1.327 . S
C1893 H1916 0.950 1_565 S
C1894 C1893 1.349 1_545 S
C1894 C1906 1.349 . S
C1895 C1893 1.327 . S
C1895 C1911 1.429 . S
C1895 H1917 0.950 . S
C1896 H1892 0.949 . S
C1896 C1904 1.574 . S
C1896 C1912 1.368 . S
H1897 C1905 0.950 . S
H1898 C1903 0.950 . S
H1899 C1904 0.949 . S
H1900 C1906 0.950 . S
H1901 C1907 0.950 . S
H1902 C1908 0.949 . S
C1903 H1898 0.950 . S
C1903 C1905 1.327 . S
C1903 C1909 1.429 . S
C1904 C1896 1.574 . S
C1904 H1899 0.949 . S
C1904 C1910 1.368 . S
C1905 C1889 1.349 . S
C1905 H1897 0.950 . S
C1905 C1903 1.327 . S
C1906 C1894 1.349 . S
C1906 H1900 0.950 . S
C1906 C1907 1.327 1_545 S
C1907 H1901 0.950 . S
C1907 C1906 1.327 1_565 S
C1907 C1911 1.429 . S
C1908 C1891 1.574 . S
C1908 H1902 0.949 . S
C1908 C1912 1.368 . S
C1909 C1890 1.429 . S
C1909 C1903 1.429 . S
C1909 C1910 1.523 . S
C1910 C1891 1.368 . S
C1910 C1904 1.368 . S
C1910 C1909 1.523 . S
C1911 C1895 1.429 . S
C1911 C1907 1.429 . S
C1911 C1912 1.523 . S
C1912 C1896 1.368 . S
C1912 C1908 1.368 . S
C1912 C1911 1.523 . S
H1913 C1888 0.950 . S
H1914 C1890 0.950 . S
H1915 C1891 0.949 . S
H1916 C1893 0.950 1_545 S
H1917 C1895 0.950 . S
C1918 C1919 1.349 . S
C1918 C1920 1.327 . S
C1918 H1943 0.950 . S
C1919 C1918 1.349 . S
C1919 C1935 1.349 . S
C1920 C1918 1.327 . S
C1920 C1939 1.429 . S
C1920 H1944 0.950 . S
C1921 C1938 1.574 . S
C1921 C1940 1.368 . S
C1921 H1945 0.949 . S
H1922 C1926 0.949 . S
C1923 C1924 1.349 . S
C1923 C1925 1.327 . S
C1923 H1946 0.950 . S
C1924 C1923 1.349 . S
C1924 C1936 1.349 . S
C1925 C1923 1.327 . S
C1925 C1941 1.429 . S
C1925 H1947 0.950 . S
C1926 H1922 0.949 . S
C1926 C1934 1.574 . S
C1926 C1942 1.368 . S
H1927 C1935 0.950 . S
H1928 C1933 0.950 . S
H1929 C1934 0.949 . S
H1930 C1936 0.950 . S
H1931 C1937 0.950 . S
H1932 C1938 0.949 . S
C1933 H1928 0.950 . S
C1933 C1935 1.327 . S
C1933 C1939 1.429 . S
C1934 C1926 1.574 . S
C1934 H1929 0.949 . S
C1934 C1940 1.368 . S
C1935 C1919 1.349 . S
C1935 H1927 0.950 . S
C1935 C1933 1.327 . S
C1936 C1924 1.349 . S
C1936 H1930 0.950 . S
C1936 C1937 1.327 . S
C1937 H1931 0.950 . S
C1937 C1936 1.327 . S
C1937 C1941 1.429 . S
C1938 C1921 1.574 . S
C1938 H1932 0.949 . S
C1938 C1942 1.368 . S
C1939 C1920 1.429 . S
C1939 C1933 1.429 . S
C1939 C1940 1.523 . S
C1940 C1921 1.368 . S
C1940 C1934 1.368 . S
C1940 C1939 1.523 . S
C1941 C1925 1.429 . S
C1941 C1937 1.429 . S
C1941 C1942 1.523 . S
C1942 C1926 1.368 . S
C1942 C1938 1.368 . S
C1942 C1941 1.523 . S
H1943 C1918 0.950 . S
H1944 C1920 0.950 . S
H1945 C1921 0.949 . S
H1946 C1923 0.950 . S
H1947 C1925 0.950 . S
C1948 C1949 1.349 . S
C1948 C1950 1.327 . S
C1948 H1973 0.950 . S
C1949 C1948 1.349 . S
C1949 C1965 1.349 . S
C1950 C1948 1.327 . S
C1950 C1969 1.429 . S
C1950 H1974 0.950 . S
C1951 C1968 1.574 . S
C1951 C1970 1.368 . S
C1951 H1975 0.949 . S
H1952 C1956 0.949 . S
C1953 C1954 1.349 . S
C1953 C1955 1.327 . S
C1953 H1976 0.950 . S
C1954 C1953 1.349 . S
C1954 C1966 1.349 . S
C1955 C1953 1.327 . S
C1955 C1971 1.429 . S
C1955 H1977 0.950 . S
C1956 H1952 0.949 . S
C1956 C1964 1.574 . S
C1956 C1972 1.368 . S
H1957 C1965 0.950 . S
H1958 C1963 0.950 . S
H1959 C1964 0.949 . S
H1960 C1966 0.950 . S
H1961 C1967 0.950 . S
H1962 C1968 0.949 . S
C1963 H1958 0.950 . S
C1963 C1965 1.327 . S
C1963 C1969 1.429 . S
C1964 C1956 1.574 . S
C1964 H1959 0.949 . S
C1964 C1970 1.368 . S
C1965 C1949 1.349 . S
C1965 H1957 0.950 . S
C1965 C1963 1.327 . S
C1966 C1954 1.349 . S
C1966 H1960 0.950 . S
C1966 C1967 1.327 . S
C1967 H1961 0.950 . S
C1967 C1966 1.327 . S
C1967 C1971 1.429 . S
C1968 C1951 1.574 . S
C1968 H1962 0.949 . S
C1968 C1972 1.368 . S
C1969 C1950 1.429 . S
C1969 C1963 1.429 . S
C1969 C1970 1.523 . S
C1970 C1951 1.368 . S
C1970 C1964 1.368 . S
C1970 C1969 1.523 . S
C1971 C1955 1.429 . S
C1971 C1967 1.429 . S
C1971 C1972 1.523 . S
C1972 C1956 1.368 . S
C1972 C1968 1.368 . S
C1972 C1971 1.523 . S
H1973 C1948 0.950 . S
H1974 C1950 0.950 . S
H1975 C1951 0.949 . S
H1976 C1953 0.950 . S
H1977 C1955 0.950 . S
C1978 C1979 1.349 1_565 S
C1978 C1980 1.327 . S
C1978 H2003 0.950 . S
C1979 C1978 1.349 1_545 S
C1979 C1995 1.349 . S
C1980 C1978 1.327 . S
C1980 C1999 1.429 . S
C1980 H2004 0.950 . S
C1981 C1998 1.574 . S
C1981 C2000 1.368 . S
C1981 H2005 0.949 . S
H1982 C1986 0.949 . S
C1983 C1984 1.349 . S
C1983 C1985 1.327 . S
C1983 H2006 0.950 . S
C1984 C1983 1.349 . S
C1984 C1996 1.349 . S
C1985 C1983 1.327 . S
C1985 C2001 1.429 . S
C1985 H2007 0.950 . S
C1986 H1982 0.949 . S
C1986 C1994 1.574 . S
C1986 C2002 1.368 . S
H1987 C1995 0.950 . S
H1988 C1993 0.950 . S
H1989 C1994 0.949 . S
H1990 C1996 0.950 . S
H1991 C1997 0.950 . S
H1992 C1998 0.949 . S
C1993 H1988 0.950 . S
C1993 C1995 1.327 1_565 S
C1993 C1999 1.429 . S
C1994 C1986 1.574 . S
C1994 H1989 0.949 . S
C1994 C2000 1.368 . S
C1995 C1979 1.349 . S
C1995 H1987 0.950 . S
C1995 C1993 1.327 1_545 S
C1996 C1984 1.349 . S
C1996 H1990 0.950 . S
C1996 C1997 1.327 . S
C1997 H1991 0.950 . S
C1997 C1996 1.327 . S
C1997 C2001 1.429 . S
C1998 C1981 1.574 . S
C1998 H1992 0.949 . S
C1998 C2002 1.368 . S
C1999 C1980 1.429 . S
C1999 C1993 1.429 . S
C1999 C2000 1.523 . S
C2000 C1981 1.368 . S
C2000 C1994 1.368 . S
C2000 C1999 1.523 . S
C2001 C1985 1.429 . S
C2001 C1997 1.429 . S
C2001 C2002 1.523 . S
C2002 C1986 1.368 . S
C2002 C1998 1.368 . S
C2002 C2001 1.523 . S
H2003 C1978 0.950 . S
H2004 C1980 0.950 . S
H2005 C1981 0.949 . S
H2006 C1983 0.950 . S
H2007 C1985 0.950 . S
C2008 C2009 1.349 . S
C2008 C2010 1.327 . S
C2008 H2033 0.950 . S
C2009 C2008 1.349 . S
C2009 C2025 1.349 . S
C2010 C2008 1.327 . S
C2010 C2029 1.429 . S
C2010 H2034 0.950 . S
C2011 C2028 1.574 . S
C2011 C2030 1.368 . S
C2011 H2035 0.949 . S
H2012 C2016 0.949 . S
C2013 C2014 1.349 . S
C2013 C2015 1.327 1_565 S
C2013 H2036 0.950 . S
C2014 C2013 1.349 . S
C2014 C2026 1.349 . S
C2015 C2013 1.327 1_545 S
C2015 C2031 1.429 . S
C2015 H2037 0.950 . S
C2016 H2012 0.949 . S
C2016 C2024 1.574 . S
C2016 C2032 1.368 . S
H2017 C2025 0.950 . S
H2018 C2023 0.950 . S
H2019 C2024 0.949 . S
H2020 C2026 0.950 . S
H2021 C2027 0.950 . S
H2022 C2028 0.949 . S
C2023 H2018 0.950 . S
C2023 C2025 1.327 . S
C2023 C2029 1.429 . S
C2024 C2016 1.574 . S
C2024 H2019 0.949 . S
C2024 C2030 1.368 . S
C2025 C2009 1.349 . S
C2025 H2017 0.950 . S
C2025 C2023 1.327 . S
C2026 C2014 1.349 . S
C2026 H2020 0.950 . S
C2026 C2027 1.327 1_565 S
C2027 H2021 0.950 . S
C2027 C2026 1.327 1_545 S
C2027 C2031 1.429 . S
C2028 C2011 1.574 . S
C2028 H2022 0.949 . S
C2028 C2032 1.368 . S
C2029 C2010 1.429 . S
C2029 C2023 1.429 . S
C2029 C2030 1.523 . S
C2030 C2011 1.368 . S
C2030 C2024 1.368 . S
C2030 C2029 1.523 . S
C2031 C2015 1.429 . S
C2031 C2027 1.429 . S
C2031 C2032 1.523 . S
C2032 C2016 1.368 . S
C2032 C2028 1.368 . S
C2032 C2031 1.523 . S
H2033 C2008 0.950 . S
H2034 C2010 0.950 . S
H2035 C2011 0.949 . S
H2036 C2013 0.950 . S
H2037 C2015 0.950 . S
C2038 C2039 1.349 . S
C2038 C2040 1.327 . S
C2038 H2063 0.950 . S
C2039 C2038 1.349 . S
C2039 C2055 1.349 . S
C2040 C2038 1.327 . S
C2040 C2059 1.429 . S
C2040 H2064 0.950 . S
C2041 C2058 1.574 . S
C2041 C2060 1.368 . S
C2041 H2065 0.949 . S
H2042 C2046 0.949 . S
C2043 C2044 1.349 . S
C2043 C2045 1.327 . S
C2043 H2066 0.950 . S
C2044 C2043 1.349 . S
C2044 C2056 1.349 . S
C2045 C2043 1.327 . S
C2045 C2061 1.429 . S
C2045 H2067 0.950 . S
C2046 H2042 0.949 . S
C2046 C2054 1.574 . S
C2046 C2062 1.368 . S
H2047 C2055 0.950 . S
H2048 C2053 0.950 . S
H2049 C2054 0.949 . S
H2050 C2056 0.950 . S
H2051 C2057 0.950 . S
H2052 C2058 0.949 . S
C2053 H2048 0.950 . S
C2053 C2055 1.327 . S
C2053 C2059 1.429 . S
C2054 C2046 1.574 . S
C2054 H2049 0.949 . S
C2054 C2060 1.368 . S
C2055 C2039 1.349 . S
C2055 H2047 0.950 . S
C2055 C2053 1.327 . S
C2056 C2044 1.349 . S
C2056 H2050 0.950 . S
C2056 C2057 1.327 . S
C2057 H2051 0.950 . S
C2057 C2056 1.327 . S
C2057 C2061 1.429 . S
C2058 C2041 1.574 . S
C2058 H2052 0.949 . S
C2058 C2062 1.368 . S
C2059 C2040 1.429 . S
C2059 C2053 1.429 . S
C2059 C2060 1.523 . S
C2060 C2041 1.368 . S
C2060 C2054 1.368 . S
C2060 C2059 1.523 . S
C2061 C2045 1.429 . S
C2061 C2057 1.429 . S
C2061 C2062 1.523 . S
C2062 C2046 1.368 . S
C2062 C2058 1.368 . S
C2062 C2061 1.523 . S
H2063 C2038 0.950 . S
H2064 C2040 0.950 . S
H2065 C2041 0.949 . S
H2066 C2043 0.950 . S
H2067 C2045 0.950 . S
C2068 C2069 1.349 . S
C2068 C2070 1.327 . S
C2068 H2093 0.950 . S
C2069 C2068 1.349 . S
C2069 C2085 1.349 . S
C2070 C2068 1.327 . S
C2070 C2089 1.429 . S
C2070 H2094 0.950 . S
C2071 C2088 1.574 . S
C2071 C2090 1.368 . S
C2071 H2095 0.949 . S
H2072 C2076 0.949 . S
C2073 C2074 1.349 . S
C2073 C2075 1.327 . S
C2073 H2096 0.950 . S
C2074 C2073 1.349 . S
C2074 C2086 1.349 . S
C2075 C2073 1.327 . S
C2075 C2091 1.429 . S
C2075 H2097 0.950 . S
C2076 H2072 0.949 . S
C2076 C2084 1.574 . S
C2076 C2092 1.368 . S
H2077 C2085 0.950 . S
H2078 C2083 0.950 . S
H2079 C2084 0.949 . S
H2080 C2086 0.950 . S
H2081 C2087 0.950 . S
H2082 C2088 0.949 . S
C2083 H2078 0.950 . S
C2083 C2085 1.327 . S
C2083 C2089 1.429 . S
C2084 C2076 1.574 . S
C2084 H2079 0.949 . S
C2084 C2090 1.368 . S
C2085 C2069 1.349 . S
C2085 H2077 0.950 . S
C2085 C2083 1.327 . S
C2086 C2074 1.349 . S
C2086 H2080 0.950 . S
C2086 C2087 1.327 . S
C2087 H2081 0.950 . S
C2087 C2086 1.327 . S
C2087 C2091 1.429 . S
C2088 C2071 1.574 . S
C2088 H2082 0.949 . S
C2088 C2092 1.368 . S
C2089 C2070 1.429 . S
C2089 C2083 1.429 . S
C2089 C2090 1.523 . S
C2090 C2071 1.368 . S
C2090 C2084 1.368 . S
C2090 C2089 1.523 . S
C2091 C2075 1.429 . S
C2091 C2087 1.429 . S
C2091 C2092 1.523 . S
C2092 C2076 1.368 . S
C2092 C2088 1.368 . S
C2092 C2091 1.523 . S
H2093 C2068 0.950 . S
H2094 C2070 0.950 . S
H2095 C2071 0.949 . S
H2096 C2073 0.950 . S
H2097 C2075 0.950 . S
C2098 C2099 1.349 . S
C2098 C2100 1.327 . S
C2098 H2123 0.950 . S
C2099 C2098 1.349 . S
C2099 C2115 1.349 . S
C2100 C2098 1.327 . S
C2100 C2119 1.429 . S
C2100 H2124 0.950 . S
C2101 C2118 1.574 . S
C2101 C2120 1.368 . S
C2101 H2125 0.949 . S
H2102 C2106 0.949 . S
C2103 C2104 1.349 1_545 S
C2103 C2105 1.327 . S
C2103 H2126 0.950 1_545 S
C2104 C2103 1.349 1_565 S
C2104 C2116 1.349 . S
C2105 C2103 1.327 . S
C2105 C2121 1.429 . S
C2105 H2127 0.950 . S
C2106 H2102 0.949 . S
C2106 C2114 1.574 . S
C2106 C2122 1.368 . S
H2107 C2115 0.950 . S
H2108 C2113 0.950 . S
H2109 C2114 0.949 . S
H2110 C2116 0.950 . S
H2111 C2117 0.950 . S
H2112 C2118 0.949 . S
C2113 H2108 0.950 . S
C2113 C2115 1.327 . S
C2113 C2119 1.429 . S
C2114 C2106 1.574 . S
C2114 H2109 0.949 . S
C2114 C2120 1.368 . S
C2115 C2099 1.349 . S
C2115 H2107 0.950 . S
C2115 C2113 1.327 . S
C2116 C2104 1.349 . S
C2116 H2110 0.950 . S
C2116 C2117 1.327 1_565 S
C2117 H2111 0.950 . S
C2117 C2116 1.327 1_545 S
C2117 C2121 1.429 . S
C2118 C2101 1.574 . S
C2118 H2112 0.949 . S
C2118 C2122 1.368 . S
C2119 C2100 1.429 . S
C2119 C2113 1.429 . S
C2119 C2120 1.523 . S
C2120 C2101 1.368 . S
C2120 C2114 1.368 . S
C2120 C2119 1.523 . S
C2121 C2105 1.429 . S
C2121 C2117 1.429 . S
C2121 C2122 1.523 . S
C2122 C2106 1.368 . S
C2122 C2118 1.368 . S
C2122 C2121 1.523 . S
H2123 C2098 0.950 . S
H2124 C2100 0.950 . S
H2125 C2101 0.949 . S
H2126 C2103 0.950 1_565 S
H2127 C2105 0.950 . S
C2128 C2129 1.349 . S
C2128 C2130 1.327 . S
C2128 H2153 0.950 . S
C2129 C2128 1.349 . S
C2129 C2145 1.349 . S
C2130 C2128 1.327 . S
C2130 C2149 1.429 . S
C2130 H2154 0.950 . S
C2131 C2148 1.574 . S
C2131 C2150 1.368 . S
C2131 H2155 0.949 . S
H2132 C2136 0.949 . S
C2133 C2134 1.349 . S
C2133 C2135 1.327 1_545 S
C2133 H2156 0.950 . S
C2134 C2133 1.349 . S
C2134 C2146 1.349 1_545 S
C2135 C2133 1.327 1_565 S
C2135 C2151 1.429 . S
C2135 H2157 0.950 . S
C2136 H2132 0.949 . S
C2136 C2144 1.574 . S
C2136 C2152 1.368 . S
H2137 C2145 0.950 . S
H2138 C2143 0.950 . S
H2139 C2144 0.949 . S
H2140 C2146 0.950 . S
H2141 C2147 0.950 . S
H2142 C2148 0.949 . S
C2143 H2138 0.950 . S
C2143 C2145 1.327 . S
C2143 C2149 1.429 . S
C2144 C2136 1.574 . S
C2144 H2139 0.949 . S
C2144 C2150 1.368 . S
C2145 C2129 1.349 . S
C2145 H2137 0.950 . S
C2145 C2143 1.327 . S
C2146 C2134 1.349 1_565 S
C2146 H2140 0.950 . S
C2146 C2147 1.327 . S
C2147 H2141 0.950 . S
C2147 C2146 1.327 . S
C2147 C2151 1.429 . S
C2148 C2131 1.574 . S
C2148 H2142 0.949 . S
C2148 C2152 1.368 . S
C2149 C2130 1.429 . S
C2149 C2143 1.429 . S
C2149 C2150 1.523 . S
C2150 C2131 1.368 . S
C2150 C2144 1.368 . S
C2150 C2149 1.523 . S
C2151 C2135 1.429 . S
C2151 C2147 1.429 . S
C2151 C2152 1.523 . S
C2152 C2136 1.368 . S
C2152 C2148 1.368 . S
C2152 C2151 1.523 . S
H2153 C2128 0.950 . S
H2154 C2130 0.950 . S
H2155 C2131 0.949 . S
H2156 C2133 0.950 . S
H2157 C2135 0.950 . S
C2158 C2159 1.349 . S
C2158 C2160 1.327 . S
C2158 H2183 0.950 . S
C2159 C2158 1.349 . S
C2159 C2175 1.349 . S
C2160 C2158 1.327 . S
C2160 C2179 1.429 . S
C2160 H2184 0.950 . S
C2161 C2178 1.574 . S
C2161 C2180 1.368 . S
C2161 H2185 0.949 . S
H2162 C2166 0.949 . S
C2163 C2164 1.349 . S
C2163 C2165 1.327 . S
C2163 H2186 0.950 . S
C2164 C2163 1.349 . S
C2164 C2176 1.349 . S
C2165 C2163 1.327 . S
C2165 C2181 1.429 . S
C2165 H2187 0.950 . S
C2166 H2162 0.949 . S
C2166 C2174 1.574 . S
C2166 C2182 1.368 . S
H2167 C2175 0.950 . S
H2168 C2173 0.950 . S
H2169 C2174 0.949 . S
H2170 C2176 0.950 . S
H2171 C2177 0.950 . S
H2172 C2178 0.949 . S
C2173 H2168 0.950 . S
C2173 C2175 1.327 . S
C2173 C2179 1.429 . S
C2174 C2166 1.574 . S
C2174 H2169 0.949 . S
C2174 C2180 1.368 . S
C2175 C2159 1.349 . S
C2175 H2167 0.950 . S
C2175 C2173 1.327 . S
C2176 C2164 1.349 . S
C2176 H2170 0.950 . S
C2176 C2177 1.327 . S
C2177 H2171 0.950 . S
C2177 C2176 1.327 . S
C2177 C2181 1.429 . S
C2178 C2161 1.574 . S
C2178 H2172 0.949 . S
C2178 C2182 1.368 . S
C2179 C2160 1.429 . S
C2179 C2173 1.429 . S
C2179 C2180 1.523 . S
C2180 C2161 1.368 . S
C2180 C2174 1.368 . S
C2180 C2179 1.523 . S
C2181 C2165 1.429 . S
C2181 C2177 1.429 . S
C2181 C2182 1.523 . S
C2182 C2166 1.368 . S
C2182 C2178 1.368 . S
C2182 C2181 1.523 . S
H2183 C2158 0.950 . S
H2184 C2160 0.950 . S
H2185 C2161 0.949 . S
H2186 C2163 0.950 . S
H2187 C2165 0.950 . S
C2188 C2189 1.349 . S
C2188 C2190 1.327 . S
C2188 H2213 0.950 . S
C2189 C2188 1.349 . S
C2189 C2205 1.349 . S
C2190 C2188 1.327 . S
C2190 C2209 1.429 . S
C2190 H2214 0.950 . S
C2191 C2208 1.574 . S
C2191 C2210 1.368 . S
C2191 H2215 0.949 . S
H2192 C2196 0.949 . S
C2193 C2194 1.349 . S
C2193 C2195 1.327 . S
C2193 H2216 0.950 . S
C2194 C2193 1.349 . S
C2194 C2206 1.349 . S
C2195 C2193 1.327 . S
C2195 C2211 1.429 . S
C2195 H2217 0.950 . S
C2196 H2192 0.949 . S
C2196 C2204 1.574 . S
C2196 C2212 1.368 . S
H2197 C2205 0.950 . S
H2198 C2203 0.950 . S
H2199 C2204 0.949 . S
H2200 C2206 0.950 . S
H2201 C2207 0.950 . S
H2202 C2208 0.949 . S
C2203 H2198 0.950 . S
C2203 C2205 1.327 . S
C2203 C2209 1.429 . S
C2204 C2196 1.574 . S
C2204 H2199 0.949 . S
C2204 C2210 1.368 . S
C2205 C2189 1.349 . S
C2205 H2197 0.950 . S
C2205 C2203 1.327 . S
C2206 C2194 1.349 . S
C2206 H2200 0.950 . S
C2206 C2207 1.327 . S
C2207 H2201 0.950 . S
C2207 C2206 1.327 . S
C2207 C2211 1.429 . S
C2208 C2191 1.574 . S
C2208 H2202 0.949 . S
C2208 C2212 1.368 . S
C2209 C2190 1.429 . S
C2209 C2203 1.429 . S
C2209 C2210 1.523 . S
C2210 C2191 1.368 . S
C2210 C2204 1.368 . S
C2210 C2209 1.523 . S
C2211 C2195 1.429 . S
C2211 C2207 1.429 . S
C2211 C2212 1.523 . S
C2212 C2196 1.368 . S
C2212 C2208 1.368 . S
C2212 C2211 1.523 . S
H2213 C2188 0.950 . S
H2214 C2190 0.950 . S
H2215 C2191 0.949 . S
H2216 C2193 0.950 . S
H2217 C2195 0.950 . S
C2218 C2219 1.349 1_565 S
C2218 C2220 1.327 . S
C2218 H2243 0.950 . S
C2219 C2218 1.349 1_545 S
C2219 C2235 1.349 . S
C2220 C2218 1.327 . S
C2220 C2239 1.429 . S
C2220 H2244 0.950 . S
C2221 C2238 1.574 . S
C2221 C2240 1.368 . S
C2221 H2245 0.949 . S
H2222 C2226 0.949 . S
C2223 C2224 1.349 . S
C2223 C2225 1.327 . S
C2223 H2246 0.950 . S
C2224 C2223 1.349 . S
C2224 C2236 1.349 . S
C2225 C2223 1.327 . S
C2225 C2241 1.429 . S
C2225 H2247 0.950 . S
C2226 H2222 0.949 . S
C2226 C2234 1.574 . S
C2226 C2242 1.368 . S
H2227 C2235 0.950 . S
H2228 C2233 0.950 . S
H2229 C2234 0.949 . S
H2230 C2236 0.950 . S
H2231 C2237 0.950 . S
H2232 C2238 0.949 . S
C2233 H2228 0.950 . S
C2233 C2235 1.327 1_565 S
C2233 C2239 1.429 . S
C2234 C2226 1.574 . S
C2234 H2229 0.949 . S
C2234 C2240 1.368 . S
C2235 C2219 1.349 . S
C2235 H2227 0.950 . S
C2235 C2233 1.327 1_545 S
C2236 C2224 1.349 . S
C2236 H2230 0.950 . S
C2236 C2237 1.327 . S
C2237 H2231 0.950 . S
C2237 C2236 1.327 . S
C2237 C2241 1.429 . S
C2238 C2221 1.574 . S
C2238 H2232 0.949 . S
C2238 C2242 1.368 . S
C2239 C2220 1.429 . S
C2239 C2233 1.429 . S
C2239 C2240 1.523 . S
C2240 C2221 1.368 . S
C2240 C2234 1.368 . S
C2240 C2239 1.523 . S
C2241 C2225 1.429 . S
C2241 C2237 1.429 . S
C2241 C2242 1.523 . S
C2242 C2226 1.368 . S
C2242 C2238 1.368 . S
C2242 C2241 1.523 . S
H2243 C2218 0.950 . S
H2244 C2220 0.950 . S
H2245 C2221 0.949 . S
H2246 C2223 0.950 . S
H2247 C2225 0.950 . S
C2248 C2249 1.349 . S
C2248 C2250 1.327 . S
C2248 H2273 0.950 . S
C2249 C2248 1.349 . S
C2249 C2265 1.349 . S
C2250 C2248 1.327 . S
C2250 C2269 1.429 . S
C2250 H2274 0.950 . S
C2251 C2268 1.574 . S
C2251 C2270 1.368 . S
C2251 H2275 0.949 . S
H2252 C2256 0.949 . S
C2253 C2254 1.349 . S
C2253 C2255 1.327 1_565 S
C2253 H2276 0.950 . S
C2254 C2253 1.349 . S
C2254 C2266 1.349 1_565 S
C2255 C2253 1.327 1_545 S
C2255 C2271 1.429 . S
C2255 H2277 0.950 . S
C2256 H2252 0.949 . S
C2256 C2264 1.574 . S
C2256 C2272 1.368 . S
H2257 C2265 0.950 . S
H2258 C2263 0.950 . S
H2259 C2264 0.949 . S
H2260 C2266 0.950 . S
H2261 C2267 0.950 . S
H2262 C2268 0.949 . S
C2263 H2258 0.950 . S
C2263 C2265 1.327 . S
C2263 C2269 1.429 . S
C2264 C2256 1.574 . S
C2264 H2259 0.949 . S
C2264 C2270 1.368 . S
C2265 C2249 1.349 . S
C2265 H2257 0.950 . S
C2265 C2263 1.327 . S
C2266 C2254 1.349 1_545 S
C2266 H2260 0.950 . S
C2266 C2267 1.327 . S
C2267 H2261 0.950 . S
C2267 C2266 1.327 . S
C2267 C2271 1.429 . S
C2268 C2251 1.574 . S
C2268 H2262 0.949 . S
C2268 C2272 1.368 . S
C2269 C2250 1.429 . S
C2269 C2263 1.429 . S
C2269 C2270 1.523 . S
C2270 C2251 1.368 . S
C2270 C2264 1.368 . S
C2270 C2269 1.523 . S
C2271 C2255 1.429 . S
C2271 C2267 1.429 . S
C2271 C2272 1.523 . S
C2272 C2256 1.368 . S
C2272 C2268 1.368 . S
C2272 C2271 1.523 . S
H2273 C2248 0.950 . S
H2274 C2250 0.950 . S
H2275 C2251 0.949 . S
H2276 C2253 0.950 . S
H2277 C2255 0.950 . S
C2278 C2279 1.349 . S
C2278 C2280 1.327 . S
C2278 H2303 0.950 . S
C2279 C2278 1.349 . S
C2279 C2295 1.349 . S
C2280 C2278 1.327 . S
C2280 C2299 1.429 . S
C2280 H2304 0.950 . S
C2281 C2298 1.574 . S
C2281 C2300 1.368 . S
C2281 H2305 0.949 . S
H2282 C2286 0.949 . S
C2283 C2284 1.349 . S
C2283 C2285 1.327 . S
C2283 H2306 0.950 . S
C2284 C2283 1.349 . S
C2284 C2296 1.349 . S
C2285 C2283 1.327 . S
C2285 C2301 1.429 . S
C2285 H2307 0.950 . S
C2286 H2282 0.949 . S
C2286 C2294 1.574 . S
C2286 C2302 1.368 . S
H2287 C2295 0.950 . S
H2288 C2293 0.950 . S
H2289 C2294 0.949 . S
H2290 C2296 0.950 . S
H2291 C2297 0.950 . S
H2292 C2298 0.949 . S
C2293 H2288 0.950 . S
C2293 C2295 1.327 . S
C2293 C2299 1.429 . S
C2294 C2286 1.574 . S
C2294 H2289 0.949 . S
C2294 C2300 1.368 . S
C2295 C2279 1.349 . S
C2295 H2287 0.950 . S
C2295 C2293 1.327 . S
C2296 C2284 1.349 . S
C2296 H2290 0.950 . S
C2296 C2297 1.327 . S
C2297 H2291 0.950 . S
C2297 C2296 1.327 . S
C2297 C2301 1.429 . S
C2298 C2281 1.574 . S
C2298 H2292 0.949 . S
C2298 C2302 1.368 . S
C2299 C2280 1.429 . S
C2299 C2293 1.429 . S
C2299 C2300 1.523 . S
C2300 C2281 1.368 . S
C2300 C2294 1.368 . S
C2300 C2299 1.523 . S
C2301 C2285 1.429 . S
C2301 C2297 1.429 . S
C2301 C2302 1.523 . S
C2302 C2286 1.368 . S
C2302 C2298 1.368 . S
C2302 C2301 1.523 . S
H2303 C2278 0.950 . S
H2304 C2280 0.950 . S
H2305 C2281 0.949 . S
H2306 C2283 0.950 . S
H2307 C2285 0.950 . S
C2308 C2309 1.349 . S
C2308 C2310 1.327 . S
C2308 H2333 0.950 . S
C2309 C2308 1.349 . S
C2309 C2325 1.349 . S
C2310 C2308 1.327 . S
C2310 C2329 1.429 . S
C2310 H2334 0.950 . S
C2311 C2328 1.574 . S
C2311 C2330 1.368 . S
C2311 H2335 0.949 . S
H2312 C2316 0.949 . S
C2313 C2314 1.349 . S
C2313 C2315 1.327 . S
C2313 H2336 0.950 . S
C2314 C2313 1.349 . S
C2314 C2326 1.349 . S
C2315 C2313 1.327 . S
C2315 C2331 1.429 . S
C2315 H2337 0.950 . S
C2316 H2312 0.949 . S
C2316 C2324 1.574 . S
C2316 C2332 1.368 . S
H2317 C2325 0.950 . S
H2318 C2323 0.950 . S
H2319 C2324 0.949 . S
H2320 C2326 0.950 . S
H2321 C2327 0.950 . S
H2322 C2328 0.949 . S
C2323 H2318 0.950 . S
C2323 C2325 1.327 . S
C2323 C2329 1.429 . S
C2324 C2316 1.574 . S
C2324 H2319 0.949 . S
C2324 C2330 1.368 . S
C2325 C2309 1.349 . S
C2325 H2317 0.950 . S
C2325 C2323 1.327 . S
C2326 C2314 1.349 . S
C2326 H2320 0.950 . S
C2326 C2327 1.327 . S
C2327 H2321 0.950 . S
C2327 C2326 1.327 . S
C2327 C2331 1.429 . S
C2328 C2311 1.574 . S
C2328 H2322 0.949 . S
C2328 C2332 1.368 . S
C2329 C2310 1.429 . S
C2329 C2323 1.429 . S
C2329 C2330 1.523 . S
C2330 C2311 1.368 . S
C2330 C2324 1.368 . S
C2330 C2329 1.523 . S
C2331 C2315 1.429 . S
C2331 C2327 1.429 . S
C2331 C2332 1.523 . S
C2332 C2316 1.368 . S
C2332 C2328 1.368 . S
C2332 C2331 1.523 . S
H2333 C2308 0.950 . S
H2334 C2310 0.950 . S
H2335 C2311 0.949 . S
H2336 C2313 0.950 . S
H2337 C2315 0.950 . S
C2338 C2339 1.349 . S
C2338 C2340 1.327 1_565 S
C2338 H2363 0.950 . S
C2339 C2338 1.349 . S
C2339 C2355 1.335 1_565 S
C2340 C2338 1.327 1_545 S
C2340 C2359 1.429 . S
C2340 H2364 0.950 . S
C2341 C2358 1.574 . S
C2341 C2360 1.368 . S
C2341 H2365 0.949 . S
H2342 C2346 0.949 . S
C2343 C2344 1.349 . S
C2343 C2345 1.327 . S
C2343 H2366 0.950 . S
C2344 C2343 1.349 . S
C2344 C2356 1.349 . S
C2345 C2343 1.327 . S
C2345 C2361 1.429 . S
C2345 H2367 0.950 . S
C2346 H2342 0.949 . S
C2346 C2354 1.574 . S
C2346 C2362 1.368 . S
H2347 C2355 0.945 1_565 S
H2348 C2353 0.950 . S
H2349 C2354 0.949 . S
H2350 C2356 0.950 . S
H2351 C2357 0.950 . S
H2352 C2358 0.949 . S
C2353 H2348 0.950 . S
C2353 C2355 1.345 . S
C2353 C2359 1.429 . S
C2354 C2346 1.574 . S
C2354 H2349 0.949 . S
C2354 C2360 1.368 . S
C2355 C2339 1.335 1_545 S
C2355 H2347 0.945 1_545 S
C2355 C2353 1.345 . S
C2356 C2344 1.349 . S
C2356 H2350 0.950 . S
C2356 C2357 1.327 . S
C2357 H2351 0.950 . S
C2357 C2356 1.327 . S
C2357 C2361 1.429 . S
C2358 C2341 1.574 . S
C2358 H2352 0.949 . S
C2358 C2362 1.368 . S
C2359 C2340 1.429 . S
C2359 C2353 1.429 . S
C2359 C2360 1.523 . S
C2360 C2341 1.368 . S
C2360 C2354 1.368 . S
C2360 C2359 1.523 . S
C2361 C2345 1.429 . S
C2361 C2357 1.429 . S
C2361 C2362 1.523 . S
C2362 C2346 1.368 . S
C2362 C2358 1.368 . S
C2362 C2361 1.523 . S
H2363 C2338 0.950 . S
H2364 C2340 0.950 . S
H2365 C2341 0.949 . S
H2366 C2343 0.950 . S
H2367 C2345 0.950 . S
C449 C9 1.368 . S
C454 C23 1.368 . S
C479 C51 1.368 . S
C484 C37 1.368 . S
C509 C65 1.368 . S
C514 C79 1.368 . S
C539 C93 1.368 . S
C544 C107 1.368 . S
C569 C121 1.368 . S
C574 C135 1.368 . S
C599 C149 1.368 . S
C604 C163 1.368 . S
C629 C177 1.368 . S
C634 C191 1.368 . S
C659 C205 1.368 . S
C664 C219 1.368 . S
C689 C247 1.368 . S
C694 C233 1.368 . S
C719 C275 1.368 . S
C724 C261 1.368 . S
C749 C303 1.368 . S
C754 C289 1.368 . S
C779 C331 1.368 . S
C784 C317 1.368 . S
C809 C359 1.368 . S
C814 C345 1.368 . S
C839 C387 1.368 . S
C844 C373 1.368 . S
C869 C415 1.368 . S
C874 C401 1.368 . S
C899 C443 1.368 . S
C904 C429 1.368 . S
C929 C8 1.407 . S
C934 C176 1.407 . S
C959 C22 1.408 . S
C964 C302 1.408 . S
C989 C36 1.407 . S
C994 C92 1.407 . S
C1019 C50 1.408 . S
C1024 C442 1.408 . S
C1049 C64 1.407 . S
C1054 C120 1.407 . S
C1079 C246 1.408 . S
C1084 C78 1.408 . S
C1109 C386 1.408 . S
C1114 C106 1.408 . S
C1139 C134 1.408 . S
C1144 C414 1.408 . S
C1169 C148 1.407 . S
C1174 C204 1.407 . S
C1199 C162 1.408 . S
C1204 C330 1.408 . S
C1229 C190 1.408 . S
C1234 C358 1.408 . S
C1259 C218 1.408 . S
C1264 C274 1.408 . S
C1289 C400 1.407 . S
C1294 C232 1.407 . S
C1319 C316 1.407 . S
C1324 C260 1.407 . S
C1349 C288 1.407 . S
C1354 C344 1.407 . S
C1379 C428 1.407 . S
C1384 C372 1.407 . S
C1409 C147 0.607 . S
C1414 C7 0.607 . S
C1439 C161 0.607 . S
C1444 C21 0.607 . S
C1469 C35 0.607 . S
C1474 C119 0.607 . S
C1499 C133 0.607 . S
C1504 C49 0.607 . S
C1529 C63 0.607 . S
C1534 C203 0.607 . S
C1559 C77 0.607 . S
C1564 C217 0.607 . S
C1589 C175 0.607 . S
C1594 C91 0.607 . S
C1619 C189 0.607 . S
C1624 C105 0.607 . S
C1649 C231 0.607 . S
C1654 C371 0.607 . S
C1679 C385 0.607 . S
C1684 C245 0.607 . S
C1709 C343 0.607 . S
C1714 C259 0.607 . S
C1739 C273 0.607 . S
C1744 C357 0.607 . S
C1769 C427 0.607 . S
C1774 C287 0.607 . S
C1799 C301 0.607 . S
C1804 C441 0.607 . S
C1829 C399 0.607 . S
C1834 C315 0.607 . S
C1859 C413 0.607 . S
C1864 C329 0.607 . S
C1889 C143 1.597 . S
C1894 C3 1.597 . S
C1919 C157 1.597 . S
C1924 C17 1.597 . S
C1949 C115 1.597 . S
C1954 C31 1.597 . S
C1979 C45 1.597 . S
C1984 C129 1.597 . S
C2009 C199 1.597 . S
C2014 C59 1.597 . S
C2039 C213 1.597 . S
C2044 C73 1.597 . S
C2069 C171 1.597 . S
C2074 C87 1.597 . S
C2099 C185 1.597 . S
C2104 C101 1.597 . S
C2129 C367 1.597 . S
C2134 C227 1.597 . S
C2159 C381 1.597 . S
C2164 C241 1.597 . S
C2189 C339 1.597 . S
C2194 C255 1.597 . S
C2219 C269 1.597 . S
C2224 C353 1.597 . S
C2249 C423 1.597 . S
C2254 C283 1.597 . S
C2279 C297 1.597 . S
C2284 C437 1.597 . S
C2309 C395 1.597 . S
C2314 C311 1.597 . S
C2339 C325 1.597 . S
C2344 C409 1.597 . S
