# Generated by pormake.
# Topology wme, (6)-cn, num edge types: 1
# Building blocks:
#     Node 0, Type 0, BuildingBlock: MIDCAF_clean_sbu_0, # of connection points: 6
#     Node 1, Type 0, BuildingBlock: MIDCAF_clean_sbu_0, # of connection points: 6
#     Node 2, Type 0, BuildingBlock: MIDCAF_clean_sbu_0, # of connection points: 6
#     Node 3, Type 0, BuildingBlock: MIDCAF_clean_sbu_0, # of connection points: 6
#     Node 4, Type 0, BuildingBlock: MIDCAF_clean_sbu_0, # of connection points: 6
#     Node 5, Type 0, BuildingBlock: MIDCAF_clean_sbu_0, # of connection points: 6
#     Node 6, Type 0, BuildingBlock: MIDCAF_clean_sbu_0, # of connection points: 6
#     Node 7, Type 0, BuildingBlock: MIDCAF_clean_sbu_0, # of connection points: 6
#     Node 8, Type 0, BuildingBlock: MIDCAF_clean_sbu_0, # of connection points: 6
#     Node 9, Type 0, BuildingBlock: MIDCAF_clean_sbu_0, # of connection points: 6
#     Node 10, Type 0, BuildingBlock: MIDCAF_clean_sbu_0, # of connection points: 6
#     Node 11, Type 0, BuildingBlock: MIDCAF_clean_sbu_0, # of connection points: 6
#     Edge 12, Type (0, 0), BuildingBlock: XIVTED_clean_linker_0, # of connection points: 2
#     Edge 13, Type (0, 0), BuildingBlock: XIVTED_clean_linker_0, # of connection points: 2
#     Edge 14, Type (0, 0), BuildingBlock: XIVTED_clean_linker_0, # of connection points: 2
#     Edge 15, Type (0, 0), BuildingBlock: XIVTED_clean_linker_0, # of connection points: 2
#     Edge 16, Type (0, 0), BuildingBlock: XIVTED_clean_linker_0, # of connection points: 2
#     Edge 17, Type (0, 0), BuildingBlock: XIVTED_clean_linker_0, # of connection points: 2
#     Edge 18, Type (0, 0), BuildingBlock: XIVTED_clean_linker_0, # of connection points: 2
#     Edge 19, Type (0, 0), BuildingBlock: XIVTED_clean_linker_0, # of connection points: 2
#     Edge 20, Type (0, 0), BuildingBlock: XIVTED_clean_linker_0, # of connection points: 2
#     Edge 21, Type (0, 0), BuildingBlock: XIVTED_clean_linker_0, # of connection points: 2
#     Edge 22, Type (0, 0), BuildingBlock: XIVTED_clean_linker_0, # of connection points: 2
#     Edge 23, Type (0, 0), BuildingBlock: XIVTED_clean_linker_0, # of connection points: 2
#     Edge 24, Type (0, 0), BuildingBlock: XIVTED_clean_linker_0, # of connection points: 2
#     Edge 25, Type (0, 0), BuildingBlock: XIVTED_clean_linker_0, # of connection points: 2
#     Edge 26, Type (0, 0), BuildingBlock: XIVTED_clean_linker_0, # of connection points: 2
#     Edge 27, Type (0, 0), BuildingBlock: XIVTED_clean_linker_0, # of connection points: 2
#     Edge 28, Type (0, 0), BuildingBlock: XIVTED_clean_linker_0, # of connection points: 2
#     Edge 29, Type (0, 0), BuildingBlock: XIVTED_clean_linker_0, # of connection points: 2
#     Edge 30, Type (0, 0), BuildingBlock: XIVTED_clean_linker_0, # of connection points: 2
#     Edge 31, Type (0, 0), BuildingBlock: XIVTED_clean_linker_0, # of connection points: 2
#     Edge 32, Type (0, 0), BuildingBlock: XIVTED_clean_linker_0, # of connection points: 2
#     Edge 33, Type (0, 0), BuildingBlock: XIVTED_clean_linker_0, # of connection points: 2
#     Edge 34, Type (0, 0), BuildingBlock: XIVTED_clean_linker_0, # of connection points: 2
#     Edge 35, Type (0, 0), BuildingBlock: XIVTED_clean_linker_0, # of connection points: 2
#     Edge 36, Type (0, 0), BuildingBlock: XIVTED_clean_linker_0, # of connection points: 2
#     Edge 37, Type (0, 0), BuildingBlock: XIVTED_clean_linker_0, # of connection points: 2
#     Edge 38, Type (0, 0), BuildingBlock: XIVTED_clean_linker_0, # of connection points: 2
#     Edge 39, Type (0, 0), BuildingBlock: XIVTED_clean_linker_0, # of connection points: 2
#     Edge 40, Type (0, 0), BuildingBlock: XIVTED_clean_linker_0, # of connection points: 2
#     Edge 41, Type (0, 0), BuildingBlock: XIVTED_clean_linker_0, # of connection points: 2
#     Edge 42, Type (0, 0), BuildingBlock: XIVTED_clean_linker_0, # of connection points: 2
#     Edge 43, Type (0, 0), BuildingBlock: XIVTED_clean_linker_0, # of connection points: 2
#     Edge 44, Type (0, 0), BuildingBlock: XIVTED_clean_linker_0, # of connection points: 2
#     Edge 45, Type (0, 0), BuildingBlock: XIVTED_clean_linker_0, # of connection points: 2
#     Edge 46, Type (0, 0), BuildingBlock: XIVTED_clean_linker_0, # of connection points: 2
#     Edge 47, Type (0, 0), BuildingBlock: XIVTED_clean_linker_0, # of connection points: 2
# Relax obj value: 0.386
# Max RMSD: 0.269
# Mean RMSD: 0.269
data_MOF--net-wme--node1-MIDCAF_clean_sbu_0--edge1-XIVTED_clean_linker_0
_symmetry_space_group_name_H-M    P1
_symmetry_Int_Tables_number       1
_symmetry_cell_setting            triclinic
loop_
_symmetry_equiv_pos_as_xyz
'x, y, z'
_cell_length_a     28.541118
_cell_length_b     28.480876
_cell_length_c     59.325361
_cell_angle_alpha  90.241101
_cell_angle_beta   89.784175
_cell_angle_gamma 120.35217
loop_
_atom_site_label
_atom_site_type_symbol
_atom_site_fract_x
_atom_site_fract_y
_atom_site_fract_z
_atom_type_partial_charge
Zn0 Zn 0.16999 0.25759 0.1425 0.0
Zn1 Zn 0.25154 0.40193 0.09277 0.0
Zn2 Zn 0.21494 0.32522 0.11594 0.0
C3 C 0.16846 0.40044 0.11594 0.0
C4 C 0.33073 0.40375 0.12035 0.0
O5 O 0.27055 0.29436 0.12017 0.0
O6 O 0.1994 0.21488 0.12841 0.0
C7 C 0.10105 0.25513 0.1081 0.0
O8 O 0.18721 0.37916 0.12973 0.0
O9 O 0.1843 0.40761 0.0957 0.0
O10 O 0.31298 0.4352 0.11548 0.0
O11 O 0.30034 0.35247 0.11716 0.0
O12 O 0.10258 0.25432 0.12943 0.0
O13 O 0.14484 0.2709 0.09678 0.0
O14 O 0.1971 0.35741 0.14779 0.0
O15 O 0.20597 0.30119 0.17017 0.0
C16 C 0.20474 0.34446 0.16771 0.0
O17 O 0.18658 0.29126 0.08145 0.0
O18 O 0.25942 0.36086 0.067 0.0
C19 C 0.24792 0.24239 0.12168 0.0
C20 C 0.22113 0.31223 0.06518 0.0
Zn21 Zn 0.80678 0.26533 0.58812 0.0
Zn22 Zn 0.90203 0.1641 0.64632 0.0
Zn23 Zn 0.87577 0.20888 0.6199 0.0
C24 C 0.84828 0.203 0.67006 0.0
C25 C 0.83168 0.09432 0.61193 0.0
O26 O 0.86897 0.18165 0.58476 0.0
O27 O 0.85418 0.24374 0.56849 0.0
C28 C 0.91217 0.31371 0.61281 0.0
O29 O 0.82618 0.19297 0.65045 0.0
O30 O 0.89247 0.20359 0.67254 0.0
O31 O 0.83768 0.09679 0.63313 0.0
O32 O 0.8571 0.13792 0.60018 0.0
O33 O 0.87789 0.28152 0.59891 0.0
O34 O 0.93835 0.29481 0.62275 0.0
O35 O 0.79369 0.18733 0.63251 0.0
O36 O 0.74732 0.20497 0.60635 0.0
C37 C 0.74904 0.18128 0.62419 0.0
O38 O 0.96334 0.26365 0.62492 0.0
O39 O 0.97429 0.19397 0.63167 0.0
C40 C 0.87176 0.21039 0.56755 0.0
C41 C -0.0061 0.2427 0.62548 0.0
Zn42 Zn 0.73498 0.91399 0.14433 0.0
Zn43 Zn 0.56453 0.82086 0.09444 0.0
Zn44 Zn 0.6506 0.86987 0.11969 0.0
C45 C 0.58471 0.74077 0.10742 0.0
C46 C 0.5448 0.8739 0.13066 0.0
O47 O 0.71293 0.94415 0.10253 0.0
O48 O 0.76515 0.98763 0.13172 0.0
C49 C 0.72721 0.8208 0.12615 0.0
O50 O 0.62675 0.78352 0.11519 0.0
O51 O 0.54696 0.74441 0.09814 0.0
O52 O 0.52616 0.85134 0.11184 0.0
O53 O 0.58976 0.88002 0.13812 0.0
O54 O 0.76385 0.86636 0.13349 0.0
O55 O 0.67927 0.81228 0.12236 0.0
O56 O 0.62555 0.88144 0.15396 0.0
O57 O 0.69811 0.89912 0.17383 0.0
C58 C 0.64941 0.88807 0.17311 0.0
O59 O 0.67024 0.91504 0.08696 0.0
O60 O 0.60025 0.85764 0.06616 0.0
C61 C 0.752 0.98756 0.11146 0.0
C62 C 0.64602 0.90047 0.06769 0.0
Zn63 Zn 0.80104 0.73418 0.64874 0.0
Zn64 Zn 0.74067 0.5936 0.59532 0.0
Zn65 Zn 0.77099 0.66724 0.62033 0.0
C66 C 0.80574 0.5805 0.62379 0.0
C67 C 0.65366 0.58721 0.62074 0.0
O68 O 0.71139 0.69487 0.62032 0.0
O69 O 0.77146 0.77554 0.63359 0.0
C70 C 0.88583 0.74455 0.61976 0.0
O71 O 0.78906 0.60743 0.63543 0.0
O72 O 0.79759 0.57524 0.60281 0.0
O73 O 0.67064 0.55737 0.61267 0.0
O74 O 0.68495 0.63905 0.62096 0.0
O75 O 0.87534 0.7463 0.6404 0.0
O76 O 0.84691 0.72554 0.60539 0.0
O77 O 0.78316 0.63551 0.65291 0.0
O78 O 0.75973 0.68382 0.67412 0.0
C79 C 0.76774 0.64428 0.67216 0.0
O80 O 0.81108 0.70385 0.58711 0.0
O81 O 0.74841 0.63496 0.56752 0.0
C82 C 0.72733 0.7455 0.62346 0.0
C83 C 0.78739 0.68349 0.5681 0.0
Zn84 Zn 0.05075 0.80271 0.14723 0.0
Zn85 Zn 0.13583 0.74625 0.09469 0.0
Zn86 Zn 0.08689 0.76934 0.12011 0.0
C87 C 0.21051 0.82289 0.12214 0.0
C88 C 0.06519 0.65626 0.1212 0.0
O89 O 0.00288 0.70249 0.124 0.0
O90 O 0.97781 0.76116 0.1341 0.0
C91 C 0.11942 0.88175 0.11419 0.0
O92 O 0.16735 0.79945 0.13435 0.0
O93 O 0.20676 0.81475 0.10109 0.0
O94 O 0.11325 0.67976 0.11366 0.0
O95 O 0.0383 0.68123 0.12113 0.0
O96 O 0.10832 0.8758 0.13502 0.0
O97 O 0.09975 0.83957 0.10137 0.0
O98 O 0.13543 0.79772 0.15243 0.0
O99 O 0.06698 0.77585 0.1755 0.0
C100 C 0.116 0.78938 0.17264 0.0
O101 O 0.07825 0.79796 0.08572 0.0
O102 O 0.09096 0.73776 0.0675 0.0
C103 C 0.96549 0.71444 0.12704 0.0
C104 C 0.07296 0.77009 0.06765 0.0
Zn105 Zn 0.2544 0.08692 0.64265 0.0
Zn106 Zn 0.40751 0.1654 0.59541 0.0
Zn107 Zn 0.32658 0.11688 0.61836 0.0
C108 C 0.40245 0.23912 0.62376 0.0
C109 C 0.40426 0.07989 0.622 0.0
O110 O 0.29433 0.02844 0.62038 0.0
O111 O 0.21366 0.01962 0.62469 0.0
C112 C 0.25636 0.16181 0.61226 0.0
O113 O 0.37807 0.19521 0.63549 0.0
O114 O 0.41342 0.23656 0.60333 0.0
O115 O 0.43559 0.12854 0.6158 0.0
O116 O 0.35273 0.05826 0.61994 0.0
O117 O 0.25294 0.15418 0.63334 0.0
O118 O 0.27379 0.13685 0.5998 0.0
O119 O 0.35262 0.15869 0.65176 0.0
O120 O 0.29365 0.08641 0.67059 0.0
C121 C 0.33676 0.13212 0.67044 0.0
O122 O 0.2993 0.12123 0.58393 0.0
O123 O 0.37165 0.12924 0.56681 0.0
C124 C 0.2423 -0.00072 0.61904 0.0
C125 C 0.32284 0.11777 0.56593 0.0
Zn126 Zn 0.60328 0.76001 0.40391 0.0
Zn127 Zn 0.73654 0.80279 0.34593 0.0
Zn128 Zn 0.67117 0.77446 0.37543 0.0
C129 C 0.65222 0.78213 0.32253 0.0
C130 C 0.75176 0.88877 0.37609 0.0
O131 O 0.7158 0.81271 0.4077 0.0
O132 O 0.64727 0.76263 0.43044 0.0
C133 C 0.57911 0.66246 0.38007 0.0
O134 O 0.64488 0.79384 0.34276 0.0
O135 O 0.6879 0.76919 0.31901 0.0
O136 O 0.75344 0.87822 0.35545 0.0
O137 O 0.73231 0.84963 0.3904 0.0
O138 O 0.55693 0.68765 0.38822 0.0
O139 O 0.63084 0.68705 0.37765 0.0
O140 O 0.61782 0.79914 0.36109 0.0
O141 O 0.60111 0.82619 0.39345 0.0
C142 C 0.6012 0.82681 0.37215 0.0
O143 O 0.68694 0.70706 0.37352 0.0
O144 O 0.76937 0.76467 0.36117 0.0
C145 C 0.69769 0.79319 0.42754 0.0
C146 C 0.73641 0.71969 0.37016 0.0
Zn147 Zn 0.90376 0.72933 0.85251 0.0
Zn148 Zn 0.82743 0.56667 0.89127 0.0
Zn149 Zn 0.86784 0.65432 0.87674 0.0
C150 C 0.74851 0.5911 0.89343 0.0
C151 C 0.9155 0.5848 0.86958 0.0
O152 O 0.95473 0.69136 0.88444 0.0
O153 O 0.9777 0.76665 0.86566 0.0
C154 C 0.82886 0.73667 0.88244 0.0
O155 O 0.79283 0.63691 0.896 0.0
O156 O 0.75098 0.54999 0.88722 0.0
O157 O 0.8656 0.55192 0.8665 0.0
O158 O 0.92952 0.62937 0.88025 0.0
O159 O 0.85114 0.75255 0.86333 0.0
O160 O 0.833 0.69952 0.89311 0.0
O161 O 0.82955 0.61659 0.84503 0.0
O162 O 0.88896 0.68467 0.82438 0.0
C163 C 0.85009 0.63618 0.82577 0.0
O164 O 0.84723 0.66879 0.91061 0.0
O165 O 0.87023 0.60863 0.92001 0.0
C166 C -0.00975 0.74025 0.87894 0.0
C167 C 0.86727 0.6503 0.92523 0.0
Zn168 Zn 0.1395 0.91713 0.32595 0.0
Zn169 Zn 0.2288 0.81321 0.40279 0.0
Zn170 Zn 0.20297 0.86444 0.3742 0.0
C171 C 0.12564 0.74123 0.38363 0.0
C172 C 0.30912 0.85923 0.36843 0.0
O173 O 0.21304 0.93661 0.38862 0.0
O174 O 0.17721 0.94698 0.35751 0.0
C175 C 0.07449 0.81264 0.35087 0.0
O176 O 0.13241 0.78524 0.37498 0.0
O177 O 0.16268 0.74162 0.39541 0.0
O178 O 0.30143 0.8389 0.38793 0.0
O179 O 0.27348 0.86738 0.35911 0.0
O180 O 0.07572 0.84291 0.33473 0.0
O181 O 0.1169 0.82283 0.36256 0.0
O182 O 0.24962 0.88137 0.34326 0.0
O183 O 0.20732 0.92427 0.33749 0.0
C184 C 0.23257 0.90272 0.32912 0.0
O185 O 0.22319 0.91115 0.40658 0.0
O186 O 0.22696 0.85301 0.42997 0.0
C187 C 0.19993 0.96515 0.37653 0.0
C188 C 0.22764 0.89717 0.42675 0.0
Zn189 Zn 0.25228 0.18254 0.85255 0.0
Zn190 Zn 0.41619 0.26534 0.88808 0.0
Zn191 Zn 0.32771 0.2215 0.87716 0.0
C192 C 0.38946 0.1613 0.88546 0.0
C193 C 0.39863 0.34236 0.87661 0.0
O194 O 0.29124 0.26972 0.88723 0.0
O195 O 0.21871 0.22264 0.86603 0.0
C196 C 0.24425 0.09838 0.88148 0.0
O197 O 0.34588 0.16009 0.89208 0.0
O198 O 0.42832 0.20526 0.87794 0.0
O199 O 0.42824 0.32642 0.86751 0.0
O200 O 0.35539 0.30687 0.88685 0.0
O201 O 0.22672 0.10566 0.86303 0.0
O202 O 0.28305 0.13934 0.89194 0.0
O203 O 0.36497 0.22534 0.84488 0.0
O204 O 0.29512 0.20961 0.82399 0.0
C205 C 0.34437 0.22265 0.82555 0.0
O206 O 0.31596 0.18136 0.90932 0.0
O207 O 0.38385 0.26021 0.92034 0.0
C208 C 0.24419 0.25918 0.88065 0.0
C209 C 0.34007 0.21668 0.92515 0.0
Zn210 Zn 0.06755 0.25492 0.35316 0.0
Zn211 Zn 0.13737 0.40678 0.39655 0.0
Zn212 Zn 0.09536 0.32873 0.37543 0.0
C213 C 0.21619 0.40151 0.3728 0.0
C214 C 0.06057 0.40917 0.36977 0.0
O215 O 0.00879 0.30001 0.37302 0.0
O216 O 0.00061 0.21898 0.37191 0.0
C217 C 0.13779 0.25609 0.38427 0.0
O218 O 0.17519 0.37979 0.35939 0.0
O219 O 0.20887 0.40982 0.39309 0.0
O220 O 0.11069 0.44017 0.37358 0.0
O221 O 0.03856 0.35834 0.37427 0.0
O222 O 0.13392 0.25275 0.36304 0.0
O223 O 0.11211 0.27505 0.39525 0.0
O224 O 0.13915 0.35381 0.34225 0.0
O225 O 0.06742 0.29104 0.32439 0.0
C226 C 0.11222 0.33513 0.32377 0.0
O227 O 0.09386 0.29818 0.40993 0.0
O228 O 0.08883 0.36782 0.42276 0.0
C229 C 0.9802 0.24839 0.37614 0.0
C230 C 0.07986 0.32003 0.42561 0.0
Zn231 Zn 0.80964 0.08403 0.84882 0.0
Zn232 Zn 0.7415 0.16291 0.89615 0.0
Zn233 Zn 0.7725 0.11577 0.87537 0.0
C234 C 0.82741 0.2388 0.87251 0.0
C235 C 0.65697 0.08299 0.87301 0.0
O236 O 0.71328 0.02796 0.87434 0.0
O237 O 0.77987 0.01403 0.8647 0.0
C238 C 0.88779 0.15713 0.88005 0.0
O239 O 0.80532 0.19714 0.85924 0.0
O240 O 0.81136 0.23302 0.89266 0.0
O241 O 0.67954 0.1343 0.87394 0.0
O242 O 0.68508 0.06061 0.87774 0.0
O243 O 0.88147 0.14841 0.859 0.0
O244 O 0.84604 0.13477 0.89305 0.0
O245 O 0.7839 0.15968 0.84285 0.0
O246 O 0.76767 0.08827 0.82266 0.0
C247 C 0.76977 0.13346 0.824 0.0
O248 O 0.80512 0.1196 0.90924 0.0
O249 O 0.73244 0.11763 0.92291 0.0
C250 C 0.73295 -0.00383 0.8728 0.0
C251 C 0.7714 0.10917 0.92555 0.0
H252 H 0.11852 0.93877 0.07675 0.0
H253 H 0.30854 0.20593 0.14227 0.0
H254 H 0.21428 0.94864 0.13449 0.0
H255 H 0.23055 0.20188 0.07986 0.0
H256 H 0.29789 0.11738 0.13306 0.0
H257 H 0.17837 0.03725 0.07102 0.0
C258 C 0.15301 0.96145 0.08779 0.0
C259 C 0.16081 0.93632 0.10645 0.0
C260 C 0.28515 0.13676 0.12082 0.0
C261 C 0.22886 0.04819 0.10027 0.0
C262 C 0.29232 0.18795 0.12595 0.0
C263 C 0.27098 0.21142 0.11166 0.0
C264 C 0.25487 0.10844 0.10164 0.0
C265 C 0.24871 0.18563 0.09102 0.0
C266 C 0.18716 0.01761 0.0846 0.0
C267 C 0.20618 0.96714 0.12024 0.0
N268 N 0.23955 0.13471 0.08694 0.0
N269 N 0.23784 0.02153 0.11714 0.0
H270 H 0.18836 0.14535 0.57672 0.0
H271 H 0.09179 0.30922 0.64505 0.0
H272 H 0.28449 0.26109 0.62818 0.0
H273 H 0.01617 0.22967 0.5827 0.0
H274 H 0.17586 0.3142 0.63265 0.0
H275 H 0.13841 0.19382 0.57155 0.0
C276 C 0.20039 0.1823 0.58622 0.0
C277 C 0.23957 0.19889 0.60318 0.0
C278 C 0.14167 0.29743 0.6212 0.0
C279 C 0.18251 0.25367 0.59784 0.0
C280 C 0.09392 0.29533 0.62825 0.0
C281 C 0.04746 0.26898 0.61485 0.0
C282 C 0.14176 0.27086 0.60111 0.0
C283 C 0.05159 0.25038 0.59343 0.0
C284 C 0.1718 0.2099 0.58339 0.0
C285 C 0.25371 0.24669 0.61518 0.0
N286 N 0.09741 0.25003 0.58748 0.0
N287 N 0.22445 0.27177 0.61264 0.0
H288 H 0.81278 -0.00668 0.0752 0.0
H289 H 0.02241 0.27579 0.12089 0.0
H290 H 0.7745 0.09068 0.11875 0.0
H291 H 0.0605 0.19001 0.07084 0.0
H292 H 0.92721 0.2234 0.11018 0.0
H293 H 0.89529 0.07573 0.06307 0.0
C294 C 0.82071 0.0325 0.08141 0.0
C295 C 0.78758 0.03569 0.09808 0.0
C296 C 0.95627 0.2167 0.10105 0.0
C297 C 0.88232 0.1294 0.08512 0.0
C298 C 0.01061 0.24662 0.10722 0.0
C299 C 0.04851 0.23567 0.09715 0.0
C300 C 0.93964 0.17421 0.0853 0.0
C301 C 0.0319 0.19863 0.07924 0.0
C302 C 0.86792 0.07952 0.07463 0.0
C303 C 0.79957 0.08691 0.10594 0.0
N304 N 0.97815 0.1678 0.07432 0.0
N305 N 0.84664 0.13176 0.09975 0.0
H306 H 0.73475 0.77237 0.57958 0.0
H307 H 0.72788 0.03017 0.62453 0.0
H308 H 0.6686 0.78577 0.64287 0.0
H309 H 0.84809 0.0372 0.57838 0.0
H310 H 0.67314 0.93212 0.61847 0.0
H311 H 0.74196 0.85801 0.56731 0.0
C312 C 0.71877 0.79176 0.59033 0.0
C313 C 0.70179 0.77271 0.61232 0.0
C314 C 0.71057 0.95521 0.60906 0.0
C315 C 0.70988 0.87006 0.59862 0.0
C316 C 0.74166 0.01115 0.61242 0.0
C317 C 0.79262 0.04134 0.60208 0.0
C318 C 0.7312 0.9291 0.59567 0.0
C319 C 0.80897 0.01505 0.58666 0.0
C320 C 0.72348 0.84088 0.58345 0.0
C321 C 0.6819 0.79924 0.62578 0.0
N322 N 0.7789 0.9599 0.58433 0.0
N323 N 0.68746 0.84722 0.61889 0.0
H324 H 0.93064 0.7122 0.0853 0.0
H325 H 0.69633 0.72567 0.14814 0.0
H326 H 0.8752 0.64904 0.15175 0.0
H327 H 0.78886 0.82202 0.09136 0.0
H328 H 0.73205 0.66416 0.1415 0.0
H329 H 0.84674 0.71161 0.07846 0.0
C330 C 0.89881 0.69362 0.09774 0.0
C331 C 0.90982 0.68032 0.119 0.0
C332 C 0.74331 0.69789 0.13013 0.0
C333 C 0.81551 0.68429 0.11223 0.0
C334 C 0.72309 0.73287 0.13395 0.0
C335 C 0.74069 0.77899 0.12045 0.0
C336 C 0.78113 0.7095 0.11271 0.0
C337 C 0.77528 0.78712 0.1023 0.0
C338 C 0.85138 0.69509 0.09416 0.0
C339 C 0.86821 0.65983 0.13513 0.0
N340 N 0.79493 0.75306 0.0991 0.0
N341 N 0.82354 0.66434 0.13177 0.0
H342 H 0.93727 0.7851 0.57901 0.0
H343 H 0.21943 0.90578 0.64063 0.0
H344 H 0.96246 0.74274 0.64579 0.0
H345 H 0.19102 0.96778 0.5794 0.0
H346 H 0.13305 0.82099 0.63504 0.0
H347 H 0.03533 0.82756 0.57188 0.0
C348 C 0.96329 0.78393 0.59198 0.0
C349 C 0.94232 0.76234 0.61327 0.0
C350 C 0.14714 0.8521 0.62217 0.0
C351 C 0.05371 0.80995 0.60529 0.0
C352 C 0.19701 0.90013 0.62519 0.0
C353 C 0.21295 0.9435 0.61022 0.0
C354 C 0.11314 0.84825 0.60423 0.0
C355 C 0.18141 0.93475 0.59086 0.0
C356 C 0.01912 0.80794 0.58793 0.0
C357 C 0.97744 0.76083 0.62939 0.0
N358 N 0.13243 0.88874 0.58869 0.0
N359 N 0.03144 0.7851 0.62521 0.0
H360 H -0.00606 0.73178 0.32596 0.0
H361 H 0.78779 0.72927 0.40915 0.0
H362 H 0.03437 0.79669 0.39334 0.0
H363 H 0.74355 0.64213 0.34627 0.0
H364 H 0.87012 0.72447 0.41 0.0
H365 H 0.89959 0.67318 0.33781 0.0
C366 C 0.98287 0.73272 0.34337 0.0
C367 C 0.02122 0.76926 0.35864 0.0
C368 C 0.84141 0.7039 0.39649 0.0
C369 C 0.91348 0.70428 0.3722 0.0
C370 C 0.79328 0.70531 0.39637 0.0
C371 C 0.75887 0.6862 0.37759 0.0
C372 C 0.85548 0.68442 0.37736 0.0
C373 C 0.76933 0.65765 0.36099 0.0
C374 C 0.92916 0.69925 0.35021 0.0
C375 C 0.00552 0.76893 0.38108 0.0
N376 N 0.8178 0.65939 0.36079 0.0
N377 N 0.95246 0.73804 0.38707 0.0
H378 H 0.0874 0.76438 0.86097 0.0
H379 H 0.20058 0.04854 0.92196 0.0
H380 H 0.01349 0.7916 0.91906 0.0
H381 H 0.24801 0.02146 0.85639 0.0
H382 H 0.15518 0.94991 0.92921 0.0
H383 H 0.17042 0.85096 0.86831 0.0
C384 C 0.08987 0.78699 0.87609 0.0
C385 C 0.04382 0.77064 0.88957 0.0
C386 C 0.17675 0.9658 0.91347 0.0
C387 C 0.13712 0.87112 0.89733 0.0
C388 C 0.20251 0.02188 0.90938 0.0
C389 C 0.22658 0.04233 0.88838 0.0
C390 C 0.17582 0.93065 0.89646 0.0
C391 C 0.22858 0.00667 0.8726 0.0
C392 C 0.13692 0.83694 0.88008 0.0
C393 C 0.04855 0.80217 0.90859 0.0
N394 N 0.20293 0.95252 0.87684 0.0
N395 N 0.09378 0.85171 0.91156 0.0
H396 H 0.09918 0.17956 0.41739 0.0
H397 H 0.25851 0.06299 0.35693 0.0
H398 H 0.23844 0.27546 0.37513 0.0
H399 H 0.15693 0.98245 0.41437 0.0
H400 H 0.26191 0.14716 0.36808 0.0
H401 H 0.13042 0.11458 0.42306 0.0
C402 C 0.1377 0.18818 0.41023 0.0
C403 C 0.16594 0.23183 0.39542 0.0
C404 C 0.23977 0.11159 0.37863 0.0
C405 C 0.20091 0.15785 0.40121 0.0
C406 C 0.23768 0.06367 0.37214 0.0
C407 C 0.20744 0.01658 0.38483 0.0
C408 C 0.20976 0.11163 0.39749 0.0
C409 C 0.18078 0.0186 0.40432 0.0
C410 C 0.15532 0.15094 0.41327 0.0
C411 C 0.21528 0.24144 0.38635 0.0
N412 N 0.18164 0.06534 0.40989 0.0
N413 N 0.23065 0.20396 0.38895 0.0
H414 H 0.2197 0.33107 0.86246 0.0
H415 H 0.9351 0.15017 0.91938 0.0
H416 H 0.19521 0.23398 0.92148 0.0
H417 H 0.96602 0.24763 0.85976 0.0
H418 H 0.0329 0.20151 0.92792 0.0
H419 H 0.1334 0.32657 0.86972 0.0
C420 C 0.19747 0.31136 0.8777 0.0
C421 C 0.21429 0.28266 0.89135 0.0
C422 C 0.01804 0.21252 0.91327 0.0
C423 C 0.11363 0.27382 0.89894 0.0
C424 C 0.96231 0.18327 0.90845 0.0
C425 C 0.94305 0.1939 0.88856 0.0
C426 C 0.05415 0.25256 0.89809 0.0
C427 C 0.97965 0.23729 0.87498 0.0
C428 C 0.14754 0.30779 0.88164 0.0
C429 C 0.18349 0.25672 0.9106 0.0
N430 N 0.03341 0.26444 0.87981 0.0
N431 N 0.13362 0.25123 0.91343 0.0
H432 H 0.88826 0.21837 0.35245 0.0
H433 H 0.79143 0.94367 0.41655 0.0
H434 H 0.94669 0.20849 0.41795 0.0
H435 H 0.74255 0.96064 0.34979 0.0
H436 H 0.8256 0.04122 0.42318 0.0
H437 H 0.80903 0.12822 0.35803 0.0
C438 C 0.88265 0.19862 0.36862 0.0
C439 C 0.92433 0.22027 0.38459 0.0
C440 C 0.80647 0.02322 0.40724 0.0
C441 C 0.83603 0.11578 0.39058 0.0
C442 C 0.7873 0.96773 0.40345 0.0
C443 C 0.7663 0.94481 0.3823 0.0
C444 C 0.80393 0.05534 0.38978 0.0
C445 C 0.76053 0.97726 0.36606 0.0
C446 C 0.83799 0.14643 0.37164 0.0
C447 C 0.91542 0.19269 0.40514 0.0
N448 N 0.77987 0.03082 0.37002 0.0
N449 N 0.87334 0.14083 0.40723 0.0
H450 H 0.73284 0.71016 0.8637 0.0
H451 H 0.75396 0.97599 0.91435 0.0
H452 H 0.84159 0.80645 0.91692 0.0
H453 H 0.66674 0.89655 0.85393 0.0
H454 H 0.7572 0.89499 0.92442 0.0
H455 H 0.68257 0.75811 0.86873 0.0
C456 C 0.74494 0.74031 0.87697 0.0
C457 C 0.79119 0.75457 0.88994 0.0
C458 C 0.73511 0.89407 0.90947 0.0
C459 C 0.73529 0.81099 0.89527 0.0
C460 C 0.73174 0.93992 0.90406 0.0
C461 C 0.70857 0.94255 0.88362 0.0
C462 C 0.71621 0.85086 0.89403 0.0
C463 C 0.68402 0.89583 0.87005 0.0
C464 C 0.7165 0.7679 0.87975 0.0
C465 C 0.80588 0.79426 0.9067 0.0
N466 N 0.68958 0.85233 0.87522 0.0
N467 N 0.7786 0.82191 0.90861 0.0
H468 H 0.08571 0.62531 0.16112 0.0
H469 H 0.08437 0.3916 0.09171 0.0
H470 H 9e-05 0.56249 0.09863 0.0
H471 H 0.16407 0.44746 0.1559 0.0
H472 H 0.0308 0.43453 0.09968 0.0
H473 H 0.08927 0.54198 0.16595 0.0
C474 C 0.06504 0.59254 0.14902 0.0
C475 C 0.04271 0.60052 0.12942 0.0
C476 C 0.05911 0.43664 0.1123 0.0
C477 C 0.04918 0.50659 0.13412 0.0
C478 C 0.08989 0.41231 0.1077 0.0
C479 C 0.12941 0.41711 0.123 0.0
C480 C 0.0689 0.46736 0.13212 0.0
C481 C 0.13424 0.44327 0.14363 0.0
C482 C 0.06778 0.54527 0.1516 0.0
C483 C 0.01748 0.55759 0.11401 0.0
N484 N 0.10526 0.46864 0.14738 0.0
N485 N 0.02267 0.51297 0.11637 0.0
H486 H 0.68255 0.08196 0.60714 0.0
H487 H 0.43958 0.09001 0.66474 0.0
H488 H 0.69628 0.18915 0.66134 0.0
H489 H 0.43256 0.01256 0.60141 0.0
H490 H 0.52355 0.09107 0.67386 0.0
H491 H 0.58559 0.02482 0.61514 0.0
C492 C 0.66525 0.09217 0.62131 0.0
C493 C 0.6968 0.14009 0.6336 0.0
C494 C 0.50246 0.07158 0.65841 0.0
C495 C 0.586 0.07628 0.64237 0.0
C496 C 0.45402 0.07014 0.65336 0.0
C497 C 0.42974 0.05166 0.63221 0.0
C498 C 0.52665 0.05495 0.642 0.0
C499 C 0.45033 0.02724 0.61788 0.0
C500 C 0.60996 0.05975 0.62581 0.0
C501 C 0.6729 0.15233 0.65155 0.0
N502 N 0.49861 0.03101 0.62273 0.0
N503 N 0.61847 0.12114 0.65514 0.0
H504 H 0.59378 0.69813 0.14693 0.0
H505 H 0.40914 0.40832 0.09323 0.0
H506 H 0.55719 0.66059 0.07651 0.0
H507 H 0.38287 0.46087 0.15776 0.0
H508 H 0.50136 0.48719 0.09255 0.0
H509 H 0.55489 0.60067 0.1547 0.0
C510 C 0.57964 0.66949 0.13301 0.0
C511 C 0.57752 0.68666 0.11114 0.0
C512 C 0.4764 0.47988 0.10741 0.0
C513 C 0.53377 0.57632 0.11978 0.0
C514 C 0.42404 0.43461 0.1079 0.0
C515 C 0.38861 0.42897 0.12543 0.0
C516 C 0.49268 0.5192 0.12455 0.0
C517 C 0.40922 0.46444 0.14388 0.0
C518 C 0.55752 0.6141 0.13744 0.0
C519 C 0.55857 0.64842 0.09365 0.0
N520 N 0.45967 0.50903 0.14274 0.0
N521 N 0.53663 0.59479 0.09839 0.0
H522 H 0.9115 0.60892 0.62184 0.0
H523 H 0.82359 0.29996 0.6351 0.0
H524 H 0.75598 0.48647 0.64747 0.0
H525 H 0.98386 0.42332 0.61431 0.0
H526 H 0.80503 0.37078 0.64757 0.0
H527 H 0.94632 0.54693 0.62754 0.0
C528 C 0.88539 0.56953 0.62945 0.0
C529 C 0.83104 0.5524 0.63425 0.0
C530 C 0.84464 0.38266 0.64063 0.0
C531 C 0.86938 0.48055 0.63982 0.0
C532 C 0.85509 0.34221 0.63346 0.0
C533 C 0.90491 0.35623 0.6234 0.0
C534 C 0.88396 0.43759 0.63725 0.0
C535 C 0.94479 0.41123 0.62186 0.0
C536 C 0.90502 0.53398 0.63253 0.0
C537 C 0.79831 0.501 0.64375 0.0
N538 N 0.9331 0.45012 0.62833 0.0
N539 N 0.81766 0.46633 0.64579 0.0
H540 H 0.54355 0.96511 0.12071 0.0
H541 H 0.24223 0.81377 0.16461 0.0
H542 H 0.47606 0.82931 0.16637 0.0
H543 H 0.30163 0.90498 0.10291 0.0
H544 H 0.33612 0.85286 0.17763 0.0
H545 H 0.46636 0.97777 0.1281 0.0
C546 C 0.51367 0.93971 0.13319 0.0
C547 C 0.51526 0.89571 0.14277 0.0
C548 C 0.32838 0.8655 0.16155 0.0
C549 C 0.42632 0.90838 0.15057 0.0
C550 C 0.2749 0.84334 0.15413 0.0
C551 C 0.26452 0.85516 0.13243 0.0
C552 C 0.37126 0.89963 0.14714 0.0
C553 C 0.30816 0.89373 0.11952 0.0
C554 C 0.46947 0.94663 0.13727 0.0
C555 C 0.47568 0.86346 0.15861 0.0
N556 N 0.35974 0.91392 0.12692 0.0
N557 N 0.43174 0.86947 0.16159 0.0
H558 H 0.55581 0.56369 0.60375 0.0
H559 H 0.46027 0.2874 0.66216 0.0
H560 H 0.63263 0.54387 0.6623 0.0
H561 H 0.38054 0.31259 0.60593 0.0
H562 H 0.50381 0.38466 0.67124 0.0
H563 H 0.47193 0.48047 0.6137 0.0
C564 C 0.55399 0.54329 0.61939 0.0
C565 C 0.60093 0.5599 0.6321 0.0
C566 C 0.47537 0.36868 0.65736 0.0
C567 C 0.5069 0.46298 0.64278 0.0
C568 C 0.45034 0.31312 0.65231 0.0
C569 C 0.41739 0.29257 0.63321 0.0
C570 C 0.46782 0.40349 0.64292 0.0
C571 C 0.40643 0.32742 0.62065 0.0
C572 C 0.50638 0.4952 0.62493 0.0
C573 C 0.59697 0.53179 0.65202 0.0
N574 N 0.43228 0.38132 0.62548 0.0
N575 N 0.55132 0.48355 0.65638 0.0
H576 H 0.40379 0.94673 0.38049 0.0
H577 H 0.54048 0.79444 0.33397 0.0
H578 H 0.33235 0.81703 0.33167 0.0
H579 H 0.60887 0.92288 0.38354 0.0
H580 H 0.48382 0.82965 0.32013 0.0
H581 H 0.49398 0.96672 0.36865 0.0
C582 C 0.40753 0.92324 0.36691 0.0
C583 C 0.3615 0.87896 0.35755 0.0
C584 C 0.51237 0.85124 0.33358 0.0
C585 C 0.46346 0.89974 0.34458 0.0
C586 C 0.54476 0.83118 0.34144 0.0
C587 C 0.57785 0.85504 0.3603 0.0
C588 C 0.51209 0.89413 0.34525 0.0
C589 C 0.58225 0.90241 0.36941 0.0
C590 C 0.45883 0.93469 0.36006 0.0
C591 C 0.36752 0.85045 0.33966 0.0
N592 N 0.5487 0.9198 0.36212 0.0
N593 N 0.41788 0.86024 0.33416 0.0
H594 H 0.68131 0.55762 0.92988 0.0
H595 H 0.44121 0.42411 0.84606 0.0
H596 H 0.69228 0.606 0.86057 0.0
H597 H 0.42283 0.39292 0.91739 0.0
H598 H 0.52452 0.51013 0.85311 0.0
H599 H 0.58248 0.51699 0.92828 0.0
C600 C 0.66294 0.5618 0.91464 0.0
C601 C 0.69465 0.58564 0.89542 0.0
C602 C 0.5014 0.48574 0.86738 0.0
C603 C 0.58164 0.53708 0.893 0.0
C604 C 0.45315 0.43693 0.86334 0.0
C605 C 0.42542 0.40118 0.88115 0.0
C606 C 0.52263 0.49812 0.88936 0.0
C607 C 0.44309 0.41936 0.90318 0.0
C608 C 0.60646 0.53821 0.91362 0.0
C609 C 0.66903 0.58864 0.87584 0.0
N610 N 0.49166 0.46567 0.90664 0.0
N611 N 0.61395 0.56365 0.87497 0.0
H612 H 0.08993 0.70141 0.34155 0.0
H613 H 0.98236 0.41202 0.39484 0.0
H614 H 0.058 0.6605 0.41189 0.0
H615 H 0.07173 0.46897 0.33269 0.0
H616 H 0.96485 0.48786 0.39388 0.0
H617 H 0.03885 0.60414 0.33209 0.0
C618 C 0.06986 0.67198 0.35489 0.0
C619 C 0.0788 0.68834 0.37753 0.0
C620 C 0.98613 0.48231 0.3799 0.0
C621 C 0.02112 0.57794 0.36697 0.0
C622 C -0.00442 0.43872 0.38033 0.0
C623 C 0.02894 0.43496 0.36394 0.0
C624 C 0.01048 0.52204 0.363 0.0
C625 C 0.0461 0.47102 0.3457 0.0
C626 C 0.04104 0.61657 0.34952 0.0
C627 C 0.05249 0.64902 0.39425 0.0
N628 N 0.03775 0.51391 0.34596 0.0
N629 N 0.02563 0.59544 0.38868 0.0
H630 H 0.5947 0.07505 0.83724 0.0
H631 H 0.41791 0.1201 0.92072 0.0
H632 H 0.58604 0.02934 0.90683 0.0
H633 H 0.38206 0.0992 0.84978 0.0
H634 H 0.4657 0.06922 0.91667 0.0
H635 H 0.5048 0.065 0.84059 0.0
C636 C 0.57246 0.06005 0.85292 0.0
C637 C 0.59742 0.05259 0.87174 0.0
C638 C 0.44546 0.07366 0.90213 0.0
C639 C 0.49605 0.04441 0.87623 0.0
C640 C 0.41772 0.10226 0.90453 0.0
C641 C 0.39593 0.11336 0.88557 0.0
C642 C 0.45252 0.05759 0.88049 0.0
C643 C 0.39818 0.09101 0.8648 0.0
C644 C 0.52132 0.05494 0.85496 0.0
C645 C 0.5677 0.03482 0.89188 0.0
N646 N 0.42719 0.06532 0.86268 0.0
N647 N 0.51926 0.03302 0.89383 0.0
H648 H 0.27034 0.45994 0.33521 0.0
H649 H 0.54376 0.56512 0.40079 0.0
H650 H 0.28897 0.38442 0.39459 0.0
H651 H 0.52913 0.63784 0.33977 0.0
H652 H 0.45789 0.48237 0.39203 0.0
H653 H 0.36918 0.50831 0.32983 0.0
C654 C 0.29511 0.45198 0.34658 0.0
C655 C 0.27191 0.41876 0.36546 0.0
C656 C 0.47418 0.51562 0.3801 0.0
C657 C 0.3846 0.47483 0.35994 0.0
C658 C 0.52359 0.56254 0.38501 0.0
C659 C 0.54323 0.60788 0.37092 0.0
C660 C 0.44372 0.51505 0.36135 0.0
C661 C 0.51512 0.60329 0.35095 0.0
C662 C 0.35158 0.47994 0.34367 0.0
C663 C 0.30569 0.41049 0.37999 0.0
N664 N 0.46606 0.55821 0.347 0.0
N665 N 0.36035 0.43905 0.37717 0.0
H666 H 0.97084 0.5598 0.89988 0.0
H667 H 0.83116 0.29319 0.83375 0.0
H668 H 0.93507 0.55395 0.8292 0.0
H669 H 0.91672 0.31021 0.89566 0.0
H670 H 0.88726 0.3915 0.82787 0.0
H671 H 0.97455 0.47643 0.89558 0.0
C672 C 0.96724 0.54291 0.88315 0.0
C673 C 0.95164 0.56312 0.86495 0.0
C674 C 0.89511 0.37363 0.8424 0.0
C675 C 0.95257 0.46609 0.86007 0.0
C676 C 0.86335 0.31729 0.84556 0.0
C677 C 0.86922 0.29379 0.86521 0.0
C678 C 0.93187 0.40649 0.8593 0.0
C679 C 0.91043 0.32716 0.88043 0.0
C680 C 0.96819 0.49446 0.88073 0.0
C681 C 0.9466 0.5391 0.84371 0.0
N682 N 0.93931 0.3819 0.87745 0.0
N683 N 0.94484 0.49063 0.84198 0.0
H684 H 0.05346 0.33797 0.28868 0.0
H685 H 0.28045 0.38667 0.20076 0.0
H686 H 0.21749 0.38786 0.30803 0.0
H687 H 0.12395 0.36191 0.18202 0.0
H688 H 0.26492 0.40535 0.23954 0.0
H689 H 0.08343 0.36263 0.24979 0.0
C690 C 0.09618 0.35535 0.28477 0.0
C691 C 0.13311 0.36079 0.30157 0.0
C692 C 0.23451 0.39737 0.22688 0.0
C693 C 0.16772 0.3882 0.25684 0.0
C694 C 0.24359 0.38713 0.20472 0.0
C695 C 0.20351 0.37308 0.18825 0.0
C696 C 0.18422 0.39182 0.23274 0.0
C697 C 0.15613 0.37336 0.19421 0.0
C698 C 0.11331 0.36949 0.26253 0.0
C699 C 0.1879 0.38357 0.29562 0.0
N700 N 0.14727 0.38135 0.21609 0.0
N701 N 0.20342 0.39548 0.27364 0.0
H702 H 0.89258 0.28343 0.70115 0.0
H703 H 0.69124 0.0842 0.79235 0.0
H704 H 0.74489 0.13498 0.68504 0.0
H705 H 0.83733 0.235 0.80743 0.0
H706 H 0.696 0.1141 0.75338 0.0
H707 H 0.85892 0.27978 0.73938 0.0
C708 C 0.8523 0.25082 0.70559 0.0
C709 C 0.8216 0.20909 0.69017 0.0
C710 C 0.72613 0.14151 0.76533 0.0
C711 C 0.78366 0.20325 0.73408 0.0
C712 C 0.7233 0.12451 0.78758 0.0
C713 C 0.76386 0.15747 0.80306 0.0
C714 C 0.77067 0.19127 0.75842 0.0
C715 C 0.8047 0.20904 0.79612 0.0
C716 C 0.83312 0.24857 0.72742 0.0
C717 C 0.76967 0.16785 0.69656 0.0
N718 N 0.80771 0.22393 0.77417 0.0
N719 N 0.75281 0.16516 0.71826 0.0
H720 H 0.56565 0.78986 0.18569 0.0
H721 H 0.64387 0.87152 0.31463 0.0
H722 H 0.66972 0.95352 0.20955 0.0
H723 H 0.60563 0.71712 0.28578 0.0
H724 H 0.61858 0.89607 0.27897 0.0
H725 H 0.54481 0.75868 0.22494 0.0
C726 C 0.58178 0.81961 0.1992 0.0
C727 C 0.61936 0.87428 0.19453 0.0
C728 C 0.6143 0.85623 0.28065 0.0
C729 C 0.59669 0.83904 0.23918 0.0
C730 C 0.62833 0.84208 0.30101 0.0
C731 C 0.62655 0.7922 0.30307 0.0
C732 C 0.59856 0.82024 0.26225 0.0
C733 C 0.60759 0.75602 0.28476 0.0
C734 C 0.57052 0.80172 0.22155 0.0
C735 C 0.64037 0.91107 0.21256 0.0
N736 N 0.59474 0.77092 0.26502 0.0
N737 N 0.62934 0.8927 0.23413 0.0
H738 H 0.83309 0.60327 0.68361 0.0
H739 H 0.74358 0.58094 0.81276 0.0
H740 H 0.6987 0.61862 0.70764 0.0
H741 H 0.90496 0.62735 0.79023 0.0
H742 H 0.71166 0.55851 0.77359 0.0
H743 H 0.84364 0.57618 0.7217 0.0
C744 C 0.80473 0.59919 0.69671 0.0
C745 C 0.76563 0.6141 0.69268 0.0
C746 C 0.7537 0.57199 0.77736 0.0
C747 C 0.77732 0.5833 0.73604 0.0
C748 C 0.77173 0.58426 0.7997 0.0
C749 C 0.82695 0.60636 0.80456 0.0
C750 C 0.7912 0.58154 0.75998 0.0
C751 C 0.86208 0.61075 0.78703 0.0
C752 C 0.81094 0.58408 0.71844 0.0
C753 C 0.72999 0.60832 0.71023 0.0
N754 N 0.84381 0.59917 0.76547 0.0
N755 N 0.73709 0.59406 0.73121 0.0
H756 H 0.20072 0.88912 0.1833 0.0
H757 H 0.22776 0.81251 0.3101 0.0
H758 H 0.10693 0.72512 0.20814 0.0
H759 H 0.22491 0.95819 0.2932 0.0
H760 H 0.21141 0.78479 0.27028 0.0
H761 H 0.23973 0.91945 0.22118 0.0
C762 C 0.19001 0.85928 0.19654 0.0
C763 C 0.15095 0.80459 0.19271 0.0
C764 C 0.21515 0.82314 0.27532 0.0
C765 C 0.19483 0.83876 0.23578 0.0
C766 C 0.22455 0.83907 0.29796 0.0
C767 C 0.22736 0.88763 0.30494 0.0
C768 C 0.21005 0.85671 0.25947 0.0
C769 C 0.22264 0.92031 0.28852 0.0
C770 C 0.21169 0.87663 0.21813 0.0
C771 C 0.13727 0.76757 0.21049 0.0
N772 N 0.21436 0.90436 0.26652 0.0
N773 N 0.1591 0.78531 0.23131 0.0
H774 H 0.36345 0.2929 0.79147 0.0
H775 H 0.35347 0.08093 0.70532 0.0
H776 H 0.38742 0.16138 0.81145 0.0
H777 H 0.37704 0.23645 0.68506 0.0
H778 H 0.37957 0.11545 0.74379 0.0
H779 H 0.38409 0.28156 0.75251 0.0
C780 C 0.37509 0.26292 0.78768 0.0
C781 C 0.37407 0.22817 0.80455 0.0
C782 C 0.38061 0.14266 0.73085 0.0
C783 C 0.39499 0.21297 0.75993 0.0
C784 C 0.36562 0.12291 0.70891 0.0
C785 C 0.36344 0.15613 0.69207 0.0
C786 C 0.39207 0.19559 0.73608 0.0
C787 C 0.37926 0.21002 0.6975 0.0
C788 C 0.38651 0.25614 0.76543 0.0
C789 C 0.38842 0.1893 0.79886 0.0
N790 N 0.3919 0.2278 0.71916 0.0
N791 N 0.39699 0.18178 0.77688 0.0
H792 H 0.39294 0.24925 0.96507 0.0
H793 H 0.15032 0.2536 0.0302 0.0
H794 H 0.23253 0.17437 0.93644 0.0
H795 H 0.30571 0.29801 0.05898 0.0
H796 H 0.17335 0.216 0.99699 0.0
H797 H 0.35656 0.2585 0.00089 0.0
C798 C 0.34969 0.23368 0.96652 0.0
C799 C 0.31574 0.21078 0.94782 0.0
C800 C 0.20177 0.2329 0.01084 0.0
C801 C 0.27348 0.22321 0.98878 0.0
C802 C 0.18847 0.25401 0.02979 0.0
C803 C 0.22626 0.27882 0.04727 0.0
C804 C 0.25308 0.23695 0.00959 0.0
C805 C 0.27555 0.27939 0.04579 0.0
C806 C 0.32877 0.23921 0.98698 0.0
C807 C 0.25997 0.19177 0.95058 0.0
N808 N 0.28753 0.25919 0.02735 0.0
N809 N 0.24064 0.19932 0.97057 0.0
H810 H 0.08534 0.24151 0.45186 0.0
H811 H 0.94643 0.30546 0.54998 0.0
H812 H -0.00062 0.32896 0.44431 0.0
H813 H 0.88169 0.13283 0.54209 0.0
H814 H -0.00093 0.32159 0.51572 0.0
H815 H 0.03649 0.2042 0.48811 0.0
C816 C 0.05572 0.25203 0.45759 0.0
C817 C 0.04738 0.28952 0.44547 0.0
C818 C 0.97382 0.28014 0.52157 0.0
C819 C -0.00789 0.24735 0.48611 0.0
C820 C 0.94349 0.2708 0.54104 0.0
C821 C 0.9083 0.21759 0.54847 0.0
C822 C 0.96912 0.23615 0.50913 0.0
C823 C 0.90768 0.17439 0.5366 0.0
C824 C 0.02793 0.23071 0.47811 0.0
C825 C 0.00837 0.30159 0.45344 0.0
N826 N 0.937 0.18448 0.51706 0.0
N827 N 0.98292 0.28126 0.4733 0.0
H828 H 0.62328 0.861 0.02501 0.0
H829 H 0.83574 0.1382 0.96347 0.0
H830 H 0.72357 0.00893 0.06203 0.0
H831 H 0.69448 0.00609 0.93209 0.0
H832 H 0.81076 0.08593 -0.00096 0.0
H833 H 0.66265 0.90913 0.99005 0.0
C834 C 0.65435 0.90361 0.02587 0.0
C835 C 0.67149 0.93069 0.04666 0.0
C836 C 0.78612 0.06807 0.98416 0.0
C837 C 0.71736 0.98619 0.0064 0.0
C838 C 0.80078 0.09745 0.96389 0.0
C839 C 0.7678 0.07551 0.94484 0.0
C840 C 0.73843 0.01675 0.98507 0.0
C841 C 0.7217 0.02358 0.94632 0.0
C842 C 0.67699 0.93103 0.00584 0.0
C843 C 0.71144 0.986 0.04655 0.0
N844 N 0.70839 -0.00398 0.96603 0.0
N845 N 0.73324 0.0121 0.02671 0.0
H846 H 0.79059 0.64537 0.52689 0.0
H847 H 0.74991 0.86742 0.46202 0.0
H848 H 0.81404 0.79036 0.56019 0.0
H849 H 0.72003 0.71444 0.43488 0.0
H850 H 0.79014 0.85128 0.49591 0.0
H851 H 0.78523 0.68252 0.49092 0.0
C852 C 0.79588 0.68582 0.52654 0.0
C853 C 0.80182 0.71435 0.54664 0.0
C854 C 0.77634 0.82215 0.48219 0.0
C855 C 0.7935 0.75684 0.50521 0.0
C856 C 0.75389 0.8316 0.46282 0.0
C857 C 0.7337 0.79309 0.44531 0.0
C858 C 0.7779 0.77363 0.48397 0.0
C859 C 0.73749 0.74625 0.44752 0.0
C860 C 0.79227 0.70694 0.50593 0.0
C861 C 0.80861 0.76668 0.54511 0.0
N862 N 0.75884 0.73782 0.46641 0.0
N863 N 0.80299 0.78584 0.52477 0.0
H864 H 0.82286 0.66708 0.96369 0.0
H865 H 0.10001 0.83921 0.03132 0.0
H866 H 0.97417 0.69892 0.9342 0.0
H867 H 0.97172 0.68924 0.05872 0.0
H868 H 0.0478 0.81928 0.99583 0.0
H869 H 0.87102 0.70656 -0.00037 0.0
C870 C 0.86637 0.68395 0.96459 0.0
C871 C 0.89495 0.68081 0.94593 0.0
C872 C 0.03032 0.79209 0.01006 0.0
C873 C 0.94997 0.72678 0.98641 0.0
C874 C 0.05978 0.80363 0.03028 0.0
C875 C 0.03869 0.76723 0.04841 0.0
C876 C 0.97921 0.74444 0.00824 0.0
C877 C -0.01233 0.72006 0.04574 0.0
C878 C 0.89368 0.70621 0.98501 0.0
C879 C 0.95106 0.7018 0.9481 0.0
N880 N 0.95948 0.71018 0.02617 0.0
N881 N 0.97685 0.7242 0.96788 0.0
H882 H 0.25928 0.0063 0.42865 0.0
H883 H 0.2737 0.01052 0.56261 0.0
H884 H 0.20779 0.86481 0.47043 0.0
H885 H 0.30935 0.15293 0.5246 0.0
H886 H 0.23915 0.95529 0.52873 0.0
H887 H 0.26983 0.06023 0.46275 0.0
C888 C 0.24932 0.98643 0.44489 0.0
C889 C 0.23237 0.93095 0.44664 0.0
C890 C 0.25287 -0.00171 0.52769 0.0
C891 C 0.24528 0.99228 0.48563 0.0
C892 C 0.27116 0.02944 0.54723 0.0
C893 C 0.29105 0.0854 0.54657 0.0
C894 C 0.2566 0.02371 0.50698 0.0
C895 C 0.29231 0.10937 0.52582 0.0
C896 C 0.25562 0.01723 0.46435 0.0
C897 C 0.22129 0.90751 0.46819 0.0
N898 N 0.27568 0.07839 0.5067 0.0
N899 N 0.22818 0.93826 0.48674 0.0
loop_
_geom_bond_atom_site_label_1
_geom_bond_atom_site_label_2
_geom_bond_distance
_geom_bond_site_symmetry_2
_ccdc_geom_bond_type
Zn0 O6 1.920 . S
Zn0 O12 1.898 . S
Zn0 O15 1.905 . S
Zn1 O9 1.905 . S
Zn1 O10 1.898 . S
Zn1 O18 1.920 . S
Zn2 O5 2.080 . S
Zn2 O8 2.114 . S
Zn2 O11 2.120 . S
Zn2 O13 2.120 . S
Zn2 O14 2.114 . S
Zn2 O17 2.080 . S
C3 O8 1.166 . S
C3 O9 1.182 . S
C4 O10 1.167 . S
C4 O11 1.299 . S
O5 Zn2 2.080 . S
O5 C19 1.305 . S
O6 Zn0 1.920 . S
O6 C19 1.234 . S
C7 O12 1.167 . S
C7 O13 1.299 . S
O8 Zn2 2.114 . S
O8 C3 1.166 . S
O9 Zn1 1.905 . S
O9 C3 1.182 . S
O10 Zn1 1.898 . S
O10 C4 1.167 . S
O11 Zn2 2.120 . S
O11 C4 1.299 . S
O12 Zn0 1.898 . S
O12 C7 1.167 . S
O13 Zn2 2.120 . S
O13 C7 1.299 . S
O14 Zn2 2.114 . S
O14 C16 1.166 . S
O15 Zn0 1.905 . S
O15 C16 1.182 . S
C16 O14 1.166 . S
C16 O15 1.182 . S
O17 Zn2 2.080 . S
O17 C20 1.305 . S
O18 Zn1 1.920 . S
O18 C20 1.234 . S
C19 O5 1.305 . S
C19 O6 1.234 . S
C20 O17 1.305 . S
C20 O18 1.234 . S
Zn21 O27 1.920 . S
Zn21 O33 1.898 . S
Zn21 O36 1.905 . S
Zn22 O30 1.905 . S
Zn22 O31 1.898 . S
Zn22 O39 1.920 . S
Zn23 O26 2.080 . S
Zn23 O29 2.114 . S
Zn23 O32 2.120 . S
Zn23 O34 2.120 . S
Zn23 O35 2.114 . S
Zn23 O38 2.080 . S
C24 O29 1.166 . S
C24 O30 1.182 . S
C25 O31 1.167 . S
C25 O32 1.299 . S
O26 Zn23 2.080 . S
O26 C40 1.305 . S
O27 Zn21 1.920 . S
O27 C40 1.234 . S
C28 O33 1.167 . S
C28 O34 1.299 . S
O29 Zn23 2.114 . S
O29 C24 1.166 . S
O30 Zn22 1.905 . S
O30 C24 1.182 . S
O31 Zn22 1.898 . S
O31 C25 1.167 . S
O32 Zn23 2.120 . S
O32 C25 1.299 . S
O33 Zn21 1.898 . S
O33 C28 1.167 . S
O34 Zn23 2.120 . S
O34 C28 1.299 . S
O35 Zn23 2.114 . S
O35 C37 1.166 . S
O36 Zn21 1.905 . S
O36 C37 1.182 . S
C37 O35 1.166 . S
C37 O36 1.182 . S
O38 Zn23 2.080 . S
O38 C41 1.305 . S
O39 Zn22 1.920 . S
O39 C41 1.234 . S
C40 O26 1.305 . S
C40 O27 1.234 . S
C41 O38 1.305 . S
C41 O39 1.234 . S
Zn42 O48 1.920 . S
Zn42 O54 1.898 . S
Zn42 O57 1.905 . S
Zn43 O51 1.905 . S
Zn43 O52 1.898 . S
Zn43 O60 1.920 . S
Zn44 O47 2.080 . S
Zn44 O50 2.114 . S
Zn44 O53 2.120 . S
Zn44 O55 2.120 . S
Zn44 O56 2.114 . S
Zn44 O59 2.080 . S
C45 O50 1.166 . S
C45 O51 1.182 . S
C46 O52 1.167 . S
C46 O53 1.299 . S
O47 Zn44 2.080 . S
O47 C61 1.305 . S
O48 Zn42 1.920 . S
O48 C61 1.234 . S
C49 O54 1.167 . S
C49 O55 1.299 . S
O50 Zn44 2.114 . S
O50 C45 1.166 . S
O51 Zn43 1.905 . S
O51 C45 1.182 . S
O52 Zn43 1.898 . S
O52 C46 1.167 . S
O53 Zn44 2.120 . S
O53 C46 1.299 . S
O54 Zn42 1.898 . S
O54 C49 1.167 . S
O55 Zn44 2.120 . S
O55 C49 1.299 . S
O56 Zn44 2.114 . S
O56 C58 1.166 . S
O57 Zn42 1.905 . S
O57 C58 1.182 . S
C58 O56 1.166 . S
C58 O57 1.182 . S
O59 Zn44 2.080 . S
O59 C62 1.305 . S
O60 Zn43 1.920 . S
O60 C62 1.234 . S
C61 O47 1.305 . S
C61 O48 1.234 . S
C62 O59 1.305 . S
C62 O60 1.234 . S
Zn63 O69 1.920 . S
Zn63 O75 1.898 . S
Zn63 O78 1.905 . S
Zn64 O72 1.905 . S
Zn64 O73 1.898 . S
Zn64 O81 1.920 . S
Zn65 O68 2.080 . S
Zn65 O71 2.114 . S
Zn65 O74 2.120 . S
Zn65 O76 2.120 . S
Zn65 O77 2.114 . S
Zn65 O80 2.080 . S
C66 O71 1.166 . S
C66 O72 1.182 . S
C67 O73 1.167 . S
C67 O74 1.299 . S
O68 Zn65 2.080 . S
O68 C82 1.305 . S
O69 Zn63 1.920 . S
O69 C82 1.234 . S
C70 O75 1.167 . S
C70 O76 1.299 . S
O71 Zn65 2.114 . S
O71 C66 1.166 . S
O72 Zn64 1.905 . S
O72 C66 1.182 . S
O73 Zn64 1.898 . S
O73 C67 1.167 . S
O74 Zn65 2.120 . S
O74 C67 1.299 . S
O75 Zn63 1.898 . S
O75 C70 1.167 . S
O76 Zn65 2.120 . S
O76 C70 1.299 . S
O77 Zn65 2.114 . S
O77 C79 1.166 . S
O78 Zn63 1.905 . S
O78 C79 1.182 . S
C79 O77 1.166 . S
C79 O78 1.182 . S
O80 Zn65 2.080 . S
O80 C83 1.305 . S
O81 Zn64 1.920 . S
O81 C83 1.234 . S
C82 O68 1.305 . S
C82 O69 1.234 . S
C83 O80 1.305 . S
C83 O81 1.234 . S
Zn84 O90 1.920 . S
Zn84 O96 1.898 . S
Zn84 O99 1.905 . S
Zn85 O93 1.905 . S
Zn85 O94 1.898 . S
Zn85 O102 1.920 . S
Zn86 O89 2.080 . S
Zn86 O92 2.114 . S
Zn86 O95 2.120 . S
Zn86 O97 2.120 . S
Zn86 O98 2.114 . S
Zn86 O101 2.080 . S
C87 O92 1.166 . S
C87 O93 1.182 . S
C88 O94 1.167 . S
C88 O95 1.299 . S
O89 Zn86 2.080 . S
O89 C103 1.305 . S
O90 Zn84 1.920 . S
O90 C103 1.234 . S
C91 O96 1.167 . S
C91 O97 1.299 . S
O92 Zn86 2.114 . S
O92 C87 1.166 . S
O93 Zn85 1.905 . S
O93 C87 1.182 . S
O94 Zn85 1.898 . S
O94 C88 1.167 . S
O95 Zn86 2.120 . S
O95 C88 1.299 . S
O96 Zn84 1.898 . S
O96 C91 1.167 . S
O97 Zn86 2.120 . S
O97 C91 1.299 . S
O98 Zn86 2.114 . S
O98 C100 1.166 . S
O99 Zn84 1.905 . S
O99 C100 1.182 . S
C100 O98 1.166 . S
C100 O99 1.182 . S
O101 Zn86 2.080 . S
O101 C104 1.305 . S
O102 Zn85 1.920 . S
O102 C104 1.234 . S
C103 O89 1.305 . S
C103 O90 1.234 . S
C104 O101 1.305 . S
C104 O102 1.234 . S
Zn105 O111 1.920 . S
Zn105 O117 1.898 . S
Zn105 O120 1.905 . S
Zn106 O114 1.905 . S
Zn106 O115 1.898 . S
Zn106 O123 1.920 . S
Zn107 O110 2.080 . S
Zn107 O113 2.114 . S
Zn107 O116 2.120 . S
Zn107 O118 2.120 . S
Zn107 O119 2.114 . S
Zn107 O122 2.080 . S
C108 O113 1.166 . S
C108 O114 1.182 . S
C109 O115 1.167 . S
C109 O116 1.299 . S
O110 Zn107 2.080 . S
O110 C124 1.305 . S
O111 Zn105 1.920 . S
O111 C124 1.234 . S
C112 O117 1.167 . S
C112 O118 1.299 . S
O113 Zn107 2.114 . S
O113 C108 1.166 . S
O114 Zn106 1.905 . S
O114 C108 1.182 . S
O115 Zn106 1.898 . S
O115 C109 1.167 . S
O116 Zn107 2.120 . S
O116 C109 1.299 . S
O117 Zn105 1.898 . S
O117 C112 1.167 . S
O118 Zn107 2.120 . S
O118 C112 1.299 . S
O119 Zn107 2.114 . S
O119 C121 1.166 . S
O120 Zn105 1.905 . S
O120 C121 1.182 . S
C121 O119 1.166 . S
C121 O120 1.182 . S
O122 Zn107 2.080 . S
O122 C125 1.305 . S
O123 Zn106 1.920 . S
O123 C125 1.234 . S
C124 O110 1.305 . S
C124 O111 1.234 . S
C125 O122 1.305 . S
C125 O123 1.234 . S
Zn126 O132 1.920 . S
Zn126 O138 1.898 . S
Zn126 O141 1.905 . S
Zn127 O135 1.905 . S
Zn127 O136 1.898 . S
Zn127 O144 1.920 . S
Zn128 O131 2.080 . S
Zn128 O134 2.114 . S
Zn128 O137 2.120 . S
Zn128 O139 2.120 . S
Zn128 O140 2.114 . S
Zn128 O143 2.080 . S
C129 O134 1.166 . S
C129 O135 1.182 . S
C130 O136 1.167 . S
C130 O137 1.299 . S
O131 Zn128 2.080 . S
O131 C145 1.305 . S
O132 Zn126 1.920 . S
O132 C145 1.234 . S
C133 O138 1.167 . S
C133 O139 1.299 . S
O134 Zn128 2.114 . S
O134 C129 1.166 . S
O135 Zn127 1.905 . S
O135 C129 1.182 . S
O136 Zn127 1.898 . S
O136 C130 1.167 . S
O137 Zn128 2.120 . S
O137 C130 1.299 . S
O138 Zn126 1.898 . S
O138 C133 1.167 . S
O139 Zn128 2.120 . S
O139 C133 1.299 . S
O140 Zn128 2.114 . S
O140 C142 1.166 . S
O141 Zn126 1.905 . S
O141 C142 1.182 . S
C142 O140 1.166 . S
C142 O141 1.182 . S
O143 Zn128 2.080 . S
O143 C146 1.305 . S
O144 Zn127 1.920 . S
O144 C146 1.234 . S
C145 O131 1.305 . S
C145 O132 1.234 . S
C146 O143 1.305 . S
C146 O144 1.234 . S
Zn147 O153 1.920 . S
Zn147 O159 1.898 . S
Zn147 O162 1.905 . S
Zn148 O156 1.905 . S
Zn148 O157 1.898 . S
Zn148 O165 1.920 . S
Zn149 O152 2.080 . S
Zn149 O155 2.114 . S
Zn149 O158 2.120 . S
Zn149 O160 2.120 . S
Zn149 O161 2.114 . S
Zn149 O164 2.080 . S
C150 O155 1.166 . S
C150 O156 1.182 . S
C151 O157 1.167 . S
C151 O158 1.299 . S
O152 Zn149 2.080 . S
O152 C166 1.305 . S
O153 Zn147 1.920 . S
O153 C166 1.234 . S
C154 O159 1.167 . S
C154 O160 1.299 . S
O155 Zn149 2.114 . S
O155 C150 1.166 . S
O156 Zn148 1.905 . S
O156 C150 1.182 . S
O157 Zn148 1.898 . S
O157 C151 1.167 . S
O158 Zn149 2.120 . S
O158 C151 1.299 . S
O159 Zn147 1.898 . S
O159 C154 1.167 . S
O160 Zn149 2.120 . S
O160 C154 1.299 . S
O161 Zn149 2.114 . S
O161 C163 1.166 . S
O162 Zn147 1.905 . S
O162 C163 1.182 . S
C163 O161 1.166 . S
C163 O162 1.182 . S
O164 Zn149 2.080 . S
O164 C167 1.305 . S
O165 Zn148 1.920 . S
O165 C167 1.234 . S
C166 O152 1.305 . S
C166 O153 1.234 . S
C167 O164 1.305 . S
C167 O165 1.234 . S
Zn168 O174 1.920 . S
Zn168 O180 1.898 . S
Zn168 O183 1.905 . S
Zn169 O177 1.905 . S
Zn169 O178 1.898 . S
Zn169 O186 1.920 . S
Zn170 O173 2.080 . S
Zn170 O176 2.114 . S
Zn170 O179 2.120 . S
Zn170 O181 2.120 . S
Zn170 O182 2.114 . S
Zn170 O185 2.080 . S
C171 O176 1.166 . S
C171 O177 1.182 . S
C172 O178 1.167 . S
C172 O179 1.299 . S
O173 Zn170 2.080 . S
O173 C187 1.305 . S
O174 Zn168 1.920 . S
O174 C187 1.234 . S
C175 O180 1.167 . S
C175 O181 1.299 . S
O176 Zn170 2.114 . S
O176 C171 1.166 . S
O177 Zn169 1.905 . S
O177 C171 1.182 . S
O178 Zn169 1.898 . S
O178 C172 1.167 . S
O179 Zn170 2.120 . S
O179 C172 1.299 . S
O180 Zn168 1.898 . S
O180 C175 1.167 . S
O181 Zn170 2.120 . S
O181 C175 1.299 . S
O182 Zn170 2.114 . S
O182 C184 1.166 . S
O183 Zn168 1.905 . S
O183 C184 1.182 . S
C184 O182 1.166 . S
C184 O183 1.182 . S
O185 Zn170 2.080 . S
O185 C188 1.305 . S
O186 Zn169 1.920 . S
O186 C188 1.234 . S
C187 O173 1.305 . S
C187 O174 1.234 . S
C188 O185 1.305 . S
C188 O186 1.234 . S
Zn189 O195 1.920 . S
Zn189 O201 1.898 . S
Zn189 O204 1.905 . S
Zn190 O198 1.905 . S
Zn190 O199 1.898 . S
Zn190 O207 1.920 . S
Zn191 O194 2.080 . S
Zn191 O197 2.114 . S
Zn191 O200 2.120 . S
Zn191 O202 2.120 . S
Zn191 O203 2.114 . S
Zn191 O206 2.080 . S
C192 O197 1.166 . S
C192 O198 1.182 . S
C193 O199 1.167 . S
C193 O200 1.299 . S
O194 Zn191 2.080 . S
O194 C208 1.305 . S
O195 Zn189 1.920 . S
O195 C208 1.234 . S
C196 O201 1.167 . S
C196 O202 1.299 . S
O197 Zn191 2.114 . S
O197 C192 1.166 . S
O198 Zn190 1.905 . S
O198 C192 1.182 . S
O199 Zn190 1.898 . S
O199 C193 1.167 . S
O200 Zn191 2.120 . S
O200 C193 1.299 . S
O201 Zn189 1.898 . S
O201 C196 1.167 . S
O202 Zn191 2.120 . S
O202 C196 1.299 . S
O203 Zn191 2.114 . S
O203 C205 1.166 . S
O204 Zn189 1.905 . S
O204 C205 1.182 . S
C205 O203 1.166 . S
C205 O204 1.182 . S
O206 Zn191 2.080 . S
O206 C209 1.305 . S
O207 Zn190 1.920 . S
O207 C209 1.234 . S
C208 O194 1.305 . S
C208 O195 1.234 . S
C209 O206 1.305 . S
C209 O207 1.234 . S
Zn210 O216 1.920 . S
Zn210 O222 1.898 . S
Zn210 O225 1.905 . S
Zn211 O219 1.905 . S
Zn211 O220 1.898 . S
Zn211 O228 1.920 . S
Zn212 O215 2.080 . S
Zn212 O218 2.114 . S
Zn212 O221 2.120 . S
Zn212 O223 2.120 . S
Zn212 O224 2.114 . S
Zn212 O227 2.080 . S
C213 O218 1.166 . S
C213 O219 1.182 . S
C214 O220 1.167 . S
C214 O221 1.299 . S
O215 Zn212 2.080 . S
O215 C229 1.305 . S
O216 Zn210 1.920 . S
O216 C229 1.234 . S
C217 O222 1.167 . S
C217 O223 1.299 . S
O218 Zn212 2.114 . S
O218 C213 1.166 . S
O219 Zn211 1.905 . S
O219 C213 1.182 . S
O220 Zn211 1.898 . S
O220 C214 1.167 . S
O221 Zn212 2.120 . S
O221 C214 1.299 . S
O222 Zn210 1.898 . S
O222 C217 1.167 . S
O223 Zn212 2.120 . S
O223 C217 1.299 . S
O224 Zn212 2.114 . S
O224 C226 1.166 . S
O225 Zn210 1.905 . S
O225 C226 1.182 . S
C226 O224 1.166 . S
C226 O225 1.182 . S
O227 Zn212 2.080 . S
O227 C230 1.305 . S
O228 Zn211 1.920 . S
O228 C230 1.234 . S
C229 O215 1.305 . S
C229 O216 1.234 . S
C230 O227 1.305 . S
C230 O228 1.234 . S
Zn231 O237 1.920 . S
Zn231 O243 1.898 . S
Zn231 O246 1.905 . S
Zn232 O240 1.905 . S
Zn232 O241 1.898 . S
Zn232 O249 1.920 . S
Zn233 O236 2.080 . S
Zn233 O239 2.114 . S
Zn233 O242 2.120 . S
Zn233 O244 2.120 . S
Zn233 O245 2.114 . S
Zn233 O248 2.080 . S
C234 O239 1.166 . S
C234 O240 1.182 . S
C235 O241 1.167 . S
C235 O242 1.299 . S
O236 Zn233 2.080 . S
O236 C250 1.305 . S
O237 Zn231 1.920 . S
O237 C250 1.234 . S
C238 O243 1.167 . S
C238 O244 1.299 . S
O239 Zn233 2.114 . S
O239 C234 1.166 . S
O240 Zn232 1.905 . S
O240 C234 1.182 . S
O241 Zn232 1.898 . S
O241 C235 1.167 . S
O242 Zn233 2.120 . S
O242 C235 1.299 . S
O243 Zn231 1.898 . S
O243 C238 1.167 . S
O244 Zn233 2.120 . S
O244 C238 1.299 . S
O245 Zn233 2.114 . S
O245 C247 1.166 . S
O246 Zn231 1.905 . S
O246 C247 1.182 . S
C247 O245 1.166 . S
C247 O246 1.182 . S
O248 Zn233 2.080 . S
O248 C251 1.305 . S
O249 Zn232 1.920 . S
O249 C251 1.234 . S
C250 O236 1.305 . S
C250 O237 1.234 . S
C251 O248 1.305 . S
C251 O249 1.234 . S
H252 C258 0.930 . S
H253 C262 0.930 . S
H254 C267 0.929 . S
H255 C265 0.929 . S
H256 C260 0.929 . S
H257 C266 0.929 . S
C258 H252 0.930 . S
C258 C259 1.367 . S
C258 C266 1.378 1_565 S
C259 C258 1.367 . S
C259 C267 1.433 . S
C260 H256 0.929 . S
C260 C262 1.378 . S
C260 C264 1.350 . S
C261 C264 1.463 . S
C261 C266 1.350 . S
C261 N269 1.427 . S
C262 H253 0.930 . S
C262 C260 1.378 . S
C262 C263 1.367 . S
C263 C262 1.367 . S
C263 C265 1.433 . S
C264 C260 1.350 . S
C264 C261 1.463 . S
C264 N268 1.427 . S
C265 H255 0.929 . S
C265 C263 1.433 . S
C265 N268 1.384 . S
C266 H257 0.929 . S
C266 C258 1.378 1_545 S
C266 C261 1.350 . S
C267 H254 0.929 . S
C267 C259 1.433 . S
C267 N269 1.384 1_565 S
N268 C264 1.427 . S
N268 C265 1.384 . S
N269 C261 1.427 . S
N269 C267 1.384 1_545 S
H270 C276 0.930 . S
H271 C280 0.930 . S
H272 C285 0.929 . S
H273 C283 0.929 1_655 S
H274 C278 0.929 . S
H275 C284 0.929 . S
C276 H270 0.930 . S
C276 C277 1.367 . S
C276 C284 1.378 . S
C277 C276 1.367 . S
C277 C285 1.433 . S
C278 H274 0.929 . S
C278 C280 1.378 . S
C278 C282 1.350 . S
C279 C282 1.463 . S
C279 C284 1.350 . S
C279 N287 1.427 . S
C280 H271 0.930 . S
C280 C278 1.378 . S
C280 C281 1.367 . S
C281 C280 1.367 . S
C281 C283 1.433 . S
C282 C278 1.350 . S
C282 C279 1.463 . S
C282 N286 1.427 . S
C283 H273 0.929 1_455 S
C283 C281 1.433 . S
C283 N286 1.384 . S
C284 H275 0.929 . S
C284 C276 1.378 . S
C284 C279 1.350 . S
C285 H272 0.929 . S
C285 C277 1.433 . S
C285 N287 1.384 . S
N286 C282 1.427 . S
N286 C283 1.384 . S
N287 C279 1.427 . S
N287 C285 1.384 . S
H288 C294 0.930 . S
H289 C298 0.930 . S
H290 C303 0.929 . S
H291 C301 0.929 . S
H292 C296 0.929 . S
H293 C302 0.929 . S
C294 H288 0.930 . S
C294 C295 1.367 . S
C294 C302 1.378 . S
C295 C294 1.367 . S
C295 C303 1.433 . S
C296 H292 0.929 . S
C296 C298 1.378 1_655 S
C296 C300 1.350 . S
C297 C300 1.463 . S
C297 C302 1.350 . S
C297 N305 1.427 . S
C298 H289 0.930 . S
C298 C296 1.378 1_455 S
C298 C299 1.367 . S
C299 C298 1.367 . S
C299 C301 1.433 . S
C300 C296 1.350 . S
C300 C297 1.463 . S
C300 N304 1.427 . S
C301 H291 0.929 . S
C301 C299 1.433 . S
C301 N304 1.384 1_455 S
C302 H293 0.929 . S
C302 C294 1.378 . S
C302 C297 1.350 . S
C303 H290 0.929 . S
C303 C295 1.433 . S
C303 N305 1.384 . S
N304 C300 1.427 . S
N304 C301 1.384 1_655 S
N305 C297 1.427 . S
N305 C303 1.384 . S
H306 C312 0.930 . S
H307 C316 0.930 . S
H308 C321 0.929 . S
H309 C319 0.929 . S
H310 C314 0.929 . S
H311 C320 0.929 . S
C312 H306 0.930 . S
C312 C313 1.367 . S
C312 C320 1.378 . S
C313 C312 1.367 . S
C313 C321 1.433 . S
C314 H310 0.929 . S
C314 C316 1.378 1_565 S
C314 C318 1.350 . S
C315 C318 1.463 . S
C315 C320 1.350 . S
C315 N323 1.427 . S
C316 H307 0.930 . S
C316 C314 1.378 1_545 S
C316 C317 1.367 . S
C317 C316 1.367 . S
C317 C319 1.433 . S
C318 C314 1.350 . S
C318 C315 1.463 . S
C318 N322 1.427 . S
C319 H309 0.929 . S
C319 C317 1.433 . S
C319 N322 1.384 1_545 S
C320 H311 0.929 . S
C320 C312 1.378 . S
C320 C315 1.350 . S
C321 H308 0.929 . S
C321 C313 1.433 . S
C321 N323 1.384 . S
N322 C318 1.427 . S
N322 C319 1.384 1_565 S
N323 C315 1.427 . S
N323 C321 1.384 . S
H324 C330 0.930 1_455 S
H325 C334 0.930 . S
H326 C339 0.929 . S
H327 C337 0.929 . S
H328 C332 0.929 . S
H329 C338 0.929 . S
C330 H324 0.930 1_655 S
C330 C331 1.367 . S
C330 C338 1.378 . S
C331 C330 1.367 . S
C331 C339 1.433 . S
C332 H328 0.929 . S
C332 C334 1.378 . S
C332 C336 1.350 . S
C333 C336 1.463 . S
C333 C338 1.350 . S
C333 N341 1.427 . S
C334 H325 0.930 . S
C334 C332 1.378 . S
C334 C335 1.367 . S
C335 C334 1.367 . S
C335 C337 1.433 . S
C336 C332 1.350 . S
C336 C333 1.463 . S
C336 N340 1.427 . S
C337 H327 0.929 . S
C337 C335 1.433 . S
C337 N340 1.384 . S
C338 H329 0.929 . S
C338 C330 1.378 . S
C338 C333 1.350 . S
C339 H326 0.929 . S
C339 C331 1.433 . S
C339 N341 1.384 . S
N340 C336 1.427 . S
N340 C337 1.384 . S
N341 C333 1.427 . S
N341 C339 1.384 . S
H342 C348 0.930 . S
H343 C352 0.930 . S
H344 C357 0.929 . S
H345 C355 0.929 . S
H346 C350 0.929 . S
H347 C356 0.929 . S
C348 H342 0.930 . S
C348 C349 1.367 . S
C348 C356 1.378 1_655 S
C349 C348 1.367 . S
C349 C357 1.433 . S
C350 H346 0.929 . S
C350 C352 1.378 . S
C350 C354 1.350 . S
C351 C354 1.463 . S
C351 C356 1.350 . S
C351 N359 1.427 . S
C352 H343 0.930 . S
C352 C350 1.378 . S
C352 C353 1.367 . S
C353 C352 1.367 . S
C353 C355 1.433 . S
C354 C350 1.350 . S
C354 C351 1.463 . S
C354 N358 1.427 . S
C355 H345 0.929 . S
C355 C353 1.433 . S
C355 N358 1.384 . S
C356 H347 0.929 . S
C356 C348 1.378 1_455 S
C356 C351 1.350 . S
C357 H344 0.929 . S
C357 C349 1.433 . S
C357 N359 1.384 1_655 S
N358 C354 1.427 . S
N358 C355 1.384 . S
N359 C351 1.427 . S
N359 C357 1.384 1_455 S
H360 C366 0.930 . S
H361 C370 0.930 . S
H362 C375 0.929 . S
H363 C373 0.929 . S
H364 C368 0.929 . S
H365 C374 0.929 . S
C366 H360 0.930 . S
C366 C367 1.367 . S
C366 C374 1.378 1_455 S
C367 C366 1.367 . S
C367 C375 1.433 . S
C368 H364 0.929 . S
C368 C370 1.378 . S
C368 C372 1.350 . S
C369 C372 1.463 . S
C369 C374 1.350 . S
C369 N377 1.427 . S
C370 H361 0.930 . S
C370 C368 1.378 . S
C370 C371 1.367 . S
C371 C370 1.367 . S
C371 C373 1.433 . S
C372 C368 1.350 . S
C372 C369 1.463 . S
C372 N376 1.427 . S
C373 H363 0.929 . S
C373 C371 1.433 . S
C373 N376 1.384 . S
C374 H365 0.929 . S
C374 C366 1.378 1_655 S
C374 C369 1.350 . S
C375 H362 0.929 . S
C375 C367 1.433 . S
C375 N377 1.384 1_455 S
N376 C372 1.427 . S
N376 C373 1.384 . S
N377 C369 1.427 . S
N377 C375 1.384 1_655 S
H378 C384 0.930 . S
H379 C388 0.930 . S
H380 C393 0.929 . S
H381 C391 0.929 . S
H382 C386 0.929 . S
H383 C392 0.929 . S
C384 H378 0.930 . S
C384 C385 1.367 . S
C384 C392 1.378 . S
C385 C384 1.367 . S
C385 C393 1.433 . S
C386 H382 0.929 . S
C386 C388 1.378 1_565 S
C386 C390 1.350 . S
C387 C390 1.463 . S
C387 C392 1.350 . S
C387 N395 1.427 . S
C388 H379 0.930 . S
C388 C386 1.378 1_545 S
C388 C389 1.367 . S
C389 C388 1.367 . S
C389 C391 1.433 . S
C390 C386 1.350 . S
C390 C387 1.463 . S
C390 N394 1.427 . S
C391 H381 0.929 . S
C391 C389 1.433 . S
C391 N394 1.384 1_545 S
C392 H383 0.929 . S
C392 C384 1.378 . S
C392 C387 1.350 . S
C393 H380 0.929 . S
C393 C385 1.433 . S
C393 N395 1.384 . S
N394 C390 1.427 . S
N394 C391 1.384 1_565 S
N395 C387 1.427 . S
N395 C393 1.384 . S
H396 C402 0.930 . S
H397 C406 0.930 . S
H398 C411 0.929 . S
H399 C409 0.929 1_565 S
H400 C404 0.929 . S
H401 C410 0.929 . S
C402 H396 0.930 . S
C402 C403 1.367 . S
C402 C410 1.378 . S
C403 C402 1.367 . S
C403 C411 1.433 . S
C404 H400 0.929 . S
C404 C406 1.378 . S
C404 C408 1.350 . S
C405 C408 1.463 . S
C405 C410 1.350 . S
C405 N413 1.427 . S
C406 H397 0.930 . S
C406 C404 1.378 . S
C406 C407 1.367 . S
C407 C406 1.367 . S
C407 C409 1.433 . S
C408 C404 1.350 . S
C408 C405 1.463 . S
C408 N412 1.427 . S
C409 H399 0.929 1_545 S
C409 C407 1.433 . S
C409 N412 1.384 . S
C410 H401 0.929 . S
C410 C402 1.378 . S
C410 C405 1.350 . S
C411 H398 0.929 . S
C411 C403 1.433 . S
C411 N413 1.384 . S
N412 C408 1.427 . S
N412 C409 1.384 . S
N413 C405 1.427 . S
N413 C411 1.384 . S
H414 C420 0.930 . S
H415 C424 0.930 . S
H416 C429 0.929 . S
H417 C427 0.929 . S
H418 C422 0.929 . S
H419 C428 0.929 . S
C420 H414 0.930 . S
C420 C421 1.367 . S
C420 C428 1.378 . S
C421 C420 1.367 . S
C421 C429 1.433 . S
C422 H418 0.929 . S
C422 C424 1.378 1_455 S
C422 C426 1.350 . S
C423 C426 1.463 . S
C423 C428 1.350 . S
C423 N431 1.427 . S
C424 H415 0.930 . S
C424 C422 1.378 1_655 S
C424 C425 1.367 . S
C425 C424 1.367 . S
C425 C427 1.433 . S
C426 C422 1.350 . S
C426 C423 1.463 . S
C426 N430 1.427 . S
C427 H417 0.929 . S
C427 C425 1.433 . S
C427 N430 1.384 1_655 S
C428 H419 0.929 . S
C428 C420 1.378 . S
C428 C423 1.350 . S
C429 H416 0.929 . S
C429 C421 1.433 . S
C429 N431 1.384 . S
N430 C426 1.427 . S
N430 C427 1.384 1_455 S
N431 C423 1.427 . S
N431 C429 1.384 . S
H432 C438 0.930 . S
H433 C442 0.930 . S
H434 C447 0.929 . S
H435 C445 0.929 . S
H436 C440 0.929 . S
H437 C446 0.929 . S
C438 H432 0.930 . S
C438 C439 1.367 . S
C438 C446 1.378 . S
C439 C438 1.367 . S
C439 C447 1.433 . S
C440 H436 0.929 . S
C440 C442 1.378 1_545 S
C440 C444 1.350 . S
C441 C444 1.463 . S
C441 C446 1.350 . S
C441 N449 1.427 . S
C442 H433 0.930 . S
C442 C440 1.378 1_565 S
C442 C443 1.367 . S
C443 C442 1.367 . S
C443 C445 1.433 . S
C444 C440 1.350 . S
C444 C441 1.463 . S
C444 N448 1.427 . S
C445 H435 0.929 . S
C445 C443 1.433 . S
C445 N448 1.384 1_565 S
C446 H437 0.929 . S
C446 C438 1.378 . S
C446 C441 1.350 . S
C447 H434 0.929 . S
C447 C439 1.433 . S
C447 N449 1.384 . S
N448 C444 1.427 . S
N448 C445 1.384 1_545 S
N449 C441 1.427 . S
N449 C447 1.384 . S
H450 C456 0.930 . S
H451 C460 0.930 1_545 S
H452 C465 0.929 . S
H453 C463 0.929 . S
H454 C458 0.929 . S
H455 C464 0.929 . S
C456 H450 0.930 . S
C456 C457 1.367 . S
C456 C464 1.378 . S
C457 C456 1.367 . S
C457 C465 1.433 . S
C458 H454 0.929 . S
C458 C460 1.378 . S
C458 C462 1.350 . S
C459 C462 1.463 . S
C459 C464 1.350 . S
C459 N467 1.427 . S
C460 H451 0.930 1_565 S
C460 C458 1.378 . S
C460 C461 1.367 . S
C461 C460 1.367 . S
C461 C463 1.433 . S
C462 C458 1.350 . S
C462 C459 1.463 . S
C462 N466 1.427 . S
C463 H453 0.929 . S
C463 C461 1.433 . S
C463 N466 1.384 . S
C464 H455 0.929 . S
C464 C456 1.378 . S
C464 C459 1.350 . S
C465 H452 0.929 . S
C465 C457 1.433 . S
C465 N467 1.384 . S
N466 C462 1.427 . S
N466 C463 1.384 . S
N467 C459 1.427 . S
N467 C465 1.384 . S
H468 C474 0.930 . S
H469 C478 0.930 . S
H470 C483 0.929 . S
H471 C481 0.929 . S
H472 C476 0.929 . S
H473 C482 0.929 . S
C474 H468 0.930 . S
C474 C475 1.367 . S
C474 C482 1.378 . S
C475 C474 1.367 . S
C475 C483 1.433 . S
C476 H472 0.929 . S
C476 C478 1.378 . S
C476 C480 1.350 . S
C477 C480 1.463 . S
C477 C482 1.350 . S
C477 N485 1.427 . S
C478 H469 0.930 . S
C478 C476 1.378 . S
C478 C479 1.367 . S
C479 C478 1.367 . S
C479 C481 1.433 . S
C480 C476 1.350 . S
C480 C477 1.463 . S
C480 N484 1.427 . S
C481 H471 0.929 . S
C481 C479 1.433 . S
C481 N484 1.384 . S
C482 H473 0.929 . S
C482 C474 1.378 . S
C482 C477 1.350 . S
C483 H470 0.929 . S
C483 C475 1.433 . S
C483 N485 1.384 . S
N484 C480 1.427 . S
N484 C481 1.384 . S
N485 C477 1.427 . S
N485 C483 1.384 . S
H486 C492 0.930 . S
H487 C496 0.930 . S
H488 C501 0.929 . S
H489 C499 0.929 . S
H490 C494 0.929 . S
H491 C500 0.929 . S
C492 H486 0.930 . S
C492 C493 1.367 . S
C492 C500 1.378 . S
C493 C492 1.367 . S
C493 C501 1.433 . S
C494 H490 0.929 . S
C494 C496 1.378 . S
C494 C498 1.350 . S
C495 C498 1.463 . S
C495 C500 1.350 . S
C495 N503 1.427 . S
C496 H487 0.930 . S
C496 C494 1.378 . S
C496 C497 1.367 . S
C497 C496 1.367 . S
C497 C499 1.433 . S
C498 C494 1.350 . S
C498 C495 1.463 . S
C498 N502 1.427 . S
C499 H489 0.929 . S
C499 C497 1.433 . S
C499 N502 1.384 . S
C500 H491 0.929 . S
C500 C492 1.378 . S
C500 C495 1.350 . S
C501 H488 0.929 . S
C501 C493 1.433 . S
C501 N503 1.384 . S
N502 C498 1.427 . S
N502 C499 1.384 . S
N503 C495 1.427 . S
N503 C501 1.384 . S
H504 C510 0.930 . S
H505 C514 0.930 . S
H506 C519 0.929 . S
H507 C517 0.929 . S
H508 C512 0.929 . S
H509 C518 0.929 . S
C510 H504 0.930 . S
C510 C511 1.367 . S
C510 C518 1.378 . S
C511 C510 1.367 . S
C511 C519 1.433 . S
C512 H508 0.929 . S
C512 C514 1.378 . S
C512 C516 1.350 . S
C513 C516 1.463 . S
C513 C518 1.350 . S
C513 N521 1.427 . S
C514 H505 0.930 . S
C514 C512 1.378 . S
C514 C515 1.367 . S
C515 C514 1.367 . S
C515 C517 1.433 . S
C516 C512 1.350 . S
C516 C513 1.463 . S
C516 N520 1.427 . S
C517 H507 0.929 . S
C517 C515 1.433 . S
C517 N520 1.384 . S
C518 H509 0.929 . S
C518 C510 1.378 . S
C518 C513 1.350 . S
C519 H506 0.929 . S
C519 C511 1.433 . S
C519 N521 1.384 . S
N520 C516 1.427 . S
N520 C517 1.384 . S
N521 C513 1.427 . S
N521 C519 1.384 . S
H522 C528 0.930 . S
H523 C532 0.930 . S
H524 C537 0.929 . S
H525 C535 0.929 . S
H526 C530 0.929 . S
H527 C536 0.929 . S
C528 H522 0.930 . S
C528 C529 1.367 . S
C528 C536 1.378 . S
C529 C528 1.367 . S
C529 C537 1.433 . S
C530 H526 0.929 . S
C530 C532 1.378 . S
C530 C534 1.350 . S
C531 C534 1.463 . S
C531 C536 1.350 . S
C531 N539 1.427 . S
C532 H523 0.930 . S
C532 C530 1.378 . S
C532 C533 1.367 . S
C533 C532 1.367 . S
C533 C535 1.433 . S
C534 C530 1.350 . S
C534 C531 1.463 . S
C534 N538 1.427 . S
C535 H525 0.929 . S
C535 C533 1.433 . S
C535 N538 1.384 . S
C536 H527 0.929 . S
C536 C528 1.378 . S
C536 C531 1.350 . S
C537 H524 0.929 . S
C537 C529 1.433 . S
C537 N539 1.384 . S
N538 C534 1.427 . S
N538 C535 1.384 . S
N539 C531 1.427 . S
N539 C537 1.384 . S
H540 C546 0.930 . S
H541 C550 0.930 . S
H542 C555 0.929 . S
H543 C553 0.929 . S
H544 C548 0.929 . S
H545 C554 0.929 . S
C546 H540 0.930 . S
C546 C547 1.367 . S
C546 C554 1.378 . S
C547 C546 1.367 . S
C547 C555 1.433 . S
C548 H544 0.929 . S
C548 C550 1.378 . S
C548 C552 1.350 . S
C549 C552 1.463 . S
C549 C554 1.350 . S
C549 N557 1.427 . S
C550 H541 0.930 . S
C550 C548 1.378 . S
C550 C551 1.367 . S
C551 C550 1.367 . S
C551 C553 1.433 . S
C552 C548 1.350 . S
C552 C549 1.463 . S
C552 N556 1.427 . S
C553 H543 0.929 . S
C553 C551 1.433 . S
C553 N556 1.384 . S
C554 H545 0.929 . S
C554 C546 1.378 . S
C554 C549 1.350 . S
C555 H542 0.929 . S
C555 C547 1.433 . S
C555 N557 1.384 . S
N556 C552 1.427 . S
N556 C553 1.384 . S
N557 C549 1.427 . S
N557 C555 1.384 . S
H558 C564 0.930 . S
H559 C568 0.930 . S
H560 C573 0.929 . S
H561 C571 0.929 . S
H562 C566 0.929 . S
H563 C572 0.929 . S
C564 H558 0.930 . S
C564 C565 1.367 . S
C564 C572 1.378 . S
C565 C564 1.367 . S
C565 C573 1.433 . S
C566 H562 0.929 . S
C566 C568 1.378 . S
C566 C570 1.350 . S
C567 C570 1.463 . S
C567 C572 1.350 . S
C567 N575 1.427 . S
C568 H559 0.930 . S
C568 C566 1.378 . S
C568 C569 1.367 . S
C569 C568 1.367 . S
C569 C571 1.433 . S
C570 C566 1.350 . S
C570 C567 1.463 . S
C570 N574 1.427 . S
C571 H561 0.929 . S
C571 C569 1.433 . S
C571 N574 1.384 . S
C572 H563 0.929 . S
C572 C564 1.378 . S
C572 C567 1.350 . S
C573 H560 0.929 . S
C573 C565 1.433 . S
C573 N575 1.384 . S
N574 C570 1.427 . S
N574 C571 1.384 . S
N575 C567 1.427 . S
N575 C573 1.384 . S
H576 C582 0.930 . S
H577 C586 0.930 . S
H578 C591 0.929 . S
H579 C589 0.929 . S
H580 C584 0.929 . S
H581 C590 0.929 . S
C582 H576 0.930 . S
C582 C583 1.367 . S
C582 C590 1.378 . S
C583 C582 1.367 . S
C583 C591 1.433 . S
C584 H580 0.929 . S
C584 C586 1.378 . S
C584 C588 1.350 . S
C585 C588 1.463 . S
C585 C590 1.350 . S
C585 N593 1.427 . S
C586 H577 0.930 . S
C586 C584 1.378 . S
C586 C587 1.367 . S
C587 C586 1.367 . S
C587 C589 1.433 . S
C588 C584 1.350 . S
C588 C585 1.463 . S
C588 N592 1.427 . S
C589 H579 0.929 . S
C589 C587 1.433 . S
C589 N592 1.384 . S
C590 H581 0.929 . S
C590 C582 1.378 . S
C590 C585 1.350 . S
C591 H578 0.929 . S
C591 C583 1.433 . S
C591 N593 1.384 . S
N592 C588 1.427 . S
N592 C589 1.384 . S
N593 C585 1.427 . S
N593 C591 1.384 . S
H594 C600 0.930 . S
H595 C604 0.930 . S
H596 C609 0.929 . S
H597 C607 0.929 . S
H598 C602 0.929 . S
H599 C608 0.929 . S
C600 H594 0.930 . S
C600 C601 1.367 . S
C600 C608 1.378 . S
C601 C600 1.367 . S
C601 C609 1.433 . S
C602 H598 0.929 . S
C602 C604 1.378 . S
C602 C606 1.350 . S
C603 C606 1.463 . S
C603 C608 1.350 . S
C603 N611 1.427 . S
C604 H595 0.930 . S
C604 C602 1.378 . S
C604 C605 1.367 . S
C605 C604 1.367 . S
C605 C607 1.433 . S
C606 C602 1.350 . S
C606 C603 1.463 . S
C606 N610 1.427 . S
C607 H597 0.929 . S
C607 C605 1.433 . S
C607 N610 1.384 . S
C608 H599 0.929 . S
C608 C600 1.378 . S
C608 C603 1.350 . S
C609 H596 0.929 . S
C609 C601 1.433 . S
C609 N611 1.384 . S
N610 C606 1.427 . S
N610 C607 1.384 . S
N611 C603 1.427 . S
N611 C609 1.384 . S
H612 C618 0.930 . S
H613 C622 0.930 . S
H614 C627 0.929 . S
H615 C625 0.929 . S
H616 C620 0.929 . S
H617 C626 0.929 . S
C618 H612 0.930 . S
C618 C619 1.367 . S
C618 C626 1.378 . S
C619 C618 1.367 . S
C619 C627 1.433 . S
C620 H616 0.929 . S
C620 C622 1.378 . S
C620 C624 1.350 . S
C621 C624 1.463 . S
C621 C626 1.350 . S
C621 N629 1.427 . S
C622 H613 0.930 . S
C622 C620 1.378 . S
C622 C623 1.367 . S
C623 C622 1.367 . S
C623 C625 1.433 . S
C624 C620 1.350 . S
C624 C621 1.463 . S
C624 N628 1.427 . S
C625 H615 0.929 . S
C625 C623 1.433 . S
C625 N628 1.384 . S
C626 H617 0.929 . S
C626 C618 1.378 . S
C626 C621 1.350 . S
C627 H614 0.929 . S
C627 C619 1.433 . S
C627 N629 1.384 . S
N628 C624 1.427 . S
N628 C625 1.384 . S
N629 C621 1.427 . S
N629 C627 1.384 . S
H630 C636 0.930 . S
H631 C640 0.930 . S
H632 C645 0.929 . S
H633 C643 0.929 . S
H634 C638 0.929 . S
H635 C644 0.929 . S
C636 H630 0.930 . S
C636 C637 1.367 . S
C636 C644 1.378 . S
C637 C636 1.367 . S
C637 C645 1.433 . S
C638 H634 0.929 . S
C638 C640 1.378 . S
C638 C642 1.350 . S
C639 C642 1.463 . S
C639 C644 1.350 . S
C639 N647 1.427 . S
C640 H631 0.930 . S
C640 C638 1.378 . S
C640 C641 1.367 . S
C641 C640 1.367 . S
C641 C643 1.433 . S
C642 C638 1.350 . S
C642 C639 1.463 . S
C642 N646 1.427 . S
C643 H633 0.929 . S
C643 C641 1.433 . S
C643 N646 1.384 . S
C644 H635 0.929 . S
C644 C636 1.378 . S
C644 C639 1.350 . S
C645 H632 0.929 . S
C645 C637 1.433 . S
C645 N647 1.384 . S
N646 C642 1.427 . S
N646 C643 1.384 . S
N647 C639 1.427 . S
N647 C645 1.384 . S
H648 C654 0.930 . S
H649 C658 0.930 . S
H650 C663 0.929 . S
H651 C661 0.929 . S
H652 C656 0.929 . S
H653 C662 0.929 . S
C654 H648 0.930 . S
C654 C655 1.367 . S
C654 C662 1.378 . S
C655 C654 1.367 . S
C655 C663 1.433 . S
C656 H652 0.929 . S
C656 C658 1.378 . S
C656 C660 1.350 . S
C657 C660 1.463 . S
C657 C662 1.350 . S
C657 N665 1.427 . S
C658 H649 0.930 . S
C658 C656 1.378 . S
C658 C659 1.367 . S
C659 C658 1.367 . S
C659 C661 1.433 . S
C660 C656 1.350 . S
C660 C657 1.463 . S
C660 N664 1.427 . S
C661 H651 0.929 . S
C661 C659 1.433 . S
C661 N664 1.384 . S
C662 H653 0.929 . S
C662 C654 1.378 . S
C662 C657 1.350 . S
C663 H650 0.929 . S
C663 C655 1.433 . S
C663 N665 1.384 . S
N664 C660 1.427 . S
N664 C661 1.384 . S
N665 C657 1.427 . S
N665 C663 1.384 . S
H666 C672 0.930 . S
H667 C676 0.930 . S
H668 C681 0.929 . S
H669 C679 0.929 . S
H670 C674 0.929 . S
H671 C680 0.929 . S
C672 H666 0.930 . S
C672 C673 1.367 . S
C672 C680 1.378 . S
C673 C672 1.367 . S
C673 C681 1.433 . S
C674 H670 0.929 . S
C674 C676 1.378 . S
C674 C678 1.350 . S
C675 C678 1.463 . S
C675 C680 1.350 . S
C675 N683 1.427 . S
C676 H667 0.930 . S
C676 C674 1.378 . S
C676 C677 1.367 . S
C677 C676 1.367 . S
C677 C679 1.433 . S
C678 C674 1.350 . S
C678 C675 1.463 . S
C678 N682 1.427 . S
C679 H669 0.929 . S
C679 C677 1.433 . S
C679 N682 1.384 . S
C680 H671 0.929 . S
C680 C672 1.378 . S
C680 C675 1.350 . S
C681 H668 0.929 . S
C681 C673 1.433 . S
C681 N683 1.384 . S
N682 C678 1.427 . S
N682 C679 1.384 . S
N683 C675 1.427 . S
N683 C681 1.384 . S
H684 C690 0.930 . S
H685 C694 0.930 . S
H686 C699 0.929 . S
H687 C697 0.929 . S
H688 C692 0.929 . S
H689 C698 0.929 . S
C690 H684 0.930 . S
C690 C691 1.367 . S
C690 C698 1.378 . S
C691 C690 1.367 . S
C691 C699 1.433 . S
C692 H688 0.929 . S
C692 C694 1.378 . S
C692 C696 1.350 . S
C693 C696 1.463 . S
C693 C698 1.350 . S
C693 N701 1.427 . S
C694 H685 0.930 . S
C694 C692 1.378 . S
C694 C695 1.367 . S
C695 C694 1.367 . S
C695 C697 1.433 . S
C696 C692 1.350 . S
C696 C693 1.463 . S
C696 N700 1.427 . S
C697 H687 0.929 . S
C697 C695 1.433 . S
C697 N700 1.384 . S
C698 H689 0.929 . S
C698 C690 1.378 . S
C698 C693 1.350 . S
C699 H686 0.929 . S
C699 C691 1.433 . S
C699 N701 1.384 . S
N700 C696 1.427 . S
N700 C697 1.384 . S
N701 C693 1.427 . S
N701 C699 1.384 . S
H702 C708 0.930 . S
H703 C712 0.930 . S
H704 C717 0.929 . S
H705 C715 0.929 . S
H706 C710 0.929 . S
H707 C716 0.929 . S
C708 H702 0.930 . S
C708 C709 1.367 . S
C708 C716 1.378 . S
C709 C708 1.367 . S
C709 C717 1.433 . S
C710 H706 0.929 . S
C710 C712 1.378 . S
C710 C714 1.350 . S
C711 C714 1.463 . S
C711 C716 1.350 . S
C711 N719 1.427 . S
C712 H703 0.930 . S
C712 C710 1.378 . S
C712 C713 1.367 . S
C713 C712 1.367 . S
C713 C715 1.433 . S
C714 C710 1.350 . S
C714 C711 1.463 . S
C714 N718 1.427 . S
C715 H705 0.929 . S
C715 C713 1.433 . S
C715 N718 1.384 . S
C716 H707 0.929 . S
C716 C708 1.378 . S
C716 C711 1.350 . S
C717 H704 0.929 . S
C717 C709 1.433 . S
C717 N719 1.384 . S
N718 C714 1.427 . S
N718 C715 1.384 . S
N719 C711 1.427 . S
N719 C717 1.384 . S
H720 C726 0.930 . S
H721 C730 0.930 . S
H722 C735 0.929 . S
H723 C733 0.929 . S
H724 C728 0.929 . S
H725 C734 0.929 . S
C726 H720 0.930 . S
C726 C727 1.367 . S
C726 C734 1.378 . S
C727 C726 1.367 . S
C727 C735 1.433 . S
C728 H724 0.929 . S
C728 C730 1.378 . S
C728 C732 1.350 . S
C729 C732 1.463 . S
C729 C734 1.350 . S
C729 N737 1.427 . S
C730 H721 0.930 . S
C730 C728 1.378 . S
C730 C731 1.367 . S
C731 C730 1.367 . S
C731 C733 1.433 . S
C732 C728 1.350 . S
C732 C729 1.463 . S
C732 N736 1.427 . S
C733 H723 0.929 . S
C733 C731 1.433 . S
C733 N736 1.384 . S
C734 H725 0.929 . S
C734 C726 1.378 . S
C734 C729 1.350 . S
C735 H722 0.929 . S
C735 C727 1.433 . S
C735 N737 1.384 . S
N736 C732 1.427 . S
N736 C733 1.384 . S
N737 C729 1.427 . S
N737 C735 1.384 . S
H738 C744 0.930 . S
H739 C748 0.930 . S
H740 C753 0.929 . S
H741 C751 0.929 . S
H742 C746 0.929 . S
H743 C752 0.929 . S
C744 H738 0.930 . S
C744 C745 1.367 . S
C744 C752 1.378 . S
C745 C744 1.367 . S
C745 C753 1.433 . S
C746 H742 0.929 . S
C746 C748 1.378 . S
C746 C750 1.350 . S
C747 C750 1.463 . S
C747 C752 1.350 . S
C747 N755 1.427 . S
C748 H739 0.930 . S
C748 C746 1.378 . S
C748 C749 1.367 . S
C749 C748 1.367 . S
C749 C751 1.433 . S
C750 C746 1.350 . S
C750 C747 1.463 . S
C750 N754 1.427 . S
C751 H741 0.929 . S
C751 C749 1.433 . S
C751 N754 1.384 . S
C752 H743 0.929 . S
C752 C744 1.378 . S
C752 C747 1.350 . S
C753 H740 0.929 . S
C753 C745 1.433 . S
C753 N755 1.384 . S
N754 C750 1.427 . S
N754 C751 1.384 . S
N755 C747 1.427 . S
N755 C753 1.384 . S
H756 C762 0.930 . S
H757 C766 0.930 . S
H758 C771 0.929 . S
H759 C769 0.929 . S
H760 C764 0.929 . S
H761 C770 0.929 . S
C762 H756 0.930 . S
C762 C763 1.367 . S
C762 C770 1.378 . S
C763 C762 1.367 . S
C763 C771 1.433 . S
C764 H760 0.929 . S
C764 C766 1.378 . S
C764 C768 1.350 . S
C765 C768 1.463 . S
C765 C770 1.350 . S
C765 N773 1.427 . S
C766 H757 0.930 . S
C766 C764 1.378 . S
C766 C767 1.367 . S
C767 C766 1.367 . S
C767 C769 1.433 . S
C768 C764 1.350 . S
C768 C765 1.463 . S
C768 N772 1.427 . S
C769 H759 0.929 . S
C769 C767 1.433 . S
C769 N772 1.384 . S
C770 H761 0.929 . S
C770 C762 1.378 . S
C770 C765 1.350 . S
C771 H758 0.929 . S
C771 C763 1.433 . S
C771 N773 1.384 . S
N772 C768 1.427 . S
N772 C769 1.384 . S
N773 C765 1.427 . S
N773 C771 1.384 . S
H774 C780 0.930 . S
H775 C784 0.930 . S
H776 C789 0.929 . S
H777 C787 0.929 . S
H778 C782 0.929 . S
H779 C788 0.929 . S
C780 H774 0.930 . S
C780 C781 1.367 . S
C780 C788 1.378 . S
C781 C780 1.367 . S
C781 C789 1.433 . S
C782 H778 0.929 . S
C782 C784 1.378 . S
C782 C786 1.350 . S
C783 C786 1.463 . S
C783 C788 1.350 . S
C783 N791 1.427 . S
C784 H775 0.930 . S
C784 C782 1.378 . S
C784 C785 1.367 . S
C785 C784 1.367 . S
C785 C787 1.433 . S
C786 C782 1.350 . S
C786 C783 1.463 . S
C786 N790 1.427 . S
C787 H777 0.929 . S
C787 C785 1.433 . S
C787 N790 1.384 . S
C788 H779 0.929 . S
C788 C780 1.378 . S
C788 C783 1.350 . S
C789 H776 0.929 . S
C789 C781 1.433 . S
C789 N791 1.384 . S
N790 C786 1.427 . S
N790 C787 1.384 . S
N791 C783 1.427 . S
N791 C789 1.384 . S
H792 C798 0.930 . S
H793 C802 0.930 . S
H794 C807 0.929 . S
H795 C805 0.929 . S
H796 C800 0.929 . S
H797 C806 0.929 . S
C798 H792 0.930 . S
C798 C799 1.367 . S
C798 C806 1.378 . S
C799 C798 1.367 . S
C799 C807 1.433 . S
C800 H796 0.929 . S
C800 C802 1.378 . S
C800 C804 1.350 . S
C801 C804 1.463 1_556 S
C801 C806 1.350 . S
C801 N809 1.427 . S
C802 H793 0.930 . S
C802 C800 1.378 . S
C802 C803 1.367 . S
C803 C802 1.367 . S
C803 C805 1.433 . S
C804 C800 1.350 . S
C804 C801 1.463 1_554 S
C804 N808 1.427 . S
C805 H795 0.929 . S
C805 C803 1.433 . S
C805 N808 1.384 . S
C806 H797 0.929 . S
C806 C798 1.378 . S
C806 C801 1.350 . S
C807 H794 0.929 . S
C807 C799 1.433 . S
C807 N809 1.384 . S
N808 C804 1.427 . S
N808 C805 1.384 . S
N809 C801 1.427 . S
N809 C807 1.384 . S
H810 C816 0.930 . S
H811 C820 0.930 . S
H812 C825 0.929 . S
H813 C823 0.929 . S
H814 C818 0.929 . S
H815 C824 0.929 . S
C816 H810 0.930 . S
C816 C817 1.367 . S
C816 C824 1.378 . S
C817 C816 1.367 . S
C817 C825 1.433 . S
C818 H814 0.929 . S
C818 C820 1.378 . S
C818 C822 1.350 . S
C819 C822 1.463 1_455 S
C819 C824 1.350 . S
C819 N827 1.427 . S
C820 H811 0.930 . S
C820 C818 1.378 . S
C820 C821 1.367 . S
C821 C820 1.367 . S
C821 C823 1.433 . S
C822 C818 1.350 . S
C822 C819 1.463 1_655 S
C822 N826 1.427 . S
C823 H813 0.929 . S
C823 C821 1.433 . S
C823 N826 1.384 . S
C824 H815 0.929 . S
C824 C816 1.378 . S
C824 C819 1.350 . S
C825 H812 0.929 . S
C825 C817 1.433 . S
C825 N827 1.384 . S
N826 C822 1.427 . S
N826 C823 1.384 . S
N827 C819 1.427 . S
N827 C825 1.384 . S
H828 C834 0.930 . S
H829 C838 0.930 . S
H830 C843 0.929 1_545 S
H831 C841 0.929 1_565 S
H832 C836 0.929 . S
H833 C842 0.929 . S
C834 H828 0.930 . S
C834 C835 1.367 . S
C834 C842 1.378 . S
C835 C834 1.367 . S
C835 C843 1.433 . S
C836 H832 0.929 . S
C836 C838 1.378 . S
C836 C840 1.350 . S
C837 C840 1.463 1_564 S
C837 C842 1.350 . S
C837 N845 1.427 1_565 S
C838 H829 0.930 . S
C838 C836 1.378 . S
C838 C839 1.367 . S
C839 C838 1.367 . S
C839 C841 1.433 . S
C840 C836 1.350 . S
C840 C837 1.463 1_546 S
C840 N844 1.427 1_545 S
C841 H831 0.929 1_545 S
C841 C839 1.433 . S
C841 N844 1.384 1_545 S
C842 H833 0.929 . S
C842 C834 1.378 . S
C842 C837 1.350 . S
C843 H830 0.929 1_565 S
C843 C835 1.433 . S
C843 N845 1.384 1_565 S
N844 C840 1.427 1_565 S
N844 C841 1.384 1_565 S
N845 C837 1.427 1_545 S
N845 C843 1.384 1_545 S
H846 C852 0.930 . S
H847 C856 0.930 . S
H848 C861 0.929 . S
H849 C859 0.929 . S
H850 C854 0.929 . S
H851 C860 0.929 . S
C852 H846 0.930 . S
C852 C853 1.367 . S
C852 C860 1.378 . S
C853 C852 1.367 . S
C853 C861 1.433 . S
C854 H850 0.929 . S
C854 C856 1.378 . S
C854 C858 1.350 . S
C855 C858 1.463 . S
C855 C860 1.350 . S
C855 N863 1.427 . S
C856 H847 0.930 . S
C856 C854 1.378 . S
C856 C857 1.367 . S
C857 C856 1.367 . S
C857 C859 1.433 . S
C858 C854 1.350 . S
C858 C855 1.463 . S
C858 N862 1.427 . S
C859 H849 0.929 . S
C859 C857 1.433 . S
C859 N862 1.384 . S
C860 H851 0.929 . S
C860 C852 1.378 . S
C860 C855 1.350 . S
C861 H848 0.929 . S
C861 C853 1.433 . S
C861 N863 1.384 . S
N862 C858 1.427 . S
N862 C859 1.384 . S
N863 C855 1.427 . S
N863 C861 1.384 . S
H864 C870 0.930 . S
H865 C874 0.930 . S
H866 C879 0.929 1_455 S
H867 C877 0.929 1_655 S
H868 C872 0.929 . S
H869 C878 0.929 . S
C870 H864 0.930 . S
C870 C871 1.367 . S
C870 C878 1.378 . S
C871 C870 1.367 . S
C871 C879 1.433 . S
C872 H868 0.929 . S
C872 C874 1.378 . S
C872 C876 1.350 . S
C873 C876 1.463 1_656 S
C873 C878 1.350 . S
C873 N881 1.427 1_655 S
C874 H865 0.930 . S
C874 C872 1.378 . S
C874 C875 1.367 . S
C875 C874 1.367 . S
C875 C877 1.433 . S
C876 C872 1.350 . S
C876 C873 1.463 1_454 S
C876 N880 1.427 1_455 S
C877 H867 0.929 1_455 S
C877 C875 1.433 . S
C877 N880 1.384 1_455 S
C878 H869 0.929 . S
C878 C870 1.378 . S
C878 C873 1.350 . S
C879 H866 0.929 1_655 S
C879 C871 1.433 . S
C879 N881 1.384 1_655 S
N880 C876 1.427 1_655 S
N880 C877 1.384 1_655 S
N881 C873 1.427 1_455 S
N881 C879 1.384 1_455 S
H882 C888 0.930 1_545 S
H883 C892 0.930 1_565 S
H884 C897 0.929 . S
H885 C895 0.929 . S
H886 C890 0.929 . S
H887 C896 0.929 . S
C888 H882 0.930 1_565 S
C888 C889 1.367 . S
C888 C896 1.378 1_565 S
C889 C888 1.367 . S
C889 C897 1.433 . S
C890 H886 0.929 . S
C890 C892 1.378 1_565 S
C890 C894 1.350 1_565 S
C891 C894 1.463 1_565 S
C891 C896 1.350 1_565 S
C891 N899 1.427 . S
C892 H883 0.930 1_545 S
C892 C890 1.378 1_545 S
C892 C893 1.367 . S
C893 C892 1.367 . S
C893 C895 1.433 . S
C894 C890 1.350 1_545 S
C894 C891 1.463 1_545 S
C894 N898 1.427 . S
C895 H885 0.929 . S
C895 C893 1.433 . S
C895 N898 1.384 . S
C896 H887 0.929 . S
C896 C888 1.378 1_545 S
C896 C891 1.350 1_545 S
C897 H884 0.929 . S
C897 C889 1.433 . S
C897 N899 1.384 . S
N898 C894 1.427 . S
N898 C895 1.384 . S
N899 C891 1.427 . S
N899 C897 1.384 . S
C259 C91 0.868 . S
C263 C19 0.866 . S
C277 C112 0.858 . S
C281 C41 0.877 1_455 S
C295 C61 0.876 1_545 S
C299 C7 0.867 . S
C313 C82 0.853 . S
C317 C25 0.888 . S
C331 C103 0.857 1_655 S
C335 C49 0.885 . S
C349 C70 0.874 . S
C353 C124 0.860 1_565 S
C367 C175 0.878 . S
C371 C146 0.865 . S
C385 C166 0.859 1_455 S
C389 C196 0.874 . S
C403 C217 0.854 . S
C407 C187 0.882 1_545 S
C421 C208 0.845 . S
C425 C238 0.890 . S
C439 C229 0.844 1_655 S
C443 C130 0.891 . S
C457 C154 0.883 . S
C461 C250 0.859 1_565 S
C475 C88 0.904 . S
C479 C3 0.995 . S
C493 C37 1.010 . S
C497 C109 0.887 . S
C511 C45 0.995 . S
C515 C4 0.863 . S
C529 C66 1.014 . S
C533 C28 0.866 . S
C547 C46 0.863 . S
C551 C87 0.996 . S
C565 C67 0.884 . S
C569 C108 0.983 . S
C583 C172 0.870 . S
C587 C142 0.990 . S
C601 C150 1.002 . S
C605 C193 0.899 . S
C619 C171 0.986 . S
C623 C214 0.875 . S
C637 C235 0.892 . S
C641 C192 1.008 . S
C655 C213 0.985 . S
C659 C133 0.879 . S
C673 C151 0.861 . S
C677 C234 0.999 . S
C691 C226 1.390 . S
C695 C16 1.409 . S
C709 C24 1.408 . S
C713 C247 1.392 . S
C727 C58 1.389 . S
C731 C129 1.391 . S
C745 C79 1.399 . S
C749 C163 1.384 . S
C763 C100 1.383 . S
C767 C184 1.401 . S
C781 C205 1.408 . S
C785 C121 1.392 . S
C799 C209 1.369 . S
C803 C20 1.379 . S
C817 C230 1.386 . S
C821 C40 1.371 . S
C835 C62 1.369 . S
C839 C251 1.379 . S
C853 C83 1.369 . S
C857 C145 1.382 . S
C871 C167 1.370 . S
C875 C104 1.375 . S
C889 C188 1.387 . S
C893 C125 1.383 . S
