# Generated by pormake.
# Topology une, (4)-cn, num edge types: 1
# Building blocks:
#     Node 0, Type 0, BuildingBlock: UXUYUI_clean_sbu_0, # of connection points: 4
#     Node 1, Type 0, BuildingBlock: UXUYUI_clean_sbu_0, # of connection points: 4
#     Node 2, Type 0, BuildingBlock: UXUYUI_clean_sbu_0, # of connection points: 4
#     Node 3, Type 0, BuildingBlock: UXUYUI_clean_sbu_0, # of connection points: 4
#     Node 4, Type 0, BuildingBlock: UXUYUI_clean_sbu_0, # of connection points: 4
#     Node 5, Type 0, BuildingBlock: UXUYUI_clean_sbu_0, # of connection points: 4
#     Node 6, Type 0, BuildingBlock: UXUYUI_clean_sbu_0, # of connection points: 4
#     Node 7, Type 0, BuildingBlock: UXUYUI_clean_sbu_0, # of connection points: 4
#     Node 8, Type 0, BuildingBlock: UXUYUI_clean_sbu_0, # of connection points: 4
#     Node 9, Type 0, BuildingBlock: UXUYUI_clean_sbu_0, # of connection points: 4
#     Node 10, Type 0, BuildingBlock: UXUYUI_clean_sbu_0, # of connection points: 4
#     Node 11, Type 0, BuildingBlock: UXUYUI_clean_sbu_0, # of connection points: 4
#     Node 12, Type 0, BuildingBlock: UXUYUI_clean_sbu_0, # of connection points: 4
#     Node 13, Type 0, BuildingBlock: UXUYUI_clean_sbu_0, # of connection points: 4
#     Node 14, Type 0, BuildingBlock: UXUYUI_clean_sbu_0, # of connection points: 4
#     Node 15, Type 0, BuildingBlock: UXUYUI_clean_sbu_0, # of connection points: 4
#     Node 16, Type 0, BuildingBlock: UXUYUI_clean_sbu_0, # of connection points: 4
#     Node 17, Type 0, BuildingBlock: UXUYUI_clean_sbu_0, # of connection points: 4
#     Edge 18, Type (0, 0), BuildingBlock: UVAHIK_clean_linker_0, # of connection points: 2
#     Edge 19, Type (0, 0), BuildingBlock: UVAHIK_clean_linker_0, # of connection points: 2
#     Edge 20, Type (0, 0), BuildingBlock: UVAHIK_clean_linker_0, # of connection points: 2
#     Edge 21, Type (0, 0), BuildingBlock: UVAHIK_clean_linker_0, # of connection points: 2
#     Edge 22, Type (0, 0), BuildingBlock: UVAHIK_clean_linker_0, # of connection points: 2
#     Edge 23, Type (0, 0), BuildingBlock: UVAHIK_clean_linker_0, # of connection points: 2
#     Edge 24, Type (0, 0), BuildingBlock: UVAHIK_clean_linker_0, # of connection points: 2
#     Edge 25, Type (0, 0), BuildingBlock: UVAHIK_clean_linker_0, # of connection points: 2
#     Edge 26, Type (0, 0), BuildingBlock: UVAHIK_clean_linker_0, # of connection points: 2
#     Edge 27, Type (0, 0), BuildingBlock: UVAHIK_clean_linker_0, # of connection points: 2
#     Edge 28, Type (0, 0), BuildingBlock: UVAHIK_clean_linker_0, # of connection points: 2
#     Edge 29, Type (0, 0), BuildingBlock: UVAHIK_clean_linker_0, # of connection points: 2
#     Edge 30, Type (0, 0), BuildingBlock: UVAHIK_clean_linker_0, # of connection points: 2
#     Edge 31, Type (0, 0), BuildingBlock: UVAHIK_clean_linker_0, # of connection points: 2
#     Edge 32, Type (0, 0), BuildingBlock: UVAHIK_clean_linker_0, # of connection points: 2
#     Edge 33, Type (0, 0), BuildingBlock: UVAHIK_clean_linker_0, # of connection points: 2
#     Edge 34, Type (0, 0), BuildingBlock: UVAHIK_clean_linker_0, # of connection points: 2
#     Edge 35, Type (0, 0), BuildingBlock: UVAHIK_clean_linker_0, # of connection points: 2
#     Edge 36, Type (0, 0), BuildingBlock: UVAHIK_clean_linker_0, # of connection points: 2
#     Edge 37, Type (0, 0), BuildingBlock: UVAHIK_clean_linker_0, # of connection points: 2
#     Edge 38, Type (0, 0), BuildingBlock: UVAHIK_clean_linker_0, # of connection points: 2
#     Edge 39, Type (0, 0), BuildingBlock: UVAHIK_clean_linker_0, # of connection points: 2
#     Edge 40, Type (0, 0), BuildingBlock: UVAHIK_clean_linker_0, # of connection points: 2
#     Edge 41, Type (0, 0), BuildingBlock: UVAHIK_clean_linker_0, # of connection points: 2
#     Edge 42, Type (0, 0), BuildingBlock: UVAHIK_clean_linker_0, # of connection points: 2
#     Edge 43, Type (0, 0), BuildingBlock: UVAHIK_clean_linker_0, # of connection points: 2
#     Edge 44, Type (0, 0), BuildingBlock: UVAHIK_clean_linker_0, # of connection points: 2
#     Edge 45, Type (0, 0), BuildingBlock: UVAHIK_clean_linker_0, # of connection points: 2
#     Edge 46, Type (0, 0), BuildingBlock: UVAHIK_clean_linker_0, # of connection points: 2
#     Edge 47, Type (0, 0), BuildingBlock: UVAHIK_clean_linker_0, # of connection points: 2
#     Edge 48, Type (0, 0), BuildingBlock: UVAHIK_clean_linker_0, # of connection points: 2
#     Edge 49, Type (0, 0), BuildingBlock: UVAHIK_clean_linker_0, # of connection points: 2
#     Edge 50, Type (0, 0), BuildingBlock: UVAHIK_clean_linker_0, # of connection points: 2
#     Edge 51, Type (0, 0), BuildingBlock: UVAHIK_clean_linker_0, # of connection points: 2
#     Edge 52, Type (0, 0), BuildingBlock: UVAHIK_clean_linker_0, # of connection points: 2
#     Edge 53, Type (0, 0), BuildingBlock: UVAHIK_clean_linker_0, # of connection points: 2
# Relax obj value: 0.347
# Max RMSD: 0.226
# Mean RMSD: 0.222
data_MOF--net-une--node1-UXUYUI_clean_sbu_0--edge1-UVAHIK_clean_linker_0
_symmetry_space_group_name_H-M    P1
_symmetry_Int_Tables_number       1
_symmetry_cell_setting            triclinic
loop_
_symmetry_equiv_pos_as_xyz
'x, y, z'
_cell_length_a     65.843473
_cell_length_b     65.784342
_cell_length_c     94.0298
_cell_angle_alpha  89.925615
_cell_angle_beta   89.946195
_cell_angle_gamma 120.01946
loop_
_atom_site_label
_atom_site_type_symbol
_atom_site_fract_x
_atom_site_fract_y
_atom_site_fract_z
_atom_type_partial_charge
Li0 Li 0.34217 0.04306 0.05521 0.0
Li1 Li 0.34527 0.04362 0.08023 0.0
Li2 Li 0.36407 0.02552 0.06509 0.0
Li3 Li 0.32027 0.00676 0.06851 0.0
C4 C 0.38466 0.07938 0.05876 0.0
N5 N 0.4099 0.12022 0.04313 0.0
C6 C 0.37828 0.09671 0.05894 0.0
C7 C 0.40397 0.08292 0.05063 0.0
C8 C 0.39121 0.11719 0.05096 0.0
C9 C 0.4165 0.10367 0.04281 0.0
C10 C 0.30508 0.04268 0.07718 0.0
C11 C 0.27728 0.03672 0.09575 0.0
N12 N 0.2831 0.05962 0.09465 0.0
C13 C 0.31057 0.06609 0.07614 0.0
C14 C 0.28817 0.02782 0.08701 0.0
C15 C 0.29937 0.07435 0.0851 0.0
C16 C 0.32163 0.06222 0.03716 0.0
N17 N 0.34029 0.05886 0.03855 0.0
C18 C 0.35656 0.07891 0.01663 0.0
C19 C 0.35724 0.06631 0.02838 0.0
C20 C 0.33789 0.08326 0.01516 0.0
C21 C 0.32002 0.07439 0.02544 0.0
H22 H 0.30807 0.05561 0.0452 0.0
H23 H 0.37145 0.06269 0.02944 0.0
C24 C 0.36421 0.08491 0.09698 0.0
N25 N 0.3485 0.0615 0.097 0.0
C26 C 0.3637 0.09926 0.10772 0.0
C27 C 0.33205 0.0649 0.11892 0.0
C28 C 0.3333 0.05121 0.108 0.0
C29 C 0.3469 0.08936 0.11861 0.0
H30 H 0.37654 0.09263 0.08834 0.0
H31 H 0.32125 0.03253 0.10792 0.0
C32 C 0.33378 0.00872 0.03693 0.0
N33 N 0.32368 0.00341 0.00822 0.0
C34 C 0.31125 0.00233 0.03221 0.0
C35 C 0.35117 0.01234 0.02707 0.0
C36 C 0.3065 -0.00023 0.01765 0.0
C37 C 0.34571 0.00957 0.01259 0.0
C38 C 0.33684 0.993 0.09065 0.0
C39 C 0.34842 0.9801 0.09 0.0
C40 C 0.31663 0.98482 0.09898 0.0
C41 C 0.33943 0.95905 0.09759 0.0
C42 C 0.30817 0.96368 0.10639 0.0
N43 N 0.31964 0.95134 0.10555 0.0
C44 C 0.41123 0.03419 0.06409 0.0
C45 C 0.38159 0.99833 0.05431 0.0
C46 C 0.42869 0.03035 0.05847 0.0
N47 N 0.38828 0.01866 0.06144 0.0
C48 C 0.39839 0.99365 0.04866 0.0
C49 C 0.4223 0.01016 0.05029 0.0
H50 H 0.416 0.05014 0.06991 0.0
H51 H 0.36317 0.98632 0.05238 0.0
C52 C 0.27181 0.97677 0.06524 0.0
N53 N 0.29219 0.97707 0.06805 0.0
C54 C 0.25123 0.95557 0.06281 0.0
C55 C 0.27285 0.93523 0.06647 0.0
C56 C 0.2931 0.95689 0.06864 0.0
C57 C 0.2516 0.93439 0.06321 0.0
H58 H 0.27176 0.9931 0.06416 0.0
H59 H 0.30967 0.95761 0.07031 0.0
O60 O 0.37209 0.0591 0.06645 0.0
O61 O 0.31631 0.03442 0.06872 0.0
O62 O 0.33888 0.0118 0.05113 0.0
O63 O 0.34541 0.01362 0.08327 0.0
H64 H 0.36334 0.09429 0.06505 0.0
H65 H 0.40901 0.06966 0.0501 0.0
H66 H 0.38634 0.13065 0.05096 0.0
H67 H 0.43137 0.10654 0.03642 0.0
H68 H 0.26432 0.02546 0.10348 0.0
H69 H 0.32339 0.07781 0.06851 0.0
H70 H 0.28379 0.00972 0.0881 0.0
H71 H 0.3036 0.09248 0.08447 0.0
H72 H 0.37048 0.08521 0.00879 0.0
H73 H 0.30534 0.07743 0.02463 0.0
H74 H 0.37551 0.11804 0.10709 0.0
H75 H 0.31914 0.05652 0.12728 0.0
H76 H 0.29767 -0.00028 0.0397 0.0
H77 H 0.36877 0.01755 0.03053 0.0
H78 H 0.28917 0.99496 0.01383 0.0
H79 H 0.35902 0.01242 0.00482 0.0
H80 H 0.3642 0.98626 0.08373 0.0
H81 H 0.30731 0.99443 0.09951 0.0
H82 H 0.34818 0.94886 0.09715 0.0
H83 H 0.29243 0.95705 0.11278 0.0
H84 H 0.44696 0.04337 0.06008 0.0
H85 H 0.39271 0.97797 0.04234 0.0
H86 H 0.23551 0.95596 0.05993 0.0
H87 H 0.27401 0.9194 0.06695 0.0
Li88 Li 0.97112 0.33236 0.06754 0.0
Li89 Li 0.99146 0.31064 0.06966 0.0
Li90 Li 0.95532 0.29397 0.05623 0.0
Li91 Li 0.95552 0.2963 0.08287 0.0
C92 C 0.98402 0.33214 0.03946 0.0
N93 N 0.98237 0.35188 0.01384 0.0
C94 C 0.00327 0.34135 0.03024 0.0
C95 C 0.96392 0.33296 0.03564 0.0
C96 C 0.00208 0.35125 0.01733 0.0
C97 C 0.96343 0.34302 0.02265 0.0
C98 C 0.0021 0.33667 0.09491 0.0
C99 C 0.01915 0.33435 0.11711 0.0
N100 N 0.03766 0.35625 0.11479 0.0
C101 C 0.02119 0.35923 0.0928 0.0
C102 C 0.00096 0.32417 0.10721 0.0
C103 C 0.03904 0.36879 0.10296 0.0
C104 C 0.95716 0.36649 0.06276 0.0
N105 N 0.97558 0.36268 0.06385 0.0
C106 C 0.00115 0.3994 0.05268 0.0
C107 C 0.99739 0.37886 0.05933 0.0
C108 C 0.98222 0.40325 0.05061 0.0
C109 C 0.96016 0.38691 0.0562 0.0
H110 H 0.93988 0.353 0.06609 0.0
H111 H 0.01151 0.37499 0.05991 0.0
C112 C 0.0254 0.3071 0.05505 0.0
N113 N 0.02181 0.31344 0.06814 0.0
C114 C 0.04615 0.30722 0.05196 0.0
C115 C 0.05942 0.32056 0.07589 0.0
C116 C 0.03827 0.32003 0.07856 0.0
C117 C 0.06348 0.31399 0.06246 0.0
H118 H 0.01194 0.30169 0.04701 0.0
H119 H 0.03496 0.32439 0.08901 0.0
C120 C 0.9147 0.28917 0.0694 0.0
N121 N 0.86746 0.25645 0.07135 0.0
C122 C 0.90725 0.26519 0.07005 0.0
C123 C 0.89809 0.29647 0.06973 0.0
C124 C 0.8833 0.24894 0.07104 0.0
C125 C 0.87429 0.27966 0.07071 0.0
C126 C 0.975 0.26432 0.07137 0.0
C127 C 0.97014 0.24682 0.06133 0.0
C128 C 0.99053 0.26788 0.08248 0.0
C129 C 0.98137 0.23363 0.06235 0.0
C130 C 0.00147 0.25438 0.08312 0.0
N131 N 0.99672 0.23769 0.07311 0.0
C132 C 0.95111 0.26868 0.03118 0.0
C133 C 0.9192 0.27503 0.03517 0.0
C134 C 0.94073 0.25632 0.0187 0.0
N135 N 0.93995 0.27716 0.03933 0.0
C136 C 0.90824 0.2629 0.02279 0.0
C137 C 0.91887 0.25312 0.01445 0.0
H138 H 0.96814 0.27159 0.03437 0.0
H139 H 0.91112 0.28288 0.04136 0.0
C140 C 0.91923 0.28163 0.104 0.0
N141 N 0.93772 0.2796 0.09934 0.0
C142 C 0.9035 0.26567 0.11396 0.0
C143 C 0.92737 0.24735 0.1151 0.0
C144 C 0.94228 0.26328 0.10495 0.0
C145 C 0.9071 0.24773 0.11933 0.0
H146 H 0.91595 0.29479 0.09942 0.0
H147 H 0.95701 0.26197 0.10119 0.0
O148 O 0.98514 0.32279 0.05225 0.0
O149 O 0.98428 0.32717 0.08522 0.0
O150 O 0.93809 0.30551 0.06861 0.0
O151 O 0.9643 0.27758 0.07042 0.0
H152 H 0.01899 0.34094 0.03307 0.0
H153 H 0.94891 0.32607 0.04267 0.0
H154 H 0.01686 0.35847 0.0101 0.0
H155 H 0.94802 0.34383 0.01959 0.0
H156 H 0.01855 0.32484 0.12665 0.0
H157 H 0.02226 0.36922 0.08341 0.0
H158 H 0.98622 0.3068 0.10907 0.0
H159 H 0.05397 0.38618 0.10143 0.0
H160 H 0.01847 0.41164 0.04864 0.0
H161 H 0.94507 0.38912 0.05468 0.0
H162 H 0.04868 0.30228 0.04141 0.0
H163 H 0.07225 0.32563 0.08432 0.0
H164 H 0.91976 0.25912 0.0698 0.0
H165 H 0.90351 0.31493 0.06926 0.0
H166 H 0.87732 0.23036 0.07158 0.0
H167 H 0.86126 0.28508 0.07099 0.0
H168 H 0.95758 0.24321 0.05295 0.0
H169 H 0.99445 0.28126 0.0904 0.0
H170 H 0.97781 0.22009 0.05462 0.0
H171 H 0.01376 0.25721 0.09156 0.0
H172 H 0.94977 0.24949 0.01242 0.0
H173 H 0.89138 0.26084 0.01994 0.0
H174 H 0.88811 0.26669 0.11684 0.0
H175 H 0.93136 0.23438 0.11924 0.0
Li176 Li 0.68347 0.67725 0.06874 0.0
Li177 Li 0.69585 0.64968 0.07818 0.0
Li178 Li 0.70058 0.66111 0.05235 0.0
Li179 Li 0.66299 0.63716 0.06281 0.0
C180 C 0.73001 0.69689 0.07942 0.0
N181 N 0.75867 0.72723 0.10029 0.0
C182 C 0.72103 0.6964 0.09299 0.0
C183 C 0.75356 0.71288 0.07648 0.0
C184 C 0.73581 0.71184 0.10339 0.0
C185 C 0.76776 0.72807 0.08717 0.0
C186 C 0.6458 0.63387 0.0877 0.0
C187 C 0.62187 0.59599 0.09865 0.0
N188 N 0.60292 0.59899 0.09772 0.0
C189 C 0.62613 0.63665 0.08691 0.0
C190 C 0.64371 0.61342 0.09365 0.0
C191 C 0.60459 0.61878 0.092 0.0
C192 C 0.65914 0.70161 0.06778 0.0
N193 N 0.68033 0.70435 0.07146 0.0
C194 C 0.69661 0.74585 0.07346 0.0
C195 C 0.69883 0.72591 0.07451 0.0
C196 C 0.67534 0.74371 0.06886 0.0
C197 C 0.65622 0.72113 0.06641 0.0
H198 H 0.64494 0.68439 0.06496 0.0
H199 H 0.71576 0.72805 0.07691 0.0
C200 C 0.73167 0.64399 0.08878 0.0
N201 N 0.712 0.64412 0.09294 0.0
C202 C 0.74708 0.64384 0.09887 0.0
C203 C 0.72128 0.64324 0.1174 0.0
C204 C 0.70633 0.64341 0.10691 0.0
C205 C 0.74223 0.64392 0.11342 0.0
H206 H 0.73588 0.64504 0.07758 0.0
H207 H 0.69077 0.644 0.1099 0.0
C208 C 0.67808 0.68166 0.04011 0.0
N209 N 0.68932 0.71797 0.02114 0.0
C210 C 0.6622 0.6794 0.02951 0.0
C211 C 0.69978 0.70238 0.04096 0.0
C212 C 0.66818 0.69795 0.02004 0.0
C213 C 0.70509 0.72054 0.03131 0.0
C214 C 0.68016 0.60712 0.05793 0.0
C215 C 0.67221 0.59912 0.04417 0.0
C216 C 0.67925 0.59142 0.06829 0.0
C217 C 0.66312 0.57537 0.04104 0.0
C218 C 0.67008 0.56781 0.06472 0.0
N219 N 0.66224 0.56034 0.0513 0.0
C220 C 0.7431 0.67874 0.03725 0.0
C221 C 0.70873 0.65728 0.02339 0.0
C222 C 0.75721 0.68211 0.02539 0.0
N223 N 0.71937 0.66643 0.03603 0.0
C224 C 0.72216 0.65988 0.0113 0.0
C225 C 0.74671 0.67236 0.01227 0.0
H226 H 0.75102 0.68558 0.04747 0.0
H227 H 0.68979 0.64774 0.02274 0.0
C228 C 0.61941 0.61914 0.05006 0.0
N229 N 0.63218 0.61219 0.05791 0.0
C230 C 0.59831 0.60259 0.04389 0.0
C231 C 0.60294 0.57188 0.05479 0.0
C232 C 0.62388 0.5891 0.06089 0.0
C233 C 0.59024 0.57859 0.04583 0.0
H234 H 0.62601 0.6376 0.0482 0.0
H235 H 0.6338 0.58392 0.06759 0.0
O236 O 0.71603 0.68154 0.06915 0.0
O237 O 0.66692 0.65089 0.0825 0.0
O238 O 0.67223 0.66361 0.04952 0.0
O239 O 0.68919 0.63028 0.06123 0.0
H240 H 0.70284 0.68431 0.09547 0.0
H241 H 0.76083 0.7136 0.06605 0.0
H242 H 0.72909 0.71161 0.11393 0.0
H243 H 0.78601 0.74053 0.08503 0.0
H244 H 0.61996 0.58001 0.1032 0.0
H245 H 0.62746 0.65235 0.08232 0.0
H246 H 0.65872 0.6109 0.0942 0.0
H247 H 0.58919 0.62063 0.09139 0.0
H248 H 0.71176 0.76288 0.07558 0.0
H249 H 0.63962 0.71863 0.06257 0.0
H250 H 0.76317 0.64479 0.0953 0.0
H251 H 0.71677 0.64312 0.12849 0.0
H252 H 0.6454 0.66347 0.02857 0.0
H253 H 0.71244 0.70458 0.04897 0.0
H254 H 0.65602 0.69641 0.01182 0.0
H255 H 0.72177 0.73668 0.03191 0.0
H256 H 0.67276 0.61104 0.03606 0.0
H257 H 0.68544 0.59739 0.07897 0.0
H258 H 0.65671 0.56887 0.03047 0.0
H259 H 0.66916 0.55543 0.07263 0.0
H260 H 0.77611 0.69159 0.02656 0.0
H261 H 0.71349 0.65221 0.00133 0.0
H262 H 0.58907 0.60854 0.03707 0.0
H263 H 0.59704 0.55353 0.05678 0.0
Li264 Li 0.6393 0.97285 0.93762 0.0
Li265 Li 0.68086 0.9952 0.93227 0.0
Li266 Li 0.65866 0.9586 0.91906 0.0
Li267 Li 0.66668 0.95922 0.94437 0.0
C268 C 0.66246 0.00779 0.9119 0.0
N269 N 0.68078 0.05081 0.89847 0.0
C270 C 0.6557 0.02387 0.9162 0.0
C271 C 0.67843 0.01352 0.90072 0.0
C272 C 0.66517 0.04554 0.90928 0.0
C273 C 0.68754 0.03538 0.89409 0.0
C274 C 0.67593 0.00529 0.95986 0.0
C275 C 0.70774 0.03013 0.97552 0.0
N276 N 0.69765 0.04353 0.97778 0.0
C277 C 0.66572 0.01913 0.96246 0.0
C278 C 0.69695 0.01064 0.96656 0.0
C279 C 0.67703 0.03846 0.97152 0.0
C280 C 0.60811 0.96723 0.95841 0.0
N281 N 0.61249 0.97321 0.94445 0.0
C282 C 0.5811 0.98154 0.94355 0.0
C283 C 0.59936 0.98008 0.93688 0.0
C284 C 0.5763 0.97552 0.95801 0.0
C285 C 0.58993 0.96809 0.9654 0.0
H286 H 0.61921 0.96234 0.9642 0.0
H287 H 0.60333 0.98483 0.9258 0.0
C288 C 0.72787 0.02898 0.92633 0.0
N289 N 0.70714 0.02643 0.93094 0.0
C290 C 0.74836 0.05078 0.92709 0.0
C291 C 0.72554 0.06734 0.93633 0.0
C292 C 0.7055 0.04522 0.93538 0.0
C293 C 0.74746 0.07016 0.93257 0.0
H294 H 0.72864 0.01393 0.92246 0.0
H295 H 0.68879 0.04294 0.93867 0.0
C296 C 0.62753 0.91899 0.94014 0.0
N297 N 0.61216 0.87525 0.9521 0.0
C298 C 0.63512 0.90417 0.93465 0.0
C299 C 0.61202 0.91149 0.95167 0.0
C300 C 0.62714 0.88213 0.94083 0.0
C301 C 0.60451 0.88935 0.95759 0.0
C302 C 0.70547 0.96434 0.93105 0.0
C303 C 0.70485 0.94562 0.92363 0.0
C304 C 0.72299 0.97642 0.94116 0.0
C305 C 0.72165 0.93916 0.92657 0.0
C306 C 0.73945 0.9694 0.94381 0.0
N307 N 0.73844 0.95107 0.93653 0.0
C308 C 0.67456 0.95051 0.89327 0.0
C309 C 0.63593 0.92118 0.89948 0.0
C310 C 0.67511 0.93663 0.88224 0.0
N311 N 0.65547 0.94227 0.90188 0.0
C312 C 0.63579 0.9066 0.88865 0.0
C313 C 0.6559 0.91394 0.88017 0.0
H314 H 0.68995 0.96726 0.89554 0.0
H315 H 0.62102 0.91505 0.90655 0.0
C316 C 0.66462 0.94633 0.97285 0.0
N317 N 0.67082 0.94254 0.95975 0.0
C318 C 0.66418 0.93292 0.98449 0.0
C319 C 0.67683 0.91211 0.96898 0.0
C320 C 0.67706 0.92594 0.95767 0.0
C321 C 0.66997 0.91527 0.98256 0.0
H322 H 0.65914 0.9592 0.97419 0.0
H323 H 0.68119 0.92261 0.94715 0.0
O324 O 0.65367 0.98664 0.91868 0.0
O325 O 0.66513 0.98632 0.95102 0.0
O326 O 0.63556 0.94085 0.93442 0.0
O327 O 0.68933 0.97111 0.92821 0.0
H328 H 0.64357 0.01982 0.92495 0.0
H329 H 0.6839 0.00129 0.89731 0.0
H330 H 0.66021 0.05822 0.91256 0.0
H331 H 0.70002 0.04011 0.88548 0.0
H332 H 0.7241 0.03456 0.98071 0.0
H333 H 0.64943 0.01522 0.95738 0.0
H334 H 0.70481 -0.00018 0.96488 0.0
H335 H 0.66945 0.04946 0.97353 0.0
H336 H 0.57092 0.98736 0.93753 0.0
H337 H 0.58708 0.96373 0.97661 0.0
H338 H 0.76483 0.0523 0.9238 0.0
H339 H 0.724 0.08175 0.94067 0.0
H340 H 0.64748 0.90983 0.92593 0.0
H341 H 0.60589 0.92264 0.95604 0.0
H342 H 0.63304 0.87058 0.93676 0.0
H343 H 0.59259 0.88338 0.96656 0.0
H344 H 0.69135 0.93592 0.91585 0.0
H345 H 0.72393 0.99113 0.94685 0.0
H346 H 0.72128 0.92462 0.92098 0.0
H347 H 0.75307 0.97857 0.95164 0.0
H348 H 0.6908 0.94323 0.8758 0.0
H349 H 0.62063 0.88923 0.88754 0.0
H350 H 0.65848 0.93571 0.99474 0.0
H351 H 0.68157 0.89879 0.96705 0.0
Li352 Li 0.03437 0.69164 0.91751 0.0
Li353 Li 0.03418 0.70162 0.94231 0.0
Li354 Li 0.02112 0.66039 0.93734 0.0
Li355 Li 0.99773 0.678 0.93048 0.0
C356 C 0.07414 0.69965 0.93985 0.0
N357 N 0.11723 0.72276 0.95324 0.0
C358 C 0.08928 0.7236 0.93745 0.0
C359 C 0.08111 0.68738 0.94889 0.0
C360 C 0.11092 0.73499 0.94437 0.0
C361 C 0.10292 0.69939 0.9556 0.0
C362 C 0.02833 0.73319 0.92318 0.0
C363 C 0.02017 0.76513 0.9232 0.0
N364 N 0.04196 0.77968 0.91788 0.0
C365 C 0.05064 0.74851 0.91769 0.0
C366 C 0.01293 0.74158 0.92592 0.0
C367 C 0.0572 0.77192 0.91509 0.0
C368 C 0.04063 0.7111 0.89026 0.0
N369 N 0.05071 0.70398 0.9002 0.0
C370 C 0.08772 0.72452 0.88836 0.0
C371 C 0.07357 0.70973 0.89925 0.0
C372 C 0.0782 0.73343 0.87842 0.0
C373 C 0.05409 0.72578 0.87915 0.0
H374 H 0.02257 0.70674 0.89152 0.0
H375 H 0.0812 0.70418 0.90747 0.0
C376 C 0.05758 0.71652 0.96815 0.0
N377 N 0.05009 0.72424 0.95701 0.0
C378 C 0.07034 0.73171 0.97918 0.0
C379 C 0.06603 0.76215 0.96764 0.0
C380 C 0.05369 0.74647 0.95671 0.0
C381 C 0.07495 0.755 0.97897 0.0
H382 H 0.05397 0.69858 0.96832 0.0
H383 H 0.04706 0.75218 0.94807 0.0
C384 C 0.98499 0.64423 0.91257 0.0
N385 N 0.94039 0.61633 0.90183 0.0
C386 C 0.96881 0.62408 0.91992 0.0
C387 C 0.97856 0.65015 0.89973 0.0
C388 C 0.94633 0.61021 0.91432 0.0
C389 C 0.9559 0.63582 0.89449 0.0
C390 C 0.99588 0.67843 0.96052 0.0
C391 C 0.98787 0.66408 0.97258 0.0
C392 C 0.99306 0.69808 0.95959 0.0
C393 C 0.97715 0.66965 0.98353 0.0
C394 C 0.98223 0.70305 0.97076 0.0
N395 N 0.97457 0.68885 0.9824 0.0
C396 C 0.02399 0.63559 0.95974 0.0
C397 C 0.01385 0.61324 0.9385 0.0
C398 C 0.02115 0.61645 0.96766 0.0
N399 N 0.02006 0.63359 0.94551 0.0
C400 C 0.01082 0.59352 0.94606 0.0
C401 C 0.01403 0.59492 0.96089 0.0
H402 H 0.0289 0.65203 0.96499 0.0
H403 H 0.01055 0.6121 0.92718 0.0
C404 C 0.96149 0.68486 0.9198 0.0
N405 N 0.96641 0.67196 0.929 0.0
C406 C 0.93973 0.68366 0.92032 0.0
C407 C 0.92796 0.65454 0.93897 0.0
C408 C 0.94996 0.65639 0.93813 0.0
C409 C 0.92291 0.66889 0.93033 0.0
H410 H 0.97485 0.69683 0.9125 0.0
H411 H 0.95431 0.64619 0.94523 0.0
O412 O 0.05269 0.6882 0.93335 0.0
O413 O 0.02138 0.71008 0.92568 0.0
O414 O 0.00682 0.65839 0.9181 0.0
O415 O 0.00653 0.67326 0.94974 0.0
H416 H 0.08428 0.73336 0.93046 0.0
H417 H 0.06982 0.66878 0.95072 0.0
H418 H 0.12269 0.75357 0.94271 0.0
H419 H 0.10846 0.69013 0.96268 0.0
H420 H 0.00844 0.77182 0.92532 0.0
H421 H 0.06281 0.74249 0.91542 0.0
H422 H 0.9956 0.73011 0.93018 0.0
H423 H 0.07441 0.78391 0.91083 0.0
H424 H 0.10623 0.73013 0.88834 0.0
H425 H 0.04593 0.73194 0.87162 0.0
H426 H 0.07697 0.72534 0.98758 0.0
H427 H 0.06852 0.7797 0.96719 0.0
H428 H 0.97344 0.61941 0.92995 0.0
H429 H 0.99086 0.66573 0.89395 0.0
H430 H 0.93357 0.59464 0.91993 0.0
H431 H 0.95064 0.64024 0.8846 0.0
H432 H 0.98988 0.64877 0.97345 0.0
H433 H -0.00078 0.70939 0.95038 0.0
H434 H 0.97086 0.6587 0.99292 0.0
H435 H 0.97995 0.71821 0.97017 0.0
H436 H 0.02422 0.61843 0.97902 0.0
H437 H 0.00519 0.57719 0.94046 0.0
H438 H 0.9364 0.69479 0.91335 0.0
H439 H 0.91561 0.64307 0.94692 0.0
Li440 Li 0.29839 0.33732 0.94498 0.0
Li441 Li 0.31431 0.32005 0.92946 0.0
Li442 Li 0.33679 0.36184 0.93431 0.0
Li443 Li 0.29931 0.34361 0.91939 0.0
C444 C 0.32426 0.31972 0.95811 0.0
N445 N 0.31857 0.28673 0.97833 0.0
C446 C 0.30273 0.29895 0.95952 0.0
C447 C 0.34287 0.32372 0.96702 0.0
C448 C 0.30021 0.28249 0.96979 0.0
C449 C 0.33965 0.30683 0.97717 0.0
C450 C 0.26367 0.29481 0.92411 0.0
C451 C 0.24442 0.27097 0.90357 0.0
N452 N 0.22677 0.25527 0.91207 0.0
C453 C 0.2453 0.27848 0.93263 0.0
C454 C 0.26322 0.29105 0.90946 0.0
C455 C 0.22683 0.25859 0.92634 0.0
C456 C 0.25679 0.32551 0.95918 0.0
N457 N 0.27995 0.33345 0.96135 0.0
C458 C 0.27558 0.33669 0.98633 0.0
C459 C 0.28957 0.33907 0.97456 0.0
C460 C 0.25152 0.32832 0.98442 0.0
C461 C 0.24216 0.3227 0.97063 0.0
H462 H 0.24979 0.32166 0.94851 0.0
H463 H 0.30814 0.34565 0.97592 0.0
C464 C 0.34087 0.29756 0.92905 0.0
N465 N 0.31851 0.29332 0.92781 0.0
C466 C 0.34528 0.27903 0.93064 0.0
C467 C 0.30357 0.25199 0.92968 0.0
C468 C 0.30001 0.27102 0.92782 0.0
C469 C 0.32644 0.25585 0.93148 0.0
H470 H 0.35525 0.31543 0.92954 0.0
H471 H 0.28235 0.26787 0.92732 0.0
C472 C 0.30366 0.37936 0.94429 0.0
N473 N 0.28996 0.40103 0.96417 0.0
C474 C 0.2831 0.38025 0.94226 0.0
C475 C 0.31733 0.38959 0.95639 0.0
C476 C 0.27645 0.39126 0.95245 0.0
C477 C 0.31009 0.40045 0.96632 0.0
C478 C 0.3435 0.33935 0.90728 0.0
C479 C 0.36788 0.35091 0.90878 0.0
C480 C 0.33253 0.32085 0.89761 0.0
C481 C 0.38083 0.34342 0.9008 0.0
C482 C 0.34609 0.31385 0.88984 0.0
N483 N 0.36975 0.32517 0.8916 0.0
C484 C 0.38221 0.38241 0.94448 0.0
C485 C 0.37121 0.4102 0.93748 0.0
C486 C 0.4028 0.40002 0.95058 0.0
N487 N 0.3667 0.3877 0.93843 0.0
C488 C 0.39168 0.42843 0.94345 0.0
C489 C 0.40747 0.42334 0.95049 0.0
H490 H 0.378 0.36431 0.94514 0.0
H491 H 0.35836 0.41381 0.93276 0.0
C492 C 0.25957 0.34111 0.90799 0.0
N493 N 0.2819 0.34705 0.90453 0.0
C494 C 0.24447 0.34124 0.89768 0.0
C495 C 0.2757 0.35382 0.88037 0.0
C496 C 0.29026 0.35343 0.89107 0.0
C497 C 0.2524 0.34754 0.88362 0.0
H498 H 0.25332 0.33565 0.91874 0.0
H499 H 0.30805 0.3578 0.88862 0.0
O500 O 0.32734 0.33596 0.94794 0.0
O501 O 0.28182 0.3144 0.93014 0.0
O502 O 0.31012 0.36804 0.93467 0.0
O503 O 0.33056 0.3464 0.91508 0.0
H504 H 0.28811 0.29548 0.95275 0.0
H505 H 0.35965 0.3397 0.96612 0.0
H506 H 0.28366 0.26633 0.97096 0.0
H507 H 0.35392 0.3097 0.98413 0.0
H508 H 0.24385 0.26788 0.89224 0.0
H509 H 0.24538 0.28104 0.944 0.0
H510 H 0.2771 0.30356 0.90269 0.0
H511 H 0.21254 0.24577 0.93282 0.0
H512 H 0.28343 0.34119 0.9968 0.0
H513 H 0.2238 0.31664 0.96867 0.0
H514 H 0.36325 0.28298 0.93176 0.0
H515 H 0.28838 0.2346 0.93057 0.0
H516 H 0.27232 0.37241 0.93297 0.0
H517 H 0.33311 0.38875 0.95823 0.0
H518 H 0.26053 0.39199 0.95105 0.0
H519 H 0.3204 0.40828 0.97578 0.0
H520 H 0.37673 0.36549 0.91602 0.0
H521 H 0.31377 0.31184 0.89617 0.0
H522 H 0.39969 0.35212 0.90193 0.0
H523 H 0.33779 0.29943 0.88242 0.0
H524 H 0.41422 0.39514 0.95603 0.0
H525 H 0.3947 0.44619 0.94298 0.0
H526 H 0.22656 0.33577 0.90063 0.0
H527 H 0.28257 0.35892 0.86968 0.0
Li528 Li 0.01712 0.38029 0.39181 0.0
Li529 Li 0.01567 0.37568 0.41824 0.0
Li530 Li 0.04076 0.36601 0.40259 0.0
Li531 Li -0.00084 0.34173 0.40248 0.0
C532 C 0.05156 0.41952 0.40102 0.0
N533 N 0.0671 0.46436 0.39079 0.0
C534 C 0.04645 0.43486 0.4084 0.0
C535 C 0.06456 0.42702 0.38841 0.0
C536 C 0.05449 0.45746 0.40307 0.0
C537 C 0.07224 0.44973 0.38341 0.0
C538 C 0.96615 0.35299 0.40255 0.0
C539 C 0.92726 0.32557 0.41107 0.0
N540 N 0.91855 0.32496 0.39787 0.0
C541 C 0.95681 0.35209 0.38907 0.0
C542 C 0.95127 0.33962 0.41365 0.0
C543 C 0.9327 0.33782 0.38692 0.0
C544 C 0.0187 0.39578 0.36334 0.0
N545 N 0.01386 0.39822 0.37708 0.0
C546 C 0.00224 0.4259 0.3703 0.0
C547 C 0.00566 0.4128 0.38072 0.0
C548 C 0.0073 0.42391 0.35603 0.0
C549 C 0.01573 0.4087 0.35259 0.0
H550 H 0.02453 0.38357 0.36069 0.0
H551 H 0.00164 0.41409 0.39172 0.0
C552 C 0.03357 0.40388 0.44281 0.0
N553 N 0.01376 0.39025 0.4352 0.0
C554 C 0.03329 0.41806 0.45378 0.0
C555 C 0.99195 0.40271 0.44943 0.0
C556 C 0.99314 0.38925 0.43837 0.0
C557 C 0.01233 0.41778 0.45703 0.0
H558 H 0.04982 0.40465 0.43985 0.0
H559 H 0.97787 0.37888 0.4319 0.0
C560 C 0.03171 0.34528 0.37775 0.0
N561 N 0.05609 0.32896 0.36198 0.0
C562 C 0.02562 0.32166 0.37854 0.0
C563 C 0.05029 0.36059 0.36897 0.0
C564 C 0.0381 0.31374 0.37045 0.0
C565 C 0.0624 0.35201 0.36109 0.0
C566 C 0.00871 0.3284 0.42755 0.0
C567 C 0.00869 0.30772 0.42411 0.0
C568 C 0.99703 0.32918 0.43978 0.0
C569 C 0.99695 0.28813 0.43298 0.0
C570 C 0.98549 0.30921 0.44837 0.0
N571 N 0.98569 0.28928 0.44482 0.0
C572 C 0.08911 0.38583 0.3959 0.0
C573 C 0.06901 0.34513 0.40107 0.0
C574 C 0.1078 0.38436 0.38999 0.0
N575 N 0.06972 0.36611 0.40058 0.0
C576 C 0.08721 0.34282 0.39521 0.0
C577 C 0.10642 0.36238 0.38891 0.0
H578 H 0.08941 0.40238 0.39582 0.0
H579 H 0.05339 0.32973 0.40476 0.0
C580 C 0.96852 0.30744 0.38456 0.0
N581 N 0.97294 0.31098 0.39872 0.0
C582 C 0.94984 0.2866 0.37958 0.0
C583 C 0.93949 0.2734 0.40387 0.0
C584 C 0.95859 0.29466 0.40842 0.0
C585 C 0.93517 0.26912 0.38924 0.0
H586 H 0.97938 0.32105 0.37706 0.0
H587 H 0.96151 0.29825 0.41965 0.0
O588 O 0.04343 0.39713 0.40593 0.0
O589 O 0.9898 0.36638 0.40477 0.0
O590 O 0.01987 0.35345 0.38574 0.0
O591 O 0.02057 0.34797 0.4192 0.0
H592 H 0.03614 0.42936 0.41805 0.0
H593 H 0.06824 0.41527 0.38236 0.0
H594 H 0.0506 0.46948 0.40866 0.0
H595 H 0.08216 0.45567 0.37361 0.0
H596 H 0.91558 0.31501 0.41953 0.0
H597 H 0.96806 0.36205 0.38031 0.0
H598 H 0.95825 0.33962 0.42407 0.0
H599 H 0.92525 0.33688 0.37653 0.0
H600 H 0.99583 0.43754 0.37339 0.0
H601 H 0.01947 0.40643 0.34168 0.0
H602 H 0.04936 0.42956 0.45941 0.0
H603 H 0.97558 0.40234 0.45148 0.0
H604 H 0.01173 0.30961 0.38552 0.0
H605 H 0.05569 0.37903 0.36846 0.0
H606 H 0.03361 0.29554 0.37101 0.0
H607 H 0.07693 0.36373 0.35436 0.0
H608 H 0.01727 0.30661 0.41459 0.0
H609 H 0.99688 0.345 0.44264 0.0
H610 H 0.9967 0.27198 0.43041 0.0
H611 H 0.97637 0.30957 0.45786 0.0
H612 H 0.12256 0.40003 0.3856 0.0
H613 H 0.08521 0.32548 0.39457 0.0
H614 H 0.94666 0.28441 0.36823 0.0
H615 H 0.92832 0.2605 0.41167 0.0
Li616 Li 0.64255 0.66755 0.39893 0.0
Li617 Li 0.66487 0.64824 0.40035 0.0
Li618 Li 0.62876 0.63088 0.38688 0.0
Li619 Li 0.62791 0.63038 0.41358 0.0
C620 C 0.66888 0.68129 0.37595 0.0
N621 N 0.69115 0.72411 0.36205 0.0
C622 C 0.69267 0.69705 0.37837 0.0
C623 C 0.65642 0.68742 0.36649 0.0
C624 C 0.70361 0.71857 0.37121 0.0
C625 C 0.66798 0.70914 0.35958 0.0
C626 C 0.6744 0.66942 0.426 0.0
C627 C 0.69015 0.66501 0.44821 0.0
N628 N 0.71096 0.68457 0.44514 0.0
C629 C 0.69594 0.68948 0.42308 0.0
C630 C 0.67146 0.65706 0.43867 0.0
C631 C 0.71421 0.69685 0.43289 0.0
C632 C 0.62512 0.69786 0.39189 0.0
N633 N 0.64405 0.69729 0.39715 0.0
C634 C 0.66842 0.73852 0.3933 0.0
C635 C 0.66514 0.71726 0.3986 0.0
C636 C 0.64972 0.73921 0.38661 0.0
C637 C 0.62756 0.71879 0.38653 0.0
H638 H 0.6085 0.68181 0.39097 0.0
H639 H 0.67991 0.71639 0.40279 0.0
C640 C 0.70206 0.65027 0.38574 0.0
N641 N 0.69504 0.65035 0.39933 0.0
C642 C 0.72235 0.64935 0.38302 0.0
C643 C 0.72818 0.64868 0.40835 0.0
C644 C 0.70747 0.64926 0.41059 0.0
C645 C 0.7356 0.64844 0.3944 0.0
H646 H 0.69149 0.65026 0.37696 0.0
H647 H 0.70099 0.64795 0.42128 0.0
C648 C 0.58871 0.62689 0.39375 0.0
N649 N 0.54577 0.60008 0.38066 0.0
C650 C 0.57143 0.60624 0.40016 0.0
C651 C 0.58405 0.63399 0.38072 0.0
C652 C 0.54985 0.59292 0.39337 0.0
C653 C 0.56227 0.62016 0.37425 0.0
C654 C 0.65061 0.60283 0.40049 0.0
C655 C 0.65603 0.59593 0.38766 0.0
C656 C 0.65796 0.59791 0.41333 0.0
C657 C 0.66896 0.58436 0.38788 0.0
C658 C 0.67081 0.58627 0.4131 0.0
N659 N 0.67603 0.57982 0.40049 0.0
C660 C 0.61461 0.62037 0.35778 0.0
C661 C 0.59917 0.58813 0.37378 0.0
C662 C 0.60181 0.6056 0.34658 0.0
N663 N 0.6128 0.61147 0.37108 0.0
C664 C 0.5864 0.57269 0.36286 0.0
C665 C 0.58752 0.58145 0.34909 0.0
H666 H 0.62579 0.63891 0.35589 0.0
H667 H 0.59809 0.58159 0.38448 0.0
C668 C 0.60451 0.61994 0.44071 0.0
N669 N 0.61032 0.61139 0.42921 0.0
C670 C 0.59034 0.60466 0.45147 0.0
C671 C 0.58854 0.57229 0.43827 0.0
C672 C 0.60265 0.5881 0.42783 0.0
C673 C 0.58211 0.58044 0.45029 0.0
H674 H 0.61069 0.63854 0.44145 0.0
H675 H 0.60702 0.58169 0.41841 0.0
O676 O 0.65779 0.66015 0.38293 0.0
O677 O 0.65611 0.66216 0.4167 0.0
O678 O 0.61019 0.63983 0.40006 0.0
O679 O 0.63866 0.61486 0.40047 0.0
H680 H 0.70254 0.69293 0.38586 0.0
H681 H 0.63788 0.67581 0.36477 0.0
H682 H 0.72199 0.73093 0.37302 0.0
H683 H 0.65849 0.71417 0.35235 0.0
H684 H 0.68812 0.65561 0.45803 0.0
H685 H 0.6987 0.69903 0.41325 0.0
H686 H 0.65496 0.64147 0.4411 0.0
H687 H 0.73102 0.71226 0.43072 0.0
H688 H 0.68571 0.75397 0.39375 0.0
H689 H 0.61269 0.71855 0.38145 0.0
H690 H 0.72755 0.64919 0.37211 0.0
H691 H 0.73781 0.64758 0.41737 0.0
H692 H 0.57463 0.60047 0.41025 0.0
H693 H 0.59731 0.6497 0.37547 0.0
H694 H 0.53636 0.57686 0.3982 0.0
H695 H 0.55855 0.62532 0.36409 0.0
H696 H 0.65061 0.59977 0.37763 0.0
H697 H 0.65409 0.60336 0.42335 0.0
H698 H 0.67345 0.57907 0.37803 0.0
H699 H 0.67676 0.58249 0.42295 0.0
H700 H 0.60318 0.6129 0.33605 0.0
H701 H 0.57539 0.55417 0.3652 0.0
H702 H 0.58589 0.61171 0.46059 0.0
H703 H 0.58218 0.55375 0.43673 0.0
Li704 Li 0.34771 0.00897 0.39739 0.0
Li705 Li 0.36518 0.98697 0.40769 0.0
Li706 Li 0.36619 0.99313 0.38208 0.0
Li707 Li 0.32955 0.9666 0.39451 0.0
C708 C 0.3933 0.04035 0.39984 0.0
N709 N 0.41674 0.08777 0.40603 0.0
C710 C 0.40299 0.04818 0.41333 0.0
C711 C 0.39558 0.05667 0.3895 0.0
C712 C 0.4148 0.07223 0.41624 0.0
C713 C 0.40745 0.08055 0.39284 0.0
C714 C 0.31332 0.97195 0.41869 0.0
C715 C 0.28402 0.93686 0.43047 0.0
N716 N 0.26894 0.94533 0.4301 0.0
C717 C 0.29761 0.98039 0.41849 0.0
C718 C 0.30657 0.95009 0.42479 0.0
C719 C 0.27522 0.96663 0.4243 0.0
C720 C 0.32882 0.03643 0.38866 0.0
N721 N 0.34166 0.03426 0.39923 0.0
C722 C 0.34941 0.07076 0.40936 0.0
C723 C 0.35099 0.05035 0.40987 0.0
C724 C 0.33753 0.07414 0.39802 0.0
C725 C 0.32649 0.05629 0.38786 0.0
H726 H 0.32111 0.02313 0.38053 0.0
H727 H 0.36055 0.04786 0.41838 0.0
C728 C 0.40759 0.99635 0.41907 0.0
N729 N 0.38451 0.98639 0.42248 0.0
C730 C 0.42374 0.99767 0.4291 0.0
C731 C 0.39204 0.97808 0.44602 0.0
C732 C 0.37642 0.97719 0.43561 0.0
C733 C 0.4161 0.98867 0.44283 0.0
H734 H 0.41347 0.00349 0.40852 0.0
H735 H 0.35794 0.9694 0.43803 0.0
C736 C 0.33338 0.9909 0.36551 0.0
N737 N 0.33127 0.99138 0.33616 0.0
C738 C 0.32092 0.96987 0.35799 0.0
C739 C 0.34471 0.01218 0.35809 0.0
C740 C 0.32006 0.97048 0.34316 0.0
C741 C 0.34347 0.01205 0.34326 0.0
C742 C 0.36903 0.95246 0.39678 0.0
C743 C 0.39124 0.95903 0.39134 0.0
C744 C 0.35921 0.93514 0.4073 0.0
C745 C 0.40338 0.94828 0.39663 0.0
C746 C 0.37192 0.92483 0.41232 0.0
N747 N 0.39357 0.93157 0.40693 0.0
C748 C 0.40408 0.01808 0.36313 0.0
C749 C 0.37698 0.97906 0.35621 0.0
C750 C 0.41819 0.02092 0.35137 0.0
N751 N 0.38398 0.99738 0.36533 0.0
C752 C 0.39053 0.98115 0.34428 0.0
C753 C 0.41163 0.0022 0.34187 0.0
H754 H 0.4095 0.03218 0.37068 0.0
H755 H 0.36115 0.96262 0.35841 0.0
C756 C 0.28203 0.94343 0.38855 0.0
N757 N 0.30007 0.9395 0.39115 0.0
C758 C 0.26151 0.92607 0.38225 0.0
C759 C 0.278 0.90046 0.38211 0.0
C760 C 0.29829 0.91837 0.38844 0.0
C761 C 0.25968 0.90459 0.37844 0.0
H762 H 0.28427 0.96065 0.39038 0.0
H763 H 0.3132 0.91602 0.39021 0.0
O764 O 0.3815 0.01685 0.39681 0.0
O765 O 0.33518 0.985 0.41289 0.0
O766 O 0.33482 0.99069 0.38003 0.0
O767 O 0.35712 0.96318 0.39201 0.0
H768 H 0.4012 0.03585 0.42153 0.0
H769 H 0.38799 0.05093 0.37906 0.0
H770 H 0.42232 0.07852 0.42664 0.0
H771 H 0.40919 0.09334 0.38497 0.0
H772 H 0.27849 0.91985 0.43516 0.0
H773 H 0.30259 0.99729 0.41382 0.0
H774 H 0.31855 0.94335 0.42503 0.0
H775 H 0.26283 0.97288 0.42416 0.0
H776 H 0.35794 0.08403 0.41748 0.0
H777 H 0.3173 0.05825 0.37888 0.0
H778 H 0.44204 0.00562 0.4261 0.0
H779 H 0.38545 0.97106 0.45651 0.0
H780 H 0.31226 0.9532 0.3635 0.0
H781 H 0.3545 0.02862 0.36372 0.0
H782 H 0.31055 0.95433 0.33722 0.0
H783 H 0.35224 0.02839 0.33738 0.0
H784 H 0.39915 0.97249 0.38324 0.0
H785 H 0.34205 0.92989 0.41164 0.0
H786 H 0.42065 0.95329 0.39258 0.0
H787 H 0.36461 0.91152 0.42053 0.0
H788 H 0.43427 0.03749 0.34986 0.0
H789 H 0.38503 0.96616 0.33734 0.0
H790 H 0.24771 0.92988 0.37971 0.0
H791 H 0.27738 0.88424 0.37919 0.0
Li792 Li 0.34461 0.32781 0.26321 0.0
Li793 Li 0.30372 0.30408 0.27018 0.0
Li794 Li 0.33216 0.29142 0.27494 0.0
Li795 Li 0.32175 0.2913 0.25023 0.0
C796 C 0.34739 0.33109 0.29276 0.0
N797 N 0.38029 0.35657 0.31335 0.0
C798 C 0.34238 0.34299 0.30324 0.0
C799 C 0.36909 0.3321 0.29277 0.0
C800 C 0.35925 0.35578 0.31356 0.0
C801 C 0.3855 0.34508 0.30326 0.0
C802 C 0.32311 0.3406 0.24563 0.0
C803 C 0.34465 0.37088 0.22824 0.0
N804 N 0.33883 0.38534 0.23525 0.0
C805 C 0.31729 0.35571 0.25264 0.0
C806 C 0.33684 0.34818 0.23331 0.0
C807 C 0.32542 0.37828 0.24723 0.0
C808 C 0.38897 0.36423 0.25414 0.0
N809 N 0.36972 0.35931 0.262 0.0
C810 C 0.38904 0.39781 0.27193 0.0
C811 C 0.36908 0.3758 0.27037 0.0
C812 C 0.40982 0.4028 0.26483 0.0
C813 C 0.40941 0.386 0.25544 0.0
H814 H 0.38882 0.35086 0.24739 0.0
H815 H 0.35344 0.37142 0.27642 0.0
C816 C 0.27697 0.3027 0.29272 0.0
N817 N 0.27779 0.30467 0.27834 0.0
C818 C 0.26002 0.30466 0.30045 0.0
C819 C 0.24472 0.31044 0.27838 0.0
C820 C 0.26207 0.30829 0.27103 0.0
C821 C 0.24367 0.30877 0.29332 0.0
H822 H 0.28984 0.29999 0.29823 0.0
H823 H 0.26331 0.31 0.25957 0.0
C824 C 0.3693 0.29705 0.25625 0.0
N825 N 0.40181 0.28272 0.2519 0.0
C826 C 0.36253 0.27534 0.24993 0.0
C827 C 0.3927 0.31151 0.26027 0.0
C828 C 0.3792 0.26841 0.24783 0.0
C829 C 0.40884 0.30393 0.25803 0.0
C830 C 0.29162 0.25163 0.27311 0.0
C831 C 0.29987 0.23635 0.26973 0.0
C832 C 0.2747 0.24545 0.28377 0.0
C833 C 0.29141 0.21534 0.27728 0.0
C834 C 0.26665 0.22426 0.29106 0.0
N835 N 0.27513 0.20978 0.28771 0.0
C836 C 0.32614 0.27195 0.30186 0.0
C837 C 0.35423 0.26757 0.28853 0.0
C838 C 0.32833 0.25956 0.31324 0.0
N839 N 0.33872 0.27541 0.28973 0.0
C840 C 0.35721 0.25536 0.29971 0.0
C841 C 0.34393 0.25091 0.31223 0.0
H842 H 0.31399 0.27845 0.30257 0.0
H843 H 0.36422 0.27053 0.27893 0.0
C844 C 0.33432 0.28569 0.22268 0.0
N845 N 0.31735 0.27538 0.23276 0.0
C846 C 0.33496 0.27258 0.21121 0.0
C847 C 0.29998 0.23885 0.22038 0.0
C848 C 0.29994 0.25266 0.23164 0.0
C849 C 0.31813 0.24859 0.21024 0.0
H850 H 0.34824 0.30364 0.22405 0.0
H851 H 0.28692 0.24485 0.23996 0.0
O852 O 0.33118 0.3188 0.28246 0.0
O853 O 0.31584 0.31869 0.25098 0.0
O854 O 0.35335 0.30441 0.25819 0.0
O855 O 0.30014 0.27259 0.2661 0.0
H856 H 0.32569 0.34248 0.30334 0.0
H857 H 0.37321 0.32296 0.28477 0.0
H858 H 0.35564 0.36513 0.32171 0.0
H859 H 0.40238 0.34603 0.30337 0.0
H860 H 0.35538 0.37704 0.21876 0.0
H861 H 0.30689 0.35019 0.26228 0.0
H862 H 0.34158 0.33673 0.2278 0.0
H863 H 0.32116 0.39022 0.25258 0.0
H864 H 0.38863 0.41016 0.27937 0.0
H865 H 0.42499 0.3893 0.24964 0.0
H866 H 0.26022 0.30372 0.31195 0.0
H867 H 0.23239 0.3135 0.27247 0.0
H868 H 0.34462 0.26382 0.24675 0.0
H869 H 0.39842 0.32842 0.26511 0.0
H870 H 0.37414 0.25164 0.24299 0.0
H871 H 0.42696 0.31493 0.26113 0.0
H872 H 0.31285 0.24077 0.26149 0.0
H873 H 0.26794 0.25692 0.28644 0.0
H874 H 0.29781 0.20346 0.27486 0.0
H875 H 0.25367 0.21933 0.2994 0.0
H876 H 0.31746 0.25633 0.32257 0.0
H877 H 0.3698 0.24946 0.29853 0.0
H878 H 0.34908 0.28088 0.20354 0.0
H879 H 0.28681 0.2204 0.22017 0.0
Li880 Li 0.69996 0.0218 0.24934 0.0
Li881 Li 0.70082 0.03443 0.27375 0.0
Li882 Li 0.68723 0.99301 0.27056 0.0
Li883 Li 0.66391 0.00999 0.26263 0.0
C884 C 0.7399 0.03311 0.27215 0.0
N885 N 0.78179 0.06042 0.2862 0.0
C886 C 0.75688 0.0545 0.26631 0.0
C887 C 0.74432 0.0255 0.28506 0.0
C888 C 0.77793 0.06808 0.2736 0.0
C889 C 0.76558 0.03959 0.29202 0.0
C890 C 0.69436 0.06428 0.25358 0.0
C891 C 0.68598 0.09605 0.253 0.0
N892 N 0.70684 0.10985 0.24637 0.0
C893 C 0.71568 0.0788 0.24669 0.0
C894 C 0.67932 0.07295 0.25668 0.0
C895 C 0.72169 0.10177 0.24316 0.0
C896 C 0.70443 0.03943 0.22196 0.0
N897 N 0.71478 0.03178 0.23138 0.0
C898 C 0.75022 0.04944 0.2178 0.0
C899 C 0.73689 0.0357 0.22929 0.0
C900 C 0.74066 0.05929 0.20859 0.0
C901 C 0.71717 0.05338 0.21044 0.0
H902 H 0.68698 0.03638 0.22407 0.0
H903 H 0.74475 0.02965 0.23708 0.0
C904 C 0.71798 0.05224 0.30104 0.0
N905 N 0.71855 0.05886 0.28726 0.0
C906 C 0.73281 0.06843 0.31112 0.0
C907 C 0.74834 0.09805 0.2927 0.0
C908 C 0.73312 0.08136 0.28303 0.0
C909 C 0.7486 0.09153 0.30688 0.0
H910 H 0.70674 0.0341 0.30409 0.0
H911 H 0.7339 0.0862 0.27205 0.0
C912 C 0.65046 0.97389 0.24625 0.0
N913 N 0.6057 0.94409 0.23634 0.0
C914 C 0.63514 0.95393 0.25406 0.0
C915 C 0.64311 0.97865 0.23336 0.0
C916 C 0.61256 0.93908 0.24888 0.0
C917 C 0.62038 0.96338 0.22854 0.0
C918 C 0.66117 0.013 0.29192 0.0
C919 C 0.64833 0.9973 0.30282 0.0
C920 C 0.66158 0.03438 0.29088 0.0
C921 C 0.63602 0.00325 0.31247 0.0
C922 C 0.64905 0.0397 0.30074 0.0
N923 N 0.63662 0.02415 0.31124 0.0
C924 C 0.68543 0.96747 0.29402 0.0
C925 C 0.68478 0.94799 0.27267 0.0
C926 C 0.6826 0.94851 0.30212 0.0
N927 N 0.68615 0.96676 0.2796 0.0
C928 C 0.68217 0.92861 0.28042 0.0
C929 C 0.68064 0.92864 0.29533 0.0
H930 H 0.68678 0.98274 0.29923 0.0
H931 H 0.68524 0.94788 0.26117 0.0
C932 C 0.6273 0.01573 0.25109 0.0
N933 N 0.63257 0.00377 0.2608 0.0
C934 C 0.60502 0.01344 0.25097 0.0
C935 C 0.59381 0.98564 0.27034 0.0
C936 C 0.61615 0.98828 0.26997 0.0
C937 C 0.58813 0.99879 0.26101 0.0
H938 H 0.64062 0.02759 0.24373 0.0
H939 H 0.62067 0.97858 0.27735 0.0
O940 O 0.71886 0.01992 0.26543 0.0
O941 O 0.6877 0.04141 0.25668 0.0
O942 O 0.67238 0.98896 0.25135 0.0
O943 O 0.67305 0.00724 0.28226 0.0
H944 H 0.7537 0.06077 0.2564 0.0
H945 H 0.73136 0.00902 0.28974 0.0
H946 H 0.79113 0.08478 0.26927 0.0
H947 H 0.76916 0.034 0.30207 0.0
H948 H 0.67451 0.10296 0.25536 0.0
H949 H 0.72771 0.07261 0.24432 0.0
H950 H 0.6626 0.06196 0.26181 0.0
H951 H 0.73819 0.11319 0.2379 0.0
H952 H 0.76832 0.05373 0.21678 0.0
H953 H 0.70915 0.06052 0.20349 0.0
H954 H 0.73274 0.06267 0.32193 0.0
H955 H 0.76024 0.11574 0.28904 0.0
H956 H 0.64054 0.95012 0.26411 0.0
H957 H 0.65475 0.99408 0.22722 0.0
H958 H 0.60046 0.92364 0.25485 0.0
H959 H 0.61439 0.96689 0.21863 0.0
H960 H 0.64771 0.9806 0.30373 0.0
H961 H 0.67155 0.04679 0.28261 0.0
H962 H 0.62594 0.99123 0.32093 0.0
H963 H 0.64923 0.05621 0.30004 0.0
H964 H 0.68187 0.94935 0.31361 0.0
H965 H 0.68066 0.91353 0.27483 0.0
H966 H 0.60133 0.02352 0.24337 0.0
H967 H 0.58161 0.97431 0.27839 0.0
Li968 Li 0.96619 0.66886 0.27523 0.0
Li969 Li 0.98062 0.65051 0.2595 0.0
Li970 Li 0.00539 0.69165 0.265 0.0
Li971 Li 0.96847 0.67643 0.24955 0.0
C972 C 0.99029 0.64918 0.28855 0.0
N973 N 0.98384 0.61653 0.30918 0.0
C974 C 0.96904 0.62804 0.28946 0.0
C975 C 0.00826 0.65375 0.29816 0.0
C976 C 0.96612 0.61174 0.29995 0.0
C977 C 0.00465 0.63702 0.30852 0.0
C978 C 0.92971 0.62755 0.25504 0.0
C979 C 0.90572 0.60338 0.23572 0.0
N980 N 0.89 0.58804 0.24528 0.0
C981 C 0.91321 0.61161 0.26467 0.0
C982 C 0.92586 0.62346 0.24043 0.0
C983 C 0.8933 0.59171 0.25953 0.0
C984 C 0.92502 0.65934 0.28931 0.0
N985 N 0.94769 0.66529 0.29155 0.0
C986 C 0.94288 0.66626 0.31668 0.0
C987 C 0.95687 0.66892 0.30487 0.0
C988 C 0.91926 0.65978 0.3147 0.0
C989 C 0.91039 0.65642 0.30079 0.0
H990 H 0.91836 0.65697 0.27856 0.0
H991 H 0.9751 0.67402 0.30633 0.0
C992 C 0.00296 0.62459 0.2625 0.0
N993 N 0.9827 0.62264 0.25749 0.0
C994 C 0.00458 0.60459 0.26507 0.0
C995 C 0.96513 0.58094 0.25612 0.0
C996 C 0.96428 0.60145 0.25373 0.0
C997 C 0.98511 0.58233 0.26245 0.0
H998 H 0.01727 0.64163 0.26552 0.0
H999 H 0.9484 0.60016 0.24967 0.0
C1000 C 0.97484 0.71212 0.27522 0.0
N1001 N 0.96316 0.73481 0.29556 0.0
C1002 C 0.95617 0.71612 0.2729 0.0
C1003 C 0.98766 0.71977 0.28785 0.0
C1004 C 0.95052 0.7276 0.28332 0.0
C1005 C 0.98146 0.73119 0.29801 0.0
C1006 C 0.00769 0.66604 0.23733 0.0
C1007 C 0.03075 0.671 0.23931 0.0
C1008 C 0.99372 0.64976 0.22701 0.0
C1009 C 0.03935 0.65927 0.23109 0.0
C1010 C 0.00294 0.63838 0.21901 0.0
N1011 N 0.02537 0.64331 0.22121 0.0
C1012 C 0.0509 0.70819 0.27427 0.0
C1013 C 0.04168 0.73834 0.27068 0.0
C1014 C 0.07196 0.7239 0.28085 0.0
N1015 N 0.03608 0.71552 0.26965 0.0
C1016 C 0.06249 0.75464 0.27735 0.0
C1017 C 0.07761 0.74731 0.28295 0.0
H1018 H 0.04577 0.68982 0.2735 0.0
H1019 H 0.02933 0.74356 0.26713 0.0
C1020 C 0.93115 0.67869 0.23806 0.0
N1021 N 0.95243 0.68153 0.23456 0.0
C1022 C 0.91649 0.6792 0.22758 0.0
C1023 C 0.94597 0.68565 0.20999 0.0
C1024 C 0.9602 0.68519 0.22088 0.0
C1025 C 0.92369 0.68239 0.21329 0.0
H1026 H 0.92519 0.67506 0.24898 0.0
H1027 H 0.97707 0.68699 0.2184 0.0
O1028 O 0.99377 0.66524 0.27818 0.0
O1029 O 0.94915 0.64728 0.25992 0.0
O1030 O 0.98025 0.70031 0.26534 0.0
O1031 O -0.00119 0.67698 0.2455 0.0
H1032 H 0.95504 0.62416 0.28207 0.0
H1033 H 0.02483 0.67004 0.29759 0.0
H1034 H 0.94979 0.59525 0.30072 0.0
H1035 H 0.01842 0.64032 0.31602 0.0
H1036 H 0.90258 0.59999 0.22445 0.0
H1037 H 0.9157 0.61455 0.27601 0.0
H1038 H 0.93828 0.63557 0.2328 0.0
H1039 H 0.88044 0.57921 0.26687 0.0
H1040 H 0.95037 0.66898 0.32723 0.0
H1041 H 0.89242 0.65188 0.29878 0.0
H1042 H 0.02024 0.60652 0.27009 0.0
H1043 H 0.94986 0.56412 0.25375 0.0
H1044 H 0.94612 0.71039 0.26318 0.0
H1045 H 0.00193 0.71649 0.28992 0.0
H1046 H 0.93606 0.73074 0.28169 0.0
H1047 H 0.99111 0.73704 0.30788 0.0
H1048 H 0.04187 0.68369 0.24716 0.0
H1049 H 0.97592 0.64586 0.22525 0.0
H1050 H 0.05712 0.66283 0.23257 0.0
H1051 H 0.99227 0.62562 0.21105 0.0
H1052 H 0.08324 0.71753 0.28473 0.0
H1053 H 0.06594 0.77241 0.27885 0.0
H1054 H 0.89928 0.67613 0.23056 0.0
H1055 H 0.95216 0.68819 0.1991 0.0
Li1056 Li 0.67206 0.70953 0.72013 0.0
Li1057 Li 0.67141 0.70654 0.74679 0.0
Li1058 Li 0.69244 0.69181 0.73089 0.0
Li1059 Li 0.6508 0.67174 0.73187 0.0
C1060 C 0.70978 0.74724 0.72877 0.0
N1061 N 0.73 0.7925 0.71823 0.0
C1062 C 0.7085 0.76467 0.73652 0.0
C1063 C 0.72158 0.7529 0.71571 0.0
C1064 C 0.7188 0.78743 0.731 0.0
C1065 C 0.73159 0.77585 0.71054 0.0
C1066 C 0.62207 0.68902 0.7334 0.0
C1067 C 0.5848 0.66914 0.74551 0.0
N1068 N 0.5737 0.66676 0.73291 0.0
C1069 C 0.61034 0.68656 0.72058 0.0
C1070 C 0.60926 0.68037 0.74599 0.0
C1071 C 0.58585 0.67518 0.72055 0.0
C1072 C 0.675 0.72506 0.69154 0.0
N1073 N 0.67074 0.72833 0.70525 0.0
C1074 C 0.66498 0.76006 0.69846 0.0
C1075 C 0.66551 0.74518 0.70885 0.0
C1076 C 0.66986 0.75749 0.68424 0.0
C1077 C 0.67483 0.73966 0.68081 0.0
H1078 H 0.67858 0.7112 0.68892 0.0
H1079 H 0.66204 0.74722 0.71985 0.0
C1080 C 0.68303 0.72488 0.77533 0.0
N1081 N 0.67045 0.72243 0.76335 0.0
C1082 C 0.68186 0.73772 0.78686 0.0
C1083 C 0.65499 0.74518 0.7734 0.0
C1084 C 0.65668 0.7323 0.7622 0.0
C1085 C 0.66765 0.74805 0.78596 0.0
H1086 H 0.69401 0.717 0.77588 0.0
H1087 H 0.64733 0.73057 0.75243 0.0
C1088 C 0.6793 0.66935 0.70641 0.0
N1089 N 0.69825 0.64778 0.69026 0.0
C1090 C 0.66972 0.645 0.70707 0.0
C1091 C 0.69854 0.68271 0.69752 0.0
C1092 C 0.67952 0.63443 0.6988 0.0
C1093 C 0.70788 0.67149 0.68947 0.0
C1094 C 0.66061 0.65704 0.75636 0.0
C1095 C 0.65789 0.63561 0.75178 0.0
C1096 C 0.6514 0.65832 0.76952 0.0
C1097 C 0.64595 0.61578 0.76044 0.0
C1098 C 0.6396 0.6381 0.77787 0.0
N1099 N 0.63714 0.61743 0.7732 0.0
C1100 C 0.73993 0.70805 0.72432 0.0
C1101 C 0.71708 0.66694 0.72775 0.0
C1102 C 0.75787 0.70564 0.71811 0.0
N1103 N 0.71959 0.68872 0.72832 0.0
C1104 C 0.73448 0.66368 0.72151 0.0
C1105 C 0.75475 0.6831 0.71597 0.0
H1106 H 0.74164 0.7252 0.72507 0.0
H1107 H 0.70075 0.65185 0.73093 0.0
C1108 C 0.61449 0.63865 0.71591 0.0
N1109 N 0.62158 0.64299 0.72969 0.0
C1110 C 0.59234 0.62025 0.71247 0.0
C1111 C 0.58504 0.6105 0.73744 0.0
C1112 C 0.60728 0.62949 0.74045 0.0
C1113 C 0.57733 0.60605 0.72331 0.0
H1114 H 0.62576 0.6501 0.70759 0.0
H1115 H 0.61258 0.63393 0.75137 0.0
O1116 O 0.69933 0.72471 0.73384 0.0
O1117 O 0.64597 0.69938 0.73357 0.0
O1118 O 0.6701 0.68006 0.71455 0.0
O1119 O 0.67266 0.67678 0.7482 0.0
H1120 H 0.69961 0.76071 0.74667 0.0
H1121 H 0.72256 0.73961 0.70948 0.0
H1122 H 0.71785 0.80107 0.73687 0.0
H1123 H 0.74054 0.78039 0.70039 0.0
H1124 H 0.57463 0.66218 0.75515 0.0
H1125 H 0.62004 0.69308 0.71074 0.0
H1126 H 0.61812 0.68199 0.75597 0.0
H1127 H 0.5765 0.67295 0.7107 0.0
H1128 H 0.66126 0.77372 0.70156 0.0
H1129 H 0.67835 0.73693 0.66994 0.0
H1130 H 0.69188 0.73947 0.79637 0.0
H1131 H 0.64431 0.75331 0.77206 0.0
H1132 H 0.65509 0.63437 0.71403 0.0
H1133 H 0.70652 0.70159 0.69707 0.0
H1134 H 0.67232 0.61563 0.69925 0.0
H1135 H 0.7229 0.68165 0.68267 0.0
H1136 H 0.66454 0.63418 0.74155 0.0
H1137 H 0.65326 0.67472 0.77322 0.0
H1138 H 0.6436 0.59906 0.75698 0.0
H1139 H 0.63237 0.63884 0.78807 0.0
H1140 H 0.77349 0.72118 0.71437 0.0
H1141 H 0.73116 0.64596 0.72005 0.0
H1142 H 0.58685 0.61729 0.70144 0.0
H1143 H 0.57365 0.60003 0.74605 0.0
Li1144 Li 0.31725 0.97836 0.73851 0.0
Li1145 Li 0.29943 0.00378 0.73385 0.0
Li1146 Li 0.28157 0.96882 0.75061 0.0
Li1147 Li 0.2805 0.96299 0.7257 0.0
C1148 C 0.33407 0.01095 0.7582 0.0
N1149 N 0.37866 0.035 0.76961 0.0
C1150 C 0.34841 0.03496 0.75558 0.0
C1151 C 0.34231 -0.00077 0.76675 0.0
C1152 C 0.37092 0.0468 0.76142 0.0
C1153 C 0.36494 0.01168 0.77238 0.0
C1154 C 0.31403 0.98626 0.70651 0.0
C1155 C 0.31017 0.99301 0.68171 0.0
N1156 N 0.31765 0.97781 0.67813 0.0
C1157 C 0.32175 0.97076 0.7026 0.0
C1158 C 0.30823 0.99753 0.69601 0.0
C1159 C 0.32344 0.9667 0.68818 0.0
C1160 C 0.34832 0.96011 0.73945 0.0
N1161 N 0.34675 0.97978 0.7377 0.0
C1162 C 0.38673 0.00156 0.73018 0.0
C1163 C 0.36543 0.00034 0.73332 0.0
C1164 C 0.38872 0.98133 0.73144 0.0
C1165 C 0.36932 0.96056 0.73651 0.0
H1166 H 0.33299 0.94376 0.74239 0.0
H1167 H 0.36343 0.0155 0.73158 0.0
C1168 C 0.29313 0.04389 0.73111 0.0
N1169 N 0.30717 0.03464 0.72851 0.0
C1170 C 0.29775 0.06484 0.72448 0.0
C1171 C 0.33227 0.06723 0.71377 0.0
C1172 C 0.32683 0.04619 0.72043 0.0
C1173 C 0.31717 0.07641 0.71529 0.0
H1174 H 0.27769 0.0344 0.7377 0.0
H1175 H 0.33784 0.03853 0.71871 0.0
C1176 C 0.2787 0.92746 0.74848 0.0
N1177 N 0.25679 0.8882 0.76577 0.0
C1178 C 0.2554 0.91026 0.74597 0.0
C1179 C 0.29094 0.92449 0.75968 0.0
C1180 C 0.2446 0.89061 0.75486 0.0
C1181 C 0.27955 0.90456 0.76832 0.0
C1182 C 0.24513 0.9715 0.72901 0.0
C1183 C 0.22709 0.94811 0.72991 0.0
C1184 C 0.24189 0.98734 0.72074 0.0
C1185 C 0.20622 0.94095 0.7225 0.0
C1186 C 0.22073 0.97951 0.7135 0.0
N1187 N 0.20349 0.95667 0.71452 0.0
C1188 C 0.24083 0.94771 0.76791 0.0
C1189 C 0.27515 0.95286 0.77928 0.0
C1190 C 0.22688 0.93336 0.77898 0.0
N1191 N 0.26436 0.95619 0.76793 0.0
C1192 C 0.26187 0.93844 0.79054 0.0
C1193 C 0.23732 0.92778 0.79019 0.0
H1194 H 0.2327 0.95112 0.75899 0.0
H1195 H 0.29391 0.96005 0.77916 0.0
C1196 C 0.26464 0.92319 0.70825 0.0
N1197 N 0.26444 0.94364 0.70965 0.0
C1198 C 0.2536 0.90843 0.69672 0.0
C1199 C 0.24274 0.93625 0.68805 0.0
C1200 C 0.25447 0.9507 0.69958 0.0
C1201 C 0.242 0.91463 0.68652 0.0
H1202 H 0.27361 0.91843 0.71605 0.0
H1203 H 0.25564 0.9676 0.70044 0.0
O1204 O 0.31209 0.99901 0.75242 0.0
O1205 O 0.31167 0.98998 0.72056 0.0
O1206 O 0.28941 0.94711 0.74007 0.0
O1207 O 0.26572 0.9789 0.73625 0.0
H1208 H 0.34225 0.04437 0.74911 0.0
H1209 H 0.33156 0.98062 0.76879 0.0
H1210 H 0.38224 0.06536 0.75943 0.0
H1211 H 0.37162 0.00277 0.7789 0.0
H1212 H 0.30562 0.0015 0.67347 0.0
H1213 H 0.32611 0.96173 0.7106 0.0
H1214 H 0.30198 0.00938 0.69888 0.0
H1215 H 0.32928 0.95466 0.68499 0.0
H1216 H 0.401 0.01782 0.72603 0.0
H1217 H 0.37008 0.94458 0.73769 0.0
H1218 H 0.28557 0.07119 0.72597 0.0
H1219 H 0.3478 0.07585 0.70715 0.0
H1220 H 0.24573 0.912 0.73725 0.0
H1221 H 0.30886 0.93771 0.76195 0.0
H1222 H 0.22653 0.87726 0.75308 0.0
H1223 H 0.28874 0.90221 0.77712 0.0
H1224 H 0.22922 0.93554 0.73616 0.0
H1225 H 0.25565 0.00537 0.71966 0.0
H1226 H 0.1922 0.92287 0.72308 0.0
H1227 H 0.21808 0.99158 0.70702 0.0
H1228 H 0.20802 0.92557 0.77831 0.0
H1229 H 0.27063 0.9349 0.79912 0.0
H1230 H 0.25432 0.8924 0.6958 0.0
H1231 H 0.23409 0.94193 0.68058 0.0
Li1232 Li 0.03217 0.32641 0.74501 0.0
Li1233 Li 0.01742 0.35194 0.73604 0.0
Li1234 Li 0.99682 0.30948 0.732 0.0
Li1235 Li 0.03482 0.33436 0.71984 0.0
C1236 C 0.98154 0.31365 0.75672 0.0
N1237 N 0.93731 0.28708 0.76838 0.0
C1238 C 0.96669 0.32302 0.75796 0.0
C1239 C 0.97402 0.29089 0.76159 0.0
C1240 C 0.94436 0.30928 0.76384 0.0
C1241 C 0.95156 0.2777 0.76739 0.0
C1242 C 0.06536 0.37985 0.73074 0.0
C1243 C 0.07532 0.41152 0.71419 0.0
N1244 N 0.09537 0.42517 0.72157 0.0
C1245 C 0.08607 0.39416 0.73816 0.0
C1246 C 0.05993 0.38856 0.71864 0.0
C1247 C 0.10102 0.41703 0.73336 0.0
C1248 C 0.07335 0.33249 0.75662 0.0
N1249 N 0.05028 0.32358 0.75974 0.0
C1250 C 0.05605 0.31337 0.78319 0.0
C1251 C 0.04136 0.31408 0.77269 0.0
C1252 C 0.08 0.32243 0.78022 0.0
C1253 C 0.08855 0.33196 0.7667 0.0
H1254 H 0.07996 0.34019 0.74627 0.0
H1255 H 0.02296 0.30728 0.7749 0.0
C1256 C 0.99336 0.37625 0.73284 0.0
N1257 N 0.01327 0.37823 0.73844 0.0
C1258 C 0.99047 0.3958 0.73202 0.0
C1259 C 0.02816 0.41885 0.74342 0.0
C1260 C 0.03018 0.39872 0.74418 0.0
C1261 C 0.00837 0.41761 0.73694 0.0
H1262 H 0.9802 0.35967 0.72841 0.0
H1263 H 0.0457 0.39973 0.74877 0.0
C1264 C 0.03358 0.29123 0.73334 0.0
N1265 N 0.05587 0.26759 0.7427 0.0
C1266 C 0.05573 0.29722 0.72805 0.0
C1267 C 0.02264 0.27305 0.74325 0.0
C1268 C 0.06674 0.28509 0.73295 0.0
C1269 C 0.03424 0.26137 0.7479 0.0
C1270 C 0.99614 0.33445 0.70499 0.0
C1271 C 0.98455 0.31329 0.69751 0.0
C1272 C 0.9979 0.35475 0.699 0.0
C1273 C 0.97499 0.31279 0.68417 0.0
C1274 C 0.98813 0.35354 0.68563 0.0
N1275 N 0.97696 0.33276 0.67856 0.0
C1276 C 0.94916 0.28988 0.72617 0.0
C1277 C 0.96285 0.26275 0.72474 0.0
C1278 C 0.92805 0.2739 0.71976 0.0
N1279 N 0.96622 0.28428 0.72817 0.0
C1280 C 0.94197 0.24621 0.71825 0.0
C1281 C 0.9246 0.25206 0.7152 0.0
H1282 H 0.95262 0.30738 0.72865 0.0
H1283 H 0.97698 0.25905 0.72608 0.0
C1284 C 0.07588 0.35383 0.70243 0.0
N1285 N 0.05248 0.33813 0.70287 0.0
C1286 C 0.08896 0.35584 0.69029 0.0
C1287 C 0.05391 0.32484 0.67941 0.0
C1288 C 0.04148 0.32351 0.69175 0.0
C1289 C 0.07798 0.3412 0.67857 0.0
H1290 H 0.08466 0.36438 0.71161 0.0
H1291 H 0.0232 0.31035 0.69258 0.0
O1292 O 0.00332 0.3267 0.7508 0.0
O1293 O 0.0504 0.35755 0.73547 0.0
O1294 O 0.02278 0.30329 0.72894 0.0
O1295 O 0.00511 0.33521 0.71825 0.0
H1296 H 0.9723 0.34068 0.75438 0.0
H1297 H 0.98534 0.28343 0.76077 0.0
H1298 H 0.93263 0.31626 0.7648 0.0
H1299 H 0.94546 0.25999 0.7711 0.0
H1300 H 0.07132 0.41849 0.70485 0.0
H1301 H 0.09048 0.38768 0.74757 0.0
H1302 H 0.04407 0.37768 0.71274 0.0
H1303 H 0.1171 0.42833 0.73901 0.0
H1304 H 0.04877 0.30582 0.79348 0.0
H1305 H 0.10695 0.33948 0.76406 0.0
H1306 H 0.97506 0.39415 0.7268 0.0
H1307 H 0.04224 0.43534 0.74742 0.0
H1308 H 0.06447 0.31126 0.72039 0.0
H1309 H 0.00545 0.26811 0.74739 0.0
H1310 H 0.08396 0.28965 0.72903 0.0
H1311 H 0.02604 0.24736 0.75564 0.0
H1312 H 0.98316 0.29743 0.70185 0.0
H1313 H 0.00667 0.37129 0.70461 0.0
H1314 H 0.96602 0.29653 0.67828 0.0
H1315 H 0.98939 0.36913 0.68089 0.0
H1316 H 0.91503 0.27902 0.71776 0.0
H1317 H 0.94018 0.22971 0.71477 0.0
H1318 H 0.10764 0.36818 0.69028 0.0
H1319 H 0.0448 0.31307 0.67066 0.0
Li1320 Li 0.96382 0.63761 0.60125 0.0
Li1321 Li 0.00571 0.66004 0.59688 0.0
Li1322 Li 0.98442 0.62411 0.58308 0.0
Li1323 Li 0.99053 0.62366 0.60857 0.0
C1324 C 0.9884 0.67349 0.57619 0.0
N1325 N 0.00687 0.71688 0.56323 0.0
C1326 C 0.98041 0.68881 0.58002 0.0
C1327 C 0.00564 0.68014 0.5657 0.0
C1328 C 0.98999 0.71069 0.57335 0.0
C1329 C 0.01482 0.70219 0.5593 0.0
C1330 C -0.00105 0.67034 0.62363 0.0
C1331 C 0.02977 0.69667 0.63942 0.0
N1332 N 0.01938 0.71002 0.64048 0.0
C1333 C 0.98846 0.6842 0.62498 0.0
C1334 C 0.01964 0.67648 0.63101 0.0
C1335 C -0.0009 0.70423 0.63352 0.0
C1336 C 0.93275 0.63244 0.62175 0.0
N1337 N 0.93656 0.63753 0.60767 0.0
C1338 C 0.90394 0.64398 0.60652 0.0
C1339 C 0.92257 0.64307 0.59992 0.0
C1340 C 0.89979 0.63901 0.62115 0.0
C1341 C 0.91444 0.63305 0.62872 0.0
H1342 H 0.94443 0.62849 0.62768 0.0
H1343 H 0.9261 0.64715 0.58872 0.0
C1344 C 0.05338 0.69294 0.59314 0.0
N1345 N 0.03238 0.69118 0.59619 0.0
C1346 C 0.07415 0.71415 0.59504 0.0
C1347 C 0.05127 0.73207 0.60178 0.0
C1348 C 0.03091 0.71042 0.59983 0.0
C1349 C 0.07324 0.73382 0.59992 0.0
H1350 H 0.05412 0.67764 0.58979 0.0
H1351 H 0.01404 0.70879 0.6019 0.0
C1352 C 0.95159 0.58362 0.60327 0.0
N1353 N 0.93488 0.53931 0.61468 0.0
C1354 C 0.95775 0.5681 0.59715 0.0
C1355 C 0.93683 0.57655 0.61515 0.0
C1356 C 0.94912 0.54577 0.60307 0.0
C1357 C 0.92862 0.5541 0.62079 0.0
C1358 C 0.02952 0.62835 0.59685 0.0
C1359 C 0.02916 0.60958 0.58965 0.0
C1360 C 0.04569 0.63949 0.6078 0.0
C1361 C 0.04491 0.60221 0.59359 0.0
C1362 C 0.06111 0.63156 0.61144 0.0
N1363 N 0.06041 0.61324 0.60432 0.0
C1364 C 0.00394 0.61768 0.55865 0.0
C1365 C 0.96376 0.58907 0.5615 0.0
C1366 C 0.00635 0.60465 0.54778 0.0
N1367 N 0.98318 0.60921 0.56563 0.0
C1368 C 0.96533 0.57555 0.55054 0.0
C1369 C 0.98711 0.5829 0.54399 0.0
H1370 H 0.0191 0.63368 0.56226 0.0
H1371 H 0.94752 0.58272 0.56733 0.0
C1372 C 0.99005 0.61198 0.6373 0.0
N1373 N 0.99402 0.60659 0.62401 0.0
C1374 C 0.99066 0.59936 0.64908 0.0
C1375 C -0.00053 0.57583 0.63331 0.0
C1376 C -0.00137 0.58885 0.62186 0.0
C1377 C 0.99525 0.58088 0.64715 0.0
H1378 H 0.98582 0.62574 0.63875 0.0
H1379 H 0.00106 0.58433 0.61123 0.0
O1380 O 0.97944 0.65213 0.58271 0.0
O1381 O 0.98885 0.6507 0.61529 0.0
O1382 O 0.96019 0.6057 0.59776 0.0
O1383 O 0.01437 0.636 0.59308 0.0
H1384 H 0.96719 0.68397 0.58819 0.0
H1385 H 0.01202 0.66847 0.56265 0.0
H1386 H 0.98409 0.72279 0.57626 0.0
H1387 H 0.02827 0.70764 0.55123 0.0
H1388 H 0.04587 0.70171 0.64511 0.0
H1389 H 0.9725 0.6798 0.6193 0.0
H1390 H 0.02778 0.66575 0.63027 0.0
H1391 H 0.99128 0.71522 0.63457 0.0
H1392 H 0.89301 0.64861 0.6003 0.0
H1393 H 0.91231 0.62963 0.64005 0.0
H1394 H 0.09079 0.71495 0.59324 0.0
H1395 H 0.04984 0.74685 0.60555 0.0
H1396 H 0.9695 0.57338 0.58812 0.0
H1397 H 0.93186 0.58829 0.62003 0.0
H1398 H 0.95389 0.53366 0.5985 0.0
H1399 H 0.91728 0.54845 0.63002 0.0
H1400 H 0.01659 0.60046 0.58131 0.0
H1401 H 0.04634 0.65412 0.61342 0.0
H1402 H 0.04472 0.58762 0.58817 0.0
H1403 H 0.07366 0.64 0.61992 0.0
H1404 H 0.02336 0.61094 0.54287 0.0
H1405 H 0.95014 0.5588 0.54793 0.0
H1406 H 0.9869 0.6036 0.65953 0.0
H1407 H 0.00325 0.56185 0.63132 0.0
Li1408 Li 0.36076 0.37267 0.60608 0.0
Li1409 Li 0.36395 0.36241 0.58162 0.0
Li1410 Li 0.32595 0.34788 0.59337 0.0
Li1411 Li 0.34952 0.33139 0.60183 0.0
C1412 C 0.35392 0.40289 0.5885 0.0
N1413 N 0.3628 0.44864 0.58841 0.0
C1414 C 0.37322 0.42031 0.58106 0.0
C1415 C 0.33901 0.40872 0.59576 0.0
C1416 C 0.37744 0.44334 0.58118 0.0
C1417 C 0.34384 0.43196 0.59564 0.0
C1418 C 0.40175 0.37555 0.60511 0.0
C1419 C 0.42929 0.38526 0.62434 0.0
N1420 N 0.44271 0.4071 0.61873 0.0
C1421 C 0.41585 0.39807 0.59951 0.0
C1422 C 0.40854 0.36904 0.61759 0.0
C1423 C 0.43649 0.41377 0.60655 0.0
C1424 C 0.37215 0.3874 0.63428 0.0
N1425 N 0.37484 0.39577 0.62076 0.0
C1426 C 0.39888 0.43509 0.62898 0.0
C1427 C 0.38804 0.41912 0.61795 0.0
C1428 C 0.39639 0.42694 0.64303 0.0
C1429 C 0.3828 0.40274 0.64564 0.0
H1430 H 0.36206 0.3687 0.63621 0.0
H1431 H 0.39093 0.42541 0.60716 0.0
C1432 C 0.3733 0.38251 0.55437 0.0
N1433 N 0.38175 0.37428 0.56469 0.0
C1434 C 0.38785 0.39612 0.54326 0.0
C1435 C 0.41907 0.39133 0.55317 0.0
C1436 C 0.40386 0.3777 0.56405 0.0
C1437 C 0.41135 0.40142 0.54284 0.0
H1438 H 0.35573 0.37978 0.55527 0.0
H1439 H 0.41015 0.37106 0.57247 0.0
C1440 C 0.31649 0.34005 0.62253 0.0
N1441 N 0.2813 0.33173 0.64168 0.0
C1442 C 0.30299 0.31778 0.62859 0.0
C1443 C 0.31235 0.35816 0.62637 0.0
C1444 C 0.28521 0.31391 0.63821 0.0
C1445 C 0.29441 0.35359 0.63602 0.0
C1446 C 0.316 0.3147 0.57537 0.0
C1447 C 0.29966 0.29325 0.58144 0.0
C1448 C 0.31069 0.32198 0.56263 0.0
C1449 C 0.27816 0.27942 0.57467 0.0
C1450 C 0.28899 0.30765 0.55619 0.0
N1451 N 0.27331 0.28686 0.5623 0.0
C1452 C 0.29083 0.35673 0.58312 0.0
C1453 C 0.27656 0.32299 0.59775 0.0
C1454 C 0.26908 0.35557 0.58356 0.0
N1455 N 0.29443 0.34124 0.59072 0.0
C1456 C 0.25462 0.32127 0.59861 0.0
C1457 C 0.25094 0.33832 0.59196 0.0
H1458 H 0.3052 0.37074 0.57731 0.0
H1459 H 0.27966 0.31047 0.60335 0.0
C1460 C 0.35326 0.30813 0.62492 0.0
N1461 N 0.34919 0.30545 0.61071 0.0
C1462 C 0.3515 0.28968 0.63312 0.0
C1463 C 0.34153 0.26593 0.61188 0.0
C1464 C 0.34367 0.28502 0.60403 0.0
C1465 C 0.34514 0.26805 0.62669 0.0
H1466 H 0.35737 0.32453 0.62994 0.0
H1467 H 0.34033 0.28334 0.59271 0.0
O1468 O 0.34933 0.38017 0.58835 0.0
O1469 O 0.38114 0.36018 0.59857 0.0
O1470 O 0.33386 0.34409 0.61303 0.0
O1471 O 0.33689 0.32874 0.58201 0.0
H1472 H 0.38509 0.41624 0.57547 0.0
H1473 H 0.32377 0.39545 0.60136 0.0
H1474 H 0.3924 0.45701 0.57555 0.0
H1475 H 0.33247 0.43671 0.60124 0.0
H1476 H 0.4347 0.38049 0.63404 0.0
H1477 H 0.4107 0.40354 0.58998 0.0
H1478 H 0.39788 0.3517 0.62206 0.0
H1479 H 0.44748 0.4313 0.6024 0.0
H1480 H 0.40976 0.45355 0.62646 0.0
H1481 H 0.3805 0.39575 0.65632 0.0
H1482 H 0.38102 0.40319 0.5354 0.0
H1483 H 0.43705 0.39506 0.55337 0.0
H1484 H 0.306 0.30357 0.62575 0.0
H1485 H 0.32296 0.37559 0.62201 0.0
H1486 H 0.27449 0.29672 0.64289 0.0
H1487 H 0.29094 0.36743 0.63904 0.0
H1488 H 0.30339 0.28751 0.59139 0.0
H1489 H 0.32311 0.33859 0.55784 0.0
H1490 H 0.26529 0.26283 0.57928 0.0
H1491 H 0.28459 0.3131 0.54636 0.0
H1492 H 0.26687 0.3687 0.57794 0.0
H1493 H 0.24128 0.30766 0.60523 0.0
H1494 H 0.3549 0.29232 0.64443 0.0
H1495 H 0.3364 0.24953 0.60648 0.0
Li1496 Li 0.65262 -0.0001 0.59793 0.0
Li1497 Li 0.63396 0.01728 0.61097 0.0
Li1498 Li 0.63523 0.01974 0.5853 0.0
Li1499 Li 0.6723 0.04252 0.60051 0.0
C1500 C 0.60467 0.96979 0.60289 0.0
N1501 N 0.57516 0.92621 0.61465 0.0
C1502 C 0.60923 0.96422 0.61641 0.0
C1503 C 0.58504 0.95324 0.59536 0.0
C1504 C 0.59412 0.94209 0.62217 0.0
C1505 C 0.57035 0.93128 0.60148 0.0
C1506 C 0.67213 0.02026 0.62861 0.0
C1507 C 0.6925 0.04333 0.6492 0.0
N1508 N 0.69026 0.02376 0.6556 0.0
C1509 C 0.67015 0.0004 0.63538 0.0
C1510 C 0.68348 0.04193 0.63557 0.0
C1511 C 0.67936 0.00251 0.64902 0.0
C1512 C 0.68097 0.98061 0.60306 0.0
N1513 N 0.65957 0.9751 0.59789 0.0
C1514 C 0.64807 0.93448 0.59687 0.0
C1515 C 0.64355 0.95273 0.59421 0.0
C1516 C 0.66945 0.93943 0.60315 0.0
C1517 C 0.68638 0.96301 0.60569 0.0
H1518 H 0.69347 0.99864 0.60571 0.0
H1519 H 0.62686 0.94885 0.58979 0.0
C1520 C 0.59029 0.0034 0.62267 0.0
N1521 N 0.61322 0.01312 0.62639 0.0
C1522 C 0.57333 -0.00075 0.6329 0.0
C1523 C 0.60389 0.01574 0.65066 0.0
C1524 C 0.62029 0.01943 0.64006 0.0
C1525 C 0.58004 0.00534 0.64712 0.0
H1526 H 0.58518 0.99894 0.61168 0.0
H1527 H 0.63857 0.02743 0.64279 0.0
C1528 C 0.67415 0.0119 0.57374 0.0
N1529 N 0.68718 0.9858 0.55704 0.0
C1530 C 0.69747 0.01705 0.57354 0.0
C1531 C 0.65746 0.99357 0.5654 0.0
C1532 C 0.7037 0.00363 0.56504 0.0
C1533 C 0.6644 0.98056 0.55705 0.0
C1534 C 0.63266 0.05558 0.60643 0.0
C1535 C 0.61114 0.05226 0.6016 0.0
C1536 C 0.64228 0.06802 0.619 0.0
C1537 C 0.59944 0.06122 0.60955 0.0
C1538 C 0.63003 0.07668 0.62665 0.0
N1539 N 0.60904 0.07311 0.62181 0.0
C1540 C 0.59374 0.00675 0.57165 0.0
C1541 C 0.62645 0.0279 0.5564 0.0
C1542 C 0.5783 0.00377 0.56069 0.0
N1543 N 0.61725 0.01858 0.56934 0.0
C1544 C 0.61157 0.02534 0.54506 0.0
C1545 C 0.58711 0.01298 0.54714 0.0
H1546 H 0.58698 -0.00039 0.58208 0.0
H1547 H 0.64526 0.03706 0.55486 0.0
C1548 C 0.71946 0.06424 0.60647 0.0
N1549 N 0.70204 0.0691 0.6039 0.0
C1550 C 0.74014 0.08087 0.613 0.0
C1551 C 0.72514 0.10774 0.61335 0.0
C1552 C 0.70472 0.09057 0.60671 0.0
C1553 C 0.74276 0.10258 0.6171 0.0
H1554 H 0.71654 0.0468 0.60444 0.0
H1555 H 0.69037 0.09377 0.60477 0.0
O1556 O 0.61922 0.99133 0.59699 0.0
O1557 O 0.66378 0.01861 0.61507 0.0
O1558 O 0.66749 0.02431 0.58231 0.0
O1559 O 0.64403 0.04634 0.59901 0.0
H1560 H 0.62418 0.97687 0.62242 0.0
H1561 H 0.58128 0.95728 0.58486 0.0
H1562 H 0.59746 0.93755 0.63264 0.0
H1563 H 0.55512 0.91828 0.59576 0.0
H1564 H 0.70128 0.05999 0.6547 0.0
H1565 H 0.66169 0.9835 0.63014 0.0
H1566 H 0.68518 0.05749 0.63059 0.0
H1567 H 0.67791 0.98727 0.65437 0.0
H1568 H 0.63443 0.91662 0.59475 0.0
H1569 H 0.70334 0.96777 0.61015 0.0
H1570 H 0.55518 0.99162 0.62967 0.0
H1571 H 0.60975 0.02069 0.66152 0.0
H1572 H 0.71057 0.03117 0.57994 0.0
H1573 H 0.63929 0.98924 0.56555 0.0
H1574 H 0.72167 0.00734 0.56481 0.0
H1575 H 0.65166 0.96623 0.5506 0.0
H1576 H 0.60347 0.04276 0.59188 0.0
H1577 H 0.65883 0.07064 0.62294 0.0
H1578 H 0.58271 0.05866 0.60598 0.0
H1579 H 0.63718 0.08616 0.63646 0.0
H1580 H 0.55964 0.99452 0.56286 0.0
H1581 H 0.61907 0.03257 0.53475 0.0
H1582 H 0.75342 0.07629 0.61549 0.0
H1583 H 0.72634 0.12417 0.6164 0.0
C1584 C 0.45729 0.02609 0.03425 0.0
C1585 C 0.4401 0.0073 0.04226 0.0
C1586 C 0.47215 0.02273 0.02516 0.0
C1587 C 0.47537 0.97552 0.00571 0.0
H1588 H 0.54012 0.02376 -0.00045 0.0
C1589 C 0.54254 0.96016 0.975 0.0
C1590 C 0.55806 0.978 0.96575 0.0
C1591 C 0.52721 0.96352 0.98363 0.0
C1592 C 0.52198 0.01025 0.00104 0.0
H1593 H 0.42574 0.97058 0.04761 0.0
H1594 H 0.45208 0.9648 0.03202 0.0
H1595 H 0.51644 0.03015 0.01698 0.0
H1596 H 0.5693 0.01307 0.95796 0.0
H1597 H 0.54241 0.01899 0.97309 0.0
H1598 H 0.48115 0.95547 0.98995 0.0
C1599 C 0.45367 0.98199 0.03244 0.0
C1600 C 0.5084 0.01389 0.01104 0.0
C1601 C 0.43869 0.98531 0.04144 0.0
C1602 C 0.5574 0.99898 0.96493 0.0
C1603 C 0.54222 0.00245 0.97368 0.0
C1604 C 0.48901 0.97182 0.99581 0.0
C1605 C 0.47026 0.00054 0.02395 0.0
C1606 C 0.48492 0.99656 0.01351 0.0
C1607 C 0.52724 0.98488 0.98327 0.0
C1608 C 0.51245 0.98914 0.99337 0.0
H1609 H 0.45854 0.04314 0.03448 0.0
H1610 H 0.48449 0.03734 0.01866 0.0
H1611 H 0.45722 0.96199 0.00711 0.0
H1612 H 0.54263 0.94377 0.97578 0.0
H1613 H 0.51596 0.94973 0.99097 0.0
C1614 C 0.97501 0.43664 0.04537 0.0
C1615 C 0.98511 0.423 0.04153 0.0
C1616 C 0.97749 0.45489 0.03654 0.0
C1617 C 0.98997 0.47579 -0.00063 0.0
H1618 H 0.00596 0.53605 0.01571 0.0
C1619 C 0.01717 0.55879 0.96504 0.0
C1620 C 0.00927 0.57403 0.96948 0.0
C1621 C 0.01352 0.53981 0.9736 0.0
C1622 C 0.00119 0.51924 0.01098 0.0
H1623 H 0.00519 0.41741 0.02526 0.0
H1624 H 0.00973 0.44935 0.00998 0.0
H1625 H 0.00064 0.50404 0.03123 0.0
H1626 H 0.99034 0.58068 0.98601 0.0
H1627 H 0.9838 0.5476 0.00083 0.0
H1628 H 0.99044 0.49095 0.97913 0.0
C1629 C -0.00011 0.44596 0.01979 0.0
C1630 C 0.99815 0.50091 0.01989 0.0
C1631 C 0.99754 0.42786 0.02864 0.0
C1632 C 0.9971 0.56954 0.98244 0.0
C1633 C 0.99338 0.55059 0.99095 0.0
C1634 C 0.99292 0.49411 0.99046 0.0
C1635 C 0.9899 0.45969 0.02363 0.0
C1636 C 0.99258 0.479 0.01418 0.0
C1637 C 0.00178 0.53565 0.98674 0.0
C1638 C -0.00141 0.51607 0.99616 0.0
H1639 H 0.96535 0.43329 0.05524 0.0
H1640 H 0.96943 0.46505 0.03972 0.0
H1641 H 0.98538 0.45901 0.99468 0.0
H1642 H 0.02672 0.56189 0.95514 0.0
H1643 H 0.02041 0.52877 0.9701 0.0
C1644 C 0.44884 0.44162 0.95961 0.0
C1645 C 0.4275 0.4416 0.95881 0.0
C1646 C 0.46654 0.45685 0.96885 0.0
C1647 C 0.48799 0.51117 0.98967 0.0
H1648 H 0.51586 0.48361 0.01361 0.0
C1649 C 0.54979 0.56299 0.03582 0.0
C1650 C 0.56986 0.5609 0.03756 0.0
C1651 C 0.53178 0.54787 0.02671 0.0
C1652 C 0.50847 0.49167 0.00691 0.0
H1653 H 0.4084 0.45816 0.96687 0.0
H1654 H 0.43948 0.48503 0.98274 0.0
H1655 H 0.4868 0.4595 0.99585 0.0
H1656 H 0.58664 0.54114 0.03129 0.0
H1657 H 0.55541 0.51494 0.01531 0.0
H1658 H 0.50984 0.54342 0.00055 0.0
C1659 C 0.44249 0.47326 0.97619 0.0
C1660 C 0.49182 0.47785 0.99673 0.0
C1661 C 0.42471 0.45791 0.96703 0.0
C1662 C 0.57123 0.54294 0.03034 0.0
C1663 C 0.5533 0.52793 0.02116 0.0
C1664 C 0.50476 0.52505 -0.00021 0.0
C1665 C 0.46338 0.47254 0.97741 0.0
C1666 C 0.48141 0.48744 0.988 0.0
C1667 C 0.53351 0.53044 0.01905 0.0
C1668 C 0.51522 0.51548 0.00854 0.0
H1669 H 0.45174 0.42958 0.95326 0.0
H1670 H 0.48264 0.45621 0.96938 0.0
H1671 H 0.48041 0.51909 0.98301 0.0
H1672 H 0.54816 0.57652 0.04137 0.0
H1673 H 0.51657 0.54998 0.02558 0.0
C1674 C 0.13049 0.3711 0.36668 0.0
C1675 C 0.12308 0.3592 0.37978 0.0
C1676 C 0.1437 0.36607 0.3572 0.0
C1677 C 0.1544 0.31853 0.34725 0.0
H1678 H 0.20823 0.36709 0.32701 0.0
C1679 C 0.21606 0.29891 0.31392 0.0
C1680 C 0.22657 0.31239 0.30166 0.0
C1681 C 0.20228 0.30411 0.3228 0.0
C1682 C 0.19299 0.35329 0.33238 0.0
H1683 H 0.12469 0.33339 0.39338 0.0
H1684 H 0.14758 0.32443 0.3767 0.0
H1685 H 0.1878 0.37805 0.34432 0.0
H1686 H 0.22996 0.34132 0.28879 0.0
H1687 H 0.20522 0.34993 0.30405 0.0
H1688 H 0.15932 0.29374 0.33524 0.0
C1689 C 0.1429 0.33749 0.37377 0.0
C1690 C 0.18139 0.3596 0.34236 0.0
C1691 C 0.12984 0.34265 0.38332 0.0
C1692 C 0.22203 0.33051 0.29812 0.0
C1693 C 0.20813 0.33566 0.30698 0.0
C1694 C 0.16587 0.31221 0.33719 0.0
C1695 C 0.14965 0.34889 0.36052 0.0
C1696 C 0.16209 0.34228 0.34997 0.0
C1697 C 0.19848 0.32283 0.31959 0.0
C1698 C 0.18542 0.32951 0.3297 0.0
H1699 H 0.1252 0.38357 0.36344 0.0
H1700 H 0.14846 0.37497 0.34701 0.0
H1701 H 0.13929 0.3048 0.35276 0.0
H1702 H 0.21891 0.2846 0.31685 0.0
H1703 H 0.1953 0.29395 0.33245 0.0
C1704 C 0.63785 0.76834 0.37875 0.0
C1705 C 0.65388 0.76016 0.37832 0.0
C1706 C 0.64097 0.78688 0.36996 0.0
C1707 C 0.66778 0.81544 0.33614 0.0
H1708 H 0.66147 0.8672 0.3505 0.0
C1709 C 0.6902 0.89737 0.30194 0.0
C1710 C 0.67653 0.90804 0.30394 0.0
C1711 C 0.68728 0.87903 0.31085 0.0
C1712 C 0.66294 0.8527 0.34624 0.0
H1713 H 0.68572 0.76496 0.36835 0.0
H1714 H 0.69114 0.79726 0.35305 0.0
H1715 H 0.65668 0.83609 0.36666 0.0
H1716 H 0.64834 0.90721 0.3163 0.0
H1717 H 0.64274 0.87488 0.33154 0.0
H1718 H 0.67359 0.83169 0.31567 0.0
C1719 C 0.6762 0.78938 0.36018 0.0
C1720 C 0.66028 0.83494 0.35554 0.0
C1721 C 0.67323 0.77107 0.36906 0.0
C1722 C 0.65938 0.89954 0.31468 0.0
C1723 C 0.65628 0.88109 0.32347 0.0
C1724 C 0.67021 0.83307 0.3268 0.0
C1725 C 0.66 0.79734 0.36044 0.0
C1726 C 0.66273 0.81616 0.35059 0.0
C1727 C 0.67043 0.87082 0.32184 0.0
C1728 C 0.66783 0.85196 0.33173 0.0
H1729 H 0.6228 0.76027 0.38579 0.0
H1730 H 0.62816 0.7926 0.37033 0.0
H1731 H 0.66947 0.80099 0.33199 0.0
H1732 H 0.70365 0.90371 0.29379 0.0
H1733 H 0.69867 0.87173 0.30937 0.0
C1734 C 0.1113 0.78743 0.28897 0.0
C1735 C 0.09792 0.76329 0.292 0.0
C1736 C 0.12922 0.80255 0.29815 0.0
C1737 C 0.16835 0.80405 0.32667 0.0
H1738 H 0.17049 0.86194 0.33747 0.0
C1739 C 0.22896 0.86355 0.37155 0.0
C1740 C 0.24015 0.8879 0.36922 0.0
C1741 C 0.21134 0.84804 0.36232 0.0
C1742 C 0.17035 0.84599 0.33445 0.0
H1743 H 0.093 0.73623 0.30716 0.0
H1744 H 0.12448 0.76249 0.32292 0.0
H1745 H 0.14132 0.83586 0.32037 0.0
H1746 H 0.24208 0.91501 0.35519 0.0
H1747 H 0.21169 0.88812 0.3391 0.0
H1748 H 0.19754 0.81426 0.34062 0.0
C1749 C 0.12124 0.76967 0.31338 0.0
C1750 C 0.15362 0.83106 0.32464 0.0
C1751 C 0.10324 0.7546 0.30428 0.0
C1752 C 0.2334 0.89638 0.35748 0.0
C1753 C 0.21595 0.88093 0.34824 0.0
C1754 C 0.1852 0.81906 0.33642 0.0
C1755 C 0.13424 0.79384 0.31051 0.0
C1756 C 0.15244 0.80994 0.32064 0.0
C1757 C 0.2047 0.85657 0.35051 0.0
C1758 C 0.18642 0.84024 0.34042 0.0
H1759 H 0.10789 0.79468 0.27953 0.0
H1760 H 0.13918 0.82108 0.29558 0.0
H1761 H 0.16798 0.78796 0.3237 0.0
H1762 H 0.23376 0.85653 0.38054 0.0
H1763 H 0.20284 0.82939 0.36449 0.0
C1764 C 0.87792 0.66036 0.62647 0.0
C1765 C 0.88125 0.64113 0.62888 0.0
C1766 C 0.86292 0.66411 0.63524 0.0
C1767 C 0.8402 0.65234 0.67161 0.0
H1768 H 0.79656 0.67134 0.65816 0.0
C1769 C 0.77612 0.66161 0.70944 0.0
C1770 C 0.77106 0.67962 0.70668 0.0
C1771 C 0.78952 0.65694 0.69986 0.0
C1772 C 0.80891 0.66639 0.66212 0.0
H1773 H 0.87008 0.6098 0.64166 0.0
H1774 H 0.84416 0.61651 0.65701 0.0
H1775 H 0.81894 0.66252 0.64102 0.0
H1776 H 0.77639 0.70695 0.69164 0.0
H1777 H 0.80057 0.69954 0.67535 0.0
H1778 H 0.8307 0.65664 0.69267 0.0
C1779 C 0.85347 0.6289 0.64852 0.0
C1780 C 0.82163 0.66123 0.65228 0.0
C1781 C 0.86829 0.62507 0.63973 0.0
C1782 C 0.78025 0.69321 0.69428 0.0
C1783 C 0.79378 0.68867 0.68477 0.0
C1784 C 0.82767 0.65769 0.68144 0.0
C1785 C 0.85108 0.64876 0.64661 0.0
C1786 C 0.83733 0.65406 0.65693 0.0
C1787 C 0.79832 0.67025 0.68732 0.0
C1788 C 0.81183 0.66475 0.67683 0.0
H1789 H 0.88777 0.67315 0.61829 0.0
H1790 H 0.86145 0.67962 0.63355 0.0
H1791 H 0.8525 0.64725 0.67551 0.0
H1792 H 0.76948 0.65089 0.71892 0.0
H1793 H 0.79247 0.64248 0.70212 0.0
C1794 C 0.34896 0.23222 0.63068 0.0
C1795 C 0.34171 0.2478 0.63553 0.0
C1796 C 0.34617 0.21359 0.63925 0.0
C1797 C 0.31365 0.17825 0.67089 0.0
H1798 H 0.36302 0.16247 0.67176 0.0
C1799 C 0.31588 0.11383 0.71205 0.0
C1800 C 0.32083 0.09688 0.70658 0.0
C1801 C 0.31863 0.13252 0.70354 0.0
C1802 C 0.34903 0.1666 0.67156 0.0
H1803 H 0.32513 0.25546 0.65307 0.0
H1804 H 0.32107 0.22365 0.66814 0.0
H1805 H 0.36706 0.19413 0.65635 0.0
H1806 H 0.3321 0.08616 0.6877 0.0
H1807 H 0.33732 0.11891 0.67307 0.0
H1808 H 0.29579 0.15085 0.68626 0.0
C1809 C 0.32866 0.22559 0.65765 0.0
C1810 C 0.35128 0.18466 0.66268 0.0
C1811 C 0.33132 0.24409 0.64907 0.0
C1812 C 0.32868 0.09917 0.69242 0.0
C1813 C 0.3316 0.1179 0.68398 0.0
C1814 C 0.31149 0.16031 0.67984 0.0
C1815 C 0.3361 0.21013 0.65289 0.0
C1816 C 0.33359 0.1907 0.66221 0.0
C1817 C 0.32652 0.13472 0.68942 0.0
C1818 C 0.32913 0.15425 0.68024 0.0
H1819 H 0.35714 0.23463 0.62035 0.0
H1820 H 0.35181 0.20183 0.63516 0.0
H1821 H 0.2995 0.18214 0.67063 0.0
H1822 H 0.31004 0.11277 0.72293 0.0
H1823 H 0.3148 0.14538 0.70804 0.0
C1824 C 0.76915 0.10911 0.63783 0.0
C1825 C 0.7624 0.11851 0.62655 0.0
C1826 C 0.78672 0.1238 0.64727 0.0
C1827 C 0.81678 0.18402 0.66135 0.0
H1828 H 0.86246 0.16746 0.67449 0.0
C1829 C 0.89744 0.24647 0.69505 0.0
C1830 C 0.90432 0.23664 0.70602 0.0
C1831 C 0.87962 0.23212 0.68563 0.0
C1832 C 0.84964 0.17217 0.67107 0.0
H1833 H 0.769 0.1508 0.61632 0.0
H1834 H 0.79985 0.17659 0.63285 0.0
H1835 H 0.83317 0.14277 0.65701 0.0
H1836 H 0.89742 0.204 0.71589 0.0
H1837 H 0.86613 0.17886 0.69945 0.0
H1838 H 0.83326 0.21343 0.67543 0.0
C1839 C 0.79133 0.15777 0.63442 0.0
C1840 C 0.8329 0.15806 0.66102 0.0
C1841 C 0.77371 0.14302 0.62493 0.0
C1842 C 0.89267 0.2121 0.70748 0.0
C1843 C 0.8748 0.19771 0.69804 0.0
C1844 C 0.83353 0.19815 0.67141 0.0
C1845 C 0.79797 0.1483 0.64572 0.0
C1846 C 0.81623 0.16378 0.65606 0.0
C1847 C 0.86825 0.20757 0.68691 0.0
C1848 C 0.85013 0.19235 0.67641 0.0
H1849 H 0.76039 0.09034 0.63964 0.0
H1850 H 0.79107 0.11594 0.65601 0.0
H1851 H 0.80396 0.18872 0.65791 0.0
H1852 H 0.9064 0.2653 0.69341 0.0
H1853 H 0.87528 0.24028 0.67705 0.0
C1854 C 0.36328 0.12419 0.13494 0.0
C1855 C 0.34378 0.10463 0.12893 0.0
C1856 C 0.36024 0.13945 0.14386 0.0
C1857 C 0.31833 0.15941 0.15194 0.0
H1858 H 0.35507 0.18392 0.18632 0.0
C1859 C 0.30119 0.2146 0.19313 0.0
C1860 C 0.32085 0.23331 0.19967 0.0
C1861 C 0.30379 0.19907 0.18419 0.0
C1862 C 0.34488 0.17749 0.17666 0.0
H1863 H 0.3058 0.08572 0.12756 0.0
H1864 H 0.30049 0.11217 0.14328 0.0
H1865 H 0.35997 0.1561 0.17172 0.0
H1866 H 0.35871 0.25042 0.20178 0.0
H1867 H 0.36328 0.2239 0.18587 0.0
H1868 H 0.30335 0.18093 0.15682 0.0
C1869 C 0.31813 0.11578 0.14104 0.0
C1870 C 0.34767 0.1615 0.16831 0.0
C1871 C 0.32116 0.10047 0.13218 0.0
C1872 C 0.3432 0.23644 0.19677 0.0
C1873 C 0.3458 0.22098 0.18782 0.0
C1874 C 0.3156 0.17548 0.16026 0.0
C1875 C 0.33764 0.13555 0.14688 0.0
C1876 C 0.33445 0.1523 0.15585 0.0
C1877 C 0.32611 0.2019 0.18159 0.0
C1878 C 0.32889 0.18476 0.1727 0.0
H1879 H 0.38091 0.12778 0.13268 0.0
H1880 H 0.37562 0.15463 0.14812 0.0
H1881 H 0.30813 0.15289 0.14229 0.0
H1882 H 0.28375 0.21179 0.19505 0.0
H1883 H 0.28824 0.18447 0.17963 0.0
C1884 C 0.8848 0.20547 0.12692 0.0
C1885 C 0.88924 0.22861 0.1285 0.0
C1886 C 0.868 0.18731 0.1353 0.0
C1887 C 0.83345 0.17567 0.16856 0.0
H1888 H 0.79699 0.11349 0.1522 0.0
C1889 C 0.75563 0.09902 0.19781 0.0
C1890 C 0.75583 0.07775 0.19826 0.0
C1891 C 0.7711 0.11731 0.18895 0.0
C1892 C 0.80715 0.13074 0.15691 0.0
H1893 H 0.87916 0.25061 0.14019 0.0
H1894 H 0.84913 0.2187 0.15444 0.0
H1895 H 0.82503 0.14594 0.13741 0.0
H1896 H 0.77206 0.0588 0.18963 0.0
H1897 H 0.79898 0.09078 0.17389 0.0
H1898 H 0.81508 0.16037 0.188 0.0
C1899 C 0.85911 0.21473 0.14691 0.0
C1900 C 0.8233 0.14935 0.14848 0.0
C1901 C 0.87615 0.23302 0.13861 0.0
C1902 C 0.77154 0.07499 0.18947 0.0
C1903 C 0.78683 0.09322 0.18044 0.0
C1904 C 0.81707 0.1571 0.17694 0.0
C1905 C 0.85482 0.19162 0.14536 0.0
C1906 C 0.83686 0.17203 0.15422 0.0
C1907 C 0.78694 0.11466 0.18024 0.0
C1908 C 0.8039 0.13442 0.17123 0.0
H1909 H 0.89409 0.2012 0.11906 0.0
H1910 H 0.86552 0.16987 0.13393 0.0
H1911 H 0.84379 0.19275 0.17343 0.0
H1912 H 0.74396 0.10178 0.20463 0.0
H1913 H 0.77072 0.13358 0.18894 0.0
C1914 C 0.8936 0.69154 0.20373 0.0
C1915 C 0.9073 0.68082 0.20196 0.0
C1916 C 0.87653 0.68818 0.19373 0.0
C1917 C 0.8386 0.64613 0.16669 0.0
H1918 H 0.82823 0.69667 0.15482 0.0
C1919 C 0.7727 0.63482 0.12253 0.0
C1920 C 0.75975 0.64636 0.12425 0.0
C1921 C 0.7906 0.63875 0.13203 0.0
C1922 C 0.83069 0.68229 0.15817 0.0
H1923 H 0.91416 0.65856 0.18815 0.0
H1924 H 0.88448 0.65289 0.17058 0.0
H1925 H 0.86056 0.70496 0.17084 0.0
H1926 H 0.7553 0.67085 0.13749 0.0
H1927 H 0.786 0.67713 0.15431 0.0
H1928 H 0.8086 0.62339 0.15417 0.0
C1929 C 0.88684 0.66374 0.17978 0.0
C1930 C 0.84928 0.68707 0.16731 0.0
C1931 C 0.90402 0.66721 0.18975 0.0
C1932 C 0.76472 0.66145 0.13593 0.0
C1933 C 0.78259 0.66534 0.14545 0.0
C1934 C 0.81995 0.64132 0.15759 0.0
C1935 C 0.87269 0.67393 0.18176 0.0
C1936 C 0.85342 0.66904 0.17169 0.0
C1937 C 0.79596 0.65429 0.14351 0.0
C1938 C 0.81573 0.65933 0.15325 0.0
H1939 H 0.89586 0.70227 0.21298 0.0
H1940 H 0.86582 0.69616 0.19561 0.0
H1941 H 0.84111 0.63178 0.17006 0.0
H1942 H 0.76917 0.6229 0.11373 0.0
H1943 H 0.80064 0.63007 0.13015 0.0
C1944 C 0.63801 0.88096 0.86237 0.0
C1945 C 0.65762 0.89735 0.87017 0.0
C1946 C 0.63936 0.86431 0.85381 0.0
C1947 C 0.68109 0.85196 0.8351 0.0
H1948 H 0.63094 0.78713 0.83716 0.0
C1949 C 0.68688 0.77882 0.8049 0.0
C1950 C 0.66648 0.76253 0.79769 0.0
C1951 C 0.68606 0.79424 0.81481 0.0
C1952 C 0.645 0.80518 0.83635 0.0
H1953 H 0.69403 0.90887 0.87509 0.0
H1954 H 0.69645 0.88021 0.85994 0.0
H1955 H 0.62881 0.81678 0.8516 0.0
H1956 H 0.62899 0.74873 0.79587 0.0
H1957 H 0.62766 0.77592 0.81279 0.0
H1958 H 0.69709 0.84056 0.81966 0.0
C1959 C 0.6801 0.88039 0.86037 0.0
C1960 C 0.64375 0.82216 0.84462 0.0
C1961 C 0.67871 0.89691 0.86899 0.0
C1962 C 0.6451 0.76133 0.80107 0.0
C1963 C 0.64429 0.77676 0.81091 0.0
C1964 C 0.68227 0.83502 0.82675 0.0
C1965 C 0.66039 0.86377 0.8528 0.0
C1966 C 0.66173 0.84574 0.84403 0.0
C1967 C 0.66483 0.79371 0.81772 0.0
C1968 C 0.66418 0.81144 0.82722 0.0
H1969 H 0.62158 0.88097 0.86288 0.0
H1970 H 0.62397 0.8519 0.84793 0.0
H1971 H 0.69511 0.87005 0.83432 0.0
H1972 H 0.70365 0.78027 0.8025 0.0
H1973 H 0.70214 0.80682 0.82003 0.0
C1974 C 0.11307 0.75239 0.86193 0.0
C1975 C 0.09374 0.75235 0.86834 0.0
C1976 C 0.12877 0.77132 0.85348 0.0
C1977 C 0.14904 0.83422 0.84712 0.0
H1978 H 0.17647 0.825 0.81298 0.0
C1979 C 0.20233 0.90822 0.80641 0.0
C1980 C 0.22252 0.90929 0.80063 0.0
C1981 C 0.18727 0.88949 0.81518 0.0
C1982 C 0.16915 0.82786 0.82258 0.0
H1983 H 0.07577 0.77225 0.87076 0.0
H1984 H 0.10255 0.80468 0.85567 0.0
H1985 H 0.14833 0.79101 0.82674 0.0
H1986 H 0.24286 0.89165 0.79958 0.0
H1987 H 0.21671 0.8591 0.815 0.0
H1988 H 0.16968 0.87108 0.84284 0.0
C1989 C 0.10584 0.79029 0.85735 0.0
C1990 C 0.15302 0.80838 0.83047 0.0
C1991 C 0.09022 0.77145 0.86582 0.0
C1992 C 0.2276 0.89149 0.80403 0.0
C1993 C 0.21247 0.87269 0.81271 0.0
C1994 C 0.16507 0.85368 0.83919 0.0
C1995 C 0.12549 0.79064 0.85124 0.0
C1996 C 0.14273 0.81132 0.84283 0.0
C1997 C 0.192 0.87133 0.81824 0.0
C1998 C 0.17529 0.85071 0.82683 0.0
H1999 H 0.11621 0.73789 0.86355 0.0
H2000 H 0.14381 0.77106 0.84902 0.0
H2001 H 0.14182 0.83717 0.85674 0.0
H2002 H 0.19802 0.92173 0.80401 0.0
H2003 H 0.17155 0.88886 0.81922 0.0
C2004 C 0.23579 0.33751 0.85889 0.0
C2005 C 0.23604 0.34668 0.87243 0.0
C2006 C 0.2192 0.33511 0.84875 0.0
C2007 C 0.17698 0.35501 0.83984 0.0
H2008 H 0.14727 0.29811 0.81728 0.0
C2009 C 0.09568 0.33032 0.80514 0.0
C2010 C 0.09632 0.32285 0.79124 0.0
C2011 C 0.11236 0.33262 0.81516 0.0
C2012 C 0.15554 0.31416 0.82343 0.0
H2013 H 0.21961 0.36134 0.88571 0.0
H2014 H 0.1904 0.35663 0.86821 0.0
H2015 H 0.17787 0.30425 0.83421 0.0
H2016 H 0.11434 0.31103 0.7771 0.0
H2017 H 0.1435 0.31509 0.7946 0.0
H2018 H 0.15445 0.36479 0.82914 0.0
C2019 C 0.20311 0.35147 0.86534 0.0
C2020 C 0.17314 0.31775 0.83309 0.0
C2021 C 0.21971 0.35393 0.87545 0.0
C2022 C 0.11355 0.31704 0.7877 0.0
C2023 C 0.13012 0.31918 0.79775 0.0
C2024 C 0.1593 0.35137 0.83023 0.0
C2025 C 0.20248 0.3418 0.85192 0.0
C2026 C 0.18409 0.33822 0.84142 0.0
C2027 C 0.12992 0.32732 0.81153 0.0
C2028 C 0.14838 0.33091 0.82192 0.0
H2029 H 0.24798 0.33157 0.85624 0.0
H2030 H 0.21943 0.32791 0.83844 0.0
H2031 H 0.18528 0.37115 0.84591 0.0
H2032 H 0.08272 0.33508 0.80814 0.0
H2033 H 0.11161 0.33868 0.82575 0.0
C2034 C 0.02784 0.45873 0.46578 0.0
C2035 C 0.01196 0.4346 0.4673 0.0
C2036 C 0.02579 0.47498 0.47433 0.0
C2037 C 0.00342 0.48271 0.50806 0.0
H2038 H -0.00085 0.53279 0.48894 0.0
C2039 C 0.00872 0.56218 0.53738 0.0
C2040 C 0.99049 0.56685 0.53456 0.0
C2041 C 0.01141 0.54606 0.52914 0.0
C2042 C 0.00027 0.51886 0.49439 0.0
H2043 H 0.98207 0.40839 0.47918 0.0
H2044 H 0.9789 0.43685 0.49446 0.0
H2045 H 0.00461 0.50446 0.47493 0.0
H2046 H 0.96096 0.55861 0.52085 0.0
H2047 H 0.96607 0.53067 0.5061 0.0
H2048 H -0.00055 0.49731 0.52753 0.0
C2049 C 0.99275 0.44315 0.48657 0.0
C2050 C 0.00356 0.50281 0.48641 0.0
C2051 C 0.99452 0.42692 0.47784 0.0
C2052 C 0.97516 0.55532 0.5232 0.0
C2053 C 0.97812 0.53946 0.51477 0.0
C2054 C 0.00057 0.49901 0.51605 0.0
C2055 C 0.00808 0.46733 0.48469 0.0
C2056 C 0.00509 0.48457 0.49318 0.0
C2057 C 0.99613 0.53452 0.51779 0.0
C2058 C -0.0011 0.51717 0.50928 0.0
H2059 H 0.04127 0.46509 0.45762 0.0
H2060 H 0.03791 0.49354 0.47276 0.0
H2061 H 0.00459 0.46882 0.51351 0.0
H2062 H 0.0206 0.57061 0.54619 0.0
H2063 H 0.0255 0.54265 0.53162 0.0
C2064 C 0.54774 0.56568 0.46702 0.0
C2065 C 0.56619 0.56346 0.46115 0.0
C2066 C 0.53156 0.54851 0.47625 0.0
C2067 C 0.50673 0.48605 0.4853 0.0
H2068 H 0.4834 0.5019 0.51889 0.0
C2069 C 0.44624 0.41631 0.52645 0.0
C2070 C 0.42821 0.41898 0.53255 0.0
C2071 C 0.46309 0.43381 0.51765 0.0
C2072 C 0.48951 0.49716 0.50945 0.0
H2073 H 0.58277 0.54208 0.46099 0.0
H2074 H 0.55451 0.51214 0.47704 0.0
H2075 H 0.51323 0.53316 0.50418 0.0
H2076 H 0.41379 0.44223 0.53409 0.0
H2077 H 0.44261 0.47225 0.51844 0.0
H2078 H 0.48288 0.45007 0.49046 0.0
C2079 C 0.5523 0.52692 0.47428 0.0
C2080 C 0.50665 0.51509 0.50104 0.0
C2081 C 0.5685 0.54409 0.4651 0.0
C2082 C 0.42719 0.43937 0.52942 0.0
C2083 C 0.44397 0.45681 0.52061 0.0
C2084 C 0.48952 0.46812 0.49367 0.0
C2085 C 0.53345 0.52874 0.4798 0.0
C2086 C 0.51545 0.50974 0.48887 0.0
C2087 C 0.46229 0.45439 0.51475 0.0
C2088 C 0.48067 0.47344 0.50584 0.0
H2089 H 0.54529 0.58022 0.46407 0.0
H2090 H 0.5171 0.55032 0.48024 0.0
H2091 H 0.51289 0.48135 0.47586 0.0
H2092 H 0.44745 0.40076 0.52854 0.0
H2093 H 0.47706 0.43144 0.5134 0.0
C2094 C 0.57518 0.02813 0.52604 0.0
C2095 C 0.57065 0.00964 0.53538 0.0
C2096 C 0.5588 0.02532 0.51563 0.0
C2097 C 0.49567 0.98971 0.50764 0.0
H2098 H 0.51461 0.01506 0.4696 0.0
C2099 C 0.4286 0.97193 0.46282 0.0
C2100 C 0.43337 0.99078 0.45372 0.0
C2101 C 0.44534 0.97382 0.47269 0.0
C2102 C 0.50905 0.00809 0.48022 0.0
H2103 H 0.54592 0.97332 0.54065 0.0
H2104 H 0.51742 0.96845 0.52254 0.0
H2105 H 0.54423 0.01911 0.4867 0.0
H2106 H 0.4591 0.02666 0.44821 0.0
H2107 H 0.48817 0.03 0.46544 0.0
H2108 H 0.46052 0.97884 0.50122 0.0
C2109 C 0.53337 0.98528 0.52344 0.0
C2110 C 0.52603 0.01041 0.49002 0.0
C2111 C 0.54972 0.98808 0.53381 0.0
C2112 C 0.45506 0.01166 0.45488 0.0
C2113 C 0.47175 0.01356 0.46475 0.0
C2114 C 0.47869 0.98743 0.49786 0.0
C2115 C 0.53756 0.00395 0.51435 0.0
C2116 C 0.51954 0.00127 0.50384 0.0
C2117 C 0.46718 0.99463 0.47371 0.0
C2118 C 0.48518 0.99666 0.48404 0.0
H2119 H 0.59103 0.04502 0.52705 0.0
H2120 H 0.56245 0.04011 0.50887 0.0
H2121 H 0.49013 0.9828 0.51828 0.0
H2122 H 0.41214 0.95554 0.46208 0.0
H2123 H 0.44136 0.95881 0.47934 0.0
C2124 C 0.20781 0.90768 0.06208 0.0
C2125 C 0.23054 0.91202 0.0589 0.0
C2126 C 0.18812 0.88825 0.05633 0.0
C2127 C 0.15525 0.85937 0.03222 0.0
H2128 H 0.14793 0.79726 0.0289 0.0
C2129 C 0.10506 0.79557 0.9868 0.0
C2130 C 0.08955 0.7719 0.99023 0.0
C2131 C 0.11942 0.81133 0.99718 0.0
C2132 C 0.14959 0.81444 0.0299 0.0
H2133 H 0.25013 0.89856 0.04758 0.0
H2134 H 0.2158 0.86446 0.03792 0.0
H2135 H 0.17847 0.82647 0.04438 0.0
H2136 H 0.07671 0.7465 0.00751 0.0
H2137 H 0.10255 0.774 0.02552 0.0
H2138 H 0.12705 0.84768 0.01729 0.0
C2139 C 0.21327 0.87612 0.04489 0.0
C2140 C 0.1671 0.83114 0.03867 0.0
C2141 C 0.23297 0.89568 0.05049 0.0
C2142 C 0.0887 0.76447 0.00439 0.0
C2143 C 0.10337 0.7802 0.01474 0.0
C2144 C 0.13798 0.84279 0.02331 0.0
C2145 C 0.19072 0.87257 0.04744 0.0
C2146 C 0.17035 0.85389 0.03971 0.0
C2147 C 0.11888 0.80375 0.0112 0.0
C2148 C 0.13528 0.82033 0.02187 0.0
H2149 H 0.20524 0.91962 0.06876 0.0
H2150 H 0.17087 0.88574 0.05858 0.0
H2151 H 0.15751 0.87683 0.03272 0.0
H2152 H 0.10664 0.80189 0.97599 0.0
H2153 H 0.13151 0.82934 0.99413 0.0
C2154 C 0.0853 0.29594 0.05144 0.0
C2155 C 0.08568 0.31434 0.05922 0.0
C2156 C 0.10617 0.29719 0.04714 0.0
C2157 C 0.16648 0.34074 0.03807 0.0
H2158 H 0.1734 0.2858 0.03443 0.0
C2159 C 0.24327 0.34389 0.00671 0.0
C2160 C 0.23618 0.32586 0.99661 0.0
C2161 C 0.22782 0.34243 0.01741 0.0
C2162 C 0.17174 0.30131 0.0354 0.0
H2163 H 0.10822 0.34805 0.0691 0.0
H2164 H 0.14485 0.35018 0.06164 0.0
H2165 H 0.1407 0.28328 0.04813 0.0
H2166 H 0.20795 0.29166 0.99024 0.0
H2167 H 0.18094 0.28922 0.00876 0.0
H2168 H 0.19698 0.35854 0.02491 0.0
C2169 C 0.12834 0.33488 0.05878 0.0
C2170 C 0.15303 0.29987 0.04324 0.0
C2171 C 0.10741 0.33358 0.06314 0.0
C2172 C 0.21377 0.30594 0.99778 0.0
C2173 C 0.19841 0.30442 0.0085 0.0
C2174 C 0.1852 0.34219 0.03024 0.0
C2175 C 0.12792 0.31689 0.0505 0.0
C2176 C 0.14979 0.31938 0.04428 0.0
C2177 C 0.20509 0.32284 0.01827 0.0
C2178 C 0.18761 0.32229 0.02847 0.0
H2179 H 0.06881 0.28073 0.04844 0.0
H2180 H 0.10519 0.28314 0.04065 0.0
H2181 H 0.16435 0.35602 0.03854 0.0
H2182 H 0.26041 0.3595 0.00601 0.0
H2183 H 0.23351 0.35681 0.02485 0.0
C2184 C 0.69284 0.78357 0.05776 0.0
C2185 C 0.67397 0.76489 0.06493 0.0
C2186 C 0.69083 0.80226 0.05243 0.0
C2187 C 0.64638 0.81448 0.03872 0.0
H2188 H 0.69936 0.87777 0.0357 0.0
C2189 C 0.65776 0.87528 0.99211 0.0
C2190 C 0.66784 0.89951 0.99445 0.0
C2191 C 0.65612 0.86034 0.00314 0.0
C2192 C 0.68423 0.86032 0.03663 0.0
H2193 H 0.63857 0.75186 0.07274 0.0
H2194 H 0.63498 0.78457 0.06326 0.0
H2195 H 0.70141 0.84977 0.0518 0.0
H2196 H 0.68368 0.92705 0.01027 0.0
H2197 H 0.68068 0.90083 0.02965 0.0
H2198 H 0.62938 0.82488 0.02335 0.0
C2199 C 0.65128 0.78456 0.06172 0.0
C2200 C 0.6855 0.84422 0.04576 0.0
C2201 C 0.65332 0.76583 0.06712 0.0
C2202 C 0.67579 0.90843 0.00816 0.0
C2203 C 0.6742 0.89346 0.01922 0.0
C2204 C 0.64511 0.83058 0.0296 0.0
C2205 C 0.66987 0.80273 0.05407 0.0
C2206 C 0.66689 0.82091 0.04654 0.0
C2207 C 0.66449 0.86927 0.01679 0.0
C2208 C 0.66432 0.85344 0.02811 0.0
H2209 H 0.70883 0.78324 0.05558 0.0
H2210 H 0.70533 0.81571 0.04635 0.0
H2211 H 0.63179 0.79664 0.03901 0.0
H2212 H 0.65112 0.86782 0.98172 0.0
H2213 H 0.64884 0.84185 0.00086 0.0
C2214 C 0.78846 0.09206 0.94198 0.0
C2215 C 0.76934 0.09251 0.93567 0.0
C2216 C 0.80786 0.11274 0.94673 0.0
C2217 C 0.82216 0.17059 0.96002 0.0
H2218 H 0.88541 0.1806 0.96103 0.0
C2219 C 0.89421 0.24579 0.99263 0.0
C2220 C 0.90668 0.23894 0.00171 0.0
C2221 C 0.88053 0.23111 0.98161 0.0
C2222 C 0.86784 0.17805 0.96082 0.0
H2223 H 0.75628 0.11522 0.92858 0.0
H2224 H 0.79029 0.15145 0.93687 0.0
H2225 H 0.85565 0.14902 0.94648 0.0
H2226 H 0.91529 0.21173 0.006 0.0
H2227 H 0.8914 0.18611 0.98681 0.0
H2228 H 0.83405 0.19905 0.9747 0.0
C2229 C 0.79005 0.135 0.93834 0.0
C2230 C 0.8508 0.15998 0.95249 0.0
C2231 C 0.77059 0.11427 0.93359 0.0
C2232 C 0.90608 0.21762 0.99911 0.0
C2233 C 0.8924 0.20294 0.98809 0.0
C2234 C 0.83918 0.18867 0.96831 0.0
C2235 C 0.80864 0.13438 0.9453 0.0
C2236 C 0.82761 0.15566 0.9523 0.0
C2237 C 0.87903 0.20927 0.97943 0.0
C2238 C 0.86206 0.19223 0.96909 0.0
H2239 H 0.78792 0.07557 0.94395 0.0
H2240 H 0.82167 0.11154 0.95224 0.0
H2241 H 0.80442 0.16757 0.9603 0.0
H2242 H 0.89469 0.26233 0.99419 0.0
H2243 H 0.87073 0.23664 0.97497 0.0
C2244 C 0.78072 0.69592 0.99606 0.0
C2245 C 0.76142 0.6742 -0.0001 0.0
C2246 C 0.79593 0.69727 0.98526 0.0
C2247 C 0.80394 0.6626 0.95645 0.0
H2248 H 0.8697 0.70347 0.96526 0.0
C2249 C 0.88001 0.65018 0.93615 0.0
C2250 C 0.90152 0.67042 0.93303 0.0
C2251 C 0.86104 0.6521 0.94116 0.0
C2252 C 0.85142 0.69228 0.96248 0.0
H2253 H 0.74241 0.63698 0.99529 0.0
H2254 H 0.76936 0.63909 0.97681 0.0
H2255 H 0.84007 0.70435 0.98013 0.0
H2256 H 0.91959 0.70847 0.93198 0.0
H2257 H 0.88645 0.71175 0.94063 0.0
H2258 H 0.81565 0.64969 0.93919 0.0
C2259 C 0.77251 0.65524 0.98179 0.0
C2260 C 0.83436 0.69281 0.971 0.0
C2261 C 0.7571 0.65397 0.99243 0.0
C2262 C 0.90321 0.69252 0.93418 0.0
C2263 C 0.88432 0.69443 0.93926 0.0
C2264 C 0.82108 0.66188 0.948 0.0
C2265 C 0.79241 0.67685 0.97826 0.0
C2266 C 0.81037 0.67776 0.96824 0.0
C2267 C 0.86331 0.67429 0.94323 0.0
C2268 C 0.84498 0.67653 0.95106 0.0
H2269 H 0.78422 0.71181 0.00156 0.0
H2270 H 0.81072 0.71429 0.98261 0.0
H2271 H 0.78565 0.65104 0.95385 0.0
H2272 H 0.87814 0.63291 0.93524 0.0
H2273 H 0.84508 0.63628 0.94419 0.0
C2274 C 0.31506 0.21307 0.93104 0.0
C2275 C 0.33027 0.23618 0.93571 0.0
C2276 C 0.31668 0.19424 0.93665 0.0
C2277 C 0.35473 0.1776 0.9556 0.0
H2278 H 0.29829 0.13208 0.97525 0.0
C2279 C 0.35727 0.12002 0.00073 0.0
C2280 C 0.3376 0.0979 0.00332 0.0
C2281 C 0.35661 0.13469 0.99023 0.0
C2282 C 0.31409 0.14419 0.96957 0.0
H2283 H 0.35977 0.25738 0.94965 0.0
H2284 H 0.36311 0.2247 0.95886 0.0
H2285 H 0.29725 0.16153 0.96009 0.0
H2286 H 0.30218 0.07324 0.99666 0.0
H2287 H 0.30121 0.09843 0.97788 0.0
H2288 H 0.37166 0.16037 0.96496 0.0
C2289 C 0.34988 0.22126 0.9509 0.0
C2290 C 0.31346 0.16113 0.96091 0.0
C2291 C 0.348 0.24002 0.94552 0.0
C2292 C 0.31748 0.09036 0.99493 0.0
C2293 C 0.31694 0.10486 0.98424 0.0
C2294 C 0.35529 0.16039 0.96405 0.0
C2295 C 0.33387 0.19818 0.9468 0.0
C2296 C 0.3339 0.17832 0.95415 0.0
C2297 C 0.33636 0.12741 0.9819 0.0
C2298 C 0.33513 0.14385 0.97148 0.0
H2299 H 0.30151 0.20942 0.92328 0.0
H2300 H 0.30423 0.17656 0.93327 0.0
H2301 H 0.37068 0.19061 0.95039 0.0
H2302 H 0.3729 0.12633 0.00719 0.0
H2303 H 0.37174 0.15206 0.98902 0.0
C2304 C 0.91831 0.23638 0.37168 0.0
C2305 C 0.91519 0.24703 0.38378 0.0
C2306 C 0.89911 0.21793 0.36498 0.0
C2307 C 0.83815 0.17164 0.36792 0.0
H2308 H 0.83634 0.18452 0.32781 0.0
C2309 C 0.76037 0.11136 0.33071 0.0
C2310 C 0.76645 0.10836 0.31686 0.0
C2311 C 0.77747 0.12769 0.33989 0.0
C2312 C 0.83668 0.18046 0.33894 0.0
H2313 H 0.88967 0.24562 0.39894 0.0
H2314 H 0.85587 0.21279 0.38723 0.0
H2315 H 0.86827 0.21299 0.34248 0.0
H2316 H 0.79521 0.11904 0.30199 0.0
H2317 H 0.82499 0.14708 0.31798 0.0
H2318 H 0.80678 0.13874 0.36426 0.0
C2319 C 0.87328 0.219 0.38295 0.0
C2320 C 0.85493 0.19683 0.34735 0.0
C2321 C 0.89259 0.23769 0.38965 0.0
C2322 C 0.78995 0.12144 0.31249 0.0
C2323 C 0.80699 0.13753 0.32166 0.0
C2324 C 0.81991 0.15504 0.35944 0.0
C2325 C 0.87637 0.20956 0.37029 0.0
C2326 C 0.85606 0.19244 0.36184 0.0
C2327 C 0.80094 0.14113 0.3354 0.0
C2328 C 0.81922 0.15913 0.34479 0.0
H2329 H 0.93558 0.24285 0.3671 0.0
H2330 H 0.90196 0.21062 0.35537 0.0
H2331 H 0.83868 0.16793 0.3791 0.0
H2332 H 0.74235 0.10146 0.33431 0.0
H2333 H 0.77221 0.13013 0.35037 0.0
C2334 C 0.91188 0.67288 0.33828 0.0
C2335 C 0.90386 0.6567 0.32701 0.0
C2336 C 0.89673 0.67075 0.34935 0.0
C2337 C 0.83883 0.62956 0.3656 0.0
H2338 H 0.83715 0.68628 0.37436 0.0
C2339 C 0.75548 0.62997 0.38173 0.0
C2340 C 0.75672 0.64668 0.39148 0.0
C2341 C 0.77574 0.62985 0.37758 0.0
C2342 C 0.83769 0.67036 0.37231 0.0
H2343 H 0.87408 0.62496 0.31887 0.0
H2344 H 0.84757 0.62152 0.33794 0.0
H2345 H 0.86908 0.68874 0.35997 0.0
H2346 H 0.77978 0.67568 0.40506 0.0
H2347 H 0.81555 0.67568 0.39765 0.0
H2348 H 0.80675 0.61108 0.37736 0.0
C2349 C 0.86558 0.63574 0.33835 0.0
C2350 C 0.856 0.67176 0.36405 0.0
C2351 C 0.88067 0.6379 0.3273 0.0
C2352 C 0.77844 0.66262 0.39753 0.0
C2353 C 0.79884 0.66269 0.39324 0.0
C2354 C 0.8205 0.62816 0.37381 0.0
C2355 C 0.8733 0.65233 0.3494 0.0
C2356 C 0.85633 0.65128 0.36019 0.0
C2357 C 0.79772 0.64657 0.38301 0.0
C2358 C 0.81932 0.64845 0.37684 0.0
H2359 H 0.92964 0.68762 0.33831 0.0
H2360 H 0.90324 0.68372 0.35776 0.0
H2361 H 0.83887 0.61352 0.36306 0.0
H2362 H 0.73887 0.61736 0.37703 0.0
H2363 H 0.77431 0.61739 0.36957 0.0
C2364 C 0.34892 0.21755 0.32083 0.0
C2365 C 0.34581 0.23672 0.32395 0.0
C2366 C 0.35026 0.20388 0.33173 0.0
C2367 C 0.33131 0.18429 0.36792 0.0
H2368 H 0.37758 0.16434 0.36579 0.0
C2369 C 0.31896 0.0978 0.39089 0.0
C2370 C 0.33873 0.09699 0.3957 0.0
C2371 C 0.32122 0.11873 0.38571 0.0
C2372 C 0.36481 0.17006 0.36674 0.0
H2373 H 0.34197 0.25664 0.3411 0.0
H2374 H 0.34365 0.23219 0.36015 0.0
H2375 H 0.3797 0.19381 0.3492 0.0
H2376 H 0.37605 0.11778 0.39985 0.0
H2377 H 0.37996 0.15443 0.39089 0.0
H2378 H 0.31591 0.15981 0.38515 0.0
C2379 C 0.34511 0.22792 0.34921 0.0
C2380 C 0.36589 0.18674 0.35713 0.0
C2381 C 0.34404 0.24182 0.33829 0.0
C2382 C 0.36047 0.1179 0.39628 0.0
C2383 C 0.36276 0.13882 0.39102 0.0
C2384 C 0.3301 0.1674 0.37748 0.0
C2385 C 0.34828 0.20886 0.34601 0.0
C2386 C 0.34883 0.19358 0.3574 0.0
C2387 C 0.34333 0.13923 0.38517 0.0
C2388 C 0.34654 0.15973 0.37677 0.0
H2389 H 0.3498 0.21271 0.30994 0.0
H2390 H 0.35227 0.189 0.32895 0.0
H2391 H 0.3179 0.18922 0.36832 0.0
H2392 H 0.30195 0.08197 0.39046 0.0
H2393 H 0.30593 0.11844 0.38121 0.0
C2394 C 0.55868 0.57031 0.32922 0.0
C2395 C 0.57341 0.56541 0.33752 0.0
C2396 C 0.54391 0.55419 0.31907 0.0
C2397 C 0.51606 0.4909 0.31065 0.0
H2398 H 0.49749 0.50931 0.27601 0.0
C2399 C 0.45199 0.4219 0.27182 0.0
C2400 C 0.43225 0.42399 0.26868 0.0
C2401 C 0.4719 0.4406 0.27788 0.0
C2402 C 0.50259 0.50397 0.28564 0.0
H2403 H 0.58533 0.5406 0.3413 0.0
H2404 H 0.56023 0.51279 0.32326 0.0
H2405 H 0.52787 0.53936 0.29112 0.0
H2406 H 0.41849 0.44781 0.26849 0.0
H2407 H 0.45343 0.48063 0.2791 0.0
H2408 H 0.49082 0.45558 0.30518 0.0
C2409 C 0.55938 0.52865 0.32485 0.0
C2410 C 0.51988 0.52115 0.29434 0.0
C2411 C 0.57385 0.54459 0.33514 0.0
C2412 C 0.4334 0.44567 0.2709 0.0
C2413 C 0.45343 0.46447 0.27687 0.0
C2414 C 0.49905 0.47379 0.30189 0.0
C2415 C 0.54382 0.53297 0.3169 0.0
C2416 C 0.52664 0.51483 0.30705 0.0
C2417 C 0.47254 0.46183 0.28085 0.0
C2418 C 0.49196 0.48014 0.28938 0.0
H2419 H 0.55793 0.5862 0.33096 0.0
H2420 H 0.53197 0.558 0.31331 0.0
H2421 H 0.52033 0.48533 0.32049 0.0
H2422 H 0.45159 0.40536 0.27038 0.0
H2423 H 0.4865 0.43819 0.28073 0.0
C2424 C 0.56529 0.02 0.26147 0.0
C2425 C 0.56574 0.99893 0.26285 0.0
C2426 C 0.54563 0.02125 0.26576 0.0
C2427 C 0.48412 0.98551 0.27963 0.0
H2428 H 0.50265 0.04117 0.30237 0.0
C2429 C 0.41875 0.99504 0.31654 0.0
C2430 C 0.42753 0.00411 0.33011 0.0
C2431 C 0.43388 0.9961 0.30573 0.0
C2432 C 0.49715 0.0255 0.29608 0.0
H2433 H 0.54481 0.96206 0.26845 0.0
H2434 H 0.51119 0.96453 0.27666 0.0
H2435 H 0.5314 0.03896 0.28739 0.0
H2436 H 0.45894 0.02103 0.34305 0.0
H2437 H 0.48516 0.02266 0.32438 0.0
H2438 H 0.45021 0.97144 0.28922 0.0
C2439 C 0.52584 0.98008 0.2721 0.0
C2440 C 0.51358 0.02436 0.28726 0.0
C2441 C 0.54535 0.97874 0.26759 0.0
C2442 C 0.4517 0.01435 0.33262 0.0
C2443 C 0.46675 0.01532 0.32189 0.0
C2444 C 0.4677 0.98657 0.28858 0.0
C2445 C 0.52609 0.00159 0.27176 0.0
C2446 C 0.50749 0.00409 0.27921 0.0
C2447 C 0.45806 0.00617 0.30831 0.0
C2448 C 0.47425 0.0063 0.29724 0.0
H2449 H 0.5806 0.03597 0.2579 0.0
H2450 H 0.54622 0.03796 0.26498 0.0
H2451 H 0.47868 0.9698 0.27338 0.0
H2452 H 0.4002 0.98719 0.31427 0.0
H2453 H 0.42666 0.98907 0.29536 0.0
C2454 C 0.96475 0.54445 0.27584 0.0
C2455 C 0.98454 0.56106 0.26823 0.0
C2456 C 0.96545 0.52667 0.28354 0.0
C2457 C 0.99816 0.49536 0.28943 0.0
H2458 H 0.97718 0.4918 0.32838 0.0
C2459 C 0.02044 0.44933 0.33424 0.0
C2460 C 0.0034 0.43735 0.34478 0.0
C2461 C 0.01698 0.46256 0.32389 0.0
C2462 C 0.98274 0.49221 0.31749 0.0
H2463 H 0.02001 0.57104 0.26191 0.0
H2464 H 0.02128 0.53995 0.27547 0.0
H2465 H 0.97252 0.51714 0.3115 0.0
H2466 H 0.96903 0.42899 0.35244 0.0
H2467 H 0.96277 0.4517 0.33427 0.0
H2468 H 0.00846 0.47042 0.29548 0.0
C2469 C 0.00523 0.54073 0.27545 0.0
C2470 C 0.98009 0.50677 0.30781 0.0
C2471 C 0.00456 0.55861 0.26777 0.0
C2472 C 0.98263 0.43841 0.34459 0.0
C2473 C 0.97908 0.45145 0.33418 0.0
C2474 C 0.00068 0.48061 0.29911 0.0
C2475 C 0.98593 0.52508 0.28378 0.0
C2476 C 0.98783 0.50857 0.2937 0.0
C2477 C 0.99633 0.46393 0.3238 0.0
C2478 C 0.99309 0.47895 0.31329 0.0
H2479 H 0.94914 0.54596 0.27656 0.0
H2480 H 0.95021 0.51465 0.28971 0.0
H2481 H 0.00417 0.49634 0.27859 0.0
H2482 H 0.0367 0.44895 0.33422 0.0
H2483 H 0.03077 0.47221 0.31618 0.0
C2484 C 0.40984 0.46541 0.6552 0.0
C2485 C 0.40895 0.44364 0.65473 0.0
C2486 C 0.42382 0.48225 0.66522 0.0
C2487 C 0.45836 0.49257 0.69828 0.0
H2488 H 0.49811 0.55369 0.68125 0.0
C2489 C 0.54644 0.56368 0.7224 0.0
C2490 C 0.55351 0.58726 0.71965 0.0
C2491 C 0.52538 0.5458 0.71677 0.0
C2492 C 0.48686 0.53693 0.68632 0.0
H2493 H 0.42118 0.42203 0.66475 0.0
H2494 H 0.44577 0.45155 0.68222 0.0
H2495 H 0.46712 0.52292 0.66729 0.0
H2496 H 0.54368 0.61095 0.70999 0.0
H2497 H 0.50653 0.57988 0.70058 0.0
H2498 H 0.47862 0.50664 0.71727 0.0
C2499 C 0.43544 0.45549 0.67496 0.0
C2500 C 0.46907 0.51923 0.67828 0.0
C2501 C 0.42139 0.4386 0.66494 0.0
C2502 C 0.5386 0.59281 0.71207 0.0
C2503 C 0.51746 0.57502 0.70663 0.0
C2504 C 0.47618 0.51039 0.70639 0.0
C2505 C 0.43727 0.47771 0.67495 0.0
C2506 C 0.45477 0.49679 0.68409 0.0
C2507 C 0.51102 0.55131 0.70842 0.0
C2508 C 0.49079 0.53272 0.70044 0.0
H2509 H 0.40008 0.46961 0.64763 0.0
H2510 H 0.42455 0.49907 0.66513 0.0
H2511 H 0.44749 0.47547 0.70306 0.0
H2512 H 0.5578 0.5591 0.7282 0.0
H2513 H 0.52104 0.52775 0.71828 0.0
C2514 C 0.56581 0.01832 0.66811 0.0
C2515 C 0.56212 0.00098 0.65808 0.0
C2516 C 0.54807 0.01474 0.67771 0.0
C2517 C 0.48388 0.98046 0.68113 0.0
H2518 H 0.49521 0.00162 0.7203 0.0
C2519 C 0.40751 0.96222 0.71797 0.0
C2520 C 0.40991 0.98132 0.72599 0.0
C2521 C 0.4269 0.96323 0.71128 0.0
C2522 C 0.49183 0.99574 0.70936 0.0
H2523 H 0.53759 0.96582 0.65078 0.0
H2524 H 0.50675 0.95949 0.66756 0.0
H2525 H 0.52783 0.00601 0.70555 0.0
H2526 H 0.43488 0.01594 0.73392 0.0
H2527 H 0.46874 0.0179 0.72193 0.0
H2528 H 0.44809 0.97051 0.68476 0.0
C2529 C 0.52308 0.97607 0.66781 0.0
C2530 C 0.51049 0.99826 0.70092 0.0
C2531 C 0.54074 0.97968 0.6582 0.0
C2532 C 0.43239 0.00105 0.72767 0.0
C2533 C 0.45183 0.00208 0.72093 0.0
C2534 C 0.46531 0.97793 0.68953 0.0
C2535 C 0.52635 0.99373 0.67748 0.0
C2536 C 0.50669 0.99064 0.6867 0.0
C2537 C 0.44916 0.9834 0.71236 0.0
C2538 C 0.46903 0.98553 0.70374 0.0
H2539 H 0.58207 0.03497 0.66819 0.0
H2540 H 0.55105 0.02877 0.68494 0.0
H2541 H 0.48043 0.97489 0.67013 0.0
H2542 H 0.39047 0.94685 0.71629 0.0
H2543 H 0.42434 0.94839 0.70494 0.0
C2544 C 0.02682 0.45831 0.72715 0.0
C2545 C 0.00748 0.43918 0.73365 0.0
C2546 C 0.02476 0.47679 0.72146 0.0
C2547 C 0.97902 0.48646 0.70623 0.0
H2548 H 0.03129 0.54953 0.70075 0.0
C2549 C 0.98476 0.54204 0.65798 0.0
C2550 C 0.99495 0.56647 0.65939 0.0
C2551 C 0.98482 0.5284 0.66932 0.0
C2552 C 0.01636 0.53214 0.70235 0.0
H2553 H 0.97145 0.42529 0.74038 0.0
H2554 H 0.96795 0.4579 0.73075 0.0
H2555 H 0.03456 0.52359 0.71795 0.0
H2556 H 0.01296 0.59572 0.67394 0.0
H2557 H 0.01263 0.57177 0.6939 0.0
H2558 H 0.96081 0.49496 0.69066 0.0
C2559 C 0.98453 0.45832 0.72968 0.0
C2560 C 0.01833 0.51716 0.71211 0.0
C2561 C 0.98654 0.4397 0.73526 0.0
C2562 C 0.00484 0.57691 0.67253 0.0
C2563 C 0.00485 0.56323 0.68393 0.0
C2564 C 0.97699 0.50146 0.69657 0.0
C2565 C 0.00334 0.47664 0.72222 0.0
C2566 C -5e-05 0.4939 0.71384 0.0
C2567 C 0.99493 0.53882 0.68242 0.0
C2568 C 0.99591 0.5242 0.69417 0.0
H2569 H 0.0431 0.45825 0.7256 0.0
H2570 H 0.03954 0.49039 0.71565 0.0
H2571 H 0.96455 0.46863 0.70715 0.0
H2572 H 0.97665 0.53338 0.64808 0.0
H2573 H 0.97735 0.50971 0.6677 0.0
C2574 C 0.22673 0.9072 0.66131 0.0
C2575 C 0.22878 0.89844 0.67461 0.0
C2576 C 0.21311 0.89187 0.65049 0.0
C2577 C 0.19025 0.83333 0.63659 0.0
H2578 H 0.13401 0.83451 0.62585 0.0
C2579 C 0.11046 0.75256 0.6137 0.0
C2580 C 0.09488 0.75502 0.60466 0.0
C2581 C 0.12964 0.77223 0.61955 0.0
C2582 C 0.14989 0.83421 0.62837 0.0
H2583 H 0.21802 0.86643 0.68671 0.0
H2584 H 0.19541 0.83994 0.66757 0.0
H2585 H 0.16313 0.86548 0.64095 0.0
H2586 H 0.08757 0.77999 0.59418 0.0
H2587 H 0.12168 0.81465 0.60404 0.0
H2588 H 0.17736 0.80227 0.62405 0.0
C2589 C 0.20429 0.8587 0.66566 0.0
C2590 C 0.16649 0.85192 0.6371 0.0
C2591 C 0.2174 0.87395 0.67659 0.0
C2592 C 0.0993 0.77764 0.60119 0.0
C2593 C 0.11875 0.79744 0.6069 0.0
C2594 C 0.17394 0.81591 0.62764 0.0
C2595 C 0.20181 0.86754 0.65261 0.0
C2596 C 0.18638 0.85116 0.64161 0.0
C2597 C 0.13393 0.79496 0.61638 0.0
C2598 C 0.15311 0.81562 0.62384 0.0
H2599 H 0.2356 0.92588 0.65922 0.0
H2600 H 0.21144 0.899 0.64045 0.0
H2601 H 0.20564 0.83259 0.63987 0.0
H2602 H 0.10723 0.73531 0.61679 0.0
H2603 H 0.14047 0.76946 0.62706 0.0
C2604 C 0.10948 0.36394 0.66056 0.0
C2605 C 0.09197 0.34222 0.66593 0.0
C2606 C 0.12418 0.36488 0.64956 0.0
C2607 C 0.13248 0.32941 0.62184 0.0
H2608 H 0.19841 0.37236 0.62904 0.0
C2609 C 0.20787 0.31942 0.59777 0.0
C2610 C 0.22962 0.33981 0.59532 0.0
C2611 C 0.18911 0.32096 0.60354 0.0
C2612 C 0.18008 0.3606 0.62664 0.0
H2613 H 0.07568 0.30445 0.66365 0.0
H2614 H 0.10145 0.3061 0.64452 0.0
H2615 H 0.16914 0.37288 0.64444 0.0
H2616 H 0.24805 0.37792 0.59617 0.0
H2617 H 0.21519 0.38056 0.60565 0.0
H2618 H 0.14365 0.31672 0.60422 0.0
C2619 C 0.1036 0.32241 0.64866 0.0
C2620 C 0.16326 0.36089 0.63551 0.0
C2621 C 0.08885 0.32146 0.65965 0.0
C2622 C 0.23158 0.36181 0.59779 0.0
C2623 C 0.2128 0.36334 0.60345 0.0
C2624 C 0.14938 0.32914 0.61292 0.0
C2625 C 0.12176 0.34413 0.64371 0.0
C2626 C 0.13928 0.34509 0.63336 0.0
C2627 C 0.19166 0.34294 0.60691 0.0
C2628 C 0.1734 0.34454 0.61534 0.0
H2629 H 0.11203 0.38023 0.66502 0.0
H2630 H 0.13774 0.3819 0.6458 0.0
H2631 H 0.11412 0.31719 0.61982 0.0
H2632 H 0.20561 0.3022 0.59576 0.0
H2633 H 0.17308 0.30488 0.60609 0.0
C2634 C 0.65234 0.77945 0.67265 0.0
C2635 C 0.67012 0.77359 0.67313 0.0
C2636 C 0.65315 0.79547 0.6626 0.0
C2637 C 0.6537 0.82165 0.63574 0.0
H2638 H 0.71241 0.88061 0.63299 0.0
C2639 C 0.66383 0.8987 0.6009 0.0
C2640 C 0.67314 0.92011 0.60829 0.0
C2641 C 0.66523 0.87982 0.60667 0.0
C2642 C 0.69596 0.86417 0.63358 0.0
H2643 H 0.70253 0.77966 0.66336 0.0
H2644 H 0.70397 0.80777 0.64577 0.0
H2645 H 0.71044 0.84853 0.64717 0.0
H2646 H 0.69152 0.93836 0.62751 0.0
H2647 H 0.69442 0.90578 0.63727 0.0
H2648 H 0.63903 0.83761 0.62256 0.0
C2649 C 0.68942 0.79993 0.65319 0.0
C2650 C 0.69487 0.84576 0.6416 0.0
C2651 C 0.68851 0.78374 0.66317 0.0
C2652 C 0.68461 0.9224 0.62131 0.0
C2653 C 0.68622 0.90366 0.62697 0.0
C2654 C 0.65485 0.84 0.62762 0.0
C2655 C 0.67184 0.80609 0.65288 0.0
C2656 C 0.67359 0.82452 0.64303 0.0
C2657 C 0.6762 0.88206 0.61984 0.0
C2658 C 0.67585 0.86163 0.62674 0.0
H2659 H 0.63785 0.77172 0.68012 0.0
H2660 H 0.63948 0.80006 0.66271 0.0
H2661 H 0.63713 0.80537 0.63656 0.0
H2662 H 0.65519 0.8964 0.59076 0.0
H2663 H 0.65753 0.86338 0.6009 0.0
loop_
_geom_bond_atom_site_label_1
_geom_bond_atom_site_label_2
_geom_bond_distance
_geom_bond_site_symmetry_2
_ccdc_geom_bond_type
Li0 N17 1.990 . S
Li0 O60 1.956 . S
Li0 O61 1.970 . S
Li0 O62 1.961 . S
Li1 N25 1.990 . S
Li1 O60 1.970 . S
Li1 O61 1.956 . S
Li1 O63 1.961 . S
Li2 N47 1.990 . S
Li2 O60 1.961 . S
Li2 O62 1.956 . S
Li2 O63 1.970 . S
Li3 N53 1.990 1_545 S
Li3 O61 1.961 . S
Li3 O62 1.970 . S
Li3 O63 1.956 . S
C4 C6 1.348 . S
C4 C7 1.356 . S
C4 O60 1.325 . S
N5 C8 1.314 . S
N5 C9 1.279 . S
C6 C4 1.348 . S
C6 C8 1.353 . S
C6 H64 0.929 . S
C7 C4 1.356 . S
C7 C9 1.358 . S
C7 H65 0.930 . S
C8 N5 1.314 . S
C8 C6 1.353 . S
C8 H66 0.930 . S
C9 N5 1.279 . S
C9 C7 1.358 . S
C9 H67 0.930 . S
C10 C13 1.348 . S
C10 C14 1.356 . S
C10 O61 1.325 . S
C11 N12 1.279 . S
C11 C14 1.358 . S
C11 H68 0.930 . S
N12 C11 1.279 . S
N12 C15 1.314 . S
C13 C10 1.348 . S
C13 C15 1.353 . S
C13 H69 0.929 . S
C14 C10 1.356 . S
C14 C11 1.358 . S
C14 H70 0.930 . S
C15 N12 1.314 . S
C15 C13 1.353 . S
C15 H71 0.930 . S
C16 N17 1.314 . S
C16 C21 1.353 . S
C16 H22 0.930 . S
N17 Li0 1.990 . S
N17 C16 1.314 . S
N17 C19 1.279 . S
C18 C19 1.358 . S
C18 C20 1.356 . S
C18 H72 0.930 . S
C19 N17 1.279 . S
C19 C18 1.358 . S
C19 H23 0.930 . S
C20 C18 1.356 . S
C20 C21 1.348 . S
C21 C16 1.353 . S
C21 C20 1.348 . S
C21 H73 0.929 . S
H22 C16 0.930 . S
H23 C19 0.930 . S
C24 N25 1.314 . S
C24 C26 1.353 . S
C24 H30 0.930 . S
N25 Li1 1.990 . S
N25 C24 1.314 . S
N25 C28 1.279 . S
C26 C24 1.353 . S
C26 C29 1.348 . S
C26 H74 0.929 . S
C27 C28 1.358 . S
C27 C29 1.356 . S
C27 H75 0.930 . S
C28 N25 1.279 . S
C28 C27 1.358 . S
C28 H31 0.930 . S
C29 C26 1.348 . S
C29 C27 1.356 . S
H30 C24 0.930 . S
H31 C28 0.930 . S
C32 C34 1.303 1_545 S
C32 C35 1.356 . S
C32 O62 1.325 . S
N33 C36 1.314 1_546 S
N33 C37 1.258 1_556 S
C34 C32 1.303 1_565 S
C34 C36 1.367 . S
C34 H76 0.962 . S
C35 C32 1.356 . S
C35 C37 1.415 . S
C35 H77 0.930 . S
C36 N33 1.314 1_564 S
C36 C34 1.367 . S
C36 H78 0.930 . S
C37 N33 1.258 1_554 S
C37 C35 1.415 . S
C37 H79 0.894 1_554 S
C38 C39 1.348 . S
C38 C40 1.356 . S
C38 O63 1.325 1_565 S
C39 C38 1.348 . S
C39 C41 1.353 . S
C39 H80 0.929 . S
C40 C38 1.356 . S
C40 C42 1.358 . S
C40 H81 0.930 . S
C41 C39 1.353 . S
C41 N43 1.314 . S
C41 H82 0.930 . S
C42 C40 1.358 . S
C42 N43 1.279 . S
C42 H83 0.930 . S
N43 C41 1.314 . S
N43 C42 1.279 . S
C44 C46 1.353 . S
C44 N47 1.314 . S
C44 H50 0.930 . S
C45 N47 1.279 . S
C45 C48 1.358 . S
C45 H51 0.930 . S
C46 C44 1.353 . S
C46 C49 1.348 . S
C46 H84 0.929 . S
N47 Li2 1.990 . S
N47 C44 1.314 . S
N47 C45 1.279 . S
C48 C45 1.358 . S
C48 C49 1.356 . S
C48 H85 0.930 . S
C49 C46 1.348 . S
C49 C48 1.356 . S
H50 C44 0.930 . S
H51 C45 0.930 . S
C52 N53 1.314 . S
C52 C54 1.353 . S
C52 H58 0.930 . S
N53 Li3 1.990 1_565 S
N53 C52 1.314 . S
N53 C56 1.279 . S
C54 C52 1.353 . S
C54 C57 1.348 . S
C54 H86 0.929 . S
C55 C56 1.358 . S
C55 C57 1.356 . S
C55 H87 0.930 . S
C56 N53 1.279 . S
C56 C55 1.358 . S
C56 H59 0.930 . S
C57 C54 1.348 . S
C57 C55 1.356 . S
H58 C52 0.930 . S
H59 C56 0.930 . S
O60 Li0 1.956 . S
O60 Li1 1.970 . S
O60 Li2 1.961 . S
O60 C4 1.325 . S
O61 Li0 1.970 . S
O61 Li1 1.956 . S
O61 Li3 1.961 . S
O61 C10 1.325 . S
O62 Li0 1.961 . S
O62 Li2 1.956 . S
O62 Li3 1.970 . S
O62 C32 1.325 . S
O63 Li1 1.961 . S
O63 Li2 1.970 . S
O63 Li3 1.956 . S
O63 C38 1.325 1_545 S
H64 C6 0.929 . S
H65 C7 0.930 . S
H66 C8 0.930 . S
H67 C9 0.930 . S
H68 C11 0.930 . S
H69 C13 0.929 . S
H70 C14 0.930 . S
H71 C15 0.930 . S
H72 C18 0.930 . S
H73 C21 0.929 . S
H74 C26 0.929 . S
H75 C27 0.930 . S
H76 C34 0.962 . S
H77 C35 0.930 . S
H78 C36 0.930 . S
H79 C37 0.894 1_556 S
H80 C39 0.929 . S
H81 C40 0.930 . S
H82 C41 0.930 . S
H83 C42 0.930 . S
H84 C46 0.929 . S
H85 C48 0.930 . S
H86 C54 0.929 . S
H87 C55 0.930 . S
Li88 N105 1.990 . S
Li88 O148 1.956 . S
Li88 O149 1.970 . S
Li88 O150 1.961 . S
Li89 N113 1.990 1_655 S
Li89 O148 1.970 . S
Li89 O149 1.956 . S
Li89 O151 1.961 . S
Li90 N135 1.990 . S
Li90 O148 1.961 . S
Li90 O150 1.956 . S
Li90 O151 1.970 . S
Li91 N141 1.990 . S
Li91 O149 1.961 . S
Li91 O150 1.970 . S
Li91 O151 1.956 . S
C92 C94 1.348 1_655 S
C92 C95 1.356 . S
C92 O148 1.325 . S
N93 C96 1.314 1_656 S
N93 C97 1.279 . S
C94 C92 1.348 1_455 S
C94 C96 1.353 . S
C94 H152 0.929 . S
C95 C92 1.356 . S
C95 C97 1.359 1_554 S
C95 H153 0.930 . S
C96 N93 1.314 1_454 S
C96 C94 1.353 . S
C96 H154 0.930 . S
C97 N93 1.279 . S
C97 C95 1.359 1_556 S
C97 H155 0.930 . S
C98 C101 1.348 . S
C98 C102 1.356 . S
C98 O149 1.325 1_455 S
C99 N100 1.279 . S
C99 C102 1.358 . S
C99 H156 0.930 . S
N100 C99 1.279 . S
N100 C103 1.314 . S
C101 C98 1.348 . S
C101 C103 1.353 . S
C101 H157 0.929 . S
C102 C98 1.356 . S
C102 C99 1.358 . S
C102 H158 0.930 . S
C103 N100 1.314 . S
C103 C101 1.353 . S
C103 H159 0.930 . S
C104 N105 1.314 . S
C104 C109 1.353 . S
C104 H110 0.930 . S
N105 Li88 1.990 . S
N105 C104 1.314 . S
N105 C107 1.279 . S
C106 C107 1.358 . S
C106 C108 1.356 . S
C106 H160 0.930 . S
C107 N105 1.279 . S
C107 C106 1.358 . S
C107 H111 0.930 . S
C108 C106 1.356 . S
C108 C109 1.348 . S
C109 C104 1.353 . S
C109 C108 1.348 . S
C109 H161 0.929 . S
H110 C104 0.930 . S
H111 C107 0.930 . S
C112 N113 1.314 . S
C112 C114 1.353 . S
C112 H118 0.930 . S
N113 Li89 1.990 1_455 S
N113 C112 1.314 . S
N113 C116 1.279 . S
C114 C112 1.353 . S
C114 C117 1.348 . S
C114 H162 0.929 . S
C115 C116 1.358 . S
C115 C117 1.356 . S
C115 H163 0.930 . S
C116 N113 1.279 . S
C116 C115 1.358 . S
C116 H119 0.930 . S
C117 C114 1.348 . S
C117 C115 1.356 . S
H118 C112 0.930 . S
H119 C116 0.930 . S
C120 C122 1.348 . S
C120 C123 1.356 . S
C120 O150 1.325 . S
N121 C124 1.314 . S
N121 C125 1.279 . S
C122 C120 1.348 . S
C122 C124 1.353 . S
C122 H164 0.929 . S
C123 C120 1.356 . S
C123 C125 1.358 . S
C123 H165 0.930 . S
C124 N121 1.314 . S
C124 C122 1.353 . S
C124 H166 0.930 . S
C125 N121 1.279 . S
C125 C123 1.358 . S
C125 H167 0.930 . S
C126 C127 1.348 . S
C126 C128 1.356 . S
C126 O151 1.325 . S
C127 C126 1.348 . S
C127 C129 1.353 . S
C127 H168 0.929 . S
C128 C126 1.356 . S
C128 C130 1.358 . S
C128 H169 0.930 . S
C129 C127 1.353 . S
C129 N131 1.314 . S
C129 H170 0.930 . S
C130 C128 1.358 . S
C130 N131 1.279 . S
C130 H171 0.930 . S
N131 C129 1.314 . S
N131 C130 1.279 . S
C132 C134 1.353 . S
C132 N135 1.314 . S
C132 H138 0.930 . S
C133 N135 1.279 . S
C133 C136 1.358 . S
C133 H139 0.930 . S
C134 C132 1.353 . S
C134 C137 1.348 . S
C134 H172 0.929 . S
N135 Li90 1.990 . S
N135 C132 1.314 . S
N135 C133 1.279 . S
C136 C133 1.358 . S
C136 C137 1.356 . S
C136 H173 0.930 . S
C137 C134 1.348 . S
C137 C136 1.356 . S
H138 C132 0.930 . S
H139 C133 0.930 . S
C140 N141 1.314 . S
C140 C142 1.353 . S
C140 H146 0.930 . S
N141 Li91 1.990 . S
N141 C140 1.314 . S
N141 C144 1.279 . S
C142 C140 1.353 . S
C142 C145 1.348 . S
C142 H174 0.929 . S
C143 C144 1.358 . S
C143 C145 1.356 . S
C143 H175 0.930 . S
C144 N141 1.279 . S
C144 C143 1.358 . S
C144 H147 0.930 . S
C145 C142 1.348 . S
C145 C143 1.356 . S
H146 C140 0.930 . S
H147 C144 0.930 . S
O148 Li88 1.956 . S
O148 Li89 1.970 . S
O148 Li90 1.961 . S
O148 C92 1.325 . S
O149 Li88 1.970 . S
O149 Li89 1.956 . S
O149 Li91 1.961 . S
O149 C98 1.325 1_655 S
O150 Li88 1.961 . S
O150 Li90 1.956 . S
O150 Li91 1.970 . S
O150 C120 1.325 . S
O151 Li89 1.961 . S
O151 Li90 1.970 . S
O151 Li91 1.956 . S
O151 C126 1.325 . S
H152 C94 0.929 . S
H153 C95 0.930 . S
H154 C96 0.930 . S
H155 C97 0.930 . S
H156 C99 0.930 . S
H157 C101 0.929 . S
H158 C102 0.930 . S
H159 C103 0.930 . S
H160 C106 0.930 . S
H161 C109 0.929 . S
H162 C114 0.929 . S
H163 C115 0.930 . S
H164 C122 0.929 . S
H165 C123 0.930 . S
H166 C124 0.930 . S
H167 C125 0.930 . S
H168 C127 0.929 . S
H169 C128 0.930 . S
H170 C129 0.930 . S
H171 C130 0.930 . S
H172 C134 0.929 . S
H173 C136 0.930 . S
H174 C142 0.929 . S
H175 C143 0.930 . S
Li176 N193 1.990 . S
Li176 O236 1.956 . S
Li176 O237 1.970 . S
Li176 O238 1.961 . S
Li177 N201 1.990 . S
Li177 O236 1.970 . S
Li177 O237 1.956 . S
Li177 O239 1.961 . S
Li178 N223 1.990 . S
Li178 O236 1.961 . S
Li178 O238 1.956 . S
Li178 O239 1.970 . S
Li179 N229 1.990 . S
Li179 O237 1.961 . S
Li179 O238 1.970 . S
Li179 O239 1.956 . S
C180 C182 1.348 . S
C180 C183 1.356 . S
C180 O236 1.325 . S
N181 C184 1.314 . S
N181 C185 1.279 . S
C182 C180 1.348 . S
C182 C184 1.353 . S
C182 H240 0.929 . S
C183 C180 1.356 . S
C183 C185 1.358 . S
C183 H241 0.930 . S
C184 N181 1.314 . S
C184 C182 1.353 . S
C184 H242 0.930 . S
C185 N181 1.279 . S
C185 C183 1.358 . S
C185 H243 0.930 . S
C186 C189 1.348 . S
C186 C190 1.356 . S
C186 O237 1.325 . S
C187 N188 1.279 . S
C187 C190 1.358 . S
C187 H244 0.930 . S
N188 C187 1.279 . S
N188 C191 1.314 . S
C189 C186 1.348 . S
C189 C191 1.353 . S
C189 H245 0.929 . S
C190 C186 1.356 . S
C190 C187 1.358 . S
C190 H246 0.930 . S
C191 N188 1.314 . S
C191 C189 1.353 . S
C191 H247 0.930 . S
C192 N193 1.314 . S
C192 C197 1.353 . S
C192 H198 0.930 . S
N193 Li176 1.990 . S
N193 C192 1.314 . S
N193 C195 1.279 . S
C194 C195 1.358 . S
C194 C196 1.356 . S
C194 H248 0.930 . S
C195 N193 1.279 . S
C195 C194 1.358 . S
C195 H199 0.930 . S
C196 C194 1.356 . S
C196 C197 1.348 . S
C197 C192 1.353 . S
C197 C196 1.348 . S
C197 H249 0.929 . S
H198 C192 0.930 . S
H199 C195 0.930 . S
C200 N201 1.314 . S
C200 C202 1.353 . S
C200 H206 0.930 . S
N201 Li177 1.990 . S
N201 C200 1.314 . S
N201 C204 1.279 . S
C202 C200 1.353 . S
C202 C205 1.348 . S
C202 H250 0.929 . S
C203 C204 1.358 . S
C203 C205 1.356 . S
C203 H251 0.930 . S
C204 N201 1.279 . S
C204 C203 1.358 . S
C204 H207 0.930 . S
C205 C202 1.348 . S
C205 C203 1.356 . S
H206 C200 0.930 . S
H207 C204 0.930 . S
C208 C210 1.348 . S
C208 C211 1.356 . S
C208 O238 1.325 . S
N209 C212 1.314 1_556 S
N209 C213 1.279 1_556 S
C210 C208 1.348 . S
C210 C212 1.353 . S
C210 H252 0.929 . S
C211 C208 1.356 . S
C211 C213 1.358 . S
C211 H253 0.930 . S
C212 N209 1.314 1_554 S
C212 C210 1.353 . S
C212 H254 0.930 1_554 S
C213 N209 1.279 1_554 S
C213 C211 1.358 . S
C213 H255 0.930 1_554 S
C214 C215 1.348 . S
C214 C216 1.356 . S
C214 O239 1.325 . S
C215 C214 1.348 . S
C215 C217 1.353 . S
C215 H256 0.929 . S
C216 C214 1.356 . S
C216 C218 1.358 . S
C216 H257 0.930 . S
C217 C215 1.353 . S
C217 N219 1.314 . S
C217 H258 0.930 . S
C218 C216 1.358 . S
C218 N219 1.279 . S
C218 H259 0.930 . S
N219 C217 1.314 . S
N219 C218 1.279 . S
C220 C222 1.353 . S
C220 N223 1.314 . S
C220 H226 0.930 . S
C221 N223 1.279 . S
C221 C224 1.358 . S
C221 H227 0.930 . S
C222 C220 1.353 . S
C222 C225 1.348 . S
C222 H260 0.929 . S
N223 Li178 1.990 . S
N223 C220 1.314 . S
N223 C221 1.279 . S
C224 C221 1.358 . S
C224 C225 1.356 . S
C224 H261 0.930 . S
C225 C222 1.348 . S
C225 C224 1.356 . S
H226 C220 0.930 . S
H227 C221 0.930 . S
C228 N229 1.314 . S
C228 C230 1.353 . S
C228 H234 0.930 . S
N229 Li179 1.990 . S
N229 C228 1.314 . S
N229 C232 1.279 . S
C230 C228 1.353 . S
C230 C233 1.348 . S
C230 H262 0.929 . S
C231 C232 1.358 . S
C231 C233 1.356 . S
C231 H263 0.930 . S
C232 N229 1.279 . S
C232 C231 1.358 . S
C232 H235 0.930 . S
C233 C230 1.348 . S
C233 C231 1.356 . S
H234 C228 0.930 . S
H235 C232 0.930 . S
O236 Li176 1.956 . S
O236 Li177 1.970 . S
O236 Li178 1.961 . S
O236 C180 1.325 . S
O237 Li176 1.970 . S
O237 Li177 1.956 . S
O237 Li179 1.961 . S
O237 C186 1.325 . S
O238 Li176 1.961 . S
O238 Li178 1.956 . S
O238 Li179 1.970 . S
O238 C208 1.325 . S
O239 Li177 1.961 . S
O239 Li178 1.970 . S
O239 Li179 1.956 . S
O239 C214 1.325 . S
H240 C182 0.929 . S
H241 C183 0.930 . S
H242 C184 0.930 . S
H243 C185 0.930 . S
H244 C187 0.930 . S
H245 C189 0.929 . S
H246 C190 0.930 . S
H247 C191 0.930 . S
H248 C194 0.930 . S
H249 C197 0.929 . S
H250 C202 0.929 . S
H251 C203 0.930 . S
H252 C210 0.929 . S
H253 C211 0.930 . S
H254 C212 0.930 1_556 S
H255 C213 0.930 1_556 S
H256 C215 0.929 . S
H257 C216 0.930 . S
H258 C217 0.930 . S
H259 C218 0.930 . S
H260 C222 0.929 . S
H261 C224 0.930 . S
H262 C230 0.929 . S
H263 C231 0.930 . S
Li264 N281 1.990 . S
Li264 O324 1.956 . S
Li264 O325 1.970 . S
Li264 O326 1.961 . S
Li265 N289 1.990 1_565 S
Li265 O324 1.970 . S
Li265 O325 1.956 . S
Li265 O327 1.961 . S
Li266 N311 1.990 . S
Li266 O324 1.961 . S
Li266 O326 1.956 . S
Li266 O327 1.970 . S
Li267 N317 1.990 . S
Li267 O325 1.961 . S
Li267 O326 1.970 . S
Li267 O327 1.956 . S
C268 C270 1.348 . S
C268 C271 1.356 1_545 S
C268 O324 1.325 1_545 S
N269 C272 1.314 . S
N269 C273 1.279 . S
C270 C268 1.348 . S
C270 C272 1.353 . S
C270 H328 0.929 . S
C271 C268 1.356 1_565 S
C271 C273 1.358 1_565 S
C271 H329 0.930 . S
C272 N269 1.314 . S
C272 C270 1.353 . S
C272 H330 0.930 . S
C273 N269 1.279 . S
C273 C271 1.358 1_545 S
C273 H331 0.930 . S
C274 C277 1.348 . S
C274 C278 1.356 . S
C274 O325 1.325 . S
C275 N276 1.279 1_556 S
C275 C278 1.359 . S
C275 H332 0.930 1_556 S
N276 C275 1.279 1_554 S
N276 C279 1.314 1_554 S
C277 C274 1.348 . S
C277 C279 1.353 . S
C277 H333 0.929 . S
C278 C274 1.356 . S
C278 C275 1.359 . S
C278 H334 0.930 . S
C279 N276 1.314 1_556 S
C279 C277 1.353 . S
C279 H335 0.949 . S
C280 N281 1.314 . S
C280 C285 1.353 . S
C280 H286 0.930 . S
N281 Li264 1.990 . S
N281 C280 1.314 . S
N281 C283 1.279 . S
C282 C283 1.358 . S
C282 C284 1.356 . S
C282 H336 0.930 1_565 S
C283 N281 1.279 . S
C283 C282 1.358 . S
C283 H287 0.951 . S
C284 C282 1.356 . S
C284 C285 1.348 . S
C285 C280 1.353 . S
C285 C284 1.348 . S
C285 H337 0.929 . S
H286 C280 0.930 . S
H287 C283 0.951 . S
C288 N289 1.314 . S
C288 C290 1.353 . S
C288 H294 0.930 . S
N289 Li265 1.990 1_545 S
N289 C288 1.314 . S
N289 C292 1.279 . S
C290 C288 1.353 . S
C290 C293 1.348 . S
C290 H338 0.929 . S
C291 C292 1.358 . S
C291 C293 1.356 . S
C291 H339 0.930 . S
C292 N289 1.279 . S
C292 C291 1.358 . S
C292 H295 0.930 . S
C293 C290 1.348 . S
C293 C291 1.356 . S
H294 C288 0.930 . S
H295 C292 0.930 . S
C296 C298 1.348 . S
C296 C299 1.356 . S
C296 O326 1.325 . S
N297 C300 1.314 . S
N297 C301 1.279 . S
C298 C296 1.348 . S
C298 C300 1.353 . S
C298 H340 0.929 . S
C299 C296 1.356 . S
C299 C301 1.358 . S
C299 H341 0.930 . S
C300 N297 1.314 . S
C300 C298 1.353 . S
C300 H342 0.930 . S
C301 N297 1.279 . S
C301 C299 1.358 . S
C301 H343 0.930 . S
C302 C303 1.348 . S
C302 C304 1.356 . S
C302 O327 1.325 . S
C303 C302 1.348 . S
C303 C305 1.353 . S
C303 H344 0.929 . S
C304 C302 1.356 . S
C304 C306 1.358 . S
C304 H345 0.930 . S
C305 C303 1.353 . S
C305 N307 1.314 . S
C305 H346 0.930 . S
C306 C304 1.358 . S
C306 N307 1.279 . S
C306 H347 0.930 . S
N307 C305 1.314 . S
N307 C306 1.279 . S
C308 C310 1.353 . S
C308 N311 1.314 . S
C308 H314 0.930 . S
C309 N311 1.279 . S
C309 C312 1.358 . S
C309 H315 0.930 . S
C310 C308 1.353 . S
C310 C313 1.348 . S
C310 H348 0.929 . S
N311 Li266 1.990 . S
N311 C308 1.314 . S
N311 C309 1.279 . S
C312 C309 1.358 . S
C312 C313 1.356 . S
C312 H349 0.930 . S
C313 C310 1.348 . S
C313 C312 1.356 . S
H314 C308 0.930 . S
H315 C309 0.930 . S
C316 N317 1.314 . S
C316 C318 1.353 . S
C316 H322 0.930 . S
N317 Li267 1.990 . S
N317 C316 1.314 . S
N317 C320 1.279 . S
C318 C316 1.353 . S
C318 C321 1.348 . S
C318 H350 0.929 . S
C319 C320 1.358 . S
C319 C321 1.356 . S
C319 H351 0.930 . S
C320 N317 1.279 . S
C320 C319 1.358 . S
C320 H323 0.930 . S
C321 C318 1.348 . S
C321 C319 1.356 . S
H322 C316 0.930 . S
H323 C320 0.930 . S
O324 Li264 1.956 . S
O324 Li265 1.970 . S
O324 Li266 1.961 . S
O324 C268 1.325 1_565 S
O325 Li264 1.970 . S
O325 Li265 1.956 . S
O325 Li267 1.961 . S
O325 C274 1.325 . S
O326 Li264 1.961 . S
O326 Li266 1.956 . S
O326 Li267 1.970 . S
O326 C296 1.325 . S
O327 Li265 1.961 . S
O327 Li266 1.970 . S
O327 Li267 1.956 . S
O327 C302 1.325 . S
H328 C270 0.929 . S
H329 C271 0.930 . S
H330 C272 0.930 . S
H331 C273 0.930 . S
H332 C275 0.930 1_554 S
H333 C277 0.929 . S
H334 C278 0.930 . S
H335 C279 0.949 . S
H336 C282 0.930 1_545 S
H337 C285 0.929 . S
H338 C290 0.929 . S
H339 C291 0.930 . S
H340 C298 0.929 . S
H341 C299 0.930 . S
H342 C300 0.930 . S
H343 C301 0.930 . S
H344 C303 0.929 . S
H345 C304 0.930 . S
H346 C305 0.930 . S
H347 C306 0.930 . S
H348 C310 0.929 . S
H349 C312 0.930 . S
H350 C318 0.929 . S
H351 C319 0.930 . S
Li352 N369 1.990 . S
Li352 O412 1.956 . S
Li352 O413 1.970 . S
Li352 O414 1.961 . S
Li353 N377 1.990 . S
Li353 O412 1.970 . S
Li353 O413 1.956 . S
Li353 O415 1.961 . S
Li354 N399 1.990 . S
Li354 O412 1.961 . S
Li354 O414 1.956 . S
Li354 O415 1.970 . S
Li355 N405 1.990 1_455 S
Li355 O413 1.961 . S
Li355 O414 1.970 . S
Li355 O415 1.956 . S
C356 C358 1.348 . S
C356 C359 1.356 . S
C356 O412 1.325 . S
N357 C360 1.314 . S
N357 C361 1.279 . S
C358 C356 1.348 . S
C358 C360 1.353 . S
C358 H416 0.929 . S
C359 C356 1.356 . S
C359 C361 1.358 . S
C359 H417 0.930 . S
C360 N357 1.314 . S
C360 C358 1.353 . S
C360 H418 0.930 . S
C361 N357 1.279 . S
C361 C359 1.358 . S
C361 H419 0.930 . S
C362 C365 1.348 . S
C362 C366 1.356 . S
C362 O413 1.325 . S
C363 N364 1.279 . S
C363 C366 1.358 . S
C363 H420 0.930 . S
N364 C363 1.279 . S
N364 C367 1.314 . S
C365 C362 1.348 . S
C365 C367 1.353 . S
C365 H421 0.929 . S
C366 C362 1.356 . S
C366 C363 1.358 . S
C366 H422 0.930 . S
C367 N364 1.314 . S
C367 C365 1.353 . S
C367 H423 0.930 . S
C368 N369 1.314 . S
C368 C373 1.353 . S
C368 H374 0.930 . S
N369 Li352 1.990 . S
N369 C368 1.314 . S
N369 C371 1.279 . S
C370 C371 1.358 . S
C370 C372 1.356 . S
C370 H424 0.930 . S
C371 N369 1.279 . S
C371 C370 1.358 . S
C371 H375 0.930 . S
C372 C370 1.356 . S
C372 C373 1.348 . S
C373 C368 1.353 . S
C373 C372 1.348 . S
C373 H425 0.929 . S
H374 C368 0.930 . S
H375 C371 0.930 . S
C376 N377 1.314 . S
C376 C378 1.353 . S
C376 H382 0.930 . S
N377 Li353 1.990 . S
N377 C376 1.314 . S
N377 C380 1.279 . S
C378 C376 1.353 . S
C378 C381 1.348 . S
C378 H426 0.929 . S
C379 C380 1.358 . S
C379 C381 1.356 . S
C379 H427 0.930 . S
C380 N377 1.279 . S
C380 C379 1.358 . S
C380 H383 0.930 . S
C381 C378 1.348 . S
C381 C379 1.356 . S
H382 C376 0.930 . S
H383 C380 0.930 . S
C384 C386 1.348 . S
C384 C387 1.366 . S
C384 O414 1.325 1_655 S
N385 C388 1.314 . S
N385 C389 1.279 . S
C386 C384 1.348 . S
C386 C388 1.353 . S
C386 H428 0.929 . S
C387 C384 1.366 . S
C387 C389 1.366 . S
C387 H429 0.911 1_655 S
C388 N385 1.314 . S
C388 C386 1.353 . S
C388 H430 0.930 . S
C389 N385 1.279 . S
C389 C387 1.366 . S
C389 H431 0.930 . S
C390 C391 1.348 . S
C390 C392 1.356 . S
C390 O415 1.325 . S
C391 C390 1.348 . S
C391 C393 1.353 . S
C391 H432 0.929 . S
C392 C390 1.356 . S
C392 C394 1.377 . S
C392 H433 0.930 . S
C393 C391 1.353 . S
C393 N395 1.314 1_556 S
C393 H434 0.953 1_455 S
C394 C392 1.377 . S
C394 N395 1.272 1_556 S
C394 H435 0.919 1_556 S
N395 C393 1.314 1_554 S
N395 C394 1.272 1_554 S
C396 C398 1.353 . S
C396 N399 1.314 . S
C396 H402 0.930 . S
C397 N399 1.279 . S
C397 C400 1.358 . S
C397 H403 0.930 1_455 S
C398 C396 1.353 . S
C398 C401 1.348 . S
C398 H436 0.929 . S
N399 Li354 1.990 . S
N399 C396 1.314 . S
N399 C397 1.279 . S
C400 C397 1.358 . S
C400 C401 1.356 . S
C400 H437 0.930 1_455 S
C401 C398 1.348 . S
C401 C400 1.356 . S
H402 C396 0.930 . S
H403 C397 0.930 1_655 S
C404 N405 1.314 . S
C404 C406 1.353 . S
C404 H410 0.930 . S
N405 Li355 1.990 1_655 S
N405 C404 1.314 . S
N405 C408 1.279 . S
C406 C404 1.353 . S
C406 C409 1.348 . S
C406 H438 0.929 . S
C407 C408 1.358 . S
C407 C409 1.356 . S
C407 H439 0.930 . S
C408 N405 1.279 . S
C408 C407 1.358 . S
C408 H411 0.930 . S
C409 C406 1.348 . S
C409 C407 1.356 . S
H410 C404 0.930 . S
H411 C408 0.930 . S
O412 Li352 1.956 . S
O412 Li353 1.970 . S
O412 Li354 1.961 . S
O412 C356 1.325 . S
O413 Li352 1.970 . S
O413 Li353 1.956 . S
O413 Li355 1.961 . S
O413 C362 1.325 . S
O414 Li352 1.961 . S
O414 Li354 1.956 . S
O414 Li355 1.970 . S
O414 C384 1.325 1_455 S
O415 Li353 1.961 . S
O415 Li354 1.970 . S
O415 Li355 1.956 . S
O415 C390 1.325 . S
H416 C358 0.929 . S
H417 C359 0.930 . S
H418 C360 0.930 . S
H419 C361 0.930 . S
H420 C363 0.930 . S
H421 C365 0.929 . S
H422 C366 0.930 . S
H423 C367 0.930 . S
H424 C370 0.930 . S
H425 C373 0.929 . S
H426 C378 0.929 . S
H427 C379 0.930 . S
H428 C386 0.929 . S
H429 C387 0.911 1_455 S
H430 C388 0.930 . S
H431 C389 0.930 . S
H432 C391 0.929 . S
H433 C392 0.930 . S
H434 C393 0.953 1_655 S
H435 C394 0.919 1_554 S
H436 C398 0.929 . S
H437 C400 0.930 1_655 S
H438 C406 0.929 . S
H439 C407 0.930 . S
Li440 N457 1.990 . S
Li440 O500 1.956 . S
Li440 O501 1.970 . S
Li440 O502 1.961 . S
Li441 N465 1.990 . S
Li441 O500 1.970 . S
Li441 O501 1.956 . S
Li441 O503 1.961 . S
Li442 N487 1.990 . S
Li442 O500 1.961 . S
Li442 O502 1.956 . S
Li442 O503 1.970 . S
Li443 N493 1.990 . S
Li443 O501 1.961 . S
Li443 O502 1.970 . S
Li443 O503 1.956 . S
C444 C446 1.348 . S
C444 C447 1.356 . S
C444 O500 1.325 . S
N445 C448 1.314 1_554 S
N445 C449 1.279 1_554 S
C446 C444 1.348 . S
C446 C448 1.353 . S
C446 H504 0.929 . S
C447 C444 1.356 . S
C447 C449 1.358 . S
C447 H505 0.930 . S
C448 N445 1.314 1_556 S
C448 C446 1.353 . S
C448 H506 0.959 . S
C449 N445 1.279 1_556 S
C449 C447 1.358 . S
C449 H507 0.930 1_556 S
C450 C453 1.348 . S
C450 C454 1.356 . S
C450 O501 1.325 . S
C451 N452 1.279 . S
C451 C454 1.358 . S
C451 H508 0.930 . S
N452 C451 1.279 . S
N452 C455 1.314 . S
C453 C450 1.348 . S
C453 C455 1.353 . S
C453 H509 0.929 . S
C454 C450 1.356 . S
C454 C451 1.358 . S
C454 H510 0.930 . S
C455 N452 1.314 . S
C455 C453 1.353 . S
C455 H511 0.930 . S
C456 N457 1.314 . S
C456 C461 1.353 . S
C456 H462 0.930 . S
N457 Li440 1.990 . S
N457 C456 1.314 . S
N457 C459 1.279 . S
C458 C459 1.358 . S
C458 C460 1.356 . S
C458 H512 0.930 . S
C459 N457 1.279 . S
C459 C458 1.358 . S
C459 H463 0.930 . S
C460 C458 1.356 . S
C460 C461 1.348 . S
C461 C456 1.353 . S
C461 C460 1.348 . S
C461 H513 0.929 . S
H462 C456 0.930 . S
H463 C459 0.930 . S
C464 N465 1.314 . S
C464 C466 1.353 . S
C464 H470 0.930 . S
N465 Li441 1.990 . S
N465 C464 1.314 . S
N465 C468 1.279 . S
C466 C464 1.353 . S
C466 C469 1.348 . S
C466 H514 0.929 . S
C467 C468 1.358 . S
C467 C469 1.356 . S
C467 H515 0.930 . S
C468 N465 1.279 . S
C468 C467 1.358 . S
C468 H471 0.930 . S
C469 C466 1.348 . S
C469 C467 1.356 . S
H470 C464 0.930 . S
H471 C468 0.930 . S
C472 C474 1.348 . S
C472 C475 1.356 . S
C472 O502 1.325 . S
N473 C476 1.314 . S
N473 C477 1.279 . S
C474 C472 1.348 . S
C474 C476 1.353 . S
C474 H516 0.929 . S
C475 C472 1.356 . S
C475 C477 1.358 . S
C475 H517 0.930 . S
C476 N473 1.314 . S
C476 C474 1.353 . S
C476 H518 0.930 . S
C477 N473 1.279 . S
C477 C475 1.358 . S
C477 H519 0.930 . S
C478 C479 1.348 . S
C478 C480 1.356 . S
C478 O503 1.325 . S
C479 C478 1.348 . S
C479 C481 1.353 . S
C479 H520 0.929 . S
C480 C478 1.356 . S
C480 C482 1.358 . S
C480 H521 0.930 . S
C481 C479 1.353 . S
C481 N483 1.314 . S
C481 H522 0.930 . S
C482 C480 1.358 . S
C482 N483 1.279 . S
C482 H523 0.930 . S
N483 C481 1.314 . S
N483 C482 1.279 . S
C484 C486 1.353 . S
C484 N487 1.314 . S
C484 H490 0.930 . S
C485 N487 1.279 . S
C485 C488 1.358 . S
C485 H491 0.930 . S
C486 C484 1.353 . S
C486 C489 1.348 . S
C486 H524 0.929 . S
N487 Li442 1.990 . S
N487 C484 1.314 . S
N487 C485 1.279 . S
C488 C485 1.358 . S
C488 C489 1.356 . S
C488 H525 0.930 . S
C489 C486 1.348 . S
C489 C488 1.356 . S
H490 C484 0.930 . S
H491 C485 0.930 . S
C492 N493 1.314 . S
C492 C494 1.353 . S
C492 H498 0.930 . S
N493 Li443 1.990 . S
N493 C492 1.314 . S
N493 C496 1.279 . S
C494 C492 1.353 . S
C494 C497 1.348 . S
C494 H526 0.929 . S
C495 C496 1.358 . S
C495 C497 1.356 . S
C495 H527 0.930 . S
C496 N493 1.279 . S
C496 C495 1.358 . S
C496 H499 0.930 . S
C497 C494 1.348 . S
C497 C495 1.356 . S
H498 C492 0.930 . S
H499 C496 0.930 . S
O500 Li440 1.956 . S
O500 Li441 1.970 . S
O500 Li442 1.961 . S
O500 C444 1.325 . S
O501 Li440 1.970 . S
O501 Li441 1.956 . S
O501 Li443 1.961 . S
O501 C450 1.325 . S
O502 Li440 1.961 . S
O502 Li442 1.956 . S
O502 Li443 1.970 . S
O502 C472 1.325 . S
O503 Li441 1.961 . S
O503 Li442 1.970 . S
O503 Li443 1.956 . S
O503 C478 1.325 . S
H504 C446 0.929 . S
H505 C447 0.930 . S
H506 C448 0.959 . S
H507 C449 0.930 1_554 S
H508 C451 0.930 . S
H509 C453 0.929 . S
H510 C454 0.930 . S
H511 C455 0.930 . S
H512 C458 0.930 . S
H513 C461 0.929 . S
H514 C466 0.929 . S
H515 C467 0.930 . S
H516 C474 0.929 . S
H517 C475 0.930 . S
H518 C476 0.930 . S
H519 C477 0.930 . S
H520 C479 0.929 . S
H521 C480 0.930 . S
H522 C481 0.930 . S
H523 C482 0.930 . S
H524 C486 0.929 . S
H525 C488 0.930 . S
H526 C494 0.929 . S
H527 C495 0.930 . S
Li528 N545 1.981 . S
Li528 O588 1.974 . S
Li528 O589 1.957 1_455 S
Li528 O590 1.971 1_455 S
Li529 N553 1.997 . S
Li529 O588 1.950 1_655 S
Li529 O589 1.986 . S
Li529 O591 1.940 1_655 S
Li530 N575 1.990 . S
Li530 O588 1.961 . S
Li530 O590 1.956 1_455 S
Li530 O591 1.970 . S
Li531 N581 1.990 . S
Li531 O589 1.961 . S
Li531 O590 1.970 . S
Li531 O591 1.956 1_655 S
C532 C534 1.348 . S
C532 C535 1.356 . S
C532 O588 1.325 . S
N533 C536 1.314 . S
N533 C537 1.279 . S
C534 C532 1.348 . S
C534 C536 1.353 . S
C534 H592 0.929 . S
C535 C532 1.356 . S
C535 C537 1.358 . S
C535 H593 0.930 . S
C536 N533 1.314 . S
C536 C534 1.353 . S
C536 H594 0.930 . S
C537 N533 1.279 . S
C537 C535 1.358 . S
C537 H595 0.930 . S
C538 C541 1.348 . S
C538 C542 1.356 . S
C538 O589 1.325 . S
C539 N540 1.279 . S
C539 C542 1.358 . S
C539 H596 0.930 . S
N540 C539 1.279 . S
N540 C543 1.314 . S
C541 C538 1.348 . S
C541 C543 1.353 . S
C541 H597 0.929 . S
C542 C538 1.356 . S
C542 C539 1.358 . S
C542 H598 0.930 . S
C543 N540 1.314 . S
C543 C541 1.353 . S
C543 H599 0.930 . S
C544 N545 1.314 1_655 S
C544 C549 1.353 . S
C544 H550 0.930 . S
N545 Li528 1.981 . S
N545 C544 1.314 1_455 S
N545 C547 1.279 . S
C546 C547 1.358 . S
C546 C548 1.356 1_455 S
C546 H600 0.930 . S
C547 N545 1.279 . S
C547 C546 1.358 . S
C547 H551 0.930 . S
C548 C546 1.356 1_655 S
C548 C549 1.348 . S
C549 C544 1.353 . S
C549 C548 1.348 . S
C549 H601 0.929 . S
H550 C544 0.930 . S
H551 C547 0.930 . S
C552 N553 1.314 1_455 S
C552 C554 1.353 . S
C552 H558 0.930 . S
N553 Li529 1.997 . S
N553 C552 1.314 1_655 S
N553 C556 1.279 . S
C554 C552 1.353 . S
C554 C557 1.348 . S
C554 H602 0.929 . S
C555 C556 1.358 . S
C555 C557 1.356 1_655 S
C555 H603 0.930 . S
C556 N553 1.279 . S
C556 C555 1.358 . S
C556 H559 0.930 . S
C557 C554 1.348 . S
C557 C555 1.356 1_455 S
H558 C552 0.930 . S
H559 C556 0.930 . S
C560 C562 1.349 . S
C560 C563 1.351 1_655 S
C560 O590 1.328 . S
N561 C564 1.314 1_455 S
N561 C565 1.279 . S
C562 C560 1.349 . S
C562 C564 1.353 . S
C562 H604 0.929 . S
C563 C560 1.351 1_455 S
C563 C565 1.358 . S
C563 H605 0.930 . S
C564 N561 1.314 1_655 S
C564 C562 1.353 . S
C564 H606 0.930 . S
C565 N561 1.279 . S
C565 C563 1.358 . S
C565 H607 0.930 . S
C566 C567 1.348 . S
C566 C568 1.356 1_455 S
C566 O591 1.325 . S
C567 C566 1.348 . S
C567 C569 1.353 . S
C567 H608 0.929 . S
C568 C566 1.356 1_655 S
C568 C570 1.358 . S
C568 H609 0.930 . S
C569 C567 1.353 . S
C569 N571 1.310 1_455 S
C569 H610 0.930 . S
C570 C568 1.358 . S
C570 N571 1.289 . S
C570 H611 0.930 . S
N571 C569 1.310 1_655 S
N571 C570 1.289 . S
C572 C574 1.353 . S
C572 N575 1.314 . S
C572 H578 0.930 . S
C573 N575 1.279 . S
C573 C576 1.358 . S
C573 H579 0.930 . S
C574 C572 1.353 . S
C574 C577 1.348 . S
C574 H612 0.929 . S
N575 Li530 1.990 . S
N575 C572 1.314 . S
N575 C573 1.279 . S
C576 C573 1.358 . S
C576 C577 1.356 . S
C576 H613 0.930 . S
C577 C574 1.348 . S
C577 C576 1.356 . S
H578 C572 0.930 . S
H579 C573 0.930 . S
C580 N581 1.314 . S
C580 C582 1.353 . S
C580 H586 0.930 . S
N581 Li531 1.990 . S
N581 C580 1.314 . S
N581 C584 1.279 . S
C582 C580 1.353 . S
C582 C585 1.348 . S
C582 H614 0.929 . S
C583 C584 1.358 . S
C583 C585 1.356 . S
C583 H615 0.930 . S
C584 N581 1.279 . S
C584 C583 1.358 . S
C584 H587 0.930 . S
C585 C582 1.348 . S
C585 C583 1.356 . S
H586 C580 0.930 . S
H587 C584 0.930 . S
O588 Li528 1.974 . S
O588 Li529 1.950 1_455 S
O588 Li530 1.961 . S
O588 C532 1.325 . S
O589 Li528 1.957 1_655 S
O589 Li529 1.986 . S
O589 Li531 1.961 . S
O589 C538 1.325 . S
O590 Li528 1.971 1_655 S
O590 Li530 1.956 1_655 S
O590 Li531 1.970 . S
O590 C560 1.328 . S
O591 Li529 1.940 1_455 S
O591 Li530 1.970 . S
O591 Li531 1.956 1_455 S
O591 C566 1.325 . S
H592 C534 0.929 . S
H593 C535 0.930 . S
H594 C536 0.930 . S
H595 C537 0.930 . S
H596 C539 0.930 . S
H597 C541 0.929 . S
H598 C542 0.930 . S
H599 C543 0.930 . S
H600 C546 0.930 . S
H601 C549 0.929 . S
H602 C554 0.929 . S
H603 C555 0.930 . S
H604 C562 0.929 . S
H605 C563 0.930 . S
H606 C564 0.930 . S
H607 C565 0.930 . S
H608 C567 0.929 . S
H609 C568 0.930 . S
H610 C569 0.930 . S
H611 C570 0.930 . S
H612 C574 0.929 . S
H613 C576 0.930 . S
H614 C582 0.929 . S
H615 C583 0.930 . S
Li616 N633 1.990 . S
Li616 O676 1.956 . S
Li616 O677 1.970 . S
Li616 O678 1.961 . S
Li617 N641 1.990 . S
Li617 O676 1.970 . S
Li617 O677 1.956 . S
Li617 O679 1.961 . S
Li618 N663 1.990 . S
Li618 O676 1.961 . S
Li618 O678 1.956 . S
Li618 O679 1.970 . S
Li619 N669 1.990 . S
Li619 O677 1.961 . S
Li619 O678 1.970 . S
Li619 O679 1.956 . S
C620 C622 1.348 . S
C620 C623 1.356 . S
C620 O676 1.325 . S
N621 C624 1.314 . S
N621 C625 1.279 . S
C622 C620 1.348 . S
C622 C624 1.353 . S
C622 H680 0.929 . S
C623 C620 1.356 . S
C623 C625 1.358 . S
C623 H681 0.930 . S
C624 N621 1.314 . S
C624 C622 1.353 . S
C624 H682 0.930 . S
C625 N621 1.279 . S
C625 C623 1.358 . S
C625 H683 0.930 . S
C626 C629 1.348 . S
C626 C630 1.356 . S
C626 O677 1.325 . S
C627 N628 1.279 . S
C627 C630 1.358 . S
C627 H684 0.930 . S
N628 C627 1.279 . S
N628 C631 1.314 . S
C629 C626 1.348 . S
C629 C631 1.353 . S
C629 H685 0.929 . S
C630 C626 1.356 . S
C630 C627 1.358 . S
C630 H686 0.930 . S
C631 N628 1.314 . S
C631 C629 1.353 . S
C631 H687 0.930 . S
C632 N633 1.314 . S
C632 C637 1.353 . S
C632 H638 0.930 . S
N633 Li616 1.990 . S
N633 C632 1.314 . S
N633 C635 1.279 . S
C634 C635 1.358 . S
C634 C636 1.356 . S
C634 H688 0.930 . S
C635 N633 1.279 . S
C635 C634 1.358 . S
C635 H639 0.930 . S
C636 C634 1.356 . S
C636 C637 1.348 . S
C637 C632 1.353 . S
C637 C636 1.348 . S
C637 H689 0.929 . S
H638 C632 0.930 . S
H639 C635 0.930 . S
C640 N641 1.314 . S
C640 C642 1.353 . S
C640 H646 0.930 . S
N641 Li617 1.990 . S
N641 C640 1.314 . S
N641 C644 1.279 . S
C642 C640 1.353 . S
C642 C645 1.348 . S
C642 H690 0.929 . S
C643 C644 1.358 . S
C643 C645 1.356 . S
C643 H691 0.930 . S
C644 N641 1.279 . S
C644 C643 1.358 . S
C644 H647 0.930 . S
C645 C642 1.348 . S
C645 C643 1.356 . S
H646 C640 0.930 . S
H647 C644 0.930 . S
C648 C650 1.348 . S
C648 C651 1.356 . S
C648 O678 1.325 . S
N649 C652 1.314 . S
N649 C653 1.279 . S
C650 C648 1.348 . S
C650 C652 1.353 . S
C650 H692 0.929 . S
C651 C648 1.356 . S
C651 C653 1.358 . S
C651 H693 0.930 . S
C652 N649 1.314 . S
C652 C650 1.353 . S
C652 H694 0.930 . S
C653 N649 1.279 . S
C653 C651 1.358 . S
C653 H695 0.930 . S
C654 C655 1.348 . S
C654 C656 1.356 . S
C654 O679 1.325 . S
C655 C654 1.348 . S
C655 C657 1.353 . S
C655 H696 0.929 . S
C656 C654 1.356 . S
C656 C658 1.358 . S
C656 H697 0.930 . S
C657 C655 1.353 . S
C657 N659 1.314 . S
C657 H698 0.930 . S
C658 C656 1.358 . S
C658 N659 1.279 . S
C658 H699 0.930 . S
N659 C657 1.314 . S
N659 C658 1.279 . S
C660 C662 1.353 . S
C660 N663 1.314 . S
C660 H666 0.930 . S
C661 N663 1.279 . S
C661 C664 1.358 . S
C661 H667 0.930 . S
C662 C660 1.353 . S
C662 C665 1.348 . S
C662 H700 0.929 . S
N663 Li618 1.990 . S
N663 C660 1.314 . S
N663 C661 1.279 . S
C664 C661 1.358 . S
C664 C665 1.356 . S
C664 H701 0.930 . S
C665 C662 1.348 . S
C665 C664 1.356 . S
H666 C660 0.930 . S
H667 C661 0.930 . S
C668 N669 1.314 . S
C668 C670 1.353 . S
C668 H674 0.930 . S
N669 Li619 1.990 . S
N669 C668 1.314 . S
N669 C672 1.279 . S
C670 C668 1.353 . S
C670 C673 1.348 . S
C670 H702 0.929 . S
C671 C672 1.358 . S
C671 C673 1.356 . S
C671 H703 0.930 . S
C672 N669 1.279 . S
C672 C671 1.358 . S
C672 H675 0.930 . S
C673 C670 1.348 . S
C673 C671 1.356 . S
H674 C668 0.930 . S
H675 C672 0.930 . S
O676 Li616 1.956 . S
O676 Li617 1.970 . S
O676 Li618 1.961 . S
O676 C620 1.325 . S
O677 Li616 1.970 . S
O677 Li617 1.956 . S
O677 Li619 1.961 . S
O677 C626 1.325 . S
O678 Li616 1.961 . S
O678 Li618 1.956 . S
O678 Li619 1.970 . S
O678 C648 1.325 . S
O679 Li617 1.961 . S
O679 Li618 1.970 . S
O679 Li619 1.956 . S
O679 C654 1.325 . S
H680 C622 0.929 . S
H681 C623 0.930 . S
H682 C624 0.930 . S
H683 C625 0.930 . S
H684 C627 0.930 . S
H685 C629 0.929 . S
H686 C630 0.930 . S
H687 C631 0.930 . S
H688 C634 0.930 . S
H689 C637 0.929 . S
H690 C642 0.929 . S
H691 C643 0.930 . S
H692 C650 0.929 . S
H693 C651 0.930 . S
H694 C652 0.930 . S
H695 C653 0.930 . S
H696 C655 0.929 . S
H697 C656 0.930 . S
H698 C657 0.930 . S
H699 C658 0.930 . S
H700 C662 0.929 . S
H701 C664 0.930 . S
H702 C670 0.929 . S
H703 C671 0.930 . S
Li704 N721 1.990 . S
Li704 O764 1.956 . S
Li704 O765 1.957 1_545 S
Li704 O766 1.956 . S
Li705 N729 1.999 . S
Li705 O764 1.946 1_565 S
Li705 O765 1.947 . S
Li705 O767 2.000 . S
Li706 N751 1.971 . S
Li706 O764 2.001 . S
Li706 O766 1.985 . S
Li706 O767 1.938 1_545 S
Li707 N757 1.990 . S
Li707 O765 1.984 . S
Li707 O766 1.974 1_565 S
Li707 O767 1.956 . S
C708 C710 1.348 . S
C708 C711 1.356 . S
C708 O764 1.325 . S
N709 C712 1.314 . S
N709 C713 1.279 . S
C710 C708 1.348 . S
C710 C712 1.353 . S
C710 H768 0.929 . S
C711 C708 1.356 . S
C711 C713 1.358 . S
C711 H769 0.930 . S
C712 N709 1.314 . S
C712 C710 1.353 . S
C712 H770 0.930 . S
C713 N709 1.279 . S
C713 C711 1.358 . S
C713 H771 0.930 . S
C714 C717 1.348 1_565 S
C714 C718 1.356 . S
C714 O765 1.314 . S
C715 N716 1.279 . S
C715 C718 1.358 . S
C715 H772 0.930 . S
N716 C715 1.279 . S
N716 C719 1.314 1_565 S
C717 C714 1.348 1_545 S
C717 C719 1.353 . S
C717 H773 0.929 . S
C718 C714 1.356 . S
C718 C715 1.358 . S
C718 H774 0.930 . S
C719 N716 1.314 1_545 S
C719 C717 1.353 . S
C719 H775 0.930 . S
C720 N721 1.314 . S
C720 C725 1.353 . S
C720 H726 0.930 . S
N721 Li704 1.990 . S
N721 C720 1.314 . S
N721 C723 1.279 . S
C722 C723 1.358 . S
C722 C724 1.356 . S
C722 H776 0.930 . S
C723 N721 1.279 . S
C723 C722 1.358 . S
C723 H727 0.930 . S
C724 C722 1.356 . S
C724 C725 1.348 . S
C725 C720 1.353 . S
C725 C724 1.348 . S
C725 H777 0.929 . S
H726 C720 0.930 . S
H727 C723 0.930 . S
C728 N729 1.314 . S
C728 C730 1.353 . S
C728 H734 0.930 . S
N729 Li705 1.999 . S
N729 C728 1.314 . S
N729 C732 1.279 1_565 S
C730 C728 1.353 . S
C730 C733 1.348 . S
C730 H778 0.929 . S
C731 C732 1.358 . S
C731 C733 1.356 1_545 S
C731 H779 0.930 . S
C732 N729 1.279 1_545 S
C732 C731 1.358 . S
C732 H735 0.930 . S
C733 C730 1.348 . S
C733 C731 1.356 1_565 S
H734 C728 0.930 . S
H735 C732 0.930 . S
C736 C738 1.327 1_545 S
C736 C739 1.380 . S
C736 O766 1.320 . S
N737 C740 1.314 1_545 S
N737 C741 1.279 . S
C738 C736 1.327 1_565 S
C738 C740 1.353 . S
C738 H780 0.929 . S
C739 C736 1.380 . S
C739 C741 1.358 . S
C739 H781 0.930 . S
C740 N737 1.314 1_565 S
C740 C738 1.353 . S
C740 H782 0.930 . S
C741 N737 1.279 . S
C741 C739 1.358 . S
C741 H783 0.930 . S
C742 C743 1.348 . S
C742 C744 1.356 . S
C742 O767 1.325 . S
C743 C742 1.348 . S
C743 C745 1.353 . S
C743 H784 0.929 . S
C744 C742 1.356 . S
C744 C746 1.358 . S
C744 H785 0.930 . S
C745 C743 1.353 . S
C745 N747 1.314 . S
C745 H786 0.930 . S
C746 C744 1.358 . S
C746 N747 1.279 . S
C746 H787 0.930 . S
N747 C745 1.314 . S
N747 C746 1.279 . S
C748 C750 1.353 . S
C748 N751 1.314 . S
C748 H754 0.930 . S
C749 N751 1.279 1_565 S
C749 C752 1.358 . S
C749 H755 0.930 . S
C750 C748 1.353 . S
C750 C753 1.348 . S
C750 H788 0.929 . S
N751 Li706 1.971 . S
N751 C748 1.314 . S
N751 C749 1.279 1_545 S
C752 C749 1.358 . S
C752 C753 1.356 1_565 S
C752 H789 0.930 . S
C753 C750 1.348 . S
C753 C752 1.356 1_545 S
H754 C748 0.930 . S
H755 C749 0.930 . S
C756 N757 1.314 . S
C756 C758 1.353 . S
C756 H762 0.930 . S
N757 Li707 1.990 . S
N757 C756 1.314 . S
N757 C760 1.279 . S
C758 C756 1.353 . S
C758 C761 1.348 . S
C758 H790 0.929 . S
C759 C760 1.358 . S
C759 C761 1.356 . S
C759 H791 0.930 . S
C760 N757 1.279 . S
C760 C759 1.358 . S
C760 H763 0.930 . S
C761 C758 1.348 . S
C761 C759 1.356 . S
H762 C756 0.930 . S
H763 C760 0.930 . S
O764 Li704 1.956 . S
O764 Li705 1.946 1_545 S
O764 Li706 2.001 . S
O764 C708 1.325 . S
O765 Li704 1.957 1_565 S
O765 Li705 1.947 . S
O765 Li707 1.984 . S
O765 C714 1.314 . S
O766 Li704 1.956 . S
O766 Li706 1.985 . S
O766 Li707 1.974 1_545 S
O766 C736 1.320 . S
O767 Li705 2.000 . S
O767 Li706 1.938 1_565 S
O767 Li707 1.956 . S
O767 C742 1.325 . S
H768 C710 0.929 . S
H769 C711 0.930 . S
H770 C712 0.930 . S
H771 C713 0.930 . S
H772 C715 0.930 . S
H773 C717 0.929 . S
H774 C718 0.930 . S
H775 C719 0.930 . S
H776 C722 0.930 . S
H777 C725 0.929 . S
H778 C730 0.929 . S
H779 C731 0.930 . S
H780 C738 0.929 . S
H781 C739 0.930 . S
H782 C740 0.930 . S
H783 C741 0.930 . S
H784 C743 0.929 . S
H785 C744 0.930 . S
H786 C745 0.930 . S
H787 C746 0.930 . S
H788 C750 0.929 . S
H789 C752 0.930 . S
H790 C758 0.929 . S
H791 C759 0.930 . S
Li792 N809 1.990 . S
Li792 O852 1.956 . S
Li792 O853 1.970 . S
Li792 O854 1.961 . S
Li793 N817 1.990 . S
Li793 O852 1.970 . S
Li793 O853 1.956 . S
Li793 O855 1.961 . S
Li794 N839 1.990 . S
Li794 O852 1.961 . S
Li794 O854 1.956 . S
Li794 O855 1.970 . S
Li795 N845 1.990 . S
Li795 O853 1.961 . S
Li795 O854 1.970 . S
Li795 O855 1.956 . S
C796 C798 1.348 . S
C796 C799 1.356 . S
C796 O852 1.325 . S
N797 C800 1.314 . S
N797 C801 1.279 . S
C798 C796 1.348 . S
C798 C800 1.353 . S
C798 H856 0.929 . S
C799 C796 1.356 . S
C799 C801 1.358 . S
C799 H857 0.930 . S
C800 N797 1.314 . S
C800 C798 1.353 . S
C800 H858 0.930 . S
C801 N797 1.279 . S
C801 C799 1.358 . S
C801 H859 0.930 . S
C802 C805 1.348 . S
C802 C806 1.356 . S
C802 O853 1.325 . S
C803 N804 1.279 . S
C803 C806 1.358 . S
C803 H860 0.930 . S
N804 C803 1.279 . S
N804 C807 1.314 . S
C805 C802 1.348 . S
C805 C807 1.353 . S
C805 H861 0.929 . S
C806 C802 1.356 . S
C806 C803 1.358 . S
C806 H862 0.930 . S
C807 N804 1.314 . S
C807 C805 1.353 . S
C807 H863 0.930 . S
C808 N809 1.314 . S
C808 C813 1.353 . S
C808 H814 0.930 . S
N809 Li792 1.990 . S
N809 C808 1.314 . S
N809 C811 1.279 . S
C810 C811 1.358 . S
C810 C812 1.356 . S
C810 H864 0.930 . S
C811 N809 1.279 . S
C811 C810 1.358 . S
C811 H815 0.930 . S
C812 C810 1.356 . S
C812 C813 1.348 . S
C813 C808 1.353 . S
C813 C812 1.348 . S
C813 H865 0.929 . S
H814 C808 0.930 . S
H815 C811 0.930 . S
C816 N817 1.314 . S
C816 C818 1.353 . S
C816 H822 0.930 . S
N817 Li793 1.990 . S
N817 C816 1.314 . S
N817 C820 1.279 . S
C818 C816 1.353 . S
C818 C821 1.348 . S
C818 H866 0.929 . S
C819 C820 1.358 . S
C819 C821 1.356 . S
C819 H867 0.930 . S
C820 N817 1.279 . S
C820 C819 1.358 . S
C820 H823 0.930 . S
C821 C818 1.348 . S
C821 C819 1.356 . S
H822 C816 0.930 . S
H823 C820 0.930 . S
C824 C826 1.348 . S
C824 C827 1.356 . S
C824 O854 1.325 . S
N825 C828 1.314 . S
N825 C829 1.279 . S
C826 C824 1.348 . S
C826 C828 1.353 . S
C826 H868 0.929 . S
C827 C824 1.356 . S
C827 C829 1.358 . S
C827 H869 0.930 . S
C828 N825 1.314 . S
C828 C826 1.353 . S
C828 H870 0.930 . S
C829 N825 1.279 . S
C829 C827 1.358 . S
C829 H871 0.930 . S
C830 C831 1.348 . S
C830 C832 1.356 . S
C830 O855 1.325 . S
C831 C830 1.348 . S
C831 C833 1.353 . S
C831 H872 0.929 . S
C832 C830 1.356 . S
C832 C834 1.358 . S
C832 H873 0.930 . S
C833 C831 1.353 . S
C833 N835 1.314 . S
C833 H874 0.930 . S
C834 C832 1.358 . S
C834 N835 1.279 . S
C834 H875 0.930 . S
N835 C833 1.314 . S
N835 C834 1.279 . S
C836 C838 1.353 . S
C836 N839 1.314 . S
C836 H842 0.930 . S
C837 N839 1.279 . S
C837 C840 1.358 . S
C837 H843 0.930 . S
C838 C836 1.353 . S
C838 C841 1.348 . S
C838 H876 0.929 . S
N839 Li794 1.990 . S
N839 C836 1.314 . S
N839 C837 1.279 . S
C840 C837 1.358 . S
C840 C841 1.356 . S
C840 H877 0.930 . S
C841 C838 1.348 . S
C841 C840 1.356 . S
H842 C836 0.930 . S
H843 C837 0.930 . S
C844 N845 1.314 . S
C844 C846 1.353 . S
C844 H850 0.930 . S
N845 Li795 1.990 . S
N845 C844 1.314 . S
N845 C848 1.279 . S
C846 C844 1.353 . S
C846 C849 1.348 . S
C846 H878 0.929 . S
C847 C848 1.358 . S
C847 C849 1.356 . S
C847 H879 0.930 . S
C848 N845 1.279 . S
C848 C847 1.358 . S
C848 H851 0.930 . S
C849 C846 1.348 . S
C849 C847 1.356 . S
H850 C844 0.930 . S
H851 C848 0.930 . S
O852 Li792 1.956 . S
O852 Li793 1.970 . S
O852 Li794 1.961 . S
O852 C796 1.325 . S
O853 Li792 1.970 . S
O853 Li793 1.956 . S
O853 Li795 1.961 . S
O853 C802 1.325 . S
O854 Li792 1.961 . S
O854 Li794 1.956 . S
O854 Li795 1.970 . S
O854 C824 1.325 . S
O855 Li793 1.961 . S
O855 Li794 1.970 . S
O855 Li795 1.956 . S
O855 C830 1.325 . S
H856 C798 0.929 . S
H857 C799 0.930 . S
H858 C800 0.930 . S
H859 C801 0.930 . S
H860 C803 0.930 . S
H861 C805 0.929 . S
H862 C806 0.930 . S
H863 C807 0.930 . S
H864 C810 0.930 . S
H865 C813 0.929 . S
H866 C818 0.929 . S
H867 C819 0.930 . S
H868 C826 0.929 . S
H869 C827 0.930 . S
H870 C828 0.930 . S
H871 C829 0.930 . S
H872 C831 0.929 . S
H873 C832 0.930 . S
H874 C833 0.930 . S
H875 C834 0.930 . S
H876 C838 0.929 . S
H877 C840 0.930 . S
H878 C846 0.929 . S
H879 C847 0.930 . S
Li880 N897 1.990 . S
Li880 O940 1.956 . S
Li880 O941 1.970 . S
Li880 O942 1.961 . S
Li881 N905 1.990 . S
Li881 O940 1.970 . S
Li881 O941 1.956 . S
Li881 O943 1.961 . S
Li882 N927 1.990 1_545 S
Li882 O940 1.961 . S
Li882 O942 1.956 . S
Li882 O943 1.970 . S
Li883 N933 1.990 . S
Li883 O941 1.961 . S
Li883 O942 1.970 . S
Li883 O943 1.956 . S
C884 C886 1.348 . S
C884 C887 1.356 . S
C884 O940 1.325 . S
N885 C888 1.314 . S
N885 C889 1.279 . S
C886 C884 1.348 . S
C886 C888 1.353 . S
C886 H944 0.929 . S
C887 C884 1.356 . S
C887 C889 1.358 . S
C887 H945 0.930 . S
C888 N885 1.314 . S
C888 C886 1.353 . S
C888 H946 0.930 . S
C889 N885 1.279 . S
C889 C887 1.358 . S
C889 H947 0.930 . S
C890 C893 1.348 . S
C890 C894 1.356 . S
C890 O941 1.325 . S
C891 N892 1.279 . S
C891 C894 1.358 . S
C891 H948 0.930 . S
N892 C891 1.279 . S
N892 C895 1.314 . S
C893 C890 1.348 . S
C893 C895 1.353 . S
C893 H949 0.929 . S
C894 C890 1.356 . S
C894 C891 1.358 . S
C894 H950 0.930 . S
C895 N892 1.314 . S
C895 C893 1.353 . S
C895 H951 0.930 . S
C896 N897 1.314 . S
C896 C901 1.353 . S
C896 H902 0.930 . S
N897 Li880 1.990 . S
N897 C896 1.314 . S
N897 C899 1.279 . S
C898 C899 1.358 . S
C898 C900 1.356 . S
C898 H952 0.930 . S
C899 N897 1.279 . S
C899 C898 1.358 . S
C899 H903 0.930 . S
C900 C898 1.356 . S
C900 C901 1.348 . S
C901 C896 1.353 . S
C901 C900 1.348 . S
C901 H953 0.929 . S
H902 C896 0.930 . S
H903 C899 0.930 . S
C904 N905 1.314 . S
C904 C906 1.353 . S
C904 H910 0.930 . S
N905 Li881 1.990 . S
N905 C904 1.314 . S
N905 C908 1.279 . S
C906 C904 1.353 . S
C906 C909 1.348 . S
C906 H954 0.929 . S
C907 C908 1.358 . S
C907 C909 1.356 . S
C907 H955 0.930 . S
C908 N905 1.279 . S
C908 C907 1.358 . S
C908 H911 0.930 . S
C909 C906 1.348 . S
C909 C907 1.356 . S
H910 C904 0.930 . S
H911 C908 0.930 . S
C912 C914 1.348 1_545 S
C912 C915 1.356 1_545 S
C912 O942 1.325 . S
N913 C916 1.314 . S
N913 C917 1.279 . S
C914 C912 1.348 1_565 S
C914 C916 1.353 . S
C914 H956 0.929 . S
C915 C912 1.356 1_565 S
C915 C917 1.358 . S
C915 H957 0.930 . S
C916 N913 1.314 . S
C916 C914 1.353 . S
C916 H958 0.930 . S
C917 N913 1.279 . S
C917 C915 1.358 . S
C917 H959 0.930 . S
C918 C919 1.348 . S
C918 C920 1.356 . S
C918 O943 1.325 . S
C919 C918 1.348 . S
C919 C921 1.353 . S
C919 H960 0.929 1_545 S
C920 C918 1.356 . S
C920 C922 1.358 . S
C920 H961 0.930 . S
C921 C919 1.353 . S
C921 N923 1.314 . S
C921 H962 0.930 1_545 S
C922 C920 1.358 . S
C922 N923 1.279 . S
C922 H963 0.930 . S
N923 C921 1.314 . S
N923 C922 1.279 . S
C924 C926 1.353 . S
C924 N927 1.314 . S
C924 H930 0.930 . S
C925 N927 1.279 . S
C925 C928 1.358 . S
C925 H931 0.930 . S
C926 C924 1.353 . S
C926 C929 1.348 . S
C926 H964 0.929 . S
N927 Li882 1.990 1_565 S
N927 C924 1.314 . S
N927 C925 1.279 . S
C928 C925 1.358 . S
C928 C929 1.356 . S
C928 H965 0.930 . S
C929 C926 1.348 . S
C929 C928 1.356 . S
H930 C924 0.930 . S
H931 C925 0.930 . S
C932 N933 1.314 . S
C932 C934 1.353 . S
C932 H938 0.930 . S
N933 Li883 1.990 . S
N933 C932 1.314 . S
N933 C936 1.279 . S
C934 C932 1.353 . S
C934 C937 1.348 . S
C934 H966 0.929 . S
C935 C936 1.358 . S
C935 C937 1.356 . S
C935 H967 0.930 . S
C936 N933 1.279 . S
C936 C935 1.358 . S
C936 H939 0.930 . S
C937 C934 1.348 . S
C937 C935 1.356 . S
H938 C932 0.930 . S
H939 C936 0.930 . S
O940 Li880 1.956 . S
O940 Li881 1.970 . S
O940 Li882 1.961 . S
O940 C884 1.325 . S
O941 Li880 1.970 . S
O941 Li881 1.956 . S
O941 Li883 1.961 . S
O941 C890 1.325 . S
O942 Li880 1.961 . S
O942 Li882 1.956 . S
O942 Li883 1.970 . S
O942 C912 1.325 . S
O943 Li881 1.961 . S
O943 Li882 1.970 . S
O943 Li883 1.956 . S
O943 C918 1.325 . S
H944 C886 0.929 . S
H945 C887 0.930 . S
H946 C888 0.930 . S
H947 C889 0.930 . S
H948 C891 0.930 . S
H949 C893 0.929 . S
H950 C894 0.930 . S
H951 C895 0.930 . S
H952 C898 0.930 . S
H953 C901 0.929 . S
H954 C906 0.929 . S
H955 C907 0.930 . S
H956 C914 0.929 . S
H957 C915 0.930 . S
H958 C916 0.930 . S
H959 C917 0.930 . S
H960 C919 0.929 1_565 S
H961 C920 0.930 . S
H962 C921 0.930 1_565 S
H963 C922 0.930 . S
H964 C926 0.929 . S
H965 C928 0.930 . S
H966 C934 0.929 . S
H967 C935 0.930 . S
Li968 N985 1.990 . S
Li968 O1028 1.956 . S
Li968 O1029 1.970 . S
Li968 O1030 1.961 . S
Li969 N993 1.990 . S
Li969 O1028 1.970 . S
Li969 O1029 1.956 . S
Li969 O1031 1.961 . S
Li970 N1015 1.990 1_655 S
Li970 O1028 1.961 . S
Li970 O1030 1.956 . S
Li970 O1031 1.970 . S
Li971 N1021 1.990 . S
Li971 O1029 1.961 . S
Li971 O1030 1.970 . S
Li971 O1031 1.956 . S
C972 C974 1.348 . S
C972 C975 1.356 . S
C972 O1028 1.325 . S
N973 C976 1.314 . S
N973 C977 1.279 . S
C974 C972 1.348 . S
C974 C976 1.353 . S
C974 H1032 0.929 . S
C975 C972 1.356 . S
C975 C977 1.358 . S
C975 H1033 0.930 . S
C976 N973 1.314 . S
C976 C974 1.353 . S
C976 H1034 0.930 . S
C977 N973 1.279 . S
C977 C975 1.358 . S
C977 H1035 0.930 . S
C978 C981 1.348 . S
C978 C982 1.356 . S
C978 O1029 1.325 . S
C979 N980 1.279 . S
C979 C982 1.358 . S
C979 H1036 0.930 . S
N980 C979 1.279 . S
N980 C983 1.314 . S
C981 C978 1.348 . S
C981 C983 1.353 . S
C981 H1037 0.929 . S
C982 C978 1.356 . S
C982 C979 1.358 . S
C982 H1038 0.930 . S
C983 N980 1.314 . S
C983 C981 1.353 . S
C983 H1039 0.930 . S
C984 N985 1.314 . S
C984 C989 1.353 . S
C984 H990 0.930 . S
N985 Li968 1.990 . S
N985 C984 1.314 . S
N985 C987 1.279 . S
C986 C987 1.358 . S
C986 C988 1.356 . S
C986 H1040 0.930 . S
C987 N985 1.279 . S
C987 C986 1.358 . S
C987 H991 0.930 . S
C988 C986 1.356 . S
C988 C989 1.348 . S
C989 C984 1.353 . S
C989 C988 1.348 . S
C989 H1041 0.929 . S
H990 C984 0.930 . S
H991 C987 0.930 . S
C992 N993 1.314 . S
C992 C994 1.353 . S
C992 H998 0.930 . S
N993 Li969 1.990 . S
N993 C992 1.314 . S
N993 C996 1.279 . S
C994 C992 1.353 . S
C994 C997 1.348 . S
C994 H1042 0.929 1_655 S
C995 C996 1.358 . S
C995 C997 1.356 . S
C995 H1043 0.930 . S
C996 N993 1.279 . S
C996 C995 1.358 . S
C996 H999 0.930 . S
C997 C994 1.348 . S
C997 C995 1.356 . S
H998 C992 0.930 . S
H999 C996 0.930 . S
C1000 C1002 1.348 . S
C1000 C1003 1.356 . S
C1000 O1030 1.325 . S
N1001 C1004 1.314 . S
N1001 C1005 1.279 . S
C1002 C1000 1.348 . S
C1002 C1004 1.353 . S
C1002 H1044 0.929 . S
C1003 C1000 1.356 . S
C1003 C1005 1.358 . S
C1003 H1045 0.930 . S
C1004 N1001 1.314 . S
C1004 C1002 1.353 . S
C1004 H1046 0.930 . S
C1005 N1001 1.279 . S
C1005 C1003 1.358 . S
C1005 H1047 0.930 . S
C1006 C1007 1.348 1_655 S
C1006 C1008 1.356 . S
C1006 O1031 1.325 . S
C1007 C1006 1.348 1_455 S
C1007 C1009 1.353 . S
C1007 H1048 0.929 . S
C1008 C1006 1.356 . S
C1008 C1010 1.358 1_655 S
C1008 H1049 0.930 . S
C1009 C1007 1.353 . S
C1009 N1011 1.314 . S
C1009 H1050 0.930 . S
C1010 C1008 1.358 1_455 S
C1010 N1011 1.279 . S
C1010 H1051 0.930 . S
N1011 C1009 1.314 . S
N1011 C1010 1.279 . S
C1012 C1014 1.353 . S
C1012 N1015 1.314 . S
C1012 H1018 0.930 . S
C1013 N1015 1.279 . S
C1013 C1016 1.358 . S
C1013 H1019 0.930 . S
C1014 C1012 1.353 . S
C1014 C1017 1.348 . S
C1014 H1052 0.929 . S
N1015 Li970 1.990 1_455 S
N1015 C1012 1.314 . S
N1015 C1013 1.279 . S
C1016 C1013 1.358 . S
C1016 C1017 1.356 . S
C1016 H1053 0.930 . S
C1017 C1014 1.348 . S
C1017 C1016 1.356 . S
H1018 C1012 0.930 . S
H1019 C1013 0.930 . S
C1020 N1021 1.314 . S
C1020 C1022 1.353 . S
C1020 H1026 0.930 . S
N1021 Li971 1.990 . S
N1021 C1020 1.314 . S
N1021 C1024 1.279 . S
C1022 C1020 1.353 . S
C1022 C1025 1.348 . S
C1022 H1054 0.929 . S
C1023 C1024 1.358 . S
C1023 C1025 1.356 . S
C1023 H1055 0.930 . S
C1024 N1021 1.279 . S
C1024 C1023 1.358 . S
C1024 H1027 0.930 . S
C1025 C1022 1.348 . S
C1025 C1023 1.356 . S
H1026 C1020 0.930 . S
H1027 C1024 0.930 . S
O1028 Li968 1.956 . S
O1028 Li969 1.970 . S
O1028 Li970 1.961 . S
O1028 C972 1.325 . S
O1029 Li968 1.970 . S
O1029 Li969 1.956 . S
O1029 Li971 1.961 . S
O1029 C978 1.325 . S
O1030 Li968 1.961 . S
O1030 Li970 1.956 . S
O1030 Li971 1.970 . S
O1030 C1000 1.325 . S
O1031 Li969 1.961 . S
O1031 Li970 1.970 . S
O1031 Li971 1.956 . S
O1031 C1006 1.325 . S
H1032 C974 0.929 . S
H1033 C975 0.930 . S
H1034 C976 0.930 . S
H1035 C977 0.930 . S
H1036 C979 0.930 . S
H1037 C981 0.929 . S
H1038 C982 0.930 . S
H1039 C983 0.930 . S
H1040 C986 0.930 . S
H1041 C989 0.929 . S
H1042 C994 0.929 1_455 S
H1043 C995 0.930 . S
H1044 C1002 0.929 . S
H1045 C1003 0.930 . S
H1046 C1004 0.930 . S
H1047 C1005 0.930 . S
H1048 C1007 0.929 . S
H1049 C1008 0.930 . S
H1050 C1009 0.930 . S
H1051 C1010 0.930 . S
H1052 C1014 0.929 . S
H1053 C1016 0.930 . S
H1054 C1022 0.929 . S
H1055 C1023 0.930 . S
Li1056 N1073 1.990 . S
Li1056 O1116 1.956 . S
Li1056 O1117 1.970 . S
Li1056 O1118 1.961 . S
Li1057 N1081 1.990 . S
Li1057 O1116 1.970 . S
Li1057 O1117 1.956 . S
Li1057 O1119 1.961 . S
Li1058 N1103 1.990 . S
Li1058 O1116 1.961 . S
Li1058 O1118 1.956 . S
Li1058 O1119 1.970 . S
Li1059 N1109 1.990 . S
Li1059 O1117 1.961 . S
Li1059 O1118 1.970 . S
Li1059 O1119 1.956 . S
C1060 C1062 1.348 . S
C1060 C1063 1.356 . S
C1060 O1116 1.325 . S
N1061 C1064 1.314 . S
N1061 C1065 1.279 . S
C1062 C1060 1.348 . S
C1062 C1064 1.353 . S
C1062 H1120 0.929 . S
C1063 C1060 1.356 . S
C1063 C1065 1.358 . S
C1063 H1121 0.930 . S
C1064 N1061 1.314 . S
C1064 C1062 1.353 . S
C1064 H1122 0.930 . S
C1065 N1061 1.279 . S
C1065 C1063 1.358 . S
C1065 H1123 0.930 . S
C1066 C1069 1.348 . S
C1066 C1070 1.356 . S
C1066 O1117 1.325 . S
C1067 N1068 1.279 . S
C1067 C1070 1.358 . S
C1067 H1124 0.930 . S
N1068 C1067 1.279 . S
N1068 C1071 1.314 . S
C1069 C1066 1.348 . S
C1069 C1071 1.353 . S
C1069 H1125 0.929 . S
C1070 C1066 1.356 . S
C1070 C1067 1.358 . S
C1070 H1126 0.930 . S
C1071 N1068 1.314 . S
C1071 C1069 1.353 . S
C1071 H1127 0.930 . S
C1072 N1073 1.314 . S
C1072 C1077 1.353 . S
C1072 H1078 0.930 . S
N1073 Li1056 1.990 . S
N1073 C1072 1.314 . S
N1073 C1075 1.279 . S
C1074 C1075 1.358 . S
C1074 C1076 1.356 . S
C1074 H1128 0.930 . S
C1075 N1073 1.279 . S
C1075 C1074 1.358 . S
C1075 H1079 0.930 . S
C1076 C1074 1.356 . S
C1076 C1077 1.348 . S
C1077 C1072 1.353 . S
C1077 C1076 1.348 . S
C1077 H1129 0.929 . S
H1078 C1072 0.930 . S
H1079 C1075 0.930 . S
C1080 N1081 1.314 . S
C1080 C1082 1.353 . S
C1080 H1086 0.930 . S
N1081 Li1057 1.990 . S
N1081 C1080 1.314 . S
N1081 C1084 1.279 . S
C1082 C1080 1.353 . S
C1082 C1085 1.348 . S
C1082 H1130 0.929 . S
C1083 C1084 1.358 . S
C1083 C1085 1.356 . S
C1083 H1131 0.930 . S
C1084 N1081 1.279 . S
C1084 C1083 1.358 . S
C1084 H1087 0.930 . S
C1085 C1082 1.348 . S
C1085 C1083 1.356 . S
H1086 C1080 0.930 . S
H1087 C1084 0.930 . S
C1088 C1090 1.348 . S
C1088 C1091 1.356 . S
C1088 O1118 1.325 . S
N1089 C1092 1.314 . S
N1089 C1093 1.279 . S
C1090 C1088 1.348 . S
C1090 C1092 1.353 . S
C1090 H1132 0.929 . S
C1091 C1088 1.356 . S
C1091 C1093 1.358 . S
C1091 H1133 0.930 . S
C1092 N1089 1.314 . S
C1092 C1090 1.353 . S
C1092 H1134 0.930 . S
C1093 N1089 1.279 . S
C1093 C1091 1.358 . S
C1093 H1135 0.930 . S
C1094 C1095 1.348 . S
C1094 C1096 1.356 . S
C1094 O1119 1.325 . S
C1095 C1094 1.348 . S
C1095 C1097 1.353 . S
C1095 H1136 0.929 . S
C1096 C1094 1.356 . S
C1096 C1098 1.358 . S
C1096 H1137 0.930 . S
C1097 C1095 1.353 . S
C1097 N1099 1.314 . S
C1097 H1138 0.930 . S
C1098 C1096 1.358 . S
C1098 N1099 1.279 . S
C1098 H1139 0.930 . S
N1099 C1097 1.314 . S
N1099 C1098 1.279 . S
C1100 C1102 1.353 . S
C1100 N1103 1.314 . S
C1100 H1106 0.930 . S
C1101 N1103 1.279 . S
C1101 C1104 1.358 . S
C1101 H1107 0.930 . S
C1102 C1100 1.353 . S
C1102 C1105 1.348 . S
C1102 H1140 0.929 . S
N1103 Li1058 1.990 . S
N1103 C1100 1.314 . S
N1103 C1101 1.279 . S
C1104 C1101 1.358 . S
C1104 C1105 1.356 . S
C1104 H1141 0.930 . S
C1105 C1102 1.348 . S
C1105 C1104 1.356 . S
H1106 C1100 0.930 . S
H1107 C1101 0.930 . S
C1108 N1109 1.314 . S
C1108 C1110 1.353 . S
C1108 H1114 0.930 . S
N1109 Li1059 1.990 . S
N1109 C1108 1.314 . S
N1109 C1112 1.279 . S
C1110 C1108 1.353 . S
C1110 C1113 1.348 . S
C1110 H1142 0.929 . S
C1111 C1112 1.358 . S
C1111 C1113 1.356 . S
C1111 H1143 0.930 . S
C1112 N1109 1.279 . S
C1112 C1111 1.358 . S
C1112 H1115 0.930 . S
C1113 C1110 1.348 . S
C1113 C1111 1.356 . S
H1114 C1108 0.930 . S
H1115 C1112 0.930 . S
O1116 Li1056 1.956 . S
O1116 Li1057 1.970 . S
O1116 Li1058 1.961 . S
O1116 C1060 1.325 . S
O1117 Li1056 1.970 . S
O1117 Li1057 1.956 . S
O1117 Li1059 1.961 . S
O1117 C1066 1.325 . S
O1118 Li1056 1.961 . S
O1118 Li1058 1.956 . S
O1118 Li1059 1.970 . S
O1118 C1088 1.325 . S
O1119 Li1057 1.961 . S
O1119 Li1058 1.970 . S
O1119 Li1059 1.956 . S
O1119 C1094 1.325 . S
H1120 C1062 0.929 . S
H1121 C1063 0.930 . S
H1122 C1064 0.930 . S
H1123 C1065 0.930 . S
H1124 C1067 0.930 . S
H1125 C1069 0.929 . S
H1126 C1070 0.930 . S
H1127 C1071 0.930 . S
H1128 C1074 0.930 . S
H1129 C1077 0.929 . S
H1130 C1082 0.929 . S
H1131 C1083 0.930 . S
H1132 C1090 0.929 . S
H1133 C1091 0.930 . S
H1134 C1092 0.930 . S
H1135 C1093 0.930 . S
H1136 C1095 0.929 . S
H1137 C1096 0.930 . S
H1138 C1097 0.930 . S
H1139 C1098 0.930 . S
H1140 C1102 0.929 . S
H1141 C1104 0.930 . S
H1142 C1110 0.929 . S
H1143 C1111 0.930 . S
Li1144 N1161 1.990 . S
Li1144 O1204 1.956 . S
Li1144 O1205 1.970 . S
Li1144 O1206 1.961 . S
Li1145 N1169 1.990 1_565 S
Li1145 O1204 1.970 . S
Li1145 O1205 1.956 . S
Li1145 O1207 1.961 . S
Li1146 N1191 1.990 . S
Li1146 O1204 1.961 . S
Li1146 O1206 1.956 . S
Li1146 O1207 1.970 . S
Li1147 N1197 1.990 . S
Li1147 O1205 1.961 . S
Li1147 O1206 1.970 . S
Li1147 O1207 1.956 . S
C1148 C1150 1.315 1_565 S
C1148 C1151 1.374 . S
C1148 O1204 1.340 . S
N1149 C1152 1.314 . S
N1149 C1153 1.279 . S
C1150 C1148 1.315 1_545 S
C1150 C1152 1.353 . S
C1150 H1208 0.929 . S
C1151 C1148 1.374 . S
C1151 C1153 1.358 1_565 S
C1151 H1209 0.930 . S
C1152 N1149 1.314 . S
C1152 C1150 1.353 . S
C1152 H1210 0.930 . S
C1153 N1149 1.279 . S
C1153 C1151 1.358 1_545 S
C1153 H1211 0.930 . S
C1154 C1157 1.348 . S
C1154 C1158 1.356 . S
C1154 O1205 1.325 . S
C1155 N1156 1.279 . S
C1155 C1158 1.358 . S
C1155 H1212 0.930 . S
N1156 C1155 1.279 . S
N1156 C1159 1.314 . S
C1157 C1154 1.348 . S
C1157 C1159 1.353 . S
C1157 H1213 0.929 . S
C1158 C1154 1.356 . S
C1158 C1155 1.358 . S
C1158 H1214 0.930 . S
C1159 N1156 1.314 . S
C1159 C1157 1.353 . S
C1159 H1215 0.930 . S
C1160 N1161 1.314 . S
C1160 C1165 1.353 . S
C1160 H1166 0.930 . S
N1161 Li1144 1.990 . S
N1161 C1160 1.314 . S
N1161 C1163 1.279 . S
C1162 C1163 1.358 . S
C1162 C1164 1.356 . S
C1162 H1216 0.930 . S
C1163 N1161 1.279 . S
C1163 C1162 1.358 . S
C1163 H1167 0.930 . S
C1164 C1162 1.356 . S
C1164 C1165 1.348 . S
C1165 C1160 1.353 . S
C1165 C1164 1.348 . S
C1165 H1217 0.929 . S
H1166 C1160 0.930 . S
H1167 C1163 0.930 . S
C1168 N1169 1.314 . S
C1168 C1170 1.353 . S
C1168 H1174 0.930 . S
N1169 Li1145 1.990 1_545 S
N1169 C1168 1.314 . S
N1169 C1172 1.279 . S
C1170 C1168 1.353 . S
C1170 C1173 1.348 . S
C1170 H1218 0.929 . S
C1171 C1172 1.358 . S
C1171 C1173 1.356 . S
C1171 H1219 0.930 . S
C1172 N1169 1.279 . S
C1172 C1171 1.358 . S
C1172 H1175 0.930 . S
C1173 C1170 1.348 . S
C1173 C1171 1.356 . S
H1174 C1168 0.930 . S
H1175 C1172 0.930 . S
C1176 C1178 1.348 . S
C1176 C1179 1.356 . S
C1176 O1206 1.325 . S
N1177 C1180 1.314 . S
N1177 C1181 1.279 . S
C1178 C1176 1.348 . S
C1178 C1180 1.353 . S
C1178 H1220 0.929 . S
C1179 C1176 1.356 . S
C1179 C1181 1.358 . S
C1179 H1221 0.930 . S
C1180 N1177 1.314 . S
C1180 C1178 1.353 . S
C1180 H1222 0.930 . S
C1181 N1177 1.279 . S
C1181 C1179 1.358 . S
C1181 H1223 0.930 . S
C1182 C1183 1.348 . S
C1182 C1184 1.356 . S
C1182 O1207 1.325 . S
C1183 C1182 1.348 . S
C1183 C1185 1.353 . S
C1183 H1224 0.929 . S
C1184 C1182 1.356 . S
C1184 C1186 1.358 . S
C1184 H1225 0.930 . S
C1185 C1183 1.353 . S
C1185 N1187 1.314 . S
C1185 H1226 0.930 . S
C1186 C1184 1.358 . S
C1186 N1187 1.279 . S
C1186 H1227 0.930 . S
N1187 C1185 1.314 . S
N1187 C1186 1.279 . S
C1188 C1190 1.353 . S
C1188 N1191 1.314 . S
C1188 H1194 0.930 . S
C1189 N1191 1.279 . S
C1189 C1192 1.358 . S
C1189 H1195 0.930 . S
C1190 C1188 1.353 . S
C1190 C1193 1.348 . S
C1190 H1228 0.929 . S
N1191 Li1146 1.990 . S
N1191 C1188 1.314 . S
N1191 C1189 1.279 . S
C1192 C1189 1.358 . S
C1192 C1193 1.356 . S
C1192 H1229 0.930 . S
C1193 C1190 1.348 . S
C1193 C1192 1.356 . S
H1194 C1188 0.930 . S
H1195 C1189 0.930 . S
C1196 N1197 1.314 . S
C1196 C1198 1.353 . S
C1196 H1202 0.930 . S
N1197 Li1147 1.990 . S
N1197 C1196 1.314 . S
N1197 C1200 1.279 . S
C1198 C1196 1.353 . S
C1198 C1201 1.348 . S
C1198 H1230 0.929 . S
C1199 C1200 1.358 . S
C1199 C1201 1.356 . S
C1199 H1231 0.930 . S
C1200 N1197 1.279 . S
C1200 C1199 1.358 . S
C1200 H1203 0.930 . S
C1201 C1198 1.348 . S
C1201 C1199 1.356 . S
H1202 C1196 0.930 . S
H1203 C1200 0.930 . S
O1204 Li1144 1.956 . S
O1204 Li1145 1.970 . S
O1204 Li1146 1.961 . S
O1204 C1148 1.340 . S
O1205 Li1144 1.970 . S
O1205 Li1145 1.956 . S
O1205 Li1147 1.961 . S
O1205 C1154 1.325 . S
O1206 Li1144 1.961 . S
O1206 Li1146 1.956 . S
O1206 Li1147 1.970 . S
O1206 C1176 1.325 . S
O1207 Li1145 1.961 . S
O1207 Li1146 1.970 . S
O1207 Li1147 1.956 . S
O1207 C1182 1.325 . S
H1208 C1150 0.929 . S
H1209 C1151 0.930 . S
H1210 C1152 0.930 . S
H1211 C1153 0.930 . S
H1212 C1155 0.930 . S
H1213 C1157 0.929 . S
H1214 C1158 0.930 . S
H1215 C1159 0.930 . S
H1216 C1162 0.930 . S
H1217 C1165 0.929 . S
H1218 C1170 0.929 . S
H1219 C1171 0.930 . S
H1220 C1178 0.929 . S
H1221 C1179 0.930 . S
H1222 C1180 0.930 . S
H1223 C1181 0.930 . S
H1224 C1183 0.929 . S
H1225 C1184 0.930 . S
H1226 C1185 0.930 . S
H1227 C1186 0.930 . S
H1228 C1190 0.929 . S
H1229 C1192 0.930 . S
H1230 C1198 0.929 . S
H1231 C1199 0.930 . S
Li1232 N1249 1.990 . S
Li1232 O1292 1.956 . S
Li1232 O1293 1.970 . S
Li1232 O1294 1.961 . S
Li1233 N1257 1.990 . S
Li1233 O1292 1.970 . S
Li1233 O1293 1.956 . S
Li1233 O1295 1.961 . S
Li1234 N1279 1.990 1_455 S
Li1234 O1292 1.961 . S
Li1234 O1294 1.956 . S
Li1234 O1295 1.970 . S
Li1235 N1285 1.990 . S
Li1235 O1293 1.961 . S
Li1235 O1294 1.970 . S
Li1235 O1295 1.956 . S
C1236 C1238 1.344 1_455 S
C1236 C1239 1.354 1_455 S
C1236 O1292 1.330 . S
N1237 C1240 1.314 . S
N1237 C1241 1.279 . S
C1238 C1236 1.344 1_655 S
C1238 C1240 1.353 . S
C1238 H1296 0.929 1_655 S
C1239 C1236 1.354 1_655 S
C1239 C1241 1.358 . S
C1239 H1297 0.930 . S
C1240 N1237 1.314 . S
C1240 C1238 1.353 . S
C1240 H1298 0.930 . S
C1241 N1237 1.279 . S
C1241 C1239 1.358 . S
C1241 H1299 0.930 . S
C1242 C1245 1.348 . S
C1242 C1246 1.356 . S
C1242 O1293 1.325 . S
C1243 N1244 1.279 . S
C1243 C1246 1.358 . S
C1243 H1300 0.930 . S
N1244 C1243 1.279 . S
N1244 C1247 1.314 . S
C1245 C1242 1.348 . S
C1245 C1247 1.353 . S
C1245 H1301 0.929 . S
C1246 C1242 1.356 . S
C1246 C1243 1.358 . S
C1246 H1302 0.930 . S
C1247 N1244 1.314 . S
C1247 C1245 1.353 . S
C1247 H1303 0.930 . S
C1248 N1249 1.314 . S
C1248 C1253 1.353 . S
C1248 H1254 0.930 . S
N1249 Li1232 1.990 . S
N1249 C1248 1.314 . S
N1249 C1251 1.279 . S
C1250 C1251 1.358 . S
C1250 C1252 1.356 . S
C1250 H1304 0.930 . S
C1251 N1249 1.279 . S
C1251 C1250 1.358 . S
C1251 H1255 0.930 . S
C1252 C1250 1.356 . S
C1252 C1253 1.348 . S
C1253 C1248 1.353 . S
C1253 C1252 1.348 . S
C1253 H1305 0.929 . S
H1254 C1248 0.930 . S
H1255 C1251 0.930 . S
C1256 N1257 1.314 . S
C1256 C1258 1.353 . S
C1256 H1262 0.930 . S
N1257 Li1233 1.990 . S
N1257 C1256 1.314 . S
N1257 C1260 1.279 . S
C1258 C1256 1.353 . S
C1258 C1261 1.348 . S
C1258 H1306 0.929 . S
C1259 C1260 1.358 . S
C1259 C1261 1.356 . S
C1259 H1307 0.930 . S
C1260 N1257 1.279 . S
C1260 C1259 1.358 . S
C1260 H1263 0.930 . S
C1261 C1258 1.348 . S
C1261 C1259 1.356 . S
H1262 C1256 0.930 . S
H1263 C1260 0.930 . S
C1264 C1266 1.348 . S
C1264 C1267 1.356 . S
C1264 O1294 1.325 . S
N1265 C1268 1.314 . S
N1265 C1269 1.279 . S
C1266 C1264 1.348 . S
C1266 C1268 1.353 . S
C1266 H1308 0.929 . S
C1267 C1264 1.356 . S
C1267 C1269 1.358 . S
C1267 H1309 0.930 . S
C1268 N1265 1.314 . S
C1268 C1266 1.353 . S
C1268 H1310 0.930 . S
C1269 N1265 1.279 . S
C1269 C1267 1.358 . S
C1269 H1311 0.930 . S
C1270 C1271 1.348 . S
C1270 C1272 1.356 . S
C1270 O1295 1.325 . S
C1271 C1270 1.348 . S
C1271 C1273 1.353 . S
C1271 H1312 0.929 . S
C1272 C1270 1.356 . S
C1272 C1274 1.358 . S
C1272 H1313 0.930 . S
C1273 C1271 1.353 . S
C1273 N1275 1.314 . S
C1273 H1314 0.930 1_455 S
C1274 C1272 1.358 . S
C1274 N1275 1.279 . S
C1274 H1315 0.930 . S
N1275 C1273 1.314 . S
N1275 C1274 1.279 . S
C1276 C1278 1.353 . S
C1276 N1279 1.314 . S
C1276 H1282 0.930 . S
C1277 N1279 1.279 . S
C1277 C1280 1.358 . S
C1277 H1283 0.930 . S
C1278 C1276 1.353 . S
C1278 C1281 1.348 . S
C1278 H1316 0.929 . S
N1279 Li1234 1.990 1_655 S
N1279 C1276 1.314 . S
N1279 C1277 1.279 . S
C1280 C1277 1.358 . S
C1280 C1281 1.356 . S
C1280 H1317 0.930 . S
C1281 C1278 1.348 . S
C1281 C1280 1.356 . S
H1282 C1276 0.930 . S
H1283 C1277 0.930 . S
C1284 N1285 1.314 . S
C1284 C1286 1.353 . S
C1284 H1290 0.930 . S
N1285 Li1235 1.990 . S
N1285 C1284 1.314 . S
N1285 C1288 1.279 . S
C1286 C1284 1.353 . S
C1286 C1289 1.348 . S
C1286 H1318 0.929 . S
C1287 C1288 1.358 . S
C1287 C1289 1.356 . S
C1287 H1319 0.930 . S
C1288 N1285 1.279 . S
C1288 C1287 1.358 . S
C1288 H1291 0.930 . S
C1289 C1286 1.348 . S
C1289 C1287 1.356 . S
H1290 C1284 0.930 . S
H1291 C1288 0.930 . S
O1292 Li1232 1.956 . S
O1292 Li1233 1.970 . S
O1292 Li1234 1.961 . S
O1292 C1236 1.330 . S
O1293 Li1232 1.970 . S
O1293 Li1233 1.956 . S
O1293 Li1235 1.961 . S
O1293 C1242 1.325 . S
O1294 Li1232 1.961 . S
O1294 Li1234 1.956 . S
O1294 Li1235 1.970 . S
O1294 C1264 1.325 . S
O1295 Li1233 1.961 . S
O1295 Li1234 1.970 . S
O1295 Li1235 1.956 . S
O1295 C1270 1.325 . S
H1296 C1238 0.929 1_455 S
H1297 C1239 0.930 . S
H1298 C1240 0.930 . S
H1299 C1241 0.930 . S
H1300 C1243 0.930 . S
H1301 C1245 0.929 . S
H1302 C1246 0.930 . S
H1303 C1247 0.930 . S
H1304 C1250 0.930 . S
H1305 C1253 0.929 . S
H1306 C1258 0.929 . S
H1307 C1259 0.930 . S
H1308 C1266 0.929 . S
H1309 C1267 0.930 . S
H1310 C1268 0.930 . S
H1311 C1269 0.930 . S
H1312 C1271 0.929 . S
H1313 C1272 0.930 . S
H1314 C1273 0.930 1_655 S
H1315 C1274 0.930 . S
H1316 C1278 0.929 . S
H1317 C1280 0.930 . S
H1318 C1286 0.929 . S
H1319 C1287 0.930 . S
Li1320 N1337 1.990 . S
Li1320 O1380 1.956 1_655 S
Li1320 O1381 2.001 . S
Li1320 O1382 1.961 . S
Li1321 N1345 1.990 . S
Li1321 O1380 1.971 . S
Li1321 O1381 1.934 1_455 S
Li1321 O1383 1.961 . S
Li1322 N1367 1.990 . S
Li1322 O1380 1.961 1_655 S
Li1322 O1382 1.956 . S
Li1322 O1383 1.970 1_655 S
Li1323 N1373 1.990 . S
Li1323 O1381 1.938 1_455 S
Li1323 O1382 1.970 1_455 S
Li1323 O1383 1.956 . S
C1324 C1326 1.348 1_655 S
C1324 C1327 1.356 . S
C1324 O1380 1.324 1_655 S
N1325 C1328 1.314 1_655 S
N1325 C1329 1.279 . S
C1326 C1324 1.348 1_455 S
C1326 C1328 1.353 . S
C1326 H1384 0.929 . S
C1327 C1324 1.356 . S
C1327 C1329 1.358 . S
C1327 H1385 0.930 . S
C1328 N1325 1.314 1_455 S
C1328 C1326 1.353 . S
C1328 H1386 0.930 . S
C1329 N1325 1.279 . S
C1329 C1327 1.358 . S
C1329 H1387 0.930 . S
C1330 C1333 1.335 1_455 S
C1330 C1334 1.367 . S
C1330 O1381 1.332 1_455 S
C1331 N1332 1.279 . S
C1331 C1334 1.358 . S
C1331 H1388 0.930 . S
N1332 C1331 1.279 . S
N1332 C1335 1.314 1_455 S
C1333 C1330 1.335 1_655 S
C1333 C1335 1.353 . S
C1333 H1389 0.929 . S
C1334 C1330 1.367 . S
C1334 C1331 1.358 . S
C1334 H1390 0.930 . S
C1335 N1332 1.314 1_655 S
C1335 C1333 1.353 . S
C1335 H1391 0.930 . S
C1336 N1337 1.314 . S
C1336 C1341 1.353 . S
C1336 H1342 0.930 . S
N1337 Li1320 1.990 . S
N1337 C1336 1.314 . S
N1337 C1339 1.279 . S
C1338 C1339 1.358 . S
C1338 C1340 1.356 . S
C1338 H1392 0.930 . S
C1339 N1337 1.279 . S
C1339 C1338 1.358 . S
C1339 H1343 0.930 . S
C1340 C1338 1.356 . S
C1340 C1341 1.348 . S
C1341 C1336 1.353 . S
C1341 C1340 1.348 . S
C1341 H1393 0.929 . S
H1342 C1336 0.930 . S
H1343 C1339 0.930 . S
C1344 N1345 1.314 . S
C1344 C1346 1.353 . S
C1344 H1350 0.930 . S
N1345 Li1321 1.990 . S
N1345 C1344 1.314 . S
N1345 C1348 1.279 . S
C1346 C1344 1.353 . S
C1346 C1349 1.348 . S
C1346 H1394 0.929 . S
C1347 C1348 1.358 . S
C1347 C1349 1.356 . S
C1347 H1395 0.930 . S
C1348 N1345 1.279 . S
C1348 C1347 1.358 . S
C1348 H1351 0.930 . S
C1349 C1346 1.348 . S
C1349 C1347 1.356 . S
H1350 C1344 0.930 . S
H1351 C1348 0.930 . S
C1352 C1354 1.348 . S
C1352 C1355 1.356 . S
C1352 O1382 1.325 . S
N1353 C1356 1.314 . S
N1353 C1357 1.279 . S
C1354 C1352 1.348 . S
C1354 C1356 1.353 . S
C1354 H1396 0.929 . S
C1355 C1352 1.356 . S
C1355 C1357 1.358 . S
C1355 H1397 0.930 . S
C1356 N1353 1.314 . S
C1356 C1354 1.353 . S
C1356 H1398 0.930 . S
C1357 N1353 1.279 . S
C1357 C1355 1.358 . S
C1357 H1399 0.930 . S
C1358 C1359 1.348 . S
C1358 C1360 1.356 . S
C1358 O1383 1.325 . S
C1359 C1358 1.348 . S
C1359 C1361 1.353 . S
C1359 H1400 0.929 . S
C1360 C1358 1.356 . S
C1360 C1362 1.358 . S
C1360 H1401 0.930 . S
C1361 C1359 1.353 . S
C1361 N1363 1.314 . S
C1361 H1402 0.930 . S
C1362 C1360 1.358 . S
C1362 N1363 1.279 . S
C1362 H1403 0.930 . S
N1363 C1361 1.314 . S
N1363 C1362 1.279 . S
C1364 C1366 1.353 . S
C1364 N1367 1.314 1_455 S
C1364 H1370 0.930 . S
C1365 N1367 1.279 . S
C1365 C1368 1.358 . S
C1365 H1371 0.930 . S
C1366 C1364 1.353 . S
C1366 C1369 1.345 1_455 S
C1366 H1404 0.929 . S
N1367 Li1322 1.990 . S
N1367 C1364 1.314 1_655 S
N1367 C1365 1.279 . S
C1368 C1365 1.358 . S
C1368 C1369 1.376 . S
C1368 H1405 0.930 . S
C1369 C1366 1.345 1_655 S
C1369 C1368 1.376 . S
H1370 C1364 0.930 . S
H1371 C1365 0.930 . S
C1372 N1373 1.314 1_655 S
C1372 C1374 1.353 . S
C1372 H1378 0.930 . S
N1373 Li1323 1.990 . S
N1373 C1372 1.314 1_455 S
N1373 C1376 1.279 . S
C1374 C1372 1.353 . S
C1374 C1377 1.348 1_655 S
C1374 H1406 0.929 . S
C1375 C1376 1.358 . S
C1375 C1377 1.356 . S
C1375 H1407 0.930 . S
C1376 N1373 1.279 . S
C1376 C1375 1.358 . S
C1376 H1379 0.930 . S
C1377 C1374 1.348 1_455 S
C1377 C1375 1.356 . S
H1378 C1372 0.930 . S
H1379 C1376 0.930 . S
O1380 Li1320 1.956 1_455 S
O1380 Li1321 1.971 . S
O1380 Li1322 1.961 1_455 S
O1380 C1324 1.324 1_455 S
O1381 Li1320 2.001 . S
O1381 Li1321 1.934 1_655 S
O1381 Li1323 1.938 1_655 S
O1381 C1330 1.332 1_655 S
O1382 Li1320 1.961 . S
O1382 Li1322 1.956 . S
O1382 Li1323 1.970 1_655 S
O1382 C1352 1.325 . S
O1383 Li1321 1.961 . S
O1383 Li1322 1.970 1_455 S
O1383 Li1323 1.956 . S
O1383 C1358 1.325 . S
H1384 C1326 0.929 . S
H1385 C1327 0.930 . S
H1386 C1328 0.930 . S
H1387 C1329 0.930 . S
H1388 C1331 0.930 . S
H1389 C1333 0.929 . S
H1390 C1334 0.930 . S
H1391 C1335 0.930 . S
H1392 C1338 0.930 . S
H1393 C1341 0.929 . S
H1394 C1346 0.929 . S
H1395 C1347 0.930 . S
H1396 C1354 0.929 . S
H1397 C1355 0.930 . S
H1398 C1356 0.930 . S
H1399 C1357 0.930 . S
H1400 C1359 0.929 . S
H1401 C1360 0.930 . S
H1402 C1361 0.930 . S
H1403 C1362 0.930 . S
H1404 C1366 0.929 . S
H1405 C1368 0.930 . S
H1406 C1374 0.929 . S
H1407 C1375 0.930 . S
Li1408 N1425 1.990 . S
Li1408 O1468 1.956 . S
Li1408 O1469 1.970 . S
Li1408 O1470 1.961 . S
Li1409 N1433 1.990 . S
Li1409 O1468 1.970 . S
Li1409 O1469 1.956 . S
Li1409 O1471 1.961 . S
Li1410 N1455 1.990 . S
Li1410 O1468 1.961 . S
Li1410 O1470 1.956 . S
Li1410 O1471 1.970 . S
Li1411 N1461 1.990 . S
Li1411 O1469 1.961 . S
Li1411 O1470 1.970 . S
Li1411 O1471 1.956 . S
C1412 C1414 1.348 . S
C1412 C1415 1.356 . S
C1412 O1468 1.325 . S
N1413 C1416 1.314 . S
N1413 C1417 1.279 . S
C1414 C1412 1.348 . S
C1414 C1416 1.353 . S
C1414 H1472 0.929 . S
C1415 C1412 1.356 . S
C1415 C1417 1.358 . S
C1415 H1473 0.930 . S
C1416 N1413 1.314 . S
C1416 C1414 1.353 . S
C1416 H1474 0.930 . S
C1417 N1413 1.279 . S
C1417 C1415 1.358 . S
C1417 H1475 0.930 . S
C1418 C1421 1.348 . S
C1418 C1422 1.356 . S
C1418 O1469 1.325 . S
C1419 N1420 1.279 . S
C1419 C1422 1.358 . S
C1419 H1476 0.930 . S
N1420 C1419 1.279 . S
N1420 C1423 1.314 . S
C1421 C1418 1.348 . S
C1421 C1423 1.353 . S
C1421 H1477 0.929 . S
C1422 C1418 1.356 . S
C1422 C1419 1.358 . S
C1422 H1478 0.930 . S
C1423 N1420 1.314 . S
C1423 C1421 1.353 . S
C1423 H1479 0.930 . S
C1424 N1425 1.314 . S
C1424 C1429 1.353 . S
C1424 H1430 0.930 . S
N1425 Li1408 1.990 . S
N1425 C1424 1.314 . S
N1425 C1427 1.279 . S
C1426 C1427 1.358 . S
C1426 C1428 1.356 . S
C1426 H1480 0.930 . S
C1427 N1425 1.279 . S
C1427 C1426 1.358 . S
C1427 H1431 0.930 . S
C1428 C1426 1.356 . S
C1428 C1429 1.348 . S
C1429 C1424 1.353 . S
C1429 C1428 1.348 . S
C1429 H1481 0.929 . S
H1430 C1424 0.930 . S
H1431 C1427 0.930 . S
C1432 N1433 1.314 . S
C1432 C1434 1.353 . S
C1432 H1438 0.930 . S
N1433 Li1409 1.990 . S
N1433 C1432 1.314 . S
N1433 C1436 1.279 . S
C1434 C1432 1.353 . S
C1434 C1437 1.348 . S
C1434 H1482 0.929 . S
C1435 C1436 1.358 . S
C1435 C1437 1.356 . S
C1435 H1483 0.930 . S
C1436 N1433 1.279 . S
C1436 C1435 1.358 . S
C1436 H1439 0.930 . S
C1437 C1434 1.348 . S
C1437 C1435 1.356 . S
H1438 C1432 0.930 . S
H1439 C1436 0.930 . S
C1440 C1442 1.348 . S
C1440 C1443 1.356 . S
C1440 O1470 1.325 . S
N1441 C1444 1.314 . S
N1441 C1445 1.279 . S
C1442 C1440 1.348 . S
C1442 C1444 1.353 . S
C1442 H1484 0.929 . S
C1443 C1440 1.356 . S
C1443 C1445 1.358 . S
C1443 H1485 0.930 . S
C1444 N1441 1.314 . S
C1444 C1442 1.353 . S
C1444 H1486 0.930 . S
C1445 N1441 1.279 . S
C1445 C1443 1.358 . S
C1445 H1487 0.930 . S
C1446 C1447 1.348 . S
C1446 C1448 1.356 . S
C1446 O1471 1.325 . S
C1447 C1446 1.348 . S
C1447 C1449 1.353 . S
C1447 H1488 0.929 . S
C1448 C1446 1.356 . S
C1448 C1450 1.358 . S
C1448 H1489 0.930 . S
C1449 C1447 1.353 . S
C1449 N1451 1.314 . S
C1449 H1490 0.930 . S
C1450 C1448 1.358 . S
C1450 N1451 1.279 . S
C1450 H1491 0.930 . S
N1451 C1449 1.314 . S
N1451 C1450 1.279 . S
C1452 C1454 1.353 . S
C1452 N1455 1.314 . S
C1452 H1458 0.930 . S
C1453 N1455 1.279 . S
C1453 C1456 1.358 . S
C1453 H1459 0.930 . S
C1454 C1452 1.353 . S
C1454 C1457 1.348 . S
C1454 H1492 0.929 . S
N1455 Li1410 1.990 . S
N1455 C1452 1.314 . S
N1455 C1453 1.279 . S
C1456 C1453 1.358 . S
C1456 C1457 1.356 . S
C1456 H1493 0.930 . S
C1457 C1454 1.348 . S
C1457 C1456 1.356 . S
H1458 C1452 0.930 . S
H1459 C1453 0.930 . S
C1460 N1461 1.314 . S
C1460 C1462 1.353 . S
C1460 H1466 0.930 . S
N1461 Li1411 1.990 . S
N1461 C1460 1.314 . S
N1461 C1464 1.279 . S
C1462 C1460 1.353 . S
C1462 C1465 1.348 . S
C1462 H1494 0.929 . S
C1463 C1464 1.358 . S
C1463 C1465 1.356 . S
C1463 H1495 0.930 . S
C1464 N1461 1.279 . S
C1464 C1463 1.358 . S
C1464 H1467 0.930 . S
C1465 C1462 1.348 . S
C1465 C1463 1.356 . S
H1466 C1460 0.930 . S
H1467 C1464 0.930 . S
O1468 Li1408 1.956 . S
O1468 Li1409 1.970 . S
O1468 Li1410 1.961 . S
O1468 C1412 1.325 . S
O1469 Li1408 1.970 . S
O1469 Li1409 1.956 . S
O1469 Li1411 1.961 . S
O1469 C1418 1.325 . S
O1470 Li1408 1.961 . S
O1470 Li1410 1.956 . S
O1470 Li1411 1.970 . S
O1470 C1440 1.325 . S
O1471 Li1409 1.961 . S
O1471 Li1410 1.970 . S
O1471 Li1411 1.956 . S
O1471 C1446 1.325 . S
H1472 C1414 0.929 . S
H1473 C1415 0.930 . S
H1474 C1416 0.930 . S
H1475 C1417 0.930 . S
H1476 C1419 0.930 . S
H1477 C1421 0.929 . S
H1478 C1422 0.930 . S
H1479 C1423 0.930 . S
H1480 C1426 0.930 . S
H1481 C1429 0.929 . S
H1482 C1434 0.929 . S
H1483 C1435 0.930 . S
H1484 C1442 0.929 . S
H1485 C1443 0.930 . S
H1486 C1444 0.930 . S
H1487 C1445 0.930 . S
H1488 C1447 0.929 . S
H1489 C1448 0.930 . S
H1490 C1449 0.930 . S
H1491 C1450 0.930 . S
H1492 C1454 0.929 . S
H1493 C1456 0.930 . S
H1494 C1462 0.929 . S
H1495 C1463 0.930 . S
Li1496 N1513 1.990 . S
Li1496 O1556 1.956 . S
Li1496 O1557 1.986 . S
Li1496 O1558 1.961 1_565 S
Li1497 N1521 1.980 1_565 S
Li1497 O1556 1.973 . S
Li1497 O1557 1.947 . S
Li1497 O1559 1.959 1_565 S
Li1498 N1543 1.995 1_545 S
Li1498 O1556 1.963 1_545 S
Li1498 O1558 1.958 . S
Li1498 O1559 1.966 . S
Li1499 N1549 1.990 . S
Li1499 O1557 1.948 1_545 S
Li1499 O1558 1.970 . S
Li1499 O1559 1.956 . S
C1500 C1502 1.348 . S
C1500 C1503 1.356 . S
C1500 O1556 1.325 . S
N1501 C1504 1.314 . S
N1501 C1505 1.279 . S
C1502 C1500 1.348 . S
C1502 C1504 1.353 . S
C1502 H1560 0.929 . S
C1503 C1500 1.356 . S
C1503 C1505 1.358 . S
C1503 H1561 0.930 . S
C1504 N1501 1.314 . S
C1504 C1502 1.353 . S
C1504 H1562 0.930 . S
C1505 N1501 1.279 . S
C1505 C1503 1.358 . S
C1505 H1563 0.930 . S
C1506 C1509 1.363 . S
C1506 C1510 1.343 1_565 S
C1506 O1557 1.325 . S
C1507 N1508 1.278 . S
C1507 C1510 1.358 . S
C1507 H1564 0.930 . S
N1508 C1507 1.278 . S
N1508 C1511 1.316 1_545 S
C1509 C1506 1.363 . S
C1509 C1511 1.353 . S
C1509 H1565 0.929 . S
C1510 C1506 1.343 1_545 S
C1510 C1507 1.358 . S
C1510 H1566 0.930 . S
C1511 N1508 1.316 1_565 S
C1511 C1509 1.353 . S
C1511 H1567 0.930 . S
C1512 N1513 1.314 . S
C1512 C1517 1.353 . S
C1512 H1518 0.930 . S
N1513 Li1496 1.990 . S
N1513 C1512 1.314 . S
N1513 C1515 1.279 . S
C1514 C1515 1.358 . S
C1514 C1516 1.356 . S
C1514 H1568 0.930 . S
C1515 N1513 1.279 . S
C1515 C1514 1.358 . S
C1515 H1519 0.930 . S
C1516 C1514 1.356 . S
C1516 C1517 1.348 . S
C1517 C1512 1.353 . S
C1517 C1516 1.348 . S
C1517 H1569 0.929 . S
H1518 C1512 0.930 . S
H1519 C1515 0.930 . S
C1520 N1521 1.327 . S
C1520 C1522 1.353 . S
C1520 H1526 0.930 . S
N1521 Li1497 1.980 1_545 S
N1521 C1520 1.327 . S
N1521 C1524 1.275 1_545 S
C1522 C1520 1.353 . S
C1522 C1525 1.348 1_545 S
C1522 H1570 0.929 . S
C1523 C1524 1.358 . S
C1523 C1525 1.356 . S
C1523 H1571 0.930 . S
C1524 N1521 1.275 1_565 S
C1524 C1523 1.358 . S
C1524 H1527 0.930 . S
C1525 C1522 1.348 1_565 S
C1525 C1523 1.356 . S
H1526 C1520 0.930 . S
H1527 C1524 0.930 . S
C1528 C1530 1.348 . S
C1528 C1531 1.356 1_545 S
C1528 O1558 1.325 . S
N1529 C1532 1.314 . S
N1529 C1533 1.279 1_545 S
C1530 C1528 1.348 . S
C1530 C1532 1.353 . S
C1530 H1572 0.929 . S
C1531 C1528 1.356 1_565 S
C1531 C1533 1.358 . S
C1531 H1573 0.930 . S
C1532 N1529 1.314 . S
C1532 C1530 1.353 . S
C1532 H1574 0.930 . S
C1533 N1529 1.279 1_565 S
C1533 C1531 1.358 . S
C1533 H1575 0.930 . S
C1534 C1535 1.348 . S
C1534 C1536 1.356 . S
C1534 O1559 1.325 . S
C1535 C1534 1.348 . S
C1535 C1537 1.353 . S
C1535 H1576 0.929 . S
C1536 C1534 1.356 . S
C1536 C1538 1.358 . S
C1536 H1577 0.930 . S
C1537 C1535 1.353 . S
C1537 N1539 1.314 . S
C1537 H1578 0.930 . S
C1538 C1536 1.358 . S
C1538 N1539 1.279 . S
C1538 H1579 0.930 . S
N1539 C1537 1.314 . S
N1539 C1538 1.279 . S
C1540 C1542 1.353 . S
C1540 N1543 1.300 . S
C1540 H1546 0.930 . S
C1541 N1543 1.285 1_545 S
C1541 C1544 1.358 . S
C1541 H1547 0.930 . S
C1542 C1540 1.353 . S
C1542 C1545 1.348 1_565 S
C1542 H1580 0.929 . S
N1543 Li1498 1.995 1_565 S
N1543 C1540 1.300 . S
N1543 C1541 1.285 1_565 S
C1544 C1541 1.358 . S
C1544 C1545 1.356 . S
C1544 H1581 0.930 . S
C1545 C1542 1.348 1_545 S
C1545 C1544 1.356 . S
H1546 C1540 0.930 . S
H1547 C1541 0.930 . S
C1548 N1549 1.314 . S
C1548 C1550 1.353 . S
C1548 H1554 0.930 . S
N1549 Li1499 1.990 . S
N1549 C1548 1.314 . S
N1549 C1552 1.279 . S
C1550 C1548 1.353 . S
C1550 C1553 1.348 . S
C1550 H1582 0.929 . S
C1551 C1552 1.358 . S
C1551 C1553 1.356 . S
C1551 H1583 0.930 . S
C1552 N1549 1.279 . S
C1552 C1551 1.358 . S
C1552 H1555 0.930 . S
C1553 C1550 1.348 . S
C1553 C1551 1.356 . S
H1554 C1548 0.930 . S
H1555 C1552 0.930 . S
O1556 Li1496 1.956 . S
O1556 Li1497 1.973 . S
O1556 Li1498 1.963 1_565 S
O1556 C1500 1.325 . S
O1557 Li1496 1.986 . S
O1557 Li1497 1.947 . S
O1557 Li1499 1.948 1_565 S
O1557 C1506 1.325 . S
O1558 Li1496 1.961 1_545 S
O1558 Li1498 1.958 . S
O1558 Li1499 1.970 . S
O1558 C1528 1.325 . S
O1559 Li1497 1.959 1_545 S
O1559 Li1498 1.966 . S
O1559 Li1499 1.956 . S
O1559 C1534 1.325 . S
H1560 C1502 0.929 . S
H1561 C1503 0.930 . S
H1562 C1504 0.930 . S
H1563 C1505 0.930 . S
H1564 C1507 0.930 . S
H1565 C1509 0.929 . S
H1566 C1510 0.930 . S
H1567 C1511 0.930 . S
H1568 C1514 0.930 . S
H1569 C1517 0.929 . S
H1570 C1522 0.929 . S
H1571 C1523 0.930 . S
H1572 C1530 0.929 . S
H1573 C1531 0.930 . S
H1574 C1532 0.930 . S
H1575 C1533 0.930 . S
H1576 C1535 0.929 . S
H1577 C1536 0.930 . S
H1578 C1537 0.930 . S
H1579 C1538 0.930 . S
H1580 C1542 0.929 . S
H1581 C1544 0.930 . S
H1582 C1550 0.929 . S
H1583 C1551 0.930 . S
C1584 C1585 1.349 . S
C1584 C1586 1.327 . S
C1584 H1609 0.950 . S
C1585 C1584 1.349 . S
C1585 C1601 1.349 . S
C1586 C1584 1.327 . S
C1586 C1605 1.429 . S
C1586 H1610 0.950 . S
C1587 C1604 1.574 1_554 S
C1587 C1606 1.368 1_565 S
C1587 H1611 0.949 . S
H1588 C1592 0.947 1_556 S
C1589 C1590 1.349 . S
C1589 C1591 1.327 . S
C1589 H1612 0.950 . S
C1590 C1589 1.349 . S
C1590 C1602 1.349 . S
C1591 C1589 1.327 . S
C1591 C1607 1.429 . S
C1591 H1613 0.950 . S
C1592 H1588 0.947 1_554 S
C1592 C1600 1.571 . S
C1592 C1608 1.371 1_544 S
H1593 C1601 0.950 1_565 S
H1594 C1599 0.950 . S
H1595 C1600 0.949 . S
H1596 C1602 0.950 1_545 S
H1597 C1603 0.950 . S
H1598 C1604 0.949 . S
C1599 H1594 0.950 . S
C1599 C1601 1.327 1_565 S
C1599 C1605 1.429 1_565 S
C1600 C1592 1.571 . S
C1600 H1595 0.949 . S
C1600 C1606 1.368 . S
C1601 C1585 1.349 . S
C1601 H1593 0.950 1_545 S
C1601 C1599 1.327 1_545 S
C1602 C1590 1.349 . S
C1602 H1596 0.950 1_565 S
C1602 C1603 1.327 1_565 S
C1603 H1597 0.950 . S
C1603 C1602 1.327 1_545 S
C1603 C1607 1.429 1_545 S
C1604 C1587 1.574 1_556 S
C1604 H1598 0.949 . S
C1604 C1608 1.368 . S
C1605 C1586 1.429 . S
C1605 C1599 1.429 1_545 S
C1605 C1606 1.523 . S
C1606 C1587 1.368 1_545 S
C1606 C1600 1.368 . S
C1606 C1605 1.523 . S
C1607 C1591 1.429 . S
C1607 C1603 1.429 1_565 S
C1607 C1608 1.523 . S
C1608 C1592 1.371 1_566 S
C1608 C1604 1.368 . S
C1608 C1607 1.523 . S
H1609 C1584 0.950 . S
H1610 C1586 0.950 . S
H1611 C1587 0.949 . S
H1612 C1589 0.950 . S
H1613 C1591 0.950 . S
C1614 C1615 1.349 . S
C1614 C1616 1.327 1_655 S
C1614 H1639 0.950 1_655 S
C1615 C1614 1.349 . S
C1615 C1631 1.349 . S
C1616 C1614 1.327 1_455 S
C1616 C1635 1.429 1_455 S
C1616 H1640 0.950 . S
C1617 C1634 1.574 . S
C1617 C1636 1.368 1_556 S
C1617 H1641 0.949 . S
H1618 C1622 0.949 . S
C1619 C1620 1.349 . S
C1619 C1621 1.327 1_455 S
C1619 H1642 0.950 1_455 S
C1620 C1619 1.349 . S
C1620 C1632 1.349 . S
C1621 C1619 1.327 1_655 S
C1621 C1637 1.429 1_655 S
C1621 H1643 0.950 . S
C1622 H1618 0.949 . S
C1622 C1630 1.574 . S
C1622 C1638 1.368 1_554 S
H1623 C1631 0.950 . S
H1624 C1629 0.950 . S
H1625 C1630 0.949 . S
H1626 C1632 0.950 . S
H1627 C1633 0.950 . S
H1628 C1634 0.949 . S
C1629 H1624 0.950 . S
C1629 C1631 1.327 . S
C1629 C1635 1.429 . S
C1630 C1622 1.574 . S
C1630 H1625 0.949 . S
C1630 C1636 1.368 1_455 S
C1631 C1615 1.349 . S
C1631 H1623 0.950 . S
C1631 C1629 1.327 . S
C1632 C1620 1.349 . S
C1632 H1626 0.950 . S
C1632 C1633 1.327 . S
C1633 H1627 0.950 . S
C1633 C1632 1.327 . S
C1633 C1637 1.429 . S
C1634 C1617 1.574 . S
C1634 H1628 0.949 . S
C1634 C1638 1.368 1_655 S
C1635 C1616 1.429 1_655 S
C1635 C1629 1.429 . S
C1635 C1636 1.523 . S
C1636 C1617 1.368 1_554 S
C1636 C1630 1.368 1_655 S
C1636 C1635 1.523 . S
C1637 C1621 1.429 1_455 S
C1637 C1633 1.429 . S
C1637 C1638 1.523 . S
C1638 C1622 1.368 1_556 S
C1638 C1634 1.368 1_455 S
C1638 C1637 1.523 . S
H1639 C1614 0.950 1_455 S
H1640 C1616 0.950 . S
H1641 C1617 0.949 . S
H1642 C1619 0.950 1_655 S
H1643 C1621 0.950 . S
C1644 C1645 1.349 . S
C1644 C1646 1.327 . S
C1644 H1669 0.950 . S
C1645 C1644 1.349 . S
C1645 C1661 1.349 . S
C1646 C1644 1.327 . S
C1646 C1665 1.429 . S
C1646 H1670 0.950 . S
C1647 C1664 1.574 1_556 S
C1647 C1666 1.368 . S
C1647 H1671 0.949 . S
H1648 C1652 0.947 . S
C1649 C1650 1.349 . S
C1649 C1651 1.327 . S
C1649 H1672 0.950 . S
C1650 C1649 1.349 . S
C1650 C1662 1.349 . S
C1651 C1649 1.327 . S
C1651 C1667 1.429 . S
C1651 H1673 0.950 . S
C1652 H1648 0.947 . S
C1652 C1660 1.577 1_554 S
C1652 C1668 1.366 . S
H1653 C1661 0.950 . S
H1654 C1659 0.950 . S
H1655 C1660 0.949 . S
H1656 C1662 0.950 . S
H1657 C1663 0.950 . S
H1658 C1664 0.949 . S
C1659 H1654 0.950 . S
C1659 C1661 1.327 . S
C1659 C1665 1.429 . S
C1660 C1652 1.577 1_556 S
C1660 H1655 0.949 . S
C1660 C1666 1.368 . S
C1661 C1645 1.349 . S
C1661 H1653 0.950 . S
C1661 C1659 1.327 . S
C1662 C1650 1.349 . S
C1662 H1656 0.950 . S
C1662 C1663 1.327 . S
C1663 H1657 0.950 . S
C1663 C1662 1.327 . S
C1663 C1667 1.429 . S
C1664 C1647 1.574 1_554 S
C1664 H1658 0.949 . S
C1664 C1668 1.368 . S
C1665 C1646 1.429 . S
C1665 C1659 1.429 . S
C1665 C1666 1.523 . S
C1666 C1647 1.368 . S
C1666 C1660 1.368 . S
C1666 C1665 1.523 . S
C1667 C1651 1.429 . S
C1667 C1663 1.429 . S
C1667 C1668 1.523 . S
C1668 C1652 1.366 . S
C1668 C1664 1.368 . S
C1668 C1667 1.523 . S
H1669 C1644 0.950 . S
H1670 C1646 0.950 . S
H1671 C1647 0.949 . S
H1672 C1649 0.950 . S
H1673 C1651 0.950 . S
C1674 C1675 1.349 . S
C1674 C1676 1.327 . S
C1674 H1699 0.950 . S
C1675 C1674 1.349 . S
C1675 C1691 1.349 . S
C1676 C1674 1.327 . S
C1676 C1695 1.429 . S
C1676 H1700 0.950 . S
C1677 C1694 1.574 . S
C1677 C1696 1.368 . S
C1677 H1701 0.949 . S
H1678 C1682 0.949 . S
C1679 C1680 1.349 . S
C1679 C1681 1.327 . S
C1679 H1702 0.950 . S
C1680 C1679 1.349 . S
C1680 C1692 1.349 . S
C1681 C1679 1.327 . S
C1681 C1697 1.429 . S
C1681 H1703 0.950 . S
C1682 H1678 0.949 . S
C1682 C1690 1.574 . S
C1682 C1698 1.368 . S
H1683 C1691 0.950 . S
H1684 C1689 0.950 . S
H1685 C1690 0.949 . S
H1686 C1692 0.950 . S
H1687 C1693 0.950 . S
H1688 C1694 0.949 . S
C1689 H1684 0.950 . S
C1689 C1691 1.327 . S
C1689 C1695 1.429 . S
C1690 C1682 1.574 . S
C1690 H1685 0.949 . S
C1690 C1696 1.368 . S
C1691 C1675 1.349 . S
C1691 H1683 0.950 . S
C1691 C1689 1.327 . S
C1692 C1680 1.349 . S
C1692 H1686 0.950 . S
C1692 C1693 1.327 . S
C1693 H1687 0.950 . S
C1693 C1692 1.327 . S
C1693 C1697 1.429 . S
C1694 C1677 1.574 . S
C1694 H1688 0.949 . S
C1694 C1698 1.368 . S
C1695 C1676 1.429 . S
C1695 C1689 1.429 . S
C1695 C1696 1.523 . S
C1696 C1677 1.368 . S
C1696 C1690 1.368 . S
C1696 C1695 1.523 . S
C1697 C1681 1.429 . S
C1697 C1693 1.429 . S
C1697 C1698 1.523 . S
C1698 C1682 1.368 . S
C1698 C1694 1.368 . S
C1698 C1697 1.523 . S
H1699 C1674 0.950 . S
H1700 C1676 0.950 . S
H1701 C1677 0.949 . S
H1702 C1679 0.950 . S
H1703 C1681 0.950 . S
C1704 C1705 1.349 . S
C1704 C1706 1.327 . S
C1704 H1729 0.950 . S
C1705 C1704 1.349 . S
C1705 C1721 1.349 . S
C1706 C1704 1.327 . S
C1706 C1725 1.429 . S
C1706 H1730 0.950 . S
C1707 C1724 1.574 . S
C1707 C1726 1.368 . S
C1707 H1731 0.949 . S
H1708 C1712 0.949 . S
C1709 C1710 1.349 . S
C1709 C1711 1.327 . S
C1709 H1732 0.950 . S
C1710 C1709 1.349 . S
C1710 C1722 1.349 . S
C1711 C1709 1.327 . S
C1711 C1727 1.429 . S
C1711 H1733 0.950 . S
C1712 H1708 0.949 . S
C1712 C1720 1.574 . S
C1712 C1728 1.368 . S
H1713 C1721 0.950 . S
H1714 C1719 0.950 . S
H1715 C1720 0.949 . S
H1716 C1722 0.950 . S
H1717 C1723 0.950 . S
H1718 C1724 0.949 . S
C1719 H1714 0.950 . S
C1719 C1721 1.327 . S
C1719 C1725 1.429 . S
C1720 C1712 1.574 . S
C1720 H1715 0.949 . S
C1720 C1726 1.368 . S
C1721 C1705 1.349 . S
C1721 H1713 0.950 . S
C1721 C1719 1.327 . S
C1722 C1710 1.349 . S
C1722 H1716 0.950 . S
C1722 C1723 1.327 . S
C1723 H1717 0.950 . S
C1723 C1722 1.327 . S
C1723 C1727 1.429 . S
C1724 C1707 1.574 . S
C1724 H1718 0.949 . S
C1724 C1728 1.368 . S
C1725 C1706 1.429 . S
C1725 C1719 1.429 . S
C1725 C1726 1.523 . S
C1726 C1707 1.368 . S
C1726 C1720 1.368 . S
C1726 C1725 1.523 . S
C1727 C1711 1.429 . S
C1727 C1723 1.429 . S
C1727 C1728 1.523 . S
C1728 C1712 1.368 . S
C1728 C1724 1.368 . S
C1728 C1727 1.523 . S
H1729 C1704 0.950 . S
H1730 C1706 0.950 . S
H1731 C1707 0.949 . S
H1732 C1709 0.950 . S
H1733 C1711 0.950 . S
C1734 C1735 1.349 . S
C1734 C1736 1.327 . S
C1734 H1759 0.950 . S
C1735 C1734 1.349 . S
C1735 C1751 1.349 . S
C1736 C1734 1.327 . S
C1736 C1755 1.429 . S
C1736 H1760 0.950 . S
C1737 C1754 1.574 . S
C1737 C1756 1.368 . S
C1737 H1761 0.949 . S
H1738 C1742 0.949 . S
C1739 C1740 1.349 . S
C1739 C1741 1.327 . S
C1739 H1762 0.950 . S
C1740 C1739 1.349 . S
C1740 C1752 1.349 . S
C1741 C1739 1.327 . S
C1741 C1757 1.429 . S
C1741 H1763 0.950 . S
C1742 H1738 0.949 . S
C1742 C1750 1.574 . S
C1742 C1758 1.368 . S
H1743 C1751 0.950 . S
H1744 C1749 0.950 . S
H1745 C1750 0.949 . S
H1746 C1752 0.950 . S
H1747 C1753 0.950 . S
H1748 C1754 0.949 . S
C1749 H1744 0.950 . S
C1749 C1751 1.327 . S
C1749 C1755 1.429 . S
C1750 C1742 1.574 . S
C1750 H1745 0.949 . S
C1750 C1756 1.368 . S
C1751 C1735 1.349 . S
C1751 H1743 0.950 . S
C1751 C1749 1.327 . S
C1752 C1740 1.349 . S
C1752 H1746 0.950 . S
C1752 C1753 1.327 . S
C1753 H1747 0.950 . S
C1753 C1752 1.327 . S
C1753 C1757 1.429 . S
C1754 C1737 1.574 . S
C1754 H1748 0.949 . S
C1754 C1758 1.368 . S
C1755 C1736 1.429 . S
C1755 C1749 1.429 . S
C1755 C1756 1.523 . S
C1756 C1737 1.368 . S
C1756 C1750 1.368 . S
C1756 C1755 1.523 . S
C1757 C1741 1.429 . S
C1757 C1753 1.429 . S
C1757 C1758 1.523 . S
C1758 C1742 1.368 . S
C1758 C1754 1.368 . S
C1758 C1757 1.523 . S
H1759 C1734 0.950 . S
H1760 C1736 0.950 . S
H1761 C1737 0.949 . S
H1762 C1739 0.950 . S
H1763 C1741 0.950 . S
C1764 C1765 1.349 . S
C1764 C1766 1.327 . S
C1764 H1789 0.950 . S
C1765 C1764 1.349 . S
C1765 C1781 1.349 . S
C1766 C1764 1.327 . S
C1766 C1785 1.429 . S
C1766 H1790 0.950 . S
C1767 C1784 1.574 . S
C1767 C1786 1.368 . S
C1767 H1791 0.949 . S
H1768 C1772 0.949 . S
C1769 C1770 1.349 . S
C1769 C1771 1.327 . S
C1769 H1792 0.950 . S
C1770 C1769 1.349 . S
C1770 C1782 1.349 . S
C1771 C1769 1.327 . S
C1771 C1787 1.429 . S
C1771 H1793 0.950 . S
C1772 H1768 0.949 . S
C1772 C1780 1.574 . S
C1772 C1788 1.368 . S
H1773 C1781 0.950 . S
H1774 C1779 0.950 . S
H1775 C1780 0.949 . S
H1776 C1782 0.950 . S
H1777 C1783 0.950 . S
H1778 C1784 0.949 . S
C1779 H1774 0.950 . S
C1779 C1781 1.327 . S
C1779 C1785 1.429 . S
C1780 C1772 1.574 . S
C1780 H1775 0.949 . S
C1780 C1786 1.368 . S
C1781 C1765 1.349 . S
C1781 H1773 0.950 . S
C1781 C1779 1.327 . S
C1782 C1770 1.349 . S
C1782 H1776 0.950 . S
C1782 C1783 1.327 . S
C1783 H1777 0.950 . S
C1783 C1782 1.327 . S
C1783 C1787 1.429 . S
C1784 C1767 1.574 . S
C1784 H1778 0.949 . S
C1784 C1788 1.368 . S
C1785 C1766 1.429 . S
C1785 C1779 1.429 . S
C1785 C1786 1.523 . S
C1786 C1767 1.368 . S
C1786 C1780 1.368 . S
C1786 C1785 1.523 . S
C1787 C1771 1.429 . S
C1787 C1783 1.429 . S
C1787 C1788 1.523 . S
C1788 C1772 1.368 . S
C1788 C1784 1.368 . S
C1788 C1787 1.523 . S
H1789 C1764 0.950 . S
H1790 C1766 0.950 . S
H1791 C1767 0.949 . S
H1792 C1769 0.950 . S
H1793 C1771 0.950 . S
C1794 C1795 1.349 . S
C1794 C1796 1.327 . S
C1794 H1819 0.950 . S
C1795 C1794 1.349 . S
C1795 C1811 1.349 . S
C1796 C1794 1.327 . S
C1796 C1815 1.429 . S
C1796 H1820 0.950 . S
C1797 C1814 1.574 . S
C1797 C1816 1.368 . S
C1797 H1821 0.949 . S
H1798 C1802 0.949 . S
C1799 C1800 1.349 . S
C1799 C1801 1.327 . S
C1799 H1822 0.950 . S
C1800 C1799 1.349 . S
C1800 C1812 1.349 . S
C1801 C1799 1.327 . S
C1801 C1817 1.429 . S
C1801 H1823 0.950 . S
C1802 H1798 0.949 . S
C1802 C1810 1.574 . S
C1802 C1818 1.368 . S
H1803 C1811 0.950 . S
H1804 C1809 0.950 . S
H1805 C1810 0.949 . S
H1806 C1812 0.950 . S
H1807 C1813 0.950 . S
H1808 C1814 0.949 . S
C1809 H1804 0.950 . S
C1809 C1811 1.327 . S
C1809 C1815 1.429 . S
C1810 C1802 1.574 . S
C1810 H1805 0.949 . S
C1810 C1816 1.368 . S
C1811 C1795 1.349 . S
C1811 H1803 0.950 . S
C1811 C1809 1.327 . S
C1812 C1800 1.349 . S
C1812 H1806 0.950 . S
C1812 C1813 1.327 . S
C1813 H1807 0.950 . S
C1813 C1812 1.327 . S
C1813 C1817 1.429 . S
C1814 C1797 1.574 . S
C1814 H1808 0.949 . S
C1814 C1818 1.368 . S
C1815 C1796 1.429 . S
C1815 C1809 1.429 . S
C1815 C1816 1.523 . S
C1816 C1797 1.368 . S
C1816 C1810 1.368 . S
C1816 C1815 1.523 . S
C1817 C1801 1.429 . S
C1817 C1813 1.429 . S
C1817 C1818 1.523 . S
C1818 C1802 1.368 . S
C1818 C1814 1.368 . S
C1818 C1817 1.523 . S
H1819 C1794 0.950 . S
H1820 C1796 0.950 . S
H1821 C1797 0.949 . S
H1822 C1799 0.950 . S
H1823 C1801 0.950 . S
C1824 C1825 1.349 . S
C1824 C1826 1.327 . S
C1824 H1849 0.950 . S
C1825 C1824 1.349 . S
C1825 C1841 1.349 . S
C1826 C1824 1.327 . S
C1826 C1845 1.429 . S
C1826 H1850 0.950 . S
C1827 C1844 1.574 . S
C1827 C1846 1.368 . S
C1827 H1851 0.949 . S
H1828 C1832 0.949 . S
C1829 C1830 1.349 . S
C1829 C1831 1.327 . S
C1829 H1852 0.950 . S
C1830 C1829 1.349 . S
C1830 C1842 1.349 . S
C1831 C1829 1.327 . S
C1831 C1847 1.429 . S
C1831 H1853 0.950 . S
C1832 H1828 0.949 . S
C1832 C1840 1.574 . S
C1832 C1848 1.368 . S
H1833 C1841 0.950 . S
H1834 C1839 0.950 . S
H1835 C1840 0.949 . S
H1836 C1842 0.950 . S
H1837 C1843 0.950 . S
H1838 C1844 0.949 . S
C1839 H1834 0.950 . S
C1839 C1841 1.327 . S
C1839 C1845 1.429 . S
C1840 C1832 1.574 . S
C1840 H1835 0.949 . S
C1840 C1846 1.368 . S
C1841 C1825 1.349 . S
C1841 H1833 0.950 . S
C1841 C1839 1.327 . S
C1842 C1830 1.349 . S
C1842 H1836 0.950 . S
C1842 C1843 1.327 . S
C1843 H1837 0.950 . S
C1843 C1842 1.327 . S
C1843 C1847 1.429 . S
C1844 C1827 1.574 . S
C1844 H1838 0.949 . S
C1844 C1848 1.368 . S
C1845 C1826 1.429 . S
C1845 C1839 1.429 . S
C1845 C1846 1.523 . S
C1846 C1827 1.368 . S
C1846 C1840 1.368 . S
C1846 C1845 1.523 . S
C1847 C1831 1.429 . S
C1847 C1843 1.429 . S
C1847 C1848 1.523 . S
C1848 C1832 1.368 . S
C1848 C1844 1.368 . S
C1848 C1847 1.523 . S
H1849 C1824 0.950 . S
H1850 C1826 0.950 . S
H1851 C1827 0.949 . S
H1852 C1829 0.950 . S
H1853 C1831 0.950 . S
C1854 C1855 1.349 . S
C1854 C1856 1.327 . S
C1854 H1879 0.950 . S
C1855 C1854 1.349 . S
C1855 C1871 1.349 . S
C1856 C1854 1.327 . S
C1856 C1875 1.429 . S
C1856 H1880 0.950 . S
C1857 C1874 1.574 . S
C1857 C1876 1.368 . S
C1857 H1881 0.949 . S
H1858 C1862 0.949 . S
C1859 C1860 1.349 . S
C1859 C1861 1.327 . S
C1859 H1882 0.950 . S
C1860 C1859 1.349 . S
C1860 C1872 1.349 . S
C1861 C1859 1.327 . S
C1861 C1877 1.429 . S
C1861 H1883 0.950 . S
C1862 H1858 0.949 . S
C1862 C1870 1.574 . S
C1862 C1878 1.368 . S
H1863 C1871 0.950 . S
H1864 C1869 0.950 . S
H1865 C1870 0.949 . S
H1866 C1872 0.950 . S
H1867 C1873 0.950 . S
H1868 C1874 0.949 . S
C1869 H1864 0.950 . S
C1869 C1871 1.327 . S
C1869 C1875 1.429 . S
C1870 C1862 1.574 . S
C1870 H1865 0.949 . S
C1870 C1876 1.368 . S
C1871 C1855 1.349 . S
C1871 H1863 0.950 . S
C1871 C1869 1.327 . S
C1872 C1860 1.349 . S
C1872 H1866 0.950 . S
C1872 C1873 1.327 . S
C1873 H1867 0.950 . S
C1873 C1872 1.327 . S
C1873 C1877 1.429 . S
C1874 C1857 1.574 . S
C1874 H1868 0.949 . S
C1874 C1878 1.368 . S
C1875 C1856 1.429 . S
C1875 C1869 1.429 . S
C1875 C1876 1.523 . S
C1876 C1857 1.368 . S
C1876 C1870 1.368 . S
C1876 C1875 1.523 . S
C1877 C1861 1.429 . S
C1877 C1873 1.429 . S
C1877 C1878 1.523 . S
C1878 C1862 1.368 . S
C1878 C1874 1.368 . S
C1878 C1877 1.523 . S
H1879 C1854 0.950 . S
H1880 C1856 0.950 . S
H1881 C1857 0.949 . S
H1882 C1859 0.950 . S
H1883 C1861 0.950 . S
C1884 C1885 1.349 . S
C1884 C1886 1.327 . S
C1884 H1909 0.950 . S
C1885 C1884 1.349 . S
C1885 C1901 1.349 . S
C1886 C1884 1.327 . S
C1886 C1905 1.429 . S
C1886 H1910 0.950 . S
C1887 C1904 1.574 . S
C1887 C1906 1.368 . S
C1887 H1911 0.949 . S
H1888 C1892 0.949 . S
C1889 C1890 1.349 . S
C1889 C1891 1.327 . S
C1889 H1912 0.950 . S
C1890 C1889 1.349 . S
C1890 C1902 1.349 . S
C1891 C1889 1.327 . S
C1891 C1907 1.429 . S
C1891 H1913 0.950 . S
C1892 H1888 0.949 . S
C1892 C1900 1.574 . S
C1892 C1908 1.368 . S
H1893 C1901 0.950 . S
H1894 C1899 0.950 . S
H1895 C1900 0.949 . S
H1896 C1902 0.950 . S
H1897 C1903 0.950 . S
H1898 C1904 0.949 . S
C1899 H1894 0.950 . S
C1899 C1901 1.327 . S
C1899 C1905 1.429 . S
C1900 C1892 1.574 . S
C1900 H1895 0.949 . S
C1900 C1906 1.368 . S
C1901 C1885 1.349 . S
C1901 H1893 0.950 . S
C1901 C1899 1.327 . S
C1902 C1890 1.349 . S
C1902 H1896 0.950 . S
C1902 C1903 1.327 . S
C1903 H1897 0.950 . S
C1903 C1902 1.327 . S
C1903 C1907 1.429 . S
C1904 C1887 1.574 . S
C1904 H1898 0.949 . S
C1904 C1908 1.368 . S
C1905 C1886 1.429 . S
C1905 C1899 1.429 . S
C1905 C1906 1.523 . S
C1906 C1887 1.368 . S
C1906 C1900 1.368 . S
C1906 C1905 1.523 . S
C1907 C1891 1.429 . S
C1907 C1903 1.429 . S
C1907 C1908 1.523 . S
C1908 C1892 1.368 . S
C1908 C1904 1.368 . S
C1908 C1907 1.523 . S
H1909 C1884 0.950 . S
H1910 C1886 0.950 . S
H1911 C1887 0.949 . S
H1912 C1889 0.950 . S
H1913 C1891 0.950 . S
C1914 C1915 1.349 . S
C1914 C1916 1.327 . S
C1914 H1939 0.950 . S
C1915 C1914 1.349 . S
C1915 C1931 1.349 . S
C1916 C1914 1.327 . S
C1916 C1935 1.429 . S
C1916 H1940 0.950 . S
C1917 C1934 1.574 . S
C1917 C1936 1.368 . S
C1917 H1941 0.949 . S
H1918 C1922 0.949 . S
C1919 C1920 1.349 . S
C1919 C1921 1.327 . S
C1919 H1942 0.950 . S
C1920 C1919 1.349 . S
C1920 C1932 1.349 . S
C1921 C1919 1.327 . S
C1921 C1937 1.429 . S
C1921 H1943 0.950 . S
C1922 H1918 0.949 . S
C1922 C1930 1.574 . S
C1922 C1938 1.368 . S
H1923 C1931 0.950 . S
H1924 C1929 0.950 . S
H1925 C1930 0.949 . S
H1926 C1932 0.950 . S
H1927 C1933 0.950 . S
H1928 C1934 0.949 . S
C1929 H1924 0.950 . S
C1929 C1931 1.327 . S
C1929 C1935 1.429 . S
C1930 C1922 1.574 . S
C1930 H1925 0.949 . S
C1930 C1936 1.368 . S
C1931 C1915 1.349 . S
C1931 H1923 0.950 . S
C1931 C1929 1.327 . S
C1932 C1920 1.349 . S
C1932 H1926 0.950 . S
C1932 C1933 1.327 . S
C1933 H1927 0.950 . S
C1933 C1932 1.327 . S
C1933 C1937 1.429 . S
C1934 C1917 1.574 . S
C1934 H1928 0.949 . S
C1934 C1938 1.368 . S
C1935 C1916 1.429 . S
C1935 C1929 1.429 . S
C1935 C1936 1.523 . S
C1936 C1917 1.368 . S
C1936 C1930 1.368 . S
C1936 C1935 1.523 . S
C1937 C1921 1.429 . S
C1937 C1933 1.429 . S
C1937 C1938 1.523 . S
C1938 C1922 1.368 . S
C1938 C1934 1.368 . S
C1938 C1937 1.523 . S
H1939 C1914 0.950 . S
H1940 C1916 0.950 . S
H1941 C1917 0.949 . S
H1942 C1919 0.950 . S
H1943 C1921 0.950 . S
C1944 C1945 1.349 . S
C1944 C1946 1.327 . S
C1944 H1969 0.950 . S
C1945 C1944 1.349 . S
C1945 C1961 1.349 . S
C1946 C1944 1.327 . S
C1946 C1965 1.429 . S
C1946 H1970 0.950 . S
C1947 C1964 1.574 . S
C1947 C1966 1.368 . S
C1947 H1971 0.949 . S
H1948 C1952 0.949 . S
C1949 C1950 1.349 . S
C1949 C1951 1.327 . S
C1949 H1972 0.950 . S
C1950 C1949 1.349 . S
C1950 C1962 1.349 . S
C1951 C1949 1.327 . S
C1951 C1967 1.429 . S
C1951 H1973 0.950 . S
C1952 H1948 0.949 . S
C1952 C1960 1.574 . S
C1952 C1968 1.368 . S
H1953 C1961 0.950 . S
H1954 C1959 0.950 . S
H1955 C1960 0.949 . S
H1956 C1962 0.950 . S
H1957 C1963 0.950 . S
H1958 C1964 0.949 . S
C1959 H1954 0.950 . S
C1959 C1961 1.327 . S
C1959 C1965 1.429 . S
C1960 C1952 1.574 . S
C1960 H1955 0.949 . S
C1960 C1966 1.368 . S
C1961 C1945 1.349 . S
C1961 H1953 0.950 . S
C1961 C1959 1.327 . S
C1962 C1950 1.349 . S
C1962 H1956 0.950 . S
C1962 C1963 1.327 . S
C1963 H1957 0.950 . S
C1963 C1962 1.327 . S
C1963 C1967 1.429 . S
C1964 C1947 1.574 . S
C1964 H1958 0.949 . S
C1964 C1968 1.368 . S
C1965 C1946 1.429 . S
C1965 C1959 1.429 . S
C1965 C1966 1.523 . S
C1966 C1947 1.368 . S
C1966 C1960 1.368 . S
C1966 C1965 1.523 . S
C1967 C1951 1.429 . S
C1967 C1963 1.429 . S
C1967 C1968 1.523 . S
C1968 C1952 1.368 . S
C1968 C1964 1.368 . S
C1968 C1967 1.523 . S
H1969 C1944 0.950 . S
H1970 C1946 0.950 . S
H1971 C1947 0.949 . S
H1972 C1949 0.950 . S
H1973 C1951 0.950 . S
C1974 C1975 1.349 . S
C1974 C1976 1.327 . S
C1974 H1999 0.950 . S
C1975 C1974 1.349 . S
C1975 C1991 1.349 . S
C1976 C1974 1.327 . S
C1976 C1995 1.429 . S
C1976 H2000 0.950 . S
C1977 C1994 1.574 . S
C1977 C1996 1.368 . S
C1977 H2001 0.949 . S
H1978 C1982 0.949 . S
C1979 C1980 1.349 . S
C1979 C1981 1.327 . S
C1979 H2002 0.950 . S
C1980 C1979 1.349 . S
C1980 C1992 1.349 . S
C1981 C1979 1.327 . S
C1981 C1997 1.429 . S
C1981 H2003 0.950 . S
C1982 H1978 0.949 . S
C1982 C1990 1.574 . S
C1982 C1998 1.368 . S
H1983 C1991 0.950 . S
H1984 C1989 0.950 . S
H1985 C1990 0.949 . S
H1986 C1992 0.950 . S
H1987 C1993 0.950 . S
H1988 C1994 0.949 . S
C1989 H1984 0.950 . S
C1989 C1991 1.327 . S
C1989 C1995 1.429 . S
C1990 C1982 1.574 . S
C1990 H1985 0.949 . S
C1990 C1996 1.368 . S
C1991 C1975 1.349 . S
C1991 H1983 0.950 . S
C1991 C1989 1.327 . S
C1992 C1980 1.349 . S
C1992 H1986 0.950 . S
C1992 C1993 1.327 . S
C1993 H1987 0.950 . S
C1993 C1992 1.327 . S
C1993 C1997 1.429 . S
C1994 C1977 1.574 . S
C1994 H1988 0.949 . S
C1994 C1998 1.368 . S
C1995 C1976 1.429 . S
C1995 C1989 1.429 . S
C1995 C1996 1.523 . S
C1996 C1977 1.368 . S
C1996 C1990 1.368 . S
C1996 C1995 1.523 . S
C1997 C1981 1.429 . S
C1997 C1993 1.429 . S
C1997 C1998 1.523 . S
C1998 C1982 1.368 . S
C1998 C1994 1.368 . S
C1998 C1997 1.523 . S
H1999 C1974 0.950 . S
H2000 C1976 0.950 . S
H2001 C1977 0.949 . S
H2002 C1979 0.950 . S
H2003 C1981 0.950 . S
C2004 C2005 1.349 . S
C2004 C2006 1.327 . S
C2004 H2029 0.950 . S
C2005 C2004 1.349 . S
C2005 C2021 1.349 . S
C2006 C2004 1.327 . S
C2006 C2025 1.429 . S
C2006 H2030 0.950 . S
C2007 C2024 1.574 . S
C2007 C2026 1.368 . S
C2007 H2031 0.949 . S
H2008 C2012 0.949 . S
C2009 C2010 1.349 . S
C2009 C2011 1.327 . S
C2009 H2032 0.950 . S
C2010 C2009 1.349 . S
C2010 C2022 1.349 . S
C2011 C2009 1.327 . S
C2011 C2027 1.429 . S
C2011 H2033 0.950 . S
C2012 H2008 0.949 . S
C2012 C2020 1.574 . S
C2012 C2028 1.368 . S
H2013 C2021 0.950 . S
H2014 C2019 0.950 . S
H2015 C2020 0.949 . S
H2016 C2022 0.950 . S
H2017 C2023 0.950 . S
H2018 C2024 0.949 . S
C2019 H2014 0.950 . S
C2019 C2021 1.327 . S
C2019 C2025 1.429 . S
C2020 C2012 1.574 . S
C2020 H2015 0.949 . S
C2020 C2026 1.368 . S
C2021 C2005 1.349 . S
C2021 H2013 0.950 . S
C2021 C2019 1.327 . S
C2022 C2010 1.349 . S
C2022 H2016 0.950 . S
C2022 C2023 1.327 . S
C2023 H2017 0.950 . S
C2023 C2022 1.327 . S
C2023 C2027 1.429 . S
C2024 C2007 1.574 . S
C2024 H2018 0.949 . S
C2024 C2028 1.368 . S
C2025 C2006 1.429 . S
C2025 C2019 1.429 . S
C2025 C2026 1.523 . S
C2026 C2007 1.368 . S
C2026 C2020 1.368 . S
C2026 C2025 1.523 . S
C2027 C2011 1.429 . S
C2027 C2023 1.429 . S
C2027 C2028 1.523 . S
C2028 C2012 1.368 . S
C2028 C2024 1.368 . S
C2028 C2027 1.523 . S
H2029 C2004 0.950 . S
H2030 C2006 0.950 . S
H2031 C2007 0.949 . S
H2032 C2009 0.950 . S
H2033 C2011 0.950 . S
C2034 C2035 1.349 . S
C2034 C2036 1.327 . S
C2034 H2059 0.950 . S
C2035 C2034 1.349 . S
C2035 C2051 1.352 . S
C2036 C2034 1.327 . S
C2036 C2055 1.429 . S
C2036 H2060 0.950 . S
C2037 C2054 1.567 . S
C2037 C2056 1.370 . S
C2037 H2061 0.951 1_455 S
H2038 C2042 0.949 . S
C2039 C2040 1.360 . S
C2039 C2041 1.322 . S
C2039 H2062 0.949 . S
C2040 C2039 1.360 . S
C2040 C2052 1.348 1_655 S
C2041 C2039 1.322 . S
C2041 C2057 1.427 1_655 S
C2041 H2063 0.958 . S
C2042 H2038 0.949 . S
C2042 C2050 1.574 . S
C2042 C2058 1.368 . S
H2043 C2051 0.958 . S
H2044 C2049 0.949 . S
H2045 C2050 0.949 . S
H2046 C2052 0.958 . S
H2047 C2053 0.951 . S
H2048 C2054 0.948 1_655 S
C2049 H2044 0.949 . S
C2049 C2051 1.321 . S
C2049 C2055 1.414 . S
C2050 C2042 1.574 . S
C2050 H2045 0.949 . S
C2050 C2056 1.351 . S
C2051 C2035 1.352 . S
C2051 H2043 0.958 . S
C2051 C2049 1.321 . S
C2052 C2040 1.348 1_455 S
C2052 H2046 0.958 . S
C2052 C2053 1.321 . S
C2053 H2047 0.951 . S
C2053 C2052 1.321 . S
C2053 C2057 1.440 . S
C2054 C2037 1.567 . S
C2054 H2048 0.948 1_455 S
C2054 C2058 1.380 . S
C2055 C2036 1.429 . S
C2055 C2049 1.414 . S
C2055 C2056 1.545 . S
C2056 C2037 1.370 . S
C2056 C2050 1.351 . S
C2056 C2055 1.545 . S
C2057 C2041 1.427 1_455 S
C2057 C2053 1.440 . S
C2057 C2058 1.517 . S
C2058 C2042 1.368 . S
C2058 C2054 1.380 . S
C2058 C2057 1.517 . S
H2059 C2034 0.950 . S
H2060 C2036 0.950 . S
H2061 C2037 0.951 1_655 S
H2062 C2039 0.949 . S
H2063 C2041 0.958 . S
C2064 C2065 1.349 . S
C2064 C2066 1.327 . S
C2064 H2089 0.950 . S
C2065 C2064 1.349 . S
C2065 C2081 1.349 . S
C2066 C2064 1.327 . S
C2066 C2085 1.429 . S
C2066 H2090 0.950 . S
C2067 C2084 1.574 . S
C2067 C2086 1.368 . S
C2067 H2091 0.949 . S
H2068 C2072 0.949 . S
C2069 C2070 1.349 . S
C2069 C2071 1.327 . S
C2069 H2092 0.950 . S
C2070 C2069 1.349 . S
C2070 C2082 1.349 . S
C2071 C2069 1.327 . S
C2071 C2087 1.429 . S
C2071 H2093 0.950 . S
C2072 H2068 0.949 . S
C2072 C2080 1.574 . S
C2072 C2088 1.368 . S
H2073 C2081 0.950 . S
H2074 C2079 0.950 . S
H2075 C2080 0.949 . S
H2076 C2082 0.950 . S
H2077 C2083 0.950 . S
H2078 C2084 0.949 . S
C2079 H2074 0.950 . S
C2079 C2081 1.327 . S
C2079 C2085 1.429 . S
C2080 C2072 1.574 . S
C2080 H2075 0.949 . S
C2080 C2086 1.368 . S
C2081 C2065 1.349 . S
C2081 H2073 0.950 . S
C2081 C2079 1.327 . S
C2082 C2070 1.349 . S
C2082 H2076 0.950 . S
C2082 C2083 1.327 . S
C2083 H2077 0.950 . S
C2083 C2082 1.327 . S
C2083 C2087 1.429 . S
C2084 C2067 1.574 . S
C2084 H2078 0.949 . S
C2084 C2088 1.368 . S
C2085 C2066 1.429 . S
C2085 C2079 1.429 . S
C2085 C2086 1.523 . S
C2086 C2067 1.368 . S
C2086 C2080 1.368 . S
C2086 C2085 1.523 . S
C2087 C2071 1.429 . S
C2087 C2083 1.429 . S
C2087 C2088 1.523 . S
C2088 C2072 1.368 . S
C2088 C2084 1.368 . S
C2088 C2087 1.523 . S
H2089 C2064 0.950 . S
H2090 C2066 0.950 . S
H2091 C2067 0.949 . S
H2092 C2069 0.950 . S
H2093 C2071 0.950 . S
C2094 C2095 1.349 . S
C2094 C2096 1.327 . S
C2094 H2119 0.950 . S
C2095 C2094 1.349 . S
C2095 C2111 1.349 1_545 S
C2096 C2094 1.327 . S
C2096 C2115 1.442 . S
C2096 H2120 0.950 . S
C2097 C2114 1.574 . S
C2097 C2116 1.357 1_565 S
C2097 H2121 0.949 . S
H2098 C2102 0.949 . S
C2099 C2100 1.380 . S
C2099 C2101 1.327 . S
C2099 H2122 0.950 . S
C2100 C2099 1.380 . S
C2100 C2112 1.337 1_565 S
C2101 C2099 1.327 . S
C2101 C2117 1.431 . S
C2101 H2123 0.950 . S
C2102 H2098 0.949 . S
C2102 C2110 1.574 . S
C2102 C2118 1.368 . S
H2103 C2111 0.950 . S
H2104 C2109 0.950 . S
H2105 C2110 0.949 . S
H2106 C2112 0.950 . S
H2107 C2113 0.950 . S
H2108 C2114 0.949 . S
C2109 H2104 0.950 . S
C2109 C2111 1.327 . S
C2109 C2115 1.393 1_565 S
C2110 C2102 1.574 . S
C2110 H2105 0.949 . S
C2110 C2116 1.390 . S
C2111 C2095 1.349 1_565 S
C2111 H2103 0.950 . S
C2111 C2109 1.327 . S
C2112 C2100 1.337 1_545 S
C2112 H2106 0.950 . S
C2112 C2113 1.327 . S
C2113 H2107 0.950 . S
C2113 C2112 1.327 . S
C2113 C2117 1.423 1_545 S
C2114 C2097 1.574 . S
C2114 H2108 0.949 . S
C2114 C2118 1.370 1_565 S
C2115 C2096 1.442 . S
C2115 C2109 1.393 1_545 S
C2115 C2116 1.531 . S
C2116 C2097 1.357 1_545 S
C2116 C2110 1.390 . S
C2116 C2115 1.531 . S
C2117 C2101 1.431 . S
C2117 C2113 1.423 1_565 S
C2117 C2118 1.526 1_565 S
C2118 C2102 1.368 . S
C2118 C2114 1.370 1_545 S
C2118 C2117 1.526 1_545 S
H2119 C2094 0.950 . S
H2120 C2096 0.950 . S
H2121 C2097 0.949 . S
H2122 C2099 0.950 . S
H2123 C2101 0.950 . S
C2124 C2125 1.349 . S
C2124 C2126 1.327 . S
C2124 H2149 0.950 . S
C2125 C2124 1.349 . S
C2125 C2141 1.349 . S
C2126 C2124 1.327 . S
C2126 C2145 1.429 . S
C2126 H2150 0.950 . S
C2127 C2144 1.603 . S
C2127 C2146 1.368 . S
C2127 H2151 0.949 . S
H2128 C2132 0.949 . S
C2129 C2130 1.349 . S
C2129 C2131 1.327 . S
C2129 H2152 0.950 . S
C2130 C2129 1.349 . S
C2130 C2142 1.349 . S
C2131 C2129 1.327 . S
C2131 C2147 1.429 . S
C2131 H2153 0.950 . S
C2132 H2128 0.949 . S
C2132 C2140 1.574 . S
C2132 C2148 1.368 . S
H2133 C2141 0.950 . S
H2134 C2139 0.950 . S
H2135 C2140 0.949 . S
H2136 C2142 0.950 . S
H2137 C2143 0.950 . S
H2138 C2144 0.902 1_556 S
C2139 H2134 0.950 . S
C2139 C2141 1.327 . S
C2139 C2145 1.429 . S
C2140 C2132 1.574 . S
C2140 H2135 0.949 . S
C2140 C2146 1.368 . S
C2141 C2125 1.349 . S
C2141 H2133 0.950 . S
C2141 C2139 1.327 . S
C2142 C2130 1.349 . S
C2142 H2136 0.950 . S
C2142 C2143 1.327 1_556 S
C2143 H2137 0.950 . S
C2143 C2142 1.327 1_554 S
C2143 C2147 1.429 1_554 S
C2144 C2127 1.603 . S
C2144 H2138 0.902 1_554 S
C2144 C2148 1.393 . S
C2145 C2126 1.429 . S
C2145 C2139 1.429 . S
C2145 C2146 1.523 . S
C2146 C2127 1.368 . S
C2146 C2140 1.368 . S
C2146 C2145 1.523 . S
C2147 C2131 1.429 . S
C2147 C2143 1.429 1_556 S
C2147 C2148 1.523 1_556 S
C2148 C2132 1.368 . S
C2148 C2144 1.393 . S
C2148 C2147 1.523 1_554 S
H2149 C2124 0.950 . S
H2150 C2126 0.950 . S
H2151 C2127 0.949 . S
H2152 C2129 0.950 . S
H2153 C2131 0.950 . S
C2154 C2155 1.349 . S
C2154 C2156 1.327 . S
C2154 H2179 0.950 . S
C2155 C2154 1.349 . S
C2155 C2171 1.349 . S
C2156 C2154 1.327 . S
C2156 C2175 1.429 . S
C2156 H2180 0.950 . S
C2157 C2174 1.574 . S
C2157 C2176 1.368 . S
C2157 H2181 0.949 . S
H2158 C2162 0.949 1_556 S
C2159 C2160 1.349 . S
C2159 C2161 1.327 . S
C2159 H2182 0.950 . S
C2160 C2159 1.349 . S
C2160 C2172 1.349 . S
C2161 C2159 1.327 . S
C2161 C2177 1.429 . S
C2161 H2183 0.950 1_556 S
C2162 H2158 0.949 1_554 S
C2162 C2170 1.574 . S
C2162 C2178 1.368 . S
H2163 C2171 0.950 . S
H2164 C2169 0.950 . S
H2165 C2170 0.949 . S
H2166 C2172 0.950 . S
H2167 C2173 0.950 . S
H2168 C2174 0.949 . S
C2169 H2164 0.950 . S
C2169 C2171 1.327 . S
C2169 C2175 1.429 . S
C2170 C2162 1.574 . S
C2170 H2165 0.949 . S
C2170 C2176 1.368 . S
C2171 C2155 1.349 . S
C2171 H2163 0.950 . S
C2171 C2169 1.327 . S
C2172 C2160 1.349 . S
C2172 H2166 0.950 . S
C2172 C2173 1.327 . S
C2173 H2167 0.950 . S
C2173 C2172 1.327 . S
C2173 C2177 1.429 . S
C2174 C2157 1.574 . S
C2174 H2168 0.949 . S
C2174 C2178 1.368 . S
C2175 C2156 1.429 . S
C2175 C2169 1.429 . S
C2175 C2176 1.523 . S
C2176 C2157 1.368 . S
C2176 C2170 1.368 . S
C2176 C2175 1.523 . S
C2177 C2161 1.429 . S
C2177 C2173 1.429 . S
C2177 C2178 1.523 1_556 S
C2178 C2162 1.368 . S
C2178 C2174 1.368 . S
C2178 C2177 1.523 1_554 S
H2179 C2154 0.950 . S
H2180 C2156 0.950 . S
H2181 C2157 0.949 . S
H2182 C2159 0.950 . S
H2183 C2161 0.950 1_554 S
C2184 C2185 1.349 . S
C2184 C2186 1.327 . S
C2184 H2209 0.950 . S
C2185 C2184 1.349 . S
C2185 C2201 1.349 . S
C2186 C2184 1.327 . S
C2186 C2205 1.429 . S
C2186 H2210 0.950 . S
C2187 C2204 1.574 . S
C2187 C2206 1.368 . S
C2187 H2211 0.949 . S
H2188 C2192 0.949 . S
C2189 C2190 1.349 . S
C2189 C2191 1.327 . S
C2189 H2212 0.950 . S
C2190 C2189 1.349 . S
C2190 C2202 1.349 . S
C2191 C2189 1.327 . S
C2191 C2207 1.429 . S
C2191 H2213 0.950 . S
C2192 H2188 0.949 . S
C2192 C2200 1.574 . S
C2192 C2208 1.368 . S
H2193 C2201 0.950 . S
H2194 C2199 0.950 . S
H2195 C2200 0.949 . S
H2196 C2202 0.950 . S
H2197 C2203 1.006 . S
H2198 C2204 0.949 1_556 S
C2199 H2194 0.950 . S
C2199 C2201 1.327 . S
C2199 C2205 1.429 . S
C2200 C2192 1.574 . S
C2200 H2195 0.949 . S
C2200 C2206 1.368 . S
C2201 C2185 1.349 . S
C2201 H2193 0.950 . S
C2201 C2199 1.327 . S
C2202 C2190 1.349 . S
C2202 H2196 0.950 . S
C2202 C2203 1.284 1_556 S
C2203 H2197 1.006 . S
C2203 C2202 1.284 1_554 S
C2203 C2207 1.421 1_554 S
C2204 C2187 1.574 . S
C2204 H2198 0.949 1_554 S
C2204 C2208 1.368 . S
C2205 C2186 1.429 . S
C2205 C2199 1.429 . S
C2205 C2206 1.523 . S
C2206 C2187 1.368 . S
C2206 C2200 1.368 . S
C2206 C2205 1.523 . S
C2207 C2191 1.429 . S
C2207 C2203 1.421 1_556 S
C2207 C2208 1.523 1_556 S
C2208 C2192 1.368 . S
C2208 C2204 1.368 . S
C2208 C2207 1.523 1_554 S
H2209 C2184 0.950 . S
H2210 C2186 0.950 . S
H2211 C2187 0.949 . S
H2212 C2189 0.950 . S
H2213 C2191 0.950 . S
C2214 C2215 1.349 . S
C2214 C2216 1.327 . S
C2214 H2239 0.950 . S
C2215 C2214 1.349 . S
C2215 C2231 1.349 . S
C2216 C2214 1.327 . S
C2216 C2235 1.429 . S
C2216 H2240 0.950 . S
C2217 C2234 1.574 . S
C2217 C2236 1.368 . S
C2217 H2241 0.949 . S
H2218 C2222 0.949 . S
C2219 C2220 1.349 . S
C2219 C2221 1.327 . S
C2219 H2242 0.950 . S
C2220 C2219 1.349 . S
C2220 C2232 1.349 . S
C2221 C2219 1.327 . S
C2221 C2237 1.429 . S
C2221 H2243 0.950 . S
C2222 H2218 0.949 . S
C2222 C2230 1.574 . S
C2222 C2238 1.368 . S
H2223 C2231 0.950 . S
H2224 C2229 0.950 . S
H2225 C2230 0.949 . S
H2226 C2232 0.950 . S
H2227 C2233 0.950 . S
H2228 C2234 0.949 . S
C2229 H2224 0.950 . S
C2229 C2231 1.327 . S
C2229 C2235 1.429 . S
C2230 C2222 1.574 . S
C2230 H2225 0.949 . S
C2230 C2236 1.368 . S
C2231 C2215 1.349 . S
C2231 H2223 0.950 . S
C2231 C2229 1.327 . S
C2232 C2220 1.349 . S
C2232 H2226 0.950 . S
C2232 C2233 1.327 . S
C2233 H2227 0.950 . S
C2233 C2232 1.327 . S
C2233 C2237 1.429 . S
C2234 C2217 1.574 . S
C2234 H2228 0.949 . S
C2234 C2238 1.368 . S
C2235 C2216 1.429 . S
C2235 C2229 1.429 . S
C2235 C2236 1.523 . S
C2236 C2217 1.368 . S
C2236 C2230 1.368 . S
C2236 C2235 1.523 . S
C2237 C2221 1.429 . S
C2237 C2233 1.429 . S
C2237 C2238 1.523 1_554 S
C2238 C2222 1.368 . S
C2238 C2234 1.368 . S
C2238 C2237 1.523 1_556 S
H2239 C2214 0.950 . S
H2240 C2216 0.950 . S
H2241 C2217 0.949 . S
H2242 C2219 0.950 . S
H2243 C2221 0.950 . S
C2244 C2245 1.349 . S
C2244 C2246 1.327 . S
C2244 H2269 0.950 . S
C2245 C2244 1.349 . S
C2245 C2261 1.349 . S
C2246 C2244 1.327 . S
C2246 C2265 1.429 . S
C2246 H2270 0.950 . S
C2247 C2264 1.574 . S
C2247 C2266 1.368 . S
C2247 H2271 0.949 . S
H2248 C2252 0.949 . S
C2249 C2250 1.349 . S
C2249 C2251 1.327 . S
C2249 H2272 0.950 . S
C2250 C2249 1.349 . S
C2250 C2262 1.349 . S
C2251 C2249 1.327 . S
C2251 C2267 1.429 . S
C2251 H2273 0.950 . S
C2252 H2248 0.949 . S
C2252 C2260 1.574 . S
C2252 C2268 1.368 . S
H2253 C2261 0.950 . S
H2254 C2259 0.895 1_556 S
H2255 C2260 0.949 1_554 S
H2256 C2262 0.950 . S
H2257 C2263 0.950 . S
H2258 C2264 0.949 . S
C2259 H2254 0.895 1_554 S
C2259 C2261 1.374 . S
C2259 C2265 1.440 . S
C2260 C2252 1.574 . S
C2260 H2255 0.949 1_556 S
C2260 C2266 1.368 . S
C2261 C2245 1.349 . S
C2261 H2253 0.950 . S
C2261 C2259 1.374 . S
C2262 C2250 1.349 . S
C2262 H2256 0.950 . S
C2262 C2263 1.327 . S
C2263 H2257 0.950 . S
C2263 C2262 1.327 . S
C2263 C2267 1.429 . S
C2264 C2247 1.574 . S
C2264 H2258 0.949 . S
C2264 C2268 1.368 . S
C2265 C2246 1.429 . S
C2265 C2259 1.440 . S
C2265 C2266 1.523 1_554 S
C2266 C2247 1.368 . S
C2266 C2260 1.368 . S
C2266 C2265 1.523 1_556 S
C2267 C2251 1.429 . S
C2267 C2263 1.429 . S
C2267 C2268 1.523 . S
C2268 C2252 1.368 . S
C2268 C2264 1.368 . S
C2268 C2267 1.523 . S
H2269 C2244 0.950 . S
H2270 C2246 0.950 . S
H2271 C2247 0.949 . S
H2272 C2249 0.950 . S
H2273 C2251 0.950 . S
C2274 C2275 1.349 . S
C2274 C2276 1.327 . S
C2274 H2299 0.950 . S
C2275 C2274 1.349 . S
C2275 C2291 1.349 . S
C2276 C2274 1.327 . S
C2276 C2295 1.429 . S
C2276 H2300 0.950 . S
C2277 C2294 1.574 . S
C2277 C2296 1.368 . S
C2277 H2301 0.949 . S
H2278 C2282 0.949 . S
C2279 C2280 1.349 . S
C2279 C2281 1.327 . S
C2279 H2302 0.950 . S
C2280 C2279 1.349 . S
C2280 C2292 1.349 . S
C2281 C2279 1.327 . S
C2281 C2297 1.429 . S
C2281 H2303 0.950 . S
C2282 H2278 0.949 . S
C2282 C2290 1.574 . S
C2282 C2298 1.368 . S
H2283 C2291 0.950 . S
H2284 C2289 0.950 . S
H2285 C2290 0.949 . S
H2286 C2292 0.950 . S
H2287 C2293 0.950 . S
H2288 C2294 0.949 1_554 S
C2289 H2284 0.950 . S
C2289 C2291 1.327 . S
C2289 C2295 1.429 . S
C2290 C2282 1.574 . S
C2290 H2285 0.949 . S
C2290 C2296 1.368 . S
C2291 C2275 1.349 . S
C2291 H2283 0.950 . S
C2291 C2289 1.327 . S
C2292 C2280 1.349 . S
C2292 H2286 0.950 . S
C2292 C2293 1.327 1_554 S
C2293 H2287 0.950 . S
C2293 C2292 1.327 1_556 S
C2293 C2297 1.429 1_556 S
C2294 C2277 1.574 . S
C2294 H2288 0.949 1_556 S
C2294 C2298 1.368 . S
C2295 C2276 1.429 . S
C2295 C2289 1.429 . S
C2295 C2296 1.523 . S
C2296 C2277 1.368 . S
C2296 C2290 1.368 . S
C2296 C2295 1.523 . S
C2297 C2281 1.429 . S
C2297 C2293 1.429 1_554 S
C2297 C2298 1.523 1_554 S
C2298 C2282 1.368 . S
C2298 C2294 1.368 . S
C2298 C2297 1.523 1_556 S
H2299 C2274 0.950 . S
H2300 C2276 0.950 . S
H2301 C2277 0.949 . S
H2302 C2279 0.950 . S
H2303 C2281 0.950 . S
C2304 C2305 1.349 . S
C2304 C2306 1.327 . S
C2304 H2329 0.950 . S
C2305 C2304 1.349 . S
C2305 C2321 1.349 . S
C2306 C2304 1.327 . S
C2306 C2325 1.429 . S
C2306 H2330 0.950 . S
C2307 C2324 1.574 . S
C2307 C2326 1.368 . S
C2307 H2331 0.949 . S
H2308 C2312 0.949 . S
C2309 C2310 1.349 . S
C2309 C2311 1.327 . S
C2309 H2332 0.950 . S
C2310 C2309 1.349 . S
C2310 C2322 1.349 . S
C2311 C2309 1.327 . S
C2311 C2327 1.429 . S
C2311 H2333 0.950 . S
C2312 H2308 0.949 . S
C2312 C2320 1.574 . S
C2312 C2328 1.368 . S
H2313 C2321 0.950 . S
H2314 C2319 0.950 . S
H2315 C2320 0.949 . S
H2316 C2322 0.950 . S
H2317 C2323 0.950 . S
H2318 C2324 0.949 . S
C2319 H2314 0.950 . S
C2319 C2321 1.327 . S
C2319 C2325 1.429 . S
C2320 C2312 1.574 . S
C2320 H2315 0.949 . S
C2320 C2326 1.368 . S
C2321 C2305 1.349 . S
C2321 H2313 0.950 . S
C2321 C2319 1.327 . S
C2322 C2310 1.349 . S
C2322 H2316 0.950 . S
C2322 C2323 1.327 . S
C2323 H2317 0.950 . S
C2323 C2322 1.327 . S
C2323 C2327 1.429 . S
C2324 C2307 1.574 . S
C2324 H2318 0.949 . S
C2324 C2328 1.368 . S
C2325 C2306 1.429 . S
C2325 C2319 1.429 . S
C2325 C2326 1.523 . S
C2326 C2307 1.368 . S
C2326 C2320 1.368 . S
C2326 C2325 1.523 . S
C2327 C2311 1.429 . S
C2327 C2323 1.429 . S
C2327 C2328 1.523 . S
C2328 C2312 1.368 . S
C2328 C2324 1.368 . S
C2328 C2327 1.523 . S
H2329 C2304 0.950 . S
H2330 C2306 0.950 . S
H2331 C2307 0.949 . S
H2332 C2309 0.950 . S
H2333 C2311 0.950 . S
C2334 C2335 1.349 . S
C2334 C2336 1.327 . S
C2334 H2359 0.950 . S
C2335 C2334 1.349 . S
C2335 C2351 1.349 . S
C2336 C2334 1.327 . S
C2336 C2355 1.429 . S
C2336 H2360 0.950 . S
C2337 C2354 1.574 . S
C2337 C2356 1.368 . S
C2337 H2361 0.949 . S
H2338 C2342 0.949 . S
C2339 C2340 1.349 . S
C2339 C2341 1.327 . S
C2339 H2362 0.950 . S
C2340 C2339 1.349 . S
C2340 C2352 1.349 . S
C2341 C2339 1.327 . S
C2341 C2357 1.429 . S
C2341 H2363 0.950 . S
C2342 H2338 0.949 . S
C2342 C2350 1.574 . S
C2342 C2358 1.368 . S
H2343 C2351 0.950 . S
H2344 C2349 0.950 . S
H2345 C2350 0.949 . S
H2346 C2352 0.950 . S
H2347 C2353 0.950 . S
H2348 C2354 0.949 . S
C2349 H2344 0.950 . S
C2349 C2351 1.327 . S
C2349 C2355 1.429 . S
C2350 C2342 1.574 . S
C2350 H2345 0.949 . S
C2350 C2356 1.368 . S
C2351 C2335 1.349 . S
C2351 H2343 0.950 . S
C2351 C2349 1.327 . S
C2352 C2340 1.349 . S
C2352 H2346 0.950 . S
C2352 C2353 1.327 . S
C2353 H2347 0.950 . S
C2353 C2352 1.327 . S
C2353 C2357 1.429 . S
C2354 C2337 1.574 . S
C2354 H2348 0.949 . S
C2354 C2358 1.368 . S
C2355 C2336 1.429 . S
C2355 C2349 1.429 . S
C2355 C2356 1.523 . S
C2356 C2337 1.368 . S
C2356 C2350 1.368 . S
C2356 C2355 1.523 . S
C2357 C2341 1.429 . S
C2357 C2353 1.429 . S
C2357 C2358 1.523 . S
C2358 C2342 1.368 . S
C2358 C2354 1.368 . S
C2358 C2357 1.523 . S
H2359 C2334 0.950 . S
H2360 C2336 0.950 . S
H2361 C2337 0.949 . S
H2362 C2339 0.950 . S
H2363 C2341 0.950 . S
C2364 C2365 1.349 . S
C2364 C2366 1.327 . S
C2364 H2389 0.950 . S
C2365 C2364 1.349 . S
C2365 C2381 1.349 . S
C2366 C2364 1.327 . S
C2366 C2385 1.429 . S
C2366 H2390 0.950 . S
C2367 C2384 1.574 . S
C2367 C2386 1.368 . S
C2367 H2391 0.949 . S
H2368 C2372 0.949 . S
C2369 C2370 1.349 . S
C2369 C2371 1.327 . S
C2369 H2392 0.950 . S
C2370 C2369 1.349 . S
C2370 C2382 1.349 . S
C2371 C2369 1.327 . S
C2371 C2387 1.429 . S
C2371 H2393 0.950 . S
C2372 H2368 0.949 . S
C2372 C2380 1.574 . S
C2372 C2388 1.368 . S
H2373 C2381 0.950 . S
H2374 C2379 0.950 . S
H2375 C2380 0.949 . S
H2376 C2382 0.950 . S
H2377 C2383 0.950 . S
H2378 C2384 0.949 . S
C2379 H2374 0.950 . S
C2379 C2381 1.327 . S
C2379 C2385 1.429 . S
C2380 C2372 1.574 . S
C2380 H2375 0.949 . S
C2380 C2386 1.368 . S
C2381 C2365 1.349 . S
C2381 H2373 0.950 . S
C2381 C2379 1.327 . S
C2382 C2370 1.349 . S
C2382 H2376 0.950 . S
C2382 C2383 1.327 . S
C2383 H2377 0.950 . S
C2383 C2382 1.327 . S
C2383 C2387 1.429 . S
C2384 C2367 1.574 . S
C2384 H2378 0.949 . S
C2384 C2388 1.368 . S
C2385 C2366 1.429 . S
C2385 C2379 1.429 . S
C2385 C2386 1.523 . S
C2386 C2367 1.368 . S
C2386 C2380 1.368 . S
C2386 C2385 1.523 . S
C2387 C2371 1.429 . S
C2387 C2383 1.429 . S
C2387 C2388 1.523 . S
C2388 C2372 1.368 . S
C2388 C2384 1.368 . S
C2388 C2387 1.523 . S
H2389 C2364 0.950 . S
H2390 C2366 0.950 . S
H2391 C2367 0.949 . S
H2392 C2369 0.950 . S
H2393 C2371 0.950 . S
C2394 C2395 1.349 . S
C2394 C2396 1.327 . S
C2394 H2419 0.950 . S
C2395 C2394 1.349 . S
C2395 C2411 1.349 . S
C2396 C2394 1.327 . S
C2396 C2415 1.429 . S
C2396 H2420 0.950 . S
C2397 C2414 1.574 . S
C2397 C2416 1.368 . S
C2397 H2421 0.949 . S
H2398 C2402 0.949 . S
C2399 C2400 1.349 . S
C2399 C2401 1.327 . S
C2399 H2422 0.950 . S
C2400 C2399 1.349 . S
C2400 C2412 1.349 . S
C2401 C2399 1.327 . S
C2401 C2417 1.429 . S
C2401 H2423 0.950 . S
C2402 H2398 0.949 . S
C2402 C2410 1.574 . S
C2402 C2418 1.368 . S
H2403 C2411 0.950 . S
H2404 C2409 0.950 . S
H2405 C2410 0.949 . S
H2406 C2412 0.950 . S
H2407 C2413 0.950 . S
H2408 C2414 0.949 . S
C2409 H2404 0.950 . S
C2409 C2411 1.327 . S
C2409 C2415 1.429 . S
C2410 C2402 1.574 . S
C2410 H2405 0.949 . S
C2410 C2416 1.368 . S
C2411 C2395 1.349 . S
C2411 H2403 0.950 . S
C2411 C2409 1.327 . S
C2412 C2400 1.349 . S
C2412 H2406 0.950 . S
C2412 C2413 1.327 . S
C2413 H2407 0.950 . S
C2413 C2412 1.327 . S
C2413 C2417 1.429 . S
C2414 C2397 1.574 . S
C2414 H2408 0.949 . S
C2414 C2418 1.368 . S
C2415 C2396 1.429 . S
C2415 C2409 1.429 . S
C2415 C2416 1.523 . S
C2416 C2397 1.368 . S
C2416 C2410 1.368 . S
C2416 C2415 1.523 . S
C2417 C2401 1.429 . S
C2417 C2413 1.429 . S
C2417 C2418 1.523 . S
C2418 C2402 1.368 . S
C2418 C2414 1.368 . S
C2418 C2417 1.523 . S
H2419 C2394 0.950 . S
H2420 C2396 0.950 . S
H2421 C2397 0.949 . S
H2422 C2399 0.950 . S
H2423 C2401 0.950 . S
C2424 C2425 1.349 . S
C2424 C2426 1.327 . S
C2424 H2449 0.950 . S
C2425 C2424 1.349 . S
C2425 C2441 1.349 . S
C2426 C2424 1.327 . S
C2426 C2445 1.429 . S
C2426 H2450 0.950 . S
C2427 C2444 1.574 . S
C2427 C2446 1.368 . S
C2427 H2451 0.949 . S
H2428 C2432 0.949 . S
C2429 C2430 1.335 1_545 S
C2429 C2431 1.327 . S
C2429 H2452 0.950 . S
C2430 C2429 1.335 1_565 S
C2430 C2442 1.375 . S
C2431 C2429 1.327 . S
C2431 C2447 1.429 . S
C2431 H2453 0.950 . S
C2432 H2428 0.949 . S
C2432 C2440 1.574 . S
C2432 C2448 1.368 . S
H2433 C2441 0.950 . S
H2434 C2439 0.950 . S
H2435 C2440 0.949 . S
H2436 C2442 0.950 . S
H2437 C2443 0.952 1_565 S
H2438 C2444 0.949 . S
C2439 H2434 0.950 . S
C2439 C2441 1.327 . S
C2439 C2445 1.429 . S
C2440 C2432 1.574 . S
C2440 H2435 0.949 . S
C2440 C2446 1.368 . S
C2441 C2425 1.349 . S
C2441 H2433 0.950 . S
C2441 C2439 1.327 . S
C2442 C2430 1.375 . S
C2442 H2436 0.950 . S
C2442 C2443 1.326 1_565 S
C2443 H2437 0.952 1_545 S
C2443 C2442 1.326 1_545 S
C2443 C2447 1.427 . S
C2444 C2427 1.574 . S
C2444 H2438 0.949 . S
C2444 C2448 1.368 . S
C2445 C2426 1.429 . S
C2445 C2439 1.429 . S
C2445 C2446 1.523 . S
C2446 C2427 1.368 . S
C2446 C2440 1.368 . S
C2446 C2445 1.523 . S
C2447 C2431 1.429 . S
C2447 C2443 1.427 . S
C2447 C2448 1.523 . S
C2448 C2432 1.368 . S
C2448 C2444 1.368 . S
C2448 C2447 1.523 . S
H2449 C2424 0.950 . S
H2450 C2426 0.950 . S
H2451 C2427 0.949 . S
H2452 C2429 0.950 . S
H2453 C2431 0.950 . S
C2454 C2455 1.349 . S
C2454 C2456 1.327 . S
C2454 H2479 0.950 . S
C2455 C2454 1.349 . S
C2455 C2471 1.349 . S
C2456 C2454 1.327 . S
C2456 C2475 1.429 . S
C2456 H2480 0.950 . S
C2457 C2474 1.574 . S
C2457 C2476 1.368 . S
C2457 H2481 0.949 . S
H2458 C2462 0.949 . S
C2459 C2460 1.348 1_455 S
C2459 C2461 1.327 . S
C2459 H2482 0.950 . S
C2460 C2459 1.348 1_655 S
C2460 C2472 1.351 . S
C2461 C2459 1.327 . S
C2461 C2477 1.429 1_455 S
C2461 H2483 0.950 . S
C2462 H2458 0.949 . S
C2462 C2470 1.574 . S
C2462 C2478 1.368 . S
H2463 C2471 0.950 . S
H2464 C2469 0.950 . S
H2465 C2470 0.949 . S
H2466 C2472 0.950 . S
H2467 C2473 0.950 . S
H2468 C2474 0.936 1_455 S
C2469 H2464 0.950 . S
C2469 C2471 1.327 . S
C2469 C2475 1.429 . S
C2470 C2462 1.574 . S
C2470 H2465 0.949 . S
C2470 C2476 1.368 . S
C2471 C2455 1.349 . S
C2471 H2463 0.950 . S
C2471 C2469 1.327 . S
C2472 C2460 1.351 . S
C2472 H2466 0.950 . S
C2472 C2473 1.327 . S
C2473 H2467 0.950 . S
C2473 C2472 1.327 . S
C2473 C2477 1.429 . S
C2474 C2457 1.574 . S
C2474 H2468 0.936 1_655 S
C2474 C2478 1.368 . S
C2475 C2456 1.429 . S
C2475 C2469 1.429 . S
C2475 C2476 1.523 . S
C2476 C2457 1.368 . S
C2476 C2470 1.368 . S
C2476 C2475 1.523 . S
C2477 C2461 1.429 1_655 S
C2477 C2473 1.429 . S
C2477 C2478 1.523 . S
C2478 C2462 1.368 . S
C2478 C2474 1.368 . S
C2478 C2477 1.523 . S
H2479 C2454 0.950 . S
H2480 C2456 0.950 . S
H2481 C2457 0.949 . S
H2482 C2459 0.950 . S
H2483 C2461 0.950 . S
C2484 C2485 1.349 . S
C2484 C2486 1.327 . S
C2484 H2509 0.950 . S
C2485 C2484 1.349 . S
C2485 C2501 1.349 . S
C2486 C2484 1.327 . S
C2486 C2505 1.429 . S
C2486 H2510 0.950 . S
C2487 C2504 1.574 . S
C2487 C2506 1.368 . S
C2487 H2511 0.949 . S
H2488 C2492 0.949 . S
C2489 C2490 1.349 . S
C2489 C2491 1.327 . S
C2489 H2512 0.950 . S
C2490 C2489 1.349 . S
C2490 C2502 1.349 . S
C2491 C2489 1.327 . S
C2491 C2507 1.429 . S
C2491 H2513 0.950 . S
C2492 H2488 0.949 . S
C2492 C2500 1.574 . S
C2492 C2508 1.368 . S
H2493 C2501 0.950 . S
H2494 C2499 0.950 . S
H2495 C2500 0.949 . S
H2496 C2502 0.950 . S
H2497 C2503 0.950 . S
H2498 C2504 0.949 . S
C2499 H2494 0.950 . S
C2499 C2501 1.327 . S
C2499 C2505 1.429 . S
C2500 C2492 1.574 . S
C2500 H2495 0.949 . S
C2500 C2506 1.368 . S
C2501 C2485 1.349 . S
C2501 H2493 0.950 . S
C2501 C2499 1.327 . S
C2502 C2490 1.349 . S
C2502 H2496 0.950 . S
C2502 C2503 1.327 . S
C2503 H2497 0.950 . S
C2503 C2502 1.327 . S
C2503 C2507 1.429 . S
C2504 C2487 1.574 . S
C2504 H2498 0.949 . S
C2504 C2508 1.368 . S
C2505 C2486 1.429 . S
C2505 C2499 1.429 . S
C2505 C2506 1.523 . S
C2506 C2487 1.368 . S
C2506 C2500 1.368 . S
C2506 C2505 1.523 . S
C2507 C2491 1.429 . S
C2507 C2503 1.429 . S
C2507 C2508 1.523 . S
C2508 C2492 1.368 . S
C2508 C2504 1.368 . S
C2508 C2507 1.523 . S
H2509 C2484 0.950 . S
H2510 C2486 0.950 . S
H2511 C2487 0.949 . S
H2512 C2489 0.950 . S
H2513 C2491 0.950 . S
C2514 C2515 1.350 1_565 S
C2514 C2516 1.327 . S
C2514 H2539 0.950 . S
C2515 C2514 1.350 1_545 S
C2515 C2531 1.347 1_545 S
C2516 C2514 1.327 . S
C2516 C2535 1.429 . S
C2516 H2540 0.950 . S
C2517 C2534 1.574 . S
C2517 C2536 1.368 . S
C2517 H2541 0.949 . S
H2518 C2522 0.949 . S
C2519 C2520 1.349 . S
C2519 C2521 1.327 . S
C2519 H2542 0.950 . S
C2520 C2519 1.349 . S
C2520 C2532 1.349 . S
C2521 C2519 1.327 . S
C2521 C2537 1.429 . S
C2521 H2543 0.950 . S
C2522 H2518 0.949 . S
C2522 C2530 1.574 . S
C2522 C2538 1.368 . S
H2523 C2531 0.945 1_545 S
H2524 C2529 0.950 . S
H2525 C2530 0.949 . S
H2526 C2532 0.950 . S
H2527 C2533 0.950 . S
H2528 C2534 0.949 . S
C2529 H2524 0.950 . S
C2529 C2531 1.327 . S
C2529 C2535 1.429 . S
C2530 C2522 1.574 . S
C2530 H2525 0.949 . S
C2530 C2536 1.368 . S
C2531 C2515 1.347 1_565 S
C2531 H2523 0.945 1_565 S
C2531 C2529 1.327 . S
C2532 C2520 1.349 . S
C2532 H2526 0.950 . S
C2532 C2533 1.327 . S
C2533 H2527 0.950 . S
C2533 C2532 1.327 . S
C2533 C2537 1.429 . S
C2534 C2517 1.574 . S
C2534 H2528 0.949 . S
C2534 C2538 1.368 . S
C2535 C2516 1.429 . S
C2535 C2529 1.429 . S
C2535 C2536 1.523 . S
C2536 C2517 1.368 . S
C2536 C2530 1.368 . S
C2536 C2535 1.523 . S
C2537 C2521 1.429 . S
C2537 C2533 1.429 . S
C2537 C2538 1.523 . S
C2538 C2522 1.368 . S
C2538 C2534 1.368 . S
C2538 C2537 1.523 . S
H2539 C2514 0.950 . S
H2540 C2516 0.950 . S
H2541 C2517 0.949 . S
H2542 C2519 0.950 . S
H2543 C2521 0.950 . S
C2544 C2545 1.349 . S
C2544 C2546 1.327 . S
C2544 H2569 0.950 . S
C2545 C2544 1.349 . S
C2545 C2561 1.349 . S
C2546 C2544 1.327 . S
C2546 C2565 1.429 . S
C2546 H2570 0.950 . S
C2547 C2564 1.574 . S
C2547 C2566 1.368 1_655 S
C2547 H2571 0.949 . S
H2548 C2552 0.949 . S
C2549 C2550 1.349 . S
C2549 C2551 1.327 . S
C2549 H2572 0.950 . S
C2550 C2549 1.349 . S
C2550 C2562 1.349 1_655 S
C2551 C2549 1.327 . S
C2551 C2567 1.429 1_655 S
C2551 H2573 0.950 . S
C2552 H2548 0.949 . S
C2552 C2560 1.574 . S
C2552 C2568 1.368 . S
H2553 C2561 0.950 1_655 S
H2554 C2559 0.950 1_655 S
H2555 C2560 0.949 . S
H2556 C2562 0.950 . S
H2557 C2563 0.950 . S
H2558 C2564 0.949 . S
C2559 H2554 0.950 1_455 S
C2559 C2561 1.327 . S
C2559 C2565 1.429 . S
C2560 C2552 1.574 . S
C2560 H2555 0.949 . S
C2560 C2566 1.368 . S
C2561 C2545 1.349 . S
C2561 H2553 0.950 1_455 S
C2561 C2559 1.327 . S
C2562 C2550 1.349 1_455 S
C2562 H2556 0.950 . S
C2562 C2563 1.327 . S
C2563 H2557 0.950 . S
C2563 C2562 1.327 . S
C2563 C2567 1.429 . S
C2564 C2547 1.574 . S
C2564 H2558 0.949 . S
C2564 C2568 1.368 1_655 S
C2565 C2546 1.429 . S
C2565 C2559 1.429 . S
C2565 C2566 1.523 . S
C2566 C2547 1.368 1_455 S
C2566 C2560 1.368 . S
C2566 C2565 1.523 . S
C2567 C2551 1.429 1_455 S
C2567 C2563 1.429 . S
C2567 C2568 1.523 . S
C2568 C2552 1.368 . S
C2568 C2564 1.368 1_455 S
C2568 C2567 1.523 . S
H2569 C2544 0.950 . S
H2570 C2546 0.950 . S
H2571 C2547 0.949 . S
H2572 C2549 0.950 . S
H2573 C2551 0.950 . S
C2574 C2575 1.349 . S
C2574 C2576 1.327 . S
C2574 H2599 0.950 . S
C2575 C2574 1.349 . S
C2575 C2591 1.349 . S
C2576 C2574 1.327 . S
C2576 C2595 1.429 . S
C2576 H2600 0.950 . S
C2577 C2594 1.574 . S
C2577 C2596 1.368 . S
C2577 H2601 0.949 . S
H2578 C2582 0.949 . S
C2579 C2580 1.349 . S
C2579 C2581 1.327 . S
C2579 H2602 0.950 . S
C2580 C2579 1.349 . S
C2580 C2592 1.349 . S
C2581 C2579 1.327 . S
C2581 C2597 1.429 . S
C2581 H2603 0.950 . S
C2582 H2578 0.949 . S
C2582 C2590 1.574 . S
C2582 C2598 1.368 . S
H2583 C2591 0.950 . S
H2584 C2589 0.950 . S
H2585 C2590 0.949 . S
H2586 C2592 0.950 . S
H2587 C2593 0.950 . S
H2588 C2594 0.949 . S
C2589 H2584 0.950 . S
C2589 C2591 1.327 . S
C2589 C2595 1.429 . S
C2590 C2582 1.574 . S
C2590 H2585 0.949 . S
C2590 C2596 1.368 . S
C2591 C2575 1.349 . S
C2591 H2583 0.950 . S
C2591 C2589 1.327 . S
C2592 C2580 1.349 . S
C2592 H2586 0.950 . S
C2592 C2593 1.327 . S
C2593 H2587 0.950 . S
C2593 C2592 1.327 . S
C2593 C2597 1.429 . S
C2594 C2577 1.574 . S
C2594 H2588 0.949 . S
C2594 C2598 1.368 . S
C2595 C2576 1.429 . S
C2595 C2589 1.429 . S
C2595 C2596 1.523 . S
C2596 C2577 1.368 . S
C2596 C2590 1.368 . S
C2596 C2595 1.523 . S
C2597 C2581 1.429 . S
C2597 C2593 1.429 . S
C2597 C2598 1.523 . S
C2598 C2582 1.368 . S
C2598 C2594 1.368 . S
C2598 C2597 1.523 . S
H2599 C2574 0.950 . S
H2600 C2576 0.950 . S
H2601 C2577 0.949 . S
H2602 C2579 0.950 . S
H2603 C2581 0.950 . S
C2604 C2605 1.349 . S
C2604 C2606 1.327 . S
C2604 H2629 0.950 . S
C2605 C2604 1.349 . S
C2605 C2621 1.349 . S
C2606 C2604 1.327 . S
C2606 C2625 1.429 . S
C2606 H2630 0.950 . S
C2607 C2624 1.574 . S
C2607 C2626 1.368 . S
C2607 H2631 0.949 . S
H2608 C2612 0.949 . S
C2609 C2610 1.349 . S
C2609 C2611 1.327 . S
C2609 H2632 0.950 . S
C2610 C2609 1.349 . S
C2610 C2622 1.349 . S
C2611 C2609 1.327 . S
C2611 C2627 1.429 . S
C2611 H2633 0.950 . S
C2612 H2608 0.949 . S
C2612 C2620 1.574 . S
C2612 C2628 1.368 . S
H2613 C2621 0.950 . S
H2614 C2619 0.950 . S
H2615 C2620 0.949 . S
H2616 C2622 0.950 . S
H2617 C2623 0.950 . S
H2618 C2624 0.949 . S
C2619 H2614 0.950 . S
C2619 C2621 1.327 . S
C2619 C2625 1.429 . S
C2620 C2612 1.574 . S
C2620 H2615 0.949 . S
C2620 C2626 1.368 . S
C2621 C2605 1.349 . S
C2621 H2613 0.950 . S
C2621 C2619 1.327 . S
C2622 C2610 1.349 . S
C2622 H2616 0.950 . S
C2622 C2623 1.327 . S
C2623 H2617 0.950 . S
C2623 C2622 1.327 . S
C2623 C2627 1.429 . S
C2624 C2607 1.574 . S
C2624 H2618 0.949 . S
C2624 C2628 1.368 . S
C2625 C2606 1.429 . S
C2625 C2619 1.429 . S
C2625 C2626 1.523 . S
C2626 C2607 1.368 . S
C2626 C2620 1.368 . S
C2626 C2625 1.523 . S
C2627 C2611 1.429 . S
C2627 C2623 1.429 . S
C2627 C2628 1.523 . S
C2628 C2612 1.368 . S
C2628 C2624 1.368 . S
C2628 C2627 1.523 . S
H2629 C2604 0.950 . S
H2630 C2606 0.950 . S
H2631 C2607 0.949 . S
H2632 C2609 0.950 . S
H2633 C2611 0.950 . S
C2634 C2635 1.349 . S
C2634 C2636 1.327 . S
C2634 H2659 0.950 . S
C2635 C2634 1.349 . S
C2635 C2651 1.349 . S
C2636 C2634 1.327 . S
C2636 C2655 1.429 . S
C2636 H2660 0.950 . S
C2637 C2654 1.574 . S
C2637 C2656 1.368 . S
C2637 H2661 0.949 . S
H2638 C2642 0.949 . S
C2639 C2640 1.349 . S
C2639 C2641 1.327 . S
C2639 H2662 0.950 . S
C2640 C2639 1.349 . S
C2640 C2652 1.349 . S
C2641 C2639 1.327 . S
C2641 C2657 1.429 . S
C2641 H2663 0.950 . S
C2642 H2638 0.949 . S
C2642 C2650 1.574 . S
C2642 C2658 1.368 . S
H2643 C2651 0.950 . S
H2644 C2649 0.950 . S
H2645 C2650 0.949 . S
H2646 C2652 0.950 . S
H2647 C2653 0.950 . S
H2648 C2654 0.949 . S
C2649 H2644 0.950 . S
C2649 C2651 1.327 . S
C2649 C2655 1.429 . S
C2650 C2642 1.574 . S
C2650 H2645 0.949 . S
C2650 C2656 1.368 . S
C2651 C2635 1.349 . S
C2651 H2643 0.950 . S
C2651 C2649 1.327 . S
C2652 C2640 1.349 . S
C2652 H2646 0.950 . S
C2652 C2653 1.327 . S
C2653 H2647 0.950 . S
C2653 C2652 1.327 . S
C2653 C2657 1.429 . S
C2654 C2637 1.574 . S
C2654 H2648 0.949 . S
C2654 C2658 1.368 . S
C2655 C2636 1.429 . S
C2655 C2649 1.429 . S
C2655 C2656 1.523 . S
C2656 C2637 1.368 . S
C2656 C2650 1.368 . S
C2656 C2655 1.523 . S
C2657 C2641 1.429 . S
C2657 C2653 1.429 . S
C2657 C2658 1.523 . S
C2658 C2642 1.368 . S
C2658 C2654 1.368 . S
C2658 C2657 1.523 . S
H2659 C2634 0.950 . S
H2660 C2636 0.950 . S
H2661 C2637 0.949 . S
H2662 C2639 0.950 . S
H2663 C2641 0.950 . S
C1585 C49 1.933 . S
C1590 C284 1.944 . S
C1615 C108 1.969 . S
C1620 C401 1.980 . S
C1645 C489 1.960 . S
C1650 C233 1.968 . S
C1675 C577 1.900 . S
C1680 C821 1.909 . S
C1705 C636 1.940 . S
C1710 C929 1.949 . S
C1735 C1017 1.888 . S
C1740 C761 1.894 . S
C1765 C1340 1.910 . S
C1770 C1105 1.897 . S
C1795 C1465 1.950 . S
C1800 C1173 1.938 . S
C1825 C1553 1.889 . S
C1830 C1281 1.894 . S
C1855 C29 2.387 . S
C1860 C849 2.380 . S
C1885 C145 2.391 . S
C1890 C900 2.391 . S
C1915 C1025 2.463 . S
C1920 C205 2.461 . S
C1945 C313 2.384 . S
C1950 C1085 2.383 . S
C1975 C372 2.390 . S
C1980 C1193 2.392 . S
C2005 C497 2.462 . S
C2010 C1252 2.462 . S
C2035 C557 2.432 . S
C2040 C1369 2.414 . S
C2065 C673 2.451 . S
C2070 C1437 2.449 . S
C2095 C1545 2.350 . S
C2100 C733 2.330 . S
C2125 C57 0.501 . S
C2130 C381 0.379 . S
C2155 C117 0.512 . S
C2160 C460 0.380 . S
C2185 C196 0.561 . S
C2190 C321 0.398 . S
C2215 C293 0.571 . S
C2220 C137 0.390 . S
C2245 C225 0.411 . S
C2250 C409 0.573 . S
C2275 C469 0.484 . S
C2280 C20 0.322 . S
C2305 C585 0.408 . S
C2310 C909 0.275 . S
C2335 C988 0.342 . S
C2340 C645 0.502 . S
C2365 C841 0.349 . S
C2370 C724 0.477 . S
C2395 C665 0.391 . S
C2400 C812 0.571 . S
C2425 C937 0.534 . S
C2430 C753 0.385 1_565 S
C2455 C997 0.519 . S
C2460 C548 0.360 . S
C2485 C1428 0.382 . S
C2490 C1113 0.503 . S
C2515 C1525 0.351 1_545 S
C2520 C1164 0.475 . S
C2545 C1261 0.595 . S
C2550 C1377 0.440 1_655 S
C2575 C1201 0.284 . S
C2580 C1349 0.478 . S
C2605 C1289 0.372 . S
C2610 C1457 0.567 . S
C2635 C1076 0.275 . S
C2640 C1516 0.404 . S
