# Generated by pormake.
# Topology wme, (6)-cn, num edge types: 1
# Building blocks:
#     Node 0, Type 0, BuildingBlock: NUHQIS_clean_sbu_0, # of connection points: 6
#     Node 1, Type 0, BuildingBlock: NUHQIS_clean_sbu_0, # of connection points: 6
#     Node 2, Type 0, BuildingBlock: NUHQIS_clean_sbu_0, # of connection points: 6
#     Node 3, Type 0, BuildingBlock: NUHQIS_clean_sbu_0, # of connection points: 6
#     Node 4, Type 0, BuildingBlock: NUHQIS_clean_sbu_0, # of connection points: 6
#     Node 5, Type 0, BuildingBlock: NUHQIS_clean_sbu_0, # of connection points: 6
#     Node 6, Type 0, BuildingBlock: NUHQIS_clean_sbu_0, # of connection points: 6
#     Node 7, Type 0, BuildingBlock: NUHQIS_clean_sbu_0, # of connection points: 6
#     Node 8, Type 0, BuildingBlock: NUHQIS_clean_sbu_0, # of connection points: 6
#     Node 9, Type 0, BuildingBlock: NUHQIS_clean_sbu_0, # of connection points: 6
#     Node 10, Type 0, BuildingBlock: NUHQIS_clean_sbu_0, # of connection points: 6
#     Node 11, Type 0, BuildingBlock: NUHQIS_clean_sbu_0, # of connection points: 6
#     Edge 12, Type (0, 0), BuildingBlock: OJICUG_clean_linker_0, # of connection points: 2
#     Edge 13, Type (0, 0), BuildingBlock: OJICUG_clean_linker_0, # of connection points: 2
#     Edge 14, Type (0, 0), BuildingBlock: OJICUG_clean_linker_0, # of connection points: 2
#     Edge 15, Type (0, 0), BuildingBlock: OJICUG_clean_linker_0, # of connection points: 2
#     Edge 16, Type (0, 0), BuildingBlock: OJICUG_clean_linker_0, # of connection points: 2
#     Edge 17, Type (0, 0), BuildingBlock: OJICUG_clean_linker_0, # of connection points: 2
#     Edge 18, Type (0, 0), BuildingBlock: OJICUG_clean_linker_0, # of connection points: 2
#     Edge 19, Type (0, 0), BuildingBlock: OJICUG_clean_linker_0, # of connection points: 2
#     Edge 20, Type (0, 0), BuildingBlock: OJICUG_clean_linker_0, # of connection points: 2
#     Edge 21, Type (0, 0), BuildingBlock: OJICUG_clean_linker_0, # of connection points: 2
#     Edge 22, Type (0, 0), BuildingBlock: OJICUG_clean_linker_0, # of connection points: 2
#     Edge 23, Type (0, 0), BuildingBlock: OJICUG_clean_linker_0, # of connection points: 2
#     Edge 24, Type (0, 0), BuildingBlock: OJICUG_clean_linker_0, # of connection points: 2
#     Edge 25, Type (0, 0), BuildingBlock: OJICUG_clean_linker_0, # of connection points: 2
#     Edge 26, Type (0, 0), BuildingBlock: OJICUG_clean_linker_0, # of connection points: 2
#     Edge 27, Type (0, 0), BuildingBlock: OJICUG_clean_linker_0, # of connection points: 2
#     Edge 28, Type (0, 0), BuildingBlock: OJICUG_clean_linker_0, # of connection points: 2
#     Edge 29, Type (0, 0), BuildingBlock: OJICUG_clean_linker_0, # of connection points: 2
#     Edge 30, Type (0, 0), BuildingBlock: OJICUG_clean_linker_0, # of connection points: 2
#     Edge 31, Type (0, 0), BuildingBlock: OJICUG_clean_linker_0, # of connection points: 2
#     Edge 32, Type (0, 0), BuildingBlock: OJICUG_clean_linker_0, # of connection points: 2
#     Edge 33, Type (0, 0), BuildingBlock: OJICUG_clean_linker_0, # of connection points: 2
#     Edge 34, Type (0, 0), BuildingBlock: OJICUG_clean_linker_0, # of connection points: 2
#     Edge 35, Type (0, 0), BuildingBlock: OJICUG_clean_linker_0, # of connection points: 2
#     Edge 36, Type (0, 0), BuildingBlock: OJICUG_clean_linker_0, # of connection points: 2
#     Edge 37, Type (0, 0), BuildingBlock: OJICUG_clean_linker_0, # of connection points: 2
#     Edge 38, Type (0, 0), BuildingBlock: OJICUG_clean_linker_0, # of connection points: 2
#     Edge 39, Type (0, 0), BuildingBlock: OJICUG_clean_linker_0, # of connection points: 2
#     Edge 40, Type (0, 0), BuildingBlock: OJICUG_clean_linker_0, # of connection points: 2
#     Edge 41, Type (0, 0), BuildingBlock: OJICUG_clean_linker_0, # of connection points: 2
#     Edge 42, Type (0, 0), BuildingBlock: OJICUG_clean_linker_0, # of connection points: 2
#     Edge 43, Type (0, 0), BuildingBlock: OJICUG_clean_linker_0, # of connection points: 2
#     Edge 44, Type (0, 0), BuildingBlock: OJICUG_clean_linker_0, # of connection points: 2
#     Edge 45, Type (0, 0), BuildingBlock: OJICUG_clean_linker_0, # of connection points: 2
#     Edge 46, Type (0, 0), BuildingBlock: OJICUG_clean_linker_0, # of connection points: 2
#     Edge 47, Type (0, 0), BuildingBlock: OJICUG_clean_linker_0, # of connection points: 2
# Relax obj value: 0.096
# Max RMSD: 0.209
# Mean RMSD: 0.209
data_MOF--net-wme--node1-NUHQIS_clean_sbu_0--edge1-OJICUG_clean_linker_0
_symmetry_space_group_name_H-M    P1
_symmetry_Int_Tables_number       1
_symmetry_cell_setting            triclinic
loop_
_symmetry_equiv_pos_as_xyz
'x, y, z'
_cell_length_a     31.957339
_cell_length_b     31.962087
_cell_length_c     38.324581
_cell_angle_alpha  90.052889
_cell_angle_beta   89.920897
_cell_angle_gamma 119.88083
loop_
_atom_site_label
_atom_site_type_symbol
_atom_site_fract_x
_atom_site_fract_y
_atom_site_fract_z
_atom_type_partial_charge
Tb0 Tb 0.23541 0.39439 0.08967 0.0
Eu1 Eu 0.28685 0.33677 0.12741 0.0
C2 C 0.29141 0.35264 0.04761 0.0
C3 C 0.17065 0.28571 0.10744 0.0
C4 C 0.19193 0.48469 0.07404 0.0
C5 C 0.15731 0.53583 0.05974 0.0
C6 C 0.16529 0.49741 0.05162 0.0
C7 C 0.21049 0.51134 0.10493 0.0
C8 C 0.20264 0.54993 0.11306 0.0
C9 C 0.1758 0.56287 0.09062 0.0
C10 C 0.19671 0.44159 0.06574 0.0
O11 O 0.22588 0.3947 0.14685 0.0
O12 O 0.28179 0.37779 0.17195 0.0
O13 O 0.3481 0.41475 0.129 0.0
O14 O 0.30989 0.45002 0.09948 0.0
C15 C 0.25091 0.39334 0.17399 0.0
O16 O 0.30445 0.29771 0.16659 0.0
O17 O 0.3163 0.29117 0.11171 0.0
O18 O 0.31808 0.36507 0.07526 0.0
O19 O 0.25156 0.35553 0.04805 0.0
O20 O 0.179 0.32003 0.08519 0.0
O21 O 0.20494 0.28798 0.12771 0.0
C22 C 0.34783 0.4527 0.11532 0.0
O23 O 0.23877 0.44836 0.05577 0.0
O24 O 0.17599 0.40554 0.08741 0.0
C25 C 0.29365 0.22205 0.14575 0.0
C26 C 0.25322 0.12044 0.14004 0.0
C27 C 0.30359 0.15151 0.14039 0.0
C28 C 0.32347 0.20158 0.1432 0.0
C29 C 0.24332 0.19127 0.1465 0.0
C30 C 0.2233 0.14092 0.14394 0.0
C31 C 0.31566 0.2752 0.14309 0.0
H32 H 0.13716 0.54475 0.04144 0.0
H33 H 0.15021 0.47728 0.02776 0.0
H34 H 0.23061 0.50198 0.12296 0.0
H35 H 0.2171 0.5692 0.13729 0.0
H36 H 0.32779 0.13711 0.13796 0.0
H37 H 0.36234 0.22453 0.14225 0.0
H38 H 0.21949 0.20622 0.14791 0.0
H39 H 0.18441 0.11821 0.14354 0.0
Tb40 Tb 0.87062 0.21856 0.58966 0.0
Eu41 Eu 0.97846 0.2627 0.62621 0.0
C42 C 0.96714 0.24971 0.54721 0.0
C43 C 0.90556 0.14871 0.61553 0.0
C44 C 0.73755 0.17467 0.57391 0.0
C45 C 0.65166 0.13963 0.56057 0.0
C46 C 0.69814 0.14885 0.55144 0.0
C47 C 0.72944 0.19075 0.60599 0.0
C48 C 0.68293 0.18164 0.61514 0.0
C49 C 0.64319 0.15604 0.59252 0.0
C50 C 0.78605 0.18264 0.56383 0.0
O51 O 0.85999 0.2086 0.64644 0.0
O52 O 0.93275 0.269 0.66734 0.0
O53 O 0.96996 0.32685 0.60811 0.0
O54 O 0.88709 0.2886 0.6098 0.0
C55 C 0.88726 0.23665 0.67207 0.0
O56 O 1.02622 0.26332 0.66741 0.0
O57 O 0.05664 0.30826 0.62161 0.0
O58 O 0.97899 0.23294 0.57396 0.0
O59 O 0.9279 0.25374 0.54917 0.0
O60 O 0.88735 0.16011 0.58883 0.0
O61 O 0.93548 0.18225 0.6372 0.0
C62 C 0.92924 0.32839 0.60837 0.0
O63 O 0.82052 0.22691 0.55868 0.0
O64 O 0.80176 0.15832 0.58124 0.0
C65 C 0.09883 0.27075 0.64503 0.0
C66 C 0.16159 0.23228 0.63749 0.0
C67 C 0.1559 0.24941 0.67003 0.0
C68 C 0.12493 0.2685 0.67371 0.0
C69 C 0.10398 0.25315 0.61263 0.0
C70 C 0.13506 0.23434 0.60888 0.0
C71 C 0.06531 0.28998 0.64934 0.0
H72 H 0.62255 0.12049 0.54215 0.0
H73 H 0.70332 0.13579 0.52663 0.0
H74 H 0.75905 0.21025 0.62401 0.0
H75 H 0.6781 0.19442 0.64016 0.0
H76 H 0.17601 0.24883 0.69257 0.0
H77 H 0.12138 0.28155 0.69902 0.0
H78 H 0.08384 0.25374 0.59016 0.0
H79 H 0.13788 0.22088 0.58355 0.0
Tb80 Tb 0.67852 0.86686 0.09292 0.0
Eu81 Eu 0.74779 0.97133 0.13272 0.0
C82 C 0.73273 0.96632 0.05286 0.0
C83 C 0.78047 0.89382 0.11754 0.0
C84 C 0.5889 0.73681 0.07331 0.0
C85 C 0.50662 0.67003 0.06662 0.0
C86 C 0.54359 0.71602 0.05708 0.0
C87 C 0.59668 0.70995 0.09908 0.0
C88 C 0.55958 0.66351 0.10851 0.0
C89 C 0.51381 0.64317 0.09267 0.0
C90 C 0.62678 0.7863 0.06275 0.0
O91 O 0.65719 0.84963 0.14765 0.0
O92 O 0.71025 0.92054 0.17663 0.0
O93 O 0.67186 0.96008 0.13977 0.0
O94 O 0.63179 0.89731 0.10021 0.0
C95 C 0.67513 0.87541 0.17635 0.0
O96 O 0.80351 1.01325 0.1716 0.0
O97 O 0.78593 0.05015 0.13208 0.0
O98 O 0.72721 0.98563 0.08099 0.0
O99 O 0.72554 0.9218 0.0538 0.0
O100 O 0.73493 0.86105 0.11962 0.0
O101 O 0.79258 0.93905 0.11214 0.0
C102 C 0.63291 0.92982 0.12185 0.0
O103 O 0.6153 0.81994 0.06527 0.0
O104 O 0.67093 0.80183 0.07304 0.0
C105 C 0.86848 0.0853 0.14837 0.0
C106 C 0.96845 0.14492 0.13354 0.0
C107 C 0.95068 0.14061 0.16781 0.0
C108 C 0.9013 0.11124 0.17509 0.0
C109 C 0.88614 0.0888 0.11422 0.0
C110 C 0.93543 0.1184 0.10688 0.0
C111 C 0.81629 0.05442 0.15644 0.0
H112 H 0.47225 0.65535 0.05335 0.0
H113 H 0.5366 0.73557 0.03698 0.0
H114 H 0.63121 0.72489 0.11215 0.0
H115 H 0.56639 0.644 0.12873 0.0
H116 H 0.9748 0.1608 0.18896 0.0
H117 H 0.88868 0.10901 0.20165 0.0
H118 H 0.86179 0.06871 0.09313 0.0
H119 H 0.94774 0.12025 0.08029 0.0
Tb120 Tb 0.84416 0.66253 0.59561 0.0
Eu121 Eu 0.80789 0.73107 0.63881 0.0
C122 C 0.81186 0.73102 0.55612 0.0
C123 C 0.91971 0.76353 0.62425 0.0
C124 C 0.88709 0.5736 0.5763 0.0
C125 C 0.92315 0.52477 0.55882 0.0
C126 C 0.91042 0.56012 0.55128 0.0
C127 C 0.87851 0.55226 0.60956 0.0
C128 C 0.89092 0.51673 0.61704 0.0
C129 C 0.91245 0.50155 0.59154 0.0
C130 C 0.86713 0.60534 0.56616 0.0
O131 O 0.83559 0.63781 0.65006 0.0
O132 O 0.81933 0.69064 0.68107 0.0
O133 O 0.74491 0.65271 0.64003 0.0
O134 O 0.76738 0.63328 0.58877 0.0
C135 C 0.82766 0.65449 0.67942 0.0
O136 O 0.82418 0.78697 0.67798 0.0
O137 O 0.76167 0.76313 0.64481 0.0
O138 O 0.78811 0.73074 0.58384 0.0
O139 O 0.84104 0.71237 0.5561 0.0
O140 O 0.90753 0.71795 0.62209 0.0
O141 O 0.88672 0.77666 0.62233 0.0
C142 C 0.73624 0.62179 0.61428 0.0
O143 O 0.82442 0.59288 0.57836 0.0
O144 O 0.89548 0.6521 0.56736 0.0
C145 C 0.8064 0.84673 0.6589 0.0
C146 C 0.84016 0.94567 0.64407 0.0
C147 C 0.82299 0.92656 0.67758 0.0
C148 C 0.80622 0.87765 0.68485 0.0
C149 C 0.82383 0.86566 0.62552 0.0
C150 C 0.84016 0.91441 0.61812 0.0
C151 C 0.79049 0.79557 0.66719 0.0
H152 H 0.93928 0.51399 0.53839 0.0
H153 H 0.9172 0.57565 0.52536 0.0
H154 H 0.86068 0.56185 0.62947 0.0
H155 H 0.88271 0.50039 0.6427 0.0
H156 H 0.82203 0.94931 0.69815 0.0
H157 H 0.79334 0.86404 0.71086 0.0
H158 H 0.82531 0.84281 0.60526 0.0
H159 H 0.85371 0.92786 0.5922 0.0
Tb160 Tb 0.21572 0.84406 0.09514 0.0
Eu161 Eu 0.10718 0.80075 0.1295 0.0
C162 C 0.12128 0.8122 0.05067 0.0
C163 C 0.1801 0.91462 0.11754 0.0
C164 C 0.34927 0.88814 0.08466 0.0
C165 C 0.40828 0.86125 0.0911 0.0
C166 C 0.36232 0.85234 0.08104 0.0
C167 C 0.38366 0.93316 0.09858 0.0
C168 C 0.42964 0.94208 0.10869 0.0
C169 C 0.44279 0.9063 0.10506 0.0
C170 C 0.30148 0.88009 0.07214 0.0
O171 O 0.22436 0.85433 0.15195 0.0
O172 O 0.15073 0.79499 0.17247 0.0
O173 O 0.11645 0.73626 0.11249 0.0
O174 O 0.19905 0.77456 0.116 0.0
C175 C 0.19636 0.82665 0.17746 0.0
O176 O 0.05694 0.79847 0.16916 0.0
O177 O 1.02917 0.75646 0.12177 0.0
O178 O 0.10874 0.82958 0.07668 0.0
O179 O 0.16056 0.80848 0.05358 0.0
O180 O 0.19878 0.90197 0.09187 0.0
O181 O 0.14906 0.88191 0.13927 0.0
C182 C 0.15722 0.73472 0.11353 0.0
O183 O 0.26731 0.83599 0.06579 0.0
O184 O 0.28439 0.90472 0.08757 0.0
C185 C 0.98574 0.7932 0.14439 0.0
C186 C 0.92102 0.82901 0.13397 0.0
C187 C 0.96468 0.85647 0.15215 0.0
C188 C 0.99663 0.83883 0.15728 0.0
C189 C 0.94246 0.76601 0.12596 0.0
C190 C 0.91065 0.78367 0.12072 0.0
C191 C 1.01907 0.7737 0.14946 0.0
H192 H 0.41709 0.83299 0.08708 0.0
H193 H 0.33726 0.81752 0.06993 0.0
H194 H 0.3752 0.96186 0.1014 0.0
H195 H 0.45483 0.97705 0.11949 0.0
H196 H 0.97381 0.89124 0.16308 0.0
H197 H 1.02976 0.86097 0.17149 0.0
H198 H 0.93318 0.73093 0.11549 0.0
H199 H 0.87793 0.76174 0.10603 0.0
Tb200 Tb 0.40428 0.19826 0.59837 0.0
Eu201 Eu 0.33851 0.08997 0.63383 0.0
C202 C 0.34103 0.10282 0.5549 0.0
C203 C 0.29864 0.16344 0.62065 0.0
C204 C 0.4938 0.3318 0.5866 0.0
C205 C 0.52364 0.4175 0.59842 0.0
C206 C 0.48575 0.37114 0.59001 0.0
C207 C 0.54064 0.33984 0.59269 0.0
C208 C 0.57857 0.38624 0.60087 0.0
C209 C 0.57086 0.42597 0.60328 0.0
C210 C 0.45354 0.28383 0.57501 0.0
O211 O 0.40409 0.20761 0.65523 0.0
O212 O 0.38942 0.13385 0.67591 0.0
O213 O 0.41157 0.09801 0.61647 0.0
O214 O 0.45679 0.18079 0.61867 0.0
C215 C 0.40447 0.17981 0.68063 0.0
O216 O 0.29022 0.04124 0.67405 0.0
O217 O 0.30396 1.01176 0.62735 0.0
O218 O 0.3113 0.09119 0.58095 0.0
O219 O 0.38412 0.14197 0.5574 0.0
O220 O 0.32949 0.18099 0.59469 0.0
O221 O 0.30094 0.13363 0.64326 0.0
C222 C 0.45404 0.13849 0.61686 0.0
O223 O 0.46293 0.24929 0.56817 0.0
O224 O 0.41272 0.26742 0.59153 0.0
C225 C 0.22504 0.96918 0.65131 0.0
C226 C 0.1245 0.90408 0.64316 0.0
C227 C 0.15275 0.89331 0.66568 0.0
C228 C 0.20234 0.92545 0.66967 0.0
C229 C 0.19712 0.98056 0.62913 0.0
C230 C 0.14741 0.94842 0.62513 0.0
C231 C 0.27761 1.00248 0.65547 0.0
H232 H 0.51632 0.44711 0.59966 0.0
H233 H 0.45015 0.36624 0.58534 0.0
H234 H 0.54829 0.31052 0.59052 0.0
H235 H 0.6143 0.39116 0.60482 0.0
H236 H 0.13647 0.86003 0.68048 0.0
H237 H 0.22303 0.91604 0.6871 0.0
H238 H 0.21386 1.01419 0.61471 0.0
H239 H 0.12716 0.95789 0.60735 0.0
Tb240 Tb 0.6779 0.8255 0.39671 0.0
Eu241 Eu 0.74728 0.78978 0.35627 0.0
C242 C 0.73955 0.78685 0.43674 0.0
C243 C 0.77911 0.90023 0.36995 0.0
C244 C 0.59033 0.86997 0.41294 0.0
C245 C 0.54952 0.91658 0.42279 0.0
C246 C 0.58498 0.90467 0.43196 0.0
C247 C 0.56048 0.8487 0.38372 0.0
C248 C 0.52481 0.86026 0.37474 0.0
C249 C 0.51811 0.89371 0.39451 0.0
C250 C 0.62418 0.85363 0.4253 0.0
O251 O 0.65649 0.82041 0.34184 0.0
O252 O 0.70888 0.80173 0.31251 0.0
O253 O 0.67036 0.72569 0.35096 0.0
O254 O 0.63556 0.74726 0.39538 0.0
C255 C 0.6739 0.812 0.31305 0.0
O256 O 0.80431 0.80535 0.31807 0.0
O257 O 0.78372 0.74725 0.35501 0.0
O258 O 0.73305 0.7602 0.4095 0.0
O259 O 0.72695 0.82069 0.43606 0.0
O260 O 0.73333 0.88716 0.36864 0.0
O261 O 0.79181 0.8675 0.37543 0.0
C262 C 0.63359 0.71631 0.37189 0.0
O263 O 0.61139 0.80878 0.41917 0.0
O264 O 0.6702 0.88176 0.41966 0.0
C265 C 0.86732 0.795 0.34124 0.0
C266 C 0.96682 0.83538 0.35797 0.0
C267 C 0.95052 0.82345 0.32327 0.0
C268 C 0.90141 0.80346 0.31506 0.0
C269 C 0.88342 0.80725 0.37587 0.0
C270 C 0.93247 0.82693 0.38415 0.0
C271 C 0.81564 0.7751 0.332 0.0
H272 H 0.54535 0.94219 0.43883 0.0
H273 H 0.60734 0.9216 0.45463 0.0
H274 H 0.56379 0.82206 0.36831 0.0
H275 H 0.50189 0.84234 0.35251 0.0
H276 H 0.97566 0.82886 0.30244 0.0
H277 H 0.89003 0.79462 0.28815 0.0
H278 H 0.85809 0.80185 0.39658 0.0
H279 H 0.94358 0.83615 0.41106 0.0
Tb280 Tb 0.88012 0.65851 0.89999 0.0
Eu281 Eu 0.98316 0.72942 0.85697 0.0
C282 C 0.98157 0.72058 0.93895 0.0
C283 C 0.90379 0.76024 0.87452 0.0
C284 C 0.74899 0.57013 0.92481 0.0
C285 C 0.67103 0.5073 0.9468 0.0
C286 C 0.71939 0.54242 0.95249 0.0
C287 C 0.72848 0.56332 0.89131 0.0
C288 C 0.67963 0.52828 0.88562 0.0
C289 C 0.6506 0.49887 0.91319 0.0
C290 C 0.80176 0.60119 0.93125 0.0
O291 O 0.86238 0.6365 0.84517 0.0
O292 O 0.93171 0.68908 0.81446 0.0
O293 O 0.96964 0.65214 0.85265 0.0
O294 O 0.92549 0.62593 0.90331 0.0
C295 C 0.88706 0.6534 0.81588 0.0
O296 O 1.02152 0.78647 0.81829 0.0
O297 O 0.06155 0.76396 0.85125 0.0
O298 O 1.00353 0.72071 0.91029 0.0
O299 O 0.93482 0.7069 0.93917 0.0
O300 O 0.87081 0.71446 0.87535 0.0
O301 O 0.94978 0.77339 0.87697 0.0
C302 C 0.94939 0.61981 0.87782 0.0
O303 O 0.8207 0.64806 0.93106 0.0
O304 O 0.82966 0.58818 0.9156 0.0
C305 C 0.09883 0.84744 0.83691 0.0
C306 C 0.16411 0.94654 0.85116 0.0
C307 C 0.15842 0.92804 0.81701 0.0
C308 C 0.12622 0.87912 0.81002 0.0
C309 C 0.10405 0.86569 0.871 0.0
C310 C 0.13641 0.91456 0.87806 0.0
C311 C 0.06414 0.79603 0.82895 0.0
H312 H 0.64983 0.4857 0.9687 0.0
H313 H 0.73422 0.54666 0.97851 0.0
H314 H 0.75061 0.58386 0.86939 0.0
H315 H 0.6653 0.52256 0.85937 0.0
H316 H 0.1794 0.95123 0.79566 0.0
H317 H 0.12271 0.86599 0.7835 0.0
H318 H 0.08292 0.84217 0.89219 0.0
H319 H 0.13918 0.92743 0.90457 0.0
Tb320 Tb 0.23591 0.86101 0.40331 0.0
Eu321 Eu 0.28576 0.97051 0.36882 0.0
C322 C 0.29174 0.95568 0.44838 0.0
C323 C 0.17003 0.90332 0.38701 0.0
C324 C 0.18919 0.72655 0.41346 0.0
C325 C 0.14684 0.63894 0.42061 0.0
C326 C 0.15591 0.68472 0.43136 0.0
C327 C 0.21308 0.72171 0.38427 0.0
C328 C 0.20416 0.67584 0.37353 0.0
C329 C 0.17089 0.63364 0.39157 0.0
C330 C 0.19569 0.77404 0.42447 0.0
O331 O 0.227 0.85401 0.346 0.0
O332 O 0.28344 0.92785 0.32298 0.0
O333 O 0.34901 0.9563 0.36781 0.0
O334 O 0.31065 0.87995 0.39317 0.0
C335 C 0.25268 0.88171 0.31957 0.0
O336 O 0.30433 0.02943 0.33125 0.0
O337 O 0.30842 0.04304 0.38693 0.0
O338 O 0.31772 0.9731 0.42058 0.0
O339 O 0.25239 0.91282 0.44702 0.0
O340 O 0.18008 0.87971 0.41019 0.0
O341 O 0.20369 0.9344 0.36603 0.0
C342 C 0.34908 0.9172 0.3794 0.0
O343 O 0.23861 0.80763 0.43428 0.0
O344 O 0.17507 0.79162 0.40472 0.0
C345 C 0.28315 0.08739 0.35238 0.0
C346 C 0.24196 0.14845 0.35461 0.0
C347 C 0.28314 0.16035 0.33406 0.0
C348 C 0.30357 0.13036 0.33314 0.0
C349 C 0.24043 0.07382 0.37128 0.0
C350 C 0.22014 0.10399 0.37243 0.0
C351 C 0.30939 0.06008 0.35583 0.0
H352 H 0.12165 0.60773 0.43559 0.0
H353 H 0.13668 0.68744 0.45377 0.0
H354 H 0.23837 0.75333 0.36967 0.0
H355 H 0.22311 0.67344 0.35086 0.0
H356 H 0.30042 0.19356 0.31919 0.0
H357 H 0.33636 0.14163 0.31831 0.0
H358 H 0.22379 0.04077 0.38638 0.0
H359 H 0.18867 0.09344 0.38864 0.0
Tb360 Tb 0.40915 0.21748 0.90537 0.0
Eu361 Eu 0.34741 0.26355 0.86759 0.0
C362 C 0.34341 0.24946 0.94643 0.0
C363 C 0.30475 0.14905 0.87855 0.0
C364 C 0.49911 0.17393 0.92039 0.0
C365 C 0.53008 0.11974 0.90507 0.0
C366 C 0.4914 0.12737 0.91316 0.0
C367 C 0.54685 0.2127 0.91952 0.0
C368 C 0.58555 0.20509 0.91151 0.0
C369 C 0.57794 0.15847 0.90406 0.0
C370 C 0.45742 0.18065 0.93044 0.0
O371 O 0.41132 0.20889 0.84851 0.0
O372 O 0.40073 0.27043 0.8275 0.0
O373 O 0.41961 0.3273 0.88671 0.0
O374 O 0.4636 0.28812 0.88747 0.0
C375 C 0.41348 0.2377 0.82296 0.0
O376 O 0.30328 0.26731 0.82562 0.0
O377 O 0.31289 0.3076 0.87337 0.0
O378 O 0.31582 0.23271 0.91923 0.0
O379 O 0.38625 0.2524 0.94567 0.0
O380 O 0.3339 0.15988 0.90547 0.0
O381 O 0.30926 0.18286 0.85667 0.0
C382 C 0.46141 0.32803 0.88917 0.0
O383 O 0.46564 0.224 0.93775 0.0
O384 O 0.41794 0.15687 0.91238 0.0
C385 C 0.23554 0.27166 0.84701 0.0
C386 C 0.13468 0.23432 0.85512 0.0
C387 C 0.1672 0.28441 0.85601 0.0
C388 C 0.21697 0.30281 0.85196 0.0
C389 C 0.20325 0.2216 0.84595 0.0
C390 C 0.15339 0.20317 0.84974 0.0
C391 C 0.28852 0.29168 0.84436 0.0
H392 H 0.52226 0.08341 0.89924 0.0
H393 H 0.4552 0.09656 0.91391 0.0
H394 H 0.55452 0.24901 0.92532 0.0
H395 H 0.62169 0.23594 0.91179 0.0
H396 H 0.15414 0.30954 0.8597 0.0
H397 H 0.24106 0.34148 0.85297 0.0
H398 H 0.21657 0.19661 0.84259 0.0
H399 H 0.12959 0.16445 0.84931 0.0
Tb400 Tb 0.21249 0.39479 0.39813 0.0
Eu401 Eu 0.10202 0.32678 0.36647 0.0
C402 C 0.11796 0.35114 0.44334 0.0
C403 C 0.1791 0.29046 0.37435 0.0
C404 C 0.34677 0.47886 0.4094 0.0
C405 C 0.43443 0.51929 0.41689 0.0
C406 C 0.38755 0.48473 0.42754 0.0
C407 C 0.35399 0.50738 0.37962 0.0
C408 C 0.40085 0.54211 0.36903 0.0
C409 C 0.44189 0.54924 0.38782 0.0
C410 C 0.29738 0.44494 0.42299 0.0
O411 O 0.22154 0.40969 0.34179 0.0
O412 O 0.14665 0.35461 0.31854 0.0
O413 O 0.11539 0.40395 0.35965 0.0
O414 O 0.18756 0.44591 0.39023 0.0
C415 C 0.19192 0.38872 0.31514 0.0
O416 O 0.04603 0.28079 0.32888 0.0
O417 O 1.0269 0.28271 0.38281 0.0
O418 O 0.10127 0.36163 0.4161 0.0
O419 O 0.15961 0.35193 0.44019 0.0
O420 O 0.21278 0.33558 0.37132 0.0
O421 O 0.13445 0.27953 0.38154 0.0
C422 C 0.15135 0.44444 0.37284 0.0
O423 O 0.26572 0.45918 0.42133 0.0
O424 O 0.27809 0.39965 0.41442 0.0
C425 C 0.98037 0.20847 0.35337 0.0
C426 C 0.91737 0.10679 0.35757 0.0
C427 C 0.96532 0.12611 0.34566 0.0
C428 C 0.99651 0.1764 0.34363 0.0
C429 C 0.93291 0.18932 0.36554 0.0
C430 C 0.90195 0.13937 0.36771 0.0
C431 C 1.01216 0.26179 0.35258 0.0
H432 H 0.46475 0.52381 0.43235 0.0
H433 H 0.38312 0.46333 0.45061 0.0
H434 H 0.32334 0.50352 0.3649 0.0
H435 H 0.40486 0.56383 0.34625 0.0
H436 H 0.97861 0.10244 0.33744 0.0
H437 H 1.03316 0.19015 0.33451 0.0
H438 H 0.91975 0.21318 0.37369 0.0
H439 H 0.8659 0.12635 0.37784 0.0
Tb440 Tb 0.85851 0.19987 0.8968 0.0
Eu441 Eu 0.8157 0.09062 0.86273 0.0
C442 C 0.82711 0.10591 0.94164 0.0
C443 C 0.92909 0.16405 0.87485 0.0
C444 C 0.90654 0.33432 0.91072 0.0
C445 C 0.95788 0.42122 0.91803 0.0
C446 C 0.94614 0.37395 0.92632 0.0
C447 C 0.87947 0.34293 0.88576 0.0
C448 C 0.89125 0.39052 0.87738 0.0
C449 C 0.93025 0.43038 0.89385 0.0
C450 C 0.89518 0.28499 0.92116 0.0
O451 O 0.86807 0.20858 0.84 0.0
O452 O 0.80922 0.13424 0.82 0.0
O453 O 0.75109 0.09937 0.88005 0.0
O454 O 0.78839 0.18206 0.87658 0.0
C455 C 0.84 0.18013 0.81483 0.0
O456 O 0.81447 0.04053 0.82323 0.0
O457 O 0.77146 1.01264 0.8701 0.0
O458 O 0.84424 0.09277 0.91577 0.0
O459 O 0.82311 0.14496 0.93838 0.0
O460 O 0.91611 0.18259 0.90038 0.0
O461 O 0.89673 0.133 0.85299 0.0
C462 C 0.74898 0.13983 0.87907 0.0
O463 O 0.85004 0.25189 0.92513 0.0
O464 O 0.91966 0.26787 0.90561 0.0
C465 C 0.80653 0.96832 0.84687 0.0
C466 C 0.84047 0.90195 0.85596 0.0
C467 C 0.80186 0.89162 0.83319 0.0
C468 C 0.78515 0.92439 0.82873 0.0
C469 C 0.84537 0.97922 0.86936 0.0
C470 C 0.86219 0.94645 0.87383 0.0
C471 C 0.78805 1.00231 0.84219 0.0
H472 H 0.9886 0.45074 0.93084 0.0
H473 H 0.96794 0.36832 0.94532 0.0
H474 H 0.84896 0.31297 0.87309 0.0
H475 H 0.8689 0.39602 0.85885 0.0
H476 H 0.78466 0.85825 0.8185 0.0
H477 H 0.75537 0.91533 0.81108 0.0
H478 H 0.8625 1.01297 0.88363 0.0
H479 H 0.89162 0.95562 0.89181 0.0
C480 C 0.17532 0.98288 0.14776 0.0
C481 C 0.19637 0.96695 0.12252 0.0
H482 H 0.17642 0.04356 0.1731 0.0
C483 C 0.23512 1.00197 0.10268 0.0
H484 H 0.14546 0.95704 0.16356 0.0
C485 C 0.25299 0.05129 0.10832 0.0
C486 C 0.23257 0.0674 0.13384 0.0
H487 H 0.25241 0.9914 0.083 0.0
H488 H 0.2829 0.07694 0.09248 0.0
C489 C 0.193 0.0325 0.15319 0.0
C490 C 0.25769 0.20823 0.59908 0.0
C491 C 0.26185 0.17887 0.6246 0.0
H492 H 0.22364 0.24827 0.58324 0.0
C493 C 0.2321 0.16651 0.65433 0.0
H494 H 0.28005 0.21876 0.57589 0.0
C495 C 0.19956 0.18364 0.65857 0.0
C496 C 0.19569 0.21328 0.63308 0.0
H497 H 0.23435 0.14409 0.67457 0.0
H498 H 0.17717 0.17339 0.68174 0.0
C499 C 0.22507 0.22507 0.60321 0.0
C500 C 1.03466 0.20759 0.09558 0.0
C501 C 1.0208 0.17813 0.12548 0.0
H502 H 0.09222 0.264 0.06633 0.0
C503 C 0.05732 0.18195 0.14806 0.0
H504 H 1.00771 0.20606 0.07772 0.0
C505 C 0.10613 0.21519 0.14141 0.0
C506 C 0.11975 0.24589 0.11217 0.0
H507 H 0.04814 0.15943 0.17108 0.0
H508 H 0.13302 0.21783 0.15982 0.0
C509 C 0.08333 0.24105 0.0891 0.0
C510 C 0.84625 1.01207 0.60473 0.0
C511 C 0.85806 0.9979 0.6363 0.0
H512 H 0.85159 0.07018 0.57345 0.0
C513 C 0.88688 0.0341 0.66046 0.0
H514 H 0.82381 0.98529 0.58561 0.0
C515 C 0.9031 0.08292 0.6534 0.0
C516 C 0.89064 0.09701 0.62208 0.0
H517 H 0.89723 1.02473 0.68485 0.0
H518 H 0.9249 0.10957 0.6728 0.0
C519 C 0.8621 0.06087 0.5978 0.0
C520 C 0.90094 0.89567 0.12343 0.0
C521 C 0.88567 0.8466 0.12965 0.0
H522 H 0.88011 0.9493 0.11454 0.0
C523 C 0.83582 0.81398 0.13195 0.0
H524 H 0.93898 0.92188 0.12121 0.0
C525 C 0.80231 0.8296 0.1279 0.0
C526 C 0.81735 0.87847 0.12152 0.0
H527 H 0.82246 0.77617 0.13741 0.0
H528 H 0.76433 0.80303 0.12998 0.0
C529 C 0.86718 0.91141 0.11939 0.0
C530 C 0.98809 0.85001 0.63032 0.0
C531 C 0.97191 0.80022 0.6288 0.0
H532 H 0.04845 0.92171 0.63623 0.0
C533 C 1.00644 0.78527 0.63179 0.0
H534 H 0.96267 0.86296 0.62816 0.0
C535 C 0.05546 0.81884 0.63634 0.0
C536 C 0.07181 0.86861 0.63803 0.0
H537 H 0.9957 0.74737 0.63063 0.0
H538 H 0.0807 0.80563 0.63809 0.0
C539 C 1.0374 0.88376 0.63478 0.0
C540 C 0.1047 0.90692 0.35233 0.0
C541 C 0.11852 0.89002 0.38158 0.0
H542 H 0.04657 0.90333 0.32203 0.0
C543 C 0.08199 0.85686 0.4039 0.0
H544 H 0.13164 0.93239 0.33448 0.0
C545 C 1.03311 0.84009 0.39669 0.0
C546 C 1.01918 0.85569 0.3668 0.0
H547 H 0.09103 0.84283 0.42662 0.0
H548 H 1.00613 0.81358 0.414 0.0
C549 C 0.05576 0.88987 0.34498 0.0
C550 C 0.2276 1.01246 0.88907 0.0
C551 C 0.19903 0.99873 0.8587 0.0
H552 H 0.28295 0.06994 0.91911 0.0
C553 C 0.20463 0.03531 0.83544 0.0
H554 H 0.22483 0.98547 0.90744 0.0
C555 C 0.2381 0.08401 0.84217 0.0
C556 C 0.26717 0.09758 0.87227 0.0
H557 H 0.1829 1.02637 0.81203 0.0
H558 H 0.24152 0.11095 0.82349 0.0
C559 C 0.26121 0.06109 0.8957 0.0
C560 C 0.24269 0.26726 0.36618 0.0
C561 C 0.19342 0.2528 0.36967 0.0
H562 H 0.29622 0.24665 0.35952 0.0
C563 C 0.1596 0.20313 0.36815 0.0
H564 H 0.27011 0.30502 0.36748 0.0
C565 C 0.1749 0.16907 0.36304 0.0
C566 C 0.22437 0.18388 0.35933 0.0
H567 H 0.12139 0.19061 0.37062 0.0
H568 H 0.14789 0.13121 0.3616 0.0
C569 C 0.25784 0.23354 0.36123 0.0
C570 C 0.04702 0.17653 0.84021 0.0
C571 C 0.08173 0.21486 0.86057 0.0
H572 H 0.97182 0.13049 0.82848 0.0
C573 C 0.06548 0.23486 0.88627 0.0
H574 H 0.0582 0.16041 0.82003 0.0
C575 C 1.01613 0.21762 0.89121 0.0
C576 C 0.98136 0.17995 0.87048 0.0
H577 H 0.09099 0.26385 0.90282 0.0
H578 H 1.00534 0.23444 0.91112 0.0
C579 C 0.99746 0.15945 0.84498 0.0
C580 C 0.89836 1.02047 0.36923 0.0
C581 C 0.88304 0.05324 0.3593 0.0
H582 H 0.87802 0.9467 0.38047 0.0
C583 C 0.83378 0.03446 0.35171 0.0
H584 H 0.93585 0.03336 0.37551 0.0
C585 C 0.80075 0.98511 0.35494 0.0
C586 C 0.81571 0.95247 0.36558 0.0
H587 H 0.82046 0.05794 0.3431 0.0
H588 H 0.7632 0.9726 0.34905 0.0
C589 C 0.86512 0.97071 0.37227 0.0
C590 C 0.83894 0.78244 0.86731 0.0
C591 C 0.88825 0.79708 0.87054 0.0
H592 H 0.7854 0.80338 0.86076 0.0
C593 C 0.92193 0.84682 0.86938 0.0
H594 H 0.81177 0.74457 0.86818 0.0
C595 C 0.90663 0.88085 0.86492 0.0
C596 C 0.85726 0.86606 0.86133 0.0
H597 H 0.96019 0.85954 0.87168 0.0
H598 H 0.93364 0.91873 0.86364 0.0
C599 C 0.82372 0.81632 0.86278 0.0
C600 C 0.12036 0.646 0.09621 0.0
C601 C 0.15841 0.68835 0.11076 0.0
H602 H 0.09559 0.57343 0.07854 0.0
C603 C 0.20087 0.68784 0.12007 0.0
H604 H 0.08725 0.64493 0.0885 0.0
C605 C 0.20583 0.64718 0.11425 0.0
C606 C 0.1686 0.60523 0.09872 0.0
H607 H 0.23116 0.71953 0.13136 0.0
H608 H 0.2398 0.64943 0.12094 0.0
C609 C 0.12547 0.60511 0.09014 0.0
C610 C 0.58938 0.18528 0.61823 0.0
C611 C 0.59387 0.14861 0.60138 0.0
H612 H 0.54269 0.21045 0.63663 0.0
C613 C 0.55089 0.1061 0.59199 0.0
H614 H 0.62113 0.21877 0.62557 0.0
C615 C 0.50509 0.10118 0.59845 0.0
C616 C 0.50108 0.13884 0.61416 0.0
H617 H 0.55259 0.07669 0.57933 0.0
H618 H 0.47303 0.06872 0.58997 0.0
C619 C 0.54398 0.18053 0.62442 0.0
C620 C 0.47908 0.55441 0.1083 0.0
C621 C 0.47292 0.59477 0.10326 0.0
H622 H 0.44445 0.47744 0.11632 0.0
C623 C 0.42623 0.58818 0.10659 0.0
H624 H 0.51456 0.55816 0.10598 0.0
C625 C 0.38653 0.54244 0.11252 0.0
C626 C 0.39198 0.5015 0.11544 0.0
H627 H 0.4201 0.61844 0.10386 0.0
H628 H 0.35107 0.539 0.11379 0.0
C629 C 0.43895 0.50816 0.11433 0.0
C630 C 0.96103 0.45799 0.58593 0.0
C631 C 0.91989 0.45919 0.59815 0.0
H632 H 0.99717 0.41653 0.58018 0.0
C633 C 0.88412 0.41813 0.61558 0.0
H634 H 0.98951 0.48893 0.57255 0.0
C635 C 0.88842 0.37687 0.61972 0.0
C636 C 0.92889 0.37512 0.60697 0.0
H637 H 0.85165 0.41708 0.625 0.0
H638 H 0.85927 0.34576 0.63252 0.0
C639 C 0.96568 0.41662 0.59057 0.0
C640 C 0.58062 0.96755 0.1137 0.0
C641 C 0.58642 0.92924 0.12566 0.0
H642 H 0.53089 0.99038 0.09726 0.0
C643 C 0.54501 0.88526 0.13395 0.0
H644 H 0.61187 1.00142 0.10625 0.0
C645 C 0.49877 0.87876 0.12891 0.0
C646 C 0.49241 0.91586 0.11481 0.0
H647 H 0.54843 0.85491 0.14285 0.0
H648 H 0.46793 0.84397 0.13511 0.0
C649 C 0.53407 0.96095 0.10834 0.0
C650 C 0.6506 0.55808 0.63277 0.0
C651 C 0.69272 0.57222 0.61298 0.0
H652 H 0.57864 0.50096 0.64511 0.0
C653 C 0.69401 0.53757 0.59086 0.0
H654 H 0.64822 0.5836 0.6501 0.0
C655 C 0.655 0.49066 0.58841 0.0
C656 C 0.61265 0.47632 0.60768 0.0
H657 H 0.72558 0.54646 0.57521 0.0
H658 H 0.6578 0.46574 0.57069 0.0
C659 C 0.61074 0.51075 0.62983 0.0
C660 C 0.39008 0.86786 0.37603 0.0
C661 C 0.39404 0.91365 0.37873 0.0
H662 H 0.42523 0.82585 0.37872 0.0
C663 C 0.44008 0.9538 0.38461 0.0
H664 H 0.35526 0.83604 0.37157 0.0
C665 C 0.48063 0.94779 0.38919 0.0
C666 C 0.47625 0.90163 0.3873 0.0
H667 H 0.4444 0.98949 0.3872 0.0
H668 H 0.51534 0.97924 0.39456 0.0
C669 C 0.43043 0.862 0.38 0.0
C670 C 0.56534 0.45983 0.8875 0.0
C671 C 0.60107 0.45641 0.90694 0.0
H672 H 0.49248 0.42252 0.86726 0.0
C673 C 0.58943 0.41117 0.92074 0.0
H674 H 0.57304 0.49415 0.87654 0.0
C675 C 0.54412 0.37057 0.91507 0.0
C676 C 0.50818 0.37355 0.8958 0.0
H677 H 0.6159 0.40684 0.93552 0.0
H678 H 0.53724 0.33644 0.92596 0.0
C679 C 0.5191 0.41892 0.88239 0.0
C680 C 0.20281 0.57961 0.37139 0.0
C681 C 0.16333 0.58476 0.38156 0.0
H682 H 0.22941 0.53147 0.36006 0.0
C683 C 0.11763 0.54248 0.38419 0.0
H684 H 0.2386 0.61082 0.36935 0.0
C685 C 0.11225 0.49641 0.3785 0.0
C686 C 0.15254 0.4916 0.3704 0.0
H687 H 0.08617 0.54489 0.39151 0.0
H688 H 0.07729 0.46463 0.38251 0.0
C689 C 0.19752 0.53387 0.36608 0.0
C690 C 0.66163 0.10369 0.89932 0.0
C691 C 0.70232 0.1402 0.882 0.0
H692 H 0.59116 0.0809 0.92057 0.0
C693 C 0.70024 0.18092 0.87027 0.0
H694 H 0.66199 0.07207 0.90905 0.0
C695 C 0.65978 0.18597 0.87664 0.0
C696 C 0.61976 0.15071 0.89531 0.0
H697 H 0.73052 0.2097 0.8565 0.0
H698 H 0.66019 0.21799 0.86698 0.0
C699 C 0.62094 0.10892 0.90597 0.0
C700 C 0.49816 0.63538 0.36924 0.0
C701 C 0.49164 0.59002 0.37887 0.0
H702 H 0.54797 0.71007 0.35916 0.0
C703 C 0.53329 0.58545 0.38203 0.0
H704 H 0.4675 0.64093 0.367 0.0
C705 C 0.57995 0.62551 0.377 0.0
C706 C 0.586 0.67112 0.36901 0.0
H707 H 0.5299 0.55112 0.38916 0.0
H708 H 0.61121 0.62139 0.38123 0.0
C709 C 0.54449 0.67522 0.36469 0.0
C710 C 0.94389 0.54504 0.85051 0.0
C711 C 0.95324 0.57534 0.87957 0.0
H712 H 0.92873 0.47514 0.83207 0.0
C713 C 0.95789 0.5587 0.91248 0.0
H714 H 0.93918 0.55648 0.82494 0.0
C715 C 0.95179 0.51254 0.91663 0.0
C716 C 0.94033 0.48107 0.88804 0.0
H717 H 0.96457 0.58093 0.93547 0.0
H718 H 0.95399 0.5008 0.94272 0.0
C719 C 0.93715 0.49819 0.85474 0.0
C720 C 0.17863 0.39371 0.25156 0.0
C721 C 0.21053 0.40085 0.27914 0.0
H722 H 0.16678 0.38684 0.19637 0.0
C723 C 0.25821 0.41314 0.27146 0.0
H724 H 0.14174 0.3847 0.25679 0.0
C725 C 0.27236 0.41379 0.23683 0.0
C726 C 0.23928 0.40295 0.20936 0.0
H727 H 0.28353 0.41885 0.2922 0.0
H728 H 0.30853 0.42048 0.23169 0.0
C729 C 0.19299 0.39517 0.21694 0.0
C730 C 0.89701 0.25801 0.73542 0.0
C731 C 0.8692 0.22674 0.70835 0.0
H732 H 0.9094 0.26805 0.79039 0.0
C733 C 0.82769 0.18307 0.71689 0.0
H734 H 0.92892 0.29226 0.72973 0.0
C735 C 0.81661 0.16912 0.75174 0.0
C736 C 0.8467 0.19868 0.77872 0.0
H737 H 0.80535 0.15829 0.69668 0.0
H738 H 0.78569 0.13411 0.75737 0.0
C739 C 0.88583 0.24416 0.77026 0.0
C740 C 0.65717 0.87839 0.23916 0.0
C741 C 0.65919 0.85189 0.21055 0.0
H742 H 0.65831 0.88508 0.29485 0.0
C743 C 0.65544 0.80683 0.21626 0.0
H744 H 0.65993 0.91325 0.23526 0.0
C745 C 0.65558 0.79128 0.2503 0.0
C746 C 0.65814 0.82 0.27892 0.0
H747 H 0.65721 0.78594 0.19461 0.0
H748 H 0.65721 0.75855 0.25421 0.0
C749 C 0.65598 0.8622 0.27319 0.0
C750 C 0.87436 0.63213 0.71946 0.0
C751 C 0.83321 0.63594 0.7132 0.0
H752 H 0.92397 0.63455 0.75804 0.0
C753 C 0.80395 0.63348 0.74149 0.0
H754 H 0.89761 0.63425 0.6981 0.0
C755 C 0.8185 0.63272 0.77576 0.0
C756 C 0.86302 0.63556 0.78202 0.0
H757 H 0.77194 0.6363 0.73718 0.0
H758 H 0.79764 0.6353 0.79712 0.0
C759 C 0.88949 0.63251 0.75372 0.0
C760 C 0.18538 0.80662 0.24121 0.0
C761 C 0.21473 0.83554 0.21367 0.0
H762 H 0.17457 0.79819 0.29648 0.0
C763 C 0.25965 0.87586 0.22151 0.0
H764 H 0.15076 0.77491 0.23606 0.0
C765 C 0.2732 0.88916 0.25614 0.0
C766 C 0.24222 0.86232 0.28365 0.0
H767 H 0.28335 0.89865 0.20097 0.0
H768 H 0.30713 0.92173 0.26126 0.0
C769 C 0.19907 0.81982 0.27589 0.0
C770 C 0.42055 0.18425 0.77848 0.0
C771 C 0.42201 0.22774 0.78676 0.0
H772 H 0.41421 0.13507 0.7383 0.0
C773 C 0.42498 0.25859 0.75949 0.0
H774 H 0.41856 0.1598 0.79881 0.0
C775 C 0.42236 0.24438 0.72473 0.0
C776 C 0.4166 0.199 0.71657 0.0
H777 H 0.42678 0.29271 0.76497 0.0
H778 H 0.42217 0.26787 0.70445 0.0
C779 C 0.41779 0.16998 0.74372 0.0
C780 C 0.28368 0.27116 0.97194 0.0
C781 C 0.32962 0.2746 0.97318 0.0
H782 H 0.23554 0.29339 0.99363 0.0
C783 C 0.36308 0.30603 -0.00238 0.0
H784 H 0.25692 0.24768 0.95317 0.0
C785 C 0.35093 0.33283 0.02028 0.0
C786 C 0.30484 0.32901 0.01943 0.0
H787 H 0.39892 0.31046 -0.00101 0.0
H788 H 0.37785 0.35629 0.03897 0.0
C789 C 0.27143 0.29794 0.99476 0.0
C790 C 0.08279 0.29243 0.49397 0.0
C791 C 0.08272 0.3279 0.47251 0.0
H792 H 0.04536 0.23857 0.53318 0.0
C793 C 1.04339 0.33636 0.47525 0.0
H794 H 0.1117 0.28413 0.49208 0.0
C795 C 1.00502 0.3099 0.49832 0.0
C796 C 1.00475 0.27416 0.5196 0.0
H797 H 1.04183 0.36327 0.459 0.0
H798 H 0.97599 0.31805 0.49987 0.0
C799 C 1.04426 0.26588 0.51717 0.0
C800 C 0.78037 0.99179 0.99663 0.0
C801 C 0.75377 0.99931 0.02247 0.0
H802 H 0.82539 1.02003 0.95151 0.0
C803 C 0.7519 0.04257 0.02166 0.0
H804 H 0.78315 0.95937 0.99672 0.0
C805 C 0.77651 0.07771 0.99612 0.0
C806 C 0.80375 0.07067 0.97058 0.0
H807 H 0.73169 0.04969 0.04119 0.0
H808 H 0.77389 0.11022 0.9963 0.0
C809 C 0.80515 1.02709 0.97104 0.0
C810 C 0.80386 0.73578 0.49087 0.0
C811 C 0.80147 0.75141 0.52448 0.0
H812 H 0.78622 0.7347 0.4371 0.0
C813 C 0.78253 0.7829 0.52863 0.0
H814 H 0.81797 0.71161 0.48668 0.0
C815 C 0.76388 0.79613 0.5003 0.0
C816 C 0.7634 0.77797 0.46703 0.0
H817 H 0.7804 0.79611 0.5542 0.0
H818 H 0.74825 0.81896 0.50471 0.0
C819 C 0.78497 0.74879 0.46255 0.0
C820 C 1.00593 0.76513 0.99663 0.0
C821 C 1.01358 0.73955 0.97009 0.0
H822 H 1.03435 0.80908 0.04226 0.0
C823 C 0.05692 0.73773 0.97049 0.0
H824 H 0.97348 0.76786 0.99689 0.0
C825 C 0.09222 0.76182 0.99604 0.0
C826 C 0.08532 0.78853 0.02207 0.0
H827 H 0.06412 0.71819 0.95046 0.0
H828 H 0.12487 0.75947 0.99535 0.0
C829 C 1.0414 0.7894 0.02228 0.0
C830 C 0.35148 0.03113 0.47935 0.0
C831 C 0.30495 0.98974 0.47837 0.0
H832 H 0.39917 0.09941 0.50332 0.0
C833 C 0.27059 0.98625 0.50268 0.0
H834 H 0.37904 0.03527 0.46093 0.0
C835 C 0.28219 1.02363 0.52677 0.0
C836 C 0.32848 0.0655 0.52722 0.0
H837 H 0.23433 0.95554 0.50234 0.0
H838 H 0.25457 1.01966 0.54506 0.0
C839 C 0.36305 0.06845 0.50336 0.0
loop_
_geom_bond_atom_site_label_1
_geom_bond_atom_site_label_2
_geom_bond_distance
_geom_bond_site_symmetry_2
_ccdc_geom_bond_type
Tb0 C10 2.825 . S
Tb0 O11 2.347 . S
Tb0 O14 2.366 . S
Tb0 O19 2.418 . S
Tb0 O20 2.384 . S
Tb0 O23 2.479 . S
Tb0 O24 2.471 . S
Eu1 O12 2.418 . S
Eu1 O13 2.384 . S
Eu1 O16 2.479 . S
Eu1 O17 2.471 . S
Eu1 O18 2.347 . S
Eu1 O21 2.366 . S
Eu1 C31 2.825 . S
C2 O18 1.259 . S
C2 O19 1.265 . S
C3 O20 1.255 . S
C3 O21 1.265 . S
C4 C6 1.380 . S
C4 C7 1.374 . S
C4 C10 1.507 . S
C5 C6 1.384 . S
C5 C9 1.387 . S
C5 H32 0.930 . S
C6 C4 1.380 . S
C6 C5 1.384 . S
C6 H33 0.931 . S
C7 C4 1.374 . S
C7 C8 1.390 . S
C7 H34 0.930 . S
C8 C7 1.390 . S
C8 C9 1.391 . S
C8 H35 0.930 . S
C9 C5 1.387 . S
C9 C8 1.391 . S
C10 Tb0 2.825 . S
C10 C4 1.507 . S
C10 O23 1.238 . S
C10 O24 1.247 . S
O11 Tb0 2.347 . S
O11 C15 1.259 . S
O12 Eu1 2.418 . S
O12 C15 1.265 . S
O13 Eu1 2.384 . S
O13 C22 1.255 . S
O14 Tb0 2.366 . S
O14 C22 1.265 . S
C15 O11 1.259 . S
C15 O12 1.265 . S
O16 Eu1 2.479 . S
O16 C31 1.238 . S
O17 Eu1 2.471 . S
O17 C31 1.247 . S
O18 Eu1 2.347 . S
O18 C2 1.259 . S
O19 Tb0 2.418 . S
O19 C2 1.265 . S
O20 Tb0 2.384 . S
O20 C3 1.255 . S
O21 Eu1 2.366 . S
O21 C3 1.265 . S
C22 O13 1.255 . S
C22 O14 1.265 . S
O23 Tb0 2.479 . S
O23 C10 1.238 . S
O24 Tb0 2.471 . S
O24 C10 1.247 . S
C25 C28 1.380 . S
C25 C29 1.374 . S
C25 C31 1.507 . S
C26 C27 1.387 . S
C26 C30 1.391 . S
C27 C26 1.387 . S
C27 C28 1.384 . S
C27 H36 0.930 . S
C28 C25 1.380 . S
C28 C27 1.384 . S
C28 H37 0.931 . S
C29 C25 1.374 . S
C29 C30 1.390 . S
C29 H38 0.930 . S
C30 C26 1.391 . S
C30 C29 1.390 . S
C30 H39 0.930 . S
C31 Eu1 2.825 . S
C31 O16 1.238 . S
C31 O17 1.247 . S
C31 C25 1.507 . S
H32 C5 0.930 . S
H33 C6 0.931 . S
H34 C7 0.930 . S
H35 C8 0.930 . S
H36 C27 0.930 . S
H37 C28 0.931 . S
H38 C29 0.930 . S
H39 C30 0.930 . S
Tb40 C50 2.825 . S
Tb40 O51 2.347 . S
Tb40 O54 2.366 . S
Tb40 O59 2.418 . S
Tb40 O60 2.384 . S
Tb40 O63 2.479 . S
Tb40 O64 2.471 . S
Eu41 O52 2.418 . S
Eu41 O53 2.384 . S
Eu41 O56 2.479 . S
Eu41 O57 2.471 . S
Eu41 O58 2.347 . S
Eu41 O61 2.366 . S
Eu41 C71 2.822 1_655 S
C42 O58 1.259 . S
C42 O59 1.265 . S
C43 O60 1.255 . S
C43 O61 1.265 . S
C44 C46 1.380 . S
C44 C47 1.374 . S
C44 C50 1.507 . S
C45 C46 1.384 . S
C45 C49 1.387 . S
C45 H72 0.930 . S
C46 C44 1.380 . S
C46 C45 1.384 . S
C46 H73 0.931 . S
C47 C44 1.374 . S
C47 C48 1.390 . S
C47 H74 0.930 . S
C48 C47 1.390 . S
C48 C49 1.391 . S
C48 H75 0.930 . S
C49 C45 1.387 . S
C49 C48 1.391 . S
C50 Tb40 2.825 . S
C50 C44 1.507 . S
C50 O63 1.238 . S
C50 O64 1.247 . S
O51 Tb40 2.347 . S
O51 C55 1.259 . S
O52 Eu41 2.418 . S
O52 C55 1.265 . S
O53 Eu41 2.384 . S
O53 C62 1.255 . S
O54 Tb40 2.366 . S
O54 C62 1.265 . S
C55 O51 1.259 . S
C55 O52 1.265 . S
O56 Eu41 2.479 . S
O56 C71 1.236 1_655 S
O57 Eu41 2.471 . S
O57 C71 1.246 1_655 S
O58 Eu41 2.347 . S
O58 C42 1.259 . S
O59 Tb40 2.418 . S
O59 C42 1.265 . S
O60 Tb40 2.384 . S
O60 C43 1.255 . S
O61 Eu41 2.366 . S
O61 C43 1.265 . S
C62 O53 1.255 . S
C62 O54 1.265 . S
O63 Tb40 2.479 . S
O63 C50 1.238 . S
O64 Tb40 2.471 . S
O64 C50 1.247 . S
C65 C68 1.380 . S
C65 C69 1.374 . S
C65 C71 1.510 . S
C66 C67 1.387 . S
C66 C70 1.391 . S
C67 C66 1.387 . S
C67 C68 1.384 . S
C67 H76 0.930 . S
C68 C65 1.380 . S
C68 C67 1.384 . S
C68 H77 0.931 . S
C69 C65 1.374 . S
C69 C70 1.390 . S
C69 H78 0.930 . S
C70 C66 1.391 . S
C70 C69 1.390 . S
C70 H79 0.930 . S
C71 Eu41 2.822 1_455 S
C71 O56 1.236 1_455 S
C71 O57 1.246 1_455 S
C71 C65 1.510 . S
H72 C45 0.930 . S
H73 C46 0.931 . S
H74 C47 0.930 . S
H75 C48 0.930 . S
H76 C67 0.930 . S
H77 C68 0.931 . S
H78 C69 0.930 . S
H79 C70 0.930 . S
Tb80 C90 2.825 . S
Tb80 O91 2.347 . S
Tb80 O94 2.366 . S
Tb80 O99 2.418 . S
Tb80 O100 2.384 . S
Tb80 O103 2.479 . S
Tb80 O104 2.471 . S
Eu81 O92 2.418 . S
Eu81 O93 2.384 . S
Eu81 O96 2.479 . S
Eu81 O97 2.471 . S
Eu81 O98 2.347 . S
Eu81 O101 2.366 . S
Eu81 C111 2.824 1_565 S
C82 O98 1.259 . S
C82 O99 1.265 . S
C83 O100 1.255 . S
C83 O101 1.265 . S
C84 C86 1.380 . S
C84 C87 1.374 . S
C84 C90 1.507 . S
C85 C86 1.384 . S
C85 C89 1.387 . S
C85 H112 0.930 . S
C86 C84 1.380 . S
C86 C85 1.384 . S
C86 H113 0.931 . S
C87 C84 1.374 . S
C87 C88 1.390 . S
C87 H114 0.930 . S
C88 C87 1.390 . S
C88 C89 1.391 . S
C88 H115 0.930 . S
C89 C85 1.387 . S
C89 C88 1.391 . S
C90 Tb80 2.825 . S
C90 C84 1.507 . S
C90 O103 1.238 . S
C90 O104 1.247 . S
O91 Tb80 2.347 . S
O91 C95 1.259 . S
O92 Eu81 2.418 . S
O92 C95 1.265 . S
O93 Eu81 2.384 . S
O93 C102 1.255 . S
O94 Tb80 2.366 . S
O94 C102 1.265 . S
C95 O91 1.259 . S
C95 O92 1.265 . S
O96 Eu81 2.479 . S
O96 C111 1.237 1_565 S
O97 Eu81 2.471 . S
O97 C111 1.247 1_565 S
O98 Eu81 2.347 . S
O98 C82 1.259 . S
O99 Tb80 2.418 . S
O99 C82 1.265 . S
O100 Tb80 2.384 . S
O100 C83 1.255 . S
O101 Eu81 2.366 . S
O101 C83 1.265 . S
C102 O93 1.255 . S
C102 O94 1.265 . S
O103 Tb80 2.479 . S
O103 C90 1.238 . S
O104 Tb80 2.471 . S
O104 C90 1.247 . S
C105 C108 1.380 . S
C105 C109 1.374 . S
C105 C111 1.508 . S
C106 C107 1.387 . S
C106 C110 1.391 . S
C107 C106 1.387 . S
C107 C108 1.384 . S
C107 H116 0.930 . S
C108 C105 1.380 . S
C108 C107 1.384 . S
C108 H117 0.931 . S
C109 C105 1.374 . S
C109 C110 1.390 . S
C109 H118 0.930 . S
C110 C106 1.391 . S
C110 C109 1.390 . S
C110 H119 0.930 . S
C111 Eu81 2.824 1_545 S
C111 O96 1.237 1_545 S
C111 O97 1.247 1_545 S
C111 C105 1.508 . S
H112 C85 0.930 . S
H113 C86 0.931 . S
H114 C87 0.930 . S
H115 C88 0.930 . S
H116 C107 0.930 . S
H117 C108 0.931 . S
H118 C109 0.930 . S
H119 C110 0.930 . S
Tb120 C130 2.825 . S
Tb120 O131 2.347 . S
Tb120 O134 2.366 . S
Tb120 O139 2.418 . S
Tb120 O140 2.384 . S
Tb120 O143 2.479 . S
Tb120 O144 2.471 . S
Eu121 O132 2.418 . S
Eu121 O133 2.384 . S
Eu121 O136 2.479 . S
Eu121 O137 2.471 . S
Eu121 O138 2.347 . S
Eu121 O141 2.366 . S
Eu121 C151 2.825 . S
C122 O138 1.259 . S
C122 O139 1.265 . S
C123 O140 1.255 . S
C123 O141 1.265 . S
C124 C126 1.380 . S
C124 C127 1.374 . S
C124 C130 1.507 . S
C125 C126 1.384 . S
C125 C129 1.387 . S
C125 H152 0.930 . S
C126 C124 1.380 . S
C126 C125 1.384 . S
C126 H153 0.931 . S
C127 C124 1.374 . S
C127 C128 1.390 . S
C127 H154 0.930 . S
C128 C127 1.390 . S
C128 C129 1.391 . S
C128 H155 0.930 . S
C129 C125 1.387 . S
C129 C128 1.391 . S
C130 Tb120 2.825 . S
C130 C124 1.507 . S
C130 O143 1.238 . S
C130 O144 1.247 . S
O131 Tb120 2.347 . S
O131 C135 1.259 . S
O132 Eu121 2.418 . S
O132 C135 1.265 . S
O133 Eu121 2.384 . S
O133 C142 1.255 . S
O134 Tb120 2.366 . S
O134 C142 1.265 . S
C135 O131 1.259 . S
C135 O132 1.265 . S
O136 Eu121 2.479 . S
O136 C151 1.238 . S
O137 Eu121 2.471 . S
O137 C151 1.247 . S
O138 Eu121 2.347 . S
O138 C122 1.259 . S
O139 Tb120 2.418 . S
O139 C122 1.265 . S
O140 Tb120 2.384 . S
O140 C123 1.255 . S
O141 Eu121 2.366 . S
O141 C123 1.265 . S
C142 O133 1.255 . S
C142 O134 1.265 . S
O143 Tb120 2.479 . S
O143 C130 1.238 . S
O144 Tb120 2.471 . S
O144 C130 1.247 . S
C145 C148 1.380 . S
C145 C149 1.374 . S
C145 C151 1.507 . S
C146 C147 1.387 . S
C146 C150 1.391 . S
C147 C146 1.387 . S
C147 C148 1.384 . S
C147 H156 0.930 . S
C148 C145 1.380 . S
C148 C147 1.384 . S
C148 H157 0.931 . S
C149 C145 1.374 . S
C149 C150 1.390 . S
C149 H158 0.930 . S
C150 C146 1.391 . S
C150 C149 1.390 . S
C150 H159 0.930 . S
C151 Eu121 2.825 . S
C151 O136 1.238 . S
C151 O137 1.247 . S
C151 C145 1.507 . S
H152 C125 0.930 . S
H153 C126 0.931 . S
H154 C127 0.930 . S
H155 C128 0.930 . S
H156 C147 0.930 . S
H157 C148 0.931 . S
H158 C149 0.930 . S
H159 C150 0.930 . S
Tb160 C170 2.825 . S
Tb160 O171 2.347 . S
Tb160 O174 2.366 . S
Tb160 O179 2.418 . S
Tb160 O180 2.384 . S
Tb160 O183 2.479 . S
Tb160 O184 2.471 . S
Eu161 O172 2.418 . S
Eu161 O173 2.384 . S
Eu161 O176 2.479 . S
Eu161 O177 2.471 . S
Eu161 O178 2.347 . S
Eu161 O181 2.366 . S
Eu161 C191 2.822 1_455 S
C162 O178 1.259 . S
C162 O179 1.265 . S
C163 O180 1.255 . S
C163 O181 1.265 . S
C164 C166 1.380 . S
C164 C167 1.374 . S
C164 C170 1.507 . S
C165 C166 1.384 . S
C165 C169 1.387 . S
C165 H192 0.930 . S
C166 C164 1.380 . S
C166 C165 1.384 . S
C166 H193 0.931 . S
C167 C164 1.374 . S
C167 C168 1.390 . S
C167 H194 0.930 . S
C168 C167 1.390 . S
C168 C169 1.391 . S
C168 H195 0.930 . S
C169 C165 1.387 . S
C169 C168 1.391 . S
C170 Tb160 2.825 . S
C170 C164 1.507 . S
C170 O183 1.238 . S
C170 O184 1.247 . S
O171 Tb160 2.347 . S
O171 C175 1.259 . S
O172 Eu161 2.418 . S
O172 C175 1.265 . S
O173 Eu161 2.384 . S
O173 C182 1.255 . S
O174 Tb160 2.366 . S
O174 C182 1.265 . S
C175 O171 1.259 . S
C175 O172 1.265 . S
O176 Eu161 2.479 . S
O176 C191 1.236 1_455 S
O177 Eu161 2.471 . S
O177 C191 1.246 1_455 S
O178 Eu161 2.347 . S
O178 C162 1.259 . S
O179 Tb160 2.418 . S
O179 C162 1.265 . S
O180 Tb160 2.384 . S
O180 C163 1.255 . S
O181 Eu161 2.366 . S
O181 C163 1.265 . S
C182 O173 1.255 . S
C182 O174 1.265 . S
O183 Tb160 2.479 . S
O183 C170 1.238 . S
O184 Tb160 2.471 . S
O184 C170 1.247 . S
C185 C188 1.380 . S
C185 C189 1.374 . S
C185 C191 1.510 . S
C186 C187 1.387 . S
C186 C190 1.391 . S
C187 C186 1.387 . S
C187 C188 1.384 . S
C187 H196 0.930 . S
C188 C185 1.380 . S
C188 C187 1.384 . S
C188 H197 0.931 . S
C189 C185 1.374 . S
C189 C190 1.390 . S
C189 H198 0.930 . S
C190 C186 1.391 . S
C190 C189 1.390 . S
C190 H199 0.930 . S
C191 Eu161 2.822 1_655 S
C191 O176 1.236 1_655 S
C191 O177 1.246 1_655 S
C191 C185 1.510 . S
H192 C165 0.930 . S
H193 C166 0.931 . S
H194 C167 0.930 . S
H195 C168 0.930 . S
H196 C187 0.930 . S
H197 C188 0.931 . S
H198 C189 0.930 . S
H199 C190 0.930 . S
Tb200 C210 2.825 . S
Tb200 O211 2.347 . S
Tb200 O214 2.366 . S
Tb200 O219 2.418 . S
Tb200 O220 2.384 . S
Tb200 O223 2.479 . S
Tb200 O224 2.471 . S
Eu201 O212 2.418 . S
Eu201 O213 2.384 . S
Eu201 O216 2.479 . S
Eu201 O217 2.471 . S
Eu201 O218 2.347 . S
Eu201 O221 2.366 . S
Eu201 C231 2.824 1_545 S
C202 O218 1.259 . S
C202 O219 1.265 . S
C203 O220 1.255 . S
C203 O221 1.265 . S
C204 C206 1.380 . S
C204 C207 1.374 . S
C204 C210 1.507 . S
C205 C206 1.384 . S
C205 C209 1.387 . S
C205 H232 0.930 . S
C206 C204 1.380 . S
C206 C205 1.384 . S
C206 H233 0.931 . S
C207 C204 1.374 . S
C207 C208 1.390 . S
C207 H234 0.930 . S
C208 C207 1.390 . S
C208 C209 1.391 . S
C208 H235 0.930 . S
C209 C205 1.387 . S
C209 C208 1.391 . S
C210 Tb200 2.825 . S
C210 C204 1.507 . S
C210 O223 1.238 . S
C210 O224 1.247 . S
O211 Tb200 2.347 . S
O211 C215 1.259 . S
O212 Eu201 2.418 . S
O212 C215 1.265 . S
O213 Eu201 2.384 . S
O213 C222 1.255 . S
O214 Tb200 2.366 . S
O214 C222 1.265 . S
C215 O211 1.259 . S
C215 O212 1.265 . S
O216 Eu201 2.479 . S
O216 C231 1.237 1_545 S
O217 Eu201 2.471 . S
O217 C231 1.247 1_545 S
O218 Eu201 2.347 . S
O218 C202 1.259 . S
O219 Tb200 2.418 . S
O219 C202 1.265 . S
O220 Tb200 2.384 . S
O220 C203 1.255 . S
O221 Eu201 2.366 . S
O221 C203 1.265 . S
C222 O213 1.255 . S
C222 O214 1.265 . S
O223 Tb200 2.479 . S
O223 C210 1.238 . S
O224 Tb200 2.471 . S
O224 C210 1.247 . S
C225 C228 1.380 . S
C225 C229 1.374 . S
C225 C231 1.508 . S
C226 C227 1.387 . S
C226 C230 1.391 . S
C227 C226 1.387 . S
C227 C228 1.384 . S
C227 H236 0.930 . S
C228 C225 1.380 . S
C228 C227 1.384 . S
C228 H237 0.931 . S
C229 C225 1.374 . S
C229 C230 1.390 . S
C229 H238 0.930 . S
C230 C226 1.391 . S
C230 C229 1.390 . S
C230 H239 0.930 . S
C231 Eu201 2.824 1_565 S
C231 O216 1.237 1_565 S
C231 O217 1.247 1_565 S
C231 C225 1.508 . S
H232 C205 0.930 . S
H233 C206 0.931 . S
H234 C207 0.930 . S
H235 C208 0.930 . S
H236 C227 0.930 . S
H237 C228 0.931 . S
H238 C229 0.930 . S
H239 C230 0.930 . S
Tb240 C250 2.825 . S
Tb240 O251 2.347 . S
Tb240 O254 2.366 . S
Tb240 O259 2.418 . S
Tb240 O260 2.384 . S
Tb240 O263 2.479 . S
Tb240 O264 2.471 . S
Eu241 O252 2.418 . S
Eu241 O253 2.384 . S
Eu241 O256 2.479 . S
Eu241 O257 2.471 . S
Eu241 O258 2.347 . S
Eu241 O261 2.366 . S
Eu241 C271 2.825 . S
C242 O258 1.259 . S
C242 O259 1.265 . S
C243 O260 1.255 . S
C243 O261 1.265 . S
C244 C246 1.380 . S
C244 C247 1.374 . S
C244 C250 1.507 . S
C245 C246 1.384 . S
C245 C249 1.387 . S
C245 H272 0.930 . S
C246 C244 1.380 . S
C246 C245 1.384 . S
C246 H273 0.931 . S
C247 C244 1.374 . S
C247 C248 1.390 . S
C247 H274 0.930 . S
C248 C247 1.390 . S
C248 C249 1.391 . S
C248 H275 0.930 . S
C249 C245 1.387 . S
C249 C248 1.391 . S
C250 Tb240 2.825 . S
C250 C244 1.507 . S
C250 O263 1.238 . S
C250 O264 1.247 . S
O251 Tb240 2.347 . S
O251 C255 1.259 . S
O252 Eu241 2.418 . S
O252 C255 1.265 . S
O253 Eu241 2.384 . S
O253 C262 1.255 . S
O254 Tb240 2.366 . S
O254 C262 1.265 . S
C255 O251 1.259 . S
C255 O252 1.265 . S
O256 Eu241 2.479 . S
O256 C271 1.238 . S
O257 Eu241 2.471 . S
O257 C271 1.247 . S
O258 Eu241 2.347 . S
O258 C242 1.259 . S
O259 Tb240 2.418 . S
O259 C242 1.265 . S
O260 Tb240 2.384 . S
O260 C243 1.255 . S
O261 Eu241 2.366 . S
O261 C243 1.265 . S
C262 O253 1.255 . S
C262 O254 1.265 . S
O263 Tb240 2.479 . S
O263 C250 1.238 . S
O264 Tb240 2.471 . S
O264 C250 1.247 . S
C265 C268 1.380 . S
C265 C269 1.374 . S
C265 C271 1.507 . S
C266 C267 1.387 . S
C266 C270 1.391 . S
C267 C266 1.387 . S
C267 C268 1.384 . S
C267 H276 0.930 . S
C268 C265 1.380 . S
C268 C267 1.384 . S
C268 H277 0.931 . S
C269 C265 1.374 . S
C269 C270 1.390 . S
C269 H278 0.930 . S
C270 C266 1.391 . S
C270 C269 1.390 . S
C270 H279 0.930 . S
C271 Eu241 2.825 . S
C271 O256 1.238 . S
C271 O257 1.247 . S
C271 C265 1.507 . S
H272 C245 0.930 . S
H273 C246 0.931 . S
H274 C247 0.930 . S
H275 C248 0.930 . S
H276 C267 0.930 . S
H277 C268 0.931 . S
H278 C269 0.930 . S
H279 C270 0.930 . S
Tb280 C290 2.825 . S
Tb280 O291 2.347 . S
Tb280 O294 2.366 . S
Tb280 O299 2.418 . S
Tb280 O300 2.384 . S
Tb280 O303 2.479 . S
Tb280 O304 2.471 . S
Eu281 O292 2.418 . S
Eu281 O293 2.384 . S
Eu281 O296 2.479 . S
Eu281 O297 2.471 . S
Eu281 O298 2.347 . S
Eu281 O301 2.366 . S
Eu281 C311 2.824 1_655 S
C282 O298 1.259 . S
C282 O299 1.265 . S
C283 O300 1.255 . S
C283 O301 1.265 . S
C284 C286 1.380 . S
C284 C287 1.374 . S
C284 C290 1.507 . S
C285 C286 1.384 . S
C285 C289 1.387 . S
C285 H312 0.930 . S
C286 C284 1.380 . S
C286 C285 1.384 . S
C286 H313 0.931 . S
C287 C284 1.374 . S
C287 C288 1.390 . S
C287 H314 0.930 . S
C288 C287 1.390 . S
C288 C289 1.391 . S
C288 H315 0.930 . S
C289 C285 1.387 . S
C289 C288 1.391 . S
C290 Tb280 2.825 . S
C290 C284 1.507 . S
C290 O303 1.238 . S
C290 O304 1.247 . S
O291 Tb280 2.347 . S
O291 C295 1.259 . S
O292 Eu281 2.418 . S
O292 C295 1.265 . S
O293 Eu281 2.384 . S
O293 C302 1.255 . S
O294 Tb280 2.366 . S
O294 C302 1.265 . S
C295 O291 1.259 . S
C295 O292 1.265 . S
O296 Eu281 2.479 . S
O296 C311 1.237 1_655 S
O297 Eu281 2.471 . S
O297 C311 1.247 1_655 S
O298 Eu281 2.347 . S
O298 C282 1.259 . S
O299 Tb280 2.418 . S
O299 C282 1.265 . S
O300 Tb280 2.384 . S
O300 C283 1.255 . S
O301 Eu281 2.366 . S
O301 C283 1.265 . S
C302 O293 1.255 . S
C302 O294 1.265 . S
O303 Tb280 2.479 . S
O303 C290 1.238 . S
O304 Tb280 2.471 . S
O304 C290 1.247 . S
C305 C308 1.380 . S
C305 C309 1.374 . S
C305 C311 1.508 . S
C306 C307 1.387 . S
C306 C310 1.391 . S
C307 C306 1.387 . S
C307 C308 1.384 . S
C307 H316 0.930 . S
C308 C305 1.380 . S
C308 C307 1.384 . S
C308 H317 0.931 . S
C309 C305 1.374 . S
C309 C310 1.390 . S
C309 H318 0.930 . S
C310 C306 1.391 . S
C310 C309 1.390 . S
C310 H319 0.930 . S
C311 Eu281 2.824 1_455 S
C311 O296 1.237 1_455 S
C311 O297 1.247 1_455 S
C311 C305 1.508 . S
H312 C285 0.930 . S
H313 C286 0.931 . S
H314 C287 0.930 . S
H315 C288 0.930 . S
H316 C307 0.930 . S
H317 C308 0.931 . S
H318 C309 0.930 . S
H319 C310 0.930 . S
Tb320 C330 2.825 . S
Tb320 O331 2.347 . S
Tb320 O334 2.366 . S
Tb320 O339 2.418 . S
Tb320 O340 2.384 . S
Tb320 O343 2.479 . S
Tb320 O344 2.471 . S
Eu321 O332 2.418 . S
Eu321 O333 2.384 . S
Eu321 O336 2.479 . S
Eu321 O337 2.471 . S
Eu321 O338 2.347 . S
Eu321 O341 2.366 . S
Eu321 C351 2.822 1_565 S
C322 O338 1.259 . S
C322 O339 1.265 . S
C323 O340 1.255 . S
C323 O341 1.265 . S
C324 C326 1.380 . S
C324 C327 1.374 . S
C324 C330 1.507 . S
C325 C326 1.384 . S
C325 C329 1.387 . S
C325 H352 0.930 . S
C326 C324 1.380 . S
C326 C325 1.384 . S
C326 H353 0.931 . S
C327 C324 1.374 . S
C327 C328 1.390 . S
C327 H354 0.930 . S
C328 C327 1.390 . S
C328 C329 1.391 . S
C328 H355 0.930 . S
C329 C325 1.387 . S
C329 C328 1.391 . S
C330 Tb320 2.825 . S
C330 C324 1.507 . S
C330 O343 1.238 . S
C330 O344 1.247 . S
O331 Tb320 2.347 . S
O331 C335 1.259 . S
O332 Eu321 2.418 . S
O332 C335 1.265 . S
O333 Eu321 2.384 . S
O333 C342 1.255 . S
O334 Tb320 2.366 . S
O334 C342 1.265 . S
C335 O331 1.259 . S
C335 O332 1.265 . S
O336 Eu321 2.479 . S
O336 C351 1.236 1_565 S
O337 Eu321 2.471 . S
O337 C351 1.246 1_565 S
O338 Eu321 2.347 . S
O338 C322 1.259 . S
O339 Tb320 2.418 . S
O339 C322 1.265 . S
O340 Tb320 2.384 . S
O340 C323 1.255 . S
O341 Eu321 2.366 . S
O341 C323 1.265 . S
C342 O333 1.255 . S
C342 O334 1.265 . S
O343 Tb320 2.479 . S
O343 C330 1.238 . S
O344 Tb320 2.471 . S
O344 C330 1.247 . S
C345 C348 1.380 . S
C345 C349 1.374 . S
C345 C351 1.510 . S
C346 C347 1.387 . S
C346 C350 1.391 . S
C347 C346 1.387 . S
C347 C348 1.384 . S
C347 H356 0.930 . S
C348 C345 1.380 . S
C348 C347 1.384 . S
C348 H357 0.931 . S
C349 C345 1.374 . S
C349 C350 1.390 . S
C349 H358 0.930 . S
C350 C346 1.391 . S
C350 C349 1.390 . S
C350 H359 0.930 . S
C351 Eu321 2.822 1_545 S
C351 O336 1.236 1_545 S
C351 O337 1.246 1_545 S
C351 C345 1.510 . S
H352 C325 0.930 . S
H353 C326 0.931 . S
H354 C327 0.930 . S
H355 C328 0.930 . S
H356 C347 0.930 . S
H357 C348 0.931 . S
H358 C349 0.930 . S
H359 C350 0.930 . S
Tb360 C370 2.825 . S
Tb360 O371 2.347 . S
Tb360 O374 2.366 . S
Tb360 O379 2.418 . S
Tb360 O380 2.384 . S
Tb360 O383 2.479 . S
Tb360 O384 2.471 . S
Eu361 O372 2.418 . S
Eu361 O373 2.384 . S
Eu361 O376 2.479 . S
Eu361 O377 2.471 . S
Eu361 O378 2.347 . S
Eu361 O381 2.366 . S
Eu361 C391 2.825 . S
C362 O378 1.259 . S
C362 O379 1.265 . S
C363 O380 1.255 . S
C363 O381 1.265 . S
C364 C366 1.380 . S
C364 C367 1.374 . S
C364 C370 1.507 . S
C365 C366 1.384 . S
C365 C369 1.387 . S
C365 H392 0.930 . S
C366 C364 1.380 . S
C366 C365 1.384 . S
C366 H393 0.931 . S
C367 C364 1.374 . S
C367 C368 1.390 . S
C367 H394 0.930 . S
C368 C367 1.390 . S
C368 C369 1.391 . S
C368 H395 0.930 . S
C369 C365 1.387 . S
C369 C368 1.391 . S
C370 Tb360 2.825 . S
C370 C364 1.507 . S
C370 O383 1.238 . S
C370 O384 1.247 . S
O371 Tb360 2.347 . S
O371 C375 1.259 . S
O372 Eu361 2.418 . S
O372 C375 1.265 . S
O373 Eu361 2.384 . S
O373 C382 1.255 . S
O374 Tb360 2.366 . S
O374 C382 1.265 . S
C375 O371 1.259 . S
C375 O372 1.265 . S
O376 Eu361 2.479 . S
O376 C391 1.238 . S
O377 Eu361 2.471 . S
O377 C391 1.247 . S
O378 Eu361 2.347 . S
O378 C362 1.259 . S
O379 Tb360 2.418 . S
O379 C362 1.265 . S
O380 Tb360 2.384 . S
O380 C363 1.255 . S
O381 Eu361 2.366 . S
O381 C363 1.265 . S
C382 O373 1.255 . S
C382 O374 1.265 . S
O383 Tb360 2.479 . S
O383 C370 1.238 . S
O384 Tb360 2.471 . S
O384 C370 1.247 . S
C385 C388 1.380 . S
C385 C389 1.374 . S
C385 C391 1.507 . S
C386 C387 1.387 . S
C386 C390 1.391 . S
C387 C386 1.387 . S
C387 C388 1.384 . S
C387 H396 0.930 . S
C388 C385 1.380 . S
C388 C387 1.384 . S
C388 H397 0.931 . S
C389 C385 1.374 . S
C389 C390 1.390 . S
C389 H398 0.930 . S
C390 C386 1.391 . S
C390 C389 1.390 . S
C390 H399 0.930 . S
C391 Eu361 2.825 . S
C391 O376 1.238 . S
C391 O377 1.247 . S
C391 C385 1.507 . S
H392 C365 0.930 . S
H393 C366 0.931 . S
H394 C367 0.930 . S
H395 C368 0.930 . S
H396 C387 0.930 . S
H397 C388 0.931 . S
H398 C389 0.930 . S
H399 C390 0.930 . S
Tb400 C410 2.825 . S
Tb400 O411 2.347 . S
Tb400 O414 2.366 . S
Tb400 O419 2.418 . S
Tb400 O420 2.384 . S
Tb400 O423 2.479 . S
Tb400 O424 2.471 . S
Eu401 O412 2.418 . S
Eu401 O413 2.384 . S
Eu401 O416 2.479 . S
Eu401 O417 2.471 . S
Eu401 O418 2.347 . S
Eu401 O421 2.366 . S
Eu401 C431 2.824 1_455 S
C402 O418 1.259 . S
C402 O419 1.265 . S
C403 O420 1.255 . S
C403 O421 1.265 . S
C404 C406 1.380 . S
C404 C407 1.374 . S
C404 C410 1.507 . S
C405 C406 1.384 . S
C405 C409 1.387 . S
C405 H432 0.930 . S
C406 C404 1.380 . S
C406 C405 1.384 . S
C406 H433 0.931 . S
C407 C404 1.374 . S
C407 C408 1.390 . S
C407 H434 0.930 . S
C408 C407 1.390 . S
C408 C409 1.391 . S
C408 H435 0.930 . S
C409 C405 1.387 . S
C409 C408 1.391 . S
C410 Tb400 2.825 . S
C410 C404 1.507 . S
C410 O423 1.238 . S
C410 O424 1.247 . S
O411 Tb400 2.347 . S
O411 C415 1.259 . S
O412 Eu401 2.418 . S
O412 C415 1.265 . S
O413 Eu401 2.384 . S
O413 C422 1.255 . S
O414 Tb400 2.366 . S
O414 C422 1.265 . S
C415 O411 1.259 . S
C415 O412 1.265 . S
O416 Eu401 2.479 . S
O416 C431 1.237 1_455 S
O417 Eu401 2.471 . S
O417 C431 1.247 1_455 S
O418 Eu401 2.347 . S
O418 C402 1.259 . S
O419 Tb400 2.418 . S
O419 C402 1.265 . S
O420 Tb400 2.384 . S
O420 C403 1.255 . S
O421 Eu401 2.366 . S
O421 C403 1.265 . S
C422 O413 1.255 . S
C422 O414 1.265 . S
O423 Tb400 2.479 . S
O423 C410 1.238 . S
O424 Tb400 2.471 . S
O424 C410 1.247 . S
C425 C428 1.380 . S
C425 C429 1.374 . S
C425 C431 1.508 . S
C426 C427 1.387 . S
C426 C430 1.391 . S
C427 C426 1.387 . S
C427 C428 1.384 . S
C427 H436 0.930 . S
C428 C425 1.380 . S
C428 C427 1.384 . S
C428 H437 0.931 . S
C429 C425 1.374 . S
C429 C430 1.390 . S
C429 H438 0.930 . S
C430 C426 1.391 . S
C430 C429 1.390 . S
C430 H439 0.930 . S
C431 Eu401 2.824 1_655 S
C431 O416 1.237 1_655 S
C431 O417 1.247 1_655 S
C431 C425 1.508 . S
H432 C405 0.930 . S
H433 C406 0.931 . S
H434 C407 0.930 . S
H435 C408 0.930 . S
H436 C427 0.930 . S
H437 C428 0.931 . S
H438 C429 0.930 . S
H439 C430 0.930 . S
Tb440 C450 2.825 . S
Tb440 O451 2.347 . S
Tb440 O454 2.366 . S
Tb440 O459 2.418 . S
Tb440 O460 2.384 . S
Tb440 O463 2.479 . S
Tb440 O464 2.471 . S
Eu441 O452 2.418 . S
Eu441 O453 2.384 . S
Eu441 O456 2.479 . S
Eu441 O457 2.471 . S
Eu441 O458 2.347 . S
Eu441 O461 2.366 . S
Eu441 C471 2.822 1_545 S
C442 O458 1.259 . S
C442 O459 1.265 . S
C443 O460 1.255 . S
C443 O461 1.265 . S
C444 C446 1.380 . S
C444 C447 1.374 . S
C444 C450 1.507 . S
C445 C446 1.384 . S
C445 C449 1.387 . S
C445 H472 0.930 . S
C446 C444 1.380 . S
C446 C445 1.384 . S
C446 H473 0.931 . S
C447 C444 1.374 . S
C447 C448 1.390 . S
C447 H474 0.930 . S
C448 C447 1.390 . S
C448 C449 1.391 . S
C448 H475 0.930 . S
C449 C445 1.387 . S
C449 C448 1.391 . S
C450 Tb440 2.825 . S
C450 C444 1.507 . S
C450 O463 1.238 . S
C450 O464 1.247 . S
O451 Tb440 2.347 . S
O451 C455 1.259 . S
O452 Eu441 2.418 . S
O452 C455 1.265 . S
O453 Eu441 2.384 . S
O453 C462 1.255 . S
O454 Tb440 2.366 . S
O454 C462 1.265 . S
C455 O451 1.259 . S
C455 O452 1.265 . S
O456 Eu441 2.479 . S
O456 C471 1.236 1_545 S
O457 Eu441 2.471 . S
O457 C471 1.246 1_545 S
O458 Eu441 2.347 . S
O458 C442 1.259 . S
O459 Tb440 2.418 . S
O459 C442 1.265 . S
O460 Tb440 2.384 . S
O460 C443 1.255 . S
O461 Eu441 2.366 . S
O461 C443 1.265 . S
C462 O453 1.255 . S
C462 O454 1.265 . S
O463 Tb440 2.479 . S
O463 C450 1.238 . S
O464 Tb440 2.471 . S
O464 C450 1.247 . S
C465 C468 1.380 . S
C465 C469 1.374 . S
C465 C471 1.510 . S
C466 C467 1.387 . S
C466 C470 1.391 . S
C467 C466 1.387 . S
C467 C468 1.384 . S
C467 H476 0.930 . S
C468 C465 1.380 . S
C468 C467 1.384 . S
C468 H477 0.931 . S
C469 C465 1.374 . S
C469 C470 1.390 . S
C469 H478 0.930 . S
C470 C466 1.391 . S
C470 C469 1.390 . S
C470 H479 0.930 . S
C471 Eu441 2.822 1_565 S
C471 O456 1.236 1_565 S
C471 O457 1.246 1_565 S
C471 C465 1.510 . S
H472 C445 0.930 . S
H473 C446 0.931 . S
H474 C447 0.930 . S
H475 C448 0.930 . S
H476 C467 0.930 . S
H477 C468 0.931 . S
H478 C469 0.930 . S
H479 C470 0.930 . S
C480 C481 1.387 . S
C480 H484 0.950 . S
C480 C489 1.390 . S
C481 C480 1.387 . S
C481 C483 1.387 . S
H482 C489 0.950 1_545 S
C483 C481 1.387 . S
C483 C485 1.390 . S
C483 H487 0.950 . S
H484 C480 0.950 . S
C485 C483 1.390 . S
C485 C486 1.387 1_565 S
C485 H488 0.950 1_565 S
C486 C485 1.387 1_545 S
C486 C489 1.387 1_545 S
H487 C483 0.950 . S
H488 C485 0.950 1_545 S
C489 C480 1.390 . S
C489 H482 0.950 1_565 S
C489 C486 1.387 1_565 S
C490 C491 1.387 . S
C490 H494 0.950 . S
C490 C499 1.390 . S
C491 C490 1.387 . S
C491 C493 1.387 . S
H492 C499 0.950 . S
C493 C491 1.387 . S
C493 C495 1.390 . S
C493 H497 0.950 . S
H494 C490 0.950 . S
C495 C493 1.390 . S
C495 C496 1.387 . S
C495 H498 0.950 . S
C496 C495 1.387 . S
C496 C499 1.387 . S
H497 C493 0.950 . S
H498 C495 0.950 . S
C499 C490 1.390 . S
C499 H492 0.950 . S
C499 C496 1.387 . S
C500 C501 1.387 . S
C500 H504 0.950 . S
C500 C509 1.390 1_655 S
C501 C500 1.387 . S
C501 C503 1.387 1_655 S
H502 C509 0.950 . S
C503 C501 1.387 1_455 S
C503 C505 1.390 . S
C503 H507 0.950 . S
H504 C500 0.950 . S
C505 C503 1.390 . S
C505 C506 1.387 . S
C505 H508 0.950 . S
C506 C505 1.387 . S
C506 C509 1.387 . S
H507 C503 0.950 . S
H508 C505 0.950 . S
C509 C500 1.390 1_455 S
C509 H502 0.950 . S
C509 C506 1.387 . S
C510 C511 1.387 . S
C510 H514 0.950 . S
C510 C519 1.390 1_565 S
C511 C510 1.387 . S
C511 C513 1.387 1_565 S
H512 C519 0.950 . S
C513 C511 1.387 1_545 S
C513 C515 1.390 . S
C513 H517 0.950 . S
H514 C510 0.950 . S
C515 C513 1.390 . S
C515 C516 1.387 . S
C515 H518 0.950 . S
C516 C515 1.387 . S
C516 C519 1.387 . S
H517 C513 0.950 . S
H518 C515 0.950 . S
C519 C510 1.390 1_545 S
C519 H512 0.950 . S
C519 C516 1.387 . S
C520 C521 1.387 . S
C520 H524 0.950 . S
C520 C529 1.390 . S
C521 C520 1.387 . S
C521 C523 1.387 . S
H522 C529 0.950 . S
C523 C521 1.387 . S
C523 C525 1.390 . S
C523 H527 0.950 . S
H524 C520 0.950 . S
C525 C523 1.390 . S
C525 C526 1.387 . S
C525 H528 0.950 . S
C526 C525 1.387 . S
C526 C529 1.387 . S
H527 C523 0.950 . S
H528 C525 0.950 . S
C529 C520 1.390 . S
C529 H522 0.950 . S
C529 C526 1.387 . S
C530 C531 1.387 . S
C530 H534 0.950 . S
C530 C539 1.390 . S
C531 C530 1.387 . S
C531 C533 1.387 . S
H532 C539 0.950 . S
C533 C531 1.387 . S
C533 C535 1.390 1_655 S
C533 H537 0.950 . S
H534 C530 0.950 . S
C535 C533 1.390 1_455 S
C535 C536 1.387 . S
C535 H538 0.950 . S
C536 C535 1.387 . S
C536 C539 1.387 1_455 S
H537 C533 0.950 . S
H538 C535 0.950 . S
C539 C530 1.390 . S
C539 H532 0.950 . S
C539 C536 1.387 1_655 S
C540 C541 1.387 . S
C540 H544 0.950 . S
C540 C549 1.390 . S
C541 C540 1.387 . S
C541 C543 1.387 . S
H542 C549 0.950 . S
C543 C541 1.387 . S
C543 C545 1.390 1_455 S
C543 H547 0.950 . S
H544 C540 0.950 . S
C545 C543 1.390 1_655 S
C545 C546 1.387 . S
C545 H548 0.950 . S
C546 C545 1.387 . S
C546 C549 1.387 1_655 S
H547 C543 0.950 . S
H548 C545 0.950 . S
C549 C540 1.390 . S
C549 H542 0.950 . S
C549 C546 1.387 1_455 S
C550 C551 1.387 . S
C550 H554 0.950 . S
C550 C559 1.390 1_565 S
C551 C550 1.387 . S
C551 C553 1.387 1_565 S
H552 C559 0.950 . S
C553 C551 1.387 1_545 S
C553 C555 1.390 . S
C553 H557 0.950 . S
H554 C550 0.950 . S
C555 C553 1.390 . S
C555 C556 1.387 . S
C555 H558 0.950 . S
C556 C555 1.387 . S
C556 C559 1.387 . S
H557 C553 0.950 . S
H558 C555 0.950 . S
C559 C550 1.390 1_545 S
C559 H552 0.950 . S
C559 C556 1.387 . S
C560 C561 1.387 . S
C560 H564 0.950 . S
C560 C569 1.390 . S
C561 C560 1.387 . S
C561 C563 1.387 . S
H562 C569 0.950 . S
C563 C561 1.387 . S
C563 C565 1.390 . S
C563 H567 0.950 . S
H564 C560 0.950 . S
C565 C563 1.390 . S
C565 C566 1.387 . S
C565 H568 0.950 . S
C566 C565 1.387 . S
C566 C569 1.387 . S
H567 C563 0.950 . S
H568 C565 0.950 . S
C569 C560 1.390 . S
C569 H562 0.950 . S
C569 C566 1.387 . S
C570 C571 1.386 1_655 S
C570 H574 0.940 1_655 S
C570 C579 1.401 . S
C571 C570 1.386 1_455 S
C571 C573 1.387 1_455 S
H572 C579 0.950 . S
C573 C571 1.387 1_655 S
C573 C575 1.390 . S
C573 H577 0.950 1_655 S
H574 C570 0.940 1_455 S
C575 C573 1.390 . S
C575 C576 1.387 . S
C575 H578 0.950 . S
C576 C575 1.387 . S
C576 C579 1.387 . S
H577 C573 0.950 1_455 S
H578 C575 0.950 . S
C579 C570 1.401 . S
C579 H572 0.950 . S
C579 C576 1.387 . S
C580 C581 1.387 1_565 S
C580 H584 0.950 . S
C580 C589 1.390 . S
C581 C580 1.387 1_545 S
C581 C583 1.387 . S
H582 C589 0.950 . S
C583 C581 1.387 . S
C583 C585 1.390 1_545 S
C583 H587 0.950 . S
H584 C580 0.950 . S
C585 C583 1.390 1_565 S
C585 C586 1.387 . S
C585 H588 0.950 . S
C586 C585 1.387 . S
C586 C589 1.387 . S
H587 C583 0.950 . S
H588 C585 0.950 . S
C589 C580 1.390 . S
C589 H582 0.950 . S
C589 C586 1.387 . S
C590 C591 1.387 . S
C590 H594 0.950 . S
C590 C599 1.390 . S
C591 C590 1.387 . S
C591 C593 1.387 . S
H592 C599 0.950 . S
C593 C591 1.387 . S
C593 C595 1.390 . S
C593 H597 0.950 . S
H594 C590 0.950 . S
C595 C593 1.390 . S
C595 C596 1.387 . S
C595 H598 0.950 . S
C596 C595 1.387 . S
C596 C599 1.387 . S
H597 C593 0.950 . S
H598 C595 0.950 . S
C599 C590 1.390 . S
C599 H592 0.950 . S
C599 C596 1.387 . S
C600 C601 1.387 . S
C600 H604 0.950 . S
C600 C609 1.390 . S
C601 C600 1.387 . S
C601 C603 1.387 . S
H602 C609 0.950 . S
C603 C601 1.387 . S
C603 C605 1.390 . S
C603 H607 0.950 . S
H604 C600 0.950 . S
C605 C603 1.390 . S
C605 C606 1.387 . S
C605 H608 0.950 . S
C606 C605 1.387 . S
C606 C609 1.387 . S
H607 C603 0.950 . S
H608 C605 0.950 . S
C609 C600 1.390 . S
C609 H602 0.950 . S
C609 C606 1.387 . S
C610 C611 1.387 . S
C610 H614 0.950 . S
C610 C619 1.390 . S
C611 C610 1.387 . S
C611 C613 1.387 . S
H612 C619 0.950 . S
C613 C611 1.387 . S
C613 C615 1.390 . S
C613 H617 0.950 . S
H614 C610 0.950 . S
C615 C613 1.390 . S
C615 C616 1.387 . S
C615 H618 0.950 . S
C616 C615 1.387 . S
C616 C619 1.387 . S
H617 C613 0.950 . S
H618 C615 0.950 . S
C619 C610 1.390 . S
C619 H612 0.950 . S
C619 C616 1.387 . S
C620 C621 1.387 . S
C620 H624 0.950 . S
C620 C629 1.390 . S
C621 C620 1.387 . S
C621 C623 1.387 . S
H622 C629 0.950 . S
C623 C621 1.387 . S
C623 C625 1.390 . S
C623 H627 0.950 . S
H624 C620 0.950 . S
C625 C623 1.390 . S
C625 C626 1.387 . S
C625 H628 0.950 . S
C626 C625 1.387 . S
C626 C629 1.387 . S
H627 C623 0.950 . S
H628 C625 0.950 . S
C629 C620 1.390 . S
C629 H622 0.950 . S
C629 C626 1.387 . S
C630 C631 1.387 . S
C630 H634 0.950 . S
C630 C639 1.390 . S
C631 C630 1.387 . S
C631 C633 1.387 . S
H632 C639 0.950 . S
C633 C631 1.387 . S
C633 C635 1.390 . S
C633 H637 0.950 . S
H634 C630 0.950 . S
C635 C633 1.390 . S
C635 C636 1.387 . S
C635 H638 0.950 . S
C636 C635 1.387 . S
C636 C639 1.387 . S
H637 C633 0.950 . S
H638 C635 0.950 . S
C639 C630 1.390 . S
C639 H632 0.950 . S
C639 C636 1.387 . S
C640 C641 1.387 . S
C640 H644 0.950 . S
C640 C649 1.390 . S
C641 C640 1.387 . S
C641 C643 1.387 . S
H642 C649 0.950 . S
C643 C641 1.387 . S
C643 C645 1.390 . S
C643 H647 0.950 . S
H644 C640 0.950 . S
C645 C643 1.390 . S
C645 C646 1.387 . S
C645 H648 0.950 . S
C646 C645 1.387 . S
C646 C649 1.387 . S
H647 C643 0.950 . S
H648 C645 0.950 . S
C649 C640 1.390 . S
C649 H642 0.950 . S
C649 C646 1.387 . S
C650 C651 1.387 . S
C650 H654 0.950 . S
C650 C659 1.390 . S
C651 C650 1.387 . S
C651 C653 1.387 . S
H652 C659 0.950 . S
C653 C651 1.387 . S
C653 C655 1.390 . S
C653 H657 0.950 . S
H654 C650 0.950 . S
C655 C653 1.390 . S
C655 C656 1.387 . S
C655 H658 0.950 . S
C656 C655 1.387 . S
C656 C659 1.387 . S
H657 C653 0.950 . S
H658 C655 0.950 . S
C659 C650 1.390 . S
C659 H652 0.950 . S
C659 C656 1.387 . S
C660 C661 1.387 . S
C660 H664 0.950 . S
C660 C669 1.390 . S
C661 C660 1.387 . S
C661 C663 1.387 . S
H662 C669 0.950 . S
C663 C661 1.387 . S
C663 C665 1.390 . S
C663 H667 0.950 . S
H664 C660 0.950 . S
C665 C663 1.390 . S
C665 C666 1.387 . S
C665 H668 0.950 . S
C666 C665 1.387 . S
C666 C669 1.387 . S
H667 C663 0.950 . S
H668 C665 0.950 . S
C669 C660 1.390 . S
C669 H662 0.950 . S
C669 C666 1.387 . S
C670 C671 1.387 . S
C670 H674 0.950 . S
C670 C679 1.390 . S
C671 C670 1.387 . S
C671 C673 1.387 . S
H672 C679 0.950 . S
C673 C671 1.387 . S
C673 C675 1.390 . S
C673 H677 0.950 . S
H674 C670 0.950 . S
C675 C673 1.390 . S
C675 C676 1.387 . S
C675 H678 0.950 . S
C676 C675 1.387 . S
C676 C679 1.387 . S
H677 C673 0.950 . S
H678 C675 0.950 . S
C679 C670 1.390 . S
C679 H672 0.950 . S
C679 C676 1.387 . S
C680 C681 1.387 . S
C680 H684 0.950 . S
C680 C689 1.390 . S
C681 C680 1.387 . S
C681 C683 1.387 . S
H682 C689 0.950 . S
C683 C681 1.387 . S
C683 C685 1.390 . S
C683 H687 0.950 . S
H684 C680 0.950 . S
C685 C683 1.390 . S
C685 C686 1.387 . S
C685 H688 0.950 . S
C686 C685 1.387 . S
C686 C689 1.387 . S
H687 C683 0.950 . S
H688 C685 0.950 . S
C689 C680 1.390 . S
C689 H682 0.950 . S
C689 C686 1.387 . S
C690 C691 1.387 . S
C690 H694 0.950 . S
C690 C699 1.390 . S
C691 C690 1.387 . S
C691 C693 1.387 . S
H692 C699 0.950 . S
C693 C691 1.387 . S
C693 C695 1.390 . S
C693 H697 0.950 . S
H694 C690 0.950 . S
C695 C693 1.390 . S
C695 C696 1.387 . S
C695 H698 0.950 . S
C696 C695 1.387 . S
C696 C699 1.387 . S
H697 C693 0.950 . S
H698 C695 0.950 . S
C699 C690 1.390 . S
C699 H692 0.950 . S
C699 C696 1.387 . S
C700 C701 1.387 . S
C700 H704 0.950 . S
C700 C709 1.390 . S
C701 C700 1.387 . S
C701 C703 1.387 . S
H702 C709 0.950 . S
C703 C701 1.387 . S
C703 C705 1.390 . S
C703 H707 0.950 . S
H704 C700 0.950 . S
C705 C703 1.390 . S
C705 C706 1.387 . S
C705 H708 0.950 . S
C706 C705 1.387 . S
C706 C709 1.387 . S
H707 C703 0.950 . S
H708 C705 0.950 . S
C709 C700 1.390 . S
C709 H702 0.950 . S
C709 C706 1.387 . S
C710 C711 1.387 . S
C710 H714 0.950 . S
C710 C719 1.390 . S
C711 C710 1.387 . S
C711 C713 1.387 . S
H712 C719 0.950 . S
C713 C711 1.387 . S
C713 C715 1.390 . S
C713 H717 0.950 . S
H714 C710 0.950 . S
C715 C713 1.390 . S
C715 C716 1.387 . S
C715 H718 0.950 . S
C716 C715 1.387 . S
C716 C719 1.387 . S
H717 C713 0.950 . S
H718 C715 0.950 . S
C719 C710 1.390 . S
C719 H712 0.950 . S
C719 C716 1.387 . S
C720 C721 1.387 . S
C720 H724 0.950 . S
C720 C729 1.390 . S
C721 C720 1.387 . S
C721 C723 1.387 . S
H722 C729 0.950 . S
C723 C721 1.387 . S
C723 C725 1.390 . S
C723 H727 0.950 . S
H724 C720 0.950 . S
C725 C723 1.390 . S
C725 C726 1.387 . S
C725 H728 0.950 . S
C726 C725 1.387 . S
C726 C729 1.387 . S
H727 C723 0.950 . S
H728 C725 0.950 . S
C729 C720 1.390 . S
C729 H722 0.950 . S
C729 C726 1.387 . S
C730 C731 1.387 . S
C730 H734 0.950 . S
C730 C739 1.390 . S
C731 C730 1.387 . S
C731 C733 1.387 . S
H732 C739 0.950 . S
C733 C731 1.387 . S
C733 C735 1.390 . S
C733 H737 0.950 . S
H734 C730 0.950 . S
C735 C733 1.390 . S
C735 C736 1.387 . S
C735 H738 0.950 . S
C736 C735 1.387 . S
C736 C739 1.387 . S
H737 C733 0.950 . S
H738 C735 0.950 . S
C739 C730 1.390 . S
C739 H732 0.950 . S
C739 C736 1.387 . S
C740 C741 1.387 . S
C740 H744 0.950 . S
C740 C749 1.390 . S
C741 C740 1.387 . S
C741 C743 1.387 . S
H742 C749 0.950 . S
C743 C741 1.387 . S
C743 C745 1.390 . S
C743 H747 0.950 . S
H744 C740 0.950 . S
C745 C743 1.390 . S
C745 C746 1.387 . S
C745 H748 0.950 . S
C746 C745 1.387 . S
C746 C749 1.387 . S
H747 C743 0.950 . S
H748 C745 0.950 . S
C749 C740 1.390 . S
C749 H742 0.950 . S
C749 C746 1.387 . S
C750 C751 1.387 . S
C750 H754 0.950 . S
C750 C759 1.390 . S
C751 C750 1.387 . S
C751 C753 1.387 . S
H752 C759 0.950 . S
C753 C751 1.387 . S
C753 C755 1.390 . S
C753 H757 0.950 . S
H754 C750 0.950 . S
C755 C753 1.390 . S
C755 C756 1.387 . S
C755 H758 0.950 . S
C756 C755 1.387 . S
C756 C759 1.387 . S
H757 C753 0.950 . S
H758 C755 0.950 . S
C759 C750 1.390 . S
C759 H752 0.950 . S
C759 C756 1.387 . S
C760 C761 1.387 . S
C760 H764 0.950 . S
C760 C769 1.390 . S
C761 C760 1.387 . S
C761 C763 1.387 . S
H762 C769 0.950 . S
C763 C761 1.387 . S
C763 C765 1.390 . S
C763 H767 0.950 . S
H764 C760 0.950 . S
C765 C763 1.390 . S
C765 C766 1.387 . S
C765 H768 0.950 . S
C766 C765 1.387 . S
C766 C769 1.387 . S
H767 C763 0.950 . S
H768 C765 0.950 . S
C769 C760 1.390 . S
C769 H762 0.950 . S
C769 C766 1.387 . S
C770 C771 1.387 . S
C770 H774 0.950 . S
C770 C779 1.390 . S
C771 C770 1.387 . S
C771 C773 1.387 . S
H772 C779 0.950 . S
C773 C771 1.387 . S
C773 C775 1.390 . S
C773 H777 0.950 . S
H774 C770 0.950 . S
C775 C773 1.390 . S
C775 C776 1.387 . S
C775 H778 0.950 . S
C776 C775 1.387 . S
C776 C779 1.387 . S
H777 C773 0.950 . S
H778 C775 0.950 . S
C779 C770 1.390 . S
C779 H772 0.950 . S
C779 C776 1.387 . S
C780 C781 1.387 1_554 S
C780 H784 0.950 . S
C780 C789 1.390 . S
C781 C780 1.387 1_556 S
C781 C783 1.387 . S
H782 C789 0.950 . S
C783 C781 1.387 . S
C783 C785 1.390 . S
C783 H787 0.950 . S
H784 C780 0.950 . S
C785 C783 1.390 . S
C785 C786 1.387 1_556 S
C785 H788 0.950 . S
C786 C785 1.387 1_554 S
C786 C789 1.387 . S
H787 C783 0.950 . S
H788 C785 0.950 . S
C789 C780 1.390 . S
C789 H782 0.950 . S
C789 C786 1.387 . S
C790 C791 1.387 . S
C790 H794 0.950 . S
C790 C799 1.390 1_455 S
C791 C790 1.387 . S
C791 C793 1.387 . S
H792 C799 0.950 . S
C793 C791 1.387 . S
C793 C795 1.390 1_455 S
C793 H797 0.950 . S
H794 C790 0.950 . S
C795 C793 1.390 1_655 S
C795 C796 1.387 . S
C795 H798 0.950 . S
C796 C795 1.387 . S
C796 C799 1.387 . S
H797 C793 0.950 . S
H798 C795 0.950 . S
C799 C790 1.390 1_655 S
C799 H792 0.950 . S
C799 C796 1.387 . S
C800 C801 1.387 . S
C800 H804 0.950 . S
C800 C809 1.390 1_564 S
C801 C800 1.387 . S
C801 C803 1.387 . S
H802 C809 0.950 . S
C803 C801 1.387 . S
C803 C805 1.390 1_564 S
C803 H807 0.950 . S
H804 C800 0.950 . S
C805 C803 1.390 1_546 S
C805 C806 1.387 . S
C805 H808 0.950 . S
C806 C805 1.387 . S
C806 C809 1.387 . S
H807 C803 0.950 . S
H808 C805 0.950 . S
C809 C800 1.390 1_546 S
C809 H802 0.950 . S
C809 C806 1.387 . S
C810 C811 1.387 . S
C810 H814 0.950 . S
C810 C819 1.390 . S
C811 C810 1.387 . S
C811 C813 1.387 . S
H812 C819 0.950 . S
C813 C811 1.387 . S
C813 C815 1.390 . S
C813 H817 0.950 . S
H814 C810 0.950 . S
C815 C813 1.390 . S
C815 C816 1.387 . S
C815 H818 0.950 . S
C816 C815 1.387 . S
C816 C819 1.387 . S
H817 C813 0.950 . S
H818 C815 0.950 . S
C819 C810 1.390 . S
C819 H812 0.950 . S
C819 C816 1.387 . S
C820 C821 1.387 . S
C820 H824 0.950 . S
C820 C829 1.390 1_655 S
C821 C820 1.387 . S
C821 C823 1.387 1_556 S
H822 C829 0.950 . S
C823 C821 1.387 1_554 S
C823 C825 1.390 1_655 S
C823 H827 0.950 . S
H824 C820 0.950 . S
C825 C823 1.390 1_455 S
C825 C826 1.387 . S
C825 H828 0.950 . S
C826 C825 1.387 . S
C826 C829 1.387 1_554 S
H827 C823 0.950 . S
H828 C825 0.950 . S
C829 C820 1.390 1_455 S
C829 H822 0.950 . S
C829 C826 1.387 1_556 S
C830 C831 1.387 . S
C830 H834 0.950 . S
C830 C839 1.390 1_565 S
C831 C830 1.387 . S
C831 C833 1.387 . S
H832 C839 0.950 . S
C833 C831 1.387 . S
C833 C835 1.390 1_565 S
C833 H837 0.950 . S
H834 C830 0.950 . S
C835 C833 1.390 1_545 S
C835 C836 1.387 . S
C835 H838 0.950 . S
C836 C835 1.387 . S
C836 C839 1.387 . S
H837 C833 0.950 . S
H838 C835 0.950 . S
C839 C830 1.390 1_545 S
C839 H832 0.950 . S
C839 C836 1.387 . S
C481 C163 1.403 . S
C486 C26 1.427 . S
C491 C203 1.401 . S
C496 C66 1.426 . S
C501 C106 1.426 . S
C506 C3 1.401 . S
C511 C146 1.426 . S
C516 C43 1.401 . S
C521 C186 1.427 . S
C526 C83 1.403 . S
C531 C123 1.403 . S
C536 C226 1.428 . S
C541 C323 1.404 . S
C546 C266 1.427 . S
C551 C306 1.427 . S
C556 C363 1.402 . S
C561 C403 1.403 . S
C566 C346 1.427 . S
C571 C386 1.427 . S
C576 C443 1.402 . S
C581 C426 1.428 . S
C586 C243 1.404 . S
C591 C283 1.402 . S
C596 C466 1.426 . S
C601 C182 1.827 . S
C606 C9 1.766 . S
C611 C49 1.762 . S
C616 C222 1.825 . S
C621 C89 1.762 . S
C626 C22 1.825 . S
C631 C129 1.765 . S
C636 C62 1.827 . S
C641 C102 1.825 . S
C646 C169 1.763 . S
C651 C142 1.827 . S
C656 C209 1.765 . S
C661 C342 1.825 . S
C666 C249 1.762 . S
C671 C289 1.763 . S
C676 C382 1.826 . S
C681 C329 1.763 . S
C686 C422 1.825 . S
C691 C462 1.827 . S
C696 C369 1.766 . S
C701 C409 1.763 . S
C706 C262 1.825 . S
C711 C302 1.825 . S
C716 C449 1.762 . S
C721 C415 1.638 . S
C726 C15 1.638 . S
C731 C55 1.634 . S
C736 C455 1.636 . S
C741 C95 1.638 . S
C746 C255 1.638 . S
C751 C135 1.634 . S
C756 C295 1.634 . S
C761 C175 1.634 . S
C766 C335 1.636 . S
C771 C375 1.638 . S
C776 C215 1.636 . S
C781 C362 2.337 . S
C786 C2 2.338 . S
C791 C402 2.337 . S
C796 C42 2.337 . S
C801 C82 2.337 . S
C806 C442 2.337 . S
C811 C122 2.339 . S
C816 C242 2.339 . S
C821 C282 2.338 . S
C826 C162 2.337 . S
C831 C322 2.339 . S
C836 C202 2.339 . S
