# Generated by pormake.
# Topology une, (4)-cn, num edge types: 1
# Building blocks:
#     Node 0, Type 0, BuildingBlock: KUFVIS_clean_sbu_0, # of connection points: 4
#     Node 1, Type 0, BuildingBlock: KUFVIS_clean_sbu_0, # of connection points: 4
#     Node 2, Type 0, BuildingBlock: KUFVIS_clean_sbu_0, # of connection points: 4
#     Node 3, Type 0, BuildingBlock: KUFVIS_clean_sbu_0, # of connection points: 4
#     Node 4, Type 0, BuildingBlock: KUFVIS_clean_sbu_0, # of connection points: 4
#     Node 5, Type 0, BuildingBlock: KUFVIS_clean_sbu_0, # of connection points: 4
#     Node 6, Type 0, BuildingBlock: KUFVIS_clean_sbu_0, # of connection points: 4
#     Node 7, Type 0, BuildingBlock: KUFVIS_clean_sbu_0, # of connection points: 4
#     Node 8, Type 0, BuildingBlock: KUFVIS_clean_sbu_0, # of connection points: 4
#     Node 9, Type 0, BuildingBlock: KUFVIS_clean_sbu_0, # of connection points: 4
#     Node 10, Type 0, BuildingBlock: KUFVIS_clean_sbu_0, # of connection points: 4
#     Node 11, Type 0, BuildingBlock: KUFVIS_clean_sbu_0, # of connection points: 4
#     Node 12, Type 0, BuildingBlock: KUFVIS_clean_sbu_0, # of connection points: 4
#     Node 13, Type 0, BuildingBlock: KUFVIS_clean_sbu_0, # of connection points: 4
#     Node 14, Type 0, BuildingBlock: KUFVIS_clean_sbu_0, # of connection points: 4
#     Node 15, Type 0, BuildingBlock: KUFVIS_clean_sbu_0, # of connection points: 4
#     Node 16, Type 0, BuildingBlock: KUFVIS_clean_sbu_0, # of connection points: 4
#     Node 17, Type 0, BuildingBlock: KUFVIS_clean_sbu_0, # of connection points: 4
#     Edge 18, Type (0, 0), BuildingBlock: UVAHIK_clean_linker_0, # of connection points: 2
#     Edge 19, Type (0, 0), BuildingBlock: UVAHIK_clean_linker_0, # of connection points: 2
#     Edge 20, Type (0, 0), BuildingBlock: UVAHIK_clean_linker_0, # of connection points: 2
#     Edge 21, Type (0, 0), BuildingBlock: UVAHIK_clean_linker_0, # of connection points: 2
#     Edge 22, Type (0, 0), BuildingBlock: UVAHIK_clean_linker_0, # of connection points: 2
#     Edge 23, Type (0, 0), BuildingBlock: UVAHIK_clean_linker_0, # of connection points: 2
#     Edge 24, Type (0, 0), BuildingBlock: UVAHIK_clean_linker_0, # of connection points: 2
#     Edge 25, Type (0, 0), BuildingBlock: UVAHIK_clean_linker_0, # of connection points: 2
#     Edge 26, Type (0, 0), BuildingBlock: UVAHIK_clean_linker_0, # of connection points: 2
#     Edge 27, Type (0, 0), BuildingBlock: UVAHIK_clean_linker_0, # of connection points: 2
#     Edge 28, Type (0, 0), BuildingBlock: UVAHIK_clean_linker_0, # of connection points: 2
#     Edge 29, Type (0, 0), BuildingBlock: UVAHIK_clean_linker_0, # of connection points: 2
#     Edge 30, Type (0, 0), BuildingBlock: UVAHIK_clean_linker_0, # of connection points: 2
#     Edge 31, Type (0, 0), BuildingBlock: UVAHIK_clean_linker_0, # of connection points: 2
#     Edge 32, Type (0, 0), BuildingBlock: UVAHIK_clean_linker_0, # of connection points: 2
#     Edge 33, Type (0, 0), BuildingBlock: UVAHIK_clean_linker_0, # of connection points: 2
#     Edge 34, Type (0, 0), BuildingBlock: UVAHIK_clean_linker_0, # of connection points: 2
#     Edge 35, Type (0, 0), BuildingBlock: UVAHIK_clean_linker_0, # of connection points: 2
#     Edge 36, Type (0, 0), BuildingBlock: UVAHIK_clean_linker_0, # of connection points: 2
#     Edge 37, Type (0, 0), BuildingBlock: UVAHIK_clean_linker_0, # of connection points: 2
#     Edge 38, Type (0, 0), BuildingBlock: UVAHIK_clean_linker_0, # of connection points: 2
#     Edge 39, Type (0, 0), BuildingBlock: UVAHIK_clean_linker_0, # of connection points: 2
#     Edge 40, Type (0, 0), BuildingBlock: UVAHIK_clean_linker_0, # of connection points: 2
#     Edge 41, Type (0, 0), BuildingBlock: UVAHIK_clean_linker_0, # of connection points: 2
#     Edge 42, Type (0, 0), BuildingBlock: UVAHIK_clean_linker_0, # of connection points: 2
#     Edge 43, Type (0, 0), BuildingBlock: UVAHIK_clean_linker_0, # of connection points: 2
#     Edge 44, Type (0, 0), BuildingBlock: UVAHIK_clean_linker_0, # of connection points: 2
#     Edge 45, Type (0, 0), BuildingBlock: UVAHIK_clean_linker_0, # of connection points: 2
#     Edge 46, Type (0, 0), BuildingBlock: UVAHIK_clean_linker_0, # of connection points: 2
#     Edge 47, Type (0, 0), BuildingBlock: UVAHIK_clean_linker_0, # of connection points: 2
#     Edge 48, Type (0, 0), BuildingBlock: UVAHIK_clean_linker_0, # of connection points: 2
#     Edge 49, Type (0, 0), BuildingBlock: UVAHIK_clean_linker_0, # of connection points: 2
#     Edge 50, Type (0, 0), BuildingBlock: UVAHIK_clean_linker_0, # of connection points: 2
#     Edge 51, Type (0, 0), BuildingBlock: UVAHIK_clean_linker_0, # of connection points: 2
#     Edge 52, Type (0, 0), BuildingBlock: UVAHIK_clean_linker_0, # of connection points: 2
#     Edge 53, Type (0, 0), BuildingBlock: UVAHIK_clean_linker_0, # of connection points: 2
# Relax obj value: 0.249
# Max RMSD: 0.168
# Mean RMSD: 0.160
data_MOF--net-une--node1-KUFVIS_clean_sbu_0--edge1-UVAHIK_clean_linker_0
_symmetry_space_group_name_H-M    P1
_symmetry_Int_Tables_number       1
_symmetry_cell_setting            triclinic
loop_
_symmetry_equiv_pos_as_xyz
'x, y, z'
_cell_length_a     48.613299
_cell_length_b     49.683369
_cell_length_c     68.593912
_cell_angle_alpha  89.579442
_cell_angle_beta   89.172701
_cell_angle_gamma 119.62644
loop_
_atom_site_label
_atom_site_type_symbol
_atom_site_fract_x
_atom_site_fract_y
_atom_site_fract_z
_atom_type_partial_charge
Mn0 Mn 0.39058 0.0984 0.06013 0.0
Mn1 Mn 0.41253 0.11948 0.01299 0.0
C2 C 0.37552 0.12977 0.04394 0.0
C3 C 0.39657 0.10849 0.09346 0.0
C4 C 0.35888 0.05645 0.02542 0.0
O5 O 0.42566 0.08719 0.05627 0.0
O6 O 0.43831 0.10306 0.02483 0.0
C7 C 0.4762 0.17242 0.0202 0.0
N8 N 0.44716 0.16097 0.01217 0.0
C9 C 0.46054 0.21105 0.99891 0.0
C10 C 0.4907 0.22335 0.00693 0.0
C11 C 0.49852 0.20395 0.01765 0.0
C12 C 0.43933 0.17944 0.0019 0.0
H13 H 0.48224 0.1576 0.02853 0.0
C14 C 0.44164 0.0908 0.04048 0.0
O15 O 0.37899 0.08053 0.08719 0.0
O16 O 0.4137 0.12946 0.08047 0.0
N17 N 0.38959 0.13575 0.99951 0.0
C18 C 0.3593 0.12036 0.99309 0.0
C19 C 0.34759 0.13652 0.98229 0.0
C20 C 0.36723 0.16818 0.978 0.0
C21 C 0.39852 0.18336 0.98442 0.0
C22 C 0.40895 0.16599 0.99499 0.0
H23 H 0.34412 0.09601 0.99632 0.0
O24 O 0.35979 0.11381 0.05918 0.0
O25 O 0.39986 0.12722 0.03857 0.0
O26 O 0.36148 0.06107 0.04376 0.0
O27 O 0.3764 0.07687 0.01263 0.0
C28 C 0.4196 0.21513 0.98102 0.0
C29 C 0.45057 0.22898 0.9883 0.0
H30 H 0.50794 0.24768 0.00505 0.0
H31 H 0.52169 0.21331 0.02396 0.0
H32 H 0.32344 0.12462 0.97734 0.0
H33 H 0.35803 0.18063 0.96982 0.0
H34 H 0.41214 0.22919 0.973 0.0
H35 H 0.46645 0.2535 0.98577 0.0
Mn36 Mn 0.90136 0.30589 0.05584 0.0
Mn37 Mn 0.8794 0.30304 0.00897 0.0
C38 C 0.86867 0.25892 0.04167 0.0
C39 C 0.89283 0.30437 0.08943 0.0
C40 C 0.94224 0.31025 0.02014 0.0
O41 O 0.91429 0.35141 0.05046 0.0
O42 O 0.90017 0.34584 0.01897 0.0
C43 C 0.82958 0.3194 0.01725 0.0
N44 N 0.83851 0.29969 0.00945 0.0
C45 C 0.78571 0.26559 0.99857 0.0
C46 C 0.77598 0.28561 0.0064 0.0
C47 C 0.79801 0.31259 0.01581 0.0
C48 C 0.81746 0.27355 1.0005 0.0
H49 H 0.84643 0.34011 0.02454 0.0
C50 C 0.91279 0.36259 0.03387 0.0
O51 O 0.92103 0.31419 0.08204 0.0
O52 O 0.87088 0.3001 0.07727 0.0
N53 N 0.85915 0.26346 0.99686 0.0
C54 C 0.87253 0.24694 0.98977 0.0
C55 C 0.85372 0.2193 0.97987 0.0
C56 C 0.82155 0.2093 0.977 0.0
C57 C 0.80857 0.22722 0.98386 0.0
C58 C 0.82852 0.25462 0.99355 0.0
H59 H 0.8973 0.25464 0.99182 0.0
O60 O 0.88502 0.2606 0.05674 0.0
O61 O 0.87105 0.2848 0.03532 0.0
O62 O 0.93835 0.31188 0.03844 0.0
O63 O 0.92124 0.30572 0.00758 0.0
C64 C 0.77657 0.21886 0.98163 0.0
C65 C 0.76511 0.23796 0.98905 0.0
H66 H 0.75164 0.28044 0.00532 0.0
H67 H 0.79065 0.3281 0.02195 0.0
H68 H 0.86398 0.20572 0.97449 0.0
H69 H 0.80707 0.18786 0.96948 0.0
H70 H 0.76052 0.1977 0.97432 0.0
H71 H 0.74042 0.23119 0.98734 0.0
Mn72 Mn 0.7029 0.60253 0.06818 0.0
Mn73 Mn 0.7043 0.57999 0.02195 0.0
C74 C 0.75014 0.61529 0.05259 0.0
C75 C 0.70639 0.59829 0.10176 0.0
C76 C 0.69609 0.63477 0.03178 0.0
O77 O 0.65641 0.56941 0.06477 0.0
O78 O 0.66119 0.55737 0.03367 0.0
C79 C 0.69033 0.51634 0.03195 0.0
N80 N 0.70934 0.54422 0.02301 0.0
C81 C 0.74479 0.52707 0.01107 0.0
C82 C 0.72545 0.49807 0.02001 0.0
C83 C 0.69817 0.49273 0.03056 0.0
C84 C 0.73584 0.54973 0.01304 0.0
H85 H 0.66939 0.51217 0.0401 0.0
C86 C 0.64474 0.55444 0.0491 0.0
O87 O 0.6958 0.61553 0.09438 0.0
O88 O 0.70985 0.57998 0.08985 0.0
N89 N 0.74445 0.5998 0.00852 0.0
C90 C 0.76063 0.62908 1.00085 0.0
C91 C 0.78873 0.63829 0.99003 0.0
C92 C 0.79955 0.61714 0.98689 0.0
C93 C 0.78202 0.58688 0.99448 0.0
C94 C 0.75422 0.57904 0.00514 0.0
H95 H 0.75229 0.64535 0.00309 0.0
O96 O 0.74929 0.63138 0.06705 0.0
O97 O 0.72337 0.59185 0.04757 0.0
O98 O 0.69593 0.63148 0.05026 0.0
O99 O 0.69984 0.6173 0.0197 0.0
C100 C 0.79113 0.56423 0.99196 0.0
C101 C 0.77266 0.53442 1.00037 0.0
H102 H 0.7314 0.47979 0.01895 0.0
H103 H 0.68321 0.47047 0.03758 0.0
H104 H 0.80202 0.66163 0.98413 0.0
H105 H 0.82133 0.62438 0.97864 0.0
H106 H 0.81242 0.56956 0.98369 0.0
H107 H 0.78011 0.51732 0.99852 0.0
Mn108 Mn 0.62524 0.90655 0.94459 0.0
Mn109 Mn 0.60576 0.88693 0.99211 0.0
C110 C 0.64199 0.87654 0.96081 0.0
C111 C 0.61812 0.89501 0.91148 0.0
C112 C 0.65744 0.95023 0.97848 0.0
O113 O 0.58939 0.91659 0.94883 0.0
O114 O 0.57849 0.90186 0.98056 0.0
C115 C 0.54241 0.83261 0.98634 0.0
N116 N 0.57199 0.84506 0.99374 0.0
C117 C 0.5608 0.79576 0.00728 0.0
C118 C 0.53014 0.78246 0.99992 0.0
C119 C 0.52093 0.80096 0.98937 0.0
C120 C 0.58112 0.82745 0.00387 0.0
H121 H 0.53533 0.84674 0.97814 0.0
C122 C 0.57402 0.91321 0.96487 0.0
O123 O 0.63532 0.92336 0.91724 0.0
O124 O 0.60189 0.87443 0.92487 0.0
N125 N 0.63031 0.8721 0.00519 0.0
C126 C 0.66101 0.88834 0.01081 0.0
C127 C 0.6741 0.87312 0.02126 0.0
C128 C 0.65543 0.84147 0.02598 0.0
C129 C 0.62375 0.82539 0.02033 0.0
C130 C 0.61192 0.84185 0.0101 0.0
H131 H 0.67545 0.91266 0.00721 0.0
O132 O 0.65701 0.8923 0.94535 0.0
O133 O 0.61755 0.87873 0.96644 0.0
O134 O 0.65417 0.94486 0.96025 0.0
O135 O 0.64106 0.93004 0.99167 0.0
C136 C 0.60359 0.79355 0.02417 0.0
C137 C 0.57216 0.77874 0.01761 0.0
H138 H 0.51354 0.75802 0.00215 0.0
H139 H 0.49736 0.79082 0.98356 0.0
H140 H 0.69856 0.8857 0.0256 0.0
H141 H 0.6657 0.82974 0.03388 0.0
H142 H 0.61214 0.78017 0.03194 0.0
H143 H 0.557 0.75418 0.02045 0.0
Mn144 Mn 0.08604 0.70011 0.94148 0.0
Mn145 Mn 0.04873 0.74141 0.93474 0.0
C146 C 0.04461 0.69272 0.96181 0.0
C147 C 0.08671 0.65369 0.93815 0.0
C148 C 0.11222 0.76709 0.95427 0.0
O149 O 0.10169 0.71835 0.9139 0.0
O150 O 0.074 0.7437 0.91123 0.0
C151 C 0.00451 0.70187 0.90463 0.0
N152 N 0.00953 0.71592 0.92221 0.0
C153 C 0.95365 0.6955 0.92773 0.0
C154 C 0.9479 0.68107 0.90959 0.0
C155 C 0.97344 0.6842 0.89801 0.0
C156 C 0.98512 0.7129 0.93352 0.0
H157 H 0.02406 0.70403 0.89577 0.0
C158 C 0.09356 0.73567 0.90451 0.0
O159 O 0.11196 0.67883 0.94331 0.0
O160 O 0.06334 0.65692 0.93226 0.0
N161 N 0.0233 0.74141 0.95631 0.0
C162 C 0.03283 0.75591 0.97371 0.0
C163 C 0.01011 0.75459 0.98716 0.0
C164 C 0.97791 0.73869 0.98249 0.0
C165 C 0.96872 0.72437 0.96437 0.0
C166 C 0.99245 0.72671 0.95149 0.0
H167 H 0.05756 0.76821 0.97736 0.0
O168 O 0.06492 0.68489 0.96747 0.0
O169 O 0.04882 0.7045 0.94433 0.0
O170 O 0.11517 0.74299 0.95276 0.0
O171 O 0.08834 0.76868 0.94814 0.0
C172 C 0.93691 0.70739 0.95872 0.0
C173 C 0.92937 0.69289 0.94044 0.0
H174 H 0.92396 0.66731 0.90447 0.0
H175 H 0.96917 0.67294 0.88406 0.0
H176 H 0.01739 0.76572 1.00111 0.0
H177 H 0.96043 0.73751 0.99295 0.0
H178 H 0.91803 0.70499 0.96844 0.0
H179 H 0.90481 0.67957 0.93637 0.0
Mn180 Mn 0.29692 0.39295 0.93621 0.0
Mn181 Mn 0.2962 0.4147 0.98271 0.0
C182 C 0.24983 0.3775 0.95281 0.0
C183 C 0.29141 0.39716 0.90281 0.0
C184 C 0.30796 0.36236 0.97195 0.0
O185 O 0.34278 0.4279 0.93892 0.0
O186 O 0.33861 0.43926 0.97028 0.0
C187 C 0.30607 0.47716 0.97333 0.0
N188 N 0.28866 0.44897 0.98227 0.0
C189 C 0.2514 0.46323 0.99511 0.0
C190 C 0.26908 0.49251 0.98617 0.0
C191 C 0.29647 0.49945 0.97518 0.0
C192 C 0.26212 0.44195 0.99274 0.0
H193 H 0.32708 0.48255 0.96482 0.0
C194 C 0.3546 0.4431 0.9545 0.0
O195 O 0.30366 0.38097 0.90955 0.0
O196 O 0.28721 0.41447 0.91518 0.0
N197 N 0.25669 0.393 0.99673 0.0
C198 C 0.242 0.36351 0.00411 0.0
C199 C 0.21388 0.35267 0.01519 0.0
C200 C 0.20148 0.37242 0.01886 0.0
C201 C 0.21745 0.40292 0.01152 0.0
C202 C 0.24539 0.41242 1.00059 0.0
H203 H 0.25153 0.34829 1.0014 0.0
O204 O 0.2511 0.36206 0.93809 0.0
O205 O 0.27609 0.40193 0.95745 0.0
O206 O 0.30699 0.36544 0.95352 0.0
O207 O 0.30337 0.37896 0.98431 0.0
C208 C 0.20655 0.42415 0.01442 0.0
C209 C 0.22342 0.45422 0.00614 0.0
H210 H 0.26173 0.50975 0.98754 0.0
H211 H 0.31015 0.52194 0.96814 0.0
H212 H 0.20178 0.32915 0.02088 0.0
H213 H 0.17967 0.36392 0.02729 0.0
H214 H 0.18508 0.4175 0.02286 0.0
H215 H 0.2146 0.47021 0.00828 0.0
Mn216 Mn 0.05902 0.43227 0.39179 0.0
Mn217 Mn 0.07801 0.44854 0.34389 0.0
C218 C 0.04116 0.46019 0.37424 0.0
C219 C 0.06626 0.44589 0.4246 0.0
C220 C 0.02686 0.38603 0.35906 0.0
O221 O 0.09523 0.42257 0.38844 0.0
O222 O 0.10575 0.43505 0.3564 0.0
C223 C 0.14103 0.50381 0.34869 0.0
N224 N 0.11145 0.49043 0.34121 0.0
C225 C 0.12231 0.53822 0.32546 0.0
C226 C 0.15298 0.55247 0.33287 0.0
C227 C 0.16234 0.53519 0.34458 0.0
C228 C 0.10213 0.50688 0.33004 0.0
H229 H 0.14825 0.49062 0.35774 0.0
C230 C 0.11057 0.42507 0.37254 0.0
O231 O 0.04936 0.41717 0.41949 0.0
O232 O 0.08209 0.4658 0.41079 0.0
N233 N 0.05312 0.46186 0.32975 0.0
C234 C 0.02247 0.44484 0.32417 0.0
C235 C 0.00921 0.45886 0.31267 0.0
C236 C 0.02771 0.49004 0.3068 0.0
C237 C 0.05939 0.50687 0.31238 0.0
C238 C 0.07133 0.49165 0.32379 0.0
H239 H 0.00819 0.42084 0.32859 0.0
O240 O 0.02669 0.44564 0.39014 0.0
O241 O 0.066 0.45838 0.36903 0.0
O242 O 0.03028 0.39275 0.37711 0.0
O243 O 0.04306 0.40529 0.34539 0.0
C244 C 0.07948 0.53826 0.30727 0.0
C245 C 0.11086 0.55397 0.31388 0.0
H246 H 0.16947 0.57668 0.32977 0.0
H247 H 0.18592 0.54606 0.35044 0.0
H248 H 0.98477 0.44567 0.30837 0.0
H249 H 0.01733 0.50083 0.29806 0.0
H250 H 0.07093 0.55062 0.29841 0.0
H251 H 0.12595 0.5782 0.31006 0.0
Mn252 Mn 0.56535 0.63811 0.38899 0.0
Mn253 Mn 0.54092 0.63766 0.343 0.0
C254 C 0.53231 0.59193 0.37406 0.0
C255 C 0.55781 0.63457 0.42277 0.0
C256 C 0.60482 0.64531 0.35198 0.0
O257 O 0.57772 0.6838 0.38498 0.0
O258 O 0.56141 0.67978 0.35399 0.0
C259 C 0.49059 0.65203 0.35411 0.0
N260 N 0.49963 0.6332 0.34514 0.0
C261 C 0.44619 0.59818 0.33572 0.0
C262 C 0.43633 0.6173 0.34475 0.0
C263 C 0.45862 0.64431 0.35403 0.0
C264 C 0.47833 0.60702 0.33634 0.0
H265 H 0.50762 0.67272 0.36133 0.0
C266 C 0.57483 0.69572 0.36904 0.0
O267 O 0.58582 0.64485 0.41493 0.0
O268 O 0.53552 0.63092 0.41109 0.0
N269 N 0.52072 0.59875 0.33009 0.0
C270 C 0.53434 0.58353 0.32138 0.0
C271 C 0.51537 0.55625 0.31119 0.0
C272 C 0.48274 0.54526 0.30973 0.0
C273 C 0.46945 0.56188 0.31826 0.0
C274 C 0.48958 0.58904 0.3281 0.0
H275 H 0.55945 0.59202 0.32234 0.0
O276 O 0.54928 0.59278 0.3886 0.0
O277 O 0.5343 0.61807 0.36878 0.0
O278 O 0.60166 0.64541 0.37049 0.0
O279 O 0.5832 0.64147 0.34006 0.0
C280 C 0.43703 0.55258 0.31738 0.0
C281 C 0.42537 0.57065 0.32618 0.0
H282 H 0.4117 0.61143 0.34471 0.0
H283 H 0.45118 0.65912 0.3611 0.0
H284 H 0.52585 0.54371 0.30449 0.0
H285 H 0.46816 0.52417 0.30191 0.0
H286 H 0.42084 0.53156 0.31 0.0
H287 H 0.40038 0.56321 0.32547 0.0
Mn288 Mn 0.36397 0.92723 0.40596 0.0
Mn289 Mn 0.36883 0.90994 0.35888 0.0
C290 C 0.41251 0.94504 0.39067 0.0
C291 C 0.36708 0.92052 0.4393 0.0
C292 C 0.35564 0.96087 0.37081 0.0
O293 O 0.31865 0.89222 0.40153 0.0
O294 O 0.32555 0.88424 0.36992 0.0
C295 C 0.35895 0.84709 0.36688 0.0
N296 N 0.37669 0.87586 0.35873 0.0
C297 C 0.41507 0.86287 0.34619 0.0
C298 C 0.3971 0.83303 0.35432 0.0
C299 C 0.36897 0.82515 0.36477 0.0
C300 C 0.40396 0.88379 0.34884 0.0
H301 H 0.33737 0.84098 0.37495 0.0
C302 C 0.3082 0.87869 0.38528 0.0
O303 O 0.35469 0.93666 0.43269 0.0
O304 O 0.37251 0.90434 0.42666 0.0
N305 N 0.40912 0.93277 0.34584 0.0
C306 C 0.42352 0.96242 0.33874 0.0
C307 C 0.45179 0.97387 0.32774 0.0
C308 C 0.46466 0.95457 0.32387 0.0
C309 C 0.44908 0.92396 0.33099 0.0
C310 C 0.42084 0.91376 0.34172 0.0
H311 H 0.41357 0.97726 0.34151 0.0
O312 O 0.40958 0.95874 0.40583 0.0
O313 O 0.38703 0.92078 0.38482 0.0
O314 O 0.35477 0.95587 0.38915 0.0
O315 O 0.36158 0.94567 0.35806 0.0
C316 C 0.46056 0.90322 0.32796 0.0
C317 C 0.44366 0.87274 0.33564 0.0
H318 H 0.40473 0.81603 0.35272 0.0
H319 H 0.35504 0.8022 0.37116 0.0
H320 H 0.46363 0.99749 0.32223 0.0
H321 H 0.48648 0.96347 0.3154 0.0
H322 H 0.48248 0.91053 0.31985 0.0
H323 H 0.45284 0.85708 0.33334 0.0
Mn324 Mn 0.29256 0.23664 0.28274 0.0
Mn325 Mn 0.2666 0.21807 0.32952 0.0
C326 C 0.3057 0.20574 0.30113 0.0
C327 C 0.2884 0.22497 0.24961 0.0
C328 C 0.32052 0.28082 0.31668 0.0
O329 O 0.25777 0.24868 0.28459 0.0
O330 O 0.24031 0.23177 0.31545 0.0
C331 C 0.20457 0.16277 0.32239 0.0
N332 N 0.23323 0.17603 0.33108 0.0
C333 C 0.22103 0.12785 0.34684 0.0
C334 C 0.19128 0.1137 0.33815 0.0
C335 C 0.18305 0.13123 0.32584 0.0
C336 C 0.24144 0.15936 0.3429 0.0
H337 H 0.19823 0.17619 0.31289 0.0
C338 C 0.23936 0.24442 0.29931 0.0
O339 O 0.30601 0.25315 0.25552 0.0
O340 O 0.27038 0.20466 0.26269 0.0
N341 N 0.29011 0.20449 0.34489 0.0
C342 C 0.32022 0.22133 0.35142 0.0
C343 C 0.33245 0.20703 0.36354 0.0
C344 C 0.3135 0.1757 0.36897 0.0
C345 C 0.28243 0.15899 0.3623 0.0
C346 C 0.27149 0.17451 0.35034 0.0
H347 H 0.33484 0.24542 0.3473 0.0
O348 O 0.32257 0.22055 0.28589 0.0
O349 O 0.28139 0.20913 0.3051 0.0
O350 O 0.32101 0.27461 0.29872 0.0
O351 O 0.30113 0.26159 0.32937 0.0
C352 C 0.26204 0.12743 0.36681 0.0
C353 C 0.23142 0.11183 0.35902 0.0
H354 H 0.17466 0.08935 0.34072 0.0
H355 H 0.16019 0.12044 0.31901 0.0
H356 H 0.35644 0.2201 0.36864 0.0
H357 H 0.3231 0.16469 0.37819 0.0
H358 H 0.26984 0.11482 0.37606 0.0
H359 H 0.21614 0.08744 0.36236 0.0
Mn360 Mn 0.74628 0.03543 0.27372 0.0
Mn361 Mn 0.71652 0.08325 0.26583 0.0
C362 C 0.70557 0.03229 0.29316 0.0
C363 C 0.74275 0.98696 0.27121 0.0
C364 C 0.77748 0.10267 0.28709 0.0
O365 O 0.76432 0.05278 0.24626 0.0
O366 O 0.74254 0.08356 0.24331 0.0
C367 C 0.6734 0.04733 0.23424 0.0
N368 N 0.67815 0.0614 0.2518 0.0
C369 C 0.62349 0.04824 0.25446 0.0
C370 C 0.61811 0.03402 0.23626 0.0
C371 C 0.64314 0.0334 0.22616 0.0
C372 C 0.65413 0.06166 0.26179 0.0
H373 H 0.69252 0.04664 0.22651 0.0
C374 C 0.75973 0.07257 0.23685 0.0
O375 O 0.76888 0.01107 0.27645 0.0
O376 O 0.7209 0.99219 0.26475 0.0
N377 N 0.69062 0.08556 0.28629 0.0
C378 C 0.69941 0.09885 0.30409 0.0
C379 C 0.67684 0.10032 0.31637 0.0
C380 C 0.64567 0.08872 0.31007 0.0
C381 C 0.63735 0.07572 0.29153 0.0
C382 C 0.66082 0.07477 0.27997 0.0
H383 H 0.7234 0.10801 0.30894 0.0
O384 O 0.72357 0.0219 0.29936 0.0
O385 O 0.71147 0.04407 0.27561 0.0
O386 O 0.7779 0.0773 0.28517 0.0
O387 O 0.75542 0.10707 0.28071 0.0
C388 C 0.6066 0.0633 0.28416 0.0
C389 C 0.59961 0.04935 0.26571 0.0
H390 H 0.5948 0.02325 0.22998 0.0
H391 H 0.63912 0.02222 0.21219 0.0
H392 H 0.68346 0.11045 0.33064 0.0
H393 H 0.62829 0.08978 0.31961 0.0
H394 H 0.58803 0.06402 0.29266 0.0
H395 H 0.57574 0.03939 0.26036 0.0
Mn396 Mn 0.95973 0.72374 0.26996 0.0
Mn397 Mn 0.95548 0.74102 0.31705 0.0
C398 C 0.91152 0.70864 0.28506 0.0
C399 C 0.95745 0.73103 0.23659 0.0
C400 C 0.96569 0.68832 0.3049 0.0
O401 O 0.00573 0.75711 0.27466 0.0
O402 O -0.00081 0.76534 0.30632 0.0
C403 C 0.96903 0.80532 0.30995 0.0
N404 N 0.94984 0.77644 0.31758 0.0
C405 C 0.91299 0.79147 0.33008 0.0
C406 C 0.9325 0.82146 0.3225 0.0
C407 C 0.96059 0.82837 0.31234 0.0
C408 C 0.92262 0.76947 0.32723 0.0
H409 H 0.99058 0.81069 0.30207 0.0
C410 C 0.01648 0.77028 0.29098 0.0
O411 O 0.96839 0.71366 0.24326 0.0
O412 O 0.95303 0.7479 0.24922 0.0
N413 N 0.91457 0.71931 0.32946 0.0
C414 C 0.89803 0.68909 0.33545 0.0
C415 C 0.86899 0.67822 0.34551 0.0
C416 C 0.85755 0.69863 0.34959 0.0
C417 C 0.87534 0.72978 0.34368 0.0
C418 C 0.90411 0.73929 0.33371 0.0
H419 H 0.9068 0.67336 0.33241 0.0
O420 O 0.91348 0.69412 0.27003 0.0
O421 O 0.93781 0.73179 0.29098 0.0
O422 O 0.96681 0.69362 0.28661 0.0
O423 O 0.96058 0.70398 0.31772 0.0
C424 C 0.86552 0.75171 0.34709 0.0
C425 C 0.88423 0.78249 0.3402 0.0
H426 H 0.92606 0.83929 0.3243 0.0
H427 H 0.97569 0.85141 0.30635 0.0
H428 H 0.85546 0.65417 0.35009 0.0
H429 H 0.83504 0.69011 0.35724 0.0
H430 H 0.84346 0.74509 0.35484 0.0
H431 H 0.87622 0.79903 0.34269 0.0
Mn432 Mn 0.71941 0.76164 0.72504 0.0
Mn433 Mn 0.74024 0.77877 0.6774 0.0
C434 C 0.7036 0.79127 0.70756 0.0
C435 C 0.72628 0.77445 0.75797 0.0
C436 C 0.68747 0.71655 0.69188 0.0
O437 O 0.7545 0.75025 0.72174 0.0
O438 O 0.76742 0.76484 0.69011 0.0
C439 C 0.80332 0.83366 0.68277 0.0
N440 N 0.77391 0.82061 0.67506 0.0
C441 C 0.78538 0.8688 0.65964 0.0
C442 C 0.81588 0.88272 0.66729 0.0
C443 C 0.82485 0.86509 0.67895 0.0
C444 C 0.76498 0.83739 0.66391 0.0
H445 H 0.81023 0.8202 0.6918 0.0
C446 C 0.77084 0.75356 0.70614 0.0
O447 O 0.70866 0.74598 0.75259 0.0
O448 O 0.74307 0.7944 0.74439 0.0
N449 N 0.71583 0.79259 0.66317 0.0
C450 C 0.68522 0.7759 0.65745 0.0
C451 C 0.6723 0.79031 0.64602 0.0
C452 C 0.69108 0.82157 0.64039 0.0
C453 C 0.72269 0.83808 0.64614 0.0
C454 C 0.7343 0.82246 0.65745 0.0
H455 H 0.67072 0.75185 0.66171 0.0
O456 O 0.68851 0.77678 0.72334 0.0
O457 O 0.72791 0.78844 0.70249 0.0
O458 O 0.68972 0.72304 0.70995 0.0
O459 O 0.7051 0.73554 0.67848 0.0
C460 C 0.743 0.86955 0.64133 0.0
C461 C 0.77427 0.88494 0.64814 0.0
H462 H 0.83253 0.90698 0.66442 0.0
H463 H 0.8483 0.87571 0.68499 0.0
H464 H 0.64791 0.77738 0.6416 0.0
H465 H 0.68095 0.83267 0.63171 0.0
H466 H 0.73469 0.88224 0.63259 0.0
H467 H 0.78953 0.90924 0.64457 0.0
Mn468 Mn 0.22904 0.96987 0.72224 0.0
Mn469 Mn 0.20465 0.96884 0.67618 0.0
C470 C 0.19468 0.92358 0.70791 0.0
C471 C 0.22236 0.9676 0.75603 0.0
C472 C 0.26747 0.9742 0.68525 0.0
O473 O 0.24291 0.01583 0.71765 0.0
O474 O 0.22702 0.01136 0.68657 0.0
C475 C 0.15662 0.98654 0.68697 0.0
N476 N 0.16426 0.96647 0.67829 0.0
C477 C 0.11025 0.93306 0.66922 0.0
C478 C 0.10183 0.95347 0.67796 0.0
C479 C 0.12511 0.98029 0.68691 0.0
C480 C 0.14199 0.94045 0.66983 0.0
H481 H 0.17442 0.00711 0.69392 0.0
C482 C 0.24082 0.0276 0.70144 0.0
O483 O 0.25005 0.97698 0.74797 0.0
O484 O 0.19999 0.96428 0.74451 0.0
N485 N 0.1827 0.9296 0.66375 0.0
C486 C 0.19504 0.91314 0.65517 0.0
C487 C 0.17498 0.8859 0.64526 0.0
C488 C 0.14261 0.87625 0.64391 0.0
C489 C 0.13068 0.89416 0.65226 0.0
C490 C 0.15185 0.9212 0.66184 0.0
H491 H 0.21995 0.92061 0.65603 0.0
O492 O 0.21158 0.92434 0.72246 0.0
O493 O 0.19751 0.94992 0.70223 0.0
O494 O 0.2646 0.97538 0.7037 0.0
O495 O 0.24597 0.9705 0.67327 0.0
C496 C 0.09863 0.8863 0.65142 0.0
C497 C 0.08839 0.90566 0.65998 0.0
H498 H 0.07756 0.94875 0.67792 0.0
H499 H 0.11878 0.99609 0.69374 0.0
H500 H 0.18443 0.87236 0.63868 0.0
H501 H 0.12719 0.8552 0.63629 0.0
H502 H 0.08165 0.8654 0.64425 0.0
H503 H 0.06367 0.89933 0.6593 0.0
Mn504 Mn 0.03171 0.26632 0.73609 0.0
Mn505 Mn 0.029 0.24309 0.68956 0.0
C506 C 0.07761 0.27882 0.71888 0.0
C507 C 0.03746 0.26198 0.76943 0.0
C508 C 0.02082 0.2975 0.70076 0.0
O509 O 0.98482 0.23331 0.73373 0.0
O510 O 0.98718 0.21924 0.70274 0.0
C511 C 0.01844 0.18029 0.69853 0.0
N512 N 0.0358 0.20838 0.68947 0.0
C513 C 0.07159 0.19316 0.67543 0.0
C514 C 0.05396 0.16397 0.6845 0.0
C515 C 0.02733 0.15756 0.69616 0.0
C516 C 0.06163 0.21489 0.67837 0.0
H517 H 0.99799 0.17532 0.70752 0.0
C518 C 0.97199 0.21715 0.7186 0.0
O519 O 0.02657 0.27936 0.76271 0.0
O520 O 0.04006 0.24365 0.75709 0.0
N521 N 0.06787 0.26423 0.67484 0.0
C522 C 0.08262 0.29369 0.66741 0.0
C523 C 0.11 0.304 0.65565 0.0
C524 C 0.12159 0.28376 0.65139 0.0
C525 C 0.10557 0.25333 0.65882 0.0
C526 C 0.0784 0.24436 0.67044 0.0
H527 H 0.07369 0.30928 0.67056 0.0
O528 O 0.0781 0.29491 0.73372 0.0
O529 O 0.05032 0.2555 0.71451 0.0
O530 O 0.02383 0.29553 0.71906 0.0
O531 O 0.02238 0.27923 0.68833 0.0
C532 C 0.11563 0.2316 0.6553 0.0
C533 C 0.09878 0.20161 0.6637 0.0
H534 H 0.06074 0.14638 0.68271 0.0
H535 H 0.01369 0.13514 0.70328 0.0
H536 H 0.12215 0.32748 0.6499 0.0
H537 H 0.14282 0.29185 0.64242 0.0
H538 H 0.13646 0.23782 0.64629 0.0
H539 H 0.107 0.18525 0.66109 0.0
Mn540 Mn 0.95653 0.57199 0.6124 0.0
Mn541 Mn 0.92764 0.55093 0.65846 0.0
C542 C 0.96869 0.54028 0.63069 0.0
C543 C 0.95415 0.56182 0.57908 0.0
C544 C 0.98214 0.61439 0.64732 0.0
O545 O 0.92168 0.58401 0.61384 0.0
O546 O 0.90197 0.56499 0.64404 0.0
C547 C 0.86667 0.49567 0.64931 0.0
N548 N 0.89468 0.50867 0.65876 0.0
C549 C 0.88251 0.45958 0.67311 0.0
C550 C 0.85341 0.44567 0.66364 0.0
C551 C 0.8455 0.4638 0.65166 0.0
C552 C 0.9026 0.49144 0.67025 0.0
H553 H 0.86059 0.50953 0.64003 0.0
C554 C 0.90219 0.57872 0.62811 0.0
O555 O 0.97148 0.58971 0.58553 0.0
O556 O 0.93544 0.54099 0.59169 0.0
N557 N 0.95043 0.53689 0.67415 0.0
C558 C 0.97968 0.55377 0.68188 0.0
C559 C 0.99132 0.53908 0.69414 0.0
C560 C 0.97267 0.50728 0.69843 0.0
C561 C 0.94246 0.49048 0.6905 0.0
C562 C 0.932 0.50645 0.67856 0.0
H563 H 0.99407 0.57823 0.67866 0.0
O564 O 0.98635 0.5557 0.61585 0.0
O565 O 0.94419 0.5435 0.63426 0.0
O566 O 0.98395 0.60903 0.62933 0.0
O567 O 0.96183 0.59461 0.65943 0.0
C568 C 0.92244 0.45848 0.69383 0.0
C569 C 0.89254 0.44302 0.68508 0.0
H570 H 0.83707 0.42108 0.66536 0.0
H571 H 0.82316 0.45321 0.64423 0.0
H572 H 0.01463 0.55221 0.70023 0.0
H573 H 0.98181 0.49602 0.7078 0.0
H574 H 0.92993 0.44548 0.70294 0.0
H575 H 0.87751 0.41835 0.68756 0.0
Mn576 Mn 0.41337 0.36298 0.60654 0.0
Mn577 Mn 0.37759 0.40592 0.60083 0.0
C578 C 0.37158 0.35532 0.62666 0.0
C579 C 0.41352 0.31636 0.60295 0.0
C580 C 0.43983 0.42913 0.62123 0.0
O581 O 0.42979 0.38201 0.57922 0.0
O582 O 0.40482 0.41011 0.57789 0.0
C583 C 0.33611 0.36948 0.56873 0.0
N584 N 0.33961 0.38206 0.58672 0.0
C585 C 0.28346 0.36203 0.59032 0.0
C586 C 0.27931 0.34924 0.57171 0.0
C587 C 0.30575 0.35289 0.56091 0.0
C588 C 0.3143 0.37841 0.59732 0.0
H589 H 0.35631 0.37194 0.56047 0.0
C590 C 0.42348 0.40132 0.57067 0.0
O591 O 0.43886 0.34128 0.60825 0.0
O592 O 0.39046 0.32 0.59692 0.0
N593 N 0.35025 0.40417 0.62178 0.0
C594 C 0.35811 0.41674 0.63982 0.0
C595 C 0.33429 0.41463 0.65263 0.0
C596 C 0.30269 0.39986 0.6467 0.0
C597 C 0.29519 0.38738 0.628 0.0
C598 C 0.31999 0.39048 0.6158 0.0
H599 H 0.3823 0.42792 0.64449 0.0
O600 O 0.39163 0.34715 0.63231 0.0
O601 O 0.37637 0.36788 0.60938 0.0
O602 O 0.44285 0.40535 0.61826 0.0
O603 O 0.41595 0.43144 0.61591 0.0
C604 C 0.26403 0.37147 0.62112 0.0
C605 C 0.25815 0.35871 0.60232 0.0
H606 H 0.25592 0.3363 0.56566 0.0
H607 H 0.30272 0.34284 0.54661 0.0
H608 H 0.34026 0.42422 0.66707 0.0
H609 H 0.28434 0.39805 0.65667 0.0
H610 H 0.24436 0.36853 0.63028 0.0
H611 H 0.23404 0.34616 0.5973 0.0
Mn612 Mn 0.62399 0.05683 0.60486 0.0
Mn613 Mn 0.61945 0.07429 0.65187 0.0
C614 C 0.57566 0.04025 0.62017 0.0
C615 C 0.62076 0.06328 0.5715 0.0
C616 C 0.63221 0.02309 0.63991 0.0
O617 O 0.6695 0.0915 0.60928 0.0
O618 O 0.66287 0.09986 0.64093 0.0
C619 C 0.63021 0.1376 0.64454 0.0
N620 N 0.61201 0.10862 0.65229 0.0
C621 C 0.57371 0.12175 0.66479 0.0
C622 C 0.59218 0.15182 0.65708 0.0
C623 C 0.6205 0.15974 0.64686 0.0
C624 C 0.5846 0.10068 0.66201 0.0
H625 H 0.65192 0.14374 0.63662 0.0
C626 C 0.68008 0.10514 0.62551 0.0
O627 O 0.63285 0.0469 0.57816 0.0
O628 O 0.61577 0.07984 0.58408 0.0
N629 N 0.57877 0.05138 0.66444 0.0
C630 C 0.5633 0.02117 0.67049 0.0
C631 C 0.53417 0.00933 0.68059 0.0
C632 C 0.52153 0.02877 0.68463 0.0
C633 C 0.53823 0.05995 0.67862 0.0
C634 C 0.56715 0.07045 0.66862 0.0
H635 H 0.57298 0.00617 0.66748 0.0
O636 O 0.57811 0.02587 0.60521 0.0
O637 O 0.60154 0.06411 0.62589 0.0
O638 O 0.63282 0.02799 0.6216 0.0
O639 O 0.62644 0.03837 0.65267 0.0
C640 C 0.52716 0.08094 0.68196 0.0
C641 C 0.54479 0.11177 0.67495 0.0
H642 H 0.58475 0.16896 0.65881 0.0
H643 H 0.63479 0.18286 0.64078 0.0
H644 H 0.52148 0.98527 0.68523 0.0
H645 H 0.49897 0.01951 0.69231 0.0
H646 H 0.50496 0.07354 0.68974 0.0
H647 H 0.53582 0.12758 0.67739 0.0
C648 C 0.48711 0.08887 0.02478 0.0
C649 C 0.46167 0.07616 0.03833 0.0
C650 C 0.50009 0.07121 0.01766 0.0
C651 C 0.47579 0.98945 0.0089 0.0
H652 H 0.56364 0.02281 0.99292 0.0
C653 C 0.52844 0.91443 0.98099 0.0
C654 C 0.55349 0.92726 0.96716 0.0
C655 C 0.5152 0.93181 0.98822 0.0
C656 C 0.53891 0.01326 0.99699 0.0
H657 H 0.43145 0.03562 0.0561 0.0
H658 H 0.45465 0.00482 0.04399 0.0
H659 H 0.54774 0.05494 0.01121 0.0
H660 H 0.58273 0.96769 0.94906 0.0
H661 H 0.55917 0.99802 0.96143 0.0
H662 H 0.46701 0.94772 0.99473 0.0
C663 C 0.46418 0.02838 0.03861 0.0
C664 C 0.52981 0.03165 0.00762 0.0
C665 C 0.45126 0.0462 0.04584 0.0
C666 C 0.56322 0.95701 0.95952 0.0
C667 C 0.5501 0.97457 0.96689 0.0
C668 C 0.4849 0.97104 0.9983 0.0
C669 C 0.48791 0.04027 0.02385 0.0
C670 C 0.49811 0.02003 0.01371 0.0
C671 C 0.5268 0.9626 0.9819 0.0
C672 C 0.51658 0.98271 0.99216 0.0
H673 H 0.49554 0.11185 0.01864 0.0
H674 H 0.51822 0.08121 0.00629 0.0
H675 H 0.45105 0.9799 0.01294 0.0
H676 H 0.52056 0.89162 0.98725 0.0
H677 H 0.4974 0.92179 0.99977 0.0
C678 C 0.96056 0.41545 0.03756 0.0
C679 C 0.93034 0.39653 0.0299 0.0
C680 C 0.98121 0.44454 0.02893 0.0
C681 C 0.997 0.48092 0.98049 0.0
H682 H 0.0476 0.55974 0.0054 0.0
C683 C 0.05304 0.59628 0.93761 0.0
C684 C 0.08008 0.62236 0.94452 0.0
C685 C 0.03958 0.56798 0.94779 0.0
C686 C 0.03419 0.5378 0.99819 0.0
H687 H 0.89711 0.39461 0.00847 0.0
H688 H 0.93273 0.44503 0.9937 0.0
H689 H 0.01354 0.51358 0.02532 0.0
H690 H 0.11571 0.63833 0.96677 0.0
H691 H 0.09283 0.58857 0.98425 0.0
H692 H 0.0175 0.50455 0.95345 0.0
C693 C 0.94081 0.43728 0.00605 0.0
C694 C 0.01449 0.5114 0.00966 0.0
C695 C 0.92027 0.4085 0.01467 0.0
C696 C 0.09504 0.61865 0.96091 0.0
C697 C 0.08152 0.59022 0.97117 0.0
C698 C 0.01689 0.50708 0.96909 0.0
C699 C 0.97198 0.45503 0.01247 0.0
C700 C 0.99504 0.48284 1.00086 0.0
C701 C 0.05284 0.56483 0.9652 0.0
C702 C 0.03519 0.53614 0.97768 0.0
H703 H 0.96921 0.40675 0.04909 0.0
H704 H 0.00507 0.45781 0.03426 0.0
H705 H 0.98287 0.45908 0.97329 0.0
H706 H 0.04077 0.59834 0.92512 0.0
H707 H 0.01746 0.54925 0.94268 0.0
C708 C 0.40109 0.48872 0.96811 0.0
C709 C 0.3892 0.46219 0.95655 0.0
C710 C 0.43027 0.50011 0.97714 0.0
C711 C 0.47895 0.46918 0.99677 0.0
H712 H 0.53715 0.55482 0.00892 0.0
C713 C 0.59783 0.5098 0.03506 0.0
C714 C 0.61016 0.53643 0.04654 0.0
C715 C 0.5689 0.49901 0.02583 0.0
C716 C 0.52079 0.53073 0.00596 0.0
H717 H 0.39976 0.42841 0.94399 0.0
H718 H 0.45123 0.44873 0.95942 0.0
H719 H 0.49466 0.5426 0.9861 0.0
H720 H 0.60067 0.57118 0.05865 0.0
H721 H 0.54952 0.55186 0.04292 0.0
H722 H 0.50493 0.45727 0.01668 0.0
C723 C 0.43771 0.46045 0.96175 0.0
C724 C 0.49659 0.52375 0.99272 0.0
C725 C 0.40854 0.44918 0.95257 0.0
C726 C 0.59152 0.55031 0.05015 0.0
C727 C 0.56255 0.53961 0.04078 0.0
C728 C 0.5031 0.47615 0.01004 0.0
C729 C 0.44815 0.48508 0.97492 0.0
C730 C 0.47538 0.49288 0.98791 0.0
C731 C 0.55164 0.51471 0.02778 0.0
C732 C 0.52439 0.50702 0.01481 0.0
H733 H 0.3865 0.49896 0.97162 0.0
H734 H 0.43745 0.51908 0.98716 0.0
H735 H 0.4626 0.44509 0.99381 0.0
H736 H 0.61189 0.49887 0.03183 0.0
H737 H 0.56142 0.47986 0.01593 0.0
C738 C 0.15745 0.42462 0.35799 0.0
C739 C 0.13125 0.41115 0.37095 0.0
C740 C 0.17069 0.40726 0.3507 0.0
C741 C 0.16985 0.33189 0.35518 0.0
H742 H 0.18778 0.34426 0.29949 0.0
C743 C 0.19214 0.24633 0.31184 0.0
C744 C 0.21968 0.25953 0.29997 0.0
C745 C 0.1796 0.26442 0.31887 0.0
C746 C 0.18307 0.34063 0.31504 0.0
H747 H 0.09978 0.36958 0.38746 0.0
H748 H 0.12278 0.33912 0.37476 0.0
H749 H 0.17276 0.37768 0.31705 0.0
H750 H 0.25404 0.30146 0.28482 0.0
H751 H 0.23186 0.33309 0.29688 0.0
H752 H 0.17988 0.29463 0.3531 0.0
C753 C 0.1334 0.36322 0.37032 0.0
C754 C 0.17465 0.35993 0.32519 0.0
C755 C 0.12033 0.38076 0.37779 0.0
C756 C 0.23251 0.29049 0.29367 0.0
C757 C 0.21996 0.30869 0.30078 0.0
C758 C 0.17813 0.31251 0.34501 0.0
C759 C 0.1578 0.37585 0.35599 0.0
C760 C 0.16795 0.35588 0.34542 0.0
C761 C 0.19433 0.2962 0.31425 0.0
C762 C 0.18475 0.31654 0.3248 0.0
H763 H 0.1663 0.44799 0.35241 0.0
H764 H 0.19008 0.4181 0.34017 0.0
H765 H 0.16528 0.32825 0.37074 0.0
H766 H 0.18173 0.22252 0.31694 0.0
H767 H 0.1593 0.25384 0.32877 0.0
C768 C 0.57922 0.74231 0.35237 0.0
C769 C 0.59167 0.72979 0.36577 0.0
C770 C 0.59851 0.77119 0.34349 0.0
C771 C 0.67424 0.84431 0.34371 0.0
H772 H 0.66616 0.83795 0.28751 0.0
C773 C 0.75059 0.95018 0.29274 0.0
C774 C 0.73397 0.95504 0.27775 0.0
C775 C 0.73702 0.92184 0.30309 0.0
C776 C 0.66863 0.84038 0.30316 0.0
H777 H 0.63367 0.73909 0.38155 0.0
H778 H 0.66742 0.79029 0.36629 0.0
H779 H 0.63381 0.79284 0.30819 0.0
H780 H 0.69113 0.933 0.26097 0.0
H781 H 0.66764 0.88414 0.27879 0.0
H782 H 0.70832 0.89221 0.33871 0.0
C783 C 0.64264 0.77744 0.36261 0.0
C784 C 0.65003 0.81442 0.31504 0.0
C785 C 0.62322 0.74827 0.37152 0.0
C786 C 0.70471 0.93009 0.27235 0.0
C787 C 0.69117 0.9019 0.28266 0.0
C788 C 0.69266 0.87053 0.33179 0.0
C789 C 0.63081 0.78846 0.34778 0.0
C790 C 0.65215 0.81614 0.33547 0.0
C791 C 0.70656 0.89766 0.29866 0.0
C792 C 0.68972 0.86908 0.31132 0.0
H793 H 0.55502 0.72869 0.34763 0.0
H794 H 0.58849 0.77934 0.33246 0.0
H795 H 0.67647 0.84636 0.35939 0.0
H796 H 0.77308 0.96893 0.2974 0.0
H797 H 0.74995 0.9193 0.31502 0.0
C798 C 0.07068 0.77652 0.28897 0.0
C799 C 0.05093 0.7886 0.29416 0.0
C800 C 0.09984 0.78704 0.29809 0.0
C801 C 0.1578 0.84771 0.33104 0.0
H802 H 0.17064 0.78096 0.34974 0.0
C803 C 0.2535 0.87104 0.3873 0.0
C804 C 0.27382 0.85962 0.3821 0.0
C805 C 0.22446 0.86024 0.37799 0.0
C806 C 0.16751 0.79991 0.34458 0.0
H807 H 0.04734 0.8229 0.31162 0.0
H808 H 0.09805 0.8416 0.32715 0.0
H809 H 0.12742 0.7697 0.32773 0.0
H810 H 0.27849 0.82606 0.36448 0.0
H811 H 0.22784 0.80677 0.34866 0.0
H812 H 0.19782 0.8779 0.34794 0.0
C813 C 0.09131 0.824 0.31617 0.0
C814 C 0.14286 0.7935 0.3318 0.0
C815 C 0.06221 0.81337 0.30718 0.0
C816 C 0.26315 0.83507 0.36893 0.0
C817 C 0.23413 0.82413 0.35976 0.0
C818 C 0.1824 0.85411 0.34385 0.0
C819 C 0.10984 0.80999 0.31245 0.0
C820 C 0.13763 0.8173 0.32486 0.0
C821 C 0.21512 0.83763 0.36345 0.0
C822 C 0.18757 0.83029 0.35083 0.0
H823 H 0.0624 0.75708 0.27923 0.0
H824 H 0.11381 0.77615 0.2946 0.0
H825 H 0.15472 0.86668 0.32588 0.0
H826 H 0.26129 0.8903 0.39715 0.0
H827 H 0.21009 0.87072 0.38146 0.0
C828 C 0.89597 0.62529 0.62336 0.0
C829 C 0.88254 0.59387 0.62869 0.0
C830 C 0.88312 0.64308 0.63073 0.0
C831 C 0.81419 0.6388 0.65868 0.0
H832 H 0.87793 0.71729 0.67916 0.0
C833 C 0.77899 0.70809 0.71033 0.0
C834 C 0.79111 0.73918 0.70461 0.0
C835 C 0.79197 0.6907 0.70249 0.0
C836 C 0.85982 0.69549 0.67348 0.0
H837 H 0.84342 0.55581 0.64426 0.0
H838 H 0.82086 0.58642 0.65682 0.0
H839 H 0.8941 0.68659 0.6595 0.0
H840 H 0.82794 0.77716 0.68763 0.0
H841 H 0.85106 0.74727 0.67445 0.0
H842 H 0.77994 0.64764 0.67282 0.0
C843 C 0.84131 0.59761 0.64708 0.0
C844 C 0.86906 0.67798 0.66203 0.0
C845 C 0.85419 0.57994 0.6398 0.0
C846 C 0.81832 0.75331 0.69246 0.0
C847 C 0.83146 0.73608 0.68481 0.0
C848 C 0.80497 0.65625 0.6702 0.0
C849 C 0.85649 0.62973 0.64346 0.0
C850 C 0.84638 0.64936 0.65446 0.0
C851 C 0.81751 0.7042 0.68897 0.0
C852 C 0.82765 0.68481 0.67778 0.0
H853 H 0.91804 0.6368 0.61505 0.0
H854 H 0.89502 0.66762 0.62727 0.0
H855 H 0.79601 0.61707 0.65297 0.0
H856 H 0.75773 0.69645 0.71939 0.0
H857 H 0.78102 0.66631 0.70627 0.0
C858 C 0.37852 0.25902 0.60325 0.0
C859 C 0.40641 0.28491 0.60947 0.0
C860 C 0.36517 0.23096 0.6137 0.0
C861 C 0.36301 0.20152 0.66401 0.0
H862 H 0.30782 0.12271 0.64028 0.0
C863 C 0.29005 0.0796 0.70424 0.0
C864 C 0.25889 0.06158 0.6977 0.0
C865 C 0.31064 0.10849 0.69534 0.0
C866 C 0.32307 0.14459 0.64715 0.0
H867 H 0.4436 0.30065 0.6307 0.0
H868 H 0.42093 0.25127 0.64858 0.0
H869 H 0.34166 0.16743 0.61966 0.0
H870 H 0.22414 0.06111 0.67805 0.0
H871 H 0.2597 0.11115 0.6628 0.0
H872 H 0.3443 0.17802 0.69159 0.0
C873 C 0.40883 0.25294 0.63589 0.0
C874 C 0.34249 0.17033 0.63531 0.0
C875 C 0.42221 0.28115 0.62538 0.0
C876 C 0.24801 0.07433 0.6834 0.0
C877 C 0.26848 0.10287 0.67449 0.0
C878 C 0.3438 0.17551 0.67591 0.0
C879 C 0.37942 0.22781 0.63066 0.0
C880 C 0.36216 0.19945 0.64348 0.0
C881 C 0.30039 0.11964 0.67971 0.0
C882 C 0.32299 0.14696 0.66756 0.0
H883 H 0.36559 0.2611 0.59114 0.0
H884 H 0.34246 0.21246 0.60916 0.0
H885 H 0.37751 0.22351 0.67093 0.0
H886 H 0.29931 0.07027 0.71501 0.0
H887 H 0.3351 0.12101 0.69972 0.0
C888 C 0.73439 0.11193 0.6243 0.0
C889 C 0.71447 0.12419 0.62856 0.0
C890 C 0.76331 0.12305 0.63378 0.0
C891 C 0.82121 0.18552 0.66544 0.0
H892 H 0.83093 0.11919 0.68834 0.0
C893 C 0.91875 0.21282 0.72105 0.0
C894 C 0.9372 0.19885 0.71707 0.0
C895 C 0.88928 0.2019 0.71227 0.0
C896 C 0.82875 0.13805 0.68199 0.0
H897 H 0.71034 0.15937 0.64468 0.0
H898 H 0.76097 0.17935 0.6607 0.0
H899 H 0.78816 0.10697 0.66581 0.0
H900 H 0.93803 0.1608 0.70242 0.0
H901 H 0.88684 0.14152 0.68747 0.0
H902 H 0.86197 0.21665 0.68144 0.0
C903 C 0.75439 0.16107 0.65022 0.0
C904 C 0.80431 0.13104 0.66894 0.0
C905 C 0.72542 0.14975 0.64093 0.0
C906 C 0.92416 0.17184 0.70592 0.0
C907 C 0.89479 0.16088 0.69723 0.0
C908 C 0.84576 0.19256 0.67842 0.0
C909 C 0.77294 0.14684 0.64753 0.0
C910 C 0.80025 0.15468 0.66045 0.0
C911 C 0.87769 0.17672 0.69945 0.0
C912 C 0.84993 0.16892 0.68688 0.0
H913 H 0.72632 0.09186 0.61512 0.0
H914 H 0.77734 0.11194 0.63113 0.0
H915 H 0.81886 0.20431 0.65912 0.0
H916 H 0.92838 0.23395 0.72932 0.0
H917 H 0.87641 0.21424 0.71467 0.0
C918 C 0.40792 0.14919 0.1183 0.0
C919 C 0.39093 0.1179 0.11298 0.0
C920 C 0.39738 0.16018 0.1338 0.0
C921 C 0.32293 0.14144 0.16012 0.0
H922 H 0.3784 0.20819 0.19368 0.0
C923 C 0.27762 0.18323 0.22563 0.0
C924 C 0.29447 0.21473 0.2305 0.0
C925 C 0.28823 0.17177 0.21043 0.0
C926 C 0.36256 0.18985 0.18422 0.0
H927 H 0.35081 0.07318 0.12085 0.0
H928 H 0.33284 0.09219 0.14817 0.0
H929 H 0.40079 0.18625 0.171 0.0
H930 H 0.33453 0.25925 0.22219 0.0
H931 H 0.35266 0.23939 0.19542 0.0
H932 H 0.28471 0.14505 0.17336 0.0
C933 C 0.35394 0.10842 0.14004 0.0
C934 C 0.37543 0.17714 0.17126 0.0
C935 C 0.36453 0.09741 0.12453 0.0
C936 C 0.32092 0.23487 0.21886 0.0
C937 C 0.33159 0.22339 0.20367 0.0
C938 C 0.31006 0.15414 0.1731 0.0
C939 C 0.36955 0.14017 0.14442 0.0
C940 C 0.35581 0.15276 0.159 0.0
C941 C 0.31602 0.1915 0.19968 0.0
C942 C 0.3297 0.17858 0.18531 0.0
H943 H 0.4283 0.16568 0.10971 0.0
H944 H 0.41004 0.18476 0.13665 0.0
H945 H 0.30709 0.12315 0.15065 0.0
H946 H 0.25722 0.16699 0.23432 0.0
H947 H 0.27562 0.14709 0.20786 0.0
C948 C 0.85196 0.2732 0.11504 0.0
C949 C 0.88399 0.2894 0.10911 0.0
C950 C 0.84172 0.25131 0.13028 0.0
C951 C 0.86568 0.19975 0.15543 0.0
H952 H 0.79025 0.17787 0.18664 0.0
C953 C 0.81041 0.10466 0.21818 0.0
C954 C 0.77716 0.08722 0.21846 0.0
C955 C 0.82647 0.1285 0.2042 0.0
C956 C 0.81126 0.18357 0.17793 0.0
H957 H 0.9308 0.2972 0.11582 0.0
H958 H 0.91312 0.25988 0.14293 0.0
H959 H 0.81323 0.22452 0.16631 0.0
H960 H 0.73501 0.07907 0.20334 0.0
H961 H 0.76285 0.11989 0.17891 0.0
H962 H 0.86366 0.15871 0.16755 0.0
C963 C 0.89569 0.26332 0.13534 0.0
C964 C 0.82446 0.21036 0.16622 0.0
C965 C 0.90593 0.28516 0.11998 0.0
C966 C 0.76063 0.09196 0.20342 0.0
C967 C 0.77655 0.11566 0.18958 0.0
C968 C 0.85264 0.17305 0.1674 0.0
C969 C 0.86327 0.24519 0.1402 0.0
C970 C 0.85148 0.21856 0.15444 0.0
C971 C 0.80943 0.13524 0.19043 0.0
C972 C 0.82484 0.16432 0.17843 0.0
H973 H 0.83433 0.2757 0.10698 0.0
H974 H 0.81655 0.23783 0.13339 0.0
H975 H 0.88626 0.20497 0.14643 0.0
H976 H 0.82369 0.10198 0.22986 0.0
H977 H 0.85187 0.14319 0.20516 0.0
C978 C 0.92381 0.73932 0.21268 0.0
C979 C 0.94034 0.72382 0.21787 0.0
C980 C 0.89927 0.72646 0.19928 0.0
C981 C 0.84059 0.64931 0.18196 0.0
H982 H 0.8179 0.69549 0.14616 0.0
C983 C 0.7401 0.59112 0.12615 0.0
C984 C 0.72384 0.6066 0.12037 0.0
C985 C 0.7647 0.60446 0.13947 0.0
C986 C 0.82356 0.68227 0.15634 0.0
H987 H 0.94601 0.68414 0.21146 0.0
H988 H 0.90376 0.66213 0.1878 0.0
H989 H 0.86725 0.72227 0.16383 0.0
H990 H 0.71875 0.64692 0.12562 0.0
H991 H 0.76097 0.66972 0.14927 0.0
H992 H 0.79688 0.60934 0.17459 0.0
C993 C 0.9092 0.68383 0.19451 0.0
C994 C 0.85205 0.69765 0.16638 0.0
C995 C 0.93382 0.69674 0.20787 0.0
C996 C 0.73074 0.63431 0.12969 0.0
C997 C 0.75536 0.64768 0.14303 0.0
C998 C 0.81208 0.63395 0.17197 0.0
C999 C 0.89066 0.69779 0.19072 0.0
C1000 C 0.86102 0.68137 0.17929 0.0
C1001 C 0.7736 0.6336 0.14744 0.0
C1002 C 0.80314 0.65018 0.15898 0.0
H1003 H 0.92812 0.76019 0.2201 0.0
H1004 H 0.88564 0.73796 0.19672 0.0
H1005 H 0.84631 0.6361 0.19212 0.0
H1006 H 0.73552 0.56978 0.11927 0.0
H1007 H 0.77809 0.59285 0.14246 0.0
C1008 C 0.6069 0.85344 0.88734 0.0
C1009 C 0.62353 0.88499 0.89211 0.0
C1010 C 0.61751 0.84205 0.8721 0.0
C1011 C 0.69195 0.86088 0.84572 0.0
H1012 H 0.63682 0.79189 0.8135 0.0
C1013 C 0.73738 0.81707 0.7813 0.0
C1014 C 0.72085 0.78532 0.77704 0.0
C1015 C 0.72681 0.82896 0.79628 0.0
C1016 C 0.65258 0.81086 0.82259 0.0
H1017 H 0.66302 0.92969 0.88349 0.0
H1018 H 0.68107 0.90997 0.8566 0.0
H1019 H 0.61408 0.81431 0.83553 0.0
H1020 H 0.68154 0.74086 0.78626 0.0
H1021 H 0.66353 0.76148 0.81263 0.0
H1022 H 0.73045 0.85743 0.83276 0.0
C1023 C 0.66023 0.89386 0.86498 0.0
C1024 C 0.63951 0.82385 0.83518 0.0
C1025 C 0.64957 0.90527 0.88023 0.0
C1026 C 0.69491 0.76542 0.78912 0.0
C1027 C 0.68428 0.77733 0.80408 0.0
C1028 C 0.70503 0.8479 0.83311 0.0
C1029 C 0.64505 0.86191 0.86119 0.0
C1030 C 0.65899 0.84903 0.84696 0.0
C1031 C 0.69939 0.80941 0.80739 0.0
C1032 C 0.68553 0.82265 0.8214 0.0
H1033 H 0.58682 0.8371 0.8962 0.0
H1034 H 0.60518 0.81733 0.86971 0.0
H1035 H 0.70772 0.8798 0.85484 0.0
H1036 H 0.75737 0.83312 0.77227 0.0
H1037 H 0.73907 0.85376 0.79834 0.0
C1038 C 0.14272 0.76627 0.88389 0.0
C1039 C 0.10957 0.75102 0.88586 0.0
C1040 C 0.15829 0.78885 0.86912 0.0
C1041 C 0.14386 0.82269 0.82385 0.0
H1042 H 0.21584 0.89923 0.84059 0.0
C1043 C 0.18225 0.93582 0.78185 0.0
C1044 C 0.2141 0.95184 0.77548 0.0
C1045 C 0.17213 0.9128 0.79637 0.0
C1046 C 0.19587 0.87795 0.83569 0.0
H1047 H 0.06672 0.74581 0.87316 0.0
H1048 H 0.09337 0.78445 0.84762 0.0
H1049 H 0.19393 0.85317 0.86188 0.0
H1050 H 0.26082 0.95829 0.78092 0.0
H1051 H 0.24315 0.91855 0.80669 0.0
H1052 H 0.14513 0.84768 0.79799 0.0
C1053 C 0.1077 0.77926 0.85721 0.0
C1054 C 0.18344 0.85142 0.8478 0.0
C1055 C 0.09228 0.75695 0.87191 0.0
C1056 C 0.23612 0.94648 0.78546 0.0
C1057 C 0.22598 0.92355 0.80016 0.0
C1058 C 0.156 0.84919 0.81192 0.0
C1059 C 0.14096 0.7964 0.85601 0.0
C1060 C 0.15687 0.82353 0.84218 0.0
C1061 C 0.19364 0.90544 0.80508 0.0
C1062 C 0.18178 0.87729 0.81782 0.0
H1063 H 0.15669 0.76254 0.89462 0.0
H1064 H 0.18391 0.8012 0.86847 0.0
H1065 H 0.12393 0.80156 0.81876 0.0
H1066 H 0.16461 0.93937 0.7746 0.0
H1067 H 0.14714 0.89972 0.80017 0.0
C1068 C 0.25707 0.40424 0.87886 0.0
C1069 C 0.27342 0.38873 0.8844 0.0
C1070 C 0.23219 0.39089 0.86574 0.0
C1071 C 0.19144 0.32732 0.83019 0.0
H1072 H 0.11703 0.33113 0.84727 0.0
C1073 C 0.07206 0.25422 0.79287 0.0
C1074 C 0.05571 0.26991 0.78773 0.0
C1075 C 0.09695 0.26714 0.80602 0.0
C1076 C 0.13761 0.32999 0.84217 0.0
H1077 H 0.27813 0.34822 0.87905 0.0
H1078 H 0.235 0.32511 0.85607 0.0
H1079 H 0.1661 0.35905 0.86504 0.0
H1080 H 0.05106 0.31027 0.79379 0.0
H1081 H 0.0942 0.33265 0.81674 0.0
H1082 H 0.16298 0.29832 0.80728 0.0
C1083 C 0.24128 0.34757 0.86192 0.0
C1084 C 0.16589 0.34617 0.85232 0.0
C1085 C 0.26622 0.36095 0.87506 0.0
C1086 C 0.06297 0.29742 0.79745 0.0
C1087 C 0.08792 0.31037 0.81059 0.0
C1088 C 0.16317 0.31117 0.82002 0.0
C1089 C 0.22302 0.36171 0.85777 0.0
C1090 C 0.19324 0.34514 0.84645 0.0
C1091 C 0.10614 0.29607 0.81441 0.0
C1092 C 0.13583 0.31226 0.82586 0.0
H1093 H 0.26202 0.42573 0.88569 0.0
H1094 H 0.21927 0.4029 0.86246 0.0
H1095 H 0.21204 0.32618 0.82512 0.0
H1096 H 0.06709 0.23295 0.78574 0.0
H1097 H 0.10983 0.255 0.80902 0.0
C1098 C 0.07762 0.48843 0.44804 0.0
C1099 C 0.06106 0.4567 0.44374 0.0
C1100 C 0.06732 0.5002 0.46323 0.0
C1101 C 0.01223 0.47791 0.50646 0.0
H1102 H 0.01308 0.55459 0.49392 0.0
C1103 C 0.94445 0.52098 0.55467 0.0
C1104 C 0.96113 0.55229 0.55997 0.0
C1105 C 0.95579 0.50996 0.53962 0.0
C1106 C 0.01285 0.53329 0.49773 0.0
H1107 H 0.02186 0.41221 0.45296 0.0
H1108 H 0.00389 0.43263 0.47937 0.0
H1109 H 0.03676 0.53406 0.47111 0.0
H1110 H 0.00168 0.59697 0.55258 0.0
H1111 H 0.02129 0.57782 0.52619 0.0
H1112 H 0.98806 0.47703 0.53301 0.0
C1113 C 0.02496 0.44852 0.47109 0.0
C1114 C 0.02662 0.52154 0.48468 0.0
C1115 C 0.03536 0.43673 0.45593 0.0
C1116 C 0.98812 0.57276 0.54884 0.0
C1117 C -0.00055 0.56172 0.53372 0.0
C1118 C -0.00163 0.48959 0.51946 0.0
C1119 C 0.04012 0.48059 0.4745 0.0
C1120 C 0.0265 0.49366 0.48885 0.0
C1121 C 0.98407 0.52996 0.52941 0.0
C1122 C -0.00161 0.51739 0.51526 0.0
H1123 H 0.09756 0.50451 0.43898 0.0
H1124 H 0.08015 0.52489 0.46573 0.0
H1125 H 0.01202 0.45664 0.51035 0.0
H1126 H 0.92353 0.50453 0.56287 0.0
H1127 H 0.94289 0.48551 0.53639 0.0
C1128 C 0.51755 0.60309 0.44857 0.0
C1129 C 0.54937 0.61854 0.44214 0.0
C1130 C 0.50704 0.57998 0.46306 0.0
C1131 C 0.52968 0.54385 0.5022 0.0
H1132 H 0.45604 0.46868 0.48547 0.0
C1133 C 0.47312 0.43157 0.55027 0.0
C1134 C 0.44002 0.41736 0.55228 0.0
C1135 C 0.48933 0.45426 0.53565 0.0
C1136 C 0.47646 0.48947 0.4905 0.0
H1137 H 0.59567 0.6238 0.44736 0.0
H1138 H 0.57732 0.58386 0.47306 0.0
H1139 H 0.47846 0.51479 0.46464 0.0
H1140 H 0.39791 0.41437 0.53986 0.0
H1141 H 0.42563 0.4531 0.51455 0.0
H1142 H 0.52701 0.51872 0.5284 0.0
C1143 C 0.56048 0.58942 0.46664 0.0
C1144 C 0.48929 0.51597 0.47854 0.0
C1145 C 0.57101 0.61247 0.45198 0.0
C1146 C 0.42339 0.42463 0.53857 0.0
C1147 C 0.43941 0.44698 0.524 0.0
C1148 C 0.51656 0.51732 0.51434 0.0
C1149 C 0.52811 0.57191 0.47165 0.0
C1150 C 0.51567 0.54366 0.48437 0.0
C1151 C 0.47268 0.46293 0.52268 0.0
C1152 C 0.48936 0.48991 0.50881 0.0
H1153 H 0.5002 0.6072 0.44144 0.0
H1154 H 0.48206 0.5674 0.46693 0.0
H1155 H 0.5501 0.5648 0.50705 0.0
H1156 H 0.4866 0.42684 0.56084 0.0
H1157 H 0.51493 0.46575 0.53492 0.0
C1158 C 0.59699 0.02784 0.54328 0.0
C1159 C 0.60306 0.05503 0.55299 0.0
C1160 C 0.57196 0.01389 0.53024 0.0
C1161 C 0.49468 0.00906 0.5217 0.0
H1162 H 0.4929 0.96197 0.47651 0.0
C1163 C 0.3906 0.95585 0.46759 0.0
C1164 C 0.38459 0.92868 0.45788 0.0
C1165 C 0.41555 0.96978 0.48068 0.0
C1166 C 0.4928 0.9746 0.48929 0.0
H1167 H 0.58963 0.09057 0.55493 0.0
H1168 H 0.54675 0.0668 0.53185 0.0
H1169 H 0.54223 0.99178 0.49376 0.0
H1170 H 0.39799 0.89312 0.45601 0.0
H1171 H 0.44073 0.91684 0.47919 0.0
H1172 H 0.44524 0.99189 0.51722 0.0
C1173 C 0.56061 0.05564 0.53479 0.0
C1174 C 0.52122 0.99187 0.49912 0.0
C1175 C 0.58558 0.06956 0.54782 0.0
C1176 C 0.40201 0.91412 0.46312 0.0
C1177 C 0.4269 0.928 0.47621 0.0
C1178 C 0.46625 0.99179 0.51186 0.0
C1179 C 0.5525 0.02687 0.52654 0.0
C1180 C 0.52259 0.0094 0.51546 0.0
C1181 C 0.43498 0.95678 0.48444 0.0
C1182 C 0.46488 0.97426 0.49553 0.0
H1183 H 0.6098 0.01587 0.54694 0.0
H1184 H 0.56656 0.9918 0.52416 0.0
H1185 H 0.49458 0.02169 0.53447 0.0
H1186 H 0.37783 0.96784 0.46388 0.0
H1187 H 0.42094 0.99187 0.48676 0.0
C1188 C 0.33014 0.02002 0.99845 0.0
C1189 C 0.33445 0.02579 0.01853 0.0
C1190 C 0.30713 0.99119 0.99189 0.0
C1191 C 0.25722 0.90928 0.00686 0.0
H1192 H 0.20525 0.9082 0.96418 0.0
C1193 C 0.16691 0.79718 0.96787 0.0
C1194 C 0.13785 0.79514 0.96325 0.0
C1195 C 0.19148 0.82457 0.9753 0.0
C1196 C 0.21945 0.90811 0.97618 0.0
H1197 H 0.31801 0.00549 0.04745 0.0
H1198 H 0.27758 0.95527 0.03591 0.0
H1199 H 0.24697 0.95749 0.97585 0.0
H1200 H 0.11148 0.81997 0.96363 0.0
H1201 H 0.15402 0.86725 0.97664 0.0
H1202 H 0.22908 0.85974 0.00736 0.0
C1203 C 0.29232 0.97302 0.02529 0.0
C1204 C 0.24358 0.93633 0.98271 0.0
C1205 C 0.31533 0.0019 0.03188 0.0
C1206 C 0.13363 0.82075 0.96676 0.0
C1207 C 0.15808 0.84797 0.97416 0.0
C1208 C 0.23304 0.88095 1.00027 0.0
C1209 C 0.28788 0.96744 0.00522 0.0
C1210 C 0.26266 0.93726 0.99816 0.0
C1211 C 0.18741 0.85038 0.97823 0.0
C1212 C 0.21377 0.88013 0.98496 0.0
H1213 H 0.34448 0.03778 0.98773 0.0
H1214 H 0.30453 0.98745 0.97633 0.0
H1215 H 0.27175 0.90928 0.01868 0.0
H1216 H 0.17095 0.7779 0.96537 0.0
H1217 H 0.21392 0.82584 0.97824 0.0
C1218 C 0.99782 0.32293 0.02633 0.0
C1219 C 0.97309 0.3147 0.01317 0.0
C1220 C 0.02748 0.32869 0.01974 0.0
C1221 C 0.09167 0.36038 0.99952 0.0
H1222 H 0.10151 0.30646 0.96291 0.0
C1223 C 0.21042 0.39356 0.96125 0.0
C1224 C 0.21892 0.37044 0.96071 0.0
C1225 C 0.18015 0.38637 0.96756 0.0
C1226 C 0.09908 0.3216 0.97323 0.0
H1227 H 0.95995 0.30526 0.98282 0.0
H1228 H 0.01202 0.31547 0.97134 0.0
H1229 H 0.04857 0.2937 0.97444 0.0
H1230 H 0.20261 0.32161 0.9649 0.0
H1231 H 0.14956 0.30892 0.97634 0.0
H1232 H 0.14206 0.38815 0.99843 0.0
C1233 C 0.00823 0.31732 0.98676 0.0
C1234 C 0.06884 0.31446 0.97966 0.0
C1235 C 0.97851 0.31165 0.99333 0.0
C1236 C 0.19653 0.33982 0.96571 0.0
C1237 C 0.16626 0.3326 0.97207 0.0
C1238 C 0.12184 0.36758 0.99302 0.0
C1239 C 0.03304 0.32625 0.99989 0.0
C1240 C 0.06492 0.33375 0.99291 0.0
C1241 C 0.15784 0.35583 0.9731 0.0
C1242 C 0.12583 0.34822 0.97986 0.0
H1243 H 0.99449 0.32538 0.04173 0.0
H1244 H 0.04612 0.33509 0.0302 0.0
H1245 H 0.08924 0.37582 0.00958 0.0
H1246 H 0.22711 0.41708 0.95663 0.0
H1247 H 0.17406 0.4046 0.96788 0.0
C1248 C 0.686 0.67904 0.03675 0.0
C1249 C 0.69165 0.66018 0.024 0.0
C1250 C 0.68155 0.70287 0.02949 0.0
C1251 C 0.65832 0.72847 0.98545 0.0
H1252 H 0.69655 0.80778 0.01117 0.0
C1253 C 0.67916 0.85952 0.97245 0.0
C1254 C 0.64825 0.85242 0.96812 0.0
C1255 C 0.68517 0.83621 0.97882 0.0
C1256 C 0.68593 0.78583 0.00375 0.0
H1257 H 0.69732 0.65186 0.99355 0.0
H1258 H 0.68976 0.69366 0.98092 0.0
H1259 H 0.70645 0.76704 0.02313 0.0
H1260 H 0.5999 0.81561 0.96512 0.0
H1261 H 0.61017 0.77473 0.97653 0.0
H1262 H 0.6381 0.7474 0.96593 0.0
C1263 C 0.68841 0.68968 0.99654 0.0
C1264 C 0.69132 0.76242 0.01072 0.0
C1265 C 0.69287 0.66582 0.0038 0.0
C1266 C 0.62372 0.8216 0.96911 0.0
C1267 C 0.6297 0.79825 0.97535 0.0
C1268 C 0.65289 0.75186 0.97851 0.0
C1269 C 0.68266 0.70841 0.00931 0.0
C1270 C 0.6775 0.73348 1.00167 0.0
C1271 C 0.66044 0.80538 0.98046 0.0
C1272 C 0.6666 0.78074 0.98762 0.0
H1273 H 0.68478 0.67534 0.05239 0.0
H1274 H 0.67673 0.71665 0.03968 0.0
H1275 H 0.64709 0.70629 0.9783 0.0
H1276 H 0.69851 0.88313 0.97119 0.0
H1277 H 0.70919 0.84226 0.98231 0.0
C1278 C 0.69522 0.00631 0.97099 0.0
C1279 C 0.68053 0.98186 0.98472 0.0
C1280 C 0.71559 0.03646 0.97703 0.0
C1281 C 0.74076 0.09978 0.99547 0.0
H1282 H 0.80297 0.11442 0.0348 0.0
C1283 C 0.81463 0.21822 0.03242 0.0
C1284 C 0.847 0.22834 0.03396 0.0
C1285 C 0.79389 0.18812 0.02637 0.0
C1286 C 0.7858 0.1107 0.02374 0.0
H1287 H 0.67629 0.96995 0.01557 0.0
H1288 H 0.71183 0.02252 0.02603 0.0
H1289 H 0.76833 0.06185 0.02381 0.0
H1290 H 0.88306 0.21499 0.03184 0.0
H1291 H 0.84705 0.16254 0.02098 0.0
H1292 H 0.75856 0.14877 0.99529 0.0
C1293 C 0.70763 0.0183 0.01059 0.0
C1294 C 0.7658 0.08059 0.01759 0.0
C1295 C 0.68715 0.98819 0.00459 0.0
C1296 C 0.85822 0.20773 0.03026 0.0
C1297 C 0.8376 0.17774 0.02421 0.0
C1298 C 0.76069 0.12992 0.00171 0.0
C1299 C 0.72188 0.04278 0.99689 0.0
C1300 C 0.74312 0.07481 0.00336 0.0
C1301 C 0.80524 0.16763 0.02217 0.0
C1302 C 0.7835 0.13567 0.01585 0.0
H1303 H 0.69065 0.00231 0.95558 0.0
H1304 H 0.72657 0.05482 0.96612 0.0
H1305 H 0.72327 0.09596 0.98463 0.0
H1306 H 0.8054 0.2335 0.036 0.0
H1307 H 0.76896 0.18076 0.02523 0.0
C1308 C 0.78814 0.59698 0.04521 0.0
C1309 C 0.78076 0.62089 0.04508 0.0
C1310 C 0.81796 0.60276 0.03884 0.0
C1311 C 0.89935 0.66677 0.02779 0.0
H1312 H 0.90317 0.60636 0.99408 0.0
C1313 C 0.01671 0.68823 0.99317 0.0
C1314 C 0.01544 0.68221 0.97321 0.0
C1315 C 0.98879 0.67782 0.0041 0.0
C1316 C 0.90245 0.62348 0.00343 0.0
H1317 H 0.79858 0.66972 0.03968 0.0
H1318 H 0.85031 0.67977 0.02764 0.0
H1319 H 0.85306 0.59474 0.00945 0.0
H1320 H 0.98498 0.65782 0.94929 0.0
H1321 H 0.93594 0.64034 0.96813 0.0
H1322 H 0.94849 0.69605 0.02113 0.0
C1323 C 0.83346 0.65664 0.03281 0.0
C1324 C 0.87379 0.61671 0.0124 0.0
C1325 C 0.80382 0.6509 0.03944 0.0
C1326 C 0.98621 0.66374 0.96455 0.0
C1327 C 0.95827 0.65329 0.97543 0.0
C1328 C 0.92797 0.6736 0.01877 0.0
C1329 C 0.84081 0.63259 0.03232 0.0
C1330 C 0.87179 0.63854 0.02435 0.0
C1331 C 0.95928 0.66076 0.99523 0.0
C1332 C 0.92967 0.65223 0.00623 0.0
H1333 H 0.77086 0.57391 0.05028 0.0
H1334 H 0.82309 0.58389 0.03902 0.0
H1335 H 0.89875 0.68385 0.03724 0.0
H1336 H 0.03926 0.7016 1.00018 0.0
H1337 H 0.99028 0.68331 0.01944 0.0
C1338 C 0.31489 0.33301 0.99954 0.0
C1339 C 0.31498 0.33842 0.97938 0.0
C1340 C 0.32183 0.31062 0.00651 0.0
C1341 C 0.3237 0.24045 0.99187 0.0
H1342 H 0.37727 0.25789 0.03674 0.0
C1343 C 0.3933 0.18454 0.03517 0.0
C1344 C 0.36913 0.15357 0.03615 0.0
C1345 C 0.38699 0.20747 0.02844 0.0
C1346 C 0.36246 0.25278 0.02411 0.0
H1347 H 0.32256 0.32448 0.95075 0.0
H1348 H 0.33488 0.28566 0.96298 0.0
H1349 H 0.36615 0.29751 0.02416 0.0
H1350 H 0.31911 0.12217 0.03263 0.0
H1351 H 0.30787 0.16222 0.0207 0.0
H1352 H 0.32041 0.1959 0.99164 0.0
C1353 C 0.32906 0.2985 0.97336 0.0
C1354 C 0.35582 0.27532 0.01705 0.0
C1355 C 0.32212 0.32087 0.96637 0.0
C1356 C 0.33822 0.1459 0.03137 0.0
C1357 C 0.33189 0.16874 0.02451 0.0
C1358 C 0.33031 0.21791 0.99895 0.0
C1359 C 0.329 0.29316 0.99349 0.0
C1360 C 0.3363 0.26935 1.00089 0.0
C1361 C 0.35628 0.19972 0.02281 0.0
C1362 C 0.34965 0.22381 0.01518 0.0
H1363 H 0.30937 0.34599 0.00998 0.0
H1364 H 0.32119 0.30672 0.02211 0.0
H1365 H 0.30837 0.23509 0.97949 0.0
H1366 H 0.41708 0.19097 0.03952 0.0
H1367 H 0.40626 0.23112 0.02727 0.0
C1368 C -0.00125 0.34555 0.33396 0.0
C1369 C 0.0029 0.35425 0.35363 0.0
C1370 C 0.97598 0.31571 0.32878 0.0
C1371 C 0.93684 0.24644 0.32269 0.0
H1372 H 0.85285 0.2136 0.34584 0.0
C1373 C 0.83166 0.12784 0.30153 0.0
C1374 C 0.80383 0.12857 0.29722 0.0
C1375 C 0.85679 0.15299 0.3105 0.0
C1376 C 0.87622 0.22244 0.3393 0.0
H1377 H 0.98654 0.33806 0.38331 0.0
H1378 H 0.94677 0.28598 0.37419 0.0
H1379 H 0.896 0.26246 0.35724 0.0
H1380 H 0.78039 0.15606 0.2994 0.0
H1381 H 0.82408 0.19967 0.31489 0.0
H1382 H 0.91671 0.20695 0.30424 0.0
C1383 C 0.96107 0.30241 0.3628 0.0
C1384 C 0.90097 0.25025 0.34594 0.0
C1385 C 0.98392 0.33225 0.36801 0.0
C1386 C 0.80147 0.15469 0.30242 0.0
C1387 C 0.82643 0.17963 0.31147 0.0
C1388 C 0.91208 0.21855 0.31609 0.0
C1389 C 0.95677 0.29389 0.34313 0.0
C1390 C 0.93138 0.26287 0.33743 0.0
C1391 C 0.85442 0.17917 0.31548 0.0
C1392 C 0.88139 0.20664 0.32404 0.0
H1393 H 0.01291 0.36185 0.32248 0.0
H1394 H 0.97289 0.30996 0.31347 0.0
H1395 H 0.96014 0.25544 0.31603 0.0
H1396 H 0.83425 0.10807 0.29773 0.0
H1397 H 0.87808 0.15199 0.31353 0.0
C1398 C 0.85617 0.67218 0.29534 0.0
C1399 C 0.88035 0.70266 0.2918 0.0
C1400 C 0.82588 0.6662 0.30071 0.0
C1401 C 0.76013 0.65875 0.30114 0.0
H1402 H 0.75199 0.71228 0.33887 0.0
C1403 C 0.64026 0.64901 0.3239 0.0
C1404 C 0.63558 0.65073 0.34403 0.0
C1405 C 0.66981 0.65531 0.31652 0.0
C1406 C 0.75393 0.69709 0.32837 0.0
H1407 H 0.89182 0.75054 0.28921 0.0
H1408 H 0.83874 0.74026 0.29866 0.0
H1409 H 0.80439 0.72348 0.32768 0.0
H1410 H 0.65821 0.65995 0.3722 0.0
H1411 H 0.70944 0.67072 0.35929 0.0
H1412 H 0.7095 0.63208 0.30211 0.0
C1413 C 0.84335 0.72107 0.298 0.0
C1414 C 0.7839 0.70364 0.32185 0.0
C1415 C 0.87366 0.727 0.29271 0.0
C1416 C 0.66093 0.65847 0.35661 0.0
C1417 C 0.69039 0.66487 0.34922 0.0
C1418 C 0.73009 0.65226 0.3076 0.0
C1419 C 0.81922 0.69062 0.30217 0.0
C1420 C 0.78732 0.68436 0.30835 0.0
C1421 C 0.69519 0.6636 0.32912 0.0
C1422 C 0.72678 0.67119 0.32145 0.0
H1423 H 0.86087 0.65307 0.29423 0.0
H1424 H 0.80782 0.64255 0.30398 0.0
H1425 H 0.76208 0.64372 0.29052 0.0
H1426 H 0.62122 0.64304 0.31382 0.0
H1427 H 0.67299 0.6543 0.30093 0.0
C1428 C 0.34052 0.18821 0.31596 0.0
C1429 C 0.31035 0.18154 0.3101 0.0
C1430 C 0.34537 0.16465 0.32328 0.0
C1431 C 0.30323 0.0854 0.3441 0.0
H1432 H 0.37859 0.08318 0.32728 0.0
C1433 C 0.33961 0.00082 0.37718 0.0
C1434 C 0.3499 0.98593 0.36399 0.0
C1435 C 0.33463 0.02477 0.37082 0.0
C1436 C 0.35738 0.08345 0.33202 0.0
H1437 H 0.26218 0.14525 0.30568 0.0
H1438 H 0.2705 0.10383 0.31848 0.0
H1439 H 0.37011 0.12505 0.31582 0.0
H1440 H 0.36292 0.98456 0.33373 0.0
H1441 H 0.35413 0.02637 0.3227 0.0
H1442 H 0.29028 0.0435 0.36006 0.0
C1443 C 0.29016 0.12734 0.31815 0.0
C1444 C 0.3527 0.10758 0.32565 0.0
C1445 C 0.28534 0.15094 0.3109 0.0
C1446 C 0.355 0.9955 0.34429 0.0
C1447 C 0.35017 0.01957 0.33797 0.0
C1448 C 0.308 0.06136 0.35056 0.0
C1449 C 0.32024 0.13395 0.32442 0.0
C1450 C 0.32554 0.10876 0.33159 0.0
C1451 C 0.33998 0.03445 0.35119 0.0
C1452 C 0.33506 0.0601 0.34451 0.0
H1453 H 0.36022 0.21168 0.31501 0.0
H1454 H 0.36876 0.17045 0.3281 0.0
H1455 H 0.28211 0.08573 0.34895 0.0
H1456 H 0.33542 0.99404 0.39245 0.0
H1457 H 0.32704 0.03605 0.38135 0.0
C1458 C 0.47722 0.55125 0.36716 0.0
C1459 C 0.50983 0.56184 0.36614 0.0
C1460 C 0.45572 0.52118 0.36144 0.0
C1461 C 0.44547 0.45976 0.33 0.0
H1462 H 0.3875 0.40186 0.369 0.0
C1463 C 0.37265 0.3296 0.31429 0.0
C1464 C 0.34243 0.31253 0.32294 0.0
C1465 C 0.3928 0.36016 0.31969 0.0
C1466 C 0.40298 0.41775 0.35776 0.0
H1467 H 0.54581 0.54954 0.35944 0.0
H1468 H 0.50819 0.49723 0.34862 0.0
H1469 H 0.42191 0.45582 0.37745 0.0
H1470 H 0.3092 0.3139 0.34373 0.0
H1471 H 0.34348 0.36759 0.35243 0.0
H1472 H 0.4261 0.42248 0.31001 0.0
C1473 C 0.49934 0.51221 0.35366 0.0
C1474 C 0.42277 0.44861 0.36269 0.0
C1475 C 0.52072 0.54194 0.3598 0.0
C1476 C 0.33263 0.32648 0.33705 0.0
C1477 C 0.35241 0.35727 0.34209 0.0
C1478 C 0.42514 0.42911 0.32489 0.0
C1479 C 0.46673 0.5016 0.35454 0.0
C1480 C 0.44434 0.46968 0.34891 0.0
C1481 C 0.38281 0.37459 0.33348 0.0
C1482 C 0.40387 0.40754 0.33877 0.0
H1483 H 0.46843 0.56603 0.37265 0.0
H1484 H 0.43059 0.51324 0.36233 0.0
H1485 H 0.46202 0.47577 0.31917 0.0
H1486 H 0.38079 0.31922 0.30345 0.0
H1487 H 0.41626 0.37234 0.31307 0.0
C1488 C 0.67841 0.03001 0.32449 0.0
C1489 C 0.6769 0.02515 0.30434 0.0
C1490 C 0.65085 0.02182 0.33536 0.0
C1491 C 0.57162 0.01023 0.33057 0.0
H1492 H 0.55134 0.96121 0.37832 0.0
C1493 C 0.46441 0.98634 0.37827 0.0
C1494 C 0.44413 0.95496 0.38272 0.0
C1495 C 0.49471 0.99613 0.37076 0.0
C1496 C 0.55683 0.97497 0.36503 0.0
H1497 H 0.64582 0.00539 0.27992 0.0
H1498 H 0.59746 0.99182 0.29882 0.0
H1499 H 0.6008 0.97547 0.36039 0.0
H1500 H 0.44011 0.90972 0.38525 0.0
H1501 H 0.49329 0.92672 0.37178 0.0
H1502 H 0.52796 0.00995 0.33507 0.0
C1503 C 0.61996 0.00266 0.30611 0.0
C1504 C 0.58507 0.98322 0.35488 0.0
C1505 C 0.64749 0.01062 0.29531 0.0
C1506 C 0.45519 0.93383 0.38111 0.0
C1507 C 0.48564 0.94365 0.37375 0.0
C1508 C 0.54375 0.00247 0.34084 0.0
C1509 C 0.62149 0.0084 0.32619 0.0
C1510 C 0.59242 0.0006 0.33745 0.0
C1511 C 0.50533 0.97475 0.36805 0.0
C1512 C 0.53591 0.98447 0.35803 0.0
H1513 H 0.70094 0.04049 0.33174 0.0
H1514 H 0.65251 0.02639 0.35084 0.0
H1515 H 0.5769 0.02374 0.31723 0.0
H1516 H 0.45646 0.00308 0.38007 0.0
H1517 H 0.50969 0.02034 0.36681 0.0
C1518 C 0.98021 0.64743 0.29812 0.0
C1519 C 0.97122 0.66305 0.31157 0.0
C1520 C 0.98662 0.62439 0.30441 0.0
C1521 C 0.01912 0.59274 0.3236 0.0
H1522 H 0.96545 0.53122 0.36243 0.0
C1523 C 0.05619 0.51332 0.363 0.0
C1524 C 0.03299 0.48216 0.36546 0.0
C1525 C 0.04806 0.53478 0.35588 0.0
C1526 C 0.9805 0.54809 0.35146 0.0
H1527 H 0.96133 0.66618 0.3422 0.0
H1528 H 0.9727 0.62597 0.35315 0.0
H1529 H 0.95151 0.56938 0.35077 0.0
H1530 H 0.98308 0.44895 0.36375 0.0
H1531 H 0.96871 0.48635 0.35091 0.0
H1532 H 0.04805 0.57146 0.32424 0.0
C1533 C 0.97458 0.63153 0.33772 0.0
C1534 C 0.97271 0.5701 0.34495 0.0
C1535 C 0.96826 0.65468 0.33144 0.0
C1536 C 0.00137 0.47284 0.36148 0.0
C1537 C 0.9932 0.49425 0.35431 0.0
C1538 C 0.02698 0.57082 0.33017 0.0
C1539 C 0.98408 0.61636 0.32428 0.0
C1540 C 0.99197 0.59267 0.33098 0.0
C1541 C 0.01648 0.52544 0.35143 0.0
C1542 C 0.00779 0.54831 0.34418 0.0
H1543 H 0.98266 0.65318 0.2827 0.0
H1544 H 0.9935 0.61278 0.2937 0.0
H1545 H 0.03458 0.61007 0.31297 0.0
H1546 H 0.08052 0.52111 0.36677 0.0
H1547 H 0.0664 0.55877 0.3542 0.0
C1548 C 0.49718 0.46319 0.62826 0.0
C1549 C 0.46556 0.45597 0.63092 0.0
C1550 C 0.52167 0.49021 0.63607 0.0
C1551 C 0.53701 0.56624 0.65539 0.0
H1552 H 0.61632 0.57259 0.67108 0.0
C1553 C 0.63446 0.66952 0.69693 0.0
C1554 C 0.66293 0.68545 0.68609 0.0
C1555 C 0.61075 0.64051 0.69104 0.0
C1556 C 0.59421 0.57096 0.66673 0.0
H1557 H 0.43463 0.47041 0.64462 0.0
H1558 H 0.47684 0.51622 0.65923 0.0
H1559 H 0.57354 0.52294 0.66006 0.0
H1560 H 0.68942 0.68328 0.66102 0.0
H1561 H 0.64808 0.63191 0.65108 0.0
H1562 H 0.55758 0.61409 0.66279 0.0
C1563 C 0.48311 0.50203 0.65039 0.0
C1564 C 0.56979 0.54268 0.66028 0.0
C1565 C 0.45878 0.47551 0.64217 0.0
C1566 C 0.6676 0.67155 0.66955 0.0
C1567 C 0.64415 0.6422 0.66394 0.0
C1568 C 0.56114 0.59422 0.66224 0.0
C1569 C 0.51495 0.5102 0.64706 0.0
C1570 C 0.54087 0.53997 0.65444 0.0
C1571 C 0.61548 0.62671 0.67453 0.0
C1572 C 0.58991 0.5968 0.66784 0.0
H1573 H 0.50306 0.44861 0.6195 0.0
H1574 H 0.54583 0.49584 0.63294 0.0
H1575 H 0.51555 0.56547 0.65054 0.0
H1576 H 0.63023 0.67979 0.70969 0.0
H1577 H 0.58868 0.62884 0.69935 0.0
C1578 C 0.53663 0.05722 0.62756 0.0
C1579 C 0.54419 0.03346 0.62685 0.0
C1580 C 0.50603 0.05052 0.6327 0.0
C1581 C 0.44618 0.03177 0.65636 0.0
H1582 H 0.37288 0.9596 0.63614 0.0
C1583 C 0.32281 0.98534 0.69026 0.0
C1584 C 0.29788 0.97845 0.67749 0.0
C1585 C 0.35223 0.99134 0.68308 0.0
C1586 C 0.39317 0.97992 0.64177 0.0
H1587 H 0.52598 0.98407 0.62949 0.0
H1588 H 0.47235 0.97219 0.63896 0.0
H1589 H 0.426 0.97219 0.62496 0.0
H1590 H 0.28408 0.97144 0.64717 0.0
H1591 H 0.33586 0.98199 0.63462 0.0
H1592 H 0.41349 0.03959 0.67312 0.0
C1593 C 0.48999 0.99599 0.63566 0.0
C1594 C 0.4235 0.98696 0.63554 0.0
C1595 C 0.52059 0.00274 0.63045 0.0
C1596 C 0.30282 0.97681 0.65738 0.0
C1597 C 0.33236 0.9827 0.6502 0.0
C1598 C 0.41595 0.02465 0.66265 0.0
C1599 C 0.48247 0.01985 0.6369 0.0
C1600 C 0.45028 0.01283 0.6429 0.0
C1601 C 0.35741 0.9905 0.66299 0.0
C1602 C 0.38921 0.99853 0.65555 0.0
H1603 H 0.55434 0.08091 0.62399 0.0
H1604 H 0.50075 0.06928 0.6332 0.0
H1605 H 0.46635 0.05179 0.6623 0.0
H1606 H 0.31988 0.98664 0.70584 0.0
H1607 H 0.37102 0.99677 0.69327 0.0
C1608 C 0.027 0.35016 0.70374 0.0
C1609 C 0.01517 0.32231 0.6936 0.0
C1610 C 0.02153 0.37366 0.6971 0.0
C1611 C 0.99591 0.39964 0.65338 0.0
H1612 H 0.98538 0.4521 0.69088 0.0
C1613 C 0.94832 0.48478 0.63833 0.0
C1614 C 0.97271 0.5156 0.63947 0.0
C1615 C 0.95283 0.46081 0.64527 0.0
C1616 C 0.98826 0.43751 0.68034 0.0
H1617 H 0.98794 0.29684 0.66878 0.0
H1618 H 0.97706 0.33722 0.65762 0.0
H1619 H 0.99349 0.41 0.70243 0.0
H1620 H 0.02117 0.5459 0.6477 0.0
H1621 H 0.02875 0.50373 0.66061 0.0
H1622 H 0.98937 0.42679 0.6314 0.0
C1623 C 0.99154 0.34151 0.67032 0.0
C1624 C 0.99319 0.4136 0.68687 0.0
C1625 C 0.9976 0.31826 0.67675 0.0
C1626 C 0.0019 0.52223 0.64718 0.0
C1627 C 0.00621 0.49831 0.65448 0.0
C1628 C 0.99032 0.42316 0.64691 0.0
C1629 C 0.00351 0.36957 0.68038 0.0
C1630 C 0.99737 0.3945 0.67346 0.0
C1631 C 0.98173 0.46752 0.65345 0.0
C1632 C 0.98672 0.4423 0.66036 0.0
H1633 H 0.04092 0.35399 0.71668 0.0
H1634 H 0.03178 0.39516 0.70498 0.0
H1635 H -0.00041 0.38587 0.6426 0.0
H1636 H 0.92598 0.47926 0.63184 0.0
H1637 H 0.93382 0.43709 0.64428 0.0
C1638 C 0.1823 0.87309 0.69412 0.0
C1639 C 0.17185 0.89349 0.70013 0.0
C1640 C 0.16065 0.84347 0.68797 0.0
C1641 C 0.08267 0.78077 0.6957 0.0
H1642 H 0.08911 0.75526 0.64334 0.0
C1643 C 0.99314 0.6595 0.66802 0.0
C1644 C 0.00378 0.64572 0.6543 0.0
C1645 C 0.01282 0.69008 0.67356 0.0
C1646 C 0.08724 0.7617 0.65813 0.0
H1647 H 0.13086 0.89862 0.70612 0.0
H1648 H 0.0925 0.84602 0.69573 0.0
H1649 H 0.12516 0.80808 0.65319 0.0
H1650 H 0.04348 0.6524 0.63611 0.0
H1651 H 0.07862 0.70502 0.64664 0.0
H1652 H 0.04626 0.73418 0.70125 0.0
C1653 C 0.11754 0.85348 0.69514 0.0
C1654 C 0.10766 0.79211 0.66363 0.0
C1655 C 0.13934 0.88345 0.70088 0.0
C1656 C 0.03469 0.66266 0.64661 0.0
C1657 C 0.05467 0.69296 0.65252 0.0
C1658 C 0.06274 0.75011 0.69038 0.0
C1659 C 0.12814 0.83344 0.68849 0.0
C1660 C 0.10549 0.80182 0.68243 0.0
C1661 C 0.04387 0.7073 0.66585 0.0
C1662 C 0.06479 0.74009 0.67152 0.0
H1663 H 0.20729 0.88025 0.69398 0.0
H1664 H 0.1692 0.82817 0.68313 0.0
H1665 H 0.08094 0.78782 0.71037 0.0
H1666 H 0.9692 0.64699 0.67396 0.0
H1667 H 0.00332 0.70034 0.68355 0.0
C1668 C 0.11466 0.26007 0.70978 0.0
C1669 C 0.10752 0.28413 0.71026 0.0
C1670 C 0.14401 0.26563 0.70256 0.0
C1671 C 0.22523 0.32916 0.69147 0.0
H1672 H 0.22835 0.2695 0.65669 0.0
C1673 C 0.3426 0.34905 0.65788 0.0
C1674 C 0.34203 0.34444 0.63775 0.0
C1675 C 0.31434 0.33864 0.66844 0.0
C1676 C 0.22781 0.28639 0.66634 0.0
H1677 H 0.12531 0.33298 0.70498 0.0
H1678 H 0.17628 0.34271 0.69162 0.0
H1679 H 0.1782 0.25814 0.67201 0.0
H1680 H 0.3123 0.32239 0.6131 0.0
H1681 H 0.2627 0.30481 0.63137 0.0
H1682 H 0.27465 0.35785 0.68534 0.0
C1683 C 0.15953 0.31959 0.69687 0.0
C1684 C 0.19914 0.27978 0.67524 0.0
C1685 C 0.13034 0.31405 0.70428 0.0
C1686 C 0.31305 0.32723 0.62852 0.0
C1687 C 0.28477 0.31673 0.63905 0.0
C1688 C 0.25387 0.33577 0.68257 0.0
C1689 C 0.16666 0.29543 0.69589 0.0
C1690 C 0.19745 0.30134 0.68762 0.0
C1691 C 0.28517 0.32294 0.65903 0.0
C1692 C 0.25535 0.31465 0.6697 0.0
H1693 H 0.09762 0.23707 0.71509 0.0
H1694 H 0.14901 0.24668 0.70234 0.0
H1695 H 0.22482 0.346 0.70122 0.0
H1696 H 0.3649 0.36144 0.6653 0.0
H1697 H 0.31532 0.34313 0.68392 0.0
C1698 C 0.72064 0.84513 0.69691 0.0
C1699 C 0.69671 0.81415 0.69882 0.0
C1700 C 0.71359 0.86749 0.69006 0.0
C1701 C 0.69459 0.90599 0.66499 0.0
H1702 H 0.61933 0.9052 0.68537 0.0
C1703 C 0.64865 0.98356 0.63323 0.0
C1704 C 0.6389 0.99861 0.64665 0.0
C1705 C 0.65556 0.96086 0.63953 0.0
C1706 C 0.6405 0.90579 0.67964 0.0
H1707 H 0.64662 0.78211 0.69632 0.0
H1708 H 0.63417 0.82108 0.68394 0.0
H1709 H 0.63204 0.86596 0.69651 0.0
H1710 H 0.62853 0.00135 0.67724 0.0
H1711 H 0.64074 0.96172 0.68822 0.0
H1712 H 0.70331 0.94613 0.64835 0.0
C1713 C 0.65839 0.82816 0.68757 0.0
C1714 C 0.64759 0.88315 0.68583 0.0
C1715 C 0.66547 0.80587 0.69449 0.0
C1716 C 0.63599 0.99025 0.66651 0.0
C1717 C 0.64281 0.96744 0.6728 0.0
C1718 C 0.68743 0.92856 0.65873 0.0
C1719 C 0.68237 0.85922 0.68534 0.0
C1720 C 0.67471 0.88303 0.67857 0.0
C1721 C 0.65277 0.95263 0.65937 0.0
C1722 C 0.66034 0.92869 0.66601 0.0
H1723 H 0.74467 0.85208 0.70098 0.0
H1724 H 0.73245 0.89133 0.68884 0.0
H1725 H 0.71557 0.9064 0.65909 0.0
H1726 H 0.65114 0.98937 0.61782 0.0
H1727 H 0.66281 0.94954 0.62884 0.0
loop_
_geom_bond_atom_site_label_1
_geom_bond_atom_site_label_2
_geom_bond_distance
_geom_bond_site_symmetry_2
_ccdc_geom_bond_type
Mn0 O5 2.095 . S
Mn0 O15 2.162 . S
Mn0 O16 2.297 . S
Mn0 O24 2.385 . S
Mn0 O25 2.209 . S
Mn0 O26 2.094 1_545 S
Mn1 O6 2.121 . S
Mn1 N8 2.257 1_554 S
Mn1 N17 2.282 1_554 S
Mn1 O25 2.215 . S
Mn1 O27 2.117 . S
C2 O24 1.234 . S
C2 O25 1.283 . S
C3 O15 1.281 . S
C3 O16 1.236 . S
C4 O26 1.240 . S
C4 O27 1.264 1_565 S
O5 Mn0 2.095 . S
O5 C14 1.250 . S
O6 Mn1 2.121 . S
O6 C14 1.258 . S
C7 N8 1.326 . S
C7 C11 1.460 . S
C7 H13 0.958 . S
N8 Mn1 2.257 1_556 S
N8 C7 1.326 . S
N8 C12 1.362 . S
C9 C10 1.258 . S
C9 C12 1.431 . S
C9 C29 1.449 . S
C10 C9 1.258 . S
C10 C11 1.477 . S
C10 H30 0.931 . S
C11 C7 1.460 . S
C11 C10 1.477 . S
C11 H31 0.930 . S
C12 N8 1.362 . S
C12 C9 1.431 . S
C12 C22 1.476 . S
H13 C7 0.958 . S
C14 O5 1.250 . S
C14 O6 1.258 . S
O15 Mn0 2.162 . S
O15 C3 1.281 . S
O16 Mn0 2.297 . S
O16 C3 1.236 . S
N17 Mn1 2.282 1_556 S
N17 C18 1.328 . S
N17 C22 1.318 . S
C18 N17 1.328 . S
C18 C19 1.457 . S
C18 H23 0.929 1_556 S
C19 C18 1.457 . S
C19 C20 1.291 . S
C19 H32 0.931 . S
C20 C19 1.291 . S
C20 C21 1.373 . S
C20 H33 0.929 . S
C21 C20 1.373 . S
C21 C22 1.396 . S
C21 C28 1.403 . S
C22 C12 1.476 . S
C22 N17 1.318 . S
C22 C21 1.396 . S
H23 C18 0.929 1_554 S
O24 Mn0 2.385 . S
O24 C2 1.234 . S
O25 Mn0 2.209 . S
O25 Mn1 2.215 . S
O25 C2 1.283 . S
O26 Mn0 2.094 1_565 S
O26 C4 1.240 . S
O27 Mn1 2.117 . S
O27 C4 1.264 1_545 S
C28 C21 1.403 . S
C28 C29 1.399 . S
C28 H34 0.929 . S
C29 C9 1.449 . S
C29 C28 1.399 . S
C29 H35 0.930 . S
H30 C10 0.931 . S
H31 C11 0.930 . S
H32 C19 0.931 . S
H33 C20 0.929 . S
H34 C28 0.929 . S
H35 C29 0.930 . S
Mn36 O41 2.095 . S
Mn36 O51 2.162 . S
Mn36 O52 2.297 . S
Mn36 O60 2.385 . S
Mn36 O61 2.209 . S
Mn36 O62 2.094 . S
Mn37 O42 2.121 . S
Mn37 N44 2.257 1_554 S
Mn37 N53 2.282 1_554 S
Mn37 O61 2.215 . S
Mn37 O63 2.117 . S
C38 O60 1.234 . S
C38 O61 1.283 . S
C39 O51 1.281 . S
C39 O52 1.236 . S
C40 O62 1.240 1_455 S
C40 O63 1.264 1_455 S
O41 Mn36 2.095 . S
O41 C50 1.250 . S
O42 Mn37 2.121 . S
O42 C50 1.258 . S
C43 N44 1.326 . S
C43 C47 1.460 . S
C43 H49 0.929 1_556 S
N44 Mn37 2.257 1_556 S
N44 C43 1.326 . S
N44 C48 1.362 . S
C45 C46 1.258 . S
C45 C48 1.431 . S
C45 C65 1.449 . S
C46 C45 1.258 . S
C46 C47 1.477 . S
C46 H66 0.931 . S
C47 C43 1.460 . S
C47 C46 1.477 . S
C47 H67 0.930 . S
C48 N44 1.362 . S
C48 C45 1.431 . S
C48 C58 1.476 . S
H49 C43 0.929 1_554 S
C50 O41 1.250 . S
C50 O42 1.258 . S
O51 Mn36 2.162 . S
O51 C39 1.281 . S
O52 Mn36 2.297 . S
O52 C39 1.236 . S
N53 Mn37 2.282 1_556 S
N53 C54 1.328 . S
N53 C58 1.318 . S
C54 N53 1.328 . S
C54 C55 1.457 . S
C54 H59 0.929 1_556 S
C55 C54 1.457 . S
C55 C56 1.291 . S
C55 H68 0.931 . S
C56 C55 1.291 . S
C56 C57 1.373 . S
C56 H69 0.929 . S
C57 C56 1.373 . S
C57 C58 1.396 . S
C57 C64 1.403 . S
C58 C48 1.476 . S
C58 N53 1.318 . S
C58 C57 1.396 . S
H59 C54 0.929 1_554 S
O60 Mn36 2.385 . S
O60 C38 1.234 . S
O61 Mn36 2.209 . S
O61 Mn37 2.215 . S
O61 C38 1.283 . S
O62 Mn36 2.094 . S
O62 C40 1.240 1_655 S
O63 Mn37 2.117 . S
O63 C40 1.264 1_655 S
C64 C57 1.403 . S
C64 C65 1.399 . S
C64 H70 0.929 . S
C65 C45 1.449 . S
C65 C64 1.399 . S
C65 H71 0.930 . S
H66 C46 0.931 . S
H67 C47 0.930 . S
H68 C55 0.931 . S
H69 C56 0.929 . S
H70 C64 0.929 . S
H71 C65 0.930 . S
Mn72 O77 2.095 . S
Mn72 O87 2.162 . S
Mn72 O88 2.297 . S
Mn72 O96 2.385 . S
Mn72 O97 2.209 . S
Mn72 O98 2.094 . S
Mn73 O78 2.121 . S
Mn73 N80 2.257 1_554 S
Mn73 N89 2.282 1_554 S
Mn73 O97 2.215 . S
Mn73 O99 2.117 . S
C74 O96 1.234 . S
C74 O97 1.283 . S
C75 O87 1.281 . S
C75 O88 1.236 . S
C76 O98 1.240 . S
C76 O99 1.264 . S
O77 Mn72 2.095 . S
O77 C86 1.250 . S
O78 Mn73 2.121 . S
O78 C86 1.258 . S
C79 N80 1.326 . S
C79 C83 1.460 . S
C79 H85 0.929 . S
N80 Mn73 2.257 1_556 S
N80 C79 1.326 . S
N80 C84 1.362 . S
C81 C82 1.258 . S
C81 C84 1.431 . S
C81 C101 1.449 . S
C82 C81 1.258 . S
C82 C83 1.477 . S
C82 H102 0.931 . S
C83 C79 1.460 . S
C83 C82 1.477 . S
C83 H103 0.930 . S
C84 N80 1.362 . S
C84 C81 1.431 . S
C84 C94 1.476 . S
H85 C79 0.929 . S
C86 O77 1.250 . S
C86 O78 1.258 . S
O87 Mn72 2.162 . S
O87 C75 1.281 . S
O88 Mn72 2.297 . S
O88 C75 1.236 . S
N89 Mn73 2.282 1_556 S
N89 C90 1.328 . S
N89 C94 1.318 . S
C90 N89 1.328 . S
C90 C91 1.457 . S
C90 H95 0.918 1_556 S
C91 C90 1.457 . S
C91 C92 1.291 . S
C91 H104 0.931 . S
C92 C91 1.291 . S
C92 C93 1.373 . S
C92 H105 0.929 . S
C93 C92 1.373 . S
C93 C94 1.396 . S
C93 C100 1.403 . S
C94 C84 1.476 . S
C94 N89 1.318 . S
C94 C93 1.396 . S
H95 C90 0.918 1_554 S
O96 Mn72 2.385 . S
O96 C74 1.234 . S
O97 Mn72 2.209 . S
O97 Mn73 2.215 . S
O97 C74 1.283 . S
O98 Mn72 2.094 . S
O98 C76 1.240 . S
O99 Mn73 2.117 . S
O99 C76 1.264 . S
C100 C93 1.403 . S
C100 C101 1.399 . S
C100 H106 0.929 . S
C101 C81 1.449 . S
C101 C100 1.399 . S
C101 H107 0.930 . S
H102 C82 0.931 . S
H103 C83 0.930 . S
H104 C91 0.931 . S
H105 C92 0.929 . S
H106 C100 0.929 . S
H107 C101 0.930 . S
Mn108 O113 2.095 . S
Mn108 O123 2.162 . S
Mn108 O124 2.297 . S
Mn108 O132 2.385 . S
Mn108 O133 2.209 . S
Mn108 O134 2.094 1_565 S
Mn109 O114 2.121 . S
Mn109 N116 2.257 1_556 S
Mn109 N125 2.282 1_556 S
Mn109 O133 2.215 . S
Mn109 O135 2.117 1_565 S
C110 O132 1.234 . S
C110 O133 1.283 . S
C111 O123 1.281 . S
C111 O124 1.236 . S
C112 O134 1.240 . S
C112 O135 1.264 . S
O113 Mn108 2.095 . S
O113 C122 1.250 . S
O114 Mn109 2.121 . S
O114 C122 1.258 . S
C115 N116 1.326 . S
C115 C119 1.460 . S
C115 H121 0.948 . S
N116 Mn109 2.257 1_554 S
N116 C115 1.326 . S
N116 C120 1.362 . S
C117 C118 1.258 . S
C117 C120 1.431 . S
C117 C137 1.449 . S
C118 C117 1.258 . S
C118 C119 1.477 . S
C118 H138 0.931 . S
C119 C115 1.460 . S
C119 C118 1.477 . S
C119 H139 0.930 . S
C120 N116 1.362 . S
C120 C117 1.431 . S
C120 C130 1.476 . S
H121 C115 0.948 . S
C122 O113 1.250 . S
C122 O114 1.258 . S
O123 Mn108 2.162 . S
O123 C111 1.281 . S
O124 Mn108 2.297 . S
O124 C111 1.236 . S
N125 Mn109 2.282 1_554 S
N125 C126 1.328 . S
N125 C130 1.318 . S
C126 N125 1.328 . S
C126 C127 1.457 . S
C126 H131 0.929 1_554 S
C127 C126 1.457 . S
C127 C128 1.291 . S
C127 H140 0.931 . S
C128 C127 1.291 . S
C128 C129 1.373 . S
C128 H141 0.929 . S
C129 C128 1.373 . S
C129 C130 1.396 . S
C129 C136 1.403 . S
C130 C120 1.476 . S
C130 N125 1.318 . S
C130 C129 1.396 . S
H131 C126 0.929 1_556 S
O132 Mn108 2.385 . S
O132 C110 1.234 . S
O133 Mn108 2.209 . S
O133 Mn109 2.215 . S
O133 C110 1.283 . S
O134 Mn108 2.094 1_545 S
O134 C112 1.240 . S
O135 Mn109 2.117 1_545 S
O135 C112 1.264 . S
C136 C129 1.403 . S
C136 C137 1.399 . S
C136 H142 0.929 . S
C137 C117 1.449 . S
C137 C136 1.399 . S
C137 H143 0.930 . S
H138 C118 0.931 . S
H139 C119 0.930 . S
H140 C127 0.931 . S
H141 C128 0.929 . S
H142 C136 0.929 . S
H143 C137 0.930 . S
Mn144 O149 2.095 . S
Mn144 O159 2.162 . S
Mn144 O160 2.297 . S
Mn144 O168 2.385 1_455 S
Mn144 O169 2.229 . S
Mn144 O170 2.094 . S
Mn145 O150 2.121 . S
Mn145 N152 2.257 1_455 S
Mn145 N161 2.253 1_455 S
Mn145 O169 2.216 . S
Mn145 O171 2.117 . S
C146 O168 1.234 . S
C146 O169 1.276 1_655 S
C147 O159 1.281 . S
C147 O160 1.236 . S
C148 O170 1.240 . S
C148 O171 1.264 . S
O149 Mn144 2.095 . S
O149 C158 1.250 . S
O150 Mn145 2.121 . S
O150 C158 1.258 . S
C151 N152 1.326 . S
C151 C155 1.460 . S
C151 H157 0.929 . S
N152 Mn145 2.257 1_655 S
N152 C151 1.326 . S
N152 C156 1.362 . S
C153 C154 1.258 . S
C153 C156 1.431 . S
C153 C173 1.449 . S
C154 C153 1.258 . S
C154 C155 1.477 . S
C154 H174 0.931 . S
C155 C151 1.460 . S
C155 C154 1.477 . S
C155 H175 0.930 . S
C156 N152 1.362 . S
C156 C153 1.431 . S
C156 C166 1.476 . S
H157 C151 0.929 . S
C158 O149 1.250 . S
C158 O150 1.258 . S
O159 Mn144 2.162 . S
O159 C147 1.281 . S
O160 Mn144 2.297 . S
O160 C147 1.236 . S
N161 Mn145 2.253 1_655 S
N161 C162 1.323 1_655 S
N161 C166 1.355 . S
C162 N161 1.323 1_455 S
C162 C163 1.457 1_455 S
C162 H167 0.929 . S
C163 C162 1.457 1_655 S
C163 C164 1.291 . S
C163 H176 0.931 1_556 S
C164 C163 1.291 . S
C164 C165 1.373 . S
C164 H177 0.929 . S
C165 C164 1.373 . S
C165 C166 1.396 . S
C165 C172 1.403 . S
C166 C156 1.476 . S
C166 N161 1.355 . S
C166 C165 1.396 . S
H167 C162 0.929 . S
O168 Mn144 2.385 1_655 S
O168 C146 1.234 . S
O169 Mn144 2.229 . S
O169 Mn145 2.216 . S
O169 C146 1.276 1_455 S
O170 Mn144 2.094 . S
O170 C148 1.240 . S
O171 Mn145 2.117 . S
O171 C148 1.264 . S
C172 C165 1.403 . S
C172 C173 1.399 . S
C172 H178 0.929 . S
C173 C153 1.449 . S
C173 C172 1.399 . S
C173 H179 0.930 . S
H174 C154 0.931 . S
H175 C155 0.930 . S
H176 C163 0.931 1_554 S
H177 C164 0.929 . S
H178 C172 0.929 . S
H179 C173 0.930 . S
Mn180 O185 2.095 . S
Mn180 O195 2.162 . S
Mn180 O196 2.297 . S
Mn180 O204 2.385 . S
Mn180 O205 2.209 . S
Mn180 O206 2.094 . S
Mn181 O186 2.121 . S
Mn181 N188 2.257 1_556 S
Mn181 N197 2.282 1_556 S
Mn181 O205 2.215 . S
Mn181 O207 2.117 . S
C182 O204 1.234 . S
C182 O205 1.283 . S
C183 O195 1.281 . S
C183 O196 1.236 . S
C184 O206 1.240 . S
C184 O207 1.264 . S
O185 Mn180 2.095 . S
O185 C194 1.250 . S
O186 Mn181 2.121 . S
O186 C194 1.258 . S
C187 N188 1.326 . S
C187 C191 1.460 . S
C187 H193 0.929 1_554 S
N188 Mn181 2.257 1_554 S
N188 C187 1.326 . S
N188 C192 1.362 . S
C189 C190 1.258 . S
C189 C192 1.431 . S
C189 C209 1.449 . S
C190 C189 1.258 . S
C190 C191 1.477 . S
C190 H210 0.931 . S
C191 C187 1.460 . S
C191 C190 1.477 . S
C191 H211 0.930 . S
C192 N188 1.362 . S
C192 C189 1.431 . S
C192 C202 1.476 . S
H193 C187 0.929 1_556 S
C194 O185 1.250 . S
C194 O186 1.258 . S
O195 Mn180 2.162 . S
O195 C183 1.281 . S
O196 Mn180 2.297 . S
O196 C183 1.236 . S
N197 Mn181 2.282 1_554 S
N197 C198 1.328 . S
N197 C202 1.318 . S
C198 N197 1.328 . S
C198 C199 1.457 . S
C198 H203 0.929 1_554 S
C199 C198 1.457 . S
C199 C200 1.291 . S
C199 H212 0.931 . S
C200 C199 1.291 . S
C200 C201 1.373 . S
C200 H213 0.929 . S
C201 C200 1.373 . S
C201 C202 1.396 . S
C201 C208 1.403 . S
C202 C192 1.476 . S
C202 N197 1.318 . S
C202 C201 1.396 . S
H203 C198 0.929 1_556 S
O204 Mn180 2.385 . S
O204 C182 1.234 . S
O205 Mn180 2.209 . S
O205 Mn181 2.215 . S
O205 C182 1.283 . S
O206 Mn180 2.094 . S
O206 C184 1.240 . S
O207 Mn181 2.117 . S
O207 C184 1.264 . S
C208 C201 1.403 . S
C208 C209 1.399 . S
C208 H214 0.929 . S
C209 C189 1.449 . S
C209 C208 1.399 . S
C209 H215 0.930 . S
H210 C190 0.931 . S
H211 C191 0.930 . S
H212 C199 0.931 . S
H213 C200 0.929 . S
H214 C208 0.929 . S
H215 C209 0.930 . S
Mn216 O221 2.095 1_655 S
Mn216 O231 2.162 . S
Mn216 O232 2.297 1_655 S
Mn216 O240 2.385 . S
Mn216 O241 2.209 1_655 S
Mn216 O242 2.094 . S
Mn217 O222 2.121 . S
Mn217 N224 2.257 . S
Mn217 N233 2.282 1_455 S
Mn217 O241 2.215 . S
Mn217 O243 2.117 1_455 S
C218 O240 1.234 . S
C218 O241 1.283 1_655 S
C219 O231 1.281 1_455 S
C219 O232 1.236 . S
C220 O242 1.240 . S
C220 O243 1.264 . S
O221 Mn216 2.095 1_455 S
O221 C230 1.250 . S
O222 Mn217 2.121 . S
O222 C230 1.258 . S
C223 N224 1.326 . S
C223 C227 1.460 . S
C223 H229 0.929 . S
N224 Mn217 2.257 . S
N224 C223 1.326 . S
N224 C228 1.362 . S
C225 C226 1.258 . S
C225 C228 1.431 . S
C225 C245 1.449 . S
C226 C225 1.258 . S
C226 C227 1.477 . S
C226 H246 0.931 . S
C227 C223 1.460 . S
C227 C226 1.477 . S
C227 H247 0.930 . S
C228 N224 1.362 . S
C228 C225 1.431 . S
C228 C238 1.476 1_455 S
H229 C223 0.929 . S
C230 O221 1.250 . S
C230 O222 1.258 . S
O231 Mn216 2.162 . S
O231 C219 1.281 1_655 S
O232 Mn216 2.297 1_455 S
O232 C219 1.236 . S
N233 Mn217 2.282 1_655 S
N233 C234 1.328 . S
N233 C238 1.318 . S
C234 N233 1.328 . S
C234 C235 1.457 . S
C234 H239 0.929 . S
C235 C234 1.457 . S
C235 C236 1.291 . S
C235 H248 0.931 . S
C236 C235 1.291 . S
C236 C237 1.373 . S
C236 H249 0.929 . S
C237 C236 1.373 . S
C237 C238 1.396 . S
C237 C244 1.403 . S
C238 C228 1.476 1_655 S
C238 N233 1.318 . S
C238 C237 1.396 . S
H239 C234 0.929 . S
O240 Mn216 2.385 . S
O240 C218 1.234 . S
O241 Mn216 2.209 1_455 S
O241 Mn217 2.215 . S
O241 C218 1.283 1_455 S
O242 Mn216 2.094 . S
O242 C220 1.240 . S
O243 Mn217 2.117 1_655 S
O243 C220 1.264 . S
C244 C237 1.403 . S
C244 C245 1.399 1_655 S
C244 H250 0.929 . S
C245 C225 1.449 . S
C245 C244 1.399 1_455 S
C245 H251 0.930 . S
H246 C226 0.931 . S
H247 C227 0.930 . S
H248 C235 0.931 . S
H249 C236 0.929 . S
H250 C244 0.929 . S
H251 C245 0.930 . S
Mn252 O257 2.095 . S
Mn252 O267 2.162 . S
Mn252 O268 2.297 . S
Mn252 O276 2.385 . S
Mn252 O277 2.209 . S
Mn252 O278 2.094 . S
Mn253 O258 2.121 . S
Mn253 N260 2.257 . S
Mn253 N269 2.282 . S
Mn253 O277 2.215 . S
Mn253 O279 2.117 . S
C254 O276 1.234 . S
C254 O277 1.283 . S
C255 O267 1.281 . S
C255 O268 1.236 . S
C256 O278 1.240 . S
C256 O279 1.264 . S
O257 Mn252 2.095 . S
O257 C266 1.250 . S
O258 Mn253 2.121 . S
O258 C266 1.258 . S
C259 N260 1.326 . S
C259 C263 1.460 . S
C259 H265 0.929 . S
N260 Mn253 2.257 . S
N260 C259 1.326 . S
N260 C264 1.362 . S
C261 C262 1.258 . S
C261 C264 1.431 . S
C261 C281 1.449 . S
C262 C261 1.258 . S
C262 C263 1.477 . S
C262 H282 0.931 . S
C263 C259 1.460 . S
C263 C262 1.477 . S
C263 H283 0.930 . S
C264 N260 1.362 . S
C264 C261 1.431 . S
C264 C274 1.476 . S
H265 C259 0.929 . S
C266 O257 1.250 . S
C266 O258 1.258 . S
O267 Mn252 2.162 . S
O267 C255 1.281 . S
O268 Mn252 2.297 . S
O268 C255 1.236 . S
N269 Mn253 2.282 . S
N269 C270 1.328 . S
N269 C274 1.318 . S
C270 N269 1.328 . S
C270 C271 1.457 . S
C270 H275 0.929 . S
C271 C270 1.457 . S
C271 C272 1.291 . S
C271 H284 0.931 . S
C272 C271 1.291 . S
C272 C273 1.373 . S
C272 H285 0.929 . S
C273 C272 1.373 . S
C273 C274 1.396 . S
C273 C280 1.403 . S
C274 C264 1.476 . S
C274 N269 1.318 . S
C274 C273 1.396 . S
H275 C270 0.929 . S
O276 Mn252 2.385 . S
O276 C254 1.234 . S
O277 Mn252 2.209 . S
O277 Mn253 2.215 . S
O277 C254 1.283 . S
O278 Mn252 2.094 . S
O278 C256 1.240 . S
O279 Mn253 2.117 . S
O279 C256 1.264 . S
C280 C273 1.403 . S
C280 C281 1.399 . S
C280 H286 0.929 . S
C281 C261 1.449 . S
C281 C280 1.399 . S
C281 H287 0.930 . S
H282 C262 0.931 . S
H283 C263 0.930 . S
H284 C271 0.931 . S
H285 C272 0.929 . S
H286 C280 0.929 . S
H287 C281 0.930 . S
Mn288 O293 2.095 1_545 S
Mn288 O303 2.162 . S
Mn288 O304 2.297 1_545 S
Mn288 O312 2.385 . S
Mn288 O313 2.209 1_545 S
Mn288 O314 2.094 . S
Mn289 O294 2.121 . S
Mn289 N296 2.257 . S
Mn289 N305 2.282 1_565 S
Mn289 O313 2.215 . S
Mn289 O315 2.117 1_565 S
C290 O312 1.234 . S
C290 O313 1.283 1_545 S
C291 O303 1.281 1_565 S
C291 O304 1.236 . S
C292 O314 1.240 . S
C292 O315 1.264 . S
O293 Mn288 2.095 1_565 S
O293 C302 1.250 . S
O294 Mn289 2.121 . S
O294 C302 1.258 . S
C295 N296 1.326 . S
C295 C299 1.460 . S
C295 H301 0.929 . S
N296 Mn289 2.257 . S
N296 C295 1.326 . S
N296 C300 1.362 . S
C297 C298 1.258 . S
C297 C300 1.431 . S
C297 C317 1.449 . S
C298 C297 1.258 . S
C298 C299 1.477 . S
C298 H318 0.931 . S
C299 C295 1.460 . S
C299 C298 1.477 . S
C299 H319 0.930 . S
C300 N296 1.362 . S
C300 C297 1.431 . S
C300 C310 1.476 1_565 S
H301 C295 0.929 . S
C302 O293 1.250 . S
C302 O294 1.258 . S
O303 Mn288 2.162 . S
O303 C291 1.281 1_545 S
O304 Mn288 2.297 1_565 S
O304 C291 1.236 . S
N305 Mn289 2.282 1_545 S
N305 C306 1.328 . S
N305 C310 1.318 . S
C306 N305 1.328 . S
C306 C307 1.457 . S
C306 H311 0.929 . S
C307 C306 1.457 . S
C307 C308 1.291 . S
C307 H320 0.931 . S
C308 C307 1.291 . S
C308 C309 1.373 . S
C308 H321 0.929 . S
C309 C308 1.373 . S
C309 C310 1.396 . S
C309 C316 1.403 . S
C310 C300 1.476 1_545 S
C310 N305 1.318 . S
C310 C309 1.396 . S
H311 C306 0.929 . S
O312 Mn288 2.385 . S
O312 C290 1.234 . S
O313 Mn288 2.209 1_565 S
O313 Mn289 2.215 . S
O313 C290 1.283 1_565 S
O314 Mn288 2.094 . S
O314 C292 1.240 . S
O315 Mn289 2.117 1_545 S
O315 C292 1.264 . S
C316 C309 1.403 . S
C316 C317 1.399 1_545 S
C316 H322 0.929 . S
C317 C297 1.449 . S
C317 C316 1.399 1_565 S
C317 H323 0.930 . S
H318 C298 0.931 . S
H319 C299 0.930 . S
H320 C307 0.931 . S
H321 C308 0.929 . S
H322 C316 0.929 . S
H323 C317 0.930 . S
Mn324 O329 2.095 . S
Mn324 O339 2.162 . S
Mn324 O340 2.297 . S
Mn324 O348 2.385 . S
Mn324 O349 2.209 . S
Mn324 O350 2.094 . S
Mn325 O330 2.121 . S
Mn325 N332 2.257 . S
Mn325 N341 2.282 . S
Mn325 O349 2.215 . S
Mn325 O351 2.117 . S
C326 O348 1.234 . S
C326 O349 1.283 . S
C327 O339 1.281 . S
C327 O340 1.236 . S
C328 O350 1.240 . S
C328 O351 1.264 . S
O329 Mn324 2.095 . S
O329 C338 1.250 . S
O330 Mn325 2.121 . S
O330 C338 1.258 . S
C331 N332 1.326 . S
C331 C335 1.460 . S
C331 H337 0.929 . S
N332 Mn325 2.257 . S
N332 C331 1.326 . S
N332 C336 1.362 . S
C333 C334 1.258 . S
C333 C336 1.431 . S
C333 C353 1.449 . S
C334 C333 1.258 . S
C334 C335 1.477 . S
C334 H354 0.931 . S
C335 C331 1.460 . S
C335 C334 1.477 . S
C335 H355 0.930 . S
C336 N332 1.362 . S
C336 C333 1.431 . S
C336 C346 1.476 . S
H337 C331 0.929 . S
C338 O329 1.250 . S
C338 O330 1.258 . S
O339 Mn324 2.162 . S
O339 C327 1.281 . S
O340 Mn324 2.297 . S
O340 C327 1.236 . S
N341 Mn325 2.282 . S
N341 C342 1.328 . S
N341 C346 1.318 . S
C342 N341 1.328 . S
C342 C343 1.457 . S
C342 H347 0.929 . S
C343 C342 1.457 . S
C343 C344 1.291 . S
C343 H356 0.931 . S
C344 C343 1.291 . S
C344 C345 1.373 . S
C344 H357 0.929 . S
C345 C344 1.373 . S
C345 C346 1.396 . S
C345 C352 1.403 . S
C346 C336 1.476 . S
C346 N341 1.318 . S
C346 C345 1.396 . S
H347 C342 0.929 . S
O348 Mn324 2.385 . S
O348 C326 1.234 . S
O349 Mn324 2.209 . S
O349 Mn325 2.215 . S
O349 C326 1.283 . S
O350 Mn324 2.094 . S
O350 C328 1.240 . S
O351 Mn325 2.117 . S
O351 C328 1.264 . S
C352 C345 1.403 . S
C352 C353 1.399 . S
C352 H358 0.929 . S
C353 C333 1.449 . S
C353 C352 1.399 . S
C353 H359 0.930 . S
H354 C334 0.931 . S
H355 C335 0.930 . S
H356 C343 0.931 . S
H357 C344 0.929 . S
H358 C352 0.929 . S
H359 C353 0.930 . S
Mn360 O365 2.095 . S
Mn360 O375 2.162 1_545 S
Mn360 O376 2.297 1_545 S
Mn360 O384 2.385 . S
Mn360 O385 2.209 . S
Mn360 O386 2.094 . S
Mn361 O366 2.121 . S
Mn361 N368 2.257 . S
Mn361 N377 2.282 . S
Mn361 O385 2.215 . S
Mn361 O387 2.117 . S
C362 O384 1.234 . S
C362 O385 1.283 . S
C363 O375 1.281 . S
C363 O376 1.236 . S
C364 O386 1.240 . S
C364 O387 1.264 . S
O365 Mn360 2.095 . S
O365 C374 1.250 . S
O366 Mn361 2.121 . S
O366 C374 1.258 . S
C367 N368 1.326 . S
C367 C371 1.460 . S
C367 H373 0.929 . S
N368 Mn361 2.257 . S
N368 C367 1.326 . S
N368 C372 1.362 . S
C369 C370 1.258 . S
C369 C372 1.431 . S
C369 C389 1.449 . S
C370 C369 1.258 . S
C370 C371 1.477 . S
C370 H390 0.931 . S
C371 C367 1.460 . S
C371 C370 1.477 . S
C371 H391 0.930 . S
C372 N368 1.362 . S
C372 C369 1.431 . S
C372 C382 1.476 . S
H373 C367 0.929 . S
C374 O365 1.250 . S
C374 O366 1.258 . S
O375 Mn360 2.162 1_565 S
O375 C363 1.281 . S
O376 Mn360 2.297 1_565 S
O376 C363 1.236 . S
N377 Mn361 2.282 . S
N377 C378 1.328 . S
N377 C382 1.318 . S
C378 N377 1.328 . S
C378 C379 1.457 . S
C378 H383 0.929 . S
C379 C378 1.457 . S
C379 C380 1.291 . S
C379 H392 0.931 . S
C380 C379 1.291 . S
C380 C381 1.373 . S
C380 H393 0.929 . S
C381 C380 1.373 . S
C381 C382 1.396 . S
C381 C388 1.403 . S
C382 C372 1.476 . S
C382 N377 1.318 . S
C382 C381 1.396 . S
H383 C378 0.929 . S
O384 Mn360 2.385 . S
O384 C362 1.234 . S
O385 Mn360 2.209 . S
O385 Mn361 2.215 . S
O385 C362 1.283 . S
O386 Mn360 2.094 . S
O386 C364 1.240 . S
O387 Mn361 2.117 . S
O387 C364 1.264 . S
C388 C381 1.403 . S
C388 C389 1.399 . S
C388 H394 0.929 . S
C389 C369 1.449 . S
C389 C388 1.399 . S
C389 H395 0.930 . S
H390 C370 0.931 . S
H391 C371 0.930 . S
H392 C379 0.931 . S
H393 C380 0.929 . S
H394 C388 0.929 . S
H395 C389 0.930 . S
Mn396 O401 2.095 1_655 S
Mn396 O411 2.162 . S
Mn396 O412 2.297 . S
Mn396 O420 2.385 . S
Mn396 O421 2.209 . S
Mn396 O422 2.094 . S
Mn397 O402 2.121 1_655 S
Mn397 N404 2.257 . S
Mn397 N413 2.282 . S
Mn397 O421 2.215 . S
Mn397 O423 2.117 . S
C398 O420 1.234 . S
C398 O421 1.283 . S
C399 O411 1.281 . S
C399 O412 1.236 . S
C400 O422 1.240 . S
C400 O423 1.264 . S
O401 Mn396 2.095 1_455 S
O401 C410 1.250 . S
O402 Mn397 2.121 1_455 S
O402 C410 1.258 . S
C403 N404 1.326 . S
C403 C407 1.460 . S
C403 H409 0.929 . S
N404 Mn397 2.257 . S
N404 C403 1.326 . S
N404 C408 1.362 . S
C405 C406 1.258 . S
C405 C408 1.431 . S
C405 C425 1.449 . S
C406 C405 1.258 . S
C406 C407 1.477 . S
C406 H426 0.931 . S
C407 C403 1.460 . S
C407 C406 1.477 . S
C407 H427 0.930 . S
C408 N404 1.362 . S
C408 C405 1.431 . S
C408 C418 1.476 . S
H409 C403 0.929 . S
C410 O401 1.250 . S
C410 O402 1.258 . S
O411 Mn396 2.162 . S
O411 C399 1.281 . S
O412 Mn396 2.297 . S
O412 C399 1.236 . S
N413 Mn397 2.282 . S
N413 C414 1.328 . S
N413 C418 1.318 . S
C414 N413 1.328 . S
C414 C415 1.457 . S
C414 H419 0.929 . S
C415 C414 1.457 . S
C415 C416 1.291 . S
C415 H428 0.931 . S
C416 C415 1.291 . S
C416 C417 1.373 . S
C416 H429 0.929 . S
C417 C416 1.373 . S
C417 C418 1.396 . S
C417 C424 1.403 . S
C418 C408 1.476 . S
C418 N413 1.318 . S
C418 C417 1.396 . S
H419 C414 0.929 . S
O420 Mn396 2.385 . S
O420 C398 1.234 . S
O421 Mn396 2.209 . S
O421 Mn397 2.215 . S
O421 C398 1.283 . S
O422 Mn396 2.094 . S
O422 C400 1.240 . S
O423 Mn397 2.117 . S
O423 C400 1.264 . S
C424 C417 1.403 . S
C424 C425 1.399 . S
C424 H430 0.929 . S
C425 C405 1.449 . S
C425 C424 1.399 . S
C425 H431 0.930 . S
H426 C406 0.931 . S
H427 C407 0.930 . S
H428 C415 0.931 . S
H429 C416 0.929 . S
H430 C424 0.929 . S
H431 C425 0.930 . S
Mn432 O437 2.095 . S
Mn432 O447 2.162 . S
Mn432 O448 2.297 . S
Mn432 O456 2.385 . S
Mn432 O457 2.209 . S
Mn432 O458 2.094 . S
Mn433 O438 2.121 . S
Mn433 N440 2.257 . S
Mn433 N449 2.282 . S
Mn433 O457 2.215 . S
Mn433 O459 2.117 . S
C434 O456 1.234 . S
C434 O457 1.283 . S
C435 O447 1.281 . S
C435 O448 1.236 . S
C436 O458 1.240 . S
C436 O459 1.264 . S
O437 Mn432 2.095 . S
O437 C446 1.250 . S
O438 Mn433 2.121 . S
O438 C446 1.258 . S
C439 N440 1.326 . S
C439 C443 1.460 . S
C439 H445 0.929 . S
N440 Mn433 2.257 . S
N440 C439 1.326 . S
N440 C444 1.362 . S
C441 C442 1.258 . S
C441 C444 1.431 . S
C441 C461 1.449 . S
C442 C441 1.258 . S
C442 C443 1.477 . S
C442 H462 0.931 . S
C443 C439 1.460 . S
C443 C442 1.477 . S
C443 H463 0.930 . S
C444 N440 1.362 . S
C444 C441 1.431 . S
C444 C454 1.476 . S
H445 C439 0.929 . S
C446 O437 1.250 . S
C446 O438 1.258 . S
O447 Mn432 2.162 . S
O447 C435 1.281 . S
O448 Mn432 2.297 . S
O448 C435 1.236 . S
N449 Mn433 2.282 . S
N449 C450 1.328 . S
N449 C454 1.318 . S
C450 N449 1.328 . S
C450 C451 1.457 . S
C450 H455 0.929 . S
C451 C450 1.457 . S
C451 C452 1.291 . S
C451 H464 0.931 . S
C452 C451 1.291 . S
C452 C453 1.373 . S
C452 H465 0.929 . S
C453 C452 1.373 . S
C453 C454 1.396 . S
C453 C460 1.403 . S
C454 C444 1.476 . S
C454 N449 1.318 . S
C454 C453 1.396 . S
H455 C450 0.929 . S
O456 Mn432 2.385 . S
O456 C434 1.234 . S
O457 Mn432 2.209 . S
O457 Mn433 2.215 . S
O457 C434 1.283 . S
O458 Mn432 2.094 . S
O458 C436 1.240 . S
O459 Mn433 2.117 . S
O459 C436 1.264 . S
C460 C453 1.403 . S
C460 C461 1.399 . S
C460 H466 0.929 . S
C461 C441 1.449 . S
C461 C460 1.399 . S
C461 H467 0.930 . S
H462 C442 0.931 . S
H463 C443 0.930 . S
H464 C451 0.931 . S
H465 C452 0.929 . S
H466 C460 0.929 . S
H467 C461 0.930 . S
Mn468 O473 2.095 . S
Mn468 O483 2.162 . S
Mn468 O484 2.297 . S
Mn468 O492 2.385 . S
Mn468 O493 2.209 . S
Mn468 O494 2.094 . S
Mn469 O474 2.121 . S
Mn469 N476 2.257 . S
Mn469 N485 2.282 . S
Mn469 O493 2.215 . S
Mn469 O495 2.117 . S
C470 O492 1.234 . S
C470 O493 1.283 . S
C471 O483 1.281 . S
C471 O484 1.236 . S
C472 O494 1.240 . S
C472 O495 1.264 . S
O473 Mn468 2.095 . S
O473 C482 1.250 1_565 S
O474 Mn469 2.121 . S
O474 C482 1.258 1_565 S
C475 N476 1.326 . S
C475 C479 1.460 . S
C475 H481 0.929 . S
N476 Mn469 2.257 . S
N476 C475 1.326 . S
N476 C480 1.362 . S
C477 C478 1.258 . S
C477 C480 1.431 . S
C477 C497 1.449 . S
C478 C477 1.258 . S
C478 C479 1.477 . S
C478 H498 0.931 . S
C479 C475 1.460 . S
C479 C478 1.477 . S
C479 H499 0.930 . S
C480 N476 1.362 . S
C480 C477 1.431 . S
C480 C490 1.476 . S
H481 C475 0.929 . S
C482 O473 1.250 1_545 S
C482 O474 1.258 1_545 S
O483 Mn468 2.162 . S
O483 C471 1.281 . S
O484 Mn468 2.297 . S
O484 C471 1.236 . S
N485 Mn469 2.282 . S
N485 C486 1.328 . S
N485 C490 1.318 . S
C486 N485 1.328 . S
C486 C487 1.457 . S
C486 H491 0.929 . S
C487 C486 1.457 . S
C487 C488 1.291 . S
C487 H500 0.931 . S
C488 C487 1.291 . S
C488 C489 1.373 . S
C488 H501 0.929 . S
C489 C488 1.373 . S
C489 C490 1.396 . S
C489 C496 1.403 . S
C490 C480 1.476 . S
C490 N485 1.318 . S
C490 C489 1.396 . S
H491 C486 0.929 . S
O492 Mn468 2.385 . S
O492 C470 1.234 . S
O493 Mn468 2.209 . S
O493 Mn469 2.215 . S
O493 C470 1.283 . S
O494 Mn468 2.094 . S
O494 C472 1.240 . S
O495 Mn469 2.117 . S
O495 C472 1.264 . S
C496 C489 1.403 . S
C496 C497 1.399 . S
C496 H502 0.929 . S
C497 C477 1.449 . S
C497 C496 1.399 . S
C497 H503 0.930 . S
H498 C478 0.931 . S
H499 C479 0.930 . S
H500 C487 0.931 . S
H501 C488 0.929 . S
H502 C496 0.929 . S
H503 C497 0.930 . S
Mn504 O509 2.095 1_455 S
Mn504 O519 2.162 . S
Mn504 O520 2.297 . S
Mn504 O528 2.385 . S
Mn504 O529 2.209 . S
Mn504 O530 2.094 . S
Mn505 O510 2.121 1_455 S
Mn505 N512 2.257 . S
Mn505 N521 2.282 . S
Mn505 O529 2.215 . S
Mn505 O531 2.117 . S
C506 O528 1.234 . S
C506 O529 1.283 . S
C507 O519 1.281 . S
C507 O520 1.236 . S
C508 O530 1.240 . S
C508 O531 1.264 . S
O509 Mn504 2.095 1_655 S
O509 C518 1.250 . S
O510 Mn505 2.121 1_655 S
O510 C518 1.258 . S
C511 N512 1.326 . S
C511 C515 1.460 . S
C511 H517 0.929 . S
N512 Mn505 2.257 . S
N512 C511 1.326 . S
N512 C516 1.362 . S
C513 C514 1.258 . S
C513 C516 1.431 . S
C513 C533 1.449 . S
C514 C513 1.258 . S
C514 C515 1.477 . S
C514 H534 0.931 . S
C515 C511 1.460 . S
C515 C514 1.477 . S
C515 H535 0.930 . S
C516 N512 1.362 . S
C516 C513 1.431 . S
C516 C526 1.476 . S
H517 C511 0.929 . S
C518 O509 1.250 . S
C518 O510 1.258 . S
O519 Mn504 2.162 . S
O519 C507 1.281 . S
O520 Mn504 2.297 . S
O520 C507 1.236 . S
N521 Mn505 2.282 . S
N521 C522 1.328 . S
N521 C526 1.318 . S
C522 N521 1.328 . S
C522 C523 1.457 . S
C522 H527 0.929 . S
C523 C522 1.457 . S
C523 C524 1.291 . S
C523 H536 0.931 . S
C524 C523 1.291 . S
C524 C525 1.373 . S
C524 H537 0.929 . S
C525 C524 1.373 . S
C525 C526 1.396 . S
C525 C532 1.403 . S
C526 C516 1.476 . S
C526 N521 1.318 . S
C526 C525 1.396 . S
H527 C522 0.929 . S
O528 Mn504 2.385 . S
O528 C506 1.234 . S
O529 Mn504 2.209 . S
O529 Mn505 2.215 . S
O529 C506 1.283 . S
O530 Mn504 2.094 . S
O530 C508 1.240 . S
O531 Mn505 2.117 . S
O531 C508 1.264 . S
C532 C525 1.403 . S
C532 C533 1.399 . S
C532 H538 0.929 . S
C533 C513 1.449 . S
C533 C532 1.399 . S
C533 H539 0.930 . S
H534 C514 0.931 . S
H535 C515 0.930 . S
H536 C523 0.931 . S
H537 C524 0.929 . S
H538 C532 0.929 . S
H539 C533 0.930 . S
Mn540 O545 2.095 1_455 S
Mn540 O555 2.162 . S
Mn540 O556 2.297 1_455 S
Mn540 O564 2.385 . S
Mn540 O565 2.209 1_455 S
Mn540 O566 2.094 . S
Mn541 O546 2.121 . S
Mn541 N548 2.257 . S
Mn541 N557 2.282 1_655 S
Mn541 O565 2.215 . S
Mn541 O567 2.117 1_655 S
C542 O564 1.234 . S
C542 O565 1.283 1_455 S
C543 O555 1.281 1_655 S
C543 O556 1.236 . S
C544 O566 1.240 . S
C544 O567 1.264 . S
O545 Mn540 2.095 1_655 S
O545 C554 1.250 . S
O546 Mn541 2.121 . S
O546 C554 1.258 . S
C547 N548 1.326 . S
C547 C551 1.460 . S
C547 H553 0.929 . S
N548 Mn541 2.257 . S
N548 C547 1.326 . S
N548 C552 1.362 . S
C549 C550 1.258 . S
C549 C552 1.431 . S
C549 C569 1.449 . S
C550 C549 1.258 . S
C550 C551 1.477 . S
C550 H570 0.931 . S
C551 C547 1.460 . S
C551 C550 1.477 . S
C551 H571 0.930 . S
C552 N548 1.362 . S
C552 C549 1.431 . S
C552 C562 1.476 1_655 S
H553 C547 0.929 . S
C554 O545 1.250 . S
C554 O546 1.258 . S
O555 Mn540 2.162 . S
O555 C543 1.281 1_455 S
O556 Mn540 2.297 1_655 S
O556 C543 1.236 . S
N557 Mn541 2.282 1_455 S
N557 C558 1.328 . S
N557 C562 1.318 . S
C558 N557 1.328 . S
C558 C559 1.457 . S
C558 H563 0.929 . S
C559 C558 1.457 . S
C559 C560 1.291 . S
C559 H572 0.931 . S
C560 C559 1.291 . S
C560 C561 1.373 . S
C560 H573 0.929 . S
C561 C560 1.373 . S
C561 C562 1.396 . S
C561 C568 1.403 . S
C562 C552 1.476 1_455 S
C562 N557 1.318 . S
C562 C561 1.396 . S
H563 C558 0.929 . S
O564 Mn540 2.385 . S
O564 C542 1.234 . S
O565 Mn540 2.209 1_655 S
O565 Mn541 2.215 . S
O565 C542 1.283 1_655 S
O566 Mn540 2.094 . S
O566 C544 1.240 . S
O567 Mn541 2.117 1_455 S
O567 C544 1.264 . S
C568 C561 1.403 . S
C568 C569 1.399 1_455 S
C568 H574 0.929 . S
C569 C549 1.449 . S
C569 C568 1.399 1_655 S
C569 H575 0.930 . S
H570 C550 0.931 . S
H571 C551 0.930 . S
H572 C559 0.931 . S
H573 C560 0.929 . S
H574 C568 0.929 . S
H575 C569 0.930 . S
Mn576 O581 2.095 . S
Mn576 O591 2.162 . S
Mn576 O592 2.297 . S
Mn576 O600 2.385 . S
Mn576 O601 2.209 . S
Mn576 O602 2.094 . S
Mn577 O582 2.121 . S
Mn577 N584 2.257 . S
Mn577 N593 2.282 . S
Mn577 O601 2.215 . S
Mn577 O603 2.117 . S
C578 O600 1.234 . S
C578 O601 1.283 . S
C579 O591 1.281 . S
C579 O592 1.236 . S
C580 O602 1.240 . S
C580 O603 1.264 . S
O581 Mn576 2.095 . S
O581 C590 1.250 . S
O582 Mn577 2.121 . S
O582 C590 1.258 . S
C583 N584 1.326 . S
C583 C587 1.460 . S
C583 H589 0.929 . S
N584 Mn577 2.257 . S
N584 C583 1.326 . S
N584 C588 1.362 . S
C585 C586 1.258 . S
C585 C588 1.431 . S
C585 C605 1.449 . S
C586 C585 1.258 . S
C586 C587 1.477 . S
C586 H606 0.931 . S
C587 C583 1.460 . S
C587 C586 1.477 . S
C587 H607 0.930 . S
C588 N584 1.362 . S
C588 C585 1.431 . S
C588 C598 1.476 . S
H589 C583 0.929 . S
C590 O581 1.250 . S
C590 O582 1.258 . S
O591 Mn576 2.162 . S
O591 C579 1.281 . S
O592 Mn576 2.297 . S
O592 C579 1.236 . S
N593 Mn577 2.282 . S
N593 C594 1.328 . S
N593 C598 1.318 . S
C594 N593 1.328 . S
C594 C595 1.457 . S
C594 H599 0.929 . S
C595 C594 1.457 . S
C595 C596 1.291 . S
C595 H608 0.931 . S
C596 C595 1.291 . S
C596 C597 1.373 . S
C596 H609 0.929 . S
C597 C596 1.373 . S
C597 C598 1.396 . S
C597 C604 1.403 . S
C598 C588 1.476 . S
C598 N593 1.318 . S
C598 C597 1.396 . S
H599 C594 0.929 . S
O600 Mn576 2.385 . S
O600 C578 1.234 . S
O601 Mn576 2.209 . S
O601 Mn577 2.215 . S
O601 C578 1.283 . S
O602 Mn576 2.094 . S
O602 C580 1.240 . S
O603 Mn577 2.117 . S
O603 C580 1.264 . S
C604 C597 1.403 . S
C604 C605 1.399 . S
C604 H610 0.929 . S
C605 C585 1.449 . S
C605 C604 1.399 . S
C605 H611 0.930 . S
H606 C586 0.931 . S
H607 C587 0.930 . S
H608 C595 0.931 . S
H609 C596 0.929 . S
H610 C604 0.929 . S
H611 C605 0.930 . S
Mn612 O617 2.095 1_565 S
Mn612 O627 2.162 . S
Mn612 O628 2.297 1_565 S
Mn612 O636 2.385 . S
Mn612 O637 2.209 1_565 S
Mn612 O638 2.094 . S
Mn613 O618 2.121 . S
Mn613 N620 2.257 . S
Mn613 N629 2.282 1_545 S
Mn613 O637 2.215 . S
Mn613 O639 2.117 1_545 S
C614 O636 1.234 . S
C614 O637 1.283 1_565 S
C615 O627 1.281 1_545 S
C615 O628 1.236 . S
C616 O638 1.240 . S
C616 O639 1.264 . S
O617 Mn612 2.095 1_545 S
O617 C626 1.250 . S
O618 Mn613 2.121 . S
O618 C626 1.258 . S
C619 N620 1.326 . S
C619 C623 1.460 . S
C619 H625 0.929 . S
N620 Mn613 2.257 . S
N620 C619 1.326 . S
N620 C624 1.362 . S
C621 C622 1.258 . S
C621 C624 1.431 . S
C621 C641 1.449 . S
C622 C621 1.258 . S
C622 C623 1.477 . S
C622 H642 0.931 . S
C623 C619 1.460 . S
C623 C622 1.477 . S
C623 H643 0.930 . S
C624 N620 1.362 . S
C624 C621 1.431 . S
C624 C634 1.476 1_545 S
H625 C619 0.929 . S
C626 O617 1.250 . S
C626 O618 1.258 . S
O627 Mn612 2.162 . S
O627 C615 1.281 1_565 S
O628 Mn612 2.297 1_545 S
O628 C615 1.236 . S
N629 Mn613 2.282 1_565 S
N629 C630 1.328 . S
N629 C634 1.318 . S
C630 N629 1.328 . S
C630 C631 1.457 . S
C630 H635 0.929 . S
C631 C630 1.457 . S
C631 C632 1.291 . S
C631 H644 0.931 . S
C632 C631 1.291 . S
C632 C633 1.373 . S
C632 H645 0.929 . S
C633 C632 1.373 . S
C633 C634 1.396 . S
C633 C640 1.403 . S
C634 C624 1.476 1_565 S
C634 N629 1.318 . S
C634 C633 1.396 . S
H635 C630 0.929 . S
O636 Mn612 2.385 . S
O636 C614 1.234 . S
O637 Mn612 2.209 1_545 S
O637 Mn613 2.215 . S
O637 C614 1.283 1_545 S
O638 Mn612 2.094 . S
O638 C616 1.240 . S
O639 Mn613 2.117 1_565 S
O639 C616 1.264 . S
C640 C633 1.403 . S
C640 C641 1.399 1_565 S
C640 H646 0.929 . S
C641 C621 1.449 . S
C641 C640 1.399 1_545 S
C641 H647 0.930 . S
H642 C622 0.931 . S
H643 C623 0.930 . S
H644 C631 0.931 . S
H645 C632 0.929 . S
H646 C640 0.929 . S
H647 C641 0.930 . S
C648 C649 1.349 . S
C648 C650 1.327 . S
C648 H673 0.950 . S
C649 C648 1.349 . S
C649 C665 1.349 . S
C650 C648 1.327 . S
C650 C669 1.429 . S
C650 H674 0.950 . S
C651 C668 1.574 . S
C651 C670 1.368 1_566 S
C651 H675 0.949 . S
H652 C656 0.949 . S
C653 C654 1.349 . S
C653 C655 1.327 . S
C653 H676 0.950 . S
C654 C653 1.349 . S
C654 C666 1.349 1_565 S
C655 C653 1.327 . S
C655 C671 1.429 . S
C655 H677 0.950 . S
C656 H652 0.949 . S
C656 C664 1.574 . S
C656 C672 1.368 1_544 S
H657 C665 0.950 1_565 S
H658 C663 0.950 . S
H659 C664 0.949 . S
H660 C666 0.950 . S
H661 C667 0.950 . S
H662 C668 0.949 . S
C663 H658 0.950 . S
C663 C665 1.327 1_565 S
C663 C669 1.429 1_565 S
C664 C656 1.574 . S
C664 H659 0.949 . S
C664 C670 1.368 . S
C665 C649 1.349 . S
C665 H657 0.950 1_545 S
C665 C663 1.327 1_545 S
C666 C654 1.349 1_545 S
C666 H660 0.950 . S
C666 C667 1.327 . S
C667 H661 0.950 . S
C667 C666 1.327 . S
C667 C671 1.429 1_545 S
C668 C651 1.574 . S
C668 H662 0.949 . S
C668 C672 1.368 . S
C669 C650 1.429 . S
C669 C663 1.429 1_545 S
C669 C670 1.523 . S
C670 C651 1.368 1_544 S
C670 C664 1.368 . S
C670 C669 1.523 . S
C671 C655 1.429 . S
C671 C667 1.429 1_565 S
C671 C672 1.523 . S
C672 C656 1.368 1_566 S
C672 C668 1.368 . S
C672 C671 1.523 . S
H673 C648 0.950 . S
H674 C650 0.950 . S
H675 C651 0.949 . S
H676 C653 0.950 . S
H677 C655 0.950 . S
C678 C679 1.349 . S
C678 C680 1.327 . S
C678 H703 0.950 1_655 S
C679 C678 1.349 . S
C679 C695 1.349 . S
C680 C678 1.327 . S
C680 C699 1.429 . S
C680 H704 0.950 1_655 S
C681 C698 1.574 . S
C681 C700 1.368 1_556 S
C681 H705 0.949 . S
H682 C686 0.949 . S
C683 C684 1.349 1_655 S
C683 C685 1.327 . S
C683 H706 0.950 . S
C684 C683 1.349 1_455 S
C684 C696 1.349 . S
C685 C683 1.327 . S
C685 C701 1.429 1_655 S
C685 H707 0.950 . S
C686 H682 0.949 . S
C686 C694 1.574 . S
C686 C702 1.368 1_454 S
H687 C695 0.950 . S
H688 C693 0.950 . S
H689 C694 0.949 . S
H690 C696 0.950 . S
H691 C697 0.950 . S
H692 C698 0.949 . S
C693 H688 0.950 . S
C693 C695 1.327 . S
C693 C699 1.429 . S
C694 C686 1.574 . S
C694 H689 0.949 . S
C694 C700 1.368 1_455 S
C695 C679 1.349 . S
C695 H687 0.950 . S
C695 C693 1.327 . S
C696 C684 1.349 . S
C696 H690 0.950 . S
C696 C697 1.327 . S
C697 H691 0.950 . S
C697 C696 1.327 . S
C697 C701 1.429 . S
C698 C681 1.574 . S
C698 H692 0.949 . S
C698 C702 1.368 . S
C699 C680 1.429 . S
C699 C693 1.429 . S
C699 C700 1.523 . S
C700 C681 1.368 1_554 S
C700 C694 1.368 1_655 S
C700 C699 1.523 . S
C701 C685 1.429 1_455 S
C701 C697 1.429 . S
C701 C702 1.523 1_455 S
C702 C686 1.368 1_656 S
C702 C698 1.368 . S
C702 C701 1.523 1_655 S
H703 C678 0.950 1_455 S
H704 C680 0.950 1_455 S
H705 C681 0.949 . S
H706 C683 0.950 . S
H707 C685 0.950 . S
C708 C709 1.349 . S
C708 C710 1.327 . S
C708 H733 0.950 . S
C709 C708 1.349 . S
C709 C725 1.349 . S
C710 C708 1.327 . S
C710 C729 1.429 . S
C710 H734 0.950 . S
C711 C728 1.574 . S
C711 C730 1.368 1_554 S
C711 H735 0.949 . S
H712 C716 0.949 . S
C713 C714 1.349 . S
C713 C715 1.327 . S
C713 H736 0.950 . S
C714 C713 1.349 . S
C714 C726 1.349 . S
C715 C713 1.327 . S
C715 C731 1.429 . S
C715 H737 0.950 . S
C716 H712 0.949 . S
C716 C724 1.574 . S
C716 C732 1.368 1_556 S
H717 C725 0.950 . S
H718 C723 0.950 . S
H719 C724 0.949 . S
H720 C726 0.950 . S
H721 C727 0.950 . S
H722 C728 0.949 . S
C723 H718 0.950 . S
C723 C725 1.327 . S
C723 C729 1.429 . S
C724 C716 1.574 . S
C724 H719 0.949 . S
C724 C730 1.368 . S
C725 C709 1.349 . S
C725 H717 0.950 . S
C725 C723 1.327 . S
C726 C714 1.349 . S
C726 H720 0.950 . S
C726 C727 1.327 . S
C727 H721 0.950 . S
C727 C726 1.327 . S
C727 C731 1.429 . S
C728 C711 1.574 . S
C728 H722 0.949 . S
C728 C732 1.368 . S
C729 C710 1.429 . S
C729 C723 1.429 . S
C729 C730 1.523 . S
C730 C711 1.368 1_556 S
C730 C724 1.368 . S
C730 C729 1.523 . S
C731 C715 1.429 . S
C731 C727 1.429 . S
C731 C732 1.523 . S
C732 C716 1.368 1_554 S
C732 C728 1.368 . S
C732 C731 1.523 . S
H733 C708 0.950 . S
H734 C710 0.950 . S
H735 C711 0.949 . S
H736 C713 0.950 . S
H737 C715 0.950 . S
C738 C739 1.349 . S
C738 C740 1.327 . S
C738 H763 0.950 . S
C739 C738 1.349 . S
C739 C755 1.349 . S
C740 C738 1.327 . S
C740 C759 1.429 . S
C740 H764 0.950 . S
C741 C758 1.574 . S
C741 C760 1.368 . S
C741 H765 0.949 . S
H742 C746 0.949 . S
C743 C744 1.349 . S
C743 C745 1.327 . S
C743 H766 0.950 . S
C744 C743 1.349 . S
C744 C756 1.349 . S
C745 C743 1.327 . S
C745 C761 1.429 . S
C745 H767 0.950 . S
C746 H742 0.949 . S
C746 C754 1.574 . S
C746 C762 1.368 . S
H747 C755 0.950 . S
H748 C753 0.950 . S
H749 C754 0.949 . S
H750 C756 0.950 . S
H751 C757 0.950 . S
H752 C758 0.949 . S
C753 H748 0.950 . S
C753 C755 1.327 . S
C753 C759 1.429 . S
C754 C746 1.574 . S
C754 H749 0.949 . S
C754 C760 1.368 . S
C755 C739 1.349 . S
C755 H747 0.950 . S
C755 C753 1.327 . S
C756 C744 1.349 . S
C756 H750 0.950 . S
C756 C757 1.327 . S
C757 H751 0.950 . S
C757 C756 1.327 . S
C757 C761 1.429 . S
C758 C741 1.574 . S
C758 H752 0.949 . S
C758 C762 1.368 . S
C759 C740 1.429 . S
C759 C753 1.429 . S
C759 C760 1.523 . S
C760 C741 1.368 . S
C760 C754 1.368 . S
C760 C759 1.523 . S
C761 C745 1.429 . S
C761 C757 1.429 . S
C761 C762 1.523 . S
C762 C746 1.368 . S
C762 C758 1.368 . S
C762 C761 1.523 . S
H763 C738 0.950 . S
H764 C740 0.950 . S
H765 C741 0.949 . S
H766 C743 0.950 . S
H767 C745 0.950 . S
C768 C769 1.349 . S
C768 C770 1.327 . S
C768 H793 0.950 . S
C769 C768 1.349 . S
C769 C785 1.349 . S
C770 C768 1.327 . S
C770 C789 1.429 . S
C770 H794 0.950 . S
C771 C788 1.574 . S
C771 C790 1.368 . S
C771 H795 0.949 . S
H772 C776 0.949 . S
C773 C774 1.349 . S
C773 C775 1.327 . S
C773 H796 0.950 . S
C774 C773 1.349 . S
C774 C786 1.349 . S
C775 C773 1.327 . S
C775 C791 1.429 . S
C775 H797 0.950 . S
C776 H772 0.949 . S
C776 C784 1.574 . S
C776 C792 1.368 . S
H777 C785 0.950 . S
H778 C783 0.950 . S
H779 C784 0.949 . S
H780 C786 0.950 . S
H781 C787 0.950 . S
H782 C788 0.949 . S
C783 H778 0.950 . S
C783 C785 1.327 . S
C783 C789 1.429 . S
C784 C776 1.574 . S
C784 H779 0.949 . S
C784 C790 1.368 . S
C785 C769 1.349 . S
C785 H777 0.950 . S
C785 C783 1.327 . S
C786 C774 1.349 . S
C786 H780 0.950 . S
C786 C787 1.327 . S
C787 H781 0.950 . S
C787 C786 1.327 . S
C787 C791 1.429 . S
C788 C771 1.574 . S
C788 H782 0.949 . S
C788 C792 1.368 . S
C789 C770 1.429 . S
C789 C783 1.429 . S
C789 C790 1.523 . S
C790 C771 1.368 . S
C790 C784 1.368 . S
C790 C789 1.523 . S
C791 C775 1.429 . S
C791 C787 1.429 . S
C791 C792 1.523 . S
C792 C776 1.368 . S
C792 C788 1.368 . S
C792 C791 1.523 . S
H793 C768 0.950 . S
H794 C770 0.950 . S
H795 C771 0.949 . S
H796 C773 0.950 . S
H797 C775 0.950 . S
C798 C799 1.349 . S
C798 C800 1.327 . S
C798 H823 0.950 . S
C799 C798 1.349 . S
C799 C815 1.349 . S
C800 C798 1.327 . S
C800 C819 1.429 . S
C800 H824 0.950 . S
C801 C818 1.574 . S
C801 C820 1.368 . S
C801 H825 0.949 . S
H802 C806 0.949 . S
C803 C804 1.349 . S
C803 C805 1.327 . S
C803 H826 0.950 . S
C804 C803 1.349 . S
C804 C816 1.349 . S
C805 C803 1.327 . S
C805 C821 1.429 . S
C805 H827 0.950 . S
C806 H802 0.949 . S
C806 C814 1.574 . S
C806 C822 1.368 . S
H807 C815 0.950 . S
H808 C813 0.950 . S
H809 C814 0.949 . S
H810 C816 0.950 . S
H811 C817 0.950 . S
H812 C818 0.949 . S
C813 H808 0.950 . S
C813 C815 1.327 . S
C813 C819 1.429 . S
C814 C806 1.574 . S
C814 H809 0.949 . S
C814 C820 1.368 . S
C815 C799 1.349 . S
C815 H807 0.950 . S
C815 C813 1.327 . S
C816 C804 1.349 . S
C816 H810 0.950 . S
C816 C817 1.327 . S
C817 H811 0.950 . S
C817 C816 1.327 . S
C817 C821 1.429 . S
C818 C801 1.574 . S
C818 H812 0.949 . S
C818 C822 1.368 . S
C819 C800 1.429 . S
C819 C813 1.429 . S
C819 C820 1.523 . S
C820 C801 1.368 . S
C820 C814 1.368 . S
C820 C819 1.523 . S
C821 C805 1.429 . S
C821 C817 1.429 . S
C821 C822 1.523 . S
C822 C806 1.368 . S
C822 C818 1.368 . S
C822 C821 1.523 . S
H823 C798 0.950 . S
H824 C800 0.950 . S
H825 C801 0.949 . S
H826 C803 0.950 . S
H827 C805 0.950 . S
C828 C829 1.349 . S
C828 C830 1.327 . S
C828 H853 0.950 . S
C829 C828 1.349 . S
C829 C845 1.349 . S
C830 C828 1.327 . S
C830 C849 1.429 . S
C830 H854 0.950 . S
C831 C848 1.574 . S
C831 C850 1.368 . S
C831 H855 0.949 . S
H832 C836 0.949 . S
C833 C834 1.349 . S
C833 C835 1.327 . S
C833 H856 0.950 . S
C834 C833 1.349 . S
C834 C846 1.349 . S
C835 C833 1.327 . S
C835 C851 1.429 . S
C835 H857 0.950 . S
C836 H832 0.949 . S
C836 C844 1.574 . S
C836 C852 1.368 . S
H837 C845 0.950 . S
H838 C843 0.950 . S
H839 C844 0.949 . S
H840 C846 0.950 . S
H841 C847 0.950 . S
H842 C848 0.949 . S
C843 H838 0.950 . S
C843 C845 1.327 . S
C843 C849 1.429 . S
C844 C836 1.574 . S
C844 H839 0.949 . S
C844 C850 1.368 . S
C845 C829 1.349 . S
C845 H837 0.950 . S
C845 C843 1.327 . S
C846 C834 1.349 . S
C846 H840 0.950 . S
C846 C847 1.327 . S
C847 H841 0.950 . S
C847 C846 1.327 . S
C847 C851 1.429 . S
C848 C831 1.574 . S
C848 H842 0.949 . S
C848 C852 1.368 . S
C849 C830 1.429 . S
C849 C843 1.429 . S
C849 C850 1.523 . S
C850 C831 1.368 . S
C850 C844 1.368 . S
C850 C849 1.523 . S
C851 C835 1.429 . S
C851 C847 1.429 . S
C851 C852 1.523 . S
C852 C836 1.368 . S
C852 C848 1.368 . S
C852 C851 1.523 . S
H853 C828 0.950 . S
H854 C830 0.950 . S
H855 C831 0.949 . S
H856 C833 0.950 . S
H857 C835 0.950 . S
C858 C859 1.349 . S
C858 C860 1.327 . S
C858 H883 0.950 . S
C859 C858 1.349 . S
C859 C875 1.349 . S
C860 C858 1.327 . S
C860 C879 1.429 . S
C860 H884 0.950 . S
C861 C878 1.574 . S
C861 C880 1.368 . S
C861 H885 0.949 . S
H862 C866 0.949 . S
C863 C864 1.349 . S
C863 C865 1.327 . S
C863 H886 0.950 . S
C864 C863 1.349 . S
C864 C876 1.349 . S
C865 C863 1.327 . S
C865 C881 1.429 . S
C865 H887 0.950 . S
C866 H862 0.949 . S
C866 C874 1.574 . S
C866 C882 1.368 . S
H867 C875 0.950 . S
H868 C873 0.950 . S
H869 C874 0.949 . S
H870 C876 0.950 . S
H871 C877 0.950 . S
H872 C878 0.949 . S
C873 H868 0.950 . S
C873 C875 1.327 . S
C873 C879 1.429 . S
C874 C866 1.574 . S
C874 H869 0.949 . S
C874 C880 1.368 . S
C875 C859 1.349 . S
C875 H867 0.950 . S
C875 C873 1.327 . S
C876 C864 1.349 . S
C876 H870 0.950 . S
C876 C877 1.327 . S
C877 H871 0.950 . S
C877 C876 1.327 . S
C877 C881 1.429 . S
C878 C861 1.574 . S
C878 H872 0.949 . S
C878 C882 1.368 . S
C879 C860 1.429 . S
C879 C873 1.429 . S
C879 C880 1.523 . S
C880 C861 1.368 . S
C880 C874 1.368 . S
C880 C879 1.523 . S
C881 C865 1.429 . S
C881 C877 1.429 . S
C881 C882 1.523 . S
C882 C866 1.368 . S
C882 C878 1.368 . S
C882 C881 1.523 . S
H883 C858 0.950 . S
H884 C860 0.950 . S
H885 C861 0.949 . S
H886 C863 0.950 . S
H887 C865 0.950 . S
C888 C889 1.349 . S
C888 C890 1.327 . S
C888 H913 0.950 . S
C889 C888 1.349 . S
C889 C905 1.349 . S
C890 C888 1.327 . S
C890 C909 1.429 . S
C890 H914 0.950 . S
C891 C908 1.574 . S
C891 C910 1.368 . S
C891 H915 0.949 . S
H892 C896 0.949 . S
C893 C894 1.349 . S
C893 C895 1.327 . S
C893 H916 0.950 . S
C894 C893 1.349 . S
C894 C906 1.349 . S
C895 C893 1.327 . S
C895 C911 1.429 . S
C895 H917 0.950 . S
C896 H892 0.949 . S
C896 C904 1.574 . S
C896 C912 1.368 . S
H897 C905 0.950 . S
H898 C903 0.950 . S
H899 C904 0.949 . S
H900 C906 0.950 . S
H901 C907 0.950 . S
H902 C908 0.949 . S
C903 H898 0.950 . S
C903 C905 1.327 . S
C903 C909 1.429 . S
C904 C896 1.574 . S
C904 H899 0.949 . S
C904 C910 1.368 . S
C905 C889 1.349 . S
C905 H897 0.950 . S
C905 C903 1.327 . S
C906 C894 1.349 . S
C906 H900 0.950 . S
C906 C907 1.327 . S
C907 H901 0.950 . S
C907 C906 1.327 . S
C907 C911 1.429 . S
C908 C891 1.574 . S
C908 H902 0.949 . S
C908 C912 1.368 . S
C909 C890 1.429 . S
C909 C903 1.429 . S
C909 C910 1.523 . S
C910 C891 1.368 . S
C910 C904 1.368 . S
C910 C909 1.523 . S
C911 C895 1.429 . S
C911 C907 1.429 . S
C911 C912 1.523 . S
C912 C896 1.368 . S
C912 C908 1.368 . S
C912 C911 1.523 . S
H913 C888 0.950 . S
H914 C890 0.950 . S
H915 C891 0.949 . S
H916 C893 0.950 . S
H917 C895 0.950 . S
C918 C919 1.349 . S
C918 C920 1.327 . S
C918 H943 0.950 . S
C919 C918 1.349 . S
C919 C935 1.349 . S
C920 C918 1.327 . S
C920 C939 1.429 . S
C920 H944 0.950 . S
C921 C938 1.574 . S
C921 C940 1.368 . S
C921 H945 0.949 . S
H922 C926 0.949 . S
C923 C924 1.349 . S
C923 C925 1.327 . S
C923 H946 0.950 . S
C924 C923 1.349 . S
C924 C936 1.349 . S
C925 C923 1.327 . S
C925 C941 1.429 . S
C925 H947 0.950 . S
C926 H922 0.949 . S
C926 C934 1.574 . S
C926 C942 1.368 . S
H927 C935 0.950 . S
H928 C933 0.950 . S
H929 C934 0.949 . S
H930 C936 0.950 . S
H931 C937 0.950 . S
H932 C938 0.949 . S
C933 H928 0.950 . S
C933 C935 1.327 . S
C933 C939 1.429 . S
C934 C926 1.574 . S
C934 H929 0.949 . S
C934 C940 1.368 . S
C935 C919 1.349 . S
C935 H927 0.950 . S
C935 C933 1.327 . S
C936 C924 1.349 . S
C936 H930 0.950 . S
C936 C937 1.327 . S
C937 H931 0.950 . S
C937 C936 1.327 . S
C937 C941 1.429 . S
C938 C921 1.574 . S
C938 H932 0.949 . S
C938 C942 1.368 . S
C939 C920 1.429 . S
C939 C933 1.429 . S
C939 C940 1.523 . S
C940 C921 1.368 . S
C940 C934 1.368 . S
C940 C939 1.523 . S
C941 C925 1.429 . S
C941 C937 1.429 . S
C941 C942 1.523 . S
C942 C926 1.368 . S
C942 C938 1.368 . S
C942 C941 1.523 . S
H943 C918 0.950 . S
H944 C920 0.950 . S
H945 C921 0.949 . S
H946 C923 0.950 . S
H947 C925 0.950 . S
C948 C949 1.349 . S
C948 C950 1.327 . S
C948 H973 0.950 . S
C949 C948 1.349 . S
C949 C965 1.349 . S
C950 C948 1.327 . S
C950 C969 1.429 . S
C950 H974 0.950 . S
C951 C968 1.574 . S
C951 C970 1.368 . S
C951 H975 0.949 . S
H952 C956 0.949 . S
C953 C954 1.349 . S
C953 C955 1.327 . S
C953 H976 0.950 . S
C954 C953 1.349 . S
C954 C966 1.349 . S
C955 C953 1.327 . S
C955 C971 1.429 . S
C955 H977 0.950 . S
C956 H952 0.949 . S
C956 C964 1.574 . S
C956 C972 1.368 . S
H957 C965 0.950 . S
H958 C963 0.950 . S
H959 C964 0.949 . S
H960 C966 0.950 . S
H961 C967 0.950 . S
H962 C968 0.949 . S
C963 H958 0.950 . S
C963 C965 1.327 . S
C963 C969 1.429 . S
C964 C956 1.574 . S
C964 H959 0.949 . S
C964 C970 1.368 . S
C965 C949 1.349 . S
C965 H957 0.950 . S
C965 C963 1.327 . S
C966 C954 1.349 . S
C966 H960 0.950 . S
C966 C967 1.327 . S
C967 H961 0.950 . S
C967 C966 1.327 . S
C967 C971 1.429 . S
C968 C951 1.574 . S
C968 H962 0.949 . S
C968 C972 1.368 . S
C969 C950 1.429 . S
C969 C963 1.429 . S
C969 C970 1.523 . S
C970 C951 1.368 . S
C970 C964 1.368 . S
C970 C969 1.523 . S
C971 C955 1.429 . S
C971 C967 1.429 . S
C971 C972 1.523 . S
C972 C956 1.368 . S
C972 C968 1.368 . S
C972 C971 1.523 . S
H973 C948 0.950 . S
H974 C950 0.950 . S
H975 C951 0.949 . S
H976 C953 0.950 . S
H977 C955 0.950 . S
C978 C979 1.349 . S
C978 C980 1.327 . S
C978 H1003 0.950 . S
C979 C978 1.349 . S
C979 C995 1.349 . S
C980 C978 1.327 . S
C980 C999 1.429 . S
C980 H1004 0.950 . S
C981 C998 1.574 . S
C981 C1000 1.368 . S
C981 H1005 0.949 . S
H982 C986 0.949 . S
C983 C984 1.349 . S
C983 C985 1.327 . S
C983 H1006 0.950 . S
C984 C983 1.349 . S
C984 C996 1.349 . S
C985 C983 1.327 . S
C985 C1001 1.429 . S
C985 H1007 0.950 . S
C986 H982 0.949 . S
C986 C994 1.574 . S
C986 C1002 1.368 . S
H987 C995 0.950 . S
H988 C993 0.950 . S
H989 C994 0.949 . S
H990 C996 0.950 . S
H991 C997 0.950 . S
H992 C998 0.949 . S
C993 H988 0.950 . S
C993 C995 1.327 . S
C993 C999 1.429 . S
C994 C986 1.574 . S
C994 H989 0.949 . S
C994 C1000 1.368 . S
C995 C979 1.349 . S
C995 H987 0.950 . S
C995 C993 1.327 . S
C996 C984 1.349 . S
C996 H990 0.950 . S
C996 C997 1.327 . S
C997 H991 0.950 . S
C997 C996 1.327 . S
C997 C1001 1.429 . S
C998 C981 1.574 . S
C998 H992 0.949 . S
C998 C1002 1.368 . S
C999 C980 1.429 . S
C999 C993 1.429 . S
C999 C1000 1.523 . S
C1000 C981 1.368 . S
C1000 C994 1.368 . S
C1000 C999 1.523 . S
C1001 C985 1.429 . S
C1001 C997 1.429 . S
C1001 C1002 1.523 . S
C1002 C986 1.368 . S
C1002 C998 1.368 . S
C1002 C1001 1.523 . S
H1003 C978 0.950 . S
H1004 C980 0.950 . S
H1005 C981 0.949 . S
H1006 C983 0.950 . S
H1007 C985 0.950 . S
C1008 C1009 1.349 . S
C1008 C1010 1.327 . S
C1008 H1033 0.950 . S
C1009 C1008 1.349 . S
C1009 C1025 1.349 . S
C1010 C1008 1.327 . S
C1010 C1029 1.429 . S
C1010 H1034 0.950 . S
C1011 C1028 1.574 . S
C1011 C1030 1.368 . S
C1011 H1035 0.949 . S
H1012 C1016 0.949 . S
C1013 C1014 1.349 . S
C1013 C1015 1.327 . S
C1013 H1036 0.950 . S
C1014 C1013 1.349 . S
C1014 C1026 1.349 . S
C1015 C1013 1.327 . S
C1015 C1031 1.429 . S
C1015 H1037 0.950 . S
C1016 H1012 0.949 . S
C1016 C1024 1.574 . S
C1016 C1032 1.368 . S
H1017 C1025 0.950 . S
H1018 C1023 0.950 . S
H1019 C1024 0.949 . S
H1020 C1026 0.950 . S
H1021 C1027 0.950 . S
H1022 C1028 0.949 . S
C1023 H1018 0.950 . S
C1023 C1025 1.327 . S
C1023 C1029 1.429 . S
C1024 C1016 1.574 . S
C1024 H1019 0.949 . S
C1024 C1030 1.368 . S
C1025 C1009 1.349 . S
C1025 H1017 0.950 . S
C1025 C1023 1.327 . S
C1026 C1014 1.349 . S
C1026 H1020 0.950 . S
C1026 C1027 1.327 . S
C1027 H1021 0.950 . S
C1027 C1026 1.327 . S
C1027 C1031 1.429 . S
C1028 C1011 1.574 . S
C1028 H1022 0.949 . S
C1028 C1032 1.368 . S
C1029 C1010 1.429 . S
C1029 C1023 1.429 . S
C1029 C1030 1.523 . S
C1030 C1011 1.368 . S
C1030 C1024 1.368 . S
C1030 C1029 1.523 . S
C1031 C1015 1.429 . S
C1031 C1027 1.429 . S
C1031 C1032 1.523 . S
C1032 C1016 1.368 . S
C1032 C1028 1.368 . S
C1032 C1031 1.523 . S
H1033 C1008 0.950 . S
H1034 C1010 0.950 . S
H1035 C1011 0.949 . S
H1036 C1013 0.950 . S
H1037 C1015 0.950 . S
C1038 C1039 1.349 . S
C1038 C1040 1.327 . S
C1038 H1063 0.950 . S
C1039 C1038 1.349 . S
C1039 C1055 1.349 . S
C1040 C1038 1.327 . S
C1040 C1059 1.429 . S
C1040 H1064 0.950 . S
C1041 C1058 1.574 . S
C1041 C1060 1.368 . S
C1041 H1065 0.949 . S
H1042 C1046 0.949 . S
C1043 C1044 1.349 . S
C1043 C1045 1.327 . S
C1043 H1066 0.950 . S
C1044 C1043 1.349 . S
C1044 C1056 1.349 . S
C1045 C1043 1.327 . S
C1045 C1061 1.429 . S
C1045 H1067 0.950 . S
C1046 H1042 0.949 . S
C1046 C1054 1.574 . S
C1046 C1062 1.368 . S
H1047 C1055 0.950 . S
H1048 C1053 0.950 . S
H1049 C1054 0.949 . S
H1050 C1056 0.950 . S
H1051 C1057 0.950 . S
H1052 C1058 0.949 . S
C1053 H1048 0.950 . S
C1053 C1055 1.327 . S
C1053 C1059 1.429 . S
C1054 C1046 1.574 . S
C1054 H1049 0.949 . S
C1054 C1060 1.368 . S
C1055 C1039 1.349 . S
C1055 H1047 0.950 . S
C1055 C1053 1.327 . S
C1056 C1044 1.349 . S
C1056 H1050 0.950 . S
C1056 C1057 1.327 . S
C1057 H1051 0.950 . S
C1057 C1056 1.327 . S
C1057 C1061 1.429 . S
C1058 C1041 1.574 . S
C1058 H1052 0.949 . S
C1058 C1062 1.368 . S
C1059 C1040 1.429 . S
C1059 C1053 1.429 . S
C1059 C1060 1.523 . S
C1060 C1041 1.368 . S
C1060 C1054 1.368 . S
C1060 C1059 1.523 . S
C1061 C1045 1.429 . S
C1061 C1057 1.429 . S
C1061 C1062 1.523 . S
C1062 C1046 1.368 . S
C1062 C1058 1.368 . S
C1062 C1061 1.523 . S
H1063 C1038 0.950 . S
H1064 C1040 0.950 . S
H1065 C1041 0.949 . S
H1066 C1043 0.950 . S
H1067 C1045 0.950 . S
C1068 C1069 1.349 . S
C1068 C1070 1.327 . S
C1068 H1093 0.950 . S
C1069 C1068 1.349 . S
C1069 C1085 1.349 . S
C1070 C1068 1.327 . S
C1070 C1089 1.429 . S
C1070 H1094 0.950 . S
C1071 C1088 1.574 . S
C1071 C1090 1.368 . S
C1071 H1095 0.949 . S
H1072 C1076 0.949 . S
C1073 C1074 1.349 . S
C1073 C1075 1.327 . S
C1073 H1096 0.950 . S
C1074 C1073 1.349 . S
C1074 C1086 1.349 . S
C1075 C1073 1.327 . S
C1075 C1091 1.429 . S
C1075 H1097 0.950 . S
C1076 H1072 0.949 . S
C1076 C1084 1.574 . S
C1076 C1092 1.368 . S
H1077 C1085 0.950 . S
H1078 C1083 0.950 . S
H1079 C1084 0.949 . S
H1080 C1086 0.950 . S
H1081 C1087 0.950 . S
H1082 C1088 0.949 . S
C1083 H1078 0.950 . S
C1083 C1085 1.327 . S
C1083 C1089 1.429 . S
C1084 C1076 1.574 . S
C1084 H1079 0.949 . S
C1084 C1090 1.368 . S
C1085 C1069 1.349 . S
C1085 H1077 0.950 . S
C1085 C1083 1.327 . S
C1086 C1074 1.349 . S
C1086 H1080 0.950 . S
C1086 C1087 1.327 . S
C1087 H1081 0.950 . S
C1087 C1086 1.327 . S
C1087 C1091 1.429 . S
C1088 C1071 1.574 . S
C1088 H1082 0.949 . S
C1088 C1092 1.368 . S
C1089 C1070 1.429 . S
C1089 C1083 1.429 . S
C1089 C1090 1.523 . S
C1090 C1071 1.368 . S
C1090 C1084 1.368 . S
C1090 C1089 1.523 . S
C1091 C1075 1.429 . S
C1091 C1087 1.429 . S
C1091 C1092 1.523 . S
C1092 C1076 1.368 . S
C1092 C1088 1.368 . S
C1092 C1091 1.523 . S
H1093 C1068 0.950 . S
H1094 C1070 0.950 . S
H1095 C1071 0.949 . S
H1096 C1073 0.950 . S
H1097 C1075 0.950 . S
C1098 C1099 1.349 . S
C1098 C1100 1.327 . S
C1098 H1123 0.950 . S
C1099 C1098 1.349 . S
C1099 C1115 1.349 . S
C1100 C1098 1.327 . S
C1100 C1119 1.429 . S
C1100 H1124 0.950 . S
C1101 C1118 1.574 . S
C1101 C1120 1.368 . S
C1101 H1125 0.949 . S
H1102 C1106 0.949 . S
C1103 C1104 1.349 . S
C1103 C1105 1.327 . S
C1103 H1126 0.950 . S
C1104 C1103 1.349 . S
C1104 C1116 1.349 . S
C1105 C1103 1.327 . S
C1105 C1121 1.429 . S
C1105 H1127 0.972 . S
C1106 H1102 0.949 . S
C1106 C1114 1.588 . S
C1106 C1122 1.368 . S
H1107 C1115 0.950 . S
H1108 C1113 0.950 . S
H1109 C1114 0.954 . S
H1110 C1116 0.950 . S
H1111 C1117 0.950 . S
H1112 C1118 0.949 . S
C1113 H1108 0.950 . S
C1113 C1115 1.327 . S
C1113 C1119 1.429 . S
C1114 C1106 1.588 . S
C1114 H1109 0.954 . S
C1114 C1120 1.350 1_655 S
C1115 C1099 1.349 . S
C1115 H1107 0.950 . S
C1115 C1113 1.327 . S
C1116 C1104 1.349 . S
C1116 H1110 0.950 . S
C1116 C1117 1.327 . S
C1117 H1111 0.950 . S
C1117 C1116 1.327 . S
C1117 C1121 1.429 . S
C1118 C1101 1.574 . S
C1118 H1112 0.949 . S
C1118 C1122 1.368 1_455 S
C1119 C1100 1.429 . S
C1119 C1113 1.429 . S
C1119 C1120 1.523 . S
C1120 C1101 1.368 . S
C1120 C1114 1.350 1_455 S
C1120 C1119 1.523 . S
C1121 C1105 1.429 . S
C1121 C1117 1.429 . S
C1121 C1122 1.523 . S
C1122 C1106 1.368 . S
C1122 C1118 1.368 1_655 S
C1122 C1121 1.523 . S
H1123 C1098 0.950 . S
H1124 C1100 0.950 . S
H1125 C1101 0.949 . S
H1126 C1103 0.950 . S
H1127 C1105 0.972 . S
C1128 C1129 1.349 . S
C1128 C1130 1.327 . S
C1128 H1153 0.950 . S
C1129 C1128 1.349 . S
C1129 C1145 1.349 . S
C1130 C1128 1.327 . S
C1130 C1149 1.429 . S
C1130 H1154 0.950 . S
C1131 C1148 1.574 . S
C1131 C1150 1.368 . S
C1131 H1155 0.949 . S
H1132 C1136 0.949 . S
C1133 C1134 1.349 . S
C1133 C1135 1.327 . S
C1133 H1156 0.950 . S
C1134 C1133 1.349 . S
C1134 C1146 1.349 . S
C1135 C1133 1.327 . S
C1135 C1151 1.429 . S
C1135 H1157 0.950 . S
C1136 H1132 0.949 . S
C1136 C1144 1.574 . S
C1136 C1152 1.368 . S
H1137 C1145 0.950 . S
H1138 C1143 0.950 . S
H1139 C1144 0.949 . S
H1140 C1146 0.950 . S
H1141 C1147 0.950 . S
H1142 C1148 0.949 . S
C1143 H1138 0.950 . S
C1143 C1145 1.327 . S
C1143 C1149 1.429 . S
C1144 C1136 1.574 . S
C1144 H1139 0.949 . S
C1144 C1150 1.368 . S
C1145 C1129 1.349 . S
C1145 H1137 0.950 . S
C1145 C1143 1.327 . S
C1146 C1134 1.349 . S
C1146 H1140 0.950 . S
C1146 C1147 1.327 . S
C1147 H1141 0.950 . S
C1147 C1146 1.327 . S
C1147 C1151 1.429 . S
C1148 C1131 1.574 . S
C1148 H1142 0.949 . S
C1148 C1152 1.368 . S
C1149 C1130 1.429 . S
C1149 C1143 1.429 . S
C1149 C1150 1.523 . S
C1150 C1131 1.368 . S
C1150 C1144 1.368 . S
C1150 C1149 1.523 . S
C1151 C1135 1.429 . S
C1151 C1147 1.429 . S
C1151 C1152 1.523 . S
C1152 C1136 1.368 . S
C1152 C1148 1.368 . S
C1152 C1151 1.523 . S
H1153 C1128 0.950 . S
H1154 C1130 0.950 . S
H1155 C1131 0.949 . S
H1156 C1133 0.950 . S
H1157 C1135 0.950 . S
C1158 C1159 1.349 . S
C1158 C1160 1.327 . S
C1158 H1183 0.950 . S
C1159 C1158 1.349 . S
C1159 C1175 1.349 1_545 S
C1160 C1158 1.327 . S
C1160 C1179 1.429 . S
C1160 H1184 0.950 . S
C1161 C1178 1.574 . S
C1161 C1180 1.368 1_565 S
C1161 H1185 0.949 . S
H1162 C1166 0.949 . S
C1163 C1164 1.349 . S
C1163 C1165 1.327 . S
C1163 H1186 0.950 . S
C1164 C1163 1.349 . S
C1164 C1176 1.349 1_565 S
C1165 C1163 1.327 . S
C1165 C1181 1.429 . S
C1165 H1187 0.950 . S
C1166 H1162 0.949 . S
C1166 C1174 1.574 . S
C1166 C1182 1.368 1_545 S
H1167 C1175 0.950 . S
H1168 C1173 0.950 . S
H1169 C1174 0.949 . S
H1170 C1176 0.950 . S
H1171 C1177 0.950 . S
H1172 C1178 0.949 . S
C1173 H1168 0.950 . S
C1173 C1175 1.327 . S
C1173 C1179 1.429 1_565 S
C1174 C1166 1.574 . S
C1174 H1169 0.949 . S
C1174 C1180 1.368 . S
C1175 C1159 1.349 1_565 S
C1175 H1167 0.950 . S
C1175 C1173 1.327 . S
C1176 C1164 1.349 1_545 S
C1176 H1170 0.950 . S
C1176 C1177 1.327 . S
C1177 H1171 0.950 . S
C1177 C1176 1.327 . S
C1177 C1181 1.429 1_545 S
C1178 C1161 1.574 . S
C1178 H1172 0.949 . S
C1178 C1182 1.368 . S
C1179 C1160 1.429 . S
C1179 C1173 1.429 1_545 S
C1179 C1180 1.523 . S
C1180 C1161 1.368 1_545 S
C1180 C1174 1.368 . S
C1180 C1179 1.523 . S
C1181 C1165 1.429 . S
C1181 C1177 1.429 1_565 S
C1181 C1182 1.523 . S
C1182 C1166 1.368 1_565 S
C1182 C1178 1.368 . S
C1182 C1181 1.523 . S
H1183 C1158 0.950 . S
H1184 C1160 0.950 . S
H1185 C1161 0.949 . S
H1186 C1163 0.950 . S
H1187 C1165 0.950 . S
C1188 C1189 1.349 . S
C1188 C1190 1.327 . S
C1188 H1213 0.950 . S
C1189 C1188 1.349 . S
C1189 C1205 1.349 . S
C1190 C1188 1.327 . S
C1190 C1209 1.429 . S
C1190 H1214 0.950 . S
C1191 C1208 1.574 . S
C1191 C1210 1.368 . S
C1191 H1215 0.949 . S
H1192 C1196 0.949 . S
C1193 C1194 1.349 . S
C1193 C1195 1.327 . S
C1193 H1216 0.950 . S
C1194 C1193 1.349 . S
C1194 C1206 1.349 . S
C1195 C1193 1.327 . S
C1195 C1211 1.429 . S
C1195 H1217 0.920 1_556 S
C1196 H1192 0.949 . S
C1196 C1204 1.574 1_556 S
C1196 C1212 1.368 . S
H1197 C1205 0.950 . S
H1198 C1203 0.950 . S
H1199 C1204 0.955 . S
H1200 C1206 0.950 . S
H1201 C1207 0.950 . S
H1202 C1208 0.949 . S
C1203 H1198 0.950 . S
C1203 C1205 1.327 . S
C1203 C1209 1.429 . S
C1204 C1196 1.574 1_554 S
C1204 H1199 0.955 . S
C1204 C1210 1.368 . S
C1205 C1189 1.349 . S
C1205 H1197 0.950 . S
C1205 C1203 1.327 . S
C1206 C1194 1.349 . S
C1206 H1200 0.950 . S
C1206 C1207 1.327 . S
C1207 H1201 0.950 . S
C1207 C1206 1.327 . S
C1207 C1211 1.429 . S
C1208 C1191 1.574 . S
C1208 H1202 0.949 . S
C1208 C1212 1.368 1_554 S
C1209 C1190 1.429 . S
C1209 C1203 1.429 . S
C1209 C1210 1.523 . S
C1210 C1191 1.368 . S
C1210 C1204 1.368 . S
C1210 C1209 1.523 . S
C1211 C1195 1.429 . S
C1211 C1207 1.429 . S
C1211 C1212 1.523 . S
C1212 C1196 1.368 . S
C1212 C1208 1.368 1_556 S
C1212 C1211 1.523 . S
H1213 C1188 0.950 . S
H1214 C1190 0.950 . S
H1215 C1191 0.949 . S
H1216 C1193 0.950 . S
H1217 C1195 0.920 1_554 S
C1218 C1219 1.349 . S
C1218 C1220 1.327 . S
C1218 H1243 0.950 1_455 S
C1219 C1218 1.349 . S
C1219 C1235 1.349 . S
C1220 C1218 1.327 . S
C1220 C1239 1.429 . S
C1220 H1244 0.950 . S
C1221 C1238 1.574 . S
C1221 C1240 1.368 . S
C1221 H1245 0.949 . S
H1222 C1226 0.949 . S
C1223 C1224 1.349 . S
C1223 C1225 1.327 . S
C1223 H1246 0.950 . S
C1224 C1223 1.349 . S
C1224 C1236 1.349 . S
C1225 C1223 1.327 . S
C1225 C1241 1.429 . S
C1225 H1247 0.982 . S
C1226 H1222 0.949 . S
C1226 C1234 1.574 . S
C1226 C1242 1.368 . S
H1227 C1235 0.950 . S
H1228 C1233 0.950 . S
H1229 C1234 0.949 . S
H1230 C1236 0.950 . S
H1231 C1237 0.950 . S
H1232 C1238 0.949 . S
C1233 H1228 0.950 . S
C1233 C1235 1.327 . S
C1233 C1239 1.429 . S
C1234 C1226 1.574 . S
C1234 H1229 0.949 . S
C1234 C1240 1.368 1_556 S
C1235 C1219 1.349 . S
C1235 H1227 0.950 . S
C1235 C1233 1.327 . S
C1236 C1224 1.349 . S
C1236 H1230 0.950 . S
C1236 C1237 1.327 . S
C1237 H1231 0.950 . S
C1237 C1236 1.327 . S
C1237 C1241 1.429 . S
C1238 C1221 1.574 . S
C1238 H1232 0.949 . S
C1238 C1242 1.368 1_554 S
C1239 C1220 1.429 . S
C1239 C1233 1.429 . S
C1239 C1240 1.523 . S
C1240 C1221 1.368 . S
C1240 C1234 1.368 1_554 S
C1240 C1239 1.523 . S
C1241 C1225 1.429 . S
C1241 C1237 1.429 . S
C1241 C1242 1.523 . S
C1242 C1226 1.368 . S
C1242 C1238 1.368 1_556 S
C1242 C1241 1.523 . S
H1243 C1218 0.950 1_655 S
H1244 C1220 0.950 . S
H1245 C1221 0.949 . S
H1246 C1223 0.950 . S
H1247 C1225 0.982 . S
C1248 C1249 1.349 . S
C1248 C1250 1.327 . S
C1248 H1273 0.950 . S
C1249 C1248 1.349 . S
C1249 C1265 1.349 . S
C1250 C1248 1.327 . S
C1250 C1269 1.429 . S
C1250 H1274 0.950 . S
C1251 C1268 1.574 . S
C1251 C1270 1.368 1_556 S
C1251 H1275 0.949 . S
H1252 C1256 0.949 . S
C1253 C1254 1.349 . S
C1253 C1255 1.327 . S
C1253 H1276 0.950 . S
C1254 C1253 1.349 . S
C1254 C1266 1.349 . S
C1255 C1253 1.327 . S
C1255 C1271 1.429 . S
C1255 H1277 0.950 . S
C1256 H1252 0.949 . S
C1256 C1264 1.574 . S
C1256 C1272 1.368 1_554 S
H1257 C1265 0.950 . S
H1258 C1263 0.950 1_556 S
H1259 C1264 0.949 . S
H1260 C1266 0.950 . S
H1261 C1267 0.950 1_554 S
H1262 C1268 0.949 . S
C1263 H1258 0.950 1_554 S
C1263 C1265 1.327 . S
C1263 C1269 1.429 . S
C1264 C1256 1.574 . S
C1264 H1259 0.949 . S
C1264 C1270 1.368 . S
C1265 C1249 1.349 . S
C1265 H1257 0.950 . S
C1265 C1263 1.327 . S
C1266 C1254 1.349 . S
C1266 H1260 0.950 . S
C1266 C1267 1.327 . S
C1267 H1261 0.950 1_556 S
C1267 C1266 1.327 . S
C1267 C1271 1.429 . S
C1268 C1251 1.574 . S
C1268 H1262 0.949 . S
C1268 C1272 1.368 . S
C1269 C1250 1.429 . S
C1269 C1263 1.429 . S
C1269 C1270 1.523 . S
C1270 C1251 1.368 1_554 S
C1270 C1264 1.368 . S
C1270 C1269 1.523 . S
C1271 C1255 1.429 . S
C1271 C1267 1.429 . S
C1271 C1272 1.523 . S
C1272 C1256 1.368 1_556 S
C1272 C1268 1.368 . S
C1272 C1271 1.523 . S
H1273 C1248 0.950 . S
H1274 C1250 0.950 . S
H1275 C1251 0.949 . S
H1276 C1253 0.950 . S
H1277 C1255 0.950 . S
C1278 C1279 1.349 . S
C1278 C1280 1.327 . S
C1278 H1303 0.915 1_545 S
C1279 C1278 1.349 . S
C1279 C1295 1.349 . S
C1280 C1278 1.327 . S
C1280 C1299 1.429 . S
C1280 H1304 0.950 . S
C1281 C1298 1.574 . S
C1281 C1300 1.368 . S
C1281 H1305 0.949 . S
H1282 C1286 0.949 . S
C1283 C1284 1.349 . S
C1283 C1285 1.327 . S
C1283 H1306 0.950 . S
C1284 C1283 1.349 . S
C1284 C1296 1.349 . S
C1285 C1283 1.327 . S
C1285 C1301 1.429 . S
C1285 H1307 0.950 . S
C1286 H1282 0.949 . S
C1286 C1294 1.574 . S
C1286 C1302 1.368 . S
H1287 C1295 0.950 . S
H1288 C1293 0.950 . S
H1289 C1294 0.949 . S
H1290 C1296 0.950 . S
H1291 C1297 0.950 . S
H1292 C1298 0.949 . S
C1293 H1288 0.950 . S
C1293 C1295 1.327 . S
C1293 C1299 1.429 . S
C1294 C1286 1.574 . S
C1294 H1289 0.949 . S
C1294 C1300 1.368 1_554 S
C1295 C1279 1.349 . S
C1295 H1287 0.950 . S
C1295 C1293 1.327 . S
C1296 C1284 1.349 . S
C1296 H1290 0.950 . S
C1296 C1297 1.327 . S
C1297 H1291 0.950 . S
C1297 C1296 1.327 . S
C1297 C1301 1.429 . S
C1298 C1281 1.574 . S
C1298 H1292 0.949 . S
C1298 C1302 1.368 1_556 S
C1299 C1280 1.429 . S
C1299 C1293 1.429 . S
C1299 C1300 1.523 . S
C1300 C1281 1.368 . S
C1300 C1294 1.368 1_556 S
C1300 C1299 1.523 . S
C1301 C1285 1.429 . S
C1301 C1297 1.429 . S
C1301 C1302 1.523 . S
C1302 C1286 1.368 . S
C1302 C1298 1.368 1_554 S
C1302 C1301 1.523 . S
H1303 C1278 0.915 1_565 S
H1304 C1280 0.950 . S
H1305 C1281 0.949 . S
H1306 C1283 0.950 . S
H1307 C1285 0.950 . S
C1308 C1309 1.349 . S
C1308 C1310 1.327 . S
C1308 H1333 0.950 . S
C1309 C1308 1.349 . S
C1309 C1325 1.349 . S
C1310 C1308 1.327 . S
C1310 C1329 1.429 . S
C1310 H1334 0.950 1_554 S
C1311 C1328 1.574 . S
C1311 C1330 1.368 . S
C1311 H1335 0.949 . S
H1312 C1316 0.949 . S
C1313 C1314 1.349 . S
C1313 C1315 1.327 . S
C1313 H1336 0.950 1_655 S
C1314 C1313 1.349 . S
C1314 C1326 1.349 . S
C1315 C1313 1.327 . S
C1315 C1331 1.429 . S
C1315 H1337 0.950 . S
C1316 H1312 0.949 . S
C1316 C1324 1.574 . S
C1316 C1332 1.368 . S
H1317 C1325 0.950 . S
H1318 C1323 0.950 . S
H1319 C1324 0.949 . S
H1320 C1326 0.950 . S
H1321 C1327 0.950 . S
H1322 C1328 0.949 . S
C1323 H1318 0.950 . S
C1323 C1325 1.327 . S
C1323 C1329 1.429 . S
C1324 C1316 1.574 . S
C1324 H1319 0.949 . S
C1324 C1330 1.368 1_556 S
C1325 C1309 1.349 . S
C1325 H1317 0.950 . S
C1325 C1323 1.327 . S
C1326 C1314 1.349 . S
C1326 H1320 0.950 . S
C1326 C1327 1.327 . S
C1327 H1321 0.950 . S
C1327 C1326 1.327 . S
C1327 C1331 1.429 . S
C1328 C1311 1.574 . S
C1328 H1322 0.949 . S
C1328 C1332 1.368 1_554 S
C1329 C1310 1.429 . S
C1329 C1323 1.429 . S
C1329 C1330 1.523 . S
C1330 C1311 1.368 . S
C1330 C1324 1.368 1_554 S
C1330 C1329 1.523 . S
C1331 C1315 1.429 . S
C1331 C1327 1.429 . S
C1331 C1332 1.523 . S
C1332 C1316 1.368 . S
C1332 C1328 1.368 1_556 S
C1332 C1331 1.523 . S
H1333 C1308 0.950 . S
H1334 C1310 0.950 1_556 S
H1335 C1311 0.949 . S
H1336 C1313 0.950 1_455 S
H1337 C1315 0.950 . S
C1338 C1339 1.349 . S
C1338 C1340 1.327 . S
C1338 H1363 0.950 . S
C1339 C1338 1.349 . S
C1339 C1355 1.349 . S
C1340 C1338 1.327 . S
C1340 C1359 1.429 . S
C1340 H1364 0.950 1_556 S
C1341 C1358 1.574 . S
C1341 C1360 1.368 . S
C1341 H1365 0.949 . S
H1342 C1346 0.949 . S
C1343 C1344 1.349 . S
C1343 C1345 1.327 . S
C1343 H1366 0.950 . S
C1344 C1343 1.349 . S
C1344 C1356 1.349 . S
C1345 C1343 1.327 . S
C1345 C1361 1.429 . S
C1345 H1367 0.950 1_554 S
C1346 H1342 0.949 . S
C1346 C1354 1.574 . S
C1346 C1362 1.368 . S
H1347 C1355 0.950 . S
H1348 C1353 0.950 . S
H1349 C1354 0.949 . S
H1350 C1356 0.950 . S
H1351 C1357 0.950 . S
H1352 C1358 0.949 . S
C1353 H1348 0.950 . S
C1353 C1355 1.327 . S
C1353 C1359 1.429 . S
C1354 C1346 1.574 . S
C1354 H1349 0.949 . S
C1354 C1360 1.368 1_554 S
C1355 C1339 1.349 . S
C1355 H1347 0.950 . S
C1355 C1353 1.327 . S
C1356 C1344 1.349 . S
C1356 H1350 0.950 . S
C1356 C1357 1.327 . S
C1357 H1351 0.950 . S
C1357 C1356 1.327 . S
C1357 C1361 1.429 . S
C1358 C1341 1.574 . S
C1358 H1352 0.949 . S
C1358 C1362 1.368 1_556 S
C1359 C1340 1.429 . S
C1359 C1353 1.429 . S
C1359 C1360 1.523 . S
C1360 C1341 1.368 . S
C1360 C1354 1.368 1_556 S
C1360 C1359 1.523 . S
C1361 C1345 1.429 . S
C1361 C1357 1.429 . S
C1361 C1362 1.523 . S
C1362 C1346 1.368 . S
C1362 C1358 1.368 1_554 S
C1362 C1361 1.523 . S
H1363 C1338 0.950 . S
H1364 C1340 0.950 1_554 S
H1365 C1341 0.949 . S
H1366 C1343 0.950 . S
H1367 C1345 0.950 1_556 S
C1368 C1369 1.349 . S
C1368 C1370 1.327 . S
C1368 H1393 0.950 . S
C1369 C1368 1.349 . S
C1369 C1385 1.349 . S
C1370 C1368 1.327 . S
C1370 C1389 1.429 . S
C1370 H1394 0.950 . S
C1371 C1388 1.574 . S
C1371 C1390 1.368 . S
C1371 H1395 0.949 . S
H1372 C1376 0.949 . S
C1373 C1374 1.349 . S
C1373 C1375 1.327 . S
C1373 H1396 0.950 . S
C1374 C1373 1.349 . S
C1374 C1386 1.349 . S
C1375 C1373 1.327 . S
C1375 C1391 1.429 . S
C1375 H1397 0.950 . S
C1376 H1372 0.949 . S
C1376 C1384 1.574 . S
C1376 C1392 1.368 . S
H1377 C1385 0.950 . S
H1378 C1383 0.950 . S
H1379 C1384 0.949 . S
H1380 C1386 0.950 . S
H1381 C1387 0.950 . S
H1382 C1388 0.949 . S
C1383 H1378 0.950 . S
C1383 C1385 1.327 . S
C1383 C1389 1.429 . S
C1384 C1376 1.574 . S
C1384 H1379 0.949 . S
C1384 C1390 1.368 . S
C1385 C1369 1.349 . S
C1385 H1377 0.950 . S
C1385 C1383 1.327 . S
C1386 C1374 1.349 . S
C1386 H1380 0.950 . S
C1386 C1387 1.327 . S
C1387 H1381 0.950 . S
C1387 C1386 1.327 . S
C1387 C1391 1.429 . S
C1388 C1371 1.574 . S
C1388 H1382 0.949 . S
C1388 C1392 1.368 . S
C1389 C1370 1.429 . S
C1389 C1383 1.429 . S
C1389 C1390 1.523 . S
C1390 C1371 1.368 . S
C1390 C1384 1.368 . S
C1390 C1389 1.523 . S
C1391 C1375 1.429 . S
C1391 C1387 1.429 . S
C1391 C1392 1.523 . S
C1392 C1376 1.368 . S
C1392 C1388 1.368 . S
C1392 C1391 1.523 . S
H1393 C1368 0.950 . S
H1394 C1370 0.950 . S
H1395 C1371 0.949 . S
H1396 C1373 0.950 . S
H1397 C1375 0.950 . S
C1398 C1399 1.349 . S
C1398 C1400 1.327 . S
C1398 H1423 0.950 . S
C1399 C1398 1.349 . S
C1399 C1415 1.349 . S
C1400 C1398 1.327 . S
C1400 C1419 1.429 . S
C1400 H1424 0.950 . S
C1401 C1418 1.574 . S
C1401 C1420 1.368 . S
C1401 H1425 0.949 . S
H1402 C1406 0.949 . S
C1403 C1404 1.349 . S
C1403 C1405 1.327 . S
C1403 H1426 0.950 . S
C1404 C1403 1.349 . S
C1404 C1416 1.349 . S
C1405 C1403 1.327 . S
C1405 C1421 1.429 . S
C1405 H1427 0.950 . S
C1406 H1402 0.949 . S
C1406 C1414 1.574 . S
C1406 C1422 1.368 . S
H1407 C1415 0.950 . S
H1408 C1413 0.950 . S
H1409 C1414 0.949 . S
H1410 C1416 0.950 . S
H1411 C1417 0.950 . S
H1412 C1418 0.949 . S
C1413 H1408 0.950 . S
C1413 C1415 1.327 . S
C1413 C1419 1.429 . S
C1414 C1406 1.574 . S
C1414 H1409 0.949 . S
C1414 C1420 1.368 . S
C1415 C1399 1.349 . S
C1415 H1407 0.950 . S
C1415 C1413 1.327 . S
C1416 C1404 1.349 . S
C1416 H1410 0.950 . S
C1416 C1417 1.327 . S
C1417 H1411 0.950 . S
C1417 C1416 1.327 . S
C1417 C1421 1.429 . S
C1418 C1401 1.574 . S
C1418 H1412 0.949 . S
C1418 C1422 1.368 . S
C1419 C1400 1.429 . S
C1419 C1413 1.429 . S
C1419 C1420 1.523 . S
C1420 C1401 1.368 . S
C1420 C1414 1.368 . S
C1420 C1419 1.523 . S
C1421 C1405 1.429 . S
C1421 C1417 1.429 . S
C1421 C1422 1.523 . S
C1422 C1406 1.368 . S
C1422 C1418 1.368 . S
C1422 C1421 1.523 . S
H1423 C1398 0.950 . S
H1424 C1400 0.950 . S
H1425 C1401 0.949 . S
H1426 C1403 0.950 . S
H1427 C1405 0.950 . S
C1428 C1429 1.349 . S
C1428 C1430 1.327 . S
C1428 H1453 0.950 . S
C1429 C1428 1.349 . S
C1429 C1445 1.349 . S
C1430 C1428 1.327 . S
C1430 C1449 1.429 . S
C1430 H1454 0.950 . S
C1431 C1448 1.574 . S
C1431 C1450 1.368 . S
C1431 H1455 0.949 . S
H1432 C1436 0.949 . S
C1433 C1434 1.349 . S
C1433 C1435 1.327 . S
C1433 H1456 0.950 . S
C1434 C1433 1.349 . S
C1434 C1446 1.349 . S
C1435 C1433 1.327 . S
C1435 C1451 1.429 . S
C1435 H1457 0.950 . S
C1436 H1432 0.949 . S
C1436 C1444 1.574 . S
C1436 C1452 1.368 . S
H1437 C1445 0.950 . S
H1438 C1443 0.950 . S
H1439 C1444 0.949 . S
H1440 C1446 0.950 . S
H1441 C1447 0.950 . S
H1442 C1448 0.949 . S
C1443 H1438 0.950 . S
C1443 C1445 1.327 . S
C1443 C1449 1.429 . S
C1444 C1436 1.574 . S
C1444 H1439 0.949 . S
C1444 C1450 1.368 . S
C1445 C1429 1.349 . S
C1445 H1437 0.950 . S
C1445 C1443 1.327 . S
C1446 C1434 1.349 . S
C1446 H1440 0.950 . S
C1446 C1447 1.327 . S
C1447 H1441 0.950 . S
C1447 C1446 1.327 . S
C1447 C1451 1.429 . S
C1448 C1431 1.574 . S
C1448 H1442 0.949 . S
C1448 C1452 1.368 . S
C1449 C1430 1.429 . S
C1449 C1443 1.429 . S
C1449 C1450 1.523 . S
C1450 C1431 1.368 . S
C1450 C1444 1.368 . S
C1450 C1449 1.523 . S
C1451 C1435 1.429 . S
C1451 C1447 1.429 . S
C1451 C1452 1.523 . S
C1452 C1436 1.368 . S
C1452 C1448 1.368 . S
C1452 C1451 1.523 . S
H1453 C1428 0.950 . S
H1454 C1430 0.950 . S
H1455 C1431 0.949 . S
H1456 C1433 0.950 . S
H1457 C1435 0.950 . S
C1458 C1459 1.349 . S
C1458 C1460 1.327 . S
C1458 H1483 0.950 . S
C1459 C1458 1.349 . S
C1459 C1475 1.349 . S
C1460 C1458 1.327 . S
C1460 C1479 1.429 . S
C1460 H1484 0.950 . S
C1461 C1478 1.574 . S
C1461 C1480 1.368 . S
C1461 H1485 0.949 . S
H1462 C1466 0.949 . S
C1463 C1464 1.349 . S
C1463 C1465 1.327 . S
C1463 H1486 0.950 . S
C1464 C1463 1.349 . S
C1464 C1476 1.349 . S
C1465 C1463 1.327 . S
C1465 C1481 1.429 . S
C1465 H1487 0.950 . S
C1466 H1462 0.949 . S
C1466 C1474 1.574 . S
C1466 C1482 1.368 . S
H1467 C1475 0.950 . S
H1468 C1473 0.950 . S
H1469 C1474 0.949 . S
H1470 C1476 0.950 . S
H1471 C1477 0.950 . S
H1472 C1478 0.949 . S
C1473 H1468 0.950 . S
C1473 C1475 1.327 . S
C1473 C1479 1.429 . S
C1474 C1466 1.574 . S
C1474 H1469 0.949 . S
C1474 C1480 1.368 . S
C1475 C1459 1.349 . S
C1475 H1467 0.950 . S
C1475 C1473 1.327 . S
C1476 C1464 1.349 . S
C1476 H1470 0.950 . S
C1476 C1477 1.327 . S
C1477 H1471 0.950 . S
C1477 C1476 1.327 . S
C1477 C1481 1.429 . S
C1478 C1461 1.574 . S
C1478 H1472 0.949 . S
C1478 C1482 1.368 . S
C1479 C1460 1.429 . S
C1479 C1473 1.429 . S
C1479 C1480 1.523 . S
C1480 C1461 1.368 . S
C1480 C1474 1.368 . S
C1480 C1479 1.523 . S
C1481 C1465 1.429 . S
C1481 C1477 1.429 . S
C1481 C1482 1.523 . S
C1482 C1466 1.368 . S
C1482 C1478 1.368 . S
C1482 C1481 1.523 . S
H1483 C1458 0.950 . S
H1484 C1460 0.950 . S
H1485 C1461 0.949 . S
H1486 C1463 0.950 . S
H1487 C1465 0.950 . S
C1488 C1489 1.349 . S
C1488 C1490 1.327 . S
C1488 H1513 0.950 1_545 S
C1489 C1488 1.349 . S
C1489 C1505 1.349 . S
C1490 C1488 1.327 . S
C1490 C1509 1.429 . S
C1490 H1514 0.950 1_545 S
C1491 C1508 1.574 . S
C1491 C1510 1.368 . S
C1491 H1515 0.949 . S
H1492 C1496 0.949 . S
C1493 C1494 1.349 . S
C1493 C1495 1.327 . S
C1493 H1516 0.950 . S
C1494 C1493 1.349 . S
C1494 C1506 1.349 1_545 S
C1495 C1493 1.327 . S
C1495 C1511 1.429 . S
C1495 H1517 0.950 . S
C1496 H1492 0.949 . S
C1496 C1504 1.574 . S
C1496 C1512 1.368 1_565 S
H1497 C1505 0.950 . S
H1498 C1503 0.950 . S
H1499 C1504 0.949 . S
H1500 C1506 0.950 . S
H1501 C1507 0.950 . S
H1502 C1508 0.949 . S
C1503 H1498 0.950 . S
C1503 C1505 1.327 . S
C1503 C1509 1.429 . S
C1504 C1496 1.574 . S
C1504 H1499 0.949 . S
C1504 C1510 1.368 1_565 S
C1505 C1489 1.349 . S
C1505 H1497 0.950 . S
C1505 C1503 1.327 . S
C1506 C1494 1.349 1_565 S
C1506 H1500 0.950 . S
C1506 C1507 1.327 . S
C1507 H1501 0.950 . S
C1507 C1506 1.327 . S
C1507 C1511 1.429 1_565 S
C1508 C1491 1.574 . S
C1508 H1502 0.949 . S
C1508 C1512 1.368 . S
C1509 C1490 1.429 . S
C1509 C1503 1.429 . S
C1509 C1510 1.523 . S
C1510 C1491 1.368 . S
C1510 C1504 1.368 1_545 S
C1510 C1509 1.523 . S
C1511 C1495 1.429 . S
C1511 C1507 1.429 1_545 S
C1511 C1512 1.523 . S
C1512 C1496 1.368 1_545 S
C1512 C1508 1.368 . S
C1512 C1511 1.523 . S
H1513 C1488 0.950 1_565 S
H1514 C1490 0.950 1_565 S
H1515 C1491 0.949 . S
H1516 C1493 0.950 . S
H1517 C1495 0.950 . S
C1518 C1519 1.349 . S
C1518 C1520 1.327 . S
C1518 H1543 0.950 . S
C1519 C1518 1.349 . S
C1519 C1535 1.349 . S
C1520 C1518 1.327 . S
C1520 C1539 1.429 . S
C1520 H1544 0.950 . S
C1521 C1538 1.574 . S
C1521 C1540 1.368 . S
C1521 H1545 0.946 1_655 S
H1522 C1526 0.949 . S
C1523 C1524 1.349 1_455 S
C1523 C1525 1.338 . S
C1523 H1546 0.950 . S
C1524 C1523 1.349 1_655 S
C1524 C1536 1.349 . S
C1525 C1523 1.338 . S
C1525 C1541 1.412 1_455 S
C1525 H1547 0.956 . S
C1526 H1522 0.949 . S
C1526 C1534 1.574 . S
C1526 C1542 1.368 . S
H1527 C1535 0.950 . S
H1528 C1533 0.950 . S
H1529 C1534 0.949 . S
H1530 C1536 0.950 . S
H1531 C1537 0.950 . S
H1532 C1538 0.949 1_455 S
C1533 H1528 0.950 . S
C1533 C1535 1.327 . S
C1533 C1539 1.429 . S
C1534 C1526 1.574 . S
C1534 H1529 0.949 . S
C1534 C1540 1.368 . S
C1535 C1519 1.349 . S
C1535 H1527 0.950 . S
C1535 C1533 1.327 . S
C1536 C1524 1.349 . S
C1536 H1530 0.950 . S
C1536 C1537 1.327 . S
C1537 H1531 0.950 . S
C1537 C1536 1.327 . S
C1537 C1541 1.429 . S
C1538 C1521 1.574 . S
C1538 H1532 0.949 1_655 S
C1538 C1542 1.368 . S
C1539 C1520 1.429 . S
C1539 C1533 1.429 . S
C1539 C1540 1.523 . S
C1540 C1521 1.368 . S
C1540 C1534 1.368 . S
C1540 C1539 1.523 . S
C1541 C1525 1.412 1_655 S
C1541 C1537 1.429 . S
C1541 C1542 1.523 . S
C1542 C1526 1.368 . S
C1542 C1538 1.368 . S
C1542 C1541 1.523 . S
H1543 C1518 0.950 . S
H1544 C1520 0.950 . S
H1545 C1521 0.946 1_455 S
H1546 C1523 0.950 . S
H1547 C1525 0.956 . S
C1548 C1549 1.349 . S
C1548 C1550 1.327 . S
C1548 H1573 0.950 . S
C1549 C1548 1.349 . S
C1549 C1565 1.349 . S
C1550 C1548 1.327 . S
C1550 C1569 1.429 . S
C1550 H1574 0.950 . S
C1551 C1568 1.574 . S
C1551 C1570 1.368 . S
C1551 H1575 0.949 . S
H1552 C1556 0.949 . S
C1553 C1554 1.349 . S
C1553 C1555 1.327 . S
C1553 H1576 0.950 . S
C1554 C1553 1.349 . S
C1554 C1566 1.349 . S
C1555 C1553 1.327 . S
C1555 C1571 1.429 . S
C1555 H1577 0.950 . S
C1556 H1552 0.949 . S
C1556 C1564 1.574 . S
C1556 C1572 1.368 . S
H1557 C1565 0.950 . S
H1558 C1563 0.950 . S
H1559 C1564 0.949 . S
H1560 C1566 0.950 . S
H1561 C1567 0.950 . S
H1562 C1568 0.949 . S
C1563 H1558 0.950 . S
C1563 C1565 1.327 . S
C1563 C1569 1.429 . S
C1564 C1556 1.574 . S
C1564 H1559 0.949 . S
C1564 C1570 1.368 . S
C1565 C1549 1.349 . S
C1565 H1557 0.950 . S
C1565 C1563 1.327 . S
C1566 C1554 1.349 . S
C1566 H1560 0.950 . S
C1566 C1567 1.327 . S
C1567 H1561 0.950 . S
C1567 C1566 1.327 . S
C1567 C1571 1.429 . S
C1568 C1551 1.574 . S
C1568 H1562 0.949 . S
C1568 C1572 1.368 . S
C1569 C1550 1.429 . S
C1569 C1563 1.429 . S
C1569 C1570 1.523 . S
C1570 C1551 1.368 . S
C1570 C1564 1.368 . S
C1570 C1569 1.523 . S
C1571 C1555 1.429 . S
C1571 C1567 1.429 . S
C1571 C1572 1.523 . S
C1572 C1556 1.368 . S
C1572 C1568 1.368 . S
C1572 C1571 1.523 . S
H1573 C1548 0.950 . S
H1574 C1550 0.950 . S
H1575 C1551 0.949 . S
H1576 C1553 0.950 . S
H1577 C1555 0.950 . S
C1578 C1579 1.349 1_545 S
C1578 C1580 1.327 . S
C1578 H1603 0.950 . S
C1579 C1578 1.349 1_565 S
C1579 C1595 1.349 . S
C1580 C1578 1.327 . S
C1580 C1599 1.429 1_545 S
C1580 H1604 0.950 . S
C1581 C1598 1.574 . S
C1581 C1600 1.368 . S
C1581 H1605 0.949 . S
H1582 C1586 0.949 1_545 S
C1583 C1584 1.349 . S
C1583 C1585 1.327 . S
C1583 H1606 0.950 . S
C1584 C1583 1.349 . S
C1584 C1596 1.349 . S
C1585 C1583 1.327 . S
C1585 C1601 1.429 . S
C1585 H1607 0.950 . S
C1586 H1582 0.949 1_565 S
C1586 C1594 1.574 1_565 S
C1586 C1602 1.368 . S
H1587 C1595 0.950 . S
H1588 C1593 0.950 . S
H1589 C1594 0.949 . S
H1590 C1596 0.950 1_545 S
H1591 C1597 0.950 1_545 S
H1592 C1598 0.949 . S
C1593 H1588 0.950 . S
C1593 C1595 1.327 . S
C1593 C1599 1.429 . S
C1594 C1586 1.574 1_545 S
C1594 H1589 0.949 . S
C1594 C1600 1.368 1_545 S
C1595 C1579 1.349 . S
C1595 H1587 0.950 . S
C1595 C1593 1.327 . S
C1596 C1584 1.349 . S
C1596 H1590 0.950 1_565 S
C1596 C1597 1.327 . S
C1597 H1591 0.950 1_565 S
C1597 C1596 1.327 . S
C1597 C1601 1.429 . S
C1598 C1581 1.574 . S
C1598 H1592 0.949 . S
C1598 C1602 1.368 . S
C1599 C1580 1.429 1_565 S
C1599 C1593 1.429 . S
C1599 C1600 1.523 . S
C1600 C1581 1.368 . S
C1600 C1594 1.368 1_565 S
C1600 C1599 1.523 . S
C1601 C1585 1.429 . S
C1601 C1597 1.429 . S
C1601 C1602 1.523 . S
C1602 C1586 1.368 . S
C1602 C1598 1.368 . S
C1602 C1601 1.523 . S
H1603 C1578 0.950 . S
H1604 C1580 0.950 . S
H1605 C1581 0.949 . S
H1606 C1583 0.950 . S
H1607 C1585 0.950 . S
C1608 C1609 1.349 . S
C1608 C1610 1.327 . S
C1608 H1633 0.950 . S
C1609 C1608 1.349 . S
C1609 C1625 1.349 . S
C1610 C1608 1.327 . S
C1610 C1629 1.429 . S
C1610 H1634 0.950 . S
C1611 C1628 1.574 1_455 S
C1611 C1630 1.368 . S
C1611 H1635 0.949 1_455 S
H1612 C1616 0.949 . S
C1613 C1614 1.349 1_655 S
C1613 C1615 1.327 . S
C1613 H1636 0.950 . S
C1614 C1613 1.349 1_455 S
C1614 C1626 1.349 . S
C1615 C1613 1.327 . S
C1615 C1631 1.429 1_655 S
C1615 H1637 0.950 . S
C1616 H1612 0.949 . S
C1616 C1624 1.574 . S
C1616 C1632 1.368 . S
H1617 C1625 0.947 1_655 S
H1618 C1623 0.950 1_655 S
H1619 C1624 0.949 . S
H1620 C1626 0.950 . S
H1621 C1627 0.950 . S
H1622 C1628 0.949 . S
C1623 H1618 0.950 1_455 S
C1623 C1625 1.327 . S
C1623 C1629 1.429 . S
C1624 C1616 1.574 . S
C1624 H1619 0.949 . S
C1624 C1630 1.368 . S
C1625 C1609 1.349 . S
C1625 H1617 0.947 1_455 S
C1625 C1623 1.327 . S
C1626 C1614 1.349 . S
C1626 H1620 0.950 . S
C1626 C1627 1.327 . S
C1627 H1621 0.950 . S
C1627 C1626 1.327 . S
C1627 C1631 1.429 . S
C1628 C1611 1.574 1_655 S
C1628 H1622 0.949 . S
C1628 C1632 1.368 1_655 S
C1629 C1610 1.429 . S
C1629 C1623 1.429 . S
C1629 C1630 1.523 . S
C1630 C1611 1.368 . S
C1630 C1624 1.368 . S
C1630 C1629 1.523 . S
C1631 C1615 1.429 1_455 S
C1631 C1627 1.429 . S
C1631 C1632 1.523 . S
C1632 C1616 1.368 . S
C1632 C1628 1.368 1_455 S
C1632 C1631 1.523 . S
H1633 C1608 0.950 . S
H1634 C1610 0.950 . S
H1635 C1611 0.949 1_655 S
H1636 C1613 0.950 . S
H1637 C1615 0.950 . S
C1638 C1639 1.349 . S
C1638 C1640 1.327 . S
C1638 H1663 0.950 . S
C1639 C1638 1.349 . S
C1639 C1655 1.349 . S
C1640 C1638 1.327 . S
C1640 C1659 1.429 . S
C1640 H1664 0.950 . S
C1641 C1658 1.574 . S
C1641 C1660 1.368 . S
C1641 H1665 0.949 . S
H1642 C1646 0.949 . S
C1643 C1644 1.349 . S
C1643 C1645 1.327 . S
C1643 H1666 0.950 . S
C1644 C1643 1.349 . S
C1644 C1656 1.349 . S
C1645 C1643 1.327 . S
C1645 C1661 1.429 . S
C1645 H1667 0.950 . S
C1646 H1642 0.949 . S
C1646 C1654 1.574 . S
C1646 C1662 1.368 . S
H1647 C1655 0.950 . S
H1648 C1653 0.950 . S
H1649 C1654 0.949 . S
H1650 C1656 0.950 . S
H1651 C1657 0.950 . S
H1652 C1658 0.949 . S
C1653 H1648 0.950 . S
C1653 C1655 1.327 . S
C1653 C1659 1.429 . S
C1654 C1646 1.574 . S
C1654 H1649 0.949 . S
C1654 C1660 1.368 . S
C1655 C1639 1.349 . S
C1655 H1647 0.950 . S
C1655 C1653 1.327 . S
C1656 C1644 1.349 . S
C1656 H1650 0.950 . S
C1656 C1657 1.327 . S
C1657 H1651 0.950 . S
C1657 C1656 1.327 . S
C1657 C1661 1.429 . S
C1658 C1641 1.574 . S
C1658 H1652 0.949 . S
C1658 C1662 1.368 . S
C1659 C1640 1.429 . S
C1659 C1653 1.429 . S
C1659 C1660 1.523 . S
C1660 C1641 1.368 . S
C1660 C1654 1.368 . S
C1660 C1659 1.523 . S
C1661 C1645 1.429 . S
C1661 C1657 1.429 . S
C1661 C1662 1.523 . S
C1662 C1646 1.368 . S
C1662 C1658 1.368 . S
C1662 C1661 1.523 . S
H1663 C1638 0.950 . S
H1664 C1640 0.950 . S
H1665 C1641 0.949 . S
H1666 C1643 0.950 . S
H1667 C1645 0.950 . S
C1668 C1669 1.349 . S
C1668 C1670 1.327 . S
C1668 H1693 0.950 . S
C1669 C1668 1.349 . S
C1669 C1685 1.349 . S
C1670 C1668 1.327 . S
C1670 C1689 1.429 . S
C1670 H1694 0.950 . S
C1671 C1688 1.574 . S
C1671 C1690 1.368 . S
C1671 H1695 0.949 . S
H1672 C1676 0.949 . S
C1673 C1674 1.349 . S
C1673 C1675 1.327 . S
C1673 H1696 0.950 . S
C1674 C1673 1.349 . S
C1674 C1686 1.349 . S
C1675 C1673 1.327 . S
C1675 C1691 1.429 . S
C1675 H1697 0.950 . S
C1676 H1672 0.949 . S
C1676 C1684 1.574 . S
C1676 C1692 1.368 . S
H1677 C1685 0.950 . S
H1678 C1683 0.950 . S
H1679 C1684 0.949 . S
H1680 C1686 0.950 . S
H1681 C1687 0.950 . S
H1682 C1688 0.949 . S
C1683 H1678 0.950 . S
C1683 C1685 1.327 . S
C1683 C1689 1.429 . S
C1684 C1676 1.574 . S
C1684 H1679 0.949 . S
C1684 C1690 1.368 . S
C1685 C1669 1.349 . S
C1685 H1677 0.950 . S
C1685 C1683 1.327 . S
C1686 C1674 1.349 . S
C1686 H1680 0.950 . S
C1686 C1687 1.327 . S
C1687 H1681 0.950 . S
C1687 C1686 1.327 . S
C1687 C1691 1.429 . S
C1688 C1671 1.574 . S
C1688 H1682 0.949 . S
C1688 C1692 1.368 . S
C1689 C1670 1.429 . S
C1689 C1683 1.429 . S
C1689 C1690 1.523 . S
C1690 C1671 1.368 . S
C1690 C1684 1.368 . S
C1690 C1689 1.523 . S
C1691 C1675 1.429 . S
C1691 C1687 1.429 . S
C1691 C1692 1.523 . S
C1692 C1676 1.368 . S
C1692 C1688 1.368 . S
C1692 C1691 1.523 . S
H1693 C1668 0.950 . S
H1694 C1670 0.950 . S
H1695 C1671 0.949 . S
H1696 C1673 0.950 . S
H1697 C1675 0.950 . S
C1698 C1699 1.349 . S
C1698 C1700 1.327 . S
C1698 H1723 0.950 . S
C1699 C1698 1.349 . S
C1699 C1715 1.349 . S
C1700 C1698 1.327 . S
C1700 C1719 1.429 . S
C1700 H1724 0.950 . S
C1701 C1718 1.574 . S
C1701 C1720 1.368 . S
C1701 H1725 0.949 . S
H1702 C1706 0.949 . S
C1703 C1704 1.349 . S
C1703 C1705 1.327 . S
C1703 H1726 0.950 . S
C1704 C1703 1.349 . S
C1704 C1716 1.349 . S
C1705 C1703 1.327 . S
C1705 C1721 1.429 . S
C1705 H1727 0.950 . S
C1706 H1702 0.949 . S
C1706 C1714 1.574 . S
C1706 C1722 1.368 . S
H1707 C1715 0.950 . S
H1708 C1713 0.950 . S
H1709 C1714 0.949 . S
H1710 C1716 0.950 . S
H1711 C1717 0.950 . S
H1712 C1718 0.949 . S
C1713 H1708 0.950 . S
C1713 C1715 1.327 . S
C1713 C1719 1.429 . S
C1714 C1706 1.574 . S
C1714 H1709 0.949 . S
C1714 C1720 1.368 . S
C1715 C1699 1.349 . S
C1715 H1707 0.950 . S
C1715 C1713 1.327 . S
C1716 C1704 1.349 . S
C1716 H1710 0.950 . S
C1716 C1717 1.327 . S
C1717 H1711 0.950 . S
C1717 C1716 1.327 . S
C1717 C1721 1.429 . S
C1718 C1701 1.574 . S
C1718 H1712 0.949 . S
C1718 C1722 1.368 . S
C1719 C1700 1.429 . S
C1719 C1713 1.429 . S
C1719 C1720 1.523 . S
C1720 C1701 1.368 . S
C1720 C1714 1.368 . S
C1720 C1719 1.523 . S
C1721 C1705 1.429 . S
C1721 C1717 1.429 . S
C1721 C1722 1.523 . S
C1722 C1706 1.368 . S
C1722 C1718 1.368 . S
C1722 C1721 1.523 . S
H1723 C1698 0.950 . S
H1724 C1700 0.950 . S
H1725 C1701 0.949 . S
H1726 C1703 0.950 . S
H1727 C1705 0.950 . S
C649 C14 1.889 . S
C654 C122 1.890 . S
C679 C50 1.974 . S
C684 C147 2.114 . S
C709 C194 2.027 . S
C714 C86 2.030 . S
C739 C230 1.867 . S
C744 C338 1.866 . S
C769 C266 1.968 . S
C774 C363 2.106 . S
C799 C410 1.996 . S
C804 C302 1.996 . S
C829 C554 1.868 . S
C834 C446 1.866 . S
C859 C579 2.106 . S
C864 C482 1.966 . S
C889 C626 1.995 . S
C894 C518 1.996 . S
C919 C3 1.620 . S
C924 C327 1.617 . S
C949 C39 1.686 . S
C954 C374 1.537 . S
C979 C399 1.729 . S
C984 C75 1.727 . S
C1009 C111 1.618 . S
C1014 C435 1.620 . S
C1039 C158 1.536 . S
C1044 C471 1.687 . S
C1069 C183 1.728 . S
C1074 C507 1.727 . S
C1099 C219 1.647 . S
C1104 C543 1.648 . S
C1129 C255 1.689 . S
C1134 C590 1.540 . S
C1159 C615 1.713 . S
C1164 C291 1.708 . S
C1189 C4 0.296 . S
C1194 C148 0.248 . S
C1219 C40 0.314 . S
C1224 C182 0.290 . S
C1249 C76 0.317 . S
C1254 C110 0.299 . S
C1279 C112 0.261 . S
C1284 C38 0.199 . S
C1309 C74 0.230 . S
C1314 C146 0.291 . S
C1339 C184 0.295 . S
C1344 C2 0.243 . S
C1369 C220 0.323 . S
C1374 C364 0.288 . S
C1399 C398 0.291 . S
C1404 C256 0.320 . S
C1429 C326 0.330 . S
C1434 C292 0.344 . S
C1459 C254 0.201 . S
C1464 C328 0.261 . S
C1489 C362 0.294 . S
C1494 C290 0.242 . S
C1519 C400 0.284 . S
C1524 C218 0.229 . S
C1549 C580 0.251 . S
C1554 C436 0.296 . S
C1579 C614 0.304 . S
C1584 C472 0.319 . S
C1609 C508 0.301 . S
C1614 C542 0.283 . S
C1639 C470 0.227 . S
C1644 C544 0.279 . S
C1669 C506 0.231 . S
C1674 C578 0.298 . S
C1699 C434 0.271 . S
C1704 C616 0.312 . S
