# Generated by pormake.
# Topology yfw, (5)-cn, num edge types: 1
# Building blocks:
#     Node 0, Type 0, BuildingBlock: BEQFEK_clean_sbu_0, # of connection points: 5
#     Node 1, Type 0, BuildingBlock: BEQFEK_clean_sbu_0, # of connection points: 5
#     Node 2, Type 0, BuildingBlock: BEQFEK_clean_sbu_0, # of connection points: 5
#     Node 3, Type 0, BuildingBlock: BEQFEK_clean_sbu_0, # of connection points: 5
#     Node 4, Type 0, BuildingBlock: BEQFEK_clean_sbu_0, # of connection points: 5
#     Node 5, Type 0, BuildingBlock: BEQFEK_clean_sbu_0, # of connection points: 5
#     Node 6, Type 0, BuildingBlock: BEQFEK_clean_sbu_0, # of connection points: 5
#     Node 7, Type 0, BuildingBlock: BEQFEK_clean_sbu_0, # of connection points: 5
#     Node 8, Type 0, BuildingBlock: BEQFEK_clean_sbu_0, # of connection points: 5
#     Node 9, Type 0, BuildingBlock: BEQFEK_clean_sbu_0, # of connection points: 5
#     Node 10, Type 0, BuildingBlock: BEQFEK_clean_sbu_0, # of connection points: 5
#     Node 11, Type 0, BuildingBlock: BEQFEK_clean_sbu_0, # of connection points: 5
#     Node 12, Type 0, BuildingBlock: BEQFEK_clean_sbu_0, # of connection points: 5
#     Node 13, Type 0, BuildingBlock: BEQFEK_clean_sbu_0, # of connection points: 5
#     Node 14, Type 0, BuildingBlock: BEQFEK_clean_sbu_0, # of connection points: 5
#     Node 15, Type 0, BuildingBlock: BEQFEK_clean_sbu_0, # of connection points: 5
#     Edge 16, Type (0, 0), BuildingBlock: UVAHIK_clean_linker_0, # of connection points: 2
#     Edge 17, Type (0, 0), BuildingBlock: UVAHIK_clean_linker_0, # of connection points: 2
#     Edge 18, Type (0, 0), BuildingBlock: UVAHIK_clean_linker_0, # of connection points: 2
#     Edge 19, Type (0, 0), BuildingBlock: UVAHIK_clean_linker_0, # of connection points: 2
#     Edge 20, Type (0, 0), BuildingBlock: UVAHIK_clean_linker_0, # of connection points: 2
#     Edge 21, Type (0, 0), BuildingBlock: UVAHIK_clean_linker_0, # of connection points: 2
#     Edge 22, Type (0, 0), BuildingBlock: UVAHIK_clean_linker_0, # of connection points: 2
#     Edge 23, Type (0, 0), BuildingBlock: UVAHIK_clean_linker_0, # of connection points: 2
#     Edge 24, Type (0, 0), BuildingBlock: UVAHIK_clean_linker_0, # of connection points: 2
#     Edge 25, Type (0, 0), BuildingBlock: UVAHIK_clean_linker_0, # of connection points: 2
#     Edge 26, Type (0, 0), BuildingBlock: UVAHIK_clean_linker_0, # of connection points: 2
#     Edge 27, Type (0, 0), BuildingBlock: UVAHIK_clean_linker_0, # of connection points: 2
#     Edge 28, Type (0, 0), BuildingBlock: UVAHIK_clean_linker_0, # of connection points: 2
#     Edge 29, Type (0, 0), BuildingBlock: UVAHIK_clean_linker_0, # of connection points: 2
#     Edge 30, Type (0, 0), BuildingBlock: UVAHIK_clean_linker_0, # of connection points: 2
#     Edge 31, Type (0, 0), BuildingBlock: UVAHIK_clean_linker_0, # of connection points: 2
#     Edge 32, Type (0, 0), BuildingBlock: UVAHIK_clean_linker_0, # of connection points: 2
#     Edge 33, Type (0, 0), BuildingBlock: UVAHIK_clean_linker_0, # of connection points: 2
#     Edge 34, Type (0, 0), BuildingBlock: UVAHIK_clean_linker_0, # of connection points: 2
#     Edge 35, Type (0, 0), BuildingBlock: UVAHIK_clean_linker_0, # of connection points: 2
#     Edge 36, Type (0, 0), BuildingBlock: UVAHIK_clean_linker_0, # of connection points: 2
#     Edge 37, Type (0, 0), BuildingBlock: UVAHIK_clean_linker_0, # of connection points: 2
#     Edge 38, Type (0, 0), BuildingBlock: UVAHIK_clean_linker_0, # of connection points: 2
#     Edge 39, Type (0, 0), BuildingBlock: UVAHIK_clean_linker_0, # of connection points: 2
#     Edge 40, Type (0, 0), BuildingBlock: UVAHIK_clean_linker_0, # of connection points: 2
#     Edge 41, Type (0, 0), BuildingBlock: UVAHIK_clean_linker_0, # of connection points: 2
#     Edge 42, Type (0, 0), BuildingBlock: UVAHIK_clean_linker_0, # of connection points: 2
#     Edge 43, Type (0, 0), BuildingBlock: UVAHIK_clean_linker_0, # of connection points: 2
#     Edge 44, Type (0, 0), BuildingBlock: UVAHIK_clean_linker_0, # of connection points: 2
#     Edge 45, Type (0, 0), BuildingBlock: UVAHIK_clean_linker_0, # of connection points: 2
#     Edge 46, Type (0, 0), BuildingBlock: UVAHIK_clean_linker_0, # of connection points: 2
#     Edge 47, Type (0, 0), BuildingBlock: UVAHIK_clean_linker_0, # of connection points: 2
#     Edge 48, Type (0, 0), BuildingBlock: UVAHIK_clean_linker_0, # of connection points: 2
#     Edge 49, Type (0, 0), BuildingBlock: UVAHIK_clean_linker_0, # of connection points: 2
#     Edge 50, Type (0, 0), BuildingBlock: UVAHIK_clean_linker_0, # of connection points: 2
#     Edge 51, Type (0, 0), BuildingBlock: UVAHIK_clean_linker_0, # of connection points: 2
#     Edge 52, Type (0, 0), BuildingBlock: UVAHIK_clean_linker_0, # of connection points: 2
#     Edge 53, Type (0, 0), BuildingBlock: UVAHIK_clean_linker_0, # of connection points: 2
#     Edge 54, Type (0, 0), BuildingBlock: UVAHIK_clean_linker_0, # of connection points: 2
#     Edge 55, Type (0, 0), BuildingBlock: UVAHIK_clean_linker_0, # of connection points: 2
# Relax obj value: 0.081
# Max RMSD: 0.128
# Mean RMSD: 0.128
data_MOF--net-yfw--node1-BEQFEK_clean_sbu_0--edge1-UVAHIK_clean_linker_0
_symmetry_space_group_name_H-M    P1
_symmetry_Int_Tables_number       1
_symmetry_cell_setting            triclinic
loop_
_symmetry_equiv_pos_as_xyz
'x, y, z'
_cell_length_a     69.26318
_cell_length_b     69.258333
_cell_length_c     35.214078
_cell_angle_alpha  90.011421
_cell_angle_beta   89.998458
_cell_angle_gamma 89.998437
loop_
_atom_site_label
_atom_site_type_symbol
_atom_site_fract_x
_atom_site_fract_y
_atom_site_fract_z
_atom_type_partial_charge
Co0 Co 0.11876 0.07146 0.0095 0.0
Co1 Co 0.16241 0.08347 0.01449 0.0
C2 C 0.13021 0.11254 0.02028 0.0
O3 O 0.11713 0.09982 0.01562 0.0
O4 O 0.14804 0.10802 0.02015 0.0
C5 C 0.07945 0.06441 0.97951 0.0
O6 O 0.08233 0.07811 0.95435 0.0
C7 C 0.19765 0.10143 0.98549 0.0
C8 C 0.22014 0.08396 0.01374 0.0
C9 C 0.21744 0.09823 0.98663 0.0
N10 N 0.18914 0.08927 0.01006 0.0
N11 N 0.20268 0.07926 0.02764 0.0
C12 C 0.18671 0.11399 0.95838 0.0
H13 H 0.17139 0.1094 0.95666 0.0
H14 H 0.19335 0.11353 0.92971 0.0
H15 H 0.18722 0.12913 0.96866 0.0
C16 C 0.13274 0.05298 0.93852 0.0
N17 N 0.13553 0.06406 0.9695 0.0
N18 N 0.15392 0.06884 0.97158 0.0
C19 C 0.16338 0.06087 0.94189 0.0
C20 C 0.1502 0.05078 0.9199 0.0
C21 C 0.1142 0.04304 0.92883 0.0
H22 H 0.10749 0.03713 0.95491 0.0
H23 H 0.10419 0.05359 0.91573 0.0
H24 H 0.11652 0.03102 0.9085 0.0
O25 O 0.12817 0.06015 0.05721 0.0
O26 O 0.1591 0.06815 0.06151 0.0
H27 H 0.19275 0.06 0.96104 0.0
H28 H 0.18974 0.05294 0.91215 0.0
C29 C 0.18459 0.06286 0.93459 0.0
H30 H 0.18767 0.07773 0.92494 0.0
H31 H 0.19993 0.06839 0.04743 0.0
O32 O 0.09262 0.06028 0.00329 0.0
C33 C 0.14423 0.05971 0.0747 0.0
Co34 Co 0.9269 0.61336 0.26705 0.0
Co35 Co 0.91775 0.65765 0.25791 0.0
C36 C 0.88633 0.62855 0.26857 0.0
O37 O 0.89837 0.61462 0.26866 0.0
O38 O 0.89186 0.646 0.26477 0.0
C39 C 0.93153 0.57357 0.24177 0.0
O40 O 0.92025 0.57832 0.21326 0.0
C41 C 0.9033 0.69473 0.22625 0.0
C42 C 0.92769 0.71384 0.24123 0.0
C43 C 0.91037 0.71341 0.2216 0.0
N44 N 0.91625 0.68456 0.2466 0.0
N45 N 0.93057 0.6962 0.25602 0.0
C46 C 0.88457 0.68662 0.21225 0.0
H47 H 0.87889 0.67589 0.23269 0.0
H48 H 0.88694 0.6792 0.18474 0.0
H49 H 0.87369 0.69822 0.20837 0.0
C50 C 0.94974 0.62151 0.19731 0.0
N51 N 0.93721 0.62675 0.22475 0.0
N52 N 0.93212 0.64486 0.21938 0.0
C53 C 0.94063 0.65144 0.18746 0.0
C54 C 0.95213 0.6369 0.17262 0.0
C55 C 0.96107 0.6031 0.19716 0.0
H56 H 0.96365 0.59809 0.2266 0.0
H57 H 0.95293 0.59191 0.18135 0.0
H58 H 0.97521 0.60511 0.18286 0.0
O59 O 0.9368 0.62462 0.31422 0.0
O60 O 0.93177 0.65608 0.30697 0.0
H61 H 0.94506 0.68199 0.18752 0.0
H62 H 0.94213 0.67176 0.14071 0.0
C63 C 0.93721 0.67098 0.17064 0.0
H64 H 0.92161 0.67431 0.17134 0.0
H65 H 0.94271 0.69188 0.27139 0.0
O66 O 0.93544 0.58606 0.26707 0.0
C67 C 0.93806 0.64188 0.32625 0.0
Co68 Co 0.37791 0.42817 0.52228 0.0
Co69 Co 0.33423 0.41737 0.51183 0.0
C70 C 0.36442 0.38706 0.52421 0.0
O71 O 0.37786 0.3996 0.526 0.0
O72 O 0.34691 0.39198 0.51865 0.0
C73 C 0.41916 0.43277 0.50479 0.0
O74 O 0.4173 0.41865 0.48016 0.0
C75 C 0.29985 0.40149 0.47386 0.0
C76 C 0.27728 0.42136 0.49495 0.0
C77 C 0.28042 0.40619 0.47001 0.0
N78 N 0.30777 0.41364 0.49927 0.0
N79 N 0.29412 0.42517 0.51236 0.0
C80 C 0.31126 0.38729 0.45099 0.0
H81 H 0.32688 0.39084 0.45204 0.0
H82 H 0.30626 0.38715 0.42104 0.0
H83 H 0.30917 0.37264 0.46304 0.0
C84 C 0.37068 0.44855 0.44967 0.0
N85 N 0.36502 0.43689 0.47817 0.0
N86 N 0.3467 0.43236 0.47343 0.0
C87 C 0.34021 0.44089 0.44141 0.0
C88 C 0.35523 0.45134 0.42534 0.0
C89 C 0.38991 0.45838 0.44769 0.0
H90 H 0.39416 0.46355 0.47627 0.0
H91 H 0.40088 0.44793 0.43749 0.0
H92 H 0.38963 0.47088 0.42801 0.0
O93 O 0.36527 0.43947 0.56691 0.0
O94 O 0.33439 0.43158 0.56079 0.0
H95 H 0.30956 0.44328 0.44781 0.0
H96 H 0.31785 0.44722 0.3998 0.0
C97 C 0.32018 0.43873 0.42603 0.0
H98 H 0.3176 0.4234 0.419 0.0
H99 H 0.2965 0.43626 0.53187 0.0
O100 O 0.40466 0.43812 0.5242 0.0
C101 C 0.34797 0.43981 0.57893 0.0
Co102 Co 0.57248 0.87831 0.76644 0.0
Co103 Co 0.58055 0.83379 0.76935 0.0
C104 C 0.61209 0.86432 0.77698 0.0
O105 O 0.60069 0.87855 0.7721 0.0
O106 O 0.60592 0.84697 0.77665 0.0
C107 C 0.56027 0.91664 0.7861 0.0
O108 O 0.56765 0.91232 0.81941 0.0
C109 C 0.59498 0.79939 0.73162 0.0
C110 C 0.58317 0.77583 0.76698 0.0
C111 C 0.59364 0.77945 0.73417 0.0
N112 N 0.58542 0.80715 0.76107 0.0
N113 N 0.57855 0.79302 0.78234 0.0
C114 C 0.60566 0.81103 0.70258 0.0
H115 H 0.61005 0.82515 0.71467 0.0
H116 H 0.59612 0.81391 0.67796 0.0
H117 H 0.61857 0.80307 0.69237 0.0
C118 C 0.55435 0.86707 0.69418 0.0
N119 N 0.56474 0.8627 0.72526 0.0
N120 N 0.56651 0.84386 0.72782 0.0
C121 C 0.55642 0.83554 0.69944 0.0
C122 C 0.54855 0.85 0.67693 0.0
C123 C 0.55017 0.88726 0.68148 0.0
H124 H 0.56267 0.89674 0.68777 0.0
H125 H 0.54708 0.8878 0.65058 0.0
H126 H 0.53743 0.89278 0.69722 0.0
O127 O 0.56096 0.86865 0.81455 0.0
O128 O 0.56519 0.83683 0.81577 0.0
H129 H 0.55196 0.80796 0.72625 0.0
H130 H 0.53717 0.81216 0.68493 0.0
C131 C 0.55169 0.81445 0.69751 0.0
H132 H 0.56238 0.80697 0.6793 0.0
H133 H 0.57032 0.79512 0.80683 0.0
O134 O 0.56177 0.90458 0.75908 0.0
C135 C 0.55872 0.8523 0.83053 0.0
Co136 Co 0.87766 0.06916 0.52034 0.0
Co137 Co 0.83385 0.08035 0.51669 0.0
C138 C 0.86482 0.11011 0.52771 0.0
O139 O 0.87832 0.09764 0.52617 0.0
O140 O 0.8472 0.1052 0.52439 0.0
C141 C 0.9174 0.06407 0.49441 0.0
O142 O 0.9136 0.07718 0.46852 0.0
C143 C 0.8001 0.09886 0.4832 0.0
C144 C 0.77614 0.08145 0.50657 0.0
C145 C 0.78024 0.09643 0.48179 0.0
N146 N 0.80741 0.08562 0.50706 0.0
N147 N 0.79301 0.07545 0.52142 0.0
C148 C 0.8121 0.1138 0.46347 0.0
H149 H 0.81829 0.12365 0.48511 0.0
H150 H 0.82441 0.1068 0.44874 0.0
H151 H 0.80355 0.12254 0.44319 0.0
C152 C 0.8674 0.04982 0.44765 0.0
N153 N 0.86308 0.06124 0.47746 0.0
N154 N 0.84471 0.0661 0.4756 0.0
C155 C 0.83686 0.05812 0.44419 0.0
C156 C 0.85104 0.04769 0.42545 0.0
C157 C 0.88609 0.03925 0.44269 0.0
H158 H 0.89169 0.0345 0.47063 0.0
H159 H 0.89676 0.04897 0.42912 0.0
H160 H 0.88428 0.02636 0.4243 0.0
O161 O 0.86633 0.05739 0.56595 0.0
O162 O 0.83521 0.06501 0.56411 0.0
H163 H 0.80657 0.05613 0.45577 0.0
H164 H 0.81269 0.05208 0.40654 0.0
C165 C 0.81625 0.06055 0.43227 0.0
H166 H 0.81352 0.07592 0.4257 0.0
H167 H 0.79476 0.06404 0.54046 0.0
O168 O 0.90442 0.05922 0.51804 0.0
C169 C 0.84944 0.05667 0.58005 0.0
Co170 Co 0.92566 0.37789 0.78341 0.0
Co171 Co 0.9186 0.33332 0.77651 0.0
C172 C 0.88575 0.36135 0.78003 0.0
O173 O 0.89707 0.37584 0.78178 0.0
O174 O 0.89225 0.3442 0.77792 0.0
C175 C 0.92879 0.41842 0.75996 0.0
O176 O 0.91687 0.41428 0.73211 0.0
C177 C 0.90581 0.29732 0.74082 0.0
C178 C 0.92607 0.27623 0.76597 0.0
C179 C 0.91132 0.27803 0.73958 0.0
N180 N 0.91702 0.30643 0.76631 0.0
N181 N 0.92883 0.29369 0.78176 0.0
C182 C 0.89182 0.30754 0.71538 0.0
H183 H 0.89506 0.32322 0.71439 0.0
H184 H 0.89235 0.30148 0.68622 0.0
H185 H 0.877 0.30562 0.7267 0.0
C186 C 0.95069 0.36988 0.71678 0.0
N187 N 0.93764 0.36437 0.74301 0.0
N188 N 0.93431 0.34574 0.73934 0.0
C189 C 0.94485 0.33891 0.71002 0.0
C190 C 0.95556 0.35399 0.69484 0.0
C191 C 0.95999 0.38939 0.71543 0.0
H192 H 0.96253 0.39477 0.74463 0.0
H193 H 0.95029 0.39957 0.70039 0.0
H194 H 0.97401 0.38893 0.70021 0.0
O195 O 0.93537 0.36749 0.83162 0.0
O196 O 0.93056 0.33589 0.82742 0.0
H197 H 0.94935 0.30868 0.7191 0.0
H198 H 0.95318 0.31621 0.67052 0.0
C199 C 0.94428 0.31846 0.69626 0.0
H200 H 0.92925 0.31461 0.68896 0.0
H201 H 0.93932 0.29709 0.80195 0.0
O202 O 0.93352 0.40534 0.78349 0.0
C203 C 0.93658 0.3506 0.84555 0.0
Co204 Co 0.6185 0.4292 0.02629 0.0
Co205 Co 0.66197 0.41785 0.01537 0.0
C206 C 0.63168 0.38802 0.03009 0.0
O207 O 0.61838 0.40073 0.03158 0.0
O208 O 0.64918 0.39265 0.02371 0.0
C209 C 0.57737 0.43381 0.00865 0.0
O210 O 0.57927 0.41948 0.98447 0.0
C211 C 0.69616 0.40149 0.97751 0.0
C212 C 0.71884 0.42144 -0.00225 0.0
C213 C 0.71558 0.4061 0.97329 0.0
N214 N 0.68835 0.41385 0.00264 0.0
N215 N 0.70208 0.42543 0.01525 0.0
C216 C 0.68464 0.38715 0.95518 0.0
H217 H 0.66903 0.39069 0.95648 0.0
H218 H 0.68949 0.38683 0.92515 0.0
H219 H 0.68681 0.37256 0.96751 0.0
C220 C 0.62556 0.4489 0.95292 0.0
N221 N 0.6312 0.43728 0.98152 0.0
N222 N 0.64943 0.43248 0.97654 0.0
C223 C 0.65588 0.44077 0.94424 0.0
C224 C 0.64094 0.45136 0.92827 0.0
C225 C 0.60656 0.45918 0.95137 0.0
H226 H 0.60259 0.46444 0.98005 0.0
H227 H 0.59529 0.44901 0.94136 0.0
H228 H 0.60702 0.47169 0.93173 0.0
O229 O 0.63141 0.44101 0.07007 0.0
O230 O 0.66214 0.43261 0.06366 0.0
H231 H 0.68655 0.44319 0.95019 0.0
H232 H 0.67811 0.44664 0.90212 0.0
C233 C 0.67587 0.43843 0.92872 0.0
H234 H 0.67841 0.42302 0.92227 0.0
H235 H 0.69979 0.43668 0.03444 0.0
O236 O 0.59183 0.43926 0.02806 0.0
C237 C 0.64877 0.44124 0.08169 0.0
Co238 Co 0.57301 0.11861 0.26834 0.0
Co239 Co 0.57796 0.16357 0.27221 0.0
C240 C 0.6118 0.13557 0.27458 0.0
O241 O 0.60138 0.1205 0.27108 0.0
O242 O 0.60433 0.15239 0.27544 0.0
C243 C 0.56323 0.07937 0.28686 0.0
O244 O 0.57019 0.08381 0.32046 0.0
C245 C 0.59045 0.19952 0.23779 0.0
C246 C 0.57427 0.22141 0.27051 0.0
C247 C 0.5867 0.21917 0.23994 0.0
N248 N 0.58058 0.19063 0.26553 0.0
N249 N 0.57116 0.20378 0.28541 0.0
C250 C 0.60142 0.18895 0.20763 0.0
H251 H 0.59722 0.17349 0.20699 0.0
H252 H 0.59884 0.19558 0.17939 0.0
H253 H 0.61709 0.18981 0.21398 0.0
C254 C 0.55267 0.12926 0.19772 0.0
N255 N 0.56303 0.13404 0.22863 0.0
N256 N 0.56383 0.15295 0.23141 0.0
C257 C 0.55333 0.16084 0.20315 0.0
C258 C 0.54602 0.14607 0.1807 0.0
C259 C 0.5496 0.10896 0.1845 0.0
H260 H 0.56275 0.10024 0.18984 0.0
H261 H 0.54616 0.10846 0.15374 0.0
H262 H 0.53744 0.10254 0.20064 0.0
O263 O 0.56192 0.12671 0.31793 0.0
O264 O 0.56415 0.15871 0.3199 0.0
H265 H 0.53456 0.18408 0.18534 0.0
H266 H 0.55998 0.1894 0.18422 0.0
C267 C 0.54847 0.18186 0.20033 0.0
H268 H 0.54742 0.1883 0.22904 0.0
H269 H 0.56202 0.20065 0.30814 0.0
O270 O 0.56414 0.09173 0.26028 0.0
C271 C 0.55902 0.14276 0.33467 0.0
Co272 Co 0.6211 0.57113 0.51097 0.0
Co273 Co 0.66523 0.57998 0.52034 0.0
C274 C 0.63508 0.61138 0.5209 0.0
O275 O 0.6211 0.59965 0.51621 0.0
O276 O 0.65249 0.60549 0.52251 0.0
C277 C 0.582 0.56109 0.52492 0.0
O278 O 0.58569 0.56916 0.55791 0.0
C279 C 0.70235 0.59485 0.4944 0.0
C280 C 0.72276 0.57674 0.52689 0.0
C281 C 0.72181 0.59051 0.49835 0.0
N282 N 0.69234 0.58384 0.51887 0.0
N283 N 0.70464 0.57343 0.53891 0.0
C284 C 0.69309 0.60737 0.46491 0.0
H285 H 0.67759 0.60364 0.4616 0.0
H286 H 0.70059 0.60585 0.43722 0.0
H287 H 0.69417 0.62268 0.47396 0.0
C288 C 0.63537 0.55217 0.44148 0.0
N289 N 0.63842 0.56268 0.47304 0.0
N290 N 0.65708 0.56551 0.47738 0.0
C291 C 0.66655 0.5565 0.44893 0.0
C292 C 0.65307 0.54793 0.42515 0.0
C293 C 0.61593 0.54508 0.42919 0.0
H294 H 0.60608 0.55756 0.42533 0.0
H295 H 0.61665 0.53661 0.40251 0.0
H296 H 0.60982 0.53577 0.45184 0.0
O297 O 0.62815 0.55933 0.56013 0.0
O298 O 0.65933 0.5657 0.56732 0.0
H299 H 0.69288 0.54499 0.4241 0.0
H300 H 0.69293 0.5703 0.43334 0.0
C301 C 0.68805 0.55617 0.44443 0.0
H302 H 0.69501 0.55353 0.47226 0.0
H303 H 0.70058 0.56323 0.55922 0.0
O304 O 0.59492 0.56134 0.49933 0.0
C305 C 0.64369 0.55824 0.57928 0.0
Co306 Co 0.42404 0.11854 0.77462 0.0
Co307 Co 0.41851 0.16341 0.76919 0.0
C308 C 0.38496 0.135 0.77476 0.0
O309 O 0.39567 0.12002 0.77446 0.0
O310 O 0.39215 0.15195 0.77312 0.0
C311 C 0.42767 0.0761 0.76187 0.0
O312 O 0.41175 0.07623 0.7416 0.0
C313 C 0.40632 0.19774 0.72763 0.0
C314 C 0.42208 0.22091 0.75765 0.0
C315 C 0.41004 0.21744 0.72692 0.0
N316 N 0.41585 0.19001 0.75715 0.0
N317 N 0.42501 0.20395 0.77533 0.0
C318 C 0.3956 0.186 0.69883 0.0
H319 H 0.39996 0.1706 0.70052 0.0
H320 H 0.39829 0.19161 0.66978 0.0
H321 H 0.3799 0.18695 0.70474 0.0
C322 C 0.44548 0.12576 0.70316 0.0
N323 N 0.43479 0.13189 0.73274 0.0
N324 N 0.43364 0.15083 0.73179 0.0
C325 C 0.44423 0.15744 0.70244 0.0
C326 C 0.45193 0.14176 0.68305 0.0
C327 C 0.44847 0.10494 0.69345 0.0
H328 H 0.43459 0.09715 0.69618 0.0
H329 H 0.45384 0.10304 0.66403 0.0
H330 H 0.45893 0.0985 0.71368 0.0
O331 O 0.43352 0.12968 0.82294 0.0
O332 O 0.43143 0.16158 0.81868 0.0
H333 H 0.46259 0.18007 0.68043 0.0
H334 H 0.43707 0.18473 0.6778 0.0
C335 C 0.44864 0.17832 0.69552 0.0
H336 H 0.4494 0.18622 0.72282 0.0
H337 H 0.43384 0.20177 0.79896 0.0
O338 O 0.43396 0.0917 0.77624 0.0
C339 C 0.43608 0.14644 0.83688 0.0
Co340 Co 0.88179 0.92711 0.01561 0.0
Co341 Co 0.83785 0.91601 0.01772 0.0
C342 C 0.86846 0.88589 0.02183 0.0
O343 O 0.88183 0.89852 0.02022 0.0
O344 O 0.85072 0.89064 0.02045 0.0
C345 C 0.9203 0.93209 0.98257 0.0
O346 O 0.91492 0.91995 0.95592 0.0
C347 C 0.80054 0.90073 0.99103 0.0
C348 C 0.78043 0.92089 0.01936 0.0
C349 C 0.78119 0.90591 0.99331 0.0
N350 N 0.81068 0.9125 0.01396 0.0
N351 N 0.79852 0.92414 0.03156 0.0
C352 C 0.80959 0.88643 0.96457 0.0
H353 H 0.82527 0.88932 0.96143 0.0
H354 H 0.80248 0.88692 0.93633 0.0
H355 H 0.80769 0.8717 0.97636 0.0
C356 C 0.86869 0.94796 0.94626 0.0
N357 N 0.86551 0.936 0.97581 0.0
N358 N 0.84712 0.9311 0.97624 0.0
C359 C 0.83814 0.93959 0.94658 0.0
C360 C 0.85155 0.95043 0.92664 0.0
C361 C 0.88717 0.95855 0.93906 0.0
H362 H 0.89413 0.96249 0.9663 0.0
H363 H 0.89705 0.94918 0.92251 0.0
H364 H 0.88459 0.97191 0.92242 0.0
O365 O 0.87293 0.93848 0.06363 0.0
O366 O 0.84204 0.93015 0.06594 0.0
H367 H 0.80824 0.94122 0.9617 0.0
H368 H 0.8128 0.94569 0.91204 0.0
C369 C 0.81723 0.93706 0.93701 0.0
H370 H 0.81451 0.92172 0.93022 0.0
H371 H 0.80268 0.93503 0.05032 0.0
O372 O 0.90865 0.9364 0.00912 0.0
C373 C 0.85666 0.9385 0.08035 0.0
Co374 Co 0.07021 0.37621 0.27939 0.0
Co375 Co 0.07797 0.33156 0.28093 0.0
C376 C 0.11031 0.36041 0.2769 0.0
O377 O 0.09881 0.37479 0.27634 0.0
O378 O 0.10401 0.34316 0.27857 0.0
C379 C 0.06529 0.41551 0.24924 0.0
O380 O 0.07699 0.41066 0.22147 0.0
C381 C 0.09085 0.29453 0.24983 0.0
C382 C 0.07179 0.27408 0.28006 0.0
C383 C 0.08562 0.27519 0.25168 0.0
N384 N 0.0803 0.30435 0.27541 0.0
N385 N 0.06928 0.29198 0.29402 0.0
C386 C 0.10383 0.30401 0.22137 0.0
H387 H 0.10044 0.31962 0.21894 0.0
H388 H 0.10236 0.29704 0.19314 0.0
H389 H 0.11903 0.30247 0.23084 0.0
C390 C 0.04525 0.3645 0.21456 0.0
N391 N 0.05794 0.36044 0.24244 0.0
N392 N 0.06135 0.34172 0.2426 0.0
C393 C 0.05109 0.33337 0.2144 0.0
C394 C 0.04069 0.34757 0.19565 0.0
C395 C 0.03641 0.38391 0.20769 0.0
H396 H 0.03324 0.39108 0.23511 0.0
H397 H 0.04663 0.39293 0.19122 0.0
H398 H 0.02279 0.38267 0.19129 0.0
O399 O 0.06187 0.36802 0.3302 0.0
O400 O 0.06691 0.33639 0.33198 0.0
H401 H 0.04885 0.30357 0.23008 0.0
H402 H 0.04157 0.30839 0.18187 0.0
C403 C 0.05192 0.31236 0.20449 0.0
H404 H 0.06655 0.30883 0.19408 0.0
H405 H 0.05932 0.29592 0.31485 0.0
O406 O 0.06142 0.40334 0.27514 0.0
C407 C 0.06119 0.35195 0.34762 0.0
Co408 Co 0.37523 0.57124 0.00765 0.0
Co409 Co 0.33107 0.57961 0.017 0.0
C410 C 0.36075 0.6114 0.0167 0.0
O411 O 0.37483 0.59977 0.01226 0.0
O412 O 0.3434 0.60535 0.01859 0.0
C413 C 0.41449 0.56196 0.02144 0.0
O414 O 0.41071 0.56996 0.05446 0.0
C415 C 0.29375 0.5941 0.99164 0.0
C416 C 0.2736 0.57542 0.02356 0.0
C417 C 0.27435 0.58948 0.99556 0.0
N418 N 0.30392 0.583 0.01568 0.0
N419 N 0.29179 0.57223 0.03538 0.0
C420 C 0.30281 0.60696 0.96248 0.0
H421 H 0.3183 0.60335 0.95876 0.0
H422 H 0.2952 0.60567 0.93487 0.0
H423 H 0.30169 0.62217 0.97214 0.0
C424 C 0.36119 0.55174 0.93857 0.0
N425 N 0.35802 0.56236 0.96993 0.0
N426 N 0.33935 0.5651 0.97412 0.0
C427 C 0.32997 0.55598 0.94567 0.0
C428 C 0.34354 0.54737 0.92212 0.0
C429 C 0.38069 0.54467 0.92659 0.0
H430 H 0.39039 0.5572 0.92193 0.0
H431 H 0.38003 0.53579 0.90042 0.0
H432 H 0.38694 0.53578 0.94973 0.0
O433 O 0.36844 0.55948 0.05696 0.0
O434 O 0.33721 0.56555 0.06416 0.0
H435 H 0.30145 0.55266 0.96845 0.0
H436 H 0.30375 0.54479 0.91984 0.0
C437 C 0.30849 0.55569 0.94085 0.0
H438 H 0.30363 0.56997 0.93052 0.0
H439 H 0.29601 0.56191 0.05531 0.0
O440 O 0.40153 0.56191 -0.00405 0.0
C441 C 0.35293 0.55828 0.07616 0.0
Co442 Co 0.4273 0.87627 0.27141 0.0
Co443 Co 0.41868 0.83192 0.26786 0.0
C444 C 0.38732 0.86289 0.27341 0.0
O445 O 0.39905 0.87701 0.27148 0.0
O446 O 0.39326 0.84545 0.27295 0.0
C447 C 0.43305 0.91819 0.25809 0.0
O448 O 0.41676 0.91865 0.239 0.0
C449 C 0.40424 0.79874 0.22546 0.0
C450 C 0.41486 0.77419 0.25967 0.0
C451 C 0.40489 0.77873 0.22672 0.0
N452 N 0.41367 0.80566 0.25589 0.0
N453 N 0.41988 0.79093 0.27638 0.0
C454 C 0.39415 0.81119 0.19693 0.0
H455 H 0.3907 0.8255 0.20934 0.0
H456 H 0.40369 0.81357 0.1721 0.0
H457 H 0.38072 0.80408 0.18686 0.0
C458 C 0.44768 0.86704 0.19991 0.0
N459 N 0.43673 0.8619 0.22979 0.0
N460 N 0.43446 0.84306 0.22976 0.0
C461 C 0.44476 0.83546 0.20089 0.0
C462 C 0.45328 0.85044 0.18071 0.0
C463 C 0.45176 0.88755 0.1892 0.0
H464 H 0.43851 0.89629 0.19298 0.0
H465 H 0.45649 0.88884 0.15923 0.0
H466 H 0.46313 0.89343 0.20813 0.0
O467 O 0.43612 0.86473 0.31992 0.0
O468 O 0.43221 0.83295 0.31681 0.0
H469 H 0.46296 0.81188 0.18291 0.0
H470 H 0.43754 0.80806 0.17655 0.0
C471 C 0.44853 0.81432 0.19579 0.0
H472 H 0.44789 0.80677 0.22349 0.0
H473 H 0.42776 0.79232 0.30149 0.0
O474 O 0.43897 0.90238 0.27215 0.0
C475 C 0.43778 0.84797 0.33439 0.0
Co476 Co 0.11767 0.92916 0.51845 0.0
Co477 Co 0.16182 0.91973 0.51157 0.0
C478 C 0.13298 0.88852 0.52374 0.0
O479 O 0.11907 0.90059 0.52391 0.0
O480 O 0.15035 0.89397 0.51883 0.0
C481 C 0.07775 0.93302 0.49226 0.0
O482 O 0.0824 0.92135 0.4643 0.0
C483 C 0.19842 0.90531 0.4794 0.0
C484 C 0.2185 0.92789 0.49961 0.0
C485 C 0.21739 0.91166 0.4767 0.0
N486 N 0.18875 0.91755 0.50215 0.0
N487 N 0.20096 0.9307 0.51486 0.0
C488 C 0.18904 0.88935 0.45743 0.0
H489 H 0.17315 0.89135 0.45661 0.0
H490 H 0.19484 0.88877 0.42807 0.0
H491 H 0.19226 0.87539 0.4715 0.0
C492 C 0.12623 0.95023 0.44672 0.0
N493 N 0.13127 0.93823 0.47519 0.0
N494 N 0.14962 0.93357 0.4714 0.0
C495 C 0.15661 0.94199 0.43969 0.0
C496 C 0.14202 0.95279 0.42312 0.0
C497 C 0.10762 0.96119 0.44481 0.0
H498 H 0.10228 0.9644 0.47378 0.0
H499 H 0.09674 0.95244 0.42942 0.0
H500 H 0.10947 0.97501 0.42926 0.0
O501 O 0.12857 0.94157 0.56372 0.0
O502 O 0.15974 0.93452 0.55959 0.0
H503 H 0.18713 0.94576 0.4457 0.0
H504 H 0.17889 0.94633 0.39703 0.0
C505 C 0.17676 0.93948 0.42514 0.0
H506 H 0.17985 0.92392 0.42198 0.0
H507 H 0.19706 0.94221 0.53238 0.0
O508 O 0.0903 0.93738 0.51711 0.0
C509 C 0.14567 0.94252 0.57667 0.0
Co510 Co 0.07021 0.61858 0.75579 0.0
Co511 Co 0.07941 0.66277 0.76258 0.0
C512 C 0.11019 0.63151 0.76715 0.0
O513 O 0.09838 0.6177 0.76169 0.0
O514 O 0.10452 0.64902 0.76795 0.0
C515 C 0.05734 0.58082 0.77427 0.0
O516 O 0.06446 0.58546 0.80763 0.0
C517 C 0.09428 0.69773 0.72774 0.0
C518 C 0.08305 0.72066 0.76537 0.0
C519 C 0.0933 0.7176 0.73208 0.0
N520 N 0.08471 0.68947 0.75664 0.0
N521 N 0.0782 0.70322 0.77929 0.0
C522 C 0.10462 0.68657 0.69751 0.0
H523 H 0.10899 0.6722 0.70838 0.0
H524 H 0.09486 0.68424 0.673 0.0
H525 H 0.11752 0.69461 0.68749 0.0
C526 C 0.05196 0.63164 0.68533 0.0
N527 N 0.06275 0.63517 0.71623 0.0
N528 N 0.06488 0.65391 0.72039 0.0
C529 C 0.05471 0.663 0.69303 0.0
C530 C 0.04631 0.64916 0.66977 0.0
C531 C 0.04713 0.61179 0.67141 0.0
H532 H 0.05959 0.602 0.67596 0.0
H533 H 0.04341 0.61192 0.64076 0.0
H534 H 0.03466 0.60614 0.68775 0.0
O535 O 0.05857 0.6275 0.80406 0.0
O536 O 0.06453 0.65888 0.80953 0.0
H537 H 0.03599 0.68709 0.68054 0.0
H538 H 0.06129 0.69173 0.67472 0.0
C539 C 0.05051 0.68422 0.69266 0.0
H540 H 0.05112 0.69019 0.72182 0.0
H541 H 0.07005 0.70071 0.80373 0.0
O542 O 0.05923 0.59258 0.74684 0.0
C543 C 0.05716 0.64334 0.82223 0.0
C544 C 0.94721 0.95069 0.01201 0.0
C545 C 0.93856 0.94295 0.97931 0.0
C546 C 0.96338 0.96261 0.00907 0.0
C547 C 0.98586 0.99761 0.94746 0.0
H548 H 0.03106 0.98978 0.01049 0.0
C549 C 0.05227 0.049 0.9434 0.0
C550 C 0.06217 0.05195 0.97772 0.0
C551 C 0.03738 0.03535 0.9412 0.0
C552 C 0.01845 0.99239 0.99307 0.0
H553 H 0.94006 0.94148 0.9179 0.0
H554 H 0.96825 0.96282 0.91272 0.0
H555 H 0.00528 0.96589 0.01082 0.0
H556 H 0.06365 0.04375 0.03702 0.0
H557 H 0.03725 0.02075 0.03376 0.0
H558 H -0.00146 0.0245 0.9309 0.0
C559 C 0.96256 0.9594 0.94058 0.0
C560 C 0.00378 0.97857 0.99306 0.0
C561 C 0.94658 0.94711 0.94358 0.0
C562 C 0.0564 0.04163 0.01008 0.0
C563 C 0.04137 0.02827 0.00806 0.0
C564 C 0.00043 0.01162 0.94789 0.0
C565 C 0.97101 0.96734 0.97333 0.0
C566 C 0.98726 0.98115 0.9706 0.0
C567 C 0.03195 0.02458 0.97342 0.0
C568 C 0.0168 0.00932 0.97116 0.0
H569 H 0.9413 0.94774 0.0399 0.0
H570 H 0.96955 0.96866 0.03472 0.0
H571 H 0.97315 -1e-05 0.93014 0.0
H572 H 0.05655 0.05664 0.91792 0.0
H573 H 0.03057 0.03283 0.91397 0.0
C574 C 0.95078 0.54823 0.27494 0.0
C575 C 0.94253 0.5553 0.24126 0.0
C576 C 0.96316 0.53233 0.27413 0.0
C577 C 0.99779 0.50816 0.21313 0.0
H578 H 0.99369 0.46632 0.28575 0.0
C579 C 0.04922 0.44186 0.21209 0.0
C580 C 0.05369 0.43338 0.24723 0.0
C581 C 0.03575 0.45691 0.20998 0.0
C582 C 0.99526 0.47803 0.26564 0.0
H583 H 0.94049 0.55109 0.18038 0.0
H584 H 0.96245 0.52336 0.17893 0.0
H585 H 0.96905 0.49138 0.28443 0.0
H586 H 0.04854 0.43468 0.30786 0.0
H587 H 0.02583 0.4614 0.30449 0.0
H588 H 0.02432 0.49524 0.1951 0.0
C589 C 0.95919 0.53012 0.20592 0.0
C590 C 0.98103 0.49229 0.26473 0.0
C591 C 0.94651 0.54585 0.20683 0.0
C592 C 0.04524 0.44085 0.28034 0.0
C593 C 0.03204 0.45603 0.27831 0.0
C594 C 0.0122 0.49401 0.21434 0.0
C595 C 0.96779 0.52336 0.23954 0.0
C596 C 0.98221 0.50756 0.23867 0.0
C597 C 0.02668 0.46391 0.24303 0.0
C598 C 0.01122 0.47884 0.24088 0.0
H599 H 0.94798 0.55525 0.30188 0.0
H600 H 0.96968 0.5275 0.30042 0.0
H601 H -0.00086 0.51992 0.19302 0.0
H602 H 0.05537 0.43625 0.18605 0.0
H603 H 0.03191 0.46249 0.18228 0.0
C604 C 0.55016 0.54876 0.54822 0.0
C605 C 0.56426 0.54948 0.51959 0.0
C606 C 0.53452 0.53611 0.54526 0.0
C607 C 0.50731 0.50515 0.4778 0.0
H608 H 0.49253 0.47821 0.56986 0.0
C609 C 0.45151 0.44268 0.47899 0.0
C610 C 0.43723 0.44411 0.50721 0.0
C611 C 0.46771 0.45477 0.47992 0.0
C612 C 0.49643 0.48569 0.54396 0.0
H613 H 0.57258 0.53797 0.46464 0.0
H614 H 0.54549 0.5157 0.45978 0.0
H615 H 0.51872 0.50163 0.57179 0.0
H616 H 0.42901 0.45893 0.55908 0.0
H617 H 0.45721 0.47981 0.56076 0.0
H618 H 0.48497 0.48903 0.45003 0.0
C619 C 0.54639 0.52505 0.48437 0.0
C620 C 0.51137 0.4992 0.54507 0.0
C621 C 0.56198 0.53779 0.48724 0.0
C622 C 0.43974 0.45745 0.53688 0.0
C623 C 0.45596 0.46937 0.53797 0.0
C624 C 0.49239 0.49155 0.47666 0.0
C625 C 0.53267 0.5238 0.5137 0.0
C626 C 0.51688 0.50925 0.51211 0.0
C627 C 0.47002 0.46834 0.50931 0.0
C628 C 0.48667 0.48181 0.50982 0.0
H629 H 0.5514 0.55767 0.57338 0.0
H630 H 0.52398 0.53584 0.56797 0.0
H631 H 0.51106 0.51275 0.45196 0.0
H632 H 0.44995 0.43259 0.4557 0.0
H633 H 0.47841 0.45355 0.45762 0.0
C634 C 0.53668 0.93643 0.74875 0.0
C635 C 0.54809 0.93407 0.78144 0.0
C636 C 0.52357 0.95171 0.74604 0.0
C637 C 0.49678 0.98639 0.80671 0.0
H638 H 0.48572 0.01148 0.71069 0.0
C639 C 0.45356 0.05721 0.79416 0.0
C640 C 0.43953 0.05844 0.76542 0.0
C641 C 0.46592 0.04134 0.79623 0.0
C642 C 0.48852 0.00444 0.7376 0.0
H643 H 0.55536 0.94647 0.83613 0.0
H644 H 0.533 0.97349 0.8309 0.0
H645 H 0.5102 0.98617 0.71349 0.0
H646 H 0.42728 0.04386 0.71656 0.0
H647 H 0.44918 0.01608 0.71994 0.0
H648 H 0.47542 0.00508 0.83089 0.0
C649 C 0.5337 0.96319 0.80781 0.0
C650 C 0.50254 0.98993 0.73926 0.0
C651 C 0.54667 0.94778 0.81069 0.0
C652 C 0.43789 0.04326 0.73912 0.0
C653 C 0.45049 0.02746 0.74088 0.0
C654 C 0.48293 0.00103 0.8051 0.0
C655 C 0.5217 0.96514 0.77578 0.0
C656 C 0.5069 0.98074 0.77388 0.0
C657 C 0.46471 0.02644 0.76934 0.0
C658 C 0.47869 0.01023 0.77057 0.0
H659 H 0.53737 0.92612 0.72569 0.0
H660 H 0.51447 0.95257 0.72111 0.0
H661 H 0.49938 0.97937 0.8337 0.0
H662 H 0.45517 0.06866 0.81489 0.0
H663 H 0.47682 0.04102 0.81828 0.0
C664 C 0.05056 0.94858 0.45679 0.0
C665 C 0.05953 0.94405 0.49142 0.0
C666 C 0.03514 0.96164 0.45573 0.0
C667 C 0.01341 0.00093 0.5139 0.0
H668 H 0.97142 0.99716 0.44147 0.0
C669 C 0.94217 0.04349 0.52597 0.0
C670 C 0.93548 0.05281 0.49308 0.0
C671 C 0.95813 0.03123 0.52435 0.0
C672 C 0.9832 -0.00154 0.46155 0.0
H673 H 0.05873 0.9486 0.55225 0.0
H674 H 0.0313 0.97051 0.55076 0.0
H675 H 0.99661 0.97245 0.44203 0.0
H676 H 0.94027 0.05675 0.43275 0.0
H677 H 0.9681 0.03487 0.42979 0.0
H678 H -0.00048 0.02655 0.53426 0.0
C679 C 0.03658 0.96472 0.52415 0.0
C680 C 0.99765 0.98434 0.4619 0.0
C681 C 0.05217 0.95197 0.52511 0.0
C682 C 0.94526 0.04989 0.4586 0.0
C683 C 0.96103 0.03728 0.45682 0.0
C684 C -0.00117 0.01483 0.51391 0.0
C685 C 0.02822 0.9702 0.48936 0.0
C686 C 0.01288 0.9853 0.48831 0.0
C687 C 0.9675 0.02775 0.48967 0.0
C688 C 0.98355 0.01368 0.4879 0.0
H689 H 0.05609 0.94283 0.43032 0.0
H690 H 0.02921 0.96559 0.42837 0.0
H691 H 0.02516 0.00252 0.53394 0.0
H692 H 0.93487 0.04547 0.55291 0.0
H693 H 0.96277 0.02396 0.55002 0.0
C694 C 0.9499 0.44212 0.79349 0.0
C695 C 0.93904 0.43715 0.76123 0.0
C696 C 0.96131 0.4587 0.7937 0.0
C697 C 0.98749 0.49102 0.72961 0.0
H698 H 0.99195 0.52308 0.81947 0.0
C699 C 0.03504 0.55995 0.73597 0.0
C700 C 0.04502 0.56349 0.77006 0.0
C701 C 0.02178 0.54478 0.73342 0.0
C702 C 0.99103 0.51414 0.79429 0.0
H703 H 0.93123 0.44598 0.70419 0.0
H704 H 0.95125 0.47512 0.70459 0.0
H705 H 0.96822 0.49713 0.81792 0.0
H706 H 0.0495 0.55333 0.82766 0.0
H707 H 0.02668 0.5267 0.82298 0.0
H708 H 0.01052 0.50787 0.7062 0.0
C709 C 0.95097 0.46604 0.72963 0.0
C710 C 0.97737 0.49933 0.79336 0.0
C711 C 0.93939 0.44946 0.72952 0.0
C712 C 0.04198 0.55109 0.80105 0.0
C713 C 0.02876 0.53592 0.79848 0.0
C714 C 0.0012 0.50583 0.73057 0.0
C715 C 0.96223 0.47069 0.76158 0.0
C716 C 0.9756 0.48745 0.76121 0.0
C717 C 0.01824 0.5328 0.76488 0.0
C718 C 0.0033 0.51741 0.76313 0.0
H719 H 0.94994 0.43295 0.81841 0.0
H720 H 0.96996 0.46176 0.81861 0.0
H721 H 0.98663 0.48195 0.70461 0.0
H722 H 0.03703 0.56924 0.71154 0.0
H723 H 0.01385 0.54285 0.70718 0.0
C724 C 0.54559 0.44417 0.98097 0.0
C725 C 0.5595 0.44548 0.00989 0.0
C726 C 0.52983 0.45683 0.98035 0.0
C727 C 0.51491 0.50461 0.01742 0.0
H728 H 0.46349 0.48816 0.98841 0.0
C729 C 0.44672 0.55044 0.04432 0.0
C730 C 0.43249 0.5508 0.01589 0.0
C731 C 0.46273 0.5383 0.04097 0.0
C732 C 0.47783 0.49302 -0.0039 0.0
H733 H 0.56731 0.46045 0.06182 0.0
H734 H 0.53972 0.48208 0.06124 0.0
H735 H 0.48988 0.4648 0.98858 0.0
H736 H 0.4243 0.53917 0.96094 0.0
H737 H 0.45227 0.51797 0.95519 0.0
H738 H 0.50278 0.53273 0.02558 0.0
C739 C 0.5412 0.47171 0.03841 0.0
C740 C 0.49295 0.47963 -0.0038 0.0
C741 C 0.55695 0.45918 0.03891 0.0
C742 C 0.43495 0.53921 0.98344 0.0
C743 C 0.4509 0.52696 0.98022 0.0
C744 C 0.49979 0.51794 0.0175 0.0
C745 C 0.52766 0.47097 0.00874 0.0
C746 C 0.51163 0.48523 0.00725 0.0
C747 C 0.46481 0.52617 0.00921 0.0
C748 C 0.48107 0.51226 0.00714 0.0
H749 H 0.54722 0.43382 0.95812 0.0
H750 H 0.51971 0.45594 0.95697 0.0
H751 H 0.52921 0.50952 0.02524 0.0
H752 H 0.44526 0.55918 0.06967 0.0
H753 H 0.47315 0.53791 0.0639 0.0
C754 C 0.44357 0.95103 0.23599 0.0
C755 C 0.44536 0.93554 0.2615 0.0
C756 C 0.45628 0.96673 0.23804 0.0
C757 C 0.48871 0.99252 0.30279 0.0
H758 H 0.51576 0.00859 0.21173 0.0
C759 C 0.55088 0.0475 0.31038 0.0
C760 C 0.55192 0.06143 0.28146 0.0
C761 C 0.5385 0.03165 0.30693 0.0
C762 C 0.50816 0.00449 0.23736 0.0
H763 H 0.46144 0.92458 0.3098 0.0
H764 H 0.48328 0.95208 0.31376 0.0
H765 H 0.49166 0.98295 0.20803 0.0
H766 H 0.54123 0.06923 0.22562 0.0
H767 H 0.51928 0.04207 0.22011 0.0
H768 H 0.50474 0.01423 0.33213 0.0
C769 C 0.47218 0.95205 0.29207 0.0
C770 C 0.49437 0.98979 0.23518 0.0
C771 C 0.45973 0.93628 0.28966 0.0
C772 C 0.5408 0.0588 0.24847 0.0
C773 C 0.52825 0.0431 0.24521 0.0
C774 C 0.5023 0.00737 0.30492 0.0
C775 C 0.47073 0.96733 0.26606 0.0
C776 C 0.48461 0.98359 0.26792 0.0
C777 C 0.52669 0.02947 0.27466 0.0
C778 C 0.51232 0.01349 0.27229 0.0
H779 H 0.43269 0.95081 0.21391 0.0
H780 H 0.4548 0.9784 0.21779 0.0
H781 H 0.48124 0.98813 0.32841 0.0
H782 H 0.55937 0.04901 0.33604 0.0
H783 H 0.53805 0.02121 0.3298 0.0
C784 C 0.12888 0.96309 0.36059 0.0
C785 C 0.14304 0.96493 0.38879 0.0
C786 C 0.12966 0.97452 0.32805 0.0
C787 C 0.16279 0.00152 0.26771 0.0
H788 H 0.1161 0.02624 0.2313 0.0
C789 C 0.16137 0.0513 0.13531 0.0
C790 C 0.14531 0.04929 0.11122 0.0
C791 C 0.16181 0.04191 0.17046 0.0
C792 C 0.12923 0.01928 0.24087 0.0
H793 H 0.16875 0.98041 0.40604 0.0
H794 H 0.17041 0.00019 0.34845 0.0
H795 H 0.11539 0.00812 0.29055 0.0
H796 H 0.11742 0.03536 0.10459 0.0
H797 H 0.11841 0.01874 0.16511 0.0
H798 H 0.17653 0.01225 0.21751 0.0
C799 C 0.15882 0.9898 0.35143 0.0
C800 C 0.12881 0.00897 0.27483 0.0
C801 C 0.15791 0.97848 0.3842 0.0
C802 C 0.12992 0.03742 0.12263 0.0
C803 C 0.13042 0.02797 0.15749 0.0
C804 C 0.16318 0.01173 0.2335 0.0
C805 C 0.14467 0.98792 0.32311 0.0
C806 C 0.14552 -0.0002 0.28831 0.0
C807 C 0.14625 0.03027 0.18202 0.0
C808 C 0.14632 0.02048 0.21946 0.0
H809 H 0.11731 0.95267 0.36355 0.0
H810 H 0.11868 0.97267 0.30644 0.0
H811 H 0.17584 0.99446 0.27744 0.0
H812 H 0.17344 0.06038 0.12733 0.0
H813 H 0.17416 0.04406 0.18884 0.0
C814 C 0.03726 0.66556 0.60908 0.0
C815 C 0.03287 0.65224 0.63786 0.0
C816 C 0.02538 0.66706 0.57711 0.0
C817 C 0.99625 0.63661 0.51895 0.0
H818 H 0.97259 0.68268 0.47717 0.0
C819 C 0.94599 0.63089 0.39151 0.0
C820 C 0.94696 0.64528 0.36358 0.0
C821 C 0.95516 0.63343 0.42632 0.0
C822 C 0.97932 0.66974 0.48819 0.0
H823 H 0.01191 0.6313 0.65767 0.0
H824 H 0.9916 0.63335 0.60114 0.0
H825 H 0.99131 0.68478 0.53611 0.0
H826 H 0.95783 0.67381 0.35019 0.0
H827 H 0.97474 0.67795 0.41058 0.0
H828 H 0.98525 0.62156 0.47091 0.0
C829 C 0.00424 0.64251 0.6032 0.0
C830 C 0.98992 0.67097 0.52195 0.0
C831 C 0.01593 0.64122 0.63527 0.0
C832 C 0.95688 0.6625 0.37137 0.0
C833 C 0.96646 0.66489 0.40602 0.0
C834 C 0.98603 0.63543 0.48505 0.0
C835 C 0.00912 0.65511 0.57355 0.0
C836 C 0.99823 0.65433 0.5377 0.0
C837 C 0.96595 0.65023 0.43368 0.0
C838 C 0.97719 0.6519 0.46945 0.0
H839 H 0.05025 0.67423 0.61058 0.0
H840 H 0.0294 0.67682 0.55441 0.0
H841 H 0.00287 0.62366 0.53033 0.0
H842 H 0.93812 0.61761 0.38647 0.0
H843 H 0.95391 0.62209 0.44734 0.0
C844 C 0.32737 0.44634 0.63613 0.0
C845 C 0.34367 0.45068 0.61391 0.0
C846 C 0.3237 0.4567 0.6695 0.0
C847 C 0.33191 0.50298 0.71464 0.0
H848 H 0.33276 0.47612 0.81122 0.0
C849 C 0.34891 0.54252 0.85304 0.0
C850 C 0.34015 0.53647 0.88683 0.0
C851 C 0.34617 0.53212 0.81959 0.0
C852 C 0.33204 0.48385 0.78454 0.0
H853 H 0.3686 0.46946 0.60854 0.0
H854 H 0.36188 0.48777 0.66611 0.0
H855 H 0.33287 0.45762 0.75215 0.0
H856 H 0.32182 0.51488 0.91275 0.0
H857 H 0.31631 0.49698 0.85383 0.0
H858 H 0.33108 0.52919 0.7465 0.0
C859 C 0.35211 0.47628 0.65796 0.0
C860 C 0.33214 0.47323 0.75079 0.0
C861 C 0.356 0.46571 0.62522 0.0
C862 C 0.3285 0.51991 0.88676 0.0
C863 C 0.32554 0.50959 0.85315 0.0
C864 C 0.33149 0.51359 0.74827 0.0
C865 C 0.33601 0.47181 0.68042 0.0
C866 C 0.33266 0.48276 0.71568 0.0
C867 C 0.33442 0.51553 0.81917 0.0
C868 C 0.3322 0.50418 0.78364 0.0
H869 H 0.31766 0.43479 0.62804 0.0
H870 H 0.31122 0.45304 0.68658 0.0
H871 H 0.33212 0.51058 0.68774 0.0
H872 H 0.35801 0.55525 0.85261 0.0
H873 H 0.35362 0.53689 0.79424 0.0
C874 C 0.48238 0.86035 0.14343 0.0
C875 C 0.46568 0.84898 0.14669 0.0
C876 C 0.49333 0.85993 0.1102 0.0
C877 C 0.50756 0.83145 0.03004 0.0
H878 H 0.51007 0.87938 0.97337 0.0
C879 C 0.53906 0.83449 0.87858 0.0
C880 C 0.54866 0.85139 0.86731 0.0
C881 C 0.52933 0.8338 0.91328 0.0
C882 C 0.5099 0.86595 0.98908 0.0
H883 H 0.44769 0.82774 0.1185 0.0
H884 H 0.46744 0.82638 0.06087 0.0
H885 H 0.4933 0.8785 0.03411 0.0
H886 H 0.55616 0.8806 0.88374 0.0
H887 H 0.5401 0.87913 0.945 0.0
H888 H 0.52471 0.81894 0.98606 0.0
C889 C 0.4718 0.83579 0.08391 0.0
C890 C 0.50016 0.86547 0.02372 0.0
C891 C 0.4606 0.83652 0.11684 0.0
C892 C 0.54865 0.86746 0.89156 0.0
C893 C 0.53932 0.86663 0.9266 0.0
C894 C 0.51769 0.832 -0.00424 0.0
C895 C 0.48802 0.84775 0.08017 0.0
C896 C 0.49885 0.84821 0.04426 0.0
C897 C 0.52936 0.84986 0.93781 0.0
C898 C 0.51889 0.84925 0.97469 0.0
H899 H 0.48688 0.8697 0.16644 0.0
H900 H 0.50591 0.86914 0.10786 0.0
H901 H 0.50674 0.81801 0.04571 0.0
H902 H 0.53875 0.82193 0.86025 0.0
H903 H 0.52154 0.82076 0.9205 0.0
C904 C 0.82994 0.04833 0.63786 0.0
C905 C 0.84643 0.04551 0.61523 0.0
C906 C 0.82752 0.03782 0.67146 0.0
C907 C 0.84216 0.99301 0.71795 0.0
H908 H 0.83514 0.02027 0.81317 0.0
C909 C 0.86055 0.95778 0.85996 0.0
C910 C 0.84867 0.96145 0.89132 0.0
C911 C 0.85786 0.96787 0.82616 0.0
C912 C 0.83673 0.01239 0.78678 0.0
H913 H 0.87309 0.02925 0.60961 0.0
H914 H 0.86869 0.01083 0.66773 0.0
H915 H 0.83397 0.03811 0.75332 0.0
H916 H 0.82516 0.97888 0.9129 0.0
H917 H 0.82 0.99628 0.85322 0.0
H918 H 0.84504 0.96733 0.751 0.0
C919 C 0.8577 0.02117 0.6596 0.0
C920 C 0.83607 0.02262 0.7526 0.0
C921 C 0.86027 0.03183 0.62649 0.0
C922 C 0.83425 0.97561 0.8887 0.0
C923 C 0.83145 0.98566 0.85474 0.0
C924 C 0.84263 0.98278 0.75198 0.0
C925 C 0.84137 0.0241 0.68243 0.0
C926 C 0.8393 0.01306 0.71803 0.0
C927 C 0.84317 0.98181 0.82302 0.0
C928 C 0.84047 0.99242 0.78685 0.0
H929 H 0.81906 0.05881 0.62988 0.0
H930 H 0.8148 0.04029 0.6887 0.0
H931 H 0.84441 0.98531 0.69153 0.0
H932 H 0.87183 0.94697 0.86152 0.0
H933 H 0.86744 0.96487 0.80258 0.0
C934 C 0.94348 0.33116 0.90415 0.0
C935 C 0.94607 0.3481 0.88272 0.0
C936 C 0.95305 0.32883 0.93885 0.0
C937 C 0.99661 0.34294 0.98756 0.0
H938 H 0.96921 0.33605 0.08264 0.0
C939 C 0.03359 0.35748 0.1294 0.0
C940 C 0.0292 0.34574 0.1606 0.0
C941 C 0.0231 0.35584 0.09583 0.0
C942 C 0.97712 0.33759 0.0563 0.0
H943 H 0.96068 0.37583 0.88073 0.0
H944 H 0.97764 0.3715 0.94068 0.0
H945 H 0.95128 0.33601 0.02273 0.0
H946 H 0.0101 0.32354 0.18206 0.0
H947 H 0.99211 0.32002 0.1226 0.0
H948 H 0.02243 0.34436 0.02043 0.0
C949 C 0.96811 0.36016 0.93079 0.0
C950 C 0.96684 0.33761 0.02212 0.0
C951 C 0.95832 0.36264 0.89662 0.0
C952 C 0.01394 0.33249 0.15798 0.0
C953 C 0.00354 0.33066 0.12415 0.0
C954 C 0.0069 0.34263 0.02152 0.0
C955 C 0.96562 0.34323 0.95205 0.0
C956 C 0.97649 0.34077 0.98767 0.0
C957 C 0.00809 0.34226 0.09259 0.0
C958 C 0.99724 0.3405 0.0564 0.0
H959 H 0.93408 0.31974 0.89415 0.0
H960 H 0.95098 0.31567 0.95494 0.0
H961 H 0.00433 0.34515 0.96116 0.0
H962 H 0.04527 0.36786 0.13089 0.0
H963 H 0.0267 0.36537 0.0725 0.0
C964 C 0.64813 0.54346 0.35587 0.0
C965 C 0.65661 0.53718 0.38976 0.0
C966 C 0.65107 0.53324 0.32228 0.0
C967 C 0.66512 0.48508 0.28675 0.0
H968 H 0.66584 0.51222 0.19042 0.0
C969 C 0.66959 0.44769 0.13856 0.0
C970 C 0.65342 0.45232 0.11621 0.0
C971 C 0.67345 0.45808 0.17179 0.0
C972 C 0.66584 0.5045 0.21718 0.0
H973 H 0.67465 0.51536 0.41575 0.0
H974 H 0.68051 0.49776 0.35662 0.0
H975 H 0.66672 0.53057 0.24952 0.0
H976 H 0.62899 0.47171 0.11031 0.0
H977 H 0.63605 0.49008 0.16766 0.0
H978 H 0.66419 0.459 0.25392 0.0
C979 C 0.67135 0.51042 0.35595 0.0
C980 C 0.66616 0.51496 0.251 0.0
C981 C 0.66819 0.52057 0.38967 0.0
C982 C 0.64148 0.46774 0.12712 0.0
C983 C 0.64558 0.47834 0.15972 0.0
C984 C 0.6651 0.47461 0.25284 0.0
C985 C 0.66275 0.5166 0.32185 0.0
C986 C 0.66515 0.5054 0.28619 0.0
C987 C 0.66149 0.47352 0.18243 0.0
C988 C 0.66486 0.48429 0.21788 0.0
H989 H 0.6391 0.55624 0.35546 0.0
H990 H 0.64384 0.53819 0.29682 0.0
H991 H 0.66416 0.47723 0.31328 0.0
H992 H 0.679 0.43584 0.13077 0.0
H993 H 0.68578 0.45415 0.18906 0.0
C994 C 0.53928 0.15921 0.38435 0.0
C995 C 0.54942 0.14283 0.372 0.0
C996 C 0.5298 0.15913 0.41931 0.0
C997 C 0.51167 0.12552 0.49369 0.0
H998 H 0.50636 0.17295 0.55138 0.0
C999 C 0.48076 0.13033 0.64654 0.0
C1000 C 0.46433 0.14216 0.64893 0.0
C1001 C 0.49215 0.13042 0.61384 0.0
C1002 C 0.5078 0.15964 0.53545 0.0
H1003 H 0.55815 0.11374 0.38684 0.0
H1004 H 0.54244 0.11388 0.44864 0.0
H1005 H 0.52508 0.17297 0.49269 0.0
H1006 H 0.44705 0.16352 0.61945 0.0
H1007 H 0.46755 0.16429 0.56286 0.0
H1008 H 0.49481 0.11218 0.5375 0.0
C1009 C 0.54111 0.12656 0.43086 0.0
C1010 C 0.51836 0.15963 0.50171 0.0
C1011 C 0.55024 0.1265 0.39552 0.0
C1012 C 0.45976 0.15443 0.61849 0.0
C1013 C 0.4714 0.15483 0.58616 0.0
C1014 C 0.50147 0.12547 0.52786 0.0
C1015 C 0.53061 0.14281 0.44309 0.0
C1016 C 0.52022 0.14262 0.48007 0.0
C1017 C 0.48755 0.1427 0.58351 0.0
C1018 C 0.49927 0.14257 0.54867 0.0
H1019 H 0.5383 0.17195 0.36661 0.0
H1020 H 0.52154 0.17176 0.42726 0.0
H1021 H 0.51242 0.11223 0.47758 0.0
H1022 H 0.48482 0.12106 0.66997 0.0
H1023 H 0.50466 0.12105 0.61234 0.0
C1024 C 0.62713 0.46057 0.86558 0.0
C1025 C 0.6413 0.46322 0.89354 0.0
C1026 C 0.62732 0.47178 0.83269 0.0
C1027 C 0.6595 0.49927 0.77143 0.0
H1028 H 0.61244 0.52312 0.73455 0.0
C1029 C 0.65918 0.54969 0.64126 0.0
C1030 C 0.6435 0.54809 0.61614 0.0
C1031 C 0.65891 0.54013 0.67614 0.0
C1032 C 0.62566 0.51636 0.74419 0.0
H1033 H 0.66633 0.47994 0.91011 0.0
H1034 H 0.667 0.49931 0.85192 0.0
H1035 H 0.61188 0.50475 0.79362 0.0
H1036 H 0.61532 0.53506 0.60774 0.0
H1037 H 0.6151 0.51796 0.66799 0.0
H1038 H 0.67321 0.51035 0.72165 0.0
C1039 C 0.65587 0.48846 0.85533 0.0
C1040 C 0.62533 0.50592 0.77807 0.0
C1041 C 0.65553 0.47738 0.88843 0.0
C1042 C 0.62758 0.53669 0.62656 0.0
C1043 C 0.6274 0.52698 0.66125 0.0
C1044 C 0.6598 0.50953 0.73734 0.0
C1045 C 0.64177 0.48573 0.82718 0.0
C1046 C 0.64223 0.49724 0.79189 0.0
C1047 C 0.64304 0.52861 0.68649 0.0
C1048 C 0.64286 0.51813 0.72324 0.0
H1049 H 0.61602 0.4497 0.86906 0.0
H1050 H 0.61638 0.46931 0.81124 0.0
H1051 H 0.67268 0.49251 0.78133 0.0
H1052 H 0.6716 0.55848 0.63416 0.0
H1053 H 0.67106 0.54193 0.69516 0.0
C1054 C 0.51684 0.13578 0.14436 0.0
C1055 C 0.53306 0.14781 0.1476 0.0
C1056 C 0.50505 0.13679 0.11234 0.0
C1057 C 0.48928 0.16747 0.03481 0.0
H1058 H 0.48224 0.11954 0.9796 0.0
C1059 C 0.45559 0.16465 0.88469 0.0
C1060 C 0.44497 0.14815 0.8747 0.0
C1061 C 0.46522 0.16549 0.91951 0.0
C1062 C 0.48368 0.13301 0.99497 0.0
H1063 H 0.54944 0.17068 0.12072 0.0
H1064 H 0.5284 0.17285 0.06494 0.0
H1065 H 0.50074 0.11962 0.03825 0.0
H1066 H 0.43512 0.1201 0.89391 0.0
H1067 H 0.45109 0.12189 0.95522 0.0
H1068 H 0.47185 0.18084 0.99213 0.0
C1069 C 0.52495 0.16258 0.08714 0.0
C1070 C 0.49439 0.13303 0.02844 0.0
C1071 C 0.53693 0.16135 0.11893 0.0
C1072 C 0.44347 0.13287 0.90068 0.0
C1073 C 0.45275 0.13387 0.93573 0.0
C1074 C 0.47825 0.16741 0.00159 0.0
C1075 C 0.50911 0.1501 0.08338 0.0
C1076 C 0.49734 0.15025 0.04851 0.0
C1077 C 0.46412 0.14998 0.94526 0.0
C1078 C 0.47537 0.15017 0.98118 0.0
H1079 H 0.51326 0.12556 0.16654 0.0
H1080 H 0.49277 0.12717 0.11014 0.0
H1081 H 0.49133 0.1809 0.05007 0.0
H1082 H 0.45702 0.1766 0.86506 0.0
H1083 H 0.47401 0.17803 0.92564 0.0
C1084 C 0.8626 0.04023 0.36036 0.0
C1085 C 0.84945 0.0367 0.38977 0.0
C1086 C 0.86165 0.02963 0.32679 0.0
C1087 C 0.84294 0.984 0.287 0.0
H1088 H 0.85464 0.00923 0.19139 0.0
C1089 C 0.83814 0.94666 0.13938 0.0
C1090 C 0.85462 0.94907 0.11653 0.0
C1091 C 0.8361 0.95717 0.17303 0.0
C1092 C 0.85138 0.00202 0.21793 0.0
H1093 H 0.82531 0.01917 0.40801 0.0
H1094 H 0.82309 0.00099 0.34859 0.0
H1095 H 0.85308 0.0283 0.24945 0.0
H1096 H 0.88187 0.96433 0.11108 0.0
H1097 H 0.87814 0.98276 0.16949 0.0
H1098 H 0.84112 0.95772 0.25501 0.0
C1099 C 0.83427 0.01182 0.35152 0.0
C1100 C 0.85057 0.01289 0.25119 0.0
C1101 C 0.83536 0.02235 0.38529 0.0
C1102 C 0.86902 0.96211 0.12806 0.0
C1103 C 0.86685 0.97276 0.16134 0.0
C1104 C 0.84356 0.97315 0.25358 0.0
C1105 C 0.84743 0.01534 0.32189 0.0
C1106 C 0.84671 0.00396 0.28623 0.0
C1107 C 0.85035 0.97045 0.18401 0.0
C1108 C 0.84814 0.98203 0.21892 0.0
H1109 H 0.87367 0.05117 0.36341 0.0
H1110 H 0.87227 0.03243 0.30492 0.0
H1111 H 0.84014 0.97664 0.31356 0.0
H1112 H 0.82681 0.93669 0.13127 0.0
H1113 H 0.82323 0.9552 0.19008 0.0
C1114 C 0.05546 0.33516 0.40978 0.0
C1115 C 0.05326 0.3515 0.38654 0.0
C1116 C 0.04771 0.33493 0.44645 0.0
C1117 C 0.0276 0.36754 0.52076 0.0
H1118 H 0.0016 0.3212 0.55549 0.0
C1119 C 0.96782 0.36718 0.63367 0.0
C1120 C 0.96925 0.35343 0.66277 0.0
C1121 C 0.98055 0.36668 0.60302 0.0
C1122 C 0.00905 0.33414 0.54631 0.0
H1123 H 0.0411 0.38036 0.38342 0.0
H1124 H 0.02714 0.37972 0.44644 0.0
H1125 H 0.01942 0.32063 0.49569 0.0
H1126 H 0.98542 0.32885 0.68365 0.0
H1127 H 0.00731 0.32749 0.62894 0.0
H1128 H 0.01631 0.38125 0.57055 0.0
C1129 C 0.03532 0.36728 0.43704 0.0
C1130 C 0.01931 0.33383 0.51217 0.0
C1131 C 0.04321 0.36758 0.40068 0.0
C1132 C 0.98379 0.33932 0.66104 0.0
C1133 C 0.99633 0.33861 0.63 0.0
C1134 C 0.01712 0.36791 0.55454 0.0
C1135 C 0.03747 0.35098 0.46043 0.0
C1136 C 0.02837 0.35064 0.4986 0.0
C1137 C 0.99478 0.35229 0.60077 0.0
C1138 C 0.00749 0.35132 0.56722 0.0
H1139 H 0.06323 0.32258 0.39973 0.0
H1140 H 0.04981 0.32222 0.46387 0.0
H1141 H 0.03482 0.38062 0.51166 0.0
H1142 H 0.95667 0.37814 0.63438 0.0
H1143 H 0.97898 0.37727 0.58059 0.0
C1144 C 0.33752 0.54942 0.13808 0.0
C1145 C 0.35319 0.54799 0.11287 0.0
C1146 C 0.33776 0.53949 0.17259 0.0
C1147 C 0.35847 0.49714 0.21822 0.0
H1148 H 0.34606 0.52303 0.31277 0.0
C1149 C 0.36901 0.45975 0.36224 0.0
C1150 C 0.35501 0.46293 0.39026 0.0
C1151 C 0.36887 0.47056 0.32885 0.0
C1152 C 0.3493 0.51551 0.28657 0.0
H1153 H 0.38141 0.53506 0.10409 0.0
H1154 H 0.38165 0.51756 0.16415 0.0
H1155 H 0.3453 0.54111 0.25327 0.0
H1156 H 0.33028 0.48019 0.40638 0.0
H1157 H 0.32943 0.49862 0.34727 0.0
H1158 H 0.36206 0.47146 0.25101 0.0
C1159 C 0.36923 0.52638 0.15714 0.0
C1160 C 0.34892 0.52589 0.25258 0.0
C1161 C 0.36911 0.53647 0.12289 0.0
C1162 C 0.34101 0.47728 0.38474 0.0
C1163 C 0.34072 0.48798 0.35115 0.0
C1164 C 0.35864 0.48671 0.25208 0.0
C1165 C 0.35355 0.52778 0.18224 0.0
C1166 C 0.35362 0.5168 0.21818 0.0
C1167 C 0.35461 0.48469 0.32273 0.0
C1168 C 0.35417 0.49579 0.2867 0.0
H1169 H 0.32507 0.55822 0.13121 0.0
H1170 H 0.32545 0.54069 0.19143 0.0
H1171 H 0.36189 0.48975 0.19194 0.0
H1172 H 0.38001 0.4488 0.36611 0.0
H1173 H 0.38002 0.46791 0.30793 0.0
C1174 C 0.45713 0.82952 0.38212 0.0
C1175 C 0.44672 0.84615 0.37213 0.0
C1176 C 0.46694 0.82867 0.41676 0.0
C1177 C 0.48617 0.86131 0.49134 0.0
H1178 H 0.49376 0.81364 0.54718 0.0
C1179 C 0.51889 0.85921 0.64091 0.0
C1180 C 0.53549 0.84771 0.6441 0.0
C1181 C 0.50711 0.85782 0.60894 0.0
C1182 C 0.49173 0.827 0.53169 0.0
H1183 H 0.43733 0.87438 0.39119 0.0
H1184 H 0.45354 0.87256 0.45222 0.0
H1185 H 0.47412 0.81352 0.48942 0.0
H1186 H 0.55241 0.82517 0.61737 0.0
H1187 H 0.53135 0.82231 0.56169 0.0
H1188 H 0.50335 0.87482 0.53428 0.0
C1189 C 0.45496 0.8605 0.43285 0.0
C1190 C 0.4806 0.82696 0.49857 0.0
C1191 C 0.44553 0.86151 0.39797 0.0
C1192 C 0.53965 0.83416 0.61558 0.0
C1193 C 0.52766 0.83252 0.58384 0.0
C1194 C 0.49695 0.86139 0.52471 0.0
C1195 C 0.46621 0.84429 0.44232 0.0
C1196 C 0.4777 0.84414 0.47796 0.0
C1197 C 0.51151 0.8446 0.58003 0.0
C1198 C 0.49985 0.84426 0.54507 0.0
H1199 H 0.4583 0.8175 0.36256 0.0
H1200 H 0.47561 0.81603 0.42286 0.0
H1201 H 0.48476 0.87472 0.47578 0.0
H1202 H 0.51502 0.86935 0.66304 0.0
H1203 H 0.49457 0.86711 0.60671 0.0
C1204 C 0.13591 0.96777 0.62326 0.0
C1205 C 0.14928 0.95373 0.61155 0.0
C1206 C 0.13936 0.97877 0.65567 0.0
C1207 C 0.16226 0.97796 0.74704 0.0
H1208 H 0.15692 0.03366 0.74251 0.0
C1209 C 0.16709 0.02546 0.88161 0.0
C1210 C 0.15355 0.04046 0.88393 0.0
C1211 C 0.16966 0.01543 0.84754 0.0
C1212 C 0.15832 0.01812 0.74434 0.0
H1213 H 0.17664 0.94003 0.62475 0.0
H1214 H 0.18237 0.95904 0.68245 0.0
H1215 H 0.15547 0.01476 0.68415 0.0
H1216 H 0.13188 0.05669 0.85334 0.0
H1217 H 0.13574 0.03883 0.79427 0.0
H1218 H 0.16404 0.98109 0.80733 0.0
C1219 C 0.16938 0.96158 0.66604 0.0
C1220 C 0.15761 0.00735 0.71092 0.0
C1221 C 0.16611 0.95078 0.63312 0.0
C1222 C 0.14251 0.04523 0.85197 0.0
C1223 C 0.14491 0.03513 0.8181 0.0
C1224 C 0.1627 0.9887 0.78061 0.0
C1225 C 0.15608 0.97574 0.67734 0.0
C1226 C 0.15918 0.98718 0.71211 0.0
C1227 C 0.15851 0.02009 0.81543 0.0
C1228 C 0.16029 0.00887 0.77969 0.0
H1229 H 0.12287 0.97045 0.60712 0.0
H1230 H 0.1288 0.98949 0.66412 0.0
H1231 H 0.16338 0.96237 0.74856 0.0
H1232 H 0.17549 0.02133 0.90626 0.0
H1233 H 0.18032 0.00401 0.84642 0.0
C1234 C 0.97696 0.6534 0.13271 0.0
C1235 C 0.96455 0.63768 0.13866 0.0
C1236 C 0.98825 0.65436 0.09994 0.0
C1237 C 0.00919 0.62459 0.02442 0.0
H1238 H 0.00823 0.67177 0.96509 0.0
C1239 C 0.0368 0.627 0.87109 0.0
C1240 C 0.04706 0.64341 0.85914 0.0
C1241 C 0.02763 0.62673 0.9063 0.0
C1242 C 0.00891 0.6586 0.98161 0.0
H1243 H 0.95432 0.61052 0.11581 0.0
H1244 H 0.97428 0.61201 0.05867 0.0
H1245 H 0.99102 0.67036 0.02548 0.0
H1246 H 0.05573 0.67246 0.87479 0.0
H1247 H 0.03995 0.67186 0.9367 0.0
H1248 H 0.02709 0.61279 0.98081 0.0
C1249 C 0.97531 0.62357 0.0793 0.0
C1250 C -0.00097 0.6578 0.01613 0.0
C1251 C 0.96391 0.62271 0.11189 0.0
C1252 C 0.04786 0.65962 0.88311 0.0
C1253 C 0.03877 0.6593 0.91851 0.0
C1254 C 0.01918 0.62543 0.99009 0.0
C1255 C 0.98746 0.63948 0.07289 0.0
C1256 C -0.00111 0.64071 0.03757 0.0
C1257 C 0.02862 0.64282 0.93053 0.0
C1258 C 0.01892 0.64235 0.96803 0.0
H1259 H 0.97795 0.66493 0.15341 0.0
H1260 H 0.99769 0.66666 0.09585 0.0
H1261 H 0.00953 0.61134 0.04074 0.0
H1262 H 0.03578 0.6143 0.85321 0.0
H1263 H 0.0196 0.61396 0.91436 0.0
C1264 C 0.07555 0.247 0.21269 0.0
C1265 C 0.09024 0.25958 0.22457 0.0
C1266 C 0.07938 0.2325 0.18628 0.0
C1267 C 0.11449 0.21711 0.11294 0.0
H1268 H 0.09076 0.16707 0.12902 0.0
C1269 C 0.13886 0.14619 0.04012 0.0
C1270 C 0.12462 0.13238 0.03149 0.0
C1271 C 0.13389 0.16349 0.05805 0.0
C1272 C 0.09724 0.18105 0.1237 0.0
H1273 H 0.12063 0.26647 0.21919 0.0
H1274 H 0.12745 0.2409 0.17321 0.0
H1275 H 0.08419 0.1932 0.17314 0.0
H1276 H 0.09379 0.12672 0.03183 0.0
H1277 H 0.08516 0.15697 0.0628 0.0
H1278 H 0.12795 0.20461 0.06389 0.0
C1279 C 0.11282 0.2426 0.18356 0.0
C1280 C 0.0935 0.19604 0.14907 0.0
C1281 C 0.10895 0.25722 0.20991 0.0
C1282 C 0.10515 0.13693 0.03842 0.0
C1283 C 0.1002 0.1542 0.0564 0.0
C1284 C 0.11832 0.20203 0.08758 0.0
C1285 C 0.09806 0.23007 0.17144 0.0
C1286 C 0.10209 0.21425 0.14407 0.0
C1287 C 0.11459 0.16732 0.06769 0.0
C1288 C 0.10973 0.18383 0.09276 0.0
H1289 H 0.06095 0.24859 0.22327 0.0
H1290 H 0.0676 0.22332 0.17715 0.0
H1291 H 0.12114 0.23104 0.108 0.0
H1292 H 0.15399 0.14323 0.03493 0.0
H1293 H 0.1453 0.17329 0.06643 0.0
C1294 C 0.85325 0.6398 0.28728 0.0
C1295 C 0.866 0.62456 0.27895 0.0
C1296 C 0.83564 0.63614 0.30533 0.0
C1297 C 0.81671 0.6015 0.37286 0.0
H1298 H 0.76717 0.62615 0.3562 0.0
C1299 C 0.75055 0.58069 0.46093 0.0
C1300 C 0.73772 0.59529 0.47211 0.0
C1301 C 0.76522 0.58454 0.43498 0.0
C1302 C 0.78099 0.61935 0.36144 0.0
H1303 H 0.86933 0.59338 0.27938 0.0
H1304 H 0.83864 0.58708 0.31063 0.0
H1305 H 0.79374 0.63198 0.31171 0.0
H1306 H 0.73046 0.62554 0.46585 0.0
H1307 H 0.75647 0.63247 0.42078 0.0
H1308 H 0.80443 0.58932 0.42293 0.0
C1309 C 0.84246 0.60186 0.30395 0.0
C1310 C 0.79612 0.62259 0.33586 0.0
C1311 C 0.86001 0.60549 0.28589 0.0
C1312 C 0.73999 0.61395 0.45722 0.0
C1313 C 0.75483 0.61789 0.43137 0.0
C1314 C 0.80172 0.59841 0.39848 0.0
C1315 C 0.83052 0.6172 0.31532 0.0
C1316 C 0.81407 0.61355 0.34122 0.0
C1317 C 0.76762 0.60319 0.41996 0.0
C1318 C 0.78362 0.60715 0.39298 0.0
H1319 H 0.85735 0.65466 0.28211 0.0
H1320 H 0.82668 0.64823 0.31372 0.0
H1321 H 0.83055 0.59475 0.37829 0.0
H1322 H 0.74899 0.5661 0.47161 0.0
H1323 H 0.77454 0.57278 0.42631 0.0
C1324 C 0.35427 0.35252 0.53205 0.0
C1325 C 0.36896 0.36655 0.53207 0.0
C1326 C 0.35806 0.33373 0.54443 0.0
C1327 C 0.39759 0.29967 0.56974 0.0
H1328 H 0.36064 0.28065 0.64357 0.0
C1329 C 0.4178 0.24632 0.68773 0.0
C1330 C 0.40459 0.23184 0.69788 0.0
C1331 C 0.41282 0.26037 0.66113 0.0
C1332 C 0.37094 0.28554 0.6225 0.0
H1333 H 0.39941 0.37148 0.54297 0.0
H1334 H 0.40591 0.33889 0.56499 0.0
H1335 H 0.35313 0.30943 0.60678 0.0
H1336 H 0.37559 0.221 0.68879 0.0
H1337 H 0.3669 0.24552 0.6419 0.0
H1338 H 0.4157 0.27614 0.58665 0.0
C1339 C 0.3915 0.34231 0.55512 0.0
C1340 C 0.36662 0.30203 0.60134 0.0
C1341 C 0.38774 0.36108 0.54271 0.0
C1342 C 0.38624 0.2317 0.68089 0.0
C1343 C 0.3812 0.24586 0.65436 0.0
C1344 C 0.40192 0.28321 0.59099 0.0
C1345 C 0.3766 0.32856 0.55707 0.0
C1346 C 0.3801 0.30956 0.57538 0.0
C1347 C 0.39443 0.26038 0.64432 0.0
C1348 C 0.38883 0.27625 0.61826 0.0
H1349 H 0.33968 0.35619 0.52366 0.0
H1350 H 0.34634 0.32337 0.545 0.0
H1351 H 0.40813 0.30492 0.54949 0.0
H1352 H 0.43204 0.2468 0.70043 0.0
H1353 H 0.42322 0.27156 0.65452 0.0
C1354 C 0.63886 0.88715 0.7931 0.0
C1355 C 0.63237 0.8681 0.78801 0.0
C1356 C 0.65665 0.89077 0.81026 0.0
C1357 C 0.70302 0.86955 0.84087 0.0
H1358 H 0.69796 0.90624 0.92348 0.0
C1359 C 0.76223 0.88136 0.95595 0.0
C1360 C 0.76521 0.90051 0.96765 0.0
C1361 C 0.74686 0.87679 0.93168 0.0
C1362 C 0.69975 0.89616 0.90022 0.0
H1363 H 0.64025 0.83789 0.79405 0.0
H1364 H 0.67133 0.84431 0.82413 0.0
H1365 H 0.67053 0.89996 0.88243 0.0
H1366 H 0.75482 0.92993 0.96261 0.0
H1367 H 0.7284 0.9221 0.92011 0.0
H1368 H 0.73238 0.86585 0.85885 0.0
C1369 C 0.66259 0.8564 0.81491 0.0
C1370 C 0.68401 0.89258 0.87666 0.0
C1371 C 0.64474 0.85275 0.7978 0.0
C1372 C 0.75271 0.91499 0.95449 0.0
C1373 C 0.73754 0.91048 0.93016 0.0
C1374 C 0.7189 0.87325 0.86441 0.0
C1375 C 0.66836 0.87544 0.82259 0.0
C1376 C 0.68548 0.87934 0.84661 0.0
C1377 C 0.73427 0.89132 0.91875 0.0
C1378 C 0.71745 0.88672 0.8942 0.0
H1379 H 0.62982 0.89932 0.78554 0.0
H1380 H 0.66094 0.90561 0.81517 0.0
H1381 H 0.70452 0.85925 0.81791 0.0
H1382 H 0.77149 0.86988 0.96613 0.0
H1383 H 0.7446 0.86185 0.92375 0.0
C1384 C 0.91923 0.2497 0.69895 0.0
C1385 C 0.90542 0.26289 0.71236 0.0
C1386 C 0.91409 0.23538 0.67303 0.0
C1387 C 0.87242 0.20751 0.63967 0.0
H1388 H 0.90745 0.19255 0.55887 0.0
C1389 C 0.85456 0.14408 0.54128 0.0
C1390 C 0.86943 0.13039 0.53744 0.0
C1391 C 0.8584 0.16238 0.55603 0.0
C1392 C 0.89754 0.19656 0.58132 0.0
H1393 H 0.87519 0.27093 0.71025 0.0
H1394 H 0.86623 0.24611 0.66427 0.0
H1395 H 0.91493 0.22063 0.59816 0.0
H1396 H 0.90024 0.12568 0.54381 0.0
H1397 H 0.9069 0.15755 0.56987 0.0
H1398 H 0.85526 0.18323 0.62352 0.0
C1399 C 0.88109 0.24694 0.67371 0.0
C1400 C 0.90183 0.21261 0.60385 0.0
C1401 C 0.88626 0.26131 0.69969 0.0
C1402 C 0.88843 0.13583 0.5465 0.0
C1403 C 0.89227 0.15416 0.56128 0.0
C1404 C 0.86812 0.19151 0.61713 0.0
C1405 C 0.89497 0.23383 0.66008 0.0
C1406 C 0.8895 0.21802 0.63375 0.0
C1407 C 0.8772 0.16741 0.56725 0.0
C1408 C 0.88081 0.18565 0.58815 0.0
H1409 H 0.93411 0.25053 0.70829 0.0
H1410 H 0.92505 0.22528 0.6637 0.0
H1411 H 0.86275 0.21115 0.66277 0.0
H1412 H 0.83977 0.14045 0.53429 0.0
H1413 H 0.84655 0.17242 0.55967 0.0
C1414 C 0.85216 0.34837 0.78705 0.0
C1415 C 0.8647 0.36431 0.78455 0.0
C1416 C 0.83287 0.35091 0.79749 0.0
C1417 C 0.79459 0.38769 0.81253 0.0
H1418 H 0.78018 0.35516 0.8976 0.0
C1419 C 0.74228 0.41247 0.92788 0.0
C1420 C 0.72948 0.39921 0.94447 0.0
C1421 C 0.75584 0.40641 0.90122 0.0
C1422 C 0.78372 0.36411 0.87335 0.0
H1423 H 0.86638 0.39554 0.78827 0.0
H1424 H 0.83284 0.39993 0.80668 0.0
H1425 H 0.80922 0.3478 0.86149 0.0
H1426 H 0.72104 0.36909 0.94657 0.0
H1427 H 0.74478 0.35844 0.89949 0.0
H1428 H 0.76945 0.40443 0.8254 0.0
C1429 C 0.83788 0.38547 0.80047 0.0
C1430 C 0.80038 0.35989 0.85261 0.0
C1431 C 0.85718 0.38294 0.79014 0.0
C1432 C 0.73047 0.3797 0.93373 0.0
C1433 C 0.74417 0.37359 0.90705 0.0
C1434 C 0.77791 0.39189 0.83323 0.0
C1435 C 0.82568 0.36944 0.80544 0.0
C1436 C 0.80633 0.372 0.82276 0.0
C1437 C 0.75704 0.3869 0.89064 0.0
C1438 C 0.77266 0.38052 0.86467 0.0
H1439 H 0.85742 0.33381 0.78254 0.0
H1440 H 0.82373 0.33831 0.80054 0.0
H1441 H 0.79863 0.39709 0.78926 0.0
H1442 H 0.74184 0.42761 0.93554 0.0
H1443 H 0.76578 0.41698 0.88974 0.0
C1444 C 0.57887 0.24897 0.20353 0.0
C1445 C 0.59223 0.23449 0.21286 0.0
C1446 C 0.58369 0.26338 0.17754 0.0
C1447 C 0.62514 0.28895 0.13741 0.0
H1448 H 0.58756 0.3069 0.06376 0.0
C1449 C 0.64158 0.3536 0.04057 0.0
C1450 C 0.627 0.36773 0.03963 0.0
C1451 C 0.63774 0.33518 0.05485 0.0
C1452 C 0.59819 0.30207 0.08421 0.0
H1453 H 0.62141 0.2242 0.20356 0.0
H1454 H 0.62979 0.24929 0.15772 0.0
H1455 H 0.58024 0.27881 0.10307 0.0
H1456 H 0.59665 0.37317 0.05076 0.0
H1457 H 0.59005 0.34121 0.07603 0.0
H1458 H 0.64285 0.31252 0.11953 0.0
C1459 C 0.61551 0.24937 0.17027 0.0
C1460 C 0.594 0.28601 0.10672 0.0
C1461 C 0.61064 0.23488 0.19619 0.0
C1462 C 0.60825 0.36267 0.05119 0.0
C1463 C 0.60442 0.34428 0.0655 0.0
C1464 C 0.62932 0.30504 0.11497 0.0
C1465 C 0.60205 0.26374 0.16059 0.0
C1466 C 0.60727 0.27953 0.13409 0.0
C1467 C 0.61924 0.33049 0.06846 0.0
C1468 C 0.61574 0.31201 0.08865 0.0
H1469 H 0.56458 0.24905 0.21604 0.0
H1470 H 0.57312 0.27446 0.17121 0.0
H1471 H 0.63558 0.28443 0.15851 0.0
H1472 H 0.65615 0.35695 0.03153 0.0
H1473 H 0.64938 0.32476 0.05614 0.0
C1474 C 0.6443 0.15002 0.28722 0.0
C1475 C 0.63273 0.13353 0.2821 0.0
C1476 C 0.66314 0.14829 0.30086 0.0
C1477 C 0.70249 0.11349 0.32187 0.0
H1478 H 0.71159 0.14683 0.40862 0.0
C1479 C 0.74801 0.11076 0.4686 0.0
C1480 C 0.76625 0.10512 0.45537 0.0
C1481 C 0.73387 0.11697 0.44313 0.0
C1482 C 0.7093 0.13748 0.38435 0.0
H1483 H 0.63242 0.10221 0.28446 0.0
H1484 H 0.66522 0.09925 0.30853 0.0
H1485 H 0.68326 0.15204 0.36893 0.0
H1486 H 0.78393 0.10094 0.40527 0.0
H1487 H 0.75928 0.11206 0.36066 0.0
H1488 H 0.72809 0.09839 0.33846 0.0
C1489 C 0.65975 0.1135 0.30189 0.0
C1490 C 0.6932 0.14059 0.36135 0.0
C1491 C 0.6409 0.11521 0.28825 0.0
C1492 C 0.77018 0.10584 0.41628 0.0
C1493 C 0.75599 0.11192 0.39074 0.0
C1494 C 0.71866 0.11044 0.34482 0.0
C1495 C 0.67083 0.13006 0.30958 0.0
C1496 C 0.68937 0.12835 0.33038 0.0
C1497 C 0.73763 0.11734 0.40388 0.0
C1498 C 0.72195 0.12211 0.37684 0.0
H1499 H 0.63855 0.16435 0.28228 0.0
H1500 H 0.67147 0.16129 0.30586 0.0
H1501 H 0.69998 0.10393 0.29803 0.0
H1502 H 0.74459 0.11002 0.49859 0.0
H1503 H 0.71975 0.12074 0.45406 0.0
C1504 C 0.59829 0.76769 0.66749 0.0
C1505 C 0.60015 0.76469 0.70678 0.0
C1506 C 0.60325 0.7531 0.64186 0.0
C1507 C 0.60202 0.71497 0.59821 0.0
H1508 H 0.64733 0.68333 0.61576 0.0
C1509 C 0.61226 0.63811 0.53795 0.0
C1510 C 0.63109 0.63194 0.52924 0.0
C1511 C 0.60908 0.65657 0.55276 0.0
C1512 C 0.63478 0.6922 0.61003 0.0
H1513 H 0.6084 0.74413 0.75015 0.0
H1514 H 0.6171 0.71862 0.70544 0.0
H1515 H 0.64136 0.71127 0.65602 0.0
H1516 H 0.66108 0.64093 0.52596 0.0
H1517 H 0.65544 0.67313 0.55136 0.0
H1518 H 0.59532 0.69567 0.55247 0.0
C1519 C 0.61212 0.73234 0.69439 0.0
C1520 C 0.63125 0.70806 0.63342 0.0
C1521 C 0.60704 0.74687 0.71998 0.0
C1522 C 0.64643 0.64511 0.53291 0.0
C1523 C 0.64323 0.66355 0.54762 0.0
C1524 C 0.60551 0.69902 0.57485 0.0
C1525 C 0.61016 0.73526 0.65506 0.0
C1526 C 0.61468 0.71943 0.62817 0.0
C1527 C 0.62464 0.66921 0.55901 0.0
C1528 C 0.6218 0.68731 0.58087 0.0
H1529 H 0.59239 0.78102 0.65648 0.0
H1530 H 0.60158 0.75575 0.61172 0.0
H1531 H 0.58906 0.7234 0.59364 0.0
H1532 H 0.60012 0.62835 0.53539 0.0
H1533 H 0.59459 0.66047 0.56141 0.0
C1534 C 0.35208 0.14915 0.78542 0.0
C1535 C 0.36399 0.1328 0.78176 0.0
C1536 C 0.33314 0.14731 0.79865 0.0
C1537 C 0.29475 0.11146 0.8216 0.0
H1538 H 0.28336 0.14649 0.90462 0.0
C1539 C 0.24542 0.09083 0.94498 0.0
C1540 C 0.23214 0.10443 0.9588 0.0
C1541 C 0.25896 0.09602 0.91759 0.0
C1542 C 0.28612 0.13682 0.88106 0.0
H1543 H 0.36484 0.10156 0.78643 0.0
H1544 H 0.33205 0.0984 0.80986 0.0
H1545 H 0.31135 0.15244 0.86436 0.0
H1546 H 0.22298 0.1343 0.95576 0.0
H1547 H 0.24695 0.1435 0.90773 0.0
H1548 H 0.27001 0.09536 0.83958 0.0
C1549 C 0.33722 0.11264 0.80232 0.0
C1550 C 0.30214 0.14024 0.85788 0.0
C1551 C 0.35612 0.11447 0.78906 0.0
C1552 C 0.23288 0.12347 0.94515 0.0
C1553 C 0.24662 0.12874 0.91788 0.0
C1554 C 0.27881 0.10801 0.84488 0.0
C1555 C 0.32572 0.12909 0.80844 0.0
C1556 C 0.30697 0.12727 0.8286 0.0
C1557 C 0.25969 0.11499 0.90364 0.0
C1558 C 0.27469 0.12033 0.87554 0.0
H1559 H 0.35761 0.16348 0.77965 0.0
H1560 H 0.32452 0.16022 0.80241 0.0
H1561 H 0.29785 0.10141 0.79883 0.0
H1562 H 0.24516 0.07603 0.95491 0.0
H1563 H 0.26909 0.0852 0.90771 0.0
C1564 C 0.89148 0.861 0.04602 0.0
C1565 C 0.87349 0.86556 0.02997 0.0
C1566 C 0.8951 0.84247 0.05984 0.0
C1567 C 0.86844 0.79993 0.0957 0.0
H1568 H 0.92009 0.77874 0.10418 0.0
C1569 C 0.89352 0.72576 0.16292 0.0
C1570 C 0.90325 0.72936 0.19731 0.0
C1571 C 0.88874 0.74098 0.13858 0.0
C1572 C 0.90559 0.78448 0.10167 0.0
H1573 H 0.84574 0.85389 0.01303 0.0
H1574 H 0.85235 0.82131 0.03572 0.0
H1575 H 0.91457 0.80715 0.06451 0.0
H1576 H 0.91578 0.75174 0.23271 0.0
H1577 H 0.90784 0.7782 0.18952 0.0
H1578 H 0.85964 0.77696 0.13283 0.0
C1579 C 0.86342 0.83222 0.03898 0.0
C1580 C 0.90241 0.8008 0.07925 0.0
C1581 C 0.85968 0.85086 0.02568 0.0
C1582 C 0.90813 0.74849 0.20665 0.0
C1583 C 0.90365 0.76361 0.18203 0.0
C1584 C 0.8716 0.78341 0.11758 0.0
C1585 C 0.88093 0.82795 0.05739 0.0
C1586 C 0.88388 0.80907 0.07678 0.0
C1587 C 0.89405 0.75992 0.1478 0.0
C1588 C 0.89026 0.77589 0.12134 0.0
H1589 H 0.90241 0.87202 0.04992 0.0
H1590 H 0.90867 0.83989 0.07423 0.0
H1591 H 0.85404 0.80599 0.09506 0.0
H1592 H 0.89034 0.71121 0.15381 0.0
H1593 H 0.88151 0.73791 0.11197 0.0
C1594 C 0.2654 0.38003 0.43003 0.0
C1595 C 0.26638 0.39946 0.44129 0.0
C1596 C 0.25162 0.37405 0.40341 0.0
C1597 C 0.21759 0.39269 0.33041 0.0
H1598 H 0.18688 0.34796 0.35726 0.0
C1599 C 0.13861 0.38253 0.28556 0.0
C1600 C 0.13136 0.36376 0.28041 0.0
C1601 C 0.15786 0.3854 0.29594 0.0
C1602 C 0.19555 0.36024 0.34875 0.0
H1603 H 0.25385 0.42787 0.4334 0.0
H1604 H 0.22975 0.41747 0.38766 0.0
H1605 H 0.21573 0.35548 0.39376 0.0
H1606 H 0.13912 0.33338 0.27876 0.0
H1607 H 0.17273 0.33846 0.29659 0.0
H1608 H 0.19692 0.39786 0.28633 0.0
C1609 C 0.23978 0.40686 0.3987 0.0
C1610 C 0.2121 0.36455 0.36974 0.0
C1611 C 0.25344 0.41278 0.42531 0.0
C1612 C 0.14416 0.34803 0.28301 0.0
C1613 C 0.16341 0.35091 0.29339 0.0
C1614 C 0.20103 0.38838 0.30943 0.0
C1615 C 0.23862 0.38743 0.38756 0.0
C1616 C 0.22297 0.38116 0.36154 0.0
C1617 C 0.17029 0.36956 0.30128 0.0
C1618 C 0.18951 0.37242 0.31907 0.0
H1619 H 0.27492 0.36936 0.4424 0.0
H1620 H 0.25105 0.35896 0.39541 0.0
H1621 H 0.22589 0.40539 0.32296 0.0
H1622 H 0.12919 0.39497 0.28364 0.0
H1623 H 0.16265 0.39995 0.30204 0.0
C1624 C 0.39949 0.7679 0.15956 0.0
C1625 C 0.39764 0.76459 0.19877 0.0
C1626 C 0.39386 0.75376 0.13347 0.0
C1627 C 0.39384 0.71581 0.08895 0.0
H1628 H 0.34807 0.68493 0.10704 0.0
C1629 C 0.38339 0.63851 0.03213 0.0
C1630 C 0.36459 0.63209 0.02405 0.0
C1631 C 0.38651 0.6572 0.04575 0.0
C1632 C 0.36073 0.69359 0.10108 0.0
H1633 H 0.38861 0.74399 0.24146 0.0
H1634 H 0.37879 0.7193 0.19602 0.0
H1635 H 0.35439 0.713 0.14666 0.0
H1636 H 0.33453 0.64082 0.0206 0.0
H1637 H 0.34004 0.67347 0.04387 0.0
H1638 H 0.40032 0.69616 0.04369 0.0
C1639 C 0.38428 0.73291 0.18536 0.0
C1640 C 0.36446 0.70954 0.12412 0.0
C1641 C 0.39001 0.74697 0.21138 0.0
C1642 C 0.34917 0.64521 0.02712 0.0
C1643 C 0.3523 0.6639 0.04059 0.0
C1644 C 0.39013 0.69979 0.0659 0.0
C1645 C 0.38627 0.73609 0.14613 0.0
C1646 C 0.38126 0.72056 0.11887 0.0
C1647 C 0.3709 0.66987 0.05138 0.0
C1648 C 0.37372 0.68829 0.07222 0.0
H1649 H 0.40591 0.78108 0.14899 0.0
H1650 H 0.39559 0.7566 0.10341 0.0
H1651 H 0.40696 0.72398 0.08434 0.0
H1652 H 0.3956 0.62879 0.03 0.0
H1653 H 0.40101 0.6613 0.054 0.0
C1654 C 0.23636 0.88606 0.44236 0.0
C1655 C 0.2325 0.90561 0.44967 0.0
C1656 C 0.25135 0.88085 0.4177 0.0
C1657 C 0.29673 0.90063 0.37948 0.0
H1658 H 0.29413 0.85791 0.30844 0.0
C1659 C 0.3598 0.88596 0.28053 0.0
C1660 C 0.36669 0.86688 0.281 0.0
C1661 C 0.34149 0.89027 0.29465 0.0
C1662 C 0.29503 0.86986 0.32822 0.0
H1663 H 0.24064 0.93502 0.43597 0.0
H1664 H 0.26641 0.92602 0.39271 0.0
H1665 H 0.2658 0.86604 0.34701 0.0
H1666 H 0.3591 0.83714 0.29363 0.0
H1667 H 0.3272 0.84478 0.31879 0.0
H1668 H 0.32585 0.90441 0.36134 0.0
C1669 C 0.25829 0.91465 0.40654 0.0
C1670 C 0.27887 0.87446 0.35037 0.0
C1671 C 0.24351 0.91982 0.43129 0.0
C1672 C 0.35427 0.85202 0.29309 0.0
C1673 C 0.33595 0.85637 0.30738 0.0
C1674 C 0.31275 0.8961 0.35737 0.0
C1675 C 0.26265 0.89513 0.39996 0.0
C1676 C 0.27956 0.88995 0.37618 0.0
C1677 C 0.32971 0.87563 0.30969 0.0
C1678 C 0.3121 0.88072 0.33144 0.0
H1679 H 0.22823 0.87483 0.45654 0.0
H1680 H 0.25449 0.86568 0.41349 0.0
H1681 H 0.29794 0.91233 0.39976 0.0
H1682 H 0.36887 0.89771 0.27087 0.0
H1683 H 0.33687 0.90521 0.29526 0.0
C1684 C 0.14454 0.85485 0.53615 0.0
C1685 C 0.12919 0.86808 0.53353 0.0
C1686 C 0.14155 0.83644 0.55119 0.0
C1687 C 0.10409 0.80094 0.57885 0.0
H1688 H 0.14084 0.78723 0.65752 0.0
C1689 C 0.10701 0.75031 0.72011 0.0
C1690 C 0.09981 0.73284 0.70573 0.0
C1691 C 0.11198 0.76532 0.69553 0.0
C1692 C 0.13048 0.79086 0.63562 0.0
H1693 H 0.09839 0.87184 0.54227 0.0
H1694 H 0.09323 0.83977 0.56866 0.0
H1695 H 0.14644 0.81584 0.61876 0.0
H1696 H 0.09145 0.71764 0.65443 0.0
H1697 H 0.10047 0.74371 0.61146 0.0
H1698 H 0.0878 0.7763 0.59671 0.0
C1699 C 0.10757 0.84362 0.559 0.0
C1700 C 0.13379 0.80711 0.61311 0.0
C1701 C 0.11055 0.86205 0.54401 0.0
C1702 C 0.09758 0.73067 0.66631 0.0
C1703 C 0.10245 0.74572 0.64171 0.0
C1704 C 0.10083 0.78462 0.60128 0.0
C1705 C 0.12314 0.83084 0.56381 0.0
C1706 C 0.12049 0.8125 0.58487 0.0
C1707 C 0.1096 0.76324 0.65608 0.0
C1708 C 0.11384 0.77961 0.6303 0.0
H1709 H 0.15906 0.85893 0.52798 0.0
H1710 H 0.15376 0.82677 0.55393 0.0
H1711 H 0.09366 0.80467 0.55715 0.0
H1712 H 0.10865 0.75241 0.75043 0.0
H1713 H 0.11717 0.77876 0.70749 0.0
C1714 C 0.24571 0.57982 0.95768 0.0
C1715 C 0.25836 0.59441 0.96967 0.0
C1716 C 0.23104 0.58387 0.93184 0.0
C1717 C 0.21517 0.6196 0.86013 0.0
H1718 H 0.16567 0.59458 0.87507 0.0
C1719 C 0.14319 0.64192 0.78796 0.0
C1720 C 0.13032 0.62701 0.77811 0.0
C1721 C 0.1607 0.63768 0.8058 0.0
C1722 C 0.1795 0.60145 0.87015 0.0
H1723 H 0.26527 0.62482 0.96513 0.0
H1724 H 0.23926 0.63208 0.92033 0.0
H1725 H 0.19179 0.58837 0.91935 0.0
H1726 H 0.12661 0.59589 0.77602 0.0
H1727 H 0.15716 0.58858 0.80701 0.0
H1728 H 0.20242 0.63313 0.81136 0.0
C1729 C 0.24105 0.61737 0.93012 0.0
C1730 C 0.19448 0.59791 0.89557 0.0
C1731 C 0.25589 0.61325 0.95583 0.0
C1732 C 0.13605 0.60774 0.78361 0.0
C1733 C 0.15351 0.60353 0.80154 0.0
C1734 C 0.20005 0.62328 0.83478 0.0
C1735 C 0.22847 0.60269 0.91779 0.0
C1736 C 0.21253 0.60686 0.89082 0.0
C1737 C 0.16562 0.61848 0.81415 0.0
C1738 C 0.1821 0.61414 0.83951 0.0
H1739 H 0.24744 0.56511 0.96757 0.0
H1740 H 0.22187 0.57213 0.92247 0.0
H1741 H 0.22896 0.62656 0.85542 0.0
H1742 H 0.1393 0.65692 0.78385 0.0
H1743 H 0.16978 0.64948 0.81521 0.0
loop_
_geom_bond_atom_site_label_1
_geom_bond_atom_site_label_2
_geom_bond_distance
_geom_bond_site_symmetry_2
_ccdc_geom_bond_type
Co0 O3 1.970 . S
Co0 N17 1.989 1_554 S
Co0 O25 1.967 . S
Co0 O32 1.920 . S
Co1 O4 1.966 . S
Co1 N10 2.022 . S
Co1 N18 1.993 1_554 S
Co1 O26 1.941 . S
C2 O3 1.258 . S
C2 O4 1.263 . S
O3 Co0 1.970 . S
O3 C2 1.258 . S
O4 Co1 1.966 . S
O4 C2 1.263 . S
C5 O6 1.235 1_554 S
C5 O32 1.289 . S
O6 C5 1.235 1_556 S
C7 C9 1.400 . S
C7 N10 1.351 1_556 S
C7 C12 1.501 . S
C8 C9 1.387 . S
C8 N11 1.341 . S
C9 C7 1.400 . S
C9 C8 1.387 . S
N10 Co1 2.022 . S
N10 C7 1.351 1_554 S
N10 N11 1.365 1_554 S
N11 C8 1.341 . S
N11 N10 1.365 1_556 S
N11 H31 0.862 1_556 S
C12 C7 1.501 . S
C12 H13 0.961 1_556 S
C12 H14 0.961 . S
C12 H15 0.960 1_556 S
H13 C12 0.961 1_554 S
H14 C12 0.961 . S
H15 C12 0.960 1_554 S
C16 N17 1.342 . S
C16 C20 1.401 . S
C16 C21 1.499 . S
N17 Co0 1.989 1_556 S
N17 C16 1.342 . S
N17 N18 1.388 . S
N18 Co1 1.993 1_556 S
N18 N17 1.388 . S
N18 C19 1.346 . S
C19 N18 1.346 . S
C19 C20 1.396 . S
C19 C29 1.510 . S
C20 C16 1.401 . S
C20 C19 1.396 . S
C21 C16 1.499 . S
C21 H22 0.959 . S
C21 H23 0.960 . S
C21 H24 0.961 . S
H22 C21 0.959 . S
H23 C21 0.960 . S
H24 C21 0.961 . S
O25 Co0 1.967 . S
O25 C33 1.258 . S
O26 Co1 1.941 . S
O26 C33 1.266 . S
H27 C29 0.959 . S
H28 C29 0.961 . S
C29 C19 1.510 . S
C29 H27 0.959 . S
C29 H28 0.961 . S
C29 H30 0.960 . S
H30 C29 0.960 . S
H31 N11 0.862 1_554 S
O32 Co0 1.920 . S
O32 C5 1.289 . S
C33 O25 1.258 . S
C33 O26 1.266 . S
Co34 O37 1.970 . S
Co34 N51 1.989 . S
Co34 O59 1.967 . S
Co34 O66 1.920 . S
Co35 O38 1.966 . S
Co35 N44 2.022 . S
Co35 N52 1.993 . S
Co35 O60 1.941 . S
C36 O37 1.258 . S
C36 O38 1.263 . S
O37 Co34 1.970 . S
O37 C36 1.258 . S
O38 Co35 1.966 . S
O38 C36 1.263 . S
C39 O40 1.235 . S
C39 O66 1.289 . S
O40 C39 1.235 . S
C41 C43 1.400 . S
C41 N44 1.351 . S
C41 C46 1.501 . S
C42 C43 1.387 . S
C42 N45 1.341 . S
C43 C41 1.400 . S
C43 C42 1.387 . S
N44 Co35 2.022 . S
N44 C41 1.351 . S
N44 N45 1.365 . S
N45 C42 1.341 . S
N45 N44 1.365 . S
N45 H65 0.862 . S
C46 C41 1.501 . S
C46 H47 0.961 . S
C46 H48 0.961 . S
C46 H49 0.960 . S
H47 C46 0.961 . S
H48 C46 0.961 . S
H49 C46 0.960 . S
C50 N51 1.342 . S
C50 C54 1.401 . S
C50 C55 1.499 . S
N51 Co34 1.989 . S
N51 C50 1.342 . S
N51 N52 1.388 . S
N52 Co35 1.993 . S
N52 N51 1.388 . S
N52 C53 1.346 . S
C53 N52 1.346 . S
C53 C54 1.396 . S
C53 C63 1.510 . S
C54 C50 1.401 . S
C54 C53 1.396 . S
C55 C50 1.499 . S
C55 H56 0.959 . S
C55 H57 0.960 . S
C55 H58 0.961 . S
H56 C55 0.959 . S
H57 C55 0.960 . S
H58 C55 0.961 . S
O59 Co34 1.967 . S
O59 C67 1.258 . S
O60 Co35 1.941 . S
O60 C67 1.266 . S
H61 C63 0.959 . S
H62 C63 0.961 . S
C63 C53 1.510 . S
C63 H61 0.959 . S
C63 H62 0.961 . S
C63 H64 0.960 . S
H64 C63 0.960 . S
H65 N45 0.862 . S
O66 Co34 1.920 . S
O66 C39 1.289 . S
C67 O59 1.258 . S
C67 O60 1.266 . S
Co68 O71 1.970 . S
Co68 N85 1.989 . S
Co68 O93 1.967 . S
Co68 O100 1.920 . S
Co69 O72 1.966 . S
Co69 N78 2.022 . S
Co69 N86 1.993 . S
Co69 O94 1.941 . S
C70 O71 1.258 . S
C70 O72 1.263 . S
O71 Co68 1.970 . S
O71 C70 1.258 . S
O72 Co69 1.966 . S
O72 C70 1.263 . S
C73 O74 1.235 . S
C73 O100 1.289 . S
O74 C73 1.235 . S
C75 C77 1.400 . S
C75 N78 1.351 . S
C75 C80 1.501 . S
C76 C77 1.387 . S
C76 N79 1.341 . S
C77 C75 1.400 . S
C77 C76 1.387 . S
N78 Co69 2.022 . S
N78 C75 1.351 . S
N78 N79 1.365 . S
N79 C76 1.341 . S
N79 N78 1.365 . S
N79 H99 0.862 . S
C80 C75 1.501 . S
C80 H81 0.961 . S
C80 H82 0.961 . S
C80 H83 0.960 . S
H81 C80 0.961 . S
H82 C80 0.961 . S
H83 C80 0.960 . S
C84 N85 1.342 . S
C84 C88 1.401 . S
C84 C89 1.499 . S
N85 Co68 1.989 . S
N85 C84 1.342 . S
N85 N86 1.388 . S
N86 Co69 1.993 . S
N86 N85 1.388 . S
N86 C87 1.346 . S
C87 N86 1.346 . S
C87 C88 1.396 . S
C87 C97 1.510 . S
C88 C84 1.401 . S
C88 C87 1.396 . S
C89 C84 1.499 . S
C89 H90 0.959 . S
C89 H91 0.960 . S
C89 H92 0.961 . S
H90 C89 0.959 . S
H91 C89 0.960 . S
H92 C89 0.961 . S
O93 Co68 1.967 . S
O93 C101 1.258 . S
O94 Co69 1.941 . S
O94 C101 1.266 . S
H95 C97 0.959 . S
H96 C97 0.961 . S
C97 C87 1.510 . S
C97 H95 0.959 . S
C97 H96 0.961 . S
C97 H98 0.960 . S
H98 C97 0.960 . S
H99 N79 0.862 . S
O100 Co68 1.920 . S
O100 C73 1.289 . S
C101 O93 1.258 . S
C101 O94 1.266 . S
Co102 O105 1.970 . S
Co102 N119 1.989 . S
Co102 O127 1.967 . S
Co102 O134 1.920 . S
Co103 O106 1.966 . S
Co103 N112 2.022 . S
Co103 N120 1.993 . S
Co103 O128 1.941 . S
C104 O105 1.258 . S
C104 O106 1.263 . S
O105 Co102 1.970 . S
O105 C104 1.258 . S
O106 Co103 1.966 . S
O106 C104 1.263 . S
C107 O108 1.235 . S
C107 O134 1.289 . S
O108 C107 1.235 . S
C109 C111 1.400 . S
C109 N112 1.351 . S
C109 C114 1.501 . S
C110 C111 1.387 . S
C110 N113 1.341 . S
C111 C109 1.400 . S
C111 C110 1.387 . S
N112 Co103 2.022 . S
N112 C109 1.351 . S
N112 N113 1.365 . S
N113 C110 1.341 . S
N113 N112 1.365 . S
N113 H133 0.862 . S
C114 C109 1.501 . S
C114 H115 0.961 . S
C114 H116 0.961 . S
C114 H117 0.960 . S
H115 C114 0.961 . S
H116 C114 0.961 . S
H117 C114 0.960 . S
C118 N119 1.342 . S
C118 C122 1.401 . S
C118 C123 1.499 . S
N119 Co102 1.989 . S
N119 C118 1.342 . S
N119 N120 1.388 . S
N120 Co103 1.993 . S
N120 N119 1.388 . S
N120 C121 1.346 . S
C121 N120 1.346 . S
C121 C122 1.396 . S
C121 C131 1.510 . S
C122 C118 1.401 . S
C122 C121 1.396 . S
C123 C118 1.499 . S
C123 H124 0.959 . S
C123 H125 0.960 . S
C123 H126 0.961 . S
H124 C123 0.959 . S
H125 C123 0.960 . S
H126 C123 0.961 . S
O127 Co102 1.967 . S
O127 C135 1.258 . S
O128 Co103 1.941 . S
O128 C135 1.266 . S
H129 C131 0.959 . S
H130 C131 0.961 . S
C131 C121 1.510 . S
C131 H129 0.959 . S
C131 H130 0.961 . S
C131 H132 0.960 . S
H132 C131 0.960 . S
H133 N113 0.862 . S
O134 Co102 1.920 . S
O134 C107 1.289 . S
C135 O127 1.258 . S
C135 O128 1.266 . S
Co136 O139 1.970 . S
Co136 N153 1.989 . S
Co136 O161 1.967 . S
Co136 O168 1.920 . S
Co137 O140 1.966 . S
Co137 N146 2.022 . S
Co137 N154 1.993 . S
Co137 O162 1.941 . S
C138 O139 1.258 . S
C138 O140 1.263 . S
O139 Co136 1.970 . S
O139 C138 1.258 . S
O140 Co137 1.966 . S
O140 C138 1.263 . S
C141 O142 1.235 . S
C141 O168 1.289 . S
O142 C141 1.235 . S
C143 C145 1.400 . S
C143 N146 1.351 . S
C143 C148 1.501 . S
C144 C145 1.387 . S
C144 N147 1.341 . S
C145 C143 1.400 . S
C145 C144 1.387 . S
N146 Co137 2.022 . S
N146 C143 1.351 . S
N146 N147 1.365 . S
N147 C144 1.341 . S
N147 N146 1.365 . S
N147 H167 0.862 . S
C148 C143 1.501 . S
C148 H149 0.961 . S
C148 H150 0.961 . S
C148 H151 0.960 . S
H149 C148 0.961 . S
H150 C148 0.961 . S
H151 C148 0.960 . S
C152 N153 1.342 . S
C152 C156 1.401 . S
C152 C157 1.499 . S
N153 Co136 1.989 . S
N153 C152 1.342 . S
N153 N154 1.388 . S
N154 Co137 1.993 . S
N154 N153 1.388 . S
N154 C155 1.346 . S
C155 N154 1.346 . S
C155 C156 1.396 . S
C155 C165 1.510 . S
C156 C152 1.401 . S
C156 C155 1.396 . S
C157 C152 1.499 . S
C157 H158 0.959 . S
C157 H159 0.960 . S
C157 H160 0.961 . S
H158 C157 0.959 . S
H159 C157 0.960 . S
H160 C157 0.961 . S
O161 Co136 1.967 . S
O161 C169 1.258 . S
O162 Co137 1.941 . S
O162 C169 1.266 . S
H163 C165 0.959 . S
H164 C165 0.961 . S
C165 C155 1.510 . S
C165 H163 0.959 . S
C165 H164 0.961 . S
C165 H166 0.960 . S
H166 C165 0.960 . S
H167 N147 0.862 . S
O168 Co136 1.920 . S
O168 C141 1.289 . S
C169 O161 1.258 . S
C169 O162 1.266 . S
Co170 O173 1.970 . S
Co170 N187 1.989 . S
Co170 O195 1.967 . S
Co170 O202 1.920 . S
Co171 O174 1.966 . S
Co171 N180 2.022 . S
Co171 N188 1.993 . S
Co171 O196 1.941 . S
C172 O173 1.258 . S
C172 O174 1.263 . S
O173 Co170 1.970 . S
O173 C172 1.258 . S
O174 Co171 1.966 . S
O174 C172 1.263 . S
C175 O176 1.235 . S
C175 O202 1.289 . S
O176 C175 1.235 . S
C177 C179 1.400 . S
C177 N180 1.351 . S
C177 C182 1.501 . S
C178 C179 1.387 . S
C178 N181 1.341 . S
C179 C177 1.400 . S
C179 C178 1.387 . S
N180 Co171 2.022 . S
N180 C177 1.351 . S
N180 N181 1.365 . S
N181 C178 1.341 . S
N181 N180 1.365 . S
N181 H201 0.862 . S
C182 C177 1.501 . S
C182 H183 0.961 . S
C182 H184 0.961 . S
C182 H185 0.960 . S
H183 C182 0.961 . S
H184 C182 0.961 . S
H185 C182 0.960 . S
C186 N187 1.342 . S
C186 C190 1.401 . S
C186 C191 1.499 . S
N187 Co170 1.989 . S
N187 C186 1.342 . S
N187 N188 1.388 . S
N188 Co171 1.993 . S
N188 N187 1.388 . S
N188 C189 1.346 . S
C189 N188 1.346 . S
C189 C190 1.396 . S
C189 C199 1.510 . S
C190 C186 1.401 . S
C190 C189 1.396 . S
C191 C186 1.499 . S
C191 H192 0.959 . S
C191 H193 0.960 . S
C191 H194 0.961 . S
H192 C191 0.959 . S
H193 C191 0.960 . S
H194 C191 0.961 . S
O195 Co170 1.967 . S
O195 C203 1.258 . S
O196 Co171 1.941 . S
O196 C203 1.266 . S
H197 C199 0.959 . S
H198 C199 0.961 . S
C199 C189 1.510 . S
C199 H197 0.959 . S
C199 H198 0.961 . S
C199 H200 0.960 . S
H200 C199 0.960 . S
H201 N181 0.862 . S
O202 Co170 1.920 . S
O202 C175 1.289 . S
C203 O195 1.258 . S
C203 O196 1.266 . S
Co204 O207 1.970 . S
Co204 N221 1.989 1_554 S
Co204 O229 1.967 . S
Co204 O236 1.920 . S
Co205 O208 1.966 . S
Co205 N214 2.022 . S
Co205 N222 1.993 1_554 S
Co205 O230 1.941 . S
C206 O207 1.258 . S
C206 O208 1.263 . S
O207 Co204 1.970 . S
O207 C206 1.258 . S
O208 Co205 1.966 . S
O208 C206 1.263 . S
C209 O210 1.235 1_554 S
C209 O236 1.289 . S
O210 C209 1.235 1_556 S
C211 C213 1.400 . S
C211 N214 1.351 1_556 S
C211 C216 1.501 . S
C212 C213 1.387 . S
C212 N215 1.341 . S
C213 C211 1.400 . S
C213 C212 1.387 . S
N214 Co205 2.022 . S
N214 C211 1.351 1_554 S
N214 N215 1.365 1_554 S
N215 C212 1.341 . S
N215 N214 1.365 1_556 S
N215 H235 0.862 1_556 S
C216 C211 1.501 . S
C216 H217 0.961 1_556 S
C216 H218 0.961 . S
C216 H219 0.960 1_556 S
H217 C216 0.961 1_554 S
H218 C216 0.961 . S
H219 C216 0.960 1_554 S
C220 N221 1.342 . S
C220 C224 1.401 . S
C220 C225 1.499 . S
N221 Co204 1.989 1_556 S
N221 C220 1.342 . S
N221 N222 1.388 . S
N222 Co205 1.993 1_556 S
N222 N221 1.388 . S
N222 C223 1.346 . S
C223 N222 1.346 . S
C223 C224 1.396 . S
C223 C233 1.510 . S
C224 C220 1.401 . S
C224 C223 1.396 . S
C225 C220 1.499 . S
C225 H226 0.959 . S
C225 H227 0.960 . S
C225 H228 0.961 . S
H226 C225 0.959 . S
H227 C225 0.960 . S
H228 C225 0.961 . S
O229 Co204 1.967 . S
O229 C237 1.258 . S
O230 Co205 1.941 . S
O230 C237 1.266 . S
H231 C233 0.959 . S
H232 C233 0.961 . S
C233 C223 1.510 . S
C233 H231 0.959 . S
C233 H232 0.961 . S
C233 H234 0.960 . S
H234 C233 0.960 . S
H235 N215 0.862 1_554 S
O236 Co204 1.920 . S
O236 C209 1.289 . S
C237 O229 1.258 . S
C237 O230 1.266 . S
Co238 O241 1.970 . S
Co238 N255 1.989 . S
Co238 O263 1.967 . S
Co238 O270 1.920 . S
Co239 O242 1.966 . S
Co239 N248 2.022 . S
Co239 N256 1.993 . S
Co239 O264 1.941 . S
C240 O241 1.258 . S
C240 O242 1.263 . S
O241 Co238 1.970 . S
O241 C240 1.258 . S
O242 Co239 1.966 . S
O242 C240 1.263 . S
C243 O244 1.235 . S
C243 O270 1.289 . S
O244 C243 1.235 . S
C245 C247 1.400 . S
C245 N248 1.351 . S
C245 C250 1.501 . S
C246 C247 1.387 . S
C246 N249 1.341 . S
C247 C245 1.400 . S
C247 C246 1.387 . S
N248 Co239 2.022 . S
N248 C245 1.351 . S
N248 N249 1.365 . S
N249 C246 1.341 . S
N249 N248 1.365 . S
N249 H269 0.862 . S
C250 C245 1.501 . S
C250 H251 0.961 . S
C250 H252 0.961 . S
C250 H253 0.960 . S
H251 C250 0.961 . S
H252 C250 0.961 . S
H253 C250 0.960 . S
C254 N255 1.342 . S
C254 C258 1.401 . S
C254 C259 1.499 . S
N255 Co238 1.989 . S
N255 C254 1.342 . S
N255 N256 1.388 . S
N256 Co239 1.993 . S
N256 N255 1.388 . S
N256 C257 1.346 . S
C257 N256 1.346 . S
C257 C258 1.396 . S
C257 C267 1.510 . S
C258 C254 1.401 . S
C258 C257 1.396 . S
C259 C254 1.499 . S
C259 H260 0.959 . S
C259 H261 0.960 . S
C259 H262 0.961 . S
H260 C259 0.959 . S
H261 C259 0.960 . S
H262 C259 0.961 . S
O263 Co238 1.967 . S
O263 C271 1.258 . S
O264 Co239 1.941 . S
O264 C271 1.266 . S
H265 C267 0.959 . S
H266 C267 0.961 . S
C267 C257 1.510 . S
C267 H265 0.959 . S
C267 H266 0.961 . S
C267 H268 0.960 . S
H268 C267 0.960 . S
H269 N249 0.862 . S
O270 Co238 1.920 . S
O270 C243 1.289 . S
C271 O263 1.258 . S
C271 O264 1.266 . S
Co272 O275 1.970 . S
Co272 N289 1.989 . S
Co272 O297 1.967 . S
Co272 O304 1.920 . S
Co273 O276 1.966 . S
Co273 N282 2.022 . S
Co273 N290 1.993 . S
Co273 O298 1.941 . S
C274 O275 1.258 . S
C274 O276 1.263 . S
O275 Co272 1.970 . S
O275 C274 1.258 . S
O276 Co273 1.966 . S
O276 C274 1.263 . S
C277 O278 1.235 . S
C277 O304 1.289 . S
O278 C277 1.235 . S
C279 C281 1.400 . S
C279 N282 1.351 . S
C279 C284 1.501 . S
C280 C281 1.387 . S
C280 N283 1.341 . S
C281 C279 1.400 . S
C281 C280 1.387 . S
N282 Co273 2.022 . S
N282 C279 1.351 . S
N282 N283 1.365 . S
N283 C280 1.341 . S
N283 N282 1.365 . S
N283 H303 0.862 . S
C284 C279 1.501 . S
C284 H285 0.961 . S
C284 H286 0.961 . S
C284 H287 0.960 . S
H285 C284 0.961 . S
H286 C284 0.961 . S
H287 C284 0.960 . S
C288 N289 1.342 . S
C288 C292 1.401 . S
C288 C293 1.499 . S
N289 Co272 1.989 . S
N289 C288 1.342 . S
N289 N290 1.388 . S
N290 Co273 1.993 . S
N290 N289 1.388 . S
N290 C291 1.346 . S
C291 N290 1.346 . S
C291 C292 1.396 . S
C291 C301 1.510 . S
C292 C288 1.401 . S
C292 C291 1.396 . S
C293 C288 1.499 . S
C293 H294 0.959 . S
C293 H295 0.960 . S
C293 H296 0.961 . S
H294 C293 0.959 . S
H295 C293 0.960 . S
H296 C293 0.961 . S
O297 Co272 1.967 . S
O297 C305 1.258 . S
O298 Co273 1.941 . S
O298 C305 1.266 . S
H299 C301 0.959 . S
H300 C301 0.961 . S
C301 C291 1.510 . S
C301 H299 0.959 . S
C301 H300 0.961 . S
C301 H302 0.960 . S
H302 C301 0.960 . S
H303 N283 0.862 . S
O304 Co272 1.920 . S
O304 C277 1.289 . S
C305 O297 1.258 . S
C305 O298 1.266 . S
Co306 O309 1.970 . S
Co306 N323 1.989 . S
Co306 O331 1.967 . S
Co306 O338 1.920 . S
Co307 O310 1.966 . S
Co307 N316 2.022 . S
Co307 N324 1.993 . S
Co307 O332 1.941 . S
C308 O309 1.258 . S
C308 O310 1.263 . S
O309 Co306 1.970 . S
O309 C308 1.258 . S
O310 Co307 1.966 . S
O310 C308 1.263 . S
C311 O312 1.235 . S
C311 O338 1.289 . S
O312 C311 1.235 . S
C313 C315 1.400 . S
C313 N316 1.351 . S
C313 C318 1.501 . S
C314 C315 1.387 . S
C314 N317 1.341 . S
C315 C313 1.400 . S
C315 C314 1.387 . S
N316 Co307 2.022 . S
N316 C313 1.351 . S
N316 N317 1.365 . S
N317 C314 1.341 . S
N317 N316 1.365 . S
N317 H337 0.862 . S
C318 C313 1.501 . S
C318 H319 0.961 . S
C318 H320 0.961 . S
C318 H321 0.960 . S
H319 C318 0.961 . S
H320 C318 0.961 . S
H321 C318 0.960 . S
C322 N323 1.342 . S
C322 C326 1.401 . S
C322 C327 1.499 . S
N323 Co306 1.989 . S
N323 C322 1.342 . S
N323 N324 1.388 . S
N324 Co307 1.993 . S
N324 N323 1.388 . S
N324 C325 1.346 . S
C325 N324 1.346 . S
C325 C326 1.396 . S
C325 C335 1.510 . S
C326 C322 1.401 . S
C326 C325 1.396 . S
C327 C322 1.499 . S
C327 H328 0.959 . S
C327 H329 0.960 . S
C327 H330 0.961 . S
H328 C327 0.959 . S
H329 C327 0.960 . S
H330 C327 0.961 . S
O331 Co306 1.967 . S
O331 C339 1.258 . S
O332 Co307 1.941 . S
O332 C339 1.266 . S
H333 C335 0.959 . S
H334 C335 0.961 . S
C335 C325 1.510 . S
C335 H333 0.959 . S
C335 H334 0.961 . S
C335 H336 0.960 . S
H336 C335 0.960 . S
H337 N317 0.862 . S
O338 Co306 1.920 . S
O338 C311 1.289 . S
C339 O331 1.258 . S
C339 O332 1.266 . S
Co340 O343 1.970 . S
Co340 N357 1.989 1_554 S
Co340 O365 1.967 . S
Co340 O372 1.920 . S
Co341 O344 1.966 . S
Co341 N350 2.022 . S
Co341 N358 1.993 1_554 S
Co341 O366 1.941 . S
C342 O343 1.258 . S
C342 O344 1.263 . S
O343 Co340 1.970 . S
O343 C342 1.258 . S
O344 Co341 1.966 . S
O344 C342 1.263 . S
C345 O346 1.235 1_554 S
C345 O372 1.289 . S
O346 C345 1.235 1_556 S
C347 C349 1.400 . S
C347 N350 1.351 1_556 S
C347 C352 1.501 . S
C348 C349 1.387 . S
C348 N351 1.341 . S
C349 C347 1.400 . S
C349 C348 1.387 . S
N350 Co341 2.022 . S
N350 C347 1.351 1_554 S
N350 N351 1.365 1_554 S
N351 C348 1.341 . S
N351 N350 1.365 1_556 S
N351 H371 0.862 1_556 S
C352 C347 1.501 . S
C352 H353 0.961 1_556 S
C352 H354 0.961 . S
C352 H355 0.960 1_556 S
H353 C352 0.961 1_554 S
H354 C352 0.961 . S
H355 C352 0.960 1_554 S
C356 N357 1.342 . S
C356 C360 1.401 . S
C356 C361 1.499 . S
N357 Co340 1.989 1_556 S
N357 C356 1.342 . S
N357 N358 1.388 . S
N358 Co341 1.993 1_556 S
N358 N357 1.388 . S
N358 C359 1.346 . S
C359 N358 1.346 . S
C359 C360 1.396 . S
C359 C369 1.510 . S
C360 C356 1.401 . S
C360 C359 1.396 . S
C361 C356 1.499 . S
C361 H362 0.959 . S
C361 H363 0.960 . S
C361 H364 0.961 . S
H362 C361 0.959 . S
H363 C361 0.960 . S
H364 C361 0.961 . S
O365 Co340 1.967 . S
O365 C373 1.258 . S
O366 Co341 1.941 . S
O366 C373 1.266 . S
H367 C369 0.959 . S
H368 C369 0.961 . S
C369 C359 1.510 . S
C369 H367 0.959 . S
C369 H368 0.961 . S
C369 H370 0.960 . S
H370 C369 0.960 . S
H371 N351 0.862 1_554 S
O372 Co340 1.920 . S
O372 C345 1.289 . S
C373 O365 1.258 . S
C373 O366 1.266 . S
Co374 O377 1.970 . S
Co374 N391 1.989 . S
Co374 O399 1.967 . S
Co374 O406 1.920 . S
Co375 O378 1.966 . S
Co375 N384 2.022 . S
Co375 N392 1.993 . S
Co375 O400 1.941 . S
C376 O377 1.258 . S
C376 O378 1.263 . S
O377 Co374 1.970 . S
O377 C376 1.258 . S
O378 Co375 1.966 . S
O378 C376 1.263 . S
C379 O380 1.235 . S
C379 O406 1.289 . S
O380 C379 1.235 . S
C381 C383 1.400 . S
C381 N384 1.351 . S
C381 C386 1.501 . S
C382 C383 1.387 . S
C382 N385 1.341 . S
C383 C381 1.400 . S
C383 C382 1.387 . S
N384 Co375 2.022 . S
N384 C381 1.351 . S
N384 N385 1.365 . S
N385 C382 1.341 . S
N385 N384 1.365 . S
N385 H405 0.862 . S
C386 C381 1.501 . S
C386 H387 0.961 . S
C386 H388 0.961 . S
C386 H389 0.960 . S
H387 C386 0.961 . S
H388 C386 0.961 . S
H389 C386 0.960 . S
C390 N391 1.342 . S
C390 C394 1.401 . S
C390 C395 1.499 . S
N391 Co374 1.989 . S
N391 C390 1.342 . S
N391 N392 1.388 . S
N392 Co375 1.993 . S
N392 N391 1.388 . S
N392 C393 1.346 . S
C393 N392 1.346 . S
C393 C394 1.396 . S
C393 C403 1.510 . S
C394 C390 1.401 . S
C394 C393 1.396 . S
C395 C390 1.499 . S
C395 H396 0.959 . S
C395 H397 0.960 . S
C395 H398 0.961 . S
H396 C395 0.959 . S
H397 C395 0.960 . S
H398 C395 0.961 . S
O399 Co374 1.967 . S
O399 C407 1.258 . S
O400 Co375 1.941 . S
O400 C407 1.266 . S
H401 C403 0.959 . S
H402 C403 0.961 . S
C403 C393 1.510 . S
C403 H401 0.959 . S
C403 H402 0.961 . S
C403 H404 0.960 . S
H404 C403 0.960 . S
H405 N385 0.862 . S
O406 Co374 1.920 . S
O406 C379 1.289 . S
C407 O399 1.258 . S
C407 O400 1.266 . S
Co408 O411 1.970 . S
Co408 N425 1.989 1_554 S
Co408 O433 1.967 . S
Co408 O440 1.920 . S
Co409 O412 1.966 . S
Co409 N418 2.022 . S
Co409 N426 1.993 1_554 S
Co409 O434 1.941 . S
C410 O411 1.258 . S
C410 O412 1.263 . S
O411 Co408 1.970 . S
O411 C410 1.258 . S
O412 Co409 1.966 . S
O412 C410 1.263 . S
C413 O414 1.235 1_554 S
C413 O440 1.289 . S
O414 C413 1.235 1_556 S
C415 C417 1.400 . S
C415 N418 1.351 1_556 S
C415 C420 1.501 . S
C416 C417 1.387 . S
C416 N419 1.341 . S
C417 C415 1.400 . S
C417 C416 1.387 . S
N418 Co409 2.022 . S
N418 C415 1.351 1_554 S
N418 N419 1.365 1_554 S
N419 C416 1.341 . S
N419 N418 1.365 1_556 S
N419 H439 0.862 1_556 S
C420 C415 1.501 . S
C420 H421 0.961 1_556 S
C420 H422 0.961 . S
C420 H423 0.960 1_556 S
H421 C420 0.961 1_554 S
H422 C420 0.961 . S
H423 C420 0.960 1_554 S
C424 N425 1.342 . S
C424 C428 1.401 . S
C424 C429 1.499 . S
N425 Co408 1.989 1_556 S
N425 C424 1.342 . S
N425 N426 1.388 . S
N426 Co409 1.993 1_556 S
N426 N425 1.388 . S
N426 C427 1.346 . S
C427 N426 1.346 . S
C427 C428 1.396 . S
C427 C437 1.510 . S
C428 C424 1.401 . S
C428 C427 1.396 . S
C429 C424 1.499 . S
C429 H430 0.959 . S
C429 H431 0.960 . S
C429 H432 0.961 . S
H430 C429 0.959 . S
H431 C429 0.960 . S
H432 C429 0.961 . S
O433 Co408 1.967 . S
O433 C441 1.258 . S
O434 Co409 1.941 . S
O434 C441 1.266 . S
H435 C437 0.959 . S
H436 C437 0.961 . S
C437 C427 1.510 . S
C437 H435 0.959 . S
C437 H436 0.961 . S
C437 H438 0.960 . S
H438 C437 0.960 . S
H439 N419 0.862 1_554 S
O440 Co408 1.920 . S
O440 C413 1.289 . S
C441 O433 1.258 . S
C441 O434 1.266 . S
Co442 O445 1.970 . S
Co442 N459 1.989 . S
Co442 O467 1.967 . S
Co442 O474 1.920 . S
Co443 O446 1.966 . S
Co443 N452 2.022 . S
Co443 N460 1.993 . S
Co443 O468 1.941 . S
C444 O445 1.258 . S
C444 O446 1.263 . S
O445 Co442 1.970 . S
O445 C444 1.258 . S
O446 Co443 1.966 . S
O446 C444 1.263 . S
C447 O448 1.235 . S
C447 O474 1.289 . S
O448 C447 1.235 . S
C449 C451 1.400 . S
C449 N452 1.351 . S
C449 C454 1.501 . S
C450 C451 1.387 . S
C450 N453 1.341 . S
C451 C449 1.400 . S
C451 C450 1.387 . S
N452 Co443 2.022 . S
N452 C449 1.351 . S
N452 N453 1.365 . S
N453 C450 1.341 . S
N453 N452 1.365 . S
N453 H473 0.862 . S
C454 C449 1.501 . S
C454 H455 0.961 . S
C454 H456 0.961 . S
C454 H457 0.960 . S
H455 C454 0.961 . S
H456 C454 0.961 . S
H457 C454 0.960 . S
C458 N459 1.342 . S
C458 C462 1.401 . S
C458 C463 1.499 . S
N459 Co442 1.989 . S
N459 C458 1.342 . S
N459 N460 1.388 . S
N460 Co443 1.993 . S
N460 N459 1.388 . S
N460 C461 1.346 . S
C461 N460 1.346 . S
C461 C462 1.396 . S
C461 C471 1.510 . S
C462 C458 1.401 . S
C462 C461 1.396 . S
C463 C458 1.499 . S
C463 H464 0.959 . S
C463 H465 0.960 . S
C463 H466 0.961 . S
H464 C463 0.959 . S
H465 C463 0.960 . S
H466 C463 0.961 . S
O467 Co442 1.967 . S
O467 C475 1.258 . S
O468 Co443 1.941 . S
O468 C475 1.266 . S
H469 C471 0.959 . S
H470 C471 0.961 . S
C471 C461 1.510 . S
C471 H469 0.959 . S
C471 H470 0.961 . S
C471 H472 0.960 . S
H472 C471 0.960 . S
H473 N453 0.862 . S
O474 Co442 1.920 . S
O474 C447 1.289 . S
C475 O467 1.258 . S
C475 O468 1.266 . S
Co476 O479 1.970 . S
Co476 N493 1.989 . S
Co476 O501 1.967 . S
Co476 O508 1.920 . S
Co477 O480 1.966 . S
Co477 N486 2.022 . S
Co477 N494 1.993 . S
Co477 O502 1.941 . S
C478 O479 1.258 . S
C478 O480 1.263 . S
O479 Co476 1.970 . S
O479 C478 1.258 . S
O480 Co477 1.966 . S
O480 C478 1.263 . S
C481 O482 1.235 . S
C481 O508 1.289 . S
O482 C481 1.235 . S
C483 C485 1.400 . S
C483 N486 1.351 . S
C483 C488 1.501 . S
C484 C485 1.387 . S
C484 N487 1.341 . S
C485 C483 1.400 . S
C485 C484 1.387 . S
N486 Co477 2.022 . S
N486 C483 1.351 . S
N486 N487 1.365 . S
N487 C484 1.341 . S
N487 N486 1.365 . S
N487 H507 0.862 . S
C488 C483 1.501 . S
C488 H489 0.961 . S
C488 H490 0.961 . S
C488 H491 0.960 . S
H489 C488 0.961 . S
H490 C488 0.961 . S
H491 C488 0.960 . S
C492 N493 1.342 . S
C492 C496 1.401 . S
C492 C497 1.499 . S
N493 Co476 1.989 . S
N493 C492 1.342 . S
N493 N494 1.388 . S
N494 Co477 1.993 . S
N494 N493 1.388 . S
N494 C495 1.346 . S
C495 N494 1.346 . S
C495 C496 1.396 . S
C495 C505 1.510 . S
C496 C492 1.401 . S
C496 C495 1.396 . S
C497 C492 1.499 . S
C497 H498 0.959 . S
C497 H499 0.960 . S
C497 H500 0.961 . S
H498 C497 0.959 . S
H499 C497 0.960 . S
H500 C497 0.961 . S
O501 Co476 1.967 . S
O501 C509 1.258 . S
O502 Co477 1.941 . S
O502 C509 1.266 . S
H503 C505 0.959 . S
H504 C505 0.961 . S
C505 C495 1.510 . S
C505 H503 0.959 . S
C505 H504 0.961 . S
C505 H506 0.960 . S
H506 C505 0.960 . S
H507 N487 0.862 . S
O508 Co476 1.920 . S
O508 C481 1.289 . S
C509 O501 1.258 . S
C509 O502 1.266 . S
Co510 O513 1.970 . S
Co510 N527 1.989 . S
Co510 O535 1.967 . S
Co510 O542 1.920 . S
Co511 O514 1.966 . S
Co511 N520 2.022 . S
Co511 N528 1.993 . S
Co511 O536 1.941 . S
C512 O513 1.258 . S
C512 O514 1.263 . S
O513 Co510 1.970 . S
O513 C512 1.258 . S
O514 Co511 1.966 . S
O514 C512 1.263 . S
C515 O516 1.235 . S
C515 O542 1.289 . S
O516 C515 1.235 . S
C517 C519 1.400 . S
C517 N520 1.351 . S
C517 C522 1.501 . S
C518 C519 1.387 . S
C518 N521 1.341 . S
C519 C517 1.400 . S
C519 C518 1.387 . S
N520 Co511 2.022 . S
N520 C517 1.351 . S
N520 N521 1.365 . S
N521 C518 1.341 . S
N521 N520 1.365 . S
N521 H541 0.862 . S
C522 C517 1.501 . S
C522 H523 0.961 . S
C522 H524 0.961 . S
C522 H525 0.960 . S
H523 C522 0.961 . S
H524 C522 0.961 . S
H525 C522 0.960 . S
C526 N527 1.342 . S
C526 C530 1.401 . S
C526 C531 1.499 . S
N527 Co510 1.989 . S
N527 C526 1.342 . S
N527 N528 1.388 . S
N528 Co511 1.993 . S
N528 N527 1.388 . S
N528 C529 1.346 . S
C529 N528 1.346 . S
C529 C530 1.396 . S
C529 C539 1.510 . S
C530 C526 1.401 . S
C530 C529 1.396 . S
C531 C526 1.499 . S
C531 H532 0.959 . S
C531 H533 0.960 . S
C531 H534 0.961 . S
H532 C531 0.959 . S
H533 C531 0.960 . S
H534 C531 0.961 . S
O535 Co510 1.967 . S
O535 C543 1.258 . S
O536 Co511 1.941 . S
O536 C543 1.266 . S
H537 C539 0.959 . S
H538 C539 0.961 . S
C539 C529 1.510 . S
C539 H537 0.959 . S
C539 H538 0.961 . S
C539 H540 0.960 . S
H540 C539 0.960 . S
H541 N521 0.862 . S
O542 Co510 1.920 . S
O542 C515 1.289 . S
C543 O535 1.258 . S
C543 O536 1.266 . S
C544 C545 1.349 . S
C544 C546 1.327 . S
C544 H569 0.950 . S
C545 C544 1.349 . S
C545 C561 1.349 1_554 S
C546 C544 1.327 . S
C546 C565 1.429 . S
C546 H570 0.950 . S
C547 C564 1.574 1_655 S
C547 C566 1.368 1_546 S
C547 H571 0.949 . S
H548 C552 0.949 . S
C549 C550 1.349 1_556 S
C549 C551 1.327 . S
C549 H572 0.950 . S
C550 C549 1.349 1_554 S
C550 C562 1.349 . S
C551 C549 1.327 . S
C551 C567 1.429 1_556 S
C551 H573 0.950 . S
C552 H548 0.949 . S
C552 C560 1.574 1_455 S
C552 C568 1.368 1_565 S
H553 C561 0.950 . S
H554 C559 0.950 . S
H555 C560 0.949 . S
H556 C562 0.950 . S
H557 C563 0.950 . S
H558 C564 0.949 . S
C559 H554 0.950 . S
C559 C561 1.327 . S
C559 C565 1.429 1_556 S
C560 C552 1.574 1_655 S
C560 H555 0.949 . S
C560 C566 1.368 . S
C561 C545 1.349 1_556 S
C561 H553 0.950 . S
C561 C559 1.327 . S
C562 C550 1.349 . S
C562 H556 0.950 . S
C562 C563 1.327 . S
C563 H557 0.950 . S
C563 C562 1.327 . S
C563 C567 1.429 . S
C564 C547 1.574 1_455 S
C564 H558 0.949 . S
C564 C568 1.368 1_556 S
C565 C546 1.429 . S
C565 C559 1.429 1_554 S
C565 C566 1.523 . S
C566 C547 1.368 1_564 S
C566 C560 1.368 . S
C566 C565 1.523 . S
C567 C551 1.429 1_554 S
C567 C563 1.429 . S
C567 C568 1.523 . S
C568 C552 1.368 1_545 S
C568 C564 1.368 1_554 S
C568 C567 1.523 . S
H569 C544 0.950 . S
H570 C546 0.950 . S
H571 C547 0.949 . S
H572 C549 0.950 . S
H573 C551 0.950 . S
C574 C575 1.349 . S
C574 C576 1.327 . S
C574 H599 0.950 . S
C575 C574 1.349 . S
C575 C591 1.349 . S
C576 C574 1.327 . S
C576 C595 1.429 . S
C576 H600 0.950 . S
C577 C594 1.574 . S
C577 C596 1.368 1_455 S
C577 H601 0.949 . S
H578 C582 0.949 . S
C579 C580 1.349 . S
C579 C581 1.327 . S
C579 H602 0.950 . S
C580 C579 1.349 . S
C580 C592 1.349 . S
C581 C579 1.327 . S
C581 C597 1.429 . S
C581 H603 0.950 . S
C582 H578 0.949 . S
C582 C590 1.574 . S
C582 C598 1.368 1_655 S
H583 C591 0.950 . S
H584 C589 0.950 . S
H585 C590 0.949 . S
H586 C592 0.950 . S
H587 C593 0.950 . S
H588 C594 0.949 . S
C589 H584 0.950 . S
C589 C591 1.327 . S
C589 C595 1.429 . S
C590 C582 1.574 . S
C590 H585 0.949 . S
C590 C596 1.368 . S
C591 C575 1.349 . S
C591 H583 0.950 . S
C591 C589 1.327 . S
C592 C580 1.349 . S
C592 H586 0.950 . S
C592 C593 1.327 . S
C593 H587 0.950 . S
C593 C592 1.327 . S
C593 C597 1.429 . S
C594 C577 1.574 . S
C594 H588 0.949 . S
C594 C598 1.368 . S
C595 C576 1.429 . S
C595 C589 1.429 . S
C595 C596 1.523 . S
C596 C577 1.368 1_655 S
C596 C590 1.368 . S
C596 C595 1.523 . S
C597 C581 1.429 . S
C597 C593 1.429 . S
C597 C598 1.523 . S
C598 C582 1.368 1_455 S
C598 C594 1.368 . S
C598 C597 1.523 . S
H599 C574 0.950 . S
H600 C576 0.950 . S
H601 C577 0.949 . S
H602 C579 0.950 . S
H603 C581 0.950 . S
C604 C605 1.349 . S
C604 C606 1.327 . S
C604 H629 0.950 . S
C605 C604 1.349 . S
C605 C621 1.349 . S
C606 C604 1.327 . S
C606 C625 1.429 . S
C606 H630 0.950 . S
C607 C624 1.574 . S
C607 C626 1.368 . S
C607 H631 0.949 . S
H608 C612 0.949 . S
C609 C610 1.349 . S
C609 C611 1.327 . S
C609 H632 0.950 . S
C610 C609 1.349 . S
C610 C622 1.349 . S
C611 C609 1.327 . S
C611 C627 1.429 . S
C611 H633 0.950 . S
C612 H608 0.949 . S
C612 C620 1.574 . S
C612 C628 1.368 . S
H613 C621 0.950 . S
H614 C619 0.950 . S
H615 C620 0.949 . S
H616 C622 0.950 . S
H617 C623 0.950 . S
H618 C624 0.949 . S
C619 H614 0.950 . S
C619 C621 1.327 . S
C619 C625 1.429 . S
C620 C612 1.574 . S
C620 H615 0.949 . S
C620 C626 1.368 . S
C621 C605 1.349 . S
C621 H613 0.950 . S
C621 C619 1.327 . S
C622 C610 1.349 . S
C622 H616 0.950 . S
C622 C623 1.327 . S
C623 H617 0.950 . S
C623 C622 1.327 . S
C623 C627 1.429 . S
C624 C607 1.574 . S
C624 H618 0.949 . S
C624 C628 1.368 . S
C625 C606 1.429 . S
C625 C619 1.429 . S
C625 C626 1.523 . S
C626 C607 1.368 . S
C626 C620 1.368 . S
C626 C625 1.523 . S
C627 C611 1.429 . S
C627 C623 1.429 . S
C627 C628 1.523 . S
C628 C612 1.368 . S
C628 C624 1.368 . S
C628 C627 1.523 . S
H629 C604 0.950 . S
H630 C606 0.950 . S
H631 C607 0.949 . S
H632 C609 0.950 . S
H633 C611 0.950 . S
C634 C635 1.349 . S
C634 C636 1.327 . S
C634 H659 0.950 . S
C635 C634 1.349 . S
C635 C651 1.349 . S
C636 C634 1.327 . S
C636 C655 1.429 . S
C636 H660 0.950 . S
C637 C654 1.574 1_565 S
C637 C656 1.368 . S
C637 H661 0.949 . S
H638 C642 0.949 . S
C639 C640 1.349 . S
C639 C641 1.327 . S
C639 H662 0.950 . S
C640 C639 1.349 . S
C640 C652 1.349 . S
C641 C639 1.327 . S
C641 C657 1.429 . S
C641 H663 0.950 . S
C642 H638 0.949 . S
C642 C650 1.574 1_545 S
C642 C658 1.368 . S
H643 C651 0.950 . S
H644 C649 0.950 . S
H645 C650 0.949 . S
H646 C652 0.950 . S
H647 C653 0.950 . S
H648 C654 0.949 . S
C649 H644 0.950 . S
C649 C651 1.327 . S
C649 C655 1.429 . S
C650 C642 1.574 1_565 S
C650 H645 0.949 . S
C650 C656 1.368 . S
C651 C635 1.349 . S
C651 H643 0.950 . S
C651 C649 1.327 . S
C652 C640 1.349 . S
C652 H646 0.950 . S
C652 C653 1.327 . S
C653 H647 0.950 . S
C653 C652 1.327 . S
C653 C657 1.429 . S
C654 C637 1.574 1_545 S
C654 H648 0.949 . S
C654 C658 1.368 . S
C655 C636 1.429 . S
C655 C649 1.429 . S
C655 C656 1.523 . S
C656 C637 1.368 . S
C656 C650 1.368 . S
C656 C655 1.523 . S
C657 C641 1.429 . S
C657 C653 1.429 . S
C657 C658 1.523 . S
C658 C642 1.368 . S
C658 C654 1.368 . S
C658 C657 1.523 . S
H659 C634 0.950 . S
H660 C636 0.950 . S
H661 C637 0.949 . S
H662 C639 0.950 . S
H663 C641 0.950 . S
C664 C665 1.349 . S
C664 C666 1.327 . S
C664 H689 0.950 . S
C665 C664 1.349 . S
C665 C681 1.349 . S
C666 C664 1.327 . S
C666 C685 1.429 . S
C666 H690 0.950 . S
C667 C684 1.574 1_455 S
C667 C686 1.368 1_545 S
C667 H691 0.949 . S
H668 C672 0.949 . S
C669 C670 1.349 . S
C669 C671 1.327 . S
C669 H692 0.950 . S
C670 C669 1.349 . S
C670 C682 1.349 . S
C671 C669 1.327 . S
C671 C687 1.429 . S
C671 H693 0.950 . S
C672 H668 0.949 . S
C672 C680 1.574 1_655 S
C672 C688 1.368 1_565 S
H673 C681 0.950 . S
H674 C679 0.950 . S
H675 C680 0.949 . S
H676 C682 0.950 . S
H677 C683 0.950 . S
H678 C684 0.949 . S
C679 H674 0.950 . S
C679 C681 1.327 . S
C679 C685 1.429 . S
C680 C672 1.574 1_455 S
C680 H675 0.949 . S
C680 C686 1.368 . S
C681 C665 1.349 . S
C681 H673 0.950 . S
C681 C679 1.327 . S
C682 C670 1.349 . S
C682 H676 0.950 . S
C682 C683 1.327 . S
C683 H677 0.950 . S
C683 C682 1.327 . S
C683 C687 1.429 . S
C684 C667 1.574 1_655 S
C684 H678 0.949 . S
C684 C688 1.368 . S
C685 C666 1.429 . S
C685 C679 1.429 . S
C685 C686 1.523 . S
C686 C667 1.368 1_565 S
C686 C680 1.368 . S
C686 C685 1.523 . S
C687 C671 1.429 . S
C687 C683 1.429 . S
C687 C688 1.523 . S
C688 C672 1.368 1_545 S
C688 C684 1.368 . S
C688 C687 1.523 . S
H689 C664 0.950 . S
H690 C666 0.950 . S
H691 C667 0.949 . S
H692 C669 0.950 . S
H693 C671 0.950 . S
C694 C695 1.349 . S
C694 C696 1.327 . S
C694 H719 0.950 . S
C695 C694 1.349 . S
C695 C711 1.349 . S
C696 C694 1.327 . S
C696 C715 1.429 . S
C696 H720 0.950 . S
C697 C714 1.574 . S
C697 C716 1.368 . S
C697 H721 0.949 . S
H698 C702 0.949 . S
C699 C700 1.349 . S
C699 C701 1.327 . S
C699 H722 0.950 . S
C700 C699 1.349 . S
C700 C712 1.349 . S
C701 C699 1.327 . S
C701 C717 1.429 . S
C701 H723 0.950 . S
C702 H698 0.949 . S
C702 C710 1.574 . S
C702 C718 1.368 . S
H703 C711 0.950 . S
H704 C709 0.950 . S
H705 C710 0.949 . S
H706 C712 0.950 . S
H707 C713 0.950 . S
H708 C714 0.949 . S
C709 H704 0.950 . S
C709 C711 1.327 . S
C709 C715 1.429 . S
C710 C702 1.574 . S
C710 H705 0.949 . S
C710 C716 1.368 1_455 S
C711 C695 1.349 . S
C711 H703 0.950 . S
C711 C709 1.327 . S
C712 C700 1.349 . S
C712 H706 0.950 . S
C712 C713 1.327 . S
C713 H707 0.950 . S
C713 C712 1.327 . S
C713 C717 1.429 . S
C714 C697 1.574 . S
C714 H708 0.949 . S
C714 C718 1.368 1_655 S
C715 C696 1.429 . S
C715 C709 1.429 . S
C715 C716 1.523 . S
C716 C697 1.368 . S
C716 C710 1.368 1_655 S
C716 C715 1.523 . S
C717 C701 1.429 . S
C717 C713 1.429 . S
C717 C718 1.523 . S
C718 C702 1.368 . S
C718 C714 1.368 1_455 S
C718 C717 1.523 . S
H719 C694 0.950 . S
H720 C696 0.950 . S
H721 C697 0.949 . S
H722 C699 0.950 . S
H723 C701 0.950 . S
C724 C725 1.349 1_556 S
C724 C726 1.327 . S
C724 H749 0.950 . S
C725 C724 1.349 1_554 S
C725 C741 1.349 . S
C726 C724 1.327 . S
C726 C745 1.429 1_556 S
C726 H750 0.950 . S
C727 C744 1.574 . S
C727 C746 1.368 . S
C727 H751 0.949 . S
H728 C732 0.949 . S
C729 C730 1.349 . S
C729 C731 1.327 . S
C729 H752 0.950 . S
C730 C729 1.349 . S
C730 C742 1.349 1_554 S
C731 C729 1.327 . S
C731 C747 1.429 . S
C731 H753 0.950 . S
C732 H728 0.949 . S
C732 C740 1.574 . S
C732 C748 1.368 1_556 S
H733 C741 0.950 . S
H734 C739 0.950 . S
H735 C740 0.949 . S
H736 C742 0.950 . S
H737 C743 0.950 . S
H738 C744 0.949 . S
C739 H734 0.950 . S
C739 C741 1.327 . S
C739 C745 1.429 . S
C740 C732 1.574 . S
C740 H735 0.949 . S
C740 C746 1.368 1_556 S
C741 C725 1.349 . S
C741 H733 0.950 . S
C741 C739 1.327 . S
C742 C730 1.349 1_556 S
C742 H736 0.950 . S
C742 C743 1.327 . S
C743 H737 0.950 . S
C743 C742 1.327 . S
C743 C747 1.429 1_556 S
C744 C727 1.574 . S
C744 H738 0.949 . S
C744 C748 1.368 . S
C745 C726 1.429 1_554 S
C745 C739 1.429 . S
C745 C746 1.523 . S
C746 C727 1.368 . S
C746 C740 1.368 1_554 S
C746 C745 1.523 . S
C747 C731 1.429 . S
C747 C743 1.429 1_554 S
C747 C748 1.523 . S
C748 C732 1.368 1_554 S
C748 C744 1.368 . S
C748 C747 1.523 . S
H749 C724 0.950 . S
H750 C726 0.950 . S
H751 C727 0.949 . S
H752 C729 0.950 . S
H753 C731 0.950 . S
C754 C755 1.349 . S
C754 C756 1.327 . S
C754 H779 0.950 . S
C755 C754 1.349 . S
C755 C771 1.349 . S
C756 C754 1.327 . S
C756 C775 1.429 . S
C756 H780 0.950 . S
C757 C774 1.574 1_565 S
C757 C776 1.368 . S
C757 H781 0.949 . S
H758 C762 0.949 . S
C759 C760 1.349 . S
C759 C761 1.327 . S
C759 H782 0.950 . S
C760 C759 1.349 . S
C760 C772 1.349 . S
C761 C759 1.327 . S
C761 C777 1.429 . S
C761 H783 0.950 . S
C762 H758 0.949 . S
C762 C770 1.574 1_545 S
C762 C778 1.368 . S
H763 C771 0.950 . S
H764 C769 0.950 . S
H765 C770 0.949 . S
H766 C772 0.950 . S
H767 C773 0.950 . S
H768 C774 0.949 . S
C769 H764 0.950 . S
C769 C771 1.327 . S
C769 C775 1.429 . S
C770 C762 1.574 1_565 S
C770 H765 0.949 . S
C770 C776 1.368 . S
C771 C755 1.349 . S
C771 H763 0.950 . S
C771 C769 1.327 . S
C772 C760 1.349 . S
C772 H766 0.950 . S
C772 C773 1.327 . S
C773 H767 0.950 . S
C773 C772 1.327 . S
C773 C777 1.429 . S
C774 C757 1.574 1_545 S
C774 H768 0.949 . S
C774 C778 1.368 . S
C775 C756 1.429 . S
C775 C769 1.429 . S
C775 C776 1.523 . S
C776 C757 1.368 . S
C776 C770 1.368 . S
C776 C775 1.523 . S
C777 C761 1.429 . S
C777 C773 1.429 . S
C777 C778 1.523 . S
C778 C762 1.368 . S
C778 C774 1.368 . S
C778 C777 1.523 . S
H779 C754 0.950 . S
H780 C756 0.950 . S
H781 C757 0.949 . S
H782 C759 0.950 . S
H783 C761 0.950 . S
C784 C785 1.349 . S
C784 C786 1.327 . S
C784 H809 0.950 . S
C785 C784 1.349 . S
C785 C801 1.349 . S
C786 C784 1.327 . S
C786 C805 1.429 . S
C786 H810 0.950 . S
C787 C804 1.574 . S
C787 C806 1.368 1_545 S
C787 H811 0.949 . S
H788 C792 0.949 . S
C789 C790 1.349 . S
C789 C791 1.327 . S
C789 H812 0.950 . S
C790 C789 1.349 . S
C790 C802 1.349 . S
C791 C789 1.327 . S
C791 C807 1.429 . S
C791 H813 0.950 . S
C792 H788 0.949 . S
C792 C800 1.574 . S
C792 C808 1.368 1_565 S
H793 C801 0.950 . S
H794 C799 0.910 1_545 S
H795 C800 0.949 . S
H796 C802 0.950 . S
H797 C803 0.950 1_565 S
H798 C804 0.949 . S
C799 H794 0.910 1_565 S
C799 C801 1.345 . S
C799 C805 1.450 . S
C800 C792 1.574 . S
C800 H795 0.949 . S
C800 C806 1.368 . S
C801 C785 1.349 . S
C801 H793 0.950 . S
C801 C799 1.345 . S
C802 C790 1.349 . S
C802 H796 0.950 . S
C802 C803 1.327 . S
C803 H797 0.950 1_545 S
C803 C802 1.327 . S
C803 C807 1.429 . S
C804 C787 1.574 . S
C804 H798 0.949 . S
C804 C808 1.368 . S
C805 C786 1.429 . S
C805 C799 1.450 . S
C805 C806 1.523 . S
C806 C787 1.368 1_565 S
C806 C800 1.368 . S
C806 C805 1.523 . S
C807 C791 1.429 . S
C807 C803 1.429 . S
C807 C808 1.523 . S
C808 C792 1.368 1_545 S
C808 C804 1.368 . S
C808 C807 1.523 . S
H809 C784 0.950 . S
H810 C786 0.950 . S
H811 C787 0.949 . S
H812 C789 0.950 . S
H813 C791 0.950 . S
C814 C815 1.349 . S
C814 C816 1.327 . S
C814 H839 0.950 . S
C815 C814 1.349 . S
C815 C831 1.349 . S
C816 C814 1.327 . S
C816 C835 1.429 . S
C816 H840 0.950 . S
C817 C834 1.574 . S
C817 C836 1.368 1_655 S
C817 H841 0.949 . S
H818 C822 0.949 . S
C819 C820 1.349 . S
C819 C821 1.327 . S
C819 H842 0.950 . S
C820 C819 1.349 . S
C820 C832 1.349 . S
C821 C819 1.327 . S
C821 C837 1.429 . S
C821 H843 0.950 . S
C822 H818 0.949 . S
C822 C830 1.574 . S
C822 C838 1.368 1_455 S
H823 C831 0.950 . S
H824 C829 0.950 1_655 S
H825 C830 0.949 . S
H826 C832 0.950 . S
H827 C833 0.950 . S
H828 C834 0.949 . S
C829 H824 0.950 1_455 S
C829 C831 1.327 . S
C829 C835 1.429 . S
C830 C822 1.574 . S
C830 H825 0.949 . S
C830 C836 1.368 . S
C831 C815 1.349 . S
C831 H823 0.950 . S
C831 C829 1.327 . S
C832 C820 1.349 . S
C832 H826 0.950 . S
C832 C833 1.327 . S
C833 H827 0.950 . S
C833 C832 1.327 . S
C833 C837 1.429 . S
C834 C817 1.574 . S
C834 H828 0.949 . S
C834 C838 1.368 . S
C835 C816 1.429 . S
C835 C829 1.429 . S
C835 C836 1.523 . S
C836 C817 1.368 1_455 S
C836 C830 1.368 . S
C836 C835 1.523 . S
C837 C821 1.429 . S
C837 C833 1.429 . S
C837 C838 1.523 . S
C838 C822 1.368 1_655 S
C838 C834 1.368 . S
C838 C837 1.523 . S
H839 C814 0.950 . S
H840 C816 0.950 . S
H841 C817 0.949 . S
H842 C819 0.950 . S
H843 C821 0.950 . S
C844 C845 1.349 . S
C844 C846 1.327 . S
C844 H869 0.950 . S
C845 C844 1.349 . S
C845 C861 1.349 . S
C846 C844 1.327 . S
C846 C865 1.429 . S
C846 H870 0.950 . S
C847 C864 1.574 . S
C847 C866 1.368 . S
C847 H871 0.949 . S
H848 C852 0.949 . S
C849 C850 1.349 . S
C849 C851 1.327 . S
C849 H872 0.950 . S
C850 C849 1.349 . S
C850 C862 1.349 . S
C851 C849 1.327 . S
C851 C867 1.429 . S
C851 H873 0.950 . S
C852 H848 0.949 . S
C852 C860 1.574 . S
C852 C868 1.368 . S
H853 C861 0.950 . S
H854 C859 0.950 . S
H855 C860 0.949 . S
H856 C862 0.950 . S
H857 C863 0.950 . S
H858 C864 0.949 . S
C859 H854 0.950 . S
C859 C861 1.327 . S
C859 C865 1.429 . S
C860 C852 1.574 . S
C860 H855 0.949 . S
C860 C866 1.368 . S
C861 C845 1.349 . S
C861 H853 0.950 . S
C861 C859 1.327 . S
C862 C850 1.349 . S
C862 H856 0.950 . S
C862 C863 1.327 . S
C863 H857 0.950 . S
C863 C862 1.327 . S
C863 C867 1.429 . S
C864 C847 1.574 . S
C864 H858 0.949 . S
C864 C868 1.368 . S
C865 C846 1.429 . S
C865 C859 1.429 . S
C865 C866 1.523 . S
C866 C847 1.368 . S
C866 C860 1.368 . S
C866 C865 1.523 . S
C867 C851 1.429 . S
C867 C863 1.429 . S
C867 C868 1.523 . S
C868 C852 1.368 . S
C868 C864 1.368 . S
C868 C867 1.523 . S
H869 C844 0.950 . S
H870 C846 0.950 . S
H871 C847 0.949 . S
H872 C849 0.950 . S
H873 C851 0.950 . S
C874 C875 1.349 . S
C874 C876 1.327 . S
C874 H899 0.950 . S
C875 C874 1.349 . S
C875 C891 1.349 . S
C876 C874 1.327 . S
C876 C895 1.429 . S
C876 H900 0.950 . S
C877 C894 1.574 1_554 S
C877 C896 1.368 . S
C877 H901 0.949 . S
H878 C882 0.949 . S
C879 C880 1.349 . S
C879 C881 1.327 . S
C879 H902 0.950 . S
C880 C879 1.349 . S
C880 C892 1.349 . S
C881 C879 1.327 . S
C881 C897 1.429 . S
C881 H903 0.950 . S
C882 H878 0.949 . S
C882 C890 1.574 1_556 S
C882 C898 1.368 . S
H883 C891 0.950 . S
H884 C889 0.950 . S
H885 C890 0.949 . S
H886 C892 0.950 . S
H887 C893 0.950 . S
H888 C894 0.949 . S
C889 H884 0.950 . S
C889 C891 1.327 . S
C889 C895 1.429 . S
C890 C882 1.574 1_554 S
C890 H885 0.949 . S
C890 C896 1.368 . S
C891 C875 1.349 . S
C891 H883 0.950 . S
C891 C889 1.327 . S
C892 C880 1.349 . S
C892 H886 0.950 . S
C892 C893 1.327 . S
C893 H887 0.950 . S
C893 C892 1.327 . S
C893 C897 1.429 . S
C894 C877 1.574 1_556 S
C894 H888 0.949 . S
C894 C898 1.368 . S
C895 C876 1.429 . S
C895 C889 1.429 . S
C895 C896 1.523 . S
C896 C877 1.368 . S
C896 C890 1.368 . S
C896 C895 1.523 . S
C897 C881 1.429 . S
C897 C893 1.429 . S
C897 C898 1.523 . S
C898 C882 1.368 . S
C898 C894 1.368 . S
C898 C897 1.523 . S
H899 C874 0.950 . S
H900 C876 0.950 . S
H901 C877 0.949 . S
H902 C879 0.950 . S
H903 C881 0.950 . S
C904 C905 1.349 . S
C904 C906 1.327 . S
C904 H929 0.950 . S
C905 C904 1.349 . S
C905 C921 1.349 . S
C906 C904 1.327 . S
C906 C925 1.429 . S
C906 H930 0.950 . S
C907 C924 1.574 . S
C907 C926 1.368 1_565 S
C907 H931 0.949 . S
H908 C912 0.949 . S
C909 C910 1.349 . S
C909 C911 1.327 . S
C909 H932 0.950 . S
C910 C909 1.349 . S
C910 C922 1.349 . S
C911 C909 1.327 . S
C911 C927 1.429 . S
C911 H933 0.950 . S
C912 H908 0.949 . S
C912 C920 1.574 . S
C912 C928 1.368 1_545 S
H913 C921 0.950 . S
H914 C919 0.950 1_565 S
H915 C920 0.949 . S
H916 C922 0.946 1_545 S
H917 C923 0.949 . S
H918 C924 0.949 . S
C919 H914 0.950 1_545 S
C919 C921 1.327 . S
C919 C925 1.429 . S
C920 C912 1.574 . S
C920 H915 0.949 . S
C920 C926 1.368 . S
C921 C905 1.349 . S
C921 H913 0.950 . S
C921 C919 1.327 . S
C922 C910 1.349 . S
C922 H916 0.946 1_565 S
C922 C923 1.327 1_565 S
C923 H917 0.949 . S
C923 C922 1.327 1_545 S
C923 C927 1.429 1_545 S
C924 C907 1.574 . S
C924 H918 0.949 . S
C924 C928 1.368 . S
C925 C906 1.429 . S
C925 C919 1.429 . S
C925 C926 1.523 . S
C926 C907 1.368 1_545 S
C926 C920 1.368 . S
C926 C925 1.523 . S
C927 C911 1.429 . S
C927 C923 1.429 1_565 S
C927 C928 1.523 . S
C928 C912 1.368 1_565 S
C928 C924 1.368 . S
C928 C927 1.523 . S
H929 C904 0.950 . S
H930 C906 0.950 . S
H931 C907 0.949 . S
H932 C909 0.950 . S
H933 C911 0.950 . S
C934 C935 1.349 . S
C934 C936 1.327 . S
C934 H959 0.950 . S
C935 C934 1.349 . S
C935 C951 1.349 . S
C936 C934 1.327 . S
C936 C955 1.429 . S
C936 H960 0.950 . S
C937 C954 1.574 1_556 S
C937 C956 1.368 . S
C937 H961 0.949 . S
H938 C942 0.949 . S
C939 C940 1.349 . S
C939 C941 1.327 . S
C939 H962 0.950 . S
C940 C939 1.349 . S
C940 C952 1.349 . S
C941 C939 1.327 . S
C941 C957 1.429 . S
C941 H963 0.950 1_455 S
C942 H938 0.949 . S
C942 C950 1.567 1_454 S
C942 C958 1.368 . S
H943 C951 0.950 . S
H944 C949 0.950 . S
H945 C950 0.946 1_455 S
H946 C952 0.950 . S
H947 C953 0.950 . S
H948 C954 0.949 . S
C949 H944 0.950 . S
C949 C951 1.327 . S
C949 C955 1.429 . S
C950 C942 1.567 1_656 S
C950 H945 0.946 1_655 S
C950 C956 1.379 . S
C951 C935 1.349 . S
C951 H943 0.950 . S
C951 C949 1.327 . S
C952 C940 1.349 . S
C952 H946 0.950 . S
C952 C953 1.327 . S
C953 H947 0.950 . S
C953 C952 1.327 . S
C953 C957 1.429 . S
C954 C937 1.574 1_554 S
C954 H948 0.949 . S
C954 C958 1.368 1_655 S
C955 C936 1.429 . S
C955 C949 1.429 . S
C955 C956 1.523 . S
C956 C937 1.368 . S
C956 C950 1.379 . S
C956 C955 1.523 . S
C957 C941 1.429 . S
C957 C953 1.429 . S
C957 C958 1.523 . S
C958 C942 1.368 . S
C958 C954 1.368 1_455 S
C958 C957 1.523 . S
H959 C934 0.950 . S
H960 C936 0.950 . S
H961 C937 0.949 . S
H962 C939 0.950 . S
H963 C941 0.950 1_655 S
C964 C965 1.349 . S
C964 C966 1.327 . S
C964 H989 0.950 . S
C965 C964 1.349 . S
C965 C981 1.349 . S
C966 C964 1.327 . S
C966 C985 1.429 . S
C966 H990 0.950 . S
C967 C984 1.574 . S
C967 C986 1.368 . S
C967 H991 0.949 . S
H968 C972 0.949 . S
C969 C970 1.349 . S
C969 C971 1.327 . S
C969 H992 0.950 . S
C970 C969 1.349 . S
C970 C982 1.349 . S
C971 C969 1.327 . S
C971 C987 1.429 . S
C971 H993 0.950 . S
C972 H968 0.949 . S
C972 C980 1.574 . S
C972 C988 1.368 . S
H973 C981 0.950 . S
H974 C979 0.950 . S
H975 C980 0.949 . S
H976 C982 0.950 . S
H977 C983 0.950 . S
H978 C984 0.949 . S
C979 H974 0.950 . S
C979 C981 1.327 . S
C979 C985 1.429 . S
C980 C972 1.574 . S
C980 H975 0.949 . S
C980 C986 1.368 . S
C981 C965 1.349 . S
C981 H973 0.950 . S
C981 C979 1.327 . S
C982 C970 1.349 . S
C982 H976 0.950 . S
C982 C983 1.327 . S
C983 H977 0.950 . S
C983 C982 1.327 . S
C983 C987 1.429 . S
C984 C967 1.574 . S
C984 H978 0.949 . S
C984 C988 1.368 . S
C985 C966 1.429 . S
C985 C979 1.429 . S
C985 C986 1.523 . S
C986 C967 1.368 . S
C986 C980 1.368 . S
C986 C985 1.523 . S
C987 C971 1.429 . S
C987 C983 1.429 . S
C987 C988 1.523 . S
C988 C972 1.368 . S
C988 C984 1.368 . S
C988 C987 1.523 . S
H989 C964 0.950 . S
H990 C966 0.950 . S
H991 C967 0.949 . S
H992 C969 0.950 . S
H993 C971 0.950 . S
C994 C995 1.349 . S
C994 C996 1.327 . S
C994 H1019 0.950 . S
C995 C994 1.349 . S
C995 C1011 1.349 . S
C996 C994 1.327 . S
C996 C1015 1.429 . S
C996 H1020 0.950 . S
C997 C1014 1.574 . S
C997 C1016 1.368 . S
C997 H1021 0.949 . S
H998 C1002 0.949 . S
C999 C1000 1.349 . S
C999 C1001 1.327 . S
C999 H1022 0.950 . S
C1000 C999 1.349 . S
C1000 C1012 1.349 . S
C1001 C999 1.327 . S
C1001 C1017 1.429 . S
C1001 H1023 0.950 . S
C1002 H998 0.949 . S
C1002 C1010 1.574 . S
C1002 C1018 1.368 . S
H1003 C1011 0.950 . S
H1004 C1009 0.950 . S
H1005 C1010 0.949 . S
H1006 C1012 0.950 . S
H1007 C1013 0.950 . S
H1008 C1014 0.949 . S
C1009 H1004 0.950 . S
C1009 C1011 1.327 . S
C1009 C1015 1.429 . S
C1010 C1002 1.574 . S
C1010 H1005 0.949 . S
C1010 C1016 1.368 . S
C1011 C995 1.349 . S
C1011 H1003 0.950 . S
C1011 C1009 1.327 . S
C1012 C1000 1.349 . S
C1012 H1006 0.950 . S
C1012 C1013 1.327 . S
C1013 H1007 0.950 . S
C1013 C1012 1.327 . S
C1013 C1017 1.429 . S
C1014 C997 1.574 . S
C1014 H1008 0.949 . S
C1014 C1018 1.368 . S
C1015 C996 1.429 . S
C1015 C1009 1.429 . S
C1015 C1016 1.523 . S
C1016 C997 1.368 . S
C1016 C1010 1.368 . S
C1016 C1015 1.523 . S
C1017 C1001 1.429 . S
C1017 C1013 1.429 . S
C1017 C1018 1.523 . S
C1018 C1002 1.368 . S
C1018 C1014 1.368 . S
C1018 C1017 1.523 . S
H1019 C994 0.950 . S
H1020 C996 0.950 . S
H1021 C997 0.949 . S
H1022 C999 0.950 . S
H1023 C1001 0.950 . S
C1024 C1025 1.349 . S
C1024 C1026 1.327 . S
C1024 H1049 0.950 . S
C1025 C1024 1.349 . S
C1025 C1041 1.349 . S
C1026 C1024 1.327 . S
C1026 C1045 1.429 . S
C1026 H1050 0.950 . S
C1027 C1044 1.574 . S
C1027 C1046 1.368 . S
C1027 H1051 0.949 . S
H1028 C1032 0.949 . S
C1029 C1030 1.349 . S
C1029 C1031 1.327 . S
C1029 H1052 0.950 . S
C1030 C1029 1.349 . S
C1030 C1042 1.349 . S
C1031 C1029 1.327 . S
C1031 C1047 1.429 . S
C1031 H1053 0.950 . S
C1032 H1028 0.949 . S
C1032 C1040 1.574 . S
C1032 C1048 1.368 . S
H1033 C1041 0.950 . S
H1034 C1039 0.950 . S
H1035 C1040 0.949 . S
H1036 C1042 0.950 . S
H1037 C1043 0.950 . S
H1038 C1044 0.949 . S
C1039 H1034 0.950 . S
C1039 C1041 1.327 . S
C1039 C1045 1.429 . S
C1040 C1032 1.574 . S
C1040 H1035 0.949 . S
C1040 C1046 1.368 . S
C1041 C1025 1.349 . S
C1041 H1033 0.950 . S
C1041 C1039 1.327 . S
C1042 C1030 1.349 . S
C1042 H1036 0.950 . S
C1042 C1043 1.327 . S
C1043 H1037 0.950 . S
C1043 C1042 1.327 . S
C1043 C1047 1.429 . S
C1044 C1027 1.574 . S
C1044 H1038 0.949 . S
C1044 C1048 1.368 . S
C1045 C1026 1.429 . S
C1045 C1039 1.429 . S
C1045 C1046 1.523 . S
C1046 C1027 1.368 . S
C1046 C1040 1.368 . S
C1046 C1045 1.523 . S
C1047 C1031 1.429 . S
C1047 C1043 1.429 . S
C1047 C1048 1.523 . S
C1048 C1032 1.368 . S
C1048 C1044 1.368 . S
C1048 C1047 1.523 . S
H1049 C1024 0.950 . S
H1050 C1026 0.950 . S
H1051 C1027 0.949 . S
H1052 C1029 0.950 . S
H1053 C1031 0.950 . S
C1054 C1055 1.349 . S
C1054 C1056 1.327 . S
C1054 H1079 0.950 . S
C1055 C1054 1.349 . S
C1055 C1071 1.349 . S
C1056 C1054 1.327 . S
C1056 C1075 1.429 . S
C1056 H1080 0.950 . S
C1057 C1074 1.574 1_554 S
C1057 C1076 1.368 . S
C1057 H1081 0.949 . S
H1058 C1062 0.949 . S
C1059 C1060 1.349 . S
C1059 C1061 1.327 . S
C1059 H1082 0.950 . S
C1060 C1059 1.349 . S
C1060 C1072 1.349 . S
C1061 C1059 1.327 . S
C1061 C1077 1.429 . S
C1061 H1083 0.950 . S
C1062 H1058 0.949 . S
C1062 C1070 1.574 1_556 S
C1062 C1078 1.368 . S
H1063 C1071 0.950 . S
H1064 C1069 0.950 . S
H1065 C1070 0.949 . S
H1066 C1072 0.950 . S
H1067 C1073 0.950 . S
H1068 C1074 0.949 . S
C1069 H1064 0.950 . S
C1069 C1071 1.327 . S
C1069 C1075 1.429 . S
C1070 C1062 1.574 1_554 S
C1070 H1065 0.949 . S
C1070 C1076 1.368 . S
C1071 C1055 1.349 . S
C1071 H1063 0.950 . S
C1071 C1069 1.327 . S
C1072 C1060 1.349 . S
C1072 H1066 0.950 . S
C1072 C1073 1.327 . S
C1073 H1067 0.950 . S
C1073 C1072 1.327 . S
C1073 C1077 1.429 . S
C1074 C1057 1.574 1_556 S
C1074 H1068 0.949 . S
C1074 C1078 1.368 . S
C1075 C1056 1.429 . S
C1075 C1069 1.429 . S
C1075 C1076 1.523 . S
C1076 C1057 1.368 . S
C1076 C1070 1.368 . S
C1076 C1075 1.523 . S
C1077 C1061 1.429 . S
C1077 C1073 1.429 . S
C1077 C1078 1.523 . S
C1078 C1062 1.368 . S
C1078 C1074 1.368 . S
C1078 C1077 1.523 . S
H1079 C1054 0.950 . S
H1080 C1056 0.950 . S
H1081 C1057 0.949 . S
H1082 C1059 0.950 . S
H1083 C1061 0.950 . S
C1084 C1085 1.349 . S
C1084 C1086 1.327 . S
C1084 H1109 0.950 . S
C1085 C1084 1.349 . S
C1085 C1101 1.349 . S
C1086 C1084 1.327 . S
C1086 C1105 1.429 . S
C1086 H1110 0.950 . S
C1087 C1104 1.574 . S
C1087 C1106 1.368 1_565 S
C1087 H1111 0.949 . S
H1088 C1092 0.949 . S
C1089 C1090 1.349 . S
C1089 C1091 1.327 . S
C1089 H1112 0.950 . S
C1090 C1089 1.349 . S
C1090 C1102 1.349 . S
C1091 C1089 1.327 . S
C1091 C1107 1.429 . S
C1091 H1113 0.950 . S
C1092 H1088 0.949 . S
C1092 C1100 1.574 . S
C1092 C1108 1.368 1_545 S
H1093 C1101 0.950 . S
H1094 C1099 0.912 1_565 S
H1095 C1100 0.949 . S
H1096 C1102 0.950 . S
H1097 C1103 0.950 1_545 S
H1098 C1104 0.949 . S
C1099 H1094 0.912 1_545 S
C1099 C1101 1.344 . S
C1099 C1105 1.449 . S
C1100 C1092 1.574 . S
C1100 H1095 0.949 . S
C1100 C1106 1.368 . S
C1101 C1085 1.349 . S
C1101 H1093 0.950 . S
C1101 C1099 1.344 . S
C1102 C1090 1.349 . S
C1102 H1096 0.950 . S
C1102 C1103 1.327 . S
C1103 H1097 0.950 1_565 S
C1103 C1102 1.327 . S
C1103 C1107 1.429 . S
C1104 C1087 1.574 . S
C1104 H1098 0.949 . S
C1104 C1108 1.368 . S
C1105 C1086 1.429 . S
C1105 C1099 1.449 . S
C1105 C1106 1.523 . S
C1106 C1087 1.368 1_545 S
C1106 C1100 1.368 . S
C1106 C1105 1.523 . S
C1107 C1091 1.429 . S
C1107 C1103 1.429 . S
C1107 C1108 1.523 . S
C1108 C1092 1.368 1_565 S
C1108 C1104 1.368 . S
C1108 C1107 1.523 . S
H1109 C1084 0.950 . S
H1110 C1086 0.950 . S
H1111 C1087 0.949 . S
H1112 C1089 0.950 . S
H1113 C1091 0.950 . S
C1114 C1115 1.349 . S
C1114 C1116 1.327 . S
C1114 H1139 0.950 . S
C1115 C1114 1.349 . S
C1115 C1131 1.349 . S
C1116 C1114 1.327 . S
C1116 C1135 1.429 . S
C1116 H1140 0.950 . S
C1117 C1134 1.572 . S
C1117 C1136 1.372 1_655 S
C1117 H1141 0.948 . S
H1118 C1122 0.949 . S
C1119 C1120 1.349 . S
C1119 C1121 1.327 . S
C1119 H1142 0.950 . S
C1120 C1119 1.349 . S
C1120 C1132 1.349 . S
C1121 C1119 1.327 . S
C1121 C1137 1.429 . S
C1121 H1143 0.950 . S
C1122 H1118 0.949 . S
C1122 C1130 1.574 . S
C1122 C1138 1.368 1_455 S
H1123 C1131 0.950 . S
H1124 C1129 0.950 . S
H1125 C1130 0.949 . S
H1126 C1132 0.950 . S
H1127 C1133 0.950 1_455 S
H1128 C1134 0.949 . S
C1129 H1124 0.950 . S
C1129 C1131 1.327 . S
C1129 C1135 1.429 . S
C1130 C1122 1.574 . S
C1130 H1125 0.949 . S
C1130 C1136 1.368 . S
C1131 C1115 1.349 . S
C1131 H1123 0.950 . S
C1131 C1129 1.327 . S
C1132 C1120 1.349 . S
C1132 H1126 0.950 . S
C1132 C1133 1.327 . S
C1133 H1127 0.950 1_655 S
C1133 C1132 1.327 . S
C1133 C1137 1.429 . S
C1134 C1117 1.572 . S
C1134 H1128 0.949 . S
C1134 C1138 1.368 . S
C1135 C1116 1.429 . S
C1135 C1129 1.429 . S
C1135 C1136 1.523 . S
C1136 C1117 1.372 1_455 S
C1136 C1130 1.368 . S
C1136 C1135 1.523 . S
C1137 C1121 1.429 . S
C1137 C1133 1.429 . S
C1137 C1138 1.523 . S
C1138 C1122 1.368 1_655 S
C1138 C1134 1.368 . S
C1138 C1137 1.523 . S
H1139 C1114 0.950 . S
H1140 C1116 0.950 . S
H1141 C1117 0.948 . S
H1142 C1119 0.950 . S
H1143 C1121 0.950 . S
C1144 C1145 1.349 . S
C1144 C1146 1.327 . S
C1144 H1169 0.950 . S
C1145 C1144 1.349 . S
C1145 C1161 1.349 . S
C1146 C1144 1.327 . S
C1146 C1165 1.429 . S
C1146 H1170 0.950 . S
C1147 C1164 1.574 . S
C1147 C1166 1.368 . S
C1147 H1171 0.949 . S
H1148 C1152 0.949 . S
C1149 C1150 1.349 . S
C1149 C1151 1.327 . S
C1149 H1172 0.950 . S
C1150 C1149 1.349 . S
C1150 C1162 1.349 . S
C1151 C1149 1.327 . S
C1151 C1167 1.429 . S
C1151 H1173 0.950 . S
C1152 H1148 0.949 . S
C1152 C1160 1.574 . S
C1152 C1168 1.368 . S
H1153 C1161 0.950 . S
H1154 C1159 0.950 . S
H1155 C1160 0.949 . S
H1156 C1162 0.950 . S
H1157 C1163 0.950 . S
H1158 C1164 0.949 . S
C1159 H1154 0.950 . S
C1159 C1161 1.327 . S
C1159 C1165 1.429 . S
C1160 C1152 1.574 . S
C1160 H1155 0.949 . S
C1160 C1166 1.368 . S
C1161 C1145 1.349 . S
C1161 H1153 0.950 . S
C1161 C1159 1.327 . S
C1162 C1150 1.349 . S
C1162 H1156 0.950 . S
C1162 C1163 1.327 . S
C1163 H1157 0.950 . S
C1163 C1162 1.327 . S
C1163 C1167 1.429 . S
C1164 C1147 1.574 . S
C1164 H1158 0.949 . S
C1164 C1168 1.368 . S
C1165 C1146 1.429 . S
C1165 C1159 1.429 . S
C1165 C1166 1.523 . S
C1166 C1147 1.368 . S
C1166 C1160 1.368 . S
C1166 C1165 1.523 . S
C1167 C1151 1.429 . S
C1167 C1163 1.429 . S
C1167 C1168 1.523 . S
C1168 C1152 1.368 . S
C1168 C1164 1.368 . S
C1168 C1167 1.523 . S
H1169 C1144 0.950 . S
H1170 C1146 0.950 . S
H1171 C1147 0.949 . S
H1172 C1149 0.950 . S
H1173 C1151 0.950 . S
C1174 C1175 1.349 . S
C1174 C1176 1.327 . S
C1174 H1199 0.950 . S
C1175 C1174 1.349 . S
C1175 C1191 1.349 . S
C1176 C1174 1.327 . S
C1176 C1195 1.429 . S
C1176 H1200 0.950 . S
C1177 C1194 1.574 . S
C1177 C1196 1.368 . S
C1177 H1201 0.949 . S
H1178 C1182 0.949 . S
C1179 C1180 1.349 . S
C1179 C1181 1.327 . S
C1179 H1202 0.950 . S
C1180 C1179 1.349 . S
C1180 C1192 1.349 . S
C1181 C1179 1.327 . S
C1181 C1197 1.429 . S
C1181 H1203 0.950 . S
C1182 H1178 0.949 . S
C1182 C1190 1.574 . S
C1182 C1198 1.368 . S
H1183 C1191 0.950 . S
H1184 C1189 0.950 . S
H1185 C1190 0.949 . S
H1186 C1192 0.950 . S
H1187 C1193 0.950 . S
H1188 C1194 0.949 . S
C1189 H1184 0.950 . S
C1189 C1191 1.327 . S
C1189 C1195 1.429 . S
C1190 C1182 1.574 . S
C1190 H1185 0.949 . S
C1190 C1196 1.368 . S
C1191 C1175 1.349 . S
C1191 H1183 0.950 . S
C1191 C1189 1.327 . S
C1192 C1180 1.349 . S
C1192 H1186 0.950 . S
C1192 C1193 1.327 . S
C1193 H1187 0.950 . S
C1193 C1192 1.327 . S
C1193 C1197 1.429 . S
C1194 C1177 1.574 . S
C1194 H1188 0.949 . S
C1194 C1198 1.368 . S
C1195 C1176 1.429 . S
C1195 C1189 1.429 . S
C1195 C1196 1.523 . S
C1196 C1177 1.368 . S
C1196 C1190 1.368 . S
C1196 C1195 1.523 . S
C1197 C1181 1.429 . S
C1197 C1193 1.429 . S
C1197 C1198 1.523 . S
C1198 C1182 1.368 . S
C1198 C1194 1.368 . S
C1198 C1197 1.523 . S
H1199 C1174 0.950 . S
H1200 C1176 0.950 . S
H1201 C1177 0.949 . S
H1202 C1179 0.950 . S
H1203 C1181 0.950 . S
C1204 C1205 1.349 . S
C1204 C1206 1.327 . S
C1204 H1229 0.950 . S
C1205 C1204 1.349 . S
C1205 C1221 1.349 . S
C1206 C1204 1.327 . S
C1206 C1225 1.429 . S
C1206 H1230 0.950 1_565 S
C1207 C1224 1.574 . S
C1207 C1226 1.368 . S
C1207 H1231 0.949 . S
H1208 C1212 0.949 . S
C1209 C1210 1.349 . S
C1209 C1211 1.327 1_545 S
C1209 H1232 0.946 1_545 S
C1210 C1209 1.349 . S
C1210 C1222 1.349 . S
C1211 C1209 1.327 1_565 S
C1211 C1227 1.429 1_565 S
C1211 H1233 0.949 . S
C1212 H1208 0.949 . S
C1212 C1220 1.574 . S
C1212 C1228 1.368 . S
H1213 C1221 0.950 . S
H1214 C1219 0.950 . S
H1215 C1220 0.949 . S
H1216 C1222 0.950 . S
H1217 C1223 0.950 . S
H1218 C1224 0.949 . S
C1219 H1214 0.950 . S
C1219 C1221 1.327 . S
C1219 C1225 1.429 . S
C1220 C1212 1.574 . S
C1220 H1215 0.949 . S
C1220 C1226 1.368 1_545 S
C1221 C1205 1.349 . S
C1221 H1213 0.950 . S
C1221 C1219 1.327 . S
C1222 C1210 1.349 . S
C1222 H1216 0.950 . S
C1222 C1223 1.327 . S
C1223 H1217 0.950 . S
C1223 C1222 1.327 . S
C1223 C1227 1.429 . S
C1224 C1207 1.574 . S
C1224 H1218 0.949 . S
C1224 C1228 1.368 1_565 S
C1225 C1206 1.429 . S
C1225 C1219 1.429 . S
C1225 C1226 1.523 . S
C1226 C1207 1.368 . S
C1226 C1220 1.368 1_565 S
C1226 C1225 1.523 . S
C1227 C1211 1.429 1_545 S
C1227 C1223 1.429 . S
C1227 C1228 1.523 . S
C1228 C1212 1.368 . S
C1228 C1224 1.368 1_545 S
C1228 C1227 1.523 . S
H1229 C1204 0.950 . S
H1230 C1206 0.950 1_545 S
H1231 C1207 0.949 . S
H1232 C1209 0.946 1_565 S
H1233 C1211 0.949 . S
C1234 C1235 1.349 . S
C1234 C1236 1.327 . S
C1234 H1259 0.950 . S
C1235 C1234 1.349 . S
C1235 C1251 1.349 . S
C1236 C1234 1.327 . S
C1236 C1255 1.429 . S
C1236 H1260 0.950 1_655 S
C1237 C1254 1.587 1_554 S
C1237 C1256 1.368 . S
C1237 H1261 0.949 . S
H1238 C1242 0.949 . S
C1239 C1240 1.349 . S
C1239 C1241 1.327 . S
C1239 H1262 0.950 . S
C1240 C1239 1.349 . S
C1240 C1252 1.349 . S
C1241 C1239 1.327 . S
C1241 C1257 1.429 . S
C1241 H1263 0.950 . S
C1242 H1238 0.949 . S
C1242 C1250 1.574 1_556 S
C1242 C1258 1.368 . S
H1243 C1251 0.950 . S
H1244 C1249 0.950 . S
H1245 C1250 0.949 . S
H1246 C1252 0.950 . S
H1247 C1253 0.950 . S
H1248 C1254 0.957 . S
C1249 H1244 0.950 . S
C1249 C1251 1.327 . S
C1249 C1255 1.429 . S
C1250 C1242 1.574 1_554 S
C1250 H1245 0.949 . S
C1250 C1256 1.368 1_455 S
C1251 C1235 1.349 . S
C1251 H1243 0.950 . S
C1251 C1249 1.327 . S
C1252 C1240 1.349 . S
C1252 H1246 0.950 . S
C1252 C1253 1.327 . S
C1253 H1247 0.950 . S
C1253 C1252 1.327 . S
C1253 C1257 1.429 . S
C1254 C1237 1.587 1_556 S
C1254 H1248 0.957 . S
C1254 C1258 1.347 1_655 S
C1255 C1236 1.429 . S
C1255 C1249 1.429 . S
C1255 C1256 1.523 . S
C1256 C1237 1.368 . S
C1256 C1250 1.368 1_655 S
C1256 C1255 1.523 . S
C1257 C1241 1.429 . S
C1257 C1253 1.429 . S
C1257 C1258 1.523 . S
C1258 C1242 1.368 . S
C1258 C1254 1.347 1_455 S
C1258 C1257 1.523 . S
H1259 C1234 0.950 . S
H1260 C1236 0.950 1_455 S
H1261 C1237 0.949 . S
H1262 C1239 0.950 . S
H1263 C1241 0.950 . S
C1264 C1265 1.349 . S
C1264 C1266 1.327 . S
C1264 H1289 0.950 . S
C1265 C1264 1.349 . S
C1265 C1281 1.349 . S
C1266 C1264 1.327 . S
C1266 C1285 1.429 . S
C1266 H1290 0.950 . S
C1267 C1284 1.574 . S
C1267 C1286 1.368 . S
C1267 H1291 0.949 . S
H1268 C1272 0.949 . S
C1269 C1270 1.349 . S
C1269 C1271 1.327 . S
C1269 H1292 0.950 . S
C1270 C1269 1.349 . S
C1270 C1282 1.349 . S
C1271 C1269 1.327 . S
C1271 C1287 1.429 . S
C1271 H1293 0.950 . S
C1272 H1268 0.949 . S
C1272 C1280 1.574 . S
C1272 C1288 1.368 . S
H1273 C1281 0.950 . S
H1274 C1279 0.950 . S
H1275 C1280 0.949 . S
H1276 C1282 0.950 . S
H1277 C1283 0.950 . S
H1278 C1284 0.949 . S
C1279 H1274 0.950 . S
C1279 C1281 1.327 . S
C1279 C1285 1.429 . S
C1280 C1272 1.574 . S
C1280 H1275 0.949 . S
C1280 C1286 1.368 . S
C1281 C1265 1.349 . S
C1281 H1273 0.950 . S
C1281 C1279 1.327 . S
C1282 C1270 1.349 . S
C1282 H1276 0.950 . S
C1282 C1283 1.327 . S
C1283 H1277 0.950 . S
C1283 C1282 1.327 . S
C1283 C1287 1.429 . S
C1284 C1267 1.574 . S
C1284 H1278 0.949 . S
C1284 C1288 1.368 . S
C1285 C1266 1.429 . S
C1285 C1279 1.429 . S
C1285 C1286 1.523 . S
C1286 C1267 1.368 . S
C1286 C1280 1.368 . S
C1286 C1285 1.523 . S
C1287 C1271 1.429 . S
C1287 C1283 1.429 . S
C1287 C1288 1.523 . S
C1288 C1272 1.368 . S
C1288 C1284 1.368 . S
C1288 C1287 1.523 . S
H1289 C1264 0.950 . S
H1290 C1266 0.950 . S
H1291 C1267 0.949 . S
H1292 C1269 0.950 . S
H1293 C1271 0.950 . S
C1294 C1295 1.349 . S
C1294 C1296 1.327 . S
C1294 H1319 0.950 . S
C1295 C1294 1.349 . S
C1295 C1311 1.349 . S
C1296 C1294 1.327 . S
C1296 C1315 1.429 . S
C1296 H1320 0.950 . S
C1297 C1314 1.574 . S
C1297 C1316 1.368 . S
C1297 H1321 0.949 . S
H1298 C1302 0.949 . S
C1299 C1300 1.349 . S
C1299 C1301 1.327 . S
C1299 H1322 0.950 . S
C1300 C1299 1.349 . S
C1300 C1312 1.349 . S
C1301 C1299 1.327 . S
C1301 C1317 1.429 . S
C1301 H1323 0.950 . S
C1302 H1298 0.949 . S
C1302 C1310 1.574 . S
C1302 C1318 1.368 . S
H1303 C1311 0.950 . S
H1304 C1309 0.950 . S
H1305 C1310 0.949 . S
H1306 C1312 0.950 . S
H1307 C1313 0.950 . S
H1308 C1314 0.949 . S
C1309 H1304 0.950 . S
C1309 C1311 1.327 . S
C1309 C1315 1.429 . S
C1310 C1302 1.574 . S
C1310 H1305 0.949 . S
C1310 C1316 1.368 . S
C1311 C1295 1.349 . S
C1311 H1303 0.950 . S
C1311 C1309 1.327 . S
C1312 C1300 1.349 . S
C1312 H1306 0.950 . S
C1312 C1313 1.327 . S
C1313 H1307 0.950 . S
C1313 C1312 1.327 . S
C1313 C1317 1.429 . S
C1314 C1297 1.574 . S
C1314 H1308 0.949 . S
C1314 C1318 1.368 . S
C1315 C1296 1.429 . S
C1315 C1309 1.429 . S
C1315 C1316 1.523 . S
C1316 C1297 1.368 . S
C1316 C1310 1.368 . S
C1316 C1315 1.523 . S
C1317 C1301 1.429 . S
C1317 C1313 1.429 . S
C1317 C1318 1.523 . S
C1318 C1302 1.368 . S
C1318 C1314 1.368 . S
C1318 C1317 1.523 . S
H1319 C1294 0.950 . S
H1320 C1296 0.950 . S
H1321 C1297 0.949 . S
H1322 C1299 0.950 . S
H1323 C1301 0.950 . S
C1324 C1325 1.349 . S
C1324 C1326 1.327 . S
C1324 H1349 0.950 . S
C1325 C1324 1.349 . S
C1325 C1341 1.349 . S
C1326 C1324 1.327 . S
C1326 C1345 1.429 . S
C1326 H1350 0.950 . S
C1327 C1344 1.574 . S
C1327 C1346 1.368 . S
C1327 H1351 0.949 . S
H1328 C1332 0.949 . S
C1329 C1330 1.349 . S
C1329 C1331 1.327 . S
C1329 H1352 0.950 . S
C1330 C1329 1.349 . S
C1330 C1342 1.349 . S
C1331 C1329 1.327 . S
C1331 C1347 1.429 . S
C1331 H1353 0.950 . S
C1332 H1328 0.949 . S
C1332 C1340 1.574 . S
C1332 C1348 1.368 . S
H1333 C1341 0.950 . S
H1334 C1339 0.950 . S
H1335 C1340 0.949 . S
H1336 C1342 0.950 . S
H1337 C1343 0.950 . S
H1338 C1344 0.949 . S
C1339 H1334 0.950 . S
C1339 C1341 1.327 . S
C1339 C1345 1.429 . S
C1340 C1332 1.574 . S
C1340 H1335 0.949 . S
C1340 C1346 1.368 . S
C1341 C1325 1.349 . S
C1341 H1333 0.950 . S
C1341 C1339 1.327 . S
C1342 C1330 1.349 . S
C1342 H1336 0.950 . S
C1342 C1343 1.327 . S
C1343 H1337 0.950 . S
C1343 C1342 1.327 . S
C1343 C1347 1.429 . S
C1344 C1327 1.574 . S
C1344 H1338 0.949 . S
C1344 C1348 1.368 . S
C1345 C1326 1.429 . S
C1345 C1339 1.429 . S
C1345 C1346 1.523 . S
C1346 C1327 1.368 . S
C1346 C1340 1.368 . S
C1346 C1345 1.523 . S
C1347 C1331 1.429 . S
C1347 C1343 1.429 . S
C1347 C1348 1.523 . S
C1348 C1332 1.368 . S
C1348 C1344 1.368 . S
C1348 C1347 1.523 . S
H1349 C1324 0.950 . S
H1350 C1326 0.950 . S
H1351 C1327 0.949 . S
H1352 C1329 0.950 . S
H1353 C1331 0.950 . S
C1354 C1355 1.349 . S
C1354 C1356 1.327 . S
C1354 H1379 0.950 . S
C1355 C1354 1.349 . S
C1355 C1371 1.349 . S
C1356 C1354 1.327 . S
C1356 C1375 1.429 . S
C1356 H1380 0.950 . S
C1357 C1374 1.574 . S
C1357 C1376 1.368 . S
C1357 H1381 0.949 . S
H1358 C1362 0.949 . S
C1359 C1360 1.349 . S
C1359 C1361 1.327 . S
C1359 H1382 0.950 . S
C1360 C1359 1.349 . S
C1360 C1372 1.349 . S
C1361 C1359 1.327 . S
C1361 C1377 1.429 . S
C1361 H1383 0.950 . S
C1362 H1358 0.949 . S
C1362 C1370 1.574 . S
C1362 C1378 1.368 . S
H1363 C1371 0.950 . S
H1364 C1369 0.950 . S
H1365 C1370 0.949 . S
H1366 C1372 0.950 . S
H1367 C1373 0.950 . S
H1368 C1374 0.949 . S
C1369 H1364 0.950 . S
C1369 C1371 1.327 . S
C1369 C1375 1.429 . S
C1370 C1362 1.574 . S
C1370 H1365 0.949 . S
C1370 C1376 1.368 . S
C1371 C1355 1.349 . S
C1371 H1363 0.950 . S
C1371 C1369 1.327 . S
C1372 C1360 1.349 . S
C1372 H1366 0.950 . S
C1372 C1373 1.327 . S
C1373 H1367 0.950 . S
C1373 C1372 1.327 . S
C1373 C1377 1.429 . S
C1374 C1357 1.574 . S
C1374 H1368 0.949 . S
C1374 C1378 1.368 . S
C1375 C1356 1.429 . S
C1375 C1369 1.429 . S
C1375 C1376 1.523 . S
C1376 C1357 1.368 . S
C1376 C1370 1.368 . S
C1376 C1375 1.523 . S
C1377 C1361 1.429 . S
C1377 C1373 1.429 . S
C1377 C1378 1.523 . S
C1378 C1362 1.368 . S
C1378 C1374 1.368 . S
C1378 C1377 1.523 . S
H1379 C1354 0.950 . S
H1380 C1356 0.950 . S
H1381 C1357 0.949 . S
H1382 C1359 0.950 . S
H1383 C1361 0.950 . S
C1384 C1385 1.349 . S
C1384 C1386 1.327 . S
C1384 H1409 0.950 . S
C1385 C1384 1.349 . S
C1385 C1401 1.349 . S
C1386 C1384 1.327 . S
C1386 C1405 1.429 . S
C1386 H1410 0.950 . S
C1387 C1404 1.574 . S
C1387 C1406 1.368 . S
C1387 H1411 0.949 . S
H1388 C1392 0.949 . S
C1389 C1390 1.349 . S
C1389 C1391 1.327 . S
C1389 H1412 0.950 . S
C1390 C1389 1.349 . S
C1390 C1402 1.349 . S
C1391 C1389 1.327 . S
C1391 C1407 1.429 . S
C1391 H1413 0.950 . S
C1392 H1388 0.949 . S
C1392 C1400 1.574 . S
C1392 C1408 1.368 . S
H1393 C1401 0.950 . S
H1394 C1399 0.950 . S
H1395 C1400 0.949 . S
H1396 C1402 0.950 . S
H1397 C1403 0.950 . S
H1398 C1404 0.949 . S
C1399 H1394 0.950 . S
C1399 C1401 1.327 . S
C1399 C1405 1.429 . S
C1400 C1392 1.574 . S
C1400 H1395 0.949 . S
C1400 C1406 1.368 . S
C1401 C1385 1.349 . S
C1401 H1393 0.950 . S
C1401 C1399 1.327 . S
C1402 C1390 1.349 . S
C1402 H1396 0.950 . S
C1402 C1403 1.327 . S
C1403 H1397 0.950 . S
C1403 C1402 1.327 . S
C1403 C1407 1.429 . S
C1404 C1387 1.574 . S
C1404 H1398 0.949 . S
C1404 C1408 1.368 . S
C1405 C1386 1.429 . S
C1405 C1399 1.429 . S
C1405 C1406 1.523 . S
C1406 C1387 1.368 . S
C1406 C1400 1.368 . S
C1406 C1405 1.523 . S
C1407 C1391 1.429 . S
C1407 C1403 1.429 . S
C1407 C1408 1.523 . S
C1408 C1392 1.368 . S
C1408 C1404 1.368 . S
C1408 C1407 1.523 . S
H1409 C1384 0.950 . S
H1410 C1386 0.950 . S
H1411 C1387 0.949 . S
H1412 C1389 0.950 . S
H1413 C1391 0.950 . S
C1414 C1415 1.349 . S
C1414 C1416 1.327 . S
C1414 H1439 0.950 . S
C1415 C1414 1.349 . S
C1415 C1431 1.349 . S
C1416 C1414 1.327 . S
C1416 C1435 1.429 . S
C1416 H1440 0.950 . S
C1417 C1434 1.574 . S
C1417 C1436 1.368 . S
C1417 H1441 0.949 . S
H1418 C1422 0.949 . S
C1419 C1420 1.349 . S
C1419 C1421 1.327 . S
C1419 H1442 0.950 . S
C1420 C1419 1.349 . S
C1420 C1432 1.349 . S
C1421 C1419 1.327 . S
C1421 C1437 1.429 . S
C1421 H1443 0.950 . S
C1422 H1418 0.949 . S
C1422 C1430 1.574 . S
C1422 C1438 1.368 . S
H1423 C1431 0.950 . S
H1424 C1429 0.950 . S
H1425 C1430 0.949 . S
H1426 C1432 0.950 . S
H1427 C1433 0.950 . S
H1428 C1434 0.949 . S
C1429 H1424 0.950 . S
C1429 C1431 1.327 . S
C1429 C1435 1.429 . S
C1430 C1422 1.574 . S
C1430 H1425 0.949 . S
C1430 C1436 1.368 . S
C1431 C1415 1.349 . S
C1431 H1423 0.950 . S
C1431 C1429 1.327 . S
C1432 C1420 1.349 . S
C1432 H1426 0.950 . S
C1432 C1433 1.327 . S
C1433 H1427 0.950 . S
C1433 C1432 1.327 . S
C1433 C1437 1.429 . S
C1434 C1417 1.574 . S
C1434 H1428 0.949 . S
C1434 C1438 1.368 . S
C1435 C1416 1.429 . S
C1435 C1429 1.429 . S
C1435 C1436 1.523 . S
C1436 C1417 1.368 . S
C1436 C1430 1.368 . S
C1436 C1435 1.523 . S
C1437 C1421 1.429 . S
C1437 C1433 1.429 . S
C1437 C1438 1.523 . S
C1438 C1422 1.368 . S
C1438 C1434 1.368 . S
C1438 C1437 1.523 . S
H1439 C1414 0.950 . S
H1440 C1416 0.950 . S
H1441 C1417 0.949 . S
H1442 C1419 0.950 . S
H1443 C1421 0.950 . S
C1444 C1445 1.349 . S
C1444 C1446 1.327 . S
C1444 H1469 0.950 . S
C1445 C1444 1.349 . S
C1445 C1461 1.349 . S
C1446 C1444 1.327 . S
C1446 C1465 1.429 . S
C1446 H1470 0.950 . S
C1447 C1464 1.574 . S
C1447 C1466 1.368 . S
C1447 H1471 0.949 . S
H1448 C1452 0.949 . S
C1449 C1450 1.349 . S
C1449 C1451 1.327 . S
C1449 H1472 0.950 . S
C1450 C1449 1.349 . S
C1450 C1462 1.349 . S
C1451 C1449 1.327 . S
C1451 C1467 1.429 . S
C1451 H1473 0.950 . S
C1452 H1448 0.949 . S
C1452 C1460 1.574 . S
C1452 C1468 1.368 . S
H1453 C1461 0.950 . S
H1454 C1459 0.950 . S
H1455 C1460 0.949 . S
H1456 C1462 0.950 . S
H1457 C1463 0.950 . S
H1458 C1464 0.949 . S
C1459 H1454 0.950 . S
C1459 C1461 1.327 . S
C1459 C1465 1.429 . S
C1460 C1452 1.574 . S
C1460 H1455 0.949 . S
C1460 C1466 1.368 . S
C1461 C1445 1.349 . S
C1461 H1453 0.950 . S
C1461 C1459 1.327 . S
C1462 C1450 1.349 . S
C1462 H1456 0.950 . S
C1462 C1463 1.327 . S
C1463 H1457 0.950 . S
C1463 C1462 1.327 . S
C1463 C1467 1.429 . S
C1464 C1447 1.574 . S
C1464 H1458 0.949 . S
C1464 C1468 1.368 . S
C1465 C1446 1.429 . S
C1465 C1459 1.429 . S
C1465 C1466 1.523 . S
C1466 C1447 1.368 . S
C1466 C1460 1.368 . S
C1466 C1465 1.523 . S
C1467 C1451 1.429 . S
C1467 C1463 1.429 . S
C1467 C1468 1.523 . S
C1468 C1452 1.368 . S
C1468 C1464 1.368 . S
C1468 C1467 1.523 . S
H1469 C1444 0.950 . S
H1470 C1446 0.950 . S
H1471 C1447 0.949 . S
H1472 C1449 0.950 . S
H1473 C1451 0.950 . S
C1474 C1475 1.349 . S
C1474 C1476 1.327 . S
C1474 H1499 0.950 . S
C1475 C1474 1.349 . S
C1475 C1491 1.349 . S
C1476 C1474 1.327 . S
C1476 C1495 1.429 . S
C1476 H1500 0.950 . S
C1477 C1494 1.574 . S
C1477 C1496 1.368 . S
C1477 H1501 0.949 . S
H1478 C1482 0.949 . S
C1479 C1480 1.349 . S
C1479 C1481 1.327 . S
C1479 H1502 0.950 . S
C1480 C1479 1.349 . S
C1480 C1492 1.349 . S
C1481 C1479 1.327 . S
C1481 C1497 1.429 . S
C1481 H1503 0.950 . S
C1482 H1478 0.949 . S
C1482 C1490 1.574 . S
C1482 C1498 1.368 . S
H1483 C1491 0.950 . S
H1484 C1489 0.950 . S
H1485 C1490 0.949 . S
H1486 C1492 0.950 . S
H1487 C1493 0.950 . S
H1488 C1494 0.949 . S
C1489 H1484 0.950 . S
C1489 C1491 1.327 . S
C1489 C1495 1.429 . S
C1490 C1482 1.574 . S
C1490 H1485 0.949 . S
C1490 C1496 1.368 . S
C1491 C1475 1.349 . S
C1491 H1483 0.950 . S
C1491 C1489 1.327 . S
C1492 C1480 1.349 . S
C1492 H1486 0.950 . S
C1492 C1493 1.327 . S
C1493 H1487 0.950 . S
C1493 C1492 1.327 . S
C1493 C1497 1.429 . S
C1494 C1477 1.574 . S
C1494 H1488 0.949 . S
C1494 C1498 1.368 . S
C1495 C1476 1.429 . S
C1495 C1489 1.429 . S
C1495 C1496 1.523 . S
C1496 C1477 1.368 . S
C1496 C1490 1.368 . S
C1496 C1495 1.523 . S
C1497 C1481 1.429 . S
C1497 C1493 1.429 . S
C1497 C1498 1.523 . S
C1498 C1482 1.368 . S
C1498 C1494 1.368 . S
C1498 C1497 1.523 . S
H1499 C1474 0.950 . S
H1500 C1476 0.950 . S
H1501 C1477 0.949 . S
H1502 C1479 0.950 . S
H1503 C1481 0.950 . S
C1504 C1505 1.349 . S
C1504 C1506 1.327 . S
C1504 H1529 0.950 . S
C1505 C1504 1.349 . S
C1505 C1521 1.349 . S
C1506 C1504 1.327 . S
C1506 C1525 1.429 . S
C1506 H1530 0.950 . S
C1507 C1524 1.574 . S
C1507 C1526 1.368 . S
C1507 H1531 0.949 . S
H1508 C1512 0.949 . S
C1509 C1510 1.349 . S
C1509 C1511 1.327 . S
C1509 H1532 0.950 . S
C1510 C1509 1.349 . S
C1510 C1522 1.349 . S
C1511 C1509 1.327 . S
C1511 C1527 1.429 . S
C1511 H1533 0.950 . S
C1512 H1508 0.949 . S
C1512 C1520 1.574 . S
C1512 C1528 1.368 . S
H1513 C1521 0.950 . S
H1514 C1519 0.950 . S
H1515 C1520 0.949 . S
H1516 C1522 0.950 . S
H1517 C1523 0.950 . S
H1518 C1524 0.949 . S
C1519 H1514 0.950 . S
C1519 C1521 1.327 . S
C1519 C1525 1.429 . S
C1520 C1512 1.574 . S
C1520 H1515 0.949 . S
C1520 C1526 1.368 . S
C1521 C1505 1.349 . S
C1521 H1513 0.950 . S
C1521 C1519 1.327 . S
C1522 C1510 1.349 . S
C1522 H1516 0.950 . S
C1522 C1523 1.327 . S
C1523 H1517 0.950 . S
C1523 C1522 1.327 . S
C1523 C1527 1.429 . S
C1524 C1507 1.574 . S
C1524 H1518 0.949 . S
C1524 C1528 1.368 . S
C1525 C1506 1.429 . S
C1525 C1519 1.429 . S
C1525 C1526 1.523 . S
C1526 C1507 1.368 . S
C1526 C1520 1.368 . S
C1526 C1525 1.523 . S
C1527 C1511 1.429 . S
C1527 C1523 1.429 . S
C1527 C1528 1.523 . S
C1528 C1512 1.368 . S
C1528 C1524 1.368 . S
C1528 C1527 1.523 . S
H1529 C1504 0.950 . S
H1530 C1506 0.950 . S
H1531 C1507 0.949 . S
H1532 C1509 0.950 . S
H1533 C1511 0.950 . S
C1534 C1535 1.349 . S
C1534 C1536 1.327 . S
C1534 H1559 0.950 . S
C1535 C1534 1.349 . S
C1535 C1551 1.349 . S
C1536 C1534 1.327 . S
C1536 C1555 1.429 . S
C1536 H1560 0.950 . S
C1537 C1554 1.574 . S
C1537 C1556 1.368 . S
C1537 H1561 0.949 . S
H1538 C1542 0.949 . S
C1539 C1540 1.349 . S
C1539 C1541 1.327 . S
C1539 H1562 0.950 . S
C1540 C1539 1.349 . S
C1540 C1552 1.349 . S
C1541 C1539 1.327 . S
C1541 C1557 1.429 . S
C1541 H1563 0.950 . S
C1542 H1538 0.949 . S
C1542 C1550 1.574 . S
C1542 C1558 1.368 . S
H1543 C1551 0.950 . S
H1544 C1549 0.950 . S
H1545 C1550 0.949 . S
H1546 C1552 0.950 . S
H1547 C1553 0.950 . S
H1548 C1554 0.949 . S
C1549 H1544 0.950 . S
C1549 C1551 1.327 . S
C1549 C1555 1.429 . S
C1550 C1542 1.574 . S
C1550 H1545 0.949 . S
C1550 C1556 1.368 . S
C1551 C1535 1.349 . S
C1551 H1543 0.950 . S
C1551 C1549 1.327 . S
C1552 C1540 1.349 . S
C1552 H1546 0.950 . S
C1552 C1553 1.327 . S
C1553 H1547 0.950 . S
C1553 C1552 1.327 . S
C1553 C1557 1.429 . S
C1554 C1537 1.574 . S
C1554 H1548 0.949 . S
C1554 C1558 1.368 . S
C1555 C1536 1.429 . S
C1555 C1549 1.429 . S
C1555 C1556 1.523 . S
C1556 C1537 1.368 . S
C1556 C1550 1.368 . S
C1556 C1555 1.523 . S
C1557 C1541 1.429 . S
C1557 C1553 1.429 . S
C1557 C1558 1.523 . S
C1558 C1542 1.368 . S
C1558 C1554 1.368 . S
C1558 C1557 1.523 . S
H1559 C1534 0.950 . S
H1560 C1536 0.950 . S
H1561 C1537 0.949 . S
H1562 C1539 0.950 . S
H1563 C1541 0.950 . S
C1564 C1565 1.349 . S
C1564 C1566 1.327 . S
C1564 H1589 0.950 . S
C1565 C1564 1.349 . S
C1565 C1581 1.349 . S
C1566 C1564 1.327 . S
C1566 C1585 1.429 . S
C1566 H1590 0.950 . S
C1567 C1584 1.574 . S
C1567 C1586 1.368 . S
C1567 H1591 0.949 . S
H1568 C1572 0.949 . S
C1569 C1570 1.349 . S
C1569 C1571 1.327 . S
C1569 H1592 0.950 . S
C1570 C1569 1.349 . S
C1570 C1582 1.349 . S
C1571 C1569 1.327 . S
C1571 C1587 1.429 . S
C1571 H1593 0.950 . S
C1572 H1568 0.949 . S
C1572 C1580 1.574 . S
C1572 C1588 1.368 . S
H1573 C1581 0.950 . S
H1574 C1579 0.950 . S
H1575 C1580 0.949 . S
H1576 C1582 0.950 . S
H1577 C1583 0.950 . S
H1578 C1584 0.949 . S
C1579 H1574 0.950 . S
C1579 C1581 1.327 . S
C1579 C1585 1.429 . S
C1580 C1572 1.574 . S
C1580 H1575 0.949 . S
C1580 C1586 1.368 . S
C1581 C1565 1.349 . S
C1581 H1573 0.950 . S
C1581 C1579 1.327 . S
C1582 C1570 1.349 . S
C1582 H1576 0.950 . S
C1582 C1583 1.327 . S
C1583 H1577 0.950 . S
C1583 C1582 1.327 . S
C1583 C1587 1.429 . S
C1584 C1567 1.574 . S
C1584 H1578 0.949 . S
C1584 C1588 1.368 . S
C1585 C1566 1.429 . S
C1585 C1579 1.429 . S
C1585 C1586 1.523 . S
C1586 C1567 1.368 . S
C1586 C1580 1.368 . S
C1586 C1585 1.523 . S
C1587 C1571 1.429 . S
C1587 C1583 1.429 . S
C1587 C1588 1.523 . S
C1588 C1572 1.368 . S
C1588 C1584 1.368 . S
C1588 C1587 1.523 . S
H1589 C1564 0.950 . S
H1590 C1566 0.950 . S
H1591 C1567 0.949 . S
H1592 C1569 0.950 . S
H1593 C1571 0.950 . S
C1594 C1595 1.349 . S
C1594 C1596 1.327 . S
C1594 H1619 0.950 . S
C1595 C1594 1.349 . S
C1595 C1611 1.349 . S
C1596 C1594 1.327 . S
C1596 C1615 1.429 . S
C1596 H1620 0.950 . S
C1597 C1614 1.574 . S
C1597 C1616 1.368 . S
C1597 H1621 0.949 . S
H1598 C1602 0.949 . S
C1599 C1600 1.349 . S
C1599 C1601 1.327 . S
C1599 H1622 0.950 . S
C1600 C1599 1.349 . S
C1600 C1612 1.349 . S
C1601 C1599 1.327 . S
C1601 C1617 1.429 . S
C1601 H1623 0.950 . S
C1602 H1598 0.949 . S
C1602 C1610 1.574 . S
C1602 C1618 1.368 . S
H1603 C1611 0.950 . S
H1604 C1609 0.950 . S
H1605 C1610 0.949 . S
H1606 C1612 0.950 . S
H1607 C1613 0.950 . S
H1608 C1614 0.949 . S
C1609 H1604 0.950 . S
C1609 C1611 1.327 . S
C1609 C1615 1.429 . S
C1610 C1602 1.574 . S
C1610 H1605 0.949 . S
C1610 C1616 1.368 . S
C1611 C1595 1.349 . S
C1611 H1603 0.950 . S
C1611 C1609 1.327 . S
C1612 C1600 1.349 . S
C1612 H1606 0.950 . S
C1612 C1613 1.327 . S
C1613 H1607 0.950 . S
C1613 C1612 1.327 . S
C1613 C1617 1.429 . S
C1614 C1597 1.574 . S
C1614 H1608 0.949 . S
C1614 C1618 1.368 . S
C1615 C1596 1.429 . S
C1615 C1609 1.429 . S
C1615 C1616 1.523 . S
C1616 C1597 1.368 . S
C1616 C1610 1.368 . S
C1616 C1615 1.523 . S
C1617 C1601 1.429 . S
C1617 C1613 1.429 . S
C1617 C1618 1.523 . S
C1618 C1602 1.368 . S
C1618 C1614 1.368 . S
C1618 C1617 1.523 . S
H1619 C1594 0.950 . S
H1620 C1596 0.950 . S
H1621 C1597 0.949 . S
H1622 C1599 0.950 . S
H1623 C1601 0.950 . S
C1624 C1625 1.349 . S
C1624 C1626 1.327 . S
C1624 H1649 0.950 . S
C1625 C1624 1.349 . S
C1625 C1641 1.349 . S
C1626 C1624 1.327 . S
C1626 C1645 1.429 . S
C1626 H1650 0.950 . S
C1627 C1644 1.574 . S
C1627 C1646 1.368 . S
C1627 H1651 0.949 . S
H1628 C1632 0.949 . S
C1629 C1630 1.349 . S
C1629 C1631 1.327 . S
C1629 H1652 0.950 . S
C1630 C1629 1.349 . S
C1630 C1642 1.349 . S
C1631 C1629 1.327 . S
C1631 C1647 1.429 . S
C1631 H1653 0.950 . S
C1632 H1628 0.949 . S
C1632 C1640 1.574 . S
C1632 C1648 1.368 . S
H1633 C1641 0.950 . S
H1634 C1639 0.950 . S
H1635 C1640 0.949 . S
H1636 C1642 0.950 . S
H1637 C1643 0.950 . S
H1638 C1644 0.949 . S
C1639 H1634 0.950 . S
C1639 C1641 1.327 . S
C1639 C1645 1.429 . S
C1640 C1632 1.574 . S
C1640 H1635 0.949 . S
C1640 C1646 1.368 . S
C1641 C1625 1.349 . S
C1641 H1633 0.950 . S
C1641 C1639 1.327 . S
C1642 C1630 1.349 . S
C1642 H1636 0.950 . S
C1642 C1643 1.327 . S
C1643 H1637 0.950 . S
C1643 C1642 1.327 . S
C1643 C1647 1.429 . S
C1644 C1627 1.574 . S
C1644 H1638 0.949 . S
C1644 C1648 1.368 . S
C1645 C1626 1.429 . S
C1645 C1639 1.429 . S
C1645 C1646 1.523 . S
C1646 C1627 1.368 . S
C1646 C1640 1.368 . S
C1646 C1645 1.523 . S
C1647 C1631 1.429 . S
C1647 C1643 1.429 . S
C1647 C1648 1.523 . S
C1648 C1632 1.368 . S
C1648 C1644 1.368 . S
C1648 C1647 1.523 . S
H1649 C1624 0.950 . S
H1650 C1626 0.950 . S
H1651 C1627 0.949 . S
H1652 C1629 0.950 . S
H1653 C1631 0.950 . S
C1654 C1655 1.349 . S
C1654 C1656 1.327 . S
C1654 H1679 0.950 . S
C1655 C1654 1.349 . S
C1655 C1671 1.349 . S
C1656 C1654 1.327 . S
C1656 C1675 1.429 . S
C1656 H1680 0.950 . S
C1657 C1674 1.574 . S
C1657 C1676 1.368 . S
C1657 H1681 0.949 . S
H1658 C1662 0.949 . S
C1659 C1660 1.349 . S
C1659 C1661 1.327 . S
C1659 H1682 0.950 . S
C1660 C1659 1.349 . S
C1660 C1672 1.349 . S
C1661 C1659 1.327 . S
C1661 C1677 1.429 . S
C1661 H1683 0.950 . S
C1662 H1658 0.949 . S
C1662 C1670 1.574 . S
C1662 C1678 1.368 . S
H1663 C1671 0.950 . S
H1664 C1669 0.950 . S
H1665 C1670 0.949 . S
H1666 C1672 0.950 . S
H1667 C1673 0.950 . S
H1668 C1674 0.949 . S
C1669 H1664 0.950 . S
C1669 C1671 1.327 . S
C1669 C1675 1.429 . S
C1670 C1662 1.574 . S
C1670 H1665 0.949 . S
C1670 C1676 1.368 . S
C1671 C1655 1.349 . S
C1671 H1663 0.950 . S
C1671 C1669 1.327 . S
C1672 C1660 1.349 . S
C1672 H1666 0.950 . S
C1672 C1673 1.327 . S
C1673 H1667 0.950 . S
C1673 C1672 1.327 . S
C1673 C1677 1.429 . S
C1674 C1657 1.574 . S
C1674 H1668 0.949 . S
C1674 C1678 1.368 . S
C1675 C1656 1.429 . S
C1675 C1669 1.429 . S
C1675 C1676 1.523 . S
C1676 C1657 1.368 . S
C1676 C1670 1.368 . S
C1676 C1675 1.523 . S
C1677 C1661 1.429 . S
C1677 C1673 1.429 . S
C1677 C1678 1.523 . S
C1678 C1662 1.368 . S
C1678 C1674 1.368 . S
C1678 C1677 1.523 . S
H1679 C1654 0.950 . S
H1680 C1656 0.950 . S
H1681 C1657 0.949 . S
H1682 C1659 0.950 . S
H1683 C1661 0.950 . S
C1684 C1685 1.349 . S
C1684 C1686 1.327 . S
C1684 H1709 0.950 . S
C1685 C1684 1.349 . S
C1685 C1701 1.349 . S
C1686 C1684 1.327 . S
C1686 C1705 1.429 . S
C1686 H1710 0.950 . S
C1687 C1704 1.574 . S
C1687 C1706 1.368 . S
C1687 H1711 0.949 . S
H1688 C1692 0.949 . S
C1689 C1690 1.349 . S
C1689 C1691 1.327 . S
C1689 H1712 0.950 . S
C1690 C1689 1.349 . S
C1690 C1702 1.349 . S
C1691 C1689 1.327 . S
C1691 C1707 1.429 . S
C1691 H1713 0.950 . S
C1692 H1688 0.949 . S
C1692 C1700 1.574 . S
C1692 C1708 1.368 . S
H1693 C1701 0.950 . S
H1694 C1699 0.950 . S
H1695 C1700 0.949 . S
H1696 C1702 0.950 . S
H1697 C1703 0.950 . S
H1698 C1704 0.949 . S
C1699 H1694 0.950 . S
C1699 C1701 1.327 . S
C1699 C1705 1.429 . S
C1700 C1692 1.574 . S
C1700 H1695 0.949 . S
C1700 C1706 1.368 . S
C1701 C1685 1.349 . S
C1701 H1693 0.950 . S
C1701 C1699 1.327 . S
C1702 C1690 1.349 . S
C1702 H1696 0.950 . S
C1702 C1703 1.327 . S
C1703 H1697 0.950 . S
C1703 C1702 1.327 . S
C1703 C1707 1.429 . S
C1704 C1687 1.574 . S
C1704 H1698 0.949 . S
C1704 C1708 1.368 . S
C1705 C1686 1.429 . S
C1705 C1699 1.429 . S
C1705 C1706 1.523 . S
C1706 C1687 1.368 . S
C1706 C1700 1.368 . S
C1706 C1705 1.523 . S
C1707 C1691 1.429 . S
C1707 C1703 1.429 . S
C1707 C1708 1.523 . S
C1708 C1692 1.368 . S
C1708 C1704 1.368 . S
C1708 C1707 1.523 . S
H1709 C1684 0.950 . S
H1710 C1686 0.950 . S
H1711 C1687 0.949 . S
H1712 C1689 0.950 . S
H1713 C1691 0.950 . S
C1714 C1715 1.349 . S
C1714 C1716 1.327 . S
C1714 H1739 0.950 . S
C1715 C1714 1.349 . S
C1715 C1731 1.349 . S
C1716 C1714 1.327 . S
C1716 C1735 1.429 . S
C1716 H1740 0.950 . S
C1717 C1734 1.574 . S
C1717 C1736 1.368 . S
C1717 H1741 0.949 . S
H1718 C1722 0.949 . S
C1719 C1720 1.349 . S
C1719 C1721 1.327 . S
C1719 H1742 0.950 . S
C1720 C1719 1.349 . S
C1720 C1732 1.349 . S
C1721 C1719 1.327 . S
C1721 C1737 1.429 . S
C1721 H1743 0.950 . S
C1722 H1718 0.949 . S
C1722 C1730 1.574 . S
C1722 C1738 1.368 . S
H1723 C1731 0.950 . S
H1724 C1729 0.950 . S
H1725 C1730 0.949 . S
H1726 C1732 0.950 . S
H1727 C1733 0.950 . S
H1728 C1734 0.949 . S
C1729 H1724 0.950 . S
C1729 C1731 1.327 . S
C1729 C1735 1.429 . S
C1730 C1722 1.574 . S
C1730 H1725 0.949 . S
C1730 C1736 1.368 . S
C1731 C1715 1.349 . S
C1731 H1723 0.950 . S
C1731 C1729 1.327 . S
C1732 C1720 1.349 . S
C1732 H1726 0.950 . S
C1732 C1733 1.327 . S
C1733 H1727 0.950 . S
C1733 C1732 1.327 . S
C1733 C1737 1.429 . S
C1734 C1717 1.574 . S
C1734 H1728 0.949 . S
C1734 C1738 1.368 . S
C1735 C1716 1.429 . S
C1735 C1729 1.429 . S
C1735 C1736 1.523 . S
C1736 C1717 1.368 . S
C1736 C1730 1.368 . S
C1736 C1735 1.523 . S
C1737 C1721 1.429 . S
C1737 C1733 1.429 . S
C1737 C1738 1.523 . S
C1738 C1722 1.368 . S
C1738 C1734 1.368 . S
C1738 C1737 1.523 . S
H1739 C1714 0.950 . S
H1740 C1716 0.950 . S
H1741 C1717 0.949 . S
H1742 C1719 0.950 . S
H1743 C1721 0.950 . S
C545 C345 1.824 . S
C550 C5 1.824 . S
C575 C39 1.824 . S
C580 C379 1.824 . S
C605 C277 1.824 . S
C610 C73 1.824 . S
C635 C107 1.824 . S
C640 C311 1.824 . S
C665 C481 1.824 . S
C670 C141 1.824 . S
C695 C175 1.824 . S
C700 C515 1.824 . S
C725 C209 1.824 . S
C730 C413 1.824 . S
C755 C447 1.824 . S
C760 C243 1.824 . S
C785 C496 0.896 . S
C790 C33 0.896 . S
C815 C530 0.896 . S
C820 C67 0.896 . S
C845 C101 0.896 . S
C850 C428 0.896 . S
C875 C462 0.896 . S
C880 C135 0.896 . S
C905 C169 0.896 . S
C910 C360 0.896 . S
C935 C203 0.896 . S
C940 C394 0.895 . S
C965 C292 0.896 . S
C970 C237 0.896 . S
C995 C271 0.896 . S
C1000 C326 0.895 . S
C1025 C224 0.896 . S
C1030 C305 0.896 . S
C1055 C258 0.896 . S
C1060 C339 0.896 . S
C1085 C156 0.896 . S
C1090 C373 0.896 . S
C1115 C407 0.896 . S
C1120 C190 0.896 . S
C1145 C441 0.896 . S
C1150 C88 0.896 . S
C1175 C475 0.896 . S
C1180 C122 0.895 . S
C1205 C509 0.896 . S
C1210 C20 0.896 . S
C1235 C54 0.895 . S
C1240 C543 0.896 . S
C1265 C383 1.569 . S
C1270 C2 1.632 . S
C1295 C36 1.632 . S
C1300 C281 1.569 . S
C1325 C70 1.632 . S
C1330 C315 1.569 . S
C1355 C104 1.632 . S
C1360 C349 1.569 . S
C1385 C179 1.569 . S
C1390 C138 1.632 . S
C1415 C172 1.632 . S
C1420 C213 1.569 . S
C1445 C247 1.569 . S
C1450 C206 1.632 . S
C1475 C240 1.632 . S
C1480 C145 1.569 . S
C1505 C111 1.569 . S
C1510 C274 1.632 . S
C1535 C308 1.632 . S
C1540 C9 1.569 . S
C1565 C342 1.632 . S
C1570 C43 1.569 . S
C1595 C77 1.569 . S
C1600 C376 1.632 . S
C1625 C451 1.569 . S
C1630 C410 1.632 . S
C1655 C485 1.569 . S
C1660 C444 1.632 . S
C1685 C478 1.632 . S
C1690 C519 1.569 . S
C1715 C417 1.569 . S
C1720 C512 1.632 . S
