# Generated by pormake.
# Topology sml, (6)-cn, num edge types: 1
# Building blocks:
#     Node 0, Type 0, BuildingBlock: BETDIP_clean_sbu_0, # of connection points: 6
#     Node 1, Type 0, BuildingBlock: BETDIP_clean_sbu_0, # of connection points: 6
#     Node 2, Type 0, BuildingBlock: BETDIP_clean_sbu_0, # of connection points: 6
#     Node 3, Type 0, BuildingBlock: BETDIP_clean_sbu_0, # of connection points: 6
#     Node 4, Type 0, BuildingBlock: BETDIP_clean_sbu_0, # of connection points: 6
#     Node 5, Type 0, BuildingBlock: BETDIP_clean_sbu_0, # of connection points: 6
#     Edge 6, Type (0, 0), BuildingBlock: FUNLAD_clean_linker_0, # of connection points: 2
#     Edge 7, Type (0, 0), BuildingBlock: FUNLAD_clean_linker_0, # of connection points: 2
#     Edge 8, Type (0, 0), BuildingBlock: FUNLAD_clean_linker_0, # of connection points: 2
#     Edge 9, Type (0, 0), BuildingBlock: FUNLAD_clean_linker_0, # of connection points: 2
#     Edge 10, Type (0, 0), BuildingBlock: FUNLAD_clean_linker_0, # of connection points: 2
#     Edge 11, Type (0, 0), BuildingBlock: FUNLAD_clean_linker_0, # of connection points: 2
#     Edge 12, Type (0, 0), BuildingBlock: FUNLAD_clean_linker_0, # of connection points: 2
#     Edge 13, Type (0, 0), BuildingBlock: FUNLAD_clean_linker_0, # of connection points: 2
#     Edge 14, Type (0, 0), BuildingBlock: FUNLAD_clean_linker_0, # of connection points: 2
#     Edge 15, Type (0, 0), BuildingBlock: FUNLAD_clean_linker_0, # of connection points: 2
#     Edge 16, Type (0, 0), BuildingBlock: FUNLAD_clean_linker_0, # of connection points: 2
#     Edge 17, Type (0, 0), BuildingBlock: FUNLAD_clean_linker_0, # of connection points: 2
#     Edge 18, Type (0, 0), BuildingBlock: FUNLAD_clean_linker_0, # of connection points: 2
#     Edge 19, Type (0, 0), BuildingBlock: FUNLAD_clean_linker_0, # of connection points: 2
#     Edge 20, Type (0, 0), BuildingBlock: FUNLAD_clean_linker_0, # of connection points: 2
#     Edge 21, Type (0, 0), BuildingBlock: FUNLAD_clean_linker_0, # of connection points: 2
#     Edge 22, Type (0, 0), BuildingBlock: FUNLAD_clean_linker_0, # of connection points: 2
#     Edge 23, Type (0, 0), BuildingBlock: FUNLAD_clean_linker_0, # of connection points: 2
# Relax obj value: 0.234
# Max RMSD: 0.241
# Mean RMSD: 0.241
data_MOF--net-sml--node1-BETDIP_clean_sbu_0--edge1-FUNLAD_clean_linker_0
_symmetry_space_group_name_H-M    P1
_symmetry_Int_Tables_number       1
_symmetry_cell_setting            triclinic
loop_
_symmetry_equiv_pos_as_xyz
'x, y, z'
_cell_length_a     38.722988
_cell_length_b     38.742798
_cell_length_c     27.652806
_cell_angle_alpha  89.852768
_cell_angle_beta   89.915539
_cell_angle_gamma 119.92517
loop_
_atom_site_label
_atom_site_type_symbol
_atom_site_fract_x
_atom_site_fract_y
_atom_site_fract_z
_atom_type_partial_charge
Tb0 Tb 0.19355 0.43103 0.97244 0.0
Tb1 Tb 0.22135 0.40791 0.06489 0.0
C2 C 0.18854 0.46294 0.89527 0.0
C3 C 0.18141 0.45171 0.84373 0.0
C4 C 0.17809 0.41588 0.82751 0.0
C5 C 0.17552 0.40743 0.77794 0.0
C6 C 0.17618 0.43466 0.74347 0.0
C7 C 0.17855 0.4701 0.76021 0.0
C8 C 0.18123 0.47854 0.80977 0.0
C9 C 0.13945 0.36562 0.01679 0.0
C10 C 0.21719 0.36428 0.96861 0.0
C11 C 0.22952 0.38735 0.14867 0.0
C12 C 0.21927 0.39032 0.19937 0.0
C13 C 0.19167 0.40239 0.21144 0.0
C14 C 0.18426 0.40684 0.26013 0.0
C15 C 0.20418 0.3991 0.29761 0.0
C16 C 0.23147 0.3866 0.285 0.0
C17 C 0.23891 0.38233 0.23649 0.0
C18 C 0.27788 0.45701 1.00507 0.0
C19 C 0.19458 0.4736 0.07048 0.0
O20 O 0.22195 0.4673 0.91258 0.0
O21 O 0.15856 0.44363 0.92528 0.0
O22 O 0.16596 0.397 0.03609 0.0
O23 O 0.14096 0.37115 0.97035 0.0
O24 O 0.21674 0.39397 0.94537 0.0
O25 O 0.21334 0.3602 0.01624 0.0
O26 O 0.20018 0.36434 0.11964 0.0
O27 O 0.25545 0.42088 0.12796 0.0
O28 O 0.24601 0.4565 0.01513 0.0
O29 O 0.28018 0.43031 0.03096 0.0
O30 O 0.20586 0.4508 0.0934 0.0
O31 O 0.18894 0.47187 0.02301 0.0
H32 H 0.17845 0.39491 0.85316 0.0
H33 H 0.17425 0.38009 0.76663 0.0
H34 H 0.17849 0.4915 0.73499 0.0
H35 H 0.18394 0.50643 0.82153 0.0
H36 H 0.17611 0.40864 0.18331 0.0
H37 H 0.1628 0.41616 0.26841 0.0
H38 H 0.24789 0.38101 0.31261 0.0
H39 H 0.26053 0.37326 0.22793 0.0
Tb40 Tb 0.74997 0.18484 0.28219 0.0
Tb41 Tb 0.80468 0.21351 0.36905 0.0
C42 C 0.71762 0.17416 0.20045 0.0
C43 C 0.72774 0.17797 0.14845 0.0
C44 C 0.76065 0.21209 0.12891 0.0
C45 C 0.76777 0.21532 0.07888 0.0
C46 C 0.74212 0.18452 0.04754 0.0
C47 C 0.70987 0.15009 0.06765 0.0
C48 C 0.70276 0.14695 0.11743 0.0
C49 C 0.74326 0.12918 0.34205 0.0
C50 C 0.84132 0.20709 0.27269 0.0
C51 C 0.83619 0.22097 0.45083 0.0
C52 C 0.82683 0.22064 0.50277 0.0
C53 C 0.79277 0.18893 0.52421 0.0
C54 C 0.78648 0.18838 0.57424 0.0
C55 C 0.81409 0.2195 0.60379 0.0
C56 C 0.84752 0.25162 0.58181 0.0
C57 C 0.85383 0.25208 0.53198 0.0
C58 C 0.81031 0.26971 0.31022 0.0
C59 C 0.71399 0.19384 0.37872 0.0
O60 O 0.73064 0.207 0.22545 0.0
O61 O 0.72031 0.14641 0.22433 0.0
O62 O 0.7753 0.15953 0.32935 0.0
O63 O 0.71362 0.1281 0.31911 0.0
O64 O 0.8093 0.20407 0.25125 0.0
O65 O 0.84375 0.20557 0.32021 0.0
O66 O 0.81758 0.18719 0.4274 0.0
O67 O 0.83974 0.251 0.42519 0.0
O68 O 0.77888 0.23852 0.32231 0.0
O69 O 0.84012 0.27169 0.33392 0.0
O70 O 0.74676 0.19879 0.40021 0.0
O71 O 0.71001 0.19194 0.33109 0.0
H72 H 0.7805 0.23645 0.15212 0.0
H73 H 0.79276 0.24233 0.06466 0.0
H74 H 0.69001 0.12542 0.04488 0.0
H75 H 0.67733 0.12029 0.13173 0.0
H76 H 0.77137 0.16424 0.50256 0.0
H77 H 0.76056 0.16303 0.5899 0.0
H78 H 0.86898 0.2765 0.60314 0.0
H79 H 0.88025 0.27689 0.51628 0.0
Tb80 Tb 0.56578 0.75871 0.63601 0.0
Tb81 Tb 0.58736 0.81166 0.72389 0.0
C82 C 0.54723 0.72735 0.55358 0.0
C83 C 0.55595 0.73915 0.50205 0.0
C84 C 0.52759 0.7422 0.47349 0.0
C85 C 0.53395 0.74995 0.42388 0.0
C86 C 0.56865 0.75447 0.40164 0.0
C87 C 0.59735 0.75216 0.43039 0.0
C88 C 0.59107 0.74453 0.48 0.0
C89 C 0.61407 0.75292 0.69767 0.0
C90 C 0.63096 0.85177 0.62874 0.0
C91 C 0.60807 0.84232 0.80629 0.0
C92 C 0.60026 0.83021 0.85753 0.0
C93 C 0.60311 0.79782 0.87579 0.0
C94 C 0.59673 0.78817 0.92507 0.0
C95 C 0.58701 0.81048 0.9567 0.0
C96 C 0.58372 0.84249 0.93804 0.0
C97 C 0.59041 0.85229 0.88902 0.0
C98 C 0.53719 0.81617 0.66352 0.0
C99 C 0.51894 0.72023 0.73053 0.0
O100 O 0.52633 0.73989 0.5773 0.0
O101 O 0.57617 0.72897 0.5797 0.0
O102 O 0.61495 0.78462 0.68509 0.0
O103 O 0.58655 0.72313 0.67399 0.0
O104 O 0.605 0.81869 0.60624 0.0
O105 O 0.63323 0.85417 0.67636 0.0
O106 O 0.62831 0.82985 0.78088 0.0
O107 O 0.57821 0.84064 0.78222 0.0
O108 O 0.53804 0.78523 0.67529 0.0
O109 O 0.56343 0.84597 0.68852 0.0
O110 O 0.54676 0.75203 0.75336 0.0
O111 O 0.51708 0.71829 0.68274 0.0
H112 H 0.50003 0.73772 0.4893 0.0
H113 H 0.51105 0.75112 0.40268 0.0
H114 H 0.62463 0.75601 0.41447 0.0
H115 H 0.61347 0.74218 0.50082 0.0
H116 H 0.61045 0.78012 0.85216 0.0
H117 H 0.59915 0.76315 0.93841 0.0
H118 H 0.57681 0.86055 0.96156 0.0
H119 H 0.58821 0.87746 0.87571 0.0
Tb120 Tb 0.81664 0.57468 0.95359 0.0
Tb121 Tb 0.78904 0.60008 0.04252 0.0
C122 C 0.82815 0.55511 0.87113 0.0
C123 C 0.81833 0.55874 0.82057 0.0
C124 C 0.80421 0.52566 0.78999 0.0
C125 C 0.79749 0.52911 0.74103 0.0
C126 C 0.80483 0.56579 0.72169 0.0
C127 C 0.81783 0.59862 0.75282 0.0
C128 C 0.82453 0.59513 0.80177 0.0
C129 C 0.8724 0.6162 0.01707 0.0
C130 C 0.79802 0.64649 0.94803 0.0
C131 C 0.78245 0.6217 0.12604 0.0
C132 C 0.78621 0.61171 0.17677 0.0
C133 C 0.82047 0.63687 0.20354 0.0
C134 C 0.82318 0.62907 0.25236 0.0
C135 C 0.79159 0.59602 0.27557 0.0
C136 C 0.75754 0.57058 0.24861 0.0
C137 C 0.75483 0.57837 0.19983 0.0
C138 C 0.7328 0.55759 0.97984 0.0
C139 C 0.80028 0.52372 0.0467 0.0
O140 O 0.79841 0.53125 0.89917 0.0
O141 O 0.85348 0.58813 0.89292 0.0
O142 O 0.84437 0.62214 1.00515 0.0
O143 O 0.87115 0.58797 0.99097 0.0
O144 O 0.80028 0.61764 0.92502 0.0
O145 O 0.79903 0.64902 0.99572 0.0
O146 O 0.81525 0.63975 0.1003 0.0
O147 O 0.75247 0.59455 0.1012 0.0
O148 O 0.76198 0.55335 0.99082 0.0
O149 O 0.73165 0.58343 0.00842 0.0
O150 O 0.79949 0.55297 0.07049 0.0
O151 O 0.80193 0.52332 0.99894 0.0
H152 H 0.79907 0.49728 0.80382 0.0
H153 H 0.78685 0.5031 0.71821 0.0
H154 H 0.82416 0.6274 0.73907 0.0
H155 H 0.83552 0.62114 0.82459 0.0
H156 H 0.84503 0.66293 0.18689 0.0
H157 H 0.85001 0.64899 0.27197 0.0
H158 H 0.73245 0.5452 0.26554 0.0
H159 H 0.72778 0.55859 0.18051 0.0
Tb160 Tb 0.249 0.81982 0.28926 0.0
Tb161 Tb 0.19289 0.7877 0.37626 0.0
C162 C 0.28198 0.83631 0.20724 0.0
C163 C 0.2709 0.82985 0.15525 0.0
C164 C 0.26466 0.79531 0.13101 0.0
C165 C 0.25757 0.79126 0.08106 0.0
C166 C 0.25708 0.82188 0.05409 0.0
C167 C 0.26265 0.85606 0.07855 0.0
C168 C 0.26956 0.86002 0.12838 0.0
C169 C 0.25763 0.87218 0.3551 0.0
C170 C 0.15804 0.79892 0.2811 0.0
C171 C 0.16143 0.77785 0.45863 0.0
C172 C 0.1717 0.78001 0.51047 0.0
C173 C 0.20472 0.81347 0.53062 0.0
C174 C 0.21191 0.81519 0.58054 0.0
C175 C 0.18626 0.78353 0.61122 0.0
C176 C 0.1539 0.74978 0.59047 0.0
C177 C 0.14668 0.74815 0.5408 0.0
C178 C 0.18293 0.73408 0.31129 0.0
C179 C 0.28191 0.80248 0.38277 0.0
O180 O 0.27654 0.80563 0.2332 0.0
O181 O 0.27269 0.85971 0.23112 0.0
O182 O 0.22521 0.84362 0.34064 0.0
O183 O 0.28683 0.87353 0.33078 0.0
O184 O 0.19003 0.80209 0.25921 0.0
O185 O 0.15487 0.79847 0.32875 0.0
O186 O 0.17639 0.81132 0.4342 0.0
O187 O 0.16149 0.74918 0.43377 0.0
O188 O 0.21562 0.76358 0.32381 0.0
O189 O 0.15481 0.73114 0.33949 0.0
O190 O 0.2505 0.79981 0.40556 0.0
O191 O 0.28562 0.80551 0.33512 0.0
H192 H 0.26614 0.77175 0.15036 0.0
H193 H 0.25381 0.76472 0.06332 0.0
H194 H 0.26195 0.87999 0.05907 0.0
H195 H 0.27463 0.8872 0.14571 0.0
H196 H 0.2246 0.83849 0.50803 0.0
H197 H 0.23697 0.84176 0.59522 0.0
H198 H 0.13399 0.72446 0.61262 0.0
H199 H 0.12113 0.72199 0.52608 0.0
Tb200 Tb 0.43359 0.23941 0.64934 0.0
Tb201 Tb 0.41971 0.1874 0.7377 0.0
C202 C 0.44974 0.26985 0.56605 0.0
C203 C 0.44323 0.25719 0.51473 0.0
C204 C 0.46981 0.24842 0.4903 0.0
C205 C 0.46533 0.23984 0.4408 0.0
C206 C 0.43425 0.23991 0.4146 0.0
C207 C 0.40733 0.24803 0.43925 0.0
C208 C 0.41188 0.25674 0.48863 0.0
C209 C 0.38412 0.24049 0.71308 0.0
C210 C 0.37418 0.14482 0.64523 0.0
C211 C 0.40621 0.15587 0.8203 0.0
C212 C 0.4129 0.16804 0.87137 0.0
C213 C 0.41146 0.20155 0.88794 0.0
C214 C 0.41764 0.2119 0.93697 0.0
C215 C 0.42566 0.18908 0.97002 0.0
C216 C 0.42725 0.15574 0.95299 0.0
C217 C 0.42089 0.14534 0.9042 0.0
C218 C 0.47137 0.19005 0.6735 0.0
C219 C 0.4777 0.28158 0.74356 0.0
O220 O 0.47392 0.26245 0.59138 0.0
O221 O 0.41836 0.2637 0.59097 0.0
O222 O 0.38665 0.21025 0.70169 0.0
O223 O 0.40727 0.2703 0.68553 0.0
O224 O 0.3974 0.17846 0.62155 0.0
O225 O 0.37405 0.14247 0.69285 0.0
O226 O 0.38059 0.16201 0.79635 0.0
O227 O 0.4381 0.16472 0.79488 0.0
O228 O 0.46692 0.21843 0.68711 0.0
O229 O 0.44758 0.1584 0.69799 0.0
O230 O 0.45376 0.24784 0.76651 0.0
O231 O 0.47882 0.28423 0.69577 0.0
H232 H 0.49451 0.24883 0.50916 0.0
H233 H 0.48635 0.23333 0.42298 0.0
H234 H 0.38342 0.24892 0.42006 0.0
H235 H 0.39126 0.26398 0.50614 0.0
H236 H 0.40557 0.21966 0.86308 0.0
H237 H 0.41659 0.23796 0.94892 0.0
H238 H 0.43282 0.13725 0.97756 0.0
H239 H 0.42206 0.11936 0.89208 0.0
C240 C 0.36529 0.28113 0.76339 0.0
C241 C 0.35984 0.24343 0.75224 0.0
C242 C 0.34182 0.28536 0.7983 0.0
C243 C 0.31216 0.25196 0.82302 0.0
C244 C 0.30769 0.21431 0.81361 0.0
C245 C 0.33115 0.20998 0.77796 0.0
C246 C 0.28585 0.25699 0.85788 0.0
C247 C 0.27103 0.28087 0.84648 0.0
C248 C 0.25084 0.29483 0.88036 0.0
C249 C 0.23136 0.31379 0.86037 0.0
C250 C 0.21857 0.33447 0.8896 0.0
C251 C 0.2249 0.33673 0.93974 0.0
H252 H 0.27039 0.28106 0.94771 0.0
C253 C 0.24197 0.31555 0.96047 0.0
C254 C 0.25505 0.29487 0.93098 0.0
H255 H 0.24729 0.31684 0.99904 0.0
H256 H 0.38756 0.30758 0.74473 0.0
H257 H 0.34678 0.31493 0.80579 0.0
H258 H 0.28522 0.18821 0.83259 0.0
H259 H 0.32624 0.18056 0.7698 0.0
H260 H 0.27926 0.2416 0.89242 0.0
H261 H 0.27559 0.29266 0.80979 0.0
H262 H 0.2276 0.31422 0.82157 0.0
H263 H 0.20501 0.34995 0.87251 0.0
C264 C 0.10108 0.33849 0.09332 0.0
C265 C 0.10377 0.33556 0.04302 0.0
C266 C 0.06547 0.31383 0.11774 0.0
C267 C 0.03171 0.28532 0.09237 0.0
C268 C 0.03502 0.28149 0.04228 0.0
C269 C 0.07073 0.30625 0.01783 0.0
C270 C 0.99183 0.26214 0.11587 0.0
C271 C 0.98657 0.25665 0.16409 0.0
C272 C 0.9472 0.23936 0.189 0.0
C273 C 0.94493 0.22874 0.23798 0.0
C274 C 0.9101 0.21685 0.26467 0.0
C275 C 0.87656 0.21534 0.24302 0.0
H276 H 0.91358 0.24533 0.12961 0.0
C277 C 0.8782 0.22457 0.19357 0.0
C278 C 0.91315 0.23664 0.16687 0.0
H279 H 0.85298 0.22395 0.17579 0.0
H280 H 0.12599 0.3611 0.11361 0.0
H281 H 0.06424 0.3188 0.15599 0.0
H282 H 0.00954 0.26001 0.02171 0.0
H283 H 0.07198 0.30343 0.97899 0.0
H284 H 0.96609 0.24989 0.09226 0.0
H285 H 0.01237 0.26581 0.18707 0.0
H286 H 0.97061 0.23065 0.25613 0.0
H287 H 0.9099 0.20983 0.30264 0.0
C288 C 0.70274 0.07627 0.4018 0.0
C289 C 0.73924 0.09916 0.37781 0.0
C290 C 0.69749 0.04621 0.43396 0.0
C291 C 0.72846 0.03794 0.44212 0.0
C292 C 0.76503 0.06084 0.41812 0.0
C293 C 0.77064 0.09174 0.38678 0.0
C294 C 0.72183 0.00389 0.47323 0.0
C295 C 0.70103 0.99558 0.51478 0.0
C296 C 0.68906 0.95912 0.54391 0.0
C297 C 0.68518 0.96073 0.59413 0.0
C298 C 0.66862 0.92598 0.62202 0.0
C299 C 0.65451 0.88864 0.60004 0.0
H300 H 0.67881 0.91977 0.48323 0.0
C301 C 0.65947 0.88707 0.54986 0.0
C302 C 0.67692 0.92205 0.52205 0.0
H303 H 0.64876 0.85874 0.53186 0.0
H304 H 0.6781 0.08148 0.39546 0.0
H305 H 0.66871 0.02856 0.4512 0.0
H306 H 0.78921 0.05479 0.42362 0.0
H307 H 0.79899 0.10895 0.36844 0.0
H308 H 0.73425 0.98552 0.46178 0.0
H309 H 0.69213 0.01638 0.52814 0.0
H310 H 0.69401 0.98889 0.61172 0.0
H311 H 0.66496 0.92829 0.6605 0.0
C312 C 0.67666 0.7779 0.74603 0.0
C313 C 0.63687 0.74877 0.73754 0.0
C314 C 0.69906 0.77135 0.78088 0.0
C315 C 0.68149 0.73607 0.80852 0.0
C316 C 0.64108 0.70816 0.80173 0.0
C317 C 0.61916 0.71411 0.766 0.0
C318 C 0.70451 0.72676 0.84377 0.0
C319 C 0.74111 0.73263 0.83378 0.0
C320 C 0.76004 0.71514 0.86435 0.0
C321 C 0.78046 0.69802 0.84206 0.0
C322 C 0.79423 0.67692 0.86943 0.0
C323 C 0.78871 0.67339 0.91983 0.0
H324 H 0.74131 0.72696 0.93329 0.0
C325 C 0.77057 0.69282 0.94245 0.0
C326 C 0.75616 0.71328 0.91498 0.0
H327 H 0.76585 0.69075 0.98122 0.0
H328 H 0.69078 0.80494 0.72453 0.0
H329 H 0.73004 0.79366 0.78605 0.0
H330 H 0.62683 0.68093 0.82288 0.0
H331 H 0.58834 0.69145 0.7604 0.0
H332 H 0.68873 0.70956 0.87561 0.0
H333 H 0.75501 0.74579 0.79928 0.0
H334 H 0.78408 0.6993 0.80311 0.0
H335 H 0.80827 0.66254 0.85093 0.0
C336 C 0.12503 0.78872 0.2006 0.0
C337 C 0.12305 0.79072 0.2512 0.0
C338 C 0.09068 0.77481 0.17265 0.0
C339 C 0.05352 0.76237 0.19469 0.0
C340 C 0.05198 0.76732 0.24473 0.0
C341 C 0.08641 0.78118 0.27284 0.0
C342 C 0.01592 0.74154 0.16666 0.0
C343 C 0.01146 0.71554 0.13168 0.0
C344 C 0.97381 0.69006 0.10538 0.0
C345 C 0.96855 0.6546 0.08521 0.0
C346 C 0.93495 0.63037 0.05781 0.0
C347 C 0.90594 0.64124 0.0493 0.0
H348 H 0.94784 0.72826 0.11218 0.0
C349 C 0.91067 0.67648 0.06982 0.0
C350 C 0.94436 0.70073 0.09788 0.0
H351 H 0.88896 0.68578 0.0632 0.0
H352 H 0.15284 0.79645 0.18257 0.0
H353 H 0.09309 0.7727 0.13388 0.0
H354 H 0.02378 0.75842 0.26246 0.0
H355 H 0.08388 0.78273 0.31169 0.0
H356 H 0.99063 0.74431 0.17836 0.0
H357 H 0.03604 0.71032 0.12411 0.0
H358 H 0.99073 0.64566 0.09038 0.0
H359 H 0.93209 0.60334 0.04255 0.0
C360 C 0.34331 0.10903 0.56797 0.0
C361 C 0.35086 0.10774 0.61744 0.0
C362 C 0.32547 0.07407 0.54063 0.0
C363 C 0.31542 0.03729 0.56223 0.0
C364 C 0.32201 0.03592 0.61183 0.0
C365 C 0.33907 0.07068 0.63933 0.0
C366 C 0.30266 0.001 0.53294 0.0
C367 C 0.28044 0.99289 0.4928 0.0
C368 C 0.27346 0.95966 0.46042 0.0
C369 C 0.23673 0.9377 0.43685 0.0
C370 C 0.23085 0.90798 0.40376 0.0
C371 C 0.26211 0.90079 0.39275 0.0
H372 H 0.33324 0.96859 0.46706 0.0
C373 C 0.29873 0.92259 0.41644 0.0
C374 C 0.3043 0.95156 0.45024 0.0
H375 H 0.32324 0.9175 0.40849 0.0
H376 H 0.35217 0.13717 0.55009 0.0
H377 H 0.32155 0.07621 0.50219 0.0
H378 H 0.31484 0.00798 0.62912 0.0
H379 H 0.34476 0.06867 0.67728 0.0
H380 H 0.31237 0.9804 0.5447 0.0
H381 H 0.26729 0.01104 0.48324 0.0
H382 H 0.21268 0.94369 0.44389 0.0
H383 H 0.20239 0.89157 0.38565 0.0
C384 C 0.19877 0.45763 0.65767 0.0
C385 C 0.17549 0.42665 0.6904 0.0
C386 C 0.19901 0.45005 0.60814 0.0
C387 C 0.17578 0.41119 0.58985 0.0
C388 C 0.15262 0.38028 0.62256 0.0
C389 C 0.15231 0.38787 0.67204 0.0
C390 C 0.17639 0.40126 0.53767 0.0
C391 C 0.18769 0.42801 0.50108 0.0
C392 C 0.18952 0.41836 0.44905 0.0
C393 C 0.19035 0.44453 0.41311 0.0
C394 C 0.19411 0.43783 0.36408 0.0
C395 C 0.19756 0.4049 0.34958 0.0
H396 H 0.19299 0.36461 0.46073 0.0
C397 C 0.19636 0.37847 0.38549 0.0
C398 C 0.19251 0.38511 0.43451 0.0
H399 H 0.19864 0.35262 0.37575 0.0
H400 H 0.21773 0.48773 0.67045 0.0
H401 H 0.21831 0.47462 0.58473 0.0
H402 H 0.13458 0.35001 0.60978 0.0
H403 H 0.13368 0.36326 0.69586 0.0
H404 H 0.16583 0.37023 0.52931 0.0
H405 H 0.19497 0.45832 0.50905 0.0
H406 H 0.18847 0.47058 0.42302 0.0
H407 H 0.19548 0.45916 0.33765 0.0
C408 C 0.78658 0.20524 0.97365 0.0
C409 C 0.7482 0.18825 0.99404 0.0
C410 C 0.79184 0.20752 0.92331 0.0
C411 C 0.75875 0.19307 0.8921 0.0
C412 C 0.72053 0.17631 0.91265 0.0
C413 C 0.7153 0.17408 0.9628 0.0
C414 C 0.7622 0.19342 0.83824 0.0
C415 C 0.79612 0.21639 0.81325 0.0
C416 C 0.79927 0.21618 0.7594 0.0
C417 C 0.8371 0.23064 0.73848 0.0
C418 C 0.8418 0.23148 0.68827 0.0
C419 C 0.80875 0.21822 0.65739 0.0
H420 H 0.73655 0.19289 0.74279 0.0
C421 C 0.77084 0.20398 0.67821 0.0
C422 C 0.76611 0.20308 0.72855 0.0
H423 H 0.74482 0.19423 0.65557 0.0
H424 H 0.81254 0.2159 0.99659 0.0
H425 H 0.8218 0.21972 0.90941 0.0
H426 H 0.69444 0.16489 0.88976 0.0
H427 H 0.68533 0.16138 0.97708 0.0
H428 H 0.73521 0.17373 0.81863 0.0
H429 H 0.82325 0.23596 0.83266 0.0
H430 H 0.86323 0.24107 0.76113 0.0
H431 H 0.8714 0.24213 0.6737 0.0
C432 C 0.56421 0.78566 0.32376 0.0
C433 C 0.57421 0.76011 0.34842 0.0
C434 C 0.56859 0.79016 0.27353 0.0
C435 C 0.58268 0.76879 0.2467 0.0
C436 C 0.5933 0.74382 0.27155 0.0
C437 C 0.58902 0.73941 0.32174 0.0
C438 C 0.5878 0.77248 0.19318 0.0
C439 C 0.568 0.78474 0.16418 0.0
C440 C 0.57281 0.78898 0.11056 0.0
C441 C 0.54552 0.79536 0.08412 0.0
C442 C 0.54962 0.80145 0.03415 0.0
C443 C 0.58117 0.80128 0.00925 0.0
H444 H 0.62662 0.78456 0.10402 0.0
C445 C 0.60817 0.79424 0.03531 0.0
C446 C 0.60425 0.78841 0.08544 0.0
H447 H 0.63314 0.79456 0.01717 0.0
H448 H 0.55346 0.80261 0.3434 0.0
H449 H 0.56148 0.81091 0.25624 0.0
H450 H 0.60452 0.72723 0.25199 0.0
H451 H 0.59665 0.71918 0.33955 0.0
H452 H 0.60739 0.76304 0.17747 0.0
H453 H 0.54616 0.79113 0.18008 0.0
H454 H 0.52103 0.79602 0.10226 0.0
H455 H 0.52813 0.80646 0.01499 0.0
C456 C 0.81425 0.55252 0.63526 0.0
C457 C 0.80073 0.57031 0.66893 0.0
C458 C 0.81217 0.55811 0.58564 0.0
C459 C 0.79623 0.58146 0.56844 0.0
C460 C 0.78271 0.5992 0.60209 0.0
C461 C 0.78479 0.5936 0.65174 0.0
C462 C 0.79501 0.58958 0.51603 0.0
C463 C 0.79539 0.56593 0.48058 0.0
C464 C 0.79483 0.57457 0.42824 0.0
C465 C 0.78021 0.54294 0.39521 0.0
C466 C 0.77935 0.54986 0.34571 0.0
C467 C 0.79352 0.5887 0.32803 0.0
H468 H 0.82238 0.63891 0.43451 0.0
C469 C 0.80891 0.62048 0.36098 0.0
C470 C 0.80967 0.61356 0.4105 0.0
H471 H 0.81989 0.65075 0.3486 0.0
H472 H 0.82757 0.53518 0.64728 0.0
H473 H 0.8242 0.54501 0.56117 0.0
H474 H 0.77052 0.61753 0.58993 0.0
H475 H 0.77385 0.6075 0.67667 0.0
H476 H 0.79225 0.61532 0.50662 0.0
H477 H 0.79427 0.53816 0.4899 0.0
H478 H 0.7691 0.51269 0.40778 0.0
H479 H 0.76786 0.52478 0.32122 0.0
C480 C 0.23092 0.80269 0.68461 0.0
C481 C 0.19245 0.78571 0.66472 0.0
C482 C 0.23632 0.80395 0.73487 0.0
C483 C 0.20331 0.78842 0.76649 0.0
C484 C 0.16498 0.77142 0.74652 0.0
C485 C 0.15959 0.77028 0.69645 0.0
C486 C 0.20725 0.78823 0.8202 0.0
C487 C 0.24042 0.81381 0.84454 0.0
C488 C 0.24362 0.81465 0.89839 0.0
C489 C 0.27187 0.85008 0.92075 0.0
C490 C 0.27604 0.85237 0.97105 0.0
C491 C 0.25231 0.81908 1.00046 0.0
H492 H 0.19879 0.75286 0.91196 0.0
C493 C 0.22448 0.78331 0.97814 0.0
C494 C 0.22013 0.78108 0.92771 0.0
H495 H 0.20575 0.7571 0.99969 0.0
H496 H 0.25687 0.81424 0.66134 0.0
H497 H 0.26633 0.8163 0.74855 0.0
H498 H 0.13896 0.75915 0.76981 0.0
H499 H 0.12954 0.75755 0.68266 0.0
H500 H 0.18084 0.76758 0.84042 0.0
H501 H 0.26566 0.83681 0.82467 0.0
H502 H 0.2907 0.87629 0.89922 0.0
H503 H 0.29832 0.88018 0.98688 0.0
C504 C 0.46465 0.2508 0.33164 0.0
C505 C 0.43066 0.23301 0.36146 0.0
C506 C 0.46121 0.24577 0.28145 0.0
C507 C 0.42361 0.22243 0.25989 0.0
C508 C 0.38969 0.20471 0.28977 0.0
C509 C 0.39313 0.20983 0.33992 0.0
C510 C 0.41828 0.21682 0.20654 0.0
C511 C 0.44753 0.22181 0.17582 0.0
C512 C 0.44168 0.21474 0.12278 0.0
C513 C 0.46729 0.20535 0.09732 0.0
C514 C 0.46242 0.1976 0.04774 0.0
C515 C 0.43203 0.19949 0.02222 0.0
H516 H 0.39235 0.22613 0.11494 0.0
C517 C 0.40716 0.21016 0.04729 0.0
C518 C 0.4119 0.21773 0.09704 0.0
H519 H 0.38347 0.21187 0.02865 0.0
H520 H 0.49391 0.26957 0.34696 0.0
H521 H 0.48805 0.26109 0.25988 0.0
H522 H 0.36033 0.18672 0.27428 0.0
H523 H 0.36636 0.19547 0.36186 0.0
H524 H 0.38847 0.20619 0.19261 0.0
H525 H 0.47642 0.22893 0.19009 0.0
H526 H 0.49084 0.2034 0.116 0.0
H527 H 0.48253 0.19014 0.02933 0.0
C528 C 0.17655 0.52748 0.07857 0.0
C529 C 0.18757 0.50144 0.09997 0.0
C530 C 0.1703 0.55371 0.10714 0.0
C531 C 0.17504 0.55439 0.15772 0.0
C532 C 0.18533 0.52787 0.17894 0.0
C533 C 0.19173 0.50192 0.15052 0.0
C534 C 0.16952 0.58193 0.18998 0.0
C535 C 0.17333 0.61685 0.17534 0.0
C536 C 0.17281 0.64608 0.20967 0.0
C537 C 0.19405 0.68671 0.19763 0.0
C538 C 0.19678 0.7153 0.23046 0.0
C539 C 0.17827 0.70387 0.27579 0.0
H540 H 0.13419 0.60345 0.26402 0.0
C541 C 0.15496 0.66326 0.2869 0.0
C542 C 0.15228 0.63453 0.2542 0.0
H543 H 0.13958 0.65375 0.32132 0.0
H544 H 0.17275 0.52765 0.03979 0.0
H545 H 0.16133 0.57292 0.08948 0.0
H546 H 0.18899 0.52753 0.21776 0.0
H547 H 0.20007 0.48229 0.16847 0.0
H548 H 0.16557 0.5745 0.22823 0.0
H549 H 0.1809 0.6262 0.13794 0.0
H550 H 0.20923 0.69644 0.16311 0.0
H551 H 0.21266 0.74624 0.22004 0.0
C552 C 0.68799 0.20136 0.45854 0.0
C553 C 0.68117 0.19064 0.40947 0.0
C554 C 0.65718 0.19808 0.48802 0.0
C555 C 0.6187 0.18374 0.46921 0.0
C556 C 0.61165 0.17239 0.42044 0.0
C557 C 0.64267 0.17621 0.39067 0.0
C558 C 0.58528 0.17904 0.5003 0.0
C559 C 0.5907 0.20425 0.53673 0.0
C560 C 0.55824 0.1997 0.56943 0.0
C561 C 0.56109 0.23385 0.59077 0.0
C562 C 0.5324 0.23066 0.62394 0.0
C563 C 0.50065 0.19316 0.63713 0.0
H564 H 0.5235 0.13509 0.56728 0.0
C565 C 0.49765 0.15888 0.61596 0.0
C566 C 0.5261 0.16209 0.58217 0.0
H567 H 0.47343 0.12962 0.62566 0.0
H568 H 0.71721 0.21236 0.47432 0.0
H569 H 0.66342 0.20603 0.52579 0.0
H570 H 0.58216 0.16087 0.40523 0.0
H571 H 0.63635 0.16734 0.35315 0.0
H572 H 0.55543 0.15531 0.49167 0.0
H573 H 0.61995 0.23027 0.54194 0.0
H574 H 0.58571 0.26312 0.58189 0.0
H575 H 0.53556 0.25754 0.64006 0.0
C576 C 0.3066 0.51846 0.95394 0.0
C577 C 0.30962 0.48653 0.97329 0.0
C578 C 0.33655 0.54653 0.92388 0.0
C579 C 0.37049 0.54356 0.91316 0.0
C580 C 0.37397 0.5122 0.93353 0.0
C581 C 0.34363 0.4837 0.96299 0.0
C582 C 0.40341 0.57393 0.88286 0.0
C583 C 0.39697 0.59228 0.8454 0.0
C584 C 0.4296 0.62383 0.81591 0.0
C585 C 0.42248 0.62833 0.76718 0.0
C586 C 0.45184 0.65904 0.73907 0.0
C587 C 0.48863 0.68651 0.75951 0.0
H588 H 0.47281 0.64889 0.87398 0.0
C589 C 0.49579 0.68206 0.80834 0.0
C590 C 0.46666 0.65092 0.83622 0.0
H591 H 0.52387 0.70275 0.82512 0.0
H592 H 0.28132 0.52211 0.96254 0.0
H593 H 0.33353 0.57108 0.91013 0.0
H594 H 0.40006 0.50955 0.92631 0.0
H595 H 0.34688 0.45957 0.97785 0.0
H596 H 0.4335 0.58016 0.89055 0.0
H597 H 0.36656 0.58299 0.83477 0.0
H598 H 0.39405 0.60807 0.75082 0.0
H599 H 0.44534 0.66183 0.70164 0.0
C600 C 0.77736 0.29887 0.25994 0.0
C601 C 0.81224 0.30163 0.279 0.0
C602 C 0.77927 0.32943 0.23093 0.0
C603 C 0.81615 0.36365 0.22102 0.0
C604 C 0.85092 0.36658 0.2407 0.0
C605 C 0.84905 0.33572 0.26901 0.0
C606 C 0.81901 0.39762 0.19269 0.0
C607 C 0.79419 0.39301 0.15604 0.0
C608 C 0.7969 0.42719 0.12834 0.0
C609 C 0.78674 0.42246 0.07914 0.0
C610 C 0.78837 0.45395 0.05238 0.0
C611 C 0.79926 0.49055 0.07464 0.0
H612 H 0.81493 0.46816 0.18879 0.0
C613 C 0.80884 0.49509 0.12411 0.0
C614 C 0.80789 0.46383 0.15063 0.0
H615 H 0.81725 0.52287 0.14239 0.0
H616 H 0.74848 0.27347 0.26819 0.0
H617 H 0.75176 0.32672 0.21758 0.0
H618 H 0.87965 0.39279 0.234 0.0
H619 H 0.87641 0.33874 0.28349 0.0
H620 H 0.84343 0.42719 0.20102 0.0
H621 H 0.77236 0.3632 0.14439 0.0
H622 H 0.77781 0.3944 0.06125 0.0
H623 H 0.78052 0.4494 0.01442 0.0
C624 C 0.31685 0.8114 0.46166 0.0
C625 C 0.31381 0.80238 0.41209 0.0
C626 C 0.3466 0.81102 0.4898 0.0
C627 C 0.3738 0.80127 0.46904 0.0
C628 C 0.37049 0.79178 0.41967 0.0
C629 C 0.3411 0.79281 0.39128 0.0
C630 C 0.40466 0.79912 0.49865 0.0
C631 C 0.42273 0.82363 0.53621 0.0
C632 C 0.45275 0.8211 0.56704 0.0
C633 C 0.48302 0.8559 0.5884 0.0
C634 C 0.5108 0.85431 0.61921 0.0
C635 C 0.50835 0.81772 0.63001 0.0
H636 H 0.42662 0.75688 0.56313 0.0
C637 C 0.4777 0.78277 0.60931 0.0
C638 C 0.45033 0.78443 0.57779 0.0
H639 H 0.4744 0.75404 0.61815 0.0
H640 H 0.29627 0.81886 0.47883 0.0
H641 H 0.34766 0.8175 0.528 0.0
H642 H 0.39085 0.7838 0.40296 0.0
H643 H 0.33934 0.78545 0.35327 0.0
H644 H 0.4138 0.77788 0.48798 0.0
H645 H 0.41649 0.84752 0.54367 0.0
H646 H 0.48526 0.88444 0.58111 0.0
H647 H 0.534 0.8817 0.63489 0.0
C648 C 0.66152 0.5144 0.95757 0.0
C649 C 0.70188 0.53306 0.94468 0.0
C650 C 0.63236 0.48823 0.92544 0.0
C651 C 0.6433 0.48049 0.87981 0.0
C652 C 0.68357 0.50149 0.866 0.0
C653 C 0.71256 0.52752 0.89818 0.0
C654 C 0.61405 0.45015 0.84619 0.0
C655 C 0.57995 0.41826 0.86143 0.0
C656 C 0.55326 0.38443 0.8297 0.0
C657 C 0.52716 0.34773 0.85156 0.0
C658 C 0.50266 0.31451 0.82357 0.0
C659 C 0.50348 0.3172 0.77283 0.0
H660 H 0.57204 0.41545 0.76053 0.0
C661 C 0.52883 0.35413 0.75079 0.0
C662 C 0.55338 0.38748 0.77889 0.0
H663 H 0.52977 0.35735 0.71182 0.0
H664 H 0.65262 0.5191 0.993 0.0
H665 H 0.6015 0.47402 0.93669 0.0
H666 H 0.69281 0.49702 0.83066 0.0
H667 H 0.74323 0.54362 0.88649 0.0
H668 H 0.62309 0.4522 0.80865 0.0
H669 H 0.57283 0.41476 0.89975 0.0
H670 H 0.52614 0.3445 0.89057 0.0
H671 H 0.48328 0.28665 0.84191 0.0
loop_
_geom_bond_atom_site_label_1
_geom_bond_atom_site_label_2
_geom_bond_distance
_geom_bond_site_symmetry_2
_ccdc_geom_bond_type
Tb0 C2 2.809 . S
Tb0 O20 2.484 . S
Tb0 O21 2.440 . S
Tb0 O22 2.658 1_556 S
Tb0 O23 2.409 . S
Tb0 O24 2.378 . S
Tb0 O28 2.325 . S
Tb0 O31 2.341 1_556 S
Tb1 C11 2.809 . S
Tb1 O22 2.325 . S
Tb1 O25 2.341 1_554 S
Tb1 O26 2.484 . S
Tb1 O27 2.440 . S
Tb1 O28 2.658 1_554 S
Tb1 O29 2.409 . S
Tb1 O30 2.378 . S
C2 Tb0 2.809 . S
C2 C3 1.514 . S
C2 O20 1.248 . S
C2 O21 1.266 . S
C3 C2 1.514 . S
C3 C4 1.359 . S
C3 C8 1.348 . S
C4 C3 1.359 . S
C4 C5 1.380 . S
C4 H32 0.929 . S
C5 C4 1.380 . S
C5 C6 1.347 . S
C5 H33 0.931 . S
C6 C5 1.347 . S
C6 C7 1.369 . S
C7 C6 1.369 . S
C7 C8 1.408 . S
C7 H34 0.930 . S
C8 C3 1.348 . S
C8 C7 1.408 . S
C8 H35 0.930 . S
C9 O22 1.281 . S
C9 O23 1.254 1_554 S
C10 O24 1.236 . S
C10 O25 1.266 . S
C11 Tb1 2.809 . S
C11 C12 1.514 . S
C11 O26 1.248 . S
C11 O27 1.266 . S
C12 C11 1.514 . S
C12 C13 1.359 . S
C12 C17 1.348 . S
C13 C12 1.359 . S
C13 C14 1.380 . S
C13 H36 0.929 . S
C14 C13 1.380 . S
C14 C15 1.347 . S
C14 H37 0.931 . S
C15 C14 1.347 . S
C15 C16 1.369 . S
C16 C15 1.369 . S
C16 C17 1.408 . S
C16 H38 0.930 . S
C17 C12 1.348 . S
C17 C16 1.408 . S
C17 H39 0.930 . S
C18 O28 1.281 . S
C18 O29 1.254 1_556 S
C19 O30 1.236 . S
C19 O31 1.266 . S
O20 Tb0 2.484 . S
O20 C2 1.248 . S
O21 Tb0 2.440 . S
O21 C2 1.266 . S
O22 Tb0 2.658 1_554 S
O22 Tb1 2.325 . S
O22 C9 1.281 . S
O23 Tb0 2.409 . S
O23 C9 1.254 1_556 S
O24 Tb0 2.378 . S
O24 C10 1.236 . S
O25 Tb1 2.341 1_556 S
O25 C10 1.266 . S
O26 Tb1 2.484 . S
O26 C11 1.248 . S
O27 Tb1 2.440 . S
O27 C11 1.266 . S
O28 Tb0 2.325 . S
O28 Tb1 2.658 1_556 S
O28 C18 1.281 . S
O29 Tb1 2.409 . S
O29 C18 1.254 1_554 S
O30 Tb1 2.378 . S
O30 C19 1.236 . S
O31 Tb0 2.341 1_554 S
O31 C19 1.266 . S
H32 C4 0.929 . S
H33 C5 0.931 . S
H34 C7 0.930 . S
H35 C8 0.930 . S
H36 C13 0.929 . S
H37 C14 0.931 . S
H38 C16 0.930 . S
H39 C17 0.930 . S
Tb40 C42 2.809 . S
Tb40 O60 2.484 . S
Tb40 O61 2.440 . S
Tb40 O62 2.658 . S
Tb40 O63 2.409 . S
Tb40 O64 2.378 . S
Tb40 O68 2.325 . S
Tb40 O71 2.341 . S
Tb41 C51 2.809 . S
Tb41 O62 2.325 . S
Tb41 O65 2.341 . S
Tb41 O66 2.484 . S
Tb41 O67 2.440 . S
Tb41 O68 2.658 . S
Tb41 O69 2.409 . S
Tb41 O70 2.378 . S
C42 Tb40 2.809 . S
C42 C43 1.514 . S
C42 O60 1.248 . S
C42 O61 1.266 . S
C43 C42 1.514 . S
C43 C44 1.359 . S
C43 C48 1.348 . S
C44 C43 1.359 . S
C44 C45 1.380 . S
C44 H72 0.929 . S
C45 C44 1.380 . S
C45 C46 1.347 . S
C45 H73 0.931 . S
C46 C45 1.347 . S
C46 C47 1.369 . S
C47 C46 1.369 . S
C47 C48 1.408 . S
C47 H74 0.930 . S
C48 C43 1.348 . S
C48 C47 1.408 . S
C48 H75 0.930 . S
C49 O62 1.281 . S
C49 O63 1.254 . S
C50 O64 1.236 . S
C50 O65 1.266 . S
C51 Tb41 2.809 . S
C51 C52 1.514 . S
C51 O66 1.248 . S
C51 O67 1.266 . S
C52 C51 1.514 . S
C52 C53 1.359 . S
C52 C57 1.348 . S
C53 C52 1.359 . S
C53 C54 1.380 . S
C53 H76 0.929 . S
C54 C53 1.380 . S
C54 C55 1.347 . S
C54 H77 0.931 . S
C55 C54 1.347 . S
C55 C56 1.369 . S
C56 C55 1.369 . S
C56 C57 1.408 . S
C56 H78 0.930 . S
C57 C52 1.348 . S
C57 C56 1.408 . S
C57 H79 0.930 . S
C58 O68 1.281 . S
C58 O69 1.254 . S
C59 O70 1.236 . S
C59 O71 1.266 . S
O60 Tb40 2.484 . S
O60 C42 1.248 . S
O61 Tb40 2.440 . S
O61 C42 1.266 . S
O62 Tb40 2.658 . S
O62 Tb41 2.325 . S
O62 C49 1.281 . S
O63 Tb40 2.409 . S
O63 C49 1.254 . S
O64 Tb40 2.378 . S
O64 C50 1.236 . S
O65 Tb41 2.341 . S
O65 C50 1.266 . S
O66 Tb41 2.484 . S
O66 C51 1.248 . S
O67 Tb41 2.440 . S
O67 C51 1.266 . S
O68 Tb40 2.325 . S
O68 Tb41 2.658 . S
O68 C58 1.281 . S
O69 Tb41 2.409 . S
O69 C58 1.254 . S
O70 Tb41 2.378 . S
O70 C59 1.236 . S
O71 Tb40 2.341 . S
O71 C59 1.266 . S
H72 C44 0.929 . S
H73 C45 0.931 . S
H74 C47 0.930 . S
H75 C48 0.930 . S
H76 C53 0.929 . S
H77 C54 0.931 . S
H78 C56 0.930 . S
H79 C57 0.930 . S
Tb80 C82 2.809 . S
Tb80 O100 2.484 . S
Tb80 O101 2.440 . S
Tb80 O102 2.658 . S
Tb80 O103 2.409 . S
Tb80 O104 2.378 . S
Tb80 O108 2.325 . S
Tb80 O111 2.341 . S
Tb81 C91 2.809 . S
Tb81 O102 2.325 . S
Tb81 O105 2.341 . S
Tb81 O106 2.484 . S
Tb81 O107 2.440 . S
Tb81 O108 2.658 . S
Tb81 O109 2.409 . S
Tb81 O110 2.378 . S
C82 Tb80 2.809 . S
C82 C83 1.514 . S
C82 O100 1.248 . S
C82 O101 1.266 . S
C83 C82 1.514 . S
C83 C84 1.359 . S
C83 C88 1.348 . S
C84 C83 1.359 . S
C84 C85 1.380 . S
C84 H112 0.929 . S
C85 C84 1.380 . S
C85 C86 1.347 . S
C85 H113 0.931 . S
C86 C85 1.347 . S
C86 C87 1.369 . S
C87 C86 1.369 . S
C87 C88 1.408 . S
C87 H114 0.930 . S
C88 C83 1.348 . S
C88 C87 1.408 . S
C88 H115 0.930 . S
C89 O102 1.281 . S
C89 O103 1.254 . S
C90 O104 1.236 . S
C90 O105 1.266 . S
C91 Tb81 2.809 . S
C91 C92 1.514 . S
C91 O106 1.248 . S
C91 O107 1.266 . S
C92 C91 1.514 . S
C92 C93 1.359 . S
C92 C97 1.348 . S
C93 C92 1.359 . S
C93 C94 1.380 . S
C93 H116 0.929 . S
C94 C93 1.380 . S
C94 C95 1.347 . S
C94 H117 0.931 . S
C95 C94 1.347 . S
C95 C96 1.369 . S
C96 C95 1.369 . S
C96 C97 1.408 . S
C96 H118 0.930 . S
C97 C92 1.348 . S
C97 C96 1.408 . S
C97 H119 0.930 . S
C98 O108 1.281 . S
C98 O109 1.254 . S
C99 O110 1.236 . S
C99 O111 1.266 . S
O100 Tb80 2.484 . S
O100 C82 1.248 . S
O101 Tb80 2.440 . S
O101 C82 1.266 . S
O102 Tb80 2.658 . S
O102 Tb81 2.325 . S
O102 C89 1.281 . S
O103 Tb80 2.409 . S
O103 C89 1.254 . S
O104 Tb80 2.378 . S
O104 C90 1.236 . S
O105 Tb81 2.341 . S
O105 C90 1.266 . S
O106 Tb81 2.484 . S
O106 C91 1.248 . S
O107 Tb81 2.440 . S
O107 C91 1.266 . S
O108 Tb80 2.325 . S
O108 Tb81 2.658 . S
O108 C98 1.281 . S
O109 Tb81 2.409 . S
O109 C98 1.254 . S
O110 Tb81 2.378 . S
O110 C99 1.236 . S
O111 Tb80 2.341 . S
O111 C99 1.266 . S
H112 C84 0.929 . S
H113 C85 0.931 . S
H114 C87 0.930 . S
H115 C88 0.930 . S
H116 C93 0.929 . S
H117 C94 0.931 . S
H118 C96 0.930 . S
H119 C97 0.930 . S
Tb120 C122 2.809 . S
Tb120 O140 2.484 . S
Tb120 O141 2.440 . S
Tb120 O142 2.658 1_556 S
Tb120 O143 2.409 . S
Tb120 O144 2.378 . S
Tb120 O148 2.325 . S
Tb120 O151 2.341 1_556 S
Tb121 C131 2.809 . S
Tb121 O142 2.325 . S
Tb121 O145 2.341 1_554 S
Tb121 O146 2.484 . S
Tb121 O147 2.440 . S
Tb121 O148 2.658 1_554 S
Tb121 O149 2.409 . S
Tb121 O150 2.378 . S
C122 Tb120 2.809 . S
C122 C123 1.514 . S
C122 O140 1.248 . S
C122 O141 1.266 . S
C123 C122 1.514 . S
C123 C124 1.359 . S
C123 C128 1.348 . S
C124 C123 1.359 . S
C124 C125 1.380 . S
C124 H152 0.929 . S
C125 C124 1.380 . S
C125 C126 1.347 . S
C125 H153 0.931 . S
C126 C125 1.347 . S
C126 C127 1.369 . S
C127 C126 1.369 . S
C127 C128 1.408 . S
C127 H154 0.930 . S
C128 C123 1.348 . S
C128 C127 1.408 . S
C128 H155 0.930 . S
C129 O142 1.281 . S
C129 O143 1.254 1_554 S
C130 O144 1.236 . S
C130 O145 1.266 . S
C131 Tb121 2.809 . S
C131 C132 1.514 . S
C131 O146 1.248 . S
C131 O147 1.266 . S
C132 C131 1.514 . S
C132 C133 1.359 . S
C132 C137 1.348 . S
C133 C132 1.359 . S
C133 C134 1.380 . S
C133 H156 0.929 . S
C134 C133 1.380 . S
C134 C135 1.347 . S
C134 H157 0.931 . S
C135 C134 1.347 . S
C135 C136 1.369 . S
C136 C135 1.369 . S
C136 C137 1.408 . S
C136 H158 0.930 . S
C137 C132 1.348 . S
C137 C136 1.408 . S
C137 H159 0.930 . S
C138 O148 1.281 . S
C138 O149 1.254 1_556 S
C139 O150 1.236 . S
C139 O151 1.266 . S
O140 Tb120 2.484 . S
O140 C122 1.248 . S
O141 Tb120 2.440 . S
O141 C122 1.266 . S
O142 Tb120 2.658 1_554 S
O142 Tb121 2.325 . S
O142 C129 1.281 . S
O143 Tb120 2.409 . S
O143 C129 1.254 1_556 S
O144 Tb120 2.378 . S
O144 C130 1.236 . S
O145 Tb121 2.341 1_556 S
O145 C130 1.266 . S
O146 Tb121 2.484 . S
O146 C131 1.248 . S
O147 Tb121 2.440 . S
O147 C131 1.266 . S
O148 Tb120 2.325 . S
O148 Tb121 2.658 1_556 S
O148 C138 1.281 . S
O149 Tb121 2.409 . S
O149 C138 1.254 1_554 S
O150 Tb121 2.378 . S
O150 C139 1.236 . S
O151 Tb120 2.341 1_554 S
O151 C139 1.266 . S
H152 C124 0.929 . S
H153 C125 0.931 . S
H154 C127 0.930 . S
H155 C128 0.930 . S
H156 C133 0.929 . S
H157 C134 0.931 . S
H158 C136 0.930 . S
H159 C137 0.930 . S
Tb160 C162 2.809 . S
Tb160 O180 2.484 . S
Tb160 O181 2.440 . S
Tb160 O182 2.658 . S
Tb160 O183 2.409 . S
Tb160 O184 2.378 . S
Tb160 O188 2.325 . S
Tb160 O191 2.341 . S
Tb161 C171 2.809 . S
Tb161 O182 2.325 . S
Tb161 O185 2.341 . S
Tb161 O186 2.484 . S
Tb161 O187 2.440 . S
Tb161 O188 2.658 . S
Tb161 O189 2.409 . S
Tb161 O190 2.378 . S
C162 Tb160 2.809 . S
C162 C163 1.514 . S
C162 O180 1.248 . S
C162 O181 1.266 . S
C163 C162 1.514 . S
C163 C164 1.359 . S
C163 C168 1.348 . S
C164 C163 1.359 . S
C164 C165 1.380 . S
C164 H192 0.929 . S
C165 C164 1.380 . S
C165 C166 1.347 . S
C165 H193 0.931 . S
C166 C165 1.347 . S
C166 C167 1.369 . S
C167 C166 1.369 . S
C167 C168 1.408 . S
C167 H194 0.930 . S
C168 C163 1.348 . S
C168 C167 1.408 . S
C168 H195 0.930 . S
C169 O182 1.281 . S
C169 O183 1.254 . S
C170 O184 1.236 . S
C170 O185 1.266 . S
C171 Tb161 2.809 . S
C171 C172 1.514 . S
C171 O186 1.248 . S
C171 O187 1.266 . S
C172 C171 1.514 . S
C172 C173 1.359 . S
C172 C177 1.348 . S
C173 C172 1.359 . S
C173 C174 1.380 . S
C173 H196 0.929 . S
C174 C173 1.380 . S
C174 C175 1.347 . S
C174 H197 0.931 . S
C175 C174 1.347 . S
C175 C176 1.369 . S
C176 C175 1.369 . S
C176 C177 1.408 . S
C176 H198 0.930 . S
C177 C172 1.348 . S
C177 C176 1.408 . S
C177 H199 0.930 . S
C178 O188 1.281 . S
C178 O189 1.254 . S
C179 O190 1.236 . S
C179 O191 1.266 . S
O180 Tb160 2.484 . S
O180 C162 1.248 . S
O181 Tb160 2.440 . S
O181 C162 1.266 . S
O182 Tb160 2.658 . S
O182 Tb161 2.325 . S
O182 C169 1.281 . S
O183 Tb160 2.409 . S
O183 C169 1.254 . S
O184 Tb160 2.378 . S
O184 C170 1.236 . S
O185 Tb161 2.341 . S
O185 C170 1.266 . S
O186 Tb161 2.484 . S
O186 C171 1.248 . S
O187 Tb161 2.440 . S
O187 C171 1.266 . S
O188 Tb160 2.325 . S
O188 Tb161 2.658 . S
O188 C178 1.281 . S
O189 Tb161 2.409 . S
O189 C178 1.254 . S
O190 Tb161 2.378 . S
O190 C179 1.236 . S
O191 Tb160 2.341 . S
O191 C179 1.266 . S
H192 C164 0.929 . S
H193 C165 0.931 . S
H194 C167 0.930 . S
H195 C168 0.930 . S
H196 C173 0.929 . S
H197 C174 0.931 . S
H198 C176 0.930 . S
H199 C177 0.930 . S
Tb200 C202 2.809 . S
Tb200 O220 2.484 . S
Tb200 O221 2.440 . S
Tb200 O222 2.658 . S
Tb200 O223 2.409 . S
Tb200 O224 2.378 . S
Tb200 O228 2.325 . S
Tb200 O231 2.341 . S
Tb201 C211 2.809 . S
Tb201 O222 2.325 . S
Tb201 O225 2.341 . S
Tb201 O226 2.484 . S
Tb201 O227 2.440 . S
Tb201 O228 2.658 . S
Tb201 O229 2.409 . S
Tb201 O230 2.378 . S
C202 Tb200 2.809 . S
C202 C203 1.514 . S
C202 O220 1.248 . S
C202 O221 1.266 . S
C203 C202 1.514 . S
C203 C204 1.359 . S
C203 C208 1.348 . S
C204 C203 1.359 . S
C204 C205 1.380 . S
C204 H232 0.929 . S
C205 C204 1.380 . S
C205 C206 1.347 . S
C205 H233 0.931 . S
C206 C205 1.347 . S
C206 C207 1.369 . S
C207 C206 1.369 . S
C207 C208 1.408 . S
C207 H234 0.930 . S
C208 C203 1.348 . S
C208 C207 1.408 . S
C208 H235 0.930 . S
C209 O222 1.281 . S
C209 O223 1.254 . S
C210 O224 1.236 . S
C210 O225 1.266 . S
C211 Tb201 2.809 . S
C211 C212 1.514 . S
C211 O226 1.248 . S
C211 O227 1.266 . S
C212 C211 1.514 . S
C212 C213 1.359 . S
C212 C217 1.348 . S
C213 C212 1.359 . S
C213 C214 1.380 . S
C213 H236 0.929 . S
C214 C213 1.380 . S
C214 C215 1.347 . S
C214 H237 0.931 . S
C215 C214 1.347 . S
C215 C216 1.369 . S
C216 C215 1.369 . S
C216 C217 1.408 . S
C216 H238 0.930 . S
C217 C212 1.348 . S
C217 C216 1.408 . S
C217 H239 0.930 . S
C218 O228 1.281 . S
C218 O229 1.254 . S
C219 O230 1.236 . S
C219 O231 1.266 . S
O220 Tb200 2.484 . S
O220 C202 1.248 . S
O221 Tb200 2.440 . S
O221 C202 1.266 . S
O222 Tb200 2.658 . S
O222 Tb201 2.325 . S
O222 C209 1.281 . S
O223 Tb200 2.409 . S
O223 C209 1.254 . S
O224 Tb200 2.378 . S
O224 C210 1.236 . S
O225 Tb201 2.341 . S
O225 C210 1.266 . S
O226 Tb201 2.484 . S
O226 C211 1.248 . S
O227 Tb201 2.440 . S
O227 C211 1.266 . S
O228 Tb200 2.325 . S
O228 Tb201 2.658 . S
O228 C218 1.281 . S
O229 Tb201 2.409 . S
O229 C218 1.254 . S
O230 Tb201 2.378 . S
O230 C219 1.236 . S
O231 Tb200 2.341 . S
O231 C219 1.266 . S
H232 C204 0.929 . S
H233 C205 0.931 . S
H234 C207 0.930 . S
H235 C208 0.930 . S
H236 C213 0.929 . S
H237 C214 0.931 . S
H238 C216 0.930 . S
H239 C217 0.930 . S
C240 C241 1.386 . S
C240 C242 1.383 . S
C240 H256 0.951 . S
C241 C240 1.386 . S
C241 C245 1.383 . S
C242 C240 1.383 . S
C242 C243 1.402 . S
C242 H257 0.951 . S
C243 C242 1.402 . S
C243 C244 1.375 . S
C243 C246 1.481 . S
C244 C243 1.375 . S
C244 C245 1.367 . S
C244 H258 0.951 . S
C245 C241 1.383 . S
C245 C244 1.367 . S
C245 H259 0.950 . S
C246 C243 1.481 . S
C246 C247 1.297 . S
C246 H260 0.950 . S
C247 C246 1.297 . S
C247 C248 1.479 . S
C247 H261 0.950 . S
C248 C247 1.479 . S
C248 C249 1.375 . S
C248 C254 1.404 . S
C249 C248 1.375 . S
C249 C250 1.369 . S
C249 H262 0.950 . S
C250 C249 1.369 . S
C250 C251 1.392 . S
C250 H263 0.951 . S
C251 C250 1.392 . S
C251 C253 1.384 . S
H252 C254 0.949 . S
C253 C251 1.384 . S
C253 C254 1.385 . S
C253 H255 0.950 . S
C254 C248 1.404 . S
C254 H252 0.949 . S
C254 C253 1.385 . S
H255 C253 0.950 . S
H256 C240 0.951 . S
H257 C242 0.951 . S
H258 C244 0.951 . S
H259 C245 0.950 . S
H260 C246 0.950 . S
H261 C247 0.950 . S
H262 C249 0.950 . S
H263 C250 0.951 . S
C264 C265 1.386 . S
C264 C266 1.383 . S
C264 H280 0.951 . S
C265 C264 1.386 . S
C265 C269 1.383 . S
C266 C264 1.383 . S
C266 C267 1.402 . S
C266 H281 0.951 . S
C267 C266 1.402 . S
C267 C268 1.375 . S
C267 C270 1.481 . S
C268 C267 1.375 . S
C268 C269 1.367 . S
C268 H282 0.951 . S
C269 C265 1.383 . S
C269 C268 1.367 . S
C269 H283 0.950 . S
C270 C267 1.481 . S
C270 C271 1.298 1_455 S
C270 H284 0.950 1_455 S
C271 C270 1.298 1_655 S
C271 C272 1.491 . S
C271 H285 0.936 1_655 S
C272 C271 1.491 . S
C272 C273 1.375 . S
C272 C278 1.404 . S
C273 C272 1.375 . S
C273 C274 1.369 . S
C273 H286 0.950 . S
C274 C273 1.369 . S
C274 C275 1.392 . S
C274 H287 0.951 . S
C275 C274 1.392 . S
C275 C277 1.384 . S
H276 C278 0.949 . S
C277 C275 1.384 . S
C277 C278 1.385 . S
C277 H279 0.950 . S
C278 C272 1.404 . S
C278 H276 0.949 . S
C278 C277 1.385 . S
H279 C277 0.950 . S
H280 C264 0.951 . S
H281 C266 0.951 . S
H282 C268 0.951 . S
H283 C269 0.950 . S
H284 C270 0.950 1_655 S
H285 C271 0.936 1_455 S
H286 C273 0.950 . S
H287 C274 0.951 . S
C288 C289 1.386 . S
C288 C290 1.383 . S
C288 H304 0.951 . S
C289 C288 1.386 . S
C289 C293 1.383 . S
C290 C288 1.383 . S
C290 C291 1.402 . S
C290 H305 0.951 . S
C291 C290 1.402 . S
C291 C292 1.375 . S
C291 C294 1.481 1_545 S
C292 C291 1.375 . S
C292 C293 1.367 . S
C292 H306 0.951 . S
C293 C289 1.383 . S
C293 C292 1.367 . S
C293 H307 0.950 . S
C294 C291 1.481 1_565 S
C294 C295 1.297 . S
C294 H308 0.950 . S
C295 C294 1.297 . S
C295 C296 1.479 . S
C295 H309 0.950 . S
C296 C295 1.479 . S
C296 C297 1.375 . S
C296 C302 1.404 . S
C297 C296 1.375 . S
C297 C298 1.369 . S
C297 H310 0.950 . S
C298 C297 1.369 . S
C298 C299 1.392 . S
C298 H311 0.951 . S
C299 C298 1.392 . S
C299 C301 1.384 . S
H300 C302 0.949 . S
C301 C299 1.384 . S
C301 C302 1.385 . S
C301 H303 0.950 . S
C302 C296 1.404 . S
C302 H300 0.949 . S
C302 C301 1.385 . S
H303 C301 0.950 . S
H304 C288 0.951 . S
H305 C290 0.951 . S
H306 C292 0.951 . S
H307 C293 0.950 . S
H308 C294 0.950 . S
H309 C295 0.950 . S
H310 C297 0.950 . S
H311 C298 0.951 . S
C312 C313 1.386 . S
C312 C314 1.383 . S
C312 H328 0.951 . S
C313 C312 1.386 . S
C313 C317 1.383 . S
C314 C312 1.383 . S
C314 C315 1.402 . S
C314 H329 0.951 . S
C315 C314 1.402 . S
C315 C316 1.375 . S
C315 C318 1.481 . S
C316 C315 1.375 . S
C316 C317 1.367 . S
C316 H330 0.951 . S
C317 C313 1.383 . S
C317 C316 1.367 . S
C317 H331 0.950 . S
C318 C315 1.481 . S
C318 C319 1.297 . S
C318 H332 0.950 . S
C319 C318 1.297 . S
C319 C320 1.479 . S
C319 H333 0.950 . S
C320 C319 1.479 . S
C320 C321 1.375 . S
C320 C326 1.404 . S
C321 C320 1.375 . S
C321 C322 1.369 . S
C321 H334 0.950 . S
C322 C321 1.369 . S
C322 C323 1.392 . S
C322 H335 0.951 . S
C323 C322 1.392 . S
C323 C325 1.384 . S
H324 C326 0.949 . S
C325 C323 1.384 . S
C325 C326 1.385 . S
C325 H327 0.950 . S
C326 C320 1.404 . S
C326 H324 0.949 . S
C326 C325 1.385 . S
H327 C325 0.950 . S
H328 C312 0.951 . S
H329 C314 0.951 . S
H330 C316 0.951 . S
H331 C317 0.950 . S
H332 C318 0.950 . S
H333 C319 0.950 . S
H334 C321 0.950 . S
H335 C322 0.951 . S
C336 C337 1.386 . S
C336 C338 1.383 . S
C336 H352 0.951 . S
C337 C336 1.386 . S
C337 C341 1.383 . S
C338 C336 1.383 . S
C338 C339 1.402 . S
C338 H353 0.951 . S
C339 C338 1.402 . S
C339 C340 1.375 . S
C339 C342 1.481 . S
C340 C339 1.375 . S
C340 C341 1.367 . S
C340 H354 0.951 . S
C341 C337 1.383 . S
C341 C340 1.367 . S
C341 H355 0.950 . S
C342 C339 1.481 . S
C342 C343 1.297 . S
C342 H356 0.950 1_455 S
C343 C342 1.297 . S
C343 C344 1.479 1_455 S
C343 H357 0.950 . S
C344 C343 1.479 1_655 S
C344 C345 1.375 . S
C344 C350 1.404 . S
C345 C344 1.375 . S
C345 C346 1.369 . S
C345 H358 0.950 . S
C346 C345 1.369 . S
C346 C347 1.392 . S
C346 H359 0.944 1_554 S
C347 C346 1.392 . S
C347 C349 1.384 . S
H348 C350 0.949 . S
C349 C347 1.384 . S
C349 C350 1.385 . S
C349 H351 0.950 . S
C350 C344 1.404 . S
C350 H348 0.949 . S
C350 C349 1.385 . S
H351 C349 0.950 . S
H352 C336 0.951 . S
H353 C338 0.951 . S
H354 C340 0.951 . S
H355 C341 0.950 . S
H356 C342 0.950 1_655 S
H357 C343 0.950 . S
H358 C345 0.950 . S
H359 C346 0.944 1_556 S
C360 C361 1.386 . S
C360 C362 1.383 . S
C360 H376 0.951 . S
C361 C360 1.386 . S
C361 C365 1.383 . S
C362 C360 1.383 . S
C362 C363 1.402 . S
C362 H377 0.951 . S
C363 C362 1.402 . S
C363 C364 1.375 . S
C363 C366 1.481 . S
C364 C363 1.375 . S
C364 C365 1.367 . S
C364 H378 0.951 . S
C365 C361 1.383 . S
C365 C364 1.367 . S
C365 H379 0.950 . S
C366 C363 1.481 . S
C366 C367 1.297 . S
C366 H380 0.950 . S
C367 C366 1.297 . S
C367 C368 1.479 1_545 S
C367 H381 0.950 . S
C368 C367 1.479 1_565 S
C368 C369 1.375 . S
C368 C374 1.404 . S
C369 C368 1.375 . S
C369 C370 1.369 . S
C369 H382 0.950 . S
C370 C369 1.369 . S
C370 C371 1.392 . S
C370 H383 0.951 . S
C371 C370 1.392 . S
C371 C373 1.384 . S
H372 C374 0.949 . S
C373 C371 1.384 . S
C373 C374 1.385 . S
C373 H375 0.950 . S
C374 C368 1.404 . S
C374 H372 0.949 . S
C374 C373 1.385 . S
H375 C373 0.950 . S
H376 C360 0.951 . S
H377 C362 0.951 . S
H378 C364 0.951 . S
H379 C365 0.950 . S
H380 C366 0.950 . S
H381 C367 0.950 . S
H382 C369 0.950 . S
H383 C370 0.951 . S
C384 C385 1.386 . S
C384 C386 1.383 . S
C384 H400 0.951 . S
C385 C384 1.386 . S
C385 C389 1.383 . S
C386 C384 1.383 . S
C386 C387 1.402 . S
C386 H401 0.951 . S
C387 C386 1.402 . S
C387 C388 1.375 . S
C387 C390 1.481 . S
C388 C387 1.375 . S
C388 C389 1.367 . S
C388 H402 0.951 . S
C389 C385 1.383 . S
C389 C388 1.367 . S
C389 H403 0.950 . S
C390 C387 1.481 . S
C390 C391 1.297 . S
C390 H404 0.950 . S
C391 C390 1.297 . S
C391 C392 1.479 . S
C391 H405 0.950 . S
C392 C391 1.479 . S
C392 C393 1.375 . S
C392 C398 1.404 . S
C393 C392 1.375 . S
C393 C394 1.369 . S
C393 H406 0.950 . S
C394 C393 1.369 . S
C394 C395 1.392 . S
C394 H407 0.951 . S
C395 C394 1.392 . S
C395 C397 1.384 . S
H396 C398 0.949 . S
C397 C395 1.384 . S
C397 C398 1.385 . S
C397 H399 0.950 . S
C398 C392 1.404 . S
C398 H396 0.949 . S
C398 C397 1.385 . S
H399 C397 0.950 . S
H400 C384 0.951 . S
H401 C386 0.951 . S
H402 C388 0.951 . S
H403 C389 0.950 . S
H404 C390 0.950 . S
H405 C391 0.950 . S
H406 C393 0.950 . S
H407 C394 0.951 . S
C408 C409 1.386 . S
C408 C410 1.383 . S
C408 H424 0.951 . S
C409 C408 1.386 . S
C409 C413 1.383 . S
C410 C408 1.383 . S
C410 C411 1.402 . S
C410 H425 0.951 . S
C411 C410 1.402 . S
C411 C412 1.375 . S
C411 C414 1.481 . S
C412 C411 1.375 . S
C412 C413 1.367 . S
C412 H426 0.951 . S
C413 C409 1.383 . S
C413 C412 1.367 . S
C413 H427 0.950 . S
C414 C411 1.481 . S
C414 C415 1.297 . S
C414 H428 0.950 . S
C415 C414 1.297 . S
C415 C416 1.479 . S
C415 H429 0.950 . S
C416 C415 1.479 . S
C416 C417 1.375 . S
C416 C422 1.404 . S
C417 C416 1.375 . S
C417 C418 1.369 . S
C417 H430 0.950 . S
C418 C417 1.369 . S
C418 C419 1.392 . S
C418 H431 0.951 . S
C419 C418 1.392 . S
C419 C421 1.384 . S
H420 C422 0.949 . S
C421 C419 1.384 . S
C421 C422 1.385 . S
C421 H423 0.950 . S
C422 C416 1.404 . S
C422 H420 0.949 . S
C422 C421 1.385 . S
H423 C421 0.950 . S
H424 C408 0.951 . S
H425 C410 0.951 . S
H426 C412 0.951 . S
H427 C413 0.950 . S
H428 C414 0.950 . S
H429 C415 0.950 . S
H430 C417 0.950 . S
H431 C418 0.951 . S
C432 C433 1.386 . S
C432 C434 1.383 . S
C432 H448 0.951 . S
C433 C432 1.386 . S
C433 C437 1.383 . S
C434 C432 1.383 . S
C434 C435 1.402 . S
C434 H449 0.951 . S
C435 C434 1.402 . S
C435 C436 1.375 . S
C435 C438 1.481 . S
C436 C435 1.375 . S
C436 C437 1.367 . S
C436 H450 0.951 . S
C437 C433 1.383 . S
C437 C436 1.367 . S
C437 H451 0.950 . S
C438 C435 1.481 . S
C438 C439 1.297 . S
C438 H452 0.950 . S
C439 C438 1.297 . S
C439 C440 1.479 . S
C439 H453 0.950 . S
C440 C439 1.479 . S
C440 C441 1.375 . S
C440 C446 1.404 . S
C441 C440 1.375 . S
C441 C442 1.369 . S
C441 H454 0.950 . S
C442 C441 1.369 . S
C442 C443 1.392 . S
C442 H455 0.951 . S
C443 C442 1.392 . S
C443 C445 1.384 . S
H444 C446 0.949 . S
C445 C443 1.384 . S
C445 C446 1.385 . S
C445 H447 0.950 1_554 S
C446 C440 1.404 . S
C446 H444 0.949 . S
C446 C445 1.385 . S
H447 C445 0.950 1_556 S
H448 C432 0.951 . S
H449 C434 0.951 . S
H450 C436 0.951 . S
H451 C437 0.950 . S
H452 C438 0.950 . S
H453 C439 0.950 . S
H454 C441 0.950 . S
H455 C442 0.951 . S
C456 C457 1.386 . S
C456 C458 1.383 . S
C456 H472 0.951 . S
C457 C456 1.386 . S
C457 C461 1.383 . S
C458 C456 1.383 . S
C458 C459 1.402 . S
C458 H473 0.951 . S
C459 C458 1.402 . S
C459 C460 1.375 . S
C459 C462 1.481 . S
C460 C459 1.375 . S
C460 C461 1.367 . S
C460 H474 0.951 . S
C461 C457 1.383 . S
C461 C460 1.367 . S
C461 H475 0.950 . S
C462 C459 1.481 . S
C462 C463 1.297 . S
C462 H476 0.950 . S
C463 C462 1.297 . S
C463 C464 1.479 . S
C463 H477 0.950 . S
C464 C463 1.479 . S
C464 C465 1.375 . S
C464 C470 1.404 . S
C465 C464 1.375 . S
C465 C466 1.369 . S
C465 H478 0.950 . S
C466 C465 1.369 . S
C466 C467 1.392 . S
C466 H479 0.951 . S
C467 C466 1.392 . S
C467 C469 1.384 . S
H468 C470 0.949 . S
C469 C467 1.384 . S
C469 C470 1.385 . S
C469 H471 0.950 . S
C470 C464 1.404 . S
C470 H468 0.949 . S
C470 C469 1.385 . S
H471 C469 0.950 . S
H472 C456 0.951 . S
H473 C458 0.951 . S
H474 C460 0.951 . S
H475 C461 0.950 . S
H476 C462 0.950 . S
H477 C463 0.950 . S
H478 C465 0.950 . S
H479 C466 0.951 . S
C480 C481 1.386 . S
C480 C482 1.383 . S
C480 H496 0.951 . S
C481 C480 1.386 . S
C481 C485 1.383 . S
C482 C480 1.383 . S
C482 C483 1.402 . S
C482 H497 0.951 . S
C483 C482 1.402 . S
C483 C484 1.375 . S
C483 C486 1.481 . S
C484 C483 1.375 . S
C484 C485 1.367 . S
C484 H498 0.951 . S
C485 C481 1.383 . S
C485 C484 1.367 . S
C485 H499 0.950 . S
C486 C483 1.481 . S
C486 C487 1.297 . S
C486 H500 0.950 . S
C487 C486 1.297 . S
C487 C488 1.479 . S
C487 H501 0.950 . S
C488 C487 1.479 . S
C488 C489 1.375 . S
C488 C494 1.404 . S
C489 C488 1.375 . S
C489 C490 1.369 . S
C489 H502 0.950 . S
C490 C489 1.369 . S
C490 C491 1.392 . S
C490 H503 0.951 . S
C491 C490 1.392 . S
C491 C493 1.384 . S
H492 C494 0.949 . S
C493 C491 1.384 . S
C493 C494 1.385 . S
C493 H495 0.950 . S
C494 C488 1.404 . S
C494 H492 0.949 . S
C494 C493 1.385 . S
H495 C493 0.950 . S
H496 C480 0.951 . S
H497 C482 0.951 . S
H498 C484 0.951 . S
H499 C485 0.950 . S
H500 C486 0.950 . S
H501 C487 0.950 . S
H502 C489 0.950 . S
H503 C490 0.951 . S
C504 C505 1.386 . S
C504 C506 1.383 . S
C504 H520 0.951 . S
C505 C504 1.386 . S
C505 C509 1.383 . S
C506 C504 1.383 . S
C506 C507 1.402 . S
C506 H521 0.951 . S
C507 C506 1.402 . S
C507 C508 1.375 . S
C507 C510 1.481 . S
C508 C507 1.375 . S
C508 C509 1.367 . S
C508 H522 0.951 . S
C509 C505 1.383 . S
C509 C508 1.367 . S
C509 H523 0.950 . S
C510 C507 1.481 . S
C510 C511 1.297 . S
C510 H524 0.950 . S
C511 C510 1.297 . S
C511 C512 1.479 . S
C511 H525 0.950 . S
C512 C511 1.479 . S
C512 C513 1.375 . S
C512 C518 1.404 . S
C513 C512 1.375 . S
C513 C514 1.369 . S
C513 H526 0.950 . S
C514 C513 1.369 . S
C514 C515 1.392 . S
C514 H527 0.951 . S
C515 C514 1.392 . S
C515 C517 1.384 . S
H516 C518 0.949 . S
C517 C515 1.384 . S
C517 C518 1.385 . S
C517 H519 0.950 . S
C518 C512 1.404 . S
C518 H516 0.949 . S
C518 C517 1.385 . S
H519 C517 0.950 . S
H520 C504 0.951 . S
H521 C506 0.951 . S
H522 C508 0.951 . S
H523 C509 0.950 . S
H524 C510 0.950 . S
H525 C511 0.950 . S
H526 C513 0.950 . S
H527 C514 0.951 . S
C528 C529 1.386 . S
C528 C530 1.383 . S
C528 H544 0.951 . S
C529 C528 1.386 . S
C529 C533 1.383 . S
C530 C528 1.383 . S
C530 C531 1.402 . S
C530 H545 0.951 . S
C531 C530 1.402 . S
C531 C532 1.375 . S
C531 C534 1.481 . S
C532 C531 1.375 . S
C532 C533 1.367 . S
C532 H546 0.951 . S
C533 C529 1.383 . S
C533 C532 1.367 . S
C533 H547 0.950 . S
C534 C531 1.481 . S
C534 C535 1.297 . S
C534 H548 0.950 . S
C535 C534 1.297 . S
C535 C536 1.479 . S
C535 H549 0.950 . S
C536 C535 1.479 . S
C536 C537 1.375 . S
C536 C542 1.404 . S
C537 C536 1.375 . S
C537 C538 1.369 . S
C537 H550 0.950 . S
C538 C537 1.369 . S
C538 C539 1.392 . S
C538 H551 0.951 . S
C539 C538 1.392 . S
C539 C541 1.384 . S
H540 C542 0.949 . S
C541 C539 1.384 . S
C541 C542 1.385 . S
C541 H543 0.950 . S
C542 C536 1.404 . S
C542 H540 0.949 . S
C542 C541 1.385 . S
H543 C541 0.950 . S
H544 C528 0.951 . S
H545 C530 0.951 . S
H546 C532 0.951 . S
H547 C533 0.950 . S
H548 C534 0.950 . S
H549 C535 0.950 . S
H550 C537 0.950 . S
H551 C538 0.951 . S
C552 C553 1.386 . S
C552 C554 1.383 . S
C552 H568 0.951 . S
C553 C552 1.386 . S
C553 C557 1.383 . S
C554 C552 1.383 . S
C554 C555 1.402 . S
C554 H569 0.951 . S
C555 C554 1.402 . S
C555 C556 1.375 . S
C555 C558 1.481 . S
C556 C555 1.375 . S
C556 C557 1.367 . S
C556 H570 0.951 . S
C557 C553 1.383 . S
C557 C556 1.367 . S
C557 H571 0.950 . S
C558 C555 1.481 . S
C558 C559 1.297 . S
C558 H572 0.950 . S
C559 C558 1.297 . S
C559 C560 1.479 . S
C559 H573 0.950 . S
C560 C559 1.479 . S
C560 C561 1.375 . S
C560 C566 1.404 . S
C561 C560 1.375 . S
C561 C562 1.369 . S
C561 H574 0.950 . S
C562 C561 1.369 . S
C562 C563 1.392 . S
C562 H575 0.951 . S
C563 C562 1.392 . S
C563 C565 1.384 . S
H564 C566 0.949 . S
C565 C563 1.384 . S
C565 C566 1.385 . S
C565 H567 0.950 . S
C566 C560 1.404 . S
C566 H564 0.949 . S
C566 C565 1.385 . S
H567 C565 0.950 . S
H568 C552 0.951 . S
H569 C554 0.951 . S
H570 C556 0.951 . S
H571 C557 0.950 . S
H572 C558 0.950 . S
H573 C559 0.950 . S
H574 C561 0.950 . S
H575 C562 0.951 . S
C576 C577 1.386 . S
C576 C578 1.383 . S
C576 H592 0.951 . S
C577 C576 1.386 . S
C577 C581 1.383 . S
C578 C576 1.383 . S
C578 C579 1.402 . S
C578 H593 0.951 . S
C579 C578 1.402 . S
C579 C580 1.375 . S
C579 C582 1.481 . S
C580 C579 1.375 . S
C580 C581 1.367 . S
C580 H594 0.951 . S
C581 C577 1.383 . S
C581 C580 1.367 . S
C581 H595 0.950 . S
C582 C579 1.481 . S
C582 C583 1.297 . S
C582 H596 0.950 . S
C583 C582 1.297 . S
C583 C584 1.479 . S
C583 H597 0.950 . S
C584 C583 1.479 . S
C584 C585 1.375 . S
C584 C590 1.404 . S
C585 C584 1.375 . S
C585 C586 1.369 . S
C585 H598 0.950 . S
C586 C585 1.369 . S
C586 C587 1.392 . S
C586 H599 0.951 . S
C587 C586 1.392 . S
C587 C589 1.384 . S
H588 C590 0.949 . S
C589 C587 1.384 . S
C589 C590 1.385 . S
C589 H591 0.950 . S
C590 C584 1.404 . S
C590 H588 0.949 . S
C590 C589 1.385 . S
H591 C589 0.950 . S
H592 C576 0.951 . S
H593 C578 0.951 . S
H594 C580 0.951 . S
H595 C581 0.950 . S
H596 C582 0.950 . S
H597 C583 0.950 . S
H598 C585 0.950 . S
H599 C586 0.951 . S
C600 C601 1.386 . S
C600 C602 1.383 . S
C600 H616 0.951 . S
C601 C600 1.386 . S
C601 C605 1.383 . S
C602 C600 1.383 . S
C602 C603 1.402 . S
C602 H617 0.951 . S
C603 C602 1.402 . S
C603 C604 1.375 . S
C603 C606 1.481 . S
C604 C603 1.375 . S
C604 C605 1.367 . S
C604 H618 0.951 . S
C605 C601 1.383 . S
C605 C604 1.367 . S
C605 H619 0.950 . S
C606 C603 1.481 . S
C606 C607 1.297 . S
C606 H620 0.950 . S
C607 C606 1.297 . S
C607 C608 1.479 . S
C607 H621 0.950 . S
C608 C607 1.479 . S
C608 C609 1.375 . S
C608 C614 1.404 . S
C609 C608 1.375 . S
C609 C610 1.369 . S
C609 H622 0.950 . S
C610 C609 1.369 . S
C610 C611 1.392 . S
C610 H623 0.951 . S
C611 C610 1.392 . S
C611 C613 1.384 . S
H612 C614 0.949 . S
C613 C611 1.384 . S
C613 C614 1.385 . S
C613 H615 0.950 . S
C614 C608 1.404 . S
C614 H612 0.949 . S
C614 C613 1.385 . S
H615 C613 0.950 . S
H616 C600 0.951 . S
H617 C602 0.951 . S
H618 C604 0.951 . S
H619 C605 0.950 . S
H620 C606 0.950 . S
H621 C607 0.950 . S
H622 C609 0.950 . S
H623 C610 0.951 . S
C624 C625 1.386 . S
C624 C626 1.383 . S
C624 H640 0.951 . S
C625 C624 1.386 . S
C625 C629 1.383 . S
C626 C624 1.383 . S
C626 C627 1.402 . S
C626 H641 0.951 . S
C627 C626 1.402 . S
C627 C628 1.375 . S
C627 C630 1.481 . S
C628 C627 1.375 . S
C628 C629 1.367 . S
C628 H642 0.951 . S
C629 C625 1.383 . S
C629 C628 1.367 . S
C629 H643 0.950 . S
C630 C627 1.481 . S
C630 C631 1.297 . S
C630 H644 0.950 . S
C631 C630 1.297 . S
C631 C632 1.479 . S
C631 H645 0.950 . S
C632 C631 1.479 . S
C632 C633 1.375 . S
C632 C638 1.404 . S
C633 C632 1.375 . S
C633 C634 1.369 . S
C633 H646 0.950 . S
C634 C633 1.369 . S
C634 C635 1.392 . S
C634 H647 0.951 . S
C635 C634 1.392 . S
C635 C637 1.384 . S
H636 C638 0.949 . S
C637 C635 1.384 . S
C637 C638 1.385 . S
C637 H639 0.950 . S
C638 C632 1.404 . S
C638 H636 0.949 . S
C638 C637 1.385 . S
H639 C637 0.950 . S
H640 C624 0.951 . S
H641 C626 0.951 . S
H642 C628 0.951 . S
H643 C629 0.950 . S
H644 C630 0.950 . S
H645 C631 0.950 . S
H646 C633 0.950 . S
H647 C634 0.951 . S
C648 C649 1.386 . S
C648 C650 1.383 . S
C648 H664 0.951 . S
C649 C648 1.386 . S
C649 C653 1.383 . S
C650 C648 1.383 . S
C650 C651 1.402 . S
C650 H665 0.951 . S
C651 C650 1.402 . S
C651 C652 1.375 . S
C651 C654 1.481 . S
C652 C651 1.375 . S
C652 C653 1.367 . S
C652 H666 0.951 . S
C653 C649 1.383 . S
C653 C652 1.367 . S
C653 H667 0.950 . S
C654 C651 1.481 . S
C654 C655 1.297 . S
C654 H668 0.950 . S
C655 C654 1.297 . S
C655 C656 1.479 . S
C655 H669 0.950 . S
C656 C655 1.479 . S
C656 C657 1.375 . S
C656 C662 1.404 . S
C657 C656 1.375 . S
C657 C658 1.369 . S
C657 H670 0.950 . S
C658 C657 1.369 . S
C658 C659 1.392 . S
C658 H671 0.951 . S
C659 C658 1.392 . S
C659 C661 1.384 . S
H660 C662 0.949 . S
C661 C659 1.384 . S
C661 C662 1.385 . S
C661 H663 0.950 . S
C662 C656 1.404 . S
C662 H660 0.949 . S
C662 C661 1.385 . S
H663 C661 0.950 . S
H664 C648 0.951 . S
H665 C650 0.951 . S
H666 C652 0.951 . S
H667 C653 0.950 . S
H668 C654 0.950 . S
H669 C655 0.950 . S
H670 C657 0.950 . S
H671 C658 0.951 . S
C241 C209 1.302 . S
C251 C10 1.330 . S
C265 C9 1.231 . S
C275 C50 1.309 . S
C289 C49 1.275 . S
C299 C90 1.320 . S
C313 C89 1.280 . S
C323 C130 1.327 . S
C337 C170 1.320 . S
C347 C129 1.198 . S
C361 C210 1.325 . S
C371 C169 1.257 . S
C385 C6 1.345 . S
C395 C15 1.402 . S
C409 C46 1.378 1_556 S
C419 C55 1.288 . S
C433 C86 1.387 . S
C443 C95 1.319 1_554 S
C457 C126 1.372 . S
C467 C135 1.371 . S
C481 C175 1.319 . S
C491 C166 1.390 1_556 S
C505 C206 1.359 . S
C515 C215 1.391 1_554 S
C529 C19 1.690 . S
C539 C178 1.663 . S
C553 C59 1.669 . S
C563 C218 1.698 . S
C577 C18 1.681 . S
C587 C99 1.668 . S
C601 C58 1.686 . S
C611 C139 1.653 . S
C625 C179 1.664 . S
C635 C98 1.685 . S
C649 C138 1.688 . S
C659 C219 1.691 . S
