# Generated by pormake.
# Topology xfg, (7)-cn, num edge types: 1
# Building blocks:
#     Node 0, Type 0, BuildingBlock: NUHQUE_clean_sbu_2, # of connection points: 7
#     Node 1, Type 0, BuildingBlock: NUHQUE_clean_sbu_2, # of connection points: 7
#     Node 2, Type 0, BuildingBlock: NUHQUE_clean_sbu_2, # of connection points: 7
#     Node 3, Type 0, BuildingBlock: NUHQUE_clean_sbu_2, # of connection points: 7
#     Node 4, Type 0, BuildingBlock: NUHQUE_clean_sbu_2, # of connection points: 7
#     Node 5, Type 0, BuildingBlock: NUHQUE_clean_sbu_2, # of connection points: 7
#     Node 6, Type 0, BuildingBlock: NUHQUE_clean_sbu_2, # of connection points: 7
#     Node 7, Type 0, BuildingBlock: NUHQUE_clean_sbu_2, # of connection points: 7
#     Node 8, Type 0, BuildingBlock: NUHQUE_clean_sbu_2, # of connection points: 7
#     Node 9, Type 0, BuildingBlock: NUHQUE_clean_sbu_2, # of connection points: 7
#     Node 10, Type 0, BuildingBlock: NUHQUE_clean_sbu_2, # of connection points: 7
#     Node 11, Type 0, BuildingBlock: NUHQUE_clean_sbu_2, # of connection points: 7
#     Node 12, Type 0, BuildingBlock: NUHQUE_clean_sbu_2, # of connection points: 7
#     Node 13, Type 0, BuildingBlock: NUHQUE_clean_sbu_2, # of connection points: 7
#     Node 14, Type 0, BuildingBlock: NUHQUE_clean_sbu_2, # of connection points: 7
#     Node 15, Type 0, BuildingBlock: NUHQUE_clean_sbu_2, # of connection points: 7
#     Edge 16, Type (0, 0), BuildingBlock: OJICUG_clean_linker_0, # of connection points: 2
#     Edge 17, Type (0, 0), BuildingBlock: OJICUG_clean_linker_0, # of connection points: 2
#     Edge 18, Type (0, 0), BuildingBlock: OJICUG_clean_linker_0, # of connection points: 2
#     Edge 19, Type (0, 0), BuildingBlock: OJICUG_clean_linker_0, # of connection points: 2
#     Edge 20, Type (0, 0), BuildingBlock: OJICUG_clean_linker_0, # of connection points: 2
#     Edge 21, Type (0, 0), BuildingBlock: OJICUG_clean_linker_0, # of connection points: 2
#     Edge 22, Type (0, 0), BuildingBlock: OJICUG_clean_linker_0, # of connection points: 2
#     Edge 23, Type (0, 0), BuildingBlock: OJICUG_clean_linker_0, # of connection points: 2
#     Edge 24, Type (0, 0), BuildingBlock: OJICUG_clean_linker_0, # of connection points: 2
#     Edge 25, Type (0, 0), BuildingBlock: OJICUG_clean_linker_0, # of connection points: 2
#     Edge 26, Type (0, 0), BuildingBlock: OJICUG_clean_linker_0, # of connection points: 2
#     Edge 27, Type (0, 0), BuildingBlock: OJICUG_clean_linker_0, # of connection points: 2
#     Edge 28, Type (0, 0), BuildingBlock: OJICUG_clean_linker_0, # of connection points: 2
#     Edge 29, Type (0, 0), BuildingBlock: OJICUG_clean_linker_0, # of connection points: 2
#     Edge 30, Type (0, 0), BuildingBlock: OJICUG_clean_linker_0, # of connection points: 2
#     Edge 31, Type (0, 0), BuildingBlock: OJICUG_clean_linker_0, # of connection points: 2
#     Edge 32, Type (0, 0), BuildingBlock: OJICUG_clean_linker_0, # of connection points: 2
#     Edge 33, Type (0, 0), BuildingBlock: OJICUG_clean_linker_0, # of connection points: 2
#     Edge 34, Type (0, 0), BuildingBlock: OJICUG_clean_linker_0, # of connection points: 2
#     Edge 35, Type (0, 0), BuildingBlock: OJICUG_clean_linker_0, # of connection points: 2
#     Edge 36, Type (0, 0), BuildingBlock: OJICUG_clean_linker_0, # of connection points: 2
#     Edge 37, Type (0, 0), BuildingBlock: OJICUG_clean_linker_0, # of connection points: 2
#     Edge 38, Type (0, 0), BuildingBlock: OJICUG_clean_linker_0, # of connection points: 2
#     Edge 39, Type (0, 0), BuildingBlock: OJICUG_clean_linker_0, # of connection points: 2
#     Edge 40, Type (0, 0), BuildingBlock: OJICUG_clean_linker_0, # of connection points: 2
#     Edge 41, Type (0, 0), BuildingBlock: OJICUG_clean_linker_0, # of connection points: 2
#     Edge 42, Type (0, 0), BuildingBlock: OJICUG_clean_linker_0, # of connection points: 2
#     Edge 43, Type (0, 0), BuildingBlock: OJICUG_clean_linker_0, # of connection points: 2
#     Edge 44, Type (0, 0), BuildingBlock: OJICUG_clean_linker_0, # of connection points: 2
#     Edge 45, Type (0, 0), BuildingBlock: OJICUG_clean_linker_0, # of connection points: 2
#     Edge 46, Type (0, 0), BuildingBlock: OJICUG_clean_linker_0, # of connection points: 2
#     Edge 47, Type (0, 0), BuildingBlock: OJICUG_clean_linker_0, # of connection points: 2
#     Edge 48, Type (0, 0), BuildingBlock: OJICUG_clean_linker_0, # of connection points: 2
#     Edge 49, Type (0, 0), BuildingBlock: OJICUG_clean_linker_0, # of connection points: 2
#     Edge 50, Type (0, 0), BuildingBlock: OJICUG_clean_linker_0, # of connection points: 2
#     Edge 51, Type (0, 0), BuildingBlock: OJICUG_clean_linker_0, # of connection points: 2
#     Edge 52, Type (0, 0), BuildingBlock: OJICUG_clean_linker_0, # of connection points: 2
#     Edge 53, Type (0, 0), BuildingBlock: OJICUG_clean_linker_0, # of connection points: 2
#     Edge 54, Type (0, 0), BuildingBlock: OJICUG_clean_linker_0, # of connection points: 2
#     Edge 55, Type (0, 0), BuildingBlock: OJICUG_clean_linker_0, # of connection points: 2
#     Edge 56, Type (0, 0), BuildingBlock: OJICUG_clean_linker_0, # of connection points: 2
#     Edge 57, Type (0, 0), BuildingBlock: OJICUG_clean_linker_0, # of connection points: 2
#     Edge 58, Type (0, 0), BuildingBlock: OJICUG_clean_linker_0, # of connection points: 2
#     Edge 59, Type (0, 0), BuildingBlock: OJICUG_clean_linker_0, # of connection points: 2
#     Edge 60, Type (0, 0), BuildingBlock: OJICUG_clean_linker_0, # of connection points: 2
#     Edge 61, Type (0, 0), BuildingBlock: OJICUG_clean_linker_0, # of connection points: 2
#     Edge 62, Type (0, 0), BuildingBlock: OJICUG_clean_linker_0, # of connection points: 2
#     Edge 63, Type (0, 0), BuildingBlock: OJICUG_clean_linker_0, # of connection points: 2
#     Edge 64, Type (0, 0), BuildingBlock: OJICUG_clean_linker_0, # of connection points: 2
#     Edge 65, Type (0, 0), BuildingBlock: OJICUG_clean_linker_0, # of connection points: 2
#     Edge 66, Type (0, 0), BuildingBlock: OJICUG_clean_linker_0, # of connection points: 2
#     Edge 67, Type (0, 0), BuildingBlock: OJICUG_clean_linker_0, # of connection points: 2
#     Edge 68, Type (0, 0), BuildingBlock: OJICUG_clean_linker_0, # of connection points: 2
#     Edge 69, Type (0, 0), BuildingBlock: OJICUG_clean_linker_0, # of connection points: 2
#     Edge 70, Type (0, 0), BuildingBlock: OJICUG_clean_linker_0, # of connection points: 2
#     Edge 71, Type (0, 0), BuildingBlock: OJICUG_clean_linker_0, # of connection points: 2
# Relax obj value: 0.119
# Max RMSD: 0.188
# Mean RMSD: 0.188
data_MOF--net-xfg--node1-NUHQUE_clean_sbu_2--edge1-OJICUG_clean_linker_0
_symmetry_space_group_name_H-M    P1
_symmetry_Int_Tables_number       1
_symmetry_cell_setting            triclinic
loop_
_symmetry_equiv_pos_as_xyz
'x, y, z'
_cell_length_a     24.60891
_cell_length_b     24.70899
_cell_length_c     53.604733
_cell_angle_alpha  90.049991
_cell_angle_beta   90.055518
_cell_angle_gamma 89.769936
loop_
_atom_site_label
_atom_site_type_symbol
_atom_site_fract_x
_atom_site_fract_y
_atom_site_fract_z
_atom_type_partial_charge
O0 O 0.308 0.13839 1.00865 0.0
Tb1 Tb 0.33915 0.09775 0.04185 0.0
Eu2 Eu 0.4075 0.11666 0.09428 0.0
C3 C 0.33648 0.17385 0.99588 0.0
O4 O 0.38218 0.1923 1.00517 0.0
C5 C 0.46692 0.08913 0.04311 0.0
O6 O 0.43773 0.10197 0.1333 0.0
C7 C 0.38992 0.21985 0.08848 0.0
C8 C 0.43973 0.05274 0.14247 0.0
O9 O 0.42993 1.01154 0.12764 0.0
C10 C 0.28394 0.0853 0.09248 0.0
C11 C 0.35144 0.26575 0.09247 0.0
C12 C 0.32197 0.28377 0.0716 0.0
C13 C 0.29418 0.33328 0.07188 0.0
C14 C 0.29185 0.36288 0.09415 0.0
C15 C 0.31988 0.3459 0.11548 0.0
C16 C 0.35044 0.2973 0.11464 0.0
O17 O 0.42479 0.11442 0.03311 0.0
O18 O 0.46827 0.07965 0.06736 0.0
O19 O 0.29768 1.03131 0.02373 0.0
O20 O 0.36525 1.01369 0.04708 0.0
C21 C 0.3282 0.99299 0.03266 0.0
O22 O 0.3311 0.06962 0.10132 0.0
O23 O 0.28255 0.11571 0.07235 0.0
O24 O 0.41732 0.20008 0.10746 0.0
O25 O 0.37608 0.18289 0.072 0.0
H26 H 0.32414 0.2612 0.05427 0.0
H27 H 0.27202 0.40216 0.09444 0.0
H28 H 0.3749 0.28568 0.13058 0.0
O29 O 0.71388 0.55002 0.25992 0.0
Tb30 Tb 0.76642 0.57317 0.2909 0.0
Eu31 Eu 0.7441 0.64559 0.34392 0.0
C32 C 0.68462 0.58582 0.24751 0.0
O33 O 0.67691 0.63419 0.25705 0.0
C34 C 0.77122 0.70528 0.2908 0.0
O35 O 0.7653 0.68148 0.38118 0.0
C36 C 0.64492 0.61216 0.34965 0.0
C37 C 0.81432 0.67899 0.39077 0.0
O38 O 0.85489 0.66175 0.37694 0.0
C39 C 0.784 0.52611 0.34241 0.0
C40 C 0.58593 0.61031 0.34534 0.0
C41 C 0.56592 0.61662 0.32108 0.0
C42 C 0.51166 0.60575 0.31602 0.0
C43 C 0.47636 0.59086 0.33525 0.0
C44 C 0.49531 0.58253 0.35968 0.0
C45 C 0.55064 0.5933 0.36469 0.0
O46 O 0.76913 0.65807 0.27934 0.0
O47 O 0.76296 0.71068 0.3151 0.0
O48 O 0.82103 0.52002 0.27064 0.0
O49 O 0.85432 0.58116 0.29401 0.0
C50 C 0.86572 0.54154 0.27886 0.0
O51 O 0.80039 0.57425 0.34958 0.0
O52 O 0.75072 0.52258 0.32332 0.0
O53 O 0.6658 0.65077 0.36344 0.0
O54 O 0.67705 0.59589 0.33153 0.0
H55 H 0.59311 0.62667 0.30586 0.0
H56 H 0.43408 0.58365 0.33067 0.0
H57 H 0.56697 0.58566 0.38314 0.0
O58 O 0.30095 0.94678 0.51054 0.0
Tb59 Tb 0.27658 0.99823 0.54167 0.0
Eu60 Eu 0.20487 0.98733 0.59327 0.0
C61 C 0.26612 0.91709 0.49789 0.0
O62 O 0.21794 0.90742 0.50732 0.0
C63 C 0.14709 1.01847 0.54209 0.0
O64 O 0.17096 1.00285 0.63147 0.0
C65 C 0.21837 0.88351 0.58762 0.0
C66 C 0.16833 0.05215 0.64051 0.0
O67 O 0.17976 0.09319 0.62588 0.0
C68 C 0.32896 1.01268 0.59278 0.0
C69 C 0.25567 0.83642 0.59066 0.0
C70 C 0.28107 0.81657 0.56903 0.0
C71 C 0.30752 0.76638 0.56893 0.0
C72 C 0.31205 0.7374 0.59129 0.0
C73 C 0.28762 0.75597 0.61327 0.0
C74 C 0.25893 0.80566 0.61299 0.0
O75 O 0.18975 0.99551 0.53136 0.0
O76 O 0.1451 1.02564 0.56648 0.0
O77 O 0.32998 1.05054 0.5205 0.0
O78 O 0.26943 0.08636 0.54355 0.0
C79 C 0.30918 0.09594 0.52814 0.0
O80 O 0.28242 1.03209 0.60057 0.0
O81 O 0.32918 0.9794 0.57359 0.0
O82 O 0.19501 0.90479 0.60735 0.0
O83 O 0.23064 0.91945 0.57045 0.0
H84 H 0.27683 0.83838 0.55159 0.0
H85 H 0.33078 0.69757 0.59126 0.0
H86 H 0.23732 0.81871 0.62954 0.0
O87 O 0.90079 0.5425 0.75936 0.0
Tb88 Tb 0.85366 0.51594 0.79157 0.0
Eu89 Eu 0.86567 0.44621 0.84379 0.0
C90 C 0.9311 0.50934 0.74596 0.0
O91 O 0.94344 0.46133 0.75481 0.0
C92 C 0.83685 0.38798 0.79282 0.0
O93 O 0.85135 0.41496 0.88258 0.0
C94 C 0.96944 0.46026 0.83732 0.0
C95 C 0.80209 0.41304 0.8919 0.0
O96 O 0.76044 0.42357 0.8773 0.0
C97 C 0.83803 0.5699 0.84225 0.0
C98 C 1.0159 0.49802 0.84021 0.0
C99 C 1.03369 0.52514 0.8187 0.0
C100 C 0.08324 0.55259 0.81838 0.0
C101 C 0.1137 0.55607 0.84038 0.0
C102 C 0.09728 0.52969 0.86218 0.0
C103 C 1.0481 0.5004 0.86216 0.0
O104 O 0.86251 0.42928 0.78259 0.0
O105 O 0.82725 0.38689 0.81704 0.0
O106 O 0.79581 0.5652 0.77123 0.0
O107 O 0.76606 0.50214 0.79441 0.0
C108 C 0.75249 0.54115 0.77929 0.0
O109 O 0.81985 0.52349 0.85044 0.0
O110 O 0.87111 0.57025 0.82296 0.0
O111 O 0.94933 0.43621 0.85707 0.0
O112 O 0.93241 0.47275 0.82057 0.0
H113 H 1.01088 0.52156 0.80146 0.0
H114 H 0.15308 0.57564 0.84013 0.0
H115 H 1.03661 0.47763 0.87858 0.0
O116 O 0.80372 0.95644 1.01007 0.0
Tb117 Tb 0.7763 1.00524 0.9785 0.0
Eu118 Eu 0.70586 0.98927 0.92647 0.0
C119 C 0.77084 0.92408 0.02241 0.0
O120 O 0.72402 0.9106 0.01249 0.0
C121 C 0.64548 1.01449 0.97863 0.0
O122 O 0.66855 1.00457 0.88891 0.0
C123 C 0.73846 0.88964 0.92682 0.0
C124 C 0.66498 0.05364 0.87972 0.0
O125 O 0.67721 0.0951 0.894 0.0
C126 C 0.82619 1.02494 0.92746 0.0
C127 C 0.75719 0.83258 0.92722 0.0
C128 C 0.77308 0.81043 0.95017 0.0
C129 C 0.7951 0.7584 0.95147 0.0
C130 C 0.80123 0.72794 0.92963 0.0
C131 C 0.78525 0.7484 0.90643 0.0
C132 C 0.76327 0.80129 0.90512 0.0
O133 O 0.69064 0.99817 0.98969 0.0
O134 O 0.64163 1.01731 0.95407 0.0
O135 O 0.82664 0.06246 0.99844 0.0
O136 O 0.76169 0.09236 0.97607 0.0
C137 C 0.80166 0.10572 0.99075 0.0
O138 O 0.77829 1.04279 0.92044 0.0
O139 O 0.82887 0.9907 0.94622 0.0
O140 O 0.70964 0.90974 0.9084 0.0
O141 O 0.74498 0.92224 0.94602 0.0
H142 H 0.76853 0.83373 0.9672 0.0
H143 H 0.81678 0.68684 0.93075 0.0
H144 H 0.75113 0.81774 0.88723 0.0
O145 O 0.39247 0.55047 0.76291 0.0
Tb146 Tb 0.33983 0.52896 0.73167 0.0
Eu147 Eu 0.36074 0.45778 0.6788 0.0
C148 C 0.42088 0.51406 0.77537 0.0
O149 O 0.42875 0.46591 0.76563 0.0
C150 C 0.33165 0.39676 0.73049 0.0
O151 O 0.34477 0.4233 0.64072 0.0
C152 C 0.46151 0.48653 0.67962 0.0
C153 C 0.29573 0.42266 0.63109 0.0
O154 O 0.25411 0.43612 0.64515 0.0
C155 C 0.32478 0.57813 0.68017 0.0
C156 C 0.51916 0.50305 0.68033 0.0
C157 C 0.54208 0.51595 0.70352 0.0
C158 C 0.59537 0.53455 0.70508 0.0
C159 C 0.62642 0.53976 0.68339 0.0
C160 C 0.60526 0.52609 0.66 0.0
C161 C 0.55095 0.50814 0.65837 0.0
O162 O 0.33861 0.44314 0.74233 0.0
O163 O 0.33535 0.39236 0.70596 0.0
O164 O 0.28685 0.58254 0.75275 0.0
O165 O 0.25149 0.52305 0.72918 0.0
C166 C 0.24142 0.5624 0.7447 0.0
O167 O 0.30732 0.53069 0.67273 0.0
O168 O 0.35762 0.5803 0.6995 0.0
O169 O 0.44118 0.45755 0.66135 0.0
O170 O 0.42799 0.49662 0.69819 0.0
H171 H 0.51855 0.51159 0.7205 0.0
H172 H 0.66829 0.55308 0.68481 0.0
H173 H 0.53388 0.49797 0.64033 0.0
O174 O 0.8086 0.15231 0.51114 0.0
Tb175 Tb 0.83593 0.10323 0.47967 0.0
Eu176 Eu 0.90587 0.11643 0.42753 0.0
C177 C 0.84166 0.18272 0.52442 0.0
O178 O 0.89008 0.19413 0.5157 0.0
C179 C 0.96493 0.08715 0.47843 0.0
O180 O 0.93553 0.10235 0.38841 0.0
C181 C 0.8904 0.21964 0.43431 0.0
C182 C 0.93856 0.05313 0.37925 0.0
O183 O 0.93002 1.0118 0.39413 0.0
C184 C 0.78212 0.08695 0.42879 0.0
C185 C 0.85324 0.2667 0.43099 0.0
C186 C 0.82597 0.28556 0.45233 0.0
C187 C 0.79911 0.33553 0.45237 0.0
C188 C 0.79628 0.36534 0.43021 0.0
C189 C 0.82268 0.3478 0.40855 0.0
C190 C 0.85157 0.29825 0.40887 0.0
O191 O 0.92288 0.11179 0.48886 0.0
O192 O 0.96619 0.07829 0.45414 0.0
O193 O 0.7868 1.04749 0.50098 0.0
O194 O 0.8495 1.01567 0.47789 0.0
C195 C 0.8107 1.00359 0.49341 0.0
O196 O 0.82922 0.06992 0.42051 0.0
O197 O 0.78084 0.11938 0.44828 0.0
O198 O 0.91688 0.20006 0.41502 0.0
O199 O 0.8759 0.18237 0.45046 0.0
H200 H 0.82901 0.26312 0.46966 0.0
H201 H 0.7772 0.40501 0.43022 0.0
H202 H 0.87443 0.28589 0.39256 0.0
O203 O 0.22442 0.55134 0.26296 0.0
Tb204 Tb 0.2635 0.58386 0.22975 0.0
Eu205 Eu 0.24556 0.64827 0.17704 0.0
C206 C 0.18515 0.57706 0.27479 0.0
O207 O 0.16257 0.61982 0.26453 0.0
C208 C 0.26305 0.71107 0.22887 0.0
O209 O 0.26186 0.68268 0.13906 0.0
C210 C 0.14532 0.61737 0.17752 0.0
C211 C 0.31092 0.68251 0.12951 0.0
O212 O 0.35226 0.66836 0.14364 0.0
C213 C 0.28237 0.52768 0.17982 0.0
C214 C 0.08802 0.5994 0.17839 0.0
C215 C 0.06767 0.58106 0.20127 0.0
C216 C 1.01566 0.55925 0.20289 0.0
C217 C 0.98314 0.55629 0.18153 0.0
C218 C 1.00165 0.575 0.15845 0.0
C219 C 0.05479 0.59627 0.15674 0.0
O220 O 0.24116 0.66763 0.23899 0.0
O221 O 0.27278 0.7126 0.20465 0.0
O222 O 0.34537 0.61556 0.22408 0.0
O223 O 0.33354 0.54723 0.2475 0.0
C224 C 0.36931 0.58017 0.23833 0.0
O225 O 0.29877 0.57483 0.17145 0.0
O226 O 0.24994 0.52637 0.19932 0.0
O227 O 0.16472 0.6478 0.15958 0.0
O228 O 0.17906 0.60813 0.1961 0.0
H229 H 0.0924 0.58335 0.21799 0.0
H230 H 0.94209 0.5407 0.183 0.0
H231 H 0.06994 0.6101 0.13889 0.0
O232 O 0.80528 0.64475 0.50947 0.0
Tb233 Tb 0.82506 0.5901 0.54012 0.0
Eu234 Eu 0.89789 0.61357 0.59278 0.0
C235 C 0.84308 0.67148 0.49723 0.0
O236 O 0.89161 0.67663 0.5071 0.0
C237 C 0.9585 0.58246 0.54101 0.0
O238 O 0.93235 0.5976 0.63095 0.0
C239 C 0.86489 0.71285 0.59251 0.0
C240 C 0.93574 0.54837 0.64002 0.0
O241 O 0.92517 0.50703 0.62539 0.0
C242 C 0.77861 0.57415 0.59186 0.0
C243 C 0.84601 0.76965 0.59231 0.0
C244 C 0.83408 0.79373 0.56927 0.0
C245 C 0.81391 0.84653 0.56817 0.0
C246 C 0.8056 0.8756 0.59027 0.0
C247 C 0.81779 0.85297 0.61352 0.0
C248 C 0.838 0.79952 0.61462 0.0
O249 O 0.91102 0.58441 0.52952 0.0
O250 O 0.96404 0.59095 0.56526 0.0
O251 O 0.77039 0.53944 0.51852 0.0
O252 O 0.82901 0.50201 0.54209 0.0
C253 C 0.78965 0.49344 0.52636 0.0
O254 O 0.82713 0.55784 0.59872 0.0
O255 O 0.77441 0.60697 0.57268 0.0
O256 O 0.89551 0.69332 0.61046 0.0
O257 O 0.85546 0.6795 0.57385 0.0
H258 H 0.84069 0.77152 0.55206 0.0
H259 H 0.79138 0.9172 0.58935 0.0
H260 H 0.84755 0.78159 0.63255 0.0
O261 O 0.20765 0.05522 0.75895 0.0
Tb262 Tb 0.25918 0.07884 0.79016 0.0
Eu263 Eu 0.23201 0.15194 0.84216 0.0
C264 C 0.17786 0.09 0.74624 0.0
O265 O 0.16872 0.13848 0.75538 0.0
C266 C 0.27179 0.20926 0.79175 0.0
O267 O 0.24314 0.18113 0.88152 0.0
C268 C 0.1294 0.13607 0.83374 0.0
C269 C 0.29212 0.18874 0.89054 0.0
O270 O 0.33402 0.18525 0.87545 0.0
C271 C 0.26255 1.02869 0.8428 0.0
C272 C 0.08182 0.10002 0.83718 0.0
C273 C 0.06069 0.07623 0.8155 0.0
C274 C 1.01041 1.05023 0.81565 0.0
C275 C 0.98263 1.04444 0.83827 0.0
C276 C 1.00244 0.06737 0.86035 0.0
C277 C 1.05229 0.09572 0.85986 0.0
O278 O 0.25627 0.16501 0.7799 0.0
O279 O 0.27202 0.21241 0.81638 0.0
O280 O 0.31174 1.02592 0.76857 0.0
O281 O 0.34783 0.08433 0.79246 0.0
C282 C 0.3574 1.0455 0.77656 0.0
O283 O 0.27648 0.07563 0.85206 0.0
O284 O 0.23726 1.02595 0.82124 0.0
O285 O 0.14707 0.16529 0.85255 0.0
O286 O 0.16827 0.11905 0.81875 0.0
H287 H 0.08166 0.08142 0.79787 0.0
H288 H 0.94271 1.02594 0.83843 0.0
H289 H 0.06645 0.11605 0.87654 0.0
O290 O 0.79986 0.45589 1.0106 0.0
Tb291 Tb 0.77469 0.50851 0.04121 0.0
Eu292 Eu 0.70354 0.48924 0.09334 0.0
C293 C 0.76494 0.42666 0.99776 0.0
O294 O 0.71599 0.41876 1.00672 0.0
C295 C 0.64256 0.51855 0.04151 0.0
O296 O 0.6706 0.50449 0.13179 0.0
C297 C 0.73443 0.38925 0.09206 0.0
C298 C 0.66913 0.55336 0.14138 0.0
O299 O 0.68034 0.59502 0.12709 0.0
C300 C 0.82375 0.52686 0.09255 0.0
C301 C 0.75225 0.33208 0.09096 0.0
C302 C 0.76816 0.31107 0.06778 0.0
C303 C 0.78856 0.25854 0.0659 0.0
C304 C 0.79258 0.22628 0.08724 0.0
C305 C 0.77601 0.24549 0.11059 0.0
C306 C 0.75623 0.29909 0.11257 0.0
O307 O 0.6888 0.50885 0.02978 0.0
O308 O 0.63822 0.51583 0.06608 0.0
O309 O 0.82719 0.5617 0.02013 0.0
O310 O 0.76595 0.59634 0.0432 0.0
C311 C 0.80543 0.60669 0.0278 0.0
O312 O 0.77552 0.54335 0.09973 0.0
O313 O 0.82713 0.49357 0.07348 0.0
O314 O 0.70333 0.40819 0.10997 0.0
O315 O 0.74507 0.4236 0.07398 0.0
H316 H 0.76477 0.33552 0.05105 0.0
H317 H 0.80726 0.18495 0.08554 0.0
H318 H 0.74394 0.31474 0.1306 0.0
O319 O 0.39685 1.04839 0.26139 0.0
Tb320 Tb 0.34465 1.02325 0.29215 0.0
Eu321 Eu 0.36245 0.95281 0.34447 0.0
C322 C 0.42585 1.01364 0.24824 0.0
O323 O 0.43415 0.96468 0.25696 0.0
C324 C 0.33441 0.89189 0.29246 0.0
O325 O 0.34778 0.91592 0.38212 0.0
C326 C 0.46199 0.98614 0.34414 0.0
C327 C 0.29879 0.91359 0.39168 0.0
O328 O 0.25686 0.9267 0.37772 0.0
C329 C 0.32529 0.0724 0.34342 0.0
C330 C 0.51901 1.00532 0.34369 0.0
C331 C 0.54069 1.02159 0.32073 0.0
C332 C 0.59257 1.0439 0.31934 0.0
C333 C 0.62339 1.04995 0.34111 0.0
C334 C 0.60347 1.03362 0.36433 0.0
C335 C 0.55067 1.01138 0.36572 0.0
O336 O 0.34587 0.93765 0.28089 0.0
O337 O 0.33593 0.88766 0.31706 0.0
O338 O 0.29109 0.07613 0.27119 0.0
O339 O 0.25645 1.01457 0.29378 0.0
C340 C 0.24597 0.05435 0.27858 0.0
O341 O 0.30768 1.02477 0.35047 0.0
O342 O 0.35952 0.07481 0.32463 0.0
O343 O 0.44211 0.95789 0.36271 0.0
O344 O 0.4293 0.99167 0.32484 0.0
H345 H 0.51712 1.01709 0.30375 0.0
H346 H 0.6644 0.06575 0.3399 0.0
H347 H 0.5346 0.99897 0.38362 0.0
O348 O 0.30051 0.45875 0.51231 0.0
Tb349 Tb 0.27879 0.51077 0.48098 0.0
Eu350 Eu 0.20404 0.47934 0.42934 0.0
C351 C 0.2643 0.43043 0.52478 0.0
O352 O 0.21596 0.42253 0.5151 0.0
C353 C 0.14679 0.52275 0.47953 0.0
O354 O 0.17582 0.48883 0.38974 0.0
C355 C 0.2218 0.37753 0.438 0.0
C356 C 0.16722 0.53711 0.38031 0.0
O357 O 0.16886 0.57949 0.39511 0.0
C358 C 0.32706 0.51305 0.42788 0.0
C359 C 0.25705 0.32933 0.43412 0.0
C360 C 0.2818 0.30803 0.45556 0.0
C361 C 0.30684 0.25723 0.45522 0.0
C362 C 0.31076 0.22899 0.43265 0.0
C363 C 0.28688 0.24899 0.41079 0.0
C364 C 0.25947 0.29946 0.41147 0.0
O365 O 0.19249 0.51185 0.4915 0.0
O366 O 0.14244 0.51878 0.455 0.0
O367 O 0.33254 0.56216 0.5026 0.0
O368 O 0.27451 0.59905 0.47858 0.0
C369 C 0.31341 0.60798 0.49456 0.0
O370 O 0.27913 0.52492 0.41878 0.0
O371 O 0.33153 0.4891 0.44967 0.0
O372 O 0.19004 0.39448 0.41986 0.0
O373 O 0.24079 0.41672 0.4522 0.0
H374 H 0.27799 0.32932 0.47319 0.0
H375 H 0.32857 0.18875 0.4324 0.0
H376 H 0.23841 0.3139 0.395 0.0
O377 O 0.89511 1.04858 0.26025 0.0
Tb378 Tb 0.84265 1.02372 0.22949 0.0
Eu379 Eu 0.86522 0.95182 0.17704 0.0
C380 C 0.92341 1.01349 0.27353 0.0
O381 O 0.9306 0.9642 0.26496 0.0
C382 C 0.83547 0.89158 0.22918 0.0
O383 O 0.8507 0.91727 0.1388 0.0
C384 C 0.96407 0.98681 0.17722 0.0
C385 C 0.80192 0.91571 0.1289 0.0
O386 O 0.7596 0.92762 0.14282 0.0
C387 C 0.8242 0.07045 0.17784 0.0
C388 C 1.02066 1.00695 0.17763 0.0
C389 C 1.04214 1.02381 0.20055 0.0
C390 C 0.0941 1.04594 0.20198 0.0
C391 C 0.12498 0.05163 0.18023 0.0
C392 C 0.10514 1.03476 0.15704 0.0
C393 C 1.0524 1.01243 0.15564 0.0
O394 O 0.84157 0.93832 0.24083 0.0
O395 O 0.84124 0.88646 0.20472 0.0
O396 O 0.78888 0.07677 0.25029 0.0
O397 O 0.75451 1.01539 0.22744 0.0
C398 C 0.74383 0.05504 0.24269 0.0
O399 O 0.80842 1.02207 0.17091 0.0
O400 O 0.85748 0.07464 0.19691 0.0
O401 O 0.94552 0.95536 0.15943 0.0
O402 O 0.93042 0.99498 0.19594 0.0
H403 H 1.01854 1.01947 0.21751 0.0
H404 H 0.16603 0.0673 0.18146 0.0
H405 H 1.03649 0.99934 0.13779 0.0
O406 O 0.30201 0.64109 0.01135 0.0
Tb407 Tb 0.31955 0.58326 0.98172 0.0
Eu408 Eu 0.39232 0.61368 0.92855 0.0
C409 C 0.34091 0.66635 0.02353 0.0
O410 O 0.39017 0.66714 0.01418 0.0
C411 C 0.45303 0.5802 0.98072 0.0
O412 O 0.42905 0.59385 0.89124 0.0
C413 C 0.35481 0.71139 0.92304 0.0
C414 C 0.42908 0.54483 0.88178 0.0
O415 O 0.41445 0.50385 0.89581 0.0
C416 C 0.27461 0.56852 0.92951 0.0
C417 C 0.35106 0.77014 0.92736 0.0
C418 C 0.35529 0.79064 0.95166 0.0
C419 C 0.34349 0.84491 0.95625 0.0
C420 C 0.32954 0.87944 0.93657 0.0
C421 C 0.32356 0.86001 0.91212 0.0
C422 C 0.33534 0.80489 0.90756 0.0
O423 O 0.40537 0.57272 0.99141 0.0
O424 O 0.45835 0.59794 0.95753 0.0
O425 O 0.26467 0.53559 1.00459 0.0
O426 O 0.31942 0.49517 0.98018 0.0
C427 C 0.28133 0.48862 0.9967 0.0
O428 O 0.32371 0.55479 0.92222 0.0
O429 O 0.26931 0.59975 0.94916 0.0
O430 O 0.3943 0.69183 0.90923 0.0
O431 O 0.33927 0.67861 0.94098 0.0
H432 H 0.36494 0.76401 0.96712 0.0
H433 H 0.32179 0.92175 0.94069 0.0
H434 H 0.3297 0.78839 0.889 0.0
O435 O 0.6973 0.05502 0.76083 0.0
Tb436 Tb 0.74818 0.08006 0.72968 0.0
Eu437 Eu 0.73649 0.1511 0.67737 0.0
C438 C 0.66743 0.08936 0.77376 0.0
O439 O 0.65724 0.13763 0.76466 0.0
C440 C 0.76642 0.20881 0.7287 0.0
O441 O 0.75184 0.1851 0.63918 0.0
C442 C 0.63255 0.13553 0.68261 0.0
C443 C 0.80132 0.18776 0.63016 0.0
O444 O 0.84264 0.17627 0.64479 0.0
C445 C 0.76398 1.02811 0.67884 0.0
C446 C 0.58699 0.09647 0.68007 0.0
C447 C 0.56713 0.07321 0.70213 0.0
C448 C 0.51775 1.04543 0.70248 0.0
C449 C 0.49009 1.03679 0.67996 0.0
C450 C 0.5089 0.0587 0.65751 0.0
C451 C 0.55733 0.08934 0.65756 0.0
O452 O 0.74311 0.16663 0.73937 0.0
O453 O 0.77377 0.21083 0.70432 0.0
O454 O 0.80201 1.02794 0.751 0.0
O455 O 0.83658 0.08818 0.72767 0.0
C456 C 0.84711 1.04896 0.74319 0.0
O457 O 0.78323 0.07441 0.67111 0.0
O458 O 0.72992 1.02783 0.69773 0.0
O459 O 0.65374 0.15725 0.66254 0.0
O460 O 0.66846 0.12636 0.70032 0.0
H461 H 0.58813 0.08029 0.71962 0.0
H462 H 0.45081 1.01704 0.6801 0.0
H463 H 0.5702 0.10936 0.6406 0.0
C464 C 0.35068 0.20935 0.92751 0.0
C465 C 0.30058 0.19226 0.91782 0.0
H466 H 0.40087 0.21814 0.95986 0.0
C467 C 0.2604 0.17383 0.93437 0.0
H468 H 0.3824 0.22374 0.91522 0.0
C469 C 0.27118 0.16991 0.95995 0.0
C470 C 0.32204 0.1852 0.96954 0.0
H471 H 0.22147 0.15999 0.92746 0.0
H472 H 0.24024 0.15339 0.97208 0.0
C473 C 0.36114 0.2063 0.95312 0.0
C474 C 0.6558 0.61171 0.17915 0.0
C475 C 0.66448 0.56026 0.16873 0.0
H476 H 0.65396 0.65994 0.21229 0.0
C477 C 0.67399 0.51615 0.18475 0.0
H478 H 0.64837 0.64644 0.16728 0.0
C479 C 0.67782 0.52391 0.21055 0.0
C480 C 0.6714 0.57578 0.22091 0.0
H481 H 0.68122 0.47599 0.17732 0.0
H482 H 0.68779 0.48957 0.22226 0.0
C483 C 0.65879 0.61933 0.20498 0.0
C484 C 0.33624 0.91343 0.43511 0.0
C485 C 0.29204 0.90561 0.41886 0.0
H486 H 0.36278 0.92306 0.47291 0.0
C487 C 0.24054 0.89538 0.42901 0.0
H488 H 0.37644 0.92176 0.42788 0.0
C489 C 0.2329 0.89529 0.45486 0.0
C490 C 0.27645 0.90635 0.4711 0.0
H491 H 0.20575 0.88919 0.41695 0.0
H492 H 0.1922 0.88948 0.46202 0.0
C493 C 0.32844 0.91421 0.46095 0.0
C494 C 0.93199 0.5829 0.68395 0.0
C495 C 0.9426 0.54026 0.66721 0.0
H496 H 0.91999 0.60665 0.72201 0.0
C497 C 0.9549 0.48881 0.67681 0.0
H498 H 0.922 0.623 0.67714 0.0
C499 C 0.95458 0.47966 0.70256 0.0
C500 C 0.94103 0.52157 0.71927 0.0
H501 H 0.96326 0.45519 0.66439 0.0
H502 H 0.96232 0.43901 0.70925 0.0
C503 C 0.93078 0.57355 0.70969 0.0
C504 C 0.73772 0.89961 0.06511 0.0
C505 C 0.78106 0.91331 0.04923 0.0
H506 H 0.71023 0.88997 0.10279 0.0
C507 C 0.83244 0.92292 0.05976 0.0
H508 H 0.69745 0.89248 0.05767 0.0
C509 C 0.83985 0.92069 0.08563 0.0
C510 C 0.7958 0.90984 0.10155 0.0
H511 H 0.86655 0.93387 0.04807 0.0
H512 H 0.87955 0.93014 0.09319 0.0
C513 C 0.74491 0.8984 0.09101 0.0
C514 C 0.44279 0.48606 0.84411 0.0
C515 C 0.43583 0.53777 0.85452 0.0
H516 H 0.44496 0.43813 0.81086 0.0
C517 C 0.42992 0.58243 0.83845 0.0
H518 H 0.44742 0.4509 0.856 0.0
C519 C 0.42783 0.57512 0.81259 0.0
C520 C 0.43253 0.52313 0.8022 0.0
H521 H 0.42409 0.62285 0.84584 0.0
H522 H 0.42056 0.61001 0.80081 0.0
C523 C 0.44163 0.47885 0.81821 0.0
C524 C 0.76703 0.18474 0.58618 0.0
C525 C 0.80969 0.19481 0.60302 0.0
H526 H 0.7436 0.17305 0.54806 0.0
C527 C 0.86145 0.2067 0.59357 0.0
H528 H 0.7267 0.17509 0.59289 0.0
C529 C 0.87093 0.20638 0.56784 0.0
C530 C 0.82903 0.19322 0.55104 0.0
H531 H 0.89508 0.21466 0.60608 0.0
H532 H 0.91183 0.21369 0.56126 0.0
C533 C 0.7767 0.18353 0.56047 0.0
C534 C 0.1913 0.51427 0.3114 0.0
C535 C 0.17348 0.56357 0.30115 0.0
H536 H 0.20228 0.46683 0.34443 0.0
C537 C 0.14928 0.60223 0.31695 0.0
H538 H 0.21026 0.48377 0.29974 0.0
C539 C 0.14551 0.59292 0.34262 0.0
C540 C 0.16487 0.54434 0.35295 0.0
H541 H 0.13551 0.64082 0.30969 0.0
H542 H 0.12865 0.62431 0.35446 0.0
C543 C 0.18657 0.50454 0.337 0.0
C544 C 0.77597 0.68332 0.43394 0.0
C545 C 0.82131 0.6861 0.41801 0.0
H546 H 0.74724 0.67656 0.47151 0.0
C547 C 0.87334 0.69034 0.42856 0.0
H548 H 0.73527 0.6797 0.42642 0.0
C549 C 0.88007 0.68945 0.45449 0.0
C550 C 0.83496 0.68334 0.47037 0.0
H551 H 0.909 0.69257 0.41679 0.0
H552 H 0.92095 0.69054 0.46197 0.0
C553 C 0.78276 0.68149 0.45982 0.0
C554 C 0.17062 1.01715 0.68427 0.0
C555 C 0.16194 0.06041 0.66768 0.0
H556 H 0.18232 0.99255 0.72218 0.0
C557 C 0.15237 0.11234 0.67741 0.0
H558 H 0.17845 0.97666 0.67736 0.0
C559 C 0.15382 0.1213 0.70317 0.0
C560 C 0.16572 0.07862 0.71969 0.0
H561 H 0.14552 0.14642 0.66509 0.0
H562 H 0.14849 0.16224 0.71 0.0
C563 C 0.17288 1.02624 0.70999 0.0
C564 C 0.73379 0.40069 0.95487 0.0
C565 C 0.77651 0.41386 0.97124 0.0
H566 H 0.70834 0.39031 0.91692 0.0
C567 C 0.82883 0.42136 0.96136 0.0
H568 H 0.69288 0.39498 0.96179 0.0
C569 C 0.83773 0.41808 0.93562 0.0
C570 C 0.79433 0.40803 0.91918 0.0
H571 H 0.86257 0.43177 0.97342 0.0
H572 H 0.87812 0.42613 0.92856 0.0
C573 C 0.74254 0.39823 0.92911 0.0
C574 C 0.45409 0.99256 0.17947 0.0
C575 C 0.44432 1.04443 0.16975 0.0
H576 H 0.45729 0.94239 0.21192 0.0
C577 C 0.43403 0.08735 0.18636 0.0
H578 H 0.46216 0.95869 0.16715 0.0
C579 C 0.43065 0.07797 0.21207 0.0
C580 C 0.43829 1.02562 0.22173 0.0
H581 H 0.42597 0.12779 0.17945 0.0
H582 H 0.42015 0.11139 0.22426 0.0
C583 C 0.45153 0.98332 0.20518 0.0
C584 C 0.23701 0.40832 0.59347 0.0
C585 C 0.28883 0.416 0.60383 0.0
H586 H 0.18879 0.40543 0.56028 0.0
C587 C 0.33347 0.42249 0.58775 0.0
H588 H 0.20187 0.40321 0.60538 0.0
C589 C 0.32597 0.42436 0.5619 0.0
C590 C 0.2738 0.41893 0.55156 0.0
H591 H 0.37394 0.42885 0.59514 0.0
H592 H 0.36078 0.43205 0.55009 0.0
C593 C 0.22963 0.40933 0.5676 0.0
C594 C 0.95025 0.98364 0.31651 0.0
C595 C 0.93623 1.02572 0.3 0.0
H596 H 0.96186 0.95929 0.3545 0.0
C597 C 0.92816 0.07802 0.30968 0.0
H598 H 0.95644 0.94276 0.30975 0.0
C599 C 0.9318 0.08753 0.33538 0.0
C600 C 0.94287 1.04479 0.35196 0.0
H601 H 0.91705 0.11128 0.29753 0.0
H602 H 0.92335 0.12789 0.34231 0.0
C603 C 0.95316 0.99301 0.34221 0.0
C604 C 0.27992 0.67978 0.06043 0.0
C605 C 0.33228 0.68121 0.05003 0.0
H606 H 0.23204 0.6799 0.09369 0.0
C607 C 0.37705 0.6895 0.06592 0.0
H608 H 0.2446 0.67332 0.04874 0.0
C609 C 0.36993 0.69258 0.09177 0.0
C610 C 0.31787 0.68821 0.10223 0.0
H611 H 0.41801 0.69055 0.05857 0.0
H612 H 0.40544 0.69632 0.1036 0.0
C613 C 0.27275 0.68358 0.08624 0.0
C614 C 0.64574 0.11269 0.8428 0.0
C615 C 0.65671 0.06115 0.85261 0.0
H616 H 0.63905 0.1618 0.8101 0.0
C617 C 0.66499 1.01764 0.83608 0.0
H618 H 0.63916 0.14695 0.85507 0.0
C619 C 0.66553 1.02618 0.8103 0.0
C620 C 0.65696 0.07823 0.80049 0.0
H621 H 0.67387 0.97742 0.84304 0.0
H622 H 0.67475 0.99238 0.79811 0.0
C623 C 0.64542 0.12108 0.81699 0.0
C624 C 0.33895 0.47902 0.14792 0.0
C625 C 0.29862 0.47716 0.16647 0.0
H626 H 0.37887 0.43754 0.11793 0.0
C627 C 0.27265 0.42742 0.17106 0.0
H628 H 0.36022 0.51635 0.14399 0.0
C629 C 0.28376 0.3819 0.15607 0.0
C630 C 0.32173 0.38503 0.13656 0.0
H631 H 0.2416 0.42444 0.18529 0.0
H632 H 0.26006 0.34548 0.15861 0.0
C633 C 0.35039 0.43357 0.13322 0.0
C634 C 0.41672 0.52235 0.3712 0.0
C635 C 0.45719 0.55927 0.37875 0.0
H636 H 0.34388 0.47988 0.38069 0.0
C637 C 0.45808 0.57545 0.40399 0.0
H638 H 0.41559 0.50682 0.35232 0.0
C639 C 0.41761 0.55773 0.42066 0.0
C640 C 0.37528 0.52417 0.41228 0.0
H641 H 0.48846 0.60362 0.41059 0.0
H642 H 0.41769 0.57261 0.43968 0.0
C643 C 0.37584 0.50605 0.38755 0.0
C644 C 0.32495 0.72198 0.65411 0.0
C645 C 0.28691 0.71763 0.63464 0.0
H646 H 0.36679 0.68131 0.684 0.0
C647 C 0.25788 0.66909 0.63202 0.0
H648 H 0.34876 0.75849 0.65617 0.0
C649 C 0.26894 0.62473 0.64742 0.0
C650 C 0.30927 0.6277 0.66597 0.0
H651 H 0.22912 0.66428 0.61686 0.0
H652 H 0.24725 0.58735 0.64408 0.0
C653 C 0.33575 0.67751 0.66978 0.0
C654 C 0.23186 0.51543 0.89479 0.0
C655 C 0.22618 0.5519 0.91474 0.0
H656 H 0.19431 0.47829 0.86306 0.0
C657 C 0.17429 0.57386 0.91968 0.0
H658 H 0.27095 0.4973 0.89057 0.0
C659 C 0.1301 0.56256 0.90389 0.0
C660 C 0.1369 0.52863 0.88311 0.0
H661 H 0.16838 0.60186 0.935 0.0
H662 H 0.09168 0.58303 0.90699 0.0
C663 C 0.18777 0.5039 0.87921 0.0
C664 C 0.8478 0.66982 0.85282 0.0
C665 C 0.8196 0.62053 0.85492 0.0
H666 H 0.85824 0.75052 0.86743 0.0
C667 C 0.7739 0.61859 0.87065 0.0
H668 H 0.8829 0.67282 0.84073 0.0
C669 C 0.75916 0.66308 0.88527 0.0
C670 C 0.78975 0.71089 0.88477 0.0
H671 H 0.75055 0.58174 0.87251 0.0
H672 H 0.72604 0.65875 0.89843 0.0
C673 C 0.83326 0.71455 0.86782 0.0
C674 C 0.73542 0.51452 0.62374 0.0
C675 C 0.73014 0.55655 0.60626 0.0
H676 H 0.69891 0.47066 0.6537 0.0
C677 C 0.67927 0.58243 0.60376 0.0
H678 H 0.77362 0.49311 0.62596 0.0
C679 C 0.63599 0.56921 0.61979 0.0
C680 C 0.64285 0.52957 0.63834 0.0
H681 H 0.67376 0.61472 0.59033 0.0
H682 H 0.59857 0.59232 0.61877 0.0
C683 C 0.69236 0.50113 0.63947 0.0
C684 C 0.77604 0.42639 0.35207 0.0
C685 C 0.80062 0.47692 0.35657 0.0
H686 H 0.76483 0.34462 0.3649 0.0
C687 C 0.83979 0.4806 0.37558 0.0
H688 H 0.74593 0.42202 0.33747 0.0
C689 C 0.8514 0.43602 0.39078 0.0
C690 C 0.82408 0.38666 0.38743 0.0
H691 H 0.85996 0.51859 0.37944 0.0
H692 H 0.87903 0.4412 0.40635 0.0
C693 C 0.78739 0.38176 0.3675 0.0
C694 C 0.86818 0.58557 0.12466 0.0
C695 C 0.87296 0.5448 0.10648 0.0
H696 H 0.90621 0.62848 0.15462 0.0
C697 C 0.92429 0.5206 0.10271 0.0
H698 H 0.82962 0.60565 0.12793 0.0
C699 C 0.96867 0.53416 0.11809 0.0
C700 C 0.96254 0.57254 0.13728 0.0
H701 H 0.9295 0.48933 0.08874 0.0
H702 H 1.00656 0.51214 0.11608 0.0
C703 C 0.91232 0.59929 0.13977 0.0
C704 C 0.845 0.93479 0.63702 0.0
C705 C 0.81192 0.88879 0.63562 0.0
H706 H 0.85565 1.0144 0.65165 0.0
C707 C 0.76587 0.88581 0.65109 0.0
H708 H 0.88023 0.93845 0.62503 0.0
C709 C 0.75136 0.92983 0.66648 0.0
C710 C 0.78225 0.97765 0.66618 0.0
H711 H 0.73911 0.8512 0.64996 0.0
H712 H 0.71431 0.92773 0.67731 0.0
C713 C 0.83033 0.97864 0.65202 0.0
C714 C 0.97009 1.02712 0.90078 0.0
C715 C 0.96502 0.06678 0.88213 0.0
H716 H 0.93023 0.98276 0.93001 0.0
C717 C 0.91607 0.09603 0.8804 0.0
H718 H 1.00688 1.00309 0.90212 0.0
C719 C 0.87198 0.08364 0.89577 0.0
C720 C 0.87562 1.04172 0.91344 0.0
H721 H 0.91062 0.12598 0.86584 0.0
H722 H 0.83422 0.10555 0.89306 0.0
C723 C 0.9259 1.015 0.91647 0.0
C724 C 0.76598 0.11334 0.14502 0.0
C725 C 0.80619 0.11884 0.16346 0.0
H726 H 0.72357 0.15011 0.11453 0.0
C727 C 0.82997 0.17008 0.16706 0.0
H728 H 0.7462 0.07482 0.1419 0.0
C729 C 0.81657 0.21369 0.15128 0.0
C730 C 0.77889 0.20679 0.13182 0.0
H731 H 0.86077 0.17582 0.18125 0.0
H732 H 0.83817 0.25157 0.15325 0.0
C733 C 0.75246 0.1567 0.12949 0.0
C734 C 0.7348 1.02366 0.39963 0.0
C735 C 0.73173 0.06833 0.41588 0.0
H736 H 0.69551 0.97644 0.37146 0.0
C737 C 0.68146 0.09532 0.41835 0.0
H738 H 0.77243 1.00124 0.39746 0.0
C739 C 0.63679 0.08062 0.40329 0.0
C740 C 0.64148 1.03815 0.38589 0.0
H741 H 0.67756 0.1296 0.43083 0.0
H742 H 0.59996 0.10471 0.40404 0.0
C743 C 0.69038 1.00875 0.38495 0.0
C744 C 0.32449 0.216 0.36987 0.0
C745 C 0.2859 0.21148 0.38906 0.0
H746 H 0.36722 0.17562 0.34018 0.0
C747 C 0.25665 0.16296 0.39126 0.0
H748 H 0.34853 0.25242 0.36815 0.0
C749 C 0.26813 0.11873 0.3758 0.0
C750 C 0.30911 0.12183 0.3576 0.0
H751 H 0.22751 0.15795 0.40622 0.0
H752 H 0.24635 0.08132 0.37886 0.0
C753 C 0.3357 0.17169 0.35414 0.0
C754 C 0.13853 0.07984 0.11767 0.0
C755 C 0.1433 1.03838 0.13555 0.0
H756 H 0.17929 0.12742 0.0897 0.0
C757 C 0.19224 1.00911 0.13687 0.0
H758 H 0.10163 0.10376 0.1166 0.0
C759 C 0.23668 1.02334 0.12212 0.0
C760 C 0.23354 0.06712 0.10541 0.0
H761 H 0.19737 0.97751 0.15069 0.0
H762 H 0.27436 1.00116 0.12459 0.0
C763 C 0.18322 0.09382 0.10254 0.0
C764 C 0.26327 0.93744 0.89892 0.0
C765 C 0.30217 0.89772 0.89243 0.0
H766 H 0.22119 1.01002 0.88839 0.0
C767 C 0.32256 0.89769 0.86787 0.0
H768 H 0.24491 0.93793 0.91726 0.0
C769 C 0.30702 0.93846 0.85089 0.0
C770 C 0.27132 0.98004 0.85832 0.0
H771 H 0.35244 0.86789 0.86215 0.0
H772 H 0.32518 0.93921 0.8325 0.0
C773 C 0.24894 0.97852 0.88228 0.0
C774 C 0.47378 1.01269 0.61878 0.0
C775 C 0.47107 0.05588 0.63588 0.0
H776 H 0.43113 0.96515 0.59136 0.0
C777 C 0.42364 0.08757 0.63662 0.0
H778 H 0.50939 0.98681 0.61828 0.0
C779 C 0.37866 0.07443 0.62189 0.0
C780 C 0.37982 1.02931 0.60584 0.0
H781 H 0.41995 0.12029 0.65 0.0
H782 H 0.34207 0.09859 0.62386 0.0
C783 C 0.42872 0.99987 0.60365 0.0
C784 C 0.60338 1.03066 0.0212 0.0
C785 C 0.59842 1.03135 0.99494 0.0
H786 H 0.56703 1.04834 0.05674 0.0
C787 C 0.54961 0.05168 0.98479 0.0
H788 H 0.64023 1.01581 0.02994 0.0
C789 C 0.50755 0.07098 1.00033 0.0
C790 C 0.51279 0.07056 0.02657 0.0
H791 H 0.54399 0.05321 0.96476 0.0
H792 H 0.47063 0.08597 0.9917 0.0
C793 C 0.56131 1.04973 0.03672 0.0
C794 C 0.79739 0.74746 0.24933 0.0
C795 C 0.78593 0.75365 0.27505 0.0
H796 H 0.82215 0.78473 0.21495 0.0
C797 C 0.79158 0.80567 0.2854 0.0
H798 H 0.79396 0.70822 0.24047 0.0
C799 C 0.80823 0.84974 0.27061 0.0
C800 C 0.81985 0.84348 0.24491 0.0
H801 H 0.78347 0.81243 0.30501 0.0
H802 H 0.81169 0.889 0.27945 0.0
C803 C 0.81397 0.79152 0.23455 0.0
C804 C 0.06013 1.04906 0.48431 0.0
C805 C 1.01205 0.07047 0.49465 0.0
H806 H 0.13965 1.01609 0.49085 0.0
C807 C 1.00862 0.07392 0.5209 0.0
H808 H 0.06454 1.04554 0.46428 0.0
C809 C 1.05181 0.05668 0.53626 0.0
C810 C 0.09994 1.03534 0.52592 0.0
H811 H 0.97223 0.08964 0.5297 0.0
H812 H 1.04738 0.06013 0.5563 0.0
C813 C 0.10332 1.03188 0.49967 0.0
C814 C 0.77982 0.25171 0.7712 0.0
C815 C 0.78357 0.25532 0.74497 0.0
H816 H 0.79373 0.28965 0.8067 0.0
C817 C 0.80577 0.30283 0.73477 0.0
H818 H 0.76344 0.21577 0.77991 0.0
C819 C 0.82354 0.34526 0.75026 0.0
C820 C 0.81974 0.34162 0.77649 0.0
H821 H 0.80954 0.30733 0.71475 0.0
H822 H 0.83992 0.38124 0.74159 0.0
C823 C 0.79751 0.29415 0.78668 0.0
C824 C 0.29492 0.25221 0.75018 0.0
C825 C 0.28767 0.25733 0.77623 0.0
H826 H 0.31476 0.29098 0.71549 0.0
C827 C 0.29632 0.30849 0.787 0.0
H828 H 0.28912 0.2135 0.74108 0.0
C829 C 0.31115 0.35308 0.77221 0.0
C830 C 0.31808 0.34808 0.74613 0.0
H831 H 0.2912 0.31433 0.80688 0.0
H832 H 0.31674 0.39177 0.78135 0.0
C833 C 0.30991 0.29678 0.73539 0.0
C834 C 0.29683 0.80703 0.23498 0.0
C835 C 0.27963 0.75769 0.24533 0.0
H836 H 0.32744 0.88688 0.24128 0.0
C837 C 0.28208 0.75223 0.27155 0.0
H838 H 0.29606 0.81297 0.21497 0.0
C839 C 0.30086 0.79483 0.28686 0.0
C840 C 0.31769 0.84439 0.27647 0.0
H841 H 0.27007 0.71467 0.28032 0.0
H842 H 0.30179 0.78896 0.30687 0.0
C843 C 0.31528 0.84957 0.25023 0.0
C844 C 1.00138 0.55805 0.49949 0.0
C845 C 1.00725 0.56881 0.52527 0.0
H846 H 1.03968 0.5352 0.46501 0.0
C847 C 0.05962 0.56465 0.53562 0.0
H848 H 0.96186 0.56055 0.49065 0.0
C849 C 0.10441 0.54982 0.52078 0.0
C850 C 0.09845 0.53875 0.49505 0.0
H851 H 0.06611 0.57253 0.55528 0.0
H852 H 0.14394 0.54712 0.52961 0.0
C853 C 1.04619 0.54337 0.48464 0.0
C854 C 0.54163 0.53725 0.03629 0.0
C855 C 0.59397 0.53398 0.02591 0.0
H856 H 0.45719 0.55426 0.03057 0.0
C857 C 0.59981 0.54747 1.00041 0.0
H858 H 0.53517 0.52753 0.05576 0.0
C859 C 0.55481 0.56347 0.98582 0.0
C860 C 0.50234 0.56611 0.99617 0.0
H861 H 0.63942 0.54607 0.99165 0.0
H862 H 0.56116 0.57318 0.96634 0.0
C863 C 0.49667 0.5528 0.02169 0.0
C864 C 0.2879 0.88252 0.99021 0.0
C865 C 0.33918 0.86588 0.98174 0.0
H866 H 0.24427 0.93627 0.01421 0.0
C867 C 0.38593 0.88065 0.995 0.0
H868 H 0.25148 0.87135 0.98008 0.0
C869 C 0.38176 0.91732 0.01479 0.0
C870 C 0.33092 0.93964 0.02096 0.0
H871 H 0.42577 0.8683 0.9885 0.0
H872 H 0.41865 0.93297 0.02311 0.0
C873 C 0.28379 0.91939 1.00972 0.0
C874 C 0.99211 0.58261 0.24665 0.0
C875 C 0.99216 0.5446 0.22717 0.0
H876 H 0.95142 0.61042 0.27949 0.0
C877 C 0.9606 0.49766 0.22928 0.0
H878 H 1.01632 0.61904 0.24546 0.0
C879 C 0.92338 0.49287 0.24866 0.0
C880 C 0.91767 0.53492 0.26603 0.0
H881 H 0.96098 0.4673 0.21468 0.0
H882 H 0.89535 0.45916 0.24849 0.0
C883 C 0.95501 0.57765 0.26614 0.0
C884 C 0.27871 0.18784 0.51596 0.0
C885 C 0.31879 0.14749 0.51547 0.0
H886 H 0.24338 0.25485 0.49684 0.0
C887 C 0.36228 0.15176 0.49868 0.0
H888 H 0.24481 0.18533 0.52879 0.0
C889 C 0.36203 0.1921 0.48052 0.0
C890 C 0.31795 0.22818 0.47883 0.0
H891 H 0.39403 0.12127 0.49821 0.0
H892 H 0.39376 0.19211 0.46652 0.0
C893 C 0.27812 0.22787 0.49766 0.0
C894 C 0.62496 0.50164 0.74674 0.0
C895 C 0.6215 0.54397 0.72935 0.0
H896 H 0.67007 0.46801 0.77724 0.0
C897 C 0.65226 0.59096 0.73296 0.0
H898 H 0.60153 0.46501 0.74421 0.0
C899 C 0.69122 0.59266 0.75174 0.0
C900 C 0.69975 0.54738 0.76702 0.0
H901 H 0.64959 0.62428 0.71987 0.0
H902 H 0.71807 0.62725 0.75271 0.0
C903 C 0.66406 0.50338 0.76562 0.0
C904 C 0.85167 0.16572 0.01932 0.0
C905 C 0.80738 0.15799 1.00325 0.0
H906 H 0.88059 0.20559 0.05213 0.0
C907 C 0.76316 0.19391 1.00408 0.0
H908 H 0.88651 0.13878 0.01875 0.0
C909 C 0.75973 0.23202 0.02324 0.0
C910 C 0.80062 0.23428 0.04148 0.0
H911 H 0.72863 0.18867 0.99176 0.0
H912 H 0.72265 0.25539 0.02529 0.0
C913 C 0.84828 0.20373 0.03841 0.0
C914 C 0.18436 0.61358 0.77462 0.0
C915 C 0.18934 0.57128 0.7573 0.0
H916 H 0.14412 0.6422 0.80745 0.0
C917 C 0.14947 0.53103 0.75635 0.0
H918 H 0.21435 0.64553 0.77542 0.0
C919 C 0.10991 0.52855 0.7749 0.0
C920 C 0.10954 0.56672 0.79442 0.0
H921 H 0.15238 0.49813 0.74303 0.0
H922 H 0.0838 0.49339 0.77538 0.0
C923 C 0.14434 0.61156 0.79299 0.0
C924 C 0.84817 0.91572 0.50803 0.0
C925 C 0.80425 0.95184 0.50627 0.0
H926 H 0.8856 0.85293 0.52964 0.0
C927 C 0.75851 0.94446 0.52145 0.0
H928 H 0.88393 0.9209 0.49651 0.0
C929 C 0.75937 0.90576 0.54026 0.0
C930 C 0.80607 0.87414 0.54411 0.0
H931 H 0.72398 0.97169 0.52021 0.0
H932 H 0.7254 0.90359 0.55307 0.0
C933 C 0.84913 0.87695 0.52697 0.0
C934 C 0.47319 0.64648 0.2775 0.0
C935 C 0.49244 0.60093 0.29031 0.0
H936 H 0.41895 0.67512 0.24914 0.0
C937 C 0.48235 0.54895 0.28098 0.0
H938 H 0.48057 0.68678 0.28469 0.0
C939 C 0.44717 0.54221 0.26094 0.0
C940 C 0.42221 0.58745 0.25009 0.0
H941 H 0.49708 0.51347 0.2908 0.0
H942 H 0.43492 0.50163 0.25577 0.0
C943 C 0.43838 0.63973 0.25714 0.0
C944 C 0.73853 0.43842 0.49569 0.0
C945 C 0.78035 0.44209 0.51339 0.0
H946 H 0.71018 0.3991 0.46262 0.0
C947 C 0.82001 0.40134 0.51456 0.0
H948 H 0.70705 0.46914 0.49471 0.0
C949 C 0.82249 0.36197 0.49596 0.0
C950 C 0.78484 0.36259 0.47618 0.0
H951 H 0.85256 0.40325 0.52816 0.0
H952 H 0.85731 0.33505 0.49573 0.0
C953 C 0.74049 0.39853 0.47729 0.0
C954 C 0.48825 0.07664 0.74478 0.0
C955 C 0.48907 1.03578 0.72641 0.0
H956 H 0.44577 0.11098 0.77584 0.0
C957 C 0.45398 0.99142 0.72898 0.0
H958 H 0.5144 0.11164 0.74339 0.0
C959 C 0.41396 0.99175 0.74739 0.0
C960 C 0.40914 1.03595 0.7637 0.0
H961 H 0.45447 0.95872 0.71551 0.0
H962 H 0.38411 0.95963 0.74752 0.0
C963 C 0.44871 0.07649 0.76341 0.0
C964 C 0.85604 0.66287 0.99786 0.0
C965 C 0.81255 0.65784 0.01456 0.0
H966 H 0.88508 0.7006 0.96461 0.0
C967 C 0.76979 0.69547 0.01387 0.0
H968 H 0.88975 0.63452 0.9983 0.0
C969 C 0.76676 0.7328 0.99442 0.0
C970 C 0.80673 0.73284 0.97572 0.0
H971 H 0.73585 0.69229 0.02664 0.0
H972 H 0.73056 0.75761 0.99267 0.0
C973 C 0.85322 0.70034 0.97855 0.0
C974 C 0.15668 1.02002 0.26452 0.0
C975 C 0.19465 0.06211 0.26528 0.0
H976 H 0.09425 0.98174 0.24321 0.0
C977 C 0.18977 0.10559 0.24862 0.0
H978 H 0.15969 0.98614 0.27728 0.0
C979 C 0.15221 0.10329 0.22924 0.0
C980 C 0.11944 0.05737 0.22633 0.0
H981 H 0.21834 0.13883 0.24912 0.0
H982 H 0.15213 0.13506 0.21532 0.0
C983 C 0.11924 1.01753 0.24502 0.0
C984 C 0.36418 0.70271 0.54341 0.0
C985 C 0.31984 0.73852 0.54507 0.0
H986 H 0.39714 0.63261 0.52541 0.0
C987 C 0.28095 0.73891 0.52578 0.0
H988 H 0.39537 0.70225 0.55768 0.0
C989 C 0.28257 0.69968 0.50706 0.0
C990 C 0.32267 0.65932 0.5076 0.0
H991 H 0.24607 0.76573 0.52647 0.0
H992 H 0.24926 0.69763 0.49387 0.0
C993 C 0.36536 0.66307 0.52488 0.0
C994 C 0.68724 0.10528 0.27284 0.0
C995 C 0.69248 0.06214 0.25601 0.0
H996 H 0.64953 0.13381 0.30629 0.0
C997 C 0.65501 1.01956 0.25665 0.0
H998 H 0.71543 0.13886 0.27245 0.0
C999 C 0.61782 1.0163 0.27619 0.0
C1000 C 0.61772 0.05586 0.29503 0.0
H1001 H 0.65831 0.98591 0.24376 0.0
H1002 H 0.59326 0.9802 0.27788 0.0
C1003 C 0.64989 0.10223 0.29225 0.0
C1004 C 0.31081 0.39662 1.00882 0.0
C1005 C 0.27208 0.43817 1.01034 0.0
H1006 H 0.34876 0.33069 0.02749 0.0
C1007 C 0.23194 0.43617 0.02886 0.0
H1008 H 0.3421 0.39724 0.99461 0.0
C1009 C 0.23477 0.39696 0.04753 0.0
C1010 C 0.27852 0.36017 0.04817 0.0
H1011 H 0.2012 0.46757 0.03015 0.0
H1012 H 0.20564 0.39861 0.06265 0.0
C1013 C 0.31435 0.35812 0.02771 0.0
C1014 C 0.93909 0.07994 0.75533 0.0
C1015 C 0.89934 1.03957 0.75561 0.0
H1016 H 1.00608 0.1151 0.77453 0.0
C1017 C 0.90486 0.99561 0.77199 0.0
H1018 H 0.93563 0.11418 0.7428 0.0
C1019 C 0.94576 0.99553 0.78999 0.0
C1020 C 0.98111 1.0398 0.792 0.0
H1021 H 0.8749 0.96359 0.77226 0.0
H1022 H 0.9467 0.96329 0.80368 0.0
C1023 C 0.97965 0.08023 0.7735 0.0
loop_
_geom_bond_atom_site_label_1
_geom_bond_atom_site_label_2
_geom_bond_distance
_geom_bond_site_symmetry_2
_ccdc_geom_bond_type
O0 Tb1 2.292 1_556 S
O0 C3 1.255 . S
Tb1 O0 2.292 1_554 S
Tb1 O17 2.326 . S
Tb1 O19 2.500 1_544 S
Tb1 O20 2.473 1_545 S
Tb1 O23 2.324 . S
Eu2 O6 2.292 . S
Eu2 C7 2.852 . S
Eu2 O18 2.324 . S
Eu2 O22 2.326 . S
Eu2 O24 2.500 . S
Eu2 O25 2.473 . S
C3 O0 1.255 . S
C3 O4 1.247 . S
O4 C3 1.247 . S
C5 O17 1.242 . S
C5 O18 1.258 . S
O6 Eu2 2.292 . S
O6 C8 1.255 . S
C7 Eu2 2.852 . S
C7 C11 1.503 . S
C7 O24 1.273 . S
C7 O25 1.257 . S
C8 O6 1.255 . S
C8 O9 1.249 . S
O9 C8 1.249 . S
C10 O22 1.242 . S
C10 O23 1.258 . S
C11 C7 1.503 . S
C11 C12 1.379 . S
C11 C16 1.392 . S
C12 C11 1.379 . S
C12 C13 1.404 . S
C12 H26 0.929 . S
C13 C12 1.404 . S
C13 C14 1.389 . S
C14 C13 1.389 . S
C14 C15 1.399 . S
C14 H27 0.931 . S
C15 C14 1.399 . S
C15 C16 1.390 . S
C16 C11 1.392 . S
C16 C15 1.390 . S
C16 H28 0.929 . S
O17 Tb1 2.326 . S
O17 C5 1.242 . S
O18 Eu2 2.324 . S
O18 C5 1.258 . S
O19 Tb1 2.500 1_566 S
O19 C21 1.273 1_556 S
O20 Tb1 2.473 1_565 S
O20 C21 1.257 . S
C21 O19 1.273 1_554 S
C21 O20 1.257 . S
O22 Eu2 2.326 . S
O22 C10 1.242 . S
O23 Tb1 2.324 . S
O23 C10 1.258 . S
O24 Eu2 2.500 . S
O24 C7 1.273 . S
O25 Eu2 2.473 . S
O25 C7 1.257 . S
H26 C12 0.929 . S
H27 C14 0.931 . S
H28 C16 0.929 . S
O29 Tb30 2.292 . S
O29 C32 1.255 . S
Tb30 O29 2.292 . S
Tb30 O46 2.326 . S
Tb30 O48 2.500 . S
Tb30 O49 2.473 . S
Tb30 O52 2.324 . S
Eu31 O35 2.292 . S
Eu31 C36 2.852 . S
Eu31 O47 2.324 . S
Eu31 O51 2.326 . S
Eu31 O53 2.500 . S
Eu31 O54 2.473 . S
C32 O29 1.255 . S
C32 O33 1.247 . S
O33 C32 1.247 . S
C34 O46 1.242 . S
C34 O47 1.258 . S
O35 Eu31 2.292 . S
O35 C37 1.255 . S
C36 Eu31 2.852 . S
C36 C40 1.503 . S
C36 O53 1.273 . S
C36 O54 1.257 . S
C37 O35 1.255 . S
C37 O38 1.247 . S
O38 C37 1.247 . S
C39 O51 1.242 . S
C39 O52 1.258 . S
C40 C36 1.503 . S
C40 C41 1.379 . S
C40 C45 1.392 . S
C41 C40 1.379 . S
C41 C42 1.404 . S
C41 H55 0.929 . S
C42 C41 1.404 . S
C42 C43 1.389 . S
C43 C42 1.389 . S
C43 C44 1.399 . S
C43 H56 0.931 . S
C44 C43 1.399 . S
C44 C45 1.390 . S
C45 C40 1.392 . S
C45 C44 1.390 . S
C45 H57 0.929 . S
O46 Tb30 2.326 . S
O46 C34 1.242 . S
O47 Eu31 2.324 . S
O47 C34 1.258 . S
O48 Tb30 2.500 . S
O48 C50 1.273 . S
O49 Tb30 2.473 . S
O49 C50 1.257 . S
C50 O48 1.273 . S
C50 O49 1.257 . S
O51 Eu31 2.326 . S
O51 C39 1.242 . S
O52 Tb30 2.324 . S
O52 C39 1.258 . S
O53 Eu31 2.500 . S
O53 C36 1.273 . S
O54 Eu31 2.473 . S
O54 C36 1.257 . S
H55 C41 0.929 . S
H56 C43 0.931 . S
H57 C45 0.929 . S
O58 Tb59 2.292 . S
O58 C61 1.255 . S
Tb59 O58 2.292 . S
Tb59 O75 2.326 . S
Tb59 O77 2.500 1_565 S
Tb59 O78 2.473 1_565 S
Tb59 O81 2.324 . S
Eu60 O64 2.292 . S
Eu60 C65 2.852 . S
Eu60 O76 2.324 . S
Eu60 O80 2.326 . S
Eu60 O82 2.500 . S
Eu60 O83 2.473 . S
C61 O58 1.255 . S
C61 O62 1.247 . S
O62 C61 1.247 . S
C63 O75 1.242 . S
C63 O76 1.258 . S
O64 Eu60 2.292 . S
O64 C66 1.255 . S
C65 Eu60 2.852 . S
C65 C69 1.503 . S
C65 O82 1.273 . S
C65 O83 1.257 . S
C66 O64 1.255 . S
C66 O67 1.249 . S
O67 C66 1.249 . S
C68 O80 1.242 . S
C68 O81 1.258 . S
C69 C65 1.503 . S
C69 C70 1.379 . S
C69 C74 1.392 . S
C70 C69 1.379 . S
C70 C71 1.404 . S
C70 H84 0.929 . S
C71 C70 1.404 . S
C71 C72 1.389 . S
C72 C71 1.389 . S
C72 C73 1.399 . S
C72 H85 0.931 . S
C73 C72 1.399 . S
C73 C74 1.390 . S
C74 C69 1.392 . S
C74 C73 1.390 . S
C74 H86 0.929 . S
O75 Tb59 2.326 . S
O75 C63 1.242 . S
O76 Eu60 2.324 . S
O76 C63 1.258 . S
O77 Tb59 2.500 1_545 S
O77 C79 1.273 . S
O78 Tb59 2.473 1_545 S
O78 C79 1.257 . S
C79 O77 1.273 . S
C79 O78 1.257 . S
O80 Eu60 2.326 . S
O80 C68 1.242 . S
O81 Tb59 2.324 . S
O81 C68 1.258 . S
O82 Eu60 2.500 . S
O82 C65 1.273 . S
O83 Eu60 2.473 . S
O83 C65 1.257 . S
H84 C70 0.929 . S
H85 C72 0.931 . S
H86 C74 0.929 . S
O87 Tb88 2.292 . S
O87 C90 1.255 . S
Tb88 O87 2.292 . S
Tb88 O104 2.326 . S
Tb88 O106 2.500 . S
Tb88 O107 2.473 . S
Tb88 O110 2.324 . S
Eu89 O93 2.292 . S
Eu89 C94 2.852 . S
Eu89 O105 2.324 . S
Eu89 O109 2.326 . S
Eu89 O111 2.500 . S
Eu89 O112 2.473 . S
C90 O87 1.255 . S
C90 O91 1.247 . S
O91 C90 1.247 . S
C92 O104 1.242 . S
C92 O105 1.258 . S
O93 Eu89 2.292 . S
O93 C95 1.255 . S
C94 Eu89 2.852 . S
C94 C98 1.503 . S
C94 O111 1.273 . S
C94 O112 1.257 . S
C95 O93 1.255 . S
C95 O96 1.247 . S
O96 C95 1.247 . S
C97 O109 1.242 . S
C97 O110 1.258 . S
C98 C94 1.503 . S
C98 C99 1.379 1_655 S
C98 C103 1.392 1_655 S
C99 C98 1.379 1_455 S
C99 C100 1.404 . S
C99 H113 0.929 1_455 S
C100 C99 1.404 . S
C100 C101 1.389 . S
C101 C100 1.389 . S
C101 C102 1.399 . S
C101 H114 0.931 . S
C102 C101 1.399 . S
C102 C103 1.390 . S
C103 C98 1.392 1_455 S
C103 C102 1.390 . S
C103 H115 0.929 . S
O104 Tb88 2.326 . S
O104 C92 1.242 . S
O105 Eu89 2.324 . S
O105 C92 1.258 . S
O106 Tb88 2.500 . S
O106 C108 1.273 . S
O107 Tb88 2.473 . S
O107 C108 1.257 . S
C108 O106 1.273 . S
C108 O107 1.257 . S
O109 Eu89 2.326 . S
O109 C97 1.242 . S
O110 Tb88 2.324 . S
O110 C97 1.258 . S
O111 Eu89 2.500 . S
O111 C94 1.273 . S
O112 Eu89 2.473 . S
O112 C94 1.257 . S
H113 C99 0.929 1_655 S
H114 C101 0.931 . S
H115 C103 0.929 . S
O116 Tb117 2.292 1_554 S
O116 C119 1.255 . S
Tb117 O116 2.292 1_556 S
Tb117 O133 2.326 . S
Tb117 O135 2.500 1_566 S
Tb117 O136 2.473 1_565 S
Tb117 O139 2.324 . S
Eu118 O122 2.292 . S
Eu118 C123 2.852 . S
Eu118 O134 2.324 . S
Eu118 O138 2.326 . S
Eu118 O140 2.500 . S
Eu118 O141 2.473 . S
C119 O116 1.255 . S
C119 O120 1.247 . S
O120 C119 1.247 . S
C121 O133 1.242 . S
C121 O134 1.258 . S
O122 Eu118 2.292 . S
O122 C124 1.255 . S
C123 Eu118 2.852 . S
C123 C127 1.503 . S
C123 O140 1.273 . S
C123 O141 1.257 . S
C124 O122 1.255 . S
C124 O125 1.249 . S
O125 C124 1.249 . S
C126 O138 1.242 . S
C126 O139 1.258 . S
C127 C123 1.503 . S
C127 C128 1.379 . S
C127 C132 1.392 . S
C128 C127 1.379 . S
C128 C129 1.404 . S
C128 H142 0.929 . S
C129 C128 1.404 . S
C129 C130 1.389 . S
C130 C129 1.389 . S
C130 C131 1.399 . S
C130 H143 0.931 . S
C131 C130 1.399 . S
C131 C132 1.390 . S
C132 C127 1.392 . S
C132 C131 1.390 . S
C132 H144 0.929 . S
O133 Tb117 2.326 . S
O133 C121 1.242 . S
O134 Eu118 2.324 . S
O134 C121 1.258 . S
O135 Tb117 2.500 1_544 S
O135 C137 1.273 1_554 S
O136 Tb117 2.473 1_545 S
O136 C137 1.257 . S
C137 O135 1.273 1_556 S
C137 O136 1.257 . S
O138 Eu118 2.326 . S
O138 C126 1.242 . S
O139 Tb117 2.324 . S
O139 C126 1.258 . S
O140 Eu118 2.500 . S
O140 C123 1.273 . S
O141 Eu118 2.473 . S
O141 C123 1.257 . S
H142 C128 0.929 . S
H143 C130 0.931 . S
H144 C132 0.929 . S
O145 Tb146 2.292 . S
O145 C148 1.255 . S
Tb146 O145 2.292 . S
Tb146 O162 2.326 . S
Tb146 O164 2.500 . S
Tb146 O165 2.473 . S
Tb146 O168 2.324 . S
Eu147 O151 2.292 . S
Eu147 C152 2.852 . S
Eu147 O163 2.324 . S
Eu147 O167 2.326 . S
Eu147 O169 2.500 . S
Eu147 O170 2.473 . S
C148 O145 1.255 . S
C148 O149 1.247 . S
O149 C148 1.247 . S
C150 O162 1.242 . S
C150 O163 1.258 . S
O151 Eu147 2.292 . S
O151 C153 1.255 . S
C152 Eu147 2.852 . S
C152 C156 1.503 . S
C152 O169 1.273 . S
C152 O170 1.257 . S
C153 O151 1.255 . S
C153 O154 1.247 . S
O154 C153 1.247 . S
C155 O167 1.242 . S
C155 O168 1.258 . S
C156 C152 1.503 . S
C156 C157 1.379 . S
C156 C161 1.392 . S
C157 C156 1.379 . S
C157 C158 1.404 . S
C157 H171 0.929 . S
C158 C157 1.404 . S
C158 C159 1.389 . S
C159 C158 1.389 . S
C159 C160 1.399 . S
C159 H172 0.931 . S
C160 C159 1.399 . S
C160 C161 1.390 . S
C161 C156 1.392 . S
C161 C160 1.390 . S
C161 H173 0.929 . S
O162 Tb146 2.326 . S
O162 C150 1.242 . S
O163 Eu147 2.324 . S
O163 C150 1.258 . S
O164 Tb146 2.500 . S
O164 C166 1.273 . S
O165 Tb146 2.473 . S
O165 C166 1.257 . S
C166 O164 1.273 . S
C166 O165 1.257 . S
O167 Eu147 2.326 . S
O167 C155 1.242 . S
O168 Tb146 2.324 . S
O168 C155 1.258 . S
O169 Eu147 2.500 . S
O169 C152 1.273 . S
O170 Eu147 2.473 . S
O170 C152 1.257 . S
H171 C157 0.929 . S
H172 C159 0.931 . S
H173 C161 0.929 . S
O174 Tb175 2.292 . S
O174 C177 1.255 . S
Tb175 O174 2.292 . S
Tb175 O191 2.326 . S
Tb175 O193 2.500 1_545 S
Tb175 O194 2.473 1_545 S
Tb175 O197 2.324 . S
Eu176 O180 2.292 . S
Eu176 C181 2.852 . S
Eu176 O192 2.324 . S
Eu176 O196 2.326 . S
Eu176 O198 2.500 . S
Eu176 O199 2.473 . S
C177 O174 1.255 . S
C177 O178 1.247 . S
O178 C177 1.247 . S
C179 O191 1.242 . S
C179 O192 1.258 . S
O180 Eu176 2.292 . S
O180 C182 1.255 . S
C181 Eu176 2.852 . S
C181 C185 1.503 . S
C181 O198 1.273 . S
C181 O199 1.257 . S
C182 O180 1.255 . S
C182 O183 1.249 . S
O183 C182 1.249 . S
C184 O196 1.242 . S
C184 O197 1.258 . S
C185 C181 1.503 . S
C185 C186 1.379 . S
C185 C190 1.392 . S
C186 C185 1.379 . S
C186 C187 1.404 . S
C186 H200 0.929 . S
C187 C186 1.404 . S
C187 C188 1.389 . S
C188 C187 1.389 . S
C188 C189 1.399 . S
C188 H201 0.931 . S
C189 C188 1.399 . S
C189 C190 1.390 . S
C190 C185 1.392 . S
C190 C189 1.390 . S
C190 H202 0.929 . S
O191 Tb175 2.326 . S
O191 C179 1.242 . S
O192 Eu176 2.324 . S
O192 C179 1.258 . S
O193 Tb175 2.500 1_565 S
O193 C195 1.273 . S
O194 Tb175 2.473 1_565 S
O194 C195 1.257 . S
C195 O193 1.273 . S
C195 O194 1.257 . S
O196 Eu176 2.326 . S
O196 C184 1.242 . S
O197 Tb175 2.324 . S
O197 C184 1.258 . S
O198 Eu176 2.500 . S
O198 C181 1.273 . S
O199 Eu176 2.473 . S
O199 C181 1.257 . S
H200 C186 0.929 . S
H201 C188 0.931 . S
H202 C190 0.929 . S
O203 Tb204 2.292 . S
O203 C206 1.255 . S
Tb204 O203 2.292 . S
Tb204 O220 2.326 . S
Tb204 O222 2.500 . S
Tb204 O223 2.473 . S
Tb204 O226 2.324 . S
Eu205 O209 2.292 . S
Eu205 C210 2.852 . S
Eu205 O221 2.324 . S
Eu205 O225 2.326 . S
Eu205 O227 2.500 . S
Eu205 O228 2.473 . S
C206 O203 1.255 . S
C206 O207 1.247 . S
O207 C206 1.247 . S
C208 O220 1.242 . S
C208 O221 1.258 . S
O209 Eu205 2.292 . S
O209 C211 1.255 . S
C210 Eu205 2.852 . S
C210 C214 1.503 . S
C210 O227 1.273 . S
C210 O228 1.257 . S
C211 O209 1.255 . S
C211 O212 1.247 . S
O212 C211 1.247 . S
C213 O225 1.242 . S
C213 O226 1.258 . S
C214 C210 1.503 . S
C214 C215 1.379 1_455 S
C214 C219 1.392 1_455 S
C215 C214 1.379 1_655 S
C215 C216 1.404 . S
C215 H229 0.929 1_655 S
C216 C215 1.404 . S
C216 C217 1.389 . S
C217 C216 1.389 . S
C217 C218 1.399 . S
C217 H230 0.931 . S
C218 C217 1.399 . S
C218 C219 1.390 . S
C219 C214 1.392 1_655 S
C219 C218 1.390 . S
C219 H231 0.929 . S
O220 Tb204 2.326 . S
O220 C208 1.242 . S
O221 Eu205 2.324 . S
O221 C208 1.258 . S
O222 Tb204 2.500 . S
O222 C224 1.273 . S
O223 Tb204 2.473 . S
O223 C224 1.257 . S
C224 O222 1.273 . S
C224 O223 1.257 . S
O225 Eu205 2.326 . S
O225 C213 1.242 . S
O226 Tb204 2.324 . S
O226 C213 1.258 . S
O227 Eu205 2.500 . S
O227 C210 1.273 . S
O228 Eu205 2.473 . S
O228 C210 1.257 . S
H229 C215 0.929 1_455 S
H230 C217 0.931 . S
H231 C219 0.929 . S
O232 Tb233 2.292 . S
O232 C235 1.255 . S
Tb233 O232 2.292 . S
Tb233 O249 2.326 . S
Tb233 O251 2.500 . S
Tb233 O252 2.473 . S
Tb233 O255 2.324 . S
Eu234 O238 2.292 . S
Eu234 C239 2.852 . S
Eu234 O250 2.324 . S
Eu234 O254 2.326 . S
Eu234 O256 2.500 . S
Eu234 O257 2.473 . S
C235 O232 1.255 . S
C235 O236 1.247 . S
O236 C235 1.247 . S
C237 O249 1.242 . S
C237 O250 1.258 . S
O238 Eu234 2.292 . S
O238 C240 1.255 . S
C239 Eu234 2.852 . S
C239 C243 1.503 . S
C239 O256 1.273 . S
C239 O257 1.257 . S
C240 O238 1.255 . S
C240 O241 1.247 . S
O241 C240 1.247 . S
C242 O254 1.242 . S
C242 O255 1.258 . S
C243 C239 1.503 . S
C243 C244 1.379 . S
C243 C248 1.392 . S
C244 C243 1.379 . S
C244 C245 1.404 . S
C244 H258 0.929 . S
C245 C244 1.404 . S
C245 C246 1.389 . S
C246 C245 1.389 . S
C246 C247 1.399 . S
C246 H259 0.931 . S
C247 C246 1.399 . S
C247 C248 1.390 . S
C248 C243 1.392 . S
C248 C247 1.390 . S
C248 H260 0.929 . S
O249 Tb233 2.326 . S
O249 C237 1.242 . S
O250 Eu234 2.324 . S
O250 C237 1.258 . S
O251 Tb233 2.500 . S
O251 C253 1.273 . S
O252 Tb233 2.473 . S
O252 C253 1.257 . S
C253 O251 1.273 . S
C253 O252 1.257 . S
O254 Eu234 2.326 . S
O254 C242 1.242 . S
O255 Tb233 2.324 . S
O255 C242 1.258 . S
O256 Eu234 2.500 . S
O256 C239 1.273 . S
O257 Eu234 2.473 . S
O257 C239 1.257 . S
H258 C244 0.929 . S
H259 C246 0.931 . S
H260 C248 0.929 . S
O261 Tb262 2.292 . S
O261 C264 1.255 . S
Tb262 O261 2.292 . S
Tb262 O278 2.326 . S
Tb262 O280 2.500 . S
Tb262 O281 2.473 . S
Tb262 O284 2.324 1_545 S
Eu263 O267 2.292 . S
Eu263 C268 2.852 . S
Eu263 O279 2.324 . S
Eu263 O283 2.326 . S
Eu263 O285 2.500 . S
Eu263 O286 2.473 . S
C264 O261 1.255 . S
C264 O265 1.247 . S
O265 C264 1.247 . S
C266 O278 1.242 . S
C266 O279 1.258 . S
O267 Eu263 2.292 . S
O267 C269 1.255 . S
C268 Eu263 2.852 . S
C268 C272 1.503 . S
C268 O285 1.273 . S
C268 O286 1.257 . S
C269 O267 1.255 . S
C269 O270 1.247 . S
O270 C269 1.247 . S
C271 O283 1.242 1_565 S
C271 O284 1.258 . S
C272 C268 1.503 . S
C272 C273 1.379 1_455 S
C272 C277 1.392 1_455 S
C273 C272 1.379 1_655 S
C273 C274 1.404 . S
C273 H287 0.929 1_655 S
C274 C273 1.404 . S
C274 C275 1.389 . S
C275 C274 1.389 . S
C275 C276 1.399 . S
C275 H288 0.931 . S
C276 C275 1.399 . S
C276 C277 1.390 . S
C277 C272 1.392 1_655 S
C277 C276 1.390 . S
C277 H289 0.929 . S
O278 Tb262 2.326 . S
O278 C266 1.242 . S
O279 Eu263 2.324 . S
O279 C266 1.258 . S
O280 Tb262 2.500 . S
O280 C282 1.273 . S
O281 Tb262 2.473 . S
O281 C282 1.257 . S
C282 O280 1.273 . S
C282 O281 1.257 . S
O283 Eu263 2.326 . S
O283 C271 1.242 1_545 S
O284 Tb262 2.324 1_565 S
O284 C271 1.258 . S
O285 Eu263 2.500 . S
O285 C268 1.273 . S
O286 Eu263 2.473 . S
O286 C268 1.257 . S
H287 C273 0.929 1_455 S
H288 C275 0.931 . S
H289 C277 0.929 . S
O290 Tb291 2.292 1_556 S
O290 C293 1.255 . S
Tb291 O290 2.292 1_554 S
Tb291 O307 2.326 . S
Tb291 O309 2.500 1_554 S
Tb291 O310 2.473 . S
Tb291 O313 2.324 . S
Eu292 O296 2.292 . S
Eu292 C297 2.852 . S
Eu292 O308 2.324 . S
Eu292 O312 2.326 . S
Eu292 O314 2.500 . S
Eu292 O315 2.473 . S
C293 O290 1.255 . S
C293 O294 1.247 . S
O294 C293 1.247 . S
C295 O307 1.242 . S
C295 O308 1.258 . S
O296 Eu292 2.292 . S
O296 C298 1.255 . S
C297 Eu292 2.852 . S
C297 C301 1.503 . S
C297 O314 1.273 . S
C297 O315 1.257 . S
C298 O296 1.255 . S
C298 O299 1.247 . S
O299 C298 1.247 . S
C300 O312 1.242 . S
C300 O313 1.258 . S
C301 C297 1.503 . S
C301 C302 1.379 . S
C301 C306 1.392 . S
C302 C301 1.379 . S
C302 C303 1.404 . S
C302 H316 0.929 . S
C303 C302 1.404 . S
C303 C304 1.389 . S
C304 C303 1.389 . S
C304 C305 1.399 . S
C304 H317 0.931 . S
C305 C304 1.399 . S
C305 C306 1.390 . S
C306 C301 1.392 . S
C306 C305 1.390 . S
C306 H318 0.929 . S
O307 Tb291 2.326 . S
O307 C295 1.242 . S
O308 Eu292 2.324 . S
O308 C295 1.258 . S
O309 Tb291 2.500 1_556 S
O309 C311 1.273 1_556 S
O310 Tb291 2.473 . S
O310 C311 1.257 . S
C311 O309 1.273 1_554 S
C311 O310 1.257 . S
O312 Eu292 2.326 . S
O312 C300 1.242 . S
O313 Tb291 2.324 . S
O313 C300 1.258 . S
O314 Eu292 2.500 . S
O314 C297 1.273 . S
O315 Eu292 2.473 . S
O315 C297 1.257 . S
H316 C302 0.929 . S
H317 C304 0.931 . S
H318 C306 0.929 . S
O319 Tb320 2.292 . S
O319 C322 1.255 . S
Tb320 O319 2.292 . S
Tb320 O336 2.326 . S
Tb320 O338 2.500 . S
Tb320 O339 2.473 . S
Tb320 O342 2.324 1_565 S
Eu321 O325 2.292 . S
Eu321 C326 2.852 . S
Eu321 O337 2.324 . S
Eu321 O341 2.326 . S
Eu321 O343 2.500 . S
Eu321 O344 2.473 . S
C322 O319 1.255 . S
C322 O323 1.247 . S
O323 C322 1.247 . S
C324 O336 1.242 . S
C324 O337 1.258 . S
O325 Eu321 2.292 . S
O325 C327 1.255 . S
C326 Eu321 2.852 . S
C326 C330 1.503 . S
C326 O343 1.273 . S
C326 O344 1.257 . S
C327 O325 1.255 . S
C327 O328 1.247 . S
O328 C327 1.247 . S
C329 O341 1.242 1_545 S
C329 O342 1.258 . S
C330 C326 1.503 . S
C330 C331 1.379 . S
C330 C335 1.392 . S
C331 C330 1.379 . S
C331 C332 1.404 . S
C331 H345 0.929 . S
C332 C331 1.404 . S
C332 C333 1.389 . S
C333 C332 1.389 . S
C333 C334 1.399 . S
C333 H346 0.931 . S
C334 C333 1.399 . S
C334 C335 1.390 . S
C335 C330 1.392 . S
C335 C334 1.390 . S
C335 H347 0.929 . S
O336 Tb320 2.326 . S
O336 C324 1.242 . S
O337 Eu321 2.324 . S
O337 C324 1.258 . S
O338 Tb320 2.500 . S
O338 C340 1.273 . S
O339 Tb320 2.473 . S
O339 C340 1.257 . S
C340 O338 1.273 . S
C340 O339 1.257 . S
O341 Eu321 2.326 . S
O341 C329 1.242 1_565 S
O342 Tb320 2.324 1_545 S
O342 C329 1.258 . S
O343 Eu321 2.500 . S
O343 C326 1.273 . S
O344 Eu321 2.473 . S
O344 C326 1.257 . S
H345 C331 0.929 . S
H346 C333 0.931 . S
H347 C335 0.929 . S
O348 Tb349 2.292 . S
O348 C351 1.255 . S
Tb349 O348 2.292 . S
Tb349 O365 2.326 . S
Tb349 O367 2.500 . S
Tb349 O368 2.473 . S
Tb349 O371 2.324 . S
Eu350 O354 2.292 . S
Eu350 C355 2.852 . S
Eu350 O366 2.324 . S
Eu350 O370 2.326 . S
Eu350 O372 2.500 . S
Eu350 O373 2.473 . S
C351 O348 1.255 . S
C351 O352 1.247 . S
O352 C351 1.247 . S
C353 O365 1.242 . S
C353 O366 1.258 . S
O354 Eu350 2.292 . S
O354 C356 1.255 . S
C355 Eu350 2.852 . S
C355 C359 1.503 . S
C355 O372 1.273 . S
C355 O373 1.257 . S
C356 O354 1.255 . S
C356 O357 1.247 . S
O357 C356 1.247 . S
C358 O370 1.242 . S
C358 O371 1.258 . S
C359 C355 1.503 . S
C359 C360 1.379 . S
C359 C364 1.392 . S
C360 C359 1.379 . S
C360 C361 1.404 . S
C360 H374 0.929 . S
C361 C360 1.404 . S
C361 C362 1.389 . S
C362 C361 1.389 . S
C362 C363 1.399 . S
C362 H375 0.931 . S
C363 C362 1.399 . S
C363 C364 1.390 . S
C364 C359 1.392 . S
C364 C363 1.390 . S
C364 H376 0.929 . S
O365 Tb349 2.326 . S
O365 C353 1.242 . S
O366 Eu350 2.324 . S
O366 C353 1.258 . S
O367 Tb349 2.500 . S
O367 C369 1.273 . S
O368 Tb349 2.473 . S
O368 C369 1.257 . S
C369 O367 1.273 . S
C369 O368 1.257 . S
O370 Eu350 2.326 . S
O370 C358 1.242 . S
O371 Tb349 2.324 . S
O371 C358 1.258 . S
O372 Eu350 2.500 . S
O372 C355 1.273 . S
O373 Eu350 2.473 . S
O373 C355 1.257 . S
H374 C360 0.929 . S
H375 C362 0.931 . S
H376 C364 0.929 . S
O377 Tb378 2.292 . S
O377 C380 1.255 . S
Tb378 O377 2.292 . S
Tb378 O394 2.326 . S
Tb378 O396 2.500 . S
Tb378 O397 2.473 . S
Tb378 O400 2.324 1_565 S
Eu379 O383 2.292 . S
Eu379 C384 2.852 . S
Eu379 O395 2.324 . S
Eu379 O399 2.326 . S
Eu379 O401 2.500 . S
Eu379 O402 2.473 . S
C380 O377 1.255 . S
C380 O381 1.247 . S
O381 C380 1.247 . S
C382 O394 1.242 . S
C382 O395 1.258 . S
O383 Eu379 2.292 . S
O383 C385 1.255 . S
C384 Eu379 2.852 . S
C384 C388 1.503 . S
C384 O401 1.273 . S
C384 O402 1.257 . S
C385 O383 1.255 . S
C385 O386 1.247 . S
O386 C385 1.247 . S
C387 O399 1.242 1_545 S
C387 O400 1.258 . S
C388 C384 1.503 . S
C388 C389 1.379 1_655 S
C388 C393 1.392 1_655 S
C389 C388 1.379 1_455 S
C389 C390 1.404 . S
C389 H403 0.929 1_455 S
C390 C389 1.404 . S
C390 C391 1.389 . S
C391 C390 1.389 . S
C391 C392 1.399 . S
C391 H404 0.931 . S
C392 C391 1.399 . S
C392 C393 1.390 . S
C393 C388 1.392 1_455 S
C393 C392 1.390 . S
C393 H405 0.929 . S
O394 Tb378 2.326 . S
O394 C382 1.242 . S
O395 Eu379 2.324 . S
O395 C382 1.258 . S
O396 Tb378 2.500 . S
O396 C398 1.273 . S
O397 Tb378 2.473 . S
O397 C398 1.257 . S
C398 O396 1.273 . S
C398 O397 1.257 . S
O399 Eu379 2.326 . S
O399 C387 1.242 1_565 S
O400 Tb378 2.324 1_545 S
O400 C387 1.258 . S
O401 Eu379 2.500 . S
O401 C384 1.273 . S
O402 Eu379 2.473 . S
O402 C384 1.257 . S
H403 C389 0.929 1_655 S
H404 C391 0.931 . S
H405 C393 0.929 . S
O406 Tb407 2.292 1_554 S
O406 C409 1.255 . S
Tb407 O406 2.292 1_556 S
Tb407 O423 2.326 . S
Tb407 O425 2.500 1_556 S
Tb407 O426 2.473 . S
Tb407 O429 2.324 . S
Eu408 O412 2.292 . S
Eu408 C413 2.852 . S
Eu408 O424 2.324 . S
Eu408 O428 2.326 . S
Eu408 O430 2.500 . S
Eu408 O431 2.473 . S
C409 O406 1.255 . S
C409 O410 1.247 . S
O410 C409 1.247 . S
C411 O423 1.242 . S
C411 O424 1.258 . S
O412 Eu408 2.292 . S
O412 C414 1.255 . S
C413 Eu408 2.852 . S
C413 C417 1.503 . S
C413 O430 1.273 . S
C413 O431 1.257 . S
C414 O412 1.255 . S
C414 O415 1.247 . S
O415 C414 1.247 . S
C416 O428 1.242 . S
C416 O429 1.258 . S
C417 C413 1.503 . S
C417 C418 1.379 . S
C417 C422 1.392 . S
C418 C417 1.379 . S
C418 C419 1.404 . S
C418 H432 0.929 . S
C419 C418 1.404 . S
C419 C420 1.389 . S
C420 C419 1.389 . S
C420 C421 1.399 . S
C420 H433 0.931 . S
C421 C420 1.399 . S
C421 C422 1.390 . S
C422 C417 1.392 . S
C422 C421 1.390 . S
C422 H434 0.929 . S
O423 Tb407 2.326 . S
O423 C411 1.242 . S
O424 Eu408 2.324 . S
O424 C411 1.258 . S
O425 Tb407 2.500 1_554 S
O425 C427 1.273 1_554 S
O426 Tb407 2.473 . S
O426 C427 1.257 . S
C427 O425 1.273 1_556 S
C427 O426 1.257 . S
O428 Eu408 2.326 . S
O428 C416 1.242 . S
O429 Tb407 2.324 . S
O429 C416 1.258 . S
O430 Eu408 2.500 . S
O430 C413 1.273 . S
O431 Eu408 2.473 . S
O431 C413 1.257 . S
H432 C418 0.929 . S
H433 C420 0.931 . S
H434 C422 0.929 . S
O435 Tb436 2.292 . S
O435 C438 1.255 . S
Tb436 O435 2.292 . S
Tb436 O452 2.326 . S
Tb436 O454 2.500 . S
Tb436 O455 2.473 . S
Tb436 O458 2.324 1_545 S
Eu437 O441 2.292 . S
Eu437 C442 2.852 . S
Eu437 O453 2.324 . S
Eu437 O457 2.326 . S
Eu437 O459 2.500 . S
Eu437 O460 2.473 . S
C438 O435 1.255 . S
C438 O439 1.247 . S
O439 C438 1.247 . S
C440 O452 1.242 . S
C440 O453 1.258 . S
O441 Eu437 2.292 . S
O441 C443 1.255 . S
C442 Eu437 2.852 . S
C442 C446 1.503 . S
C442 O459 1.273 . S
C442 O460 1.257 . S
C443 O441 1.255 . S
C443 O444 1.247 . S
O444 C443 1.247 . S
C445 O457 1.242 1_565 S
C445 O458 1.258 . S
C446 C442 1.503 . S
C446 C447 1.379 . S
C446 C451 1.392 . S
C447 C446 1.379 . S
C447 C448 1.404 . S
C447 H461 0.929 . S
C448 C447 1.404 . S
C448 C449 1.389 . S
C449 C448 1.389 . S
C449 C450 1.399 . S
C449 H462 0.931 . S
C450 C449 1.399 . S
C450 C451 1.390 . S
C451 C446 1.392 . S
C451 C450 1.390 . S
C451 H463 0.929 . S
O452 Tb436 2.326 . S
O452 C440 1.242 . S
O453 Eu437 2.324 . S
O453 C440 1.258 . S
O454 Tb436 2.500 . S
O454 C456 1.273 . S
O455 Tb436 2.473 . S
O455 C456 1.257 . S
C456 O454 1.273 . S
C456 O455 1.257 . S
O457 Eu437 2.326 . S
O457 C445 1.242 1_545 S
O458 Tb436 2.324 1_565 S
O458 C445 1.258 . S
O459 Eu437 2.500 . S
O459 C442 1.273 . S
O460 Eu437 2.473 . S
O460 C442 1.257 . S
H461 C447 0.929 . S
H462 C449 0.931 . S
H463 C451 0.929 . S
C464 C465 1.387 . S
C464 H468 0.950 . S
C464 C473 1.390 . S
C465 C464 1.387 . S
C465 C467 1.387 . S
H466 C473 0.950 . S
C467 C465 1.387 . S
C467 C469 1.390 . S
C467 H471 0.950 . S
H468 C464 0.950 . S
C469 C467 1.390 . S
C469 C470 1.387 . S
C469 H472 0.950 . S
C470 C469 1.387 . S
C470 C473 1.387 . S
H471 C467 0.950 . S
H472 C469 0.950 . S
C473 C464 1.390 . S
C473 H466 0.950 . S
C473 C470 1.387 . S
C474 C475 1.387 . S
C474 H478 0.950 . S
C474 C483 1.390 . S
C475 C474 1.387 . S
C475 C477 1.387 . S
H476 C483 0.950 . S
C477 C475 1.387 . S
C477 C479 1.390 . S
C477 H481 0.950 . S
H478 C474 0.950 . S
C479 C477 1.390 . S
C479 C480 1.387 . S
C479 H482 0.950 . S
C480 C479 1.387 . S
C480 C483 1.387 . S
H481 C477 0.950 . S
H482 C479 0.950 . S
C483 C474 1.390 . S
C483 H476 0.950 . S
C483 C480 1.387 . S
C484 C485 1.387 . S
C484 H488 0.950 . S
C484 C493 1.390 . S
C485 C484 1.387 . S
C485 C487 1.387 . S
H486 C493 0.950 . S
C487 C485 1.387 . S
C487 C489 1.390 . S
C487 H491 0.950 . S
H488 C484 0.950 . S
C489 C487 1.390 . S
C489 C490 1.387 . S
C489 H492 0.950 . S
C490 C489 1.387 . S
C490 C493 1.387 . S
H491 C487 0.950 . S
H492 C489 0.950 . S
C493 C484 1.390 . S
C493 H486 0.950 . S
C493 C490 1.387 . S
C494 C495 1.387 . S
C494 H498 0.950 . S
C494 C503 1.390 . S
C495 C494 1.387 . S
C495 C497 1.387 . S
H496 C503 0.950 . S
C497 C495 1.387 . S
C497 C499 1.390 . S
C497 H501 0.950 . S
H498 C494 0.950 . S
C499 C497 1.390 . S
C499 C500 1.387 . S
C499 H502 0.950 . S
C500 C499 1.387 . S
C500 C503 1.387 . S
H501 C497 0.950 . S
H502 C499 0.950 . S
C503 C494 1.390 . S
C503 H496 0.950 . S
C503 C500 1.387 . S
C504 C505 1.387 . S
C504 H508 0.950 . S
C504 C513 1.390 . S
C505 C504 1.387 . S
C505 C507 1.387 . S
H506 C513 0.950 . S
C507 C505 1.387 . S
C507 C509 1.390 . S
C507 H511 0.950 . S
H508 C504 0.950 . S
C509 C507 1.390 . S
C509 C510 1.387 . S
C509 H512 0.950 . S
C510 C509 1.387 . S
C510 C513 1.387 . S
H511 C507 0.950 . S
H512 C509 0.950 . S
C513 C504 1.390 . S
C513 H506 0.950 . S
C513 C510 1.387 . S
C514 C515 1.387 . S
C514 H518 0.950 . S
C514 C523 1.390 . S
C515 C514 1.387 . S
C515 C517 1.387 . S
H516 C523 0.950 . S
C517 C515 1.387 . S
C517 C519 1.390 . S
C517 H521 0.950 . S
H518 C514 0.950 . S
C519 C517 1.390 . S
C519 C520 1.387 . S
C519 H522 0.950 . S
C520 C519 1.387 . S
C520 C523 1.387 . S
H521 C517 0.950 . S
H522 C519 0.950 . S
C523 C514 1.390 . S
C523 H516 0.950 . S
C523 C520 1.387 . S
C524 C525 1.387 . S
C524 H528 0.950 . S
C524 C533 1.390 . S
C525 C524 1.387 . S
C525 C527 1.387 . S
H526 C533 0.950 . S
C527 C525 1.387 . S
C527 C529 1.390 . S
C527 H531 0.950 . S
H528 C524 0.950 . S
C529 C527 1.390 . S
C529 C530 1.387 . S
C529 H532 0.950 . S
C530 C529 1.387 . S
C530 C533 1.387 . S
H531 C527 0.950 . S
H532 C529 0.950 . S
C533 C524 1.390 . S
C533 H526 0.950 . S
C533 C530 1.387 . S
C534 C535 1.387 . S
C534 H538 0.950 . S
C534 C543 1.390 . S
C535 C534 1.387 . S
C535 C537 1.387 . S
H536 C543 0.950 . S
C537 C535 1.387 . S
C537 C539 1.390 . S
C537 H541 0.950 . S
H538 C534 0.950 . S
C539 C537 1.390 . S
C539 C540 1.387 . S
C539 H542 0.950 . S
C540 C539 1.387 . S
C540 C543 1.387 . S
H541 C537 0.950 . S
H542 C539 0.950 . S
C543 C534 1.390 . S
C543 H536 0.950 . S
C543 C540 1.387 . S
C544 C545 1.387 . S
C544 H548 0.950 . S
C544 C553 1.390 . S
C545 C544 1.387 . S
C545 C547 1.387 . S
H546 C553 0.950 . S
C547 C545 1.387 . S
C547 C549 1.390 . S
C547 H551 0.950 . S
H548 C544 0.950 . S
C549 C547 1.390 . S
C549 C550 1.387 . S
C549 H552 0.950 . S
C550 C549 1.387 . S
C550 C553 1.387 . S
H551 C547 0.950 . S
H552 C549 0.950 . S
C553 C544 1.390 . S
C553 H546 0.950 . S
C553 C550 1.387 . S
C554 C555 1.387 . S
C554 H558 0.950 . S
C554 C563 1.390 1_565 S
C555 C554 1.387 . S
C555 C557 1.387 . S
H556 C563 0.950 . S
C557 C555 1.387 . S
C557 C559 1.390 1_565 S
C557 H561 0.950 . S
H558 C554 0.950 . S
C559 C557 1.390 1_545 S
C559 C560 1.387 . S
C559 H562 0.950 . S
C560 C559 1.387 . S
C560 C563 1.387 . S
H561 C557 0.950 . S
H562 C559 0.950 . S
C563 C554 1.390 1_545 S
C563 H556 0.950 . S
C563 C560 1.387 . S
C564 C565 1.387 . S
C564 H568 0.950 . S
C564 C573 1.390 . S
C565 C564 1.387 . S
C565 C567 1.387 . S
H566 C573 0.950 . S
C567 C565 1.387 . S
C567 C569 1.390 . S
C567 H571 0.950 . S
H568 C564 0.950 . S
C569 C567 1.390 . S
C569 C570 1.387 . S
C569 H572 0.950 . S
C570 C569 1.387 . S
C570 C573 1.387 . S
H571 C567 0.950 . S
H572 C569 0.950 . S
C573 C564 1.390 . S
C573 H566 0.950 . S
C573 C570 1.387 . S
C574 C575 1.387 . S
C574 H578 0.950 . S
C574 C583 1.390 1_545 S
C575 C574 1.387 . S
C575 C577 1.387 . S
H576 C583 0.950 . S
C577 C575 1.387 . S
C577 C579 1.390 1_545 S
C577 H581 0.950 . S
H578 C574 0.950 . S
C579 C577 1.390 1_565 S
C579 C580 1.387 . S
C579 H582 0.950 . S
C580 C579 1.387 . S
C580 C583 1.387 . S
H581 C577 0.950 . S
H582 C579 0.950 . S
C583 C574 1.390 1_565 S
C583 H576 0.950 . S
C583 C580 1.387 . S
C584 C585 1.387 . S
C584 H588 0.950 . S
C584 C593 1.390 . S
C585 C584 1.387 . S
C585 C587 1.387 . S
H586 C593 0.950 . S
C587 C585 1.387 . S
C587 C589 1.390 . S
C587 H591 0.950 . S
H588 C584 0.950 . S
C589 C587 1.390 . S
C589 C590 1.387 . S
C589 H592 0.950 . S
C590 C589 1.387 . S
C590 C593 1.387 . S
H591 C587 0.950 . S
H592 C589 0.950 . S
C593 C584 1.390 . S
C593 H586 0.950 . S
C593 C590 1.387 . S
C594 C595 1.387 . S
C594 H598 0.950 . S
C594 C603 1.390 1_565 S
C595 C594 1.387 . S
C595 C597 1.387 . S
H596 C603 0.950 . S
C597 C595 1.387 . S
C597 C599 1.390 1_565 S
C597 H601 0.950 . S
H598 C594 0.950 . S
C599 C597 1.390 1_545 S
C599 C600 1.387 . S
C599 H602 0.950 . S
C600 C599 1.387 . S
C600 C603 1.387 . S
H601 C597 0.950 . S
H602 C599 0.950 . S
C603 C594 1.390 1_545 S
C603 H596 0.950 . S
C603 C600 1.387 . S
C604 C605 1.387 . S
C604 H608 0.950 . S
C604 C613 1.390 . S
C605 C604 1.387 . S
C605 C607 1.387 . S
H606 C613 0.950 . S
C607 C605 1.387 . S
C607 C609 1.390 . S
C607 H611 0.950 . S
H608 C604 0.950 . S
C609 C607 1.390 . S
C609 C610 1.387 . S
C609 H612 0.950 . S
C610 C609 1.387 . S
C610 C613 1.387 . S
H611 C607 0.950 . S
H612 C609 0.950 . S
C613 C604 1.390 . S
C613 H606 0.950 . S
C613 C610 1.387 . S
C614 C615 1.387 1_545 S
C614 H618 0.950 . S
C614 C623 1.390 . S
C615 C614 1.387 1_565 S
C615 C617 1.387 . S
H616 C623 0.950 . S
C617 C615 1.387 . S
C617 C619 1.390 . S
C617 H621 0.950 . S
H618 C614 0.950 . S
C619 C617 1.390 . S
C619 C620 1.387 1_565 S
C619 H622 0.950 . S
C620 C619 1.387 1_545 S
C620 C623 1.387 . S
H621 C617 0.950 . S
H622 C619 0.950 . S
C623 C614 1.390 . S
C623 H616 0.950 . S
C623 C620 1.387 . S
C624 C625 1.387 . S
C624 H628 0.950 . S
C624 C633 1.390 . S
C625 C624 1.387 . S
C625 C627 1.387 . S
H626 C633 0.950 . S
C627 C625 1.387 . S
C627 C629 1.390 . S
C627 H631 0.950 . S
H628 C624 0.950 . S
C629 C627 1.390 . S
C629 C630 1.387 . S
C629 H632 0.950 . S
C630 C629 1.387 . S
C630 C633 1.387 . S
H631 C627 0.950 . S
H632 C629 0.950 . S
C633 C624 1.390 . S
C633 H626 0.950 . S
C633 C630 1.387 . S
C634 C635 1.387 . S
C634 H638 0.950 . S
C634 C643 1.390 . S
C635 C634 1.387 . S
C635 C637 1.387 . S
H636 C643 0.950 . S
C637 C635 1.387 . S
C637 C639 1.390 . S
C637 H641 0.950 . S
H638 C634 0.950 . S
C639 C637 1.390 . S
C639 C640 1.387 . S
C639 H642 0.950 . S
C640 C639 1.387 . S
C640 C643 1.387 . S
H641 C637 0.950 . S
H642 C639 0.950 . S
C643 C634 1.390 . S
C643 H636 0.950 . S
C643 C640 1.387 . S
C644 C645 1.387 . S
C644 H648 0.950 . S
C644 C653 1.390 . S
C645 C644 1.387 . S
C645 C647 1.387 . S
H646 C653 0.950 . S
C647 C645 1.387 . S
C647 C649 1.390 . S
C647 H651 0.950 . S
H648 C644 0.950 . S
C649 C647 1.390 . S
C649 C650 1.387 . S
C649 H652 0.950 . S
C650 C649 1.387 . S
C650 C653 1.387 . S
H651 C647 0.950 . S
H652 C649 0.950 . S
C653 C644 1.390 . S
C653 H646 0.950 . S
C653 C650 1.387 . S
C654 C655 1.387 . S
C654 H658 0.950 . S
C654 C663 1.390 . S
C655 C654 1.387 . S
C655 C657 1.387 . S
H656 C663 0.950 . S
C657 C655 1.387 . S
C657 C659 1.390 . S
C657 H661 0.950 . S
H658 C654 0.950 . S
C659 C657 1.390 . S
C659 C660 1.387 . S
C659 H662 0.950 . S
C660 C659 1.387 . S
C660 C663 1.387 . S
H661 C657 0.950 . S
H662 C659 0.950 . S
C663 C654 1.390 . S
C663 H656 0.950 . S
C663 C660 1.387 . S
C664 C665 1.387 . S
C664 H668 0.950 . S
C664 C673 1.390 . S
C665 C664 1.387 . S
C665 C667 1.387 . S
H666 C673 0.950 . S
C667 C665 1.387 . S
C667 C669 1.390 . S
C667 H671 0.950 . S
H668 C664 0.950 . S
C669 C667 1.390 . S
C669 C670 1.387 . S
C669 H672 0.950 . S
C670 C669 1.387 . S
C670 C673 1.387 . S
H671 C667 0.950 . S
H672 C669 0.950 . S
C673 C664 1.390 . S
C673 H666 0.950 . S
C673 C670 1.387 . S
C674 C675 1.387 . S
C674 H678 0.950 . S
C674 C683 1.390 . S
C675 C674 1.387 . S
C675 C677 1.387 . S
H676 C683 0.950 . S
C677 C675 1.387 . S
C677 C679 1.390 . S
C677 H681 0.950 . S
H678 C674 0.950 . S
C679 C677 1.390 . S
C679 C680 1.387 . S
C679 H682 0.950 . S
C680 C679 1.387 . S
C680 C683 1.387 . S
H681 C677 0.950 . S
H682 C679 0.950 . S
C683 C674 1.390 . S
C683 H676 0.950 . S
C683 C680 1.387 . S
C684 C685 1.387 . S
C684 H688 0.950 . S
C684 C693 1.390 . S
C685 C684 1.387 . S
C685 C687 1.387 . S
H686 C693 0.950 . S
C687 C685 1.387 . S
C687 C689 1.390 . S
C687 H691 0.950 . S
H688 C684 0.950 . S
C689 C687 1.390 . S
C689 C690 1.387 . S
C689 H692 0.950 . S
C690 C689 1.387 . S
C690 C693 1.387 . S
H691 C687 0.950 . S
H692 C689 0.950 . S
C693 C684 1.390 . S
C693 H686 0.950 . S
C693 C690 1.387 . S
C694 C695 1.387 . S
C694 H698 0.950 . S
C694 C703 1.390 . S
C695 C694 1.387 . S
C695 C697 1.387 . S
H696 C703 0.950 . S
C697 C695 1.387 . S
C697 C699 1.390 . S
C697 H701 0.950 . S
H698 C694 0.950 . S
C699 C697 1.390 . S
C699 C700 1.387 . S
C699 H702 0.950 . S
C700 C699 1.387 . S
C700 C703 1.387 . S
H701 C697 0.950 . S
H702 C699 0.950 . S
C703 C694 1.390 . S
C703 H696 0.950 . S
C703 C700 1.387 . S
C704 C705 1.387 . S
C704 H708 0.950 . S
C704 C713 1.390 . S
C705 C704 1.387 . S
C705 C707 1.387 . S
H706 C713 0.950 . S
C707 C705 1.387 . S
C707 C709 1.390 . S
C707 H711 0.950 . S
H708 C704 0.950 . S
C709 C707 1.390 . S
C709 C710 1.387 . S
C709 H712 0.950 . S
C710 C709 1.387 . S
C710 C713 1.387 . S
H711 C707 0.950 . S
H712 C709 0.950 . S
C713 C704 1.390 . S
C713 H706 0.950 . S
C713 C710 1.387 . S
C714 C715 1.387 . S
C714 H718 0.950 . S
C714 C723 1.390 . S
C715 C714 1.387 . S
C715 C717 1.387 . S
H716 C723 0.950 . S
C717 C715 1.387 . S
C717 C719 1.390 . S
C717 H721 0.950 . S
H718 C714 0.950 . S
C719 C717 1.390 . S
C719 C720 1.387 . S
C719 H722 0.950 . S
C720 C719 1.387 . S
C720 C723 1.387 . S
H721 C717 0.950 . S
H722 C719 0.950 . S
C723 C714 1.390 . S
C723 H716 0.950 . S
C723 C720 1.387 . S
C724 C725 1.387 . S
C724 H728 0.950 . S
C724 C733 1.390 . S
C725 C724 1.387 . S
C725 C727 1.387 . S
H726 C733 0.950 . S
C727 C725 1.387 . S
C727 C729 1.390 . S
C727 H731 0.950 . S
H728 C724 0.950 . S
C729 C727 1.390 . S
C729 C730 1.387 . S
C729 H732 0.950 . S
C730 C729 1.387 . S
C730 C733 1.387 . S
H731 C727 0.950 . S
H732 C729 0.950 . S
C733 C724 1.390 . S
C733 H726 0.950 . S
C733 C730 1.387 . S
C734 C735 1.387 . S
C734 H738 0.950 1_545 S
C734 C743 1.390 1_545 S
C735 C734 1.387 . S
C735 C737 1.387 . S
H736 C743 0.950 . S
C737 C735 1.387 . S
C737 C739 1.390 . S
C737 H741 0.950 . S
H738 C734 0.950 1_565 S
C739 C737 1.390 . S
C739 C740 1.387 . S
C739 H742 0.950 . S
C740 C739 1.387 . S
C740 C743 1.387 1_545 S
H741 C737 0.950 . S
H742 C739 0.950 . S
C743 C734 1.390 1_565 S
C743 H736 0.950 . S
C743 C740 1.387 1_565 S
C744 C745 1.387 . S
C744 H748 0.950 . S
C744 C753 1.390 . S
C745 C744 1.387 . S
C745 C747 1.387 . S
H746 C753 0.950 . S
C747 C745 1.387 . S
C747 C749 1.390 . S
C747 H751 0.950 . S
H748 C744 0.950 . S
C749 C747 1.390 . S
C749 C750 1.387 . S
C749 H752 0.950 . S
C750 C749 1.387 . S
C750 C753 1.387 . S
H751 C747 0.950 . S
H752 C749 0.950 . S
C753 C744 1.390 . S
C753 H746 0.950 . S
C753 C750 1.387 . S
C754 C755 1.387 . S
C754 H758 0.950 . S
C754 C763 1.390 . S
C755 C754 1.387 . S
C755 C757 1.387 1_545 S
H756 C763 0.950 . S
C757 C755 1.387 1_565 S
C757 C759 1.390 1_565 S
C757 H761 0.950 . S
H758 C754 0.950 . S
C759 C757 1.390 1_545 S
C759 C760 1.387 . S
C759 H762 0.950 1_545 S
C760 C759 1.387 . S
C760 C763 1.387 . S
H761 C757 0.950 . S
H762 C759 0.950 1_565 S
C763 C754 1.390 . S
C763 H756 0.950 . S
C763 C760 1.387 . S
C764 C765 1.387 . S
C764 H768 0.950 . S
C764 C773 1.390 . S
C765 C764 1.387 . S
C765 C767 1.387 . S
H766 C773 0.950 . S
C767 C765 1.387 . S
C767 C769 1.390 . S
C767 H771 0.950 . S
H768 C764 0.950 . S
C769 C767 1.390 . S
C769 C770 1.387 . S
C769 H772 0.950 . S
C770 C769 1.387 . S
C770 C773 1.387 . S
H771 C767 0.950 . S
H772 C769 0.950 . S
C773 C764 1.390 . S
C773 H766 0.950 . S
C773 C770 1.387 . S
C774 C775 1.387 . S
C774 H778 0.950 . S
C774 C783 1.390 . S
C775 C774 1.387 . S
C775 C777 1.387 1_565 S
H776 C783 0.950 . S
C777 C775 1.387 1_545 S
C777 C779 1.390 1_545 S
C777 H781 0.950 . S
H778 C774 0.950 . S
C779 C777 1.390 1_565 S
C779 C780 1.387 . S
C779 H782 0.950 1_565 S
C780 C779 1.387 . S
C780 C783 1.387 . S
H781 C777 0.950 . S
H782 C779 0.950 1_545 S
C783 C774 1.390 . S
C783 H776 0.950 . S
C783 C780 1.387 . S
C784 C785 1.387 1_545 S
C784 H788 0.950 . S
C784 C793 1.390 1_556 S
C785 C784 1.387 1_565 S
C785 C787 1.387 . S
H786 C793 0.950 . S
C787 C785 1.387 . S
C787 C789 1.390 1_556 S
C787 H791 0.950 . S
H788 C784 0.950 . S
C789 C787 1.390 1_554 S
C789 C790 1.387 1_565 S
C789 H792 0.950 . S
C790 C789 1.387 1_545 S
C790 C793 1.387 . S
H791 C787 0.950 . S
H792 C789 0.950 . S
C793 C784 1.390 1_554 S
C793 H786 0.950 . S
C793 C790 1.387 . S
C794 C795 1.387 . S
C794 H798 0.950 . S
C794 C803 1.390 . S
C795 C794 1.387 . S
C795 C797 1.387 . S
H796 C803 0.950 . S
C797 C795 1.387 . S
C797 C799 1.390 . S
C797 H801 0.950 . S
H798 C794 0.950 . S
C799 C797 1.390 . S
C799 C800 1.387 . S
C799 H802 0.950 . S
C800 C799 1.387 . S
C800 C803 1.387 . S
H801 C797 0.950 . S
H802 C799 0.950 . S
C803 C794 1.390 . S
C803 H796 0.950 . S
C803 C800 1.387 . S
C804 C805 1.387 1_565 S
C804 H808 0.950 . S
C804 C813 1.390 1_655 S
C805 C804 1.387 1_545 S
C805 C807 1.387 . S
H806 C813 0.950 . S
C807 C805 1.387 . S
C807 C809 1.390 1_655 S
C807 H811 0.950 . S
H808 C804 0.950 . S
C809 C807 1.390 1_455 S
C809 C810 1.387 1_545 S
C809 H812 0.950 . S
C810 C809 1.387 1_565 S
C810 C813 1.387 . S
H811 C807 0.950 . S
H812 C809 0.950 . S
C813 C804 1.390 1_455 S
C813 H806 0.950 . S
C813 C810 1.387 . S
C814 C815 1.387 . S
C814 H818 0.950 . S
C814 C823 1.390 . S
C815 C814 1.387 . S
C815 C817 1.387 . S
H816 C823 0.950 . S
C817 C815 1.387 . S
C817 C819 1.390 . S
C817 H821 0.950 . S
H818 C814 0.950 . S
C819 C817 1.390 . S
C819 C820 1.387 . S
C819 H822 0.950 . S
C820 C819 1.387 . S
C820 C823 1.387 . S
H821 C817 0.950 . S
H822 C819 0.950 . S
C823 C814 1.390 . S
C823 H816 0.950 . S
C823 C820 1.387 . S
C824 C825 1.387 . S
C824 H828 0.950 . S
C824 C833 1.390 . S
C825 C824 1.387 . S
C825 C827 1.387 . S
H826 C833 0.950 . S
C827 C825 1.387 . S
C827 C829 1.390 . S
C827 H831 0.950 . S
H828 C824 0.950 . S
C829 C827 1.390 . S
C829 C830 1.387 . S
C829 H832 0.950 . S
C830 C829 1.387 . S
C830 C833 1.387 . S
H831 C827 0.950 . S
H832 C829 0.950 . S
C833 C824 1.390 . S
C833 H826 0.950 . S
C833 C830 1.387 . S
C834 C835 1.387 . S
C834 H838 0.950 . S
C834 C843 1.390 . S
C835 C834 1.387 . S
C835 C837 1.387 . S
H836 C843 0.950 . S
C837 C835 1.387 . S
C837 C839 1.390 . S
C837 H841 0.950 . S
H838 C834 0.950 . S
C839 C837 1.390 . S
C839 C840 1.387 . S
C839 H842 0.950 . S
C840 C839 1.387 . S
C840 C843 1.387 . S
H841 C837 0.950 . S
H842 C839 0.950 . S
C843 C834 1.390 . S
C843 H836 0.950 . S
C843 C840 1.387 . S
C844 C845 1.387 . S
C844 H848 0.950 . S
C844 C853 1.390 1_655 S
C845 C844 1.387 . S
C845 C847 1.387 . S
H846 C853 0.950 . S
C847 C845 1.387 . S
C847 C849 1.390 1_655 S
C847 H851 0.950 . S
H848 C844 0.950 . S
C849 C847 1.390 1_455 S
C849 C850 1.387 . S
C849 H852 0.950 . S
C850 C849 1.387 . S
C850 C853 1.387 . S
H851 C847 0.950 . S
H852 C849 0.950 . S
C853 C844 1.390 1_455 S
C853 H846 0.950 . S
C853 C850 1.387 . S
C854 C855 1.387 . S
C854 H858 0.950 . S
C854 C863 1.390 . S
C855 C854 1.387 . S
C855 C857 1.387 1_554 S
H856 C863 0.950 . S
C857 C855 1.387 1_556 S
C857 C859 1.390 . S
C857 H861 0.950 . S
H858 C854 0.950 . S
C859 C857 1.390 . S
C859 C860 1.387 . S
C859 H862 0.950 . S
C860 C859 1.387 . S
C860 C863 1.387 1_556 S
H861 C857 0.950 . S
H862 C859 0.950 . S
C863 C854 1.390 . S
C863 H856 0.950 . S
C863 C860 1.387 1_554 S
C864 C865 1.387 . S
C864 H868 0.950 . S
C864 C873 1.390 1_556 S
C865 C864 1.387 . S
C865 C867 1.387 . S
H866 C873 0.950 . S
C867 C865 1.387 . S
C867 C869 1.372 1_556 S
C867 H871 0.950 . S
H868 C864 0.950 . S
C869 C867 1.372 1_554 S
C869 C870 1.400 . S
C869 H872 0.956 . S
C870 C869 1.400 . S
C870 C873 1.387 . S
H871 C867 0.950 . S
H872 C869 0.956 . S
C873 C864 1.390 1_554 S
C873 H866 0.950 . S
C873 C870 1.387 . S
C874 C875 1.387 . S
C874 H878 0.950 . S
C874 C883 1.390 . S
C875 C874 1.387 . S
C875 C877 1.387 . S
H876 C883 0.950 . S
C877 C875 1.387 . S
C877 C879 1.390 . S
C877 H881 0.950 . S
H878 C874 0.950 . S
C879 C877 1.390 . S
C879 C880 1.387 . S
C879 H882 0.950 . S
C880 C879 1.387 . S
C880 C883 1.387 . S
H881 C877 0.950 . S
H882 C879 0.950 . S
C883 C874 1.390 . S
C883 H876 0.950 . S
C883 C880 1.387 . S
C884 C885 1.387 . S
C884 H888 0.950 . S
C884 C893 1.390 . S
C885 C884 1.387 . S
C885 C887 1.387 . S
H886 C893 0.950 . S
C887 C885 1.387 . S
C887 C889 1.390 . S
C887 H891 0.950 . S
H888 C884 0.950 . S
C889 C887 1.390 . S
C889 C890 1.387 . S
C889 H892 0.950 . S
C890 C889 1.387 . S
C890 C893 1.387 . S
H891 C887 0.950 . S
H892 C889 0.950 . S
C893 C884 1.390 . S
C893 H886 0.950 . S
C893 C890 1.387 . S
C894 C895 1.387 . S
C894 H898 0.950 . S
C894 C903 1.390 . S
C895 C894 1.387 . S
C895 C897 1.387 . S
H896 C903 0.950 . S
C897 C895 1.387 . S
C897 C899 1.390 . S
C897 H901 0.950 . S
H898 C894 0.950 . S
C899 C897 1.390 . S
C899 C900 1.387 . S
C899 H902 0.950 . S
C900 C899 1.387 . S
C900 C903 1.387 . S
H901 C897 0.950 . S
H902 C899 0.950 . S
C903 C894 1.390 . S
C903 H896 0.950 . S
C903 C900 1.387 . S
C904 C905 1.387 . S
C904 H908 0.950 . S
C904 C913 1.416 . S
C905 C904 1.387 . S
C905 C907 1.387 1_556 S
H906 C913 0.959 . S
C907 C905 1.387 1_554 S
C907 C909 1.390 . S
C907 H911 0.950 . S
H908 C904 0.950 . S
C909 C907 1.390 . S
C909 C910 1.387 . S
C909 H912 0.950 . S
C910 C909 1.387 . S
C910 C913 1.353 1_554 S
H911 C907 0.950 . S
H912 C909 0.950 . S
C913 C904 1.416 . S
C913 H906 0.959 . S
C913 C910 1.353 1_556 S
C914 C915 1.387 . S
C914 H918 0.950 . S
C914 C923 1.390 . S
C915 C914 1.387 . S
C915 C917 1.387 . S
H916 C923 0.950 . S
C917 C915 1.387 . S
C917 C919 1.390 . S
C917 H921 0.950 . S
H918 C914 0.950 . S
C919 C917 1.390 . S
C919 C920 1.387 . S
C919 H922 0.950 . S
C920 C919 1.387 . S
C920 C923 1.387 . S
H921 C917 0.950 . S
H922 C919 0.950 . S
C923 C914 1.390 . S
C923 H916 0.950 . S
C923 C920 1.387 . S
C924 C925 1.387 . S
C924 H928 0.950 . S
C924 C933 1.390 . S
C925 C924 1.387 . S
C925 C927 1.387 . S
H926 C933 0.950 . S
C927 C925 1.387 . S
C927 C929 1.390 . S
C927 H931 0.950 . S
H928 C924 0.950 . S
C929 C927 1.390 . S
C929 C930 1.387 . S
C929 H932 0.950 . S
C930 C929 1.387 . S
C930 C933 1.387 . S
H931 C927 0.950 . S
H932 C929 0.950 . S
C933 C924 1.390 . S
C933 H926 0.950 . S
C933 C930 1.387 . S
C934 C935 1.387 . S
C934 H938 0.950 . S
C934 C943 1.390 . S
C935 C934 1.387 . S
C935 C937 1.387 . S
H936 C943 0.950 . S
C937 C935 1.387 . S
C937 C939 1.390 . S
C937 H941 0.950 . S
H938 C934 0.950 . S
C939 C937 1.390 . S
C939 C940 1.387 . S
C939 H942 0.950 . S
C940 C939 1.387 . S
C940 C943 1.387 . S
H941 C937 0.950 . S
H942 C939 0.950 . S
C943 C934 1.390 . S
C943 H936 0.950 . S
C943 C940 1.387 . S
C944 C945 1.387 . S
C944 H948 0.950 . S
C944 C953 1.390 . S
C945 C944 1.387 . S
C945 C947 1.387 . S
H946 C953 0.950 . S
C947 C945 1.387 . S
C947 C949 1.390 . S
C947 H951 0.950 . S
H948 C944 0.950 . S
C949 C947 1.390 . S
C949 C950 1.387 . S
C949 H952 0.950 . S
C950 C949 1.387 . S
C950 C953 1.387 . S
H951 C947 0.950 . S
H952 C949 0.950 . S
C953 C944 1.390 . S
C953 H946 0.950 . S
C953 C950 1.387 . S
C954 C955 1.387 . S
C954 H958 0.950 . S
C954 C963 1.390 . S
C955 C954 1.387 . S
C955 C957 1.387 1_545 S
H956 C963 0.950 . S
C957 C955 1.387 1_565 S
C957 C959 1.390 . S
C957 H961 0.950 . S
H958 C954 0.950 . S
C959 C957 1.390 . S
C959 C960 1.387 1_565 S
C959 H962 0.950 . S
C960 C959 1.387 1_545 S
C960 C963 1.387 . S
H961 C957 0.950 . S
H962 C959 0.950 . S
C963 C954 1.390 . S
C963 H956 0.950 . S
C963 C960 1.387 . S
C964 C965 1.387 . S
C964 H968 0.950 . S
C964 C973 1.390 1_554 S
C965 C964 1.387 . S
C965 C967 1.387 1_554 S
H966 C973 0.950 . S
C967 C965 1.387 1_556 S
C967 C969 1.390 . S
C967 H971 0.949 1_556 S
H968 C964 0.950 . S
C969 C967 1.390 . S
C969 C970 1.387 . S
C969 H972 0.950 . S
C970 C969 1.387 . S
C970 C973 1.387 . S
H971 C967 0.949 1_554 S
H972 C969 0.950 . S
C973 C964 1.390 1_556 S
C973 H966 0.950 . S
C973 C970 1.387 . S
C974 C975 1.387 . S
C974 H978 0.950 . S
C974 C983 1.390 . S
C975 C974 1.387 . S
C975 C977 1.387 1_565 S
H976 C983 0.950 . S
C977 C975 1.387 1_545 S
C977 C979 1.390 . S
C977 H981 0.950 . S
H978 C974 0.950 . S
C979 C977 1.390 . S
C979 C980 1.387 1_545 S
C979 H982 0.950 . S
C980 C979 1.387 1_565 S
C980 C983 1.387 . S
H981 C977 0.950 . S
H982 C979 0.950 . S
C983 C974 1.390 . S
C983 H976 0.950 . S
C983 C980 1.387 . S
C984 C985 1.387 . S
C984 H988 0.950 . S
C984 C993 1.390 . S
C985 C984 1.387 . S
C985 C987 1.387 . S
H986 C993 0.950 . S
C987 C985 1.387 . S
C987 C989 1.390 . S
C987 H991 0.950 . S
H988 C984 0.950 . S
C989 C987 1.390 . S
C989 C990 1.387 . S
C989 H992 0.950 . S
C990 C989 1.387 . S
C990 C993 1.387 . S
H991 C987 0.950 . S
H992 C989 0.950 . S
C993 C984 1.390 . S
C993 H986 0.950 . S
C993 C990 1.387 . S
C994 C995 1.387 1_545 S
C994 H998 0.950 . S
C994 C1003 1.390 . S
C995 C994 1.387 1_565 S
C995 C997 1.387 . S
H996 C1003 0.950 . S
C997 C995 1.387 . S
C997 C999 1.390 . S
C997 H1001 0.950 . S
H998 C994 0.950 . S
C999 C997 1.390 . S
C999 C1000 1.387 . S
C999 H1002 0.950 . S
C1000 C999 1.387 . S
C1000 C1003 1.387 1_565 S
H1001 C997 0.950 . S
H1002 C999 0.950 . S
C1003 C994 1.390 . S
C1003 H996 0.950 . S
C1003 C1000 1.387 1_545 S
C1004 C1005 1.387 1_554 S
C1004 H1008 0.949 1_554 S
C1004 C1013 1.390 . S
C1005 C1004 1.387 1_556 S
C1005 C1007 1.387 . S
H1006 C1013 0.950 . S
C1007 C1005 1.387 . S
C1007 C1009 1.390 1_556 S
C1007 H1011 0.950 . S
H1008 C1004 0.949 1_556 S
C1009 C1007 1.390 1_554 S
C1009 C1010 1.387 . S
C1009 H1012 0.950 . S
C1010 C1009 1.387 . S
C1010 C1013 1.387 . S
H1011 C1007 0.950 . S
H1012 C1009 0.950 . S
C1013 C1004 1.390 . S
C1013 H1006 0.950 . S
C1013 C1010 1.387 . S
C1014 C1015 1.387 . S
C1014 H1018 0.950 . S
C1014 C1023 1.390 . S
C1015 C1014 1.387 . S
C1015 C1017 1.387 1_545 S
H1016 C1023 0.950 . S
C1017 C1015 1.387 1_565 S
C1017 C1019 1.390 . S
C1017 H1021 0.950 . S
H1018 C1014 0.950 . S
C1019 C1017 1.390 . S
C1019 C1020 1.387 1_565 S
C1019 H1022 0.950 . S
C1020 C1019 1.387 1_545 S
C1020 C1023 1.387 . S
H1021 C1017 0.950 . S
H1022 C1019 0.950 . S
C1023 C1014 1.390 . S
C1023 H1016 0.950 . S
C1023 C1020 1.387 . S
C465 C269 1.111 . S
C470 C3 1.140 . S
C475 C298 1.112 . S
C480 C32 1.140 . S
C485 C327 1.113 . S
C490 C61 1.143 . S
C495 C240 1.116 . S
C500 C90 1.145 . S
C505 C119 1.145 . S
C510 C385 1.117 . S
C515 C414 1.117 . S
C520 C148 1.145 . S
C525 C443 1.111 . S
C530 C177 1.140 . S
C535 C206 1.140 . S
C540 C356 1.111 . S
C545 C37 1.111 . S
C550 C235 1.140 . S
C555 C66 1.117 . S
C560 C264 1.145 . S
C565 C293 1.140 . S
C570 C95 1.111 . S
C575 C8 1.117 . S
C580 C322 1.145 . S
C585 C153 1.117 . S
C590 C351 1.145 . S
C595 C380 1.140 . S
C600 C182 1.111 . S
C605 C409 1.140 . S
C610 C211 1.111 . S
C615 C124 1.116 . S
C620 C438 1.145 . S
C625 C213 2.235 . S
C630 C15 2.314 . S
C635 C44 2.313 . S
C640 C358 2.234 . S
C645 C73 2.313 . S
C650 C155 2.233 . S
C655 C416 2.235 . S
C660 C102 2.314 . S
C665 C97 2.235 . S
C670 C131 2.314 . S
C675 C242 2.234 . S
C680 C160 2.313 . S
C685 C39 2.235 . S
C690 C189 2.314 . S
C695 C300 2.234 . S
C700 C218 2.313 . S
C705 C247 2.314 . S
C710 C445 2.234 . S
C715 C276 2.313 1_565 S
C720 C126 2.233 . S
C725 C387 2.234 . S
C730 C305 2.314 . S
C735 C184 2.234 . S
C740 C334 2.314 1_545 S
C745 C363 2.314 . S
C750 C329 2.235 . S
C755 C392 2.314 1_545 S
C760 C10 2.234 . S
C765 C421 2.313 . S
C770 C271 2.233 . S
C775 C450 2.314 1_565 S
C780 C68 2.234 . S
C785 C121 2.405 . S
C790 C5 2.405 . S
C795 C34 2.404 . S
C800 C382 2.404 . S
C805 C179 2.404 . S
C810 C63 2.404 . S
C815 C440 2.404 . S
C820 C92 2.404 . S
C825 C266 2.404 . S
C830 C150 2.404 . S
C835 C208 2.404 . S
C840 C324 2.404 . S
C845 C237 2.404 . S
C850 C353 2.404 . S
C855 C295 2.404 . S
C860 C411 2.404 . S
C865 C419 1.380 . S
C870 C21 1.228 . S
C875 C216 1.383 . S
C880 C50 1.223 . S
C885 C79 1.223 . S
C890 C361 1.382 . S
C895 C158 1.382 . S
C900 C108 1.223 . S
C905 C137 1.223 . S
C910 C303 1.380 . S
C915 C166 1.223 . S
C920 C100 1.382 . S
C925 C195 1.228 . S
C930 C245 1.380 . S
C935 C42 1.383 . S
C940 C224 1.227 . S
C945 C253 1.228 . S
C950 C187 1.382 . S
C955 C448 1.383 . S
C960 C282 1.223 . S
C965 C311 1.229 . S
C970 C129 1.380 . S
C975 C340 1.223 . S
C980 C390 1.383 . S
C985 C71 1.382 . S
C990 C369 1.223 . S
C995 C398 1.223 . S
C1000 C332 1.383 . S
C1005 C427 1.229 . S
C1010 C13 1.380 . S
C1015 C456 1.228 . S
C1020 C274 1.380 . S
