# Generated by pormake.
# Topology vby, (6)-cn, num edge types: 1
# Building blocks:
#     Node 0, Type 0, BuildingBlock: VOLQOD_clean_sbu_1, # of connection points: 6
#     Node 1, Type 0, BuildingBlock: VOLQOD_clean_sbu_1, # of connection points: 6
#     Node 2, Type 0, BuildingBlock: VOLQOD_clean_sbu_1, # of connection points: 6
#     Node 3, Type 0, BuildingBlock: VOLQOD_clean_sbu_1, # of connection points: 6
#     Node 4, Type 0, BuildingBlock: VOLQOD_clean_sbu_1, # of connection points: 6
#     Node 5, Type 0, BuildingBlock: VOLQOD_clean_sbu_1, # of connection points: 6
#     Node 6, Type 0, BuildingBlock: VOLQOD_clean_sbu_1, # of connection points: 6
#     Node 7, Type 0, BuildingBlock: VOLQOD_clean_sbu_1, # of connection points: 6
#     Edge 8, Type (0, 0), BuildingBlock: OJICUG_clean_linker_0, # of connection points: 2
#     Edge 9, Type (0, 0), BuildingBlock: OJICUG_clean_linker_0, # of connection points: 2
#     Edge 10, Type (0, 0), BuildingBlock: OJICUG_clean_linker_0, # of connection points: 2
#     Edge 11, Type (0, 0), BuildingBlock: OJICUG_clean_linker_0, # of connection points: 2
#     Edge 12, Type (0, 0), BuildingBlock: OJICUG_clean_linker_0, # of connection points: 2
#     Edge 13, Type (0, 0), BuildingBlock: OJICUG_clean_linker_0, # of connection points: 2
#     Edge 14, Type (0, 0), BuildingBlock: OJICUG_clean_linker_0, # of connection points: 2
#     Edge 15, Type (0, 0), BuildingBlock: OJICUG_clean_linker_0, # of connection points: 2
#     Edge 16, Type (0, 0), BuildingBlock: OJICUG_clean_linker_0, # of connection points: 2
#     Edge 17, Type (0, 0), BuildingBlock: OJICUG_clean_linker_0, # of connection points: 2
#     Edge 18, Type (0, 0), BuildingBlock: OJICUG_clean_linker_0, # of connection points: 2
#     Edge 19, Type (0, 0), BuildingBlock: OJICUG_clean_linker_0, # of connection points: 2
#     Edge 20, Type (0, 0), BuildingBlock: OJICUG_clean_linker_0, # of connection points: 2
#     Edge 21, Type (0, 0), BuildingBlock: OJICUG_clean_linker_0, # of connection points: 2
#     Edge 22, Type (0, 0), BuildingBlock: OJICUG_clean_linker_0, # of connection points: 2
#     Edge 23, Type (0, 0), BuildingBlock: OJICUG_clean_linker_0, # of connection points: 2
#     Edge 24, Type (0, 0), BuildingBlock: OJICUG_clean_linker_0, # of connection points: 2
#     Edge 25, Type (0, 0), BuildingBlock: OJICUG_clean_linker_0, # of connection points: 2
#     Edge 26, Type (0, 0), BuildingBlock: OJICUG_clean_linker_0, # of connection points: 2
#     Edge 27, Type (0, 0), BuildingBlock: OJICUG_clean_linker_0, # of connection points: 2
#     Edge 28, Type (0, 0), BuildingBlock: OJICUG_clean_linker_0, # of connection points: 2
#     Edge 29, Type (0, 0), BuildingBlock: OJICUG_clean_linker_0, # of connection points: 2
#     Edge 30, Type (0, 0), BuildingBlock: OJICUG_clean_linker_0, # of connection points: 2
#     Edge 31, Type (0, 0), BuildingBlock: OJICUG_clean_linker_0, # of connection points: 2
# Relax obj value: 0.083
# Max RMSD: 0.107
# Mean RMSD: 0.107
data_MOF--net-vby--node1-VOLQOD_clean_sbu_1--edge1-OJICUG_clean_linker_0
_symmetry_space_group_name_H-M    P1
_symmetry_Int_Tables_number       1
_symmetry_cell_setting            triclinic
loop_
_symmetry_equiv_pos_as_xyz
'x, y, z'
_cell_length_a     12.954391
_cell_length_b     49.643668
_cell_length_c     25.951079
_cell_angle_alpha  89.846344
_cell_angle_beta   90.017649
_cell_angle_gamma 89.984386
loop_
_atom_site_label
_atom_site_type_symbol
_atom_site_fract_x
_atom_site_fract_y
_atom_site_fract_z
_atom_type_partial_charge
O0 O 0.27286 0.36786 0.97085 0.0
Zn1 Zn 0.12028 0.37756 0.96347 0.0
O2 O 0.03803 0.35529 0.00981 0.0
Zn3 Zn 0.97367 0.32576 0.97185 0.0
Zn4 Zn 0.12643 0.34115 0.06349 0.0
Zn5 Zn 0.93454 0.37705 0.04232 0.0
O6 O 0.81692 0.32462 0.98489 0.0
O7 O 0.79616 0.36371 0.02558 0.0
O8 O 0.07589 0.3707 0.89023 0.0
O9 O -0.01438 0.33272 0.89597 0.0
O10 O 0.05172 0.29094 -0.01246 0.0
O11 O 0.13026 0.30109 0.06126 0.0
O12 O 0.08761 0.35328 0.13472 0.0
O13 O 0.09244 0.4174 0.97621 0.0
O14 O 0.94476 0.3766 0.11939 0.0
O15 O 0.94337 0.41498 0.01858 0.0
C16 C 0.32104 0.35769 0.00919 0.0
C17 C 0.75931 0.34278 0.00465 0.0
C18 C 0.1082 0.28435 0.02593 0.0
C19 C 0.02449 0.35176 0.86942 0.0
C20 C 0.01066 0.36684 0.15057 0.0
C21 C 0.01216 0.42854 -0.00481 0.0
O22 O 0.27334 0.34983 0.0493 0.0
O23 O 0.68951 0.60342 0.97585 0.0
Zn24 Zn 0.84265 0.59467 0.96801 0.0
O25 O 0.92307 0.61628 0.01628 0.0
Zn26 Zn -0.00882 0.646 0.97987 0.0
Zn27 Zn 0.8322 0.63013 0.06892 0.0
Zn28 Zn 0.02295 0.59399 0.05082 0.0
O29 O 0.14758 0.64563 -0.00686 0.0
O30 O 0.1623 0.60652 0.03477 0.0
O31 O 0.88626 0.6032 0.89514 0.0
O32 O 0.97908 0.64057 0.90376 0.0
O33 O 0.91754 0.68136 -0.00394 0.0
O34 O 0.82279 0.66997 0.06418 0.0
O35 O 0.87194 0.61984 0.14088 0.0
O36 O 0.87238 0.55471 0.9782 0.0
O37 O 0.01215 0.59518 0.12798 0.0
O38 O 0.01318 0.55608 0.02728 0.0
C39 C 0.64065 0.61205 0.0152 0.0
C40 C 0.2023 0.62705 0.01365 0.0
C41 C 0.8537 0.68738 0.03173 0.0
C42 C 0.93867 0.62242 0.87578 0.0
C43 C 0.94728 0.60611 0.15812 0.0
C44 C 0.94856 0.54307 0.00018 0.0
O45 O 0.68762 0.61939 0.05579 0.0
O46 O 0.27259 0.60906 0.55661 0.0
Zn47 Zn 0.11992 0.59944 0.56406 0.0
O48 O 0.03752 0.62178 0.51783 0.0
Zn49 Zn 0.97315 0.65126 0.55587 0.0
Zn50 Zn 0.12571 0.63604 0.46422 0.0
Zn51 Zn 0.93403 0.60005 0.48521 0.0
O52 O 0.81638 0.65244 0.54288 0.0
O53 O 0.79564 0.61351 0.50164 0.0
O54 O 0.07606 0.60633 0.63735 0.0
O55 O -0.0146 0.64426 0.6317 0.0
O56 O 0.05125 0.68607 0.54037 0.0
O57 O 0.12898 0.6761 0.46638 0.0
O58 O 0.0875 0.62378 0.39303 0.0
O59 O 0.09157 0.5596 0.55139 0.0
O60 O 0.94495 0.60033 0.40817 0.0
O61 O 0.94227 0.56215 0.5092 0.0
C62 C 0.32056 0.61943 0.51842 0.0
C63 C 0.75878 0.63438 0.52279 0.0
C64 C 0.1074 0.69274 0.50194 0.0
C65 C 0.02464 0.62525 0.65821 0.0
C66 C 0.01097 0.61008 0.37709 0.0
C67 C 0.01099 0.54854 0.53255 0.0
O68 O 0.27266 0.62749 0.4785 0.0
O69 O 0.68718 0.37375 0.55183 0.0
Zn70 Zn 0.84032 0.38246 0.55976 0.0
O71 O 0.92057 0.36085 0.51141 0.0
Zn72 Zn -0.0109 0.33117 0.54782 0.0
Zn73 Zn 0.82954 0.34694 0.45883 0.0
Zn74 Zn 0.02011 0.38314 0.47672 0.0
O75 O 0.14546 0.33158 0.5344 0.0
O76 O 0.15956 0.37069 0.49274 0.0
O77 O 0.88405 0.37391 0.63265 0.0
O78 O 0.97737 0.33662 0.62392 0.0
O79 O 0.91553 0.29577 0.53187 0.0
O80 O 0.81949 0.30711 0.46413 0.0
O81 O 0.86968 0.35693 0.38672 0.0
O82 O 0.87009 0.42244 0.54962 0.0
O83 O 0.00927 0.38182 0.39959 0.0
O84 O 0.01028 0.42105 0.50015 0.0
C85 C 0.63824 0.36524 0.51239 0.0
C86 C 0.1999 0.35019 0.51384 0.0
C87 C 0.85098 0.28973 0.49653 0.0
C88 C 0.9368 0.35472 0.65196 0.0
C89 C 0.94485 0.3707 0.36946 0.0
C90 C 0.94601 0.43407 0.52743 0.0
O91 O 0.68512 0.35793 0.47176 0.0
O92 O 0.78192 0.86915 0.97608 0.0
Zn93 Zn 0.62926 0.87848 0.9682 0.0
O94 O 0.54728 0.85644 0.01517 0.0
Zn95 Zn 0.48106 0.82702 0.97755 0.0
Zn96 Zn 0.63597 0.84208 0.06855 0.0
Zn97 Zn 0.44546 0.8785 0.04838 0.0
O98 O 0.32464 0.82649 -0.00921 0.0
O99 O 0.30658 0.86526 0.03283 0.0
O100 O 0.58577 0.87108 0.89503 0.0
O101 O 0.49313 0.83354 0.90161 0.0
O102 O 0.55645 0.79187 -0.00667 0.0
O103 O 0.64054 0.80205 0.06548 0.0
O104 O 0.59752 0.85372 0.14004 0.0
O105 O 0.60052 0.91838 0.97954 0.0
O106 O 0.45731 0.8782 0.1254 0.0
O107 O 0.45365 0.91632 0.02382 0.0
C108 C 0.82999 0.85924 0.01469 0.0
C109 C 0.26835 0.8446 0.01157 0.0
C110 C 0.61488 0.78523 0.03093 0.0
C111 C 0.53341 0.8522 0.87463 0.0
C112 C 0.5223 0.8678 0.15628 0.0
C113 C 0.52112 0.92967 -0.00092 0.0
O114 O 0.78226 0.85126 0.05469 0.0
O115 O 0.19647 0.10462 0.97267 0.0
Zn116 Zn 0.34959 0.09554 0.96516 0.0
O117 O 0.43023 0.11739 0.01288 0.0
Zn118 Zn 0.49688 0.1472 0.97615 0.0
Zn119 Zn 0.33954 0.13107 0.06578 0.0
Zn120 Zn 0.53159 0.0954 0.04688 0.0
O121 O 0.6536 0.14742 -0.01063 0.0
O122 O 0.67046 0.10812 0.03016 0.0
O123 O 0.39388 0.10362 0.8922 0.0
O124 O 0.48516 0.14131 0.90015 0.0
O125 O 0.42059 0.18228 -0.00816 0.0
O126 O 0.32939 0.17091 0.06119 0.0
O127 O 0.38003 0.12057 0.13762 0.0
O128 O 0.37887 0.05558 0.97646 0.0
O129 O 0.52173 0.09658 0.12401 0.0
O130 O 0.52193 0.05745 0.02384 0.0
C131 C 0.14756 0.11334 0.01195 0.0
C132 C 0.70938 0.12886 0.00927 0.0
C133 C 0.35767 0.18824 0.02797 0.0
C134 C 0.44573 0.12287 0.87252 0.0
C135 C 0.45647 0.10711 0.15446 0.0
C136 C 0.45625 0.04418 -0.00212 0.0
O137 O 0.19461 0.12045 0.05269 0.0
O138 O 0.78156 0.10765 0.55367 0.0
Zn139 Zn 0.62894 0.09831 0.56149 0.0
O140 O 0.54689 0.12037 0.51454 0.0
Zn141 Zn 0.48069 0.1498 0.55215 0.0
Zn142 Zn 0.6355 0.13472 0.46117 0.0
Zn143 Zn 0.44507 0.0983 0.48135 0.0
O144 O 0.32423 0.15029 0.53901 0.0
O145 O 0.30618 0.11149 0.49702 0.0
O146 O 0.58539 0.10569 0.63465 0.0
O147 O 0.49303 0.14329 0.6281 0.0
O148 O 0.55566 0.18499 0.53622 0.0
O149 O 0.6397 0.17476 0.46411 0.0
O150 O 0.59702 0.12305 0.3897 0.0
O151 O 0.6004 0.05841 0.5501 0.0
O152 O 0.45659 0.09868 0.40433 0.0
O153 O 0.45353 0.06046 0.50577 0.0
C154 C 0.82959 0.11758 0.51509 0.0
C155 C 0.26794 0.13216 0.51829 0.0
C156 C 0.61387 0.19162 0.49855 0.0
C157 C 0.53318 0.12459 0.65506 0.0
C158 C 0.52163 0.10904 0.37345 0.0
C159 C 0.52108 0.0471 0.53051 0.0
O160 O 0.78183 0.12559 0.4751 0.0
O161 O 0.19709 0.87211 0.55695 0.0
Zn162 Zn 0.35021 0.88123 0.56442 0.0
O163 O 0.43092 0.85937 0.51676 0.0
Zn164 Zn 0.49718 0.82949 0.55349 0.0
Zn165 Zn 0.34027 0.8458 0.46373 0.0
Zn166 Zn 0.53262 0.88132 0.48297 0.0
O167 O 0.65396 0.82917 0.54042 0.0
O168 O 0.67142 0.86855 0.49996 0.0
O169 O 0.39461 0.87315 0.63738 0.0
O170 O 0.4853 0.83535 0.62951 0.0
O171 O 0.42066 0.79447 0.53752 0.0
O172 O 0.33058 0.80595 0.46784 0.0
O173 O 0.38061 0.85651 0.39202 0.0
O174 O 0.3794 0.92118 0.55307 0.0
O175 O 0.52306 0.88016 0.4058 0.0
O176 O 0.52279 0.91928 0.50598 0.0
C177 C 0.14813 0.86332 0.51774 0.0
C178 C 0.71002 0.84775 0.52079 0.0
C179 C 0.35829 0.78858 0.5011 0.0
C180 C 0.44616 0.85385 0.65711 0.0
C181 C 0.45745 0.86983 0.37527 0.0
C182 C 0.4569 0.93257 0.53178 0.0
O183 O 0.19514 0.85623 0.47699 0.0
C184 C 0.48642 0.35195 0.95925 0.0
C185 C 0.43353 0.35254 0.0066 0.0
H186 H 0.63283 0.34705 0.92128 0.0
C187 C 0.48799 0.34638 0.05204 0.0
H188 H 0.44631 0.35621 0.92352 0.0
C189 C 0.5934 0.34088 0.05054 0.0
C190 C 0.6465 0.34087 0.00355 0.0
H191 H 0.44975 0.34648 0.08916 0.0
H192 H 0.63454 0.33772 0.08643 0.0
C193 C 0.59231 0.34608 0.95776 0.0
C194 C 0.36749 0.6235 0.05974 0.0
C195 C 0.31528 0.62795 0.01321 0.0
H196 H 0.51058 0.61457 0.09664 0.0
C197 C 0.37014 0.62704 0.96662 0.0
H198 H 0.32592 0.62347 0.09599 0.0
C199 C 0.476 0.62109 0.96672 0.0
C200 C 0.52794 0.61628 0.01349 0.0
H201 H 0.33035 0.62964 0.93022 0.0
H202 H 0.51712 0.62036 0.93042 0.0
C203 C 0.47273 0.61798 0.05995 0.0
C204 C 0.59267 0.63637 0.47702 0.0
C205 C 0.64596 0.63628 0.52397 0.0
H206 H 0.44888 0.63085 0.43846 0.0
C207 C 0.59198 0.63095 0.56976 0.0
H208 H 0.63364 0.63963 0.44113 0.0
C209 C 0.48611 0.62506 0.5683 0.0
C210 C 0.43304 0.62458 0.52098 0.0
H211 H 0.63267 0.6299 0.60619 0.0
H212 H 0.44617 0.62071 0.60401 0.0
C213 C 0.48728 0.63086 0.47555 0.0
C214 C 0.47379 0.3559 0.56075 0.0
C215 C 0.52552 0.36106 0.51408 0.0
H216 H 0.32834 0.34705 0.59713 0.0
C217 C 0.47014 0.35971 0.46762 0.0
H218 H 0.51508 0.35635 0.59704 0.0
C219 C 0.36492 0.35418 0.46776 0.0
C220 C 0.3129 0.34937 0.51421 0.0
H221 H 0.50785 0.3634 0.43101 0.0
H222 H 0.32322 0.35447 0.43153 0.0
C223 C 0.36796 0.34993 0.56077 0.0
C224 C -0.00261 0.85044 0.05876 0.0
C225 C 0.94257 0.85452 0.01263 0.0
H226 H 0.14421 0.84338 0.09406 0.0
C227 C -0.005 0.85204 0.9654 0.0
H228 H 0.95929 0.85203 0.09579 0.0
C229 C 0.10092 0.8462 0.96457 0.0
C230 C 0.15549 0.84304 0.01092 0.0
H231 H 0.95436 0.85465 0.92925 0.0
H232 H 0.14109 0.84556 0.92798 0.0
C233 C 0.10281 0.84504 0.05788 0.0
C234 C 0.9799 0.12121 0.05619 0.0
C235 C 0.03491 0.11801 0.00992 0.0
H236 H 0.83331 0.12796 0.09174 0.0
C237 C 0.98278 0.1216 0.96281 0.0
H238 H 0.0177 0.11877 0.09316 0.0
C239 C 0.87701 0.1277 0.96221 0.0
C240 C 0.82235 0.13007 0.00867 0.0
H241 H 0.02355 0.11969 0.92657 0.0
H242 H 0.83703 0.12921 0.92564 0.0
C243 C 0.87476 0.12693 0.05551 0.0
C244 C 0.10056 0.13054 0.56527 0.0
C245 C 0.15509 0.13372 0.51894 0.0
H246 H 0.95403 0.1221 0.60056 0.0
C247 C 0.10238 0.13176 0.47197 0.0
H248 H 0.14077 0.13115 0.60187 0.0
C249 C -0.00305 0.12638 0.47107 0.0
C250 C 0.94216 0.12228 0.51718 0.0
H251 H 0.14375 0.13343 0.4358 0.0
H252 H 0.95882 0.12481 0.43403 0.0
C253 C -0.00537 0.12473 0.56442 0.0
C254 C 0.87548 0.84892 0.47461 0.0
C255 C 0.82297 0.84642 0.52153 0.0
H256 H 0.01844 0.85662 0.4367 0.0
C257 C 0.8775 0.84946 0.5679 0.0
H258 H 0.8341 0.84741 0.43841 0.0
C259 C 0.98325 0.85557 0.56711 0.0
C260 C 0.03551 0.85853 0.51989 0.0
H261 H 0.83742 0.84847 0.60449 0.0
H262 H 0.02387 0.85801 0.60328 0.0
C263 C 0.98061 0.85467 0.47375 0.0
C264 C 0.88055 0.49634 -0.01076 0.0
C265 C 0.96464 0.51388 -0.00582 0.0
H266 H 0.83025 0.45531 -0.01371 0.0
C267 C 0.06535 0.50324 -0.00439 0.0
H268 H 0.80233 0.50404 -0.012 0.0
C269 C 0.08159 0.47546 -0.00653 0.0
C270 C -0.0028 0.45787 -0.00879 0.0
H271 H 0.13166 0.51642 -0.00111 0.0
H272 H 0.15968 0.46772 -0.00429 0.0
C273 C 0.89665 0.46853 -0.01155 0.0
C274 C 0.06323 0.47379 0.53199 0.0
C275 C 0.9624 0.46325 0.5335 0.0
H276 H 0.158 0.50921 0.53185 0.0
C277 C 0.87856 0.48086 0.53859 0.0
H278 H 0.12936 0.46055 0.5286 0.0
C279 C 0.89501 0.50866 0.53943 0.0
C280 C -0.00432 0.51923 0.53657 0.0
H281 H 0.80026 0.47323 0.5399 0.0
H282 H 0.82878 0.52194 0.54168 0.0
C283 C 0.07983 0.50156 0.53418 0.0
C284 C 0.40446 0.96945 -0.00793 0.0
C285 C 0.50533 0.95892 -0.00634 0.0
H286 H 0.30965 0.00489 -0.0091 0.0
C287 C 0.58955 0.9766 -0.00711 0.0
H288 H 0.33813 0.95616 -0.00783 0.0
C289 C 0.57306 0.00439 -0.00675 0.0
C290 C 0.47216 0.01493 -0.00695 0.0
H291 H 0.66789 0.96898 -0.00589 0.0
H292 H 0.63937 0.01768 -0.0057 0.0
C293 C 0.38801 -0.00275 -0.00892 0.0
C294 C 0.58979 0.00019 0.53678 0.0
C295 C 0.50546 0.01785 0.53588 0.0
H296 H 0.63986 0.95912 0.5355 0.0
C297 C 0.40465 0.00729 0.53737 0.0
H298 H 0.66808 0.00784 0.53565 0.0
C299 C 0.38838 0.97948 0.53838 0.0
C300 C 0.47264 0.96183 0.53656 0.0
H301 H 0.33824 0.02056 0.53717 0.0
H302 H 0.31006 0.97183 0.53848 0.0
C303 C 0.57347 0.97239 0.53644 0.0
C304 C 0.19678 0.24704 0.0729 0.0
C305 C 0.16538 0.25861 0.02598 0.0
H306 H 0.28361 0.2159 0.11024 0.0
C307 C 0.20281 0.24774 0.97964 0.0
H308 H 0.17042 0.25527 0.10922 0.0
C309 C 0.27096 0.22582 0.9803 0.0
C310 C 0.3012 0.21408 0.02728 0.0
H311 H 0.18184 0.25666 0.94296 0.0
H312 H 0.29739 0.21755 0.94403 0.0
C313 C 0.26285 0.22482 0.07351 0.0
C314 C 0.7048 0.74802 0.98425 0.0
C315 C 0.66944 0.75913 0.03078 0.0
H316 H 0.79538 0.71716 0.9482 0.0
C317 C 0.70023 0.7473 0.07755 0.0
H318 H 0.68421 0.75713 0.94769 0.0
C319 C 0.76355 0.72454 0.07783 0.0
C320 C 0.79992 0.71358 0.0314 0.0
H321 H 0.67538 0.75572 0.11398 0.0
H322 H 0.78386 0.71541 0.11443 0.0
C323 C 0.77041 0.7256 0.98458 0.0
C324 C 0.20225 0.72916 0.54868 0.0
C325 C 0.16499 0.71842 0.50217 0.0
H326 H 0.297 0.75916 0.58471 0.0
C327 C 0.19697 0.73003 0.45541 0.0
H328 H 0.18084 0.7202 0.58525 0.0
C329 C 0.26342 0.75217 0.4551 0.0
C330 C 0.30156 0.76278 0.5015 0.0
H331 H 0.17076 0.72191 0.41897 0.0
H332 H 0.28462 0.76112 0.41848 0.0
C333 C 0.27075 0.75099 0.54832 0.0
C334 C 0.76035 0.25248 0.4509 0.0
C335 C 0.79737 0.26351 0.49715 0.0
H336 H 0.67219 0.22116 0.41519 0.0
C337 C 0.76892 0.25149 0.54412 0.0
H338 H 0.77984 0.26161 0.41419 0.0
C339 C 0.70377 0.22898 0.54477 0.0
C340 C 0.66784 0.21779 0.49842 0.0
H341 H 0.79442 0.25997 0.58037 0.0
H342 H 0.68403 0.21987 0.58144 0.0
C343 C 0.69751 0.22963 0.4515 0.0
C344 C 0.89346 0.37091 0.22629 0.0
C345 C -0.00579 0.37005 0.20635 0.0
H346 H 0.79887 0.37136 0.29403 0.0
C347 C 0.07849 0.37102 0.24029 0.0
H348 H 0.82716 0.37006 0.20088 0.0
C349 C 0.06225 0.37248 0.29341 0.0
C350 C 0.9615 0.37218 0.31343 0.0
H351 H 0.15687 0.37048 0.22576 0.0
H352 H 0.1285 0.37278 0.3189 0.0
C353 C 0.87724 0.37156 0.27946 0.0
C354 C 0.06409 0.60442 0.23442 0.0
C355 C 0.96353 0.60452 0.21416 0.0
H356 H 0.15801 0.60665 0.30231 0.0
C357 C 0.87894 0.60492 0.24791 0.0
H358 H 0.13057 0.60429 0.20909 0.0
C359 C 0.89463 0.60562 0.30111 0.0
C360 C -0.00485 0.60674 0.3213 0.0
H361 H 0.8007 0.60496 0.23314 0.0
H362 H 0.82807 0.60633 0.32634 0.0
C363 C 0.07979 0.60592 0.28758 0.0
C364 C 0.97094 0.64786 0.79439 0.0
C365 C 0.95794 0.62311 0.8199 0.0
H366 H 0.00112 0.6679 0.72276 0.0
C367 C 0.96853 0.59905 0.79207 0.0
H368 H 0.9633 0.66668 0.81508 0.0
C369 C -0.0068 0.59974 0.73968 0.0
C370 C 0.00487 0.62451 0.71405 0.0
H371 H 0.95986 0.57972 0.81103 0.0
H372 H 0.00114 0.58092 0.71901 0.0
C373 C -0.00729 0.64856 0.74173 0.0
C374 C 0.96692 0.37804 0.73571 0.0
C375 C 0.95633 0.354 0.70783 0.0
H376 H 2e-05 0.39613 0.80877 0.0
C377 C 0.96974 0.32924 0.73326 0.0
H378 H 0.95795 0.39739 0.71682 0.0
C379 C -0.00804 0.32851 0.78588 0.0
C380 C 0.0042 0.35254 0.81361 0.0
H381 H 0.96211 0.31043 0.71252 0.0
H382 H 0.00071 0.30916 0.80478 0.0
C383 C -0.00794 0.37732 0.78806 0.0
C384 C 0.40582 0.87211 0.2322 0.0
C385 C 0.50638 0.87069 0.21215 0.0
H386 H 0.31148 0.87251 0.30002 0.0
C387 C 0.59082 0.87062 0.24605 0.0
H388 H 0.3394 0.87206 0.20682 0.0
C389 C 0.57487 0.87157 0.29924 0.0
C390 C 0.47418 0.8718 0.31931 0.0
H391 H 0.66907 0.86962 0.23145 0.0
H392 H 0.64118 0.87106 0.32468 0.0
C393 C 0.38981 0.87226 0.28539 0.0
C394 C 0.38884 0.10488 0.24434 0.0
C395 C 0.47318 0.10517 0.21043 0.0
H396 H 0.33854 0.10518 0.32292 0.0
C397 C 0.5739 0.10519 0.2305 0.0
H398 H 0.31049 0.10479 0.22971 0.0
C399 C 0.58994 0.10611 0.28369 0.0
C400 C 0.50554 0.1062 0.31759 0.0
H401 H 0.64019 0.10557 0.20506 0.0
H402 H 0.66823 0.10694 0.2983 0.0
C403 C 0.40492 0.10499 0.29753 0.0
C404 C 0.47772 0.14789 0.79063 0.0
C405 C 0.46554 0.12326 0.81667 0.0
H406 H 0.50761 0.16757 0.7186 0.0
C407 C 0.47748 0.09906 0.78943 0.0
H408 H 0.46907 0.16681 0.81087 0.0
C409 C 0.50258 0.0995 0.73708 0.0
C410 C 0.51334 0.12413 0.7109 0.0
H411 H 0.4695 0.07982 0.80882 0.0
H412 H 0.5115 0.08057 0.71686 0.0
C413 C 0.49992 0.14832 0.73801 0.0
C414 C 0.47787 0.82885 0.73908 0.0
C415 C 0.46597 0.85347 0.71297 0.0
H416 H 0.50746 0.8092 0.81118 0.0
C417 C 0.47813 0.87768 0.74016 0.0
H418 H 0.46904 0.80992 0.71889 0.0
C419 C 0.50316 0.87726 0.79252 0.0
C420 C 0.51362 0.85264 0.81877 0.0
H421 H 0.47037 0.89691 0.72071 0.0
H422 H 0.51224 0.89619 0.8127 0.0
C423 C 0.49999 0.82844 0.79172 0.0
loop_
_geom_bond_atom_site_label_1
_geom_bond_atom_site_label_2
_geom_bond_distance
_geom_bond_site_symmetry_2
_ccdc_geom_bond_type
O0 Zn1 1.953 . S
O0 C16 1.225 1_556 S
Zn1 O0 1.953 . S
Zn1 O2 1.949 1_556 S
Zn1 O8 1.919 . S
Zn1 O13 1.924 . S
O2 Zn1 1.949 1_554 S
O2 Zn3 1.923 1_454 S
O2 Zn4 1.950 . S
O2 Zn5 1.945 1_455 S
Zn3 O2 1.923 1_656 S
Zn3 O6 1.933 1_556 S
Zn3 O9 1.941 1_655 S
Zn3 O10 1.965 1_656 S
Zn4 O2 1.950 . S
Zn4 O11 1.938 . S
Zn4 O12 1.906 . S
Zn4 O22 1.953 . S
Zn5 O2 1.945 1_655 S
Zn5 O7 1.932 . S
Zn5 O14 1.977 . S
Zn5 O15 1.910 . S
O6 Zn3 1.933 1_554 S
O6 C17 1.226 . S
O7 Zn5 1.932 . S
O7 C17 1.307 . S
O8 Zn1 1.919 . S
O8 C19 1.253 . S
O9 Zn3 1.941 1_455 S
O9 C19 1.283 . S
O10 Zn3 1.965 1_454 S
O10 C18 1.303 . S
O11 Zn4 1.938 . S
O11 C18 1.247 . S
O12 Zn4 1.906 . S
O12 C20 1.304 . S
O13 Zn1 1.924 . S
O13 C21 1.311 1_556 S
O14 Zn5 1.977 . S
O14 C20 1.272 1_655 S
O15 Zn5 1.910 . S
O15 C21 1.231 1_655 S
C16 O0 1.225 1_554 S
C16 O22 1.298 . S
C17 O6 1.226 . S
C17 O7 1.307 . S
C18 O10 1.303 . S
C18 O11 1.247 . S
C19 O8 1.253 . S
C19 O9 1.283 . S
C20 O12 1.304 . S
C20 O14 1.272 1_455 S
C21 O13 1.311 1_554 S
C21 O15 1.231 1_455 S
O22 Zn4 1.953 . S
O22 C16 1.298 . S
O23 Zn24 1.953 . S
O23 C39 1.225 1_556 S
Zn24 O23 1.953 . S
Zn24 O25 1.949 1_556 S
Zn24 O31 1.919 . S
Zn24 O36 1.924 . S
O25 Zn24 1.949 1_554 S
O25 Zn26 1.923 1_654 S
O25 Zn27 1.950 . S
O25 Zn28 1.945 1_655 S
Zn26 O25 1.923 1_456 S
Zn26 O29 1.933 1_556 S
Zn26 O32 1.941 1_455 S
Zn26 O33 1.965 1_456 S
Zn27 O25 1.950 . S
Zn27 O34 1.938 . S
Zn27 O35 1.906 . S
Zn27 O45 1.953 . S
Zn28 O25 1.945 1_455 S
Zn28 O30 1.932 . S
Zn28 O37 1.977 . S
Zn28 O38 1.910 . S
O29 Zn26 1.933 1_554 S
O29 C40 1.226 . S
O30 Zn28 1.932 . S
O30 C40 1.307 . S
O31 Zn24 1.919 . S
O31 C42 1.253 . S
O32 Zn26 1.941 1_655 S
O32 C42 1.283 . S
O33 Zn26 1.965 1_654 S
O33 C41 1.303 . S
O34 Zn27 1.938 . S
O34 C41 1.247 . S
O35 Zn27 1.906 . S
O35 C43 1.304 . S
O36 Zn24 1.924 . S
O36 C44 1.311 1_556 S
O37 Zn28 1.977 . S
O37 C43 1.272 1_455 S
O38 Zn28 1.910 . S
O38 C44 1.231 1_455 S
C39 O23 1.225 1_554 S
C39 O45 1.298 . S
C40 O29 1.226 . S
C40 O30 1.307 . S
C41 O33 1.303 . S
C41 O34 1.247 . S
C42 O31 1.253 . S
C42 O32 1.283 . S
C43 O35 1.304 . S
C43 O37 1.272 1_655 S
C44 O36 1.311 1_554 S
C44 O38 1.231 1_655 S
O45 Zn27 1.953 . S
O45 C39 1.298 . S
O46 Zn47 1.953 . S
O46 C62 1.225 . S
Zn47 O46 1.953 . S
Zn47 O48 1.949 . S
Zn47 O54 1.919 . S
Zn47 O59 1.924 . S
O48 Zn47 1.949 . S
O48 Zn49 1.923 1_455 S
O48 Zn50 1.950 . S
O48 Zn51 1.945 1_455 S
Zn49 O48 1.923 1_655 S
Zn49 O52 1.933 . S
Zn49 O55 1.941 1_655 S
Zn49 O56 1.965 1_655 S
Zn50 O48 1.950 . S
Zn50 O57 1.938 . S
Zn50 O58 1.906 . S
Zn50 O68 1.953 . S
Zn51 O48 1.945 1_655 S
Zn51 O53 1.932 . S
Zn51 O60 1.977 . S
Zn51 O61 1.910 . S
O52 Zn49 1.933 . S
O52 C63 1.226 . S
O53 Zn51 1.932 . S
O53 C63 1.307 . S
O54 Zn47 1.919 . S
O54 C65 1.253 . S
O55 Zn49 1.941 1_455 S
O55 C65 1.283 . S
O56 Zn49 1.965 1_455 S
O56 C64 1.303 . S
O57 Zn50 1.938 . S
O57 C64 1.247 . S
O58 Zn50 1.906 . S
O58 C66 1.304 . S
O59 Zn47 1.924 . S
O59 C67 1.311 . S
O60 Zn51 1.977 . S
O60 C66 1.272 1_655 S
O61 Zn51 1.910 . S
O61 C67 1.231 1_655 S
C62 O46 1.225 . S
C62 O68 1.298 . S
C63 O52 1.226 . S
C63 O53 1.307 . S
C64 O56 1.303 . S
C64 O57 1.247 . S
C65 O54 1.253 . S
C65 O55 1.283 . S
C66 O58 1.304 . S
C66 O60 1.272 1_455 S
C67 O59 1.311 . S
C67 O61 1.231 1_455 S
O68 Zn50 1.953 . S
O68 C62 1.298 . S
O69 Zn70 1.953 . S
O69 C85 1.225 . S
Zn70 O69 1.953 . S
Zn70 O71 1.949 . S
Zn70 O77 1.919 . S
Zn70 O82 1.924 . S
O71 Zn70 1.949 . S
O71 Zn72 1.923 1_655 S
O71 Zn73 1.950 . S
O71 Zn74 1.945 1_655 S
Zn72 O71 1.923 1_455 S
Zn72 O75 1.933 . S
Zn72 O78 1.941 1_455 S
Zn72 O79 1.965 1_455 S
Zn73 O71 1.950 . S
Zn73 O80 1.938 . S
Zn73 O81 1.906 . S
Zn73 O91 1.953 . S
Zn74 O71 1.945 1_455 S
Zn74 O76 1.932 . S
Zn74 O83 1.977 . S
Zn74 O84 1.910 . S
O75 Zn72 1.933 . S
O75 C86 1.226 . S
O76 Zn74 1.932 . S
O76 C86 1.307 . S
O77 Zn70 1.919 . S
O77 C88 1.253 . S
O78 Zn72 1.941 1_655 S
O78 C88 1.283 . S
O79 Zn72 1.965 1_655 S
O79 C87 1.303 . S
O80 Zn73 1.938 . S
O80 C87 1.247 . S
O81 Zn73 1.906 . S
O81 C89 1.304 . S
O82 Zn70 1.924 . S
O82 C90 1.311 . S
O83 Zn74 1.977 . S
O83 C89 1.272 1_455 S
O84 Zn74 1.910 . S
O84 C90 1.231 1_455 S
C85 O69 1.225 . S
C85 O91 1.298 . S
C86 O75 1.226 . S
C86 O76 1.307 . S
C87 O79 1.303 . S
C87 O80 1.247 . S
C88 O77 1.253 . S
C88 O78 1.283 . S
C89 O81 1.304 . S
C89 O83 1.272 1_655 S
C90 O82 1.311 . S
C90 O84 1.231 1_655 S
O91 Zn73 1.953 . S
O91 C85 1.298 . S
O92 Zn93 1.953 . S
O92 C108 1.225 1_556 S
Zn93 O92 1.953 . S
Zn93 O94 1.949 1_556 S
Zn93 O100 1.919 . S
Zn93 O105 1.924 . S
O94 Zn93 1.949 1_554 S
O94 Zn95 1.923 1_554 S
O94 Zn96 1.950 . S
O94 Zn97 1.945 . S
Zn95 O94 1.923 1_556 S
Zn95 O98 1.933 1_556 S
Zn95 O101 1.941 . S
Zn95 O102 1.965 1_556 S
Zn96 O94 1.950 . S
Zn96 O103 1.938 . S
Zn96 O104 1.906 . S
Zn96 O114 1.953 . S
Zn97 O94 1.945 . S
Zn97 O99 1.932 . S
Zn97 O106 1.977 . S
Zn97 O107 1.910 . S
O98 Zn95 1.933 1_554 S
O98 C109 1.226 . S
O99 Zn97 1.932 . S
O99 C109 1.307 . S
O100 Zn93 1.919 . S
O100 C111 1.253 . S
O101 Zn95 1.941 . S
O101 C111 1.283 . S
O102 Zn95 1.965 1_554 S
O102 C110 1.303 . S
O103 Zn96 1.938 . S
O103 C110 1.247 . S
O104 Zn96 1.906 . S
O104 C112 1.304 . S
O105 Zn93 1.924 . S
O105 C113 1.311 1_556 S
O106 Zn97 1.977 . S
O106 C112 1.272 . S
O107 Zn97 1.910 . S
O107 C113 1.231 . S
C108 O92 1.225 1_554 S
C108 O114 1.298 . S
C109 O98 1.226 . S
C109 O99 1.307 . S
C110 O102 1.303 . S
C110 O103 1.247 . S
C111 O100 1.253 . S
C111 O101 1.283 . S
C112 O104 1.304 . S
C112 O106 1.272 . S
C113 O105 1.311 1_554 S
C113 O107 1.231 . S
O114 Zn96 1.953 . S
O114 C108 1.298 . S
O115 Zn116 1.953 . S
O115 C131 1.225 1_556 S
Zn116 O115 1.953 . S
Zn116 O117 1.949 1_556 S
Zn116 O123 1.919 . S
Zn116 O128 1.924 . S
O117 Zn116 1.949 1_554 S
O117 Zn118 1.923 1_554 S
O117 Zn119 1.950 . S
O117 Zn120 1.945 . S
Zn118 O117 1.923 1_556 S
Zn118 O121 1.933 1_556 S
Zn118 O124 1.941 . S
Zn118 O125 1.965 1_556 S
Zn119 O117 1.950 . S
Zn119 O126 1.938 . S
Zn119 O127 1.906 . S
Zn119 O137 1.953 . S
Zn120 O117 1.945 . S
Zn120 O122 1.932 . S
Zn120 O129 1.977 . S
Zn120 O130 1.910 . S
O121 Zn118 1.933 1_554 S
O121 C132 1.226 . S
O122 Zn120 1.932 . S
O122 C132 1.307 . S
O123 Zn116 1.919 . S
O123 C134 1.253 . S
O124 Zn118 1.941 . S
O124 C134 1.283 . S
O125 Zn118 1.965 1_554 S
O125 C133 1.303 . S
O126 Zn119 1.938 . S
O126 C133 1.247 . S
O127 Zn119 1.906 . S
O127 C135 1.304 . S
O128 Zn116 1.924 . S
O128 C136 1.311 1_556 S
O129 Zn120 1.977 . S
O129 C135 1.272 . S
O130 Zn120 1.910 . S
O130 C136 1.231 . S
C131 O115 1.225 1_554 S
C131 O137 1.298 . S
C132 O121 1.226 . S
C132 O122 1.307 . S
C133 O125 1.303 . S
C133 O126 1.247 . S
C134 O123 1.253 . S
C134 O124 1.283 . S
C135 O127 1.304 . S
C135 O129 1.272 . S
C136 O128 1.311 1_554 S
C136 O130 1.231 . S
O137 Zn119 1.953 . S
O137 C131 1.298 . S
O138 Zn139 1.953 . S
O138 C154 1.225 . S
Zn139 O138 1.953 . S
Zn139 O140 1.949 . S
Zn139 O146 1.919 . S
Zn139 O151 1.924 . S
O140 Zn139 1.949 . S
O140 Zn141 1.923 . S
O140 Zn142 1.950 . S
O140 Zn143 1.945 . S
Zn141 O140 1.923 . S
Zn141 O144 1.933 . S
Zn141 O147 1.941 . S
Zn141 O148 1.965 . S
Zn142 O140 1.950 . S
Zn142 O149 1.938 . S
Zn142 O150 1.906 . S
Zn142 O160 1.953 . S
Zn143 O140 1.945 . S
Zn143 O145 1.932 . S
Zn143 O152 1.977 . S
Zn143 O153 1.910 . S
O144 Zn141 1.933 . S
O144 C155 1.226 . S
O145 Zn143 1.932 . S
O145 C155 1.307 . S
O146 Zn139 1.919 . S
O146 C157 1.253 . S
O147 Zn141 1.941 . S
O147 C157 1.283 . S
O148 Zn141 1.965 . S
O148 C156 1.303 . S
O149 Zn142 1.938 . S
O149 C156 1.247 . S
O150 Zn142 1.906 . S
O150 C158 1.304 . S
O151 Zn139 1.924 . S
O151 C159 1.311 . S
O152 Zn143 1.977 . S
O152 C158 1.272 . S
O153 Zn143 1.910 . S
O153 C159 1.231 . S
C154 O138 1.225 . S
C154 O160 1.298 . S
C155 O144 1.226 . S
C155 O145 1.307 . S
C156 O148 1.303 . S
C156 O149 1.247 . S
C157 O146 1.253 . S
C157 O147 1.283 . S
C158 O150 1.304 . S
C158 O152 1.272 . S
C159 O151 1.311 . S
C159 O153 1.231 . S
O160 Zn142 1.953 . S
O160 C154 1.298 . S
O161 Zn162 1.953 . S
O161 C177 1.225 . S
Zn162 O161 1.953 . S
Zn162 O163 1.949 . S
Zn162 O169 1.919 . S
Zn162 O174 1.924 . S
O163 Zn162 1.949 . S
O163 Zn164 1.923 . S
O163 Zn165 1.950 . S
O163 Zn166 1.945 . S
Zn164 O163 1.923 . S
Zn164 O167 1.933 . S
Zn164 O170 1.941 . S
Zn164 O171 1.965 . S
Zn165 O163 1.950 . S
Zn165 O172 1.938 . S
Zn165 O173 1.906 . S
Zn165 O183 1.953 . S
Zn166 O163 1.945 . S
Zn166 O168 1.932 . S
Zn166 O175 1.977 . S
Zn166 O176 1.910 . S
O167 Zn164 1.933 . S
O167 C178 1.226 . S
O168 Zn166 1.932 . S
O168 C178 1.307 . S
O169 Zn162 1.919 . S
O169 C180 1.253 . S
O170 Zn164 1.941 . S
O170 C180 1.283 . S
O171 Zn164 1.965 . S
O171 C179 1.303 . S
O172 Zn165 1.938 . S
O172 C179 1.247 . S
O173 Zn165 1.906 . S
O173 C181 1.304 . S
O174 Zn162 1.924 . S
O174 C182 1.311 . S
O175 Zn166 1.977 . S
O175 C181 1.272 . S
O176 Zn166 1.910 . S
O176 C182 1.231 . S
C177 O161 1.225 . S
C177 O183 1.298 . S
C178 O167 1.226 . S
C178 O168 1.307 . S
C179 O171 1.303 . S
C179 O172 1.247 . S
C180 O169 1.253 . S
C180 O170 1.283 . S
C181 O173 1.304 . S
C181 O175 1.272 . S
C182 O174 1.311 . S
C182 O176 1.231 . S
O183 Zn165 1.953 . S
O183 C177 1.298 . S
C184 C185 1.387 1_556 S
C184 H188 0.950 . S
C184 C193 1.390 . S
C185 C184 1.387 1_554 S
C185 C187 1.387 . S
H186 C193 0.950 . S
C187 C185 1.387 . S
C187 C189 1.390 . S
C187 H191 0.950 . S
H188 C184 0.950 . S
C189 C187 1.390 . S
C189 C190 1.387 . S
C189 H192 0.950 . S
C190 C189 1.387 . S
C190 C193 1.387 1_554 S
H191 C187 0.950 . S
H192 C189 0.950 . S
C193 C184 1.390 . S
C193 H186 0.950 . S
C193 C190 1.387 1_556 S
C194 C195 1.387 . S
C194 H198 0.950 . S
C194 C203 1.390 . S
C195 C194 1.387 . S
C195 C197 1.387 1_554 S
H196 C203 0.950 . S
C197 C195 1.387 1_556 S
C197 C199 1.390 . S
C197 H201 0.950 . S
H198 C194 0.950 . S
C199 C197 1.390 . S
C199 C200 1.387 1_556 S
C199 H202 0.950 . S
C200 C199 1.387 1_554 S
C200 C203 1.387 . S
H201 C197 0.950 . S
H202 C199 0.950 . S
C203 C194 1.390 . S
C203 H196 0.950 . S
C203 C200 1.387 . S
C204 C205 1.387 . S
C204 H208 0.950 . S
C204 C213 1.390 . S
C205 C204 1.387 . S
C205 C207 1.387 . S
H206 C213 0.950 . S
C207 C205 1.387 . S
C207 C209 1.390 . S
C207 H211 0.950 . S
H208 C204 0.950 . S
C209 C207 1.390 . S
C209 C210 1.387 . S
C209 H212 0.950 . S
C210 C209 1.387 . S
C210 C213 1.387 . S
H211 C207 0.950 . S
H212 C209 0.950 . S
C213 C204 1.390 . S
C213 H206 0.950 . S
C213 C210 1.387 . S
C214 C215 1.387 . S
C214 H218 0.950 . S
C214 C223 1.390 . S
C215 C214 1.387 . S
C215 C217 1.387 . S
H216 C223 0.950 . S
C217 C215 1.387 . S
C217 C219 1.390 . S
C217 H221 0.950 . S
H218 C214 0.950 . S
C219 C217 1.390 . S
C219 C220 1.387 . S
C219 H222 0.950 . S
C220 C219 1.387 . S
C220 C223 1.387 . S
H221 C217 0.950 . S
H222 C219 0.950 . S
C223 C214 1.390 . S
C223 H216 0.950 . S
C223 C220 1.387 . S
C224 C225 1.387 1_455 S
C224 H228 0.950 1_455 S
C224 C233 1.390 . S
C225 C224 1.387 1_655 S
C225 C227 1.387 1_654 S
H226 C233 0.950 . S
C227 C225 1.387 1_456 S
C227 C229 1.390 . S
C227 H231 0.950 1_455 S
H228 C224 0.950 1_655 S
C229 C227 1.390 . S
C229 C230 1.387 1_556 S
C229 H232 0.950 . S
C230 C229 1.387 1_554 S
C230 C233 1.387 . S
H231 C227 0.950 1_655 S
H232 C229 0.950 . S
C233 C224 1.390 . S
C233 H226 0.950 . S
C233 C230 1.387 . S
C234 C235 1.387 1_655 S
C234 H238 0.950 1_655 S
C234 C243 1.390 . S
C235 C234 1.387 1_455 S
C235 C237 1.387 1_454 S
H236 C243 0.950 . S
C237 C235 1.387 1_656 S
C237 C239 1.390 . S
C237 H241 0.950 1_655 S
H238 C234 0.950 1_455 S
C239 C237 1.390 . S
C239 C240 1.387 1_556 S
C239 H242 0.950 . S
C240 C239 1.387 1_554 S
C240 C243 1.387 . S
H241 C237 0.950 1_455 S
H242 C239 0.950 . S
C243 C234 1.390 . S
C243 H236 0.950 . S
C243 C240 1.387 . S
C244 C245 1.387 . S
C244 H248 0.950 . S
C244 C253 1.390 . S
C245 C244 1.387 . S
C245 C247 1.387 . S
H246 C253 0.950 1_655 S
C247 C245 1.387 . S
C247 C249 1.390 . S
C247 H251 0.950 . S
H248 C244 0.950 . S
C249 C247 1.390 . S
C249 C250 1.387 1_455 S
C249 H252 0.950 1_455 S
C250 C249 1.387 1_655 S
C250 C253 1.387 1_655 S
H251 C247 0.950 . S
H252 C249 0.950 1_655 S
C253 C244 1.390 . S
C253 H246 0.950 1_455 S
C253 C250 1.387 1_455 S
C254 C255 1.387 . S
C254 H258 0.950 . S
C254 C263 1.390 . S
C255 C254 1.387 . S
C255 C257 1.387 . S
H256 C263 0.950 1_455 S
C257 C255 1.387 . S
C257 C259 1.390 1_655 S
C257 H261 0.950 . S
H258 C254 0.950 . S
C259 C257 1.390 1_455 S
C259 C260 1.387 . S
C259 H262 0.950 . S
C260 C259 1.387 . S
C260 C263 1.387 1_455 S
H261 C257 0.950 . S
H262 C259 0.950 . S
C263 C254 1.390 . S
C263 H256 0.950 1_655 S
C263 C260 1.387 1_655 S
C264 C265 1.387 1_556 S
C264 H268 0.950 . S
C264 C273 1.390 1_655 S
C265 C264 1.387 1_554 S
C265 C267 1.387 . S
H266 C273 0.950 . S
C267 C265 1.387 . S
C267 C269 1.390 1_655 S
C267 H271 0.950 . S
H268 C264 0.950 . S
C269 C267 1.390 1_455 S
C269 C270 1.387 . S
C269 H272 0.950 . S
C270 C269 1.387 . S
C270 C273 1.387 1_554 S
H271 C267 0.950 . S
H272 C269 0.950 . S
C273 C264 1.390 1_455 S
C273 H266 0.950 . S
C273 C270 1.387 1_556 S
C274 C275 1.387 . S
C274 H278 0.950 . S
C274 C283 1.390 1_655 S
C275 C274 1.387 . S
C275 C277 1.387 . S
H276 C283 0.950 . S
C277 C275 1.387 . S
C277 C279 1.390 1_655 S
C277 H281 0.950 . S
H278 C274 0.950 . S
C279 C277 1.390 1_455 S
C279 C280 1.387 . S
C279 H282 0.950 . S
C280 C279 1.387 . S
C280 C283 1.387 . S
H281 C277 0.950 . S
H282 C279 0.950 . S
C283 C274 1.390 1_455 S
C283 H276 0.950 . S
C283 C280 1.387 . S
C284 C285 1.387 . S
C284 H288 0.950 . S
C284 C293 1.390 1_565 S
C285 C284 1.387 . S
C285 C287 1.387 1_554 S
H286 C293 0.950 . S
C287 C285 1.387 1_556 S
C287 C289 1.390 1_565 S
C287 H291 0.950 . S
H288 C284 0.950 . S
C289 C287 1.390 1_545 S
C289 C290 1.387 1_556 S
C289 H292 0.950 . S
C290 C289 1.387 1_554 S
C290 C293 1.387 . S
H291 C287 0.950 . S
H292 C289 0.950 . S
C293 C284 1.390 1_545 S
C293 H286 0.950 . S
C293 C290 1.387 . S
C294 C295 1.387 . S
C294 H298 0.950 . S
C294 C303 1.390 1_545 S
C295 C294 1.387 . S
C295 C297 1.387 . S
H296 C303 0.950 . S
C297 C295 1.387 . S
C297 C299 1.390 1_545 S
C297 H301 0.950 . S
H298 C294 0.950 . S
C299 C297 1.390 1_565 S
C299 C300 1.387 . S
C299 H302 0.950 . S
C300 C299 1.387 . S
C300 C303 1.387 . S
H301 C297 0.950 . S
H302 C299 0.950 . S
C303 C294 1.390 1_565 S
C303 H296 0.950 . S
C303 C300 1.387 . S
C304 C305 1.387 . S
C304 H308 0.950 . S
C304 C313 1.390 . S
C305 C304 1.387 . S
C305 C307 1.387 1_554 S
H306 C313 0.950 . S
C307 C305 1.387 1_556 S
C307 C309 1.390 . S
C307 H311 0.950 . S
H308 C304 0.950 . S
C309 C307 1.390 . S
C309 C310 1.387 1_556 S
C309 H312 0.950 . S
C310 C309 1.387 1_554 S
C310 C313 1.387 . S
H311 C307 0.950 . S
H312 C309 0.950 . S
C313 C304 1.390 . S
C313 H306 0.950 . S
C313 C310 1.387 . S
C314 C315 1.387 1_556 S
C314 H318 0.950 . S
C314 C323 1.390 . S
C315 C314 1.387 1_554 S
C315 C317 1.387 . S
H316 C323 0.950 . S
C317 C315 1.387 . S
C317 C319 1.390 . S
C317 H321 0.950 . S
H318 C314 0.950 . S
C319 C317 1.390 . S
C319 C320 1.387 . S
C319 H322 0.950 . S
C320 C319 1.387 . S
C320 C323 1.387 1_554 S
H321 C317 0.950 . S
H322 C319 0.950 . S
C323 C314 1.390 . S
C323 H316 0.950 . S
C323 C320 1.387 1_556 S
C324 C325 1.387 . S
C324 H328 0.950 . S
C324 C333 1.390 . S
C325 C324 1.387 . S
C325 C327 1.387 . S
H326 C333 0.950 . S
C327 C325 1.387 . S
C327 C329 1.390 . S
C327 H331 0.950 . S
H328 C324 0.950 . S
C329 C327 1.390 . S
C329 C330 1.387 . S
C329 H332 0.950 . S
C330 C329 1.387 . S
C330 C333 1.387 . S
H331 C327 0.950 . S
H332 C329 0.950 . S
C333 C324 1.390 . S
C333 H326 0.950 . S
C333 C330 1.387 . S
C334 C335 1.387 . S
C334 H338 0.950 . S
C334 C343 1.390 . S
C335 C334 1.387 . S
C335 C337 1.387 . S
H336 C343 0.950 . S
C337 C335 1.387 . S
C337 C339 1.390 . S
C337 H341 0.950 . S
H338 C334 0.950 . S
C339 C337 1.390 . S
C339 C340 1.387 . S
C339 H342 0.950 . S
C340 C339 1.387 . S
C340 C343 1.387 . S
H341 C337 0.950 . S
H342 C339 0.950 . S
C343 C334 1.390 . S
C343 H336 0.950 . S
C343 C340 1.387 . S
C344 C345 1.387 . S
C344 H348 0.950 . S
C344 C353 1.390 1_655 S
C345 C344 1.387 . S
C345 C347 1.387 . S
H346 C353 0.950 . S
C347 C345 1.387 . S
C347 C349 1.390 1_655 S
C347 H351 0.950 . S
H348 C344 0.950 . S
C349 C347 1.390 1_455 S
C349 C350 1.387 . S
C349 H352 0.950 . S
C350 C349 1.387 . S
C350 C353 1.387 . S
H351 C347 0.950 . S
H352 C349 0.950 . S
C353 C344 1.390 1_455 S
C353 H346 0.950 . S
C353 C350 1.387 . S
C354 C355 1.387 . S
C354 H358 0.950 . S
C354 C363 1.390 1_455 S
C355 C354 1.387 . S
C355 C357 1.387 . S
H356 C363 0.950 . S
C357 C355 1.387 . S
C357 C359 1.390 1_455 S
C357 H361 0.950 . S
H358 C354 0.950 . S
C359 C357 1.390 1_655 S
C359 C360 1.387 . S
C359 H362 0.950 . S
C360 C359 1.387 . S
C360 C363 1.387 . S
H361 C357 0.950 . S
H362 C359 0.950 . S
C363 C354 1.390 1_655 S
C363 H356 0.950 . S
C363 C360 1.387 . S
C364 C365 1.387 . S
C364 H368 0.950 . S
C364 C373 1.390 1_655 S
C365 C364 1.387 . S
C365 C367 1.387 . S
H366 C373 0.950 . S
C367 C365 1.387 . S
C367 C369 1.390 1_655 S
C367 H371 0.950 . S
H368 C364 0.950 . S
C369 C367 1.390 1_455 S
C369 C370 1.387 . S
C369 H372 0.950 . S
C370 C369 1.387 . S
C370 C373 1.387 . S
H371 C367 0.950 . S
H372 C369 0.950 . S
C373 C364 1.390 1_455 S
C373 H366 0.950 . S
C373 C370 1.387 . S
C374 C375 1.388 . S
C374 H378 0.950 . S
C374 C383 1.390 1_655 S
C375 C374 1.388 . S
C375 C377 1.388 . S
H376 C383 0.950 . S
C377 C375 1.388 . S
C377 C379 1.390 1_655 S
C377 H381 0.950 . S
H378 C374 0.950 . S
C379 C377 1.390 1_455 S
C379 C380 1.388 . S
C379 H382 0.950 . S
C380 C379 1.388 . S
C380 C383 1.388 . S
H381 C377 0.950 . S
H382 C379 0.950 . S
C383 C374 1.390 1_455 S
C383 H376 0.950 . S
C383 C380 1.388 . S
C384 C385 1.387 . S
C384 H388 0.950 . S
C384 C393 1.390 . S
C385 C384 1.387 . S
C385 C387 1.387 . S
H386 C393 0.950 . S
C387 C385 1.387 . S
C387 C389 1.390 . S
C387 H391 0.950 . S
H388 C384 0.950 . S
C389 C387 1.390 . S
C389 C390 1.387 . S
C389 H392 0.950 . S
C390 C389 1.387 . S
C390 C393 1.387 . S
H391 C387 0.950 . S
H392 C389 0.950 . S
C393 C384 1.390 . S
C393 H386 0.950 . S
C393 C390 1.387 . S
C394 C395 1.387 . S
C394 H398 0.950 . S
C394 C403 1.390 . S
C395 C394 1.387 . S
C395 C397 1.387 . S
H396 C403 0.950 . S
C397 C395 1.387 . S
C397 C399 1.390 . S
C397 H401 0.950 . S
H398 C394 0.950 . S
C399 C397 1.390 . S
C399 C400 1.387 . S
C399 H402 0.950 . S
C400 C399 1.387 . S
C400 C403 1.387 . S
H401 C397 0.950 . S
H402 C399 0.950 . S
C403 C394 1.390 . S
C403 H396 0.950 . S
C403 C400 1.387 . S
C404 C405 1.387 . S
C404 H408 0.950 . S
C404 C413 1.390 . S
C405 C404 1.387 . S
C405 C407 1.387 . S
H406 C413 0.950 . S
C407 C405 1.387 . S
C407 C409 1.390 . S
C407 H411 0.950 . S
H408 C404 0.950 . S
C409 C407 1.390 . S
C409 C410 1.387 . S
C409 H412 0.950 . S
C410 C409 1.387 . S
C410 C413 1.387 . S
H411 C407 0.950 . S
H412 C409 0.950 . S
C413 C404 1.390 . S
C413 H406 0.950 . S
C413 C410 1.387 . S
C414 C415 1.387 . S
C414 H418 0.950 . S
C414 C423 1.390 . S
C415 C414 1.387 . S
C415 C417 1.387 . S
H416 C423 0.950 . S
C417 C415 1.387 . S
C417 C419 1.390 . S
C417 H421 0.950 . S
H418 C414 0.950 . S
C419 C417 1.390 . S
C419 C420 1.387 . S
C419 H422 0.950 . S
C420 C419 1.387 . S
C420 C423 1.387 . S
H421 C417 0.950 . S
H422 C419 0.950 . S
C423 C414 1.390 . S
C423 H416 0.950 . S
C423 C420 1.387 . S
C185 C16 1.382 . S
C190 C17 1.386 . S
C195 C40 1.388 . S
C200 C39 1.384 . S
C205 C63 1.388 . S
C210 C62 1.384 . S
C215 C85 1.382 . S
C220 C86 1.386 . S
C225 C108 1.384 . S
C230 C109 1.388 . S
C235 C131 1.384 . S
C240 C132 1.388 . S
C245 C155 1.386 . S
C250 C154 1.382 . S
C255 C178 1.388 . S
C260 C177 1.384 . S
C265 C44 1.530 . S
C270 C21 1.530 . S
C275 C90 1.530 . S
C280 C67 1.530 . S
C285 C113 1.526 . S
C290 C136 1.526 . S
C295 C159 1.530 . S
C300 C182 1.530 . S
C305 C18 1.495 . S
C310 C133 1.495 . S
C315 C110 1.495 . S
C320 C41 1.495 . S
C325 C64 1.495 . S
C330 C179 1.495 . S
C335 C87 1.495 . S
C340 C156 1.495 . S
C345 C20 1.457 1_655 S
C350 C89 1.457 1_455 S
C355 C43 1.457 1_455 S
C360 C66 1.457 1_655 S
C365 C42 1.446 . S
C370 C65 1.446 . S
C375 C88 1.448 . S
C380 C19 1.448 . S
C385 C112 1.456 . S
C390 C181 1.456 . S
C395 C135 1.456 . S
C400 C158 1.456 . S
C405 C134 1.446 . S
C410 C157 1.446 . S
C415 C180 1.446 . S
C420 C111 1.446 . S
