# Generated by pormake.
# Topology una, (4)-cn, num edge types: 1
# Building blocks:
#     Node 0, Type 0, BuildingBlock: GALJAG_clean_sbu_0, # of connection points: 4
#     Node 1, Type 0, BuildingBlock: GALJAG_clean_sbu_0, # of connection points: 4
#     Node 2, Type 0, BuildingBlock: GALJAG_clean_sbu_0, # of connection points: 4
#     Node 3, Type 0, BuildingBlock: GALJAG_clean_sbu_0, # of connection points: 4
#     Node 4, Type 0, BuildingBlock: GALJAG_clean_sbu_0, # of connection points: 4
#     Node 5, Type 0, BuildingBlock: GALJAG_clean_sbu_0, # of connection points: 4
#     Node 6, Type 0, BuildingBlock: GALJAG_clean_sbu_0, # of connection points: 4
#     Node 7, Type 0, BuildingBlock: GALJAG_clean_sbu_0, # of connection points: 4
#     Node 8, Type 0, BuildingBlock: GALJAG_clean_sbu_0, # of connection points: 4
#     Node 9, Type 0, BuildingBlock: GALJAG_clean_sbu_0, # of connection points: 4
#     Node 10, Type 0, BuildingBlock: GALJAG_clean_sbu_0, # of connection points: 4
#     Node 11, Type 0, BuildingBlock: GALJAG_clean_sbu_0, # of connection points: 4
#     Edge 12, Type (0, 0), BuildingBlock: TEMPAE_clean_linker_10, # of connection points: 2
#     Edge 13, Type (0, 0), BuildingBlock: TEMPAE_clean_linker_10, # of connection points: 2
#     Edge 14, Type (0, 0), BuildingBlock: TEMPAE_clean_linker_10, # of connection points: 2
#     Edge 15, Type (0, 0), BuildingBlock: TEMPAE_clean_linker_10, # of connection points: 2
#     Edge 16, Type (0, 0), BuildingBlock: TEMPAE_clean_linker_10, # of connection points: 2
#     Edge 17, Type (0, 0), BuildingBlock: TEMPAE_clean_linker_10, # of connection points: 2
#     Edge 18, Type (0, 0), BuildingBlock: TEMPAE_clean_linker_10, # of connection points: 2
#     Edge 19, Type (0, 0), BuildingBlock: TEMPAE_clean_linker_10, # of connection points: 2
#     Edge 20, Type (0, 0), BuildingBlock: TEMPAE_clean_linker_10, # of connection points: 2
#     Edge 21, Type (0, 0), BuildingBlock: TEMPAE_clean_linker_10, # of connection points: 2
#     Edge 22, Type (0, 0), BuildingBlock: TEMPAE_clean_linker_10, # of connection points: 2
#     Edge 23, Type (0, 0), BuildingBlock: TEMPAE_clean_linker_10, # of connection points: 2
#     Edge 24, Type (0, 0), BuildingBlock: TEMPAE_clean_linker_10, # of connection points: 2
#     Edge 25, Type (0, 0), BuildingBlock: TEMPAE_clean_linker_10, # of connection points: 2
#     Edge 26, Type (0, 0), BuildingBlock: TEMPAE_clean_linker_10, # of connection points: 2
#     Edge 27, Type (0, 0), BuildingBlock: TEMPAE_clean_linker_10, # of connection points: 2
#     Edge 28, Type (0, 0), BuildingBlock: TEMPAE_clean_linker_10, # of connection points: 2
#     Edge 29, Type (0, 0), BuildingBlock: TEMPAE_clean_linker_10, # of connection points: 2
#     Edge 30, Type (0, 0), BuildingBlock: TEMPAE_clean_linker_10, # of connection points: 2
#     Edge 31, Type (0, 0), BuildingBlock: TEMPAE_clean_linker_10, # of connection points: 2
#     Edge 32, Type (0, 0), BuildingBlock: TEMPAE_clean_linker_10, # of connection points: 2
#     Edge 33, Type (0, 0), BuildingBlock: TEMPAE_clean_linker_10, # of connection points: 2
#     Edge 34, Type (0, 0), BuildingBlock: TEMPAE_clean_linker_10, # of connection points: 2
#     Edge 35, Type (0, 0), BuildingBlock: TEMPAE_clean_linker_10, # of connection points: 2
# Relax obj value: 0.044
# Max RMSD: 0.038
# Mean RMSD: 0.038
data_MOF--net-una--node1-GALJAG_clean_sbu_0--edge1-TEMPAE_clean_linker_10
_symmetry_space_group_name_H-M    P1
_symmetry_Int_Tables_number       1
_symmetry_cell_setting            triclinic
loop_
_symmetry_equiv_pos_as_xyz
'x, y, z'
_cell_length_a     61.489951
_cell_length_b     61.485359
_cell_length_c     20.259495
_cell_angle_alpha  90.016131
_cell_angle_beta   90.01426
_cell_angle_gamma 119.99537
loop_
_atom_site_label
_atom_site_type_symbol
_atom_site_fract_x
_atom_site_fract_y
_atom_site_fract_z
_atom_type_partial_charge
In0 In 0.12231 0.43545 0.07124 0.0
O1 O 0.08015 0.40605 0.08343 0.0
O2 O 0.09683 0.41114 0.98896 0.0
C3 C 0.14917 0.43494 0.17623 0.0
C4 C 0.11758 0.47665 0.08354 0.0
C5 C 0.15464 0.43428 0.9855 0.0
O6 O 0.12804 0.41613 0.16216 0.0
O7 O 0.1554 0.45393 0.14054 0.0
O8 O 0.14833 0.45095 0.98294 0.0
O9 O 0.14409 0.41795 0.03011 0.0
C10 C 0.07724 0.39987 0.02318 0.0
O11 O 0.12959 0.4738 0.03707 0.0
O12 O 0.10774 0.45857 0.12379 0.0
In13 In 0.68839 0.12991 0.22437 0.0
O14 O 0.68022 0.08898 0.22055 0.0
O15 O 0.66886 0.10301 0.1399 0.0
C16 C 0.72222 0.14624 0.32493 0.0
C17 C 0.64516 0.12849 0.25591 0.0
C18 C 0.71612 0.16575 0.1359 0.0
O19 O 0.72555 0.13774 0.27167 0.0
O20 O 0.70114 0.1449 0.32926 0.0
O21 O 0.70256 0.16846 0.17805 0.0
O22 O 0.71551 0.14496 0.13834 0.0
C23 C 0.66983 0.08472 0.16446 0.0
O24 O 0.66076 0.14391 0.21517 0.0
O25 O 0.65149 0.11376 0.2819 0.0
In26 In 0.55991 0.69041 0.3866 0.0
O27 O 0.59543 0.6866 0.38264 0.0
O28 O 0.56652 0.66687 0.31235 0.0
C29 C 0.57865 0.72622 0.48219 0.0
C30 C 0.51764 0.64836 0.42339 0.0
C31 C 0.55007 0.71494 0.29199 0.0
O32 O 0.5619 0.70382 0.49324 0.0
O33 O 0.58718 0.73011 0.4242 0.0
O34 O 0.53755 0.70766 0.34475 0.0
O35 O 0.56736 0.70968 0.28697 0.0
C36 C 0.58789 0.67212 0.33313 0.0
O37 O 0.51789 0.66352 0.38107 0.0
O38 O 0.53881 0.65455 0.44824 0.0
In39 In 0.87289 0.55754 0.56666 0.0
O40 O 0.85761 0.51555 0.55994 0.0
O41 O 0.88797 0.53631 0.6262 0.0
C42 C 0.83887 0.55 0.4727 0.0
C43 C 0.91909 0.58385 0.51215 0.0
C44 C 0.85679 0.57608 0.66517 0.0
O45 O 0.83365 0.53564 0.52184 0.0
O46 O 0.86117 0.56796 0.47104 0.0
O47 O 0.86447 0.58702 0.61044 0.0
O48 O 0.85882 0.5568 0.67172 0.0
C49 C 0.87283 0.51521 0.60115 0.0
O50 O 0.91315 0.59157 0.5632 0.0
O51 O 0.90198 0.56317 0.49016 0.0
In52 In 0.30911 0.86893 0.71791 0.0
O53 O 0.33845 0.85695 0.70569 0.0
O54 O 0.34743 0.88727 0.77054 0.0
C55 C 0.28696 0.83099 0.63093 0.0
C56 C 0.31722 0.91243 0.66151 0.0
C57 C 0.27464 0.8522 0.81641 0.0
O58 O 0.30362 0.85287 0.61431 0.0
O59 O 0.28193 0.82813 0.6918 0.0
O60 O 0.27119 0.86006 0.76208 0.0
O61 O 0.29599 0.85422 0.82236 0.0
C62 C 0.35432 0.8731 0.74432 0.0
O63 O 0.3225 0.91133 0.72118 0.0
O64 O 0.30708 0.89165 0.63206 0.0
In65 In 0.44855 0.31578 0.88436 0.0
O66 O 0.41516 0.32297 0.88738 0.0
O67 O 0.43696 0.33161 0.79973 0.0
C68 C 0.44524 0.2874 0.98939 0.0
C69 C 0.49018 0.35989 0.91079 0.0
C70 C 0.44279 0.28016 0.79877 0.0
O71 O 0.42783 0.29198 0.97541 0.0
O72 O 0.4644 0.29837 0.95308 0.0
O73 O 0.46219 0.3017 0.79896 0.0
O74 O 0.42612 0.27702 0.84007 0.0
C75 C 0.41873 0.33132 0.82888 0.0
O76 O 0.48923 0.34526 0.86568 0.0
O77 O 0.47006 0.35218 0.94312 0.0
In78 In 0.5567 0.87164 0.87521 0.0
O79 O 0.51552 0.85935 0.88749 0.0
O80 O 0.53603 0.88711 0.81459 0.0
C81 C 0.54947 0.83692 0.96667 0.0
C82 C 0.584 0.91753 0.93083 0.0
C83 C 0.57328 0.85436 0.77484 0.0
O84 O 0.53387 0.83268 0.92107 0.0
O85 O 0.5685 0.85861 0.96608 0.0
O86 O 0.5862 0.86446 0.82582 0.0
O87 O 0.55288 0.85451 0.77271 0.0
C88 C 0.51528 0.87382 0.84368 0.0
O89 O 0.59056 0.91202 0.87703 0.0
O90 O 0.56398 0.90013 0.95507 0.0
In91 In 0.6928 0.56222 0.05306 0.0
O92 O 0.6652 0.52038 0.05979 0.0
O93 O 0.65664 0.54157 0.99242 0.0
C94 C 0.71843 0.55297 0.14578 0.0
C95 C 0.67443 0.58974 0.10883 0.0
C96 C 0.72799 0.58045 0.95593 0.0
O97 O 0.70921 0.53915 0.09566 0.0
O98 O 0.7146 0.57126 0.149 0.0
O99 O 0.70605 0.56234 0.94738 0.0
O100 O 0.73168 0.59053 0.01206 0.0
C101 C 0.6501 0.52037 0.0176 0.0
O102 O 0.68694 0.59653 0.05576 0.0
O103 O 0.67119 0.56935 0.13209 0.0
In104 In 0.12946 0.6855 0.20948 0.0
O105 O 0.08847 0.67687 0.21539 0.0
O106 O 0.10377 0.66742 0.29708 0.0
C107 C 0.14687 0.71884 0.10795 0.0
C108 C 0.12556 0.64161 0.17275 0.0
C109 C 0.1649 0.71335 0.29909 0.0
O110 O 0.13457 0.72062 0.15531 0.0
O111 O 0.14904 0.69954 0.10986 0.0
O112 O 0.1655 0.6962 0.26641 0.0
O113 O 0.14646 0.7163 0.28658 0.0
C114 C 0.08503 0.66764 0.2728 0.0
O115 O 0.142 0.65663 0.21265 0.0
O116 O 0.11104 0.64887 0.15023 0.0
In117 In 0.44064 0.12518 0.39095 0.0
O118 O 0.4814 0.13681 0.40832 0.0
O119 O 0.46401 0.11573 0.32133 0.0
C120 C 0.43502 0.14735 0.49829 0.0
C121 C 0.40924 0.07687 0.42528 0.0
C122 C 0.43821 0.15594 0.29978 0.0
O123 O 0.45471 0.14625 0.48812 0.0
O124 O 0.41797 0.13642 0.4557 0.0
O125 O 0.42591 0.13229 0.29278 0.0
O126 O 0.45196 0.16345 0.35028 0.0
C127 C 0.48356 0.12653 0.35672 0.0
O128 O 0.402 0.0889 0.38952 0.0
O129 O 0.43206 0.08892 0.44126 0.0
In130 In 0.31557 0.44717 0.57556 0.0
O131 O 0.34438 0.48843 0.58775 0.0
O132 O 0.34904 0.46914 0.50664 0.0
C133 C 0.28513 0.44076 0.67704 0.0
C134 C 0.33442 0.41875 0.62131 0.0
C135 C 0.28184 0.44202 0.48266 0.0
O136 O 0.30536 0.46117 0.6676 0.0
O137 O 0.28077 0.42347 0.63642 0.0
O138 O 0.29141 0.42792 0.48321 0.0
O139 O 0.29027 0.45893 0.52616 0.0
C140 C 0.35737 0.48948 0.53838 0.0
O141 O 0.3202 0.41218 0.5712 0.0
O142 O 0.33906 0.43935 0.6465 0.0
In143 In 0.87118 0.31013 0.71738 0.0
O144 O 0.86185 0.34058 0.74238 0.0
O145 O 0.88362 0.34568 0.65613 0.0
C146 C 0.83534 0.28946 0.81053 0.0
C147 C 0.91716 0.32168 0.76376 0.0
C148 C 0.85407 0.27601 0.61739 0.0
O149 O 0.83035 0.28758 0.74971 0.0
O150 O 0.85838 0.30235 0.82436 0.0
O151 O 0.86255 0.27259 0.67057 0.0
O152 O 0.85579 0.29725 0.61294 0.0
C153 C 0.87322 0.35427 0.69347 0.0
O154 O 0.91378 0.33577 0.72512 0.0
O155 O 0.89762 0.30109 0.77585 0.0
C156 C 0.15953 0.41477 0.27002 0.0
C157 C 0.16707 0.43422 0.22389 0.0
C158 C 0.17711 0.41386 0.31289 0.0
C159 C 0.20284 0.43252 0.30832 0.0
C160 C 0.21051 0.45192 0.26102 0.0
C161 C 0.19254 0.45266 0.22003 0.0
C162 C 0.16817 0.39318 0.36361 0.0
C163 C 0.23774 0.47201 0.25379 0.0
C164 C 0.24729 0.45025 0.45382 0.0
C165 C 0.26114 0.43844 0.43831 0.0
C166 C 0.22756 0.44751 0.41345 0.0
C167 C 0.22172 0.43292 0.35525 0.0
C168 C 0.23536 0.42059 0.33968 0.0
C169 C 0.25482 0.42332 0.38181 0.0
C170 C 0.21337 0.46075 0.43239 0.0
C171 C 0.22992 0.40518 0.27753 0.0
H172 H 0.13989 0.4004 0.2729 0.0
H173 H 0.19861 0.46757 0.18383 0.0
H174 H 0.17833 0.38264 0.35761 0.0
H175 H 0.1724 0.40143 0.41393 0.0
H176 H 0.14767 0.3798 0.3599 0.0
H177 H 0.2408 0.48491 0.21194 0.0
H178 H 0.24436 0.48328 0.29976 0.0
H179 H 0.24954 0.46326 0.24596 0.0
H180 H 0.25183 0.4617 0.49794 0.0
H181 H 0.2654 0.41408 0.36981 0.0
H182 H 0.19286 0.44733 0.43209 0.0
H183 H 0.21708 0.47561 0.39571 0.0
H184 H 0.21879 0.46958 0.482 0.0
H185 H 0.20969 0.39085 0.27497 0.0
H186 H 0.24112 0.39557 0.27448 0.0
H187 H 0.23423 0.41753 0.23377 0.0
C188 C 0.83013 0.2605 0.51185 0.0
C189 C 0.83943 0.25553 0.56963 0.0
C190 C 0.81266 0.24088 0.47178 0.0
C191 C 0.80412 0.21564 0.49011 0.0
C192 C 0.81446 0.21054 0.54647 0.0
C193 C 0.83206 0.23057 0.58549 0.0
C194 C 0.80236 0.24718 0.41162 0.0
C195 C 0.80592 0.18393 0.56765 0.0
C196 C 0.73804 0.17017 0.43044 0.0
C197 C 0.74269 0.16039 0.37309 0.0
C198 C 0.75785 0.18722 0.47077 0.0
C199 C 0.78296 0.19481 0.45315 0.0
C200 C 0.78768 0.18395 0.39728 0.0
C201 C 0.76747 0.16681 0.35798 0.0
C202 C 0.75195 0.19811 0.53037 0.0
C203 C 0.81413 0.19148 0.37687 0.0
H204 H 0.83578 0.27974 0.49921 0.0
H205 H 0.83911 0.22657 0.6302 0.0
H206 H 0.80371 0.23715 0.36768 0.0
H207 H 0.78219 0.24085 0.4193 0.0
H208 H 0.81243 0.26765 0.40104 0.0
H209 H 0.81778 0.18313 0.60788 0.0
H210 H 0.78624 0.17498 0.58541 0.0
H211 H 0.80626 0.17268 0.52527 0.0
H212 H 0.71895 0.16525 0.4425 0.0
H213 H 0.77123 0.15938 0.31362 0.0
H214 H 0.75898 0.2184 0.52225 0.0
H215 H 0.76161 0.19644 0.5747 0.0
H216 H 0.73148 0.18869 0.54057 0.0
H217 H 0.82379 0.21114 0.35878 0.0
H218 H 0.81453 0.17925 0.33707 0.0
H219 H 0.82498 0.19074 0.41969 0.0
C220 C 0.57288 0.74168 0.59134 0.0
C221 C 0.58454 0.74691 0.52934 0.0
C222 C 0.5745 0.76102 0.6317 0.0
C223 C 0.58806 0.78623 0.60946 0.0
C224 C 0.60113 0.79176 0.54869 0.0
C225 C 0.59924 0.77203 0.50938 0.0
C226 C 0.56045 0.75431 0.69643 0.0
C227 C 0.61589 0.81835 0.52332 0.0
C228 C 0.56321 0.82769 0.67386 0.0
C229 C 0.57949 0.8401 0.7267 0.0
C230 C 0.56641 0.81086 0.63383 0.0
C231 C 0.58642 0.8063 0.64682 0.0
C232 C 0.60368 0.81972 0.698 0.0
C233 C 0.6 0.83646 0.7374 0.0
C234 C 0.54764 0.79708 0.57952 0.0
C235 C 0.62535 0.81554 0.71312 0.0
H236 H 0.56153 0.72233 0.60719 0.0
H237 H 0.6083 0.77624 0.46149 0.0
H238 H 0.57295 0.7661 0.73689 0.0
H239 H 0.54463 0.75809 0.69326 0.0
H240 H 0.55279 0.73423 0.70949 0.0
H241 H 0.62749 0.81987 0.47963 0.0
H242 H 0.60276 0.82498 0.50906 0.0
H243 H 0.62836 0.83112 0.56247 0.0
H244 H 0.54732 0.83041 0.66522 0.0
H245 H 0.61265 0.84595 0.77824 0.0
H246 H 0.53692 0.77671 0.59104 0.0
H247 H 0.55749 0.79923 0.53202 0.0
H248 H 0.53412 0.80391 0.57307 0.0
H249 H 0.61806 0.79636 0.73335 0.0
H250 H 0.63857 0.82931 0.74957 0.0
H251 H 0.63585 0.81685 0.66738 0.0
C252 C 0.83235 0.56809 0.76962 0.0
C253 C 0.84285 0.58279 0.71303 0.0
C254 C 0.81548 0.57126 0.80956 0.0
C255 C 0.80895 0.58963 0.79265 0.0
C256 C 0.82061 0.60552 0.73778 0.0
C257 C 0.8374 0.60189 0.69852 0.0
C258 C 0.8036 0.55398 0.86784 0.0
C259 C 0.81437 0.62548 0.71846 0.0
C260 C 0.74356 0.57303 0.84913 0.0
C261 C 0.74861 0.58638 0.90857 0.0
C262 C 0.76311 0.57493 0.80925 0.0
C263 C 0.78838 0.59057 0.82927 0.0
C264 C 0.79362 0.60527 0.88719 0.0
C265 C 0.77366 0.603 0.92619 0.0
C266 C 0.75666 0.55906 0.74761 0.0
C267 C 0.82026 0.62231 0.90998 0.0
H268 H 0.83648 0.55332 0.78123 0.0
H269 H 0.84544 0.61333 0.65485 0.0
H270 H 0.80558 0.56504 0.91299 0.0
H271 H 0.7832 0.5416 0.85865 0.0
H272 H 0.81205 0.54199 0.8773 0.0
H273 H 0.82724 0.63825 0.67985 0.0
H274 H 0.79488 0.61642 0.6992 0.0
H275 H 0.81529 0.63682 0.76208 0.0
H276 H 0.72426 0.5602 0.8351 0.0
H277 H 0.77773 0.61338 0.97211 0.0
H278 H 0.76216 0.54453 0.75411 0.0
H279 H 0.76729 0.57079 0.70476 0.0
H280 H 0.73628 0.54952 0.73598 0.0
H281 H 0.82839 0.61078 0.92738 0.0
H282 H 0.82131 0.63482 0.95094 0.0
H283 H 0.83209 0.63405 0.86854 0.0
C284 C 0.25927 0.83023 0.92445 0.0
C285 C 0.25406 0.83763 0.86383 0.0
C286 C 0.23985 0.81262 0.96469 0.0
C287 C 0.2146 0.8019 0.94344 0.0
C288 C 0.20914 0.81039 0.88409 0.0
C289 C 0.22895 0.82826 0.84511 0.0
C290 C 0.2465 0.80441 0.02815 0.0
C291 C 0.18251 0.79944 0.85961 0.0
C292 C 0.17279 0.73546 0.00594 0.0
C293 C 0.16083 0.73932 0.05981 0.0
C294 C 0.18938 0.75553 0.96572 0.0
C295 C 0.19437 0.78016 0.98013 0.0
C296 C 0.18141 0.784 0.03253 0.0
C297 C 0.16469 0.76349 0.07161 0.0
C298 C 0.2025 0.75053 0.9097 0.0
C299 C 0.18624 0.80994 0.04962 0.0
H300 H 0.27863 0.83747 0.9393 0.0
H301 H 0.22478 0.83382 0.79816 0.0
H302 H 0.235 0.80502 0.06952 0.0
H303 H 0.24227 0.7847 0.02324 0.0
H304 H 0.26667 0.81634 0.04101 0.0
H305 H 0.18113 0.8102 0.81735 0.0
H306 H 0.17539 0.77977 0.84348 0.0
H307 H 0.17004 0.79901 0.89976 0.0
H308 H 0.16982 0.71681 0.99644 0.0
H309 H 0.15558 0.76663 0.1134 0.0
H310 H 0.22286 0.75945 0.92063 0.0
H311 H 0.2005 0.75895 0.86329 0.0
H312 H 0.19499 0.73014 0.90152 0.0
H313 H 0.20549 0.82127 0.06994 0.0
H314 H 0.17268 0.80943 0.0867 0.0
H315 H 0.18516 0.81971 0.00478 0.0
C316 C 0.4258 0.16694 0.19182 0.0
C317 C 0.43633 0.17396 0.25497 0.0
C318 C 0.42522 0.1847 0.14902 0.0
C319 C 0.43506 0.20987 0.17046 0.0
C320 C 0.44483 0.21672 0.23509 0.0
C321 C 0.4455 0.19877 0.27626 0.0
C322 C 0.41486 0.17676 0.08018 0.0
C323 C 0.45528 0.24324 0.26024 0.0
C324 C 0.46198 0.26268 0.04491 0.0
C325 C 0.44271 0.26849 0.03875 0.0
C326 C 0.45946 0.24339 0.08667 0.0
C327 C 0.43721 0.22963 0.12394 0.0
C328 C 0.41777 0.23556 0.11871 0.0
C329 C 0.4207 0.25489 0.07588 0.0
C330 C 0.48066 0.23771 0.0907 0.0
C331 C 0.3939 0.22149 0.15831 0.0
H332 H 0.41862 0.14777 0.17529 0.0
H333 H 0.45337 0.20426 0.3254 0.0
H334 H 0.40043 0.18211 0.07002 0.0
H335 H 0.43015 0.18667 0.04361 0.0
H336 H 0.4064 0.1562 0.07254 0.0
H337 H 0.46025 0.245 0.31346 0.0
H338 H 0.47239 0.25614 0.23191 0.0
H339 H 0.44145 0.2496 0.2528 0.0
H340 H 0.479 0.27297 0.01609 0.0
H341 H 0.40569 0.25918 0.071 0.0
H342 H 0.47366 0.21771 0.07828 0.0
H343 H 0.48807 0.24076 0.14185 0.0
H344 H 0.49639 0.24962 0.05685 0.0
H345 H 0.38456 0.20115 0.1467 0.0
H346 H 0.38051 0.22826 0.14838 0.0
H347 H 0.39837 0.22358 0.2118 0.0
C348 C 0.1288 0.51987 0.04746 0.0
C349 C 0.1162 0.49983 0.09167 0.0
C350 C 0.12912 0.54264 0.05694 0.0
C351 C 0.11649 0.5454 0.11189 0.0
C352 C 0.10306 0.52496 0.15552 0.0
C353 C 0.1031 0.50241 0.14492 0.0
C354 C 0.14367 0.564 0.00938 0.0
C355 C 0.08931 0.52717 0.21456 0.0
C356 C 0.14075 0.61094 0.18059 0.0
C357 C 0.12334 0.61721 0.15541 0.0
C358 C 0.13875 0.58769 0.16649 0.0
C359 C 0.1188 0.5702 0.12632 0.0
C360 C 0.10122 0.57644 0.10038 0.0
C361 C 0.10372 0.59993 0.11517 0.0
C362 C 0.15795 0.58181 0.19489 0.0
C363 C 0.07969 0.55823 0.05746 0.0
H364 H 0.1389 0.51796 0.00609 0.0
H365 H 0.09326 0.48695 0.17911 0.0
H366 H 0.13159 0.57127 0.99042 0.0
H367 H 0.15971 0.57971 0.03544 0.0
H368 H 0.15107 0.5583 0.96679 0.0
H369 H 0.07834 0.50904 0.24105 0.0
H370 H 0.10298 0.54127 0.24954 0.0
H371 H 0.07634 0.53384 0.19895 0.0
H372 H 0.15597 0.62422 0.21169 0.0
H373 H 0.09019 0.60467 0.0957 0.0
H374 H 0.16744 0.57756 0.1545 0.0
H375 H 0.1485 0.56488 0.22665 0.0
H376 H 0.17245 0.59756 0.2247 0.0
H377 H 0.08701 0.55325 0.0134 0.0
H378 H 0.06774 0.56601 0.04075 0.0
H379 H 0.0678 0.5406 0.08505 0.0
C380 C 0.61595 0.14524 0.24169 0.0
C381 C 0.62123 0.12768 0.27074 0.0
C382 C 0.59332 0.14478 0.25448 0.0
C383 C 0.57548 0.12626 0.29722 0.0
C384 C 0.58062 0.10838 0.32646 0.0
C385 C 0.60349 0.10933 0.31296 0.0
C386 C 0.58859 0.16425 0.22261 0.0
C387 C 0.56199 0.08832 0.37218 0.0
C388 C 0.52841 0.14014 0.38012 0.0
C389 C 0.50705 0.1266 0.34055 0.0
C390 C 0.55075 0.14009 0.36668 0.0
C391 C 0.55173 0.12607 0.31252 0.0
C392 C 0.53021 0.11232 0.2724 0.0
C393 C 0.50811 0.11281 0.2868 0.0
C394 C 0.57335 0.15514 0.41032 0.0
C395 C 0.53055 0.0971 0.21433 0.0
H396 H 0.62959 0.15946 0.20894 0.0
H397 H 0.60745 0.09567 0.33534 0.0
H398 H 0.57107 0.1549 0.19306 0.0
H399 H 0.58597 0.17553 0.26122 0.0
H400 H 0.60426 0.17717 0.1899 0.0
H401 H 0.56859 0.07549 0.38974 0.0
H402 H 0.55857 0.09716 0.41569 0.0
H403 H 0.54373 0.07705 0.34661 0.0
H404 H 0.52769 0.15084 0.42176 0.0
H405 H 0.49162 0.10224 0.25624 0.0
H406 H 0.58922 0.16936 0.38042 0.0
H407 H 0.57953 0.14263 0.43252 0.0
H408 H 0.56944 0.16493 0.45071 0.0
H409 H 0.54507 0.10953 0.17836 0.0
H410 H 0.51214 0.08715 0.18864 0.0
H411 H 0.53562 0.08302 0.2311 0.0
C412 C 0.39571 0.51274 0.468 0.0
C413 C 0.38087 0.51262 0.52067 0.0
C414 C 0.41832 0.53454 0.45196 0.0
C415 C 0.42619 0.5567 0.48942 0.0
C416 C 0.41126 0.55666 0.54259 0.0
C417 C 0.38879 0.53462 0.5576 0.0
C418 C 0.43379 0.53389 0.39493 0.0
C419 C 0.41897 0.57994 0.58352 0.0
C420 C 0.49487 0.60793 0.48597 0.0
C421 C 0.49435 0.625 0.44101 0.0
C422 C 0.47283 0.58551 0.50193 0.0
C423 C 0.4498 0.58012 0.47227 0.0
C424 C 0.4492 0.59731 0.42691 0.0
C425 C 0.47149 0.61952 0.4118 0.0
C426 C 0.47418 0.56761 0.55054 0.0
C427 C 0.425 0.59226 0.39443 0.0
H428 H 0.3897 0.49576 0.43945 0.0
H429 H 0.37741 0.53463 0.59846 0.0
H430 H 0.43591 0.54785 0.35709 0.0
H431 H 0.45292 0.53913 0.41223 0.0
H432 H 0.42523 0.51508 0.37131 0.0
H433 H 0.40535 0.57672 0.6236 0.0
H434 H 0.43768 0.5864 0.60594 0.0
H435 H 0.42064 0.59535 0.55157 0.0
H436 H 0.51251 0.61206 0.50855 0.0
H437 H 0.47098 0.63263 0.37695 0.0
H438 H 0.46717 0.54895 0.52717 0.0
H439 H 0.4619 0.56491 0.59352 0.0
H440 H 0.49359 0.57444 0.56866 0.0
H441 H 0.41667 0.5743 0.36673 0.0
H442 H 0.42778 0.60747 0.35987 0.0
H443 H 0.4112 0.5903 0.43261 0.0
C444 C 0.85544 0.46908 0.58856 0.0
C445 C 0.87324 0.49194 0.61693 0.0
C446 C 0.85584 0.44687 0.60135 0.0
C447 C 0.87456 0.44757 0.64339 0.0
C448 C 0.89258 0.47059 0.67233 0.0
C449 C 0.89168 0.49253 0.65883 0.0
C450 C 0.83624 0.42267 0.56982 0.0
C451 C 0.91284 0.47204 0.71733 0.0
C452 C 0.86099 0.38612 0.72268 0.0
C453 C 0.87413 0.37841 0.68122 0.0
C454 C 0.86124 0.40875 0.7114 0.0
C455 C 0.87504 0.42407 0.6575 0.0
C456 C 0.88861 0.41655 0.61592 0.0
C457 C 0.88795 0.39374 0.62821 0.0
C458 C 0.84644 0.41608 0.75664 0.0
C459 C 0.90361 0.43246 0.55808 0.0
H460 H 0.84115 0.46851 0.55609 0.0
H461 H 0.90553 0.51018 0.6807 0.0
H462 H 0.84546 0.41468 0.53898 0.0
H463 H 0.82537 0.40863 0.60856 0.0
H464 H 0.82294 0.42533 0.53838 0.0
H465 H 0.92552 0.49141 0.73559 0.0
H466 H 0.90422 0.45947 0.76041 0.0
H467 H 0.92426 0.46543 0.69081 0.0
H468 H 0.85028 0.37434 0.76379 0.0
H469 H 0.8982 0.38789 0.59616 0.0
H470 H 0.8318 0.41747 0.72801 0.0
H471 H 0.85897 0.43484 0.77848 0.0
H472 H 0.83718 0.40237 0.7973 0.0
H473 H 0.89094 0.43435 0.5225 0.0
H474 H 0.91379 0.42436 0.53184 0.0
H475 H 0.91746 0.45164 0.57515 0.0
C476 C 0.39572 0.89245 0.80298 0.0
C477 C 0.37884 0.87495 0.75755 0.0
C478 C 0.41876 0.89377 0.81669 0.0
C479 C 0.42499 0.87722 0.78409 0.0
C480 C 0.40816 0.85982 0.7374 0.0
C481 C 0.38529 0.85888 0.72476 0.0
C482 C 0.43624 0.91255 0.86686 0.0
C483 C 0.41411 0.84188 0.70157 0.0
C484 C 0.4926 0.89116 0.77915 0.0
C485 C 0.49245 0.87517 0.82868 0.0
C486 C 0.47087 0.89236 0.76471 0.0
C487 C 0.44855 0.87723 0.80075 0.0
C488 C 0.44841 0.86128 0.85128 0.0
C489 C 0.47035 0.86042 0.86457 0.0
C490 C 0.47169 0.90956 0.7104 0.0
C491 C 0.42499 0.84485 0.89082 0.0
H492 H 0.39083 0.90494 0.82832 0.0
H493 H 0.37235 0.84537 0.68939 0.0
H494 H 0.43871 0.90253 0.90915 0.0
H495 H 0.45505 0.92458 0.84473 0.0
H496 H 0.42912 0.92478 0.88581 0.0
H497 H 0.39946 0.83017 0.66485 0.0
H498 H 0.43239 0.85245 0.6757 0.0
H499 H 0.41585 0.82925 0.73761 0.0
H500 H 0.50966 0.90265 0.75142 0.0
H501 H 0.47014 0.84809 0.9031 0.0
H502 H 0.46575 0.92266 0.72978 0.0
H503 H 0.45831 0.89836 0.6707 0.0
H504 H 0.49072 0.92072 0.68852 0.0
H505 H 0.41805 0.85651 0.91445 0.0
H506 H 0.42824 0.8341 0.92983 0.0
H507 H 0.40991 0.83137 0.85759 0.0
C508 C 0.51359 0.39968 0.97566 0.0
C509 C 0.51318 0.38407 0.92468 0.0
C510 C 0.5355 0.42245 0.98993 0.0
C511 C 0.55749 0.42972 0.95229 0.0
C512 C 0.55708 0.41417 0.90022 0.0
C513 C 0.53493 0.39152 0.88705 0.0
C514 C 0.53523 0.43856 0.04585 0.0
C515 C 0.58015 0.42127 0.85901 0.0
C516 C 0.6097 0.49803 0.95463 0.0
C517 C 0.62649 0.49729 0.00016 0.0
C518 C 0.58708 0.47618 0.93865 0.0
C519 C 0.58121 0.45312 0.96892 0.0
C520 C 0.59813 0.45229 0.01484 0.0
C521 C 0.62055 0.47438 0.02991 0.0
C522 C 0.56949 0.47777 0.88944 0.0
C523 C 0.59257 0.42805 0.04805 0.0
H524 H 0.49681 0.39403 0.00479 0.0
H525 H 0.53471 0.37956 0.84745 0.0
H526 H 0.54887 0.44037 0.08439 0.0
H527 H 0.54116 0.45775 0.02769 0.0
H528 H 0.51639 0.43066 0.06888 0.0
H529 H 0.57648 0.4075 0.81896 0.0
H530 H 0.58706 0.44005 0.83658 0.0
H531 H 0.59541 0.42249 0.89084 0.0
H532 H 0.61419 0.5157 0.93159 0.0
H533 H 0.63345 0.47369 0.06518 0.0
H534 H 0.55089 0.4713 0.9126 0.0
H535 H 0.56649 0.46516 0.847 0.0
H536 H 0.57675 0.49715 0.87057 0.0
H537 H 0.57463 0.42018 0.07571 0.0
H538 H 0.60765 0.43063 0.08281 0.0
H539 H 0.59028 0.41397 0.01033 0.0
C540 C 0.2736 0.45594 0.77781 0.0
C541 C 0.26677 0.43809 0.72747 0.0
C542 C 0.25566 0.45477 0.8225 0.0
C543 C 0.23031 0.43556 0.81557 0.0
C544 C 0.22342 0.41719 0.7656 0.0
C545 C 0.24183 0.41855 0.72243 0.0
C546 C 0.26369 0.47437 0.87612 0.0
C547 C 0.19649 0.39664 0.75626 0.0
C548 C 0.18528 0.42049 0.95823 0.0
C549 C 0.1736 0.43429 0.94133 0.0
C550 C 0.20402 0.42094 0.91805 0.0
C551 C 0.2108 0.43516 0.85912 0.0
C552 C 0.19882 0.44888 0.84141 0.0
C553 C 0.18048 0.44848 0.88321 0.0
C554 C 0.21671 0.40642 0.9389 0.0
C555 C 0.20532 0.4639 0.77825 0.0
H556 H 0.29293 0.47101 0.78179 0.0
H557 H 0.2365 0.40482 0.68318 0.0
H558 H 0.25469 0.48593 0.86816 0.0
H559 H 0.25741 0.46519 0.92501 0.0
H560 H 0.28437 0.48702 0.87743 0.0
H561 H 0.19441 0.38342 0.71612 0.0
H562 H 0.18907 0.38584 0.80264 0.0
H563 H 0.18468 0.40507 0.74424 0.0
H564 H 0.1801 0.40968 0.00356 0.0
H565 H 0.17137 0.4591 0.87013 0.0
H566 H 0.23727 0.41931 0.94323 0.0
H567 H 0.21378 0.39222 0.90086 0.0
H568 H 0.20954 0.39668 0.98687 0.0
H569 H 0.22545 0.47859 0.77848 0.0
H570 H 0.19388 0.4731 0.77112 0.0
H571 H 0.20233 0.45148 0.73535 0.0
C572 C 0.74732 0.18156 0.04478 0.0
C573 C 0.7319 0.18547 0.08825 0.0
C574 C 0.76307 0.20028 0.0004 0.0
C575 C 0.7633 0.22341 -0.00056 0.0
C576 C 0.74752 0.22738 0.04257 0.0
C577 C 0.73199 0.2083 0.08672 0.0
C578 C 0.77968 0.19538 0.95511 0.0
C579 C 0.74727 0.2518 0.04251 0.0
C580 C 0.82303 0.27622 0.92707 0.0
C581 C 0.81603 0.27567 0.86101 0.0
C582 C 0.80557 0.26027 0.97387 0.0
C583 C 0.78059 0.24348 0.9539 0.0
C584 C 0.77304 0.24403 0.88823 0.0
C585 C 0.79092 0.26014 0.84241 0.0
C586 C 0.81427 0.26024 0.04358 0.0
C587 C 0.7465 0.22652 0.86534 0.0
H588 H 0.74729 0.16392 0.04582 0.0
H589 H 0.72003 0.21134 0.12028 0.0
H590 H 0.77574 0.19764 0.90289 0.0
H591 H 0.79969 0.2093 0.96473 0.0
H592 H 0.77697 0.17624 0.96154 0.0
H593 H 0.73329 0.25157 0.07764 0.0
H594 H 0.76612 0.26749 0.05598 0.0
H595 H 0.74294 0.25577 0.99229 0.0
H596 H 0.84242 0.28832 0.94169 0.0
H597 H 0.78542 0.25979 0.7914 0.0
H598 H 0.81448 0.24254 0.05257 0.0
H599 H 0.80112 0.261 0.07971 0.0
H600 H 0.83342 0.27629 0.05296 0.0
H601 H 0.74309 0.20702 0.8637 0.0
H602 H 0.74289 0.23151 0.81543 0.0
H603 H 0.73279 0.22676 0.90046 0.0
C604 C 0.53024 0.73969 0.25505 0.0
C605 C 0.54586 0.72971 0.24164 0.0
C606 C 0.52809 0.75582 0.20997 0.0
C607 C 0.54175 0.76183 0.15012 0.0
C608 C 0.55661 0.75084 0.13507 0.0
C609 C 0.55858 0.73498 0.18124 0.0
C610 C 0.51215 0.7673 0.22771 0.0
C611 C 0.57125 0.75664 0.07139 0.0
C612 C 0.52699 0.79288 0.00894 0.0
C613 C 0.54626 0.81789 0.01577 0.0
C614 C 0.52486 0.7744 0.05331 0.0
C615 C 0.54231 0.78124 0.10568 0.0
C616 C 0.56131 0.8066 0.11387 0.0
C617 C 0.5631 0.82461 0.06862 0.0
C618 C 0.50444 0.74749 0.04306 0.0
C619 C 0.58016 0.81462 0.16949 0.0
H620 H 0.52036 0.7356 0.30176 0.0
H621 H 0.57052 0.72711 0.17055 0.0
H622 H 0.52441 0.78779 0.23561 0.0
H623 H 0.49916 0.76483 0.18669 0.0
H624 H 0.50097 0.75896 0.27323 0.0
H625 H 0.58016 0.74491 0.06477 0.0
H626 H 0.55878 0.7536 0.0286 0.0
H627 H 0.5862 0.77669 0.07087 0.0
H628 H 0.51394 0.78765 0.96806 0.0
H629 H 0.57793 0.84397 0.07424 0.0
H630 H 0.4934 0.73985 0.08903 0.0
H631 H 0.513 0.7358 0.03116 0.0
H632 H 0.49144 0.74555 0.00245 0.0
H633 H 0.57031 0.80846 0.21759 0.0
H634 H 0.59289 0.8353 0.17098 0.0
H635 H 0.59173 0.80552 0.16373 0.0
C636 C 0.82772 0.5623 0.36659 0.0
C637 C 0.82018 0.54681 0.42244 0.0
C638 C 0.81007 0.56086 0.32054 0.0
C639 C 0.78428 0.54362 0.33095 0.0
C640 C 0.77662 0.52735 0.38615 0.0
C641 C 0.79472 0.5291 0.4313 0.0
C642 C 0.81897 0.57839 0.26193 0.0
C643 C 0.74925 0.5088 0.3988 0.0
C644 C 0.74072 0.56313 0.25357 0.0
C645 C 0.73346 0.54884 0.19552 0.0
C646 C 0.75649 0.56084 0.29939 0.0
C647 C 0.76537 0.54401 0.2864 0.0
C648 C 0.75748 0.52895 0.22884 0.0
C649 C 0.74149 0.53148 0.18404 0.0
C650 C 0.76434 0.57706 0.36059 0.0
C651 C 0.76669 0.51089 0.21337 0.0
H652 H 0.84742 0.5759 0.35938 0.0
H653 H 0.78886 0.51707 0.47446 0.0
H654 H 0.81151 0.56761 0.21548 0.0
H655 H 0.81173 0.59165 0.26561 0.0
H656 H 0.83978 0.58945 0.25862 0.0
H657 H 0.74659 0.49617 0.44101 0.0
H658 H 0.7391 0.51908 0.40959 0.0
H659 H 0.74048 0.49717 0.35425 0.0
H660 H 0.73437 0.57644 0.26278 0.0
H661 H 0.73587 0.5204 0.13914 0.0
H662 H 0.78483 0.59052 0.35898 0.0
H663 H 0.76061 0.5653 0.4053 0.0
H664 H 0.75438 0.58787 0.36556 0.0
H665 H 0.78722 0.52155 0.20413 0.0
H666 H 0.75726 0.49916 0.16932 0.0
H667 H 0.76349 0.49835 0.25608 0.0
C668 C 0.20426 0.72485 0.36163 0.0
C669 C 0.18423 0.72893 0.34797 0.0
C670 C 0.22279 0.73984 0.40778 0.0
C671 C 0.22115 0.75929 0.44058 0.0
C672 C 0.20089 0.76338 0.42705 0.0
C673 C 0.18266 0.74812 0.38093 0.0
C674 C 0.24412 0.73496 0.42127 0.0
C675 C 0.19853 0.78399 0.46103 0.0
C676 C 0.25314 0.78764 0.60287 0.0
C677 C 0.27271 0.81105 0.5822 0.0
C678 C 0.23703 0.76984 0.55684 0.0
C679 C 0.24062 0.77572 0.48876 0.0
C680 C 0.26129 0.7987 0.46749 0.0
C681 C 0.27714 0.81612 0.51458 0.0
C682 C 0.21527 0.74544 0.58131 0.0
C683 C 0.26573 0.80559 0.39525 0.0
H684 H 0.20549 0.70999 0.33621 0.0
H685 H 0.1672 0.75133 0.37049 0.0
H686 H 0.26229 0.75189 0.40902 0.0
H687 H 0.24468 0.73108 0.47454 0.0
H688 H 0.24245 0.71884 0.39232 0.0
H689 H 0.18155 0.78458 0.44509 0.0
H690 H 0.19766 0.78126 0.51529 0.0
H691 H 0.21531 0.80248 0.45038 0.0
H692 H 0.24976 0.7836 0.65516 0.0
H693 H 0.29235 0.83416 0.49842 0.0
H694 H 0.21397 0.72934 0.55324 0.0
H695 H 0.19747 0.74555 0.57329 0.0
H696 H 0.21692 0.74243 0.63472 0.0
H697 H 0.26491 0.78994 0.366 0.0
H698 H 0.28415 0.82276 0.3865 0.0
H699 H 0.2507 0.80896 0.37653 0.0
C700 C 0.45484 0.26478 0.69943 0.0
C701 C 0.44035 0.25961 0.75665 0.0
C702 C 0.45297 0.24522 0.65988 0.0
C703 C 0.43671 0.22001 0.67923 0.0
C704 C 0.42226 0.21472 0.73747 0.0
C705 C 0.42403 0.23464 0.77514 0.0
C706 C 0.46826 0.2515 0.59724 0.0
C707 C 0.40515 0.18808 0.76024 0.0
C708 C 0.41566 0.17106 0.54448 0.0
C709 C 0.4334 0.16321 0.55016 0.0
C710 C 0.41617 0.18918 0.58724 0.0
C711 C 0.43453 0.19922 0.63763 0.0
C712 C 0.45161 0.19032 0.64591 0.0
C713 C 0.45102 0.17257 0.60144 0.0
C714 C 0.3979 0.19851 0.57635 0.0
C715 C 0.47103 0.20021 0.70022 0.0
H716 H 0.46742 0.28412 0.68522 0.0
H717 H 0.41304 0.23067 0.81995 0.0
H718 H 0.48112 0.24376 0.59949 0.0
H719 H 0.45565 0.2427 0.55427 0.0
H720 H 0.47961 0.27207 0.58861 0.0
H721 H 0.39576 0.18724 0.80779 0.0
H722 H 0.39051 0.1776 0.72248 0.0
H723 H 0.41605 0.17828 0.76629 0.0
H724 H 0.40211 0.16396 0.50454 0.0
H725 H 0.46469 0.16641 0.60593 0.0
H726 H 0.40836 0.21866 0.56243 0.0
H727 H 0.38756 0.19698 0.62255 0.0
H728 H 0.38405 0.18791 0.53685 0.0
H729 H 0.48489 0.22025 0.6909 0.0
H730 H 0.48126 0.18961 0.70382 0.0
H731 H 0.46203 0.19918 0.74845 0.0
C732 C 0.05205 0.37194 0.93089 0.0
C733 C 0.05272 0.38282 0.99226 0.0
C734 C 0.02964 0.35904 0.89489 0.0
C735 C 0.00745 0.35742 0.92028 0.0
C736 C 0.00774 0.36728 0.98379 0.0
C737 C 0.0304 0.3797 0.01938 0.0
C738 C 0.03006 0.34834 0.8281 0.0
C739 C 0.98452 0.36612 0.01233 0.0
C740 C 0.96029 0.35518 0.79538 0.0
C741 C 0.94116 0.33 0.79891 0.0
C742 C 0.98193 0.36425 0.83456 0.0
C743 C 0.9847 0.34767 0.87772 0.0
C744 C 0.96583 0.32203 0.87991 0.0
C745 C 0.94418 0.31353 0.84078 0.0
C746 C 0.00155 0.39176 0.83092 0.0
C747 C 0.96833 0.30369 0.92434 0.0
H748 H 0.06928 0.37417 0.90999 0.0
H749 H 0.03092 0.38823 0.06663 0.0
H750 H 0.01422 0.3288 0.82348 0.0
H751 H 0.02774 0.35961 0.78887 0.0
H752 H 0.04792 0.34841 0.81914 0.0
H753 H 0.98725 0.37261 0.06443 0.0
H754 H 0.9795 0.37815 0.98266 0.0
H755 H 0.96838 0.34668 0.00991 0.0
H756 H 0.958 0.36805 0.76347 0.0
H757 H 0.92942 0.29405 0.84378 0.0
H758 H 0.01991 0.39391 0.81632 0.0
H759 H 0.00405 0.40055 0.88026 0.0
H760 H 0.9965 0.40218 0.79505 0.0
H761 H 0.98626 0.3041 0.91418 0.0
H762 H 0.95259 0.28416 0.91791 0.0
H763 H 0.96883 0.30923 0.97668 0.0
C764 C 0.58752 0.94771 0.01785 0.0
C765 C 0.59831 0.94217 0.96412 0.0
C766 C 0.60042 0.97081 0.05074 0.0
C767 C 0.6249 0.9888 0.02997 0.0
C768 C 0.63611 0.9832 0.97636 0.0
C769 C 0.62259 0.95997 0.9437 0.0
C770 C 0.58762 0.97614 0.107 0.0
C771 C 0.66227 0.00183 0.95327 0.0
C772 C 0.64531 0.05648 0.07162 0.0
C773 C 0.6593 0.06036 0.12954 0.0
C774 C 0.63454 0.03349 0.03799 0.0
C775 C 0.63803 0.01389 0.06242 0.0
C776 C 0.65264 0.01785 0.12004 0.0
C777 C 0.663 0.04104 0.15323 0.0
C778 C 0.61882 0.02995 0.97729 0.0
C779 C 0.65696 0.99746 0.1472 0.0
H780 H 0.56874 0.93405 0.03388 0.0
H781 H 0.63106 0.95569 0.90248 0.0
H782 H 0.59926 0.98091 0.15229 0.0
H783 H 0.58555 0.9926 0.09474 0.0
H784 H 0.56874 0.95993 0.11796 0.0
H785 H 0.66882 0.99413 0.91326 0.0
H786 H 0.66275 0.01906 0.93485 0.0
H787 H 0.67565 0.0075 0.99516 0.0
H788 H 0.64237 0.07134 0.05297 0.0
H789 H 0.67393 0.044 0.19773 0.0
H790 H 0.59917 0.01492 0.9863 0.0
H791 H 0.62597 0.02391 0.93495 0.0
H792 H 0.61873 0.04738 0.96327 0.0
H793 H 0.63885 0.98134 0.16369 0.0
H794 H 0.67019 0.00408 0.1896 0.0
H795 H 0.66452 0.99045 0.10807 0.0
C796 C 0.65019 0.59464 0.2004 0.0
C797 C 0.66419 0.60413 0.14222 0.0
C798 C 0.63961 0.60732 0.23261 0.0
C799 C 0.64313 0.63015 0.20622 0.0
C800 C 0.65775 0.6402 0.14835 0.0
C801 C 0.66809 0.62702 0.11687 0.0
C802 C 0.62404 0.59585 0.29393 0.0
C803 C 0.66199 0.66456 0.11892 0.0
C804 C 0.59196 0.64518 0.24787 0.0
C805 C 0.60264 0.66213 0.3005 0.0
C806 C 0.6052 0.63517 0.21586 0.0
C807 C 0.62985 0.64233 0.2367 0.0
C808 C 0.64097 0.65978 0.28908 0.0
C809 C 0.62718 0.66944 0.32058 0.0
C810 C 0.59255 0.61648 0.16064 0.0
C811 C 0.66725 0.66791 0.31246 0.0
H812 H 0.64717 0.577 0.22052 0.0
H813 H 0.679 0.63451 0.07214 0.0
H814 H 0.63111 0.60961 0.33503 0.0
H815 H 0.60431 0.59087 0.28444 0.0
H816 H 0.6242 0.57866 0.31002 0.0
H817 H 0.67528 0.67078 0.0767 0.0
H818 H 0.64385 0.66228 0.10147 0.0
H819 H 0.66942 0.67955 0.15697 0.0
H820 H 0.57302 0.63948 0.2319 0.0
H821 H 0.63557 0.68264 0.36095 0.0
H822 H 0.59046 0.59809 0.17474 0.0
H823 H 0.6043 0.62288 0.11546 0.0
H824 H 0.57368 0.61366 0.14862 0.0
H825 H 0.66794 0.65155 0.33304 0.0
H826 H 0.67376 0.68274 0.35095 0.0
H827 H 0.68053 0.6751 0.27032 0.0
C828 C 0.04117 0.66015 0.28485 0.0
C829 C 0.06105 0.65751 0.30929 0.0
C830 C 0.01827 0.65003 0.31918 0.0
C831 C 0.01515 0.63674 0.37884 0.0
C832 C 0.03532 0.63439 0.40414 0.0
C833 C 0.05803 0.64489 0.36925 0.0
C834 C 0.99724 0.65311 0.29097 0.0
C835 C 0.0327 0.62012 0.4671 0.0
C836 C 0.96132 0.62248 0.49674 0.0
C837 C 0.9438 0.59773 0.47906 0.0
C838 C 0.9845 0.63568 0.46372 0.0
C839 C 0.9903 0.62369 0.41248 0.0
C840 C 0.97265 0.5987 0.39469 0.0
C841 C 0.94962 0.5861 0.42794 0.0
C842 C 0.0028 0.66238 0.48369 0.0
C843 C 0.97819 0.58511 0.34096 0.0
H844 H 0.04347 0.67003 0.23876 0.0
H845 H 0.07333 0.64279 0.3885 0.0
H846 H 0.98134 0.63448 0.27671 0.0
H847 H 0.99014 0.66107 0.3288 0.0
H848 H 0.00325 0.6655 0.24689 0.0
H849 H 0.05053 0.621 0.48172 0.0
H850 H 0.0265 0.62773 0.50803 0.0
H851 H 0.01809 0.60012 0.46064 0.0
H852 H 0.95684 0.63159 0.53595 0.0
H853 H 0.93617 0.56695 0.41404 0.0
H854 H 0.00778 0.67495 0.4402 0.0
H855 H 0.02043 0.66371 0.50206 0.0
H856 H 0.99512 0.66931 0.52281 0.0
H857 H 0.98232 0.59569 0.29395 0.0
H858 H 0.96232 0.56577 0.3326 0.0
H859 H 0.9951 0.58395 0.35416 0.0
C860 C 0.40255 0.03676 0.47273 0.0
C861 C 0.39236 0.05147 0.45155 0.0
C862 C 0.38769 0.01379 0.50478 0.0
C863 C 0.36206 0.00553 0.51731 0.0
C864 C 0.3515 0.02007 0.49484 0.0
C865 C 0.36676 0.04282 0.46151 0.0
C866 C 0.39959 0.99861 0.52648 0.0
C867 C 0.32436 0.01205 0.50812 0.0
C868 C 0.32318 0.93616 0.55698 0.0
C869 C 0.32506 0.93627 0.62604 0.0
C870 C 0.33401 0.95865 0.52096 0.0
C871 C 0.34674 0.98184 0.55488 0.0
C872 C 0.34721 0.98209 0.62485 0.0
C873 C 0.33653 0.95927 0.65965 0.0
C874 C 0.3333 0.9575 0.44648 0.0
C875 C 0.36019 0.00646 0.66287 0.0
H876 H 0.42234 0.04341 0.46489 0.0
H877 H 0.35893 0.05434 0.44582 0.0
H878 H 0.39917 0.99719 0.5811 0.0
H879 H 0.38879 0.97922 0.50664 0.0
H880 H 0.41939 0.00703 0.50985 0.0
H881 H 0.31868 0.02475 0.48447 0.0
H882 H 0.31192 0.99266 0.48992 0.0
H883 H 0.3213 0.0119 0.56213 0.0
H884 H 0.3143 0.91844 0.53061 0.0
H885 H 0.33791 0.95946 0.71302 0.0
H886 H 0.35243 0.96365 0.42737 0.0
H887 H 0.32736 0.97045 0.42601 0.0
H888 H 0.32037 0.93825 0.42784 0.0
H889 H 0.3808 0.01543 0.65587 0.0
H890 H 0.3561 0.00358 0.71658 0.0
H891 H 0.35434 0.01971 0.64408 0.0
C892 C 0.36355 0.41455 0.69859 0.0
C893 C 0.34488 0.40376 0.64993 0.0
C894 C 0.37381 0.401 0.72755 0.0
C895 C 0.36501 0.37587 0.70802 0.0
C896 C 0.3459 0.36468 0.65951 0.0
C897 C 0.33615 0.37885 0.63061 0.0
C898 C 0.39441 0.4138 0.77831 0.0
C899 C 0.3359 0.33784 0.63796 0.0
C900 C 0.41137 0.35318 0.7355 0.0
C901 C 0.40362 0.34096 0.79664 0.0
C902 C 0.39843 0.36384 0.70509 0.0
C903 C 0.37697 0.36201 0.73612 0.0
C904 C 0.36845 0.34887 0.7967 0.0
C905 C 0.38201 0.33864 0.82656 0.0
C906 C 0.40838 0.37798 0.64104 0.0
C907 C 0.34546 0.34627 0.83084 0.0
H908 H 0.3704 0.43382 0.71374 0.0
H909 H 0.32159 0.37039 0.59338 0.0
H910 H 0.38889 0.40301 0.82512 0.0
H911 H 0.41176 0.41436 0.76059 0.0
H912 H 0.39882 0.43332 0.78888 0.0
H913 H 0.32013 0.3315 0.60233 0.0
H914 H 0.35111 0.33585 0.61452 0.0
H915 H 0.32932 0.32522 0.68151 0.0
H916 H 0.42805 0.35503 0.71197 0.0
H917 H 0.37584 0.32906 0.87357 0.0
H918 H 0.41472 0.39815 0.64886 0.0
H919 H 0.39332 0.37085 0.60324 0.0
H920 H 0.4244 0.37641 0.62135 0.0
H921 H 0.34921 0.36496 0.84812 0.0
H922 H 0.33986 0.33344 0.87399 0.0
H923 H 0.32947 0.3391 0.79581 0.0
loop_
_geom_bond_atom_site_label_1
_geom_bond_atom_site_label_2
_geom_bond_distance
_geom_bond_site_symmetry_2
_ccdc_geom_bond_type
In0 O1 2.294 . S
In0 O2 2.326 1_554 S
In0 O6 2.266 . S
In0 O7 2.326 . S
In0 O8 2.266 1_554 S
In0 O9 2.326 . S
In0 O11 2.294 . S
In0 O12 2.326 . S
O1 In0 2.294 . S
O1 C10 1.240 . S
O2 In0 2.326 1_556 S
O2 C10 1.252 1_556 S
C3 O6 1.252 . S
C3 O7 1.260 . S
C4 O11 1.240 . S
C4 O12 1.252 . S
C5 O8 1.252 . S
C5 O9 1.260 1_556 S
O6 In0 2.266 . S
O6 C3 1.252 . S
O7 In0 2.326 . S
O7 C3 1.260 . S
O8 In0 2.266 1_556 S
O8 C5 1.252 . S
O9 In0 2.326 . S
O9 C5 1.260 1_554 S
C10 O1 1.240 . S
C10 O2 1.252 1_554 S
O11 In0 2.294 . S
O11 C4 1.240 . S
O12 In0 2.326 . S
O12 C4 1.252 . S
In13 O14 2.294 . S
In13 O15 2.326 . S
In13 O19 2.266 . S
In13 O20 2.326 . S
In13 O21 2.266 . S
In13 O22 2.326 . S
In13 O24 2.294 . S
In13 O25 2.326 . S
O14 In13 2.294 . S
O14 C23 1.240 . S
O15 In13 2.326 . S
O15 C23 1.252 . S
C16 O19 1.252 . S
C16 O20 1.260 . S
C17 O24 1.240 . S
C17 O25 1.252 . S
C18 O21 1.252 . S
C18 O22 1.260 . S
O19 In13 2.266 . S
O19 C16 1.252 . S
O20 In13 2.326 . S
O20 C16 1.260 . S
O21 In13 2.266 . S
O21 C18 1.252 . S
O22 In13 2.326 . S
O22 C18 1.260 . S
C23 O14 1.240 . S
C23 O15 1.252 . S
O24 In13 2.294 . S
O24 C17 1.240 . S
O25 In13 2.326 . S
O25 C17 1.252 . S
In26 O27 2.294 . S
In26 O28 2.326 . S
In26 O32 2.266 . S
In26 O33 2.326 . S
In26 O34 2.266 . S
In26 O35 2.326 . S
In26 O37 2.294 . S
In26 O38 2.326 . S
O27 In26 2.294 . S
O27 C36 1.240 . S
O28 In26 2.326 . S
O28 C36 1.252 . S
C29 O32 1.252 . S
C29 O33 1.260 . S
C30 O37 1.240 . S
C30 O38 1.252 . S
C31 O34 1.252 . S
C31 O35 1.260 . S
O32 In26 2.266 . S
O32 C29 1.252 . S
O33 In26 2.326 . S
O33 C29 1.260 . S
O34 In26 2.266 . S
O34 C31 1.252 . S
O35 In26 2.326 . S
O35 C31 1.260 . S
C36 O27 1.240 . S
C36 O28 1.252 . S
O37 In26 2.294 . S
O37 C30 1.240 . S
O38 In26 2.326 . S
O38 C30 1.252 . S
In39 O40 2.294 . S
In39 O41 2.326 . S
In39 O45 2.266 . S
In39 O46 2.326 . S
In39 O47 2.266 . S
In39 O48 2.326 . S
In39 O50 2.294 . S
In39 O51 2.326 . S
O40 In39 2.294 . S
O40 C49 1.240 . S
O41 In39 2.326 . S
O41 C49 1.252 . S
C42 O45 1.252 . S
C42 O46 1.260 . S
C43 O50 1.240 . S
C43 O51 1.252 . S
C44 O47 1.252 . S
C44 O48 1.260 . S
O45 In39 2.266 . S
O45 C42 1.252 . S
O46 In39 2.326 . S
O46 C42 1.260 . S
O47 In39 2.266 . S
O47 C44 1.252 . S
O48 In39 2.326 . S
O48 C44 1.260 . S
C49 O40 1.240 . S
C49 O41 1.252 . S
O50 In39 2.294 . S
O50 C43 1.240 . S
O51 In39 2.326 . S
O51 C43 1.252 . S
In52 O53 2.294 . S
In52 O54 2.326 . S
In52 O58 2.266 . S
In52 O59 2.326 . S
In52 O60 2.266 . S
In52 O61 2.326 . S
In52 O63 2.294 . S
In52 O64 2.326 . S
O53 In52 2.294 . S
O53 C62 1.240 . S
O54 In52 2.326 . S
O54 C62 1.252 . S
C55 O58 1.252 . S
C55 O59 1.260 . S
C56 O63 1.240 . S
C56 O64 1.252 . S
C57 O60 1.252 . S
C57 O61 1.260 . S
O58 In52 2.266 . S
O58 C55 1.252 . S
O59 In52 2.326 . S
O59 C55 1.260 . S
O60 In52 2.266 . S
O60 C57 1.252 . S
O61 In52 2.326 . S
O61 C57 1.260 . S
C62 O53 1.240 . S
C62 O54 1.252 . S
O63 In52 2.294 . S
O63 C56 1.240 . S
O64 In52 2.326 . S
O64 C56 1.252 . S
In65 O66 2.294 . S
In65 O67 2.326 . S
In65 O71 2.266 . S
In65 O72 2.326 . S
In65 O73 2.266 . S
In65 O74 2.326 . S
In65 O76 2.294 . S
In65 O77 2.326 . S
O66 In65 2.294 . S
O66 C75 1.240 . S
O67 In65 2.326 . S
O67 C75 1.252 . S
C68 O71 1.252 . S
C68 O72 1.260 . S
C69 O76 1.240 . S
C69 O77 1.252 . S
C70 O73 1.252 . S
C70 O74 1.260 . S
O71 In65 2.266 . S
O71 C68 1.252 . S
O72 In65 2.326 . S
O72 C68 1.260 . S
O73 In65 2.266 . S
O73 C70 1.252 . S
O74 In65 2.326 . S
O74 C70 1.260 . S
C75 O66 1.240 . S
C75 O67 1.252 . S
O76 In65 2.294 . S
O76 C69 1.240 . S
O77 In65 2.326 . S
O77 C69 1.252 . S
In78 O79 2.294 . S
In78 O80 2.326 . S
In78 O84 2.266 . S
In78 O85 2.326 . S
In78 O86 2.266 . S
In78 O87 2.326 . S
In78 O89 2.294 . S
In78 O90 2.326 . S
O79 In78 2.294 . S
O79 C88 1.240 . S
O80 In78 2.326 . S
O80 C88 1.252 . S
C81 O84 1.252 . S
C81 O85 1.260 . S
C82 O89 1.240 . S
C82 O90 1.252 . S
C83 O86 1.252 . S
C83 O87 1.260 . S
O84 In78 2.266 . S
O84 C81 1.252 . S
O85 In78 2.326 . S
O85 C81 1.260 . S
O86 In78 2.266 . S
O86 C83 1.252 . S
O87 In78 2.326 . S
O87 C83 1.260 . S
C88 O79 1.240 . S
C88 O80 1.252 . S
O89 In78 2.294 . S
O89 C82 1.240 . S
O90 In78 2.326 . S
O90 C82 1.252 . S
In91 O92 2.294 . S
In91 O93 2.326 1_554 S
In91 O97 2.266 . S
In91 O98 2.326 . S
In91 O99 2.266 1_554 S
In91 O100 2.326 1_554 S
In91 O102 2.294 . S
In91 O103 2.326 . S
O92 In91 2.294 . S
O92 C101 1.240 . S
O93 In91 2.326 1_556 S
O93 C101 1.252 1_556 S
C94 O97 1.252 . S
C94 O98 1.260 . S
C95 O102 1.240 . S
C95 O103 1.252 . S
C96 O99 1.252 . S
C96 O100 1.260 . S
O97 In91 2.266 . S
O97 C94 1.252 . S
O98 In91 2.326 . S
O98 C94 1.260 . S
O99 In91 2.266 1_556 S
O99 C96 1.252 . S
O100 In91 2.326 1_556 S
O100 C96 1.260 . S
C101 O92 1.240 . S
C101 O93 1.252 1_554 S
O102 In91 2.294 . S
O102 C95 1.240 . S
O103 In91 2.326 . S
O103 C95 1.252 . S
In104 O105 2.294 . S
In104 O106 2.326 . S
In104 O110 2.266 . S
In104 O111 2.326 . S
In104 O112 2.266 . S
In104 O113 2.326 . S
In104 O115 2.294 . S
In104 O116 2.326 . S
O105 In104 2.294 . S
O105 C114 1.240 . S
O106 In104 2.326 . S
O106 C114 1.252 . S
C107 O110 1.252 . S
C107 O111 1.260 . S
C108 O115 1.240 . S
C108 O116 1.252 . S
C109 O112 1.252 . S
C109 O113 1.260 . S
O110 In104 2.266 . S
O110 C107 1.252 . S
O111 In104 2.326 . S
O111 C107 1.260 . S
O112 In104 2.266 . S
O112 C109 1.252 . S
O113 In104 2.326 . S
O113 C109 1.260 . S
C114 O105 1.240 . S
C114 O106 1.252 . S
O115 In104 2.294 . S
O115 C108 1.240 . S
O116 In104 2.326 . S
O116 C108 1.252 . S
In117 O118 2.294 . S
In117 O119 2.326 . S
In117 O123 2.266 . S
In117 O124 2.326 . S
In117 O125 2.266 . S
In117 O126 2.326 . S
In117 O128 2.294 . S
In117 O129 2.326 . S
O118 In117 2.294 . S
O118 C127 1.240 . S
O119 In117 2.326 . S
O119 C127 1.252 . S
C120 O123 1.252 . S
C120 O124 1.260 . S
C121 O128 1.240 . S
C121 O129 1.252 . S
C122 O125 1.252 . S
C122 O126 1.260 . S
O123 In117 2.266 . S
O123 C120 1.252 . S
O124 In117 2.326 . S
O124 C120 1.260 . S
O125 In117 2.266 . S
O125 C122 1.252 . S
O126 In117 2.326 . S
O126 C122 1.260 . S
C127 O118 1.240 . S
C127 O119 1.252 . S
O128 In117 2.294 . S
O128 C121 1.240 . S
O129 In117 2.326 . S
O129 C121 1.252 . S
In130 O131 2.294 . S
In130 O132 2.326 . S
In130 O136 2.266 . S
In130 O137 2.326 . S
In130 O138 2.266 . S
In130 O139 2.326 . S
In130 O141 2.294 . S
In130 O142 2.326 . S
O131 In130 2.294 . S
O131 C140 1.240 . S
O132 In130 2.326 . S
O132 C140 1.252 . S
C133 O136 1.252 . S
C133 O137 1.260 . S
C134 O141 1.240 . S
C134 O142 1.252 . S
C135 O138 1.252 . S
C135 O139 1.260 . S
O136 In130 2.266 . S
O136 C133 1.252 . S
O137 In130 2.326 . S
O137 C133 1.260 . S
O138 In130 2.266 . S
O138 C135 1.252 . S
O139 In130 2.326 . S
O139 C135 1.260 . S
C140 O131 1.240 . S
C140 O132 1.252 . S
O141 In130 2.294 . S
O141 C134 1.240 . S
O142 In130 2.326 . S
O142 C134 1.252 . S
In143 O144 2.294 . S
In143 O145 2.326 . S
In143 O149 2.266 . S
In143 O150 2.326 . S
In143 O151 2.266 . S
In143 O152 2.326 . S
In143 O154 2.294 . S
In143 O155 2.326 . S
O144 In143 2.294 . S
O144 C153 1.240 . S
O145 In143 2.326 . S
O145 C153 1.252 . S
C146 O149 1.252 . S
C146 O150 1.260 . S
C147 O154 1.240 . S
C147 O155 1.252 . S
C148 O151 1.252 . S
C148 O152 1.260 . S
O149 In143 2.266 . S
O149 C146 1.252 . S
O150 In143 2.326 . S
O150 C146 1.260 . S
O151 In143 2.266 . S
O151 C148 1.252 . S
O152 In143 2.326 . S
O152 C148 1.260 . S
C153 O144 1.240 . S
C153 O145 1.252 . S
O154 In143 2.294 . S
O154 C147 1.240 . S
O155 In143 2.326 . S
O155 C147 1.252 . S
C156 C157 1.391 . S
C156 C158 1.394 . S
C156 H172 0.931 . S
C157 C156 1.391 . S
C157 C161 1.376 . S
C158 C156 1.394 . S
C158 C159 1.369 . S
C158 C162 1.531 . S
C159 C158 1.369 . S
C159 C160 1.410 . S
C159 C167 1.503 . S
C160 C159 1.410 . S
C160 C161 1.392 . S
C160 C163 1.511 . S
C161 C157 1.376 . S
C161 C160 1.392 . S
C161 H173 0.929 . S
C162 C158 1.531 . S
C162 H174 0.960 . S
C162 H175 0.962 . S
C162 H176 0.960 . S
C163 C160 1.511 . S
C163 H177 0.961 . S
C163 H178 0.961 . S
C163 H179 0.961 . S
C164 C165 1.370 . S
C164 C166 1.363 . S
C164 H180 0.931 . S
C165 C164 1.370 . S
C165 C169 1.408 . S
C166 C164 1.363 . S
C166 C167 1.370 . S
C166 C170 1.524 . S
C167 C159 1.503 . S
C167 C166 1.370 . S
C167 C168 1.403 . S
C168 C167 1.403 . S
C168 C169 1.404 . S
C168 C171 1.539 . S
C169 C165 1.408 . S
C169 C168 1.404 . S
C169 H181 0.930 . S
C170 C166 1.524 . S
C170 H182 0.956 . S
C170 H183 0.961 . S
C170 H184 0.961 . S
C171 C168 1.539 . S
C171 H185 0.958 . S
C171 H186 0.961 . S
C171 H187 0.960 . S
H172 C156 0.931 . S
H173 C161 0.929 . S
H174 C162 0.960 . S
H175 C162 0.962 . S
H176 C162 0.960 . S
H177 C163 0.961 . S
H178 C163 0.961 . S
H179 C163 0.961 . S
H180 C164 0.931 . S
H181 C169 0.930 . S
H182 C170 0.956 . S
H183 C170 0.961 . S
H184 C170 0.961 . S
H185 C171 0.958 . S
H186 C171 0.961 . S
H187 C171 0.960 . S
C188 C189 1.391 . S
C188 C190 1.394 . S
C188 H204 0.931 . S
C189 C188 1.391 . S
C189 C193 1.376 . S
C190 C188 1.394 . S
C190 C191 1.369 . S
C190 C194 1.531 . S
C191 C190 1.369 . S
C191 C192 1.410 . S
C191 C199 1.503 . S
C192 C191 1.410 . S
C192 C193 1.392 . S
C192 C195 1.511 . S
C193 C189 1.376 . S
C193 C192 1.392 . S
C193 H205 0.929 . S
C194 C190 1.531 . S
C194 H206 0.960 . S
C194 H207 0.962 . S
C194 H208 0.960 . S
C195 C192 1.511 . S
C195 H209 0.961 . S
C195 H210 0.961 . S
C195 H211 0.961 . S
C196 C197 1.370 . S
C196 C198 1.363 . S
C196 H212 0.931 . S
C197 C196 1.370 . S
C197 C201 1.408 . S
C198 C196 1.363 . S
C198 C199 1.370 . S
C198 C202 1.524 . S
C199 C191 1.503 . S
C199 C198 1.370 . S
C199 C200 1.403 . S
C200 C199 1.403 . S
C200 C201 1.404 . S
C200 C203 1.539 . S
C201 C197 1.408 . S
C201 C200 1.404 . S
C201 H213 0.930 . S
C202 C198 1.524 . S
C202 H214 0.956 . S
C202 H215 0.961 . S
C202 H216 0.961 . S
C203 C200 1.539 . S
C203 H217 0.958 . S
C203 H218 0.961 . S
C203 H219 0.960 . S
H204 C188 0.931 . S
H205 C193 0.929 . S
H206 C194 0.960 . S
H207 C194 0.962 . S
H208 C194 0.960 . S
H209 C195 0.961 . S
H210 C195 0.961 . S
H211 C195 0.961 . S
H212 C196 0.931 . S
H213 C201 0.930 . S
H214 C202 0.956 . S
H215 C202 0.961 . S
H216 C202 0.961 . S
H217 C203 0.958 . S
H218 C203 0.961 . S
H219 C203 0.960 . S
C220 C221 1.391 . S
C220 C222 1.394 . S
C220 H236 0.931 . S
C221 C220 1.391 . S
C221 C225 1.376 . S
C222 C220 1.394 . S
C222 C223 1.369 . S
C222 C226 1.531 . S
C223 C222 1.369 . S
C223 C224 1.410 . S
C223 C231 1.503 . S
C224 C223 1.410 . S
C224 C225 1.392 . S
C224 C227 1.511 . S
C225 C221 1.376 . S
C225 C224 1.392 . S
C225 H237 0.929 . S
C226 C222 1.531 . S
C226 H238 0.960 . S
C226 H239 0.962 . S
C226 H240 0.960 . S
C227 C224 1.511 . S
C227 H241 0.961 . S
C227 H242 0.961 . S
C227 H243 0.961 . S
C228 C229 1.370 . S
C228 C230 1.363 . S
C228 H244 0.931 . S
C229 C228 1.370 . S
C229 C233 1.408 . S
C230 C228 1.363 . S
C230 C231 1.370 . S
C230 C234 1.524 . S
C231 C223 1.503 . S
C231 C230 1.370 . S
C231 C232 1.403 . S
C232 C231 1.403 . S
C232 C233 1.404 . S
C232 C235 1.539 . S
C233 C229 1.408 . S
C233 C232 1.404 . S
C233 H245 0.930 . S
C234 C230 1.524 . S
C234 H246 0.956 . S
C234 H247 0.961 . S
C234 H248 0.961 . S
C235 C232 1.539 . S
C235 H249 0.958 . S
C235 H250 0.961 . S
C235 H251 0.960 . S
H236 C220 0.931 . S
H237 C225 0.929 . S
H238 C226 0.960 . S
H239 C226 0.962 . S
H240 C226 0.960 . S
H241 C227 0.961 . S
H242 C227 0.961 . S
H243 C227 0.961 . S
H244 C228 0.931 . S
H245 C233 0.930 . S
H246 C234 0.956 . S
H247 C234 0.961 . S
H248 C234 0.961 . S
H249 C235 0.958 . S
H250 C235 0.961 . S
H251 C235 0.960 . S
C252 C253 1.391 . S
C252 C254 1.394 . S
C252 H268 0.931 . S
C253 C252 1.391 . S
C253 C257 1.376 . S
C254 C252 1.394 . S
C254 C255 1.369 . S
C254 C258 1.531 . S
C255 C254 1.369 . S
C255 C256 1.410 . S
C255 C263 1.503 . S
C256 C255 1.410 . S
C256 C257 1.392 . S
C256 C259 1.511 . S
C257 C253 1.376 . S
C257 C256 1.392 . S
C257 H269 0.929 . S
C258 C254 1.531 . S
C258 H270 0.960 . S
C258 H271 0.962 . S
C258 H272 0.960 . S
C259 C256 1.511 . S
C259 H273 0.961 . S
C259 H274 0.961 . S
C259 H275 0.961 . S
C260 C261 1.370 . S
C260 C262 1.363 . S
C260 H276 0.931 . S
C261 C260 1.370 . S
C261 C265 1.408 . S
C262 C260 1.363 . S
C262 C263 1.370 . S
C262 C266 1.524 . S
C263 C255 1.503 . S
C263 C262 1.370 . S
C263 C264 1.403 . S
C264 C263 1.403 . S
C264 C265 1.404 . S
C264 C267 1.539 . S
C265 C261 1.408 . S
C265 C264 1.404 . S
C265 H277 0.930 . S
C266 C262 1.524 . S
C266 H278 0.956 . S
C266 H279 0.961 . S
C266 H280 0.961 . S
C267 C264 1.539 . S
C267 H281 0.958 . S
C267 H282 0.961 . S
C267 H283 0.960 . S
H268 C252 0.931 . S
H269 C257 0.929 . S
H270 C258 0.960 . S
H271 C258 0.962 . S
H272 C258 0.960 . S
H273 C259 0.961 . S
H274 C259 0.961 . S
H275 C259 0.961 . S
H276 C260 0.931 . S
H277 C265 0.930 . S
H278 C266 0.956 . S
H279 C266 0.961 . S
H280 C266 0.961 . S
H281 C267 0.958 . S
H282 C267 0.961 . S
H283 C267 0.960 . S
C284 C285 1.391 . S
C284 C286 1.394 . S
C284 H300 0.931 . S
C285 C284 1.391 . S
C285 C289 1.376 . S
C286 C284 1.394 . S
C286 C287 1.369 . S
C286 C290 1.531 1_556 S
C287 C286 1.369 . S
C287 C288 1.410 . S
C287 C295 1.507 . S
C288 C287 1.410 . S
C288 C289 1.392 . S
C288 C291 1.511 . S
C289 C285 1.376 . S
C289 C288 1.392 . S
C289 H301 0.929 . S
C290 C286 1.531 1_554 S
C290 H302 0.960 . S
C290 H303 0.962 . S
C290 H304 0.960 . S
C291 C288 1.511 . S
C291 H305 0.961 . S
C291 H306 0.961 . S
C291 H307 0.961 . S
C292 C293 1.370 . S
C292 C294 1.363 . S
C292 H308 0.931 . S
C293 C292 1.370 . S
C293 C297 1.408 . S
C294 C292 1.363 . S
C294 C295 1.370 1_554 S
C294 C298 1.524 1_554 S
C295 C287 1.507 . S
C295 C294 1.370 1_556 S
C295 C296 1.400 1_556 S
C296 C295 1.400 1_554 S
C296 C297 1.404 . S
C296 C299 1.539 . S
C297 C293 1.408 . S
C297 C296 1.404 . S
C297 H309 0.930 . S
C298 C294 1.524 1_556 S
C298 H310 0.956 . S
C298 H311 0.961 . S
C298 H312 0.961 . S
C299 C296 1.539 . S
C299 H313 0.958 . S
C299 H314 0.961 . S
C299 H315 0.960 1_554 S
H300 C284 0.931 . S
H301 C289 0.929 . S
H302 C290 0.960 . S
H303 C290 0.962 . S
H304 C290 0.960 . S
H305 C291 0.961 . S
H306 C291 0.961 . S
H307 C291 0.961 . S
H308 C292 0.931 . S
H309 C297 0.930 . S
H310 C298 0.956 . S
H311 C298 0.961 . S
H312 C298 0.961 . S
H313 C299 0.958 . S
H314 C299 0.961 . S
H315 C299 0.960 1_556 S
C316 C317 1.391 . S
C316 C318 1.394 . S
C316 H332 0.931 . S
C317 C316 1.391 . S
C317 C321 1.376 . S
C318 C316 1.394 . S
C318 C319 1.369 . S
C318 C322 1.531 . S
C319 C318 1.369 . S
C319 C320 1.410 . S
C319 C327 1.503 . S
C320 C319 1.410 . S
C320 C321 1.392 . S
C320 C323 1.511 . S
C321 C317 1.376 . S
C321 C320 1.392 . S
C321 H333 0.929 . S
C322 C318 1.531 . S
C322 H334 0.960 . S
C322 H335 0.962 . S
C322 H336 0.960 . S
C323 C320 1.511 . S
C323 H337 0.961 . S
C323 H338 0.961 . S
C323 H339 0.961 . S
C324 C325 1.370 . S
C324 C326 1.363 . S
C324 H340 0.931 . S
C325 C324 1.370 . S
C325 C329 1.408 . S
C326 C324 1.363 . S
C326 C327 1.370 . S
C326 C330 1.524 . S
C327 C319 1.503 . S
C327 C326 1.370 . S
C327 C328 1.403 . S
C328 C327 1.403 . S
C328 C329 1.404 . S
C328 C331 1.539 . S
C329 C325 1.408 . S
C329 C328 1.404 . S
C329 H341 0.930 . S
C330 C326 1.524 . S
C330 H342 0.956 . S
C330 H343 0.961 . S
C330 H344 0.961 . S
C331 C328 1.539 . S
C331 H345 0.958 . S
C331 H346 0.961 . S
C331 H347 0.960 . S
H332 C316 0.931 . S
H333 C321 0.929 . S
H334 C322 0.960 . S
H335 C322 0.962 . S
H336 C322 0.960 . S
H337 C323 0.961 . S
H338 C323 0.961 . S
H339 C323 0.961 . S
H340 C324 0.931 . S
H341 C329 0.930 . S
H342 C330 0.956 . S
H343 C330 0.961 . S
H344 C330 0.961 . S
H345 C331 0.958 . S
H346 C331 0.961 . S
H347 C331 0.960 . S
C348 C349 1.391 . S
C348 C350 1.394 . S
C348 H364 0.931 . S
C349 C348 1.391 . S
C349 C353 1.376 . S
C350 C348 1.394 . S
C350 C351 1.369 . S
C350 C354 1.531 . S
C351 C350 1.369 . S
C351 C352 1.410 . S
C351 C359 1.503 . S
C352 C351 1.410 . S
C352 C353 1.392 . S
C352 C355 1.511 . S
C353 C349 1.376 . S
C353 C352 1.392 . S
C353 H365 0.929 . S
C354 C350 1.531 . S
C354 H366 0.960 . S
C354 H367 0.962 . S
C354 H368 0.960 . S
C355 C352 1.511 . S
C355 H369 0.961 . S
C355 H370 0.961 . S
C355 H371 0.961 . S
C356 C357 1.370 . S
C356 C358 1.363 . S
C356 H372 0.931 . S
C357 C356 1.370 . S
C357 C361 1.408 . S
C358 C356 1.363 . S
C358 C359 1.370 . S
C358 C362 1.524 . S
C359 C351 1.503 . S
C359 C358 1.370 . S
C359 C360 1.403 . S
C360 C359 1.403 . S
C360 C361 1.404 . S
C360 C363 1.539 . S
C361 C357 1.408 . S
C361 C360 1.404 . S
C361 H373 0.930 . S
C362 C358 1.524 . S
C362 H374 0.956 . S
C362 H375 0.961 . S
C362 H376 0.961 . S
C363 C360 1.539 . S
C363 H377 0.958 1_554 S
C363 H378 0.961 . S
C363 H379 0.960 . S
H364 C348 0.931 . S
H365 C353 0.929 . S
H366 C354 0.960 . S
H367 C354 0.962 . S
H368 C354 0.960 . S
H369 C355 0.961 . S
H370 C355 0.961 . S
H371 C355 0.961 . S
H372 C356 0.931 . S
H373 C361 0.930 . S
H374 C362 0.956 . S
H375 C362 0.961 . S
H376 C362 0.961 . S
H377 C363 0.958 1_556 S
H378 C363 0.961 . S
H379 C363 0.960 . S
C380 C381 1.391 . S
C380 C382 1.394 . S
C380 H396 0.931 . S
C381 C380 1.391 . S
C381 C385 1.376 . S
C382 C380 1.394 . S
C382 C383 1.369 . S
C382 C386 1.531 . S
C383 C382 1.369 . S
C383 C384 1.410 . S
C383 C391 1.503 . S
C384 C383 1.410 . S
C384 C385 1.392 . S
C384 C387 1.511 . S
C385 C381 1.376 . S
C385 C384 1.392 . S
C385 H397 0.929 . S
C386 C382 1.531 . S
C386 H398 0.960 . S
C386 H399 0.962 . S
C386 H400 0.960 . S
C387 C384 1.511 . S
C387 H401 0.961 . S
C387 H402 0.961 . S
C387 H403 0.961 . S
C388 C389 1.370 . S
C388 C390 1.363 . S
C388 H404 0.931 . S
C389 C388 1.370 . S
C389 C393 1.408 . S
C390 C388 1.363 . S
C390 C391 1.370 . S
C390 C394 1.524 . S
C391 C383 1.503 . S
C391 C390 1.370 . S
C391 C392 1.403 . S
C392 C391 1.403 . S
C392 C393 1.404 . S
C392 C395 1.539 . S
C393 C389 1.408 . S
C393 C392 1.404 . S
C393 H405 0.930 . S
C394 C390 1.524 . S
C394 H406 0.956 . S
C394 H407 0.961 . S
C394 H408 0.961 . S
C395 C392 1.539 . S
C395 H409 0.958 . S
C395 H410 0.961 . S
C395 H411 0.960 . S
H396 C380 0.931 . S
H397 C385 0.929 . S
H398 C386 0.960 . S
H399 C386 0.962 . S
H400 C386 0.960 . S
H401 C387 0.961 . S
H402 C387 0.961 . S
H403 C387 0.961 . S
H404 C388 0.931 . S
H405 C393 0.930 . S
H406 C394 0.956 . S
H407 C394 0.961 . S
H408 C394 0.961 . S
H409 C395 0.958 . S
H410 C395 0.961 . S
H411 C395 0.960 . S
C412 C413 1.391 . S
C412 C414 1.394 . S
C412 H428 0.931 . S
C413 C412 1.391 . S
C413 C417 1.376 . S
C414 C412 1.394 . S
C414 C415 1.369 . S
C414 C418 1.531 . S
C415 C414 1.369 . S
C415 C416 1.410 . S
C415 C423 1.503 . S
C416 C415 1.410 . S
C416 C417 1.392 . S
C416 C419 1.511 . S
C417 C413 1.376 . S
C417 C416 1.392 . S
C417 H429 0.929 . S
C418 C414 1.531 . S
C418 H430 0.960 . S
C418 H431 0.962 . S
C418 H432 0.960 . S
C419 C416 1.511 . S
C419 H433 0.961 . S
C419 H434 0.961 . S
C419 H435 0.961 . S
C420 C421 1.370 . S
C420 C422 1.363 . S
C420 H436 0.931 . S
C421 C420 1.370 . S
C421 C425 1.408 . S
C422 C420 1.363 . S
C422 C423 1.370 . S
C422 C426 1.524 . S
C423 C415 1.503 . S
C423 C422 1.370 . S
C423 C424 1.403 . S
C424 C423 1.403 . S
C424 C425 1.404 . S
C424 C427 1.539 . S
C425 C421 1.408 . S
C425 C424 1.404 . S
C425 H437 0.930 . S
C426 C422 1.524 . S
C426 H438 0.956 . S
C426 H439 0.961 . S
C426 H440 0.961 . S
C427 C424 1.539 . S
C427 H441 0.958 . S
C427 H442 0.961 . S
C427 H443 0.960 . S
H428 C412 0.931 . S
H429 C417 0.929 . S
H430 C418 0.960 . S
H431 C418 0.962 . S
H432 C418 0.960 . S
H433 C419 0.961 . S
H434 C419 0.961 . S
H435 C419 0.961 . S
H436 C420 0.931 . S
H437 C425 0.930 . S
H438 C426 0.956 . S
H439 C426 0.961 . S
H440 C426 0.961 . S
H441 C427 0.958 . S
H442 C427 0.961 . S
H443 C427 0.960 . S
C444 C445 1.391 . S
C444 C446 1.394 . S
C444 H460 0.931 . S
C445 C444 1.391 . S
C445 C449 1.376 . S
C446 C444 1.394 . S
C446 C447 1.369 . S
C446 C450 1.531 . S
C447 C446 1.369 . S
C447 C448 1.410 . S
C447 C455 1.503 . S
C448 C447 1.410 . S
C448 C449 1.392 . S
C448 C451 1.511 . S
C449 C445 1.376 . S
C449 C448 1.392 . S
C449 H461 0.929 . S
C450 C446 1.531 . S
C450 H462 0.960 . S
C450 H463 0.962 . S
C450 H464 0.960 . S
C451 C448 1.511 . S
C451 H465 0.961 . S
C451 H466 0.961 . S
C451 H467 0.961 . S
C452 C453 1.370 . S
C452 C454 1.363 . S
C452 H468 0.931 . S
C453 C452 1.370 . S
C453 C457 1.408 . S
C454 C452 1.363 . S
C454 C455 1.370 . S
C454 C458 1.524 . S
C455 C447 1.503 . S
C455 C454 1.370 . S
C455 C456 1.403 . S
C456 C455 1.403 . S
C456 C457 1.404 . S
C456 C459 1.539 . S
C457 C453 1.408 . S
C457 C456 1.404 . S
C457 H469 0.930 . S
C458 C454 1.524 . S
C458 H470 0.956 . S
C458 H471 0.961 . S
C458 H472 0.961 . S
C459 C456 1.539 . S
C459 H473 0.958 . S
C459 H474 0.961 . S
C459 H475 0.960 . S
H460 C444 0.931 . S
H461 C449 0.929 . S
H462 C450 0.960 . S
H463 C450 0.962 . S
H464 C450 0.960 . S
H465 C451 0.961 . S
H466 C451 0.961 . S
H467 C451 0.961 . S
H468 C452 0.931 . S
H469 C457 0.930 . S
H470 C458 0.956 . S
H471 C458 0.961 . S
H472 C458 0.961 . S
H473 C459 0.958 . S
H474 C459 0.961 . S
H475 C459 0.960 . S
C476 C477 1.391 . S
C476 C478 1.394 . S
C476 H492 0.931 . S
C477 C476 1.391 . S
C477 C481 1.376 . S
C478 C476 1.394 . S
C478 C479 1.369 . S
C478 C482 1.531 . S
C479 C478 1.369 . S
C479 C480 1.410 . S
C479 C487 1.503 . S
C480 C479 1.410 . S
C480 C481 1.392 . S
C480 C483 1.511 . S
C481 C477 1.376 . S
C481 C480 1.392 . S
C481 H493 0.929 . S
C482 C478 1.531 . S
C482 H494 0.960 . S
C482 H495 0.962 . S
C482 H496 0.960 . S
C483 C480 1.511 . S
C483 H497 0.961 . S
C483 H498 0.961 . S
C483 H499 0.961 . S
C484 C485 1.370 . S
C484 C486 1.363 . S
C484 H500 0.931 . S
C485 C484 1.370 . S
C485 C489 1.408 . S
C486 C484 1.363 . S
C486 C487 1.370 . S
C486 C490 1.524 . S
C487 C479 1.503 . S
C487 C486 1.370 . S
C487 C488 1.403 . S
C488 C487 1.403 . S
C488 C489 1.404 . S
C488 C491 1.539 . S
C489 C485 1.408 . S
C489 C488 1.404 . S
C489 H501 0.930 . S
C490 C486 1.524 . S
C490 H502 0.956 . S
C490 H503 0.961 . S
C490 H504 0.961 . S
C491 C488 1.539 . S
C491 H505 0.958 . S
C491 H506 0.961 . S
C491 H507 0.960 . S
H492 C476 0.931 . S
H493 C481 0.929 . S
H494 C482 0.960 . S
H495 C482 0.962 . S
H496 C482 0.960 . S
H497 C483 0.961 . S
H498 C483 0.961 . S
H499 C483 0.961 . S
H500 C484 0.931 . S
H501 C489 0.930 . S
H502 C490 0.956 . S
H503 C490 0.961 . S
H504 C490 0.961 . S
H505 C491 0.958 . S
H506 C491 0.961 . S
H507 C491 0.960 . S
C508 C509 1.391 1_554 S
C508 C510 1.394 . S
C508 H524 0.931 . S
C509 C508 1.391 1_556 S
C509 C513 1.376 . S
C510 C508 1.394 . S
C510 C511 1.369 1_554 S
C510 C514 1.531 . S
C511 C510 1.369 1_556 S
C511 C512 1.410 . S
C511 C519 1.503 . S
C512 C511 1.410 . S
C512 C513 1.392 . S
C512 C515 1.511 . S
C513 C509 1.376 . S
C513 C512 1.392 . S
C513 H525 0.929 . S
C514 C510 1.531 . S
C514 H526 0.960 . S
C514 H527 0.962 . S
C514 H528 0.960 . S
C515 C512 1.511 . S
C515 H529 0.961 . S
C515 H530 0.961 . S
C515 H531 0.961 . S
C516 C517 1.370 . S
C516 C518 1.363 1_554 S
C516 H532 0.931 . S
C517 C516 1.370 . S
C517 C521 1.408 1_554 S
C518 C516 1.363 1_556 S
C518 C519 1.370 . S
C518 C522 1.524 . S
C519 C511 1.503 . S
C519 C518 1.370 . S
C519 C520 1.403 . S
C520 C519 1.403 . S
C520 C521 1.404 . S
C520 C523 1.539 . S
C521 C517 1.408 1_556 S
C521 C520 1.404 . S
C521 H533 0.930 . S
C522 C518 1.524 . S
C522 H534 0.956 1_556 S
C522 H535 0.961 . S
C522 H536 0.961 . S
C523 C520 1.539 . S
C523 H537 0.958 1_556 S
C523 H538 0.961 . S
C523 H539 0.960 . S
H524 C508 0.931 . S
H525 C513 0.929 . S
H526 C514 0.960 . S
H527 C514 0.962 . S
H528 C514 0.960 . S
H529 C515 0.961 . S
H530 C515 0.961 . S
H531 C515 0.961 . S
H532 C516 0.931 . S
H533 C521 0.930 . S
H534 C522 0.956 1_554 S
H535 C522 0.961 . S
H536 C522 0.961 . S
H537 C523 0.958 1_554 S
H538 C523 0.961 . S
H539 C523 0.960 . S
C540 C541 1.391 . S
C540 C542 1.394 . S
C540 H556 0.931 . S
C541 C540 1.391 . S
C541 C545 1.376 . S
C542 C540 1.394 . S
C542 C543 1.369 . S
C542 C546 1.531 . S
C543 C542 1.369 . S
C543 C544 1.410 . S
C543 C551 1.503 . S
C544 C543 1.410 . S
C544 C545 1.392 . S
C544 C547 1.511 . S
C545 C541 1.376 . S
C545 C544 1.392 . S
C545 H557 0.929 . S
C546 C542 1.531 . S
C546 H558 0.960 . S
C546 H559 0.962 . S
C546 H560 0.960 . S
C547 C544 1.511 . S
C547 H561 0.961 . S
C547 H562 0.961 . S
C547 H563 0.961 . S
C548 C549 1.370 . S
C548 C550 1.363 . S
C548 H564 0.931 . S
C549 C548 1.370 . S
C549 C553 1.408 . S
C550 C548 1.363 . S
C550 C551 1.370 . S
C550 C554 1.524 . S
C551 C543 1.503 . S
C551 C550 1.370 . S
C551 C552 1.403 . S
C552 C551 1.403 . S
C552 C553 1.404 . S
C552 C555 1.539 . S
C553 C549 1.408 . S
C553 C552 1.404 . S
C553 H565 0.930 . S
C554 C550 1.524 . S
C554 H566 0.956 . S
C554 H567 0.961 . S
C554 H568 0.961 . S
C555 C552 1.539 . S
C555 H569 0.958 . S
C555 H570 0.961 . S
C555 H571 0.960 . S
H556 C540 0.931 . S
H557 C545 0.929 . S
H558 C546 0.960 . S
H559 C546 0.962 . S
H560 C546 0.960 . S
H561 C547 0.961 . S
H562 C547 0.961 . S
H563 C547 0.961 . S
H564 C548 0.931 . S
H565 C553 0.930 . S
H566 C554 0.956 . S
H567 C554 0.961 . S
H568 C554 0.961 . S
H569 C555 0.958 . S
H570 C555 0.961 . S
H571 C555 0.960 . S
C572 C573 1.391 . S
C572 C574 1.394 1_554 S
C572 H588 0.931 . S
C573 C572 1.391 . S
C573 C577 1.376 . S
C574 C572 1.394 1_556 S
C574 C575 1.369 . S
C574 C578 1.531 . S
C575 C574 1.369 . S
C575 C576 1.410 1_556 S
C575 C583 1.503 . S
C576 C575 1.410 1_554 S
C576 C577 1.392 . S
C576 C579 1.511 . S
C577 C573 1.376 . S
C577 C576 1.392 . S
C577 H589 0.929 . S
C578 C574 1.531 . S
C578 H590 0.960 . S
C578 H591 0.962 . S
C578 H592 0.960 . S
C579 C576 1.511 . S
C579 H593 0.961 . S
C579 H594 0.961 . S
C579 H595 0.961 1_554 S
C580 C581 1.370 . S
C580 C582 1.363 . S
C580 H596 0.931 . S
C581 C580 1.370 . S
C581 C585 1.408 . S
C582 C580 1.363 . S
C582 C583 1.370 . S
C582 C586 1.524 1_556 S
C583 C575 1.503 . S
C583 C582 1.370 . S
C583 C584 1.403 . S
C584 C583 1.403 . S
C584 C585 1.404 . S
C584 C587 1.539 . S
C585 C581 1.408 . S
C585 C584 1.404 . S
C585 H597 0.930 . S
C586 C582 1.524 1_554 S
C586 H598 0.956 . S
C586 H599 0.961 . S
C586 H600 0.961 . S
C587 C584 1.539 . S
C587 H601 0.958 . S
C587 H602 0.961 . S
C587 H603 0.960 . S
H588 C572 0.931 . S
H589 C577 0.929 . S
H590 C578 0.960 . S
H591 C578 0.962 . S
H592 C578 0.960 . S
H593 C579 0.961 . S
H594 C579 0.961 . S
H595 C579 0.961 1_556 S
H596 C580 0.931 . S
H597 C585 0.930 . S
H598 C586 0.956 . S
H599 C586 0.961 . S
H600 C586 0.961 . S
H601 C587 0.958 . S
H602 C587 0.961 . S
H603 C587 0.960 . S
C604 C605 1.391 . S
C604 C606 1.394 . S
C604 H620 0.931 . S
C605 C604 1.391 . S
C605 C609 1.376 . S
C606 C604 1.394 . S
C606 C607 1.369 . S
C606 C610 1.531 . S
C607 C606 1.369 . S
C607 C608 1.410 . S
C607 C615 1.503 . S
C608 C607 1.410 . S
C608 C609 1.392 . S
C608 C611 1.511 . S
C609 C605 1.376 . S
C609 C608 1.392 . S
C609 H621 0.929 . S
C610 C606 1.531 . S
C610 H622 0.960 . S
C610 H623 0.962 . S
C610 H624 0.960 . S
C611 C608 1.511 . S
C611 H625 0.961 . S
C611 H626 0.961 . S
C611 H627 0.961 . S
C612 C613 1.370 . S
C612 C614 1.363 . S
C612 H628 0.931 1_554 S
C613 C612 1.370 . S
C613 C617 1.408 . S
C614 C612 1.363 . S
C614 C615 1.370 . S
C614 C618 1.524 . S
C615 C607 1.503 . S
C615 C614 1.370 . S
C615 C616 1.403 . S
C616 C615 1.403 . S
C616 C617 1.404 . S
C616 C619 1.539 . S
C617 C613 1.408 . S
C617 C616 1.404 . S
C617 H629 0.930 . S
C618 C614 1.524 . S
C618 H630 0.956 . S
C618 H631 0.961 . S
C618 H632 0.961 . S
C619 C616 1.539 . S
C619 H633 0.958 . S
C619 H634 0.961 . S
C619 H635 0.960 . S
H620 C604 0.931 . S
H621 C609 0.929 . S
H622 C610 0.960 . S
H623 C610 0.962 . S
H624 C610 0.960 . S
H625 C611 0.961 . S
H626 C611 0.961 . S
H627 C611 0.961 . S
H628 C612 0.931 1_556 S
H629 C617 0.930 . S
H630 C618 0.956 . S
H631 C618 0.961 . S
H632 C618 0.961 . S
H633 C619 0.958 . S
H634 C619 0.961 . S
H635 C619 0.960 . S
C636 C637 1.391 . S
C636 C638 1.394 . S
C636 H652 0.931 . S
C637 C636 1.391 . S
C637 C641 1.376 . S
C638 C636 1.394 . S
C638 C639 1.369 . S
C638 C642 1.531 . S
C639 C638 1.369 . S
C639 C640 1.410 . S
C639 C647 1.503 . S
C640 C639 1.410 . S
C640 C641 1.392 . S
C640 C643 1.511 . S
C641 C637 1.376 . S
C641 C640 1.392 . S
C641 H653 0.929 . S
C642 C638 1.531 . S
C642 H654 0.960 . S
C642 H655 0.962 . S
C642 H656 0.960 . S
C643 C640 1.511 . S
C643 H657 0.961 . S
C643 H658 0.961 . S
C643 H659 0.961 . S
C644 C645 1.370 . S
C644 C646 1.363 . S
C644 H660 0.931 . S
C645 C644 1.370 . S
C645 C649 1.408 . S
C646 C644 1.363 . S
C646 C647 1.370 . S
C646 C650 1.524 . S
C647 C639 1.503 . S
C647 C646 1.370 . S
C647 C648 1.403 . S
C648 C647 1.403 . S
C648 C649 1.404 . S
C648 C651 1.539 . S
C649 C645 1.408 . S
C649 C648 1.404 . S
C649 H661 0.930 . S
C650 C646 1.524 . S
C650 H662 0.956 . S
C650 H663 0.961 . S
C650 H664 0.961 . S
C651 C648 1.539 . S
C651 H665 0.958 . S
C651 H666 0.961 . S
C651 H667 0.960 . S
H652 C636 0.931 . S
H653 C641 0.929 . S
H654 C642 0.960 . S
H655 C642 0.962 . S
H656 C642 0.960 . S
H657 C643 0.961 . S
H658 C643 0.961 . S
H659 C643 0.961 . S
H660 C644 0.931 . S
H661 C649 0.930 . S
H662 C650 0.956 . S
H663 C650 0.961 . S
H664 C650 0.961 . S
H665 C651 0.958 . S
H666 C651 0.961 . S
H667 C651 0.960 . S
C668 C669 1.391 . S
C668 C670 1.394 . S
C668 H684 0.931 . S
C669 C668 1.391 . S
C669 C673 1.376 . S
C670 C668 1.394 . S
C670 C671 1.369 . S
C670 C674 1.531 . S
C671 C670 1.369 . S
C671 C672 1.410 . S
C671 C679 1.503 . S
C672 C671 1.410 . S
C672 C673 1.392 . S
C672 C675 1.511 . S
C673 C669 1.376 . S
C673 C672 1.392 . S
C673 H685 0.929 . S
C674 C670 1.531 . S
C674 H686 0.960 . S
C674 H687 0.962 . S
C674 H688 0.960 . S
C675 C672 1.511 . S
C675 H689 0.961 . S
C675 H690 0.961 . S
C675 H691 0.961 . S
C676 C677 1.370 . S
C676 C678 1.363 . S
C676 H692 0.931 . S
C677 C676 1.370 . S
C677 C681 1.408 . S
C678 C676 1.363 . S
C678 C679 1.370 . S
C678 C682 1.524 . S
C679 C671 1.503 . S
C679 C678 1.370 . S
C679 C680 1.403 . S
C680 C679 1.403 . S
C680 C681 1.404 . S
C680 C683 1.539 . S
C681 C677 1.408 . S
C681 C680 1.404 . S
C681 H693 0.930 . S
C682 C678 1.524 . S
C682 H694 0.956 . S
C682 H695 0.961 . S
C682 H696 0.961 . S
C683 C680 1.539 . S
C683 H697 0.958 . S
C683 H698 0.961 . S
C683 H699 0.960 . S
H684 C668 0.931 . S
H685 C673 0.929 . S
H686 C674 0.960 . S
H687 C674 0.962 . S
H688 C674 0.960 . S
H689 C675 0.961 . S
H690 C675 0.961 . S
H691 C675 0.961 . S
H692 C676 0.931 . S
H693 C681 0.930 . S
H694 C682 0.956 . S
H695 C682 0.961 . S
H696 C682 0.961 . S
H697 C683 0.958 . S
H698 C683 0.961 . S
H699 C683 0.960 . S
C700 C701 1.391 . S
C700 C702 1.394 . S
C700 H716 0.931 . S
C701 C700 1.391 . S
C701 C705 1.376 . S
C702 C700 1.394 . S
C702 C703 1.369 . S
C702 C706 1.531 . S
C703 C702 1.369 . S
C703 C704 1.410 . S
C703 C711 1.503 . S
C704 C703 1.410 . S
C704 C705 1.392 . S
C704 C707 1.511 . S
C705 C701 1.376 . S
C705 C704 1.392 . S
C705 H717 0.929 . S
C706 C702 1.531 . S
C706 H718 0.960 . S
C706 H719 0.962 . S
C706 H720 0.960 . S
C707 C704 1.511 . S
C707 H721 0.961 . S
C707 H722 0.961 . S
C707 H723 0.961 . S
C708 C709 1.370 . S
C708 C710 1.363 . S
C708 H724 0.931 . S
C709 C708 1.370 . S
C709 C713 1.408 . S
C710 C708 1.363 . S
C710 C711 1.370 . S
C710 C714 1.524 . S
C711 C703 1.503 . S
C711 C710 1.370 . S
C711 C712 1.403 . S
C712 C711 1.403 . S
C712 C713 1.404 . S
C712 C715 1.539 . S
C713 C709 1.408 . S
C713 C712 1.404 . S
C713 H725 0.930 . S
C714 C710 1.524 . S
C714 H726 0.956 . S
C714 H727 0.961 . S
C714 H728 0.961 . S
C715 C712 1.539 . S
C715 H729 0.958 . S
C715 H730 0.961 . S
C715 H731 0.960 . S
H716 C700 0.931 . S
H717 C705 0.929 . S
H718 C706 0.960 . S
H719 C706 0.962 . S
H720 C706 0.960 . S
H721 C707 0.961 . S
H722 C707 0.961 . S
H723 C707 0.961 . S
H724 C708 0.931 . S
H725 C713 0.930 . S
H726 C714 0.956 . S
H727 C714 0.961 . S
H728 C714 0.961 . S
H729 C715 0.958 . S
H730 C715 0.961 . S
H731 C715 0.960 . S
C732 C733 1.391 . S
C732 C734 1.394 . S
C732 H748 0.931 . S
C733 C732 1.391 . S
C733 C737 1.376 1_556 S
C734 C732 1.394 . S
C734 C735 1.369 . S
C734 C738 1.531 . S
C735 C734 1.369 . S
C735 C736 1.410 . S
C735 C743 1.503 1_455 S
C736 C735 1.410 . S
C736 C737 1.392 1_556 S
C736 C739 1.505 1_456 S
C737 C733 1.376 1_554 S
C737 C736 1.392 1_554 S
C737 H749 0.929 . S
C738 C734 1.531 . S
C738 H750 0.960 . S
C738 H751 0.962 . S
C738 H752 0.960 . S
C739 C736 1.505 1_654 S
C739 H753 0.970 . S
C739 H754 0.947 1_554 S
C739 H755 0.972 . S
C740 C741 1.370 . S
C740 C742 1.363 . S
C740 H756 0.931 . S
C741 C740 1.370 . S
C741 C745 1.408 . S
C742 C740 1.363 . S
C742 C743 1.370 . S
C742 C746 1.524 1_655 S
C743 C735 1.503 1_655 S
C743 C742 1.370 . S
C743 C744 1.403 . S
C744 C743 1.403 . S
C744 C745 1.404 . S
C744 C747 1.539 . S
C745 C741 1.408 . S
C745 C744 1.404 . S
C745 H757 0.930 . S
C746 C742 1.524 1_455 S
C746 H758 0.956 . S
C746 H759 0.961 . S
C746 H760 0.991 . S
C747 C744 1.539 . S
C747 H761 0.958 . S
C747 H762 0.961 . S
C747 H763 0.960 . S
H748 C732 0.931 . S
H749 C737 0.929 . S
H750 C738 0.960 . S
H751 C738 0.962 . S
H752 C738 0.960 . S
H753 C739 0.970 . S
H754 C739 0.947 1_556 S
H755 C739 0.972 . S
H756 C740 0.931 . S
H757 C745 0.930 . S
H758 C746 0.956 . S
H759 C746 0.961 . S
H760 C746 0.991 . S
H761 C747 0.958 . S
H762 C747 0.961 . S
H763 C747 0.960 . S
C764 C765 1.391 . S
C764 C766 1.394 1_556 S
C764 H780 0.931 . S
C765 C764 1.391 . S
C765 C769 1.376 1_556 S
C766 C764 1.394 1_554 S
C766 C767 1.369 . S
C766 C770 1.531 . S
C767 C766 1.369 . S
C767 C768 1.410 . S
C767 C775 1.503 1_565 S
C768 C767 1.410 . S
C768 C769 1.392 . S
C768 C771 1.511 . S
C769 C765 1.376 1_554 S
C769 C768 1.392 . S
C769 H781 0.929 . S
C770 C766 1.531 . S
C770 H782 0.960 1_565 S
C770 H783 0.962 1_564 S
C770 H784 0.960 . S
C771 C768 1.511 . S
C771 H785 0.961 . S
C771 H786 0.961 . S
C771 H787 0.961 . S
C772 C773 1.370 . S
C772 C774 1.363 . S
C772 H788 0.931 . S
C773 C772 1.370 . S
C773 C777 1.408 . S
C774 C772 1.363 . S
C774 C775 1.370 . S
C774 C778 1.524 1_554 S
C775 C767 1.503 1_545 S
C775 C774 1.370 . S
C775 C776 1.403 . S
C776 C775 1.403 . S
C776 C777 1.404 . S
C776 C779 1.539 1_545 S
C777 C773 1.408 . S
C777 C776 1.404 . S
C777 H789 0.930 . S
C778 C774 1.524 1_556 S
C778 H790 0.956 . S
C778 H791 0.961 . S
C778 H792 0.961 . S
C779 C776 1.539 1_565 S
C779 H793 0.958 . S
C779 H794 0.961 . S
C779 H795 0.960 . S
H780 C764 0.931 . S
H781 C769 0.929 . S
H782 C770 0.960 1_545 S
H783 C770 0.962 1_546 S
H784 C770 0.960 . S
H785 C771 0.961 . S
H786 C771 0.961 . S
H787 C771 0.961 . S
H788 C772 0.931 . S
H789 C777 0.930 . S
H790 C778 0.956 . S
H791 C778 0.961 . S
H792 C778 0.961 . S
H793 C779 0.958 . S
H794 C779 0.961 . S
H795 C779 0.960 . S
C796 C797 1.391 . S
C796 C798 1.394 . S
C796 H812 0.931 . S
C797 C796 1.391 . S
C797 C801 1.376 . S
C798 C796 1.394 . S
C798 C799 1.369 . S
C798 C802 1.531 . S
C799 C798 1.369 . S
C799 C800 1.410 . S
C799 C807 1.503 . S
C800 C799 1.410 . S
C800 C801 1.392 . S
C800 C803 1.511 . S
C801 C797 1.376 . S
C801 C800 1.392 . S
C801 H813 0.929 . S
C802 C798 1.531 . S
C802 H814 0.960 . S
C802 H815 0.962 . S
C802 H816 0.960 . S
C803 C800 1.511 . S
C803 H817 0.961 . S
C803 H818 0.961 . S
C803 H819 0.961 . S
C804 C805 1.370 . S
C804 C806 1.363 . S
C804 H820 0.931 . S
C805 C804 1.370 . S
C805 C809 1.408 . S
C806 C804 1.363 . S
C806 C807 1.370 . S
C806 C810 1.524 . S
C807 C799 1.503 . S
C807 C806 1.370 . S
C807 C808 1.403 . S
C808 C807 1.403 . S
C808 C809 1.404 . S
C808 C811 1.539 . S
C809 C805 1.408 . S
C809 C808 1.404 . S
C809 H821 0.930 . S
C810 C806 1.524 . S
C810 H822 0.956 . S
C810 H823 0.961 . S
C810 H824 0.961 . S
C811 C808 1.539 . S
C811 H825 0.958 . S
C811 H826 0.961 . S
C811 H827 0.960 . S
H812 C796 0.931 . S
H813 C801 0.929 . S
H814 C802 0.960 . S
H815 C802 0.962 . S
H816 C802 0.960 . S
H817 C803 0.961 . S
H818 C803 0.961 . S
H819 C803 0.961 . S
H820 C804 0.931 . S
H821 C809 0.930 . S
H822 C810 0.956 . S
H823 C810 0.961 . S
H824 C810 0.961 . S
H825 C811 0.958 . S
H826 C811 0.961 . S
H827 C811 0.960 . S
C828 C829 1.391 . S
C828 C830 1.394 . S
C828 H844 0.931 . S
C829 C828 1.391 . S
C829 C833 1.376 . S
C830 C828 1.394 . S
C830 C831 1.369 . S
C830 C834 1.531 1_455 S
C831 C830 1.369 . S
C831 C832 1.410 . S
C831 C839 1.503 1_455 S
C832 C831 1.410 . S
C832 C833 1.392 . S
C832 C835 1.511 . S
C833 C829 1.376 . S
C833 C832 1.392 . S
C833 H845 0.929 . S
C834 C830 1.531 1_655 S
C834 H846 0.960 . S
C834 H847 0.962 . S
C834 H848 0.960 . S
C835 C832 1.511 . S
C835 H849 0.961 . S
C835 H850 0.961 . S
C835 H851 0.961 . S
C836 C837 1.370 . S
C836 C838 1.363 . S
C836 H852 0.931 . S
C837 C836 1.370 . S
C837 C841 1.408 . S
C838 C836 1.363 . S
C838 C839 1.370 . S
C838 C842 1.524 1_655 S
C839 C831 1.503 1_655 S
C839 C838 1.370 . S
C839 C840 1.403 . S
C840 C839 1.403 . S
C840 C841 1.404 . S
C840 C843 1.539 . S
C841 C837 1.408 . S
C841 C840 1.404 . S
C841 H853 0.930 . S
C842 C838 1.524 1_455 S
C842 H854 0.960 . S
C842 H855 0.961 . S
C842 H856 0.961 1_455 S
C843 C840 1.539 . S
C843 H857 0.958 . S
C843 H858 0.961 . S
C843 H859 0.960 . S
H844 C828 0.931 . S
H845 C833 0.929 . S
H846 C834 0.960 . S
H847 C834 0.962 . S
H848 C834 0.960 . S
H849 C835 0.961 . S
H850 C835 0.961 . S
H851 C835 0.961 . S
H852 C836 0.931 . S
H853 C841 0.930 . S
H854 C842 0.960 . S
H855 C842 0.961 . S
H856 C842 0.961 1_655 S
H857 C843 0.958 . S
H858 C843 0.961 . S
H859 C843 0.960 . S
C860 C861 1.391 . S
C860 C862 1.394 . S
C860 H876 0.931 . S
C861 C860 1.391 . S
C861 C865 1.376 . S
C862 C860 1.394 . S
C862 C863 1.369 . S
C862 C866 1.546 . S
C863 C862 1.369 . S
C863 C864 1.410 . S
C863 C871 1.503 1_545 S
C864 C863 1.410 . S
C864 C865 1.392 . S
C864 C867 1.511 . S
C865 C861 1.376 . S
C865 C864 1.392 . S
C865 H877 0.929 . S
C866 C862 1.546 . S
C866 H878 0.952 1_545 S
C866 H879 0.954 1_545 S
C866 H880 0.961 . S
C867 C864 1.511 . S
C867 H881 0.961 . S
C867 H882 0.961 . S
C867 H883 0.961 . S
C868 C869 1.370 . S
C868 C870 1.363 . S
C868 H884 0.931 . S
C869 C868 1.370 . S
C869 C873 1.408 . S
C870 C868 1.363 . S
C870 C871 1.370 . S
C870 C874 1.524 . S
C871 C863 1.503 1_565 S
C871 C870 1.370 . S
C871 C872 1.403 . S
C872 C871 1.403 . S
C872 C873 1.404 . S
C872 C875 1.539 1_565 S
C873 C869 1.408 . S
C873 C872 1.404 . S
C873 H885 0.930 . S
C874 C870 1.524 . S
C874 H886 0.956 . S
C874 H887 0.961 . S
C874 H888 0.961 . S
C875 C872 1.539 1_545 S
C875 H889 0.958 . S
C875 H890 0.961 . S
C875 H891 0.960 . S
H876 C860 0.931 . S
H877 C865 0.929 . S
H878 C866 0.952 1_565 S
H879 C866 0.954 1_565 S
H880 C866 0.961 . S
H881 C867 0.961 . S
H882 C867 0.961 . S
H883 C867 0.961 . S
H884 C868 0.931 . S
H885 C873 0.930 . S
H886 C874 0.956 . S
H887 C874 0.961 . S
H888 C874 0.961 . S
H889 C875 0.958 . S
H890 C875 0.961 . S
H891 C875 0.960 . S
C892 C893 1.391 . S
C892 C894 1.394 . S
C892 H908 0.931 . S
C893 C892 1.391 . S
C893 C897 1.376 . S
C894 C892 1.394 . S
C894 C895 1.369 . S
C894 C898 1.531 . S
C895 C894 1.369 . S
C895 C896 1.410 . S
C895 C903 1.503 . S
C896 C895 1.410 . S
C896 C897 1.392 . S
C896 C899 1.511 . S
C897 C893 1.376 . S
C897 C896 1.392 . S
C897 H909 0.929 . S
C898 C894 1.531 . S
C898 H910 0.960 . S
C898 H911 0.962 . S
C898 H912 0.960 . S
C899 C896 1.511 . S
C899 H913 0.961 . S
C899 H914 0.961 . S
C899 H915 0.961 . S
C900 C901 1.370 . S
C900 C902 1.363 . S
C900 H916 0.931 . S
C901 C900 1.370 . S
C901 C905 1.408 . S
C902 C900 1.363 . S
C902 C903 1.370 . S
C902 C906 1.524 . S
C903 C895 1.503 . S
C903 C902 1.370 . S
C903 C904 1.403 . S
C904 C903 1.403 . S
C904 C905 1.404 . S
C904 C907 1.539 . S
C905 C901 1.408 . S
C905 C904 1.404 . S
C905 H917 0.930 . S
C906 C902 1.524 . S
C906 H918 0.956 . S
C906 H919 0.961 . S
C906 H920 0.961 . S
C907 C904 1.539 . S
C907 H921 0.958 . S
C907 H922 0.961 . S
C907 H923 0.960 . S
H908 C892 0.931 . S
H909 C897 0.929 . S
H910 C898 0.960 . S
H911 C898 0.962 . S
H912 C898 0.960 . S
H913 C899 0.961 . S
H914 C899 0.961 . S
H915 C899 0.961 . S
H916 C900 0.931 . S
H917 C905 0.930 . S
H918 C906 0.956 . S
H919 C906 0.961 . S
H920 C906 0.961 . S
H921 C907 0.958 . S
H922 C907 0.961 . S
H923 C907 0.960 . S
C157 C3 1.502 . S
C165 C135 1.503 . S
C189 C148 1.509 . S
C197 C16 1.498 . S
C221 C29 1.499 . S
C229 C83 1.504 . S
C253 C44 1.504 . S
C261 C96 1.494 . S
C285 C57 1.506 . S
C293 C107 1.502 . S
C317 C122 1.504 . S
C325 C68 1.503 1_554 S
C349 C4 1.740 . S
C357 C108 1.752 . S
C381 C17 1.751 . S
C389 C127 1.749 . S
C413 C140 1.745 . S
C421 C30 1.745 . S
C445 C49 1.738 . S
C453 C153 1.751 . S
C477 C62 1.738 . S
C485 C88 1.747 . S
C509 C69 1.739 . S
C517 C101 1.747 . S
C541 C133 1.470 . S
C549 C5 1.476 . S
C573 C18 1.470 . S
C581 C146 1.473 . S
C605 C31 1.474 . S
C613 C81 1.477 1_554 S
C637 C42 1.467 . S
C645 C94 1.473 . S
C669 C109 1.469 . S
C677 C55 1.476 . S
C701 C70 1.466 . S
C709 C120 1.474 . S
C733 C10 1.412 1_556 S
C741 C147 1.401 . S
C765 C82 1.386 . S
C773 C23 1.408 . S
C797 C95 1.405 . S
C805 C36 1.406 . S
C829 C114 1.400 . S
C837 C43 1.400 . S
C861 C121 1.387 . S
C869 C56 1.408 . S
C893 C134 1.394 . S
C901 C75 1.409 . S
