# Generated by pormake.
# Topology ske, (6)-cn, num edge types: 1
# Building blocks:
#     Node 0, Type 0, BuildingBlock: JUFBIX_clean_sbu_0, # of connection points: 6
#     Node 1, Type 0, BuildingBlock: JUFBIX_clean_sbu_0, # of connection points: 6
#     Node 2, Type 0, BuildingBlock: JUFBIX_clean_sbu_0, # of connection points: 6
#     Node 3, Type 0, BuildingBlock: JUFBIX_clean_sbu_0, # of connection points: 6
#     Node 4, Type 0, BuildingBlock: JUFBIX_clean_sbu_0, # of connection points: 6
#     Node 5, Type 0, BuildingBlock: JUFBIX_clean_sbu_0, # of connection points: 6
#     Node 6, Type 0, BuildingBlock: JUFBIX_clean_sbu_0, # of connection points: 6
#     Node 7, Type 0, BuildingBlock: JUFBIX_clean_sbu_0, # of connection points: 6
#     Edge 8, Type (0, 0), BuildingBlock: AJUNOK_clean_linker_0, # of connection points: 2
#     Edge 9, Type (0, 0), BuildingBlock: AJUNOK_clean_linker_0, # of connection points: 2
#     Edge 10, Type (0, 0), BuildingBlock: AJUNOK_clean_linker_0, # of connection points: 2
#     Edge 11, Type (0, 0), BuildingBlock: AJUNOK_clean_linker_0, # of connection points: 2
#     Edge 12, Type (0, 0), BuildingBlock: AJUNOK_clean_linker_0, # of connection points: 2
#     Edge 13, Type (0, 0), BuildingBlock: AJUNOK_clean_linker_0, # of connection points: 2
#     Edge 14, Type (0, 0), BuildingBlock: AJUNOK_clean_linker_0, # of connection points: 2
#     Edge 15, Type (0, 0), BuildingBlock: AJUNOK_clean_linker_0, # of connection points: 2
#     Edge 16, Type (0, 0), BuildingBlock: AJUNOK_clean_linker_0, # of connection points: 2
#     Edge 17, Type (0, 0), BuildingBlock: AJUNOK_clean_linker_0, # of connection points: 2
#     Edge 18, Type (0, 0), BuildingBlock: AJUNOK_clean_linker_0, # of connection points: 2
#     Edge 19, Type (0, 0), BuildingBlock: AJUNOK_clean_linker_0, # of connection points: 2
#     Edge 20, Type (0, 0), BuildingBlock: AJUNOK_clean_linker_0, # of connection points: 2
#     Edge 21, Type (0, 0), BuildingBlock: AJUNOK_clean_linker_0, # of connection points: 2
#     Edge 22, Type (0, 0), BuildingBlock: AJUNOK_clean_linker_0, # of connection points: 2
#     Edge 23, Type (0, 0), BuildingBlock: AJUNOK_clean_linker_0, # of connection points: 2
#     Edge 24, Type (0, 0), BuildingBlock: AJUNOK_clean_linker_0, # of connection points: 2
#     Edge 25, Type (0, 0), BuildingBlock: AJUNOK_clean_linker_0, # of connection points: 2
#     Edge 26, Type (0, 0), BuildingBlock: AJUNOK_clean_linker_0, # of connection points: 2
#     Edge 27, Type (0, 0), BuildingBlock: AJUNOK_clean_linker_0, # of connection points: 2
#     Edge 28, Type (0, 0), BuildingBlock: AJUNOK_clean_linker_0, # of connection points: 2
#     Edge 29, Type (0, 0), BuildingBlock: AJUNOK_clean_linker_0, # of connection points: 2
#     Edge 30, Type (0, 0), BuildingBlock: AJUNOK_clean_linker_0, # of connection points: 2
#     Edge 31, Type (0, 0), BuildingBlock: AJUNOK_clean_linker_0, # of connection points: 2
# Relax obj value: 0.388
# Max RMSD: 0.160
# Mean RMSD: 0.148
data_MOF--net-ske--node1-JUFBIX_clean_sbu_0--edge1-AJUNOK_clean_linker_0
_symmetry_space_group_name_H-M    P1
_symmetry_Int_Tables_number       1
_symmetry_cell_setting            triclinic
loop_
_symmetry_equiv_pos_as_xyz
'x, y, z'
_cell_length_a     51.107034
_cell_length_b     21.331301
_cell_length_c     11.541486
_cell_angle_alpha  89.319001
_cell_angle_beta   92.895571
_cell_angle_gamma 92.901901
loop_
_atom_site_label
_atom_site_type_symbol
_atom_site_fract_x
_atom_site_fract_y
_atom_site_fract_z
_atom_type_partial_charge
Co0 Co 0.18196 0.27307 0.73985 0.0
C1 C 0.18239 0.38338 0.60018 0.0
Co2 Co 0.18726 0.26054 0.55357 0.0
C3 C 0.19869 0.27047 0.96373 0.0
C4 C 0.17883 0.3542 0.93077 0.0
N5 N 0.17935 0.29387 0.89601 0.0
N6 N 0.21387 0.31588 1.01753 0.0
C7 C 0.20062 0.36845 1.00258 0.0
H8 H 0.20472 0.22315 0.95374 0.0
H9 H 0.16646 0.38879 0.89047 0.0
C10 C 0.18263 0.14939 0.68833 0.0
N11 N 0.19379 0.2402 0.4013 0.0
C12 C 0.21499 0.27102 0.35961 0.0
C13 C 0.19537 0.18087 0.36278 0.0
N14 N 0.23175 0.23237 0.31346 0.0
C15 C 0.21884 0.17575 0.3105 0.0
C16 C 0.23633 0.27667 0.68304 0.0
O17 O 0.18104 0.18404 0.77624 0.0
O18 O 0.18662 0.17496 0.59126 0.0
O19 O 0.22595 0.26618 0.58314 0.0
O20 O 0.22076 0.28158 0.76401 0.0
O21 O 0.18675 0.34865 0.51543 0.0
H22 H 0.18235 0.1416 0.38571 0.0
H23 H 0.2201 0.31947 0.38043 0.0
O24 O 0.18108 0.35911 0.70015 0.0
O25 O 0.14493 0.26592 0.71497 0.0
O26 O 0.14861 0.25425 0.52704 0.0
C27 C 0.13399 0.25778 0.61402 0.0
H28 H 0.20726 0.41489 1.03108 0.0
H29 H 0.22631 0.13316 0.27782 0.0
Co30 Co 0.93988 0.27244 0.61025 0.0
C31 C 0.91454 0.38818 0.61395 0.0
Co32 Co 0.8961 0.26636 0.60801 0.0
C33 C 0.99792 0.2555 0.57488 0.0
C34 C 0.98896 0.32758 0.69165 0.0
N35 N 0.97733 0.28369 0.62009 0.0
N36 N 1.02157 0.28077 0.61629 0.0
C37 C 1.0157 0.32577 0.68975 0.0
H38 H 0.99567 0.2161 0.51636 0.0
H39 H 0.97858 0.35826 0.74522 0.0
C40 C 0.91865 0.15043 0.59475 0.0
N41 N 0.8593 0.25702 0.61272 0.0
C42 C 0.84526 0.28326 0.6945 0.0
C43 C 0.84283 0.21205 0.56529 0.0
N44 N 0.8211 0.25484 0.70442 0.0
C45 C 0.81948 0.21069 0.62095 0.0
C46 C 0.91743 0.27237 0.37474 0.0
O47 O 0.94098 0.18075 0.60122 0.0
O48 O 0.89799 0.1801 0.60299 0.0
O49 O 0.89586 0.26882 0.42956 0.0
O50 O 0.93894 0.2758 0.43767 0.0
O51 O 0.89392 0.35287 0.61179 0.0
H52 H 0.8482 0.1787 0.50183 0.0
H53 H 0.85343 0.32062 0.7496 0.0
O54 O 0.93686 0.36382 0.61305 0.0
O55 O 0.94016 0.26894 0.78745 0.0
O56 O 0.89759 0.26336 0.7826 0.0
C57 C 0.91912 0.26592 0.84422 0.0
H58 H 1.02992 0.35439 0.74116 0.0
H59 H 0.80336 0.17635 0.6066 0.0
Co60 Co 0.17933 0.76796 0.61802 0.0
C61 C 0.15693 0.88371 0.62822 0.0
Co62 Co 0.13571 0.7623 0.61176 0.0
C63 C 0.22927 0.75768 0.5206 0.0
C64 C 0.23301 0.81554 0.67115 0.0
N65 N 0.21572 0.77752 0.60982 0.0
N66 N 0.25391 0.78345 0.52074 0.0
C67 C 0.25651 0.81932 0.61652 0.0
H68 H 0.2206 0.72865 0.45111 0.0
H69 H 0.22831 0.84222 0.7458 0.0
C70 C 0.161 0.64696 0.6003 0.0
N71 N 0.09858 0.75066 0.62109 0.0
C72 C 0.07709 0.78139 0.58134 0.0
C73 C 0.08853 0.70415 0.68877 0.0
N74 N 0.05449 0.75544 0.62292 0.0
C75 C 0.06179 0.7068 0.68957 0.0
C76 C 0.15491 0.76896 0.37992 0.0
O77 O 0.18161 0.68201 0.61141 0.0
O78 O 0.13865 0.67113 0.60202 0.0
O79 O 0.13354 0.76646 0.43505 0.0
O80 O 0.17629 0.77125 0.44302 0.0
O81 O 0.13458 0.85363 0.62236 0.0
H82 H 0.10005 0.67046 0.73675 0.0
H83 H 0.07797 0.82187 0.52398 0.0
O84 O 0.17762 0.85394 0.62372 0.0
O85 O 0.18122 0.76489 0.79609 0.0
O86 O 0.13848 0.75845 0.78539 0.0
C87 C 0.15963 0.76154 0.84987 0.0
H88 H 0.27374 0.84828 0.64273 0.0
H89 H 0.04857 0.67515 0.73537 0.0
Co90 Co 0.88737 0.775 0.60815 0.0
C91 C 0.89427 0.88783 0.48704 0.0
Co92 Co 0.89512 0.76294 0.42522 0.0
C93 C 0.90156 0.76967 0.83379 0.0
C94 C 0.87941 0.84996 0.80174 0.0
N95 N 0.88196 0.7907 0.76461 0.0
N96 N 0.91554 0.8169 0.88758 0.0
C97 C 0.90079 0.86712 0.8737 0.0
H98 H 0.90848 0.72313 0.82551 0.0
H99 H 0.86617 0.88269 0.76132 0.0
C100 C 0.89172 0.65085 0.55497 0.0
N101 N 0.90438 0.74828 0.27493 0.0
C102 C 0.92572 0.78157 0.23989 0.0
C103 C 0.90639 0.69102 0.22821 0.0
N104 N 0.94245 0.74646 0.18536 0.0
C105 C 0.92979 0.68962 0.17414 0.0
C106 C 0.94179 0.77518 0.5615 0.0
O107 O 0.88829 0.68677 0.63903 0.0
O108 O 0.89297 0.67447 0.45399 0.0
O109 O 0.93146 0.76194 0.46372 0.0
O110 O 0.92643 0.78515 0.64155 0.0
O111 O 0.89867 0.85432 0.40051 0.0
H112 H 0.89347 0.65046 0.24429 0.0
H113 H 0.93091 0.8288 0.26857 0.0
O114 O 0.88707 0.86079 0.57819 0.0
O115 O 0.84946 0.76657 0.57021 0.0
O116 O 0.85735 0.76242 0.38486 0.0
C117 C 0.84063 0.76319 0.46428 0.0
H118 H 0.90627 0.91415 0.90312 0.0
H119 H 0.93713 0.64939 0.13233 0.0
Co120 Co 0.67112 0.75247 0.31946 0.0
C121 C 0.67802 0.87307 0.21931 0.0
Co122 Co 0.68492 0.75525 0.14364 0.0
C123 C 0.63856 0.70419 0.48614 0.0
C124 C 0.66158 0.78185 0.55854 0.0
N125 N 0.65597 0.75112 0.45934 0.0
N126 N 0.63638 0.6968 0.60044 0.0
C127 C 0.64901 0.74926 0.64498 0.0
H128 H 0.63166 0.66788 0.42573 0.0
H129 H 0.6761 0.82028 0.5696 0.0
C130 C 0.67444 0.63355 0.2324 0.0
N131 N 0.69832 0.74609 0.99616 0.0
C132 C 0.68197 0.71291 0.92265 0.0
C133 C 0.72177 0.72049 0.9819 0.0
N134 N 0.69263 0.66178 0.88204 0.0
C135 C 0.71822 0.66792 0.91291 0.0
C136 C 0.72635 0.75623 0.32143 0.0
O137 O 0.67048 0.66158 0.32506 0.0
O138 O 0.68166 0.66625 0.14725 0.0
O139 O 0.72041 0.75444 0.21299 0.0
O140 O 0.7074 0.75686 0.3899 0.0
O141 O 0.68729 0.8434 0.13669 0.0
H142 H 0.7397 0.7326 1.03178 0.0
H143 H 0.66131 0.71979 0.91274 0.0
O144 O 0.67077 0.84281 0.30948 0.0
O145 O 0.63648 0.74832 0.25607 0.0
O146 O 0.64816 0.75822 1.07943 0.0
C147 C 0.62986 0.75245 0.15008 0.0
H148 H 0.65289 0.75783 0.73602 0.0
H149 H 0.73263 0.63412 0.89615 0.0
Co150 Co 0.43867 0.79038 1.04319 0.0
C151 C 0.41279 0.9042 1.03019 0.0
Co152 Co 0.39516 0.78169 1.03738 0.0
C153 C 0.4965 0.76946 1.07565 0.0
C154 C 0.48646 0.8479 0.96882 0.0
N155 N 0.47565 0.80204 1.03534 0.0
N156 N 0.51972 0.79389 1.03704 0.0
C157 C 0.51313 0.84332 0.9702 0.0
H158 H 0.49449 0.72749 0.1286 0.0
H159 H 0.47555 0.8819 0.91893 0.0
C160 C 0.41863 0.66776 1.0462 0.0
N161 N 0.35878 0.77182 1.04501 0.0
C162 C 0.34509 0.79597 0.12978 0.0
C163 C 0.34189 0.72947 0.99203 0.0
N164 N 0.32068 0.76916 0.13503 0.0
C165 C 0.31852 0.72749 1.04756 0.0
C166 C 0.41483 0.78436 0.8056 0.0
O167 O 0.44043 0.69989 1.04607 0.0
O168 O 0.39732 0.69554 1.04304 0.0
O169 O 0.39346 0.77996 0.86073 0.0
O170 O 0.43624 0.78887 0.86854 0.0
O171 O 0.39253 0.86775 1.03144 0.0
H172 H 0.34692 0.6984 0.92407 0.0
H173 H 0.35378 0.82855 0.1935 0.0
O174 O 0.43532 0.8809 1.03793 0.0
O175 O 0.44049 0.79157 0.22118 0.0
O176 O 0.39782 0.78319 0.2111 0.0
C177 C 0.41897 0.78732 0.27529 0.0
H178 H 0.52667 0.87451 0.92532 0.0
H179 H 0.30181 0.6953 1.02918 0.0
Co180 Co 0.66906 0.25686 0.14425 0.0
C181 C 0.64517 0.37114 0.14377 0.0
Co182 Co 0.62522 0.24799 0.14097 0.0
C183 C 0.72091 0.24675 1.06009 0.0
C184 C 0.72092 0.31541 0.19342 0.0
N185 N 0.70565 0.26986 0.14075 0.0
N186 N 0.74491 0.27685 1.05793 0.0
C187 C 0.74481 0.32016 0.14251 0.0
H188 H 0.71382 0.21097 0.99902 0.0
H189 H 0.71432 0.34698 0.25729 0.0
C190 C 0.65268 0.13426 0.14711 0.0
N191 N 0.58762 0.23348 0.13398 0.0
C192 C 0.56687 0.26351 0.17391 0.0
C193 C 0.57617 0.18263 1.0799 0.0
N194 N 0.54334 0.23197 0.14904 0.0
C195 C 0.54947 0.18145 1.08928 0.0
C196 C 0.64623 0.25345 0.90757 0.0
O197 O 0.67266 0.1715 0.14541 0.0
O198 O 0.62987 0.15653 0.14579 0.0
O199 O 0.62494 0.24814 0.96287 0.0
O200 O 0.66756 0.25788 0.97053 0.0
O201 O 0.62295 0.34019 0.14115 0.0
H202 H 0.58655 0.14846 1.0341 0.0
H203 H 0.56893 0.30743 0.22029 0.0
O204 O 0.66598 0.34175 0.14393 0.0
O205 O 0.66935 0.25652 0.32129 0.0
O206 O 0.62632 0.24786 0.31499 0.0
C207 C 0.64796 0.25242 0.37696 0.0
H208 H 0.75988 0.35659 0.16065 0.0
H209 H 0.53544 0.14698 1.05092 0.0
Co210 Co 0.38101 0.27862 1.02637 0.0
C211 C 0.39611 0.40262 0.97367 0.0
Co212 Co 0.40384 0.2905 0.87669 0.0
C213 C 0.36413 0.23029 0.23139 0.0
C214 C 0.34363 0.31251 0.18828 0.0
N215 N 0.35879 0.26984 0.14455 0.0
N216 N 0.35992 0.25602 0.33366 0.0
C217 C 0.34352 0.30246 0.30612 0.0
H218 H 0.37841 0.19494 0.22261 0.0
H219 H 0.33777 0.35474 0.1433 0.0
C220 C 0.39287 0.16624 0.93851 0.0
N221 N 0.42758 0.29756 0.76396 0.0
C222 C 0.4253 0.32626 0.6614 0.0
C223 C 0.4511 0.27114 0.7652 0.0
N224 N 0.44478 0.31258 0.59202 0.0
C225 C 0.46193 0.28133 0.66025 0.0
C226 C 0.43469 0.28133 1.08463 0.0
O227 O 0.37767 0.19092 1.00578 0.0
O228 O 0.40604 0.2016 0.87186 0.0
O229 O 0.43382 0.29579 0.9788 0.0
O230 O 0.41299 0.26735 0.13088 0.0
O231 O 0.40321 0.37791 0.88197 0.0
H232 H 0.45884 0.24137 0.83388 0.0
H233 H 0.40716 0.3465 0.63086 0.0
O234 O 0.38518 0.36785 1.04946 0.0
O235 O 0.3508 0.289 0.92985 0.0
O236 O 0.37116 0.28658 0.76827 0.0
C237 C 0.3495 0.2893 0.82023 0.0
H238 H 0.33823 0.33746 0.36684 0.0
H239 H 0.47837 0.25719 0.62973 0.0
C240 C 0.28374 0.24786 0.64925 0.0
C241 C 0.26589 0.28491 0.70497 0.0
C242 C 0.31129 0.25204 0.67845 0.0
C243 C 0.32226 0.29445 0.76303 0.0
H244 H 0.27625 0.21331 0.58636 0.0
H245 H 0.32378 0.21965 0.63906 0.0
S246 S 0.28499 0.41036 0.91735 0.0
N247 N 0.26219 0.37089 0.83751 0.0
N248 N 0.31297 0.37938 0.89061 0.0
C249 C 0.3047 0.3345 0.81252 0.0
C250 C 0.27693 0.32967 0.78417 0.0
C251 C 0.7574 0.24675 0.86053 0.0
C252 C 0.76454 0.27078 0.97167 0.0
C253 C 0.77574 0.24317 0.77404 0.0
C254 C 0.80236 0.26261 0.79412 0.0
H255 H 0.73735 0.23113 0.83886 0.0
H256 H 0.76882 0.22519 0.69013 0.0
S257 S 0.83203 0.32368 1.07462 0.0
N258 N 0.80074 0.31045 0.09921 0.0
N259 N 0.83501 0.30399 0.93837 0.0
C260 C 0.80992 0.28576 0.9059 0.0
C261 C 0.79115 0.28952 0.99397 0.0
C262 C 0.28915 0.72084 0.27068 0.0
C263 C 0.30335 0.77422 0.22964 0.0
C264 C 0.27346 0.72407 0.36681 0.0
C265 C 0.27145 0.78063 0.42658 0.0
H266 H 0.29053 0.67586 0.22964 0.0
H267 H 0.26292 0.6818 0.39533 0.0
S268 S 0.30279 0.93508 0.34833 0.0
N269 N 0.31302 0.88623 0.25241 0.0
N270 N 0.28379 0.89212 0.43318 0.0
C271 C 0.28526 0.83453 0.38569 0.0
C272 C 0.30111 0.83135 0.28734 0.0
C273 C 0.77501 0.76156 0.28178 0.0
C274 C 0.75519 0.75791 0.36335 0.0
C275 C 0.80207 0.76294 0.31517 0.0
C276 C 0.81123 0.761 0.43259 0.0
H277 H 0.76969 0.76366 0.18998 0.0
H278 H 0.81599 0.76589 0.24735 0.0
S279 S 0.76794 0.75055 0.6831 0.0
N280 N 0.74713 0.75178 0.5689 0.0
N281 N 0.79759 0.75469 0.63169 0.0
C282 C 0.79167 0.75733 0.51574 0.0
C283 C 0.76395 0.75575 0.48139 0.0
C284 C 0.18191 0.98266 0.5866 0.0
C285 C 0.16072 0.95258 0.64176 0.0
C286 C 0.18979 0.04505 0.60924 0.0
C287 C 0.177 0.08062 0.6888 0.0
H288 H 0.19277 0.95742 0.52541 0.0
H289 H 0.20586 0.06609 0.56196 0.0
S290 S 0.12047 0.02437 0.85804 0.0
N291 N 0.12722 0.96268 0.7815 0.0
N292 N 0.14181 0.08147 0.82289 0.0
C293 C 0.15582 0.05139 0.74569 0.0
C294 C 0.14764 0.98717 0.722 0.0
C295 C 0.92253 0.4937 0.52235 0.0
C296 C 0.91155 0.45674 0.61066 0.0
C297 C 0.91562 0.55615 0.50421 0.0
C298 C 0.89787 0.58422 0.57518 0.0
H299 H 0.93561 0.47343 0.46371 0.0
H300 H 0.92432 0.58272 0.43407 0.0
S301 S 0.8649 0.50782 0.82249 0.0
N302 N 0.8826 0.45264 0.77148 0.0
N303 N 0.87048 0.57064 0.74051 0.0
C304 C 0.88756 0.54831 0.66651 0.0
C305 C 0.89414 0.48439 0.68326 0.0
C306 C 0.88368 0.99079 0.56178 0.0
C307 C 0.89993 0.9566 0.49412 0.0
C308 C 0.89087 0.05176 0.59769 0.0
C309 C 0.91473 0.08229 0.56782 0.0
H310 H 0.86541 0.96938 0.59052 0.0
H311 H 0.87734 0.07531 0.6497 0.0
S312 S 0.96458 1.01357 0.39112 0.0
N313 N 0.9413 0.95716 0.39901 0.0
N314 N 0.95461 0.07355 0.46388 0.0
C315 C 0.93125 0.04907 0.49906 0.0
C316 C 0.92385 0.98608 0.46232 0.0
C317 C 0.14884 0.53476 0.64669 0.0
C318 C 0.16392 0.57902 0.58472 0.0
C319 C 0.15469 0.47118 0.64788 0.0
C320 C 0.1754 0.44946 0.58512 0.0
H321 H 0.13337 0.54974 0.69926 0.0
H322 H 0.14318 0.43879 0.70032 0.0
S323 S 0.21883 0.5459 0.39911 0.0
N324 N 0.19927 0.59648 0.45247 0.0
N325 N 0.20962 0.47651 0.45265 0.0
C326 C 0.18955 0.4926 0.51723 0.0
C327 C 0.18398 0.55756 0.51779 0.0
C328 C 0.64505 0.53659 0.26455 0.0
C329 C 0.66733 0.56576 0.21497 0.0
C330 C 0.63612 0.47474 0.23456 0.0
C331 C 0.64905 0.44046 0.15319 0.0
H332 H 0.6343 0.56189 0.32588 0.0
H333 H 0.61974 0.45291 0.27854 0.0
S334 S 0.70829 0.49545 0.99942 0.0
N335 N 0.70226 0.55464 1.08314 0.0
N336 N 0.68493 0.44119 1.02224 0.0
C337 C 0.67095 0.47003 0.10164 0.0
C338 C 0.6803 0.5317 0.13402 0.0
C339 C 0.38419 0.99539 1.02439 0.0
C340 C 0.40919 0.97212 1.01065 0.0
C341 C 0.3789 0.05764 0.99713 0.0
C342 C 0.39823 0.09916 0.95333 0.0
H343 H 0.36842 0.96523 1.05658 0.0
H344 H 0.35949 0.07343 1.01096 0.0
S345 S 0.46728 0.06349 0.90679 0.0
N346 N 0.4538 0.99667 0.9544 0.0
N347 N 0.44377 0.11391 0.90214 0.0
C348 C 0.4234 0.07702 0.93984 0.0
C349 C 0.42892 1.01356 0.96916 0.0
C350 C 0.38909 0.50309 1.07377 0.0
C351 C 0.40339 0.4694 0.99716 0.0
C352 C 0.3954 0.5667 1.09477 0.0
C353 C 0.41659 0.59864 1.04202 0.0
H354 H 0.37241 0.48075 0.11495 0.0
H355 H 0.38305 0.59169 0.1502 0.0
S356 S 0.46211 0.5298 0.84506 0.0
N357 N 0.44113 0.47123 0.87567 0.0
N358 N 0.45295 0.59091 0.91668 0.0
C359 C 0.43198 0.56473 0.97059 0.0
C360 C 0.42533 0.50009 0.94751 0.0
C361 C 0.64374 0.02741 0.23536 0.0
C362 C 0.65716 0.06623 0.15638 0.0
C363 C 0.65123 0.96565 0.25855 0.0
C364 C 0.67219 0.9403 0.20249 0.0
H365 H 0.62797 0.04552 0.28236 0.0
H366 H 0.64027 0.93729 0.31971 0.0
S367 S 0.71295 0.02264 0.98501 0.0
N368 N 0.692 0.07474 1.02045 0.0
N369 N 0.70576 0.95911 1.06249 0.0
C370 C 0.68537 0.97854 0.12178 0.0
C371 C 0.67793 0.04129 0.09916 0.0
C372 C 0.26105 0.22047 0.1619 0.0
C373 C 0.25672 0.25077 0.26582 0.0
C374 C 0.25094 0.24868 1.05999 0.0
C375 C 0.23988 0.30807 1.06799 0.0
H376 H 0.26412 0.17064 0.16161 0.0
H377 H 0.24782 0.22038 0.98291 0.0
S378 S 0.26192 0.42192 0.2967 0.0
N379 N 0.26948 0.35245 0.35034 0.0
N380 N 0.24811 0.40914 0.16568 0.0
C381 C 0.2501 0.34613 0.15987 0.0
C382 C 0.26179 0.31591 0.25817 0.0
C383 C 0.89544 0.25688 0.16575 0.0
C384 C 0.91807 0.27127 0.23916 0.0
C385 C 0.89609 0.25451 1.04135 0.0
C386 C 0.9193 0.26679 0.97989 0.0
H387 H 0.87688 0.24651 0.20482 0.0
H388 H 0.87801 0.24206 0.99253 0.0
S389 S 0.98454 0.30623 0.12676 0.0
N390 N 0.96492 0.29723 0.23578 0.0
N391 N 0.96588 0.29349 1.00751 0.0
C392 C 0.94209 0.2808 1.05218 0.0
C393 C 0.94152 0.28292 0.17881 0.0
C394 C 0.17964 0.7697 0.18641 0.0
C395 C 0.15558 0.76758 0.24433 0.0
C396 C 0.18097 0.76753 1.06217 0.0
C397 C 0.15833 0.76283 0.98538 0.0
H398 H 0.19796 0.77306 0.23788 0.0
H399 H 0.20014 0.76965 1.02607 0.0
S400 S 0.09002 0.75524 1.08772 0.0
N401 N 0.10834 0.76019 0.20961 0.0
N402 N 0.11062 0.7561 0.98193 0.0
C403 C 0.13414 0.76057 1.0423 0.0
C404 C 0.13282 0.76289 0.16866 0.0
C405 C 0.9511 0.85775 1.02331 0.0
C406 C 0.94188 0.81451 0.93688 0.0
C407 C 0.96718 0.83575 0.11607 0.0
C408 C 0.9661 0.76999 0.13164 0.0
H409 H 0.94331 0.90378 1.02853 0.0
H410 H 0.97122 0.86605 0.19013 0.0
S411 S 0.9742 0.6655 0.88732 0.0
N412 N 0.95602 0.72221 0.83457 0.0
N413 N 0.98209 0.68368 1.0241 0.0
C414 C 0.97064 0.73951 1.02903 0.0
C415 C 0.95622 0.75967 0.92878 0.0
C416 C 0.66544 0.61072 0.62355 0.0
C417 C 0.64152 0.63662 0.65127 0.0
C418 C 0.68408 0.59864 0.71282 0.0
C419 C 0.67782 0.61049 0.82658 0.0
H420 H 0.67237 0.6152 0.53672 0.0
H421 H 0.7044 0.59656 0.69131 0.0
S422 S 0.61137 0.61823 0.93353 0.0
N423 N 0.60811 0.63413 0.79313 0.0
N424 N 0.64224 0.60034 0.95874 0.0
C425 C 0.65097 0.60425 0.84966 0.0
C426 C 0.63257 0.62248 0.76106 0.0
C427 C 0.43933 0.79036 0.61156 0.0
C428 C 0.41537 0.78482 0.67003 0.0
C429 C 0.4405 0.79121 0.48716 0.0
C430 C 0.41778 0.7866 0.41084 0.0
H431 H 0.45768 0.79421 0.66268 0.0
H432 H 0.4596 0.79557 0.45057 0.0
S433 S 0.34966 0.77101 0.51492 0.0
N434 N 0.36813 0.77461 0.63648 0.0
N435 N 0.37011 0.77591 0.40855 0.0
C436 C 0.39368 0.78096 0.46837 0.0
C437 C 0.39253 0.78016 0.59487 0.0
C438 C 0.62512 0.23535 0.57389 0.0
C439 C 0.64788 0.25318 0.51253 0.0
C440 C 0.62455 0.23581 0.69847 0.0
C441 C 0.6467 0.25434 0.77193 0.0
H442 H 0.60732 0.22026 0.52499 0.0
H443 H 0.60643 0.2209 0.73759 0.0
S444 S 0.71077 0.31214 0.65878 0.0
N445 N 0.69289 0.29389 0.53974 0.0
N446 N 0.69191 0.2954 0.7682 0.0
C447 C 0.66942 0.27357 0.71143 0.0
C448 C 0.66999 0.27284 0.58476 0.0
C449 C 0.39783 0.32812 0.37711 0.0
C450 C 0.3842 0.26975 0.39754 0.0
C451 C 0.42423 0.33796 0.41089 0.0
C452 C 0.43667 0.29242 0.47841 0.0
H453 H 0.38821 0.36625 0.33268 0.0
H454 H 0.43291 0.38526 0.40675 0.0
S455 S 0.41456 0.12507 0.50515 0.0
N456 N 0.38852 0.16037 0.4515 0.0
N457 N 0.43839 0.18023 0.51663 0.0
C458 C 0.42573 0.23054 0.47324 0.0
C459 C 0.39879 0.22006 0.44091 0.0
C460 C 0.09025 0.23798 0.70168 0.0
C461 C 0.10444 0.25361 0.60256 0.0
C462 C 0.06287 0.24195 0.70196 0.0
C463 C 0.04806 0.26128 0.60312 0.0
H464 H 0.10052 0.22461 0.78191 0.0
H465 H 0.05323 0.2328 0.78232 0.0
S466 S 0.07474 0.3046 0.31874 0.0
N467 N 0.1009 0.28643 0.40004 0.0
N468 N 0.0494 0.29413 0.40166 0.0
C469 C 0.06158 0.27416 0.50155 0.0
C470 C 0.0897 0.27011 0.50093 0.0
C471 C 0.98478 0.73572 0.50612 0.0
C472 C 0.97112 0.77501 0.57731 0.0
C473 C 1.01223 0.73275 0.51644 0.0
C474 C 1.02745 0.76966 0.59688 0.0
H475 H 0.97408 0.70544 0.44347 0.0
H476 H 1.02164 0.69962 0.46388 0.0
S477 S 1.00222 0.88413 0.79742 0.0
N478 N 0.97558 0.85538 0.72538 0.0
N479 N 1.02714 0.84809 0.74704 0.0
C480 C 1.01433 0.81043 0.66648 0.0
C481 C 0.98624 0.81367 0.65592 0.0
C482 C 0.59265 0.77733 1.0057 0.0
C483 C 0.6012 0.75437 0.11509 0.0
C484 C 0.5659 0.78722 0.97922 0.0
C485 C 0.54644 0.77466 1.06076 0.0
H486 H 0.60678 0.78982 0.94139 0.0
H487 H 0.56052 0.80624 0.89451 0.0
S488 S 0.5581 0.70758 0.35571 0.0
N489 N 0.58743 0.71365 0.30194 0.0
N490 N 0.53778 0.73401 0.25297 0.0
C491 C 0.55458 0.74856 0.16804 0.0
C492 C 0.58173 0.73815 0.19492 0.0
C493 C 0.48138 0.32128 0.11888 0.0
C494 C 0.46144 0.27492 0.14152 0.0
C495 C 0.50832 0.3091 0.1322 0.0
C496 C 0.51658 0.24944 0.16632 0.0
H497 H 0.47606 0.36617 1.08227 0.0
H498 H 0.52266 0.34495 0.10618 0.0
S499 S 0.47259 0.11348 0.24761 0.0
N500 N 0.4522 0.1687 0.20985 0.0
N501 N 0.50246 0.14526 0.23368 0.0
C502 C 0.49689 0.20407 0.19713 0.0
C503 C 0.46949 0.21691 0.18527 0.0
loop_
_geom_bond_atom_site_label_1
_geom_bond_atom_site_label_2
_geom_bond_distance
_geom_bond_site_symmetry_2
_ccdc_geom_bond_type
Co0 N5 2.057 . S
Co0 O17 2.021 . S
Co0 O20 2.062 . S
Co0 O24 2.117 . S
Co0 O25 2.020 . S
C1 O21 1.259 . S
C1 O24 1.258 . S
Co2 N11 2.057 . S
Co2 O18 2.117 . S
Co2 O19 2.020 . S
Co2 O21 2.021 . S
Co2 O26 2.062 . S
C3 N5 1.316 . S
C3 N6 1.347 . S
C3 H8 0.931 . S
C4 N5 1.375 . S
C4 C7 1.350 . S
C4 H9 0.930 . S
N5 Co0 2.057 . S
N5 C3 1.316 . S
N5 C4 1.375 . S
N6 C3 1.347 . S
N6 C7 1.373 . S
C7 C4 1.350 . S
C7 N6 1.373 . S
C7 H28 0.931 1_556 S
H8 C3 0.931 . S
H9 C4 0.930 . S
C10 O17 1.259 . S
C10 O18 1.258 . S
N11 Co2 2.057 . S
N11 C12 1.316 . S
N11 C13 1.375 . S
C12 N11 1.316 . S
C12 N14 1.347 . S
C12 H23 0.931 . S
C13 N11 1.375 . S
C13 C15 1.350 . S
C13 H22 0.930 . S
N14 C12 1.347 . S
N14 C15 1.373 . S
C15 C13 1.350 . S
C15 N14 1.373 . S
C15 H29 0.931 . S
C16 O19 1.256 . S
C16 O20 1.255 . S
O17 Co0 2.021 . S
O17 C10 1.259 . S
O18 Co2 2.117 . S
O18 C10 1.258 . S
O19 Co2 2.020 . S
O19 C16 1.256 . S
O20 Co0 2.062 . S
O20 C16 1.255 . S
O21 C1 1.259 . S
O21 Co2 2.021 . S
H22 C13 0.930 . S
H23 C12 0.931 . S
O24 Co0 2.117 . S
O24 C1 1.258 . S
O25 Co0 2.020 . S
O25 C27 1.256 . S
O26 Co2 2.062 . S
O26 C27 1.255 . S
C27 O25 1.256 . S
C27 O26 1.255 . S
H28 C7 0.931 1_554 S
H29 C15 0.931 . S
Co30 N35 2.057 . S
Co30 O47 2.021 . S
Co30 O50 2.062 . S
Co30 O54 2.117 . S
Co30 O55 2.020 . S
C31 O51 1.259 . S
C31 O54 1.258 . S
Co32 N41 2.057 . S
Co32 O48 2.117 . S
Co32 O49 2.020 . S
Co32 O51 2.021 . S
Co32 O56 2.062 . S
C33 N35 1.316 . S
C33 N36 1.347 . S
C33 H38 0.931 . S
C34 N35 1.375 . S
C34 C37 1.350 . S
C34 H39 0.930 . S
N35 Co30 2.057 . S
N35 C33 1.316 . S
N35 C34 1.375 . S
N36 C33 1.347 . S
N36 C37 1.373 . S
C37 C34 1.350 . S
C37 N36 1.373 . S
C37 H58 0.931 . S
H38 C33 0.931 . S
H39 C34 0.930 . S
C40 O47 1.259 . S
C40 O48 1.258 . S
N41 Co32 2.057 . S
N41 C42 1.316 . S
N41 C43 1.375 . S
C42 N41 1.316 . S
C42 N44 1.347 . S
C42 H53 0.931 . S
C43 N41 1.375 . S
C43 C45 1.350 . S
C43 H52 0.930 . S
N44 C42 1.347 . S
N44 C45 1.373 . S
C45 C43 1.350 . S
C45 N44 1.373 . S
C45 H59 0.931 . S
C46 O49 1.256 . S
C46 O50 1.255 . S
O47 Co30 2.021 . S
O47 C40 1.259 . S
O48 Co32 2.117 . S
O48 C40 1.258 . S
O49 Co32 2.020 . S
O49 C46 1.256 . S
O50 Co30 2.062 . S
O50 C46 1.255 . S
O51 C31 1.259 . S
O51 Co32 2.021 . S
H52 C43 0.930 . S
H53 C42 0.931 . S
O54 Co30 2.117 . S
O54 C31 1.258 . S
O55 Co30 2.020 . S
O55 C57 1.256 . S
O56 Co32 2.062 . S
O56 C57 1.255 . S
C57 O55 1.256 . S
C57 O56 1.255 . S
H58 C37 0.931 . S
H59 C45 0.931 . S
Co60 N65 2.057 . S
Co60 O77 2.021 . S
Co60 O80 2.062 . S
Co60 O84 2.117 . S
Co60 O85 2.020 . S
C61 O81 1.259 . S
C61 O84 1.258 . S
Co62 N71 2.057 . S
Co62 O78 2.117 . S
Co62 O79 2.020 . S
Co62 O81 2.021 . S
Co62 O86 2.062 . S
C63 N65 1.316 . S
C63 N66 1.347 . S
C63 H68 0.931 . S
C64 N65 1.375 . S
C64 C67 1.350 . S
C64 H69 0.930 . S
N65 Co60 2.057 . S
N65 C63 1.316 . S
N65 C64 1.375 . S
N66 C63 1.347 . S
N66 C67 1.373 . S
C67 C64 1.350 . S
C67 N66 1.373 . S
C67 H88 0.931 . S
H68 C63 0.931 . S
H69 C64 0.930 . S
C70 O77 1.259 . S
C70 O78 1.258 . S
N71 Co62 2.057 . S
N71 C72 1.316 . S
N71 C73 1.375 . S
C72 N71 1.316 . S
C72 N74 1.347 . S
C72 H83 0.931 . S
C73 N71 1.375 . S
C73 C75 1.350 . S
C73 H82 0.930 . S
N74 C72 1.347 . S
N74 C75 1.373 . S
C75 C73 1.350 . S
C75 N74 1.373 . S
C75 H89 0.931 . S
C76 O79 1.256 . S
C76 O80 1.255 . S
O77 Co60 2.021 . S
O77 C70 1.259 . S
O78 Co62 2.117 . S
O78 C70 1.258 . S
O79 Co62 2.020 . S
O79 C76 1.256 . S
O80 Co60 2.062 . S
O80 C76 1.255 . S
O81 C61 1.259 . S
O81 Co62 2.021 . S
H82 C73 0.930 . S
H83 C72 0.931 . S
O84 Co60 2.117 . S
O84 C61 1.258 . S
O85 Co60 2.020 . S
O85 C87 1.256 . S
O86 Co62 2.062 . S
O86 C87 1.255 . S
C87 O85 1.256 . S
C87 O86 1.255 . S
H88 C67 0.931 . S
H89 C75 0.931 . S
Co90 N95 2.057 . S
Co90 O107 2.021 . S
Co90 O110 2.062 . S
Co90 O114 2.117 . S
Co90 O115 2.020 . S
C91 O111 1.259 . S
C91 O114 1.258 . S
Co92 N101 2.057 . S
Co92 O108 2.117 . S
Co92 O109 2.020 . S
Co92 O111 2.021 . S
Co92 O116 2.062 . S
C93 N95 1.316 . S
C93 N96 1.347 . S
C93 H98 0.931 . S
C94 N95 1.375 . S
C94 C97 1.350 . S
C94 H99 0.930 . S
N95 Co90 2.057 . S
N95 C93 1.316 . S
N95 C94 1.375 . S
N96 C93 1.347 . S
N96 C97 1.373 . S
C97 C94 1.350 . S
C97 N96 1.373 . S
C97 H118 0.931 . S
H98 C93 0.931 . S
H99 C94 0.930 . S
C100 O107 1.259 . S
C100 O108 1.258 . S
N101 Co92 2.057 . S
N101 C102 1.316 . S
N101 C103 1.375 . S
C102 N101 1.316 . S
C102 N104 1.347 . S
C102 H113 0.931 . S
C103 N101 1.375 . S
C103 C105 1.350 . S
C103 H112 0.930 . S
N104 C102 1.347 . S
N104 C105 1.373 . S
C105 C103 1.350 . S
C105 N104 1.373 . S
C105 H119 0.931 1_554 S
C106 O109 1.256 . S
C106 O110 1.255 . S
O107 Co90 2.021 . S
O107 C100 1.259 . S
O108 Co92 2.117 . S
O108 C100 1.258 . S
O109 Co92 2.020 . S
O109 C106 1.256 . S
O110 Co90 2.062 . S
O110 C106 1.255 . S
O111 C91 1.259 . S
O111 Co92 2.021 . S
H112 C103 0.930 . S
H113 C102 0.931 . S
O114 Co90 2.117 . S
O114 C91 1.258 . S
O115 Co90 2.020 . S
O115 C117 1.256 . S
O116 Co92 2.062 . S
O116 C117 1.255 . S
C117 O115 1.256 . S
C117 O116 1.255 . S
H118 C97 0.931 . S
H119 C105 0.931 1_556 S
Co120 N125 2.057 . S
Co120 O137 2.021 . S
Co120 O140 2.062 . S
Co120 O144 2.117 . S
Co120 O145 2.020 . S
C121 O141 1.259 1_554 S
C121 O144 1.258 . S
Co122 N131 2.057 . S
Co122 O138 2.117 1_556 S
Co122 O139 2.020 1_556 S
Co122 O141 2.021 . S
Co122 O146 2.062 . S
C123 N125 1.316 . S
C123 N126 1.347 . S
C123 H128 0.931 . S
C124 N125 1.375 . S
C124 C127 1.350 . S
C124 H129 0.930 . S
N125 Co120 2.057 . S
N125 C123 1.316 . S
N125 C124 1.375 . S
N126 C123 1.347 . S
N126 C127 1.373 . S
C127 C124 1.350 . S
C127 N126 1.373 . S
C127 H148 0.931 . S
H128 C123 0.931 . S
H129 C124 0.930 . S
C130 O137 1.259 . S
C130 O138 1.258 . S
N131 Co122 2.057 . S
N131 C132 1.316 . S
N131 C133 1.375 . S
C132 N131 1.316 . S
C132 N134 1.347 . S
C132 H143 0.931 . S
C133 N131 1.375 . S
C133 C135 1.350 . S
C133 H142 0.930 . S
N134 C132 1.347 . S
N134 C135 1.373 . S
C135 C133 1.350 . S
C135 N134 1.373 . S
C135 H149 0.931 . S
C136 O139 1.256 . S
C136 O140 1.255 . S
O137 Co120 2.021 . S
O137 C130 1.259 . S
O138 Co122 2.117 1_554 S
O138 C130 1.258 . S
O139 Co122 2.020 1_554 S
O139 C136 1.256 . S
O140 Co120 2.062 . S
O140 C136 1.255 . S
O141 C121 1.259 1_556 S
O141 Co122 2.021 . S
H142 C133 0.930 . S
H143 C132 0.931 . S
O144 Co120 2.117 . S
O144 C121 1.258 . S
O145 Co120 2.020 . S
O145 C147 1.256 . S
O146 Co122 2.062 . S
O146 C147 1.255 1_556 S
C147 O145 1.256 . S
C147 O146 1.255 1_554 S
H148 C127 0.931 . S
H149 C135 0.931 . S
Co150 N155 2.057 . S
Co150 O167 2.021 . S
Co150 O170 2.062 1_554 S
Co150 O174 2.117 . S
Co150 O175 2.020 . S
C151 O171 1.259 . S
C151 O174 1.258 . S
Co152 N161 2.057 . S
Co152 O168 2.117 . S
Co152 O169 2.020 1_554 S
Co152 O171 2.021 . S
Co152 O176 2.062 . S
C153 N155 1.316 . S
C153 N156 1.347 1_554 S
C153 H158 0.931 . S
C154 N155 1.375 . S
C154 C157 1.350 . S
C154 H159 0.930 . S
N155 Co150 2.057 . S
N155 C153 1.316 . S
N155 C154 1.375 . S
N156 C153 1.347 1_556 S
N156 C157 1.373 1_556 S
C157 C154 1.350 . S
C157 N156 1.373 1_554 S
C157 H178 0.931 . S
H158 C153 0.931 . S
H159 C154 0.930 . S
C160 O167 1.259 . S
C160 O168 1.258 . S
N161 Co152 2.057 . S
N161 C162 1.316 . S
N161 C163 1.375 . S
C162 N161 1.316 . S
C162 N164 1.347 . S
C162 H173 0.931 . S
C163 N161 1.375 . S
C163 C165 1.350 . S
C163 H172 0.930 . S
N164 C162 1.347 . S
N164 C165 1.373 . S
C165 C163 1.350 . S
C165 N164 1.373 . S
C165 H179 0.931 . S
C166 O169 1.256 . S
C166 O170 1.255 . S
O167 Co150 2.021 . S
O167 C160 1.259 . S
O168 Co152 2.117 . S
O168 C160 1.258 . S
O169 Co152 2.020 1_556 S
O169 C166 1.256 . S
O170 Co150 2.062 1_556 S
O170 C166 1.255 . S
O171 C151 1.259 . S
O171 Co152 2.021 . S
H172 C163 0.930 . S
H173 C162 0.931 . S
O174 Co150 2.117 . S
O174 C151 1.258 . S
O175 Co150 2.020 . S
O175 C177 1.256 . S
O176 Co152 2.062 . S
O176 C177 1.255 . S
C177 O175 1.256 . S
C177 O176 1.255 . S
H178 C157 0.931 . S
H179 C165 0.931 . S
Co180 N185 2.057 . S
Co180 O197 2.021 . S
Co180 O200 2.062 . S
Co180 O204 2.117 . S
Co180 O205 2.020 1_556 S
C181 O201 1.259 . S
C181 O204 1.258 . S
Co182 N191 2.057 . S
Co182 O198 2.117 . S
Co182 O199 2.020 . S
Co182 O201 2.021 . S
Co182 O206 2.062 1_556 S
C183 N185 1.316 . S
C183 N186 1.347 . S
C183 H188 0.931 . S
C184 N185 1.375 . S
C184 C187 1.350 . S
C184 H189 0.930 . S
N185 Co180 2.057 . S
N185 C183 1.316 . S
N185 C184 1.375 . S
N186 C183 1.347 . S
N186 C187 1.373 . S
C187 C184 1.350 . S
C187 N186 1.373 . S
C187 H208 0.931 . S
H188 C183 0.931 . S
H189 C184 0.930 . S
C190 O197 1.259 . S
C190 O198 1.258 . S
N191 Co182 2.057 . S
N191 C192 1.316 . S
N191 C193 1.375 . S
C192 N191 1.316 . S
C192 N194 1.347 1_556 S
C192 H203 0.931 . S
C193 N191 1.375 . S
C193 C195 1.350 . S
C193 H202 0.930 . S
N194 C192 1.347 1_554 S
N194 C195 1.373 1_554 S
C195 C193 1.350 . S
C195 N194 1.373 1_556 S
C195 H209 0.931 . S
C196 O199 1.256 . S
C196 O200 1.255 . S
O197 Co180 2.021 . S
O197 C190 1.259 . S
O198 Co182 2.117 . S
O198 C190 1.258 . S
O199 Co182 2.020 . S
O199 C196 1.256 . S
O200 Co180 2.062 . S
O200 C196 1.255 . S
O201 C181 1.259 . S
O201 Co182 2.021 . S
H202 C193 0.930 . S
H203 C192 0.931 . S
O204 Co180 2.117 . S
O204 C181 1.258 . S
O205 Co180 2.020 1_554 S
O205 C207 1.256 . S
O206 Co182 2.062 1_554 S
O206 C207 1.255 . S
C207 O205 1.256 . S
C207 O206 1.255 . S
H208 C187 0.931 . S
H209 C195 0.931 . S
Co210 N215 2.057 . S
Co210 O227 2.021 . S
Co210 O230 2.062 . S
Co210 O234 2.117 1_554 S
Co210 O235 2.020 1_554 S
C211 O231 1.259 . S
C211 O234 1.258 . S
Co212 N221 2.057 . S
Co212 O228 2.117 . S
Co212 O229 2.020 . S
Co212 O231 2.021 . S
Co212 O236 2.062 . S
C213 N215 1.316 . S
C213 N216 1.347 . S
C213 H218 0.931 . S
C214 N215 1.375 . S
C214 C217 1.350 . S
C214 H219 0.930 . S
N215 Co210 2.057 . S
N215 C213 1.316 . S
N215 C214 1.375 . S
N216 C213 1.347 . S
N216 C217 1.373 . S
C217 C214 1.350 . S
C217 N216 1.373 . S
C217 H238 0.931 . S
H218 C213 0.931 . S
H219 C214 0.930 . S
C220 O227 1.259 1_556 S
C220 O228 1.258 . S
N221 Co212 2.057 . S
N221 C222 1.316 . S
N221 C223 1.375 . S
C222 N221 1.316 . S
C222 N224 1.347 . S
C222 H233 0.931 . S
C223 N221 1.375 . S
C223 C225 1.350 . S
C223 H232 0.930 . S
N224 C222 1.347 . S
N224 C225 1.373 . S
C225 C223 1.350 . S
C225 N224 1.373 . S
C225 H239 0.931 . S
C226 O229 1.256 . S
C226 O230 1.255 1_556 S
O227 Co210 2.021 . S
O227 C220 1.259 1_554 S
O228 Co212 2.117 . S
O228 C220 1.258 . S
O229 Co212 2.020 . S
O229 C226 1.256 . S
O230 Co210 2.062 . S
O230 C226 1.255 1_554 S
O231 C211 1.259 . S
O231 Co212 2.021 . S
H232 C223 0.930 . S
H233 C222 0.931 . S
O234 Co210 2.117 1_556 S
O234 C211 1.258 . S
O235 Co210 2.020 1_556 S
O235 C237 1.256 . S
O236 Co212 2.062 . S
O236 C237 1.255 . S
C237 O235 1.256 . S
C237 O236 1.255 . S
H238 C217 0.931 . S
H239 C225 0.931 . S
C240 C241 1.369 . S
C240 C242 1.419 . S
C240 H244 0.930 . S
C241 C240 1.369 . S
C241 C250 1.429 . S
C242 C240 1.419 . S
C242 C243 1.363 . S
C242 H245 0.929 . S
C243 C242 1.363 . S
C243 C249 1.428 . S
H244 C240 0.930 . S
H245 C242 0.929 . S
S246 N247 1.613 . S
S246 N248 1.610 . S
N247 S246 1.613 . S
N247 C250 1.350 . S
N248 S246 1.610 . S
N248 C249 1.351 . S
C249 C243 1.428 . S
C249 N248 1.351 . S
C249 C250 1.434 . S
C250 C241 1.429 . S
C250 N247 1.350 . S
C250 C249 1.434 . S
C251 C252 1.369 . S
C251 C253 1.419 . S
C251 H255 0.930 . S
C252 C251 1.369 . S
C252 C261 1.429 . S
C253 C251 1.419 . S
C253 C254 1.363 . S
C253 H256 0.929 . S
C254 C253 1.363 . S
C254 C260 1.428 . S
H255 C251 0.930 . S
H256 C253 0.929 . S
S257 N258 1.613 . S
S257 N259 1.610 . S
N258 S257 1.613 . S
N258 C261 1.350 . S
N259 S257 1.610 . S
N259 C260 1.351 . S
C260 C254 1.428 . S
C260 N259 1.351 . S
C260 C261 1.434 . S
C261 C252 1.429 . S
C261 N258 1.350 . S
C261 C260 1.434 . S
C262 C263 1.369 . S
C262 C264 1.419 . S
C262 H266 0.930 . S
C263 C262 1.369 . S
C263 C272 1.429 . S
C264 C262 1.419 . S
C264 C265 1.363 . S
C264 H267 0.929 . S
C265 C264 1.363 . S
C265 C271 1.428 . S
H266 C262 0.930 . S
H267 C264 0.929 . S
S268 N269 1.613 . S
S268 N270 1.610 . S
N269 S268 1.613 . S
N269 C272 1.350 . S
N270 S268 1.610 . S
N270 C271 1.351 . S
C271 C265 1.428 . S
C271 N270 1.351 . S
C271 C272 1.434 . S
C272 C263 1.429 . S
C272 N269 1.350 . S
C272 C271 1.434 . S
C273 C274 1.369 . S
C273 C275 1.419 . S
C273 H277 0.930 . S
C274 C273 1.369 . S
C274 C283 1.429 . S
C275 C273 1.419 . S
C275 C276 1.363 . S
C275 H278 0.929 . S
C276 C275 1.363 . S
C276 C282 1.428 . S
H277 C273 0.930 . S
H278 C275 0.929 . S
S279 N280 1.613 . S
S279 N281 1.610 . S
N280 S279 1.613 . S
N280 C283 1.350 . S
N281 S279 1.610 . S
N281 C282 1.351 . S
C282 C276 1.428 . S
C282 N281 1.351 . S
C282 C283 1.434 . S
C283 C274 1.429 . S
C283 N280 1.350 . S
C283 C282 1.434 . S
C284 C285 1.369 . S
C284 C286 1.419 1_565 S
C284 H288 0.930 . S
C285 C284 1.369 . S
C285 C294 1.429 . S
C286 C284 1.419 1_545 S
C286 C287 1.363 . S
C286 H289 0.929 . S
C287 C286 1.363 . S
C287 C293 1.428 . S
H288 C284 0.930 . S
H289 C286 0.929 . S
S290 N291 1.613 . S
S290 N292 1.610 1_565 S
N291 S290 1.613 . S
N291 C294 1.350 . S
N292 S290 1.610 1_545 S
N292 C293 1.351 . S
C293 C287 1.428 . S
C293 N292 1.351 . S
C293 C294 1.434 1_545 S
C294 C285 1.429 . S
C294 N291 1.350 . S
C294 C293 1.434 1_565 S
C295 C296 1.369 . S
C295 C297 1.419 . S
C295 H299 0.930 . S
C296 C295 1.369 . S
C296 C305 1.429 . S
C297 C295 1.419 . S
C297 C298 1.363 . S
C297 H300 0.929 . S
C298 C297 1.363 . S
C298 C304 1.428 . S
H299 C295 0.930 . S
H300 C297 0.929 . S
S301 N302 1.613 . S
S301 N303 1.610 . S
N302 S301 1.613 . S
N302 C305 1.350 . S
N303 S301 1.610 . S
N303 C304 1.351 . S
C304 C298 1.428 . S
C304 N303 1.351 . S
C304 C305 1.434 . S
C305 C296 1.429 . S
C305 N302 1.350 . S
C305 C304 1.434 . S
C306 C307 1.369 . S
C306 C308 1.419 1_565 S
C306 H310 0.930 . S
C307 C306 1.369 . S
C307 C316 1.429 . S
C308 C306 1.419 1_545 S
C308 C309 1.363 . S
C308 H311 0.929 . S
C309 C308 1.363 . S
C309 C315 1.428 . S
H310 C306 0.930 . S
H311 C308 0.929 . S
S312 N313 1.613 . S
S312 N314 1.610 1_565 S
N313 S312 1.613 . S
N313 C316 1.350 . S
N314 S312 1.610 1_545 S
N314 C315 1.351 . S
C315 C309 1.428 . S
C315 N314 1.351 . S
C315 C316 1.434 1_545 S
C316 C307 1.429 . S
C316 N313 1.350 . S
C316 C315 1.434 1_565 S
C317 C318 1.369 . S
C317 C319 1.419 . S
C317 H321 0.930 . S
C318 C317 1.369 . S
C318 C327 1.429 . S
C319 C317 1.419 . S
C319 C320 1.363 . S
C319 H322 0.929 . S
C320 C319 1.363 . S
C320 C326 1.428 . S
H321 C317 0.930 . S
H322 C319 0.929 . S
S323 N324 1.613 . S
S323 N325 1.610 . S
N324 S323 1.613 . S
N324 C327 1.350 . S
N325 S323 1.610 . S
N325 C326 1.351 . S
C326 C320 1.428 . S
C326 N325 1.351 . S
C326 C327 1.434 . S
C327 C318 1.429 . S
C327 N324 1.350 . S
C327 C326 1.434 . S
C328 C329 1.369 . S
C328 C330 1.419 . S
C328 H332 0.930 . S
C329 C328 1.369 . S
C329 C338 1.429 . S
C330 C328 1.419 . S
C330 C331 1.363 1_554 S
C330 H333 0.929 . S
C331 C330 1.363 1_556 S
C331 C337 1.428 . S
H332 C328 0.930 . S
H333 C330 0.929 . S
S334 N335 1.613 1_556 S
S334 N336 1.610 . S
N335 S334 1.613 1_554 S
N335 C338 1.350 . S
N336 S334 1.610 . S
N336 C337 1.351 . S
C337 C331 1.428 . S
C337 N336 1.351 . S
C337 C338 1.434 1_556 S
C338 C329 1.429 . S
C338 N335 1.350 . S
C338 C337 1.434 1_554 S
C339 C340 1.369 . S
C339 C341 1.419 1_564 S
C339 H343 0.930 . S
C340 C339 1.369 . S
C340 C349 1.429 1_554 S
C341 C339 1.419 1_546 S
C341 C342 1.363 . S
C341 H344 0.929 1_556 S
C342 C341 1.363 . S
C342 C348 1.428 . S
H343 C339 0.930 . S
H344 C341 0.929 1_554 S
S345 N346 1.613 1_545 S
S345 N347 1.610 . S
N346 S345 1.613 1_565 S
N346 C349 1.350 . S
N347 S345 1.610 . S
N347 C348 1.351 . S
C348 C342 1.428 . S
C348 N347 1.351 . S
C348 C349 1.434 1_545 S
C349 C340 1.429 1_556 S
C349 N346 1.350 . S
C349 C348 1.434 1_565 S
C350 C351 1.369 1_554 S
C350 C352 1.419 . S
C350 H354 0.930 . S
C351 C350 1.369 1_556 S
C351 C360 1.429 . S
C352 C350 1.419 . S
C352 C353 1.363 . S
C352 H355 0.929 . S
C353 C352 1.363 . S
C353 C359 1.428 1_554 S
H354 C350 0.930 . S
H355 C352 0.929 . S
S356 N357 1.613 . S
S356 N358 1.610 . S
N357 S356 1.613 . S
N357 C360 1.350 . S
N358 S356 1.610 . S
N358 C359 1.351 . S
C359 C353 1.428 1_556 S
C359 N358 1.351 . S
C359 C360 1.434 . S
C360 C351 1.429 . S
C360 N357 1.350 . S
C360 C359 1.434 . S
C361 C362 1.369 1_554 S
C361 C363 1.419 1_545 S
C361 H365 0.930 . S
C362 C361 1.369 1_556 S
C362 C371 1.429 . S
C363 C361 1.419 1_565 S
C363 C364 1.363 . S
C363 H366 0.929 . S
C364 C363 1.363 . S
C364 C370 1.425 1_554 S
H365 C361 0.930 . S
H366 C363 0.929 . S
S367 N368 1.613 . S
S367 N369 1.610 1_545 S
N368 S367 1.613 . S
N368 C371 1.350 . S
N369 S367 1.610 1_565 S
N369 C370 1.353 . S
C370 C364 1.425 1_556 S
C370 N369 1.353 . S
C370 C371 1.436 1_565 S
C371 C362 1.429 . S
C371 N368 1.350 . S
C371 C370 1.436 1_545 S
C372 C373 1.369 . S
C372 C374 1.419 . S
C372 H376 0.930 . S
C373 C372 1.369 . S
C373 C382 1.429 . S
C374 C372 1.419 . S
C374 C375 1.363 1_554 S
C374 H377 0.929 . S
C375 C374 1.363 1_556 S
C375 C381 1.428 1_556 S
H376 C372 0.930 . S
H377 C374 0.929 . S
S378 N379 1.613 . S
S378 N380 1.610 1_554 S
N379 S378 1.613 . S
N379 C382 1.350 . S
N380 S378 1.610 1_556 S
N380 C381 1.351 1_556 S
C381 C375 1.428 1_554 S
C381 N380 1.351 1_554 S
C381 C382 1.434 . S
C382 C373 1.429 . S
C382 N379 1.350 . S
C382 C381 1.434 . S
C383 C384 1.369 . S
C383 C385 1.419 1_554 S
C383 H387 0.930 . S
C384 C383 1.369 . S
C384 C393 1.429 . S
C385 C383 1.419 1_556 S
C385 C386 1.363 . S
C385 H388 0.929 . S
C386 C385 1.363 . S
C386 C392 1.428 . S
H387 C383 0.930 . S
H388 C385 0.929 . S
S389 N390 1.613 . S
S389 N391 1.610 1_554 S
N390 S389 1.613 . S
N390 C393 1.350 . S
N391 S389 1.610 1_556 S
N391 C392 1.351 . S
C392 C386 1.428 . S
C392 N391 1.351 . S
C392 C393 1.434 1_556 S
C393 C384 1.429 . S
C393 N390 1.350 . S
C393 C392 1.434 1_554 S
C394 C395 1.369 . S
C394 C396 1.419 1_554 S
C394 H398 0.930 . S
C395 C394 1.369 . S
C395 C404 1.429 . S
C396 C394 1.419 1_556 S
C396 C397 1.363 . S
C396 H399 0.929 . S
C397 C396 1.363 . S
C397 C403 1.428 . S
H398 C394 0.930 . S
H399 C396 0.929 . S
S400 N401 1.613 1_556 S
S400 N402 1.610 . S
N401 S400 1.613 1_554 S
N401 C404 1.350 . S
N402 S400 1.610 . S
N402 C403 1.351 . S
C403 C397 1.428 . S
C403 N402 1.351 . S
C403 C404 1.434 1_556 S
C404 C395 1.429 . S
C404 N401 1.350 . S
C404 C403 1.434 1_554 S
C405 C406 1.369 . S
C405 C407 1.419 . S
C405 H409 0.930 . S
C406 C405 1.369 . S
C406 C415 1.429 . S
C407 C405 1.419 . S
C407 C408 1.363 1_556 S
C407 H410 0.929 . S
C408 C407 1.363 1_554 S
C408 C414 1.428 1_554 S
H409 C405 0.930 . S
H410 C407 0.929 . S
S411 N412 1.613 . S
S411 N413 1.610 1_556 S
N412 S411 1.613 . S
N412 C415 1.350 . S
N413 S411 1.610 1_554 S
N413 C414 1.351 1_554 S
C414 C408 1.428 1_556 S
C414 N413 1.351 1_556 S
C414 C415 1.434 . S
C415 C406 1.429 . S
C415 N412 1.350 . S
C415 C414 1.434 . S
C416 C417 1.369 . S
C416 C418 1.419 . S
C416 H420 0.930 . S
C417 C416 1.369 . S
C417 C426 1.429 . S
C418 C416 1.419 . S
C418 C419 1.363 . S
C418 H421 0.929 . S
C419 C418 1.363 . S
C419 C425 1.428 . S
H420 C416 0.930 . S
H421 C418 0.929 . S
S422 N423 1.613 . S
S422 N424 1.610 . S
N423 S422 1.613 . S
N423 C426 1.350 . S
N424 S422 1.610 . S
N424 C425 1.351 . S
C425 C419 1.428 . S
C425 N424 1.351 . S
C425 C426 1.434 . S
C426 C417 1.429 . S
C426 N423 1.350 . S
C426 C425 1.434 . S
C427 C428 1.369 . S
C427 C429 1.419 . S
C427 H431 0.930 . S
C428 C427 1.369 . S
C428 C437 1.429 . S
C429 C427 1.419 . S
C429 C430 1.363 . S
C429 H432 0.929 . S
C430 C429 1.363 . S
C430 C436 1.428 . S
H431 C427 0.930 . S
H432 C429 0.929 . S
S433 N434 1.613 . S
S433 N435 1.610 . S
N434 S433 1.613 . S
N434 C437 1.350 . S
N435 S433 1.610 . S
N435 C436 1.351 . S
C436 C430 1.428 . S
C436 N435 1.351 . S
C436 C437 1.434 . S
C437 C428 1.429 . S
C437 N434 1.350 . S
C437 C436 1.434 . S
C438 C439 1.369 . S
C438 C440 1.419 . S
C438 H442 0.930 . S
C439 C438 1.369 . S
C439 C448 1.429 . S
C440 C438 1.419 . S
C440 C441 1.363 . S
C440 H443 0.929 . S
C441 C440 1.363 . S
C441 C447 1.428 . S
H442 C438 0.930 . S
H443 C440 0.929 . S
S444 N445 1.613 . S
S444 N446 1.610 . S
N445 S444 1.613 . S
N445 C448 1.350 . S
N446 S444 1.610 . S
N446 C447 1.351 . S
C447 C441 1.428 . S
C447 N446 1.351 . S
C447 C448 1.434 . S
C448 C439 1.429 . S
C448 N445 1.350 . S
C448 C447 1.434 . S
C449 C450 1.369 . S
C449 C451 1.419 . S
C449 H453 0.930 . S
C450 C449 1.369 . S
C450 C459 1.429 . S
C451 C449 1.419 . S
C451 C452 1.363 . S
C451 H454 0.929 . S
C452 C451 1.363 . S
C452 C458 1.428 . S
H453 C449 0.930 . S
H454 C451 0.929 . S
S455 N456 1.613 . S
S455 N457 1.610 . S
N456 S455 1.613 . S
N456 C459 1.350 . S
N457 S455 1.610 . S
N457 C458 1.351 . S
C458 C452 1.428 . S
C458 N457 1.351 . S
C458 C459 1.434 . S
C459 C450 1.429 . S
C459 N456 1.350 . S
C459 C458 1.434 . S
C460 C461 1.369 . S
C460 C462 1.419 . S
C460 H464 0.930 . S
C461 C460 1.369 . S
C461 C470 1.429 . S
C462 C460 1.419 . S
C462 C463 1.363 . S
C462 H465 0.929 . S
C463 C462 1.363 . S
C463 C469 1.428 . S
H464 C460 0.930 . S
H465 C462 0.929 . S
S466 N467 1.613 . S
S466 N468 1.610 . S
N467 S466 1.613 . S
N467 C470 1.350 . S
N468 S466 1.610 . S
N468 C469 1.351 . S
C469 C463 1.428 . S
C469 N468 1.351 . S
C469 C470 1.434 . S
C470 C461 1.429 . S
C470 N467 1.350 . S
C470 C469 1.434 . S
C471 C472 1.369 . S
C471 C473 1.419 . S
C471 H475 0.930 . S
C472 C471 1.369 . S
C472 C481 1.429 . S
C473 C471 1.419 . S
C473 C474 1.363 . S
C473 H476 0.929 . S
C474 C473 1.363 . S
C474 C480 1.428 . S
H475 C471 0.930 . S
H476 C473 0.929 . S
S477 N478 1.613 . S
S477 N479 1.610 . S
N478 S477 1.613 . S
N478 C481 1.350 . S
N479 S477 1.610 . S
N479 C480 1.351 . S
C480 C474 1.428 . S
C480 N479 1.351 . S
C480 C481 1.434 . S
C481 C472 1.429 . S
C481 N478 1.350 . S
C481 C480 1.434 . S
C482 C483 1.369 1_556 S
C482 C484 1.419 . S
C482 H486 0.930 . S
C483 C482 1.369 1_554 S
C483 C492 1.429 . S
C484 C482 1.419 . S
C484 C485 1.363 . S
C484 H487 0.929 . S
C485 C484 1.363 . S
C485 C491 1.428 1_556 S
H486 C482 0.930 . S
H487 C484 0.929 . S
S488 N489 1.613 . S
S488 N490 1.610 . S
N489 S488 1.613 . S
N489 C492 1.350 . S
N490 S488 1.610 . S
N490 C491 1.351 . S
C491 C485 1.428 1_554 S
C491 N490 1.351 . S
C491 C492 1.434 . S
C492 C483 1.429 . S
C492 N489 1.350 . S
C492 C491 1.434 . S
C493 C494 1.369 . S
C493 C495 1.419 . S
C493 H497 0.930 . S
C494 C493 1.369 . S
C494 C503 1.429 1_556 S
C495 C493 1.419 . S
C495 C496 1.363 1_556 S
C495 H498 0.929 . S
C496 C495 1.363 1_554 S
C496 C502 1.428 . S
H497 C493 0.930 . S
H498 C495 0.929 . S
S499 N500 1.613 . S
S499 N501 1.610 . S
N500 S499 1.613 . S
N500 C503 1.350 . S
N501 S499 1.610 . S
N501 C502 1.351 . S
C502 C496 1.428 . S
C502 N501 1.351 . S
C502 C503 1.434 . S
C503 C494 1.429 1_554 S
C503 N500 1.350 . S
C503 C502 1.434 . S
C241 C16 2.368 . S
C243 C237 2.368 . S
C252 N186 1.596 . S
C254 N44 1.592 . S
C263 N164 1.598 . S
C265 N66 1.591 . S
C274 C136 2.368 . S
C276 C117 2.368 . S
C285 C61 1.677 . S
C287 C10 1.657 . S
C296 C31 1.660 . S
C298 C100 1.694 . S
C307 C91 1.653 . S
C309 C40 1.680 . S
C318 C70 1.669 . S
C320 C1 1.689 . S
C329 C130 1.658 . S
C331 C181 1.678 . S
C340 C151 1.668 . S
C342 C220 1.690 . S
C351 C211 1.657 . S
C353 C160 1.677 . S
C362 C190 1.664 . S
C364 C121 1.691 . S
C373 N14 0.507 . S
C375 N6 0.481 . S
C384 C46 2.858 . S
C386 C57 2.858 . S
C395 C76 2.858 . S
C397 C87 2.858 . S
C406 N96 0.508 . S
C408 N104 0.480 . S
C417 N126 0.477 . S
C419 N134 0.504 . S
C428 C166 2.858 . S
C430 C177 2.858 . S
C439 C207 2.858 . S
C441 C196 2.858 . S
C450 N216 0.499 . S
C452 N224 0.486 . S
C461 C27 1.635 . S
C463 N36 1.557 1_455 S
C472 C106 1.635 . S
C474 N74 1.556 1_655 S
C483 C147 1.634 . S
C485 N156 1.549 . S
C494 C226 1.635 . S
C496 N194 1.553 . S
