# Generated by pormake.
# Topology uot, (4)-cn, num edge types: 1
# Building blocks:
#     Node 0, Type 0, BuildingBlock: KUFVIS_clean_sbu_0, # of connection points: 4
#     Node 1, Type 0, BuildingBlock: KUFVIS_clean_sbu_0, # of connection points: 4
#     Node 2, Type 0, BuildingBlock: KUFVIS_clean_sbu_0, # of connection points: 4
#     Node 3, Type 0, BuildingBlock: KUFVIS_clean_sbu_0, # of connection points: 4
#     Node 4, Type 0, BuildingBlock: KUFVIS_clean_sbu_0, # of connection points: 4
#     Node 5, Type 0, BuildingBlock: KUFVIS_clean_sbu_0, # of connection points: 4
#     Node 6, Type 0, BuildingBlock: KUFVIS_clean_sbu_0, # of connection points: 4
#     Node 7, Type 0, BuildingBlock: KUFVIS_clean_sbu_0, # of connection points: 4
#     Node 8, Type 0, BuildingBlock: KUFVIS_clean_sbu_0, # of connection points: 4
#     Node 9, Type 0, BuildingBlock: KUFVIS_clean_sbu_0, # of connection points: 4
#     Node 10, Type 0, BuildingBlock: KUFVIS_clean_sbu_0, # of connection points: 4
#     Node 11, Type 0, BuildingBlock: KUFVIS_clean_sbu_0, # of connection points: 4
#     Node 12, Type 0, BuildingBlock: KUFVIS_clean_sbu_0, # of connection points: 4
#     Node 13, Type 0, BuildingBlock: KUFVIS_clean_sbu_0, # of connection points: 4
#     Node 14, Type 0, BuildingBlock: KUFVIS_clean_sbu_0, # of connection points: 4
#     Node 15, Type 0, BuildingBlock: KUFVIS_clean_sbu_0, # of connection points: 4
#     Edge 16, Type (0, 0), BuildingBlock: OJICUG_clean_linker_0, # of connection points: 2
#     Edge 17, Type (0, 0), BuildingBlock: OJICUG_clean_linker_0, # of connection points: 2
#     Edge 18, Type (0, 0), BuildingBlock: OJICUG_clean_linker_0, # of connection points: 2
#     Edge 19, Type (0, 0), BuildingBlock: OJICUG_clean_linker_0, # of connection points: 2
#     Edge 20, Type (0, 0), BuildingBlock: OJICUG_clean_linker_0, # of connection points: 2
#     Edge 21, Type (0, 0), BuildingBlock: OJICUG_clean_linker_0, # of connection points: 2
#     Edge 22, Type (0, 0), BuildingBlock: OJICUG_clean_linker_0, # of connection points: 2
#     Edge 23, Type (0, 0), BuildingBlock: OJICUG_clean_linker_0, # of connection points: 2
#     Edge 24, Type (0, 0), BuildingBlock: OJICUG_clean_linker_0, # of connection points: 2
#     Edge 25, Type (0, 0), BuildingBlock: OJICUG_clean_linker_0, # of connection points: 2
#     Edge 26, Type (0, 0), BuildingBlock: OJICUG_clean_linker_0, # of connection points: 2
#     Edge 27, Type (0, 0), BuildingBlock: OJICUG_clean_linker_0, # of connection points: 2
#     Edge 28, Type (0, 0), BuildingBlock: OJICUG_clean_linker_0, # of connection points: 2
#     Edge 29, Type (0, 0), BuildingBlock: OJICUG_clean_linker_0, # of connection points: 2
#     Edge 30, Type (0, 0), BuildingBlock: OJICUG_clean_linker_0, # of connection points: 2
#     Edge 31, Type (0, 0), BuildingBlock: OJICUG_clean_linker_0, # of connection points: 2
#     Edge 32, Type (0, 0), BuildingBlock: OJICUG_clean_linker_0, # of connection points: 2
#     Edge 33, Type (0, 0), BuildingBlock: OJICUG_clean_linker_0, # of connection points: 2
#     Edge 34, Type (0, 0), BuildingBlock: OJICUG_clean_linker_0, # of connection points: 2
#     Edge 35, Type (0, 0), BuildingBlock: OJICUG_clean_linker_0, # of connection points: 2
#     Edge 36, Type (0, 0), BuildingBlock: OJICUG_clean_linker_0, # of connection points: 2
#     Edge 37, Type (0, 0), BuildingBlock: OJICUG_clean_linker_0, # of connection points: 2
#     Edge 38, Type (0, 0), BuildingBlock: OJICUG_clean_linker_0, # of connection points: 2
#     Edge 39, Type (0, 0), BuildingBlock: OJICUG_clean_linker_0, # of connection points: 2
#     Edge 40, Type (0, 0), BuildingBlock: OJICUG_clean_linker_0, # of connection points: 2
#     Edge 41, Type (0, 0), BuildingBlock: OJICUG_clean_linker_0, # of connection points: 2
#     Edge 42, Type (0, 0), BuildingBlock: OJICUG_clean_linker_0, # of connection points: 2
#     Edge 43, Type (0, 0), BuildingBlock: OJICUG_clean_linker_0, # of connection points: 2
#     Edge 44, Type (0, 0), BuildingBlock: OJICUG_clean_linker_0, # of connection points: 2
#     Edge 45, Type (0, 0), BuildingBlock: OJICUG_clean_linker_0, # of connection points: 2
#     Edge 46, Type (0, 0), BuildingBlock: OJICUG_clean_linker_0, # of connection points: 2
#     Edge 47, Type (0, 0), BuildingBlock: OJICUG_clean_linker_0, # of connection points: 2
# Relax obj value: 0.078
# Max RMSD: 0.117
# Mean RMSD: 0.117
data_MOF--net-uot--node1-KUFVIS_clean_sbu_0--edge1-OJICUG_clean_linker_0
_symmetry_space_group_name_H-M    P1
_symmetry_Int_Tables_number       1
_symmetry_cell_setting            triclinic
loop_
_symmetry_equiv_pos_as_xyz
'x, y, z'
_cell_length_a     32.345534
_cell_length_b     32.345651
_cell_length_c     29.333901
_cell_angle_alpha  89.999245
_cell_angle_beta   90.000591
_cell_angle_gamma 89.996261
loop_
_atom_site_label
_atom_site_type_symbol
_atom_site_fract_x
_atom_site_fract_y
_atom_site_fract_z
_atom_type_partial_charge
Mn0 Mn 0.17359 0.41616 0.33264 0.0
Mn1 Mn 0.12819 0.35671 0.41243 0.0
C2 C 0.12539 0.36674 0.31179 0.0
C3 C 0.17279 0.47634 0.28903 0.0
C4 C 0.21578 0.3423 0.37861 0.0
O5 O 0.18436 0.44818 0.39117 0.0
O6 O 0.1523 0.40675 0.44196 0.0
C7 C 0.06011 0.41281 0.43966 0.0
N8 N 0.07296 0.37593 0.42224 0.0
C9 C 0.00275 0.35284 0.4129 0.0
C10 C 0.98879 0.39047 0.43098 0.0
C11 C 0.01761 0.42059 0.44436 0.0
C12 C 0.0455 0.34665 0.40947 0.0
H13 H 0.08209 0.43617 0.44986 0.0
C14 C 0.17265 0.43949 0.43163 0.0
O15 O 0.2072 0.45652 0.29593 0.0
O16 O 0.13984 0.46201 0.30832 0.0
N17 N 0.10299 0.30807 0.38773 0.0
C18 C 0.12146 0.27413 0.36923 0.0
C19 C 0.09686 0.2416 0.35285 0.0
C20 C 0.05359 0.24426 0.35572 0.0
C21 C 0.03529 0.27941 0.37512 0.0
C22 C 0.06138 0.31073 0.39117 0.0
H23 H 0.1547 0.27206 0.36664 0.0
O24 O 0.15245 0.37989 0.28252 0.0
O25 O 0.12808 0.38258 0.35238 0.0
O26 O 0.21689 0.37233 0.35029 0.0
O27 O 0.18433 0.33425 0.40349 0.0
C28 C 0.99218 0.28486 0.3785 0.0
C29 C 0.97593 0.3215 0.39746 0.0
H30 H 0.95603 0.39669 0.43444 0.0
H31 H 0.00708 0.4498 0.45812 0.0
H32 H 0.11121 0.21462 0.33782 0.0
H33 H 0.03472 0.21924 0.3427 0.0
H34 H 0.97124 0.26119 0.36629 0.0
H35 H 0.94273 0.32545 0.39957 0.0
Mn36 Mn 0.41623 0.82714 0.67371 0.0
Mn37 Mn 0.35673 0.8725 0.59393 0.0
C38 C 0.36678 0.87532 0.69457 0.0
C39 C 0.47643 0.82798 0.7173 0.0
C40 C 0.3424 0.7849 0.62776 0.0
O41 O 0.44823 0.81638 0.61518 0.0
O42 O 0.40679 0.84843 0.56439 0.0
C43 C 0.41275 0.94063 0.56669 0.0
N44 N 0.37589 0.92774 0.58412 0.0
C45 C 0.35272 0.99793 0.59347 0.0
C46 C 0.39033 0.01192 0.57537 0.0
C47 C 0.42049 0.98313 0.562 0.0
C48 C 0.34658 0.95518 0.5969 0.0
H49 H 0.43613 0.91867 0.55649 0.0
C50 C 0.43954 0.82809 0.57472 0.0
O51 O 0.45662 0.79357 0.71042 0.0
O52 O 0.46206 0.86092 0.69801 0.0
N53 N 0.30807 0.89765 0.61864 0.0
C54 C 0.27415 0.87915 0.63715 0.0
C55 C 0.24159 0.90371 0.65354 0.0
C56 C 0.24421 0.94699 0.65067 0.0
C57 C 0.27933 0.96532 0.63126 0.0
C58 C 0.31068 0.93926 0.6152 0.0
H59 H 0.27211 0.84591 0.63975 0.0
O60 O 0.37996 0.84827 0.72385 0.0
O61 O 0.38261 0.87263 0.65398 0.0
O62 O 0.37243 0.78382 0.65609 0.0
O63 O 0.33433 0.81634 0.60288 0.0
C64 C 0.28474 0.00843 0.62788 0.0
C65 C 0.32136 0.02472 0.60891 0.0
H66 H 0.39652 0.04469 0.57191 0.0
H67 H 0.44969 0.99369 0.54823 0.0
H68 H 0.21464 0.88934 0.66858 0.0
H69 H 0.21918 0.96583 0.6637 0.0
H70 H 0.26105 0.02936 0.64009 0.0
H71 H 0.32527 0.05793 0.6068 0.0
Mn72 Mn 0.82718 0.58456 0.33262 0.0
Mn73 Mn 0.87258 0.64403 0.41239 0.0
C74 C 0.87538 0.63399 0.31175 0.0
C75 C 0.82798 0.52437 0.28902 0.0
C76 C 0.78498 0.65842 0.37858 0.0
O77 O 0.81642 0.55256 0.39116 0.0
O78 O 0.84849 0.59399 0.44194 0.0
C79 C 0.94068 0.58796 0.43962 0.0
N80 N 0.92781 0.62483 0.42219 0.0
C81 C 0.99802 0.64794 0.41283 0.0
C82 C 0.01199 0.61032 0.43092 0.0
C83 C 0.98318 0.58019 0.44431 0.0
C84 C 0.95527 0.65412 0.40941 0.0
H85 H 0.91871 0.5646 0.44983 0.0
C86 C 0.82814 0.56125 0.43161 0.0
O87 O 0.79358 0.54419 0.29592 0.0
O88 O 0.86093 0.53871 0.30831 0.0
N89 N 0.89777 0.69268 0.38767 0.0
C90 C 0.87928 0.72661 0.36916 0.0
C91 C 0.90387 0.75914 0.35277 0.0
C92 C 0.94714 0.75649 0.35563 0.0
C93 C 0.96545 0.72136 0.37504 0.0
C94 C 0.93937 0.69003 0.3911 0.0
H95 H 0.84604 0.72867 0.36657 0.0
O96 O 0.84832 0.62082 0.28248 0.0
O97 O 0.87269 0.61816 0.35234 0.0
O98 O 0.78388 0.62839 0.35026 0.0
O99 O 0.81644 0.66648 0.40345 0.0
C100 C 0.00856 0.71592 0.37841 0.0
C101 C 0.02483 0.67928 0.39737 0.0
H102 H 0.04476 0.60411 0.43438 0.0
H103 H 0.99372 0.55099 0.45807 0.0
H104 H 0.88951 0.78611 0.33773 0.0
H105 H 0.966 0.78151 0.3426 0.0
H106 H 0.0295 0.73959 0.36619 0.0
H107 H 0.05804 0.67534 0.39948 0.0
Mn108 Mn 0.58451 0.17366 0.67373 0.0
Mn109 Mn 0.64402 0.1283 0.59395 0.0
C110 C 0.63397 0.12548 0.69459 0.0
C111 C 0.52432 0.17282 0.71732 0.0
C112 C 0.65834 0.21591 0.62777 0.0
O113 O 0.55251 0.18441 0.61519 0.0
O114 O 0.59396 0.15235 0.56441 0.0
C115 C 0.58801 0.06016 0.56672 0.0
N116 N 0.62487 0.07305 0.58415 0.0
C117 C 0.64805 0.00287 0.59351 0.0
C118 C 0.61044 0.98886 0.57541 0.0
C119 C 0.58028 0.01765 0.56202 0.0
C120 C 0.65418 0.04562 0.59694 0.0
H121 H 0.56463 0.08211 0.55651 0.0
C122 C 0.5612 0.17269 0.57474 0.0
O123 O 0.54412 0.20723 0.71043 0.0
O124 O 0.53869 0.13988 0.69803 0.0
N125 N 0.69268 0.10315 0.61867 0.0
C126 C 0.7266 0.12167 0.63718 0.0
C127 C 0.75916 0.09711 0.65358 0.0
C128 C 0.75655 0.05384 0.65071 0.0
C129 C 0.72143 0.03549 0.63131 0.0
C130 C 0.69008 0.06155 0.61524 0.0
H131 H 0.72863 0.15491 0.63977 0.0
O132 O 0.62079 0.15253 0.72386 0.0
O133 O 0.61814 0.12817 0.654 0.0
O134 O 0.62832 0.21699 0.6561 0.0
O135 O 0.66641 0.18446 0.60289 0.0
C136 C 0.71603 0.99238 0.62793 0.0
C137 C 0.67941 0.97608 0.60896 0.0
H138 H 0.60426 0.9561 0.57195 0.0
H139 H 0.55109 0.00709 0.54825 0.0
H140 H 0.78611 0.11149 0.66861 0.0
H141 H 0.78159 0.035 0.66374 0.0
H142 H 0.73972 0.97146 0.64015 0.0
H143 H 0.6755 0.94287 0.60685 0.0
Mn144 Mn 0.17364 0.5845 0.67385 0.0
Mn145 Mn 0.12824 0.64396 0.59407 0.0
C146 C 0.12545 0.63395 0.69471 0.0
C147 C 0.17283 0.52432 0.71747 0.0
C148 C 0.21585 0.65833 0.62785 0.0
O149 O 0.18439 0.55248 0.61533 0.0
O150 O 0.15231 0.5939 0.56454 0.0
C151 C 0.06011 0.5879 0.56689 0.0
N152 N 0.073 0.62477 0.58429 0.0
C153 C 0.0028 0.64792 0.59367 0.0
C154 C 0.98881 0.61029 0.5756 0.0
C155 C 0.01761 0.58014 0.56222 0.0
C156 C 0.04555 0.65408 0.59707 0.0
H157 H 0.08208 0.56453 0.55669 0.0
C158 C 0.17266 0.56116 0.57487 0.0
O159 O 0.20724 0.54413 0.71056 0.0
O160 O 0.13988 0.53867 0.69818 0.0
N161 N 0.10307 0.69262 0.61877 0.0
C162 C 0.12157 0.72655 0.63725 0.0
C163 C 0.097 0.75911 0.65364 0.0
C164 C 0.05373 0.75647 0.65079 0.0
C165 C 0.0354 0.72133 0.63141 0.0
C166 C 0.06146 0.68999 0.61535 0.0
H167 H 0.15481 0.7286 0.63983 0.0
O168 O 0.15252 0.62079 0.72398 0.0
O169 O 0.12814 0.61811 0.65413 0.0
O170 O 0.21695 0.62831 0.65619 0.0
O171 O 0.18439 0.66638 0.60298 0.0
C172 C 0.99228 0.71591 0.62806 0.0
C173 C 0.976 0.67927 0.60912 0.0
H174 H 0.95605 0.60409 0.57216 0.0
H175 H 0.00706 0.55094 0.54847 0.0
H176 H 0.11137 0.78608 0.66866 0.0
H177 H 0.03488 0.7815 0.66382 0.0
H178 H 0.97136 0.73959 0.64028 0.0
H179 H 0.9428 0.67534 0.60703 0.0
Mn180 Mn 0.58454 0.82714 0.33249 0.0
Mn181 Mn 0.64397 0.87259 0.41227 0.0
C182 C 0.63396 0.87535 0.31162 0.0
C183 C 0.52437 0.82791 0.28886 0.0
C184 C 0.6584 0.78498 0.3785 0.0
O185 O 0.55252 0.81639 0.39102 0.0
O186 O 0.59393 0.84848 0.4418 0.0
C187 C 0.58785 0.94067 0.43944 0.0
N188 N 0.62474 0.92782 0.42204 0.0
C189 C 0.64782 0.99803 0.41264 0.0
C190 C 0.61018 0.01199 0.43071 0.0
C191 C 0.58006 0.98317 0.4441 0.0
C192 C 0.65402 0.95528 0.40925 0.0
H193 H 0.5645 0.91869 0.44965 0.0
C194 C 0.5612 0.82812 0.43147 0.0
O195 O 0.5442 0.79351 0.29579 0.0
O196 O 0.5387 0.86087 0.30814 0.0
N197 N 0.69261 0.89779 0.38756 0.0
C198 C 0.72656 0.87931 0.36908 0.0
C199 C 0.75909 0.9039 0.35269 0.0
C200 C 0.75642 0.94717 0.35553 0.0
C201 C 0.72126 0.96548 0.3749 0.0
C202 C 0.68994 0.93939 0.39097 0.0
H203 H 0.72864 0.84607 0.36651 0.0
O204 O 0.62082 0.84827 0.28236 0.0
O205 O 0.61812 0.87266 0.35221 0.0
O206 O 0.62838 0.78386 0.35017 0.0
O207 O 0.66644 0.81645 0.40336 0.0
C208 C 0.7158 0.00859 0.37825 0.0
C209 C 0.67915 0.02485 0.39719 0.0
H210 H 0.60396 0.04475 0.43415 0.0
H211 H 0.55085 0.9937 0.45785 0.0
H212 H 0.78607 0.88955 0.33768 0.0
H213 H 0.78143 0.96604 0.3425 0.0
H214 H 0.73947 0.02953 0.36603 0.0
H215 H 0.67519 0.05805 0.39928 0.0
Mn216 Mn 0.82712 0.41628 0.67386 0.0
Mn217 Mn 0.87253 0.3568 0.5941 0.0
C218 C 0.87531 0.36683 0.69474 0.0
C219 C 0.82793 0.47646 0.71747 0.0
C220 C 0.78491 0.34245 0.62787 0.0
O221 O 0.81638 0.44829 0.61533 0.0
O222 O 0.84848 0.40686 0.56456 0.0
C223 C 0.94067 0.41284 0.56692 0.0
N224 N 0.92778 0.37597 0.58433 0.0
C225 C 0.99797 0.35281 0.59374 0.0
C226 C 0.01197 0.39043 0.57566 0.0
C227 C 0.98318 0.42058 0.56226 0.0
C228 C 0.95522 0.34666 0.59713 0.0
H229 H 0.91872 0.43621 0.55671 0.0
C230 C 0.82812 0.4396 0.57488 0.0
O231 O 0.79352 0.45665 0.71056 0.0
O232 O 0.86088 0.46211 0.69819 0.0
N233 N 0.89768 0.30814 0.61882 0.0
C234 C 0.87917 0.27421 0.63731 0.0
C235 C 0.90373 0.24166 0.65371 0.0
C236 C 0.94701 0.24428 0.65087 0.0
C237 C 0.96535 0.27941 0.63149 0.0
C238 C 0.93929 0.31076 0.61541 0.0
H239 H 0.84593 0.27217 0.63988 0.0
O240 O 0.84824 0.38 0.724 0.0
O241 O 0.87263 0.38266 0.65415 0.0
O242 O 0.78382 0.37247 0.6562 0.0
O243 O 0.81637 0.33439 0.603 0.0
C244 C 0.00846 0.28483 0.62815 0.0
C245 C 0.02476 0.32146 0.6092 0.0
H246 H 0.04474 0.39662 0.57223 0.0
H247 H 0.99374 0.44978 0.54851 0.0
H248 H 0.88935 0.21469 0.66873 0.0
H249 H 0.96585 0.21925 0.66391 0.0
H250 H 0.02938 0.26114 0.64037 0.0
H251 H 0.05796 0.32538 0.60711 0.0
Mn252 Mn 0.4162 0.17356 0.3325 0.0
Mn253 Mn 0.35678 0.12811 0.41228 0.0
C254 C 0.36679 0.12535 0.31163 0.0
C255 C 0.47637 0.1728 0.28888 0.0
C256 C 0.34234 0.21571 0.37851 0.0
O257 O 0.44822 0.18432 0.39103 0.0
O258 O 0.40681 0.15222 0.44181 0.0
C259 C 0.41291 0.06003 0.43945 0.0
N260 N 0.37602 0.07288 0.42205 0.0
C261 C 0.35295 0.00267 0.41266 0.0
C262 C 0.39059 0.98871 0.43072 0.0
C263 C 0.4207 0.01753 0.44411 0.0
C264 C 0.34674 0.04541 0.40926 0.0
H265 H 0.43626 0.08201 0.44965 0.0
C266 C 0.43954 0.17259 0.43148 0.0
O267 O 0.45654 0.2072 0.2958 0.0
O268 O 0.46205 0.13984 0.30816 0.0
N269 N 0.30814 0.1029 0.38758 0.0
C270 C 0.27419 0.12137 0.36909 0.0
C271 C 0.24166 0.09678 0.3527 0.0
C272 C 0.24434 0.0535 0.35555 0.0
C273 C 0.27949 0.03521 0.37492 0.0
C274 C 0.31081 0.0613 0.39099 0.0
H275 H 0.2721 0.15461 0.36652 0.0
O276 O 0.37993 0.15243 0.28237 0.0
O277 O 0.38263 0.12803 0.35222 0.0
O278 O 0.37236 0.21684 0.35018 0.0
O279 O 0.3343 0.18424 0.40337 0.0
C280 C 0.28496 0.99209 0.37827 0.0
C281 C 0.32162 0.97584 0.39721 0.0
H282 H 0.39682 0.95595 0.43416 0.0
H283 H 0.44992 0.00701 0.45785 0.0
H284 H 0.21467 0.11112 0.33769 0.0
H285 H 0.21932 0.03463 0.34251 0.0
H286 H 0.2613 0.97115 0.36605 0.0
H287 H 0.32558 0.94264 0.3993 0.0
Mn288 Mn 0.67364 0.91629 0.83247 0.0
Mn289 Mn 0.62821 0.85683 0.91224 0.0
C290 C 0.62544 0.86686 0.81159 0.0
C291 C 0.67285 0.97647 0.78887 0.0
C292 C 0.71582 0.84244 0.87847 0.0
O293 O 0.68438 0.94829 0.89101 0.0
O294 O 0.65229 0.90687 0.94178 0.0
C295 C 0.5601 0.91291 0.93941 0.0
N296 N 0.57297 0.87603 0.922 0.0
C297 C 0.50278 0.85292 0.9126 0.0
C298 C 0.48879 0.89054 0.93067 0.0
C299 C 0.51759 0.92068 0.94407 0.0
C300 C 0.54552 0.84674 0.9092 0.0
H301 H 0.58206 0.93627 0.94962 0.0
C302 C 0.67265 0.93961 0.93146 0.0
O303 O 0.70725 0.95665 0.79578 0.0
O304 O 0.63989 0.96213 0.80815 0.0
N305 N 0.60304 0.80818 0.88752 0.0
C306 C 0.62154 0.77424 0.86903 0.0
C307 C 0.59696 0.7417 0.85263 0.0
C308 C 0.55369 0.74435 0.85547 0.0
C309 C 0.53536 0.77949 0.87485 0.0
C310 C 0.56143 0.81082 0.89092 0.0
H311 H 0.65477 0.77218 0.86646 0.0
O312 O 0.65251 0.88002 0.78233 0.0
O313 O 0.62813 0.88269 0.85218 0.0
O314 O 0.71693 0.87246 0.85014 0.0
O315 O 0.68436 0.83438 0.90333 0.0
C316 C 0.49225 0.78493 0.87819 0.0
C317 C 0.47597 0.82158 0.89713 0.0
H318 H 0.45603 0.89675 0.9341 0.0
H319 H 0.50705 0.94988 0.95782 0.0
H320 H 0.61133 0.71473 0.83761 0.0
H321 H 0.53483 0.71933 0.84243 0.0
H322 H 0.47132 0.76126 0.86596 0.0
H323 H 0.44277 0.82551 0.89922 0.0
Mn324 Mn 0.91621 0.32714 0.17386 0.0
Mn325 Mn 0.85677 0.37258 0.09408 0.0
C326 C 0.86679 0.37535 0.19472 0.0
C327 C 0.97639 0.32791 0.21748 0.0
C328 C 0.84236 0.28497 0.12785 0.0
O329 O 0.94823 0.31638 0.11533 0.0
O330 O 0.90681 0.34848 0.06455 0.0
C331 C 0.91286 0.44067 0.06689 0.0
N332 N 0.87599 0.4278 0.0843 0.0
C333 C 0.85288 0.49801 0.09369 0.0
C334 C 0.89051 0.51198 0.07562 0.0
C335 C 0.92064 0.48317 0.06223 0.0
C336 C 0.8467 0.45527 0.09709 0.0
H337 H 0.93622 0.41869 0.05669 0.0
C338 C 0.93955 0.32812 0.07488 0.0
O339 O 0.95656 0.29351 0.21056 0.0
O340 O 0.96205 0.36087 0.19819 0.0
N341 N 0.80812 0.39777 0.11878 0.0
C342 C 0.77419 0.37928 0.13727 0.0
C343 C 0.74165 0.40387 0.15367 0.0
C344 C 0.7443 0.44714 0.15082 0.0
C345 C 0.77945 0.46545 0.13144 0.0
C346 C 0.81078 0.43937 0.11537 0.0
H347 H 0.77211 0.34605 0.13985 0.0
O348 O 0.87994 0.34827 0.22399 0.0
O349 O 0.88263 0.37266 0.15414 0.0
O350 O 0.87238 0.28385 0.15618 0.0
O351 O 0.83431 0.31643 0.10299 0.0
C352 C 0.7849 0.50856 0.1281 0.0
C353 C 0.82154 0.52483 0.10915 0.0
H354 H 0.89673 0.54474 0.07218 0.0
H355 H 0.94985 0.4937 0.04847 0.0
H356 H 0.71467 0.38951 0.16869 0.0
H357 H 0.71929 0.466 0.16386 0.0
H358 H 0.76123 0.5295 0.14032 0.0
H359 H 0.82549 0.55803 0.10706 0.0
Mn360 Mn 0.32711 0.0845 0.83248 0.0
Mn361 Mn 0.37255 0.14393 0.91226 0.0
C362 C 0.37531 0.13393 0.81161 0.0
C363 C 0.3279 0.02432 0.78886 0.0
C364 C 0.28494 0.15834 0.87849 0.0
O365 O 0.31637 0.05248 0.89101 0.0
O366 O 0.34846 0.09389 0.94179 0.0
C367 C 0.44065 0.08783 0.93943 0.0
N368 N 0.42778 0.12472 0.92203 0.0
C369 C 0.49799 0.14782 0.91263 0.0
C370 C 0.51196 0.11019 0.9307 0.0
C371 C 0.48315 0.08005 0.94409 0.0
C372 C 0.45524 0.154 0.90924 0.0
H373 H 0.41868 0.06448 0.94963 0.0
C374 C 0.3281 0.06116 0.93146 0.0
O375 O 0.2935 0.04414 0.79578 0.0
O376 O 0.36086 0.03865 0.80814 0.0
N377 N 0.39774 0.19258 0.88756 0.0
C378 C 0.37925 0.22652 0.86907 0.0
C379 C 0.40383 0.25907 0.85268 0.0
C380 C 0.4471 0.25641 0.85553 0.0
C381 C 0.46542 0.22126 0.8749 0.0
C382 C 0.43934 0.18993 0.89096 0.0
H383 H 0.34601 0.2286 0.8665 0.0
O384 O 0.34824 0.12077 0.78235 0.0
O385 O 0.37263 0.11808 0.8522 0.0
O386 O 0.28382 0.12832 0.85016 0.0
O387 O 0.3164 0.16639 0.90335 0.0
C388 C 0.50853 0.21581 0.87824 0.0
C389 C 0.5248 0.17916 0.89718 0.0
H390 H 0.54473 0.10397 0.93414 0.0
H391 H 0.49369 0.05084 0.95783 0.0
H392 H 0.38947 0.28604 0.83767 0.0
H393 H 0.46596 0.28143 0.84249 0.0
H394 H 0.52947 0.23948 0.86602 0.0
H395 H 0.558 0.17521 0.89927 0.0
Mn396 Mn 0.08457 0.67357 0.17383 0.0
Mn397 Mn 0.144 0.62812 0.09405 0.0
C398 C 0.13399 0.62535 0.19469 0.0
C399 C 0.02439 0.6728 0.21745 0.0
C400 C 0.15842 0.71573 0.12782 0.0
O401 O 0.05255 0.68433 0.1153 0.0
O402 O 0.09396 0.65223 0.06452 0.0
C403 C 0.08789 0.56005 0.06687 0.0
N404 N 0.12477 0.5729 0.08427 0.0
C405 C 0.14786 0.50269 0.09366 0.0
C406 C 0.11022 0.48873 0.07559 0.0
C407 C 0.0801 0.51755 0.06221 0.0
C408 C 0.15405 0.54543 0.09706 0.0
H409 H 0.06453 0.58203 0.05667 0.0
C410 C 0.06123 0.6726 0.07485 0.0
O411 O 0.04422 0.7072 0.21053 0.0
O412 O 0.03872 0.63984 0.19817 0.0
N413 N 0.19264 0.60292 0.11875 0.0
C414 C 0.22659 0.62139 0.13724 0.0
C415 C 0.25912 0.5968 0.15363 0.0
C416 C 0.25645 0.55353 0.15078 0.0
C417 C 0.2213 0.53523 0.13141 0.0
C418 C 0.18998 0.56131 0.11534 0.0
H419 H 0.22867 0.65463 0.13982 0.0
O420 O 0.12084 0.65243 0.22396 0.0
O421 O 0.11814 0.62804 0.15411 0.0
O422 O 0.1284 0.71685 0.15615 0.0
O423 O 0.16647 0.68426 0.10296 0.0
C424 C 0.21584 0.49211 0.12805 0.0
C425 C 0.17919 0.47586 0.10911 0.0
H426 H 0.104 0.45597 0.07215 0.0
H427 H 0.05088 0.50702 0.04846 0.0
H428 H 0.2861 0.61115 0.16865 0.0
H429 H 0.28147 0.53466 0.16381 0.0
H430 H 0.23951 0.47117 0.14027 0.0
H431 H 0.17524 0.44266 0.10702 0.0
Mn432 Mn 0.67359 0.08456 0.17372 0.0
Mn433 Mn 0.6282 0.14404 0.09394 0.0
C434 C 0.62539 0.13399 0.19458 0.0
C435 C 0.67278 0.02437 0.21731 0.0
C436 C 0.7158 0.15841 0.12777 0.0
O437 O 0.68436 0.05256 0.11518 0.0
O438 O 0.65229 0.094 0.0644 0.0
C439 C 0.5601 0.08798 0.0667 0.0
N440 N 0.57297 0.12485 0.08413 0.0
C441 C 0.50276 0.14798 0.09349 0.0
C442 C 0.48879 0.11036 0.07539 0.0
C443 C 0.5176 0.08023 0.062 0.0
C444 C 0.54551 0.15414 0.09692 0.0
H445 H 0.58207 0.06462 0.05649 0.0
C446 C 0.67264 0.06126 0.07473 0.0
O447 O 0.70719 0.04418 0.21042 0.0
O448 O 0.63983 0.03871 0.19802 0.0
N449 N 0.60302 0.19269 0.11866 0.0
C450 C 0.6215 0.22661 0.13717 0.0
C451 C 0.59692 0.25916 0.15357 0.0
C452 C 0.55365 0.25652 0.1507 0.0
C453 C 0.53534 0.22138 0.13129 0.0
C454 C 0.56141 0.19005 0.11522 0.0
H455 H 0.65474 0.22867 0.13977 0.0
O456 O 0.65245 0.12082 0.22385 0.0
O457 O 0.62808 0.11816 0.15399 0.0
O458 O 0.71689 0.12838 0.15609 0.0
O459 O 0.68435 0.16648 0.10289 0.0
C460 C 0.49222 0.21596 0.12791 0.0
C461 C 0.47595 0.17932 0.10894 0.0
H462 H 0.45603 0.10416 0.07193 0.0
H463 H 0.50706 0.05103 0.04823 0.0
H464 H 0.61128 0.28612 0.16861 0.0
H465 H 0.53479 0.28154 0.16373 0.0
H466 H 0.47129 0.23963 0.14013 0.0
H467 H 0.44275 0.17539 0.10682 0.0
Mn468 Mn 0.08452 0.32714 0.83263 0.0
Mn469 Mn 0.14399 0.37252 0.91241 0.0
C470 C 0.13395 0.37533 0.81177 0.0
C471 C 0.02432 0.32796 0.78904 0.0
C472 C 0.15837 0.28492 0.87858 0.0
O473 O 0.05251 0.31637 0.89116 0.0
O474 O 0.09395 0.34843 0.94195 0.0
C475 C 0.08793 0.44062 0.93964 0.0
N476 N 0.1248 0.42775 0.92222 0.0
C477 C 0.14792 0.49795 0.91286 0.0
C478 C 0.1103 0.51193 0.93095 0.0
C479 C 0.08017 0.48312 0.94433 0.0
C480 C 0.15409 0.4552 0.90943 0.0
H481 H 0.06457 0.41865 0.94984 0.0
C482 C 0.06121 0.32809 0.93162 0.0
O483 O 0.04414 0.29355 0.79593 0.0
O484 O 0.03867 0.3609 0.80833 0.0
N485 N 0.19264 0.3977 0.8877 0.0
C486 C 0.22657 0.37921 0.86919 0.0
C487 C 0.25912 0.40379 0.8528 0.0
C488 C 0.25647 0.44706 0.85568 0.0
C489 C 0.22134 0.46537 0.87507 0.0
C490 C 0.19 0.4393 0.89114 0.0
H491 H 0.22864 0.34597 0.8666 0.0
O492 O 0.12078 0.34827 0.78249 0.0
O493 O 0.11812 0.37263 0.85236 0.0
O494 O 0.12834 0.28383 0.85026 0.0
O495 O 0.16643 0.31637 0.90346 0.0
C496 C 0.21591 0.50849 0.87845 0.0
C497 C 0.17927 0.52476 0.89741 0.0
H498 H 0.1041 0.54469 0.93441 0.0
H499 H 0.05096 0.49366 0.95809 0.0
H500 H 0.28609 0.38943 0.83777 0.0
H501 H 0.2815 0.46592 0.84265 0.0
H502 H 0.23958 0.52942 0.86624 0.0
H503 H 0.17533 0.55796 0.89952 0.0
Mn504 Mn 0.32716 0.91616 0.1737 0.0
Mn505 Mn 0.37256 0.8567 0.09391 0.0
C506 C 0.37537 0.86673 0.19455 0.0
C507 C 0.32796 0.97634 0.21731 0.0
C508 C 0.28497 0.84231 0.12773 0.0
O509 O 0.31639 0.94817 0.11517 0.0
O510 O 0.34846 0.90674 0.06438 0.0
C511 C 0.44065 0.91278 0.06667 0.0
N512 N 0.42779 0.87591 0.0841 0.0
C513 C 0.498 0.8528 0.09344 0.0
C514 C 0.51196 0.89042 0.07535 0.0
C515 C 0.48314 0.92055 0.06197 0.0
C516 C 0.45525 0.84662 0.09687 0.0
H517 H 0.41867 0.93614 0.05648 0.0
C518 C 0.32811 0.93948 0.07471 0.0
O519 O 0.29356 0.95652 0.21041 0.0
O520 O 0.36091 0.962 0.19801 0.0
N521 N 0.39776 0.80806 0.11861 0.0
C522 C 0.37928 0.77412 0.13712 0.0
C523 C 0.40388 0.74158 0.1535 0.0
C524 C 0.44715 0.74423 0.15062 0.0
C525 C 0.46545 0.77938 0.13123 0.0
C526 C 0.43936 0.81071 0.11517 0.0
H527 H 0.34605 0.77205 0.13971 0.0
O528 O 0.34831 0.87989 0.22382 0.0
O529 O 0.37267 0.88257 0.15396 0.0
O530 O 0.28387 0.87234 0.15605 0.0
O531 O 0.31642 0.83425 0.10286 0.0
C532 C 0.50856 0.78482 0.12784 0.0
C533 C 0.52482 0.82146 0.10888 0.0
H534 H 0.54472 0.89663 0.07188 0.0
H535 H 0.49368 0.94976 0.04821 0.0
H536 H 0.38953 0.71461 0.16853 0.0
H537 H 0.46602 0.71921 0.16365 0.0
H538 H 0.52951 0.76114 0.14005 0.0
H539 H 0.55802 0.8254 0.10676 0.0
Mn540 Mn 0.91626 0.67366 0.8326 0.0
Mn541 Mn 0.85678 0.62828 0.91237 0.0
C542 C 0.86682 0.62547 0.81173 0.0
C543 C 0.97645 0.67284 0.789 0.0
C544 C 0.84241 0.71588 0.87856 0.0
O545 O 0.94826 0.68441 0.89113 0.0
O546 O 0.90682 0.65235 0.94192 0.0
C547 C 0.91282 0.56016 0.93961 0.0
N548 N 0.87596 0.57304 0.92218 0.0
C549 C 0.85282 0.50284 0.91281 0.0
C550 C 0.89043 0.48886 0.93091 0.0
C551 C 0.92058 0.51765 0.9443 0.0
C552 C 0.84666 0.54559 0.90939 0.0
H553 H 0.93619 0.58212 0.94981 0.0
C554 C 0.93957 0.67269 0.93159 0.0
O555 O 0.95664 0.70725 0.7959 0.0
O556 O 0.96209 0.63989 0.80829 0.0
N557 N 0.80812 0.60311 0.88766 0.0
C558 C 0.7742 0.62161 0.86915 0.0
C559 C 0.74165 0.59704 0.85276 0.0
C560 C 0.74428 0.55377 0.85562 0.0
C561 C 0.77941 0.53544 0.87502 0.0
C562 C 0.81075 0.5615 0.89109 0.0
H563 H 0.77214 0.65485 0.86656 0.0
O564 O 0.87999 0.65253 0.78246 0.0
O565 O 0.88265 0.62816 0.85232 0.0
O566 O 0.87244 0.71697 0.85024 0.0
O567 O 0.83435 0.68443 0.90343 0.0
C568 C 0.78484 0.49232 0.87839 0.0
C569 C 0.82147 0.47604 0.89736 0.0
H570 H 0.89663 0.45609 0.93436 0.0
H571 H 0.94977 0.5071 0.95806 0.0
H572 H 0.71468 0.61141 0.83772 0.0
H573 H 0.71926 0.53491 0.84259 0.0
H574 H 0.76116 0.4714 0.86617 0.0
H575 H 0.8254 0.44284 0.89947 0.0
C576 C 0.28344 0.31409 0.34877 0.0
C577 C 0.2514 0.31333 0.38126 0.0
H578 H 0.33751 0.284 0.32233 0.0
C579 C 0.25197 0.28237 0.41491 0.0
H580 H 0.28403 0.33749 0.32238 0.0
C581 C 0.28244 0.25189 0.41489 0.0
C582 C 0.31337 0.25133 0.38121 0.0
H583 H 0.22813 0.28089 0.4408 0.0
H584 H 0.28096 0.22804 0.44076 0.0
C585 C 0.31412 0.2834 0.34875 0.0
C586 C 0.31418 0.71726 0.65765 0.0
C587 C 0.31346 0.74926 0.62511 0.0
H588 H 0.28406 0.66323 0.68413 0.0
C589 C 0.28255 0.74864 0.5914 0.0
H590 H 0.33754 0.71671 0.68409 0.0
C591 C 0.25208 0.71816 0.59142 0.0
C592 C 0.25148 0.68727 0.62515 0.0
H593 H 0.28111 0.77243 0.56546 0.0
H594 H 0.22827 0.71959 0.5655 0.0
C595 C 0.2835 0.68657 0.65767 0.0
C596 C 0.68663 0.71731 0.34873 0.0
C597 C 0.68737 0.74936 0.38119 0.0
H598 H 0.71674 0.66323 0.32234 0.0
C599 C 0.7183 0.74881 0.41488 0.0
H600 H 0.66325 0.71671 0.32231 0.0
C601 C 0.74878 0.71833 0.4149 0.0
C602 C 0.74936 0.68738 0.38123 0.0
H603 H 0.71977 0.77265 0.44076 0.0
H604 H 0.77261 0.71981 0.44079 0.0
C605 C 0.71732 0.68662 0.34875 0.0
C606 C 0.71819 0.25216 0.59141 0.0
C607 C 0.68728 0.25154 0.62512 0.0
H608 H 0.77248 0.2812 0.56551 0.0
C609 C 0.68657 0.28354 0.65766 0.0
H610 H 0.71963 0.22837 0.56547 0.0
C611 C 0.71726 0.31422 0.65769 0.0
C612 C 0.74928 0.31351 0.62517 0.0
H613 H 0.66321 0.28408 0.68411 0.0
H614 H 0.7167 0.33756 0.68415 0.0
C615 C 0.74867 0.28263 0.59143 0.0
C616 C 0.75204 0.78258 0.91487 0.0
C617 C 0.75146 0.81349 0.88116 0.0
H618 H 0.78106 0.72829 0.94081 0.0
C619 C 0.78349 0.81421 0.84867 0.0
H620 H 0.72821 0.78113 0.94077 0.0
C621 C 0.81419 0.78353 0.8487 0.0
C622 C 0.81345 0.75151 0.88121 0.0
H623 H 0.78407 0.83758 0.82224 0.0
H624 H 0.83757 0.7841 0.82227 0.0
C625 C 0.78252 0.75211 0.9149 0.0
C626 C 0.78345 0.18662 0.15762 0.0
C627 C 0.75142 0.18737 0.12512 0.0
H628 H 0.8375 0.21672 0.18408 0.0
C629 C 0.75201 0.2183 0.09144 0.0
H630 H 0.78402 0.16324 0.18404 0.0
C631 C 0.78249 0.24877 0.09146 0.0
C632 C 0.8134 0.24935 0.12516 0.0
H633 H 0.7282 0.21977 0.06553 0.0
H634 H 0.78104 0.27261 0.06556 0.0
C635 C 0.81414 0.21731 0.15764 0.0
C636 C 0.18658 0.21727 0.84873 0.0
C637 C 0.18733 0.24929 0.88123 0.0
H638 H 0.21668 0.16321 0.82227 0.0
C639 C 0.21827 0.2487 0.91491 0.0
H640 H 0.1632 0.2167 0.82231 0.0
C641 C 0.24874 0.21822 0.91489 0.0
C642 C 0.24931 0.1873 0.88119 0.0
H643 H 0.21974 0.27251 0.94082 0.0
H644 H 0.27258 0.21967 0.94078 0.0
C645 C 0.21727 0.18657 0.84871 0.0
C646 C 0.24878 0.78239 0.09142 0.0
C647 C 0.24935 0.81334 0.12508 0.0
H648 H 0.21978 0.72807 0.06556 0.0
C649 C 0.21732 0.8141 0.15758 0.0
H650 H 0.2726 0.78092 0.06552 0.0
C651 C 0.18663 0.7834 0.1576 0.0
C652 C 0.18738 0.75135 0.12513 0.0
H653 H 0.21673 0.83749 0.18398 0.0
H654 H 0.16326 0.784 0.18403 0.0
C655 C 0.21831 0.75191 0.09144 0.0
C656 C 0.19373 0.54794 0.26553 0.0
C657 C 0.16948 0.51246 0.25882 0.0
H658 H 0.20104 0.61268 0.25028 0.0
C659 C 0.13721 0.51343 0.22693 0.0
H660 H 0.2184 0.5479 0.2905 0.0
C661 C 0.1279 0.54975 0.20363 0.0
C662 C 0.15047 0.58596 0.212 0.0
H663 H 0.11799 0.48643 0.22143 0.0
H664 H 0.1014 0.55011 0.18102 0.0
C665 C 0.18377 0.58481 0.24275 0.0
C666 C 0.54804 0.80708 0.74078 0.0
C667 C 0.51255 0.83132 0.7475 0.0
H668 H 0.61278 0.79979 0.75602 0.0
C669 C 0.51351 0.86361 0.77937 0.0
H670 H 0.54801 0.7824 0.71583 0.0
C671 C 0.54983 0.87293 0.80266 0.0
C672 C 0.58605 0.85037 0.79429 0.0
H673 H 0.48651 0.88282 0.78487 0.0
H674 H 0.5502 0.89944 0.82526 0.0
C675 C 0.58492 0.81706 0.76354 0.0
C676 C 0.87288 0.45095 0.20365 0.0
C677 C 0.85031 0.41474 0.21202 0.0
H678 H 0.88279 0.51427 0.22144 0.0
C679 C 0.81701 0.41589 0.24278 0.0
H680 H 0.89938 0.45058 0.18104 0.0
C681 C 0.80705 0.45277 0.26554 0.0
C682 C 0.8313 0.48825 0.25882 0.0
H683 H 0.79974 0.38803 0.25031 0.0
H684 H 0.78238 0.45281 0.29051 0.0
C685 C 0.86357 0.48728 0.22694 0.0
C686 C 0.48724 0.13719 0.77939 0.0
C687 C 0.4882 0.16948 0.74752 0.0
H688 H 0.45057 0.10135 0.82527 0.0
C689 C 0.45271 0.19371 0.74081 0.0
H690 H 0.51425 0.11798 0.78488 0.0
C691 C 0.41584 0.18373 0.76357 0.0
C692 C 0.4147 0.15042 0.79431 0.0
H693 H 0.45273 0.21839 0.71586 0.0
H694 H 0.38796 0.20099 0.75605 0.0
C695 C 0.45093 0.12786 0.80268 0.0
C696 C 0.19373 0.45271 0.74094 0.0
C697 C 0.16951 0.48821 0.74768 0.0
H698 H 0.201 0.38796 0.75616 0.0
C699 C 0.13725 0.48726 0.77959 0.0
H700 H 0.21839 0.45273 0.71596 0.0
C701 C 0.12793 0.45094 0.80287 0.0
C702 C 0.15046 0.41471 0.79448 0.0
H703 H 0.11806 0.51427 0.7851 0.0
H704 H 0.10143 0.45059 0.82549 0.0
C705 C 0.18375 0.41584 0.76371 0.0
C706 C 0.4159 0.81695 0.24262 0.0
C707 C 0.41476 0.85023 0.21184 0.0
H708 H 0.45279 0.78233 0.29038 0.0
C709 C 0.45099 0.87277 0.20344 0.0
H710 H 0.38802 0.7997 0.25017 0.0
C711 C 0.48731 0.86345 0.22673 0.0
C712 C 0.48826 0.8312 0.25864 0.0
H713 H 0.45063 0.89926 0.18081 0.0
H714 H 0.51431 0.88266 0.22121 0.0
C715 C 0.45277 0.80698 0.26539 0.0
C716 C 0.86352 0.51353 0.77957 0.0
C717 C 0.83126 0.51258 0.74767 0.0
H718 H 0.89934 0.55021 0.82546 0.0
C719 C 0.80704 0.54808 0.74092 0.0
H720 H 0.88272 0.48652 0.78508 0.0
C721 C 0.81702 0.58496 0.76368 0.0
C722 C 0.85031 0.58608 0.79444 0.0
H723 H 0.78238 0.54806 0.71594 0.0
H724 H 0.79978 0.61283 0.75613 0.0
C725 C 0.87285 0.54985 0.80285 0.0
C726 C 0.58486 0.18376 0.24266 0.0
C727 C 0.58599 0.15048 0.21187 0.0
H728 H 0.54796 0.21838 0.29041 0.0
C729 C 0.54977 0.12794 0.20346 0.0
H730 H 0.61273 0.20101 0.25021 0.0
C731 C 0.51344 0.13726 0.22675 0.0
C732 C 0.51249 0.16951 0.25866 0.0
H733 H 0.55013 0.10146 0.18083 0.0
H734 H 0.48644 0.11806 0.22122 0.0
C735 C 0.54798 0.19373 0.26542 0.0
C736 C 0.69374 0.04809 0.76542 0.0
C737 C 0.66953 0.01259 0.75866 0.0
H738 H 0.701 0.11284 0.75022 0.0
C739 C 0.63728 0.01354 0.72675 0.0
H740 H 0.71839 0.04806 0.79041 0.0
C741 C 0.62796 0.04986 0.70346 0.0
C742 C 0.65049 0.08609 0.71188 0.0
H743 H 0.61809 0.98653 0.72122 0.0
H744 H 0.60147 0.05022 0.68084 0.0
C745 C 0.68376 0.08496 0.74266 0.0
C746 C 0.04977 0.37279 0.30289 0.0
C747 C 0.08599 0.35024 0.2945 0.0
H748 H 0.98645 0.38268 0.28511 0.0
C749 C 0.08486 0.31695 0.26373 0.0
H750 H 0.05013 0.39928 0.32551 0.0
C751 C 0.04799 0.30699 0.24096 0.0
C752 C 0.0125 0.33122 0.2477 0.0
H753 H 0.11273 0.2997 0.25619 0.0
H754 H 0.04797 0.28233 0.21598 0.0
C755 C 0.01345 0.36347 0.2796 0.0
C756 C 0.307 0.95271 0.7654 0.0
C757 C 0.33121 0.98821 0.75865 0.0
H758 H 0.29975 0.88795 0.7502 0.0
C759 C 0.36345 0.98726 0.72673 0.0
H760 H 0.28235 0.95273 0.7904 0.0
C761 C 0.37278 0.95094 0.70344 0.0
C762 C 0.35026 0.91471 0.71185 0.0
H763 H 0.38264 0.01427 0.7212 0.0
H764 H 0.39927 0.95059 0.68081 0.0
C765 C 0.31698 0.91583 0.74264 0.0
C766 C 0.91591 0.68376 0.26368 0.0
C767 C 0.91478 0.65048 0.29446 0.0
H768 H 0.95281 0.71838 0.21593 0.0
C769 C 0.951 0.62793 0.30286 0.0
H770 H 0.88804 0.70101 0.25613 0.0
C771 C 0.98732 0.63725 0.27957 0.0
C772 C 0.98828 0.6695 0.24766 0.0
H773 H 0.95064 0.60144 0.32548 0.0
H774 H 0.01432 0.61804 0.28509 0.0
C775 C 0.95279 0.69373 0.24092 0.0
C776 C 0.69371 0.95277 0.24081 0.0
C777 C 0.66945 0.98825 0.24751 0.0
H778 H 0.70102 0.88803 0.25605 0.0
C779 C 0.63718 0.98728 0.27939 0.0
H780 H 0.71839 0.9528 0.21585 0.0
C781 C 0.62786 0.95096 0.30269 0.0
C782 C 0.65044 0.91474 0.29432 0.0
H783 H 0.61795 0.01427 0.28488 0.0
H784 H 0.60136 0.95059 0.32528 0.0
C785 C 0.68374 0.91589 0.26357 0.0
C786 C 0.95092 0.37288 0.70366 0.0
C787 C 0.9147 0.35033 0.71204 0.0
H788 H 0.01424 0.38276 0.72144 0.0
C789 C 0.91584 0.31703 0.7428 0.0
H790 H 0.95056 0.39938 0.68105 0.0
C791 C 0.95271 0.30705 0.76556 0.0
C792 C 0.9882 0.33129 0.75884 0.0
H793 H 0.88796 0.29978 0.75034 0.0
H794 H 0.95274 0.28239 0.79053 0.0
C795 C 0.98724 0.36355 0.72694 0.0
C796 C 0.317 0.08481 0.26358 0.0
C797 C 0.35031 0.08595 0.29433 0.0
H798 H 0.28236 0.04792 0.21585 0.0
C799 C 0.37288 0.04974 0.30269 0.0
H800 H 0.29973 0.11268 0.25606 0.0
C801 C 0.36356 0.01342 0.2794 0.0
C802 C 0.33128 0.01246 0.24752 0.0
H803 H 0.39938 0.0501 0.3253 0.0
H804 H 0.38278 0.98642 0.28489 0.0
C805 C 0.30703 0.04794 0.24081 0.0
C806 C 0.04984 0.6279 0.70363 0.0
C807 C 0.08606 0.65045 0.712 0.0
H808 H 0.98652 0.61803 0.72141 0.0
C809 C 0.08493 0.68375 0.74276 0.0
H810 H 0.0502 0.6014 0.68102 0.0
C811 C 0.04806 0.69374 0.76552 0.0
C812 C 0.01257 0.6695 0.7588 0.0
H813 H 0.1128 0.70101 0.75029 0.0
H814 H 0.04803 0.7184 0.79049 0.0
C815 C 0.01352 0.63723 0.72691 0.0
C816 C 0.18016 0.54239 0.49238 0.0
C817 C 0.17933 0.53022 0.53839 0.0
H818 H 0.17977 0.52319 0.4225 0.0
C819 C 0.18064 0.48784 0.5489 0.0
H820 H 0.17926 0.57483 0.48324 0.0
C821 C 0.18015 0.45825 0.51412 0.0
C822 C 0.17933 0.47043 0.46811 0.0
H823 H 0.17977 0.47746 0.58401 0.0
H824 H 0.17925 0.42581 0.52327 0.0
C825 C 0.18064 0.51281 0.4576 0.0
C826 C 0.48788 0.82013 0.45744 0.0
C827 C 0.53026 0.82144 0.46795 0.0
H828 H 0.42586 0.8215 0.48308 0.0
C829 C 0.54244 0.82061 0.51396 0.0
H830 H 0.47751 0.821 0.42234 0.0
C831 C 0.51286 0.82013 0.54875 0.0
C832 C 0.47048 0.82142 0.53824 0.0
H833 H 0.57488 0.82152 0.52311 0.0
H834 H 0.52324 0.821 0.58385 0.0
C835 C 0.4583 0.8206 0.49223 0.0
C836 C 0.82064 0.5425 0.5141 0.0
C837 C 0.82146 0.53032 0.4681 0.0
H838 H 0.82103 0.5233 0.584 0.0
C839 C 0.82016 0.48794 0.4576 0.0
H840 H 0.82155 0.57494 0.52325 0.0
C841 C 0.82063 0.45836 0.49239 0.0
C842 C 0.82146 0.47054 0.53839 0.0
H843 H 0.82102 0.47756 0.42249 0.0
H844 H 0.82153 0.42592 0.48325 0.0
C845 C 0.82016 0.51292 0.5489 0.0
C846 C 0.51285 0.18062 0.45746 0.0
C847 C 0.47047 0.17928 0.46796 0.0
H848 H 0.57487 0.17929 0.4831 0.0
C849 C 0.4583 0.18011 0.51397 0.0
H850 H 0.52323 0.17975 0.42235 0.0
C851 C 0.48788 0.18061 0.54876 0.0
C852 C 0.53026 0.17934 0.53825 0.0
H853 H 0.42586 0.17918 0.52312 0.0
H854 H 0.4775 0.17974 0.58386 0.0
C855 C 0.54244 0.18017 0.49225 0.0
C856 C 0.68062 0.98794 0.04874 0.0
C857 C 0.67932 0.03032 0.03824 0.0
H858 H 0.67924 0.92592 0.02309 0.0
C859 C 0.68014 0.0425 0.99223 0.0
H860 H 0.67975 0.97756 0.08384 0.0
C861 C 0.68063 0.01292 0.95744 0.0
C862 C 0.67932 0.97054 0.96794 0.0
H863 H 0.67924 0.07494 0.98309 0.0
H864 H 0.67976 0.02331 0.92234 0.0
C865 C 0.68014 0.95836 0.01395 0.0
C866 C 0.98789 0.32012 0.9576 0.0
C867 C 0.03027 0.32141 0.9681 0.0
H868 H 0.92587 0.32151 0.98324 0.0
C869 C 0.04245 0.32059 0.01411 0.0
H870 H 0.97751 0.32099 0.9225 0.0
C871 C 0.01287 0.32012 0.0489 0.0
C872 C 0.97049 0.32143 0.03839 0.0
H873 H 0.07489 0.32149 0.02326 0.0
H874 H 0.02325 0.32099 0.084 0.0
C875 C 0.95831 0.3206 0.99239 0.0
C876 C 0.32012 0.98783 0.95743 0.0
C877 C 0.32142 0.03021 0.96794 0.0
H878 H 0.3215 0.92581 0.98307 0.0
C879 C 0.3206 0.04239 0.01395 0.0
H880 H 0.32099 0.97746 0.92233 0.0
C881 C 0.32012 0.0128 0.04874 0.0
C882 C 0.32142 0.97043 0.03823 0.0
H883 H 0.32151 0.07483 0.0231 0.0
H884 H 0.321 0.02318 0.08384 0.0
C885 C 0.3206 0.95825 0.99222 0.0
C886 C 0.95833 0.68017 0.01408 0.0
C887 C 0.97051 0.67935 0.96807 0.0
H888 H 0.97753 0.67976 0.08397 0.0
C889 C 0.01289 0.68063 0.95757 0.0
H890 H 0.92589 0.67929 0.02322 0.0
C891 C 0.04247 0.68012 0.99236 0.0
C892 C 0.03029 0.6793 0.03837 0.0
H893 H 0.02327 0.67976 0.92247 0.0
H894 H 0.07491 0.6792 0.98321 0.0
C895 C 0.98791 0.68063 0.04887 0.0
loop_
_geom_bond_atom_site_label_1
_geom_bond_atom_site_label_2
_geom_bond_distance
_geom_bond_site_symmetry_2
_ccdc_geom_bond_type
Mn0 O5 2.095 . S
Mn0 O15 2.162 . S
Mn0 O16 2.297 . S
Mn0 O24 2.385 . S
Mn0 O25 2.209 . S
Mn0 O26 2.094 . S
Mn1 O6 2.121 . S
Mn1 N8 2.257 . S
Mn1 N17 2.282 . S
Mn1 O25 2.215 . S
Mn1 O27 2.117 . S
C2 O24 1.234 . S
C2 O25 1.283 . S
C3 O15 1.281 . S
C3 O16 1.236 . S
C4 O26 1.240 . S
C4 O27 1.264 . S
O5 Mn0 2.095 . S
O5 C14 1.250 . S
O6 Mn1 2.121 . S
O6 C14 1.258 . S
C7 N8 1.326 . S
C7 C11 1.460 . S
C7 H13 0.929 . S
N8 Mn1 2.257 . S
N8 C7 1.326 . S
N8 C12 1.362 . S
C9 C10 1.258 . S
C9 C12 1.431 . S
C9 C29 1.449 . S
C10 C9 1.258 . S
C10 C11 1.477 . S
C10 H30 0.931 . S
C11 C7 1.460 . S
C11 C10 1.477 . S
C11 H31 0.930 . S
C12 N8 1.362 . S
C12 C9 1.431 . S
C12 C22 1.476 . S
H13 C7 0.929 . S
C14 O5 1.250 . S
C14 O6 1.258 . S
O15 Mn0 2.162 . S
O15 C3 1.281 . S
O16 Mn0 2.297 . S
O16 C3 1.236 . S
N17 Mn1 2.282 . S
N17 C18 1.328 . S
N17 C22 1.318 . S
C18 N17 1.328 . S
C18 C19 1.457 . S
C18 H23 0.929 . S
C19 C18 1.457 . S
C19 C20 1.291 . S
C19 H32 0.931 . S
C20 C19 1.291 . S
C20 C21 1.373 . S
C20 H33 0.929 . S
C21 C20 1.373 . S
C21 C22 1.396 . S
C21 C28 1.403 . S
C22 C12 1.476 . S
C22 N17 1.318 . S
C22 C21 1.396 . S
H23 C18 0.929 . S
O24 Mn0 2.385 . S
O24 C2 1.234 . S
O25 Mn0 2.209 . S
O25 Mn1 2.215 . S
O25 C2 1.283 . S
O26 Mn0 2.094 . S
O26 C4 1.240 . S
O27 Mn1 2.117 . S
O27 C4 1.264 . S
C28 C21 1.403 . S
C28 C29 1.399 . S
C28 H34 0.929 . S
C29 C9 1.449 . S
C29 C28 1.399 . S
C29 H35 0.930 . S
H30 C10 0.931 . S
H31 C11 0.930 . S
H32 C19 0.931 . S
H33 C20 0.929 . S
H34 C28 0.929 . S
H35 C29 0.930 . S
Mn36 O41 2.095 . S
Mn36 O51 2.162 . S
Mn36 O52 2.297 . S
Mn36 O60 2.385 . S
Mn36 O61 2.209 . S
Mn36 O62 2.094 . S
Mn37 O42 2.121 . S
Mn37 N44 2.257 . S
Mn37 N53 2.282 . S
Mn37 O61 2.215 . S
Mn37 O63 2.117 . S
C38 O60 1.234 . S
C38 O61 1.283 . S
C39 O51 1.281 . S
C39 O52 1.236 . S
C40 O62 1.240 . S
C40 O63 1.264 . S
O41 Mn36 2.095 . S
O41 C50 1.250 . S
O42 Mn37 2.121 . S
O42 C50 1.258 . S
C43 N44 1.326 . S
C43 C47 1.460 . S
C43 H49 0.929 . S
N44 Mn37 2.257 . S
N44 C43 1.326 . S
N44 C48 1.362 . S
C45 C46 1.258 . S
C45 C48 1.431 . S
C45 C65 1.449 . S
C46 C45 1.258 . S
C46 C47 1.477 . S
C46 H66 0.931 . S
C47 C43 1.460 . S
C47 C46 1.477 . S
C47 H67 0.930 . S
C48 N44 1.362 . S
C48 C45 1.431 . S
C48 C58 1.476 . S
H49 C43 0.929 . S
C50 O41 1.250 . S
C50 O42 1.258 . S
O51 Mn36 2.162 . S
O51 C39 1.281 . S
O52 Mn36 2.297 . S
O52 C39 1.236 . S
N53 Mn37 2.282 . S
N53 C54 1.328 . S
N53 C58 1.318 . S
C54 N53 1.328 . S
C54 C55 1.457 . S
C54 H59 0.929 . S
C55 C54 1.457 . S
C55 C56 1.291 . S
C55 H68 0.931 . S
C56 C55 1.291 . S
C56 C57 1.373 . S
C56 H69 0.929 . S
C57 C56 1.373 . S
C57 C58 1.396 . S
C57 C64 1.403 . S
C58 C48 1.476 . S
C58 N53 1.318 . S
C58 C57 1.396 . S
H59 C54 0.929 . S
O60 Mn36 2.385 . S
O60 C38 1.234 . S
O61 Mn36 2.209 . S
O61 Mn37 2.215 . S
O61 C38 1.283 . S
O62 Mn36 2.094 . S
O62 C40 1.240 . S
O63 Mn37 2.117 . S
O63 C40 1.264 . S
C64 C57 1.403 . S
C64 C65 1.399 . S
C64 H70 0.929 . S
C65 C45 1.449 . S
C65 C64 1.399 . S
C65 H71 0.930 . S
H66 C46 0.931 . S
H67 C47 0.930 . S
H68 C55 0.931 . S
H69 C56 0.929 . S
H70 C64 0.929 . S
H71 C65 0.930 . S
Mn72 O77 2.095 . S
Mn72 O87 2.162 . S
Mn72 O88 2.297 . S
Mn72 O96 2.385 . S
Mn72 O97 2.209 . S
Mn72 O98 2.094 . S
Mn73 O78 2.121 . S
Mn73 N80 2.257 . S
Mn73 N89 2.282 . S
Mn73 O97 2.215 . S
Mn73 O99 2.117 . S
C74 O96 1.234 . S
C74 O97 1.283 . S
C75 O87 1.281 . S
C75 O88 1.236 . S
C76 O98 1.240 . S
C76 O99 1.264 . S
O77 Mn72 2.095 . S
O77 C86 1.250 . S
O78 Mn73 2.121 . S
O78 C86 1.258 . S
C79 N80 1.326 . S
C79 C83 1.460 . S
C79 H85 0.929 . S
N80 Mn73 2.257 . S
N80 C79 1.326 . S
N80 C84 1.362 . S
C81 C82 1.258 . S
C81 C84 1.431 . S
C81 C101 1.449 . S
C82 C81 1.258 . S
C82 C83 1.477 . S
C82 H102 0.931 . S
C83 C79 1.460 . S
C83 C82 1.477 . S
C83 H103 0.930 . S
C84 N80 1.362 . S
C84 C81 1.431 . S
C84 C94 1.476 . S
H85 C79 0.929 . S
C86 O77 1.250 . S
C86 O78 1.258 . S
O87 Mn72 2.162 . S
O87 C75 1.281 . S
O88 Mn72 2.297 . S
O88 C75 1.236 . S
N89 Mn73 2.282 . S
N89 C90 1.328 . S
N89 C94 1.318 . S
C90 N89 1.328 . S
C90 C91 1.457 . S
C90 H95 0.929 . S
C91 C90 1.457 . S
C91 C92 1.291 . S
C91 H104 0.931 . S
C92 C91 1.291 . S
C92 C93 1.373 . S
C92 H105 0.929 . S
C93 C92 1.373 . S
C93 C94 1.396 . S
C93 C100 1.403 . S
C94 C84 1.476 . S
C94 N89 1.318 . S
C94 C93 1.396 . S
H95 C90 0.929 . S
O96 Mn72 2.385 . S
O96 C74 1.234 . S
O97 Mn72 2.209 . S
O97 Mn73 2.215 . S
O97 C74 1.283 . S
O98 Mn72 2.094 . S
O98 C76 1.240 . S
O99 Mn73 2.117 . S
O99 C76 1.264 . S
C100 C93 1.403 . S
C100 C101 1.399 . S
C100 H106 0.929 . S
C101 C81 1.449 . S
C101 C100 1.399 . S
C101 H107 0.930 . S
H102 C82 0.931 . S
H103 C83 0.930 . S
H104 C91 0.931 . S
H105 C92 0.929 . S
H106 C100 0.929 . S
H107 C101 0.930 . S
Mn108 O113 2.095 . S
Mn108 O123 2.162 . S
Mn108 O124 2.297 . S
Mn108 O132 2.385 . S
Mn108 O133 2.209 . S
Mn108 O134 2.094 . S
Mn109 O114 2.121 . S
Mn109 N116 2.257 . S
Mn109 N125 2.282 . S
Mn109 O133 2.215 . S
Mn109 O135 2.117 . S
C110 O132 1.234 . S
C110 O133 1.283 . S
C111 O123 1.281 . S
C111 O124 1.236 . S
C112 O134 1.240 . S
C112 O135 1.264 . S
O113 Mn108 2.095 . S
O113 C122 1.250 . S
O114 Mn109 2.121 . S
O114 C122 1.258 . S
C115 N116 1.326 . S
C115 C119 1.460 . S
C115 H121 0.929 . S
N116 Mn109 2.257 . S
N116 C115 1.326 . S
N116 C120 1.362 . S
C117 C118 1.258 . S
C117 C120 1.431 . S
C117 C137 1.449 . S
C118 C117 1.258 . S
C118 C119 1.477 . S
C118 H138 0.931 . S
C119 C115 1.460 . S
C119 C118 1.477 . S
C119 H139 0.930 . S
C120 N116 1.362 . S
C120 C117 1.431 . S
C120 C130 1.476 . S
H121 C115 0.929 . S
C122 O113 1.250 . S
C122 O114 1.258 . S
O123 Mn108 2.162 . S
O123 C111 1.281 . S
O124 Mn108 2.297 . S
O124 C111 1.236 . S
N125 Mn109 2.282 . S
N125 C126 1.328 . S
N125 C130 1.318 . S
C126 N125 1.328 . S
C126 C127 1.457 . S
C126 H131 0.929 . S
C127 C126 1.457 . S
C127 C128 1.291 . S
C127 H140 0.931 . S
C128 C127 1.291 . S
C128 C129 1.373 . S
C128 H141 0.929 . S
C129 C128 1.373 . S
C129 C130 1.396 . S
C129 C136 1.403 . S
C130 C120 1.476 . S
C130 N125 1.318 . S
C130 C129 1.396 . S
H131 C126 0.929 . S
O132 Mn108 2.385 . S
O132 C110 1.234 . S
O133 Mn108 2.209 . S
O133 Mn109 2.215 . S
O133 C110 1.283 . S
O134 Mn108 2.094 . S
O134 C112 1.240 . S
O135 Mn109 2.117 . S
O135 C112 1.264 . S
C136 C129 1.403 . S
C136 C137 1.399 . S
C136 H142 0.929 . S
C137 C117 1.449 . S
C137 C136 1.399 . S
C137 H143 0.930 . S
H138 C118 0.931 . S
H139 C119 0.930 . S
H140 C127 0.931 . S
H141 C128 0.929 . S
H142 C136 0.929 . S
H143 C137 0.930 . S
Mn144 O149 2.095 . S
Mn144 O159 2.162 . S
Mn144 O160 2.297 . S
Mn144 O168 2.385 . S
Mn144 O169 2.209 . S
Mn144 O170 2.094 . S
Mn145 O150 2.121 . S
Mn145 N152 2.257 . S
Mn145 N161 2.282 . S
Mn145 O169 2.215 . S
Mn145 O171 2.117 . S
C146 O168 1.234 . S
C146 O169 1.283 . S
C147 O159 1.281 . S
C147 O160 1.236 . S
C148 O170 1.240 . S
C148 O171 1.264 . S
O149 Mn144 2.095 . S
O149 C158 1.250 . S
O150 Mn145 2.121 . S
O150 C158 1.258 . S
C151 N152 1.326 . S
C151 C155 1.460 . S
C151 H157 0.929 . S
N152 Mn145 2.257 . S
N152 C151 1.326 . S
N152 C156 1.362 . S
C153 C154 1.258 . S
C153 C156 1.431 . S
C153 C173 1.449 . S
C154 C153 1.258 . S
C154 C155 1.477 . S
C154 H174 0.931 . S
C155 C151 1.460 . S
C155 C154 1.477 . S
C155 H175 0.930 . S
C156 N152 1.362 . S
C156 C153 1.431 . S
C156 C166 1.476 . S
H157 C151 0.929 . S
C158 O149 1.250 . S
C158 O150 1.258 . S
O159 Mn144 2.162 . S
O159 C147 1.281 . S
O160 Mn144 2.297 . S
O160 C147 1.236 . S
N161 Mn145 2.282 . S
N161 C162 1.328 . S
N161 C166 1.318 . S
C162 N161 1.328 . S
C162 C163 1.457 . S
C162 H167 0.929 . S
C163 C162 1.457 . S
C163 C164 1.291 . S
C163 H176 0.931 . S
C164 C163 1.291 . S
C164 C165 1.373 . S
C164 H177 0.929 . S
C165 C164 1.373 . S
C165 C166 1.396 . S
C165 C172 1.403 . S
C166 C156 1.476 . S
C166 N161 1.318 . S
C166 C165 1.396 . S
H167 C162 0.929 . S
O168 Mn144 2.385 . S
O168 C146 1.234 . S
O169 Mn144 2.209 . S
O169 Mn145 2.215 . S
O169 C146 1.283 . S
O170 Mn144 2.094 . S
O170 C148 1.240 . S
O171 Mn145 2.117 . S
O171 C148 1.264 . S
C172 C165 1.403 . S
C172 C173 1.399 . S
C172 H178 0.929 . S
C173 C153 1.449 . S
C173 C172 1.399 . S
C173 H179 0.930 . S
H174 C154 0.931 . S
H175 C155 0.930 . S
H176 C163 0.931 . S
H177 C164 0.929 . S
H178 C172 0.929 . S
H179 C173 0.930 . S
Mn180 O185 2.095 . S
Mn180 O195 2.162 . S
Mn180 O196 2.297 . S
Mn180 O204 2.385 . S
Mn180 O205 2.209 . S
Mn180 O206 2.094 . S
Mn181 O186 2.121 . S
Mn181 N188 2.257 . S
Mn181 N197 2.282 . S
Mn181 O205 2.215 . S
Mn181 O207 2.117 . S
C182 O204 1.234 . S
C182 O205 1.283 . S
C183 O195 1.281 . S
C183 O196 1.236 . S
C184 O206 1.240 . S
C184 O207 1.264 . S
O185 Mn180 2.095 . S
O185 C194 1.250 . S
O186 Mn181 2.121 . S
O186 C194 1.258 . S
C187 N188 1.326 . S
C187 C191 1.460 . S
C187 H193 0.929 . S
N188 Mn181 2.257 . S
N188 C187 1.326 . S
N188 C192 1.362 . S
C189 C190 1.258 . S
C189 C192 1.431 . S
C189 C209 1.449 . S
C190 C189 1.258 . S
C190 C191 1.477 . S
C190 H210 0.931 . S
C191 C187 1.460 . S
C191 C190 1.477 . S
C191 H211 0.930 . S
C192 N188 1.362 . S
C192 C189 1.431 . S
C192 C202 1.476 . S
H193 C187 0.929 . S
C194 O185 1.250 . S
C194 O186 1.258 . S
O195 Mn180 2.162 . S
O195 C183 1.281 . S
O196 Mn180 2.297 . S
O196 C183 1.236 . S
N197 Mn181 2.282 . S
N197 C198 1.328 . S
N197 C202 1.318 . S
C198 N197 1.328 . S
C198 C199 1.457 . S
C198 H203 0.929 . S
C199 C198 1.457 . S
C199 C200 1.291 . S
C199 H212 0.931 . S
C200 C199 1.291 . S
C200 C201 1.373 . S
C200 H213 0.929 . S
C201 C200 1.373 . S
C201 C202 1.396 . S
C201 C208 1.403 . S
C202 C192 1.476 . S
C202 N197 1.318 . S
C202 C201 1.396 . S
H203 C198 0.929 . S
O204 Mn180 2.385 . S
O204 C182 1.234 . S
O205 Mn180 2.209 . S
O205 Mn181 2.215 . S
O205 C182 1.283 . S
O206 Mn180 2.094 . S
O206 C184 1.240 . S
O207 Mn181 2.117 . S
O207 C184 1.264 . S
C208 C201 1.403 . S
C208 C209 1.399 . S
C208 H214 0.929 . S
C209 C189 1.449 . S
C209 C208 1.399 . S
C209 H215 0.930 . S
H210 C190 0.931 . S
H211 C191 0.930 . S
H212 C199 0.931 . S
H213 C200 0.929 . S
H214 C208 0.929 . S
H215 C209 0.930 . S
Mn216 O221 2.095 . S
Mn216 O231 2.162 . S
Mn216 O232 2.297 . S
Mn216 O240 2.385 . S
Mn216 O241 2.209 . S
Mn216 O242 2.094 . S
Mn217 O222 2.121 . S
Mn217 N224 2.257 . S
Mn217 N233 2.282 . S
Mn217 O241 2.215 . S
Mn217 O243 2.117 . S
C218 O240 1.234 . S
C218 O241 1.283 . S
C219 O231 1.281 . S
C219 O232 1.236 . S
C220 O242 1.240 . S
C220 O243 1.264 . S
O221 Mn216 2.095 . S
O221 C230 1.250 . S
O222 Mn217 2.121 . S
O222 C230 1.258 . S
C223 N224 1.326 . S
C223 C227 1.460 . S
C223 H229 0.929 . S
N224 Mn217 2.257 . S
N224 C223 1.326 . S
N224 C228 1.362 . S
C225 C226 1.258 . S
C225 C228 1.431 . S
C225 C245 1.449 . S
C226 C225 1.258 . S
C226 C227 1.477 . S
C226 H246 0.931 . S
C227 C223 1.460 . S
C227 C226 1.477 . S
C227 H247 0.930 . S
C228 N224 1.362 . S
C228 C225 1.431 . S
C228 C238 1.476 . S
H229 C223 0.929 . S
C230 O221 1.250 . S
C230 O222 1.258 . S
O231 Mn216 2.162 . S
O231 C219 1.281 . S
O232 Mn216 2.297 . S
O232 C219 1.236 . S
N233 Mn217 2.282 . S
N233 C234 1.328 . S
N233 C238 1.318 . S
C234 N233 1.328 . S
C234 C235 1.457 . S
C234 H239 0.929 . S
C235 C234 1.457 . S
C235 C236 1.291 . S
C235 H248 0.931 . S
C236 C235 1.291 . S
C236 C237 1.373 . S
C236 H249 0.929 . S
C237 C236 1.373 . S
C237 C238 1.396 . S
C237 C244 1.403 . S
C238 C228 1.476 . S
C238 N233 1.318 . S
C238 C237 1.396 . S
H239 C234 0.929 . S
O240 Mn216 2.385 . S
O240 C218 1.234 . S
O241 Mn216 2.209 . S
O241 Mn217 2.215 . S
O241 C218 1.283 . S
O242 Mn216 2.094 . S
O242 C220 1.240 . S
O243 Mn217 2.117 . S
O243 C220 1.264 . S
C244 C237 1.403 . S
C244 C245 1.399 . S
C244 H250 0.929 . S
C245 C225 1.449 . S
C245 C244 1.399 . S
C245 H251 0.930 . S
H246 C226 0.931 . S
H247 C227 0.930 . S
H248 C235 0.931 . S
H249 C236 0.929 . S
H250 C244 0.929 . S
H251 C245 0.930 . S
Mn252 O257 2.095 . S
Mn252 O267 2.162 . S
Mn252 O268 2.297 . S
Mn252 O276 2.385 . S
Mn252 O277 2.209 . S
Mn252 O278 2.094 . S
Mn253 O258 2.121 . S
Mn253 N260 2.257 . S
Mn253 N269 2.282 . S
Mn253 O277 2.215 . S
Mn253 O279 2.117 . S
C254 O276 1.234 . S
C254 O277 1.283 . S
C255 O267 1.281 . S
C255 O268 1.236 . S
C256 O278 1.240 . S
C256 O279 1.264 . S
O257 Mn252 2.095 . S
O257 C266 1.250 . S
O258 Mn253 2.121 . S
O258 C266 1.258 . S
C259 N260 1.326 . S
C259 C263 1.460 . S
C259 H265 0.929 . S
N260 Mn253 2.257 . S
N260 C259 1.326 . S
N260 C264 1.362 . S
C261 C262 1.258 . S
C261 C264 1.431 . S
C261 C281 1.449 . S
C262 C261 1.258 . S
C262 C263 1.477 . S
C262 H282 0.931 . S
C263 C259 1.460 . S
C263 C262 1.477 . S
C263 H283 0.930 . S
C264 N260 1.362 . S
C264 C261 1.431 . S
C264 C274 1.476 . S
H265 C259 0.929 . S
C266 O257 1.250 . S
C266 O258 1.258 . S
O267 Mn252 2.162 . S
O267 C255 1.281 . S
O268 Mn252 2.297 . S
O268 C255 1.236 . S
N269 Mn253 2.282 . S
N269 C270 1.328 . S
N269 C274 1.318 . S
C270 N269 1.328 . S
C270 C271 1.457 . S
C270 H275 0.929 . S
C271 C270 1.457 . S
C271 C272 1.291 . S
C271 H284 0.931 . S
C272 C271 1.291 . S
C272 C273 1.373 . S
C272 H285 0.929 . S
C273 C272 1.373 . S
C273 C274 1.396 . S
C273 C280 1.403 . S
C274 C264 1.476 . S
C274 N269 1.318 . S
C274 C273 1.396 . S
H275 C270 0.929 . S
O276 Mn252 2.385 . S
O276 C254 1.234 . S
O277 Mn252 2.209 . S
O277 Mn253 2.215 . S
O277 C254 1.283 . S
O278 Mn252 2.094 . S
O278 C256 1.240 . S
O279 Mn253 2.117 . S
O279 C256 1.264 . S
C280 C273 1.403 . S
C280 C281 1.399 . S
C280 H286 0.929 . S
C281 C261 1.449 . S
C281 C280 1.399 . S
C281 H287 0.930 . S
H282 C262 0.931 . S
H283 C263 0.930 . S
H284 C271 0.931 . S
H285 C272 0.929 . S
H286 C280 0.929 . S
H287 C281 0.930 . S
Mn288 O293 2.095 . S
Mn288 O303 2.162 1_565 S
Mn288 O304 2.297 1_565 S
Mn288 O312 2.385 . S
Mn288 O313 2.209 . S
Mn288 O314 2.094 . S
Mn289 O294 2.121 . S
Mn289 N296 2.257 . S
Mn289 N305 2.282 . S
Mn289 O313 2.215 . S
Mn289 O315 2.117 . S
C290 O312 1.234 . S
C290 O313 1.283 . S
C291 O303 1.281 . S
C291 O304 1.236 . S
C292 O314 1.240 . S
C292 O315 1.264 . S
O293 Mn288 2.095 . S
O293 C302 1.250 . S
O294 Mn289 2.121 . S
O294 C302 1.258 . S
C295 N296 1.326 . S
C295 C299 1.460 . S
C295 H301 0.929 . S
N296 Mn289 2.257 . S
N296 C295 1.326 . S
N296 C300 1.362 . S
C297 C298 1.258 . S
C297 C300 1.431 . S
C297 C317 1.449 . S
C298 C297 1.258 . S
C298 C299 1.477 . S
C298 H318 0.931 . S
C299 C295 1.460 . S
C299 C298 1.477 . S
C299 H319 0.930 . S
C300 N296 1.362 . S
C300 C297 1.431 . S
C300 C310 1.476 . S
H301 C295 0.929 . S
C302 O293 1.250 . S
C302 O294 1.258 . S
O303 Mn288 2.162 1_545 S
O303 C291 1.281 . S
O304 Mn288 2.297 1_545 S
O304 C291 1.236 . S
N305 Mn289 2.282 . S
N305 C306 1.328 . S
N305 C310 1.318 . S
C306 N305 1.328 . S
C306 C307 1.457 . S
C306 H311 0.929 . S
C307 C306 1.457 . S
C307 C308 1.291 . S
C307 H320 0.931 . S
C308 C307 1.291 . S
C308 C309 1.373 . S
C308 H321 0.929 . S
C309 C308 1.373 . S
C309 C310 1.396 . S
C309 C316 1.403 . S
C310 C300 1.476 . S
C310 N305 1.318 . S
C310 C309 1.396 . S
H311 C306 0.929 . S
O312 Mn288 2.385 . S
O312 C290 1.234 . S
O313 Mn288 2.209 . S
O313 Mn289 2.215 . S
O313 C290 1.283 . S
O314 Mn288 2.094 . S
O314 C292 1.240 . S
O315 Mn289 2.117 . S
O315 C292 1.264 . S
C316 C309 1.403 . S
C316 C317 1.399 . S
C316 H322 0.929 . S
C317 C297 1.449 . S
C317 C316 1.399 . S
C317 H323 0.930 . S
H318 C298 0.931 . S
H319 C299 0.930 . S
H320 C307 0.931 . S
H321 C308 0.929 . S
H322 C316 0.929 . S
H323 C317 0.930 . S
Mn324 O329 2.095 . S
Mn324 O339 2.162 1_655 S
Mn324 O340 2.297 1_655 S
Mn324 O348 2.385 . S
Mn324 O349 2.209 . S
Mn324 O350 2.094 . S
Mn325 O330 2.121 . S
Mn325 N332 2.257 . S
Mn325 N341 2.282 . S
Mn325 O349 2.215 . S
Mn325 O351 2.117 . S
C326 O348 1.234 . S
C326 O349 1.283 . S
C327 O339 1.281 . S
C327 O340 1.236 . S
C328 O350 1.240 . S
C328 O351 1.264 . S
O329 Mn324 2.095 . S
O329 C338 1.250 . S
O330 Mn325 2.121 . S
O330 C338 1.258 . S
C331 N332 1.326 . S
C331 C335 1.460 . S
C331 H337 0.929 . S
N332 Mn325 2.257 . S
N332 C331 1.326 . S
N332 C336 1.362 . S
C333 C334 1.258 . S
C333 C336 1.431 . S
C333 C353 1.449 . S
C334 C333 1.258 . S
C334 C335 1.477 . S
C334 H354 0.931 . S
C335 C331 1.460 . S
C335 C334 1.477 . S
C335 H355 0.930 . S
C336 N332 1.362 . S
C336 C333 1.431 . S
C336 C346 1.476 . S
H337 C331 0.929 . S
C338 O329 1.250 . S
C338 O330 1.258 . S
O339 Mn324 2.162 1_455 S
O339 C327 1.281 . S
O340 Mn324 2.297 1_455 S
O340 C327 1.236 . S
N341 Mn325 2.282 . S
N341 C342 1.328 . S
N341 C346 1.318 . S
C342 N341 1.328 . S
C342 C343 1.457 . S
C342 H347 0.929 . S
C343 C342 1.457 . S
C343 C344 1.291 . S
C343 H356 0.931 . S
C344 C343 1.291 . S
C344 C345 1.373 . S
C344 H357 0.929 . S
C345 C344 1.373 . S
C345 C346 1.396 . S
C345 C352 1.403 . S
C346 C336 1.476 . S
C346 N341 1.318 . S
C346 C345 1.396 . S
H347 C342 0.929 . S
O348 Mn324 2.385 . S
O348 C326 1.234 . S
O349 Mn324 2.209 . S
O349 Mn325 2.215 . S
O349 C326 1.283 . S
O350 Mn324 2.094 . S
O350 C328 1.240 . S
O351 Mn325 2.117 . S
O351 C328 1.264 . S
C352 C345 1.403 . S
C352 C353 1.399 . S
C352 H358 0.929 . S
C353 C333 1.449 . S
C353 C352 1.399 . S
C353 H359 0.930 . S
H354 C334 0.931 . S
H355 C335 0.930 . S
H356 C343 0.931 . S
H357 C344 0.929 . S
H358 C352 0.929 . S
H359 C353 0.930 . S
Mn360 O365 2.095 . S
Mn360 O375 2.162 1_545 S
Mn360 O376 2.297 1_545 S
Mn360 O384 2.385 . S
Mn360 O385 2.209 . S
Mn360 O386 2.094 . S
Mn361 O366 2.121 . S
Mn361 N368 2.257 . S
Mn361 N377 2.282 . S
Mn361 O385 2.215 . S
Mn361 O387 2.117 . S
C362 O384 1.234 . S
C362 O385 1.283 . S
C363 O375 1.281 . S
C363 O376 1.236 . S
C364 O386 1.240 . S
C364 O387 1.264 . S
O365 Mn360 2.095 . S
O365 C374 1.250 . S
O366 Mn361 2.121 . S
O366 C374 1.258 . S
C367 N368 1.326 . S
C367 C371 1.460 . S
C367 H373 0.929 . S
N368 Mn361 2.257 . S
N368 C367 1.326 . S
N368 C372 1.362 . S
C369 C370 1.258 . S
C369 C372 1.431 . S
C369 C389 1.449 . S
C370 C369 1.258 . S
C370 C371 1.477 . S
C370 H390 0.931 . S
C371 C367 1.460 . S
C371 C370 1.477 . S
C371 H391 0.930 . S
C372 N368 1.362 . S
C372 C369 1.431 . S
C372 C382 1.476 . S
H373 C367 0.929 . S
C374 O365 1.250 . S
C374 O366 1.258 . S
O375 Mn360 2.162 1_565 S
O375 C363 1.281 . S
O376 Mn360 2.297 1_565 S
O376 C363 1.236 . S
N377 Mn361 2.282 . S
N377 C378 1.328 . S
N377 C382 1.318 . S
C378 N377 1.328 . S
C378 C379 1.457 . S
C378 H383 0.929 . S
C379 C378 1.457 . S
C379 C380 1.291 . S
C379 H392 0.931 . S
C380 C379 1.291 . S
C380 C381 1.373 . S
C380 H393 0.929 . S
C381 C380 1.373 . S
C381 C382 1.396 . S
C381 C388 1.403 . S
C382 C372 1.476 . S
C382 N377 1.318 . S
C382 C381 1.396 . S
H383 C378 0.929 . S
O384 Mn360 2.385 . S
O384 C362 1.234 . S
O385 Mn360 2.209 . S
O385 Mn361 2.215 . S
O385 C362 1.283 . S
O386 Mn360 2.094 . S
O386 C364 1.240 . S
O387 Mn361 2.117 . S
O387 C364 1.264 . S
C388 C381 1.403 . S
C388 C389 1.399 . S
C388 H394 0.929 . S
C389 C369 1.449 . S
C389 C388 1.399 . S
C389 H395 0.930 . S
H390 C370 0.931 . S
H391 C371 0.930 . S
H392 C379 0.931 . S
H393 C380 0.929 . S
H394 C388 0.929 . S
H395 C389 0.930 . S
Mn396 O401 2.095 . S
Mn396 O411 2.162 1_455 S
Mn396 O412 2.297 1_455 S
Mn396 O420 2.385 . S
Mn396 O421 2.209 . S
Mn396 O422 2.094 . S
Mn397 O402 2.121 . S
Mn397 N404 2.257 . S
Mn397 N413 2.282 . S
Mn397 O421 2.215 . S
Mn397 O423 2.117 . S
C398 O420 1.234 . S
C398 O421 1.283 . S
C399 O411 1.281 . S
C399 O412 1.236 . S
C400 O422 1.240 . S
C400 O423 1.264 . S
O401 Mn396 2.095 . S
O401 C410 1.250 . S
O402 Mn397 2.121 . S
O402 C410 1.258 . S
C403 N404 1.326 . S
C403 C407 1.460 . S
C403 H409 0.929 . S
N404 Mn397 2.257 . S
N404 C403 1.326 . S
N404 C408 1.362 . S
C405 C406 1.258 . S
C405 C408 1.431 . S
C405 C425 1.449 . S
C406 C405 1.258 . S
C406 C407 1.477 . S
C406 H426 0.931 . S
C407 C403 1.460 . S
C407 C406 1.477 . S
C407 H427 0.930 . S
C408 N404 1.362 . S
C408 C405 1.431 . S
C408 C418 1.476 . S
H409 C403 0.929 . S
C410 O401 1.250 . S
C410 O402 1.258 . S
O411 Mn396 2.162 1_655 S
O411 C399 1.281 . S
O412 Mn396 2.297 1_655 S
O412 C399 1.236 . S
N413 Mn397 2.282 . S
N413 C414 1.328 . S
N413 C418 1.318 . S
C414 N413 1.328 . S
C414 C415 1.457 . S
C414 H419 0.929 . S
C415 C414 1.457 . S
C415 C416 1.291 . S
C415 H428 0.931 . S
C416 C415 1.291 . S
C416 C417 1.373 . S
C416 H429 0.929 . S
C417 C416 1.373 . S
C417 C418 1.396 . S
C417 C424 1.403 . S
C418 C408 1.476 . S
C418 N413 1.318 . S
C418 C417 1.396 . S
H419 C414 0.929 . S
O420 Mn396 2.385 . S
O420 C398 1.234 . S
O421 Mn396 2.209 . S
O421 Mn397 2.215 . S
O421 C398 1.283 . S
O422 Mn396 2.094 . S
O422 C400 1.240 . S
O423 Mn397 2.117 . S
O423 C400 1.264 . S
C424 C417 1.403 . S
C424 C425 1.399 . S
C424 H430 0.929 . S
C425 C405 1.449 . S
C425 C424 1.399 . S
C425 H431 0.930 . S
H426 C406 0.931 . S
H427 C407 0.930 . S
H428 C415 0.931 . S
H429 C416 0.929 . S
H430 C424 0.929 . S
H431 C425 0.930 . S
Mn432 O437 2.095 . S
Mn432 O447 2.162 1_545 S
Mn432 O448 2.297 1_545 S
Mn432 O456 2.385 . S
Mn432 O457 2.209 . S
Mn432 O458 2.094 . S
Mn433 O438 2.121 . S
Mn433 N440 2.257 . S
Mn433 N449 2.282 . S
Mn433 O457 2.215 . S
Mn433 O459 2.117 . S
C434 O456 1.234 . S
C434 O457 1.283 . S
C435 O447 1.281 . S
C435 O448 1.236 . S
C436 O458 1.240 . S
C436 O459 1.264 . S
O437 Mn432 2.095 . S
O437 C446 1.250 . S
O438 Mn433 2.121 . S
O438 C446 1.258 . S
C439 N440 1.326 . S
C439 C443 1.460 . S
C439 H445 0.929 . S
N440 Mn433 2.257 . S
N440 C439 1.326 . S
N440 C444 1.362 . S
C441 C442 1.258 . S
C441 C444 1.431 . S
C441 C461 1.449 . S
C442 C441 1.258 . S
C442 C443 1.477 . S
C442 H462 0.931 . S
C443 C439 1.460 . S
C443 C442 1.477 . S
C443 H463 0.930 . S
C444 N440 1.362 . S
C444 C441 1.431 . S
C444 C454 1.476 . S
H445 C439 0.929 . S
C446 O437 1.250 . S
C446 O438 1.258 . S
O447 Mn432 2.162 1_565 S
O447 C435 1.281 . S
O448 Mn432 2.297 1_565 S
O448 C435 1.236 . S
N449 Mn433 2.282 . S
N449 C450 1.328 . S
N449 C454 1.318 . S
C450 N449 1.328 . S
C450 C451 1.457 . S
C450 H455 0.929 . S
C451 C450 1.457 . S
C451 C452 1.291 . S
C451 H464 0.931 . S
C452 C451 1.291 . S
C452 C453 1.373 . S
C452 H465 0.929 . S
C453 C452 1.373 . S
C453 C454 1.396 . S
C453 C460 1.403 . S
C454 C444 1.476 . S
C454 N449 1.318 . S
C454 C453 1.396 . S
H455 C450 0.929 . S
O456 Mn432 2.385 . S
O456 C434 1.234 . S
O457 Mn432 2.209 . S
O457 Mn433 2.215 . S
O457 C434 1.283 . S
O458 Mn432 2.094 . S
O458 C436 1.240 . S
O459 Mn433 2.117 . S
O459 C436 1.264 . S
C460 C453 1.403 . S
C460 C461 1.399 . S
C460 H466 0.929 . S
C461 C441 1.449 . S
C461 C460 1.399 . S
C461 H467 0.930 . S
H462 C442 0.931 . S
H463 C443 0.930 . S
H464 C451 0.931 . S
H465 C452 0.929 . S
H466 C460 0.929 . S
H467 C461 0.930 . S
Mn468 O473 2.095 . S
Mn468 O483 2.162 1_455 S
Mn468 O484 2.297 1_455 S
Mn468 O492 2.385 . S
Mn468 O493 2.209 . S
Mn468 O494 2.094 . S
Mn469 O474 2.121 . S
Mn469 N476 2.257 . S
Mn469 N485 2.282 . S
Mn469 O493 2.215 . S
Mn469 O495 2.117 . S
C470 O492 1.234 . S
C470 O493 1.283 . S
C471 O483 1.281 . S
C471 O484 1.236 . S
C472 O494 1.240 . S
C472 O495 1.264 . S
O473 Mn468 2.095 . S
O473 C482 1.250 . S
O474 Mn469 2.121 . S
O474 C482 1.258 . S
C475 N476 1.326 . S
C475 C479 1.460 . S
C475 H481 0.929 . S
N476 Mn469 2.257 . S
N476 C475 1.326 . S
N476 C480 1.362 . S
C477 C478 1.258 . S
C477 C480 1.431 . S
C477 C497 1.449 . S
C478 C477 1.258 . S
C478 C479 1.477 . S
C478 H498 0.931 . S
C479 C475 1.460 . S
C479 C478 1.477 . S
C479 H499 0.930 . S
C480 N476 1.362 . S
C480 C477 1.431 . S
C480 C490 1.476 . S
H481 C475 0.929 . S
C482 O473 1.250 . S
C482 O474 1.258 . S
O483 Mn468 2.162 1_655 S
O483 C471 1.281 . S
O484 Mn468 2.297 1_655 S
O484 C471 1.236 . S
N485 Mn469 2.282 . S
N485 C486 1.328 . S
N485 C490 1.318 . S
C486 N485 1.328 . S
C486 C487 1.457 . S
C486 H491 0.929 . S
C487 C486 1.457 . S
C487 C488 1.291 . S
C487 H500 0.931 . S
C488 C487 1.291 . S
C488 C489 1.373 . S
C488 H501 0.929 . S
C489 C488 1.373 . S
C489 C490 1.396 . S
C489 C496 1.403 . S
C490 C480 1.476 . S
C490 N485 1.318 . S
C490 C489 1.396 . S
H491 C486 0.929 . S
O492 Mn468 2.385 . S
O492 C470 1.234 . S
O493 Mn468 2.209 . S
O493 Mn469 2.215 . S
O493 C470 1.283 . S
O494 Mn468 2.094 . S
O494 C472 1.240 . S
O495 Mn469 2.117 . S
O495 C472 1.264 . S
C496 C489 1.403 . S
C496 C497 1.399 . S
C496 H502 0.929 . S
C497 C477 1.449 . S
C497 C496 1.399 . S
C497 H503 0.930 . S
H498 C478 0.931 . S
H499 C479 0.930 . S
H500 C487 0.931 . S
H501 C488 0.929 . S
H502 C496 0.929 . S
H503 C497 0.930 . S
Mn504 O509 2.095 . S
Mn504 O519 2.162 1_565 S
Mn504 O520 2.297 1_565 S
Mn504 O528 2.385 . S
Mn504 O529 2.209 . S
Mn504 O530 2.094 . S
Mn505 O510 2.121 . S
Mn505 N512 2.257 . S
Mn505 N521 2.282 . S
Mn505 O529 2.215 . S
Mn505 O531 2.117 . S
C506 O528 1.234 . S
C506 O529 1.283 . S
C507 O519 1.281 . S
C507 O520 1.236 . S
C508 O530 1.240 . S
C508 O531 1.264 . S
O509 Mn504 2.095 . S
O509 C518 1.250 . S
O510 Mn505 2.121 . S
O510 C518 1.258 . S
C511 N512 1.326 . S
C511 C515 1.460 . S
C511 H517 0.929 . S
N512 Mn505 2.257 . S
N512 C511 1.326 . S
N512 C516 1.362 . S
C513 C514 1.258 . S
C513 C516 1.431 . S
C513 C533 1.449 . S
C514 C513 1.258 . S
C514 C515 1.477 . S
C514 H534 0.931 . S
C515 C511 1.460 . S
C515 C514 1.477 . S
C515 H535 0.930 . S
C516 N512 1.362 . S
C516 C513 1.431 . S
C516 C526 1.476 . S
H517 C511 0.929 . S
C518 O509 1.250 . S
C518 O510 1.258 . S
O519 Mn504 2.162 1_545 S
O519 C507 1.281 . S
O520 Mn504 2.297 1_545 S
O520 C507 1.236 . S
N521 Mn505 2.282 . S
N521 C522 1.328 . S
N521 C526 1.318 . S
C522 N521 1.328 . S
C522 C523 1.457 . S
C522 H527 0.929 . S
C523 C522 1.457 . S
C523 C524 1.291 . S
C523 H536 0.931 . S
C524 C523 1.291 . S
C524 C525 1.373 . S
C524 H537 0.929 . S
C525 C524 1.373 . S
C525 C526 1.396 . S
C525 C532 1.403 . S
C526 C516 1.476 . S
C526 N521 1.318 . S
C526 C525 1.396 . S
H527 C522 0.929 . S
O528 Mn504 2.385 . S
O528 C506 1.234 . S
O529 Mn504 2.209 . S
O529 Mn505 2.215 . S
O529 C506 1.283 . S
O530 Mn504 2.094 . S
O530 C508 1.240 . S
O531 Mn505 2.117 . S
O531 C508 1.264 . S
C532 C525 1.403 . S
C532 C533 1.399 . S
C532 H538 0.929 . S
C533 C513 1.449 . S
C533 C532 1.399 . S
C533 H539 0.930 . S
H534 C514 0.931 . S
H535 C515 0.930 . S
H536 C523 0.931 . S
H537 C524 0.929 . S
H538 C532 0.929 . S
H539 C533 0.930 . S
Mn540 O545 2.095 . S
Mn540 O555 2.162 1_655 S
Mn540 O556 2.297 1_655 S
Mn540 O564 2.385 . S
Mn540 O565 2.209 . S
Mn540 O566 2.094 . S
Mn541 O546 2.121 . S
Mn541 N548 2.257 . S
Mn541 N557 2.282 . S
Mn541 O565 2.215 . S
Mn541 O567 2.117 . S
C542 O564 1.234 . S
C542 O565 1.283 . S
C543 O555 1.281 . S
C543 O556 1.236 . S
C544 O566 1.240 . S
C544 O567 1.264 . S
O545 Mn540 2.095 . S
O545 C554 1.250 . S
O546 Mn541 2.121 . S
O546 C554 1.258 . S
C547 N548 1.326 . S
C547 C551 1.460 . S
C547 H553 0.929 . S
N548 Mn541 2.257 . S
N548 C547 1.326 . S
N548 C552 1.362 . S
C549 C550 1.258 . S
C549 C552 1.431 . S
C549 C569 1.449 . S
C550 C549 1.258 . S
C550 C551 1.477 . S
C550 H570 0.931 . S
C551 C547 1.460 . S
C551 C550 1.477 . S
C551 H571 0.930 . S
C552 N548 1.362 . S
C552 C549 1.431 . S
C552 C562 1.476 . S
H553 C547 0.929 . S
C554 O545 1.250 . S
C554 O546 1.258 . S
O555 Mn540 2.162 1_455 S
O555 C543 1.281 . S
O556 Mn540 2.297 1_455 S
O556 C543 1.236 . S
N557 Mn541 2.282 . S
N557 C558 1.328 . S
N557 C562 1.318 . S
C558 N557 1.328 . S
C558 C559 1.457 . S
C558 H563 0.929 . S
C559 C558 1.457 . S
C559 C560 1.291 . S
C559 H572 0.931 . S
C560 C559 1.291 . S
C560 C561 1.373 . S
C560 H573 0.929 . S
C561 C560 1.373 . S
C561 C562 1.396 . S
C561 C568 1.403 . S
C562 C552 1.476 . S
C562 N557 1.318 . S
C562 C561 1.396 . S
H563 C558 0.929 . S
O564 Mn540 2.385 . S
O564 C542 1.234 . S
O565 Mn540 2.209 . S
O565 Mn541 2.215 . S
O565 C542 1.283 . S
O566 Mn540 2.094 . S
O566 C544 1.240 . S
O567 Mn541 2.117 . S
O567 C544 1.264 . S
C568 C561 1.403 . S
C568 C569 1.399 . S
C568 H574 0.929 . S
C569 C549 1.449 . S
C569 C568 1.399 . S
C569 H575 0.930 . S
H570 C550 0.931 . S
H571 C551 0.930 . S
H572 C559 0.931 . S
H573 C560 0.929 . S
H574 C568 0.929 . S
H575 C569 0.930 . S
C576 C577 1.387 . S
C576 H580 0.950 . S
C576 C585 1.390 . S
C577 C576 1.387 . S
C577 C579 1.387 . S
H578 C585 0.950 . S
C579 C577 1.387 . S
C579 C581 1.390 . S
C579 H583 0.950 . S
H580 C576 0.950 . S
C581 C579 1.390 . S
C581 C582 1.387 . S
C581 H584 0.950 . S
C582 C581 1.387 . S
C582 C585 1.387 . S
H583 C579 0.950 . S
H584 C581 0.950 . S
C585 C576 1.390 . S
C585 H578 0.950 . S
C585 C582 1.387 . S
C586 C587 1.387 . S
C586 H590 0.950 . S
C586 C595 1.390 . S
C587 C586 1.387 . S
C587 C589 1.387 . S
H588 C595 0.950 . S
C589 C587 1.387 . S
C589 C591 1.390 . S
C589 H593 0.950 . S
H590 C586 0.950 . S
C591 C589 1.390 . S
C591 C592 1.387 . S
C591 H594 0.950 . S
C592 C591 1.387 . S
C592 C595 1.387 . S
H593 C589 0.950 . S
H594 C591 0.950 . S
C595 C586 1.390 . S
C595 H588 0.950 . S
C595 C592 1.387 . S
C596 C597 1.387 . S
C596 H600 0.950 . S
C596 C605 1.390 . S
C597 C596 1.387 . S
C597 C599 1.387 . S
H598 C605 0.950 . S
C599 C597 1.387 . S
C599 C601 1.390 . S
C599 H603 0.950 . S
H600 C596 0.950 . S
C601 C599 1.390 . S
C601 C602 1.387 . S
C601 H604 0.950 . S
C602 C601 1.387 . S
C602 C605 1.387 . S
H603 C599 0.950 . S
H604 C601 0.950 . S
C605 C596 1.390 . S
C605 H598 0.950 . S
C605 C602 1.387 . S
C606 C607 1.387 . S
C606 H610 0.950 . S
C606 C615 1.390 . S
C607 C606 1.387 . S
C607 C609 1.387 . S
H608 C615 0.950 . S
C609 C607 1.387 . S
C609 C611 1.390 . S
C609 H613 0.950 . S
H610 C606 0.950 . S
C611 C609 1.390 . S
C611 C612 1.387 . S
C611 H614 0.950 . S
C612 C611 1.387 . S
C612 C615 1.387 . S
H613 C609 0.950 . S
H614 C611 0.950 . S
C615 C606 1.390 . S
C615 H608 0.950 . S
C615 C612 1.387 . S
C616 C617 1.387 . S
C616 H620 0.950 . S
C616 C625 1.390 . S
C617 C616 1.387 . S
C617 C619 1.387 . S
H618 C625 0.950 . S
C619 C617 1.387 . S
C619 C621 1.390 . S
C619 H623 0.950 . S
H620 C616 0.950 . S
C621 C619 1.390 . S
C621 C622 1.387 . S
C621 H624 0.950 . S
C622 C621 1.387 . S
C622 C625 1.387 . S
H623 C619 0.950 . S
H624 C621 0.950 . S
C625 C616 1.390 . S
C625 H618 0.950 . S
C625 C622 1.387 . S
C626 C627 1.387 . S
C626 H630 0.950 . S
C626 C635 1.390 . S
C627 C626 1.387 . S
C627 C629 1.387 . S
H628 C635 0.950 . S
C629 C627 1.387 . S
C629 C631 1.390 . S
C629 H633 0.950 . S
H630 C626 0.950 . S
C631 C629 1.390 . S
C631 C632 1.387 . S
C631 H634 0.950 . S
C632 C631 1.387 . S
C632 C635 1.387 . S
H633 C629 0.950 . S
H634 C631 0.950 . S
C635 C626 1.390 . S
C635 H628 0.950 . S
C635 C632 1.387 . S
C636 C637 1.387 . S
C636 H640 0.950 . S
C636 C645 1.390 . S
C637 C636 1.387 . S
C637 C639 1.387 . S
H638 C645 0.950 . S
C639 C637 1.387 . S
C639 C641 1.390 . S
C639 H643 0.950 . S
H640 C636 0.950 . S
C641 C639 1.390 . S
C641 C642 1.387 . S
C641 H644 0.950 . S
C642 C641 1.387 . S
C642 C645 1.387 . S
H643 C639 0.950 . S
H644 C641 0.950 . S
C645 C636 1.390 . S
C645 H638 0.950 . S
C645 C642 1.387 . S
C646 C647 1.387 . S
C646 H650 0.950 . S
C646 C655 1.390 . S
C647 C646 1.387 . S
C647 C649 1.387 . S
H648 C655 0.950 . S
C649 C647 1.387 . S
C649 C651 1.390 . S
C649 H653 0.950 . S
H650 C646 0.950 . S
C651 C649 1.390 . S
C651 C652 1.387 . S
C651 H654 0.950 . S
C652 C651 1.387 . S
C652 C655 1.387 . S
H653 C649 0.950 . S
H654 C651 0.950 . S
C655 C646 1.390 . S
C655 H648 0.950 . S
C655 C652 1.387 . S
C656 C657 1.387 . S
C656 H660 0.950 . S
C656 C665 1.390 . S
C657 C656 1.387 . S
C657 C659 1.387 . S
H658 C665 0.950 . S
C659 C657 1.387 . S
C659 C661 1.390 . S
C659 H663 0.950 . S
H660 C656 0.950 . S
C661 C659 1.390 . S
C661 C662 1.387 . S
C661 H664 0.950 . S
C662 C661 1.387 . S
C662 C665 1.387 . S
H663 C659 0.950 . S
H664 C661 0.950 . S
C665 C656 1.390 . S
C665 H658 0.950 . S
C665 C662 1.387 . S
C666 C667 1.387 . S
C666 H670 0.950 . S
C666 C675 1.390 . S
C667 C666 1.387 . S
C667 C669 1.387 . S
H668 C675 0.950 . S
C669 C667 1.387 . S
C669 C671 1.390 . S
C669 H673 0.950 . S
H670 C666 0.950 . S
C671 C669 1.390 . S
C671 C672 1.387 . S
C671 H674 0.950 . S
C672 C671 1.387 . S
C672 C675 1.387 . S
H673 C669 0.950 . S
H674 C671 0.950 . S
C675 C666 1.390 . S
C675 H668 0.950 . S
C675 C672 1.387 . S
C676 C677 1.387 . S
C676 H680 0.950 . S
C676 C685 1.390 . S
C677 C676 1.387 . S
C677 C679 1.387 . S
H678 C685 0.950 . S
C679 C677 1.387 . S
C679 C681 1.390 . S
C679 H683 0.950 . S
H680 C676 0.950 . S
C681 C679 1.390 . S
C681 C682 1.387 . S
C681 H684 0.950 . S
C682 C681 1.387 . S
C682 C685 1.387 . S
H683 C679 0.950 . S
H684 C681 0.950 . S
C685 C676 1.390 . S
C685 H678 0.950 . S
C685 C682 1.387 . S
C686 C687 1.387 . S
C686 H690 0.950 . S
C686 C695 1.390 . S
C687 C686 1.387 . S
C687 C689 1.387 . S
H688 C695 0.950 . S
C689 C687 1.387 . S
C689 C691 1.390 . S
C689 H693 0.950 . S
H690 C686 0.950 . S
C691 C689 1.390 . S
C691 C692 1.387 . S
C691 H694 0.950 . S
C692 C691 1.387 . S
C692 C695 1.387 . S
H693 C689 0.950 . S
H694 C691 0.950 . S
C695 C686 1.390 . S
C695 H688 0.950 . S
C695 C692 1.387 . S
C696 C697 1.387 . S
C696 H700 0.950 . S
C696 C705 1.390 . S
C697 C696 1.387 . S
C697 C699 1.387 . S
H698 C705 0.950 . S
C699 C697 1.387 . S
C699 C701 1.390 . S
C699 H703 0.950 . S
H700 C696 0.950 . S
C701 C699 1.390 . S
C701 C702 1.387 . S
C701 H704 0.950 . S
C702 C701 1.387 . S
C702 C705 1.387 . S
H703 C699 0.950 . S
H704 C701 0.950 . S
C705 C696 1.390 . S
C705 H698 0.950 . S
C705 C702 1.387 . S
C706 C707 1.387 . S
C706 H710 0.950 . S
C706 C715 1.390 . S
C707 C706 1.387 . S
C707 C709 1.387 . S
H708 C715 0.950 . S
C709 C707 1.387 . S
C709 C711 1.390 . S
C709 H713 0.950 . S
H710 C706 0.950 . S
C711 C709 1.390 . S
C711 C712 1.387 . S
C711 H714 0.950 . S
C712 C711 1.387 . S
C712 C715 1.387 . S
H713 C709 0.950 . S
H714 C711 0.950 . S
C715 C706 1.390 . S
C715 H708 0.950 . S
C715 C712 1.387 . S
C716 C717 1.387 . S
C716 H720 0.950 . S
C716 C725 1.390 . S
C717 C716 1.387 . S
C717 C719 1.387 . S
H718 C725 0.950 . S
C719 C717 1.387 . S
C719 C721 1.390 . S
C719 H723 0.950 . S
H720 C716 0.950 . S
C721 C719 1.390 . S
C721 C722 1.387 . S
C721 H724 0.950 . S
C722 C721 1.387 . S
C722 C725 1.387 . S
H723 C719 0.950 . S
H724 C721 0.950 . S
C725 C716 1.390 . S
C725 H718 0.950 . S
C725 C722 1.387 . S
C726 C727 1.387 . S
C726 H730 0.950 . S
C726 C735 1.390 . S
C727 C726 1.387 . S
C727 C729 1.387 . S
H728 C735 0.950 . S
C729 C727 1.387 . S
C729 C731 1.390 . S
C729 H733 0.950 . S
H730 C726 0.950 . S
C731 C729 1.390 . S
C731 C732 1.387 . S
C731 H734 0.950 . S
C732 C731 1.387 . S
C732 C735 1.387 . S
H733 C729 0.950 . S
H734 C731 0.950 . S
C735 C726 1.390 . S
C735 H728 0.950 . S
C735 C732 1.387 . S
C736 C737 1.387 . S
C736 H740 0.950 . S
C736 C745 1.390 . S
C737 C736 1.387 . S
C737 C739 1.387 . S
H738 C745 0.950 . S
C739 C737 1.387 . S
C739 C741 1.390 . S
C739 H743 0.950 . S
H740 C736 0.950 . S
C741 C739 1.390 . S
C741 C742 1.387 . S
C741 H744 0.950 . S
C742 C741 1.387 . S
C742 C745 1.387 . S
H743 C739 0.950 . S
H744 C741 0.950 . S
C745 C736 1.390 . S
C745 H738 0.950 . S
C745 C742 1.387 . S
C746 C747 1.387 . S
C746 H750 0.950 . S
C746 C755 1.390 . S
C747 C746 1.387 . S
C747 C749 1.387 . S
H748 C755 0.950 . S
C749 C747 1.387 . S
C749 C751 1.390 . S
C749 H753 0.950 . S
H750 C746 0.950 . S
C751 C749 1.390 . S
C751 C752 1.387 . S
C751 H754 0.950 . S
C752 C751 1.387 . S
C752 C755 1.387 . S
H753 C749 0.950 . S
H754 C751 0.950 . S
C755 C746 1.390 . S
C755 H748 0.950 . S
C755 C752 1.387 . S
C756 C757 1.387 . S
C756 H760 0.950 . S
C756 C765 1.390 . S
C757 C756 1.387 . S
C757 C759 1.387 . S
H758 C765 0.950 . S
C759 C757 1.387 . S
C759 C761 1.390 . S
C759 H763 0.950 . S
H760 C756 0.950 . S
C761 C759 1.390 . S
C761 C762 1.387 . S
C761 H764 0.950 . S
C762 C761 1.387 . S
C762 C765 1.387 . S
H763 C759 0.950 . S
H764 C761 0.950 . S
C765 C756 1.390 . S
C765 H758 0.950 . S
C765 C762 1.387 . S
C766 C767 1.387 . S
C766 H770 0.950 . S
C766 C775 1.390 . S
C767 C766 1.387 . S
C767 C769 1.387 . S
H768 C775 0.950 . S
C769 C767 1.387 . S
C769 C771 1.390 . S
C769 H773 0.950 . S
H770 C766 0.950 . S
C771 C769 1.390 . S
C771 C772 1.387 . S
C771 H774 0.950 . S
C772 C771 1.387 . S
C772 C775 1.387 . S
H773 C769 0.950 . S
H774 C771 0.950 . S
C775 C766 1.390 . S
C775 H768 0.950 . S
C775 C772 1.387 . S
C776 C777 1.387 . S
C776 H780 0.950 . S
C776 C785 1.390 . S
C777 C776 1.387 . S
C777 C779 1.387 . S
H778 C785 0.950 . S
C779 C777 1.387 . S
C779 C781 1.390 . S
C779 H783 0.950 . S
H780 C776 0.950 . S
C781 C779 1.390 . S
C781 C782 1.387 . S
C781 H784 0.950 . S
C782 C781 1.387 . S
C782 C785 1.387 . S
H783 C779 0.950 . S
H784 C781 0.950 . S
C785 C776 1.390 . S
C785 H778 0.950 . S
C785 C782 1.387 . S
C786 C787 1.387 . S
C786 H790 0.950 . S
C786 C795 1.390 . S
C787 C786 1.387 . S
C787 C789 1.387 . S
H788 C795 0.950 . S
C789 C787 1.387 . S
C789 C791 1.390 . S
C789 H793 0.950 . S
H790 C786 0.950 . S
C791 C789 1.390 . S
C791 C792 1.387 . S
C791 H794 0.950 . S
C792 C791 1.387 . S
C792 C795 1.387 . S
H793 C789 0.950 . S
H794 C791 0.950 . S
C795 C786 1.390 . S
C795 H788 0.950 . S
C795 C792 1.387 . S
C796 C797 1.387 . S
C796 H800 0.950 . S
C796 C805 1.390 . S
C797 C796 1.387 . S
C797 C799 1.387 . S
H798 C805 0.950 . S
C799 C797 1.387 . S
C799 C801 1.390 . S
C799 H803 0.950 . S
H800 C796 0.950 . S
C801 C799 1.390 . S
C801 C802 1.387 . S
C801 H804 0.950 . S
C802 C801 1.387 . S
C802 C805 1.387 . S
H803 C799 0.950 . S
H804 C801 0.950 . S
C805 C796 1.390 . S
C805 H798 0.950 . S
C805 C802 1.387 . S
C806 C807 1.387 . S
C806 H810 0.950 . S
C806 C815 1.390 . S
C807 C806 1.387 . S
C807 C809 1.387 . S
H808 C815 0.950 . S
C809 C807 1.387 . S
C809 C811 1.390 . S
C809 H813 0.950 . S
H810 C806 0.950 . S
C811 C809 1.390 . S
C811 C812 1.387 . S
C811 H814 0.950 . S
C812 C811 1.387 . S
C812 C815 1.387 . S
H813 C809 0.950 . S
H814 C811 0.950 . S
C815 C806 1.390 . S
C815 H808 0.950 . S
C815 C812 1.387 . S
C816 C817 1.387 . S
C816 H820 0.950 . S
C816 C825 1.390 . S
C817 C816 1.387 . S
C817 C819 1.387 . S
H818 C825 0.950 . S
C819 C817 1.387 . S
C819 C821 1.390 . S
C819 H823 0.950 . S
H820 C816 0.950 . S
C821 C819 1.390 . S
C821 C822 1.387 . S
C821 H824 0.950 . S
C822 C821 1.387 . S
C822 C825 1.387 . S
H823 C819 0.950 . S
H824 C821 0.950 . S
C825 C816 1.390 . S
C825 H818 0.950 . S
C825 C822 1.387 . S
C826 C827 1.387 . S
C826 H830 0.950 . S
C826 C835 1.390 . S
C827 C826 1.387 . S
C827 C829 1.387 . S
H828 C835 0.950 . S
C829 C827 1.387 . S
C829 C831 1.390 . S
C829 H833 0.950 . S
H830 C826 0.950 . S
C831 C829 1.390 . S
C831 C832 1.387 . S
C831 H834 0.950 . S
C832 C831 1.387 . S
C832 C835 1.387 . S
H833 C829 0.950 . S
H834 C831 0.950 . S
C835 C826 1.390 . S
C835 H828 0.950 . S
C835 C832 1.387 . S
C836 C837 1.387 . S
C836 H840 0.950 . S
C836 C845 1.390 . S
C837 C836 1.387 . S
C837 C839 1.387 . S
H838 C845 0.950 . S
C839 C837 1.387 . S
C839 C841 1.390 . S
C839 H843 0.950 . S
H840 C836 0.950 . S
C841 C839 1.390 . S
C841 C842 1.387 . S
C841 H844 0.950 . S
C842 C841 1.387 . S
C842 C845 1.387 . S
H843 C839 0.950 . S
H844 C841 0.950 . S
C845 C836 1.390 . S
C845 H838 0.950 . S
C845 C842 1.387 . S
C846 C847 1.387 . S
C846 H850 0.950 . S
C846 C855 1.390 . S
C847 C846 1.387 . S
C847 C849 1.387 . S
H848 C855 0.950 . S
C849 C847 1.387 . S
C849 C851 1.390 . S
C849 H853 0.950 . S
H850 C846 0.950 . S
C851 C849 1.390 . S
C851 C852 1.387 . S
C851 H854 0.950 . S
C852 C851 1.387 . S
C852 C855 1.387 . S
H853 C849 0.950 . S
H854 C851 0.950 . S
C855 C846 1.390 . S
C855 H848 0.950 . S
C855 C852 1.387 . S
C856 C857 1.387 . S
C856 H860 0.950 . S
C856 C865 1.390 1_544 S
C857 C856 1.387 . S
C857 C859 1.387 . S
H858 C865 0.950 . S
C859 C857 1.387 . S
C859 C861 1.390 1_544 S
C859 H863 0.950 . S
H860 C856 0.950 . S
C861 C859 1.390 1_566 S
C861 C862 1.387 . S
C861 H864 0.950 . S
C862 C861 1.387 . S
C862 C865 1.387 . S
H863 C859 0.950 . S
H864 C861 0.950 . S
C865 C856 1.390 1_566 S
C865 H858 0.950 . S
C865 C862 1.387 . S
C866 C867 1.387 . S
C866 H870 0.950 . S
C866 C875 1.390 1_456 S
C867 C866 1.387 . S
C867 C869 1.387 . S
H868 C875 0.950 . S
C869 C867 1.387 . S
C869 C871 1.390 1_456 S
C869 H873 0.950 . S
H870 C866 0.950 . S
C871 C869 1.390 1_654 S
C871 C872 1.387 . S
C871 H874 0.950 . S
C872 C871 1.387 . S
C872 C875 1.387 . S
H873 C869 0.950 . S
H874 C871 0.950 . S
C875 C866 1.390 1_654 S
C875 H868 0.950 . S
C875 C872 1.387 . S
C876 C877 1.387 . S
C876 H880 0.950 . S
C876 C885 1.390 1_546 S
C877 C876 1.387 . S
C877 C879 1.387 . S
H878 C885 0.950 . S
C879 C877 1.387 . S
C879 C881 1.390 1_546 S
C879 H883 0.950 . S
H880 C876 0.950 . S
C881 C879 1.390 1_564 S
C881 C882 1.387 . S
C881 H884 0.950 . S
C882 C881 1.387 . S
C882 C885 1.387 . S
H883 C879 0.950 . S
H884 C881 0.950 . S
C885 C876 1.390 1_564 S
C885 H878 0.950 . S
C885 C882 1.387 . S
C886 C887 1.387 . S
C886 H890 0.950 . S
C886 C895 1.390 1_656 S
C887 C886 1.387 . S
C887 C889 1.387 . S
H888 C895 0.950 . S
C889 C887 1.387 . S
C889 C891 1.390 1_656 S
C889 H893 0.950 . S
H890 C886 0.950 . S
C891 C889 1.390 1_454 S
C891 C892 1.387 . S
C891 H894 0.950 . S
C892 C891 1.387 . S
C892 C895 1.387 . S
H893 C889 0.950 . S
H894 C891 0.950 . S
C895 C886 1.390 1_454 S
C895 H888 0.950 . S
C895 C892 1.387 . S
C577 C4 1.307 . S
C582 C256 1.309 . S
C587 C40 1.309 . S
C592 C148 1.307 . S
C597 C184 1.309 . S
C602 C76 1.307 . S
C607 C112 1.307 . S
C612 C220 1.309 . S
C617 C292 1.309 . S
C622 C544 1.307 . S
C627 C436 1.307 . S
C632 C328 1.309 . S
C637 C472 1.309 . S
C642 C364 1.307 . S
C647 C508 1.309 . S
C652 C400 1.307 . S
C657 C3 1.412 . S
C662 C398 1.435 . S
C667 C39 1.413 . S
C672 C290 1.435 . S
C677 C326 1.436 . S
C682 C75 1.413 . S
C687 C111 1.412 . S
C692 C362 1.436 . S
C697 C147 1.412 . S
C702 C470 1.435 . S
C707 C506 1.435 . S
C712 C183 1.414 . S
C717 C219 1.414 . S
C722 C542 1.435 . S
C727 C434 1.436 . S
C732 C255 1.413 . S
C737 C291 1.412 . S
C742 C110 1.435 . S
C747 C2 1.435 . S
C752 C327 1.413 . S
C757 C363 1.412 . S
C762 C38 1.435 . S
C767 C74 1.435 . S
C772 C399 1.414 . S
C777 C435 1.413 . S
C782 C182 1.436 . S
C787 C218 1.435 . S
C792 C471 1.413 . S
C797 C254 1.435 . S
C802 C507 1.412 . S
C807 C146 1.435 . S
C812 C543 1.412 . S
C817 C158 1.533 . S
C822 C14 1.533 . S
C827 C194 1.536 . S
C832 C50 1.536 . S
C837 C86 1.536 . S
C842 C230 1.536 . S
C847 C266 1.536 . S
C852 C122 1.536 . S
C857 C446 1.536 . S
C862 C302 1.536 . S
C867 C482 1.536 . S
C872 C338 1.536 . S
C877 C374 1.533 . S
C882 C518 1.533 . S
C887 C554 1.536 . S
C892 C410 1.536 . S
