# Generated by pormake.
# Topology wir, (6)-cn, num edge types: 1
# Building blocks:
#     Node 0, Type 0, BuildingBlock: GEDQOX_clean_sbu_0, # of connection points: 6
#     Node 1, Type 0, BuildingBlock: GEDQOX_clean_sbu_0, # of connection points: 6
#     Node 2, Type 0, BuildingBlock: GEDQOX_clean_sbu_0, # of connection points: 6
#     Node 3, Type 0, BuildingBlock: GEDQOX_clean_sbu_0, # of connection points: 6
#     Node 4, Type 0, BuildingBlock: GEDQOX_clean_sbu_0, # of connection points: 6
#     Node 5, Type 0, BuildingBlock: GEDQOX_clean_sbu_0, # of connection points: 6
#     Node 6, Type 0, BuildingBlock: GEDQOX_clean_sbu_0, # of connection points: 6
#     Node 7, Type 0, BuildingBlock: GEDQOX_clean_sbu_0, # of connection points: 6
#     Node 8, Type 0, BuildingBlock: GEDQOX_clean_sbu_0, # of connection points: 6
#     Node 9, Type 0, BuildingBlock: GEDQOX_clean_sbu_0, # of connection points: 6
#     Node 10, Type 0, BuildingBlock: GEDQOX_clean_sbu_0, # of connection points: 6
#     Node 11, Type 0, BuildingBlock: GEDQOX_clean_sbu_0, # of connection points: 6
#     Node 12, Type 0, BuildingBlock: GEDQOX_clean_sbu_0, # of connection points: 6
#     Node 13, Type 0, BuildingBlock: GEDQOX_clean_sbu_0, # of connection points: 6
#     Node 14, Type 0, BuildingBlock: GEDQOX_clean_sbu_0, # of connection points: 6
#     Node 15, Type 0, BuildingBlock: GEDQOX_clean_sbu_0, # of connection points: 6
#     Node 16, Type 0, BuildingBlock: GEDQOX_clean_sbu_0, # of connection points: 6
#     Node 17, Type 0, BuildingBlock: GEDQOX_clean_sbu_0, # of connection points: 6
#     Node 18, Type 0, BuildingBlock: GEDQOX_clean_sbu_0, # of connection points: 6
#     Node 19, Type 0, BuildingBlock: GEDQOX_clean_sbu_0, # of connection points: 6
#     Node 20, Type 0, BuildingBlock: GEDQOX_clean_sbu_0, # of connection points: 6
#     Node 21, Type 0, BuildingBlock: GEDQOX_clean_sbu_0, # of connection points: 6
#     Node 22, Type 0, BuildingBlock: GEDQOX_clean_sbu_0, # of connection points: 6
#     Node 23, Type 0, BuildingBlock: GEDQOX_clean_sbu_0, # of connection points: 6
#     Node 24, Type 0, BuildingBlock: GEDQOX_clean_sbu_0, # of connection points: 6
#     Node 25, Type 0, BuildingBlock: GEDQOX_clean_sbu_0, # of connection points: 6
#     Node 26, Type 0, BuildingBlock: GEDQOX_clean_sbu_0, # of connection points: 6
#     Node 27, Type 0, BuildingBlock: GEDQOX_clean_sbu_0, # of connection points: 6
#     Node 28, Type 0, BuildingBlock: GEDQOX_clean_sbu_0, # of connection points: 6
#     Node 29, Type 0, BuildingBlock: GEDQOX_clean_sbu_0, # of connection points: 6
#     Node 30, Type 0, BuildingBlock: GEDQOX_clean_sbu_0, # of connection points: 6
#     Node 31, Type 0, BuildingBlock: GEDQOX_clean_sbu_0, # of connection points: 6
#     Edge 32, Type (0, 0), BuildingBlock: KIFKEQ_clean_linker_1, # of connection points: 2
#     Edge 33, Type (0, 0), BuildingBlock: KIFKEQ_clean_linker_1, # of connection points: 2
#     Edge 34, Type (0, 0), BuildingBlock: KIFKEQ_clean_linker_1, # of connection points: 2
#     Edge 35, Type (0, 0), BuildingBlock: KIFKEQ_clean_linker_1, # of connection points: 2
#     Edge 36, Type (0, 0), BuildingBlock: KIFKEQ_clean_linker_1, # of connection points: 2
#     Edge 37, Type (0, 0), BuildingBlock: KIFKEQ_clean_linker_1, # of connection points: 2
#     Edge 38, Type (0, 0), BuildingBlock: KIFKEQ_clean_linker_1, # of connection points: 2
#     Edge 39, Type (0, 0), BuildingBlock: KIFKEQ_clean_linker_1, # of connection points: 2
#     Edge 40, Type (0, 0), BuildingBlock: KIFKEQ_clean_linker_1, # of connection points: 2
#     Edge 41, Type (0, 0), BuildingBlock: KIFKEQ_clean_linker_1, # of connection points: 2
#     Edge 42, Type (0, 0), BuildingBlock: KIFKEQ_clean_linker_1, # of connection points: 2
#     Edge 43, Type (0, 0), BuildingBlock: KIFKEQ_clean_linker_1, # of connection points: 2
#     Edge 44, Type (0, 0), BuildingBlock: KIFKEQ_clean_linker_1, # of connection points: 2
#     Edge 45, Type (0, 0), BuildingBlock: KIFKEQ_clean_linker_1, # of connection points: 2
#     Edge 46, Type (0, 0), BuildingBlock: KIFKEQ_clean_linker_1, # of connection points: 2
#     Edge 47, Type (0, 0), BuildingBlock: KIFKEQ_clean_linker_1, # of connection points: 2
#     Edge 48, Type (0, 0), BuildingBlock: KIFKEQ_clean_linker_1, # of connection points: 2
#     Edge 49, Type (0, 0), BuildingBlock: KIFKEQ_clean_linker_1, # of connection points: 2
#     Edge 50, Type (0, 0), BuildingBlock: KIFKEQ_clean_linker_1, # of connection points: 2
#     Edge 51, Type (0, 0), BuildingBlock: KIFKEQ_clean_linker_1, # of connection points: 2
#     Edge 52, Type (0, 0), BuildingBlock: KIFKEQ_clean_linker_1, # of connection points: 2
#     Edge 53, Type (0, 0), BuildingBlock: KIFKEQ_clean_linker_1, # of connection points: 2
#     Edge 54, Type (0, 0), BuildingBlock: KIFKEQ_clean_linker_1, # of connection points: 2
#     Edge 55, Type (0, 0), BuildingBlock: KIFKEQ_clean_linker_1, # of connection points: 2
#     Edge 56, Type (0, 0), BuildingBlock: KIFKEQ_clean_linker_1, # of connection points: 2
#     Edge 57, Type (0, 0), BuildingBlock: KIFKEQ_clean_linker_1, # of connection points: 2
#     Edge 58, Type (0, 0), BuildingBlock: KIFKEQ_clean_linker_1, # of connection points: 2
#     Edge 59, Type (0, 0), BuildingBlock: KIFKEQ_clean_linker_1, # of connection points: 2
#     Edge 60, Type (0, 0), BuildingBlock: KIFKEQ_clean_linker_1, # of connection points: 2
#     Edge 61, Type (0, 0), BuildingBlock: KIFKEQ_clean_linker_1, # of connection points: 2
#     Edge 62, Type (0, 0), BuildingBlock: KIFKEQ_clean_linker_1, # of connection points: 2
#     Edge 63, Type (0, 0), BuildingBlock: KIFKEQ_clean_linker_1, # of connection points: 2
#     Edge 64, Type (0, 0), BuildingBlock: KIFKEQ_clean_linker_1, # of connection points: 2
#     Edge 65, Type (0, 0), BuildingBlock: KIFKEQ_clean_linker_1, # of connection points: 2
#     Edge 66, Type (0, 0), BuildingBlock: KIFKEQ_clean_linker_1, # of connection points: 2
#     Edge 67, Type (0, 0), BuildingBlock: KIFKEQ_clean_linker_1, # of connection points: 2
#     Edge 68, Type (0, 0), BuildingBlock: KIFKEQ_clean_linker_1, # of connection points: 2
#     Edge 69, Type (0, 0), BuildingBlock: KIFKEQ_clean_linker_1, # of connection points: 2
#     Edge 70, Type (0, 0), BuildingBlock: KIFKEQ_clean_linker_1, # of connection points: 2
#     Edge 71, Type (0, 0), BuildingBlock: KIFKEQ_clean_linker_1, # of connection points: 2
#     Edge 72, Type (0, 0), BuildingBlock: KIFKEQ_clean_linker_1, # of connection points: 2
#     Edge 73, Type (0, 0), BuildingBlock: KIFKEQ_clean_linker_1, # of connection points: 2
#     Edge 74, Type (0, 0), BuildingBlock: KIFKEQ_clean_linker_1, # of connection points: 2
#     Edge 75, Type (0, 0), BuildingBlock: KIFKEQ_clean_linker_1, # of connection points: 2
#     Edge 76, Type (0, 0), BuildingBlock: KIFKEQ_clean_linker_1, # of connection points: 2
#     Edge 77, Type (0, 0), BuildingBlock: KIFKEQ_clean_linker_1, # of connection points: 2
#     Edge 78, Type (0, 0), BuildingBlock: KIFKEQ_clean_linker_1, # of connection points: 2
#     Edge 79, Type (0, 0), BuildingBlock: KIFKEQ_clean_linker_1, # of connection points: 2
#     Edge 80, Type (0, 0), BuildingBlock: KIFKEQ_clean_linker_1, # of connection points: 2
#     Edge 81, Type (0, 0), BuildingBlock: KIFKEQ_clean_linker_1, # of connection points: 2
#     Edge 82, Type (0, 0), BuildingBlock: KIFKEQ_clean_linker_1, # of connection points: 2
#     Edge 83, Type (0, 0), BuildingBlock: KIFKEQ_clean_linker_1, # of connection points: 2
#     Edge 84, Type (0, 0), BuildingBlock: KIFKEQ_clean_linker_1, # of connection points: 2
#     Edge 85, Type (0, 0), BuildingBlock: KIFKEQ_clean_linker_1, # of connection points: 2
#     Edge 86, Type (0, 0), BuildingBlock: KIFKEQ_clean_linker_1, # of connection points: 2
#     Edge 87, Type (0, 0), BuildingBlock: KIFKEQ_clean_linker_1, # of connection points: 2
#     Edge 88, Type (0, 0), BuildingBlock: KIFKEQ_clean_linker_1, # of connection points: 2
#     Edge 89, Type (0, 0), BuildingBlock: KIFKEQ_clean_linker_1, # of connection points: 2
#     Edge 90, Type (0, 0), BuildingBlock: KIFKEQ_clean_linker_1, # of connection points: 2
#     Edge 91, Type (0, 0), BuildingBlock: KIFKEQ_clean_linker_1, # of connection points: 2
#     Edge 92, Type (0, 0), BuildingBlock: KIFKEQ_clean_linker_1, # of connection points: 2
#     Edge 93, Type (0, 0), BuildingBlock: KIFKEQ_clean_linker_1, # of connection points: 2
#     Edge 94, Type (0, 0), BuildingBlock: KIFKEQ_clean_linker_1, # of connection points: 2
#     Edge 95, Type (0, 0), BuildingBlock: KIFKEQ_clean_linker_1, # of connection points: 2
#     Edge 96, Type (0, 0), BuildingBlock: KIFKEQ_clean_linker_1, # of connection points: 2
#     Edge 97, Type (0, 0), BuildingBlock: KIFKEQ_clean_linker_1, # of connection points: 2
#     Edge 98, Type (0, 0), BuildingBlock: KIFKEQ_clean_linker_1, # of connection points: 2
#     Edge 99, Type (0, 0), BuildingBlock: KIFKEQ_clean_linker_1, # of connection points: 2
#     Edge 100, Type (0, 0), BuildingBlock: KIFKEQ_clean_linker_1, # of connection points: 2
#     Edge 101, Type (0, 0), BuildingBlock: KIFKEQ_clean_linker_1, # of connection points: 2
#     Edge 102, Type (0, 0), BuildingBlock: KIFKEQ_clean_linker_1, # of connection points: 2
#     Edge 103, Type (0, 0), BuildingBlock: KIFKEQ_clean_linker_1, # of connection points: 2
#     Edge 104, Type (0, 0), BuildingBlock: KIFKEQ_clean_linker_1, # of connection points: 2
#     Edge 105, Type (0, 0), BuildingBlock: KIFKEQ_clean_linker_1, # of connection points: 2
#     Edge 106, Type (0, 0), BuildingBlock: KIFKEQ_clean_linker_1, # of connection points: 2
#     Edge 107, Type (0, 0), BuildingBlock: KIFKEQ_clean_linker_1, # of connection points: 2
#     Edge 108, Type (0, 0), BuildingBlock: KIFKEQ_clean_linker_1, # of connection points: 2
#     Edge 109, Type (0, 0), BuildingBlock: KIFKEQ_clean_linker_1, # of connection points: 2
#     Edge 110, Type (0, 0), BuildingBlock: KIFKEQ_clean_linker_1, # of connection points: 2
#     Edge 111, Type (0, 0), BuildingBlock: KIFKEQ_clean_linker_1, # of connection points: 2
#     Edge 112, Type (0, 0), BuildingBlock: KIFKEQ_clean_linker_1, # of connection points: 2
#     Edge 113, Type (0, 0), BuildingBlock: KIFKEQ_clean_linker_1, # of connection points: 2
#     Edge 114, Type (0, 0), BuildingBlock: KIFKEQ_clean_linker_1, # of connection points: 2
#     Edge 115, Type (0, 0), BuildingBlock: KIFKEQ_clean_linker_1, # of connection points: 2
#     Edge 116, Type (0, 0), BuildingBlock: KIFKEQ_clean_linker_1, # of connection points: 2
#     Edge 117, Type (0, 0), BuildingBlock: KIFKEQ_clean_linker_1, # of connection points: 2
#     Edge 118, Type (0, 0), BuildingBlock: KIFKEQ_clean_linker_1, # of connection points: 2
#     Edge 119, Type (0, 0), BuildingBlock: KIFKEQ_clean_linker_1, # of connection points: 2
#     Edge 120, Type (0, 0), BuildingBlock: KIFKEQ_clean_linker_1, # of connection points: 2
#     Edge 121, Type (0, 0), BuildingBlock: KIFKEQ_clean_linker_1, # of connection points: 2
#     Edge 122, Type (0, 0), BuildingBlock: KIFKEQ_clean_linker_1, # of connection points: 2
#     Edge 123, Type (0, 0), BuildingBlock: KIFKEQ_clean_linker_1, # of connection points: 2
#     Edge 124, Type (0, 0), BuildingBlock: KIFKEQ_clean_linker_1, # of connection points: 2
#     Edge 125, Type (0, 0), BuildingBlock: KIFKEQ_clean_linker_1, # of connection points: 2
#     Edge 126, Type (0, 0), BuildingBlock: KIFKEQ_clean_linker_1, # of connection points: 2
#     Edge 127, Type (0, 0), BuildingBlock: KIFKEQ_clean_linker_1, # of connection points: 2
# Relax obj value: 0.552
# Max RMSD: 0.218
# Mean RMSD: 0.218
data_MOF--net-wir--node1-GEDQOX_clean_sbu_0--edge1-KIFKEQ_clean_linker_1
_symmetry_space_group_name_H-M    P1
_symmetry_Int_Tables_number       1
_symmetry_cell_setting            triclinic
loop_
_symmetry_equiv_pos_as_xyz
'x, y, z'
_cell_length_a     40.213441
_cell_length_b     40.194614
_cell_length_c     108.31801
_cell_angle_alpha  90.142484
_cell_angle_beta   90.158987
_cell_angle_gamma 89.845931
loop_
_atom_site_label
_atom_site_type_symbol
_atom_site_fract_x
_atom_site_fract_y
_atom_site_fract_z
_atom_type_partial_charge
Nd0 Nd 0.13258 0.10117 0.40559 0.0
Nd1 Nd 0.17413 0.13498 0.4022 0.0
C2 C 0.07275 0.07469 0.40301 0.0
C3 C 1.04078 0.09203 0.40352 0.0
C4 C 1.04056 0.12581 0.4067 0.0
C5 C 1.01077 0.14215 0.40902 0.0
C6 C 0.98043 0.12499 0.40824 0.0
C7 C 0.98059 0.09174 0.40402 0.0
C8 C 1.0107 0.07527 0.40174 0.0
C9 C 0.17913 0.06636 0.42121 0.0
C10 C 0.15063 0.13845 0.42914 0.0
C11 C 0.23228 0.15965 0.39545 0.0
C12 C 0.24297 0.18199 0.38571 0.0
C13 C 0.27561 0.19392 0.38559 0.0
C14 C 0.28589 0.21494 0.37612 0.0
C15 C 0.2636 0.22391 0.36668 0.0
C16 C 0.2308 0.21209 0.36694 0.0
C17 C 0.2205 0.19136 0.37644 0.0
C18 C 0.12365 0.18564 0.40326 0.0
C19 C 0.15702 0.0916 0.37767 0.0
O20 O 0.09148 0.08264 0.39369 0.0
O21 O 0.08922 0.07462 0.41338 0.0
O22 O 0.14717 0.06817 0.42248 0.0
O23 O 0.18685 0.08251 0.41117 0.0
O24 O 0.12336 0.13348 0.42285 0.0
O25 O 0.17841 0.13454 0.42315 0.0
O26 O 0.22107 0.13096 0.3917 0.0
O27 O 0.21365 0.17303 0.40392 0.0
O28 O 0.15323 0.18705 0.40797 0.0
O29 O 0.12052 0.15615 0.39836 0.0
O30 O 0.16402 0.12236 0.38092 0.0
O31 O 0.14881 0.07319 0.38719 0.0
H32 H 0.06361 0.13909 0.40814 0.0
H33 H 1.01199 0.16745 0.41245 0.0
H34 H 0.95761 0.07793 0.40316 0.0
H35 H 1.01053 0.04922 0.39915 0.0
H36 H 0.2931 0.18684 0.39275 0.0
H37 H 0.31135 0.2237 0.37604 0.0
H38 H 0.21308 0.21909 0.35985 0.0
H39 H 0.19507 0.18253 0.37653 0.0
Nd40 Nd 0.23971 0.87815 0.65626 0.0
Nd41 Nd 0.20598 0.9197 0.65229 0.0
C42 C 0.26758 0.81857 0.65402 0.0
C43 C 0.25254 0.78552 0.65263 0.0
C44 C 0.22165 0.78197 0.64666 0.0
C45 C 0.20286 0.75318 0.64835 0.0
C46 C 0.21451 0.72788 0.65614 0.0
C47 C 0.24701 0.72996 0.66094 0.0
C48 C 0.26586 0.75868 0.65922 0.0
C49 C 0.27353 0.92487 0.67202 0.0
C50 C 0.20157 0.89878 0.67946 0.0
C51 C 0.18208 0.97777 0.64487 0.0
C52 C 0.16118 0.98868 0.63468 0.0
C53 C 0.14963 1.0215 0.63428 0.0
C54 C 0.12961 1.03191 0.62448 0.0
C55 C 0.1211 1.00952 0.61499 0.0
C56 C 0.13296 0.97664 0.61546 0.0
C57 C 0.15272 0.96625 0.62528 0.0
C58 C 0.15564 0.86929 0.65349 0.0
C59 C 0.24966 0.90212 0.62815 0.0
O60 O 0.26371 0.83898 0.6448 0.0
O61 O 0.26205 0.83291 0.66461 0.0
O62 O 0.27209 0.89292 0.67329 0.0
O63 O 0.25783 0.93246 0.66183 0.0
O64 O 0.20733 0.87088 0.6736 0.0
O65 O 0.20488 0.92594 0.67306 0.0
O66 O 0.21125 0.96642 0.64174 0.0
O67 O 0.1675 0.9592 0.65305 0.0
O68 O 0.15395 0.89917 0.65794 0.0
O69 O 0.18521 0.86576 0.64877 0.0
O70 O 0.21878 0.90895 0.63117 0.0
O71 O 0.26781 0.89412 0.63783 0.0
H72 H 0.2109 0.80238 0.64149 0.0
H73 H 0.17812 0.75176 0.64443 0.0
H74 H 0.25656 0.71093 0.66707 0.0
H75 H 0.28958 0.76101 0.66391 0.0
H76 H 0.15597 1.03896 0.64154 0.0
H77 H 0.12045 0.05727 0.62442 0.0
H78 H 0.12722 0.959 0.60819 0.0
H79 H 0.16146 0.94075 0.62552 0.0
Nd80 Nd 0.46269 0.99168 0.9058 0.0
Nd81 Nd 0.42235 0.95655 0.9027 0.0
C82 C 0.51997 1.02299 0.90289 0.0
C83 C 0.554 1.00964 0.90264 0.0
C84 C 0.56086 0.97934 0.89663 0.0
C85 C 0.58987 0.9617 0.89939 0.0
C86 C 0.61207 0.97375 0.90837 0.0
C87 C 0.60679 1.00579 0.91332 0.0
C88 C 0.57799 1.02359 0.91045 0.0
C89 C 0.41549 1.02308 0.92221 0.0
C90 C 0.45217 0.95068 0.92881 0.0
C91 C 0.36362 0.93175 0.89658 0.0
C92 C 0.3519 0.90885 0.88712 0.0
C93 C 0.3193 0.89692 0.8875 0.0
C94 C 0.30806 0.87514 0.87836 0.0
C95 C 0.32941 0.86521 0.86877 0.0
C96 C 0.36216 0.87729 0.8685 0.0
C97 C 0.37337 0.89884 0.87766 0.0
C98 C 0.4732 0.90667 0.90298 0.0
C99 C 0.43723 0.99918 0.87796 0.0
O100 O 0.50067 1.01475 0.8937 0.0
O101 O 0.50506 1.02031 0.91349 0.0
O102 O 0.44747 1.02176 0.92346 0.0
O103 O 0.40824 1.00819 0.91186 0.0
O104 O 0.47762 0.95838 0.92201 0.0
O105 O 0.42286 0.95409 0.92379 0.0
O106 O 0.37472 0.96012 0.89252 0.0
O107 O 0.38283 0.91877 0.90497 0.0
O108 O 0.44342 0.9042 0.90738 0.0
O109 O 0.47646 0.93677 0.89861 0.0
O110 O 0.43162 0.96826 0.88132 0.0
O111 O 0.44466 1.01826 0.88741 0.0
H112 H 0.54272 0.96799 0.89054 0.0
H113 H 0.5936 0.93747 0.89522 0.0
H114 H 0.62314 1.01586 0.92035 0.0
H115 H 0.57309 0.04685 0.9152 0.0
H116 H 0.3026 0.90443 0.89483 0.0
H117 H 0.28282 0.86591 0.87885 0.0
H118 H 0.37899 0.87049 0.86112 0.0
H119 H 0.39871 0.90789 0.87731 0.0
Nd120 Nd 0.35053 0.2109 0.15603 0.0
Nd121 Nd 0.38486 0.16905 0.15251 0.0
C122 C 0.32286 0.27048 0.15362 0.0
C123 C 0.33818 0.30347 0.15255 0.0
C124 C 0.3695 0.30689 0.14696 0.0
C125 C 0.38834 0.33554 0.14896 0.0
C126 C 0.37627 0.36089 0.15665 0.0
C127 C 0.34349 0.35892 0.16111 0.0
C128 C 0.3246 0.33031 0.15909 0.0
C129 C 0.31588 0.16389 0.17134 0.0
C130 C 0.38757 0.19192 0.17957 0.0
C131 C 0.41091 0.11136 0.14562 0.0
C132 C 0.4331 0.10148 0.13567 0.0
C133 C 0.44443 0.06863 0.13484 0.0
C134 C 0.46474 0.05905 0.12503 0.0
C135 C 0.47358 0.08228 0.11594 0.0
C136 C 0.46249 0.1153 0.11694 0.0
C137 C 0.44246 0.12488 0.12678 0.0
C138 C 0.43457 0.22019 0.1536 0.0
C139 C 0.34092 0.18549 0.1281 0.0
O140 O 0.32741 0.25015 0.14439 0.0
O141 O 0.32745 0.256 0.16423 0.0
O142 O 0.31728 0.19584 0.17272 0.0
O143 O 0.33235 0.15637 0.16134 0.0
O144 O 0.38256 0.21939 0.17342 0.0
O145 O 0.38399 0.16427 0.17342 0.0
O146 O 0.38171 0.12178 0.14207 0.0
O147 O 0.42402 0.13035 0.15406 0.0
O148 O 0.43625 0.19088 0.15848 0.0
O149 O 0.40516 0.22284 0.1486 0.0
O150 O 0.37166 0.17816 0.13128 0.0
O151 O 0.32274 0.19461 0.13759 0.0
H152 H 0.38047 0.28648 0.14184 0.0
H153 H 0.41333 0.33687 0.14532 0.0
H154 H 0.33363 0.378 0.16717 0.0
H155 H 0.30057 0.32806 0.16351 0.0
H156 H 0.43731 0.0504 0.14169 0.0
H157 H 0.47292 1.0334 0.12439 0.0
H158 H 0.46939 0.13371 0.11012 0.0
H159 H 0.43404 0.15046 0.1274 0.0
Nd160 Nd 0.13121 0.99321 0.25623 0.0
Nd161 Nd 0.17313 0.9595 0.26007 0.0
C162 C 0.07164 1.0211 0.2583 0.0
C163 C 1.03863 1.00582 0.25932 0.0
C164 C 1.03509 0.97455 0.26494 0.0
C165 C 1.00643 0.95575 0.26294 0.0
C166 C 0.98116 0.96782 0.25521 0.0
C167 C 0.98327 1.00055 0.25069 0.0
C168 C 1.01191 1.01939 0.25271 0.0
C169 C 0.17806 1.02665 0.24049 0.0
C170 C 0.15034 0.9543 0.23306 0.0
C171 C 0.23147 0.93573 0.26721 0.0
C172 C 0.24245 0.91274 0.27674 0.0
C173 C 0.27489 0.91485 0.28134 0.0
C174 C 0.28492 0.89432 0.29101 0.0
C175 C 0.26252 0.87145 0.29615 0.0
C176 C 0.23008 0.86922 0.29138 0.0
C177 C 0.22004 0.88988 0.28178 0.0
C178 C 0.12289 0.90896 0.25913 0.0
C179 C 0.15552 1.00289 0.2844 0.0
O180 O 0.09173 1.01681 0.26762 0.0
O181 O 0.08638 1.01615 0.24777 0.0
O182 O 0.14616 1.02488 0.23908 0.0
O183 O 0.18545 1.01154 0.25079 0.0
O184 O 0.12287 0.96001 0.23913 0.0
O185 O 0.17793 0.95807 0.23922 0.0
O186 O 0.21912 0.96368 0.27126 0.0
O187 O 0.21394 0.92283 0.25828 0.0
O188 O 0.1527 0.90713 0.2547 0.0
O189 O 0.11935 0.93872 0.26376 0.0
O190 O 0.16302 0.97217 0.28125 0.0
O191 O 0.14689 1.02106 0.27481 0.0
H192 H 0.05542 0.96358 0.27012 0.0
H193 H 1.005 0.93078 0.26662 0.0
H194 H 0.96426 1.01039 0.2446 0.0
H195 H 1.01425 1.04339 0.24826 0.0
H196 H 0.29225 0.93273 0.27759 0.0
H197 H 0.30992 0.89684 0.29463 0.0
H198 H 0.21246 0.8515 0.29505 0.0
H199 H 0.19474 0.88825 0.27835 0.0
Nd200 Nd 0.34958 0.88219 0.50697 0.0
Nd201 Nd 0.38298 0.924 0.51111 0.0
C202 C 0.32273 0.8222 0.50869 0.0
C203 C 0.33844 0.78926 0.50953 0.0
C204 C 0.36999 0.78581 0.51501 0.0
C205 C 0.38897 0.75724 0.51288 0.0
C206 C 0.37678 0.73198 0.50517 0.0
C207 C 0.34386 0.73401 0.50079 0.0
C208 C 0.32485 0.76257 0.50293 0.0
C209 C 0.31495 0.92923 0.49154 0.0
C210 C 0.38737 0.90311 0.4839 0.0
C211 C 0.40719 0.98153 0.51897 0.0
C212 C 0.42872 0.99112 0.5292 0.0
C213 C 0.43999 1.02389 0.53023 0.0
C214 C 0.46039 1.03302 0.54011 0.0
C215 C 0.46958 1.00941 0.54907 0.0
C216 C 0.45812 0.97655 0.54794 0.0
C217 C 0.43797 0.96744 0.53804 0.0
C218 C 0.43372 0.87381 0.5097 0.0
C219 C 0.33934 0.90506 0.53518 0.0
O220 O 0.32682 0.84194 0.51813 0.0
O221 O 0.32739 0.83742 0.49824 0.0
O222 O 0.31682 0.89733 0.49009 0.0
O223 O 0.33083 0.93669 0.50171 0.0
O224 O 0.38246 0.87519 0.48975 0.0
O225 O 0.38324 0.93032 0.49027 0.0
O226 O 0.37811 0.97019 0.52212 0.0
O227 O 0.42119 0.9636 0.51041 0.0
O228 O 0.43504 0.90364 0.50525 0.0
O229 O 0.40424 0.87019 0.51447 0.0
O230 O 0.37004 0.91258 0.53216 0.0
O231 O 0.32127 0.897 0.5255 0.0
H232 H 0.38094 0.80612 0.52019 0.0
H233 H 0.4141 0.75588 0.51645 0.0
H234 H 0.33392 0.71502 0.49471 0.0
H235 H 0.30064 0.76486 0.49859 0.0
H236 H 0.43307 1.04233 0.5234 0.0
H237 H 0.46923 0.05841 0.54066 0.0
H238 H 0.46438 0.95794 0.55478 0.0
H239 H 0.42948 0.94196 0.53731 0.0
Nd240 Nd 0.46048 0.09607 0.75665 0.0
Nd241 Nd 0.41838 0.13009 0.76043 0.0
C242 C 0.52025 0.06848 0.7584 0.0
C243 C 0.55332 0.08399 0.75849 0.0
C244 C 0.55857 0.11414 0.76481 0.0
C245 C 0.58592 0.13397 0.76195 0.0
C246 C 0.60799 0.12424 0.7526 0.0
C247 C 0.60475 0.09236 0.74733 0.0
C248 C 0.57757 0.07238 0.75027 0.0
C249 C 0.41287 0.06182 0.74131 0.0
C250 C 0.44097 0.13401 0.73345 0.0
C251 C 0.36036 0.1551 0.76733 0.0
C252 C 0.34951 0.17964 0.77639 0.0
C253 C 0.31744 0.17758 0.78129 0.0
C254 C 0.3076 0.19947 0.79059 0.0
C255 C 0.32976 0.2237 0.79503 0.0
C256 C 0.36172 0.22603 0.78993 0.0
C257 C 0.37162 0.20397 0.7807 0.0
C258 C 0.46879 0.1805 0.75936 0.0
C259 C 0.43651 0.08677 0.78479 0.0
O260 O 0.50134 0.07428 0.76792 0.0
O261 O 0.50409 0.07146 0.74803 0.0
O262 O 0.44466 0.06376 0.7397 0.0
O263 O 0.40593 0.07744 0.75157 0.0
O264 O 0.46852 0.12918 0.7396 0.0
O265 O 0.41342 0.12973 0.73953 0.0
O266 O 0.37289 0.12786 0.77191 0.0
O267 O 0.37751 0.16649 0.75809 0.0
O268 O 0.43893 0.18222 0.75493 0.0
O269 O 0.47234 0.15087 0.76405 0.0
O270 O 0.42838 0.11731 0.78162 0.0
O271 O 0.44559 0.06858 0.77526 0.0
H272 H 0.54025 0.12369 0.77123 0.0
H273 H 0.58833 0.15813 0.7663 0.0
H274 H 0.62124 0.08418 0.74004 0.0
H275 H 0.57392 0.04926 0.74528 0.0
H276 H 0.30025 0.15872 0.77807 0.0
H277 H 0.28275 0.19742 0.79435 0.0
H278 H 0.37933 0.24427 0.79332 0.0
H279 H 0.39668 0.20553 0.77709 0.0
Nd280 Nd 0.24247 0.20692 1.00746 0.0
Nd281 Nd 0.20834 0.16547 1.01036 0.0
C282 C 0.271 0.26557 1.01073 0.0
C283 C 0.25504 0.29826 1.01033 0.0
C284 C 0.22088 0.29991 1.00784 0.0
C285 C 0.20589 0.33015 1.00507 0.0
C286 C 0.22487 0.35943 1.0047 0.0
C287 C 0.25846 0.35812 1.00848 0.0
C288 C 0.27357 0.32756 1.01116 0.0
C289 C 0.27541 0.16045 0.99117 0.0
C290 C 0.20248 0.19465 0.98421 0.0
C291 C 0.18402 0.10669 1.01651 0.0
C292 C 0.15956 0.0957 1.0255 0.0
C293 C 0.16086 0.06316 1.03002 0.0
C294 C 0.1393 0.05339 1.03938 0.0
C295 C 0.11623 0.07614 1.04431 0.0
C296 C 0.1146 0.10856 1.03952 0.0
C297 C 0.13626 0.11833 1.03023 0.0
C298 C 0.15754 0.21555 1.00998 0.0
C299 C 0.25133 0.18147 1.0351 0.0
O300 O 0.26169 0.24666 1.01982 0.0
O301 O 0.27105 0.24972 1.00023 0.0
O302 O 0.27327 0.19242 0.98993 0.0
O303 O 0.26056 0.15284 1.00145 0.0
O304 O 0.20903 0.22042 0.99108 0.0
O305 O 0.2067 0.16551 0.98924 0.0
O306 O 0.21124 0.11889 1.02122 0.0
O307 O 0.17254 0.12447 1.00742 0.0
O308 O 0.15579 0.18594 1.00532 0.0
O309 O 0.1873 0.21891 1.01465 0.0
O310 O 0.22048 0.1751 1.03175 0.0
O311 O 0.27005 0.18935 1.02566 0.0
H312 H 0.20624 0.27745 1.00717 0.0
H313 H 0.18017 0.32984 1.00208 0.0
H314 H 0.27363 0.38034 1.00852 0.0
H315 H 0.29994 0.32665 1.01321 0.0
H316 H 0.17904 1.0456 1.02651 0.0
H317 H 0.14136 1.02838 1.04301 0.0
H318 H 0.09676 0.12645 1.04302 0.0
H319 H 0.1352 0.1437 1.02687 0.0
Nd320 Nd 0.91994 0.96096 0.76032 0.0
Nd321 Nd 0.96195 0.99483 0.75672 0.0
C322 C 0.86082 0.93795 0.7668 0.0
C323 C 0.8492 0.91316 0.7756 0.0
C324 C 0.81727 0.916 0.7806 0.0
C325 C 0.8069 0.89393 0.78972 0.0
C326 C 0.8284 0.86872 0.79394 0.0
C327 C 0.86018 0.8656 0.78868 0.0
C328 C 0.87058 0.88778 0.77963 0.0
C329 C 0.9698 0.90993 0.76041 0.0
C330 C 0.93735 1.00401 0.7848 0.0
C331 C 1.02016 1.02503 0.75889 0.0
C332 C 0.05346 1.01001 0.7597 0.0
C333 C 0.05773 0.97906 0.76555 0.0
C334 C 0.08629 0.96014 0.7634 0.0
C335 C 0.11073 0.97172 0.75529 0.0
C336 C 0.10803 1.00416 0.75052 0.0
C337 C 0.07948 1.02315 0.75269 0.0
C338 C 0.91374 1.02506 0.74029 0.0
C339 C 0.95019 0.95 0.73451 0.0
O340 O 0.87423 0.96438 0.77167 0.0
O341 O 0.87762 0.92665 0.75742 0.0
O342 O 0.93955 0.90752 0.75643 0.0
O343 O 0.97403 0.94033 0.76439 0.0
O344 O 0.92989 0.97332 0.78159 0.0
O345 O 0.94599 1.02226 0.77529 0.0
O346 O 1.00048 1.01973 0.76819 0.0
O347 O 1.00514 1.02065 0.74835 0.0
O348 O 0.9451 1.02048 0.73827 0.0
O349 O 0.90796 1.01347 0.75129 0.0
O350 O 0.97571 0.95903 0.74112 0.0
O351 O 0.92079 0.95446 0.73933 0.0
H352 H 0.80067 0.93572 0.77764 0.0
H353 H 0.78244 0.89721 0.79371 0.0
H354 H 0.87711 0.84616 0.79162 0.0
H355 H 0.89546 0.88543 0.77591 0.0
H356 H 1.03796 0.96831 0.771 0.0
H357 H 0.08817 0.93541 0.76728 0.0
H358 H 0.12641 1.01358 0.74414 0.0
H359 H 0.07658 0.04685 0.74806 0.0
Nd360 Nd 0.88282 0.16925 0.51019 0.0
Nd361 Nd 0.84831 0.21107 0.50681 0.0
C362 C 0.90813 0.11085 0.5165 0.0
C363 C 0.93298 0.09939 0.52531 0.0
C364 C 0.93181 0.0666 0.52955 0.0
C365 C 0.95371 0.05615 0.53875 0.0
C366 C 0.97701 0.07845 0.54374 0.0
C367 C 0.97864 0.1111 0.53923 0.0
C368 C 0.95658 0.1216 0.5301 0.0
C369 C 0.93299 0.21997 0.50941 0.0
C370 C 0.83955 0.18645 0.53474 0.0
C371 C 0.821 0.27075 0.50907 0.0
C372 C 0.8382 0.30268 0.50829 0.0
C373 C 0.87201 0.30254 0.50525 0.0
C374 C 0.88842 0.33209 0.50276 0.0
C375 C 0.87131 0.36258 0.50324 0.0
C376 C 0.83793 0.36286 0.50724 0.0
C377 C 0.82139 0.33297 0.50969 0.0
C378 C 0.81449 0.16337 0.49132 0.0
C379 C 0.88616 0.194 0.4834 0.0
O380 O 0.88118 0.1232 0.52136 0.0
O381 O 0.91917 0.12856 0.50735 0.0
O382 O 0.93495 0.19022 0.50489 0.0
O383 O 0.90328 0.2232 0.51406 0.0
O384 O 0.87018 0.17879 0.53149 0.0
O385 O 0.82105 0.19525 0.52528 0.0
O386 O 0.8294 0.25248 0.51849 0.0
O387 O 0.82071 0.25377 0.49881 0.0
O388 O 0.81621 0.19524 0.48975 0.0
O389 O 0.83003 0.15657 0.50161 0.0
O390 O 0.881 0.22099 0.48982 0.0
O391 O 0.88225 0.16595 0.4892 0.0
H392 H 0.91354 0.04933 0.52594 0.0
H393 H 0.95224 1.03077 0.54205 0.0
H394 H 0.99617 0.12879 0.54305 0.0
H395 H 0.95743 0.14717 0.52697 0.0
H396 H 0.88532 0.27934 0.50408 0.0
H397 H 0.91378 0.33053 0.49947 0.0
H398 H 0.82414 0.38598 0.50783 0.0
H399 H 0.7953 0.33343 0.51214 0.0
Nd400 Nd 0.67257 0.13398 0.26044 0.0
Nd401 Nd 0.631 0.09936 0.25746 0.0
C402 C 0.73152 0.15853 0.26642 0.0
C403 C 0.74319 0.18326 0.27526 0.0
C404 C 0.7758 0.18149 0.27973 0.0
C405 C 0.78629 0.20328 0.28897 0.0
C406 C 0.76419 0.22709 0.29382 0.0
C407 C 0.73171 0.22923 0.28907 0.0
C408 C 0.72122 0.20732 0.27989 0.0
C409 C 0.62213 0.18442 0.26023 0.0
C410 C 0.6575 0.09045 0.28508 0.0
C411 C 0.5726 0.07029 0.26051 0.0
C412 C 0.53998 0.0864 0.26013 0.0
C413 C 0.53863 0.12066 0.2579 0.0
C414 C 0.50852 0.13616 0.25537 0.0
C415 C 0.47893 0.11766 0.255 0.0
C416 C 0.48001 0.08376 0.25837 0.0
C417 C 0.51049 0.06813 0.26082 0.0
C418 C 0.67773 0.0675 0.24102 0.0
C419 C 0.64248 0.14015 0.23439 0.0
O420 O 0.71937 0.13156 0.27126 0.0
O421 O 0.71344 0.16975 0.25735 0.0
O422 O 0.65181 0.18654 0.25574 0.0
O423 O 0.61887 0.1545 0.26473 0.0
O424 O 0.66394 0.12134 0.28182 0.0
O425 O 0.64902 0.07187 0.27562 0.0
O426 O 0.59153 0.07943 0.26967 0.0
O427 O 0.58845 0.07046 0.25004 0.0
O428 O 0.64578 0.06953 0.2397 0.0
O429 O 0.68508 0.08175 0.25148 0.0
O430 O 0.61695 0.13304 0.24125 0.0
O431 O 0.67179 0.13614 0.23934 0.0
H432 H 0.79286 0.16275 0.27628 0.0
H433 H 0.81132 0.2008 0.29258 0.0
H434 H 0.71431 0.24763 0.29252 0.0
H435 H 0.69581 0.20878 0.27657 0.0
H436 H 0.5612 0.13509 0.25729 0.0
H437 H 0.50911 0.16204 0.25263 0.0
H438 H 0.45761 0.06887 0.25837 0.0
H439 H 0.51116 1.04165 0.26264 0.0
Nd440 Nd 0.70828 0.92756 1.00983 0.0
Nd441 Nd 0.74286 0.88597 1.00688 0.0
C442 C 0.68351 0.98641 1.01592 0.0
C443 C 0.65865 0.99754 1.02478 0.0
C444 C 0.66038 1.02976 1.02964 0.0
C445 C 0.63865 1.03949 1.03899 0.0
C446 C 0.61497 1.01702 1.04356 0.0
C447 C 0.61281 0.985 1.0384 0.0
C448 C 0.63465 0.97525 1.02912 0.0
C449 C 0.65787 0.87734 1.00964 0.0
C450 C 0.75105 0.91136 1.03466 0.0
C451 C 0.77204 0.82735 1.00976 0.0
C452 C 0.7563 0.79463 1.00924 0.0
C453 C 0.72209 0.79299 1.00687 0.0
C454 C 0.70716 0.76275 1.00411 0.0
C455 C 0.72621 0.7334 1.00365 0.0
C456 C 0.75997 0.73475 1.00723 0.0
C457 C 0.77502 0.76531 1.00989 0.0
C458 C 0.77509 0.93291 0.99066 0.0
C459 C 0.70222 0.89787 0.98373 0.0
O460 O 0.71058 0.97419 1.02076 0.0
O461 O 0.67248 0.96863 1.00673 0.0
O462 O 0.65576 0.90693 1.00503 0.0
O463 O 0.68784 0.87395 1.01413 0.0
O464 O 0.72033 0.91826 1.03124 0.0
O465 O 0.7699 0.90306 1.02527 0.0
O466 O 0.76281 0.84603 1.01898 0.0
O467 O 0.77172 0.84347 0.99934 0.0
O468 O 0.77303 0.90098 0.98927 0.0
O469 O 0.76062 0.94011 1.00109 0.0
O470 O 0.70908 0.87224 0.99062 0.0
O471 O 0.70637 0.92711 0.98873 0.0
H472 H 0.67909 0.04704 1.02644 0.0
H473 H 0.64113 0.06418 1.04291 0.0
H474 H 0.59449 0.96735 1.04162 0.0
H475 H 0.63323 0.95013 1.02551 0.0
H476 H 0.70729 0.81544 1.00633 0.0
H477 H 0.68132 0.76309 1.00128 0.0
H478 H 0.77523 0.71251 1.00721 0.0
H479 H 0.80144 0.76621 1.01184 0.0
Nd480 Nd 0.92239 0.13722 0.90256 0.0
Nd481 Nd 0.96227 0.10202 0.90576 0.0
C482 C 0.86403 0.16218 0.89597 0.0
C483 C 0.85298 0.18595 0.88669 0.0
C484 C 0.82079 0.1836 0.88186 0.0
C485 C 0.81089 0.20446 0.87226 0.0
C486 C 0.83315 0.22793 0.8674 0.0
C487 C 0.86526 0.23054 0.87246 0.0
C488 C 0.87518 0.20954 0.88199 0.0
C489 C 0.97301 0.18715 0.90288 0.0
C490 C 0.93737 0.09399 0.87788 0.0
C491 C 1.0195 0.07021 0.90294 0.0
C492 C 0.05357 0.08329 0.90285 0.0
C493 C 0.06066 0.11353 0.89693 0.0
C494 C 0.08969 0.13089 0.8998 0.0
C495 C 0.11169 0.1186 0.9088 0.0
C496 C 0.10614 0.08664 0.91369 0.0
C497 C 0.07733 0.06912 0.91071 0.0
C498 C 0.91488 0.07119 0.92213 0.0
C499 C 0.95154 0.14368 0.92872 0.0
O500 O 0.87586 0.13434 0.89161 0.0
O501 O 0.882 0.17417 0.90495 0.0
O502 O 0.94302 0.18981 0.90707 0.0
O503 O 0.97669 0.15679 0.89871 0.0
O504 O 0.93213 0.12509 0.8812 0.0
O505 O 0.94433 0.07506 0.8874 0.0
O506 O 1.00046 0.07869 0.89372 0.0
O507 O 1.00433 0.07291 0.91351 0.0
O508 O 0.94683 0.07256 0.92346 0.0
O509 O 0.90785 0.08577 0.91171 0.0
O510 O 0.97704 0.13544 0.92199 0.0
O511 O 0.92231 0.14044 0.92364 0.0
H512 H 0.80359 0.16517 0.88533 0.0
H513 H 0.78616 0.20158 0.86842 0.0
H514 H 0.88277 0.24869 0.86901 0.0
H515 H 0.9003 0.2114 0.88557 0.0
H516 H 1.0427 0.12506 0.8908 0.0
H517 H 0.09361 0.15508 0.89567 0.0
H518 H 0.12232 0.07639 0.92074 0.0
H519 H 0.07223 1.0459 0.9154 0.0
Nd520 Nd 0.70884 0.173 0.65233 0.0
Nd521 Nd 0.7431 0.2145 0.65594 0.0
C522 C 0.68594 0.11338 0.6463 0.0
C523 C 0.66099 0.1005 0.63777 0.0
C524 C 0.66337 0.06761 0.63361 0.0
C525 C 0.6411 0.05576 0.62477 0.0
C526 C 0.61616 0.07673 0.62003 0.0
C527 C 0.61343 0.10951 0.62444 0.0
C528 C 0.63585 0.12139 0.63322 0.0
C529 C 0.65814 0.22319 0.65185 0.0
C530 C 0.75134 0.18929 0.62782 0.0
C531 C 0.77491 0.27186 0.6539 0.0
C532 C 0.76077 0.30561 0.65333 0.0
C533 C 0.7315 0.31155 0.64652 0.0
C534 C 0.71192 0.33942 0.64906 0.0
C535 C 0.72103 0.36141 0.65856 0.0
C536 C 0.75234 0.35761 0.66424 0.0
C537 C 0.77207 0.32984 0.66164 0.0
C538 C 0.77243 0.16609 0.67248 0.0
C539 C 0.69753 0.2046 0.67796 0.0
O540 O 0.71187 0.12682 0.64116 0.0
O541 O 0.67476 0.13077 0.65556 0.0
O542 O 0.65538 0.19294 0.65575 0.0
O543 O 0.68876 0.22731 0.64815 0.0
O544 O 0.72065 0.18223 0.63104 0.0
O545 O 0.76986 0.19784 0.63733 0.0
O546 O 0.76871 0.25247 0.64453 0.0
O547 O 0.77057 0.25673 0.66438 0.0
O548 O 0.76765 0.1974 0.67461 0.0
O549 O 0.76129 0.16053 0.66138 0.0
O550 O 0.70731 0.22971 0.67133 0.0
O551 O 0.7016 0.17496 0.67326 0.0
H552 H 0.68281 0.05132 0.63704 0.0
H553 H 0.64351 1.03033 0.62155 0.0
H554 H 0.59468 0.12626 0.6208 0.0
H555 H 0.63399 0.14703 0.63627 0.0
H556 H 0.72215 0.29327 0.64003 0.0
H557 H 0.6882 0.34213 0.6444 0.0
H558 H 0.76004 0.37402 0.67165 0.0
H559 H 0.7945 0.32569 0.66699 0.0
Nd560 Nd 0.67337 0.95609 0.40247 0.0
Nd561 Nd 0.63219 0.99071 0.40544 0.0
C562 C 0.73203 0.93131 0.39616 0.0
C563 C 0.74345 0.9075 0.38691 0.0
C564 C 0.77545 0.91057 0.38202 0.0
C565 C 0.78553 0.88991 0.37237 0.0
C566 C 0.76369 0.8659 0.36755 0.0
C567 C 0.73189 0.86239 0.37269 0.0
C568 C 0.72173 0.88322 0.38227 0.0
C569 C 0.62311 0.90571 0.40273 0.0
C570 C 0.65817 0.99972 0.37787 0.0
C571 C 0.57377 1.01997 0.40216 0.0
C572 C 0.54102 1.00432 0.40251 0.0
C573 C 0.53928 0.97015 0.40487 0.0
C574 C 0.509 0.9553 0.40751 0.0
C575 C 0.47971 0.97443 0.40787 0.0
C576 C 0.48115 1.00814 0.40428 0.0
C577 C 0.51176 1.0231 0.40173 0.0
C578 C 0.6785 1.02286 0.42198 0.0
C579 C 0.64432 0.95022 0.4286 0.0
O580 O 0.72018 0.95907 0.39177 0.0
O581 O 0.71392 0.91935 0.40504 0.0
O582 O 0.65281 0.90362 0.40729 0.0
O583 O 0.6197 0.93562 0.39822 0.0
O584 O 0.66406 0.96867 0.38111 0.0
O585 O 0.65036 1.01838 0.38739 0.0
O586 O 0.59266 1.01039 0.39307 0.0
O587 O 0.58957 1.01989 0.41267 0.0
O588 O 0.64652 1.02101 0.42314 0.0
O589 O 0.68618 1.00815 0.41163 0.0
O590 O 0.61859 0.95742 0.42178 0.0
O591 O 0.67347 0.95398 0.42356 0.0
H592 H 0.79233 0.92939 0.38548 0.0
H593 H 0.81027 0.89286 0.36859 0.0
H594 H 0.7145 0.84431 0.36903 0.0
H595 H 0.69671 0.88089 0.38585 0.0
H596 H 0.56169 0.95533 0.40554 0.0
H597 H 0.50928 0.92951 0.41037 0.0
H598 H 0.45895 1.02345 0.40425 0.0
H599 H 0.51274 0.0495 0.39979 0.0
Nd600 Nd 0.88309 0.92358 0.15213 0.0
Nd601 Nd 0.84862 0.8828 0.15591 0.0
C602 C 0.90802 0.98114 0.14482 0.0
C603 C 0.92981 0.99118 0.13481 0.0
C604 C 0.9419 1.02375 0.13434 0.0
C605 C 0.96242 1.03341 0.12464 0.0
C606 C 0.97076 1.01056 0.1153 0.0
C607 C 0.95874 0.97786 0.11589 0.0
C608 C 0.93851 0.96818 0.12562 0.0
C609 C 0.93296 0.87253 0.1532 0.0
C610 C 0.83923 0.90724 0.12787 0.0
C611 C 0.81936 0.82406 0.15365 0.0
C612 C 0.83378 0.79045 0.15316 0.0
C613 C 0.8636 0.78461 0.14675 0.0
C614 C 0.88268 0.75641 0.14932 0.0
C615 C 0.87254 0.73408 0.15851 0.0
C616 C 0.84081 0.73795 0.16379 0.0
C617 C 0.82157 0.76599 0.16112 0.0
C618 C 0.81601 0.9302 0.17172 0.0
C619 C 0.88775 0.90127 0.17913 0.0
O620 O 0.87893 0.97019 0.14141 0.0
O621 O 0.92174 0.96267 0.15328 0.0
O622 O 0.93514 0.9025 0.15752 0.0
O623 O 0.90308 0.8691 0.14867 0.0
O624 O 0.87024 0.9132 0.13098 0.0
O625 O 0.82085 0.89971 0.13748 0.0
O626 O 0.82542 0.84345 0.14431 0.0
O627 O 0.82323 0.83931 0.16417 0.0
O628 O 0.81731 0.89827 0.17308 0.0
O629 O 0.83128 0.93734 0.16144 0.0
O630 O 0.88144 0.87383 0.17307 0.0
O631 O 0.88463 0.92886 0.17296 0.0
H632 H 0.93534 1.04166 0.14143 0.0
H633 H 0.97131 0.05881 0.12431 0.0
H634 H 0.96524 0.95972 0.10887 0.0
H635 H 0.92958 0.9428 0.12597 0.0
H636 H 0.87358 0.80309 0.14052 0.0
H637 H 0.90671 0.75357 0.14495 0.0
H638 H 0.83231 0.72129 0.17095 0.0
H639 H 0.79867 0.77006 0.16616 0.0
Nd640 Nd 0.63295 0.59769 0.90518 0.0
Nd641 Nd 0.67454 0.6315 0.90114 0.0
C642 C 0.57312 0.57045 0.90357 0.0
C643 C 0.53999 0.58602 0.90352 0.0
C644 C 0.53456 0.61612 0.89723 0.0
C645 C 0.50712 0.63597 0.90012 0.0
C646 C 0.48515 0.62631 0.90948 0.0
C647 C 0.48857 0.59446 0.91471 0.0
C648 C 0.51584 0.57446 0.91174 0.0
C649 C 0.68046 0.56326 0.92047 0.0
C650 C 0.6537 0.6357 0.9283 0.0
C651 C 0.73178 0.65647 0.89347 0.0
C652 C 0.74136 0.67884 0.88353 0.0
C653 C 0.77426 0.68975 0.88263 0.0
C654 C 0.78354 0.71076 0.87301 0.0
C655 C 0.75996 0.72089 0.86417 0.0
C656 C 0.72692 0.71001 0.86518 0.0
C657 C 0.71766 0.6892 0.87484 0.0
C658 C 0.62401 0.68197 0.90259 0.0
C659 C 0.65604 0.58741 0.87703 0.0
O660 O 0.59189 0.57601 0.894 0.0
O661 O 0.5894 0.5736 0.91391 0.0
O662 O 0.64862 0.56508 0.92199 0.0
O663 O 0.68764 0.57924 0.91033 0.0
O664 O 0.62582 0.6308 0.92237 0.0
O665 O 0.68092 0.6315 0.922 0.0
O666 O 0.72036 0.62766 0.88994 0.0
O667 O 0.71404 0.66977 0.90222 0.0
O668 O 0.65394 0.68354 0.90697 0.0
O669 O 0.62044 0.65236 0.89784 0.0
O670 O 0.66342 0.6182 0.88007 0.0
O671 O 0.6479 0.5694 0.88666 0.0
H672 H 0.5528 0.62561 0.89081 0.0
H673 H 0.50456 0.66011 0.8958 0.0
H674 H 0.47215 0.58634 0.92201 0.0
H675 H 0.51961 0.55136 0.9167 0.0
H676 H 0.79276 0.68187 0.88931 0.0
H677 H 0.80922 0.71861 0.87236 0.0
H678 H 0.70822 0.71783 0.85858 0.0
H679 H 0.69205 0.6811 0.8755 0.0
Nd680 Nd 0.74176 0.38213 0.15593 0.0
Nd681 Nd 0.7082 0.42286 0.15131 0.0
C682 C 0.77196 0.32349 0.15484 0.0
C683 C 0.75806 0.28975 0.15482 0.0
C684 C 0.72824 0.28293 0.14851 0.0
C685 C 0.71027 0.25418 0.15117 0.0
C686 C 0.72154 0.2322 0.16034 0.0
C687 C 0.75305 0.23753 0.16571 0.0
C688 C 0.77116 0.26608 0.16294 0.0
C689 C 0.77318 0.43081 0.1716 0.0
C690 C 0.70014 0.40213 0.17836 0.0
C691 C 0.68468 0.48038 0.14315 0.0
C692 C 0.66328 0.49019 0.13291 0.0
C693 C 0.65225 0.5231 0.13195 0.0
C694 C 0.63192 0.53249 0.12209 0.0
C695 C 0.62255 0.50901 0.11309 0.0
C696 C 0.63376 0.476 0.11415 0.0
C697 C 0.65386 0.46663 0.12403 0.0
C698 C 0.65775 0.37233 0.15249 0.0
C699 C 0.75189 0.40389 0.1275 0.0
O700 O 0.76584 0.34164 0.14516 0.0
O701 O 0.7676 0.33995 0.16506 0.0
O702 O 0.76911 0.39953 0.17388 0.0
O703 O 0.76044 0.43644 0.16069 0.0
O704 O 0.70712 0.37436 0.1726 0.0
O705 O 0.70416 0.42938 0.17206 0.0
O706 O 0.71357 0.46831 0.14001 0.0
O707 O 0.67041 0.46309 0.15177 0.0
O708 O 0.6554 0.40286 0.15624 0.0
O709 O 0.68787 0.36825 0.14831 0.0
O710 O 0.72086 0.41041 0.13037 0.0
O711 O 0.76997 0.39706 0.13733 0.0
H712 H 0.71756 0.30087 0.14218 0.0
H713 H 0.68643 0.25039 0.14671 0.0
H714 H 0.76244 0.22135 0.1729 0.0
H715 H 0.79403 0.27099 0.16793 0.0
H716 H 0.6593 0.54144 0.13881 0.0
H717 H 0.62326 0.55799 0.1216 0.0
H718 H 0.62733 0.45748 0.10727 0.0
H719 H 0.66217 0.44104 0.12471 0.0
Nd720 Nd 0.96176 0.49521 0.40541 0.0
Nd721 Nd 0.9214 0.46047 0.40168 0.0
C722 C 1.02029 0.52469 0.40327 0.0
C723 C 0.05399 0.5105 0.40307 0.0
C724 C 0.06043 0.48058 0.39675 0.0
C725 C 0.08905 0.46218 0.39941 0.0
C726 C 0.11123 0.47307 0.40859 0.0
C727 C 0.10641 0.50475 0.4139 0.0
C728 C 0.07802 0.52332 0.41113 0.0
C729 C 0.91391 0.5287 0.42087 0.0
C730 C 0.94482 0.45697 0.42867 0.0
C731 C 0.864 0.43463 0.3945 0.0
C732 C 0.85406 0.41215 0.38462 0.0
C733 C 0.82143 0.4003 0.38407 0.0
C734 C 0.81173 0.3795 0.37439 0.0
C735 C 0.83462 0.37062 0.36517 0.0
C736 C 0.86744 0.38228 0.36587 0.0
C737 C 0.87714 0.40283 0.37558 0.0
C738 C 0.97258 0.41068 0.40291 0.0
C739 C 0.9379 0.50398 0.3773 0.0
O740 O 1.00122 0.51788 0.39386 0.0
O741 O 1.0048 0.52144 0.41374 0.0
O742 O 0.94583 0.52757 0.42233 0.0
O743 O 0.90689 0.51244 0.41075 0.0
O744 O 0.97196 0.46273 0.42247 0.0
O745 O 0.91696 0.46045 0.42264 0.0
O746 O 0.87471 0.46359 0.3909 0.0
O747 O 0.88261 0.4216 0.40307 0.0
O748 O 0.94268 0.4086 0.40723 0.0
O749 O 0.97577 0.44046 0.39828 0.0
O750 O 0.93166 0.47306 0.38047 0.0
O751 O 0.94543 0.52257 0.3869 0.0
H752 H 1.04226 0.47011 0.39045 0.0
H753 H 0.09251 0.43825 0.39497 0.0
H754 H 0.12278 0.51391 0.42109 0.0
H755 H 0.07345 0.54628 0.41612 0.0
H756 H 0.80345 0.40737 0.39104 0.0
H757 H 0.78624 0.37092 0.37398 0.0
H758 H 0.88559 0.37539 0.35894 0.0
H759 H 0.90256 0.41163 0.37599 0.0
Nd760 Nd 0.8484 0.70835 0.6563 0.0
Nd761 Nd 0.8821 0.667 0.65189 0.0
C762 C 0.81841 0.76711 0.65508 0.0
C763 C 0.83271 0.80067 0.6547 0.0
C764 C 0.86241 0.80648 0.64823 0.0
C765 C 0.88135 0.83472 0.65079 0.0
C766 C 0.87118 0.85714 0.66 0.0
C767 C 0.83963 0.85318 0.66539 0.0
C768 C 0.82054 0.82508 0.66276 0.0
C769 C 0.81693 0.6597 0.67186 0.0
C770 C 0.88984 0.68914 0.67889 0.0
C771 C 0.90603 0.60918 0.64416 0.0
C772 C 0.92805 0.59931 0.63416 0.0
C773 C 0.93972 0.56656 0.63342 0.0
C774 C 0.96053 0.55712 0.62374 0.0
C775 C 0.96956 0.58039 0.61469 0.0
C776 C 0.95798 0.61327 0.61556 0.0
C777 C 0.93746 0.62272 0.62528 0.0
C778 C 0.9324 0.7176 0.65297 0.0
C779 C 0.83869 0.6858 0.62786 0.0
O780 O 0.82359 0.74829 0.64547 0.0
O781 O 0.82345 0.75122 0.66536 0.0
O782 O 0.82089 0.69102 0.67415 0.0
O783 O 0.82966 0.65403 0.66098 0.0
O784 O 0.88307 0.71668 0.67299 0.0
O785 O 0.88575 0.66161 0.6727 0.0
O786 O 0.8773 0.62109 0.64072 0.0
O787 O 0.91976 0.62674 0.65288 0.0
O788 O 0.93472 0.68733 0.65693 0.0
O789 O 0.90234 0.72143 0.64865 0.0
O790 O 0.86952 0.6786 0.63087 0.0
O791 O 0.82056 0.69348 0.63757 0.0
H792 H 0.87237 0.788 0.64195 0.0
H793 H 0.90527 0.83757 0.64635 0.0
H794 H 0.83114 0.86989 0.67259 0.0
H795 H 0.79777 0.82098 0.66785 0.0
H796 H 0.93263 0.54833 0.64027 0.0
H797 H 0.96908 0.53158 0.62319 0.0
H798 H 0.96502 0.63171 0.60878 0.0
H799 H 0.92888 0.64824 0.62585 0.0
Nd800 Nd 0.62984 0.48898 0.75606 0.0
Nd801 Nd 0.67024 0.45429 0.75957 0.0
C802 C 0.57317 0.52205 0.75852 0.0
C803 C 0.53893 0.50947 0.75876 0.0
C804 C 0.53159 0.47954 0.76486 0.0
C805 C 0.50234 0.4624 0.76215 0.0
C806 C 0.48035 0.47458 0.75312 0.0
C807 C 0.48615 0.50633 0.74807 0.0
C808 C 0.51521 0.52362 0.75089 0.0
C809 C 0.67769 0.51811 0.73944 0.0
C810 C 0.63938 0.44421 0.73373 0.0
C811 C 0.72918 0.43052 0.76614 0.0
C812 C 0.74051 0.40863 0.77598 0.0
C813 C 0.77375 0.39838 0.77647 0.0
C814 C 0.78471 0.37833 0.78617 0.0
C815 C 0.76248 0.36867 0.79548 0.0
C816 C 0.72905 0.37866 0.79481 0.0
C817 C 0.7181 0.39842 0.78509 0.0
C818 C 0.61979 0.40423 0.75962 0.0
C819 C 0.6546 0.49725 0.78406 0.0
O820 O 0.59207 0.51397 0.76782 0.0
O821 O 0.5883 0.51828 0.748 0.0
O822 O 0.6462 0.51418 0.73752 0.0
O823 O 0.68389 0.50612 0.75036 0.0
O824 O 0.61427 0.45435 0.74033 0.0
O825 O 0.66894 0.44741 0.7386 0.0
O826 O 0.71769 0.45923 0.76979 0.0
O827 O 0.71042 0.41672 0.75778 0.0
O828 O 0.64988 0.40135 0.75554 0.0
O829 O 0.61603 0.43472 0.76363 0.0
O830 O 0.66008 0.46616 0.78084 0.0
O831 O 0.64759 0.51601 0.77449 0.0
H832 H 0.54953 0.46803 0.771 0.0
H833 H 0.49827 0.43838 0.76638 0.0
H834 H 0.46999 0.51648 0.741 0.0
H835 H 0.5205 0.54659 0.74607 0.0
H836 H 0.79122 0.40615 0.76946 0.0
H837 H 0.81063 0.37099 0.78656 0.0
H838 H 0.71139 0.3711 0.80179 0.0
H839 H 0.69223 0.40597 0.78472 0.0
Nd840 Nd 0.84862 0.37715 1.00648 0.0
Nd841 Nd 0.88357 0.4178 1.00971 0.0
C842 C 0.81764 0.31957 1.00917 0.0
C843 C 0.83144 0.28569 1.0095 0.0
C844 C 0.86125 0.27915 1.01588 0.0
C845 C 0.8798 0.25068 1.01316 0.0
C846 C 0.86915 0.22872 1.00386 0.0
C847 C 0.83746 0.23345 0.99855 0.0
C848 C 0.81874 0.26171 1.00138 0.0
C849 C 0.81754 0.42421 0.9899 0.0
C850 C 0.89032 0.38804 0.98365 0.0
C851 C 0.908 0.47666 1.01591 0.0
C852 C 0.93014 0.48863 1.02558 0.0
C853 C 0.9416 0.52145 1.02535 0.0
C854 C 0.96235 0.53303 1.03475 0.0
C855 C 0.97154 0.51186 1.04449 0.0
C856 C 0.9602 0.47886 1.04459 0.0
C857 C 0.93972 0.46727 1.03516 0.0
C858 C 0.93348 0.36698 1.00957 0.0
C859 C 0.8407 0.40256 1.03439 0.0
O860 O 0.82516 0.33897 1.01842 0.0
O861 O 0.82067 0.33456 0.9986 0.0
O862 O 0.81903 0.39222 0.98869 0.0
O863 O 0.83207 0.43156 1.00032 0.0
O864 O 0.88264 0.36253 0.99044 0.0
O865 O 0.88657 0.41735 0.98863 0.0
O866 O 0.87933 0.46568 1.0197 0.0
O867 O 0.92159 0.45723 1.00772 0.0
O868 O 0.936 0.39677 1.00518 0.0
O869 O 0.90333 0.36369 1.01388 0.0
O870 O 0.87155 0.40861 1.03107 0.0
O871 O 0.82182 0.39478 1.02491 0.0
H872 H 0.87164 0.29725 1.02222 0.0
H873 H 0.90373 0.24729 1.01759 0.0
H874 H 0.82846 0.21721 0.99129 0.0
H875 H 0.79586 0.26634 0.99635 0.0
H876 H 0.93434 0.5381 1.01796 0.0
H877 H 0.97073 0.55862 1.03454 0.0
H878 H 0.96738 0.46197 1.05192 0.0
H879 H 0.93123 0.44172 1.03536 0.0
Nd880 Nd 0.96226 0.60147 0.25615 0.0
Nd881 Nd 0.92079 0.63578 0.25977 0.0
C882 C 1.02014 0.5704 0.25846 0.0
C883 C 0.05361 0.58477 0.25937 0.0
C884 C 0.05816 0.61588 0.2651 0.0
C885 C 0.08702 0.63416 0.26297 0.0
C886 C 0.11149 0.62177 0.25499 0.0
C887 C 0.10847 0.58914 0.25037 0.0
C888 C 0.07963 0.57079 0.25253 0.0
C889 C 0.91422 0.5715 0.2396 0.0
C890 C 0.95071 0.6459 0.23388 0.0
C891 C 0.86185 0.65931 0.2664 0.0
C892 C 0.85086 0.68211 0.27603 0.0
C893 C 0.81766 0.69248 0.27651 0.0
C894 C 0.8072 0.71396 0.28587 0.0
C895 C 0.8299 0.72518 0.29486 0.0
C896 C 0.86324 0.71473 0.29425 0.0
C897 C 0.87366 0.69346 0.28487 0.0
C898 C 0.97098 0.68617 0.25981 0.0
C899 C 0.93784 0.59288 0.28422 0.0
O900 O 1.00036 0.57618 0.26771 0.0
O901 O 1.00539 0.575 0.24789 0.0
O902 O 0.9457 0.57548 0.2377 0.0
O903 O 0.90816 0.5836 0.25053 0.0
O904 O 0.97624 0.63657 0.24045 0.0
O905 O 0.92136 0.64208 0.23878 0.0
O906 O 0.87394 0.63112 0.2703 0.0
O907 O 0.87991 0.6725 0.25776 0.0
O908 O 0.94084 0.68881 0.25571 0.0
O909 O 0.97484 0.65584 0.2639 0.0
O910 O 0.93106 0.62373 0.28103 0.0
O911 O 0.94581 0.57433 0.27466 0.0
H912 H 1.03839 0.62725 0.27043 0.0
H913 H 0.08911 0.65904 0.26674 0.0
H914 H 0.12685 0.57906 0.24408 0.0
H915 H 0.07651 0.54694 0.24799 0.0
H916 H 0.7999 0.68394 0.26967 0.0
H917 H 0.78146 0.72193 0.28604 0.0
H918 H 0.88118 0.72251 0.30115 0.0
H919 H 0.89945 0.68563 0.28457 0.0
Nd920 Nd 0.74278 0.7124 0.50672 0.0
Nd921 Nd 0.70774 0.67199 0.50983 0.0
C922 C 0.77372 0.76998 0.50961 0.0
C923 C 0.76016 0.80396 0.50975 0.0
C924 C 0.73002 0.8109 0.5158 0.0
C925 C 0.71208 0.83965 0.51294 0.0
C926 C 0.72366 0.8615 0.50382 0.0
C927 C 0.75557 0.85623 0.49883 0.0
C928 C 0.77368 0.8277 0.5018 0.0
C929 C 0.77413 0.66552 0.49017 0.0
C930 C 0.70141 0.701 0.4837 0.0
C931 C 0.68281 0.61366 0.51632 0.0
C932 C 0.66099 0.60273 0.52622 0.0
C933 C 0.64984 0.56981 0.52657 0.0
C934 C 0.62969 0.55923 0.53626 0.0
C935 C 0.62081 0.5815 0.54572 0.0
C936 C 0.63178 0.6146 0.54523 0.0
C937 C 0.65164 0.62518 0.53551 0.0
C938 C 0.65801 0.72295 0.50949 0.0
C939 C 0.75071 0.68721 0.53455 0.0
O940 O 0.76559 0.75087 0.51881 0.0
O941 O 0.77119 0.75475 0.49903 0.0
O942 O 0.77271 0.69752 0.48906 0.0
O943 O 0.75923 0.65797 0.50047 0.0
O944 O 0.70908 0.72664 0.49049 0.0
O945 O 0.70494 0.67178 0.48874 0.0
O946 O 0.7119 0.62429 0.51988 0.0
O947 O 0.66917 0.63291 0.50809 0.0
O948 O 0.65548 0.69315 0.50503 0.0
O949 O 0.68809 0.72618 0.51392 0.0
O950 O 0.71976 0.68172 0.53118 0.0
O951 O 0.76968 0.69446 0.5251 0.0
H952 H 0.71899 0.79297 0.52201 0.0
H953 H 0.68796 0.84342 0.51715 0.0
H954 H 0.76529 0.87233 0.4917 0.0
H955 H 0.79682 0.82275 0.49702 0.0
H956 H 0.65692 0.55229 0.51942 0.0
H957 H 0.6216 0.53355 0.5365 0.0
H958 H 0.62484 0.63232 0.55233 0.0
H959 H 0.65986 0.65081 0.53527 0.0
Nd960 Nd 0.419 0.45829 0.26007 0.0
Nd961 Nd 0.46035 0.49211 0.25624 0.0
C962 C 0.36086 0.43483 0.2673 0.0
C963 C 0.35021 0.41198 0.27689 0.0
C964 C 0.31778 0.414 0.28146 0.0
C965 C 0.30809 0.39366 0.2912 0.0
C966 C 0.33081 0.37108 0.29645 0.0
C967 C 0.36323 0.36895 0.29171 0.0
C968 C 0.37293 0.38941 0.28203 0.0
C969 C 0.46932 0.4076 0.25928 0.0
C970 C 0.43666 0.50137 0.28442 0.0
C971 C 0.51943 0.52071 0.25842 0.0
C972 C 0.55274 0.50589 0.25944 0.0
C973 C 0.55701 0.47477 0.26514 0.0
C974 C 0.58596 0.45631 0.26312 0.0
C975 C 0.61071 0.46854 0.25527 0.0
C976 C 0.60791 0.5012 0.25072 0.0
C977 C 0.57903 0.51972 0.25277 0.0
C978 C 0.41299 0.52519 0.24042 0.0
C979 C 0.44168 0.45273 0.23312 0.0
O980 O 0.37324 0.4628 0.27129 0.0
O981 O 0.37818 0.42178 0.25837 0.0
O982 O 0.43927 0.40559 0.25504 0.0
O983 O 0.47317 0.43761 0.26364 0.0
O984 O 0.42961 0.47061 0.28125 0.0
O985 O 0.44461 0.51972 0.27484 0.0
O986 O 0.49951 0.51603 0.26771 0.0
O987 O 0.5047 0.5157 0.24786 0.0
O988 O 0.44485 0.52328 0.23897 0.0
O989 O 0.40601 0.51038 0.25081 0.0
O990 O 0.4691 0.45873 0.23922 0.0
O991 O 0.41407 0.45642 0.23922 0.0
H992 H 0.30018 0.43167 0.27763 0.0
H993 H 0.28308 0.39612 0.29479 0.0
H994 H 0.38109 0.35145 0.29546 0.0
H995 H 0.39822 0.38786 0.27864 0.0
H996 H 0.53704 0.46361 0.27037 0.0
H997 H 0.58793 0.43143 0.26686 0.0
H998 H 0.62649 0.51119 0.24454 0.0
H999 H 0.57612 0.54362 0.24828 0.0
Nd1000 Nd 0.38404 0.67551 1.00998 0.0
Nd1001 Nd 0.34982 0.71661 1.00635 0.0
C1002 C 0.40671 0.61584 1.01612 0.0
C1003 C 0.4314 0.60281 1.02472 0.0
C1004 C 0.42867 0.57004 1.0289 0.0
C1005 C 0.45077 0.55802 1.03777 0.0
C1006 C 0.47588 0.5787 1.04251 0.0
C1007 C 0.47892 0.61137 1.0381 0.0
C1008 C 0.45668 0.62343 1.02929 0.0
C1009 C 0.43481 0.72537 1.0104 0.0
C1010 C 0.34138 0.69192 1.03447 0.0
C1011 C 0.31738 0.77378 1.0084 0.0
C1012 C 0.33084 0.80773 1.00862 0.0
C1013 C 0.3603 0.81466 1.01516 0.0
C1014 C 0.37867 0.84312 1.01247 0.0
C1015 C 0.36818 0.86474 1.00307 0.0
C1016 C 0.33685 0.85958 0.99754 0.0
C1017 C 0.31832 0.83128 1.00031 0.0
C1018 C 0.32099 0.6684 0.98961 0.0
C1019 C 0.39574 0.7067 0.98438 0.0
O1020 O 0.3807 0.62956 1.02118 0.0
O1021 O 0.41815 0.63302 1.0069 0.0
O1022 O 0.43762 0.6949 1.00667 0.0
O1023 O 0.40413 0.72988 1.01401 0.0
O1024 O 0.37223 0.68523 1.03129 0.0
O1025 O 0.32287 0.69994 1.0249 0.0
O1026 O 0.32469 0.75503 1.01781 0.0
O1027 O 0.32115 0.75813 0.99796 0.0
O1028 O 0.32584 0.69967 0.98754 0.0
O1029 O 0.33188 0.66278 1.00074 0.0
O1030 O 0.38549 0.73184 0.99097 0.0
O1031 O 0.39193 0.67711 0.98909 0.0
H1032 H 0.40912 0.55397 1.02546 0.0
H1033 H 0.44812 0.53267 1.041 0.0
H1034 H 0.49782 0.62789 1.04174 0.0
H1035 H 0.4588 0.64898 1.02623 0.0
H1036 H 0.37059 0.79688 1.02164 0.0
H1037 H 0.40235 0.84678 1.01706 0.0
H1038 H 0.32803 0.87553 0.99018 0.0
H1039 H 0.29575 0.82632 0.99515 0.0
Nd1040 Nd 0.17322 0.63679 0.7599 0.0
Nd1041 Nd 0.13199 0.6026 0.75606 0.0
C1042 C 0.23112 0.66122 0.76713 0.0
C1043 C 0.24151 0.68425 0.77677 0.0
C1044 C 0.27395 0.68252 0.78141 0.0
C1045 C 0.28328 0.7026 0.79133 0.0
C1046 C 0.26021 0.72464 0.79664 0.0
C1047 C 0.22787 0.72674 0.7918 0.0
C1048 C 0.2185 0.70649 0.78195 0.0
C1049 C 0.12254 0.687 0.75906 0.0
C1050 C 0.15585 0.59377 0.78424 0.0
C1051 C 0.07308 0.57374 0.75824 0.0
C1052 C 1.0398 0.58846 0.75945 0.0
C1053 C 1.0358 0.61969 0.76514 0.0
C1054 C 1.00672 0.63806 0.76327 0.0
C1055 C 0.98153 0.62562 0.75558 0.0
C1056 C 0.98412 0.59286 0.75106 0.0
C1057 C 1.01316 0.57444 0.75295 0.0
C1058 C 0.17943 0.56962 0.74029 0.0
C1059 C 0.15009 0.6415 0.7329 0.0
O1060 O 0.21929 0.63304 0.77107 0.0
O1061 O 0.21342 0.67395 0.75822 0.0
O1062 O 0.15236 0.68902 0.75467 0.0
O1063 O 0.11907 0.65713 0.76353 0.0
O1064 O 0.16283 0.62452 0.78108 0.0
O1065 O 0.14792 0.57527 0.77465 0.0
O1066 O 0.09332 0.5782 0.7675 0.0
O1067 O 0.08742 0.57911 0.74767 0.0
O1068 O 0.14752 0.5711 0.73885 0.0
O1069 O 0.18645 0.58471 0.75065 0.0
O1070 O 0.12278 0.63546 0.739 0.0
O1071 O 0.17779 0.63823 0.73904 0.0
H1072 H 0.29182 0.66524 0.77751 0.0
H1073 H 0.30843 0.70081 0.79488 0.0
H1074 H 0.2096 0.74329 0.79585 0.0
H1075 H 0.19317 0.70769 0.77854 0.0
H1076 H 0.05607 0.63099 0.77023 0.0
H1077 H 1.00496 0.66304 0.76697 0.0
H1078 H 0.9652 0.5827 0.745 0.0
H1079 H 1.01586 0.55046 0.74847 0.0
Nd1080 Nd 0.20595 0.42338 0.50939 0.0
Nd1081 Nd 0.24073 0.38196 0.50651 0.0
C1082 C 0.18122 0.48234 0.51537 0.0
C1083 C 0.15688 0.49382 0.52436 0.0
C1084 C 0.15893 0.52621 0.52903 0.0
C1085 C 0.13769 0.53636 0.53848 0.0
C1086 C 0.1142 0.51413 0.54333 0.0
C1087 C 0.11177 0.48189 0.53838 0.0
C1088 C 0.13312 0.47173 0.529 0.0
C1089 C 0.15571 0.3729 0.50935 0.0
C1090 C 0.24961 0.40868 0.53409 0.0
C1091 C 0.27015 0.3236 0.50972 0.0
C1092 C 0.25415 0.29098 0.50945 0.0
C1093 C 0.21995 0.28965 0.50709 0.0
C1094 C 0.20454 0.25946 0.50471 0.0
C1095 C 0.22308 0.22978 0.50464 0.0
C1096 C 0.25691 0.2309 0.50814 0.0
C1097 C 0.27245 0.26146 0.51044 0.0
C1098 C 0.27252 0.42856 0.49009 0.0
C1099 C 0.19979 0.3932 0.48335 0.0
O1100 O 0.20859 0.47038 0.52007 0.0
O1101 O 0.16973 0.46413 0.50637 0.0
O1102 O 0.15339 0.40249 0.50476 0.0
O1103 O 0.18577 0.36971 0.5138 0.0
O1104 O 0.21865 0.41488 0.53078 0.0
O1105 O 0.26822 0.40026 0.52465 0.0
O1106 O 0.26111 0.34274 0.51883 0.0
O1107 O 0.2697 0.33923 0.4992 0.0
O1108 O 0.2706 0.39658 0.4888 0.0
O1109 O 0.25809 0.436 0.50049 0.0
O1110 O 0.20714 0.36773 0.49025 0.0
O1111 O 0.20364 0.42256 0.48829 0.0
H1112 H 0.17747 0.54334 0.5256 0.0
H1113 H 0.14037 0.56121 0.54223 0.0
H1114 H 0.09358 0.46441 0.54182 0.0
H1115 H 0.13149 0.44647 0.52554 0.0
H1116 H 0.20551 0.31225 0.50625 0.0
H1117 H 0.17874 0.26002 0.50185 0.0
H1118 H 0.27181 0.20843 0.50836 0.0
H1119 H 0.29888 0.26213 0.51237 0.0
Nd1120 Nd 0.41969 0.63303 0.40199 0.0
Nd1121 Nd 0.46024 0.59841 0.40595 0.0
C1122 C 0.36186 0.65785 0.39472 0.0
C1123 C 0.3513 0.68017 0.38492 0.0
C1124 C 0.31867 0.69228 0.3847 0.0
C1125 C 0.30852 0.7135 0.37524 0.0
C1126 C 0.33096 0.72253 0.36592 0.0
C1127 C 0.36373 0.71046 0.36626 0.0
C1128 C 0.37389 0.6895 0.37575 0.0
C1129 C 0.47062 0.68283 0.40304 0.0
C1130 C 0.43681 0.58956 0.3777 0.0
C1131 C 0.51879 0.56842 0.40412 0.0
C1132 C 0.55251 0.58237 0.40396 0.0
C1133 C 0.55903 0.61216 0.39764 0.0
C1134 C 0.5877 0.63036 0.40029 0.0
C1135 C 0.60988 0.61938 0.40947 0.0
C1136 C 0.60492 0.58784 0.4148 0.0
C1137 C 0.57647 0.56948 0.41203 0.0
C1138 C 0.41232 0.5662 0.42157 0.0
C1139 C 0.44224 0.63813 0.429 0.0
O1140 O 0.37334 0.62913 0.39105 0.0
O1141 O 0.3801 0.67128 0.40332 0.0
O1142 O 0.44052 0.68531 0.40715 0.0
O1143 O 0.47423 0.65273 0.3987 0.0
O1144 O 0.43039 0.6205 0.38084 0.0
O1145 O 0.44423 0.57103 0.38731 0.0
O1146 O 0.49993 0.5749 0.39463 0.0
O1147 O 0.50309 0.57229 0.41452 0.0
O1148 O 0.44418 0.56755 0.42316 0.0
O1149 O 0.40561 0.58126 0.41119 0.0
O1150 O 0.46959 0.63164 0.42296 0.0
O1151 O 0.41462 0.6349 0.42282 0.0
H1152 H 0.3011 0.68523 0.39179 0.0
H1153 H 0.28308 0.72243 0.3751 0.0
H1154 H 0.38153 0.71748 0.35925 0.0
H1155 H 0.39931 0.68053 0.37592 0.0
H1156 H 0.54089 0.62267 0.39134 0.0
H1157 H 0.59124 0.65419 0.39585 0.0
H1158 H 0.62128 0.57864 0.42198 0.0
H1159 H 0.57182 0.54663 0.41702 0.0
Nd1160 Nd 0.20771 0.67053 0.15144 0.0
Nd1161 Nd 0.2411 0.71174 0.15576 0.0
C1162 C 0.18454 0.6128 0.14344 0.0
C1163 C 0.16197 0.60253 0.13363 0.0
C1164 C 0.16373 0.57008 0.129 0.0
C1165 C 0.14323 0.5605 0.11923 0.0
C1166 C 0.1207 0.58334 0.11402 0.0
C1167 C 0.119 0.61587 0.11876 0.0
C1168 C 0.13964 0.62545 0.12847 0.0
C1169 C 0.15669 0.72048 0.15275 0.0
C1170 C 0.25123 0.68925 0.12744 0.0
C1171 C 0.269 0.77125 0.15405 0.0
C1172 C 0.25385 0.80439 0.15297 0.0
C1173 C 0.22282 0.80825 0.14711 0.0
C1174 C 0.20409 0.83712 0.14899 0.0
C1175 C 0.21597 0.86222 0.15683 0.0
C1176 C 0.24851 0.85979 0.16157 0.0
C1177 C 0.26728 0.83097 0.15968 0.0
C1178 C 0.27449 0.66424 0.17136 0.0
C1179 C 0.20205 0.69098 0.17864 0.0
O1180 O 0.21257 0.6255 0.13974 0.0
O1181 O 0.1712 0.62958 0.15246 0.0
O1182 O 0.155 0.6902 0.15673 0.0
O1183 O 0.18655 0.72471 0.14839 0.0
O1184 O 0.22037 0.68224 0.1304 0.0
O1185 O 0.26931 0.69671 0.13719 0.0
O1186 O 0.2651 0.75134 0.14465 0.0
O1187 O 0.26359 0.75636 0.1645 0.0
O1188 O 0.27258 0.6961 0.17294 0.0
O1189 O 0.25958 0.65731 0.16094 0.0
O1190 O 0.20795 0.7189 0.1729 0.0
O1191 O 0.20578 0.66387 0.17219 0.0
H1192 H 0.18121 0.55231 0.13284 0.0
H1193 H 0.14539 0.53542 0.11564 0.0
H1194 H 0.10158 0.63385 0.11504 0.0
H1195 H 0.13828 0.65075 0.13192 0.0
H1196 H 0.21197 0.78805 0.14185 0.0
H1197 H 0.1793 0.8388 0.14512 0.0
H1198 H 0.25819 0.87867 0.16775 0.0
H1199 H 0.2911 0.82839 0.16429 0.0
Nd1200 Nd 0.17426 0.46245 0.90136 0.0
Nd1201 Nd 0.1326 0.49541 0.9057 0.0
C1202 C 0.23238 0.4394 0.89365 0.0
C1203 C 0.24299 0.41716 0.88379 0.0
C1204 C 0.276 0.40625 0.88329 0.0
C1205 C 0.28611 0.38483 0.87386 0.0
C1206 C 0.26323 0.37422 0.86485 0.0
C1207 C 0.23012 0.38539 0.86542 0.0
C1208 C 0.22005 0.4066 0.87487 0.0
C1209 C 0.12442 0.41118 0.90249 0.0
C1210 C 0.15515 0.50546 0.87734 0.0
C1211 C 0.0731 0.5238 0.90446 0.0
C1212 C 1.03976 0.50897 0.90452 0.0
C1213 C 1.03363 0.47893 0.89824 0.0
C1214 C 1.00541 0.46023 0.90097 0.0
C1215 C 0.98326 0.47096 0.91017 0.0
C1216 C 0.98787 0.50262 0.91552 0.0
C1217 C 1.01589 0.52146 0.91269 0.0
C1218 C 0.18028 0.52889 0.9212 0.0
C1219 C 0.15402 0.45549 0.92839 0.0
O1220 O 0.2197 0.46763 0.89005 0.0
O1221 O 0.21523 0.42559 0.90241 0.0
O1222 O 0.15474 0.40952 0.90649 0.0
O1223 O 0.12007 0.44111 0.89817 0.0
O1224 O 0.16261 0.4747 0.88032 0.0
O1225 O 0.14722 0.52352 0.88706 0.0
O1226 O 0.09141 0.5179 0.8948 0.0
O1227 O 0.08968 0.52027 0.9147 0.0
O1228 O 0.14897 0.5246 0.92335 0.0
O1229 O 0.18647 0.5154 0.91045 0.0
O1230 O 0.126 0.46107 0.9226 0.0
O1231 O 0.18106 0.4603 0.92209 0.0
H1232 H 0.29387 0.41419 0.8902 0.0
H1233 H 0.31167 0.37627 0.87372 0.0
H1234 H 0.21208 0.37801 0.8585 0.0
H1235 H 0.19439 0.41484 0.8752 0.0
H1236 H 0.05172 0.46872 0.89187 0.0
H1237 H 1.00214 0.43629 0.89653 0.0
H1238 H 0.97154 0.51162 0.92273 0.0
H1239 H 1.02027 0.54449 0.91765 0.0
Nd1240 Nd 0.38466 0.42674 0.65144 0.0
Nd1241 Nd 0.35029 0.38525 0.65458 0.0
C1242 C 0.40917 0.4852 0.64494 0.0
C1243 C 0.43338 0.49613 0.63581 0.0
C1244 C 0.43074 0.52805 0.63077 0.0
C1245 C 0.45214 0.53779 0.62135 0.0
C1246 C 0.47648 0.51567 0.61691 0.0
C1247 C 0.47939 0.48387 0.62215 0.0
C1248 C 0.45783 0.47408 0.63149 0.0
C1249 C 0.43518 0.37634 0.65176 0.0
C1250 C 0.34071 0.41065 0.62692 0.0
C1251 C 0.3218 0.32639 0.65181 0.0
C1252 C 0.33791 0.29381 0.65259 0.0
C1253 C 0.37203 0.29254 0.65518 0.0
C1254 C 0.38729 0.26253 0.65808 0.0
C1255 C 0.36868 0.233 0.65846 0.0
C1256 C 0.33501 0.23395 0.65475 0.0
C1257 C 0.31963 0.26431 0.65193 0.0
C1258 C 0.3182 0.43215 0.67093 0.0
C1259 C 0.39111 0.39826 0.67765 0.0
O1260 O 0.38172 0.47305 0.64041 0.0
O1261 O 0.42084 0.4676 0.65405 0.0
O1262 O 0.43725 0.40608 0.65629 0.0
O1263 O 0.40523 0.37295 0.64726 0.0
O1264 O 0.37165 0.41708 0.63014 0.0
O1265 O 0.32228 0.40261 0.63642 0.0
O1266 O 0.33121 0.34467 0.64255 0.0
O1267 O 0.32147 0.34303 0.66214 0.0
O1268 O 0.32031 0.4002 0.67223 0.0
O1269 O 0.33258 0.43947 0.66051 0.0
O1270 O 0.38423 0.37235 0.67089 0.0
O1271 O 0.3869 0.42731 0.67254 0.0
H1272 H 0.41178 0.5452 0.63398 0.0
H1273 H 0.44962 0.56251 0.61749 0.0
H1274 H 0.49769 0.46627 0.61877 0.0
H1275 H 0.45983 0.44911 0.63518 0.0
H1276 H 0.38649 0.31514 0.65574 0.0
H1277 H 0.41302 0.26318 0.66104 0.0
H1278 H 0.32009 0.21157 0.65472 0.0
H1279 H 0.29328 0.26491 0.64983 0.0
H1280 H 0.18718 0.10028 0.44418 0.0
H1281 H 0.11604 0.18061 0.44444 0.0
H1282 H 0.19738 0.10775 0.46602 0.0
H1283 H 0.12805 0.19013 0.46641 0.0
H1284 H 0.15849 0.20647 0.50511 0.0
H1285 H 0.13262 0.17363 0.48869 0.0
H1286 H 0.22981 0.15359 0.47341 0.0
H1287 H 0.25521 0.18679 0.48926 0.0
C1288 C 0.17317 0.11911 0.44901 0.0
C1289 C 0.15121 0.14013 0.44266 0.0
C1290 C 0.17906 0.12347 0.46154 0.0
C1291 C 0.16414 0.14997 0.46788 0.0
C1292 C 0.13984 0.16933 0.46178 0.0
C1293 C 0.13317 0.16419 0.4492 0.0
C1294 C 0.17434 0.19429 0.49841 0.0
C1295 C 0.20888 0.20022 0.49829 0.0
C1296 C 0.15947 0.17552 0.48902 0.0
C1297 C 0.17906 0.16166 0.47962 0.0
C1298 C 0.21388 0.1638 0.48053 0.0
C1299 C 0.22863 0.18287 0.48975 0.0
H1300 H 0.21019 0.95312 0.69358 0.0
H1301 H 0.18263 0.84948 0.69569 0.0
H1302 H 0.19835 0.96026 0.71514 0.0
H1303 H 0.17109 0.85647 0.71785 0.0
H1304 H 0.17781 0.97868 0.75193 0.0
H1305 H 0.21035 0.94998 0.73614 0.0
H1306 H 0.12725 0.88472 0.72887 0.0
H1307 H 0.09577 0.91211 0.74503 0.0
C1308 C 0.20187 0.93163 0.69873 0.0
C1309 C 0.19651 0.90092 0.69289 0.0
C1310 C 0.19569 0.93557 0.71124 0.0
C1311 C 0.18391 0.90889 0.71833 0.0
C1312 C 0.18003 0.87756 0.71263 0.0
C1313 C 0.1865 0.87354 0.69998 0.0
C1314 C 0.16723 0.95719 0.74733 0.0
C1315 C 0.13413 0.94808 0.74946 0.0
C1316 C 0.18569 0.94086 0.73824 0.0
C1317 C 0.17086 0.91598 0.73089 0.0
C1318 C 0.13944 0.90387 0.73426 0.0
C1319 C 0.12128 0.91971 0.74354 0.0
H1320 H 0.46565 0.89179 0.93973 0.0
H1321 H 0.44385 0.99488 0.94727 0.0
H1322 H 0.45641 0.87836 0.96139 0.0
H1323 H 0.43559 0.98203 0.96908 0.0
H1324 H 0.35637 0.92712 0.9938 0.0
H1325 H 0.38906 0.95411 0.97794 0.0
H1326 H 0.46759 0.88183 0.98319 0.0
H1327 H 0.43414 0.85376 0.99856 0.0
C1328 C 0.46022 0.9117 0.94619 0.0
C1329 C 0.45533 0.94419 0.942 0.0
C1330 C 0.45511 0.90419 0.95861 0.0
C1331 C 0.44495 0.92915 0.96698 0.0
C1332 C 0.44295 0.96222 0.96286 0.0
C1333 C 0.44782 0.96962 0.95042 0.0
C1334 C 0.38098 0.91753 0.99181 0.0
C1335 C 0.39212 0.88774 0.99717 0.0
C1336 C 0.39997 0.93321 0.98278 0.0
C1337 C 0.4306 0.91952 0.97905 0.0
C1338 C 0.44372 0.89245 0.98565 0.0
C1339 C 0.42461 0.87661 0.9946 0.0
H1340 H 0.43687 0.08581 0.2392 0.0
H1341 H 0.45532 0.18229 0.25559 0.0
H1342 H 0.40378 0.11145 0.22338 0.0
H1343 H 0.42256 0.2084 0.23921 0.0
H1344 H 0.42927 0.22636 0.19508 0.0
H1345 H 0.43898 0.21371 0.21697 0.0
H1346 H 0.35754 0.14376 0.21615 0.0
H1347 H 0.34984 0.15464 0.19438 0.0
C1348 C 0.43271 0.11238 0.23981 0.0
C1349 C 0.44963 0.13199 0.24852 0.0
C1350 C 0.4137 0.12726 0.23061 0.0
C1351 C 0.41117 0.1621 0.22988 0.0
C1352 C 0.42472 0.18154 0.23941 0.0
C1353 C 0.44344 0.16654 0.24877 0.0
C1354 C 0.41308 0.20896 0.19974 0.0
C1355 C 0.38924 0.19096 0.19308 0.0
C1356 C 0.41834 0.20191 0.21227 0.0
C1357 C 0.39932 0.17726 0.21822 0.0
C1358 C 0.373 0.16233 0.21178 0.0
C1359 C 0.36851 0.16863 0.1993 0.0
H1360 H 0.09941 0.9363 0.21729 0.0
H1361 H 0.20385 0.96107 0.21845 0.0
H1362 H 0.10415 0.92474 0.19505 0.0
H1363 H 0.20875 0.94928 0.19677 0.0
H1364 H 0.15654 0.84817 0.16726 0.0
H1365 H 0.13071 0.88014 0.18364 0.0
H1366 H 0.19632 0.96245 0.17589 0.0
H1367 H 0.2234 0.92948 0.15983 0.0
C1368 C 0.12318 0.93953 0.21278 0.0
C1369 C 0.1514 0.94883 0.21962 0.0
C1370 C 0.1259 0.93308 0.20009 0.0
C1371 C 0.15677 0.93629 0.19408 0.0
C1372 C 0.18438 0.94721 0.20093 0.0
C1373 C 0.18173 0.95335 0.2135 0.0
C1374 C 0.16447 0.87365 0.16866 0.0
C1375 C 0.1926 0.8861 0.16255 0.0
C1376 C 0.14954 0.89209 0.17808 0.0
C1377 C 0.16235 0.92335 0.18139 0.0
C1378 C 0.18671 0.9379 0.17382 0.0
C1379 C 0.20211 0.91919 0.16458 0.0
H1380 H 0.43944 1.00802 0.42375 0.0
H1381 H 0.45473 0.91041 0.4078 0.0
H1382 H 0.40652 0.98407 0.43984 0.0
H1383 H 0.42185 0.88597 0.4244 0.0
H1384 H 0.42735 0.86702 0.46826 0.0
H1385 H 0.43753 0.87965 0.44642 0.0
H1386 H 0.36017 0.95453 0.4475 0.0
H1387 H 0.35243 0.94384 0.46926 0.0
C1388 C 0.43457 0.98157 0.4233 0.0
C1389 C 0.45053 0.96113 0.4146 0.0
C1390 C 0.41564 0.96765 0.43265 0.0
C1391 C 0.41214 0.93293 0.43356 0.0
C1392 C 0.42478 0.91273 0.42408 0.0
C1393 C 0.44354 0.92678 0.41458 0.0
C1394 C 0.41226 0.88566 0.46368 0.0
C1395 C 0.3896 0.90497 0.47041 0.0
C1396 C 0.41773 0.89269 0.45117 0.0
C1397 C 0.40001 0.91858 0.4453 0.0
C1398 C 0.37477 0.93503 0.45181 0.0
C1399 C 0.37021 0.92882 0.46429 0.0
H1400 H 0.43318 0.20909 0.65838 0.0
H1401 H 0.33603 0.19147 0.67409 0.0
H1402 H 0.45828 0.17486 0.67456 0.0
H1403 H 0.36069 0.157 0.68973 0.0
H1404 H 0.40284 0.09846 0.71801 0.0
H1405 H 0.39177 0.10915 0.69636 0.0
H1406 H 0.4637 0.18889 0.69699 0.0
H1407 H 0.47621 0.17647 0.7187 0.0
C1408 C 0.41706 0.19718 0.66503 0.0
C1409 C 0.38262 0.20379 0.66509 0.0
C1410 C 0.43148 0.1776 0.67427 0.0
C1411 C 0.41157 0.16371 0.68353 0.0
C1412 C 0.37683 0.16709 0.68269 0.0
C1413 C 0.36253 0.18691 0.6736 0.0
C1414 C 0.41707 0.11753 0.71341 0.0
C1415 C 0.43992 0.13707 0.71998 0.0
C1416 C 0.41072 0.12367 0.70102 0.0
C1417 C 0.42626 0.15032 0.69505 0.0
C1418 C 0.4514 0.16804 0.70133 0.0
C1419 C 0.4584 0.16123 0.71376 0.0
H1420 H 0.14483 0.21282 0.97319 0.0
H1421 H 0.24549 0.18178 0.9658 0.0
H1422 H 0.13064 0.20498 0.95149 0.0
H1423 H 0.23222 0.17555 0.94391 0.0
H1424 H 0.17392 0.10356 0.91764 0.0
H1425 H 0.20241 0.13325 0.934 0.0
H1426 H 0.13355 0.21541 0.93008 0.0
H1427 H 0.1036 0.18462 0.91434 0.0
C1428 C 0.16415 0.20556 0.96676 0.0
C1429 C 0.196 0.19758 0.971 0.0
C1430 C 0.15624 0.20129 0.9543 0.0
C1431 C 0.18025 0.18921 0.94592 0.0
C1432 C 0.21299 0.1842 0.95012 0.0
C1433 C 0.22066 0.18792 0.96261 0.0
C1434 C 0.1653 0.12826 0.92008 0.0
C1435 C 0.1358 0.14108 0.91499 0.0
C1436 C 0.1819 0.14559 0.92939 0.0
C1437 C 0.1696 0.17637 0.93366 0.0
C1438 C 0.14301 0.19129 0.92728 0.0
C1439 C 0.12611 0.17374 0.91809 0.0
H1440 H 0.95882 0.98893 0.71452 0.0
H1441 H 0.94765 0.88702 0.726 0.0
H1442 H 0.95108 0.97218 0.69288 0.0
H1443 H 0.94105 0.8699 0.70446 0.0
H1444 H 0.93471 0.84161 0.66642 0.0
H1445 H 0.96715 0.86863 0.68253 0.0
H1446 H 0.89519 0.94838 0.68412 0.0
H1447 H 0.86264 0.92148 0.66789 0.0
C1448 C 0.95577 0.96285 0.71231 0.0
C1449 C 0.95362 0.93912 0.72173 0.0
C1450 C 0.95146 0.95329 0.7 0.0
C1451 C 0.94563 0.9198 0.69703 0.0
C1452 C 0.94606 0.89583 0.70648 0.0
C1453 C 0.94966 0.90551 0.71877 0.0
C1454 C 0.92658 0.86574 0.66974 0.0
C1455 C 0.89575 0.87918 0.66607 0.0
C1456 C 0.94513 0.88105 0.67903 0.0
C1457 C 0.9333 0.91016 0.68469 0.0
C1458 C 0.90484 0.92591 0.67989 0.0
C1459 C 0.8861 0.91044 0.67066 0.0
H1460 H 0.84775 0.15937 0.46774 0.0
H1461 H 0.92937 0.22861 0.4688 0.0
H1462 H 0.85625 0.15042 0.44584 0.0
H1463 H 0.93969 0.21803 0.44682 0.0
H1464 H 0.95926 0.1904 0.40842 0.0
H1465 H 0.9253 0.21567 0.42461 0.0
H1466 H 0.90101 0.11763 0.43813 0.0
H1467 H 0.93505 0.09278 0.42243 0.0
C1468 C 0.86718 0.17314 0.46319 0.0
C1469 C 0.88831 0.19418 0.46991 0.0
C1470 C 0.87208 0.16801 0.45064 0.0
C1471 C 0.89909 0.18287 0.44465 0.0
C1472 C 0.91851 0.20631 0.45115 0.0
C1473 C 0.91292 0.21216 0.46374 0.0
C1474 C 0.94585 0.17429 0.41466 0.0
C1475 C 0.95075 0.13956 0.41435 0.0
C1476 C 0.92646 0.1888 0.42392 0.0
C1477 C 0.91112 0.16874 0.43282 0.0
C1478 C 0.91235 0.13396 0.43142 0.0
C1479 C 0.93194 0.11954 0.42229 0.0
H1480 H 0.65548 0.24121 0.16529 0.0
H1481 H 0.73519 0.1695 0.16891 0.0
H1482 H 0.62338 0.21124 0.18057 0.0
H1483 H 0.70405 0.14077 0.18473 0.0
H1484 H 0.65329 0.09727 0.21569 0.0
H1485 H 0.66002 0.11124 0.19391 0.0
H1486 H 0.63389 0.21342 0.20218 0.0
H1487 H 0.62576 0.19867 0.22378 0.0
C1488 C 0.66575 0.21837 0.169 0.0
C1489 C 0.69838 0.20824 0.16615 0.0
C1490 C 0.64744 0.20143 0.17791 0.0
C1491 C 0.66155 0.17432 0.18421 0.0
C1492 C 0.69233 0.16166 0.18015 0.0
C1493 C 0.71047 0.17837 0.17115 0.0
C1494 C 0.6479 0.1224 0.21267 0.0
C1495 C 0.63917 0.14707 0.22124 0.0
C1496 C 0.6519 0.13046 0.20025 0.0
C1497 C 0.64802 0.16354 0.19629 0.0
C1498 C 0.6367 0.1876 0.20482 0.0
C1499 C 0.63225 0.17935 0.21722 0.0
H1500 H 0.67454 0.98795 0.91713 0.0
H1501 H 0.60341 0.90793 0.91388 0.0
H1502 H 0.7028 0.95804 0.93348 0.0
H1503 H 0.63306 0.87695 0.92963 0.0
H1504 H 0.64424 0.88073 0.97278 0.0
H1505 H 0.63014 0.88826 0.95106 0.0
H1506 H 0.73218 0.91518 0.94339 0.0
H1507 H 0.74542 0.90919 0.96529 0.0
C1508 C 0.6657 0.96341 0.91957 0.0
C1509 C 0.63605 0.95097 0.91451 0.0
C1510 C 0.68215 0.94596 0.92888 0.0
C1511 C 0.66953 0.91546 0.93317 0.0
C1512 C 0.64278 0.90085 0.92681 0.0
C1513 C 0.62604 0.91851 0.91761 0.0
C1514 C 0.66367 0.88734 0.96632 0.0
C1515 C 0.69568 0.89466 0.97054 0.0
C1516 C 0.6558 0.89143 0.95386 0.0
C1517 C 0.68 0.90272 0.94544 0.0
C1518 C 0.71283 0.9071 0.94963 0.0
C1519 C 0.72049 0.90352 0.96212 0.0
H1520 H 0.94502 0.09956 0.94722 0.0
H1521 H 0.96293 0.20314 0.93959 0.0
H1522 H 0.93713 0.11247 0.96909 0.0
H1523 H 0.95419 0.21657 0.96132 0.0
H1524 H 0.93456 0.24063 0.9988 0.0
H1525 H 0.96747 0.21318 0.98303 0.0
H1526 H 0.8902 0.13962 0.97839 0.0
H1527 H 0.85805 0.16607 0.99463 0.0
C1528 C 0.94821 0.12497 0.95035 0.0
C1529 C 0.95457 0.15049 0.9419 0.0
C1530 C 0.94356 0.13239 0.96282 0.0
C1531 C 0.94474 0.16555 0.96695 0.0
C1532 C 0.95359 0.19069 0.95853 0.0
C1533 C 0.95841 0.18317 0.94607 0.0
C1534 C 0.92524 0.21765 0.99489 0.0
C1535 C 0.89318 0.206 0.99774 0.0
C1536 C 0.94402 0.20215 0.98571 0.0
C1537 C 0.93101 0.1749 0.97918 0.0
C1538 C 0.90098 0.16069 0.98318 0.0
C1539 C 0.88231 0.17604 0.99243 0.0
H1540 H 0.63472 0.19951 0.68627 0.0
H1541 H 0.73574 0.21653 0.69803 0.0
H1542 H 0.61776 0.19279 0.70776 0.0
H1543 H 0.71915 0.20859 0.71964 0.0
H1544 H 0.67219 0.11765 0.74445 0.0
H1545 H 0.69763 0.15092 0.7282 0.0
H1546 H 0.61539 0.21999 0.72979 0.0
H1547 H 0.5899 0.1869 0.74597 0.0
C1548 C 0.65298 0.20287 0.69354 0.0
C1549 C 0.68633 0.20858 0.69067 0.0
C1550 C 0.64337 0.19916 0.70581 0.0
C1551 C 0.66722 0.20027 0.71533 0.0
C1552 C 0.70036 0.20783 0.71246 0.0
C1553 C 0.7098 0.21233 0.70017 0.0
C1554 C 0.66027 0.14065 0.74168 0.0
C1555 C 0.62884 0.14932 0.74632 0.0
C1556 C 0.6749 0.15981 0.73243 0.0
C1557 C 0.65811 0.18767 0.72765 0.0
C1558 C 0.62865 0.19848 0.7333 0.0
C1559 C 0.61421 0.17956 0.74262 0.0
H1560 H 0.62898 0.89173 0.43941 0.0
H1561 H 0.65475 0.99368 0.44715 0.0
H1562 H 0.63747 0.8777 0.46108 0.0
H1563 H 0.66192 0.98039 0.46899 0.0
H1564 H 0.73699 0.92382 0.49486 0.0
H1565 H 0.70619 0.95147 0.47857 0.0
H1566 H 0.62618 0.88073 0.48263 0.0
H1567 H 0.65794 0.8518 0.49836 0.0
C1568 C 0.63519 0.91131 0.44591 0.0
C1569 C 0.64143 0.94358 0.44178 0.0
C1570 C 0.63985 0.90347 0.45835 0.0
C1571 C 0.65072 0.92791 0.4668 0.0
C1572 C 0.6541 0.9609 0.46271 0.0
C1573 C 0.64985 0.96857 0.45025 0.0
C1574 C 0.71248 0.91465 0.49248 0.0
C1575 C 0.70052 0.88499 0.49763 0.0
C1576 C 0.69455 0.93074 0.4832 0.0
C1577 C 0.66407 0.91768 0.47902 0.0
C1578 C 0.65002 0.89082 0.4854 0.0
C1579 C 0.66813 0.87449 0.49458 0.0
H1580 H 0.91388 0.97539 0.25232 0.0
H1581 H 0.99533 0.9085 0.24451 0.0
H1582 H 0.88062 0.94816 0.23636 0.0
H1583 H 0.96305 0.8825 0.22823 0.0
H1584 H 0.88051 0.95488 0.19377 0.0
H1585 H 0.89279 0.96016 0.21541 0.0
H1586 H 0.91829 0.85562 0.21706 0.0
H1587 H 0.90621 0.85049 0.19486 0.0
C1588 C 0.92417 0.95409 0.2475 0.0
C1589 C 0.95734 0.94457 0.24941 0.0
C1590 C 0.90529 0.93859 0.23832 0.0
C1591 C 0.91972 0.91411 0.23068 0.0
C1592 C 0.95117 0.9014 0.23385 0.0
C1593 C 0.96978 0.91643 0.2432 0.0
C1594 C 0.88853 0.93285 0.19871 0.0
C1595 C 0.89321 0.90243 0.19257 0.0
C1596 C 0.89495 0.93572 0.21125 0.0
C1597 C 0.90635 0.90825 0.21807 0.0
C1598 C 0.90961 0.87727 0.21206 0.0
C1599 C 0.90285 0.87433 0.19938 0.0
H1600 H 0.66209 0.70875 1.00379 0.0
H1601 H 0.75932 0.69236 0.98785 0.0
H1602 H 0.63732 0.67469 0.98747 0.0
H1603 H 0.73501 0.65817 0.97206 0.0
H1604 H 0.69366 0.60086 0.94331 0.0
H1605 H 0.70495 0.61072 0.96499 0.0
H1606 H 0.63098 0.68899 0.96525 0.0
H1607 H 0.61809 0.67713 0.94351 0.0
C1608 C 0.67831 0.69713 0.99706 0.0
C1609 C 0.71265 0.70407 0.99697 0.0
C1610 C 0.66407 0.67766 0.98774 0.0
C1611 C 0.68408 0.66425 0.97836 0.0
C1612 C 0.71878 0.66788 0.97918 0.0
C1613 C 0.73289 0.68755 0.98836 0.0
C1614 C 0.67906 0.6194 0.9481 0.0
C1615 C 0.65545 0.63866 0.94177 0.0
C1616 C 0.68555 0.6251 0.96052 0.0
C1617 C 0.66946 0.65114 0.96676 0.0
C1618 C 0.64371 0.66861 0.9607 0.0
C1619 C 0.63652 0.66214 0.94826 0.0
H1620 H 0.59692 0.40852 0.24502 0.0
H1621 H 0.67753 0.4771 0.2516 0.0
H1622 H 0.62794 0.38301 0.22833 0.0
H1623 H 0.7094 0.45056 0.23513 0.0
H1624 H 0.68438 0.35145 0.19444 0.0
H1625 H 0.67342 0.35692 0.2167 0.0
H1626 H 0.69244 0.46255 0.21428 0.0
H1627 H 0.70337 0.45708 0.19255 0.0
C1628 C 0.62209 0.41694 0.24336 0.0
C1629 C 0.63451 0.44544 0.24934 0.0
C1630 C 0.63996 0.4022 0.23376 0.0
C1631 C 0.67059 0.41562 0.23011 0.0
C1632 C 0.68532 0.44043 0.2375 0.0
C1633 C 0.66722 0.45554 0.24697 0.0
C1634 C 0.6864 0.37567 0.19878 0.0
C1635 C 0.69406 0.40392 0.19175 0.0
C1636 C 0.68036 0.37878 0.21149 0.0
C1637 C 0.68245 0.41009 0.21731 0.0
C1638 C 0.69137 0.4379 0.21024 0.0
C1639 C 0.697 0.43486 0.19766 0.0
H1640 H 0.93674 0.38314 0.50359 0.0
H1641 H 0.84007 0.40777 0.48853 0.0
H1642 H 0.96303 0.4167 0.48758 0.0
H1643 H 0.86594 0.4415 0.47302 0.0
H1644 H 0.90978 0.49549 0.44413 0.0
H1645 H 0.89947 0.48652 0.46589 0.0
H1646 H 0.96649 0.40224 0.46528 0.0
H1647 H 0.97839 0.41298 0.44345 0.0
C1648 C 0.92104 0.39655 0.49715 0.0
C1649 C 0.88631 0.39193 0.49713 0.0
C1650 C 0.93614 0.41572 0.488 0.0
C1651 C 0.91665 0.43113 0.47889 0.0
C1652 C 0.88181 0.4301 0.47992 0.0
C1653 C 0.8668 0.41071 0.48893 0.0
C1654 C 0.92317 0.47581 0.44874 0.0
C1655 C 0.94443 0.45459 0.44215 0.0
C1656 C 0.91725 0.47062 0.46122 0.0
C1657 C 0.93154 0.44325 0.46724 0.0
C1658 C 0.9552 0.42369 0.46091 0.0
C1659 C 0.96183 0.42955 0.44841 0.0
H1660 H 0.88612 0.63493 0.69335 0.0
H1661 H 0.90606 0.74046 0.69473 0.0
H1662 H 0.89746 0.63038 0.71509 0.0
H1663 H 0.91736 0.73597 0.717 0.0
H1664 H 0.91452 0.61695 0.75229 0.0
H1665 H 0.8818 0.64304 0.73593 0.0
H1666 H 0.9629 0.71042 0.7286 0.0
H1667 H 0.99473 0.68541 0.7452 0.0
C1668 C 0.89276 0.65733 0.69835 0.0
C1669 C 0.89592 0.68795 0.69229 0.0
C1670 C 0.89861 0.65484 0.71094 0.0
C1671 C 0.90797 0.68289 0.71787 0.0
C1672 C 0.91013 0.71392 0.7119 0.0
C1673 C 0.90389 0.71648 0.69919 0.0
C1674 C 0.92458 0.63839 0.74757 0.0
C1675 C 0.9574 0.64857 0.74976 0.0
C1676 C 0.90599 0.65325 0.73817 0.0
C1677 C 0.92037 0.67783 0.73065 0.0
C1678 C 0.95115 0.69138 0.73413 0.0
C1679 C 0.96949 0.67693 0.74367 0.0
H1680 H 0.65783 0.34361 0.66428 0.0
H1681 H 0.72707 0.42531 0.66727 0.0
H1682 H 0.62411 0.36799 0.68055 0.0
H1683 H 0.69307 0.44966 0.68364 0.0
H1684 H 0.62552 0.48402 0.71433 0.0
H1685 H 0.63356 0.46989 0.69244 0.0
H1686 H 0.65348 0.36793 0.70265 0.0
H1687 H 0.64688 0.38251 0.72443 0.0
C1688 C 0.665 0.36765 0.66793 0.0
C1689 C 0.69548 0.38229 0.66466 0.0
C1690 C 0.64569 0.38147 0.67731 0.0
C1691 C 0.65635 0.4103 0.68343 0.0
C1692 C 0.68433 0.42738 0.67902 0.0
C1693 C 0.70389 0.41337 0.66971 0.0
C1694 C 0.63066 0.45847 0.71176 0.0
C1695 C 0.63562 0.43419 0.72087 0.0
C1696 C 0.6352 0.45044 0.69932 0.0
C1697 C 0.64386 0.41785 0.69591 0.0
C1698 C 0.64623 0.39312 0.70503 0.0
C1699 C 0.64259 0.40137 0.71746 0.0
H1700 H 0.92031 0.48321 0.91873 0.0
H1701 H 0.99373 0.40507 0.91512 0.0
H1702 H 0.89184 0.45103 0.93435 0.0
H1703 H 0.96414 0.37199 0.93022 0.0
H1704 H 0.94974 0.37319 0.97341 0.0
H1705 H 0.96528 0.38234 0.95195 0.0
H1706 H 0.86283 0.40552 0.94304 0.0
H1707 H 0.84796 0.39759 0.96469 0.0
C1708 C 0.92966 0.45862 0.92094 0.0
C1709 C 0.95984 0.44725 0.91597 0.0
C1710 C 0.91311 0.4399 0.92982 0.0
C1711 C 0.92628 0.40925 0.93381 0.0
C1712 C 0.95389 0.3959 0.92759 0.0
C1713 C 0.97062 0.41478 0.91879 0.0
C1714 C 0.93055 0.37916 0.96673 0.0
C1715 C 0.89786 0.38485 0.97054 0.0
C1716 C 0.93927 0.38423 0.95441 0.0
C1717 C 0.91531 0.39504 0.94576 0.0
C1718 C 0.88194 0.39774 0.94949 0.0
C1719 C 0.87337 0.39303 0.96183 0.0
H1720 H 0.8648 0.66992 0.1666 0.0
H1721 H 0.93561 0.75051 0.16515 0.0
H1722 H 0.89712 0.64419 0.18315 0.0
H1723 H 0.96776 0.72469 0.18159 0.0
H1724 H 0.94541 0.70826 0.22504 0.0
H1725 H 0.93915 0.72413 0.20338 0.0
H1726 H 0.95424 0.62185 0.19234 0.0
H1727 H 0.96178 0.60637 0.21411 0.0
C1728 C 0.88797 0.68135 0.16943 0.0
C1729 C 0.89728 0.7125 0.16475 0.0
C1730 C 0.90657 0.66655 0.17885 0.0
C1731 C 0.93453 0.68288 0.18374 0.0
C1732 C 0.94612 0.71182 0.178 0.0
C1733 C 0.92774 0.72645 0.16852 0.0
C1734 C 0.94859 0.68954 0.21792 0.0
C1735 C 0.95404 0.65627 0.22106 0.0
C1736 C 0.94518 0.69852 0.20556 0.0
C1737 C 0.94636 0.67415 0.19622 0.0
C1738 C 0.95346 0.64103 0.19938 0.0
C1739 C 0.95767 0.63222 0.21176 0.0
H1740 H 0.6424 0.7161 0.47309 0.0
H1741 H 0.74426 0.69087 0.465 0.0
H1742 H 0.62754 0.70725 0.45149 0.0
H1743 H 0.73009 0.68324 0.44322 0.0
H1744 H 0.67271 0.60657 0.41817 0.0
H1745 H 0.70105 0.63827 0.43407 0.0
H1746 H 0.62957 0.718 0.42984 0.0
H1747 H 0.60005 0.68539 0.41447 0.0
C1748 C 0.66177 0.70996 0.46652 0.0
C1749 C 0.69426 0.70397 0.47054 0.0
C1750 C 0.65345 0.70509 0.45413 0.0
C1751 C 0.67762 0.69418 0.44561 0.0
C1752 C 0.71081 0.6911 0.44956 0.0
C1753 C 0.71898 0.69561 0.46198 0.0
C1754 C 0.66353 0.63121 0.42041 0.0
C1755 C 0.63354 0.64289 0.41535 0.0
C1756 C 0.68001 0.64966 0.42946 0.0
C1757 C 0.66697 0.68033 0.43351 0.0
C1758 C 0.63968 0.69404 0.42717 0.0
C1759 C 0.623 0.67544 0.41821 0.0
H1760 H 0.38815 0.4596 0.21841 0.0
H1761 H 0.49266 0.43453 0.21746 0.0
H1762 H 0.38327 0.44778 0.19672 0.0
H1763 H 0.48792 0.4229 0.19522 0.0
H1764 H 0.36886 0.42819 0.15968 0.0
H1765 H 0.39582 0.46098 0.17584 0.0
H1766 H 0.46127 0.37825 0.1838 0.0
H1767 H 0.43551 0.34642 0.16736 0.0
C1768 C 0.41029 0.45179 0.21349 0.0
C1769 C 0.44064 0.44721 0.21968 0.0
C1770 C 0.40764 0.44564 0.20093 0.0
C1771 C 0.43528 0.43462 0.19413 0.0
C1772 C 0.46616 0.43133 0.2002 0.0
C1773 C 0.46887 0.43781 0.21291 0.0
C1774 C 0.39006 0.41775 0.16451 0.0
C1775 C 0.39954 0.38458 0.16252 0.0
C1776 C 0.40541 0.43636 0.1738 0.0
C1777 C 0.42972 0.42167 0.18145 0.0
C1778 C 0.44249 0.39031 0.17818 0.0
C1779 C 0.42759 0.37195 0.16873 0.0
H1780 H 0.35798 0.72026 0.96433 0.0
H1781 H 0.4584 0.6996 0.9761 0.0
H1782 H 0.37452 0.71221 0.94269 0.0
H1783 H 0.47535 0.69292 0.95458 0.0
H1784 H 0.50326 0.68878 0.91628 0.0
H1785 H 0.47789 0.7218 0.93261 0.0
H1786 H 0.39557 0.65329 0.934 0.0
H1787 H 0.42094 0.61999 0.91762 0.0
C1788 C 0.38382 0.71526 0.96219 0.0
C1789 C 0.4071 0.71052 0.97169 0.0
C1790 C 0.39322 0.7107 0.94989 0.0
C1791 C 0.42618 0.70218 0.94701 0.0
C1792 C 0.4499 0.70003 0.95655 0.0
C1793 C 0.4403 0.70373 0.96883 0.0
C1794 C 0.47896 0.68157 0.91962 0.0
C1795 C 0.46429 0.65145 0.91582 0.0
C1796 C 0.46457 0.70045 0.92901 0.0
C1797 C 0.43513 0.68976 0.93463 0.0
C1798 C 0.41829 0.66207 0.92977 0.0
C1799 C 0.43287 0.64292 0.92046 0.0
H1800 H 0.09868 0.65798 0.71711 0.0
H1801 H 0.20355 0.63449 0.71825 0.0
H1802 H 0.10288 0.6678 0.69475 0.0
H1803 H 0.20787 0.64446 0.69645 0.0
H1804 H 0.15478 0.74271 0.66629 0.0
H1805 H 0.12905 0.71188 0.68289 0.0
H1806 H 0.19477 0.62887 0.6757 0.0
H1807 H 0.2217 0.66065 0.65938 0.0
C1808 C 0.12244 0.65467 0.71258 0.0
C1809 C 0.15091 0.64623 0.71943 0.0
C1810 C 0.12483 0.66009 0.69982 0.0
C1811 C 0.15564 0.65664 0.69376 0.0
C1812 C 0.18355 0.64664 0.70065 0.0
C1813 C 0.18122 0.64158 0.71328 0.0
C1814 C 0.16273 0.71728 0.66785 0.0
C1815 C 0.19092 0.70436 0.66183 0.0
C1816 C 0.14785 0.6995 0.67739 0.0
C1817 C 0.16079 0.66846 0.68094 0.0
C1818 C 0.18507 0.65328 0.67344 0.0
C1819 C 0.20039 0.67132 0.66405 0.0
H1820 H 0.24335 0.40178 0.46481 0.0
H1821 H 0.14094 0.37866 0.47255 0.0
H1822 H 0.23 0.40858 0.44294 0.0
H1823 H 0.12691 0.38669 0.45084 0.0
H1824 H 0.10077 0.40734 0.41367 0.0
H1825 H 0.12958 0.37485 0.42924 0.0
H1826 H 0.20173 0.45365 0.43347 0.0
H1827 H 0.17408 0.4852 0.41738 0.0
C1828 C 0.21812 0.39732 0.4617 0.0
C1829 C 0.19302 0.38981 0.47018 0.0
C1830 C 0.21042 0.40135 0.44923 0.0
C1831 C 0.17733 0.39863 0.44513 0.0
C1832 C 0.15275 0.38856 0.45359 0.0
C1833 C 0.16059 0.38416 0.46604 0.0
C1834 C 0.12373 0.41708 0.41745 0.0
C1835 C 0.13463 0.44937 0.41454 0.0
C1836 C 0.14001 0.39855 0.42653 0.0
C1837 C 0.16724 0.4121 0.43292 0.0
C1838 C 0.1807 0.4424 0.42882 0.0
C1839 C 0.16463 0.46077 0.41966 0.0
H1840 H 0.36944 0.6647 0.50225 0.0
H1841 H 0.4357 0.74618 0.49435 0.0
H1842 H 0.39639 0.63147 0.48623 0.0
H1843 H 0.46144 0.71389 0.47803 0.0
H1844 H 0.3888 0.63146 0.44363 0.0
H1845 H 0.38383 0.64393 0.46526 0.0
H1846 H 0.48835 0.66884 0.46689 0.0
H1847 H 0.49318 0.65655 0.4447 0.0
C1848 C 0.39055 0.675 0.49739 0.0
C1849 C 0.39995 0.70818 0.49929 0.0
C1850 C 0.40589 0.65613 0.48818 0.0
C1851 C 0.43011 0.67057 0.48052 0.0
C1852 C 0.44274 0.70201 0.48367 0.0
C1853 C 0.42786 0.72063 0.49304 0.0
C1854 C 0.4109 0.63939 0.44856 0.0
C1855 C 0.44122 0.64382 0.44243 0.0
C1856 C 0.4082 0.64592 0.4611 0.0
C1857 C 0.43576 0.65717 0.4679 0.0
C1858 C 0.46665 0.66025 0.46189 0.0
C1859 C 0.46941 0.65338 0.44922 0.0
H1860 H 0.17831 0.61298 0.25131 0.0
H1861 H 0.0975 0.68171 0.2448 0.0
H1862 H 0.21063 0.64018 0.23519 0.0
H1863 H 0.12885 0.70775 0.22839 0.0
H1864 H 0.20785 0.63601 0.1926 0.0
H1865 H 0.19632 0.62952 0.21422 0.0
H1866 H 0.17354 0.73448 0.21716 0.0
H1867 H 0.18485 0.7409 0.19499 0.0
C1868 C 0.168 0.63464 0.24674 0.0
C1869 C 0.1352 0.64473 0.24906 0.0
C1870 C 0.18634 0.65013 0.23747 0.0
C1871 C 0.17174 0.67522 0.23018 0.0
C1872 C 0.14083 0.68839 0.23375 0.0
C1873 C 0.12276 0.67333 0.24317 0.0
C1874 C 0.20055 0.65788 0.19781 0.0
C1875 C 0.1965 0.68885 0.19205 0.0
C1876 C 0.19457 0.65427 0.21034 0.0
C1877 C 0.18427 0.68154 0.21752 0.0
C1878 C 0.18142 0.71299 0.21187 0.0
C1879 C 0.18772 0.71666 0.19921 0.0
H1880 H 0.1977 0.48648 0.94299 0.0
H1881 H 0.11627 0.41699 0.94398 0.0
H1882 H 0.20806 0.47807 0.96472 0.0
H1883 H 0.12918 0.40518 0.96573 0.0
H1884 H 0.16092 0.38491 1.00431 0.0
H1885 H 0.13706 0.41836 0.98764 0.0
H1886 H 0.23549 0.43145 0.97245 0.0
H1887 H 0.2588 0.39843 0.98867 0.0
C1888 C 0.18159 0.46977 0.94797 0.0
C1889 C 0.15632 0.45226 0.94185 0.0
C1890 C 0.18775 0.46466 0.96042 0.0
C1891 C 0.17016 0.44025 0.96689 0.0
C1892 C 0.14316 0.42429 0.96102 0.0
C1893 C 0.13597 0.43066 0.94856 0.0
C1894 C 0.17746 0.39579 0.99756 0.0
C1895 C 0.21174 0.38838 0.99771 0.0
C1896 C 0.16376 0.41482 0.98801 0.0
C1897 C 0.18421 0.42714 0.97859 0.0
C1898 C 0.21884 0.42278 0.97959 0.0
C1899 C 0.23241 0.40375 0.98902 0.0
H1900 H 0.34763 0.41084 0.69594 0.0
H1901 H 0.44875 0.38081 0.68884 0.0
H1902 H 0.36033 0.41716 0.71786 0.0
H1903 H 0.46233 0.38862 0.7106 0.0
H1904 H 0.48823 0.40844 0.74782 0.0
H1905 H 0.45855 0.3776 0.73203 0.0
H1906 H 0.3899 0.45982 0.72784 0.0
H1907 H 0.41817 0.48964 0.74423 0.0
C1908 C 0.37244 0.40495 0.69919 0.0
C1909 C 0.39739 0.39556 0.69087 0.0
C1910 C 0.37978 0.40869 0.7117 0.0
C1911 C 0.41244 0.40389 0.71601 0.0
C1912 C 0.43678 0.39212 0.7077 0.0
C1913 C 0.42922 0.38788 0.69521 0.0
C1914 C 0.4658 0.41933 0.744 0.0
C1915 C 0.45615 0.45205 0.74702 0.0
C1916 C 0.44905 0.40174 0.73479 0.0
C1917 C 0.42267 0.41669 0.72832 0.0
C1918 C 0.41029 0.44749 0.73252 0.0
C1919 C 0.42675 0.46487 0.74186 0.0
H1920 H 0.05453 0.19566 0.39607 0.0
H1921 H 0.13888 0.25243 0.40815 0.0
H1922 H 1.02073 0.24701 0.39568 0.0
H1923 H 0.10573 0.30354 0.40748 0.0
H1924 H 1.04344 0.40185 0.39868 0.0
H1925 H 0.07746 0.35056 0.39843 0.0
H1926 H 0.98959 0.29229 0.40459 0.0
H1927 H 0.95621 0.34323 0.40509 0.0
C1928 C 0.0664 0.2188 0.39861 0.0
C1929 C 0.10062 0.21809 0.40215 0.0
C1930 C 0.04652 0.24915 0.39843 0.0
C1931 C 0.05928 0.28151 0.40151 0.0
C1932 C 0.09361 0.28057 0.40486 0.0
C1933 C 0.11316 0.25032 0.40528 0.0
C1934 C 1.031 0.37829 0.39991 0.0
C1935 C 0.99589 0.37845 0.40181 0.0
C1936 C 0.05098 0.348 0.39985 0.0
C1937 C 1.0375 0.31519 0.40144 0.0
C1938 C 1.00234 0.31562 0.40317 0.0
C1939 C 0.98264 0.34577 0.40348 0.0
H1940 H 0.94046 0.78844 0.64893 0.0
H1941 H 0.99994 0.70131 0.65515 0.0
H1942 H 0.99135 0.82271 0.64876 0.0
H1943 H 0.05053 0.73492 0.65476 0.0
H1944 H 0.14622 0.80039 0.64645 0.0
H1945 H 0.09528 0.76622 0.64604 0.0
H1946 H 1.03804 0.85112 0.6577 0.0
H1947 H 0.08882 0.8845 0.65835 0.0
C1948 C 0.96414 0.7761 0.65015 0.0
C1949 C 0.96437 0.74097 0.65197 0.0
C1950 C 0.99419 0.7962 0.65013 0.0
C1951 C 1.02709 0.7828 0.6517 0.0
C1952 C 1.02706 0.7476 0.65335 0.0
C1953 C 0.99714 0.72777 0.65361 0.0
C1954 C 0.12299 0.81204 0.64896 0.0
C1955 C 0.1234 0.84626 0.65244 0.0
C1956 C 0.0929 0.79202 0.64876 0.0
C1957 C 0.0605 0.8047 0.6518 0.0
C1958 C 0.06109 0.83907 0.65511 0.0
C1959 C 0.09112 0.85875 0.65552 0.0
H1960 H 0.54402 0.89812 0.89846 0.0
H1961 H 0.45697 0.83936 0.90515 0.0
H1962 H 0.57801 0.84682 0.89803 0.0
H1963 H 0.49033 0.78849 0.90453 0.0
H1964 H 0.55478 0.69192 0.89594 0.0
H1965 H 0.52092 0.74326 0.89569 0.0
H1966 H 0.60661 0.79987 0.90675 0.0
H1967 H 0.63971 0.74874 0.90725 0.0
C1968 C 0.53161 0.87453 0.89971 0.0
C1969 C 0.49656 0.8746 0.90174 0.0
C1970 C 0.55157 0.84425 0.89956 0.0
C1971 C 0.53811 0.81145 0.90119 0.0
C1972 C 0.50303 0.81183 0.90305 0.0
C1973 C 0.48335 0.84193 0.90344 0.0
C1974 C 0.56669 0.7151 0.89834 0.0
C1975 C 0.60105 0.71441 0.90162 0.0
C1976 C 0.54685 0.74542 0.89825 0.0
C1977 C 0.55983 0.77779 0.90117 0.0
C1978 C 0.59432 0.77689 0.90426 0.0
C1979 C 0.61384 0.74664 0.90458 0.0
H1980 H 0.50092 0.20652 0.15987 0.0
H1981 H 0.44458 0.28757 0.1448 0.0
H1982 H 0.55168 0.23989 0.15906 0.0
H1983 H 0.49546 0.32186 0.14431 0.0
H1984 H 0.59002 0.38882 0.1535 0.0
H1985 H 0.53946 0.35505 0.15319 0.0
H1986 H 0.59908 0.26658 0.14974 0.0
H1987 H 0.64995 0.3009 0.1498 0.0
C1988 C 0.49882 0.2316 0.15633 0.0
C1989 C 0.46681 0.24325 0.15245 0.0
C1990 C 0.52886 0.25127 0.15582 0.0
C1991 C 0.52973 0.28486 0.15162 0.0
C1992 C 0.49759 0.29671 0.14777 0.0
C1993 C 0.46753 0.27664 0.14804 0.0
C1994 C 0.59293 0.36216 0.15253 0.0
C1995 C 0.62582 0.3488 0.15154 0.0
C1996 C 0.56304 0.34223 0.15233 0.0
C1997 C 0.56312 0.30682 0.15142 0.0
C1998 C 0.59614 0.29327 0.15052 0.0
C1999 C 0.62619 0.31341 0.15045 0.0
H2000 H 0.95476 0.7537 0.25794 0.0
H2001 H 1.04191 0.69395 0.26368 0.0
H2002 H 0.98849 0.80421 0.25832 0.0
H2003 H 0.07632 0.74478 0.26387 0.0
H2004 H 0.13778 0.84213 0.25409 0.0
H2005 H 0.10437 0.79139 0.25484 0.0
H2006 H 1.02023 0.84881 0.26705 0.0
H2007 H 0.05446 0.89969 0.26658 0.0
C2008 C 0.98126 0.75084 0.2594 0.0
C2009 C 0.99445 0.71803 0.26092 0.0
C2010 C 1.00116 0.78071 0.25964 0.0
C2011 C 1.03639 0.78062 0.26115 0.0
C2012 C 0.04978 0.74768 0.2626 0.0
C2013 C 1.02962 0.71768 0.2626 0.0
C2014 C 0.11219 0.84447 0.25706 0.0
C2015 C 0.09989 0.87678 0.26025 0.0
C2016 C 0.0925 0.81447 0.25753 0.0
C2017 C 0.05833 0.81396 0.26101 0.0
C2018 C 1.04587 0.84639 0.26418 0.0
C2019 C 0.0659 0.87644 0.26393 0.0
H2020 H 0.44434 0.80573 0.51754 0.0
H2021 H 0.49996 0.88876 0.50399 0.0
H2022 H 0.49561 0.77179 0.5178 0.0
H2023 H 0.55112 0.85568 0.50457 0.0
H2024 H 0.64982 0.79405 0.51341 0.0
H2025 H 0.59862 0.8282 0.51377 0.0
H2026 H 0.53985 0.74005 0.50853 0.0
H2027 H 0.59064 0.70652 0.50793 0.0
C2028 C 0.46721 0.81716 0.51459 0.0
C2029 C 0.46621 0.85097 0.51067 0.0
C2030 C 0.4975 0.7973 0.51473 0.0
C2031 C 0.52953 0.80981 0.51122 0.0
C2032 C 0.52838 0.84381 0.50751 0.0
C2033 C 0.49812 0.8633 0.50714 0.0
C2034 C 0.62616 0.78158 0.51243 0.0
C2035 C 0.62605 0.74637 0.51075 0.0
C2036 C 0.59595 0.80162 0.51254 0.0
C2037 C 0.5631 0.78805 0.51124 0.0
C2038 C 0.56329 0.75281 0.50974 0.0
C2039 C 0.59331 0.73304 0.50937 0.0
H2040 H 0.54865 0.39631 0.76356 0.0
H2041 H 0.63607 0.33678 0.75782 0.0
H2042 H 0.51462 0.34523 0.76386 0.0
H2043 H 0.60265 0.28615 0.75828 0.0
H2044 H 0.53782 0.19012 0.7663 0.0
H2045 H 0.57166 0.24127 0.76671 0.0
H2046 H 0.48633 0.29823 0.7553 0.0
H2047 H 0.45323 0.24729 0.75466 0.0
C2048 C 0.56113 0.3726 0.76249 0.0
C2049 C 0.59631 0.37237 0.76078 0.0
C2050 C 0.54115 0.34244 0.76257 0.0
C2051 C 0.55467 0.3095 0.76115 0.0
C2052 C 0.58986 0.3096 0.75959 0.0
C2053 C 0.60959 0.33957 0.7593 0.0
C2054 C 0.52598 0.21334 0.76386 0.0
C2055 C 0.49172 0.21281 0.76044 0.0
C2056 C 0.54582 0.24356 0.76405 0.0
C2057 C 0.53294 0.27596 0.76107 0.0
C2058 C 0.49854 0.27522 0.75784 0.0
C2059 C 0.47902 0.24508 0.75743 0.0
H2060 H 0.09083 0.20012 1.00541 0.0
H2061 H 0.14792 0.28502 1.01676 0.0
H2062 H 1.03985 0.23337 1.00593 0.0
H2063 H 0.09663 0.31887 1.01707 0.0
H2064 H 1.0008 0.38314 1.00753 0.0
H2065 H 0.05157 0.34965 1.00822 0.0
H2066 H 0.993 0.26203 1.01458 0.0
H2067 H 0.94182 0.29617 1.01409 0.0
C2068 C 0.09301 0.22598 1.00811 0.0
C2069 C 0.12526 0.23865 1.01108 0.0
C2070 C 0.06284 0.24558 1.00844 0.0
C2071 C 0.06205 0.28007 1.01155 0.0
C2072 C 0.09443 0.29295 1.01449 0.0
C2073 C 0.12471 0.27304 1.01438 0.0
C2074 C 0.99816 0.35675 1.00923 0.0
C2075 C 0.96548 0.34358 1.01087 0.0
C2076 C 1.0282 0.33699 1.00966 0.0
C2077 C 1.02847 0.30188 1.0115 0.0
C2078 C 0.99565 0.28848 1.01307 0.0
C2079 C 0.96544 0.30852 1.01288 0.0
H2080 H 0.13744 0.75401 0.75477 0.0
H2081 H 0.05351 0.69588 0.76589 0.0
H2082 H 0.10377 0.80471 0.75563 0.0
H2083 H 1.01907 0.74679 0.76655 0.0
H2084 H 0.95375 0.8425 0.75805 0.0
H2085 H 0.98761 0.79189 0.75825 0.0
H2086 H 0.07511 0.85093 0.76453 0.0
H2087 H 1.04056 0.90182 0.76449 0.0
C2088 C 0.11167 0.75154 0.75747 0.0
C2089 C 0.09931 0.71911 0.76027 0.0
C2090 C 0.09182 0.78152 0.75801 0.0
C2091 C 0.05743 0.7819 0.76119 0.0
C2092 C 1.04489 0.74933 0.76395 0.0
C2093 C 0.06506 0.71927 0.76361 0.0
C2094 C 0.9802 0.84524 0.75962 0.0
C2095 C 0.99328 0.87796 0.76138 0.0
C2096 C 1.00017 0.81532 0.75976 0.0
C2097 C 1.03536 0.81526 0.76142 0.0
C2098 C 0.04862 0.84812 0.76313 0.0
C2099 C 1.02838 0.87816 0.7632 0.0
H2100 H 0.94167 0.28985 0.51571 0.0
H2101 H 1.00021 0.20473 0.5055 0.0
H2102 H 0.99248 0.32421 0.51599 0.0
H2103 H 0.0508 0.23844 0.50614 0.0
H2104 H 0.14736 0.30286 0.51543 0.0
H2105 H 0.09657 0.26846 0.51571 0.0
H2106 H 1.03785 0.35437 0.50642 0.0
H2107 H 0.08837 0.38811 0.50578 0.0
C2108 C 0.96509 0.27793 0.51356 0.0
C2109 C 0.96505 0.24333 0.51055 0.0
C2110 C 0.99511 0.29813 0.51368 0.0
C2111 C 1.02777 0.28532 0.51111 0.0
C2112 C 1.02753 0.25062 0.50833 0.0
C2113 C 0.9976 0.23074 0.50793 0.0
C2114 C 0.12385 0.3148 0.51341 0.0
C2115 C 0.12376 0.34946 0.51056 0.0
C2116 C 0.09385 0.29458 0.51354 0.0
C2117 C 0.06109 0.30741 0.51112 0.0
C2118 C 0.06121 0.34217 0.5085 0.0
C2119 C 0.0911 0.36207 0.5081 0.0
H2120 H 0.63694 0.25128 0.25587 0.0
H2121 H 0.55237 0.19332 0.26663 0.0
H2122 H 0.60314 0.30189 0.2562 0.0
H2123 H 0.5179 0.24425 0.26669 0.0
H2124 H 0.4533 0.34005 0.25663 0.0
H2125 H 0.48701 0.28929 0.25745 0.0
H2126 H 0.57387 0.34819 0.265 0.0
H2127 H 0.53947 0.39914 0.2644 0.0
C2128 C 0.61103 0.24882 0.25838 0.0
C2129 C 0.59863 0.21644 0.26125 0.0
C2130 C 0.5911 0.27877 0.2586 0.0
C2131 C 0.55652 0.2792 0.26147 0.0
C2132 C 0.54388 0.2467 0.2643 0.0
C2133 C 0.56414 0.21664 0.26432 0.0
C2134 C 0.47957 0.34273 0.25859 0.0
C2135 C 0.49253 0.37544 0.26051 0.0
C2136 C 0.49945 0.31272 0.2591 0.0
C2137 C 0.53444 0.31259 0.26132 0.0
C2138 C 0.54756 0.34544 0.26317 0.0
C2139 C 0.5274 0.37552 0.2629 0.0
H2140 H 0.59102 0.8923 1.00499 0.0
H2141 H 0.64884 0.80816 1.01675 0.0
H2142 H 0.54033 0.85898 1.0057 0.0
H2143 H 0.59781 0.77425 1.01734 0.0
H2144 H 0.50233 0.70899 1.00908 0.0
H2145 H 0.55287 0.74258 1.00944 0.0
H2146 H 0.4935 0.83094 1.01392 0.0
H2147 H 0.44257 0.79675 1.0137 0.0
C2148 C 0.59342 0.86659 1.00782 0.0
C2149 C 0.62579 0.85417 1.01084 0.0
C2150 C 0.5634 0.84694 1.00827 0.0
C2151 C 0.56285 0.81264 1.0116 0.0
C2152 C 0.59536 0.8 1.0146 0.0
C2153 C 0.62551 0.81995 1.01433 0.0
C2154 C 0.49948 0.73559 1.01028 0.0
C2155 C 0.46664 0.74893 1.01149 0.0
C2156 C 0.52938 0.75543 1.01052 0.0
C2157 C 0.52939 0.79077 1.01174 0.0
C2158 C 0.49641 0.80432 1.01289 0.0
C2159 C 0.46632 0.78424 1.01286 0.0
H2160 H 0.05424 0.40202 0.89713 0.0
H2161 H 0.14062 0.34393 0.90605 0.0
H2162 H 1.02041 0.35089 0.89686 0.0
H2163 H 0.1074 0.29305 0.90562 0.0
H2164 H 1.04376 0.1954 0.89806 0.0
H2165 H 0.07777 0.24647 0.89764 0.0
H2166 H 0.99047 0.30523 0.90496 0.0
H2167 H 0.95708 0.25458 0.90551 0.0
C2168 C 0.06652 0.37859 0.89897 0.0
C2169 C 0.10133 0.37887 0.90156 0.0
C2170 C 0.04664 0.34836 0.89888 0.0
C2171 C 0.05992 0.31569 0.90118 0.0
C2172 C 0.0948 0.31623 0.90362 0.0
C2173 C 0.11442 0.34636 0.90391 0.0
C2174 C 1.03142 0.21904 0.89951 0.0
C2175 C 0.99645 0.21912 0.90173 0.0
C2176 C 0.05142 0.24921 0.89935 0.0
C2177 C 1.03812 0.28211 0.90121 0.0
C2178 C 1.00311 0.28186 0.90329 0.0
C2179 C 0.98338 0.25186 0.90365 0.0
H2180 H 0.50202 0.39117 0.65634 0.0
H2181 H 0.44417 0.30679 0.64498 0.0
H2182 H 0.55269 0.35751 0.6558 0.0
H2183 H 0.49518 0.27253 0.64461 0.0
H2184 H 0.59063 0.20726 0.65349 0.0
H2185 H 0.54009 0.24111 0.65293 0.0
H2186 H 0.5994 0.32873 0.64751 0.0
H2187 H 0.6503 0.29423 0.6479 0.0
C2188 C 0.49961 0.36534 0.65363 0.0
C2189 C 0.46725 0.35295 0.65066 0.0
C2190 C 0.52961 0.34548 0.65329 0.0
C2191 C 0.53013 0.31101 0.65015 0.0
C2192 C 0.49763 0.29841 0.6472 0.0
C2193 C 0.4675 0.31856 0.64736 0.0
C2194 C 0.59347 0.23374 0.65204 0.0
C2195 C 0.62628 0.24681 0.65064 0.0
C2196 C 0.56356 0.25373 0.65168 0.0
C2197 C 0.56356 0.28895 0.65014 0.0
C2198 C 0.59651 0.30222 0.64879 0.0
C2199 C 0.62658 0.28197 0.64893 0.0
H2200 H 0.55343 0.8968 0.39613 0.0
H2201 H 0.63817 0.83879 0.40718 0.0
H2202 H 0.51927 0.84587 0.39587 0.0
H2203 H 0.60463 0.78817 0.4067 0.0
H2204 H 0.54133 0.69072 0.39857 0.0
H2205 H 0.57563 0.74158 0.39812 0.0
H2206 H 0.48831 0.80099 0.40465 0.0
H2207 H 0.45465 0.75045 0.4053 0.0
C2208 C 0.56531 0.87346 0.39846 0.0
C2209 C 0.59977 0.87366 0.40166 0.0
C2210 C 0.54521 0.84338 0.39837 0.0
C2211 C 0.55795 0.81085 0.40124 0.0
C2212 C 0.59249 0.81129 0.40425 0.0
C2213 C 0.61228 0.84125 0.40456 0.0
C2214 C 0.52908 0.71445 0.39985 0.0
C2215 C 0.49405 0.71475 0.4019 0.0
C2216 C 0.54922 0.74449 0.39967 0.0
C2217 C 0.53597 0.77746 0.4013 0.0
C2218 C 0.50088 0.77749 0.40318 0.0
C2219 C 0.48101 0.74758 0.40359 0.0
H2220 H 0.94147 0.80227 0.14783 0.0
H2221 H 1.00022 0.8882 0.15644 0.0
H2222 H 0.99248 0.76789 0.14744 0.0
H2223 H 0.05092 0.85453 0.15584 0.0
H2224 H 0.14743 0.7903 0.14723 0.0
H2225 H 0.09637 0.82452 0.14702 0.0
H2226 H 1.03869 0.73804 0.15605 0.0
H2227 H 0.08958 0.70454 0.15647 0.0
C2228 C 0.96502 0.81432 0.14955 0.0
C2229 C 0.96501 0.84914 0.15211 0.0
C2230 C 0.99513 0.79415 0.1494 0.0
C2231 C 1.02787 0.80722 0.15155 0.0
C2232 C 1.0276 0.84213 0.15394 0.0
C2233 C 0.99762 0.86199 0.15433 0.0
C2234 C 0.12407 0.7783 0.14917 0.0
C2235 C 0.12438 0.7436 0.15184 0.0
C2236 C 0.0939 0.79835 0.14911 0.0
C2237 C 0.06134 0.78527 0.15149 0.0
C2238 C 0.06186 0.75044 0.154 0.0
C2239 C 0.09196 0.73068 0.15427 0.0
H2240 H 0.29735 0.28233 0.36833 0.0
H2241 H 0.25405 0.21357 0.34218 0.0
H2242 H 0.31344 0.31884 0.35139 0.0
H2243 H 0.27064 0.24957 0.32523 0.0
H2244 H 0.27221 0.33815 0.29949 0.0
H2245 H 0.25595 0.30338 0.31682 0.0
H2246 H 0.35148 0.32052 0.33408 0.0
H2247 H 0.36704 0.35673 0.31707 0.0
C2248 C 0.29165 0.27495 0.35894 0.0
C2249 C 0.27441 0.24536 0.3565 0.0
C2250 C 0.30084 0.29573 0.34926 0.0
C2251 C 0.29313 0.28707 0.33701 0.0
C2252 C 0.27632 0.25718 0.3346 0.0
C2253 C 0.26694 0.23655 0.34427 0.0
C2254 C 0.28954 0.33482 0.30707 0.0
C2255 C 0.3209 0.35004 0.30694 0.0
C2256 C 0.2804 0.31461 0.3169 0.0
C2257 C 0.30254 0.30912 0.32675 0.0
C2258 C 0.33381 0.32455 0.32666 0.0
C2259 C 0.34287 0.3449 0.31686 0.0
H2260 H 1.04378 0.08764 0.54615 0.0
H2261 H 0.9581 0.04677 0.56462 0.0
H2262 H 0.07895 0.07123 0.56354 0.0
H2263 H 0.99293 1.03097 0.58208 0.0
H2264 H 0.07034 0.97502 0.60438 0.0
H2265 H 1.03633 0.99151 0.58684 0.0
H2266 H 0.0884 0.08536 0.58513 0.0
H2267 H 0.12372 0.06806 0.6023 0.0
C2268 C 1.03255 0.07529 0.55397 0.0
C2269 C 0.99842 0.06818 0.55407 0.0
C2270 C 0.05256 0.06605 0.56392 0.0
C2271 C 1.03864 0.0498 0.57413 0.0
C2272 C 1.00442 1.04293 0.57423 0.0
C2273 C 0.98451 0.05194 0.56426 0.0
C2274 C 0.07476 0.99902 0.60017 0.0
C2275 C 0.09974 1.02022 0.60465 0.0
C2276 C 0.05503 1.00862 0.59023 0.0
C2277 C 0.05971 1.03973 0.58465 0.0
C2278 C 0.08452 0.06108 0.58918 0.0
C2279 C 0.10442 0.05137 0.59909 0.0
H2280 H 0.26952 0.86684 0.85687 0.0
H2281 H 0.36274 0.81316 0.8584 0.0
H2282 H 0.25117 0.83135 0.83991 0.0
H2283 H 0.34517 0.77894 0.84104 0.0
H2284 H 0.29121 0.70316 0.81745 0.0
H2285 H 0.30605 0.73594 0.8356 0.0
H2286 H 0.26507 0.82387 0.81829 0.0
H2287 H 0.24963 0.7908 0.80026 0.0
C2288 C 0.28597 0.84732 0.85363 0.0
C2289 C 0.31759 0.84279 0.85891 0.0
C2290 C 0.27565 0.82732 0.84383 0.0
C2291 C 0.29683 0.80255 0.83912 0.0
C2292 C 0.32818 0.79763 0.84456 0.0
C2293 C 0.33841 0.81748 0.85439 0.0
C2294 C 0.28558 0.72954 0.81754 0.0
C2295 C 0.26949 0.74462 0.8075 0.0
C2296 C 0.29403 0.74827 0.8279 0.0
C2297 C 0.28673 0.78244 0.82834 0.0
C2298 C 0.2705 0.79747 0.81829 0.0
C2299 C 0.26184 0.77866 0.80796 0.0
H2300 H 0.46177 0.0954 0.09175 0.0
H2301 H 0.53103 1.04637 0.11628 0.0
H2302 H 0.49565 0.07924 1.07409 0.0
H2303 H 0.56538 1.03068 0.09864 0.0
H2304 H 0.59894 0.97905 1.06345 0.0
H2305 H 0.56379 0.99428 1.08082 0.0
H2306 H 0.54924 0.09205 1.06512 0.0
H2307 H 0.58304 0.07619 1.0474 0.0
C2308 C 0.48443 0.08138 0.09334 0.0
C2309 C 0.49395 0.07211 0.10532 0.0
C2310 C 0.50383 0.07222 0.08326 0.0
C2311 C 0.53317 0.0538 0.08501 0.0
C2312 C 0.54262 1.04447 0.09701 0.0
C2313 C 0.52307 0.05346 0.10709 0.0
C2314 C 0.5878 1.00362 1.06362 0.0
C2315 C 0.59353 1.0264 1.05405 0.0
C2316 C 0.56808 1.01248 1.07364 0.0
C2317 C 0.55387 1.04436 1.07432 0.0
C2318 C 0.55959 0.06716 1.06476 0.0
C2319 C 0.57921 0.05823 1.05469 0.0
H2320 H 0.34085 0.71299 0.34141 0.0
H2321 H 0.29721 0.78105 0.36773 0.0
H2322 H 0.32414 0.74952 0.32456 0.0
H2323 H 0.28099 0.81806 0.3509 0.0
H2324 H 0.22663 0.8564 0.31669 0.0
H2325 H 0.24274 0.81986 0.33357 0.0
H2326 H 0.3383 0.80365 0.31635 0.0
H2327 H 0.32151 0.83878 0.29912 0.0
C2328 C 0.32788 0.73594 0.34355 0.0
C2329 C 0.3203 0.74438 0.3558 0.0
C2330 C 0.31844 0.75686 0.33395 0.0
C2331 C 0.30144 0.78667 0.33644 0.0
C2332 C 0.29371 0.79501 0.34871 0.0
C2333 C 0.30298 0.77394 0.35832 0.0
C2334 C 0.25093 0.84471 0.31645 0.0
C2335 C 0.27276 0.85021 0.30657 0.0
C2336 C 0.2603 0.82417 0.32619 0.0
C2337 C 0.29173 0.80892 0.32625 0.0
C2338 C 0.31373 0.81476 0.31645 0.0
C2339 C 0.30429 0.83516 0.30667 0.0
H2340 H 0.63407 1.04415 0.59909 0.0
H2341 H 0.54886 0.08364 0.61846 0.0
H2342 H 0.59834 1.0276 0.58197 0.0
H2343 H 0.51283 0.06651 0.60142 0.0
H2344 H 0.46663 0.06633 0.56285 0.0
H2345 H 0.50215 0.08193 0.58016 0.0
H2346 H 0.55511 0.98862 0.57676 0.0
H2347 H 0.52085 0.97386 0.55904 0.0
C2348 C 0.60758 0.04877 0.59974 0.0
C2349 C 0.59412 0.06508 0.61005 0.0
C2350 C 0.58713 1.0393 0.58996 0.0
C2351 C 0.5528 1.0458 0.59036 0.0
C2352 C 0.53928 0.06167 0.60078 0.0
C2353 C 0.5598 0.07134 0.61053 0.0
C2354 C 0.48614 0.04937 0.56571 0.0
C2355 C 0.49101 1.01892 0.55959 0.0
C2356 C 0.50616 0.05808 0.57573 0.0
C2357 C 0.53131 1.03643 0.57984 0.0
C2358 C 0.53613 1.00596 0.57372 0.0
C2359 C 0.51626 0.99734 0.56367 0.0
H2360 H 0.33736 0.29086 0.79649 0.0
H2361 H 0.30064 0.20593 0.8166 0.0
H2362 H 0.32163 0.32724 0.8136 0.0
H2363 H 0.28551 0.24205 0.8338 0.0
H2364 H 0.22944 0.32093 0.85566 0.0
H2365 H 0.24545 0.28498 0.83858 0.0
H2366 H 0.33747 0.33934 0.83478 0.0
H2367 H 0.32062 0.37646 0.85147 0.0
C2368 C 0.32611 0.28004 0.80462 0.0
C2369 C 0.32 0.24575 0.80526 0.0
C2370 C 0.31725 0.30076 0.81441 0.0
C2371 C 0.30236 0.28745 0.82502 0.0
C2372 C 0.29644 0.25307 0.82565 0.0
C2373 C 0.30508 0.23241 0.81583 0.0
C2374 C 0.25293 0.32539 0.85109 0.0
C2375 C 0.27372 0.35157 0.85484 0.0
C2376 C 0.26228 0.30456 0.84142 0.0
C2377 C 0.29271 0.30937 0.83536 0.0
C2378 C 0.31369 0.33532 0.8392 0.0
C2379 C 0.30425 0.35628 0.84884 0.0
H2380 H 0.10116 0.11292 1.0647 0.0
H2381 H 0.083 1.01761 1.0474 0.0
H2382 H 0.0652 0.09754 0.08176 0.0
H2383 H 0.04835 1.00153 1.06481 0.0
H2384 H 0.95959 0.99956 0.0909 0.0
H2385 H 0.99478 1.01564 1.07363 0.0
H2386 H 0.06488 0.05984 0.09914 0.0
H2387 H 1.02925 1.04427 0.11638 0.0
C2388 C 0.0894 0.08871 1.06454 0.0
C2389 C 0.09468 0.06652 1.05469 0.0
C2390 C 0.06919 0.07974 1.07438 0.0
C2391 C 0.05404 0.04834 1.07461 0.0
C2392 C 0.05943 1.02607 1.0648 0.0
C2393 C 0.07953 1.03511 1.05491 0.0
C2394 C 0.9826 1.01262 0.09277 0.0
C2395 C 0.99185 1.02072 0.10491 0.0
C2396 C 1.00275 1.02172 0.08292 0.0
C2397 C 1.03259 1.03889 0.08506 0.0
C2398 C 1.04177 0.04704 0.09722 0.0
C2399 C 1.02148 1.03813 0.10707 0.0
H2400 H 0.79773 0.77698 0.86527 0.0
H2401 H 0.74431 0.71355 0.83985 0.0
H2402 H 0.81386 0.8129 0.8482 0.0
H2403 H 0.76082 0.74912 0.82273 0.0
H2404 H 0.7678 0.83955 0.79743 0.0
H2405 H 0.75075 0.80443 0.81459 0.0
H2406 H 0.84947 0.81162 0.83025 0.0
H2407 H 0.86598 0.84803 0.81347 0.0
C2408 C 0.78971 0.77062 0.85601 0.0
C2409 C 0.76981 0.74257 0.85385 0.0
C2410 C 0.79896 0.7911 0.84624 0.0
C2411 C 0.78863 0.78378 0.83413 0.0
C2412 C 0.76872 0.75568 0.83199 0.0
C2413 C 0.75933 0.7353 0.84176 0.0
C2414 C 0.78573 0.83385 0.8046 0.0
C2415 C 0.81822 0.84651 0.8041 0.0
C2416 C 0.7761 0.81346 0.81435 0.0
C2417 C 0.79879 0.80528 0.82376 0.0
C2418 C 0.83131 0.81781 0.82321 0.0
C2419 C 0.8409 0.83828 0.81351 0.0
H2420 H 0.84623 0.38142 0.34082 0.0
H2421 H 0.79971 0.31279 0.36603 0.0
H2422 H 0.82903 0.34689 0.32342 0.0
H2423 H 0.78299 0.2778 0.34865 0.0
H2424 H 0.72814 0.24368 0.31419 0.0
H2425 H 0.74495 0.27914 0.33131 0.0
H2426 H 0.84107 0.29304 0.31432 0.0
H2427 H 0.82358 0.25893 0.29685 0.0
C2428 C 0.83257 0.35875 0.34261 0.0
C2429 C 0.82424 0.34964 0.35471 0.0
C2430 C 0.82282 0.33898 0.33268 0.0
C2431 C 0.80472 0.30966 0.33469 0.0
C2432 C 0.79648 0.30054 0.34682 0.0
C2433 C 0.80606 0.32045 0.35675 0.0
C2434 C 0.75267 0.25473 0.31402 0.0
C2435 C 0.77451 0.24872 0.30416 0.0
C2436 C 0.76245 0.27463 0.32391 0.0
C2437 C 0.79434 0.28874 0.32416 0.0
C2438 C 0.8162 0.28275 0.3143 0.0
C2439 C 0.80635 0.26296 0.30438 0.0
H2440 H 0.75087 0.38016 0.81978 0.0
H2441 H 0.80005 0.31225 0.79478 0.0
H2442 H 0.76873 0.34647 0.83726 0.0
H2443 H 0.81742 0.27801 0.81225 0.0
H2444 H 0.8703 0.24407 0.84727 0.0
H2445 H 0.8542 0.27918 0.82997 0.0
H2446 H 0.75686 0.29274 0.8461 0.0
H2447 H 0.77358 0.25912 0.86373 0.0
C2448 C 0.76533 0.35785 0.81806 0.0
C2449 C 0.77404 0.34861 0.80599 0.0
C2450 C 0.77546 0.33854 0.82803 0.0
C2451 C 0.7943 0.30953 0.82611 0.0
C2452 C 0.80327 0.30048 0.81402 0.0
C2453 C 0.79332 0.31997 0.80404 0.0
C2454 C 0.84563 0.25496 0.8472 0.0
C2455 C 0.82324 0.24903 0.85688 0.0
C2456 C 0.83628 0.27467 0.83722 0.0
C2457 C 0.80429 0.28867 0.83669 0.0
C2458 C 0.78184 0.28262 0.84634 0.0
C2459 C 0.79126 0.26305 0.85636 0.0
H2460 H 0.79192 0.88727 0.34626 0.0
H2461 H 0.75695 0.79892 0.3647 0.0
H2462 H 0.80655 0.85408 0.3282 0.0
H2463 H 0.77222 0.76546 0.34674 0.0
H2464 H 0.77262 0.72111 0.30825 0.0
H2465 H 0.75569 0.75614 0.32553 0.0
H2466 H 0.84651 0.81265 0.32207 0.0
H2467 H 0.86253 0.77884 0.3044 0.0
C2468 C 0.78778 0.86065 0.34648 0.0
C2469 C 0.77347 0.84553 0.35684 0.0
C2470 C 0.79613 0.84167 0.33616 0.0
C2471 C 0.79052 0.80719 0.33606 0.0
C2472 C 0.77631 0.79207 0.34647 0.0
C2473 C 0.76774 0.81112 0.35676 0.0
C2474 C 0.78865 0.74139 0.31105 0.0
C2475 C 0.81892 0.74721 0.305 0.0
C2476 C 0.77919 0.76114 0.32104 0.0
C2477 C 0.79989 0.78698 0.3252 0.0
C2478 C 0.82989 0.79311 0.31902 0.0
C2479 C 0.83926 0.7735 0.30899 0.0
H2480 H 0.57088 0.47423 0.1031 0.0
H2481 H 0.62599 0.56586 0.09941 0.0
H2482 H 0.53651 0.48963 0.08549 0.0
H2483 H 0.59041 0.58209 0.08221 0.0
H2484 H 0.54324 0.58457 1.04399 0.0
H2485 H 0.5793 0.56684 1.06093 0.0
H2486 H 0.49362 0.52944 1.08048 0.0
H2487 H 0.45784 0.54659 1.06346 0.0
C2488 C 0.57565 0.49766 0.09852 0.0
C2489 C 0.60116 0.51882 0.10261 0.0
C2490 C 0.55572 0.50664 0.08853 0.0
C2491 C 0.56077 0.53706 0.08248 0.0
C2492 C 0.58622 0.55829 0.08659 0.0
C2493 C 0.60628 0.54922 0.09655 0.0
C2494 C 0.53226 0.57249 1.05192 0.0
C2495 C 0.49789 0.56681 1.05246 0.0
C2496 C 0.5528 0.56248 1.06162 0.0
C2497 C 0.53924 0.54683 1.07203 0.0
C2498 C 0.50484 0.54095 1.07249 0.0
C2499 C 0.48437 0.55076 1.06277 0.0
H2500 H 1.02758 0.54552 0.61566 0.0
H2501 H 0.95923 0.59303 0.59038 0.0
H2502 H 0.06333 0.53003 0.59838 0.0
H2503 H 0.99449 0.57703 0.57307 0.0
H2504 H 0.08245 0.57352 0.54685 0.0
H2505 H 0.04835 0.59003 0.56441 0.0
H2506 H 0.06313 0.49305 0.58074 0.0
H2507 H 0.09859 0.47721 0.56354 0.0
C2508 C 1.02013 0.55232 0.60638 0.0
C2509 C 0.99082 0.57045 0.60429 0.0
C2510 C 1.04049 0.54346 0.59651 0.0
C2511 C 1.03168 0.55238 0.58439 0.0
C2512 C 1.00219 0.57035 0.58233 0.0
C2513 C 0.98199 0.57939 0.5922 0.0
C2514 C 0.07866 0.5559 0.55427 0.0
C2515 C 0.09305 0.52407 0.55382 0.0
C2516 C 0.05887 0.5652 0.56424 0.0
C2517 C 0.05303 0.54277 0.57391 0.0
C2518 C 0.06748 0.51097 0.57348 0.0
C2519 C 0.08739 0.50174 0.56355 0.0
H2520 H 0.08726 0.52487 0.11127 0.0
H2521 H 0.10528 0.61915 0.0934 0.0
H2522 H 0.0516 0.50821 0.09418 0.0
H2523 H 0.06818 0.60316 1.0766 0.0
H2524 H 1.0293 0.54662 1.04258 0.0
H2525 H 0.06584 0.56437 1.05939 0.0
H2526 H 0.99752 0.52257 0.08589 0.0
H2527 H 0.96148 0.50435 1.06908 0.0
C2528 C 0.08362 0.542 0.10368 0.0
C2529 C 0.09901 0.57329 0.10366 0.0
C2530 C 0.06287 0.53264 0.09398 0.0
C2531 C 0.05697 0.55449 0.08411 0.0
C2532 C 0.07249 0.58573 0.08405 0.0
C2533 C 0.09339 0.59502 0.09373 0.0
C2534 C 1.0221 0.54153 1.05202 0.0
C2535 C 0.99281 0.52402 1.05459 0.0
C2536 C 1.0429 0.55169 1.06162 0.0
C2537 C 1.03458 0.54465 1.07393 0.0
C2538 C 1.00489 0.52773 1.07648 0.0
C2539 C 0.98424 0.51741 1.06689 0.0
H2540 H 0.45778 0.54443 0.59528 0.0
H2541 H 0.54362 0.50811 0.61523 0.0
H2542 H 0.49337 0.55938 0.57792 0.0
H2543 H 0.57917 0.52265 0.5978 0.0
H2544 H 0.63218 0.59237 0.57013 0.0
H2545 H 0.59724 0.57592 0.58747 0.0
H2546 H 0.52865 0.52881 0.56216 0.0
H2547 H 0.56344 0.54569 0.54478 0.0
C2548 C 0.48429 0.53983 0.59595 0.0
C2549 C 0.49808 0.52527 0.60656 0.0
C2550 C 0.50453 0.54803 0.586 0.0
C2551 C 0.53889 0.54204 0.58655 0.0
C2552 C 0.55273 0.52766 0.5972 0.0
C2553 C 0.53244 0.5192 0.60711 0.0
C2554 C 0.60959 0.57855 0.5683 0.0
C2555 C 0.60033 0.57036 0.55617 0.0
C2556 C 0.58981 0.56894 0.5782 0.0
C2557 C 0.56032 0.5512 0.5761 0.0
C2558 C 0.55118 0.54274 0.56397 0.0
C2559 C 0.57114 0.55212 0.55408 0.0
H2560 H 0.16209 1.01369 0.43681 0.0
H2561 H 0.24836 0.07219 0.42865 0.0
H2562 H 0.1929 0.98409 0.45292 0.0
H2563 H 0.27934 1.04302 0.44523 0.0
H2564 H 0.3198 0.99908 0.48482 0.0
H2565 H 0.29092 1.0304 0.46826 0.0
H2566 H 0.23433 0.94317 0.45916 0.0
H2567 H 0.26364 0.91206 0.47525 0.0
C2568 C 0.18789 1.02033 0.43822 0.0
C2569 C 0.20185 1.04575 0.43065 0.0
C2570 C 0.20605 1.00294 0.44777 0.0
C2571 C 0.23974 1.01 0.451 0.0
C2572 C 0.25382 1.03581 0.44353 0.0
C2573 C 0.23577 0.05271 0.43367 0.0
C2574 C 0.3009 0.98637 0.47948 0.0
C2575 C 0.29452 0.95211 0.4821 0.0
C2576 C 0.28417 1.00463 0.46963 0.0
C2577 C 0.2591 0.99044 0.46178 0.0
C2578 C 0.25259 0.95642 0.46461 0.0
C2579 C 0.26983 0.93808 0.47415 0.0
H2580 H 0.34287 0.06702 0.73487 0.0
H2581 H 0.42942 1.01014 0.72513 0.0
H2582 H 0.31078 1.03777 0.71859 0.0
H2583 H 0.39762 0.98054 0.7093 0.0
H2584 H 0.32685 0.90812 0.68744 0.0
H2585 H 0.35696 0.93926 0.70333 0.0
H2586 H 0.29662 1.02533 0.69587 0.0
H2587 H 0.26683 0.99395 0.67953 0.0
C2588 C 0.35532 0.04791 0.72954 0.0
C2589 C 0.38966 1.04139 0.73202 0.0
C2590 C 0.33661 1.03096 0.71987 0.0
C2591 C 0.35046 1.00558 0.71207 0.0
C2592 C 0.3846 0.99901 0.71475 0.0
C2593 C 0.40336 1.01642 0.72412 0.0
C2594 C 0.31993 0.93388 0.68888 0.0
C2595 C 0.29394 0.94763 0.68146 0.0
C2596 C 0.33766 0.95225 0.69828 0.0
C2597 C 0.33042 0.98596 0.70148 0.0
C2598 C 0.304 0.99981 0.69418 0.0
C2599 C 0.2867 0.98153 0.68447 0.0
H2600 H 0.27091 0.09076 0.98432 0.0
H2601 H 0.32708 0.1779 0.97518 0.0
H2602 H 0.30094 0.05918 0.96812 0.0
H2603 H 0.3576 0.14649 0.95946 0.0
H2604 H 0.43192 0.075 0.93837 0.0
H2605 H 0.39993 0.10492 0.95409 0.0
H2606 H 0.31375 0.04666 0.94509 0.0
H2607 H 0.3459 1.01725 0.92889 0.0
C2608 C 0.28995 0.10348 0.97912 0.0
C2609 C 0.29601 0.13781 0.98174 0.0
C2610 C 0.30741 0.08504 0.96951 0.0
C2611 C 0.33291 0.09917 0.96193 0.0
C2612 C 0.33903 0.13332 0.96473 0.0
C2613 C 0.32106 0.15183 0.97403 0.0
C2614 C 0.40598 0.0685 0.93944 0.0
C2615 C 0.39245 1.0432 0.93165 0.0
C2616 C 0.38713 0.08611 0.94874 0.0
C2617 C 0.35311 0.07936 0.95145 0.0
C2618 C 0.33948 0.05361 0.94378 0.0
C2619 C 0.35825 1.03651 0.93417 0.0
H2620 H 0.16122 0.07897 0.22466 0.0
H2621 H 0.24742 1.02036 0.23344 0.0
H2622 H 0.19251 0.10862 0.20881 0.0
H2623 H 0.27895 0.04965 0.21713 0.0
H2624 H 0.32139 0.09425 0.17816 0.0
H2625 H 0.29193 0.06271 0.19442 0.0
H2626 H 0.23355 0.14947 0.20286 0.0
H2627 H 0.26337 0.18077 0.18706 0.0
C2628 C 0.18709 0.07227 0.22342 0.0
C2629 C 0.20088 0.04682 0.23107 0.0
C2630 C 0.20555 0.08973 0.21404 0.0
C2631 C 0.23942 0.08271 0.21109 0.0
C2632 C 0.25332 0.05682 0.21862 0.0
C2633 C 0.23493 1.03982 0.22831 0.0
C2634 C 0.30198 0.10679 0.18329 0.0
C2635 C 0.29522 0.14095 0.18058 0.0
C2636 C 0.2849 0.08841 0.19296 0.0
C2637 C 0.25915 0.10241 0.20052 0.0
C2638 C 0.25232 0.13636 0.19761 0.0
C2639 C 0.26986 0.15481 0.18825 0.0
H2640 H 0.92339 1.03724 0.71515 0.0
H2641 H 0.84999 0.05924 0.74271 0.0
H2642 H 0.8906 0.06693 0.69962 0.0
H2643 H 0.81736 0.09039 0.72713 0.0
H2644 H 0.77896 0.17236 0.69809 0.0
H2645 H 0.8089 0.13968 0.71363 0.0
H2646 H 0.84295 0.07316 0.68521 0.0
H2647 H 0.81169 0.10556 0.66961 0.0
C2648 C 0.90014 0.04822 0.71809 0.0
C2649 C 0.89044 1.04456 0.73071 0.0
C2650 C 0.88078 0.06573 0.7089 0.0
C2651 C 0.85014 0.08219 0.7115 0.0
C2652 C 0.84039 0.07889 0.72419 0.0
C2653 C 0.85948 0.06047 0.73338 0.0
C2654 C 0.79243 0.15062 0.69495 0.0
C2655 C 0.79167 0.14266 0.68207 0.0
C2656 C 0.81005 0.13131 0.70414 0.0
C2657 C 0.82951 0.10263 0.70128 0.0
C2658 C 0.82904 0.09464 0.68835 0.0
C2659 C 0.81053 0.11356 0.67915 0.0
H2660 H 0.76131 0.17905 0.47564 0.0
H2661 H 0.8214 0.09388 0.4844 0.0
H2662 H 0.73181 0.14696 0.45983 0.0
H2663 H 0.79234 0.06161 0.46812 0.0
H2664 H 0.74832 1.01875 0.42883 0.0
H2665 H 0.77945 0.04878 0.44518 0.0
H2666 H 0.69138 0.1045 0.45409 0.0
H2667 H 0.66046 0.07405 0.43821 0.0
C2668 C 0.76834 0.15323 0.47442 0.0
C2669 C 0.79413 0.13997 0.48206 0.0
C2670 C 0.751 0.13432 0.46505 0.0
C2671 C 0.75854 0.10051 0.4621 0.0
C2672 C 0.78476 0.08715 0.46962 0.0
C2673 C 0.80161 0.10596 0.4793 0.0
C2674 C 0.73533 1.03759 0.43412 0.0
C2675 C 0.70094 1.04341 0.43152 0.0
C2676 C 0.75352 0.05505 0.44382 0.0
C2677 C 0.73904 0.08029 0.45152 0.0
C2678 C 0.70482 0.08616 0.44873 0.0
C2679 C 0.68659 0.06822 0.43934 0.0
H2680 H 0.82381 0.99886 0.17953 0.0
H2681 H 0.76173 0.91438 0.18662 0.0
H2682 H 0.79413 1.03045 0.19582 0.0
H2683 H 0.7317 0.94579 0.20245 0.0
H2684 H 0.66007 1.0181 0.22403 0.0
H2685 H 0.69164 0.98842 0.20816 0.0
H2686 H 0.7798 1.04174 0.21868 0.0
H2687 H 0.74795 0.07101 0.235 0.0
C2688 C 0.80349 0.98682 0.18427 0.0
C2689 C 0.79564 0.95323 0.18106 0.0
C2690 C 0.78627 1.00521 0.19395 0.0
C2691 C 0.75932 0.99179 0.201 0.0
C2692 C 0.75145 0.95842 0.19759 0.0
C2693 C 0.76912 0.93991 0.18823 0.0
C2694 C 0.68633 1.02355 0.22326 0.0
C2695 C 0.70049 0.04743 0.2315 0.0
C2696 C 0.70495 1.00607 0.21388 0.0
C2697 C 0.7394 1.01153 0.21155 0.0
C2698 C 0.7537 1.03586 0.21968 0.0
C2699 C 0.7351 0.05286 0.22935 0.0
H2700 H 0.82684 0.91569 0.97458 0.0
H2701 H 0.7704 1.0028 0.98407 0.0
H2702 H 0.85724 0.94728 0.95897 0.0
H2703 H 0.8003 1.03455 0.96797 0.0
H2704 H 0.84515 0.07696 0.92883 0.0
H2705 H 0.8131 0.04739 0.94492 0.0
H2706 H 0.89949 0.98893 0.95374 0.0
H2707 H 0.93139 1.01901 0.93813 0.0
C2708 C 0.82073 0.94179 0.97354 0.0
C2709 C 0.79564 0.95572 0.98131 0.0
C2710 C 0.83863 0.96041 0.9643 0.0
C2711 C 0.83241 0.99462 0.96161 0.0
C2712 C 0.80686 1.00866 0.96926 0.0
C2713 C 0.78948 0.99011 0.97882 0.0
C2714 C 0.85758 0.05763 0.93404 0.0
C2715 C 0.89183 0.05095 0.93149 0.0
C2716 C 0.83886 1.04043 0.94359 0.0
C2717 C 0.85256 1.01456 0.95119 0.0
C2718 C 0.88662 1.00782 0.94845 0.0
C2719 C 0.90543 1.02553 0.93922 0.0
H2720 H 0.74997 0.56892 0.92761 0.0
H2721 H 0.66395 0.5102 0.93592 0.0
H2722 H 0.7815 0.53917 0.94391 0.0
H2723 H 0.6953 0.48002 0.95173 0.0
H2724 H 0.76673 0.40716 0.97336 0.0
H2725 H 0.73714 0.43876 0.95746 0.0
H2726 H 0.79349 0.52587 0.96692 0.0
H2727 H 0.82264 0.49406 0.9833 0.0
C2728 C 0.73754 0.54929 0.93261 0.0
C2729 C 0.70351 0.54246 0.92973 0.0
C2730 C 0.75592 0.53203 0.9423 0.0
C2731 C 0.74207 0.50597 0.9497 0.0
C2732 C 0.70828 0.49904 0.94661 0.0
C2733 C 0.6898 0.51679 0.93724 0.0
C2734 C 0.77289 0.43321 0.97235 0.0
C2735 C 0.79758 0.44708 0.98034 0.0
C2736 C 0.75546 0.45185 0.96295 0.0
C2737 C 0.76177 0.48602 0.9603 0.0
C2738 C 0.78691 0.50001 0.96816 0.0
C2739 C 0.80385 0.48142 0.97788 0.0
H2740 H 0.8134 0.49052 0.16865 0.0
H2741 H 0.77792 0.42605 0.19724 0.0
H2742 H 0.84459 0.52291 0.18429 0.0
H2743 H 0.80789 0.45869 0.2128 0.0
H2744 H 0.84999 0.5386 0.24183 0.0
H2745 H 0.8173 0.50773 0.2262 0.0
H2746 H 0.8915 0.52912 0.1989 0.0
H2747 H 0.9243 0.55864 0.21449 0.0
C2748 C 0.8116 0.48308 0.17821 0.0
C2749 C 0.79205 0.4546 0.18116 0.0
C2750 C 0.8301 0.50196 0.18744 0.0
C2751 C 0.82988 0.49457 0.20041 0.0
C2752 C 0.80964 0.46657 0.20328 0.0
C2753 C 0.79203 0.44729 0.19408 0.0
C2754 C 0.85969 0.53697 0.23254 0.0
C2755 C 0.89092 0.55223 0.22995 0.0
C2756 C 0.84056 0.5187 0.22332 0.0
C2757 C 0.85056 0.5149 0.21067 0.0
C2758 C 0.88148 0.53072 0.20814 0.0
C2759 C 0.90087 0.5481 0.21737 0.0
H2760 H 0.84469 0.52147 0.42797 0.0
H2761 H 0.92936 0.58229 0.43638 0.0
H2762 H 0.81257 0.55068 0.44423 0.0
H2763 H 0.89744 0.61188 0.45218 0.0
H2764 H 0.825 0.68318 0.47391 0.0
H2765 H 0.8552 0.65208 0.45806 0.0
H2766 H 0.79975 0.56422 0.46703 0.0
H2767 H 0.76992 0.59559 0.48335 0.0
C2768 C 0.85669 0.54144 0.43299 0.0
C2769 C 0.89051 0.54906 0.43014 0.0
C2770 C 0.83797 0.55839 0.44266 0.0
C2771 C 0.85124 0.58486 0.45008 0.0
C2772 C 0.88486 0.59252 0.44703 0.0
C2773 C 0.90368 0.57512 0.43767 0.0
C2774 C 0.81916 0.65707 0.47281 0.0
C2775 C 0.79448 0.64287 0.48064 0.0
C2776 C 0.83697 0.63871 0.46343 0.0
C2777 C 0.83113 0.60449 0.46066 0.0
C2778 C 0.806 0.59015 0.46837 0.0
C2779 C 0.78866 0.60847 0.47805 0.0
H2780 H 0.74073 0.55301 0.74196 0.0
H2781 H 0.66838 0.52882 0.71417 0.0
H2782 H 0.77301 0.58413 0.7264 0.0
H2783 H 0.70078 0.55869 0.69866 0.0
H2784 H 0.77859 0.59875 0.66883 0.0
H2785 H 0.74785 0.56604 0.68438 0.0
H2786 H 0.78136 0.63263 0.71289 0.0
H2787 H 0.81091 0.66552 0.69741 0.0
C2788 C 0.73142 0.55376 0.73258 0.0
C2789 C 0.70085 0.53732 0.72984 0.0
C2790 C 0.75028 0.57219 0.72341 0.0
C2791 C 0.74067 0.57499 0.71067 0.0
C2792 C 0.71045 0.55794 0.70799 0.0
C2793 C 0.6913 0.54038 0.71716 0.0
C2794 C 0.77975 0.60668 0.67838 0.0
C2795 C 0.79825 0.63588 0.68136 0.0
C2796 C 0.76153 0.58759 0.68755 0.0
C2797 C 0.76103 0.59554 0.70049 0.0
C2798 C 0.78022 0.6243 0.70339 0.0
C2799 C 0.79757 0.64374 0.69424 0.0
H2800 H 0.42959 0.57743 0.2246 0.0
H2801 H 0.34333 0.51966 0.23347 0.0
H2802 H 0.39803 0.60748 0.20882 0.0
H2803 H 0.31152 0.54936 0.21723 0.0
H2804 H 0.26834 0.59472 0.17829 0.0
H2805 H 0.29792 0.56279 0.19453 0.0
H2806 H 0.35712 0.64879 0.20293 0.0
H2807 H 0.32719 0.68048 0.18715 0.0
C2808 C 0.40365 0.57099 0.2234 0.0
C2809 C 0.38996 0.54564 0.23105 0.0
C2810 C 0.38503 0.5887 0.21405 0.0
C2811 C 0.35105 0.58206 0.21115 0.0
C2812 C 0.33723 0.55627 0.21869 0.0
C2813 C 0.35579 0.53902 0.22833 0.0
C2814 C 0.28792 0.60703 0.18342 0.0
C2815 C 0.29489 0.64109 0.1807 0.0
C2816 C 0.3051 0.5884 0.19307 0.0
C2817 C 0.33115 0.60204 0.2006 0.0
C2818 C 0.33812 0.63592 0.19769 0.0
C2819 C 0.3205 0.65462 0.18835 0.0
H2820 H 0.31807 0.67273 0.96387 0.0
H2821 H 0.27867 0.61025 0.99235 0.0
H2822 H 0.28829 0.64044 0.94813 0.0
H2823 H 0.24751 0.57843 0.97654 0.0
H2824 H 0.16761 0.54688 0.94563 0.0
H2825 H 0.20036 0.57604 0.96132 0.0
H2826 H 0.27942 0.58867 0.93517 0.0
H2827 H 0.24682 0.55779 0.91946 0.0
C2828 C 0.30316 0.65202 0.96697 0.0
C2829 C 0.30203 0.64509 0.9799 0.0
C2830 C 0.28564 0.63297 0.95767 0.0
C2831 C 0.26435 0.60573 0.96046 0.0
C2832 C 0.26293 0.59879 0.97345 0.0
C2833 C 0.28138 0.61734 0.98277 0.0
C2834 C 0.19207 0.5555 0.94301 0.0
C2835 C 0.20343 0.54879 0.93073 0.0
C2836 C 0.21141 0.57258 0.9523 0.0
C2837 C 0.2437 0.58576 0.95012 0.0
C2838 C 0.25507 0.57969 0.93775 0.0
C2839 C 0.23597 0.56151 0.92849 0.0
H2840 H 0.32194 0.50227 0.67742 0.0
H2841 H 0.26786 0.41451 0.68742 0.0
H2842 H 0.29232 0.53386 0.69373 0.0
H2843 H 0.23782 0.44585 0.70327 0.0
H2844 H 0.16368 0.5159 0.72488 0.0
H2845 H 0.19535 0.48611 0.70906 0.0
H2846 H 0.2802 0.54771 0.71659 0.0
H2847 H 0.24836 0.57711 0.73288 0.0
C2848 C 0.30345 0.48939 0.68284 0.0
C2849 C 0.29784 0.45488 0.68042 0.0
C2850 C 0.28624 0.50785 0.69252 0.0
C2851 C 0.26146 0.49354 0.70038 0.0
C2852 C 0.2558 0.45919 0.69777 0.0
C2853 C 0.2735 0.4407 0.6884 0.0
C2854 C 0.18929 0.52316 0.72348 0.0
C2855 C 0.20256 0.54936 0.73091 0.0
C2856 C 0.20797 0.50562 0.71411 0.0
C2857 C 0.2415 0.51332 0.71095 0.0
C2858 C 0.25486 0.53997 0.71826 0.0
C2859 C 0.23629 0.55704 0.72794 0.0
H2860 H 0.32268 0.41065 0.47347 0.0
H2861 H 0.2691 0.49879 0.48391 0.0
H2862 H 0.35296 0.44205 0.4578 0.0
H2863 H 0.29895 0.53044 0.46777 0.0
H2864 H 0.34329 0.57405 0.42885 0.0
H2865 H 0.31116 0.54455 0.44494 0.0
H2866 H 0.39576 0.48213 0.45234 0.0
H2867 H 0.42772 0.51203 0.43673 0.0
C2868 C 0.31719 0.43693 0.47262 0.0
C2869 C 0.29292 0.4512 0.48066 0.0
C2870 C 0.33503 0.45545 0.46335 0.0
C2871 C 0.32958 0.48992 0.46093 0.0
C2872 C 0.30486 0.50432 0.46885 0.0
C2873 C 0.28752 0.48583 0.47842 0.0
C2874 C 0.35524 0.55379 0.43372 0.0
C2875 C 0.38899 0.54592 0.43078 0.0
C2876 C 0.33651 0.53665 0.44328 0.0
C2877 C 0.34971 0.50975 0.45049 0.0
C2878 C 0.38326 0.50185 0.44736 0.0
C2879 C 0.4021 0.51945 0.43811 0.0
H2880 H 0.16854 0.12575 0.35535 0.0
H2881 H 0.14611 1.02721 0.36809 0.0
H2882 H 0.16846 0.10563 0.33394 0.0
H2883 H 0.14585 1.00689 0.34674 0.0
H2884 H 0.16829 0.96909 0.3067 0.0
H2885 H 0.16899 0.98932 0.32806 0.0
H2886 H 0.14469 0.08785 0.3153 0.0
H2887 H 0.14419 0.06739 0.29395 0.0
C2888 C 0.16353 0.09965 0.35371 0.0
C2889 C 0.15738 0.0786 0.36398 0.0
C2890 C 0.16328 0.08783 0.34115 0.0
C2891 C 0.15713 0.05397 0.33792 0.0
C2892 C 0.15116 1.03294 0.34826 0.0
C2893 C 0.15114 1.04484 0.3608 0.0
C2894 C 0.16306 0.99516 0.30833 0.0
C2895 C 0.1562 1.0161 0.29807 0.0
C2896 C 0.16326 1.00705 0.32087 0.0
C2897 C 0.15688 1.04089 0.32411 0.0
C2898 C 0.15021 0.06182 0.31377 0.0
C2899 C 0.14974 0.04984 0.30124 0.0
H2900 H 0.31441 0.89174 0.61879 0.0
H2901 H 0.21589 0.91421 0.60576 0.0
H2902 H 0.33503 0.89247 0.5975 0.0
H2903 H 0.23628 0.91513 0.58446 0.0
H2904 H 0.27495 0.89304 0.54449 0.0
H2905 H 0.25439 0.89239 0.56578 0.0
H2906 H 0.3526 0.91637 0.57898 0.0
H2907 H 0.37294 0.91682 0.55766 0.0
C2908 C 0.29685 0.89696 0.61145 0.0
C2909 C 0.263 0.90289 0.61453 0.0
C2910 C 0.30892 0.89757 0.59896 0.0
C2911 C 0.28798 0.90387 0.58856 0.0
C2912 C 0.25403 0.90971 0.5917 0.0
C2913 C 0.24205 0.90937 0.60421 0.0
C2914 C 0.29241 0.89828 0.55186 0.0
C2915 C 0.32609 0.90501 0.54882 0.0
C2916 C 0.28037 0.89808 0.56436 0.0
C2917 C 0.30118 0.90431 0.5748 0.0
C2918 C 0.33496 0.91095 0.57169 0.0
C2919 C 0.34691 0.91142 0.55919 0.0
H2920 H 0.42254 0.12042 0.80705 0.0
H2921 H 0.44961 1.02276 0.79431 0.0
H2922 H 0.42222 0.10033 0.8284 0.0
H2923 H 0.44956 1.00245 0.81564 0.0
H2924 H 0.42691 0.9642 0.8556 0.0
H2925 H 0.42642 0.98408 0.8342 0.0
H2926 H 0.44565 0.08367 0.84708 0.0
H2927 H 0.44591 0.06362 0.86841 0.0
C2928 C 0.42852 0.09452 0.80869 0.0
C2929 C 0.43607 0.07371 0.79844 0.0
C2930 C 0.42855 0.08272 0.82121 0.0
C2931 C 0.43591 0.04911 0.82443 0.0
C2932 C 0.44328 1.02829 0.81411 0.0
C2933 C 0.44349 1.04019 0.8016 0.0
C2934 C 0.43102 0.99043 0.85398 0.0
C2935 C 0.43639 1.01183 0.86425 0.0
C2936 C 0.43095 1.00212 0.84143 0.0
C2937 C 0.43599 1.03614 0.83822 0.0
C2938 C 0.44118 0.05748 0.84858 0.0
C2939 C 0.4415 1.04573 0.8611 0.0
H2940 H 0.21703 0.1711 1.05752 0.0
H2941 H 0.31573 0.19158 1.04453 0.0
H2942 H 0.23742 0.17162 1.0789 0.0
H2943 H 0.33628 0.19235 1.06583 0.0
H2944 H 0.37432 0.17107 0.10586 0.0
H2945 H 0.35374 0.1696 0.08454 0.0
H2946 H 0.2558 0.19599 0.09733 0.0
H2947 H 0.27658 0.1972 0.11862 0.0
C2948 C 0.24321 0.17573 1.0591 0.0
C2949 C 0.26426 0.1812 1.04879 0.0
C2950 C 0.25519 0.17627 1.07163 0.0
C2951 C 0.28917 0.18205 1.07477 0.0
C2952 C 0.31015 0.18733 1.06438 0.0
C2953 C 0.29812 0.18705 1.05188 0.0
C2954 C 0.34831 0.1766 0.10423 0.0
C2955 C 0.32761 0.18427 0.11447 0.0
C2956 C 0.33622 0.17595 0.09173 0.0
C2957 C 0.30244 0.18269 0.08853 0.0
C2958 C 0.28176 0.19016 0.09885 0.0
C2959 C 0.29393 0.19104 0.11134 0.0
H2960 H 0.94981 0.06821 0.79426 0.0
H2961 H 0.92363 0.97074 0.80714 0.0
H2962 H 0.94962 0.08901 0.81555 0.0
H2963 H 0.92311 0.99136 0.82846 0.0
H2964 H 0.94578 1.02918 0.86847 0.0
H2965 H 0.94565 1.00852 0.84718 0.0
H2966 H 0.92707 0.10796 0.83407 0.0
H2967 H 0.92751 0.12844 0.85543 0.0
C2968 C 0.94384 0.05092 0.80157 0.0
C2969 C 0.93673 1.0173 0.79845 0.0
C2970 C 0.94355 0.06311 0.81407 0.0
C2971 C 0.93635 1.04254 0.82443 0.0
C2972 C 0.92928 1.00882 0.82124 0.0
C2973 C 0.92937 0.9967 0.80873 0.0
C2974 C 0.94156 0.04691 0.86112 0.0
C2975 C 0.93662 0.08096 0.8642 0.0
C2976 C 0.94131 1.03481 0.84862 0.0
C2977 C 0.93634 0.05589 0.8382 0.0
C2978 C 0.93145 0.09006 0.84134 0.0
C2979 C 0.93148 0.10211 0.85386 0.0
H2980 H 0.81572 0.1996 0.61835 0.0
H2981 H 0.7172 0.17679 0.60549 0.0
H2982 H 0.83609 0.19873 0.59704 0.0
H2983 H 0.73736 0.17572 0.58414 0.0
H2984 H 0.77543 0.19835 0.54421 0.0
H2985 H 0.75514 0.19884 0.56552 0.0
H2986 H 0.85356 0.17444 0.57848 0.0
H2987 H 0.87367 0.17416 0.55712 0.0
C2988 C 0.7981 0.19425 0.61104 0.0
C2989 C 0.76433 0.18826 0.61416 0.0
C2990 C 0.81003 0.19357 0.59854 0.0
C2991 C 0.78901 0.18713 0.58818 0.0
C2992 C 0.75514 0.18123 0.59137 0.0
C2993 C 0.7433 0.18164 0.60389 0.0
C2994 C 0.793 0.19296 0.55153 0.0
C2995 C 0.82666 0.18616 0.54842 0.0
C2996 C 0.78111 0.19308 0.56404 0.0
C2997 C 0.80207 0.18669 0.57441 0.0
C2998 C 0.83584 0.17997 0.57124 0.0
C2999 C 0.84765 0.17958 0.55871 0.0
H3000 H 0.66957 0.96584 0.35536 0.0
H3001 H 0.64837 0.06441 0.36865 0.0
H3002 H 0.67002 0.98661 0.33408 0.0
H3003 H 0.6485 0.08536 0.34744 0.0
H3004 H 0.67022 0.12412 0.30757 0.0
H3005 H 0.67097 0.10336 0.32885 0.0
H3006 H 0.64727 1.00512 0.31556 0.0
H3007 H 0.64685 1.02604 0.29435 0.0
C3008 C 0.66495 0.99207 0.35386 0.0
C3009 C 0.65899 1.01294 0.36424 0.0
C3010 C 0.66499 1.00429 0.34139 0.0
C3011 C 0.65927 1.03837 0.33835 0.0
C3012 C 0.6535 0.05918 0.3488 0.0
C3013 C 0.65325 0.0469 0.36126 0.0
C3014 C 0.66519 0.098 0.30908 0.0
C3015 C 0.65853 0.07726 0.29872 0.0
C3016 C 0.6654 0.08579 0.32156 0.0
C3017 C 0.65917 0.05186 0.32462 0.0
C3018 C 0.65269 1.03118 0.31418 0.0
C3019 C 0.65227 1.04344 0.30172 0.0
H3020 H 0.77449 0.89772 0.11835 0.0
H3021 H 0.8732 0.91938 0.10564 0.0
H3022 H 0.754 0.89892 0.09701 0.0
H3023 H 0.85294 0.92088 0.0843 0.0
H3024 H 0.815 0.89958 1.04428 0.0
H3025 H 0.83512 0.8987 1.06563 0.0
H3026 H 0.73657 0.9227 1.07841 0.0
H3027 H 0.71659 0.92326 1.05698 0.0
C3028 C 0.79211 0.90288 0.11107 0.0
C3029 C 0.82598 0.9084 0.11424 0.0
C3030 C 0.78012 0.90376 0.09855 0.0
C3031 C 0.80117 0.90999 0.08824 0.0
C3032 C 0.83512 0.91549 0.09148 0.0
C3033 C 0.84703 0.91482 0.104 0.0
C3034 C 0.79737 0.90482 1.05157 0.0
C3035 C 0.76372 0.91158 1.04838 0.0
C3036 C 0.80916 0.90447 1.06411 0.0
C3037 C 0.78813 0.91063 1.07444 0.0
C3038 C 0.75435 0.91734 1.0712 0.0
C3039 C 0.74262 0.9179 1.05864 0.0
H3040 H 0.66899 0.6206 0.85467 0.0
H3041 H 0.64359 0.52303 0.86767 0.0
H3042 H 0.66911 0.59996 0.83337 0.0
H3043 H 0.64339 0.50219 0.84638 0.0
H3044 H 0.66529 0.46299 0.80646 0.0
H3045 H 0.66596 0.48346 0.82781 0.0
H3046 H 0.64596 0.58269 0.81475 0.0
H3047 H 0.64559 0.56203 0.79346 0.0
C3048 C 0.66332 0.59461 0.8531 0.0
C3049 C 0.6563 0.57399 0.86341 0.0
C3050 C 0.66318 0.58249 0.8406 0.0
C3051 C 0.65621 0.54873 0.83746 0.0
C3052 C 0.64935 0.52812 0.84784 0.0
C3053 C 0.64929 0.54032 0.86033 0.0
C3054 C 0.66103 0.48926 0.80803 0.0
C3055 C 0.65542 0.51036 0.79772 0.0
C3056 C 0.66121 0.5013 0.82055 0.0
C3057 C 0.65601 0.53541 0.8237 0.0
C3058 C 0.65057 0.55645 0.8133 0.0
C3059 C 0.65017 0.54436 0.8008 0.0
H3060 H 0.87519 0.4144 1.05676 0.0
H3061 H 0.77648 0.39232 1.04394 0.0
H3062 H 0.85518 0.41497 1.07815 0.0
H3063 H 0.75631 0.39257 1.06524 0.0
H3064 H 0.71828 0.41505 0.10507 0.0
H3065 H 0.73864 0.41521 0.08379 0.0
H3066 H 0.8374 0.39293 0.09692 0.0
H3067 H 0.81678 0.39309 0.11823 0.0
C3068 C 0.84908 0.40961 1.05838 0.0
C3069 C 0.82793 0.40338 1.04809 0.0
C3070 C 0.83732 0.40973 1.07092 0.0
C3071 C 0.80344 0.40384 1.07413 0.0
C3072 C 0.78236 0.39775 1.06376 0.0
C3073 C 0.79418 0.39742 1.05124 0.0
C3074 C 0.74443 0.41012 0.10354 0.0
C3075 C 0.76536 0.40404 0.1139 0.0
C3076 C 0.75641 0.41001 0.09104 0.0
C3077 C 0.79034 0.404 0.08792 0.0
C3078 C 0.81129 0.3981 0.09835 0.0
C3079 C 0.79922 0.39801 0.11086 0.0
H3080 H 0.94803 0.56852 0.36791 0.0
H3081 H 0.92658 0.46983 0.35488 0.0
H3082 H 0.9479 0.58898 0.34661 0.0
H3083 H 0.92617 0.49008 0.33354 0.0
H3084 H 0.94897 0.52848 0.29366 0.0
H3085 H 0.94887 0.50801 0.31495 0.0
H3086 H 0.92518 0.60663 0.32793 0.0
H3087 H 0.92557 0.62689 0.3066 0.0
C3088 C 0.94313 0.55089 0.36056 0.0
C3089 C 0.93731 0.51704 0.36364 0.0
C3090 C 0.94287 0.56287 0.34806 0.0
C3091 C 0.93702 0.54185 0.33765 0.0
C3092 C 0.93126 0.5079 0.34079 0.0
C3093 C 0.93129 0.49599 0.35331 0.0
C3094 C 0.94364 0.54605 0.30098 0.0
C3095 C 0.93727 0.57982 0.29788 0.0
C3096 C 0.9434 0.53406 0.31349 0.0
C3097 C 0.93702 0.555 0.32387 0.0
C3098 C 0.9307 0.58888 0.3207 0.0
C3099 C 0.93072 0.60079 0.30818 0.0
H3100 H 0.71592 0.67628 0.5568 0.0
H3101 H 0.81508 0.69647 0.54425 0.0
H3102 H 0.73579 0.67567 0.57824 0.0
H3103 H 0.83513 0.69617 0.56562 0.0
H3104 H 0.87233 0.67332 0.60557 0.0
H3105 H 0.85217 0.67318 0.58422 0.0
H3106 H 0.75382 0.69804 0.597 0.0
H3107 H 0.77422 0.69787 0.61837 0.0
C3108 C 0.7421 0.68066 0.55849 0.0
C3109 C 0.76342 0.68638 0.54827 0.0
C3110 C 0.75378 0.68051 0.57106 0.0
C3111 C 0.78773 0.68586 0.57436 0.0
C3112 C 0.80899 0.69143 0.56406 0.0
C3113 C 0.79726 0.69178 0.55151 0.0
C3114 C 0.84631 0.67881 0.60395 0.0
C3115 C 0.82541 0.6856 0.61421 0.0
C3116 C 0.83446 0.67894 0.59141 0.0
C3117 C 0.80071 0.68567 0.58818 0.0
C3118 C 0.77979 0.69229 0.59852 0.0
C3119 C 0.79173 0.69236 0.61106 0.0
H3120 H 0.42551 0.62385 0.3554 0.0
H3121 H 0.44716 0.52497 0.36814 0.0
H3122 H 0.42516 0.60381 0.33401 0.0
H3123 H 0.44709 0.50471 0.34677 0.0
H3124 H 0.42439 0.46739 0.30668 0.0
H3125 H 0.4241 0.48745 0.32806 0.0
H3126 H 0.4481 0.58598 0.31539 0.0
H3127 H 0.44811 0.56571 0.29402 0.0
C3128 C 0.43028 0.59769 0.35376 0.0
C3129 C 0.43634 0.57652 0.36402 0.0
C3130 C 0.43029 0.58591 0.34121 0.0
C3131 C 0.43612 0.55198 0.33797 0.0
C3132 C 0.44201 0.53083 0.3483 0.0
C3133 C 0.44223 0.54268 0.36085 0.0
C3134 C 0.42964 0.49343 0.30834 0.0
C3135 C 0.43624 0.51444 0.2981 0.0
C3136 C 0.42968 0.50521 0.32089 0.0
C3137 C 0.4361 0.53899 0.32415 0.0
C3138 C 0.44255 0.55999 0.31384 0.0
C3139 C 0.44273 0.54812 0.3013 0.0
H3140 H 0.37533 0.67986 1.0569 0.0
H3141 H 0.27679 0.70216 1.04386 0.0
H3142 H 0.35489 0.67895 1.07821 0.0
H3143 H 0.25615 0.70152 1.06513 0.0
H3144 H 0.21778 0.67806 0.1049 0.0
H3145 H 0.23834 0.67832 0.08362 0.0
H3146 H 0.3367 0.70105 0.09696 0.0
H3147 H 0.31591 0.70052 0.11823 0.0
C3148 C 0.34916 0.68464 1.05845 0.0
C3149 C 0.32822 0.69105 1.04813 0.0
C3150 C 0.33714 0.68432 1.07096 0.0
C3151 C 0.30318 0.69015 1.0741 0.0
C3152 C 0.28227 0.69641 1.06369 0.0
C3153 C 0.29436 0.69696 1.0512 0.0
C3154 C 0.24388 0.68315 0.10341 0.0
C3155 C 0.26466 0.68924 0.11381 0.0
C3156 C 0.25597 0.68351 0.09092 0.0
C3157 C 0.28987 0.68976 0.08786 0.0
C3158 C 0.31064 0.69568 0.09834 0.0
C3159 C 0.29847 0.69555 0.11083 0.0
H3160 H 0.14486 0.52944 0.79372 0.0
H3161 H 0.16735 0.62805 0.80661 0.0
H3162 H 0.14464 0.50927 0.81506 0.0
H3163 H 0.16736 0.60807 0.82798 0.0
H3164 H 0.14364 0.57005 0.86792 0.0
H3165 H 0.14386 0.59044 0.84659 0.0
H3166 H 0.16785 0.49181 0.8337 0.0
H3167 H 0.16741 0.47167 0.85502 0.0
C3168 C 0.14992 0.54711 0.80104 0.0
C3169 C 0.15616 0.58084 0.79792 0.0
C3170 C 0.14996 0.5353 0.81357 0.0
C3171 C 0.15599 0.5564 0.82394 0.0
C3172 C 0.16213 0.59023 0.82075 0.0
C3173 C 0.16234 0.60197 0.80821 0.0
C3174 C 0.14904 0.55247 0.8606 0.0
C3175 C 0.15548 0.51873 0.86372 0.0
C3176 C 0.14935 0.5644 0.84809 0.0
C3177 C 0.15586 0.5434 0.83773 0.0
C3178 C 0.16222 0.50958 0.84091 0.0
C3179 C 0.16216 0.49775 0.85343 0.0
H3180 H 0.31415 0.39853 0.54343 0.0
H3181 H 0.21587 0.42127 0.55649 0.0
H3182 H 0.33514 0.39923 0.56467 0.0
H3183 H 0.2367 0.42229 0.5778 0.0
H3184 H 0.27617 0.39992 0.61765 0.0
H3185 H 0.25511 0.39974 0.5964 0.0
H3186 H 0.35332 0.42259 0.58316 0.0
H3187 H 0.37421 0.42245 0.60446 0.0
C3188 C 0.29672 0.40388 0.55078 0.0
C3189 C 0.26283 0.40987 0.54773 0.0
C3190 C 0.30902 0.40446 0.56325 0.0
C3191 C 0.2883 0.41085 0.57364 0.0
C3192 C 0.25429 0.41681 0.57054 0.0
C3193 C 0.24205 0.41643 0.55805 0.0
C3194 C 0.29353 0.40503 0.61027 0.0
C3195 C 0.32738 0.41124 0.61328 0.0
C3196 C 0.28119 0.40509 0.59781 0.0
C3197 C 0.30183 0.41114 0.58738 0.0
C3198 C 0.33579 0.41733 0.59045 0.0
C3199 C 0.34807 0.41747 0.60294 0.0
loop_
_geom_bond_atom_site_label_1
_geom_bond_atom_site_label_2
_geom_bond_distance
_geom_bond_site_symmetry_2
_ccdc_geom_bond_type
Nd0 C2 2.836 . S
Nd0 O20 2.500 . S
Nd0 O21 2.492 . S
Nd0 O22 2.487 . S
Nd0 O23 2.682 . S
Nd0 O24 2.410 . S
Nd0 O29 2.414 . S
Nd0 O31 2.424 . S
Nd1 C11 2.836 . S
Nd1 O23 2.414 . S
Nd1 O25 2.424 . S
Nd1 O26 2.500 . S
Nd1 O27 2.492 . S
Nd1 O28 2.487 . S
Nd1 O29 2.682 . S
Nd1 O30 2.410 . S
C2 Nd0 2.836 . S
C2 C3 1.498 . S
C2 O20 1.258 . S
C2 O21 1.239 . S
C3 C2 1.498 . S
C3 C4 1.366 . S
C3 C8 1.407 . S
C4 C3 1.366 . S
C4 C5 1.392 1_455 S
C4 H32 0.930 . S
C5 C4 1.392 1_655 S
C5 C6 1.398 . S
C5 H33 0.929 . S
C6 C5 1.398 . S
C6 C7 1.352 1_655 S
C7 C6 1.352 1_455 S
C7 C8 1.384 . S
C7 H34 0.930 . S
C8 C3 1.407 . S
C8 C7 1.384 . S
C8 H35 0.929 . S
C9 O22 1.241 . S
C9 O23 1.273 . S
C10 O24 1.251 . S
C10 O25 1.268 . S
C11 Nd1 2.836 . S
C11 C12 1.498 . S
C11 O26 1.258 . S
C11 O27 1.239 . S
C12 C11 1.498 . S
C12 C13 1.366 . S
C12 C17 1.407 . S
C13 C12 1.366 . S
C13 C14 1.392 . S
C13 H36 0.930 . S
C14 C13 1.392 . S
C14 C15 1.398 . S
C14 H37 0.929 . S
C15 C14 1.398 . S
C15 C16 1.352 . S
C16 C15 1.352 . S
C16 C17 1.384 . S
C16 H38 0.930 . S
C17 C12 1.407 . S
C17 C16 1.384 . S
C17 H39 0.929 . S
C18 O28 1.241 . S
C18 O29 1.273 . S
C19 O30 1.251 . S
C19 O31 1.268 . S
O20 Nd0 2.500 . S
O20 C2 1.258 . S
O21 Nd0 2.492 . S
O21 C2 1.239 . S
O22 Nd0 2.487 . S
O22 C9 1.241 . S
O23 Nd0 2.682 . S
O23 Nd1 2.414 . S
O23 C9 1.273 . S
O24 Nd0 2.410 . S
O24 C10 1.251 . S
O25 Nd1 2.424 . S
O25 C10 1.268 . S
O26 Nd1 2.500 . S
O26 C11 1.258 . S
O27 Nd1 2.492 . S
O27 C11 1.239 . S
O28 Nd1 2.487 . S
O28 C18 1.241 . S
O29 Nd0 2.414 . S
O29 Nd1 2.682 . S
O29 C18 1.273 . S
O30 Nd1 2.410 . S
O30 C19 1.251 . S
O31 Nd0 2.424 . S
O31 C19 1.268 . S
H32 C4 0.930 . S
H33 C5 0.929 . S
H34 C7 0.930 . S
H35 C8 0.929 . S
H36 C13 0.930 . S
H37 C14 0.929 . S
H38 C16 0.930 . S
H39 C17 0.929 . S
Nd40 C42 2.836 . S
Nd40 O60 2.500 . S
Nd40 O61 2.492 . S
Nd40 O62 2.487 . S
Nd40 O63 2.682 . S
Nd40 O64 2.410 . S
Nd40 O69 2.414 . S
Nd40 O71 2.424 . S
Nd41 C51 2.836 . S
Nd41 O63 2.414 . S
Nd41 O65 2.424 . S
Nd41 O66 2.500 . S
Nd41 O67 2.492 . S
Nd41 O68 2.487 . S
Nd41 O69 2.682 . S
Nd41 O70 2.410 . S
C42 Nd40 2.836 . S
C42 C43 1.498 . S
C42 O60 1.258 . S
C42 O61 1.239 . S
C43 C42 1.498 . S
C43 C44 1.366 . S
C43 C48 1.407 . S
C44 C43 1.366 . S
C44 C45 1.392 . S
C44 H72 0.930 . S
C45 C44 1.392 . S
C45 C46 1.398 . S
C45 H73 0.929 . S
C46 C45 1.398 . S
C46 C47 1.352 . S
C47 C46 1.352 . S
C47 C48 1.384 . S
C47 H74 0.930 . S
C48 C43 1.407 . S
C48 C47 1.384 . S
C48 H75 0.929 . S
C49 O62 1.241 . S
C49 O63 1.273 . S
C50 O64 1.251 . S
C50 O65 1.268 . S
C51 Nd41 2.836 . S
C51 C52 1.498 . S
C51 O66 1.258 . S
C51 O67 1.239 . S
C52 C51 1.498 . S
C52 C53 1.366 . S
C52 C57 1.407 . S
C53 C52 1.366 . S
C53 C54 1.392 . S
C53 H76 0.930 . S
C54 C53 1.392 . S
C54 C55 1.398 . S
C54 H77 0.929 . S
C55 C54 1.398 . S
C55 C56 1.352 . S
C56 C55 1.352 . S
C56 C57 1.384 . S
C56 H78 0.930 . S
C57 C52 1.407 . S
C57 C56 1.384 . S
C57 H79 0.929 . S
C58 O68 1.241 . S
C58 O69 1.273 . S
C59 O70 1.251 . S
C59 O71 1.268 . S
O60 Nd40 2.500 . S
O60 C42 1.258 . S
O61 Nd40 2.492 . S
O61 C42 1.239 . S
O62 Nd40 2.487 . S
O62 C49 1.241 . S
O63 Nd40 2.682 . S
O63 Nd41 2.414 . S
O63 C49 1.273 . S
O64 Nd40 2.410 . S
O64 C50 1.251 . S
O65 Nd41 2.424 . S
O65 C50 1.268 . S
O66 Nd41 2.500 . S
O66 C51 1.258 . S
O67 Nd41 2.492 . S
O67 C51 1.239 . S
O68 Nd41 2.487 . S
O68 C58 1.241 . S
O69 Nd40 2.414 . S
O69 Nd41 2.682 . S
O69 C58 1.273 . S
O70 Nd41 2.410 . S
O70 C59 1.251 . S
O71 Nd40 2.424 . S
O71 C59 1.268 . S
H72 C44 0.930 . S
H73 C45 0.929 . S
H74 C47 0.930 . S
H75 C48 0.929 . S
H76 C53 0.930 . S
H77 C54 0.929 . S
H78 C56 0.930 . S
H79 C57 0.929 . S
Nd80 C82 2.836 . S
Nd80 O100 2.500 . S
Nd80 O101 2.492 . S
Nd80 O102 2.487 . S
Nd80 O103 2.682 . S
Nd80 O104 2.410 . S
Nd80 O109 2.414 . S
Nd80 O111 2.424 . S
Nd81 C91 2.836 . S
Nd81 O103 2.414 . S
Nd81 O105 2.424 . S
Nd81 O106 2.500 . S
Nd81 O107 2.492 . S
Nd81 O108 2.487 . S
Nd81 O109 2.682 . S
Nd81 O110 2.410 . S
C82 Nd80 2.836 . S
C82 C83 1.498 . S
C82 O100 1.258 . S
C82 O101 1.239 . S
C83 C82 1.498 . S
C83 C84 1.366 . S
C83 C88 1.407 . S
C84 C83 1.366 . S
C84 C85 1.392 . S
C84 H112 0.930 . S
C85 C84 1.392 . S
C85 C86 1.398 . S
C85 H113 0.929 . S
C86 C85 1.398 . S
C86 C87 1.352 . S
C87 C86 1.352 . S
C87 C88 1.384 . S
C87 H114 0.930 . S
C88 C83 1.407 . S
C88 C87 1.384 . S
C88 H115 0.929 . S
C89 O102 1.241 . S
C89 O103 1.273 . S
C90 O104 1.251 . S
C90 O105 1.268 . S
C91 Nd81 2.836 . S
C91 C92 1.498 . S
C91 O106 1.258 . S
C91 O107 1.239 . S
C92 C91 1.498 . S
C92 C93 1.366 . S
C92 C97 1.407 . S
C93 C92 1.366 . S
C93 C94 1.392 . S
C93 H116 0.930 . S
C94 C93 1.392 . S
C94 C95 1.398 . S
C94 H117 0.929 . S
C95 C94 1.398 . S
C95 C96 1.352 . S
C96 C95 1.352 . S
C96 C97 1.384 . S
C96 H118 0.930 . S
C97 C92 1.407 . S
C97 C96 1.384 . S
C97 H119 0.929 . S
C98 O108 1.241 . S
C98 O109 1.273 . S
C99 O110 1.251 . S
C99 O111 1.268 . S
O100 Nd80 2.500 . S
O100 C82 1.258 . S
O101 Nd80 2.492 . S
O101 C82 1.239 . S
O102 Nd80 2.487 . S
O102 C89 1.241 . S
O103 Nd80 2.682 . S
O103 Nd81 2.414 . S
O103 C89 1.273 . S
O104 Nd80 2.410 . S
O104 C90 1.251 . S
O105 Nd81 2.424 . S
O105 C90 1.268 . S
O106 Nd81 2.500 . S
O106 C91 1.258 . S
O107 Nd81 2.492 . S
O107 C91 1.239 . S
O108 Nd81 2.487 . S
O108 C98 1.241 . S
O109 Nd80 2.414 . S
O109 Nd81 2.682 . S
O109 C98 1.273 . S
O110 Nd81 2.410 . S
O110 C99 1.251 . S
O111 Nd80 2.424 . S
O111 C99 1.268 . S
H112 C84 0.930 . S
H113 C85 0.929 . S
H114 C87 0.930 . S
H115 C88 0.929 . S
H116 C93 0.930 . S
H117 C94 0.929 . S
H118 C96 0.930 . S
H119 C97 0.929 . S
Nd120 C122 2.836 . S
Nd120 O140 2.500 . S
Nd120 O141 2.492 . S
Nd120 O142 2.487 . S
Nd120 O143 2.682 . S
Nd120 O144 2.410 . S
Nd120 O149 2.414 . S
Nd120 O151 2.424 . S
Nd121 C131 2.836 . S
Nd121 O143 2.414 . S
Nd121 O145 2.424 . S
Nd121 O146 2.500 . S
Nd121 O147 2.492 . S
Nd121 O148 2.487 . S
Nd121 O149 2.682 . S
Nd121 O150 2.410 . S
C122 Nd120 2.836 . S
C122 C123 1.498 . S
C122 O140 1.258 . S
C122 O141 1.239 . S
C123 C122 1.498 . S
C123 C124 1.366 . S
C123 C128 1.407 . S
C124 C123 1.366 . S
C124 C125 1.392 . S
C124 H152 0.930 . S
C125 C124 1.392 . S
C125 C126 1.398 . S
C125 H153 0.929 . S
C126 C125 1.398 . S
C126 C127 1.352 . S
C127 C126 1.352 . S
C127 C128 1.384 . S
C127 H154 0.930 . S
C128 C123 1.407 . S
C128 C127 1.384 . S
C128 H155 0.929 . S
C129 O142 1.241 . S
C129 O143 1.273 . S
C130 O144 1.251 . S
C130 O145 1.268 . S
C131 Nd121 2.836 . S
C131 C132 1.498 . S
C131 O146 1.258 . S
C131 O147 1.239 . S
C132 C131 1.498 . S
C132 C133 1.366 . S
C132 C137 1.407 . S
C133 C132 1.366 . S
C133 C134 1.392 . S
C133 H156 0.930 . S
C134 C133 1.392 . S
C134 C135 1.398 . S
C134 H157 0.929 . S
C135 C134 1.398 . S
C135 C136 1.352 . S
C136 C135 1.352 . S
C136 C137 1.384 . S
C136 H158 0.930 . S
C137 C132 1.407 . S
C137 C136 1.384 . S
C137 H159 0.929 . S
C138 O148 1.241 . S
C138 O149 1.273 . S
C139 O150 1.251 . S
C139 O151 1.268 . S
O140 Nd120 2.500 . S
O140 C122 1.258 . S
O141 Nd120 2.492 . S
O141 C122 1.239 . S
O142 Nd120 2.487 . S
O142 C129 1.241 . S
O143 Nd120 2.682 . S
O143 Nd121 2.414 . S
O143 C129 1.273 . S
O144 Nd120 2.410 . S
O144 C130 1.251 . S
O145 Nd121 2.424 . S
O145 C130 1.268 . S
O146 Nd121 2.500 . S
O146 C131 1.258 . S
O147 Nd121 2.492 . S
O147 C131 1.239 . S
O148 Nd121 2.487 . S
O148 C138 1.241 . S
O149 Nd120 2.414 . S
O149 Nd121 2.682 . S
O149 C138 1.273 . S
O150 Nd121 2.410 . S
O150 C139 1.251 . S
O151 Nd120 2.424 . S
O151 C139 1.268 . S
H152 C124 0.930 . S
H153 C125 0.929 . S
H154 C127 0.930 . S
H155 C128 0.929 . S
H156 C133 0.930 . S
H157 C134 0.929 . S
H158 C136 0.930 . S
H159 C137 0.929 . S
Nd160 C162 2.836 . S
Nd160 O180 2.500 . S
Nd160 O181 2.492 . S
Nd160 O182 2.487 . S
Nd160 O183 2.682 . S
Nd160 O184 2.410 . S
Nd160 O189 2.414 . S
Nd160 O191 2.424 . S
Nd161 C171 2.836 . S
Nd161 O183 2.414 . S
Nd161 O185 2.424 . S
Nd161 O186 2.500 . S
Nd161 O187 2.492 . S
Nd161 O188 2.487 . S
Nd161 O189 2.682 . S
Nd161 O190 2.410 . S
C162 Nd160 2.836 . S
C162 C163 1.498 . S
C162 O180 1.258 . S
C162 O181 1.239 . S
C163 C162 1.498 . S
C163 C164 1.366 . S
C163 C168 1.407 . S
C164 C163 1.366 . S
C164 C165 1.392 1_455 S
C164 H192 0.930 . S
C165 C164 1.392 1_655 S
C165 C166 1.398 . S
C165 H193 0.929 . S
C166 C165 1.398 . S
C166 C167 1.352 1_655 S
C167 C166 1.352 1_455 S
C167 C168 1.384 . S
C167 H194 0.930 . S
C168 C163 1.407 . S
C168 C167 1.384 . S
C168 H195 0.929 . S
C169 O182 1.241 . S
C169 O183 1.273 . S
C170 O184 1.251 . S
C170 O185 1.268 . S
C171 Nd161 2.836 . S
C171 C172 1.498 . S
C171 O186 1.258 . S
C171 O187 1.239 . S
C172 C171 1.498 . S
C172 C173 1.366 . S
C172 C177 1.407 . S
C173 C172 1.366 . S
C173 C174 1.392 . S
C173 H196 0.930 . S
C174 C173 1.392 . S
C174 C175 1.398 . S
C174 H197 0.929 . S
C175 C174 1.398 . S
C175 C176 1.352 . S
C176 C175 1.352 . S
C176 C177 1.384 . S
C176 H198 0.930 . S
C177 C172 1.407 . S
C177 C176 1.384 . S
C177 H199 0.929 . S
C178 O188 1.241 . S
C178 O189 1.273 . S
C179 O190 1.251 . S
C179 O191 1.268 . S
O180 Nd160 2.500 . S
O180 C162 1.258 . S
O181 Nd160 2.492 . S
O181 C162 1.239 . S
O182 Nd160 2.487 . S
O182 C169 1.241 . S
O183 Nd160 2.682 . S
O183 Nd161 2.414 . S
O183 C169 1.273 . S
O184 Nd160 2.410 . S
O184 C170 1.251 . S
O185 Nd161 2.424 . S
O185 C170 1.268 . S
O186 Nd161 2.500 . S
O186 C171 1.258 . S
O187 Nd161 2.492 . S
O187 C171 1.239 . S
O188 Nd161 2.487 . S
O188 C178 1.241 . S
O189 Nd160 2.414 . S
O189 Nd161 2.682 . S
O189 C178 1.273 . S
O190 Nd161 2.410 . S
O190 C179 1.251 . S
O191 Nd160 2.424 . S
O191 C179 1.268 . S
H192 C164 0.930 . S
H193 C165 0.929 . S
H194 C167 0.930 . S
H195 C168 0.929 . S
H196 C173 0.930 . S
H197 C174 0.929 . S
H198 C176 0.930 . S
H199 C177 0.929 . S
Nd200 C202 2.836 . S
Nd200 O220 2.500 . S
Nd200 O221 2.492 . S
Nd200 O222 2.487 . S
Nd200 O223 2.682 . S
Nd200 O224 2.410 . S
Nd200 O229 2.414 . S
Nd200 O231 2.424 . S
Nd201 C211 2.836 . S
Nd201 O223 2.414 . S
Nd201 O225 2.424 . S
Nd201 O226 2.500 . S
Nd201 O227 2.492 . S
Nd201 O228 2.487 . S
Nd201 O229 2.682 . S
Nd201 O230 2.410 . S
C202 Nd200 2.836 . S
C202 C203 1.498 . S
C202 O220 1.258 . S
C202 O221 1.239 . S
C203 C202 1.498 . S
C203 C204 1.366 . S
C203 C208 1.407 . S
C204 C203 1.366 . S
C204 C205 1.392 . S
C204 H232 0.930 . S
C205 C204 1.392 . S
C205 C206 1.398 . S
C205 H233 0.929 . S
C206 C205 1.398 . S
C206 C207 1.352 . S
C207 C206 1.352 . S
C207 C208 1.384 . S
C207 H234 0.930 . S
C208 C203 1.407 . S
C208 C207 1.384 . S
C208 H235 0.929 . S
C209 O222 1.241 . S
C209 O223 1.273 . S
C210 O224 1.251 . S
C210 O225 1.268 . S
C211 Nd201 2.836 . S
C211 C212 1.498 . S
C211 O226 1.258 . S
C211 O227 1.239 . S
C212 C211 1.498 . S
C212 C213 1.366 . S
C212 C217 1.407 . S
C213 C212 1.366 . S
C213 C214 1.392 . S
C213 H236 0.930 . S
C214 C213 1.392 . S
C214 C215 1.398 . S
C214 H237 0.929 . S
C215 C214 1.398 . S
C215 C216 1.352 . S
C216 C215 1.352 . S
C216 C217 1.384 . S
C216 H238 0.930 . S
C217 C212 1.407 . S
C217 C216 1.384 . S
C217 H239 0.929 . S
C218 O228 1.241 . S
C218 O229 1.273 . S
C219 O230 1.251 . S
C219 O231 1.268 . S
O220 Nd200 2.500 . S
O220 C202 1.258 . S
O221 Nd200 2.492 . S
O221 C202 1.239 . S
O222 Nd200 2.487 . S
O222 C209 1.241 . S
O223 Nd200 2.682 . S
O223 Nd201 2.414 . S
O223 C209 1.273 . S
O224 Nd200 2.410 . S
O224 C210 1.251 . S
O225 Nd201 2.424 . S
O225 C210 1.268 . S
O226 Nd201 2.500 . S
O226 C211 1.258 . S
O227 Nd201 2.492 . S
O227 C211 1.239 . S
O228 Nd201 2.487 . S
O228 C218 1.241 . S
O229 Nd200 2.414 . S
O229 Nd201 2.682 . S
O229 C218 1.273 . S
O230 Nd201 2.410 . S
O230 C219 1.251 . S
O231 Nd200 2.424 . S
O231 C219 1.268 . S
H232 C204 0.930 . S
H233 C205 0.929 . S
H234 C207 0.930 . S
H235 C208 0.929 . S
H236 C213 0.930 . S
H237 C214 0.929 . S
H238 C216 0.930 . S
H239 C217 0.929 . S
Nd240 C242 2.836 . S
Nd240 O260 2.500 . S
Nd240 O261 2.492 . S
Nd240 O262 2.487 . S
Nd240 O263 2.682 . S
Nd240 O264 2.410 . S
Nd240 O269 2.414 . S
Nd240 O271 2.424 . S
Nd241 C251 2.836 . S
Nd241 O263 2.414 . S
Nd241 O265 2.424 . S
Nd241 O266 2.500 . S
Nd241 O267 2.492 . S
Nd241 O268 2.487 . S
Nd241 O269 2.682 . S
Nd241 O270 2.410 . S
C242 Nd240 2.836 . S
C242 C243 1.498 . S
C242 O260 1.258 . S
C242 O261 1.239 . S
C243 C242 1.498 . S
C243 C244 1.366 . S
C243 C248 1.407 . S
C244 C243 1.366 . S
C244 C245 1.392 . S
C244 H272 0.930 . S
C245 C244 1.392 . S
C245 C246 1.398 . S
C245 H273 0.929 . S
C246 C245 1.398 . S
C246 C247 1.352 . S
C247 C246 1.352 . S
C247 C248 1.384 . S
C247 H274 0.930 . S
C248 C243 1.407 . S
C248 C247 1.384 . S
C248 H275 0.929 . S
C249 O262 1.241 . S
C249 O263 1.273 . S
C250 O264 1.251 . S
C250 O265 1.268 . S
C251 Nd241 2.836 . S
C251 C252 1.498 . S
C251 O266 1.258 . S
C251 O267 1.239 . S
C252 C251 1.498 . S
C252 C253 1.366 . S
C252 C257 1.407 . S
C253 C252 1.366 . S
C253 C254 1.392 . S
C253 H276 0.930 . S
C254 C253 1.392 . S
C254 C255 1.398 . S
C254 H277 0.929 . S
C255 C254 1.398 . S
C255 C256 1.352 . S
C256 C255 1.352 . S
C256 C257 1.384 . S
C256 H278 0.930 . S
C257 C252 1.407 . S
C257 C256 1.384 . S
C257 H279 0.929 . S
C258 O268 1.241 . S
C258 O269 1.273 . S
C259 O270 1.251 . S
C259 O271 1.268 . S
O260 Nd240 2.500 . S
O260 C242 1.258 . S
O261 Nd240 2.492 . S
O261 C242 1.239 . S
O262 Nd240 2.487 . S
O262 C249 1.241 . S
O263 Nd240 2.682 . S
O263 Nd241 2.414 . S
O263 C249 1.273 . S
O264 Nd240 2.410 . S
O264 C250 1.251 . S
O265 Nd241 2.424 . S
O265 C250 1.268 . S
O266 Nd241 2.500 . S
O266 C251 1.258 . S
O267 Nd241 2.492 . S
O267 C251 1.239 . S
O268 Nd241 2.487 . S
O268 C258 1.241 . S
O269 Nd240 2.414 . S
O269 Nd241 2.682 . S
O269 C258 1.273 . S
O270 Nd241 2.410 . S
O270 C259 1.251 . S
O271 Nd240 2.424 . S
O271 C259 1.268 . S
H272 C244 0.930 . S
H273 C245 0.929 . S
H274 C247 0.930 . S
H275 C248 0.929 . S
H276 C253 0.930 . S
H277 C254 0.929 . S
H278 C256 0.930 . S
H279 C257 0.929 . S
Nd280 C282 2.836 . S
Nd280 O300 2.500 . S
Nd280 O301 2.492 . S
Nd280 O302 2.487 . S
Nd280 O303 2.682 . S
Nd280 O304 2.410 . S
Nd280 O309 2.414 . S
Nd280 O311 2.424 . S
Nd281 C291 2.836 . S
Nd281 O303 2.414 . S
Nd281 O305 2.424 . S
Nd281 O306 2.500 . S
Nd281 O307 2.492 . S
Nd281 O308 2.487 . S
Nd281 O309 2.682 . S
Nd281 O310 2.410 . S
C282 Nd280 2.836 . S
C282 C283 1.498 . S
C282 O300 1.258 . S
C282 O301 1.239 . S
C283 C282 1.498 . S
C283 C284 1.366 . S
C283 C288 1.407 . S
C284 C283 1.366 . S
C284 C285 1.392 . S
C284 H312 0.930 . S
C285 C284 1.392 . S
C285 C286 1.398 . S
C285 H313 0.929 . S
C286 C285 1.398 . S
C286 C287 1.352 . S
C287 C286 1.352 . S
C287 C288 1.384 . S
C287 H314 0.930 . S
C288 C283 1.407 . S
C288 C287 1.384 . S
C288 H315 0.929 . S
C289 O302 1.241 . S
C289 O303 1.273 . S
C290 O304 1.251 . S
C290 O305 1.268 . S
C291 Nd281 2.836 . S
C291 C292 1.498 . S
C291 O306 1.258 . S
C291 O307 1.239 . S
C292 C291 1.498 . S
C292 C293 1.366 . S
C292 C297 1.407 . S
C293 C292 1.366 . S
C293 C294 1.392 . S
C293 H316 0.930 . S
C294 C293 1.392 . S
C294 C295 1.398 . S
C294 H317 0.929 . S
C295 C294 1.398 . S
C295 C296 1.352 . S
C296 C295 1.352 . S
C296 C297 1.384 . S
C296 H318 0.930 . S
C297 C292 1.407 . S
C297 C296 1.384 . S
C297 H319 0.929 . S
C298 O308 1.241 . S
C298 O309 1.273 . S
C299 O310 1.251 . S
C299 O311 1.268 . S
O300 Nd280 2.500 . S
O300 C282 1.258 . S
O301 Nd280 2.492 . S
O301 C282 1.239 . S
O302 Nd280 2.487 . S
O302 C289 1.241 . S
O303 Nd280 2.682 . S
O303 Nd281 2.414 . S
O303 C289 1.273 . S
O304 Nd280 2.410 . S
O304 C290 1.251 . S
O305 Nd281 2.424 . S
O305 C290 1.268 . S
O306 Nd281 2.500 . S
O306 C291 1.258 . S
O307 Nd281 2.492 . S
O307 C291 1.239 . S
O308 Nd281 2.487 . S
O308 C298 1.241 . S
O309 Nd280 2.414 . S
O309 Nd281 2.682 . S
O309 C298 1.273 . S
O310 Nd281 2.410 . S
O310 C299 1.251 . S
O311 Nd280 2.424 . S
O311 C299 1.268 . S
H312 C284 0.930 . S
H313 C285 0.929 . S
H314 C287 0.930 . S
H315 C288 0.929 . S
H316 C293 0.930 . S
H317 C294 0.929 . S
H318 C296 0.930 . S
H319 C297 0.929 . S
Nd320 C322 2.836 . S
Nd320 O340 2.500 . S
Nd320 O341 2.492 . S
Nd320 O342 2.487 . S
Nd320 O343 2.682 . S
Nd320 O344 2.410 . S
Nd320 O349 2.414 . S
Nd320 O351 2.424 . S
Nd321 C331 2.836 . S
Nd321 O343 2.414 . S
Nd321 O345 2.424 . S
Nd321 O346 2.500 . S
Nd321 O347 2.492 . S
Nd321 O348 2.487 . S
Nd321 O349 2.682 . S
Nd321 O350 2.410 . S
C322 Nd320 2.836 . S
C322 C323 1.498 . S
C322 O340 1.258 . S
C322 O341 1.239 . S
C323 C322 1.498 . S
C323 C324 1.366 . S
C323 C328 1.407 . S
C324 C323 1.366 . S
C324 C325 1.392 . S
C324 H352 0.930 . S
C325 C324 1.392 . S
C325 C326 1.398 . S
C325 H353 0.929 . S
C326 C325 1.398 . S
C326 C327 1.352 . S
C327 C326 1.352 . S
C327 C328 1.384 . S
C327 H354 0.930 . S
C328 C323 1.407 . S
C328 C327 1.384 . S
C328 H355 0.929 . S
C329 O342 1.241 . S
C329 O343 1.273 . S
C330 O344 1.251 . S
C330 O345 1.268 . S
C331 Nd321 2.836 . S
C331 C332 1.498 . S
C331 O346 1.258 . S
C331 O347 1.239 . S
C332 C331 1.498 . S
C332 C333 1.366 . S
C332 C337 1.407 . S
C333 C332 1.366 . S
C333 C334 1.392 1_655 S
C333 H356 0.930 . S
C334 C333 1.392 1_455 S
C334 C335 1.398 . S
C334 H357 0.929 . S
C335 C334 1.398 . S
C335 C336 1.352 1_455 S
C336 C335 1.352 1_655 S
C336 C337 1.384 . S
C336 H358 0.930 . S
C337 C332 1.407 . S
C337 C336 1.384 . S
C337 H359 0.929 . S
C338 O348 1.241 . S
C338 O349 1.273 . S
C339 O350 1.251 . S
C339 O351 1.268 . S
O340 Nd320 2.500 . S
O340 C322 1.258 . S
O341 Nd320 2.492 . S
O341 C322 1.239 . S
O342 Nd320 2.487 . S
O342 C329 1.241 . S
O343 Nd320 2.682 . S
O343 Nd321 2.414 . S
O343 C329 1.273 . S
O344 Nd320 2.410 . S
O344 C330 1.251 . S
O345 Nd321 2.424 . S
O345 C330 1.268 . S
O346 Nd321 2.500 . S
O346 C331 1.258 . S
O347 Nd321 2.492 . S
O347 C331 1.239 . S
O348 Nd321 2.487 . S
O348 C338 1.241 . S
O349 Nd320 2.414 . S
O349 Nd321 2.682 . S
O349 C338 1.273 . S
O350 Nd321 2.410 . S
O350 C339 1.251 . S
O351 Nd320 2.424 . S
O351 C339 1.268 . S
H352 C324 0.930 . S
H353 C325 0.929 . S
H354 C327 0.930 . S
H355 C328 0.929 . S
H356 C333 0.930 . S
H357 C334 0.929 . S
H358 C336 0.930 . S
H359 C337 0.929 . S
Nd360 C362 2.836 . S
Nd360 O380 2.500 . S
Nd360 O381 2.492 . S
Nd360 O382 2.487 . S
Nd360 O383 2.682 . S
Nd360 O384 2.410 . S
Nd360 O389 2.414 . S
Nd360 O391 2.424 . S
Nd361 C371 2.836 . S
Nd361 O383 2.414 . S
Nd361 O385 2.424 . S
Nd361 O386 2.500 . S
Nd361 O387 2.492 . S
Nd361 O388 2.487 . S
Nd361 O389 2.682 . S
Nd361 O390 2.410 . S
C362 Nd360 2.836 . S
C362 C363 1.498 . S
C362 O380 1.258 . S
C362 O381 1.239 . S
C363 C362 1.498 . S
C363 C364 1.366 . S
C363 C368 1.407 . S
C364 C363 1.366 . S
C364 C365 1.392 . S
C364 H392 0.930 . S
C365 C364 1.392 . S
C365 C366 1.398 . S
C365 H393 0.929 . S
C366 C365 1.398 . S
C366 C367 1.352 . S
C367 C366 1.352 . S
C367 C368 1.384 . S
C367 H394 0.930 . S
C368 C363 1.407 . S
C368 C367 1.384 . S
C368 H395 0.929 . S
C369 O382 1.241 . S
C369 O383 1.273 . S
C370 O384 1.251 . S
C370 O385 1.268 . S
C371 Nd361 2.836 . S
C371 C372 1.498 . S
C371 O386 1.258 . S
C371 O387 1.239 . S
C372 C371 1.498 . S
C372 C373 1.366 . S
C372 C377 1.407 . S
C373 C372 1.366 . S
C373 C374 1.392 . S
C373 H396 0.930 . S
C374 C373 1.392 . S
C374 C375 1.398 . S
C374 H397 0.929 . S
C375 C374 1.398 . S
C375 C376 1.352 . S
C376 C375 1.352 . S
C376 C377 1.384 . S
C376 H398 0.930 . S
C377 C372 1.407 . S
C377 C376 1.384 . S
C377 H399 0.929 . S
C378 O388 1.241 . S
C378 O389 1.273 . S
C379 O390 1.251 . S
C379 O391 1.268 . S
O380 Nd360 2.500 . S
O380 C362 1.258 . S
O381 Nd360 2.492 . S
O381 C362 1.239 . S
O382 Nd360 2.487 . S
O382 C369 1.241 . S
O383 Nd360 2.682 . S
O383 Nd361 2.414 . S
O383 C369 1.273 . S
O384 Nd360 2.410 . S
O384 C370 1.251 . S
O385 Nd361 2.424 . S
O385 C370 1.268 . S
O386 Nd361 2.500 . S
O386 C371 1.258 . S
O387 Nd361 2.492 . S
O387 C371 1.239 . S
O388 Nd361 2.487 . S
O388 C378 1.241 . S
O389 Nd360 2.414 . S
O389 Nd361 2.682 . S
O389 C378 1.273 . S
O390 Nd361 2.410 . S
O390 C379 1.251 . S
O391 Nd360 2.424 . S
O391 C379 1.268 . S
H392 C364 0.930 . S
H393 C365 0.929 . S
H394 C367 0.930 . S
H395 C368 0.929 . S
H396 C373 0.930 . S
H397 C374 0.929 . S
H398 C376 0.930 . S
H399 C377 0.929 . S
Nd400 C402 2.836 . S
Nd400 O420 2.500 . S
Nd400 O421 2.492 . S
Nd400 O422 2.487 . S
Nd400 O423 2.682 . S
Nd400 O424 2.410 . S
Nd400 O429 2.414 . S
Nd400 O431 2.424 . S
Nd401 C411 2.836 . S
Nd401 O423 2.414 . S
Nd401 O425 2.424 . S
Nd401 O426 2.500 . S
Nd401 O427 2.492 . S
Nd401 O428 2.487 . S
Nd401 O429 2.682 . S
Nd401 O430 2.410 . S
C402 Nd400 2.836 . S
C402 C403 1.498 . S
C402 O420 1.258 . S
C402 O421 1.239 . S
C403 C402 1.498 . S
C403 C404 1.366 . S
C403 C408 1.407 . S
C404 C403 1.366 . S
C404 C405 1.392 . S
C404 H432 0.930 . S
C405 C404 1.392 . S
C405 C406 1.398 . S
C405 H433 0.929 . S
C406 C405 1.398 . S
C406 C407 1.352 . S
C407 C406 1.352 . S
C407 C408 1.384 . S
C407 H434 0.930 . S
C408 C403 1.407 . S
C408 C407 1.384 . S
C408 H435 0.929 . S
C409 O422 1.241 . S
C409 O423 1.273 . S
C410 O424 1.251 . S
C410 O425 1.268 . S
C411 Nd401 2.836 . S
C411 C412 1.498 . S
C411 O426 1.258 . S
C411 O427 1.239 . S
C412 C411 1.498 . S
C412 C413 1.366 . S
C412 C417 1.407 . S
C413 C412 1.366 . S
C413 C414 1.392 . S
C413 H436 0.930 . S
C414 C413 1.392 . S
C414 C415 1.398 . S
C414 H437 0.929 . S
C415 C414 1.398 . S
C415 C416 1.352 . S
C416 C415 1.352 . S
C416 C417 1.384 . S
C416 H438 0.930 . S
C417 C412 1.407 . S
C417 C416 1.384 . S
C417 H439 0.929 . S
C418 O428 1.241 . S
C418 O429 1.273 . S
C419 O430 1.251 . S
C419 O431 1.268 . S
O420 Nd400 2.500 . S
O420 C402 1.258 . S
O421 Nd400 2.492 . S
O421 C402 1.239 . S
O422 Nd400 2.487 . S
O422 C409 1.241 . S
O423 Nd400 2.682 . S
O423 Nd401 2.414 . S
O423 C409 1.273 . S
O424 Nd400 2.410 . S
O424 C410 1.251 . S
O425 Nd401 2.424 . S
O425 C410 1.268 . S
O426 Nd401 2.500 . S
O426 C411 1.258 . S
O427 Nd401 2.492 . S
O427 C411 1.239 . S
O428 Nd401 2.487 . S
O428 C418 1.241 . S
O429 Nd400 2.414 . S
O429 Nd401 2.682 . S
O429 C418 1.273 . S
O430 Nd401 2.410 . S
O430 C419 1.251 . S
O431 Nd400 2.424 . S
O431 C419 1.268 . S
H432 C404 0.930 . S
H433 C405 0.929 . S
H434 C407 0.930 . S
H435 C408 0.929 . S
H436 C413 0.930 . S
H437 C414 0.929 . S
H438 C416 0.930 . S
H439 C417 0.929 . S
Nd440 C442 2.836 . S
Nd440 O460 2.500 . S
Nd440 O461 2.492 . S
Nd440 O462 2.487 . S
Nd440 O463 2.682 . S
Nd440 O464 2.410 . S
Nd440 O469 2.414 . S
Nd440 O471 2.424 . S
Nd441 C451 2.836 . S
Nd441 O463 2.414 . S
Nd441 O465 2.424 . S
Nd441 O466 2.500 . S
Nd441 O467 2.492 . S
Nd441 O468 2.487 . S
Nd441 O469 2.682 . S
Nd441 O470 2.410 . S
C442 Nd440 2.836 . S
C442 C443 1.498 . S
C442 O460 1.258 . S
C442 O461 1.239 . S
C443 C442 1.498 . S
C443 C444 1.366 . S
C443 C448 1.407 . S
C444 C443 1.366 . S
C444 C445 1.392 . S
C444 H472 0.930 . S
C445 C444 1.392 . S
C445 C446 1.398 . S
C445 H473 0.929 . S
C446 C445 1.398 . S
C446 C447 1.352 . S
C447 C446 1.352 . S
C447 C448 1.384 . S
C447 H474 0.930 . S
C448 C443 1.407 . S
C448 C447 1.384 . S
C448 H475 0.929 . S
C449 O462 1.241 . S
C449 O463 1.273 . S
C450 O464 1.251 . S
C450 O465 1.268 . S
C451 Nd441 2.836 . S
C451 C452 1.498 . S
C451 O466 1.258 . S
C451 O467 1.239 . S
C452 C451 1.498 . S
C452 C453 1.366 . S
C452 C457 1.407 . S
C453 C452 1.366 . S
C453 C454 1.392 . S
C453 H476 0.930 . S
C454 C453 1.392 . S
C454 C455 1.398 . S
C454 H477 0.929 . S
C455 C454 1.398 . S
C455 C456 1.352 . S
C456 C455 1.352 . S
C456 C457 1.384 . S
C456 H478 0.930 . S
C457 C452 1.407 . S
C457 C456 1.384 . S
C457 H479 0.929 . S
C458 O468 1.241 . S
C458 O469 1.273 . S
C459 O470 1.251 . S
C459 O471 1.268 . S
O460 Nd440 2.500 . S
O460 C442 1.258 . S
O461 Nd440 2.492 . S
O461 C442 1.239 . S
O462 Nd440 2.487 . S
O462 C449 1.241 . S
O463 Nd440 2.682 . S
O463 Nd441 2.414 . S
O463 C449 1.273 . S
O464 Nd440 2.410 . S
O464 C450 1.251 . S
O465 Nd441 2.424 . S
O465 C450 1.268 . S
O466 Nd441 2.500 . S
O466 C451 1.258 . S
O467 Nd441 2.492 . S
O467 C451 1.239 . S
O468 Nd441 2.487 . S
O468 C458 1.241 . S
O469 Nd440 2.414 . S
O469 Nd441 2.682 . S
O469 C458 1.273 . S
O470 Nd441 2.410 . S
O470 C459 1.251 . S
O471 Nd440 2.424 . S
O471 C459 1.268 . S
H472 C444 0.930 . S
H473 C445 0.929 . S
H474 C447 0.930 . S
H475 C448 0.929 . S
H476 C453 0.930 . S
H477 C454 0.929 . S
H478 C456 0.930 . S
H479 C457 0.929 . S
Nd480 C482 2.836 . S
Nd480 O500 2.500 . S
Nd480 O501 2.492 . S
Nd480 O502 2.487 . S
Nd480 O503 2.682 . S
Nd480 O504 2.410 . S
Nd480 O509 2.414 . S
Nd480 O511 2.424 . S
Nd481 C491 2.836 . S
Nd481 O503 2.414 . S
Nd481 O505 2.424 . S
Nd481 O506 2.500 . S
Nd481 O507 2.492 . S
Nd481 O508 2.487 . S
Nd481 O509 2.682 . S
Nd481 O510 2.410 . S
C482 Nd480 2.836 . S
C482 C483 1.498 . S
C482 O500 1.258 . S
C482 O501 1.239 . S
C483 C482 1.498 . S
C483 C484 1.366 . S
C483 C488 1.407 . S
C484 C483 1.366 . S
C484 C485 1.392 . S
C484 H512 0.930 . S
C485 C484 1.392 . S
C485 C486 1.398 . S
C485 H513 0.929 . S
C486 C485 1.398 . S
C486 C487 1.352 . S
C487 C486 1.352 . S
C487 C488 1.384 . S
C487 H514 0.930 . S
C488 C483 1.407 . S
C488 C487 1.384 . S
C488 H515 0.929 . S
C489 O502 1.241 . S
C489 O503 1.273 . S
C490 O504 1.251 . S
C490 O505 1.268 . S
C491 Nd481 2.836 . S
C491 C492 1.498 . S
C491 O506 1.258 . S
C491 O507 1.239 . S
C492 C491 1.498 . S
C492 C493 1.366 . S
C492 C497 1.407 . S
C493 C492 1.366 . S
C493 C494 1.392 1_655 S
C493 H516 0.930 . S
C494 C493 1.392 1_455 S
C494 C495 1.398 . S
C494 H517 0.929 . S
C495 C494 1.398 . S
C495 C496 1.352 1_455 S
C496 C495 1.352 1_655 S
C496 C497 1.384 . S
C496 H518 0.930 . S
C497 C492 1.407 . S
C497 C496 1.384 . S
C497 H519 0.929 . S
C498 O508 1.241 . S
C498 O509 1.273 . S
C499 O510 1.251 . S
C499 O511 1.268 . S
O500 Nd480 2.500 . S
O500 C482 1.258 . S
O501 Nd480 2.492 . S
O501 C482 1.239 . S
O502 Nd480 2.487 . S
O502 C489 1.241 . S
O503 Nd480 2.682 . S
O503 Nd481 2.414 . S
O503 C489 1.273 . S
O504 Nd480 2.410 . S
O504 C490 1.251 . S
O505 Nd481 2.424 . S
O505 C490 1.268 . S
O506 Nd481 2.500 . S
O506 C491 1.258 . S
O507 Nd481 2.492 . S
O507 C491 1.239 . S
O508 Nd481 2.487 . S
O508 C498 1.241 . S
O509 Nd480 2.414 . S
O509 Nd481 2.682 . S
O509 C498 1.273 . S
O510 Nd481 2.410 . S
O510 C499 1.251 . S
O511 Nd480 2.424 . S
O511 C499 1.268 . S
H512 C484 0.930 . S
H513 C485 0.929 . S
H514 C487 0.930 . S
H515 C488 0.929 . S
H516 C493 0.930 . S
H517 C494 0.929 . S
H518 C496 0.930 . S
H519 C497 0.929 . S
Nd520 C522 2.836 . S
Nd520 O540 2.500 . S
Nd520 O541 2.492 . S
Nd520 O542 2.487 . S
Nd520 O543 2.682 . S
Nd520 O544 2.410 . S
Nd520 O549 2.414 . S
Nd520 O551 2.424 . S
Nd521 C531 2.836 . S
Nd521 O543 2.414 . S
Nd521 O545 2.424 . S
Nd521 O546 2.500 . S
Nd521 O547 2.492 . S
Nd521 O548 2.487 . S
Nd521 O549 2.682 . S
Nd521 O550 2.410 . S
C522 Nd520 2.836 . S
C522 C523 1.498 . S
C522 O540 1.258 . S
C522 O541 1.239 . S
C523 C522 1.498 . S
C523 C524 1.366 . S
C523 C528 1.407 . S
C524 C523 1.366 . S
C524 C525 1.392 . S
C524 H552 0.930 . S
C525 C524 1.392 . S
C525 C526 1.398 . S
C525 H553 0.929 . S
C526 C525 1.398 . S
C526 C527 1.352 . S
C527 C526 1.352 . S
C527 C528 1.384 . S
C527 H554 0.930 . S
C528 C523 1.407 . S
C528 C527 1.384 . S
C528 H555 0.929 . S
C529 O542 1.241 . S
C529 O543 1.273 . S
C530 O544 1.251 . S
C530 O545 1.268 . S
C531 Nd521 2.836 . S
C531 C532 1.498 . S
C531 O546 1.258 . S
C531 O547 1.239 . S
C532 C531 1.498 . S
C532 C533 1.366 . S
C532 C537 1.407 . S
C533 C532 1.366 . S
C533 C534 1.392 . S
C533 H556 0.930 . S
C534 C533 1.392 . S
C534 C535 1.398 . S
C534 H557 0.929 . S
C535 C534 1.398 . S
C535 C536 1.352 . S
C536 C535 1.352 . S
C536 C537 1.384 . S
C536 H558 0.930 . S
C537 C532 1.407 . S
C537 C536 1.384 . S
C537 H559 0.929 . S
C538 O548 1.241 . S
C538 O549 1.273 . S
C539 O550 1.251 . S
C539 O551 1.268 . S
O540 Nd520 2.500 . S
O540 C522 1.258 . S
O541 Nd520 2.492 . S
O541 C522 1.239 . S
O542 Nd520 2.487 . S
O542 C529 1.241 . S
O543 Nd520 2.682 . S
O543 Nd521 2.414 . S
O543 C529 1.273 . S
O544 Nd520 2.410 . S
O544 C530 1.251 . S
O545 Nd521 2.424 . S
O545 C530 1.268 . S
O546 Nd521 2.500 . S
O546 C531 1.258 . S
O547 Nd521 2.492 . S
O547 C531 1.239 . S
O548 Nd521 2.487 . S
O548 C538 1.241 . S
O549 Nd520 2.414 . S
O549 Nd521 2.682 . S
O549 C538 1.273 . S
O550 Nd521 2.410 . S
O550 C539 1.251 . S
O551 Nd520 2.424 . S
O551 C539 1.268 . S
H552 C524 0.930 . S
H553 C525 0.929 . S
H554 C527 0.930 . S
H555 C528 0.929 . S
H556 C533 0.930 . S
H557 C534 0.929 . S
H558 C536 0.930 . S
H559 C537 0.929 . S
Nd560 C562 2.836 . S
Nd560 O580 2.500 . S
Nd560 O581 2.492 . S
Nd560 O582 2.487 . S
Nd560 O583 2.682 . S
Nd560 O584 2.410 . S
Nd560 O589 2.414 . S
Nd560 O591 2.424 . S
Nd561 C571 2.836 . S
Nd561 O583 2.414 . S
Nd561 O585 2.424 . S
Nd561 O586 2.500 . S
Nd561 O587 2.492 . S
Nd561 O588 2.487 . S
Nd561 O589 2.682 . S
Nd561 O590 2.410 . S
C562 Nd560 2.836 . S
C562 C563 1.498 . S
C562 O580 1.258 . S
C562 O581 1.239 . S
C563 C562 1.498 . S
C563 C564 1.366 . S
C563 C568 1.407 . S
C564 C563 1.366 . S
C564 C565 1.392 . S
C564 H592 0.930 . S
C565 C564 1.392 . S
C565 C566 1.398 . S
C565 H593 0.929 . S
C566 C565 1.398 . S
C566 C567 1.352 . S
C567 C566 1.352 . S
C567 C568 1.384 . S
C567 H594 0.930 . S
C568 C563 1.407 . S
C568 C567 1.384 . S
C568 H595 0.929 . S
C569 O582 1.241 . S
C569 O583 1.273 . S
C570 O584 1.251 . S
C570 O585 1.268 . S
C571 Nd561 2.836 . S
C571 C572 1.498 . S
C571 O586 1.258 . S
C571 O587 1.239 . S
C572 C571 1.498 . S
C572 C573 1.366 . S
C572 C577 1.407 . S
C573 C572 1.366 . S
C573 C574 1.392 . S
C573 H596 0.930 . S
C574 C573 1.392 . S
C574 C575 1.398 . S
C574 H597 0.929 . S
C575 C574 1.398 . S
C575 C576 1.352 . S
C576 C575 1.352 . S
C576 C577 1.384 . S
C576 H598 0.930 . S
C577 C572 1.407 . S
C577 C576 1.384 . S
C577 H599 0.929 . S
C578 O588 1.241 . S
C578 O589 1.273 . S
C579 O590 1.251 . S
C579 O591 1.268 . S
O580 Nd560 2.500 . S
O580 C562 1.258 . S
O581 Nd560 2.492 . S
O581 C562 1.239 . S
O582 Nd560 2.487 . S
O582 C569 1.241 . S
O583 Nd560 2.682 . S
O583 Nd561 2.414 . S
O583 C569 1.273 . S
O584 Nd560 2.410 . S
O584 C570 1.251 . S
O585 Nd561 2.424 . S
O585 C570 1.268 . S
O586 Nd561 2.500 . S
O586 C571 1.258 . S
O587 Nd561 2.492 . S
O587 C571 1.239 . S
O588 Nd561 2.487 . S
O588 C578 1.241 . S
O589 Nd560 2.414 . S
O589 Nd561 2.682 . S
O589 C578 1.273 . S
O590 Nd561 2.410 . S
O590 C579 1.251 . S
O591 Nd560 2.424 . S
O591 C579 1.268 . S
H592 C564 0.930 . S
H593 C565 0.929 . S
H594 C567 0.930 . S
H595 C568 0.929 . S
H596 C573 0.930 . S
H597 C574 0.929 . S
H598 C576 0.930 . S
H599 C577 0.929 . S
Nd600 C602 2.836 . S
Nd600 O620 2.500 . S
Nd600 O621 2.492 . S
Nd600 O622 2.487 . S
Nd600 O623 2.682 . S
Nd600 O624 2.410 . S
Nd600 O629 2.414 . S
Nd600 O631 2.424 . S
Nd601 C611 2.836 . S
Nd601 O623 2.414 . S
Nd601 O625 2.424 . S
Nd601 O626 2.500 . S
Nd601 O627 2.492 . S
Nd601 O628 2.487 . S
Nd601 O629 2.682 . S
Nd601 O630 2.410 . S
C602 Nd600 2.836 . S
C602 C603 1.498 . S
C602 O620 1.258 . S
C602 O621 1.239 . S
C603 C602 1.498 . S
C603 C604 1.366 . S
C603 C608 1.407 . S
C604 C603 1.366 . S
C604 C605 1.392 . S
C604 H632 0.930 . S
C605 C604 1.392 . S
C605 C606 1.398 . S
C605 H633 0.929 . S
C606 C605 1.398 . S
C606 C607 1.352 . S
C607 C606 1.352 . S
C607 C608 1.384 . S
C607 H634 0.930 . S
C608 C603 1.407 . S
C608 C607 1.384 . S
C608 H635 0.929 . S
C609 O622 1.241 . S
C609 O623 1.273 . S
C610 O624 1.251 . S
C610 O625 1.268 . S
C611 Nd601 2.836 . S
C611 C612 1.498 . S
C611 O626 1.258 . S
C611 O627 1.239 . S
C612 C611 1.498 . S
C612 C613 1.366 . S
C612 C617 1.407 . S
C613 C612 1.366 . S
C613 C614 1.392 . S
C613 H636 0.930 . S
C614 C613 1.392 . S
C614 C615 1.398 . S
C614 H637 0.929 . S
C615 C614 1.398 . S
C615 C616 1.352 . S
C616 C615 1.352 . S
C616 C617 1.384 . S
C616 H638 0.930 . S
C617 C612 1.407 . S
C617 C616 1.384 . S
C617 H639 0.929 . S
C618 O628 1.241 . S
C618 O629 1.273 . S
C619 O630 1.251 . S
C619 O631 1.268 . S
O620 Nd600 2.500 . S
O620 C602 1.258 . S
O621 Nd600 2.492 . S
O621 C602 1.239 . S
O622 Nd600 2.487 . S
O622 C609 1.241 . S
O623 Nd600 2.682 . S
O623 Nd601 2.414 . S
O623 C609 1.273 . S
O624 Nd600 2.410 . S
O624 C610 1.251 . S
O625 Nd601 2.424 . S
O625 C610 1.268 . S
O626 Nd601 2.500 . S
O626 C611 1.258 . S
O627 Nd601 2.492 . S
O627 C611 1.239 . S
O628 Nd601 2.487 . S
O628 C618 1.241 . S
O629 Nd600 2.414 . S
O629 Nd601 2.682 . S
O629 C618 1.273 . S
O630 Nd601 2.410 . S
O630 C619 1.251 . S
O631 Nd600 2.424 . S
O631 C619 1.268 . S
H632 C604 0.930 . S
H633 C605 0.929 . S
H634 C607 0.930 . S
H635 C608 0.929 . S
H636 C613 0.930 . S
H637 C614 0.929 . S
H638 C616 0.930 . S
H639 C617 0.929 . S
Nd640 C642 2.836 . S
Nd640 O660 2.500 . S
Nd640 O661 2.492 . S
Nd640 O662 2.487 . S
Nd640 O663 2.682 . S
Nd640 O664 2.410 . S
Nd640 O669 2.414 . S
Nd640 O671 2.424 . S
Nd641 C651 2.836 . S
Nd641 O663 2.414 . S
Nd641 O665 2.424 . S
Nd641 O666 2.500 . S
Nd641 O667 2.492 . S
Nd641 O668 2.487 . S
Nd641 O669 2.682 . S
Nd641 O670 2.410 . S
C642 Nd640 2.836 . S
C642 C643 1.498 . S
C642 O660 1.258 . S
C642 O661 1.239 . S
C643 C642 1.498 . S
C643 C644 1.366 . S
C643 C648 1.407 . S
C644 C643 1.366 . S
C644 C645 1.392 . S
C644 H672 0.930 . S
C645 C644 1.392 . S
C645 C646 1.398 . S
C645 H673 0.929 . S
C646 C645 1.398 . S
C646 C647 1.352 . S
C647 C646 1.352 . S
C647 C648 1.384 . S
C647 H674 0.930 . S
C648 C643 1.407 . S
C648 C647 1.384 . S
C648 H675 0.929 . S
C649 O662 1.241 . S
C649 O663 1.273 . S
C650 O664 1.251 . S
C650 O665 1.268 . S
C651 Nd641 2.836 . S
C651 C652 1.498 . S
C651 O666 1.258 . S
C651 O667 1.239 . S
C652 C651 1.498 . S
C652 C653 1.366 . S
C652 C657 1.407 . S
C653 C652 1.366 . S
C653 C654 1.392 . S
C653 H676 0.930 . S
C654 C653 1.392 . S
C654 C655 1.398 . S
C654 H677 0.929 . S
C655 C654 1.398 . S
C655 C656 1.352 . S
C656 C655 1.352 . S
C656 C657 1.384 . S
C656 H678 0.930 . S
C657 C652 1.407 . S
C657 C656 1.384 . S
C657 H679 0.929 . S
C658 O668 1.241 . S
C658 O669 1.273 . S
C659 O670 1.251 . S
C659 O671 1.268 . S
O660 Nd640 2.500 . S
O660 C642 1.258 . S
O661 Nd640 2.492 . S
O661 C642 1.239 . S
O662 Nd640 2.487 . S
O662 C649 1.241 . S
O663 Nd640 2.682 . S
O663 Nd641 2.414 . S
O663 C649 1.273 . S
O664 Nd640 2.410 . S
O664 C650 1.251 . S
O665 Nd641 2.424 . S
O665 C650 1.268 . S
O666 Nd641 2.500 . S
O666 C651 1.258 . S
O667 Nd641 2.492 . S
O667 C651 1.239 . S
O668 Nd641 2.487 . S
O668 C658 1.241 . S
O669 Nd640 2.414 . S
O669 Nd641 2.682 . S
O669 C658 1.273 . S
O670 Nd641 2.410 . S
O670 C659 1.251 . S
O671 Nd640 2.424 . S
O671 C659 1.268 . S
H672 C644 0.930 . S
H673 C645 0.929 . S
H674 C647 0.930 . S
H675 C648 0.929 . S
H676 C653 0.930 . S
H677 C654 0.929 . S
H678 C656 0.930 . S
H679 C657 0.929 . S
Nd680 C682 2.836 . S
Nd680 O700 2.500 . S
Nd680 O701 2.492 . S
Nd680 O702 2.487 . S
Nd680 O703 2.682 . S
Nd680 O704 2.410 . S
Nd680 O709 2.414 . S
Nd680 O711 2.424 . S
Nd681 C691 2.836 . S
Nd681 O703 2.414 . S
Nd681 O705 2.424 . S
Nd681 O706 2.500 . S
Nd681 O707 2.492 . S
Nd681 O708 2.487 . S
Nd681 O709 2.682 . S
Nd681 O710 2.410 . S
C682 Nd680 2.836 . S
C682 C683 1.498 . S
C682 O700 1.258 . S
C682 O701 1.239 . S
C683 C682 1.498 . S
C683 C684 1.366 . S
C683 C688 1.407 . S
C684 C683 1.366 . S
C684 C685 1.392 . S
C684 H712 0.930 . S
C685 C684 1.392 . S
C685 C686 1.398 . S
C685 H713 0.929 . S
C686 C685 1.398 . S
C686 C687 1.352 . S
C687 C686 1.352 . S
C687 C688 1.384 . S
C687 H714 0.930 . S
C688 C683 1.407 . S
C688 C687 1.384 . S
C688 H715 0.929 . S
C689 O702 1.241 . S
C689 O703 1.273 . S
C690 O704 1.251 . S
C690 O705 1.268 . S
C691 Nd681 2.836 . S
C691 C692 1.498 . S
C691 O706 1.258 . S
C691 O707 1.239 . S
C692 C691 1.498 . S
C692 C693 1.366 . S
C692 C697 1.407 . S
C693 C692 1.366 . S
C693 C694 1.392 . S
C693 H716 0.930 . S
C694 C693 1.392 . S
C694 C695 1.398 . S
C694 H717 0.929 . S
C695 C694 1.398 . S
C695 C696 1.352 . S
C696 C695 1.352 . S
C696 C697 1.384 . S
C696 H718 0.930 . S
C697 C692 1.407 . S
C697 C696 1.384 . S
C697 H719 0.929 . S
C698 O708 1.241 . S
C698 O709 1.273 . S
C699 O710 1.251 . S
C699 O711 1.268 . S
O700 Nd680 2.500 . S
O700 C682 1.258 . S
O701 Nd680 2.492 . S
O701 C682 1.239 . S
O702 Nd680 2.487 . S
O702 C689 1.241 . S
O703 Nd680 2.682 . S
O703 Nd681 2.414 . S
O703 C689 1.273 . S
O704 Nd680 2.410 . S
O704 C690 1.251 . S
O705 Nd681 2.424 . S
O705 C690 1.268 . S
O706 Nd681 2.500 . S
O706 C691 1.258 . S
O707 Nd681 2.492 . S
O707 C691 1.239 . S
O708 Nd681 2.487 . S
O708 C698 1.241 . S
O709 Nd680 2.414 . S
O709 Nd681 2.682 . S
O709 C698 1.273 . S
O710 Nd681 2.410 . S
O710 C699 1.251 . S
O711 Nd680 2.424 . S
O711 C699 1.268 . S
H712 C684 0.930 . S
H713 C685 0.929 . S
H714 C687 0.930 . S
H715 C688 0.929 . S
H716 C693 0.930 . S
H717 C694 0.929 . S
H718 C696 0.930 . S
H719 C697 0.929 . S
Nd720 C722 2.836 . S
Nd720 O740 2.500 . S
Nd720 O741 2.492 . S
Nd720 O742 2.487 . S
Nd720 O743 2.682 . S
Nd720 O744 2.410 . S
Nd720 O749 2.414 . S
Nd720 O751 2.424 . S
Nd721 C731 2.836 . S
Nd721 O743 2.414 . S
Nd721 O745 2.424 . S
Nd721 O746 2.500 . S
Nd721 O747 2.492 . S
Nd721 O748 2.487 . S
Nd721 O749 2.682 . S
Nd721 O750 2.410 . S
C722 Nd720 2.836 . S
C722 C723 1.498 . S
C722 O740 1.258 . S
C722 O741 1.239 . S
C723 C722 1.498 . S
C723 C724 1.366 . S
C723 C728 1.407 . S
C724 C723 1.366 . S
C724 C725 1.392 1_655 S
C724 H752 0.930 . S
C725 C724 1.392 1_455 S
C725 C726 1.398 . S
C725 H753 0.929 . S
C726 C725 1.398 . S
C726 C727 1.352 1_455 S
C727 C726 1.352 1_655 S
C727 C728 1.384 . S
C727 H754 0.930 . S
C728 C723 1.407 . S
C728 C727 1.384 . S
C728 H755 0.929 . S
C729 O742 1.241 . S
C729 O743 1.273 . S
C730 O744 1.251 . S
C730 O745 1.268 . S
C731 Nd721 2.836 . S
C731 C732 1.498 . S
C731 O746 1.258 . S
C731 O747 1.239 . S
C732 C731 1.498 . S
C732 C733 1.366 . S
C732 C737 1.407 . S
C733 C732 1.366 . S
C733 C734 1.392 . S
C733 H756 0.930 . S
C734 C733 1.392 . S
C734 C735 1.398 . S
C734 H757 0.929 . S
C735 C734 1.398 . S
C735 C736 1.352 . S
C736 C735 1.352 . S
C736 C737 1.384 . S
C736 H758 0.930 . S
C737 C732 1.407 . S
C737 C736 1.384 . S
C737 H759 0.929 . S
C738 O748 1.241 . S
C738 O749 1.273 . S
C739 O750 1.251 . S
C739 O751 1.268 . S
O740 Nd720 2.500 . S
O740 C722 1.258 . S
O741 Nd720 2.492 . S
O741 C722 1.239 . S
O742 Nd720 2.487 . S
O742 C729 1.241 . S
O743 Nd720 2.682 . S
O743 Nd721 2.414 . S
O743 C729 1.273 . S
O744 Nd720 2.410 . S
O744 C730 1.251 . S
O745 Nd721 2.424 . S
O745 C730 1.268 . S
O746 Nd721 2.500 . S
O746 C731 1.258 . S
O747 Nd721 2.492 . S
O747 C731 1.239 . S
O748 Nd721 2.487 . S
O748 C738 1.241 . S
O749 Nd720 2.414 . S
O749 Nd721 2.682 . S
O749 C738 1.273 . S
O750 Nd721 2.410 . S
O750 C739 1.251 . S
O751 Nd720 2.424 . S
O751 C739 1.268 . S
H752 C724 0.930 . S
H753 C725 0.929 . S
H754 C727 0.930 . S
H755 C728 0.929 . S
H756 C733 0.930 . S
H757 C734 0.929 . S
H758 C736 0.930 . S
H759 C737 0.929 . S
Nd760 C762 2.836 . S
Nd760 O780 2.500 . S
Nd760 O781 2.492 . S
Nd760 O782 2.487 . S
Nd760 O783 2.682 . S
Nd760 O784 2.410 . S
Nd760 O789 2.414 . S
Nd760 O791 2.424 . S
Nd761 C771 2.836 . S
Nd761 O783 2.414 . S
Nd761 O785 2.424 . S
Nd761 O786 2.500 . S
Nd761 O787 2.492 . S
Nd761 O788 2.487 . S
Nd761 O789 2.682 . S
Nd761 O790 2.410 . S
C762 Nd760 2.836 . S
C762 C763 1.498 . S
C762 O780 1.258 . S
C762 O781 1.239 . S
C763 C762 1.498 . S
C763 C764 1.366 . S
C763 C768 1.407 . S
C764 C763 1.366 . S
C764 C765 1.392 . S
C764 H792 0.930 . S
C765 C764 1.392 . S
C765 C766 1.398 . S
C765 H793 0.929 . S
C766 C765 1.398 . S
C766 C767 1.352 . S
C767 C766 1.352 . S
C767 C768 1.384 . S
C767 H794 0.930 . S
C768 C763 1.407 . S
C768 C767 1.384 . S
C768 H795 0.929 . S
C769 O782 1.241 . S
C769 O783 1.273 . S
C770 O784 1.251 . S
C770 O785 1.268 . S
C771 Nd761 2.836 . S
C771 C772 1.498 . S
C771 O786 1.258 . S
C771 O787 1.239 . S
C772 C771 1.498 . S
C772 C773 1.366 . S
C772 C777 1.407 . S
C773 C772 1.366 . S
C773 C774 1.392 . S
C773 H796 0.930 . S
C774 C773 1.392 . S
C774 C775 1.398 . S
C774 H797 0.929 . S
C775 C774 1.398 . S
C775 C776 1.352 . S
C776 C775 1.352 . S
C776 C777 1.384 . S
C776 H798 0.930 . S
C777 C772 1.407 . S
C777 C776 1.384 . S
C777 H799 0.929 . S
C778 O788 1.241 . S
C778 O789 1.273 . S
C779 O790 1.251 . S
C779 O791 1.268 . S
O780 Nd760 2.500 . S
O780 C762 1.258 . S
O781 Nd760 2.492 . S
O781 C762 1.239 . S
O782 Nd760 2.487 . S
O782 C769 1.241 . S
O783 Nd760 2.682 . S
O783 Nd761 2.414 . S
O783 C769 1.273 . S
O784 Nd760 2.410 . S
O784 C770 1.251 . S
O785 Nd761 2.424 . S
O785 C770 1.268 . S
O786 Nd761 2.500 . S
O786 C771 1.258 . S
O787 Nd761 2.492 . S
O787 C771 1.239 . S
O788 Nd761 2.487 . S
O788 C778 1.241 . S
O789 Nd760 2.414 . S
O789 Nd761 2.682 . S
O789 C778 1.273 . S
O790 Nd761 2.410 . S
O790 C779 1.251 . S
O791 Nd760 2.424 . S
O791 C779 1.268 . S
H792 C764 0.930 . S
H793 C765 0.929 . S
H794 C767 0.930 . S
H795 C768 0.929 . S
H796 C773 0.930 . S
H797 C774 0.929 . S
H798 C776 0.930 . S
H799 C777 0.929 . S
Nd800 C802 2.836 . S
Nd800 O820 2.500 . S
Nd800 O821 2.492 . S
Nd800 O822 2.487 . S
Nd800 O823 2.682 . S
Nd800 O824 2.410 . S
Nd800 O829 2.414 . S
Nd800 O831 2.424 . S
Nd801 C811 2.836 . S
Nd801 O823 2.414 . S
Nd801 O825 2.424 . S
Nd801 O826 2.500 . S
Nd801 O827 2.492 . S
Nd801 O828 2.487 . S
Nd801 O829 2.682 . S
Nd801 O830 2.410 . S
C802 Nd800 2.836 . S
C802 C803 1.498 . S
C802 O820 1.258 . S
C802 O821 1.239 . S
C803 C802 1.498 . S
C803 C804 1.366 . S
C803 C808 1.407 . S
C804 C803 1.366 . S
C804 C805 1.392 . S
C804 H832 0.930 . S
C805 C804 1.392 . S
C805 C806 1.398 . S
C805 H833 0.929 . S
C806 C805 1.398 . S
C806 C807 1.352 . S
C807 C806 1.352 . S
C807 C808 1.384 . S
C807 H834 0.930 . S
C808 C803 1.407 . S
C808 C807 1.384 . S
C808 H835 0.929 . S
C809 O822 1.241 . S
C809 O823 1.273 . S
C810 O824 1.251 . S
C810 O825 1.268 . S
C811 Nd801 2.836 . S
C811 C812 1.498 . S
C811 O826 1.258 . S
C811 O827 1.239 . S
C812 C811 1.498 . S
C812 C813 1.366 . S
C812 C817 1.407 . S
C813 C812 1.366 . S
C813 C814 1.392 . S
C813 H836 0.930 . S
C814 C813 1.392 . S
C814 C815 1.398 . S
C814 H837 0.929 . S
C815 C814 1.398 . S
C815 C816 1.352 . S
C816 C815 1.352 . S
C816 C817 1.384 . S
C816 H838 0.930 . S
C817 C812 1.407 . S
C817 C816 1.384 . S
C817 H839 0.929 . S
C818 O828 1.241 . S
C818 O829 1.273 . S
C819 O830 1.251 . S
C819 O831 1.268 . S
O820 Nd800 2.500 . S
O820 C802 1.258 . S
O821 Nd800 2.492 . S
O821 C802 1.239 . S
O822 Nd800 2.487 . S
O822 C809 1.241 . S
O823 Nd800 2.682 . S
O823 Nd801 2.414 . S
O823 C809 1.273 . S
O824 Nd800 2.410 . S
O824 C810 1.251 . S
O825 Nd801 2.424 . S
O825 C810 1.268 . S
O826 Nd801 2.500 . S
O826 C811 1.258 . S
O827 Nd801 2.492 . S
O827 C811 1.239 . S
O828 Nd801 2.487 . S
O828 C818 1.241 . S
O829 Nd800 2.414 . S
O829 Nd801 2.682 . S
O829 C818 1.273 . S
O830 Nd801 2.410 . S
O830 C819 1.251 . S
O831 Nd800 2.424 . S
O831 C819 1.268 . S
H832 C804 0.930 . S
H833 C805 0.929 . S
H834 C807 0.930 . S
H835 C808 0.929 . S
H836 C813 0.930 . S
H837 C814 0.929 . S
H838 C816 0.930 . S
H839 C817 0.929 . S
Nd840 C842 2.836 . S
Nd840 O860 2.500 . S
Nd840 O861 2.492 . S
Nd840 O862 2.487 . S
Nd840 O863 2.682 . S
Nd840 O864 2.410 . S
Nd840 O869 2.414 . S
Nd840 O871 2.424 . S
Nd841 C851 2.836 . S
Nd841 O863 2.414 . S
Nd841 O865 2.424 . S
Nd841 O866 2.500 . S
Nd841 O867 2.492 . S
Nd841 O868 2.487 . S
Nd841 O869 2.682 . S
Nd841 O870 2.410 . S
C842 Nd840 2.836 . S
C842 C843 1.498 . S
C842 O860 1.258 . S
C842 O861 1.239 . S
C843 C842 1.498 . S
C843 C844 1.366 . S
C843 C848 1.407 . S
C844 C843 1.366 . S
C844 C845 1.392 . S
C844 H872 0.930 . S
C845 C844 1.392 . S
C845 C846 1.398 . S
C845 H873 0.929 . S
C846 C845 1.398 . S
C846 C847 1.352 . S
C847 C846 1.352 . S
C847 C848 1.384 . S
C847 H874 0.930 . S
C848 C843 1.407 . S
C848 C847 1.384 . S
C848 H875 0.929 . S
C849 O862 1.241 . S
C849 O863 1.273 . S
C850 O864 1.251 . S
C850 O865 1.268 . S
C851 Nd841 2.836 . S
C851 C852 1.498 . S
C851 O866 1.258 . S
C851 O867 1.239 . S
C852 C851 1.498 . S
C852 C853 1.366 . S
C852 C857 1.407 . S
C853 C852 1.366 . S
C853 C854 1.392 . S
C853 H876 0.930 . S
C854 C853 1.392 . S
C854 C855 1.398 . S
C854 H877 0.929 . S
C855 C854 1.398 . S
C855 C856 1.352 . S
C856 C855 1.352 . S
C856 C857 1.384 . S
C856 H878 0.930 . S
C857 C852 1.407 . S
C857 C856 1.384 . S
C857 H879 0.929 . S
C858 O868 1.241 . S
C858 O869 1.273 . S
C859 O870 1.251 . S
C859 O871 1.268 . S
O860 Nd840 2.500 . S
O860 C842 1.258 . S
O861 Nd840 2.492 . S
O861 C842 1.239 . S
O862 Nd840 2.487 . S
O862 C849 1.241 . S
O863 Nd840 2.682 . S
O863 Nd841 2.414 . S
O863 C849 1.273 . S
O864 Nd840 2.410 . S
O864 C850 1.251 . S
O865 Nd841 2.424 . S
O865 C850 1.268 . S
O866 Nd841 2.500 . S
O866 C851 1.258 . S
O867 Nd841 2.492 . S
O867 C851 1.239 . S
O868 Nd841 2.487 . S
O868 C858 1.241 . S
O869 Nd840 2.414 . S
O869 Nd841 2.682 . S
O869 C858 1.273 . S
O870 Nd841 2.410 . S
O870 C859 1.251 . S
O871 Nd840 2.424 . S
O871 C859 1.268 . S
H872 C844 0.930 . S
H873 C845 0.929 . S
H874 C847 0.930 . S
H875 C848 0.929 . S
H876 C853 0.930 . S
H877 C854 0.929 . S
H878 C856 0.930 . S
H879 C857 0.929 . S
Nd880 C882 2.836 . S
Nd880 O900 2.500 . S
Nd880 O901 2.492 . S
Nd880 O902 2.487 . S
Nd880 O903 2.682 . S
Nd880 O904 2.410 . S
Nd880 O909 2.414 . S
Nd880 O911 2.424 . S
Nd881 C891 2.836 . S
Nd881 O903 2.414 . S
Nd881 O905 2.424 . S
Nd881 O906 2.500 . S
Nd881 O907 2.492 . S
Nd881 O908 2.487 . S
Nd881 O909 2.682 . S
Nd881 O910 2.410 . S
C882 Nd880 2.836 . S
C882 C883 1.498 . S
C882 O900 1.258 . S
C882 O901 1.239 . S
C883 C882 1.498 . S
C883 C884 1.366 . S
C883 C888 1.407 . S
C884 C883 1.366 . S
C884 C885 1.392 1_655 S
C884 H912 0.930 . S
C885 C884 1.392 1_455 S
C885 C886 1.398 . S
C885 H913 0.929 . S
C886 C885 1.398 . S
C886 C887 1.352 1_455 S
C887 C886 1.352 1_655 S
C887 C888 1.384 . S
C887 H914 0.930 . S
C888 C883 1.407 . S
C888 C887 1.384 . S
C888 H915 0.929 . S
C889 O902 1.241 . S
C889 O903 1.273 . S
C890 O904 1.251 . S
C890 O905 1.268 . S
C891 Nd881 2.836 . S
C891 C892 1.498 . S
C891 O906 1.258 . S
C891 O907 1.239 . S
C892 C891 1.498 . S
C892 C893 1.366 . S
C892 C897 1.407 . S
C893 C892 1.366 . S
C893 C894 1.392 . S
C893 H916 0.930 . S
C894 C893 1.392 . S
C894 C895 1.398 . S
C894 H917 0.929 . S
C895 C894 1.398 . S
C895 C896 1.352 . S
C896 C895 1.352 . S
C896 C897 1.384 . S
C896 H918 0.930 . S
C897 C892 1.407 . S
C897 C896 1.384 . S
C897 H919 0.929 . S
C898 O908 1.241 . S
C898 O909 1.273 . S
C899 O910 1.251 . S
C899 O911 1.268 . S
O900 Nd880 2.500 . S
O900 C882 1.258 . S
O901 Nd880 2.492 . S
O901 C882 1.239 . S
O902 Nd880 2.487 . S
O902 C889 1.241 . S
O903 Nd880 2.682 . S
O903 Nd881 2.414 . S
O903 C889 1.273 . S
O904 Nd880 2.410 . S
O904 C890 1.251 . S
O905 Nd881 2.424 . S
O905 C890 1.268 . S
O906 Nd881 2.500 . S
O906 C891 1.258 . S
O907 Nd881 2.492 . S
O907 C891 1.239 . S
O908 Nd881 2.487 . S
O908 C898 1.241 . S
O909 Nd880 2.414 . S
O909 Nd881 2.682 . S
O909 C898 1.273 . S
O910 Nd881 2.410 . S
O910 C899 1.251 . S
O911 Nd880 2.424 . S
O911 C899 1.268 . S
H912 C884 0.930 . S
H913 C885 0.929 . S
H914 C887 0.930 . S
H915 C888 0.929 . S
H916 C893 0.930 . S
H917 C894 0.929 . S
H918 C896 0.930 . S
H919 C897 0.929 . S
Nd920 C922 2.836 . S
Nd920 O940 2.500 . S
Nd920 O941 2.492 . S
Nd920 O942 2.487 . S
Nd920 O943 2.682 . S
Nd920 O944 2.410 . S
Nd920 O949 2.414 . S
Nd920 O951 2.424 . S
Nd921 C931 2.836 . S
Nd921 O943 2.414 . S
Nd921 O945 2.424 . S
Nd921 O946 2.500 . S
Nd921 O947 2.492 . S
Nd921 O948 2.487 . S
Nd921 O949 2.682 . S
Nd921 O950 2.410 . S
C922 Nd920 2.836 . S
C922 C923 1.498 . S
C922 O940 1.258 . S
C922 O941 1.239 . S
C923 C922 1.498 . S
C923 C924 1.366 . S
C923 C928 1.407 . S
C924 C923 1.366 . S
C924 C925 1.392 . S
C924 H952 0.930 . S
C925 C924 1.392 . S
C925 C926 1.398 . S
C925 H953 0.929 . S
C926 C925 1.398 . S
C926 C927 1.352 . S
C927 C926 1.352 . S
C927 C928 1.384 . S
C927 H954 0.930 . S
C928 C923 1.407 . S
C928 C927 1.384 . S
C928 H955 0.929 . S
C929 O942 1.241 . S
C929 O943 1.273 . S
C930 O944 1.251 . S
C930 O945 1.268 . S
C931 Nd921 2.836 . S
C931 C932 1.498 . S
C931 O946 1.258 . S
C931 O947 1.239 . S
C932 C931 1.498 . S
C932 C933 1.366 . S
C932 C937 1.407 . S
C933 C932 1.366 . S
C933 C934 1.392 . S
C933 H956 0.930 . S
C934 C933 1.392 . S
C934 C935 1.398 . S
C934 H957 0.929 . S
C935 C934 1.398 . S
C935 C936 1.352 . S
C936 C935 1.352 . S
C936 C937 1.384 . S
C936 H958 0.930 . S
C937 C932 1.407 . S
C937 C936 1.384 . S
C937 H959 0.929 . S
C938 O948 1.241 . S
C938 O949 1.273 . S
C939 O950 1.251 . S
C939 O951 1.268 . S
O940 Nd920 2.500 . S
O940 C922 1.258 . S
O941 Nd920 2.492 . S
O941 C922 1.239 . S
O942 Nd920 2.487 . S
O942 C929 1.241 . S
O943 Nd920 2.682 . S
O943 Nd921 2.414 . S
O943 C929 1.273 . S
O944 Nd920 2.410 . S
O944 C930 1.251 . S
O945 Nd921 2.424 . S
O945 C930 1.268 . S
O946 Nd921 2.500 . S
O946 C931 1.258 . S
O947 Nd921 2.492 . S
O947 C931 1.239 . S
O948 Nd921 2.487 . S
O948 C938 1.241 . S
O949 Nd920 2.414 . S
O949 Nd921 2.682 . S
O949 C938 1.273 . S
O950 Nd921 2.410 . S
O950 C939 1.251 . S
O951 Nd920 2.424 . S
O951 C939 1.268 . S
H952 C924 0.930 . S
H953 C925 0.929 . S
H954 C927 0.930 . S
H955 C928 0.929 . S
H956 C933 0.930 . S
H957 C934 0.929 . S
H958 C936 0.930 . S
H959 C937 0.929 . S
Nd960 C962 2.836 . S
Nd960 O980 2.500 . S
Nd960 O981 2.492 . S
Nd960 O982 2.487 . S
Nd960 O983 2.682 . S
Nd960 O984 2.410 . S
Nd960 O989 2.414 . S
Nd960 O991 2.424 . S
Nd961 C971 2.836 . S
Nd961 O983 2.414 . S
Nd961 O985 2.424 . S
Nd961 O986 2.500 . S
Nd961 O987 2.492 . S
Nd961 O988 2.487 . S
Nd961 O989 2.682 . S
Nd961 O990 2.410 . S
C962 Nd960 2.836 . S
C962 C963 1.498 . S
C962 O980 1.258 . S
C962 O981 1.239 . S
C963 C962 1.498 . S
C963 C964 1.366 . S
C963 C968 1.407 . S
C964 C963 1.366 . S
C964 C965 1.392 . S
C964 H992 0.930 . S
C965 C964 1.392 . S
C965 C966 1.398 . S
C965 H993 0.929 . S
C966 C965 1.398 . S
C966 C967 1.352 . S
C967 C966 1.352 . S
C967 C968 1.384 . S
C967 H994 0.930 . S
C968 C963 1.407 . S
C968 C967 1.384 . S
C968 H995 0.929 . S
C969 O982 1.241 . S
C969 O983 1.273 . S
C970 O984 1.251 . S
C970 O985 1.268 . S
C971 Nd961 2.836 . S
C971 C972 1.498 . S
C971 O986 1.258 . S
C971 O987 1.239 . S
C972 C971 1.498 . S
C972 C973 1.366 . S
C972 C977 1.407 . S
C973 C972 1.366 . S
C973 C974 1.392 . S
C973 H996 0.930 . S
C974 C973 1.392 . S
C974 C975 1.398 . S
C974 H997 0.929 . S
C975 C974 1.398 . S
C975 C976 1.352 . S
C976 C975 1.352 . S
C976 C977 1.384 . S
C976 H998 0.930 . S
C977 C972 1.407 . S
C977 C976 1.384 . S
C977 H999 0.929 . S
C978 O988 1.241 . S
C978 O989 1.273 . S
C979 O990 1.251 . S
C979 O991 1.268 . S
O980 Nd960 2.500 . S
O980 C962 1.258 . S
O981 Nd960 2.492 . S
O981 C962 1.239 . S
O982 Nd960 2.487 . S
O982 C969 1.241 . S
O983 Nd960 2.682 . S
O983 Nd961 2.414 . S
O983 C969 1.273 . S
O984 Nd960 2.410 . S
O984 C970 1.251 . S
O985 Nd961 2.424 . S
O985 C970 1.268 . S
O986 Nd961 2.500 . S
O986 C971 1.258 . S
O987 Nd961 2.492 . S
O987 C971 1.239 . S
O988 Nd961 2.487 . S
O988 C978 1.241 . S
O989 Nd960 2.414 . S
O989 Nd961 2.682 . S
O989 C978 1.273 . S
O990 Nd961 2.410 . S
O990 C979 1.251 . S
O991 Nd960 2.424 . S
O991 C979 1.268 . S
H992 C964 0.930 . S
H993 C965 0.929 . S
H994 C967 0.930 . S
H995 C968 0.929 . S
H996 C973 0.930 . S
H997 C974 0.929 . S
H998 C976 0.930 . S
H999 C977 0.929 . S
Nd1000 C1002 2.836 . S
Nd1000 O1020 2.500 . S
Nd1000 O1021 2.492 . S
Nd1000 O1022 2.487 . S
Nd1000 O1023 2.682 . S
Nd1000 O1024 2.410 . S
Nd1000 O1029 2.414 . S
Nd1000 O1031 2.424 . S
Nd1001 C1011 2.836 . S
Nd1001 O1023 2.414 . S
Nd1001 O1025 2.424 . S
Nd1001 O1026 2.500 . S
Nd1001 O1027 2.492 . S
Nd1001 O1028 2.487 . S
Nd1001 O1029 2.682 . S
Nd1001 O1030 2.410 . S
C1002 Nd1000 2.836 . S
C1002 C1003 1.498 . S
C1002 O1020 1.258 . S
C1002 O1021 1.239 . S
C1003 C1002 1.498 . S
C1003 C1004 1.366 . S
C1003 C1008 1.407 . S
C1004 C1003 1.366 . S
C1004 C1005 1.392 . S
C1004 H1032 0.930 . S
C1005 C1004 1.392 . S
C1005 C1006 1.398 . S
C1005 H1033 0.929 . S
C1006 C1005 1.398 . S
C1006 C1007 1.352 . S
C1007 C1006 1.352 . S
C1007 C1008 1.384 . S
C1007 H1034 0.930 . S
C1008 C1003 1.407 . S
C1008 C1007 1.384 . S
C1008 H1035 0.929 . S
C1009 O1022 1.241 . S
C1009 O1023 1.273 . S
C1010 O1024 1.251 . S
C1010 O1025 1.268 . S
C1011 Nd1001 2.836 . S
C1011 C1012 1.498 . S
C1011 O1026 1.258 . S
C1011 O1027 1.239 . S
C1012 C1011 1.498 . S
C1012 C1013 1.366 . S
C1012 C1017 1.407 . S
C1013 C1012 1.366 . S
C1013 C1014 1.392 . S
C1013 H1036 0.930 . S
C1014 C1013 1.392 . S
C1014 C1015 1.398 . S
C1014 H1037 0.929 . S
C1015 C1014 1.398 . S
C1015 C1016 1.352 . S
C1016 C1015 1.352 . S
C1016 C1017 1.384 . S
C1016 H1038 0.930 . S
C1017 C1012 1.407 . S
C1017 C1016 1.384 . S
C1017 H1039 0.929 . S
C1018 O1028 1.241 . S
C1018 O1029 1.273 . S
C1019 O1030 1.251 . S
C1019 O1031 1.268 . S
O1020 Nd1000 2.500 . S
O1020 C1002 1.258 . S
O1021 Nd1000 2.492 . S
O1021 C1002 1.239 . S
O1022 Nd1000 2.487 . S
O1022 C1009 1.241 . S
O1023 Nd1000 2.682 . S
O1023 Nd1001 2.414 . S
O1023 C1009 1.273 . S
O1024 Nd1000 2.410 . S
O1024 C1010 1.251 . S
O1025 Nd1001 2.424 . S
O1025 C1010 1.268 . S
O1026 Nd1001 2.500 . S
O1026 C1011 1.258 . S
O1027 Nd1001 2.492 . S
O1027 C1011 1.239 . S
O1028 Nd1001 2.487 . S
O1028 C1018 1.241 . S
O1029 Nd1000 2.414 . S
O1029 Nd1001 2.682 . S
O1029 C1018 1.273 . S
O1030 Nd1001 2.410 . S
O1030 C1019 1.251 . S
O1031 Nd1000 2.424 . S
O1031 C1019 1.268 . S
H1032 C1004 0.930 . S
H1033 C1005 0.929 . S
H1034 C1007 0.930 . S
H1035 C1008 0.929 . S
H1036 C1013 0.930 . S
H1037 C1014 0.929 . S
H1038 C1016 0.930 . S
H1039 C1017 0.929 . S
Nd1040 C1042 2.836 . S
Nd1040 O1060 2.500 . S
Nd1040 O1061 2.492 . S
Nd1040 O1062 2.487 . S
Nd1040 O1063 2.682 . S
Nd1040 O1064 2.410 . S
Nd1040 O1069 2.414 . S
Nd1040 O1071 2.424 . S
Nd1041 C1051 2.836 . S
Nd1041 O1063 2.414 . S
Nd1041 O1065 2.424 . S
Nd1041 O1066 2.500 . S
Nd1041 O1067 2.492 . S
Nd1041 O1068 2.487 . S
Nd1041 O1069 2.682 . S
Nd1041 O1070 2.410 . S
C1042 Nd1040 2.836 . S
C1042 C1043 1.498 . S
C1042 O1060 1.258 . S
C1042 O1061 1.239 . S
C1043 C1042 1.498 . S
C1043 C1044 1.366 . S
C1043 C1048 1.407 . S
C1044 C1043 1.366 . S
C1044 C1045 1.392 . S
C1044 H1072 0.930 . S
C1045 C1044 1.392 . S
C1045 C1046 1.398 . S
C1045 H1073 0.929 . S
C1046 C1045 1.398 . S
C1046 C1047 1.352 . S
C1047 C1046 1.352 . S
C1047 C1048 1.384 . S
C1047 H1074 0.930 . S
C1048 C1043 1.407 . S
C1048 C1047 1.384 . S
C1048 H1075 0.929 . S
C1049 O1062 1.241 . S
C1049 O1063 1.273 . S
C1050 O1064 1.251 . S
C1050 O1065 1.268 . S
C1051 Nd1041 2.836 . S
C1051 C1052 1.498 . S
C1051 O1066 1.258 . S
C1051 O1067 1.239 . S
C1052 C1051 1.498 . S
C1052 C1053 1.366 . S
C1052 C1057 1.407 . S
C1053 C1052 1.366 . S
C1053 C1054 1.392 1_455 S
C1053 H1076 0.930 . S
C1054 C1053 1.392 1_655 S
C1054 C1055 1.398 . S
C1054 H1077 0.929 . S
C1055 C1054 1.398 . S
C1055 C1056 1.352 1_655 S
C1056 C1055 1.352 1_455 S
C1056 C1057 1.384 . S
C1056 H1078 0.930 . S
C1057 C1052 1.407 . S
C1057 C1056 1.384 . S
C1057 H1079 0.929 . S
C1058 O1068 1.241 . S
C1058 O1069 1.273 . S
C1059 O1070 1.251 . S
C1059 O1071 1.268 . S
O1060 Nd1040 2.500 . S
O1060 C1042 1.258 . S
O1061 Nd1040 2.492 . S
O1061 C1042 1.239 . S
O1062 Nd1040 2.487 . S
O1062 C1049 1.241 . S
O1063 Nd1040 2.682 . S
O1063 Nd1041 2.414 . S
O1063 C1049 1.273 . S
O1064 Nd1040 2.410 . S
O1064 C1050 1.251 . S
O1065 Nd1041 2.424 . S
O1065 C1050 1.268 . S
O1066 Nd1041 2.500 . S
O1066 C1051 1.258 . S
O1067 Nd1041 2.492 . S
O1067 C1051 1.239 . S
O1068 Nd1041 2.487 . S
O1068 C1058 1.241 . S
O1069 Nd1040 2.414 . S
O1069 Nd1041 2.682 . S
O1069 C1058 1.273 . S
O1070 Nd1041 2.410 . S
O1070 C1059 1.251 . S
O1071 Nd1040 2.424 . S
O1071 C1059 1.268 . S
H1072 C1044 0.930 . S
H1073 C1045 0.929 . S
H1074 C1047 0.930 . S
H1075 C1048 0.929 . S
H1076 C1053 0.930 . S
H1077 C1054 0.929 . S
H1078 C1056 0.930 . S
H1079 C1057 0.929 . S
Nd1080 C1082 2.836 . S
Nd1080 O1100 2.500 . S
Nd1080 O1101 2.492 . S
Nd1080 O1102 2.487 . S
Nd1080 O1103 2.682 . S
Nd1080 O1104 2.410 . S
Nd1080 O1109 2.414 . S
Nd1080 O1111 2.424 . S
Nd1081 C1091 2.836 . S
Nd1081 O1103 2.414 . S
Nd1081 O1105 2.424 . S
Nd1081 O1106 2.500 . S
Nd1081 O1107 2.492 . S
Nd1081 O1108 2.487 . S
Nd1081 O1109 2.682 . S
Nd1081 O1110 2.410 . S
C1082 Nd1080 2.836 . S
C1082 C1083 1.498 . S
C1082 O1100 1.258 . S
C1082 O1101 1.239 . S
C1083 C1082 1.498 . S
C1083 C1084 1.366 . S
C1083 C1088 1.407 . S
C1084 C1083 1.366 . S
C1084 C1085 1.392 . S
C1084 H1112 0.930 . S
C1085 C1084 1.392 . S
C1085 C1086 1.398 . S
C1085 H1113 0.929 . S
C1086 C1085 1.398 . S
C1086 C1087 1.352 . S
C1087 C1086 1.352 . S
C1087 C1088 1.384 . S
C1087 H1114 0.930 . S
C1088 C1083 1.407 . S
C1088 C1087 1.384 . S
C1088 H1115 0.929 . S
C1089 O1102 1.241 . S
C1089 O1103 1.273 . S
C1090 O1104 1.251 . S
C1090 O1105 1.268 . S
C1091 Nd1081 2.836 . S
C1091 C1092 1.498 . S
C1091 O1106 1.258 . S
C1091 O1107 1.239 . S
C1092 C1091 1.498 . S
C1092 C1093 1.366 . S
C1092 C1097 1.407 . S
C1093 C1092 1.366 . S
C1093 C1094 1.392 . S
C1093 H1116 0.930 . S
C1094 C1093 1.392 . S
C1094 C1095 1.398 . S
C1094 H1117 0.929 . S
C1095 C1094 1.398 . S
C1095 C1096 1.352 . S
C1096 C1095 1.352 . S
C1096 C1097 1.384 . S
C1096 H1118 0.930 . S
C1097 C1092 1.407 . S
C1097 C1096 1.384 . S
C1097 H1119 0.929 . S
C1098 O1108 1.241 . S
C1098 O1109 1.273 . S
C1099 O1110 1.251 . S
C1099 O1111 1.268 . S
O1100 Nd1080 2.500 . S
O1100 C1082 1.258 . S
O1101 Nd1080 2.492 . S
O1101 C1082 1.239 . S
O1102 Nd1080 2.487 . S
O1102 C1089 1.241 . S
O1103 Nd1080 2.682 . S
O1103 Nd1081 2.414 . S
O1103 C1089 1.273 . S
O1104 Nd1080 2.410 . S
O1104 C1090 1.251 . S
O1105 Nd1081 2.424 . S
O1105 C1090 1.268 . S
O1106 Nd1081 2.500 . S
O1106 C1091 1.258 . S
O1107 Nd1081 2.492 . S
O1107 C1091 1.239 . S
O1108 Nd1081 2.487 . S
O1108 C1098 1.241 . S
O1109 Nd1080 2.414 . S
O1109 Nd1081 2.682 . S
O1109 C1098 1.273 . S
O1110 Nd1081 2.410 . S
O1110 C1099 1.251 . S
O1111 Nd1080 2.424 . S
O1111 C1099 1.268 . S
H1112 C1084 0.930 . S
H1113 C1085 0.929 . S
H1114 C1087 0.930 . S
H1115 C1088 0.929 . S
H1116 C1093 0.930 . S
H1117 C1094 0.929 . S
H1118 C1096 0.930 . S
H1119 C1097 0.929 . S
Nd1120 C1122 2.836 . S
Nd1120 O1140 2.500 . S
Nd1120 O1141 2.492 . S
Nd1120 O1142 2.487 . S
Nd1120 O1143 2.682 . S
Nd1120 O1144 2.410 . S
Nd1120 O1149 2.414 . S
Nd1120 O1151 2.424 . S
Nd1121 C1131 2.836 . S
Nd1121 O1143 2.414 . S
Nd1121 O1145 2.424 . S
Nd1121 O1146 2.500 . S
Nd1121 O1147 2.492 . S
Nd1121 O1148 2.487 . S
Nd1121 O1149 2.682 . S
Nd1121 O1150 2.410 . S
C1122 Nd1120 2.836 . S
C1122 C1123 1.498 . S
C1122 O1140 1.258 . S
C1122 O1141 1.239 . S
C1123 C1122 1.498 . S
C1123 C1124 1.366 . S
C1123 C1128 1.407 . S
C1124 C1123 1.366 . S
C1124 C1125 1.392 . S
C1124 H1152 0.930 . S
C1125 C1124 1.392 . S
C1125 C1126 1.398 . S
C1125 H1153 0.929 . S
C1126 C1125 1.398 . S
C1126 C1127 1.352 . S
C1127 C1126 1.352 . S
C1127 C1128 1.384 . S
C1127 H1154 0.930 . S
C1128 C1123 1.407 . S
C1128 C1127 1.384 . S
C1128 H1155 0.929 . S
C1129 O1142 1.241 . S
C1129 O1143 1.273 . S
C1130 O1144 1.251 . S
C1130 O1145 1.268 . S
C1131 Nd1121 2.836 . S
C1131 C1132 1.498 . S
C1131 O1146 1.258 . S
C1131 O1147 1.239 . S
C1132 C1131 1.498 . S
C1132 C1133 1.366 . S
C1132 C1137 1.407 . S
C1133 C1132 1.366 . S
C1133 C1134 1.392 . S
C1133 H1156 0.930 . S
C1134 C1133 1.392 . S
C1134 C1135 1.398 . S
C1134 H1157 0.929 . S
C1135 C1134 1.398 . S
C1135 C1136 1.352 . S
C1136 C1135 1.352 . S
C1136 C1137 1.384 . S
C1136 H1158 0.930 . S
C1137 C1132 1.407 . S
C1137 C1136 1.384 . S
C1137 H1159 0.929 . S
C1138 O1148 1.241 . S
C1138 O1149 1.273 . S
C1139 O1150 1.251 . S
C1139 O1151 1.268 . S
O1140 Nd1120 2.500 . S
O1140 C1122 1.258 . S
O1141 Nd1120 2.492 . S
O1141 C1122 1.239 . S
O1142 Nd1120 2.487 . S
O1142 C1129 1.241 . S
O1143 Nd1120 2.682 . S
O1143 Nd1121 2.414 . S
O1143 C1129 1.273 . S
O1144 Nd1120 2.410 . S
O1144 C1130 1.251 . S
O1145 Nd1121 2.424 . S
O1145 C1130 1.268 . S
O1146 Nd1121 2.500 . S
O1146 C1131 1.258 . S
O1147 Nd1121 2.492 . S
O1147 C1131 1.239 . S
O1148 Nd1121 2.487 . S
O1148 C1138 1.241 . S
O1149 Nd1120 2.414 . S
O1149 Nd1121 2.682 . S
O1149 C1138 1.273 . S
O1150 Nd1121 2.410 . S
O1150 C1139 1.251 . S
O1151 Nd1120 2.424 . S
O1151 C1139 1.268 . S
H1152 C1124 0.930 . S
H1153 C1125 0.929 . S
H1154 C1127 0.930 . S
H1155 C1128 0.929 . S
H1156 C1133 0.930 . S
H1157 C1134 0.929 . S
H1158 C1136 0.930 . S
H1159 C1137 0.929 . S
Nd1160 C1162 2.836 . S
Nd1160 O1180 2.500 . S
Nd1160 O1181 2.492 . S
Nd1160 O1182 2.487 . S
Nd1160 O1183 2.682 . S
Nd1160 O1184 2.410 . S
Nd1160 O1189 2.414 . S
Nd1160 O1191 2.424 . S
Nd1161 C1171 2.836 . S
Nd1161 O1183 2.414 . S
Nd1161 O1185 2.424 . S
Nd1161 O1186 2.500 . S
Nd1161 O1187 2.492 . S
Nd1161 O1188 2.487 . S
Nd1161 O1189 2.682 . S
Nd1161 O1190 2.410 . S
C1162 Nd1160 2.836 . S
C1162 C1163 1.498 . S
C1162 O1180 1.258 . S
C1162 O1181 1.239 . S
C1163 C1162 1.498 . S
C1163 C1164 1.366 . S
C1163 C1168 1.407 . S
C1164 C1163 1.366 . S
C1164 C1165 1.392 . S
C1164 H1192 0.930 . S
C1165 C1164 1.392 . S
C1165 C1166 1.398 . S
C1165 H1193 0.929 . S
C1166 C1165 1.398 . S
C1166 C1167 1.352 . S
C1167 C1166 1.352 . S
C1167 C1168 1.384 . S
C1167 H1194 0.930 . S
C1168 C1163 1.407 . S
C1168 C1167 1.384 . S
C1168 H1195 0.929 . S
C1169 O1182 1.241 . S
C1169 O1183 1.273 . S
C1170 O1184 1.251 . S
C1170 O1185 1.268 . S
C1171 Nd1161 2.836 . S
C1171 C1172 1.498 . S
C1171 O1186 1.258 . S
C1171 O1187 1.239 . S
C1172 C1171 1.498 . S
C1172 C1173 1.366 . S
C1172 C1177 1.407 . S
C1173 C1172 1.366 . S
C1173 C1174 1.392 . S
C1173 H1196 0.930 . S
C1174 C1173 1.392 . S
C1174 C1175 1.398 . S
C1174 H1197 0.929 . S
C1175 C1174 1.398 . S
C1175 C1176 1.352 . S
C1176 C1175 1.352 . S
C1176 C1177 1.384 . S
C1176 H1198 0.930 . S
C1177 C1172 1.407 . S
C1177 C1176 1.384 . S
C1177 H1199 0.929 . S
C1178 O1188 1.241 . S
C1178 O1189 1.273 . S
C1179 O1190 1.251 . S
C1179 O1191 1.268 . S
O1180 Nd1160 2.500 . S
O1180 C1162 1.258 . S
O1181 Nd1160 2.492 . S
O1181 C1162 1.239 . S
O1182 Nd1160 2.487 . S
O1182 C1169 1.241 . S
O1183 Nd1160 2.682 . S
O1183 Nd1161 2.414 . S
O1183 C1169 1.273 . S
O1184 Nd1160 2.410 . S
O1184 C1170 1.251 . S
O1185 Nd1161 2.424 . S
O1185 C1170 1.268 . S
O1186 Nd1161 2.500 . S
O1186 C1171 1.258 . S
O1187 Nd1161 2.492 . S
O1187 C1171 1.239 . S
O1188 Nd1161 2.487 . S
O1188 C1178 1.241 . S
O1189 Nd1160 2.414 . S
O1189 Nd1161 2.682 . S
O1189 C1178 1.273 . S
O1190 Nd1161 2.410 . S
O1190 C1179 1.251 . S
O1191 Nd1160 2.424 . S
O1191 C1179 1.268 . S
H1192 C1164 0.930 . S
H1193 C1165 0.929 . S
H1194 C1167 0.930 . S
H1195 C1168 0.929 . S
H1196 C1173 0.930 . S
H1197 C1174 0.929 . S
H1198 C1176 0.930 . S
H1199 C1177 0.929 . S
Nd1200 C1202 2.836 . S
Nd1200 O1220 2.500 . S
Nd1200 O1221 2.492 . S
Nd1200 O1222 2.487 . S
Nd1200 O1223 2.682 . S
Nd1200 O1224 2.410 . S
Nd1200 O1229 2.414 . S
Nd1200 O1231 2.424 . S
Nd1201 C1211 2.836 . S
Nd1201 O1223 2.414 . S
Nd1201 O1225 2.424 . S
Nd1201 O1226 2.500 . S
Nd1201 O1227 2.492 . S
Nd1201 O1228 2.487 . S
Nd1201 O1229 2.682 . S
Nd1201 O1230 2.410 . S
C1202 Nd1200 2.836 . S
C1202 C1203 1.498 . S
C1202 O1220 1.258 . S
C1202 O1221 1.239 . S
C1203 C1202 1.498 . S
C1203 C1204 1.366 . S
C1203 C1208 1.407 . S
C1204 C1203 1.366 . S
C1204 C1205 1.392 . S
C1204 H1232 0.930 . S
C1205 C1204 1.392 . S
C1205 C1206 1.398 . S
C1205 H1233 0.929 . S
C1206 C1205 1.398 . S
C1206 C1207 1.352 . S
C1207 C1206 1.352 . S
C1207 C1208 1.384 . S
C1207 H1234 0.930 . S
C1208 C1203 1.407 . S
C1208 C1207 1.384 . S
C1208 H1235 0.929 . S
C1209 O1222 1.241 . S
C1209 O1223 1.273 . S
C1210 O1224 1.251 . S
C1210 O1225 1.268 . S
C1211 Nd1201 2.836 . S
C1211 C1212 1.498 . S
C1211 O1226 1.258 . S
C1211 O1227 1.239 . S
C1212 C1211 1.498 . S
C1212 C1213 1.366 . S
C1212 C1217 1.407 . S
C1213 C1212 1.366 . S
C1213 C1214 1.392 1_455 S
C1213 H1236 0.930 . S
C1214 C1213 1.392 1_655 S
C1214 C1215 1.398 . S
C1214 H1237 0.929 . S
C1215 C1214 1.398 . S
C1215 C1216 1.352 1_655 S
C1216 C1215 1.352 1_455 S
C1216 C1217 1.384 . S
C1216 H1238 0.930 . S
C1217 C1212 1.407 . S
C1217 C1216 1.384 . S
C1217 H1239 0.929 . S
C1218 O1228 1.241 . S
C1218 O1229 1.273 . S
C1219 O1230 1.251 . S
C1219 O1231 1.268 . S
O1220 Nd1200 2.500 . S
O1220 C1202 1.258 . S
O1221 Nd1200 2.492 . S
O1221 C1202 1.239 . S
O1222 Nd1200 2.487 . S
O1222 C1209 1.241 . S
O1223 Nd1200 2.682 . S
O1223 Nd1201 2.414 . S
O1223 C1209 1.273 . S
O1224 Nd1200 2.410 . S
O1224 C1210 1.251 . S
O1225 Nd1201 2.424 . S
O1225 C1210 1.268 . S
O1226 Nd1201 2.500 . S
O1226 C1211 1.258 . S
O1227 Nd1201 2.492 . S
O1227 C1211 1.239 . S
O1228 Nd1201 2.487 . S
O1228 C1218 1.241 . S
O1229 Nd1200 2.414 . S
O1229 Nd1201 2.682 . S
O1229 C1218 1.273 . S
O1230 Nd1201 2.410 . S
O1230 C1219 1.251 . S
O1231 Nd1200 2.424 . S
O1231 C1219 1.268 . S
H1232 C1204 0.930 . S
H1233 C1205 0.929 . S
H1234 C1207 0.930 . S
H1235 C1208 0.929 . S
H1236 C1213 0.930 . S
H1237 C1214 0.929 . S
H1238 C1216 0.930 . S
H1239 C1217 0.929 . S
Nd1240 C1242 2.836 . S
Nd1240 O1260 2.500 . S
Nd1240 O1261 2.492 . S
Nd1240 O1262 2.487 . S
Nd1240 O1263 2.682 . S
Nd1240 O1264 2.410 . S
Nd1240 O1269 2.414 . S
Nd1240 O1271 2.424 . S
Nd1241 C1251 2.836 . S
Nd1241 O1263 2.414 . S
Nd1241 O1265 2.424 . S
Nd1241 O1266 2.500 . S
Nd1241 O1267 2.492 . S
Nd1241 O1268 2.487 . S
Nd1241 O1269 2.682 . S
Nd1241 O1270 2.410 . S
C1242 Nd1240 2.836 . S
C1242 C1243 1.498 . S
C1242 O1260 1.258 . S
C1242 O1261 1.239 . S
C1243 C1242 1.498 . S
C1243 C1244 1.366 . S
C1243 C1248 1.407 . S
C1244 C1243 1.366 . S
C1244 C1245 1.392 . S
C1244 H1272 0.930 . S
C1245 C1244 1.392 . S
C1245 C1246 1.398 . S
C1245 H1273 0.929 . S
C1246 C1245 1.398 . S
C1246 C1247 1.352 . S
C1247 C1246 1.352 . S
C1247 C1248 1.384 . S
C1247 H1274 0.930 . S
C1248 C1243 1.407 . S
C1248 C1247 1.384 . S
C1248 H1275 0.929 . S
C1249 O1262 1.241 . S
C1249 O1263 1.273 . S
C1250 O1264 1.251 . S
C1250 O1265 1.268 . S
C1251 Nd1241 2.836 . S
C1251 C1252 1.498 . S
C1251 O1266 1.258 . S
C1251 O1267 1.239 . S
C1252 C1251 1.498 . S
C1252 C1253 1.366 . S
C1252 C1257 1.407 . S
C1253 C1252 1.366 . S
C1253 C1254 1.392 . S
C1253 H1276 0.930 . S
C1254 C1253 1.392 . S
C1254 C1255 1.398 . S
C1254 H1277 0.929 . S
C1255 C1254 1.398 . S
C1255 C1256 1.352 . S
C1256 C1255 1.352 . S
C1256 C1257 1.384 . S
C1256 H1278 0.930 . S
C1257 C1252 1.407 . S
C1257 C1256 1.384 . S
C1257 H1279 0.929 . S
C1258 O1268 1.241 . S
C1258 O1269 1.273 . S
C1259 O1270 1.251 . S
C1259 O1271 1.268 . S
O1260 Nd1240 2.500 . S
O1260 C1242 1.258 . S
O1261 Nd1240 2.492 . S
O1261 C1242 1.239 . S
O1262 Nd1240 2.487 . S
O1262 C1249 1.241 . S
O1263 Nd1240 2.682 . S
O1263 Nd1241 2.414 . S
O1263 C1249 1.273 . S
O1264 Nd1240 2.410 . S
O1264 C1250 1.251 . S
O1265 Nd1241 2.424 . S
O1265 C1250 1.268 . S
O1266 Nd1241 2.500 . S
O1266 C1251 1.258 . S
O1267 Nd1241 2.492 . S
O1267 C1251 1.239 . S
O1268 Nd1241 2.487 . S
O1268 C1258 1.241 . S
O1269 Nd1240 2.414 . S
O1269 Nd1241 2.682 . S
O1269 C1258 1.273 . S
O1270 Nd1241 2.410 . S
O1270 C1259 1.251 . S
O1271 Nd1240 2.424 . S
O1271 C1259 1.268 . S
H1272 C1244 0.930 . S
H1273 C1245 0.929 . S
H1274 C1247 0.930 . S
H1275 C1248 0.929 . S
H1276 C1253 0.930 . S
H1277 C1254 0.929 . S
H1278 C1256 0.930 . S
H1279 C1257 0.929 . S
H1280 C1288 0.950 . S
H1281 C1293 0.950 . S
H1282 C1290 0.950 . S
H1283 C1292 0.950 . S
H1284 C1294 0.950 . S
H1285 C1296 0.950 . S
H1286 C1298 0.950 . S
H1287 C1299 0.950 . S
C1288 H1280 0.950 . S
C1288 C1289 1.386 . S
C1288 C1290 1.391 . S
C1289 C1288 1.386 . S
C1289 C1293 1.393 . S
C1290 H1282 0.950 . S
C1290 C1288 1.391 . S
C1290 C1291 1.400 . S
C1291 C1290 1.400 . S
C1291 C1292 1.398 . S
C1291 C1297 1.491 . S
C1292 H1283 0.950 . S
C1292 C1291 1.398 . S
C1292 C1293 1.391 . S
C1293 H1281 0.950 . S
C1293 C1289 1.393 . S
C1293 C1292 1.391 . S
C1294 H1284 0.950 . S
C1294 C1295 1.386 . S
C1294 C1296 1.391 . S
C1295 C1294 1.386 . S
C1295 C1299 1.393 . S
C1296 H1285 0.950 . S
C1296 C1294 1.391 . S
C1296 C1297 1.400 . S
C1297 C1291 1.491 . S
C1297 C1296 1.400 . S
C1297 C1298 1.398 . S
C1298 H1286 0.950 . S
C1298 C1297 1.398 . S
C1298 C1299 1.391 . S
C1299 H1287 0.950 . S
C1299 C1295 1.393 . S
C1299 C1298 1.391 . S
H1300 C1308 0.950 . S
H1301 C1313 0.950 . S
H1302 C1310 0.950 . S
H1303 C1312 0.950 . S
H1304 C1314 0.950 . S
H1305 C1316 0.950 . S
H1306 C1318 0.950 . S
H1307 C1319 0.950 1_655 S
C1308 H1300 0.950 . S
C1308 C1309 1.386 . S
C1308 C1310 1.391 . S
C1309 C1308 1.386 . S
C1309 C1313 1.393 . S
C1310 H1302 0.950 . S
C1310 C1308 1.391 . S
C1310 C1311 1.400 . S
C1311 C1310 1.400 . S
C1311 C1312 1.398 . S
C1311 C1317 1.491 . S
C1312 H1303 0.950 . S
C1312 C1311 1.398 . S
C1312 C1313 1.391 . S
C1313 H1301 0.950 . S
C1313 C1309 1.393 . S
C1313 C1312 1.391 . S
C1314 H1304 0.950 . S
C1314 C1315 1.386 . S
C1314 C1316 1.391 . S
C1315 C1314 1.386 . S
C1315 C1319 1.393 . S
C1316 H1305 0.950 . S
C1316 C1314 1.391 . S
C1316 C1317 1.400 . S
C1317 C1311 1.491 . S
C1317 C1316 1.400 . S
C1317 C1318 1.398 . S
C1318 H1306 0.950 . S
C1318 C1317 1.398 . S
C1318 C1319 1.391 . S
C1319 H1307 0.950 1_455 S
C1319 C1315 1.393 . S
C1319 C1318 1.391 . S
H1320 C1328 0.950 . S
H1321 C1333 0.950 . S
H1322 C1330 0.950 . S
H1323 C1332 0.950 . S
H1324 C1334 0.950 . S
H1325 C1336 0.950 . S
H1326 C1338 0.950 . S
H1327 C1339 0.950 . S
C1328 H1320 0.950 . S
C1328 C1329 1.386 . S
C1328 C1330 1.391 . S
C1329 C1328 1.386 . S
C1329 C1333 1.393 . S
C1330 H1322 0.950 . S
C1330 C1328 1.391 . S
C1330 C1331 1.400 . S
C1331 C1330 1.400 . S
C1331 C1332 1.398 . S
C1331 C1337 1.491 . S
C1332 H1323 0.950 . S
C1332 C1331 1.398 . S
C1332 C1333 1.391 . S
C1333 H1321 0.950 . S
C1333 C1329 1.393 . S
C1333 C1332 1.391 . S
C1334 H1324 0.950 . S
C1334 C1335 1.386 . S
C1334 C1336 1.391 . S
C1335 C1334 1.386 . S
C1335 C1339 1.393 . S
C1336 H1325 0.950 . S
C1336 C1334 1.391 . S
C1336 C1337 1.400 . S
C1337 C1331 1.491 . S
C1337 C1336 1.400 . S
C1337 C1338 1.398 . S
C1338 H1326 0.950 . S
C1338 C1337 1.398 . S
C1338 C1339 1.391 . S
C1339 H1327 0.950 . S
C1339 C1335 1.393 . S
C1339 C1338 1.391 . S
H1340 C1348 0.950 . S
H1341 C1353 0.950 . S
H1342 C1350 0.950 . S
H1343 C1352 0.950 . S
H1344 C1354 0.950 . S
H1345 C1356 0.950 . S
H1346 C1358 0.950 . S
H1347 C1359 0.950 . S
C1348 H1340 0.950 . S
C1348 C1349 1.386 . S
C1348 C1350 1.391 . S
C1349 C1348 1.386 . S
C1349 C1353 1.393 . S
C1350 H1342 0.950 . S
C1350 C1348 1.391 . S
C1350 C1351 1.400 . S
C1351 C1350 1.400 . S
C1351 C1352 1.398 . S
C1351 C1357 1.491 . S
C1352 H1343 0.950 . S
C1352 C1351 1.398 . S
C1352 C1353 1.391 . S
C1353 H1341 0.950 . S
C1353 C1349 1.393 . S
C1353 C1352 1.391 . S
C1354 H1344 0.950 . S
C1354 C1355 1.386 . S
C1354 C1356 1.391 . S
C1355 C1354 1.386 . S
C1355 C1359 1.393 . S
C1356 H1345 0.950 . S
C1356 C1354 1.391 . S
C1356 C1357 1.400 . S
C1357 C1351 1.491 . S
C1357 C1356 1.400 . S
C1357 C1358 1.398 . S
C1358 H1346 0.950 . S
C1358 C1357 1.398 . S
C1358 C1359 1.391 . S
C1359 H1347 0.950 . S
C1359 C1355 1.393 . S
C1359 C1358 1.391 . S
H1360 C1368 0.950 . S
H1361 C1373 0.950 . S
H1362 C1370 0.950 . S
H1363 C1372 0.950 . S
H1364 C1374 0.950 . S
H1365 C1376 0.950 . S
H1366 C1378 0.950 . S
H1367 C1379 0.950 . S
C1368 H1360 0.950 . S
C1368 C1369 1.386 . S
C1368 C1370 1.391 . S
C1369 C1368 1.386 . S
C1369 C1373 1.393 . S
C1370 H1362 0.950 . S
C1370 C1368 1.391 . S
C1370 C1371 1.400 . S
C1371 C1370 1.400 . S
C1371 C1372 1.398 . S
C1371 C1377 1.491 . S
C1372 H1363 0.950 . S
C1372 C1371 1.398 . S
C1372 C1373 1.391 . S
C1373 H1361 0.950 . S
C1373 C1369 1.393 . S
C1373 C1372 1.391 . S
C1374 H1364 0.950 . S
C1374 C1375 1.386 . S
C1374 C1376 1.391 . S
C1375 C1374 1.386 . S
C1375 C1379 1.393 . S
C1376 H1365 0.950 . S
C1376 C1374 1.391 . S
C1376 C1377 1.400 . S
C1377 C1371 1.491 . S
C1377 C1376 1.400 . S
C1377 C1378 1.398 . S
C1378 H1366 0.950 . S
C1378 C1377 1.398 . S
C1378 C1379 1.391 . S
C1379 H1367 0.950 . S
C1379 C1375 1.393 . S
C1379 C1378 1.391 . S
H1380 C1388 0.950 . S
H1381 C1393 0.950 . S
H1382 C1390 0.950 . S
H1383 C1392 0.950 . S
H1384 C1394 0.950 . S
H1385 C1396 0.950 . S
H1386 C1398 0.950 . S
H1387 C1399 0.950 . S
C1388 H1380 0.950 . S
C1388 C1389 1.386 . S
C1388 C1390 1.391 . S
C1389 C1388 1.386 . S
C1389 C1393 1.393 . S
C1390 H1382 0.950 . S
C1390 C1388 1.391 . S
C1390 C1391 1.400 . S
C1391 C1390 1.400 . S
C1391 C1392 1.398 . S
C1391 C1397 1.491 . S
C1392 H1383 0.950 . S
C1392 C1391 1.398 . S
C1392 C1393 1.391 . S
C1393 H1381 0.950 . S
C1393 C1389 1.393 . S
C1393 C1392 1.391 . S
C1394 H1384 0.950 . S
C1394 C1395 1.386 . S
C1394 C1396 1.391 . S
C1395 C1394 1.386 . S
C1395 C1399 1.393 . S
C1396 H1385 0.950 . S
C1396 C1394 1.391 . S
C1396 C1397 1.400 . S
C1397 C1391 1.491 . S
C1397 C1396 1.400 . S
C1397 C1398 1.398 . S
C1398 H1386 0.950 . S
C1398 C1397 1.398 . S
C1398 C1399 1.391 . S
C1399 H1387 0.950 . S
C1399 C1395 1.393 . S
C1399 C1398 1.391 . S
H1400 C1408 0.950 . S
H1401 C1413 0.950 . S
H1402 C1410 0.950 . S
H1403 C1412 0.950 . S
H1404 C1414 0.950 . S
H1405 C1416 0.950 . S
H1406 C1418 0.950 . S
H1407 C1419 0.950 . S
C1408 H1400 0.950 . S
C1408 C1409 1.386 . S
C1408 C1410 1.391 . S
C1409 C1408 1.386 . S
C1409 C1413 1.393 . S
C1410 H1402 0.950 . S
C1410 C1408 1.391 . S
C1410 C1411 1.400 . S
C1411 C1410 1.400 . S
C1411 C1412 1.398 . S
C1411 C1417 1.491 . S
C1412 H1403 0.950 . S
C1412 C1411 1.398 . S
C1412 C1413 1.391 . S
C1413 H1401 0.950 . S
C1413 C1409 1.393 . S
C1413 C1412 1.391 . S
C1414 H1404 0.950 . S
C1414 C1415 1.386 . S
C1414 C1416 1.391 . S
C1415 C1414 1.386 . S
C1415 C1419 1.393 . S
C1416 H1405 0.950 . S
C1416 C1414 1.391 . S
C1416 C1417 1.400 . S
C1417 C1411 1.491 . S
C1417 C1416 1.400 . S
C1417 C1418 1.398 . S
C1418 H1406 0.950 . S
C1418 C1417 1.398 . S
C1418 C1419 1.391 . S
C1419 H1407 0.950 . S
C1419 C1415 1.393 . S
C1419 C1418 1.391 . S
H1420 C1428 0.950 . S
H1421 C1433 0.950 . S
H1422 C1430 0.950 . S
H1423 C1432 0.950 . S
H1424 C1434 0.950 . S
H1425 C1436 0.950 . S
H1426 C1438 0.950 . S
H1427 C1439 0.950 1_655 S
C1428 H1420 0.950 . S
C1428 C1429 1.386 . S
C1428 C1430 1.391 . S
C1429 C1428 1.386 . S
C1429 C1433 1.393 . S
C1430 H1422 0.950 . S
C1430 C1428 1.391 . S
C1430 C1431 1.400 . S
C1431 C1430 1.400 . S
C1431 C1432 1.398 . S
C1431 C1437 1.491 . S
C1432 H1423 0.950 . S
C1432 C1431 1.398 . S
C1432 C1433 1.391 . S
C1433 H1421 0.950 . S
C1433 C1429 1.393 . S
C1433 C1432 1.391 . S
C1434 H1424 0.950 . S
C1434 C1435 1.386 . S
C1434 C1436 1.391 . S
C1435 C1434 1.386 . S
C1435 C1439 1.393 . S
C1436 H1425 0.950 . S
C1436 C1434 1.391 . S
C1436 C1437 1.400 . S
C1437 C1431 1.491 . S
C1437 C1436 1.400 . S
C1437 C1438 1.398 . S
C1438 H1426 0.950 . S
C1438 C1437 1.398 . S
C1438 C1439 1.391 . S
C1439 H1427 0.950 1_455 S
C1439 C1435 1.393 . S
C1439 C1438 1.391 . S
H1440 C1448 0.950 . S
H1441 C1453 0.950 . S
H1442 C1450 0.950 . S
H1443 C1452 0.950 . S
H1444 C1454 0.950 . S
H1445 C1456 0.950 . S
H1446 C1458 0.950 . S
H1447 C1459 0.950 . S
C1448 H1440 0.950 . S
C1448 C1449 1.386 . S
C1448 C1450 1.391 . S
C1449 C1448 1.386 . S
C1449 C1453 1.393 . S
C1450 H1442 0.950 . S
C1450 C1448 1.391 . S
C1450 C1451 1.400 . S
C1451 C1450 1.400 . S
C1451 C1452 1.398 . S
C1451 C1457 1.491 . S
C1452 H1443 0.950 . S
C1452 C1451 1.398 . S
C1452 C1453 1.391 . S
C1453 H1441 0.950 . S
C1453 C1449 1.393 . S
C1453 C1452 1.391 . S
C1454 H1444 0.950 . S
C1454 C1455 1.386 . S
C1454 C1456 1.391 . S
C1455 C1454 1.386 . S
C1455 C1459 1.393 . S
C1456 H1445 0.950 . S
C1456 C1454 1.391 . S
C1456 C1457 1.400 . S
C1457 C1451 1.491 . S
C1457 C1456 1.400 . S
C1457 C1458 1.398 . S
C1458 H1446 0.950 . S
C1458 C1457 1.398 . S
C1458 C1459 1.391 . S
C1459 H1447 0.950 . S
C1459 C1455 1.393 . S
C1459 C1458 1.391 . S
H1460 C1468 0.950 . S
H1461 C1473 0.950 . S
H1462 C1470 0.950 . S
H1463 C1472 0.950 . S
H1464 C1474 0.950 . S
H1465 C1476 0.950 . S
H1466 C1478 0.950 . S
H1467 C1479 0.950 1_455 S
C1468 H1460 0.950 . S
C1468 C1469 1.386 . S
C1468 C1470 1.391 . S
C1469 C1468 1.386 . S
C1469 C1473 1.393 . S
C1470 H1462 0.950 . S
C1470 C1468 1.391 . S
C1470 C1471 1.400 . S
C1471 C1470 1.400 . S
C1471 C1472 1.398 . S
C1471 C1477 1.491 . S
C1472 H1463 0.950 . S
C1472 C1471 1.398 . S
C1472 C1473 1.391 . S
C1473 H1461 0.950 . S
C1473 C1469 1.393 . S
C1473 C1472 1.391 . S
C1474 H1464 0.950 . S
C1474 C1475 1.386 . S
C1474 C1476 1.391 . S
C1475 C1474 1.386 . S
C1475 C1479 1.393 . S
C1476 H1465 0.950 . S
C1476 C1474 1.391 . S
C1476 C1477 1.400 . S
C1477 C1471 1.491 . S
C1477 C1476 1.400 . S
C1477 C1478 1.398 . S
C1478 H1466 0.950 . S
C1478 C1477 1.398 . S
C1478 C1479 1.391 . S
C1479 H1467 0.950 1_655 S
C1479 C1475 1.393 . S
C1479 C1478 1.391 . S
H1480 C1488 0.950 . S
H1481 C1493 0.950 . S
H1482 C1490 0.950 . S
H1483 C1492 0.950 . S
H1484 C1494 0.950 . S
H1485 C1496 0.950 . S
H1486 C1498 0.950 . S
H1487 C1499 0.950 . S
C1488 H1480 0.950 . S
C1488 C1489 1.386 . S
C1488 C1490 1.391 . S
C1489 C1488 1.386 . S
C1489 C1493 1.393 . S
C1490 H1482 0.950 . S
C1490 C1488 1.391 . S
C1490 C1491 1.400 . S
C1491 C1490 1.400 . S
C1491 C1492 1.398 . S
C1491 C1497 1.491 . S
C1492 H1483 0.950 . S
C1492 C1491 1.398 . S
C1492 C1493 1.391 . S
C1493 H1481 0.950 . S
C1493 C1489 1.393 . S
C1493 C1492 1.391 . S
C1494 H1484 0.950 . S
C1494 C1495 1.386 . S
C1494 C1496 1.391 . S
C1495 C1494 1.386 . S
C1495 C1499 1.393 . S
C1496 H1485 0.950 . S
C1496 C1494 1.391 . S
C1496 C1497 1.400 . S
C1497 C1491 1.491 . S
C1497 C1496 1.400 . S
C1497 C1498 1.398 . S
C1498 H1486 0.950 . S
C1498 C1497 1.398 . S
C1498 C1499 1.391 . S
C1499 H1487 0.950 . S
C1499 C1495 1.393 . S
C1499 C1498 1.391 . S
H1500 C1508 0.950 . S
H1501 C1513 0.950 . S
H1502 C1510 0.950 . S
H1503 C1512 0.950 . S
H1504 C1514 0.950 . S
H1505 C1516 0.950 . S
H1506 C1518 0.950 . S
H1507 C1519 0.950 . S
C1508 H1500 0.950 . S
C1508 C1509 1.386 . S
C1508 C1510 1.391 . S
C1509 C1508 1.386 . S
C1509 C1513 1.393 . S
C1510 H1502 0.950 . S
C1510 C1508 1.391 . S
C1510 C1511 1.400 . S
C1511 C1510 1.400 . S
C1511 C1512 1.398 . S
C1511 C1517 1.491 . S
C1512 H1503 0.950 . S
C1512 C1511 1.398 . S
C1512 C1513 1.391 . S
C1513 H1501 0.950 . S
C1513 C1509 1.393 . S
C1513 C1512 1.391 . S
C1514 H1504 0.950 . S
C1514 C1515 1.386 . S
C1514 C1516 1.391 . S
C1515 C1514 1.386 . S
C1515 C1519 1.393 . S
C1516 H1505 0.950 . S
C1516 C1514 1.391 . S
C1516 C1517 1.400 . S
C1517 C1511 1.491 . S
C1517 C1516 1.400 . S
C1517 C1518 1.398 . S
C1518 H1506 0.950 . S
C1518 C1517 1.398 . S
C1518 C1519 1.391 . S
C1519 H1507 0.950 . S
C1519 C1515 1.393 . S
C1519 C1518 1.391 . S
H1520 C1528 0.950 . S
H1521 C1533 0.950 . S
H1522 C1530 0.950 . S
H1523 C1532 0.950 . S
H1524 C1534 0.950 . S
H1525 C1536 0.950 . S
H1526 C1538 0.950 . S
H1527 C1539 0.950 . S
C1528 H1520 0.950 . S
C1528 C1529 1.386 . S
C1528 C1530 1.391 . S
C1529 C1528 1.386 . S
C1529 C1533 1.393 . S
C1530 H1522 0.950 . S
C1530 C1528 1.391 . S
C1530 C1531 1.400 . S
C1531 C1530 1.400 . S
C1531 C1532 1.398 . S
C1531 C1537 1.491 . S
C1532 H1523 0.950 . S
C1532 C1531 1.398 . S
C1532 C1533 1.391 . S
C1533 H1521 0.950 . S
C1533 C1529 1.393 . S
C1533 C1532 1.391 . S
C1534 H1524 0.950 . S
C1534 C1535 1.386 . S
C1534 C1536 1.391 . S
C1535 C1534 1.386 . S
C1535 C1539 1.393 . S
C1536 H1525 0.950 . S
C1536 C1534 1.391 . S
C1536 C1537 1.400 . S
C1537 C1531 1.491 . S
C1537 C1536 1.400 . S
C1537 C1538 1.398 . S
C1538 H1526 0.950 . S
C1538 C1537 1.398 . S
C1538 C1539 1.391 . S
C1539 H1527 0.950 . S
C1539 C1535 1.393 . S
C1539 C1538 1.391 . S
H1540 C1548 0.950 . S
H1541 C1553 0.950 . S
H1542 C1550 0.950 . S
H1543 C1552 0.950 . S
H1544 C1554 0.950 . S
H1545 C1556 0.950 . S
H1546 C1558 0.950 . S
H1547 C1559 0.950 . S
C1548 H1540 0.950 . S
C1548 C1549 1.386 . S
C1548 C1550 1.391 . S
C1549 C1548 1.386 . S
C1549 C1553 1.393 . S
C1550 H1542 0.950 . S
C1550 C1548 1.391 . S
C1550 C1551 1.400 . S
C1551 C1550 1.400 . S
C1551 C1552 1.398 . S
C1551 C1557 1.491 . S
C1552 H1543 0.950 . S
C1552 C1551 1.398 . S
C1552 C1553 1.391 . S
C1553 H1541 0.950 . S
C1553 C1549 1.393 . S
C1553 C1552 1.391 . S
C1554 H1544 0.950 . S
C1554 C1555 1.386 . S
C1554 C1556 1.391 . S
C1555 C1554 1.386 . S
C1555 C1559 1.393 . S
C1556 H1545 0.950 . S
C1556 C1554 1.391 . S
C1556 C1557 1.400 . S
C1557 C1551 1.491 . S
C1557 C1556 1.400 . S
C1557 C1558 1.398 . S
C1558 H1546 0.950 . S
C1558 C1557 1.398 . S
C1558 C1559 1.391 . S
C1559 H1547 0.950 . S
C1559 C1555 1.393 . S
C1559 C1558 1.391 . S
H1560 C1568 0.950 . S
H1561 C1573 0.950 . S
H1562 C1570 0.950 . S
H1563 C1572 0.950 . S
H1564 C1574 0.950 . S
H1565 C1576 0.950 . S
H1566 C1578 0.950 . S
H1567 C1579 0.950 . S
C1568 H1560 0.950 . S
C1568 C1569 1.386 . S
C1568 C1570 1.391 . S
C1569 C1568 1.386 . S
C1569 C1573 1.393 . S
C1570 H1562 0.950 . S
C1570 C1568 1.391 . S
C1570 C1571 1.400 . S
C1571 C1570 1.400 . S
C1571 C1572 1.398 . S
C1571 C1577 1.491 . S
C1572 H1563 0.950 . S
C1572 C1571 1.398 . S
C1572 C1573 1.391 . S
C1573 H1561 0.950 . S
C1573 C1569 1.393 . S
C1573 C1572 1.391 . S
C1574 H1564 0.950 . S
C1574 C1575 1.386 . S
C1574 C1576 1.391 . S
C1575 C1574 1.386 . S
C1575 C1579 1.393 . S
C1576 H1565 0.950 . S
C1576 C1574 1.391 . S
C1576 C1577 1.400 . S
C1577 C1571 1.491 . S
C1577 C1576 1.400 . S
C1577 C1578 1.398 . S
C1578 H1566 0.950 . S
C1578 C1577 1.398 . S
C1578 C1579 1.391 . S
C1579 H1567 0.950 . S
C1579 C1575 1.393 . S
C1579 C1578 1.391 . S
H1580 C1588 0.950 . S
H1581 C1593 0.950 1_455 S
H1582 C1590 0.950 . S
H1583 C1592 0.950 . S
H1584 C1594 0.950 . S
H1585 C1596 0.950 . S
H1586 C1598 0.950 . S
H1587 C1599 0.950 . S
C1588 H1580 0.950 . S
C1588 C1589 1.386 . S
C1588 C1590 1.391 . S
C1589 C1588 1.386 . S
C1589 C1593 1.393 . S
C1590 H1582 0.950 . S
C1590 C1588 1.391 . S
C1590 C1591 1.400 . S
C1591 C1590 1.400 . S
C1591 C1592 1.398 . S
C1591 C1597 1.491 . S
C1592 H1583 0.950 . S
C1592 C1591 1.398 . S
C1592 C1593 1.391 . S
C1593 H1581 0.950 1_655 S
C1593 C1589 1.393 . S
C1593 C1592 1.391 . S
C1594 H1584 0.950 . S
C1594 C1595 1.386 . S
C1594 C1596 1.391 . S
C1595 C1594 1.386 . S
C1595 C1599 1.393 . S
C1596 H1585 0.950 . S
C1596 C1594 1.391 . S
C1596 C1597 1.400 . S
C1597 C1591 1.491 . S
C1597 C1596 1.400 . S
C1597 C1598 1.398 . S
C1598 H1586 0.950 . S
C1598 C1597 1.398 . S
C1598 C1599 1.391 . S
C1599 H1587 0.950 . S
C1599 C1595 1.393 . S
C1599 C1598 1.391 . S
H1600 C1608 0.950 . S
H1601 C1613 0.950 . S
H1602 C1610 0.950 . S
H1603 C1612 0.950 . S
H1604 C1614 0.950 . S
H1605 C1616 0.950 . S
H1606 C1618 0.950 . S
H1607 C1619 0.950 . S
C1608 H1600 0.950 . S
C1608 C1609 1.386 . S
C1608 C1610 1.391 . S
C1609 C1608 1.386 . S
C1609 C1613 1.393 . S
C1610 H1602 0.950 . S
C1610 C1608 1.391 . S
C1610 C1611 1.400 . S
C1611 C1610 1.400 . S
C1611 C1612 1.398 . S
C1611 C1617 1.491 . S
C1612 H1603 0.950 . S
C1612 C1611 1.398 . S
C1612 C1613 1.391 . S
C1613 H1601 0.950 . S
C1613 C1609 1.393 . S
C1613 C1612 1.391 . S
C1614 H1604 0.950 . S
C1614 C1615 1.386 . S
C1614 C1616 1.391 . S
C1615 C1614 1.386 . S
C1615 C1619 1.393 . S
C1616 H1605 0.950 . S
C1616 C1614 1.391 . S
C1616 C1617 1.400 . S
C1617 C1611 1.491 . S
C1617 C1616 1.400 . S
C1617 C1618 1.398 . S
C1618 H1606 0.950 . S
C1618 C1617 1.398 . S
C1618 C1619 1.391 . S
C1619 H1607 0.950 . S
C1619 C1615 1.393 . S
C1619 C1618 1.391 . S
H1620 C1628 0.950 . S
H1621 C1633 0.950 . S
H1622 C1630 0.950 . S
H1623 C1632 0.950 . S
H1624 C1634 0.950 . S
H1625 C1636 0.950 . S
H1626 C1638 0.950 . S
H1627 C1639 0.950 . S
C1628 H1620 0.950 . S
C1628 C1629 1.386 . S
C1628 C1630 1.391 . S
C1629 C1628 1.386 . S
C1629 C1633 1.393 . S
C1630 H1622 0.950 . S
C1630 C1628 1.391 . S
C1630 C1631 1.400 . S
C1631 C1630 1.400 . S
C1631 C1632 1.398 . S
C1631 C1637 1.491 . S
C1632 H1623 0.950 . S
C1632 C1631 1.398 . S
C1632 C1633 1.391 . S
C1633 H1621 0.950 . S
C1633 C1629 1.393 . S
C1633 C1632 1.391 . S
C1634 H1624 0.950 . S
C1634 C1635 1.386 . S
C1634 C1636 1.391 . S
C1635 C1634 1.386 . S
C1635 C1639 1.393 . S
C1636 H1625 0.950 . S
C1636 C1634 1.391 . S
C1636 C1637 1.400 . S
C1637 C1631 1.491 . S
C1637 C1636 1.400 . S
C1637 C1638 1.398 . S
C1638 H1626 0.950 . S
C1638 C1637 1.398 . S
C1638 C1639 1.391 . S
C1639 H1627 0.950 . S
C1639 C1635 1.393 . S
C1639 C1638 1.391 . S
H1640 C1648 0.950 . S
H1641 C1653 0.950 . S
H1642 C1650 0.950 . S
H1643 C1652 0.950 . S
H1644 C1654 0.950 . S
H1645 C1656 0.950 . S
H1646 C1658 0.950 . S
H1647 C1659 0.950 . S
C1648 H1640 0.950 . S
C1648 C1649 1.386 . S
C1648 C1650 1.391 . S
C1649 C1648 1.386 . S
C1649 C1653 1.393 . S
C1650 H1642 0.950 . S
C1650 C1648 1.391 . S
C1650 C1651 1.400 . S
C1651 C1650 1.400 . S
C1651 C1652 1.398 . S
C1651 C1657 1.491 . S
C1652 H1643 0.950 . S
C1652 C1651 1.398 . S
C1652 C1653 1.391 . S
C1653 H1641 0.950 . S
C1653 C1649 1.393 . S
C1653 C1652 1.391 . S
C1654 H1644 0.950 . S
C1654 C1655 1.386 . S
C1654 C1656 1.391 . S
C1655 C1654 1.386 . S
C1655 C1659 1.393 . S
C1656 H1645 0.950 . S
C1656 C1654 1.391 . S
C1656 C1657 1.400 . S
C1657 C1651 1.491 . S
C1657 C1656 1.400 . S
C1657 C1658 1.398 . S
C1658 H1646 0.950 . S
C1658 C1657 1.398 . S
C1658 C1659 1.391 . S
C1659 H1647 0.950 . S
C1659 C1655 1.393 . S
C1659 C1658 1.391 . S
H1660 C1668 0.950 . S
H1661 C1673 0.950 . S
H1662 C1670 0.950 . S
H1663 C1672 0.950 . S
H1664 C1674 0.950 . S
H1665 C1676 0.950 . S
H1666 C1678 0.950 . S
H1667 C1679 0.950 1_455 S
C1668 H1660 0.950 . S
C1668 C1669 1.386 . S
C1668 C1670 1.391 . S
C1669 C1668 1.386 . S
C1669 C1673 1.393 . S
C1670 H1662 0.950 . S
C1670 C1668 1.391 . S
C1670 C1671 1.400 . S
C1671 C1670 1.400 . S
C1671 C1672 1.398 . S
C1671 C1677 1.491 . S
C1672 H1663 0.950 . S
C1672 C1671 1.398 . S
C1672 C1673 1.391 . S
C1673 H1661 0.950 . S
C1673 C1669 1.393 . S
C1673 C1672 1.391 . S
C1674 H1664 0.950 . S
C1674 C1675 1.386 . S
C1674 C1676 1.391 . S
C1675 C1674 1.386 . S
C1675 C1679 1.393 . S
C1676 H1665 0.950 . S
C1676 C1674 1.391 . S
C1676 C1677 1.400 . S
C1677 C1671 1.491 . S
C1677 C1676 1.400 . S
C1677 C1678 1.398 . S
C1678 H1666 0.950 . S
C1678 C1677 1.398 . S
C1678 C1679 1.391 . S
C1679 H1667 0.950 1_655 S
C1679 C1675 1.393 . S
C1679 C1678 1.391 . S
H1680 C1688 0.950 . S
H1681 C1693 0.950 . S
H1682 C1690 0.950 . S
H1683 C1692 0.950 . S
H1684 C1694 0.950 . S
H1685 C1696 0.950 . S
H1686 C1698 0.950 . S
H1687 C1699 0.950 . S
C1688 H1680 0.950 . S
C1688 C1689 1.386 . S
C1688 C1690 1.391 . S
C1689 C1688 1.386 . S
C1689 C1693 1.393 . S
C1690 H1682 0.950 . S
C1690 C1688 1.391 . S
C1690 C1691 1.400 . S
C1691 C1690 1.400 . S
C1691 C1692 1.398 . S
C1691 C1697 1.491 . S
C1692 H1683 0.950 . S
C1692 C1691 1.398 . S
C1692 C1693 1.391 . S
C1693 H1681 0.950 . S
C1693 C1689 1.393 . S
C1693 C1692 1.391 . S
C1694 H1684 0.950 . S
C1694 C1695 1.386 . S
C1694 C1696 1.391 . S
C1695 C1694 1.386 . S
C1695 C1699 1.393 . S
C1696 H1685 0.950 . S
C1696 C1694 1.391 . S
C1696 C1697 1.400 . S
C1697 C1691 1.491 . S
C1697 C1696 1.400 . S
C1697 C1698 1.398 . S
C1698 H1686 0.950 . S
C1698 C1697 1.398 . S
C1698 C1699 1.391 . S
C1699 H1687 0.950 . S
C1699 C1695 1.393 . S
C1699 C1698 1.391 . S
H1700 C1708 0.950 . S
H1701 C1713 0.950 . S
H1702 C1710 0.950 . S
H1703 C1712 0.950 . S
H1704 C1714 0.950 . S
H1705 C1716 0.950 . S
H1706 C1718 0.950 . S
H1707 C1719 0.950 . S
C1708 H1700 0.950 . S
C1708 C1709 1.386 . S
C1708 C1710 1.391 . S
C1709 C1708 1.386 . S
C1709 C1713 1.393 1_655 S
C1710 H1702 0.950 . S
C1710 C1708 1.391 . S
C1710 C1711 1.400 . S
C1711 C1710 1.400 . S
C1711 C1712 1.398 . S
C1711 C1717 1.491 . S
C1712 H1703 0.950 . S
C1712 C1711 1.398 . S
C1712 C1713 1.391 1_655 S
C1713 H1701 0.950 . S
C1713 C1709 1.393 1_455 S
C1713 C1712 1.391 1_455 S
C1714 H1704 0.950 . S
C1714 C1715 1.386 . S
C1714 C1716 1.391 . S
C1715 C1714 1.386 . S
C1715 C1719 1.393 . S
C1716 H1705 0.950 . S
C1716 C1714 1.391 . S
C1716 C1717 1.400 . S
C1717 C1711 1.491 . S
C1717 C1716 1.400 . S
C1717 C1718 1.398 . S
C1718 H1706 0.950 . S
C1718 C1717 1.398 . S
C1718 C1719 1.391 . S
C1719 H1707 0.950 . S
C1719 C1715 1.393 . S
C1719 C1718 1.391 . S
H1720 C1728 0.950 . S
H1721 C1733 0.950 . S
H1722 C1730 0.950 . S
H1723 C1732 0.950 . S
H1724 C1734 0.950 . S
H1725 C1736 0.950 . S
H1726 C1738 0.950 . S
H1727 C1739 0.950 . S
C1728 H1720 0.950 . S
C1728 C1729 1.386 . S
C1728 C1730 1.391 . S
C1729 C1728 1.386 . S
C1729 C1733 1.393 . S
C1730 H1722 0.950 . S
C1730 C1728 1.391 . S
C1730 C1731 1.400 . S
C1731 C1730 1.400 . S
C1731 C1732 1.398 . S
C1731 C1737 1.491 . S
C1732 H1723 0.950 . S
C1732 C1731 1.398 . S
C1732 C1733 1.391 . S
C1733 H1721 0.950 . S
C1733 C1729 1.393 . S
C1733 C1732 1.391 . S
C1734 H1724 0.950 . S
C1734 C1735 1.386 . S
C1734 C1736 1.391 . S
C1735 C1734 1.386 . S
C1735 C1739 1.393 . S
C1736 H1725 0.950 . S
C1736 C1734 1.391 . S
C1736 C1737 1.400 . S
C1737 C1731 1.491 . S
C1737 C1736 1.400 . S
C1737 C1738 1.398 . S
C1738 H1726 0.950 . S
C1738 C1737 1.398 . S
C1738 C1739 1.391 . S
C1739 H1727 0.950 . S
C1739 C1735 1.393 . S
C1739 C1738 1.391 . S
H1740 C1748 0.950 . S
H1741 C1753 0.950 . S
H1742 C1750 0.950 . S
H1743 C1752 0.950 . S
H1744 C1754 0.950 . S
H1745 C1756 0.950 . S
H1746 C1758 0.950 . S
H1747 C1759 0.950 . S
C1748 H1740 0.950 . S
C1748 C1749 1.386 . S
C1748 C1750 1.391 . S
C1749 C1748 1.386 . S
C1749 C1753 1.393 . S
C1750 H1742 0.950 . S
C1750 C1748 1.391 . S
C1750 C1751 1.400 . S
C1751 C1750 1.400 . S
C1751 C1752 1.398 . S
C1751 C1757 1.491 . S
C1752 H1743 0.950 . S
C1752 C1751 1.398 . S
C1752 C1753 1.391 . S
C1753 H1741 0.950 . S
C1753 C1749 1.393 . S
C1753 C1752 1.391 . S
C1754 H1744 0.950 . S
C1754 C1755 1.386 . S
C1754 C1756 1.391 . S
C1755 C1754 1.386 . S
C1755 C1759 1.393 . S
C1756 H1745 0.950 . S
C1756 C1754 1.391 . S
C1756 C1757 1.400 . S
C1757 C1751 1.491 . S
C1757 C1756 1.400 . S
C1757 C1758 1.398 . S
C1758 H1746 0.950 . S
C1758 C1757 1.398 . S
C1758 C1759 1.391 . S
C1759 H1747 0.950 . S
C1759 C1755 1.393 . S
C1759 C1758 1.391 . S
H1760 C1768 0.950 . S
H1761 C1773 0.950 . S
H1762 C1770 0.950 . S
H1763 C1772 0.950 . S
H1764 C1774 0.950 . S
H1765 C1776 0.950 . S
H1766 C1778 0.950 . S
H1767 C1779 0.950 . S
C1768 H1760 0.950 . S
C1768 C1769 1.386 . S
C1768 C1770 1.391 . S
C1769 C1768 1.386 . S
C1769 C1773 1.393 . S
C1770 H1762 0.950 . S
C1770 C1768 1.391 . S
C1770 C1771 1.400 . S
C1771 C1770 1.400 . S
C1771 C1772 1.398 . S
C1771 C1777 1.491 . S
C1772 H1763 0.950 . S
C1772 C1771 1.398 . S
C1772 C1773 1.391 . S
C1773 H1761 0.950 . S
C1773 C1769 1.393 . S
C1773 C1772 1.391 . S
C1774 H1764 0.950 . S
C1774 C1775 1.386 . S
C1774 C1776 1.391 . S
C1775 C1774 1.386 . S
C1775 C1779 1.393 . S
C1776 H1765 0.950 . S
C1776 C1774 1.391 . S
C1776 C1777 1.400 . S
C1777 C1771 1.491 . S
C1777 C1776 1.400 . S
C1777 C1778 1.398 . S
C1778 H1766 0.950 . S
C1778 C1777 1.398 . S
C1778 C1779 1.391 . S
C1779 H1767 0.950 . S
C1779 C1775 1.393 . S
C1779 C1778 1.391 . S
H1780 C1788 0.950 . S
H1781 C1793 0.950 . S
H1782 C1790 0.950 . S
H1783 C1792 0.950 . S
H1784 C1794 0.950 . S
H1785 C1796 0.950 . S
H1786 C1798 0.950 . S
H1787 C1799 0.950 . S
C1788 H1780 0.950 . S
C1788 C1789 1.386 . S
C1788 C1790 1.391 . S
C1789 C1788 1.386 . S
C1789 C1793 1.393 . S
C1790 H1782 0.950 . S
C1790 C1788 1.391 . S
C1790 C1791 1.400 . S
C1791 C1790 1.400 . S
C1791 C1792 1.398 . S
C1791 C1797 1.491 . S
C1792 H1783 0.950 . S
C1792 C1791 1.398 . S
C1792 C1793 1.391 . S
C1793 H1781 0.950 . S
C1793 C1789 1.393 . S
C1793 C1792 1.391 . S
C1794 H1784 0.950 . S
C1794 C1795 1.386 . S
C1794 C1796 1.391 . S
C1795 C1794 1.386 . S
C1795 C1799 1.393 . S
C1796 H1785 0.950 . S
C1796 C1794 1.391 . S
C1796 C1797 1.400 . S
C1797 C1791 1.491 . S
C1797 C1796 1.400 . S
C1797 C1798 1.398 . S
C1798 H1786 0.950 . S
C1798 C1797 1.398 . S
C1798 C1799 1.391 . S
C1799 H1787 0.950 . S
C1799 C1795 1.393 . S
C1799 C1798 1.391 . S
H1800 C1808 0.950 . S
H1801 C1813 0.950 . S
H1802 C1810 0.950 . S
H1803 C1812 0.950 . S
H1804 C1814 0.950 . S
H1805 C1816 0.950 . S
H1806 C1818 0.950 . S
H1807 C1819 0.950 . S
C1808 H1800 0.950 . S
C1808 C1809 1.386 . S
C1808 C1810 1.391 . S
C1809 C1808 1.386 . S
C1809 C1813 1.393 . S
C1810 H1802 0.950 . S
C1810 C1808 1.391 . S
C1810 C1811 1.400 . S
C1811 C1810 1.400 . S
C1811 C1812 1.398 . S
C1811 C1817 1.491 . S
C1812 H1803 0.950 . S
C1812 C1811 1.398 . S
C1812 C1813 1.391 . S
C1813 H1801 0.950 . S
C1813 C1809 1.393 . S
C1813 C1812 1.391 . S
C1814 H1804 0.950 . S
C1814 C1815 1.386 . S
C1814 C1816 1.391 . S
C1815 C1814 1.386 . S
C1815 C1819 1.393 . S
C1816 H1805 0.950 . S
C1816 C1814 1.391 . S
C1816 C1817 1.400 . S
C1817 C1811 1.491 . S
C1817 C1816 1.400 . S
C1817 C1818 1.398 . S
C1818 H1806 0.950 . S
C1818 C1817 1.398 . S
C1818 C1819 1.391 . S
C1819 H1807 0.950 . S
C1819 C1815 1.393 . S
C1819 C1818 1.391 . S
H1820 C1828 0.950 . S
H1821 C1833 0.950 . S
H1822 C1830 0.950 . S
H1823 C1832 0.950 . S
H1824 C1834 0.950 . S
H1825 C1836 0.950 . S
H1826 C1838 0.950 . S
H1827 C1839 0.950 . S
C1828 H1820 0.950 . S
C1828 C1829 1.386 . S
C1828 C1830 1.391 . S
C1829 C1828 1.386 . S
C1829 C1833 1.393 . S
C1830 H1822 0.950 . S
C1830 C1828 1.391 . S
C1830 C1831 1.400 . S
C1831 C1830 1.400 . S
C1831 C1832 1.398 . S
C1831 C1837 1.491 . S
C1832 H1823 0.950 . S
C1832 C1831 1.398 . S
C1832 C1833 1.391 . S
C1833 H1821 0.950 . S
C1833 C1829 1.393 . S
C1833 C1832 1.391 . S
C1834 H1824 0.950 . S
C1834 C1835 1.386 1_655 S
C1834 C1836 1.391 1_655 S
C1835 C1834 1.386 1_455 S
C1835 C1839 1.393 . S
C1836 H1825 0.950 . S
C1836 C1834 1.391 1_455 S
C1836 C1837 1.400 . S
C1837 C1831 1.491 . S
C1837 C1836 1.400 . S
C1837 C1838 1.398 . S
C1838 H1826 0.950 . S
C1838 C1837 1.398 . S
C1838 C1839 1.391 . S
C1839 H1827 0.950 . S
C1839 C1835 1.393 . S
C1839 C1838 1.391 . S
H1840 C1848 0.950 . S
H1841 C1853 0.950 . S
H1842 C1850 0.950 . S
H1843 C1852 0.950 . S
H1844 C1854 0.950 . S
H1845 C1856 0.950 . S
H1846 C1858 0.950 . S
H1847 C1859 0.950 . S
C1848 H1840 0.950 . S
C1848 C1849 1.386 . S
C1848 C1850 1.391 . S
C1849 C1848 1.386 . S
C1849 C1853 1.393 . S
C1850 H1842 0.950 . S
C1850 C1848 1.391 . S
C1850 C1851 1.400 . S
C1851 C1850 1.400 . S
C1851 C1852 1.398 . S
C1851 C1857 1.491 . S
C1852 H1843 0.950 . S
C1852 C1851 1.398 . S
C1852 C1853 1.391 . S
C1853 H1841 0.950 . S
C1853 C1849 1.393 . S
C1853 C1852 1.391 . S
C1854 H1844 0.950 . S
C1854 C1855 1.386 . S
C1854 C1856 1.391 . S
C1855 C1854 1.386 . S
C1855 C1859 1.393 . S
C1856 H1845 0.950 . S
C1856 C1854 1.391 . S
C1856 C1857 1.400 . S
C1857 C1851 1.491 . S
C1857 C1856 1.400 . S
C1857 C1858 1.398 . S
C1858 H1846 0.950 . S
C1858 C1857 1.398 . S
C1858 C1859 1.391 . S
C1859 H1847 0.950 . S
C1859 C1855 1.393 . S
C1859 C1858 1.391 . S
H1860 C1868 0.950 . S
H1861 C1873 0.950 . S
H1862 C1870 0.950 . S
H1863 C1872 0.950 . S
H1864 C1874 0.950 . S
H1865 C1876 0.950 . S
H1866 C1878 0.950 . S
H1867 C1879 0.950 . S
C1868 H1860 0.950 . S
C1868 C1869 1.386 . S
C1868 C1870 1.391 . S
C1869 C1868 1.386 . S
C1869 C1873 1.393 1_455 S
C1870 H1862 0.950 . S
C1870 C1868 1.391 . S
C1870 C1871 1.400 . S
C1871 C1870 1.400 . S
C1871 C1872 1.398 . S
C1871 C1877 1.491 . S
C1872 H1863 0.950 . S
C1872 C1871 1.398 . S
C1872 C1873 1.391 1_455 S
C1873 H1861 0.950 . S
C1873 C1869 1.393 1_655 S
C1873 C1872 1.391 1_655 S
C1874 H1864 0.950 . S
C1874 C1875 1.386 . S
C1874 C1876 1.391 . S
C1875 C1874 1.386 . S
C1875 C1879 1.393 . S
C1876 H1865 0.950 . S
C1876 C1874 1.391 . S
C1876 C1877 1.400 . S
C1877 C1871 1.491 . S
C1877 C1876 1.400 . S
C1877 C1878 1.398 . S
C1878 H1866 0.950 . S
C1878 C1877 1.398 . S
C1878 C1879 1.391 . S
C1879 H1867 0.950 . S
C1879 C1875 1.393 . S
C1879 C1878 1.391 . S
H1880 C1888 0.950 . S
H1881 C1893 0.950 . S
H1882 C1890 0.950 . S
H1883 C1892 0.950 . S
H1884 C1894 0.950 . S
H1885 C1896 0.950 . S
H1886 C1898 0.950 . S
H1887 C1899 0.950 . S
C1888 H1880 0.950 . S
C1888 C1889 1.386 . S
C1888 C1890 1.391 . S
C1889 C1888 1.386 . S
C1889 C1893 1.393 . S
C1890 H1882 0.950 . S
C1890 C1888 1.391 . S
C1890 C1891 1.400 . S
C1891 C1890 1.400 . S
C1891 C1892 1.398 . S
C1891 C1897 1.491 . S
C1892 H1883 0.950 . S
C1892 C1891 1.398 . S
C1892 C1893 1.391 . S
C1893 H1881 0.950 . S
C1893 C1889 1.393 . S
C1893 C1892 1.391 . S
C1894 H1884 0.950 . S
C1894 C1895 1.386 . S
C1894 C1896 1.391 . S
C1895 C1894 1.386 . S
C1895 C1899 1.393 . S
C1896 H1885 0.950 . S
C1896 C1894 1.391 . S
C1896 C1897 1.400 . S
C1897 C1891 1.491 . S
C1897 C1896 1.400 . S
C1897 C1898 1.398 . S
C1898 H1886 0.950 . S
C1898 C1897 1.398 . S
C1898 C1899 1.391 . S
C1899 H1887 0.950 . S
C1899 C1895 1.393 . S
C1899 C1898 1.391 . S
H1900 C1908 0.950 . S
H1901 C1913 0.950 . S
H1902 C1910 0.950 . S
H1903 C1912 0.950 . S
H1904 C1914 0.950 . S
H1905 C1916 0.950 . S
H1906 C1918 0.950 . S
H1907 C1919 0.950 . S
C1908 H1900 0.950 . S
C1908 C1909 1.386 . S
C1908 C1910 1.391 . S
C1909 C1908 1.386 . S
C1909 C1913 1.393 . S
C1910 H1902 0.950 . S
C1910 C1908 1.391 . S
C1910 C1911 1.400 . S
C1911 C1910 1.400 . S
C1911 C1912 1.398 . S
C1911 C1917 1.491 . S
C1912 H1903 0.950 . S
C1912 C1911 1.398 . S
C1912 C1913 1.391 . S
C1913 H1901 0.950 . S
C1913 C1909 1.393 . S
C1913 C1912 1.391 . S
C1914 H1904 0.950 . S
C1914 C1915 1.386 . S
C1914 C1916 1.391 . S
C1915 C1914 1.386 . S
C1915 C1919 1.393 . S
C1916 H1905 0.950 . S
C1916 C1914 1.391 . S
C1916 C1917 1.400 . S
C1917 C1911 1.491 . S
C1917 C1916 1.400 . S
C1917 C1918 1.398 . S
C1918 H1906 0.950 . S
C1918 C1917 1.398 . S
C1918 C1919 1.391 . S
C1919 H1907 0.950 . S
C1919 C1915 1.393 . S
C1919 C1918 1.391 . S
H1920 C1928 0.950 . S
H1921 C1933 0.950 . S
H1922 C1930 0.950 . S
H1923 C1932 0.950 . S
H1924 C1934 0.950 . S
H1925 C1936 0.950 . S
H1926 C1938 0.950 . S
H1927 C1939 0.950 . S
C1928 H1920 0.950 . S
C1928 C1929 1.386 . S
C1928 C1930 1.391 . S
C1929 C1928 1.386 . S
C1929 C1933 1.393 . S
C1930 H1922 0.950 . S
C1930 C1928 1.391 . S
C1930 C1931 1.400 . S
C1931 C1930 1.400 . S
C1931 C1932 1.398 . S
C1931 C1937 1.491 1_455 S
C1932 H1923 0.950 . S
C1932 C1931 1.398 . S
C1932 C1933 1.391 . S
C1933 H1921 0.950 . S
C1933 C1929 1.393 . S
C1933 C1932 1.391 . S
C1934 H1924 0.950 . S
C1934 C1935 1.386 . S
C1934 C1936 1.391 . S
C1935 C1934 1.386 . S
C1935 C1939 1.393 . S
C1936 H1925 0.950 . S
C1936 C1934 1.391 . S
C1936 C1937 1.400 . S
C1937 C1931 1.491 1_655 S
C1937 C1936 1.400 . S
C1937 C1938 1.398 . S
C1938 H1926 0.950 . S
C1938 C1937 1.398 . S
C1938 C1939 1.391 . S
C1939 H1927 0.950 . S
C1939 C1935 1.393 . S
C1939 C1938 1.391 . S
H1940 C1948 0.950 . S
H1941 C1953 0.950 . S
H1942 C1950 0.950 . S
H1943 C1952 0.950 1_455 S
H1944 C1954 0.950 . S
H1945 C1956 0.950 . S
H1946 C1958 0.950 1_655 S
H1947 C1959 0.950 . S
C1948 H1940 0.950 . S
C1948 C1949 1.386 . S
C1948 C1950 1.391 . S
C1949 C1948 1.386 . S
C1949 C1953 1.393 . S
C1950 H1942 0.950 . S
C1950 C1948 1.391 . S
C1950 C1951 1.400 . S
C1951 C1950 1.400 . S
C1951 C1952 1.398 . S
C1951 C1957 1.491 1_655 S
C1952 H1943 0.950 1_655 S
C1952 C1951 1.398 . S
C1952 C1953 1.391 . S
C1953 H1941 0.950 . S
C1953 C1949 1.393 . S
C1953 C1952 1.391 . S
C1954 H1944 0.950 . S
C1954 C1955 1.386 . S
C1954 C1956 1.391 . S
C1955 C1954 1.386 . S
C1955 C1959 1.393 . S
C1956 H1945 0.950 . S
C1956 C1954 1.391 . S
C1956 C1957 1.400 . S
C1957 C1951 1.491 1_455 S
C1957 C1956 1.400 . S
C1957 C1958 1.398 . S
C1958 H1946 0.950 1_455 S
C1958 C1957 1.398 . S
C1958 C1959 1.391 . S
C1959 H1947 0.950 . S
C1959 C1955 1.393 . S
C1959 C1958 1.391 . S
H1960 C1968 0.950 . S
H1961 C1973 0.950 . S
H1962 C1970 0.950 . S
H1963 C1972 0.950 . S
H1964 C1974 0.950 . S
H1965 C1976 0.950 . S
H1966 C1978 0.950 . S
H1967 C1979 0.950 . S
C1968 H1960 0.950 . S
C1968 C1969 1.386 . S
C1968 C1970 1.391 . S
C1969 C1968 1.386 . S
C1969 C1973 1.393 . S
C1970 H1962 0.950 . S
C1970 C1968 1.391 . S
C1970 C1971 1.400 . S
C1971 C1970 1.400 . S
C1971 C1972 1.398 . S
C1971 C1977 1.491 . S
C1972 H1963 0.950 . S
C1972 C1971 1.398 . S
C1972 C1973 1.391 . S
C1973 H1961 0.950 . S
C1973 C1969 1.393 . S
C1973 C1972 1.391 . S
C1974 H1964 0.950 . S
C1974 C1975 1.386 . S
C1974 C1976 1.391 . S
C1975 C1974 1.386 . S
C1975 C1979 1.393 . S
C1976 H1965 0.950 . S
C1976 C1974 1.391 . S
C1976 C1977 1.400 . S
C1977 C1971 1.491 . S
C1977 C1976 1.400 . S
C1977 C1978 1.398 . S
C1978 H1966 0.950 . S
C1978 C1977 1.398 . S
C1978 C1979 1.391 . S
C1979 H1967 0.950 . S
C1979 C1975 1.393 . S
C1979 C1978 1.391 . S
H1980 C1988 0.950 . S
H1981 C1993 0.950 . S
H1982 C1990 0.950 . S
H1983 C1992 0.950 . S
H1984 C1994 0.950 . S
H1985 C1996 0.950 . S
H1986 C1998 0.950 . S
H1987 C1999 0.950 . S
C1988 H1980 0.950 . S
C1988 C1989 1.386 . S
C1988 C1990 1.391 . S
C1989 C1988 1.386 . S
C1989 C1993 1.393 . S
C1990 H1982 0.950 . S
C1990 C1988 1.391 . S
C1990 C1991 1.400 . S
C1991 C1990 1.400 . S
C1991 C1992 1.398 . S
C1991 C1997 1.491 . S
C1992 H1983 0.950 . S
C1992 C1991 1.398 . S
C1992 C1993 1.391 . S
C1993 H1981 0.950 . S
C1993 C1989 1.393 . S
C1993 C1992 1.391 . S
C1994 H1984 0.950 . S
C1994 C1995 1.386 . S
C1994 C1996 1.391 . S
C1995 C1994 1.386 . S
C1995 C1999 1.393 . S
C1996 H1985 0.950 . S
C1996 C1994 1.391 . S
C1996 C1997 1.400 . S
C1997 C1991 1.491 . S
C1997 C1996 1.400 . S
C1997 C1998 1.398 . S
C1998 H1986 0.950 . S
C1998 C1997 1.398 . S
C1998 C1999 1.391 . S
C1999 H1987 0.950 . S
C1999 C1995 1.393 . S
C1999 C1998 1.391 . S
H2000 C2008 0.950 . S
H2001 C2013 0.950 . S
H2002 C2010 0.950 . S
H2003 C2012 0.950 . S
H2004 C2014 0.950 . S
H2005 C2016 0.950 . S
H2006 C2018 0.950 . S
H2007 C2019 0.950 . S
C2008 H2000 0.950 . S
C2008 C2009 1.386 . S
C2008 C2010 1.391 . S
C2009 C2008 1.386 . S
C2009 C2013 1.393 . S
C2010 H2002 0.950 . S
C2010 C2008 1.391 . S
C2010 C2011 1.400 . S
C2011 C2010 1.400 . S
C2011 C2012 1.398 1_655 S
C2011 C2017 1.491 1_655 S
C2012 H2003 0.950 . S
C2012 C2011 1.398 1_455 S
C2012 C2013 1.391 1_455 S
C2013 H2001 0.950 . S
C2013 C2009 1.393 . S
C2013 C2012 1.391 1_655 S
C2014 H2004 0.950 . S
C2014 C2015 1.386 . S
C2014 C2016 1.391 . S
C2015 C2014 1.386 . S
C2015 C2019 1.393 . S
C2016 H2005 0.950 . S
C2016 C2014 1.391 . S
C2016 C2017 1.400 . S
C2017 C2011 1.491 1_455 S
C2017 C2016 1.400 . S
C2017 C2018 1.398 1_455 S
C2018 H2006 0.950 . S
C2018 C2017 1.398 1_655 S
C2018 C2019 1.391 1_655 S
C2019 H2007 0.950 . S
C2019 C2015 1.393 . S
C2019 C2018 1.391 1_455 S
H2020 C2028 0.950 . S
H2021 C2033 0.950 . S
H2022 C2030 0.950 . S
H2023 C2032 0.950 . S
H2024 C2034 0.950 . S
H2025 C2036 0.950 . S
H2026 C2038 0.950 . S
H2027 C2039 0.950 . S
C2028 H2020 0.950 . S
C2028 C2029 1.386 . S
C2028 C2030 1.391 . S
C2029 C2028 1.386 . S
C2029 C2033 1.393 . S
C2030 H2022 0.950 . S
C2030 C2028 1.391 . S
C2030 C2031 1.400 . S
C2031 C2030 1.400 . S
C2031 C2032 1.398 . S
C2031 C2037 1.491 . S
C2032 H2023 0.950 . S
C2032 C2031 1.398 . S
C2032 C2033 1.391 . S
C2033 H2021 0.950 . S
C2033 C2029 1.393 . S
C2033 C2032 1.391 . S
C2034 H2024 0.950 . S
C2034 C2035 1.386 . S
C2034 C2036 1.391 . S
C2035 C2034 1.386 . S
C2035 C2039 1.393 . S
C2036 H2025 0.950 . S
C2036 C2034 1.391 . S
C2036 C2037 1.400 . S
C2037 C2031 1.491 . S
C2037 C2036 1.400 . S
C2037 C2038 1.398 . S
C2038 H2026 0.950 . S
C2038 C2037 1.398 . S
C2038 C2039 1.391 . S
C2039 H2027 0.950 . S
C2039 C2035 1.393 . S
C2039 C2038 1.391 . S
H2040 C2048 0.950 . S
H2041 C2053 0.950 . S
H2042 C2050 0.950 . S
H2043 C2052 0.950 . S
H2044 C2054 0.950 . S
H2045 C2056 0.950 . S
H2046 C2058 0.950 . S
H2047 C2059 0.950 . S
C2048 H2040 0.950 . S
C2048 C2049 1.386 . S
C2048 C2050 1.391 . S
C2049 C2048 1.386 . S
C2049 C2053 1.393 . S
C2050 H2042 0.950 . S
C2050 C2048 1.391 . S
C2050 C2051 1.400 . S
C2051 C2050 1.400 . S
C2051 C2052 1.398 . S
C2051 C2057 1.491 . S
C2052 H2043 0.950 . S
C2052 C2051 1.398 . S
C2052 C2053 1.391 . S
C2053 H2041 0.950 . S
C2053 C2049 1.393 . S
C2053 C2052 1.391 . S
C2054 H2044 0.950 . S
C2054 C2055 1.386 . S
C2054 C2056 1.391 . S
C2055 C2054 1.386 . S
C2055 C2059 1.393 . S
C2056 H2045 0.950 . S
C2056 C2054 1.391 . S
C2056 C2057 1.400 . S
C2057 C2051 1.491 . S
C2057 C2056 1.400 . S
C2057 C2058 1.398 . S
C2058 H2046 0.950 . S
C2058 C2057 1.398 . S
C2058 C2059 1.391 . S
C2059 H2047 0.950 . S
C2059 C2055 1.393 . S
C2059 C2058 1.391 . S
H2060 C2068 0.950 . S
H2061 C2073 0.950 . S
H2062 C2070 0.950 1_655 S
H2063 C2072 0.950 . S
H2064 C2074 0.950 . S
H2065 C2076 0.950 1_455 S
H2066 C2078 0.950 . S
H2067 C2079 0.950 . S
C2068 H2060 0.950 . S
C2068 C2069 1.386 . S
C2068 C2070 1.391 . S
C2069 C2068 1.386 . S
C2069 C2073 1.393 . S
C2070 H2062 0.950 1_455 S
C2070 C2068 1.391 . S
C2070 C2071 1.400 . S
C2071 C2070 1.400 . S
C2071 C2072 1.398 . S
C2071 C2077 1.491 1_455 S
C2072 H2063 0.950 . S
C2072 C2071 1.398 . S
C2072 C2073 1.391 . S
C2073 H2061 0.950 . S
C2073 C2069 1.393 . S
C2073 C2072 1.391 . S
C2074 H2064 0.950 . S
C2074 C2075 1.386 . S
C2074 C2076 1.391 . S
C2075 C2074 1.386 . S
C2075 C2079 1.393 . S
C2076 H2065 0.950 1_655 S
C2076 C2074 1.391 . S
C2076 C2077 1.400 . S
C2077 C2071 1.491 1_655 S
C2077 C2076 1.400 . S
C2077 C2078 1.398 . S
C2078 H2066 0.950 . S
C2078 C2077 1.398 . S
C2078 C2079 1.391 . S
C2079 H2067 0.950 . S
C2079 C2075 1.393 . S
C2079 C2078 1.391 . S
H2080 C2088 0.950 . S
H2081 C2093 0.950 . S
H2082 C2090 0.950 . S
H2083 C2092 0.950 . S
H2084 C2094 0.950 . S
H2085 C2096 0.950 . S
H2086 C2098 0.950 . S
H2087 C2099 0.950 . S
C2088 H2080 0.950 . S
C2088 C2089 1.386 . S
C2088 C2090 1.391 . S
C2089 C2088 1.386 . S
C2089 C2093 1.393 . S
C2090 H2082 0.950 . S
C2090 C2088 1.391 . S
C2090 C2091 1.400 . S
C2091 C2090 1.400 . S
C2091 C2092 1.398 . S
C2091 C2097 1.491 1_455 S
C2092 H2083 0.950 . S
C2092 C2091 1.398 . S
C2092 C2093 1.391 . S
C2093 H2081 0.950 . S
C2093 C2089 1.393 . S
C2093 C2092 1.391 . S
C2094 H2084 0.950 . S
C2094 C2095 1.386 . S
C2094 C2096 1.391 . S
C2095 C2094 1.386 . S
C2095 C2099 1.393 . S
C2096 H2085 0.950 . S
C2096 C2094 1.391 . S
C2096 C2097 1.400 . S
C2097 C2091 1.491 1_655 S
C2097 C2096 1.400 . S
C2097 C2098 1.398 . S
C2098 H2086 0.950 . S
C2098 C2097 1.398 . S
C2098 C2099 1.391 . S
C2099 H2087 0.950 . S
C2099 C2095 1.393 . S
C2099 C2098 1.391 . S
H2100 C2108 0.950 . S
H2101 C2113 0.950 . S
H2102 C2110 0.950 . S
H2103 C2112 0.933 1_455 S
H2104 C2114 0.950 . S
H2105 C2116 0.950 . S
H2106 C2118 0.933 1_655 S
H2107 C2119 0.950 . S
C2108 H2100 0.950 . S
C2108 C2109 1.386 . S
C2108 C2110 1.391 . S
C2109 C2108 1.386 . S
C2109 C2113 1.393 . S
C2110 H2102 0.950 . S
C2110 C2108 1.391 . S
C2110 C2111 1.400 . S
C2111 C2110 1.400 . S
C2111 C2112 1.398 . S
C2111 C2117 1.491 1_655 S
C2112 H2103 0.933 1_655 S
C2112 C2111 1.398 . S
C2112 C2113 1.391 . S
C2113 H2101 0.950 . S
C2113 C2109 1.393 . S
C2113 C2112 1.391 . S
C2114 H2104 0.950 . S
C2114 C2115 1.386 . S
C2114 C2116 1.391 . S
C2115 C2114 1.386 . S
C2115 C2119 1.393 . S
C2116 H2105 0.950 . S
C2116 C2114 1.391 . S
C2116 C2117 1.400 . S
C2117 C2111 1.491 1_455 S
C2117 C2116 1.400 . S
C2117 C2118 1.398 . S
C2118 H2106 0.933 1_455 S
C2118 C2117 1.398 . S
C2118 C2119 1.391 . S
C2119 H2107 0.950 . S
C2119 C2115 1.393 . S
C2119 C2118 1.391 . S
H2120 C2128 0.950 . S
H2121 C2133 0.950 . S
H2122 C2130 0.950 . S
H2123 C2132 0.950 . S
H2124 C2134 0.950 . S
H2125 C2136 0.950 . S
H2126 C2138 0.950 . S
H2127 C2139 0.950 . S
C2128 H2120 0.950 . S
C2128 C2129 1.386 . S
C2128 C2130 1.391 . S
C2129 C2128 1.386 . S
C2129 C2133 1.393 . S
C2130 H2122 0.950 . S
C2130 C2128 1.391 . S
C2130 C2131 1.400 . S
C2131 C2130 1.400 . S
C2131 C2132 1.398 . S
C2131 C2137 1.491 . S
C2132 H2123 0.950 . S
C2132 C2131 1.398 . S
C2132 C2133 1.391 . S
C2133 H2121 0.950 . S
C2133 C2129 1.393 . S
C2133 C2132 1.391 . S
C2134 H2124 0.950 . S
C2134 C2135 1.386 . S
C2134 C2136 1.391 . S
C2135 C2134 1.386 . S
C2135 C2139 1.393 . S
C2136 H2125 0.950 . S
C2136 C2134 1.391 . S
C2136 C2137 1.400 . S
C2137 C2131 1.491 . S
C2137 C2136 1.400 . S
C2137 C2138 1.398 . S
C2138 H2126 0.950 . S
C2138 C2137 1.398 . S
C2138 C2139 1.391 . S
C2139 H2127 0.950 . S
C2139 C2135 1.393 . S
C2139 C2138 1.391 . S
H2140 C2148 0.950 . S
H2141 C2153 0.950 . S
H2142 C2150 0.950 . S
H2143 C2152 0.950 . S
H2144 C2154 0.950 . S
H2145 C2156 0.950 . S
H2146 C2158 0.950 . S
H2147 C2159 0.950 . S
C2148 H2140 0.950 . S
C2148 C2149 1.386 . S
C2148 C2150 1.391 . S
C2149 C2148 1.386 . S
C2149 C2153 1.393 . S
C2150 H2142 0.950 . S
C2150 C2148 1.391 . S
C2150 C2151 1.400 . S
C2151 C2150 1.400 . S
C2151 C2152 1.398 . S
C2151 C2157 1.491 . S
C2152 H2143 0.950 . S
C2152 C2151 1.398 . S
C2152 C2153 1.391 . S
C2153 H2141 0.950 . S
C2153 C2149 1.393 . S
C2153 C2152 1.391 . S
C2154 H2144 0.950 . S
C2154 C2155 1.386 . S
C2154 C2156 1.391 . S
C2155 C2154 1.386 . S
C2155 C2159 1.393 . S
C2156 H2145 0.950 . S
C2156 C2154 1.391 . S
C2156 C2157 1.400 . S
C2157 C2151 1.491 . S
C2157 C2156 1.400 . S
C2157 C2158 1.398 . S
C2158 H2146 0.950 . S
C2158 C2157 1.398 . S
C2158 C2159 1.391 . S
C2159 H2147 0.950 . S
C2159 C2155 1.393 . S
C2159 C2158 1.391 . S
H2160 C2168 0.950 . S
H2161 C2173 0.950 . S
H2162 C2170 0.950 1_655 S
H2163 C2172 0.950 . S
H2164 C2174 0.950 . S
H2165 C2176 0.950 1_455 S
H2166 C2178 0.950 . S
H2167 C2179 0.950 . S
C2168 H2160 0.950 . S
C2168 C2169 1.386 . S
C2168 C2170 1.391 . S
C2169 C2168 1.386 . S
C2169 C2173 1.393 . S
C2170 H2162 0.950 1_455 S
C2170 C2168 1.391 . S
C2170 C2171 1.400 . S
C2171 C2170 1.400 . S
C2171 C2172 1.398 . S
C2171 C2177 1.491 1_455 S
C2172 H2163 0.950 . S
C2172 C2171 1.398 . S
C2172 C2173 1.391 . S
C2173 H2161 0.950 . S
C2173 C2169 1.393 . S
C2173 C2172 1.391 . S
C2174 H2164 0.950 . S
C2174 C2175 1.386 . S
C2174 C2176 1.391 . S
C2175 C2174 1.386 . S
C2175 C2179 1.393 . S
C2176 H2165 0.950 1_655 S
C2176 C2174 1.391 . S
C2176 C2177 1.400 . S
C2177 C2171 1.491 1_655 S
C2177 C2176 1.400 . S
C2177 C2178 1.398 . S
C2178 H2166 0.950 . S
C2178 C2177 1.398 . S
C2178 C2179 1.391 . S
C2179 H2167 0.950 . S
C2179 C2175 1.393 . S
C2179 C2178 1.391 . S
H2180 C2188 0.950 . S
H2181 C2193 0.950 . S
H2182 C2190 0.950 . S
H2183 C2192 0.950 . S
H2184 C2194 0.950 . S
H2185 C2196 0.950 . S
H2186 C2198 0.950 . S
H2187 C2199 0.950 . S
C2188 H2180 0.950 . S
C2188 C2189 1.386 . S
C2188 C2190 1.391 . S
C2189 C2188 1.386 . S
C2189 C2193 1.393 . S
C2190 H2182 0.950 . S
C2190 C2188 1.391 . S
C2190 C2191 1.400 . S
C2191 C2190 1.400 . S
C2191 C2192 1.398 . S
C2191 C2197 1.491 . S
C2192 H2183 0.950 . S
C2192 C2191 1.398 . S
C2192 C2193 1.391 . S
C2193 H2181 0.950 . S
C2193 C2189 1.393 . S
C2193 C2192 1.391 . S
C2194 H2184 0.950 . S
C2194 C2195 1.386 . S
C2194 C2196 1.391 . S
C2195 C2194 1.386 . S
C2195 C2199 1.393 . S
C2196 H2185 0.950 . S
C2196 C2194 1.391 . S
C2196 C2197 1.400 . S
C2197 C2191 1.491 . S
C2197 C2196 1.400 . S
C2197 C2198 1.398 . S
C2198 H2186 0.950 . S
C2198 C2197 1.398 . S
C2198 C2199 1.391 . S
C2199 H2187 0.950 . S
C2199 C2195 1.393 . S
C2199 C2198 1.391 . S
H2200 C2208 0.950 . S
H2201 C2213 0.950 . S
H2202 C2210 0.950 . S
H2203 C2212 0.950 . S
H2204 C2214 0.950 . S
H2205 C2216 0.950 . S
H2206 C2218 0.950 . S
H2207 C2219 0.950 . S
C2208 H2200 0.950 . S
C2208 C2209 1.386 . S
C2208 C2210 1.391 . S
C2209 C2208 1.386 . S
C2209 C2213 1.393 . S
C2210 H2202 0.950 . S
C2210 C2208 1.391 . S
C2210 C2211 1.400 . S
C2211 C2210 1.400 . S
C2211 C2212 1.398 . S
C2211 C2217 1.491 . S
C2212 H2203 0.950 . S
C2212 C2211 1.398 . S
C2212 C2213 1.391 . S
C2213 H2201 0.950 . S
C2213 C2209 1.393 . S
C2213 C2212 1.391 . S
C2214 H2204 0.950 . S
C2214 C2215 1.386 . S
C2214 C2216 1.391 . S
C2215 C2214 1.386 . S
C2215 C2219 1.393 . S
C2216 H2205 0.950 . S
C2216 C2214 1.391 . S
C2216 C2217 1.400 . S
C2217 C2211 1.491 . S
C2217 C2216 1.400 . S
C2217 C2218 1.398 . S
C2218 H2206 0.950 . S
C2218 C2217 1.398 . S
C2218 C2219 1.391 . S
C2219 H2207 0.950 . S
C2219 C2215 1.393 . S
C2219 C2218 1.391 . S
H2220 C2228 0.950 . S
H2221 C2233 0.950 . S
H2222 C2230 0.950 . S
H2223 C2232 0.950 1_455 S
H2224 C2234 0.950 . S
H2225 C2236 0.950 . S
H2226 C2238 0.950 1_655 S
H2227 C2239 0.950 . S
C2228 H2220 0.950 . S
C2228 C2229 1.386 . S
C2228 C2230 1.391 . S
C2229 C2228 1.386 . S
C2229 C2233 1.393 . S
C2230 H2222 0.950 . S
C2230 C2228 1.391 . S
C2230 C2231 1.400 . S
C2231 C2230 1.400 . S
C2231 C2232 1.398 . S
C2231 C2237 1.491 1_655 S
C2232 H2223 0.950 1_655 S
C2232 C2231 1.398 . S
C2232 C2233 1.391 . S
C2233 H2221 0.950 . S
C2233 C2229 1.393 . S
C2233 C2232 1.391 . S
C2234 H2224 0.950 . S
C2234 C2235 1.386 . S
C2234 C2236 1.391 . S
C2235 C2234 1.386 . S
C2235 C2239 1.393 . S
C2236 H2225 0.950 . S
C2236 C2234 1.391 . S
C2236 C2237 1.400 . S
C2237 C2231 1.491 1_455 S
C2237 C2236 1.400 . S
C2237 C2238 1.398 . S
C2238 H2226 0.950 1_455 S
C2238 C2237 1.398 . S
C2238 C2239 1.391 . S
C2239 H2227 0.950 . S
C2239 C2235 1.393 . S
C2239 C2238 1.391 . S
H2240 C2248 0.950 . S
H2241 C2253 0.950 . S
H2242 C2250 0.950 . S
H2243 C2252 0.950 . S
H2244 C2254 0.950 . S
H2245 C2256 0.950 . S
H2246 C2258 0.950 . S
H2247 C2259 0.950 . S
C2248 H2240 0.950 . S
C2248 C2249 1.386 . S
C2248 C2250 1.391 . S
C2249 C2248 1.386 . S
C2249 C2253 1.393 . S
C2250 H2242 0.950 . S
C2250 C2248 1.391 . S
C2250 C2251 1.400 . S
C2251 C2250 1.400 . S
C2251 C2252 1.398 . S
C2251 C2257 1.491 . S
C2252 H2243 0.950 . S
C2252 C2251 1.398 . S
C2252 C2253 1.391 . S
C2253 H2241 0.950 . S
C2253 C2249 1.393 . S
C2253 C2252 1.391 . S
C2254 H2244 0.950 . S
C2254 C2255 1.386 . S
C2254 C2256 1.391 . S
C2255 C2254 1.386 . S
C2255 C2259 1.393 . S
C2256 H2245 0.950 . S
C2256 C2254 1.391 . S
C2256 C2257 1.400 . S
C2257 C2251 1.491 . S
C2257 C2256 1.400 . S
C2257 C2258 1.398 . S
C2258 H2246 0.950 . S
C2258 C2257 1.398 . S
C2258 C2259 1.391 . S
C2259 H2247 0.950 . S
C2259 C2255 1.393 . S
C2259 C2258 1.391 . S
H2260 C2268 0.950 . S
H2261 C2273 0.950 . S
H2262 C2270 0.950 . S
H2263 C2272 0.950 . S
H2264 C2274 0.950 . S
H2265 C2276 0.950 . S
H2266 C2278 0.950 . S
H2267 C2279 0.950 . S
C2268 H2260 0.950 . S
C2268 C2269 1.386 . S
C2268 C2270 1.391 . S
C2269 C2268 1.386 . S
C2269 C2273 1.393 1_545 S
C2270 H2262 0.950 . S
C2270 C2268 1.391 . S
C2270 C2271 1.400 . S
C2271 C2270 1.400 . S
C2271 C2272 1.398 1_545 S
C2271 C2277 1.491 1_645 S
C2272 H2263 0.950 . S
C2272 C2271 1.398 1_565 S
C2272 C2273 1.391 . S
C2273 H2261 0.950 . S
C2273 C2269 1.393 1_565 S
C2273 C2272 1.391 . S
C2274 H2264 0.950 . S
C2274 C2275 1.386 . S
C2274 C2276 1.391 . S
C2275 C2274 1.386 . S
C2275 C2279 1.393 1_565 S
C2276 H2265 0.950 . S
C2276 C2274 1.391 . S
C2276 C2277 1.400 . S
C2277 C2271 1.491 1_465 S
C2277 C2276 1.400 . S
C2277 C2278 1.398 1_565 S
C2278 H2266 0.950 . S
C2278 C2277 1.398 1_545 S
C2278 C2279 1.391 . S
C2279 H2267 0.950 . S
C2279 C2275 1.393 1_545 S
C2279 C2278 1.391 . S
H2280 C2288 0.950 . S
H2281 C2293 0.950 . S
H2282 C2290 0.950 . S
H2283 C2292 0.950 . S
H2284 C2294 0.950 . S
H2285 C2296 0.950 . S
H2286 C2298 0.950 . S
H2287 C2299 0.950 . S
C2288 H2280 0.950 . S
C2288 C2289 1.386 . S
C2288 C2290 1.391 . S
C2289 C2288 1.386 . S
C2289 C2293 1.393 . S
C2290 H2282 0.950 . S
C2290 C2288 1.391 . S
C2290 C2291 1.400 . S
C2291 C2290 1.400 . S
C2291 C2292 1.398 . S
C2291 C2297 1.491 . S
C2292 H2283 0.950 . S
C2292 C2291 1.398 . S
C2292 C2293 1.391 . S
C2293 H2281 0.950 . S
C2293 C2289 1.393 . S
C2293 C2292 1.391 . S
C2294 H2284 0.950 . S
C2294 C2295 1.386 . S
C2294 C2296 1.391 . S
C2295 C2294 1.386 . S
C2295 C2299 1.393 . S
C2296 H2285 0.950 . S
C2296 C2294 1.391 . S
C2296 C2297 1.400 . S
C2297 C2291 1.491 . S
C2297 C2296 1.400 . S
C2297 C2298 1.398 . S
C2298 H2286 0.950 . S
C2298 C2297 1.398 . S
C2298 C2299 1.391 . S
C2299 H2287 0.950 . S
C2299 C2295 1.393 . S
C2299 C2298 1.391 . S
H2300 C2308 0.973 . S
H2301 C2313 0.950 . S
H2302 C2310 1.024 . S
H2303 C2312 0.950 . S
H2304 C2314 0.973 . S
H2305 C2316 1.024 . S
H2306 C2318 0.950 . S
H2307 C2319 0.950 . S
C2308 H2300 0.973 . S
C2308 C2309 1.386 . S
C2308 C2310 1.357 1_554 S
C2309 C2308 1.386 . S
C2309 C2313 1.393 1_545 S
C2310 H2302 1.024 . S
C2310 C2308 1.357 1_556 S
C2310 C2311 1.373 1_556 S
C2311 C2310 1.373 1_554 S
C2311 C2312 1.398 1_545 S
C2311 C2317 1.491 1_544 S
C2312 H2303 0.950 . S
C2312 C2311 1.398 1_565 S
C2312 C2313 1.391 . S
C2313 H2301 0.950 . S
C2313 C2309 1.393 1_565 S
C2313 C2312 1.391 . S
C2314 H2304 0.973 . S
C2314 C2315 1.386 . S
C2314 C2316 1.357 1_556 S
C2315 C2314 1.386 . S
C2315 C2319 1.393 1_565 S
C2316 H2305 1.024 . S
C2316 C2314 1.357 1_554 S
C2316 C2317 1.373 1_554 S
C2317 C2311 1.491 1_566 S
C2317 C2316 1.373 1_556 S
C2317 C2318 1.398 1_565 S
C2318 H2306 0.950 . S
C2318 C2317 1.398 1_545 S
C2318 C2319 1.391 . S
C2319 H2307 0.950 . S
C2319 C2315 1.393 1_545 S
C2319 C2318 1.391 . S
H2320 C2328 0.950 . S
H2321 C2333 0.950 . S
H2322 C2330 0.950 . S
H2323 C2332 0.950 . S
H2324 C2334 0.950 . S
H2325 C2336 0.950 . S
H2326 C2338 0.950 . S
H2327 C2339 0.950 . S
C2328 H2320 0.950 . S
C2328 C2329 1.386 . S
C2328 C2330 1.391 . S
C2329 C2328 1.386 . S
C2329 C2333 1.393 . S
C2330 H2322 0.950 . S
C2330 C2328 1.391 . S
C2330 C2331 1.400 . S
C2331 C2330 1.400 . S
C2331 C2332 1.398 . S
C2331 C2337 1.491 . S
C2332 H2323 0.950 . S
C2332 C2331 1.398 . S
C2332 C2333 1.391 . S
C2333 H2321 0.950 . S
C2333 C2329 1.393 . S
C2333 C2332 1.391 . S
C2334 H2324 0.950 . S
C2334 C2335 1.386 . S
C2334 C2336 1.391 . S
C2335 C2334 1.386 . S
C2335 C2339 1.393 . S
C2336 H2325 0.950 . S
C2336 C2334 1.391 . S
C2336 C2337 1.400 . S
C2337 C2331 1.491 . S
C2337 C2336 1.400 . S
C2337 C2338 1.398 . S
C2338 H2326 0.950 . S
C2338 C2337 1.398 . S
C2338 C2339 1.391 . S
C2339 H2327 0.950 . S
C2339 C2335 1.393 . S
C2339 C2338 1.391 . S
H2340 C2348 0.950 . S
H2341 C2353 0.950 . S
H2342 C2350 0.950 . S
H2343 C2352 0.950 . S
H2344 C2354 0.950 . S
H2345 C2356 0.950 . S
H2346 C2358 0.950 . S
H2347 C2359 0.950 . S
C2348 H2340 0.950 . S
C2348 C2349 1.386 1_565 S
C2348 C2350 1.391 . S
C2349 C2348 1.386 1_545 S
C2349 C2353 1.393 . S
C2350 H2342 0.950 . S
C2350 C2348 1.391 . S
C2350 C2351 1.400 1_565 S
C2351 C2350 1.400 1_545 S
C2351 C2352 1.398 . S
C2351 C2357 1.491 1_545 S
C2352 H2343 0.950 . S
C2352 C2351 1.398 . S
C2352 C2353 1.391 . S
C2353 H2341 0.950 . S
C2353 C2349 1.393 . S
C2353 C2352 1.391 . S
C2354 H2344 0.950 . S
C2354 C2355 1.386 1_545 S
C2354 C2356 1.391 . S
C2355 C2354 1.386 1_565 S
C2355 C2359 1.393 . S
C2356 H2345 0.950 . S
C2356 C2354 1.391 . S
C2356 C2357 1.400 1_545 S
C2357 C2351 1.491 1_565 S
C2357 C2356 1.400 1_565 S
C2357 C2358 1.398 . S
C2358 H2346 0.950 . S
C2358 C2357 1.398 . S
C2358 C2359 1.391 . S
C2359 H2347 0.950 . S
C2359 C2355 1.393 . S
C2359 C2358 1.391 . S
H2360 C2368 0.950 . S
H2361 C2373 0.950 . S
H2362 C2370 0.950 . S
H2363 C2372 0.950 . S
H2364 C2374 0.950 . S
H2365 C2376 0.950 . S
H2366 C2378 0.950 . S
H2367 C2379 0.950 . S
C2368 H2360 0.950 . S
C2368 C2369 1.386 . S
C2368 C2370 1.391 . S
C2369 C2368 1.386 . S
C2369 C2373 1.393 . S
C2370 H2362 0.950 . S
C2370 C2368 1.391 . S
C2370 C2371 1.400 . S
C2371 C2370 1.400 . S
C2371 C2372 1.398 . S
C2371 C2377 1.491 . S
C2372 H2363 0.950 . S
C2372 C2371 1.398 . S
C2372 C2373 1.391 . S
C2373 H2361 0.950 . S
C2373 C2369 1.393 . S
C2373 C2372 1.391 . S
C2374 H2364 0.950 . S
C2374 C2375 1.386 . S
C2374 C2376 1.391 . S
C2375 C2374 1.386 . S
C2375 C2379 1.393 . S
C2376 H2365 0.950 . S
C2376 C2374 1.391 . S
C2376 C2377 1.400 . S
C2377 C2371 1.491 . S
C2377 C2376 1.400 . S
C2377 C2378 1.398 . S
C2378 H2366 0.950 . S
C2378 C2377 1.398 . S
C2378 C2379 1.391 . S
C2379 H2367 0.950 . S
C2379 C2375 1.393 . S
C2379 C2378 1.391 . S
H2380 C2388 0.998 . S
H2381 C2393 0.950 . S
H2382 C2390 0.950 . S
H2383 C2392 0.950 . S
H2384 C2394 0.998 . S
H2385 C2396 0.950 . S
H2386 C2398 0.950 . S
H2387 C2399 0.950 . S
C2388 H2380 0.998 . S
C2388 C2389 1.314 1_554 S
C2388 C2390 1.419 . S
C2389 C2388 1.314 1_556 S
C2389 C2393 1.393 1_545 S
C2390 H2382 0.950 . S
C2390 C2388 1.419 . S
C2390 C2391 1.400 1_554 S
C2391 C2390 1.400 1_556 S
C2391 C2392 1.398 1_545 S
C2391 C2397 1.491 1_446 S
C2392 H2383 0.950 . S
C2392 C2391 1.398 1_565 S
C2392 C2393 1.391 . S
C2393 H2381 0.950 . S
C2393 C2389 1.393 1_565 S
C2393 C2392 1.391 . S
C2394 H2384 0.998 . S
C2394 C2395 1.314 1_556 S
C2394 C2396 1.419 . S
C2395 C2394 1.314 1_554 S
C2395 C2399 1.393 1_565 S
C2396 H2385 0.950 . S
C2396 C2394 1.419 . S
C2396 C2397 1.400 1_556 S
C2397 C2391 1.491 1_664 S
C2397 C2396 1.400 1_554 S
C2397 C2398 1.398 1_565 S
C2398 H2386 0.950 . S
C2398 C2397 1.398 1_545 S
C2398 C2399 1.391 . S
C2399 H2387 0.950 . S
C2399 C2395 1.393 1_545 S
C2399 C2398 1.391 . S
H2400 C2408 0.950 . S
H2401 C2413 0.950 . S
H2402 C2410 0.950 . S
H2403 C2412 0.950 . S
H2404 C2414 0.950 . S
H2405 C2416 0.950 . S
H2406 C2418 0.950 . S
H2407 C2419 0.950 . S
C2408 H2400 0.950 . S
C2408 C2409 1.386 . S
C2408 C2410 1.391 . S
C2409 C2408 1.386 . S
C2409 C2413 1.393 . S
C2410 H2402 0.950 . S
C2410 C2408 1.391 . S
C2410 C2411 1.400 . S
C2411 C2410 1.400 . S
C2411 C2412 1.398 . S
C2411 C2417 1.491 . S
C2412 H2403 0.950 . S
C2412 C2411 1.398 . S
C2412 C2413 1.391 . S
C2413 H2401 0.950 . S
C2413 C2409 1.393 . S
C2413 C2412 1.391 . S
C2414 H2404 0.950 . S
C2414 C2415 1.386 . S
C2414 C2416 1.391 . S
C2415 C2414 1.386 . S
C2415 C2419 1.393 . S
C2416 H2405 0.950 . S
C2416 C2414 1.391 . S
C2416 C2417 1.400 . S
C2417 C2411 1.491 . S
C2417 C2416 1.400 . S
C2417 C2418 1.398 . S
C2418 H2406 0.950 . S
C2418 C2417 1.398 . S
C2418 C2419 1.391 . S
C2419 H2407 0.950 . S
C2419 C2415 1.393 . S
C2419 C2418 1.391 . S
H2420 C2428 0.950 . S
H2421 C2433 0.950 . S
H2422 C2430 0.950 . S
H2423 C2432 0.950 . S
H2424 C2434 0.950 . S
H2425 C2436 0.950 . S
H2426 C2438 0.950 . S
H2427 C2439 0.950 . S
C2428 H2420 0.950 . S
C2428 C2429 1.386 . S
C2428 C2430 1.391 . S
C2429 C2428 1.386 . S
C2429 C2433 1.393 . S
C2430 H2422 0.950 . S
C2430 C2428 1.391 . S
C2430 C2431 1.400 . S
C2431 C2430 1.400 . S
C2431 C2432 1.398 . S
C2431 C2437 1.491 . S
C2432 H2423 0.950 . S
C2432 C2431 1.398 . S
C2432 C2433 1.391 . S
C2433 H2421 0.950 . S
C2433 C2429 1.393 . S
C2433 C2432 1.391 . S
C2434 H2424 0.950 . S
C2434 C2435 1.386 . S
C2434 C2436 1.391 . S
C2435 C2434 1.386 . S
C2435 C2439 1.393 . S
C2436 H2425 0.950 . S
C2436 C2434 1.391 . S
C2436 C2437 1.400 . S
C2437 C2431 1.491 . S
C2437 C2436 1.400 . S
C2437 C2438 1.398 . S
C2438 H2426 0.950 . S
C2438 C2437 1.398 . S
C2438 C2439 1.391 . S
C2439 H2427 0.950 . S
C2439 C2435 1.393 . S
C2439 C2438 1.391 . S
H2440 C2448 0.950 . S
H2441 C2453 0.950 . S
H2442 C2450 0.950 . S
H2443 C2452 0.950 . S
H2444 C2454 0.950 . S
H2445 C2456 0.950 . S
H2446 C2458 0.950 . S
H2447 C2459 0.950 . S
C2448 H2440 0.950 . S
C2448 C2449 1.386 . S
C2448 C2450 1.391 . S
C2449 C2448 1.386 . S
C2449 C2453 1.393 . S
C2450 H2442 0.950 . S
C2450 C2448 1.391 . S
C2450 C2451 1.400 . S
C2451 C2450 1.400 . S
C2451 C2452 1.398 . S
C2451 C2457 1.491 . S
C2452 H2443 0.950 . S
C2452 C2451 1.398 . S
C2452 C2453 1.391 . S
C2453 H2441 0.950 . S
C2453 C2449 1.393 . S
C2453 C2452 1.391 . S
C2454 H2444 0.950 . S
C2454 C2455 1.386 . S
C2454 C2456 1.391 . S
C2455 C2454 1.386 . S
C2455 C2459 1.393 . S
C2456 H2445 0.950 . S
C2456 C2454 1.391 . S
C2456 C2457 1.400 . S
C2457 C2451 1.491 . S
C2457 C2456 1.400 . S
C2457 C2458 1.398 . S
C2458 H2446 0.950 . S
C2458 C2457 1.398 . S
C2458 C2459 1.391 . S
C2459 H2447 0.950 . S
C2459 C2455 1.393 . S
C2459 C2458 1.391 . S
H2460 C2468 0.950 . S
H2461 C2473 0.950 . S
H2462 C2470 0.950 . S
H2463 C2472 0.950 . S
H2464 C2474 0.950 . S
H2465 C2476 0.950 . S
H2466 C2478 0.950 . S
H2467 C2479 0.950 . S
C2468 H2460 0.950 . S
C2468 C2469 1.386 . S
C2468 C2470 1.391 . S
C2469 C2468 1.386 . S
C2469 C2473 1.393 . S
C2470 H2462 0.950 . S
C2470 C2468 1.391 . S
C2470 C2471 1.400 . S
C2471 C2470 1.400 . S
C2471 C2472 1.398 . S
C2471 C2477 1.491 . S
C2472 H2463 0.950 . S
C2472 C2471 1.398 . S
C2472 C2473 1.391 . S
C2473 H2461 0.950 . S
C2473 C2469 1.393 . S
C2473 C2472 1.391 . S
C2474 H2464 0.950 . S
C2474 C2475 1.386 . S
C2474 C2476 1.391 . S
C2475 C2474 1.386 . S
C2475 C2479 1.393 . S
C2476 H2465 0.950 . S
C2476 C2474 1.391 . S
C2476 C2477 1.400 . S
C2477 C2471 1.491 . S
C2477 C2476 1.400 . S
C2477 C2478 1.398 . S
C2478 H2466 0.950 . S
C2478 C2477 1.398 . S
C2478 C2479 1.391 . S
C2479 H2467 0.950 . S
C2479 C2475 1.393 . S
C2479 C2478 1.391 . S
H2480 C2488 0.950 . S
H2481 C2493 0.919 1_556 S
H2482 C2490 0.950 . S
H2483 C2492 0.950 . S
H2484 C2494 0.950 . S
H2485 C2496 0.950 . S
H2486 C2498 0.950 . S
H2487 C2499 0.919 1_554 S
C2488 H2480 0.950 . S
C2488 C2489 1.386 . S
C2488 C2490 1.391 . S
C2489 C2488 1.386 . S
C2489 C2493 1.447 . S
C2490 H2482 0.950 . S
C2490 C2488 1.391 . S
C2490 C2491 1.400 . S
C2491 C2490 1.400 . S
C2491 C2492 1.398 1_554 S
C2491 C2497 1.491 1_554 S
C2492 H2483 0.950 . S
C2492 C2491 1.398 1_556 S
C2492 C2493 1.371 1_556 S
C2493 H2481 0.919 1_554 S
C2493 C2489 1.447 . S
C2493 C2492 1.371 1_554 S
C2494 H2484 0.950 . S
C2494 C2495 1.386 . S
C2494 C2496 1.391 . S
C2495 C2494 1.386 . S
C2495 C2499 1.447 . S
C2496 H2485 0.950 . S
C2496 C2494 1.391 . S
C2496 C2497 1.400 . S
C2497 C2491 1.491 1_556 S
C2497 C2496 1.400 . S
C2497 C2498 1.398 1_556 S
C2498 H2486 0.950 . S
C2498 C2497 1.398 1_554 S
C2498 C2499 1.371 1_554 S
C2499 H2487 0.919 1_556 S
C2499 C2495 1.447 . S
C2499 C2498 1.371 1_556 S
H2500 C2508 0.950 . S
H2501 C2513 0.950 . S
H2502 C2510 0.950 . S
H2503 C2512 0.950 . S
H2504 C2514 0.950 . S
H2505 C2516 0.950 . S
H2506 C2518 0.950 . S
H2507 C2519 0.950 . S
C2508 H2500 0.950 . S
C2508 C2509 1.386 . S
C2508 C2510 1.391 . S
C2509 C2508 1.386 . S
C2509 C2513 1.393 . S
C2510 H2502 0.950 . S
C2510 C2508 1.391 . S
C2510 C2511 1.400 . S
C2511 C2510 1.400 . S
C2511 C2512 1.398 . S
C2511 C2517 1.491 1_655 S
C2512 H2503 0.950 . S
C2512 C2511 1.398 . S
C2512 C2513 1.391 . S
C2513 H2501 0.950 . S
C2513 C2509 1.393 . S
C2513 C2512 1.391 . S
C2514 H2504 0.950 . S
C2514 C2515 1.386 . S
C2514 C2516 1.391 . S
C2515 C2514 1.386 . S
C2515 C2519 1.393 . S
C2516 H2505 0.950 . S
C2516 C2514 1.391 . S
C2516 C2517 1.400 . S
C2517 C2511 1.491 1_455 S
C2517 C2516 1.400 . S
C2517 C2518 1.398 . S
C2518 H2506 0.950 . S
C2518 C2517 1.398 . S
C2518 C2519 1.391 . S
C2519 H2507 0.950 . S
C2519 C2515 1.393 . S
C2519 C2518 1.391 . S
H2520 C2528 0.950 . S
H2521 C2533 0.950 . S
H2522 C2530 0.950 . S
H2523 C2532 0.979 . S
H2524 C2534 0.950 . S
H2525 C2536 0.950 . S
H2526 C2538 0.979 . S
H2527 C2539 0.950 . S
C2528 H2520 0.950 . S
C2528 C2529 1.386 . S
C2528 C2530 1.391 . S
C2529 C2528 1.386 . S
C2529 C2533 1.393 . S
C2530 H2522 0.950 . S
C2530 C2528 1.391 . S
C2530 C2531 1.400 . S
C2531 C2530 1.400 . S
C2531 C2532 1.387 1_554 S
C2531 C2537 1.491 1_454 S
C2532 H2523 0.979 . S
C2532 C2531 1.387 1_556 S
C2532 C2533 1.375 1_556 S
C2533 H2521 0.950 . S
C2533 C2529 1.393 . S
C2533 C2532 1.375 1_554 S
C2534 H2524 0.950 . S
C2534 C2535 1.386 . S
C2534 C2536 1.391 . S
C2535 C2534 1.386 . S
C2535 C2539 1.393 . S
C2536 H2525 0.950 . S
C2536 C2534 1.391 . S
C2536 C2537 1.400 . S
C2537 C2531 1.491 1_656 S
C2537 C2536 1.400 . S
C2537 C2538 1.387 1_556 S
C2538 H2526 0.979 . S
C2538 C2537 1.387 1_554 S
C2538 C2539 1.375 1_554 S
C2539 H2527 0.950 . S
C2539 C2535 1.393 . S
C2539 C2538 1.375 1_556 S
H2540 C2548 0.950 . S
H2541 C2553 0.950 . S
H2542 C2550 0.950 . S
H2543 C2552 0.950 . S
H2544 C2554 0.950 . S
H2545 C2556 0.950 . S
H2546 C2558 0.950 . S
H2547 C2559 0.950 . S
C2548 H2540 0.950 . S
C2548 C2549 1.386 . S
C2548 C2550 1.391 . S
C2549 C2548 1.386 . S
C2549 C2553 1.393 . S
C2550 H2542 0.950 . S
C2550 C2548 1.391 . S
C2550 C2551 1.400 . S
C2551 C2550 1.400 . S
C2551 C2552 1.398 . S
C2551 C2557 1.491 . S
C2552 H2543 0.950 . S
C2552 C2551 1.398 . S
C2552 C2553 1.391 . S
C2553 H2541 0.950 . S
C2553 C2549 1.393 . S
C2553 C2552 1.391 . S
C2554 H2544 0.950 . S
C2554 C2555 1.386 . S
C2554 C2556 1.391 . S
C2555 C2554 1.386 . S
C2555 C2559 1.393 . S
C2556 H2545 0.950 . S
C2556 C2554 1.391 . S
C2556 C2557 1.400 . S
C2557 C2551 1.491 . S
C2557 C2556 1.400 . S
C2557 C2558 1.398 . S
C2558 H2546 0.950 . S
C2558 C2557 1.398 . S
C2558 C2559 1.391 . S
C2559 H2547 0.950 . S
C2559 C2555 1.393 . S
C2559 C2558 1.391 . S
H2560 C2568 0.950 . S
H2561 C2573 0.950 . S
H2562 C2570 0.950 . S
H2563 C2572 0.950 . S
H2564 C2574 0.950 . S
H2565 C2576 0.950 1_545 S
H2566 C2578 0.950 . S
H2567 C2579 0.950 . S
C2568 H2560 0.950 . S
C2568 C2569 1.386 1_565 S
C2568 C2570 1.391 . S
C2569 C2568 1.386 1_545 S
C2569 C2573 1.393 . S
C2570 H2562 0.950 . S
C2570 C2568 1.391 . S
C2570 C2571 1.400 . S
C2571 C2570 1.400 . S
C2571 C2572 1.398 1_565 S
C2571 C2577 1.491 . S
C2572 H2563 0.950 . S
C2572 C2571 1.398 1_545 S
C2572 C2573 1.391 . S
C2573 H2561 0.950 . S
C2573 C2569 1.393 . S
C2573 C2572 1.391 . S
C2574 H2564 0.950 . S
C2574 C2575 1.386 . S
C2574 C2576 1.391 . S
C2575 C2574 1.386 . S
C2575 C2579 1.393 . S
C2576 H2565 0.950 1_565 S
C2576 C2574 1.391 . S
C2576 C2577 1.400 . S
C2577 C2571 1.491 . S
C2577 C2576 1.400 . S
C2577 C2578 1.398 . S
C2578 H2566 0.950 . S
C2578 C2577 1.398 . S
C2578 C2579 1.391 . S
C2579 H2567 0.950 . S
C2579 C2575 1.393 . S
C2579 C2578 1.391 . S
H2580 C2588 0.950 . S
H2581 C2593 0.950 . S
H2582 C2590 0.950 . S
H2583 C2592 0.950 . S
H2584 C2594 0.950 . S
H2585 C2596 0.950 . S
H2586 C2598 0.950 . S
H2587 C2599 0.950 . S
C2588 H2580 0.950 . S
C2588 C2589 1.386 . S
C2588 C2590 1.391 . S
C2589 C2588 1.386 . S
C2589 C2593 1.393 . S
C2590 H2582 0.950 . S
C2590 C2588 1.391 . S
C2590 C2591 1.400 1_545 S
C2591 C2590 1.400 1_565 S
C2591 C2592 1.398 . S
C2591 C2597 1.491 . S
C2592 H2583 0.950 . S
C2592 C2591 1.398 . S
C2592 C2593 1.391 1_565 S
C2593 H2581 0.950 . S
C2593 C2589 1.393 . S
C2593 C2592 1.391 1_545 S
C2594 H2584 0.950 . S
C2594 C2595 1.386 . S
C2594 C2596 1.391 . S
C2595 C2594 1.386 . S
C2595 C2599 1.393 . S
C2596 H2585 0.950 . S
C2596 C2594 1.391 . S
C2596 C2597 1.400 . S
C2597 C2591 1.491 . S
C2597 C2596 1.400 . S
C2597 C2598 1.398 . S
C2598 H2586 0.950 . S
C2598 C2597 1.398 . S
C2598 C2599 1.391 . S
C2599 H2587 0.950 . S
C2599 C2595 1.393 . S
C2599 C2598 1.391 . S
H2600 C2608 0.950 . S
H2601 C2613 0.950 . S
H2602 C2610 0.933 1_565 S
H2603 C2612 0.950 . S
H2604 C2614 0.950 1_545 S
H2605 C2616 0.950 . S
H2606 C2618 0.950 . S
H2607 C2619 0.950 . S
C2608 H2600 0.950 . S
C2608 C2609 1.386 . S
C2608 C2610 1.391 . S
C2609 C2608 1.386 . S
C2609 C2613 1.393 . S
C2610 H2602 0.933 1_545 S
C2610 C2608 1.391 . S
C2610 C2611 1.400 . S
C2611 C2610 1.400 . S
C2611 C2612 1.398 . S
C2611 C2617 1.491 . S
C2612 H2603 0.950 . S
C2612 C2611 1.398 . S
C2612 C2613 1.391 . S
C2613 H2601 0.950 . S
C2613 C2609 1.393 . S
C2613 C2612 1.391 . S
C2614 H2604 0.950 1_565 S
C2614 C2615 1.386 . S
C2614 C2616 1.391 1_565 S
C2615 C2614 1.386 . S
C2615 C2619 1.393 . S
C2616 H2605 0.950 . S
C2616 C2614 1.391 1_545 S
C2616 C2617 1.400 . S
C2617 C2611 1.491 . S
C2617 C2616 1.400 . S
C2617 C2618 1.398 1_545 S
C2618 H2606 0.950 . S
C2618 C2617 1.398 1_565 S
C2618 C2619 1.391 . S
C2619 H2607 0.950 . S
C2619 C2615 1.393 . S
C2619 C2618 1.391 . S
H2620 C2628 0.950 1_545 S
H2621 C2633 0.950 . S
H2622 C2630 0.950 . S
H2623 C2632 0.950 . S
H2624 C2634 0.950 . S
H2625 C2636 0.950 1_565 S
H2626 C2638 0.950 . S
H2627 C2639 0.950 . S
C2628 H2620 0.950 1_565 S
C2628 C2629 1.386 . S
C2628 C2630 1.391 1_565 S
C2629 C2628 1.386 . S
C2629 C2633 1.393 . S
C2630 H2622 0.950 . S
C2630 C2628 1.391 1_545 S
C2630 C2631 1.400 . S
C2631 C2630 1.400 . S
C2631 C2632 1.398 1_545 S
C2631 C2637 1.491 . S
C2632 H2623 0.950 . S
C2632 C2631 1.398 1_565 S
C2632 C2633 1.391 . S
C2633 H2621 0.950 . S
C2633 C2629 1.393 . S
C2633 C2632 1.391 . S
C2634 H2624 0.950 . S
C2634 C2635 1.386 . S
C2634 C2636 1.391 . S
C2635 C2634 1.386 . S
C2635 C2639 1.393 . S
C2636 H2625 0.950 1_545 S
C2636 C2634 1.391 . S
C2636 C2637 1.400 . S
C2637 C2631 1.491 . S
C2637 C2636 1.400 . S
C2637 C2638 1.398 . S
C2638 H2626 0.950 . S
C2638 C2637 1.398 . S
C2638 C2639 1.391 . S
C2639 H2627 0.950 . S
C2639 C2635 1.393 . S
C2639 C2638 1.391 . S
H2640 C2648 0.950 . S
H2641 C2653 0.950 1_545 S
H2642 C2650 0.950 . S
H2643 C2652 0.950 . S
H2644 C2654 0.950 . S
H2645 C2656 0.950 . S
H2646 C2658 0.950 1_565 S
H2647 C2659 0.950 . S
C2648 H2640 0.950 . S
C2648 C2649 1.386 . S
C2648 C2650 1.391 . S
C2649 C2648 1.386 . S
C2649 C2653 1.393 . S
C2650 H2642 0.950 . S
C2650 C2648 1.391 . S
C2650 C2651 1.400 1_565 S
C2651 C2650 1.400 1_545 S
C2651 C2652 1.398 . S
C2651 C2657 1.491 . S
C2652 H2643 0.950 . S
C2652 C2651 1.398 . S
C2652 C2653 1.391 1_545 S
C2653 H2641 0.950 1_565 S
C2653 C2649 1.393 . S
C2653 C2652 1.391 1_565 S
C2654 H2644 0.950 . S
C2654 C2655 1.386 . S
C2654 C2656 1.391 . S
C2655 C2654 1.386 . S
C2655 C2659 1.393 . S
C2656 H2645 0.950 . S
C2656 C2654 1.391 . S
C2656 C2657 1.400 . S
C2657 C2651 1.491 . S
C2657 C2656 1.400 . S
C2657 C2658 1.398 . S
C2658 H2646 0.950 1_545 S
C2658 C2657 1.398 . S
C2658 C2659 1.391 . S
C2659 H2647 0.950 . S
C2659 C2655 1.393 . S
C2659 C2658 1.391 . S
H2660 C2668 0.950 . S
H2661 C2673 0.950 . S
H2662 C2670 0.950 . S
H2663 C2672 0.950 . S
H2664 C2674 0.950 . S
H2665 C2676 0.950 . S
H2666 C2678 0.950 . S
H2667 C2679 0.950 . S
C2668 H2660 0.950 . S
C2668 C2669 1.386 . S
C2668 C2670 1.391 . S
C2669 C2668 1.386 . S
C2669 C2673 1.393 . S
C2670 H2662 0.950 . S
C2670 C2668 1.391 . S
C2670 C2671 1.400 . S
C2671 C2670 1.400 . S
C2671 C2672 1.398 . S
C2671 C2677 1.491 . S
C2672 H2663 0.950 . S
C2672 C2671 1.398 . S
C2672 C2673 1.391 . S
C2673 H2661 0.950 . S
C2673 C2669 1.393 . S
C2673 C2672 1.391 . S
C2674 H2664 0.950 . S
C2674 C2675 1.386 . S
C2674 C2676 1.391 . S
C2675 C2674 1.386 . S
C2675 C2679 1.393 . S
C2676 H2665 0.950 . S
C2676 C2674 1.391 . S
C2676 C2677 1.400 1_565 S
C2677 C2671 1.491 . S
C2677 C2676 1.400 1_545 S
C2677 C2678 1.398 . S
C2678 H2666 0.950 . S
C2678 C2677 1.398 . S
C2678 C2679 1.391 1_545 S
C2679 H2667 0.950 . S
C2679 C2675 1.393 . S
C2679 C2678 1.391 1_565 S
H2680 C2688 0.950 . S
H2681 C2693 0.950 . S
H2682 C2690 0.950 1_545 S
H2683 C2692 0.950 . S
H2684 C2694 0.950 . S
H2685 C2696 0.950 . S
H2686 C2698 0.950 . S
H2687 C2699 0.950 . S
C2688 H2680 0.950 . S
C2688 C2689 1.386 . S
C2688 C2690 1.391 . S
C2689 C2688 1.386 . S
C2689 C2693 1.393 . S
C2690 H2682 0.950 1_565 S
C2690 C2688 1.391 . S
C2690 C2691 1.400 . S
C2691 C2690 1.400 . S
C2691 C2692 1.398 . S
C2691 C2697 1.491 . S
C2692 H2683 0.950 . S
C2692 C2691 1.398 . S
C2692 C2693 1.391 . S
C2693 H2681 0.950 . S
C2693 C2689 1.393 . S
C2693 C2692 1.391 . S
C2694 H2684 0.950 . S
C2694 C2695 1.386 1_565 S
C2694 C2696 1.391 . S
C2695 C2694 1.386 1_545 S
C2695 C2699 1.393 . S
C2696 H2685 0.950 . S
C2696 C2694 1.391 . S
C2696 C2697 1.400 . S
C2697 C2691 1.491 . S
C2697 C2696 1.400 . S
C2697 C2698 1.398 1_565 S
C2698 H2686 0.950 . S
C2698 C2697 1.398 1_545 S
C2698 C2699 1.391 . S
C2699 H2687 0.950 . S
C2699 C2695 1.393 . S
C2699 C2698 1.391 . S
H2700 C2708 0.950 . S
H2701 C2713 0.950 . S
H2702 C2710 0.950 . S
H2703 C2712 0.950 1_545 S
H2704 C2714 0.950 . S
H2705 C2716 0.950 . S
H2706 C2718 0.950 . S
H2707 C2719 0.950 . S
C2708 H2700 0.950 . S
C2708 C2709 1.386 . S
C2708 C2710 1.391 . S
C2709 C2708 1.386 . S
C2709 C2713 1.393 . S
C2710 H2702 0.950 . S
C2710 C2708 1.391 . S
C2710 C2711 1.400 . S
C2711 C2710 1.400 . S
C2711 C2712 1.398 . S
C2711 C2717 1.491 . S
C2712 H2703 0.950 1_565 S
C2712 C2711 1.398 . S
C2712 C2713 1.391 . S
C2713 H2701 0.950 . S
C2713 C2709 1.393 . S
C2713 C2712 1.391 . S
C2714 H2704 0.950 . S
C2714 C2715 1.386 . S
C2714 C2716 1.391 . S
C2715 C2714 1.386 . S
C2715 C2719 1.393 1_545 S
C2716 H2705 0.950 . S
C2716 C2714 1.391 . S
C2716 C2717 1.400 1_545 S
C2717 C2711 1.491 . S
C2717 C2716 1.400 1_565 S
C2717 C2718 1.398 . S
C2718 H2706 0.950 . S
C2718 C2717 1.398 . S
C2718 C2719 1.391 . S
C2719 H2707 0.950 . S
C2719 C2715 1.393 1_565 S
C2719 C2718 1.391 . S
H2720 C2728 0.950 . S
H2721 C2733 0.950 . S
H2722 C2730 0.950 . S
H2723 C2732 0.950 . S
H2724 C2734 0.950 . S
H2725 C2736 0.950 . S
H2726 C2738 0.950 . S
H2727 C2739 0.950 . S
C2728 H2720 0.950 . S
C2728 C2729 1.386 . S
C2728 C2730 1.391 . S
C2729 C2728 1.386 . S
C2729 C2733 1.393 . S
C2730 H2722 0.950 . S
C2730 C2728 1.391 . S
C2730 C2731 1.400 . S
C2731 C2730 1.400 . S
C2731 C2732 1.398 . S
C2731 C2737 1.491 . S
C2732 H2723 0.950 . S
C2732 C2731 1.398 . S
C2732 C2733 1.391 . S
C2733 H2721 0.950 . S
C2733 C2729 1.393 . S
C2733 C2732 1.391 . S
C2734 H2724 0.950 . S
C2734 C2735 1.386 . S
C2734 C2736 1.391 . S
C2735 C2734 1.386 . S
C2735 C2739 1.393 . S
C2736 H2725 0.950 . S
C2736 C2734 1.391 . S
C2736 C2737 1.400 . S
C2737 C2731 1.491 . S
C2737 C2736 1.400 . S
C2737 C2738 1.398 . S
C2738 H2726 0.950 . S
C2738 C2737 1.398 . S
C2738 C2739 1.391 . S
C2739 H2727 0.950 . S
C2739 C2735 1.393 . S
C2739 C2738 1.391 . S
H2740 C2748 0.950 . S
H2741 C2753 0.950 . S
H2742 C2750 0.950 . S
H2743 C2752 0.950 . S
H2744 C2754 0.950 . S
H2745 C2756 0.950 . S
H2746 C2758 0.950 . S
H2747 C2759 0.950 . S
C2748 H2740 0.950 . S
C2748 C2749 1.386 . S
C2748 C2750 1.391 . S
C2749 C2748 1.386 . S
C2749 C2753 1.393 . S
C2750 H2742 0.950 . S
C2750 C2748 1.391 . S
C2750 C2751 1.400 . S
C2751 C2750 1.400 . S
C2751 C2752 1.398 . S
C2751 C2757 1.491 . S
C2752 H2743 0.950 . S
C2752 C2751 1.398 . S
C2752 C2753 1.391 . S
C2753 H2741 0.950 . S
C2753 C2749 1.393 . S
C2753 C2752 1.391 . S
C2754 H2744 0.950 . S
C2754 C2755 1.386 . S
C2754 C2756 1.391 . S
C2755 C2754 1.386 . S
C2755 C2759 1.393 . S
C2756 H2745 0.950 . S
C2756 C2754 1.391 . S
C2756 C2757 1.400 . S
C2757 C2751 1.491 . S
C2757 C2756 1.400 . S
C2757 C2758 1.398 . S
C2758 H2746 0.950 . S
C2758 C2757 1.398 . S
C2758 C2759 1.391 . S
C2759 H2747 0.950 . S
C2759 C2755 1.393 . S
C2759 C2758 1.391 . S
H2760 C2768 0.950 . S
H2761 C2773 0.950 . S
H2762 C2770 0.950 . S
H2763 C2772 0.950 . S
H2764 C2774 0.950 . S
H2765 C2776 0.950 . S
H2766 C2778 0.950 . S
H2767 C2779 0.950 . S
C2768 H2760 0.950 . S
C2768 C2769 1.386 . S
C2768 C2770 1.391 . S
C2769 C2768 1.386 . S
C2769 C2773 1.393 . S
C2770 H2762 0.950 . S
C2770 C2768 1.391 . S
C2770 C2771 1.400 . S
C2771 C2770 1.400 . S
C2771 C2772 1.398 . S
C2771 C2777 1.491 . S
C2772 H2763 0.950 . S
C2772 C2771 1.398 . S
C2772 C2773 1.391 . S
C2773 H2761 0.950 . S
C2773 C2769 1.393 . S
C2773 C2772 1.391 . S
C2774 H2764 0.950 . S
C2774 C2775 1.386 . S
C2774 C2776 1.391 . S
C2775 C2774 1.386 . S
C2775 C2779 1.393 . S
C2776 H2765 0.950 . S
C2776 C2774 1.391 . S
C2776 C2777 1.400 . S
C2777 C2771 1.491 . S
C2777 C2776 1.400 . S
C2777 C2778 1.398 . S
C2778 H2766 0.950 . S
C2778 C2777 1.398 . S
C2778 C2779 1.391 . S
C2779 H2767 0.950 . S
C2779 C2775 1.393 . S
C2779 C2778 1.391 . S
H2780 C2788 0.950 . S
H2781 C2793 0.950 . S
H2782 C2790 0.950 . S
H2783 C2792 0.950 . S
H2784 C2794 0.950 . S
H2785 C2796 0.950 . S
H2786 C2798 0.950 . S
H2787 C2799 0.950 . S
C2788 H2780 0.950 . S
C2788 C2789 1.386 . S
C2788 C2790 1.391 . S
C2789 C2788 1.386 . S
C2789 C2793 1.393 . S
C2790 H2782 0.950 . S
C2790 C2788 1.391 . S
C2790 C2791 1.400 . S
C2791 C2790 1.400 . S
C2791 C2792 1.398 . S
C2791 C2797 1.491 . S
C2792 H2783 0.950 . S
C2792 C2791 1.398 . S
C2792 C2793 1.391 . S
C2793 H2781 0.950 . S
C2793 C2789 1.393 . S
C2793 C2792 1.391 . S
C2794 H2784 0.950 . S
C2794 C2795 1.386 . S
C2794 C2796 1.391 . S
C2795 C2794 1.386 . S
C2795 C2799 1.393 . S
C2796 H2785 0.950 . S
C2796 C2794 1.391 . S
C2796 C2797 1.400 . S
C2797 C2791 1.491 . S
C2797 C2796 1.400 . S
C2797 C2798 1.398 . S
C2798 H2786 0.950 . S
C2798 C2797 1.398 . S
C2798 C2799 1.391 . S
C2799 H2787 0.950 . S
C2799 C2795 1.393 . S
C2799 C2798 1.391 . S
H2800 C2808 0.950 . S
H2801 C2813 0.950 . S
H2802 C2810 0.950 . S
H2803 C2812 0.950 . S
H2804 C2814 0.950 . S
H2805 C2816 0.950 . S
H2806 C2818 0.950 . S
H2807 C2819 0.950 . S
C2808 H2800 0.950 . S
C2808 C2809 1.386 . S
C2808 C2810 1.391 . S
C2809 C2808 1.386 . S
C2809 C2813 1.393 . S
C2810 H2802 0.950 . S
C2810 C2808 1.391 . S
C2810 C2811 1.400 . S
C2811 C2810 1.400 . S
C2811 C2812 1.398 . S
C2811 C2817 1.491 . S
C2812 H2803 0.950 . S
C2812 C2811 1.398 . S
C2812 C2813 1.391 . S
C2813 H2801 0.950 . S
C2813 C2809 1.393 . S
C2813 C2812 1.391 . S
C2814 H2804 0.950 . S
C2814 C2815 1.386 . S
C2814 C2816 1.391 . S
C2815 C2814 1.386 . S
C2815 C2819 1.393 . S
C2816 H2805 0.950 . S
C2816 C2814 1.391 . S
C2816 C2817 1.400 . S
C2817 C2811 1.491 . S
C2817 C2816 1.400 . S
C2817 C2818 1.398 . S
C2818 H2806 0.950 . S
C2818 C2817 1.398 . S
C2818 C2819 1.391 . S
C2819 H2807 0.950 . S
C2819 C2815 1.393 . S
C2819 C2818 1.391 . S
H2820 C2828 0.950 . S
H2821 C2833 0.950 . S
H2822 C2830 0.950 . S
H2823 C2832 0.950 . S
H2824 C2834 0.950 . S
H2825 C2836 0.950 . S
H2826 C2838 0.950 . S
H2827 C2839 0.950 . S
C2828 H2820 0.950 . S
C2828 C2829 1.386 . S
C2828 C2830 1.391 . S
C2829 C2828 1.386 . S
C2829 C2833 1.393 . S
C2830 H2822 0.950 . S
C2830 C2828 1.391 . S
C2830 C2831 1.400 . S
C2831 C2830 1.400 . S
C2831 C2832 1.398 . S
C2831 C2837 1.491 . S
C2832 H2823 0.950 . S
C2832 C2831 1.398 . S
C2832 C2833 1.391 . S
C2833 H2821 0.950 . S
C2833 C2829 1.393 . S
C2833 C2832 1.391 . S
C2834 H2824 0.950 . S
C2834 C2835 1.386 . S
C2834 C2836 1.391 . S
C2835 C2834 1.386 . S
C2835 C2839 1.393 . S
C2836 H2825 0.950 . S
C2836 C2834 1.391 . S
C2836 C2837 1.400 . S
C2837 C2831 1.491 . S
C2837 C2836 1.400 . S
C2837 C2838 1.398 . S
C2838 H2826 0.950 . S
C2838 C2837 1.398 . S
C2838 C2839 1.391 . S
C2839 H2827 0.950 . S
C2839 C2835 1.393 . S
C2839 C2838 1.391 . S
H2840 C2848 0.950 . S
H2841 C2853 0.950 . S
H2842 C2850 0.950 . S
H2843 C2852 0.950 . S
H2844 C2854 0.950 . S
H2845 C2856 0.950 . S
H2846 C2858 0.950 . S
H2847 C2859 0.950 . S
C2848 H2840 0.950 . S
C2848 C2849 1.386 . S
C2848 C2850 1.391 . S
C2849 C2848 1.386 . S
C2849 C2853 1.393 . S
C2850 H2842 0.950 . S
C2850 C2848 1.391 . S
C2850 C2851 1.400 . S
C2851 C2850 1.400 . S
C2851 C2852 1.398 . S
C2851 C2857 1.491 . S
C2852 H2843 0.950 . S
C2852 C2851 1.398 . S
C2852 C2853 1.391 . S
C2853 H2841 0.950 . S
C2853 C2849 1.393 . S
C2853 C2852 1.391 . S
C2854 H2844 0.950 . S
C2854 C2855 1.386 . S
C2854 C2856 1.391 . S
C2855 C2854 1.386 . S
C2855 C2859 1.393 . S
C2856 H2845 0.950 . S
C2856 C2854 1.391 . S
C2856 C2857 1.400 . S
C2857 C2851 1.491 . S
C2857 C2856 1.400 . S
C2857 C2858 1.398 . S
C2858 H2846 0.950 . S
C2858 C2857 1.398 . S
C2858 C2859 1.391 . S
C2859 H2847 0.950 . S
C2859 C2855 1.393 . S
C2859 C2858 1.391 . S
H2860 C2868 0.950 . S
H2861 C2873 0.950 . S
H2862 C2870 0.950 . S
H2863 C2872 0.950 . S
H2864 C2874 0.950 . S
H2865 C2876 0.950 . S
H2866 C2878 0.950 . S
H2867 C2879 0.950 . S
C2868 H2860 0.950 . S
C2868 C2869 1.386 . S
C2868 C2870 1.391 . S
C2869 C2868 1.386 . S
C2869 C2873 1.393 . S
C2870 H2862 0.950 . S
C2870 C2868 1.391 . S
C2870 C2871 1.400 . S
C2871 C2870 1.400 . S
C2871 C2872 1.398 . S
C2871 C2877 1.491 . S
C2872 H2863 0.950 . S
C2872 C2871 1.398 . S
C2872 C2873 1.391 . S
C2873 H2861 0.950 . S
C2873 C2869 1.393 . S
C2873 C2872 1.391 . S
C2874 H2864 0.950 . S
C2874 C2875 1.386 . S
C2874 C2876 1.391 . S
C2875 C2874 1.386 . S
C2875 C2879 1.393 . S
C2876 H2865 0.950 . S
C2876 C2874 1.391 . S
C2876 C2877 1.400 . S
C2877 C2871 1.491 . S
C2877 C2876 1.400 . S
C2877 C2878 1.398 . S
C2878 H2866 0.950 . S
C2878 C2877 1.398 . S
C2878 C2879 1.391 . S
C2879 H2867 0.950 . S
C2879 C2875 1.393 . S
C2879 C2878 1.391 . S
H2880 C2888 0.950 . S
H2881 C2893 0.950 . S
H2882 C2890 0.950 . S
H2883 C2892 0.950 1_565 S
H2884 C2894 0.950 . S
H2885 C2896 0.950 . S
H2886 C2898 0.950 1_545 S
H2887 C2899 0.950 . S
C2888 H2880 0.950 . S
C2888 C2889 1.386 . S
C2888 C2890 1.391 . S
C2889 C2888 1.386 . S
C2889 C2893 1.393 . S
C2890 H2882 0.950 . S
C2890 C2888 1.391 . S
C2890 C2891 1.400 . S
C2891 C2890 1.400 . S
C2891 C2892 1.398 . S
C2891 C2897 1.491 1_545 S
C2892 H2883 0.950 1_545 S
C2892 C2891 1.398 . S
C2892 C2893 1.391 . S
C2893 H2881 0.950 . S
C2893 C2889 1.393 . S
C2893 C2892 1.391 . S
C2894 H2884 0.950 . S
C2894 C2895 1.386 . S
C2894 C2896 1.391 . S
C2895 C2894 1.386 . S
C2895 C2899 1.393 . S
C2896 H2885 0.950 . S
C2896 C2894 1.391 . S
C2896 C2897 1.400 . S
C2897 C2891 1.491 1_565 S
C2897 C2896 1.400 . S
C2897 C2898 1.398 . S
C2898 H2886 0.950 1_565 S
C2898 C2897 1.398 . S
C2898 C2899 1.391 . S
C2899 H2887 0.950 . S
C2899 C2895 1.393 . S
C2899 C2898 1.391 . S
H2900 C2908 0.950 . S
H2901 C2913 0.950 . S
H2902 C2910 0.950 . S
H2903 C2912 0.950 . S
H2904 C2914 0.950 . S
H2905 C2916 0.950 . S
H2906 C2918 0.950 . S
H2907 C2919 0.950 . S
C2908 H2900 0.950 . S
C2908 C2909 1.386 . S
C2908 C2910 1.391 . S
C2909 C2908 1.386 . S
C2909 C2913 1.393 . S
C2910 H2902 0.950 . S
C2910 C2908 1.391 . S
C2910 C2911 1.400 . S
C2911 C2910 1.400 . S
C2911 C2912 1.398 . S
C2911 C2917 1.491 . S
C2912 H2903 0.950 . S
C2912 C2911 1.398 . S
C2912 C2913 1.391 . S
C2913 H2901 0.950 . S
C2913 C2909 1.393 . S
C2913 C2912 1.391 . S
C2914 H2904 0.950 . S
C2914 C2915 1.386 . S
C2914 C2916 1.391 . S
C2915 C2914 1.386 . S
C2915 C2919 1.393 . S
C2916 H2905 0.950 . S
C2916 C2914 1.391 . S
C2916 C2917 1.400 . S
C2917 C2911 1.491 . S
C2917 C2916 1.400 . S
C2917 C2918 1.398 . S
C2918 H2906 0.950 . S
C2918 C2917 1.398 . S
C2918 C2919 1.391 . S
C2919 H2907 0.950 . S
C2919 C2915 1.393 . S
C2919 C2918 1.391 . S
H2920 C2928 0.950 . S
H2921 C2933 0.950 1_565 S
H2922 C2930 0.950 . S
H2923 C2932 0.950 . S
H2924 C2934 0.950 . S
H2925 C2936 0.950 . S
H2926 C2938 0.950 . S
H2927 C2939 0.950 1_545 S
C2928 H2920 0.950 . S
C2928 C2929 1.386 . S
C2928 C2930 1.391 . S
C2929 C2928 1.386 . S
C2929 C2933 1.393 . S
C2930 H2922 0.950 . S
C2930 C2928 1.391 . S
C2930 C2931 1.400 . S
C2931 C2930 1.400 . S
C2931 C2932 1.398 1_545 S
C2931 C2937 1.491 1_545 S
C2932 H2923 0.950 . S
C2932 C2931 1.398 1_565 S
C2932 C2933 1.391 1_565 S
C2933 H2921 0.950 1_545 S
C2933 C2929 1.393 . S
C2933 C2932 1.391 1_545 S
C2934 H2924 0.950 . S
C2934 C2935 1.386 . S
C2934 C2936 1.391 . S
C2935 C2934 1.386 . S
C2935 C2939 1.393 . S
C2936 H2925 0.950 . S
C2936 C2934 1.391 . S
C2936 C2937 1.400 . S
C2937 C2931 1.491 1_565 S
C2937 C2936 1.400 . S
C2937 C2938 1.398 1_565 S
C2938 H2926 0.950 . S
C2938 C2937 1.398 1_545 S
C2938 C2939 1.391 1_545 S
C2939 H2927 0.950 1_565 S
C2939 C2935 1.393 . S
C2939 C2938 1.391 1_565 S
H2940 C2948 0.950 . S
H2941 C2953 0.950 . S
H2942 C2950 0.982 . S
H2943 C2952 0.950 . S
H2944 C2954 0.950 . S
H2945 C2956 0.982 . S
H2946 C2958 0.950 . S
H2947 C2959 0.950 . S
C2948 H2940 0.950 . S
C2948 C2949 1.386 . S
C2948 C2950 1.391 . S
C2949 C2948 1.386 . S
C2949 C2953 1.393 . S
C2950 H2942 0.982 . S
C2950 C2948 1.391 . S
C2950 C2951 1.400 . S
C2951 C2950 1.400 . S
C2951 C2952 1.398 . S
C2951 C2957 1.491 1_556 S
C2952 H2943 0.950 . S
C2952 C2951 1.398 . S
C2952 C2953 1.391 . S
C2953 H2941 0.950 . S
C2953 C2949 1.393 . S
C2953 C2952 1.391 . S
C2954 H2944 0.950 . S
C2954 C2955 1.386 . S
C2954 C2956 1.391 . S
C2955 C2954 1.386 . S
C2955 C2959 1.393 . S
C2956 H2945 0.982 . S
C2956 C2954 1.391 . S
C2956 C2957 1.400 . S
C2957 C2951 1.491 1_554 S
C2957 C2956 1.400 . S
C2957 C2958 1.398 . S
C2958 H2946 0.950 . S
C2958 C2957 1.398 . S
C2958 C2959 1.391 . S
C2959 H2947 0.950 . S
C2959 C2955 1.393 . S
C2959 C2958 1.391 . S
H2960 C2968 0.950 . S
H2961 C2973 0.950 . S
H2962 C2970 0.950 . S
H2963 C2972 0.950 . S
H2964 C2974 0.950 . S
H2965 C2976 0.950 . S
H2966 C2978 0.950 . S
H2967 C2979 0.950 . S
C2968 H2960 0.950 . S
C2968 C2969 1.386 . S
C2968 C2970 1.391 1_565 S
C2969 C2968 1.386 . S
C2969 C2973 1.393 . S
C2970 H2962 0.950 . S
C2970 C2968 1.391 1_545 S
C2970 C2971 1.400 1_545 S
C2971 C2970 1.400 1_565 S
C2971 C2972 1.398 . S
C2971 C2977 1.491 1_565 S
C2972 H2963 0.950 . S
C2972 C2971 1.398 . S
C2972 C2973 1.391 . S
C2973 H2961 0.950 . S
C2973 C2969 1.393 . S
C2973 C2972 1.391 . S
C2974 H2964 0.950 . S
C2974 C2975 1.386 . S
C2974 C2976 1.391 1_545 S
C2975 C2974 1.386 . S
C2975 C2979 1.393 . S
C2976 H2965 0.950 . S
C2976 C2974 1.391 1_565 S
C2976 C2977 1.400 1_565 S
C2977 C2971 1.491 1_545 S
C2977 C2976 1.400 1_545 S
C2977 C2978 1.398 . S
C2978 H2966 0.950 . S
C2978 C2977 1.398 . S
C2978 C2979 1.391 . S
C2979 H2967 0.950 . S
C2979 C2975 1.393 . S
C2979 C2978 1.391 . S
H2980 C2988 0.950 . S
H2981 C2993 0.950 . S
H2982 C2990 0.950 . S
H2983 C2992 0.950 . S
H2984 C2994 0.950 . S
H2985 C2996 0.950 . S
H2986 C2998 0.950 . S
H2987 C2999 0.950 . S
C2988 H2980 0.950 . S
C2988 C2989 1.386 . S
C2988 C2990 1.391 . S
C2989 C2988 1.386 . S
C2989 C2993 1.393 . S
C2990 H2982 0.950 . S
C2990 C2988 1.391 . S
C2990 C2991 1.400 . S
C2991 C2990 1.400 . S
C2991 C2992 1.398 . S
C2991 C2997 1.491 . S
C2992 H2983 0.950 . S
C2992 C2991 1.398 . S
C2992 C2993 1.391 . S
C2993 H2981 0.950 . S
C2993 C2989 1.393 . S
C2993 C2992 1.391 . S
C2994 H2984 0.950 . S
C2994 C2995 1.386 . S
C2994 C2996 1.391 . S
C2995 C2994 1.386 . S
C2995 C2999 1.393 . S
C2996 H2985 0.950 . S
C2996 C2994 1.391 . S
C2996 C2997 1.400 . S
C2997 C2991 1.491 . S
C2997 C2996 1.400 . S
C2997 C2998 1.398 . S
C2998 H2986 0.950 . S
C2998 C2997 1.398 . S
C2998 C2999 1.391 . S
C2999 H2987 0.950 . S
C2999 C2995 1.393 . S
C2999 C2998 1.391 . S
H3000 C3008 0.950 . S
H3001 C3013 0.950 . S
H3002 C3010 0.950 . S
H3003 C3012 0.950 . S
H3004 C3014 0.950 . S
H3005 C3016 0.950 . S
H3006 C3018 0.950 . S
H3007 C3019 0.950 . S
C3008 H3000 0.950 . S
C3008 C3009 1.386 . S
C3008 C3010 1.391 . S
C3009 C3008 1.386 . S
C3009 C3013 1.393 . S
C3010 H3002 0.950 . S
C3010 C3008 1.391 . S
C3010 C3011 1.400 . S
C3011 C3010 1.400 . S
C3011 C3012 1.398 . S
C3011 C3017 1.491 1_565 S
C3012 H3003 0.950 . S
C3012 C3011 1.398 . S
C3012 C3013 1.391 . S
C3013 H3001 0.950 . S
C3013 C3009 1.393 . S
C3013 C3012 1.391 . S
C3014 H3004 0.950 . S
C3014 C3015 1.386 . S
C3014 C3016 1.391 . S
C3015 C3014 1.386 . S
C3015 C3019 1.393 . S
C3016 H3005 0.950 . S
C3016 C3014 1.391 . S
C3016 C3017 1.400 . S
C3017 C3011 1.491 1_545 S
C3017 C3016 1.400 . S
C3017 C3018 1.398 . S
C3018 H3006 0.950 . S
C3018 C3017 1.398 . S
C3018 C3019 1.391 . S
C3019 H3007 0.950 . S
C3019 C3015 1.393 . S
C3019 C3018 1.391 . S
H3020 C3028 0.950 . S
H3021 C3033 0.950 . S
H3022 C3030 0.950 . S
H3023 C3032 0.905 1_556 S
H3024 C3034 0.950 . S
H3025 C3036 0.950 . S
H3026 C3038 0.905 1_554 S
H3027 C3039 0.950 . S
C3028 H3020 0.950 . S
C3028 C3029 1.386 . S
C3028 C3030 1.391 . S
C3029 C3028 1.386 . S
C3029 C3033 1.393 . S
C3030 H3022 0.950 . S
C3030 C3028 1.391 . S
C3030 C3031 1.400 . S
C3031 C3030 1.400 . S
C3031 C3032 1.398 . S
C3031 C3037 1.491 1_554 S
C3032 H3023 0.905 1_554 S
C3032 C3031 1.398 . S
C3032 C3033 1.391 . S
C3033 H3021 0.950 . S
C3033 C3029 1.393 . S
C3033 C3032 1.391 . S
C3034 H3024 0.950 . S
C3034 C3035 1.386 . S
C3034 C3036 1.391 . S
C3035 C3034 1.386 . S
C3035 C3039 1.393 . S
C3036 H3025 0.950 . S
C3036 C3034 1.391 . S
C3036 C3037 1.400 . S
C3037 C3031 1.491 1_556 S
C3037 C3036 1.400 . S
C3037 C3038 1.398 . S
C3038 H3026 0.905 1_556 S
C3038 C3037 1.398 . S
C3038 C3039 1.391 . S
C3039 H3027 0.950 . S
C3039 C3035 1.393 . S
C3039 C3038 1.391 . S
H3040 C3048 0.950 . S
H3041 C3053 0.950 . S
H3042 C3050 0.950 . S
H3043 C3052 0.950 . S
H3044 C3054 0.950 . S
H3045 C3056 0.950 . S
H3046 C3058 0.950 . S
H3047 C3059 0.950 . S
C3048 H3040 0.950 . S
C3048 C3049 1.386 . S
C3048 C3050 1.391 . S
C3049 C3048 1.386 . S
C3049 C3053 1.393 . S
C3050 H3042 0.950 . S
C3050 C3048 1.391 . S
C3050 C3051 1.400 . S
C3051 C3050 1.400 . S
C3051 C3052 1.398 . S
C3051 C3057 1.491 . S
C3052 H3043 0.950 . S
C3052 C3051 1.398 . S
C3052 C3053 1.391 . S
C3053 H3041 0.950 . S
C3053 C3049 1.393 . S
C3053 C3052 1.391 . S
C3054 H3044 0.950 . S
C3054 C3055 1.386 . S
C3054 C3056 1.391 . S
C3055 C3054 1.386 . S
C3055 C3059 1.393 . S
C3056 H3045 0.950 . S
C3056 C3054 1.391 . S
C3056 C3057 1.400 . S
C3057 C3051 1.491 . S
C3057 C3056 1.400 . S
C3057 C3058 1.398 . S
C3058 H3046 0.950 . S
C3058 C3057 1.398 . S
C3058 C3059 1.391 . S
C3059 H3047 0.950 . S
C3059 C3055 1.393 . S
C3059 C3058 1.391 . S
H3060 C3068 0.950 . S
H3061 C3073 0.950 . S
H3062 C3070 0.950 . S
H3063 C3072 0.950 . S
H3064 C3074 0.950 . S
H3065 C3076 0.950 . S
H3066 C3078 0.950 . S
H3067 C3079 0.950 . S
C3068 H3060 0.950 . S
C3068 C3069 1.386 . S
C3068 C3070 1.391 . S
C3069 C3068 1.386 . S
C3069 C3073 1.393 . S
C3070 H3062 0.950 . S
C3070 C3068 1.391 . S
C3070 C3071 1.400 . S
C3071 C3070 1.400 . S
C3071 C3072 1.398 . S
C3071 C3077 1.491 1_556 S
C3072 H3063 0.950 . S
C3072 C3071 1.398 . S
C3072 C3073 1.391 . S
C3073 H3061 0.950 . S
C3073 C3069 1.393 . S
C3073 C3072 1.391 . S
C3074 H3064 0.950 . S
C3074 C3075 1.386 . S
C3074 C3076 1.391 . S
C3075 C3074 1.386 . S
C3075 C3079 1.393 . S
C3076 H3065 0.950 . S
C3076 C3074 1.391 . S
C3076 C3077 1.400 . S
C3077 C3071 1.491 1_554 S
C3077 C3076 1.400 . S
C3077 C3078 1.398 . S
C3078 H3066 0.950 . S
C3078 C3077 1.398 . S
C3078 C3079 1.391 . S
C3079 H3067 0.950 . S
C3079 C3075 1.393 . S
C3079 C3078 1.391 . S
H3080 C3088 0.950 . S
H3081 C3093 0.950 . S
H3082 C3090 0.950 . S
H3083 C3092 0.950 . S
H3084 C3094 0.950 . S
H3085 C3096 0.950 . S
H3086 C3098 0.950 . S
H3087 C3099 0.950 . S
C3088 H3080 0.950 . S
C3088 C3089 1.386 . S
C3088 C3090 1.391 . S
C3089 C3088 1.386 . S
C3089 C3093 1.393 . S
C3090 H3082 0.950 . S
C3090 C3088 1.391 . S
C3090 C3091 1.400 . S
C3091 C3090 1.400 . S
C3091 C3092 1.398 . S
C3091 C3097 1.491 . S
C3092 H3083 0.950 . S
C3092 C3091 1.398 . S
C3092 C3093 1.391 . S
C3093 H3081 0.950 . S
C3093 C3089 1.393 . S
C3093 C3092 1.391 . S
C3094 H3084 0.950 . S
C3094 C3095 1.386 . S
C3094 C3096 1.391 . S
C3095 C3094 1.386 . S
C3095 C3099 1.393 . S
C3096 H3085 0.950 . S
C3096 C3094 1.391 . S
C3096 C3097 1.400 . S
C3097 C3091 1.491 . S
C3097 C3096 1.400 . S
C3097 C3098 1.398 . S
C3098 H3086 0.950 . S
C3098 C3097 1.398 . S
C3098 C3099 1.391 . S
C3099 H3087 0.950 . S
C3099 C3095 1.393 . S
C3099 C3098 1.391 . S
H3100 C3108 0.950 . S
H3101 C3113 0.950 . S
H3102 C3110 0.950 . S
H3103 C3112 0.950 . S
H3104 C3114 0.950 . S
H3105 C3116 0.950 . S
H3106 C3118 0.950 . S
H3107 C3119 0.950 . S
C3108 H3100 0.950 . S
C3108 C3109 1.386 . S
C3108 C3110 1.391 . S
C3109 C3108 1.386 . S
C3109 C3113 1.393 . S
C3110 H3102 0.950 . S
C3110 C3108 1.391 . S
C3110 C3111 1.400 . S
C3111 C3110 1.400 . S
C3111 C3112 1.398 . S
C3111 C3117 1.491 . S
C3112 H3103 0.950 . S
C3112 C3111 1.398 . S
C3112 C3113 1.391 . S
C3113 H3101 0.950 . S
C3113 C3109 1.393 . S
C3113 C3112 1.391 . S
C3114 H3104 0.950 . S
C3114 C3115 1.386 . S
C3114 C3116 1.391 . S
C3115 C3114 1.386 . S
C3115 C3119 1.393 . S
C3116 H3105 0.950 . S
C3116 C3114 1.391 . S
C3116 C3117 1.400 . S
C3117 C3111 1.491 . S
C3117 C3116 1.400 . S
C3117 C3118 1.398 . S
C3118 H3106 0.950 . S
C3118 C3117 1.398 . S
C3118 C3119 1.391 . S
C3119 H3107 0.950 . S
C3119 C3115 1.393 . S
C3119 C3118 1.391 . S
H3120 C3128 0.950 . S
H3121 C3133 0.950 . S
H3122 C3130 0.950 . S
H3123 C3132 0.950 . S
H3124 C3134 0.950 . S
H3125 C3136 0.950 . S
H3126 C3138 0.950 . S
H3127 C3139 0.950 . S
C3128 H3120 0.950 . S
C3128 C3129 1.386 . S
C3128 C3130 1.391 . S
C3129 C3128 1.386 . S
C3129 C3133 1.393 . S
C3130 H3122 0.950 . S
C3130 C3128 1.391 . S
C3130 C3131 1.400 . S
C3131 C3130 1.400 . S
C3131 C3132 1.398 . S
C3131 C3137 1.491 . S
C3132 H3123 0.950 . S
C3132 C3131 1.398 . S
C3132 C3133 1.391 . S
C3133 H3121 0.950 . S
C3133 C3129 1.393 . S
C3133 C3132 1.391 . S
C3134 H3124 0.950 . S
C3134 C3135 1.386 . S
C3134 C3136 1.391 . S
C3135 C3134 1.386 . S
C3135 C3139 1.393 . S
C3136 H3125 0.950 . S
C3136 C3134 1.391 . S
C3136 C3137 1.400 . S
C3137 C3131 1.491 . S
C3137 C3136 1.400 . S
C3137 C3138 1.398 . S
C3138 H3126 0.950 . S
C3138 C3137 1.398 . S
C3138 C3139 1.391 . S
C3139 H3127 0.950 . S
C3139 C3135 1.393 . S
C3139 C3138 1.391 . S
H3140 C3148 0.950 . S
H3141 C3153 0.950 . S
H3142 C3150 0.950 . S
H3143 C3152 0.950 . S
H3144 C3154 0.950 . S
H3145 C3156 0.950 . S
H3146 C3158 0.950 . S
H3147 C3159 0.950 . S
C3148 H3140 0.950 . S
C3148 C3149 1.386 . S
C3148 C3150 1.391 . S
C3149 C3148 1.386 . S
C3149 C3153 1.393 . S
C3150 H3142 0.950 . S
C3150 C3148 1.391 . S
C3150 C3151 1.400 . S
C3151 C3150 1.400 . S
C3151 C3152 1.398 . S
C3151 C3157 1.491 1_556 S
C3152 H3143 0.950 . S
C3152 C3151 1.398 . S
C3152 C3153 1.391 . S
C3153 H3141 0.950 . S
C3153 C3149 1.393 . S
C3153 C3152 1.391 . S
C3154 H3144 0.950 . S
C3154 C3155 1.386 . S
C3154 C3156 1.391 . S
C3155 C3154 1.386 . S
C3155 C3159 1.393 . S
C3156 H3145 0.950 . S
C3156 C3154 1.391 . S
C3156 C3157 1.400 . S
C3157 C3151 1.491 1_554 S
C3157 C3156 1.400 . S
C3157 C3158 1.398 . S
C3158 H3146 0.950 . S
C3158 C3157 1.398 . S
C3158 C3159 1.391 . S
C3159 H3147 0.950 . S
C3159 C3155 1.393 . S
C3159 C3158 1.391 . S
H3160 C3168 0.950 . S
H3161 C3173 0.950 . S
H3162 C3170 0.950 . S
H3163 C3172 0.950 . S
H3164 C3174 0.950 . S
H3165 C3176 0.950 . S
H3166 C3178 0.950 . S
H3167 C3179 0.950 . S
C3168 H3160 0.950 . S
C3168 C3169 1.386 . S
C3168 C3170 1.391 . S
C3169 C3168 1.386 . S
C3169 C3173 1.393 . S
C3170 H3162 0.950 . S
C3170 C3168 1.391 . S
C3170 C3171 1.400 . S
C3171 C3170 1.400 . S
C3171 C3172 1.398 . S
C3171 C3177 1.491 . S
C3172 H3163 0.950 . S
C3172 C3171 1.398 . S
C3172 C3173 1.391 . S
C3173 H3161 0.950 . S
C3173 C3169 1.393 . S
C3173 C3172 1.391 . S
C3174 H3164 0.950 . S
C3174 C3175 1.386 . S
C3174 C3176 1.391 . S
C3175 C3174 1.386 . S
C3175 C3179 1.393 . S
C3176 H3165 0.950 . S
C3176 C3174 1.391 . S
C3176 C3177 1.400 . S
C3177 C3171 1.491 . S
C3177 C3176 1.400 . S
C3177 C3178 1.398 . S
C3178 H3166 0.950 . S
C3178 C3177 1.398 . S
C3178 C3179 1.391 . S
C3179 H3167 0.950 . S
C3179 C3175 1.393 . S
C3179 C3178 1.391 . S
H3180 C3188 0.950 . S
H3181 C3193 0.950 . S
H3182 C3190 0.950 . S
H3183 C3192 0.950 . S
H3184 C3194 0.950 . S
H3185 C3196 0.950 . S
H3186 C3198 0.950 . S
H3187 C3199 0.950 . S
C3188 H3180 0.950 . S
C3188 C3189 1.386 . S
C3188 C3190 1.391 . S
C3189 C3188 1.386 . S
C3189 C3193 1.393 . S
C3190 H3182 0.950 . S
C3190 C3188 1.391 . S
C3190 C3191 1.400 . S
C3191 C3190 1.400 . S
C3191 C3192 1.398 . S
C3191 C3197 1.491 . S
C3192 H3183 0.950 . S
C3192 C3191 1.398 . S
C3192 C3193 1.391 . S
C3193 H3181 0.950 . S
C3193 C3189 1.393 . S
C3193 C3192 1.391 . S
C3194 H3184 0.950 . S
C3194 C3195 1.386 . S
C3194 C3196 1.391 . S
C3195 C3194 1.386 . S
C3195 C3199 1.393 . S
C3196 H3185 0.950 . S
C3196 C3194 1.391 . S
C3196 C3197 1.400 . S
C3197 C3191 1.491 . S
C3197 C3196 1.400 . S
C3197 C3198 1.398 . S
C3198 H3186 0.950 . S
C3198 C3197 1.398 . S
C3198 C3199 1.391 . S
C3199 H3187 0.950 . S
C3199 C3195 1.393 . S
C3199 C3198 1.391 . S
C1289 C10 0.666 . S
C1295 C1095 0.548 . S
C1309 C50 0.675 . S
C1315 C335 0.558 . S
C1329 C90 0.667 . S
C1335 C1015 0.552 . S
C1349 C415 0.531 . S
C1355 C130 0.649 . S
C1369 C170 0.615 . S
C1375 C1175 0.499 . S
C1389 C575 0.547 . S
C1395 C210 0.665 . S
C1409 C1255 0.522 . S
C1415 C250 0.638 . S
C1429 C290 0.656 . S
C1435 C495 0.541 . S
C1449 C339 0.659 . S
C1455 C766 0.544 . S
C1469 C379 0.626 . S
C1475 C6 0.510 . S
C1489 C686 0.510 . S
C1495 C419 0.628 . S
C1509 C86 0.526 . S
C1515 C459 0.642 . S
C1529 C499 0.657 . S
C1535 C846 0.542 . S
C1549 C539 0.608 . S
C1555 C246 0.492 . S
C1569 C579 0.625 . S
C1575 C926 0.507 . S
C1589 C166 0.566 . S
C1595 C619 0.683 . S
C1609 C455 0.521 . S
C1615 C650 0.636 . S
C1629 C975 0.554 . S
C1635 C690 0.672 . S
C1649 C375 0.526 . S
C1655 C730 0.641 . S
C1669 C770 0.683 . S
C1675 C1055 0.566 . S
C1689 C535 0.542 . S
C1695 C810 0.657 . S
C1709 C1215 0.495 . S
C1715 C850 0.612 . S
C1729 C615 0.520 . S
C1735 C890 0.638 . S
C1749 C930 0.678 . S
C1755 C1135 0.562 . S
C1769 C979 0.612 . S
C1775 C126 0.495 . S
C1789 C1019 0.686 . S
C1795 C646 0.569 . S
C1809 C1059 0.678 . S
C1815 C46 0.560 . S
C1829 C1099 0.681 . S
C1835 C726 0.564 . S
C1849 C206 0.569 . S
C1855 C1139 0.686 . S
C1869 C886 0.568 . S
C1875 C1179 0.685 . S
C1889 C1219 0.615 . S
C1895 C286 0.499 . S
C1909 C1259 0.658 . S
C1915 C806 0.542 . S
C1929 C18 1.648 . S
C1935 C738 1.648 . S
C1949 C778 1.625 . S
C1955 C58 1.626 . S
C1969 C98 1.627 . S
C1975 C658 1.628 . S
C1989 C138 1.629 . S
C1995 C698 1.629 . S
C2009 C898 1.642 . S
C2015 C178 1.641 . S
C2029 C218 1.625 . S
C2035 C938 1.626 . S
C2049 C818 1.624 . S
C2055 C258 1.625 . S
C2069 C298 1.645 . S
C2075 C858 1.644 . S
C2089 C1049 1.623 . S
C2095 C329 1.623 . S
C2109 C369 1.626 . S
C2115 C1089 1.625 . S
C2129 C409 1.642 . S
C2135 C969 1.643 . S
C2149 C449 1.648 . S
C2155 C1009 1.648 . S
C2169 C1209 1.624 . S
C2175 C489 1.623 . S
C2189 C1249 1.643 . S
C2195 C529 1.644 . S
C2209 C569 1.623 . S
C2215 C1129 1.623 . S
C2229 C609 1.627 . S
C2235 C1169 1.626 . S
C2249 C15 1.763 . S
C2255 C966 1.763 . S
C2269 C366 1.751 . S
C2275 C55 1.751 . S
C2289 C95 1.749 . S
C2295 C1046 1.749 . S
C2309 C135 1.725 . S
C2315 C446 1.725 . S
C2329 C1126 1.762 . S
C2335 C175 1.762 . S
C2349 C526 1.740 . S
C2355 C215 1.740 . S
C2369 C255 1.757 . S
C2375 C1206 1.757 . S
C2389 C295 1.727 . S
C2395 C606 1.727 . S
C2409 C655 1.750 . S
C2415 C326 1.750 . S
C2429 C735 1.725 . S
C2435 C406 1.725 . S
C2449 C815 1.726 . S
C2455 C486 1.726 . S
C2469 C566 1.749 . S
C2475 C895 1.749 . S
C2489 C695 1.748 . S
C2495 C1006 1.748 . S
C2509 C775 1.763 . S
C2515 C1086 1.763 . S
C2529 C1166 1.725 . S
C2535 C855 1.725 . S
C2549 C1246 1.757 . S
C2555 C935 1.757 . S
C2569 C9 4.471 . S
C2575 C209 4.470 . S
C2589 C249 4.461 . S
C2595 C49 4.458 . S
C2609 C289 4.458 . S
C2615 C89 4.461 . S
C2629 C169 4.470 . S
C2635 C129 4.471 . S
C2649 C338 4.469 . S
C2655 C538 4.462 . S
C2669 C378 4.459 . S
C2675 C578 4.461 . S
C2689 C618 4.466 . S
C2695 C418 4.471 . S
C2709 C458 4.462 . S
C2715 C498 4.458 . S
C2729 C649 4.459 . S
C2735 C849 4.461 . S
C2749 C689 4.469 . S
C2755 C889 4.462 . S
C2769 C729 4.461 . S
C2775 C929 4.458 . S
C2789 C809 4.468 . S
C2795 C769 4.461 . S
C2809 C978 4.459 . S
C2815 C1178 4.459 . S
C2829 C1018 4.469 . S
C2835 C1218 4.462 . S
C2849 C1258 4.469 . S
C2855 C1058 4.471 . S
C2869 C1098 4.462 . S
C2875 C1138 4.458 . S
C2889 C19 3.957 . S
C2895 C179 3.956 . S
C2909 C59 3.953 . S
C2915 C219 3.956 . S
C2929 C259 3.958 . S
C2935 C99 3.954 . S
C2949 C299 3.958 . S
C2955 C139 3.954 . S
C2969 C330 3.956 . S
C2975 C490 3.953 . S
C2989 C530 3.957 . S
C2995 C370 3.953 . S
C3009 C570 3.957 . S
C3015 C410 3.956 . S
C3029 C610 3.957 . S
C3035 C450 3.953 . S
C3049 C659 3.958 . S
C3055 C819 3.955 . S
C3069 C859 3.957 . S
C3075 C699 3.956 . S
C3089 C739 3.954 . S
C3095 C899 3.955 . S
C3109 C939 3.958 . S
C3115 C779 3.954 . S
C3129 C1130 3.955 . S
C3135 C970 3.958 . S
C3149 C1010 3.957 . S
C3155 C1170 3.956 . S
C3169 C1050 3.957 . S
C3175 C1210 3.956 . S
C3189 C1090 3.958 . S
C3195 C1250 3.955 . S
