# Generated by pormake.
# Topology smn, (6)-cn, num edge types: 1
# Building blocks:
#     Node 0, Type 0, BuildingBlock: OJICUG_clean_sbu_0, # of connection points: 6
#     Node 1, Type 0, BuildingBlock: OJICUG_clean_sbu_0, # of connection points: 6
#     Node 2, Type 0, BuildingBlock: OJICUG_clean_sbu_0, # of connection points: 6
#     Node 3, Type 0, BuildingBlock: OJICUG_clean_sbu_0, # of connection points: 6
#     Node 4, Type 0, BuildingBlock: OJICUG_clean_sbu_0, # of connection points: 6
#     Node 5, Type 0, BuildingBlock: OJICUG_clean_sbu_0, # of connection points: 6
#     Node 6, Type 0, BuildingBlock: OJICUG_clean_sbu_0, # of connection points: 6
#     Node 7, Type 0, BuildingBlock: OJICUG_clean_sbu_0, # of connection points: 6
#     Node 8, Type 0, BuildingBlock: OJICUG_clean_sbu_0, # of connection points: 6
#     Node 9, Type 0, BuildingBlock: OJICUG_clean_sbu_0, # of connection points: 6
#     Node 10, Type 0, BuildingBlock: OJICUG_clean_sbu_0, # of connection points: 6
#     Node 11, Type 0, BuildingBlock: OJICUG_clean_sbu_0, # of connection points: 6
#     Node 12, Type 0, BuildingBlock: OJICUG_clean_sbu_0, # of connection points: 6
#     Node 13, Type 0, BuildingBlock: OJICUG_clean_sbu_0, # of connection points: 6
#     Node 14, Type 0, BuildingBlock: OJICUG_clean_sbu_0, # of connection points: 6
#     Node 15, Type 0, BuildingBlock: OJICUG_clean_sbu_0, # of connection points: 6
#     Node 16, Type 0, BuildingBlock: OJICUG_clean_sbu_0, # of connection points: 6
#     Node 17, Type 0, BuildingBlock: OJICUG_clean_sbu_0, # of connection points: 6
#     Edge 18, Type (0, 0), BuildingBlock: KIFKEQ_clean_linker_1, # of connection points: 2
#     Edge 19, Type (0, 0), BuildingBlock: KIFKEQ_clean_linker_1, # of connection points: 2
#     Edge 20, Type (0, 0), BuildingBlock: KIFKEQ_clean_linker_1, # of connection points: 2
#     Edge 21, Type (0, 0), BuildingBlock: KIFKEQ_clean_linker_1, # of connection points: 2
#     Edge 22, Type (0, 0), BuildingBlock: KIFKEQ_clean_linker_1, # of connection points: 2
#     Edge 23, Type (0, 0), BuildingBlock: KIFKEQ_clean_linker_1, # of connection points: 2
#     Edge 24, Type (0, 0), BuildingBlock: KIFKEQ_clean_linker_1, # of connection points: 2
#     Edge 25, Type (0, 0), BuildingBlock: KIFKEQ_clean_linker_1, # of connection points: 2
#     Edge 26, Type (0, 0), BuildingBlock: KIFKEQ_clean_linker_1, # of connection points: 2
#     Edge 27, Type (0, 0), BuildingBlock: KIFKEQ_clean_linker_1, # of connection points: 2
#     Edge 28, Type (0, 0), BuildingBlock: KIFKEQ_clean_linker_1, # of connection points: 2
#     Edge 29, Type (0, 0), BuildingBlock: KIFKEQ_clean_linker_1, # of connection points: 2
#     Edge 30, Type (0, 0), BuildingBlock: KIFKEQ_clean_linker_1, # of connection points: 2
#     Edge 31, Type (0, 0), BuildingBlock: KIFKEQ_clean_linker_1, # of connection points: 2
#     Edge 32, Type (0, 0), BuildingBlock: KIFKEQ_clean_linker_1, # of connection points: 2
#     Edge 33, Type (0, 0), BuildingBlock: KIFKEQ_clean_linker_1, # of connection points: 2
#     Edge 34, Type (0, 0), BuildingBlock: KIFKEQ_clean_linker_1, # of connection points: 2
#     Edge 35, Type (0, 0), BuildingBlock: KIFKEQ_clean_linker_1, # of connection points: 2
#     Edge 36, Type (0, 0), BuildingBlock: KIFKEQ_clean_linker_1, # of connection points: 2
#     Edge 37, Type (0, 0), BuildingBlock: KIFKEQ_clean_linker_1, # of connection points: 2
#     Edge 38, Type (0, 0), BuildingBlock: KIFKEQ_clean_linker_1, # of connection points: 2
#     Edge 39, Type (0, 0), BuildingBlock: KIFKEQ_clean_linker_1, # of connection points: 2
#     Edge 40, Type (0, 0), BuildingBlock: KIFKEQ_clean_linker_1, # of connection points: 2
#     Edge 41, Type (0, 0), BuildingBlock: KIFKEQ_clean_linker_1, # of connection points: 2
#     Edge 42, Type (0, 0), BuildingBlock: KIFKEQ_clean_linker_1, # of connection points: 2
#     Edge 43, Type (0, 0), BuildingBlock: KIFKEQ_clean_linker_1, # of connection points: 2
#     Edge 44, Type (0, 0), BuildingBlock: KIFKEQ_clean_linker_1, # of connection points: 2
#     Edge 45, Type (0, 0), BuildingBlock: KIFKEQ_clean_linker_1, # of connection points: 2
#     Edge 46, Type (0, 0), BuildingBlock: KIFKEQ_clean_linker_1, # of connection points: 2
#     Edge 47, Type (0, 0), BuildingBlock: KIFKEQ_clean_linker_1, # of connection points: 2
#     Edge 48, Type (0, 0), BuildingBlock: KIFKEQ_clean_linker_1, # of connection points: 2
#     Edge 49, Type (0, 0), BuildingBlock: KIFKEQ_clean_linker_1, # of connection points: 2
#     Edge 50, Type (0, 0), BuildingBlock: KIFKEQ_clean_linker_1, # of connection points: 2
#     Edge 51, Type (0, 0), BuildingBlock: KIFKEQ_clean_linker_1, # of connection points: 2
#     Edge 52, Type (0, 0), BuildingBlock: KIFKEQ_clean_linker_1, # of connection points: 2
#     Edge 53, Type (0, 0), BuildingBlock: KIFKEQ_clean_linker_1, # of connection points: 2
#     Edge 54, Type (0, 0), BuildingBlock: KIFKEQ_clean_linker_1, # of connection points: 2
#     Edge 55, Type (0, 0), BuildingBlock: KIFKEQ_clean_linker_1, # of connection points: 2
#     Edge 56, Type (0, 0), BuildingBlock: KIFKEQ_clean_linker_1, # of connection points: 2
#     Edge 57, Type (0, 0), BuildingBlock: KIFKEQ_clean_linker_1, # of connection points: 2
#     Edge 58, Type (0, 0), BuildingBlock: KIFKEQ_clean_linker_1, # of connection points: 2
#     Edge 59, Type (0, 0), BuildingBlock: KIFKEQ_clean_linker_1, # of connection points: 2
#     Edge 60, Type (0, 0), BuildingBlock: KIFKEQ_clean_linker_1, # of connection points: 2
#     Edge 61, Type (0, 0), BuildingBlock: KIFKEQ_clean_linker_1, # of connection points: 2
#     Edge 62, Type (0, 0), BuildingBlock: KIFKEQ_clean_linker_1, # of connection points: 2
#     Edge 63, Type (0, 0), BuildingBlock: KIFKEQ_clean_linker_1, # of connection points: 2
#     Edge 64, Type (0, 0), BuildingBlock: KIFKEQ_clean_linker_1, # of connection points: 2
#     Edge 65, Type (0, 0), BuildingBlock: KIFKEQ_clean_linker_1, # of connection points: 2
#     Edge 66, Type (0, 0), BuildingBlock: KIFKEQ_clean_linker_1, # of connection points: 2
#     Edge 67, Type (0, 0), BuildingBlock: KIFKEQ_clean_linker_1, # of connection points: 2
#     Edge 68, Type (0, 0), BuildingBlock: KIFKEQ_clean_linker_1, # of connection points: 2
#     Edge 69, Type (0, 0), BuildingBlock: KIFKEQ_clean_linker_1, # of connection points: 2
#     Edge 70, Type (0, 0), BuildingBlock: KIFKEQ_clean_linker_1, # of connection points: 2
#     Edge 71, Type (0, 0), BuildingBlock: KIFKEQ_clean_linker_1, # of connection points: 2
# Relax obj value: 0.148
# Max RMSD: 0.236
# Mean RMSD: 0.236
data_MOF--net-smn--node1-OJICUG_clean_sbu_0--edge1-KIFKEQ_clean_linker_1
_symmetry_space_group_name_H-M    P1
_symmetry_Int_Tables_number       1
_symmetry_cell_setting            triclinic
loop_
_symmetry_equiv_pos_as_xyz
'x, y, z'
_cell_length_a     66.573711
_cell_length_b     66.562545
_cell_length_c     18.486658
_cell_angle_alpha  90.000455
_cell_angle_beta   90.009201
_cell_angle_gamma 120.00577
loop_
_atom_site_label
_atom_site_type_symbol
_atom_site_fract_x
_atom_site_fract_y
_atom_site_fract_z
_atom_type_partial_charge
Sc0 Sc 0.00999 0.17467 0.74959 0.0
Sc1 Sc 0.02479 0.22736 0.83631 0.0
Sc2 Sc 0.99597 0.2138 0.66767 0.0
O3 O 0.0103 0.20532 0.75109 0.0
C4 C 0.02558 0.19416 0.58965 0.0
C5 C 0.0591 0.20693 0.82445 0.0
C6 C 0.04156 0.26254 0.70433 0.0
C7 C 0.99449 0.17755 0.91041 0.0
C8 C 0.96106 0.15903 0.67528 0.0
C9 C 0.97934 0.231 0.80362 0.0
O10 O 0.0242 0.18119 0.64227 0.0
O11 O 0.05454 0.2224 0.84543 0.0
O12 O 0.02406 0.24913 0.66603 0.0
O13 O 0.99565 0.16622 0.85668 0.0
O14 O 0.96596 0.17931 0.65588 0.0
O15 O 0.9971 0.23495 0.8402 0.0
O16 O 0.97528 0.15521 0.70957 0.0
O17 O 0.00439 0.19962 0.91185 0.0
O18 O 0.97545 0.22227 0.74018 0.0
O19 O 0.04466 0.18916 0.78943 0.0
O20 O 0.01615 0.20678 0.59003 0.0
O21 O 0.04528 0.25711 0.76704 0.0
Sc22 Sc 0.78753 0.80164 0.83117 0.0
Sc23 Sc 0.80179 0.78797 0.66092 0.0
Sc24 Sc 0.84031 0.84055 0.74698 0.0
O25 O 0.80986 0.81001 0.7464 0.0
C26 C 0.8075 0.85639 0.8233 0.0
C27 C 0.75275 0.78406 0.69738 0.0
C28 C 0.82116 0.83782 0.58725 0.0
C29 C 0.78425 0.75296 0.79335 0.0
C30 C 0.83723 0.82113 0.90657 0.0
C31 C 0.85657 0.80814 0.67022 0.0
O32 O 0.79207 0.83616 0.84304 0.0
O33 O 0.76647 0.78039 0.65932 0.0
O34 O 0.83398 0.84906 0.64052 0.0
O35 O 0.78045 0.76642 0.8324 0.0
O36 O 0.84858 0.83399 0.8535 0.0
O37 O 0.83642 0.79278 0.64958 0.0
O38 O 0.81516 0.80873 0.90735 0.0
O39 O 0.79287 0.75826 0.72996 0.0
O40 O 0.8601 0.82589 0.70567 0.0
O41 O 0.75795 0.7928 0.76077 0.0
O42 O 0.8254 0.86007 0.78846 0.0
O43 O 0.80881 0.81575 0.58585 0.0
Sc44 Sc 0.17479 0.00573 0.74935 0.0
Sc45 Sc 0.21306 0.99128 0.8351 0.0
Sc46 Sc 0.22776 0.01988 0.66592 0.0
O47 O 0.20522 0.0056 0.75006 0.0
C48 C 0.1783 0.99011 0.58907 0.0
C49 C 0.15835 0.95666 0.82376 0.0
C50 C 0.23121 0.97446 0.70236 0.0
C51 C 0.19332 0.02126 0.91012 0.0
C52 C 0.2078 0.05469 0.67495 0.0
C53 C 0.26206 0.03672 0.80091 0.0
O54 O 0.16685 0.99148 0.64207 0.0
O55 O 0.17845 0.96135 0.84461 0.0
O56 O 0.23498 0.99179 0.66372 0.0
O57 O 0.18076 0.02004 0.85653 0.0
O58 O 0.22319 0.04988 0.65489 0.0
O59 O 0.24828 0.01915 0.83826 0.0
O60 O 0.18986 0.04041 0.70951 0.0
O61 O 0.20565 0.01153 0.91115 0.0
O62 O 0.25708 0.04042 0.73741 0.0
O63 O 0.15489 0.97105 0.78903 0.0
O64 O 0.20036 0.99963 0.58887 0.0
O65 O 0.22239 0.9709 0.76553 0.0
Sc66 Sc 0.00752 0.83886 0.24723 0.0
Sc67 Sc 0.99255 0.78548 0.16497 0.0
Sc68 Sc 0.02182 0.80048 0.33288 0.0
O69 O 0.00728 0.80825 0.24837 0.0
C70 C 0.05661 0.85515 0.32114 0.0
C71 C 0.02262 0.83472 0.08694 0.0
C72 C 0.03796 0.78184 0.19942 0.0
C73 C 0.95832 0.80612 0.17382 0.0
C74 C 0.99222 0.82061 0.40831 0.0
C75 C 0.97605 0.75155 0.30035 0.0
O76 O 0.04229 0.85867 0.28619 0.0
O77 O 0.01292 0.81264 0.08724 0.0
O78 O 0.04213 0.79127 0.2619 0.0
O79 O 0.9728 0.82404 0.20808 0.0
O80 O 1.00172 0.80805 0.40934 0.0
O81 O 0.97206 0.7564 0.23709 0.0
O82 O 0.99355 0.8332 0.35468 0.0
O83 O 0.96284 0.79051 0.15402 0.0
O84 O 0.9938 0.76525 0.33713 0.0
O85 O 0.02148 0.8464 0.13968 0.0
O86 O 0.05181 0.83505 0.34218 0.0
O87 O 0.02013 0.77766 0.16282 0.0
Sc88 Sc 0.22998 0.21214 0.16843 0.0
Sc89 Sc 0.21509 0.22717 0.33459 0.0
Sc90 Sc 0.17657 0.17419 0.25086 0.0
O91 O 0.20719 0.20449 0.25125 0.0
C92 C 0.18089 0.19317 0.08988 0.0
C93 C 0.23384 0.26146 0.20087 0.0
C94 C 0.16037 0.20719 0.3231 0.0
C95 C 0.26394 0.22999 0.30321 0.0
C96 C 0.20892 0.1572 0.1786 0.0
C97 C 0.1952 0.17777 0.41195 0.0
O98 O 0.20296 0.20578 0.09057 0.0
O99 O 0.22369 0.25617 0.2622 0.0
O100 O 0.15682 0.18945 0.28762 0.0
O101 O 0.25865 0.21997 0.24163 0.0
O102 O 0.19127 0.15397 0.21393 0.0
O103 O 0.20809 0.19981 0.41177 0.0
O104 O 0.22437 0.17721 0.15729 0.0
O105 O 0.25053 0.23505 0.3376 0.0
O106 O 0.18213 0.16637 0.35926 0.0
O107 O 0.23857 0.24786 0.16609 0.0
O108 O 0.16923 0.18018 0.14239 0.0
O109 O 0.18044 0.22228 0.34501 0.0
Sc110 Sc 0.84017 0.00834 0.24878 0.0
Sc111 Sc 0.80221 0.02301 0.1621 0.0
Sc112 Sc 0.78753 0.99514 0.33253 0.0
O113 O 0.80995 0.00886 0.24786 0.0
C114 C 0.80683 0.95979 0.3244 0.0
C115 C 0.82135 0.99231 0.08853 0.0
C116 C 0.75294 0.97813 0.19815 0.0
C117 C 0.85706 0.05715 0.17261 0.0
C118 C 0.83721 0.02469 0.40853 0.0
C119 C 0.78473 0.04078 0.2941 0.0
O120 O 0.82473 0.97379 0.28921 0.0
O121 O 0.80905 1.00208 0.08703 0.0
O122 O 0.75799 0.97455 0.26172 0.0
O123 O 0.8603 0.04281 0.20843 0.0
O124 O 0.81518 0.01552 0.40899 0.0
O125 O 0.79345 0.04402 0.23084 0.0
O126 O 0.8484 0.02284 0.35566 0.0
O127 O 0.83705 0.05259 0.15121 0.0
O128 O 0.78076 0.02351 0.33335 0.0
O129 O 0.83403 0.99377 0.14202 0.0
O130 O 0.79171 0.96493 0.34483 0.0
O131 O 0.7668 0.99549 0.16018 0.0
Sc132 Sc 0.6741 0.51006 0.08542 0.0
Sc133 Sc 0.68787 0.56307 0.16859 0.0
Sc134 Sc 0.66009 0.54864 0.99879 0.0
O135 O 0.67402 0.5406 0.08424 0.0
C136 C 0.6898 0.52843 0.92465 0.0
C137 C 0.7232 0.54386 0.15782 0.0
C138 C 0.70507 0.59764 0.03458 0.0
C139 C 0.65861 0.51359 0.24556 0.0
C140 C 0.62512 0.49393 0.01111 0.0
C141 C 0.6424 0.56608 0.13191 0.0
O142 O 0.68809 0.51566 0.97814 0.0
O143 O 0.71793 0.55891 0.17775 0.0
O144 O 0.68807 0.58385 0.99531 0.0
O145 O 0.66014 0.50219 0.19277 0.0
O146 O 0.63037 0.51413 0.98973 0.0
O147 O 0.65969 0.56985 0.17058 0.0
O148 O 0.63914 0.49002 0.04644 0.0
O149 O 0.66785 0.5356 0.2455 0.0
O150 O 0.63926 0.55766 0.06815 0.0
O151 O 0.7091 0.5255 0.12443 0.0
O152 O 0.68057 0.54122 0.92339 0.0
O153 O 0.70816 0.59272 0.09872 0.0
Sc154 Sc 0.50639 0.17144 0.08173 0.0
Sc155 Sc 0.45339 0.13358 0.16646 0.0
Sc156 Sc 0.46804 0.1177 0.00175 0.0
O157 O 0.47597 0.14095 0.08329 0.0
C158 C 0.48727 0.16632 0.92075 0.0
C159 C 0.47404 0.18845 0.15358 0.0
C160 C 0.41916 0.11484 0.03296 0.0
C161 C 0.50271 0.15322 0.24358 0.0
C162 C 0.52285 0.13827 0.01237 0.0
C163 C 0.44979 0.08427 0.13699 0.0
O164 O 0.50047 0.17833 0.97239 0.0
O165 O 0.45899 0.16851 0.17658 0.0
O166 O 0.43245 0.1094 0.9995 0.0
O167 O 0.5141 0.16628 0.19083 0.0
O168 O 0.5028 0.12295 0.991 0.0
O169 O 0.44472 0.09785 0.17032 0.0
O170 O 0.5263 0.15618 0.04667 0.0
O171 O 0.48068 0.14028 0.24342 0.0
O172 O 0.46015 0.0894 0.07605 0.0
O173 O 0.49147 0.19168 0.11694 0.0
O174 O 0.47438 0.14432 0.92289 0.0
O175 O 0.42463 0.12547 0.09353 0.0
Sc176 Sc 0.84522 0.34134 0.08128 0.0
Sc177 Sc 0.88188 0.32496 0.16834 0.0
Sc178 Sc 0.89831 0.3542 0.00223 0.0
O179 O 0.87506 0.34015 0.08399 0.0
C180 C 0.84969 0.3254 0.92199 0.0
C181 C 0.82673 0.29215 0.15622 0.0
C182 C 0.89984 0.30781 0.03768 0.0
C183 C 0.86365 0.35616 0.24276 0.0
C184 C 0.87921 0.38977 0.00743 0.0
C185 C 0.93166 0.36978 0.13706 0.0
O186 O 0.83811 0.32815 0.97201 0.0
O187 O 0.84647 0.29664 0.17999 0.0
O188 O 0.90623 0.32671 0.00411 0.0
O189 O 0.85056 0.35449 0.19012 0.0
O190 O 0.89351 0.38368 0.986 0.0
O191 O 0.91801 0.35116 0.1705 0.0
O192 O 0.86155 0.37662 0.04506 0.0
O193 O 0.8764 0.34687 0.24319 0.0
O194 O 0.92653 0.37504 0.07615 0.0
O195 O 0.82405 0.30637 0.11764 0.0
O196 O 0.8715 0.33332 0.92499 0.0
O197 O 0.88878 0.30296 0.0974 0.0
Sc198 Sc 0.66071 0.12137 0.49927 0.0
Sc199 Sc 0.68917 0.13523 0.66869 0.0
Sc200 Sc 0.6738 0.17341 0.58723 0.0
O201 O 0.67459 0.14332 0.58502 0.0
C202 C 0.6907 0.1718 0.42736 0.0
C203 C 0.70641 0.11829 0.53372 0.0
C204 C 0.72243 0.19 0.66501 0.0
C205 C 0.64406 0.08617 0.63229 0.0
C206 C 0.62547 0.14064 0.50851 0.0
C207 C 0.65803 0.15347 0.7458 0.0
O208 O 0.68069 0.1497 0.42443 0.0
O209 O 0.70963 0.12635 0.59785 0.0
O210 O 0.70749 0.1934 0.63363 0.0
O211 O 0.64052 0.09133 0.5688 0.0
O212 O 0.63975 0.15866 0.54269 0.0
O213 O 0.66891 0.14221 0.74645 0.0
O214 O 0.63023 0.12513 0.48955 0.0
O215 O 0.66137 0.09997 0.67055 0.0
O216 O 0.65819 0.16556 0.6923 0.0
O217 O 0.68921 0.11486 0.49503 0.0
O218 O 0.68951 0.18281 0.48205 0.0
O219 O 0.71903 0.16984 0.679 0.0
Sc220 Sc 0.89504 0.54834 0.49661 0.0
Sc221 Sc 0.87966 0.55881 0.67041 0.0
Sc222 Sc 0.84127 0.50938 0.57214 0.0
O223 O 0.87214 0.53897 0.5799 0.0
C224 C 0.8459 0.53354 0.42244 0.0
C225 C 0.89856 0.59639 0.54319 0.0
C226 C 0.82555 0.53984 0.66387 0.0
C227 C 0.9287 0.56295 0.63418 0.0
C228 C 0.87322 0.49424 0.48599 0.0
C229 C 0.85958 0.50638 0.72717 0.0
O230 O 0.86779 0.54163 0.41764 0.0
O231 O 0.89098 0.59052 0.60771 0.0
O232 O 0.82195 0.52185 0.62994 0.0
O233 O 0.92447 0.55697 0.56783 0.0
O234 O 0.85408 0.49084 0.51101 0.0
O235 O 0.86978 0.5283 0.73836 0.0
O236 O 0.89119 0.51422 0.48361 0.0
O237 O 0.91425 0.56459 0.67488 0.0
O238 O 0.84877 0.4969 0.66886 0.0
O239 O 0.90122 0.58316 0.49961 0.0
O240 O 0.83382 0.52212 0.47654 0.0
O241 O 0.84585 0.55593 0.67958 0.0
Sc242 Sc 0.46921 0.35399 0.4991 0.0
Sc243 Sc 0.45595 0.32528 0.66804 0.0
Sc244 Sc 0.50885 0.34107 0.58171 0.0
O245 O 0.47791 0.34002 0.58284 0.0
C246 C 0.48902 0.32372 0.42411 0.0
C247 C 0.42105 0.30764 0.53457 0.0
C248 C 0.47827 0.29282 0.66338 0.0
C249 C 0.4508 0.36988 0.63397 0.0
C250 C 0.52352 0.38926 0.50359 0.0
C251 C 0.50596 0.35867 0.73857 0.0
O252 O 0.47734 0.33421 0.42234 0.0
O253 O 0.4264 0.3041 0.59777 0.0
O254 O 0.49633 0.3079 0.6312 0.0
O255 O 0.45955 0.37385 0.57056 0.0
O256 O 0.52755 0.37467 0.53419 0.0
O257 O 0.48389 0.34648 0.74402 0.0
O258 O 0.5031 0.38478 0.48835 0.0
O259 O 0.44755 0.35246 0.6712 0.0
O260 O 0.51724 0.35817 0.68377 0.0
O261 O 0.4344 0.32537 0.49714 0.0
O262 O 0.5013 0.32447 0.47802 0.0
O263 O 0.46135 0.29587 0.67776 0.0
Sc264 Sc 0.34025 0.83931 0.41664 0.0
Sc265 Sc 0.35449 0.89222 0.5008 0.0
Sc266 Sc 0.32565 0.87765 0.33199 0.0
O267 O 0.34011 0.86974 0.41653 0.0
C268 C 0.35556 0.85801 0.25591 0.0
C269 C 0.38931 0.87229 0.49068 0.0
C270 C 0.37108 0.92667 0.36637 0.0
C271 C 0.3249 0.84273 0.57734 0.0
C272 C 0.29109 0.82288 0.34272 0.0
C273 C 0.30901 0.89567 0.46548 0.0
O274 O 0.35444 0.84541 0.30928 0.0
O275 O 0.38453 0.88769 0.51097 0.0
O276 O 0.35351 0.9129 0.32898 0.0
O277 O 0.32611 0.83127 0.52406 0.0
O278 O 0.29573 0.843 0.32231 0.0
O279 O 0.32638 0.8994 0.50384 0.0
O280 O 0.30553 0.81941 0.37712 0.0
O281 O 0.33446 0.86478 0.57772 0.0
O282 O 0.30538 0.88691 0.40221 0.0
O283 O 0.37497 0.85435 0.45619 0.0
O284 O 0.34579 0.8703 0.25536 0.0
O285 O 0.37486 0.92161 0.42962 0.0
Sc286 Sc 0.12322 0.46788 0.50297 0.0
Sc287 Sc 0.1381 0.45392 0.33423 0.0
Sc288 Sc 0.17619 0.5068 0.41958 0.0
O289 O 0.14583 0.47616 0.41899 0.0
C290 C 0.14296 0.5226 0.49347 0.0
C291 C 0.08895 0.45001 0.36818 0.0
C292 C 0.15754 0.50356 0.25885 0.0
C293 C 0.1201 0.4191 0.4674 0.0
C294 C 0.17264 0.48784 0.58007 0.0
C295 C 0.19289 0.47435 0.34521 0.0
O296 O 0.12755 0.50237 0.51328 0.0
O297 O 0.10281 0.44632 0.33092 0.0
O298 O 0.17009 0.51501 0.31234 0.0
O299 O 0.11624 0.43265 0.50577 0.0
O300 O 0.18416 0.50055 0.52692 0.0
O301 O 0.1728 0.45881 0.32471 0.0
O302 O 0.15059 0.47535 0.5802 0.0
O303 O 0.12892 0.42432 0.40422 0.0
O304 O 0.19627 0.4922 0.3798 0.0
O305 O 0.09389 0.45878 0.43151 0.0
O306 O 0.16101 0.52632 0.45941 0.0
O307 O 0.14536 0.48148 0.25797 0.0
Sc308 Sc 0.50726 0.67472 0.41719 0.0
Sc309 Sc 0.54546 0.6595 0.49915 0.0
Sc310 Sc 0.56076 0.69039 0.33501 0.0
O311 O 0.53781 0.67489 0.41716 0.0
C312 C 0.51173 0.66045 0.25587 0.0
C313 C 0.49064 0.62521 0.48816 0.0
C314 C 0.56398 0.64447 0.364 0.0
C315 C 0.52603 0.68905 0.57855 0.0
C316 C 0.53988 0.72436 0.34644 0.0
C317 C 0.59463 0.70545 0.46947 0.0
O318 O 0.49992 0.66153 0.3084 0.0
O319 O 0.51071 0.62994 0.50924 0.0
O320 O 0.5692 0.66321 0.33101 0.0
O321 O 0.51306 0.68783 0.52606 0.0
O322 O 0.55538 0.71985 0.32545 0.0
O323 O 0.58111 0.68677 0.50275 0.0
O324 O 0.52205 0.7098 0.38088 0.0
O325 O 0.5387 0.67966 0.57756 0.0
O326 O 0.58936 0.71073 0.40878 0.0
O327 O 0.48721 0.63962 0.45346 0.0
O328 O 0.53381 0.67012 0.25672 0.0
O329 O 0.55357 0.63919 0.42491 0.0
Sc330 Sc 0.34272 0.50658 0.91933 0.0
Sc331 Sc 0.32778 0.45342 0.83614 0.0
Sc332 Sc 0.35822 0.46862 0.00158 0.0
O333 O 0.34292 0.47622 0.919 0.0
C334 C 0.39228 0.52353 0.99 0.0
C335 C 0.35691 0.50262 0.75743 0.0
C336 C 0.37374 0.45031 0.86647 0.0
C337 C 0.29324 0.47359 0.84882 0.0
C338 C 0.3285 0.48794 0.08076 0.0
C339 C 0.31257 0.41933 0.97049 0.0
O340 O 0.37779 0.52675 0.955 0.0
O341 O 0.34775 0.48058 0.75799 0.0
O342 O 0.37865 0.46034 0.92806 0.0
O343 O 0.30762 0.49138 0.88375 0.0
O344 O 0.33788 0.47526 0.07988 0.0
O345 O 0.30761 0.42453 0.90916 0.0
O346 O 0.32976 0.50088 0.0282 0.0
O347 O 0.29804 0.45837 0.82688 0.0
O348 O 0.33096 0.43297 0.00494 0.0
O349 O 0.35564 0.51415 0.81042 0.0
O350 O 0.38771 0.50355 0.01167 0.0
O351 O 0.35531 0.4455 0.83222 0.0
Sc352 Sc 0.5613 0.87934 0.83303 0.0
Sc353 Sc 0.546 0.89473 0.99778 0.0
Sc354 Sc 0.50805 0.84121 0.91588 0.0
O355 O 0.53844 0.87174 0.91559 0.0
C356 C 0.51214 0.85967 0.75431 0.0
C357 C 0.56454 0.92849 0.86276 0.0
C358 C 0.49115 0.8739 0.98618 0.0
C359 C 0.59522 0.89814 0.96763 0.0
C360 C 0.54087 0.82454 0.8453 0.0
C361 C 0.52661 0.84575 0.07751 0.0
O362 O 0.53419 0.87249 0.75497 0.0
O363 O 0.55421 0.92331 0.92383 0.0
O364 O 0.4879 0.85614 0.95143 0.0
O365 O 0.59002 0.88776 0.90662 0.0
O366 O 0.52315 0.8212 0.88048 0.0
O367 O 0.53929 0.86782 0.07646 0.0
O368 O 0.55609 0.84454 0.82325 0.0
O369 O 0.58163 0.90312 0.00128 0.0
O370 O 0.51373 0.83401 0.0249 0.0
O371 O 0.56958 0.91492 0.82924 0.0
O372 O 0.50058 0.84667 0.80693 0.0
O373 O 0.51114 0.88934 0.00763 0.0
Sc374 Sc 0.13532 0.68748 0.83494 0.0
Sc375 Sc 0.12001 0.65707 0.0001 0.0
Sc376 Sc 0.17349 0.67252 0.91828 0.0
O377 O 0.14296 0.67235 0.91778 0.0
C378 C 0.15493 0.65783 0.75692 0.0
C379 C 0.0862 0.64163 0.86529 0.0
C380 C 0.14092 0.62308 0.98959 0.0
C381 C 0.11664 0.70286 0.96899 0.0
C382 C 0.19011 0.72185 0.84661 0.0
C383 C 0.16902 0.68698 0.07935 0.0
O384 O 0.14207 0.66702 0.75736 0.0
O385 O 0.09143 0.63647 0.92628 0.0
O386 O 0.15861 0.63752 0.95447 0.0
O387 O 0.12708 0.70798 0.90811 0.0
O388 O 0.19349 0.70757 0.88225 0.0
O389 O 0.14695 0.67758 0.07836 0.0
O390 O 0.17011 0.71701 0.82452 0.0
O391 O 0.11152 0.68426 0.00278 0.0
O392 O 0.18073 0.68565 0.02702 0.0
O393 O 0.09973 0.66025 0.83178 0.0
O394 O 0.16798 0.65939 0.80955 0.0
O395 O 0.1255 0.62767 0.01097 0.0
H396 H 0.03373 0.16095 0.5357 0.0
H397 H 0.05397 0.23318 0.5121 0.0
H398 H 0.06541 0.16668 0.45647 0.0
H399 H 0.08608 0.23903 0.43317 0.0
H400 H 0.11552 0.17928 0.27982 0.0
H401 H 0.08087 0.1777 0.32857 0.0
H402 H 0.12325 0.23713 0.46299 0.0
H403 H 0.15825 0.23881 0.41442 0.0
C404 C 0.04464 0.17793 0.51207 0.0
C405 C 0.04137 0.19659 0.52991 0.0
C406 C 0.06276 0.18122 0.46664 0.0
C407 C 0.07828 0.20334 0.439 0.0
C408 C 0.07442 0.22183 0.45407 0.0
C409 C 0.05593 0.21842 0.49856 0.0
C410 C 0.11761 0.19228 0.319 0.0
C411 C 0.13976 0.20894 0.34418 0.0
C412 C 0.09768 0.19133 0.34682 0.0
C413 C 0.09936 0.20711 0.40005 0.0
C414 C 0.12147 0.22481 0.42167 0.0
C415 C 0.1415 0.22569 0.39409 0.0
H416 H 0.77595 0.92691 0.41966 0.0
H417 H 0.83375 0.94202 0.27904 0.0
H418 H 0.77776 0.89366 0.46886 0.0
H419 H 0.83552 0.90916 0.32857 0.0
H420 H 0.85393 0.87962 0.53462 0.0
H421 H 0.84764 0.90575 0.45777 0.0
H422 H 0.7753 0.85386 0.43658 0.0
H423 H 0.7817 0.8274 0.51285 0.0
C424 C 0.78869 0.92293 0.39821 0.0
C425 C 0.80496 0.93744 0.34636 0.0
C426 C 0.78967 0.90385 0.42618 0.0
C427 C 0.80697 0.89906 0.40299 0.0
C428 C 0.82221 0.91265 0.34801 0.0
C429 C 0.82116 0.93152 0.31979 0.0
C430 C 0.83683 0.87356 0.51194 0.0
C431 C 0.81836 0.85147 0.52929 0.0
C432 C 0.83321 0.8885 0.46799 0.0
C433 C 0.81095 0.88183 0.44155 0.0
C434 C 0.7926 0.85941 0.45654 0.0
C435 C 0.79634 0.84423 0.49942 0.0
H436 H 0.13664 0.98161 0.53667 0.0
H437 H 0.18893 0.96189 0.51049 0.0
H438 H 0.11062 0.9499 0.45757 0.0
H439 H 0.16261 0.92976 0.43167 0.0
H440 H 0.09055 0.85731 0.4117 0.0
H441 H 0.12372 0.89232 0.46104 0.0
H442 H 0.10606 0.93476 0.32926 0.0
H443 H 0.07315 0.90011 0.27975 0.0
C444 C 0.14276 0.97081 0.51254 0.0
C445 C 0.16481 0.97425 0.52957 0.0
C446 C 0.12788 0.95266 0.46718 0.0
C447 C 0.13456 0.93729 0.43877 0.0
C448 C 0.157 0.9413 0.45315 0.0
C449 C 0.17212 0.9598 0.49757 0.0
C450 C 0.09401 0.87408 0.39211 0.0
C451 C 0.07888 0.87582 0.34269 0.0
C452 C 0.11307 0.89412 0.42014 0.0
C453 C 0.11728 0.91624 0.3995 0.0
C454 C 0.10305 0.91794 0.3468 0.0
C455 C 0.08416 0.89801 0.31851 0.0
H456 H 0.16064 0.03082 0.96039 0.0
H457 H 0.23208 0.04884 0.98983 0.0
H458 H 0.16679 0.06274 0.03937 0.0
H459 H 0.23835 0.08116 0.06844 0.0
H460 H 0.17976 0.11232 0.2191 0.0
H461 H 0.17729 0.07742 0.16889 0.0
H462 H 0.23785 0.11921 0.03821 0.0
H463 H 0.24041 0.15449 0.08814 0.0
C464 C 0.17751 0.04129 0.98517 0.0
C465 C 0.19584 0.0373 0.9692 0.0
C466 C 0.18104 0.05955 0.03044 0.0
C467 C 0.20309 0.07449 0.05973 0.0
C468 C 0.22122 0.06996 0.04627 0.0
C469 C 0.21756 0.05134 0.00198 0.0
C470 C 0.19282 0.11422 0.18043 0.0
C471 C 0.21008 0.13632 0.15672 0.0
C472 C 0.19135 0.09415 0.15175 0.0
C473 C 0.2072 0.09562 0.09918 0.0
C474 C 0.22545 0.1176 0.07899 0.0
C475 C 0.22685 0.1378 0.10737 0.0
H476 H 0.86016 0.09101 0.07957 0.0
H477 H 0.90166 0.07322 0.21657 0.0
H478 H 0.89572 0.12379 0.03108 0.0
H479 H 0.93679 0.10564 0.16773 0.0
H480 H 0.98463 0.13527 0.9613 0.0
H481 H 0.95215 0.10945 0.03843 0.0
H482 H 0.93366 0.16265 0.06425 0.0
H483 H 0.96656 0.18877 0.98767 0.0
C484 C 0.87675 0.09429 0.10037 0.0
C485 C 0.87799 0.07918 0.15102 0.0
C486 C 0.89709 0.11311 0.07282 0.0
C487 C 0.91897 0.11704 0.0952 0.0
C488 C 0.92015 0.10282 0.14895 0.0
C489 C 0.89994 0.08421 0.17679 0.0
C490 C 0.97403 0.14168 0.98508 0.0
C491 C 0.97817 0.16403 0.96883 0.0
C492 C 0.95544 0.12692 0.0292 0.0
C493 C 0.94034 0.13405 0.05694 0.0
C494 C 0.945 0.15674 0.04324 0.0
C495 C 0.96395 0.17172 0.00017 0.0
H496 H 0.87933 0.85387 0.95757 0.0
H497 H 0.8264 0.78215 0.98483 0.0
H498 H 0.9053 0.84777 0.03566 0.0
H499 H 0.85267 0.77591 0.06256 0.0
H500 H 0.92431 0.77456 0.08276 0.0
H501 H 0.89143 0.77685 0.03282 0.0
H502 H 0.90963 0.83712 0.16437 0.0
H503 H 0.9422 0.83493 0.2145 0.0
C504 C 0.87308 0.83693 0.98166 0.0
C505 C 0.85083 0.81852 0.9653 0.0
C506 C 0.88793 0.83342 0.02642 0.0
C507 C 0.88103 0.81132 0.05488 0.0
C508 C 0.85844 0.79308 0.04101 0.0
C509 C 0.84336 0.79672 0.99722 0.0
C510 C 0.92102 0.788 0.10215 0.0
C511 C 0.9362 0.80478 0.15173 0.0
C512 C 0.90214 0.78925 0.07375 0.0
C513 C 0.89817 0.80734 0.09418 0.0
C514 C 0.91246 0.82319 0.14697 0.0
C515 C 0.93115 0.82188 0.17561 0.0
H516 H 0.90144 0.83641 0.71238 0.0
H517 H 0.85882 0.77655 0.57886 0.0
H518 H 0.93613 0.83795 0.66432 0.0
H519 H 0.89391 0.7782 0.53092 0.0
H520 H 0.98406 0.85407 0.45995 0.0
H521 H 0.95201 0.84861 0.53696 0.0
H522 H 0.93095 0.77624 0.56278 0.0
H523 H 0.96342 0.78182 0.48607 0.0
C524 C 0.89938 0.82335 0.67347 0.0
C525 C 0.87724 0.80658 0.64854 0.0
C526 C 0.91934 0.82428 0.64605 0.0
C527 C 0.91773 0.80837 0.59343 0.0
C528 C 0.89564 0.79063 0.5718 0.0
C529 C 0.87555 0.78976 0.59899 0.0
C530 C 0.97299 0.83715 0.48373 0.0
C531 C 0.97628 0.8184 0.46728 0.0
C532 C 0.95464 0.83401 0.52783 0.0
C533 C 0.93891 0.81195 0.55549 0.0
C534 C 0.94276 0.79338 0.5418 0.0
C535 C 0.96147 0.79664 0.49866 0.0
H536 H 0.23932 0.08833 0.58289 0.0
H537 H 0.17992 0.07168 0.71774 0.0
H538 H 0.23773 0.12175 0.53446 0.0
H539 H 0.17843 0.10483 0.66926 0.0
H540 H 0.23435 0.18766 0.48765 0.0
H541 H 0.24004 0.16086 0.56453 0.0
H542 H 0.16738 0.10996 0.5429 0.0
H543 H 0.1618 0.13647 0.46583 0.0
C544 C 0.22624 0.092 0.60325 0.0
C545 C 0.20952 0.07702 0.65329 0.0
C546 C 0.2254 0.1112 0.57574 0.0
C547 C 0.20778 0.11571 0.59757 0.0
C548 C 0.192 0.10159 0.65074 0.0
C549 C 0.1929 0.08256 0.67844 0.0
C550 C 0.21949 0.171 0.50122 0.0
C551 C 0.1976 0.16414 0.47101 0.0
C552 C 0.22282 0.1556 0.54445 0.0
C553 C 0.20419 0.1333 0.55939 0.0
C554 C 0.18204 0.12709 0.53284 0.0
C555 C 0.17882 0.14226 0.48868 0.0
H556 H 0.87858 0.03234 0.4607 0.0
H557 H 0.8277 0.05396 0.48607 0.0
H558 H 0.90529 0.06403 0.53858 0.0
H559 H 0.85472 0.08607 0.56385 0.0
H560 H 0.92739 0.15755 0.58479 0.0
H561 H 0.89384 0.1229 0.53524 0.0
H562 H 0.91071 0.07957 0.66558 0.0
H563 H 0.94401 0.11386 0.71511 0.0
C564 C 0.87292 0.04357 0.48441 0.0
C565 C 0.85105 0.04064 0.46751 0.0
C566 C 0.8882 0.06172 0.52909 0.0
C567 C 0.88213 0.07761 0.55701 0.0
C568 C 0.85987 0.07414 0.54272 0.0
C569 C 0.84435 0.05564 0.49892 0.0
C570 C 0.9237 0.14067 0.60393 0.0
C571 C 0.9387 0.13857 0.65302 0.0
C572 C 0.90441 0.12082 0.57579 0.0
C573 C 0.89983 0.09854 0.59601 0.0
C574 C 0.91399 0.09651 0.64828 0.0
C575 C 0.93311 0.11624 0.6766 0.0
H576 H 0.8543 0.98338 0.03712 0.0
H577 H 0.78223 0.96353 0.01196 0.0
H578 H 0.84838 0.95121 0.95981 0.0
H579 H 0.77618 0.93092 0.93499 0.0
H580 H 0.83556 0.90131 0.78141 0.0
H581 H 0.83734 0.93592 0.83124 0.0
H582 H 0.77797 0.89347 0.96567 0.0
H583 H 0.77609 0.85845 0.91601 0.0
C584 C 0.83732 0.97244 0.01359 0.0
C585 C 0.81877 0.97602 0.0302 0.0
C586 C 0.83391 0.95402 0.96932 0.0
C587 C 0.81178 0.93851 0.94168 0.0
C588 C 0.79338 0.94258 0.95588 0.0
C589 C 0.79691 0.96136 0.99917 0.0
C590 C 0.82262 0.89918 0.82091 0.0
C591 C 0.80591 0.877 0.84565 0.0
C592 C 0.82369 0.9191 0.84935 0.0
C593 C 0.80798 0.91739 0.9028 0.0
C594 C 0.79025 0.89527 0.92419 0.0
C595 C 0.78924 0.87522 0.89597 0.0
H596 H 0.11363 0.93985 0.77956 0.0
H597 H 0.15591 0.92286 0.9156 0.0
H598 H 0.07882 0.90673 0.82734 0.0
H599 H 0.12074 0.88951 0.96332 0.0
H600 H 0.05138 0.82416 0.01126 0.0
H601 H 0.0838 0.85052 0.93335 0.0
H602 H 0.06269 0.90195 0.95368 0.0
H603 H 0.03069 0.87589 0.03175 0.0
C604 C 0.11558 0.92889 0.81893 0.0
C605 C 0.13766 0.93434 0.84471 0.0
C606 C 0.09556 0.90988 0.84619 0.0
C607 C 0.09705 0.8957 0.89954 0.0
C608 C 0.11909 0.9001 0.92188 0.0
C609 C 0.13923 0.91927 0.89479 0.0
C610 C 0.05331 0.84084 0.99715 0.0
C611 C 0.03851 0.848 0.02731 0.0
C612 C 0.07198 0.85598 0.95332 0.0
C613 C 0.07581 0.8783 0.93776 0.0
C614 C 0.06007 0.88479 0.96419 0.0
C615 C 0.04175 0.86989 0.00894 0.0
H616 H 0.07537 0.17833 0.78243 0.0
H617 H 0.09319 0.23849 0.91508 0.0
H618 H 0.10837 0.17652 0.83077 0.0
H619 H 0.12639 0.23654 0.96343 0.0
H620 H 0.19142 0.23231 0.01299 0.0
H621 H 0.16504 0.23817 0.93458 0.0
H622 H 0.11355 0.16571 0.95687 0.0
H623 H 0.13965 0.15995 0.0353 0.0
C624 C 0.08648 0.1914 0.82117 0.0
C625 C 0.08131 0.20834 0.84579 0.0
C626 C 0.10542 0.19032 0.8488 0.0
C627 C 0.1198 0.20621 0.90139 0.0
C628 C 0.11566 0.22412 0.92259 0.0
C629 C 0.09656 0.22516 0.89515 0.0
C630 C 0.17473 0.21752 0.99923 0.0
C631 C 0.16756 0.19565 0.03006 0.0
C632 C 0.15957 0.22095 0.95509 0.0
C633 C 0.13722 0.20244 0.93993 0.0
C634 C 0.13073 0.18028 0.96704 0.0
C635 C 0.14565 0.17697 0.01203 0.0
H636 H 0.82359 0.57153 0.75566 0.0
H637 H 0.78053 0.51109 0.62495 0.0
H638 H 0.78864 0.57013 0.80402 0.0
H639 H 0.74602 0.50986 0.67301 0.0
H640 H 0.69752 0.49466 0.87369 0.0
H641 H 0.72975 0.49971 0.79853 0.0
H642 H 0.75197 0.57237 0.77265 0.0
H643 H 0.71934 0.5672 0.84782 0.0
C644 C 0.80678 0.55821 0.73639 0.0
C645 C 0.80493 0.54119 0.68745 0.0
C646 C 0.78678 0.5575 0.76374 0.0
C647 C 0.76461 0.53973 0.74273 0.0
C648 C 0.76285 0.52354 0.69092 0.0
C649 C 0.78271 0.52428 0.66352 0.0
C650 C 0.70889 0.51156 0.85031 0.0
C651 C 0.70588 0.5305 0.86633 0.0
C652 C 0.72736 0.51448 0.80727 0.0
C653 C 0.74346 0.53648 0.78012 0.0
C654 C 0.73989 0.55526 0.79332 0.0
C655 C 0.72109 0.55224 0.83551 0.0
H656 H 0.51945 0.19618 0.8252 0.0
H657 H 0.44788 0.16641 0.88846 0.0
H658 H 0.5158 0.22373 0.74735 0.0
H659 H 0.44451 0.19522 0.8169 0.0
H660 H 0.44161 0.24815 0.67256 0.0
H661 H 0.4426 0.21398 0.71645 0.0
H662 H 0.51583 0.25725 0.7632 0.0
H663 H 0.51494 0.29039 0.71433 0.0
C664 C 0.50283 0.1954 0.8213 0.0
C665 C 0.48391 0.17921 0.86203 0.0
C666 C 0.50076 0.21146 0.77786 0.0
C667 C 0.48003 0.21241 0.77709 0.0
C668 C 0.46072 0.19515 0.815 0.0
C669 C 0.4626 0.17857 0.85633 0.0
C670 C 0.45788 0.25009 0.69167 0.0
C671 C 0.4782 0.27184 0.68979 0.0
C672 C 0.4585 0.23056 0.71722 0.0
C673 C 0.47935 0.23253 0.74339 0.0
C674 C 0.49956 0.25452 0.74154 0.0
C675 C 0.49904 0.27375 0.71422 0.0
H676 H 0.81932 0.32741 0.82789 0.0
H677 H 0.84927 0.28566 0.89013 0.0
H678 H 0.79163 0.29617 0.75047 0.0
H679 H 0.8203 0.25343 0.81897 0.0
H680 H 0.76709 0.19776 0.67358 0.0
H681 H 0.80136 0.23278 0.71819 0.0
H682 H 0.75821 0.26269 0.76749 0.0
H683 H 0.72503 0.22886 0.71818 0.0
C684 C 0.82006 0.31155 0.82405 0.0
C685 C 0.83634 0.30885 0.86438 0.0
C686 C 0.80395 0.29341 0.78078 0.0
C687 C 0.80303 0.27174 0.77982 0.0
C688 C 0.82034 0.2697 0.81734 0.0
C689 C 0.83699 0.28818 0.85846 0.0
C690 C 0.76521 0.21204 0.69341 0.0
C691 C 0.7435 0.2107 0.69201 0.0
C692 C 0.78479 0.23212 0.71934 0.0
C693 C 0.78287 0.25096 0.74625 0.0
C694 C 0.7609 0.2492 0.74513 0.0
C695 C 0.74165 0.22955 0.71753 0.0
H696 H 0.83884 0.45854 0.41332 0.0
H697 H 0.90843 0.48393 0.49216 0.0
H698 H 0.83773 0.42405 0.36723 0.0
H699 H 0.90698 0.44831 0.44984 0.0
H700 H 0.90374 0.39395 0.2839 0.0
H701 H 0.90742 0.42737 0.34976 0.0
H702 H 0.83389 0.38902 0.39688 0.0
H703 H 0.8302 0.35657 0.32559 0.0
C704 C 0.85386 0.45652 0.42155 0.0
C705 C 0.8737 0.47387 0.45638 0.0
C706 C 0.85314 0.43651 0.39595 0.0
C707 C 0.87205 0.43289 0.40603 0.0
C708 C 0.89209 0.45043 0.44061 0.0
C709 C 0.89298 0.47085 0.46493 0.0
C710 C 0.88854 0.39258 0.31018 0.0
C711 C 0.86668 0.37282 0.29985 0.0
C712 C 0.89061 0.41176 0.34794 0.0
C713 C 0.87086 0.41131 0.37727 0.0
C714 C 0.84937 0.39049 0.37268 0.0
C715 C 0.84723 0.37166 0.33303 0.0
H716 H 0.5252 0.4226 0.41112 0.0
H717 H 0.56812 0.40706 0.54919 0.0
H718 H 0.56011 0.45663 0.36461 0.0
H719 H 0.60262 0.4408 0.50279 0.0
H720 H 0.62894 0.52316 0.31984 0.0
H721 H 0.59641 0.49612 0.39618 0.0
H722 H 0.61926 0.446 0.37715 0.0
H723 H 0.65138 0.47272 0.30067 0.0
C724 C 0.54196 0.42665 0.43255 0.0
C725 C 0.54386 0.4118 0.48269 0.0
C726 C 0.56193 0.44619 0.40621 0.0
C727 C 0.58407 0.45116 0.42956 0.0
C728 C 0.58581 0.43719 0.4831 0.0
C729 C 0.56598 0.41781 0.50947 0.0
C730 C 0.62736 0.50663 0.33397 0.0
C731 C 0.64268 0.50001 0.30464 0.0
C732 C 0.60863 0.4911 0.37685 0.0
C733 C 0.60527 0.46895 0.39224 0.0
C734 C 0.62151 0.46302 0.36671 0.0
C735 C 0.6399 0.4783 0.32292 0.0
H736 H 0.60848 0.16857 0.55051 0.0
H737 H 0.59197 0.10908 0.41612 0.0
H738 H 0.57542 0.17006 0.50138 0.0
H739 H 0.55862 0.11068 0.36702 0.0
H740 H 0.49272 0.11414 0.31982 0.0
H741 H 0.51947 0.10846 0.39699 0.0
H742 H 0.57054 0.18104 0.37441 0.0
H743 H 0.54409 0.18662 0.29702 0.0
C744 C 0.59765 0.15558 0.51115 0.0
C745 C 0.6032 0.13893 0.48632 0.0
C746 C 0.57867 0.15648 0.4831 0.0
C747 C 0.56461 0.14067 0.42987 0.0
C748 C 0.56913 0.12303 0.40834 0.0
C749 C 0.58829 0.12218 0.43622 0.0
C750 C 0.50941 0.12899 0.33321 0.0
C751 C 0.51634 0.15086 0.30267 0.0
C752 C 0.52478 0.12567 0.37661 0.0
C753 C 0.54709 0.14427 0.39138 0.0
C754 C 0.55339 0.1664 0.36446 0.0
C755 C 0.53826 0.16962 0.32014 0.0
H756 H 0.52532 0.10697 0.92054 0.0
H757 H 0.56745 0.16591 0.05801 0.0
H758 H 0.56053 0.10897 0.8726 0.0
H759 H 0.60232 0.1678 0.0099 0.0
H760 H 0.64939 0.18602 0.80172 0.0
H761 H 0.61766 0.17955 0.8819 0.0
H762 H 0.598 0.10737 0.90195 0.0
H763 H 0.63022 0.11399 0.82205 0.0
C764 C 0.54198 0.12 0.94169 0.0
C765 C 0.54352 0.13656 0.99206 0.0
C766 C 0.56213 0.12106 0.91449 0.0
C767 C 0.58414 0.13872 0.93703 0.0
C768 C 0.58559 0.15421 0.99096 0.0
C769 C 0.56555 0.15309 0.01836 0.0
C770 C 0.63871 0.16894 0.82493 0.0
C771 C 0.64227 0.15054 0.806 0.0
C772 C 0.62057 0.16522 0.87089 0.0
C773 C 0.60532 0.14292 0.89788 0.0
C774 C 0.60948 0.12469 0.88164 0.0
C775 C 0.62801 0.12854 0.83663 0.0
H776 H 0.85882 0.41355 0.06189 0.0
H777 H 0.90432 0.4156 0.89158 0.0
H778 H 0.85629 0.44518 0.00311 0.0
H779 H 0.90139 0.4469 0.83294 0.0
H780 H 0.84846 0.46151 0.70711 0.0
H781 H 0.85732 0.43763 0.78456 0.0
H782 H 0.88631 0.49203 0.94449 0.0
H783 H 0.87796 0.51678 0.86553 0.0
C784 C 0.86869 0.42108 0.01292 0.0
C785 C 0.88152 0.41183 0.98084 0.0
C786 C 0.86732 0.43925 0.97971 0.0
C787 C 0.87854 0.44825 0.91359 0.0
C788 C 0.89261 0.44015 0.88406 0.0
C789 C 0.89428 0.42225 0.91771 0.0
C790 C 0.85653 0.46854 0.75892 0.0
C791 C 0.86252 0.4912 0.77988 0.0
C792 C 0.86176 0.45483 0.80295 0.0
C793 C 0.87276 0.46319 0.86965 0.0
C794 C 0.87795 0.48537 0.89278 0.0
C795 C 0.87309 0.49942 0.84779 0.0
H796 H 0.59123 0.49411 0.92733 0.0
H797 H 0.60769 0.44797 0.04475 0.0
H798 H 0.55763 0.46069 0.87427 0.0
H799 H 0.57413 0.41463 0.99082 0.0
H800 H 0.50436 0.35836 0.88863 0.0
H801 H 0.52909 0.39121 0.96934 0.0
H802 H 0.5611 0.43454 0.7824 0.0
H803 H 0.53715 0.40227 0.70347 0.0
C804 C 0.5875 0.4769 0.94296 0.0
C805 C 0.60253 0.4738 0.98903 0.0
C806 C 0.5682 0.45775 0.91262 0.0
C807 C 0.56346 0.43509 0.92778 0.0
C808 C 0.5773 0.43189 0.97844 0.0
C809 C 0.59667 0.45105 0.00873 0.0
C810 C 0.51661 0.37501 0.86545 0.0
C811 C 0.51915 0.37775 0.79009 0.0
C812 C 0.53069 0.39372 0.9113 0.0
C813 C 0.54686 0.41546 0.88201 0.0
C814 C 0.54861 0.41816 0.80667 0.0
C815 C 0.53507 0.39957 0.76145 0.0
H816 H 0.44236 0.19091 0.2437 0.0
H817 H 0.50303 0.23343 0.11323 0.0
H818 H 0.44465 0.22603 0.29384 0.0
H819 H 0.50522 0.2682 0.16361 0.0
H820 H 0.52169 0.31441 0.37277 0.0
H821 H 0.51564 0.28273 0.29291 0.0
H822 H 0.44395 0.26398 0.26515 0.0
H823 H 0.45013 0.2961 0.34479 0.0
C824 C 0.45587 0.20765 0.22459 0.0
C825 C 0.47273 0.20926 0.17532 0.0
C826 C 0.45711 0.22776 0.25308 0.0
C827 C 0.47527 0.24981 0.23312 0.0
C828 C 0.4912 0.25142 0.18057 0.0
C829 C 0.48989 0.23142 0.15176 0.0
C830 C 0.5048 0.30392 0.3481 0.0
C831 C 0.48642 0.30775 0.36471 0.0
C832 C 0.50133 0.2858 0.30229 0.0
C833 C 0.47929 0.27084 0.27305 0.0
C834 C 0.46108 0.27522 0.28722 0.0
C835 C 0.46468 0.29371 0.3321 0.0
H836 H 0.78169 0.27825 0.12181 0.0
H837 H 0.8235 0.25702 0.24315 0.0
H838 H 0.74671 0.24615 0.17303 0.0
H839 H 0.78819 0.2247 0.29413 0.0
H840 H 0.701 0.2148 0.38227 0.0
H841 H 0.73271 0.24085 0.30317 0.0
H842 H 0.74962 0.18705 0.26422 0.0
H843 H 0.71751 0.16073 0.34302 0.0
C844 C 0.78349 0.26657 0.15852 0.0
C845 C 0.80555 0.2705 0.17913 0.0
C846 C 0.76337 0.24817 0.18788 0.0
C847 C 0.76474 0.23307 0.23799 0.0
C848 C 0.78663 0.23602 0.25526 0.0
C849 C 0.80686 0.25461 0.22631 0.0
C850 C 0.71111 0.20834 0.35542 0.0
C851 C 0.70675 0.18573 0.3687 0.0
C852 C 0.72925 0.22323 0.31003 0.0
C853 C 0.7437 0.216 0.27784 0.0
C854 C 0.7388 0.19309 0.28867 0.0
C855 C 0.72031 0.17798 0.33313 0.0
H856 H 0.82213 0.55483 0.45396 0.0
H857 H 0.84283 0.52802 0.27407 0.0
H858 H 0.79719 0.56188 0.3753 0.0
H859 H 0.8175 0.53516 0.19352 0.0
H860 H 0.73949 0.51382 0.13542 0.0
H861 H 0.77445 0.51625 0.18526 0.0
H862 H 0.79444 0.58369 0.27422 0.0
H863 H 0.75917 0.58111 0.22588 0.0
C864 C 0.82161 0.55088 0.39686 0.0
C865 C 0.83415 0.54072 0.36989 0.0
C866 C 0.80748 0.55512 0.35156 0.0
C867 C 0.80534 0.5491 0.27805 0.0
C868 C 0.81876 0.53988 0.25008 0.0
C869 C 0.83328 0.5359 0.29576 0.0
C870 C 0.75148 0.52936 0.16462 0.0
C871 C 0.74618 0.54702 0.17816 0.0
C872 C 0.77169 0.53084 0.19255 0.0
C873 C 0.78708 0.55003 0.23445 0.0
C874 C 0.78269 0.56849 0.24315 0.0
C875 C 0.76245 0.56699 0.21548 0.0
H876 H 0.36517 0.82543 0.20485 0.0
H877 H 0.38282 0.8968 0.17599 0.0
H878 H 0.39694 0.83173 0.12498 0.0
H879 H 0.41499 0.90321 0.09651 0.0
H880 H 0.48843 0.90545 0.07631 0.0
H881 H 0.45315 0.90285 0.12624 0.0
H882 H 0.41141 0.84235 0.99513 0.0
H883 H 0.44632 0.84488 0.94488 0.0
C884 C 0.37552 0.84231 0.18002 0.0
C885 C 0.37148 0.86058 0.19642 0.0
C886 C 0.39369 0.84593 0.13423 0.0
C887 C 0.40848 0.868 0.10486 0.0
C888 C 0.40389 0.88606 0.11873 0.0
C889 C 0.38536 0.88232 0.16354 0.0
C890 C 0.47175 0.89191 0.05693 0.0
C891 C 0.47029 0.87515 0.00753 0.0
C892 C 0.45155 0.89048 0.08531 0.0
C893 C 0.42958 0.87222 0.06507 0.0
C894 C 0.42813 0.85642 0.01231 0.0
C895 C 0.44821 0.85792 0.98362 0.0
H896 H 0.18995 0.54584 0.20791 0.0
H897 H 0.1186 0.492 0.1797 0.0
H898 H 0.18345 0.57132 0.12862 0.0
H899 H 0.11199 0.51778 0.10087 0.0
H900 H 0.10964 0.589 0.08087 0.0
H901 H 0.11239 0.55642 0.13106 0.0
H902 H 0.17254 0.57494 0.9986 0.0
H903 H 0.16986 0.60721 0.94806 0.0
C904 C 0.17302 0.53929 0.18334 0.0
C905 C 0.15483 0.51694 0.1997 0.0
C906 C 0.16929 0.55385 0.13792 0.0
C907 C 0.14717 0.54653 0.1089 0.0
C908 C 0.12916 0.52384 0.12281 0.0
C909 C 0.13303 0.50905 0.16722 0.0
C910 C 0.12313 0.58583 0.06127 0.0
C911 C 0.13975 0.60103 0.01136 0.0
C912 C 0.12465 0.56712 0.08981 0.0
C913 C 0.14285 0.56337 0.06922 0.0
C914 C 0.15852 0.57763 0.01604 0.0
C915 C 0.15692 0.59614 0.98719 0.0
H916 H 0.42619 0.52665 0.08276 0.0
H917 H 0.4085 0.56814 0.94545 0.0
H918 H 0.45887 0.56217 0.13162 0.0
H919 H 0.44089 0.60329 0.99457 0.0
H920 H 0.52329 0.63254 0.17974 0.0
H921 H 0.4976 0.59991 0.10155 0.0
H922 H 0.44466 0.61892 0.12239 0.0
H923 H 0.47005 0.65115 0.20098 0.0
C924 C 0.4295 0.54323 0.06188 0.0
C925 C 0.41441 0.54446 0.0111 0.0
C926 C 0.44828 0.56357 0.08967 0.0
C927 C 0.45222 0.58547 0.06741 0.0
C928 C 0.43807 0.58665 0.01336 0.0
C929 C 0.41949 0.56643 0.98531 0.0
C930 C 0.50642 0.63012 0.16576 0.0
C931 C 0.49866 0.64441 0.19621 0.0
C932 C 0.49166 0.61132 0.12175 0.0
C933 C 0.46913 0.60684 0.10621 0.0
C934 C 0.462 0.62205 0.13295 0.0
C935 C 0.47652 0.6405 0.17797 0.0
H936 H 0.5722 0.82193 0.7539 0.0
H937 H 0.51266 0.77981 0.88912 0.0
H938 H 0.57 0.78668 0.70536 0.0
H939 H 0.51056 0.7449 0.84038 0.0
H940 H 0.56518 0.7171 0.6559 0.0
H941 H 0.57144 0.74931 0.73502 0.0
H942 H 0.49925 0.72933 0.71269 0.0
H943 H 0.4931 0.69752 0.63329 0.0
C944 C 0.55898 0.80526 0.7744 0.0
C945 C 0.54237 0.80377 0.82446 0.0
C946 C 0.55779 0.78508 0.74682 0.0
C947 C 0.53993 0.76307 0.76859 0.0
C948 C 0.52431 0.76163 0.82199 0.0
C949 C 0.52556 0.7817 0.84982 0.0
C950 C 0.55053 0.71921 0.66975 0.0
C951 C 0.52862 0.7048 0.63861 0.0
C952 C 0.55418 0.73777 0.71432 0.0
C953 C 0.53587 0.74187 0.72968 0.0
C954 C 0.51366 0.7265 0.7023 0.0
C955 C 0.51012 0.70829 0.65678 0.0
H956 H 0.31599 0.80081 0.62871 0.0
H957 H 0.29733 0.85379 0.65751 0.0
H958 H 0.28442 0.77504 0.70865 0.0
H959 H 0.26534 0.82772 0.73707 0.0
H960 H 0.23502 0.73809 0.88794 0.0
H961 H 0.26976 0.77084 0.83818 0.0
H962 H 0.22755 0.78896 0.70704 0.0
H963 H 0.19245 0.75595 0.75651 0.0
C964 C 0.30546 0.80712 0.65356 0.0
C965 C 0.30913 0.82929 0.63704 0.0
C966 C 0.2874 0.79239 0.69939 0.0
C967 C 0.27237 0.79937 0.72873 0.0
C968 C 0.27663 0.82192 0.71486 0.0
C969 C 0.29505 0.83687 0.66999 0.0
C970 C 0.23299 0.74918 0.8493 0.0
C971 C 0.21085 0.74407 0.82525 0.0
C972 C 0.25297 0.76797 0.82089 0.0
C973 C 0.25134 0.78226 0.76829 0.0
C974 C 0.22928 0.77825 0.74787 0.0
C975 C 0.20919 0.75928 0.77596 0.0
H976 H 0.16138 0.44913 0.66004 0.0
H977 H 0.21455 0.52074 0.63191 0.0
H978 H 0.1873 0.44303 0.73977 0.0
H979 H 0.24016 0.51477 0.71208 0.0
H980 H 0.27687 0.50204 0.8913 0.0
H981 H 0.24412 0.50408 0.84182 0.0
H982 H 0.2261 0.44398 0.70956 0.0
H983 H 0.25912 0.44186 0.75871 0.0
C984 C 0.17831 0.46372 0.67271 0.0
C985 C 0.18599 0.48543 0.63987 0.0
C986 C 0.19317 0.46016 0.71769 0.0
C987 C 0.21573 0.4784 0.73181 0.0
C988 C 0.2228 0.50044 0.70262 0.0
C989 C 0.20816 0.50387 0.65665 0.0
C990 C 0.2658 0.48898 0.85248 0.0
C991 C 0.27096 0.47202 0.82797 0.0
C992 C 0.24701 0.49019 0.82425 0.0
C993 C 0.23276 0.47437 0.77138 0.0
C994 C 0.23678 0.45635 0.75059 0.0
C995 C 0.25576 0.45521 0.77852 0.0
H996 H 0.23773 0.50281 0.38764 0.0
H997 H 0.19539 0.44282 0.2543 0.0
H998 H 0.27254 0.50457 0.33954 0.0
H999 H 0.23055 0.44472 0.20619 0.0
H1000 H 0.32062 0.52122 0.13565 0.0
H1001 H 0.2887 0.51548 0.21371 0.0
H1002 H 0.26748 0.44294 0.23538 0.0
H1003 H 0.29978 0.44879 0.15736 0.0
C1004 C 0.23576 0.48976 0.34878 0.0
C1005 C 0.21366 0.47289 0.32392 0.0
C1006 C 0.25579 0.49082 0.32129 0.0
C1007 C 0.25428 0.47496 0.2686 0.0
C1008 C 0.23223 0.45712 0.24712 0.0
C1009 C 0.21209 0.4561 0.27443 0.0
C1010 C 0.30955 0.50419 0.15875 0.0
C1011 C 0.31273 0.48549 0.14065 0.0
C1012 C 0.29127 0.50089 0.20351 0.0
C1013 C 0.2755 0.47871 0.23031 0.0
C1014 C 0.2793 0.46018 0.21511 0.0
C1015 C 0.29792 0.46359 0.17122 0.0
H1016 H 0.51092 0.74036 0.38699 0.0
H1017 H 0.57182 0.75874 0.25751 0.0
H1018 H 0.50912 0.77332 0.33809 0.0
H1019 H 0.56988 0.79187 0.2086 0.0
H1020 H 0.56544 0.85651 0.15646 0.0
H1021 H 0.57111 0.83031 0.23626 0.0
H1022 H 0.49884 0.77856 0.2115 0.0
H1023 H 0.49327 0.80449 0.13172 0.0
C1024 C 0.52416 0.75159 0.34889 0.0
C1025 C 0.5413 0.74659 0.32527 0.0
C1026 C 0.52308 0.7705 0.32092 0.0
C1027 C 0.53918 0.78501 0.26899 0.0
C1028 C 0.55729 0.78104 0.24891 0.0
C1029 C 0.55832 0.76198 0.27668 0.0
C1030 C 0.55065 0.8398 0.16996 0.0
C1031 C 0.52889 0.83252 0.13802 0.0
C1032 C 0.55396 0.82474 0.21492 0.0
C1033 C 0.53545 0.80236 0.2298 0.0
C1034 C 0.51339 0.79576 0.20159 0.0
C1035 C 0.51019 0.81059 0.1558 0.0
H1036 H 0.27434 0.77811 0.3865 0.0
H1037 H 0.25729 0.82042 0.25083 0.0
H1038 H 0.24125 0.7433 0.33857 0.0
H1039 H 0.22396 0.78524 0.2029 0.0
H1040 H 0.15862 0.71596 0.15457 0.0
H1041 H 0.18506 0.74841 0.23224 0.0
H1042 H 0.23622 0.72692 0.21295 0.0
H1043 H 0.21007 0.69487 0.13518 0.0
C1044 C 0.26338 0.78007 0.34715 0.0
C1045 C 0.26879 0.80216 0.32158 0.0
C1046 C 0.24438 0.76004 0.31978 0.0
C1047 C 0.23018 0.76152 0.26648 0.0
C1048 C 0.23456 0.78358 0.2443 0.0
C1049 C 0.25372 0.80373 0.27151 0.0
C1050 C 0.17525 0.7178 0.16888 0.0
C1051 C 0.1823 0.70287 0.13907 0.0
C1052 C 0.19044 0.7365 0.21256 0.0
C1053 C 0.21272 0.74026 0.22833 0.0
C1054 C 0.2191 0.72439 0.20228 0.0
C1055 C 0.20414 0.70603 0.15771 0.0
H1056 H 0.18844 0.65025 0.70235 0.0
H1057 H 0.11579 0.62854 0.68114 0.0
H1058 H 0.18299 0.6183 0.62488 0.0
H1059 H 0.11024 0.59618 0.60379 0.0
H1060 H 0.17074 0.5675 0.45061 0.0
H1061 H 0.17202 0.60207 0.49886 0.0
H1062 H 0.11268 0.55951 0.63331 0.0
H1063 H 0.11127 0.52457 0.58506 0.0
C1064 C 0.17142 0.63897 0.67951 0.0
C1065 C 0.15258 0.64194 0.69751 0.0
C1066 C 0.16828 0.62067 0.63511 0.0
C1067 C 0.14615 0.60466 0.60861 0.0
C1068 C 0.12745 0.6082 0.62383 0.0
C1069 C 0.1307 0.62685 0.66733 0.0
C1070 C 0.1577 0.56535 0.48977 0.0
C1071 C 0.14112 0.54316 0.51488 0.0
C1072 C 0.15849 0.58524 0.51734 0.0
C1073 C 0.14264 0.58351 0.57038 0.0
C1074 C 0.12506 0.56135 0.59213 0.0
C1075 C 0.12433 0.54134 0.56472 0.0
H1076 H 0.38512 0.49237 0.67717 0.0
H1077 H 0.36443 0.5439 0.70462 0.0
H1078 H 0.41675 0.51892 0.59728 0.0
H1079 H 0.39569 0.57018 0.62474 0.0
H1080 H 0.48865 0.59086 0.57624 0.0
H1081 H 0.45381 0.55749 0.62524 0.0
H1082 H 0.41101 0.57577 0.49772 0.0
H1083 H 0.44554 0.60897 0.44872 0.0
C1084 C 0.38686 0.50905 0.66427 0.0
C1085 C 0.37232 0.51609 0.697 0.0
C1086 C 0.4051 0.52431 0.61925 0.0
C1087 C 0.40875 0.54665 0.60509 0.0
C1088 C 0.39322 0.55302 0.6341 0.0
C1089 C 0.37532 0.53799 0.67996 0.0
C1090 C 0.47183 0.58752 0.55754 0.0
C1091 C 0.46997 0.60289 0.50946 0.0
C1092 C 0.45187 0.56832 0.58535 0.0
C1093 C 0.4297 0.56419 0.56583 0.0
C1094 C 0.42787 0.5787 0.51444 0.0
C1095 C 0.44773 0.59775 0.48641 0.0
H1096 H 0.42305 0.90385 0.58241 0.0
H1097 H 0.40624 0.84436 0.44766 0.0
H1098 H 0.45648 0.90225 0.6306 0.0
H1099 H 0.43942 0.84288 0.49588 0.0
H1100 H 0.47103 0.82624 0.69943 0.0
H1101 H 0.44464 0.83182 0.62186 0.0
H1102 H 0.4955 0.90452 0.60099 0.0
H1103 H 0.52218 0.89883 0.67842 0.0
C1104 C 0.42668 0.89075 0.562 0.0
C1105 C 0.41165 0.87401 0.51208 0.0
C1106 C 0.4459 0.8899 0.58937 0.0
C1107 C 0.45038 0.87226 0.56752 0.0
C1108 C 0.43621 0.85646 0.51443 0.0
C1109 C 0.41716 0.85736 0.48687 0.0
C1110 C 0.47684 0.84327 0.6766 0.0
C1111 C 0.49868 0.86206 0.69471 0.0
C1112 C 0.46174 0.84649 0.63215 0.0
C1113 C 0.46796 0.86865 0.60571 0.0
C1114 C 0.49023 0.88729 0.62098 0.0
C1115 C 0.50557 0.88396 0.66453 0.0
H1116 H 0.0593 0.27151 0.56874 0.0
H1117 H 0.05993 0.30504 0.76876 0.0
H1118 H 0.08248 0.30909 0.51102 0.0
H1119 H 0.08151 0.34279 0.71032 0.0
H1120 H 0.12863 0.41016 0.60345 0.0
H1121 H 0.11407 0.37258 0.66137 0.0
H1122 H 0.07981 0.33886 0.46159 0.0
H1123 H 0.09612 0.37659 0.40302 0.0
C1124 C 0.06452 0.28706 0.60032 0.0
C1125 C 0.0579 0.28544 0.67314 0.0
C1126 C 0.07758 0.30869 0.56704 0.0
C1127 C 0.08375 0.32932 0.60506 0.0
C1128 C 0.07759 0.32755 0.67894 0.0
C1129 C 0.06508 0.30586 0.71276 0.0
C1130 C 0.11835 0.3946 0.57181 0.0
C1131 C 0.1135 0.39621 0.49882 0.0
C1132 C 0.1097 0.37298 0.60521 0.0
C1133 C 0.0953 0.35235 0.56709 0.0
C1134 C 0.09108 0.35411 0.49306 0.0
C1135 C 0.10034 0.37578 0.45915 0.0
H1136 H 0.74038 0.775 0.55558 0.0
H1137 H 0.71306 0.77805 0.76478 0.0
H1138 H 0.7023 0.75995 0.50226 0.0
H1139 H 0.67465 0.76333 0.71041 0.0
H1140 H 0.60769 0.70338 0.6078 0.0
H1141 H 0.64547 0.72621 0.66317 0.0
H1142 H 0.67122 0.76671 0.46757 0.0
H1143 H 0.63316 0.74329 0.41087 0.0
C1144 C 0.72627 0.77271 0.59027 0.0
C1145 C 0.72978 0.7774 0.66496 0.0
C1146 C 0.70439 0.76429 0.55926 0.0
C1147 C 0.68529 0.76028 0.60189 0.0
C1148 C 0.68893 0.76593 0.67609 0.0
C1149 C 0.71097 0.77448 0.70727 0.0
C1150 C 0.6213 0.71722 0.57633 0.0
C1151 C 0.61739 0.72121 0.50419 0.0
C1152 C 0.64299 0.73054 0.60867 0.0
C1153 C 0.6615 0.74829 0.56997 0.0
C1154 C 0.65742 0.75296 0.49872 0.0
C1155 C 0.63558 0.73961 0.46624 0.0
H1156 H 0.25542 0.95618 0.76674 0.0
H1157 H 0.22239 0.95665 0.56678 0.0
H1158 H 0.27157 0.93458 0.70835 0.0
H1159 H 0.23678 0.93346 0.50913 0.0
H1160 H 0.29055 0.91971 0.40111 0.0
H1161 H 0.26921 0.93611 0.45966 0.0
H1162 H 0.26873 0.90195 0.65959 0.0
H1163 H 0.29166 0.8873 0.60169 0.0
C1164 C 0.25106 0.95099 0.71076 0.0
C1165 C 0.23779 0.95813 0.67114 0.0
C1166 C 0.26022 0.93847 0.67697 0.0
C1167 C 0.2558 0.93226 0.60314 0.0
C1168 C 0.24131 0.93839 0.56512 0.0
C1169 C 0.23275 0.95147 0.59836 0.0
C1170 C 0.28556 0.91554 0.45728 0.0
C1171 C 0.29281 0.90237 0.49699 0.0
C1172 C 0.27318 0.92484 0.49117 0.0
C1173 C 0.26723 0.92067 0.56522 0.0
C1174 C 0.27347 0.90628 0.6034 0.0
C1175 C 0.28639 0.89758 0.57002 0.0
H1176 H 0.27389 0.0395 0.94306 0.0
H1177 H 0.30179 0.07099 0.73548 0.0
H1178 H 0.31174 0.0625 0.99782 0.0
H1179 H 0.33995 0.09468 0.79135 0.0
H1180 H 0.40641 0.10065 0.89395 0.0
H1181 H 0.36884 0.0863 0.83793 0.0
H1182 H 0.3428 0.10015 0.03453 0.0
H1183 H 0.38069 0.11419 0.09193 0.0
C1184 C 0.28807 0.05156 0.90905 0.0
C1185 C 0.28482 0.05305 0.83434 0.0
C1186 C 0.30981 0.06501 0.94092 0.0
C1187 C 0.329 0.08038 0.89912 0.0
C1188 C 0.32558 0.08275 0.82499 0.0
C1189 C 0.3037 0.06927 0.79295 0.0
C1190 C 0.39278 0.1008 0.92554 0.0
C1191 C 0.39654 0.10824 0.99815 0.0
C1192 C 0.37122 0.0928 0.89281 0.0
C1193 C 0.35269 0.09197 0.93158 0.0
C1194 C 0.35664 0.10029 0.00333 0.0
C1195 C 0.37836 0.10842 0.03622 0.0
H1196 H 0.94272 0.23326 0.74184 0.0
H1197 H 0.97849 0.24227 0.94488 0.0
H1198 H 0.91822 0.24648 0.79927 0.0
H1199 H 0.95468 0.2559 0.00099 0.0
H1200 H 0.90283 0.27167 0.10039 0.0
H1201 H 0.91712 0.24792 0.04335 0.0
H1202 H 0.92497 0.28352 0.84081 0.0
H1203 H 0.91033 0.30651 0.89656 0.0
C1204 C 0.94527 0.23787 0.79863 0.0
C1205 C 0.96288 0.23707 0.83817 0.0
C1206 C 0.93128 0.24551 0.83158 0.0
C1207 C 0.93456 0.25242 0.9048 0.0
C1208 C 0.95142 0.25051 0.9449 0.0
C1209 C 0.96534 0.24295 0.91215 0.0
C1210 C 0.90725 0.27408 0.04345 0.0
C1211 C 0.90584 0.29128 0.00354 0.0
C1212 C 0.91555 0.26058 0.01077 0.0
C1213 C 0.92239 0.26392 0.93747 0.0
C1214 C 0.91969 0.28024 0.89698 0.0
C1215 C 0.91154 0.29369 0.92947 0.0
H1216 H 0.79401 0.74434 0.92795 0.0
H1217 H 0.75957 0.71036 0.73002 0.0
H1218 H 0.7794 0.7069 0.98683 0.0
H1219 H 0.74331 0.67277 0.78969 0.0
H1220 H 0.7227 0.60576 0.89895 0.0
H1221 H 0.74626 0.643 0.83972 0.0
H1222 H 0.74624 0.67791 0.03738 0.0
H1223 H 0.72414 0.64046 0.09738 0.0
C1224 C 0.78335 0.72872 0.89703 0.0
C1225 C 0.7779 0.73015 0.82455 0.0
C1226 C 0.77468 0.7072 0.93099 0.0
C1227 C 0.75973 0.68654 0.89394 0.0
C1228 C 0.755 0.68809 0.82025 0.0
C1229 C 0.76424 0.70966 0.78574 0.0
C1230 C 0.72818 0.62149 0.92987 0.0
C1231 C 0.72163 0.62031 0.00262 0.0
C1232 C 0.74148 0.6429 0.89572 0.0
C1233 C 0.74801 0.66374 0.93288 0.0
C1234 C 0.742 0.66243 0.00674 0.0
C1235 C 0.7292 0.64095 0.04142 0.0
H1236 H 0.9269 0.63878 0.60444 0.0
H1237 H 0.88461 0.60587 0.41692 0.0
H1238 H 0.9428 0.6765 0.54544 0.0
H1239 H 0.89911 0.64351 0.35924 0.0
H1240 H 0.95316 0.70843 0.23799 0.0
H1241 H 0.93152 0.67125 0.30008 0.0
H1242 H 0.93979 0.70726 0.50254 0.0
H1243 H 0.96265 0.74413 0.44071 0.0
C1244 C 0.92046 0.63979 0.55153 0.0
C1245 C 0.90463 0.61952 0.51512 0.0
C1246 C 0.92951 0.66143 0.5174 0.0
C1247 C 0.92254 0.66328 0.44662 0.0
C1248 C 0.90551 0.64292 0.41256 0.0
C1249 C 0.89693 0.62132 0.44598 0.0
C1250 C 0.95001 0.70828 0.29554 0.0
C1251 C 0.9597 0.72911 0.33458 0.0
C1252 C 0.9375 0.68695 0.33146 0.0
C1253 C 0.93397 0.686 0.40708 0.0
C1254 C 0.94262 0.70706 0.44495 0.0
C1255 C 0.95554 0.72828 0.40935 0.0
H1256 H 0.27677 0.24395 0.44245 0.0
H1257 H 0.30227 0.23035 0.24411 0.0
H1258 H 0.31429 0.25796 0.49842 0.0
H1259 H 0.34007 0.24397 0.30152 0.0
H1260 H 0.40926 0.30411 0.39234 0.0
H1261 H 0.37138 0.28115 0.33792 0.0
H1262 H 0.34311 0.24977 0.54526 0.0
H1263 H 0.38135 0.2735 0.60081 0.0
C1264 C 0.29033 0.2437 0.41077 0.0
C1265 C 0.28652 0.23636 0.33805 0.0
C1266 C 0.31187 0.2515 0.44349 0.0
C1267 C 0.33033 0.25221 0.40467 0.0
C1268 C 0.32631 0.24395 0.33282 0.0
C1269 C 0.30462 0.23605 0.2999 0.0
C1270 C 0.39506 0.29221 0.42662 0.0
C1271 C 0.39832 0.29102 0.50148 0.0
C1272 C 0.3733 0.27878 0.39495 0.0
C1273 C 0.35406 0.26367 0.43706 0.0
C1274 C 0.3575 0.2615 0.51135 0.0
C1275 C 0.37942 0.27499 0.54321 0.0
H1276 H 0.79476 0.05966 0.42814 0.0
H1277 H 0.75994 0.05851 0.23038 0.0
H1278 H 0.78036 0.08279 0.48622 0.0
H1279 H 0.74384 0.0801 0.28931 0.0
H1280 H 0.72334 0.12689 0.39695 0.0
H1281 H 0.7466 0.11282 0.33791 0.0
H1282 H 0.7477 0.07932 0.53748 0.0
H1283 H 0.72593 0.09506 0.59713 0.0
C1284 C 0.78405 0.06453 0.39708 0.0
C1285 C 0.77846 0.05739 0.32484 0.0
C1286 C 0.77549 0.07755 0.43061 0.0
C1287 C 0.76048 0.08316 0.39343 0.0
C1288 C 0.75559 0.07658 0.31999 0.0
C1289 C 0.76472 0.06409 0.28588 0.0
C1290 C 0.72901 0.11687 0.42831 0.0
C1291 C 0.72287 0.11203 0.50154 0.0
C1292 C 0.74214 0.10852 0.39427 0.0
C1293 C 0.7489 0.09449 0.43202 0.0
C1294 C 0.74329 0.09032 0.50628 0.0
C1295 C 0.73068 0.09925 0.5408 0.0
H1296 H 0.63411 0.89968 0.90854 0.0
H1297 H 0.60784 0.91235 0.10682 0.0
H1298 H 0.67213 0.91445 0.96571 0.0
H1299 H 0.64556 0.92745 0.16263 0.0
H1300 H 0.7133 0.94386 0.26428 0.0
H1301 H 0.67506 0.91998 0.20905 0.0
H1302 H 0.70276 0.95223 0.00229 0.0
H1303 H 0.74067 0.97543 0.05639 0.0
C1304 C 0.63634 0.90542 0.96428 0.0
C1305 C 0.61795 0.90512 0.00249 0.0
C1306 C 0.65815 0.91398 0.99704 0.0
C1307 C 0.662 0.9223 0.06881 0.0
C1308 C 0.64328 0.921 0.10772 0.0
C1309 C 0.62162 0.91255 0.07513 0.0
C1310 C 0.71126 0.94558 0.20689 0.0
C1311 C 0.73004 0.96185 0.16523 0.0
C1312 C 0.68932 0.93198 0.17522 0.0
C1313 C 0.68574 0.93426 0.10114 0.0
C1314 C 0.70481 0.94976 0.05914 0.0
C1315 C 0.72659 0.96333 0.09064 0.0
H1316 H 0.03998 0.77165 0.05792 0.0
H1317 H 0.07255 0.77682 0.26466 0.0
H1318 H 0.06289 0.75663 0.00355 0.0
H1319 H 0.0961 0.7621 0.20919 0.0
H1320 H 0.10277 0.7017 0.10836 0.0
H1321 H 0.08803 0.72468 0.16396 0.0
H1322 H 0.10067 0.76369 0.96599 0.0
H1323 H 0.11511 0.74011 0.90911 0.0
C1324 C 0.05224 0.76981 0.09183 0.0
C1325 C 0.05409 0.7751 0.1662 0.0
C1326 C 0.06564 0.76142 0.06018 0.0
C1327 C 0.08131 0.75801 0.10185 0.0
C1328 C 0.08396 0.76424 0.17565 0.0
C1329 C 0.07055 0.77278 0.20745 0.0
C1330 C 0.10257 0.71523 0.0764 0.0
C1331 C 0.1098 0.71875 0.00359 0.0
C1332 C 0.09434 0.72865 0.10885 0.0
C1333 C 0.09305 0.74602 0.06958 0.0
C1334 C 0.10115 0.75024 0.99759 0.0
C1335 C 0.10952 0.7368 0.965 0.0
H1336 H 0.2461 0.27396 0.0604 0.0
H1337 H 0.23734 0.30075 0.26364 0.0
H1338 H 0.26113 0.31186 0.00555 0.0
H1339 H 0.25213 0.33896 0.20768 0.0
H1340 H 0.31273 0.40686 0.11082 0.0
H1341 H 0.28996 0.36897 0.16591 0.0
H1342 H 0.25322 0.34189 0.96469 0.0
H1343 H 0.27653 0.38007 0.90849 0.0
C1344 C 0.24716 0.2879 0.09341 0.0
C1345 C 0.24082 0.28432 0.167 0.0
C1346 C 0.25556 0.30966 0.06146 0.0
C1347 C 0.25795 0.32855 0.10208 0.0
C1348 C 0.25077 0.32483 0.17501 0.0
C1349 C 0.2422 0.30291 0.20706 0.0
C1350 C 0.29972 0.39292 0.07807 0.0
C1351 C 0.29676 0.3965 0.00464 0.0
C1352 C 0.28643 0.37118 0.11016 0.0
C1353 C 0.26978 0.35229 0.06984 0.0
C1354 C 0.26611 0.35602 0.99712 0.0
C1355 C 0.27939 0.37791 0.96493 0.0
H1356 H 0.94483 0.3673 0.27486 0.0
H1357 H 0.9698 0.40817 0.07946 0.0
H1358 H 0.9824 0.3907 0.33095 0.0
H1359 H 0.00763 0.43211 0.13689 0.0
H1360 H 0.0772 0.44135 0.22593 0.0
H1361 H 0.03919 0.42588 0.17157 0.0
H1362 H 0.01064 0.42828 0.37911 0.0
H1363 H 0.04897 0.44343 0.4345 0.0
C1364 C 0.95828 0.38144 0.24387 0.0
C1365 C 0.95432 0.38558 0.17197 0.0
C1366 C 0.97983 0.39508 0.27663 0.0
C1367 C 0.99811 0.41329 0.23856 0.0
C1368 C 0.99398 0.41803 0.1675 0.0
C1369 C 0.97229 0.40436 0.13461 0.0
C1370 C 0.0629 0.43876 0.26022 0.0
C1371 C 0.0661 0.44326 0.33504 0.0
C1372 C 0.04108 0.43012 0.22864 0.0
C1373 C 0.02178 0.42568 0.27089 0.0
C1374 C 0.02512 0.43121 0.34517 0.0
C1375 C 0.04709 0.44 0.3769 0.0
H1376 H 0.60933 0.57289 0.06381 0.0
H1377 H 0.63762 0.57298 0.27432 0.0
H1378 H 0.58536 0.58719 0.11884 0.0
H1379 H 0.61442 0.58768 0.3283 0.0
H1380 H 0.56309 0.60553 0.41983 0.0
H1381 H 0.57686 0.58164 0.36136 0.0
H1382 H 0.59377 0.62399 0.16916 0.0
H1383 H 0.57963 0.64724 0.22611 0.0
C1384 C 0.61026 0.5757 0.12172 0.0
C1385 C 0.62571 0.57218 0.16428 0.0
C1386 C 0.59664 0.58401 0.15328 0.0
C1387 C 0.59809 0.58881 0.22805 0.0
C1388 C 0.61261 0.58402 0.27084 0.0
C1389 C 0.62619 0.57583 0.23948 0.0
C1390 C 0.56949 0.60953 0.36484 0.0
C1391 C 0.57057 0.62857 0.32834 0.0
C1392 C 0.57745 0.59589 0.33132 0.0
C1393 C 0.58656 0.60095 0.26053 0.0
C1394 C 0.58664 0.61935 0.22322 0.0
C1395 C 0.57877 0.63293 0.25654 0.0
H1396 H 0.37395 0.93881 0.2245 0.0
H1397 H 0.40504 0.96632 0.43286 0.0
H1398 H 0.39694 0.97683 0.17067 0.0
H1399 H 0.42866 0.00466 0.37798 0.0
H1400 H 0.43488 0.07135 0.27553 0.0
H1401 H 0.42022 0.03363 0.33118 0.0
H1402 H 0.43489 0.00787 0.13547 0.0
H1403 H 0.44925 0.04584 0.07851 0.0
C1404 C 0.38592 0.95294 0.25886 0.0
C1405 C 0.38732 0.94953 0.33348 0.0
C1406 C 0.39934 0.97477 0.22757 0.0
C1407 C 0.41459 0.99389 0.2699 0.0
C1408 C 0.41684 0.99033 0.34397 0.0
C1409 C 0.4034 0.96836 0.37541 0.0
C1410 C 0.43515 0.05774 0.24411 0.0
C1411 C 0.44293 0.0616 0.17188 0.0
C1412 C 0.42696 0.03611 0.2766 0.0
C1413 C 0.42627 0.01763 0.2379 0.0
C1414 C 0.43492 0.02167 0.16657 0.0
C1415 C 0.44322 0.04345 0.13395 0.0
H1416 H 0.57899 0.94113 0.72376 0.0
H1417 H 0.56559 0.96723 0.92119 0.0
H1418 H 0.5939 0.9788 0.66772 0.0
H1419 H 0.58016 0.00518 0.86377 0.0
H1420 H 0.64098 0.07393 0.7741 0.0
H1421 H 0.61786 0.03598 0.82798 0.0
H1422 H 0.58632 0.00813 0.62048 0.0
H1423 H 0.61016 0.04642 0.56546 0.0
C1424 C 0.57898 0.95486 0.75521 0.0
C1425 C 0.57141 0.95116 0.8277 0.0
C1426 C 0.58731 0.97649 0.72247 0.0
C1427 C 0.58836 0.99514 0.76109 0.0
C1428 C 0.57989 0.99126 0.83267 0.0
C1429 C 0.57144 0.96948 0.86558 0.0
C1430 C 0.62906 0.0598 0.73963 0.0
C1431 C 0.62778 0.06322 0.66491 0.0
C1432 C 0.61552 0.038 0.771 0.0
C1433 C 0.60025 0.01888 0.72875 0.0
C1434 C 0.59815 0.02243 0.65451 0.0
C1435 C 0.61172 0.04439 0.62295 0.0
H1436 H 0.07295 0.64457 0.72804 0.0
H1437 H 0.04806 0.60274 0.92157 0.0
H1438 H 0.03544 0.62157 0.67181 0.0
H1439 H 0.01023 0.57903 0.8637 0.0
H1440 H 0.94036 0.56929 0.77711 0.0
H1441 H 0.97833 0.58427 0.83099 0.0
H1442 H 0.00719 0.58527 0.62081 0.0
H1443 H 0.96892 0.57079 0.5659 0.0
C1444 C 0.05953 0.63027 0.75859 0.0
C1445 C 0.06353 0.6258 0.83011 0.0
C1446 C 0.03798 0.61682 0.72566 0.0
C1447 C 0.01968 0.59841 0.76299 0.0
C1448 C 0.02385 0.59329 0.83359 0.0
C1449 C 0.04556 0.60681 0.86676 0.0
C1450 C 0.9547 0.5725 0.74204 0.0
C1451 C 0.95157 0.56919 0.66668 0.0
C1452 C 0.97654 0.58089 0.77337 0.0
C1453 C 0.99596 0.5862 0.73043 0.0
C1454 C 0.99267 0.58174 0.65546 0.0
C1455 C 0.97071 0.5733 0.62393 0.0
H1456 H 0.44726 0.40563 0.57077 0.0
H1457 H 0.43865 0.37036 0.77454 0.0
H1458 H 0.43311 0.42954 0.627 0.0
H1459 H 0.4242 0.39365 0.82952 0.0
H1460 H 0.40965 0.44668 0.92773 0.0
H1461 H 0.43257 0.43151 0.87062 0.0
H1462 H 0.39597 0.42286 0.66967 0.0
H1463 H 0.37369 0.43835 0.72556 0.0
C1464 C 0.44252 0.40306 0.62745 0.0
C1465 C 0.44384 0.38582 0.66762 0.0
C1466 C 0.43433 0.4167 0.6597 0.0
C1467 C 0.42741 0.41349 0.73289 0.0
C1468 C 0.42962 0.39688 0.77345 0.0
C1469 C 0.43769 0.38327 0.74138 0.0
C1470 C 0.40678 0.44185 0.87113 0.0
C1471 C 0.38956 0.44342 0.83175 0.0
C1472 C 0.41981 0.43305 0.83842 0.0
C1473 C 0.41602 0.42578 0.76554 0.0
C1474 C 0.39959 0.42845 0.72552 0.0
C1475 C 0.38657 0.43713 0.75809 0.0
loop_
_geom_bond_atom_site_label_1
_geom_bond_atom_site_label_2
_geom_bond_distance
_geom_bond_site_symmetry_2
_ccdc_geom_bond_type
Sc0 O3 2.025 . S
Sc0 O10 2.105 . S
Sc0 O13 2.105 1_455 S
Sc0 O16 2.105 1_455 S
Sc0 O19 2.105 . S
Sc1 O3 2.025 . S
Sc1 O11 2.105 . S
Sc1 O15 2.105 1_455 S
Sc1 O17 2.105 1_455 S
Sc1 O21 2.105 . S
Sc2 O3 2.025 . S
Sc2 O12 2.105 . S
Sc2 O14 2.105 1_455 S
Sc2 O18 2.105 1_455 S
Sc2 O20 2.105 . S
O3 Sc0 2.025 . S
O3 Sc1 2.025 . S
O3 Sc2 2.025 . S
C4 O10 1.268 . S
C4 O20 1.268 . S
C5 O11 1.268 . S
C5 O19 1.268 . S
C6 O12 1.268 . S
C6 O21 1.268 . S
C7 O13 1.268 . S
C7 O17 1.268 . S
C8 O14 1.268 . S
C8 O16 1.268 . S
C9 O15 1.268 . S
C9 O18 1.268 . S
O10 Sc0 2.105 . S
O10 C4 1.268 . S
O11 Sc1 2.105 . S
O11 C5 1.268 . S
O12 Sc2 2.105 . S
O12 C6 1.268 . S
O13 Sc0 2.105 1_655 S
O13 C7 1.268 . S
O14 Sc2 2.105 1_655 S
O14 C8 1.268 . S
O15 Sc1 2.105 1_655 S
O15 C9 1.268 . S
O16 Sc0 2.105 1_655 S
O16 C8 1.268 . S
O17 Sc1 2.105 1_655 S
O17 C7 1.268 . S
O18 Sc2 2.105 1_655 S
O18 C9 1.268 . S
O19 Sc0 2.105 . S
O19 C5 1.268 . S
O20 Sc2 2.105 . S
O20 C4 1.268 . S
O21 Sc1 2.105 . S
O21 C6 1.268 . S
Sc22 O25 2.025 . S
Sc22 O32 2.105 . S
Sc22 O35 2.105 . S
Sc22 O38 2.105 . S
Sc22 O41 2.105 . S
Sc23 O25 2.025 . S
Sc23 O33 2.105 . S
Sc23 O37 2.105 . S
Sc23 O39 2.105 . S
Sc23 O43 2.105 . S
Sc24 O25 2.025 . S
Sc24 O34 2.105 . S
Sc24 O36 2.105 . S
Sc24 O40 2.105 . S
Sc24 O42 2.105 . S
O25 Sc22 2.025 . S
O25 Sc23 2.025 . S
O25 Sc24 2.025 . S
C26 O32 1.268 . S
C26 O42 1.268 . S
C27 O33 1.268 . S
C27 O41 1.268 . S
C28 O34 1.268 . S
C28 O43 1.268 . S
C29 O35 1.268 . S
C29 O39 1.268 . S
C30 O36 1.268 . S
C30 O38 1.268 . S
C31 O37 1.268 . S
C31 O40 1.268 . S
O32 Sc22 2.105 . S
O32 C26 1.268 . S
O33 Sc23 2.105 . S
O33 C27 1.268 . S
O34 Sc24 2.105 . S
O34 C28 1.268 . S
O35 Sc22 2.105 . S
O35 C29 1.268 . S
O36 Sc24 2.105 . S
O36 C30 1.268 . S
O37 Sc23 2.105 . S
O37 C31 1.268 . S
O38 Sc22 2.105 . S
O38 C30 1.268 . S
O39 Sc23 2.105 . S
O39 C29 1.268 . S
O40 Sc24 2.105 . S
O40 C31 1.268 . S
O41 Sc22 2.105 . S
O41 C27 1.268 . S
O42 Sc24 2.105 . S
O42 C26 1.268 . S
O43 Sc23 2.105 . S
O43 C28 1.268 . S
Sc44 O47 2.025 . S
Sc44 O54 2.105 1_545 S
Sc44 O57 2.105 . S
Sc44 O60 2.105 . S
Sc44 O63 2.105 1_545 S
Sc45 O47 2.025 . S
Sc45 O55 2.105 1_545 S
Sc45 O59 2.105 . S
Sc45 O61 2.105 . S
Sc45 O65 2.105 1_545 S
Sc46 O47 2.025 . S
Sc46 O56 2.105 1_545 S
Sc46 O58 2.105 . S
Sc46 O62 2.105 . S
Sc46 O64 2.105 1_545 S
O47 Sc44 2.025 . S
O47 Sc45 2.025 . S
O47 Sc46 2.025 . S
C48 O54 1.268 . S
C48 O64 1.268 . S
C49 O55 1.268 . S
C49 O63 1.268 . S
C50 O56 1.268 . S
C50 O65 1.268 . S
C51 O57 1.268 . S
C51 O61 1.268 . S
C52 O58 1.268 . S
C52 O60 1.268 . S
C53 O59 1.268 . S
C53 O62 1.268 . S
O54 Sc44 2.105 1_565 S
O54 C48 1.268 . S
O55 Sc45 2.105 1_565 S
O55 C49 1.268 . S
O56 Sc46 2.105 1_565 S
O56 C50 1.268 . S
O57 Sc44 2.105 . S
O57 C51 1.268 . S
O58 Sc46 2.105 . S
O58 C52 1.268 . S
O59 Sc45 2.105 . S
O59 C53 1.268 . S
O60 Sc44 2.105 . S
O60 C52 1.268 . S
O61 Sc45 2.105 . S
O61 C51 1.268 . S
O62 Sc46 2.105 . S
O62 C53 1.268 . S
O63 Sc44 2.105 1_565 S
O63 C49 1.268 . S
O64 Sc46 2.105 1_565 S
O64 C48 1.268 . S
O65 Sc45 2.105 1_565 S
O65 C50 1.268 . S
Sc66 O69 2.025 . S
Sc66 O76 2.105 . S
Sc66 O79 2.105 1_455 S
Sc66 O82 2.105 1_455 S
Sc66 O85 2.105 . S
Sc67 O69 2.025 . S
Sc67 O77 2.105 . S
Sc67 O81 2.105 1_455 S
Sc67 O83 2.105 1_455 S
Sc67 O87 2.105 . S
Sc68 O69 2.025 . S
Sc68 O78 2.105 . S
Sc68 O80 2.105 1_455 S
Sc68 O84 2.105 1_455 S
Sc68 O86 2.105 . S
O69 Sc66 2.025 . S
O69 Sc67 2.025 . S
O69 Sc68 2.025 . S
C70 O76 1.268 . S
C70 O86 1.268 . S
C71 O77 1.268 . S
C71 O85 1.268 . S
C72 O78 1.268 . S
C72 O87 1.268 . S
C73 O79 1.268 . S
C73 O83 1.268 . S
C74 O80 1.268 . S
C74 O82 1.268 . S
C75 O81 1.268 . S
C75 O84 1.268 . S
O76 Sc66 2.105 . S
O76 C70 1.268 . S
O77 Sc67 2.105 . S
O77 C71 1.268 . S
O78 Sc68 2.105 . S
O78 C72 1.268 . S
O79 Sc66 2.105 1_655 S
O79 C73 1.268 . S
O80 Sc68 2.105 1_655 S
O80 C74 1.268 . S
O81 Sc67 2.105 1_655 S
O81 C75 1.268 . S
O82 Sc66 2.105 1_655 S
O82 C74 1.268 . S
O83 Sc67 2.105 1_655 S
O83 C73 1.268 . S
O84 Sc68 2.105 1_655 S
O84 C75 1.268 . S
O85 Sc66 2.105 . S
O85 C71 1.268 . S
O86 Sc68 2.105 . S
O86 C70 1.268 . S
O87 Sc67 2.105 . S
O87 C72 1.268 . S
Sc88 O91 2.025 . S
Sc88 O98 2.105 . S
Sc88 O101 2.105 . S
Sc88 O104 2.105 . S
Sc88 O107 2.105 . S
Sc89 O91 2.025 . S
Sc89 O99 2.105 . S
Sc89 O103 2.105 . S
Sc89 O105 2.105 . S
Sc89 O109 2.105 . S
Sc90 O91 2.025 . S
Sc90 O100 2.105 . S
Sc90 O102 2.105 . S
Sc90 O106 2.105 . S
Sc90 O108 2.105 . S
O91 Sc88 2.025 . S
O91 Sc89 2.025 . S
O91 Sc90 2.025 . S
C92 O98 1.268 . S
C92 O108 1.268 . S
C93 O99 1.268 . S
C93 O107 1.268 . S
C94 O100 1.268 . S
C94 O109 1.268 . S
C95 O101 1.268 . S
C95 O105 1.268 . S
C96 O102 1.268 . S
C96 O104 1.268 . S
C97 O103 1.268 . S
C97 O106 1.268 . S
O98 Sc88 2.105 . S
O98 C92 1.268 . S
O99 Sc89 2.105 . S
O99 C93 1.268 . S
O100 Sc90 2.105 . S
O100 C94 1.268 . S
O101 Sc88 2.105 . S
O101 C95 1.268 . S
O102 Sc90 2.105 . S
O102 C96 1.268 . S
O103 Sc89 2.105 . S
O103 C97 1.268 . S
O104 Sc88 2.105 . S
O104 C96 1.268 . S
O105 Sc89 2.105 . S
O105 C95 1.268 . S
O106 Sc90 2.105 . S
O106 C97 1.268 . S
O107 Sc88 2.105 . S
O107 C93 1.268 . S
O108 Sc90 2.105 . S
O108 C92 1.268 . S
O109 Sc89 2.105 . S
O109 C94 1.268 . S
Sc110 O113 2.025 . S
Sc110 O120 2.105 1_545 S
Sc110 O123 2.105 . S
Sc110 O126 2.105 . S
Sc110 O129 2.105 1_545 S
Sc111 O113 2.025 . S
Sc111 O121 2.105 1_545 S
Sc111 O125 2.105 . S
Sc111 O127 2.105 . S
Sc111 O131 2.105 1_545 S
Sc112 O113 2.025 . S
Sc112 O122 2.105 1_545 S
Sc112 O124 2.105 . S
Sc112 O128 2.105 . S
Sc112 O130 2.105 1_545 S
O113 Sc110 2.025 . S
O113 Sc111 2.025 . S
O113 Sc112 2.025 . S
C114 O120 1.268 . S
C114 O130 1.268 . S
C115 O121 1.268 . S
C115 O129 1.268 . S
C116 O122 1.268 . S
C116 O131 1.268 . S
C117 O123 1.268 . S
C117 O127 1.268 . S
C118 O124 1.268 . S
C118 O126 1.268 . S
C119 O125 1.268 . S
C119 O128 1.268 . S
O120 Sc110 2.105 1_565 S
O120 C114 1.268 . S
O121 Sc111 2.105 1_565 S
O121 C115 1.268 . S
O122 Sc112 2.105 1_565 S
O122 C116 1.268 . S
O123 Sc110 2.105 . S
O123 C117 1.268 . S
O124 Sc112 2.105 . S
O124 C118 1.268 . S
O125 Sc111 2.105 . S
O125 C119 1.268 . S
O126 Sc110 2.105 . S
O126 C118 1.268 . S
O127 Sc111 2.105 . S
O127 C117 1.268 . S
O128 Sc112 2.105 . S
O128 C119 1.268 . S
O129 Sc110 2.105 1_565 S
O129 C115 1.268 . S
O130 Sc112 2.105 1_565 S
O130 C114 1.268 . S
O131 Sc111 2.105 1_565 S
O131 C116 1.268 . S
Sc132 O135 2.025 . S
Sc132 O142 2.105 1_554 S
Sc132 O145 2.105 . S
Sc132 O148 2.105 . S
Sc132 O151 2.105 . S
Sc133 O135 2.025 . S
Sc133 O143 2.105 . S
Sc133 O147 2.105 . S
Sc133 O149 2.105 . S
Sc133 O153 2.105 . S
Sc134 O135 2.025 1_556 S
Sc134 O144 2.105 1_556 S
Sc134 O146 2.105 . S
Sc134 O150 2.105 1_556 S
Sc134 O152 2.105 . S
O135 Sc132 2.025 . S
O135 Sc133 2.025 . S
O135 Sc134 2.025 1_554 S
C136 O142 1.268 . S
C136 O152 1.268 . S
C137 O143 1.268 . S
C137 O151 1.268 . S
C138 O144 1.268 . S
C138 O153 1.268 . S
C139 O145 1.268 . S
C139 O149 1.268 . S
C140 O146 1.268 . S
C140 O148 1.268 1_556 S
C141 O147 1.268 . S
C141 O150 1.268 . S
O142 Sc132 2.105 1_556 S
O142 C136 1.268 . S
O143 Sc133 2.105 . S
O143 C137 1.268 . S
O144 Sc134 2.105 1_554 S
O144 C138 1.268 . S
O145 Sc132 2.105 . S
O145 C139 1.268 . S
O146 Sc134 2.105 . S
O146 C140 1.268 . S
O147 Sc133 2.105 . S
O147 C141 1.268 . S
O148 Sc132 2.105 . S
O148 C140 1.268 1_554 S
O149 Sc133 2.105 . S
O149 C139 1.268 . S
O150 Sc134 2.105 1_554 S
O150 C141 1.268 . S
O151 Sc132 2.105 . S
O151 C137 1.268 . S
O152 Sc134 2.105 . S
O152 C136 1.268 . S
O153 Sc133 2.105 . S
O153 C138 1.268 . S
Sc154 O157 2.025 . S
Sc154 O164 2.105 1_554 S
Sc154 O167 2.105 . S
Sc154 O170 2.105 . S
Sc154 O173 2.105 . S
Sc155 O157 2.025 . S
Sc155 O165 2.105 . S
Sc155 O169 2.105 . S
Sc155 O171 2.105 . S
Sc155 O175 2.105 . S
Sc156 O157 2.025 1_556 S
Sc156 O166 2.105 1_556 S
Sc156 O168 2.105 . S
Sc156 O172 2.105 1_556 S
Sc156 O174 2.105 . S
O157 Sc154 2.025 . S
O157 Sc155 2.025 . S
O157 Sc156 2.025 1_554 S
C158 O164 1.268 . S
C158 O174 1.268 . S
C159 O165 1.268 . S
C159 O173 1.268 . S
C160 O166 1.268 . S
C160 O175 1.268 . S
C161 O167 1.268 . S
C161 O171 1.268 . S
C162 O168 1.268 . S
C162 O170 1.268 1_556 S
C163 O169 1.268 . S
C163 O172 1.268 . S
O164 Sc154 2.105 1_556 S
O164 C158 1.268 . S
O165 Sc155 2.105 . S
O165 C159 1.268 . S
O166 Sc156 2.105 1_554 S
O166 C160 1.268 . S
O167 Sc154 2.105 . S
O167 C161 1.268 . S
O168 Sc156 2.105 . S
O168 C162 1.268 . S
O169 Sc155 2.105 . S
O169 C163 1.268 . S
O170 Sc154 2.105 . S
O170 C162 1.268 1_554 S
O171 Sc155 2.105 . S
O171 C161 1.268 . S
O172 Sc156 2.105 1_554 S
O172 C163 1.268 . S
O173 Sc154 2.105 . S
O173 C159 1.268 . S
O174 Sc156 2.105 . S
O174 C158 1.268 . S
O175 Sc155 2.105 . S
O175 C160 1.268 . S
Sc176 O179 2.025 . S
Sc176 O186 2.105 1_554 S
Sc176 O189 2.105 . S
Sc176 O192 2.105 . S
Sc176 O195 2.105 . S
Sc177 O179 2.025 . S
Sc177 O187 2.105 . S
Sc177 O191 2.105 . S
Sc177 O193 2.105 . S
Sc177 O197 2.105 . S
Sc178 O179 2.025 1_556 S
Sc178 O188 2.105 1_556 S
Sc178 O190 2.105 . S
Sc178 O194 2.105 1_556 S
Sc178 O196 2.105 . S
O179 Sc176 2.025 . S
O179 Sc177 2.025 . S
O179 Sc178 2.025 1_554 S
C180 O186 1.268 . S
C180 O196 1.268 . S
C181 O187 1.268 . S
C181 O195 1.268 . S
C182 O188 1.268 . S
C182 O197 1.268 . S
C183 O189 1.268 . S
C183 O193 1.268 . S
C184 O190 1.268 . S
C184 O192 1.268 1_556 S
C185 O191 1.268 . S
C185 O194 1.268 . S
O186 Sc176 2.105 1_556 S
O186 C180 1.268 . S
O187 Sc177 2.105 . S
O187 C181 1.268 . S
O188 Sc178 2.105 1_554 S
O188 C182 1.268 . S
O189 Sc176 2.105 . S
O189 C183 1.268 . S
O190 Sc178 2.105 . S
O190 C184 1.268 . S
O191 Sc177 2.105 . S
O191 C185 1.268 . S
O192 Sc176 2.105 . S
O192 C184 1.268 1_554 S
O193 Sc177 2.105 . S
O193 C183 1.268 . S
O194 Sc178 2.105 1_554 S
O194 C185 1.268 . S
O195 Sc176 2.105 . S
O195 C181 1.268 . S
O196 Sc178 2.105 . S
O196 C180 1.268 . S
O197 Sc177 2.105 . S
O197 C182 1.268 . S
Sc198 O201 2.025 . S
Sc198 O208 2.105 . S
Sc198 O211 2.105 . S
Sc198 O214 2.105 . S
Sc198 O217 2.105 . S
Sc199 O201 2.025 . S
Sc199 O209 2.105 . S
Sc199 O213 2.105 . S
Sc199 O215 2.105 . S
Sc199 O219 2.105 . S
Sc200 O201 2.025 . S
Sc200 O210 2.105 . S
Sc200 O212 2.105 . S
Sc200 O216 2.105 . S
Sc200 O218 2.105 . S
O201 Sc198 2.025 . S
O201 Sc199 2.025 . S
O201 Sc200 2.025 . S
C202 O208 1.268 . S
C202 O218 1.268 . S
C203 O209 1.268 . S
C203 O217 1.268 . S
C204 O210 1.268 . S
C204 O219 1.268 . S
C205 O211 1.268 . S
C205 O215 1.268 . S
C206 O212 1.268 . S
C206 O214 1.268 . S
C207 O213 1.268 . S
C207 O216 1.268 . S
O208 Sc198 2.105 . S
O208 C202 1.268 . S
O209 Sc199 2.105 . S
O209 C203 1.268 . S
O210 Sc200 2.105 . S
O210 C204 1.268 . S
O211 Sc198 2.105 . S
O211 C205 1.268 . S
O212 Sc200 2.105 . S
O212 C206 1.268 . S
O213 Sc199 2.105 . S
O213 C207 1.268 . S
O214 Sc198 2.105 . S
O214 C206 1.268 . S
O215 Sc199 2.105 . S
O215 C205 1.268 . S
O216 Sc200 2.105 . S
O216 C207 1.268 . S
O217 Sc198 2.105 . S
O217 C203 1.268 . S
O218 Sc200 2.105 . S
O218 C202 1.268 . S
O219 Sc199 2.105 . S
O219 C204 1.268 . S
Sc220 O223 2.025 . S
Sc220 O230 2.105 . S
Sc220 O233 2.105 . S
Sc220 O236 2.105 . S
Sc220 O239 2.105 . S
Sc221 O223 2.025 . S
Sc221 O231 2.105 . S
Sc221 O235 2.105 . S
Sc221 O237 2.105 . S
Sc221 O241 2.105 . S
Sc222 O223 2.025 . S
Sc222 O232 2.105 . S
Sc222 O234 2.105 . S
Sc222 O238 2.105 . S
Sc222 O240 2.105 . S
O223 Sc220 2.025 . S
O223 Sc221 2.025 . S
O223 Sc222 2.025 . S
C224 O230 1.268 . S
C224 O240 1.268 . S
C225 O231 1.268 . S
C225 O239 1.268 . S
C226 O232 1.268 . S
C226 O241 1.268 . S
C227 O233 1.268 . S
C227 O237 1.268 . S
C228 O234 1.268 . S
C228 O236 1.268 . S
C229 O235 1.268 . S
C229 O238 1.268 . S
O230 Sc220 2.105 . S
O230 C224 1.268 . S
O231 Sc221 2.105 . S
O231 C225 1.268 . S
O232 Sc222 2.105 . S
O232 C226 1.268 . S
O233 Sc220 2.105 . S
O233 C227 1.268 . S
O234 Sc222 2.105 . S
O234 C228 1.268 . S
O235 Sc221 2.105 . S
O235 C229 1.268 . S
O236 Sc220 2.105 . S
O236 C228 1.268 . S
O237 Sc221 2.105 . S
O237 C227 1.268 . S
O238 Sc222 2.105 . S
O238 C229 1.268 . S
O239 Sc220 2.105 . S
O239 C225 1.268 . S
O240 Sc222 2.105 . S
O240 C224 1.268 . S
O241 Sc221 2.105 . S
O241 C226 1.268 . S
Sc242 O245 2.025 . S
Sc242 O252 2.105 . S
Sc242 O255 2.105 . S
Sc242 O258 2.105 . S
Sc242 O261 2.105 . S
Sc243 O245 2.025 . S
Sc243 O253 2.105 . S
Sc243 O257 2.105 . S
Sc243 O259 2.105 . S
Sc243 O263 2.105 . S
Sc244 O245 2.025 . S
Sc244 O254 2.105 . S
Sc244 O256 2.105 . S
Sc244 O260 2.105 . S
Sc244 O262 2.105 . S
O245 Sc242 2.025 . S
O245 Sc243 2.025 . S
O245 Sc244 2.025 . S
C246 O252 1.268 . S
C246 O262 1.268 . S
C247 O253 1.268 . S
C247 O261 1.268 . S
C248 O254 1.268 . S
C248 O263 1.268 . S
C249 O255 1.268 . S
C249 O259 1.268 . S
C250 O256 1.268 . S
C250 O258 1.268 . S
C251 O257 1.268 . S
C251 O260 1.268 . S
O252 Sc242 2.105 . S
O252 C246 1.268 . S
O253 Sc243 2.105 . S
O253 C247 1.268 . S
O254 Sc244 2.105 . S
O254 C248 1.268 . S
O255 Sc242 2.105 . S
O255 C249 1.268 . S
O256 Sc244 2.105 . S
O256 C250 1.268 . S
O257 Sc243 2.105 . S
O257 C251 1.268 . S
O258 Sc242 2.105 . S
O258 C250 1.268 . S
O259 Sc243 2.105 . S
O259 C249 1.268 . S
O260 Sc244 2.105 . S
O260 C251 1.268 . S
O261 Sc242 2.105 . S
O261 C247 1.268 . S
O262 Sc244 2.105 . S
O262 C246 1.268 . S
O263 Sc243 2.105 . S
O263 C248 1.268 . S
Sc264 O267 2.025 . S
Sc264 O274 2.105 . S
Sc264 O277 2.105 . S
Sc264 O280 2.105 . S
Sc264 O283 2.105 . S
Sc265 O267 2.025 . S
Sc265 O275 2.105 . S
Sc265 O279 2.105 . S
Sc265 O281 2.105 . S
Sc265 O285 2.105 . S
Sc266 O267 2.025 . S
Sc266 O276 2.105 . S
Sc266 O278 2.105 . S
Sc266 O282 2.105 . S
Sc266 O284 2.105 . S
O267 Sc264 2.025 . S
O267 Sc265 2.025 . S
O267 Sc266 2.025 . S
C268 O274 1.268 . S
C268 O284 1.268 . S
C269 O275 1.268 . S
C269 O283 1.268 . S
C270 O276 1.268 . S
C270 O285 1.268 . S
C271 O277 1.268 . S
C271 O281 1.268 . S
C272 O278 1.268 . S
C272 O280 1.268 . S
C273 O279 1.268 . S
C273 O282 1.268 . S
O274 Sc264 2.105 . S
O274 C268 1.268 . S
O275 Sc265 2.105 . S
O275 C269 1.268 . S
O276 Sc266 2.105 . S
O276 C270 1.268 . S
O277 Sc264 2.105 . S
O277 C271 1.268 . S
O278 Sc266 2.105 . S
O278 C272 1.268 . S
O279 Sc265 2.105 . S
O279 C273 1.268 . S
O280 Sc264 2.105 . S
O280 C272 1.268 . S
O281 Sc265 2.105 . S
O281 C271 1.268 . S
O282 Sc266 2.105 . S
O282 C273 1.268 . S
O283 Sc264 2.105 . S
O283 C269 1.268 . S
O284 Sc266 2.105 . S
O284 C268 1.268 . S
O285 Sc265 2.105 . S
O285 C270 1.268 . S
Sc286 O289 2.025 . S
Sc286 O296 2.105 . S
Sc286 O299 2.105 . S
Sc286 O302 2.105 . S
Sc286 O305 2.105 . S
Sc287 O289 2.025 . S
Sc287 O297 2.105 . S
Sc287 O301 2.105 . S
Sc287 O303 2.105 . S
Sc287 O307 2.105 . S
Sc288 O289 2.025 . S
Sc288 O298 2.105 . S
Sc288 O300 2.105 . S
Sc288 O304 2.105 . S
Sc288 O306 2.105 . S
O289 Sc286 2.025 . S
O289 Sc287 2.025 . S
O289 Sc288 2.025 . S
C290 O296 1.268 . S
C290 O306 1.268 . S
C291 O297 1.268 . S
C291 O305 1.268 . S
C292 O298 1.268 . S
C292 O307 1.268 . S
C293 O299 1.268 . S
C293 O303 1.268 . S
C294 O300 1.268 . S
C294 O302 1.268 . S
C295 O301 1.268 . S
C295 O304 1.268 . S
O296 Sc286 2.105 . S
O296 C290 1.268 . S
O297 Sc287 2.105 . S
O297 C291 1.268 . S
O298 Sc288 2.105 . S
O298 C292 1.268 . S
O299 Sc286 2.105 . S
O299 C293 1.268 . S
O300 Sc288 2.105 . S
O300 C294 1.268 . S
O301 Sc287 2.105 . S
O301 C295 1.268 . S
O302 Sc286 2.105 . S
O302 C294 1.268 . S
O303 Sc287 2.105 . S
O303 C293 1.268 . S
O304 Sc288 2.105 . S
O304 C295 1.268 . S
O305 Sc286 2.105 . S
O305 C291 1.268 . S
O306 Sc288 2.105 . S
O306 C290 1.268 . S
O307 Sc287 2.105 . S
O307 C292 1.268 . S
Sc308 O311 2.025 . S
Sc308 O318 2.105 . S
Sc308 O321 2.105 . S
Sc308 O324 2.105 . S
Sc308 O327 2.105 . S
Sc309 O311 2.025 . S
Sc309 O319 2.105 . S
Sc309 O323 2.105 . S
Sc309 O325 2.105 . S
Sc309 O329 2.105 . S
Sc310 O311 2.025 . S
Sc310 O320 2.105 . S
Sc310 O322 2.105 . S
Sc310 O326 2.105 . S
Sc310 O328 2.105 . S
O311 Sc308 2.025 . S
O311 Sc309 2.025 . S
O311 Sc310 2.025 . S
C312 O318 1.268 . S
C312 O328 1.268 . S
C313 O319 1.268 . S
C313 O327 1.268 . S
C314 O320 1.268 . S
C314 O329 1.268 . S
C315 O321 1.268 . S
C315 O325 1.268 . S
C316 O322 1.268 . S
C316 O324 1.268 . S
C317 O323 1.268 . S
C317 O326 1.268 . S
O318 Sc308 2.105 . S
O318 C312 1.268 . S
O319 Sc309 2.105 . S
O319 C313 1.268 . S
O320 Sc310 2.105 . S
O320 C314 1.268 . S
O321 Sc308 2.105 . S
O321 C315 1.268 . S
O322 Sc310 2.105 . S
O322 C316 1.268 . S
O323 Sc309 2.105 . S
O323 C317 1.268 . S
O324 Sc308 2.105 . S
O324 C316 1.268 . S
O325 Sc309 2.105 . S
O325 C315 1.268 . S
O326 Sc310 2.105 . S
O326 C317 1.268 . S
O327 Sc308 2.105 . S
O327 C313 1.268 . S
O328 Sc310 2.105 . S
O328 C312 1.268 . S
O329 Sc309 2.105 . S
O329 C314 1.268 . S
Sc330 O333 2.025 . S
Sc330 O340 2.105 . S
Sc330 O343 2.105 . S
Sc330 O346 2.105 1_556 S
Sc330 O349 2.105 . S
Sc331 O333 2.025 . S
Sc331 O341 2.105 . S
Sc331 O345 2.105 . S
Sc331 O347 2.105 . S
Sc331 O351 2.105 . S
Sc332 O333 2.025 1_554 S
Sc332 O342 2.105 1_554 S
Sc332 O344 2.105 . S
Sc332 O348 2.105 1_554 S
Sc332 O350 2.105 . S
O333 Sc330 2.025 . S
O333 Sc331 2.025 . S
O333 Sc332 2.025 1_556 S
C334 O340 1.268 1_554 S
C334 O350 1.268 . S
C335 O341 1.268 . S
C335 O349 1.268 . S
C336 O342 1.268 . S
C336 O351 1.268 . S
C337 O343 1.268 . S
C337 O347 1.268 . S
C338 O344 1.268 . S
C338 O346 1.268 . S
C339 O345 1.268 . S
C339 O348 1.268 . S
O340 Sc330 2.105 . S
O340 C334 1.268 1_556 S
O341 Sc331 2.105 . S
O341 C335 1.268 . S
O342 Sc332 2.105 1_556 S
O342 C336 1.268 . S
O343 Sc330 2.105 . S
O343 C337 1.268 . S
O344 Sc332 2.105 . S
O344 C338 1.268 . S
O345 Sc331 2.105 . S
O345 C339 1.268 . S
O346 Sc330 2.105 1_554 S
O346 C338 1.268 . S
O347 Sc331 2.105 . S
O347 C337 1.268 . S
O348 Sc332 2.105 1_556 S
O348 C339 1.268 . S
O349 Sc330 2.105 . S
O349 C335 1.268 . S
O350 Sc332 2.105 . S
O350 C334 1.268 . S
O351 Sc331 2.105 . S
O351 C336 1.268 . S
Sc352 O355 2.025 . S
Sc352 O362 2.105 . S
Sc352 O365 2.105 . S
Sc352 O368 2.105 . S
Sc352 O371 2.105 . S
Sc353 O355 2.025 1_554 S
Sc353 O363 2.105 1_554 S
Sc353 O367 2.105 . S
Sc353 O369 2.105 1_554 S
Sc353 O373 2.105 . S
Sc354 O355 2.025 . S
Sc354 O364 2.105 . S
Sc354 O366 2.105 . S
Sc354 O370 2.105 1_556 S
Sc354 O372 2.105 . S
O355 Sc352 2.025 . S
O355 Sc353 2.025 1_556 S
O355 Sc354 2.025 . S
C356 O362 1.268 . S
C356 O372 1.268 . S
C357 O363 1.268 . S
C357 O371 1.268 . S
C358 O364 1.268 1_554 S
C358 O373 1.268 . S
C359 O365 1.268 . S
C359 O369 1.268 . S
C360 O366 1.268 . S
C360 O368 1.268 . S
C361 O367 1.268 . S
C361 O370 1.268 . S
O362 Sc352 2.105 . S
O362 C356 1.268 . S
O363 Sc353 2.105 1_556 S
O363 C357 1.268 . S
O364 Sc354 2.105 . S
O364 C358 1.268 1_556 S
O365 Sc352 2.105 . S
O365 C359 1.268 . S
O366 Sc354 2.105 . S
O366 C360 1.268 . S
O367 Sc353 2.105 . S
O367 C361 1.268 . S
O368 Sc352 2.105 . S
O368 C360 1.268 . S
O369 Sc353 2.105 1_556 S
O369 C359 1.268 . S
O370 Sc354 2.105 1_554 S
O370 C361 1.268 . S
O371 Sc352 2.105 . S
O371 C357 1.268 . S
O372 Sc354 2.105 . S
O372 C356 1.268 . S
O373 Sc353 2.105 . S
O373 C358 1.268 . S
Sc374 O377 2.025 . S
Sc374 O384 2.105 . S
Sc374 O387 2.105 . S
Sc374 O390 2.105 . S
Sc374 O393 2.105 . S
Sc375 O377 2.025 1_554 S
Sc375 O385 2.105 1_554 S
Sc375 O389 2.105 . S
Sc375 O391 2.105 1_554 S
Sc375 O395 2.105 . S
Sc376 O377 2.025 . S
Sc376 O386 2.105 . S
Sc376 O388 2.105 . S
Sc376 O392 2.105 1_556 S
Sc376 O394 2.105 . S
O377 Sc374 2.025 . S
O377 Sc375 2.025 1_556 S
O377 Sc376 2.025 . S
C378 O384 1.268 . S
C378 O394 1.268 . S
C379 O385 1.268 . S
C379 O393 1.268 . S
C380 O386 1.268 1_554 S
C380 O395 1.268 . S
C381 O387 1.268 . S
C381 O391 1.268 . S
C382 O388 1.268 . S
C382 O390 1.268 . S
C383 O389 1.268 . S
C383 O392 1.268 . S
O384 Sc374 2.105 . S
O384 C378 1.268 . S
O385 Sc375 2.105 1_556 S
O385 C379 1.268 . S
O386 Sc376 2.105 . S
O386 C380 1.268 1_556 S
O387 Sc374 2.105 . S
O387 C381 1.268 . S
O388 Sc376 2.105 . S
O388 C382 1.268 . S
O389 Sc375 2.105 . S
O389 C383 1.268 . S
O390 Sc374 2.105 . S
O390 C382 1.268 . S
O391 Sc375 2.105 1_556 S
O391 C381 1.268 . S
O392 Sc376 2.105 1_554 S
O392 C383 1.268 . S
O393 Sc374 2.105 . S
O393 C379 1.268 . S
O394 Sc376 2.105 . S
O394 C378 1.268 . S
O395 Sc375 2.105 . S
O395 C380 1.268 . S
H396 C404 0.950 . S
H397 C409 0.950 . S
H398 C406 0.950 . S
H399 C408 0.950 . S
H400 C410 0.950 . S
H401 C412 0.950 . S
H402 C414 0.950 . S
H403 C415 0.950 . S
C404 H396 0.950 . S
C404 C405 1.386 . S
C404 C406 1.391 . S
C405 C404 1.386 . S
C405 C409 1.393 . S
C406 H398 0.950 . S
C406 C404 1.391 . S
C406 C407 1.400 . S
C407 C406 1.400 . S
C407 C408 1.398 . S
C407 C413 1.491 . S
C408 H399 0.950 . S
C408 C407 1.398 . S
C408 C409 1.391 . S
C409 H397 0.950 . S
C409 C405 1.393 . S
C409 C408 1.391 . S
C410 H400 0.950 . S
C410 C411 1.386 . S
C410 C412 1.391 . S
C411 C410 1.386 . S
C411 C415 1.393 . S
C412 H401 0.950 . S
C412 C410 1.391 . S
C412 C413 1.400 . S
C413 C407 1.491 . S
C413 C412 1.400 . S
C413 C414 1.398 . S
C414 H402 0.950 . S
C414 C413 1.398 . S
C414 C415 1.391 . S
C415 H403 0.950 . S
C415 C411 1.393 . S
C415 C414 1.391 . S
H416 C424 0.950 . S
H417 C429 0.950 . S
H418 C426 0.950 . S
H419 C428 0.950 . S
H420 C430 0.950 . S
H421 C432 0.950 . S
H422 C434 0.950 . S
H423 C435 0.950 . S
C424 H416 0.950 . S
C424 C425 1.386 . S
C424 C426 1.391 . S
C425 C424 1.386 . S
C425 C429 1.393 . S
C426 H418 0.950 . S
C426 C424 1.391 . S
C426 C427 1.400 . S
C427 C426 1.400 . S
C427 C428 1.398 . S
C427 C433 1.491 . S
C428 H419 0.950 . S
C428 C427 1.398 . S
C428 C429 1.391 . S
C429 H417 0.950 . S
C429 C425 1.393 . S
C429 C428 1.391 . S
C430 H420 0.950 . S
C430 C431 1.386 . S
C430 C432 1.391 . S
C431 C430 1.386 . S
C431 C435 1.393 . S
C432 H421 0.950 . S
C432 C430 1.391 . S
C432 C433 1.400 . S
C433 C427 1.491 . S
C433 C432 1.400 . S
C433 C434 1.398 . S
C434 H422 0.950 . S
C434 C433 1.398 . S
C434 C435 1.391 . S
C435 H423 0.950 . S
C435 C431 1.393 . S
C435 C434 1.391 . S
H436 C444 0.950 . S
H437 C449 0.950 . S
H438 C446 0.950 . S
H439 C448 0.950 . S
H440 C450 0.950 . S
H441 C452 0.950 . S
H442 C454 0.950 . S
H443 C455 0.950 . S
C444 H436 0.950 . S
C444 C445 1.386 . S
C444 C446 1.391 . S
C445 C444 1.386 . S
C445 C449 1.393 . S
C446 H438 0.950 . S
C446 C444 1.391 . S
C446 C447 1.400 . S
C447 C446 1.400 . S
C447 C448 1.398 . S
C447 C453 1.491 . S
C448 H439 0.950 . S
C448 C447 1.398 . S
C448 C449 1.391 . S
C449 H437 0.950 . S
C449 C445 1.393 . S
C449 C448 1.391 . S
C450 H440 0.950 . S
C450 C451 1.386 . S
C450 C452 1.391 . S
C451 C450 1.386 . S
C451 C455 1.393 . S
C452 H441 0.950 . S
C452 C450 1.391 . S
C452 C453 1.400 . S
C453 C447 1.491 . S
C453 C452 1.400 . S
C453 C454 1.398 . S
C454 H442 0.950 . S
C454 C453 1.398 . S
C454 C455 1.391 . S
C455 H443 0.950 . S
C455 C451 1.393 . S
C455 C454 1.391 . S
H456 C464 0.950 . S
H457 C469 0.950 1_554 S
H458 C466 0.950 . S
H459 C468 0.950 . S
H460 C470 0.950 . S
H461 C472 0.950 . S
H462 C474 0.935 1_556 S
H463 C475 0.950 . S
C464 H456 0.950 . S
C464 C465 1.386 . S
C464 C466 1.391 . S
C465 C464 1.386 . S
C465 C469 1.393 . S
C466 H458 0.950 . S
C466 C464 1.391 . S
C466 C467 1.400 . S
C467 C466 1.400 . S
C467 C468 1.398 1_556 S
C467 C473 1.491 1_556 S
C468 H459 0.950 . S
C468 C467 1.398 1_554 S
C468 C469 1.391 1_554 S
C469 H457 0.950 1_556 S
C469 C465 1.393 . S
C469 C468 1.391 1_556 S
C470 H460 0.950 . S
C470 C471 1.386 . S
C470 C472 1.391 . S
C471 C470 1.386 . S
C471 C475 1.393 . S
C472 H461 0.950 . S
C472 C470 1.391 . S
C472 C473 1.400 . S
C473 C467 1.491 1_554 S
C473 C472 1.400 . S
C473 C474 1.406 . S
C474 H462 0.935 1_554 S
C474 C473 1.406 . S
C474 C475 1.398 . S
C475 H463 0.950 . S
C475 C471 1.393 . S
C475 C474 1.398 . S
H476 C484 0.950 . S
H477 C489 0.950 . S
H478 C486 0.950 . S
H479 C488 0.950 1_556 S
H480 C490 0.950 . S
H481 C492 0.950 . S
H482 C494 0.950 . S
H483 C495 0.950 1_554 S
C484 H476 0.950 . S
C484 C485 1.386 . S
C484 C486 1.391 . S
C485 C484 1.386 . S
C485 C489 1.393 . S
C486 H478 0.950 . S
C486 C484 1.391 . S
C486 C487 1.400 . S
C487 C486 1.400 . S
C487 C488 1.398 . S
C487 C493 1.491 1_554 S
C488 H479 0.950 1_554 S
C488 C487 1.398 . S
C488 C489 1.391 . S
C489 H477 0.950 . S
C489 C485 1.393 . S
C489 C488 1.391 . S
C490 H480 0.950 . S
C490 C491 1.386 . S
C490 C492 1.391 . S
C491 C490 1.386 . S
C491 C495 1.393 . S
C492 H481 0.950 . S
C492 C490 1.391 . S
C492 C493 1.400 . S
C493 C487 1.491 1_556 S
C493 C492 1.400 . S
C493 C494 1.398 1_556 S
C494 H482 0.950 . S
C494 C493 1.398 1_554 S
C494 C495 1.391 1_554 S
C495 H483 0.950 1_556 S
C495 C491 1.393 . S
C495 C494 1.391 1_556 S
H496 C504 0.950 1_554 S
H497 C509 0.950 . S
H498 C506 0.950 . S
H499 C508 0.950 . S
H500 C510 0.950 . S
H501 C512 0.950 1_556 S
H502 C514 0.950 . S
H503 C515 0.950 . S
C504 H496 0.950 1_556 S
C504 C505 1.386 . S
C504 C506 1.391 1_556 S
C505 C504 1.386 . S
C505 C509 1.393 . S
C506 H498 0.950 . S
C506 C504 1.391 1_554 S
C506 C507 1.400 1_554 S
C507 C506 1.400 1_556 S
C507 C508 1.398 . S
C507 C513 1.491 1_556 S
C508 H499 0.950 . S
C508 C507 1.398 . S
C508 C509 1.391 . S
C509 H497 0.950 . S
C509 C505 1.393 . S
C509 C508 1.391 . S
C510 H500 0.950 . S
C510 C511 1.386 . S
C510 C512 1.391 . S
C511 C510 1.386 . S
C511 C515 1.393 . S
C512 H501 0.950 1_554 S
C512 C510 1.391 . S
C512 C513 1.400 . S
C513 C507 1.491 1_554 S
C513 C512 1.400 . S
C513 C514 1.398 . S
C514 H502 0.950 . S
C514 C513 1.398 . S
C514 C515 1.391 . S
C515 H503 0.950 . S
C515 C511 1.393 . S
C515 C514 1.391 . S
H516 C524 0.950 . S
H517 C529 0.950 . S
H518 C526 0.950 . S
H519 C528 0.950 . S
H520 C530 0.950 . S
H521 C532 0.950 . S
H522 C534 0.950 . S
H523 C535 0.950 . S
C524 H516 0.950 . S
C524 C525 1.386 . S
C524 C526 1.391 . S
C525 C524 1.386 . S
C525 C529 1.393 . S
C526 H518 0.950 . S
C526 C524 1.391 . S
C526 C527 1.400 . S
C527 C526 1.400 . S
C527 C528 1.398 . S
C527 C533 1.491 . S
C528 H519 0.950 . S
C528 C527 1.398 . S
C528 C529 1.391 . S
C529 H517 0.950 . S
C529 C525 1.393 . S
C529 C528 1.391 . S
C530 H520 0.950 . S
C530 C531 1.386 . S
C530 C532 1.391 . S
C531 C530 1.386 . S
C531 C535 1.393 . S
C532 H521 0.950 . S
C532 C530 1.391 . S
C532 C533 1.400 . S
C533 C527 1.491 . S
C533 C532 1.400 . S
C533 C534 1.398 . S
C534 H522 0.950 . S
C534 C533 1.398 . S
C534 C535 1.391 . S
C535 H523 0.950 . S
C535 C531 1.393 . S
C535 C534 1.391 . S
H536 C544 0.950 . S
H537 C549 0.950 . S
H538 C546 0.950 . S
H539 C548 0.950 . S
H540 C550 0.950 . S
H541 C552 0.950 . S
H542 C554 0.950 . S
H543 C555 0.950 . S
C544 H536 0.950 . S
C544 C545 1.386 . S
C544 C546 1.391 . S
C545 C544 1.386 . S
C545 C549 1.393 . S
C546 H538 0.950 . S
C546 C544 1.391 . S
C546 C547 1.400 . S
C547 C546 1.400 . S
C547 C548 1.398 . S
C547 C553 1.491 . S
C548 H539 0.950 . S
C548 C547 1.398 . S
C548 C549 1.391 . S
C549 H537 0.950 . S
C549 C545 1.393 . S
C549 C548 1.391 . S
C550 H540 0.950 . S
C550 C551 1.386 . S
C550 C552 1.391 . S
C551 C550 1.386 . S
C551 C555 1.393 . S
C552 H541 0.950 . S
C552 C550 1.391 . S
C552 C553 1.400 . S
C553 C547 1.491 . S
C553 C552 1.400 . S
C553 C554 1.398 . S
C554 H542 0.950 . S
C554 C553 1.398 . S
C554 C555 1.391 . S
C555 H543 0.950 . S
C555 C551 1.393 . S
C555 C554 1.391 . S
H556 C564 0.950 . S
H557 C569 0.950 . S
H558 C566 0.950 . S
H559 C568 0.950 . S
H560 C570 0.950 . S
H561 C572 0.950 . S
H562 C574 0.950 . S
H563 C575 0.950 . S
C564 H556 0.950 . S
C564 C565 1.386 . S
C564 C566 1.391 . S
C565 C564 1.386 . S
C565 C569 1.393 . S
C566 H558 0.950 . S
C566 C564 1.391 . S
C566 C567 1.400 . S
C567 C566 1.400 . S
C567 C568 1.398 . S
C567 C573 1.491 . S
C568 H559 0.950 . S
C568 C567 1.398 . S
C568 C569 1.391 . S
C569 H557 0.950 . S
C569 C565 1.393 . S
C569 C568 1.391 . S
C570 H560 0.950 . S
C570 C571 1.386 . S
C570 C572 1.391 . S
C571 C570 1.386 . S
C571 C575 1.393 . S
C572 H561 0.950 . S
C572 C570 1.391 . S
C572 C573 1.400 . S
C573 C567 1.491 . S
C573 C572 1.400 . S
C573 C574 1.398 . S
C574 H562 0.950 . S
C574 C573 1.398 . S
C574 C575 1.391 . S
C575 H563 0.950 . S
C575 C571 1.393 . S
C575 C574 1.391 . S
H576 C584 0.950 . S
H577 C589 0.950 . S
H578 C586 0.950 . S
H579 C588 0.949 1_556 S
H580 C590 0.950 . S
H581 C592 0.950 . S
H582 C594 0.950 . S
H583 C595 0.950 . S
C584 H576 0.950 . S
C584 C585 1.386 . S
C584 C586 1.391 . S
C585 C584 1.386 . S
C585 C589 1.393 . S
C586 H578 0.950 . S
C586 C584 1.391 . S
C586 C587 1.400 . S
C587 C586 1.400 . S
C587 C588 1.398 . S
C587 C593 1.491 1_554 S
C588 H579 0.949 1_554 S
C588 C587 1.398 . S
C588 C589 1.391 . S
C589 H577 0.950 . S
C589 C585 1.393 . S
C589 C588 1.391 . S
C590 H580 0.950 . S
C590 C591 1.386 . S
C590 C592 1.391 . S
C591 C590 1.386 . S
C591 C595 1.393 . S
C592 H581 0.950 . S
C592 C590 1.391 . S
C592 C593 1.400 . S
C593 C587 1.491 1_556 S
C593 C592 1.400 . S
C593 C594 1.398 . S
C594 H582 0.950 . S
C594 C593 1.398 . S
C594 C595 1.391 . S
C595 H583 0.950 . S
C595 C591 1.393 . S
C595 C594 1.391 . S
H596 C604 0.950 . S
H597 C609 0.950 . S
H598 C606 0.950 . S
H599 C608 0.950 . S
H600 C610 0.950 . S
H601 C612 0.950 . S
H602 C614 0.950 . S
H603 C615 0.950 . S
C604 H596 0.950 . S
C604 C605 1.386 . S
C604 C606 1.391 . S
C605 C604 1.386 . S
C605 C609 1.393 . S
C606 H598 0.950 . S
C606 C604 1.391 . S
C606 C607 1.400 . S
C607 C606 1.400 . S
C607 C608 1.398 . S
C607 C613 1.491 1_556 S
C608 H599 0.950 . S
C608 C607 1.398 . S
C608 C609 1.391 . S
C609 H597 0.950 . S
C609 C605 1.393 . S
C609 C608 1.391 . S
C610 H600 0.950 . S
C610 C611 1.386 . S
C610 C612 1.391 . S
C611 C610 1.386 . S
C611 C615 1.393 . S
C612 H601 0.950 . S
C612 C610 1.391 . S
C612 C613 1.400 . S
C613 C607 1.491 1_554 S
C613 C612 1.400 . S
C613 C614 1.398 1_554 S
C614 H602 0.950 . S
C614 C613 1.398 1_556 S
C614 C615 1.391 1_556 S
C615 H603 0.950 . S
C615 C611 1.393 . S
C615 C614 1.391 1_554 S
H616 C624 0.950 . S
H617 C629 0.950 . S
H618 C626 0.950 . S
H619 C628 0.950 . S
H620 C630 0.950 . S
H621 C632 0.950 . S
H622 C634 0.949 . S
H623 C635 0.950 . S
C624 H616 0.950 . S
C624 C625 1.386 . S
C624 C626 1.391 . S
C625 C624 1.386 . S
C625 C629 1.393 . S
C626 H618 0.950 . S
C626 C624 1.391 . S
C626 C627 1.400 . S
C627 C626 1.400 . S
C627 C628 1.398 . S
C627 C633 1.491 1_556 S
C628 H619 0.950 . S
C628 C627 1.398 . S
C628 C629 1.391 . S
C629 H617 0.950 . S
C629 C625 1.393 . S
C629 C628 1.391 . S
C630 H620 0.950 . S
C630 C631 1.386 . S
C630 C632 1.391 . S
C631 C630 1.386 . S
C631 C635 1.393 . S
C632 H621 0.950 . S
C632 C630 1.391 . S
C632 C633 1.400 . S
C633 C627 1.491 1_554 S
C633 C632 1.400 . S
C633 C634 1.398 1_554 S
C634 H622 0.949 . S
C634 C633 1.398 1_556 S
C634 C635 1.392 1_556 S
C635 H623 0.950 . S
C635 C631 1.393 . S
C635 C634 1.392 1_554 S
H636 C644 0.950 . S
H637 C649 0.950 . S
H638 C646 0.950 . S
H639 C648 0.950 . S
H640 C650 0.950 . S
H641 C652 0.950 . S
H642 C654 0.950 . S
H643 C655 0.950 . S
C644 H636 0.950 . S
C644 C645 1.386 . S
C644 C646 1.391 . S
C645 C644 1.386 . S
C645 C649 1.393 . S
C646 H638 0.950 . S
C646 C644 1.391 . S
C646 C647 1.400 . S
C647 C646 1.400 . S
C647 C648 1.398 . S
C647 C653 1.491 . S
C648 H639 0.950 . S
C648 C647 1.398 . S
C648 C649 1.391 . S
C649 H637 0.950 . S
C649 C645 1.393 . S
C649 C648 1.391 . S
C650 H640 0.950 . S
C650 C651 1.386 . S
C650 C652 1.391 . S
C651 C650 1.386 . S
C651 C655 1.393 . S
C652 H641 0.950 . S
C652 C650 1.391 . S
C652 C653 1.400 . S
C653 C647 1.491 . S
C653 C652 1.400 . S
C653 C654 1.398 . S
C654 H642 0.950 . S
C654 C653 1.398 . S
C654 C655 1.391 . S
C655 H643 0.950 . S
C655 C651 1.393 . S
C655 C654 1.391 . S
H656 C664 0.950 . S
H657 C669 0.950 . S
H658 C666 0.950 . S
H659 C668 0.950 . S
H660 C670 0.950 . S
H661 C672 0.950 . S
H662 C674 0.950 . S
H663 C675 0.950 . S
C664 H656 0.950 . S
C664 C665 1.386 . S
C664 C666 1.391 . S
C665 C664 1.386 . S
C665 C669 1.393 . S
C666 H658 0.950 . S
C666 C664 1.391 . S
C666 C667 1.400 . S
C667 C666 1.400 . S
C667 C668 1.398 . S
C667 C673 1.491 . S
C668 H659 0.950 . S
C668 C667 1.398 . S
C668 C669 1.391 . S
C669 H657 0.950 . S
C669 C665 1.393 . S
C669 C668 1.391 . S
C670 H660 0.950 . S
C670 C671 1.386 . S
C670 C672 1.391 . S
C671 C670 1.386 . S
C671 C675 1.393 . S
C672 H661 0.950 . S
C672 C670 1.391 . S
C672 C673 1.400 . S
C673 C667 1.491 . S
C673 C672 1.400 . S
C673 C674 1.398 . S
C674 H662 0.950 . S
C674 C673 1.398 . S
C674 C675 1.391 . S
C675 H663 0.950 . S
C675 C671 1.393 . S
C675 C674 1.391 . S
H676 C684 0.950 . S
H677 C689 0.950 . S
H678 C686 0.950 . S
H679 C688 0.950 . S
H680 C690 0.950 . S
H681 C692 0.950 . S
H682 C694 0.950 . S
H683 C695 0.950 . S
C684 H676 0.950 . S
C684 C685 1.386 . S
C684 C686 1.391 . S
C685 C684 1.386 . S
C685 C689 1.393 . S
C686 H678 0.950 . S
C686 C684 1.391 . S
C686 C687 1.400 . S
C687 C686 1.400 . S
C687 C688 1.398 . S
C687 C693 1.491 . S
C688 H679 0.950 . S
C688 C687 1.398 . S
C688 C689 1.391 . S
C689 H677 0.950 . S
C689 C685 1.393 . S
C689 C688 1.391 . S
C690 H680 0.950 . S
C690 C691 1.386 . S
C690 C692 1.391 . S
C691 C690 1.386 . S
C691 C695 1.393 . S
C692 H681 0.950 . S
C692 C690 1.391 . S
C692 C693 1.400 . S
C693 C687 1.491 . S
C693 C692 1.400 . S
C693 C694 1.398 . S
C694 H682 0.950 . S
C694 C693 1.398 . S
C694 C695 1.391 . S
C695 H683 0.950 . S
C695 C691 1.393 . S
C695 C694 1.391 . S
H696 C704 0.950 . S
H697 C709 0.950 . S
H698 C706 0.950 . S
H699 C708 0.950 . S
H700 C710 0.950 . S
H701 C712 0.950 . S
H702 C714 0.950 . S
H703 C715 0.950 . S
C704 H696 0.950 . S
C704 C705 1.386 . S
C704 C706 1.391 . S
C705 C704 1.386 . S
C705 C709 1.393 . S
C706 H698 0.950 . S
C706 C704 1.391 . S
C706 C707 1.400 . S
C707 C706 1.400 . S
C707 C708 1.398 . S
C707 C713 1.491 . S
C708 H699 0.950 . S
C708 C707 1.398 . S
C708 C709 1.391 . S
C709 H697 0.950 . S
C709 C705 1.393 . S
C709 C708 1.391 . S
C710 H700 0.950 . S
C710 C711 1.386 . S
C710 C712 1.391 . S
C711 C710 1.386 . S
C711 C715 1.393 . S
C712 H701 0.950 . S
C712 C710 1.391 . S
C712 C713 1.400 . S
C713 C707 1.491 . S
C713 C712 1.400 . S
C713 C714 1.398 . S
C714 H702 0.950 . S
C714 C713 1.398 . S
C714 C715 1.391 . S
C715 H703 0.950 . S
C715 C711 1.393 . S
C715 C714 1.391 . S
H716 C724 0.950 . S
H717 C729 0.950 . S
H718 C726 0.950 . S
H719 C728 0.950 . S
H720 C730 0.950 . S
H721 C732 0.950 . S
H722 C734 0.950 . S
H723 C735 0.950 . S
C724 H716 0.950 . S
C724 C725 1.386 . S
C724 C726 1.391 . S
C725 C724 1.386 . S
C725 C729 1.393 . S
C726 H718 0.950 . S
C726 C724 1.391 . S
C726 C727 1.400 . S
C727 C726 1.400 . S
C727 C728 1.398 . S
C727 C733 1.491 . S
C728 H719 0.950 . S
C728 C727 1.398 . S
C728 C729 1.391 . S
C729 H717 0.950 . S
C729 C725 1.393 . S
C729 C728 1.391 . S
C730 H720 0.950 . S
C730 C731 1.386 . S
C730 C732 1.391 . S
C731 C730 1.386 . S
C731 C735 1.393 . S
C732 H721 0.950 . S
C732 C730 1.391 . S
C732 C733 1.400 . S
C733 C727 1.491 . S
C733 C732 1.400 . S
C733 C734 1.398 . S
C734 H722 0.950 . S
C734 C733 1.398 . S
C734 C735 1.391 . S
C735 H723 0.950 . S
C735 C731 1.393 . S
C735 C734 1.391 . S
H736 C744 0.950 . S
H737 C749 0.950 . S
H738 C746 0.950 . S
H739 C748 0.950 . S
H740 C750 0.950 . S
H741 C752 0.950 . S
H742 C754 0.950 . S
H743 C755 0.950 . S
C744 H736 0.950 . S
C744 C745 1.386 . S
C744 C746 1.391 . S
C745 C744 1.386 . S
C745 C749 1.393 . S
C746 H738 0.950 . S
C746 C744 1.391 . S
C746 C747 1.400 . S
C747 C746 1.400 . S
C747 C748 1.398 . S
C747 C753 1.491 . S
C748 H739 0.950 . S
C748 C747 1.398 . S
C748 C749 1.391 . S
C749 H737 0.950 . S
C749 C745 1.393 . S
C749 C748 1.391 . S
C750 H740 0.950 . S
C750 C751 1.386 . S
C750 C752 1.391 . S
C751 C750 1.386 . S
C751 C755 1.393 . S
C752 H741 0.950 . S
C752 C750 1.391 . S
C752 C753 1.400 . S
C753 C747 1.491 . S
C753 C752 1.400 . S
C753 C754 1.398 . S
C754 H742 0.950 . S
C754 C753 1.398 . S
C754 C755 1.391 . S
C755 H743 0.950 . S
C755 C751 1.393 . S
C755 C754 1.391 . S
H756 C764 0.950 . S
H757 C769 0.950 . S
H758 C766 0.950 . S
H759 C768 0.950 . S
H760 C770 0.950 . S
H761 C772 0.950 . S
H762 C774 0.950 . S
H763 C775 0.950 . S
C764 H756 0.950 . S
C764 C765 1.386 . S
C764 C766 1.391 . S
C765 C764 1.386 . S
C765 C769 1.393 . S
C766 H758 0.950 . S
C766 C764 1.391 . S
C766 C767 1.400 . S
C767 C766 1.400 . S
C767 C768 1.398 . S
C767 C773 1.491 . S
C768 H759 0.950 . S
C768 C767 1.398 . S
C768 C769 1.391 . S
C769 H757 0.950 . S
C769 C765 1.393 . S
C769 C768 1.391 . S
C770 H760 0.950 . S
C770 C771 1.386 . S
C770 C772 1.391 . S
C771 C770 1.386 . S
C771 C775 1.393 . S
C772 H761 0.950 . S
C772 C770 1.391 . S
C772 C773 1.400 . S
C773 C767 1.491 . S
C773 C772 1.400 . S
C773 C774 1.398 . S
C774 H762 0.950 . S
C774 C773 1.398 . S
C774 C775 1.391 . S
C775 H763 0.950 . S
C775 C771 1.393 . S
C775 C774 1.391 . S
H776 C784 0.950 1_554 S
H777 C789 0.950 . S
H778 C786 0.950 . S
H779 C788 0.950 . S
H780 C790 0.950 . S
H781 C792 0.950 . S
H782 C794 0.950 . S
H783 C795 0.950 . S
C784 H776 0.950 1_556 S
C784 C785 1.386 . S
C784 C786 1.391 . S
C785 C784 1.386 . S
C785 C789 1.393 . S
C786 H778 0.950 . S
C786 C784 1.391 . S
C786 C787 1.400 . S
C787 C786 1.400 . S
C787 C788 1.398 . S
C787 C793 1.491 . S
C788 H779 0.950 . S
C788 C787 1.398 . S
C788 C789 1.391 . S
C789 H777 0.950 . S
C789 C785 1.393 . S
C789 C788 1.391 . S
C790 H780 0.950 . S
C790 C791 1.386 . S
C790 C792 1.391 . S
C791 C790 1.386 . S
C791 C795 1.393 . S
C792 H781 0.950 . S
C792 C790 1.391 . S
C792 C793 1.400 . S
C793 C787 1.491 . S
C793 C792 1.400 . S
C793 C794 1.398 . S
C794 H782 0.950 . S
C794 C793 1.398 . S
C794 C795 1.391 . S
C795 H783 0.950 . S
C795 C791 1.393 . S
C795 C794 1.391 . S
H796 C804 0.943 1_554 S
H797 C809 0.950 . S
H798 C806 0.950 . S
H799 C808 0.950 . S
H800 C810 0.950 . S
H801 C812 0.950 . S
H802 C814 0.950 . S
H803 C815 0.950 . S
C804 H796 0.943 1_556 S
C804 C805 1.386 . S
C804 C806 1.391 . S
C805 C804 1.386 . S
C805 C809 1.393 . S
C806 H798 0.950 . S
C806 C804 1.391 . S
C806 C807 1.400 . S
C807 C806 1.400 . S
C807 C808 1.398 . S
C807 C813 1.491 . S
C808 H799 0.950 . S
C808 C807 1.398 . S
C808 C809 1.391 . S
C809 H797 0.950 . S
C809 C805 1.393 . S
C809 C808 1.391 . S
C810 H800 0.950 . S
C810 C811 1.386 . S
C810 C812 1.391 . S
C811 C810 1.386 . S
C811 C815 1.393 . S
C812 H801 0.950 . S
C812 C810 1.391 . S
C812 C813 1.400 . S
C813 C807 1.491 . S
C813 C812 1.400 . S
C813 C814 1.398 . S
C814 H802 0.950 . S
C814 C813 1.398 . S
C814 C815 1.391 . S
C815 H803 0.950 . S
C815 C811 1.393 . S
C815 C814 1.391 . S
H816 C824 0.950 . S
H817 C829 0.950 . S
H818 C826 0.950 . S
H819 C828 0.950 . S
H820 C830 0.950 . S
H821 C832 0.950 . S
H822 C834 0.950 . S
H823 C835 0.950 . S
C824 H816 0.950 . S
C824 C825 1.386 . S
C824 C826 1.391 . S
C825 C824 1.386 . S
C825 C829 1.393 . S
C826 H818 0.950 . S
C826 C824 1.391 . S
C826 C827 1.400 . S
C827 C826 1.400 . S
C827 C828 1.398 . S
C827 C833 1.491 . S
C828 H819 0.950 . S
C828 C827 1.398 . S
C828 C829 1.391 . S
C829 H817 0.950 . S
C829 C825 1.393 . S
C829 C828 1.391 . S
C830 H820 0.950 . S
C830 C831 1.386 . S
C830 C832 1.391 . S
C831 C830 1.386 . S
C831 C835 1.393 . S
C832 H821 0.950 . S
C832 C830 1.391 . S
C832 C833 1.400 . S
C833 C827 1.491 . S
C833 C832 1.400 . S
C833 C834 1.398 . S
C834 H822 0.950 . S
C834 C833 1.398 . S
C834 C835 1.391 . S
C835 H823 0.950 . S
C835 C831 1.393 . S
C835 C834 1.391 . S
H836 C844 0.950 . S
H837 C849 0.950 . S
H838 C846 0.950 . S
H839 C848 0.950 . S
H840 C850 0.950 . S
H841 C852 0.950 . S
H842 C854 0.950 . S
H843 C855 0.950 . S
C844 H836 0.950 . S
C844 C845 1.386 . S
C844 C846 1.391 . S
C845 C844 1.386 . S
C845 C849 1.393 . S
C846 H838 0.950 . S
C846 C844 1.391 . S
C846 C847 1.400 . S
C847 C846 1.400 . S
C847 C848 1.398 . S
C847 C853 1.491 . S
C848 H839 0.950 . S
C848 C847 1.398 . S
C848 C849 1.391 . S
C849 H837 0.950 . S
C849 C845 1.393 . S
C849 C848 1.391 . S
C850 H840 0.950 . S
C850 C851 1.386 . S
C850 C852 1.391 . S
C851 C850 1.386 . S
C851 C855 1.393 . S
C852 H841 0.950 . S
C852 C850 1.391 . S
C852 C853 1.400 . S
C853 C847 1.491 . S
C853 C852 1.400 . S
C853 C854 1.398 . S
C854 H842 0.950 . S
C854 C853 1.398 . S
C854 C855 1.391 . S
C855 H843 0.950 . S
C855 C851 1.393 . S
C855 C854 1.391 . S
H856 C864 0.950 . S
H857 C869 0.950 . S
H858 C866 0.950 . S
H859 C868 0.950 . S
H860 C870 0.950 . S
H861 C872 0.950 . S
H862 C874 0.950 . S
H863 C875 0.950 . S
C864 H856 0.950 . S
C864 C865 1.386 . S
C864 C866 1.391 . S
C865 C864 1.386 . S
C865 C869 1.393 . S
C866 H858 0.950 . S
C866 C864 1.391 . S
C866 C867 1.400 . S
C867 C866 1.400 . S
C867 C868 1.398 . S
C867 C873 1.491 . S
C868 H859 0.950 . S
C868 C867 1.398 . S
C868 C869 1.391 . S
C869 H857 0.950 . S
C869 C865 1.393 . S
C869 C868 1.391 . S
C870 H860 0.950 . S
C870 C871 1.386 . S
C870 C872 1.391 . S
C871 C870 1.386 . S
C871 C875 1.393 . S
C872 H861 0.950 . S
C872 C870 1.391 . S
C872 C873 1.400 . S
C873 C867 1.491 . S
C873 C872 1.400 . S
C873 C874 1.398 . S
C874 H862 0.950 . S
C874 C873 1.398 . S
C874 C875 1.391 . S
C875 H863 0.950 . S
C875 C871 1.393 . S
C875 C874 1.391 . S
H876 C884 0.950 . S
H877 C889 0.950 . S
H878 C886 0.950 . S
H879 C888 0.950 . S
H880 C890 0.950 . S
H881 C892 0.950 . S
H882 C894 0.950 . S
H883 C895 0.950 1_556 S
C884 H876 0.950 . S
C884 C885 1.386 . S
C884 C886 1.391 . S
C885 C884 1.386 . S
C885 C889 1.393 . S
C886 H878 0.950 . S
C886 C884 1.391 . S
C886 C887 1.400 . S
C887 C886 1.400 . S
C887 C888 1.398 . S
C887 C893 1.491 . S
C888 H879 0.950 . S
C888 C887 1.398 . S
C888 C889 1.391 . S
C889 H877 0.950 . S
C889 C885 1.393 . S
C889 C888 1.391 . S
C890 H880 0.950 . S
C890 C891 1.386 . S
C890 C892 1.391 . S
C891 C890 1.386 . S
C891 C895 1.393 . S
C892 H881 0.950 . S
C892 C890 1.391 . S
C892 C893 1.400 . S
C893 C887 1.491 . S
C893 C892 1.400 . S
C893 C894 1.398 . S
C894 H882 0.950 . S
C894 C893 1.398 . S
C894 C895 1.391 . S
C895 H883 0.950 1_554 S
C895 C891 1.393 . S
C895 C894 1.391 . S
H896 C904 0.950 . S
H897 C909 0.950 . S
H898 C906 0.950 . S
H899 C908 0.950 . S
H900 C910 0.950 . S
H901 C912 0.950 . S
H902 C914 0.950 . S
H903 C915 0.950 . S
C904 H896 0.950 . S
C904 C905 1.386 . S
C904 C906 1.391 . S
C905 C904 1.386 . S
C905 C909 1.393 . S
C906 H898 0.950 . S
C906 C904 1.391 . S
C906 C907 1.400 . S
C907 C906 1.400 . S
C907 C908 1.398 . S
C907 C913 1.491 . S
C908 H899 0.950 . S
C908 C907 1.398 . S
C908 C909 1.391 . S
C909 H897 0.950 . S
C909 C905 1.393 . S
C909 C908 1.391 . S
C910 H900 0.950 . S
C910 C911 1.386 . S
C910 C912 1.391 . S
C911 C910 1.386 . S
C911 C915 1.393 . S
C912 H901 0.950 . S
C912 C910 1.391 . S
C912 C913 1.400 . S
C913 C907 1.491 . S
C913 C912 1.400 . S
C913 C914 1.398 . S
C914 H902 0.950 . S
C914 C913 1.398 . S
C914 C915 1.391 . S
C915 H903 0.950 . S
C915 C911 1.393 . S
C915 C914 1.391 . S
H916 C924 0.950 . S
H917 C929 0.950 1_556 S
H918 C926 0.950 . S
H919 C928 0.950 . S
H920 C930 0.950 . S
H921 C932 0.950 . S
H922 C934 0.950 . S
H923 C935 0.950 . S
C924 H916 0.950 . S
C924 C925 1.386 . S
C924 C926 1.391 . S
C925 C924 1.386 . S
C925 C929 1.393 . S
C926 H918 0.950 . S
C926 C924 1.391 . S
C926 C927 1.400 . S
C927 C926 1.400 . S
C927 C928 1.398 . S
C927 C933 1.491 . S
C928 H919 0.950 . S
C928 C927 1.398 . S
C928 C929 1.391 . S
C929 H917 0.950 1_554 S
C929 C925 1.393 . S
C929 C928 1.391 . S
C930 H920 0.950 . S
C930 C931 1.386 . S
C930 C932 1.391 . S
C931 C930 1.386 . S
C931 C935 1.393 . S
C932 H921 0.950 . S
C932 C930 1.391 . S
C932 C933 1.400 . S
C933 C927 1.491 . S
C933 C932 1.400 . S
C933 C934 1.398 . S
C934 H922 0.950 . S
C934 C933 1.398 . S
C934 C935 1.391 . S
C935 H923 0.950 . S
C935 C931 1.393 . S
C935 C934 1.391 . S
H936 C944 0.950 . S
H937 C949 0.950 . S
H938 C946 0.950 . S
H939 C948 0.950 . S
H940 C950 0.950 . S
H941 C952 0.950 . S
H942 C954 0.950 . S
H943 C955 0.950 . S
C944 H936 0.950 . S
C944 C945 1.386 . S
C944 C946 1.391 . S
C945 C944 1.386 . S
C945 C949 1.393 . S
C946 H938 0.950 . S
C946 C944 1.391 . S
C946 C947 1.400 . S
C947 C946 1.400 . S
C947 C948 1.398 . S
C947 C953 1.491 . S
C948 H939 0.950 . S
C948 C947 1.398 . S
C948 C949 1.391 . S
C949 H937 0.950 . S
C949 C945 1.393 . S
C949 C948 1.391 . S
C950 H940 0.950 . S
C950 C951 1.386 . S
C950 C952 1.391 . S
C951 C950 1.386 . S
C951 C955 1.393 . S
C952 H941 0.950 . S
C952 C950 1.391 . S
C952 C953 1.400 . S
C953 C947 1.491 . S
C953 C952 1.400 . S
C953 C954 1.398 . S
C954 H942 0.950 . S
C954 C953 1.398 . S
C954 C955 1.391 . S
C955 H943 0.950 . S
C955 C951 1.393 . S
C955 C954 1.391 . S
H956 C964 0.950 . S
H957 C969 0.950 . S
H958 C966 0.950 . S
H959 C968 0.950 . S
H960 C970 0.950 . S
H961 C972 0.950 . S
H962 C974 0.950 . S
H963 C975 0.950 . S
C964 H956 0.950 . S
C964 C965 1.386 . S
C964 C966 1.391 . S
C965 C964 1.386 . S
C965 C969 1.393 . S
C966 H958 0.950 . S
C966 C964 1.391 . S
C966 C967 1.400 . S
C967 C966 1.400 . S
C967 C968 1.398 . S
C967 C973 1.491 . S
C968 H959 0.950 . S
C968 C967 1.398 . S
C968 C969 1.391 . S
C969 H957 0.950 . S
C969 C965 1.393 . S
C969 C968 1.391 . S
C970 H960 0.950 . S
C970 C971 1.386 . S
C970 C972 1.391 . S
C971 C970 1.386 . S
C971 C975 1.393 . S
C972 H961 0.950 . S
C972 C970 1.391 . S
C972 C973 1.400 . S
C973 C967 1.491 . S
C973 C972 1.400 . S
C973 C974 1.398 . S
C974 H962 0.950 . S
C974 C973 1.398 . S
C974 C975 1.391 . S
C975 H963 0.950 . S
C975 C971 1.393 . S
C975 C974 1.391 . S
H976 C984 0.950 . S
H977 C989 0.950 . S
H978 C986 0.950 . S
H979 C988 0.950 . S
H980 C990 0.950 . S
H981 C992 0.950 . S
H982 C994 0.950 . S
H983 C995 0.950 . S
C984 H976 0.950 . S
C984 C985 1.386 . S
C984 C986 1.391 . S
C985 C984 1.386 . S
C985 C989 1.393 . S
C986 H978 0.950 . S
C986 C984 1.391 . S
C986 C987 1.400 . S
C987 C986 1.400 . S
C987 C988 1.398 . S
C987 C993 1.491 . S
C988 H979 0.950 . S
C988 C987 1.398 . S
C988 C989 1.391 . S
C989 H977 0.950 . S
C989 C985 1.393 . S
C989 C988 1.391 . S
C990 H980 0.950 . S
C990 C991 1.386 . S
C990 C992 1.391 . S
C991 C990 1.386 . S
C991 C995 1.393 . S
C992 H981 0.950 . S
C992 C990 1.391 . S
C992 C993 1.400 . S
C993 C987 1.491 . S
C993 C992 1.400 . S
C993 C994 1.398 . S
C994 H982 0.950 . S
C994 C993 1.398 . S
C994 C995 1.391 . S
C995 H983 0.950 . S
C995 C991 1.393 . S
C995 C994 1.391 . S
H996 C1004 0.950 . S
H997 C1009 0.950 . S
H998 C1006 0.950 . S
H999 C1008 0.950 . S
H1000 C1010 0.950 . S
H1001 C1012 0.950 . S
H1002 C1014 0.950 . S
H1003 C1015 0.950 . S
C1004 H996 0.950 . S
C1004 C1005 1.386 . S
C1004 C1006 1.391 . S
C1005 C1004 1.386 . S
C1005 C1009 1.393 . S
C1006 H998 0.950 . S
C1006 C1004 1.391 . S
C1006 C1007 1.400 . S
C1007 C1006 1.400 . S
C1007 C1008 1.398 . S
C1007 C1013 1.491 . S
C1008 H999 0.950 . S
C1008 C1007 1.398 . S
C1008 C1009 1.391 . S
C1009 H997 0.950 . S
C1009 C1005 1.393 . S
C1009 C1008 1.391 . S
C1010 H1000 0.950 . S
C1010 C1011 1.386 . S
C1010 C1012 1.391 . S
C1011 C1010 1.386 . S
C1011 C1015 1.393 . S
C1012 H1001 0.950 . S
C1012 C1010 1.391 . S
C1012 C1013 1.400 . S
C1013 C1007 1.491 . S
C1013 C1012 1.400 . S
C1013 C1014 1.398 . S
C1014 H1002 0.950 . S
C1014 C1013 1.398 . S
C1014 C1015 1.391 . S
C1015 H1003 0.950 . S
C1015 C1011 1.393 . S
C1015 C1014 1.391 . S
H1016 C1024 0.950 . S
H1017 C1029 0.950 . S
H1018 C1026 0.950 . S
H1019 C1028 0.950 . S
H1020 C1030 0.950 . S
H1021 C1032 0.950 . S
H1022 C1034 0.950 . S
H1023 C1035 0.950 . S
C1024 H1016 0.950 . S
C1024 C1025 1.386 . S
C1024 C1026 1.391 . S
C1025 C1024 1.386 . S
C1025 C1029 1.393 . S
C1026 H1018 0.950 . S
C1026 C1024 1.391 . S
C1026 C1027 1.400 . S
C1027 C1026 1.400 . S
C1027 C1028 1.398 . S
C1027 C1033 1.491 . S
C1028 H1019 0.950 . S
C1028 C1027 1.398 . S
C1028 C1029 1.391 . S
C1029 H1017 0.950 . S
C1029 C1025 1.393 . S
C1029 C1028 1.391 . S
C1030 H1020 0.950 . S
C1030 C1031 1.386 . S
C1030 C1032 1.391 . S
C1031 C1030 1.386 . S
C1031 C1035 1.393 . S
C1032 H1021 0.950 . S
C1032 C1030 1.391 . S
C1032 C1033 1.400 . S
C1033 C1027 1.491 . S
C1033 C1032 1.400 . S
C1033 C1034 1.398 . S
C1034 H1022 0.950 . S
C1034 C1033 1.398 . S
C1034 C1035 1.391 . S
C1035 H1023 0.950 . S
C1035 C1031 1.393 . S
C1035 C1034 1.391 . S
H1036 C1044 0.950 . S
H1037 C1049 0.950 . S
H1038 C1046 0.950 . S
H1039 C1048 0.950 . S
H1040 C1050 0.950 . S
H1041 C1052 0.950 . S
H1042 C1054 0.950 . S
H1043 C1055 0.950 . S
C1044 H1036 0.950 . S
C1044 C1045 1.386 . S
C1044 C1046 1.391 . S
C1045 C1044 1.386 . S
C1045 C1049 1.393 . S
C1046 H1038 0.950 . S
C1046 C1044 1.391 . S
C1046 C1047 1.400 . S
C1047 C1046 1.400 . S
C1047 C1048 1.398 . S
C1047 C1053 1.491 . S
C1048 H1039 0.950 . S
C1048 C1047 1.398 . S
C1048 C1049 1.391 . S
C1049 H1037 0.950 . S
C1049 C1045 1.393 . S
C1049 C1048 1.391 . S
C1050 H1040 0.950 . S
C1050 C1051 1.386 . S
C1050 C1052 1.391 . S
C1051 C1050 1.386 . S
C1051 C1055 1.393 . S
C1052 H1041 0.950 . S
C1052 C1050 1.391 . S
C1052 C1053 1.400 . S
C1053 C1047 1.491 . S
C1053 C1052 1.400 . S
C1053 C1054 1.398 . S
C1054 H1042 0.950 . S
C1054 C1053 1.398 . S
C1054 C1055 1.391 . S
C1055 H1043 0.950 . S
C1055 C1051 1.393 . S
C1055 C1054 1.391 . S
H1056 C1064 0.950 . S
H1057 C1069 0.950 . S
H1058 C1066 0.950 . S
H1059 C1068 0.950 . S
H1060 C1070 0.950 . S
H1061 C1072 0.950 . S
H1062 C1074 0.950 . S
H1063 C1075 0.950 . S
C1064 H1056 0.950 . S
C1064 C1065 1.386 . S
C1064 C1066 1.391 . S
C1065 C1064 1.386 . S
C1065 C1069 1.393 . S
C1066 H1058 0.950 . S
C1066 C1064 1.391 . S
C1066 C1067 1.400 . S
C1067 C1066 1.400 . S
C1067 C1068 1.398 . S
C1067 C1073 1.491 . S
C1068 H1059 0.950 . S
C1068 C1067 1.398 . S
C1068 C1069 1.391 . S
C1069 H1057 0.950 . S
C1069 C1065 1.393 . S
C1069 C1068 1.391 . S
C1070 H1060 0.950 . S
C1070 C1071 1.386 . S
C1070 C1072 1.391 . S
C1071 C1070 1.386 . S
C1071 C1075 1.393 . S
C1072 H1061 0.950 . S
C1072 C1070 1.391 . S
C1072 C1073 1.400 . S
C1073 C1067 1.491 . S
C1073 C1072 1.400 . S
C1073 C1074 1.398 . S
C1074 H1062 0.950 . S
C1074 C1073 1.398 . S
C1074 C1075 1.391 . S
C1075 H1063 0.950 . S
C1075 C1071 1.393 . S
C1075 C1074 1.391 . S
H1076 C1084 0.950 . S
H1077 C1089 0.950 . S
H1078 C1086 0.950 . S
H1079 C1088 0.950 . S
H1080 C1090 0.950 . S
H1081 C1092 0.950 . S
H1082 C1094 0.950 . S
H1083 C1095 0.950 . S
C1084 H1076 0.950 . S
C1084 C1085 1.386 . S
C1084 C1086 1.391 . S
C1085 C1084 1.386 . S
C1085 C1089 1.393 . S
C1086 H1078 0.950 . S
C1086 C1084 1.391 . S
C1086 C1087 1.400 . S
C1087 C1086 1.400 . S
C1087 C1088 1.398 . S
C1087 C1093 1.491 . S
C1088 H1079 0.950 . S
C1088 C1087 1.398 . S
C1088 C1089 1.391 . S
C1089 H1077 0.950 . S
C1089 C1085 1.393 . S
C1089 C1088 1.391 . S
C1090 H1080 0.950 . S
C1090 C1091 1.386 . S
C1090 C1092 1.391 . S
C1091 C1090 1.386 . S
C1091 C1095 1.393 . S
C1092 H1081 0.950 . S
C1092 C1090 1.391 . S
C1092 C1093 1.400 . S
C1093 C1087 1.491 . S
C1093 C1092 1.400 . S
C1093 C1094 1.398 . S
C1094 H1082 0.950 . S
C1094 C1093 1.398 . S
C1094 C1095 1.391 . S
C1095 H1083 0.950 . S
C1095 C1091 1.393 . S
C1095 C1094 1.391 . S
H1096 C1104 0.950 . S
H1097 C1109 0.950 . S
H1098 C1106 0.950 . S
H1099 C1108 0.950 . S
H1100 C1110 0.950 . S
H1101 C1112 0.950 . S
H1102 C1114 0.950 . S
H1103 C1115 0.950 . S
C1104 H1096 0.950 . S
C1104 C1105 1.386 . S
C1104 C1106 1.391 . S
C1105 C1104 1.386 . S
C1105 C1109 1.393 . S
C1106 H1098 0.950 . S
C1106 C1104 1.391 . S
C1106 C1107 1.400 . S
C1107 C1106 1.400 . S
C1107 C1108 1.398 . S
C1107 C1113 1.491 . S
C1108 H1099 0.950 . S
C1108 C1107 1.398 . S
C1108 C1109 1.391 . S
C1109 H1097 0.950 . S
C1109 C1105 1.393 . S
C1109 C1108 1.391 . S
C1110 H1100 0.950 . S
C1110 C1111 1.386 . S
C1110 C1112 1.391 . S
C1111 C1110 1.386 . S
C1111 C1115 1.393 . S
C1112 H1101 0.950 . S
C1112 C1110 1.391 . S
C1112 C1113 1.400 . S
C1113 C1107 1.491 . S
C1113 C1112 1.400 . S
C1113 C1114 1.398 . S
C1114 H1102 0.950 . S
C1114 C1113 1.398 . S
C1114 C1115 1.391 . S
C1115 H1103 0.950 . S
C1115 C1111 1.393 . S
C1115 C1114 1.391 . S
H1116 C1124 0.950 . S
H1117 C1129 0.950 . S
H1118 C1126 0.950 . S
H1119 C1128 0.950 . S
H1120 C1130 0.950 . S
H1121 C1132 0.950 . S
H1122 C1134 0.950 . S
H1123 C1135 0.950 . S
C1124 H1116 0.950 . S
C1124 C1125 1.386 . S
C1124 C1126 1.391 . S
C1125 C1124 1.386 . S
C1125 C1129 1.393 . S
C1126 H1118 0.950 . S
C1126 C1124 1.391 . S
C1126 C1127 1.400 . S
C1127 C1126 1.400 . S
C1127 C1128 1.398 . S
C1127 C1133 1.491 . S
C1128 H1119 0.950 . S
C1128 C1127 1.398 . S
C1128 C1129 1.391 . S
C1129 H1117 0.950 . S
C1129 C1125 1.393 . S
C1129 C1128 1.391 . S
C1130 H1120 0.950 . S
C1130 C1131 1.386 . S
C1130 C1132 1.391 . S
C1131 C1130 1.386 . S
C1131 C1135 1.393 . S
C1132 H1121 0.950 . S
C1132 C1130 1.391 . S
C1132 C1133 1.400 . S
C1133 C1127 1.491 . S
C1133 C1132 1.400 . S
C1133 C1134 1.398 . S
C1134 H1122 0.950 . S
C1134 C1133 1.398 . S
C1134 C1135 1.391 . S
C1135 H1123 0.950 . S
C1135 C1131 1.393 . S
C1135 C1134 1.391 . S
H1136 C1144 0.950 . S
H1137 C1149 0.950 . S
H1138 C1146 0.950 . S
H1139 C1148 0.950 . S
H1140 C1150 0.950 . S
H1141 C1152 0.950 . S
H1142 C1154 0.950 . S
H1143 C1155 0.950 . S
C1144 H1136 0.950 . S
C1144 C1145 1.386 . S
C1144 C1146 1.391 . S
C1145 C1144 1.386 . S
C1145 C1149 1.393 . S
C1146 H1138 0.950 . S
C1146 C1144 1.391 . S
C1146 C1147 1.400 . S
C1147 C1146 1.400 . S
C1147 C1148 1.398 . S
C1147 C1153 1.491 . S
C1148 H1139 0.950 . S
C1148 C1147 1.398 . S
C1148 C1149 1.391 . S
C1149 H1137 0.950 . S
C1149 C1145 1.393 . S
C1149 C1148 1.391 . S
C1150 H1140 0.950 . S
C1150 C1151 1.386 . S
C1150 C1152 1.391 . S
C1151 C1150 1.386 . S
C1151 C1155 1.393 . S
C1152 H1141 0.950 . S
C1152 C1150 1.391 . S
C1152 C1153 1.400 . S
C1153 C1147 1.491 . S
C1153 C1152 1.400 . S
C1153 C1154 1.398 . S
C1154 H1142 0.950 . S
C1154 C1153 1.398 . S
C1154 C1155 1.391 . S
C1155 H1143 0.950 . S
C1155 C1151 1.393 . S
C1155 C1154 1.391 . S
H1156 C1164 0.950 . S
H1157 C1169 0.950 . S
H1158 C1166 0.950 . S
H1159 C1168 0.950 . S
H1160 C1170 0.950 . S
H1161 C1172 0.950 . S
H1162 C1174 0.950 . S
H1163 C1175 0.950 . S
C1164 H1156 0.950 . S
C1164 C1165 1.386 . S
C1164 C1166 1.391 . S
C1165 C1164 1.386 . S
C1165 C1169 1.393 . S
C1166 H1158 0.950 . S
C1166 C1164 1.391 . S
C1166 C1167 1.400 . S
C1167 C1166 1.400 . S
C1167 C1168 1.398 . S
C1167 C1173 1.491 . S
C1168 H1159 0.950 . S
C1168 C1167 1.398 . S
C1168 C1169 1.391 . S
C1169 H1157 0.950 . S
C1169 C1165 1.393 . S
C1169 C1168 1.391 . S
C1170 H1160 0.950 . S
C1170 C1171 1.386 . S
C1170 C1172 1.391 . S
C1171 C1170 1.386 . S
C1171 C1175 1.393 . S
C1172 H1161 0.950 . S
C1172 C1170 1.391 . S
C1172 C1173 1.400 . S
C1173 C1167 1.491 . S
C1173 C1172 1.400 . S
C1173 C1174 1.398 . S
C1174 H1162 0.950 . S
C1174 C1173 1.398 . S
C1174 C1175 1.391 . S
C1175 H1163 0.950 . S
C1175 C1171 1.393 . S
C1175 C1174 1.391 . S
H1176 C1184 0.950 . S
H1177 C1189 0.950 . S
H1178 C1186 0.950 . S
H1179 C1188 0.950 . S
H1180 C1190 0.950 . S
H1181 C1192 0.950 . S
H1182 C1194 0.949 1_554 S
H1183 C1195 0.950 . S
C1184 H1176 0.950 . S
C1184 C1185 1.386 . S
C1184 C1186 1.391 . S
C1185 C1184 1.386 . S
C1185 C1189 1.393 . S
C1186 H1178 0.950 . S
C1186 C1184 1.391 . S
C1186 C1187 1.400 . S
C1187 C1186 1.400 . S
C1187 C1188 1.398 . S
C1187 C1193 1.491 . S
C1188 H1179 0.950 . S
C1188 C1187 1.398 . S
C1188 C1189 1.391 . S
C1189 H1177 0.950 . S
C1189 C1185 1.393 . S
C1189 C1188 1.391 . S
C1190 H1180 0.950 . S
C1190 C1191 1.386 1_556 S
C1190 C1192 1.391 . S
C1191 C1190 1.386 1_554 S
C1191 C1195 1.393 . S
C1192 H1181 0.950 . S
C1192 C1190 1.391 . S
C1192 C1193 1.400 . S
C1193 C1187 1.491 . S
C1193 C1192 1.400 . S
C1193 C1194 1.404 . S
C1194 H1182 0.949 1_556 S
C1194 C1193 1.404 . S
C1194 C1195 1.386 1_556 S
C1195 H1183 0.950 . S
C1195 C1191 1.393 . S
C1195 C1194 1.386 1_554 S
H1196 C1204 0.950 . S
H1197 C1209 0.950 . S
H1198 C1206 0.950 . S
H1199 C1208 0.950 . S
H1200 C1210 0.950 . S
H1201 C1212 0.950 . S
H1202 C1214 0.950 . S
H1203 C1215 0.950 . S
C1204 H1196 0.950 . S
C1204 C1205 1.386 . S
C1204 C1206 1.391 . S
C1205 C1204 1.386 . S
C1205 C1209 1.393 . S
C1206 H1198 0.950 . S
C1206 C1204 1.391 . S
C1206 C1207 1.400 . S
C1207 C1206 1.400 . S
C1207 C1208 1.398 . S
C1207 C1213 1.491 . S
C1208 H1199 0.950 . S
C1208 C1207 1.398 . S
C1208 C1209 1.391 . S
C1209 H1197 0.950 . S
C1209 C1205 1.393 . S
C1209 C1208 1.391 . S
C1210 H1200 0.950 . S
C1210 C1211 1.386 . S
C1210 C1212 1.391 . S
C1211 C1210 1.386 . S
C1211 C1215 1.393 1_554 S
C1212 H1201 0.950 . S
C1212 C1210 1.391 . S
C1212 C1213 1.400 1_554 S
C1213 C1207 1.491 . S
C1213 C1212 1.400 1_556 S
C1213 C1214 1.398 . S
C1214 H1202 0.950 . S
C1214 C1213 1.398 . S
C1214 C1215 1.391 . S
C1215 H1203 0.950 . S
C1215 C1211 1.393 1_556 S
C1215 C1214 1.391 . S
H1216 C1224 0.950 . S
H1217 C1229 0.950 . S
H1218 C1226 0.950 . S
H1219 C1228 0.950 . S
H1220 C1230 0.950 . S
H1221 C1232 0.950 . S
H1222 C1234 0.950 . S
H1223 C1235 0.950 . S
C1224 H1216 0.950 . S
C1224 C1225 1.386 . S
C1224 C1226 1.391 . S
C1225 C1224 1.386 . S
C1225 C1229 1.393 . S
C1226 H1218 0.950 . S
C1226 C1224 1.391 . S
C1226 C1227 1.400 . S
C1227 C1226 1.400 . S
C1227 C1228 1.398 . S
C1227 C1233 1.491 . S
C1228 H1219 0.950 . S
C1228 C1227 1.398 . S
C1228 C1229 1.391 . S
C1229 H1217 0.950 . S
C1229 C1225 1.393 . S
C1229 C1228 1.391 . S
C1230 H1220 0.950 . S
C1230 C1231 1.386 1_556 S
C1230 C1232 1.391 . S
C1231 C1230 1.386 1_554 S
C1231 C1235 1.393 . S
C1232 H1221 0.950 . S
C1232 C1230 1.391 . S
C1232 C1233 1.400 . S
C1233 C1227 1.491 . S
C1233 C1232 1.400 . S
C1233 C1234 1.398 1_556 S
C1234 H1222 0.950 . S
C1234 C1233 1.398 1_554 S
C1234 C1235 1.391 . S
C1235 H1223 0.950 . S
C1235 C1231 1.393 . S
C1235 C1234 1.391 . S
H1236 C1244 0.950 . S
H1237 C1249 0.950 . S
H1238 C1246 0.950 . S
H1239 C1248 0.950 . S
H1240 C1250 0.950 . S
H1241 C1252 0.950 . S
H1242 C1254 0.950 . S
H1243 C1255 0.950 . S
C1244 H1236 0.950 . S
C1244 C1245 1.386 . S
C1244 C1246 1.391 . S
C1245 C1244 1.386 . S
C1245 C1249 1.393 . S
C1246 H1238 0.950 . S
C1246 C1244 1.391 . S
C1246 C1247 1.400 . S
C1247 C1246 1.400 . S
C1247 C1248 1.398 . S
C1247 C1253 1.491 . S
C1248 H1239 0.950 . S
C1248 C1247 1.398 . S
C1248 C1249 1.391 . S
C1249 H1237 0.950 . S
C1249 C1245 1.393 . S
C1249 C1248 1.391 . S
C1250 H1240 0.950 . S
C1250 C1251 1.386 . S
C1250 C1252 1.391 . S
C1251 C1250 1.386 . S
C1251 C1255 1.393 . S
C1252 H1241 0.950 . S
C1252 C1250 1.391 . S
C1252 C1253 1.400 . S
C1253 C1247 1.491 . S
C1253 C1252 1.400 . S
C1253 C1254 1.398 . S
C1254 H1242 0.950 . S
C1254 C1253 1.398 . S
C1254 C1255 1.391 . S
C1255 H1243 0.950 . S
C1255 C1251 1.393 . S
C1255 C1254 1.391 . S
H1256 C1264 0.950 . S
H1257 C1269 0.950 . S
H1258 C1266 0.950 . S
H1259 C1268 0.950 . S
H1260 C1270 0.950 . S
H1261 C1272 0.950 . S
H1262 C1274 0.950 . S
H1263 C1275 0.950 . S
C1264 H1256 0.950 . S
C1264 C1265 1.386 . S
C1264 C1266 1.391 . S
C1265 C1264 1.386 . S
C1265 C1269 1.393 . S
C1266 H1258 0.950 . S
C1266 C1264 1.391 . S
C1266 C1267 1.400 . S
C1267 C1266 1.400 . S
C1267 C1268 1.398 . S
C1267 C1273 1.491 . S
C1268 H1259 0.950 . S
C1268 C1267 1.398 . S
C1268 C1269 1.391 . S
C1269 H1257 0.950 . S
C1269 C1265 1.393 . S
C1269 C1268 1.391 . S
C1270 H1260 0.950 . S
C1270 C1271 1.386 . S
C1270 C1272 1.391 . S
C1271 C1270 1.386 . S
C1271 C1275 1.393 . S
C1272 H1261 0.950 . S
C1272 C1270 1.391 . S
C1272 C1273 1.400 . S
C1273 C1267 1.491 . S
C1273 C1272 1.400 . S
C1273 C1274 1.398 . S
C1274 H1262 0.950 . S
C1274 C1273 1.398 . S
C1274 C1275 1.391 . S
C1275 H1263 0.950 . S
C1275 C1271 1.393 . S
C1275 C1274 1.391 . S
H1276 C1284 0.950 . S
H1277 C1289 0.950 . S
H1278 C1286 0.950 . S
H1279 C1288 0.950 . S
H1280 C1290 0.950 . S
H1281 C1292 0.950 . S
H1282 C1294 0.950 . S
H1283 C1295 0.950 . S
C1284 H1276 0.950 . S
C1284 C1285 1.386 . S
C1284 C1286 1.391 . S
C1285 C1284 1.386 . S
C1285 C1289 1.393 . S
C1286 H1278 0.950 . S
C1286 C1284 1.391 . S
C1286 C1287 1.400 . S
C1287 C1286 1.400 . S
C1287 C1288 1.398 . S
C1287 C1293 1.491 . S
C1288 H1279 0.950 . S
C1288 C1287 1.398 . S
C1288 C1289 1.391 . S
C1289 H1277 0.950 . S
C1289 C1285 1.393 . S
C1289 C1288 1.391 . S
C1290 H1280 0.950 . S
C1290 C1291 1.386 . S
C1290 C1292 1.391 . S
C1291 C1290 1.386 . S
C1291 C1295 1.393 . S
C1292 H1281 0.950 . S
C1292 C1290 1.391 . S
C1292 C1293 1.400 . S
C1293 C1287 1.491 . S
C1293 C1292 1.400 . S
C1293 C1294 1.398 . S
C1294 H1282 0.950 . S
C1294 C1293 1.398 . S
C1294 C1295 1.391 . S
C1295 H1283 0.950 . S
C1295 C1291 1.393 . S
C1295 C1294 1.391 . S
H1296 C1304 0.950 . S
H1297 C1309 0.950 . S
H1298 C1306 0.950 . S
H1299 C1308 0.950 . S
H1300 C1310 0.950 . S
H1301 C1312 0.950 . S
H1302 C1314 0.950 . S
H1303 C1315 0.950 . S
C1304 H1296 0.950 . S
C1304 C1305 1.386 . S
C1304 C1306 1.391 1_556 S
C1305 C1304 1.386 . S
C1305 C1309 1.393 . S
C1306 H1298 0.950 . S
C1306 C1304 1.391 1_554 S
C1306 C1307 1.400 . S
C1307 C1306 1.400 . S
C1307 C1308 1.398 . S
C1307 C1313 1.491 . S
C1308 H1299 0.950 . S
C1308 C1307 1.398 . S
C1308 C1309 1.391 1_554 S
C1309 H1297 0.950 . S
C1309 C1305 1.393 . S
C1309 C1308 1.391 1_556 S
C1310 H1300 0.950 . S
C1310 C1311 1.386 . S
C1310 C1312 1.391 . S
C1311 C1310 1.386 . S
C1311 C1315 1.393 . S
C1312 H1301 0.950 . S
C1312 C1310 1.391 . S
C1312 C1313 1.400 . S
C1313 C1307 1.491 . S
C1313 C1312 1.400 . S
C1313 C1314 1.398 . S
C1314 H1302 0.950 . S
C1314 C1313 1.398 . S
C1314 C1315 1.391 . S
C1315 H1303 0.950 . S
C1315 C1311 1.393 . S
C1315 C1314 1.391 . S
H1316 C1324 0.950 . S
H1317 C1329 0.950 . S
H1318 C1326 0.950 . S
H1319 C1328 0.950 . S
H1320 C1330 0.950 . S
H1321 C1332 0.950 . S
H1322 C1334 0.950 . S
H1323 C1335 0.950 . S
C1324 H1316 0.950 . S
C1324 C1325 1.386 . S
C1324 C1326 1.391 . S
C1325 C1324 1.386 . S
C1325 C1329 1.393 . S
C1326 H1318 0.950 . S
C1326 C1324 1.391 . S
C1326 C1327 1.400 . S
C1327 C1326 1.400 . S
C1327 C1328 1.398 . S
C1327 C1333 1.491 . S
C1328 H1319 0.950 . S
C1328 C1327 1.398 . S
C1328 C1329 1.391 . S
C1329 H1317 0.950 . S
C1329 C1325 1.393 . S
C1329 C1328 1.391 . S
C1330 H1320 0.950 . S
C1330 C1331 1.386 1_554 S
C1330 C1332 1.391 . S
C1331 C1330 1.386 1_556 S
C1331 C1335 1.393 . S
C1332 H1321 0.950 . S
C1332 C1330 1.391 . S
C1332 C1333 1.400 . S
C1333 C1327 1.491 . S
C1333 C1332 1.400 . S
C1333 C1334 1.398 1_554 S
C1334 H1322 0.950 . S
C1334 C1333 1.398 1_556 S
C1334 C1335 1.391 . S
C1335 H1323 0.950 . S
C1335 C1331 1.393 . S
C1335 C1334 1.391 . S
H1336 C1344 0.950 . S
H1337 C1349 0.950 . S
H1338 C1346 0.950 . S
H1339 C1348 0.950 . S
H1340 C1350 0.950 . S
H1341 C1352 0.950 . S
H1342 C1354 0.950 . S
H1343 C1355 0.950 . S
C1344 H1336 0.950 . S
C1344 C1345 1.386 . S
C1344 C1346 1.391 . S
C1345 C1344 1.386 . S
C1345 C1349 1.393 . S
C1346 H1338 0.950 . S
C1346 C1344 1.391 . S
C1346 C1347 1.400 . S
C1347 C1346 1.400 . S
C1347 C1348 1.398 . S
C1347 C1353 1.491 . S
C1348 H1339 0.950 . S
C1348 C1347 1.398 . S
C1348 C1349 1.391 . S
C1349 H1337 0.950 . S
C1349 C1345 1.393 . S
C1349 C1348 1.391 . S
C1350 H1340 0.950 . S
C1350 C1351 1.386 1_554 S
C1350 C1352 1.391 . S
C1351 C1350 1.386 1_556 S
C1351 C1355 1.393 . S
C1352 H1341 0.950 . S
C1352 C1350 1.391 . S
C1352 C1353 1.400 . S
C1353 C1347 1.491 . S
C1353 C1352 1.400 . S
C1353 C1354 1.398 . S
C1354 H1342 0.950 . S
C1354 C1353 1.398 . S
C1354 C1355 1.391 1_554 S
C1355 H1343 0.950 . S
C1355 C1351 1.393 . S
C1355 C1354 1.391 1_556 S
H1356 C1364 0.950 . S
H1357 C1369 0.950 . S
H1358 C1366 0.950 . S
H1359 C1368 0.950 . S
H1360 C1370 0.950 . S
H1361 C1372 0.950 . S
H1362 C1374 0.950 . S
H1363 C1375 0.950 . S
C1364 H1356 0.950 . S
C1364 C1365 1.386 . S
C1364 C1366 1.391 . S
C1365 C1364 1.386 . S
C1365 C1369 1.393 . S
C1366 H1358 0.950 . S
C1366 C1364 1.391 . S
C1366 C1367 1.400 . S
C1367 C1366 1.400 . S
C1367 C1368 1.398 . S
C1367 C1373 1.491 1_655 S
C1368 H1359 0.950 . S
C1368 C1367 1.398 . S
C1368 C1369 1.391 . S
C1369 H1357 0.950 . S
C1369 C1365 1.393 . S
C1369 C1368 1.391 . S
C1370 H1360 0.950 . S
C1370 C1371 1.386 . S
C1370 C1372 1.391 . S
C1371 C1370 1.386 . S
C1371 C1375 1.393 . S
C1372 H1361 0.950 . S
C1372 C1370 1.391 . S
C1372 C1373 1.400 . S
C1373 C1367 1.491 1_455 S
C1373 C1372 1.400 . S
C1373 C1374 1.398 . S
C1374 H1362 0.950 . S
C1374 C1373 1.398 . S
C1374 C1375 1.391 . S
C1375 H1363 0.950 . S
C1375 C1371 1.393 . S
C1375 C1374 1.391 . S
H1376 C1384 0.950 . S
H1377 C1389 0.950 . S
H1378 C1386 0.950 . S
H1379 C1388 0.950 . S
H1380 C1390 0.950 . S
H1381 C1392 0.950 . S
H1382 C1394 0.950 . S
H1383 C1395 0.950 . S
C1384 H1376 0.950 . S
C1384 C1385 1.386 . S
C1384 C1386 1.391 . S
C1385 C1384 1.386 . S
C1385 C1389 1.393 . S
C1386 H1378 0.950 . S
C1386 C1384 1.391 . S
C1386 C1387 1.400 . S
C1387 C1386 1.400 . S
C1387 C1388 1.398 . S
C1387 C1393 1.491 . S
C1388 H1379 0.950 . S
C1388 C1387 1.398 . S
C1388 C1389 1.391 . S
C1389 H1377 0.950 . S
C1389 C1385 1.393 . S
C1389 C1388 1.391 . S
C1390 H1380 0.950 . S
C1390 C1391 1.386 . S
C1390 C1392 1.391 . S
C1391 C1390 1.386 . S
C1391 C1395 1.393 . S
C1392 H1381 0.950 . S
C1392 C1390 1.391 . S
C1392 C1393 1.400 . S
C1393 C1387 1.491 . S
C1393 C1392 1.400 . S
C1393 C1394 1.398 . S
C1394 H1382 0.950 . S
C1394 C1393 1.398 . S
C1394 C1395 1.391 . S
C1395 H1383 0.950 . S
C1395 C1391 1.393 . S
C1395 C1394 1.391 . S
H1396 C1404 0.950 . S
H1397 C1409 0.950 . S
H1398 C1406 0.950 . S
H1399 C1408 0.950 1_545 S
H1400 C1410 0.950 . S
H1401 C1412 0.950 . S
H1402 C1414 0.950 . S
H1403 C1415 0.950 . S
C1404 H1396 0.950 . S
C1404 C1405 1.386 . S
C1404 C1406 1.391 . S
C1405 C1404 1.386 . S
C1405 C1409 1.393 . S
C1406 H1398 0.950 . S
C1406 C1404 1.391 . S
C1406 C1407 1.400 . S
C1407 C1406 1.400 . S
C1407 C1408 1.398 . S
C1407 C1413 1.491 1_565 S
C1408 H1399 0.950 1_565 S
C1408 C1407 1.398 . S
C1408 C1409 1.391 . S
C1409 H1397 0.950 . S
C1409 C1405 1.393 . S
C1409 C1408 1.391 . S
C1410 H1400 0.950 . S
C1410 C1411 1.386 . S
C1410 C1412 1.391 . S
C1411 C1410 1.386 . S
C1411 C1415 1.393 . S
C1412 H1401 0.950 . S
C1412 C1410 1.391 . S
C1412 C1413 1.400 . S
C1413 C1407 1.491 1_545 S
C1413 C1412 1.400 . S
C1413 C1414 1.398 . S
C1414 H1402 0.950 . S
C1414 C1413 1.398 . S
C1414 C1415 1.391 . S
C1415 H1403 0.950 . S
C1415 C1411 1.393 . S
C1415 C1414 1.391 . S
H1416 C1424 0.950 . S
H1417 C1429 0.950 . S
H1418 C1426 0.950 . S
H1419 C1428 0.950 1_545 S
H1420 C1430 0.950 . S
H1421 C1432 0.950 . S
H1422 C1434 0.950 . S
H1423 C1435 0.950 . S
C1424 H1416 0.950 . S
C1424 C1425 1.386 . S
C1424 C1426 1.391 . S
C1425 C1424 1.386 . S
C1425 C1429 1.393 . S
C1426 H1418 0.950 . S
C1426 C1424 1.391 . S
C1426 C1427 1.400 . S
C1427 C1426 1.400 . S
C1427 C1428 1.398 . S
C1427 C1433 1.491 1_565 S
C1428 H1419 0.950 1_565 S
C1428 C1427 1.398 . S
C1428 C1429 1.391 . S
C1429 H1417 0.950 . S
C1429 C1425 1.393 . S
C1429 C1428 1.391 . S
C1430 H1420 0.950 . S
C1430 C1431 1.386 . S
C1430 C1432 1.391 . S
C1431 C1430 1.386 . S
C1431 C1435 1.393 . S
C1432 H1421 0.950 . S
C1432 C1430 1.391 . S
C1432 C1433 1.400 . S
C1433 C1427 1.491 1_545 S
C1433 C1432 1.400 . S
C1433 C1434 1.398 . S
C1434 H1422 0.950 . S
C1434 C1433 1.398 . S
C1434 C1435 1.391 . S
C1435 H1423 0.950 . S
C1435 C1431 1.393 . S
C1435 C1434 1.391 . S
H1436 C1444 0.950 . S
H1437 C1449 0.950 . S
H1438 C1446 0.950 . S
H1439 C1448 0.950 . S
H1440 C1450 0.950 . S
H1441 C1452 0.950 . S
H1442 C1454 0.950 . S
H1443 C1455 0.950 . S
C1444 H1436 0.950 . S
C1444 C1445 1.386 . S
C1444 C1446 1.391 . S
C1445 C1444 1.386 . S
C1445 C1449 1.393 . S
C1446 H1438 0.950 . S
C1446 C1444 1.391 . S
C1446 C1447 1.400 . S
C1447 C1446 1.400 . S
C1447 C1448 1.398 . S
C1447 C1453 1.491 1_455 S
C1448 H1439 0.950 . S
C1448 C1447 1.398 . S
C1448 C1449 1.391 . S
C1449 H1437 0.950 . S
C1449 C1445 1.393 . S
C1449 C1448 1.391 . S
C1450 H1440 0.950 . S
C1450 C1451 1.386 . S
C1450 C1452 1.391 . S
C1451 C1450 1.386 . S
C1451 C1455 1.393 . S
C1452 H1441 0.950 . S
C1452 C1450 1.391 . S
C1452 C1453 1.400 . S
C1453 C1447 1.491 1_655 S
C1453 C1452 1.400 . S
C1453 C1454 1.398 . S
C1454 H1442 0.950 . S
C1454 C1453 1.398 . S
C1454 C1455 1.391 . S
C1455 H1443 0.950 . S
C1455 C1451 1.393 . S
C1455 C1454 1.391 . S
H1456 C1464 0.950 . S
H1457 C1469 0.950 . S
H1458 C1466 0.950 . S
H1459 C1468 0.950 . S
H1460 C1470 0.950 . S
H1461 C1472 0.950 . S
H1462 C1474 0.950 . S
H1463 C1475 0.950 . S
C1464 H1456 0.950 . S
C1464 C1465 1.386 . S
C1464 C1466 1.391 . S
C1465 C1464 1.386 . S
C1465 C1469 1.393 . S
C1466 H1458 0.950 . S
C1466 C1464 1.391 . S
C1466 C1467 1.400 . S
C1467 C1466 1.400 . S
C1467 C1468 1.398 . S
C1467 C1473 1.491 . S
C1468 H1459 0.950 . S
C1468 C1467 1.398 . S
C1468 C1469 1.391 . S
C1469 H1457 0.950 . S
C1469 C1465 1.393 . S
C1469 C1468 1.391 . S
C1470 H1460 0.950 . S
C1470 C1471 1.386 . S
C1470 C1472 1.391 . S
C1471 C1470 1.386 . S
C1471 C1475 1.393 . S
C1472 H1461 0.950 . S
C1472 C1470 1.391 . S
C1472 C1473 1.400 . S
C1473 C1467 1.491 . S
C1473 C1472 1.400 . S
C1473 C1474 1.398 . S
C1474 H1462 0.950 . S
C1474 C1473 1.398 . S
C1474 C1475 1.391 . S
C1475 H1463 0.950 . S
C1475 C1471 1.393 . S
C1475 C1474 1.391 . S
C405 C4 1.315 . S
C411 C94 1.315 . S
C425 C114 1.315 . S
C431 C28 1.315 . S
C445 C48 1.323 . S
C451 C70 1.299 . S
C465 C51 1.316 . S
C471 C96 1.311 . S
C485 C117 1.301 . S
C491 C7 1.323 . S
C505 C30 1.324 . S
C511 C73 1.297 . S
C525 C31 1.308 . S
C531 C74 1.317 . S
C545 C52 1.297 . S
C551 C97 1.324 . S
C565 C118 1.318 . S
C571 C8 1.311 . S
C585 C115 1.320 . S
C591 C26 1.302 . S
C605 C49 1.314 . S
C611 C71 1.316 . S
C625 C5 1.314 . S
C631 C92 1.316 . S
C645 C226 1.315 . S
C651 C136 1.315 . S
C665 C158 1.321 . S
C671 C248 1.301 . S
C685 C180 1.320 . S
C691 C204 1.304 . S
C705 C228 1.307 . S
C711 C183 1.318 . S
C725 C250 1.315 . S
C731 C139 1.315 . S
C745 C206 1.300 . S
C751 C161 1.322 . S
C765 C162 1.298 . S
C771 C207 1.323 . S
C785 C184 1.315 . S
C791 C229 1.315 . S
C805 C140 1.307 . S
C811 C251 1.318 . S
C825 C159 1.297 . S
C831 C246 1.324 . S
C845 C181 1.310 . S
C851 C202 1.317 . S
C865 C224 1.324 . S
C871 C137 1.297 . S
C885 C268 1.324 . S
C891 C358 1.297 . S
C905 C292 1.323 . S
C911 C380 1.298 . S
C925 C334 1.313 . S
C931 C312 1.315 . S
C945 C360 1.313 . S
C951 C315 1.315 . S
C965 C271 1.317 . S
C971 C382 1.309 . S
C985 C294 1.321 . S
C991 C337 1.304 . S
C1005 C295 1.310 . S
C1011 C338 1.317 . S
C1025 C316 1.306 . S
C1031 C361 1.320 . S
C1045 C272 1.307 . S
C1051 C383 1.320 . S
C1065 C378 1.324 . S
C1071 C290 1.297 . S
C1085 C335 1.315 . S
C1091 C313 1.313 . S
C1105 C269 1.298 . S
C1111 C356 1.323 . S
C1125 C6 1.804 . S
C1131 C293 1.823 . S
C1145 C27 1.818 . S
C1151 C317 1.828 . S
C1165 C50 1.825 . S
C1171 C273 1.805 . S
C1185 C53 1.803 . S
C1191 C160 1.819 . S
C1205 C9 1.829 . S
C1211 C182 1.812 . S
C1225 C29 1.810 . S
C1231 C138 1.829 . S
C1245 C225 1.804 . S
C1251 C75 1.823 . S
C1265 C95 1.820 . S
C1271 C247 1.803 . S
C1285 C119 1.822 . S
C1291 C203 1.803 . S
C1305 C359 1.821 . S
C1311 C116 1.827 . S
C1325 C72 1.829 . S
C1331 C381 1.812 . S
C1345 C93 1.828 . S
C1351 C339 1.820 . S
C1365 C185 1.803 . S
C1371 C291 1.814 . S
C1385 C141 1.829 . S
C1391 C314 1.813 . S
C1405 C270 1.819 . S
C1411 C163 1.828 . S
C1425 C357 1.817 . S
C1431 C205 1.803 . S
C1445 C379 1.812 . S
C1451 C227 1.804 . S
C1465 C249 1.808 . S
C1471 C336 1.807 . S
