# Generated by pormake.
# Topology sma, (6)-cn, num edge types: 1
# Building blocks:
#     Node 0, Type 0, BuildingBlock: PAMTUU_clean_sbu_0, # of connection points: 6
#     Node 1, Type 0, BuildingBlock: PAMTUU_clean_sbu_0, # of connection points: 6
#     Node 2, Type 0, BuildingBlock: PAMTUU_clean_sbu_0, # of connection points: 6
#     Edge 3, Type (0, 0), BuildingBlock: TEMPAE_clean_linker_10, # of connection points: 2
#     Edge 4, Type (0, 0), BuildingBlock: TEMPAE_clean_linker_10, # of connection points: 2
#     Edge 5, Type (0, 0), BuildingBlock: TEMPAE_clean_linker_10, # of connection points: 2
#     Edge 6, Type (0, 0), BuildingBlock: TEMPAE_clean_linker_10, # of connection points: 2
#     Edge 7, Type (0, 0), BuildingBlock: TEMPAE_clean_linker_10, # of connection points: 2
#     Edge 8, Type (0, 0), BuildingBlock: TEMPAE_clean_linker_10, # of connection points: 2
#     Edge 9, Type (0, 0), BuildingBlock: TEMPAE_clean_linker_10, # of connection points: 2
#     Edge 10, Type (0, 0), BuildingBlock: TEMPAE_clean_linker_10, # of connection points: 2
#     Edge 11, Type (0, 0), BuildingBlock: TEMPAE_clean_linker_10, # of connection points: 2
# Relax obj value: 0.066
# Max RMSD: 0.176
# Mean RMSD: 0.171
data_MOF--net-sma--node1-PAMTUU_clean_sbu_0--edge1-TEMPAE_clean_linker_10
_symmetry_space_group_name_H-M    P1
_symmetry_Int_Tables_number       1
_symmetry_cell_setting            triclinic
loop_
_symmetry_equiv_pos_as_xyz
'x, y, z'
_cell_length_a     40.15704
_cell_length_b     40.086094
_cell_length_c     14.052697
_cell_angle_alpha  97.201818
_cell_angle_beta   90.439022
_cell_angle_gamma 119.71004
loop_
_atom_site_label
_atom_site_type_symbol
_atom_site_fract_x
_atom_site_fract_y
_atom_site_fract_z
_atom_type_partial_charge
Tb0 Tb 1.02594 0.5539 0.18219 0.0
Tb1 Tb 0.08302 0.51434 0.17944 0.0
C2 C 1.03135 0.50513 0.00677 0.0
C3 C 0.94826 0.57527 0.10783 0.0
C4 C 0.88049 0.56729 0.01998 0.0
C5 C 0.91675 0.5926 -0.00989 0.0
C6 C 0.95029 0.59669 0.03396 0.0
C7 C 0.91186 0.54878 0.13484 0.0
C8 C 0.87842 0.54484 0.09138 0.0
C9 C 0.98395 0.58366 0.1628 0.0
O10 O 0.98726 0.49122 0.17482 0.0
O11 O 1.02863 0.47068 0.22488 0.0
O12 O 0.07646 0.52721 0.32998 0.0
O13 O 1.03384 0.55089 0.3299 0.0
O14 O 0.10271 0.47896 0.10739 0.0
O15 O 0.12998 0.51373 0.2446 0.0
O16 O 0.11377 0.57281 0.14228 0.0
O17 O 0.0837 0.59963 0.23285 0.0
O18 O 1.0401 0.54042 0.04167 0.0
O19 O 0.04407 0.48667 0.05165 0.0
C20 C 0.99369 0.46531 0.20842 0.0
O21 O 0.98034 0.56165 0.22733 0.0
O22 O 1.01429 0.59178 0.11567 0.0
C23 C 0.05384 0.53848 0.37227 0.0
C24 C 0.17018 0.50323 0.13578 0.0
C25 C 0.24324 0.5201 0.07361 0.0
C26 C 0.23919 0.53074 0.17024 0.0
C27 C 0.20312 0.5223 0.20094 0.0
C28 C 0.17428 0.49319 0.03873 0.0
C29 C 0.21038 0.50164 0.008 0.0
C30 C 0.13165 0.49142 0.17116 0.0
C31 C 0.11452 0.60289 0.19375 0.0
H32 H 0.91933 0.61048 0.93573 0.0
H33 H 0.97791 0.61759 0.01223 0.0
H34 H 0.9091 0.53182 0.19158 0.0
H35 H 0.85089 0.52465 0.11496 0.0
H36 H 0.26391 0.54542 0.22251 0.0
H37 H 0.20096 0.53013 0.27633 0.0
H38 H 0.14948 0.47805 -0.0133 0.0
H39 H 0.21232 0.49257 0.93333 0.0
Tb40 Tb 0.51933 1.01442 0.51078 0.0
Tb41 Tb 0.61331 0.06783 0.48067 0.0
C42 C 0.5528 1.02572 0.31749 0.0
C43 C 0.41812 0.93106 0.48677 0.0
C44 C 0.35756 0.85665 0.4094 0.0
C45 C 0.3886 0.87737 0.35483 0.0
C46 C 0.41877 0.91424 0.3934 0.0
C47 C 0.3875 0.9103 0.54165 0.0
C48 C 0.35751 0.87342 0.50348 0.0
C49 C 0.44857 0.97037 0.52779 0.0
O50 O 0.54258 0.97549 0.48555 0.0
O51 O 0.60564 1.01749 0.54273 0.0
O52 O 0.61019 0.09062 0.62542 0.0
O53 O 0.54935 0.04141 0.65178 0.0
O54 O 0.64905 0.08744 0.36917 0.0
O55 O 0.67342 0.09734 0.51469 0.0
O56 O 0.58867 0.10542 0.46902 0.0
O57 O 0.5316 0.07382 0.54162 0.0
O58 O 0.52628 0.02765 0.36604 0.0
O59 O 0.57906 1.02266 0.36344 0.0
C60 C 0.57572 0.98209 0.52383 0.0
O61 O 0.47603 0.97257 0.58291 0.0
O62 O 0.46187 0.99609 0.46929 0.0
C63 C 0.58229 0.07343 0.68099 0.0
C64 C 0.7095 0.1446 0.41244 0.0
C65 C 0.76919 0.21701 0.37281 0.0
C66 C 0.77352 0.20094 0.45224 0.0
C67 C 0.74407 0.16503 0.4715 0.0
C68 C 0.70479 0.16117 0.33435 0.0
C69 C 0.73431 0.19692 0.3148 0.0
C70 C 0.68042 0.10465 0.42669 0.0
C71 C 0.55856 0.10464 0.50879 0.0
H72 H 0.38958 0.86502 0.28251 0.0
H73 H 0.44237 0.92972 0.35012 0.0
H74 H 0.38655 0.92285 0.61382 0.0
H75 H 0.33381 0.85839 0.54687 0.0
H76 H 0.8002 0.21553 0.49774 0.0
H77 H 0.74874 0.15276 0.53121 0.0
H78 H 0.67864 0.14619 0.28678 0.0
H79 H 0.72992 0.20875 0.25378 0.0
Tb80 Tb 0.54071 0.50279 0.82796 0.0
Tb81 Tb 0.5849 0.60037 0.83692 0.0
C82 C 0.56245 0.54558 0.65616 0.0
C83 C 0.51708 0.39996 0.77395 0.0
C84 C 0.53341 0.34167 0.69595 0.0
C85 C 0.49578 0.3355 0.68688 0.0
C86 C 0.48772 0.36435 0.72573 0.0
C87 C 0.55484 0.40652 0.78192 0.0
C88 C 0.56289 0.37755 0.74372 0.0
C89 C 0.50781 0.42988 0.8146 0.0
O90 O 0.60152 0.52105 0.83695 0.0
O91 O 0.63075 0.58607 0.81592 0.0
O92 O 0.60499 0.59038 -0.03408 0.0
O93 O 0.55166 0.53103 -0.02464 0.0
O94 O 0.61598 0.64614 0.75877 0.0
O95 O 0.5989 0.65662 0.90046 0.0
O96 O 0.52923 0.5826 0.89425 0.0
O97 O 0.49605 0.51856 0.82244 0.0
O98 O 0.56448 0.5186 0.69399 0.0
O99 O 0.55056 0.56649 0.70672 0.0
C100 C 0.63208 0.5543 0.82566 0.0
O101 O 0.52935 0.45372 0.89036 0.0
O102 O 0.50095 0.44787 0.75259 0.0
C103 C 0.58467 0.5612 0.01225 0.0
C104 C 0.60497 0.69952 0.7906 0.0
C105 C 0.59365 0.75754 0.72625 0.0
C106 C 0.60785 0.76202 0.82157 0.0
C107 C 0.61351 0.73337 0.8532 0.0
C108 C 0.58997 0.69447 0.69578 0.0
C109 C 0.58442 0.72325 0.66394 0.0
C110 C 0.61469 0.67163 0.82414 0.0
C111 C 0.49679 0.54974 0.86815 0.0
H112 H 0.47238 0.30801 0.6515 0.0
H113 H 0.45843 0.35875 0.71857 0.0
H114 H 0.57811 0.43395 0.81796 0.0
H115 H 0.59221 0.3833 0.75109 0.0
H116 H 0.61572 0.78824 0.87109 0.0
H117 H 0.62545 0.73808 0.92629 0.0
H118 H 0.58311 0.66866 0.64573 0.0
H119 H 0.57302 0.71871 0.59042 0.0
C120 C 0.305 0.51971 0.10036 0.0
C121 C 0.28126 0.52684 0.04231 0.0
C122 C 0.34038 0.52476 0.071 0.0
C123 C 0.35248 0.53722 -0.01883 0.0
C124 C 0.32889 0.54485 0.92256 0.0
C125 C 0.2936 0.53954 0.95374 0.0
C126 C 0.36454 0.51615 0.13556 0.0
C127 C 0.3408 0.5583 0.82649 0.0
C128 C 0.45907 0.57939 0.94398 0.0
C129 C 0.45972 0.54732 0.89277 0.0
C130 C 0.42435 0.57677 -0.02832 0.0
C131 C 0.38934 0.54122 0.94777 0.0
C132 C 0.3897 0.50897 0.89462 0.0
C133 C 0.42478 0.5124 0.86781 0.0
C134 C 0.42521 0.61184 0.02818 0.0
C135 C 0.35304 0.47055 0.86755 0.0
H136 H 0.29551 0.5093 0.16816 0.0
H137 H 0.27571 0.54556 0.90889 0.0
H138 H 0.36807 0.49217 0.09807 0.0
H139 H 0.3937 0.54197 0.15209 0.0
H140 H 0.3516 0.50776 0.20437 0.0
H141 H 0.31966 0.56382 0.79041 0.0
H142 H 0.36921 0.58536 0.83605 0.0
H143 H 0.34396 0.53605 0.7784 0.0
H144 H 0.48579 0.60654 -0.03633 0.0
H145 H 0.42478 0.4874 0.82822 0.0
H146 H 0.41501 0.60537 0.10036 0.0
H147 H 0.40543 0.61889 -0.00859 0.0
H148 H 0.45451 0.6378 0.03753 0.0
H149 H 0.3399 0.45885 0.9336 0.0
H150 H 0.35799 0.44867 0.82329 0.0
H151 H 0.33189 0.47463 0.8267 0.0
C152 C 0.82258 0.28559 0.42182 0.0
C153 C 0.80134 0.25408 0.34909 0.0
C154 C 0.85357 0.32044 0.40093 0.0
C155 C 0.86374 0.324 0.30483 0.0
C156 C 0.84228 0.29225 0.23097 0.0
C157 C 0.81131 0.25775 0.25392 0.0
C158 C 0.87517 0.35345 0.48191 0.0
C159 C 0.85239 0.29451 0.12781 0.0
C160 C 0.92312 0.42407 0.22883 0.0
C161 C 0.96024 0.42887 0.23123 0.0
C162 C 0.8916 0.3904 0.25388 0.0
C163 C 0.89713 0.36057 0.28138 0.0
C164 C 0.93449 0.36525 0.28415 0.0
C165 C 0.96553 0.39931 0.25947 0.0
C166 C 0.85235 0.3868 0.25115 0.0
C167 C 0.94168 0.33418 0.31298 0.0
H168 H 0.8147 0.28309 0.49528 0.0
H169 H 0.79533 0.23331 0.19749 0.0
H170 H 0.9064 0.36369 0.48277 0.0
H171 H 0.87085 0.37797 0.47053 0.0
H172 H 0.8654 0.34512 0.55338 0.0
H173 H 0.83272 0.26737 0.07876 0.0
H174 H 0.85121 0.31905 0.1025 0.0
H175 H 0.88226 0.30017 0.12269 0.0
H176 H 0.91867 0.44683 0.20836 0.0
H177 H 0.99403 0.40267 0.26226 0.0
H178 H 0.84104 0.38268 0.32312 0.0
H179 H 0.83195 0.36085 0.19986 0.0
H180 H 0.85289 0.41276 0.2294 0.0
H181 H 0.93289 0.3288 0.38671 0.0
H182 H 0.97239 0.34219 0.31133 0.0
H183 H 0.92399 0.3065 0.26388 0.0
C184 C 0.54836 0.91049 0.52133 0.0
C185 C 0.57915 0.94861 0.54636 0.0
C186 C 0.55027 0.87863 0.54653 0.0
C187 C 0.58373 0.88493 0.59841 0.0
C188 C 0.61517 0.92321 0.62259 0.0
C189 C 0.61253 0.95457 0.59618 0.0
C190 C 0.51619 0.83826 0.51902 0.0
C191 C 0.65133 0.93114 0.67803 0.0
C192 C 0.57499 0.8091 0.74996 0.0
C193 C 0.58969 0.78916 0.69168 0.0
C194 C 0.57269 0.84012 0.72021 0.0
C195 C 0.5854 0.85157 0.62989 0.0
C196 C 0.59985 0.83129 0.57017 0.0
C197 C 0.6018 0.80033 0.60172 0.0
C198 C 0.55688 0.86083 0.78579 0.0
C199 C 0.61375 0.84264 0.47348 0.0
H200 H 0.52243 0.90546 0.48271 0.0
H201 H 0.63646 0.98384 0.61614 0.0
H202 H 0.52531 0.81927 0.47686 0.0
H203 H 0.50446 0.82534 0.58484 0.0
H204 H 0.49283 0.83814 0.47586 0.0
H205 H 0.67369 0.9624 0.68844 0.0
H206 H 0.64444 0.92171 0.74974 0.0
H207 H 0.66344 0.91414 0.63977 0.0
H208 H 0.56512 0.80034 0.81899 0.0
H209 H 0.61366 0.78544 0.55679 0.0
H210 H 0.5317 0.8594 0.74824 0.0
H211 H 0.57893 0.89198 0.80462 0.0
H212 H 0.54792 0.84817 0.85338 0.0
H213 H 0.59043 0.84149 0.42782 0.0
H214 H 0.62342 0.82344 0.43476 0.0
H215 H 0.63804 0.873 0.48306 0.0
C216 C 0.70427 0.59271 0.84816 0.0
C217 C 0.67014 0.55662 0.83263 0.0
C218 C 0.73988 0.59531 0.86883 0.0
C219 C 0.74144 0.56101 0.8737 0.0
C220 C 0.70743 0.52442 0.85253 0.0
C221 C 0.67227 0.52268 0.83238 0.0
C222 C 0.77549 0.63489 0.89067 0.0
C223 C 0.7078 0.48711 0.8561 0.0
C224 C 0.8381 0.56448 0.88243 0.0
C225 C 0.84509 0.56585 -0.01874 0.0
C226 C 0.80461 0.56312 0.84607 0.0
C227 C 0.77767 0.56343 0.91017 0.0
C228 C 0.78485 0.56526 0.01006 0.0
C229 C 0.81836 0.56638 0.04423 0.0
C230 C 0.79785 0.56094 0.73911 0.0
C231 C 0.75705 0.56596 0.08105 0.0
H232 H 0.70305 0.61913 0.84843 0.0
H233 H 0.6462 0.49458 0.81934 0.0
H234 H 0.78518 0.64092 -0.03179 0.0
H235 H 0.79928 0.63579 0.84936 0.0
H236 H 0.77032 0.65835 0.87356 0.0
H237 H 0.67979 0.46104 0.82839 0.0
H238 H 0.73069 0.48657 0.81341 0.0
H239 H 0.71429 0.48528 0.93154 0.0
H240 H 0.85855 0.56387 0.83335 0.0
H241 H 0.82391 0.56818 0.12085 0.0
H242 H 0.79397 0.5854 0.72436 0.0
H243 H 0.771 0.53368 0.71088 0.0
H244 H 0.82198 0.56185 0.69912 0.0
H245 H 0.75278 0.59097 0.07544 0.0
H246 H 0.7672 0.56812 0.15654 0.0
H247 H 0.7286 0.53918 0.064 0.0
C248 C 0.30894 0.78776 0.42318 0.0
C249 C 0.32467 0.81816 0.36802 0.0
C250 C 0.27604 0.75219 0.3881 0.0
C251 C 0.25831 0.74693 0.29571 0.0
C252 C 0.27473 0.77707 0.23841 0.0
C253 C 0.30779 0.81233 0.27521 0.0
C254 C 0.25961 0.72065 0.45111 0.0
C255 C 0.25659 0.77259 0.13972 0.0
C256 C 0.18584 0.64323 0.18575 0.0
C257 C 0.15102 0.64056 0.21192 0.0
C258 C 0.22099 0.67797 0.21038 0.0
C259 C 0.22128 0.7108 0.26203 0.0
C260 C 0.18613 0.70862 0.28587 0.0
C261 C 0.15148 0.67355 0.26071 0.0
C262 C 0.25789 0.67916 0.18379 0.0
C263 C 0.1852 0.74306 0.34052 0.0
H264 H 0.32223 0.79194 0.49439 0.0
H265 H 0.31963 0.83585 0.2326 0.0
H266 H 0.2307 0.71503 0.47024 0.0
H267 H 0.256 0.69316 0.41159 0.0
H268 H 0.27811 0.72847 0.51862 0.0
H269 H 0.2744 0.7976 0.10156 0.0
H270 H 0.25207 0.7456 0.09511 0.0
H271 H 0.22791 0.77001 0.1463 0.0
H272 H 0.18581 0.61788 0.14826 0.0
H273 H 0.12474 0.67184 0.2809 0.0
H274 H 0.27579 0.68393 0.25011 0.0
H275 H 0.2748 0.70382 0.14397 0.0
H276 H 0.2526 0.65188 0.13886 0.0
H277 H 0.20035 0.75073 0.4131 0.0
H278 H 0.15539 0.73724 0.34902 0.0
H279 H 0.20051 0.76872 0.30288 0.0
C280 C 0.52551 0.28821 0.56735 0.0
C281 C 0.54144 0.31019 0.65841 0.0
C282 C 0.53049 0.25653 0.53414 0.0
C283 C 0.5516 0.24635 0.59378 0.0
C284 C 0.56882 0.26924 0.68443 0.0
C285 C 0.56364 0.30094 0.71548 0.0
C286 C 0.51196 0.23311 0.43671 0.0
C287 C 0.59127 0.25918 0.75057 0.0
C288 C 0.52536 0.14069 0.57164 0.0
C289 C 0.55584 0.14055 0.52354 0.0
C290 C 0.52341 0.17474 0.59317 0.0
C291 C 0.55257 0.20974 0.56578 0.0
C292 C 0.5829 0.20974 0.51488 0.0
C293 C 0.58421 0.17514 0.4944 0.0
C294 C 0.49051 0.17339 0.64741 0.0
C295 C 0.61438 0.24646 0.48398 0.0
H296 H 0.50879 0.29558 0.52236 0.0
H297 H 0.57575 0.31759 0.78624 0.0
H298 H 0.53323 0.22925 0.3939 0.0
H299 H 0.48849 0.20374 0.44587 0.0
H300 H 0.49973 0.24696 0.39537 0.0
H301 H 0.6053 0.28152 0.81528 0.0
H302 H 0.57169 0.23092 0.77449 0.0
H303 H 0.61371 0.25594 0.71185 0.0
H304 H 0.50317 0.11423 0.59445 0.0
H305 H 0.60781 0.17539 0.45694 0.0
H306 H 0.47505 0.1842 0.60636 0.0
H307 H 0.50185 0.1927 0.71759 0.0
H308 H 0.46956 0.14361 0.66106 0.0
H309 H 0.60178 0.25975 0.44196 0.0
H310 H 0.63455 0.24113 0.4397 0.0
H311 H 0.63098 0.2679 0.54842 0.0
C312 C 1.01262 0.4586 0.85515 0.0
C313 C 1.01071 0.48872 0.91215 0.0
C314 C 1.00402 0.45243 0.75581 0.0
C315 C 0.99562 0.47831 0.71604 0.0
C316 C 0.98542 0.50242 0.77532 0.0
C317 C 0.99275 0.50698 0.87416 0.0
C318 C 1.00984 0.42275 0.69272 0.0
C319 C 0.97307 0.52816 0.73491 0.0
C320 C 0.06545 0.53313 0.54084 0.0
C321 C 1.04019 0.52448 0.46165 0.0
C322 C 0.05117 0.51736 0.62445 0.0
C323 C 1.01108 0.49061 0.62486 0.0
C324 C 0.98606 0.48029 0.54221 0.0
C325 C 1.00084 0.49833 0.46234 0.0
C326 C 0.07888 0.53046 0.7127 0.0
C327 C 0.94379 0.45084 0.53648 0.0
H328 H 1.02428 0.44268 0.8859 0.0
H329 H 0.98851 0.52817 0.92031 0.0
H330 H 0.99057 0.41154 0.62536 0.0
H331 H 1.04 0.43639 0.67288 0.0
H332 H 1.00434 0.39809 0.73103 0.0
H333 H 0.96607 0.54503 0.79199 0.0
H334 H 0.9963 0.54893 0.69501 0.0
H335 H 0.94726 0.51024 0.68388 0.0
H336 H 0.09595 0.55291 0.53803 0.0
H337 H 0.98155 0.49112 0.39912 0.0
H338 H 0.08108 0.50561 0.73199 0.0
H339 H 0.06844 0.54161 0.77482 0.0
H340 H 0.10823 0.55373 0.70137 0.0
H341 H 0.93619 0.43215 0.59375 0.0
H342 H 0.93506 0.43226 0.46511 0.0
H343 H 0.92694 0.466 0.54132 0.0
C344 C 0.57258 0.02769 0.15236 0.0
C345 C 0.56347 0.04479 0.2325 0.0
C346 C 0.58347 0.04606 0.07081 0.0
C347 C 0.58737 0.08339 0.07282 0.0
C348 C 0.58149 0.10217 0.15736 0.0
C349 C 0.56813 0.08192 0.23524 0.0
C350 C 0.5885 1.02439 -0.01893 0.0
C351 C 0.58788 0.14288 0.16594 0.0
C352 C 0.62264 0.10842 0.83498 0.0
C353 C 0.58689 0.09006 0.78189 0.0
C354 C 0.62434 0.11324 0.93571 0.0
C355 C 0.58953 0.09803 -0.01896 0.0
C356 C 0.55447 0.08611 0.9279 0.0
C357 C 0.55371 0.08264 0.82818 0.0
C358 C 0.6626 0.1303 -0.0073 0.0
C359 C 0.51687 0.07162 -0.02561 0.0
H360 H 0.56969 0.99931 0.15234 0.0
H361 H 0.56175 0.09546 0.29846 0.0
H362 H 0.56833 1.02067 0.92089 0.0
H363 H 0.61812 0.04116 0.95905 0.0
H364 H 0.58322 0.9952 -0.00835 0.0
H365 H 0.60398 0.15978 0.23599 0.0
H366 H 0.60403 0.1586 0.10728 0.0
H367 H 0.5597 0.14174 0.16568 0.0
H368 H 0.64859 0.11576 0.79865 0.0
H369 H 0.52641 0.07055 0.78619 0.0
H370 H 0.66859 0.10677 0.00347 0.0
H371 H 0.66248 0.14527 0.06467 0.0
H372 H 0.68627 0.1512 0.95396 0.0
H373 H 0.50994 0.04493 0.00522 0.0
H374 H 0.49254 0.06479 0.92253 0.0
H375 H 0.51925 0.09379 0.03393 0.0
C376 C 0.58004 0.58596 0.52653 0.0
C377 C 0.58559 0.56093 0.57657 0.0
C378 C 0.59786 0.5963 0.44201 0.0
C379 C 0.62109 0.58063 0.40802 0.0
C380 C 0.63251 0.56182 0.46786 0.0
C381 C 0.61384 0.55128 0.55139 0.0
C382 C 0.58711 0.6189 0.38241 0.0
C383 C 0.66035 0.54832 0.43761 0.0
C384 C 0.57724 0.53272 0.16151 0.0
C385 C 0.59886 0.56301 0.10968 0.0
C386 C 0.58727 0.53619 0.2585 0.0
C387 C 0.61984 0.57092 0.3037 0.0
C388 C 0.64469 0.59918 0.24878 0.0
C389 C 0.63368 0.59506 0.15167 0.0
C390 C 0.56057 0.50434 0.31395 0.0
C391 C 0.68114 0.63516 0.29286 0.0
H392 H 0.55964 0.59504 0.54926 0.0
H393 H 0.62011 0.53402 0.59404 0.0
H394 H 0.61295 0.64141 0.35341 0.0
H395 H 0.5667 0.59893 0.32051 0.0
H396 H 0.57325 0.63329 0.42484 0.0
H397 H 0.67649 0.5478 0.50146 0.0
H398 H 0.64423 0.51835 0.3978 0.0
H399 H 0.68107 0.56731 0.38978 0.0
H400 H 0.55124 0.50712 0.12787 0.0
H401 H 0.65155 0.61781 0.11027 0.0
H402 H 0.54624 0.51537 0.3656 0.0
H403 H 0.57699 0.49472 0.35551 0.0
H404 H 0.53786 0.47855 0.2661 0.0
H405 H 0.67637 0.66034 0.30162 0.0
H406 H 0.70455 0.64171 0.24401 0.0
H407 H 0.69076 0.63225 0.36403 0.0
loop_
_geom_bond_atom_site_label_1
_geom_bond_atom_site_label_2
_geom_bond_distance
_geom_bond_site_symmetry_2
_ccdc_geom_bond_type
Tb0 C9 2.764 . S
Tb0 O10 2.325 . S
Tb0 O13 2.303 1_655 S
Tb0 O17 2.322 1_655 S
Tb0 O18 2.349 1_554 S
Tb0 O21 2.415 . S
Tb0 O22 2.399 . S
Tb1 O11 2.322 1_455 S
Tb1 O12 2.349 . S
Tb1 O14 2.415 . S
Tb1 O15 2.399 . S
Tb1 O16 2.325 . S
Tb1 O19 2.303 . S
Tb1 C30 2.764 . S
C2 O18 1.261 1_455 S
C2 O19 1.257 1_556 S
C3 C6 1.358 . S
C3 C7 1.332 . S
C3 C9 1.504 . S
C4 C5 1.373 . S
C4 C8 1.308 . S
C5 C4 1.373 . S
C5 C6 1.429 . S
C5 H32 0.932 . S
C6 C3 1.358 . S
C6 C5 1.429 . S
C6 H33 0.930 . S
C7 C3 1.332 . S
C7 C8 1.394 . S
C7 H34 0.932 . S
C8 C4 1.308 . S
C8 C7 1.394 . S
C8 H35 0.929 . S
C9 Tb0 2.764 . S
C9 C3 1.504 . S
C9 O21 1.239 . S
C9 O22 1.263 . S
O10 Tb0 2.325 . S
O10 C20 1.236 . S
O11 Tb1 2.322 1_655 S
O11 C20 1.257 . S
O12 Tb1 2.349 . S
O12 C23 1.261 . S
O13 Tb0 2.303 1_455 S
O13 C23 1.257 . S
O14 Tb1 2.415 . S
O14 C30 1.239 . S
O15 Tb1 2.399 . S
O15 C30 1.263 . S
O16 Tb1 2.325 . S
O16 C31 1.236 . S
O17 Tb0 2.322 1_455 S
O17 C31 1.257 . S
O18 Tb0 2.349 1_556 S
O18 C2 1.261 1_655 S
O19 Tb1 2.303 . S
O19 C2 1.257 1_554 S
C20 O10 1.236 . S
C20 O11 1.257 . S
O21 Tb0 2.415 . S
O21 C9 1.239 . S
O22 Tb0 2.399 . S
O22 C9 1.263 . S
C23 O12 1.261 . S
C23 O13 1.257 . S
C24 C27 1.358 . S
C24 C28 1.332 . S
C24 C30 1.504 . S
C25 C26 1.373 . S
C25 C29 1.308 . S
C26 C25 1.373 . S
C26 C27 1.429 . S
C26 H36 0.932 . S
C27 C24 1.358 . S
C27 C26 1.429 . S
C27 H37 0.930 . S
C28 C24 1.332 . S
C28 C29 1.394 . S
C28 H38 0.932 . S
C29 C25 1.308 . S
C29 C28 1.394 . S
C29 H39 0.929 1_554 S
C30 Tb1 2.764 . S
C30 O14 1.239 . S
C30 O15 1.263 . S
C30 C24 1.504 . S
C31 O16 1.236 . S
C31 O17 1.257 . S
H32 C5 0.932 . S
H33 C6 0.930 . S
H34 C7 0.932 . S
H35 C8 0.929 . S
H36 C26 0.932 . S
H37 C27 0.930 . S
H38 C28 0.932 . S
H39 C29 0.929 1_556 S
Tb40 C49 2.764 . S
Tb40 O50 2.325 . S
Tb40 O53 2.303 1_565 S
Tb40 O57 2.322 1_565 S
Tb40 O58 2.349 . S
Tb40 O61 2.415 . S
Tb40 O62 2.399 . S
Tb41 O51 2.322 1_545 S
Tb41 O52 2.349 . S
Tb41 O54 2.415 . S
Tb41 O55 2.399 . S
Tb41 O56 2.325 . S
Tb41 O59 2.303 . S
Tb41 C70 2.764 . S
C42 O58 1.261 1_545 S
C42 O59 1.257 . S
C43 C46 1.358 . S
C43 C47 1.332 . S
C43 C49 1.504 . S
C44 C45 1.373 . S
C44 C48 1.308 . S
C45 C44 1.373 . S
C45 C46 1.429 . S
C45 H72 0.932 . S
C46 C43 1.358 . S
C46 C45 1.429 . S
C46 H73 0.930 . S
C47 C43 1.332 . S
C47 C48 1.394 . S
C47 H74 0.932 . S
C48 C44 1.308 . S
C48 C47 1.394 . S
C48 H75 0.929 . S
C49 Tb40 2.764 . S
C49 C43 1.504 . S
C49 O61 1.239 . S
C49 O62 1.263 . S
O50 Tb40 2.325 . S
O50 C60 1.236 . S
O51 Tb41 2.322 1_565 S
O51 C60 1.257 . S
O52 Tb41 2.349 . S
O52 C63 1.261 . S
O53 Tb40 2.303 1_545 S
O53 C63 1.257 . S
O54 Tb41 2.415 . S
O54 C70 1.239 . S
O55 Tb41 2.399 . S
O55 C70 1.263 . S
O56 Tb41 2.325 . S
O56 C71 1.236 . S
O57 Tb40 2.322 1_545 S
O57 C71 1.257 . S
O58 Tb40 2.349 . S
O58 C42 1.261 1_565 S
O59 Tb41 2.303 . S
O59 C42 1.257 . S
C60 O50 1.236 . S
C60 O51 1.257 . S
O61 Tb40 2.415 . S
O61 C49 1.239 . S
O62 Tb40 2.399 . S
O62 C49 1.263 . S
C63 O52 1.261 . S
C63 O53 1.257 . S
C64 C67 1.358 . S
C64 C68 1.332 . S
C64 C70 1.504 . S
C65 C66 1.373 . S
C65 C69 1.308 . S
C66 C65 1.373 . S
C66 C67 1.429 . S
C66 H76 0.932 . S
C67 C64 1.358 . S
C67 C66 1.429 . S
C67 H77 0.930 . S
C68 C64 1.332 . S
C68 C69 1.394 . S
C68 H78 0.932 . S
C69 C65 1.308 . S
C69 C68 1.394 . S
C69 H79 0.929 . S
C70 Tb41 2.764 . S
C70 O54 1.239 . S
C70 O55 1.263 . S
C70 C64 1.504 . S
C71 O56 1.236 . S
C71 O57 1.257 . S
H72 C45 0.932 . S
H73 C46 0.930 . S
H74 C47 0.932 . S
H75 C48 0.929 . S
H76 C66 0.932 . S
H77 C67 0.930 . S
H78 C68 0.932 . S
H79 C69 0.929 . S
Tb80 C89 2.764 . S
Tb80 O90 2.325 . S
Tb80 O93 2.303 . S
Tb80 O97 2.322 . S
Tb80 O98 2.349 . S
Tb80 O101 2.415 . S
Tb80 O102 2.399 . S
Tb81 O91 2.322 . S
Tb81 O92 2.349 1_556 S
Tb81 O94 2.415 . S
Tb81 O95 2.399 . S
Tb81 O96 2.325 . S
Tb81 O99 2.303 . S
Tb81 C110 2.764 . S
C82 O98 1.261 . S
C82 O99 1.257 . S
C83 C86 1.358 . S
C83 C87 1.332 . S
C83 C89 1.504 . S
C84 C85 1.373 . S
C84 C88 1.308 . S
C85 C84 1.373 . S
C85 C86 1.429 . S
C85 H112 0.932 . S
C86 C83 1.358 . S
C86 C85 1.429 . S
C86 H113 0.930 . S
C87 C83 1.332 . S
C87 C88 1.394 . S
C87 H114 0.932 . S
C88 C84 1.308 . S
C88 C87 1.394 . S
C88 H115 0.929 . S
C89 Tb80 2.764 . S
C89 C83 1.504 . S
C89 O101 1.239 . S
C89 O102 1.263 . S
O90 Tb80 2.325 . S
O90 C100 1.236 . S
O91 Tb81 2.322 . S
O91 C100 1.257 . S
O92 Tb81 2.349 1_554 S
O92 C103 1.261 . S
O93 Tb80 2.303 . S
O93 C103 1.257 1_556 S
O94 Tb81 2.415 . S
O94 C110 1.239 . S
O95 Tb81 2.399 . S
O95 C110 1.263 . S
O96 Tb81 2.325 . S
O96 C111 1.236 . S
O97 Tb80 2.322 . S
O97 C111 1.257 . S
O98 Tb80 2.349 . S
O98 C82 1.261 . S
O99 Tb81 2.303 . S
O99 C82 1.257 . S
C100 O90 1.236 . S
C100 O91 1.257 . S
O101 Tb80 2.415 . S
O101 C89 1.239 . S
O102 Tb80 2.399 . S
O102 C89 1.263 . S
C103 O92 1.261 . S
C103 O93 1.257 1_554 S
C104 C107 1.358 . S
C104 C108 1.332 . S
C104 C110 1.504 . S
C105 C106 1.373 . S
C105 C109 1.308 . S
C106 C105 1.373 . S
C106 C107 1.429 . S
C106 H116 0.932 . S
C107 C104 1.358 . S
C107 C106 1.429 . S
C107 H117 0.930 . S
C108 C104 1.332 . S
C108 C109 1.394 . S
C108 H118 0.932 . S
C109 C105 1.308 . S
C109 C108 1.394 . S
C109 H119 0.929 . S
C110 Tb81 2.764 . S
C110 O94 1.239 . S
C110 O95 1.263 . S
C110 C104 1.504 . S
C111 O96 1.236 . S
C111 O97 1.257 . S
H112 C85 0.932 . S
H113 C86 0.930 . S
H114 C87 0.932 . S
H115 C88 0.929 . S
H116 C106 0.932 . S
H117 C107 0.930 . S
H118 C108 0.932 . S
H119 C109 0.929 . S
C120 C121 1.391 . S
C120 C122 1.394 1_554 S
C120 H136 0.931 . S
C121 C120 1.391 . S
C121 C125 1.376 . S
C122 C120 1.394 1_556 S
C122 C123 1.369 . S
C122 C126 1.531 . S
C123 C122 1.369 . S
C123 C124 1.410 . S
C123 C131 1.503 . S
C124 C123 1.410 . S
C124 C125 1.392 1_556 S
C124 C127 1.511 . S
C125 C121 1.376 . S
C125 C124 1.392 1_554 S
C125 H137 0.929 . S
C126 C122 1.531 . S
C126 H138 0.960 . S
C126 H139 0.962 1_556 S
C126 H140 0.960 . S
C127 C124 1.511 . S
C127 H141 0.961 . S
C127 H142 0.961 . S
C127 H143 0.961 . S
C128 C129 1.370 . S
C128 C130 1.363 . S
C128 H144 0.931 . S
C129 C128 1.370 . S
C129 C133 1.408 . S
C130 C128 1.363 . S
C130 C131 1.370 . S
C130 C134 1.524 1_556 S
C131 C123 1.503 . S
C131 C130 1.370 . S
C131 C132 1.403 . S
C132 C131 1.403 . S
C132 C133 1.404 . S
C132 C135 1.539 . S
C133 C129 1.408 . S
C133 C132 1.404 . S
C133 H145 0.930 . S
C134 C130 1.524 1_554 S
C134 H146 0.956 . S
C134 H147 0.961 . S
C134 H148 0.961 . S
C135 C132 1.539 . S
C135 H149 0.958 . S
C135 H150 0.961 . S
C135 H151 0.960 . S
H136 C120 0.931 . S
H137 C125 0.929 . S
H138 C126 0.960 . S
H139 C126 0.962 1_554 S
H140 C126 0.960 . S
H141 C127 0.961 . S
H142 C127 0.961 . S
H143 C127 0.961 . S
H144 C128 0.931 . S
H145 C133 0.930 . S
H146 C134 0.956 . S
H147 C134 0.961 . S
H148 C134 0.961 . S
H149 C135 0.958 . S
H150 C135 0.961 . S
H151 C135 0.960 . S
C152 C153 1.391 . S
C152 C154 1.394 . S
C152 H168 0.931 . S
C153 C152 1.391 . S
C153 C157 1.376 . S
C154 C152 1.394 . S
C154 C155 1.369 . S
C154 C158 1.531 . S
C155 C154 1.369 . S
C155 C156 1.410 . S
C155 C163 1.503 . S
C156 C155 1.410 . S
C156 C157 1.392 . S
C156 C159 1.511 . S
C157 C153 1.376 . S
C157 C156 1.392 . S
C157 H169 0.929 . S
C158 C154 1.531 . S
C158 H170 0.960 . S
C158 H171 0.962 . S
C158 H172 0.960 . S
C159 C156 1.511 . S
C159 H173 0.961 . S
C159 H174 0.961 . S
C159 H175 0.961 . S
C160 C161 1.370 . S
C160 C162 1.363 . S
C160 H176 0.931 . S
C161 C160 1.370 . S
C161 C165 1.408 . S
C162 C160 1.363 . S
C162 C163 1.370 . S
C162 C166 1.524 . S
C163 C155 1.503 . S
C163 C162 1.370 . S
C163 C164 1.403 . S
C164 C163 1.403 . S
C164 C165 1.404 . S
C164 C167 1.539 . S
C165 C161 1.408 . S
C165 C164 1.404 . S
C165 H177 0.930 . S
C166 C162 1.524 . S
C166 H178 0.956 . S
C166 H179 0.961 . S
C166 H180 0.961 . S
C167 C164 1.539 . S
C167 H181 0.958 . S
C167 H182 0.961 . S
C167 H183 0.960 . S
H168 C152 0.931 . S
H169 C157 0.929 . S
H170 C158 0.960 . S
H171 C158 0.962 . S
H172 C158 0.960 . S
H173 C159 0.961 . S
H174 C159 0.961 . S
H175 C159 0.961 . S
H176 C160 0.931 . S
H177 C165 0.930 . S
H178 C166 0.956 . S
H179 C166 0.961 . S
H180 C166 0.961 . S
H181 C167 0.958 . S
H182 C167 0.961 . S
H183 C167 0.960 . S
C184 C185 1.391 . S
C184 C186 1.394 . S
C184 H200 0.931 . S
C185 C184 1.391 . S
C185 C189 1.376 . S
C186 C184 1.394 . S
C186 C187 1.369 . S
C186 C190 1.531 . S
C187 C186 1.369 . S
C187 C188 1.410 . S
C187 C195 1.503 . S
C188 C187 1.410 . S
C188 C189 1.392 . S
C188 C191 1.511 . S
C189 C185 1.376 . S
C189 C188 1.392 . S
C189 H201 0.929 . S
C190 C186 1.531 . S
C190 H202 0.960 . S
C190 H203 0.962 . S
C190 H204 0.960 . S
C191 C188 1.511 . S
C191 H205 0.961 . S
C191 H206 0.961 . S
C191 H207 0.961 . S
C192 C193 1.370 . S
C192 C194 1.363 . S
C192 H208 0.931 . S
C193 C192 1.370 . S
C193 C197 1.408 . S
C194 C192 1.363 . S
C194 C195 1.370 . S
C194 C198 1.524 . S
C195 C187 1.503 . S
C195 C194 1.370 . S
C195 C196 1.403 . S
C196 C195 1.403 . S
C196 C197 1.404 . S
C196 C199 1.539 . S
C197 C193 1.408 . S
C197 C196 1.404 . S
C197 H209 0.930 . S
C198 C194 1.524 . S
C198 H210 0.956 . S
C198 H211 0.961 . S
C198 H212 0.961 . S
C199 C196 1.539 . S
C199 H213 0.958 . S
C199 H214 0.961 . S
C199 H215 0.960 . S
H200 C184 0.931 . S
H201 C189 0.929 . S
H202 C190 0.960 . S
H203 C190 0.962 . S
H204 C190 0.960 . S
H205 C191 0.961 . S
H206 C191 0.961 . S
H207 C191 0.961 . S
H208 C192 0.931 . S
H209 C197 0.930 . S
H210 C198 0.956 . S
H211 C198 0.961 . S
H212 C198 0.961 . S
H213 C199 0.958 . S
H214 C199 0.961 . S
H215 C199 0.960 . S
C216 C217 1.391 . S
C216 C218 1.394 . S
C216 H232 0.931 . S
C217 C216 1.391 . S
C217 C221 1.376 . S
C218 C216 1.394 . S
C218 C219 1.369 1_556 S
C218 C222 1.531 . S
C219 C218 1.369 1_554 S
C219 C220 1.410 . S
C219 C227 1.503 . S
C220 C219 1.410 . S
C220 C221 1.392 1_554 S
C220 C223 1.511 . S
C221 C217 1.376 . S
C221 C220 1.392 1_556 S
C221 H233 0.929 1_556 S
C222 C218 1.531 . S
C222 H234 0.960 . S
C222 H235 0.962 . S
C222 H236 0.960 . S
C223 C220 1.511 . S
C223 H237 0.961 . S
C223 H238 0.961 . S
C223 H239 0.961 . S
C224 C225 1.370 . S
C224 C226 1.363 . S
C224 H240 0.931 . S
C225 C224 1.370 . S
C225 C229 1.408 . S
C226 C224 1.363 . S
C226 C227 1.370 . S
C226 C230 1.524 1_554 S
C227 C219 1.503 . S
C227 C226 1.370 . S
C227 C228 1.403 . S
C228 C227 1.403 . S
C228 C229 1.404 . S
C228 C231 1.539 . S
C229 C225 1.408 . S
C229 C228 1.404 . S
C229 H241 0.930 . S
C230 C226 1.524 1_556 S
C230 H242 0.956 . S
C230 H243 0.961 . S
C230 H244 0.961 . S
C231 C228 1.539 . S
C231 H245 0.958 . S
C231 H246 0.961 . S
C231 H247 0.960 . S
H232 C216 0.931 . S
H233 C221 0.929 1_554 S
H234 C222 0.960 . S
H235 C222 0.962 . S
H236 C222 0.960 . S
H237 C223 0.961 . S
H238 C223 0.961 . S
H239 C223 0.961 . S
H240 C224 0.931 . S
H241 C229 0.930 . S
H242 C230 0.956 . S
H243 C230 0.961 . S
H244 C230 0.961 . S
H245 C231 0.958 . S
H246 C231 0.961 . S
H247 C231 0.960 . S
C248 C249 1.391 . S
C248 C250 1.394 . S
C248 H264 0.931 . S
C249 C248 1.391 . S
C249 C253 1.376 . S
C250 C248 1.394 . S
C250 C251 1.369 . S
C250 C254 1.531 . S
C251 C250 1.369 . S
C251 C252 1.410 . S
C251 C259 1.503 . S
C252 C251 1.410 . S
C252 C253 1.392 . S
C252 C255 1.511 . S
C253 C249 1.376 . S
C253 C252 1.392 . S
C253 H265 0.929 . S
C254 C250 1.531 . S
C254 H266 0.960 . S
C254 H267 0.962 . S
C254 H268 0.960 . S
C255 C252 1.511 . S
C255 H269 0.961 . S
C255 H270 0.961 . S
C255 H271 0.961 . S
C256 C257 1.370 . S
C256 C258 1.363 . S
C256 H272 0.931 . S
C257 C256 1.370 . S
C257 C261 1.408 . S
C258 C256 1.363 . S
C258 C259 1.370 . S
C258 C262 1.524 . S
C259 C251 1.503 . S
C259 C258 1.370 . S
C259 C260 1.403 . S
C260 C259 1.403 . S
C260 C261 1.404 . S
C260 C263 1.539 . S
C261 C257 1.408 . S
C261 C260 1.404 . S
C261 H273 0.930 . S
C262 C258 1.524 . S
C262 H274 0.956 . S
C262 H275 0.961 . S
C262 H276 0.961 . S
C263 C260 1.539 . S
C263 H277 0.958 . S
C263 H278 0.961 . S
C263 H279 0.960 . S
H264 C248 0.931 . S
H265 C253 0.929 . S
H266 C254 0.960 . S
H267 C254 0.962 . S
H268 C254 0.960 . S
H269 C255 0.961 . S
H270 C255 0.961 . S
H271 C255 0.961 . S
H272 C256 0.931 . S
H273 C261 0.930 . S
H274 C262 0.956 . S
H275 C262 0.961 . S
H276 C262 0.961 . S
H277 C263 0.958 . S
H278 C263 0.961 . S
H279 C263 0.960 . S
C280 C281 1.391 . S
C280 C282 1.394 . S
C280 H296 0.931 . S
C281 C280 1.391 . S
C281 C285 1.376 . S
C282 C280 1.394 . S
C282 C283 1.369 . S
C282 C286 1.531 . S
C283 C282 1.369 . S
C283 C284 1.410 . S
C283 C291 1.503 . S
C284 C283 1.410 . S
C284 C285 1.392 . S
C284 C287 1.511 . S
C285 C281 1.376 . S
C285 C284 1.392 . S
C285 H297 0.929 . S
C286 C282 1.531 . S
C286 H298 0.960 . S
C286 H299 0.962 . S
C286 H300 0.960 . S
C287 C284 1.511 . S
C287 H301 0.961 . S
C287 H302 0.961 . S
C287 H303 0.961 . S
C288 C289 1.370 . S
C288 C290 1.363 . S
C288 H304 0.931 . S
C289 C288 1.370 . S
C289 C293 1.408 . S
C290 C288 1.363 . S
C290 C291 1.370 . S
C290 C294 1.524 . S
C291 C283 1.503 . S
C291 C290 1.370 . S
C291 C292 1.403 . S
C292 C291 1.403 . S
C292 C293 1.404 . S
C292 C295 1.539 . S
C293 C289 1.408 . S
C293 C292 1.404 . S
C293 H305 0.930 . S
C294 C290 1.524 . S
C294 H306 0.956 . S
C294 H307 0.961 . S
C294 H308 0.961 . S
C295 C292 1.539 . S
C295 H309 0.958 . S
C295 H310 0.961 . S
C295 H311 0.960 . S
H296 C280 0.931 . S
H297 C285 0.929 . S
H298 C286 0.960 . S
H299 C286 0.962 . S
H300 C286 0.960 . S
H301 C287 0.961 . S
H302 C287 0.961 . S
H303 C287 0.961 . S
H304 C288 0.931 . S
H305 C293 0.930 . S
H306 C294 0.956 . S
H307 C294 0.961 . S
H308 C294 0.961 . S
H309 C295 0.958 . S
H310 C295 0.961 . S
H311 C295 0.960 . S
C312 C313 1.391 . S
C312 C314 1.394 . S
C312 H328 0.931 . S
C313 C312 1.391 . S
C313 C317 1.376 1_455 S
C314 C312 1.394 . S
C314 C315 1.369 . S
C314 C318 1.531 . S
C315 C314 1.369 . S
C315 C316 1.410 1_455 S
C315 C323 1.503 . S
C316 C315 1.410 1_655 S
C316 C317 1.392 . S
C316 C319 1.511 . S
C317 C313 1.376 1_655 S
C317 C316 1.392 . S
C317 H329 0.929 . S
C318 C314 1.531 . S
C318 H330 0.960 . S
C318 H331 0.962 . S
C318 H332 0.960 . S
C319 C316 1.511 . S
C319 H333 0.961 . S
C319 H334 0.961 . S
C319 H335 0.961 . S
C320 C321 1.370 . S
C320 C322 1.363 . S
C320 H336 0.931 . S
C321 C320 1.370 . S
C321 C325 1.408 1_455 S
C322 C320 1.363 . S
C322 C323 1.370 . S
C322 C326 1.524 . S
C323 C315 1.503 . S
C323 C322 1.370 . S
C323 C324 1.403 1_455 S
C324 C323 1.403 1_655 S
C324 C325 1.404 . S
C324 C327 1.539 . S
C325 C321 1.408 1_655 S
C325 C324 1.404 . S
C325 H337 0.930 . S
C326 C322 1.524 . S
C326 H338 0.956 . S
C326 H339 0.961 . S
C326 H340 0.961 . S
C327 C324 1.539 . S
C327 H341 0.958 . S
C327 H342 0.961 . S
C327 H343 0.960 . S
H328 C312 0.931 . S
H329 C317 0.929 . S
H330 C318 0.960 . S
H331 C318 0.962 . S
H332 C318 0.960 . S
H333 C319 0.961 . S
H334 C319 0.961 . S
H335 C319 0.961 . S
H336 C320 0.931 . S
H337 C325 0.930 . S
H338 C326 0.956 . S
H339 C326 0.961 . S
H340 C326 0.961 . S
H341 C327 0.958 . S
H342 C327 0.961 . S
H343 C327 0.960 . S
C344 C345 1.391 . S
C344 C346 1.394 . S
C344 H360 0.931 1_545 S
C345 C344 1.391 . S
C345 C349 1.376 . S
C346 C344 1.394 . S
C346 C347 1.369 . S
C346 C350 1.531 1_545 S
C347 C346 1.369 . S
C347 C348 1.410 . S
C347 C355 1.503 1_554 S
C348 C347 1.410 . S
C348 C349 1.392 . S
C348 C351 1.511 . S
C349 C345 1.376 . S
C349 C348 1.392 . S
C349 H361 0.929 . S
C350 C346 1.531 1_565 S
C350 H362 0.960 1_554 S
C350 H363 0.962 1_565 S
C350 H364 0.960 . S
C351 C348 1.511 . S
C351 H365 0.961 . S
C351 H366 0.961 1_554 S
C351 H367 0.961 . S
C352 C353 1.370 . S
C352 C354 1.363 . S
C352 H368 0.931 . S
C353 C352 1.370 . S
C353 C357 1.408 1_545 S
C354 C352 1.363 . S
C354 C355 1.370 . S
C354 C358 1.524 . S
C355 C347 1.503 1_556 S
C355 C354 1.370 . S
C355 C356 1.403 1_545 S
C356 C355 1.403 1_565 S
C356 C357 1.404 . S
C356 C359 1.539 . S
C357 C353 1.408 1_565 S
C357 C356 1.404 . S
C357 H369 0.930 . S
C358 C354 1.524 . S
C358 H370 0.956 1_556 S
C358 H371 0.961 1_556 S
C358 H372 0.961 . S
C359 C356 1.539 . S
C359 H373 0.958 . S
C359 H374 0.961 . S
C359 H375 0.960 . S
H360 C344 0.931 1_565 S
H361 C349 0.929 . S
H362 C350 0.960 1_556 S
H363 C350 0.962 1_545 S
H364 C350 0.960 . S
H365 C351 0.961 . S
H366 C351 0.961 1_556 S
H367 C351 0.961 . S
H368 C352 0.931 . S
H369 C357 0.930 . S
H370 C358 0.956 1_554 S
H371 C358 0.961 1_554 S
H372 C358 0.961 . S
H373 C359 0.958 . S
H374 C359 0.961 . S
H375 C359 0.960 . S
C376 C377 1.391 . S
C376 C378 1.394 . S
C376 H392 0.931 . S
C377 C376 1.391 . S
C377 C381 1.376 . S
C378 C376 1.394 . S
C378 C379 1.369 . S
C378 C382 1.531 . S
C379 C378 1.369 . S
C379 C380 1.410 . S
C379 C387 1.503 . S
C380 C379 1.410 . S
C380 C381 1.392 . S
C380 C383 1.511 . S
C381 C377 1.376 . S
C381 C380 1.392 . S
C381 H393 0.929 . S
C382 C378 1.531 . S
C382 H394 0.960 . S
C382 H395 0.962 . S
C382 H396 0.960 . S
C383 C380 1.511 . S
C383 H397 0.961 . S
C383 H398 0.961 . S
C383 H399 0.961 . S
C384 C385 1.370 . S
C384 C386 1.363 . S
C384 H400 0.931 . S
C385 C384 1.370 . S
C385 C389 1.408 . S
C386 C384 1.363 . S
C386 C387 1.370 . S
C386 C390 1.524 . S
C387 C379 1.503 . S
C387 C386 1.370 . S
C387 C388 1.403 . S
C388 C387 1.403 . S
C388 C389 1.404 . S
C388 C391 1.539 . S
C389 C385 1.408 . S
C389 C388 1.404 . S
C389 H401 0.930 . S
C390 C386 1.524 . S
C390 H402 0.956 . S
C390 H403 0.961 . S
C390 H404 0.961 . S
C391 C388 1.539 . S
C391 H405 0.958 . S
C391 H406 0.961 . S
C391 H407 0.960 . S
H392 C376 0.931 . S
H393 C381 0.929 . S
H394 C382 0.960 . S
H395 C382 0.962 . S
H396 C382 0.960 . S
H397 C383 0.961 . S
H398 C383 0.961 . S
H399 C383 0.961 . S
H400 C384 0.931 . S
H401 C389 0.930 . S
H402 C390 0.956 . S
H403 C390 0.961 . S
H404 C390 0.961 . S
H405 C391 0.958 . S
H406 C391 0.961 . S
H407 C391 0.960 . S
C121 C25 1.814 . S
C129 C111 1.798 . S
C153 C65 2.048 . S
C161 C20 2.052 . S
C185 C60 2.066 . S
C193 C105 2.024 . S
C217 C100 2.049 . S
C225 C4 2.021 . S
C249 C44 1.785 . S
C257 C31 1.732 . S
C281 C84 1.780 . S
C289 C71 1.727 . S
C313 C2 0.566 . S
C321 C23 0.568 . S
C345 C42 0.464 . S
C353 C63 0.559 . S
C377 C82 0.610 . S
C385 C103 0.522 . S
