# Generated by pormake.
# Topology uml, (4)-cn, num edge types: 1
# Building blocks:
#     Node 0, Type 0, BuildingBlock: NAWXER_clean_sbu_0, # of connection points: 4
#     Node 1, Type 0, BuildingBlock: NAWXER_clean_sbu_0, # of connection points: 4
#     Node 2, Type 0, BuildingBlock: NAWXER_clean_sbu_0, # of connection points: 4
#     Node 3, Type 0, BuildingBlock: NAWXER_clean_sbu_0, # of connection points: 4
#     Node 4, Type 0, BuildingBlock: NAWXER_clean_sbu_0, # of connection points: 4
#     Node 5, Type 0, BuildingBlock: NAWXER_clean_sbu_0, # of connection points: 4
#     Node 6, Type 0, BuildingBlock: NAWXER_clean_sbu_0, # of connection points: 4
#     Node 7, Type 0, BuildingBlock: NAWXER_clean_sbu_0, # of connection points: 4
#     Node 8, Type 0, BuildingBlock: NAWXER_clean_sbu_0, # of connection points: 4
#     Node 9, Type 0, BuildingBlock: NAWXER_clean_sbu_0, # of connection points: 4
#     Node 10, Type 0, BuildingBlock: NAWXER_clean_sbu_0, # of connection points: 4
#     Node 11, Type 0, BuildingBlock: NAWXER_clean_sbu_0, # of connection points: 4
#     Node 12, Type 0, BuildingBlock: NAWXER_clean_sbu_0, # of connection points: 4
#     Node 13, Type 0, BuildingBlock: NAWXER_clean_sbu_0, # of connection points: 4
#     Node 14, Type 0, BuildingBlock: NAWXER_clean_sbu_0, # of connection points: 4
#     Node 15, Type 0, BuildingBlock: NAWXER_clean_sbu_0, # of connection points: 4
#     Node 16, Type 0, BuildingBlock: NAWXER_clean_sbu_0, # of connection points: 4
#     Node 17, Type 0, BuildingBlock: NAWXER_clean_sbu_0, # of connection points: 4
#     Node 18, Type 0, BuildingBlock: NAWXER_clean_sbu_0, # of connection points: 4
#     Node 19, Type 0, BuildingBlock: NAWXER_clean_sbu_0, # of connection points: 4
#     Node 20, Type 0, BuildingBlock: NAWXER_clean_sbu_0, # of connection points: 4
#     Node 21, Type 0, BuildingBlock: NAWXER_clean_sbu_0, # of connection points: 4
#     Node 22, Type 0, BuildingBlock: NAWXER_clean_sbu_0, # of connection points: 4
#     Node 23, Type 0, BuildingBlock: NAWXER_clean_sbu_0, # of connection points: 4
#     Node 24, Type 0, BuildingBlock: NAWXER_clean_sbu_0, # of connection points: 4
#     Node 25, Type 0, BuildingBlock: NAWXER_clean_sbu_0, # of connection points: 4
#     Node 26, Type 0, BuildingBlock: NAWXER_clean_sbu_0, # of connection points: 4
#     Node 27, Type 0, BuildingBlock: NAWXER_clean_sbu_0, # of connection points: 4
#     Node 28, Type 0, BuildingBlock: NAWXER_clean_sbu_0, # of connection points: 4
#     Node 29, Type 0, BuildingBlock: NAWXER_clean_sbu_0, # of connection points: 4
#     Node 30, Type 0, BuildingBlock: NAWXER_clean_sbu_0, # of connection points: 4
#     Node 31, Type 0, BuildingBlock: NAWXER_clean_sbu_0, # of connection points: 4
#     Node 32, Type 0, BuildingBlock: NAWXER_clean_sbu_0, # of connection points: 4
#     Node 33, Type 0, BuildingBlock: NAWXER_clean_sbu_0, # of connection points: 4
#     Node 34, Type 0, BuildingBlock: NAWXER_clean_sbu_0, # of connection points: 4
#     Node 35, Type 0, BuildingBlock: NAWXER_clean_sbu_0, # of connection points: 4
#     Edge 36, Type (0, 0), None
#     Edge 37, Type (0, 0), None
#     Edge 38, Type (0, 0), None
#     Edge 39, Type (0, 0), None
#     Edge 40, Type (0, 0), None
#     Edge 41, Type (0, 0), None
#     Edge 42, Type (0, 0), None
#     Edge 43, Type (0, 0), None
#     Edge 44, Type (0, 0), None
#     Edge 45, Type (0, 0), None
#     Edge 46, Type (0, 0), None
#     Edge 47, Type (0, 0), None
#     Edge 48, Type (0, 0), None
#     Edge 49, Type (0, 0), None
#     Edge 50, Type (0, 0), None
#     Edge 51, Type (0, 0), None
#     Edge 52, Type (0, 0), None
#     Edge 53, Type (0, 0), None
#     Edge 54, Type (0, 0), None
#     Edge 55, Type (0, 0), None
#     Edge 56, Type (0, 0), None
#     Edge 57, Type (0, 0), None
#     Edge 58, Type (0, 0), None
#     Edge 59, Type (0, 0), None
#     Edge 60, Type (0, 0), None
#     Edge 61, Type (0, 0), None
#     Edge 62, Type (0, 0), None
#     Edge 63, Type (0, 0), None
#     Edge 64, Type (0, 0), None
#     Edge 65, Type (0, 0), None
#     Edge 66, Type (0, 0), None
#     Edge 67, Type (0, 0), None
#     Edge 68, Type (0, 0), None
#     Edge 69, Type (0, 0), None
#     Edge 70, Type (0, 0), None
#     Edge 71, Type (0, 0), None
#     Edge 72, Type (0, 0), None
#     Edge 73, Type (0, 0), None
#     Edge 74, Type (0, 0), None
#     Edge 75, Type (0, 0), None
#     Edge 76, Type (0, 0), None
#     Edge 77, Type (0, 0), None
#     Edge 78, Type (0, 0), None
#     Edge 79, Type (0, 0), None
#     Edge 80, Type (0, 0), None
#     Edge 81, Type (0, 0), None
#     Edge 82, Type (0, 0), None
#     Edge 83, Type (0, 0), None
#     Edge 84, Type (0, 0), None
#     Edge 85, Type (0, 0), None
#     Edge 86, Type (0, 0), None
#     Edge 87, Type (0, 0), None
#     Edge 88, Type (0, 0), None
#     Edge 89, Type (0, 0), None
#     Edge 90, Type (0, 0), None
#     Edge 91, Type (0, 0), None
#     Edge 92, Type (0, 0), None
#     Edge 93, Type (0, 0), None
#     Edge 94, Type (0, 0), None
#     Edge 95, Type (0, 0), None
#     Edge 96, Type (0, 0), None
#     Edge 97, Type (0, 0), None
#     Edge 98, Type (0, 0), None
#     Edge 99, Type (0, 0), None
#     Edge 100, Type (0, 0), None
#     Edge 101, Type (0, 0), None
#     Edge 102, Type (0, 0), None
#     Edge 103, Type (0, 0), None
#     Edge 104, Type (0, 0), None
#     Edge 105, Type (0, 0), None
#     Edge 106, Type (0, 0), None
#     Edge 107, Type (0, 0), None
# Relax obj value: 0.036
# Max RMSD: 0.160
# Mean RMSD: 0.157
data_MOF--net-uml--node1-NAWXER_clean_sbu_0--edge1-none
_symmetry_space_group_name_H-M    P1
_symmetry_Int_Tables_number       1
_symmetry_cell_setting            triclinic
loop_
_symmetry_equiv_pos_as_xyz
'x, y, z'
_cell_length_a     43.5829
_cell_length_b     43.578995
_cell_length_c     12.591375
_cell_angle_alpha  90.00481
_cell_angle_beta   89.999596
_cell_angle_gamma 120.00617
loop_
_atom_site_label
_atom_site_type_symbol
_atom_site_fract_x
_atom_site_fract_y
_atom_site_fract_z
_atom_type_partial_charge
C0 C 0.33909 0.15397 0.18514 0.0
C1 C 0.40899 0.0942 0.12677 0.0
O2 O 0.32053 0.12028 0.18351 0.0
Zn3 Zn 0.32969 0.07721 0.17973 0.0
O4 O 0.37281 0.16881 0.18869 0.0
Zn5 Zn 0.37888 0.12694 0.18377 0.0
O6 O 0.35726 0.10901 0.03163 0.0
O7 O 0.30727 0.05746 0.0468 0.0
O8 O 0.42389 0.12727 0.14746 0.0
O9 O 0.37594 0.07416 0.14641 0.0
O10 O 0.30952 0.05278 0.31241 0.0
O11 O 0.36034 0.10224 0.33772 0.0
C12 C 0.33122 0.08196 0.98991 0.0
C13 C 0.33317 0.07452 0.37526 0.0
C14 C 0.91257 0.24804 0.98998 0.0
C15 C 0.92001 0.25745 0.37534 0.0
O16 O 0.88553 0.24704 0.03169 0.0
Zn17 Zn 0.86761 0.25075 0.18382 0.0
O18 O 0.93706 0.24857 0.04688 0.0
Zn19 Zn 0.91732 0.25126 0.1798 0.0
O20 O 0.87423 0.19904 0.18357 0.0
O21 O 0.82572 0.20282 0.18871 0.0
O22 O 0.94174 0.25552 0.3125 0.0
O23 O 0.89231 0.25691 0.33778 0.0
O24 O 0.86732 0.29545 0.14747 0.0
O25 O 0.9204 0.30058 0.14648 0.0
C26 C 0.84054 0.18392 0.18517 0.0
C27 C 0.90039 0.3136 0.12679 0.0
C28 C 0.74648 0.6633 0.98994 0.0
C29 C 0.73709 0.66135 0.3753 0.0
O30 O 0.74749 0.63727 0.03165 0.0
Zn31 Zn 0.74378 0.61564 0.18377 0.0
O32 O 0.74594 0.68726 0.04685 0.0
Zn33 Zn 0.74326 0.66483 0.17976 0.0
O34 O 0.79549 0.67399 0.18352 0.0
O35 O 0.79172 0.62171 0.18866 0.0
O36 O 0.73901 0.685 0.31247 0.0
O37 O 0.73763 0.63418 0.33773 0.0
O38 O 0.69909 0.57063 0.14743 0.0
O39 O 0.69395 0.61858 0.14643 0.0
C40 C 0.81061 0.65543 0.18512 0.0
C41 C 0.68093 0.58554 0.12676 0.0
C42 C 0.15286 0.34005 0.34867 0.0
C43 C 0.09308 0.40992 0.40656 0.0
O44 O 0.11917 0.32147 0.35021 0.0
Zn45 Zn 0.0761 0.33062 0.35371 0.0
O46 O 0.16768 0.37377 0.3449 0.0
Zn47 Zn 0.12581 0.37982 0.34963 0.0
O48 O 0.10789 0.35823 0.50179 0.0
O49 O 0.05634 0.30823 0.48667 0.0
O50 O 0.12615 0.42483 0.38588 0.0
O51 O 0.07305 0.37687 0.3869 0.0
O52 O 0.05167 0.31042 0.22102 0.0
O53 O 0.1011 0.36126 0.19569 0.0
C54 C 0.08085 0.3322 0.54354 0.0
C55 C 0.07338 0.33409 0.15816 0.0
C56 C 0.66233 0.74742 0.54348 0.0
C57 C 0.66044 0.73807 0.1581 0.0
O58 O 0.6363 0.74842 0.50173 0.0
Zn59 Zn 0.6147 0.74474 0.34957 0.0
O60 O 0.6863 0.7469 0.48662 0.0
Zn61 Zn 0.6639 0.74425 0.35366 0.0
O62 O 0.67303 0.79647 0.35018 0.0
O63 O 0.62073 0.79266 0.34486 0.0
O64 O 0.6841 0.74003 0.22096 0.0
O65 O 0.63326 0.7386 0.19563 0.0
O66 O 0.56971 0.70005 0.38581 0.0
O67 O 0.61767 0.69492 0.38685 0.0
C68 C 0.65445 0.81157 0.34864 0.0
C69 C 0.58462 0.6819 0.40649 0.0
C70 C 0.18295 0.84167 0.34865 0.0
C71 C 0.31261 0.90152 0.40652 0.0
O72 O 0.19806 0.87536 0.35022 0.0
Zn73 Zn 0.25028 0.91846 0.35373 0.0
O74 O 0.20185 0.82686 0.34487 0.0
Zn75 Zn 0.24977 0.86875 0.34961 0.0
O76 O 0.2461 0.88666 0.50179 0.0
O77 O 0.24763 0.9382 0.48671 0.0
O78 O 0.29445 0.86844 0.38582 0.0
O79 O 0.2996 0.92154 0.38691 0.0
O80 O 0.25449 0.94288 0.22105 0.0
O81 O 0.25591 0.89346 0.19569 0.0
C82 C 0.2471 0.9137 0.54356 0.0
C83 C 0.25645 0.92117 0.15818 0.0
C84 C 0.65441 0.84157 0.84888 0.0
C85 C 0.5845 0.90134 0.90725 0.0
O86 O 0.62069 0.82673 0.84534 0.0
Zn87 Zn 0.61461 0.86859 0.85026 0.0
O88 O 0.67297 0.87526 0.85051 0.0
Zn89 Zn 0.6638 0.91833 0.8543 0.0
O90 O 0.68622 0.93808 0.98722 0.0
O91 O 0.63624 0.88653 1.00239 0.0
O92 O 0.61755 0.92137 0.88761 0.0
O93 O 0.5696 0.86826 0.88658 0.0
O94 O 0.63315 0.8933 0.69631 0.0
O95 O 0.68397 0.94276 0.72162 0.0
C96 C 0.66227 0.91358 0.04412 0.0
C97 C 0.66032 0.92103 0.65877 0.0
C98 C 0.08094 0.74748 0.04406 0.0
C99 C 0.0735 0.73808 0.6587 0.0
O100 O 0.05643 0.74691 0.98715 0.0
Zn101 Zn 0.0762 0.74426 0.85424 0.0
O102 O 0.10799 0.74851 1.00236 0.0
Zn103 Zn 0.12593 0.74482 0.85022 0.0
O104 O 0.16778 0.79276 0.84533 0.0
O105 O 0.11926 0.79651 0.8505 0.0
O106 O 0.10123 0.73865 0.69625 0.0
O107 O 0.05176 0.73998 0.72156 0.0
O108 O 0.07318 0.69496 0.88757 0.0
O109 O 0.1263 0.70016 0.88653 0.0
C110 C 0.15295 0.81164 0.84889 0.0
C111 C 0.09323 0.68197 0.90722 0.0
C112 C 0.25641 0.33417 0.65876 0.0
C113 C 0.24702 0.33222 0.04411 0.0
O114 O 0.25449 0.31052 0.7216 0.0
Zn115 Zn 0.25023 0.33069 0.85429 0.0
O116 O 0.25586 0.36134 0.69632 0.0
Zn117 Zn 0.24971 0.37988 0.85028 0.0
O118 O 0.29439 0.4249 0.88661 0.0
O119 O 0.29954 0.37695 0.88762 0.0
O120 O 0.24601 0.35825 1.00241 0.0
O121 O 0.24756 0.30826 0.98719 0.0
O122 O 0.198 0.32153 0.85052 0.0
O123 O 0.20178 0.37382 0.84538 0.0
C124 C 0.31255 0.40999 0.90729 0.0
C125 C 0.18288 0.3401 0.84891 0.0
C126 C 0.91269 0.66334 0.49044 0.0
C127 C 0.92017 0.66148 0.87583 0.0
O128 O 0.93719 0.68733 0.54729 0.0
Zn129 Zn 0.91746 0.66494 0.68027 0.0
O130 O 0.88567 0.6373 0.53221 0.0
Zn131 Zn 0.86776 0.61571 0.68436 0.0
O132 O 0.82587 0.62173 0.68909 0.0
O133 O 0.87436 0.67404 0.68378 0.0
O134 O 0.89246 0.63429 0.83828 0.0
O135 O 0.94187 0.68515 0.81297 0.0
O136 O 0.92058 0.61871 0.64709 0.0
O137 O 0.8675 0.57073 0.64815 0.0
C138 C 0.84067 0.65545 0.68533 0.0
C139 C 0.90057 0.58566 0.6275 0.0
C140 C 0.33305 0.25747 0.87592 0.0
C141 C 0.33117 0.24812 0.49053 0.0
O142 O 0.30939 0.25552 0.81306 0.0
Zn143 Zn 0.32959 0.2513 0.68036 0.0
O144 O 0.36023 0.25695 0.83838 0.0
Zn145 Zn 0.3788 0.25081 0.68445 0.0
O146 O 0.42378 0.2955 0.64822 0.0
O147 O 0.37583 0.30063 0.64717 0.0
O148 O 0.3572 0.24712 0.53229 0.0
O149 O 0.3072 0.24865 0.54739 0.0
O150 O 0.32047 0.19908 0.68384 0.0
O151 O 0.37277 0.20289 0.68916 0.0
C152 C 0.40887 0.31365 0.62753 0.0
C153 C 0.33905 0.18398 0.68538 0.0
C154 C 0.81053 0.15387 0.68538 0.0
C155 C 0.68086 0.09403 0.62755 0.0
O156 O 0.79164 0.16868 0.68917 0.0
Zn157 Zn 0.74371 0.1268 0.68444 0.0
O158 O 0.79542 0.12018 0.68382 0.0
Zn159 Zn 0.7432 0.07709 0.68032 0.0
O160 O 0.74584 0.05734 0.54733 0.0
O161 O 0.74738 0.10889 0.53227 0.0
O162 O 0.69388 0.07401 0.64716 0.0
O163 O 0.69903 0.12711 0.64821 0.0
O164 O 0.73756 0.10209 0.83835 0.0
O165 O 0.73898 0.05267 0.813 0.0
C166 C 0.74637 0.08185 0.49049 0.0
C167 C 0.73703 0.07438 0.87587 0.0
C168 C -0.00011 0.40776 0.70895 0.0
C169 C -0.0021 0.41517 0.3236 0.0
O170 O 0.02705 0.43547 0.67137 0.0
Zn171 Zn 0.04557 0.46016 0.51742 0.0
O172 O 0.97621 0.38604 0.64614 0.0
Zn173 Zn 0.99636 0.41045 0.51343 0.0
O174 O 0.04259 0.40737 0.48013 0.0
O175 O 0.09055 0.46048 0.48106 0.0
O176 O 0.97393 0.39068 0.38051 0.0
O177 O 0.02393 0.44222 0.36531 0.0
O178 O 0.03955 0.50205 0.52235 0.0
O179 O 0.98724 0.45355 0.51718 0.0
C180 C 0.07563 0.4274 0.46042 0.0
C181 C 0.00583 0.48724 0.51881 0.0
C182 C 0.50725 0.51731 0.5188 0.0
C183 C 0.56715 0.64696 0.46033 0.0
O184 O 0.54093 0.5324 0.51719 0.0
Zn185 Zn 0.58405 0.58461 0.51342 0.0
O186 O 0.49245 0.53623 0.52232 0.0
Zn187 Zn 0.53436 0.58413 0.5174 0.0
O188 O 0.55228 0.5804 0.36529 0.0
O189 O 0.6038 0.58191 0.38052 0.0
O190 O 0.53407 0.62882 0.48103 0.0
O191 O 0.58716 0.63394 0.48005 0.0
O192 O 0.60846 0.58886 0.64613 0.0
O193 O 0.55904 0.59029 0.67136 0.0
C194 C 0.57932 0.58139 0.3236 0.0
C195 C 0.58674 0.59082 0.70895 0.0
C196 C 0.41313 0.99672 0.32359 0.0
C197 C 0.40371 0.99473 0.70893 0.0
O198 O 0.41411 0.97067 0.36528 0.0
Zn199 Zn 0.41039 0.94902 0.51738 0.0
O200 O 0.41262 0.02069 0.38051 0.0
Zn201 Zn 0.40992 -0.00176 0.51341 0.0
O202 O 0.46212 0.00733 0.51719 0.0
O203 O 0.45828 0.95502 0.52231 0.0
O204 O 0.40567 0.0184 0.64613 0.0
O205 O 0.40423 0.96755 0.67134 0.0
O206 O 0.36569 0.90404 0.48101 0.0
O207 O 0.36059 0.95202 0.48004 0.0
C208 C 0.47721 0.98874 0.51879 0.0
C209 C 0.34756 0.91898 0.46033 0.0
C210 C 0.81967 0.67352 0.68143 0.0
C211 C 0.75984 0.74335 0.73963 0.0
O212 O 0.78598 0.65494 0.68294 0.0
Zn213 Zn 0.7429 0.66407 0.68647 0.0
O214 O 0.83448 0.70724 0.67773 0.0
Zn215 Zn 0.7926 0.71328 0.68248 0.0
O216 O 0.77466 0.69163 0.83459 0.0
O217 O 0.72312 0.64163 0.81936 0.0
O218 O 0.79291 0.75827 0.71892 0.0
O219 O 0.73981 0.71031 0.71988 0.0
O220 O 0.71849 0.6439 0.55375 0.0
O221 O 0.76792 0.69475 0.52848 0.0
C222 C 0.74762 0.66559 0.87628 0.0
C223 C 0.74021 0.66757 0.49092 0.0
C224 C 0.32694 0.0714 0.49088 0.0
C225 C 0.32894 0.08082 0.87624 0.0
O226 O 0.29977 0.07194 0.52843 0.0
Zn227 Zn 0.28124 0.07809 0.68244 0.0
O228 O 0.3506 0.07335 0.55372 0.0
Zn229 Zn 0.33044 0.07759 0.68644 0.0
O230 O 0.2842 0.02827 0.71984 0.0
O231 O 0.23625 0.03342 0.71888 0.0
O232 O 0.35289 0.08027 0.81932 0.0
O233 O 0.30289 0.08181 0.83455 0.0
O234 O 0.28727 0.12601 0.67771 0.0
O235 O 0.33957 0.12981 0.68293 0.0
C236 C 0.25117 0.01527 0.7396 0.0
C237 C 0.32099 0.14492 0.68143 0.0
C238 C 0.97925 0.23469 0.73962 0.0
C239 C 0.8496 0.17486 0.68145 0.0
O240 O 0.96625 0.25472 0.71989 0.0
Zn241 Zn 0.91694 0.25164 0.68651 0.0
O242 O 0.9611 0.20162 0.7189 0.0
Zn243 Zn 0.91642 0.20193 0.68248 0.0
O244 O 0.92258 0.22662 0.5285 0.0
O245 O 0.92118 0.27605 0.5538 0.0
O246 O 0.8685 0.16005 0.67772 0.0
O247 O 0.86471 0.20855 0.68297 0.0
O248 O 0.91427 0.27141 0.81942 0.0
O249 O 0.91271 0.21986 0.8346 0.0
C250 C 0.92312 0.25433 0.49095 0.0
C251 C 0.91371 0.2469 0.87632 0.0
C252 C 0.32684 0.25438 0.99153 0.0
C253 C 0.3289 0.24696 0.37687 0.0
O254 O 0.3505 0.27612 0.05434 0.0
Zn255 Zn 0.33038 0.2517 0.18705 0.0
O256 O 0.29968 0.22666 0.02912 0.0
Zn257 Zn 0.2812 0.20196 0.1831 0.0
O258 O 0.23621 0.20163 0.21965 0.0
O259 O 0.28415 0.25475 0.22056 0.0
O260 O 0.30286 0.2199 0.33517 0.0
O261 O 0.35284 0.27147 0.31995 0.0
O262 O 0.33955 0.20863 0.18323 0.0
O263 O 0.28727 0.1601 0.17813 0.0
C264 C 0.25112 0.23471 0.24037 0.0
C265 C 0.32099 0.17494 0.18162 0.0
C266 C 0.74753 0.08074 0.37683 0.0
C267 C 0.74011 0.07125 0.99149 0.0
O268 O 0.72303 0.08018 0.3199 0.0
Zn269 Zn 0.74279 0.07748 0.18702 0.0
O270 O 0.77458 0.08176 0.33514 0.0
Zn271 Zn 0.79251 0.07802 0.18308 0.0
O272 O 0.83438 0.12595 0.17814 0.0
O273 O 0.78587 0.12972 0.18322 0.0
O274 O 0.76783 0.07181 0.02909 0.0
O275 O 0.71838 0.07318 0.05428 0.0
O276 O 0.73973 0.02819 0.22053 0.0
O277 O 0.79284 0.03335 0.21964 0.0
C278 C 0.81956 0.14485 0.18163 0.0
C279 C 0.75977 0.01519 0.24034 0.0
C280 C 0.84969 0.67353 0.18158 0.0
C281 C 0.97934 0.7434 0.24032 0.0
O282 O 0.86858 0.70725 0.17811 0.0
Zn283 Zn 0.91651 0.71333 0.18305 0.0
O284 O 0.86481 0.65497 0.18317 0.0
Zn285 Zn 0.91704 0.66413 0.18696 0.0
O286 O 0.91435 0.64167 0.31983 0.0
O287 O 0.91278 0.69165 0.33511 0.0
O288 O 0.96634 0.71037 0.22049 0.0
O289 O 0.96118 0.75832 0.21965 0.0
O290 O 0.92272 0.69485 0.02905 0.0
O291 O 0.92134 0.64402 0.05423 0.0
C292 C 0.91379 0.66561 0.37678 0.0
C293 C 0.92328 0.66769 0.99145 0.0
C294 C 0.57923 0.99654 0.82413 0.0
C295 C 0.58666 0.99459 0.20951 0.0
O296 O 0.60373 0.0205 0.88102 0.0
Zn297 Zn 0.58397 -0.00191 1.01396 0.0
O298 O 0.55219 0.9705 0.86586 0.0
Zn299 Zn 0.53425 0.94889 0.01798 0.0
O300 O 0.49239 0.95499 0.02269 0.0
O301 O 0.54091 0.00727 0.01747 0.0
O302 O 0.55894 0.96743 0.17194 0.0
O303 O 0.60838 0.01826 0.14668 0.0
O304 O 0.58704 0.95185 0.98073 0.0
O305 O 0.53394 0.90389 0.98166 0.0
C306 C 0.50723 0.98871 0.01898 0.0
C307 C 0.56702 0.9188 0.96106 0.0
C308 C 0.07579 0.64703 0.96106 0.0
C309 C 0.00597 0.51732 0.01908 0.0
O310 O 0.09073 0.62889 0.9817 0.0
Zn311 Zn 0.04575 0.58417 0.01806 0.0
O312 O 0.04275 0.63399 0.98077 0.0
Zn313 Zn 0.99653 0.58466 1.01406 0.0
O314 O 0.97637 0.58889 0.14677 0.0
O315 O 0.02722 0.59033 0.17204 0.0
O316 O 0.9874 0.53244 0.01758 0.0
O317 O 0.03969 0.53622 0.02277 0.0
O318 O 0.02412 0.58047 0.86595 0.0
O319 O 0.97411 0.58198 0.88114 0.0
C320 C 4e-05 0.59086 0.20961 0.0
C321 C -0.00193 0.58145 0.82423 0.0
C322 C 0.47721 0.48729 0.01898 0.0
C323 C 0.3475 0.42748 0.96109 0.0
O324 O 0.45832 0.50212 0.02272 0.0
Zn325 Zn 0.41037 0.46026 0.018 0.0
O326 O 0.46207 0.4536 0.01746 0.0
Zn327 Zn 0.40983 0.41053 1.01395 0.0
O328 O 0.41247 0.39077 0.88099 0.0
O329 O 0.41403 0.44232 0.86587 0.0
O330 O 0.36052 0.40746 0.98075 0.0
O331 O 0.36567 0.46056 0.9817 0.0
O332 O 0.4042 0.43556 0.17194 0.0
O333 O 0.40559 0.38612 0.14666 0.0
C334 C 0.41301 0.41528 0.82412 0.0
C335 C 0.40365 0.40784 0.2095 0.0
C336 C 0.67252 0.8206 0.85239 0.0
C337 C 0.74238 0.76081 0.79364 0.0
O338 O 0.65396 0.78691 0.85079 0.0
Zn339 Zn 0.66312 0.74383 0.84696 0.0
O340 O 0.70624 0.83543 0.85587 0.0
Zn341 Zn 0.71231 0.79357 0.85091 0.0
O342 O 0.69064 0.77563 0.69884 0.0
O343 O 0.64066 0.72407 0.71406 0.0
O344 O 0.7573 0.79388 0.81437 0.0
O345 O 0.70935 0.74077 0.81344 0.0
O346 O 0.643 0.71942 0.97968 0.0
O347 O 0.69382 0.76888 1.00489 0.0
C348 C 0.6646 0.74858 0.65715 0.0
C349 C 0.66666 0.74116 0.04248 0.0
C350 C 0.25336 0.92431 0.04256 0.0
C351 C 0.24594 0.91481 0.65723 0.0
O352 O 0.22564 0.92374 1.00497 0.0
Zn353 Zn 0.20096 0.91754 0.85097 0.0
O354 O 0.2751 0.92238 0.97976 0.0
Zn355 Zn 0.25068 0.91808 0.84704 0.0
O356 O 0.25375 0.96737 0.81351 0.0
O357 O 0.20064 0.96221 0.8144 0.0
O358 O 0.27044 0.91537 0.71416 0.0
O359 O 0.21889 0.9138 0.6989 0.0
O360 O 0.15909 0.86961 0.85592 0.0
O361 O 0.2076 0.86585 0.85085 0.0
C362 C 0.23371 0.98037 0.79369 0.0
C363 C 0.17392 0.85072 0.85243 0.0
C364 C 0.07972 0.32993 0.6572 0.0
C365 C 0.07025 0.32787 0.04254 0.0
O366 O 0.08073 0.30389 0.69888 0.0
Zn367 Zn 0.07699 0.28221 0.85094 0.0
O368 O 0.07917 0.35388 0.71413 0.0
Zn369 Zn 0.07646 0.33141 0.84702 0.0
O370 O 0.12869 0.34056 0.85084 0.0
O371 O 0.12491 0.28827 0.8559 0.0
O372 O 0.07217 0.35154 0.97975 0.0
O373 O 0.0708 0.30071 1.00493 0.0
O374 O 0.03231 0.23723 0.81438 0.0
O375 O 0.02716 0.28518 0.81348 0.0
C376 C 0.14381 0.322 0.85243 0.0
C377 C 0.01416 0.25214 0.79366 0.0
C378 C 0.41426 -0.001 0.20992 0.0
C379 C 0.40683 0.00094 0.82455 0.0
O380 O 0.4413 0.02503 0.16819 0.0
Zn381 Zn 0.45924 0.04664 1.01608 0.0
O382 O 0.38975 0.97503 0.15303 0.0
Zn383 Zn 0.40952 0.99744 0.02009 0.0
O384 O 0.45257 0.98826 1.01659 0.0
O385 O 0.5011 0.04054 1.01137 0.0
O386 O 0.38511 0.97727 0.88737 0.0
O387 O 0.43455 0.02811 0.86212 0.0
O388 O 0.45955 0.09164 0.05239 0.0
O389 O 0.40645 0.04368 0.05331 0.0
C390 C 0.48626 0.00682 1.01508 0.0
C391 C 0.42647 0.07673 0.07299 0.0
C392 C 0.98786 0.47825 1.01515 0.0
C393 C 0.91788 0.34855 0.07298 0.0
O394 O 0.00641 0.46311 1.01666 0.0
Zn395 Zn -0.00281 0.41085 0.02011 0.0
O396 O 0.95414 0.45937 1.01141 0.0
Zn397 Zn 0.94801 0.41141 1.01609 0.0
O398 O 0.96961 0.41506 0.1682 0.0
O399 O 0.01958 0.41345 0.15307 0.0
O400 O 0.90299 0.36673 0.05237 0.0
O401 O 0.95092 0.36155 0.0533 0.0
O402 O 0.01734 0.40659 0.88738 0.0
O403 O 0.96653 0.40523 0.86213 0.0
C404 C 0.99562 0.41401 0.20994 0.0
C405 C 0.99368 0.40466 0.82456 0.0
C406 C 0.58047 0.58026 0.20993 0.0
C407 C 0.58984 0.5877 0.82456 0.0
O408 O 0.57945 0.55322 0.16818 0.0
Zn409 Zn 0.58312 0.53528 1.01605 0.0
O410 O 0.58102 0.60477 0.15306 0.0
Zn411 Zn 0.58365 0.58501 0.0201 0.0
O412 O 0.53141 0.54195 1.0166 0.0
O413 O 0.53516 0.49342 1.01134 0.0
O414 O 0.5879 0.60942 0.8874 0.0
O415 O 0.58928 0.55998 0.86211 0.0
O416 O 0.62781 0.53497 0.05234 0.0
O417 O 0.63296 0.58808 0.05332 0.0
C418 C 0.51628 0.50826 1.01507 0.0
C419 C 0.64598 0.56805 0.07298 0.0
C420 C 0.99579 0.5803 0.71057 0.0
C421 C 0.99382 0.58776 0.32522 0.0
O422 O 0.01976 0.60479 0.65367 0.0
Zn423 Zn -0.00269 0.58507 0.52075 0.0
O424 O 0.96972 0.55328 0.66884 0.0
Zn425 Zn 0.94808 0.53537 0.51671 0.0
O426 O 0.95406 0.49346 0.51175 0.0
O427 O 0.00637 0.54194 0.51692 0.0
O428 O 0.96664 0.56006 0.36277 0.0
O429 O 0.01749 0.60948 0.38806 0.0
O430 O 0.95109 0.58819 0.55412 0.0
O431 O 0.90311 0.53511 0.55302 0.0
C432 C 0.98777 0.50825 0.51528 0.0
C433 C 0.91805 0.56818 0.57374 0.0
C434 C 0.41417 0.41415 0.71046 0.0
C435 C 0.40674 0.40473 0.32511 0.0
O436 O 0.38968 0.41363 0.65354 0.0
Zn437 Zn 0.40943 0.41094 0.52064 0.0
O438 O 0.4412 0.41515 0.66876 0.0
Zn439 Zn 0.45913 0.41142 0.51665 0.0
O440 O 0.50103 0.45932 0.51172 0.0
O441 O 0.45255 0.46315 0.51687 0.0
O442 O 0.43444 0.40526 0.36269 0.0
O443 O 0.38502 0.40668 0.38793 0.0
O444 O 0.40633 0.36161 0.55398 0.0
O445 O 0.45942 0.36674 0.55301 0.0
C446 C 0.48623 0.47824 0.51525 0.0
C447 C 0.42634 0.34859 0.57368 0.0
C448 C 0.64592 0.07657 0.57372 0.0
C449 C 0.51627 0.00679 0.51526 0.0
O450 O 0.62778 0.0915 0.55304 0.0
Zn451 Zn 0.58309 0.04651 0.51667 0.0
O452 O 0.63289 0.04352 0.55401 0.0
Zn453 Zn 0.58357 0.9973 0.52065 0.0
O454 O 0.58781 0.97713 0.38793 0.0
O455 O 0.58925 0.02799 0.36271 0.0
O456 O 0.53136 0.9882 0.51687 0.0
O457 O 0.5352 0.04051 0.51174 0.0
O458 O 0.57937 0.02487 0.66878 0.0
O459 O 0.58087 0.97485 0.65355 0.0
C460 C 0.58977 0.00081 0.32513 0.0
C461 C 0.58035 -0.00118 0.71047 0.0
C462 C 0.2533 0.32794 0.54314 0.0
C463 C 0.24588 0.32993 0.15777 0.0
O464 O 0.27502 0.35161 0.48031 0.0
Zn465 Zn 0.25062 0.33143 0.34758 0.0
O466 O 0.22559 0.30077 0.50558 0.0
Zn467 Zn 0.20091 0.28223 0.35157 0.0
O468 O 0.2006 0.23724 0.31513 0.0
O469 O 0.2537 0.2852 0.31416 0.0
O470 O 0.21884 0.30388 0.19947 0.0
O471 O 0.27039 0.35388 0.21469 0.0
O472 O 0.20753 0.34056 0.35111 0.0
O473 O 0.15903 0.28825 0.35631 0.0
C474 C 0.23367 0.25216 0.2944 0.0
C475 C 0.17385 0.32197 0.35261 0.0
C476 C 0.66655 0.92414 0.54315 0.0
C477 C 0.66455 0.91473 0.15778 0.0
O478 O 0.64288 0.92219 0.48031 0.0
Zn479 Zn 0.66305 0.91796 0.34759 0.0
O480 O 0.69372 0.92361 0.50559 0.0
Zn481 Zn 0.71225 0.91746 0.35159 0.0
O482 O 0.75723 0.96214 0.31515 0.0
O483 O 0.70928 0.96728 0.31417 0.0
O484 O 0.6906 0.91373 0.19948 0.0
O485 O 0.6406 0.91527 0.2147 0.0
O486 O 0.65393 0.86574 0.3511 0.0
O487 O 0.70623 0.86955 0.35631 0.0
C488 C 0.74231 0.98029 0.29441 0.0
C489 C 0.67251 0.85064 0.35259 0.0
C490 C 0.01424 0.76085 0.29438 0.0
C491 C 0.14389 0.82067 0.35258 0.0
O492 O 0.0324 0.79392 0.31513 0.0
Zn493 Zn 0.07707 0.7936 0.35155 0.0
O494 O 0.02724 0.74081 0.31412 0.0
Zn495 Zn 0.07655 0.74389 0.34753 0.0
O496 O 0.07232 0.71948 0.48024 0.0
O497 O 0.07093 0.76891 0.50555 0.0
O498 O 0.12878 0.78699 0.35106 0.0
O499 O 0.12498 0.83549 0.3563 0.0
O500 O 0.08078 0.77566 0.19943 0.0
O501 O 0.07923 0.72411 0.21463 0.0
C502 C 0.07039 0.7412 0.54309 0.0
C503 C 0.07978 0.74862 0.15772 0.0
loop_
_geom_bond_atom_site_label_1
_geom_bond_atom_site_label_2
_geom_bond_distance
_geom_bond_site_symmetry_2
_ccdc_geom_bond_type
C0 O2 1.247 . S
C0 O4 1.258 . S
C1 O8 1.247 . S
C1 O9 1.258 . S
O2 C0 1.247 . S
O2 Zn3 2.028 . S
Zn3 O2 2.028 . S
Zn3 O7 2.035 1_554 S
Zn3 O9 2.035 . S
Zn3 O10 2.028 . S
O4 C0 1.258 . S
O4 Zn5 2.035 . S
Zn5 O4 2.035 . S
Zn5 O6 2.028 1_554 S
Zn5 O8 2.028 . S
Zn5 O11 2.035 . S
O6 Zn5 2.028 1_556 S
O6 C12 1.247 . S
O7 Zn3 2.035 1_556 S
O7 C12 1.258 . S
O8 C1 1.247 . S
O8 Zn5 2.028 . S
O9 C1 1.258 . S
O9 Zn3 2.035 . S
O10 Zn3 2.028 . S
O10 C13 1.247 . S
O11 Zn5 2.035 . S
O11 C13 1.258 . S
C12 O6 1.247 . S
C12 O7 1.258 . S
C13 O10 1.247 . S
C13 O11 1.258 . S
C14 O16 1.247 . S
C14 O18 1.258 . S
C15 O22 1.247 . S
C15 O23 1.258 . S
O16 C14 1.247 . S
O16 Zn17 2.028 1_556 S
Zn17 O16 2.028 1_554 S
Zn17 O21 2.035 . S
Zn17 O23 2.035 . S
Zn17 O24 2.028 . S
O18 C14 1.258 . S
O18 Zn19 2.035 1_556 S
Zn19 O18 2.035 1_554 S
Zn19 O20 2.028 . S
Zn19 O22 2.028 . S
Zn19 O25 2.035 . S
O20 Zn19 2.028 . S
O20 C26 1.247 . S
O21 Zn17 2.035 . S
O21 C26 1.258 . S
O22 C15 1.247 . S
O22 Zn19 2.028 . S
O23 C15 1.258 . S
O23 Zn17 2.035 . S
O24 Zn17 2.028 . S
O24 C27 1.247 . S
O25 Zn19 2.035 . S
O25 C27 1.258 . S
C26 O20 1.247 . S
C26 O21 1.258 . S
C27 O24 1.247 . S
C27 O25 1.258 . S
C28 O30 1.247 . S
C28 O32 1.258 . S
C29 O36 1.247 . S
C29 O37 1.258 . S
O30 C28 1.247 . S
O30 Zn31 2.028 1_556 S
Zn31 O30 2.028 1_554 S
Zn31 O35 2.035 . S
Zn31 O37 2.035 . S
Zn31 O38 2.028 . S
O32 C28 1.258 . S
O32 Zn33 2.035 1_556 S
Zn33 O32 2.035 1_554 S
Zn33 O34 2.028 . S
Zn33 O36 2.028 . S
Zn33 O39 2.035 . S
O34 Zn33 2.028 . S
O34 C40 1.247 . S
O35 Zn31 2.035 . S
O35 C40 1.258 . S
O36 C29 1.247 . S
O36 Zn33 2.028 . S
O37 C29 1.258 . S
O37 Zn31 2.035 . S
O38 Zn31 2.028 . S
O38 C41 1.247 . S
O39 Zn33 2.035 . S
O39 C41 1.258 . S
C40 O34 1.247 . S
C40 O35 1.258 . S
C41 O38 1.247 . S
C41 O39 1.258 . S
C42 O44 1.247 . S
C42 O46 1.258 . S
C43 O50 1.247 . S
C43 O51 1.258 . S
O44 C42 1.247 . S
O44 Zn45 2.028 . S
Zn45 O44 2.028 . S
Zn45 O49 2.035 . S
Zn45 O51 2.035 . S
Zn45 O52 2.028 . S
O46 C42 1.258 . S
O46 Zn47 2.035 . S
Zn47 O46 2.035 . S
Zn47 O48 2.028 . S
Zn47 O50 2.028 . S
Zn47 O53 2.035 . S
O48 Zn47 2.028 . S
O48 C54 1.247 . S
O49 Zn45 2.035 . S
O49 C54 1.258 . S
O50 C43 1.247 . S
O50 Zn47 2.028 . S
O51 C43 1.258 . S
O51 Zn45 2.035 . S
O52 Zn45 2.028 . S
O52 C55 1.247 . S
O53 Zn47 2.035 . S
O53 C55 1.258 . S
C54 O48 1.247 . S
C54 O49 1.258 . S
C55 O52 1.247 . S
C55 O53 1.258 . S
C56 O58 1.247 . S
C56 O60 1.258 . S
C57 O64 1.247 . S
C57 O65 1.258 . S
O58 C56 1.247 . S
O58 Zn59 2.028 . S
Zn59 O58 2.028 . S
Zn59 O63 2.035 . S
Zn59 O65 2.035 . S
Zn59 O66 2.028 . S
O60 C56 1.258 . S
O60 Zn61 2.035 . S
Zn61 O60 2.035 . S
Zn61 O62 2.028 . S
Zn61 O64 2.028 . S
Zn61 O67 2.035 . S
O62 Zn61 2.028 . S
O62 C68 1.247 . S
O63 Zn59 2.035 . S
O63 C68 1.258 . S
O64 C57 1.247 . S
O64 Zn61 2.028 . S
O65 C57 1.258 . S
O65 Zn59 2.035 . S
O66 Zn59 2.028 . S
O66 C69 1.247 . S
O67 Zn61 2.035 . S
O67 C69 1.258 . S
C68 O62 1.247 . S
C68 O63 1.258 . S
C69 O66 1.247 . S
C69 O67 1.258 . S
C70 O72 1.247 . S
C70 O74 1.258 . S
C71 O78 1.247 . S
C71 O79 1.258 . S
O72 C70 1.247 . S
O72 Zn73 2.028 . S
Zn73 O72 2.028 . S
Zn73 O77 2.035 . S
Zn73 O79 2.035 . S
Zn73 O80 2.028 . S
O74 C70 1.258 . S
O74 Zn75 2.035 . S
Zn75 O74 2.035 . S
Zn75 O76 2.028 . S
Zn75 O78 2.028 . S
Zn75 O81 2.035 . S
O76 Zn75 2.028 . S
O76 C82 1.247 . S
O77 Zn73 2.035 . S
O77 C82 1.258 . S
O78 C71 1.247 . S
O78 Zn75 2.028 . S
O79 C71 1.258 . S
O79 Zn73 2.035 . S
O80 Zn73 2.028 . S
O80 C83 1.247 . S
O81 Zn75 2.035 . S
O81 C83 1.258 . S
C82 O76 1.247 . S
C82 O77 1.258 . S
C83 O80 1.247 . S
C83 O81 1.258 . S
C84 O86 1.247 . S
C84 O88 1.258 . S
C85 O92 1.247 . S
C85 O93 1.258 . S
O86 C84 1.247 . S
O86 Zn87 2.028 . S
Zn87 O86 2.028 . S
Zn87 O91 2.035 1_556 S
Zn87 O93 2.035 . S
Zn87 O94 2.028 . S
O88 C84 1.258 . S
O88 Zn89 2.035 . S
Zn89 O88 2.035 . S
Zn89 O90 2.028 1_556 S
Zn89 O92 2.028 . S
Zn89 O95 2.035 . S
O90 Zn89 2.028 1_554 S
O90 C96 1.247 . S
O91 Zn87 2.035 1_554 S
O91 C96 1.258 . S
O92 C85 1.247 . S
O92 Zn89 2.028 . S
O93 C85 1.258 . S
O93 Zn87 2.035 . S
O94 Zn87 2.028 . S
O94 C97 1.247 . S
O95 Zn89 2.035 . S
O95 C97 1.258 . S
C96 O90 1.247 . S
C96 O91 1.258 . S
C97 O94 1.247 . S
C97 O95 1.258 . S
C98 O100 1.247 . S
C98 O102 1.258 . S
C99 O106 1.247 . S
C99 O107 1.258 . S
O100 C98 1.247 . S
O100 Zn101 2.028 1_554 S
Zn101 O100 2.028 1_556 S
Zn101 O105 2.035 . S
Zn101 O107 2.035 . S
Zn101 O108 2.028 . S
O102 C98 1.258 . S
O102 Zn103 2.035 1_554 S
Zn103 O102 2.035 1_556 S
Zn103 O104 2.028 . S
Zn103 O106 2.028 . S
Zn103 O109 2.035 . S
O104 Zn103 2.028 . S
O104 C110 1.247 . S
O105 Zn101 2.035 . S
O105 C110 1.258 . S
O106 C99 1.247 . S
O106 Zn103 2.028 . S
O107 C99 1.258 . S
O107 Zn101 2.035 . S
O108 Zn101 2.028 . S
O108 C111 1.247 . S
O109 Zn103 2.035 . S
O109 C111 1.258 . S
C110 O104 1.247 . S
C110 O105 1.258 . S
C111 O108 1.247 . S
C111 O109 1.258 . S
C112 O114 1.247 . S
C112 O116 1.258 . S
C113 O120 1.247 . S
C113 O121 1.258 . S
O114 C112 1.247 . S
O114 Zn115 2.028 . S
Zn115 O114 2.028 . S
Zn115 O119 2.035 . S
Zn115 O121 2.035 1_556 S
Zn115 O122 2.028 . S
O116 C112 1.258 . S
O116 Zn117 2.035 . S
Zn117 O116 2.035 . S
Zn117 O118 2.028 . S
Zn117 O120 2.028 1_556 S
Zn117 O123 2.035 . S
O118 Zn117 2.028 . S
O118 C124 1.247 . S
O119 Zn115 2.035 . S
O119 C124 1.258 . S
O120 C113 1.247 . S
O120 Zn117 2.028 1_554 S
O121 C113 1.258 . S
O121 Zn115 2.035 1_554 S
O122 Zn115 2.028 . S
O122 C125 1.247 . S
O123 Zn117 2.035 . S
O123 C125 1.258 . S
C124 O118 1.247 . S
C124 O119 1.258 . S
C125 O122 1.247 . S
C125 O123 1.258 . S
C126 O128 1.247 . S
C126 O130 1.258 . S
C127 O134 1.247 . S
C127 O135 1.258 . S
O128 C126 1.247 . S
O128 Zn129 2.028 . S
Zn129 O128 2.028 . S
Zn129 O133 2.035 . S
Zn129 O135 2.035 . S
Zn129 O136 2.028 . S
O130 C126 1.258 . S
O130 Zn131 2.035 . S
Zn131 O130 2.035 . S
Zn131 O132 2.028 . S
Zn131 O134 2.028 . S
Zn131 O137 2.035 . S
O132 Zn131 2.028 . S
O132 C138 1.247 . S
O133 Zn129 2.035 . S
O133 C138 1.258 . S
O134 C127 1.247 . S
O134 Zn131 2.028 . S
O135 C127 1.258 . S
O135 Zn129 2.035 . S
O136 Zn129 2.028 . S
O136 C139 1.247 . S
O137 Zn131 2.035 . S
O137 C139 1.258 . S
C138 O132 1.247 . S
C138 O133 1.258 . S
C139 O136 1.247 . S
C139 O137 1.258 . S
C140 O142 1.247 . S
C140 O144 1.258 . S
C141 O148 1.247 . S
C141 O149 1.258 . S
O142 C140 1.247 . S
O142 Zn143 2.028 . S
Zn143 O142 2.028 . S
Zn143 O147 2.035 . S
Zn143 O149 2.035 . S
Zn143 O150 2.028 . S
O144 C140 1.258 . S
O144 Zn145 2.035 . S
Zn145 O144 2.035 . S
Zn145 O146 2.028 . S
Zn145 O148 2.028 . S
Zn145 O151 2.035 . S
O146 Zn145 2.028 . S
O146 C152 1.247 . S
O147 Zn143 2.035 . S
O147 C152 1.258 . S
O148 C141 1.247 . S
O148 Zn145 2.028 . S
O149 C141 1.258 . S
O149 Zn143 2.035 . S
O150 Zn143 2.028 . S
O150 C153 1.247 . S
O151 Zn145 2.035 . S
O151 C153 1.258 . S
C152 O146 1.247 . S
C152 O147 1.258 . S
C153 O150 1.247 . S
C153 O151 1.258 . S
C154 O156 1.247 . S
C154 O158 1.258 . S
C155 O162 1.247 . S
C155 O163 1.258 . S
O156 C154 1.247 . S
O156 Zn157 2.028 . S
Zn157 O156 2.028 . S
Zn157 O161 2.035 . S
Zn157 O163 2.035 . S
Zn157 O164 2.028 . S
O158 C154 1.258 . S
O158 Zn159 2.035 . S
Zn159 O158 2.035 . S
Zn159 O160 2.028 . S
Zn159 O162 2.028 . S
Zn159 O165 2.035 . S
O160 Zn159 2.028 . S
O160 C166 1.247 . S
O161 Zn157 2.035 . S
O161 C166 1.258 . S
O162 C155 1.247 . S
O162 Zn159 2.028 . S
O163 C155 1.258 . S
O163 Zn157 2.035 . S
O164 Zn157 2.028 . S
O164 C167 1.247 . S
O165 Zn159 2.035 . S
O165 C167 1.258 . S
C166 O160 1.247 . S
C166 O161 1.258 . S
C167 O164 1.247 . S
C167 O165 1.258 . S
C168 O170 1.247 . S
C168 O172 1.258 1_455 S
C169 O176 1.247 1_455 S
C169 O177 1.258 . S
O170 C168 1.247 . S
O170 Zn171 2.028 . S
Zn171 O170 2.028 . S
Zn171 O175 2.035 . S
Zn171 O177 2.035 . S
Zn171 O178 2.028 . S
O172 C168 1.258 1_655 S
O172 Zn173 2.035 . S
Zn173 O172 2.035 . S
Zn173 O174 2.028 . S
Zn173 O176 2.028 . S
Zn173 O179 2.035 . S
O174 Zn173 2.028 . S
O174 C180 1.247 1_655 S
O175 Zn171 2.035 . S
O175 C180 1.258 . S
O176 C169 1.247 1_655 S
O176 Zn173 2.028 . S
O177 C169 1.258 . S
O177 Zn171 2.035 . S
O178 Zn171 2.028 . S
O178 C181 1.247 1_455 S
O179 Zn173 2.035 . S
O179 C181 1.258 . S
C180 O174 1.247 1_455 S
C180 O175 1.258 . S
C181 O178 1.247 1_655 S
C181 O179 1.258 . S
C182 O184 1.247 . S
C182 O186 1.258 . S
C183 O190 1.247 . S
C183 O191 1.258 . S
O184 C182 1.247 . S
O184 Zn185 2.028 . S
Zn185 O184 2.028 . S
Zn185 O189 2.035 . S
Zn185 O191 2.035 . S
Zn185 O192 2.028 . S
O186 C182 1.258 . S
O186 Zn187 2.035 . S
Zn187 O186 2.035 . S
Zn187 O188 2.028 . S
Zn187 O190 2.028 . S
Zn187 O193 2.035 . S
O188 Zn187 2.028 . S
O188 C194 1.247 . S
O189 Zn185 2.035 . S
O189 C194 1.258 . S
O190 C183 1.247 . S
O190 Zn187 2.028 . S
O191 C183 1.258 . S
O191 Zn185 2.035 . S
O192 Zn185 2.028 . S
O192 C195 1.247 . S
O193 Zn187 2.035 . S
O193 C195 1.258 . S
C194 O188 1.247 . S
C194 O189 1.258 . S
C195 O192 1.247 . S
C195 O193 1.258 . S
C196 O198 1.247 . S
C196 O200 1.258 1_565 S
C197 O204 1.247 1_565 S
C197 O205 1.258 . S
O198 C196 1.247 . S
O198 Zn199 2.028 . S
Zn199 O198 2.028 . S
Zn199 O203 2.035 . S
Zn199 O205 2.035 . S
Zn199 O206 2.028 . S
O200 C196 1.258 1_545 S
O200 Zn201 2.035 . S
Zn201 O200 2.035 . S
Zn201 O202 2.028 . S
Zn201 O204 2.028 . S
Zn201 O207 2.035 . S
O202 Zn201 2.028 . S
O202 C208 1.247 . S
O203 Zn199 2.035 . S
O203 C208 1.258 1_565 S
O204 C197 1.247 1_545 S
O204 Zn201 2.028 . S
O205 C197 1.258 . S
O205 Zn199 2.035 . S
O206 Zn199 2.028 . S
O206 C209 1.247 . S
O207 Zn201 2.035 . S
O207 C209 1.258 1_545 S
C208 O202 1.247 . S
C208 O203 1.258 1_545 S
C209 O206 1.247 . S
C209 O207 1.258 1_565 S
C210 O212 1.247 . S
C210 O214 1.258 . S
C211 O218 1.247 . S
C211 O219 1.258 . S
O212 C210 1.247 . S
O212 Zn213 2.028 . S
Zn213 O212 2.028 . S
Zn213 O217 2.035 . S
Zn213 O219 2.035 . S
Zn213 O220 2.028 . S
O214 C210 1.258 . S
O214 Zn215 2.035 . S
Zn215 O214 2.035 . S
Zn215 O216 2.028 . S
Zn215 O218 2.028 . S
Zn215 O221 2.035 . S
O216 Zn215 2.028 . S
O216 C222 1.247 . S
O217 Zn213 2.035 . S
O217 C222 1.258 . S
O218 C211 1.247 . S
O218 Zn215 2.028 . S
O219 C211 1.258 . S
O219 Zn213 2.035 . S
O220 Zn213 2.028 . S
O220 C223 1.247 . S
O221 Zn215 2.035 . S
O221 C223 1.258 . S
C222 O216 1.247 . S
C222 O217 1.258 . S
C223 O220 1.247 . S
C223 O221 1.258 . S
C224 O226 1.247 . S
C224 O228 1.258 . S
C225 O232 1.247 . S
C225 O233 1.258 . S
O226 C224 1.247 . S
O226 Zn227 2.028 . S
Zn227 O226 2.028 . S
Zn227 O231 2.035 . S
Zn227 O233 2.035 . S
Zn227 O234 2.028 . S
O228 C224 1.258 . S
O228 Zn229 2.035 . S
Zn229 O228 2.035 . S
Zn229 O230 2.028 . S
Zn229 O232 2.028 . S
Zn229 O235 2.035 . S
O230 Zn229 2.028 . S
O230 C236 1.247 . S
O231 Zn227 2.035 . S
O231 C236 1.258 . S
O232 C225 1.247 . S
O232 Zn229 2.028 . S
O233 C225 1.258 . S
O233 Zn227 2.035 . S
O234 Zn227 2.028 . S
O234 C237 1.247 . S
O235 Zn229 2.035 . S
O235 C237 1.258 . S
C236 O230 1.247 . S
C236 O231 1.258 . S
C237 O234 1.247 . S
C237 O235 1.258 . S
C238 O240 1.247 . S
C238 O242 1.258 . S
C239 O246 1.247 . S
C239 O247 1.258 . S
O240 C238 1.247 . S
O240 Zn241 2.028 . S
Zn241 O240 2.028 . S
Zn241 O245 2.035 . S
Zn241 O247 2.035 . S
Zn241 O248 2.028 . S
O242 C238 1.258 . S
O242 Zn243 2.035 . S
Zn243 O242 2.035 . S
Zn243 O244 2.028 . S
Zn243 O246 2.028 . S
Zn243 O249 2.035 . S
O244 Zn243 2.028 . S
O244 C250 1.247 . S
O245 Zn241 2.035 . S
O245 C250 1.258 . S
O246 C239 1.247 . S
O246 Zn243 2.028 . S
O247 C239 1.258 . S
O247 Zn241 2.035 . S
O248 Zn241 2.028 . S
O248 C251 1.247 . S
O249 Zn243 2.035 . S
O249 C251 1.258 . S
C250 O244 1.247 . S
C250 O245 1.258 . S
C251 O248 1.247 . S
C251 O249 1.258 . S
C252 O254 1.247 1_556 S
C252 O256 1.258 1_556 S
C253 O260 1.247 . S
C253 O261 1.258 . S
O254 C252 1.247 1_554 S
O254 Zn255 2.028 . S
Zn255 O254 2.028 . S
Zn255 O259 2.035 . S
Zn255 O261 2.035 . S
Zn255 O262 2.028 . S
O256 C252 1.258 1_554 S
O256 Zn257 2.035 . S
Zn257 O256 2.035 . S
Zn257 O258 2.028 . S
Zn257 O260 2.028 . S
Zn257 O263 2.035 . S
O258 Zn257 2.028 . S
O258 C264 1.247 . S
O259 Zn255 2.035 . S
O259 C264 1.258 . S
O260 C253 1.247 . S
O260 Zn257 2.028 . S
O261 C253 1.258 . S
O261 Zn255 2.035 . S
O262 Zn255 2.028 . S
O262 C265 1.247 . S
O263 Zn257 2.035 . S
O263 C265 1.258 . S
C264 O258 1.247 . S
C264 O259 1.258 . S
C265 O262 1.247 . S
C265 O263 1.258 . S
C266 O268 1.247 . S
C266 O270 1.258 . S
C267 O274 1.247 1_556 S
C267 O275 1.258 1_556 S
O268 C266 1.247 . S
O268 Zn269 2.028 . S
Zn269 O268 2.028 . S
Zn269 O273 2.035 . S
Zn269 O275 2.035 . S
Zn269 O276 2.028 . S
O270 C266 1.258 . S
O270 Zn271 2.035 . S
Zn271 O270 2.035 . S
Zn271 O272 2.028 . S
Zn271 O274 2.028 . S
Zn271 O277 2.035 . S
O272 Zn271 2.028 . S
O272 C278 1.247 . S
O273 Zn269 2.035 . S
O273 C278 1.258 . S
O274 C267 1.247 1_554 S
O274 Zn271 2.028 . S
O275 C267 1.258 1_554 S
O275 Zn269 2.035 . S
O276 Zn269 2.028 . S
O276 C279 1.247 . S
O277 Zn271 2.035 . S
O277 C279 1.258 . S
C278 O272 1.247 . S
C278 O273 1.258 . S
C279 O276 1.247 . S
C279 O277 1.258 . S
C280 O282 1.247 . S
C280 O284 1.258 . S
C281 O288 1.247 . S
C281 O289 1.258 . S
O282 C280 1.247 . S
O282 Zn283 2.028 . S
Zn283 O282 2.028 . S
Zn283 O287 2.035 . S
Zn283 O289 2.035 . S
Zn283 O290 2.028 . S
O284 C280 1.258 . S
O284 Zn285 2.035 . S
Zn285 O284 2.035 . S
Zn285 O286 2.028 . S
Zn285 O288 2.028 . S
Zn285 O291 2.035 . S
O286 Zn285 2.028 . S
O286 C292 1.247 . S
O287 Zn283 2.035 . S
O287 C292 1.258 . S
O288 C281 1.247 . S
O288 Zn285 2.028 . S
O289 C281 1.258 . S
O289 Zn283 2.035 . S
O290 Zn283 2.028 . S
O290 C293 1.247 1_554 S
O291 Zn285 2.035 . S
O291 C293 1.258 1_554 S
C292 O286 1.247 . S
C292 O287 1.258 . S
C293 O290 1.247 1_556 S
C293 O291 1.258 1_556 S
C294 O296 1.247 1_565 S
C294 O298 1.258 . S
C295 O302 1.247 . S
C295 O303 1.258 1_565 S
O296 C294 1.247 1_545 S
O296 Zn297 2.028 1_556 S
Zn297 O296 2.028 1_554 S
Zn297 O301 2.035 . S
Zn297 O303 2.035 . S
Zn297 O304 2.028 1_554 S
O298 C294 1.258 . S
O298 Zn299 2.044 . S
Zn299 O298 2.044 . S
Zn299 O300 2.027 1_556 S
Zn299 O302 2.019 1_556 S
Zn299 O305 2.036 . S
O300 Zn299 2.027 1_554 S
O300 C306 1.247 1_565 S
O301 Zn297 2.035 . S
O301 C306 1.258 . S
O302 C295 1.247 . S
O302 Zn299 2.019 1_554 S
O303 C295 1.258 1_545 S
O303 Zn297 2.035 . S
O304 Zn297 2.028 1_556 S
O304 C307 1.247 1_545 S
O305 Zn299 2.036 . S
O305 C307 1.258 . S
C306 O300 1.247 1_545 S
C306 O301 1.258 . S
C307 O304 1.247 1_565 S
C307 O305 1.258 . S
C308 O310 1.247 . S
C308 O312 1.258 1_455 S
C309 O316 1.247 . S
C309 O317 1.258 1_655 S
O310 C308 1.247 . S
O310 Zn311 2.028 . S
Zn311 O310 2.028 . S
Zn311 O315 2.035 1_556 S
Zn311 O317 2.035 1_556 S
Zn311 O318 2.028 . S
O312 C308 1.258 1_655 S
O312 Zn313 2.035 1_556 S
Zn313 O312 2.035 1_554 S
Zn313 O314 2.028 . S
Zn313 O316 2.028 . S
Zn313 O319 2.035 1_554 S
O314 Zn313 2.028 . S
O314 C320 1.247 1_655 S
O315 Zn311 2.035 1_554 S
O315 C320 1.258 . S
O316 C309 1.247 . S
O316 Zn313 2.028 . S
O317 C309 1.258 1_455 S
O317 Zn311 2.035 1_554 S
O318 Zn311 2.028 . S
O318 C321 1.247 . S
O319 Zn313 2.035 1_556 S
O319 C321 1.258 1_655 S
C320 O314 1.247 1_455 S
C320 O315 1.258 . S
C321 O318 1.247 . S
C321 O319 1.258 1_455 S
C322 O324 1.247 . S
C322 O326 1.258 . S
C323 O330 1.247 . S
C323 O331 1.258 . S
O324 C322 1.247 . S
O324 Zn325 2.027 1_554 S
Zn325 O324 2.027 1_556 S
Zn325 O329 2.044 . S
Zn325 O331 2.036 . S
Zn325 O332 2.019 1_556 S
O326 C322 1.258 . S
O326 Zn327 2.035 . S
Zn327 O326 2.035 . S
Zn327 O328 2.028 1_554 S
Zn327 O330 2.028 1_554 S
Zn327 O333 2.035 . S
O328 Zn327 2.028 1_556 S
O328 C334 1.247 . S
O329 Zn325 2.044 . S
O329 C334 1.258 . S
O330 C323 1.247 . S
O330 Zn327 2.028 1_556 S
O331 C323 1.258 . S
O331 Zn325 2.036 . S
O332 Zn325 2.019 1_554 S
O332 C335 1.247 . S
O333 Zn327 2.035 . S
O333 C335 1.258 . S
C334 O328 1.247 . S
C334 O329 1.258 . S
C335 O332 1.247 . S
C335 O333 1.258 . S
C336 O338 1.247 . S
C336 O340 1.258 . S
C337 O344 1.247 . S
C337 O345 1.258 . S
O338 C336 1.247 . S
O338 Zn339 2.028 . S
Zn339 O338 2.028 . S
Zn339 O343 2.035 . S
Zn339 O345 2.035 . S
Zn339 O346 2.028 . S
O340 C336 1.258 . S
O340 Zn341 2.035 . S
Zn341 O340 2.035 . S
Zn341 O342 2.028 . S
Zn341 O344 2.028 . S
Zn341 O347 2.035 . S
O342 Zn341 2.028 . S
O342 C348 1.247 . S
O343 Zn339 2.035 . S
O343 C348 1.258 . S
O344 C337 1.247 . S
O344 Zn341 2.028 . S
O345 C337 1.258 . S
O345 Zn339 2.035 . S
O346 Zn339 2.028 . S
O346 C349 1.247 1_556 S
O347 Zn341 2.035 . S
O347 C349 1.258 1_556 S
C348 O342 1.247 . S
C348 O343 1.258 . S
C349 O346 1.247 1_554 S
C349 O347 1.258 1_554 S
C350 O352 1.247 1_554 S
C350 O354 1.258 1_554 S
C351 O358 1.247 . S
C351 O359 1.258 . S
O352 C350 1.247 1_556 S
O352 Zn353 2.028 . S
Zn353 O352 2.028 . S
Zn353 O357 2.035 . S
Zn353 O359 2.035 . S
Zn353 O360 2.028 . S
O354 C350 1.258 1_556 S
O354 Zn355 2.035 . S
Zn355 O354 2.035 . S
Zn355 O356 2.028 . S
Zn355 O358 2.028 . S
Zn355 O361 2.035 . S
O356 Zn355 2.028 . S
O356 C362 1.247 . S
O357 Zn353 2.035 . S
O357 C362 1.258 . S
O358 C351 1.247 . S
O358 Zn355 2.028 . S
O359 C351 1.258 . S
O359 Zn353 2.035 . S
O360 Zn353 2.028 . S
O360 C363 1.247 . S
O361 Zn355 2.035 . S
O361 C363 1.258 . S
C362 O356 1.247 . S
C362 O357 1.258 . S
C363 O360 1.247 . S
C363 O361 1.258 . S
C364 O366 1.247 . S
C364 O368 1.258 . S
C365 O372 1.247 1_554 S
C365 O373 1.258 1_554 S
O366 C364 1.247 . S
O366 Zn367 2.028 . S
Zn367 O366 2.028 . S
Zn367 O371 2.035 . S
Zn367 O373 2.035 . S
Zn367 O374 2.028 . S
O368 C364 1.258 . S
O368 Zn369 2.035 . S
Zn369 O368 2.035 . S
Zn369 O370 2.028 . S
Zn369 O372 2.028 . S
Zn369 O375 2.035 . S
O370 Zn369 2.028 . S
O370 C376 1.247 . S
O371 Zn367 2.035 . S
O371 C376 1.258 . S
O372 C365 1.247 1_556 S
O372 Zn369 2.028 . S
O373 C365 1.258 1_556 S
O373 Zn367 2.035 . S
O374 Zn367 2.028 . S
O374 C377 1.247 . S
O375 Zn369 2.035 . S
O375 C377 1.258 . S
C376 O370 1.247 . S
C376 O371 1.258 . S
C377 O374 1.247 . S
C377 O375 1.258 . S
C378 O380 1.247 . S
C378 O382 1.258 1_545 S
C379 O386 1.247 1_545 S
C379 O387 1.258 . S
O380 C378 1.247 . S
O380 Zn381 2.028 . S
Zn381 O380 2.028 . S
Zn381 O385 2.035 1_554 S
Zn381 O387 2.035 1_554 S
Zn381 O388 2.028 . S
O382 C378 1.258 1_565 S
O382 Zn383 2.035 1_554 S
Zn383 O382 2.035 1_556 S
Zn383 O384 2.028 . S
Zn383 O386 2.028 . S
Zn383 O389 2.035 1_556 S
O384 Zn383 2.028 . S
O384 C390 1.247 . S
O385 Zn381 2.035 1_556 S
O385 C390 1.258 1_545 S
O386 C379 1.247 1_565 S
O386 Zn383 2.028 . S
O387 C379 1.258 . S
O387 Zn381 2.035 1_556 S
O388 Zn381 2.028 . S
O388 C391 1.247 . S
O389 Zn383 2.035 1_554 S
O389 C391 1.258 1_565 S
C390 O384 1.247 . S
C390 O385 1.258 1_565 S
C391 O388 1.247 . S
C391 O389 1.258 1_545 S
C392 O394 1.247 . S
C392 O396 1.258 1_455 S
C393 O400 1.247 . S
C393 O401 1.258 1_655 S
O394 C392 1.247 . S
O394 Zn395 2.028 . S
Zn395 O394 2.028 . S
Zn395 O399 2.035 1_556 S
Zn395 O401 2.035 1_556 S
Zn395 O402 2.028 . S
O396 C392 1.258 1_655 S
O396 Zn397 2.035 1_556 S
Zn397 O396 2.035 1_554 S
Zn397 O398 2.028 . S
Zn397 O400 2.028 . S
Zn397 O403 2.035 1_554 S
O398 Zn397 2.028 . S
O398 C404 1.247 . S
O399 Zn395 2.035 1_554 S
O399 C404 1.258 1_455 S
O400 C393 1.247 . S
O400 Zn397 2.028 . S
O401 C393 1.258 1_455 S
O401 Zn395 2.035 1_554 S
O402 Zn395 2.028 . S
O402 C405 1.247 1_455 S
O403 Zn397 2.035 1_556 S
O403 C405 1.258 . S
C404 O398 1.247 . S
C404 O399 1.258 1_655 S
C405 O402 1.247 1_655 S
C405 O403 1.258 . S
C406 O408 1.247 . S
C406 O410 1.258 . S
C407 O414 1.247 . S
C407 O415 1.258 . S
O408 C406 1.247 . S
O408 Zn409 2.028 . S
Zn409 O408 2.028 . S
Zn409 O413 2.035 1_554 S
Zn409 O415 2.035 1_554 S
Zn409 O416 2.028 . S
O410 C406 1.258 . S
O410 Zn411 2.035 1_554 S
Zn411 O410 2.035 1_556 S
Zn411 O412 2.028 . S
Zn411 O414 2.028 . S
Zn411 O417 2.035 1_556 S
O412 Zn411 2.028 . S
O412 C418 1.247 . S
O413 Zn409 2.035 1_556 S
O413 C418 1.258 . S
O414 C407 1.247 . S
O414 Zn411 2.028 . S
O415 C407 1.258 . S
O415 Zn409 2.035 1_556 S
O416 Zn409 2.028 . S
O416 C419 1.247 . S
O417 Zn411 2.035 1_554 S
O417 C419 1.258 . S
C418 O412 1.247 . S
C418 O413 1.258 . S
C419 O416 1.247 . S
C419 O417 1.258 . S
C420 O422 1.247 1_655 S
C420 O424 1.258 . S
C421 O428 1.247 . S
C421 O429 1.258 1_655 S
O422 C420 1.247 1_455 S
O422 Zn423 2.028 . S
Zn423 O422 2.028 . S
Zn423 O427 2.035 . S
Zn423 O429 2.035 . S
Zn423 O430 2.028 . S
O424 C420 1.258 . S
O424 Zn425 2.035 . S
Zn425 O424 2.035 . S
Zn425 O426 2.028 . S
Zn425 O428 2.028 . S
Zn425 O431 2.035 . S
O426 Zn425 2.028 . S
O426 C432 1.247 1_655 S
O427 Zn423 2.035 . S
O427 C432 1.258 . S
O428 C421 1.247 . S
O428 Zn425 2.028 . S
O429 C421 1.258 1_455 S
O429 Zn423 2.035 . S
O430 Zn423 2.028 . S
O430 C433 1.247 1_455 S
O431 Zn425 2.035 . S
O431 C433 1.258 . S
C432 O426 1.247 1_455 S
C432 O427 1.258 . S
C433 O430 1.247 1_655 S
C433 O431 1.258 . S
C434 O436 1.247 . S
C434 O438 1.258 . S
C435 O442 1.247 . S
C435 O443 1.258 . S
O436 C434 1.247 . S
O436 Zn437 2.028 . S
Zn437 O436 2.028 . S
Zn437 O441 2.035 . S
Zn437 O443 2.035 . S
Zn437 O444 2.028 . S
O438 C434 1.258 . S
O438 Zn439 2.035 . S
Zn439 O438 2.035 . S
Zn439 O440 2.028 . S
Zn439 O442 2.028 . S
Zn439 O445 2.035 . S
O440 Zn439 2.028 . S
O440 C446 1.247 . S
O441 Zn437 2.035 . S
O441 C446 1.258 . S
O442 C435 1.247 . S
O442 Zn439 2.028 . S
O443 C435 1.258 . S
O443 Zn437 2.035 . S
O444 Zn437 2.028 . S
O444 C447 1.247 . S
O445 Zn439 2.035 . S
O445 C447 1.258 . S
C446 O440 1.247 . S
C446 O441 1.258 . S
C447 O444 1.247 . S
C447 O445 1.258 . S
C448 O450 1.247 . S
C448 O452 1.258 1_545 S
C449 O456 1.247 . S
C449 O457 1.258 1_565 S
O450 C448 1.247 . S
O450 Zn451 2.028 . S
Zn451 O450 2.028 . S
Zn451 O455 2.035 . S
Zn451 O457 2.035 . S
Zn451 O458 2.028 . S
O452 C448 1.258 1_565 S
O452 Zn453 2.035 . S
Zn453 O452 2.035 . S
Zn453 O454 2.028 . S
Zn453 O456 2.028 . S
Zn453 O459 2.035 . S
O454 Zn453 2.028 . S
O454 C460 1.247 1_565 S
O455 Zn451 2.035 . S
O455 C460 1.258 . S
O456 C449 1.247 . S
O456 Zn453 2.028 . S
O457 C449 1.258 1_545 S
O457 Zn451 2.035 . S
O458 Zn451 2.028 . S
O458 C461 1.247 . S
O459 Zn453 2.035 . S
O459 C461 1.258 1_565 S
C460 O454 1.247 1_545 S
C460 O455 1.258 . S
C461 O458 1.247 . S
C461 O459 1.258 1_545 S
C462 O464 1.247 . S
C462 O466 1.258 . S
C463 O470 1.247 . S
C463 O471 1.258 . S
O464 C462 1.247 . S
O464 Zn465 2.028 . S
Zn465 O464 2.028 . S
Zn465 O469 2.035 . S
Zn465 O471 2.035 . S
Zn465 O472 2.028 . S
O466 C462 1.258 . S
O466 Zn467 2.035 . S
Zn467 O466 2.035 . S
Zn467 O468 2.028 . S
Zn467 O470 2.028 . S
Zn467 O473 2.035 . S
O468 Zn467 2.028 . S
O468 C474 1.247 . S
O469 Zn465 2.035 . S
O469 C474 1.258 . S
O470 C463 1.247 . S
O470 Zn467 2.028 . S
O471 C463 1.258 . S
O471 Zn465 2.035 . S
O472 Zn465 2.028 . S
O472 C475 1.247 . S
O473 Zn467 2.035 . S
O473 C475 1.258 . S
C474 O468 1.247 . S
C474 O469 1.258 . S
C475 O472 1.247 . S
C475 O473 1.258 . S
C476 O478 1.247 . S
C476 O480 1.258 . S
C477 O484 1.247 . S
C477 O485 1.258 . S
O478 C476 1.247 . S
O478 Zn479 2.028 . S
Zn479 O478 2.028 . S
Zn479 O483 2.035 . S
Zn479 O485 2.035 . S
Zn479 O486 2.028 . S
O480 C476 1.258 . S
O480 Zn481 2.035 . S
Zn481 O480 2.035 . S
Zn481 O482 2.028 . S
Zn481 O484 2.028 . S
Zn481 O487 2.035 . S
O482 Zn481 2.028 . S
O482 C488 1.247 . S
O483 Zn479 2.035 . S
O483 C488 1.258 . S
O484 C477 1.247 . S
O484 Zn481 2.028 . S
O485 C477 1.258 . S
O485 Zn479 2.035 . S
O486 Zn479 2.028 . S
O486 C489 1.247 . S
O487 Zn481 2.035 . S
O487 C489 1.258 . S
C488 O482 1.247 . S
C488 O483 1.258 . S
C489 O486 1.247 . S
C489 O487 1.258 . S
C490 O492 1.247 . S
C490 O494 1.258 . S
C491 O498 1.247 . S
C491 O499 1.258 . S
O492 C490 1.247 . S
O492 Zn493 2.028 . S
Zn493 O492 2.028 . S
Zn493 O497 2.035 . S
Zn493 O499 2.035 . S
Zn493 O500 2.028 . S
O494 C490 1.258 . S
O494 Zn495 2.035 . S
Zn495 O494 2.035 . S
Zn495 O496 2.028 . S
Zn495 O498 2.028 . S
Zn495 O501 2.035 . S
O496 Zn495 2.028 . S
O496 C502 1.247 . S
O497 Zn493 2.035 . S
O497 C502 1.258 . S
O498 C491 1.247 . S
O498 Zn495 2.028 . S
O499 C491 1.258 . S
O499 Zn493 2.035 . S
O500 Zn493 2.028 . S
O500 C503 1.247 . S
O501 Zn495 2.035 . S
O501 C503 1.258 . S
C502 O496 1.247 . S
C502 O497 1.258 . S
C503 O500 1.247 . S
C503 O501 1.258 . S
C224 C13 1.843 . S
C250 C15 1.843 . S
C223 C29 1.841 . S
C365 C55 1.811 . S
C57 C349 1.811 . S
C83 C350 1.813 . S
C97 C476 1.843 . S
C502 C99 1.843 . S
C462 C112 1.841 . S
C127 C293 1.816 . S
C252 C140 1.811 . S
C167 C267 1.816 . S
C405 C168 1.753 1_655 S
C195 C407 1.750 . S
C379 C197 1.750 1_545 S
C460 C295 1.753 1_545 S
C421 C320 1.753 1_655 S
C335 C435 1.756 . S
C265 C0 2.148 . S
C278 C26 2.142 . S
C280 C40 2.141 . S
C42 C475 2.152 . S
C68 C489 2.153 . S
C70 C491 2.152 . S
C84 C336 2.141 . S
C363 C110 2.135 . S
C376 C125 2.148 . S
C210 C138 2.145 . S
C153 C237 2.146 . S
C154 C239 2.138 . S
C181 C432 2.129 1_655 S
C446 C182 2.138 . S
C449 C208 2.144 1_565 S
C390 C306 2.159 1_566 S
C309 C392 2.167 1_654 S
C322 C418 2.159 1_554 S
C391 C1 2.013 . S
C27 C393 2.014 . S
C41 C419 2.013 . S
C180 C43 1.923 . S
C69 C183 1.920 . S
C71 C209 1.920 . S
C307 C85 2.017 . S
C111 C308 2.016 . S
C323 C124 2.014 . S
C139 C433 1.925 . S
C447 C152 1.922 . S
C448 C155 1.922 . S
C337 C211 1.961 . S
C362 C236 1.965 1_565 S
C377 C238 1.963 1_455 S
C264 C474 1.961 . S
C488 C279 1.963 1_565 S
C490 C281 1.963 1_455 S
C12 C225 1.019 . S
C14 C251 1.019 . S
C28 C222 1.022 . S
C364 C54 1.053 . S
C348 C56 1.052 . S
C351 C82 1.050 . S
C477 C96 1.019 . S
C503 C98 1.019 . S
C463 C113 1.021 . S
C126 C292 1.049 . S
C141 C253 1.052 . S
C166 C266 1.048 . S
C404 C169 1.130 1_655 S
C406 C194 1.133 . S
C196 C378 1.133 1_565 S
C294 C461 1.131 1_565 S
C420 C321 1.130 1_655 S
C434 C334 1.128 . S
