# Generated by pormake.
# Topology uoz, (4)-cn, num edge types: 1
# Building blocks:
#     Node 0, Type 0, BuildingBlock: UXUYUI_clean_sbu_0, # of connection points: 4
#     Node 1, Type 0, BuildingBlock: UXUYUI_clean_sbu_0, # of connection points: 4
#     Node 2, Type 0, BuildingBlock: UXUYUI_clean_sbu_0, # of connection points: 4
#     Node 3, Type 0, BuildingBlock: UXUYUI_clean_sbu_0, # of connection points: 4
#     Node 4, Type 0, BuildingBlock: UXUYUI_clean_sbu_0, # of connection points: 4
#     Node 5, Type 0, BuildingBlock: UXUYUI_clean_sbu_0, # of connection points: 4
#     Node 6, Type 0, BuildingBlock: UXUYUI_clean_sbu_0, # of connection points: 4
#     Node 7, Type 0, BuildingBlock: UXUYUI_clean_sbu_0, # of connection points: 4
#     Node 8, Type 0, BuildingBlock: UXUYUI_clean_sbu_0, # of connection points: 4
#     Node 9, Type 0, BuildingBlock: UXUYUI_clean_sbu_0, # of connection points: 4
#     Node 10, Type 0, BuildingBlock: UXUYUI_clean_sbu_0, # of connection points: 4
#     Node 11, Type 0, BuildingBlock: UXUYUI_clean_sbu_0, # of connection points: 4
#     Node 12, Type 0, BuildingBlock: UXUYUI_clean_sbu_0, # of connection points: 4
#     Node 13, Type 0, BuildingBlock: UXUYUI_clean_sbu_0, # of connection points: 4
#     Node 14, Type 0, BuildingBlock: UXUYUI_clean_sbu_0, # of connection points: 4
#     Node 15, Type 0, BuildingBlock: UXUYUI_clean_sbu_0, # of connection points: 4
#     Edge 16, Type (0, 0), BuildingBlock: XIVTED_clean_linker_0, # of connection points: 2
#     Edge 17, Type (0, 0), BuildingBlock: XIVTED_clean_linker_0, # of connection points: 2
#     Edge 18, Type (0, 0), BuildingBlock: XIVTED_clean_linker_0, # of connection points: 2
#     Edge 19, Type (0, 0), BuildingBlock: XIVTED_clean_linker_0, # of connection points: 2
#     Edge 20, Type (0, 0), BuildingBlock: XIVTED_clean_linker_0, # of connection points: 2
#     Edge 21, Type (0, 0), BuildingBlock: XIVTED_clean_linker_0, # of connection points: 2
#     Edge 22, Type (0, 0), BuildingBlock: XIVTED_clean_linker_0, # of connection points: 2
#     Edge 23, Type (0, 0), BuildingBlock: XIVTED_clean_linker_0, # of connection points: 2
#     Edge 24, Type (0, 0), BuildingBlock: XIVTED_clean_linker_0, # of connection points: 2
#     Edge 25, Type (0, 0), BuildingBlock: XIVTED_clean_linker_0, # of connection points: 2
#     Edge 26, Type (0, 0), BuildingBlock: XIVTED_clean_linker_0, # of connection points: 2
#     Edge 27, Type (0, 0), BuildingBlock: XIVTED_clean_linker_0, # of connection points: 2
#     Edge 28, Type (0, 0), BuildingBlock: XIVTED_clean_linker_0, # of connection points: 2
#     Edge 29, Type (0, 0), BuildingBlock: XIVTED_clean_linker_0, # of connection points: 2
#     Edge 30, Type (0, 0), BuildingBlock: XIVTED_clean_linker_0, # of connection points: 2
#     Edge 31, Type (0, 0), BuildingBlock: XIVTED_clean_linker_0, # of connection points: 2
#     Edge 32, Type (0, 0), BuildingBlock: XIVTED_clean_linker_0, # of connection points: 2
#     Edge 33, Type (0, 0), BuildingBlock: XIVTED_clean_linker_0, # of connection points: 2
#     Edge 34, Type (0, 0), BuildingBlock: XIVTED_clean_linker_0, # of connection points: 2
#     Edge 35, Type (0, 0), BuildingBlock: XIVTED_clean_linker_0, # of connection points: 2
#     Edge 36, Type (0, 0), BuildingBlock: XIVTED_clean_linker_0, # of connection points: 2
#     Edge 37, Type (0, 0), BuildingBlock: XIVTED_clean_linker_0, # of connection points: 2
#     Edge 38, Type (0, 0), BuildingBlock: XIVTED_clean_linker_0, # of connection points: 2
#     Edge 39, Type (0, 0), BuildingBlock: XIVTED_clean_linker_0, # of connection points: 2
#     Edge 40, Type (0, 0), BuildingBlock: XIVTED_clean_linker_0, # of connection points: 2
#     Edge 41, Type (0, 0), BuildingBlock: XIVTED_clean_linker_0, # of connection points: 2
#     Edge 42, Type (0, 0), BuildingBlock: XIVTED_clean_linker_0, # of connection points: 2
#     Edge 43, Type (0, 0), BuildingBlock: XIVTED_clean_linker_0, # of connection points: 2
#     Edge 44, Type (0, 0), BuildingBlock: XIVTED_clean_linker_0, # of connection points: 2
#     Edge 45, Type (0, 0), BuildingBlock: XIVTED_clean_linker_0, # of connection points: 2
#     Edge 46, Type (0, 0), BuildingBlock: XIVTED_clean_linker_0, # of connection points: 2
#     Edge 47, Type (0, 0), BuildingBlock: XIVTED_clean_linker_0, # of connection points: 2
# Relax obj value: 0.206
# Max RMSD: 0.135
# Mean RMSD: 0.135
data_MOF--net-uoz--node1-UXUYUI_clean_sbu_0--edge1-XIVTED_clean_linker_0
_symmetry_space_group_name_H-M    P1
_symmetry_Int_Tables_number       1
_symmetry_cell_setting            triclinic
loop_
_symmetry_equiv_pos_as_xyz
'x, y, z'
_cell_length_a     86.938325
_cell_length_b     86.755075
_cell_length_c     33.311492
_cell_angle_alpha  89.986033
_cell_angle_beta   89.997713
_cell_angle_gamma 89.991014
loop_
_atom_site_label
_atom_site_type_symbol
_atom_site_fract_x
_atom_site_fract_y
_atom_site_fract_z
_atom_type_partial_charge
Li0 Li 0.98795 0.59667 0.31363 0.0
Li1 Li 0.01537 0.59474 0.31149 0.0
Li2 Li 0.00073 0.57448 0.28268 0.0
Li3 Li 0.00244 0.57747 0.35634 0.0
C4 C 0.99254 0.59795 0.23179 0.0
N5 N 0.97462 0.6024 0.16419 0.0
C6 C 0.99779 0.60734 0.20056 0.0
C7 C 0.97815 0.59085 0.22862 0.0
C8 C 0.98857 0.60943 0.16662 0.0
C9 C 0.96927 0.59324 0.19423 0.0
C10 C 0.00933 0.61213 0.37899 0.0
C11 C 0.02347 0.62175 0.43601 0.0
N12 N 0.02341 0.63608 0.41945 0.0
C13 C 0.00926 0.62698 0.36273 0.0
C14 C 0.01636 0.60949 0.4161 0.0
C15 C 0.0165 0.63893 0.38356 0.0
C16 C 0.95627 0.60647 0.31257 0.0
N17 N 0.97118 0.61044 0.30576 0.0
C18 C 0.96344 0.63257 0.26824 0.0
C19 C 0.9749 0.62345 0.28518 0.0
C20 C 0.948 0.62838 0.27312 0.0
C21 C 0.94435 0.61548 0.2967 0.0
H22 H 0.95364 0.59587 0.32821 0.0
H23 H 0.98684 0.62611 0.27929 0.0
C24 C 0.03662 0.60605 0.2589 0.0
N25 N 0.03351 0.60643 0.29886 0.0
C26 C 0.04858 0.61477 0.24293 0.0
C27 C 0.05462 0.62362 0.30985 0.0
C28 C 0.04253 0.61459 0.32463 0.0
C29 C 0.05759 0.62398 0.26834 0.0
H30 H 0.02961 0.5991 0.23919 0.0
H31 H 0.04031 0.61427 0.35648 0.0
C32 C 0.97765 0.56005 0.3312 0.0
N33 N 0.96632 0.53135 0.35174 0.0
C34 C 0.98701 0.547 0.32805 0.0
C35 C 0.96254 0.55851 0.3449 0.0
C36 C 0.98107 0.53259 0.33856 0.0
C37 C 0.95701 0.5439 0.35507 0.0
C38 C 0.03438 0.57285 0.32658 0.0
C39 C 0.04534 0.56929 0.29728 0.0
C40 C 0.03924 0.57755 0.36466 0.0
C41 C 0.06096 0.57063 0.3065 0.0
C42 C 0.05496 0.57872 0.37274 0.0
N43 N 0.06541 0.57528 0.34371 0.0
C44 C 0.0123 0.55943 0.21565 0.0
C45 C 0.98645 0.55272 0.23009 0.0
C46 C 0.01249 0.54947 0.18285 0.0
N47 N 0.99954 0.5606 0.23893 0.0
C48 C 0.98607 0.54272 0.19733 0.0
C49 C 0.99928 0.54091 0.17358 0.0
H50 H 0.02227 0.56637 0.22236 0.0
H51 H 0.97627 0.55423 0.24828 0.0
C52 C 0.99219 0.56742 0.43432 0.0
N53 N 0.0023 0.56506 0.40377 0.0
C54 C 0.99082 0.55651 0.46518 0.0
C55 C 0.01043 0.5412 0.43271 0.0
C56 C 0.01146 0.55236 0.40278 0.0
C57 C 0.99981 0.54302 0.46408 0.0
H58 H 0.98479 0.57744 0.4339 0.0
H59 H 0.01914 0.55054 0.37773 0.0
O60 O 0.00134 0.59612 0.2656 0.0
O61 O 0.00215 0.60031 0.35941 0.0
O62 O 0.98336 0.57434 0.32222 0.0
O63 O 0.01899 0.57213 0.31794 0.0
H64 H 0.00881 0.61307 0.20262 0.0
H65 H 0.97376 0.58371 0.25259 0.0
H66 H 0.99249 0.61669 0.14227 0.0
H67 H 0.9581 0.58785 0.1915 0.0
H68 H 0.02901 0.61986 0.46468 0.0
H69 H 0.00384 0.62923 0.33414 0.0
H70 H 0.01626 0.59812 0.42947 0.0
H71 H 0.01664 0.65045 0.37118 0.0
H72 H 0.96662 0.64245 0.25017 0.0
H73 H 0.93251 0.61193 0.30073 0.0
H74 H 0.05037 0.61471 0.21076 0.0
H75 H 0.06149 0.63032 0.33059 0.0
H76 H 0.99878 0.54797 0.31779 0.0
H77 H 0.95518 0.56849 0.34786 0.0
H78 H 0.9882 0.52241 0.33634 0.0
H79 H 0.94534 0.54253 0.36573 0.0
H80 H 0.04188 0.56559 0.2677 0.0
H81 H 0.03094 0.58039 0.38764 0.0
H82 H 0.06955 0.56797 0.28405 0.0
H83 H 0.05884 0.58242 0.40203 0.0
H84 H 0.02278 0.54863 0.16465 0.0
H85 H 0.97565 0.53632 0.19103 0.0
H86 H 0.98241 0.5583 0.48869 0.0
H87 H 0.01773 0.5311 0.43092 0.0
Li88 Li 0.67485 0.7517 0.60647 0.0
Li89 Li 0.6544 0.7636 0.56469 0.0
Li90 Li 0.65773 0.73576 0.56744 0.0
Li91 Li 0.67646 0.75134 0.5356 0.0
C92 C 0.64658 0.75794 0.6447 0.0
N93 N 0.63609 0.7747 0.7097 0.0
C94 C 0.65154 0.77311 0.65054 0.0
C95 C 0.63627 0.75131 0.67187 0.0
C96 C 0.6461 0.78139 0.68359 0.0
C97 C 0.63111 0.75997 0.70457 0.0
C98 C 0.68499 0.77972 0.54847 0.0
C99 C 0.68793 0.79725 0.49279 0.0
N100 N 0.70309 0.79885 0.50193 0.0
C101 C 0.70058 0.78159 0.55743 0.0
C102 C 0.67859 0.78764 0.51597 0.0
C103 C 0.70955 0.79129 0.53349 0.0
C104 C 0.7031 0.75117 0.6423 0.0
N105 N 0.68803 0.75271 0.65232 0.0
C106 C 0.69461 0.75441 0.72194 0.0
C107 C 0.68358 0.75418 0.69129 0.0
C108 C 0.7103 0.7529 0.7123 0.0
C109 C 0.71445 0.75126 0.67182 0.0
H110 H 0.70629 0.74975 0.61114 0.0
H111 H 0.67152 0.75499 0.6988 0.0
C112 C 0.62645 0.77409 0.53726 0.0
N113 N 0.63946 0.77912 0.55559 0.0
C114 C 0.61599 0.78461 0.52129 0.0
C115 C 0.63198 0.80535 0.54592 0.0
C116 C 0.64224 0.79438 0.56111 0.0
C117 C 0.61886 0.80051 0.52452 0.0
H118 H 0.62463 0.76186 0.5332 0.0
H119 H 0.65277 0.79806 0.57552 0.0
C120 C 0.68382 0.72159 0.59602 0.0
N121 N 0.69102 0.69685 0.64477 0.0
C122 C 0.69645 0.71226 0.58706 0.0
C123 C 0.67484 0.71834 0.62982 0.0
C124 C 0.69991 0.6998 0.61206 0.0
C125 C 0.67867 0.70578 0.65407 0.0
C126 C 0.65302 0.74002 0.48633 0.0
C127 C 0.66331 0.72805 0.47796 0.0
C128 C 0.6406 0.74265 0.46058 0.0
C129 C 0.66095 0.71887 0.44409 0.0
C130 C 0.63864 0.73321 0.42699 0.0
N131 N 0.64876 0.72161 0.41952 0.0
C132 C 0.63063 0.71889 0.56317 0.0
C133 C 0.65283 0.70417 0.54763 0.0
C134 C 0.6211 0.70712 0.54922 0.0
N135 N 0.64616 0.71735 0.56124 0.0
C136 C 0.64373 0.69215 0.5331 0.0
C137 C 0.62765 0.69374 0.5327 0.0
H138 H 0.62569 0.72968 0.57316 0.0
H139 H 0.66521 0.70337 0.54542 0.0
C140 C 0.70476 0.74663 0.49748 0.0
N141 N 0.69039 0.75239 0.49216 0.0
C142 C 0.71516 0.7465 0.46564 0.0
C143 C 0.69581 0.75853 0.42382 0.0
C144 C 0.68578 0.75838 0.45643 0.0
C145 C 0.71067 0.75239 0.42814 0.0
H146 H 0.70807 0.74203 0.5264 0.0
H147 H 0.67425 0.76287 0.45317 0.0
O148 O 0.65161 0.74954 0.61253 0.0
O149 O 0.67608 0.77002 0.57102 0.0
O150 O 0.68047 0.7339 0.57182 0.0
O151 O 0.65492 0.74905 0.5197 0.0
H152 H 0.65957 0.77843 0.63008 0.0
H153 H 0.63232 0.73959 0.66772 0.0
H154 H 0.64986 0.79312 0.68851 0.0
H155 H 0.62315 0.75498 0.72587 0.0
H156 H 0.68315 0.80336 0.46737 0.0
H157 H 0.70572 0.77561 0.58252 0.0
H158 H 0.66661 0.78614 0.50818 0.0
H159 H 0.72164 0.79281 0.54 0.0
H160 H 0.69089 0.75548 0.75284 0.0
H161 H 0.72639 0.7502 0.66291 0.0
H162 H 0.60621 0.78024 0.50471 0.0
H163 H 0.63454 0.81747 0.54984 0.0
H164 H 0.70353 0.71463 0.56104 0.0
H165 H 0.66503 0.7254 0.6374 0.0
H166 H 0.70966 0.69248 0.60546 0.0
H167 H 0.67183 0.70314 0.68032 0.0
H168 H 0.67298 0.72579 0.4975 0.0
H169 H 0.63254 0.75188 0.46646 0.0
H170 H 0.6688 0.70954 0.43738 0.0
H171 H 0.62906 0.73511 0.40686 0.0
H172 H 0.60877 0.70891 0.54898 0.0
H173 H 0.64922 0.68198 0.52083 0.0
H174 H 0.72659 0.74186 0.47031 0.0
H175 H 0.69186 0.76303 0.39531 0.0
Li176 Li 0.49775 0.42704 0.79253 0.0
Li177 Li 0.49666 0.4223 0.86591 0.0
Li178 Li 0.51129 0.4048 0.81875 0.0
Li179 Li 0.48341 0.40499 0.81913 0.0
C180 C 0.52326 0.43966 0.82039 0.0
N181 N 0.5389 0.46586 0.79649 0.0
C182 C 0.52248 0.4531 0.84345 0.0
C183 C 0.53202 0.43957 0.78518 0.0
C184 C 0.53048 0.46622 0.83089 0.0
C185 C 0.53981 0.45292 0.77358 0.0
C186 C 0.46436 0.42983 0.82236 0.0
C187 C 0.43787 0.42588 0.8415 0.0
N188 N 0.43325 0.43389 0.80853 0.0
C189 C 0.45932 0.43809 0.78878 0.0
C190 C 0.45353 0.42375 0.84907 0.0
C191 C 0.44356 0.43999 0.78228 0.0
C192 C 0.49689 0.43758 0.71338 0.0
N193 N 0.49763 0.44238 0.75212 0.0
C194 C 0.4976 0.46874 0.73149 0.0
C195 C 0.49768 0.45761 0.76173 0.0
C196 C 0.4972 0.4641 0.69108 0.0
C197 C 0.49668 0.44828 0.68226 0.0
H198 H 0.49626 0.42543 0.70662 0.0
H199 H 0.49773 0.46109 0.79287 0.0
C200 C 0.50976 0.43501 0.93672 0.0
N201 N 0.49654 0.43328 0.91543 0.0
C202 C 0.51052 0.44572 0.96805 0.0
C203 C 0.48376 0.45185 0.95659 0.0
C204 C 0.48359 0.4412 0.9252 0.0
C205 C 0.49749 0.45464 0.9777 0.0
H206 H 0.51998 0.42879 0.92771 0.0
H207 H 0.47328 0.43973 0.90753 0.0
C208 C 0.50295 0.39569 0.74533 0.0
N209 N 0.51543 0.3746 0.69229 0.0
C210 C 0.49653 0.38098 0.74162 0.0
C211 C 0.51565 0.3997 0.72175 0.0
C212 C 0.503 0.37049 0.71467 0.0
C213 C 0.52182 0.38886 0.69525 0.0
C214 C 0.49043 0.39021 0.89289 0.0
C215 C 0.49444 0.37468 0.89705 0.0
C216 C 0.47944 0.39662 0.91852 0.0
C217 C 0.48715 0.36575 0.92632 0.0
C218 C 0.4724 0.38731 0.94741 0.0
N219 N 0.47636 0.3722 0.95065 0.0
C220 C 0.54263 0.39744 0.80091 0.0
C221 C 0.52543 0.37632 0.80526 0.0
C222 C 0.55398 0.38798 0.78426 0.0
N223 N 0.52851 0.39159 0.8096 0.0
C224 C 0.53637 0.36648 0.78852 0.0
C225 C 0.55068 0.3724 0.77647 0.0
H226 H 0.54482 0.4096 0.80479 0.0
H227 H 0.51406 0.372 0.81206 0.0
C228 C 0.45888 0.39786 0.77111 0.0
N229 N 0.46591 0.39276 0.80504 0.0
C230 C 0.44752 0.3891 0.75258 0.0
C231 C 0.45088 0.36966 0.80374 0.0
C232 C 0.46197 0.37905 0.82196 0.0
C233 C 0.44371 0.3745 0.76794 0.0
H234 H 0.46263 0.40848 0.75728 0.0
H235 H 0.46796 0.37495 0.84823 0.0
O236 O 0.5154 0.42673 0.832 0.0
O237 O 0.47978 0.42774 0.82901 0.0
O238 O 0.49701 0.40603 0.77229 0.0
O239 O 0.49749 0.3991 0.86442 0.0
H240 H 0.51562 0.45352 0.87045 0.0
H241 H 0.53262 0.42937 0.76667 0.0
H242 H 0.52992 0.47671 0.84839 0.0
H243 H 0.54655 0.45302 0.74628 0.0
H244 H 0.42939 0.42115 0.86181 0.0
H245 H 0.46745 0.44292 0.76774 0.0
H246 H 0.45712 0.41731 0.87514 0.0
H247 H 0.43953 0.4463 0.75632 0.0
H248 H 0.49801 0.48081 0.73967 0.0
H249 H 0.49591 0.44418 0.65162 0.0
H250 H 0.52142 0.44755 0.98301 0.0
H251 H 0.47333 0.45813 0.96343 0.0
H252 H 0.48679 0.37758 0.75973 0.0
H253 H 0.52079 0.411 0.72418 0.0
H254 H 0.4982 0.35904 0.71171 0.0
H255 H 0.53173 0.39177 0.67711 0.0
H256 H 0.50306 0.36956 0.87783 0.0
H257 H 0.47644 0.40865 0.91633 0.0
H258 H 0.49008 0.3537 0.92971 0.0
H259 H 0.46383 0.39213 0.96733 0.0
H260 H 0.56487 0.393 0.77537 0.0
H261 H 0.53344 0.3545 0.78358 0.0
H262 H 0.44216 0.39358 0.72569 0.0
H263 H 0.44856 0.35844 0.81654 0.0
Li264 Li 0.82658 0.25008 0.11224 0.0
Li265 Li 0.84489 0.2342 0.07403 0.0
Li266 Li 0.84498 0.26368 0.07075 0.0
Li267 Li 0.82391 0.24851 0.04244 0.0
C268 C 0.85048 0.251 0.1574 0.0
N269 N 0.85035 0.25341 0.24002 0.0
C270 C 0.85081 0.23772 0.1811 0.0
C271 C 0.85014 0.26551 0.17559 0.0
C272 C 0.85073 0.23919 0.22287 0.0
C273 C 0.85007 0.26648 0.21746 0.0
C274 C 0.8098 0.22397 0.06698 0.0
C275 C 0.79774 0.20544 0.02316 0.0
N276 N 0.78369 0.2105 0.03533 0.0
C277 C 0.79524 0.22898 0.0791 0.0
C278 C 0.81108 0.2121 0.03882 0.0
C279 C 0.78217 0.22202 0.06274 0.0
C280 C 0.80948 0.2646 0.17398 0.0
N281 N 0.81482 0.25082 0.1605 0.0
C282 C 0.79992 0.23735 0.2095 0.0
C283 C 0.81052 0.23735 0.17798 0.0
C284 C 0.79367 0.25136 0.22307 0.0
C285 C 0.79888 0.26515 0.20549 0.0
H286 H 0.81304 0.27513 0.1593 0.0
H287 H 0.81489 0.22655 0.16642 0.0
C288 C 0.87285 0.2204 0.05795 0.0
N289 N 0.85818 0.21703 0.06883 0.0
C290 C 0.88271 0.20874 0.045 0.0
C291 C 0.86241 0.19022 0.05664 0.0
C292 C 0.85293 0.20227 0.06954 0.0
C293 C 0.8774 0.19346 0.04314 0.0
H294 H 0.87658 0.23229 0.05704 0.0
H295 H 0.84118 0.19995 0.07827 0.0
C296 C 0.81885 0.28031 0.05329 0.0
N297 N 0.81163 0.306 0.00793 0.0
C298 C 0.82393 0.28149 0.0136 0.0
C299 C 0.81001 0.29218 0.06982 0.0
C300 C 0.82018 0.29456 0.99118 0.0
C301 C 0.8065 0.30508 0.04643 0.0
C302 C 0.85083 0.24484 0.98953 0.0
C303 C 0.85612 0.25665 0.96449 0.0
C304 C 0.85144 0.22957 0.97614 0.0
C305 C 0.86178 0.253 0.92642 0.0
C306 C 0.85719 0.22639 0.93788 0.0
N307 N 0.8622 0.23808 0.91401 0.0
C308 C 0.87268 0.27572 0.04568 0.0
C309 C 0.85485 0.29538 0.06234 0.0
C310 C 0.88286 0.28655 0.02987 0.0
N311 N 0.85881 0.28022 0.06034 0.0
C312 C 0.86468 0.30663 0.0466 0.0
C313 C 0.87874 0.30221 0.02917 0.0
H314 H 0.87548 0.26358 0.04433 0.0
H315 H 0.84385 0.29871 0.07465 0.0
C316 C 0.7959 0.25593 0.00425 0.0
N317 N 0.80909 0.24766 -0.00014 0.0
C318 C 0.78483 0.25598 0.974 0.0
C319 C 0.80064 0.23826 0.93616 0.0
C320 C 0.81149 0.23872 0.96693 0.0
C321 C 0.78721 0.24713 0.93933 0.0
H322 H 0.79395 0.26248 0.03136 0.0
H323 H 0.82169 0.23177 0.96466 0.0
O324 O 0.85004 0.24981 0.11655 0.0
O325 O 0.8227 0.23095 0.0818 0.0
O326 O 0.82238 0.26764 0.07605 0.0
O327 O 0.84569 0.24815 0.02748 0.0
H328 H 0.85097 0.22642 0.16734 0.0
H329 H 0.84977 0.27588 0.15752 0.0
H330 H 0.85091 0.22901 0.24165 0.0
H331 H 0.84973 0.27762 0.232 0.0
H332 H 0.79856 0.19631 0.00114 0.0
H333 H 0.79403 0.2383 0.10045 0.0
H334 H 0.82225 0.20826 0.02858 0.0
H335 H 0.77083 0.22583 0.07169 0.0
H336 H 0.79643 0.22646 0.22256 0.0
H337 H 0.7943 0.2762 0.2147 0.0
H338 H 0.89408 0.21182 0.03437 0.0
H339 H 0.85792 0.17858 0.05615 0.0
H340 H 0.83057 0.27237 0.00013 0.0
H341 H 0.80592 0.29145 0.10044 0.0
H342 H 0.82405 0.2956 0.96043 0.0
H343 H 0.79971 0.31437 0.05889 0.0
H344 H 0.85591 0.26853 0.97429 0.0
H345 H 0.84727 0.22027 0.99477 0.0
H346 H 0.86589 0.26204 0.90677 0.0
H347 H 0.85765 0.21463 0.92714 0.0
H348 H 0.89349 0.28258 0.01643 0.0
H349 H 0.86117 0.3186 0.04726 0.0
H350 H 0.77444 0.26272 0.97785 0.0
H351 H 0.80285 0.23124 0.9099 0.0
Li352 Li 0.99867 0.42327 0.77547 0.0
Li353 Li 0.99702 0.42698 0.849 0.0
Li354 Li 0.01187 0.40544 0.82134 0.0
Li355 Li 0.98409 0.40499 0.82052 0.0
C356 C 0.03052 0.43055 0.82129 0.0
N357 N 0.06144 0.43509 0.83682 0.0
C358 C 0.0353 0.43603 0.85875 0.0
C359 C 0.04149 0.42757 0.79159 0.0
C360 C 0.05097 0.4382 0.86606 0.0
C361 C 0.05706 0.42988 0.80007 0.0
C362 C 0.97161 0.43978 0.81981 0.0
C363 C 0.95551 0.45333 0.86711 0.0
N364 N 0.9556 0.46588 0.84262 0.0
C365 C 0.97147 0.45279 0.79503 0.0
C366 C 0.9635 0.44001 0.85605 0.0
C367 C 0.96332 0.46587 0.80711 0.0
C368 C 0.98938 0.43327 0.6965 0.0
N369 N 0.9992 0.43538 0.72778 0.0
C370 C 0.00852 0.45881 0.69902 0.0
C371 C 0.00883 0.44771 0.72922 0.0
C372 C 0.99815 0.4573 0.66695 0.0
C373 C 0.98872 0.44413 0.66539 0.0
H374 H 0.98165 0.42349 0.69651 0.0
H375 H 0.01636 0.44924 0.7547 0.0
C376 C 0.99706 0.43772 0.92848 0.0
N377 N 0.99679 0.44221 0.88944 0.0
C378 C 0.99729 0.4487 0.95895 0.0
C379 C 0.99703 0.46873 0.90838 0.0
C380 C 0.997 0.45734 0.87886 0.0
C381 C 0.99722 0.46442 0.94897 0.0
H382 H 0.99732 0.42561 0.93596 0.0
H383 H 0.99723 0.46053 0.84749 0.0
C384 C 0.00591 0.39218 0.74524 0.0
N385 N 0.02134 0.37637 0.68553 0.0
C386 C 0.00278 0.3766 0.73841 0.0
C387 C 0.01673 0.39977 0.72136 0.0
C388 C 0.01074 0.36879 0.70817 0.0
C389 C 0.02446 0.39157 0.69143 0.0
C390 C 0.99205 0.39485 0.89301 0.0
C391 C 0.99825 0.37998 0.89364 0.0
C392 C 0.97953 0.39838 0.91771 0.0
C393 C 0.99176 0.36887 0.91885 0.0
C394 C 0.97334 0.38693 0.94238 0.0
N395 N 0.97953 0.37254 0.94244 0.0
C396 C 0.03549 0.39711 0.87118 0.0
C397 C 0.03506 0.38112 0.81353 0.0
C398 C 0.04713 0.38826 0.88831 0.0
N399 N 0.02965 0.39343 0.83455 0.0
C400 C 0.04653 0.37172 0.83001 0.0
C401 C 0.05255 0.37519 0.86809 0.0
H402 H 0.03056 0.40653 0.88804 0.0
H403 H 0.03012 0.37818 0.78486 0.0
C404 C 0.95324 0.39743 0.84113 0.0
N405 N 0.96692 0.39161 0.82846 0.0
C406 C 0.9422 0.38771 0.85814 0.0
C407 C 0.95906 0.36608 0.84568 0.0
C408 C 0.96975 0.37621 0.82895 0.0
C409 C 0.94534 0.37188 0.86206 0.0
H410 H 0.95129 0.40971 0.84052 0.0
H411 H 0.98082 0.37193 0.81929 0.0
O412 O 0.01521 0.42822 0.81366 0.0
O413 O 0.97968 0.42692 0.80868 0.0
O414 O 0.99819 0.39998 0.77469 0.0
O415 O 0.99803 0.40582 0.86789 0.0
H416 H 0.02705 0.43841 0.88218 0.0
H417 H 0.03807 0.4235 0.76231 0.0
H418 H 0.05482 0.44233 0.89501 0.0
H419 H 0.06566 0.42755 0.7774 0.0
H420 H 0.94931 0.45371 0.89524 0.0
H421 H 0.97761 0.45283 0.76682 0.0
H422 H 0.96361 0.43014 0.87585 0.0
H423 H 0.96316 0.47603 0.78829 0.0
H424 H 0.01617 0.46864 0.70113 0.0
H425 H 0.98049 0.44257 0.64133 0.0
H426 H 0.99743 0.44496 0.98998 0.0
H427 H 0.99722 0.48075 0.89959 0.0
H428 H 0.99434 0.37056 0.75634 0.0
H429 H 0.0191 0.41185 0.72573 0.0
H430 H 0.0085 0.35671 0.70269 0.0
H431 H 0.0329 0.3973 0.67282 0.0
H432 H 0.00781 0.37695 0.87447 0.0
H433 H 0.9745 0.40978 0.91743 0.0
H434 H 0.99639 0.35729 0.91945 0.0
H435 H 0.96357 0.38947 0.96136 0.0
H436 H 0.05125 0.39113 0.91809 0.0
H437 H 0.0504 0.36165 0.81363 0.0
H438 H 0.93181 0.3927 0.87049 0.0
H439 H 0.96185 0.35394 0.84747 0.0
Li440 Li 0.84621 0.7361 0.07346 0.0
Li441 Li 0.82403 0.74901 0.10219 0.0
Li442 Li 0.82756 0.75087 0.03081 0.0
Li443 Li 0.84504 0.76478 0.07713 0.0
C444 C 0.81332 0.72242 0.07961 0.0
N445 N 0.79103 0.70463 0.11635 0.0
C446 C 0.81723 0.71267 0.11143 0.0
C447 C 0.79809 0.72303 0.06628 0.0
C448 C 0.8058 0.70379 0.12965 0.0
C449 C 0.78698 0.71397 0.0853 0.0
C450 C 0.8495 0.74832 0.15983 0.0
C451 C 0.85608 0.76006 0.22325 0.0
N452 N 0.85863 0.74584 0.23912 0.0
C453 C 0.85227 0.73382 0.17682 0.0
C454 C 0.85149 0.76155 0.18325 0.0
C455 C 0.85684 0.73282 0.21693 0.0
C456 C 0.87376 0.72387 0.09871 0.0
N457 N 0.86023 0.71963 0.08154 0.0
C458 C 0.86569 0.69302 0.09355 0.0
C459 C 0.85624 0.70455 0.07749 0.0
C460 C 0.8791 0.69722 0.11432 0.0
C461 C 0.88336 0.7128 0.11575 0.0
H462 H 0.87652 0.73597 0.10179 0.0
H463 H 0.84534 0.70153 0.06399 0.0
C464 C 0.79447 0.75415 0.13357 0.0
N465 N 0.80837 0.74775 0.14212 0.0
C466 C 0.78272 0.754 0.1621 0.0
C467 C 0.79962 0.74014 0.20705 0.0
C468 C 0.81101 0.7406 0.17774 0.0
C469 C 0.7853 0.74703 0.19955 0.0
H470 H 0.79254 0.75944 0.10461 0.0
H471 H 0.82191 0.73516 0.18347 0.0
C472 C 0.85633 0.74439 0.99607 0.0
N473 N 0.86725 0.72951 0.9285 0.0
C474 C 0.8665 0.75191 0.97016 0.0
C475 C 0.85174 0.72928 0.98767 0.0
C476 C 0.87188 0.7442 0.93611 0.0
C477 C 0.85739 0.72196 0.95336 0.0
C478 C 0.81701 0.78086 0.08543 0.0
C479 C 0.80918 0.7916 0.06179 0.0
C480 C 0.819 0.78366 0.1264 0.0
C481 C 0.80357 0.80507 0.07954 0.0
C482 C 0.81322 0.79724 0.14305 0.0
N483 N 0.8057 0.80759 0.11946 0.0
C484 C 0.80058 0.7563 0.99153 0.0
C485 C 0.82 0.74941 0.945 0.0
C486 C 0.78966 0.75715 0.961 0.0
N487 N 0.81536 0.75231 0.98328 0.0
C488 C 0.80941 0.75014 0.91335 0.0
C489 C 0.79396 0.75394 0.92123 0.0
H490 H 0.7972 0.75854 0.02223 0.0
H491 H 0.83183 0.74645 0.93887 0.0
C492 C 0.87129 0.77786 0.10731 0.0
N493 N 0.85776 0.78192 0.08987 0.0
C494 C 0.88035 0.78892 0.12625 0.0
C495 C 0.86205 0.80842 0.10606 0.0
C496 C 0.85324 0.79691 0.08768 0.0
C497 C 0.87552 0.80435 0.12687 0.0
H498 H 0.87458 0.76585 0.10856 0.0
H499 H 0.8425 0.79989 0.07338 0.0
O500 O 0.82429 0.73154 0.06218 0.0
O501 O 0.84541 0.74955 0.12019 0.0
O502 O 0.8511 0.75179 0.02966 0.0
O503 O 0.82258 0.76765 0.06837 0.0
H504 H 0.82892 0.71218 0.12244 0.0
H505 H 0.79486 0.73047 0.04167 0.0
H506 H 0.80865 0.69629 0.15451 0.0
H507 H 0.77514 0.71439 0.07542 0.0
H508 H 0.85766 0.77021 0.24163 0.0
H509 H 0.8507 0.72342 0.15947 0.0
H510 H 0.84964 0.77289 0.17073 0.0
H511 H 0.85895 0.72167 0.23041 0.0
H512 H 0.86207 0.68109 0.09199 0.0
H513 H 0.89369 0.71641 0.13129 0.0
H514 H 0.77175 0.75921 0.15488 0.0
H515 H 0.80211 0.7347 0.23558 0.0
H516 H 0.8702 0.76359 0.97632 0.0
H517 H 0.84382 0.72328 0.00719 0.0
H518 H 0.87974 0.74989 0.91577 0.0
H519 H 0.85391 0.71029 0.94646 0.0
H520 H 0.80751 0.78958 0.03001 0.0
H521 H 0.82481 0.77536 0.14517 0.0
H522 H 0.79753 0.81351 0.06159 0.0
H523 H 0.81468 0.79955 0.17473 0.0
H524 H 0.77788 0.75989 0.96874 0.0
H525 H 0.81329 0.7478 0.88308 0.0
H526 H 0.89081 0.78535 0.14133 0.0
H527 H 0.85796 0.82021 0.10581 0.0
Li528 Li 0.48696 0.59512 0.32097 0.0
Li529 Li 0.51515 0.59552 0.32812 0.0
Li530 Li 0.50174 0.57683 0.28374 0.0
Li531 Li 0.50019 0.57384 0.35578 0.0
C532 C 0.4964 0.61239 0.26141 0.0
N533 N 0.48264 0.63827 0.22908 0.0
C534 C 0.50278 0.62696 0.26797 0.0
C535 C 0.48314 0.61095 0.23801 0.0
C536 C 0.49562 0.63991 0.25146 0.0
C537 C 0.47631 0.62418 0.22205 0.0
C538 C 0.49958 0.5963 0.41073 0.0
C539 C 0.51287 0.59306 0.47366 0.0
N540 N 0.49963 0.59639 0.49361 0.0
C541 C 0.48611 0.59973 0.43178 0.0
C542 C 0.51309 0.59297 0.43174 0.0
C543 C 0.48637 0.59971 0.47371 0.0
C544 C 0.45527 0.60297 0.32979 0.0
N545 N 0.46991 0.60843 0.32834 0.0
C546 C 0.46195 0.63264 0.3553 0.0
C547 C 0.47338 0.62299 0.34026 0.0
C548 C 0.44681 0.62716 0.35889 0.0
C549 C 0.44344 0.61222 0.34503 0.0
H550 H 0.45293 0.59116 0.3213 0.0
H551 H 0.48523 0.62677 0.3405 0.0
C552 C 0.54671 0.60723 0.33283 0.0
N553 N 0.53158 0.60923 0.34191 0.0
C554 C 0.55792 0.6164 0.35129 0.0
C555 C 0.53767 0.63033 0.38515 0.0
C556 C 0.52693 0.62089 0.36629 0.0
C557 C 0.55344 0.6278 0.37893 0.0
H558 H 0.5502 0.59824 0.31246 0.0
H559 H 0.51482 0.62253 0.37227 0.0
C560 C 0.47587 0.56144 0.29671 0.0
N561 N 0.46243 0.53798 0.25304 0.0
C562 C 0.47822 0.54608 0.30779 0.0
C563 C 0.46652 0.56489 0.26379 0.0
C564 C 0.47136 0.53438 0.28524 0.0
C565 C 0.45988 0.55285 0.24197 0.0
C566 C 0.5341 0.57055 0.3163 0.0
C567 C 0.53998 0.57039 0.27724 0.0
C568 C 0.54404 0.56847 0.34886 0.0
C569 C 0.55571 0.56795 0.27139 0.0
C570 C 0.5597 0.56611 0.34176 0.0
N571 N 0.56516 0.56588 0.3035 0.0
C572 C 0.49871 0.56795 0.2 0.0
C573 C 0.50776 0.54923 0.24609 0.0
C574 C 0.49884 0.55705 0.16897 0.0
N575 N 0.50303 0.5638 0.23769 0.0
C576 C 0.50797 0.538 0.21625 0.0
C577 C 0.5034 0.54176 0.177 0.0
H578 H 0.4949 0.57961 0.1942 0.0
H579 H 0.51096 0.54622 0.27648 0.0
C580 C 0.48643 0.55964 0.4229 0.0
N581 N 0.49895 0.55967 0.39848 0.0
C582 C 0.48556 0.54927 0.45485 0.0
C583 C 0.51032 0.53903 0.43518 0.0
C584 C 0.51068 0.54954 0.40362 0.0
C585 C 0.49765 0.53881 0.46135 0.0
H586 H 0.47713 0.56765 0.41745 0.0
H587 H 0.52028 0.54958 0.38311 0.0
O588 O 0.50311 0.59961 0.27777 0.0
O589 O 0.49949 0.59598 0.36971 0.0
O590 O 0.48282 0.57304 0.31773 0.0
O591 O 0.51869 0.57266 0.32272 0.0
H592 H 0.5131 0.62825 0.28583 0.0
H593 H 0.47811 0.59975 0.23253 0.0
H594 H 0.50038 0.65127 0.25647 0.0
H595 H 0.46599 0.62325 0.20411 0.0
H596 H 0.52323 0.59045 0.49035 0.0
H597 H 0.47555 0.60227 0.4159 0.0
H598 H 0.52359 0.59023 0.4158 0.0
H599 H 0.47602 0.6023 0.49044 0.0
H600 H 0.46515 0.64393 0.36642 0.0
H601 H 0.43191 0.60757 0.34724 0.0
H602 H 0.56995 0.6141 0.34533 0.0
H603 H 0.53364 0.63931 0.40516 0.0
H604 H 0.48544 0.54323 0.33319 0.0
H605 H 0.46453 0.57672 0.25497 0.0
H606 H 0.47318 0.52243 0.29325 0.0
H607 H 0.45273 0.55534 0.21621 0.0
H608 H 0.53254 0.57224 0.25169 0.0
H609 H 0.53975 0.56885 0.37934 0.0
H610 H 0.56042 0.56777 0.24134 0.0
H611 H 0.56752 0.56451 0.36667 0.0
H612 H 0.49536 0.56054 0.13912 0.0
H613 H 0.51124 0.52636 0.22431 0.0
H614 H 0.47545 0.54931 0.47385 0.0
H615 H 0.51996 0.53128 0.43923 0.0
Li616 Li 0.65615 0.26617 0.57832 0.0
Li617 Li 0.67627 0.25169 0.60775 0.0
Li618 Li 0.67424 0.25215 0.53688 0.0
Li619 Li 0.65502 0.23804 0.57829 0.0
C620 C 0.68089 0.2827 0.54983 0.0
N621 N 0.68581 0.30854 0.50303 0.0
C622 C 0.69273 0.29296 0.55934 0.0
C623 C 0.67156 0.28556 0.51644 0.0
C624 C 0.69502 0.30597 0.53534 0.0
C625 C 0.67423 0.29869 0.49318 0.0
C626 C 0.65214 0.26019 0.65889 0.0
C627 C 0.63732 0.26474 0.71894 0.0
N628 N 0.64632 0.27714 0.72746 0.0
C629 C 0.66126 0.27296 0.66829 0.0
C630 C 0.64008 0.25603 0.68441 0.0
C631 C 0.65813 0.28138 0.70307 0.0
C632 C 0.62787 0.28042 0.58991 0.0
N633 N 0.64316 0.28351 0.58745 0.0
C634 C 0.63921 0.30877 0.61417 0.0
C635 C 0.64893 0.29744 0.59855 0.0
C636 C 0.62344 0.30565 0.61893 0.0
C637 C 0.61775 0.29137 0.60556 0.0
H638 H 0.6237 0.26907 0.58198 0.0
H639 H 0.66118 0.29949 0.59762 0.0
C640 C 0.70435 0.25813 0.64562 0.0
N641 N 0.69053 0.25107 0.65055 0.0
C642 C 0.71515 0.25794 0.67655 0.0
C643 C 0.69734 0.24303 0.71668 0.0
C644 C 0.68682 0.24366 0.68517 0.0
C645 C 0.71168 0.25028 0.71256 0.0
H646 H 0.70695 0.26386 0.6176 0.0
H647 H 0.67571 0.23818 0.68817 0.0
C648 C 0.64631 0.24433 0.49913 0.0
N649 N 0.63684 0.22781 0.43265 0.0
C650 C 0.65187 0.22942 0.49253 0.0
C651 C 0.63592 0.25082 0.47196 0.0
C652 C 0.64694 0.22126 0.45875 0.0
C653 C 0.63128 0.2423 0.43851 0.0
C654 C 0.68723 0.2244 0.59116 0.0
C655 C 0.70282 0.22435 0.58097 0.0
C656 C 0.68206 0.21525 0.62298 0.0
C657 C 0.71302 0.21523 0.60302 0.0
C658 C 0.69262 0.20628 0.64427 0.0
N659 N 0.70776 0.20646 0.63396 0.0
C660 C 0.70209 0.25578 0.49985 0.0
C661 C 0.6828 0.25039 0.45164 0.0
C662 C 0.7133 0.25648 0.47004 0.0
N663 N 0.68721 0.25264 0.4904 0.0
C664 C 0.69371 0.25091 0.42071 0.0
C665 C 0.70922 0.25397 0.4298 0.0
H666 H 0.70525 0.2577 0.53086 0.0
H667 H 0.67088 0.24824 0.44453 0.0
C668 C 0.62745 0.22525 0.60203 0.0
N669 N 0.64127 0.22131 0.58608 0.0
C670 C 0.61743 0.21389 0.61588 0.0
C671 C 0.63575 0.19454 0.59489 0.0
C672 C 0.64544 0.20632 0.58134 0.0
C673 C 0.62168 0.19829 0.61333 0.0
H674 H 0.62455 0.2373 0.60572 0.0
H675 H 0.65656 0.20351 0.56871 0.0
O676 O 0.67869 0.26986 0.57304 0.0
O677 O 0.65474 0.25193 0.62454 0.0
O678 O 0.65083 0.25259 0.53205 0.0
O679 O 0.6771 0.2335 0.57048 0.0
H680 H 0.70006 0.29089 0.58504 0.0
H681 H 0.66237 0.27779 0.50843 0.0
H682 H 0.70414 0.31401 0.54238 0.0
H683 H 0.66711 0.30105 0.46728 0.0
H684 H 0.62801 0.26166 0.73893 0.0
H685 H 0.67059 0.27644 0.64881 0.0
H686 H 0.63289 0.24619 0.67754 0.0
H687 H 0.66506 0.29132 0.71061 0.0
H688 H 0.64409 0.31965 0.62368 0.0
H689 H 0.60576 0.28832 0.60923 0.0
H690 H 0.72616 0.26354 0.6722 0.0
H691 H 0.69421 0.23714 0.74417 0.0
H692 H 0.65999 0.2242 0.51297 0.0
H693 H 0.6315 0.26235 0.4767 0.0
H694 H 0.65117 0.20972 0.45323 0.0
H695 H 0.62326 0.24719 0.41721 0.0
H696 H 0.70703 0.23129 0.55637 0.0
H697 H 0.67009 0.21535 0.63177 0.0
H698 H 0.72513 0.21513 0.59554 0.0
H699 H 0.6888 0.19925 0.66917 0.0
H700 H 0.72511 0.25871 0.47858 0.0
H701 H 0.69003 0.24912 0.39002 0.0
H702 H 0.60682 0.21738 0.63031 0.0
H703 H 0.6394 0.18266 0.59188 0.0
Li704 Li 0.32212 0.25047 0.60683 0.0
Li705 Li 0.34308 0.23541 0.57989 0.0
Li706 Li 0.34309 0.26307 0.57341 0.0
Li707 Li 0.32511 0.24788 0.53546 0.0
C708 C 0.34579 0.2603 0.6557 0.0
N709 N 0.35055 0.2798 0.72016 0.0
C710 C 0.35653 0.25649 0.68532 0.0
C711 C 0.3374 0.27401 0.65905 0.0
C712 C 0.35878 0.2665 0.71763 0.0
C713 C 0.33999 0.28371 0.6918 0.0
C714 C 0.31603 0.21921 0.59834 0.0
C715 C 0.2993 0.19751 0.61024 0.0
N716 N 0.30655 0.19486 0.64576 0.0
C717 C 0.32332 0.21626 0.63495 0.0
C718 C 0.30394 0.20976 0.58584 0.0
C719 C 0.31836 0.2039 0.65849 0.0
C720 C 0.29382 0.25864 0.64083 0.0
N721 N 0.30766 0.25208 0.64891 0.0
C722 C 0.30072 0.24832 0.71748 0.0
C723 C 0.31129 0.24697 0.68628 0.0
C724 C 0.28632 0.2551 0.71021 0.0
C725 C 0.28291 0.26031 0.67124 0.0
H726 H 0.29131 0.26263 0.61077 0.0
H727 H 0.3224 0.24185 0.69197 0.0
C728 C 0.36882 0.22297 0.61422 0.0
N729 N 0.35642 0.21867 0.59214 0.0
C730 C 0.37808 0.2119 0.6324 0.0
C731 C 0.3624 0.19203 0.60212 0.0
C732 C 0.35324 0.20356 0.58489 0.0
C733 C 0.37468 0.19623 0.62726 0.0
H734 H 0.37113 0.23507 0.61907 0.0
H735 H 0.34322 0.20045 0.56744 0.0
C736 C 0.31852 0.27892 0.53982 0.0
N737 N 0.31373 0.30272 0.48609 0.0
C738 C 0.32857 0.28106 0.50751 0.0
C739 C 0.30604 0.28889 0.54478 0.0
C740 C 0.32595 0.29315 0.48068 0.0
C741 C 0.30382 0.30086 0.51732 0.0
C742 C 0.35235 0.23772 0.50084 0.0
C743 C 0.36496 0.24112 0.4764 0.0
C744 C 0.34404 0.22414 0.49441 0.0
C745 C 0.36908 0.23086 0.44592 0.0
C746 C 0.34853 0.21417 0.46364 0.0
N747 N 0.36085 0.21771 0.44023 0.0
C748 C 0.37115 0.27569 0.59074 0.0
C749 C 0.35203 0.29496 0.5828 0.0
C750 C 0.38121 0.28633 0.60785 0.0
N751 N 0.35674 0.28004 0.57974 0.0
C752 C 0.36187 0.30608 0.599 0.0
C753 C 0.37643 0.30163 0.61305 0.0
H754 H 0.3744 0.26366 0.58903 0.0
H755 H 0.34032 0.29806 0.57554 0.0
C756 C 0.29784 0.24231 0.49655 0.0
N757 N 0.3126 0.24646 0.48867 0.0
C758 C 0.28691 0.24207 0.46596 0.0
C759 C 0.30655 0.25034 0.41935 0.0
C760 C 0.31719 0.25034 0.45097 0.0
C761 C 0.29114 0.24626 0.42676 0.0
H762 H 0.29448 0.23958 0.52699 0.0
H763 H 0.32897 0.25376 0.44561 0.0
O764 O 0.34377 0.25076 0.62334 0.0
O765 O 0.32064 0.23124 0.5746 0.0
O766 O 0.32067 0.26706 0.56631 0.0
O767 O 0.34824 0.24776 0.53066 0.0
H768 H 0.36308 0.24591 0.6834 0.0
H769 H 0.32904 0.2772 0.63652 0.0
H770 H 0.36708 0.26371 0.7407 0.0
H771 H 0.33363 0.29437 0.69463 0.0
H772 H 0.28995 0.19011 0.60092 0.0
H773 H 0.33275 0.22337 0.64509 0.0
H774 H 0.29819 0.21187 0.55753 0.0
H775 H 0.32392 0.20148 0.68686 0.0
H776 H 0.30375 0.24391 0.74684 0.0
H777 H 0.27202 0.26577 0.66441 0.0
H778 H 0.38761 0.21556 0.65106 0.0
H779 H 0.35947 0.18003 0.59753 0.0
H780 H 0.33832 0.27352 0.50315 0.0
H781 H 0.29815 0.28739 0.56961 0.0
H782 H 0.33363 0.29493 0.45556 0.0
H783 H 0.2942 0.30866 0.5208 0.0
H784 H 0.37149 0.2516 0.48096 0.0
H785 H 0.33422 0.22128 0.51278 0.0
H786 H 0.37883 0.23335 0.42679 0.0
H787 H 0.34221 0.20363 0.45834 0.0
H788 H 0.39237 0.28253 0.61838 0.0
H789 H 0.35777 0.31777 0.60307 0.0
H790 H 0.27513 0.23912 0.47327 0.0
H791 H 0.31033 0.25357 0.38953 0.0
Li792 Li 0.15817 0.76724 0.07718 0.0
Li793 Li 0.17945 0.75303 0.1039 0.0
Li794 Li 0.17437 0.75327 0.032 0.0
Li795 Li 0.15669 0.73881 0.07802 0.0
C796 C 0.18283 0.78605 0.0647 0.0
N797 N 0.1874 0.81752 0.06044 0.0
C798 C 0.1924 0.7934 0.09248 0.0
C799 C 0.17561 0.7947 0.03473 0.0
C800 C 0.19456 0.80932 0.08982 0.0
C801 C 0.17806 0.8106 0.03309 0.0
C802 C 0.15289 0.76142 0.15549 0.0
C803 C 0.13202 0.76858 0.19943 0.0
N804 N 0.14119 0.77936 0.2169 0.0
C805 C 0.16211 0.77257 0.17394 0.0
C806 C 0.13773 0.75937 0.16842 0.0
C807 C 0.15599 0.7815 0.20495 0.0
C808 C 0.12956 0.78189 0.08397 0.0
N809 N 0.14488 0.78442 0.08896 0.0
C810 C 0.13974 0.80745 0.12603 0.0
C811 C 0.15007 0.79705 0.10899 0.0
C812 C 0.12386 0.80467 0.12351 0.0
C813 C 0.11879 0.79191 0.10108 0.0
H814 H 0.12571 0.77151 0.06907 0.0
H815 H 0.16216 0.79857 0.11457 0.0
C816 C 0.20953 0.75625 0.13481 0.0
N817 N 0.19491 0.75193 0.14358 0.0
C818 C 0.22099 0.75523 0.16401 0.0
C819 C 0.20203 0.74532 0.2105 0.0
C820 C 0.19102 0.74637 0.18031 0.0
C821 C 0.21727 0.7498 0.20259 0.0
H822 H 0.21229 0.7604 0.10503 0.0
H823 H 0.17931 0.7428 0.18615 0.0
C824 C 0.14839 0.74988 0.99434 0.0
N825 N 0.14408 0.74275 0.91434 0.0
C826 C 0.14603 0.73459 0.98265 0.0
C827 C 0.14847 0.76155 0.96544 0.0
C828 C 0.14389 0.73122 0.94203 0.0
C829 C 0.14631 0.75771 0.92511 0.0
C830 C 0.19174 0.72741 0.07761 0.0
C831 C 0.20559 0.72999 0.0574 0.0
C832 C 0.19148 0.71765 0.11102 0.0
C833 C 0.21897 0.72271 0.07088 0.0
C834 C 0.20511 0.71061 0.12362 0.0
N835 N 0.21845 0.71326 0.10344 0.0
C836 C 0.19291 0.76522 0.96965 0.0
C837 C 0.18623 0.73895 0.9613 0.0
C838 C 0.20284 0.76453 0.93683 0.0
N839 N 0.18497 0.75252 0.98153 0.0
C840 C 0.19612 0.73772 0.92827 0.0
C841 C 0.2048 0.75058 0.91606 0.0
H842 H 0.19214 0.77573 0.9867 0.0
H843 H 0.18006 0.72891 0.97188 0.0
C844 C 0.12871 0.72513 0.09761 0.0
N845 N 0.14361 0.72184 0.08885 0.0
C846 C 0.11917 0.71383 0.11399 0.0
C847 C 0.14019 0.69567 0.10946 0.0
C848 C 0.14935 0.70736 0.0932 0.0
C849 C 0.12503 0.69899 0.12133 0.0
H850 H 0.12446 0.73674 0.09351 0.0
H851 H 0.16122 0.70504 0.08571 0.0
O852 O 0.18063 0.77047 0.06684 0.0
O853 O 0.15855 0.75286 0.12427 0.0
O854 O 0.1509 0.75336 0.0338 0.0
O855 O 0.17861 0.73478 0.06556 0.0
H856 H 0.19801 0.7869 0.116 0.0
H857 H 0.16811 0.7892 0.01315 0.0
H858 H 0.2019 0.81517 0.11116 0.0
H859 H 0.17251 0.81745 0.01013 0.0
H860 H 0.12028 0.76717 0.20955 0.0
H861 H 0.17377 0.77455 0.16384 0.0
H862 H 0.1304 0.75086 0.15448 0.0
H863 H 0.16297 0.79024 0.21926 0.0
H864 H 0.14423 0.81722 0.1425 0.0
H865 H 0.10668 0.78915 0.09874 0.0
H866 H 0.23263 0.75853 0.1563 0.0
H867 H 0.19856 0.74127 0.23987 0.0
H868 H 0.14602 0.72542 0.00466 0.0
H869 H 0.15027 0.77344 0.97405 0.0
H870 H 0.14212 0.71944 0.93249 0.0
H871 H 0.14641 0.76661 0.90238 0.0
H872 H 0.20608 0.73768 0.03189 0.0
H873 H 0.18094 0.7158 0.12761 0.0
H874 H 0.22977 0.72464 0.05559 0.0
H875 H 0.20509 0.70313 0.14959 0.0
H876 H 0.20949 0.77466 0.92912 0.0
H877 H 0.19719 0.72675 0.91302 0.0
H878 H 0.10745 0.7168 0.12187 0.0
H879 H 0.1452 0.68442 0.11461 0.0
Li880 Li 0.17181 0.25135 0.11326 0.0
Li881 Li 0.15272 0.26462 0.07005 0.0
Li882 Li 0.15409 0.23589 0.06899 0.0
Li883 Li 0.17461 0.25154 0.04068 0.0
C884 C 0.14409 0.24139 0.14818 0.0
N885 N 0.13516 0.22389 0.21347 0.0
C886 C 0.13374 0.24738 0.17621 0.0
C887 C 0.14988 0.22647 0.15329 0.0
C888 C 0.12938 0.23836 0.20906 0.0
C889 C 0.14522 0.21781 0.18649 0.0
C890 C 0.17817 0.28433 0.07137 0.0
C891 C 0.18111 0.30611 0.02704 0.0
N892 N 0.18465 0.31515 0.0591 0.0
C893 C 0.18191 0.2938 0.10387 0.0
C894 C 0.17783 0.2905 0.03262 0.0
C895 C 0.18513 0.30936 0.09704 0.0
C896 C 0.19874 0.25797 0.15271 0.0
N897 N 0.18443 0.25238 0.16033 0.0
C898 C 0.19136 0.24733 0.22863 0.0
C899 C 0.18048 0.24735 0.19762 0.0
C900 C 0.20641 0.25259 0.22119 0.0
C901 C 0.20994 0.25816 0.18268 0.0
H902 H 0.20159 0.2619 0.12279 0.0
H903 H 0.16902 0.24312 0.20338 0.0
C904 C 0.12587 0.27589 0.03888 0.0
N905 N 0.13827 0.28077 0.0602 0.0
C906 C 0.11565 0.28648 0.02231 0.0
C907 C 0.13036 0.30702 0.05267 0.0
C908 C 0.14044 0.29597 0.06841 0.0
C909 C 0.11798 0.30235 0.02825 0.0
H910 H 0.12439 0.26374 0.03287 0.0
H911 H 0.15021 0.29961 0.08599 0.0
C912 C 0.18797 0.22537 0.05891 0.0
N913 N 0.2113 0.20998 0.01931 0.0
C914 C 0.18452 0.21523 0.02759 0.0
C915 C 0.20329 0.22764 0.07019 0.0
C916 C 0.19647 0.20756 0.00794 0.0
C917 C 0.21492 0.21977 0.04975 0.0
C918 C 0.15026 0.25096 0.98418 0.0
C919 C 0.14749 0.23737 0.96277 0.0
C920 C 0.14973 0.26512 0.96423 0.0
C921 C 0.14443 0.23818 0.92166 0.0
C922 C 0.14662 0.26545 0.9231 0.0
N923 N 0.14406 0.25209 0.90284 0.0
C924 C 0.12752 0.22217 0.0429 0.0
C925 C 0.14642 0.20367 0.0607 0.0
C926 C 0.11845 0.21081 0.02521 0.0
N927 N 0.14143 0.21852 0.05879 0.0
C928 C 0.1376 0.19186 0.04369 0.0
C929 C 0.1237 0.19552 0.02436 0.0
H930 H 0.12393 0.23409 0.04166 0.0
H931 H 0.15758 0.20111 0.0734 0.0
C932 C 0.20196 0.26188 0.00397 0.0
N933 N 0.1895 0.25261 0.99887 0.0
C934 C 0.21288 0.26331 0.97349 0.0
C935 C 0.19832 0.24508 0.93395 0.0
C936 C 0.18767 0.24408 0.96503 0.0
C937 C 0.21103 0.25495 0.93771 0.0
H938 H 0.20337 0.26823 0.03163 0.0
H939 H 0.17809 0.23629 0.9623 0.0
O940 O 0.14827 0.25004 0.11563 0.0
O941 O 0.17498 0.26909 0.07759 0.0
O942 O 0.17644 0.23323 0.07797 0.0
O943 O 0.15303 0.25039 0.02463 0.0
H944 H 0.12911 0.25888 0.17258 0.0
H945 H 0.15797 0.22165 0.13213 0.0
H946 H 0.12139 0.24286 0.23102 0.0
H947 H 0.14963 0.20627 0.19087 0.0
H948 H 0.18086 0.31104 0.99721 0.0
H949 H 0.18225 0.28918 0.13405 0.0
H950 H 0.17517 0.28329 0.00711 0.0
H951 H 0.18799 0.31685 0.12191 0.0
H952 H 0.18804 0.24317 0.25802 0.0
H953 H 0.22139 0.26215 0.17527 0.0
H954 H 0.10646 0.28222 0.00339 0.0
H955 H 0.13244 0.31909 0.05887 0.0
H956 H 0.17277 0.21357 0.0179 0.0
H957 H 0.20619 0.23543 0.09431 0.0
H958 H 0.19396 0.19977 0.98344 0.0
H959 H 0.22683 0.22146 0.05808 0.0
H960 H 0.14796 0.22628 0.97755 0.0
H961 H 0.15154 0.27578 0.98034 0.0
H962 H 0.14237 0.22775 0.90471 0.0
H963 H 0.14617 0.27634 0.90732 0.0
H964 H 0.10769 0.21403 0.01112 0.0
H965 H 0.14199 0.18018 0.04362 0.0
H966 H 0.22251 0.27105 0.97769 0.0
H967 H 0.19669 0.23804 0.90744 0.0
Li968 Li 0.34735 0.73297 0.57234 0.0
Li969 Li 0.32696 0.74761 0.60938 0.0
Li970 Li 0.32713 0.74676 0.53737 0.0
Li971 Li 0.34677 0.76161 0.57208 0.0
C972 C 0.31357 0.72081 0.55651 0.0
N973 N 0.29031 0.70529 0.51702 0.0
C974 C 0.29861 0.72098 0.57182 0.0
C975 C 0.31674 0.7126 0.52136 0.0
C976 C 0.287 0.71309 0.55138 0.0
C977 C 0.30481 0.70488 0.50175 0.0
C978 C 0.35294 0.75632 0.65277 0.0
C979 C 0.34847 0.77908 0.69267 0.0
N980 N 0.35872 0.77385 0.72034 0.0
C981 C 0.36344 0.75118 0.68157 0.0
C982 C 0.34538 0.77039 0.65831 0.0
C983 C 0.36621 0.76021 0.71553 0.0
C984 C 0.37597 0.71991 0.56063 0.0
N985 N 0.36101 0.71612 0.56684 0.0
C986 C 0.36528 0.6907 0.54171 0.0
C987 C 0.35565 0.70168 0.55941 0.0
C988 C 0.38046 0.69473 0.53162 0.0
C989 C 0.38598 0.70931 0.54309 0.0
H990 H 0.37978 0.73159 0.56615 0.0
H991 H 0.34362 0.69909 0.56405 0.0
C992 C 0.29936 0.75505 0.64519 0.0
N993 N 0.31305 0.7482 0.65346 0.0
C994 C 0.28779 0.75561 0.67411 0.0
C995 C 0.30461 0.74211 0.71997 0.0
C996 C 0.31592 0.74181 0.68998 0.0
C997 C 0.29028 0.74906 0.71214 0.0
H998 H 0.2973 0.75978 0.61564 0.0
H999 H 0.3269 0.73637 0.69567 0.0
C1000 C 0.35637 0.74551 0.49115 0.0
N1001 N 0.37142 0.74196 0.41857 0.0
C1002 C 0.36189 0.7584 0.47042 0.0
C1003 C 0.35838 0.73083 0.47461 0.0
C1004 C 0.36948 0.75636 0.43385 0.0
C1005 C 0.36606 0.72927 0.43801 0.0
C1006 C 0.32015 0.77803 0.55098 0.0
C1007 C 0.32572 0.78035 0.51208 0.0
C1008 C 0.31054 0.78906 0.56842 0.0
C1009 C 0.32161 0.79371 0.49129 0.0
C1010 C 0.3067 0.80229 0.54666 0.0
N1011 N 0.31227 0.80431 0.50887 0.0
C1012 C 0.29856 0.74929 0.50005 0.0
C1013 C 0.31874 0.74407 0.45415 0.0
C1014 C 0.28782 0.74928 0.46899 0.0
N1015 N 0.31367 0.74659 0.49219 0.0
C1016 C 0.30844 0.7442 0.42213 0.0
C1017 C 0.29278 0.74677 0.42946 0.0
H1018 H 0.29489 0.75141 0.53058 0.0
H1019 H 0.33073 0.74198 0.44839 0.0
C1020 C 0.37506 0.77433 0.55607 0.0
N1021 N 0.36051 0.77857 0.56602 0.0
C1022 C 0.38519 0.78505 0.53954 0.0
C1023 C 0.36571 0.80468 0.54761 0.0
C1024 C 0.35592 0.79354 0.56403 0.0
C1025 C 0.38029 0.8003 0.53338 0.0
H1026 H 0.37837 0.76233 0.55799 0.0
H1027 H 0.34438 0.79671 0.5727 0.0
O1028 O 0.32501 0.72879 0.57557 0.0
O1029 O 0.35008 0.74752 0.61952 0.0
O1030 O 0.3492 0.74726 0.52755 0.0
O1031 O 0.32399 0.76504 0.57203 0.0
H1032 H 0.29596 0.72721 0.59908 0.0
H1033 H 0.32823 0.71243 0.50895 0.0
H1034 H 0.27535 0.71319 0.56277 0.0
H1035 H 0.30708 0.69861 0.47431 0.0
H1036 H 0.3427 0.78998 0.69735 0.0
H1037 H 0.36937 0.7403 0.67771 0.0
H1038 H 0.33722 0.77458 0.63644 0.0
H1039 H 0.3743 0.75636 0.73808 0.0
H1040 H 0.36053 0.67963 0.53322 0.0
H1041 H 0.39767 0.7128 0.53651 0.0
H1042 H 0.27687 0.76081 0.66635 0.0
H1043 H 0.30708 0.73703 0.74895 0.0
H1044 H 0.36032 0.76989 0.48228 0.0
H1045 H 0.35395 0.72073 0.48955 0.0
H1046 H 0.37384 0.76625 0.41763 0.0
H1047 H 0.36773 0.71796 0.42502 0.0
H1048 H 0.33312 0.77194 0.49808 0.0
H1049 H 0.30615 0.78746 0.59855 0.0
H1050 H 0.32586 0.79564 0.46118 0.0
H1051 H 0.29929 0.81094 0.55983 0.0
H1052 H 0.27582 0.75146 0.47568 0.0
H1053 H 0.31265 0.74211 0.392 0.0
H1054 H 0.39645 0.78125 0.52979 0.0
H1055 H 0.36149 0.81633 0.54358 0.0
Li1056 Li 0.51605 0.09384 0.81902 0.0
Li1057 Li 0.48616 0.09515 0.81959 0.0
Li1058 Li 0.50085 0.07707 0.86198 0.0
Li1059 Li 0.49966 0.07274 0.79357 0.0
C1060 C 0.50345 0.10238 0.90304 0.0
N1061 N 0.50712 0.10523 0.98501 0.0
C1062 C 0.49063 0.10187 0.92831 0.0
C1063 C 0.51812 0.10443 0.91932 0.0
C1064 C 0.49274 0.1033 0.96972 0.0
C1065 C 0.51973 0.10584 0.96088 0.0
C1066 C 0.50134 0.09297 0.73358 0.0
C1067 C 0.48884 0.09347 0.66893 0.0
N1068 N 0.50236 0.0895 0.65116 0.0
C1069 C 0.5151 0.08892 0.71467 0.0
C1070 C 0.48808 0.09527 0.71055 0.0
C1071 C 0.51538 0.0872 0.67298 0.0
C1072 C 0.54575 0.10035 0.78782 0.0
N1073 N 0.53316 0.10641 0.80618 0.0
C1074 C 0.54163 0.13199 0.79173 0.0
C1075 C 0.53109 0.12188 0.80924 0.0
C1076 C 0.55433 0.12609 0.77059 0.0
C1077 C 0.55659 0.11005 0.76988 0.0
H1078 H 0.54687 0.08798 0.78494 0.0
H1079 H 0.52081 0.12634 0.82339 0.0
C1080 C 0.45499 0.10657 0.81993 0.0
N1081 N 0.46984 0.10903 0.80882 0.0
C1082 C 0.44322 0.11568 0.80369 0.0
C1083 C 0.46243 0.12997 0.76661 0.0
C1084 C 0.47377 0.12079 0.78393 0.0
C1085 C 0.44693 0.12718 0.77559 0.0
H1086 H 0.45221 0.09711 0.83982 0.0
H1087 H 0.48569 0.12247 0.77574 0.0
C1088 C 0.52854 0.06296 0.84791 0.0
N1089 N 0.54908 0.04553 0.89204 0.0
C1090 C 0.52603 0.04718 0.85324 0.0
C1091 C 0.5416 0.06985 0.86459 0.0
C1092 C 0.53651 0.03858 0.87582 0.0
C1093 C 0.55183 0.06084 0.88688 0.0
C1094 C 0.47319 0.06116 0.81818 0.0
C1095 C 0.47828 0.04611 0.82501 0.0
C1096 C 0.45923 0.06362 0.79833 0.0
C1097 C 0.46942 0.03374 0.81138 0.0
C1098 C 0.4507 0.05094 0.7852 0.0
N1099 N 0.45593 0.03639 0.7919 0.0
C1100 C 0.48703 0.05878 0.9218 0.0
C1101 C 0.51297 0.06469 0.93663 0.0
C1102 C 0.48648 0.04821 0.95337 0.0
N1103 N 0.50034 0.06626 0.91284 0.0
C1104 C 0.51301 0.05408 0.96822 0.0
C1105 C 0.49978 0.04524 0.9761 0.0
H1106 H 0.47693 0.06059 0.90354 0.0
H1107 H 0.52327 0.07114 0.9301 0.0
C1108 C 0.51143 0.04887 0.74561 0.0
N1109 N 0.49896 0.05806 0.75126 0.0
C1110 C 0.51181 0.03851 0.71365 0.0
C1111 C 0.48653 0.04731 0.69386 0.0
C1112 C 0.48667 0.05752 0.72611 0.0
C1113 C 0.49925 0.03767 0.68722 0.0
H1114 H 0.52121 0.04981 0.76544 0.0
H1115 H 0.47706 0.06521 0.73063 0.0
O1116 O 0.50169 0.10063 0.86257 0.0
O1117 O 0.50077 0.09434 0.77448 0.0
O1118 O 0.51849 0.07156 0.82565 0.0
O1119 O 0.48174 0.07342 0.83124 0.0
H1120 H 0.47922 0.10023 0.91604 0.0
H1121 H 0.52814 0.10479 0.90005 0.0
H1122 H 0.48294 0.10284 0.98971 0.0
H1123 H 0.53102 0.10736 0.97396 0.0
H1124 H 0.47866 0.09513 0.65077 0.0
H1125 H 0.52539 0.08684 0.73204 0.0
H1126 H 0.47725 0.09812 0.72467 0.0
H1127 H 0.52594 0.08397 0.65799 0.0
H1128 H 0.53955 0.14428 0.79349 0.0
H1129 H 0.56611 0.105 0.75354 0.0
H1130 H 0.43136 0.11325 0.81133 0.0
H1131 H 0.46572 0.13888 0.74551 0.0
H1132 H 0.51611 0.04162 0.84012 0.0
H1133 H 0.5437 0.08205 0.8609 0.0
H1134 H 0.53466 0.02638 0.8804 0.0
H1135 H 0.56192 0.06603 0.90021 0.0
H1136 H 0.48899 0.04401 0.84055 0.0
H1137 H 0.45515 0.07517 0.79254 0.0
H1138 H 0.47328 0.02203 0.8163 0.0
H1139 H 0.43993 0.05267 0.76954 0.0
H1140 H 0.47582 0.04217 0.95918 0.0
H1141 H 0.52354 0.05233 0.98491 0.0
H1142 H 0.52197 0.0315 0.70919 0.0
H1143 H 0.47655 0.04696 0.67443 0.0
Li1144 Li 0.00048 0.92605 0.2872 0.0
Li1145 Li 0.99894 0.92527 0.36034 0.0
Li1146 Li 0.01217 0.90412 0.32056 0.0
Li1147 Li 0.98411 0.90605 0.32165 0.0
C1148 C 0.02823 0.93687 0.31196 0.0
N1149 N 0.04891 0.95836 0.28275 0.0
C1150 C 0.03212 0.94978 0.33493 0.0
C1151 C 0.03517 0.93474 0.27453 0.0
C1152 C 0.04251 0.96056 0.31956 0.0
C1153 C 0.0455 0.94577 0.26015 0.0
C1154 C 0.97059 0.93788 0.33597 0.0
C1155 C 0.94783 0.9412 0.37647 0.0
N1156 N 0.94728 0.95631 0.36567 0.0
C1157 C 0.96964 0.95337 0.32472 0.0
C1158 C 0.95947 0.93168 0.3616 0.0
C1159 C 0.95784 0.96253 0.34028 0.0
C1160 C 0.99817 0.93383 0.20583 0.0
N1161 N 0.00106 0.93959 0.24298 0.0
C1162 C 0.00347 0.96505 0.21667 0.0
C1163 C 0.00364 0.95486 0.24903 0.0
C1164 C 0.00057 0.95942 0.17788 0.0
C1165 C 0.99796 0.94358 0.17261 0.0
H1166 H 0.99578 0.92169 0.20209 0.0
H1167 H 0.00571 0.95912 0.27905 0.0
C1168 C 0.99976 0.93533 0.44388 0.0
N1169 N 0.999 0.93936 0.40446 0.0
C1170 C 0.99976 0.94674 0.47367 0.0
C1171 C 0.99846 0.96611 0.42164 0.0
C1172 C 0.99838 0.95439 0.39309 0.0
C1173 C 0.9992 0.96239 0.46258 0.0
H1174 H 0.00048 0.9233 0.45222 0.0
H1175 H 0.99811 0.95729 0.36155 0.0
C1176 C 0.00258 0.89274 0.2485 0.0
N1177 N 0.01274 0.86958 0.1979 0.0
C1178 C 0.99525 0.87839 0.2482 0.0
C1179 C 0.01491 0.89535 0.22243 0.0
C1180 C 0.00058 0.86683 0.22254 0.0
C1181 C 0.01994 0.88349 0.1973 0.0
C1182 C 0.99086 0.8934 0.39655 0.0
C1183 C 0.9948 0.87789 0.40131 0.0
C1184 C 0.97955 0.89989 0.42111 0.0
C1185 C 0.98708 0.86902 0.42996 0.0
C1186 C 0.9721 0.89065 0.44943 0.0
N1187 N 0.97597 0.87553 0.45319 0.0
C1188 C 0.04309 0.89499 0.30729 0.0
C1189 C 0.025 0.87459 0.31025 0.0
C1190 C 0.05433 0.88501 0.29233 0.0
N1191 N 0.02862 0.88974 0.31458 0.0
C1192 C 0.0358 0.86426 0.29487 0.0
C1193 C 0.05053 0.86957 0.2845 0.0
H1194 H 0.04568 0.90709 0.31088 0.0
H1195 H 0.01339 0.87074 0.31595 0.0
C1196 C 0.95476 0.90207 0.29099 0.0
N1197 N 0.96544 0.89493 0.31424 0.0
C1198 C 0.94224 0.89387 0.27588 0.0
C1199 C 0.95164 0.87117 0.31002 0.0
C1200 C 0.96389 0.87988 0.32491 0.0
C1201 C 0.94087 0.87803 0.28399 0.0
H1202 H 0.95642 0.91397 0.28231 0.0
H1203 H 0.97278 0.87429 0.34219 0.0
O1204 O 0.01793 0.92627 0.32642 0.0
O1205 O 0.9821 0.92875 0.32106 0.0
O1206 O 0.99772 0.9041 0.27416 0.0
O1207 O 0.99829 0.90224 0.36859 0.0
H1208 H 0.02734 0.9514 0.36455 0.0
H1209 H 0.03256 0.92473 0.25666 0.0
H1210 H 0.04555 0.97063 0.33699 0.0
H1211 H 0.05082 0.9443 0.23104 0.0
H1212 H 0.93918 0.93655 0.39645 0.0
H1213 H 0.97799 0.95832 0.3044 0.0
H1214 H 0.95968 0.91961 0.36953 0.0
H1215 H 0.95707 0.97457 0.33212 0.0
H1216 H 0.00564 0.97718 0.22191 0.0
H1217 H 0.99543 0.93884 0.14327 0.0
H1218 H 0.00049 0.94339 0.50493 0.0
H1219 H 0.99786 0.97798 0.41169 0.0
H1220 H 0.98567 0.87611 0.26788 0.0
H1221 H 0.02057 0.9064 0.22153 0.0
H1222 H 0.99508 0.85564 0.22234 0.0
H1223 H 0.02956 0.88534 0.17728 0.0
H1224 H 0.00368 0.87273 0.38303 0.0
H1225 H 0.97666 0.91196 0.41865 0.0
H1226 H 0.98994 0.85697 0.43377 0.0
H1227 H 0.96329 0.89552 0.46853 0.0
H1228 H 0.06554 0.88956 0.2846 0.0
H1229 H 0.03249 0.85239 0.28965 0.0
H1230 H 0.9341 0.89974 0.25662 0.0
H1231 H 0.95125 0.85896 0.31666 0.0
Li1232 Li 0.49756 0.92348 0.28327 0.0
Li1233 Li 0.49576 0.9261 0.35655 0.0
Li1234 Li 0.51058 0.90435 0.32761 0.0
Li1235 Li 0.48274 0.9051 0.32561 0.0
C1236 C 0.52819 0.93337 0.32766 0.0
N1237 N 0.55664 0.94694 0.33908 0.0
C1238 C 0.53336 0.93677 0.36641 0.0
C1239 C 0.53745 0.93706 0.29469 0.0
C1240 C 0.54779 0.94356 0.37157 0.0
C1241 C 0.5518 0.94387 0.30109 0.0
C1242 C 0.47075 0.93991 0.32951 0.0
C1243 C 0.45573 0.95274 0.38046 0.0
N1244 N 0.4553 0.96564 0.3573 0.0
C1245 C 0.46998 0.95324 0.30601 0.0
C1246 C 0.4634 0.93959 0.36683 0.0
C1247 C 0.46217 0.96614 0.32065 0.0
C1248 C 0.49571 0.93198 0.19884 0.0
N1249 N 0.49941 0.9362 0.23694 0.0
C1250 C 0.50529 0.9618 0.2154 0.0
C1251 C 0.50427 0.95071 0.2455 0.0
C1252 C 0.50139 0.95797 0.17571 0.0
C1253 C 0.49667 0.94274 0.16753 0.0
H1254 H 0.49183 0.92036 0.19283 0.0
H1255 H 0.50691 0.9538 0.27619 0.0
C1256 C 0.49527 0.93599 0.43668 0.0
N1257 N 0.49623 0.94086 0.39804 0.0
C1258 C 0.49601 0.94658 0.46799 0.0
C1259 C 0.49895 0.967 0.41907 0.0
C1260 C 0.49813 0.95598 0.38867 0.0
C1261 C 0.49792 0.96231 0.45937 0.0
H1262 H 0.49409 0.92386 0.4432 0.0
H1263 H 0.49913 0.95943 0.35757 0.0
C1264 C 0.50533 0.89551 0.24696 0.0
N1265 N 0.52182 0.88664 0.17995 0.0
C1266 C 0.49876 0.88553 0.21884 0.0
C1267 C 0.52028 0.90095 0.24105 0.0
C1268 C 0.50729 0.88118 0.18514 0.0
C1269 C 0.52843 0.89634 0.20698 0.0
C1270 C 0.49008 0.89329 0.39716 0.0
C1271 C 0.49617 0.87837 0.39658 0.0
C1272 C 0.47734 0.89648 0.42141 0.0
C1273 C 0.48932 0.86688 0.41992 0.0
C1274 C 0.47078 0.88467 0.4442 0.0
N1275 N 0.47686 0.87023 0.44298 0.0
C1276 C 0.53652 0.89605 0.37072 0.0
C1277 C 0.53038 0.87784 0.32018 0.0
C1278 C 0.54798 0.88646 0.38587 0.0
N1279 N 0.52799 0.89165 0.33853 0.0
C1280 C 0.54162 0.86773 0.33479 0.0
C1281 C 0.55043 0.87196 0.36842 0.0
H1282 H 0.53382 0.90662 0.38615 0.0
H1283 H 0.52306 0.8743 0.29563 0.0
C1284 C 0.45179 0.89815 0.34495 0.0
N1285 N 0.46525 0.89207 0.33155 0.0
C1286 C 0.44049 0.88856 0.36119 0.0
C1287 C 0.4566 0.86657 0.34637 0.0
C1288 C 0.46756 0.87659 0.33029 0.0
C1289 C 0.44312 0.87259 0.36365 0.0
H1290 H 0.45022 0.91048 0.34551 0.0
H1291 H 0.47848 0.87211 0.31994 0.0
O1292 O 0.51397 0.92694 0.3219 0.0
O1293 O 0.47855 0.92722 0.31588 0.0
O1294 O 0.49702 0.89998 0.27981 0.0
O1295 O 0.49645 0.90463 0.37382 0.0
H1296 H 0.52638 0.93406 0.39233 0.0
H1297 H 0.53358 0.93478 0.2644 0.0
H1298 H 0.55195 0.94616 0.40142 0.0
H1299 H 0.55908 0.94674 0.27584 0.0
H1300 H 0.45016 0.9527 0.4095 0.0
H1301 H 0.47523 0.9536 0.27665 0.0
H1302 H 0.46385 0.92941 0.38544 0.0
H1303 H 0.46155 0.97655 0.30282 0.0
H1304 H 0.50864 0.9734 0.22356 0.0
H1305 H 0.4937 0.93919 0.13736 0.0
H1306 H 0.49501 0.94249 0.4986 0.0
H1307 H 0.50066 0.97898 0.41116 0.0
H1308 H 0.48718 0.88123 0.223 0.0
H1309 H 0.52557 0.9085 0.26272 0.0
H1310 H 0.50235 0.87348 0.1631 0.0
H1311 H 0.54003 0.90045 0.20208 0.0
H1312 H 0.50596 0.87561 0.37799 0.0
H1313 H 0.4724 0.90791 0.42222 0.0
H1314 H 0.49388 0.85528 0.41953 0.0
H1315 H 0.46082 0.88696 0.46272 0.0
H1316 H 0.55423 0.88998 0.41245 0.0
H1317 H 0.54312 0.85658 0.3207 0.0
H1318 H 0.43012 0.89366 0.37335 0.0
H1319 H 0.4592 0.85438 0.34785 0.0
Li1320 Li 0.01374 0.09431 0.82738 0.0
Li1321 Li 0.98495 0.093 0.82978 0.0
Li1322 Li 0.00043 0.07076 0.84679 0.0
Li1323 Li 0.99872 0.07839 0.77847 0.0
C1324 C 4e-05 0.08724 0.91307 0.0
N1325 N 0.00011 0.07834 0.99272 0.0
C1326 C 0.9862 0.08598 0.93416 0.0
C1327 C 0.01393 0.08411 0.93259 0.0
C1328 C 0.98647 0.08143 0.97439 0.0
C1329 C 0.01372 0.07959 0.97283 0.0
C1330 C 0.98971 0.10777 0.75554 0.0
C1331 C 0.96612 0.10896 0.71759 0.0
N1332 N 0.9722 0.12041 0.69465 0.0
C1333 C 0.99573 0.11955 0.73164 0.0
C1334 C 0.97478 0.10243 0.74854 0.0
C1335 C 0.98669 0.12579 0.70099 0.0
C1336 C 0.04397 0.10844 0.821 0.0
N1337 N 0.03024 0.10778 0.84059 0.0
C1338 C 0.03936 0.12488 0.89138 0.0
C1339 C 0.02766 0.1161 0.87446 0.0
C1340 C 0.05383 0.12533 0.87294 0.0
C1341 C 0.05603 0.11731 0.83671 0.0
H1342 H 0.04572 0.10165 0.79413 0.0
H1343 H 0.01658 0.11558 0.88908 0.0
C1344 C 0.95456 0.0989 0.85828 0.0
N1345 N 0.96807 0.10524 0.84611 0.0
C1346 C 0.94359 0.10798 0.87793 0.0
C1347 C 0.96045 0.12996 0.87037 0.0
C1348 C 0.97105 0.12048 0.85097 0.0
C1349 C 0.9467 0.12364 0.88524 0.0
H1350 H 0.95268 0.08665 0.85476 0.0
H1351 H 0.98202 0.12511 0.84141 0.0
C1352 C 0.03057 0.06432 0.81473 0.0
N1353 N 0.05668 0.0467 0.82682 0.0
C1354 C 0.0326 0.0505 0.79375 0.0
C1355 C 0.04192 0.06921 0.84163 0.0
C1356 C 0.04585 0.04174 0.80037 0.0
C1357 C 0.05501 0.06013 0.84738 0.0
C1358 C 0.97644 0.05713 0.80264 0.0
C1359 C 0.987 0.04526 0.79609 0.0
C1360 C 0.96075 0.05437 0.79722 0.0
C1361 C 0.98169 0.0308 0.78394 0.0
C1362 C 0.95588 0.03974 0.78508 0.0
N1363 N 0.96637 0.02837 0.77871 0.0
C1364 C 0.98667 0.05002 0.89971 0.0
C1365 C 0.01369 0.04676 0.89609 0.0
C1366 C 0.98562 0.03877 0.92948 0.0
N1367 N 0.00057 0.05388 0.88386 0.0
C1368 C 0.01317 0.03537 0.92551 0.0
C1369 C 0.99903 0.03138 0.94286 0.0
H1370 H 0.97642 0.05601 0.88995 0.0
H1371 H 0.02464 0.05014 0.88417 0.0
C1372 C 0.01178 0.06565 0.70865 0.0
N1373 N 0.9982 0.06987 0.72561 0.0
C1374 C 0.01197 0.05573 0.67562 0.0
C1375 C 0.98418 0.0556 0.67637 0.0
C1376 C 0.98453 0.06559 0.70922 0.0
C1377 C 0.99804 0.0501 0.66006 0.0
H1378 H 0.02249 0.06919 0.72235 0.0
H1379 H 0.97387 0.06912 0.72317 0.0
O1380 O -3e-05 0.0912 0.87332 0.0
O1381 O 0.99847 0.10153 0.78554 0.0
O1382 O 0.0178 0.07321 0.80803 0.0
O1383 O 0.98137 0.07148 0.81381 0.0
H1384 H 0.97535 0.08828 0.9195 0.0
H1385 H 0.02474 0.08502 0.91672 0.0
H1386 H 0.97584 0.0803 0.99099 0.0
H1387 H 0.02437 0.07703 0.98823 0.0
H1388 H 0.95456 0.10492 0.7118 0.0
H1389 H 0.00727 0.12381 0.73671 0.0
H1390 H 0.96992 0.09333 0.76672 0.0
H1391 H 0.9912 0.13491 0.68222 0.0
H1392 H 0.03714 0.13116 0.91889 0.0
H1393 H 0.06706 0.11746 0.82164 0.0
H1394 H 0.9332 0.10262 0.8892 0.0
H1395 H 0.96321 0.14201 0.87477 0.0
H1396 H 0.02408 0.04654 0.77247 0.0
H1397 H 0.04054 0.07972 0.85852 0.0
H1398 H 0.04753 0.03102 0.7844 0.0
H1399 H 0.06381 0.06375 0.8683 0.0
H1400 H 0.99915 0.0472 0.80029 0.0
H1401 H 0.95243 0.06347 0.80208 0.0
H1402 H 0.98976 0.02152 0.77864 0.0
H1403 H 0.94377 0.03745 0.78064 0.0
H1404 H 0.97449 0.03597 0.94208 0.0
H1405 H 0.0238 0.03013 0.93556 0.0
H1406 H 0.02293 0.05175 0.66411 0.0
H1407 H 0.97318 0.05176 0.66484 0.0
H1408 H 0.12262 0.6678 0.10755 0.0
H1409 H 0.06371 0.65391 0.28913 0.0
H1410 H 0.10648 0.70378 0.1865 0.0
H1411 H 0.078 0.6181 0.20729 0.0
H1412 H 0.08097 0.67188 0.25506 0.0
H1413 H 0.10763 0.64905 0.14609 0.0
C1414 C 0.11595 0.67176 0.133 0.0
C1415 C 0.11572 0.68742 0.14357 0.0
C1416 C 0.0804 0.66006 0.24468 0.0
C1417 C 0.09854 0.66602 0.18785 0.0
C1418 C 0.07065 0.64976 0.26439 0.0
C1419 C 0.06932 0.63449 0.25092 0.0
C1420 C 0.08892 0.65509 0.21123 0.0
C1421 C 0.07846 0.62983 0.2183 0.0
C1422 C 0.10737 0.66105 0.15495 0.0
C1423 C 0.10678 0.69189 0.17673 0.0
N1424 N 0.0878 0.6401 0.19946 0.0
N1425 N 0.09857 0.68126 0.19763 0.0
H1426 H 0.54522 0.8417 0.38661 0.0
H1427 H 0.62737 0.82738 0.48666 0.0
H1428 H 0.57972 0.87727 0.39539 0.0
H1429 H 0.58752 0.79931 0.51245 0.0
H1430 H 0.6111 0.84466 0.44741 0.0
H1431 H 0.56194 0.82441 0.42498 0.0
C1432 C 0.55642 0.84578 0.39609 0.0
C1433 C 0.56112 0.86092 0.38779 0.0
C1434 C 0.60594 0.83474 0.46183 0.0
C1435 C 0.58019 0.8413 0.43207 0.0
C1436 C 0.61518 0.82492 0.48463 0.0
C1437 C 0.60886 0.81179 0.50308 0.0
C1438 C 0.59027 0.83136 0.45693 0.0
C1439 C 0.59301 0.8091 0.49832 0.0
C1440 C 0.56587 0.83598 0.41836 0.0
C1441 C 0.57564 0.8657 0.40137 0.0
N1442 N 0.5843 0.81873 0.47554 0.0
N1443 N 0.58468 0.85592 0.42281 0.0
H1444 H 0.4401 0.37225 0.68606 0.0
H1445 H 0.38809 0.2975 0.68803 0.0
H1446 H 0.42343 0.35262 0.79718 0.0
H1447 H 0.38628 0.33039 0.59111 0.0
H1448 H 0.4039 0.31559 0.7268 0.0
H1449 H 0.42305 0.35518 0.64907 0.0
C1450 C 0.43273 0.36455 0.70292 0.0
C1451 C 0.43316 0.36412 0.74515 0.0
C1452 C 0.40001 0.31884 0.6971 0.0
C1453 C 0.41398 0.34404 0.70232 0.0
C1454 C 0.39112 0.30852 0.67491 0.0
C1455 C 0.38603 0.31249 0.6363 0.0
C1456 C 0.40405 0.33309 0.68022 0.0
C1457 C 0.39003 0.32695 0.62078 0.0
C1458 C 0.42307 0.35471 0.68156 0.0
C1459 C 0.42368 0.35335 0.76477 0.0
N1460 N 0.39896 0.3367 0.64266 0.0
N1461 N 0.41455 0.34367 0.74318 0.0
H1462 H 0.86843 0.1707 0.99096 0.0
H1463 H 0.95467 0.1441 0.94397 0.0
H1464 H 0.90846 0.18878 0.0514 0.0
H1465 H 0.91501 0.12456 0.88499 0.0
H1466 H 0.93768 0.15983 0.98518 0.0
H1467 H 0.88496 0.15265 0.95466 0.0
C1468 C 0.88066 0.17072 0.99711 0.0
C1469 C 0.88706 0.18133 0.02421 0.0
C1470 C 0.93265 0.15211 0.96328 0.0
C1471 C 0.90609 0.16088 0.98213 0.0
C1472 C 0.94237 0.1432 0.93944 0.0
C1473 C 0.93628 0.13312 0.91056 0.0
C1474 C 0.91666 0.15101 0.95831 0.0
C1475 C 0.92021 0.13216 0.9069 0.0
C1476 C 0.89011 0.16049 0.97609 0.0
C1477 C 0.90303 0.18097 0.03039 0.0
N1478 N 0.91095 0.14105 0.93035 0.0
N1479 N 0.91198 0.17099 0.00938 0.0
H1480 H 0.0796 0.38229 0.90591 0.0
H1481 H 0.08706 0.30037 0.0111 0.0
H1482 H 0.04963 0.34415 0.87824 0.0
H1483 H 0.12625 0.33046 0.99632 0.0
H1484 H 0.07178 0.31792 0.9701 0.0
H1485 H 0.09575 0.36488 0.94595 0.0
C1486 C 0.07652 0.37022 0.90801 0.0
C1487 C 0.06334 0.36459 0.88863 0.0
C1488 C 0.08373 0.32066 0.9759 0.0
C1489 C 0.08148 0.34479 0.93492 0.0
C1490 C 0.0925 0.31063 0.99927 0.0
C1491 C 0.10809 0.31378 0.00699 0.0
C1492 C 0.09046 0.33411 0.96053 0.0
C1493 C 0.11428 0.32757 0.99167 0.0
C1494 C 0.08571 0.36032 0.93081 0.0
C1495 C 0.05981 0.34888 0.89233 0.0
N1496 N 0.10545 0.33722 0.96918 0.0
N1497 N 0.06874 0.33955 0.91538 0.0
H1498 H 0.93095 0.8811 0.20614 0.0
H1499 H 0.88633 0.80097 0.20321 0.0
H1500 H 0.92471 0.85282 0.31165 0.0
H1501 H 0.88382 0.83389 0.10633 0.0
H1502 H 0.90081 0.81965 0.24292 0.0
H1503 H 0.91377 0.86411 0.16915 0.0
C1504 C 0.92578 0.87148 0.22186 0.0
C1505 C 0.92934 0.86845 0.26229 0.0
C1506 C 0.89705 0.82283 0.21305 0.0
C1507 C 0.9099 0.84863 0.21941 0.0
C1508 C 0.8889 0.81213 0.19023 0.0
C1509 C 0.88402 0.81584 0.15123 0.0
C1510 C 0.90049 0.83734 0.1967 0.0
C1511 C 0.88737 0.83058 0.13626 0.0
C1512 C 0.91604 0.8617 0.2005 0.0
C1513 C 0.92252 0.85553 0.28046 0.0
N1514 N 0.89551 0.84075 0.15891 0.0
N1515 N 0.91323 0.84605 0.25882 0.0
H1516 H 0.39852 0.70321 0.4683 0.0
H1517 H 0.42584 0.61751 0.41506 0.0
H1518 H 0.38352 0.66309 0.53421 0.0
H1519 H 0.44146 0.65822 0.35275 0.0
H1520 H 0.4089 0.63362 0.45601 0.0
H1521 H 0.41344 0.68663 0.42407 0.0
C1522 C 0.39852 0.69091 0.47384 0.0
C1523 C 0.38992 0.68457 0.50549 0.0
C1524 C 0.41595 0.63901 0.43318 0.0
C1525 C 0.40678 0.66539 0.45408 0.0
C1526 C 0.42552 0.6298 0.4095 0.0
C1527 C 0.43513 0.63653 0.38047 0.0
C1528 C 0.41598 0.65507 0.4278 0.0
C1529 C 0.4344 0.65256 0.3751 0.0
C1530 C 0.40693 0.68142 0.44824 0.0
C1531 C 0.38998 0.66848 0.51023 0.0
N1532 N 0.42506 0.66127 0.39864 0.0
N1533 N 0.39833 0.65945 0.48489 0.0
H1534 H 0.63103 0.17314 0.65708 0.0
H1535 H 0.54559 0.15057 0.7242 0.0
H1536 H 0.59017 0.19612 0.61415 0.0
H1537 H 0.58581 0.12515 0.76151 0.0
H1538 H 0.5619 0.16726 0.68365 0.0
H1539 H 0.61483 0.15497 0.69387 0.0
C1540 C 0.61865 0.17424 0.65487 0.0
C1541 C 0.61197 0.18625 0.63254 0.0
C1542 C 0.5672 0.15805 0.70069 0.0
C1543 C 0.59335 0.16563 0.67535 0.0
C1544 C 0.55789 0.14859 0.72422 0.0
C1545 C 0.56435 0.13651 0.74669 0.0
C1546 C 0.58314 0.1555 0.69952 0.0
C1547 C 0.58033 0.13428 0.7446 0.0
C1548 C 0.60941 0.16393 0.6762 0.0
C1549 C 0.59585 0.18722 0.63143 0.0
N1550 N 0.58919 0.14372 0.72155 0.0
N1551 N 0.58712 0.17711 0.65267 0.0
H1552 H 0.91366 0.37133 0.86428 0.0
H1553 H 0.91021 0.30443 0.03013 0.0
H1554 H 0.95373 0.34968 0.91609 0.0
H1555 H 0.8698 0.32569 0.97918 0.0
H1556 H 0.92629 0.32157 0.98991 0.0
H1557 H 0.89731 0.35526 0.90713 0.0
C1558 C 0.91902 0.3632 0.8846 0.0
C1559 C 0.9351 0.36177 0.88628 0.0
C1560 C 0.9139 0.32256 0.98764 0.0
C1561 C 0.91647 0.34337 0.93545 0.0
C1562 C 0.90472 0.31274 0.01057 0.0
C1563 C 0.88862 0.31357 0.00795 0.0
C1564 C 0.90699 0.33328 0.96167 0.0
C1565 C 0.88215 0.32474 0.98249 0.0
C1566 C 0.90969 0.35401 0.90901 0.0
C1567 C 0.9414 0.35097 0.91308 0.0
N1568 N 0.89135 0.33409 0.96017 0.0
N1569 N 0.93208 0.34221 0.93655 0.0
H1570 H 0.4441 0.1307 0.69481 0.0
H1571 H 0.38032 0.19561 0.70753 0.0
H1572 H 0.42228 0.14294 0.80657 0.0
H1573 H 0.38914 0.17042 0.59837 0.0
H1574 H 0.39647 0.17733 0.74438 0.0
H1575 H 0.42498 0.14604 0.6586 0.0
C1576 C 0.43523 0.13662 0.71166 0.0
C1577 C 0.4348 0.1357 0.7537 0.0
C1578 C 0.39477 0.17571 0.71245 0.0
C1579 C 0.41297 0.1533 0.71258 0.0
C1580 C 0.38565 0.18616 0.69141 0.0
C1581 C 0.38354 0.18454 0.64987 0.0
C1582 C 0.40207 0.16369 0.69168 0.0
C1583 C 0.39051 0.17204 0.6304 0.0
C1584 C 0.42428 0.14527 0.691 0.0
C1585 C 0.42298 0.14339 0.77414 0.0
N1586 N 0.39965 0.16218 0.6514 0.0
N1587 N 0.41262 0.15205 0.75339 0.0
H1588 H 0.55194 0.63589 0.45819 0.0
H1589 H 0.63282 0.67985 0.4602 0.0
H1590 H 0.58142 0.6394 0.35428 0.0
H1591 H 0.59995 0.68186 0.55713 0.0
H1592 H 0.61548 0.66274 0.42347 0.0
H1593 H 0.57054 0.65073 0.49679 0.0
C1594 C 0.56228 0.63988 0.44334 0.0
C1595 C 0.56499 0.63655 0.40267 0.0
C1596 C 0.6121 0.66684 0.45287 0.0
C1597 C 0.58656 0.65337 0.44717 0.0
C1598 C 0.62205 0.6765 0.47404 0.0
C1599 C 0.61782 0.68228 0.51185 0.0
C1600 C 0.59782 0.66288 0.46965 0.0
C1601 C 0.6036 0.67778 0.52794 0.0
C1602 C 0.57296 0.64827 0.46555 0.0
C1603 C 0.57885 0.64165 0.38553 0.0
N1604 N 0.59411 0.66838 0.50674 0.0
N1605 N 0.58909 0.64985 0.40782 0.0
H1606 H 0.0946 0.81385 0.10219 0.0
H1607 H 0.08139 0.86548 0.29795 0.0
H1608 H 0.12776 0.81732 0.19832 0.0
H1609 H 0.0444 0.85097 0.22036 0.0
H1610 H 0.09925 0.84967 0.25864 0.0
H1611 H 0.07658 0.82916 0.14213 0.0
C1612 C 0.09811 0.8178 0.13163 0.0
C1613 C 0.11282 0.81435 0.14665 0.0
C1614 C 0.0872 0.84988 0.25037 0.0
C1615 C 0.09228 0.83204 0.19233 0.0
C1616 C 0.07704 0.85892 0.27272 0.0
C1617 C 0.06139 0.85944 0.26255 0.0
C1618 C 0.08173 0.84148 0.21724 0.0
C1619 C 0.05634 0.8507 0.22959 0.0
C1620 C 0.08782 0.82657 0.15437 0.0
C1621 C 0.11673 0.81996 0.18493 0.0
N1622 N 0.06649 0.84215 0.20797 0.0
N1623 N 0.10656 0.82855 0.20632 0.0
H1624 H 0.92371 0.64481 0.30306 0.0
H1625 H 0.89171 0.67013 0.08764 0.0
H1626 H 0.9454 0.63111 0.19236 0.0
H1627 H 0.88634 0.69815 0.19359 0.0
H1628 H 0.90718 0.65179 0.12698 0.0
H1629 H 0.90541 0.6606 0.26435 0.0
C1630 C 0.92445 0.64501 0.27061 0.0
C1631 C 0.93604 0.63682 0.25069 0.0
C1632 C 0.90255 0.66194 0.14155 0.0
C1633 C 0.91528 0.65455 0.20653 0.0
C1634 C 0.89373 0.67233 0.11921 0.0
C1635 C 0.88796 0.68569 0.13741 0.0
C1636 C 0.90528 0.66481 0.18246 0.0
C1637 C 0.89082 0.68806 0.17842 0.0
C1638 C 0.91411 0.65403 0.24861 0.0
C1639 C 0.93664 0.63741 0.20865 0.0
N1640 N 0.89926 0.6777 0.19963 0.0
N1641 N 0.92639 0.64613 0.18788 0.0
H1642 H 0.07297 0.14695 0.83966 0.0
H1643 H 0.11538 0.16631 0.04739 0.0
H1644 H 0.06326 0.12331 0.95069 0.0
H1645 H 0.11284 0.19806 0.94796 0.0
H1646 H 0.10027 0.14765 0.00842 0.0
H1647 H 0.09187 0.16299 0.87514 0.0
C1648 C 0.07499 0.14501 0.87135 0.0
C1649 C 0.06648 0.13394 0.89245 0.0
C1650 C 0.10309 0.15869 0.99514 0.0
C1651 C 0.08796 0.15213 0.93306 0.0
C1652 C 0.11172 0.16929 0.01729 0.0
C1653 C 0.11515 0.18379 0.00102 0.0
C1654 C 0.09807 0.16257 0.9563 0.0
C1655 C 0.11018 0.1871 0.96185 0.0
C1656 C 0.08568 0.1542 0.89161 0.0
C1657 C 0.06947 0.13189 0.93352 0.0
N1658 N 0.10188 0.17658 0.94083 0.0
N1659 N 0.07992 0.14093 0.95254 0.0
H1660 H 0.63025 0.3235 0.68468 0.0
H1661 H 0.5439 0.35289 0.71469 0.0
H1662 H 0.59319 0.31273 0.60306 0.0
H1663 H 0.58211 0.37011 0.78412 0.0
H1664 H 0.56172 0.33733 0.67521 0.0
H1665 H 0.61288 0.34025 0.72221 0.0
C1666 C 0.61853 0.3248 0.67424 0.0
C1667 C 0.61322 0.31666 0.64048 0.0
C1668 C 0.56624 0.3445 0.69907 0.0
C1669 C 0.59314 0.33561 0.6841 0.0
C1670 C 0.55604 0.35328 0.72189 0.0
C1671 C 0.56151 0.36271 0.75303 0.0
C1672 C 0.58205 0.34504 0.70748 0.0
C1673 C 0.57741 0.36303 0.76035 0.0
C1674 C 0.60858 0.33429 0.69595 0.0
C1675 C 0.59777 0.31859 0.62913 0.0
N1676 N 0.58712 0.35427 0.73785 0.0
N1677 N 0.58828 0.32779 0.65097 0.0
H1678 H 0.39584 0.79385 0.46419 0.0
H1679 H 0.42879 0.87916 0.43495 0.0
H1680 H 0.38578 0.83124 0.54552 0.0
H1681 H 0.43398 0.84288 0.3473 0.0
H1682 H 0.41319 0.86191 0.47608 0.0
H1683 H 0.4105 0.81156 0.42223 0.0
C1684 C 0.39687 0.80577 0.47352 0.0
C1685 C 0.3897 0.81103 0.50873 0.0
C1686 C 0.41766 0.85775 0.44773 0.0
C1687 C 0.40629 0.8315 0.4602 0.0
C1688 C 0.42646 0.86764 0.42398 0.0
C1689 C 0.43268 0.86251 0.38738 0.0
C1690 C 0.41509 0.84255 0.43502 0.0
C1691 C 0.42957 0.84731 0.3754 0.0
C1692 C 0.40513 0.81592 0.44928 0.0
C1693 C 0.3911 0.8267 0.51863 0.0
N1694 N 0.42104 0.83787 0.39919 0.0
N1695 N 0.39927 0.83637 0.49455 0.0
H1696 H 0.02138 0.51983 0.15464 0.0
H1697 H 0.97951 0.49033 0.95552 0.0
H1698 H 0.97738 0.53722 0.11536 0.0
H1699 H 0.01592 0.4653 0.01465 0.0
H1700 H 0.98021 0.50954 0.00944 0.0
H1701 H 0.02124 0.5016 0.09873 0.0
C1702 C 0.01174 0.51985 0.13405 0.0
C1703 C 0.99936 0.53 0.13955 0.0
C1704 C 0.98803 0.49983 0.01058 0.0
C1705 C 0.99909 0.50919 0.07575 0.0
C1706 C 0.98769 0.48895 0.97978 0.0
C1707 C 0.99763 0.47623 0.98086 0.0
C1708 C 0.99851 0.49803 0.04231 0.0
C1709 C 0.00794 0.47486 0.01302 0.0
C1710 C 0.01161 0.5094 0.10234 0.0
C1711 C 0.98706 0.52946 0.11233 0.0
N1712 N 0.00814 0.48566 0.04245 0.0
N1713 N 0.98725 0.51924 0.08146 0.0
H1714 H 0.77709 0.72368 0.25049 0.0
H1715 H 0.716 0.77468 0.37155 0.0
H1716 H 0.76632 0.77089 0.2206 0.0
H1717 H 0.7293 0.72855 0.40555 0.0
H1718 H 0.73333 0.77311 0.31388 0.0
H1719 H 0.75854 0.72484 0.30536 0.0
C1720 C 0.77082 0.7343 0.2555 0.0
C1721 C 0.77332 0.74724 0.23111 0.0
C1722 C 0.73246 0.76334 0.33397 0.0
C1723 C 0.752 0.74863 0.2937 0.0
C1724 C 0.72253 0.76421 0.36677 0.0
C1725 C 0.72126 0.75174 0.39342 0.0
C1726 C 0.74113 0.74989 0.32771 0.0
C1727 C 0.7301 0.73851 0.38609 0.0
C1728 C 0.76019 0.73494 0.28674 0.0
C1729 C 0.76466 0.7606 0.23847 0.0
N1730 N 0.73965 0.73793 0.35391 0.0
N1731 N 0.75442 0.76097 0.26925 0.0
H1732 H 0.50694 0.50866 0.46128 0.0
H1733 H 0.48223 0.492 0.68791 0.0
H1734 H 0.48704 0.54346 0.53808 0.0
H1735 H 0.51225 0.46241 0.6191 0.0
H1736 H 0.4821 0.51038 0.63223 0.0
H1737 H 0.50694 0.49074 0.51754 0.0
C1738 C 0.50264 0.51258 0.49004 0.0
C1739 C 0.4971 0.52765 0.49501 0.0
C1740 C 0.48872 0.49987 0.62943 0.0
C1741 C 0.49685 0.50706 0.55949 0.0
C1742 C 0.48888 0.48941 0.66127 0.0
C1743 C 0.49722 0.4756 0.65815 0.0
C1744 C 0.49689 0.49644 0.59419 0.0
C1745 C 0.50543 0.47275 0.62261 0.0
C1746 C 0.50259 0.5023 0.52212 0.0
C1747 C 0.4913 0.53192 0.53277 0.0
N1748 N 0.50501 0.48306 0.59202 0.0
N1749 N 0.49134 0.52167 0.56362 0.0
H1750 H 0.77548 0.2225 0.89825 0.0
H1751 H 0.72838 0.27427 0.7428 0.0
H1752 H 0.7732 0.2721 0.90553 0.0
H1753 H 0.72046 0.22551 0.75781 0.0
H1754 H 0.74678 0.27349 0.79836 0.0
H1755 H 0.75706 0.22315 0.84265 0.0
C1756 C 0.7711 0.23352 0.88804 0.0
C1757 C 0.77582 0.24727 0.9064 0.0
C1758 C 0.74099 0.26297 0.78954 0.0
C1759 C 0.75486 0.24811 0.84302 0.0
C1760 C 0.73059 0.26339 0.75772 0.0
C1761 C 0.72292 0.24993 0.74583 0.0
C1762 C 0.74385 0.24896 0.80926 0.0
C1763 C 0.72605 0.23617 0.76636 0.0
C1764 C 0.76056 0.23388 0.85652 0.0
C1765 C 0.76972 0.26124 0.89237 0.0
N1766 N 0.73634 0.23601 0.79702 0.0
N1767 N 0.75961 0.26131 0.86134 0.0
H1768 H 0.24246 0.25729 0.94262 0.0
H1769 H 0.2551 0.25092 0.70616 0.0
H1770 H 0.20519 0.25586 0.857 0.0
H1771 H 0.29149 0.26241 0.78917 0.0
H1772 H 0.23666 0.25225 0.76123 0.0
H1773 H 0.26072 0.25874 0.88703 0.0
C1774 C 0.2381 0.25742 0.91217 0.0
C1775 C 0.22227 0.25637 0.90447 0.0
C1776 C 0.24867 0.25455 0.76735 0.0
C1777 C 0.24311 0.25778 0.84075 0.0
C1778 C 0.2592 0.25388 0.73586 0.0
C1779 C 0.27489 0.25649 0.74304 0.0
C1780 C 0.25386 0.25777 0.80637 0.0
C1781 C 0.27956 0.26003 0.78235 0.0
C1782 C 0.24854 0.25818 0.88044 0.0
C1783 C 0.2173 0.25636 0.86435 0.0
N1784 N 0.2691 0.26048 0.81257 0.0
N1785 N 0.22769 0.25697 0.83401 0.0
H1786 H 0.26527 0.73173 0.42462 0.0
H1787 H 0.24095 0.77 0.21709 0.0
H1788 H 0.29519 0.76215 0.35832 0.0
H1789 H 0.22055 0.72791 0.26157 0.0
H1790 H 0.2597 0.76895 0.27154 0.0
H1791 H 0.2471 0.7321 0.3684 0.0
C1792 C 0.26796 0.73852 0.39824 0.0
C1793 C 0.2817 0.74692 0.39592 0.0
C1794 C 0.25114 0.75993 0.26921 0.0
C1795 C 0.26108 0.74741 0.33184 0.0
C1796 C 0.24048 0.76045 0.23799 0.0
C1797 C 0.22909 0.74904 0.23469 0.0
C1798 C 0.25031 0.74802 0.29762 0.0
C1799 C 0.22891 0.73713 0.26328 0.0
C1800 C 0.25767 0.73865 0.36615 0.0
C1801 C 0.28475 0.75543 0.36103 0.0
N1802 N 0.2393 0.73698 0.29368 0.0
N1803 N 0.27447 0.75554 0.33037 0.0
H1804 H 0.51309 0.95942 0.53097 0.0
H1805 H 0.48894 0.04288 0.61066 0.0
H1806 H 0.48509 0.99116 0.46287 0.0
H1807 H 0.51014 0.00806 0.685 0.0
H1808 H 0.48905 0.02483 0.55444 0.0
H1809 H 0.51384 0.97793 0.58602 0.0
C1810 C 0.50704 0.97026 0.52766 0.0
C1811 C 0.49892 0.9737 0.49236 0.0
C1812 C 0.49368 0.02114 0.58306 0.0
C1813 C 0.4999 0.99502 0.55509 0.0
C1814 C 0.49354 0.03141 0.61523 0.0
C1815 C 0.49948 0.02694 0.65266 0.0
C1816 C 0.49984 0.00633 0.5883 0.0
C1817 C 0.5056 0.01205 0.65659 0.0
C1818 C 0.50753 0.98085 0.55903 0.0
C1819 C 0.49159 0.98808 0.48939 0.0
N1820 N 0.5056 0.00227 0.62481 0.0
N1821 N 0.49223 0.9982 0.52042 0.0
H1822 H 0.01385 0.00365 0.94794 0.0
H1823 H 0.98673 0.98768 0.1735 0.0
H1824 H 0.98306 0.03352 0.01329 0.0
H1825 H 0.01298 0.95521 0.10322 0.0
H1826 H 0.98574 0.00493 0.11558 0.0
H1827 H 0.01398 0.98587 0.00487 0.0
C1828 C 0.00709 0.00643 0.97429 0.0
C1829 C 0.99844 0.02006 0.97599 0.0
C1830 C 0.99169 0.99402 0.11279 0.0
C1831 C 0.99853 0.99983 0.04116 0.0
C1832 C 0.99236 0.98423 0.14592 0.0
C1833 C -2e-05 0.97002 0.14313 0.0
C1834 C 0.99878 0.98961 0.0767 0.0
C1835 C 0.00687 0.966 0.10651 0.0
C1836 C 0.00712 0.99627 0.00669 0.0
C1837 C 0.98975 0.02305 0.01061 0.0
N1838 N 0.00614 0.97577 0.07474 0.0
N1839 N 0.99009 0.01305 0.04195 0.0
H1840 H 0.99525 0.45454 0.58504 0.0
H1841 H 0.99653 0.54585 0.54584 0.0
H1842 H 0.99806 0.48849 0.67942 0.0
H1843 H 0.9987 0.51187 0.45145 0.0
H1844 H 0.99471 0.52501 0.59524 0.0
H1845 H 0.99418 0.47542 0.53557 0.0
C1846 C 0.99554 0.46638 0.59537 0.0
C1847 C 0.9969 0.46975 0.63641 0.0
C1848 C 0.99556 0.52212 0.5637 0.0
C1849 C 0.99574 0.49372 0.58001 0.0
C1850 C 0.99651 0.53402 0.5355 0.0
C1851 C 0.99793 0.53061 0.49449 0.0
C1852 C 0.99593 0.50668 0.55081 0.0
C1853 C 0.99792 0.51504 0.48282 0.0
C1854 C 0.995 0.4783 0.56713 0.0
C1855 C 0.99731 0.48533 0.64805 0.0
N1856 N 0.99698 0.50368 0.51079 0.0
N1857 N 0.99676 0.4967 0.62004 0.0
H1858 H 0.79107 0.73417 0.8572 0.0
H1859 H 0.7123 0.77159 0.77863 0.0
H1860 H 0.76989 0.77413 0.91115 0.0
H1861 H 0.73583 0.73447 0.71808 0.0
H1862 H 0.73282 0.77212 0.8289 0.0
H1863 H 0.77082 0.73392 0.80636 0.0
C1864 C 0.78227 0.743 0.85817 0.0
C1865 C 0.78221 0.75416 0.88868 0.0
C1866 C 0.7335 0.76386 0.8046 0.0
C1867 C 0.75877 0.75377 0.83084 0.0
C1868 C 0.72172 0.76348 0.77606 0.0
C1869 C 0.72235 0.75301 0.74399 0.0
C1870 C 0.74598 0.75365 0.80122 0.0
C1871 C 0.73496 0.74289 0.74194 0.0
C1872 C 0.77062 0.74277 0.82927 0.0
C1873 C 0.77031 0.76514 0.88866 0.0
N1874 N 0.74625 0.74346 0.77012 0.0
N1875 N 0.75907 0.76464 0.86032 0.0
H1876 H 0.48233 0.53804 0.11602 0.0
H1877 H 0.5143 0.45583 0.04794 0.0
H1878 H 0.5234 0.51755 0.16583 0.0
H1879 H 0.48302 0.48282 0.9757 0.0
H1880 H 0.51627 0.47737 0.09493 0.0
H1881 H 0.48105 0.51708 0.06715 0.0
C1882 C 0.49118 0.52926 0.1165 0.0
C1883 C 0.50296 0.5296 0.14537 0.0
C1884 C 0.50897 0.47854 0.06876 0.0
C1885 C 0.50132 0.50532 0.08996 0.0
C1886 C 0.50787 0.46625 0.0418 0.0
C1887 C 0.49843 0.46739 0.00767 0.0
C1888 C 0.5005 0.49207 0.06184 0.0
C1889 C 0.49019 0.48118 0.00189 0.0
C1890 C 0.49037 0.51722 0.08872 0.0
C1891 C 0.51392 0.51767 0.14478 0.0
N1892 N 0.49139 0.49293 0.02869 0.0
N1893 N 0.51278 0.506 0.11774 0.0
H1894 H 0.76918 0.23163 0.23003 0.0
H1895 H 0.73334 0.27413 0.42191 0.0
H1896 H 0.78956 0.27164 0.28566 0.0
H1897 H 0.71254 0.23458 0.36517 0.0
H1898 H 0.75386 0.27355 0.37191 0.0
H1899 H 0.74842 0.23247 0.27931 0.0
C1900 C 0.76938 0.24052 0.25284 0.0
C1901 C 0.78121 0.25154 0.25374 0.0
C1902 C 0.7448 0.26501 0.37029 0.0
C1903 C 0.75725 0.25272 0.31003 0.0
C1904 C 0.73309 0.2653 0.39894 0.0
C1905 C 0.72121 0.25433 0.39793 0.0
C1906 C 0.74471 0.25364 0.3403 0.0
C1907 C 0.72137 0.24334 0.36697 0.0
C1908 C 0.75743 0.24107 0.2808 0.0
C1909 C 0.78064 0.26298 0.28354 0.0
N1910 N 0.73296 0.24323 0.33954 0.0
N1911 N 0.76888 0.26326 0.31049 0.0
H1912 H 0.28745 0.26824 0.36816 0.0
H1913 H 0.21132 0.22967 0.27666 0.0
H1914 H 0.26771 0.22583 0.4121 0.0
H1915 H 0.22942 0.27348 0.23729 0.0
H1916 H 0.23207 0.22792 0.32584 0.0
H1917 H 0.26689 0.26986 0.3182 0.0
C1918 C 0.2789 0.25918 0.36704 0.0
C1919 C 0.27931 0.24689 0.39449 0.0
C1920 C 0.2315 0.23793 0.3065 0.0
C1921 C 0.25557 0.2488 0.33767 0.0
C1922 C 0.21955 0.23901 0.27858 0.0
C1923 C 0.21857 0.25175 0.25267 0.0
C1924 C 0.24261 0.24966 0.30863 0.0
C1925 C 0.2298 0.26333 0.25619 0.0
C1926 C 0.26707 0.26018 0.33872 0.0
C1927 C 0.26775 0.23562 0.39194 0.0
N1928 N 0.24133 0.262 0.28355 0.0
N1929 N 0.25637 0.23685 0.36413 0.0
H1930 H 0.27023 0.77257 0.7291 0.0
H1931 H 0.22491 0.72678 0.90122 0.0
H1932 H 0.28182 0.72621 0.76515 0.0
H1933 H 0.21178 0.77174 0.85753 0.0
H1934 H 0.24562 0.72608 0.85152 0.0
H1935 H 0.24895 0.77241 0.77672 0.0
C1936 C 0.26828 0.76231 0.74694 0.0
C1937 C 0.27782 0.74934 0.74284 0.0
C1938 C 0.23816 0.73607 0.85271 0.0
C1939 C 0.25342 0.74914 0.79795 0.0
C1940 C 0.22624 0.73642 0.88086 0.0
C1941 C 0.21658 0.74937 0.88373 0.0
C1942 C 0.2405 0.74876 0.8272 0.0
C1943 C 0.21906 0.76162 0.8569 0.0
C1944 C 0.25612 0.76225 0.77427 0.0
C1945 C 0.27488 0.73652 0.76748 0.0
N1946 N 0.23078 0.76103 0.82995 0.0
N1947 N 0.26292 0.73673 0.79389 0.0
H1948 H 0.4815 0.96184 0.11209 0.0
H1949 H 0.51536 0.04379 0.04827 0.0
H1950 H 0.52193 0.98185 0.16649 0.0
H1951 H 0.48498 0.01726 0.97237 0.0
H1952 H 0.51637 0.02214 0.09514 0.0
H1953 H 0.48127 0.98282 0.06312 0.0
C1954 C 0.49044 0.9705 0.11356 0.0
C1955 C 0.50171 0.97004 0.14379 0.0
C1956 C 0.50949 0.02109 0.0682 0.0
C1957 C 0.50126 0.99435 0.08823 0.0
C1958 C 0.50893 0.03345 0.04129 0.0
C1959 C 0.50004 0.03246 0.00614 0.0
C1960 C 0.50101 0.00766 0.06019 0.0
C1961 C 0.49175 0.01877 0.99933 0.0
C1962 C 0.49022 0.98256 0.08572 0.0
C1963 C 0.51282 0.98183 0.14437 0.0
N1964 N 0.49241 0.00696 0.02609 0.0
N1965 N 0.51225 0.99353 0.11726 0.0
H1966 H 0.01629 0.04722 0.59307 0.0
H1967 H 0.9834 0.96388 0.53388 0.0
H1968 H 0.97996 0.02429 0.6581 0.0
H1969 H 0.01547 0.9894 0.46068 0.0
H1970 H 0.98303 0.98527 0.58186 0.0
H1971 H 0.01696 0.02565 0.54573 0.0
C1972 C 0.00843 0.03767 0.59732 0.0
C1973 C 0.998 0.03761 0.62948 0.0
C1974 C 0.99015 0.98618 0.5553 0.0
C1975 C 0.99874 0.01284 0.57554 0.0
C1976 C 0.99045 0.97393 0.52807 0.0
C1977 C 0.99941 0.97488 0.49312 0.0
C1978 C 0.99897 0.99946 0.54768 0.0
C1979 C 0.00821 0.98826 0.48693 0.0
C1980 C 0.00879 0.02537 0.57025 0.0
C1981 C 0.98802 0.02496 0.63338 0.0
N1982 N 0.00777 -0.0 0.51389 0.0
N1983 N 0.98868 0.01307 0.60686 0.0
loop_
_geom_bond_atom_site_label_1
_geom_bond_atom_site_label_2
_geom_bond_distance
_geom_bond_site_symmetry_2
_ccdc_geom_bond_type
Li0 N17 1.990 . S
Li0 O60 1.919 1_655 S
Li0 O61 1.994 . S
Li0 O62 1.961 . S
Li1 N25 1.990 . S
Li1 O60 2.005 . S
Li1 O61 1.931 1_455 S
Li1 O63 1.961 . S
Li2 N47 1.993 . S
Li2 O60 1.958 1_655 S
Li2 O62 1.986 . S
Li2 O63 1.939 1_655 S
Li3 N53 1.994 . S
Li3 O61 1.958 1_455 S
Li3 O62 1.926 1_455 S
Li3 O63 1.998 . S
C4 C6 1.348 . S
C4 C7 1.356 1_455 S
C4 O60 1.324 . S
N5 C8 1.314 1_655 S
N5 C9 1.279 . S
C6 C4 1.348 . S
C6 C8 1.353 . S
C6 H64 0.929 . S
C7 C4 1.356 1_655 S
C7 C9 1.358 . S
C7 H65 0.930 . S
C8 N5 1.314 1_455 S
C8 C6 1.353 . S
C8 H66 0.930 . S
C9 N5 1.279 . S
C9 C7 1.358 . S
C9 H67 0.930 . S
C10 C13 1.348 1_455 S
C10 C14 1.356 . S
C10 O61 1.324 1_455 S
C11 N12 1.279 . S
C11 C14 1.358 . S
C11 H68 0.930 . S
N12 C11 1.279 . S
N12 C15 1.314 1_455 S
C13 C10 1.348 1_655 S
C13 C15 1.353 . S
C13 H69 0.929 . S
C14 C10 1.356 . S
C14 C11 1.358 . S
C14 H70 0.930 . S
C15 N12 1.314 1_655 S
C15 C13 1.353 . S
C15 H71 0.930 . S
C16 N17 1.314 . S
C16 C21 1.353 . S
C16 H22 0.930 . S
N17 Li0 1.990 . S
N17 C16 1.314 . S
N17 C19 1.279 . S
C18 C19 1.358 . S
C18 C20 1.356 . S
C18 H72 0.930 . S
C19 N17 1.279 . S
C19 C18 1.358 . S
C19 H23 0.930 . S
C20 C18 1.356 . S
C20 C21 1.348 . S
C21 C16 1.353 . S
C21 C20 1.348 . S
C21 H73 0.929 . S
H22 C16 0.930 . S
H23 C19 0.930 . S
C24 N25 1.314 . S
C24 C26 1.353 . S
C24 H30 0.930 . S
N25 Li1 1.990 . S
N25 C24 1.314 . S
N25 C28 1.279 . S
C26 C24 1.353 . S
C26 C29 1.348 . S
C26 H74 0.929 . S
C27 C28 1.358 . S
C27 C29 1.356 . S
C27 H75 0.930 . S
C28 N25 1.279 . S
C28 C27 1.358 . S
C28 H31 0.930 . S
C29 C26 1.348 . S
C29 C27 1.356 . S
H30 C24 0.930 . S
H31 C28 0.930 . S
C32 C34 1.348 . S
C32 C35 1.356 . S
C32 O62 1.325 . S
N33 C36 1.314 . S
N33 C37 1.279 . S
C34 C32 1.348 . S
C34 C36 1.353 . S
C34 H76 0.929 . S
C35 C32 1.356 . S
C35 C37 1.358 . S
C35 H77 0.930 . S
C36 N33 1.314 . S
C36 C34 1.353 . S
C36 H78 0.930 . S
C37 N33 1.279 . S
C37 C35 1.358 . S
C37 H79 0.930 . S
C38 C39 1.348 . S
C38 C40 1.356 . S
C38 O63 1.325 . S
C39 C38 1.348 . S
C39 C41 1.353 . S
C39 H80 0.929 . S
C40 C38 1.356 . S
C40 C42 1.358 . S
C40 H81 0.930 . S
C41 C39 1.353 . S
C41 N43 1.314 . S
C41 H82 0.930 . S
C42 C40 1.358 . S
C42 N43 1.279 . S
C42 H83 0.930 . S
N43 C41 1.314 . S
N43 C42 1.279 . S
C44 C46 1.353 . S
C44 N47 1.314 1_455 S
C44 H50 0.930 . S
C45 N47 1.279 . S
C45 C48 1.358 . S
C45 H51 0.930 . S
C46 C44 1.353 . S
C46 C49 1.348 . S
C46 H84 0.929 . S
N47 Li2 1.993 . S
N47 C44 1.314 1_655 S
N47 C45 1.279 . S
C48 C45 1.358 . S
C48 C49 1.356 1_655 S
C48 H85 0.930 . S
C49 C46 1.348 . S
C49 C48 1.356 1_455 S
H50 C44 0.930 . S
H51 C45 0.930 . S
C52 N53 1.314 1_655 S
C52 C54 1.353 . S
C52 H58 0.930 . S
N53 Li3 1.994 . S
N53 C52 1.314 1_455 S
N53 C56 1.279 . S
C54 C52 1.353 . S
C54 C57 1.348 1_655 S
C54 H86 0.929 . S
C55 C56 1.358 . S
C55 C57 1.356 . S
C55 H87 0.930 . S
C56 N53 1.279 . S
C56 C55 1.358 . S
C56 H59 0.930 . S
C57 C54 1.348 1_455 S
C57 C55 1.356 . S
H58 C52 0.930 . S
H59 C56 0.930 . S
O60 Li0 1.919 1_455 S
O60 Li1 2.005 . S
O60 Li2 1.958 1_455 S
O60 C4 1.324 . S
O61 Li0 1.994 . S
O61 Li1 1.931 1_655 S
O61 Li3 1.958 1_655 S
O61 C10 1.324 1_655 S
O62 Li0 1.961 . S
O62 Li2 1.986 . S
O62 Li3 1.926 1_655 S
O62 C32 1.325 . S
O63 Li1 1.961 . S
O63 Li2 1.939 1_455 S
O63 Li3 1.998 . S
O63 C38 1.325 . S
H64 C6 0.929 . S
H65 C7 0.930 . S
H66 C8 0.930 . S
H67 C9 0.930 . S
H68 C11 0.930 . S
H69 C13 0.929 . S
H70 C14 0.930 . S
H71 C15 0.930 . S
H72 C18 0.930 . S
H73 C21 0.929 . S
H74 C26 0.929 . S
H75 C27 0.930 . S
H76 C34 0.929 . S
H77 C35 0.930 . S
H78 C36 0.930 . S
H79 C37 0.930 . S
H80 C39 0.929 . S
H81 C40 0.930 . S
H82 C41 0.930 . S
H83 C42 0.930 . S
H84 C46 0.929 . S
H85 C48 0.930 . S
H86 C54 0.929 . S
H87 C55 0.930 . S
Li88 N105 1.990 . S
Li88 O148 1.956 . S
Li88 O149 1.970 . S
Li88 O150 1.961 . S
Li89 N113 1.990 . S
Li89 O148 1.970 . S
Li89 O149 1.956 . S
Li89 O151 1.961 . S
Li90 N135 1.990 . S
Li90 O148 1.961 . S
Li90 O150 1.956 . S
Li90 O151 1.970 . S
Li91 N141 1.990 . S
Li91 O149 1.961 . S
Li91 O150 1.970 . S
Li91 O151 1.956 . S
C92 C94 1.348 . S
C92 C95 1.356 . S
C92 O148 1.325 . S
N93 C96 1.314 . S
N93 C97 1.279 . S
C94 C92 1.348 . S
C94 C96 1.353 . S
C94 H152 0.929 . S
C95 C92 1.356 . S
C95 C97 1.358 . S
C95 H153 0.930 . S
C96 N93 1.314 . S
C96 C94 1.353 . S
C96 H154 0.930 . S
C97 N93 1.279 . S
C97 C95 1.358 . S
C97 H155 0.930 . S
C98 C101 1.348 . S
C98 C102 1.356 . S
C98 O149 1.325 . S
C99 N100 1.279 . S
C99 C102 1.358 . S
C99 H156 0.930 . S
N100 C99 1.279 . S
N100 C103 1.314 . S
C101 C98 1.348 . S
C101 C103 1.353 . S
C101 H157 0.929 . S
C102 C98 1.356 . S
C102 C99 1.358 . S
C102 H158 0.930 . S
C103 N100 1.314 . S
C103 C101 1.353 . S
C103 H159 0.930 . S
C104 N105 1.314 . S
C104 C109 1.353 . S
C104 H110 0.930 . S
N105 Li88 1.990 . S
N105 C104 1.314 . S
N105 C107 1.279 . S
C106 C107 1.358 . S
C106 C108 1.356 . S
C106 H160 0.930 . S
C107 N105 1.279 . S
C107 C106 1.358 . S
C107 H111 0.930 . S
C108 C106 1.356 . S
C108 C109 1.348 . S
C109 C104 1.353 . S
C109 C108 1.348 . S
C109 H161 0.929 . S
H110 C104 0.930 . S
H111 C107 0.930 . S
C112 N113 1.314 . S
C112 C114 1.353 . S
C112 H118 0.930 . S
N113 Li89 1.990 . S
N113 C112 1.314 . S
N113 C116 1.279 . S
C114 C112 1.353 . S
C114 C117 1.348 . S
C114 H162 0.929 . S
C115 C116 1.358 . S
C115 C117 1.356 . S
C115 H163 0.930 . S
C116 N113 1.279 . S
C116 C115 1.358 . S
C116 H119 0.930 . S
C117 C114 1.348 . S
C117 C115 1.356 . S
H118 C112 0.930 . S
H119 C116 0.930 . S
C120 C122 1.348 . S
C120 C123 1.356 . S
C120 O150 1.325 . S
N121 C124 1.314 . S
N121 C125 1.279 . S
C122 C120 1.348 . S
C122 C124 1.353 . S
C122 H164 0.929 . S
C123 C120 1.356 . S
C123 C125 1.358 . S
C123 H165 0.930 . S
C124 N121 1.314 . S
C124 C122 1.353 . S
C124 H166 0.930 . S
C125 N121 1.279 . S
C125 C123 1.358 . S
C125 H167 0.930 . S
C126 C127 1.348 . S
C126 C128 1.356 . S
C126 O151 1.325 . S
C127 C126 1.348 . S
C127 C129 1.353 . S
C127 H168 0.929 . S
C128 C126 1.356 . S
C128 C130 1.358 . S
C128 H169 0.930 . S
C129 C127 1.353 . S
C129 N131 1.314 . S
C129 H170 0.930 . S
C130 C128 1.358 . S
C130 N131 1.279 . S
C130 H171 0.930 . S
N131 C129 1.314 . S
N131 C130 1.279 . S
C132 C134 1.353 . S
C132 N135 1.314 . S
C132 H138 0.930 . S
C133 N135 1.279 . S
C133 C136 1.358 . S
C133 H139 0.930 . S
C134 C132 1.353 . S
C134 C137 1.348 . S
C134 H172 0.929 . S
N135 Li90 1.990 . S
N135 C132 1.314 . S
N135 C133 1.279 . S
C136 C133 1.358 . S
C136 C137 1.356 . S
C136 H173 0.930 . S
C137 C134 1.348 . S
C137 C136 1.356 . S
H138 C132 0.930 . S
H139 C133 0.930 . S
C140 N141 1.314 . S
C140 C142 1.353 . S
C140 H146 0.930 . S
N141 Li91 1.990 . S
N141 C140 1.314 . S
N141 C144 1.279 . S
C142 C140 1.353 . S
C142 C145 1.348 . S
C142 H174 0.929 . S
C143 C144 1.358 . S
C143 C145 1.356 . S
C143 H175 0.930 . S
C144 N141 1.279 . S
C144 C143 1.358 . S
C144 H147 0.930 . S
C145 C142 1.348 . S
C145 C143 1.356 . S
H146 C140 0.930 . S
H147 C144 0.930 . S
O148 Li88 1.956 . S
O148 Li89 1.970 . S
O148 Li90 1.961 . S
O148 C92 1.325 . S
O149 Li88 1.970 . S
O149 Li89 1.956 . S
O149 Li91 1.961 . S
O149 C98 1.325 . S
O150 Li88 1.961 . S
O150 Li90 1.956 . S
O150 Li91 1.970 . S
O150 C120 1.325 . S
O151 Li89 1.961 . S
O151 Li90 1.970 . S
O151 Li91 1.956 . S
O151 C126 1.325 . S
H152 C94 0.929 . S
H153 C95 0.930 . S
H154 C96 0.930 . S
H155 C97 0.930 . S
H156 C99 0.930 . S
H157 C101 0.929 . S
H158 C102 0.930 . S
H159 C103 0.930 . S
H160 C106 0.930 . S
H161 C109 0.929 . S
H162 C114 0.929 . S
H163 C115 0.930 . S
H164 C122 0.929 . S
H165 C123 0.930 . S
H166 C124 0.930 . S
H167 C125 0.930 . S
H168 C127 0.929 . S
H169 C128 0.930 . S
H170 C129 0.930 . S
H171 C130 0.930 . S
H172 C134 0.929 . S
H173 C136 0.930 . S
H174 C142 0.929 . S
H175 C143 0.930 . S
Li176 N193 1.990 . S
Li176 O236 1.956 . S
Li176 O237 1.970 . S
Li176 O238 1.961 . S
Li177 N201 1.990 . S
Li177 O236 1.970 . S
Li177 O237 1.956 . S
Li177 O239 1.961 . S
Li178 N223 1.990 . S
Li178 O236 1.961 . S
Li178 O238 1.956 . S
Li178 O239 1.970 . S
Li179 N229 1.990 . S
Li179 O237 1.961 . S
Li179 O238 1.970 . S
Li179 O239 1.956 . S
C180 C182 1.348 . S
C180 C183 1.356 . S
C180 O236 1.325 . S
N181 C184 1.314 . S
N181 C185 1.279 . S
C182 C180 1.348 . S
C182 C184 1.353 . S
C182 H240 0.929 . S
C183 C180 1.356 . S
C183 C185 1.358 . S
C183 H241 0.930 . S
C184 N181 1.314 . S
C184 C182 1.353 . S
C184 H242 0.930 . S
C185 N181 1.279 . S
C185 C183 1.358 . S
C185 H243 0.930 . S
C186 C189 1.348 . S
C186 C190 1.356 . S
C186 O237 1.325 . S
C187 N188 1.279 . S
C187 C190 1.358 . S
C187 H244 0.930 . S
N188 C187 1.279 . S
N188 C191 1.314 . S
C189 C186 1.348 . S
C189 C191 1.353 . S
C189 H245 0.929 . S
C190 C186 1.356 . S
C190 C187 1.358 . S
C190 H246 0.930 . S
C191 N188 1.314 . S
C191 C189 1.353 . S
C191 H247 0.930 . S
C192 N193 1.314 . S
C192 C197 1.353 . S
C192 H198 0.930 . S
N193 Li176 1.990 . S
N193 C192 1.314 . S
N193 C195 1.279 . S
C194 C195 1.358 . S
C194 C196 1.356 . S
C194 H248 0.930 . S
C195 N193 1.279 . S
C195 C194 1.358 . S
C195 H199 0.930 . S
C196 C194 1.356 . S
C196 C197 1.348 . S
C197 C192 1.353 . S
C197 C196 1.348 . S
C197 H249 0.929 . S
H198 C192 0.930 . S
H199 C195 0.930 . S
C200 N201 1.314 . S
C200 C202 1.353 . S
C200 H206 0.930 . S
N201 Li177 1.990 . S
N201 C200 1.314 . S
N201 C204 1.279 . S
C202 C200 1.353 . S
C202 C205 1.348 . S
C202 H250 0.929 . S
C203 C204 1.358 . S
C203 C205 1.356 . S
C203 H251 0.930 . S
C204 N201 1.279 . S
C204 C203 1.358 . S
C204 H207 0.930 . S
C205 C202 1.348 . S
C205 C203 1.356 . S
H206 C200 0.930 . S
H207 C204 0.930 . S
C208 C210 1.348 . S
C208 C211 1.356 . S
C208 O238 1.325 . S
N209 C212 1.314 . S
N209 C213 1.279 . S
C210 C208 1.348 . S
C210 C212 1.353 . S
C210 H252 0.929 . S
C211 C208 1.356 . S
C211 C213 1.358 . S
C211 H253 0.930 . S
C212 N209 1.314 . S
C212 C210 1.353 . S
C212 H254 0.930 . S
C213 N209 1.279 . S
C213 C211 1.358 . S
C213 H255 0.930 . S
C214 C215 1.348 . S
C214 C216 1.356 . S
C214 O239 1.325 . S
C215 C214 1.348 . S
C215 C217 1.353 . S
C215 H256 0.929 . S
C216 C214 1.356 . S
C216 C218 1.358 . S
C216 H257 0.930 . S
C217 C215 1.353 . S
C217 N219 1.314 . S
C217 H258 0.930 . S
C218 C216 1.358 . S
C218 N219 1.279 . S
C218 H259 0.930 . S
N219 C217 1.314 . S
N219 C218 1.279 . S
C220 C222 1.353 . S
C220 N223 1.314 . S
C220 H226 0.930 . S
C221 N223 1.279 . S
C221 C224 1.358 . S
C221 H227 0.930 . S
C222 C220 1.353 . S
C222 C225 1.348 . S
C222 H260 0.929 . S
N223 Li178 1.990 . S
N223 C220 1.314 . S
N223 C221 1.279 . S
C224 C221 1.358 . S
C224 C225 1.356 . S
C224 H261 0.930 . S
C225 C222 1.348 . S
C225 C224 1.356 . S
H226 C220 0.930 . S
H227 C221 0.930 . S
C228 N229 1.314 . S
C228 C230 1.353 . S
C228 H234 0.930 . S
N229 Li179 1.990 . S
N229 C228 1.314 . S
N229 C232 1.279 . S
C230 C228 1.353 . S
C230 C233 1.348 . S
C230 H262 0.929 . S
C231 C232 1.358 . S
C231 C233 1.356 . S
C231 H263 0.930 . S
C232 N229 1.279 . S
C232 C231 1.358 . S
C232 H235 0.930 . S
C233 C230 1.348 . S
C233 C231 1.356 . S
H234 C228 0.930 . S
H235 C232 0.930 . S
O236 Li176 1.956 . S
O236 Li177 1.970 . S
O236 Li178 1.961 . S
O236 C180 1.325 . S
O237 Li176 1.970 . S
O237 Li177 1.956 . S
O237 Li179 1.961 . S
O237 C186 1.325 . S
O238 Li176 1.961 . S
O238 Li178 1.956 . S
O238 Li179 1.970 . S
O238 C208 1.325 . S
O239 Li177 1.961 . S
O239 Li178 1.970 . S
O239 Li179 1.956 . S
O239 C214 1.325 . S
H240 C182 0.929 . S
H241 C183 0.930 . S
H242 C184 0.930 . S
H243 C185 0.930 . S
H244 C187 0.930 . S
H245 C189 0.929 . S
H246 C190 0.930 . S
H247 C191 0.930 . S
H248 C194 0.930 . S
H249 C197 0.929 . S
H250 C202 0.929 . S
H251 C203 0.930 . S
H252 C210 0.929 . S
H253 C211 0.930 . S
H254 C212 0.930 . S
H255 C213 0.930 . S
H256 C215 0.929 . S
H257 C216 0.930 . S
H258 C217 0.930 . S
H259 C218 0.930 . S
H260 C222 0.929 . S
H261 C224 0.930 . S
H262 C230 0.929 . S
H263 C231 0.930 . S
Li264 N281 1.990 . S
Li264 O324 1.956 . S
Li264 O325 1.970 . S
Li264 O326 1.961 . S
Li265 N289 1.990 . S
Li265 O324 1.970 . S
Li265 O325 1.956 . S
Li265 O327 1.961 1_554 S
Li266 N311 1.990 . S
Li266 O324 1.961 . S
Li266 O326 1.956 . S
Li266 O327 1.970 1_554 S
Li267 N317 1.990 . S
Li267 O325 1.961 1_556 S
Li267 O326 1.970 1_556 S
Li267 O327 1.956 . S
C268 C270 1.348 . S
C268 C271 1.356 . S
C268 O324 1.325 . S
N269 C272 1.314 . S
N269 C273 1.279 . S
C270 C268 1.348 . S
C270 C272 1.353 . S
C270 H328 0.929 . S
C271 C268 1.356 . S
C271 C273 1.358 . S
C271 H329 0.930 . S
C272 N269 1.314 . S
C272 C270 1.353 . S
C272 H330 0.930 . S
C273 N269 1.279 . S
C273 C271 1.358 . S
C273 H331 0.930 . S
C274 C277 1.348 . S
C274 C278 1.356 1_554 S
C274 O325 1.325 . S
C275 N276 1.279 . S
C275 C278 1.358 1_554 S
C275 H332 0.930 1_554 S
N276 C275 1.279 . S
N276 C279 1.314 . S
C277 C274 1.348 . S
C277 C279 1.353 . S
C277 H333 0.929 . S
C278 C274 1.356 1_556 S
C278 C275 1.358 1_556 S
C278 H334 0.930 . S
C279 N276 1.314 . S
C279 C277 1.353 . S
C279 H335 0.930 . S
C280 N281 1.314 . S
C280 C285 1.353 . S
C280 H286 0.930 . S
N281 Li264 1.990 . S
N281 C280 1.314 . S
N281 C283 1.279 . S
C282 C283 1.358 . S
C282 C284 1.356 . S
C282 H336 0.930 . S
C283 N281 1.279 . S
C283 C282 1.358 . S
C283 H287 0.930 . S
C284 C282 1.356 . S
C284 C285 1.348 . S
C285 C280 1.353 . S
C285 C284 1.348 . S
C285 H337 0.929 . S
H286 C280 0.930 . S
H287 C283 0.930 . S
C288 N289 1.314 1_556 S
C288 C290 1.353 . S
C288 H294 0.930 . S
N289 Li265 1.990 . S
N289 C288 1.314 1_554 S
N289 C292 1.279 . S
C290 C288 1.353 . S
C290 C293 1.348 1_556 S
C290 H338 0.929 . S
C291 C292 1.358 . S
C291 C293 1.356 . S
C291 H339 0.930 . S
C292 N289 1.279 . S
C292 C291 1.358 . S
C292 H295 0.930 . S
C293 C290 1.348 1_554 S
C293 C291 1.356 . S
H294 C288 0.930 . S
H295 C292 0.930 . S
C296 C298 1.355 . S
C296 C299 1.356 . S
C296 O326 1.325 . S
N297 C300 1.314 . S
N297 C301 1.279 . S
C298 C296 1.355 . S
C298 C300 1.355 . S
C298 H340 0.920 1_554 S
C299 C296 1.356 . S
C299 C301 1.358 . S
C299 H341 0.930 . S
C300 N297 1.314 . S
C300 C298 1.355 . S
C300 H342 0.930 1_554 S
C301 N297 1.279 . S
C301 C299 1.358 . S
C301 H343 0.930 . S
C302 C303 1.348 . S
C302 C304 1.356 . S
C302 O327 1.325 . S
C303 C302 1.348 . S
C303 C305 1.353 . S
C303 H344 0.929 . S
C304 C302 1.356 . S
C304 C306 1.358 . S
C304 H345 0.930 . S
C305 C303 1.353 . S
C305 N307 1.314 . S
C305 H346 0.930 . S
C306 C304 1.358 . S
C306 N307 1.279 . S
C306 H347 0.930 . S
N307 C305 1.314 . S
N307 C306 1.279 . S
C308 C310 1.353 . S
C308 N311 1.314 . S
C308 H314 0.930 . S
C309 N311 1.279 . S
C309 C312 1.358 . S
C309 H315 0.930 . S
C310 C308 1.353 . S
C310 C313 1.348 . S
C310 H348 0.929 . S
N311 Li266 1.990 . S
N311 C308 1.314 . S
N311 C309 1.279 . S
C312 C309 1.358 . S
C312 C313 1.356 . S
C312 H349 0.930 1_554 S
C313 C310 1.348 . S
C313 C312 1.356 . S
H314 C308 0.930 . S
H315 C309 0.930 . S
C316 N317 1.314 . S
C316 C318 1.353 . S
C316 H322 0.930 . S
N317 Li267 1.990 . S
N317 C316 1.314 . S
N317 C320 1.279 . S
C318 C316 1.353 . S
C318 C321 1.348 . S
C318 H350 0.929 . S
C319 C320 1.358 . S
C319 C321 1.356 . S
C319 H351 0.930 . S
C320 N317 1.279 . S
C320 C319 1.358 . S
C320 H323 0.930 . S
C321 C318 1.348 . S
C321 C319 1.356 . S
H322 C316 0.930 . S
H323 C320 0.930 . S
O324 Li264 1.956 . S
O324 Li265 1.970 . S
O324 Li266 1.961 . S
O324 C268 1.325 . S
O325 Li264 1.970 . S
O325 Li265 1.956 . S
O325 Li267 1.961 1_554 S
O325 C274 1.325 . S
O326 Li264 1.961 . S
O326 Li266 1.956 . S
O326 Li267 1.970 1_554 S
O326 C296 1.325 . S
O327 Li265 1.961 1_556 S
O327 Li266 1.970 1_556 S
O327 Li267 1.956 . S
O327 C302 1.325 . S
H328 C270 0.929 . S
H329 C271 0.930 . S
H330 C272 0.930 . S
H331 C273 0.930 . S
H332 C275 0.930 1_556 S
H333 C277 0.929 . S
H334 C278 0.930 . S
H335 C279 0.930 . S
H336 C282 0.930 . S
H337 C285 0.929 . S
H338 C290 0.929 . S
H339 C291 0.930 . S
H340 C298 0.920 1_556 S
H341 C299 0.930 . S
H342 C300 0.930 1_556 S
H343 C301 0.930 . S
H344 C303 0.929 . S
H345 C304 0.930 . S
H346 C305 0.930 . S
H347 C306 0.930 . S
H348 C310 0.929 . S
H349 C312 0.930 1_556 S
H350 C318 0.929 . S
H351 C319 0.930 . S
Li352 N369 1.994 . S
Li352 O412 1.998 . S
Li352 O413 1.926 1_455 S
Li352 O414 1.958 1_455 S
Li353 N377 1.993 . S
Li353 O412 1.939 1_655 S
Li353 O413 1.986 . S
Li353 O415 1.958 1_655 S
Li354 N399 1.990 . S
Li354 O412 1.961 . S
Li354 O414 1.931 1_455 S
Li354 O415 2.005 . S
Li355 N405 1.990 . S
Li355 O413 1.961 . S
Li355 O414 1.994 . S
Li355 O415 1.919 1_655 S
C356 C358 1.348 . S
C356 C359 1.356 . S
C356 O412 1.325 . S
N357 C360 1.314 . S
N357 C361 1.279 . S
C358 C356 1.348 . S
C358 C360 1.353 . S
C358 H416 0.929 . S
C359 C356 1.356 . S
C359 C361 1.358 . S
C359 H417 0.930 . S
C360 N357 1.314 . S
C360 C358 1.353 . S
C360 H418 0.930 . S
C361 N357 1.279 . S
C361 C359 1.358 . S
C361 H419 0.930 . S
C362 C365 1.348 . S
C362 C366 1.356 . S
C362 O413 1.325 . S
C363 N364 1.279 . S
C363 C366 1.358 . S
C363 H420 0.930 . S
N364 C363 1.279 . S
N364 C367 1.314 . S
C365 C362 1.348 . S
C365 C367 1.353 . S
C365 H421 0.929 . S
C366 C362 1.356 . S
C366 C363 1.358 . S
C366 H422 0.930 . S
C367 N364 1.314 . S
C367 C365 1.353 . S
C367 H423 0.930 . S
C368 N369 1.314 1_655 S
C368 C373 1.353 . S
C368 H374 0.930 . S
N369 Li352 1.994 . S
N369 C368 1.314 1_455 S
N369 C371 1.279 . S
C370 C371 1.358 . S
C370 C372 1.356 . S
C370 H424 0.930 . S
C371 N369 1.279 . S
C371 C370 1.358 . S
C371 H375 0.930 . S
C372 C370 1.356 . S
C372 C373 1.348 1_455 S
C373 C368 1.353 . S
C373 C372 1.348 1_655 S
C373 H425 0.929 . S
H374 C368 0.930 . S
H375 C371 0.930 . S
C376 N377 1.314 1_455 S
C376 C378 1.353 1_556 S
C376 H382 0.930 . S
N377 Li353 1.993 . S
N377 C376 1.314 1_655 S
N377 C380 1.279 . S
C378 C376 1.353 1_554 S
C378 C381 1.348 . S
C378 H426 0.929 . S
C379 C380 1.358 . S
C379 C381 1.356 1_656 S
C379 H427 0.930 . S
C380 N377 1.279 . S
C380 C379 1.358 . S
C380 H383 0.930 . S
C381 C378 1.348 . S
C381 C379 1.356 1_454 S
H382 C376 0.930 . S
H383 C380 0.930 . S
C384 C386 1.348 1_455 S
C384 C387 1.356 . S
C384 O414 1.324 1_455 S
N385 C388 1.314 1_455 S
N385 C389 1.279 . S
C386 C384 1.348 1_655 S
C386 C388 1.353 . S
C386 H428 0.929 . S
C387 C384 1.356 . S
C387 C389 1.358 . S
C387 H429 0.930 . S
C388 N385 1.314 1_655 S
C388 C386 1.353 . S
C388 H430 0.930 . S
C389 N385 1.279 . S
C389 C387 1.358 . S
C389 H431 0.930 . S
C390 C391 1.348 . S
C390 C392 1.356 1_455 S
C390 O415 1.324 . S
C391 C390 1.348 . S
C391 C393 1.353 1_556 S
C391 H432 0.929 . S
C392 C390 1.356 1_655 S
C392 C394 1.358 1_556 S
C392 H433 0.930 . S
C393 C391 1.353 1_554 S
C393 N395 1.314 1_455 S
C393 H434 0.930 . S
C394 C392 1.358 1_554 S
C394 N395 1.279 . S
C394 H435 0.930 . S
N395 C393 1.314 1_655 S
N395 C394 1.279 . S
C396 C398 1.353 . S
C396 N399 1.314 . S
C396 H402 0.930 . S
C397 N399 1.279 . S
C397 C400 1.358 . S
C397 H403 0.930 . S
C398 C396 1.353 . S
C398 C401 1.348 . S
C398 H436 0.929 . S
N399 Li354 1.990 . S
N399 C396 1.314 . S
N399 C397 1.279 . S
C400 C397 1.358 . S
C400 C401 1.356 . S
C400 H437 0.930 . S
C401 C398 1.348 . S
C401 C400 1.356 . S
H402 C396 0.930 . S
H403 C397 0.930 . S
C404 N405 1.314 . S
C404 C406 1.353 . S
C404 H410 0.930 . S
N405 Li355 1.990 . S
N405 C404 1.314 . S
N405 C408 1.279 . S
C406 C404 1.353 . S
C406 C409 1.348 . S
C406 H438 0.929 . S
C407 C408 1.358 . S
C407 C409 1.356 . S
C407 H439 0.930 . S
C408 N405 1.279 . S
C408 C407 1.358 . S
C408 H411 0.930 . S
C409 C406 1.348 . S
C409 C407 1.356 . S
H410 C404 0.930 . S
H411 C408 0.930 . S
O412 Li352 1.998 . S
O412 Li353 1.939 1_455 S
O412 Li354 1.961 . S
O412 C356 1.325 . S
O413 Li352 1.926 1_655 S
O413 Li353 1.986 . S
O413 Li355 1.961 . S
O413 C362 1.325 . S
O414 Li352 1.958 1_655 S
O414 Li354 1.931 1_655 S
O414 Li355 1.994 . S
O414 C384 1.324 1_655 S
O415 Li353 1.958 1_455 S
O415 Li354 2.005 . S
O415 Li355 1.919 1_455 S
O415 C390 1.324 . S
H416 C358 0.929 . S
H417 C359 0.930 . S
H418 C360 0.930 . S
H419 C361 0.930 . S
H420 C363 0.930 . S
H421 C365 0.929 . S
H422 C366 0.930 . S
H423 C367 0.930 . S
H424 C370 0.930 . S
H425 C373 0.929 . S
H426 C378 0.929 . S
H427 C379 0.930 . S
H428 C386 0.929 . S
H429 C387 0.930 . S
H430 C388 0.930 . S
H431 C389 0.930 . S
H432 C391 0.929 . S
H433 C392 0.930 . S
H434 C393 0.930 . S
H435 C394 0.930 . S
H436 C398 0.929 . S
H437 C400 0.930 . S
H438 C406 0.929 . S
H439 C407 0.930 . S
Li440 N457 1.990 . S
Li440 O500 1.956 . S
Li440 O501 1.970 . S
Li440 O502 1.961 . S
Li441 N465 1.990 . S
Li441 O500 1.970 . S
Li441 O501 1.956 . S
Li441 O503 1.961 . S
Li442 N487 1.990 . S
Li442 O500 1.961 . S
Li442 O502 1.956 . S
Li442 O503 1.970 . S
Li443 N493 1.990 . S
Li443 O501 1.961 . S
Li443 O502 1.970 . S
Li443 O503 1.956 . S
C444 C446 1.348 . S
C444 C447 1.356 . S
C444 O500 1.325 . S
N445 C448 1.314 . S
N445 C449 1.279 . S
C446 C444 1.348 . S
C446 C448 1.353 . S
C446 H504 0.929 . S
C447 C444 1.356 . S
C447 C449 1.358 . S
C447 H505 0.930 . S
C448 N445 1.314 . S
C448 C446 1.353 . S
C448 H506 0.930 . S
C449 N445 1.279 . S
C449 C447 1.358 . S
C449 H507 0.930 . S
C450 C453 1.348 . S
C450 C454 1.356 . S
C450 O501 1.325 . S
C451 N452 1.279 . S
C451 C454 1.358 . S
C451 H508 0.930 . S
N452 C451 1.279 . S
N452 C455 1.314 . S
C453 C450 1.348 . S
C453 C455 1.353 . S
C453 H509 0.929 . S
C454 C450 1.356 . S
C454 C451 1.358 . S
C454 H510 0.930 . S
C455 N452 1.314 . S
C455 C453 1.353 . S
C455 H511 0.930 . S
C456 N457 1.314 . S
C456 C461 1.353 . S
C456 H462 0.930 . S
N457 Li440 1.990 . S
N457 C456 1.314 . S
N457 C459 1.279 . S
C458 C459 1.358 . S
C458 C460 1.356 . S
C458 H512 0.930 . S
C459 N457 1.279 . S
C459 C458 1.358 . S
C459 H463 0.930 . S
C460 C458 1.356 . S
C460 C461 1.348 . S
C461 C456 1.353 . S
C461 C460 1.348 . S
C461 H513 0.929 . S
H462 C456 0.930 . S
H463 C459 0.930 . S
C464 N465 1.314 . S
C464 C466 1.353 . S
C464 H470 0.930 . S
N465 Li441 1.990 . S
N465 C464 1.314 . S
N465 C468 1.279 . S
C466 C464 1.353 . S
C466 C469 1.348 . S
C466 H514 0.929 . S
C467 C468 1.358 . S
C467 C469 1.356 . S
C467 H515 0.930 . S
C468 N465 1.279 . S
C468 C467 1.358 . S
C468 H471 0.930 . S
C469 C466 1.348 . S
C469 C467 1.356 . S
H470 C464 0.930 . S
H471 C468 0.930 . S
C472 C474 1.348 . S
C472 C475 1.356 . S
C472 O502 1.325 . S
N473 C476 1.314 1_556 S
N473 C477 1.279 1_556 S
C474 C472 1.348 . S
C474 C476 1.353 . S
C474 H516 0.929 . S
C475 C472 1.356 . S
C475 C477 1.358 . S
C475 H517 0.930 . S
C476 N473 1.314 1_554 S
C476 C474 1.353 . S
C476 H518 0.930 . S
C477 N473 1.279 1_554 S
C477 C475 1.358 . S
C477 H519 0.930 1_554 S
C478 C479 1.348 . S
C478 C480 1.356 . S
C478 O503 1.325 . S
C479 C478 1.348 . S
C479 C481 1.353 . S
C479 H520 0.929 . S
C480 C478 1.356 . S
C480 C482 1.358 . S
C480 H521 0.930 . S
C481 C479 1.353 . S
C481 N483 1.314 . S
C481 H522 0.930 . S
C482 C480 1.358 . S
C482 N483 1.279 . S
C482 H523 0.930 . S
N483 C481 1.314 . S
N483 C482 1.279 . S
C484 C486 1.353 1_554 S
C484 N487 1.314 . S
C484 H490 0.930 . S
C485 N487 1.279 1_556 S
C485 C488 1.358 . S
C485 H491 0.930 . S
C486 C484 1.353 1_556 S
C486 C489 1.348 . S
C486 H524 0.929 . S
N487 Li442 1.990 . S
N487 C484 1.314 . S
N487 C485 1.279 1_554 S
C488 C485 1.358 . S
C488 C489 1.356 . S
C488 H525 0.930 . S
C489 C486 1.348 . S
C489 C488 1.356 . S
H490 C484 0.930 . S
H491 C485 0.930 . S
C492 N493 1.314 . S
C492 C494 1.353 . S
C492 H498 0.930 . S
N493 Li443 1.990 . S
N493 C492 1.314 . S
N493 C496 1.279 . S
C494 C492 1.353 . S
C494 C497 1.348 . S
C494 H526 0.929 . S
C495 C496 1.358 . S
C495 C497 1.356 . S
C495 H527 0.930 . S
C496 N493 1.279 . S
C496 C495 1.358 . S
C496 H499 0.930 . S
C497 C494 1.348 . S
C497 C495 1.356 . S
H498 C492 0.930 . S
H499 C496 0.930 . S
O500 Li440 1.956 . S
O500 Li441 1.970 . S
O500 Li442 1.961 . S
O500 C444 1.325 . S
O501 Li440 1.970 . S
O501 Li441 1.956 . S
O501 Li443 1.961 . S
O501 C450 1.325 . S
O502 Li440 1.961 . S
O502 Li442 1.956 . S
O502 Li443 1.970 . S
O502 C472 1.325 . S
O503 Li441 1.961 . S
O503 Li442 1.970 . S
O503 Li443 1.956 . S
O503 C478 1.325 . S
H504 C446 0.929 . S
H505 C447 0.930 . S
H506 C448 0.930 . S
H507 C449 0.930 . S
H508 C451 0.930 . S
H509 C453 0.929 . S
H510 C454 0.930 . S
H511 C455 0.930 . S
H512 C458 0.930 . S
H513 C461 0.929 . S
H514 C466 0.929 . S
H515 C467 0.930 . S
H516 C474 0.929 . S
H517 C475 0.930 . S
H518 C476 0.930 . S
H519 C477 0.930 1_556 S
H520 C479 0.929 . S
H521 C480 0.930 . S
H522 C481 0.930 . S
H523 C482 0.930 . S
H524 C486 0.929 . S
H525 C488 0.930 . S
H526 C494 0.929 . S
H527 C495 0.930 . S
Li528 N545 1.990 . S
Li528 O588 1.956 . S
Li528 O589 1.970 . S
Li528 O590 1.961 . S
Li529 N553 1.990 . S
Li529 O588 1.970 . S
Li529 O589 1.956 . S
Li529 O591 1.961 . S
Li530 N575 1.990 . S
Li530 O588 1.961 . S
Li530 O590 1.956 . S
Li530 O591 1.970 . S
Li531 N581 1.990 . S
Li531 O589 1.961 . S
Li531 O590 1.970 . S
Li531 O591 1.956 . S
C532 C534 1.348 . S
C532 C535 1.356 . S
C532 O588 1.325 . S
N533 C536 1.314 . S
N533 C537 1.279 . S
C534 C532 1.348 . S
C534 C536 1.353 . S
C534 H592 0.929 . S
C535 C532 1.356 . S
C535 C537 1.358 . S
C535 H593 0.930 . S
C536 N533 1.314 . S
C536 C534 1.353 . S
C536 H594 0.930 . S
C537 N533 1.279 . S
C537 C535 1.358 . S
C537 H595 0.930 . S
C538 C541 1.348 . S
C538 C542 1.356 . S
C538 O589 1.325 . S
C539 N540 1.279 . S
C539 C542 1.358 . S
C539 H596 0.930 . S
N540 C539 1.279 . S
N540 C543 1.314 . S
C541 C538 1.348 . S
C541 C543 1.353 . S
C541 H597 0.929 . S
C542 C538 1.356 . S
C542 C539 1.358 . S
C542 H598 0.930 . S
C543 N540 1.314 . S
C543 C541 1.353 . S
C543 H599 0.930 . S
C544 N545 1.314 . S
C544 C549 1.353 . S
C544 H550 0.930 . S
N545 Li528 1.990 . S
N545 C544 1.314 . S
N545 C547 1.279 . S
C546 C547 1.358 . S
C546 C548 1.356 . S
C546 H600 0.930 . S
C547 N545 1.279 . S
C547 C546 1.358 . S
C547 H551 0.930 . S
C548 C546 1.356 . S
C548 C549 1.348 . S
C549 C544 1.353 . S
C549 C548 1.348 . S
C549 H601 0.929 . S
H550 C544 0.930 . S
H551 C547 0.930 . S
C552 N553 1.314 . S
C552 C554 1.353 . S
C552 H558 0.930 . S
N553 Li529 1.990 . S
N553 C552 1.314 . S
N553 C556 1.279 . S
C554 C552 1.353 . S
C554 C557 1.348 . S
C554 H602 0.929 . S
C555 C556 1.358 . S
C555 C557 1.356 . S
C555 H603 0.930 . S
C556 N553 1.279 . S
C556 C555 1.358 . S
C556 H559 0.930 . S
C557 C554 1.348 . S
C557 C555 1.356 . S
H558 C552 0.930 . S
H559 C556 0.930 . S
C560 C562 1.348 . S
C560 C563 1.356 . S
C560 O590 1.325 . S
N561 C564 1.314 . S
N561 C565 1.279 . S
C562 C560 1.348 . S
C562 C564 1.353 . S
C562 H604 0.929 . S
C563 C560 1.356 . S
C563 C565 1.358 . S
C563 H605 0.930 . S
C564 N561 1.314 . S
C564 C562 1.353 . S
C564 H606 0.930 . S
C565 N561 1.279 . S
C565 C563 1.358 . S
C565 H607 0.930 . S
C566 C567 1.348 . S
C566 C568 1.356 . S
C566 O591 1.325 . S
C567 C566 1.348 . S
C567 C569 1.353 . S
C567 H608 0.929 . S
C568 C566 1.356 . S
C568 C570 1.358 . S
C568 H609 0.930 . S
C569 C567 1.353 . S
C569 N571 1.314 . S
C569 H610 0.930 . S
C570 C568 1.358 . S
C570 N571 1.279 . S
C570 H611 0.930 . S
N571 C569 1.314 . S
N571 C570 1.279 . S
C572 C574 1.353 . S
C572 N575 1.314 . S
C572 H578 0.930 . S
C573 N575 1.279 . S
C573 C576 1.358 . S
C573 H579 0.930 . S
C574 C572 1.353 . S
C574 C577 1.348 . S
C574 H612 0.929 . S
N575 Li530 1.990 . S
N575 C572 1.314 . S
N575 C573 1.279 . S
C576 C573 1.358 . S
C576 C577 1.356 . S
C576 H613 0.930 . S
C577 C574 1.348 . S
C577 C576 1.356 . S
H578 C572 0.930 . S
H579 C573 0.930 . S
C580 N581 1.314 . S
C580 C582 1.353 . S
C580 H586 0.930 . S
N581 Li531 1.990 . S
N581 C580 1.314 . S
N581 C584 1.279 . S
C582 C580 1.353 . S
C582 C585 1.348 . S
C582 H614 0.929 . S
C583 C584 1.358 . S
C583 C585 1.356 . S
C583 H615 0.930 . S
C584 N581 1.279 . S
C584 C583 1.358 . S
C584 H587 0.930 . S
C585 C582 1.348 . S
C585 C583 1.356 . S
H586 C580 0.930 . S
H587 C584 0.930 . S
O588 Li528 1.956 . S
O588 Li529 1.970 . S
O588 Li530 1.961 . S
O588 C532 1.325 . S
O589 Li528 1.970 . S
O589 Li529 1.956 . S
O589 Li531 1.961 . S
O589 C538 1.325 . S
O590 Li528 1.961 . S
O590 Li530 1.956 . S
O590 Li531 1.970 . S
O590 C560 1.325 . S
O591 Li529 1.961 . S
O591 Li530 1.970 . S
O591 Li531 1.956 . S
O591 C566 1.325 . S
H592 C534 0.929 . S
H593 C535 0.930 . S
H594 C536 0.930 . S
H595 C537 0.930 . S
H596 C539 0.930 . S
H597 C541 0.929 . S
H598 C542 0.930 . S
H599 C543 0.930 . S
H600 C546 0.930 . S
H601 C549 0.929 . S
H602 C554 0.929 . S
H603 C555 0.930 . S
H604 C562 0.929 . S
H605 C563 0.930 . S
H606 C564 0.930 . S
H607 C565 0.930 . S
H608 C567 0.929 . S
H609 C568 0.930 . S
H610 C569 0.930 . S
H611 C570 0.930 . S
H612 C574 0.929 . S
H613 C576 0.930 . S
H614 C582 0.929 . S
H615 C583 0.930 . S
Li616 N633 1.990 . S
Li616 O676 1.956 . S
Li616 O677 1.970 . S
Li616 O678 1.961 . S
Li617 N641 1.990 . S
Li617 O676 1.970 . S
Li617 O677 1.956 . S
Li617 O679 1.961 . S
Li618 N663 1.990 . S
Li618 O676 1.961 . S
Li618 O678 1.956 . S
Li618 O679 1.970 . S
Li619 N669 1.990 . S
Li619 O677 1.961 . S
Li619 O678 1.970 . S
Li619 O679 1.956 . S
C620 C622 1.348 . S
C620 C623 1.356 . S
C620 O676 1.325 . S
N621 C624 1.314 . S
N621 C625 1.279 . S
C622 C620 1.348 . S
C622 C624 1.353 . S
C622 H680 0.929 . S
C623 C620 1.356 . S
C623 C625 1.358 . S
C623 H681 0.930 . S
C624 N621 1.314 . S
C624 C622 1.353 . S
C624 H682 0.930 . S
C625 N621 1.279 . S
C625 C623 1.358 . S
C625 H683 0.930 . S
C626 C629 1.348 . S
C626 C630 1.356 . S
C626 O677 1.325 . S
C627 N628 1.279 . S
C627 C630 1.358 . S
C627 H684 0.930 . S
N628 C627 1.279 . S
N628 C631 1.314 . S
C629 C626 1.348 . S
C629 C631 1.353 . S
C629 H685 0.929 . S
C630 C626 1.356 . S
C630 C627 1.358 . S
C630 H686 0.930 . S
C631 N628 1.314 . S
C631 C629 1.353 . S
C631 H687 0.930 . S
C632 N633 1.314 . S
C632 C637 1.353 . S
C632 H638 0.930 . S
N633 Li616 1.990 . S
N633 C632 1.314 . S
N633 C635 1.279 . S
C634 C635 1.358 . S
C634 C636 1.356 . S
C634 H688 0.930 . S
C635 N633 1.279 . S
C635 C634 1.358 . S
C635 H639 0.930 . S
C636 C634 1.356 . S
C636 C637 1.348 . S
C637 C632 1.353 . S
C637 C636 1.348 . S
C637 H689 0.929 . S
H638 C632 0.930 . S
H639 C635 0.930 . S
C640 N641 1.314 . S
C640 C642 1.353 . S
C640 H646 0.930 . S
N641 Li617 1.990 . S
N641 C640 1.314 . S
N641 C644 1.279 . S
C642 C640 1.353 . S
C642 C645 1.348 . S
C642 H690 0.929 . S
C643 C644 1.358 . S
C643 C645 1.356 . S
C643 H691 0.930 . S
C644 N641 1.279 . S
C644 C643 1.358 . S
C644 H647 0.930 . S
C645 C642 1.348 . S
C645 C643 1.356 . S
H646 C640 0.930 . S
H647 C644 0.930 . S
C648 C650 1.348 . S
C648 C651 1.356 . S
C648 O678 1.325 . S
N649 C652 1.314 . S
N649 C653 1.279 . S
C650 C648 1.348 . S
C650 C652 1.353 . S
C650 H692 0.929 . S
C651 C648 1.356 . S
C651 C653 1.358 . S
C651 H693 0.930 . S
C652 N649 1.314 . S
C652 C650 1.353 . S
C652 H694 0.930 . S
C653 N649 1.279 . S
C653 C651 1.358 . S
C653 H695 0.930 . S
C654 C655 1.348 . S
C654 C656 1.356 . S
C654 O679 1.325 . S
C655 C654 1.348 . S
C655 C657 1.353 . S
C655 H696 0.929 . S
C656 C654 1.356 . S
C656 C658 1.358 . S
C656 H697 0.930 . S
C657 C655 1.353 . S
C657 N659 1.314 . S
C657 H698 0.930 . S
C658 C656 1.358 . S
C658 N659 1.279 . S
C658 H699 0.930 . S
N659 C657 1.314 . S
N659 C658 1.279 . S
C660 C662 1.353 . S
C660 N663 1.314 . S
C660 H666 0.930 . S
C661 N663 1.279 . S
C661 C664 1.358 . S
C661 H667 0.930 . S
C662 C660 1.353 . S
C662 C665 1.348 . S
C662 H700 0.929 . S
N663 Li618 1.990 . S
N663 C660 1.314 . S
N663 C661 1.279 . S
C664 C661 1.358 . S
C664 C665 1.356 . S
C664 H701 0.930 . S
C665 C662 1.348 . S
C665 C664 1.356 . S
H666 C660 0.930 . S
H667 C661 0.930 . S
C668 N669 1.314 . S
C668 C670 1.353 . S
C668 H674 0.930 . S
N669 Li619 1.990 . S
N669 C668 1.314 . S
N669 C672 1.279 . S
C670 C668 1.353 . S
C670 C673 1.348 . S
C670 H702 0.929 . S
C671 C672 1.358 . S
C671 C673 1.356 . S
C671 H703 0.930 . S
C672 N669 1.279 . S
C672 C671 1.358 . S
C672 H675 0.930 . S
C673 C670 1.348 . S
C673 C671 1.356 . S
H674 C668 0.930 . S
H675 C672 0.930 . S
O676 Li616 1.956 . S
O676 Li617 1.970 . S
O676 Li618 1.961 . S
O676 C620 1.325 . S
O677 Li616 1.970 . S
O677 Li617 1.956 . S
O677 Li619 1.961 . S
O677 C626 1.325 . S
O678 Li616 1.961 . S
O678 Li618 1.956 . S
O678 Li619 1.970 . S
O678 C648 1.325 . S
O679 Li617 1.961 . S
O679 Li618 1.970 . S
O679 Li619 1.956 . S
O679 C654 1.325 . S
H680 C622 0.929 . S
H681 C623 0.930 . S
H682 C624 0.930 . S
H683 C625 0.930 . S
H684 C627 0.930 . S
H685 C629 0.929 . S
H686 C630 0.930 . S
H687 C631 0.930 . S
H688 C634 0.930 . S
H689 C637 0.929 . S
H690 C642 0.929 . S
H691 C643 0.930 . S
H692 C650 0.929 . S
H693 C651 0.930 . S
H694 C652 0.930 . S
H695 C653 0.930 . S
H696 C655 0.929 . S
H697 C656 0.930 . S
H698 C657 0.930 . S
H699 C658 0.930 . S
H700 C662 0.929 . S
H701 C664 0.930 . S
H702 C670 0.929 . S
H703 C671 0.930 . S
Li704 N721 1.990 . S
Li704 O764 1.956 . S
Li704 O765 1.970 . S
Li704 O766 1.961 . S
Li705 N729 1.990 . S
Li705 O764 1.970 . S
Li705 O765 1.956 . S
Li705 O767 1.961 . S
Li706 N751 1.990 . S
Li706 O764 1.961 . S
Li706 O766 1.956 . S
Li706 O767 1.970 . S
Li707 N757 1.990 . S
Li707 O765 1.961 . S
Li707 O766 1.970 . S
Li707 O767 1.956 . S
C708 C710 1.348 . S
C708 C711 1.356 . S
C708 O764 1.325 . S
N709 C712 1.314 . S
N709 C713 1.279 . S
C710 C708 1.348 . S
C710 C712 1.353 . S
C710 H768 0.929 . S
C711 C708 1.356 . S
C711 C713 1.358 . S
C711 H769 0.930 . S
C712 N709 1.314 . S
C712 C710 1.353 . S
C712 H770 0.930 . S
C713 N709 1.279 . S
C713 C711 1.358 . S
C713 H771 0.930 . S
C714 C717 1.348 . S
C714 C718 1.356 . S
C714 O765 1.325 . S
C715 N716 1.279 . S
C715 C718 1.358 . S
C715 H772 0.930 . S
N716 C715 1.279 . S
N716 C719 1.314 . S
C717 C714 1.348 . S
C717 C719 1.353 . S
C717 H773 0.929 . S
C718 C714 1.356 . S
C718 C715 1.358 . S
C718 H774 0.930 . S
C719 N716 1.314 . S
C719 C717 1.353 . S
C719 H775 0.930 . S
C720 N721 1.314 . S
C720 C725 1.353 . S
C720 H726 0.930 . S
N721 Li704 1.990 . S
N721 C720 1.314 . S
N721 C723 1.279 . S
C722 C723 1.358 . S
C722 C724 1.356 . S
C722 H776 0.930 . S
C723 N721 1.279 . S
C723 C722 1.358 . S
C723 H727 0.930 . S
C724 C722 1.356 . S
C724 C725 1.348 . S
C725 C720 1.353 . S
C725 C724 1.348 . S
C725 H777 0.929 . S
H726 C720 0.930 . S
H727 C723 0.930 . S
C728 N729 1.314 . S
C728 C730 1.353 . S
C728 H734 0.930 . S
N729 Li705 1.990 . S
N729 C728 1.314 . S
N729 C732 1.279 . S
C730 C728 1.353 . S
C730 C733 1.348 . S
C730 H778 0.929 . S
C731 C732 1.358 . S
C731 C733 1.356 . S
C731 H779 0.930 . S
C732 N729 1.279 . S
C732 C731 1.358 . S
C732 H735 0.930 . S
C733 C730 1.348 . S
C733 C731 1.356 . S
H734 C728 0.930 . S
H735 C732 0.930 . S
C736 C738 1.348 . S
C736 C739 1.356 . S
C736 O766 1.325 . S
N737 C740 1.314 . S
N737 C741 1.279 . S
C738 C736 1.348 . S
C738 C740 1.353 . S
C738 H780 0.929 . S
C739 C736 1.356 . S
C739 C741 1.358 . S
C739 H781 0.930 . S
C740 N737 1.314 . S
C740 C738 1.353 . S
C740 H782 0.930 . S
C741 N737 1.279 . S
C741 C739 1.358 . S
C741 H783 0.930 . S
C742 C743 1.348 . S
C742 C744 1.356 . S
C742 O767 1.325 . S
C743 C742 1.348 . S
C743 C745 1.353 . S
C743 H784 0.929 . S
C744 C742 1.356 . S
C744 C746 1.358 . S
C744 H785 0.930 . S
C745 C743 1.353 . S
C745 N747 1.314 . S
C745 H786 0.930 . S
C746 C744 1.358 . S
C746 N747 1.279 . S
C746 H787 0.930 . S
N747 C745 1.314 . S
N747 C746 1.279 . S
C748 C750 1.353 . S
C748 N751 1.314 . S
C748 H754 0.930 . S
C749 N751 1.279 . S
C749 C752 1.358 . S
C749 H755 0.930 . S
C750 C748 1.353 . S
C750 C753 1.348 . S
C750 H788 0.929 . S
N751 Li706 1.990 . S
N751 C748 1.314 . S
N751 C749 1.279 . S
C752 C749 1.358 . S
C752 C753 1.356 . S
C752 H789 0.930 . S
C753 C750 1.348 . S
C753 C752 1.356 . S
H754 C748 0.930 . S
H755 C749 0.930 . S
C756 N757 1.314 . S
C756 C758 1.353 . S
C756 H762 0.930 . S
N757 Li707 1.990 . S
N757 C756 1.314 . S
N757 C760 1.279 . S
C758 C756 1.353 . S
C758 C761 1.348 . S
C758 H790 0.929 . S
C759 C760 1.358 . S
C759 C761 1.356 . S
C759 H791 0.930 . S
C760 N757 1.279 . S
C760 C759 1.358 . S
C760 H763 0.930 . S
C761 C758 1.348 . S
C761 C759 1.356 . S
H762 C756 0.930 . S
H763 C760 0.930 . S
O764 Li704 1.956 . S
O764 Li705 1.970 . S
O764 Li706 1.961 . S
O764 C708 1.325 . S
O765 Li704 1.970 . S
O765 Li705 1.956 . S
O765 Li707 1.961 . S
O765 C714 1.325 . S
O766 Li704 1.961 . S
O766 Li706 1.956 . S
O766 Li707 1.970 . S
O766 C736 1.325 . S
O767 Li705 1.961 . S
O767 Li706 1.970 . S
O767 Li707 1.956 . S
O767 C742 1.325 . S
H768 C710 0.929 . S
H769 C711 0.930 . S
H770 C712 0.930 . S
H771 C713 0.930 . S
H772 C715 0.930 . S
H773 C717 0.929 . S
H774 C718 0.930 . S
H775 C719 0.930 . S
H776 C722 0.930 . S
H777 C725 0.929 . S
H778 C730 0.929 . S
H779 C731 0.930 . S
H780 C738 0.929 . S
H781 C739 0.930 . S
H782 C740 0.930 . S
H783 C741 0.930 . S
H784 C743 0.929 . S
H785 C744 0.930 . S
H786 C745 0.930 . S
H787 C746 0.930 . S
H788 C750 0.929 . S
H789 C752 0.930 . S
H790 C758 0.929 . S
H791 C759 0.930 . S
Li792 N809 1.990 . S
Li792 O852 1.956 . S
Li792 O853 1.970 . S
Li792 O854 1.961 . S
Li793 N817 1.990 . S
Li793 O852 1.970 . S
Li793 O853 1.956 . S
Li793 O855 1.961 . S
Li794 N839 1.990 . S
Li794 O852 1.961 . S
Li794 O854 1.956 . S
Li794 O855 1.970 . S
Li795 N845 1.990 . S
Li795 O853 1.961 . S
Li795 O854 1.970 . S
Li795 O855 1.956 . S
C796 C798 1.348 . S
C796 C799 1.356 . S
C796 O852 1.325 . S
N797 C800 1.314 . S
N797 C801 1.279 . S
C798 C796 1.348 . S
C798 C800 1.353 . S
C798 H856 0.929 . S
C799 C796 1.356 . S
C799 C801 1.358 . S
C799 H857 0.930 . S
C800 N797 1.314 . S
C800 C798 1.353 . S
C800 H858 0.930 . S
C801 N797 1.279 . S
C801 C799 1.358 . S
C801 H859 0.930 . S
C802 C805 1.348 . S
C802 C806 1.356 . S
C802 O853 1.325 . S
C803 N804 1.279 . S
C803 C806 1.358 . S
C803 H860 0.930 . S
N804 C803 1.279 . S
N804 C807 1.314 . S
C805 C802 1.348 . S
C805 C807 1.353 . S
C805 H861 0.929 . S
C806 C802 1.356 . S
C806 C803 1.358 . S
C806 H862 0.930 . S
C807 N804 1.314 . S
C807 C805 1.353 . S
C807 H863 0.930 . S
C808 N809 1.314 . S
C808 C813 1.353 . S
C808 H814 0.930 . S
N809 Li792 1.990 . S
N809 C808 1.314 . S
N809 C811 1.279 . S
C810 C811 1.358 . S
C810 C812 1.356 . S
C810 H864 0.930 . S
C811 N809 1.279 . S
C811 C810 1.358 . S
C811 H815 0.930 . S
C812 C810 1.356 . S
C812 C813 1.348 . S
C813 C808 1.353 . S
C813 C812 1.348 . S
C813 H865 0.929 . S
H814 C808 0.930 . S
H815 C811 0.930 . S
C816 N817 1.314 . S
C816 C818 1.353 . S
C816 H822 0.930 . S
N817 Li793 1.990 . S
N817 C816 1.314 . S
N817 C820 1.279 . S
C818 C816 1.353 . S
C818 C821 1.348 . S
C818 H866 0.929 . S
C819 C820 1.358 . S
C819 C821 1.356 . S
C819 H867 0.930 . S
C820 N817 1.279 . S
C820 C819 1.358 . S
C820 H823 0.930 . S
C821 C818 1.348 . S
C821 C819 1.356 . S
H822 C816 0.930 . S
H823 C820 0.930 . S
C824 C826 1.348 . S
C824 C827 1.356 . S
C824 O854 1.325 . S
N825 C828 1.314 1_556 S
N825 C829 1.279 1_556 S
C826 C824 1.348 . S
C826 C828 1.353 . S
C826 H868 0.929 . S
C827 C824 1.356 . S
C827 C829 1.358 . S
C827 H869 0.930 . S
C828 N825 1.314 1_554 S
C828 C826 1.353 . S
C828 H870 0.930 . S
C829 N825 1.279 1_554 S
C829 C827 1.358 . S
C829 H871 0.930 1_554 S
C830 C831 1.348 . S
C830 C832 1.356 . S
C830 O855 1.325 . S
C831 C830 1.348 . S
C831 C833 1.353 . S
C831 H872 0.929 . S
C832 C830 1.356 . S
C832 C834 1.358 . S
C832 H873 0.930 . S
C833 C831 1.353 . S
C833 N835 1.314 . S
C833 H874 0.930 . S
C834 C832 1.358 . S
C834 N835 1.279 . S
C834 H875 0.930 . S
N835 C833 1.314 . S
N835 C834 1.279 . S
C836 C838 1.353 1_554 S
C836 N839 1.314 . S
C836 H842 0.930 . S
C837 N839 1.279 1_556 S
C837 C840 1.358 . S
C837 H843 0.930 . S
C838 C836 1.353 1_556 S
C838 C841 1.348 . S
C838 H876 0.929 . S
N839 Li794 1.990 . S
N839 C836 1.314 . S
N839 C837 1.279 1_554 S
C840 C837 1.358 . S
C840 C841 1.356 . S
C840 H877 0.930 . S
C841 C838 1.348 . S
C841 C840 1.356 . S
H842 C836 0.930 . S
H843 C837 0.930 . S
C844 N845 1.314 . S
C844 C846 1.353 . S
C844 H850 0.930 . S
N845 Li795 1.990 . S
N845 C844 1.314 . S
N845 C848 1.279 . S
C846 C844 1.353 . S
C846 C849 1.348 . S
C846 H878 0.929 . S
C847 C848 1.358 . S
C847 C849 1.356 . S
C847 H879 0.930 . S
C848 N845 1.279 . S
C848 C847 1.358 . S
C848 H851 0.930 . S
C849 C846 1.348 . S
C849 C847 1.356 . S
H850 C844 0.930 . S
H851 C848 0.930 . S
O852 Li792 1.956 . S
O852 Li793 1.970 . S
O852 Li794 1.961 . S
O852 C796 1.325 . S
O853 Li792 1.970 . S
O853 Li793 1.956 . S
O853 Li795 1.961 . S
O853 C802 1.325 . S
O854 Li792 1.961 . S
O854 Li794 1.956 . S
O854 Li795 1.970 . S
O854 C824 1.325 . S
O855 Li793 1.961 . S
O855 Li794 1.970 . S
O855 Li795 1.956 . S
O855 C830 1.325 . S
H856 C798 0.929 . S
H857 C799 0.930 . S
H858 C800 0.930 . S
H859 C801 0.930 . S
H860 C803 0.930 . S
H861 C805 0.929 . S
H862 C806 0.930 . S
H863 C807 0.930 . S
H864 C810 0.930 . S
H865 C813 0.929 . S
H866 C818 0.929 . S
H867 C819 0.930 . S
H868 C826 0.929 . S
H869 C827 0.930 . S
H870 C828 0.930 . S
H871 C829 0.930 1_556 S
H872 C831 0.929 . S
H873 C832 0.930 . S
H874 C833 0.930 . S
H875 C834 0.930 . S
H876 C838 0.929 . S
H877 C840 0.930 . S
H878 C846 0.929 . S
H879 C847 0.930 . S
Li880 N897 1.990 . S
Li880 O940 1.956 . S
Li880 O941 1.970 . S
Li880 O942 1.961 . S
Li881 N905 1.990 . S
Li881 O940 1.970 . S
Li881 O941 1.956 . S
Li881 O943 1.961 1_554 S
Li882 N927 1.990 . S
Li882 O940 1.961 . S
Li882 O942 1.956 . S
Li882 O943 1.970 1_554 S
Li883 N933 1.990 . S
Li883 O941 1.961 1_556 S
Li883 O942 1.970 1_556 S
Li883 O943 1.956 . S
C884 C886 1.348 . S
C884 C887 1.356 . S
C884 O940 1.325 . S
N885 C888 1.314 . S
N885 C889 1.279 . S
C886 C884 1.348 . S
C886 C888 1.353 . S
C886 H944 0.929 . S
C887 C884 1.356 . S
C887 C889 1.358 . S
C887 H945 0.930 . S
C888 N885 1.314 . S
C888 C886 1.353 . S
C888 H946 0.930 . S
C889 N885 1.279 . S
C889 C887 1.358 . S
C889 H947 0.930 . S
C890 C893 1.348 . S
C890 C894 1.356 1_554 S
C890 O941 1.325 . S
C891 N892 1.279 . S
C891 C894 1.358 1_554 S
C891 H948 0.930 1_554 S
N892 C891 1.279 . S
N892 C895 1.314 . S
C893 C890 1.348 . S
C893 C895 1.353 . S
C893 H949 0.929 . S
C894 C890 1.356 1_556 S
C894 C891 1.358 1_556 S
C894 H950 0.930 . S
C895 N892 1.314 . S
C895 C893 1.353 . S
C895 H951 0.930 . S
C896 N897 1.314 . S
C896 C901 1.353 . S
C896 H902 0.930 . S
N897 Li880 1.990 . S
N897 C896 1.314 . S
N897 C899 1.279 . S
C898 C899 1.358 . S
C898 C900 1.356 . S
C898 H952 0.930 . S
C899 N897 1.279 . S
C899 C898 1.358 . S
C899 H903 0.930 . S
C900 C898 1.356 . S
C900 C901 1.348 . S
C901 C896 1.353 . S
C901 C900 1.348 . S
C901 H953 0.929 . S
H902 C896 0.930 . S
H903 C899 0.930 . S
C904 N905 1.314 1_556 S
C904 C906 1.353 . S
C904 H910 0.930 . S
N905 Li881 1.990 . S
N905 C904 1.314 1_554 S
N905 C908 1.279 . S
C906 C904 1.353 . S
C906 C909 1.348 1_556 S
C906 H954 0.929 . S
C907 C908 1.358 . S
C907 C909 1.356 . S
C907 H955 0.930 . S
C908 N905 1.279 . S
C908 C907 1.358 . S
C908 H911 0.930 . S
C909 C906 1.348 1_554 S
C909 C907 1.356 . S
H910 C904 0.930 . S
H911 C908 0.930 . S
C912 C914 1.355 . S
C912 C915 1.356 . S
C912 O942 1.325 . S
N913 C916 1.314 . S
N913 C917 1.279 . S
C914 C912 1.355 . S
C914 C916 1.355 . S
C914 H956 0.920 1_554 S
C915 C912 1.356 . S
C915 C917 1.358 . S
C915 H957 0.930 . S
C916 N913 1.314 . S
C916 C914 1.355 . S
C916 H958 0.930 1_554 S
C917 N913 1.279 . S
C917 C915 1.358 . S
C917 H959 0.930 . S
C918 C919 1.348 . S
C918 C920 1.356 . S
C918 O943 1.325 . S
C919 C918 1.348 . S
C919 C921 1.353 . S
C919 H960 0.929 . S
C920 C918 1.356 . S
C920 C922 1.358 . S
C920 H961 0.930 . S
C921 C919 1.353 . S
C921 N923 1.314 . S
C921 H962 0.930 . S
C922 C920 1.358 . S
C922 N923 1.279 . S
C922 H963 0.930 . S
N923 C921 1.314 . S
N923 C922 1.279 . S
C924 C926 1.353 . S
C924 N927 1.314 . S
C924 H930 0.930 . S
C925 N927 1.279 . S
C925 C928 1.358 . S
C925 H931 0.930 . S
C926 C924 1.353 . S
C926 C929 1.348 . S
C926 H964 0.929 . S
N927 Li882 1.990 . S
N927 C924 1.314 . S
N927 C925 1.279 . S
C928 C925 1.358 . S
C928 C929 1.356 . S
C928 H965 0.930 1_554 S
C929 C926 1.348 . S
C929 C928 1.356 . S
H930 C924 0.930 . S
H931 C925 0.930 . S
C932 N933 1.314 . S
C932 C934 1.353 . S
C932 H938 0.930 . S
N933 Li883 1.990 . S
N933 C932 1.314 . S
N933 C936 1.279 . S
C934 C932 1.353 . S
C934 C937 1.348 . S
C934 H966 0.929 . S
C935 C936 1.358 . S
C935 C937 1.356 . S
C935 H967 0.930 . S
C936 N933 1.279 . S
C936 C935 1.358 . S
C936 H939 0.930 . S
C937 C934 1.348 . S
C937 C935 1.356 . S
H938 C932 0.930 . S
H939 C936 0.930 . S
O940 Li880 1.956 . S
O940 Li881 1.970 . S
O940 Li882 1.961 . S
O940 C884 1.325 . S
O941 Li880 1.970 . S
O941 Li881 1.956 . S
O941 Li883 1.961 1_554 S
O941 C890 1.325 . S
O942 Li880 1.961 . S
O942 Li882 1.956 . S
O942 Li883 1.970 1_554 S
O942 C912 1.325 . S
O943 Li881 1.961 1_556 S
O943 Li882 1.970 1_556 S
O943 Li883 1.956 . S
O943 C918 1.325 . S
H944 C886 0.929 . S
H945 C887 0.930 . S
H946 C888 0.930 . S
H947 C889 0.930 . S
H948 C891 0.930 1_556 S
H949 C893 0.929 . S
H950 C894 0.930 . S
H951 C895 0.930 . S
H952 C898 0.930 . S
H953 C901 0.929 . S
H954 C906 0.929 . S
H955 C907 0.930 . S
H956 C914 0.920 1_556 S
H957 C915 0.930 . S
H958 C916 0.930 1_556 S
H959 C917 0.930 . S
H960 C919 0.929 . S
H961 C920 0.930 . S
H962 C921 0.930 . S
H963 C922 0.930 . S
H964 C926 0.929 . S
H965 C928 0.930 1_556 S
H966 C934 0.929 . S
H967 C935 0.930 . S
Li968 N985 1.990 . S
Li968 O1028 1.956 . S
Li968 O1029 1.970 . S
Li968 O1030 1.961 . S
Li969 N993 1.990 . S
Li969 O1028 1.970 . S
Li969 O1029 1.956 . S
Li969 O1031 1.961 . S
Li970 N1015 1.990 . S
Li970 O1028 1.961 . S
Li970 O1030 1.956 . S
Li970 O1031 1.970 . S
Li971 N1021 1.990 . S
Li971 O1029 1.961 . S
Li971 O1030 1.970 . S
Li971 O1031 1.956 . S
C972 C974 1.348 . S
C972 C975 1.356 . S
C972 O1028 1.325 . S
N973 C976 1.314 . S
N973 C977 1.279 . S
C974 C972 1.348 . S
C974 C976 1.353 . S
C974 H1032 0.929 . S
C975 C972 1.356 . S
C975 C977 1.358 . S
C975 H1033 0.930 . S
C976 N973 1.314 . S
C976 C974 1.353 . S
C976 H1034 0.930 . S
C977 N973 1.279 . S
C977 C975 1.358 . S
C977 H1035 0.930 . S
C978 C981 1.348 . S
C978 C982 1.356 . S
C978 O1029 1.325 . S
C979 N980 1.279 . S
C979 C982 1.358 . S
C979 H1036 0.930 . S
N980 C979 1.279 . S
N980 C983 1.314 . S
C981 C978 1.348 . S
C981 C983 1.353 . S
C981 H1037 0.929 . S
C982 C978 1.356 . S
C982 C979 1.358 . S
C982 H1038 0.930 . S
C983 N980 1.314 . S
C983 C981 1.353 . S
C983 H1039 0.930 . S
C984 N985 1.314 . S
C984 C989 1.353 . S
C984 H990 0.930 . S
N985 Li968 1.990 . S
N985 C984 1.314 . S
N985 C987 1.279 . S
C986 C987 1.358 . S
C986 C988 1.356 . S
C986 H1040 0.930 . S
C987 N985 1.279 . S
C987 C986 1.358 . S
C987 H991 0.930 . S
C988 C986 1.356 . S
C988 C989 1.348 . S
C989 C984 1.353 . S
C989 C988 1.348 . S
C989 H1041 0.929 . S
H990 C984 0.930 . S
H991 C987 0.930 . S
C992 N993 1.314 . S
C992 C994 1.353 . S
C992 H998 0.930 . S
N993 Li969 1.990 . S
N993 C992 1.314 . S
N993 C996 1.279 . S
C994 C992 1.353 . S
C994 C997 1.348 . S
C994 H1042 0.929 . S
C995 C996 1.358 . S
C995 C997 1.356 . S
C995 H1043 0.930 . S
C996 N993 1.279 . S
C996 C995 1.358 . S
C996 H999 0.930 . S
C997 C994 1.348 . S
C997 C995 1.356 . S
H998 C992 0.930 . S
H999 C996 0.930 . S
C1000 C1002 1.348 . S
C1000 C1003 1.356 . S
C1000 O1030 1.325 . S
N1001 C1004 1.314 . S
N1001 C1005 1.279 . S
C1002 C1000 1.348 . S
C1002 C1004 1.353 . S
C1002 H1044 0.929 . S
C1003 C1000 1.356 . S
C1003 C1005 1.358 . S
C1003 H1045 0.930 . S
C1004 N1001 1.314 . S
C1004 C1002 1.353 . S
C1004 H1046 0.930 . S
C1005 N1001 1.279 . S
C1005 C1003 1.358 . S
C1005 H1047 0.930 . S
C1006 C1007 1.348 . S
C1006 C1008 1.356 . S
C1006 O1031 1.325 . S
C1007 C1006 1.348 . S
C1007 C1009 1.353 . S
C1007 H1048 0.929 . S
C1008 C1006 1.356 . S
C1008 C1010 1.358 . S
C1008 H1049 0.930 . S
C1009 C1007 1.353 . S
C1009 N1011 1.314 . S
C1009 H1050 0.930 . S
C1010 C1008 1.358 . S
C1010 N1011 1.279 . S
C1010 H1051 0.930 . S
N1011 C1009 1.314 . S
N1011 C1010 1.279 . S
C1012 C1014 1.353 . S
C1012 N1015 1.314 . S
C1012 H1018 0.930 . S
C1013 N1015 1.279 . S
C1013 C1016 1.358 . S
C1013 H1019 0.930 . S
C1014 C1012 1.353 . S
C1014 C1017 1.348 . S
C1014 H1052 0.929 . S
N1015 Li970 1.990 . S
N1015 C1012 1.314 . S
N1015 C1013 1.279 . S
C1016 C1013 1.358 . S
C1016 C1017 1.356 . S
C1016 H1053 0.930 . S
C1017 C1014 1.348 . S
C1017 C1016 1.356 . S
H1018 C1012 0.930 . S
H1019 C1013 0.930 . S
C1020 N1021 1.314 . S
C1020 C1022 1.353 . S
C1020 H1026 0.930 . S
N1021 Li971 1.990 . S
N1021 C1020 1.314 . S
N1021 C1024 1.279 . S
C1022 C1020 1.353 . S
C1022 C1025 1.348 . S
C1022 H1054 0.929 . S
C1023 C1024 1.358 . S
C1023 C1025 1.356 . S
C1023 H1055 0.930 . S
C1024 N1021 1.279 . S
C1024 C1023 1.358 . S
C1024 H1027 0.930 . S
C1025 C1022 1.348 . S
C1025 C1023 1.356 . S
H1026 C1020 0.930 . S
H1027 C1024 0.930 . S
O1028 Li968 1.956 . S
O1028 Li969 1.970 . S
O1028 Li970 1.961 . S
O1028 C972 1.325 . S
O1029 Li968 1.970 . S
O1029 Li969 1.956 . S
O1029 Li971 1.961 . S
O1029 C978 1.325 . S
O1030 Li968 1.961 . S
O1030 Li970 1.956 . S
O1030 Li971 1.970 . S
O1030 C1000 1.325 . S
O1031 Li969 1.961 . S
O1031 Li970 1.970 . S
O1031 Li971 1.956 . S
O1031 C1006 1.325 . S
H1032 C974 0.929 . S
H1033 C975 0.930 . S
H1034 C976 0.930 . S
H1035 C977 0.930 . S
H1036 C979 0.930 . S
H1037 C981 0.929 . S
H1038 C982 0.930 . S
H1039 C983 0.930 . S
H1040 C986 0.930 . S
H1041 C989 0.929 . S
H1042 C994 0.929 . S
H1043 C995 0.930 . S
H1044 C1002 0.929 . S
H1045 C1003 0.930 . S
H1046 C1004 0.930 . S
H1047 C1005 0.930 . S
H1048 C1007 0.929 . S
H1049 C1008 0.930 . S
H1050 C1009 0.930 . S
H1051 C1010 0.930 . S
H1052 C1014 0.929 . S
H1053 C1016 0.930 . S
H1054 C1022 0.929 . S
H1055 C1023 0.930 . S
Li1056 N1073 1.990 . S
Li1056 O1116 1.956 . S
Li1056 O1117 1.970 . S
Li1056 O1118 1.961 . S
Li1057 N1081 1.990 . S
Li1057 O1116 1.970 . S
Li1057 O1117 1.956 . S
Li1057 O1119 1.961 . S
Li1058 N1103 1.990 . S
Li1058 O1116 1.961 . S
Li1058 O1118 1.956 . S
Li1058 O1119 1.970 . S
Li1059 N1109 1.990 . S
Li1059 O1117 1.961 . S
Li1059 O1118 1.970 . S
Li1059 O1119 1.956 . S
C1060 C1062 1.348 . S
C1060 C1063 1.356 . S
C1060 O1116 1.325 . S
N1061 C1064 1.314 . S
N1061 C1065 1.279 . S
C1062 C1060 1.348 . S
C1062 C1064 1.353 . S
C1062 H1120 0.929 . S
C1063 C1060 1.356 . S
C1063 C1065 1.358 . S
C1063 H1121 0.930 . S
C1064 N1061 1.314 . S
C1064 C1062 1.353 . S
C1064 H1122 0.930 . S
C1065 N1061 1.279 . S
C1065 C1063 1.358 . S
C1065 H1123 0.930 . S
C1066 C1069 1.348 . S
C1066 C1070 1.356 . S
C1066 O1117 1.325 . S
C1067 N1068 1.279 . S
C1067 C1070 1.358 . S
C1067 H1124 0.930 . S
N1068 C1067 1.279 . S
N1068 C1071 1.314 . S
C1069 C1066 1.348 . S
C1069 C1071 1.353 . S
C1069 H1125 0.929 . S
C1070 C1066 1.356 . S
C1070 C1067 1.358 . S
C1070 H1126 0.930 . S
C1071 N1068 1.314 . S
C1071 C1069 1.353 . S
C1071 H1127 0.930 . S
C1072 N1073 1.314 . S
C1072 C1077 1.353 . S
C1072 H1078 0.930 . S
N1073 Li1056 1.990 . S
N1073 C1072 1.314 . S
N1073 C1075 1.279 . S
C1074 C1075 1.358 . S
C1074 C1076 1.356 . S
C1074 H1128 0.930 . S
C1075 N1073 1.279 . S
C1075 C1074 1.358 . S
C1075 H1079 0.930 . S
C1076 C1074 1.356 . S
C1076 C1077 1.348 . S
C1077 C1072 1.353 . S
C1077 C1076 1.348 . S
C1077 H1129 0.929 . S
H1078 C1072 0.930 . S
H1079 C1075 0.930 . S
C1080 N1081 1.314 . S
C1080 C1082 1.353 . S
C1080 H1086 0.930 . S
N1081 Li1057 1.990 . S
N1081 C1080 1.314 . S
N1081 C1084 1.279 . S
C1082 C1080 1.353 . S
C1082 C1085 1.348 . S
C1082 H1130 0.929 . S
C1083 C1084 1.358 . S
C1083 C1085 1.356 . S
C1083 H1131 0.930 . S
C1084 N1081 1.279 . S
C1084 C1083 1.358 . S
C1084 H1087 0.930 . S
C1085 C1082 1.348 . S
C1085 C1083 1.356 . S
H1086 C1080 0.930 . S
H1087 C1084 0.930 . S
C1088 C1090 1.348 . S
C1088 C1091 1.356 . S
C1088 O1118 1.325 . S
N1089 C1092 1.314 . S
N1089 C1093 1.279 . S
C1090 C1088 1.348 . S
C1090 C1092 1.353 . S
C1090 H1132 0.929 . S
C1091 C1088 1.356 . S
C1091 C1093 1.358 . S
C1091 H1133 0.930 . S
C1092 N1089 1.314 . S
C1092 C1090 1.353 . S
C1092 H1134 0.930 . S
C1093 N1089 1.279 . S
C1093 C1091 1.358 . S
C1093 H1135 0.930 . S
C1094 C1095 1.348 . S
C1094 C1096 1.356 . S
C1094 O1119 1.325 . S
C1095 C1094 1.348 . S
C1095 C1097 1.353 . S
C1095 H1136 0.929 . S
C1096 C1094 1.356 . S
C1096 C1098 1.358 . S
C1096 H1137 0.930 . S
C1097 C1095 1.353 . S
C1097 N1099 1.314 . S
C1097 H1138 0.930 . S
C1098 C1096 1.358 . S
C1098 N1099 1.279 . S
C1098 H1139 0.930 . S
N1099 C1097 1.314 . S
N1099 C1098 1.279 . S
C1100 C1102 1.353 . S
C1100 N1103 1.314 . S
C1100 H1106 0.930 . S
C1101 N1103 1.279 . S
C1101 C1104 1.358 . S
C1101 H1107 0.930 . S
C1102 C1100 1.353 . S
C1102 C1105 1.348 . S
C1102 H1140 0.929 . S
N1103 Li1058 1.990 . S
N1103 C1100 1.314 . S
N1103 C1101 1.279 . S
C1104 C1101 1.358 . S
C1104 C1105 1.356 . S
C1104 H1141 0.930 . S
C1105 C1102 1.348 . S
C1105 C1104 1.356 . S
H1106 C1100 0.930 . S
H1107 C1101 0.930 . S
C1108 N1109 1.314 . S
C1108 C1110 1.353 . S
C1108 H1114 0.930 . S
N1109 Li1059 1.990 . S
N1109 C1108 1.314 . S
N1109 C1112 1.279 . S
C1110 C1108 1.353 . S
C1110 C1113 1.348 . S
C1110 H1142 0.929 . S
C1111 C1112 1.358 . S
C1111 C1113 1.356 . S
C1111 H1143 0.930 . S
C1112 N1109 1.279 . S
C1112 C1111 1.358 . S
C1112 H1115 0.930 . S
C1113 C1110 1.348 . S
C1113 C1111 1.356 . S
H1114 C1108 0.930 . S
H1115 C1112 0.930 . S
O1116 Li1056 1.956 . S
O1116 Li1057 1.970 . S
O1116 Li1058 1.961 . S
O1116 C1060 1.325 . S
O1117 Li1056 1.970 . S
O1117 Li1057 1.956 . S
O1117 Li1059 1.961 . S
O1117 C1066 1.325 . S
O1118 Li1056 1.961 . S
O1118 Li1058 1.956 . S
O1118 Li1059 1.970 . S
O1118 C1088 1.325 . S
O1119 Li1057 1.961 . S
O1119 Li1058 1.970 . S
O1119 Li1059 1.956 . S
O1119 C1094 1.325 . S
H1120 C1062 0.929 . S
H1121 C1063 0.930 . S
H1122 C1064 0.930 . S
H1123 C1065 0.930 . S
H1124 C1067 0.930 . S
H1125 C1069 0.929 . S
H1126 C1070 0.930 . S
H1127 C1071 0.930 . S
H1128 C1074 0.930 . S
H1129 C1077 0.929 . S
H1130 C1082 0.929 . S
H1131 C1083 0.930 . S
H1132 C1090 0.929 . S
H1133 C1091 0.930 . S
H1134 C1092 0.930 . S
H1135 C1093 0.930 . S
H1136 C1095 0.929 . S
H1137 C1096 0.930 . S
H1138 C1097 0.930 . S
H1139 C1098 0.930 . S
H1140 C1102 0.929 . S
H1141 C1104 0.930 . S
H1142 C1110 0.929 . S
H1143 C1111 0.930 . S
Li1144 N1161 1.994 . S
Li1144 O1204 1.998 . S
Li1144 O1205 1.926 1_455 S
Li1144 O1206 1.958 1_455 S
Li1145 N1169 1.993 . S
Li1145 O1204 1.939 1_655 S
Li1145 O1205 1.986 . S
Li1145 O1207 1.958 1_655 S
Li1146 N1191 1.990 . S
Li1146 O1204 1.961 . S
Li1146 O1206 1.931 1_455 S
Li1146 O1207 2.005 . S
Li1147 N1197 1.990 . S
Li1147 O1205 1.961 . S
Li1147 O1206 1.994 . S
Li1147 O1207 1.919 1_655 S
C1148 C1150 1.348 . S
C1148 C1151 1.356 . S
C1148 O1204 1.325 . S
N1149 C1152 1.314 . S
N1149 C1153 1.279 . S
C1150 C1148 1.348 . S
C1150 C1152 1.353 . S
C1150 H1208 0.929 . S
C1151 C1148 1.356 . S
C1151 C1153 1.358 . S
C1151 H1209 0.930 . S
C1152 N1149 1.314 . S
C1152 C1150 1.353 . S
C1152 H1210 0.930 . S
C1153 N1149 1.279 . S
C1153 C1151 1.358 . S
C1153 H1211 0.930 . S
C1154 C1157 1.348 . S
C1154 C1158 1.356 . S
C1154 O1205 1.325 . S
C1155 N1156 1.279 . S
C1155 C1158 1.358 . S
C1155 H1212 0.930 . S
N1156 C1155 1.279 . S
N1156 C1159 1.314 . S
C1157 C1154 1.348 . S
C1157 C1159 1.353 . S
C1157 H1213 0.929 . S
C1158 C1154 1.356 . S
C1158 C1155 1.358 . S
C1158 H1214 0.930 . S
C1159 N1156 1.314 . S
C1159 C1157 1.353 . S
C1159 H1215 0.930 . S
C1160 N1161 1.314 1_655 S
C1160 C1165 1.353 . S
C1160 H1166 0.930 . S
N1161 Li1144 1.994 . S
N1161 C1160 1.314 1_455 S
N1161 C1163 1.279 . S
C1162 C1163 1.358 . S
C1162 C1164 1.356 . S
C1162 H1216 0.930 . S
C1163 N1161 1.279 . S
C1163 C1162 1.358 . S
C1163 H1167 0.930 . S
C1164 C1162 1.356 . S
C1164 C1165 1.348 1_455 S
C1165 C1160 1.353 . S
C1165 C1164 1.348 1_655 S
C1165 H1217 0.929 . S
H1166 C1160 0.930 . S
H1167 C1163 0.930 . S
C1168 N1169 1.314 1_455 S
C1168 C1170 1.353 . S
C1168 H1174 0.930 . S
N1169 Li1145 1.993 . S
N1169 C1168 1.314 1_655 S
N1169 C1172 1.279 . S
C1170 C1168 1.353 . S
C1170 C1173 1.348 . S
C1170 H1218 0.929 . S
C1171 C1172 1.358 . S
C1171 C1173 1.356 1_655 S
C1171 H1219 0.930 . S
C1172 N1169 1.279 . S
C1172 C1171 1.358 . S
C1172 H1175 0.930 . S
C1173 C1170 1.348 . S
C1173 C1171 1.356 1_455 S
H1174 C1168 0.930 . S
H1175 C1172 0.930 . S
C1176 C1178 1.348 1_455 S
C1176 C1179 1.356 . S
C1176 O1206 1.324 1_455 S
N1177 C1180 1.314 1_455 S
N1177 C1181 1.279 . S
C1178 C1176 1.348 1_655 S
C1178 C1180 1.353 . S
C1178 H1220 0.929 . S
C1179 C1176 1.356 . S
C1179 C1181 1.358 . S
C1179 H1221 0.930 . S
C1180 N1177 1.314 1_655 S
C1180 C1178 1.353 . S
C1180 H1222 0.930 . S
C1181 N1177 1.279 . S
C1181 C1179 1.358 . S
C1181 H1223 0.930 . S
C1182 C1183 1.348 . S
C1182 C1184 1.356 1_455 S
C1182 O1207 1.324 . S
C1183 C1182 1.348 . S
C1183 C1185 1.353 . S
C1183 H1224 0.929 . S
C1184 C1182 1.356 1_655 S
C1184 C1186 1.358 . S
C1184 H1225 0.930 . S
C1185 C1183 1.353 . S
C1185 N1187 1.314 1_455 S
C1185 H1226 0.930 . S
C1186 C1184 1.358 . S
C1186 N1187 1.279 . S
C1186 H1227 0.930 . S
N1187 C1185 1.314 1_655 S
N1187 C1186 1.279 . S
C1188 C1190 1.353 . S
C1188 N1191 1.314 . S
C1188 H1194 0.930 . S
C1189 N1191 1.279 . S
C1189 C1192 1.358 . S
C1189 H1195 0.930 . S
C1190 C1188 1.353 . S
C1190 C1193 1.348 . S
C1190 H1228 0.929 . S
N1191 Li1146 1.990 . S
N1191 C1188 1.314 . S
N1191 C1189 1.279 . S
C1192 C1189 1.358 . S
C1192 C1193 1.356 . S
C1192 H1229 0.930 . S
C1193 C1190 1.348 . S
C1193 C1192 1.356 . S
H1194 C1188 0.930 . S
H1195 C1189 0.930 . S
C1196 N1197 1.314 . S
C1196 C1198 1.353 . S
C1196 H1202 0.930 . S
N1197 Li1147 1.990 . S
N1197 C1196 1.314 . S
N1197 C1200 1.279 . S
C1198 C1196 1.353 . S
C1198 C1201 1.348 . S
C1198 H1230 0.929 . S
C1199 C1200 1.358 . S
C1199 C1201 1.356 . S
C1199 H1231 0.930 . S
C1200 N1197 1.279 . S
C1200 C1199 1.358 . S
C1200 H1203 0.930 . S
C1201 C1198 1.348 . S
C1201 C1199 1.356 . S
H1202 C1196 0.930 . S
H1203 C1200 0.930 . S
O1204 Li1144 1.998 . S
O1204 Li1145 1.939 1_455 S
O1204 Li1146 1.961 . S
O1204 C1148 1.325 . S
O1205 Li1144 1.926 1_655 S
O1205 Li1145 1.986 . S
O1205 Li1147 1.961 . S
O1205 C1154 1.325 . S
O1206 Li1144 1.958 1_655 S
O1206 Li1146 1.931 1_655 S
O1206 Li1147 1.994 . S
O1206 C1176 1.324 1_655 S
O1207 Li1145 1.958 1_455 S
O1207 Li1146 2.005 . S
O1207 Li1147 1.919 1_455 S
O1207 C1182 1.324 . S
H1208 C1150 0.929 . S
H1209 C1151 0.930 . S
H1210 C1152 0.930 . S
H1211 C1153 0.930 . S
H1212 C1155 0.930 . S
H1213 C1157 0.929 . S
H1214 C1158 0.930 . S
H1215 C1159 0.930 . S
H1216 C1162 0.930 . S
H1217 C1165 0.929 . S
H1218 C1170 0.929 . S
H1219 C1171 0.930 . S
H1220 C1178 0.929 . S
H1221 C1179 0.930 . S
H1222 C1180 0.930 . S
H1223 C1181 0.930 . S
H1224 C1183 0.929 . S
H1225 C1184 0.930 . S
H1226 C1185 0.930 . S
H1227 C1186 0.930 . S
H1228 C1190 0.929 . S
H1229 C1192 0.930 . S
H1230 C1198 0.929 . S
H1231 C1199 0.930 . S
Li1232 N1249 1.990 . S
Li1232 O1292 1.956 . S
Li1232 O1293 1.970 . S
Li1232 O1294 1.961 . S
Li1233 N1257 1.990 . S
Li1233 O1292 1.970 . S
Li1233 O1293 1.956 . S
Li1233 O1295 1.961 . S
Li1234 N1279 1.990 . S
Li1234 O1292 1.961 . S
Li1234 O1294 1.956 . S
Li1234 O1295 1.970 . S
Li1235 N1285 1.990 . S
Li1235 O1293 1.961 . S
Li1235 O1294 1.970 . S
Li1235 O1295 1.956 . S
C1236 C1238 1.348 . S
C1236 C1239 1.356 . S
C1236 O1292 1.325 . S
N1237 C1240 1.314 . S
N1237 C1241 1.279 . S
C1238 C1236 1.348 . S
C1238 C1240 1.353 . S
C1238 H1296 0.929 . S
C1239 C1236 1.356 . S
C1239 C1241 1.358 . S
C1239 H1297 0.930 . S
C1240 N1237 1.314 . S
C1240 C1238 1.353 . S
C1240 H1298 0.930 . S
C1241 N1237 1.279 . S
C1241 C1239 1.358 . S
C1241 H1299 0.930 . S
C1242 C1245 1.348 . S
C1242 C1246 1.356 . S
C1242 O1293 1.325 . S
C1243 N1244 1.279 . S
C1243 C1246 1.358 . S
C1243 H1300 0.930 . S
N1244 C1243 1.279 . S
N1244 C1247 1.314 . S
C1245 C1242 1.348 . S
C1245 C1247 1.353 . S
C1245 H1301 0.929 . S
C1246 C1242 1.356 . S
C1246 C1243 1.358 . S
C1246 H1302 0.930 . S
C1247 N1244 1.314 . S
C1247 C1245 1.353 . S
C1247 H1303 0.930 . S
C1248 N1249 1.314 . S
C1248 C1253 1.353 . S
C1248 H1254 0.930 . S
N1249 Li1232 1.990 . S
N1249 C1248 1.314 . S
N1249 C1251 1.279 . S
C1250 C1251 1.358 . S
C1250 C1252 1.356 . S
C1250 H1304 0.930 . S
C1251 N1249 1.279 . S
C1251 C1250 1.358 . S
C1251 H1255 0.930 . S
C1252 C1250 1.356 . S
C1252 C1253 1.348 . S
C1253 C1248 1.353 . S
C1253 C1252 1.348 . S
C1253 H1305 0.929 . S
H1254 C1248 0.930 . S
H1255 C1251 0.930 . S
C1256 N1257 1.314 . S
C1256 C1258 1.353 . S
C1256 H1262 0.930 . S
N1257 Li1233 1.990 . S
N1257 C1256 1.314 . S
N1257 C1260 1.279 . S
C1258 C1256 1.353 . S
C1258 C1261 1.348 . S
C1258 H1306 0.929 . S
C1259 C1260 1.358 . S
C1259 C1261 1.356 . S
C1259 H1307 0.930 . S
C1260 N1257 1.279 . S
C1260 C1259 1.358 . S
C1260 H1263 0.930 . S
C1261 C1258 1.348 . S
C1261 C1259 1.356 . S
H1262 C1256 0.930 . S
H1263 C1260 0.930 . S
C1264 C1266 1.348 . S
C1264 C1267 1.356 . S
C1264 O1294 1.325 . S
N1265 C1268 1.314 . S
N1265 C1269 1.279 . S
C1266 C1264 1.348 . S
C1266 C1268 1.353 . S
C1266 H1308 0.929 . S
C1267 C1264 1.356 . S
C1267 C1269 1.358 . S
C1267 H1309 0.930 . S
C1268 N1265 1.314 . S
C1268 C1266 1.353 . S
C1268 H1310 0.930 . S
C1269 N1265 1.279 . S
C1269 C1267 1.358 . S
C1269 H1311 0.930 . S
C1270 C1271 1.348 . S
C1270 C1272 1.356 . S
C1270 O1295 1.325 . S
C1271 C1270 1.348 . S
C1271 C1273 1.353 . S
C1271 H1312 0.929 . S
C1272 C1270 1.356 . S
C1272 C1274 1.358 . S
C1272 H1313 0.930 . S
C1273 C1271 1.353 . S
C1273 N1275 1.314 . S
C1273 H1314 0.930 . S
C1274 C1272 1.358 . S
C1274 N1275 1.279 . S
C1274 H1315 0.930 . S
N1275 C1273 1.314 . S
N1275 C1274 1.279 . S
C1276 C1278 1.353 . S
C1276 N1279 1.314 . S
C1276 H1282 0.930 . S
C1277 N1279 1.279 . S
C1277 C1280 1.358 . S
C1277 H1283 0.930 . S
C1278 C1276 1.353 . S
C1278 C1281 1.348 . S
C1278 H1316 0.929 . S
N1279 Li1234 1.990 . S
N1279 C1276 1.314 . S
N1279 C1277 1.279 . S
C1280 C1277 1.358 . S
C1280 C1281 1.356 . S
C1280 H1317 0.930 . S
C1281 C1278 1.348 . S
C1281 C1280 1.356 . S
H1282 C1276 0.930 . S
H1283 C1277 0.930 . S
C1284 N1285 1.314 . S
C1284 C1286 1.353 . S
C1284 H1290 0.930 . S
N1285 Li1235 1.990 . S
N1285 C1284 1.314 . S
N1285 C1288 1.279 . S
C1286 C1284 1.353 . S
C1286 C1289 1.348 . S
C1286 H1318 0.929 . S
C1287 C1288 1.358 . S
C1287 C1289 1.356 . S
C1287 H1319 0.930 . S
C1288 N1285 1.279 . S
C1288 C1287 1.358 . S
C1288 H1291 0.930 . S
C1289 C1286 1.348 . S
C1289 C1287 1.356 . S
H1290 C1284 0.930 . S
H1291 C1288 0.930 . S
O1292 Li1232 1.956 . S
O1292 Li1233 1.970 . S
O1292 Li1234 1.961 . S
O1292 C1236 1.325 . S
O1293 Li1232 1.970 . S
O1293 Li1233 1.956 . S
O1293 Li1235 1.961 . S
O1293 C1242 1.325 . S
O1294 Li1232 1.961 . S
O1294 Li1234 1.956 . S
O1294 Li1235 1.970 . S
O1294 C1264 1.325 . S
O1295 Li1233 1.961 . S
O1295 Li1234 1.970 . S
O1295 Li1235 1.956 . S
O1295 C1270 1.325 . S
H1296 C1238 0.929 . S
H1297 C1239 0.930 . S
H1298 C1240 0.930 . S
H1299 C1241 0.930 . S
H1300 C1243 0.930 . S
H1301 C1245 0.929 . S
H1302 C1246 0.930 . S
H1303 C1247 0.930 . S
H1304 C1250 0.930 . S
H1305 C1253 0.929 . S
H1306 C1258 0.929 . S
H1307 C1259 0.930 . S
H1308 C1266 0.929 . S
H1309 C1267 0.930 . S
H1310 C1268 0.930 . S
H1311 C1269 0.930 . S
H1312 C1271 0.929 . S
H1313 C1272 0.930 . S
H1314 C1273 0.930 . S
H1315 C1274 0.930 . S
H1316 C1278 0.929 . S
H1317 C1280 0.930 . S
H1318 C1286 0.929 . S
H1319 C1287 0.930 . S
Li1320 N1337 1.990 . S
Li1320 O1380 1.931 1_455 S
Li1320 O1381 2.005 . S
Li1320 O1382 1.961 . S
Li1321 N1345 1.990 . S
Li1321 O1380 1.994 . S
Li1321 O1381 1.919 1_655 S
Li1321 O1383 1.961 . S
Li1322 N1367 1.994 . S
Li1322 O1380 1.958 1_455 S
Li1322 O1382 1.998 . S
Li1322 O1383 1.926 1_455 S
Li1323 N1373 1.993 . S
Li1323 O1381 1.958 1_655 S
Li1323 O1382 1.939 1_655 S
Li1323 O1383 1.986 . S
C1324 C1326 1.348 1_455 S
C1324 C1327 1.356 . S
C1324 O1380 1.324 1_455 S
N1325 C1328 1.314 1_455 S
N1325 C1329 1.279 . S
C1326 C1324 1.348 1_655 S
C1326 C1328 1.353 1_556 S
C1326 H1384 0.929 . S
C1327 C1324 1.356 . S
C1327 C1329 1.358 1_556 S
C1327 H1385 0.930 . S
C1328 N1325 1.314 1_655 S
C1328 C1326 1.353 1_554 S
C1328 H1386 0.930 . S
C1329 N1325 1.279 . S
C1329 C1327 1.358 1_554 S
C1329 H1387 0.930 . S
C1330 C1333 1.348 . S
C1330 C1334 1.356 1_455 S
C1330 O1381 1.324 . S
C1331 N1332 1.279 . S
C1331 C1334 1.358 . S
C1331 H1388 0.930 . S
N1332 C1331 1.279 . S
N1332 C1335 1.314 1_655 S
C1333 C1330 1.348 . S
C1333 C1335 1.353 . S
C1333 H1389 0.929 . S
C1334 C1330 1.356 1_655 S
C1334 C1331 1.358 . S
C1334 H1390 0.930 . S
C1335 N1332 1.314 1_455 S
C1335 C1333 1.353 . S
C1335 H1391 0.930 . S
C1336 N1337 1.314 . S
C1336 C1341 1.353 . S
C1336 H1342 0.930 . S
N1337 Li1320 1.990 . S
N1337 C1336 1.314 . S
N1337 C1339 1.279 . S
C1338 C1339 1.358 . S
C1338 C1340 1.356 . S
C1338 H1392 0.930 . S
C1339 N1337 1.279 . S
C1339 C1338 1.358 . S
C1339 H1343 0.930 . S
C1340 C1338 1.356 . S
C1340 C1341 1.348 . S
C1341 C1336 1.353 . S
C1341 C1340 1.348 . S
C1341 H1393 0.929 . S
H1342 C1336 0.930 . S
H1343 C1339 0.930 . S
C1344 N1345 1.314 . S
C1344 C1346 1.353 . S
C1344 H1350 0.930 . S
N1345 Li1321 1.990 . S
N1345 C1344 1.314 . S
N1345 C1348 1.279 . S
C1346 C1344 1.353 . S
C1346 C1349 1.348 . S
C1346 H1394 0.929 . S
C1347 C1348 1.358 . S
C1347 C1349 1.356 . S
C1347 H1395 0.930 . S
C1348 N1345 1.279 . S
C1348 C1347 1.358 . S
C1348 H1351 0.930 . S
C1349 C1346 1.348 . S
C1349 C1347 1.356 . S
H1350 C1344 0.930 . S
H1351 C1348 0.930 . S
C1352 C1354 1.348 . S
C1352 C1355 1.356 . S
C1352 O1382 1.325 . S
N1353 C1356 1.314 . S
N1353 C1357 1.279 . S
C1354 C1352 1.348 . S
C1354 C1356 1.353 . S
C1354 H1396 0.929 . S
C1355 C1352 1.356 . S
C1355 C1357 1.358 . S
C1355 H1397 0.930 . S
C1356 N1353 1.314 . S
C1356 C1354 1.353 . S
C1356 H1398 0.930 . S
C1357 N1353 1.279 . S
C1357 C1355 1.358 . S
C1357 H1399 0.930 . S
C1358 C1359 1.348 . S
C1358 C1360 1.356 . S
C1358 O1383 1.325 . S
C1359 C1358 1.348 . S
C1359 C1361 1.353 . S
C1359 H1400 0.929 . S
C1360 C1358 1.356 . S
C1360 C1362 1.358 . S
C1360 H1401 0.930 . S
C1361 C1359 1.353 . S
C1361 N1363 1.314 . S
C1361 H1402 0.930 . S
C1362 C1360 1.358 . S
C1362 N1363 1.279 . S
C1362 H1403 0.930 . S
N1363 C1361 1.314 . S
N1363 C1362 1.279 . S
C1364 C1366 1.353 1_556 S
C1364 N1367 1.314 1_655 S
C1364 H1370 0.930 . S
C1365 N1367 1.279 . S
C1365 C1368 1.358 . S
C1365 H1371 0.930 . S
C1366 C1364 1.353 1_554 S
C1366 C1369 1.348 1_655 S
C1366 H1404 0.929 . S
N1367 Li1322 1.994 . S
N1367 C1364 1.314 1_455 S
N1367 C1365 1.279 . S
C1368 C1365 1.358 . S
C1368 C1369 1.356 1_556 S
C1368 H1405 0.930 . S
C1369 C1366 1.348 1_455 S
C1369 C1368 1.356 1_554 S
H1370 C1364 0.930 . S
H1371 C1365 0.930 . S
C1372 N1373 1.314 1_455 S
C1372 C1374 1.353 . S
C1372 H1378 0.930 . S
N1373 Li1323 1.993 . S
N1373 C1372 1.314 1_655 S
N1373 C1376 1.279 . S
C1374 C1372 1.353 . S
C1374 C1377 1.348 . S
C1374 H1406 0.929 . S
C1375 C1376 1.358 . S
C1375 C1377 1.356 1_655 S
C1375 H1407 0.930 . S
C1376 N1373 1.279 . S
C1376 C1375 1.358 . S
C1376 H1379 0.930 . S
C1377 C1374 1.348 . S
C1377 C1375 1.356 1_455 S
H1378 C1372 0.930 . S
H1379 C1376 0.930 . S
O1380 Li1320 1.931 1_655 S
O1380 Li1321 1.994 . S
O1380 Li1322 1.958 1_655 S
O1380 C1324 1.324 1_655 S
O1381 Li1320 2.005 . S
O1381 Li1321 1.919 1_455 S
O1381 Li1323 1.958 1_455 S
O1381 C1330 1.324 . S
O1382 Li1320 1.961 . S
O1382 Li1322 1.998 . S
O1382 Li1323 1.939 1_455 S
O1382 C1352 1.325 . S
O1383 Li1321 1.961 . S
O1383 Li1322 1.926 1_655 S
O1383 Li1323 1.986 . S
O1383 C1358 1.325 . S
H1384 C1326 0.929 . S
H1385 C1327 0.930 . S
H1386 C1328 0.930 . S
H1387 C1329 0.930 . S
H1388 C1331 0.930 . S
H1389 C1333 0.929 . S
H1390 C1334 0.930 . S
H1391 C1335 0.930 . S
H1392 C1338 0.930 . S
H1393 C1341 0.929 . S
H1394 C1346 0.929 . S
H1395 C1347 0.930 . S
H1396 C1354 0.929 . S
H1397 C1355 0.930 . S
H1398 C1356 0.930 . S
H1399 C1357 0.930 . S
H1400 C1359 0.929 . S
H1401 C1360 0.930 . S
H1402 C1361 0.930 . S
H1403 C1362 0.930 . S
H1404 C1366 0.929 . S
H1405 C1368 0.930 . S
H1406 C1374 0.929 . S
H1407 C1375 0.930 . S
H1408 C1414 0.930 . S
H1409 C1418 0.930 . S
H1410 C1423 0.929 . S
H1411 C1421 0.929 . S
H1412 C1416 0.929 . S
H1413 C1422 0.929 . S
C1414 H1408 0.930 . S
C1414 C1415 1.367 . S
C1414 C1422 1.378 . S
C1415 C1414 1.367 . S
C1415 C1423 1.433 . S
C1416 H1412 0.929 . S
C1416 C1418 1.378 . S
C1416 C1420 1.350 . S
C1417 C1420 1.463 . S
C1417 C1422 1.350 . S
C1417 N1425 1.427 . S
C1418 H1409 0.930 . S
C1418 C1416 1.378 . S
C1418 C1419 1.367 . S
C1419 C1418 1.367 . S
C1419 C1421 1.433 . S
C1420 C1416 1.350 . S
C1420 C1417 1.463 . S
C1420 N1424 1.427 . S
C1421 H1411 0.929 . S
C1421 C1419 1.433 . S
C1421 N1424 1.384 . S
C1422 H1413 0.929 . S
C1422 C1414 1.378 . S
C1422 C1417 1.350 . S
C1423 H1410 0.929 . S
C1423 C1415 1.433 . S
C1423 N1425 1.384 . S
N1424 C1420 1.427 . S
N1424 C1421 1.384 . S
N1425 C1417 1.427 . S
N1425 C1423 1.384 . S
H1426 C1432 0.930 . S
H1427 C1436 0.930 . S
H1428 C1441 0.929 . S
H1429 C1439 0.929 . S
H1430 C1434 0.929 . S
H1431 C1440 0.929 . S
C1432 H1426 0.930 . S
C1432 C1433 1.367 . S
C1432 C1440 1.378 . S
C1433 C1432 1.367 . S
C1433 C1441 1.433 . S
C1434 H1430 0.929 . S
C1434 C1436 1.378 . S
C1434 C1438 1.350 . S
C1435 C1438 1.463 . S
C1435 C1440 1.350 . S
C1435 N1443 1.427 . S
C1436 H1427 0.930 . S
C1436 C1434 1.378 . S
C1436 C1437 1.367 . S
C1437 C1436 1.367 . S
C1437 C1439 1.433 . S
C1438 C1434 1.350 . S
C1438 C1435 1.463 . S
C1438 N1442 1.427 . S
C1439 H1429 0.929 . S
C1439 C1437 1.433 . S
C1439 N1442 1.384 . S
C1440 H1431 0.929 . S
C1440 C1432 1.378 . S
C1440 C1435 1.350 . S
C1441 H1428 0.929 . S
C1441 C1433 1.433 . S
C1441 N1443 1.384 . S
N1442 C1438 1.427 . S
N1442 C1439 1.384 . S
N1443 C1435 1.427 . S
N1443 C1441 1.384 . S
H1444 C1450 0.930 . S
H1445 C1454 0.930 . S
H1446 C1459 0.929 . S
H1447 C1457 0.929 . S
H1448 C1452 0.929 . S
H1449 C1458 0.929 . S
C1450 H1444 0.930 . S
C1450 C1451 1.367 . S
C1450 C1458 1.378 . S
C1451 C1450 1.367 . S
C1451 C1459 1.433 . S
C1452 H1448 0.929 . S
C1452 C1454 1.378 . S
C1452 C1456 1.350 . S
C1453 C1456 1.463 . S
C1453 C1458 1.350 . S
C1453 N1461 1.427 . S
C1454 H1445 0.930 . S
C1454 C1452 1.378 . S
C1454 C1455 1.367 . S
C1455 C1454 1.367 . S
C1455 C1457 1.433 . S
C1456 C1452 1.350 . S
C1456 C1453 1.463 . S
C1456 N1460 1.427 . S
C1457 H1447 0.929 . S
C1457 C1455 1.433 . S
C1457 N1460 1.384 . S
C1458 H1449 0.929 . S
C1458 C1450 1.378 . S
C1458 C1453 1.350 . S
C1459 H1446 0.929 . S
C1459 C1451 1.433 . S
C1459 N1461 1.384 . S
N1460 C1456 1.427 . S
N1460 C1457 1.384 . S
N1461 C1453 1.427 . S
N1461 C1459 1.384 . S
H1462 C1468 0.930 . S
H1463 C1472 0.930 . S
H1464 C1477 0.929 . S
H1465 C1475 0.929 . S
H1466 C1470 0.929 . S
H1467 C1476 0.929 . S
C1468 H1462 0.930 . S
C1468 C1469 1.367 . S
C1468 C1476 1.378 . S
C1469 C1468 1.367 . S
C1469 C1477 1.433 1_556 S
C1470 H1466 0.929 . S
C1470 C1472 1.378 . S
C1470 C1474 1.350 . S
C1471 C1474 1.463 . S
C1471 C1476 1.350 . S
C1471 N1479 1.427 . S
C1472 H1463 0.930 . S
C1472 C1470 1.378 . S
C1472 C1473 1.367 . S
C1473 C1472 1.367 . S
C1473 C1475 1.433 . S
C1474 C1470 1.350 . S
C1474 C1471 1.463 . S
C1474 N1478 1.427 . S
C1475 H1465 0.929 . S
C1475 C1473 1.433 . S
C1475 N1478 1.384 . S
C1476 H1467 0.929 . S
C1476 C1468 1.378 . S
C1476 C1471 1.350 . S
C1477 H1464 0.929 . S
C1477 C1469 1.433 1_554 S
C1477 N1479 1.384 1_554 S
N1478 C1474 1.427 . S
N1478 C1475 1.384 . S
N1479 C1471 1.427 . S
N1479 C1477 1.384 1_556 S
H1480 C1486 0.930 . S
H1481 C1490 0.930 . S
H1482 C1495 0.929 . S
H1483 C1493 0.929 . S
H1484 C1488 0.929 . S
H1485 C1494 0.929 . S
C1486 H1480 0.930 . S
C1486 C1487 1.367 . S
C1486 C1494 1.378 . S
C1487 C1486 1.367 . S
C1487 C1495 1.433 . S
C1488 H1484 0.929 . S
C1488 C1490 1.378 . S
C1488 C1492 1.350 . S
C1489 C1492 1.463 . S
C1489 C1494 1.350 . S
C1489 N1497 1.427 . S
C1490 H1481 0.930 . S
C1490 C1488 1.378 . S
C1490 C1491 1.367 . S
C1491 C1490 1.367 . S
C1491 C1493 1.433 . S
C1492 C1488 1.350 . S
C1492 C1489 1.463 . S
C1492 N1496 1.427 . S
C1493 H1483 0.929 . S
C1493 C1491 1.433 . S
C1493 N1496 1.384 . S
C1494 H1485 0.929 . S
C1494 C1486 1.378 . S
C1494 C1489 1.350 . S
C1495 H1482 0.929 . S
C1495 C1487 1.433 . S
C1495 N1497 1.384 . S
N1496 C1492 1.427 . S
N1496 C1493 1.384 . S
N1497 C1489 1.427 . S
N1497 C1495 1.384 . S
H1498 C1504 0.930 . S
H1499 C1508 0.930 . S
H1500 C1513 0.929 . S
H1501 C1511 0.929 . S
H1502 C1506 0.929 . S
H1503 C1512 0.929 . S
C1504 H1498 0.930 . S
C1504 C1505 1.367 . S
C1504 C1512 1.378 . S
C1505 C1504 1.367 . S
C1505 C1513 1.433 . S
C1506 H1502 0.929 . S
C1506 C1508 1.378 . S
C1506 C1510 1.350 . S
C1507 C1510 1.463 . S
C1507 C1512 1.350 . S
C1507 N1515 1.427 . S
C1508 H1499 0.930 . S
C1508 C1506 1.378 . S
C1508 C1509 1.367 . S
C1509 C1508 1.367 . S
C1509 C1511 1.433 . S
C1510 C1506 1.350 . S
C1510 C1507 1.463 . S
C1510 N1514 1.427 . S
C1511 H1501 0.929 . S
C1511 C1509 1.433 . S
C1511 N1514 1.384 . S
C1512 H1503 0.929 . S
C1512 C1504 1.378 . S
C1512 C1507 1.350 . S
C1513 H1500 0.929 . S
C1513 C1505 1.433 . S
C1513 N1515 1.384 . S
N1514 C1510 1.427 . S
N1514 C1511 1.384 . S
N1515 C1507 1.427 . S
N1515 C1513 1.384 . S
H1516 C1522 0.930 . S
H1517 C1526 0.930 . S
H1518 C1531 0.929 . S
H1519 C1529 0.929 . S
H1520 C1524 0.929 . S
H1521 C1530 0.929 . S
C1522 H1516 0.930 . S
C1522 C1523 1.367 . S
C1522 C1530 1.378 . S
C1523 C1522 1.367 . S
C1523 C1531 1.433 . S
C1524 H1520 0.929 . S
C1524 C1526 1.378 . S
C1524 C1528 1.350 . S
C1525 C1528 1.463 . S
C1525 C1530 1.350 . S
C1525 N1533 1.427 . S
C1526 H1517 0.930 . S
C1526 C1524 1.378 . S
C1526 C1527 1.367 . S
C1527 C1526 1.367 . S
C1527 C1529 1.433 . S
C1528 C1524 1.350 . S
C1528 C1525 1.463 . S
C1528 N1532 1.427 . S
C1529 H1519 0.929 . S
C1529 C1527 1.433 . S
C1529 N1532 1.384 . S
C1530 H1521 0.929 . S
C1530 C1522 1.378 . S
C1530 C1525 1.350 . S
C1531 H1518 0.929 . S
C1531 C1523 1.433 . S
C1531 N1533 1.384 . S
N1532 C1528 1.427 . S
N1532 C1529 1.384 . S
N1533 C1525 1.427 . S
N1533 C1531 1.384 . S
H1534 C1540 0.930 . S
H1535 C1544 0.930 . S
H1536 C1549 0.929 . S
H1537 C1547 0.929 . S
H1538 C1542 0.929 . S
H1539 C1548 0.929 . S
C1540 H1534 0.930 . S
C1540 C1541 1.367 . S
C1540 C1548 1.378 . S
C1541 C1540 1.367 . S
C1541 C1549 1.433 . S
C1542 H1538 0.929 . S
C1542 C1544 1.378 . S
C1542 C1546 1.350 . S
C1543 C1546 1.463 . S
C1543 C1548 1.350 . S
C1543 N1551 1.427 . S
C1544 H1535 0.930 . S
C1544 C1542 1.378 . S
C1544 C1545 1.367 . S
C1545 C1544 1.367 . S
C1545 C1547 1.433 . S
C1546 C1542 1.350 . S
C1546 C1543 1.463 . S
C1546 N1550 1.427 . S
C1547 H1537 0.929 . S
C1547 C1545 1.433 . S
C1547 N1550 1.384 . S
C1548 H1539 0.929 . S
C1548 C1540 1.378 . S
C1548 C1543 1.350 . S
C1549 H1536 0.929 . S
C1549 C1541 1.433 . S
C1549 N1551 1.384 . S
N1550 C1546 1.427 . S
N1550 C1547 1.384 . S
N1551 C1543 1.427 . S
N1551 C1549 1.384 . S
H1552 C1558 0.930 . S
H1553 C1562 0.930 . S
H1554 C1567 0.929 . S
H1555 C1565 0.929 . S
H1556 C1560 0.929 1_554 S
H1557 C1566 0.929 . S
C1558 H1552 0.930 . S
C1558 C1559 1.367 . S
C1558 C1566 1.378 . S
C1559 C1558 1.367 . S
C1559 C1567 1.433 . S
C1560 H1556 0.929 1_556 S
C1560 C1562 1.378 1_556 S
C1560 C1564 1.350 . S
C1561 C1564 1.463 . S
C1561 C1566 1.350 . S
C1561 N1569 1.427 . S
C1562 H1553 0.930 . S
C1562 C1560 1.378 1_554 S
C1562 C1563 1.367 1_554 S
C1563 C1562 1.367 1_556 S
C1563 C1565 1.433 . S
C1564 C1560 1.350 . S
C1564 C1561 1.463 . S
C1564 N1568 1.427 . S
C1565 H1555 0.929 . S
C1565 C1563 1.433 . S
C1565 N1568 1.384 . S
C1566 H1557 0.929 . S
C1566 C1558 1.378 . S
C1566 C1561 1.350 . S
C1567 H1554 0.929 . S
C1567 C1559 1.433 . S
C1567 N1569 1.384 . S
N1568 C1564 1.427 . S
N1568 C1565 1.384 . S
N1569 C1561 1.427 . S
N1569 C1567 1.384 . S
H1570 C1576 0.930 . S
H1571 C1580 0.930 . S
H1572 C1585 0.929 . S
H1573 C1583 0.929 . S
H1574 C1578 0.929 . S
H1575 C1584 0.929 . S
C1576 H1570 0.930 . S
C1576 C1577 1.367 . S
C1576 C1584 1.378 . S
C1577 C1576 1.367 . S
C1577 C1585 1.433 . S
C1578 H1574 0.929 . S
C1578 C1580 1.378 . S
C1578 C1582 1.350 . S
C1579 C1582 1.463 . S
C1579 C1584 1.350 . S
C1579 N1587 1.427 . S
C1580 H1571 0.930 . S
C1580 C1578 1.378 . S
C1580 C1581 1.367 . S
C1581 C1580 1.367 . S
C1581 C1583 1.433 . S
C1582 C1578 1.350 . S
C1582 C1579 1.463 . S
C1582 N1586 1.427 . S
C1583 H1573 0.929 . S
C1583 C1581 1.433 . S
C1583 N1586 1.384 . S
C1584 H1575 0.929 . S
C1584 C1576 1.378 . S
C1584 C1579 1.350 . S
C1585 H1572 0.929 . S
C1585 C1577 1.433 . S
C1585 N1587 1.384 . S
N1586 C1582 1.427 . S
N1586 C1583 1.384 . S
N1587 C1579 1.427 . S
N1587 C1585 1.384 . S
H1588 C1594 0.930 . S
H1589 C1598 0.930 . S
H1590 C1603 0.929 . S
H1591 C1601 0.929 . S
H1592 C1596 0.929 . S
H1593 C1602 0.929 . S
C1594 H1588 0.930 . S
C1594 C1595 1.367 . S
C1594 C1602 1.378 . S
C1595 C1594 1.367 . S
C1595 C1603 1.433 . S
C1596 H1592 0.929 . S
C1596 C1598 1.378 . S
C1596 C1600 1.350 . S
C1597 C1600 1.463 . S
C1597 C1602 1.350 . S
C1597 N1605 1.427 . S
C1598 H1589 0.930 . S
C1598 C1596 1.378 . S
C1598 C1599 1.367 . S
C1599 C1598 1.367 . S
C1599 C1601 1.433 . S
C1600 C1596 1.350 . S
C1600 C1597 1.463 . S
C1600 N1604 1.427 . S
C1601 H1591 0.929 . S
C1601 C1599 1.433 . S
C1601 N1604 1.384 . S
C1602 H1593 0.929 . S
C1602 C1594 1.378 . S
C1602 C1597 1.350 . S
C1603 H1590 0.929 . S
C1603 C1595 1.433 . S
C1603 N1605 1.384 . S
N1604 C1600 1.427 . S
N1604 C1601 1.384 . S
N1605 C1597 1.427 . S
N1605 C1603 1.384 . S
H1606 C1612 0.930 . S
H1607 C1616 0.930 . S
H1608 C1621 0.929 . S
H1609 C1619 0.929 . S
H1610 C1614 0.929 . S
H1611 C1620 0.929 . S
C1612 H1606 0.930 . S
C1612 C1613 1.367 . S
C1612 C1620 1.378 . S
C1613 C1612 1.367 . S
C1613 C1621 1.433 . S
C1614 H1610 0.929 . S
C1614 C1616 1.378 . S
C1614 C1618 1.350 . S
C1615 C1618 1.463 . S
C1615 C1620 1.350 . S
C1615 N1623 1.427 . S
C1616 H1607 0.930 . S
C1616 C1614 1.378 . S
C1616 C1617 1.367 . S
C1617 C1616 1.367 . S
C1617 C1619 1.433 . S
C1618 C1614 1.350 . S
C1618 C1615 1.463 . S
C1618 N1622 1.427 . S
C1619 H1609 0.929 . S
C1619 C1617 1.433 . S
C1619 N1622 1.384 . S
C1620 H1611 0.929 . S
C1620 C1612 1.378 . S
C1620 C1615 1.350 . S
C1621 H1608 0.929 . S
C1621 C1613 1.433 . S
C1621 N1623 1.384 . S
N1622 C1618 1.427 . S
N1622 C1619 1.384 . S
N1623 C1615 1.427 . S
N1623 C1621 1.384 . S
H1624 C1630 0.930 . S
H1625 C1634 0.930 . S
H1626 C1639 0.929 . S
H1627 C1637 0.929 . S
H1628 C1632 0.929 . S
H1629 C1638 0.929 . S
C1630 H1624 0.930 . S
C1630 C1631 1.367 . S
C1630 C1638 1.378 . S
C1631 C1630 1.367 . S
C1631 C1639 1.433 . S
C1632 H1628 0.929 . S
C1632 C1634 1.378 . S
C1632 C1636 1.350 . S
C1633 C1636 1.463 . S
C1633 C1638 1.350 . S
C1633 N1641 1.427 . S
C1634 H1625 0.930 . S
C1634 C1632 1.378 . S
C1634 C1635 1.367 . S
C1635 C1634 1.367 . S
C1635 C1637 1.433 . S
C1636 C1632 1.350 . S
C1636 C1633 1.463 . S
C1636 N1640 1.427 . S
C1637 H1627 0.929 . S
C1637 C1635 1.433 . S
C1637 N1640 1.384 . S
C1638 H1629 0.929 . S
C1638 C1630 1.378 . S
C1638 C1633 1.350 . S
C1639 H1626 0.929 . S
C1639 C1631 1.433 . S
C1639 N1641 1.384 . S
N1640 C1636 1.427 . S
N1640 C1637 1.384 . S
N1641 C1633 1.427 . S
N1641 C1639 1.384 . S
H1642 C1648 0.930 . S
H1643 C1652 0.930 . S
H1644 C1657 0.929 . S
H1645 C1655 0.929 . S
H1646 C1650 0.929 1_554 S
H1647 C1656 0.929 . S
C1648 H1642 0.930 . S
C1648 C1649 1.367 . S
C1648 C1656 1.378 . S
C1649 C1648 1.367 . S
C1649 C1657 1.433 . S
C1650 H1646 0.929 1_556 S
C1650 C1652 1.378 1_556 S
C1650 C1654 1.350 . S
C1651 C1654 1.463 . S
C1651 C1656 1.350 . S
C1651 N1659 1.427 . S
C1652 H1643 0.930 . S
C1652 C1650 1.378 1_554 S
C1652 C1653 1.367 1_554 S
C1653 C1652 1.367 1_556 S
C1653 C1655 1.433 . S
C1654 C1650 1.350 . S
C1654 C1651 1.463 . S
C1654 N1658 1.427 . S
C1655 H1645 0.929 . S
C1655 C1653 1.433 . S
C1655 N1658 1.384 . S
C1656 H1647 0.929 . S
C1656 C1648 1.378 . S
C1656 C1651 1.350 . S
C1657 H1644 0.929 . S
C1657 C1649 1.433 . S
C1657 N1659 1.384 . S
N1658 C1654 1.427 . S
N1658 C1655 1.384 . S
N1659 C1651 1.427 . S
N1659 C1657 1.384 . S
H1660 C1666 0.930 . S
H1661 C1670 0.930 . S
H1662 C1675 0.929 . S
H1663 C1673 0.929 . S
H1664 C1668 0.929 . S
H1665 C1674 0.929 . S
C1666 H1660 0.930 . S
C1666 C1667 1.367 . S
C1666 C1674 1.378 . S
C1667 C1666 1.367 . S
C1667 C1675 1.433 . S
C1668 H1664 0.929 . S
C1668 C1670 1.378 . S
C1668 C1672 1.350 . S
C1669 C1672 1.463 . S
C1669 C1674 1.350 . S
C1669 N1677 1.427 . S
C1670 H1661 0.930 . S
C1670 C1668 1.378 . S
C1670 C1671 1.367 . S
C1671 C1670 1.367 . S
C1671 C1673 1.433 . S
C1672 C1668 1.350 . S
C1672 C1669 1.463 . S
C1672 N1676 1.427 . S
C1673 H1663 0.929 . S
C1673 C1671 1.433 . S
C1673 N1676 1.384 . S
C1674 H1665 0.929 . S
C1674 C1666 1.378 . S
C1674 C1669 1.350 . S
C1675 H1662 0.929 . S
C1675 C1667 1.433 . S
C1675 N1677 1.384 . S
N1676 C1672 1.427 . S
N1676 C1673 1.384 . S
N1677 C1669 1.427 . S
N1677 C1675 1.384 . S
H1678 C1684 0.930 . S
H1679 C1688 0.930 . S
H1680 C1693 0.929 . S
H1681 C1691 0.929 . S
H1682 C1686 0.929 . S
H1683 C1692 0.929 . S
C1684 H1678 0.930 . S
C1684 C1685 1.367 . S
C1684 C1692 1.378 . S
C1685 C1684 1.367 . S
C1685 C1693 1.433 . S
C1686 H1682 0.929 . S
C1686 C1688 1.378 . S
C1686 C1690 1.350 . S
C1687 C1690 1.463 . S
C1687 C1692 1.350 . S
C1687 N1695 1.427 . S
C1688 H1679 0.930 . S
C1688 C1686 1.378 . S
C1688 C1689 1.367 . S
C1689 C1688 1.367 . S
C1689 C1691 1.433 . S
C1690 C1686 1.350 . S
C1690 C1687 1.463 . S
C1690 N1694 1.427 . S
C1691 H1681 0.929 . S
C1691 C1689 1.433 . S
C1691 N1694 1.384 . S
C1692 H1683 0.929 . S
C1692 C1684 1.378 . S
C1692 C1687 1.350 . S
C1693 H1680 0.929 . S
C1693 C1685 1.433 . S
C1693 N1695 1.384 . S
N1694 C1690 1.427 . S
N1694 C1691 1.384 . S
N1695 C1687 1.427 . S
N1695 C1693 1.384 . S
H1696 C1702 0.930 . S
H1697 C1706 0.930 . S
H1698 C1711 0.929 . S
H1699 C1709 0.929 . S
H1700 C1704 0.929 . S
H1701 C1710 0.929 . S
C1702 H1696 0.930 . S
C1702 C1703 1.410 . S
C1702 C1710 1.378 . S
C1703 C1702 1.410 . S
C1703 C1711 1.391 1_455 S
C1704 H1700 0.929 . S
C1704 C1706 1.378 . S
C1704 C1708 1.354 1_655 S
C1705 C1708 1.461 . S
C1705 C1710 1.402 . S
C1705 N1713 1.376 1_455 S
C1706 H1697 0.930 . S
C1706 C1704 1.378 . S
C1706 C1707 1.362 1_654 S
C1707 C1706 1.362 1_456 S
C1707 C1709 1.438 . S
C1708 C1704 1.354 1_455 S
C1708 C1705 1.461 . S
C1708 N1712 1.423 . S
C1709 H1699 0.929 . S
C1709 C1707 1.438 . S
C1709 N1712 1.384 1_556 S
C1710 H1701 0.929 . S
C1710 C1702 1.378 . S
C1710 C1705 1.402 . S
C1711 H1698 0.929 . S
C1711 C1703 1.391 1_655 S
C1711 N1713 1.384 . S
N1712 C1708 1.423 . S
N1712 C1709 1.384 1_554 S
N1713 C1705 1.376 1_655 S
N1713 C1711 1.384 . S
H1714 C1720 0.930 . S
H1715 C1724 0.930 . S
H1716 C1729 0.929 . S
H1717 C1727 0.929 . S
H1718 C1722 0.929 . S
H1719 C1728 0.929 . S
C1720 H1714 0.930 . S
C1720 C1721 1.367 . S
C1720 C1728 1.378 . S
C1721 C1720 1.367 . S
C1721 C1729 1.433 . S
C1722 H1718 0.929 . S
C1722 C1724 1.378 . S
C1722 C1726 1.350 . S
C1723 C1726 1.463 . S
C1723 C1728 1.350 . S
C1723 N1731 1.427 . S
C1724 H1715 0.930 . S
C1724 C1722 1.378 . S
C1724 C1725 1.367 . S
C1725 C1724 1.367 . S
C1725 C1727 1.433 . S
C1726 C1722 1.350 . S
C1726 C1723 1.463 . S
C1726 N1730 1.427 . S
C1727 H1717 0.929 . S
C1727 C1725 1.433 . S
C1727 N1730 1.384 . S
C1728 H1719 0.929 . S
C1728 C1720 1.378 . S
C1728 C1723 1.350 . S
C1729 H1716 0.929 . S
C1729 C1721 1.433 . S
C1729 N1731 1.384 . S
N1730 C1726 1.427 . S
N1730 C1727 1.384 . S
N1731 C1723 1.427 . S
N1731 C1729 1.384 . S
H1732 C1738 0.930 . S
H1733 C1742 0.930 . S
H1734 C1747 0.929 . S
H1735 C1745 0.929 . S
H1736 C1740 0.929 . S
H1737 C1746 0.929 . S
C1738 H1732 0.930 . S
C1738 C1739 1.367 . S
C1738 C1746 1.378 . S
C1739 C1738 1.367 . S
C1739 C1747 1.433 . S
C1740 H1736 0.929 . S
C1740 C1742 1.378 . S
C1740 C1744 1.350 . S
C1741 C1744 1.463 . S
C1741 C1746 1.350 . S
C1741 N1749 1.427 . S
C1742 H1733 0.930 . S
C1742 C1740 1.378 . S
C1742 C1743 1.367 . S
C1743 C1742 1.367 . S
C1743 C1745 1.433 . S
C1744 C1740 1.350 . S
C1744 C1741 1.463 . S
C1744 N1748 1.427 . S
C1745 H1735 0.929 . S
C1745 C1743 1.433 . S
C1745 N1748 1.384 . S
C1746 H1737 0.929 . S
C1746 C1738 1.378 . S
C1746 C1741 1.350 . S
C1747 H1734 0.929 . S
C1747 C1739 1.433 . S
C1747 N1749 1.384 . S
N1748 C1744 1.427 . S
N1748 C1745 1.384 . S
N1749 C1741 1.427 . S
N1749 C1747 1.384 . S
H1750 C1756 0.930 . S
H1751 C1760 0.930 . S
H1752 C1765 0.929 . S
H1753 C1763 0.929 . S
H1754 C1758 0.929 . S
H1755 C1764 0.929 . S
C1756 H1750 0.930 . S
C1756 C1757 1.367 . S
C1756 C1764 1.378 . S
C1757 C1756 1.367 . S
C1757 C1765 1.433 . S
C1758 H1754 0.929 . S
C1758 C1760 1.378 . S
C1758 C1762 1.350 . S
C1759 C1762 1.463 . S
C1759 C1764 1.350 . S
C1759 N1767 1.427 . S
C1760 H1751 0.930 . S
C1760 C1758 1.378 . S
C1760 C1761 1.367 . S
C1761 C1760 1.367 . S
C1761 C1763 1.433 . S
C1762 C1758 1.350 . S
C1762 C1759 1.463 . S
C1762 N1766 1.427 . S
C1763 H1753 0.929 . S
C1763 C1761 1.433 . S
C1763 N1766 1.384 . S
C1764 H1755 0.929 . S
C1764 C1756 1.378 . S
C1764 C1759 1.350 . S
C1765 H1752 0.929 . S
C1765 C1757 1.433 . S
C1765 N1767 1.384 . S
N1766 C1762 1.427 . S
N1766 C1763 1.384 . S
N1767 C1759 1.427 . S
N1767 C1765 1.384 . S
H1768 C1774 0.930 . S
H1769 C1778 0.930 . S
H1770 C1783 0.929 . S
H1771 C1781 0.929 . S
H1772 C1776 0.929 . S
H1773 C1782 0.929 . S
C1774 H1768 0.930 . S
C1774 C1775 1.367 . S
C1774 C1782 1.378 . S
C1775 C1774 1.367 . S
C1775 C1783 1.433 . S
C1776 H1772 0.929 . S
C1776 C1778 1.378 . S
C1776 C1780 1.350 . S
C1777 C1780 1.463 . S
C1777 C1782 1.350 . S
C1777 N1785 1.427 . S
C1778 H1769 0.930 . S
C1778 C1776 1.378 . S
C1778 C1779 1.367 . S
C1779 C1778 1.367 . S
C1779 C1781 1.433 . S
C1780 C1776 1.350 . S
C1780 C1777 1.463 . S
C1780 N1784 1.427 . S
C1781 H1771 0.929 . S
C1781 C1779 1.433 . S
C1781 N1784 1.384 . S
C1782 H1773 0.929 . S
C1782 C1774 1.378 . S
C1782 C1777 1.350 . S
C1783 H1770 0.929 . S
C1783 C1775 1.433 . S
C1783 N1785 1.384 . S
N1784 C1780 1.427 . S
N1784 C1781 1.384 . S
N1785 C1777 1.427 . S
N1785 C1783 1.384 . S
H1786 C1792 0.930 . S
H1787 C1796 0.930 . S
H1788 C1801 0.929 . S
H1789 C1799 0.929 . S
H1790 C1794 0.929 . S
H1791 C1800 0.929 . S
C1792 H1786 0.930 . S
C1792 C1793 1.367 . S
C1792 C1800 1.378 . S
C1793 C1792 1.367 . S
C1793 C1801 1.433 . S
C1794 H1790 0.929 . S
C1794 C1796 1.378 . S
C1794 C1798 1.350 . S
C1795 C1798 1.463 . S
C1795 C1800 1.350 . S
C1795 N1803 1.427 . S
C1796 H1787 0.930 . S
C1796 C1794 1.378 . S
C1796 C1797 1.367 . S
C1797 C1796 1.367 . S
C1797 C1799 1.433 . S
C1798 C1794 1.350 . S
C1798 C1795 1.463 . S
C1798 N1802 1.427 . S
C1799 H1789 0.929 . S
C1799 C1797 1.433 . S
C1799 N1802 1.384 . S
C1800 H1791 0.929 . S
C1800 C1792 1.378 . S
C1800 C1795 1.350 . S
C1801 H1788 0.929 . S
C1801 C1793 1.433 . S
C1801 N1803 1.384 . S
N1802 C1798 1.427 . S
N1802 C1799 1.384 . S
N1803 C1795 1.427 . S
N1803 C1801 1.384 . S
H1804 C1810 0.930 . S
H1805 C1814 0.930 . S
H1806 C1819 0.929 . S
H1807 C1817 0.929 . S
H1808 C1812 0.929 . S
H1809 C1818 0.929 . S
C1810 H1804 0.930 . S
C1810 C1811 1.367 . S
C1810 C1818 1.378 . S
C1811 C1810 1.367 . S
C1811 C1819 1.433 . S
C1812 H1808 0.929 . S
C1812 C1814 1.378 . S
C1812 C1816 1.350 . S
C1813 C1816 1.463 1_565 S
C1813 C1818 1.350 . S
C1813 N1821 1.427 . S
C1814 H1805 0.930 . S
C1814 C1812 1.378 . S
C1814 C1815 1.367 . S
C1815 C1814 1.367 . S
C1815 C1817 1.433 . S
C1816 C1812 1.350 . S
C1816 C1813 1.463 1_545 S
C1816 N1820 1.427 . S
C1817 H1807 0.929 . S
C1817 C1815 1.433 . S
C1817 N1820 1.384 . S
C1818 H1809 0.929 . S
C1818 C1810 1.378 . S
C1818 C1813 1.350 . S
C1819 H1806 0.929 . S
C1819 C1811 1.433 . S
C1819 N1821 1.384 . S
N1820 C1816 1.427 . S
N1820 C1817 1.384 . S
N1821 C1813 1.427 . S
N1821 C1819 1.384 . S
H1822 C1828 0.930 . S
H1823 C1832 0.930 . S
H1824 C1837 0.929 . S
H1825 C1835 0.929 . S
H1826 C1830 0.995 . S
H1827 C1836 0.995 . S
C1828 H1822 0.930 . S
C1828 C1829 1.366 1_455 S
C1828 C1836 1.338 1_546 S
C1829 C1828 1.366 1_655 S
C1829 C1837 1.434 1_556 S
C1830 H1826 0.995 . S
C1830 C1832 1.338 1_545 S
C1830 C1834 1.339 1_545 S
C1831 C1834 1.462 1_545 S
C1831 C1836 1.328 1_645 S
C1831 N1839 1.425 . S
C1832 H1823 0.930 . S
C1832 C1830 1.338 1_565 S
C1832 C1833 1.377 . S
C1833 C1832 1.377 . S
C1833 C1835 1.423 1_655 S
C1834 C1830 1.339 1_565 S
C1834 C1831 1.462 1_565 S
C1834 N1838 1.415 1_655 S
C1835 H1825 0.929 . S
C1835 C1833 1.423 1_455 S
C1835 N1838 1.384 . S
C1836 H1827 0.995 . S
C1836 C1828 1.338 1_564 S
C1836 C1831 1.328 1_465 S
C1837 H1824 0.929 . S
C1837 C1829 1.434 1_554 S
C1837 N1839 1.384 . S
N1838 C1834 1.415 1_455 S
N1838 C1835 1.384 . S
N1839 C1831 1.425 . S
N1839 C1837 1.384 . S
H1840 C1846 0.930 . S
H1841 C1850 0.930 . S
H1842 C1855 0.929 . S
H1843 C1853 0.929 . S
H1844 C1848 0.929 . S
H1845 C1854 0.929 . S
C1846 H1840 0.930 . S
C1846 C1847 1.383 . S
C1846 C1854 1.378 . S
C1847 C1846 1.383 . S
C1847 C1855 1.418 1_655 S
C1848 H1844 0.929 . S
C1848 C1850 1.378 . S
C1848 C1852 1.347 . S
C1849 C1852 1.462 1_655 S
C1849 C1854 1.370 . S
C1849 N1857 1.408 1_655 S
C1850 H1841 0.930 . S
C1850 C1848 1.378 . S
C1850 C1851 1.369 1_455 S
C1851 C1850 1.369 1_655 S
C1851 C1853 1.431 . S
C1852 C1848 1.347 . S
C1852 C1849 1.462 1_455 S
C1852 N1856 1.430 1_455 S
C1853 H1843 0.929 . S
C1853 C1851 1.431 . S
C1853 N1856 1.384 . S
C1854 H1845 0.929 . S
C1854 C1846 1.378 . S
C1854 C1849 1.370 . S
C1855 H1842 0.929 . S
C1855 C1847 1.418 1_455 S
C1855 N1857 1.384 . S
N1856 C1852 1.430 1_655 S
N1856 C1853 1.384 . S
N1857 C1849 1.408 1_455 S
N1857 C1855 1.384 . S
H1858 C1864 0.930 . S
H1859 C1868 0.930 . S
H1860 C1873 0.929 . S
H1861 C1871 0.929 . S
H1862 C1866 0.929 . S
H1863 C1872 0.929 . S
C1864 H1858 0.930 . S
C1864 C1865 1.367 . S
C1864 C1872 1.378 . S
C1865 C1864 1.367 . S
C1865 C1873 1.433 . S
C1866 H1862 0.929 . S
C1866 C1868 1.378 . S
C1866 C1870 1.350 . S
C1867 C1870 1.463 . S
C1867 C1872 1.350 . S
C1867 N1875 1.427 . S
C1868 H1859 0.930 . S
C1868 C1866 1.378 . S
C1868 C1869 1.367 . S
C1869 C1868 1.367 . S
C1869 C1871 1.433 . S
C1870 C1866 1.350 . S
C1870 C1867 1.463 . S
C1870 N1874 1.427 . S
C1871 H1861 0.929 . S
C1871 C1869 1.433 . S
C1871 N1874 1.384 . S
C1872 H1863 0.929 . S
C1872 C1864 1.378 . S
C1872 C1867 1.350 . S
C1873 H1860 0.929 . S
C1873 C1865 1.433 . S
C1873 N1875 1.384 . S
N1874 C1870 1.427 . S
N1874 C1871 1.384 . S
N1875 C1867 1.427 . S
N1875 C1873 1.384 . S
H1876 C1882 0.930 . S
H1877 C1886 0.930 . S
H1878 C1891 0.929 . S
H1879 C1889 0.929 . S
H1880 C1884 0.929 . S
H1881 C1890 0.929 . S
C1882 H1876 0.930 . S
C1882 C1883 1.367 . S
C1882 C1890 1.378 . S
C1883 C1882 1.367 . S
C1883 C1891 1.433 . S
C1884 H1880 0.929 . S
C1884 C1886 1.378 . S
C1884 C1888 1.350 . S
C1885 C1888 1.463 . S
C1885 C1890 1.350 . S
C1885 N1893 1.427 . S
C1886 H1877 0.930 . S
C1886 C1884 1.378 . S
C1886 C1887 1.367 1_554 S
C1887 C1886 1.367 1_556 S
C1887 C1889 1.433 . S
C1888 C1884 1.350 . S
C1888 C1885 1.463 . S
C1888 N1892 1.427 . S
C1889 H1879 0.929 . S
C1889 C1887 1.433 . S
C1889 N1892 1.384 1_556 S
C1890 H1881 0.929 . S
C1890 C1882 1.378 . S
C1890 C1885 1.350 . S
C1891 H1878 0.929 . S
C1891 C1883 1.433 . S
C1891 N1893 1.384 . S
N1892 C1888 1.427 . S
N1892 C1889 1.384 1_554 S
N1893 C1885 1.427 . S
N1893 C1891 1.384 . S
H1894 C1900 0.930 . S
H1895 C1904 0.930 . S
H1896 C1909 0.929 . S
H1897 C1907 0.929 . S
H1898 C1902 0.929 . S
H1899 C1908 0.929 . S
C1900 H1894 0.930 . S
C1900 C1901 1.367 . S
C1900 C1908 1.378 . S
C1901 C1900 1.367 . S
C1901 C1909 1.433 . S
C1902 H1898 0.929 . S
C1902 C1904 1.378 . S
C1902 C1906 1.350 . S
C1903 C1906 1.463 . S
C1903 C1908 1.350 . S
C1903 N1911 1.427 . S
C1904 H1895 0.930 . S
C1904 C1902 1.378 . S
C1904 C1905 1.367 . S
C1905 C1904 1.367 . S
C1905 C1907 1.433 . S
C1906 C1902 1.350 . S
C1906 C1903 1.463 . S
C1906 N1910 1.427 . S
C1907 H1897 0.929 . S
C1907 C1905 1.433 . S
C1907 N1910 1.384 . S
C1908 H1899 0.929 . S
C1908 C1900 1.378 . S
C1908 C1903 1.350 . S
C1909 H1896 0.929 . S
C1909 C1901 1.433 . S
C1909 N1911 1.384 . S
N1910 C1906 1.427 . S
N1910 C1907 1.384 . S
N1911 C1903 1.427 . S
N1911 C1909 1.384 . S
H1912 C1918 0.930 . S
H1913 C1922 0.930 . S
H1914 C1927 0.929 . S
H1915 C1925 0.929 . S
H1916 C1920 0.929 . S
H1917 C1926 0.929 . S
C1918 H1912 0.930 . S
C1918 C1919 1.367 . S
C1918 C1926 1.378 . S
C1919 C1918 1.367 . S
C1919 C1927 1.433 . S
C1920 H1916 0.929 . S
C1920 C1922 1.378 . S
C1920 C1924 1.350 . S
C1921 C1924 1.463 . S
C1921 C1926 1.350 . S
C1921 N1929 1.427 . S
C1922 H1913 0.930 . S
C1922 C1920 1.378 . S
C1922 C1923 1.367 . S
C1923 C1922 1.367 . S
C1923 C1925 1.433 . S
C1924 C1920 1.350 . S
C1924 C1921 1.463 . S
C1924 N1928 1.427 . S
C1925 H1915 0.929 . S
C1925 C1923 1.433 . S
C1925 N1928 1.384 . S
C1926 H1917 0.929 . S
C1926 C1918 1.378 . S
C1926 C1921 1.350 . S
C1927 H1914 0.929 . S
C1927 C1919 1.433 . S
C1927 N1929 1.384 . S
N1928 C1924 1.427 . S
N1928 C1925 1.384 . S
N1929 C1921 1.427 . S
N1929 C1927 1.384 . S
H1930 C1936 0.930 . S
H1931 C1940 0.930 . S
H1932 C1945 0.929 . S
H1933 C1943 0.929 . S
H1934 C1938 0.929 . S
H1935 C1944 0.929 . S
C1936 H1930 0.930 . S
C1936 C1937 1.367 . S
C1936 C1944 1.378 . S
C1937 C1936 1.367 . S
C1937 C1945 1.433 . S
C1938 H1934 0.929 . S
C1938 C1940 1.378 . S
C1938 C1942 1.350 . S
C1939 C1942 1.463 . S
C1939 C1944 1.350 . S
C1939 N1947 1.427 . S
C1940 H1931 0.930 . S
C1940 C1938 1.378 . S
C1940 C1941 1.367 . S
C1941 C1940 1.367 . S
C1941 C1943 1.433 . S
C1942 C1938 1.350 . S
C1942 C1939 1.463 . S
C1942 N1946 1.427 . S
C1943 H1933 0.929 . S
C1943 C1941 1.433 . S
C1943 N1946 1.384 . S
C1944 H1935 0.929 . S
C1944 C1936 1.378 . S
C1944 C1939 1.350 . S
C1945 H1932 0.929 . S
C1945 C1937 1.433 . S
C1945 N1947 1.384 . S
N1946 C1942 1.427 . S
N1946 C1943 1.384 . S
N1947 C1939 1.427 . S
N1947 C1945 1.384 . S
H1948 C1954 0.930 . S
H1949 C1958 0.930 . S
H1950 C1963 0.929 . S
H1951 C1961 0.929 . S
H1952 C1956 0.929 . S
H1953 C1962 0.929 . S
C1954 H1948 0.930 . S
C1954 C1955 1.367 . S
C1954 C1962 1.378 . S
C1955 C1954 1.367 . S
C1955 C1963 1.433 . S
C1956 H1952 0.929 . S
C1956 C1958 1.378 . S
C1956 C1960 1.350 . S
C1957 C1960 1.463 1_565 S
C1957 C1962 1.350 . S
C1957 N1965 1.427 . S
C1958 H1949 0.930 . S
C1958 C1956 1.378 . S
C1958 C1959 1.367 1_554 S
C1959 C1958 1.367 1_556 S
C1959 C1961 1.433 . S
C1960 C1956 1.350 . S
C1960 C1957 1.463 1_545 S
C1960 N1964 1.427 . S
C1961 H1951 0.929 . S
C1961 C1959 1.433 . S
C1961 N1964 1.384 1_556 S
C1962 H1953 0.929 . S
C1962 C1954 1.378 . S
C1962 C1957 1.350 . S
C1963 H1950 0.929 . S
C1963 C1955 1.433 . S
C1963 N1965 1.384 . S
N1964 C1960 1.427 . S
N1964 C1961 1.384 1_554 S
N1965 C1957 1.427 . S
N1965 C1963 1.384 . S
H1966 C1972 0.930 . S
H1967 C1976 0.930 . S
H1968 C1981 0.929 . S
H1969 C1979 0.929 . S
H1970 C1974 0.929 . S
H1971 C1980 0.929 . S
C1972 H1966 0.930 . S
C1972 C1973 1.383 . S
C1972 C1980 1.378 . S
C1973 C1972 1.383 . S
C1973 C1981 1.417 1_455 S
C1974 H1970 0.929 . S
C1974 C1976 1.378 . S
C1974 C1978 1.346 1_655 S
C1975 C1978 1.462 1_545 S
C1975 C1980 1.369 . S
C1975 N1983 1.409 1_455 S
C1976 H1967 0.930 . S
C1976 C1974 1.378 . S
C1976 C1977 1.360 1_655 S
C1977 C1976 1.360 1_455 S
C1977 C1979 1.440 . S
C1978 C1974 1.346 1_455 S
C1978 C1975 1.462 1_565 S
C1978 N1982 1.432 . S
C1979 H1969 0.929 . S
C1979 C1977 1.440 . S
C1979 N1982 1.384 . S
C1980 H1971 0.929 . S
C1980 C1972 1.378 . S
C1980 C1975 1.369 . S
C1981 H1968 0.929 . S
C1981 C1973 1.417 1_655 S
C1981 N1983 1.384 . S
N1982 C1978 1.432 . S
N1982 C1979 1.384 . S
N1983 C1975 1.409 1_655 S
N1983 C1981 1.384 . S
C1415 C849 1.563 . S
C1419 C29 1.560 . S
C1433 C1281 1.564 . S
C1437 C117 1.562 . S
C1451 C233 1.561 . S
C1455 C753 1.555 . S
C1469 C293 1.558 1_556 S
C1473 C1349 1.566 . S
C1487 C401 1.568 . S
C1491 C909 1.554 1_556 S
C1505 C1201 1.562 . S
C1509 C497 1.559 . S
C1523 C988 1.554 . S
C1527 C548 1.562 . S
C1541 C673 1.558 . S
C1545 C1076 1.561 . S
C1559 C409 1.563 . S
C1563 C313 1.574 1_556 S
C1577 C1085 1.555 . S
C1581 C733 1.563 . S
C1595 C557 1.553 . S
C1599 C137 1.564 . S
C1613 C812 1.571 . S
C1617 C1193 1.558 . S
C1631 C20 1.561 . S
C1635 C460 1.576 . S
C1649 C1340 1.561 . S
C1653 C929 1.567 1_556 S
C1667 C636 1.564 . S
C1671 C225 1.552 . S
C1685 C1025 1.563 . S
C1689 C1289 1.556 . S
C1703 C49 0.787 . S
C1707 C381 0.787 1_556 S
C1721 C469 0.786 . S
C1725 C145 0.785 . S
C1739 C585 0.793 . S
C1743 C196 0.794 . S
C1757 C321 0.789 . S
C1761 C645 0.790 . S
C1775 C937 0.792 . S
C1779 C724 0.792 . S
C1793 C1017 0.792 . S
C1797 C821 0.792 . S
C1811 C1261 0.789 . S
C1815 C1113 0.787 . S
C1829 C1369 0.794 1_656 S
C1833 C1164 0.794 1_655 S
C1847 C372 2.004 1_655 S
C1851 C57 2.004 1_655 S
C1865 C489 2.011 . S
C1869 C108 2.012 . S
C1883 C577 2.004 . S
C1887 C205 2.004 . S
C1901 C284 2.011 . S
C1905 C665 2.010 . S
C1919 C761 2.012 . S
C1923 C900 2.011 . S
C1937 C997 2.010 . S
C1941 C841 2.010 . S
C1955 C1252 2.003 . S
C1959 C1105 2.002 . S
C1973 C1377 2.004 . S
C1977 C1173 2.004 . S
