# Generated by pormake.
# Topology irl, (4)-cn, num edge types: 1
# Building blocks:
#     Node 0, Type 0, BuildingBlock: QUQFOY_clean_sbu_3, # of connection points: 4
#     Node 1, Type 0, BuildingBlock: QUQFOY_clean_sbu_3, # of connection points: 4
#     Node 2, Type 0, BuildingBlock: QUQFOY_clean_sbu_3, # of connection points: 4
#     Node 3, Type 0, BuildingBlock: QUQFOY_clean_sbu_3, # of connection points: 4
#     Node 4, Type 0, BuildingBlock: QUQFOY_clean_sbu_3, # of connection points: 4
#     Node 5, Type 0, BuildingBlock: QUQFOY_clean_sbu_3, # of connection points: 4
#     Node 6, Type 0, BuildingBlock: QUQFOY_clean_sbu_3, # of connection points: 4
#     Node 7, Type 0, BuildingBlock: QUQFOY_clean_sbu_3, # of connection points: 4
#     Edge 8, Type (0, 0), BuildingBlock: FUNLAD_clean_linker_1, # of connection points: 2
#     Edge 9, Type (0, 0), BuildingBlock: FUNLAD_clean_linker_1, # of connection points: 2
#     Edge 10, Type (0, 0), BuildingBlock: FUNLAD_clean_linker_1, # of connection points: 2
#     Edge 11, Type (0, 0), BuildingBlock: FUNLAD_clean_linker_1, # of connection points: 2
#     Edge 12, Type (0, 0), BuildingBlock: FUNLAD_clean_linker_1, # of connection points: 2
#     Edge 13, Type (0, 0), BuildingBlock: FUNLAD_clean_linker_1, # of connection points: 2
#     Edge 14, Type (0, 0), BuildingBlock: FUNLAD_clean_linker_1, # of connection points: 2
#     Edge 15, Type (0, 0), BuildingBlock: FUNLAD_clean_linker_1, # of connection points: 2
#     Edge 16, Type (0, 0), BuildingBlock: FUNLAD_clean_linker_1, # of connection points: 2
#     Edge 17, Type (0, 0), BuildingBlock: FUNLAD_clean_linker_1, # of connection points: 2
#     Edge 18, Type (0, 0), BuildingBlock: FUNLAD_clean_linker_1, # of connection points: 2
#     Edge 19, Type (0, 0), BuildingBlock: FUNLAD_clean_linker_1, # of connection points: 2
#     Edge 20, Type (0, 0), BuildingBlock: FUNLAD_clean_linker_1, # of connection points: 2
#     Edge 21, Type (0, 0), BuildingBlock: FUNLAD_clean_linker_1, # of connection points: 2
#     Edge 22, Type (0, 0), BuildingBlock: FUNLAD_clean_linker_1, # of connection points: 2
#     Edge 23, Type (0, 0), BuildingBlock: FUNLAD_clean_linker_1, # of connection points: 2
# Relax obj value: 0.062
# Max RMSD: 0.123
# Mean RMSD: 0.123
data_MOF--net-irl--node1-QUQFOY_clean_sbu_3--edge1-FUNLAD_clean_linker_1
_symmetry_space_group_name_H-M    P1
_symmetry_Int_Tables_number       1
_symmetry_cell_setting            triclinic
loop_
_symmetry_equiv_pos_as_xyz
'x, y, z'
_cell_length_a     37.586122
_cell_length_b     47.466859
_cell_length_c     30.098687
_cell_angle_alpha  90.253579
_cell_angle_beta   90.436273
_cell_angle_gamma 89.123834
loop_
_atom_site_label
_atom_site_type_symbol
_atom_site_fract_x
_atom_site_fract_y
_atom_site_fract_z
_atom_type_partial_charge
C0 C 0.9806 0.18321 0.90785 0.0
O1 O 0.95336 0.18164 0.93226 0.0
Cd2 Cd 0.9587 0.16103 0.00567 0.0
O3 O 0.01083 0.17497 0.92221 0.0
Cd4 Cd 0.0395 0.15589 -0.01134 0.0
C5 C -0.00665 0.09587 0.98061 0.0
O6 O 0.00704 0.18077 0.04854 0.0
O7 O 0.04293 0.14629 0.06647 0.0
O8 O 0.08451 0.19031 0.97555 0.0
C9 C 0.0226 0.16631 0.07868 0.0
O10 O 0.96705 0.1104 -0.00506 0.0
C11 C 0.11048 0.17293 0.97518 0.0
O12 O 0.02296 0.10733 0.97239 0.0
O13 O 0.10353 0.14705 0.98031 0.0
C14 C 0.95336 0.79867 0.91895 0.0
O15 O -0.01855 0.80285 0.94156 0.0
Cd16 Cd 0.97801 0.82113 0.01697 0.0
O17 O 0.92298 0.80313 0.93583 0.0
Cd18 Cd 0.89615 0.81927 0.00529 0.0
C19 C 0.93414 0.88297 -0.00461 0.0
O20 O 0.93497 0.79767 0.06292 0.0
O21 O 0.89537 0.82879 0.08347 0.0
O22 O 0.85426 0.78169 -0.00491 0.0
C23 C 0.91926 0.81095 0.09419 0.0
O24 O 0.96282 0.87076 0.00813 0.0
C25 C 0.82682 0.7976 -0.00583 0.0
O26 O 0.90588 0.86905 -0.01117 0.0
O27 O 0.83147 0.82392 -0.00148 0.0
C28 C -0.00474 0.80437 0.58213 0.0
O29 O 0.96712 0.80876 0.55946 0.0
Cd30 Cd 0.97122 0.82602 0.4838 0.0
O31 O 0.02559 0.80766 0.56492 0.0
Cd32 Cd 0.05328 0.82027 0.49471 0.0
C33 C 0.01821 0.88625 0.50204 0.0
O34 O 0.01297 0.79967 0.43832 0.0
O35 O 0.05428 0.82776 0.41617 0.0
O36 O 0.08991 0.77899 0.50852 0.0
C37 C 0.02921 0.81128 0.40639 0.0
O38 O -0.011 0.87488 0.49085 0.0
C39 C 0.11941 0.79148 0.50688 0.0
O40 O 0.04624 0.87133 0.5086 0.0
O41 O 0.11856 0.81789 0.49969 0.0
C42 C 0.0021 0.18539 0.56625 0.0
O43 O 0.0266 0.18198 0.5379 0.0
Cd44 Cd 0.01202 0.16303 0.46521 0.0
O45 O 0.96987 0.18109 0.5556 0.0
Cd46 Cd 0.93152 0.16913 0.49285 0.0
C47 C 0.96725 0.10343 0.49613 0.0
O48 O 0.96409 0.18912 0.43012 0.0
O49 O 0.92011 0.16133 0.41546 0.0
O50 O 0.89891 0.21093 0.51527 0.0
C51 C 0.94391 0.17757 0.40143 0.0
O52 O -0.00537 0.11459 0.47929 0.0
C53 C 0.8687 0.19947 0.51607 0.0
O54 O 0.94016 0.1184 0.50678 0.0
O55 O 0.86745 0.17325 0.50726 0.0
C56 C 0.46832 0.68683 0.90371 0.0
O57 O 0.43995 0.68387 0.92567 0.0
Cd58 Cd 0.44244 0.66564 0.0005 0.0
O59 O 0.49837 0.67984 0.92021 0.0
Cd60 Cd 0.52761 0.66164 -0.01384 0.0
C61 C 0.48213 0.60062 0.98368 0.0
O62 O 0.49084 0.68872 0.03744 0.0
O63 O 0.52872 0.65882 0.06576 0.0
O64 O 0.57267 0.69566 0.97051 0.0
C65 C 0.50531 0.67794 0.07166 0.0
O66 O 0.4548 0.61506 -0.00494 0.0
C67 C 0.59877 0.67845 0.97264 0.0
O68 O 0.51154 0.61238 0.97537 0.0
O69 O 0.59189 0.65282 0.98023 0.0
C70 C 0.45846 0.30892 0.92616 0.0
O71 O 0.48695 0.31332 0.9479 0.0
Cd72 Cd 0.48693 0.3268 0.02511 0.0
O73 O 0.42827 0.31073 0.94466 0.0
Cd74 Cd 0.40087 0.32065 0.01636 0.0
C75 C 0.43446 0.38655 0.01396 0.0
O76 O 0.44568 0.29711 0.06197 0.0
O77 O 0.40506 0.32122 0.09651 0.0
O78 O 0.36204 0.28246 -0.00307 0.0
C79 C 0.43245 0.30535 0.09848 0.0
O80 O 0.46471 0.37533 0.02276 0.0
C81 C 0.33333 0.2961 0.00405 0.0
O82 O 0.40702 0.37158 0.00782 0.0
O83 O 0.33587 0.32148 0.01711 0.0
C84 C 0.49901 0.32162 0.59134 0.0
O85 O 0.47076 0.32578 0.56872 0.0
Cd86 Cd 0.47268 0.33769 0.49112 0.0
O87 O 0.52943 0.32257 0.57345 0.0
Cd88 Cd 0.55868 0.32916 0.50222 0.0
C89 C 0.52615 0.39627 0.49857 0.0
O90 O 0.51411 0.30567 0.45721 0.0
O91 O 0.5557 0.32708 0.42198 0.0
O92 O 0.59318 0.28883 0.52687 0.0
C93 C 0.52807 0.3121 0.4205 0.0
O94 O 0.496 0.38534 0.49057 0.0
C95 C 0.6233 0.29903 0.51842 0.0
O96 O 0.55364 0.38095 0.50643 0.0
O97 O 0.62386 0.3239 0.5028 0.0
C98 C 0.50826 0.69493 0.56875 0.0
O99 O 0.53398 0.69125 0.5422 0.0
Cd100 Cd 0.52258 0.67436 0.46784 0.0
O101 O 0.47639 0.69077 0.55621 0.0
Cd102 Cd 0.43824 0.67855 0.49403 0.0
C103 C 0.47693 0.61349 0.49224 0.0
O104 O 0.47385 0.70192 0.43886 0.0
O105 O 0.43047 0.67651 0.41467 0.0
O106 O 0.40201 0.71731 0.52175 0.0
C107 C 0.45596 0.69276 0.40619 0.0
O108 O 0.50456 0.62551 0.4776 0.0
C109 C 0.37258 0.70488 0.51742 0.0
O110 O 0.44926 0.62771 0.5031 0.0
O111 O 0.3735 0.67952 0.50361 0.0
H112 H 0.90855 0.92378 0.97815 0.0
C113 C 0.93335 0.91372 -0.01124 0.0
H114 H -0.01321 0.91989 0.00859 0.0
H115 H 0.95744 0.03959 0.90311 0.0
H116 H 0.95867 0.01106 0.83598 0.0
H117 H 0.9614 0.95916 0.84016 0.0
H118 H 0.96254 0.93548 0.91146 0.0
C119 C 0.96213 0.92948 -0.00345 0.0
C120 C 0.96046 0.96065 -0.0065 0.0
C121 C 0.96039 0.97409 0.95153 0.0
C122 C 0.95976 0.00401 0.94913 0.0
C123 C 0.95878 0.01694 0.90684 0.0
C124 C 0.95932 0.00081 0.86805 0.0
C125 C 0.96078 0.97159 0.8704 0.0
C126 C 0.96133 0.95826 0.91155 0.0
H127 H 0.01354 0.05307 0.96482 0.0
C128 C -0.0097 0.0651 0.97568 0.0
H129 H 0.93762 0.06316 -0.00054 0.0
H130 H 0.95986 0.94132 0.07909 0.0
H131 H 0.9595 0.96981 0.14621 0.0
H132 H 0.95943 0.02172 0.14212 0.0
H133 H 0.95963 0.04543 0.07094 0.0
C134 C 0.96058 0.05154 -0.01313 0.0
C135 C 0.9599 0.02031 -0.01128 0.0
C136 C 0.95967 0.00683 0.03066 0.0
C137 C 0.96003 0.97695 0.03304 0.0
C138 C 0.95986 0.96399 0.07536 0.0
C139 C 0.95961 0.98008 0.11416 0.0
C140 C 0.95953 0.0093 0.11186 0.0
C141 C 0.95959 0.02264 0.07073 0.0
H142 H 0.04507 0.92681 0.51457 0.0
C143 C 0.01979 0.91725 0.50617 0.0
H144 H 0.96591 0.92447 0.48824 0.0
H145 H -0.00069 0.04878 0.5767 0.0
H146 H 0.00147 0.0242 0.64721 0.0
H147 H -0.00093 0.97232 0.64992 0.0
H148 H -0.00508 0.94467 0.5821 0.0
C149 C -0.00897 0.93375 0.49812 0.0
C150 C -0.00695 0.96498 0.49711 0.0
C151 C -0.00515 0.9808 0.53712 0.0
C152 C -0.00468 0.01077 0.5356 0.0
C153 C -0.00191 0.02603 0.57596 0.0
C154 C -0.00053 0.01218 0.61667 0.0
C155 C -0.00182 0.98296 0.61819 0.0
C156 C -0.00411 0.96734 0.579 0.0
H157 H 0.94279 0.0632 0.5157 0.0
C158 C 0.96673 0.07259 0.50268 0.0
H159 H 0.0184 0.06509 0.4775 0.0
H160 H -0.01026 0.94091 0.41434 0.0
H161 H -0.01337 0.96549 0.34391 0.0
H162 H -0.01358 0.01744 0.34134 0.0
H163 H -0.01065 0.04511 0.40916 0.0
C164 C -0.00526 0.05603 0.49182 0.0
C165 C -0.00666 0.02478 0.49412 0.0
C166 C -0.00844 0.00894 0.45416 0.0
C167 C -0.00866 0.97902 0.45566 0.0
C168 C -0.01035 0.96371 0.41518 0.0
C169 C -0.01207 0.97754 0.37449 0.0
C170 C -0.01215 0.00678 0.37304 0.0
C171 C -0.01037 0.02241 0.41226 0.0
H172 H 0.50401 0.55783 0.97187 0.0
C173 C 0.48046 0.56963 0.98225 0.0
H174 H 0.42856 0.56718 0.00846 0.0
H175 H 0.45668 0.43759 0.92958 0.0
H176 H 0.45194 0.45898 0.85669 0.0
H177 H 0.44646 0.51059 0.84873 0.0
H178 H 0.44609 0.54112 0.91364 0.0
C179 C 0.45172 0.55574 -0.00396 0.0
C180 C 0.45247 0.5246 0.00044 0.0
C181 C 0.45173 0.50709 0.96218 0.0
C182 C 0.45391 0.47732 0.96683 0.0
C183 C 0.45431 0.4603 0.92804 0.0
C184 C 0.45171 0.47231 0.88597 0.0
C185 C 0.4487 0.50137 0.88148 0.0
C186 C 0.44868 0.51866 0.91901 0.0
H187 H 0.4054 0.42655 0.00087 0.0
C188 C 0.43122 0.4174 0.00951 0.0
H189 H 0.48519 0.42556 0.02459 0.0
H190 H 0.45391 0.55225 0.08058 0.0
H191 H 0.45752 0.53079 0.15349 0.0
H192 H 0.46028 0.47908 0.16154 0.0
H193 H 0.45954 0.44854 0.09666 0.0
C194 C 0.45936 0.43421 0.0149 0.0
C195 C 0.45605 0.4652 0.00977 0.0
C196 C 0.45625 0.48269 0.04801 0.0
C197 C 0.45437 0.51245 0.04336 0.0
C198 C 0.45499 0.52948 0.08215 0.0
C199 C 0.4571 0.51744 0.12423 0.0
C200 C 0.45869 0.48834 0.12876 0.0
C201 C 0.45828 0.47106 0.09124 0.0
H202 H 0.55481 0.43647 0.50662 0.0
C203 C 0.52915 0.42728 0.49902 0.0
H204 H 0.47539 0.43526 0.48121 0.0
H205 H 0.51124 0.55896 0.56909 0.0
H206 H 0.51342 0.53426 0.63946 0.0
H207 H 0.51032 0.4824 0.64199 0.0
H208 H 0.50551 0.45493 0.57414 0.0
C209 C 0.50092 0.44418 0.4902 0.0
C210 C 0.50362 0.47537 0.48914 0.0
C211 C 0.50576 0.4911 0.52922 0.0
C212 C 0.5065 0.52105 0.52784 0.0
C213 C 0.50969 0.53623 0.56825 0.0
C214 C 0.5111 0.5223 0.60889 0.0
C215 C 0.50944 0.49311 0.6103 0.0
C216 C 0.50678 0.47758 0.57106 0.0
H217 H 0.45323 0.57257 0.5094 0.0
C218 C 0.47689 0.5825 0.49655 0.0
H219 H 0.5284 0.57598 0.47022 0.0
H220 H 0.49987 0.45146 0.40634 0.0
H221 H 0.49657 0.47619 0.33601 0.0
H222 H 0.49667 0.52815 0.33367 0.0
H223 H 0.50014 0.55568 0.40162 0.0
C224 C 0.50503 0.56644 0.4845 0.0
C225 C 0.50428 0.53516 0.48644 0.0
C226 C 0.50231 0.51941 0.4464 0.0
C227 C 0.50192 0.48948 0.44777 0.0
C228 C 0.49993 0.47425 0.40725 0.0
C229 C 0.4981 0.48818 0.36663 0.0
C230 C 0.4982 0.51743 0.36531 0.0
C231 C 0.50026 0.53297 0.40459 0.0
H232 H 0.03513 0.16024 0.14907 0.0
C233 C 0.01746 0.17151 0.12628 0.0
H234 H 0.97273 0.19886 0.1207 0.0
H235 H -0.01788 0.13661 0.32156 0.0
H236 H 0.9731 0.09292 0.28141 0.0
H237 H 0.96616 0.09272 0.19981 0.0
H238 H 0.96979 0.1361 0.15797 0.0
C239 C -0.0094 0.1872 0.14269 0.0
C240 C -0.015 0.1885 0.1916 0.0
C241 C 0.97945 0.16331 0.21569 0.0
C242 C 0.98017 0.16378 0.26282 0.0
C243 C 0.97905 0.13781 0.28587 0.0
C244 C 0.97428 0.11249 0.26319 0.0
C245 C 0.9706 0.11236 0.21728 0.0
C246 C 0.97312 0.13739 0.19364 0.0
H247 H 0.92688 0.17356 0.33203 0.0
C248 C 0.94808 0.18131 0.35342 0.0
H249 H -0.00051 0.19874 0.35562 0.0
H250 H -0.00531 0.24063 0.15555 0.0
H251 H -0.00089 0.28487 0.19582 0.0
H252 H -0.00483 0.28623 0.27759 0.0
H253 H -0.0127 0.2433 0.31969 0.0
C254 C 0.97796 0.19079 0.33502 0.0
C255 C -0.01775 0.18989 0.28588 0.0
C256 C -0.01366 0.21521 0.2618 0.0
C257 C -0.01199 0.21449 0.21458 0.0
C258 C -0.00707 0.24001 0.19139 0.0
C259 C -0.00452 0.26555 0.21409 0.0
C260 C -0.00673 0.26631 0.26014 0.0
C261 C -0.01126 0.24152 0.2839 0.0
H262 H 0.03752 0.81557 0.33483 0.0
C263 C 0.01964 0.80699 0.35942 0.0
H264 H 0.97081 0.78656 0.36954 0.0
H265 H 0.97231 0.84726 0.16766 0.0
H266 H 0.97508 0.89152 0.20785 0.0
H267 H 0.977 0.89237 0.28981 0.0
H268 H 0.97753 0.84892 0.33178 0.0
C269 C -0.01098 0.79552 0.34577 0.0
C270 C 0.97957 0.79517 0.29752 0.0
C271 C 0.97628 0.82088 0.27374 0.0
C272 C 0.97214 0.82047 0.2268 0.0
C273 C 0.97292 0.84637 0.20354 0.0
C274 C 0.97488 0.87195 0.22619 0.0
C275 C 0.97618 0.87242 0.27228 0.0
C276 C 0.97685 0.84728 0.29594 0.0
H277 H 0.91087 0.81731 0.16547 0.0
C278 C 0.92836 0.80716 0.1414 0.0
H279 H 0.97608 0.78374 0.13252 0.0
H280 H -0.01623 0.74224 0.33296 0.0
H281 H 0.9769 0.69805 0.29317 0.0
H282 H 0.9651 0.69748 0.21243 0.0
H283 H 0.96054 0.74109 0.17083 0.0
C284 C 0.95828 0.79426 0.15577 0.0
C285 C 0.96755 0.79447 0.20407 0.0
C286 C 0.96975 0.76882 0.22796 0.0
C287 C 0.976 0.76916 0.2747 0.0
C288 C 0.97873 0.74321 0.29756 0.0
C289 C 0.97484 0.71769 0.27513 0.0
C290 C 0.96821 0.71737 0.22966 0.0
C291 C 0.96564 0.74256 0.20618 0.0
H292 H 0.01896 0.79106 0.64573 0.0
C293 C -0.00601 0.79705 0.62958 0.0
H294 H 0.94011 0.80843 0.6397 0.0
H295 H -0.01308 0.74354 0.8282 0.0
H296 H -0.01682 0.7004 0.78475 0.0
H297 H 0.972 0.70205 0.7039 0.0
H298 H 0.96458 0.74686 0.66593 0.0
C299 C 0.96483 0.80066 0.65444 0.0
C300 C 0.96793 0.79925 0.70368 0.0
C301 C 0.97171 0.77292 0.72539 0.0
C302 C 0.97753 0.77195 0.77212 0.0
C303 C -0.01816 0.74541 0.79289 0.0
C304 C 0.97988 0.72053 0.76833 0.0
C305 C 0.97365 0.72146 0.72278 0.0
C306 C 0.96958 0.74729 0.70137 0.0
H307 H 0.93017 0.78495 0.85536 0.0
C308 C 0.95482 0.79132 0.87141 0.0
H309 H 0.00719 0.80515 0.8611 0.0
H310 H 0.96123 0.85319 0.67236 0.0
H311 H 0.96412 0.89622 0.7159 0.0
H312 H 0.97377 0.89456 0.79702 0.0
H313 H 0.98078 0.84988 0.83504 0.0
C314 C -0.01683 0.79668 0.84621 0.0
C315 C 0.97922 0.79731 0.79702 0.0
C316 C 0.97524 0.82365 0.77532 0.0
C317 C 0.96942 0.82461 0.72864 0.0
C318 C 0.96557 0.85121 0.7078 0.0
C319 C 0.96717 0.8761 0.73239 0.0
C320 C 0.97262 0.87516 0.77804 0.0
C321 C 0.97661 0.84933 0.79944 0.0
H322 H 0.95032 0.19425 0.84689 0.0
C323 C 0.97688 0.19208 0.86112 0.0
H324 H 0.03218 0.19173 0.84891 0.0
H325 H 0.01147 0.1435 0.65514 0.0
H326 H 0.03535 0.10279 0.69367 0.0
H327 H 0.04488 0.1038 0.77481 0.0
H328 H 0.03012 0.1455 0.81783 0.0
C329 C 0.00558 0.19454 0.83505 0.0
C330 C 0.00218 0.19526 0.78593 0.0
C331 C 0.0122 0.171 0.76105 0.0
C332 C 0.00743 0.17064 0.71418 0.0
C333 C 0.01562 0.14547 0.69056 0.0
C334 C 0.02915 0.12176 0.71234 0.0
C335 C 0.03446 0.12231 0.758 0.0
C336 C 0.02596 0.14649 0.78227 0.0
H337 H 0.03893 0.19276 0.62279 0.0
C338 C 0.01108 0.19192 0.61292 0.0
H339 H 0.95758 0.19356 0.63432 0.0
H340 H -0.01681 0.24579 0.82359 0.0
H341 H 0.95966 0.28695 0.78501 0.0
H342 H 0.95153 0.28645 0.70358 0.0
H343 H 0.96702 0.24484 0.66019 0.0
C344 C -0.01449 0.1938 0.6439 0.0
C345 C -0.00639 0.19489 0.69221 0.0
C346 C -0.01569 0.21932 0.71704 0.0
C347 C -0.01128 0.21955 0.76399 0.0
C348 C 0.97978 0.24436 0.78794 0.0
C349 C 0.96641 0.26816 0.76618 0.0
C350 C 0.96184 0.26788 0.72033 0.0
C351 C 0.97072 0.24384 0.69584 0.0
H352 H 0.46865 0.69776 0.11967 0.0
C353 C 0.49327 0.68563 0.11627 0.0
H354 H 0.53556 0.66439 0.14911 0.0
H355 H 0.4521 0.74108 0.30525 0.0
H356 H 0.47186 0.78227 0.26539 0.0
H357 H 0.50426 0.77719 0.19473 0.0
H358 H 0.51641 0.73096 0.16313 0.0
C359 C 0.51124 0.6769 0.15239 0.0
C360 C 0.49581 0.68025 0.19714 0.0
C361 C 0.49038 0.70741 0.21587 0.0
C362 C 0.47329 0.71028 0.25755 0.0
C363 C 0.46627 0.73767 0.2745 0.0
C364 C 0.47727 0.76149 0.25183 0.0
C365 C 0.49538 0.75864 0.21197 0.0
C366 C 0.50197 0.73197 0.19405 0.0
H367 H 0.49402 0.70555 0.35511 0.0
C368 C 0.46774 0.69699 0.36051 0.0
H369 H 0.42198 0.67918 0.33143 0.0
H370 H 0.5021 0.62506 0.16992 0.0
H371 H 0.4851 0.58389 0.21149 0.0
H372 H 0.45868 0.58873 0.28596 0.0
H373 H 0.4486 0.63477 0.31888 0.0
C374 C 0.44795 0.6883 0.32603 0.0
C375 C 0.46343 0.68589 0.28118 0.0
C376 C 0.46952 0.6587 0.26284 0.0
C377 C 0.48553 0.65588 0.22054 0.0
C378 C 0.49061 0.62849 0.20237 0.0
C379 C 0.48091 0.60462 0.22584 0.0
C380 C 0.46598 0.60735 0.2677 0.0
C381 C 0.46028 0.63398 0.28616 0.0
H382 H 0.48378 0.29663 0.37918 0.0
C383 C 0.51014 0.30573 0.37824 0.0
H384 H 0.55045 0.32242 0.33808 0.0
H385 H 0.44077 0.25628 0.19713 0.0
H386 H 0.46081 0.21297 0.2325 0.0
H387 H 0.5016 0.2141 0.29709 0.0
H388 H 0.5221 0.25858 0.3271 0.0
C389 C 0.52454 0.31259 0.3392 0.0
C390 C 0.50331 0.31133 0.29759 0.0
C391 C 0.49273 0.28509 0.27959 0.0
C392 C 0.47044 0.28439 0.24129 0.0
C393 C 0.45873 0.25799 0.22522 0.0
C394 C 0.46988 0.23297 0.24536 0.0
C395 C 0.49274 0.23361 0.28181 0.0
C396 C 0.50414 0.2593 0.29887 0.0
H397 H 0.47748 0.29032 0.13982 0.0
C398 C 0.45127 0.30031 0.14068 0.0
H399 H 0.41219 0.3204 0.1802 0.0
H400 H 0.51895 0.36524 0.32393 0.0
H401 H 0.50091 0.40839 0.28682 0.0
H402 H 0.46452 0.40708 0.21831 0.0
H403 H 0.44562 0.36264 0.18687 0.0
C404 C 0.43791 0.30962 0.17932 0.0
C405 C 0.46005 0.3099 0.22023 0.0
C406 C 0.47122 0.33612 0.23775 0.0
C407 C 0.49277 0.33684 0.27663 0.0
C408 C 0.503 0.36336 0.29403 0.0
C409 C 0.49278 0.38834 0.2731 0.0
C410 C 0.47225 0.38761 0.23459 0.0
C411 C 0.46152 0.3619 0.21696 0.0
H412 H 0.43455 0.29761 0.86189 0.0
C413 C 0.45918 0.30393 0.87807 0.0
H414 H 0.51115 0.31895 0.8683 0.0
H415 H 0.46796 0.26451 0.6711 0.0
H416 H 0.47809 0.21907 0.70625 0.0
H417 H 0.49086 0.2159 0.78665 0.0
H418 H 0.49348 0.25813 0.83239 0.0
C419 C 0.48712 0.31066 0.85317 0.0
C420 C 0.48271 0.3124 0.80435 0.0
C421 C 0.48174 0.28754 0.77821 0.0
C422 C 0.47506 0.2894 0.73183 0.0
C423 C 0.47364 0.26427 0.7064 0.0
C424 C 0.47924 0.23808 0.72618 0.0
C425 C 0.48635 0.23629 0.77147 0.0
C426 C 0.48765 0.26066 0.79736 0.0
H427 H 0.52259 0.31111 0.65615 0.0
C428 C 0.49762 0.31609 0.63918 0.0
H429 H 0.44265 0.32478 0.64734 0.0
H430 H 0.48217 0.36407 0.84552 0.0
H431 H 0.472 0.40939 0.81032 0.0
H432 H 0.46079 0.41259 0.72959 0.0
H433 H 0.45946 0.37044 0.68366 0.0
C434 C 0.46772 0.31851 0.66285 0.0
C435 C 0.4699 0.31613 0.71182 0.0
C436 C 0.4703 0.34095 0.73807 0.0
C437 C 0.47694 0.3391 0.78444 0.0
C438 C 0.47736 0.36424 0.81003 0.0
C439 C 0.47157 0.39041 0.79025 0.0
C440 C 0.46526 0.39221 0.74482 0.0
C441 C 0.46462 0.36785 0.71884 0.0
H442 H 0.44119 0.69702 0.84026 0.0
C443 C 0.46671 0.69662 0.85751 0.0
H444 H 0.52242 0.70151 0.85229 0.0
H445 H 0.51026 0.65309 0.65571 0.0
H446 H 0.53057 0.61146 0.69483 0.0
H447 H 0.53658 0.6116 0.77649 0.0
H448 H 0.52167 0.65338 0.81939 0.0
C449 C 0.4967 0.70235 0.83555 0.0
C450 C 0.49673 0.70385 0.78662 0.0
C451 C 0.50722 0.67965 0.76203 0.0
C452 C 0.50486 0.67989 0.715 0.0
C453 C 0.51294 0.65469 0.69138 0.0
C454 C 0.52438 0.63044 0.71348 0.0
C455 C 0.52768 0.63049 0.75943 0.0
C456 C 0.51907 0.65468 0.78362 0.0
H457 H 0.54248 0.70144 0.62792 0.0
C458 C 0.51518 0.7016 0.61571 0.0
H459 H 0.46065 0.70537 0.63226 0.0
H460 H 0.47689 0.75404 0.82464 0.0
H461 H 0.45753 0.79639 0.78565 0.0
H462 H 0.4547 0.79733 0.70371 0.0
H463 H 0.47119 0.75595 0.66026 0.0
C464 C 0.48802 0.70451 0.64419 0.0
C465 C 0.49342 0.70481 0.69286 0.0
C466 C 0.48387 0.72923 0.71752 0.0
C467 C 0.48549 0.72873 0.76462 0.0
C468 C 0.47585 0.75332 0.78871 0.0
C469 C 0.4648 0.77775 0.76676 0.0
C470 C 0.4632 0.77827 0.72062 0.0
C471 C 0.47264 0.75437 0.69609 0.0
H472 H 0.27482 0.29486 0.00798 0.0
C473 C 0.29849 0.28293 -0.0016 0.0
H474 H 0.31871 0.24464 0.97165 0.0
H475 H 0.16255 0.20822 0.0526 0.0
H476 H 0.19144 0.21307 0.12445 0.0
H477 H 0.25259 0.23096 0.1305 0.0
H478 H 0.28498 0.24443 0.06472 0.0
C479 C 0.29547 0.25657 0.98268 0.0
C480 C 0.26022 0.24324 0.97879 0.0
C481 C 0.24218 0.23468 0.01753 0.0
C482 C 0.20741 0.2236 0.01393 0.0
C483 C 0.18935 0.2162 0.05326 0.0
C484 C 0.20559 0.21894 0.09478 0.0
C485 C 0.23997 0.22907 0.09819 0.0
C486 C 0.25819 0.23686 0.06015 0.0
H487 H 0.16893 0.16727 0.97573 0.0
C488 C 0.14732 0.18258 0.97196 0.0
H489 H 0.13322 0.2256 0.96375 0.0
H490 H 0.28857 0.25629 0.89806 0.0
H491 H 0.26035 0.25008 0.82589 0.0
H492 H 0.20026 0.23013 0.81957 0.0
H493 H 0.168 0.21628 0.88544 0.0
C494 C 0.15448 0.21005 0.96792 0.0
C495 C 0.19131 0.22041 0.9715 0.0
C496 C 0.20975 0.22819 0.93272 0.0
C497 C 0.24438 0.23957 0.93636 0.0
C498 C 0.26222 0.24743 0.89715 0.0
C499 C 0.24632 0.24399 0.85553 0.0
C500 C 0.21248 0.23277 0.85198 0.0
C501 C 0.19426 0.22493 0.89002 0.0
H502 H 0.65722 0.67277 0.97276 0.0
C503 C 0.63562 0.68812 0.96928 0.0
H504 H 0.62142 0.73124 0.96394 0.0
H505 H 0.76192 0.7677 0.06461 0.0
H506 H 0.71917 0.77212 0.12415 0.0
H507 H 0.65765 0.75573 0.11411 0.0
H508 H 0.6387 0.73456 0.04457 0.0
C509 C 0.64282 0.71561 0.96555 0.0
C510 C 0.67959 0.72594 0.97059 0.0
C511 C 0.68989 0.73896 0.01104 0.0
C512 C 0.72505 0.74898 0.01645 0.0
C513 C 0.73518 0.76063 0.05802 0.0
C514 C 0.71097 0.76308 0.09268 0.0
C515 C 0.67636 0.75381 0.08706 0.0
C516 C 0.66583 0.74176 0.04689 0.0
H517 H 0.76832 0.80061 -0.01127 0.0
C518 C 0.79096 0.78608 -0.01106 0.0
H519 H 0.80817 0.74354 0.98438 0.0
H520 H 0.66783 0.7025 0.88862 0.0
H521 H 0.71056 0.69803 0.82884 0.0
H522 H 0.77154 0.71581 0.83787 0.0
H523 H 0.79016 0.73819 0.90668 0.0
C524 C 0.78573 0.75824 -0.01455 0.0
C525 C 0.74942 0.74672 0.98081 0.0
C526 C 0.73922 0.73339 0.94055 0.0
C527 C 0.70416 0.72304 0.93537 0.0
C528 C 0.6943 0.71039 0.89449 0.0
C529 C 0.71853 0.70778 0.85986 0.0
C530 C 0.75286 0.71781 0.86494 0.0
C531 C 0.76321 0.73056 0.90466 0.0
H532 H 0.15088 0.75296 0.51977 0.0
C533 C 0.15278 0.77531 0.51244 0.0
H534 H 0.18749 0.80858 0.49784 0.0
H535 H 0.29114 0.71047 0.59386 0.0
H536 H 0.26189 0.72469 0.6622 0.0
H537 H 0.21245 0.7595 0.66119 0.0
H538 H 0.19178 0.78012 0.59179 0.0
C539 C 0.1849 0.78661 0.5071 0.0
C540 C 0.21727 0.76829 0.50869 0.0
C541 C 0.22956 0.757 0.54967 0.0
C542 C 0.25868 0.73755 0.55041 0.0
C543 C 0.26971 0.72588 0.59157 0.0
C544 C 0.25305 0.73376 0.631 0.0
C545 C 0.22515 0.7533 0.63042 0.0
C546 C 0.21343 0.76487 0.59034 0.0
H547 H 0.3406 0.74146 0.5394 0.0
C548 C 0.33906 0.72041 0.52519 0.0
H549 H 0.30589 0.69065 0.49396 0.0
H550 H 0.20076 0.78663 0.42479 0.0
H551 H 0.2309 0.77329 0.3567 0.0
H552 H 0.28209 0.74014 0.35806 0.0
H553 H 0.30333 0.72001 0.42744 0.0
C554 C 0.3076 0.7109 0.51078 0.0
C555 C 0.27589 0.72995 0.51027 0.0
C556 C 0.26388 0.74152 0.46938 0.0
C557 C 0.23459 0.7608 0.46862 0.0
C558 C 0.22301 0.77197 0.42731 0.0
C559 C 0.24007 0.76451 0.38796 0.0
C560 C 0.26887 0.74583 0.38872 0.0
C561 C 0.28078 0.73442 0.42882 0.0
H562 H 0.65266 0.26107 0.53995 0.0
C563 C 0.65565 0.28176 0.52516 0.0
H564 H 0.69103 0.30958 0.49426 0.0
H565 H 0.79521 0.21568 0.60039 0.0
H566 H 0.77485 0.23861 0.66803 0.0
H567 H 0.729 0.27635 0.66529 0.0
H568 H 0.703 0.29117 0.59496 0.0
C569 C 0.68775 0.28962 0.51118 0.0
C570 C 0.71818 0.2693 0.51279 0.0
C571 C 0.73374 0.26146 0.55408 0.0
C572 C 0.76095 0.24035 0.55553 0.0
C573 C 0.77518 0.23218 0.5973 0.0
C574 C 0.7636 0.24506 0.63639 0.0
C575 C 0.73771 0.26625 0.63486 0.0
C576 C 0.72287 0.27445 0.59429 0.0
H577 H 0.8404 0.23882 0.53313 0.0
C578 C 0.83669 0.21684 0.52409 0.0
H579 H 0.79964 0.18609 0.5046 0.0
H580 H 0.694 0.27962 0.42821 0.0
H581 H 0.71532 0.25747 0.36052 0.0
H582 H 0.76352 0.22163 0.36284 0.0
H583 H 0.79052 0.2076 0.43288 0.0
C584 C 0.80376 0.20752 0.51619 0.0
C585 C 0.7732 0.22774 0.51557 0.0
C586 C 0.75776 0.23569 0.47429 0.0
C587 C 0.73026 0.25655 0.47289 0.0
C588 C 0.71516 0.26402 0.43122 0.0
C589 C 0.72713 0.25146 0.39206 0.0
C590 C 0.75425 0.23128 0.39337 0.0
C591 C 0.7695 0.22341 0.43386 0.0
loop_
_geom_bond_atom_site_label_1
_geom_bond_atom_site_label_2
_geom_bond_distance
_geom_bond_site_symmetry_2
_ccdc_geom_bond_type
C0 O1 1.306 1_455 S
C0 O3 1.160 . S
O1 C0 1.306 1_655 S
O1 Cd2 2.228 1_556 S
Cd2 O1 2.228 1_554 S
Cd2 O6 2.273 1_655 S
Cd2 O10 2.277 1_655 S
O3 C0 1.160 . S
O3 Cd4 2.203 1_556 S
Cd4 O3 2.203 1_554 S
Cd4 O6 2.411 . S
Cd4 O7 2.333 . S
Cd4 O8 2.352 . S
Cd4 O12 2.277 . S
Cd4 O13 2.356 . S
C5 O10 1.209 . S
C5 O12 1.226 . S
O6 Cd2 2.273 1_455 S
O6 Cd4 2.411 . S
O6 C9 1.320 . S
O7 Cd4 2.333 . S
O7 C9 1.214 . S
O8 Cd4 2.352 . S
O8 C11 1.258 . S
C9 O6 1.320 . S
C9 O7 1.214 . S
O10 Cd2 2.277 1_455 S
O10 C5 1.209 . S
C11 O8 1.258 . S
C11 O13 1.282 . S
O12 Cd4 2.277 . S
O12 C5 1.226 . S
O13 Cd4 2.356 . S
O13 C11 1.282 . S
C14 O15 1.306 1_655 S
C14 O17 1.160 . S
O15 C14 1.306 1_455 S
O15 Cd16 2.228 1_556 S
Cd16 O15 2.228 1_554 S
Cd16 O20 2.273 1_455 S
Cd16 O24 2.277 1_455 S
O17 C14 1.160 . S
O17 Cd18 2.203 1_556 S
Cd18 O17 2.203 1_554 S
Cd18 O20 2.411 . S
Cd18 O21 2.333 . S
Cd18 O22 2.352 . S
Cd18 O26 2.277 . S
Cd18 O27 2.356 . S
C19 O24 1.209 . S
C19 O26 1.226 . S
O20 Cd16 2.273 1_655 S
O20 Cd18 2.411 . S
O20 C23 1.320 . S
O21 Cd18 2.333 . S
O21 C23 1.214 . S
O22 Cd18 2.352 . S
O22 C25 1.258 . S
C23 O20 1.320 . S
C23 O21 1.214 . S
O24 Cd16 2.277 1_655 S
O24 C19 1.209 . S
C25 O22 1.258 . S
C25 O27 1.282 . S
O26 Cd18 2.277 . S
O26 C19 1.226 . S
O27 Cd18 2.356 . S
O27 C25 1.282 . S
C28 O29 1.306 1_455 S
C28 O31 1.160 . S
O29 C28 1.306 1_655 S
O29 Cd30 2.228 . S
Cd30 O29 2.228 . S
Cd30 O34 2.273 1_655 S
Cd30 O38 2.277 1_655 S
O31 C28 1.160 . S
O31 Cd32 2.203 . S
Cd32 O31 2.203 . S
Cd32 O34 2.411 . S
Cd32 O35 2.333 . S
Cd32 O36 2.352 . S
Cd32 O40 2.277 . S
Cd32 O41 2.356 . S
C33 O38 1.209 . S
C33 O40 1.226 . S
O34 Cd30 2.273 1_455 S
O34 Cd32 2.411 . S
O34 C37 1.320 . S
O35 Cd32 2.333 . S
O35 C37 1.214 . S
O36 Cd32 2.352 . S
O36 C39 1.258 . S
C37 O34 1.320 . S
C37 O35 1.214 . S
O38 Cd30 2.277 1_455 S
O38 C33 1.209 . S
C39 O36 1.258 . S
C39 O41 1.282 . S
O40 Cd32 2.277 . S
O40 C33 1.226 . S
O41 Cd32 2.356 . S
O41 C39 1.282 . S
C42 O43 1.306 1_655 S
C42 O45 1.160 . S
O43 C42 1.306 1_455 S
O43 Cd44 2.228 . S
Cd44 O43 2.228 . S
Cd44 O48 2.273 1_455 S
Cd44 O52 2.277 1_455 S
O45 C42 1.160 . S
O45 Cd46 2.203 . S
Cd46 O45 2.203 . S
Cd46 O48 2.411 . S
Cd46 O49 2.333 . S
Cd46 O50 2.352 . S
Cd46 O54 2.277 . S
Cd46 O55 2.356 . S
C47 O52 1.209 . S
C47 O54 1.226 . S
O48 Cd44 2.273 1_655 S
O48 Cd46 2.411 . S
O48 C51 1.320 . S
O49 Cd46 2.333 . S
O49 C51 1.214 . S
O50 Cd46 2.352 . S
O50 C53 1.258 . S
C51 O48 1.320 . S
C51 O49 1.214 . S
O52 Cd44 2.277 1_655 S
O52 C47 1.209 . S
C53 O50 1.258 . S
C53 O55 1.282 . S
O54 Cd46 2.277 . S
O54 C47 1.226 . S
O55 Cd46 2.356 . S
O55 C53 1.282 . S
C56 O57 1.306 . S
C56 O59 1.160 . S
O57 C56 1.306 . S
O57 Cd58 2.228 1_556 S
Cd58 O57 2.228 1_554 S
Cd58 O62 2.273 . S
Cd58 O66 2.277 . S
O59 C56 1.160 . S
O59 Cd60 2.203 1_556 S
Cd60 O59 2.203 1_554 S
Cd60 O62 2.411 . S
Cd60 O63 2.333 . S
Cd60 O64 2.352 . S
Cd60 O68 2.277 . S
Cd60 O69 2.356 . S
C61 O66 1.209 . S
C61 O68 1.226 . S
O62 Cd58 2.273 . S
O62 Cd60 2.411 . S
O62 C65 1.320 . S
O63 Cd60 2.333 . S
O63 C65 1.214 . S
O64 Cd60 2.352 . S
O64 C67 1.258 . S
C65 O62 1.320 . S
C65 O63 1.214 . S
O66 Cd58 2.277 . S
O66 C61 1.209 . S
C67 O64 1.258 . S
C67 O69 1.282 . S
O68 Cd60 2.277 . S
O68 C61 1.226 . S
O69 Cd60 2.356 . S
O69 C67 1.282 . S
C70 O71 1.306 . S
C70 O73 1.160 . S
O71 C70 1.306 . S
O71 Cd72 2.228 1_556 S
Cd72 O71 2.228 1_554 S
Cd72 O76 2.273 . S
Cd72 O80 2.277 . S
O73 C70 1.160 . S
O73 Cd74 2.203 1_556 S
Cd74 O73 2.203 1_554 S
Cd74 O76 2.411 . S
Cd74 O77 2.333 . S
Cd74 O78 2.352 . S
Cd74 O82 2.277 . S
Cd74 O83 2.356 . S
C75 O80 1.209 . S
C75 O82 1.226 . S
O76 Cd72 2.273 . S
O76 Cd74 2.411 . S
O76 C79 1.320 . S
O77 Cd74 2.333 . S
O77 C79 1.214 . S
O78 Cd74 2.352 . S
O78 C81 1.258 . S
C79 O76 1.320 . S
C79 O77 1.214 . S
O80 Cd72 2.277 . S
O80 C75 1.209 . S
C81 O78 1.258 . S
C81 O83 1.282 . S
O82 Cd74 2.277 . S
O82 C75 1.226 . S
O83 Cd74 2.356 . S
O83 C81 1.282 . S
C84 O85 1.306 . S
C84 O87 1.160 . S
O85 C84 1.306 . S
O85 Cd86 2.228 . S
Cd86 O85 2.228 . S
Cd86 O90 2.273 . S
Cd86 O94 2.277 . S
O87 C84 1.160 . S
O87 Cd88 2.203 . S
Cd88 O87 2.203 . S
Cd88 O90 2.411 . S
Cd88 O91 2.333 . S
Cd88 O92 2.352 . S
Cd88 O96 2.277 . S
Cd88 O97 2.356 . S
C89 O94 1.209 . S
C89 O96 1.226 . S
O90 Cd86 2.273 . S
O90 Cd88 2.411 . S
O90 C93 1.320 . S
O91 Cd88 2.333 . S
O91 C93 1.214 . S
O92 Cd88 2.352 . S
O92 C95 1.258 . S
C93 O90 1.320 . S
C93 O91 1.214 . S
O94 Cd86 2.277 . S
O94 C89 1.209 . S
C95 O92 1.258 . S
C95 O97 1.282 . S
O96 Cd88 2.277 . S
O96 C89 1.226 . S
O97 Cd88 2.356 . S
O97 C95 1.282 . S
C98 O99 1.306 . S
C98 O101 1.160 . S
O99 C98 1.306 . S
O99 Cd100 2.228 . S
Cd100 O99 2.228 . S
Cd100 O104 2.273 . S
Cd100 O108 2.277 . S
O101 C98 1.160 . S
O101 Cd102 2.203 . S
Cd102 O101 2.203 . S
Cd102 O104 2.411 . S
Cd102 O105 2.333 . S
Cd102 O106 2.352 . S
Cd102 O110 2.277 . S
Cd102 O111 2.356 . S
C103 O108 1.209 . S
C103 O110 1.226 . S
O104 Cd100 2.273 . S
O104 Cd102 2.411 . S
O104 C107 1.320 . S
O105 Cd102 2.333 . S
O105 C107 1.214 . S
O106 Cd102 2.352 . S
O106 C109 1.258 . S
C107 O104 1.320 . S
C107 O105 1.214 . S
O108 Cd100 2.277 . S
O108 C103 1.209 . S
C109 O106 1.258 . S
C109 O111 1.282 . S
O110 Cd102 2.277 . S
O110 C103 1.226 . S
O111 Cd102 2.356 . S
O111 C109 1.282 . S
H112 C113 0.951 . S
C113 H112 0.951 . S
C113 C119 1.265 . S
H114 C119 0.950 1_455 S
H115 C123 0.949 . S
H116 C124 0.950 . S
H117 C125 0.951 . S
H118 C126 0.951 . S
C119 C113 1.265 . S
C119 H114 0.950 1_655 S
C119 C120 1.478 . S
C120 C119 1.478 . S
C120 C121 1.397 1_654 S
C120 C137 1.394 . S
C121 C120 1.397 1_456 S
C121 C122 1.438 1_565 S
C121 C126 1.429 . S
C122 C121 1.438 1_545 S
C122 C123 1.428 . S
C122 C135 1.394 1_556 S
C123 H115 0.949 . S
C123 C122 1.428 . S
C123 C124 1.345 . S
C124 H116 0.950 . S
C124 C123 1.345 . S
C124 C125 1.424 1_545 S
C125 H117 0.951 . S
C125 C124 1.424 1_565 S
C125 C126 1.347 . S
C126 H118 0.951 . S
C126 C121 1.429 . S
C126 C125 1.347 . S
H127 C128 0.951 . S
C128 H127 0.951 . S
C128 C134 1.265 . S
H129 C134 0.950 1_655 S
H130 C138 0.949 . S
H131 C139 0.950 . S
H132 C140 0.951 . S
H133 C141 0.951 . S
C134 C128 1.265 . S
C134 H129 0.950 1_455 S
C134 C135 1.478 . S
C135 C122 1.394 1_554 S
C135 C134 1.478 . S
C135 C136 1.397 1_455 S
C136 C135 1.397 1_655 S
C136 C137 1.438 1_545 S
C136 C141 1.429 . S
C137 C120 1.394 . S
C137 C136 1.438 1_565 S
C137 C138 1.428 . S
C138 H130 0.949 . S
C138 C137 1.428 . S
C138 C139 1.345 . S
C139 H131 0.950 . S
C139 C138 1.345 . S
C139 C140 1.424 1_565 S
C140 H132 0.951 . S
C140 C139 1.424 1_545 S
C140 C141 1.347 . S
C141 H133 0.951 . S
C141 C136 1.429 . S
C141 C140 1.347 . S
H142 C143 0.951 . S
C143 H142 0.951 . S
C143 C149 1.265 . S
H144 C149 0.950 1_655 S
H145 C153 0.949 . S
H146 C154 0.950 . S
H147 C155 0.951 . S
H148 C156 0.951 . S
C149 C143 1.265 . S
C149 H144 0.950 1_455 S
C149 C150 1.478 . S
C150 C149 1.478 . S
C150 C151 1.397 1_455 S
C150 C167 1.394 . S
C151 C150 1.397 1_655 S
C151 C152 1.438 1_565 S
C151 C156 1.429 . S
C152 C151 1.438 1_545 S
C152 C153 1.428 . S
C152 C165 1.394 . S
C153 H145 0.949 . S
C153 C152 1.428 . S
C153 C154 1.345 . S
C154 H146 0.950 . S
C154 C153 1.345 . S
C154 C155 1.424 1_545 S
C155 H147 0.951 . S
C155 C154 1.424 1_565 S
C155 C156 1.347 . S
C156 H148 0.951 . S
C156 C151 1.429 . S
C156 C155 1.347 . S
H157 C158 0.951 . S
C158 H157 0.951 . S
C158 C164 1.265 . S
H159 C164 0.950 1_455 S
H160 C168 0.949 . S
H161 C169 0.950 . S
H162 C170 0.951 . S
H163 C171 0.951 . S
C164 C158 1.265 . S
C164 H159 0.950 1_655 S
C164 C165 1.478 . S
C165 C152 1.394 . S
C165 C164 1.478 . S
C165 C166 1.397 1_655 S
C166 C165 1.397 1_455 S
C166 C167 1.438 1_545 S
C166 C171 1.429 . S
C167 C150 1.394 . S
C167 C166 1.438 1_565 S
C167 C168 1.428 . S
C168 H160 0.949 . S
C168 C167 1.428 . S
C168 C169 1.345 . S
C169 H161 0.950 . S
C169 C168 1.345 . S
C169 C170 1.424 1_565 S
C170 H162 0.951 . S
C170 C169 1.424 1_545 S
C170 C171 1.347 . S
C171 H163 0.951 . S
C171 C166 1.429 . S
C171 C170 1.347 . S
H172 C173 0.951 . S
C173 H172 0.951 . S
C173 C179 1.265 . S
H174 C179 0.950 . S
H175 C183 0.949 . S
H176 C184 0.950 . S
H177 C185 0.951 . S
H178 C186 0.951 . S
C179 C173 1.265 . S
C179 H174 0.950 . S
C179 C180 1.478 . S
C180 C179 1.478 . S
C180 C181 1.397 1_554 S
C180 C197 1.394 . S
C181 C180 1.397 1_556 S
C181 C182 1.438 . S
C181 C186 1.429 . S
C182 C181 1.438 . S
C182 C183 1.428 . S
C182 C195 1.394 1_556 S
C183 H175 0.949 . S
C183 C182 1.428 . S
C183 C184 1.345 . S
C184 H176 0.950 . S
C184 C183 1.345 . S
C184 C185 1.424 . S
C185 H177 0.951 . S
C185 C184 1.424 . S
C185 C186 1.347 . S
C186 H178 0.951 . S
C186 C181 1.429 . S
C186 C185 1.347 . S
H187 C188 0.951 . S
C188 H187 0.951 . S
C188 C194 1.265 . S
H189 C194 0.950 . S
H190 C198 0.949 . S
H191 C199 0.950 . S
H192 C200 0.951 . S
H193 C201 0.951 . S
C194 C188 1.265 . S
C194 H189 0.950 . S
C194 C195 1.478 . S
C195 C182 1.394 1_554 S
C195 C194 1.478 . S
C195 C196 1.397 . S
C196 C195 1.397 . S
C196 C197 1.438 . S
C196 C201 1.429 . S
C197 C180 1.394 . S
C197 C196 1.438 . S
C197 C198 1.428 . S
C198 H190 0.949 . S
C198 C197 1.428 . S
C198 C199 1.345 . S
C199 H191 0.950 . S
C199 C198 1.345 . S
C199 C200 1.424 . S
C200 H192 0.951 . S
C200 C199 1.424 . S
C200 C201 1.347 . S
C201 H193 0.951 . S
C201 C196 1.429 . S
C201 C200 1.347 . S
H202 C203 0.951 . S
C203 H202 0.951 . S
C203 C209 1.265 . S
H204 C209 0.950 . S
H205 C213 0.949 . S
H206 C214 0.950 . S
H207 C215 0.951 . S
H208 C216 0.951 . S
C209 C203 1.265 . S
C209 H204 0.950 . S
C209 C210 1.478 . S
C210 C209 1.478 . S
C210 C211 1.397 . S
C210 C227 1.394 . S
C211 C210 1.397 . S
C211 C212 1.438 . S
C211 C216 1.429 . S
C212 C211 1.438 . S
C212 C213 1.428 . S
C212 C225 1.394 . S
C213 H205 0.949 . S
C213 C212 1.428 . S
C213 C214 1.345 . S
C214 H206 0.950 . S
C214 C213 1.345 . S
C214 C215 1.424 . S
C215 H207 0.951 . S
C215 C214 1.424 . S
C215 C216 1.347 . S
C216 H208 0.951 . S
C216 C211 1.429 . S
C216 C215 1.347 . S
H217 C218 0.951 . S
C218 H217 0.951 . S
C218 C224 1.265 . S
H219 C224 0.950 . S
H220 C228 0.949 . S
H221 C229 0.950 . S
H222 C230 0.951 . S
H223 C231 0.951 . S
C224 C218 1.265 . S
C224 H219 0.950 . S
C224 C225 1.478 . S
C225 C212 1.394 . S
C225 C224 1.478 . S
C225 C226 1.397 . S
C226 C225 1.397 . S
C226 C227 1.438 . S
C226 C231 1.429 . S
C227 C210 1.394 . S
C227 C226 1.438 . S
C227 C228 1.428 . S
C228 H220 0.949 . S
C228 C227 1.428 . S
C228 C229 1.345 . S
C229 H221 0.950 . S
C229 C228 1.345 . S
C229 C230 1.424 . S
C230 H222 0.951 . S
C230 C229 1.424 . S
C230 C231 1.347 . S
C231 H223 0.951 . S
C231 C226 1.429 . S
C231 C230 1.347 . S
H232 C233 0.951 . S
C233 H232 0.951 . S
C233 C239 1.265 1_455 S
H234 C239 0.950 . S
H235 C243 0.949 . S
H236 C244 0.950 . S
H237 C245 0.951 . S
H238 C246 0.951 . S
C239 C233 1.265 1_655 S
C239 H234 0.950 . S
C239 C240 1.478 . S
C240 C239 1.478 . S
C240 C241 1.397 . S
C240 C257 1.394 1_655 S
C241 C240 1.397 . S
C241 C242 1.438 . S
C241 C246 1.429 . S
C242 C241 1.438 . S
C242 C243 1.428 . S
C242 C255 1.394 1_655 S
C243 H235 0.949 . S
C243 C242 1.428 . S
C243 C244 1.345 . S
C244 H236 0.950 . S
C244 C243 1.345 . S
C244 C245 1.424 . S
C245 H237 0.951 . S
C245 C244 1.424 . S
C245 C246 1.347 . S
C246 H238 0.951 . S
C246 C241 1.429 . S
C246 C245 1.347 . S
H247 C248 0.951 . S
C248 H247 0.951 . S
C248 C254 1.265 1_655 S
H249 C254 0.950 . S
H250 C258 0.949 . S
H251 C259 0.950 . S
H252 C260 0.951 . S
H253 C261 0.951 . S
C254 C248 1.265 1_455 S
C254 H249 0.950 . S
C254 C255 1.478 . S
C255 C242 1.394 1_455 S
C255 C254 1.478 . S
C255 C256 1.397 . S
C256 C255 1.397 . S
C256 C257 1.438 . S
C256 C261 1.429 . S
C257 C240 1.394 1_455 S
C257 C256 1.438 . S
C257 C258 1.428 . S
C258 H250 0.949 . S
C258 C257 1.428 . S
C258 C259 1.345 . S
C259 H251 0.950 . S
C259 C258 1.345 . S
C259 C260 1.424 . S
C260 H252 0.951 . S
C260 C259 1.424 . S
C260 C261 1.347 . S
C261 H253 0.951 . S
C261 C256 1.429 . S
C261 C260 1.347 . S
H262 C263 0.951 . S
C263 H262 0.951 . S
C263 C269 1.265 1_455 S
H264 C269 0.950 . S
H265 C273 0.949 . S
H266 C274 0.950 . S
H267 C275 0.951 . S
H268 C276 0.951 . S
C269 C263 1.265 1_655 S
C269 H264 0.950 . S
C269 C270 1.478 . S
C270 C269 1.478 . S
C270 C271 1.397 . S
C270 C287 1.394 1_655 S
C271 C270 1.397 . S
C271 C272 1.438 . S
C271 C276 1.429 . S
C272 C271 1.438 . S
C272 C273 1.428 . S
C272 C285 1.394 1_655 S
C273 H265 0.949 . S
C273 C272 1.428 . S
C273 C274 1.345 . S
C274 H266 0.950 . S
C274 C273 1.345 . S
C274 C275 1.424 . S
C275 H267 0.951 . S
C275 C274 1.424 . S
C275 C276 1.347 . S
C276 H268 0.951 . S
C276 C271 1.429 . S
C276 C275 1.347 . S
H277 C278 0.951 . S
C278 H277 0.951 . S
C278 C284 1.265 1_655 S
H279 C284 0.950 . S
H280 C288 0.949 . S
H281 C289 0.950 . S
H282 C290 0.951 . S
H283 C291 0.951 . S
C284 C278 1.265 1_455 S
C284 H279 0.950 . S
C284 C285 1.478 . S
C285 C272 1.394 1_455 S
C285 C284 1.478 . S
C285 C286 1.397 . S
C286 C285 1.397 . S
C286 C287 1.438 . S
C286 C291 1.429 . S
C287 C270 1.394 1_455 S
C287 C286 1.438 . S
C287 C288 1.428 . S
C288 H280 0.949 . S
C288 C287 1.428 . S
C288 C289 1.345 . S
C289 H281 0.950 . S
C289 C288 1.345 . S
C289 C290 1.424 . S
C290 H282 0.951 . S
C290 C289 1.424 . S
C290 C291 1.347 . S
C291 H283 0.951 . S
C291 C286 1.429 . S
C291 C290 1.347 . S
H292 C293 0.951 . S
C293 H292 0.951 . S
C293 C299 1.265 1_455 S
H294 C299 0.950 . S
H295 C303 0.949 . S
H296 C304 0.950 . S
H297 C305 0.951 . S
H298 C306 0.951 . S
C299 C293 1.265 1_655 S
C299 H294 0.950 . S
C299 C300 1.478 . S
C300 C299 1.478 . S
C300 C301 1.397 . S
C300 C317 1.394 1_655 S
C301 C300 1.397 . S
C301 C302 1.438 . S
C301 C306 1.429 . S
C302 C301 1.438 . S
C302 C303 1.428 . S
C302 C315 1.394 1_655 S
C303 H295 0.949 . S
C303 C302 1.428 . S
C303 C304 1.345 . S
C304 H296 0.950 . S
C304 C303 1.345 . S
C304 C305 1.424 . S
C305 H297 0.951 . S
C305 C304 1.424 . S
C305 C306 1.347 . S
C306 H298 0.951 . S
C306 C301 1.429 . S
C306 C305 1.347 . S
H307 C308 0.951 . S
C308 H307 0.951 . S
C308 C314 1.265 1_655 S
H309 C314 0.950 . S
H310 C318 0.949 . S
H311 C319 0.950 . S
H312 C320 0.951 . S
H313 C321 0.951 . S
C314 C308 1.265 1_455 S
C314 H309 0.950 . S
C314 C315 1.478 . S
C315 C302 1.394 1_455 S
C315 C314 1.478 . S
C315 C316 1.397 . S
C316 C315 1.397 . S
C316 C317 1.438 . S
C316 C321 1.429 . S
C317 C300 1.394 1_455 S
C317 C316 1.438 . S
C317 C318 1.428 . S
C318 H310 0.949 . S
C318 C317 1.428 . S
C318 C319 1.345 . S
C319 H311 0.950 . S
C319 C318 1.345 . S
C319 C320 1.424 . S
C320 H312 0.951 . S
C320 C319 1.424 . S
C320 C321 1.347 . S
C321 H313 0.951 . S
C321 C316 1.429 . S
C321 C320 1.347 . S
H322 C323 0.951 1_655 S
C323 H322 0.951 1_455 S
C323 C329 1.265 . S
H324 C329 0.950 . S
H325 C333 0.949 1_655 S
H326 C334 0.950 . S
H327 C335 0.951 . S
H328 C336 0.951 . S
C329 C323 1.265 . S
C329 H324 0.950 . S
C329 C330 1.478 . S
C330 C329 1.478 . S
C330 C331 1.397 . S
C330 C347 1.394 1_455 S
C331 C330 1.397 . S
C331 C332 1.438 . S
C331 C336 1.429 . S
C332 C331 1.438 . S
C332 C333 1.428 . S
C332 C345 1.394 1_455 S
C333 H325 0.949 1_455 S
C333 C332 1.428 . S
C333 C334 1.345 . S
C334 H326 0.950 . S
C334 C333 1.345 . S
C334 C335 1.424 . S
C335 H327 0.951 . S
C335 C334 1.424 . S
C335 C336 1.347 . S
C336 H328 0.951 . S
C336 C331 1.429 . S
C336 C335 1.347 . S
H337 C338 0.951 1_455 S
C338 H337 0.951 1_655 S
C338 C344 1.265 . S
H339 C344 0.950 . S
H340 C348 0.949 1_455 S
H341 C349 0.950 . S
H342 C350 0.951 . S
H343 C351 0.951 . S
C344 C338 1.265 . S
C344 H339 0.950 . S
C344 C345 1.478 . S
C345 C332 1.394 1_655 S
C345 C344 1.478 . S
C345 C346 1.397 . S
C346 C345 1.397 . S
C346 C347 1.438 . S
C346 C351 1.429 . S
C347 C330 1.394 1_655 S
C347 C346 1.438 . S
C347 C348 1.428 . S
C348 H340 0.949 1_655 S
C348 C347 1.428 . S
C348 C349 1.345 . S
C349 H341 0.950 . S
C349 C348 1.345 . S
C349 C350 1.424 . S
C350 H342 0.951 . S
C350 C349 1.424 . S
C350 C351 1.347 . S
C351 H343 0.951 . S
C351 C346 1.429 . S
C351 C350 1.347 . S
H352 C353 0.951 . S
C353 H352 0.951 . S
C353 C359 1.265 . S
H354 C359 0.950 . S
H355 C363 0.949 . S
H356 C364 0.950 . S
H357 C365 0.951 . S
H358 C366 0.951 . S
C359 C353 1.265 . S
C359 H354 0.950 . S
C359 C360 1.478 . S
C360 C359 1.478 . S
C360 C361 1.397 . S
C360 C377 1.394 . S
C361 C360 1.397 . S
C361 C362 1.438 . S
C361 C366 1.429 . S
C362 C361 1.438 . S
C362 C363 1.428 . S
C362 C375 1.394 . S
C363 H355 0.949 . S
C363 C362 1.428 . S
C363 C364 1.345 . S
C364 H356 0.950 . S
C364 C363 1.345 . S
C364 C365 1.424 . S
C365 H357 0.951 . S
C365 C364 1.424 . S
C365 C366 1.347 . S
C366 H358 0.951 . S
C366 C361 1.429 . S
C366 C365 1.347 . S
H367 C368 0.951 . S
C368 H367 0.951 . S
C368 C374 1.265 . S
H369 C374 0.950 . S
H370 C378 0.949 . S
H371 C379 0.950 . S
H372 C380 0.951 . S
H373 C381 0.951 . S
C374 C368 1.265 . S
C374 H369 0.950 . S
C374 C375 1.478 . S
C375 C362 1.394 . S
C375 C374 1.478 . S
C375 C376 1.397 . S
C376 C375 1.397 . S
C376 C377 1.438 . S
C376 C381 1.429 . S
C377 C360 1.394 . S
C377 C376 1.438 . S
C377 C378 1.428 . S
C378 H370 0.949 . S
C378 C377 1.428 . S
C378 C379 1.345 . S
C379 H371 0.950 . S
C379 C378 1.345 . S
C379 C380 1.424 . S
C380 H372 0.951 . S
C380 C379 1.424 . S
C380 C381 1.347 . S
C381 H373 0.951 . S
C381 C376 1.429 . S
C381 C380 1.347 . S
H382 C383 0.951 . S
C383 H382 0.951 . S
C383 C389 1.265 . S
H384 C389 0.950 . S
H385 C393 0.949 . S
H386 C394 0.950 . S
H387 C395 0.951 . S
H388 C396 0.951 . S
C389 C383 1.265 . S
C389 H384 0.950 . S
C389 C390 1.478 . S
C390 C389 1.478 . S
C390 C391 1.397 . S
C390 C407 1.394 . S
C391 C390 1.397 . S
C391 C392 1.438 . S
C391 C396 1.429 . S
C392 C391 1.438 . S
C392 C393 1.428 . S
C392 C405 1.394 . S
C393 H385 0.949 . S
C393 C392 1.428 . S
C393 C394 1.345 . S
C394 H386 0.950 . S
C394 C393 1.345 . S
C394 C395 1.424 . S
C395 H387 0.951 . S
C395 C394 1.424 . S
C395 C396 1.347 . S
C396 H388 0.951 . S
C396 C391 1.429 . S
C396 C395 1.347 . S
H397 C398 0.951 . S
C398 H397 0.951 . S
C398 C404 1.265 . S
H399 C404 0.950 . S
H400 C408 0.949 . S
H401 C409 0.950 . S
H402 C410 0.951 . S
H403 C411 0.951 . S
C404 C398 1.265 . S
C404 H399 0.950 . S
C404 C405 1.478 . S
C405 C392 1.394 . S
C405 C404 1.478 . S
C405 C406 1.397 . S
C406 C405 1.397 . S
C406 C407 1.438 . S
C406 C411 1.429 . S
C407 C390 1.394 . S
C407 C406 1.438 . S
C407 C408 1.428 . S
C408 H400 0.949 . S
C408 C407 1.428 . S
C408 C409 1.345 . S
C409 H401 0.950 . S
C409 C408 1.345 . S
C409 C410 1.424 . S
C410 H402 0.951 . S
C410 C409 1.424 . S
C410 C411 1.347 . S
C411 H403 0.951 . S
C411 C406 1.429 . S
C411 C410 1.347 . S
H412 C413 0.951 . S
C413 H412 0.951 . S
C413 C419 1.265 . S
H414 C419 0.950 . S
H415 C423 0.949 . S
H416 C424 0.950 . S
H417 C425 0.951 . S
H418 C426 0.951 . S
C419 C413 1.265 . S
C419 H414 0.950 . S
C419 C420 1.478 . S
C420 C419 1.478 . S
C420 C421 1.397 . S
C420 C437 1.394 . S
C421 C420 1.397 . S
C421 C422 1.438 . S
C421 C426 1.429 . S
C422 C421 1.438 . S
C422 C423 1.428 . S
C422 C435 1.394 . S
C423 H415 0.949 . S
C423 C422 1.428 . S
C423 C424 1.345 . S
C424 H416 0.950 . S
C424 C423 1.345 . S
C424 C425 1.424 . S
C425 H417 0.951 . S
C425 C424 1.424 . S
C425 C426 1.347 . S
C426 H418 0.951 . S
C426 C421 1.429 . S
C426 C425 1.347 . S
H427 C428 0.951 . S
C428 H427 0.951 . S
C428 C434 1.265 . S
H429 C434 0.950 . S
H430 C438 0.949 . S
H431 C439 0.950 . S
H432 C440 0.951 . S
H433 C441 0.951 . S
C434 C428 1.265 . S
C434 H429 0.950 . S
C434 C435 1.478 . S
C435 C422 1.394 . S
C435 C434 1.478 . S
C435 C436 1.397 . S
C436 C435 1.397 . S
C436 C437 1.438 . S
C436 C441 1.429 . S
C437 C420 1.394 . S
C437 C436 1.438 . S
C437 C438 1.428 . S
C438 H430 0.949 . S
C438 C437 1.428 . S
C438 C439 1.345 . S
C439 H431 0.950 . S
C439 C438 1.345 . S
C439 C440 1.424 . S
C440 H432 0.951 . S
C440 C439 1.424 . S
C440 C441 1.347 . S
C441 H433 0.951 . S
C441 C436 1.429 . S
C441 C440 1.347 . S
H442 C443 0.951 . S
C443 H442 0.951 . S
C443 C449 1.265 . S
H444 C449 0.950 . S
H445 C453 0.949 . S
H446 C454 0.950 . S
H447 C455 0.951 . S
H448 C456 0.951 . S
C449 C443 1.265 . S
C449 H444 0.950 . S
C449 C450 1.478 . S
C450 C449 1.478 . S
C450 C451 1.397 . S
C450 C467 1.394 . S
C451 C450 1.397 . S
C451 C452 1.438 . S
C451 C456 1.429 . S
C452 C451 1.438 . S
C452 C453 1.428 . S
C452 C465 1.394 . S
C453 H445 0.949 . S
C453 C452 1.428 . S
C453 C454 1.345 . S
C454 H446 0.950 . S
C454 C453 1.345 . S
C454 C455 1.424 . S
C455 H447 0.951 . S
C455 C454 1.424 . S
C455 C456 1.347 . S
C456 H448 0.951 . S
C456 C451 1.429 . S
C456 C455 1.347 . S
H457 C458 0.951 . S
C458 H457 0.951 . S
C458 C464 1.265 . S
H459 C464 0.950 . S
H460 C468 0.949 . S
H461 C469 0.950 . S
H462 C470 0.951 . S
H463 C471 0.951 . S
C464 C458 1.265 . S
C464 H459 0.950 . S
C464 C465 1.478 . S
C465 C452 1.394 . S
C465 C464 1.478 . S
C465 C466 1.397 . S
C466 C465 1.397 . S
C466 C467 1.438 . S
C466 C471 1.429 . S
C467 C450 1.394 . S
C467 C466 1.438 . S
C467 C468 1.428 . S
C468 H460 0.949 . S
C468 C467 1.428 . S
C468 C469 1.345 . S
C469 H461 0.950 . S
C469 C468 1.345 . S
C469 C470 1.424 . S
C470 H462 0.951 . S
C470 C469 1.424 . S
C470 C471 1.347 . S
C471 H463 0.951 . S
C471 C466 1.429 . S
C471 C470 1.347 . S
H472 C473 0.951 . S
C473 H472 0.951 . S
C473 C479 1.265 . S
H474 C479 0.950 . S
H475 C483 0.949 . S
H476 C484 0.950 . S
H477 C485 0.951 . S
H478 C486 0.951 . S
C479 C473 1.265 . S
C479 H474 0.950 . S
C479 C480 1.478 . S
C480 C479 1.478 . S
C480 C481 1.397 . S
C480 C497 1.394 1_554 S
C481 C480 1.397 . S
C481 C482 1.438 . S
C481 C486 1.429 . S
C482 C481 1.438 . S
C482 C483 1.428 . S
C482 C495 1.394 . S
C483 H475 0.949 . S
C483 C482 1.428 . S
C483 C484 1.345 . S
C484 H476 0.950 . S
C484 C483 1.345 . S
C484 C485 1.424 . S
C485 H477 0.951 . S
C485 C484 1.424 . S
C485 C486 1.347 . S
C486 H478 0.951 . S
C486 C481 1.429 . S
C486 C485 1.347 . S
H487 C488 0.951 . S
C488 H487 0.951 . S
C488 C494 1.265 . S
H489 C494 0.950 1_556 S
H490 C498 0.949 . S
H491 C499 0.950 . S
H492 C500 0.951 . S
H493 C501 0.951 . S
C494 C488 1.265 . S
C494 H489 0.950 1_554 S
C494 C495 1.478 . S
C495 C482 1.394 . S
C495 C494 1.478 . S
C495 C496 1.397 1_554 S
C496 C495 1.397 1_556 S
C496 C497 1.438 . S
C496 C501 1.429 . S
C497 C480 1.394 1_556 S
C497 C496 1.438 . S
C497 C498 1.428 . S
C498 H490 0.949 . S
C498 C497 1.428 . S
C498 C499 1.345 . S
C499 H491 0.950 . S
C499 C498 1.345 . S
C499 C500 1.424 . S
C500 H492 0.951 . S
C500 C499 1.424 . S
C500 C501 1.347 . S
C501 H493 0.951 . S
C501 C496 1.429 . S
C501 C500 1.347 . S
H502 C503 0.951 . S
C503 H502 0.951 . S
C503 C509 1.265 . S
H504 C509 0.950 . S
H505 C513 0.949 . S
H506 C514 0.950 . S
H507 C515 0.951 . S
H508 C516 0.951 . S
C509 C503 1.265 . S
C509 H504 0.950 . S
C509 C510 1.478 . S
C510 C509 1.478 . S
C510 C511 1.397 . S
C510 C527 1.394 1_554 S
C511 C510 1.397 . S
C511 C512 1.438 . S
C511 C516 1.429 . S
C512 C511 1.438 . S
C512 C513 1.428 . S
C512 C525 1.394 . S
C513 H505 0.949 . S
C513 C512 1.428 . S
C513 C514 1.345 . S
C514 H506 0.950 . S
C514 C513 1.345 . S
C514 C515 1.424 . S
C515 H507 0.951 . S
C515 C514 1.424 . S
C515 C516 1.347 . S
C516 H508 0.951 . S
C516 C511 1.429 . S
C516 C515 1.347 . S
H517 C518 0.951 . S
C518 H517 0.951 . S
C518 C524 1.265 . S
H519 C524 0.950 . S
H520 C528 0.949 . S
H521 C529 0.950 . S
H522 C530 0.951 . S
H523 C531 0.951 . S
C524 C518 1.265 . S
C524 H519 0.950 . S
C524 C525 1.478 . S
C525 C512 1.394 . S
C525 C524 1.478 . S
C525 C526 1.397 1_554 S
C526 C525 1.397 1_556 S
C526 C527 1.438 . S
C526 C531 1.429 . S
C527 C510 1.394 1_556 S
C527 C526 1.438 . S
C527 C528 1.428 . S
C528 H520 0.949 . S
C528 C527 1.428 . S
C528 C529 1.345 . S
C529 H521 0.950 . S
C529 C528 1.345 . S
C529 C530 1.424 . S
C530 H522 0.951 . S
C530 C529 1.424 . S
C530 C531 1.347 . S
C531 H523 0.951 . S
C531 C526 1.429 . S
C531 C530 1.347 . S
H532 C533 0.951 . S
C533 H532 0.951 . S
C533 C539 1.265 . S
H534 C539 0.950 . S
H535 C543 0.949 . S
H536 C544 0.950 . S
H537 C545 0.951 . S
H538 C546 0.951 . S
C539 C533 1.265 . S
C539 H534 0.950 . S
C539 C540 1.478 . S
C540 C539 1.478 . S
C540 C541 1.397 . S
C540 C557 1.394 . S
C541 C540 1.397 . S
C541 C542 1.438 . S
C541 C546 1.429 . S
C542 C541 1.438 . S
C542 C543 1.428 . S
C542 C555 1.394 . S
C543 H535 0.949 . S
C543 C542 1.428 . S
C543 C544 1.345 . S
C544 H536 0.950 . S
C544 C543 1.345 . S
C544 C545 1.424 . S
C545 H537 0.951 . S
C545 C544 1.424 . S
C545 C546 1.347 . S
C546 H538 0.951 . S
C546 C541 1.429 . S
C546 C545 1.347 . S
H547 C548 0.951 . S
C548 H547 0.951 . S
C548 C554 1.265 . S
H549 C554 0.950 . S
H550 C558 0.949 . S
H551 C559 0.950 . S
H552 C560 0.951 . S
H553 C561 0.951 . S
C554 C548 1.265 . S
C554 H549 0.950 . S
C554 C555 1.478 . S
C555 C542 1.394 . S
C555 C554 1.478 . S
C555 C556 1.397 . S
C556 C555 1.397 . S
C556 C557 1.438 . S
C556 C561 1.429 . S
C557 C540 1.394 . S
C557 C556 1.438 . S
C557 C558 1.428 . S
C558 H550 0.949 . S
C558 C557 1.428 . S
C558 C559 1.345 . S
C559 H551 0.950 . S
C559 C558 1.345 . S
C559 C560 1.424 . S
C560 H552 0.951 . S
C560 C559 1.424 . S
C560 C561 1.347 . S
C561 H553 0.951 . S
C561 C556 1.429 . S
C561 C560 1.347 . S
H562 C563 0.951 . S
C563 H562 0.951 . S
C563 C569 1.265 . S
H564 C569 0.950 . S
H565 C573 0.949 . S
H566 C574 0.950 . S
H567 C575 0.951 . S
H568 C576 0.951 . S
C569 C563 1.265 . S
C569 H564 0.950 . S
C569 C570 1.478 . S
C570 C569 1.478 . S
C570 C571 1.397 . S
C570 C587 1.394 . S
C571 C570 1.397 . S
C571 C572 1.438 . S
C571 C576 1.429 . S
C572 C571 1.438 . S
C572 C573 1.428 . S
C572 C585 1.394 . S
C573 H565 0.949 . S
C573 C572 1.428 . S
C573 C574 1.345 . S
C574 H566 0.950 . S
C574 C573 1.345 . S
C574 C575 1.424 . S
C575 H567 0.951 . S
C575 C574 1.424 . S
C575 C576 1.347 . S
C576 H568 0.951 . S
C576 C571 1.429 . S
C576 C575 1.347 . S
H577 C578 0.951 . S
C578 H577 0.951 . S
C578 C584 1.265 . S
H579 C584 0.950 . S
H580 C588 0.949 . S
H581 C589 0.950 . S
H582 C590 0.951 . S
H583 C591 0.951 . S
C584 C578 1.265 . S
C584 H579 0.950 . S
C584 C585 1.478 . S
C585 C572 1.394 . S
C585 C584 1.478 . S
C585 C586 1.397 . S
C586 C585 1.397 . S
C586 C587 1.438 . S
C586 C591 1.429 . S
C587 C570 1.394 . S
C587 C586 1.438 . S
C587 C588 1.428 . S
C588 H580 0.949 . S
C588 C587 1.428 . S
C588 C589 1.345 . S
C589 H581 0.950 . S
C589 C588 1.345 . S
C589 C590 1.424 . S
C590 H582 0.951 . S
C590 C589 1.424 . S
C590 C591 1.347 . S
C591 H583 0.951 . S
C591 C586 1.429 . S
C591 C590 1.347 . S
C113 C19 1.502 . S
C128 C5 1.502 . S
C143 C33 1.502 . S
C158 C47 1.502 . S
C173 C61 1.502 . S
C188 C75 1.502 . S
C203 C89 1.502 . S
C218 C103 1.502 . S
C233 C9 1.191 . S
C248 C51 1.186 . S
C263 C37 1.188 . S
C278 C23 1.188 . S
C293 C28 1.254 . S
C308 C14 1.257 . S
C323 C0 1.283 . S
C338 C42 1.273 . S
C353 C65 1.271 . S
C368 C107 1.273 . S
C383 C93 1.270 . S
C398 C79 1.274 . S
C413 C70 1.254 . S
C428 C84 1.257 . S
C443 C56 1.284 . S
C458 C98 1.272 . S
C473 C81 1.484 . S
C488 C11 1.483 . S
C503 C67 1.483 . S
C518 C25 1.484 . S
C533 C39 1.510 . S
C548 C109 1.512 . S
C563 C95 1.511 . S
C578 C53 1.512 . S
