# Generated by pormake.
# Topology nbo, (4)-cn, num edge types: 1
# Building blocks:
#     Node 0, Type 0, BuildingBlock: ESEHIV_clean_sbu_0, # of connection points: 4
#     Node 1, Type 0, BuildingBlock: ESEHIV_clean_sbu_0, # of connection points: 4
#     Node 2, Type 0, BuildingBlock: ESEHIV_clean_sbu_0, # of connection points: 4
#     Node 3, Type 0, BuildingBlock: ESEHIV_clean_sbu_0, # of connection points: 4
#     Node 4, Type 0, BuildingBlock: ESEHIV_clean_sbu_0, # of connection points: 4
#     Node 5, Type 0, BuildingBlock: ESEHIV_clean_sbu_0, # of connection points: 4
#     Edge 6, Type (0, 0), BuildingBlock: CIFDUS_clean_linker_0, # of connection points: 2
#     Edge 7, Type (0, 0), BuildingBlock: CIFDUS_clean_linker_0, # of connection points: 2
#     Edge 8, Type (0, 0), BuildingBlock: CIFDUS_clean_linker_0, # of connection points: 2
#     Edge 9, Type (0, 0), BuildingBlock: CIFDUS_clean_linker_0, # of connection points: 2
#     Edge 10, Type (0, 0), BuildingBlock: CIFDUS_clean_linker_0, # of connection points: 2
#     Edge 11, Type (0, 0), BuildingBlock: CIFDUS_clean_linker_0, # of connection points: 2
#     Edge 12, Type (0, 0), BuildingBlock: CIFDUS_clean_linker_0, # of connection points: 2
#     Edge 13, Type (0, 0), BuildingBlock: CIFDUS_clean_linker_0, # of connection points: 2
#     Edge 14, Type (0, 0), BuildingBlock: CIFDUS_clean_linker_0, # of connection points: 2
#     Edge 15, Type (0, 0), BuildingBlock: CIFDUS_clean_linker_0, # of connection points: 2
#     Edge 16, Type (0, 0), BuildingBlock: CIFDUS_clean_linker_0, # of connection points: 2
#     Edge 17, Type (0, 0), BuildingBlock: CIFDUS_clean_linker_0, # of connection points: 2
# Relax obj value: 0.000
# Max RMSD: 0.094
# Mean RMSD: 0.094
data_MOF--net-nbo--node1-ESEHIV_clean_sbu_0--edge1-CIFDUS_clean_linker_0
_symmetry_space_group_name_H-M    P1
_symmetry_Int_Tables_number       1
_symmetry_cell_setting            triclinic
loop_
_symmetry_equiv_pos_as_xyz
'x, y, z'
_cell_length_a     25.869521
_cell_length_b     30.477847
_cell_length_c     28.298605
_cell_angle_alpha  103.92603
_cell_angle_beta   103.5372
_cell_angle_gamma 103.56938
loop_
_atom_site_label
_atom_site_type_symbol
_atom_site_fract_x
_atom_site_fract_y
_atom_site_fract_z
_atom_type_partial_charge
Cu0 Cu 0.04135 1.00798 0.49762 0.0
N1 N 0.05247 0.06929 0.54019 0.0
N2 N 0.0487 0.14426 0.55861 0.0
C3 C 0.03078 0.10087 0.52313 0.0
C4 C 0.08321 0.13959 0.59986 0.0
C5 C 0.08556 0.09343 0.58835 0.0
O6 O 0.96535 0.99244 0.45217 0.0
C7 C 0.14629 1.00311 0.48767 0.0
O8 O 0.14615 0.98486 0.52519 0.0
H9 H 1.00431 0.09253 0.48433 0.0
H10 H 0.11103 0.07909 0.61275 0.0
N11 N 0.03984 0.96022 0.52974 0.0
N12 N 0.02271 0.88642 0.5361 0.0
C13 C 1.02114 0.9132 0.50426 0.0
C14 C 0.05377 0.96353 0.57966 0.0
C15 C 0.04344 0.91815 0.58368 0.0
C16 C 0.92879 0.98566 0.47543 0.0
O17 O 0.94556 0.98617 0.52316 0.0
H18 H 1.00681 0.89909 0.46293 0.0
H19 H 0.06958 0.99647 0.61091 0.0
O20 O 0.1031 1.01367 0.46739 0.0
H21 H 0.10598 0.16764 0.63563 0.0
H22 H 0.04957 0.90934 0.619 0.0
Cu23 Cu 0.56879 0.14194 0.04362 0.0
N24 N 0.53098 0.07767 0.0301 0.0
N25 N 0.52367 1.00492 0.037 0.0
C26 C 0.55684 0.05011 0.05066 0.0
C27 C 0.47463 1.00382 1.00591 0.0
C28 C 0.4792 0.04895 1.00185 0.0
O29 O 0.61184 0.16209 0.11595 0.0
C30 C 0.57415 0.13535 0.94793 0.0
O31 O 0.52025 0.12287 0.94187 0.0
H32 H 0.5999 0.06319 0.07481 0.0
H33 H 0.4472 0.05986 0.97991 0.0
N34 N 0.52607 0.1836 0.04068 0.0
N35 N 0.51404 0.2555 0.05859 0.0
C36 C 0.55102 0.23079 0.06 0.0
C37 C 0.47085 0.17769 0.0259 0.0
C38 C 0.4633 0.22219 0.03669 0.0
C39 C 0.57809 0.15823 0.14235 0.0
O40 O 0.52419 0.14281 0.11796 0.0
H41 H 0.59593 0.24653 0.0752 0.0
H42 H 0.4385 0.14369 1.00971 0.0
O43 O 0.60784 0.14596 0.99284 0.0
H44 H 0.43794 0.97291 0.98792 0.0
H45 H 0.42359 0.2293 0.03025 0.0
Cu46 Cu 0.04212 0.51996 1.0063 0.0
N47 N 1.01569 0.48148 0.93765 0.0
N48 N 1.00034 0.4588 0.85297 0.0
C49 C 0.02462 0.49488 0.89736 0.0
C50 C 0.97519 0.42136 0.86592 0.0
C51 C 0.98488 0.43539 0.91808 0.0
O52 O 0.11744 0.55893 0.01681 0.0
C53 C 0.93964 0.54007 0.99587 0.0
O54 O 0.91984 0.4964 0.96437 0.0
H55 H 0.04753 0.53063 0.9005 0.0
H56 H 0.96986 0.41366 0.94011 0.0
N57 N 0.04632 0.48348 0.05119 0.0
N58 N 0.04724 0.45896 0.11983 0.0
C59 C 0.04255 0.49413 0.09927 0.0
C60 C 0.05442 0.44058 0.0416 0.0
C61 C 0.05438 0.42519 0.08353 0.0
C62 C 0.14931 0.53815 0.99886 0.0
O63 O 0.13052 0.492 0.97613 0.0
H64 H 0.03493 0.52626 0.11819 0.0
H65 H 0.05959 0.42159 1.00635 0.0
O66 O 0.99216 0.5577 0.01851 0.0
H67 H 0.95128 0.3863 0.83952 0.0
H68 H 0.05882 0.39155 0.08701 0.0
Cu69 Cu 0.58105 0.63449 0.04359 0.0
N70 N 0.59931 0.70036 0.07306 0.0
N71 N 0.58982 0.77246 0.07795 0.0
C72 C 0.58114 0.72828 0.04707 0.0
C73 C 0.6155 0.77236 0.1254 0.0
C74 C 0.62103 0.7278 0.12229 0.0
O75 O 0.50296 0.61323 1.00239 0.0
C76 C 0.68494 0.6357 0.0327 0.0
O77 O 0.70021 0.66571 0.0791 0.0
H78 H 0.55959 0.71536 1.00639 0.0
H79 H 0.63669 0.71561 0.154 0.0
N80 N 0.58176 0.59913 0.08904 0.0
N81 N 0.56324 0.53113 0.10824 0.0
C82 C 0.54997 0.55342 0.07351 0.0
C83 C 0.61674 0.60651 0.13561 0.0
C84 C 0.60529 0.56455 0.14763 0.0
C85 C 0.47155 0.62678 0.02763 0.0
O86 O 0.49464 0.65373 0.07558 0.0
H87 H 0.52057 0.53593 0.03547 0.0
H88 H 0.65029 0.63895 0.15781 0.0
O89 O 0.63306 0.61913 1.00738 0.0
H90 H 0.62666 0.8014 0.16036 0.0
H91 H 0.62779 0.5587 0.18175 0.0
Cu92 Cu 1.01032 0.49172 0.49294 0.0
N93 N 0.96708 0.42796 0.47746 0.0
N94 N 0.95069 0.35283 0.47966 0.0
C95 C 0.98967 0.39489 0.48953 0.0
C96 C 0.90137 0.3598 0.46031 0.0
C97 C 0.91155 0.40621 0.45934 0.0
O98 O 0.04925 0.5072 0.56592 0.0
C99 C 1.02144 0.47307 0.39703 0.0
O100 O 0.96845 0.45074 0.38816 0.0
H101 H 0.03414 0.40203 0.50596 0.0
H102 H 0.88058 0.42312 0.44768 0.0
N103 N 0.97163 0.53633 0.48731 0.0
N104 N 0.96276 0.60921 0.49605 0.0
C105 C 0.99532 0.58337 0.51165 0.0
C106 C 0.92213 0.532 0.45492 0.0
C107 C 0.91648 0.57686 0.46032 0.0
C108 C 1.013 0.50292 0.58981 0.0
O109 O 0.96066 0.49579 0.56445 0.0
H110 H 0.03718 0.59844 0.53836 0.0
H111 H 0.89328 0.49896 0.42774 0.0
O112 O 0.05217 0.49407 0.44348 0.0
H113 H 0.86063 0.33379 0.4492 0.0
H114 H 0.88147 0.58496 0.43881 0.0
Cu115 Cu 0.58317 0.08602 0.52167 0.0
N116 N 0.60051 0.13376 0.4916 0.0
N117 N 0.60531 0.16572 0.4289 0.0
C118 C 0.57471 0.13236 0.4438 0.0
C119 C 0.6518 0.18949 0.46896 0.0
C120 C 0.64864 0.16979 0.50764 0.0
O121 O 0.62356 0.04109 0.50275 0.0
C122 C 0.46575 0.07635 0.4946 0.0
O123 O 0.48205 0.12129 0.49721 0.0
H124 H 0.53691 0.10461 0.41876 0.0
H125 H 0.68107 0.17901 0.5435 0.0
N126 N 0.61093 0.11187 0.5931 0.0
N127 N 0.61673 0.12776 0.67614 0.0
C128 C 0.58254 0.10893 0.62714 0.0
C129 C 0.66488 0.13291 0.62134 0.0
C130 C 0.66858 0.14301 0.67239 0.0
C131 C 0.64173 0.03598 0.46415 0.0
O132 O 0.62763 0.05757 0.43056 0.0
H133 H 0.53798 0.09165 0.61593 0.0
H134 H 0.6994 0.13919 0.60588 0.0
O135 O 0.5023 0.05487 0.50227 0.0
H136 H 0.68658 0.21758 0.46936 0.0
H137 H 0.70674 0.15997 0.70412 0.0
H138 H 0.95836 0.15031 0.49172 0.0
H139 H 0.11284 0.23574 0.61012 0.0
H140 H 0.09553 0.30779 0.59685 0.0
H141 H 0.03774 0.34696 0.55046 0.0
H142 H 0.88421 0.26176 0.43086 0.0
H143 H 0.90001 0.18962 0.44581 0.0
C144 C 0.98851 0.1846 0.51447 0.0
C145 C 0.03707 0.18712 0.55185 0.0
C146 C 0.97848 0.2262 0.50638 0.0
C147 C 0.07488 0.23228 0.58149 0.0
C148 C 0.06518 0.27369 0.57367 0.0
C149 C 1.0079 0.31267 0.52727 0.0
C150 C 0.95991 0.31014 0.48925 0.0
C151 C 1.01735 0.27112 0.53598 0.0
C152 C 0.92125 0.26512 0.46057 0.0
C153 C 0.93043 0.2237 0.46895 0.0
H154 H 0.84171 0.95292 0.50741 0.0
H155 H 0.88591 1.02038 0.39865 0.0
H156 H 0.796 0.03667 0.38053 0.0
H157 H 0.71133 0.04155 0.4051 0.0
H158 H 0.67204 0.97861 0.51881 0.0
H159 H 0.75361 0.95064 0.52543 0.0
C160 C 0.83134 0.97048 0.47901 0.0
C161 C 0.87067 0.98584 0.45475 0.0
C162 C 0.78075 0.9811 0.47028 0.0
C163 C 0.85633 1.00802 0.41768 0.0
C164 C 0.80515 1.01776 0.40777 0.0
C165 C 0.71998 1.02093 0.43063 0.0
C166 C 0.6858 1.01261 0.46185 0.0
C167 C 0.76796 1.00597 0.43524 0.0
C168 C 0.69779 0.9859 0.49472 0.0
C169 C 0.7445 0.96992 0.49856 0.0
H170 H 0.92524 0.66337 0.44103 0.0
H171 H 0.03309 0.67172 0.58664 0.0
H172 H 0.06115 0.75832 0.61211 0.0
H173 H 0.05678 0.83211 0.59257 0.0
H174 H 0.94762 0.82368 0.44749 0.0
H175 H 0.9187 0.73719 0.42255 0.0
C176 C 0.95436 0.68401 0.47857 0.0
C177 C 0.97705 0.66062 0.51168 0.0
C178 C 0.9705 0.7341 0.49308 0.0
C179 C 1.01542 0.68842 0.55996 0.0
C180 C 0.03138 0.73812 0.57471 0.0
C181 C 0.02627 0.81149 0.55569 0.0
C182 C 1.00486 0.83492 0.522 0.0
C183 C 1.00948 0.76142 0.54149 0.0
C184 C 0.96576 0.80709 0.47405 0.0
C185 C 0.9488 0.7574 0.45979 0.0
H186 H 0.37461 0.10368 0.45855 0.0
H187 H 0.42248 0.99555 0.51636 0.0
H188 H 0.32666 0.96111 0.51487 0.0
H189 H 0.23125 0.96542 0.504 0.0
H190 H 0.18164 0.07211 0.44486 0.0
H191 H 0.27574 0.10281 0.43913 0.0
C192 C 0.36396 0.0723 0.47037 0.0
C193 C 0.40606 0.05257 0.48806 0.0
C194 C 0.30841 0.05241 0.46918 0.0
C195 C 0.39121 1.01157 0.50263 0.0
C196 C 0.33634 0.99189 0.50194 0.0
C197 C 0.24073 0.99501 0.48915 0.0
C198 C 0.19946 1.01666 0.47525 0.0
C199 C 0.29489 1.01254 0.48625 0.0
C200 C 0.21241 0.05465 0.45564 0.0
C201 C 0.26642 0.07245 0.45277 0.0
H202 H 0.6795 0.18192 0.37698 0.0
H203 H 0.50555 0.15705 0.36658 0.0
H204 H 0.48325 0.15645 0.27761 0.0
H205 H 0.51181 0.1583 0.20247 0.0
H206 H 0.68435 0.17867 0.20853 0.0
H207 H 0.70913 0.18661 0.30025 0.0
C208 C 0.63697 0.17716 0.35531 0.0
C209 C 0.59402 0.16957 0.37809 0.0
C210 C 0.62436 0.17586 0.3037 0.0
C211 C 0.53895 0.16265 0.34956 0.0
C212 C 0.52632 0.16237 0.29886 0.0
C213 C 0.55506 0.16466 0.2236 0.0
C214 C 0.59616 0.16751 0.19849 0.0
C215 C 0.56849 0.16812 0.27542 0.0
C216 C 0.65193 0.17627 0.22691 0.0
C217 C 0.66599 0.18063 0.27924 0.0
H218 H 0.09643 0.52437 0.21397 0.0
H219 H 0.98165 0.38375 0.13293 0.0
H220 H 0.96718 0.37455 0.21269 0.0
H221 H 0.98401 0.40724 0.30446 0.0
H222 H 0.10111 0.54634 0.38862 0.0
H223 H 0.11911 0.5552 0.30926 0.0
C224 C 0.0683 0.4919 0.21413 0.0
C225 C 0.03966 0.45485 0.16765 0.0
C226 C 0.06117 0.48646 0.26068 0.0
C227 C 1.00401 0.41259 0.16822 0.0
C228 C 0.99579 0.40734 0.21378 0.0
C229 C 1.0141 0.4393 0.30563 0.0
C230 C 0.04112 0.4761 0.35232 0.0
C231 C 0.02387 0.44405 0.26011 0.0
C232 C 0.08021 0.51729 0.35326 0.0
C233 C 0.08998 0.52252 0.30776 0.0
H234 H 0.68422 0.13822 0.77045 0.0
H235 H 0.51422 0.12168 0.68729 0.0
H236 H 0.48704 0.12253 0.76402 0.0
H237 H 0.5106 0.12755 0.85404 0.0
H238 H 0.6803 0.14656 0.93952 0.0
H239 H 0.70871 0.1461 0.86252 0.0
C240 C 0.64134 0.13532 0.76901 0.0
C241 C 0.60136 0.12955 0.72247 0.0
C242 C 0.62592 0.13641 0.81376 0.0
C243 C 0.54585 0.12529 0.72185 0.0
C244 C 0.53024 0.1261 0.76596 0.0
C245 C 0.55393 0.13162 0.8561 0.0
C246 C 0.59323 0.13685 0.90257 0.0
C247 C 0.56981 0.13143 0.81196 0.0
C248 C 0.64919 0.14247 0.90432 0.0
C249 C 0.66538 0.14211 0.86025 0.0
H250 H 0.94317 0.44692 0.62221 0.0
H251 H 0.10874 0.54687 0.67351 0.0
H252 H 0.12008 0.54187 0.76089 0.0
H253 H 0.07972 0.51109 0.82314 0.0
H254 H 0.91393 0.41043 0.7676 0.0
H255 H 0.90579 0.41374 0.68126 0.0
C256 C 0.98192 0.46772 0.65244 0.0
C257 C 0.02479 0.49777 0.64168 0.0
C258 C 0.98786 0.46456 0.70182 0.0
C259 C 0.07514 0.52354 0.68095 0.0
C260 C 0.08138 0.52083 0.73085 0.0
C261 C 0.0419 0.49002 0.79203 0.0
C262 C 0.99736 0.46056 0.8019 0.0
C263 C 0.03755 0.49193 0.7419 0.0
C264 C 0.94894 0.43292 0.76109 0.0
C265 C 0.94413 0.43498 0.7117 0.0
H266 H 0.21738 0.50787 0.94774 0.0
H267 H 0.21117 0.62785 0.06173 0.0
H268 H 0.30969 0.66815 0.07612 0.0
H269 H 0.39898 0.66599 0.06197 0.0
H270 H 0.40619 0.54596 0.94897 0.0
H271 H 0.30519 0.50922 0.92763 0.0
C272 C 0.23748 0.54297 0.97555 0.0
C273 C 0.20726 0.56456 1.00428 0.0
C274 C 0.29409 0.56585 0.98364 0.0
C275 C 0.23359 0.61036 0.03942 0.0
C276 C 0.28991 0.63337 0.04769 0.0
C277 C 0.37834 0.63203 0.03217 0.0
C278 C 0.40997 0.6084 1.00743 0.0
C279 C 0.32076 0.61097 0.02083 0.0
C280 C 0.38267 0.56483 0.96844 0.0
C281 C 0.32507 0.54369 0.95659 0.0
H282 H 0.61768 0.47723 0.15013 0.0
H283 H 0.46197 0.47047 0.047 0.0
H284 H 0.43143 0.38396 0.02369 0.0
H285 H 0.4518 0.30964 0.02796 0.0
H286 H 0.60659 0.31728 0.13337 0.0
H287 H 0.63421 0.40358 0.16035 0.0
C288 C 0.57664 0.45703 0.12333 0.0
C289 C 0.54263 0.48059 0.09993 0.0
C290 C 0.55927 0.40713 0.10992 0.0
C291 C 0.48962 0.4534 0.0649 0.0
C292 C 0.47197 0.40382 0.05161 0.0
C293 C 0.49117 0.33013 0.05732 0.0
C294 C 0.5274 0.30663 0.07765 0.0
C295 C 0.50692 0.38017 0.07308 0.0
C296 C 0.5784 0.33407 0.11577 0.0
C297 C 0.59418 0.38364 0.13164 0.0
H298 H 0.82971 0.51748 0.94303 0.0
H299 H 0.96115 0.62343 0.07163 0.0
H300 H 0.89445 0.66428 0.09189 0.0
H301 H 0.79783 0.66695 0.07635 0.0
H302 H 0.66643 0.56087 0.94777 0.0
H303 H 0.73436 0.52339 0.9239 0.0
C304 C 0.84394 0.54965 0.97538 0.0
C305 C 0.90037 0.56706 1.00609 0.0
C306 C 0.80535 0.57293 0.9868 0.0
C307 C 0.91804 0.60913 0.04745 0.0
C308 C 0.87985 0.63246 0.0591 0.0
C309 C 0.78402 0.6359 0.04276 0.0
C310 C 0.72688 0.61659 0.01412 0.0
C311 C 0.82326 0.61427 0.02951 0.0
C312 C 0.71 0.57653 0.97053 0.0
C313 C 0.74884 0.55492 0.957 0.0
H314 H 0.62768 0.86643 0.13081 0.0
H315 H 0.50697 0.76324 0.99296 0.0
H316 H 0.47509 0.82586 0.96851 0.0
H317 H 0.48204 0.91064 0.98529 0.0
H318 H 0.60017 1.013 0.12483 0.0
H319 H 0.63161 0.95018 0.14953 0.0
C320 C 0.59408 0.8574 0.09564 0.0
C321 C 0.57048 0.80985 0.06379 0.0
C322 C 0.5752 0.89366 0.08191 0.0
C323 C 0.52715 0.79935 0.01802 0.0
C324 C 0.50835 0.83525 1.00406 0.0
C325 C 0.51418 0.91912 0.02134 0.0
C326 C 0.53902 0.96673 0.05272 0.0
C327 C 0.53217 0.8826 0.03558 0.0
C328 C 0.581 0.97695 0.09925 0.0
C329 C 0.59891 0.94093 0.11363 0.0
loop_
_geom_bond_atom_site_label_1
_geom_bond_atom_site_label_2
_geom_bond_distance
_geom_bond_site_symmetry_2
_ccdc_geom_bond_type
Cu0 N1 1.999 . S
Cu0 O6 1.974 1_455 S
Cu0 N11 1.985 1_445 S
Cu0 O20 1.959 . S
N1 Cu0 1.999 . S
N1 C3 1.263 . S
N1 C5 1.389 . S
N2 C3 1.358 . S
N2 C4 1.400 . S
C3 N1 1.263 . S
C3 N2 1.358 . S
C3 H9 0.930 1_455 S
C4 N2 1.400 . S
C4 C5 1.351 . S
C4 H21 0.930 . S
C5 N1 1.389 . S
C5 C4 1.351 . S
C5 H10 0.930 . S
O6 Cu0 1.974 1_655 S
O6 C16 1.282 . S
C7 O8 1.261 . S
C7 O20 1.251 . S
O8 C7 1.261 . S
H9 C3 0.930 1_655 S
H10 C5 0.930 . S
N11 Cu0 1.985 1_665 S
N11 C13 1.335 1_655 S
N11 C14 1.390 . S
N12 C13 1.345 . S
N12 C15 1.336 1_455 S
C13 N11 1.335 1_455 S
C13 N12 1.345 . S
C13 H18 0.930 . S
C14 N11 1.390 . S
C14 C15 1.346 . S
C14 H19 0.930 . S
C15 N12 1.336 1_655 S
C15 C14 1.346 . S
C15 H22 0.929 . S
C16 O6 1.282 . S
C16 O17 1.216 . S
O17 C16 1.216 . S
H18 C13 0.930 . S
H19 C14 0.930 . S
O20 Cu0 1.959 . S
O20 C7 1.251 . S
H21 C4 0.930 . S
H22 C15 0.929 . S
Cu23 N24 1.999 1_545 S
Cu23 O29 1.974 . S
Cu23 N34 1.985 . S
Cu23 O43 1.959 1_554 S
N24 Cu23 1.999 1_565 S
N24 C26 1.263 . S
N24 C28 1.389 1_554 S
N25 C26 1.358 . S
N25 C27 1.400 1_554 S
C26 N24 1.263 . S
C26 N25 1.358 . S
C26 H32 0.930 . S
C27 N25 1.400 1_556 S
C27 C28 1.351 . S
C27 H44 0.930 . S
C28 N24 1.389 1_556 S
C28 C27 1.351 . S
C28 H33 0.930 . S
O29 Cu23 1.974 . S
O29 C39 1.282 . S
C30 O31 1.261 . S
C30 O43 1.251 . S
O31 C30 1.261 . S
H32 C26 0.930 . S
H33 C28 0.930 . S
N34 Cu23 1.985 . S
N34 C36 1.335 . S
N34 C37 1.390 . S
N35 C36 1.345 . S
N35 C38 1.336 . S
C36 N34 1.335 . S
C36 N35 1.345 . S
C36 H41 0.930 1_554 S
C37 N34 1.390 . S
C37 C38 1.346 . S
C37 H42 0.930 . S
C38 N35 1.336 . S
C38 C37 1.346 . S
C38 H45 0.929 . S
C39 O29 1.282 . S
C39 O40 1.216 . S
O40 C39 1.216 . S
H41 C36 0.930 1_556 S
H42 C37 0.930 . S
O43 Cu23 1.959 1_556 S
O43 C30 1.251 . S
H44 C27 0.930 . S
H45 C38 0.929 . S
Cu46 N47 1.999 1_554 S
Cu46 O52 1.974 . S
Cu46 N57 1.985 . S
Cu46 O66 1.959 1_455 S
N47 Cu46 1.999 1_556 S
N47 C49 1.263 . S
N47 C51 1.389 1_455 S
N48 C49 1.358 . S
N48 C50 1.400 1_455 S
C49 N47 1.263 . S
C49 N48 1.358 . S
C49 H55 0.930 . S
C50 N48 1.400 1_655 S
C50 C51 1.351 . S
C50 H67 0.930 . S
C51 N47 1.389 1_655 S
C51 C50 1.351 . S
C51 H56 0.930 . S
O52 Cu46 1.974 . S
O52 C62 1.282 . S
C53 O54 1.261 1_554 S
C53 O66 1.251 . S
O54 C53 1.261 1_556 S
H55 C49 0.930 . S
H56 C51 0.930 . S
N57 Cu46 1.985 . S
N57 C59 1.335 . S
N57 C60 1.390 . S
N58 C59 1.345 . S
N58 C61 1.336 . S
C59 N57 1.335 . S
C59 N58 1.345 . S
C59 H64 0.930 1_455 S
C60 N57 1.390 . S
C60 C61 1.346 . S
C60 H65 0.930 . S
C61 N58 1.336 . S
C61 C60 1.346 . S
C61 H68 0.929 . S
C62 O52 1.282 . S
C62 O63 1.216 1_554 S
O63 C62 1.216 1_556 S
H64 C59 0.930 1_655 S
H65 C60 0.930 . S
O66 Cu46 1.959 1_655 S
O66 C53 1.251 . S
H67 C50 0.930 . S
H68 C61 0.929 . S
Cu69 N70 1.999 . S
Cu69 O75 1.974 . S
Cu69 N80 1.985 . S
Cu69 O89 1.959 . S
N70 Cu69 1.999 . S
N70 C72 1.263 . S
N70 C74 1.389 . S
N71 C72 1.358 . S
N71 C73 1.400 . S
C72 N70 1.263 . S
C72 N71 1.358 . S
C72 H78 0.930 1_556 S
C73 N71 1.400 . S
C73 C74 1.351 . S
C73 H90 0.930 . S
C74 N70 1.389 . S
C74 C73 1.351 . S
C74 H79 0.930 . S
O75 Cu69 1.974 . S
O75 C85 1.282 1_556 S
C76 O77 1.261 . S
C76 O89 1.251 1_554 S
O77 C76 1.261 . S
H78 C72 0.930 1_554 S
H79 C74 0.930 . S
N80 Cu69 1.985 . S
N80 C82 1.335 . S
N80 C83 1.390 1_556 S
N81 C82 1.345 . S
N81 C84 1.336 1_556 S
C82 N80 1.335 . S
C82 N81 1.345 . S
C82 H87 0.930 . S
C83 N80 1.390 1_554 S
C83 C84 1.346 . S
C83 H88 0.930 . S
C84 N81 1.336 1_554 S
C84 C83 1.346 . S
C84 H91 0.929 . S
C85 O75 1.282 1_554 S
C85 O86 1.216 . S
O86 C85 1.216 . S
H87 C82 0.930 . S
H88 C83 0.930 . S
O89 Cu69 1.959 . S
O89 C76 1.251 1_556 S
H90 C73 0.930 . S
H91 C84 0.929 . S
Cu92 N93 1.999 . S
Cu92 O98 1.974 . S
Cu92 N103 1.985 . S
Cu92 O112 1.959 . S
N93 Cu92 1.999 . S
N93 C95 1.263 . S
N93 C97 1.389 . S
N94 C95 1.358 . S
N94 C96 1.400 . S
C95 N93 1.263 . S
C95 N94 1.358 . S
C95 H101 0.930 . S
C96 N94 1.400 . S
C96 C97 1.351 . S
C96 H113 0.930 . S
C97 N93 1.389 . S
C97 C96 1.351 . S
C97 H102 0.930 . S
O98 Cu92 1.974 . S
O98 C108 1.282 . S
C99 O100 1.261 1_455 S
C99 O112 1.251 . S
O100 C99 1.261 1_655 S
H101 C95 0.930 . S
H102 C97 0.930 . S
N103 Cu92 1.985 . S
N103 C105 1.335 . S
N103 C106 1.390 . S
N104 C105 1.345 . S
N104 C107 1.336 . S
C105 N103 1.335 . S
C105 N104 1.345 . S
C105 H110 0.930 . S
C106 N103 1.390 . S
C106 C107 1.346 . S
C106 H111 0.930 . S
C107 N104 1.336 . S
C107 C106 1.346 . S
C107 H114 0.929 1_455 S
C108 O98 1.282 . S
C108 O109 1.216 1_455 S
O109 C108 1.216 1_655 S
H110 C105 0.930 . S
H111 C106 0.930 . S
O112 Cu92 1.959 . S
O112 C99 1.251 . S
H113 C96 0.930 . S
H114 C107 0.929 1_655 S
Cu115 N116 1.999 . S
Cu115 O121 1.974 . S
Cu115 N126 1.985 . S
Cu115 O135 1.959 . S
N116 Cu115 1.999 . S
N116 C118 1.263 . S
N116 C120 1.389 . S
N117 C118 1.358 . S
N117 C119 1.400 . S
C118 N116 1.263 . S
C118 N117 1.358 . S
C118 H124 0.930 . S
C119 N117 1.400 . S
C119 C120 1.351 . S
C119 H136 0.930 . S
C120 N116 1.389 . S
C120 C119 1.351 . S
C120 H125 0.930 . S
O121 Cu115 1.974 . S
O121 C131 1.282 . S
C122 O123 1.261 1_545 S
C122 O135 1.251 . S
O123 C122 1.261 1_565 S
H124 C118 0.930 . S
H125 C120 0.930 . S
N126 Cu115 1.985 . S
N126 C128 1.335 . S
N126 C129 1.390 . S
N127 C128 1.345 . S
N127 C130 1.336 . S
C128 N126 1.335 . S
C128 N127 1.345 . S
C128 H133 0.930 . S
C129 N126 1.390 . S
C129 C130 1.346 . S
C129 H134 0.930 . S
C130 N127 1.336 . S
C130 C129 1.346 . S
C130 H137 0.929 . S
C131 O121 1.282 . S
C131 O132 1.216 1_545 S
O132 C131 1.216 1_565 S
H133 C128 0.930 . S
H134 C129 0.930 . S
O135 Cu115 1.959 . S
O135 C122 1.251 . S
H136 C119 0.930 . S
H137 C130 0.929 . S
H138 C144 0.930 . S
H139 C147 0.930 1_655 S
H140 C148 0.930 1_655 S
H141 C149 0.930 . S
H142 C152 0.930 . S
H143 C153 0.930 . S
C144 H138 0.930 . S
C144 C145 1.355 . S
C144 C146 1.415 . S
C145 C144 1.355 . S
C145 C147 1.419 . S
C146 C144 1.415 . S
C146 C151 1.425 . S
C146 C153 1.409 . S
C147 H139 0.930 1_455 S
C147 C145 1.419 . S
C147 C148 1.362 . S
C148 H140 0.930 1_455 S
C148 C147 1.362 . S
C148 C151 1.409 . S
C149 H141 0.930 . S
C149 C150 1.355 . S
C149 C151 1.415 . S
C150 C149 1.355 . S
C150 C152 1.419 . S
C151 C146 1.425 . S
C151 C148 1.409 . S
C151 C149 1.415 . S
C152 H142 0.930 . S
C152 C150 1.419 . S
C152 C153 1.362 . S
C153 H143 0.930 . S
C153 C146 1.409 . S
C153 C152 1.362 . S
H154 C160 0.930 1_565 S
H155 C163 0.930 . S
H156 C164 0.930 . S
H157 C165 0.930 . S
H158 C168 0.930 . S
H159 C169 0.930 . S
C160 H154 0.930 1_545 S
C160 C161 1.355 . S
C160 C162 1.415 . S
C161 C160 1.355 . S
C161 C163 1.419 . S
C162 C160 1.415 . S
C162 C167 1.425 . S
C162 C169 1.409 1_545 S
C163 H155 0.930 . S
C163 C161 1.419 . S
C163 C164 1.362 . S
C164 H156 0.930 . S
C164 C163 1.362 . S
C164 C167 1.409 . S
C165 H157 0.930 . S
C165 C166 1.355 . S
C165 C167 1.415 . S
C166 C165 1.355 . S
C166 C168 1.419 1_545 S
C167 C162 1.425 . S
C167 C164 1.409 . S
C167 C165 1.415 . S
C168 H158 0.930 . S
C168 C166 1.419 1_565 S
C168 C169 1.362 . S
C169 H159 0.930 . S
C169 C162 1.409 1_565 S
C169 C168 1.362 . S
H170 C176 0.930 1_655 S
H171 C179 0.930 . S
H172 C180 0.930 . S
H173 C181 0.930 . S
H174 C184 0.930 . S
H175 C185 0.930 . S
C176 H170 0.930 1_455 S
C176 C177 1.355 . S
C176 C178 1.415 . S
C177 C176 1.355 . S
C177 C179 1.419 . S
C178 C176 1.415 . S
C178 C183 1.425 . S
C178 C185 1.409 1_455 S
C179 H171 0.930 . S
C179 C177 1.419 . S
C179 C180 1.362 . S
C180 H172 0.930 . S
C180 C179 1.362 . S
C180 C183 1.409 . S
C181 H173 0.930 . S
C181 C182 1.355 . S
C181 C183 1.415 . S
C182 C181 1.355 . S
C182 C184 1.419 1_455 S
C183 C178 1.425 . S
C183 C180 1.409 . S
C183 C181 1.415 . S
C184 H174 0.930 . S
C184 C182 1.419 1_655 S
C184 C185 1.362 . S
C185 H175 0.930 . S
C185 C178 1.409 1_655 S
C185 C184 1.362 . S
H186 C192 0.930 . S
H187 C195 0.930 . S
H188 C196 0.930 . S
H189 C197 0.930 . S
H190 C200 0.930 . S
H191 C201 0.930 . S
C192 H186 0.930 . S
C192 C193 1.355 . S
C192 C194 1.415 . S
C193 C192 1.355 . S
C193 C195 1.419 . S
C194 C192 1.415 . S
C194 C199 1.425 . S
C194 C201 1.409 . S
C195 H187 0.930 . S
C195 C193 1.419 . S
C195 C196 1.362 . S
C196 H188 0.930 . S
C196 C195 1.362 . S
C196 C199 1.409 . S
C197 H189 0.930 . S
C197 C198 1.355 . S
C197 C199 1.415 . S
C198 C197 1.355 . S
C198 C200 1.419 . S
C199 C194 1.425 . S
C199 C196 1.409 . S
C199 C197 1.415 . S
C200 H190 0.930 . S
C200 C198 1.419 . S
C200 C201 1.362 . S
C201 H191 0.930 . S
C201 C194 1.409 . S
C201 C200 1.362 . S
H202 C208 0.930 . S
H203 C211 0.930 . S
H204 C212 0.930 1_565 S
H205 C213 0.930 1_565 S
H206 C216 0.930 . S
H207 C217 0.930 . S
C208 H202 0.930 . S
C208 C209 1.355 . S
C208 C210 1.415 . S
C209 C208 1.355 . S
C209 C211 1.419 . S
C210 C208 1.415 . S
C210 C215 1.425 . S
C210 C217 1.409 . S
C211 H203 0.930 . S
C211 C209 1.419 . S
C211 C212 1.362 . S
C212 H204 0.930 1_545 S
C212 C211 1.362 . S
C212 C215 1.409 . S
C213 H205 0.930 1_545 S
C213 C214 1.355 . S
C213 C215 1.415 . S
C214 C213 1.355 . S
C214 C216 1.419 . S
C215 C210 1.425 . S
C215 C212 1.409 . S
C215 C213 1.415 . S
C216 H206 0.930 . S
C216 C214 1.419 . S
C216 C217 1.362 . S
C217 H207 0.930 . S
C217 C210 1.409 . S
C217 C216 1.362 . S
H218 C224 0.930 . S
H219 C227 0.930 . S
H220 C228 0.930 . S
H221 C229 0.930 . S
H222 C232 0.930 . S
H223 C233 0.930 . S
C224 H218 0.930 . S
C224 C225 1.355 1_655 S
C224 C226 1.415 . S
C225 C224 1.355 1_455 S
C225 C227 1.419 . S
C226 C224 1.415 . S
C226 C231 1.425 1_655 S
C226 C233 1.409 . S
C227 H219 0.930 . S
C227 C225 1.419 . S
C227 C228 1.362 . S
C228 H220 0.930 . S
C228 C227 1.362 . S
C228 C231 1.409 . S
C229 H221 0.930 . S
C229 C230 1.355 . S
C229 C231 1.415 . S
C230 C229 1.355 . S
C230 C232 1.419 1_455 S
C231 C226 1.425 1_455 S
C231 C228 1.409 . S
C231 C229 1.415 . S
C232 H222 0.930 . S
C232 C230 1.419 1_655 S
C232 C233 1.362 . S
C233 H223 0.930 . S
C233 C226 1.409 . S
C233 C232 1.362 . S
H234 C240 0.930 1_565 S
H235 C243 0.930 . S
H236 C244 0.930 . S
H237 C245 0.930 . S
H238 C248 0.930 . S
H239 C249 0.930 . S
C240 H234 0.930 1_545 S
C240 C241 1.355 . S
C240 C242 1.415 . S
C241 C240 1.355 . S
C241 C243 1.419 . S
C242 C240 1.415 . S
C242 C247 1.425 . S
C242 C249 1.409 1_545 S
C243 H235 0.930 . S
C243 C241 1.419 . S
C243 C244 1.362 . S
C244 H236 0.930 . S
C244 C243 1.362 . S
C244 C247 1.409 . S
C245 H237 0.930 . S
C245 C246 1.355 . S
C245 C247 1.415 . S
C246 C245 1.355 . S
C246 C248 1.419 1_545 S
C247 C242 1.425 . S
C247 C244 1.409 . S
C247 C245 1.415 . S
C248 H238 0.930 . S
C248 C246 1.419 1_565 S
C248 C249 1.362 . S
C249 H239 0.930 . S
C249 C242 1.409 1_565 S
C249 C248 1.362 . S
H250 C256 0.930 . S
H251 C259 0.930 . S
H252 C260 0.930 . S
H253 C261 0.930 . S
H254 C264 0.930 . S
H255 C265 0.930 . S
C256 H250 0.930 . S
C256 C257 1.355 1_655 S
C256 C258 1.415 . S
C257 C256 1.355 1_455 S
C257 C259 1.419 . S
C258 C256 1.415 . S
C258 C263 1.425 1_655 S
C258 C265 1.409 . S
C259 H251 0.930 . S
C259 C257 1.419 . S
C259 C260 1.362 . S
C260 H252 0.930 . S
C260 C259 1.362 . S
C260 C263 1.409 . S
C261 H253 0.930 . S
C261 C262 1.355 . S
C261 C263 1.415 . S
C262 C261 1.355 . S
C262 C264 1.419 1_455 S
C263 C258 1.425 1_455 S
C263 C260 1.409 . S
C263 C261 1.415 . S
C264 H254 0.930 . S
C264 C262 1.419 1_655 S
C264 C265 1.362 . S
C265 H255 0.930 . S
C265 C258 1.409 . S
C265 C264 1.362 . S
H266 C272 0.930 . S
H267 C275 0.930 . S
H268 C276 0.930 . S
H269 C277 0.930 . S
H270 C280 0.930 . S
H271 C281 0.930 . S
C272 H266 0.930 . S
C272 C273 1.355 . S
C272 C274 1.415 . S
C273 C272 1.355 . S
C273 C275 1.419 1_554 S
C274 C272 1.415 . S
C274 C279 1.425 . S
C274 C281 1.409 . S
C275 H267 0.930 . S
C275 C273 1.419 1_556 S
C275 C276 1.362 . S
C276 H268 0.930 . S
C276 C275 1.362 . S
C276 C279 1.409 1_556 S
C277 H269 0.930 . S
C277 C278 1.355 . S
C277 C279 1.415 . S
C278 C277 1.355 . S
C278 C280 1.419 . S
C279 C274 1.425 . S
C279 C276 1.409 1_554 S
C279 C277 1.415 . S
C280 H270 0.930 . S
C280 C278 1.419 . S
C280 C281 1.362 . S
C281 H271 0.930 . S
C281 C274 1.409 . S
C281 C280 1.362 . S
H282 C288 0.930 . S
H283 C291 0.930 . S
H284 C292 0.930 . S
H285 C293 0.930 . S
H286 C296 0.930 . S
H287 C297 0.930 . S
C288 H282 0.930 . S
C288 C289 1.355 . S
C288 C290 1.415 1_556 S
C289 C288 1.355 . S
C289 C291 1.419 . S
C290 C288 1.415 1_554 S
C290 C295 1.425 . S
C290 C297 1.409 . S
C291 H283 0.930 . S
C291 C289 1.419 . S
C291 C292 1.362 1_556 S
C292 H284 0.930 . S
C292 C291 1.362 1_554 S
C292 C295 1.409 . S
C293 H285 0.930 . S
C293 C294 1.355 . S
C293 C295 1.415 . S
C294 C293 1.355 . S
C294 C296 1.419 . S
C295 C290 1.425 . S
C295 C292 1.409 . S
C295 C293 1.415 . S
C296 H286 0.930 . S
C296 C294 1.419 . S
C296 C297 1.362 . S
C297 H287 0.930 . S
C297 C290 1.409 . S
C297 C296 1.362 . S
H298 C304 0.932 . S
H299 C307 0.930 . S
H300 C308 0.930 . S
H301 C309 0.930 . S
H302 C312 0.930 1_556 S
H303 C313 0.930 . S
C304 H298 0.932 . S
C304 C305 1.360 1_556 S
C304 C306 1.407 1_556 S
C305 C304 1.360 1_554 S
C305 C307 1.419 . S
C306 C304 1.407 1_554 S
C306 C311 1.425 . S
C306 C313 1.409 1_554 S
C307 H299 0.930 . S
C307 C305 1.419 . S
C307 C308 1.362 . S
C308 H300 0.930 . S
C308 C307 1.362 . S
C308 C311 1.409 . S
C309 H301 0.930 . S
C309 C310 1.355 . S
C309 C311 1.415 . S
C310 C309 1.355 . S
C310 C312 1.419 . S
C311 C306 1.425 . S
C311 C308 1.409 . S
C311 C309 1.415 . S
C312 H302 0.930 1_554 S
C312 C310 1.419 . S
C312 C313 1.362 1_554 S
C313 H303 0.930 . S
C313 C306 1.409 1_556 S
C313 C312 1.362 1_556 S
H314 C320 0.930 . S
H315 C323 0.930 . S
H316 C324 0.930 . S
H317 C325 0.930 . S
H318 C328 0.930 . S
H319 C329 0.930 . S
C320 H314 0.930 . S
C320 C321 1.355 1_554 S
C320 C322 1.415 . S
C321 C320 1.355 1_556 S
C321 C323 1.419 . S
C322 C320 1.415 . S
C322 C327 1.425 1_554 S
C322 C329 1.409 . S
C323 H315 0.930 . S
C323 C321 1.419 . S
C323 C324 1.362 . S
C324 H316 0.930 . S
C324 C323 1.362 . S
C324 C327 1.409 . S
C325 H317 0.930 . S
C325 C326 1.355 1_556 S
C325 C327 1.415 . S
C326 C325 1.355 1_554 S
C326 C328 1.419 . S
C327 C322 1.425 1_556 S
C327 C324 1.409 . S
C327 C325 1.415 . S
C328 H318 0.930 . S
C328 C326 1.419 . S
C328 C329 1.362 . S
C329 H319 0.930 . S
C329 C322 1.409 . S
C329 C328 1.362 . S
C145 N2 1.514 . S
C150 N94 1.464 . S
C161 C16 1.479 . S
C166 C131 1.465 . S
C177 N104 1.464 . S
C182 N12 1.449 . S
C193 C122 1.519 . S
C198 C7 1.515 . S
C209 N117 1.447 . S
C214 C39 1.502 . S
C225 N58 1.450 . S
C230 C99 1.508 . S
C241 N127 1.498 . S
C246 C30 1.500 . S
C257 C108 1.503 . S
C262 N48 1.444 . S
C273 C62 1.468 . S
C278 C85 1.475 . S
C289 N81 1.437 . S
C294 N35 1.475 . S
C305 C53 1.512 . S
C310 C76 1.521 . S
C321 N71 1.485 . S
C326 N25 1.496 . S
