# Generated by pormake.
# Topology tfs, (6)-cn, num edge types: 1
# Building blocks:
#     Node 0, Type 0, BuildingBlock: JUFBIX_clean_sbu_0, # of connection points: 6
#     Node 1, Type 0, BuildingBlock: JUFBIX_clean_sbu_0, # of connection points: 6
#     Node 2, Type 0, BuildingBlock: JUFBIX_clean_sbu_0, # of connection points: 6
#     Node 3, Type 0, BuildingBlock: JUFBIX_clean_sbu_0, # of connection points: 6
#     Node 4, Type 0, BuildingBlock: JUFBIX_clean_sbu_0, # of connection points: 6
#     Node 5, Type 0, BuildingBlock: JUFBIX_clean_sbu_0, # of connection points: 6
#     Edge 6, Type (0, 0), BuildingBlock: ZUJKAS_clean_linker_0, # of connection points: 2
#     Edge 7, Type (0, 0), BuildingBlock: ZUJKAS_clean_linker_0, # of connection points: 2
#     Edge 8, Type (0, 0), BuildingBlock: ZUJKAS_clean_linker_0, # of connection points: 2
#     Edge 9, Type (0, 0), BuildingBlock: ZUJKAS_clean_linker_0, # of connection points: 2
#     Edge 10, Type (0, 0), BuildingBlock: ZUJKAS_clean_linker_0, # of connection points: 2
#     Edge 11, Type (0, 0), BuildingBlock: ZUJKAS_clean_linker_0, # of connection points: 2
#     Edge 12, Type (0, 0), BuildingBlock: ZUJKAS_clean_linker_0, # of connection points: 2
#     Edge 13, Type (0, 0), BuildingBlock: ZUJKAS_clean_linker_0, # of connection points: 2
#     Edge 14, Type (0, 0), BuildingBlock: ZUJKAS_clean_linker_0, # of connection points: 2
#     Edge 15, Type (0, 0), BuildingBlock: ZUJKAS_clean_linker_0, # of connection points: 2
#     Edge 16, Type (0, 0), BuildingBlock: ZUJKAS_clean_linker_0, # of connection points: 2
#     Edge 17, Type (0, 0), BuildingBlock: ZUJKAS_clean_linker_0, # of connection points: 2
#     Edge 18, Type (0, 0), BuildingBlock: ZUJKAS_clean_linker_0, # of connection points: 2
#     Edge 19, Type (0, 0), BuildingBlock: ZUJKAS_clean_linker_0, # of connection points: 2
#     Edge 20, Type (0, 0), BuildingBlock: ZUJKAS_clean_linker_0, # of connection points: 2
#     Edge 21, Type (0, 0), BuildingBlock: ZUJKAS_clean_linker_0, # of connection points: 2
#     Edge 22, Type (0, 0), BuildingBlock: ZUJKAS_clean_linker_0, # of connection points: 2
#     Edge 23, Type (0, 0), BuildingBlock: ZUJKAS_clean_linker_0, # of connection points: 2
# Relax obj value: 0.274
# Max RMSD: 0.213
# Mean RMSD: 0.174
data_MOF--net-tfs--node1-JUFBIX_clean_sbu_0--edge1-ZUJKAS_clean_linker_0
_symmetry_space_group_name_H-M    P1
_symmetry_Int_Tables_number       1
_symmetry_cell_setting            triclinic
loop_
_symmetry_equiv_pos_as_xyz
'x, y, z'
_cell_length_a     55.354924
_cell_length_b     58.824358
_cell_length_c     19.464488
_cell_angle_alpha  90.054778
_cell_angle_beta   92.440881
_cell_angle_gamma 114.22729
loop_
_atom_site_label
_atom_site_type_symbol
_atom_site_fract_x
_atom_site_fract_y
_atom_site_fract_z
_atom_type_partial_charge
Co0 Co 0.24529 0.40815 0.00699 0.0
C1 C 0.22106 0.39406 0.13375 0.0
Co2 Co 0.20216 0.38411 1.00038 0.0
C3 C 0.29411 0.45309 1.00173 0.0
C4 C 0.29947 0.42374 0.05592 0.0
N5 N 0.28116 0.42902 0.01968 0.0
N6 N 0.3197 0.46304 0.02574 0.0
C7 C 0.3231 0.44451 0.05952 0.0
H8 H 0.28482 0.46325 0.9727 0.0
H9 H 0.29564 0.4062 0.08057 0.0
C10 C 0.22652 0.39839 0.87358 0.0
N11 N 0.16634 0.36269 0.98703 0.0
C12 C 0.14416 0.36134 0.0171 0.0
C13 C 0.15751 0.34431 0.93856 0.0
N14 N 0.12199 0.34307 0.98813 0.0
C15 C 0.13043 0.3324 0.93887 0.0
C16 C 0.21337 0.43449 0.00344 0.0
O17 O 0.24764 0.41032 0.90998 0.0
O18 O 0.20516 0.38602 0.90328 0.0
O19 O 0.19398 0.41307 0.99922 0.0
O20 O 0.23685 0.43586 0.00839 0.0
O21 O 0.19975 0.38267 0.09741 0.0
H22 H 0.17002 0.33994 0.90451 0.0
H23 H 0.14419 0.3738 0.05809 0.0
O24 O 0.24262 0.40584 0.10406 0.0
O25 O 0.25337 0.3801 0.00491 0.0
O26 O 0.21102 0.35554 1.00171 0.0
C27 C 0.23507 0.35826 0.00293 0.0
H28 H 0.34105 0.44614 0.08771 0.0
H29 H 0.11784 0.31694 0.90558 0.0
Co30 Co 0.78786 0.22774 0.04968 0.0
C31 C 0.79571 0.25249 0.17973 0.0
Co32 Co 0.79765 0.26843 0.04853 0.0
C33 C 0.77803 0.17452 0.02379 0.0
C34 C 0.7606 0.18139 0.11315 0.0
N35 N 0.77586 0.19314 0.06081 0.0
N36 N 0.76515 0.15194 0.05245 0.0
C37 C 0.75425 0.15638 0.10849 0.0
H38 H 0.78871 0.17743 0.977 0.0
H39 H 0.75385 0.19033 0.15186 0.0
C40 C 0.78993 0.2439 0.91851 0.0
N41 N 0.80951 0.30288 0.03752 0.0
C42 C 0.80308 0.32052 0.06645 0.0
C43 C 0.82883 0.3156 0.99458 0.0
N44 N 0.81801 0.34365 0.04361 0.0
C45 C 0.8341 0.34043 0.99834 0.0
C46 C 0.84134 0.25476 0.05082 0.0
O47 O 0.78555 0.22412 0.95202 0.0
O48 O 0.79519 0.26423 0.95121 0.0
O49 O 0.83345 0.27223 0.05016 0.0
O50 O 0.82424 0.2322 0.05109 0.0
O51 O 0.79989 0.27219 0.14613 0.0
H52 H 0.83855 0.30728 0.96223 0.0
H53 H 0.78807 0.31655 0.10402 0.0
O54 O 0.79062 0.23221 0.14707 0.0
O55 O 0.75174 0.22385 0.04838 0.0
O56 O 0.76169 0.26403 0.04721 0.0
C57 C 0.74428 0.24165 0.04764 0.0
H58 H 0.74179 0.14234 0.14266 0.0
H59 H 0.8484 0.355 0.96891 0.0
Co60 Co 0.57586 0.77924 0.02778 0.0
C61 C 0.58803 0.80219 0.89914 0.0
Co62 Co 0.59689 0.8205 0.03091 0.0
C63 C 0.5363 0.72801 0.03879 0.0
C64 C 0.57028 0.73081 0.98483 0.0
N65 N 0.56001 0.74465 0.01827 0.0
N66 N 0.53156 0.70437 0.01973 0.0
C67 C 0.55297 0.70615 0.98589 0.0
H68 H 0.52278 0.73314 0.06697 0.0
H69 H 0.58898 0.73823 0.95992 0.0
C70 C 0.58473 0.79734 0.15966 0.0
N71 N 0.61264 0.85527 0.04103 0.0
C72 C 0.63264 0.87331 0.00883 0.0
C73 C 0.60542 0.86767 0.08869 0.0
N74 N 0.63828 0.89627 0.03579 0.0
C75 C 0.62116 0.89268 0.08591 0.0
C76 C 0.54093 0.80135 0.02276 0.0
O77 O 0.57371 0.77712 0.12476 0.0
O78 O 0.59596 0.81774 0.12846 0.0
O79 O 0.56221 0.82126 0.02747 0.0
O80 O 0.54253 0.78047 0.02042 0.0
O81 O 0.59761 0.82259 0.9337 0.0
H82 H 0.58973 0.85903 0.12384 0.0
H83 H 0.64322 0.86965 0.96772 0.0
O84 O 0.57815 0.78168 0.93061 0.0
O85 O 0.6094 0.77833 0.03625 0.0
O86 O 0.63121 0.81903 0.03449 0.0
C87 C 0.63128 0.79741 0.0382 0.0
H88 H 0.5556 0.6908 0.96171 0.0
H89 H 0.62004 0.90722 0.11807 0.0
Co90 Co 0.81301 0.63134 0.05732 0.0
C91 C 0.78865 0.61838 0.18377 0.0
Co92 Co 0.77011 0.60696 0.04999 0.0
C93 C 0.87077 0.65461 0.04093 0.0
C94 C 0.85666 0.67373 0.11171 0.0
N95 N 0.84845 0.65347 0.06958 0.0
N96 N 0.8924 0.675 0.0632 0.0
C97 C 0.88347 0.68694 0.10783 0.0
H98 H 0.87108 0.64106 0.00369 0.0
H99 H 0.84385 0.67868 0.14325 0.0
C100 C 0.7944 0.61978 0.9236 0.0
N101 N 0.73454 0.58556 0.03804 0.0
C102 C 0.72218 0.56179 0.05867 0.0
C103 C 0.71597 0.58974 0.99957 0.0
N104 N 0.69675 0.55092 0.03405 0.0
C105 C 0.69274 0.56856 0.99724 0.0
C106 C 0.77924 0.65654 0.04826 0.0
O107 O 0.81547 0.63189 0.96013 0.0
O108 O 0.77286 0.60784 0.95309 0.0
O109 O 0.76119 0.63459 0.04689 0.0
O110 O 0.80335 0.65949 0.05285 0.0
O111 O 0.76763 0.60618 0.14723 0.0
H112 H 0.71941 0.60673 0.97235 0.0
H113 H 0.73182 0.55244 0.08985 0.0
O114 O 0.81012 0.63047 0.15425 0.0
O115 O 0.82202 0.60275 0.06155 0.0
O116 O 0.77926 0.57953 0.0532 0.0
C117 C 0.80284 0.58117 0.05894 0.0
H118 H 0.89555 0.70389 0.13646 0.0
H119 H 0.67475 0.56595 0.96772 0.0
Co120 Co 0.21846 0.74602 0.04281 0.0
C121 C 0.22417 0.76908 0.17325 0.0
Co122 Co 0.22717 0.7863 0.0424 0.0
C123 C 0.21507 0.69508 0.01717 0.0
C124 C 0.18986 0.69802 0.09395 0.0
N125 N 0.20859 0.71182 0.0508 0.0
N126 N 0.20069 0.67148 0.03737 0.0
C127 C 0.18497 0.67341 0.08577 0.0
H128 H 0.22941 0.69998 0.97756 0.0
H129 H 0.17992 0.70536 0.12858 0.0
C130 C 0.22161 0.7634 0.91204 0.0
N131 N 0.23539 0.82021 0.0357 0.0
C132 C 0.25504 0.84014 0.06738 0.0
C133 C 0.22175 0.82996 0.9955 0.0
N134 N 0.25392 0.86188 0.04887 0.0
C135 C 0.23298 0.85544 0.00361 0.0
C136 C 0.27199 0.77518 0.04637 0.0
O137 O 0.21761 0.74364 0.94528 0.0
O138 O 0.22593 0.7835 0.9449 0.0
O139 O 0.26411 0.79274 0.04484 0.0
O140 O 0.25494 0.75263 0.04654 0.0
O141 O 0.2284 0.78881 0.1399 0.0
H142 H 0.20471 0.8192 0.96208 0.0
H143 H 0.26963 0.83871 0.1039 0.0
O144 O 0.21957 0.74895 0.14041 0.0
O145 O 0.18214 0.73966 0.03837 0.0
O146 O 0.1899 0.77918 0.03991 0.0
C147 C 0.17341 0.75646 0.0377 0.0
H148 H 0.17099 0.65805 0.11365 0.0
H149 H 0.22648 0.86829 0.97728 0.0
Co150 Co 0.41918 0.19585 0.05998 0.0
C151 C 0.43151 0.21941 0.93249 0.0
Co152 Co 0.44122 0.23688 0.06559 0.0
C153 C 0.39981 0.14156 0.08222 0.0
C154 C 0.37919 0.1519 1.00107 0.0
N155 N 0.39949 0.16157 0.04837 0.0
N156 N 0.3802 0.11997 0.05802 0.0
C157 C 0.36737 0.12654 0.00688 0.0
H158 H 0.41354 0.14285 0.1249 0.0
H159 H 0.37301 0.16271 0.96511 0.0
C160 C 0.42901 0.21344 0.19303 0.0
N161 N 0.45963 0.27109 0.07659 0.0
C162 C 0.48261 0.28678 0.05023 0.0
C163 C 0.45205 0.28574 0.11568 0.0
N164 N 0.48939 0.31063 0.07093 0.0
C165 C 0.47019 0.31 0.11204 0.0
C166 C 0.38703 0.22228 0.05951 0.0
O167 O 0.418 0.19333 0.15748 0.0
O168 O 0.44012 0.23399 0.16249 0.0
O169 O 0.40928 0.2408 0.06299 0.0
O170 O 0.38636 0.20042 0.05694 0.0
O171 O 0.44221 0.2395 0.9681 0.0
H172 H 0.43452 0.27916 0.14554 0.0
H173 H 0.494 0.28087 0.01621 0.0
O174 O 0.42071 0.19883 0.963 0.0
O175 O 0.45237 0.19201 0.06304 0.0
O176 O 0.47307 0.23287 0.0683 0.0
C177 C 0.47402 0.21167 0.06655 0.0
H178 H 0.35052 0.11383 0.97583 0.0
H179 H 0.4696 0.3259 0.13877 0.0
H180 H 0.38215 0.26254 0.11269 0.0
H181 H 0.34409 0.27318 0.10292 0.0
H182 H 0.29873 0.20384 0.99357 0.0
H183 H 0.33717 0.19278 0.00397 0.0
H184 H 0.30102 0.24912 0.92691 0.0
H185 H 0.27179 0.24523 0.19626 0.0
H186 H 0.30701 0.26091 0.18858 0.0
H187 H 0.29022 0.22834 0.1654 0.0
C188 C 0.36399 0.24931 0.0874 0.0
C189 C 0.36266 0.22684 0.0589 0.0
C190 C 0.34215 0.25535 0.08235 0.0
C191 C 0.31847 0.23917 0.04835 0.0
C192 C 0.31677 0.21644 0.02072 0.0
H193 H 0.20383 0.3092 0.03066 0.0
H194 H 0.21758 0.27433 0.03551 0.0
C195 C 0.33866 0.21014 0.02675 0.0
C196 C 0.29693 0.24774 0.03654 0.0
H197 H 0.26231 0.27425 0.12296 0.0
C198 C 0.29186 0.25393 0.96948 0.0
C199 C 0.2848 0.25382 0.09197 0.0
C200 C 0.28851 0.2465 0.16456 0.0
C201 C 0.277 0.26809 0.95731 0.0
C202 C 0.26715 0.27632 0.01363 0.0
C203 C 0.27008 0.26812 0.07985 0.0
C204 C 0.25768 0.29644 0.00639 0.0
C205 C 0.2732 0.27534 0.88469 0.0
C206 C 0.27572 0.32033 0.98903 0.0
C207 C 0.2681 0.34017 0.98712 0.0
C208 C 0.24218 0.33658 0.00222 0.0
C209 C 0.22389 0.31251 0.01848 0.0
C210 C 0.2317 0.29261 0.02128 0.0
H211 H 0.27452 0.26186 0.84662 0.0
H212 H 0.25372 0.27644 0.8767 0.0
H213 H 0.28903 0.29395 0.87477 0.0
H214 H 0.29599 0.32379 0.97855 0.0
H215 H 0.28269 0.35843 0.9743 0.0
H216 H 0.08077 0.33121 0.89663 0.0
H217 H 0.03379 0.31506 0.92053 0.0
H218 H 0.05397 0.32131 0.13843 0.0
H219 H 0.10137 0.33841 0.11405 0.0
H220 H 1.00453 0.27331 0.98089 0.0
H221 H 1.00198 0.35269 0.13031 0.0
H222 H 0.03048 0.35529 0.08396 0.0
H223 H 0.0245 0.34046 0.16608 0.0
C224 C 0.07516 0.32943 0.94964 0.0
C225 C 0.09465 0.33609 0.00352 0.0
C226 C 0.04831 0.32012 0.96332 0.0
C227 C 0.04017 0.31699 0.03131 0.0
C228 C 0.05965 0.32399 0.08553 0.0
H229 H 0.86867 0.22608 0.08704 0.0
H230 H 0.91699 0.23909 0.09057 0.0
C231 C 0.08672 0.33374 0.07171 0.0
C232 C 0.01124 0.30564 0.04398 0.0
H233 H 0.96203 0.31661 0.1177 0.0
C234 C 0.99524 0.28275 0.01107 0.0
C235 C 0.99906 0.31793 0.08324 0.0
C236 C 0.01481 0.34304 0.11745 0.0
C237 C 0.96746 0.2723 0.01407 0.0
C238 C 0.95526 0.28464 0.05302 0.0
C239 C 0.97134 0.30707 0.08805 0.0
C240 C 0.92588 0.27616 0.05261 0.0
C241 C 0.95146 0.24881 0.97255 0.0
C242 C 0.91473 0.29272 0.03168 0.0
C243 C 0.88737 0.2855 0.03086 0.0
C244 C 0.87027 0.26142 0.05043 0.0
C245 C 0.88129 0.24466 0.07101 0.0
C246 C 0.90891 0.25207 0.07277 0.0
H247 H 0.96334 0.24515 0.93288 0.0
H248 H 0.9446 0.23269 0.00736 0.0
H249 H 0.93375 0.24994 0.94652 0.0
H250 H 0.92725 0.31133 0.01556 0.0
H251 H 0.87962 0.2989 0.01444 0.0
H252 H 0.75596 0.13334 0.92107 0.0
H253 H 0.74175 0.08918 0.88675 0.0
H254 H 0.75119 0.07115 0.09814 0.0
H255 H 0.76579 0.11487 0.13169 0.0
H256 H 0.76764 0.0447 0.00865 0.0
H257 H 0.66732 0.03843 0.92686 0.0
H258 H 0.69505 0.0607 0.88396 0.0
H259 H 0.69137 0.06522 0.97351 0.0
C260 C 0.75561 0.11996 0.9596 0.0
C261 C 0.7617 0.12745 0.02914 0.0
C262 C 0.74719 0.09472 0.94021 0.0
C263 C 0.74482 0.07668 0.99013 0.0
C264 C 0.75266 0.08457 0.05866 0.0
H265 H 0.67086 0.93191 0.12351 0.0
H266 H 0.7001 0.97473 0.09639 0.0
C267 C 0.76093 0.10958 0.07789 0.0
C268 C 0.73254 0.04939 0.97376 0.0
H269 H 0.67247 1.00104 0.93618 0.0
C270 C 0.74697 0.0352 0.99136 0.0
C271 C 0.70554 0.03687 0.95112 0.0
C272 C 0.68875 0.05095 0.9331 0.0
C273 C 0.73482 0.00899 0.9907 0.0
C274 C 0.70746 0.99656 0.97245 0.0
C275 C 0.69346 0.01061 0.9501 0.0
C276 C 0.69223 0.96964 0.98633 0.0
C277 C 0.75112 0.99479 0.01218 0.0
C278 C 0.67814 0.95236 0.93343 0.0
C279 C 0.66154 0.92764 0.94902 0.0
C280 C 0.65835 0.9201 0.01779 0.0
C281 C 0.67301 0.93728 0.07015 0.0
C282 C 0.68981 0.9617 0.05463 0.0
H283 H 0.77251 1.00581 0.00394 0.0
H284 H 0.74893 0.99077 0.06782 0.0
H285 H 0.74433 0.97678 0.98334 0.0
H286 H 0.67951 0.95815 0.88042 0.0
H287 H 0.65018 0.9148 0.90791 0.0
H288 H 0.73061 0.65538 0.01388 0.0
H289 H 0.71745 0.6901 0.00844 0.0
H290 H 0.79736 0.74133 0.06725 0.0
H291 H 0.81094 0.70638 0.07256 0.0
H292 H 0.75592 0.7462 0.14464 0.0
H293 H 0.7354 0.74585 0.86391 0.0
H294 H 0.72075 0.71527 0.89945 0.0
H295 H 0.75628 0.73183 0.90178 0.0
C296 C 0.74553 0.67401 0.02531 0.0
C297 C 0.77187 0.67808 0.04365 0.0
C298 C 0.73798 0.69389 0.02164 0.0
C299 C 0.7565 0.71835 0.03634 0.0
C300 C 0.78283 0.72261 0.055 0.0
H301 H 0.67971 0.82342 0.98154 0.0
H302 H 0.71746 0.81123 0.98335 0.0
C303 C 0.79053 0.70264 0.05801 0.0
C304 C 0.74744 0.73888 0.03585 0.0
H305 H 0.71211 0.76315 0.93533 0.0
C306 C 0.74697 0.75045 0.09856 0.0
C307 C 0.73613 0.74475 0.97561 0.0
C308 C 0.73737 0.73397 0.90621 0.0
C309 C 0.73339 0.76596 0.10358 0.0
C310 C 0.71982 0.76982 0.04454 0.0
C311 C 0.72236 0.76008 0.98073 0.0
C312 C 0.69931 0.77985 0.04992 0.0
C313 C 0.73258 0.77711 0.17275 0.0
C314 C 0.6768 0.76639 0.08684 0.0
C315 C 0.65539 0.77306 0.0851 0.0
C316 C 0.65595 0.79348 0.04672 0.0
C317 C 0.67892 0.80776 0.01205 0.0
C318 C 0.70038 0.80076 0.0129 0.0
H319 H 0.75045 0.77979 0.20578 0.0
H320 H 0.73115 0.79532 0.16731 0.0
H321 H 0.71494 0.76422 0.1993 0.0
H322 H 0.67525 0.74992 0.11458 0.0
H323 H 0.63794 0.7617 0.11234 0.0
H324 H 0.14604 0.78645 0.04158 0.0
H325 H 0.09762 0.77286 0.03886 0.0
H326 H 0.08698 0.69622 0.0217 0.0
H327 H 0.1348 0.70939 0.02541 0.0
H328 H 0.05797 0.74402 0.93828 0.0
H329 H 0.04419 0.69588 0.18781 0.0
H330 H 0.07625 0.71754 0.16149 0.0
H331 H 0.06209 0.68596 0.12861 0.0
C332 C 0.13334 0.76672 0.03737 0.0
C333 C 0.14432 0.74903 0.0344 0.0
C334 C 0.10572 0.75899 0.0357 0.0
C335 C 0.08873 0.73349 0.03134 0.0
C336 C 0.09969 0.71593 0.02666 0.0
H337 H 0.9178 0.64553 0.03426 0.0
H338 H 0.96556 0.65941 0.01831 0.0
C339 C 0.12711 0.72357 0.0285 0.0
C340 C 0.0595 0.72495 0.0316 0.0
H341 H 1.00518 0.68828 0.11849 0.0
C342 C 0.04642 0.73197 0.97786 0.0
C343 C 0.04445 0.70911 0.08315 0.0
C344 C 0.05745 0.70185 0.1439 0.0
C345 C 0.01862 0.72319 0.97367 0.0
C346 C 1.0036 0.70724 0.02502 0.0
C347 C 0.01671 0.70027 0.07874 0.0
C348 C 0.97442 0.69876 0.02667 0.0
C349 C 1.00551 0.73074 0.91379 0.0
C350 C 0.9636 0.71625 0.03597 0.0
C351 C 0.93651 0.70837 0.04514 0.0
C352 C 0.91962 0.68282 0.04547 0.0
C353 C 0.93029 0.6653 0.03367 0.0
C354 C 0.95754 0.67322 0.02493 0.0
H355 H 0.01873 0.73707 0.86988 0.0
H356 H 0.98675 0.71506 0.89591 0.0
H357 H 1.00072 0.74642 0.93024 0.0
H358 H 0.97626 0.73601 0.03859 0.0
H359 H 0.92882 0.72231 0.05339 0.0
H360 H 0.30677 0.88016 0.08258 0.0
H361 H 0.33639 0.92389 0.11078 0.0
H362 H 0.26967 0.94383 0.09203 0.0
H363 H 0.24024 0.90052 0.06493 0.0
H364 H 0.34425 0.96483 0.02472 0.0
H365 H 0.30689 0.97831 0.2733 0.0
H366 H 0.30033 0.94778 0.23815 0.0
H367 H 0.2805 0.96405 0.20949 0.0
C368 C 0.29843 0.89384 0.08586 0.0
C369 C 0.27119 0.88693 0.0713 0.0
C370 C 0.31536 0.9188 0.10166 0.0
C371 C 0.30519 0.93708 0.10446 0.0
C372 C 0.27792 0.93002 0.0915 0.0
H373 H 0.3308 0.08458 0.06775 0.0
H374 H 0.31798 0.04055 0.09118 0.0
C375 C 0.26113 0.90527 0.07522 0.0
C376 C 0.32292 0.96393 0.11525 0.0
H377 H 0.32855 0.01552 0.20702 0.0
C378 C 0.34143 0.9759 0.06564 0.0
C379 C 0.31928 0.97832 0.16884 0.0
C380 C 0.30086 0.9664 0.22587 0.0
C381 C 0.35469 1.00206 0.06487 0.0
C382 C 0.34953 0.01653 0.11563 0.0
C383 C 0.33245 1.00443 0.16801 0.0
C384 C 0.35816 0.04388 0.10888 0.0
C385 C 0.37258 0.01409 0.0069 0.0
C386 C 0.38505 0.06063 0.11301 0.0
C387 C 0.39246 0.08604 0.09962 0.0
C388 C 0.37306 0.09489 0.08141 0.0
C389 C 0.34619 0.07821 0.08057 0.0
C390 C 0.33883 0.05306 0.09433 0.0
H391 H 0.37218 1.00025 0.96749 0.0
H392 H 0.36664 0.02804 0.98152 0.0
H393 H 0.39328 0.02402 0.02785 0.0
H394 H 0.40028 0.05398 0.12502 0.0
H395 H 0.41329 0.09851 0.10051 0.0
H396 H 0.1589 0.6273 0.01809 0.0
H397 H 0.16027 0.5867 1.00065 0.0
H398 H 0.24526 0.62265 0.98821 0.0
H399 H 0.24394 0.66355 0.00649 0.0
H400 H 0.18177 0.56581 0.89699 0.0
H401 H 0.23152 0.57564 0.15656 0.0
H402 H 0.21548 0.59547 0.12846 0.0
H403 H 0.24751 0.60057 0.09853 0.0
C404 C 0.17784 0.62656 0.01074 0.0
C405 C 0.20138 0.64848 0.0146 0.0
C406 C 0.17857 0.60339 1.00047 0.0
C407 C 0.20287 0.60166 0.99431 0.0
C408 C 0.22631 0.62362 0.99372 0.0
H409 H 0.252 0.48151 0.00564 0.0
H410 H 0.24737 0.52068 1.00031 0.0
C411 C 0.22556 0.64694 0.00358 0.0
C412 C 0.20364 0.57677 0.99431 0.0
H413 H 0.2241 0.53929 0.09214 0.0
C414 C 0.19105 0.55996 0.93948 0.0
C415 C 0.21539 0.56912 0.05042 0.0
C416 C 0.22807 0.586 0.11223 0.0
C417 C 0.19063 0.53588 0.93833 0.0
C418 C 0.20263 0.52834 0.99422 0.0
C419 C 0.21487 0.54509 0.04939 0.0
C420 C 0.20449 0.50387 0.99488 0.0
C421 C 0.17802 0.51899 0.87661 0.0
C422 C 0.18181 0.48117 0.99386 0.0
C423 C 0.18436 0.45839 0.99662 0.0
C424 C 0.20964 0.45805 1.00099 0.0
C425 C 0.23217 0.4809 0.00232 0.0
C426 C 0.2296 0.50345 0.99927 0.0
H427 H 0.17487 0.52941 0.83203 0.0
H428 H 0.19047 0.50929 0.86095 0.0
H429 H 0.15843 0.50461 0.89003 0.0
H430 H 0.16219 0.48109 0.99183 0.0
H431 H 0.16665 0.44114 0.9957 0.0
H432 H 0.48619 0.17062 0.05645 0.0
H433 H 0.53081 0.17076 0.05747 0.0
H434 H 0.56577 0.25089 0.0794 0.0
H435 H 0.52201 0.251 0.07907 0.0
H436 H 0.57277 0.19606 0.96691 0.0
H437 H 0.60301 0.22938 0.23601 0.0
H438 H 0.56881 0.21646 0.20432 0.0
H439 H 0.59016 0.24846 0.18857 0.0
C440 C 0.50343 0.1882 0.06197 0.0
C441 C 0.50045 0.21075 0.06809 0.0
C442 C 0.52886 0.18827 0.06244 0.0
C443 C 0.5516 0.21083 0.06977 0.0
C444 C 0.54857 0.23324 0.07527 0.0
H445 H 0.72103 0.27469 0.05624 0.0
H446 H 0.67365 0.26501 0.06083 0.0
C447 C 0.52339 0.23322 0.07467 0.0
C448 C 0.57876 0.21158 0.0696 0.0
H449 H 0.6382 0.23458 0.16117 0.0
C450 C 0.587 0.20405 0.00976 0.0
C451 C 0.5973 0.22208 0.12555 0.0
C452 C 0.58933 0.22933 0.1925 0.0
C453 C 0.61361 0.2079 0.00317 0.0
C454 C 0.63234 0.21935 0.05814 0.0
C455 C 0.62388 0.22606 0.1188 0.0
C456 C 0.66094 0.22503 0.0534 0.0
C457 C 0.62175 0.20068 0.93645 0.0
C458 C 0.66951 0.20575 0.04812 0.0
C459 C 0.69654 0.2112 0.04566 0.0
C460 C 0.7156 0.23608 0.04852 0.0
C461 C 0.70692 0.25536 0.05366 0.0
C462 C 0.67986 0.24986 0.0564 0.0
H463 H 0.6062 0.19675 0.8946 0.0
H464 H 0.64044 0.2157 0.91989 0.0
H465 H 0.62535 0.18362 0.94406 0.0
H466 H 0.6553 0.18645 0.04687 0.0
H467 H 0.7025 0.19587 0.04199 0.0
H468 H 0.48068 0.69945 0.02586 0.0
H469 H 0.4409 0.6603 0.03406 0.0
H470 H 0.48996 0.61921 0.04219 0.0
H471 H 0.52953 0.65804 0.03513 0.0
H472 H 0.42447 0.61855 0.9398 0.0
H473 H 0.44153 0.59216 0.20462 0.0
H474 H 0.4581 0.62354 0.17398 0.0
H475 H 0.46988 0.60019 0.153 0.0
C476 C 0.48295 0.6821 0.03066 0.0
C477 C 0.50824 0.68182 0.02976 0.0
C478 C 0.46024 0.65976 0.03489 0.0
C479 C 0.46252 0.63688 0.03942 0.0
C480 C 0.48776 0.63667 0.03975 0.0
H481 H 0.37313 0.47967 0.02953 0.0
H482 H 0.40569 0.52297 0.03251 0.0
C483 C 0.51035 0.65886 0.03507 0.0
C484 C 0.43866 0.61295 0.04025 0.0
H485 H 0.41077 0.55953 0.13115 0.0
C486 C 0.42115 0.60576 0.98203 0.0
C487 C 0.43442 0.59634 0.09544 0.0
C488 C 0.45183 0.60351 0.16061 0.0
C489 C 0.40032 0.58185 0.97602 0.0
C490 C 0.39675 0.56488 0.03015 0.0
C491 C 0.41365 0.57248 0.08945 0.0
C492 C 0.37659 0.53871 0.02512 0.0
C493 C 0.38311 0.57452 0.91054 0.0
C494 C 0.34935 0.53313 0.01961 0.0
C495 C 0.33063 0.5083 0.01792 0.0
C496 C 0.33882 0.4886 0.02232 0.0
C497 C 0.36613 0.49434 0.0269 0.0
C498 C 0.38478 0.5191 0.02842 0.0
H499 H 0.39185 0.58777 0.86858 0.0
H500 H 0.37999 0.55552 0.89283 0.0
H501 H 0.36343 0.57432 0.92034 0.0
H502 H 0.34256 0.54797 0.01824 0.0
H503 H 0.30977 0.50458 0.01545 0.0
H504 H 0.76472 0.53406 0.06592 0.0
H505 H 0.76978 0.4951 0.07226 0.0
H506 H 0.85468 0.53504 0.06697 0.0
H507 H 0.8498 0.57478 0.062 0.0
H508 H 0.79032 0.47499 0.97843 0.0
H509 H 0.84709 0.48888 0.22881 0.0
H510 H 0.83082 0.50866 0.20191 0.0
H511 H 0.86185 0.51274 0.16705 0.0
C512 C 0.78459 0.5348 0.06647 0.0
C513 C 0.8069 0.55772 0.06347 0.0
C514 C 0.78741 0.51235 0.0701 0.0
C515 C 0.81258 0.51203 0.07081 0.0
C516 C 0.83504 0.53482 0.06785 0.0
H517 H 0.85945 0.38865 0.05216 0.0
H518 H 0.85774 0.42932 0.06333 0.0
C519 C 0.83224 0.55751 0.06453 0.0
C520 C 0.81466 0.48757 0.07182 0.0
H521 H 0.83901 0.45181 0.16565 0.0
C522 C 0.80094 0.46994 0.0195 0.0
C523 C 0.82847 0.48092 0.12541 0.0
C524 C 0.84273 0.49867 0.18439 0.0
C525 C 0.80075 0.44599 0.019 0.0
C526 C 0.81434 0.43924 0.07286 0.0
C527 C 0.82836 0.45693 0.12481 0.0
C528 C 0.81532 0.41435 0.07377 0.0
C529 C 0.78642 0.42824 0.95999 0.0
C530 C 0.79214 0.3923 0.07832 0.0
C531 C 0.79306 0.36889 0.07191 0.0
C532 C 0.81719 0.36722 0.0605 0.0
C533 C 0.8405 0.38934 0.05967 0.0
C534 C 0.83959 0.41261 0.06643 0.0
H535 H 0.78193 0.438 0.9157 0.0
H536 H 0.79838 0.41834 0.94215 0.0
H537 H 0.76738 0.41408 0.97745 0.0
H538 H 0.77323 0.39321 0.08506 0.0
H539 H 0.77482 0.3522 0.07269 0.0
H540 H 0.31398 0.82108 0.04756 0.0
H541 H 0.36126 0.83003 0.04609 0.0
H542 H 0.34223 0.75122 0.04327 0.0
H543 H 0.29508 0.74208 0.04564 0.0
H544 H 0.38304 0.77831 0.1387 0.0
H545 H 0.40116 0.82188 0.88166 0.0
H546 H 0.38672 0.83531 0.94181 0.0
H547 H 0.3682 0.80394 0.91024 0.0
C548 C 0.31985 0.80564 0.04657 0.0
C549 C 0.3007 0.78084 0.04652 0.0
C550 C 0.34689 0.81081 0.04529 0.0
C551 C 0.35526 0.79129 0.04353 0.0
C552 C 0.33621 0.76657 0.04432 0.0
H553 H 0.49281 0.76174 0.01546 0.0
H554 H 0.44911 0.762 0.02258 0.0
C555 C 0.30924 0.76138 0.04566 0.0
C556 C 0.38383 0.79637 0.04215 0.0
H557 H 0.43797 0.82006 0.94325 0.0
C558 C 0.39507 0.78755 0.09612 0.0
C559 C 0.39957 0.80859 0.98676 0.0
C560 C 0.38835 0.81784 0.92646 0.0
C561 C 0.42144 0.79021 0.09568 0.0
C562 C 0.43691 0.80168 0.03928 0.0
C563 C 0.42603 0.81127 0.98638 0.0
C564 C 0.46367 0.80211 0.03222 0.0
C565 C 0.43251 0.78054 0.1554 0.0
C566 C 0.48638 0.82469 0.03316 0.0
C567 C 0.51161 0.82465 0.02898 0.0
C568 C 0.51443 0.80201 0.02316 0.0
C569 C 0.49147 0.77953 0.02026 0.0
C570 C 0.46642 0.7796 0.02464 0.0
H571 H 0.42099 0.7786 0.20208 0.0
H572 H 0.43151 0.76187 0.14146 0.0
H573 H 0.45358 0.79308 0.16795 0.0
H574 H 0.48463 0.84227 0.0385 0.0
H575 H 0.52888 0.84227 0.03125 0.0
H576 H 0.64327 0.53263 0.03068 0.0
H577 H 0.61213 0.4888 0.03038 0.0
H578 H 0.67752 0.46687 0.04649 0.0
H579 H 0.70883 0.51075 0.0469 0.0
H580 H 0.60842 0.45198 0.93426 0.0
H581 H 0.62998 0.42745 0.19924 0.0
H582 H 0.64054 0.45934 0.17254 0.0
H583 H 0.65795 0.44117 0.14609 0.0
C584 C 0.65102 0.51849 0.03438 0.0
C585 C 0.6785 0.52518 0.03891 0.0
C586 C 0.63323 0.49347 0.03432 0.0
C587 C 0.64252 0.47461 0.03888 0.0
C588 C 0.66993 0.48115 0.04418 0.0
H589 H 0.53903 0.31381 0.05374 0.0
H590 H 0.57902 0.35219 0.03705 0.0
C591 C 0.68779 0.50625 0.04454 0.0
C592 C 0.62325 0.44816 0.03576 0.0
H593 H 0.59716 0.39568 0.13137 0.0
C594 C 0.60613 0.43959 0.97711 0.0
C595 C 0.6205 0.43197 0.09144 0.0
C596 C 0.63805 0.44039 0.15619 0.0
C597 C 0.58568 0.41556 0.97364 0.0
C598 C 0.58213 0.39981 0.03055 0.0
C599 C 0.60004 0.40786 0.08782 0.0
C600 C 0.55817 0.37629 0.03503 0.0
C601 C 0.56762 0.40736 0.90976 0.0
C602 C 0.53339 0.37725 0.0392 0.0
C603 C 0.51078 0.35557 0.04905 0.0
C604 C 0.51247 0.33246 0.05481 0.0
C605 C 0.5372 0.33137 0.04879 0.0
C606 C 0.55998 0.35322 0.03963 0.0
H607 H 0.57721 0.41831 0.86445 0.0
H608 H 0.5617 0.38725 0.89812 0.0
H609 H 0.54938 0.41028 0.9181 0.0
H610 H 0.53165 0.39492 0.03664 0.0
H611 H 0.49195 0.35689 0.05294 0.0
H612 H 0.26835 0.42212 0.79134 0.0
H613 H 0.26759 0.42166 0.66532 0.0
H614 H 0.18376 0.37484 0.65813 0.0
H615 H 0.18435 0.37487 0.78351 0.0
H616 H 0.21195 0.35808 0.57178 0.0
H617 H 0.23677 0.45869 0.53497 0.0
H618 H 0.25982 0.45235 0.59092 0.0
H619 H 0.22634 0.4436 0.61584 0.0
C620 C 0.24975 0.41181 0.7629 0.0
C621 C 0.22641 0.3986 0.7975 0.0
C622 C 0.24932 0.41168 0.69093 0.0
C623 C 0.22553 0.39849 0.65243 0.0
C624 C 0.20229 0.38521 0.68686 0.0
H625 H 0.17894 0.37129 0.21583 0.0
H626 H 0.17958 0.37193 0.34183 0.0
C627 C 0.20269 0.38529 0.7586 0.0
C628 C 0.22484 0.39794 0.57621 0.0
H629 H 0.23531 0.4348 0.43546 0.0
C630 C 0.21696 0.37483 0.5419 0.0
C631 C 0.23134 0.41983 0.53748 0.0
C632 C 0.23882 0.44502 0.57149 0.0
C633 C 0.21586 0.37305 0.46981 0.0
C634 C 0.22241 0.39494 0.43109 0.0
C635 C 0.23028 0.41805 0.46537 0.0
C636 C 0.22179 0.39436 0.35491 0.0
C637 C 0.20826 0.34785 0.43571 0.0
C638 C 0.2452 0.40714 0.32062 0.0
C639 C 0.2449 0.40689 0.24888 0.0
C640 C 0.22111 0.39397 0.20985 0.0
C641 C 0.19761 0.3813 0.24434 0.0
C642 C 0.19795 0.38155 0.31631 0.0
H643 H 0.20991 0.33403 0.47235 0.0
H644 H 0.18738 0.34076 0.41543 0.0
H645 H 0.22096 0.34921 0.39189 0.0
H646 H 0.26378 0.41721 0.34948 0.0
H647 H 0.26336 0.4169 0.22406 0.0
H648 H 0.78186 0.20492 0.82886 0.0
H649 H 0.78328 0.20638 0.70287 0.0
H650 H 0.79852 0.28436 0.71054 0.0
H651 H 0.79745 0.28323 0.83544 0.0
H652 H 0.75221 0.22024 0.60611 0.0
H653 H 0.85887 0.28349 0.59759 0.0
H654 H 0.84432 0.26737 0.67437 0.0
H655 H 0.84032 0.29513 0.64983 0.0
C656 C 0.78552 0.22236 0.80364 0.0
C657 C 0.7897 0.24397 0.84231 0.0
C658 C 0.78633 0.22317 0.73174 0.0
C659 C 0.79151 0.24561 0.69753 0.0
C660 C 0.79511 0.267 0.73595 0.0
H661 H 0.80328 0.29135 0.26934 0.0
H662 H 0.8018 0.28985 0.39533 0.0
C663 C 0.79432 0.26624 0.80747 0.0
C664 C 0.79276 0.24676 0.62157 0.0
H665 H 0.83333 0.27607 0.49207 0.0
C666 C 0.76998 0.2323 0.58111 0.0
C667 C 0.81594 0.26266 0.58914 0.0
C668 C 0.84134 0.27789 0.62986 0.0
C669 C 0.7696 0.23364 0.50904 0.0
C670 C 0.79277 0.24956 0.47663 0.0
C671 C 0.81556 0.26401 0.51708 0.0
C672 C 0.79403 0.25073 0.40068 0.0
C673 C 0.74424 0.21836 0.46826 0.0
C674 C 0.79071 0.22941 0.3623 0.0
C675 C 0.79157 0.2302 0.2908 0.0
C676 C 0.79593 0.25242 0.25593 0.0
C677 C 0.79982 0.27396 0.29458 0.0
C678 C 0.79897 0.27312 0.36646 0.0
H679 H 0.7267 0.2126 0.50055 0.0
H680 H 0.74118 0.22893 0.42396 0.0
H681 H 0.7454 0.20123 0.44794 0.0
H682 H 0.78748 0.21209 0.38774 0.0
H683 H 0.78868 0.21327 0.26287 0.0
H684 H 0.60794 0.84215 0.81378 0.0
H685 H 0.60699 0.84124 0.68768 0.0
H686 H 0.56748 0.76099 0.68678 0.0
H687 H 0.56811 0.76165 0.81219 0.0
H688 H 0.62877 0.81633 0.59988 0.0
H689 H 0.51957 0.78156 0.5569 0.0
H690 H 0.53641 0.7946 0.63843 0.0
H691 H 0.53018 0.76314 0.61407 0.0
C692 C 0.59898 0.82432 0.78672 0.0
C693 C 0.58796 0.80199 0.82306 0.0
C694 C 0.59848 0.82384 0.71475 0.0
C695 C 0.58678 0.80107 0.678 0.0
C696 C 0.57611 0.77878 0.71414 0.0
H697 H 0.56389 0.75738 0.24462 0.0
H698 H 0.56498 0.75814 0.37071 0.0
C699 C 0.57664 0.77922 0.7859 0.0
C700 C 0.58618 0.80049 0.60185 0.0
H701 H 0.54422 0.78287 0.45905 0.0
C702 C 0.61031 0.80915 0.56899 0.0
C703 C 0.56204 0.79097 0.56186 0.0
C704 C 0.53555 0.78222 0.59443 0.0
C705 C 0.61096 0.80818 0.49705 0.0
C706 C 0.58681 0.79872 0.45702 0.0
C707 C 0.56268 0.79003 0.48991 0.0
C708 C 0.58619 0.79822 0.38083 0.0
C709 C 0.63746 0.8168 0.46461 0.0
C710 C 0.59738 0.82051 0.34489 0.0
C711 C 0.59682 0.82015 0.27312 0.0
C712 C 0.58487 0.79747 0.23574 0.0
C713 C 0.57331 0.77515 0.27186 0.0
C714 C 0.5739 0.77554 0.34384 0.0
H715 H 0.6533 0.81703 0.50201 0.0
H716 H 0.6365 0.80463 0.41999 0.0
H717 H 0.64315 0.83606 0.44597 0.0
H718 H 0.60644 0.83825 0.37238 0.0
H719 H 0.60575 0.83772 0.247 0.0
H720 H 0.83635 0.64365 0.84181 0.0
H721 H 0.83572 0.64348 0.71578 0.0
H722 H 0.75217 0.59563 0.70771 0.0
H723 H 0.75259 0.59545 0.8331 0.0
H724 H 0.7817 0.58022 0.61943 0.0
H725 H 0.803 0.68049 0.58925 0.0
H726 H 0.82631 0.67432 0.6447 0.0
H727 H 0.79262 0.66449 0.66898 0.0
C728 C 0.81784 0.63311 0.81319 0.0
C729 C 0.79451 0.61965 0.84754 0.0
C730 C 0.81749 0.63314 0.74123 0.0
C731 C 0.79381 0.61982 0.70251 0.0
C732 C 0.77062 0.60611 0.73666 0.0
H733 H 0.74697 0.5938 0.26579 0.0
H734 H 0.74774 0.59382 0.39182 0.0
C735 C 0.77092 0.60607 0.80839 0.0
C736 C 0.79309 0.61984 0.62633 0.0
H737 H 0.80172 0.6576 0.48806 0.0
C738 C 0.786 0.59711 0.5906 0.0
C739 C 0.79867 0.64191 0.58903 0.0
C740 C 0.80536 0.66669 0.62475 0.0
C741 C 0.78479 0.5959 0.51842 0.0
C742 C 0.79033 0.61797 0.48111 0.0
C743 C 0.79743 0.64071 0.51686 0.0
C744 C 0.78952 0.61801 0.40489 0.0
C745 C 0.77819 0.57114 0.48276 0.0
C746 C 0.81256 0.63209 0.3706 0.0
C747 C 0.81214 0.63225 0.29887 0.0
C748 C 0.78861 0.61841 0.25984 0.0
C749 C 0.76542 0.60456 0.29432 0.0
C750 C 0.76587 0.60443 0.36629 0.0
H751 H 0.78086 0.55746 0.51817 0.0
H752 H 0.75715 0.56331 0.46347 0.0
H753 H 0.79076 0.57338 0.43812 0.0
H754 H 0.83097 0.64279 0.39943 0.0
H755 H 0.83036 0.64319 0.27406 0.0
H756 H 0.21558 0.72971 0.25727 0.0
H757 H 0.21508 0.72925 0.38255 0.0
H758 H 0.23281 0.80781 0.38745 0.0
H759 H 0.23311 0.80845 0.26153 0.0
H760 H 0.2559 0.75701 0.4789 0.0
H761 H 0.16682 0.77702 0.50293 0.0
H762 H 0.17513 0.76727 0.42264 0.0
H763 H 0.19242 0.79895 0.45319 0.0
C764 C 0.21934 0.74693 0.28482 0.0
C765 C 0.22428 0.76912 0.24933 0.0
C766 C 0.21906 0.74661 0.35647 0.0
C767 C 0.22356 0.7684 0.39417 0.0
C768 C 0.22881 0.79068 0.35916 0.0
H769 H 0.22946 0.80267 0.82814 0.0
H770 H 0.23024 0.80329 0.70294 0.0
C771 C 0.22911 0.79104 0.28728 0.0
C772 C 0.2231 0.76771 0.47021 0.0
H773 H 0.19033 0.77581 0.60634 0.0
C774 C 0.24154 0.76105 0.50685 0.0
C775 C 0.20429 0.77296 0.50636 0.0
C776 C 0.18337 0.77925 0.46942 0.0
C777 C 0.24198 0.75991 0.57891 0.0
C778 C 0.22314 0.76511 0.61507 0.0
C779 C 0.20471 0.77178 0.57841 0.0
C780 C 0.22259 0.76434 0.69112 0.0
C781 C 0.26298 0.7537 0.61579 0.0
C782 C 0.21772 0.7421 0.72606 0.0
C783 C 0.2173 0.74166 0.79792 0.0
C784 C 0.2216 0.76343 0.83595 0.0
C785 C 0.22614 0.78556 0.80055 0.0
C786 C 0.22657 0.78597 0.72892 0.0
H787 H 0.27966 0.75625 0.58244 0.0
H788 H 0.27101 0.7655 0.66297 0.0
H789 H 0.25407 0.73392 0.6313 0.0
H790 H 0.21409 0.72507 0.69772 0.0
H791 H 0.21363 0.72429 0.8236 0.0
H792 H 0.40931 0.1794 0.84443 0.0
H793 H 0.40944 0.17897 0.71921 0.0
H794 H 0.45313 0.25885 0.7221 0.0
H795 H 0.45344 0.25949 0.84816 0.0
H796 H 0.38875 0.20303 0.62586 0.0
H797 H 0.49734 0.23416 0.60297 0.0
H798 H 0.48123 0.22333 0.68264 0.0
H799 H 0.48793 0.25432 0.65438 0.0
C800 C 0.41906 0.19693 0.81866 0.0
C801 C 0.4315 0.2195 0.8564 0.0
C802 C 0.41906 0.19662 0.74699 0.0
C803 C 0.43158 0.21881 0.71143 0.0
C804 C 0.44378 0.24145 0.74869 0.0
H805 H 0.4508 0.25357 0.28079 0.0
H806 H 0.45065 0.25411 0.406 0.0
C807 C 0.44381 0.2418 0.82064 0.0
C808 C 0.43139 0.21808 0.63528 0.0
H809 H 0.47165 0.23009 0.49957 0.0
C810 C 0.40686 0.20888 0.59817 0.0
C811 C 0.45505 0.22567 0.59944 0.0
C812 C 0.4819 0.23473 0.63674 0.0
C813 C 0.40536 0.20744 0.526 0.0
C814 C 0.42901 0.21502 0.49017 0.0
C815 C 0.45355 0.22424 0.52727 0.0
C816 C 0.42882 0.21424 0.41404 0.0
C817 C 0.37851 0.19836 0.48866 0.0
C818 C 0.41679 0.19155 0.37695 0.0
C819 C 0.4168 0.19113 0.30501 0.0
C820 C 0.42897 0.21341 0.2691 0.0
C821 C 0.44121 0.23604 0.30668 0.0
C822 C 0.44118 0.23642 0.37834 0.0
H823 H 0.36304 0.19884 0.52244 0.0
H824 H 0.37918 0.20982 0.44287 0.0
H825 H 0.37255 0.1788 0.4708 0.0
H826 H 0.40755 0.17416 0.40367 0.0
H827 H 0.40733 0.1734 0.27762 0.0
loop_
_geom_bond_atom_site_label_1
_geom_bond_atom_site_label_2
_geom_bond_distance
_geom_bond_site_symmetry_2
_ccdc_geom_bond_type
Co0 N5 2.057 . S
Co0 O17 2.021 1_554 S
Co0 O20 2.062 . S
Co0 O24 2.117 . S
Co0 O25 2.020 . S
C1 O21 1.259 . S
C1 O24 1.258 . S
Co2 N11 2.057 . S
Co2 O18 2.117 1_554 S
Co2 O19 2.020 . S
Co2 O21 2.021 . S
Co2 O26 2.062 . S
C3 N5 1.316 . S
C3 N6 1.347 . S
C3 H8 0.931 1_554 S
C4 N5 1.375 . S
C4 C7 1.350 . S
C4 H9 0.930 . S
N5 Co0 2.057 . S
N5 C3 1.316 . S
N5 C4 1.375 . S
N6 C3 1.347 . S
N6 C7 1.373 . S
C7 C4 1.350 . S
C7 N6 1.373 . S
C7 H28 0.931 . S
H8 C3 0.931 1_556 S
H9 C4 0.930 . S
C10 O17 1.259 . S
C10 O18 1.258 . S
N11 Co2 2.057 . S
N11 C12 1.316 . S
N11 C13 1.375 1_554 S
C12 N11 1.316 . S
C12 N14 1.347 . S
C12 H23 0.931 . S
C13 N11 1.375 1_556 S
C13 C15 1.350 . S
C13 H22 0.930 . S
N14 C12 1.347 . S
N14 C15 1.373 1_554 S
C15 C13 1.350 . S
C15 N14 1.373 1_556 S
C15 H29 0.931 . S
C16 O19 1.256 . S
C16 O20 1.255 . S
O17 Co0 2.021 1_556 S
O17 C10 1.259 . S
O18 Co2 2.117 1_556 S
O18 C10 1.258 . S
O19 Co2 2.020 . S
O19 C16 1.256 . S
O20 Co0 2.062 . S
O20 C16 1.255 . S
O21 C1 1.259 . S
O21 Co2 2.021 . S
H22 C13 0.930 . S
H23 C12 0.931 . S
O24 Co0 2.117 . S
O24 C1 1.258 . S
O25 Co0 2.020 . S
O25 C27 1.256 . S
O26 Co2 2.062 . S
O26 C27 1.255 . S
C27 O25 1.256 . S
C27 O26 1.255 . S
H28 C7 0.931 . S
H29 C15 0.931 . S
Co30 N35 2.057 . S
Co30 O47 2.021 1_554 S
Co30 O50 2.062 . S
Co30 O54 2.117 . S
Co30 O55 2.020 . S
C31 O51 1.259 . S
C31 O54 1.258 . S
Co32 N41 2.057 . S
Co32 O48 2.117 1_554 S
Co32 O49 2.020 . S
Co32 O51 2.021 . S
Co32 O56 2.062 . S
C33 N35 1.316 . S
C33 N36 1.347 . S
C33 H38 0.931 1_554 S
C34 N35 1.375 . S
C34 C37 1.350 . S
C34 H39 0.930 . S
N35 Co30 2.057 . S
N35 C33 1.316 . S
N35 C34 1.375 . S
N36 C33 1.347 . S
N36 C37 1.373 . S
C37 C34 1.350 . S
C37 N36 1.373 . S
C37 H58 0.931 . S
H38 C33 0.931 1_556 S
H39 C34 0.930 . S
C40 O47 1.259 . S
C40 O48 1.258 . S
N41 Co32 2.057 . S
N41 C42 1.316 . S
N41 C43 1.375 1_554 S
C42 N41 1.316 . S
C42 N44 1.347 . S
C42 H53 0.931 . S
C43 N41 1.375 1_556 S
C43 C45 1.350 . S
C43 H52 0.930 . S
N44 C42 1.347 . S
N44 C45 1.373 1_554 S
C45 C43 1.350 . S
C45 N44 1.373 1_556 S
C45 H59 0.931 . S
C46 O49 1.256 . S
C46 O50 1.255 . S
O47 Co30 2.021 1_556 S
O47 C40 1.259 . S
O48 Co32 2.117 1_556 S
O48 C40 1.258 . S
O49 Co32 2.020 . S
O49 C46 1.256 . S
O50 Co30 2.062 . S
O50 C46 1.255 . S
O51 C31 1.259 . S
O51 Co32 2.021 . S
H52 C43 0.930 . S
H53 C42 0.931 . S
O54 Co30 2.117 . S
O54 C31 1.258 . S
O55 Co30 2.020 . S
O55 C57 1.256 . S
O56 Co32 2.062 . S
O56 C57 1.255 . S
C57 O55 1.256 . S
C57 O56 1.255 . S
H58 C37 0.931 . S
H59 C45 0.931 . S
Co60 N65 2.057 1_554 S
Co60 O77 2.021 . S
Co60 O80 2.062 . S
Co60 O84 2.117 1_554 S
Co60 O85 2.020 . S
C61 O81 1.259 . S
C61 O84 1.258 . S
Co62 N71 2.057 . S
Co62 O78 2.117 . S
Co62 O79 2.020 . S
Co62 O81 2.021 1_554 S
Co62 O86 2.062 . S
C63 N65 1.316 1_554 S
C63 N66 1.340 1_554 S
C63 H68 0.931 . S
C64 N65 1.375 . S
C64 C67 1.350 . S
C64 H69 0.930 . S
N65 Co60 2.057 1_556 S
N65 C63 1.316 1_556 S
N65 C64 1.375 . S
N66 C63 1.340 1_556 S
N66 C67 1.386 . S
C67 C64 1.350 . S
C67 N66 1.386 . S
C67 H88 0.931 . S
H68 C63 0.931 . S
H69 C64 0.930 . S
C70 O77 1.259 . S
C70 O78 1.258 . S
N71 Co62 2.057 . S
N71 C72 1.316 1_554 S
N71 C73 1.375 . S
C72 N71 1.316 1_556 S
C72 N74 1.347 1_556 S
C72 H83 0.931 . S
C73 N71 1.375 . S
C73 C75 1.350 . S
C73 H82 0.930 . S
N74 C72 1.347 1_554 S
N74 C75 1.373 . S
C75 C73 1.350 . S
C75 N74 1.373 . S
C75 H89 0.931 . S
C76 O79 1.256 . S
C76 O80 1.255 . S
O77 Co60 2.021 . S
O77 C70 1.259 . S
O78 Co62 2.117 . S
O78 C70 1.258 . S
O79 Co62 2.020 . S
O79 C76 1.256 . S
O80 Co60 2.062 . S
O80 C76 1.255 . S
O81 C61 1.259 . S
O81 Co62 2.021 1_556 S
H82 C73 0.930 . S
H83 C72 0.931 . S
O84 Co60 2.117 1_556 S
O84 C61 1.258 . S
O85 Co60 2.020 . S
O85 C87 1.256 . S
O86 Co62 2.062 . S
O86 C87 1.255 . S
C87 O85 1.256 . S
C87 O86 1.255 . S
H88 C67 0.931 . S
H89 C75 0.931 . S
Co90 N95 2.057 . S
Co90 O107 2.021 1_554 S
Co90 O110 2.062 . S
Co90 O114 2.117 . S
Co90 O115 2.020 . S
C91 O111 1.259 . S
C91 O114 1.258 . S
Co92 N101 2.057 . S
Co92 O108 2.117 1_554 S
Co92 O109 2.020 . S
Co92 O111 2.021 . S
Co92 O116 2.062 . S
C93 N95 1.316 . S
C93 N96 1.347 . S
C93 H98 0.931 1_554 S
C94 N95 1.375 . S
C94 C97 1.350 . S
C94 H99 0.930 . S
N95 Co90 2.057 . S
N95 C93 1.316 . S
N95 C94 1.375 . S
N96 C93 1.347 . S
N96 C97 1.373 . S
C97 C94 1.350 . S
C97 N96 1.373 . S
C97 H118 0.931 . S
H98 C93 0.931 1_556 S
H99 C94 0.930 . S
C100 O107 1.259 . S
C100 O108 1.258 . S
N101 Co92 2.057 . S
N101 C102 1.316 . S
N101 C103 1.375 1_554 S
C102 N101 1.316 . S
C102 N104 1.347 . S
C102 H113 0.931 . S
C103 N101 1.375 1_556 S
C103 C105 1.350 . S
C103 H112 0.930 . S
N104 C102 1.347 . S
N104 C105 1.373 1_554 S
C105 C103 1.350 . S
C105 N104 1.373 1_556 S
C105 H119 0.931 . S
C106 O109 1.256 . S
C106 O110 1.255 . S
O107 Co90 2.021 1_556 S
O107 C100 1.259 . S
O108 Co92 2.117 1_556 S
O108 C100 1.258 . S
O109 Co92 2.020 . S
O109 C106 1.256 . S
O110 Co90 2.062 . S
O110 C106 1.255 . S
O111 C91 1.259 . S
O111 Co92 2.021 . S
H112 C103 0.930 . S
H113 C102 0.931 . S
O114 Co90 2.117 . S
O114 C91 1.258 . S
O115 Co90 2.020 . S
O115 C117 1.256 . S
O116 Co92 2.062 . S
O116 C117 1.255 . S
C117 O115 1.256 . S
C117 O116 1.255 . S
H118 C97 0.931 . S
H119 C105 0.931 . S
Co120 N125 2.057 . S
Co120 O137 2.021 1_554 S
Co120 O140 2.062 . S
Co120 O144 2.117 . S
Co120 O145 2.020 . S
C121 O141 1.259 . S
C121 O144 1.258 . S
Co122 N131 2.057 . S
Co122 O138 2.117 1_554 S
Co122 O139 2.020 . S
Co122 O141 2.021 . S
Co122 O146 2.062 . S
C123 N125 1.316 1_556 S
C123 N126 1.347 1_556 S
C123 H128 0.931 . S
C124 N125 1.375 . S
C124 C127 1.350 . S
C124 H129 0.930 . S
N125 Co120 2.057 . S
N125 C123 1.316 1_554 S
N125 C124 1.375 . S
N126 C123 1.347 1_554 S
N126 C127 1.373 . S
C127 C124 1.350 . S
C127 N126 1.373 . S
C127 H148 0.931 . S
H128 C123 0.931 . S
H129 C124 0.930 . S
C130 O137 1.259 . S
C130 O138 1.258 . S
N131 Co122 2.057 . S
N131 C132 1.316 . S
N131 C133 1.375 1_554 S
C132 N131 1.316 . S
C132 N134 1.347 . S
C132 H143 0.931 . S
C133 N131 1.375 1_556 S
C133 C135 1.350 . S
C133 H142 0.930 . S
N134 C132 1.347 . S
N134 C135 1.373 1_554 S
C135 C133 1.350 . S
C135 N134 1.373 1_556 S
C135 H149 0.931 . S
C136 O139 1.256 . S
C136 O140 1.255 . S
O137 Co120 2.021 1_556 S
O137 C130 1.259 . S
O138 Co122 2.117 1_556 S
O138 C130 1.258 . S
O139 Co122 2.020 . S
O139 C136 1.256 . S
O140 Co120 2.062 . S
O140 C136 1.255 . S
O141 C121 1.259 . S
O141 Co122 2.021 . S
H142 C133 0.930 . S
H143 C132 0.931 . S
O144 Co120 2.117 . S
O144 C121 1.258 . S
O145 Co120 2.020 . S
O145 C147 1.256 . S
O146 Co122 2.062 . S
O146 C147 1.255 . S
C147 O145 1.256 . S
C147 O146 1.255 . S
H148 C127 0.931 . S
H149 C135 0.931 . S
Co150 N155 2.057 . S
Co150 O167 2.021 . S
Co150 O170 2.062 . S
Co150 O174 2.117 1_554 S
Co150 O175 2.020 . S
C151 O171 1.259 . S
C151 O174 1.258 . S
Co152 N161 2.057 . S
Co152 O168 2.117 . S
Co152 O169 2.020 . S
Co152 O171 2.021 1_554 S
Co152 O176 2.062 . S
C153 N155 1.316 . S
C153 N156 1.347 . S
C153 H158 0.931 . S
C154 N155 1.375 1_556 S
C154 C157 1.350 . S
C154 H159 0.930 . S
N155 Co150 2.057 . S
N155 C153 1.316 . S
N155 C154 1.375 1_554 S
N156 C153 1.347 . S
N156 C157 1.373 1_554 S
C157 C154 1.350 . S
C157 N156 1.373 1_556 S
C157 H178 0.931 . S
H158 C153 0.931 . S
H159 C154 0.930 . S
C160 O167 1.259 . S
C160 O168 1.258 . S
N161 Co152 2.057 . S
N161 C162 1.316 . S
N161 C163 1.375 . S
C162 N161 1.316 . S
C162 N164 1.347 . S
C162 H173 0.931 1_554 S
C163 N161 1.375 . S
C163 C165 1.350 . S
C163 H172 0.930 . S
N164 C162 1.347 . S
N164 C165 1.373 . S
C165 C163 1.350 . S
C165 N164 1.373 . S
C165 H179 0.931 . S
C166 O169 1.256 . S
C166 O170 1.255 . S
O167 Co150 2.021 . S
O167 C160 1.259 . S
O168 Co152 2.117 . S
O168 C160 1.258 . S
O169 Co152 2.020 . S
O169 C166 1.256 . S
O170 Co150 2.062 . S
O170 C166 1.255 . S
O171 C151 1.259 . S
O171 Co152 2.021 1_556 S
H172 C163 0.930 . S
H173 C162 0.931 1_556 S
O174 Co150 2.117 1_556 S
O174 C151 1.258 . S
O175 Co150 2.020 . S
O175 C177 1.256 . S
O176 Co152 2.062 . S
O176 C177 1.255 . S
C177 O175 1.256 . S
C177 O176 1.255 . S
H178 C157 0.931 . S
H179 C165 0.931 . S
H180 C188 0.929 . S
H181 C190 0.930 . S
H182 C192 0.930 1_556 S
H183 C195 0.929 1_556 S
H184 C198 0.930 . S
H185 C200 0.960 . S
H186 C200 0.960 . S
H187 C200 0.960 . S
C188 H180 0.929 . S
C188 C189 1.377 . S
C188 C190 1.384 . S
C189 C188 1.377 . S
C189 C195 1.390 . S
C190 H181 0.930 . S
C190 C188 1.384 . S
C190 C191 1.372 . S
C191 C190 1.372 . S
C191 C192 1.400 . S
C191 C196 1.490 . S
C192 H182 0.930 1_554 S
C192 C191 1.400 . S
C192 C195 1.386 . S
H193 C209 0.930 . S
H194 C210 0.931 . S
C195 H183 0.929 1_554 S
C195 C189 1.390 . S
C195 C192 1.386 . S
C196 C191 1.490 . S
C196 C198 1.395 . S
C196 C199 1.403 . S
H197 C203 0.930 . S
C198 H184 0.930 . S
C198 C196 1.395 . S
C198 C201 1.403 . S
C199 C196 1.403 . S
C199 C200 1.524 . S
C199 C203 1.400 . S
C200 H185 0.960 . S
C200 H186 0.960 . S
C200 H187 0.960 . S
C200 C199 1.524 . S
C201 C198 1.403 . S
C201 C202 1.392 . S
C201 C205 1.495 . S
C202 C201 1.392 . S
C202 C203 1.385 . S
C202 C204 1.478 . S
C203 H197 0.930 . S
C203 C199 1.400 . S
C203 C202 1.385 . S
C204 C202 1.478 . S
C204 C206 1.381 . S
C204 C210 1.383 1_554 S
C205 C201 1.495 . S
C205 H211 0.959 . S
C205 H212 0.961 1_554 S
C205 H213 0.960 . S
C206 C204 1.381 . S
C206 C207 1.394 . S
C206 H214 0.930 . S
C207 C206 1.394 . S
C207 C208 1.383 . S
C207 H215 0.929 . S
C208 C207 1.383 . S
C208 C209 1.377 1_554 S
C209 H193 0.930 . S
C209 C208 1.377 1_556 S
C209 C210 1.379 . S
C210 H194 0.931 . S
C210 C204 1.383 1_556 S
C210 C209 1.379 . S
H211 C205 0.959 . S
H212 C205 0.961 1_556 S
H213 C205 0.960 . S
H214 C206 0.930 . S
H215 C207 0.929 . S
H216 C224 0.929 . S
H217 C226 0.930 . S
H218 C228 0.930 . S
H219 C231 0.929 . S
H220 C234 0.930 . S
H221 C236 0.960 . S
H222 C236 0.960 1_455 S
H223 C236 0.960 1_455 S
C224 H216 0.929 . S
C224 C225 1.377 1_556 S
C224 C226 1.384 . S
C225 C224 1.377 1_554 S
C225 C231 1.390 . S
C226 H217 0.930 . S
C226 C224 1.384 . S
C226 C227 1.372 1_556 S
C227 C226 1.372 1_554 S
C227 C228 1.400 . S
C227 C232 1.490 1_455 S
C228 H218 0.930 . S
C228 C227 1.400 . S
C228 C231 1.386 . S
H229 C245 0.930 . S
H230 C246 0.931 . S
C231 H219 0.929 . S
C231 C225 1.390 . S
C231 C228 1.386 . S
C232 C227 1.490 1_655 S
C232 C234 1.395 1_554 S
C232 C235 1.403 . S
H233 C239 0.930 . S
C234 H220 0.930 . S
C234 C232 1.395 1_556 S
C234 C237 1.403 . S
C235 C232 1.403 . S
C235 C236 1.524 . S
C235 C239 1.400 . S
C236 H221 0.960 . S
C236 H222 0.960 1_655 S
C236 H223 0.960 1_655 S
C236 C235 1.524 . S
C237 C234 1.403 . S
C237 C238 1.392 1_556 S
C237 C241 1.495 . S
C238 C237 1.392 1_554 S
C238 C239 1.385 . S
C238 C240 1.478 . S
C239 H233 0.930 . S
C239 C235 1.400 . S
C239 C238 1.385 . S
C240 C238 1.478 . S
C240 C242 1.381 1_554 S
C240 C246 1.383 . S
C241 C237 1.495 . S
C241 H247 0.959 . S
C241 H248 0.961 . S
C241 H249 0.960 . S
C242 C240 1.381 1_556 S
C242 C243 1.394 . S
C242 H250 0.930 . S
C243 C242 1.394 . S
C243 C244 1.383 1_556 S
C243 H251 0.929 . S
C244 C243 1.383 1_554 S
C244 C245 1.377 . S
C245 H229 0.930 . S
C245 C244 1.377 . S
C245 C246 1.379 . S
C246 H230 0.931 . S
C246 C240 1.383 . S
C246 C245 1.379 . S
H247 C241 0.959 . S
H248 C241 0.961 . S
H249 C241 0.960 . S
H250 C242 0.930 . S
H251 C243 0.929 . S
H252 C260 0.929 . S
H253 C262 0.930 . S
H254 C264 0.930 . S
H255 C267 0.929 . S
H256 C270 0.930 . S
H257 C272 0.960 . S
H258 C272 0.960 . S
H259 C272 0.960 . S
C260 H252 0.929 . S
C260 C261 1.377 1_556 S
C260 C262 1.384 . S
C261 C260 1.377 1_554 S
C261 C267 1.390 . S
C262 H253 0.930 . S
C262 C260 1.384 . S
C262 C263 1.372 1_556 S
C263 C262 1.372 1_554 S
C263 C264 1.400 . S
C263 C268 1.490 . S
C264 H254 0.930 . S
C264 C263 1.400 . S
C264 C267 1.386 . S
H265 C281 0.930 . S
H266 C282 0.931 . S
C267 H255 0.929 . S
C267 C261 1.390 . S
C267 C264 1.386 . S
C268 C263 1.490 . S
C268 C270 1.395 1_554 S
C268 C271 1.403 . S
H269 C275 0.930 . S
C270 H256 0.930 . S
C270 C268 1.395 1_556 S
C270 C273 1.403 1_545 S
C271 C268 1.403 . S
C271 C272 1.524 . S
C271 C275 1.400 1_545 S
C272 H257 0.960 . S
C272 H258 0.960 . S
C272 H259 0.960 . S
C272 C271 1.524 . S
C273 C270 1.403 1_565 S
C273 C274 1.392 1_556 S
C273 C277 1.495 . S
C274 C273 1.392 1_554 S
C274 C275 1.385 . S
C274 C276 1.478 . S
C275 H269 0.930 . S
C275 C271 1.400 1_565 S
C275 C274 1.385 . S
C276 C274 1.478 . S
C276 C278 1.381 1_554 S
C276 C282 1.383 . S
C277 C273 1.495 . S
C277 H283 0.959 . S
C277 H284 0.961 1_556 S
C277 H285 0.960 . S
C278 C276 1.381 1_556 S
C278 C279 1.394 . S
C278 H286 0.930 . S
C279 C278 1.394 . S
C279 C280 1.383 1_556 S
C279 H287 0.929 . S
C280 C279 1.383 1_554 S
C280 C281 1.377 . S
C281 H265 0.930 . S
C281 C280 1.377 . S
C281 C282 1.379 . S
C282 H266 0.931 . S
C282 C276 1.383 . S
C282 C281 1.379 . S
H283 C277 0.959 . S
H284 C277 0.961 1_554 S
H285 C277 0.960 . S
H286 C278 0.930 . S
H287 C279 0.929 . S
H288 C296 0.929 . S
H289 C298 0.930 . S
H290 C300 0.930 . S
H291 C303 0.929 . S
H292 C306 0.930 . S
H293 C308 0.960 . S
H294 C308 0.960 1_554 S
H295 C308 0.960 . S
C296 H288 0.929 . S
C296 C297 1.377 . S
C296 C298 1.384 . S
C297 C296 1.377 . S
C297 C303 1.390 1_554 S
C298 H289 0.930 . S
C298 C296 1.384 . S
C298 C299 1.372 . S
C299 C298 1.372 . S
C299 C300 1.400 1_554 S
C299 C304 1.490 . S
C300 H290 0.930 . S
C300 C299 1.400 1_556 S
C300 C303 1.386 . S
H301 C317 0.930 . S
H302 C318 0.931 . S
C303 H291 0.929 . S
C303 C297 1.390 1_556 S
C303 C300 1.386 . S
C304 C299 1.490 . S
C304 C306 1.395 . S
C304 C307 1.403 . S
H305 C311 0.930 1_556 S
C306 H292 0.930 . S
C306 C304 1.395 . S
C306 C309 1.403 . S
C307 C304 1.403 . S
C307 C308 1.524 1_554 S
C307 C311 1.400 . S
C308 H293 0.960 . S
C308 H294 0.960 1_556 S
C308 H295 0.960 . S
C308 C307 1.524 1_556 S
C309 C306 1.403 . S
C309 C310 1.392 . S
C309 C313 1.495 . S
C310 C309 1.392 . S
C310 C311 1.385 . S
C310 C312 1.478 . S
C311 H305 0.930 1_554 S
C311 C307 1.400 . S
C311 C310 1.385 . S
C312 C310 1.478 . S
C312 C314 1.381 . S
C312 C318 1.383 1_554 S
C313 C309 1.495 . S
C313 H319 0.959 . S
C313 H320 0.961 . S
C313 H321 0.960 . S
C314 C312 1.381 . S
C314 C315 1.394 . S
C314 H322 0.930 . S
C315 C314 1.394 . S
C315 C316 1.383 . S
C315 H323 0.929 . S
C316 C315 1.383 . S
C316 C317 1.377 1_554 S
C317 H301 0.930 . S
C317 C316 1.377 1_556 S
C317 C318 1.379 . S
C318 H302 0.931 . S
C318 C312 1.383 1_556 S
C318 C317 1.379 . S
H319 C313 0.959 . S
H320 C313 0.961 . S
H321 C313 0.960 . S
H322 C314 0.930 . S
H323 C315 0.929 . S
H324 C332 0.929 . S
H325 C334 0.930 . S
H326 C336 0.930 . S
H327 C339 0.929 . S
H328 C342 0.930 . S
H329 C344 0.960 . S
H330 C344 0.960 . S
H331 C344 0.960 . S
C332 H324 0.929 . S
C332 C333 1.377 . S
C332 C334 1.384 . S
C333 C332 1.377 . S
C333 C339 1.390 1_554 S
C334 H325 0.930 . S
C334 C332 1.384 . S
C334 C335 1.372 . S
C335 C334 1.372 . S
C335 C336 1.400 1_554 S
C335 C340 1.490 . S
C336 H326 0.930 . S
C336 C335 1.400 1_556 S
C336 C339 1.386 . S
H337 C353 0.930 . S
H338 C354 0.931 . S
C339 H327 0.929 . S
C339 C333 1.390 1_556 S
C339 C336 1.386 . S
C340 C335 1.490 . S
C340 C342 1.395 . S
C340 C343 1.403 . S
H341 C347 0.930 . S
C342 H328 0.930 . S
C342 C340 1.395 . S
C342 C345 1.403 . S
C343 C340 1.403 . S
C343 C344 1.524 . S
C343 C347 1.400 . S
C344 H329 0.960 . S
C344 H330 0.960 . S
C344 H331 0.960 . S
C344 C343 1.524 . S
C345 C342 1.403 . S
C345 C346 1.392 . S
C345 C349 1.491 1_554 S
C346 C345 1.392 . S
C346 C347 1.385 . S
C346 C348 1.478 1_455 S
C347 H341 0.930 . S
C347 C343 1.400 . S
C347 C346 1.385 . S
C348 C346 1.478 1_655 S
C348 C350 1.381 . S
C348 C354 1.383 1_554 S
C349 C345 1.491 1_556 S
C349 H355 0.963 . S
C349 H356 0.974 . S
C349 H357 0.947 1_556 S
C350 C348 1.381 . S
C350 C351 1.394 . S
C350 H358 0.930 . S
C351 C350 1.394 . S
C351 C352 1.383 . S
C351 H359 0.929 . S
C352 C351 1.383 . S
C352 C353 1.377 1_554 S
C353 H337 0.930 . S
C353 C352 1.377 1_556 S
C353 C354 1.379 . S
C354 H338 0.931 . S
C354 C348 1.383 1_556 S
C354 C353 1.379 . S
H355 C349 0.963 . S
H356 C349 0.974 . S
H357 C349 0.947 1_554 S
H358 C350 0.930 . S
H359 C351 0.929 . S
H360 C368 0.929 . S
H361 C370 0.930 . S
H362 C372 0.930 1_556 S
H363 C375 0.923 1_556 S
H364 C378 0.930 . S
H365 C380 0.960 . S
H366 C380 0.960 . S
H367 C380 0.960 . S
C368 H360 0.929 . S
C368 C369 1.377 . S
C368 C370 1.384 . S
C369 C368 1.377 . S
C369 C375 1.396 . S
C370 H361 0.930 . S
C370 C368 1.384 . S
C370 C371 1.372 . S
C371 C370 1.372 . S
C371 C372 1.400 . S
C371 C376 1.490 . S
C372 H362 0.930 1_554 S
C372 C371 1.400 . S
C372 C375 1.386 . S
H373 C389 0.930 1_556 S
H374 C390 0.931 1_556 S
C375 H363 0.923 1_554 S
C375 C369 1.396 . S
C375 C372 1.386 . S
C376 C371 1.490 . S
C376 C378 1.395 . S
C376 C379 1.403 . S
H377 C383 0.930 . S
C378 H364 0.930 . S
C378 C376 1.395 . S
C378 C381 1.403 1_565 S
C379 C376 1.403 . S
C379 C380 1.524 . S
C379 C383 1.400 1_565 S
C380 H365 0.960 . S
C380 H366 0.960 . S
C380 H367 0.960 . S
C380 C379 1.524 . S
C381 C378 1.403 1_545 S
C381 C382 1.392 . S
C381 C385 1.495 . S
C382 C381 1.392 . S
C382 C383 1.385 . S
C382 C384 1.478 . S
C383 H377 0.930 . S
C383 C379 1.400 1_545 S
C383 C382 1.385 . S
C384 C382 1.478 . S
C384 C386 1.381 . S
C384 C390 1.383 . S
C385 C381 1.495 . S
C385 H391 0.957 1_554 S
C385 H392 0.961 1_554 S
C385 H393 0.960 . S
C386 C384 1.381 . S
C386 C387 1.394 . S
C386 H394 0.930 . S
C387 C386 1.394 . S
C387 C388 1.383 . S
C387 H395 0.929 . S
C388 C387 1.383 . S
C388 C389 1.377 . S
C389 H373 0.930 1_554 S
C389 C388 1.377 . S
C389 C390 1.379 . S
C390 H374 0.931 1_554 S
C390 C384 1.383 . S
C390 C389 1.379 . S
H391 C385 0.957 1_556 S
H392 C385 0.961 1_556 S
H393 C385 0.960 . S
H394 C386 0.930 . S
H395 C387 0.929 . S
H396 C404 0.929 . S
H397 C406 0.930 . S
H398 C408 0.930 . S
H399 C411 0.929 . S
H400 C414 0.930 . S
H401 C416 0.960 . S
H402 C416 0.960 . S
H403 C416 0.960 . S
C404 H396 0.929 . S
C404 C405 1.377 . S
C404 C406 1.384 . S
C405 C404 1.377 . S
C405 C411 1.390 1_554 S
C406 H397 0.930 . S
C406 C404 1.384 . S
C406 C407 1.372 . S
C407 C406 1.372 . S
C407 C408 1.400 1_554 S
C407 C412 1.490 . S
C408 H398 0.930 . S
C408 C407 1.400 1_556 S
C408 C411 1.386 . S
H409 C425 0.930 . S
H410 C426 0.931 . S
C411 H399 0.929 . S
C411 C405 1.390 1_556 S
C411 C408 1.386 . S
C412 C407 1.490 . S
C412 C414 1.395 1_554 S
C412 C415 1.403 . S
H413 C419 0.930 . S
C414 H400 0.930 . S
C414 C412 1.395 1_556 S
C414 C417 1.403 . S
C415 C412 1.403 . S
C415 C416 1.524 . S
C415 C419 1.400 . S
C416 H401 0.960 . S
C416 H402 0.960 . S
C416 H403 0.960 . S
C416 C415 1.524 . S
C417 C414 1.403 . S
C417 C418 1.392 1_556 S
C417 C421 1.495 . S
C418 C417 1.392 1_554 S
C418 C419 1.385 . S
C418 C420 1.478 . S
C419 H413 0.930 . S
C419 C415 1.400 . S
C419 C418 1.385 . S
C420 C418 1.478 . S
C420 C422 1.381 . S
C420 C426 1.383 1_554 S
C421 C417 1.495 . S
C421 H427 0.959 . S
C421 H428 0.961 . S
C421 H429 0.960 . S
C422 C420 1.381 . S
C422 C423 1.394 . S
C422 H430 0.930 . S
C423 C422 1.394 . S
C423 C424 1.383 . S
C423 H431 0.929 . S
C424 C423 1.383 . S
C424 C425 1.377 1_554 S
C425 H409 0.930 . S
C425 C424 1.377 1_556 S
C425 C426 1.379 . S
C426 H410 0.931 . S
C426 C420 1.383 1_556 S
C426 C425 1.379 . S
H427 C421 0.959 . S
H428 C421 0.961 . S
H429 C421 0.960 . S
H430 C422 0.930 . S
H431 C423 0.929 . S
H432 C440 0.929 . S
H433 C442 0.930 . S
H434 C444 0.930 1_556 S
H435 C447 0.929 1_556 S
H436 C450 0.930 . S
H437 C452 0.960 . S
H438 C452 0.960 . S
H439 C452 0.960 1_556 S
C440 H432 0.929 . S
C440 C441 1.377 . S
C440 C442 1.384 . S
C441 C440 1.377 . S
C441 C447 1.390 . S
C442 H433 0.930 . S
C442 C440 1.384 . S
C442 C443 1.372 . S
C443 C442 1.372 . S
C443 C444 1.400 . S
C443 C448 1.490 . S
C444 H434 0.930 1_554 S
C444 C443 1.400 . S
C444 C447 1.386 . S
H445 C461 0.930 . S
H446 C462 0.928 1_556 S
C447 H435 0.929 1_554 S
C447 C441 1.390 . S
C447 C444 1.386 . S
C448 C443 1.490 . S
C448 C450 1.395 . S
C448 C451 1.403 . S
H449 C455 0.930 . S
C450 H436 0.930 . S
C450 C448 1.395 . S
C450 C453 1.403 . S
C451 C448 1.403 . S
C451 C452 1.524 . S
C451 C455 1.400 . S
C452 H437 0.960 . S
C452 H438 0.960 . S
C452 H439 0.960 1_554 S
C452 C451 1.524 . S
C453 C450 1.403 . S
C453 C454 1.392 . S
C453 C457 1.495 . S
C454 C453 1.392 . S
C454 C455 1.385 . S
C454 C456 1.478 . S
C455 H449 0.930 . S
C455 C451 1.400 . S
C455 C454 1.385 . S
C456 C454 1.478 . S
C456 C458 1.381 . S
C456 C462 1.386 . S
C457 C453 1.495 . S
C457 H463 0.959 . S
C457 H464 0.961 . S
C457 H465 0.960 . S
C458 C456 1.381 . S
C458 C459 1.394 . S
C458 H466 0.930 . S
C459 C458 1.394 . S
C459 C460 1.383 . S
C459 H467 0.929 . S
C460 C459 1.383 . S
C460 C461 1.377 1_554 S
C461 H445 0.930 . S
C461 C460 1.377 1_556 S
C461 C462 1.379 1_556 S
C462 H446 0.928 1_554 S
C462 C456 1.386 . S
C462 C461 1.379 1_554 S
H463 C457 0.959 . S
H464 C457 0.961 . S
H465 C457 0.960 . S
H466 C458 0.930 . S
H467 C459 0.929 . S
H468 C476 0.929 . S
H469 C478 0.930 . S
H470 C480 0.930 . S
H471 C483 0.930 . S
H472 C486 0.930 . S
H473 C488 0.960 . S
H474 C488 0.960 . S
H475 C488 0.960 . S
C476 H468 0.929 . S
C476 C477 1.377 . S
C476 C478 1.384 . S
C477 C476 1.377 . S
C477 C483 1.390 . S
C478 H469 0.930 . S
C478 C476 1.384 . S
C478 C479 1.372 . S
C479 C478 1.372 . S
C479 C480 1.400 . S
C479 C484 1.490 . S
C480 H470 0.930 . S
C480 C479 1.400 . S
C480 C483 1.386 . S
H481 C497 0.930 . S
H482 C498 0.931 . S
C483 H471 0.930 . S
C483 C477 1.390 . S
C483 C480 1.386 . S
C484 C479 1.490 . S
C484 C486 1.395 1_554 S
C484 C487 1.403 . S
H485 C491 0.930 . S
C486 H472 0.930 . S
C486 C484 1.395 1_556 S
C486 C489 1.403 . S
C487 C484 1.403 . S
C487 C488 1.524 . S
C487 C491 1.400 . S
C488 H473 0.960 . S
C488 H474 0.960 . S
C488 H475 0.960 . S
C488 C487 1.524 . S
C489 C486 1.403 . S
C489 C490 1.392 1_556 S
C489 C493 1.495 . S
C490 C489 1.392 1_554 S
C490 C491 1.385 . S
C490 C492 1.478 . S
C491 H485 0.930 . S
C491 C487 1.400 . S
C491 C490 1.385 . S
C492 C490 1.478 . S
C492 C494 1.381 . S
C492 C498 1.383 1_554 S
C493 C489 1.495 . S
C493 H499 0.959 . S
C493 H500 0.961 . S
C493 H501 0.960 . S
C494 C492 1.381 . S
C494 C495 1.394 . S
C494 H502 0.930 . S
C495 C494 1.394 . S
C495 C496 1.383 . S
C495 H503 0.929 . S
C496 C495 1.383 . S
C496 C497 1.377 1_554 S
C497 H481 0.930 . S
C497 C496 1.377 1_556 S
C497 C498 1.379 . S
C498 H482 0.931 . S
C498 C492 1.383 1_556 S
C498 C497 1.379 . S
H499 C493 0.959 . S
H500 C493 0.961 . S
H501 C493 0.960 . S
H502 C494 0.930 . S
H503 C495 0.929 . S
H504 C512 0.929 . S
H505 C514 0.930 . S
H506 C516 0.930 . S
H507 C519 0.929 . S
H508 C522 0.930 1_556 S
H509 C524 0.960 . S
H510 C524 0.960 . S
H511 C524 0.960 . S
C512 H504 0.929 . S
C512 C513 1.377 . S
C512 C514 1.384 . S
C513 C512 1.377 . S
C513 C519 1.390 . S
C514 H505 0.930 . S
C514 C512 1.384 . S
C514 C515 1.372 . S
C515 C514 1.372 . S
C515 C516 1.400 . S
C515 C520 1.490 . S
C516 H506 0.930 . S
C516 C515 1.400 . S
C516 C519 1.386 . S
H517 C533 0.930 . S
H518 C534 0.931 . S
C519 H507 0.929 . S
C519 C513 1.390 . S
C519 C516 1.386 . S
C520 C515 1.490 . S
C520 C522 1.395 . S
C520 C523 1.403 . S
H521 C527 0.930 . S
C522 H508 0.930 1_554 S
C522 C520 1.395 . S
C522 C525 1.403 . S
C523 C520 1.403 . S
C523 C524 1.524 . S
C523 C527 1.400 . S
C524 H509 0.960 . S
C524 H510 0.960 . S
C524 H511 0.960 . S
C524 C523 1.524 . S
C525 C522 1.403 . S
C525 C526 1.392 . S
C525 C529 1.495 1_554 S
C526 C525 1.392 . S
C526 C527 1.385 . S
C526 C528 1.478 . S
C527 H521 0.930 . S
C527 C523 1.400 . S
C527 C526 1.385 . S
C528 C526 1.478 . S
C528 C530 1.381 . S
C528 C534 1.383 . S
C529 C525 1.495 1_556 S
C529 H535 0.959 . S
C529 H536 0.961 . S
C529 H537 0.960 1_556 S
C530 C528 1.381 . S
C530 C531 1.394 . S
C530 H538 0.930 . S
C531 C530 1.394 . S
C531 C532 1.383 . S
C531 H539 0.929 . S
C532 C531 1.383 . S
C532 C533 1.377 . S
C533 H517 0.930 . S
C533 C532 1.377 . S
C533 C534 1.379 . S
C534 H518 0.931 . S
C534 C528 1.383 . S
C534 C533 1.379 . S
H535 C529 0.959 . S
H536 C529 0.961 . S
H537 C529 0.960 1_554 S
H538 C530 0.930 . S
H539 C531 0.929 . S
H540 C548 0.929 . S
H541 C550 0.930 . S
H542 C552 0.930 . S
H543 C555 0.929 . S
H544 C558 0.930 . S
H545 C560 0.960 . S
H546 C560 0.960 . S
H547 C560 0.960 . S
C548 H540 0.929 . S
C548 C549 1.377 . S
C548 C550 1.384 . S
C549 C548 1.377 . S
C549 C555 1.390 1_554 S
C550 H541 0.930 . S
C550 C548 1.384 . S
C550 C551 1.372 . S
C551 C550 1.372 . S
C551 C552 1.400 1_554 S
C551 C556 1.490 . S
C552 H542 0.930 . S
C552 C551 1.400 1_556 S
C552 C555 1.386 . S
H553 C569 0.930 . S
H554 C570 0.931 . S
C555 H543 0.929 . S
C555 C549 1.390 1_556 S
C555 C552 1.386 . S
C556 C551 1.490 . S
C556 C558 1.395 . S
C556 C559 1.403 1_554 S
H557 C563 0.930 . S
C558 H544 0.930 . S
C558 C556 1.395 . S
C558 C561 1.403 . S
C559 C556 1.403 1_556 S
C559 C560 1.524 . S
C559 C563 1.400 . S
C560 H545 0.960 . S
C560 H546 0.960 . S
C560 H547 0.960 . S
C560 C559 1.524 . S
C561 C558 1.403 . S
C561 C562 1.392 . S
C561 C565 1.495 . S
C562 C561 1.392 . S
C562 C563 1.385 1_554 S
C562 C564 1.478 . S
C563 H557 0.930 . S
C563 C559 1.400 . S
C563 C562 1.385 1_556 S
C564 C562 1.478 . S
C564 C566 1.381 . S
C564 C570 1.383 1_554 S
C565 C561 1.495 . S
C565 H571 0.959 . S
C565 H572 0.961 . S
C565 H573 0.960 . S
C566 C564 1.381 . S
C566 C567 1.394 . S
C566 H574 0.930 . S
C567 C566 1.394 . S
C567 C568 1.383 . S
C567 H575 0.929 . S
C568 C567 1.383 . S
C568 C569 1.377 1_554 S
C569 H553 0.930 . S
C569 C568 1.377 1_556 S
C569 C570 1.379 . S
C570 H554 0.931 . S
C570 C564 1.383 1_556 S
C570 C569 1.379 . S
H571 C565 0.959 . S
H572 C565 0.961 . S
H573 C565 0.960 . S
H574 C566 0.930 . S
H575 C567 0.929 . S
H576 C584 0.929 1_556 S
H577 C586 0.930 1_556 S
H578 C588 0.930 . S
H579 C591 0.929 . S
H580 C594 0.930 . S
H581 C596 0.960 . S
H582 C596 0.960 . S
H583 C596 0.960 . S
C584 H576 0.929 1_554 S
C584 C585 1.377 . S
C584 C586 1.384 . S
C585 C584 1.377 . S
C585 C591 1.390 . S
C586 H577 0.930 1_554 S
C586 C584 1.384 . S
C586 C587 1.372 . S
C587 C586 1.372 . S
C587 C588 1.400 . S
C587 C592 1.490 . S
C588 H578 0.930 . S
C588 C587 1.400 . S
C588 C591 1.386 . S
H589 C605 0.930 . S
H590 C606 0.931 . S
C591 H579 0.929 . S
C591 C585 1.390 . S
C591 C588 1.386 . S
C592 C587 1.490 . S
C592 C594 1.395 1_554 S
C592 C595 1.403 . S
H593 C599 0.930 . S
C594 H580 0.930 . S
C594 C592 1.395 1_556 S
C594 C597 1.403 . S
C595 C592 1.403 . S
C595 C596 1.524 . S
C595 C599 1.400 . S
C596 H581 0.960 . S
C596 H582 0.960 . S
C596 H583 0.960 . S
C596 C595 1.524 . S
C597 C594 1.403 . S
C597 C598 1.392 1_556 S
C597 C601 1.495 . S
C598 C597 1.392 1_554 S
C598 C599 1.385 . S
C598 C600 1.478 . S
C599 H593 0.930 . S
C599 C595 1.400 . S
C599 C598 1.385 . S
C600 C598 1.478 . S
C600 C602 1.381 . S
C600 C606 1.383 . S
C601 C597 1.495 . S
C601 H607 0.959 . S
C601 H608 0.961 . S
C601 H609 0.960 . S
C602 C600 1.381 . S
C602 C603 1.394 . S
C602 H610 0.930 1_554 S
C603 C602 1.394 . S
C603 C604 1.383 . S
C603 H611 0.929 1_554 S
C604 C603 1.383 . S
C604 C605 1.377 . S
C605 H589 0.930 . S
C605 C604 1.377 . S
C605 C606 1.379 . S
C606 H590 0.931 . S
C606 C600 1.383 . S
C606 C605 1.379 . S
H607 C601 0.959 . S
H608 C601 0.961 . S
H609 C601 0.960 . S
H610 C602 0.930 1_556 S
H611 C603 0.929 1_556 S
H612 C620 0.929 . S
H613 C622 0.930 . S
H614 C624 0.930 . S
H615 C627 0.929 . S
H616 C630 0.930 . S
H617 C632 0.960 . S
H618 C632 0.960 . S
H619 C632 0.960 . S
C620 H612 0.929 . S
C620 C621 1.377 . S
C620 C622 1.384 . S
C621 C620 1.377 . S
C621 C627 1.390 . S
C622 H613 0.930 . S
C622 C620 1.384 . S
C622 C623 1.372 . S
C623 C622 1.372 . S
C623 C624 1.400 . S
C623 C628 1.490 . S
C624 H614 0.930 . S
C624 C623 1.400 . S
C624 C627 1.386 . S
H625 C641 0.930 . S
H626 C642 0.931 . S
C627 H615 0.929 . S
C627 C621 1.390 . S
C627 C624 1.386 . S
C628 C623 1.490 . S
C628 C630 1.395 . S
C628 C631 1.403 . S
H629 C635 0.930 . S
C630 H616 0.930 . S
C630 C628 1.395 . S
C630 C633 1.403 . S
C631 C628 1.403 . S
C631 C632 1.524 . S
C631 C635 1.400 . S
C632 H617 0.960 . S
C632 H618 0.960 . S
C632 H619 0.960 . S
C632 C631 1.524 . S
C633 C630 1.403 . S
C633 C634 1.392 . S
C633 C637 1.495 . S
C634 C633 1.392 . S
C634 C635 1.385 . S
C634 C636 1.478 . S
C635 H629 0.930 . S
C635 C631 1.400 . S
C635 C634 1.385 . S
C636 C634 1.478 . S
C636 C638 1.381 . S
C636 C642 1.383 . S
C637 C633 1.495 . S
C637 H643 0.959 . S
C637 H644 0.961 . S
C637 H645 0.960 . S
C638 C636 1.381 . S
C638 C639 1.394 . S
C638 H646 0.930 . S
C639 C638 1.394 . S
C639 C640 1.383 . S
C639 H647 0.929 . S
C640 C639 1.383 . S
C640 C641 1.377 . S
C641 H625 0.930 . S
C641 C640 1.377 . S
C641 C642 1.379 . S
C642 H626 0.931 . S
C642 C636 1.383 . S
C642 C641 1.379 . S
H643 C637 0.959 . S
H644 C637 0.961 . S
H645 C637 0.960 . S
H646 C638 0.930 . S
H647 C639 0.929 . S
H648 C656 0.929 . S
H649 C658 0.930 . S
H650 C660 0.930 . S
H651 C663 0.929 . S
H652 C666 0.930 . S
H653 C668 0.960 . S
H654 C668 0.960 . S
H655 C668 0.960 . S
C656 H648 0.929 . S
C656 C657 1.377 . S
C656 C658 1.384 . S
C657 C656 1.377 . S
C657 C663 1.390 . S
C658 H649 0.930 . S
C658 C656 1.384 . S
C658 C659 1.372 . S
C659 C658 1.372 . S
C659 C660 1.400 . S
C659 C664 1.490 . S
C660 H650 0.930 . S
C660 C659 1.400 . S
C660 C663 1.386 . S
H661 C677 0.930 . S
H662 C678 0.931 . S
C663 H651 0.929 . S
C663 C657 1.390 . S
C663 C660 1.386 . S
C664 C659 1.490 . S
C664 C666 1.395 . S
C664 C667 1.403 . S
H665 C671 0.930 . S
C666 H652 0.930 . S
C666 C664 1.395 . S
C666 C669 1.403 . S
C667 C664 1.403 . S
C667 C668 1.524 . S
C667 C671 1.400 . S
C668 H653 0.960 . S
C668 H654 0.960 . S
C668 H655 0.960 . S
C668 C667 1.524 . S
C669 C666 1.403 . S
C669 C670 1.392 . S
C669 C673 1.495 . S
C670 C669 1.392 . S
C670 C671 1.385 . S
C670 C672 1.478 . S
C671 H665 0.930 . S
C671 C667 1.400 . S
C671 C670 1.385 . S
C672 C670 1.478 . S
C672 C674 1.381 . S
C672 C678 1.383 . S
C673 C669 1.495 . S
C673 H679 0.959 . S
C673 H680 0.961 . S
C673 H681 0.960 . S
C674 C672 1.381 . S
C674 C675 1.394 . S
C674 H682 0.930 . S
C675 C674 1.394 . S
C675 C676 1.383 . S
C675 H683 0.929 . S
C676 C675 1.383 . S
C676 C677 1.377 . S
C677 H661 0.930 . S
C677 C676 1.377 . S
C677 C678 1.379 . S
C678 H662 0.931 . S
C678 C672 1.383 . S
C678 C677 1.379 . S
H679 C673 0.959 . S
H680 C673 0.961 . S
H681 C673 0.960 . S
H682 C674 0.930 . S
H683 C675 0.929 . S
H684 C692 0.929 . S
H685 C694 0.930 . S
H686 C696 0.930 . S
H687 C699 0.929 . S
H688 C702 0.930 . S
H689 C704 0.960 . S
H690 C704 0.960 . S
H691 C704 0.960 . S
C692 H684 0.929 . S
C692 C693 1.377 . S
C692 C694 1.384 . S
C693 C692 1.377 . S
C693 C699 1.390 . S
C694 H685 0.930 . S
C694 C692 1.384 . S
C694 C695 1.372 . S
C695 C694 1.372 . S
C695 C696 1.400 . S
C695 C700 1.490 . S
C696 H686 0.930 . S
C696 C695 1.400 . S
C696 C699 1.386 . S
H697 C713 0.930 . S
H698 C714 0.931 . S
C699 H687 0.929 . S
C699 C693 1.390 . S
C699 C696 1.386 . S
C700 C695 1.490 . S
C700 C702 1.395 . S
C700 C703 1.403 . S
H701 C707 0.930 . S
C702 H688 0.930 . S
C702 C700 1.395 . S
C702 C705 1.403 . S
C703 C700 1.403 . S
C703 C704 1.524 . S
C703 C707 1.400 . S
C704 H689 0.960 . S
C704 H690 0.960 . S
C704 H691 0.960 . S
C704 C703 1.524 . S
C705 C702 1.403 . S
C705 C706 1.392 . S
C705 C709 1.495 . S
C706 C705 1.392 . S
C706 C707 1.385 . S
C706 C708 1.478 . S
C707 H701 0.930 . S
C707 C703 1.400 . S
C707 C706 1.385 . S
C708 C706 1.478 . S
C708 C710 1.381 . S
C708 C714 1.383 . S
C709 C705 1.495 . S
C709 H715 0.959 . S
C709 H716 0.961 . S
C709 H717 0.960 . S
C710 C708 1.381 . S
C710 C711 1.394 . S
C710 H718 0.930 . S
C711 C710 1.394 . S
C711 C712 1.383 . S
C711 H719 0.929 . S
C712 C711 1.383 . S
C712 C713 1.377 . S
C713 H697 0.930 . S
C713 C712 1.377 . S
C713 C714 1.379 . S
C714 H698 0.931 . S
C714 C708 1.383 . S
C714 C713 1.379 . S
H715 C709 0.959 . S
H716 C709 0.961 . S
H717 C709 0.960 . S
H718 C710 0.930 . S
H719 C711 0.929 . S
H720 C728 0.929 . S
H721 C730 0.930 . S
H722 C732 0.930 . S
H723 C735 0.929 . S
H724 C738 0.930 . S
H725 C740 0.960 . S
H726 C740 0.960 . S
H727 C740 0.960 . S
C728 H720 0.929 . S
C728 C729 1.377 . S
C728 C730 1.384 . S
C729 C728 1.377 . S
C729 C735 1.390 . S
C730 H721 0.930 . S
C730 C728 1.384 . S
C730 C731 1.372 . S
C731 C730 1.372 . S
C731 C732 1.400 . S
C731 C736 1.490 . S
C732 H722 0.930 . S
C732 C731 1.400 . S
C732 C735 1.386 . S
H733 C749 0.930 . S
H734 C750 0.931 . S
C735 H723 0.929 . S
C735 C729 1.390 . S
C735 C732 1.386 . S
C736 C731 1.490 . S
C736 C738 1.395 . S
C736 C739 1.403 . S
H737 C743 0.930 . S
C738 H724 0.930 . S
C738 C736 1.395 . S
C738 C741 1.403 . S
C739 C736 1.403 . S
C739 C740 1.524 . S
C739 C743 1.400 . S
C740 H725 0.960 . S
C740 H726 0.960 . S
C740 H727 0.960 . S
C740 C739 1.524 . S
C741 C738 1.403 . S
C741 C742 1.392 . S
C741 C745 1.495 . S
C742 C741 1.392 . S
C742 C743 1.385 . S
C742 C744 1.478 . S
C743 H737 0.930 . S
C743 C739 1.400 . S
C743 C742 1.385 . S
C744 C742 1.478 . S
C744 C746 1.381 . S
C744 C750 1.383 . S
C745 C741 1.495 . S
C745 H751 0.959 . S
C745 H752 0.961 . S
C745 H753 0.960 . S
C746 C744 1.381 . S
C746 C747 1.394 . S
C746 H754 0.930 . S
C747 C746 1.394 . S
C747 C748 1.383 . S
C747 H755 0.929 . S
C748 C747 1.383 . S
C748 C749 1.377 . S
C749 H733 0.930 . S
C749 C748 1.377 . S
C749 C750 1.379 . S
C750 H734 0.931 . S
C750 C744 1.383 . S
C750 C749 1.379 . S
H751 C745 0.959 . S
H752 C745 0.961 . S
H753 C745 0.960 . S
H754 C746 0.930 . S
H755 C747 0.929 . S
H756 C764 0.929 . S
H757 C766 0.930 . S
H758 C768 0.930 . S
H759 C771 0.929 . S
H760 C774 0.930 . S
H761 C776 0.960 . S
H762 C776 0.960 . S
H763 C776 0.960 . S
C764 H756 0.929 . S
C764 C765 1.377 . S
C764 C766 1.384 . S
C765 C764 1.377 . S
C765 C771 1.390 . S
C766 H757 0.930 . S
C766 C764 1.384 . S
C766 C767 1.372 . S
C767 C766 1.372 . S
C767 C768 1.400 . S
C767 C772 1.490 . S
C768 H758 0.930 . S
C768 C767 1.400 . S
C768 C771 1.386 . S
H769 C785 0.930 . S
H770 C786 0.931 . S
C771 H759 0.929 . S
C771 C765 1.390 . S
C771 C768 1.386 . S
C772 C767 1.490 . S
C772 C774 1.395 . S
C772 C775 1.403 . S
H773 C779 0.930 . S
C774 H760 0.930 . S
C774 C772 1.395 . S
C774 C777 1.403 . S
C775 C772 1.403 . S
C775 C776 1.524 . S
C775 C779 1.400 . S
C776 H761 0.960 . S
C776 H762 0.960 . S
C776 H763 0.960 . S
C776 C775 1.524 . S
C777 C774 1.403 . S
C777 C778 1.392 . S
C777 C781 1.495 . S
C778 C777 1.392 . S
C778 C779 1.385 . S
C778 C780 1.478 . S
C779 H773 0.930 . S
C779 C775 1.400 . S
C779 C778 1.385 . S
C780 C778 1.478 . S
C780 C782 1.381 . S
C780 C786 1.383 . S
C781 C777 1.495 . S
C781 H787 0.959 . S
C781 H788 0.961 . S
C781 H789 0.960 . S
C782 C780 1.381 . S
C782 C783 1.394 . S
C782 H790 0.930 . S
C783 C782 1.394 . S
C783 C784 1.383 . S
C783 H791 0.929 . S
C784 C783 1.383 . S
C784 C785 1.377 . S
C785 H769 0.930 . S
C785 C784 1.377 . S
C785 C786 1.379 . S
C786 H770 0.931 . S
C786 C780 1.383 . S
C786 C785 1.379 . S
H787 C781 0.959 . S
H788 C781 0.961 . S
H789 C781 0.960 . S
H790 C782 0.930 . S
H791 C783 0.929 . S
H792 C800 0.929 . S
H793 C802 0.930 . S
H794 C804 0.930 . S
H795 C807 0.929 . S
H796 C810 0.930 . S
H797 C812 0.960 . S
H798 C812 0.960 . S
H799 C812 0.960 . S
C800 H792 0.929 . S
C800 C801 1.377 . S
C800 C802 1.384 . S
C801 C800 1.377 . S
C801 C807 1.390 . S
C802 H793 0.930 . S
C802 C800 1.384 . S
C802 C803 1.372 . S
C803 C802 1.372 . S
C803 C804 1.400 . S
C803 C808 1.490 . S
C804 H794 0.930 . S
C804 C803 1.400 . S
C804 C807 1.386 . S
H805 C821 0.930 . S
H806 C822 0.931 . S
C807 H795 0.929 . S
C807 C801 1.390 . S
C807 C804 1.386 . S
C808 C803 1.490 . S
C808 C810 1.395 . S
C808 C811 1.403 . S
H809 C815 0.930 . S
C810 H796 0.930 . S
C810 C808 1.395 . S
C810 C813 1.403 . S
C811 C808 1.403 . S
C811 C812 1.524 . S
C811 C815 1.400 . S
C812 H797 0.960 . S
C812 H798 0.960 . S
C812 H799 0.960 . S
C812 C811 1.524 . S
C813 C810 1.403 . S
C813 C814 1.392 . S
C813 C817 1.495 . S
C814 C813 1.392 . S
C814 C815 1.385 . S
C814 C816 1.478 . S
C815 H809 0.930 . S
C815 C811 1.400 . S
C815 C814 1.385 . S
C816 C814 1.478 . S
C816 C818 1.381 . S
C816 C822 1.383 . S
C817 C813 1.495 . S
C817 H823 0.959 . S
C817 H824 0.961 . S
C817 H825 0.960 . S
C818 C816 1.381 . S
C818 C819 1.394 . S
C818 H826 0.930 . S
C819 C818 1.394 . S
C819 C820 1.383 . S
C819 H827 0.929 . S
C820 C819 1.383 . S
C820 C821 1.377 . S
C821 H805 0.930 . S
C821 C820 1.377 . S
C821 C822 1.379 . S
C822 H806 0.931 . S
C822 C816 1.383 . S
C822 C821 1.379 . S
H823 C817 0.959 . S
H824 C817 0.961 . S
H825 C817 0.960 . S
H826 C818 0.930 . S
H827 C819 0.929 . S
C189 C166 0.887 . S
C208 C27 0.843 . S
C225 N14 1.401 . S
C244 C46 1.534 . S
C261 N36 1.574 . S
C280 N74 1.562 . S
C297 C106 0.874 . S
C316 C87 0.909 . S
C333 C147 1.532 . S
C352 N96 1.445 . S
C369 N134 1.578 . S
C388 N156 1.500 . S
C405 N126 1.462 . S
C424 C16 1.496 . S
C441 C177 1.891 . S
C460 C57 1.898 . S
C477 N66 1.212 1_554 S
C496 N6 1.224 . S
C513 C117 1.489 . S
C532 N44 1.455 . S
C549 C136 1.900 . S
C568 C76 1.881 . S
C585 N104 1.211 . S
C604 N164 1.231 . S
C621 C10 1.492 . S
C640 C1 1.489 . S
C657 C40 1.497 . S
C676 C31 1.499 . S
C693 C61 1.495 . S
C712 C70 1.497 . S
C729 C100 1.492 . S
C748 C91 1.486 . S
C765 C121 1.496 . S
C784 C130 1.488 . S
C801 C151 1.496 . S
C820 C160 1.490 . S
