# Generated by pormake.
# Topology pcl, (4)-cn, num edge types: 1
# Building blocks:
#     Node 0, Type 0, BuildingBlock: NAHDIM_clean_sbu_0, # of connection points: 4
#     Node 1, Type 0, BuildingBlock: NAHDIM_clean_sbu_0, # of connection points: 4
#     Node 2, Type 0, BuildingBlock: NAHDIM_clean_sbu_0, # of connection points: 4
#     Node 3, Type 0, BuildingBlock: NAHDIM_clean_sbu_0, # of connection points: 4
#     Node 4, Type 0, BuildingBlock: NAHDIM_clean_sbu_0, # of connection points: 4
#     Node 5, Type 0, BuildingBlock: NAHDIM_clean_sbu_0, # of connection points: 4
#     Node 6, Type 0, BuildingBlock: NAHDIM_clean_sbu_0, # of connection points: 4
#     Node 7, Type 0, BuildingBlock: NAHDIM_clean_sbu_0, # of connection points: 4
#     Node 8, Type 0, BuildingBlock: NAHDIM_clean_sbu_0, # of connection points: 4
#     Node 9, Type 0, BuildingBlock: NAHDIM_clean_sbu_0, # of connection points: 4
#     Node 10, Type 0, BuildingBlock: NAHDIM_clean_sbu_0, # of connection points: 4
#     Node 11, Type 0, BuildingBlock: NAHDIM_clean_sbu_0, # of connection points: 4
#     Node 12, Type 0, BuildingBlock: NAHDIM_clean_sbu_0, # of connection points: 4
#     Node 13, Type 0, BuildingBlock: NAHDIM_clean_sbu_0, # of connection points: 4
#     Node 14, Type 0, BuildingBlock: NAHDIM_clean_sbu_0, # of connection points: 4
#     Node 15, Type 0, BuildingBlock: NAHDIM_clean_sbu_0, # of connection points: 4
#     Edge 16, Type (0, 0), BuildingBlock: XIVTED_clean_linker_0, # of connection points: 2
#     Edge 17, Type (0, 0), BuildingBlock: XIVTED_clean_linker_0, # of connection points: 2
#     Edge 18, Type (0, 0), BuildingBlock: XIVTED_clean_linker_0, # of connection points: 2
#     Edge 19, Type (0, 0), BuildingBlock: XIVTED_clean_linker_0, # of connection points: 2
#     Edge 20, Type (0, 0), BuildingBlock: XIVTED_clean_linker_0, # of connection points: 2
#     Edge 21, Type (0, 0), BuildingBlock: XIVTED_clean_linker_0, # of connection points: 2
#     Edge 22, Type (0, 0), BuildingBlock: XIVTED_clean_linker_0, # of connection points: 2
#     Edge 23, Type (0, 0), BuildingBlock: XIVTED_clean_linker_0, # of connection points: 2
#     Edge 24, Type (0, 0), BuildingBlock: XIVTED_clean_linker_0, # of connection points: 2
#     Edge 25, Type (0, 0), BuildingBlock: XIVTED_clean_linker_0, # of connection points: 2
#     Edge 26, Type (0, 0), BuildingBlock: XIVTED_clean_linker_0, # of connection points: 2
#     Edge 27, Type (0, 0), BuildingBlock: XIVTED_clean_linker_0, # of connection points: 2
#     Edge 28, Type (0, 0), BuildingBlock: XIVTED_clean_linker_0, # of connection points: 2
#     Edge 29, Type (0, 0), BuildingBlock: XIVTED_clean_linker_0, # of connection points: 2
#     Edge 30, Type (0, 0), BuildingBlock: XIVTED_clean_linker_0, # of connection points: 2
#     Edge 31, Type (0, 0), BuildingBlock: XIVTED_clean_linker_0, # of connection points: 2
#     Edge 32, Type (0, 0), BuildingBlock: XIVTED_clean_linker_0, # of connection points: 2
#     Edge 33, Type (0, 0), BuildingBlock: XIVTED_clean_linker_0, # of connection points: 2
#     Edge 34, Type (0, 0), BuildingBlock: XIVTED_clean_linker_0, # of connection points: 2
#     Edge 35, Type (0, 0), BuildingBlock: XIVTED_clean_linker_0, # of connection points: 2
#     Edge 36, Type (0, 0), BuildingBlock: XIVTED_clean_linker_0, # of connection points: 2
#     Edge 37, Type (0, 0), BuildingBlock: XIVTED_clean_linker_0, # of connection points: 2
#     Edge 38, Type (0, 0), BuildingBlock: XIVTED_clean_linker_0, # of connection points: 2
#     Edge 39, Type (0, 0), BuildingBlock: XIVTED_clean_linker_0, # of connection points: 2
#     Edge 40, Type (0, 0), BuildingBlock: XIVTED_clean_linker_0, # of connection points: 2
#     Edge 41, Type (0, 0), BuildingBlock: XIVTED_clean_linker_0, # of connection points: 2
#     Edge 42, Type (0, 0), BuildingBlock: XIVTED_clean_linker_0, # of connection points: 2
#     Edge 43, Type (0, 0), BuildingBlock: XIVTED_clean_linker_0, # of connection points: 2
#     Edge 44, Type (0, 0), BuildingBlock: XIVTED_clean_linker_0, # of connection points: 2
#     Edge 45, Type (0, 0), BuildingBlock: XIVTED_clean_linker_0, # of connection points: 2
#     Edge 46, Type (0, 0), BuildingBlock: XIVTED_clean_linker_0, # of connection points: 2
#     Edge 47, Type (0, 0), BuildingBlock: XIVTED_clean_linker_0, # of connection points: 2
# Relax obj value: 0.089
# Max RMSD: 0.096
# Mean RMSD: 0.087
data_MOF--net-pcl--node1-NAHDIM_clean_sbu_0--edge1-XIVTED_clean_linker_0
_symmetry_space_group_name_H-M    P1
_symmetry_Int_Tables_number       1
_symmetry_cell_setting            triclinic
loop_
_symmetry_equiv_pos_as_xyz
'x, y, z'
_cell_length_a     48.501616
_cell_length_b     48.537945
_cell_length_c     43.182832
_cell_angle_alpha  90.201364
_cell_angle_beta   89.80916
_cell_angle_gamma 90.121575
loop_
_atom_site_label
_atom_site_type_symbol
_atom_site_fract_x
_atom_site_fract_y
_atom_site_fract_z
_atom_type_partial_charge
C0 C 0.21451 0.32046 0.05396 0.0
O1 O 0.22804 0.34013 0.0684 0.0
O2 O 0.17591 0.34791 0.12318 0.0
Zn3 Zn 0.16817 0.34999 0.07762 0.0
O4 O 0.17935 0.38662 0.06048 0.0
C5 C 0.11364 0.32872 0.08819 0.0
O6 O 0.12662 0.31386 0.10889 0.0
O7 O 0.18834 0.32026 0.05496 0.0
C8 C 0.16806 0.40832 0.07095 0.0
O9 O 0.14976 0.40624 0.09334 0.0
C10 C 0.19166 0.36405 0.1382 0.0
O11 O 0.20527 0.38344 0.12347 0.0
O12 O 0.12734 0.3454 0.0715 0.0
C13 C 0.79645 0.66949 0.54261 0.0
O14 O 0.78347 0.64781 0.55358 0.0
O15 O 0.83772 0.63353 0.60399 0.0
Zn16 Zn 0.84329 0.63725 0.55822 0.0
O17 O 0.83019 0.60303 0.53681 0.0
C18 C 0.89853 0.65729 0.56647 0.0
O19 O 0.887 0.67067 0.58961 0.0
O20 O 0.82262 0.66979 0.54242 0.0
C21 C 0.83393 0.60091 0.50778 0.0
O22 O 0.84558 0.62142 0.49284 0.0
C23 C 0.85132 0.61515 0.61813 0.0
O24 O 0.8679 0.59904 0.6022 0.0
O25 O 0.88368 0.64195 0.54941 0.0
C26 C 0.20123 0.66895 0.94871 0.0
O27 O 0.21508 0.64781 0.93772 0.0
O28 O 0.16732 0.62654 0.88898 0.0
Zn29 Zn 0.15655 0.63399 0.93313 0.0
O30 O 0.16685 0.60234 0.96037 0.0
C31 C 0.10176 0.61545 0.93302 0.0
O32 O 0.11519 0.59219 0.92931 0.0
O33 O 0.17507 0.66804 0.9489 0.0
C34 C 0.1835 0.58332 0.95276 0.0
O35 O 0.19595 0.5843 0.92572 0.0
C36 C 0.16994 0.64649 0.87025 0.0
O37 O 0.16625 0.67176 0.88044 0.0
O38 O 0.11537 0.63778 0.93516 0.0
C39 C 0.7671 0.32675 0.4278 0.0
O40 O 0.75232 0.34337 0.4106 0.0
O41 O 0.80886 0.3549 0.35952 0.0
Zn42 Zn 0.81456 0.35814 0.40555 0.0
O43 O 0.80607 0.39634 0.4207 0.0
C44 C 0.86978 0.33644 0.3979 0.0
O45 O 0.85924 0.3241 0.37351 0.0
O46 O 0.79309 0.3297 0.4287 0.0
C47 C 0.82035 0.41564 0.4089 0.0
O48 O 0.83843 0.4096 0.38719 0.0
C49 C 0.79531 0.37211 0.34355 0.0
O50 O 0.78256 0.39255 0.35748 0.0
O51 O 0.8545 0.35164 0.41466 0.0
C52 C 0.79545 0.65825 0.92972 0.0
O53 O 0.78158 0.63693 0.91917 0.0
O54 O 0.82594 0.59059 0.93225 0.0
Zn55 Zn 0.84136 0.62482 0.91215 0.0
O56 O 0.83745 0.62348 0.86576 0.0
C57 C 0.89553 0.60741 0.93131 0.0
O58 O 0.88282 0.58373 0.93507 0.0
O59 O 0.82162 0.65781 0.92888 0.0
C60 C 0.85436 0.60922 0.84989 0.0
O61 O 0.87356 0.59516 0.86423 0.0
C62 C 0.81807 0.56941 0.91728 0.0
O63 O 0.81841 0.56977 0.88688 0.0
O64 O 0.88185 0.62816 0.92219 0.0
C65 C 0.17287 0.31563 0.44013 0.0
O66 O 0.18599 0.3292 0.4183 0.0
O67 O 0.13001 0.38627 0.44183 0.0
Zn68 Zn 0.12818 0.34955 0.42029 0.0
O69 O 0.14426 0.35081 0.37736 0.0
C70 C 0.07214 0.34222 0.4392 0.0
O71 O 0.08194 0.35149 0.4656 0.0
O72 O 0.14765 0.32094 0.44537 0.0
C73 C 0.15825 0.3704 0.36575 0.0
O74 O 0.16327 0.39254 0.38239 0.0
C75 C 0.15163 0.39613 0.4542 0.0
O76 O 0.17486 0.38236 0.45235 0.0
O77 O 0.0884 0.33915 0.41636 0.0
C78 C 0.8108 0.31265 0.03707 0.0
O79 O 0.79613 0.33172 0.0511 0.0
O80 O 0.84233 0.38155 0.03382 0.0
Zn81 Zn 0.85342 0.3478 0.05768 0.0
O82 O 0.83989 0.34926 0.10169 0.0
C83 C 0.90712 0.32922 0.07623 0.0
O84 O 0.89254 0.3144 0.09576 0.0
O85 O 0.8369 0.3148 0.03685 0.0
C86 C 0.84322 0.37029 0.11886 0.0
O87 O 0.85577 0.39212 0.10766 0.0
C88 C 0.82222 0.39722 0.04064 0.0
O89 O 0.80701 0.39193 0.06514 0.0
O90 O 0.89473 0.34496 0.05742 0.0
C91 C 0.18752 0.65592 0.52719 0.0
O92 O 0.17955 0.63327 0.51305 0.0
O93 O 0.16165 0.59516 0.5624 0.0
Zn94 Zn 0.15712 0.63361 0.57934 0.0
O95 O 0.1681 0.63592 0.62411 0.0
C96 C 0.10358 0.64273 0.5517 0.0
O97 O 0.11556 0.63288 0.52668 0.0
O98 O 0.18037 0.66007 0.55515 0.0
C99 C 0.17079 0.61531 0.64189 0.0
O100 O 0.16711 0.59035 0.63079 0.0
C101 C 0.14217 0.57773 0.56466 0.0
O102 O 0.11941 0.58472 0.57925 0.0
O103 O 0.11745 0.6451 0.57647 0.0
C104 C 0.70115 0.81776 0.0327 0.0
O105 O 0.71537 0.83911 0.04254 0.0
O106 O 0.66265 0.84093 0.10737 0.0
Zn107 Zn 0.65778 0.84759 0.06188 0.0
O108 O 0.67419 0.88373 0.0479 0.0
C109 C 0.60356 0.86926 0.06309 0.0
O110 O 0.61697 0.88934 0.07689 0.0
O111 O 0.67541 0.81672 0.03813 0.0
C112 C 0.67851 0.90464 0.06503 0.0
O113 O 0.67278 0.90333 0.09474 0.0
C114 C 0.6843 0.84496 0.12324 0.0
O115 O 0.70657 0.85482 0.10987 0.0
O116 O 0.61688 0.84828 0.05375 0.0
C117 C 0.27349 0.16964 0.55769 0.0
O118 O 0.26021 0.15285 0.57634 0.0
O119 O 0.31132 0.13568 0.62002 0.0
Zn120 Zn 0.32064 0.13704 0.57458 0.0
O121 O 0.31405 0.10106 0.55285 0.0
C122 C 0.37767 0.14365 0.59233 0.0
O123 O 0.36834 0.13616 0.61962 0.0
O124 O 0.29925 0.16666 0.55372 0.0
C125 C 0.32648 0.07948 0.56167 0.0
O126 O 0.34246 0.08066 0.58615 0.0
C127 C 0.29956 0.11599 0.6342 0.0
O128 O 0.29043 0.09463 0.61852 0.0
O129 O 0.36097 0.14573 0.56985 0.0
C130 C 0.71817 0.15428 0.9298 0.0
O131 O 0.73231 0.1336 0.9182 0.0
O132 O 0.68112 0.11884 0.86462 0.0
Zn133 Zn 0.67304 0.12089 0.91017 0.0
O134 O 0.68584 0.08665 0.93168 0.0
C135 C 0.61702 0.10311 0.91778 0.0
O136 O 0.62883 0.0788 0.91667 0.0
O137 O 0.69202 0.15361 0.92867 0.0
C138 C 0.68692 0.08636 0.96107 0.0
O139 O 0.68065 0.10884 0.97657 0.0
C140 C 0.67781 0.09642 0.8498 0.0
O141 O 0.6702 0.07422 0.86492 0.0
O142 O 0.63193 0.12461 0.91578 0.0
C143 C 0.30516 0.79865 0.42344 0.0
O144 O 0.31533 0.79458 0.39556 0.0
O145 O 0.32779 0.85354 0.37347 0.0
Zn146 Zn 0.33387 0.85086 0.41948 0.0
O147 O 0.32514 0.88633 0.4413 0.0
C148 C 0.38945 0.83152 0.40782 0.0
O149 O 0.37908 0.82326 0.38129 0.0
O150 O 0.31049 0.82099 0.43762 0.0
C151 C 0.33507 0.90909 0.43203 0.0
O152 O 0.35039 0.90961 0.40688 0.0
C153 C 0.31253 0.87112 0.36018 0.0
O154 O 0.29861 0.889 0.3769 0.0
O155 O 0.37381 0.84305 0.42761 0.0
C156 C 0.31535 0.17265 0.93762 0.0
O157 O 0.30093 0.15441 0.92198 0.0
O158 O 0.34161 0.10293 0.94424 0.0
Zn159 Zn 0.35638 0.13526 0.92013 0.0
O160 O 0.34393 0.13407 0.87573 0.0
C161 C 0.41041 0.11212 0.92348 0.0
O162 O 0.39586 0.08928 0.92441 0.0
O163 O 0.34123 0.16938 0.93997 0.0
C164 C 0.34642 0.11296 0.85849 0.0
O165 O 0.35784 0.09059 0.86963 0.0
C166 C 0.32143 0.0878 0.93622 0.0
O167 O 0.30834 0.09281 0.91029 0.0
O168 O 0.39794 0.13507 0.92172 0.0
C169 C 0.69487 0.8238 0.4408 0.0
O170 O 0.70807 0.84508 0.4292 0.0
O171 O 0.65609 0.88761 0.4318 0.0
Zn172 Zn 0.6499 0.85067 0.41214 0.0
O173 O 0.66469 0.85068 0.3688 0.0
C174 C 0.59382 0.84485 0.4339 0.0
O175 O 0.60444 0.85308 0.46032 0.0
O176 O 0.66907 0.82167 0.4366 0.0
C177 C 0.65889 0.83009 0.35179 0.0
O178 O 0.64425 0.80982 0.36353 0.0
C179 C 0.64172 0.9081 0.42342 0.0
O180 O 0.62304 0.90469 0.40177 0.0
O181 O 0.60941 0.84231 0.41039 0.0
C182 C 0.29772 0.82975 0.04637 0.0
O183 O 0.28373 0.85031 0.05848 0.0
O184 O 0.32874 0.89683 0.04566 0.0
Zn185 Zn 0.34188 0.86275 0.06755 0.0
O186 O 0.33237 0.86286 0.11297 0.0
C187 C 0.39752 0.88174 0.06165 0.0
O188 O 0.3852 0.90577 0.06356 0.0
O189 O 0.32387 0.83021 0.04759 0.0
C190 C 0.33806 0.88273 0.1311 0.0
O191 O 0.35033 0.90479 0.12009 0.0
C192 C 0.3117 0.91449 0.05597 0.0
O193 O 0.30053 0.91123 0.08345 0.0
O194 O 0.38306 0.8599 0.06267 0.0
C195 C 0.67941 0.172 0.54587 0.0
O196 O 0.6951 0.15459 0.56092 0.0
O197 O 0.63929 0.10226 0.5396 0.0
Zn198 Zn 0.63663 0.13573 0.56684 0.0
O199 O 0.65449 0.12903 0.60801 0.0
C200 C 0.58064 0.14914 0.55251 0.0
O201 O 0.59064 0.15104 0.52428 0.0
O202 O 0.65353 0.16814 0.54542 0.0
C203 C 0.64874 0.10696 0.62242 0.0
O204 O 0.6322 0.08888 0.60939 0.0
C205 C 0.65996 0.08624 0.53923 0.0
O206 O 0.68119 0.0917 0.55706 0.0
O207 O 0.59672 0.14316 0.57461 0.0
H208 H 0.07775 0.29708 0.12199 0.0
H209 H 0.94336 0.35718 0.03904 0.0
H210 H 0.08033 0.35671 0.04806 0.0
H211 H 0.94037 0.29887 0.11426 0.0
H212 H 0.99363 0.35595 0.04082 0.0
H213 H 0.02751 0.29609 0.11825 0.0
C214 C 0.06778 0.30988 0.10487 0.0
C215 C 0.0833 0.32705 0.08535 0.0
C216 C 0.98199 0.34338 0.0569 0.0
C217 C 0.02575 0.32605 0.081 0.0
C218 C 0.95326 0.34406 0.0559 0.0
C219 C 0.93759 0.32814 0.07659 0.0
C220 C 0.99523 0.32667 0.07876 0.0
C221 C 0.95159 0.31151 0.09789 0.0
C222 C 0.03907 0.30932 0.10278 0.0
C223 C 0.06922 0.34319 0.06363 0.0
N224 N 0.97961 0.31125 0.09847 0.0
N225 N 0.04126 0.34233 0.06209 0.0
H226 H 0.92851 0.63499 0.51879 0.0
H227 H 0.07352 0.66743 0.59768 0.0
H228 H 0.93727 0.68209 0.6032 0.0
H229 H 0.06557 0.63151 0.50652 0.0
H230 H 0.02369 0.67402 0.59944 0.0
H231 H 0.97863 0.63448 0.51315 0.0
C232 C 0.94096 0.64537 0.53605 0.0
C233 C 0.92868 0.65846 0.56162 0.0
C234 C 0.03284 0.66489 0.57895 0.0
C235 C 0.98608 0.65782 0.55537 0.0
C236 C 0.06131 0.66108 0.57793 0.0
C237 C 0.07372 0.64874 0.55198 0.0
C238 C 0.01657 0.65608 0.55395 0.0
C239 C 0.05687 0.64105 0.52702 0.0
C240 C 0.96959 0.6451 0.53278 0.0
C241 C 0.94584 0.67168 0.58317 0.0
N242 N 0.02912 0.64464 0.52873 0.0
N243 N 0.97367 0.67084 0.57968 0.0
H244 H 0.93121 0.56583 0.94524 0.0
H245 H 0.06667 0.65979 0.93388 0.0
H246 H 0.92877 0.65296 0.92553 0.0
H247 H 0.06758 0.57088 0.93635 0.0
H248 H 0.0162 0.65861 0.93605 0.0
H249 H 0.98134 0.56834 0.9478 0.0
C250 C 0.94119 0.58555 0.94163 0.0
C251 C 0.92576 0.6092 0.93497 0.0
C252 C 0.02749 0.63939 0.93615 0.0
C253 C 0.98326 0.61218 0.93779 0.0
C254 C 0.05628 0.64005 0.93495 0.0
C255 C 0.07134 0.61539 0.9348 0.0
C256 C 0.01375 0.61391 0.93743 0.0
C257 C 0.05682 0.59039 0.93625 0.0
C258 C 0.96986 0.58694 0.943 0.0
C259 C 0.93987 0.63418 0.93058 0.0
N260 N 0.02886 0.59031 0.93751 0.0
N261 N 0.96786 0.63501 0.93198 0.0
H262 H 0.03077 0.35257 0.48089 0.0
H263 H 0.91011 0.31132 0.36335 0.0
H264 H 0.04538 0.32131 0.38855 0.0
H265 H 0.89685 0.35534 0.44917 0.0
H266 H 0.9594 0.30934 0.37491 0.0
H267 H 0.98122 0.34804 0.47237 0.0
C268 C 0.02358 0.34455 0.45891 0.0
C269 C 0.04225 0.33753 0.4353 0.0
C270 C 0.94566 0.31932 0.39126 0.0
C271 C 0.98556 0.33235 0.42538 0.0
C272 C 0.91752 0.32042 0.3847 0.0
C273 C 0.89937 0.33369 0.40522 0.0
C274 C 0.95566 0.33147 0.41859 0.0
C275 C 0.91012 0.34507 0.43257 0.0
C276 C 0.99528 0.34204 0.45403 0.0
C277 C 0.03173 0.32717 0.40732 0.0
N278 N 0.93756 0.34377 0.43841 0.0
N279 N 0.00407 0.32501 0.40308 0.0
H280 H 0.43447 0.92423 0.06444 0.0
H281 H 0.56766 0.82854 0.04475 0.0
H282 H 0.42979 0.83588 0.05346 0.0
H283 H 0.57053 0.91365 0.07398 0.0
H284 H 0.5173 0.83155 0.04208 0.0
H285 H 0.48462 0.92137 0.06222 0.0
C286 C 0.44397 0.90422 0.06145 0.0
C287 C 0.42789 0.88024 0.05929 0.0
C288 C 0.529 0.84955 0.04899 0.0
C289 C 0.48539 0.87683 0.0567 0.0
C290 C 0.55773 0.84788 0.05043 0.0
C291 C 0.5733 0.87084 0.05976 0.0
C292 C 0.51584 0.87441 0.05671 0.0
C293 C 0.55936 0.89538 0.06686 0.0
C294 C 0.47264 0.9026 0.06024 0.0
C295 C 0.44139 0.85488 0.05538 0.0
N296 N 0.53145 0.8965 0.06521 0.0
N297 N 0.46939 0.85384 0.05425 0.0
H298 H 0.53973 0.15956 0.5105 0.0
H299 H 0.41888 0.14127 0.63529 0.0
H300 H 0.55349 0.14545 0.60792 0.0
H301 H 0.40443 0.15592 0.53811 0.0
H302 H 0.46832 0.14583 0.62611 0.0
H303 H 0.49014 0.16141 0.52055 0.0
C304 C 0.53235 0.15702 0.53402 0.0
C305 C 0.55077 0.15214 0.55837 0.0
C306 C 0.45434 0.14819 0.60681 0.0
C307 C 0.49409 0.15415 0.57001 0.0
C308 C 0.42608 0.14558 0.61203 0.0
C309 C 0.40749 0.14803 0.58739 0.0
C310 C 0.46413 0.15319 0.57669 0.0
C311 C 0.41803 0.15375 0.55777 0.0
C312 C 0.50403 0.15806 0.53974 0.0
C313 C 0.54005 0.14909 0.5884 0.0
N314 N 0.44567 0.15598 0.55322 0.0
N315 N 0.51242 0.15 0.59333 0.0
H316 H 0.58529 0.14991 0.91835 0.0
H317 H 0.44292 0.06638 0.92722 0.0
H318 H 0.57957 0.06122 0.92283 0.0
H319 H 0.44736 0.15505 0.92096 0.0
H320 H 0.49312 0.06446 0.92721 0.0
H321 H 0.53497 0.15257 0.92093 0.0
C322 C 0.57348 0.131 0.91997 0.0
C323 C 0.58668 0.10529 0.92029 0.0
C324 C 0.48316 0.08436 0.92588 0.0
C325 C 0.52911 0.1082 0.9232 0.0
C326 C 0.45445 0.08548 0.92589 0.0
C327 C 0.44088 0.11092 0.92402 0.0
C328 C 0.49853 0.10885 0.92397 0.0
C329 C 0.45695 0.13498 0.92239 0.0
C330 C 0.54475 0.13254 0.92141 0.0
C331 C 0.57031 0.08149 0.92244 0.0
N332 N 0.48494 0.13335 0.92235 0.0
N333 N 0.54242 0.08353 0.92375 0.0
H334 H 0.41731 0.84561 0.46059 0.0
H335 H 0.56588 0.82535 0.38342 0.0
H336 H 0.42992 0.81356 0.36823 0.0
H337 H 0.55356 0.85248 0.47778 0.0
H338 H 0.51621 0.81891 0.37826 0.0
H339 H 0.46714 0.84606 0.46824 0.0
C340 C 0.43054 0.83848 0.44197 0.0
C341 C 0.41941 0.82971 0.41362 0.0
C342 C 0.52436 0.82614 0.40016 0.0
C343 C 0.47654 0.83033 0.42221 0.0
C344 C 0.55274 0.82987 0.40312 0.0
C345 C 0.5639 0.83964 0.43104 0.0
C346 C 0.50693 0.83235 0.42524 0.0
C347 C 0.54586 0.845 0.4558 0.0
C348 C 0.45902 0.83876 0.44637 0.0
C349 C 0.43757 0.82059 0.39041 0.0
N350 N 0.51825 0.84143 0.45226 0.0
N351 N 0.46525 0.82133 0.39514 0.0
H352 H 0.17188 0.3228 0.1748 0.0
H353 H 0.18615 0.40919 0.33155 0.0
H354 H 0.21194 0.40222 0.17932 0.0
H355 H 0.15199 0.3271 0.3259 0.0
H356 H 0.19884 0.40615 0.27671 0.0
H357 H 0.16779 0.3229 0.23099 0.0
C358 C 0.18004 0.34019 0.18766 0.0
C359 C 0.19204 0.36266 0.17233 0.0
C360 C 0.18875 0.38875 0.28758 0.0
C361 C 0.18716 0.36305 0.23681 0.0
C362 C 0.18147 0.39048 0.31887 0.0
C363 C 0.16772 0.36848 0.33326 0.0
C364 C 0.18215 0.36488 0.27063 0.0
C365 C 0.16232 0.34469 0.31574 0.0
C366 C 0.17769 0.34024 0.21979 0.0
C367 C 0.20245 0.38451 0.19021 0.0
N368 N 0.16938 0.34361 0.28535 0.0
N369 N 0.1995 0.38431 0.22154 0.0
H370 H 0.81859 0.6446 0.65804 0.0
H371 H 0.88548 0.57869 0.80965 0.0
H372 H 0.88044 0.58075 0.65585 0.0
H373 H 0.81933 0.63806 0.81236 0.0
H374 H 0.88335 0.57872 0.75324 0.0
H375 H 0.81789 0.64199 0.71452 0.0
C376 C 0.83194 0.62995 0.66942 0.0
C377 C 0.84968 0.61293 0.65219 0.0
C378 C 0.86922 0.59168 0.76615 0.0
C379 C 0.84905 0.60992 0.71683 0.0
C380 C 0.87045 0.5917 0.79839 0.0
C381 C 0.85262 0.60849 0.81576 0.0
C382 C 0.85011 0.60865 0.75109 0.0
C383 C 0.83351 0.62484 0.79989 0.0
C384 C 0.83153 0.62847 0.70168 0.0
C385 C 0.86647 0.5943 0.66818 0.0
N386 N 0.83283 0.62459 0.76843 0.0
N387 N 0.86583 0.59339 0.6996 0.0
H388 H 0.17479 0.59667 0.84067 0.0
H389 H 0.17949 0.66416 0.6721 0.0
H390 H 0.17632 0.68432 0.82397 0.0
H391 H 0.17311 0.57658 0.68791 0.0
H392 H 0.18352 0.67151 0.72776 0.0
H393 H 0.17925 0.58858 0.785 0.0
C394 C 0.17627 0.61422 0.82533 0.0
C395 C 0.17491 0.64123 0.83698 0.0
C396 C 0.18141 0.65066 0.71908 0.0
C397 C 0.17996 0.63209 0.77324 0.0
C398 C 0.17912 0.64643 0.68725 0.0
C399 C 0.17568 0.61971 0.67532 0.0
C400 C 0.18018 0.62803 0.7392 0.0
C401 C 0.17556 0.59754 0.6961 0.0
C402 C 0.17879 0.60958 0.79354 0.0
C403 C 0.17706 0.66316 0.81602 0.0
N404 N 0.17756 0.60221 0.72706 0.0
N405 N 0.17931 0.6581 0.78517 0.0
H406 H 0.82794 0.3257 0.15338 0.0
H407 H 0.7852 0.41368 0.30252 0.0
H408 H 0.83523 0.41429 0.15767 0.0
H409 H 0.8104 0.32855 0.30708 0.0
H410 H 0.79401 0.41311 0.24662 0.0
H411 H 0.81241 0.32555 0.20733 0.0
C412 C 0.82614 0.34513 0.16561 0.0
C413 C 0.83308 0.37004 0.15112 0.0
C414 C 0.79737 0.39452 0.25989 0.0
C415 C 0.81507 0.36999 0.21262 0.0
C416 C 0.79218 0.39476 0.2917 0.0
C417 C 0.79725 0.37116 0.30945 0.0
C418 C 0.8073 0.37042 0.24574 0.0
C419 C 0.80642 0.34725 0.29427 0.0
C420 C 0.81733 0.34501 0.19638 0.0
C421 C 0.83033 0.39461 0.16807 0.0
N422 N 0.81119 0.34749 0.26327 0.0
N423 N 0.82149 0.39398 0.19796 0.0
H424 H 0.69346 0.86558 0.32114 0.0
H425 H 0.64779 0.81297 0.15494 0.0
H426 H 0.64157 0.79428 0.30697 0.0
H427 H 0.71896 0.86522 0.16803 0.0
H428 H 0.64457 0.8069 0.21084 0.0
H429 H 0.70274 0.86685 0.26538 0.0
C430 C 0.68418 0.85009 0.30634 0.0
C431 C 0.66654 0.82992 0.31867 0.0
C432 C 0.66105 0.8195 0.20152 0.0
C433 C 0.6769 0.8314 0.25501 0.0
C434 C 0.66283 0.82307 0.16961 0.0
C435 C 0.68359 0.83975 0.15687 0.0
C436 C 0.67988 0.83305 0.22095 0.0
C437 C 0.70265 0.85218 0.17694 0.0
C438 C 0.68956 0.85079 0.27457 0.0
C439 C 0.65521 0.81027 0.29847 0.0
N440 N 0.70015 0.84883 0.20809 0.0
N441 N 0.66035 0.81168 0.26761 0.0
H442 H 0.32871 0.15761 0.82574 0.0
H443 H 0.29366 0.07148 0.67255 0.0
H444 H 0.34017 0.06963 0.81824 0.0
H445 H 0.30779 0.15932 0.67351 0.0
H446 H 0.30172 0.07048 0.72853 0.0
H447 H 0.3126 0.15838 0.77223 0.0
C448 C 0.32775 0.13843 0.81288 0.0
C449 C 0.33603 0.11354 0.82638 0.0
C450 C 0.30278 0.08998 0.71647 0.0
C451 C 0.3174 0.1143 0.76523 0.0
C452 C 0.29799 0.09061 0.6846 0.0
C453 C 0.30028 0.1155 0.66836 0.0
C454 C 0.30958 0.11445 0.73214 0.0
C455 C 0.30606 0.13965 0.6851 0.0
C456 C 0.31856 0.13891 0.78234 0.0
C457 C 0.33423 0.08931 0.80864 0.0
N458 N 0.31062 0.1385 0.71606 0.0
N459 N 0.32513 0.0903 0.77893 0.0
H460 H 0.6944 0.13813 0.81143 0.0
H461 H 0.64153 0.06163 0.65905 0.0
H462 H 0.66483 0.05417 0.81026 0.0
H463 H 0.67776 0.14296 0.65894 0.0
H464 H 0.65349 0.05705 0.71365 0.0
H465 H 0.69215 0.13888 0.75498 0.0
C466 C 0.68767 0.11976 0.7993 0.0
C467 C 0.67949 0.09614 0.81562 0.0
C468 C 0.65906 0.07581 0.70163 0.0
C469 C 0.67669 0.09693 0.75097 0.0
C470 C 0.65221 0.07845 0.67043 0.0
C471 C 0.65838 0.10285 0.65449 0.0
C472 C 0.672 0.0978 0.71708 0.0
C473 C 0.67243 0.12386 0.67037 0.0
C474 C 0.6864 0.1202 0.76704 0.0
C475 C 0.67115 0.07288 0.79865 0.0
N476 N 0.67851 0.12096 0.70087 0.0
N477 N 0.66969 0.07396 0.76727 0.0
H478 H 0.32586 0.8364 0.16419 0.0
H479 H 0.29864 0.91505 0.32388 0.0
H480 H 0.33489 0.92452 0.1737 0.0
H481 H 0.32638 0.8307 0.31898 0.0
H482 H 0.30232 0.918 0.26731 0.0
H483 H 0.31656 0.83328 0.21978 0.0
C484 C 0.32571 0.85511 0.17793 0.0
C485 C 0.33134 0.88075 0.16438 0.0
C486 C 0.30743 0.89884 0.2787 0.0
C487 C 0.32046 0.8773 0.22779 0.0
C488 C 0.30519 0.89708 0.31088 0.0
C489 C 0.31236 0.87263 0.32608 0.0
C490 C 0.31641 0.87584 0.26168 0.0
C491 C 0.32084 0.84999 0.30816 0.0
C492 C 0.32049 0.85328 0.20963 0.0
C493 C 0.33089 0.90432 0.18329 0.0
N494 N 0.3226 0.85213 0.27688 0.0
N495 N 0.32548 0.90205 0.21409 0.0
H496 H 0.33849 0.21397 0.97254 0.0
H497 H 0.19254 0.27872 0.01928 0.0
H498 H 0.26023 0.18373 0.93905 0.0
H499 H 0.27038 0.31344 0.04825 0.0
H500 H 0.21733 0.24361 0.98999 0.0
H501 H 0.31425 0.25066 0.0004 0.0
C502 C 0.31623 0.2151 0.97094 0.0
C503 C 0.30134 0.19571 0.95351 0.0
C504 C 0.22903 0.25891 0.0027 0.0
C505 C 0.27353 0.23751 0.9854 0.0
C506 C 0.21487 0.27896 0.01951 0.0
C507 C 0.22941 0.29904 0.03629 0.0
C508 C 0.25798 0.25883 0.0027 0.0
C509 C 0.25834 0.29834 0.03565 0.0
C510 C 0.30242 0.23604 0.98687 0.0
C511 C 0.27256 0.19818 0.95224 0.0
N512 N 0.27169 0.27852 0.01916 0.0
N513 N 0.25961 0.21863 0.96805 0.0
H514 H 0.74048 0.67489 0.53716 0.0
H515 H 0.7502 0.82113 0.4526 0.0
H516 H 0.81706 0.71742 0.51869 0.0
H517 H 0.67381 0.77719 0.46751 0.0
H518 H 0.77482 0.78438 0.47919 0.0
H519 H 0.71542 0.71328 0.51412 0.0
C520 C 0.75203 0.69233 0.52836 0.0
C521 C 0.78091 0.6929 0.52974 0.0
C522 C 0.75266 0.7828 0.47671 0.0
C523 C 0.75238 0.73686 0.50333 0.0
C524 C 0.73859 0.8038 0.46154 0.0
C525 C 0.70992 0.80218 0.45771 0.0
C526 C 0.73797 0.76001 0.48814 0.0
C527 C 0.69594 0.77925 0.46984 0.0
C528 C 0.7377 0.71423 0.51519 0.0
C529 C 0.79479 0.71605 0.51802 0.0
N530 N 0.71011 0.75903 0.48444 0.0
N531 N 0.78039 0.73707 0.50525 0.0
H532 H 0.24214 0.8226 0.03935 0.0
H533 H 0.25693 0.67713 0.95308 0.0
H534 H 0.32033 0.78403 0.0191 0.0
H535 H 0.17882 0.71567 0.97383 0.0
H536 H 0.28061 0.71663 0.97606 0.0
H537 H 0.21862 0.78397 0.0145 0.0
C538 C 0.25437 0.80601 0.02968 0.0
C539 C 0.28325 0.80652 0.03136 0.0
C540 C 0.25829 0.71646 0.97553 0.0
C541 C 0.25645 0.76223 0.00284 0.0
C542 C 0.24475 0.69393 0.96239 0.0
C543 C 0.21585 0.69307 0.96161 0.0
C544 C 0.24281 0.73829 0.98801 0.0
C545 C 0.20114 0.71543 0.97399 0.0
C546 C 0.24092 0.78395 0.01547 0.0
C547 C 0.29803 0.78447 0.01838 0.0
N548 N 0.21479 0.7371 0.98673 0.0
N549 N 0.28446 0.7632 0.00469 0.0
H550 H 0.65292 0.21109 0.51142 0.0
H551 H 0.79231 0.28927 0.46513 0.0
H552 H 0.73385 0.1865 0.54207 0.0
H553 H 0.7121 0.31341 0.43175 0.0
H554 H 0.77083 0.25224 0.49443 0.0
H555 H 0.67382 0.24935 0.48314 0.0
C556 C 0.67509 0.21375 0.51226 0.0
C557 C 0.69169 0.19552 0.52911 0.0
C558 C 0.75788 0.26561 0.48074 0.0
C559 C 0.7157 0.23927 0.49677 0.0
C560 C 0.77014 0.28682 0.46396 0.0
C561 C 0.75398 0.30448 0.44588 0.0
C562 C 0.7292 0.26194 0.47951 0.0
C563 C 0.72535 0.30026 0.44535 0.0
C564 C 0.68699 0.2356 0.49608 0.0
C565 C 0.72026 0.2 0.52937 0.0
N566 N 0.71386 0.27938 0.46191 0.0
N567 N 0.73134 0.2214 0.51341 0.0
H568 H 0.75597 0.81294 0.0188 0.0
H569 H 0.73983 0.66516 0.93782 0.0
H570 H 0.67801 0.77075 0.00882 0.0
H571 H 0.81799 0.70586 0.95246 0.0
H572 H 0.71648 0.70451 0.96161 0.0
H573 H 0.77874 0.7747 0.99238 0.0
C574 C 0.74361 0.79566 0.01099 0.0
C575 C 0.71504 0.79501 0.0161 0.0
C576 C 0.73873 0.70484 0.95956 0.0
C577 C 0.74101 0.75112 0.98584 0.0
C578 C 0.75208 0.68239 0.94595 0.0
C579 C 0.78091 0.68218 0.94323 0.0
C580 C 0.75434 0.72725 0.97049 0.0
C581 C 0.79572 0.70509 0.95415 0.0
C582 C 0.75664 0.77381 -0.00408 0.0
C583 C 0.70009 0.77209 0.00544 0.0
N584 N 0.78227 0.72666 0.96733 0.0
N585 N 0.71327 0.75103 0.99085 0.0
H586 H 0.29492 0.2064 0.51635 0.0
H587 H 0.15144 0.28218 0.48523 0.0
H588 H 0.21858 0.18295 0.56088 0.0
H589 H 0.22705 0.30068 0.43639 0.0
H590 H 0.17576 0.24684 0.51458 0.0
H591 H 0.27045 0.24219 0.48833 0.0
C592 C 0.27298 0.20878 0.52028 0.0
C593 C 0.25876 0.1916 0.54098 0.0
C594 C 0.18701 0.25864 0.49745 0.0
C595 C 0.23057 0.23265 0.50887 0.0
C596 C 0.17316 0.27884 0.48069 0.0
C597 C 0.18725 0.29438 0.45829 0.0
C598 C 0.21515 0.25403 0.4918 0.0
C599 C 0.21536 0.28917 0.45339 0.0
C600 C 0.25901 0.22924 0.50422 0.0
C601 C 0.23035 0.1957 0.54512 0.0
N602 N 0.22837 0.26944 0.47001 0.0
N603 N 0.21716 0.21583 0.52917 0.0
H604 H 0.75549 0.30306 0.03172 0.0
H605 H 0.77376 0.16264 0.93613 0.0
H606 H 0.83475 0.26916 0.00662 0.0
H607 H 0.6949 0.19915 0.95793 0.0
H608 H 0.79662 0.20117 0.96216 0.0
H609 H 0.73304 0.26468 0.00527 0.0
C610 C 0.76819 0.28752 0.02067 0.0
C611 C 0.79705 0.28932 0.02138 0.0
C612 C 0.77432 0.20076 0.9612 0.0
C613 C 0.77145 0.24529 0.991 0.0
C614 C 0.76125 0.17877 0.94633 0.0
C615 C 0.73238 0.17767 0.94486 0.0
C616 C 0.75839 0.22175 0.97473 0.0
C617 C 0.71722 0.19914 0.95849 0.0
C618 C 0.75534 0.26561 0.00553 0.0
C619 C 0.81244 0.26859 0.00663 0.0
N620 N 0.7304 0.22027 0.97288 0.0
N621 N 0.79944 0.24742 0.99205 0.0
H622 H 0.20812 0.65354 0.46793 0.0
H623 H 0.28199 0.80071 0.48107 0.0
H624 H 0.20604 0.70527 0.54948 0.0
H625 H 0.28843 0.74865 0.40007 0.0
H626 H 0.25326 0.76598 0.50579 0.0
H627 H 0.23672 0.68815 0.44197 0.0
C628 C 0.21365 0.67215 0.48037 0.0
C629 C 0.20469 0.6765 0.51094 0.0
C630 C 0.26093 0.76208 0.48261 0.0
C631 C 0.23732 0.71611 0.48141 0.0
C632 C 0.27736 0.78195 0.46844 0.0
C633 C 0.28767 0.77758 0.43844 0.0
C634 C 0.25466 0.73759 0.46671 0.0
C635 C 0.28094 0.75286 0.42325 0.0
C636 C 0.22998 0.69188 0.46554 0.0
C637 C 0.21247 0.70099 0.52593 0.0
N638 N 0.26483 0.73376 0.43756 0.0
N639 N 0.22831 0.71983 0.51102 0.0
H640 H 0.2129 0.53601 0.94175 0.0
H641 H 0.14839 0.45884 0.0883 0.0
H642 H 0.16029 0.5751 0.0097 0.0
H643 H 0.20193 0.41931 0.02162 0.0
H644 H 0.1562 0.50275 0.06235 0.0
H645 H 0.21297 0.49425 0.97328 0.0
C646 C 0.2016 0.53592 0.96342 0.0
C647 C 0.18632 0.55898 0.97292 0.0
C648 C 0.1664 0.48451 0.0535 0.0
C649 C 0.18619 0.51128 0.00899 0.0
C650 C 0.16193 0.45942 0.06831 0.0
C651 C 0.17429 0.43533 0.05692 0.0
C652 C 0.18326 0.48552 0.027 0.0
C653 C 0.19181 0.43735 0.03107 0.0
C654 C 0.20162 0.51206 0.9814 0.0
C655 C 0.17216 0.55774 0.0013 0.0
N656 N 0.19559 0.46198 0.01682 0.0
N657 N 0.17226 0.53422 0.01817 0.0
H658 H 0.80723 0.55559 0.53085 0.0
H659 H 0.84314 0.46215 0.38426 0.0
H660 H 0.8457 0.58692 0.44778 0.0
H661 H 0.7926 0.43401 0.46036 0.0
H662 H 0.84269 0.50847 0.40634 0.0
H663 H 0.80001 0.51142 0.50478 0.0
C664 C 0.81398 0.55325 0.50706 0.0
C665 C 0.82732 0.5749 0.49155 0.0
C666 C 0.83149 0.49224 0.4181 0.0
C667 C 0.81925 0.52436 0.46166 0.0
C668 C 0.83179 0.46576 0.40553 0.0
C669 C 0.81809 0.44414 0.42065 0.0
C670 C 0.81764 0.49712 0.44619 0.0
C671 C 0.80353 0.45006 0.44801 0.0
C672 C 0.80981 0.52803 0.49217 0.0
C673 C 0.83547 0.57076 0.46068 0.0
N674 N 0.80392 0.47595 0.46008 0.0
N675 N 0.83154 0.54589 0.44685 0.0
H676 H 0.79388 0.4438 0.05703 0.0
H677 H 0.81696 0.51714 0.89363 0.0
H678 H 0.83817 0.4064 0.98095 0.0
H679 H 0.80685 0.5627 0.97895 0.0
H680 H 0.8136 0.47414 0.9228 0.0
H681 H 0.7879 0.4855 0.02582 0.0
C682 C 0.80208 0.44426 0.03368 0.0
C683 C 0.81676 0.42176 0.02161 0.0
C684 C 0.81184 0.49359 0.93503 0.0
C685 C 0.80971 0.46903 0.98588 0.0
C686 C 0.8136 0.51811 0.91842 0.0
C687 C 0.81245 0.54351 0.93396 0.0
C688 C 0.80855 0.49449 0.96731 0.0
C689 C 0.80812 0.54354 0.96612 0.0
C690 C 0.79873 0.46804 0.01598 0.0
C691 C 0.82699 0.42342 0.99125 0.0
N692 N 0.80641 0.51936 0.9818 0.0
N693 N 0.82327 0.44667 0.97441 0.0
H694 H 0.10567 0.42506 0.47088 0.0
H695 H 0.18811 0.55397 0.53898 0.0
H696 H 0.19456 0.42768 0.47557 0.0
H697 H 0.10156 0.53939 0.55618 0.0
H698 H 0.19089 0.50935 0.51258 0.0
H699 H 0.10372 0.46882 0.49873 0.0
C700 C 0.12481 0.43487 0.47772 0.0
C701 C 0.15034 0.42271 0.47088 0.0
C702 C 0.17135 0.51589 0.52228 0.0
C703 C 0.14821 0.47286 0.50275 0.0
C704 C 0.16972 0.54135 0.53729 0.0
C705 C 0.14455 0.55041 0.54978 0.0
C706 C 0.14757 0.49954 0.51944 0.0
C707 C 0.1214 0.53322 0.54697 0.0
C708 C 0.12365 0.4598 0.49374 0.0
C709 C 0.17444 0.43631 0.48043 0.0
N710 N 0.12344 0.50869 0.53194 0.0
N711 N 0.17279 0.46075 0.49579 0.0
H712 H 0.68792 0.07765 0.02369 0.0
H713 H 0.69329 0.9141 0.00484 0.0
H714 H 0.69778 0.03562 0.93606 0.0
H715 H 0.68192 0.95549 0.09261 0.0
H716 H 0.70108 0.95861 0.98029 0.0
H717 H 0.69165 0.03344 0.05021 0.0
C718 C 0.69115 0.05917 0.01003 0.0
C719 C 0.6922 0.0603 0.97758 0.0
C720 C 0.69713 0.95797 0.00497 0.0
C721 C 0.69638 0.00963 0.00778 0.0
C722 C 0.69269 0.93254 0.01903 0.0
C723 C 0.68657 0.93109 0.05077 0.0
C724 C 0.69531 0.9822 0.02272 0.0
C725 C 0.68634 0.95565 0.06803 0.0
C726 C 0.69326 0.03393 0.0252 0.0
C727 C 0.6966 0.03571 0.9611 0.0
N728 N 0.69033 0.98024 0.05371 0.0
N729 N 0.69827 0.01137 0.97637 0.0
H730 H 0.33952 0.96249 0.41272 0.0
H731 H 0.33681 0.02694 0.58077 0.0
H732 H 0.32113 0.91313 0.49315 0.0
H733 H 0.31203 0.0739 0.5009 0.0
H734 H 0.3362 0.98502 0.54897 0.0
H735 H 0.33456 0.00414 0.44454 0.0
C736 C 0.33435 0.96045 0.43703 0.0
C737 C 0.33076 0.93439 0.45038 0.0
C738 C 0.33069 0.0045 0.53854 0.0
C739 C 0.32548 0.9817 0.48679 0.0
C740 C 0.33113 0.02838 0.55659 0.0
C741 C 0.32449 0.05386 0.5434 0.0
C742 C 0.32418 0.00628 0.50696 0.0
C743 C 0.31719 0.05462 0.51198 0.0
C744 C 0.33142 0.98416 0.45509 0.0
C745 C 0.32398 0.93285 0.48195 0.0
N746 N 0.31756 0.03119 0.49469 0.0
N747 N 0.32188 0.9562 0.49921 0.0
H748 H 0.31391 0.92059 -0.00662 0.0
H749 H 0.32963 0.08055 -0.00194 0.0
H750 H 0.29877 0.96571 0.07798 0.0
H751 H 0.29733 0.03985 0.91688 0.0
H752 H 0.3215 0.03847 0.0279 0.0
H753 H 0.31076 0.96371 0.96434 0.0
C754 C 0.30964 0.93957 0.00576 0.0
C755 C 0.30671 0.93972 0.03807 0.0
C756 C 0.31586 0.03892 0.00366 0.0
C757 C 0.30361 0.98893 0.0052 0.0
C758 C 0.32062 0.0628 0.98662 0.0
C759 C 0.31425 0.06353 0.95498 0.0
C760 C 0.30536 0.01545 0.98873 0.0
C761 C 0.30249 0.04009 0.94125 0.0
C762 C 0.30773 0.96407 0.9892 0.0
C763 C 0.30109 0.96478 0.05305 0.0
N764 N 0.29884 0.01677 0.95811 0.0
N765 N 0.30022 0.98854 0.03653 0.0
H766 H 0.69717 0.0438 0.53826 0.0
H767 H 0.61152 0.955 0.41486 0.0
H768 H 0.62101 0.0709 0.4969 0.0
H769 H 0.68056 0.92299 0.46625 0.0
H770 H 0.61728 -0.00076 0.4412 0.0
H771 H 0.69405 0.001 0.5084 0.0
C772 C 0.67988 0.04084 0.52278 0.0
C773 C 0.65925 0.0609 0.52019 0.0
C774 C 0.63121 0.98255 0.44667 0.0
C775 C 0.65554 0.01201 0.48601 0.0
C776 C 0.62796 0.95729 0.4316 0.0
C777 C 0.64551 0.93522 0.43846 0.0
C778 C 0.65223 0.98582 0.46868 0.0
C779 C 0.66647 0.93941 0.46034 0.0
C780 C 0.67807 0.01637 0.50581 0.0
C781 C 0.63732 0.05594 0.49976 0.0
N782 N 0.66922 0.9642 0.47471 0.0
N783 N 0.63602 0.03198 0.48352 0.0
loop_
_geom_bond_atom_site_label_1
_geom_bond_atom_site_label_2
_geom_bond_distance
_geom_bond_site_symmetry_2
_ccdc_geom_bond_type
C0 O1 1.160 . S
C0 O7 1.185 . S
O1 C0 1.160 . S
O2 Zn3 1.899 . S
O2 C10 1.284 . S
Zn3 O2 1.899 . S
Zn3 O4 2.032 . S
Zn3 O7 2.086 . S
Zn3 O12 1.977 . S
O4 Zn3 2.032 . S
O4 C8 1.278 . S
C5 O6 1.203 . S
C5 O12 1.267 . S
O6 C5 1.203 . S
O7 C0 1.185 . S
O7 Zn3 2.086 . S
C8 O4 1.278 . S
C8 O9 1.211 . S
O9 C8 1.211 . S
C10 O2 1.284 . S
C10 O11 1.273 . S
O11 C10 1.273 . S
O12 Zn3 1.977 . S
O12 C5 1.267 . S
C13 O14 1.160 . S
C13 O20 1.185 . S
O14 C13 1.160 . S
O15 Zn16 1.899 . S
O15 C23 1.284 . S
Zn16 O15 1.899 . S
Zn16 O17 2.032 . S
Zn16 O20 2.086 . S
Zn16 O25 1.977 . S
O17 Zn16 2.032 . S
O17 C21 1.278 . S
C18 O19 1.203 . S
C18 O25 1.267 . S
O19 C18 1.203 . S
O20 C13 1.185 . S
O20 Zn16 2.086 . S
C21 O17 1.278 . S
C21 O22 1.211 . S
O22 C21 1.211 . S
C23 O15 1.284 . S
C23 O24 1.273 . S
O24 C23 1.273 . S
O25 Zn16 1.977 . S
O25 C18 1.267 . S
C26 O27 1.160 . S
C26 O33 1.185 . S
O27 C26 1.160 . S
O28 Zn29 1.899 . S
O28 C36 1.284 . S
Zn29 O28 1.899 . S
Zn29 O30 2.032 . S
Zn29 O33 2.086 . S
Zn29 O38 1.977 . S
O30 Zn29 2.032 . S
O30 C34 1.278 . S
C31 O32 1.203 . S
C31 O38 1.267 . S
O32 C31 1.203 . S
O33 C26 1.185 . S
O33 Zn29 2.086 . S
C34 O30 1.278 . S
C34 O35 1.211 . S
O35 C34 1.211 . S
C36 O28 1.284 . S
C36 O37 1.273 . S
O37 C36 1.273 . S
O38 Zn29 1.977 . S
O38 C31 1.267 . S
C39 O40 1.160 . S
C39 O46 1.185 . S
O40 C39 1.160 . S
O41 Zn42 1.899 . S
O41 C49 1.284 . S
Zn42 O41 1.899 . S
Zn42 O43 2.032 . S
Zn42 O46 2.086 . S
Zn42 O51 1.977 . S
O43 Zn42 2.032 . S
O43 C47 1.278 . S
C44 O45 1.203 . S
C44 O51 1.267 . S
O45 C44 1.203 . S
O46 C39 1.185 . S
O46 Zn42 2.086 . S
C47 O43 1.278 . S
C47 O48 1.211 . S
O48 C47 1.211 . S
C49 O41 1.284 . S
C49 O50 1.273 . S
O50 C49 1.273 . S
O51 Zn42 1.977 . S
O51 C44 1.267 . S
C52 O53 1.160 . S
C52 O59 1.185 . S
O53 C52 1.160 . S
O54 Zn55 1.899 . S
O54 C62 1.284 . S
Zn55 O54 1.899 . S
Zn55 O56 2.032 . S
Zn55 O59 2.086 . S
Zn55 O64 1.977 . S
O56 Zn55 2.032 . S
O56 C60 1.278 . S
C57 O58 1.203 . S
C57 O64 1.267 . S
O58 C57 1.203 . S
O59 C52 1.185 . S
O59 Zn55 2.086 . S
C60 O56 1.278 . S
C60 O61 1.211 . S
O61 C60 1.211 . S
C62 O54 1.284 . S
C62 O63 1.273 . S
O63 C62 1.273 . S
O64 Zn55 1.977 . S
O64 C57 1.267 . S
C65 O66 1.160 . S
C65 O72 1.185 . S
O66 C65 1.160 . S
O67 Zn68 1.899 . S
O67 C75 1.284 . S
Zn68 O67 1.899 . S
Zn68 O69 2.032 . S
Zn68 O72 2.086 . S
Zn68 O77 1.977 . S
O69 Zn68 2.032 . S
O69 C73 1.278 . S
C70 O71 1.203 . S
C70 O77 1.267 . S
O71 C70 1.203 . S
O72 C65 1.185 . S
O72 Zn68 2.086 . S
C73 O69 1.278 . S
C73 O74 1.211 . S
O74 C73 1.211 . S
C75 O67 1.284 . S
C75 O76 1.273 . S
O76 C75 1.273 . S
O77 Zn68 1.977 . S
O77 C70 1.267 . S
C78 O79 1.160 . S
C78 O85 1.185 . S
O79 C78 1.160 . S
O80 Zn81 1.899 . S
O80 C88 1.284 . S
Zn81 O80 1.899 . S
Zn81 O82 2.032 . S
Zn81 O85 2.086 . S
Zn81 O90 1.977 . S
O82 Zn81 2.032 . S
O82 C86 1.278 . S
C83 O84 1.203 . S
C83 O90 1.267 . S
O84 C83 1.203 . S
O85 C78 1.185 . S
O85 Zn81 2.086 . S
C86 O82 1.278 . S
C86 O87 1.211 . S
O87 C86 1.211 . S
C88 O80 1.284 . S
C88 O89 1.273 . S
O89 C88 1.273 . S
O90 Zn81 1.977 . S
O90 C83 1.267 . S
C91 O92 1.160 . S
C91 O98 1.185 . S
O92 C91 1.160 . S
O93 Zn94 1.899 . S
O93 C101 1.284 . S
Zn94 O93 1.899 . S
Zn94 O95 2.032 . S
Zn94 O98 2.086 . S
Zn94 O103 1.977 . S
O95 Zn94 2.032 . S
O95 C99 1.278 . S
C96 O97 1.203 . S
C96 O103 1.267 . S
O97 C96 1.203 . S
O98 C91 1.185 . S
O98 Zn94 2.086 . S
C99 O95 1.278 . S
C99 O100 1.211 . S
O100 C99 1.211 . S
C101 O93 1.284 . S
C101 O102 1.273 . S
O102 C101 1.273 . S
O103 Zn94 1.977 . S
O103 C96 1.267 . S
C104 O105 1.160 . S
C104 O111 1.185 . S
O105 C104 1.160 . S
O106 Zn107 1.899 . S
O106 C114 1.284 . S
Zn107 O106 1.899 . S
Zn107 O108 2.032 . S
Zn107 O111 2.086 . S
Zn107 O116 1.977 . S
O108 Zn107 2.032 . S
O108 C112 1.278 . S
C109 O110 1.203 . S
C109 O116 1.267 . S
O110 C109 1.203 . S
O111 C104 1.185 . S
O111 Zn107 2.086 . S
C112 O108 1.278 . S
C112 O113 1.211 . S
O113 C112 1.211 . S
C114 O106 1.284 . S
C114 O115 1.273 . S
O115 C114 1.273 . S
O116 Zn107 1.977 . S
O116 C109 1.267 . S
C117 O118 1.160 . S
C117 O124 1.185 . S
O118 C117 1.160 . S
O119 Zn120 1.899 . S
O119 C127 1.284 . S
Zn120 O119 1.899 . S
Zn120 O121 2.032 . S
Zn120 O124 2.086 . S
Zn120 O129 1.977 . S
O121 Zn120 2.032 . S
O121 C125 1.278 . S
C122 O123 1.203 . S
C122 O129 1.267 . S
O123 C122 1.203 . S
O124 C117 1.185 . S
O124 Zn120 2.086 . S
C125 O121 1.278 . S
C125 O126 1.211 . S
O126 C125 1.211 . S
C127 O119 1.284 . S
C127 O128 1.273 . S
O128 C127 1.273 . S
O129 Zn120 1.977 . S
O129 C122 1.267 . S
C130 O131 1.160 . S
C130 O137 1.185 . S
O131 C130 1.160 . S
O132 Zn133 1.899 . S
O132 C140 1.284 . S
Zn133 O132 1.899 . S
Zn133 O134 2.032 . S
Zn133 O137 2.086 . S
Zn133 O142 1.977 . S
O134 Zn133 2.032 . S
O134 C138 1.278 . S
C135 O136 1.203 . S
C135 O142 1.267 . S
O136 C135 1.203 . S
O137 C130 1.185 . S
O137 Zn133 2.086 . S
C138 O134 1.278 . S
C138 O139 1.211 . S
O139 C138 1.211 . S
C140 O132 1.284 . S
C140 O141 1.273 . S
O141 C140 1.273 . S
O142 Zn133 1.977 . S
O142 C135 1.267 . S
C143 O144 1.160 . S
C143 O150 1.185 . S
O144 C143 1.160 . S
O145 Zn146 1.899 . S
O145 C153 1.284 . S
Zn146 O145 1.899 . S
Zn146 O147 2.032 . S
Zn146 O150 2.086 . S
Zn146 O155 1.977 . S
O147 Zn146 2.032 . S
O147 C151 1.278 . S
C148 O149 1.203 . S
C148 O155 1.267 . S
O149 C148 1.203 . S
O150 C143 1.185 . S
O150 Zn146 2.086 . S
C151 O147 1.278 . S
C151 O152 1.211 . S
O152 C151 1.211 . S
C153 O145 1.284 . S
C153 O154 1.273 . S
O154 C153 1.273 . S
O155 Zn146 1.977 . S
O155 C148 1.267 . S
C156 O157 1.160 . S
C156 O163 1.185 . S
O157 C156 1.160 . S
O158 Zn159 1.899 . S
O158 C166 1.284 . S
Zn159 O158 1.899 . S
Zn159 O160 2.032 . S
Zn159 O163 2.086 . S
Zn159 O168 1.977 . S
O160 Zn159 2.032 . S
O160 C164 1.278 . S
C161 O162 1.203 . S
C161 O168 1.267 . S
O162 C161 1.203 . S
O163 C156 1.185 . S
O163 Zn159 2.086 . S
C164 O160 1.278 . S
C164 O165 1.211 . S
O165 C164 1.211 . S
C166 O158 1.284 . S
C166 O167 1.273 . S
O167 C166 1.273 . S
O168 Zn159 1.977 . S
O168 C161 1.267 . S
C169 O170 1.160 . S
C169 O176 1.185 . S
O170 C169 1.160 . S
O171 Zn172 1.899 . S
O171 C179 1.284 . S
Zn172 O171 1.899 . S
Zn172 O173 2.032 . S
Zn172 O176 2.086 . S
Zn172 O181 1.977 . S
O173 Zn172 2.032 . S
O173 C177 1.278 . S
C174 O175 1.203 . S
C174 O181 1.267 . S
O175 C174 1.203 . S
O176 C169 1.185 . S
O176 Zn172 2.086 . S
C177 O173 1.278 . S
C177 O178 1.211 . S
O178 C177 1.211 . S
C179 O171 1.284 . S
C179 O180 1.273 . S
O180 C179 1.273 . S
O181 Zn172 1.977 . S
O181 C174 1.267 . S
C182 O183 1.160 . S
C182 O189 1.185 . S
O183 C182 1.160 . S
O184 Zn185 1.899 . S
O184 C192 1.284 . S
Zn185 O184 1.899 . S
Zn185 O186 2.032 . S
Zn185 O189 2.086 . S
Zn185 O194 1.977 . S
O186 Zn185 2.032 . S
O186 C190 1.278 . S
C187 O188 1.203 . S
C187 O194 1.267 . S
O188 C187 1.203 . S
O189 C182 1.185 . S
O189 Zn185 2.086 . S
C190 O186 1.278 . S
C190 O191 1.211 . S
O191 C190 1.211 . S
C192 O184 1.284 . S
C192 O193 1.273 . S
O193 C192 1.273 . S
O194 Zn185 1.977 . S
O194 C187 1.267 . S
C195 O196 1.160 . S
C195 O202 1.185 . S
O196 C195 1.160 . S
O197 Zn198 1.899 . S
O197 C205 1.284 . S
Zn198 O197 1.899 . S
Zn198 O199 2.032 . S
Zn198 O202 2.086 . S
Zn198 O207 1.977 . S
O199 Zn198 2.032 . S
O199 C203 1.278 . S
C200 O201 1.203 . S
C200 O207 1.267 . S
O201 C200 1.203 . S
O202 C195 1.185 . S
O202 Zn198 2.086 . S
C203 O199 1.278 . S
C203 O204 1.211 . S
O204 C203 1.211 . S
C205 O197 1.284 . S
C205 O206 1.273 . S
O206 C205 1.273 . S
O207 Zn198 1.977 . S
O207 C200 1.267 . S
H208 C214 0.930 . S
H209 C218 0.930 . S
H210 C223 0.929 . S
H211 C221 0.929 . S
H212 C216 0.929 . S
H213 C222 0.929 . S
C214 H208 0.930 . S
C214 C215 1.367 . S
C214 C222 1.378 . S
C215 C214 1.367 . S
C215 C223 1.433 . S
C216 H212 0.929 . S
C216 C218 1.378 . S
C216 C220 1.350 . S
C217 C220 1.463 1_455 S
C217 C222 1.350 . S
C217 N225 1.427 . S
C218 H209 0.930 . S
C218 C216 1.378 . S
C218 C219 1.367 . S
C219 C218 1.367 . S
C219 C221 1.433 . S
C220 C216 1.350 . S
C220 C217 1.463 1_655 S
C220 N224 1.427 . S
C221 H211 0.929 . S
C221 C219 1.433 . S
C221 N224 1.384 . S
C222 H213 0.929 . S
C222 C214 1.378 . S
C222 C217 1.350 . S
C223 H210 0.929 . S
C223 C215 1.433 . S
C223 N225 1.384 . S
N224 C220 1.427 . S
N224 C221 1.384 . S
N225 C217 1.427 . S
N225 C223 1.384 . S
H226 C232 0.930 . S
H227 C236 0.930 . S
H228 C241 0.929 . S
H229 C239 0.929 . S
H230 C234 0.929 . S
H231 C240 0.929 . S
C232 H226 0.930 . S
C232 C233 1.367 . S
C232 C240 1.378 . S
C233 C232 1.367 . S
C233 C241 1.433 . S
C234 H230 0.929 . S
C234 C236 1.378 . S
C234 C238 1.350 . S
C235 C238 1.463 1_655 S
C235 C240 1.350 . S
C235 N243 1.427 . S
C236 H227 0.930 . S
C236 C234 1.378 . S
C236 C237 1.367 . S
C237 C236 1.367 . S
C237 C239 1.433 . S
C238 C234 1.350 . S
C238 C235 1.463 1_455 S
C238 N242 1.427 . S
C239 H229 0.929 . S
C239 C237 1.433 . S
C239 N242 1.384 . S
C240 H231 0.929 . S
C240 C232 1.378 . S
C240 C235 1.350 . S
C241 H228 0.929 . S
C241 C233 1.433 . S
C241 N243 1.384 . S
N242 C238 1.427 . S
N242 C239 1.384 . S
N243 C235 1.427 . S
N243 C241 1.384 . S
H244 C250 0.930 . S
H245 C254 0.930 . S
H246 C259 0.929 . S
H247 C257 0.929 . S
H248 C252 0.929 . S
H249 C258 0.929 . S
C250 H244 0.930 . S
C250 C251 1.367 . S
C250 C258 1.378 . S
C251 C250 1.367 . S
C251 C259 1.433 . S
C252 H248 0.929 . S
C252 C254 1.378 . S
C252 C256 1.350 . S
C253 C256 1.463 1_655 S
C253 C258 1.350 . S
C253 N261 1.427 . S
C254 H245 0.930 . S
C254 C252 1.378 . S
C254 C255 1.367 . S
C255 C254 1.367 . S
C255 C257 1.433 . S
C256 C252 1.350 . S
C256 C253 1.463 1_455 S
C256 N260 1.427 . S
C257 H247 0.929 . S
C257 C255 1.433 . S
C257 N260 1.384 . S
C258 H249 0.929 . S
C258 C250 1.378 . S
C258 C253 1.350 . S
C259 H246 0.929 . S
C259 C251 1.433 . S
C259 N261 1.384 . S
N260 C256 1.427 . S
N260 C257 1.384 . S
N261 C253 1.427 . S
N261 C259 1.384 . S
H262 C268 0.930 . S
H263 C272 0.930 . S
H264 C277 0.929 . S
H265 C275 0.929 . S
H266 C270 0.929 . S
H267 C276 0.929 . S
C268 H262 0.930 . S
C268 C269 1.367 . S
C268 C276 1.378 . S
C269 C268 1.367 . S
C269 C277 1.433 . S
C270 H266 0.929 . S
C270 C272 1.378 . S
C270 C274 1.350 . S
C271 C274 1.463 1_455 S
C271 C276 1.350 . S
C271 N279 1.427 . S
C272 H263 0.930 . S
C272 C270 1.378 . S
C272 C273 1.367 . S
C273 C272 1.367 . S
C273 C275 1.433 . S
C274 C270 1.350 . S
C274 C271 1.463 1_655 S
C274 N278 1.427 . S
C275 H265 0.929 . S
C275 C273 1.433 . S
C275 N278 1.384 . S
C276 H267 0.929 . S
C276 C268 1.378 . S
C276 C271 1.350 . S
C277 H264 0.929 . S
C277 C269 1.433 . S
C277 N279 1.384 . S
N278 C274 1.427 . S
N278 C275 1.384 . S
N279 C271 1.427 . S
N279 C277 1.384 . S
H280 C286 0.930 . S
H281 C290 0.930 . S
H282 C295 0.929 . S
H283 C293 0.929 . S
H284 C288 0.929 . S
H285 C294 0.929 . S
C286 H280 0.930 . S
C286 C287 1.367 . S
C286 C294 1.378 . S
C287 C286 1.367 . S
C287 C295 1.433 . S
C288 H284 0.929 . S
C288 C290 1.378 . S
C288 C292 1.350 . S
C289 C292 1.463 . S
C289 C294 1.350 . S
C289 N297 1.427 . S
C290 H281 0.930 . S
C290 C288 1.378 . S
C290 C291 1.367 . S
C291 C290 1.367 . S
C291 C293 1.433 . S
C292 C288 1.350 . S
C292 C289 1.463 . S
C292 N296 1.427 . S
C293 H283 0.929 . S
C293 C291 1.433 . S
C293 N296 1.384 . S
C294 H285 0.929 . S
C294 C286 1.378 . S
C294 C289 1.350 . S
C295 H282 0.929 . S
C295 C287 1.433 . S
C295 N297 1.384 . S
N296 C292 1.427 . S
N296 C293 1.384 . S
N297 C289 1.427 . S
N297 C295 1.384 . S
H298 C304 0.930 . S
H299 C308 0.930 . S
H300 C313 0.929 . S
H301 C311 0.929 . S
H302 C306 0.929 . S
H303 C312 0.929 . S
C304 H298 0.930 . S
C304 C305 1.367 . S
C304 C312 1.378 . S
C305 C304 1.367 . S
C305 C313 1.433 . S
C306 H302 0.929 . S
C306 C308 1.378 . S
C306 C310 1.350 . S
C307 C310 1.463 . S
C307 C312 1.350 . S
C307 N315 1.427 . S
C308 H299 0.930 . S
C308 C306 1.378 . S
C308 C309 1.367 . S
C309 C308 1.367 . S
C309 C311 1.433 . S
C310 C306 1.350 . S
C310 C307 1.463 . S
C310 N314 1.427 . S
C311 H301 0.929 . S
C311 C309 1.433 . S
C311 N314 1.384 . S
C312 H303 0.929 . S
C312 C304 1.378 . S
C312 C307 1.350 . S
C313 H300 0.929 . S
C313 C305 1.433 . S
C313 N315 1.384 . S
N314 C310 1.427 . S
N314 C311 1.384 . S
N315 C307 1.427 . S
N315 C313 1.384 . S
H316 C322 0.930 . S
H317 C326 0.930 . S
H318 C331 0.929 . S
H319 C329 0.929 . S
H320 C324 0.929 . S
H321 C330 0.929 . S
C322 H316 0.930 . S
C322 C323 1.367 . S
C322 C330 1.378 . S
C323 C322 1.367 . S
C323 C331 1.433 . S
C324 H320 0.929 . S
C324 C326 1.378 . S
C324 C328 1.350 . S
C325 C328 1.463 . S
C325 C330 1.350 . S
C325 N333 1.427 . S
C326 H317 0.930 . S
C326 C324 1.378 . S
C326 C327 1.367 . S
C327 C326 1.367 . S
C327 C329 1.433 . S
C328 C324 1.350 . S
C328 C325 1.463 . S
C328 N332 1.427 . S
C329 H319 0.929 . S
C329 C327 1.433 . S
C329 N332 1.384 . S
C330 H321 0.929 . S
C330 C322 1.378 . S
C330 C325 1.350 . S
C331 H318 0.929 . S
C331 C323 1.433 . S
C331 N333 1.384 . S
N332 C328 1.427 . S
N332 C329 1.384 . S
N333 C325 1.427 . S
N333 C331 1.384 . S
H334 C340 0.930 . S
H335 C344 0.930 . S
H336 C349 0.929 . S
H337 C347 0.929 . S
H338 C342 0.929 . S
H339 C348 0.929 . S
C340 H334 0.930 . S
C340 C341 1.367 . S
C340 C348 1.378 . S
C341 C340 1.367 . S
C341 C349 1.433 . S
C342 H338 0.929 . S
C342 C344 1.378 . S
C342 C346 1.350 . S
C343 C346 1.463 . S
C343 C348 1.350 . S
C343 N351 1.427 . S
C344 H335 0.930 . S
C344 C342 1.378 . S
C344 C345 1.367 . S
C345 C344 1.367 . S
C345 C347 1.433 . S
C346 C342 1.350 . S
C346 C343 1.463 . S
C346 N350 1.427 . S
C347 H337 0.929 . S
C347 C345 1.433 . S
C347 N350 1.384 . S
C348 H339 0.929 . S
C348 C340 1.378 . S
C348 C343 1.350 . S
C349 H336 0.929 . S
C349 C341 1.433 . S
C349 N351 1.384 . S
N350 C346 1.427 . S
N350 C347 1.384 . S
N351 C343 1.427 . S
N351 C349 1.384 . S
H352 C358 0.930 . S
H353 C362 0.930 . S
H354 C367 0.929 . S
H355 C365 0.929 . S
H356 C360 0.929 . S
H357 C366 0.929 . S
C358 H352 0.930 . S
C358 C359 1.367 . S
C358 C366 1.378 . S
C359 C358 1.367 . S
C359 C367 1.433 . S
C360 H356 0.929 . S
C360 C362 1.378 . S
C360 C364 1.350 . S
C361 C364 1.463 . S
C361 C366 1.350 . S
C361 N369 1.427 . S
C362 H353 0.930 . S
C362 C360 1.378 . S
C362 C363 1.367 . S
C363 C362 1.367 . S
C363 C365 1.433 . S
C364 C360 1.350 . S
C364 C361 1.463 . S
C364 N368 1.427 . S
C365 H355 0.929 . S
C365 C363 1.433 . S
C365 N368 1.384 . S
C366 H357 0.929 . S
C366 C358 1.378 . S
C366 C361 1.350 . S
C367 H354 0.929 . S
C367 C359 1.433 . S
C367 N369 1.384 . S
N368 C364 1.427 . S
N368 C365 1.384 . S
N369 C361 1.427 . S
N369 C367 1.384 . S
H370 C376 0.930 . S
H371 C380 0.930 . S
H372 C385 0.929 . S
H373 C383 0.929 . S
H374 C378 0.929 . S
H375 C384 0.929 . S
C376 H370 0.930 . S
C376 C377 1.367 . S
C376 C384 1.378 . S
C377 C376 1.367 . S
C377 C385 1.433 . S
C378 H374 0.929 . S
C378 C380 1.378 . S
C378 C382 1.350 . S
C379 C382 1.463 . S
C379 C384 1.350 . S
C379 N387 1.427 . S
C380 H371 0.930 . S
C380 C378 1.378 . S
C380 C381 1.367 . S
C381 C380 1.367 . S
C381 C383 1.433 . S
C382 C378 1.350 . S
C382 C379 1.463 . S
C382 N386 1.427 . S
C383 H373 0.929 . S
C383 C381 1.433 . S
C383 N386 1.384 . S
C384 H375 0.929 . S
C384 C376 1.378 . S
C384 C379 1.350 . S
C385 H372 0.929 . S
C385 C377 1.433 . S
C385 N387 1.384 . S
N386 C382 1.427 . S
N386 C383 1.384 . S
N387 C379 1.427 . S
N387 C385 1.384 . S
H388 C394 0.930 . S
H389 C398 0.930 . S
H390 C403 0.929 . S
H391 C401 0.929 . S
H392 C396 0.929 . S
H393 C402 0.929 . S
C394 H388 0.930 . S
C394 C395 1.367 . S
C394 C402 1.378 . S
C395 C394 1.367 . S
C395 C403 1.433 . S
C396 H392 0.929 . S
C396 C398 1.378 . S
C396 C400 1.350 . S
C397 C400 1.463 . S
C397 C402 1.350 . S
C397 N405 1.427 . S
C398 H389 0.930 . S
C398 C396 1.378 . S
C398 C399 1.367 . S
C399 C398 1.367 . S
C399 C401 1.433 . S
C400 C396 1.350 . S
C400 C397 1.463 . S
C400 N404 1.427 . S
C401 H391 0.929 . S
C401 C399 1.433 . S
C401 N404 1.384 . S
C402 H393 0.929 . S
C402 C394 1.378 . S
C402 C397 1.350 . S
C403 H390 0.929 . S
C403 C395 1.433 . S
C403 N405 1.384 . S
N404 C400 1.427 . S
N404 C401 1.384 . S
N405 C397 1.427 . S
N405 C403 1.384 . S
H406 C412 0.930 . S
H407 C416 0.930 . S
H408 C421 0.929 . S
H409 C419 0.929 . S
H410 C414 0.929 . S
H411 C420 0.929 . S
C412 H406 0.930 . S
C412 C413 1.367 . S
C412 C420 1.378 . S
C413 C412 1.367 . S
C413 C421 1.433 . S
C414 H410 0.929 . S
C414 C416 1.378 . S
C414 C418 1.350 . S
C415 C418 1.463 . S
C415 C420 1.350 . S
C415 N423 1.427 . S
C416 H407 0.930 . S
C416 C414 1.378 . S
C416 C417 1.367 . S
C417 C416 1.367 . S
C417 C419 1.433 . S
C418 C414 1.350 . S
C418 C415 1.463 . S
C418 N422 1.427 . S
C419 H409 0.929 . S
C419 C417 1.433 . S
C419 N422 1.384 . S
C420 H411 0.929 . S
C420 C412 1.378 . S
C420 C415 1.350 . S
C421 H408 0.929 . S
C421 C413 1.433 . S
C421 N423 1.384 . S
N422 C418 1.427 . S
N422 C419 1.384 . S
N423 C415 1.427 . S
N423 C421 1.384 . S
H424 C430 0.930 . S
H425 C434 0.930 . S
H426 C439 0.929 . S
H427 C437 0.929 . S
H428 C432 0.929 . S
H429 C438 0.929 . S
C430 H424 0.930 . S
C430 C431 1.367 . S
C430 C438 1.378 . S
C431 C430 1.367 . S
C431 C439 1.433 . S
C432 H428 0.929 . S
C432 C434 1.378 . S
C432 C436 1.350 . S
C433 C436 1.463 . S
C433 C438 1.350 . S
C433 N441 1.427 . S
C434 H425 0.930 . S
C434 C432 1.378 . S
C434 C435 1.367 . S
C435 C434 1.367 . S
C435 C437 1.433 . S
C436 C432 1.350 . S
C436 C433 1.463 . S
C436 N440 1.427 . S
C437 H427 0.929 . S
C437 C435 1.433 . S
C437 N440 1.384 . S
C438 H429 0.929 . S
C438 C430 1.378 . S
C438 C433 1.350 . S
C439 H426 0.929 . S
C439 C431 1.433 . S
C439 N441 1.384 . S
N440 C436 1.427 . S
N440 C437 1.384 . S
N441 C433 1.427 . S
N441 C439 1.384 . S
H442 C448 0.930 . S
H443 C452 0.930 . S
H444 C457 0.929 . S
H445 C455 0.929 . S
H446 C450 0.929 . S
H447 C456 0.929 . S
C448 H442 0.930 . S
C448 C449 1.367 . S
C448 C456 1.378 . S
C449 C448 1.367 . S
C449 C457 1.433 . S
C450 H446 0.929 . S
C450 C452 1.378 . S
C450 C454 1.350 . S
C451 C454 1.463 . S
C451 C456 1.350 . S
C451 N459 1.427 . S
C452 H443 0.930 . S
C452 C450 1.378 . S
C452 C453 1.367 . S
C453 C452 1.367 . S
C453 C455 1.433 . S
C454 C450 1.350 . S
C454 C451 1.463 . S
C454 N458 1.427 . S
C455 H445 0.929 . S
C455 C453 1.433 . S
C455 N458 1.384 . S
C456 H447 0.929 . S
C456 C448 1.378 . S
C456 C451 1.350 . S
C457 H444 0.929 . S
C457 C449 1.433 . S
C457 N459 1.384 . S
N458 C454 1.427 . S
N458 C455 1.384 . S
N459 C451 1.427 . S
N459 C457 1.384 . S
H460 C466 0.930 . S
H461 C470 0.930 . S
H462 C475 0.929 . S
H463 C473 0.929 . S
H464 C468 0.929 . S
H465 C474 0.929 . S
C466 H460 0.930 . S
C466 C467 1.367 . S
C466 C474 1.378 . S
C467 C466 1.367 . S
C467 C475 1.433 . S
C468 H464 0.929 . S
C468 C470 1.378 . S
C468 C472 1.350 . S
C469 C472 1.463 . S
C469 C474 1.350 . S
C469 N477 1.427 . S
C470 H461 0.930 . S
C470 C468 1.378 . S
C470 C471 1.367 . S
C471 C470 1.367 . S
C471 C473 1.433 . S
C472 C468 1.350 . S
C472 C469 1.463 . S
C472 N476 1.427 . S
C473 H463 0.929 . S
C473 C471 1.433 . S
C473 N476 1.384 . S
C474 H465 0.929 . S
C474 C466 1.378 . S
C474 C469 1.350 . S
C475 H462 0.929 . S
C475 C467 1.433 . S
C475 N477 1.384 . S
N476 C472 1.427 . S
N476 C473 1.384 . S
N477 C469 1.427 . S
N477 C475 1.384 . S
H478 C484 0.930 . S
H479 C488 0.930 . S
H480 C493 0.929 . S
H481 C491 0.929 . S
H482 C486 0.929 . S
H483 C492 0.929 . S
C484 H478 0.930 . S
C484 C485 1.367 . S
C484 C492 1.378 . S
C485 C484 1.367 . S
C485 C493 1.433 . S
C486 H482 0.929 . S
C486 C488 1.378 . S
C486 C490 1.350 . S
C487 C490 1.463 . S
C487 C492 1.350 . S
C487 N495 1.427 . S
C488 H479 0.930 . S
C488 C486 1.378 . S
C488 C489 1.367 . S
C489 C488 1.367 . S
C489 C491 1.433 . S
C490 C486 1.350 . S
C490 C487 1.463 . S
C490 N494 1.427 . S
C491 H481 0.929 . S
C491 C489 1.433 . S
C491 N494 1.384 . S
C492 H483 0.929 . S
C492 C484 1.378 . S
C492 C487 1.350 . S
C493 H480 0.929 . S
C493 C485 1.433 . S
C493 N495 1.384 . S
N494 C490 1.427 . S
N494 C491 1.384 . S
N495 C487 1.427 . S
N495 C493 1.384 . S
H496 C502 0.930 . S
H497 C506 0.930 . S
H498 C511 0.929 1_554 S
H499 C509 0.929 1_556 S
H500 C504 0.929 . S
H501 C510 0.929 . S
C502 H496 0.930 . S
C502 C503 1.367 . S
C502 C510 1.378 . S
C503 C502 1.367 . S
C503 C511 1.433 . S
C504 H500 0.929 . S
C504 C506 1.378 . S
C504 C508 1.350 . S
C505 C508 1.463 1_556 S
C505 C510 1.350 . S
C505 N513 1.427 1_556 S
C506 H497 0.930 . S
C506 C504 1.378 . S
C506 C507 1.367 . S
C507 C506 1.367 . S
C507 C509 1.433 . S
C508 C504 1.350 . S
C508 C505 1.463 1_554 S
C508 N512 1.427 1_554 S
C509 H499 0.929 1_554 S
C509 C507 1.433 . S
C509 N512 1.384 1_554 S
C510 H501 0.929 . S
C510 C502 1.378 . S
C510 C505 1.350 . S
C511 H498 0.929 1_556 S
C511 C503 1.433 . S
C511 N513 1.384 1_556 S
N512 C508 1.427 1_556 S
N512 C509 1.384 1_556 S
N513 C505 1.427 1_554 S
N513 C511 1.384 1_554 S
H514 C520 0.930 . S
H515 C524 0.930 . S
H516 C529 0.929 . S
H517 C527 0.929 . S
H518 C522 0.929 . S
H519 C528 0.929 . S
C520 H514 0.930 . S
C520 C521 1.367 . S
C520 C528 1.378 . S
C521 C520 1.367 . S
C521 C529 1.433 . S
C522 H518 0.929 . S
C522 C524 1.378 . S
C522 C526 1.350 . S
C523 C526 1.463 . S
C523 C528 1.350 . S
C523 N531 1.427 . S
C524 H515 0.930 . S
C524 C522 1.378 . S
C524 C525 1.367 . S
C525 C524 1.367 . S
C525 C527 1.433 . S
C526 C522 1.350 . S
C526 C523 1.463 . S
C526 N530 1.427 . S
C527 H517 0.929 . S
C527 C525 1.433 . S
C527 N530 1.384 . S
C528 H519 0.929 . S
C528 C520 1.378 . S
C528 C523 1.350 . S
C529 H516 0.929 . S
C529 C521 1.433 . S
C529 N531 1.384 . S
N530 C526 1.427 . S
N530 C527 1.384 . S
N531 C523 1.427 . S
N531 C529 1.384 . S
H532 C538 0.930 . S
H533 C542 0.930 . S
H534 C547 0.929 . S
H535 C545 0.929 . S
H536 C540 0.929 . S
H537 C546 0.929 . S
C538 H532 0.930 . S
C538 C539 1.367 . S
C538 C546 1.378 . S
C539 C538 1.367 . S
C539 C547 1.433 . S
C540 H536 0.929 . S
C540 C542 1.378 . S
C540 C544 1.350 . S
C541 C544 1.463 1_554 S
C541 C546 1.350 . S
C541 N549 1.427 1_554 S
C542 H533 0.930 . S
C542 C540 1.378 . S
C542 C543 1.367 . S
C543 C542 1.367 . S
C543 C545 1.433 . S
C544 C540 1.350 . S
C544 C541 1.463 1_556 S
C544 N548 1.427 1_556 S
C545 H535 0.929 . S
C545 C543 1.433 . S
C545 N548 1.384 1_556 S
C546 H537 0.929 . S
C546 C538 1.378 . S
C546 C541 1.350 . S
C547 H534 0.929 . S
C547 C539 1.433 . S
C547 N549 1.384 1_554 S
N548 C544 1.427 1_554 S
N548 C545 1.384 1_554 S
N549 C541 1.427 1_556 S
N549 C547 1.384 1_556 S
H550 C556 0.930 . S
H551 C560 0.930 . S
H552 C565 0.929 . S
H553 C563 0.929 . S
H554 C558 0.929 . S
H555 C564 0.929 . S
C556 H550 0.930 . S
C556 C557 1.367 . S
C556 C564 1.378 . S
C557 C556 1.367 . S
C557 C565 1.433 . S
C558 H554 0.929 . S
C558 C560 1.378 . S
C558 C562 1.350 . S
C559 C562 1.463 . S
C559 C564 1.350 . S
C559 N567 1.427 . S
C560 H551 0.930 . S
C560 C558 1.378 . S
C560 C561 1.367 . S
C561 C560 1.367 . S
C561 C563 1.433 . S
C562 C558 1.350 . S
C562 C559 1.463 . S
C562 N566 1.427 . S
C563 H553 0.929 . S
C563 C561 1.433 . S
C563 N566 1.384 . S
C564 H555 0.929 . S
C564 C556 1.378 . S
C564 C559 1.350 . S
C565 H552 0.929 . S
C565 C557 1.433 . S
C565 N567 1.384 . S
N566 C562 1.427 . S
N566 C563 1.384 . S
N567 C559 1.427 . S
N567 C565 1.384 . S
H568 C574 0.930 1_556 S
H569 C578 0.930 1_554 S
H570 C583 0.929 . S
H571 C581 0.929 . S
H572 C576 0.929 . S
H573 C582 0.929 . S
C574 H568 0.930 1_554 S
C574 C575 1.367 . S
C574 C582 1.378 1_554 S
C575 C574 1.367 . S
C575 C583 1.433 . S
C576 H572 0.929 . S
C576 C578 1.378 1_554 S
C576 C580 1.350 1_554 S
C577 C580 1.463 1_554 S
C577 C582 1.350 1_554 S
C577 N585 1.427 . S
C578 H569 0.930 1_556 S
C578 C576 1.378 1_556 S
C578 C579 1.367 . S
C579 C578 1.367 . S
C579 C581 1.433 . S
C580 C576 1.350 1_556 S
C580 C577 1.463 1_556 S
C580 N584 1.427 . S
C581 H571 0.929 . S
C581 C579 1.433 . S
C581 N584 1.384 . S
C582 H573 0.929 . S
C582 C574 1.378 1_556 S
C582 C577 1.350 1_556 S
C583 H570 0.929 . S
C583 C575 1.433 . S
C583 N585 1.384 . S
N584 C580 1.427 . S
N584 C581 1.384 . S
N585 C577 1.427 . S
N585 C583 1.384 . S
H586 C592 0.930 . S
H587 C596 0.930 . S
H588 C601 0.929 . S
H589 C599 0.929 . S
H590 C594 0.929 . S
H591 C600 0.929 . S
C592 H586 0.930 . S
C592 C593 1.367 . S
C592 C600 1.378 . S
C593 C592 1.367 . S
C593 C601 1.433 . S
C594 H590 0.929 . S
C594 C596 1.378 . S
C594 C598 1.350 . S
C595 C598 1.463 . S
C595 C600 1.350 . S
C595 N603 1.427 . S
C596 H587 0.930 . S
C596 C594 1.378 . S
C596 C597 1.367 . S
C597 C596 1.367 . S
C597 C599 1.433 . S
C598 C594 1.350 . S
C598 C595 1.463 . S
C598 N602 1.427 . S
C599 H589 0.929 . S
C599 C597 1.433 . S
C599 N602 1.384 . S
C600 H591 0.929 . S
C600 C592 1.378 . S
C600 C595 1.350 . S
C601 H588 0.929 . S
C601 C593 1.433 . S
C601 N603 1.384 . S
N602 C598 1.427 . S
N602 C599 1.384 . S
N603 C595 1.427 . S
N603 C601 1.384 . S
H604 C610 0.930 . S
H605 C614 0.930 . S
H606 C619 0.929 . S
H607 C617 0.929 . S
H608 C612 0.929 . S
H609 C618 0.929 . S
C610 H604 0.930 . S
C610 C611 1.367 . S
C610 C618 1.378 . S
C611 C610 1.367 . S
C611 C619 1.433 . S
C612 H608 0.929 . S
C612 C614 1.378 . S
C612 C616 1.350 . S
C613 C616 1.463 1_554 S
C613 C618 1.350 . S
C613 N621 1.432 . S
C614 H605 0.930 . S
C614 C612 1.378 . S
C614 C615 1.367 . S
C615 C614 1.367 . S
C615 C617 1.433 . S
C616 C612 1.350 . S
C616 C613 1.463 1_556 S
C616 N620 1.436 . S
C617 H607 0.929 . S
C617 C615 1.433 . S
C617 N620 1.401 . S
C618 H609 0.929 . S
C618 C610 1.378 . S
C618 C613 1.350 . S
C619 H606 0.929 . S
C619 C611 1.433 . S
C619 N621 1.393 . S
N620 C616 1.436 . S
N620 C617 1.401 . S
N621 C613 1.432 . S
N621 C619 1.393 . S
H622 C628 0.930 . S
H623 C632 0.930 . S
H624 C637 0.929 . S
H625 C635 0.929 . S
H626 C630 0.929 . S
H627 C636 0.929 . S
C628 H622 0.930 . S
C628 C629 1.367 . S
C628 C636 1.378 . S
C629 C628 1.367 . S
C629 C637 1.433 . S
C630 H626 0.929 . S
C630 C632 1.378 . S
C630 C634 1.350 . S
C631 C634 1.463 . S
C631 C636 1.350 . S
C631 N639 1.427 . S
C632 H623 0.930 . S
C632 C630 1.378 . S
C632 C633 1.367 . S
C633 C632 1.367 . S
C633 C635 1.433 . S
C634 C630 1.350 . S
C634 C631 1.463 . S
C634 N638 1.427 . S
C635 H625 0.929 . S
C635 C633 1.433 . S
C635 N638 1.384 . S
C636 H627 0.929 . S
C636 C628 1.378 . S
C636 C631 1.350 . S
C637 H624 0.929 . S
C637 C629 1.433 . S
C637 N639 1.384 . S
N638 C634 1.427 . S
N638 C635 1.384 . S
N639 C631 1.427 . S
N639 C637 1.384 . S
H640 C646 0.930 . S
H641 C650 0.930 . S
H642 C655 0.929 . S
H643 C653 0.929 . S
H644 C648 0.929 . S
H645 C654 0.929 . S
C646 H640 0.930 . S
C646 C647 1.367 . S
C646 C654 1.378 . S
C647 C646 1.367 . S
C647 C655 1.433 . S
C648 H644 0.929 . S
C648 C650 1.378 . S
C648 C652 1.350 . S
C649 C652 1.463 1_556 S
C649 C654 1.350 . S
C649 N657 1.432 . S
C650 H641 0.930 . S
C650 C648 1.378 . S
C650 C651 1.367 . S
C651 C650 1.367 . S
C651 C653 1.433 . S
C652 C648 1.350 . S
C652 C649 1.463 1_554 S
C652 N656 1.432 . S
C653 H643 0.929 . S
C653 C651 1.433 . S
C653 N656 1.393 . S
C654 H645 0.929 . S
C654 C646 1.378 . S
C654 C649 1.350 . S
C655 H642 0.929 . S
C655 C647 1.433 . S
C655 N657 1.393 . S
N656 C652 1.432 . S
N656 C653 1.393 . S
N657 C649 1.432 . S
N657 C655 1.393 . S
H658 C664 0.930 . S
H659 C668 0.930 . S
H660 C673 0.929 . S
H661 C671 0.929 . S
H662 C666 0.929 . S
H663 C672 0.929 . S
C664 H658 0.930 . S
C664 C665 1.367 . S
C664 C672 1.378 . S
C665 C664 1.367 . S
C665 C673 1.433 . S
C666 H662 0.929 . S
C666 C668 1.378 . S
C666 C670 1.350 . S
C667 C670 1.463 . S
C667 C672 1.350 . S
C667 N675 1.427 . S
C668 H659 0.930 . S
C668 C666 1.378 . S
C668 C669 1.367 . S
C669 C668 1.367 . S
C669 C671 1.433 . S
C670 C666 1.350 . S
C670 C667 1.463 . S
C670 N674 1.427 . S
C671 H661 0.929 . S
C671 C669 1.433 . S
C671 N674 1.384 . S
C672 H663 0.929 . S
C672 C664 1.378 . S
C672 C667 1.350 . S
C673 H660 0.929 . S
C673 C665 1.433 . S
C673 N675 1.384 . S
N674 C670 1.427 . S
N674 C671 1.384 . S
N675 C667 1.427 . S
N675 C673 1.384 . S
H676 C682 0.930 . S
H677 C686 0.930 . S
H678 C691 0.929 1_556 S
H679 C689 0.929 1_554 S
H680 C684 0.929 . S
H681 C690 0.929 . S
C682 H676 0.930 . S
C682 C683 1.367 . S
C682 C690 1.378 . S
C683 C682 1.367 . S
C683 C691 1.433 . S
C684 H680 0.929 . S
C684 C686 1.378 . S
C684 C688 1.350 . S
C685 C688 1.463 1_554 S
C685 C690 1.350 . S
C685 N693 1.427 1_554 S
C686 H677 0.930 . S
C686 C684 1.378 . S
C686 C687 1.367 . S
C687 C686 1.367 . S
C687 C689 1.433 . S
C688 C684 1.350 . S
C688 C685 1.463 1_556 S
C688 N692 1.427 1_556 S
C689 H679 0.929 1_556 S
C689 C687 1.433 . S
C689 N692 1.384 1_556 S
C690 H681 0.929 . S
C690 C682 1.378 . S
C690 C685 1.350 . S
C691 H678 0.929 1_554 S
C691 C683 1.433 . S
C691 N693 1.384 1_554 S
N692 C688 1.427 1_554 S
N692 C689 1.384 1_554 S
N693 C685 1.427 1_556 S
N693 C691 1.384 1_556 S
H694 C700 0.930 . S
H695 C704 0.930 . S
H696 C709 0.929 . S
H697 C707 0.929 . S
H698 C702 0.929 . S
H699 C708 0.929 . S
C700 H694 0.930 . S
C700 C701 1.367 . S
C700 C708 1.378 . S
C701 C700 1.367 . S
C701 C709 1.433 . S
C702 H698 0.929 . S
C702 C704 1.378 . S
C702 C706 1.350 . S
C703 C706 1.463 . S
C703 C708 1.350 . S
C703 N711 1.427 . S
C704 H695 0.930 . S
C704 C702 1.378 . S
C704 C705 1.367 . S
C705 C704 1.367 . S
C705 C707 1.433 . S
C706 C702 1.350 . S
C706 C703 1.463 . S
C706 N710 1.427 . S
C707 H697 0.929 . S
C707 C705 1.433 . S
C707 N710 1.384 . S
C708 H699 0.929 . S
C708 C700 1.378 . S
C708 C703 1.350 . S
C709 H696 0.929 . S
C709 C701 1.433 . S
C709 N711 1.384 . S
N710 C706 1.427 . S
N710 C707 1.384 . S
N711 C703 1.427 . S
N711 C709 1.384 . S
H712 C718 0.930 . S
H713 C722 0.930 . S
H714 C727 0.929 . S
H715 C725 0.929 . S
H716 C720 0.929 1_556 S
H717 C726 0.929 1_554 S
C718 H712 0.930 . S
C718 C719 1.367 . S
C718 C726 1.378 . S
C719 C718 1.367 . S
C719 C727 1.433 . S
C720 H716 0.929 1_554 S
C720 C722 1.378 . S
C720 C724 1.350 . S
C721 C724 1.463 1_546 S
C721 C726 1.350 . S
C721 N729 1.427 . S
C722 H713 0.930 . S
C722 C720 1.378 . S
C722 C723 1.367 . S
C723 C722 1.367 . S
C723 C725 1.433 . S
C724 C720 1.350 . S
C724 C721 1.463 1_564 S
C724 N728 1.427 . S
C725 H715 0.929 . S
C725 C723 1.433 . S
C725 N728 1.384 . S
C726 H717 0.929 1_556 S
C726 C718 1.378 . S
C726 C721 1.350 . S
C727 H714 0.929 . S
C727 C719 1.433 . S
C727 N729 1.384 . S
N728 C724 1.427 . S
N728 C725 1.384 . S
N729 C721 1.427 . S
N729 C727 1.384 . S
H730 C736 0.930 . S
H731 C740 0.930 . S
H732 C745 0.929 . S
H733 C743 0.929 . S
H734 C738 0.923 1_565 S
H735 C744 0.923 1_545 S
C736 H730 0.930 . S
C736 C737 1.367 . S
C736 C744 1.378 . S
C737 C736 1.367 . S
C737 C745 1.433 . S
C738 H734 0.923 1_545 S
C738 C740 1.378 . S
C738 C742 1.350 . S
C739 C742 1.463 1_565 S
C739 C744 1.350 . S
C739 N747 1.427 . S
C740 H731 0.930 . S
C740 C738 1.378 . S
C740 C741 1.367 . S
C741 C740 1.367 . S
C741 C743 1.433 . S
C742 C738 1.350 . S
C742 C739 1.463 1_545 S
C742 N746 1.427 . S
C743 H733 0.929 . S
C743 C741 1.433 . S
C743 N746 1.384 . S
C744 H735 0.923 1_565 S
C744 C736 1.378 . S
C744 C739 1.350 . S
C745 H732 0.929 . S
C745 C737 1.433 . S
C745 N747 1.384 . S
N746 C742 1.427 . S
N746 C743 1.384 . S
N747 C739 1.427 . S
N747 C745 1.384 . S
H748 C754 0.930 . S
H749 C758 0.930 . S
H750 C763 0.929 . S
H751 C761 0.929 . S
H752 C756 0.929 1_554 S
H753 C762 0.929 1_556 S
C754 H748 0.930 . S
C754 C755 1.367 . S
C754 C762 1.378 . S
C755 C754 1.367 . S
C755 C763 1.433 . S
C756 H752 0.929 1_556 S
C756 C758 1.378 . S
C756 C760 1.350 . S
C757 C760 1.463 1_564 S
C757 C762 1.350 . S
C757 N765 1.427 . S
C758 H749 0.930 . S
C758 C756 1.378 . S
C758 C759 1.367 . S
C759 C758 1.367 . S
C759 C761 1.433 . S
C760 C756 1.350 . S
C760 C757 1.463 1_546 S
C760 N764 1.427 . S
C761 H751 0.929 . S
C761 C759 1.433 . S
C761 N764 1.384 . S
C762 H753 0.929 1_554 S
C762 C754 1.378 . S
C762 C757 1.350 . S
C763 H750 0.929 . S
C763 C755 1.433 . S
C763 N765 1.384 . S
N764 C760 1.427 . S
N764 C761 1.384 . S
N765 C757 1.427 . S
N765 C763 1.384 . S
H766 C772 0.930 . S
H767 C776 0.930 . S
H768 C781 0.929 . S
H769 C779 0.929 . S
H770 C774 0.929 1_545 S
H771 C780 0.929 1_565 S
C772 H766 0.930 . S
C772 C773 1.367 . S
C772 C780 1.378 . S
C773 C772 1.367 . S
C773 C781 1.433 . S
C774 H770 0.929 1_565 S
C774 C776 1.378 . S
C774 C778 1.350 . S
C775 C778 1.463 1_545 S
C775 C780 1.350 . S
C775 N783 1.427 . S
C776 H767 0.930 . S
C776 C774 1.378 . S
C776 C777 1.367 . S
C777 C776 1.367 . S
C777 C779 1.433 . S
C778 C774 1.350 . S
C778 C775 1.463 1_565 S
C778 N782 1.427 . S
C779 H769 0.929 . S
C779 C777 1.433 . S
C779 N782 1.384 . S
C780 H771 0.929 1_545 S
C780 C772 1.378 . S
C780 C775 1.350 . S
C781 H768 0.929 . S
C781 C773 1.433 . S
C781 N783 1.384 . S
N782 C778 1.427 . S
N782 C779 1.384 . S
N783 C775 1.427 . S
N783 C781 1.384 . S
C215 C5 1.405 . S
C219 C83 1.418 . S
C233 C18 1.415 . S
C237 C96 1.416 . S
C251 C57 1.406 . S
C255 C31 1.418 . S
C269 C70 1.410 . S
C273 C44 1.411 . S
C287 C187 1.409 . S
C291 C109 1.420 . S
C305 C200 1.413 . S
C309 C122 1.409 . S
C323 C135 1.417 . S
C327 C161 1.407 . S
C341 C148 1.415 . S
C345 C174 1.416 . S
C359 C10 1.398 . S
C363 C73 1.347 . S
C377 C23 1.398 . S
C381 C60 1.350 . S
C395 C36 1.394 . S
C399 C99 1.360 . S
C413 C86 1.352 . S
C417 C49 1.393 . S
C431 C177 1.358 . S
C435 C114 1.396 . S
C449 C164 1.358 . S
C453 C127 1.391 . S
C467 C140 1.398 . S
C471 C203 1.348 . S
C485 C190 1.360 . S
C489 C153 1.391 . S
C503 C156 1.273 . S
C507 C0 1.264 . S
C521 C13 1.270 . S
C525 C169 1.264 . S
C539 C182 1.268 . S
C543 C26 1.266 . S
C557 C195 1.265 . S
C561 C39 1.275 . S
C575 C104 1.275 . S
C579 C52 1.261 . S
C593 C117 1.266 . S
C597 C65 1.274 . S
C611 C78 1.267 . S
C615 C130 1.267 . S
C629 C91 1.261 . S
C633 C143 1.276 . S
C647 C34 1.350 . S
C651 C8 1.336 . S
C665 C21 1.350 . S
C669 C47 1.336 . S
C683 C88 1.395 . S
C687 C62 1.396 . S
C701 C75 1.402 . S
C705 C101 1.400 . S
C719 C138 1.335 . S
C723 C112 1.350 . S
C737 C151 1.349 . S
C741 C125 1.338 . S
C755 C192 1.401 . S
C759 C166 1.399 . S
C773 C205 1.395 . S
C777 C179 1.395 . S
