# Generated by pormake.
# Topology fcu, (12)-cn, num edge types: 1
# Building blocks:
#     Node 0, Type 0, BuildingBlock: BOTCEU_clean_sbu_0, # of connection points: 12
#     Node 1, Type 0, BuildingBlock: BOTCEU_clean_sbu_0, # of connection points: 12
#     Node 2, Type 0, BuildingBlock: BOTCEU_clean_sbu_0, # of connection points: 12
#     Node 3, Type 0, BuildingBlock: BOTCEU_clean_sbu_0, # of connection points: 12
#     Edge 4, Type (0, 0), BuildingBlock: TEMPAE_clean_linker_10, # of connection points: 2
#     Edge 5, Type (0, 0), BuildingBlock: TEMPAE_clean_linker_10, # of connection points: 2
#     Edge 6, Type (0, 0), BuildingBlock: TEMPAE_clean_linker_10, # of connection points: 2
#     Edge 7, Type (0, 0), BuildingBlock: TEMPAE_clean_linker_10, # of connection points: 2
#     Edge 8, Type (0, 0), BuildingBlock: TEMPAE_clean_linker_10, # of connection points: 2
#     Edge 9, Type (0, 0), BuildingBlock: TEMPAE_clean_linker_10, # of connection points: 2
#     Edge 10, Type (0, 0), BuildingBlock: TEMPAE_clean_linker_10, # of connection points: 2
#     Edge 11, Type (0, 0), BuildingBlock: TEMPAE_clean_linker_10, # of connection points: 2
#     Edge 12, Type (0, 0), BuildingBlock: TEMPAE_clean_linker_10, # of connection points: 2
#     Edge 13, Type (0, 0), BuildingBlock: TEMPAE_clean_linker_10, # of connection points: 2
#     Edge 14, Type (0, 0), BuildingBlock: TEMPAE_clean_linker_10, # of connection points: 2
#     Edge 15, Type (0, 0), BuildingBlock: TEMPAE_clean_linker_10, # of connection points: 2
#     Edge 16, Type (0, 0), BuildingBlock: TEMPAE_clean_linker_10, # of connection points: 2
#     Edge 17, Type (0, 0), BuildingBlock: TEMPAE_clean_linker_10, # of connection points: 2
#     Edge 18, Type (0, 0), BuildingBlock: TEMPAE_clean_linker_10, # of connection points: 2
#     Edge 19, Type (0, 0), BuildingBlock: TEMPAE_clean_linker_10, # of connection points: 2
#     Edge 20, Type (0, 0), BuildingBlock: TEMPAE_clean_linker_10, # of connection points: 2
#     Edge 21, Type (0, 0), BuildingBlock: TEMPAE_clean_linker_10, # of connection points: 2
#     Edge 22, Type (0, 0), BuildingBlock: TEMPAE_clean_linker_10, # of connection points: 2
#     Edge 23, Type (0, 0), BuildingBlock: TEMPAE_clean_linker_10, # of connection points: 2
#     Edge 24, Type (0, 0), BuildingBlock: TEMPAE_clean_linker_10, # of connection points: 2
#     Edge 25, Type (0, 0), BuildingBlock: TEMPAE_clean_linker_10, # of connection points: 2
#     Edge 26, Type (0, 0), BuildingBlock: TEMPAE_clean_linker_10, # of connection points: 2
#     Edge 27, Type (0, 0), BuildingBlock: TEMPAE_clean_linker_10, # of connection points: 2
# Relax obj value: 0.051
# Max RMSD: 0.157
# Mean RMSD: 0.157
data_MOF--net-fcu--node1-BOTCEU_clean_sbu_0--edge1-TEMPAE_clean_linker_10
_symmetry_space_group_name_H-M    P1
_symmetry_Int_Tables_number       1
_symmetry_cell_setting            triclinic
loop_
_symmetry_equiv_pos_as_xyz
'x, y, z'
_cell_length_a     36.430037
_cell_length_b     36.390671
_cell_length_c     36.392631
_cell_angle_alpha  100.64127
_cell_angle_beta   100.59199
_cell_angle_gamma 100.5903
loop_
_atom_site_label
_atom_site_type_symbol
_atom_site_fract_x
_atom_site_fract_y
_atom_site_fract_z
_atom_type_partial_charge
C0 C 0.11862 0.9432 0.08875 0.0
C1 C 0.11873 0.96448 0.12476 0.0
C2 C 0.08155 0.95335 0.12954 0.0
N3 N 0.08338 0.92085 0.07388 0.0
N4 N 0.06135 0.92717 0.09803 0.0
C5 C 0.15243 0.94097 0.07118 0.0
H6 H 0.14494 0.91777 0.04499 0.0
H7 H 0.17629 0.93614 0.09219 0.0
H8 H 0.1625 0.96858 0.06345 0.0
C9 C 0.06602 0.96517 0.1641 0.0
H10 H 0.03536 0.96583 0.1551 0.0
H11 H 0.08274 -0.00632 0.18151 0.0
H12 H 0.0677 0.94366 0.18199 0.0
C13 C 0.9838 0.15614 0.87258 0.0
C14 C 0.03893 0.14364 0.86324 0.0
C15 C 0.01299 0.16611 0.85379 0.0
N16 N -0.00743 0.12958 0.89165 0.0
N17 N 0.02495 0.12159 0.88554 0.0
H18 H 0.95098 0.19912 0.86618 0.0
H19 H 0.925 0.15011 0.84594 0.0
H20 H 0.93653 0.16764 0.89689 0.0
C21 C 0.94708 0.16935 0.87044 0.0
H22 H 0.09665 0.16771 0.862 0.0
H23 H 0.06842 0.13739 0.81734 0.0
H24 H 0.08595 0.11653 0.85707 0.0
C25 C 0.07451 0.14085 0.84897 0.0
C26 C 0.0052 0.81638 0.03976 0.0
C27 C 0.04002 0.94253 -0.00485 0.0
C28 C 0.91 0.09275 0.12287 0.0
N29 N 0.89279 0.07187 0.08756 0.0
N30 N 0.89435 0.09354 0.06259 0.0
C31 C 0.92308 0.13029 0.12005 0.0
C32 C 0.91256 0.12966 0.08106 0.0
H33 H 0.88642 0.07877 0.16939 0.0
H34 H 0.93804 0.09369 0.18077 0.0
H35 H 0.91392 0.04641 0.15115 0.0
C36 C 0.91256 0.07704 0.15821 0.0
H37 H 0.9055 0.15416 0.03132 0.0
H38 H 0.94463 0.18089 0.07044 0.0
H39 H 0.89641 0.18194 0.07396 0.0
C40 C 0.91487 0.16346 0.06291 0.0
C41 C 0.13138 0.83932 0.97588 0.0
C42 C 0.11478 0.83074 0.02971 0.0
N43 N 0.10524 0.85959 0.98292 0.0
N44 N 0.09493 0.85415 0.01464 0.0
C45 C 0.13854 0.82036 0.0055 0.0
H46 H 0.18134 0.84106 0.95202 0.0
H47 H 0.13705 0.8137 0.92009 0.0
H48 H 0.14627 0.86513 0.93036 0.0
C49 C 0.15034 0.84013 0.94279 0.0
C50 C 0.11154 0.81948 0.06666 0.0
H51 H 0.1325 0.84079 0.09059 0.0
H52 H 0.11764 0.79068 0.06647 0.0
H53 H 0.08256 0.81955 0.07173 0.0
C54 C 0.79257 0.01898 0.01291 0.0
C55 C 0.93315 0.00082 0.05558 0.0
C56 C 0.10479 0.12532 0.96153 0.0
N57 N 0.08385 0.09249 0.93821 0.0
C58 C 0.14121 0.11975 0.97492 0.0
N59 N 0.10408 0.06617 0.93665 0.0
C60 C 0.13957 0.08148 0.95845 0.0
H61 H 0.05989 0.15489 0.96873 0.0
H62 H 0.09367 0.17593 0.94415 0.0
H63 H 0.10752 0.18147 -0.00449 0.0
C64 C 0.09075 0.16162 0.9682 0.0
H65 H 0.16185 0.03063 0.94842 0.0
C66 C 0.17242 0.06221 0.95763 0.0
H67 H 0.18867 0.07227 0.93702 0.0
H68 H 0.19221 0.06951 0.98626 0.0
C69 C 0.82821 0.96658 0.14146 0.0
C70 C 0.81076 0.01541 0.12039 0.0
N71 N 0.85045 0.97772 0.1182 0.0
N72 N 0.83938 0.00607 0.10486 0.0
C73 C 0.80242 0.99029 0.14379 0.0
H74 H 0.82812 0.94048 0.18975 0.0
C75 C 0.83056 0.93305 0.15944 0.0
H76 H 0.85775 0.92392 0.15779 0.0
H77 H 0.80639 0.90862 0.14385 0.0
H78 H 0.78723 0.06417 0.13763 0.0
H79 H 0.76156 0.03226 0.09295 0.0
C80 C 0.79062 0.04593 0.11106 0.0
H81 H 0.80694 0.06417 0.09551 0.0
C82 C 0.03628 0.03328 0.82695 0.0
C83 C 0.00795 0.06121 0.9674 0.0
C84 C 0.85949 0.04656 0.87109 0.0
N85 N 0.89083 0.0637 0.89887 0.0
C86 C 0.8708 0.04077 0.83628 0.0
C87 C 0.91024 0.05516 0.84572 0.0
N88 N 0.92089 0.06862 0.8838 0.0
C89 C 0.81947 0.04065 0.87721 0.0
H90 H 0.81925 0.05248 0.90744 0.0
H91 H 0.8019 0.05432 0.85788 0.0
H92 H 0.80623 0.00952 0.87024 0.0
C93 C 0.93708 0.05786 0.81931 0.0
H94 H 0.966 0.05659 0.83436 0.0
H95 H 0.92652 0.03443 0.79304 0.0
H96 H 0.93942 0.08581 0.81086 0.0
C97 C 0.01804 0.86019 0.15312 0.0
C98 C -0.00494 0.85496 0.1792 0.0
C99 C 0.96487 0.87226 0.16857 0.0
N100 N 0.00165 0.8789 0.12857 0.0
N101 N 0.97055 0.88695 0.13832 0.0
H102 H 0.0498 0.816 0.15133 0.0
H103 H 0.07726 0.86328 0.17577 0.0
H104 H 0.06326 0.85176 0.12427 0.0
C105 C 0.05414 0.84686 0.15071 0.0
C106 C 0.93078 0.87374 0.1858 0.0
H107 H 0.90903 0.84644 0.17355 0.0
H108 H 0.93906 0.87716 0.21736 0.0
H109 H 0.9176 0.89743 0.17874 0.0
C110 C 0.95768 0.16034 0.97566 0.0
C111 C 0.8923 0.01261 0.96512 0.0
C112 C 0.0489 0.87914 0.84911 0.0
C113 C 0.03474 0.84077 0.84882 0.0
C114 C 0.04303 0.8386 0.88721 0.0
N115 N 0.06475 0.89777 0.88564 0.0
N116 N 0.06096 0.87374 0.90821 0.0
C117 C 0.0496 0.89703 0.81529 0.0
H118 H 0.06887 0.92595 0.82367 0.0
H119 H 0.05876 0.87839 0.79258 0.0
H120 H 0.02031 0.90001 0.80328 0.0
C121 C 0.03459 0.80414 0.90378 0.0
H122 H 0.03057 0.81289 0.9334 0.0
H123 H 0.0087 0.7831 0.88558 0.0
H124 H 0.05933 0.79023 0.90529 0.0
C125 C 0.81993 0.1247 -0.00577 0.0
C126 C 0.81804 0.1469 0.96669 0.0
C127 C 0.84442 0.13732 0.94538 0.0
N128 N 0.84543 0.10321 0.98846 0.0
N129 N 0.86062 0.1115 0.96012 0.0
C130 C 0.80182 0.12722 0.02807 0.0
H131 H 0.7724 0.10886 0.01924 0.0
H132 H 0.79995 0.15721 0.03912 0.0
H133 H 0.81854 0.11685 0.05116 0.0
C134 C 0.85316 0.15091 0.91086 0.0
H135 H 0.82704 0.15597 0.8933 0.0
H136 H 0.87519 0.17823 0.92031 0.0
H137 H 0.86486 0.12972 0.89319 0.0
C138 C 0.15833 0.94706 0.96983 0.0
C139 C 0.01926 0.96657 0.90712 0.0
C140 C 0.87947 0.84841 0.06626 0.0
N141 N 0.89572 0.8855 0.08208 0.0
N142 N 0.87031 0.90631 0.07624 0.0
C143 C 0.84115 0.8458 0.04996 0.0
C144 C 0.83642 0.88341 0.05706 0.0
H145 H 0.92632 0.82517 0.09052 0.0
H146 H 0.88068 0.79086 0.07215 0.0
H147 H 0.90775 0.80805 0.03973 0.0
C148 C 0.89979 0.81632 0.06759 0.0
H149 H 0.80846 0.92749 0.04227 0.0
H150 H 0.78245 0.87868 0.01843 0.0
H151 H 0.7845 0.89709 0.06841 0.0
C152 C 0.80088 0.89748 0.04557 0.0
C153 C 0.14024 0.01528 0.85356 0.0
N154 N 0.11768 0.00301 0.87605 0.0
N155 N 0.12309 0.96962 0.8819 0.0
C156 C 0.16044 0.98739 0.84397 0.0
C157 C 0.14876 0.95872 0.86263 0.0
C158 C 0.14335 0.05333 0.8429 0.0
H159 H 0.12552 0.04957 0.8137 0.0
H160 H 0.17349 0.06563 0.84257 0.0
H161 H 0.13299 0.07334 0.86338 0.0
C162 C 0.15871 0.92032 0.85909 0.0
H163 H 0.15692 0.90736 0.82853 0.0
H164 H 0.18862 0.92395 0.87512 0.0
H165 H 0.13929 0.90093 0.87107 0.0
C166 C 0.94418 0.97596 0.17162 0.0
C167 C 0.95657 0.91413 0.03181 0.0
Cu168 Cu 0.0611 0.88253 0.03043 0.0
Cu169 Cu 0.01364 0.89482 0.08603 0.0
Cu170 Cu 0.86378 0.02279 0.0689 0.0
Cu171 Cu 0.86631 0.06953 0.01356 0.0
Cu172 Cu 0.03771 0.08027 0.90378 0.0
Cu173 Cu 0.08187 0.0222 0.89866 0.0
Cu174 Cu 0.89907 0.08758 0.94975 0.0
Cu175 Cu 0.96552 0.09763 0.91618 0.0
Cu176 Cu 0.09232 0.94672 0.91014 0.0
Cu177 Cu 0.08386 0.8938 0.95926 0.0
Cu178 Cu 0.94401 0.91295 0.10758 0.0
Cu179 Cu 0.88736 0.95812 0.09769 0.0
H180 H 0.9742 0.80647 0.02615 0.0
H181 H 0.01069 0.80955 0.06844 0.0
H182 H 0.02166 0.80157 0.02139 0.0
H183 H 0.03924 0.95187 0.02569 0.0
H184 H 0.01203 0.94215 0.97682 0.0
H185 H 0.06313 0.96305 0.98872 0.0
H186 H 0.78141 0.01189 0.98136 0.0
H187 H 0.78372 0.04496 0.02588 0.0
H188 H 0.78079 -0.00541 0.02482 0.0
H189 H 0.93878 0.03219 0.05772 0.0
H190 H 0.93591 0.98645 0.02698 0.0
H191 H 0.95449 -0.00528 0.07821 0.0
H192 H 0.00897 0.01227 0.81255 0.0
H193 H 0.06011 0.0227 0.81683 0.0
H194 H 0.03498 0.06132 0.81968 0.0
H195 H 0.03211 0.04661 0.97102 0.0
H196 H 0.98292 0.04411 0.97458 0.0
H197 H 0.01663 0.09014 0.98688 0.0
H198 H 0.97925 0.17499 0.96213 0.0
H199 H 0.93129 0.17141 0.97021 0.0
H200 H 0.96961 0.16607 0.00699 0.0
H201 H 0.87182 0.00605 0.93693 0.0
H202 H 0.91956 0.00487 0.96109 0.0
H203 H 0.87958 -0.00454 0.98369 0.0
H204 H 0.16633 0.92567 0.986 0.0
H205 H 0.17059 0.94446 0.94403 0.0
H206 H 0.1699 0.9763 0.98836 0.0
H207 H 0.01208 0.93618 0.90915 0.0
H208 H 0.00473 0.98362 0.92583 0.0
H209 H 0.00923 0.96814 0.8769 0.0
H210 H 0.91753 0.97234 0.18245 0.0
H211 H 0.96405 0.96052 0.18592 0.0
H212 H 0.95825 0.00688 0.17809 0.0
H213 H 0.92573 0.91409 0.02865 0.0
H214 H 0.97007 0.93731 0.01954 0.0
H215 H 0.95944 0.88602 0.01618 0.0
O216 O 0.01611 0.85521 0.04343 0.0
O217 O 0.04711 0.90647 0.98854 0.0
O218 O 0.83174 0.0254 0.0209 0.0
O219 O 0.89684 0.98783 0.06019 0.0
O220 O 0.04178 0.03706 0.86587 0.0
O221 O -0.00149 0.06471 0.93016 0.0
O222 O 0.94937 0.12161 0.96054 0.0
O223 O 0.89897 0.05098 0.98164 0.0
O224 O 0.1192 0.94063 0.959 0.0
O225 O 0.05819 0.98054 0.91843 0.0
O226 O 0.93566 0.96158 0.13274 0.0
O227 O 0.97387 0.92038 0.0699 0.0
C228 C 0.12681 0.44448 0.59015 0.0
C229 C 0.12344 0.45915 0.62724 0.0
C230 C 0.08605 0.44288 0.62825 0.0
N231 N 0.09323 0.42077 0.57112 0.0
N232 N 0.06904 0.42006 0.59374 0.0
C233 C 0.16228 0.44963 0.57468 0.0
H234 H 0.15755 0.43045 0.54602 0.0
H235 H 0.18626 0.44388 0.59483 0.0
H236 H 0.17058 0.47977 0.57209 0.0
C237 C 0.06734 0.44702 0.66162 0.0
H238 H 0.03621 0.44474 0.65134 0.0
H239 H 0.08062 0.47484 0.68237 0.0
H240 H 0.07067 0.42334 0.67637 0.0
C241 C 0.98368 0.66526 0.37389 0.0
C242 C 0.03966 0.65412 0.36584 0.0
C243 C 0.0147 0.67807 0.35851 0.0
N244 N -0.00931 0.63597 0.38952 0.0
N245 N 0.02379 0.62908 0.38443 0.0
H246 H 0.95011 0.70442 0.39226 0.0
H247 H 0.93758 0.68366 0.34155 0.0
H248 H 0.92386 0.65527 0.37507 0.0
C249 C 0.94648 0.67767 0.37029 0.0
H250 H 0.09228 0.6848 0.35643 0.0
H251 H 0.07349 0.6373 0.3264 0.0
H252 H 0.09602 0.64266 0.37592 0.0
C253 C 0.07776 0.65499 0.35579 0.0
C254 C 0.02626 0.31284 0.52375 0.0
C255 C 0.05357 0.45104 0.49546 0.0
C256 C 0.92559 0.58355 0.61959 0.0
N257 N 0.90761 0.56323 0.58425 0.0
N258 N 0.90557 0.58615 0.56038 0.0
C259 C 0.93526 0.62192 0.61804 0.0
C260 C 0.92204 0.62244 0.57972 0.0
H261 H 0.9343 0.5368 0.64594 0.0
H262 H 0.90496 0.56586 0.66628 0.0
H263 H 0.9561 0.58425 0.6765 0.0
C264 C 0.93084 0.56668 0.65418 0.0
H265 H 0.91256 0.649 0.53176 0.0
H266 H 0.94639 0.67908 0.57395 0.0
H267 H 0.8961 0.66957 0.57304 0.0
C268 C 0.91923 0.65696 0.5635 0.0
C269 C 0.14487 0.35019 0.46402 0.0
C270 C 0.1297 0.33709 0.51701 0.0
N271 N 0.1218 0.3725 0.47567 0.0
N272 N 0.11242 0.36435 0.50691 0.0
C273 C 0.15061 0.32684 0.48989 0.0
H274 H 0.18826 0.3609 0.43256 0.0
H275 H 0.15209 0.31768 0.41126 0.0
H276 H 0.14153 0.36415 0.40858 0.0
C277 C 0.15712 0.34808 0.42676 0.0
C278 C 0.12643 0.3217 0.55192 0.0
H279 H 0.15382 0.31479 0.56437 0.0
H280 H 0.10369 0.29496 0.54396 0.0
H281 H 0.11864 0.3429 0.5735 0.0
C282 C 0.80555 0.50391 0.50926 0.0
C283 C 0.94715 0.49092 0.5517 0.0
C284 C 0.10282 0.63247 0.46234 0.0
N285 N 0.08302 0.6002 0.43699 0.0
C286 C 0.13947 0.62747 0.47608 0.0
N287 N 0.10464 0.57515 0.43401 0.0
C288 C 0.13936 0.59041 0.45734 0.0
H289 H 0.0567 0.66029 0.46936 0.0
H290 H 0.09184 0.68432 0.44796 0.0
H291 H 0.10345 0.68658 0.49884 0.0
C292 C 0.08788 0.66805 0.47042 0.0
H293 H 0.16388 0.54192 0.44219 0.0
C294 C 0.17323 0.57271 0.45652 0.0
H295 H 0.19228 0.5877 0.44075 0.0
H296 H 0.18987 0.57567 0.48605 0.0
C297 C 0.84418 0.45832 0.63986 0.0
C298 C 0.82977 0.50973 0.62199 0.0
N299 N 0.86467 0.46782 0.61458 0.0
N300 N 0.85529 0.49774 0.60317 0.0
C301 C 0.82146 0.48479 0.6456 0.0
H302 H 0.84373 0.43144 0.6877 0.0
C303 C 0.84589 0.42436 0.65728 0.0
H304 H 0.87272 0.41468 0.65512 0.0
H305 H 0.82134 0.40041 0.64139 0.0
H306 H 0.82224 0.56588 0.6441 0.0
H307 H 0.7817 0.53515 0.60924 0.0
C308 C 0.81349 0.54374 0.61684 0.0
H309 H 0.82427 0.55639 0.59434 0.0
C310 C 0.04207 0.54927 0.32459 0.0
C311 C 0.00329 0.56194 0.46057 0.0
C312 C 0.85545 0.55279 0.3682 0.0
N313 N 0.88736 0.57007 0.39529 0.0
C314 C 0.86546 0.5473 0.33266 0.0
C315 C 0.90492 0.5623 0.3411 0.0
N316 N 0.91674 0.57549 0.37924 0.0
C317 C 0.81615 0.54426 0.37593 0.0
H318 H 0.81576 0.55975 0.40496 0.0
H319 H 0.79526 0.55205 0.35407 0.0
H320 H 0.80714 0.51308 0.37433 0.0
C321 C 0.93096 0.56453 0.31391 0.0
H322 H 0.95997 0.56273 0.32825 0.0
H323 H 0.91965 0.54121 0.28762 0.0
H324 H 0.93339 0.59262 0.30569 0.0
C325 C 0.02512 0.33986 0.63596 0.0
C326 C 0.00144 0.33177 0.66092 0.0
C327 C 0.97162 0.35015 0.65206 0.0
N328 N 0.00948 0.36121 0.61381 0.0
N329 N 0.97815 0.36806 0.624 0.0
H330 H 0.05916 0.30119 0.61757 0.0
H331 H 0.07888 0.33125 0.66484 0.0
H332 H 0.08061 0.35108 0.6227 0.0
C333 C 0.06333 0.3305 0.63537 0.0
C334 C 0.93598 0.34789 0.66724 0.0
H335 H 0.92587 0.31861 0.67148 0.0
H336 H 0.94224 0.36841 0.69541 0.0
H337 H 0.91315 0.35552 0.6473 0.0
C338 C 0.954 0.66477 0.47157 0.0
C339 C 0.89786 0.51343 0.45563 0.0
C340 C 0.05858 0.3898 0.34417 0.0
C341 C 0.04431 0.35163 0.3447 0.0
C342 C 0.05382 0.35003 0.38319 0.0
N343 N 0.07546 0.40881 0.38034 0.0
N344 N 0.07249 0.38523 0.40342 0.0
C345 C 0.05772 0.40745 0.31009 0.0
H346 H 0.081 0.43356 0.31642 0.0
H347 H 0.06038 0.38659 0.28485 0.0
H348 H 0.02996 0.41589 0.30297 0.0
C349 C 0.04512 0.31629 0.40077 0.0
H350 H 0.04323 0.32608 0.43099 0.0
H351 H 0.01797 0.29616 0.3841 0.0
H352 H 0.06874 0.3009 0.40084 0.0
C353 C 0.82158 0.61622 0.50323 0.0
C354 C 0.81519 0.64055 0.47855 0.0
C355 C 0.83987 0.63568 0.45402 0.0
N356 N 0.84824 0.59792 0.49306 0.0
N357 N 0.85965 0.61015 0.4643 0.0
C358 C 0.80365 0.6113 0.53629 0.0
H359 H 0.77431 0.61666 0.53112 0.0
H360 H 0.82135 0.63219 0.56254 0.0
H361 H 0.80271 0.58207 0.5412 0.0
C362 C 0.84529 0.65547 0.42223 0.0
H363 H 0.82014 0.64379 0.39776 0.0
H364 H 0.84722 0.68666 0.43196 0.0
H365 H 0.87139 0.6506 0.41228 0.0
C366 C 0.16874 0.45994 0.46211 0.0
C367 C 0.02545 0.47282 0.40204 0.0
C368 C 0.88545 0.33725 0.55328 0.0
N369 N 0.90366 0.37343 0.5709 0.0
N370 N 0.8798 0.39617 0.56752 0.0
C371 C 0.84742 0.33732 0.53844 0.0
C372 C 0.84499 0.37553 0.54823 0.0
H373 H 0.93073 0.3103 0.57398 0.0
H374 H 0.88364 0.27847 0.5564 0.0
H375 H 0.91014 0.29544 0.52343 0.0
C376 C 0.90359 0.30345 0.55204 0.0
H377 H 0.81971 0.42227 0.53682 0.0
H378 H 0.79022 0.37476 0.51303 0.0
H379 H 0.79604 0.39284 0.56386 0.0
C380 C 0.81068 0.39227 0.53965 0.0
C381 C 0.14781 0.53291 0.35281 0.0
N382 N 0.1225 0.51678 0.37105 0.0
N383 N 0.12966 0.48373 0.3762 0.0
C384 C 0.17179 0.50803 0.34554 0.0
C385 C 0.15921 0.477 0.36093 0.0
C386 C 0.15167 0.57274 0.34642 0.0
H387 H 0.13893 0.57135 0.31593 0.0
H388 H 0.1824 0.5874 0.35252 0.0
H389 H 0.13655 0.58942 0.3649 0.0
C390 C 0.17417 0.44133 0.36048 0.0
H391 H 0.18197 0.43191 0.33272 0.0
H392 H 0.20033 0.44741 0.38375 0.0
H393 H 0.15253 0.41811 0.36545 0.0
C394 C 0.95369 0.45612 0.66523 0.0
C395 C 0.96427 0.39981 0.52158 0.0
Cu396 Cu 0.07553 0.3872 0.52386 0.0
Cu397 Cu 0.02352 0.38422 0.57558 0.0
Cu398 Cu 0.87853 0.51402 0.56627 0.0
Cu399 Cu 0.87413 0.56389 0.51235 0.0
Cu400 Cu 0.0371 0.58748 0.40143 0.0
Cu401 Cu 0.08494 0.53258 0.39402 0.0
Cu402 Cu 0.89825 0.59023 0.44742 0.0
Cu403 Cu 0.96258 0.60261 0.4119 0.0
Cu404 Cu 0.10074 0.45846 0.40442 0.0
Cu405 Cu 0.09673 0.40571 0.45408 0.0
Cu406 Cu 0.95269 0.39779 0.59696 0.0
Cu407 Cu 0.89964 0.4469 0.59182 0.0
H408 H -0.00489 0.29963 0.51515 0.0
H409 H 0.03902 0.30442 0.55009 0.0
H410 H 0.04006 0.30275 0.50022 0.0
H411 H 0.07785 0.47311 0.49304 0.0
H412 H 0.05008 0.45652 0.52547 0.0
H413 H 0.02686 0.45266 0.4762 0.0
H414 H 0.79828 0.47336 0.49374 0.0
H415 H 0.79312 0.52112 0.49015 0.0
H416 H 0.79355 0.50667 0.53521 0.0
H417 H 0.95282 0.52213 0.55284 0.0
H418 H 0.95032 0.47568 0.52357 0.0
H419 H 0.96816 0.48544 0.57508 0.0
H420 H 0.02961 0.52041 0.30552 0.0
H421 H 0.0712 0.56008 0.32075 0.0
H422 H 0.02389 0.56927 0.31704 0.0
H423 H 0.03159 0.55436 0.46641 0.0
H424 H 0.98095 0.53773 0.46258 0.0
H425 H 0.00377 0.58801 0.48213 0.0
H426 H 0.96924 0.67191 0.50218 0.0
H427 H 0.97203 0.68016 0.45526 0.0
H428 H 0.9264 0.67383 0.46895 0.0
H429 H 0.86671 0.50173 0.44364 0.0
H430 H 0.91303 0.51215 0.43181 0.0
H431 H 0.90881 0.49612 0.47534 0.0
H432 H 0.17923 0.46854 0.49373 0.0
H433 H 0.1776 0.43334 0.4508 0.0
H434 H 0.18126 0.48311 0.44913 0.0
H435 H 0.02026 0.44288 0.40574 0.0
H436 H 0.00998 0.48938 0.42003 0.0
H437 H 0.01478 0.47266 0.37142 0.0
H438 H 0.93518 0.4757 0.67374 0.0
H439 H 0.94705 0.43012 0.67664 0.0
H440 H 0.98416 0.47099 0.67717 0.0
H441 H 0.93532 0.40596 0.51856 0.0
H442 H 0.9812 0.41782 0.50648 0.0
H443 H 0.96139 0.36904 0.50867 0.0
O444 O 0.03164 0.35194 0.53062 0.0
O445 O 0.06077 0.41526 0.48553 0.0
O446 O 0.8446 0.51676 0.51951 0.0
O447 O 0.91063 0.47843 0.55605 0.0
O448 O 0.0437 0.54698 0.36199 0.0
O449 O -0.00422 0.56893 0.42449 0.0
O450 O 0.94744 0.62598 0.45733 0.0
O451 O 0.90381 0.55077 0.4752 0.0
O452 O 0.12956 0.45365 0.45305 0.0
O453 O 0.06397 0.48908 0.41289 0.0
O454 O 0.94699 0.44605 0.62602 0.0
O455 O 0.98211 0.40773 0.55968 0.0
C456 C 0.6404 0.94624 0.58054 0.0
C457 C 0.64942 0.96619 0.61867 0.0
C458 C 0.61594 0.95628 0.63185 0.0
N459 N 0.60449 0.92558 0.57275 0.0
N460 N 0.58951 0.93178 0.60276 0.0
C461 C 0.66485 0.94642 0.55172 0.0
H462 H 0.64688 0.94495 0.52314 0.0
H463 H 0.67709 0.92054 0.54945 0.0
H464 H 0.68846 0.97252 0.55998 0.0
C465 C 0.61066 0.96632 0.67204 0.0
H466 H 0.58329 0.94931 0.67496 0.0
H467 H 0.61011 -0.00287 0.6796 0.0
H468 H 0.63495 0.96139 0.69244 0.0
C469 C 0.47035 0.15719 0.36637 0.0
C470 C 0.52327 0.13841 0.35815 0.0
C471 C 0.50088 0.16373 0.34834 0.0
N472 N 0.47517 0.12958 0.38561 0.0
N473 N 0.50641 0.11826 0.38022 0.0
H474 H 0.43985 0.1998 0.38315 0.0
H475 H 0.42848 0.17944 0.33233 0.0
H476 H 0.41031 0.15202 0.36465 0.0
C477 C 0.43504 0.17286 0.36109 0.0
H478 H 0.57692 0.16097 0.34474 0.0
H479 H 0.55292 0.11313 0.31812 0.0
H480 H 0.57675 0.12049 0.36733 0.0
C481 C 0.55973 0.13314 0.34664 0.0
C482 C 0.53219 0.82355 0.55183 0.0
C483 C 0.55818 0.956 0.50412 0.0
C484 C 0.39734 0.0824 0.61646 0.0
N485 N 0.38549 0.05913 0.58152 0.0
N486 N 0.37995 0.07919 0.55537 0.0
C487 C 0.39897 0.11976 0.61228 0.0
C488 C 0.38798 0.11668 0.57287 0.0
H489 H 0.41608 0.04145 0.6466 0.0
H490 H 0.38067 0.06355 0.66445 0.0
H491 H 0.42943 0.09066 0.67449 0.0
C492 C 0.40668 0.0688 0.65269 0.0
H493 H 0.36785 0.13713 0.52257 0.0
H494 H 0.41008 0.16751 0.5552 0.0
H495 H 0.36449 0.16586 0.56763 0.0
C496 C 0.38196 0.14842 0.55318 0.0
C497 C 0.62691 0.84173 0.45793 0.0
C498 C 0.62456 0.83614 0.51696 0.0
N499 N 0.60481 0.86401 0.47179 0.0
N500 N 0.6032 0.86048 0.50673 0.0
C501 C 0.64021 0.82326 0.48621 0.0
H502 H 0.66195 0.8548 0.419 0.0
H503 H 0.63337 0.80658 0.40621 0.0
H504 H 0.6112 0.84649 0.39932 0.0
C505 C 0.63347 0.83698 0.41812 0.0
C506 C 0.63164 0.82752 0.55593 0.0
H507 H 0.66189 0.82555 0.565 0.0
H508 H 0.61292 0.79944 0.55487 0.0
H509 H 0.62489 0.84994 0.57714 0.0
C510 C 0.29934 0.97993 0.50353 0.0
C511 C 0.44811 0.00593 0.56348 0.0
C512 C 0.59123 0.11849 0.44563 0.0
N513 N 0.56583 0.08588 0.42714 0.0
C514 C 0.62766 0.11125 0.44855 0.0
N515 N 0.5839 0.05846 0.41881 0.0
C516 C 0.62185 0.07262 0.4313 0.0
H517 H 0.55121 0.15282 0.45922 0.0
H518 H 0.58321 0.17155 0.43165 0.0
H519 H 0.6013 0.17488 0.48179 0.0
C520 C 0.58108 0.15662 0.45537 0.0
H521 H 0.63964 0.02072 0.41182 0.0
C522 C 0.65156 0.05209 0.42041 0.0
H523 H 0.66114 0.06198 0.39592 0.0
H524 H 0.67687 0.05879 0.44474 0.0
C525 C 0.34806 0.95449 0.64546 0.0
C526 C 0.31982 -0.00503 0.61887 0.0
N527 N 0.36536 0.96421 0.61808 0.0
N528 N 0.34778 0.98728 0.60141 0.0
C529 C 0.31886 0.97402 0.64709 0.0
H530 H 0.37364 0.94582 0.69994 0.0
C531 C 0.36034 0.9286 0.6704 0.0
H532 H 0.38119 0.91364 0.659 0.0
H533 H 0.33513 0.90706 0.67188 0.0
H534 H 0.30384 0.04825 0.63573 0.0
H535 H 0.26573 0.01034 0.60554 0.0
C536 C 0.2967 0.02366 0.6106 0.0
H537 H 0.30292 0.03454 0.58536 0.0
C538 C 0.49763 0.02645 0.32268 0.0
C539 C 0.49244 0.07521 0.47073 0.0
C540 C 0.34437 0.03613 0.36441 0.0
N541 N 0.37586 0.05357 0.3918 0.0
C542 C 0.3532 0.03746 0.32912 0.0
C543 C 0.39164 0.0559 0.33756 0.0
N544 N 0.40423 0.06506 0.37599 0.0
C545 C 0.30536 0.02418 0.37185 0.0
H546 H 0.30766 0.01643 0.40015 0.0
H547 H 0.29059 0.04825 0.3719 0.0
H548 H 0.28786 -0.00052 0.34879 0.0
C549 C 0.4128 0.07097 0.30998 0.0
H550 H 0.4441 0.07712 0.32143 0.0
H551 H 0.40499 0.04984 0.28201 0.0
H552 H 0.40446 0.09774 0.3049 0.0
C553 C 0.54779 0.86821 0.66389 0.0
C554 C 0.52581 0.86376 0.69099 0.0
C555 C 0.49507 0.88034 0.68054 0.0
N556 N 0.5306 0.88651 0.63934 0.0
N557 N 0.49954 0.8942 0.6496 0.0
H558 H 0.57839 0.82557 0.647 0.0
H559 H 0.60221 0.85973 0.69112 0.0
H560 H 0.60087 0.87331 0.64525 0.0
C561 C 0.58465 0.85627 0.66181 0.0
C562 C 0.4599 0.87871 0.69645 0.0
H563 H 0.45181 0.85092 0.70465 0.0
H564 H 0.46582 0.90208 0.72255 0.0
H565 H 0.43576 0.88248 0.67506 0.0
C566 C 0.41988 0.15985 0.45741 0.0
C567 C 0.39992 0.00893 0.46106 0.0
C568 C 0.51343 0.86873 0.35052 0.0
C569 C 0.50255 0.83248 0.35796 0.0
C570 C 0.51987 0.83652 0.3964 0.0
N571 N 0.53631 0.89181 0.38272 0.0
N572 N 0.54004 0.8727 0.40984 0.0
C573 C 0.50727 0.87953 0.31246 0.0
H574 H 0.521 0.91001 0.31532 0.0
H575 H 0.51907 0.86086 0.29212 0.0
H576 H 0.47615 0.87522 0.3004 0.0
C577 C 0.52005 0.80624 0.41918 0.0
H578 H 0.51994 0.81875 0.44939 0.0
H579 H 0.49495 0.78182 0.40663 0.0
H580 H 0.54672 0.79561 0.41944 0.0
C581 C 0.29407 0.08711 0.48761 0.0
C582 C 0.28619 0.11106 0.4628 0.0
C583 C 0.31328 0.10996 0.44041 0.0
N584 N 0.32403 0.07308 0.4798 0.0
N585 N 0.33586 0.08724 0.45221 0.0
C586 C 0.27696 0.08157 0.52109 0.0
H587 H 0.24808 0.08807 0.51744 0.0
H588 H 0.29592 0.10092 0.54765 0.0
H589 H 0.27507 0.0517 0.52449 0.0
C590 C 0.32068 0.13366 0.41193 0.0
H591 H 0.29438 0.12868 0.3891 0.0
H592 H 0.3284 0.16455 0.42645 0.0
H593 H 0.3441 0.12604 0.39856 0.0
C594 C 0.6449 0.93987 0.43514 0.0
C595 C 0.50049 0.96492 0.41272 0.0
C596 C 0.41041 0.84574 0.58203 0.0
N597 N 0.42481 0.88381 0.58952 0.0
N598 N 0.39724 0.90113 0.57952 0.0
C599 C 0.37124 0.83909 0.56678 0.0
C600 C 0.3641 0.87509 0.5654 0.0
H601 H 0.46319 0.82822 0.59822 0.0
H602 H 0.42652 0.81328 0.62305 0.0
H603 H 0.42219 0.78934 0.57417 0.0
C604 C 0.43201 0.81751 0.59495 0.0
H605 H 0.32971 0.91214 0.54445 0.0
H606 H 0.30628 0.86141 0.53153 0.0
H607 H 0.3131 0.88878 0.57974 0.0
C608 C 0.32605 0.88491 0.55439 0.0
C609 C 0.5961 0.0011 0.32394 0.0
N610 N 0.57943 0.99086 0.35155 0.0
N611 N 0.58503 0.95714 0.35595 0.0
C612 C 0.6129 0.97167 0.30984 0.0
C613 C 0.60504 0.94407 0.33093 0.0
C614 C 0.5989 0.03952 0.3142 0.0
H615 H 0.57778 0.03672 0.28709 0.0
H616 H 0.62796 0.05046 0.3099 0.0
H617 H 0.59241 0.06014 0.33729 0.0
C618 C 0.615 0.90562 0.32646 0.0
H619 H 0.61099 0.89229 0.29557 0.0
H620 H 0.64551 0.90905 0.34045 0.0
H621 H 0.59708 0.88659 0.34009 0.0
C622 C 0.45864 0.97602 0.67821 0.0
C623 C 0.48529 0.92794 0.54512 0.0
Cu624 Cu 0.57483 0.88988 0.53097 0.0
Cu625 Cu 0.54072 0.90202 0.59589 0.0
Cu626 Cu 0.36964 0.00694 0.56543 0.0
Cu627 Cu 0.35737 0.04963 0.50643 0.0
Cu628 Cu 0.51609 0.07711 0.40005 0.0
Cu629 Cu 0.55396 0.01449 0.38502 0.0
Cu630 Cu 0.38157 0.07769 0.44222 0.0
Cu631 Cu 0.44562 0.09922 0.41008 0.0
Cu632 Cu 0.56738 0.9402 0.39559 0.0
Cu633 Cu 0.57744 0.89693 0.45294 0.0
Cu634 Cu 0.47012 0.91671 0.61741 0.0
Cu635 Cu 0.40724 0.95288 0.60077 0.0
H636 H 0.50209 0.81068 0.55164 0.0
H637 H 0.5515 0.82075 0.57796 0.0
H638 H 0.53991 0.80831 0.52603 0.0
H639 H 0.56234 0.96528 0.53564 0.0
H640 H 0.53177 0.96329 0.48994 0.0
H641 H 0.58318 0.97139 0.49543 0.0
H642 H 0.29791 0.94926 0.49149 0.0
H643 H 0.28397 -0.00788 0.48115 0.0
H644 H 0.28568 0.98237 0.5284 0.0
H645 H 0.44784 0.03677 0.57085 0.0
H646 H 0.45429 -0.00105 0.53462 0.0
H647 H 0.47079 0.0003 0.58513 0.0
H648 H 0.46612 0.01545 0.31403 0.0
H649 H 0.51151 0.00565 0.30732 0.0
H650 H 0.50556 0.0545 0.31512 0.0
H651 H 0.51716 0.10014 0.48168 0.0
H652 H 0.50123 0.04908 0.47718 0.0
H653 H 0.46904 0.0806 0.48513 0.0
H654 H 0.44863 0.17919 0.46941 0.0
H655 H 0.4066 0.16671 0.43041 0.0
H656 H 0.40158 0.16405 0.4783 0.0
H657 H 0.37663 -0.00524 0.43535 0.0
H658 H 0.42798 0.01139 0.45297 0.0
H659 H 0.39883 -0.00868 0.48278 0.0
H660 H 0.65992 0.92941 0.4591 0.0
H661 H 0.64554 0.9213 0.40766 0.0
H662 H 0.65966 0.96981 0.43688 0.0
H663 H 0.48307 0.95925 0.38303 0.0
H664 H 0.49591 0.93824 0.42349 0.0
H665 H 0.49159 0.98766 0.43149 0.0
H666 H 0.44461 0.00051 0.68286 0.0
H667 H 0.44523 0.95317 0.69097 0.0
H668 H 0.48957 0.98578 0.69217 0.0
H669 H 0.45373 0.92272 0.54087 0.0
H670 H 0.49589 0.95567 0.53813 0.0
H671 H 0.49249 0.90438 0.52581 0.0
O672 O 0.5358 0.86155 0.55121 0.0
O673 O 0.55512 0.91713 0.49389 0.0
O674 O 0.33692 -0.00049 0.51492 0.0
O675 O 0.41321 0.98398 0.56353 0.0
O676 O 0.50958 0.03047 0.36146 0.0
O677 O 0.48003 0.07027 0.43182 0.0
O678 O 0.42348 0.12252 0.45049 0.0
O679 O 0.39492 0.0447 0.47583 0.0
O680 O 0.60766 0.93852 0.43777 0.0
O681 O 0.53849 0.97658 0.41276 0.0
O682 O 0.45449 0.96228 0.63965 0.0
O683 O 0.50156 0.92931 0.58257 0.0
C684 C 0.63829 0.44246 0.06834 0.0
C685 C 0.64501 0.4571 0.10774 0.0
C686 C 0.6108 0.44269 0.11772 0.0
N687 N 0.60252 0.42081 0.05653 0.0
N688 N 0.58606 0.42107 0.08571 0.0
C689 C 0.66593 0.44657 0.04286 0.0
H690 H 0.65031 0.44616 0.01354 0.0
H691 H 0.67998 0.42192 0.0409 0.0
H692 H 0.68831 0.47354 0.05442 0.0
C693 C 0.60405 0.44316 0.15717 0.0
H694 H 0.57318 0.44083 0.15668 0.0
H695 H 0.62089 0.46953 0.17822 0.0
H696 H 0.61266 0.41813 0.16675 0.0
C697 C 0.4753 0.67363 0.88373 0.0
C698 C 0.52449 0.65508 0.86449 0.0
C699 C 0.50428 0.68402 0.86488 0.0
N700 N 0.47926 0.64086 0.89425 0.0
N701 N 0.50797 0.62947 0.88203 0.0
H702 H 0.45406 0.7247 0.89701 0.0
H703 H 0.42088 0.68511 0.86274 0.0
H704 H 0.43014 0.68358 0.91245 0.0
C705 C 0.44339 0.69306 0.8897 0.0
H706 H 0.58267 0.67428 0.86097 0.0
H707 H 0.5499 0.65242 0.81569 0.0
H708 H 0.56537 0.62298 0.84823 0.0
C709 C 0.55746 0.65066 0.84618 0.0
C710 C 0.53602 0.31054 0.02306 0.0
C711 C 0.54598 0.44795 0.98957 0.0
C712 C 0.45076 0.58045 0.128 0.0
N713 N 0.42878 0.56163 0.09364 0.0
N714 N 0.42212 0.5862 0.07238 0.0
C715 C 0.45703 0.61948 0.12927 0.0
C716 C 0.43903 0.62198 0.09291 0.0
H717 H 0.46409 0.53252 0.14915 0.0
H718 H 0.43738 0.55915 0.1763 0.0
H719 H 0.48752 0.57895 0.181 0.0
C720 C 0.46073 0.56175 0.16062 0.0
H721 H 0.4222 0.6528 0.04998 0.0
H722 H 0.45684 0.68148 0.09212 0.0
H723 H 0.40779 0.66638 0.09457 0.0
C724 C 0.43099 0.65767 0.08152 0.0
C725 C 0.63317 0.35293 0.93632 0.0
C726 C 0.63399 0.34294 -0.00541 0.0
N727 N 0.6083 0.37035 0.9516 0.0
N728 N 0.60856 0.36403 0.98599 0.0
C729 C 0.6506 0.33502 0.96324 0.0
H730 H 0.67092 0.35505 0.89724 0.0
H731 H 0.62225 0.32866 0.87628 0.0
H732 H 0.63232 0.38003 0.88866 0.0
C733 C 0.64039 0.3545 0.89745 0.0
C734 C 0.64129 0.33046 0.03171 0.0
H735 H 0.66809 0.34914 0.05079 0.0
H736 H 0.64456 0.30033 0.02666 0.0
H737 H 0.61777 0.33352 0.04665 0.0
C738 C 0.316 0.50945 0.03605 0.0
C739 C 0.45068 0.48208 0.04761 0.0
C740 C 0.59146 0.62135 0.94155 0.0
N741 N 0.56643 0.59021 0.91909 0.0
C742 C 0.62797 0.6145 0.94401 0.0
N743 N 0.58469 0.5639 0.90769 0.0
C744 C 0.62256 0.57751 0.92215 0.0
H745 H 0.55109 0.65289 0.95989 0.0
H746 H 0.58361 0.67697 0.93557 0.0
H747 H 0.60099 0.67377 0.98409 0.0
C748 C 0.58109 0.65836 0.95633 0.0
H749 H 0.64172 0.52777 0.89834 0.0
C750 C 0.65301 0.55898 0.90982 0.0
H751 H 0.66309 0.57193 0.88711 0.0
H752 H 0.67789 0.56415 0.93434 0.0
C753 C 0.37878 0.47028 0.16737 0.0
C754 C 0.35786 0.51754 0.14638 0.0
N755 N 0.39253 0.47584 0.13658 0.0
N756 N 0.37936 0.50337 0.12354 0.0
C757 C 0.35668 0.49695 0.1749 0.0
H758 H 0.39084 0.45072 0.21953 0.0
C759 C 0.38569 0.43948 0.18809 0.0
H760 H 0.4103 0.42814 0.18076 0.0
H761 H 0.35992 0.41551 0.17926 0.0
H762 H 0.35138 0.57502 0.16308 0.0
H763 H 0.30732 0.54022 0.14159 0.0
C764 C 0.33777 0.54888 0.14014 0.0
H765 H 0.33965 0.55558 0.11204 0.0
C766 C 0.50573 0.54864 0.80949 0.0
C767 C 0.49075 0.55617 0.95384 0.0
C768 C 0.342 0.56964 0.88907 0.0
N769 N 0.37728 0.58237 0.91155 0.0
C770 C 0.3453 0.56643 0.85118 0.0
C771 C 0.38441 0.57772 0.85321 0.0
N772 N 0.40253 0.58722 0.89042 0.0
C773 C 0.30645 0.56064 0.90383 0.0
H774 H 0.31338 0.55303 0.93207 0.0
H775 H 0.29411 0.58641 0.90781 0.0
H776 H 0.28478 0.5368 0.88311 0.0
C777 C 0.4037 0.58105 0.82065 0.0
H778 H 0.40871 0.55261 0.80845 0.0
H779 H 0.38524 0.58997 0.79764 0.0
H780 H 0.43175 0.60173 0.83052 0.0
C781 C 0.54849 0.34369 0.14021 0.0
C782 C 0.52832 0.33948 0.16879 0.0
C783 C 0.50226 0.36276 0.16494 0.0
N784 N 0.53394 0.36745 0.12031 0.0
N785 N 0.50694 0.37918 0.13565 0.0
H786 H 0.56471 0.29267 0.11628 0.0
H787 H 0.59964 0.32375 0.15647 0.0
H788 H 0.59325 0.33662 0.11024 0.0
C789 C 0.57844 0.32315 0.13012 0.0
C790 C 0.4705 0.36576 0.18544 0.0
H791 H 0.44506 0.34245 0.17042 0.0
H792 H 0.47927 0.36282 0.21544 0.0
H793 H 0.46205 0.39344 0.18511 0.0
C794 C 0.45773 0.66801 0.9863 0.0
C795 C 0.3915 0.51716 0.96255 0.0
C796 C 0.51302 0.37739 0.83202 0.0
C797 C 0.50201 0.34021 0.837 0.0
C798 C 0.52103 0.34133 0.87428 0.0
N799 N 0.53693 0.39855 0.86461 0.0
N800 N 0.54158 0.37721 0.88975 0.0
C801 C 0.50381 0.39163 0.79611 0.0
H802 H 0.52316 0.41965 0.79833 0.0
H803 H 0.50608 0.37036 0.77098 0.0
H804 H 0.47394 0.39548 0.79151 0.0
C805 C 0.5206 0.30922 0.89469 0.0
H806 H 0.5243 0.3205 0.92597 0.0
H807 H 0.49351 0.287 0.88325 0.0
H808 H 0.54504 0.29591 0.89051 0.0
C809 C 0.33388 0.62431 0.0357 0.0
C810 C 0.32609 0.65177 0.01506 0.0
C811 C 0.3457 0.647 0.98568 0.0
N812 N 0.35627 0.60448 0.0187 0.0
N813 N 0.36382 0.61859 0.98946 0.0
C814 C 0.32456 0.6205 0.07334 0.0
H815 H 0.29777 0.59828 0.06829 0.0
H816 H 0.32036 0.64802 0.0891 0.0
H817 H 0.3481 0.61161 0.09098 0.0
C818 C 0.34624 0.66777 0.95383 0.0
H819 H 0.31741 0.67279 0.94326 0.0
H820 H 0.36678 0.69599 0.96464 0.0
H821 H 0.3557 0.65132 0.9299 0.0
C822 C 0.64095 0.46008 0.9316 0.0
C823 C 0.49465 0.47023 0.88679 0.0
C824 C 0.40797 0.34077 0.08303 0.0
N825 N 0.42634 0.37788 0.09355 0.0
N826 N 0.40131 0.39951 0.09309 0.0
C827 C 0.36873 0.33919 0.07619 0.0
C828 C 0.36574 0.3774 0.08284 0.0
H829 H 0.45745 0.31669 0.09641 0.0
H830 H 0.41166 0.28394 0.08999 0.0
H831 H 0.42787 0.29727 0.04942 0.0
C832 C 0.42743 0.30783 0.0799 0.0
H833 H 0.33635 0.42165 0.07164 0.0
H834 H 0.30692 0.37307 0.05531 0.0
H835 H 0.32059 0.39598 0.10567 0.0
C836 C 0.33025 0.39287 0.07829 0.0
C837 C 0.60341 0.51136 0.81369 0.0
N838 N 0.58226 0.50009 0.8379 0.0
N839 N 0.58696 0.46624 0.84289 0.0
C840 C 0.62195 0.48236 0.80237 0.0
C841 C 0.61044 0.454 0.82147 0.0
C842 C 0.6098 0.55072 0.80595 0.0
H843 H 0.59152 0.54975 0.77765 0.0
H844 H 0.64016 0.56093 0.80491 0.0
H845 H 0.60206 0.57104 0.82838 0.0
C846 C 0.62145 0.41618 0.8196 0.0
H847 H 0.62596 0.40489 0.79068 0.0
H848 H 0.64863 0.41997 0.84094 0.0
H849 H 0.59899 0.39529 0.82658 0.0
C850 C 0.49091 0.4714 0.1716 0.0
C851 C 0.47217 0.39199 0.02815 0.0
Cu852 Cu 0.57635 0.38554 0.01218 0.0
Cu853 Cu 0.5406 0.38486 0.07652 0.0
Cu854 Cu 0.39458 0.51483 0.08042 0.0
Cu855 Cu 0.38233 0.56714 0.02961 0.0
Cu856 Cu 0.51723 0.58368 0.8916 0.0
Cu857 Cu 0.55457 0.52327 0.86944 0.0
Cu858 Cu 0.3965 0.5972 0.96355 0.0
Cu859 Cu 0.45217 0.608 0.91792 0.0
Cu860 Cu 0.56529 0.44829 0.88001 0.0
Cu861 Cu 0.57613 0.40071 0.93549 0.0
Cu862 Cu 0.47667 0.40441 0.10816 0.0
Cu863 Cu 0.42161 0.45145 0.10806 0.0
H864 H 0.55266 0.3024 0.04769 0.0
H865 H 0.54598 0.30021 -0.00319 0.0
H866 H 0.50517 0.2972 0.01879 0.0
H867 H 0.54532 0.45282 0.02041 0.0
H868 H 0.51863 0.45139 0.97293 0.0
H869 H 0.5702 0.46928 0.98588 0.0
H870 H 0.30287 0.49056 0.00722 0.0
H871 H 0.30347 0.53504 0.03946 0.0
H872 H 0.3102 0.49347 0.0583 0.0
H873 H 0.4561 0.51226 0.04464 0.0
H874 H 0.44432 0.46279 0.01874 0.0
H875 H 0.47657 0.47745 0.06586 0.0
H876 H 0.49402 0.52023 0.78938 0.0
H877 H 0.53254 0.56279 0.80289 0.0
H878 H 0.48451 0.56677 0.80621 0.0
H879 H 0.51988 0.5505 0.95633 0.0
H880 H 0.47033 0.52933 0.95324 0.0
H881 H 0.49077 0.57872 0.97892 0.0
H882 H 0.47755 0.68295 0.97124 0.0
H883 H 0.43223 0.68065 0.98545 0.0
H884 H 0.47292 0.67146 0.01649 0.0
H885 H 0.39863 0.51714 0.9342 0.0
H886 H 0.40668 0.49798 0.97668 0.0
H887 H 0.36011 0.50675 0.95842 0.0
H888 H 0.6552 0.43966 0.94461 0.0
H889 H 0.64891 0.46141 0.90385 0.0
H890 H 0.65054 0.48889 0.95127 0.0
H891 H 0.48363 0.44974 0.85855 0.0
H892 H 0.48804 0.45577 0.90981 0.0
H893 H 0.48055 0.49471 0.88693 0.0
H894 H 0.51217 0.49834 0.17417 0.0
H895 H 0.46848 0.47774 0.18707 0.0
H896 H 0.50582 0.45131 0.18447 0.0
H897 H 0.46868 0.36042 0.02026 0.0
H898 H 0.44376 0.39834 0.0293 0.0
H899 H 0.48342 0.40508 0.00623 0.0
O900 O 0.54099 0.34964 0.02985 0.0
O901 O 0.55076 0.41157 0.97701 0.0
O902 O 0.35477 0.5206 0.03981 0.0
O903 O 0.42004 0.47486 0.06424 0.0
O904 O 0.5129 0.54384 0.84639 0.0
O905 O 0.48038 0.56821 0.92065 0.0
O906 O 0.44661 0.62977 0.96878 0.0
O907 O 0.40264 0.55369 0.98499 0.0
O908 O 0.60198 0.44809 0.92576 0.0
O909 O 0.53352 0.48313 0.89264 0.0
O910 O 0.47456 0.45535 0.13359 0.0
O911 O 0.49681 0.40647 0.06342 0.0
C912 C 0.97315 0.18979 0.1515 0.0
C913 C 0.93972 0.16402 0.15193 0.0
C914 C -0.01041 0.22156 0.1821 0.0
C915 C 0.97258 0.22687 0.21409 0.0
C916 C 0.93875 0.20088 0.21458 0.0
C917 C 0.92244 0.16994 0.18317 0.0
C918 C 0.02541 0.24911 0.18046 0.0
C919 C 0.9202 0.20535 0.24852 0.0
C920 C 0.0367 0.2846 0.30864 0.0
C921 C 0.0255 0.31961 0.31153 0.0
C922 C 0.01934 0.25394 0.27721 0.0
C923 C -0.00916 0.25893 0.24762 0.0
C924 C 0.97969 0.29439 0.25018 0.0
C925 C -0.0031 0.32424 0.28245 0.0
C926 C 0.03149 0.21627 0.27565 0.0
C927 C 0.94975 0.3008 0.21881 0.0
H928 H 0.98692 0.18465 0.12767 0.0
H929 H 0.89619 0.15026 0.18311 0.0
H930 H 0.02117 0.2789 0.18546 0.0
H931 H 0.04962 0.24827 0.20351 0.0
H932 H 0.03354 0.24223 0.15243 0.0
H933 H 0.89394 0.18254 0.24427 0.0
H934 H 0.94077 0.20442 0.27474 0.0
H935 H 0.91248 0.23365 0.25374 0.0
H936 H 0.05942 0.28129 0.33072 0.0
H937 H 0.98782 0.35115 0.285 0.0
H938 H 0.04375 0.20935 0.25017 0.0
H939 H 0.00621 0.19274 0.27263 0.0
H940 H 0.05316 0.2168 0.3017 0.0
H941 H 0.95843 0.29512 0.191 0.0
H942 H 0.94525 0.33051 0.22472 0.0
H943 H 0.92205 0.28045 0.21554 0.0
C944 C 0.76976 0.01933 0.19188 0.0
C945 C 0.7715 0.98763 0.16453 0.0
C946 C 0.74152 0.01666 0.21324 0.0
C947 C 0.7149 0.98129 0.20715 0.0
C948 C 0.7161 0.94941 0.17888 0.0
C949 C 0.74449 0.95303 0.15775 0.0
C950 C 0.74101 0.05124 0.24319 0.0
C951 C 0.6882 0.91125 0.17178 0.0
C952 C 0.67399 0.96394 0.29206 0.0
C953 C 0.63788 0.97213 0.28245 0.0
C954 C 0.69901 0.96595 0.26727 0.0
C955 C 0.68766 0.97695 0.23236 0.0
C956 C 0.65105 0.98499 0.22235 0.0
C957 C 0.62645 0.98241 0.24763 0.0
C958 C 0.73789 0.95716 0.27885 0.0
C959 C 0.63821 -0.00305 0.18537 0.0
H960 H 0.79119 0.04585 0.19737 0.0
H961 H 0.74574 0.92877 0.13607 0.0
H962 H 0.71194 0.05726 0.23908 0.0
H963 H 0.74807 0.04531 0.27219 0.0
H964 H 0.76185 0.07731 0.24227 0.0
H965 H 0.69164 0.89004 0.14718 0.0
H966 H 0.69254 0.89932 0.19778 0.0
H967 H 0.65831 0.91505 0.16607 0.0
H968 H 0.6832 0.95711 0.31953 0.0
H969 H 0.59835 0.98854 0.24028 0.0
H970 H 0.76071 0.98319 0.28241 0.0
H971 H 0.74224 0.93465 0.25602 0.0
H972 H 0.74147 0.94726 0.30613 0.0
H973 H 0.65755 0.02423 0.1851 0.0
H974 H 0.60838 0.00105 0.18137 0.0
H975 H 0.64003 0.97503 0.16058 0.0
C976 C 0.96943 0.80324 0.20985 0.0
C977 C -0.00023 0.83253 0.20882 0.0
C978 C 0.97399 0.78019 0.23643 0.0
C979 C 0.00991 0.78644 0.26219 0.0
C980 C 0.04052 0.81637 0.2616 0.0
C981 C 0.03498 0.83926 0.23493 0.0
C982 C 0.94063 0.7486 0.23636 0.0
C983 C 0.07921 0.82374 0.28861 0.0
C984 C 0.00847 0.74267 0.34861 0.0
C985 C 0.01782 0.70762 0.33581 0.0
C986 C 0.00704 0.76935 0.32544 0.0
C987 C 0.01552 0.76071 0.28884 0.0
C988 C 0.02671 0.72606 0.27654 0.0
C989 C 0.0275 0.69976 0.30017 0.0
C990 C -0.0051 0.80598 0.33942 0.0
C991 C 0.03619 0.71601 0.23775 0.0
H992 H 0.94244 0.79762 0.18915 0.0
H993 H 0.0582 0.8624 0.23448 0.0
H994 H 0.94792 0.72029 0.22874 0.0
H995 H 0.93462 0.7516 0.26544 0.0
H996 H 0.91414 0.74875 0.21568 0.0
H997 H 0.09969 0.84883 0.2851 0.0
H998 H 0.07613 0.82884 0.31878 0.0
H999 H 0.09158 0.79808 0.28345 0.0
H1000 H 0.00156 0.74891 0.37649 0.0
H1001 H 0.03412 0.67237 0.28999 0.0
H1002 H 0.96692 0.80587 0.3211 0.0
H1003 H 0.01595 0.83117 0.33708 0.0
H1004 H -0.00801 0.8096 0.36966 0.0
H1005 H 0.01 0.7114 0.21482 0.0
H1006 H 0.04766 0.68964 0.234 0.0
H1007 H 0.05759 0.74002 0.23373 0.0
C1008 C 0.30115 0.06174 0.29508 0.0
C1009 C 0.32501 0.03571 0.29426 0.0
C1010 C 0.26938 0.05661 0.26506 0.0
C1011 C 0.26189 0.02488 0.23365 0.0
C1012 C 0.2881 0.00063 0.23118 0.0
C1013 C 0.31955 0.00631 0.26188 0.0
C1014 C 0.2421 0.08301 0.26872 0.0
C1015 C 0.28117 0.96683 0.19773 0.0
C1016 C 0.15944 0.97309 0.18942 0.0
C1017 C 0.15312 0.98455 0.15463 0.0
C1018 C 0.19438 0.98735 0.21605 0.0
C1019 C 0.22381 0.01311 0.20716 0.0
C1020 C 0.21715 0.0259 0.17265 0.0
C1021 C 0.18157 0.0115 0.14672 0.0
C1022 C 0.20033 0.97344 0.2529 0.0
C1023 C 0.248 0.0533 0.16237 0.0
H1024 H 0.3062 0.08488 0.32023 0.0
H1025 H 0.33855 0.9866 0.26153 0.0
H1026 H 0.23276 0.09109 0.24115 0.0
H1027 H 0.21611 0.06787 0.27618 0.0
H1028 H 0.25517 0.10957 0.29142 0.0
H1029 H 0.30692 0.9546 0.1973 0.0
H1030 H 0.25725 0.94403 0.1997 0.0
H1031 H 0.27271 0.97529 0.17018 0.0
H1032 H 0.13779 0.95149 0.19507 0.0
H1033 H 0.17637 0.02044 0.11979 0.0
H1034 H 0.21075 -0.00182 0.27797 0.0
H1035 H 0.22252 0.95623 0.25324 0.0
H1036 H 0.17364 0.95544 0.25644 0.0
H1037 H 0.26093 0.07848 0.18662 0.0
H1038 H 0.23689 0.06356 0.13651 0.0
H1039 H 0.27125 0.03871 0.15669 0.0
C1040 C 0.03313 0.77552 0.81204 0.0
C1041 C 0.01886 0.80886 0.81492 0.0
C1042 C 0.0191 0.74528 0.7796 0.0
C1043 C -0.00937 0.74893 0.74918 0.0
C1044 C 0.97625 0.78266 0.75187 0.0
C1045 C -0.0096 0.8122 0.78496 0.0
C1046 C 0.0348 0.70951 0.77782 0.0
C1047 C 0.94605 0.78755 0.7198 0.0
C1048 C 0.98053 0.6839 0.65208 0.0
C1049 C 0.94886 0.65507 0.6509 0.0
C1050 C -0.00597 0.71521 0.68365 0.0
C1051 C 0.9756 0.71714 0.71476 0.0
C1052 C 0.94338 0.68813 0.71348 0.0
C1053 C 0.93018 0.65754 0.68131 0.0
C1054 C 0.02825 0.74591 0.68398 0.0
C1055 C 0.92321 0.68912 0.74627 0.0
H1056 H 0.05573 0.77332 0.8349 0.0
H1057 H 0.97899 0.83778 0.78752 0.0
H1058 H 0.01112 0.68404 0.77355 0.0
H1059 H 0.04838 0.70502 0.75295 0.0
H1060 H 0.05635 0.71101 0.8043 0.0
H1061 H 0.93868 0.81601 0.72604 0.0
H1062 H 0.95623 0.78426 0.69271 0.0
H1063 H 0.91961 0.76488 0.71491 0.0
H1064 H -0.00487 0.68158 0.62863 0.0
H1065 H 0.90519 0.63549 0.67992 0.0
H1066 H 0.05234 0.74666 0.70791 0.0
H1067 H 0.0211 0.77451 0.68894 0.0
H1068 H 0.03807 0.74107 0.65669 0.0
H1069 H 0.94359 0.68889 0.7729 0.0
H1070 H 0.8984 0.66436 0.74056 0.0
H1071 H 0.91287 0.71602 0.75171 0.0
C1072 C 0.22055 0.97759 0.82485 0.0
C1073 C 0.18446 0.98593 0.81582 0.0
C1074 C 0.24329 0.97544 0.79778 0.0
C1075 C 0.22923 0.98167 0.76105 0.0
C1076 C 0.19268 0.99 0.75187 0.0
C1077 C 0.17065 -0.00801 0.77949 0.0
C1078 C 0.28225 0.9666 0.8084 0.0
C1079 C 0.17678 -0.00345 0.71284 0.0
C1080 C 0.29923 0.01086 0.70137 0.0
C1081 C 0.29571 0.97597 0.67587 0.0
C1082 C 0.2779 0.0131 0.72961 0.0
C1083 C 0.25271 0.97953 0.7321 0.0
C1084 C 0.24928 0.94413 0.70639 0.0
C1085 C 0.27101 0.9428 0.67843 0.0
C1086 C 0.28226 0.05126 0.7567 0.0
C1087 C 0.22252 0.90787 0.70824 0.0
H1088 H 0.23108 0.97315 0.85318 0.0
H1089 H 0.14227 -0.00244 0.77242 0.0
H1090 H 0.28379 0.94022 0.7884 0.0
H1091 H 0.30475 0.99033 0.80561 0.0
H1092 H 0.28882 0.96244 0.8382 0.0
H1093 H 0.14788 0.00295 0.7105 0.0
H1094 H 0.19633 0.02082 0.70688 0.0
H1095 H 0.17487 0.97076 0.69027 0.0
H1096 H 0.3191 0.03624 0.69954 0.0
H1097 H 0.26849 0.91594 0.65835 0.0
H1098 H 0.2915 0.04888 0.7868 0.0
H1099 H 0.25425 0.05959 0.75396 0.0
H1100 H 0.30346 0.07448 0.75108 0.0
H1101 H 0.22976 0.9018 0.73716 0.0
H1102 H 0.22384 0.88259 0.68652 0.0
H1103 H 0.1926 0.91164 0.7035 0.0
C1104 C 0.01747 0.27353 0.68111 0.0
C1105 C 0.00638 0.3084 0.68992 0.0
C1106 C 0.02104 0.25052 0.70795 0.0
C1107 C 0.01252 0.26238 0.7441 0.0
C1108 C 0.00171 0.29779 0.75328 0.0
C1109 C -0.00081 0.32058 0.72619 0.0
C1110 C 0.03317 0.21318 0.69734 0.0
C1111 C -0.00801 0.31121 0.79139 0.0
C1112 C 0.98056 0.18578 0.79652 0.0
C1113 C 0.01334 0.19039 0.82544 0.0
C1114 C 0.97992 0.20908 0.76989 0.0
C1115 C 0.01323 0.23703 0.77171 0.0
C1116 C 0.04679 0.24113 0.80026 0.0
C1117 C 0.04633 0.21789 0.82704 0.0
C1118 C 0.94347 0.20403 0.74005 0.0
C1119 C 0.08301 0.27021 0.80268 0.0
H1120 H 0.02249 0.26373 0.6529 0.0
H1121 H -0.00843 0.34797 0.73345 0.0
H1122 H 0.05772 0.21173 0.71972 0.0
H1123 H 0.00929 0.18874 0.69583 0.0
H1124 H 0.04154 0.20953 0.66926 0.0
H1125 H 0.98448 0.33968 0.79419 0.0
H1126 H 0.96739 0.29009 0.79479 0.0
H1127 H 0.01657 0.31306 0.81523 0.0
H1128 H 0.9554 0.16374 0.79451 0.0
H1129 H 0.07158 0.22167 0.8496 0.0
H1130 H 0.94885 0.19666 0.71085 0.0
H1131 H 0.93373 0.23136 0.74272 0.0
H1132 H 0.91998 0.18118 0.74281 0.0
H1133 H 0.09161 0.26576 0.77476 0.0
H1134 H 0.10716 0.26849 0.82541 0.0
H1135 H 0.07783 0.2996 0.80874 0.0
C1136 C 0.71889 0.96781 0.63761 0.0
C1137 C 0.688 0.98481 0.64231 0.0
C1138 C 0.75417 0.98094 0.66385 0.0
C1139 C 0.75773 0.01021 0.69653 0.0
C1140 C 0.72761 0.02931 0.70005 0.0
C1141 C 0.69323 0.01683 0.67224 0.0
C1142 C 0.7864 0.96116 0.65833 0.0
C1143 C 0.73026 0.06032 0.73494 0.0
C1144 C 0.81413 -0.00149 0.78947 0.0
C1145 C 0.84524 0.02986 0.79798 0.0
C1146 C 0.7856 -0.00843 0.75611 0.0
C1147 C 0.78945 0.01568 0.72998 0.0
C1148 C 0.82238 0.04562 0.737 0.0
C1149 C 0.84962 0.05294 0.77154 0.0
C1150 C 0.75055 0.95955 0.74978 0.0
C1151 C 0.82812 0.07083 0.70898 0.0
H1152 H 0.71502 0.94263 0.61494 0.0
H1153 H 0.66976 0.03077 0.67511 0.0
H1154 H 0.81442 0.98217 0.66684 0.0
H1155 H 0.78763 0.94007 0.67672 0.0
H1156 H 0.78224 0.94558 0.62806 0.0
H1157 H 0.70584 0.07468 0.73151 0.0
H1158 H 0.73041 0.04748 0.76036 0.0
H1159 H 0.75735 0.08231 0.74096 0.0
H1160 H 0.81148 0.98014 0.80955 0.0
H1161 H 0.8734 0.07765 0.77841 0.0
H1162 H 0.74766 0.93834 0.7227 0.0
H1163 H 0.72437 0.97129 0.74701 0.0
H1164 H 0.7517 0.94431 0.77361 0.0
H1165 H 0.81969 0.05354 0.67902 0.0
H1166 H 0.85839 0.0869 0.71468 0.0
H1167 H 0.80982 0.09197 0.71142 0.0
C1168 C 0.30634 0.30298 0.08293 0.0
C1169 C 0.33734 0.30466 0.0651 0.0
C1170 C 0.27527 0.27124 0.0712 0.0
C1171 C 0.27601 0.24017 0.04178 0.0
C1172 C 0.30817 0.24089 0.02507 0.0
C1173 C 0.33818 0.27355 0.03645 0.0
C1174 C 0.24096 0.27179 0.08894 0.0
C1175 C 0.31018 0.2079 -0.00593 0.0
C1176 C 0.2021 0.14713 0.0245 0.0
C1177 C 0.17586 0.15017 0.99255 0.0
C1178 C 0.23532 0.17613 0.04085 0.0
C1179 C 0.24143 0.20905 0.0253 0.0
C1180 C 0.21469 0.21229 -0.00674 0.0
C1181 C 0.18258 0.18239 0.97682 0.0
C1182 C 0.26392 0.17148 0.07439 0.0
C1183 C 0.21995 0.24728 0.97626 0.0
H1184 H 0.30614 0.3267 0.10572 0.0
H1185 H 0.36173 0.27509 0.02207 0.0
H1186 H 0.21583 0.27251 0.06684 0.0
H1187 H 0.23345 0.2453 0.09949 0.0
H1188 H 0.24601 0.29704 0.11317 0.0
H1189 H 0.33925 0.21067 0.98806 0.0
H1190 H 0.3021 0.18021 0.00244 0.0
H1191 H 0.28951 0.20681 0.96718 0.0
H1192 H 0.19654 0.12228 0.03678 0.0
H1193 H 0.16278 0.18416 0.95141 0.0
H1194 H 0.26732 0.19518 0.09964 0.0
H1195 H 0.29241 0.17315 0.0672 0.0
H1196 H 0.25521 0.14372 0.0825 0.0
H1197 H 0.22378 0.27363 -0.00117 0.0
H1198 H 0.19519 0.24613 0.95279 0.0
H1199 H 0.24616 0.24986 0.96463 0.0
C1200 C 0.26521 0.66597 0.02923 0.0
C1201 C 0.30106 0.67873 0.02151 0.0
C1202 C 0.23934 0.68997 0.03117 0.0
C1203 C 0.24939 0.72712 0.02428 0.0
C1204 C 0.2862 0.74069 0.01813 0.0
C1205 C 0.31186 0.71643 0.01742 0.0
C1206 C 0.20063 0.67494 0.03878 0.0
C1207 C 0.29775 0.78001 0.01023 0.0
C1208 C 0.16864 0.76818 0.97969 0.0
C1209 C 0.16639 0.79604 0.01078 0.0
C1210 C 0.1957 0.74563 0.98374 0.0
C1211 C 0.22032 0.75047 0.02007 0.0
C1212 C 0.2176 0.77799 0.05183 0.0
C1213 C 0.19096 0.80091 0.04664 0.0
C1214 C 0.19821 0.71693 0.94906 0.0
C1215 C 0.24294 0.78334 0.09112 0.0
H1216 H 0.25675 0.63672 0.03221 0.0
H1217 H 0.34008 0.72673 0.01277 0.0
H1218 H 0.19387 0.69638 0.06095 0.0
H1219 H 0.17812 0.66989 0.01218 0.0
H1220 H 0.19924 0.64759 0.04845 0.0
H1221 H 0.32819 0.78696 0.00816 0.0
H1222 H 0.27939 0.78144 0.98282 0.0
H1223 H 0.29332 0.80234 0.03315 0.0
H1224 H 0.1491 0.76387 0.95217 0.0
H1225 H 0.18974 0.82299 0.07054 0.0
H1226 H 0.19247 0.68754 0.95426 0.0
H1227 H 0.22759 0.72302 0.94392 0.0
H1228 H 0.17753 0.71744 0.92269 0.0
H1229 H 0.24043 0.7555 0.09986 0.0
H1230 H 0.23553 0.80434 0.11326 0.0
H1231 H 0.27335 0.7935 0.09036 0.0
C1232 C 0.70918 0.31458 0.9905 0.0
C1233 C 0.67901 0.3114 0.95929 0.0
C1234 C 0.73294 0.28852 0.98953 0.0
C1235 C 0.72763 0.26005 0.95564 0.0
C1236 C 0.69926 0.2587 0.92287 0.0
C1237 C 0.67461 0.28393 0.92538 0.0
C1238 C 0.76227 0.29021 0.02541 0.0
C1239 C 0.69399 0.22975 0.88571 0.0
C1240 C 0.80934 0.20988 0.95296 0.0
C1241 C 0.79437 0.17526 0.9621 0.0
C1242 C 0.7871 0.23694 0.94854 0.0
C1243 C 0.7499 0.23004 0.95567 0.0
C1244 C 0.73467 0.19526 0.96513 0.0
C1245 C 0.75682 0.16785 0.96726 0.0
C1246 C 0.80363 0.27308 0.93689 0.0
C1247 C 0.69546 0.18745 0.97409 0.0
H1248 H 0.71361 0.33682 0.01617 0.0
H1249 H 0.65111 0.2811 0.90127 0.0
H1250 H 0.75591 0.26291 0.03491 0.0
H1251 H 0.79133 0.29353 0.01948 0.0
H1252 H 0.76266 0.31426 0.04935 0.0
H1253 H 0.67502 0.23651 0.86148 0.0
H1254 H 0.7221 0.22862 0.8784 0.0
H1255 H 0.68108 0.20076 0.88887 0.0
H1256 H 0.83867 0.21629 0.94992 0.0
H1257 H 0.74476 0.14071 0.97326 0.0
H1258 H 0.80991 0.29804 0.96154 0.0
H1259 H 0.78261 0.27856 0.91345 0.0
H1260 H 0.83054 0.27144 0.92709 0.0
H1261 H 0.694 0.21045 -0.00186 0.0
H1262 H 0.68842 0.15939 0.9821 0.0
H1263 H 0.67321 0.18765 0.94891 0.0
C1264 C 0.77717 0.80448 0.04385 0.0
C1265 C 0.81166 0.81054 0.03188 0.0
C1266 C 0.74927 0.7705 0.02798 0.0
C1267 C 0.7564 0.742 -0.00029 0.0
C1268 C 0.79129 0.74798 0.98757 0.0
C1269 C 0.81857 0.78243 0.00378 0.0
C1270 C 0.71219 0.7651 0.04141 0.0
C1271 C 0.79967 0.71816 0.95742 0.0
C1272 C 0.69274 0.64365 0.98566 0.0
C1273 C 0.6635 0.64423 0.95519 0.0
C1274 C 0.72451 0.6747 -0.00058 0.0
C1275 C 0.72651 0.7066 0.98207 0.0
C1276 C 0.69791 0.70609 0.94982 0.0
C1277 C 0.66671 0.67468 0.93664 0.0
C1278 C 0.7548 0.67429 0.03366 0.0
C1279 C 0.69912 0.73954 0.93055 0.0
H1280 H 0.77227 0.82606 0.06612 0.0
H1281 H 0.84517 0.78751 -0.00572 0.0
H1282 H 0.68761 0.76079 0.01679 0.0
H1283 H 0.70825 0.73903 0.05327 0.0
H1284 H 0.71133 0.79005 0.06377 0.0
H1285 H 0.8288 0.72678 0.9522 0.0
H1286 H 0.79711 0.6904 0.96631 0.0
H1287 H 0.77832 0.71326 0.93 0.0
H1288 H 0.68995 0.61973 -0.00038 0.0
H1289 H 0.64413 0.67439 0.91251 0.0
H1290 H 0.7533 0.69592 0.05886 0.0
H1291 H 0.78381 0.68222 0.02806 0.0
H1292 H 0.75115 0.64576 0.04108 0.0
H1293 H 0.69549 0.76489 0.95057 0.0
H1294 H 0.67624 0.73316 0.90395 0.0
H1295 H 0.72732 0.74752 0.92324 0.0
C1296 C 0.68607 0.47427 0.79294 0.0
C1297 C 0.65123 0.48356 0.77939 0.0
C1298 C 0.71405 0.47461 0.77126 0.0
C1299 C 0.707 0.48494 0.73544 0.0
C1300 C 0.67204 0.49495 0.72188 0.0
C1301 C 0.64444 0.4941 0.74412 0.0
C1302 C 0.75106 0.46384 0.78663 0.0
C1303 C 0.66374 0.50625 0.68384 0.0
C1304 C 0.79311 0.51797 0.6956 0.0
C1305 C 0.79262 0.48473 0.66898 0.0
C1306 C 0.76509 0.5186 0.71724 0.0
C1307 C 0.73626 0.48504 0.71214 0.0
C1308 C 0.73582 0.4513 0.68536 0.0
C1309 C 0.76408 0.4516 0.66397 0.0
C1310 C 0.76643 0.55504 0.74564 0.0
C1311 C 0.70553 0.41497 0.6793 0.0
H1312 H 0.69166 0.46715 0.82075 0.0
H1313 H 0.61735 0.50116 0.73373 0.0
H1314 H 0.75492 0.43898 0.76613 0.0
H1315 H 0.77571 0.48802 0.78967 0.0
H1316 H 0.75186 0.4563 0.81495 0.0
H1317 H 0.63541 0.51387 0.6778 0.0
H1318 H 0.68627 0.53117 0.68348 0.0
H1319 H 0.6643 0.48228 0.66033 0.0
H1320 H 0.8157 0.54332 0.69985 0.0
H1321 H 0.76351 0.42612 0.64286 0.0
H1322 H 0.77001 0.54981 0.77504 0.0
H1323 H 0.73899 0.56419 0.73907 0.0
H1324 H 0.79024 0.57889 0.74541 0.0
H1325 H 0.70646 0.40548 0.70667 0.0
H1326 H 0.70929 0.39124 0.65729 0.0
H1327 H 0.67665 0.42048 0.67022 0.0
C1328 C 0.16049 0.46431 0.69293 0.0
C1329 C 0.15497 0.47937 0.66017 0.0
C1330 C 0.19164 0.48152 0.72372 0.0
C1331 C 0.21815 0.51411 0.7212 0.0
C1332 C 0.21254 0.52971 0.6883 0.0
C1333 C 0.18073 0.51212 0.65806 0.0
C1334 C 0.19668 0.46422 0.75851 0.0
C1335 C 0.24053 0.56431 0.68472 0.0
C1336 C 0.28195 0.57136 0.81582 0.0
C1337 C 0.31405 0.55526 0.81668 0.0
C1338 C 0.25087 0.55926 0.78413 0.0
C1339 C 0.25242 0.53074 0.75264 0.0
C1340 C 0.28554 0.5156 0.75274 0.0
C1341 C 0.316 0.52796 0.78501 0.0
C1342 C 0.21586 0.57581 0.78497 0.0
C1343 C 0.28815 0.48525 0.71948 0.0
H1344 H 0.14108 0.43834 0.69404 0.0
H1345 H 0.17612 0.52378 0.63269 0.0
H1346 H 0.22338 0.45341 0.76155 0.0
H1347 H 0.19955 0.48641 0.78491 0.0
H1348 H 0.17228 0.44011 0.75668 0.0
H1349 H 0.23124 0.57362 0.65777 0.0
H1350 H 0.24401 0.58861 0.70945 0.0
H1351 H 0.2691 0.55757 0.68532 0.0
H1352 H 0.281 0.59317 0.8401 0.0
H1353 H 0.3408 0.51536 0.78596 0.0
H1354 H 0.19128 0.55304 0.78562 0.0
H1355 H 0.20779 0.58642 0.75862 0.0
H1356 H 0.22042 0.59976 0.81038 0.0
H1357 H 0.26727 0.4582 0.71749 0.0
H1358 H 0.31724 0.47923 0.72255 0.0
H1359 H 0.28065 0.49429 0.69209 0.0
C1360 C 0.23842 0.50586 0.33976 0.0
C1361 C 0.20269 0.51255 0.32469 0.0
C1362 C 0.26668 0.50615 0.31834 0.0
C1363 C 0.2587 0.51316 0.28104 0.0
C1364 C 0.22317 0.52155 0.26641 0.0
C1365 C 0.19552 0.52118 0.28853 0.0
C1366 C 0.30442 0.49749 0.33496 0.0
C1367 C 0.21364 0.52905 0.22668 0.0
C1368 C 0.3376 0.53627 0.22854 0.0
C1369 C 0.33395 0.50056 0.20424 0.0
C1370 C 0.31398 0.54072 0.25462 0.0
C1371 C 0.28609 0.50864 0.25603 0.0
C1372 C 0.28303 0.47229 0.23209 0.0
C1373 C 0.30711 0.46871 0.20641 0.0
C1374 C 0.31821 0.57981 0.27994 0.0
C1375 C 0.25347 0.43747 0.23267 0.0
H1376 H 0.24404 0.49986 0.36809 0.0
H1377 H 0.16766 0.52594 0.27682 0.0
H1378 H 0.30685 0.46954 0.31843 0.0
H1379 H 0.32864 0.51967 0.33256 0.0
H1380 H 0.30737 0.4961 0.36558 0.0
H1381 H 0.18594 0.53793 0.22079 0.0
H1382 H 0.23659 0.55179 0.22298 0.0
H1383 H 0.21191 0.50265 0.20495 0.0
H1384 H 0.3588 0.56073 0.22694 0.0
H1385 H 0.30397 0.44128 0.18704 0.0
H1386 H 0.32195 0.57793 0.31044 0.0
H1387 H 0.29176 0.59039 0.27235 0.0
H1388 H 0.34295 0.60116 0.27705 0.0
H1389 H 0.25643 0.4328 0.26224 0.0
H1390 H 0.25601 0.41101 0.21341 0.0
H1391 H 0.22427 0.44225 0.22354 0.0
C1392 C 0.68584 0.5068 0.16389 0.0
C1393 C 0.6824 0.47491 0.13437 0.0
C1394 C 0.71912 0.51999 0.19322 0.0
C1395 C 0.75007 0.50161 0.19197 0.0
C1396 C 0.74795 0.47153 0.16034 0.0
C1397 C 0.71378 0.45805 0.13217 0.0
C1398 C 0.72007 0.55179 0.2268 0.0
C1399 C 0.78087 0.45214 0.15735 0.0
C1400 C 0.8417 0.55284 0.26542 0.0
C1401 C 0.83896 0.53289 0.29462 0.0
C1402 C 0.81404 0.54169 0.23072 0.0
C1403 C 0.78241 0.51077 0.22591 0.0
C1404 C 0.78027 0.48979 0.25485 0.0
C1405 C 0.80903 0.5007 0.28856 0.0
C1406 C 0.81792 0.56385 0.1999 0.0
C1407 C 0.74672 0.45689 0.251 0.0
H1408 H 0.66184 0.52041 0.16487 0.0
H1409 H 0.71109 0.43317 0.10946 0.0
H1410 H 0.72116 0.54035 0.25313 0.0
H1411 H 0.74619 0.57489 0.23202 0.0
H1412 H 0.69455 0.56448 0.22227 0.0
H1413 H 0.77729 0.43426 0.12811 0.0
H1414 H 0.80845 0.47373 0.16469 0.0
H1415 H 0.78271 0.43333 0.17807 0.0
H1416 H 0.86459 0.57802 0.27015 0.0
H1417 H 0.80755 0.48457 0.31065 0.0
H1418 H 0.79637 0.58176 0.19831 0.0
H1419 H 0.81236 0.54393 0.17143 0.0
H1420 H 0.84685 0.58297 0.20562 0.0
H1421 H 0.71974 0.46727 0.24783 0.0
H1422 H 0.74954 0.44356 0.27619 0.0
H1423 H 0.74401 0.43446 0.22488 0.0
C1424 C 0.34159 0.77087 0.53485 0.0
C1425 C 0.34216 0.80377 0.56187 0.0
C1426 C 0.31043 0.73923 0.52563 0.0
C1427 C 0.27933 0.74117 0.54371 0.0
C1428 C 0.28127 0.77338 0.57306 0.0
C1429 C 0.31294 0.8043 0.58197 0.0
C1430 C 0.30952 0.70501 0.4946 0.0
C1431 C 0.24864 0.77658 0.59285 0.0
C1432 C 0.18191 0.6906 0.48136 0.0
C1433 C 0.17377 0.65772 0.49578 0.0
C1434 C 0.21593 0.71832 0.49734 0.0
C1435 C 0.24269 0.71249 0.528 0.0
C1436 C 0.23445 0.67948 0.543 0.0
C1437 C 0.19975 0.65248 0.52678 0.0
C1438 C 0.22356 0.75344 0.48085 0.0
C1439 C 0.26254 0.67234 0.57547 0.0
H1440 H 0.36441 0.7707 0.51948 0.0
H1441 H 0.31411 0.82964 0.60357 0.0
H1442 H 0.29974 0.67788 0.50333 0.0
H1443 H 0.28882 0.70502 0.46811 0.0
H1444 H 0.33806 0.70541 0.48774 0.0
H1445 H 0.2568 0.801 0.61832 0.0
H1446 H 0.22403 0.78093 0.57244 0.0
H1447 H 0.23876 0.74977 0.60204 0.0
H1448 H 0.16218 0.69413 0.45676 0.0
H1449 H 0.1931 0.62707 0.53802 0.0
H1450 H 0.24919 0.7539 0.46838 0.0
H1451 H 0.2297 0.77986 0.50387 0.0
H1452 H 0.19898 0.75431 0.45813 0.0
H1453 H 0.28962 0.66976 0.56647 0.0
H1454 H 0.25121 0.64579 0.58455 0.0
H1455 H 0.26972 0.69697 0.60058 0.0
C1456 C 0.20583 0.29903 0.47765 0.0
C1457 C 0.16948 0.29438 0.48587 0.0
C1458 C 0.22365 0.26806 0.47285 0.0
C1459 C 0.20467 0.23193 0.47691 0.0
C1460 C 0.16789 0.22713 0.48518 0.0
C1461 C 0.15054 0.25844 0.48922 0.0
C1462 C 0.26281 0.27402 0.4637 0.0
C1463 C 0.147 0.18903 0.48997 0.0
C1464 C 0.23798 0.14428 0.43461 0.0
C1465 C 0.26287 0.13984 0.4668 0.0
C1466 C 0.21845 0.17406 0.43748 0.0
C1467 C 0.2238 0.19943 0.47352 0.0
C1468 C 0.24822 0.19437 0.50631 0.0
C1469 C 0.26783 0.16479 0.50243 0.0
C1470 C 0.19284 0.17893 0.40189 0.0
C1471 C 0.25431 0.22072 0.54526 0.0
H1472 H 0.22049 0.32697 0.47536 0.0
H1473 H 0.12192 0.25462 0.49444 0.0
H1474 H 0.28392 0.26871 0.48713 0.0
H1475 H 0.26224 0.2532 0.43704 0.0
H1476 H 0.2729 0.30353 0.45993 0.0
H1477 H 0.11857 0.19022 0.49651 0.0
H1478 H 0.14278 0.16664 0.4634 0.0
H1479 H 0.16446 0.17995 0.51354 0.0
H1480 H 0.23413 0.12469 0.40716 0.0
H1481 H 0.28791 0.16188 0.5271 0.0
H1482 H 0.20365 0.20735 0.39608 0.0
H1483 H 0.16342 0.17817 0.40633 0.0
H1484 H 0.19134 0.15631 0.37621 0.0
H1485 H 0.26802 0.25034 0.54451 0.0
H1486 H 0.27268 0.21153 0.56817 0.0
H1487 H 0.22634 0.22168 0.55292 0.0
C1488 C 0.79211 0.69392 0.51322 0.0
C1489 C 0.78939 0.66713 0.47937 0.0
C1490 C 0.76794 0.7197 0.51435 0.0
C1491 C 0.74036 0.71819 0.48084 0.0
C1492 C 0.73748 0.69098 0.44659 0.0
C1493 C 0.76228 0.66579 0.44624 0.0
C1494 C 0.77203 0.74864 0.55124 0.0
C1495 C 0.70809 0.68832 0.41048 0.0
C1496 C 0.65517 0.7609 0.49387 0.0
C1497 C 0.66554 0.79624 0.48426 0.0
C1498 C 0.67917 0.73497 0.49256 0.0
C1499 C 0.71439 0.74501 0.4817 0.0
C1500 C 0.72492 0.78076 0.47194 0.0
C1501 C 0.70017 0.80597 0.47319 0.0
C1502 C 0.66688 0.69688 0.50274 0.0
C1503 C 0.76247 0.79251 0.46062 0.0
H1504 H 0.81352 0.69502 0.53865 0.0
H1505 H 0.76009 0.64462 0.42025 0.0
H1506 H 0.77831 0.77815 0.54639 0.0
H1507 H 0.7447 0.74466 0.56091 0.0
H1508 H 0.79521 0.74621 0.57459 0.0
H1509 H 0.7096 0.66544 0.38631 0.0
H1510 H 0.67885 0.68239 0.41599 0.0
H1511 H 0.7124 0.71611 0.40165 0.0
H1512 H 0.62805 0.75338 0.50197 0.0
H1513 H 0.70822 0.83363 0.46627 0.0
H1514 H 0.68818 0.69421 0.52757 0.0
H1515 H 0.66576 0.67306 0.47834 0.0
H1516 H 0.63833 0.69333 0.51004 0.0
H1517 H 0.78668 0.79299 0.48432 0.0
H1518 H 0.76623 0.82128 0.45373 0.0
H1519 H 0.76414 0.77124 0.43523 0.0
C1520 C 0.69398 0.14075 0.48604 0.0
C1521 C 0.66337 0.14034 0.4565 0.0
C1522 C 0.72643 0.17109 0.49653 0.0
C1523 C 0.72761 0.20139 0.47699 0.0
C1524 C 0.69755 0.19975 0.44563 0.0
C1525 C 0.6658 0.16891 0.43553 0.0
C1526 C 0.75841 0.17177 0.52974 0.0
C1527 C 0.69781 0.23161 0.42423 0.0
C1528 C 0.78248 0.29944 0.53471 0.0
C1529 C 0.81599 0.30357 0.52088 0.0
C1530 C 0.75326 0.26633 0.52026 0.0
C1531 C 0.75818 0.23659 0.4918 0.0
C1532 C 0.7919 0.24073 0.4775 0.0
C1533 C 0.82041 0.27449 0.49208 0.0
C1534 C 0.71736 0.26299 0.5358 0.0
C1535 C 0.79799 0.20938 0.44728 0.0
H1536 H 0.69186 0.11823 0.50185 0.0
H1537 H 0.64232 0.16765 0.41188 0.0
H1538 H 0.78658 0.17842 0.52201 0.0
H1539 H 0.75866 0.19473 0.55459 0.0
H1540 H 0.75516 0.14402 0.53876 0.0
H1541 H 0.67385 0.22419 0.39843 0.0
H1542 H 0.69529 0.25802 0.44351 0.0
H1543 H 0.72527 0.23838 0.41519 0.0
H1544 H 0.77952 0.32167 0.55756 0.0
H1545 H 0.84625 0.27808 0.48114 0.0
H1546 H 0.71415 0.23827 0.54972 0.0
H1547 H 0.69177 0.25753 0.51198 0.0
H1548 H 0.7177 0.28928 0.5571 0.0
H1549 H 0.79676 0.18256 0.45785 0.0
H1550 H 0.82598 0.21717 0.43938 0.0
H1551 H 0.77477 0.20309 0.42106 0.0
C1552 C 0.49516 0.27354 0.80073 0.0
C1553 C 0.4803 0.30638 0.80696 0.0
C1554 C 0.47753 0.24302 0.76927 0.0
C1555 C 0.4448 0.24597 0.74318 0.0
C1556 C 0.42884 0.27848 0.75013 0.0
C1557 C 0.44668 0.30826 0.78229 0.0
C1558 C 0.49495 0.2084 0.76303 0.0
C1559 C 0.39411 0.28261 0.72272 0.0
C1560 C 0.4339 0.1869 0.64338 0.0
C1561 C 0.40697 0.15419 0.64341 0.0
C1562 C 0.44493 0.21812 0.67506 0.0
C1563 C 0.42898 0.21597 0.70749 0.0
C1564 C 0.4004 0.18366 0.70683 0.0
C1565 C 0.38943 0.15323 0.67449 0.0
C1566 C 0.47508 0.25251 0.67462 0.0
C1567 C 0.38297 0.1803 0.74099 0.0
H1568 H 0.52154 0.27237 0.81943 0.0
H1569 H 0.43488 0.33346 0.78762 0.0
H1570 H 0.47268 0.18165 0.7582 0.0
H1571 H 0.50689 0.2071 0.737 0.0
H1572 H 0.51829 0.20916 0.78777 0.0
H1573 H 0.38356 0.30828 0.73388 0.0
H1574 H 0.40144 0.28511 0.69488 0.0
H1575 H 0.37053 0.25677 0.71697 0.0
H1576 H 0.44764 0.18741 0.61943 0.0
H1577 H 0.36782 0.12818 0.67392 0.0
H1578 H 0.50196 0.25375 0.69538 0.0
H1579 H 0.46564 0.27941 0.68364 0.0
H1580 H 0.48147 0.25143 0.64579 0.0
H1581 H 0.40518 0.17785 0.76518 0.0
H1582 H 0.35875 0.15485 0.73452 0.0
H1583 H 0.37258 0.20641 0.75077 0.0
C1584 C 0.5254 0.85734 0.7577 0.0
C1585 C 0.53082 0.84227 0.72134 0.0
C1586 C 0.52443 0.83504 0.78515 0.0
C1587 C 0.52934 0.79704 0.77585 0.0
C1588 C 0.53715 0.78256 0.73995 0.0
C1589 C 0.53754 0.80536 0.71294 0.0
C1590 C 0.51597 0.85135 0.82314 0.0
C1591 C 0.54281 0.7422 0.72919 0.0
C1592 C 0.54633 0.73958 0.85148 0.0
C1593 C 0.50989 0.7158 0.84533 0.0
C1594 C 0.55304 0.76714 0.82981 0.0
C1595 C 0.52237 0.771 0.80179 0.0
C1596 C 0.48513 0.74812 0.79673 0.0
C1597 C 0.4794 0.72052 0.81847 0.0
C1598 C 0.59311 0.79104 0.83586 0.0
C1599 C 0.45166 0.75165 0.76722 0.0
H1600 H 0.52074 0.88618 0.76423 0.0
H1601 H 0.54107 0.79348 0.68458 0.0
H1602 H 0.48691 0.83649 0.82438 0.0
H1603 H 0.53661 0.84641 0.8472 0.0
H1604 H 0.51712 0.88262 0.82751 0.0
H1605 H 0.55273 0.73687 0.70199 0.0
H1606 H 0.56402 0.73654 0.75231 0.0
H1607 H 0.51534 0.72134 0.72568 0.0
H1608 H 0.56969 0.73621 0.87285 0.0
H1609 H 0.45141 0.70158 0.81328 0.0
H1610 H 0.59283 0.82198 0.84071 0.0
H1611 H 0.60425 0.78373 0.80968 0.0
H1612 H 0.61315 0.78631 0.86059 0.0
H1613 H 0.44913 0.78197 0.7711 0.0
H1614 H 0.4241 0.73374 0.76894 0.0
H1615 H 0.45648 0.74261 0.738 0.0
C1616 C 0.43872 0.64291 0.18993 0.0
C1617 C 0.46229 0.64908 0.16425 0.0
C1618 C 0.44219 0.67068 0.22309 0.0
C1619 C 0.46867 0.70604 0.22958 0.0
C1620 C 0.49165 0.71301 0.20304 0.0
C1621 C 0.4885 0.68403 0.1707 0.0
C1622 C 0.41791 0.66201 0.25128 0.0
C1623 C 0.5195 0.75098 0.20884 0.0
C1624 C 0.45803 0.79274 0.29798 0.0
C1625 C 0.48897 0.79654 0.32857 0.0
C1626 C 0.45034 0.76272 0.26555 0.0
C1627 C 0.47336 0.73537 0.26481 0.0
C1628 C 0.50261 0.73735 0.29699 0.0
C1629 C 0.51063 0.76849 0.32824 0.0
C1630 C 0.41937 0.76172 0.23127 0.0
C1631 C 0.52685 0.70784 0.29757 0.0
H1632 H 0.41721 0.61644 0.18392 0.0
H1633 H 0.50627 0.68869 0.1504 0.0
H1634 H 0.43667 0.66445 0.27974 0.0
H1635 H 0.39984 0.68322 0.25515 0.0
H1636 H 0.39894 0.63279 0.24186 0.0
H1637 H 0.53323 0.75259 0.18416 0.0
H1638 H 0.5045 0.77485 0.21303 0.0
H1639 H 0.54229 0.75549 0.2351 0.0
H1640 H 0.44099 0.81421 0.29868 0.0
H1641 H 0.53527 0.77187 0.35135 0.0
H1642 H 0.39962 0.733 0.2215 0.0
H1643 H 0.43265 0.76715 0.20711 0.0
H1644 H 0.40238 0.78359 0.23757 0.0
H1645 H 0.50842 0.6784 0.28808 0.0
H1646 H 0.54495 0.7109 0.32657 0.0
H1647 H 0.54592 0.711 0.2773 0.0
C1648 C 0.51597 0.17474 0.28674 0.0
C1649 C 0.50637 0.18879 0.32137 0.0
C1650 C 0.52269 0.1984 0.26135 0.0
C1651 C 0.51842 0.23663 0.27034 0.0
C1652 C 0.50814 0.25085 0.30504 0.0
C1653 C 0.50249 0.22673 0.33036 0.0
C1654 C 0.53381 0.18234 0.2247 0.0
C1655 C 0.50259 0.2913 0.31511 0.0
C1656 C 0.56008 0.31062 0.21935 0.0
C1657 C 0.52764 0.31044 0.19195 0.0
C1658 C 0.55788 0.28582 0.24456 0.0
C1659 C 0.52229 0.26099 0.24231 0.0
C1660 C 0.48984 0.25995 0.21371 0.0
C1661 C 0.4931 0.28441 0.18852 0.0
C1662 C 0.59321 0.28693 0.27422 0.0
C1663 C 0.45135 0.23403 0.21055 0.0
H1664 H 0.51771 0.14502 0.27915 0.0
H1665 H 0.49522 0.23755 0.35726 0.0
H1666 H 0.51077 0.18117 0.19963 0.0
H1667 H 0.56018 0.20135 0.22184 0.0
H1668 H 0.53891 0.15302 0.22355 0.0
H1669 H 0.49503 0.29802 0.34343 0.0
H1670 H 0.52914 0.31216 0.31561 0.0
H1671 H 0.47943 0.29546 0.29284 0.0
H1672 H 0.58669 0.33099 0.2219 0.0
H1673 H 0.4683 0.28387 0.16661 0.0
H1674 H 0.59823 0.25758 0.27281 0.0
H1675 H 0.58893 0.2976 0.30336 0.0
H1676 H 0.6192 0.30578 0.27031 0.0
H1677 H 0.4538 0.20369 0.20653 0.0
H1678 H 0.42912 0.23649 0.18632 0.0
H1679 H 0.44152 0.24135 0.23754 0.0
loop_
_geom_bond_atom_site_label_1
_geom_bond_atom_site_label_2
_geom_bond_distance
_geom_bond_site_symmetry_2
_ccdc_geom_bond_type
C0 C1 1.388 . S
C0 N3 1.338 . S
C0 C5 1.503 . S
C1 C0 1.388 . S
C1 C2 1.396 . S
C2 C1 1.396 . S
C2 N4 1.348 . S
C2 C9 1.504 . S
N3 C0 1.338 . S
N3 N4 1.361 . S
N3 Cu168 1.924 . S
N4 C2 1.348 . S
N4 N3 1.361 . S
N4 Cu169 1.964 . S
C5 C0 1.503 . S
C5 H6 0.979 . S
C5 H7 0.979 . S
C5 H8 0.979 . S
H6 C5 0.979 . S
H7 C5 0.979 . S
H8 C5 0.979 . S
C9 C2 1.504 . S
C9 H10 0.981 . S
C9 H11 0.980 1_565 S
C9 H12 0.979 . S
H10 C9 0.981 . S
H11 C9 0.980 1_545 S
H12 C9 0.979 . S
C13 C15 1.402 . S
C13 N16 1.356 . S
C13 C21 1.481 . S
C14 C15 1.400 1_455 S
C14 N17 1.331 . S
C14 C25 1.503 . S
C15 C13 1.402 . S
C15 C14 1.400 1_655 S
N16 C13 1.356 . S
N16 N17 1.333 1_655 S
N16 Cu175 1.941 . S
N17 C14 1.331 . S
N17 N16 1.333 1_455 S
N17 Cu172 1.943 . S
H18 C21 0.980 . S
H19 C21 0.980 . S
H20 C21 0.980 . S
C21 C13 1.481 . S
C21 H18 0.980 . S
C21 H19 0.980 . S
C21 H20 0.980 . S
H22 C25 0.978 . S
H23 C25 0.978 . S
H24 C25 0.983 . S
C25 C14 1.503 . S
C25 H22 0.978 . S
C25 H23 0.978 . S
C25 H24 0.983 . S
C26 H180 0.979 . S
C26 H181 0.981 . S
C26 H182 0.981 . S
C26 O216 1.438 . S
C27 H183 0.980 . S
C27 H184 0.979 . S
C27 H185 0.980 1_554 S
C27 O217 1.533 . S
C28 N29 1.338 . S
C28 C31 1.388 . S
C28 C36 1.503 . S
N29 C28 1.338 . S
N29 N30 1.361 . S
N29 Cu170 1.924 . S
N30 N29 1.361 . S
N30 C32 1.348 . S
N30 Cu171 1.964 . S
C31 C28 1.388 . S
C31 C32 1.396 . S
C32 N30 1.348 . S
C32 C31 1.396 . S
C32 C40 1.504 . S
H33 C36 0.979 . S
H34 C36 0.979 . S
H35 C36 0.979 . S
C36 C28 1.503 . S
C36 H33 0.979 . S
C36 H34 0.979 . S
C36 H35 0.979 . S
H37 C40 0.981 . S
H38 C40 0.980 1_455 S
H39 C40 0.979 . S
C40 C32 1.504 . S
C40 H37 0.981 . S
C40 H38 0.980 1_655 S
C40 H39 0.979 . S
C41 N43 1.356 . S
C41 C45 1.402 . S
C41 C49 1.481 . S
C42 N44 1.331 . S
C42 C45 1.400 1_554 S
C42 C50 1.503 . S
N43 C41 1.356 . S
N43 N44 1.333 1_556 S
N43 Cu177 1.941 . S
N44 C42 1.331 . S
N44 N43 1.333 1_554 S
N44 Cu168 1.943 . S
C45 C41 1.402 . S
C45 C42 1.400 1_556 S
H46 C49 0.980 . S
H47 C49 0.980 . S
H48 C49 0.980 . S
C49 C41 1.481 . S
C49 H46 0.980 . S
C49 H47 0.980 . S
C49 H48 0.980 . S
C50 C42 1.503 . S
C50 H51 0.978 . S
C50 H52 0.978 . S
C50 H53 0.983 . S
H51 C50 0.978 . S
H52 C50 0.978 . S
H53 C50 0.983 . S
C54 H186 0.979 . S
C54 H187 0.981 . S
C54 H188 0.981 . S
C54 O218 1.438 . S
C55 H189 0.980 . S
C55 H190 0.979 . S
C55 H191 0.980 1_545 S
C55 O219 1.533 . S
C56 N57 1.338 . S
C56 C58 1.388 . S
C56 C64 1.503 . S
N57 C56 1.338 . S
N57 N59 1.361 . S
N57 Cu172 1.924 . S
C58 C56 1.388 . S
C58 C60 1.396 . S
N59 N57 1.361 . S
N59 C60 1.348 . S
N59 Cu173 1.964 . S
C60 C58 1.396 . S
C60 N59 1.348 . S
C60 C66 1.504 . S
H61 C64 0.979 . S
H62 C64 0.979 . S
H63 C64 0.979 . S
C64 C56 1.503 . S
C64 H61 0.979 . S
C64 H62 0.979 . S
C64 H63 0.979 . S
H65 C66 0.981 . S
C66 C60 1.504 . S
C66 H65 0.981 . S
C66 H67 0.979 . S
C66 H68 0.980 1_556 S
H67 C66 0.979 . S
H68 C66 0.980 1_554 S
C69 N71 1.356 . S
C69 C73 1.402 . S
C69 C75 1.481 . S
C70 N72 1.331 . S
C70 C73 1.400 1_545 S
C70 C80 1.503 . S
N71 C69 1.356 . S
N71 N72 1.333 1_565 S
N71 Cu179 1.941 . S
N72 C70 1.331 . S
N72 N71 1.333 1_545 S
N72 Cu170 1.943 . S
C73 C69 1.402 . S
C73 C70 1.400 1_565 S
H74 C75 0.980 . S
C75 C69 1.481 . S
C75 H74 0.980 . S
C75 H76 0.980 . S
C75 H77 0.980 . S
H76 C75 0.980 . S
H77 C75 0.980 . S
H78 C80 0.978 . S
H79 C80 0.978 . S
C80 C70 1.503 . S
C80 H78 0.978 . S
C80 H79 0.978 . S
C80 H81 0.983 . S
H81 C80 0.983 . S
C82 H192 0.979 . S
C82 H193 0.981 . S
C82 H194 0.981 . S
C82 O220 1.438 . S
C83 H195 0.980 . S
C83 H196 0.979 . S
C83 H197 0.980 1_455 S
C83 O221 1.533 . S
C84 N85 1.338 . S
C84 C86 1.388 . S
C84 C89 1.503 . S
N85 C84 1.338 . S
N85 N88 1.361 . S
N85 Cu174 1.924 . S
C86 C84 1.388 . S
C86 C87 1.396 . S
C87 C86 1.396 . S
C87 N88 1.348 . S
C87 C93 1.504 . S
N88 N85 1.361 . S
N88 C87 1.348 . S
N88 Cu175 1.964 . S
C89 C84 1.503 . S
C89 H90 0.979 . S
C89 H91 0.979 . S
C89 H92 0.979 . S
H90 C89 0.979 . S
H91 C89 0.979 . S
H92 C89 0.979 . S
C93 C87 1.504 . S
C93 H94 0.981 . S
C93 H95 0.980 1_545 S
C93 H96 0.979 . S
H94 C93 0.981 . S
H95 C93 0.980 1_565 S
H96 C93 0.979 . S
C97 C98 1.402 . S
C97 N100 1.356 . S
C97 C105 1.481 . S
C98 C97 1.402 . S
C98 C99 1.400 1_455 S
C99 C98 1.400 1_655 S
C99 N101 1.330 . S
C99 C106 1.503 . S
N100 C97 1.356 . S
N100 N101 1.340 1_455 S
N100 Cu169 1.941 . S
N101 C99 1.330 . S
N101 N100 1.340 1_655 S
N101 Cu178 1.938 . S
H102 C105 0.980 . S
H103 C105 0.980 . S
H104 C105 0.980 . S
C105 C97 1.481 . S
C105 H102 0.980 . S
C105 H103 0.980 . S
C105 H104 0.980 . S
C106 C99 1.503 . S
C106 H107 0.978 . S
C106 H108 0.978 . S
C106 H109 0.983 . S
H107 C106 0.978 . S
H108 C106 0.978 . S
H109 C106 0.983 . S
C110 H198 0.979 . S
C110 H199 0.981 . S
C110 H200 0.981 . S
C110 O222 1.438 . S
C111 H201 0.980 . S
C111 H202 0.979 . S
C111 H203 0.980 1_556 S
C111 O223 1.533 . S
C112 C113 1.388 . S
C112 N115 1.338 . S
C112 C117 1.503 . S
C113 C112 1.388 . S
C113 C114 1.396 . S
C114 C113 1.396 . S
C114 N116 1.348 . S
C114 C121 1.504 . S
N115 C112 1.338 . S
N115 N116 1.361 . S
N115 Cu176 1.924 . S
N116 C114 1.348 . S
N116 N115 1.361 . S
N116 Cu177 1.964 . S
C117 C112 1.503 . S
C117 H118 0.979 . S
C117 H119 0.979 . S
C117 H120 0.979 . S
H118 C117 0.979 . S
H119 C117 0.979 . S
H120 C117 0.979 . S
C121 C114 1.504 . S
C121 H122 0.981 . S
C121 H123 0.980 1_455 S
C121 H124 0.979 . S
H122 C121 0.981 . S
H123 C121 0.980 1_655 S
H124 C121 0.979 . S
C125 C126 1.402 . S
C125 N128 1.356 . S
C125 C130 1.481 . S
C126 C125 1.402 . S
C126 C127 1.400 1_554 S
C127 C126 1.400 1_556 S
C127 N129 1.330 . S
C127 C134 1.503 . S
N128 C125 1.356 . S
N128 N129 1.340 1_554 S
N128 Cu171 1.941 . S
N129 C127 1.330 . S
N129 N128 1.340 1_556 S
N129 Cu174 1.938 . S
C130 C125 1.481 . S
C130 H131 0.980 . S
C130 H132 0.980 . S
C130 H133 0.980 . S
H131 C130 0.980 . S
H132 C130 0.980 . S
H133 C130 0.980 . S
C134 C127 1.503 . S
C134 H135 0.978 . S
C134 H136 0.978 . S
C134 H137 0.983 . S
H135 C134 0.978 . S
H136 C134 0.978 . S
H137 C134 0.983 . S
C138 H204 0.979 . S
C138 H205 0.981 . S
C138 H206 0.981 . S
C138 O224 1.438 . S
C139 H207 0.980 . S
C139 H208 0.979 . S
C139 H209 0.980 1_565 S
C139 O225 1.533 . S
C140 N141 1.338 . S
C140 C143 1.388 . S
C140 C148 1.503 . S
N141 C140 1.338 . S
N141 N142 1.361 . S
N141 Cu178 1.924 . S
N142 N141 1.361 . S
N142 C144 1.348 . S
N142 Cu179 1.964 . S
C143 C140 1.388 . S
C143 C144 1.396 . S
C144 N142 1.348 . S
C144 C143 1.396 . S
C144 C152 1.504 . S
H145 C148 0.979 . S
H146 C148 0.979 . S
H147 C148 0.979 . S
C148 C140 1.503 . S
C148 H145 0.979 . S
C148 H146 0.979 . S
C148 H147 0.979 . S
H149 C152 0.981 . S
H150 C152 0.980 1_556 S
H151 C152 0.979 . S
C152 C144 1.504 . S
C152 H149 0.981 . S
C152 H150 0.980 1_554 S
C152 H151 0.979 . S
C153 N154 1.356 . S
C153 C156 1.402 . S
C153 C158 1.481 . S
N154 C153 1.356 . S
N154 N155 1.340 1_545 S
N154 Cu173 1.941 . S
N155 N154 1.340 1_565 S
N155 C157 1.330 . S
N155 Cu176 1.938 . S
C156 C153 1.402 . S
C156 C157 1.400 1_545 S
C157 N155 1.330 . S
C157 C156 1.400 1_565 S
C157 C162 1.503 . S
C158 C153 1.481 . S
C158 H159 0.980 . S
C158 H160 0.980 . S
C158 H161 0.980 . S
H159 C158 0.980 . S
H160 C158 0.980 . S
H161 C158 0.980 . S
C162 C157 1.503 . S
C162 H163 0.978 . S
C162 H164 0.978 . S
C162 H165 0.983 . S
H163 C162 0.978 . S
H164 C162 0.978 . S
H165 C162 0.983 . S
C166 H210 0.979 . S
C166 H211 0.981 . S
C166 H212 0.981 . S
C166 O226 1.438 . S
C167 H213 0.980 . S
C167 H214 0.979 . S
C167 H215 0.980 1_655 S
C167 O227 1.533 . S
Cu168 N3 1.924 . S
Cu168 N44 1.943 . S
Cu168 O216 1.923 . S
Cu168 O217 1.930 . S
Cu169 N4 1.964 . S
Cu169 N100 1.941 . S
Cu169 O216 1.905 . S
Cu169 O227 1.920 1_455 S
Cu170 N29 1.924 . S
Cu170 N72 1.943 . S
Cu170 O218 1.923 . S
Cu170 O219 1.930 . S
Cu171 N30 1.964 . S
Cu171 N128 1.941 . S
Cu171 O218 1.905 . S
Cu171 O223 1.920 1_554 S
Cu172 N17 1.943 . S
Cu172 N57 1.924 . S
Cu172 O220 1.923 . S
Cu172 O221 1.930 . S
Cu173 N59 1.964 . S
Cu173 N154 1.941 . S
Cu173 O220 1.905 . S
Cu173 O225 1.920 1_545 S
Cu174 N85 1.924 . S
Cu174 N129 1.938 . S
Cu174 O222 1.923 . S
Cu174 O223 1.930 . S
Cu175 N16 1.941 . S
Cu175 N88 1.964 . S
Cu175 O221 1.920 1_655 S
Cu175 O222 1.905 . S
Cu176 N115 1.924 . S
Cu176 N155 1.938 . S
Cu176 O224 1.923 . S
Cu176 O225 1.930 . S
Cu177 N43 1.941 . S
Cu177 N116 1.964 . S
Cu177 O217 1.920 1_556 S
Cu177 O224 1.905 . S
Cu178 N101 1.938 . S
Cu178 N141 1.924 . S
Cu178 O226 1.923 . S
Cu178 O227 1.930 . S
Cu179 N71 1.941 . S
Cu179 N142 1.964 . S
Cu179 O219 1.920 1_565 S
Cu179 O226 1.905 . S
H180 C26 0.979 . S
H181 C26 0.981 . S
H182 C26 0.981 . S
H183 C27 0.980 . S
H184 C27 0.979 . S
H185 C27 0.980 1_556 S
H186 C54 0.979 . S
H187 C54 0.981 . S
H188 C54 0.981 . S
H189 C55 0.980 . S
H190 C55 0.979 . S
H191 C55 0.980 1_565 S
H192 C82 0.979 . S
H193 C82 0.981 . S
H194 C82 0.981 . S
H195 C83 0.980 . S
H196 C83 0.979 . S
H197 C83 0.980 1_655 S
H198 C110 0.979 . S
H199 C110 0.981 . S
H200 C110 0.981 . S
H201 C111 0.980 . S
H202 C111 0.979 . S
H203 C111 0.980 1_554 S
H204 C138 0.979 . S
H205 C138 0.981 . S
H206 C138 0.981 . S
H207 C139 0.980 . S
H208 C139 0.979 . S
H209 C139 0.980 1_545 S
H210 C166 0.979 . S
H211 C166 0.981 . S
H212 C166 0.981 . S
H213 C167 0.980 . S
H214 C167 0.979 . S
H215 C167 0.980 1_455 S
O216 C26 1.438 . S
O216 Cu168 1.923 . S
O216 Cu169 1.905 . S
O217 C27 1.533 . S
O217 Cu168 1.930 . S
O217 Cu177 1.920 1_554 S
O218 C54 1.438 . S
O218 Cu170 1.923 . S
O218 Cu171 1.905 . S
O219 C55 1.533 . S
O219 Cu170 1.930 . S
O219 Cu179 1.920 1_545 S
O220 C82 1.438 . S
O220 Cu172 1.923 . S
O220 Cu173 1.905 . S
O221 C83 1.533 . S
O221 Cu172 1.930 . S
O221 Cu175 1.920 1_455 S
O222 C110 1.438 . S
O222 Cu174 1.923 . S
O222 Cu175 1.905 . S
O223 C111 1.533 . S
O223 Cu171 1.920 1_556 S
O223 Cu174 1.930 . S
O224 C138 1.438 . S
O224 Cu176 1.923 . S
O224 Cu177 1.905 . S
O225 C139 1.533 . S
O225 Cu173 1.920 1_565 S
O225 Cu176 1.930 . S
O226 C166 1.438 . S
O226 Cu178 1.923 . S
O226 Cu179 1.905 . S
O227 C167 1.533 . S
O227 Cu169 1.920 1_655 S
O227 Cu178 1.930 . S
C228 C229 1.388 . S
C228 N231 1.338 . S
C228 C233 1.503 . S
C229 C228 1.388 . S
C229 C230 1.396 . S
C230 C229 1.396 . S
C230 N232 1.348 . S
C230 C237 1.504 . S
N231 C228 1.338 . S
N231 N232 1.361 . S
N231 Cu396 1.924 . S
N232 C230 1.348 . S
N232 N231 1.361 . S
N232 Cu397 1.964 . S
C233 C228 1.503 . S
C233 H234 0.979 . S
C233 H235 0.979 . S
C233 H236 0.979 . S
H234 C233 0.979 . S
H235 C233 0.979 . S
H236 C233 0.979 . S
C237 C230 1.504 . S
C237 H238 0.981 . S
C237 H239 0.980 . S
C237 H240 0.979 . S
H238 C237 0.981 . S
H239 C237 0.980 . S
H240 C237 0.979 . S
C241 C243 1.402 . S
C241 N244 1.356 . S
C241 C249 1.481 . S
C242 C243 1.400 1_455 S
C242 N245 1.331 . S
C242 C253 1.503 . S
C243 C241 1.402 . S
C243 C242 1.400 1_655 S
N244 C241 1.356 . S
N244 N245 1.333 1_655 S
N244 Cu403 1.941 . S
N245 C242 1.331 . S
N245 N244 1.333 1_455 S
N245 Cu400 1.943 . S
H246 C249 0.980 . S
H247 C249 0.980 . S
H248 C249 0.980 . S
C249 C241 1.481 . S
C249 H246 0.980 . S
C249 H247 0.980 . S
C249 H248 0.980 . S
H250 C253 0.978 . S
H251 C253 0.978 . S
H252 C253 0.983 . S
C253 C242 1.503 . S
C253 H250 0.978 . S
C253 H251 0.978 . S
C253 H252 0.983 . S
C254 H408 0.979 . S
C254 H409 0.981 . S
C254 H410 0.981 . S
C254 O444 1.438 . S
C255 H411 0.980 . S
C255 H412 0.979 . S
C255 H413 0.980 . S
C255 O445 1.533 . S
C256 N257 1.338 . S
C256 C259 1.388 . S
C256 C264 1.503 . S
N257 C256 1.338 . S
N257 N258 1.361 . S
N257 Cu398 1.924 . S
N258 N257 1.361 . S
N258 C260 1.348 . S
N258 Cu399 1.964 . S
C259 C256 1.388 . S
C259 C260 1.396 . S
C260 N258 1.348 . S
C260 C259 1.396 . S
C260 C268 1.504 . S
H261 C264 0.979 . S
H262 C264 0.979 . S
H263 C264 0.979 . S
C264 C256 1.503 . S
C264 H261 0.979 . S
C264 H262 0.979 . S
C264 H263 0.979 . S
H265 C268 0.981 . S
H266 C268 0.980 1_455 S
H267 C268 0.979 . S
C268 C260 1.504 . S
C268 H265 0.981 . S
C268 H266 0.980 1_655 S
C268 H267 0.979 . S
C269 N271 1.356 . S
C269 C273 1.402 . S
C269 C277 1.481 . S
C270 N272 1.325 . S
C270 C273 1.400 . S
C270 C278 1.503 . S
N271 C269 1.356 . S
N271 N272 1.365 . S
N271 Cu405 1.941 . S
N272 C270 1.325 . S
N272 N271 1.365 . S
N272 Cu396 1.924 . S
C273 C269 1.402 . S
C273 C270 1.400 . S
H274 C277 0.980 . S
H275 C277 0.980 . S
H276 C277 0.980 . S
C277 C269 1.481 . S
C277 H274 0.980 . S
C277 H275 0.980 . S
C277 H276 0.980 . S
C278 C270 1.503 . S
C278 H279 0.978 . S
C278 H280 0.978 . S
C278 H281 0.983 . S
H279 C278 0.978 . S
H280 C278 0.978 . S
H281 C278 0.983 . S
C282 H414 0.979 . S
C282 H415 0.981 . S
C282 H416 0.981 . S
C282 O446 1.438 . S
C283 H417 0.980 . S
C283 H418 0.979 . S
C283 H419 0.980 . S
C283 O447 1.533 . S
C284 N285 1.338 . S
C284 C286 1.388 . S
C284 C292 1.503 . S
N285 C284 1.338 . S
N285 N287 1.361 . S
N285 Cu400 1.924 . S
C286 C284 1.388 . S
C286 C288 1.396 . S
N287 N285 1.361 . S
N287 C288 1.348 . S
N287 Cu401 1.964 . S
C288 C286 1.396 . S
C288 N287 1.348 . S
C288 C294 1.504 . S
H289 C292 0.979 . S
H290 C292 0.979 . S
H291 C292 0.979 . S
C292 C284 1.503 . S
C292 H289 0.979 . S
C292 H290 0.979 . S
C292 H291 0.979 . S
H293 C294 0.981 . S
C294 C288 1.504 . S
C294 H293 0.981 . S
C294 H295 0.979 . S
C294 H296 0.980 . S
H295 C294 0.979 . S
H296 C294 0.980 . S
C297 N299 1.356 . S
C297 C301 1.402 . S
C297 C303 1.481 . S
C298 N300 1.325 . S
C298 C301 1.400 . S
C298 C308 1.503 . S
N299 C297 1.356 . S
N299 N300 1.365 . S
N299 Cu407 1.941 . S
N300 C298 1.325 . S
N300 N299 1.365 . S
N300 Cu398 1.924 . S
C301 C297 1.402 . S
C301 C298 1.400 . S
H302 C303 0.980 . S
C303 C297 1.481 . S
C303 H302 0.980 . S
C303 H304 0.980 . S
C303 H305 0.980 . S
H304 C303 0.980 . S
H305 C303 0.980 . S
H306 C308 0.978 . S
H307 C308 0.978 . S
C308 C298 1.503 . S
C308 H306 0.978 . S
C308 H307 0.978 . S
C308 H309 0.983 . S
H309 C308 0.983 . S
C310 H420 0.979 . S
C310 H421 0.981 . S
C310 H422 0.981 . S
C310 O448 1.438 . S
C311 H423 0.980 . S
C311 H424 0.979 . S
C311 H425 0.980 1_455 S
C311 O449 1.533 . S
C312 N313 1.338 . S
C312 C314 1.388 . S
C312 C317 1.503 . S
N313 C312 1.338 . S
N313 N316 1.361 . S
N313 Cu402 1.924 . S
C314 C312 1.388 . S
C314 C315 1.396 . S
C315 C314 1.396 . S
C315 N316 1.348 . S
C315 C321 1.504 . S
N316 N313 1.361 . S
N316 C315 1.348 . S
N316 Cu403 1.964 . S
C317 C312 1.503 . S
C317 H318 0.979 . S
C317 H319 0.979 . S
C317 H320 0.979 . S
H318 C317 0.979 . S
H319 C317 0.979 . S
H320 C317 0.979 . S
C321 C315 1.504 . S
C321 H322 0.981 . S
C321 H323 0.980 . S
C321 H324 0.979 . S
H322 C321 0.981 . S
H323 C321 0.980 . S
H324 C321 0.979 . S
C325 C326 1.402 . S
C325 N328 1.356 . S
C325 C333 1.481 . S
C326 C325 1.402 . S
C326 C327 1.400 1_455 S
C327 C326 1.400 1_655 S
C327 N329 1.330 . S
C327 C334 1.503 . S
N328 C325 1.356 . S
N328 N329 1.340 1_455 S
N328 Cu397 1.941 . S
N329 C327 1.330 . S
N329 N328 1.340 1_655 S
N329 Cu406 1.938 . S
H330 C333 0.980 . S
H331 C333 0.980 . S
H332 C333 0.980 . S
C333 C325 1.481 . S
C333 H330 0.980 . S
C333 H331 0.980 . S
C333 H332 0.980 . S
C334 C327 1.503 . S
C334 H335 0.978 . S
C334 H336 0.978 . S
C334 H337 0.983 . S
H335 C334 0.978 . S
H336 C334 0.978 . S
H337 C334 0.983 . S
C338 H426 0.979 . S
C338 H427 0.981 . S
C338 H428 0.981 . S
C338 O450 1.438 . S
C339 H429 0.980 . S
C339 H430 0.979 . S
C339 H431 0.980 . S
C339 O451 1.533 . S
C340 C341 1.388 . S
C340 N343 1.338 . S
C340 C345 1.503 . S
C341 C340 1.388 . S
C341 C342 1.396 . S
C342 C341 1.396 . S
C342 N344 1.348 . S
C342 C349 1.504 . S
N343 C340 1.338 . S
N343 N344 1.361 . S
N343 Cu404 1.924 . S
N344 C342 1.348 . S
N344 N343 1.361 . S
N344 Cu405 1.964 . S
C345 C340 1.503 . S
C345 H346 0.979 . S
C345 H347 0.979 . S
C345 H348 0.979 . S
H346 C345 0.979 . S
H347 C345 0.979 . S
H348 C345 0.979 . S
C349 C342 1.504 . S
C349 H350 0.981 . S
C349 H351 0.980 1_455 S
C349 H352 0.979 . S
H350 C349 0.981 . S
H351 C349 0.980 1_655 S
H352 C349 0.979 . S
C353 C354 1.402 . S
C353 N356 1.356 . S
C353 C358 1.481 . S
C354 C353 1.402 . S
C354 C355 1.400 . S
C355 C354 1.400 . S
C355 N357 1.325 . S
C355 C362 1.503 . S
N356 C353 1.356 . S
N356 N357 1.365 . S
N356 Cu399 1.941 . S
N357 C355 1.325 . S
N357 N356 1.365 . S
N357 Cu402 1.924 . S
C358 C353 1.481 . S
C358 H359 0.980 . S
C358 H360 0.980 . S
C358 H361 0.980 . S
H359 C358 0.980 . S
H360 C358 0.980 . S
H361 C358 0.980 . S
C362 C355 1.503 . S
C362 H363 0.978 . S
C362 H364 0.978 . S
C362 H365 0.983 . S
H363 C362 0.978 . S
H364 C362 0.978 . S
H365 C362 0.983 . S
C366 H432 0.979 . S
C366 H433 0.981 . S
C366 H434 0.981 . S
C366 O452 1.438 . S
C367 H435 0.980 . S
C367 H436 0.979 . S
C367 H437 0.980 . S
C367 O453 1.533 . S
C368 N369 1.338 . S
C368 C371 1.388 . S
C368 C376 1.503 . S
N369 C368 1.338 . S
N369 N370 1.361 . S
N369 Cu406 1.924 . S
N370 N369 1.361 . S
N370 C372 1.348 . S
N370 Cu407 1.964 . S
C371 C368 1.388 . S
C371 C372 1.396 . S
C372 N370 1.348 . S
C372 C371 1.396 . S
C372 C380 1.504 . S
H373 C376 0.979 . S
H374 C376 0.979 . S
H375 C376 0.979 . S
C376 C368 1.503 . S
C376 H373 0.979 . S
C376 H374 0.979 . S
C376 H375 0.979 . S
H377 C380 0.981 . S
H378 C380 0.980 . S
H379 C380 0.979 . S
C380 C372 1.504 . S
C380 H377 0.981 . S
C380 H378 0.980 . S
C380 H379 0.979 . S
C381 N382 1.356 . S
C381 C384 1.402 . S
C381 C386 1.481 . S
N382 C381 1.356 . S
N382 N383 1.365 . S
N382 Cu401 1.941 . S
N383 N382 1.365 . S
N383 C385 1.325 . S
N383 Cu404 1.924 . S
C384 C381 1.402 . S
C384 C385 1.400 . S
C385 N383 1.325 . S
C385 C384 1.400 . S
C385 C390 1.503 . S
C386 C381 1.481 . S
C386 H387 0.980 . S
C386 H388 0.980 . S
C386 H389 0.980 . S
H387 C386 0.980 . S
H388 C386 0.980 . S
H389 C386 0.980 . S
C390 C385 1.503 . S
C390 H391 0.978 . S
C390 H392 0.978 . S
C390 H393 0.983 . S
H391 C390 0.978 . S
H392 C390 0.978 . S
H393 C390 0.983 . S
C394 H438 0.979 . S
C394 H439 0.981 . S
C394 H440 0.981 . S
C394 O454 1.438 . S
C395 H441 0.980 . S
C395 H442 0.979 . S
C395 H443 0.980 1_655 S
C395 O455 1.533 . S
Cu396 N231 1.924 . S
Cu396 N272 1.924 . S
Cu396 O444 1.923 . S
Cu396 O445 1.930 . S
Cu397 N232 1.964 . S
Cu397 N328 1.941 . S
Cu397 O444 1.905 . S
Cu397 O455 1.920 1_455 S
Cu398 N257 1.924 . S
Cu398 N300 1.924 . S
Cu398 O446 1.923 . S
Cu398 O447 1.930 . S
Cu399 N258 1.964 . S
Cu399 N356 1.941 . S
Cu399 O446 1.905 . S
Cu399 O451 1.920 . S
Cu400 N245 1.943 . S
Cu400 N285 1.924 . S
Cu400 O448 1.923 . S
Cu400 O449 1.930 . S
Cu401 N287 1.964 . S
Cu401 N382 1.941 . S
Cu401 O448 1.905 . S
Cu401 O453 1.920 . S
Cu402 N313 1.924 . S
Cu402 N357 1.924 . S
Cu402 O450 1.923 . S
Cu402 O451 1.930 . S
Cu403 N244 1.941 . S
Cu403 N316 1.964 . S
Cu403 O449 1.920 1_655 S
Cu403 O450 1.905 . S
Cu404 N343 1.924 . S
Cu404 N383 1.924 . S
Cu404 O452 1.923 . S
Cu404 O453 1.930 . S
Cu405 N271 1.941 . S
Cu405 N344 1.964 . S
Cu405 O445 1.920 . S
Cu405 O452 1.905 . S
Cu406 N329 1.938 . S
Cu406 N369 1.924 . S
Cu406 O454 1.923 . S
Cu406 O455 1.930 . S
Cu407 N299 1.941 . S
Cu407 N370 1.964 . S
Cu407 O447 1.920 . S
Cu407 O454 1.905 . S
H408 C254 0.979 . S
H409 C254 0.981 . S
H410 C254 0.981 . S
H411 C255 0.980 . S
H412 C255 0.979 . S
H413 C255 0.980 . S
H414 C282 0.979 . S
H415 C282 0.981 . S
H416 C282 0.981 . S
H417 C283 0.980 . S
H418 C283 0.979 . S
H419 C283 0.980 . S
H420 C310 0.979 . S
H421 C310 0.981 . S
H422 C310 0.981 . S
H423 C311 0.980 . S
H424 C311 0.979 . S
H425 C311 0.980 1_655 S
H426 C338 0.979 . S
H427 C338 0.981 . S
H428 C338 0.981 . S
H429 C339 0.980 . S
H430 C339 0.979 . S
H431 C339 0.980 . S
H432 C366 0.979 . S
H433 C366 0.981 . S
H434 C366 0.981 . S
H435 C367 0.980 . S
H436 C367 0.979 . S
H437 C367 0.980 . S
H438 C394 0.979 . S
H439 C394 0.981 . S
H440 C394 0.981 . S
H441 C395 0.980 . S
H442 C395 0.979 . S
H443 C395 0.980 1_455 S
O444 C254 1.438 . S
O444 Cu396 1.923 . S
O444 Cu397 1.905 . S
O445 C255 1.533 . S
O445 Cu396 1.930 . S
O445 Cu405 1.920 . S
O446 C282 1.438 . S
O446 Cu398 1.923 . S
O446 Cu399 1.905 . S
O447 C283 1.533 . S
O447 Cu398 1.930 . S
O447 Cu407 1.920 . S
O448 C310 1.438 . S
O448 Cu400 1.923 . S
O448 Cu401 1.905 . S
O449 C311 1.533 . S
O449 Cu400 1.930 . S
O449 Cu403 1.920 1_455 S
O450 C338 1.438 . S
O450 Cu402 1.923 . S
O450 Cu403 1.905 . S
O451 C339 1.533 . S
O451 Cu399 1.920 . S
O451 Cu402 1.930 . S
O452 C366 1.438 . S
O452 Cu404 1.923 . S
O452 Cu405 1.905 . S
O453 C367 1.533 . S
O453 Cu401 1.920 . S
O453 Cu404 1.930 . S
O454 C394 1.438 . S
O454 Cu406 1.923 . S
O454 Cu407 1.905 . S
O455 C395 1.533 . S
O455 Cu397 1.920 1_655 S
O455 Cu406 1.930 . S
C456 C457 1.388 . S
C456 N459 1.338 . S
C456 C461 1.503 . S
C457 C456 1.388 . S
C457 C458 1.396 . S
C458 C457 1.396 . S
C458 N460 1.348 . S
C458 C465 1.504 . S
N459 C456 1.338 . S
N459 N460 1.361 . S
N459 Cu624 1.924 . S
N460 C458 1.348 . S
N460 N459 1.361 . S
N460 Cu625 1.964 . S
C461 C456 1.503 . S
C461 H462 0.979 . S
C461 H463 0.979 . S
C461 H464 0.979 . S
H462 C461 0.979 . S
H463 C461 0.979 . S
H464 C461 0.979 . S
C465 C458 1.504 . S
C465 H466 0.981 . S
C465 H467 0.980 1_565 S
C465 H468 0.979 . S
H466 C465 0.981 . S
H467 C465 0.980 1_545 S
H468 C465 0.979 . S
C469 C471 1.402 . S
C469 N472 1.356 . S
C469 C477 1.481 . S
C470 C471 1.400 . S
C470 N473 1.325 . S
C470 C481 1.503 . S
C471 C469 1.402 . S
C471 C470 1.400 . S
N472 C469 1.356 . S
N472 N473 1.365 . S
N472 Cu631 1.941 . S
N473 C470 1.325 . S
N473 N472 1.365 . S
N473 Cu628 1.924 . S
H474 C477 0.980 . S
H475 C477 0.980 . S
H476 C477 0.980 . S
C477 C469 1.481 . S
C477 H474 0.980 . S
C477 H475 0.980 . S
C477 H476 0.980 . S
H478 C481 0.978 . S
H479 C481 0.978 . S
H480 C481 0.983 . S
C481 C470 1.503 . S
C481 H478 0.978 . S
C481 H479 0.978 . S
C481 H480 0.983 . S
C482 H636 0.979 . S
C482 H637 0.981 . S
C482 H638 0.981 . S
C482 O672 1.438 . S
C483 H639 0.980 . S
C483 H640 0.979 . S
C483 H641 0.980 . S
C483 O673 1.533 . S
C484 N485 1.338 . S
C484 C487 1.388 . S
C484 C492 1.503 . S
N485 C484 1.338 . S
N485 N486 1.361 . S
N485 Cu626 1.924 . S
N486 N485 1.361 . S
N486 C488 1.348 . S
N486 Cu627 1.964 . S
C487 C484 1.388 . S
C487 C488 1.396 . S
C488 N486 1.348 . S
C488 C487 1.396 . S
C488 C496 1.504 . S
H489 C492 0.979 . S
H490 C492 0.979 . S
H491 C492 0.979 . S
C492 C484 1.503 . S
C492 H489 0.979 . S
C492 H490 0.979 . S
C492 H491 0.979 . S
H493 C496 0.981 . S
H494 C496 0.980 . S
H495 C496 0.979 . S
C496 C488 1.504 . S
C496 H493 0.981 . S
C496 H494 0.980 . S
C496 H495 0.979 . S
C497 N499 1.356 . S
C497 C501 1.402 . S
C497 C505 1.481 . S
C498 N500 1.325 . S
C498 C501 1.400 . S
C498 C506 1.503 . S
N499 C497 1.356 . S
N499 N500 1.365 . S
N499 Cu633 1.941 . S
N500 C498 1.325 . S
N500 N499 1.365 . S
N500 Cu624 1.924 . S
C501 C497 1.402 . S
C501 C498 1.400 . S
H502 C505 0.980 . S
H503 C505 0.980 . S
H504 C505 0.980 . S
C505 C497 1.481 . S
C505 H502 0.980 . S
C505 H503 0.980 . S
C505 H504 0.980 . S
C506 C498 1.503 . S
C506 H507 0.978 . S
C506 H508 0.978 . S
C506 H509 0.983 . S
H507 C506 0.978 . S
H508 C506 0.978 . S
H509 C506 0.983 . S
C510 H642 0.979 . S
C510 H643 0.981 . S
C510 H644 0.981 . S
C510 O674 1.438 . S
C511 H645 0.980 . S
C511 H646 0.979 . S
C511 H647 0.980 1_545 S
C511 O675 1.533 . S
C512 N513 1.338 . S
C512 C514 1.388 . S
C512 C520 1.503 . S
N513 C512 1.338 . S
N513 N515 1.361 . S
N513 Cu628 1.924 . S
C514 C512 1.388 . S
C514 C516 1.396 . S
N515 N513 1.361 . S
N515 C516 1.348 . S
N515 Cu629 1.964 . S
C516 C514 1.396 . S
C516 N515 1.348 . S
C516 C522 1.504 . S
H517 C520 0.979 . S
H518 C520 0.979 . S
H519 C520 0.979 . S
C520 C512 1.503 . S
C520 H517 0.979 . S
C520 H518 0.979 . S
C520 H519 0.979 . S
H521 C522 0.981 . S
C522 C516 1.504 . S
C522 H521 0.981 . S
C522 H523 0.979 . S
C522 H524 0.980 . S
H523 C522 0.979 . S
H524 C522 0.980 . S
C525 N527 1.356 . S
C525 C529 1.402 . S
C525 C531 1.481 . S
C526 N528 1.331 . S
C526 C529 1.400 1_545 S
C526 C536 1.503 . S
N527 C525 1.356 . S
N527 N528 1.333 1_565 S
N527 Cu635 1.941 . S
N528 C526 1.331 . S
N528 N527 1.333 1_545 S
N528 Cu626 1.943 . S
C529 C525 1.402 . S
C529 C526 1.400 1_565 S
H530 C531 0.980 . S
C531 C525 1.481 . S
C531 H530 0.980 . S
C531 H532 0.980 . S
C531 H533 0.980 . S
H532 C531 0.980 . S
H533 C531 0.980 . S
H534 C536 0.978 . S
H535 C536 0.978 . S
C536 C526 1.503 . S
C536 H534 0.978 . S
C536 H535 0.978 . S
C536 H537 0.983 . S
H537 C536 0.983 . S
C538 H648 0.979 . S
C538 H649 0.981 . S
C538 H650 0.981 . S
C538 O676 1.438 . S
C539 H651 0.980 . S
C539 H652 0.979 . S
C539 H653 0.980 . S
C539 O677 1.533 . S
C540 N541 1.338 . S
C540 C542 1.388 . S
C540 C545 1.503 . S
N541 C540 1.338 . S
N541 N544 1.361 . S
N541 Cu630 1.924 . S
C542 C540 1.388 . S
C542 C543 1.396 . S
C543 C542 1.396 . S
C543 N544 1.348 . S
C543 C549 1.504 . S
N544 N541 1.361 . S
N544 C543 1.348 . S
N544 Cu631 1.964 . S
C545 C540 1.503 . S
C545 H546 0.979 . S
C545 H547 0.979 . S
C545 H548 0.979 . S
H546 C545 0.979 . S
H547 C545 0.979 . S
H548 C545 0.979 . S
C549 C543 1.504 . S
C549 H550 0.981 . S
C549 H551 0.980 1_545 S
C549 H552 0.979 . S
H550 C549 0.981 . S
H551 C549 0.980 1_565 S
H552 C549 0.979 . S
C553 C554 1.402 . S
C553 N556 1.356 . S
C553 C561 1.481 . S
C554 C553 1.402 . S
C554 C555 1.400 . S
C555 C554 1.400 . S
C555 N557 1.325 . S
C555 C562 1.503 . S
N556 C553 1.356 . S
N556 N557 1.365 . S
N556 Cu625 1.941 . S
N557 C555 1.325 . S
N557 N556 1.365 . S
N557 Cu634 1.924 . S
H558 C561 0.980 . S
H559 C561 0.980 . S
H560 C561 0.980 . S
C561 C553 1.481 . S
C561 H558 0.980 . S
C561 H559 0.980 . S
C561 H560 0.980 . S
C562 C555 1.503 . S
C562 H563 0.978 . S
C562 H564 0.978 . S
C562 H565 0.983 . S
H563 C562 0.978 . S
H564 C562 0.978 . S
H565 C562 0.983 . S
C566 H654 0.979 . S
C566 H655 0.981 . S
C566 H656 0.981 . S
C566 O678 1.438 . S
C567 H657 0.980 . S
C567 H658 0.979 . S
C567 H659 0.980 . S
C567 O679 1.533 . S
C568 C569 1.388 . S
C568 N571 1.338 . S
C568 C573 1.503 . S
C569 C568 1.388 . S
C569 C570 1.396 . S
C570 C569 1.396 . S
C570 N572 1.348 . S
C570 C577 1.504 . S
N571 C568 1.338 . S
N571 N572 1.361 . S
N571 Cu632 1.924 . S
N572 C570 1.348 . S
N572 N571 1.361 . S
N572 Cu633 1.964 . S
C573 C568 1.503 . S
C573 H574 0.979 . S
C573 H575 0.979 . S
C573 H576 0.979 . S
H574 C573 0.979 . S
H575 C573 0.979 . S
H576 C573 0.979 . S
C577 C570 1.504 . S
C577 H578 0.981 . S
C577 H579 0.980 . S
C577 H580 0.979 . S
H578 C577 0.981 . S
H579 C577 0.980 . S
H580 C577 0.979 . S
C581 C582 1.402 . S
C581 N584 1.356 . S
C581 C586 1.481 . S
C582 C581 1.402 . S
C582 C583 1.400 . S
C583 C582 1.400 . S
C583 N585 1.325 . S
C583 C590 1.503 . S
N584 C581 1.356 . S
N584 N585 1.365 . S
N584 Cu627 1.941 . S
N585 C583 1.325 . S
N585 N584 1.365 . S
N585 Cu630 1.924 . S
C586 C581 1.481 . S
C586 H587 0.980 . S
C586 H588 0.980 . S
C586 H589 0.980 . S
H587 C586 0.980 . S
H588 C586 0.980 . S
H589 C586 0.980 . S
C590 C583 1.503 . S
C590 H591 0.978 . S
C590 H592 0.978 . S
C590 H593 0.983 . S
H591 C590 0.978 . S
H592 C590 0.978 . S
H593 C590 0.983 . S
C594 H660 0.979 . S
C594 H661 0.981 . S
C594 H662 0.981 . S
C594 O680 1.438 . S
C595 H663 0.980 . S
C595 H664 0.979 . S
C595 H665 0.980 1_565 S
C595 O681 1.533 . S
C596 N597 1.338 . S
C596 C599 1.388 . S
C596 C604 1.503 . S
N597 C596 1.338 . S
N597 N598 1.361 . S
N597 Cu634 1.924 . S
N598 N597 1.361 . S
N598 C600 1.348 . S
N598 Cu635 1.964 . S
C599 C596 1.388 . S
C599 C600 1.396 . S
C600 N598 1.348 . S
C600 C599 1.396 . S
C600 C608 1.504 . S
H601 C604 0.979 . S
H602 C604 0.979 . S
H603 C604 0.979 . S
C604 C596 1.503 . S
C604 H601 0.979 . S
C604 H602 0.979 . S
C604 H603 0.979 . S
H605 C608 0.981 . S
H606 C608 0.980 . S
H607 C608 0.979 . S
C608 C600 1.504 . S
C608 H605 0.981 . S
C608 H606 0.980 . S
C608 H607 0.979 . S
C609 N610 1.356 . S
C609 C612 1.402 . S
C609 C614 1.481 . S
N610 C609 1.356 . S
N610 N611 1.340 1_545 S
N610 Cu629 1.941 . S
N611 N610 1.340 1_565 S
N611 C613 1.330 . S
N611 Cu632 1.938 . S
C612 C609 1.402 . S
C612 C613 1.400 1_545 S
C613 N611 1.330 . S
C613 C612 1.400 1_565 S
C613 C618 1.503 . S
C614 C609 1.481 . S
C614 H615 0.980 . S
C614 H616 0.980 . S
C614 H617 0.980 . S
H615 C614 0.980 . S
H616 C614 0.980 . S
H617 C614 0.980 . S
C618 C613 1.503 . S
C618 H619 0.978 . S
C618 H620 0.978 . S
C618 H621 0.983 . S
H619 C618 0.978 . S
H620 C618 0.978 . S
H621 C618 0.983 . S
C622 H666 0.979 . S
C622 H667 0.981 . S
C622 H668 0.981 . S
C622 O682 1.438 . S
C623 H669 0.980 . S
C623 H670 0.979 . S
C623 H671 0.980 . S
C623 O683 1.533 . S
Cu624 N459 1.924 . S
Cu624 N500 1.924 . S
Cu624 O672 1.923 . S
Cu624 O673 1.930 . S
Cu625 N460 1.964 . S
Cu625 N556 1.941 . S
Cu625 O672 1.905 . S
Cu625 O683 1.920 . S
Cu626 N485 1.924 . S
Cu626 N528 1.943 . S
Cu626 O674 1.923 . S
Cu626 O675 1.930 . S
Cu627 N486 1.964 . S
Cu627 N584 1.941 . S
Cu627 O674 1.905 . S
Cu627 O679 1.920 . S
Cu628 N473 1.924 . S
Cu628 N513 1.924 . S
Cu628 O676 1.923 . S
Cu628 O677 1.930 . S
Cu629 N515 1.964 . S
Cu629 N610 1.941 . S
Cu629 O676 1.905 . S
Cu629 O681 1.920 1_545 S
Cu630 N541 1.924 . S
Cu630 N585 1.924 . S
Cu630 O678 1.923 . S
Cu630 O679 1.930 . S
Cu631 N472 1.941 . S
Cu631 N544 1.964 . S
Cu631 O677 1.920 . S
Cu631 O678 1.905 . S
Cu632 N571 1.924 . S
Cu632 N611 1.938 . S
Cu632 O680 1.923 . S
Cu632 O681 1.930 . S
Cu633 N499 1.941 . S
Cu633 N572 1.964 . S
Cu633 O673 1.920 . S
Cu633 O680 1.905 . S
Cu634 N557 1.924 . S
Cu634 N597 1.924 . S
Cu634 O682 1.923 . S
Cu634 O683 1.930 . S
Cu635 N527 1.941 . S
Cu635 N598 1.964 . S
Cu635 O675 1.920 1_565 S
Cu635 O682 1.905 . S
H636 C482 0.979 . S
H637 C482 0.981 . S
H638 C482 0.981 . S
H639 C483 0.980 . S
H640 C483 0.979 . S
H641 C483 0.980 . S
H642 C510 0.979 . S
H643 C510 0.981 . S
H644 C510 0.981 . S
H645 C511 0.980 . S
H646 C511 0.979 . S
H647 C511 0.980 1_565 S
H648 C538 0.979 . S
H649 C538 0.981 . S
H650 C538 0.981 . S
H651 C539 0.980 . S
H652 C539 0.979 . S
H653 C539 0.980 . S
H654 C566 0.979 . S
H655 C566 0.981 . S
H656 C566 0.981 . S
H657 C567 0.980 . S
H658 C567 0.979 . S
H659 C567 0.980 . S
H660 C594 0.979 . S
H661 C594 0.981 . S
H662 C594 0.981 . S
H663 C595 0.980 . S
H664 C595 0.979 . S
H665 C595 0.980 1_545 S
H666 C622 0.979 . S
H667 C622 0.981 . S
H668 C622 0.981 . S
H669 C623 0.980 . S
H670 C623 0.979 . S
H671 C623 0.980 . S
O672 C482 1.438 . S
O672 Cu624 1.923 . S
O672 Cu625 1.905 . S
O673 C483 1.533 . S
O673 Cu624 1.930 . S
O673 Cu633 1.920 . S
O674 C510 1.438 . S
O674 Cu626 1.923 . S
O674 Cu627 1.905 . S
O675 C511 1.533 . S
O675 Cu626 1.930 . S
O675 Cu635 1.920 1_545 S
O676 C538 1.438 . S
O676 Cu628 1.923 . S
O676 Cu629 1.905 . S
O677 C539 1.533 . S
O677 Cu628 1.930 . S
O677 Cu631 1.920 . S
O678 C566 1.438 . S
O678 Cu630 1.923 . S
O678 Cu631 1.905 . S
O679 C567 1.533 . S
O679 Cu627 1.920 . S
O679 Cu630 1.930 . S
O680 C594 1.438 . S
O680 Cu632 1.923 . S
O680 Cu633 1.905 . S
O681 C595 1.533 . S
O681 Cu629 1.920 1_565 S
O681 Cu632 1.930 . S
O682 C622 1.438 . S
O682 Cu634 1.923 . S
O682 Cu635 1.905 . S
O683 C623 1.533 . S
O683 Cu625 1.920 . S
O683 Cu634 1.930 . S
C684 C685 1.388 . S
C684 N687 1.338 . S
C684 C689 1.503 . S
C685 C684 1.388 . S
C685 C686 1.396 . S
C686 C685 1.396 . S
C686 N688 1.348 . S
C686 C693 1.504 . S
N687 C684 1.338 . S
N687 N688 1.361 . S
N687 Cu852 1.924 . S
N688 C686 1.348 . S
N688 N687 1.361 . S
N688 Cu853 1.964 . S
C689 C684 1.503 . S
C689 H690 0.979 . S
C689 H691 0.979 . S
C689 H692 0.979 . S
H690 C689 0.979 . S
H691 C689 0.979 . S
H692 C689 0.979 . S
C693 C686 1.504 . S
C693 H694 0.981 . S
C693 H695 0.980 . S
C693 H696 0.979 . S
H694 C693 0.981 . S
H695 C693 0.980 . S
H696 C693 0.979 . S
C697 C699 1.402 . S
C697 N700 1.356 . S
C697 C705 1.481 . S
C698 C699 1.400 . S
C698 N701 1.325 . S
C698 C709 1.503 . S
C699 C697 1.402 . S
C699 C698 1.400 . S
N700 C697 1.356 . S
N700 N701 1.365 . S
N700 Cu859 1.941 . S
N701 C698 1.325 . S
N701 N700 1.365 . S
N701 Cu856 1.924 . S
H702 C705 0.980 . S
H703 C705 0.980 . S
H704 C705 0.980 . S
C705 C697 1.481 . S
C705 H702 0.980 . S
C705 H703 0.980 . S
C705 H704 0.980 . S
H706 C709 0.978 . S
H707 C709 0.978 . S
H708 C709 0.983 . S
C709 C698 1.503 . S
C709 H706 0.978 . S
C709 H707 0.978 . S
C709 H708 0.983 . S
C710 H864 0.979 . S
C710 H865 0.981 . S
C710 H866 0.981 . S
C710 O900 1.438 . S
C711 H867 0.980 . S
C711 H868 0.979 . S
C711 H869 0.980 1_554 S
C711 O901 1.533 . S
C712 N713 1.338 . S
C712 C715 1.388 . S
C712 C720 1.503 . S
N713 C712 1.338 . S
N713 N714 1.361 . S
N713 Cu854 1.924 . S
N714 N713 1.361 . S
N714 C716 1.348 . S
N714 Cu855 1.964 . S
C715 C712 1.388 . S
C715 C716 1.396 . S
C716 N714 1.348 . S
C716 C715 1.396 . S
C716 C724 1.504 . S
H717 C720 0.979 . S
H718 C720 0.979 . S
H719 C720 0.979 . S
C720 C712 1.503 . S
C720 H717 0.979 . S
C720 H718 0.979 . S
C720 H719 0.979 . S
H721 C724 0.981 . S
H722 C724 0.980 . S
H723 C724 0.979 . S
C724 C716 1.504 . S
C724 H721 0.981 . S
C724 H722 0.980 . S
C724 H723 0.979 . S
C725 N727 1.356 . S
C725 C729 1.402 . S
C725 C733 1.481 . S
C726 N728 1.331 . S
C726 C729 1.400 1_554 S
C726 C734 1.503 . S
N727 C725 1.356 . S
N727 N728 1.333 1_556 S
N727 Cu861 1.941 . S
N728 C726 1.331 . S
N728 N727 1.333 1_554 S
N728 Cu852 1.943 . S
C729 C725 1.402 . S
C729 C726 1.400 1_556 S
H730 C733 0.980 . S
H731 C733 0.980 . S
H732 C733 0.980 . S
C733 C725 1.481 . S
C733 H730 0.980 . S
C733 H731 0.980 . S
C733 H732 0.980 . S
C734 C726 1.503 . S
C734 H735 0.978 . S
C734 H736 0.978 . S
C734 H737 0.983 . S
H735 C734 0.978 . S
H736 C734 0.978 . S
H737 C734 0.983 . S
C738 H870 0.979 . S
C738 H871 0.981 . S
C738 H872 0.981 . S
C738 O902 1.438 . S
C739 H873 0.980 . S
C739 H874 0.979 . S
C739 H875 0.980 . S
C739 O903 1.533 . S
C740 N741 1.338 . S
C740 C742 1.388 . S
C740 C748 1.503 . S
N741 C740 1.338 . S
N741 N743 1.361 . S
N741 Cu856 1.924 . S
C742 C740 1.388 . S
C742 C744 1.396 . S
N743 N741 1.361 . S
N743 C744 1.348 . S
N743 Cu857 1.964 . S
C744 C742 1.396 . S
C744 N743 1.348 . S
C744 C750 1.504 . S
H745 C748 0.979 . S
H746 C748 0.979 . S
H747 C748 0.979 . S
C748 C740 1.503 . S
C748 H745 0.979 . S
C748 H746 0.979 . S
C748 H747 0.979 . S
H749 C750 0.981 . S
C750 C744 1.504 . S
C750 H749 0.981 . S
C750 H751 0.979 . S
C750 H752 0.980 1_556 S
H751 C750 0.979 . S
H752 C750 0.980 1_554 S
C753 N755 1.356 . S
C753 C757 1.402 . S
C753 C759 1.481 . S
C754 N756 1.325 . S
C754 C757 1.400 . S
C754 C764 1.503 . S
N755 C753 1.356 . S
N755 N756 1.365 . S
N755 Cu863 1.941 . S
N756 C754 1.325 . S
N756 N755 1.365 . S
N756 Cu854 1.924 . S
C757 C753 1.402 . S
C757 C754 1.400 . S
H758 C759 0.980 . S
C759 C753 1.481 . S
C759 H758 0.980 . S
C759 H760 0.980 . S
C759 H761 0.980 . S
H760 C759 0.980 . S
H761 C759 0.980 . S
H762 C764 0.978 . S
H763 C764 0.978 . S
C764 C754 1.503 . S
C764 H762 0.978 . S
C764 H763 0.978 . S
C764 H765 0.983 . S
H765 C764 0.983 . S
C766 H876 0.979 . S
C766 H877 0.981 . S
C766 H878 0.981 . S
C766 O904 1.438 . S
C767 H879 0.980 . S
C767 H880 0.979 . S
C767 H881 0.980 . S
C767 O905 1.533 . S
C768 N769 1.338 . S
C768 C770 1.388 . S
C768 C773 1.503 . S
N769 C768 1.338 . S
N769 N772 1.361 . S
N769 Cu858 1.924 . S
C770 C768 1.388 . S
C770 C771 1.396 . S
C771 C770 1.396 . S
C771 N772 1.348 . S
C771 C777 1.504 . S
N772 N769 1.361 . S
N772 C771 1.348 . S
N772 Cu859 1.964 . S
C773 C768 1.503 . S
C773 H774 0.979 . S
C773 H775 0.979 . S
C773 H776 0.979 . S
H774 C773 0.979 . S
H775 C773 0.979 . S
H776 C773 0.979 . S
C777 C771 1.504 . S
C777 H778 0.981 . S
C777 H779 0.980 . S
C777 H780 0.979 . S
H778 C777 0.981 . S
H779 C777 0.980 . S
H780 C777 0.979 . S
C781 C782 1.402 . S
C781 N784 1.356 . S
C781 C789 1.481 . S
C782 C781 1.402 . S
C782 C783 1.400 . S
C783 C782 1.400 . S
C783 N785 1.325 . S
C783 C790 1.503 . S
N784 C781 1.356 . S
N784 N785 1.365 . S
N784 Cu853 1.941 . S
N785 C783 1.325 . S
N785 N784 1.365 . S
N785 Cu862 1.924 . S
H786 C789 0.980 . S
H787 C789 0.980 . S
H788 C789 0.980 . S
C789 C781 1.481 . S
C789 H786 0.980 . S
C789 H787 0.980 . S
C789 H788 0.980 . S
C790 C783 1.503 . S
C790 H791 0.978 . S
C790 H792 0.978 . S
C790 H793 0.983 . S
H791 C790 0.978 . S
H792 C790 0.978 . S
H793 C790 0.983 . S
C794 H882 0.979 . S
C794 H883 0.981 . S
C794 H884 0.981 . S
C794 O906 1.438 . S
C795 H885 0.980 . S
C795 H886 0.979 . S
C795 H887 0.980 1_556 S
C795 O907 1.533 . S
C796 C797 1.388 . S
C796 N799 1.338 . S
C796 C801 1.503 . S
C797 C796 1.388 . S
C797 C798 1.396 . S
C798 C797 1.396 . S
C798 N800 1.348 . S
C798 C805 1.504 . S
N799 C796 1.338 . S
N799 N800 1.361 . S
N799 Cu860 1.924 . S
N800 C798 1.348 . S
N800 N799 1.361 . S
N800 Cu861 1.964 . S
C801 C796 1.503 . S
C801 H802 0.979 . S
C801 H803 0.979 . S
C801 H804 0.979 . S
H802 C801 0.979 . S
H803 C801 0.979 . S
H804 C801 0.979 . S
C805 C798 1.504 . S
C805 H806 0.981 . S
C805 H807 0.980 . S
C805 H808 0.979 . S
H806 C805 0.981 . S
H807 C805 0.980 . S
H808 C805 0.979 . S
C809 C810 1.402 . S
C809 N812 1.356 . S
C809 C814 1.481 . S
C810 C809 1.402 . S
C810 C811 1.400 1_554 S
C811 C810 1.400 1_556 S
C811 N813 1.330 . S
C811 C818 1.503 . S
N812 C809 1.356 . S
N812 N813 1.340 1_554 S
N812 Cu855 1.941 . S
N813 C811 1.330 . S
N813 N812 1.340 1_556 S
N813 Cu858 1.938 . S
C814 C809 1.481 . S
C814 H815 0.980 . S
C814 H816 0.980 . S
C814 H817 0.980 . S
H815 C814 0.980 . S
H816 C814 0.980 . S
H817 C814 0.980 . S
C818 C811 1.503 . S
C818 H819 0.978 . S
C818 H820 0.978 . S
C818 H821 0.983 . S
H819 C818 0.978 . S
H820 C818 0.978 . S
H821 C818 0.983 . S
C822 H888 0.979 . S
C822 H889 0.981 . S
C822 H890 0.981 . S
C822 O908 1.438 . S
C823 H891 0.980 . S
C823 H892 0.979 . S
C823 H893 0.980 . S
C823 O909 1.533 . S
C824 N825 1.338 . S
C824 C827 1.388 . S
C824 C832 1.503 . S
N825 C824 1.338 . S
N825 N826 1.361 . S
N825 Cu862 1.924 . S
N826 N825 1.361 . S
N826 C828 1.348 . S
N826 Cu863 1.964 . S
C827 C824 1.388 . S
C827 C828 1.396 . S
C828 N826 1.348 . S
C828 C827 1.396 . S
C828 C836 1.504 . S
H829 C832 0.979 . S
H830 C832 0.979 . S
H831 C832 0.979 . S
C832 C824 1.503 . S
C832 H829 0.979 . S
C832 H830 0.979 . S
C832 H831 0.979 . S
H833 C836 0.981 . S
H834 C836 0.980 1_556 S
H835 C836 0.979 . S
C836 C828 1.504 . S
C836 H833 0.981 . S
C836 H834 0.980 1_554 S
C836 H835 0.979 . S
C837 N838 1.356 . S
C837 C840 1.402 . S
C837 C842 1.481 . S
N838 C837 1.356 . S
N838 N839 1.365 . S
N838 Cu857 1.941 . S
N839 N838 1.365 . S
N839 C841 1.325 . S
N839 Cu860 1.924 . S
C840 C837 1.402 . S
C840 C841 1.400 . S
C841 N839 1.325 . S
C841 C840 1.400 . S
C841 C846 1.503 . S
C842 C837 1.481 . S
C842 H843 0.980 . S
C842 H844 0.980 . S
C842 H845 0.980 . S
H843 C842 0.980 . S
H844 C842 0.980 . S
H845 C842 0.980 . S
C846 C841 1.503 . S
C846 H847 0.978 . S
C846 H848 0.978 . S
C846 H849 0.983 . S
H847 C846 0.978 . S
H848 C846 0.978 . S
H849 C846 0.983 . S
C850 H894 0.979 . S
C850 H895 0.981 . S
C850 H896 0.981 . S
C850 O910 1.438 . S
C851 H897 0.980 . S
C851 H898 0.979 . S
C851 H899 0.980 . S
C851 O911 1.533 . S
Cu852 N687 1.924 . S
Cu852 N728 1.943 . S
Cu852 O900 1.923 . S
Cu852 O901 1.930 . S
Cu853 N688 1.964 . S
Cu853 N784 1.941 . S
Cu853 O900 1.905 . S
Cu853 O911 1.920 . S
Cu854 N713 1.924 . S
Cu854 N756 1.924 . S
Cu854 O902 1.923 . S
Cu854 O903 1.930 . S
Cu855 N714 1.964 . S
Cu855 N812 1.941 . S
Cu855 O902 1.905 . S
Cu855 O907 1.920 1_554 S
Cu856 N701 1.924 . S
Cu856 N741 1.924 . S
Cu856 O904 1.923 . S
Cu856 O905 1.930 . S
Cu857 N743 1.964 . S
Cu857 N838 1.941 . S
Cu857 O904 1.905 . S
Cu857 O909 1.920 . S
Cu858 N769 1.924 . S
Cu858 N813 1.938 . S
Cu858 O906 1.923 . S
Cu858 O907 1.930 . S
Cu859 N700 1.941 . S
Cu859 N772 1.964 . S
Cu859 O905 1.920 . S
Cu859 O906 1.905 . S
Cu860 N799 1.924 . S
Cu860 N839 1.924 . S
Cu860 O908 1.923 . S
Cu860 O909 1.930 . S
Cu861 N727 1.941 . S
Cu861 N800 1.964 . S
Cu861 O901 1.920 1_556 S
Cu861 O908 1.905 . S
Cu862 N785 1.924 . S
Cu862 N825 1.924 . S
Cu862 O910 1.923 . S
Cu862 O911 1.930 . S
Cu863 N755 1.941 . S
Cu863 N826 1.964 . S
Cu863 O903 1.920 . S
Cu863 O910 1.905 . S
H864 C710 0.979 . S
H865 C710 0.981 . S
H866 C710 0.981 . S
H867 C711 0.980 . S
H868 C711 0.979 . S
H869 C711 0.980 1_556 S
H870 C738 0.979 . S
H871 C738 0.981 . S
H872 C738 0.981 . S
H873 C739 0.980 . S
H874 C739 0.979 . S
H875 C739 0.980 . S
H876 C766 0.979 . S
H877 C766 0.981 . S
H878 C766 0.981 . S
H879 C767 0.980 . S
H880 C767 0.979 . S
H881 C767 0.980 . S
H882 C794 0.979 . S
H883 C794 0.981 . S
H884 C794 0.981 . S
H885 C795 0.980 . S
H886 C795 0.979 . S
H887 C795 0.980 1_554 S
H888 C822 0.979 . S
H889 C822 0.981 . S
H890 C822 0.981 . S
H891 C823 0.980 . S
H892 C823 0.979 . S
H893 C823 0.980 . S
H894 C850 0.979 . S
H895 C850 0.981 . S
H896 C850 0.981 . S
H897 C851 0.980 . S
H898 C851 0.979 . S
H899 C851 0.980 . S
O900 C710 1.438 . S
O900 Cu852 1.923 . S
O900 Cu853 1.905 . S
O901 C711 1.533 . S
O901 Cu852 1.930 . S
O901 Cu861 1.920 1_554 S
O902 C738 1.438 . S
O902 Cu854 1.923 . S
O902 Cu855 1.905 . S
O903 C739 1.533 . S
O903 Cu854 1.930 . S
O903 Cu863 1.920 . S
O904 C766 1.438 . S
O904 Cu856 1.923 . S
O904 Cu857 1.905 . S
O905 C767 1.533 . S
O905 Cu856 1.930 . S
O905 Cu859 1.920 . S
O906 C794 1.438 . S
O906 Cu858 1.923 . S
O906 Cu859 1.905 . S
O907 C795 1.533 . S
O907 Cu855 1.920 1_556 S
O907 Cu858 1.930 . S
O908 C822 1.438 . S
O908 Cu860 1.923 . S
O908 Cu861 1.905 . S
O909 C823 1.533 . S
O909 Cu857 1.920 . S
O909 Cu860 1.930 . S
O910 C850 1.438 . S
O910 Cu862 1.923 . S
O910 Cu863 1.905 . S
O911 C851 1.533 . S
O911 Cu853 1.920 . S
O911 Cu862 1.930 . S
C912 C913 1.391 1_455 S
C912 C914 1.394 . S
C912 H928 0.931 . S
C913 C912 1.391 1_655 S
C913 C917 1.375 . S
C914 C912 1.394 . S
C914 C915 1.369 1_455 S
C914 C918 1.531 . S
C915 C914 1.369 1_655 S
C915 C916 1.410 . S
C915 C923 1.503 . S
C916 C915 1.410 . S
C916 C917 1.392 . S
C916 C919 1.511 . S
C917 C913 1.375 . S
C917 C916 1.392 . S
C917 H929 0.929 . S
C918 C914 1.531 . S
C918 H930 0.960 . S
C918 H931 0.962 . S
C918 H932 0.960 . S
C919 C916 1.511 . S
C919 H933 0.961 . S
C919 H934 0.961 . S
C919 H935 0.961 . S
C920 C921 1.370 1_455 S
C920 C922 1.363 . S
C920 H936 0.931 . S
C921 C920 1.370 1_655 S
C921 C925 1.408 . S
C922 C920 1.363 . S
C922 C923 1.370 1_455 S
C922 C926 1.524 . S
C923 C915 1.503 . S
C923 C922 1.370 1_655 S
C923 C924 1.403 . S
C924 C923 1.403 . S
C924 C925 1.404 . S
C924 C927 1.539 . S
C925 C921 1.408 . S
C925 C924 1.404 . S
C925 H937 0.930 . S
C926 C922 1.524 . S
C926 H938 0.956 . S
C926 H939 0.961 . S
C926 H940 0.961 . S
C927 C924 1.539 . S
C927 H941 0.958 . S
C927 H942 0.961 . S
C927 H943 0.960 . S
H928 C912 0.931 . S
H929 C917 0.929 . S
H930 C918 0.960 . S
H931 C918 0.962 . S
H932 C918 0.960 . S
H933 C919 0.961 . S
H934 C919 0.961 . S
H935 C919 0.961 . S
H936 C920 0.931 . S
H937 C925 0.930 . S
H938 C926 0.956 . S
H939 C926 0.961 . S
H940 C926 0.961 . S
H941 C927 0.958 . S
H942 C927 0.961 . S
H943 C927 0.960 . S
C944 C945 1.391 1_545 S
C944 C946 1.394 . S
C944 H960 0.931 . S
C945 C944 1.391 1_565 S
C945 C949 1.376 . S
C946 C944 1.394 . S
C946 C947 1.369 1_545 S
C946 C950 1.531 . S
C947 C946 1.369 1_565 S
C947 C948 1.410 . S
C947 C955 1.503 1_565 S
C948 C947 1.410 . S
C948 C949 1.392 . S
C948 C951 1.511 . S
C949 C945 1.376 . S
C949 C948 1.392 . S
C949 H961 0.929 . S
C950 C946 1.531 . S
C950 H962 0.960 . S
C950 H963 0.962 . S
C950 H964 0.960 . S
C951 C948 1.511 . S
C951 H965 0.961 . S
C951 H966 0.961 . S
C951 H967 0.961 . S
C952 C953 1.370 . S
C952 C954 1.363 1_545 S
C952 H968 0.917 1_545 S
C953 C952 1.370 . S
C953 C957 1.408 . S
C954 C952 1.363 1_565 S
C954 C955 1.370 1_565 S
C954 C958 1.524 . S
C955 C947 1.503 1_545 S
C955 C954 1.370 1_545 S
C955 C956 1.403 . S
C956 C955 1.403 . S
C956 C957 1.404 . S
C956 C959 1.539 . S
C957 C953 1.408 . S
C957 C956 1.404 . S
C957 H969 0.930 . S
C958 C954 1.524 . S
C958 H970 0.956 . S
C958 H971 0.961 . S
C958 H972 0.961 . S
C959 C956 1.539 . S
C959 H973 0.958 . S
C959 H974 0.961 . S
C959 H975 0.960 . S
H960 C944 0.931 . S
H961 C949 0.929 . S
H962 C950 0.960 . S
H963 C950 0.962 . S
H964 C950 0.960 . S
H965 C951 0.961 . S
H966 C951 0.961 . S
H967 C951 0.961 . S
H968 C952 0.917 1_565 S
H969 C957 0.930 . S
H970 C958 0.956 . S
H971 C958 0.961 . S
H972 C958 0.961 . S
H973 C959 0.958 . S
H974 C959 0.961 . S
H975 C959 0.960 . S
C976 C977 1.391 1_655 S
C976 C978 1.394 . S
C976 H992 0.931 . S
C977 C976 1.391 1_455 S
C977 C981 1.376 . S
C978 C976 1.394 . S
C978 C979 1.369 1_655 S
C978 C982 1.531 . S
C979 C978 1.369 1_455 S
C979 C980 1.410 . S
C979 C987 1.503 1_455 S
C980 C979 1.410 . S
C980 C981 1.392 . S
C980 C983 1.511 . S
C981 C977 1.376 . S
C981 C980 1.392 . S
C981 H993 0.929 . S
C982 C978 1.531 . S
C982 H994 0.960 . S
C982 H995 0.962 . S
C982 H996 0.960 . S
C983 C980 1.511 . S
C983 H997 0.961 . S
C983 H998 0.961 . S
C983 H999 0.961 . S
C984 C985 1.370 . S
C984 C986 1.363 . S
C984 H1000 0.931 . S
C985 C984 1.370 . S
C985 C989 1.408 . S
C986 C984 1.363 . S
C986 C987 1.370 . S
C986 C990 1.524 . S
C987 C979 1.503 1_655 S
C987 C986 1.370 . S
C987 C988 1.403 1_655 S
C988 C987 1.403 1_455 S
C988 C989 1.404 1_455 S
C988 C991 1.539 . S
C989 C985 1.408 . S
C989 C988 1.404 1_655 S
C989 H1001 0.930 1_655 S
C990 C986 1.524 . S
C990 H1002 0.956 . S
C990 H1003 0.961 . S
C990 H1004 0.961 . S
C991 C988 1.539 . S
C991 H1005 0.958 . S
C991 H1006 0.961 . S
C991 H1007 0.960 . S
H992 C976 0.931 . S
H993 C981 0.929 . S
H994 C982 0.960 . S
H995 C982 0.962 . S
H996 C982 0.960 . S
H997 C983 0.961 . S
H998 C983 0.961 . S
H999 C983 0.961 . S
H1000 C984 0.931 . S
H1001 C989 0.930 1_455 S
H1002 C990 0.956 . S
H1003 C990 0.961 . S
H1004 C990 0.961 . S
H1005 C991 0.958 . S
H1006 C991 0.961 . S
H1007 C991 0.960 . S
C1008 C1009 1.391 1_545 S
C1008 C1010 1.394 . S
C1008 H1024 0.931 . S
C1009 C1008 1.391 1_565 S
C1009 C1013 1.376 . S
C1010 C1008 1.394 . S
C1010 C1011 1.369 . S
C1010 C1014 1.531 . S
C1011 C1010 1.369 . S
C1011 C1012 1.410 1_545 S
C1011 C1019 1.503 . S
C1012 C1011 1.410 1_565 S
C1012 C1013 1.392 . S
C1012 C1015 1.511 . S
C1013 C1009 1.376 . S
C1013 C1012 1.392 . S
C1013 H1025 0.929 . S
C1014 C1010 1.531 . S
C1014 H1026 0.960 . S
C1014 H1027 0.962 . S
C1014 H1028 0.960 . S
C1015 C1012 1.511 . S
C1015 H1029 0.961 . S
C1015 H1030 0.961 . S
C1015 H1031 0.961 . S
C1016 C1017 1.370 1_565 S
C1016 C1018 1.363 . S
C1016 H1032 0.931 . S
C1017 C1016 1.370 1_545 S
C1017 C1021 1.408 . S
C1018 C1016 1.363 . S
C1018 C1019 1.370 1_565 S
C1018 C1022 1.524 . S
C1019 C1011 1.503 . S
C1019 C1018 1.370 1_545 S
C1019 C1020 1.403 . S
C1020 C1019 1.403 . S
C1020 C1021 1.404 . S
C1020 C1023 1.539 . S
C1021 C1017 1.408 . S
C1021 C1020 1.404 . S
C1021 H1033 0.930 . S
C1022 C1018 1.524 . S
C1022 H1034 0.956 . S
C1022 H1035 0.961 . S
C1022 H1036 0.961 . S
C1023 C1020 1.539 . S
C1023 H1037 0.958 . S
C1023 H1038 0.961 . S
C1023 H1039 0.960 . S
H1024 C1008 0.931 . S
H1025 C1013 0.929 . S
H1026 C1014 0.960 . S
H1027 C1014 0.962 . S
H1028 C1014 0.960 . S
H1029 C1015 0.961 . S
H1030 C1015 0.961 . S
H1031 C1015 0.961 . S
H1032 C1016 0.931 . S
H1033 C1021 0.930 . S
H1034 C1022 0.956 . S
H1035 C1022 0.961 . S
H1036 C1022 0.961 . S
H1037 C1023 0.958 . S
H1038 C1023 0.961 . S
H1039 C1023 0.960 . S
C1040 C1041 1.391 1_455 S
C1040 C1042 1.394 . S
C1040 H1056 0.931 . S
C1041 C1040 1.391 1_655 S
C1041 C1045 1.376 . S
C1042 C1040 1.394 . S
C1042 C1043 1.369 1_455 S
C1042 C1046 1.531 . S
C1043 C1042 1.369 1_655 S
C1043 C1044 1.410 . S
C1043 C1051 1.513 . S
C1044 C1043 1.410 . S
C1044 C1045 1.392 . S
C1044 C1047 1.511 . S
C1045 C1041 1.376 . S
C1045 C1044 1.392 . S
C1045 H1057 0.929 . S
C1046 C1042 1.531 . S
C1046 H1058 0.960 . S
C1046 H1059 0.962 . S
C1046 H1060 0.960 . S
C1047 C1044 1.511 . S
C1047 H1061 0.961 . S
C1047 H1062 0.961 . S
C1047 H1063 0.961 . S
C1048 C1049 1.370 . S
C1048 C1050 1.363 . S
C1048 H1064 0.931 . S
C1049 C1048 1.370 . S
C1049 C1053 1.408 1_455 S
C1050 C1048 1.363 . S
C1050 C1051 1.359 1_455 S
C1050 C1054 1.524 . S
C1051 C1043 1.513 . S
C1051 C1050 1.359 1_655 S
C1051 C1052 1.405 . S
C1052 C1051 1.405 . S
C1052 C1053 1.404 . S
C1052 C1055 1.539 . S
C1053 C1049 1.408 1_655 S
C1053 C1052 1.404 . S
C1053 H1065 0.930 . S
C1054 C1050 1.524 . S
C1054 H1066 0.956 . S
C1054 H1067 0.961 1_455 S
C1054 H1068 0.961 . S
C1055 C1052 1.539 . S
C1055 H1069 0.958 . S
C1055 H1070 0.961 . S
C1055 H1071 0.960 . S
H1056 C1040 0.931 . S
H1057 C1045 0.929 . S
H1058 C1046 0.960 . S
H1059 C1046 0.962 . S
H1060 C1046 0.960 . S
H1061 C1047 0.961 . S
H1062 C1047 0.961 . S
H1063 C1047 0.961 . S
H1064 C1048 0.931 . S
H1065 C1053 0.930 . S
H1066 C1054 0.956 . S
H1067 C1054 0.961 1_655 S
H1068 C1054 0.961 . S
H1069 C1055 0.958 . S
H1070 C1055 0.961 . S
H1071 C1055 0.960 . S
C1072 C1073 1.391 . S
C1072 C1074 1.394 1_545 S
C1072 H1088 0.931 . S
C1073 C1072 1.391 . S
C1073 C1077 1.376 . S
C1074 C1072 1.394 1_565 S
C1074 C1075 1.369 . S
C1074 C1078 1.531 . S
C1075 C1074 1.369 . S
C1075 C1076 1.410 1_565 S
C1075 C1083 1.503 . S
C1076 C1075 1.410 1_545 S
C1076 C1077 1.392 . S
C1076 C1079 1.511 . S
C1077 C1073 1.376 . S
C1077 C1076 1.392 . S
C1077 H1089 0.929 . S
C1078 C1074 1.531 . S
C1078 H1090 0.960 . S
C1078 H1091 0.962 . S
C1078 H1092 0.960 . S
C1079 C1076 1.511 . S
C1079 H1093 0.961 . S
C1079 H1094 0.961 . S
C1079 H1095 0.961 1_545 S
C1080 C1081 1.370 1_545 S
C1080 C1082 1.363 . S
C1080 H1096 0.931 . S
C1081 C1080 1.370 1_565 S
C1081 C1085 1.408 . S
C1082 C1080 1.363 . S
C1082 C1083 1.370 1_545 S
C1082 C1086 1.524 . S
C1083 C1075 1.503 . S
C1083 C1082 1.370 1_565 S
C1083 C1084 1.403 . S
C1084 C1083 1.403 . S
C1084 C1085 1.404 . S
C1084 C1087 1.539 . S
C1085 C1081 1.408 . S
C1085 C1084 1.404 . S
C1085 H1097 0.930 . S
C1086 C1082 1.524 . S
C1086 H1098 0.956 . S
C1086 H1099 0.961 . S
C1086 H1100 0.961 . S
C1087 C1084 1.539 . S
C1087 H1101 0.958 . S
C1087 H1102 0.961 . S
C1087 H1103 0.960 . S
H1088 C1072 0.931 . S
H1089 C1077 0.929 . S
H1090 C1078 0.960 . S
H1091 C1078 0.962 . S
H1092 C1078 0.960 . S
H1093 C1079 0.961 . S
H1094 C1079 0.961 . S
H1095 C1079 0.961 1_565 S
H1096 C1080 0.931 . S
H1097 C1085 0.930 . S
H1098 C1086 0.956 . S
H1099 C1086 0.961 . S
H1100 C1086 0.961 . S
H1101 C1087 0.958 . S
H1102 C1087 0.961 . S
H1103 C1087 0.960 . S
C1104 C1105 1.391 . S
C1104 C1106 1.394 . S
C1104 H1120 0.931 . S
C1105 C1104 1.391 . S
C1105 C1109 1.376 . S
C1106 C1104 1.394 . S
C1106 C1107 1.369 . S
C1106 C1110 1.531 . S
C1107 C1106 1.369 . S
C1107 C1108 1.410 . S
C1107 C1115 1.503 . S
C1108 C1107 1.410 . S
C1108 C1109 1.392 . S
C1108 C1111 1.511 . S
C1109 C1105 1.376 . S
C1109 C1108 1.392 . S
C1109 H1121 0.929 . S
C1110 C1106 1.531 . S
C1110 H1122 0.960 . S
C1110 H1123 0.962 . S
C1110 H1124 0.960 . S
C1111 C1108 1.511 . S
C1111 H1125 0.961 1_455 S
C1111 H1126 0.961 1_455 S
C1111 H1127 0.961 . S
C1112 C1113 1.370 . S
C1112 C1114 1.363 . S
C1112 H1128 0.931 . S
C1113 C1112 1.370 . S
C1113 C1117 1.408 1_655 S
C1114 C1112 1.363 . S
C1114 C1115 1.371 1_655 S
C1114 C1118 1.524 . S
C1115 C1107 1.503 . S
C1115 C1114 1.371 1_455 S
C1115 C1116 1.402 . S
C1116 C1115 1.402 . S
C1116 C1117 1.404 . S
C1116 C1119 1.539 . S
C1117 C1113 1.408 1_455 S
C1117 C1116 1.404 . S
C1117 H1129 0.930 . S
C1118 C1114 1.524 . S
C1118 H1130 0.956 . S
C1118 H1131 0.961 . S
C1118 H1132 0.961 . S
C1119 C1116 1.539 . S
C1119 H1133 0.958 . S
C1119 H1134 0.961 . S
C1119 H1135 0.960 . S
H1120 C1104 0.931 . S
H1121 C1109 0.929 . S
H1122 C1110 0.960 . S
H1123 C1110 0.962 . S
H1124 C1110 0.960 . S
H1125 C1111 0.961 1_655 S
H1126 C1111 0.961 1_655 S
H1127 C1111 0.961 . S
H1128 C1112 0.931 . S
H1129 C1117 0.930 . S
H1130 C1118 0.956 . S
H1131 C1118 0.961 . S
H1132 C1118 0.961 . S
H1133 C1119 0.958 . S
H1134 C1119 0.961 . S
H1135 C1119 0.960 . S
C1136 C1137 1.391 1_565 S
C1136 C1138 1.394 . S
C1136 H1152 0.931 . S
C1137 C1136 1.391 1_545 S
C1137 C1141 1.376 . S
C1138 C1136 1.394 . S
C1138 C1139 1.352 1_565 S
C1138 C1142 1.531 . S
C1139 C1138 1.352 1_545 S
C1139 C1140 1.435 . S
C1139 C1147 1.494 1_545 S
C1140 C1139 1.435 . S
C1140 C1141 1.392 . S
C1140 C1143 1.511 . S
C1141 C1137 1.376 . S
C1141 C1140 1.392 . S
C1141 H1153 0.929 . S
C1142 C1138 1.531 . S
C1142 H1154 0.960 . S
C1142 H1155 0.962 . S
C1142 H1156 0.960 . S
C1143 C1140 1.511 . S
C1143 H1157 0.961 . S
C1143 H1158 0.961 . S
C1143 H1159 0.961 . S
C1144 C1145 1.370 . S
C1144 C1146 1.363 . S
C1144 H1160 0.931 . S
C1145 C1144 1.370 . S
C1145 C1149 1.405 1_565 S
C1146 C1144 1.363 . S
C1146 C1147 1.371 . S
C1146 C1150 1.524 . S
C1147 C1139 1.494 1_565 S
C1147 C1146 1.371 . S
C1147 C1148 1.403 1_565 S
C1148 C1147 1.403 1_545 S
C1148 C1149 1.411 . S
C1148 C1151 1.539 . S
C1149 C1145 1.405 1_545 S
C1149 C1148 1.411 . S
C1149 H1161 0.927 . S
C1150 C1146 1.524 . S
C1150 H1162 0.956 . S
C1150 H1163 0.961 1_565 S
C1150 H1164 0.961 . S
C1151 C1148 1.539 . S
C1151 H1165 0.958 1_545 S
C1151 H1166 0.961 . S
C1151 H1167 0.960 . S
H1152 C1136 0.931 . S
H1153 C1141 0.929 . S
H1154 C1142 0.960 . S
H1155 C1142 0.962 . S
H1156 C1142 0.960 . S
H1157 C1143 0.961 . S
H1158 C1143 0.961 . S
H1159 C1143 0.961 . S
H1160 C1144 0.931 . S
H1161 C1149 0.927 . S
H1162 C1150 0.956 . S
H1163 C1150 0.961 1_545 S
H1164 C1150 0.961 . S
H1165 C1151 0.958 1_565 S
H1166 C1151 0.961 . S
H1167 C1151 0.960 . S
C1168 C1169 1.391 1_554 S
C1168 C1170 1.394 . S
C1168 H1184 0.931 . S
C1169 C1168 1.391 1_556 S
C1169 C1173 1.376 . S
C1170 C1168 1.394 . S
C1170 C1171 1.369 1_554 S
C1170 C1174 1.531 . S
C1171 C1170 1.369 1_556 S
C1171 C1172 1.410 . S
C1171 C1179 1.503 . S
C1172 C1171 1.410 . S
C1172 C1173 1.392 . S
C1172 C1175 1.511 . S
C1173 C1169 1.376 . S
C1173 C1172 1.392 . S
C1173 H1185 0.929 . S
C1174 C1170 1.531 . S
C1174 H1186 0.960 . S
C1174 H1187 0.962 . S
C1174 H1188 0.960 . S
C1175 C1172 1.511 . S
C1175 H1189 0.961 . S
C1175 H1190 0.961 . S
C1175 H1191 0.961 . S
C1176 C1177 1.370 . S
C1176 C1178 1.363 . S
C1176 H1192 0.931 . S
C1177 C1176 1.370 . S
C1177 C1181 1.408 1_554 S
C1178 C1176 1.363 . S
C1178 C1179 1.370 1_554 S
C1178 C1182 1.524 . S
C1179 C1171 1.503 . S
C1179 C1178 1.370 1_556 S
C1179 C1180 1.403 . S
C1180 C1179 1.403 . S
C1180 C1181 1.404 . S
C1180 C1183 1.539 . S
C1181 C1177 1.408 1_556 S
C1181 C1180 1.404 . S
C1181 H1193 0.930 . S
C1182 C1178 1.524 . S
C1182 H1194 0.956 . S
C1182 H1195 0.961 . S
C1182 H1196 0.961 . S
C1183 C1180 1.539 . S
C1183 H1197 0.958 . S
C1183 H1198 0.961 . S
C1183 H1199 0.960 . S
H1184 C1168 0.931 . S
H1185 C1173 0.929 . S
H1186 C1174 0.960 . S
H1187 C1174 0.962 . S
H1188 C1174 0.960 . S
H1189 C1175 0.961 . S
H1190 C1175 0.961 . S
H1191 C1175 0.961 . S
H1192 C1176 0.931 . S
H1193 C1181 0.930 . S
H1194 C1182 0.956 . S
H1195 C1182 0.961 . S
H1196 C1182 0.961 . S
H1197 C1183 0.958 . S
H1198 C1183 0.961 . S
H1199 C1183 0.960 . S
C1200 C1201 1.391 . S
C1200 C1202 1.394 . S
C1200 H1216 0.931 . S
C1201 C1200 1.391 . S
C1201 C1205 1.376 . S
C1202 C1200 1.394 . S
C1202 C1203 1.369 . S
C1202 C1206 1.531 . S
C1203 C1202 1.369 . S
C1203 C1204 1.410 . S
C1203 C1211 1.503 . S
C1204 C1203 1.410 . S
C1204 C1205 1.392 . S
C1204 C1207 1.511 1_554 S
C1205 C1201 1.376 . S
C1205 C1204 1.392 . S
C1205 H1217 0.929 . S
C1206 C1202 1.531 . S
C1206 H1218 0.960 . S
C1206 H1219 0.962 . S
C1206 H1220 0.960 . S
C1207 C1204 1.511 1_556 S
C1207 H1221 0.961 . S
C1207 H1222 0.961 . S
C1207 H1223 0.961 1_556 S
C1208 C1209 1.370 . S
C1208 C1210 1.363 . S
C1208 H1224 0.931 . S
C1209 C1208 1.370 . S
C1209 C1213 1.408 1_556 S
C1210 C1208 1.363 . S
C1210 C1211 1.373 1_556 S
C1210 C1214 1.524 . S
C1211 C1203 1.503 . S
C1211 C1210 1.373 1_554 S
C1211 C1212 1.401 . S
C1212 C1211 1.401 . S
C1212 C1213 1.404 . S
C1212 C1215 1.539 . S
C1213 C1209 1.408 1_554 S
C1213 C1212 1.404 . S
C1213 H1225 0.930 . S
C1214 C1210 1.524 . S
C1214 H1226 0.956 . S
C1214 H1227 0.961 . S
C1214 H1228 0.961 . S
C1215 C1212 1.539 . S
C1215 H1229 0.958 . S
C1215 H1230 0.961 . S
C1215 H1231 0.960 . S
H1216 C1200 0.931 . S
H1217 C1205 0.929 . S
H1218 C1206 0.960 . S
H1219 C1206 0.962 . S
H1220 C1206 0.960 . S
H1221 C1207 0.961 . S
H1222 C1207 0.961 . S
H1223 C1207 0.961 1_554 S
H1224 C1208 0.931 . S
H1225 C1213 0.930 . S
H1226 C1214 0.956 . S
H1227 C1214 0.961 . S
H1228 C1214 0.961 . S
H1229 C1215 0.958 . S
H1230 C1215 0.961 . S
H1231 C1215 0.960 . S
C1232 C1233 1.391 . S
C1232 C1234 1.394 1_556 S
C1232 H1248 0.931 . S
C1233 C1232 1.391 . S
C1233 C1237 1.376 . S
C1234 C1232 1.394 1_554 S
C1234 C1235 1.369 . S
C1234 C1238 1.531 . S
C1235 C1234 1.369 . S
C1235 C1236 1.410 1_554 S
C1235 C1243 1.503 . S
C1236 C1235 1.410 1_556 S
C1236 C1237 1.392 . S
C1236 C1239 1.511 . S
C1237 C1233 1.376 . S
C1237 C1236 1.392 . S
C1237 H1249 0.929 . S
C1238 C1234 1.531 . S
C1238 H1250 0.960 . S
C1238 H1251 0.962 . S
C1238 H1252 0.960 . S
C1239 C1236 1.511 . S
C1239 H1253 0.961 . S
C1239 H1254 0.961 . S
C1239 H1255 0.961 1_556 S
C1240 C1241 1.370 1_556 S
C1240 C1242 1.363 . S
C1240 H1256 0.931 . S
C1241 C1240 1.370 1_554 S
C1241 C1245 1.408 . S
C1242 C1240 1.363 . S
C1242 C1243 1.370 1_556 S
C1242 C1246 1.524 . S
C1243 C1235 1.503 . S
C1243 C1242 1.370 1_554 S
C1243 C1244 1.403 . S
C1244 C1243 1.403 . S
C1244 C1245 1.404 . S
C1244 C1247 1.539 . S
C1245 C1241 1.408 . S
C1245 C1244 1.404 . S
C1245 H1257 0.930 . S
C1246 C1242 1.524 . S
C1246 H1258 0.956 . S
C1246 H1259 0.961 . S
C1246 H1260 0.961 . S
C1247 C1244 1.539 . S
C1247 H1261 0.958 . S
C1247 H1262 0.961 . S
C1247 H1263 0.960 . S
H1248 C1232 0.931 . S
H1249 C1237 0.929 . S
H1250 C1238 0.960 . S
H1251 C1238 0.962 . S
H1252 C1238 0.960 . S
H1253 C1239 0.961 . S
H1254 C1239 0.961 . S
H1255 C1239 0.961 1_554 S
H1256 C1240 0.931 . S
H1257 C1245 0.930 . S
H1258 C1246 0.956 . S
H1259 C1246 0.961 . S
H1260 C1246 0.961 . S
H1261 C1247 0.958 . S
H1262 C1247 0.961 . S
H1263 C1247 0.960 . S
C1264 C1265 1.391 1_554 S
C1264 C1266 1.394 . S
C1264 H1280 0.931 . S
C1265 C1264 1.391 1_556 S
C1265 C1269 1.376 . S
C1266 C1264 1.394 . S
C1266 C1267 1.369 1_554 S
C1266 C1270 1.531 . S
C1267 C1266 1.369 1_556 S
C1267 C1268 1.410 . S
C1267 C1275 1.503 . S
C1268 C1267 1.410 . S
C1268 C1269 1.392 . S
C1268 C1271 1.511 . S
C1269 C1265 1.376 . S
C1269 C1268 1.392 . S
C1269 H1281 0.929 . S
C1270 C1266 1.531 . S
C1270 H1282 0.960 1_554 S
C1270 H1283 0.962 . S
C1270 H1284 0.960 . S
C1271 C1268 1.511 . S
C1271 H1285 0.961 . S
C1271 H1286 0.961 . S
C1271 H1287 0.961 . S
C1272 C1273 1.370 . S
C1272 C1274 1.363 . S
C1272 H1288 0.931 . S
C1273 C1272 1.370 . S
C1273 C1277 1.408 1_554 S
C1274 C1272 1.363 . S
C1274 C1275 1.370 1_554 S
C1274 C1278 1.524 . S
C1275 C1267 1.503 . S
C1275 C1274 1.370 1_556 S
C1275 C1276 1.403 . S
C1276 C1275 1.403 . S
C1276 C1277 1.404 . S
C1276 C1279 1.539 . S
C1277 C1273 1.408 1_556 S
C1277 C1276 1.404 . S
C1277 H1289 0.930 . S
C1278 C1274 1.524 . S
C1278 H1290 0.956 . S
C1278 H1291 0.961 . S
C1278 H1292 0.961 . S
C1279 C1276 1.539 . S
C1279 H1293 0.958 . S
C1279 H1294 0.961 . S
C1279 H1295 0.960 . S
H1280 C1264 0.931 . S
H1281 C1269 0.929 . S
H1282 C1270 0.960 1_556 S
H1283 C1270 0.962 . S
H1284 C1270 0.960 . S
H1285 C1271 0.961 . S
H1286 C1271 0.961 . S
H1287 C1271 0.961 . S
H1288 C1272 0.931 . S
H1289 C1277 0.930 . S
H1290 C1278 0.956 . S
H1291 C1278 0.961 . S
H1292 C1278 0.961 . S
H1293 C1279 0.958 . S
H1294 C1279 0.961 . S
H1295 C1279 0.960 . S
C1296 C1297 1.391 . S
C1296 C1298 1.394 . S
C1296 H1312 0.931 . S
C1297 C1296 1.391 . S
C1297 C1301 1.376 . S
C1298 C1296 1.394 . S
C1298 C1299 1.369 . S
C1298 C1302 1.531 . S
C1299 C1298 1.369 . S
C1299 C1300 1.410 . S
C1299 C1307 1.503 . S
C1300 C1299 1.410 . S
C1300 C1301 1.392 . S
C1300 C1303 1.511 . S
C1301 C1297 1.376 . S
C1301 C1300 1.392 . S
C1301 H1313 0.929 . S
C1302 C1298 1.531 . S
C1302 H1314 0.960 . S
C1302 H1315 0.962 . S
C1302 H1316 0.960 . S
C1303 C1300 1.511 . S
C1303 H1317 0.961 . S
C1303 H1318 0.961 . S
C1303 H1319 0.961 . S
C1304 C1305 1.370 . S
C1304 C1306 1.363 . S
C1304 H1320 0.931 . S
C1305 C1304 1.370 . S
C1305 C1309 1.408 . S
C1306 C1304 1.363 . S
C1306 C1307 1.370 . S
C1306 C1310 1.524 . S
C1307 C1299 1.503 . S
C1307 C1306 1.370 . S
C1307 C1308 1.403 . S
C1308 C1307 1.403 . S
C1308 C1309 1.404 . S
C1308 C1311 1.539 . S
C1309 C1305 1.408 . S
C1309 C1308 1.404 . S
C1309 H1321 0.930 . S
C1310 C1306 1.524 . S
C1310 H1322 0.956 . S
C1310 H1323 0.961 . S
C1310 H1324 0.961 . S
C1311 C1308 1.539 . S
C1311 H1325 0.958 . S
C1311 H1326 0.961 . S
C1311 H1327 0.960 . S
H1312 C1296 0.931 . S
H1313 C1301 0.929 . S
H1314 C1302 0.960 . S
H1315 C1302 0.962 . S
H1316 C1302 0.960 . S
H1317 C1303 0.961 . S
H1318 C1303 0.961 . S
H1319 C1303 0.961 . S
H1320 C1304 0.931 . S
H1321 C1309 0.930 . S
H1322 C1310 0.956 . S
H1323 C1310 0.961 . S
H1324 C1310 0.961 . S
H1325 C1311 0.958 . S
H1326 C1311 0.961 . S
H1327 C1311 0.960 . S
C1328 C1329 1.391 . S
C1328 C1330 1.394 . S
C1328 H1344 0.931 . S
C1329 C1328 1.391 . S
C1329 C1333 1.376 . S
C1330 C1328 1.394 . S
C1330 C1331 1.369 . S
C1330 C1334 1.531 . S
C1331 C1330 1.369 . S
C1331 C1332 1.410 . S
C1331 C1339 1.503 . S
C1332 C1331 1.410 . S
C1332 C1333 1.392 . S
C1332 C1335 1.511 . S
C1333 C1329 1.376 . S
C1333 C1332 1.392 . S
C1333 H1345 0.929 . S
C1334 C1330 1.531 . S
C1334 H1346 0.960 . S
C1334 H1347 0.962 . S
C1334 H1348 0.960 . S
C1335 C1332 1.511 . S
C1335 H1349 0.961 . S
C1335 H1350 0.961 . S
C1335 H1351 0.961 . S
C1336 C1337 1.370 . S
C1336 C1338 1.363 . S
C1336 H1352 0.931 . S
C1337 C1336 1.370 . S
C1337 C1341 1.408 . S
C1338 C1336 1.363 . S
C1338 C1339 1.370 . S
C1338 C1342 1.524 . S
C1339 C1331 1.503 . S
C1339 C1338 1.370 . S
C1339 C1340 1.403 . S
C1340 C1339 1.403 . S
C1340 C1341 1.404 . S
C1340 C1343 1.539 . S
C1341 C1337 1.408 . S
C1341 C1340 1.404 . S
C1341 H1353 0.930 . S
C1342 C1338 1.524 . S
C1342 H1354 0.956 . S
C1342 H1355 0.961 . S
C1342 H1356 0.961 . S
C1343 C1340 1.539 . S
C1343 H1357 0.958 . S
C1343 H1358 0.961 . S
C1343 H1359 0.960 . S
H1344 C1328 0.931 . S
H1345 C1333 0.929 . S
H1346 C1334 0.960 . S
H1347 C1334 0.962 . S
H1348 C1334 0.960 . S
H1349 C1335 0.961 . S
H1350 C1335 0.961 . S
H1351 C1335 0.961 . S
H1352 C1336 0.931 . S
H1353 C1341 0.930 . S
H1354 C1342 0.956 . S
H1355 C1342 0.961 . S
H1356 C1342 0.961 . S
H1357 C1343 0.958 . S
H1358 C1343 0.961 . S
H1359 C1343 0.960 . S
C1360 C1361 1.391 . S
C1360 C1362 1.394 . S
C1360 H1376 0.931 . S
C1361 C1360 1.391 . S
C1361 C1365 1.376 . S
C1362 C1360 1.394 . S
C1362 C1363 1.369 . S
C1362 C1366 1.531 . S
C1363 C1362 1.369 . S
C1363 C1364 1.410 . S
C1363 C1371 1.503 . S
C1364 C1363 1.410 . S
C1364 C1365 1.392 . S
C1364 C1367 1.511 . S
C1365 C1361 1.376 . S
C1365 C1364 1.392 . S
C1365 H1377 0.929 . S
C1366 C1362 1.531 . S
C1366 H1378 0.960 . S
C1366 H1379 0.962 . S
C1366 H1380 0.960 . S
C1367 C1364 1.511 . S
C1367 H1381 0.961 . S
C1367 H1382 0.961 . S
C1367 H1383 0.961 . S
C1368 C1369 1.370 . S
C1368 C1370 1.363 . S
C1368 H1384 0.931 . S
C1369 C1368 1.370 . S
C1369 C1373 1.408 . S
C1370 C1368 1.363 . S
C1370 C1371 1.370 . S
C1370 C1374 1.524 . S
C1371 C1363 1.503 . S
C1371 C1370 1.370 . S
C1371 C1372 1.403 . S
C1372 C1371 1.403 . S
C1372 C1373 1.404 . S
C1372 C1375 1.539 . S
C1373 C1369 1.408 . S
C1373 C1372 1.404 . S
C1373 H1385 0.930 . S
C1374 C1370 1.524 . S
C1374 H1386 0.956 . S
C1374 H1387 0.961 . S
C1374 H1388 0.961 . S
C1375 C1372 1.539 . S
C1375 H1389 0.958 . S
C1375 H1390 0.961 . S
C1375 H1391 0.960 . S
H1376 C1360 0.931 . S
H1377 C1365 0.929 . S
H1378 C1366 0.960 . S
H1379 C1366 0.962 . S
H1380 C1366 0.960 . S
H1381 C1367 0.961 . S
H1382 C1367 0.961 . S
H1383 C1367 0.961 . S
H1384 C1368 0.931 . S
H1385 C1373 0.930 . S
H1386 C1374 0.956 . S
H1387 C1374 0.961 . S
H1388 C1374 0.961 . S
H1389 C1375 0.958 . S
H1390 C1375 0.961 . S
H1391 C1375 0.960 . S
C1392 C1393 1.391 . S
C1392 C1394 1.394 . S
C1392 H1408 0.931 . S
C1393 C1392 1.391 . S
C1393 C1397 1.376 . S
C1394 C1392 1.394 . S
C1394 C1395 1.369 . S
C1394 C1398 1.531 . S
C1395 C1394 1.369 . S
C1395 C1396 1.410 . S
C1395 C1403 1.503 . S
C1396 C1395 1.410 . S
C1396 C1397 1.392 . S
C1396 C1399 1.511 . S
C1397 C1393 1.376 . S
C1397 C1396 1.392 . S
C1397 H1409 0.929 . S
C1398 C1394 1.531 . S
C1398 H1410 0.960 . S
C1398 H1411 0.962 . S
C1398 H1412 0.960 . S
C1399 C1396 1.511 . S
C1399 H1413 0.961 . S
C1399 H1414 0.961 . S
C1399 H1415 0.961 . S
C1400 C1401 1.370 . S
C1400 C1402 1.363 . S
C1400 H1416 0.931 . S
C1401 C1400 1.370 . S
C1401 C1405 1.408 . S
C1402 C1400 1.363 . S
C1402 C1403 1.370 . S
C1402 C1406 1.524 . S
C1403 C1395 1.503 . S
C1403 C1402 1.370 . S
C1403 C1404 1.403 . S
C1404 C1403 1.403 . S
C1404 C1405 1.404 . S
C1404 C1407 1.539 . S
C1405 C1401 1.408 . S
C1405 C1404 1.404 . S
C1405 H1417 0.930 . S
C1406 C1402 1.524 . S
C1406 H1418 0.956 . S
C1406 H1419 0.961 . S
C1406 H1420 0.961 . S
C1407 C1404 1.539 . S
C1407 H1421 0.958 . S
C1407 H1422 0.961 . S
C1407 H1423 0.960 . S
H1408 C1392 0.931 . S
H1409 C1397 0.929 . S
H1410 C1398 0.960 . S
H1411 C1398 0.962 . S
H1412 C1398 0.960 . S
H1413 C1399 0.961 . S
H1414 C1399 0.961 . S
H1415 C1399 0.961 . S
H1416 C1400 0.931 . S
H1417 C1405 0.930 . S
H1418 C1406 0.956 . S
H1419 C1406 0.961 . S
H1420 C1406 0.961 . S
H1421 C1407 0.958 . S
H1422 C1407 0.961 . S
H1423 C1407 0.960 . S
C1424 C1425 1.391 . S
C1424 C1426 1.394 . S
C1424 H1440 0.931 . S
C1425 C1424 1.391 . S
C1425 C1429 1.376 . S
C1426 C1424 1.394 . S
C1426 C1427 1.369 . S
C1426 C1430 1.531 . S
C1427 C1426 1.369 . S
C1427 C1428 1.410 . S
C1427 C1435 1.503 . S
C1428 C1427 1.410 . S
C1428 C1429 1.392 . S
C1428 C1431 1.511 . S
C1429 C1425 1.376 . S
C1429 C1428 1.392 . S
C1429 H1441 0.929 . S
C1430 C1426 1.531 . S
C1430 H1442 0.960 . S
C1430 H1443 0.962 . S
C1430 H1444 0.960 . S
C1431 C1428 1.511 . S
C1431 H1445 0.961 . S
C1431 H1446 0.961 . S
C1431 H1447 0.961 . S
C1432 C1433 1.370 . S
C1432 C1434 1.363 . S
C1432 H1448 0.931 . S
C1433 C1432 1.370 . S
C1433 C1437 1.408 . S
C1434 C1432 1.363 . S
C1434 C1435 1.370 . S
C1434 C1438 1.524 . S
C1435 C1427 1.503 . S
C1435 C1434 1.370 . S
C1435 C1436 1.403 . S
C1436 C1435 1.403 . S
C1436 C1437 1.404 . S
C1436 C1439 1.539 . S
C1437 C1433 1.408 . S
C1437 C1436 1.404 . S
C1437 H1449 0.930 . S
C1438 C1434 1.524 . S
C1438 H1450 0.956 . S
C1438 H1451 0.961 . S
C1438 H1452 0.961 . S
C1439 C1436 1.539 . S
C1439 H1453 0.958 . S
C1439 H1454 0.961 . S
C1439 H1455 0.960 . S
H1440 C1424 0.931 . S
H1441 C1429 0.929 . S
H1442 C1430 0.960 . S
H1443 C1430 0.962 . S
H1444 C1430 0.960 . S
H1445 C1431 0.961 . S
H1446 C1431 0.961 . S
H1447 C1431 0.961 . S
H1448 C1432 0.931 . S
H1449 C1437 0.930 . S
H1450 C1438 0.956 . S
H1451 C1438 0.961 . S
H1452 C1438 0.961 . S
H1453 C1439 0.958 . S
H1454 C1439 0.961 . S
H1455 C1439 0.960 . S
C1456 C1457 1.391 . S
C1456 C1458 1.394 . S
C1456 H1472 0.931 . S
C1457 C1456 1.391 . S
C1457 C1461 1.376 . S
C1458 C1456 1.394 . S
C1458 C1459 1.369 . S
C1458 C1462 1.531 . S
C1459 C1458 1.369 . S
C1459 C1460 1.410 . S
C1459 C1467 1.503 . S
C1460 C1459 1.410 . S
C1460 C1461 1.392 . S
C1460 C1463 1.511 . S
C1461 C1457 1.376 . S
C1461 C1460 1.392 . S
C1461 H1473 0.929 . S
C1462 C1458 1.531 . S
C1462 H1474 0.960 . S
C1462 H1475 0.962 . S
C1462 H1476 0.960 . S
C1463 C1460 1.511 . S
C1463 H1477 0.961 . S
C1463 H1478 0.961 . S
C1463 H1479 0.961 . S
C1464 C1465 1.370 . S
C1464 C1466 1.363 . S
C1464 H1480 0.931 . S
C1465 C1464 1.370 . S
C1465 C1469 1.408 . S
C1466 C1464 1.363 . S
C1466 C1467 1.370 . S
C1466 C1470 1.524 . S
C1467 C1459 1.503 . S
C1467 C1466 1.370 . S
C1467 C1468 1.403 . S
C1468 C1467 1.403 . S
C1468 C1469 1.404 . S
C1468 C1471 1.539 . S
C1469 C1465 1.408 . S
C1469 C1468 1.404 . S
C1469 H1481 0.930 . S
C1470 C1466 1.524 . S
C1470 H1482 0.956 . S
C1470 H1483 0.961 . S
C1470 H1484 0.961 . S
C1471 C1468 1.539 . S
C1471 H1485 0.958 . S
C1471 H1486 0.961 . S
C1471 H1487 0.960 . S
H1472 C1456 0.931 . S
H1473 C1461 0.929 . S
H1474 C1462 0.960 . S
H1475 C1462 0.962 . S
H1476 C1462 0.960 . S
H1477 C1463 0.961 . S
H1478 C1463 0.961 . S
H1479 C1463 0.961 . S
H1480 C1464 0.931 . S
H1481 C1469 0.930 . S
H1482 C1470 0.956 . S
H1483 C1470 0.961 . S
H1484 C1470 0.961 . S
H1485 C1471 0.958 . S
H1486 C1471 0.961 . S
H1487 C1471 0.960 . S
C1488 C1489 1.391 . S
C1488 C1490 1.394 . S
C1488 H1504 0.931 . S
C1489 C1488 1.391 . S
C1489 C1493 1.376 . S
C1490 C1488 1.394 . S
C1490 C1491 1.369 . S
C1490 C1494 1.531 . S
C1491 C1490 1.369 . S
C1491 C1492 1.410 . S
C1491 C1499 1.503 . S
C1492 C1491 1.410 . S
C1492 C1493 1.392 . S
C1492 C1495 1.511 . S
C1493 C1489 1.376 . S
C1493 C1492 1.392 . S
C1493 H1505 0.929 . S
C1494 C1490 1.531 . S
C1494 H1506 0.960 . S
C1494 H1507 0.962 . S
C1494 H1508 0.960 . S
C1495 C1492 1.511 . S
C1495 H1509 0.961 . S
C1495 H1510 0.961 . S
C1495 H1511 0.961 . S
C1496 C1497 1.370 . S
C1496 C1498 1.363 . S
C1496 H1512 0.931 . S
C1497 C1496 1.370 . S
C1497 C1501 1.408 . S
C1498 C1496 1.363 . S
C1498 C1499 1.370 . S
C1498 C1502 1.524 . S
C1499 C1491 1.503 . S
C1499 C1498 1.370 . S
C1499 C1500 1.403 . S
C1500 C1499 1.403 . S
C1500 C1501 1.404 . S
C1500 C1503 1.539 . S
C1501 C1497 1.408 . S
C1501 C1500 1.404 . S
C1501 H1513 0.930 . S
C1502 C1498 1.524 . S
C1502 H1514 0.956 . S
C1502 H1515 0.961 . S
C1502 H1516 0.961 . S
C1503 C1500 1.539 . S
C1503 H1517 0.958 . S
C1503 H1518 0.961 . S
C1503 H1519 0.960 . S
H1504 C1488 0.931 . S
H1505 C1493 0.929 . S
H1506 C1494 0.960 . S
H1507 C1494 0.962 . S
H1508 C1494 0.960 . S
H1509 C1495 0.961 . S
H1510 C1495 0.961 . S
H1511 C1495 0.961 . S
H1512 C1496 0.931 . S
H1513 C1501 0.930 . S
H1514 C1502 0.956 . S
H1515 C1502 0.961 . S
H1516 C1502 0.961 . S
H1517 C1503 0.958 . S
H1518 C1503 0.961 . S
H1519 C1503 0.960 . S
C1520 C1521 1.391 . S
C1520 C1522 1.394 . S
C1520 H1536 0.931 . S
C1521 C1520 1.391 . S
C1521 C1525 1.376 . S
C1522 C1520 1.394 . S
C1522 C1523 1.369 . S
C1522 C1526 1.531 . S
C1523 C1522 1.369 . S
C1523 C1524 1.410 . S
C1523 C1531 1.503 . S
C1524 C1523 1.410 . S
C1524 C1525 1.392 . S
C1524 C1527 1.511 . S
C1525 C1521 1.376 . S
C1525 C1524 1.392 . S
C1525 H1537 0.929 . S
C1526 C1522 1.531 . S
C1526 H1538 0.960 . S
C1526 H1539 0.962 . S
C1526 H1540 0.960 . S
C1527 C1524 1.511 . S
C1527 H1541 0.961 . S
C1527 H1542 0.961 . S
C1527 H1543 0.961 . S
C1528 C1529 1.370 . S
C1528 C1530 1.363 . S
C1528 H1544 0.931 . S
C1529 C1528 1.370 . S
C1529 C1533 1.408 . S
C1530 C1528 1.363 . S
C1530 C1531 1.370 . S
C1530 C1534 1.524 . S
C1531 C1523 1.503 . S
C1531 C1530 1.370 . S
C1531 C1532 1.403 . S
C1532 C1531 1.403 . S
C1532 C1533 1.404 . S
C1532 C1535 1.539 . S
C1533 C1529 1.408 . S
C1533 C1532 1.404 . S
C1533 H1545 0.930 . S
C1534 C1530 1.524 . S
C1534 H1546 0.956 . S
C1534 H1547 0.961 . S
C1534 H1548 0.961 . S
C1535 C1532 1.539 . S
C1535 H1549 0.958 . S
C1535 H1550 0.961 . S
C1535 H1551 0.960 . S
H1536 C1520 0.931 . S
H1537 C1525 0.929 . S
H1538 C1526 0.960 . S
H1539 C1526 0.962 . S
H1540 C1526 0.960 . S
H1541 C1527 0.961 . S
H1542 C1527 0.961 . S
H1543 C1527 0.961 . S
H1544 C1528 0.931 . S
H1545 C1533 0.930 . S
H1546 C1534 0.956 . S
H1547 C1534 0.961 . S
H1548 C1534 0.961 . S
H1549 C1535 0.958 . S
H1550 C1535 0.961 . S
H1551 C1535 0.960 . S
C1552 C1553 1.391 . S
C1552 C1554 1.394 . S
C1552 H1568 0.931 . S
C1553 C1552 1.391 . S
C1553 C1557 1.376 . S
C1554 C1552 1.394 . S
C1554 C1555 1.369 . S
C1554 C1558 1.531 . S
C1555 C1554 1.369 . S
C1555 C1556 1.410 . S
C1555 C1563 1.503 . S
C1556 C1555 1.410 . S
C1556 C1557 1.392 . S
C1556 C1559 1.511 . S
C1557 C1553 1.376 . S
C1557 C1556 1.392 . S
C1557 H1569 0.929 . S
C1558 C1554 1.531 . S
C1558 H1570 0.960 . S
C1558 H1571 0.962 . S
C1558 H1572 0.960 . S
C1559 C1556 1.511 . S
C1559 H1573 0.961 . S
C1559 H1574 0.961 . S
C1559 H1575 0.961 . S
C1560 C1561 1.370 . S
C1560 C1562 1.363 . S
C1560 H1576 0.931 . S
C1561 C1560 1.370 . S
C1561 C1565 1.408 . S
C1562 C1560 1.363 . S
C1562 C1563 1.370 . S
C1562 C1566 1.524 . S
C1563 C1555 1.503 . S
C1563 C1562 1.370 . S
C1563 C1564 1.403 . S
C1564 C1563 1.403 . S
C1564 C1565 1.404 . S
C1564 C1567 1.539 . S
C1565 C1561 1.408 . S
C1565 C1564 1.404 . S
C1565 H1577 0.930 . S
C1566 C1562 1.524 . S
C1566 H1578 0.956 . S
C1566 H1579 0.961 . S
C1566 H1580 0.961 . S
C1567 C1564 1.539 . S
C1567 H1581 0.958 . S
C1567 H1582 0.961 . S
C1567 H1583 0.960 . S
H1568 C1552 0.931 . S
H1569 C1557 0.929 . S
H1570 C1558 0.960 . S
H1571 C1558 0.962 . S
H1572 C1558 0.960 . S
H1573 C1559 0.961 . S
H1574 C1559 0.961 . S
H1575 C1559 0.961 . S
H1576 C1560 0.931 . S
H1577 C1565 0.930 . S
H1578 C1566 0.956 . S
H1579 C1566 0.961 . S
H1580 C1566 0.961 . S
H1581 C1567 0.958 . S
H1582 C1567 0.961 . S
H1583 C1567 0.960 . S
C1584 C1585 1.391 . S
C1584 C1586 1.394 . S
C1584 H1600 0.931 . S
C1585 C1584 1.391 . S
C1585 C1589 1.376 . S
C1586 C1584 1.394 . S
C1586 C1587 1.369 . S
C1586 C1590 1.531 . S
C1587 C1586 1.369 . S
C1587 C1588 1.410 . S
C1587 C1595 1.503 . S
C1588 C1587 1.410 . S
C1588 C1589 1.392 . S
C1588 C1591 1.511 . S
C1589 C1585 1.376 . S
C1589 C1588 1.392 . S
C1589 H1601 0.929 . S
C1590 C1586 1.531 . S
C1590 H1602 0.960 . S
C1590 H1603 0.962 . S
C1590 H1604 0.960 . S
C1591 C1588 1.511 . S
C1591 H1605 0.961 . S
C1591 H1606 0.961 . S
C1591 H1607 0.961 . S
C1592 C1593 1.370 . S
C1592 C1594 1.363 . S
C1592 H1608 0.931 . S
C1593 C1592 1.370 . S
C1593 C1597 1.408 . S
C1594 C1592 1.363 . S
C1594 C1595 1.370 . S
C1594 C1598 1.524 . S
C1595 C1587 1.503 . S
C1595 C1594 1.370 . S
C1595 C1596 1.403 . S
C1596 C1595 1.403 . S
C1596 C1597 1.404 . S
C1596 C1599 1.539 . S
C1597 C1593 1.408 . S
C1597 C1596 1.404 . S
C1597 H1609 0.930 . S
C1598 C1594 1.524 . S
C1598 H1610 0.956 . S
C1598 H1611 0.961 . S
C1598 H1612 0.961 . S
C1599 C1596 1.539 . S
C1599 H1613 0.958 . S
C1599 H1614 0.961 . S
C1599 H1615 0.960 . S
H1600 C1584 0.931 . S
H1601 C1589 0.929 . S
H1602 C1590 0.960 . S
H1603 C1590 0.962 . S
H1604 C1590 0.960 . S
H1605 C1591 0.961 . S
H1606 C1591 0.961 . S
H1607 C1591 0.961 . S
H1608 C1592 0.931 . S
H1609 C1597 0.930 . S
H1610 C1598 0.956 . S
H1611 C1598 0.961 . S
H1612 C1598 0.961 . S
H1613 C1599 0.958 . S
H1614 C1599 0.961 . S
H1615 C1599 0.960 . S
C1616 C1617 1.391 . S
C1616 C1618 1.394 . S
C1616 H1632 0.931 . S
C1617 C1616 1.391 . S
C1617 C1621 1.376 . S
C1618 C1616 1.394 . S
C1618 C1619 1.369 . S
C1618 C1622 1.531 . S
C1619 C1618 1.369 . S
C1619 C1620 1.410 . S
C1619 C1627 1.503 . S
C1620 C1619 1.410 . S
C1620 C1621 1.392 . S
C1620 C1623 1.511 . S
C1621 C1617 1.376 . S
C1621 C1620 1.392 . S
C1621 H1633 0.929 . S
C1622 C1618 1.531 . S
C1622 H1634 0.960 . S
C1622 H1635 0.962 . S
C1622 H1636 0.960 . S
C1623 C1620 1.511 . S
C1623 H1637 0.961 . S
C1623 H1638 0.961 . S
C1623 H1639 0.961 . S
C1624 C1625 1.370 . S
C1624 C1626 1.363 . S
C1624 H1640 0.931 . S
C1625 C1624 1.370 . S
C1625 C1629 1.408 . S
C1626 C1624 1.363 . S
C1626 C1627 1.370 . S
C1626 C1630 1.524 . S
C1627 C1619 1.503 . S
C1627 C1626 1.370 . S
C1627 C1628 1.403 . S
C1628 C1627 1.403 . S
C1628 C1629 1.404 . S
C1628 C1631 1.539 . S
C1629 C1625 1.408 . S
C1629 C1628 1.404 . S
C1629 H1641 0.930 . S
C1630 C1626 1.524 . S
C1630 H1642 0.956 . S
C1630 H1643 0.961 . S
C1630 H1644 0.961 . S
C1631 C1628 1.539 . S
C1631 H1645 0.958 . S
C1631 H1646 0.961 . S
C1631 H1647 0.960 . S
H1632 C1616 0.931 . S
H1633 C1621 0.929 . S
H1634 C1622 0.960 . S
H1635 C1622 0.962 . S
H1636 C1622 0.960 . S
H1637 C1623 0.961 . S
H1638 C1623 0.961 . S
H1639 C1623 0.961 . S
H1640 C1624 0.931 . S
H1641 C1629 0.930 . S
H1642 C1630 0.956 . S
H1643 C1630 0.961 . S
H1644 C1630 0.961 . S
H1645 C1631 0.958 . S
H1646 C1631 0.961 . S
H1647 C1631 0.960 . S
C1648 C1649 1.391 . S
C1648 C1650 1.394 . S
C1648 H1664 0.931 . S
C1649 C1648 1.391 . S
C1649 C1653 1.376 . S
C1650 C1648 1.394 . S
C1650 C1651 1.369 . S
C1650 C1654 1.531 . S
C1651 C1650 1.369 . S
C1651 C1652 1.410 . S
C1651 C1659 1.503 . S
C1652 C1651 1.410 . S
C1652 C1653 1.392 . S
C1652 C1655 1.511 . S
C1653 C1649 1.376 . S
C1653 C1652 1.392 . S
C1653 H1665 0.929 . S
C1654 C1650 1.531 . S
C1654 H1666 0.960 . S
C1654 H1667 0.962 . S
C1654 H1668 0.960 . S
C1655 C1652 1.511 . S
C1655 H1669 0.961 . S
C1655 H1670 0.961 . S
C1655 H1671 0.961 . S
C1656 C1657 1.370 . S
C1656 C1658 1.363 . S
C1656 H1672 0.931 . S
C1657 C1656 1.370 . S
C1657 C1661 1.408 . S
C1658 C1656 1.363 . S
C1658 C1659 1.370 . S
C1658 C1662 1.524 . S
C1659 C1651 1.503 . S
C1659 C1658 1.370 . S
C1659 C1660 1.403 . S
C1660 C1659 1.403 . S
C1660 C1661 1.404 . S
C1660 C1663 1.539 . S
C1661 C1657 1.408 . S
C1661 C1660 1.404 . S
C1661 H1673 0.930 . S
C1662 C1658 1.524 . S
C1662 H1674 0.956 . S
C1662 H1675 0.961 . S
C1662 H1676 0.961 . S
C1663 C1660 1.539 . S
C1663 H1677 0.958 . S
C1663 H1678 0.961 . S
C1663 H1679 0.960 . S
H1664 C1648 0.931 . S
H1665 C1653 0.929 . S
H1666 C1654 0.960 . S
H1667 C1654 0.962 . S
H1668 C1654 0.960 . S
H1669 C1655 0.961 . S
H1670 C1655 0.961 . S
H1671 C1655 0.961 . S
H1672 C1656 0.931 . S
H1673 C1661 0.930 . S
H1674 C1662 0.956 . S
H1675 C1662 0.961 . S
H1676 C1662 0.961 . S
H1677 C1663 0.958 . S
H1678 C1663 0.961 . S
H1679 C1663 0.960 . S
C913 C31 1.425 . S
C921 C341 1.483 1_655 S
C945 C73 1.664 . S
C953 C612 1.631 . S
C977 C98 1.616 . S
C985 C243 1.651 . S
C1009 C542 1.448 1_565 S
C1017 C1 1.469 1_545 S
C1041 C113 1.480 1_655 S
C1049 C259 1.464 1_455 S
C1073 C156 1.606 . S
C1081 C529 1.660 . S
C1105 C326 1.670 . S
C1113 C15 1.629 . S
C1137 C457 1.470 1_545 S
C1145 C86 1.468 1_565 S
C1169 C827 1.488 1_556 S
C1177 C58 1.453 1_554 S
C1201 C810 1.672 . S
C1209 C45 1.628 . S
C1233 C729 1.631 . S
C1241 C126 1.644 . S
C1265 C143 1.512 1_556 S
C1273 C742 1.453 1_554 S
C1297 C840 1.596 . S
C1305 C301 1.668 . S
C1329 C229 1.417 . S
C1337 C770 1.489 . S
C1361 C384 1.614 . S
C1369 C757 1.651 . S
C1393 C685 1.463 . S
C1401 C314 1.474 . S
C1425 C599 1.450 . S
C1433 C286 1.478 . S
C1457 C273 1.592 . S
C1465 C582 1.658 . S
C1489 C354 1.654 . S
C1497 C501 1.646 . S
C1521 C514 1.458 . S
C1529 C371 1.476 . S
C1553 C797 1.513 . S
C1561 C487 1.449 . S
C1585 C554 1.592 . S
C1593 C699 1.669 . S
C1617 C715 1.480 . S
C1625 C569 1.460 . S
C1649 C471 1.683 . S
C1657 C782 1.621 . S
