# Generated by pormake.
# Topology fce, (5)-cn, num edge types: 1
# Building blocks:
#     Node 0, Type 0, BuildingBlock: BEQFEK_clean_sbu_0, # of connection points: 5
#     Node 1, Type 0, BuildingBlock: BEQFEK_clean_sbu_0, # of connection points: 5
#     Node 2, Type 0, BuildingBlock: BEQFEK_clean_sbu_0, # of connection points: 5
#     Node 3, Type 0, BuildingBlock: BEQFEK_clean_sbu_0, # of connection points: 5
#     Node 4, Type 0, BuildingBlock: BEQFEK_clean_sbu_0, # of connection points: 5
#     Node 5, Type 0, BuildingBlock: BEQFEK_clean_sbu_0, # of connection points: 5
#     Node 6, Type 0, BuildingBlock: BEQFEK_clean_sbu_0, # of connection points: 5
#     Node 7, Type 0, BuildingBlock: BEQFEK_clean_sbu_0, # of connection points: 5
#     Node 8, Type 0, BuildingBlock: BEQFEK_clean_sbu_0, # of connection points: 5
#     Node 9, Type 0, BuildingBlock: BEQFEK_clean_sbu_0, # of connection points: 5
#     Node 10, Type 0, BuildingBlock: BEQFEK_clean_sbu_0, # of connection points: 5
#     Node 11, Type 0, BuildingBlock: BEQFEK_clean_sbu_0, # of connection points: 5
#     Node 12, Type 0, BuildingBlock: BEQFEK_clean_sbu_0, # of connection points: 5
#     Node 13, Type 0, BuildingBlock: BEQFEK_clean_sbu_0, # of connection points: 5
#     Node 14, Type 0, BuildingBlock: BEQFEK_clean_sbu_0, # of connection points: 5
#     Node 15, Type 0, BuildingBlock: BEQFEK_clean_sbu_0, # of connection points: 5
#     Node 16, Type 0, BuildingBlock: BEQFEK_clean_sbu_0, # of connection points: 5
#     Node 17, Type 0, BuildingBlock: BEQFEK_clean_sbu_0, # of connection points: 5
#     Node 18, Type 0, BuildingBlock: BEQFEK_clean_sbu_0, # of connection points: 5
#     Node 19, Type 0, BuildingBlock: BEQFEK_clean_sbu_0, # of connection points: 5
#     Node 20, Type 0, BuildingBlock: BEQFEK_clean_sbu_0, # of connection points: 5
#     Node 21, Type 0, BuildingBlock: BEQFEK_clean_sbu_0, # of connection points: 5
#     Node 22, Type 0, BuildingBlock: BEQFEK_clean_sbu_0, # of connection points: 5
#     Node 23, Type 0, BuildingBlock: BEQFEK_clean_sbu_0, # of connection points: 5
#     Edge 24, Type (0, 0), BuildingBlock: KIFKEQ_clean_linker_1, # of connection points: 2
#     Edge 25, Type (0, 0), BuildingBlock: KIFKEQ_clean_linker_1, # of connection points: 2
#     Edge 26, Type (0, 0), BuildingBlock: KIFKEQ_clean_linker_1, # of connection points: 2
#     Edge 27, Type (0, 0), BuildingBlock: KIFKEQ_clean_linker_1, # of connection points: 2
#     Edge 28, Type (0, 0), BuildingBlock: KIFKEQ_clean_linker_1, # of connection points: 2
#     Edge 29, Type (0, 0), BuildingBlock: KIFKEQ_clean_linker_1, # of connection points: 2
#     Edge 30, Type (0, 0), BuildingBlock: KIFKEQ_clean_linker_1, # of connection points: 2
#     Edge 31, Type (0, 0), BuildingBlock: KIFKEQ_clean_linker_1, # of connection points: 2
#     Edge 32, Type (0, 0), BuildingBlock: KIFKEQ_clean_linker_1, # of connection points: 2
#     Edge 33, Type (0, 0), BuildingBlock: KIFKEQ_clean_linker_1, # of connection points: 2
#     Edge 34, Type (0, 0), BuildingBlock: KIFKEQ_clean_linker_1, # of connection points: 2
#     Edge 35, Type (0, 0), BuildingBlock: KIFKEQ_clean_linker_1, # of connection points: 2
#     Edge 36, Type (0, 0), BuildingBlock: KIFKEQ_clean_linker_1, # of connection points: 2
#     Edge 37, Type (0, 0), BuildingBlock: KIFKEQ_clean_linker_1, # of connection points: 2
#     Edge 38, Type (0, 0), BuildingBlock: KIFKEQ_clean_linker_1, # of connection points: 2
#     Edge 39, Type (0, 0), BuildingBlock: KIFKEQ_clean_linker_1, # of connection points: 2
#     Edge 40, Type (0, 0), BuildingBlock: KIFKEQ_clean_linker_1, # of connection points: 2
#     Edge 41, Type (0, 0), BuildingBlock: KIFKEQ_clean_linker_1, # of connection points: 2
#     Edge 42, Type (0, 0), BuildingBlock: KIFKEQ_clean_linker_1, # of connection points: 2
#     Edge 43, Type (0, 0), BuildingBlock: KIFKEQ_clean_linker_1, # of connection points: 2
#     Edge 44, Type (0, 0), BuildingBlock: KIFKEQ_clean_linker_1, # of connection points: 2
#     Edge 45, Type (0, 0), BuildingBlock: KIFKEQ_clean_linker_1, # of connection points: 2
#     Edge 46, Type (0, 0), BuildingBlock: KIFKEQ_clean_linker_1, # of connection points: 2
#     Edge 47, Type (0, 0), BuildingBlock: KIFKEQ_clean_linker_1, # of connection points: 2
#     Edge 48, Type (0, 0), BuildingBlock: KIFKEQ_clean_linker_1, # of connection points: 2
#     Edge 49, Type (0, 0), BuildingBlock: KIFKEQ_clean_linker_1, # of connection points: 2
#     Edge 50, Type (0, 0), BuildingBlock: KIFKEQ_clean_linker_1, # of connection points: 2
#     Edge 51, Type (0, 0), BuildingBlock: KIFKEQ_clean_linker_1, # of connection points: 2
#     Edge 52, Type (0, 0), BuildingBlock: KIFKEQ_clean_linker_1, # of connection points: 2
#     Edge 53, Type (0, 0), BuildingBlock: KIFKEQ_clean_linker_1, # of connection points: 2
#     Edge 54, Type (0, 0), BuildingBlock: KIFKEQ_clean_linker_1, # of connection points: 2
#     Edge 55, Type (0, 0), BuildingBlock: KIFKEQ_clean_linker_1, # of connection points: 2
#     Edge 56, Type (0, 0), BuildingBlock: KIFKEQ_clean_linker_1, # of connection points: 2
#     Edge 57, Type (0, 0), BuildingBlock: KIFKEQ_clean_linker_1, # of connection points: 2
#     Edge 58, Type (0, 0), BuildingBlock: KIFKEQ_clean_linker_1, # of connection points: 2
#     Edge 59, Type (0, 0), BuildingBlock: KIFKEQ_clean_linker_1, # of connection points: 2
#     Edge 60, Type (0, 0), BuildingBlock: KIFKEQ_clean_linker_1, # of connection points: 2
#     Edge 61, Type (0, 0), BuildingBlock: KIFKEQ_clean_linker_1, # of connection points: 2
#     Edge 62, Type (0, 0), BuildingBlock: KIFKEQ_clean_linker_1, # of connection points: 2
#     Edge 63, Type (0, 0), BuildingBlock: KIFKEQ_clean_linker_1, # of connection points: 2
#     Edge 64, Type (0, 0), BuildingBlock: KIFKEQ_clean_linker_1, # of connection points: 2
#     Edge 65, Type (0, 0), BuildingBlock: KIFKEQ_clean_linker_1, # of connection points: 2
#     Edge 66, Type (0, 0), BuildingBlock: KIFKEQ_clean_linker_1, # of connection points: 2
#     Edge 67, Type (0, 0), BuildingBlock: KIFKEQ_clean_linker_1, # of connection points: 2
#     Edge 68, Type (0, 0), BuildingBlock: KIFKEQ_clean_linker_1, # of connection points: 2
#     Edge 69, Type (0, 0), BuildingBlock: KIFKEQ_clean_linker_1, # of connection points: 2
#     Edge 70, Type (0, 0), BuildingBlock: KIFKEQ_clean_linker_1, # of connection points: 2
#     Edge 71, Type (0, 0), BuildingBlock: KIFKEQ_clean_linker_1, # of connection points: 2
#     Edge 72, Type (0, 0), BuildingBlock: KIFKEQ_clean_linker_1, # of connection points: 2
#     Edge 73, Type (0, 0), BuildingBlock: KIFKEQ_clean_linker_1, # of connection points: 2
#     Edge 74, Type (0, 0), BuildingBlock: KIFKEQ_clean_linker_1, # of connection points: 2
#     Edge 75, Type (0, 0), BuildingBlock: KIFKEQ_clean_linker_1, # of connection points: 2
#     Edge 76, Type (0, 0), BuildingBlock: KIFKEQ_clean_linker_1, # of connection points: 2
#     Edge 77, Type (0, 0), BuildingBlock: KIFKEQ_clean_linker_1, # of connection points: 2
#     Edge 78, Type (0, 0), BuildingBlock: KIFKEQ_clean_linker_1, # of connection points: 2
#     Edge 79, Type (0, 0), BuildingBlock: KIFKEQ_clean_linker_1, # of connection points: 2
#     Edge 80, Type (0, 0), BuildingBlock: KIFKEQ_clean_linker_1, # of connection points: 2
#     Edge 81, Type (0, 0), BuildingBlock: KIFKEQ_clean_linker_1, # of connection points: 2
#     Edge 82, Type (0, 0), BuildingBlock: KIFKEQ_clean_linker_1, # of connection points: 2
#     Edge 83, Type (0, 0), BuildingBlock: KIFKEQ_clean_linker_1, # of connection points: 2
# Relax obj value: 0.910
# Max RMSD: 0.236
# Mean RMSD: 0.236
data_MOF--net-fce--node1-BEQFEK_clean_sbu_0--edge1-KIFKEQ_clean_linker_1
_symmetry_space_group_name_H-M    P1
_symmetry_Int_Tables_number       1
_symmetry_cell_setting            triclinic
loop_
_symmetry_equiv_pos_as_xyz
'x, y, z'
_cell_length_a     49.313344
_cell_length_b     49.329869
_cell_length_c     49.361295
_cell_angle_alpha  89.972369
_cell_angle_beta   89.990827
_cell_angle_gamma 90.003802
loop_
_atom_site_label
_atom_site_type_symbol
_atom_site_fract_x
_atom_site_fract_y
_atom_site_fract_z
_atom_type_partial_charge
Co0 Co 0.11829 0.43345 0.23925 0.0
Co1 Co 0.15382 0.4052 0.28451 0.0
C2 C 0.1366 0.46252 0.28982 0.0
O3 O 0.12492 0.46167 0.26693 0.0
O4 O 0.14792 0.44165 0.29969 0.0
C5 C 0.07424 0.46585 0.22461 0.0
O6 O 0.0757 0.47062 0.25072 0.0
C7 C 0.16098 0.38606 0.33921 0.0
C8 C 0.19167 0.35366 0.33594 0.0
C9 C 0.17427 0.3663 0.35404 0.0
N10 N 0.16959 0.38485 0.31343 0.0
N11 N 0.18829 0.36573 0.31161 0.0
C12 C 0.14067 0.40634 0.34927 0.0
H13 H 0.12342 0.40776 0.33491 0.0
H14 H 0.13314 0.40159 0.36986 0.0
H15 H 0.15052 0.42653 0.35015 0.0
C16 C 0.08212 0.38767 0.25164 0.0
N17 N 0.10577 0.40092 0.2547 0.0
N18 N 0.12051 0.38855 0.27317 0.0
C19 C 0.10657 0.36677 0.28229 0.0
C20 C 0.08165 0.36572 0.26915 0.0
C21 C 0.05987 0.39649 0.233 0.0
H22 H 0.06846 0.40178 0.21292 0.0
H23 H 0.0499 0.41477 0.24147 0.0
H24 H 0.04445 0.3803 0.23041 0.0
O25 O 0.15347 0.42828 0.22128 0.0
O26 O 0.17977 0.41159 0.25408 0.0
H27 H 0.13734 0.34391 0.30276 0.0
H28 H 0.1039 0.32988 0.30615 0.0
C29 C 0.11561 0.34898 0.30515 0.0
H30 H 0.11265 0.35986 0.32454 0.0
H31 H 0.19798 0.36026 0.29364 0.0
O32 O 0.09066 0.44906 0.21394 0.0
C33 C 0.17671 0.42124 0.23023 0.0
Co34 Co 0.57406 0.12014 0.23949 0.0
Co35 Co 0.59769 0.16036 0.28283 0.0
C36 C 0.544 0.13352 0.2907 0.0
O37 O 0.54631 0.12063 0.26856 0.0
O38 O 0.56265 0.14929 0.29876 0.0
C39 C 0.55624 0.06873 0.22755 0.0
O40 O 0.56224 0.06689 0.25342 0.0
C41 C 0.61584 0.17158 0.33694 0.0
C42 C 0.64329 0.20667 0.33249 0.0
C43 C 0.63316 0.18834 0.35127 0.0
N44 N 0.61565 0.17958 0.31095 0.0
N45 N 0.63173 0.20086 0.30841 0.0
C46 C 0.60247 0.14612 0.34681 0.0
H47 H 0.59988 0.13151 0.32993 0.0
H48 H 0.61459 0.13635 0.36304 0.0
H49 H 0.58216 0.15118 0.35506 0.0
C50 C 0.62698 0.09256 0.25007 0.0
N51 N 0.60953 0.11345 0.25307 0.0
N52 N 0.61927 0.13024 0.27138 0.0
C53 C 0.64301 0.12026 0.28062 0.0
C54 C 0.64833 0.09572 0.26805 0.0
C55 C 0.62258 0.06872 0.23185 0.0
H56 H 0.61029 0.07462 0.21403 0.0
H57 H 0.61221 0.05235 0.24326 0.0
H58 H 0.64225 0.06058 0.22465 0.0
O59 O 0.57158 0.156 0.22187 0.0
O60 O 0.58769 0.18483 0.25268 0.0
H61 H 0.6615 0.15508 0.29896 0.0
H62 H 0.6809 0.12425 0.30208 0.0
C63 C 0.66012 0.13292 0.30222 0.0
H64 H 0.65106 0.12889 0.32234 0.0
H65 H 0.63568 0.21066 0.2901 0.0
O66 O 0.56074 0.09091 0.21522 0.0
C67 C 0.57662 0.18012 0.2298 0.0
Co68 Co 0.87332 0.57998 0.23344 0.0
Co69 Co 0.84012 0.60267 0.28351 0.0
C70 C 0.85462 0.54406 0.27931 0.0
O71 O 0.86541 0.54757 0.25612 0.0
O72 O 0.84488 0.56383 0.29272 0.0
C73 C 0.89966 0.54441 0.19612 0.0
O74 O 0.88014 0.52775 0.20324 0.0
C75 C 0.83326 0.61636 0.34016 0.0
C76 C 0.80364 0.64993 0.33874 0.0
C77 C 0.8202 0.63539 0.35622 0.0
N78 N 0.82501 0.61976 0.31446 0.0
N79 N 0.80686 0.63944 0.31377 0.0
C80 C 0.85569 0.59754 0.34824 0.0
H81 H 0.86832 0.59215 0.33044 0.0
H82 H 0.86874 0.60687 0.36399 0.0
H83 H 0.84677 0.57868 0.35664 0.0
C84 C 0.9137 0.61906 0.25392 0.0
N85 N 0.88908 0.60735 0.25493 0.0
N86 N 0.87468 0.61854 0.27444 0.0
C87 C 0.88978 0.63816 0.2862 0.0
C88 C 0.91511 0.63891 0.27378 0.0
C89 C 0.93531 0.61137 0.23406 0.0
H90 H 0.92711 0.61303 0.21321 0.0
H91 H 0.94124 0.58993 0.23743 0.0
H92 H 0.95342 0.62459 0.2358 0.0
O93 O 0.83961 0.59564 0.21903 0.0
O94 O 0.81326 0.60374 0.25325 0.0
H95 H 0.85918 0.65954 0.30854 0.0
H96 H 0.89253 0.6735 0.31227 0.0
C97 C 0.88095 0.65443 0.31025 0.0
H98 H 0.88438 0.64246 0.32892 0.0
H99 H 0.79774 0.64659 0.2961 0.0
O100 O 0.89921 0.56862 0.20492 0.0
C101 C 0.81781 0.59037 0.23169 0.0
Co102 Co 0.42009 0.86712 0.24541 0.0
Co103 Co 0.39908 0.83095 0.29368 0.0
C104 C 0.45398 0.8563 0.29478 0.0
O105 O 0.45023 0.86753 0.27195 0.0
O106 O 0.43559 0.84192 0.30555 0.0
C107 C 0.43777 0.91718 0.22975 0.0
O108 O 0.43289 0.92022 0.25573 0.0
C109 C 0.38471 0.82589 0.34996 0.0
C110 C 0.35647 0.7912 0.35139 0.0
C111 C 0.36778 0.81155 0.36714 0.0
N112 N 0.38301 0.81505 0.32507 0.0
N113 N 0.36647 0.79398 0.32608 0.0
C114 C 0.40268 0.84944 0.35685 0.0
H115 H 0.42406 0.84251 0.35652 0.0
H116 H 0.40046 0.8656 0.34136 0.0
H117 H 0.39868 0.85776 0.37728 0.0
C118 C 0.36889 0.89697 0.25785 0.0
N119 N 0.38614 0.87599 0.26132 0.0
N120 N 0.37757 0.86099 0.28167 0.0
C121 C 0.35483 0.87233 0.29183 0.0
C122 C 0.34898 0.89585 0.27763 0.0
C123 C 0.37203 0.91888 0.2371 0.0
H124 H 0.38311 0.91121 0.21917 0.0
H125 H 0.38308 0.93626 0.24612 0.0
H126 H 0.35191 0.92636 0.23045 0.0
O127 O 0.41956 0.83009 0.23027 0.0
O128 O 0.40572 0.80396 0.26452 0.0
H129 H 0.33698 0.83962 0.31424 0.0
H130 H 0.31872 0.87121 0.31648 0.0
C131 C 0.3392 0.8619 0.31563 0.0
H132 H 0.35005 0.86717 0.33453 0.0
H133 H 0.3612 0.78221 0.30934 0.0
O134 O 0.43248 0.89455 0.21861 0.0
C135 C 0.41452 0.80676 0.24033 0.0
Co136 Co 0.12088 0.57582 0.75878 0.0
Co137 Co 0.15215 0.60308 0.70967 0.0
C138 C 0.14213 0.54431 0.70944 0.0
O139 O 0.13157 0.54628 0.73299 0.0
O140 O 0.15012 0.56522 0.69648 0.0
C141 C 0.09565 0.53505 0.79107 0.0
O142 O 0.1148 0.51971 0.78074 0.0
C143 C 0.16745 0.62395 0.65585 0.0
C144 C 0.17656 0.66669 0.66553 0.0
C145 C 0.17314 0.64895 0.64403 0.0
N146 N 0.1664 0.62719 0.68287 0.0
N147 N 0.1726 0.65261 0.68855 0.0
C148 C 0.16334 0.59725 0.64206 0.0
H149 H 0.17395 0.58116 0.65359 0.0
H150 H 0.14139 0.59228 0.64172 0.0
H151 H 0.17146 0.59748 0.6211 0.0
C152 C 0.07814 0.61347 0.74185 0.0
N153 N 0.10326 0.60315 0.73955 0.0
N154 N 0.11598 0.6148 0.7192 0.0
C155 C 0.09866 0.63225 0.70711 0.0
C156 C 0.07422 0.6322 0.72126 0.0
C157 C 0.05863 0.60578 0.7638 0.0
H158 H 0.06935 0.60523 0.78353 0.0
H159 H 0.05056 0.58519 0.75968 0.0
H160 H 0.04154 0.62034 0.76521 0.0
O161 O 0.15265 0.59346 0.77428 0.0
O162 O 0.17917 0.60121 0.74017 0.0
H163 H 0.11777 0.66318 0.68356 0.0
H164 H 0.08508 0.653 0.67075 0.0
C165 C 0.104 0.6457 0.68044 0.0
H166 H 0.1138 0.63112 0.66652 0.0
H167 H 0.17256 0.66072 0.70806 0.0
O168 O 0.09585 0.56032 0.78608 0.0
C169 C 0.17469 0.58842 0.76211 0.0
Co170 Co 0.422 0.10484 0.74666 0.0
Co171 Co 0.39267 0.14264 0.70471 0.0
C172 C 0.44829 0.12021 0.69431 0.0
O173 O 0.44824 0.10724 0.71659 0.0
O174 O 0.42777 0.134 0.68687 0.0
C175 C 0.46145 0.07963 0.7788 0.0
O176 O 0.47577 0.10007 0.76947 0.0
C177 C 0.36939 0.15369 0.65222 0.0
C178 C 0.34132 0.18775 0.65976 0.0
C179 C 0.35069 0.17049 0.63964 0.0
N180 N 0.37111 0.16076 0.6784 0.0
N181 N 0.35449 0.1813 0.68282 0.0
C182 C 0.38345 0.12944 0.64054 0.0
H183 H 0.38841 0.11465 0.65673 0.0
H184 H 0.3706 0.11941 0.62505 0.0
H185 H 0.40267 0.13601 0.63085 0.0
C186 C 0.37357 0.07187 0.7381 0.0
N187 N 0.38748 0.09502 0.73458 0.0
N188 N 0.37441 0.11092 0.71767 0.0
C189 C 0.35123 0.09839 0.71026 0.0
C190 C 0.35002 0.07314 0.72277 0.0
C191 C 0.38499 0.04768 0.75251 0.0
H192 H 0.38649 0.05225 0.77447 0.0
H193 H 0.40579 0.04362 0.74495 0.0
H194 H 0.37249 0.02925 0.74966 0.0
O195 O 0.42208 0.14045 0.76383 0.0
O196 O 0.4033 0.16825 0.73371 0.0
H197 H 0.3283 0.13159 0.69401 0.0
H198 H 0.3112 0.0992 0.69268 0.0
C199 C 0.33106 0.10958 0.69057 0.0
H200 H 0.33851 0.1064 0.66964 0.0
H201 H 0.35167 0.19046 0.70165 0.0
O202 O 0.43655 0.07792 0.77247 0.0
C203 C 0.41566 0.16418 0.75602 0.0
Co204 Co 0.88461 0.42211 0.74975 0.0
Co205 Co 0.84622 0.39485 0.7069 0.0
C206 C 0.86644 0.45191 0.70022 0.0
O207 O 0.88005 0.4508 0.72209 0.0
O208 O 0.85313 0.43149 0.69176 0.0
C209 C 0.91343 0.45963 0.7823 0.0
O210 O 0.89401 0.47592 0.77413 0.0
C211 C 0.83483 0.37535 0.65283 0.0
C212 C 0.80177 0.34576 0.65881 0.0
C213 C 0.81851 0.35695 0.63916 0.0
N214 N 0.82802 0.37507 0.67917 0.0
N215 N 0.80802 0.35758 0.68264 0.0
C216 C 0.85856 0.39086 0.64189 0.0
H217 H 0.87317 0.39557 0.65832 0.0
H218 H 0.86907 0.37917 0.62581 0.0
H219 H 0.85128 0.41025 0.63312 0.0
C220 C 0.91916 0.37598 0.73539 0.0
N221 N 0.89531 0.38916 0.73411 0.0
N222 N 0.8792 0.3769 0.71679 0.0
C223 C 0.89233 0.35504 0.70683 0.0
C224 C 0.91814 0.35386 0.71808 0.0
C225 C 0.94351 0.38681 0.74995 0.0
H226 H 0.93951 0.38666 0.77207 0.0
H227 H 0.94704 0.40814 0.74375 0.0
H228 H 0.96204 0.37482 0.74575 0.0
O229 O 0.84969 0.41914 0.76861 0.0
O230 O 0.82148 0.40172 0.73803 0.0
H231 H 0.85918 0.33255 0.6898 0.0
H232 H 0.89186 0.31622 0.68679 0.0
C233 C 0.88107 0.33597 0.68613 0.0
H234 H 0.88381 0.34472 0.66564 0.0
H235 H 0.79922 0.35314 0.70134 0.0
O236 O 0.91275 0.43487 0.77528 0.0
C237 C 0.82594 0.41209 0.76129 0.0
Co238 Co 0.5856 0.87827 0.75562 0.0
Co239 Co 0.61018 0.84329 0.70774 0.0
C240 C 0.55054 0.85347 0.71188 0.0
O241 O 0.55368 0.86596 0.73425 0.0
O242 O 0.57084 0.84457 0.69858 0.0
C243 C 0.54854 0.90358 0.79142 0.0
O244 O 0.5334 0.88288 0.78435 0.0
C245 C 0.62616 0.83639 0.65167 0.0
C246 C 0.65974 0.80686 0.65416 0.0
C247 C 0.64589 0.82355 0.63631 0.0
N248 N 0.6287 0.8282 0.67748 0.0
N249 N 0.64847 0.81016 0.67882 0.0
C250 C 0.60482 0.85586 0.64226 0.0
H251 H 0.58456 0.84734 0.64698 0.0
H252 H 0.60664 0.87523 0.65352 0.0
H253 H 0.60592 0.85964 0.62015 0.0
C254 C 0.62045 0.92018 0.7316 0.0
N255 N 0.61056 0.89478 0.73242 0.0
N256 N 0.62334 0.87954 0.71461 0.0
C257 C 0.64236 0.89491 0.70229 0.0
C258 C 0.64094 0.92112 0.71241 0.0
C259 C 0.6093 0.94321 0.74789 0.0
H260 H 0.61655 0.94137 0.76909 0.0
H261 H 0.58683 0.94217 0.74814 0.0
H262 H 0.6157 0.96313 0.73964 0.0
O263 O 0.60592 0.84765 0.77104 0.0
O264 O 0.61258 0.818 0.7394 0.0
H265 H 0.66794 0.86333 0.68656 0.0
H266 H 0.68141 0.89718 0.6828 0.0
C267 C 0.66267 0.88472 0.68221 0.0
H268 H 0.65408 0.88624 0.66155 0.0
H269 H 0.65499 0.80099 0.69671 0.0
O270 O 0.57294 0.9046 0.78317 0.0
C271 C 0.60091 0.82431 0.7615 0.0
Co272 Co 0.23472 0.10746 0.41977 0.0
Co273 Co 0.28167 0.14247 0.39282 0.0
C274 C 0.27988 0.13184 0.45249 0.0
O275 O 0.2575 0.11915 0.45063 0.0
O276 O 0.29198 0.14083 0.43155 0.0
C277 C 0.1997 0.08333 0.45824 0.0
O278 O 0.20418 0.10632 0.47086 0.0
C279 C 0.33786 0.14781 0.37704 0.0
C280 C 0.33716 0.17879 0.34474 0.0
C281 C 0.35417 0.16105 0.35838 0.0
N282 N 0.31233 0.15686 0.37418 0.0
N283 N 0.31203 0.17563 0.35507 0.0
C284 C 0.34617 0.12756 0.3981 0.0
H285 H 0.3329 0.10943 0.39693 0.0
H286 H 0.36772 0.12153 0.39625 0.0
H287 H 0.34326 0.13665 0.41843 0.0
C288 C 0.25645 0.06628 0.38247 0.0
N289 N 0.25636 0.09147 0.39292 0.0
N290 N 0.27369 0.10677 0.37956 0.0
C291 C 0.28489 0.09178 0.35963 0.0
C292 C 0.27455 0.06563 0.36096 0.0
C293 C 0.24091 0.04305 0.3943 0.0
H294 H 0.24224 0.04371 0.41672 0.0
H295 H 0.24869 0.02323 0.38711 0.0
H296 H 0.21924 0.04501 0.38856 0.0
O297 O 0.21806 0.13923 0.40217 0.0
O298 O 0.25011 0.16785 0.39203 0.0
H299 H 0.30317 0.0902 0.31996 0.0
H300 H 0.32527 0.10097 0.34675 0.0
C301 C 0.3043 0.10237 0.33883 0.0
H302 H 0.29964 0.12381 0.33403 0.0
H303 H 0.29461 0.18573 0.3486 0.0
O304 O 0.20857 0.08052 0.43422 0.0
C305 C 0.22892 0.16234 0.40576 0.0
Co306 Co 0.88063 0.24279 0.41875 0.0
Co307 Co 0.84552 0.28924 0.39144 0.0
C308 C 0.85773 0.29099 0.45 0.0
O309 O 0.86979 0.26818 0.44821 0.0
O310 O 0.84825 0.30289 0.42911 0.0
C311 C 0.90821 0.21145 0.45874 0.0
O312 O 0.88889 0.22075 0.4745 0.0
C313 C 0.83074 0.34292 0.37077 0.0
C314 C 0.81189 0.33256 0.33152 0.0
C315 C 0.82029 0.3542 0.34728 0.0
N316 N 0.82876 0.31581 0.36892 0.0
N317 N 0.81678 0.30977 0.34573 0.0
C318 C 0.84546 0.35735 0.39303 0.0
H319 H 0.86337 0.34539 0.39951 0.0
H320 H 0.85196 0.37793 0.38667 0.0
H321 H 0.83171 0.35926 0.41072 0.0
C322 C 0.92058 0.26086 0.37855 0.0
N323 N 0.89592 0.2623 0.39008 0.0
N324 N 0.88125 0.28088 0.37772 0.0
C325 C 0.89654 0.29215 0.35795 0.0
C326 C 0.9219 0.27976 0.35782 0.0
C327 C 0.94216 0.24128 0.38704 0.0
H328 H 0.93353 0.22053 0.38782 0.0
H329 H 0.94925 0.24657 0.40771 0.0
H330 H 0.95962 0.24139 0.37287 0.0
O331 O 0.84869 0.22511 0.4035 0.0
O332 O 0.82028 0.25748 0.39451 0.0
H333 H 0.86973 0.31098 0.32956 0.0
H334 H 0.90415 0.32311 0.32742 0.0
C335 C 0.88806 0.31617 0.34144 0.0
H336 H 0.88313 0.3332 0.35514 0.0
H337 H 0.81363 0.29004 0.33883 0.0
O338 O 0.90753 0.21689 0.43358 0.0
C339 C 0.82615 0.2365 0.40834 0.0
Co340 Co 0.76433 0.89081 0.41863 0.0
Co341 Co 0.71837 0.85469 0.39151 0.0
C342 C 0.71793 0.86776 0.45071 0.0
O343 O 0.74029 0.88057 0.44923 0.0
O344 O 0.7068 0.8577 0.42973 0.0
C345 C 0.79715 0.91852 0.45693 0.0
O346 O 0.78863 0.89897 0.47287 0.0
C347 C 0.66272 0.8482 0.3747 0.0
C348 C 0.66442 0.81627 0.34339 0.0
C349 C 0.64694 0.83413 0.35624 0.0
N350 N 0.68842 0.83949 0.37251 0.0
N351 N 0.68934 0.82019 0.35397 0.0
C352 C 0.65373 0.86882 0.39511 0.0
H353 H 0.65488 0.85965 0.41559 0.0
H354 H 0.66772 0.88644 0.39484 0.0
H355 H 0.63262 0.87565 0.39177 0.0
C356 C 0.7436 0.93071 0.37941 0.0
N357 N 0.7436 0.90583 0.39058 0.0
N358 N 0.72663 0.89004 0.37731 0.0
C359 C 0.71568 0.90446 0.35681 0.0
C360 C 0.72587 0.93069 0.35761 0.0
C361 C 0.75884 0.95434 0.39083 0.0
H362 H 0.7806 0.95235 0.38545 0.0
H363 H 0.75722 0.95428 0.41325 0.0
H364 H 0.75108 0.97391 0.38294 0.0
O365 O 0.78123 0.85856 0.40244 0.0
O366 O 0.7498 0.82922 0.39285 0.0
H367 H 0.70111 0.87188 0.33187 0.0
H368 H 0.69741 0.9052 0.31712 0.0
C369 C 0.69634 0.89339 0.33624 0.0
H370 H 0.67536 0.89483 0.34414 0.0
H371 H 0.70702 0.81015 0.34813 0.0
O372 O 0.79097 0.91782 0.43194 0.0
C373 C 0.77047 0.83561 0.40694 0.0
Co374 Co 0.11618 0.76731 0.42328 0.0
Co375 Co 0.15195 0.7203 0.3976 0.0
C376 C 0.13828 0.72122 0.45668 0.0
O377 O 0.12592 0.74378 0.45449 0.0
O378 O 0.14847 0.70944 0.43612 0.0
C379 C 0.08863 0.80073 0.46098 0.0
O380 O 0.10872 0.79309 0.4767 0.0
C381 C 0.15936 0.66458 0.38174 0.0
C382 C 0.19006 0.66663 0.34922 0.0
C383 C 0.17292 0.64895 0.36278 0.0
N384 N 0.16763 0.69035 0.37915 0.0
N385 N 0.18632 0.69147 0.35999 0.0
C386 C 0.13927 0.65543 0.40262 0.0
H387 H 0.14913 0.65627 0.42276 0.0
H388 H 0.12172 0.66949 0.40311 0.0
H389 H 0.13229 0.63437 0.3993 0.0
C390 C 0.07619 0.74566 0.38435 0.0
N391 N 0.10117 0.74605 0.39538 0.0
N392 N 0.11666 0.72811 0.38303 0.0
C393 C 0.1019 0.71612 0.36337 0.0
C394 C 0.07586 0.72662 0.36375 0.0
C395 C 0.05276 0.76191 0.39468 0.0
H396 H 0.0569 0.78376 0.3913 0.0
H397 H 0.05063 0.75872 0.41684 0.0
H398 H 0.03355 0.75634 0.38439 0.0
O399 O 0.14895 0.78416 0.4078 0.0
O400 O 0.17701 0.75205 0.39708 0.0
H401 H 0.13361 0.69859 0.3392 0.0
H402 H 0.09993 0.69462 0.32542 0.0
C403 C 0.11208 0.69484 0.34435 0.0
H404 H 0.11005 0.67469 0.35403 0.0
H405 H 0.19576 0.70929 0.35361 0.0
O406 O 0.08895 0.7939 0.43616 0.0
C407 C 0.17152 0.77243 0.41191 0.0
Co408 Co 0.24806 0.86908 0.58283 0.0
Co409 Co 0.29272 0.83142 0.60905 0.0
C410 C 0.30004 0.85462 0.55407 0.0
O411 O 0.27712 0.86628 0.55539 0.0
O412 O 0.3092 0.84117 0.57399 0.0
C413 C 0.2365 0.91934 0.56176 0.0
O414 O 0.26269 0.92072 0.56653 0.0
C415 C 0.34671 0.82379 0.63034 0.0
C416 C 0.34345 0.78824 0.65731 0.0
C417 C 0.36131 0.80807 0.64844 0.0
N418 N 0.32128 0.81412 0.62887 0.0
N419 N 0.31948 0.79262 0.64478 0.0
C420 C 0.35671 0.84738 0.61397 0.0
H421 H 0.36088 0.84034 0.59304 0.0
H422 H 0.34084 0.86328 0.6128 0.0
H423 H 0.37569 0.85609 0.62219 0.0
C424 C 0.25649 0.89943 0.63399 0.0
N425 N 0.26112 0.87795 0.61773 0.0
N426 N 0.27997 0.86254 0.62868 0.0
C427 C 0.28812 0.87423 0.65206 0.0
C428 C 0.27397 0.89824 0.6559 0.0
C429 C 0.23723 0.92204 0.62772 0.0
H430 H 0.21971 0.91438 0.61598 0.0
H431 H 0.24795 0.93794 0.61599 0.0
H432 H 0.22951 0.93146 0.64658 0.0
O433 O 0.23051 0.83346 0.58324 0.0
O434 O 0.26282 0.80578 0.59876 0.0
H435 H 0.308 0.84139 0.67251 0.0
H436 H 0.30868 0.87317 0.69059 0.0
C437 C 0.30993 0.86363 0.67026 0.0
H438 H 0.33002 0.86853 0.66152 0.0
H439 H 0.30176 0.78144 0.64769 0.0
O440 O 0.22385 0.89774 0.56794 0.0
C441 C 0.2393 0.80972 0.58853 0.0
Co442 Co 0.12076 0.24538 0.57091 0.0
Co443 Co 0.15901 0.28902 0.59744 0.0
C444 C 0.13619 0.29594 0.54146 0.0
O445 O 0.12323 0.27371 0.54284 0.0
O446 O 0.15024 0.30443 0.56134 0.0
C447 C 0.09171 0.21342 0.53337 0.0
O448 O 0.11102 0.22207 0.51717 0.0
C449 C 0.16701 0.34313 0.6183 0.0
C450 C 0.20201 0.33936 0.64592 0.0
C451 C 0.18264 0.35751 0.63666 0.0
N452 N 0.17631 0.31757 0.61709 0.0
N453 N 0.19749 0.31547 0.63337 0.0
C454 C 0.14389 0.35339 0.60146 0.0
H455 H 0.15115 0.35642 0.5804 0.0
H456 H 0.12743 0.33806 0.60079 0.0
H457 H 0.13588 0.37299 0.6089 0.0
C458 C 0.08732 0.25826 0.6181 0.0
N459 N 0.11083 0.26013 0.60439 0.0
N460 N 0.12694 0.27761 0.61643 0.0
C461 C 0.11418 0.28695 0.63879 0.0
C462 C 0.08856 0.27531 0.64039 0.0
C463 C 0.06291 0.24361 0.60754 0.0
H464 H 0.0673 0.22156 0.60682 0.0
H465 H 0.05862 0.25045 0.58655 0.0
H466 H 0.04469 0.24705 0.62022 0.0
O467 O 0.1564 0.22767 0.57228 0.0
O468 O 0.1846 0.25872 0.58906 0.0
H469 H 0.14758 0.30466 0.66039 0.0
H470 H 0.1155 0.30589 0.67807 0.0
C471 C 0.12544 0.30755 0.65795 0.0
H472 H 0.12144 0.32814 0.64997 0.0
H473 H 0.2083 0.29757 0.63655 0.0
O474 O 0.09274 0.21959 0.55833 0.0
C475 C 0.18022 0.23545 0.57857 0.0
Co476 Co 0.75322 0.12777 0.56797 0.0
Co477 Co 0.70674 0.16277 0.59446 0.0
C478 C 0.70473 0.14314 0.53642 0.0
O479 O 0.72683 0.13 0.538 0.0
O480 O 0.69545 0.156 0.55669 0.0
C481 C 0.78861 0.10148 0.53137 0.0
O482 O 0.77955 0.12054 0.51512 0.0
C483 C 0.65048 0.16339 0.60966 0.0
C484 C 0.64698 0.19614 0.6399 0.0
C485 C 0.63247 0.17551 0.62746 0.0
N486 N 0.67465 0.17576 0.6119 0.0
N487 N 0.6724 0.19563 0.62972 0.0
C488 C 0.64506 0.14061 0.59028 0.0
H489 H 0.64518 0.14879 0.56937 0.0
H490 H 0.66145 0.12526 0.5917 0.0
H491 H 0.6251 0.13092 0.59354 0.0
C492 C 0.73865 0.09113 0.61253 0.0
N493 N 0.73685 0.11525 0.5999 0.0
N494 N 0.71858 0.13036 0.61207 0.0
C495 C 0.70876 0.11643 0.63347 0.0
C496 C 0.72079 0.09103 0.63423 0.0
C497 C 0.7544 0.0676 0.60162 0.0
H498 H 0.77638 0.07223 0.60288 0.0
H499 H 0.74929 0.06459 0.57993 0.0
H500 H 0.75021 0.04863 0.61293 0.0
O501 O 0.76816 0.16465 0.57234 0.0
O502 O 0.73587 0.19046 0.59077 0.0
H503 H 0.68962 0.14862 0.65568 0.0
H504 H 0.68906 0.116 0.6724 0.0
C505 C 0.68746 0.12649 0.65255 0.0
H506 H 0.66716 0.12207 0.64408 0.0
H507 H 0.68838 0.20816 0.63562 0.0
O508 O 0.78148 0.10181 0.55611 0.0
C509 C 0.7595 0.18765 0.58047 0.0
Co510 Co 0.87854 0.75177 0.57303 0.0
Co511 Co 0.83896 0.70844 0.59796 0.0
C512 C 0.86415 0.70205 0.54261 0.0
O513 O 0.87779 0.72384 0.54446 0.0
O514 O 0.84883 0.69427 0.5618 0.0
C515 C 0.90668 0.78575 0.53718 0.0
O516 O 0.88725 0.77733 0.52103 0.0
C517 C 0.83122 0.65316 0.61487 0.0
C518 C 0.79684 0.65479 0.64345 0.0
C519 C 0.81587 0.63734 0.63225 0.0
N520 N 0.82176 0.67868 0.61566 0.0
N521 N 0.80092 0.67952 0.63246 0.0
C522 C 0.85677 0.64515 0.60047 0.0
H523 H 0.87019 0.66296 0.59765 0.0
H524 H 0.86793 0.62935 0.61197 0.0
H525 H 0.85151 0.63688 0.58024 0.0
C526 C 0.91051 0.73718 0.62091 0.0
N527 N 0.88727 0.73645 0.60666 0.0
N528 N 0.87032 0.71932 0.61805 0.0
C529 C 0.88215 0.70917 0.64053 0.0
C530 C 0.90813 0.71975 0.64284 0.0
C531 C 0.9357 0.75103 0.61111 0.0
H532 H 0.93225 0.77325 0.61088 0.0
H533 H 0.94003 0.7446 0.59001 0.0
H534 H 0.95349 0.74646 0.62406 0.0
O535 O 0.84247 0.76899 0.57324 0.0
O536 O 0.81345 0.73873 0.59011 0.0
H537 H 0.8476 0.69209 0.66083 0.0
H538 H 0.87907 0.68965 0.67944 0.0
C539 C 0.86971 0.68858 0.65901 0.0
H540 H 0.87334 0.66797 0.65088 0.0
H541 H 0.79023 0.69713 0.63727 0.0
O542 O 0.90638 0.7784 0.56185 0.0
C543 C 0.81843 0.7618 0.57946 0.0
Co544 Co 0.41189 0.24487 0.1224 0.0
Co545 Co 0.38773 0.29331 0.15678 0.0
C546 C 0.44697 0.28953 0.14552 0.0
O547 O 0.44379 0.2666 0.13408 0.0
O548 O 0.42675 0.30319 0.15402 0.0
C549 C 0.44904 0.20906 0.09719 0.0
O550 O 0.46425 0.21642 0.11776 0.0
C551 C 0.37179 0.34941 0.16369 0.0
C552 C 0.33925 0.34726 0.19438 0.0
C553 C 0.35276 0.365 0.17727 0.0
N554 N 0.36927 0.32361 0.17194 0.0
N555 N 0.35008 0.32245 0.1906 0.0
C556 C 0.39273 0.35864 0.1437 0.0
H557 H 0.41309 0.35603 0.15286 0.0
H558 H 0.39203 0.34568 0.12535 0.0
H559 H 0.3903 0.38024 0.13809 0.0
C560 C 0.37609 0.26796 0.08076 0.0
N561 N 0.38638 0.26756 0.10599 0.0
N562 N 0.37379 0.28559 0.12113 0.0
C563 C 0.35456 0.29771 0.10588 0.0
C564 C 0.35557 0.28713 0.07984 0.0
C565 C 0.38705 0.25144 0.0578 0.0
H566 H 0.37999 0.2302 0.06002 0.0
H567 H 0.40954 0.25139 0.05853 0.0
H568 H 0.38034 0.25938 0.03788 0.0
O569 O 0.39235 0.22972 0.15353 0.0
O570 O 0.38706 0.26211 0.18279 0.0
H571 H 0.32955 0.31429 0.13745 0.0
H572 H 0.3159 0.31798 0.1037 0.0
C573 C 0.33474 0.31832 0.116 0.0
H574 H 0.34375 0.33881 0.11425 0.0
H575 H 0.34377 0.30462 0.20007 0.0
O576 O 0.42457 0.21711 0.09626 0.0
C577 C 0.39786 0.2395 0.17664 0.0
Co578 Co 0.43505 0.75798 0.87952 0.0
Co579 Co 0.40805 0.71426 0.84196 0.0
C580 C 0.46469 0.7078 0.86374 0.0
O581 O 0.46351 0.72984 0.87706 0.0
O582 O 0.44459 0.6996 0.84984 0.0
C583 C 0.47264 0.78995 0.90866 0.0
O584 O 0.48911 0.7807 0.88989 0.0
C585 C 0.38877 0.65989 0.83356 0.0
C586 C 0.35977 0.66358 0.79966 0.0
C587 C 0.37035 0.64533 0.81822 0.0
N588 N 0.38874 0.68566 0.82488 0.0
N589 N 0.37168 0.68775 0.80433 0.0
C590 C 0.40688 0.64967 0.85572 0.0
H591 H 0.42793 0.6486 0.84789 0.0
H592 H 0.40681 0.6641 0.87296 0.0
H593 H 0.40121 0.62914 0.86279 0.0
C594 C 0.38815 0.74459 0.91369 0.0
N595 N 0.4017 0.74288 0.89008 0.0
N596 N 0.38963 0.72524 0.87417 0.0
C597 C 0.36754 0.71558 0.88712 0.0
C598 C 0.36605 0.72724 0.91265 0.0
C599 C 0.39859 0.75953 0.93794 0.0
H600 H 0.39918 0.78154 0.93334 0.0
H601 H 0.41964 0.75289 0.94232 0.0
H602 H 0.38582 0.75614 0.95612 0.0
O603 O 0.43315 0.77525 0.84349 0.0
O604 O 0.41453 0.74438 0.81635 0.0
H605 H 0.34551 0.69768 0.85414 0.0
H606 H 0.3288 0.69534 0.88664 0.0
C607 C 0.34869 0.69453 0.87613 0.0
H608 H 0.3575 0.67416 0.87951 0.0
H609 H 0.36755 0.70579 0.7941 0.0
O610 O 0.44758 0.78418 0.90722 0.0
C611 C 0.42563 0.76744 0.82003 0.0
Co612 Co 0.24397 0.42966 0.87126 0.0
Co613 Co 0.28988 0.40133 0.83641 0.0
C614 C 0.29348 0.45948 0.85184 0.0
O615 O 0.27073 0.45834 0.86372 0.0
O616 O 0.30379 0.43857 0.84103 0.0
C617 C 0.23001 0.46244 0.91477 0.0
O618 O 0.25636 0.46588 0.9134 0.0
C619 C 0.34518 0.38376 0.8336 0.0
C620 C 0.34582 0.35141 0.80275 0.0
C621 C 0.36182 0.36451 0.82181 0.0
N622 N 0.32036 0.38181 0.8226 0.0
N623 N 0.32088 0.36273 0.8038 0.0
C624 C 0.35253 0.40407 0.855 0.0
H625 H 0.33647 0.40477 0.87074 0.0
H626 H 0.37242 0.39995 0.86449 0.0
H627 H 0.35376 0.42441 0.84551 0.0
C628 C 0.25796 0.38531 0.90892 0.0
N629 N 0.26029 0.39796 0.88482 0.0
N630 N 0.27851 0.38538 0.86995 0.0
C631 C 0.28792 0.36395 0.88414 0.0
C632 C 0.27563 0.36348 0.90936 0.0
C633 C 0.24144 0.39576 0.9321 0.0
H634 H 0.22074 0.40084 0.92498 0.0
H635 H 0.25099 0.41447 0.94009 0.0
H636 H 0.24001 0.38075 0.94876 0.0
O637 O 0.22655 0.42283 0.83593 0.0
O638 O 0.25954 0.40558 0.81009 0.0
H639 H 0.30606 0.34012 0.85259 0.0
H640 H 0.30762 0.325 0.88587 0.0
C641 C 0.30889 0.34434 0.87443 0.0
H642 H 0.32928 0.35305 0.87783 0.0
H643 H 0.30406 0.35672 0.7925 0.0
O644 O 0.2186 0.44595 0.89853 0.0
C645 C 0.23553 0.41498 0.81294 0.0
Co646 Co 0.57366 0.24855 0.89272 0.0
Co647 Co 0.60203 0.29009 0.8535 0.0
C648 C 0.5469 0.30045 0.8772 0.0
O649 O 0.54735 0.27849 0.89069 0.0
O650 O 0.56704 0.30765 0.86276 0.0
C651 C 0.53479 0.21704 0.91954 0.0
O652 O 0.52013 0.22593 0.89916 0.0
C653 C 0.62604 0.34243 0.8434 0.0
C654 C 0.65189 0.33592 0.80743 0.0
C655 C 0.64447 0.35516 0.82649 0.0
N656 N 0.62302 0.31672 0.83508 0.0
N657 N 0.63826 0.31295 0.81337 0.0
C658 C 0.61051 0.35443 0.86658 0.0
H659 H 0.58935 0.35816 0.85992 0.0
H660 H 0.60971 0.33983 0.88367 0.0
H661 H 0.61914 0.37396 0.87349 0.0
C662 C 0.62284 0.25811 0.92439 0.0
N663 N 0.60837 0.26092 0.90148 0.0
N664 N 0.62107 0.27737 0.8848 0.0
C665 C 0.6446 0.28498 0.89646 0.0
C666 C 0.64633 0.27339 0.92206 0.0
C667 C 0.61213 0.24439 0.94927 0.0
H668 H 0.59163 0.25238 0.95396 0.0
H669 H 0.62548 0.2474 0.96708 0.0
H670 H 0.61009 0.22236 0.94522 0.0
O671 O 0.57249 0.23125 0.85706 0.0
O672 O 0.59111 0.26082 0.82848 0.0
H673 H 0.68502 0.30141 0.89361 0.0
H674 H 0.65815 0.32521 0.88761 0.0
C675 C 0.66476 0.30403 0.88415 0.0
H676 H 0.66642 0.30036 0.86208 0.0
H677 H 0.63986 0.29457 0.80304 0.0
O678 O 0.5598 0.22319 0.92049 0.0
C679 C 0.57848 0.23874 0.83308 0.0
Co680 Co 0.76595 0.57578 0.88094 0.0
Co681 Co 0.7207 0.6007 0.84262 0.0
C682 C 0.72127 0.54183 0.85694 0.0
O683 O 0.74327 0.54443 0.87018 0.0
O684 O 0.70962 0.56219 0.84615 0.0
C685 C 0.80037 0.5389 0.9082 0.0
O686 O 0.79686 0.52512 0.88572 0.0
C687 C 0.66524 0.61689 0.83318 0.0
C688 C 0.66891 0.6498 0.80307 0.0
C689 C 0.65034 0.63636 0.8194 0.0
N690 N 0.6913 0.61893 0.82555 0.0
N691 N 0.69335 0.63825 0.80712 0.0
C692 C 0.65581 0.59911 0.85594 0.0
H693 H 0.67308 0.5932 0.86906 0.0
H694 H 0.64027 0.60955 0.86839 0.0
H695 H 0.64667 0.58043 0.84737 0.0
C696 C 0.74227 0.61479 0.91923 0.0
N697 N 0.74386 0.60352 0.89448 0.0
N698 N 0.72709 0.61598 0.87786 0.0
C699 C 0.71472 0.63614 0.89161 0.0
C700 C 0.72368 0.63582 0.91822 0.0
C701 C 0.75667 0.604 0.94365 0.0
H702 H 0.75436 0.58164 0.94448 0.0
H703 H 0.7488 0.61296 0.96269 0.0
H704 H 0.77863 0.60858 0.94185 0.0
O705 O 0.78419 0.59154 0.84915 0.0
O706 O 0.75337 0.59988 0.81872 0.0
H707 H 0.70028 0.66024 0.85832 0.0
H708 H 0.69539 0.6753 0.89129 0.0
C709 C 0.6951 0.656 0.87973 0.0
H710 H 0.67428 0.64765 0.88092 0.0
H711 H 0.71159 0.6445 0.79842 0.0
O712 O 0.79091 0.56282 0.90964 0.0
C713 C 0.77437 0.58665 0.82586 0.0
Co714 Co 0.57749 0.75861 0.12274 0.0
Co715 Co 0.60182 0.71059 0.15833 0.0
C716 C 0.54252 0.71373 0.14498 0.0
O717 O 0.54546 0.73607 0.13236 0.0
O718 O 0.56274 0.70144 0.15534 0.0
C719 C 0.54122 0.79318 0.09418 0.0
O720 O 0.52422 0.78488 0.11291 0.0
C721 C 0.61604 0.65411 0.16467 0.0
C722 C 0.64882 0.65503 0.19513 0.0
C723 C 0.63475 0.63779 0.17791 0.0
N724 N 0.61914 0.67968 0.17347 0.0
N725 N 0.6384 0.68008 0.19206 0.0
C726 C 0.59778 0.64651 0.14164 0.0
H727 H 0.59228 0.66464 0.12955 0.0
H728 H 0.60766 0.63136 0.12828 0.0
H729 H 0.57888 0.6375 0.14989 0.0
C730 C 0.61523 0.73587 0.0826 0.0
N731 N 0.60422 0.73627 0.10753 0.0
N732 N 0.61633 0.71812 0.12297 0.0
C733 C 0.63594 0.706 0.10826 0.0
C734 C 0.63567 0.71662 0.08225 0.0
C735 C 0.60495 0.75233 0.05928 0.0
H736 H 0.61074 0.77385 0.06235 0.0
H737 H 0.58249 0.75126 0.0586 0.0
H738 H 0.61331 0.7452 0.03968 0.0
O739 O 0.59479 0.7743 0.15521 0.0
O740 O 0.6041 0.74215 0.18355 0.0
H741 H 0.65999 0.68912 0.14042 0.0
H742 H 0.67463 0.68574 0.10707 0.0
C743 C 0.65543 0.68527 0.1188 0.0
H744 H 0.64652 0.66478 0.11658 0.0
H745 H 0.64526 0.69761 0.20169 0.0
O746 O 0.56598 0.78617 0.09579 0.0
C747 C 0.58996 0.76294 0.17779 0.0
Co748 Co 0.23877 0.58643 0.11586 0.0
Co749 Co 0.28346 0.6123 0.15422 0.0
C750 C 0.2849 0.55372 0.13919 0.0
O751 O 0.2627 0.5558 0.12615 0.0
O752 O 0.29604 0.57428 0.15017 0.0
C753 C 0.20529 0.54891 0.08741 0.0
O754 O 0.21196 0.53295 0.10765 0.0
C755 C 0.3381 0.6306 0.16613 0.0
C756 C 0.33174 0.66256 0.19681 0.0
C757 C 0.35166 0.64999 0.18143 0.0
N758 N 0.31157 0.63182 0.17214 0.0
N759 N 0.30789 0.65067 0.19079 0.0
C760 C 0.34935 0.61324 0.14391 0.0
H761 H 0.33308 0.60724 0.1296 0.0
H762 H 0.36553 0.6241 0.13267 0.0
H763 H 0.35811 0.59456 0.15287 0.0
C764 C 0.26131 0.62605 0.07752 0.0
N765 N 0.25995 0.61485 0.10233 0.0
N766 N 0.27656 0.62761 0.1189 0.0
C767 C 0.28869 0.64783 0.10497 0.0
C768 C 0.27962 0.64734 0.07835 0.0
C769 C 0.24707 0.61484 0.05319 0.0
H770 H 0.22517 0.61979 0.05457 0.0
H771 H 0.24905 0.59243 0.05294 0.0
H772 H 0.25533 0.62321 0.03404 0.0
O773 O 0.22055 0.60166 0.14769 0.0
O774 O 0.25109 0.60914 0.17845 0.0
H775 H 0.30323 0.67215 0.13802 0.0
H776 H 0.30839 0.68682 0.10488 0.0
C777 C 0.30844 0.66765 0.11667 0.0
H778 H 0.32916 0.65905 0.11572 0.0
H779 H 0.28901 0.6561 0.19863 0.0
O780 O 0.2131 0.57347 0.08779 0.0
C781 C 0.23031 0.59591 0.17077 0.0
Co782 Co 0.75374 0.42077 0.12598 0.0
Co783 Co 0.70489 0.39455 0.15767 0.0
C784 C 0.69937 0.44936 0.13674 0.0
O785 O 0.72383 0.44797 0.12856 0.0
O786 O 0.68778 0.42902 0.14751 0.0
C787 C 0.76609 0.44068 0.07603 0.0
O788 O 0.74032 0.43412 0.07421 0.0
C789 C 0.65161 0.37504 0.1757 0.0
C790 C 0.65982 0.33171 0.18311 0.0
C791 C 0.6389 0.35036 0.18082 0.0
N792 N 0.6785 0.37086 0.17387 0.0
N793 N 0.68333 0.34503 0.17908 0.0
C794 C 0.6387 0.40236 0.17321 0.0
H795 H 0.65169 0.41772 0.18325 0.0
H796 H 0.63678 0.40779 0.15148 0.0
H797 H 0.61838 0.40272 0.18287 0.0
C798 C 0.74788 0.37135 0.09349 0.0
N799 N 0.74134 0.3865 0.11516 0.0
N800 N 0.7189 0.37719 0.12604 0.0
C801 C 0.70926 0.35703 0.11026 0.0
C802 C 0.72745 0.35254 0.08913 0.0
C803 C 0.77357 0.3744 0.07756 0.0
H804 H 0.78971 0.38337 0.0904 0.0
H805 H 0.77019 0.38781 0.0599 0.0
H806 H 0.78031 0.35438 0.06979 0.0
O807 O 0.76981 0.41875 0.16175 0.0
O808 O 0.7335 0.40523 0.18503 0.0
H809 H 0.68163 0.327 0.1248 0.0
H810 H 0.67272 0.34076 0.09229 0.0
C811 C 0.68112 0.34581 0.1125 0.0
H812 H 0.6675 0.36071 0.12233 0.0
H813 H 0.70248 0.33611 0.17799 0.0
O814 O 0.77849 0.43625 0.09818 0.0
C815 C 0.75787 0.41413 0.18417 0.0
H816 H 0.97123 0.29354 0.37774 0.0
H817 H 0.92683 0.28459 0.30292 0.0
H818 H 0.0103 0.31103 0.35251 0.0
H819 H 0.96587 0.30286 0.27774 0.0
H820 H 0.03396 0.3864 0.28649 0.0
H821 H 0.99508 0.36171 0.30498 0.0
H822 H 0.0362 0.28589 0.29081 0.0
H823 H 0.07506 0.31062 0.27143 0.0
C824 C 0.97006 0.29488 0.35586 0.0
C825 C 0.94611 0.28789 0.34219 0.0
C826 C 0.9923 0.30487 0.34153 0.0
C827 C 0.99086 0.30803 0.31336 0.0
C828 C 0.96729 0.30031 0.29949 0.0
C829 C 0.94507 0.2901 0.31384 0.0
C830 C 0.03444 0.36445 0.28675 0.0
C831 C 0.05745 0.35033 0.27774 0.0
C832 C 0.01232 0.35042 0.29735 0.0
C833 C 0.01291 0.32209 0.29915 0.0
C834 C 0.03548 0.3078 0.28943 0.0
C835 C 0.05761 0.32188 0.27858 0.0
H836 H 0.67391 0.94668 0.35095 0.0
H837 H 0.75609 0.96776 0.32955 0.0
H838 H 0.65735 0.987 0.32768 0.0
H839 H 0.7395 0.00869 0.30639 0.0
H840 H 0.68798 0.0638 0.24537 0.0
H841 H 0.70865 0.02309 0.26564 0.0
H842 H 0.66258 0.03659 0.33884 0.0
H843 H 0.64189 0.07651 0.3186 0.0
C844 C 0.68837 0.95983 0.34093 0.0
C845 C 0.71622 0.95427 0.34197 0.0
C846 C 0.67895 0.983 0.32784 0.0
C847 C 0.6972 0.00105 0.31548 0.0
C848 C 0.72505 0.99504 0.31572 0.0
C849 C 0.73451 0.97183 0.32904 0.0
C850 C 0.6826 0.05803 0.26585 0.0
C851 C 0.66347 0.07314 0.2805 0.0
C852 C 0.69442 0.03494 0.27745 0.0
C853 C 0.68692 0.02661 0.30366 0.0
C854 C 0.66843 0.04234 0.31847 0.0
C855 C 0.65682 0.06533 0.30701 0.0
H856 H 0.0543 0.6771 0.37132 0.0
H857 H 0.04443 0.75049 0.32503 0.0
H858 H 0.01574 0.65689 0.34814 0.0
H859 H 0.00653 0.72991 0.30033 0.0
H860 H 0.92261 0.69338 0.28142 0.0
H861 H 0.96127 0.7155 0.30306 0.0
H862 H 0.00264 0.63825 0.30712 0.0
H863 H 0.96305 0.61615 0.28777 0.0
C864 C 0.04383 0.68876 0.35593 0.0
C865 C 0.05207 0.71521 0.34983 0.0
C866 C 0.02193 0.67714 0.34238 0.0
C867 C 0.0081 0.69156 0.32199 0.0
C868 C 0.01643 0.71826 0.31606 0.0
C869 C 0.03815 0.73005 0.33004 0.0
C870 C 0.93992 0.68122 0.28729 0.0
C871 C 0.93969 0.65304 0.28354 0.0
C872 C 0.96227 0.6939 0.29932 0.0
C873 C 0.98504 0.67865 0.30732 0.0
C874 C 0.98522 0.6506 0.30205 0.0
C875 C 0.96271 0.63793 0.29055 0.0
H876 H 0.30851 0.92655 0.25467 0.0
H877 H 0.35845 0.91886 0.32605 0.0
H878 H 0.28908 0.96873 0.27296 0.0
H879 H 0.33883 0.96012 0.34449 0.0
H880 H 0.32648 0.04956 0.35383 0.0
H881 H 0.34271 0.00855 0.33167 0.0
H882 H 0.26023 0.98599 0.31267 0.0
H883 H 0.244 0.02776 0.33441 0.0
C884 C 0.31507 0.93379 0.27432 0.0
C885 C 0.33487 0.91962 0.28901 0.0
C886 C 0.30393 0.95773 0.28481 0.0
C887 C 0.31273 0.96782 0.30998 0.0
C888 C 0.332 0.95308 0.32486 0.0
C889 C 0.34298 0.92931 0.31446 0.0
C890 C 0.31187 0.0361 0.34449 0.0
C891 C 0.28403 0.04166 0.34582 0.0
C892 C 0.32111 0.01251 0.33206 0.0
C893 C 0.30269 0.99395 0.32075 0.0
C894 C 0.27484 -1e-05 0.32119 0.0
C895 C 0.26557 0.02368 0.33374 0.0
H896 H 0.92491 0.66786 0.64012 0.0
H897 H 0.94246 0.74424 0.67873 0.0
H898 H 0.96413 0.64749 0.66185 0.0
H899 H 0.98162 0.72369 0.70156 0.0
H900 H 0.06734 0.6854 0.70783 0.0
H901 H 0.026 0.70723 0.69142 0.0
H902 H 0.98211 0.63222 0.70316 0.0
H903 H 0.02379 0.61017 0.71761 0.0
C904 C 0.93694 0.68007 0.65385 0.0
C905 C 0.93071 0.70746 0.65805 0.0
C906 C 0.95938 0.66842 0.6664 0.0
C907 C 0.97602 0.68386 0.68366 0.0
C908 C 0.96942 0.71128 0.68819 0.0
C909 C 0.94698 0.72302 0.67536 0.0
C910 C 0.04878 0.67369 0.70682 0.0
C911 C 0.04873 0.64612 0.71381 0.0
C912 C 0.02502 0.68623 0.69775 0.0
C913 C 0.00069 0.67145 0.69578 0.0
C914 C 0.00055 0.64411 0.70391 0.0
C915 C 0.02435 0.63154 0.71258 0.0
H916 H 0.32014 0.03918 0.75478 0.0
H917 H 0.34366 0.05407 0.6719 0.0
H918 H 0.2997 0.99579 0.74117 0.0
H919 H 0.32298 0.01136 0.65826 0.0
H920 H 0.32346 0.92062 0.65123 0.0
H921 H 0.33882 0.96392 0.66915 0.0
H922 H 0.2623 0.97417 0.71048 0.0
H923 H 0.24704 0.93008 0.69275 0.0
C924 C 0.32031 0.03341 0.73361 0.0
C925 C 0.33342 0.04976 0.71435 0.0
C926 C 0.30865 0.00872 0.72585 0.0
C927 C 0.3102 0.00012 0.69877 0.0
C928 C 0.32193 0.01734 0.67935 0.0
C929 C 0.33344 0.04191 0.68707 0.0
C930 C 0.31017 0.9318 0.66467 0.0
C931 C 0.2841 0.92217 0.67065 0.0
C932 C 0.31879 0.95672 0.67461 0.0
C933 C 0.30151 0.97258 0.69073 0.0
C934 C 0.27592 0.96233 0.69797 0.0
C935 C 0.2672 0.93727 0.68785 0.0
H936 H 0.93663 0.35311 0.66658 0.0
H937 H 0.95278 0.32113 0.7463 0.0
H938 H 0.97847 0.33269 0.64978 0.0
H939 H 0.99501 0.30059 0.7295 0.0
H940 H 0.05429 0.24758 0.67399 0.0
H941 H 0.01202 0.26461 0.69432 0.0
H942 H 0.02787 0.34368 0.66023 0.0
H943 H 0.06971 0.32668 0.64003 0.0
C944 C 0.94895 0.34124 0.68035 0.0
C945 C 0.94162 0.33855 0.70765 0.0
C946 C 0.97299 0.32982 0.67085 0.0
C947 C 0.99009 0.31535 0.68845 0.0
C948 C 0.98215 0.31163 0.71554 0.0
C949 C 0.95812 0.32333 0.72513 0.0
C950 C 0.04879 0.26868 0.67133 0.0
C951 C 0.06511 0.28591 0.65563 0.0
C952 C 0.02474 0.27839 0.68289 0.0
C953 C 0.0166 0.30535 0.67853 0.0
C954 C 0.0335 0.32272 0.66358 0.0
C955 C 0.05756 0.31311 0.6523 0.0
H956 H 0.64298 0.93813 0.66042 0.0
H957 H 0.67015 0.95849 0.74096 0.0
H958 H 0.6637 0.97954 0.64284 0.0
H959 H 0.69102 0.00022 0.72334 0.0
H960 H 0.7475 0.0565 0.66836 0.0
H961 H 0.72949 0.01464 0.68879 0.0
H962 H 0.65205 0.02973 0.65082 0.0
H963 H 0.66996 0.07123 0.63067 0.0
C964 C 0.65371 0.95138 0.67426 0.0
C965 C 0.65503 0.94532 0.70197 0.0
C966 C 0.66536 0.97511 0.66428 0.0
C967 C 0.67877 0.99308 0.6818 0.0
C968 C 0.68085 0.9866 0.70944 0.0
C969 C 0.66886 0.96293 0.71951 0.0
C970 C 0.72659 0.05084 0.66474 0.0
C971 C 0.70999 0.06692 0.64817 0.0
C972 C 0.71631 0.02707 0.67639 0.0
C973 C 0.68948 0.01897 0.67118 0.0
C974 C 0.67287 0.03541 0.65493 0.0
C975 C 0.68301 0.05921 0.64361 0.0
H976 H 0.32623 0.25816 0.04292 0.0
H977 H 0.3533 0.33901 0.06242 0.0
H978 H 0.3053 0.27534 0.00109 0.0
H979 H 0.33236 0.35617 0.02103 0.0
H980 H 0.326 0.36822 0.92975 0.0
H981 H 0.34388 0.3485 0.97142 0.0
H982 H 0.2671 0.30882 0.98569 0.0
H983 H 0.24919 0.3287 0.94356 0.0
C984 C 0.32745 0.27959 0.03829 0.0
C985 C 0.3413 0.29734 0.05568 0.0
C986 C 0.31542 0.2894 0.01456 0.0
C987 C 0.31742 0.31701 0.00783 0.0
C988 C 0.33078 0.33475 0.02563 0.0
C989 C 0.34254 0.32501 0.04937 0.0
C990 C 0.31308 0.35504 0.94168 0.0
C991 C 0.28631 0.34988 0.93368 0.0
C992 C 0.3232 0.34396 0.96556 0.0
C993 C 0.30676 0.32737 0.98183 0.0
C994 C 0.28015 0.32152 0.97342 0.0
C995 C 0.26991 0.33289 0.94952 0.0
H996 H 0.25312 0.67777 0.04047 0.0
H997 H 0.3324 0.64908 0.06376 0.0
H998 H 0.27277 0.69879 -0.00027 0.0
H999 H 0.35199 0.66991 0.02334 0.0
H1000 H 0.36774 0.67623 0.93222 0.0
H1001 H 0.34567 0.65856 0.97286 0.0
H1002 H 0.30858 0.73664 0.98675 0.0
H1003 H 0.33096 0.75438 0.94581 0.0
C1004 C 0.27475 0.67627 0.03693 0.0
C1005 C 0.29135 0.66195 0.05506 0.0
C1006 C 0.28596 0.6883 0.01381 0.0
C1007 C 0.31382 0.68575 0.0084 0.0
C1008 C 0.33041 0.67193 0.02695 0.0
C1009 C 0.31928 0.66023 0.05013 0.0
C1010 C 0.35458 0.68947 0.9438 0.0
C1011 C 0.35085 0.71655 0.93604 0.0
C1012 C 0.34217 0.67947 0.9671 0.0
C1013 C 0.32562 0.69633 0.98297 0.0
C1014 C 0.32121 0.72326 0.97477 0.0
C1015 C 0.33396 0.73339 0.95151 0.0
H1016 H 0.65099 0.325 0.93907 0.0
H1017 H 0.67837 0.24378 0.95635 0.0
H1018 H 0.67501 0.3418 0.97848 0.0
H1019 H 0.70321 0.26066 0.9961 0.0
H1020 H 0.70887 0.30059 0.08298 0.0
H1021 H 0.69307 0.2794 0.04095 0.0
H1022 H 0.71899 0.35004 0.99602 0.0
H1023 H 0.73247 0.37174 0.03781 0.0
C1024 C 0.66282 0.31087 0.95103 0.0
C1025 C 0.6632 0.28322 0.94464 0.0
C1026 C 0.67664 0.32045 0.97362 0.0
C1027 C 0.69131 0.30261 0.99032 0.0
C1028 C 0.692 0.27487 0.98369 0.0
C1029 C 0.678 0.26524 0.96097 0.0
C1030 C 0.71139 0.31133 0.064 0.0
C1031 C 0.72204 0.33772 0.06366 0.0
C1032 C 0.7026 0.29915 0.03993 0.0
C1033 C 0.70452 0.31318 0.01517 0.0
C1034 C 0.7168 0.33886 0.01479 0.0
C1035 C 0.72509 0.35112 0.03876 0.0
H1036 H 0.66819 0.74441 0.04717 0.0
H1037 H 0.63542 0.66509 0.06407 0.0
H1038 H 0.69081 0.72636 0.00654 0.0
H1039 H 0.65772 0.64713 0.02368 0.0
H1040 H 0.67094 0.63593 0.93265 0.0
H1041 H 0.65048 0.6571 0.97245 0.0
H1042 H 0.72862 0.68909 0.99564 0.0
H1043 H 0.74917 0.66765 0.95558 0.0
C1044 C 0.666 0.72315 0.04216 0.0
C1045 C 0.65022 0.70603 0.0585 0.0
C1046 C 0.67893 0.71285 0.01913 0.0
C1047 C 0.6758 0.68545 0.01204 0.0
C1048 C 0.66021 0.66838 0.02864 0.0
C1049 C 0.64765 0.67856 0.05176 0.0
C1050 C 0.68363 0.64778 0.9461 0.0
C1051 C 0.71152 0.65028 0.94128 0.0
C1052 C 0.67201 0.6597 0.96888 0.0
C1053 C 0.68807 0.67454 0.98707 0.0
C1054 C 0.71587 0.6778 0.98179 0.0
C1055 C 0.72759 0.66553 0.95909 0.0
H1056 H 0.19064 0.56022 0.15785 0.0
H1057 H 0.26615 0.56599 0.20188 0.0
H1058 H 0.18871 0.51215 0.16729 0.0
H1059 H 0.26489 0.51725 0.21037 0.0
H1060 H 0.22048 0.44434 0.25414 0.0
H1061 H 0.24087 0.48542 0.23678 0.0
H1062 H 0.20684 0.46893 0.15781 0.0
H1063 H 0.18484 0.42857 0.1759 0.0
C1064 C 0.20697 0.55115 0.16941 0.0
C1065 C 0.22858 0.567 0.17892 0.0
C1066 C 0.20617 0.52337 0.17442 0.0
C1067 C 0.22703 0.51049 0.18902 0.0
C1068 C 0.2485 0.52641 0.199 0.0
C1069 C 0.24912 0.55441 0.19426 0.0
C1070 C 0.21848 0.44863 0.2327 0.0
C1071 C 0.2002 0.43382 0.21661 0.0
C1072 C 0.23011 0.47247 0.22272 0.0
C1073 C 0.2242 0.4813 0.19627 0.0
C1074 C 0.21061 0.46338 0.17871 0.0
C1075 C 0.19843 0.43992 0.18889 0.0
H1076 H 0.42892 0.1952 0.16744 0.0
H1077 H 0.4305 0.27317 0.20732 0.0
H1078 H 0.47686 0.18961 0.17634 0.0
H1079 H 0.47905 0.26814 0.21516 0.0
H1080 H 0.55475 0.22451 0.25393 0.0
H1081 H 0.51195 0.24407 0.24006 0.0
H1082 H 0.51971 0.20549 0.16184 0.0
H1083 H 0.56185 0.18433 0.17656 0.0
C1084 C 0.43953 0.21116 0.17815 0.0
C1085 C 0.42592 0.23477 0.18624 0.0
C1086 C 0.46721 0.20822 0.18282 0.0
C1087 C 0.48214 0.22889 0.19558 0.0
C1088 C 0.46827 0.25191 0.20507 0.0
C1089 C 0.44037 0.25472 0.20068 0.0
C1090 C 0.54802 0.22114 0.23331 0.0
C1091 C 0.56109 0.20204 0.21667 0.0
C1092 C 0.52323 0.2323 0.22538 0.0
C1093 C 0.51166 0.22507 0.2004 0.0
C1094 C 0.52745 0.21024 0.18182 0.0
C1095 C 0.55187 0.19854 0.19001 0.0
H1096 H 0.73014 0.44106 0.2234 0.0
H1097 H 0.81117 0.42079 0.19732 0.0
H1098 H 0.74684 0.48307 0.24285 0.0
H1099 H 0.82809 0.4625 0.21754 0.0
H1100 H 0.82892 0.55261 0.19327 0.0
H1101 H 0.81792 0.50478 0.19359 0.0
H1102 H 0.77532 0.51456 0.26943 0.0
H1103 H 0.78621 0.56297 0.26906 0.0
C1104 C 0.75181 0.44466 0.22338 0.0
C1105 C 0.76924 0.42815 0.20799 0.0
C1106 C 0.76139 0.46896 0.23439 0.0
C1107 C 0.78855 0.47664 0.23054 0.0
C1108 C 0.80682 0.45752 0.2199 0.0
C1109 C 0.79722 0.43341 0.20867 0.0
C1110 C 0.81733 0.54465 0.21013 0.0
C1111 C 0.80885 0.56164 0.2313 0.0
C1112 C 0.8113 0.51708 0.21051 0.0
C1113 C 0.79637 0.50568 0.23195 0.0
C1114 C 0.78709 0.52271 0.25279 0.0
C1115 C 0.79321 0.55046 0.25245 0.0
H1116 H 0.44073 0.76528 0.26503 0.0
H1117 H 0.42039 0.79689 0.18609 0.0
H1118 H 0.48226 0.74654 0.24707 0.0
H1119 H 0.4612 0.77623 0.16741 0.0
H1120 H 0.5509 0.79924 0.16428 0.0
H1121 H 0.50313 0.7978 0.17486 0.0
H1122 H 0.51523 0.72424 0.22102 0.0
H1123 H 0.56369 0.72631 0.21115 0.0
C1124 C 0.44419 0.76667 0.2434 0.0
C1125 C 0.42796 0.78356 0.22716 0.0
C1126 C 0.46827 0.75595 0.23304 0.0
C1127 C 0.47588 0.76134 0.20612 0.0
C1128 C 0.45659 0.77307 0.18864 0.0
C1129 C 0.43292 0.78447 0.19918 0.0
C1130 C 0.54344 0.7827 0.17666 0.0
C1131 C 0.56115 0.76269 0.18645 0.0
C1132 C 0.51583 0.78156 0.18237 0.0
C1133 C 0.50499 0.76042 0.19818 0.0
C1134 C 0.52279 0.74074 0.20867 0.0
C1135 C 0.55062 0.74201 0.20311 0.0
H1136 H 0.18105 0.42127 0.80458 0.0
H1137 H 0.25915 0.43704 0.76845 0.0
H1138 H 0.16291 0.46175 0.78287 0.0
H1139 H 0.24169 0.47824 0.74832 0.0
H1140 H 0.2052 0.55958 0.72483 0.0
H1141 H 0.21424 0.51085 0.72505 0.0
H1142 H 0.17472 0.50426 0.80295 0.0
H1143 H 0.165 0.55225 0.80233 0.0
C1144 C 0.19396 0.43257 0.79087 0.0
C1145 C 0.22175 0.42662 0.78909 0.0
C1146 C 0.18375 0.45609 0.77884 0.0
C1147 C 0.20135 0.47409 0.76538 0.0
C1148 C 0.22769 0.46521 0.75909 0.0
C1149 C 0.2377 0.44131 0.77057 0.0
C1150 C 0.19856 0.5477 0.74205 0.0
C1151 C 0.18395 0.55981 0.76341 0.0
C1152 C 0.20357 0.51972 0.74205 0.0
C1153 C 0.19446 0.5034 0.76357 0.0
C1154 C 0.181 0.51585 0.7854 0.0
C1155 C 0.17585 0.54358 0.78532 0.0
H1156 H 0.56138 0.18652 0.82847 0.0
H1157 H 0.55588 0.26519 0.79042 0.0
H1158 H 0.51805 0.17392 0.80851 0.0
H1159 H 0.5121 0.25295 0.77124 0.0
H1160 H 0.43977 0.20568 0.7292 0.0
H1161 H 0.48343 0.22434 0.74263 0.0
H1162 H 0.47318 0.19018 0.82258 0.0
H1163 H 0.42996 0.17069 0.8088 0.0
C1164 C 0.55147 0.20068 0.8149 0.0
C1165 C 0.56176 0.22695 0.81141 0.0
C1166 C 0.52634 0.19376 0.80404 0.0
C1167 C 0.51109 0.21303 0.78956 0.0
C1168 C 0.52315 0.2379 0.78279 0.0
C1169 C 0.54849 0.24473 0.79346 0.0
C1170 C 0.44616 0.20332 0.75007 0.0
C1171 C 0.43176 0.18627 0.76785 0.0
C1172 C 0.47144 0.21366 0.75761 0.0
C1173 C 0.48227 0.20748 0.78317 0.0
C1174 C 0.46583 0.19415 0.80228 0.0
C1175 C 0.44076 0.18359 0.79467 0.0
H1176 H 0.81523 0.55141 0.83597 0.0
H1177 H 0.73813 0.55722 0.79482 0.0
H1178 H 0.81743 0.50359 0.82528 0.0
H1179 H 0.73963 0.50875 0.78519 0.0
H1180 H 0.78167 0.43603 0.73935 0.0
H1181 H 0.76253 0.47729 0.75767 0.0
H1182 H 0.79992 0.46021 0.83501 0.0
H1183 H 0.82068 0.4197 0.81586 0.0
C1184 C 0.79862 0.54239 0.82478 0.0
C1185 C 0.77642 0.55813 0.81658 0.0
C1186 C 0.7996 0.51476 0.81906 0.0
C1187 C 0.7783 0.50195 0.80503 0.0
C1188 C 0.75635 0.51784 0.79612 0.0
C1189 C 0.75557 0.5457 0.80154 0.0
C1190 C 0.78468 0.44027 0.76068 0.0
C1191 C 0.80342 0.42517 0.77594 0.0
C1192 C 0.7738 0.46421 0.77121 0.0
C1193 C 0.78093 0.47286 0.7974 0.0
C1194 C 0.79519 0.45479 0.81428 0.0
C1195 C 0.80663 0.43124 0.80353 0.0
H1196 H 0.43619 0.82142 0.81326 0.0
H1197 H 0.44669 0.74325 0.77546 0.0
H1198 H 0.47714 0.83765 0.79091 0.0
H1199 H 0.48848 0.7586 0.75492 0.0
H1200 H 0.57001 0.79194 0.72767 0.0
H1201 H 0.52137 0.78353 0.73109 0.0
H1202 H 0.51998 0.82521 0.80813 0.0
H1203 H 0.5679 0.83473 0.80402 0.0
C1204 C 0.44656 0.80811 0.79921 0.0
C1205 C 0.43883 0.78085 0.79685 0.0
C1206 C 0.47035 0.81717 0.78684 0.0
C1207 C 0.487 0.79885 0.77264 0.0
C1208 C 0.47656 0.77313 0.76622 0.0
C1209 C 0.45233 0.76434 0.77795 0.0
C1210 C 0.55929 0.79918 0.7454 0.0
C1211 C 0.57272 0.81464 0.76529 0.0
C1212 C 0.53135 0.79447 0.74727 0.0
C1213 C 0.51644 0.80455 0.76938 0.0
C1214 C 0.53039 0.81831 0.79009 0.0
C1215 C 0.55807 0.82334 0.78803 0.0
H1216 H 0.1886 0.15461 0.44224 0.0
H1217 H 0.26574 0.19505 0.43268 0.0
H1218 H 0.18724 0.16817 0.48935 0.0
H1219 H 0.2648 0.20801 0.48044 0.0
H1220 H 0.22236 0.25775 0.55133 0.0
H1221 H 0.24091 0.2378 0.51041 0.0
H1222 H 0.20685 0.16028 0.53284 0.0
H1223 H 0.18687 0.18084 0.57306 0.0
C1224 C 0.20539 0.16627 0.45027 0.0
C1225 C 0.22739 0.17336 0.43371 0.0
C1226 C 0.20486 0.17371 0.47749 0.0
C1227 C 0.22633 0.18853 0.48903 0.0
C1228 C 0.24802 0.19645 0.47229 0.0
C1229 C 0.24845 0.18914 0.44485 0.0
C1230 C 0.22005 0.23612 0.54831 0.0
C1231 C 0.20255 0.22099 0.56497 0.0
C1232 C 0.23056 0.22466 0.52462 0.0
C1233 C 0.22418 0.19776 0.51768 0.0
C1234 C 0.21105 0.18141 0.53704 0.0
C1235 C 0.20005 0.19302 0.56038 0.0
H1236 H 0.81394 0.19704 0.57659 0.0
H1237 H 0.73592 0.23046 0.55559 0.0
H1238 H 0.83386 0.21857 0.53685 0.0
H1239 H 0.75517 0.25034 0.51507 0.0
H1240 H 0.79384 0.2734 0.43555 0.0
H1241 H 0.78313 0.27393 0.48386 0.0
H1242 H 0.82661 0.19848 0.49391 0.0
H1243 H 0.83804 0.1985 0.44631 0.0
C1244 C 0.80135 0.21015 0.56425 0.0
C1245 C 0.77326 0.21141 0.56869 0.0
C1246 C 0.8126 0.22203 0.54114 0.0
C1247 C 0.79576 0.23472 0.5219 0.0
C1248 C 0.76872 0.24026 0.52908 0.0
C1249 C 0.75764 0.22897 0.5526 0.0
C1250 C 0.80107 0.25691 0.44812 0.0
C1251 C 0.81701 0.23596 0.43702 0.0
C1252 C 0.79506 0.25733 0.47587 0.0
C1253 C 0.80446 0.23659 0.49305 0.0
C1254 C 0.81984 0.21541 0.48169 0.0
C1255 C 0.82601 0.21512 0.45416 0.0
H1256 H 0.77614 0.74061 0.55174 0.0
H1257 H 0.81278 0.81659 0.57466 0.0
H1258 H 0.75743 0.7616 0.51149 0.0
H1259 H 0.79242 0.83835 0.53527 0.0
H1260 H 0.80902 0.84658 0.44451 0.0
H1261 H 0.81025 0.8333 0.49163 0.0
H1262 H 0.73415 0.79079 0.48195 0.0
H1263 H 0.73365 0.80314 0.43408 0.0
C1264 C 0.77868 0.76228 0.54913 0.0
C1265 C 0.79647 0.77685 0.56593 0.0
C1266 C 0.76805 0.77437 0.52581 0.0
C1267 C 0.77454 0.80141 0.51938 0.0
C1268 C 0.78812 0.81713 0.53895 0.0
C1269 C 0.79935 0.80485 0.56185 0.0
C1270 C 0.79253 0.83437 0.45237 0.0
C1271 C 0.77129 0.82598 0.43543 0.0
C1272 C 0.79294 0.82712 0.47965 0.0
C1273 C 0.772 0.81134 0.49095 0.0
C1274 C 0.75067 0.80286 0.474 0.0
C1275 C 0.75046 0.80985 0.44649 0.0
H1276 H 0.26338 0.77006 0.55929 0.0
H1277 H 0.18497 0.80093 0.58265 0.0
H1278 H 0.24453 0.75387 0.51695 0.0
H1279 H 0.16552 0.78321 0.54088 0.0
H1280 H 0.16006 0.80841 0.45192 0.0
H1281 H 0.17255 0.80619 0.49926 0.0
H1282 H 0.2165 0.73181 0.48458 0.0
H1283 H 0.20466 0.73456 0.43663 0.0
C1284 C 0.24169 0.77174 0.55623 0.0
C1285 C 0.22579 0.7875 0.57385 0.0
C1286 C 0.23085 0.76261 0.5317 0.0
C1287 C 0.2038 0.76855 0.52489 0.0
C1288 C 0.18678 0.7795 0.545 0.0
C1289 C 0.19775 0.78916 0.56922 0.0
C1290 C 0.17235 0.79152 0.45872 0.0
C1291 C 0.18103 0.77154 0.44044 0.0
C1292 C 0.17922 0.78999 0.48605 0.0
C1293 C 0.19502 0.76841 0.49602 0.0
C1294 C 0.20425 0.74866 0.47767 0.0
C1295 C 0.19752 0.75031 0.45013 0.0
H1296 H 0.11025 0.2829 0.49433 0.0
H1297 H 0.16724 0.34016 0.52836 0.0
H1298 H 0.11927 0.30072 0.44934 0.0
H1299 H 0.17583 0.35836 0.4832 0.0
H1300 H 0.20961 0.35742 0.39557 0.0
H1301 H 0.19869 0.34257 0.44174 0.0
H1302 H 0.11369 0.33974 0.42054 0.0
H1303 H 0.12483 0.35351 0.37448 0.0
C1304 C 0.1243 0.29966 0.49232 0.0
C1305 C 0.13811 0.30999 0.515 0.0
C1306 C 0.12945 0.30992 0.46647 0.0
C1307 C 0.14849 0.33079 0.46265 0.0
C1308 C 0.16142 0.34194 0.48544 0.0
C1309 C 0.15625 0.3317 0.51135 0.0
C1310 C 0.18866 0.3536 0.40095 0.0
C1311 C 0.16799 0.3572 0.38181 0.0
C1312 C 0.18234 0.34536 0.42736 0.0
C1313 C 0.15526 0.34027 0.4349 0.0
C1314 C 0.13473 0.34344 0.41543 0.0
C1315 C 0.14106 0.35162 0.38914 0.0
H1316 H 0.68501 0.19016 0.36981 0.0
H1317 H 0.60243 0.17755 0.39586 0.0
H1318 H 0.70116 0.17801 0.41507 0.0
H1319 H 0.61846 0.16463 0.44083 0.0
H1320 H 0.65826 0.17118 0.52523 0.0
H1321 H 0.64054 0.18335 0.48093 0.0
H1322 H 0.70371 0.1363 0.44268 0.0
H1323 H 0.7218 0.12433 0.48707 0.0
C1324 C 0.67034 0.18504 0.38533 0.0
C1325 C 0.64255 0.1844 0.37936 0.0
C1326 C 0.67956 0.17773 0.41108 0.0
C1327 C 0.66109 0.1699 0.43135 0.0
C1328 C 0.63319 0.1705 0.42564 0.0
C1329 C 0.62401 0.17774 0.39989 0.0
C1330 C 0.66816 0.16302 0.50744 0.0
C1331 C 0.69152 0.1468 0.50976 0.0
C1332 C 0.65798 0.17005 0.48201 0.0
C1333 C 0.67093 0.16107 0.45833 0.0
C1334 C 0.69362 0.14396 0.4606 0.0
C1335 C 0.70378 0.13685 0.48605 0.0
H1336 H 0.88907 0.71598 0.49509 0.0
H1337 H 0.83576 0.65597 0.53045 0.0
H1338 H 0.87983 0.6976 0.45025 0.0
H1339 H 0.82625 0.63797 0.48552 0.0
H1340 H 0.82995 0.60183 0.39948 0.0
H1341 H 0.84462 0.61511 0.44494 0.0
H1342 H 0.83866 0.69944 0.42198 0.0
H1343 H 0.82487 0.68615 0.37651 0.0
C1344 C 0.87576 0.69859 0.49339 0.0
C1345 C 0.86288 0.68768 0.51635 0.0
C1346 C 0.87028 0.68822 0.46767 0.0
C1347 C 0.8519 0.6667 0.46435 0.0
C1348 C 0.84051 0.65456 0.48744 0.0
C1349 C 0.84594 0.66495 0.51319 0.0
C1350 C 0.83204 0.62317 0.40415 0.0
C1351 C 0.82673 0.64297 0.3844 0.0
C1352 C 0.84023 0.63077 0.43019 0.0
C1353 C 0.84323 0.6583 0.43687 0.0
C1354 C 0.83717 0.67805 0.41725 0.0
C1355 C 0.8289 0.67046 0.39134 0.0
H1356 H 0.28431 0.87745 0.50618 0.0
H1357 H 0.34682 0.82725 0.54167 0.0
H1358 H 0.30183 0.86755 0.46133 0.0
H1359 H 0.36484 0.81795 0.49662 0.0
H1360 H 0.36455 0.77876 0.41148 0.0
H1361 H 0.35061 0.79151 0.45741 0.0
H1362 H 0.33843 0.87405 0.43055 0.0
H1363 H 0.351 0.86091 0.38477 0.0
C1364 C 0.30219 0.8648 0.50449 0.0
C1365 C 0.31401 0.85299 0.52756 0.0
C1366 C 0.31229 0.85914 0.4787 0.0
C1367 C 0.33457 0.84168 0.47534 0.0
C1368 C 0.34731 0.83103 0.49849 0.0
C1369 C 0.33716 0.83664 0.52434 0.0
C1370 C 0.3589 0.79958 0.41558 0.0
C1371 C 0.35953 0.81902 0.39487 0.0
C1372 C 0.35119 0.80698 0.44185 0.0
C1373 C 0.34373 0.83391 0.44774 0.0
C1374 C 0.344 0.85316 0.42677 0.0
C1375 C 0.35156 0.84572 0.4006 0.0
H1376 H 0.13495 0.74726 0.5054 0.0
H1377 H 0.15322 0.66944 0.46955 0.0
H1378 H 0.1459 0.72906 0.55013 0.0
H1379 H 0.16342 0.6512 0.51443 0.0
H1380 H 0.13883 0.62859 0.60506 0.0
H1381 H 0.13232 0.64507 0.55916 0.0
H1382 H 0.1913 0.70811 0.57308 0.0
H1383 H 0.19931 0.6905 0.61883 0.0
C1384 C 0.141 0.72622 0.50706 0.0
C1385 C 0.14309 0.70973 0.48391 0.0
C1386 C 0.14751 0.71594 0.53261 0.0
C1387 C 0.15559 0.68883 0.53555 0.0
C1388 C 0.15723 0.67219 0.51257 0.0
C1389 C 0.15133 0.68263 0.48695 0.0
C1390 C 0.15151 0.64504 0.5981 0.0
C1391 C 0.17053 0.65745 0.61534 0.0
C1392 C 0.14736 0.65478 0.57189 0.0
C1393 C 0.16144 0.67768 0.56267 0.0
C1394 C 0.18026 0.69034 0.57982 0.0
C1395 C 0.18487 0.68022 0.60588 0.0
H1396 H 0.29881 0.17735 0.62204 0.0
H1397 H 0.37991 0.16074 0.59365 0.0
H1398 H 0.28135 0.17046 0.57619 0.0
H1399 H 0.3625 0.15248 0.54831 0.0
H1400 H 0.32594 0.1602 0.46469 0.0
H1401 H 0.34236 0.17327 0.5093 0.0
H1402 H 0.27442 0.13213 0.54635 0.0
H1403 H 0.25761 0.11961 0.50175 0.0
C1404 C 0.31289 0.17228 0.60597 0.0
C1405 C 0.34059 0.16881 0.61151 0.0
C1406 C 0.30289 0.16807 0.57981 0.0
C1407 C 0.32047 0.16047 0.55868 0.0
C1408 C 0.34838 0.15833 0.56407 0.0
C1409 C 0.35833 0.16263 0.59016 0.0
C1410 C 0.31457 0.1538 0.48234 0.0
C1411 C 0.29066 0.13853 0.47963 0.0
C1412 C 0.324 0.1613 0.50793 0.0
C1413 C 0.30975 0.15369 0.53141 0.0
C1414 C 0.28572 0.1386 0.52868 0.0
C1415 C 0.27628 0.13112 0.5031 0.0
H1416 H 0.87151 0.26912 0.49896 0.0
H1417 H 0.83014 0.3375 0.46295 0.0
H1418 H 0.8593 0.28526 0.54376 0.0
H1419 H 0.81749 0.35342 0.508 0.0
H1420 H 0.82838 0.38825 0.59433 0.0
H1421 H 0.83738 0.37273 0.54836 0.0
H1422 H 0.82021 0.29038 0.57291 0.0
H1423 H 0.81257 0.30586 0.61928 0.0
C1424 C 0.85995 0.28771 0.50056 0.0
C1425 C 0.85203 0.30214 0.47728 0.0
C1426 C 0.85265 0.29678 0.52631 0.0
C1427 C 0.83727 0.32055 0.52949 0.0
C1428 C 0.82956 0.33516 0.50626 0.0
C1429 C 0.83683 0.32604 0.48043 0.0
C1430 C 0.82684 0.36681 0.58998 0.0
C1431 C 0.82066 0.34815 0.61058 0.0
C1432 C 0.83158 0.35795 0.56352 0.0
C1433 C 0.82994 0.33025 0.55704 0.0
C1434 C 0.82228 0.31178 0.57738 0.0
C1435 C 0.81763 0.32066 0.60386 0.0
H1436 H 0.73272 0.88946 0.49948 0.0
H1437 H 0.67664 0.83285 0.46293 0.0
H1438 H 0.7147 0.87824 0.54413 0.0
H1439 H 0.65876 0.82169 0.50767 0.0
H1440 H 0.65959 0.78802 0.59642 0.0
H1441 H 0.67658 0.79884 0.55092 0.0
H1442 H 0.67002 0.88426 0.56886 0.0
H1443 H 0.65338 0.87347 0.61408 0.0
C1444 C 0.71642 0.87481 0.50092 0.0
C1445 C 0.70595 0.86225 0.47761 0.0
C1446 C 0.70611 0.86841 0.52648 0.0
C1447 C 0.68534 0.84912 0.52928 0.0
C1448 C 0.6749 0.8365 0.50605 0.0
C1449 C 0.68498 0.84311 0.48045 0.0
C1450 C 0.66157 0.80906 0.59041 0.0
C1451 C 0.65457 0.8299 0.60843 0.0
C1452 C 0.67118 0.81524 0.56447 0.0
C1453 C 0.67449 0.84238 0.55641 0.0
C1454 C 0.66771 0.86318 0.57458 0.0
C1455 C 0.65785 0.857 0.60033 0.0
H1456 H 0.37777 0.11189 0.34962 0.0
H1457 H 0.39448 0.19773 0.35018 0.0
H1458 H 0.4248 0.10265 0.33723 0.0
H1459 H 0.44146 0.18865 0.33696 0.0
H1460 H 0.52933 0.1632 0.33522 0.0
H1461 H 0.48395 0.16839 0.35412 0.0
H1462 H 0.45346 0.10915 0.29737 0.0
H1463 H 0.4988 0.10365 0.27867 0.0
C1464 C 0.39169 0.12875 0.34755 0.0
C1465 C 0.38279 0.15549 0.35156 0.0
C1466 C 0.41851 0.12348 0.34012 0.0
C1467 C 0.43693 0.14489 0.33633 0.0
C1468 C 0.42792 0.17168 0.34025 0.0
C1469 C 0.40103 0.17692 0.34759 0.0
C1470 C 0.51307 0.1509 0.32708 0.0
C1471 C 0.5177 0.13316 0.30525 0.0
C1472 C 0.48702 0.15407 0.33777 0.0
C1473 C 0.46506 0.13947 0.327 0.0
C1474 C 0.46996 0.12062 0.30622 0.0
C1475 C 0.49599 0.11751 0.29545 0.0
H1476 H 0.85715 0.49677 0.25087 0.0
H1477 H 0.84374 0.5284 0.33134 0.0
H1478 H 0.84769 0.45132 0.26704 0.0
H1479 H 0.83594 0.48263 0.34806 0.0
H1480 H 0.79722 0.40086 0.36557 0.0
H1481 H 0.80541 0.4469 0.34898 0.0
H1482 H 0.86389 0.4153 0.29165 0.0
H1483 H 0.85408 0.36949 0.3072 0.0
C1484 C 0.85268 0.49393 0.27217 0.0
C1485 C 0.8512 0.51619 0.28982 0.0
C1486 C 0.84734 0.46776 0.28153 0.0
C1487 C 0.841 0.46306 0.30895 0.0
C1488 C 0.84014 0.48538 0.32671 0.0
C1489 C 0.84492 0.51165 0.3172 0.0
C1490 C 0.81156 0.40401 0.34924 0.0
C1491 C 0.8248 0.38192 0.33734 0.0
C1492 C 0.81654 0.43033 0.33988 0.0
C1493 C 0.83536 0.43503 0.31887 0.0
C1494 C 0.84879 0.41263 0.30734 0.0
C1495 C 0.84334 0.38636 0.3163 0.0
H1496 H 0.60727 0.79633 0.3506 0.0
H1497 H 0.62255 0.88223 0.34455 0.0
H1498 H 0.55986 0.80389 0.33792 0.0
H1499 H 0.5751 0.89 0.33262 0.0
H1500 H 0.49844 0.88497 0.2779 0.0
H1501 H 0.54486 0.88062 0.29423 0.0
H1502 H 0.51797 0.82474 0.35603 0.0
H1503 H 0.4716 0.82871 0.33954 0.0
C1504 C 0.60034 0.81683 0.34684 0.0
C1505 C 0.61825 0.83876 0.34919 0.0
C1506 C 0.57323 0.82122 0.3398 0.0
C1507 C 0.56368 0.8476 0.33458 0.0
C1508 C 0.58182 0.86947 0.33655 0.0
C1509 C 0.60887 0.86507 0.34369 0.0
C1510 C 0.50232 0.87207 0.29523 0.0
C1511 C 0.48128 0.85708 0.30729 0.0
C1512 C 0.52895 0.86963 0.30463 0.0
C1513 C 0.53511 0.8521 0.32623 0.0
C1514 C 0.51391 0.83805 0.33905 0.0
C1515 C 0.48728 0.84056 0.32974 0.0
H1516 H 0.16795 0.4746 0.33399 0.0
H1517 H 0.11198 0.5103 0.27673 0.0
H1518 H 0.17622 0.51928 0.35358 0.0
H1519 H 0.12056 0.55479 0.29607 0.0
H1520 H 0.12356 0.62705 0.35213 0.0
H1521 H 0.11339 0.58103 0.33756 0.0
H1522 H 0.19892 0.56201 0.3382 0.0
H1523 H 0.20898 0.60819 0.35366 0.0
C1524 C 0.15715 0.49187 0.3258 0.0
C1525 C 0.13931 0.48888 0.30378 0.0
C1526 C 0.16211 0.51747 0.33686 0.0
C1527 C 0.14916 0.54051 0.32625 0.0
C1528 C 0.13066 0.53737 0.30484 0.0
C1529 C 0.12581 0.51186 0.2937 0.0
C1530 C 0.14013 0.61286 0.34978 0.0
C1531 C 0.16699 0.62084 0.35471 0.0
C1532 C 0.13433 0.58662 0.3411 0.0
C1533 C 0.15534 0.56789 0.33688 0.0
C1534 C 0.18229 0.5759 0.34174 0.0
C1535 C 0.18808 0.60228 0.35038 0.0
H1536 H 0.37921 0.85441 0.67188 0.0
H1537 H 0.40463 0.77368 0.65011 0.0
H1538 H 0.42493 0.86483 0.68755 0.0
H1539 H 0.45062 0.78382 0.66637 0.0
H1540 H 0.50265 0.86586 0.73699 0.0
H1541 H 0.45702 0.85303 0.72338 0.0
H1542 H 0.4893 0.81301 0.65258 0.0
H1543 H 0.53518 0.82541 0.66642 0.0
C1544 C 0.39471 0.83892 0.67044 0.0
C1545 C 0.3887 0.81348 0.65924 0.0
C1546 C 0.42081 0.84476 0.67967 0.0
C1547 C 0.44149 0.82522 0.67804 0.0
C1548 C 0.43523 0.79944 0.66751 0.0
C1549 C 0.40896 0.79356 0.65838 0.0
C1550 C 0.5001 0.85452 0.71839 0.0
C1551 C 0.52265 0.84697 0.70263 0.0
C1552 C 0.47388 0.84714 0.7106 0.0
C1553 C 0.46951 0.83207 0.68685 0.0
C1554 C 0.49202 0.82438 0.67114 0.0
C1555 C 0.51829 0.83176 0.67893 0.0
H1556 H 0.16921 0.53105 0.66271 0.0
H1557 H 0.12816 0.49535 0.73142 0.0
H1558 H 0.1801 0.48581 0.64589 0.0
H1559 H 0.13935 0.45033 0.71474 0.0
H1560 H 0.13575 0.37609 0.65854 0.0
H1561 H 0.12623 0.42133 0.67601 0.0
H1562 H 0.20864 0.44538 0.65855 0.0
H1563 H 0.21797 0.39987 0.6406 0.0
C1564 C 0.16236 0.51363 0.67415 0.0
C1565 C 0.14751 0.51692 0.69827 0.0
C1566 C 0.16886 0.48771 0.66465 0.0
C1567 C 0.16054 0.46453 0.67897 0.0
C1568 C 0.14573 0.4678 0.70306 0.0
C1569 C 0.13932 0.49366 0.71261 0.0
C1570 C 0.15172 0.39115 0.65819 0.0
C1571 C 0.17739 0.38482 0.64766 0.0
C1572 C 0.14638 0.41694 0.66846 0.0
C1573 C 0.16664 0.43697 0.66851 0.0
C1574 C 0.19253 0.43046 0.65841 0.0
C1575 C 0.19792 0.40448 0.6483 0.0
H1576 H 0.45853 0.15097 0.6491 0.0
H1577 H 0.49724 0.09743 0.70671 0.0
H1578 H 0.50286 0.16317 0.63084 0.0
H1579 H 0.5413 0.11015 0.68899 0.0
H1580 H 0.58659 0.2058 0.63322 0.0
H1581 H 0.54132 0.18996 0.64628 0.0
H1582 H 0.57188 0.108 0.65186 0.0
H1583 H 0.617 0.12412 0.64024 0.0
C1584 C 0.4764 0.14143 0.65757 0.0
C1585 C 0.47427 0.12331 0.6795 0.0
C1586 C 0.50184 0.14869 0.64731 0.0
C1587 C 0.52568 0.13797 0.6587 0.0
C1588 C 0.52341 0.11869 0.67957 0.0
C1589 C 0.49804 0.11139 0.68978 0.0
C1590 C 0.58345 0.18443 0.63721 0.0
C1591 C 0.60504 0.16608 0.63501 0.0
C1592 C 0.55754 0.17528 0.6444 0.0
C1593 C 0.55286 0.14762 0.6498 0.0
C1594 C 0.57469 0.12941 0.6479 0.0
C1595 C 0.60051 0.13859 0.64086 0.0
H1596 H 0.8287 0.59416 0.60005 0.0
H1597 H 0.8156 0.61699 0.68342 0.0
H1598 H 0.84314 0.54901 0.61459 0.0
H1599 H 0.82944 0.5717 0.698 0.0
H1600 H 0.88531 0.50138 0.71665 0.0
H1601 H 0.87255 0.54567 0.69901 0.0
H1602 H 0.82532 0.50724 0.63618 0.0
H1603 H 0.83822 0.46279 0.65361 0.0
C1604 C 0.82883 0.58944 0.62148 0.0
C1605 C 0.82148 0.60913 0.64067 0.0
C1606 C 0.83692 0.56357 0.62978 0.0
C1607 C 0.83784 0.55695 0.65745 0.0
C1608 C 0.82949 0.5764 0.67656 0.0
C1609 C 0.82125 0.60219 0.66823 0.0
C1610 C 0.87258 0.50229 0.69879 0.0
C1611 C 0.86265 0.47847 0.68668 0.0
C1612 C 0.86504 0.52771 0.68887 0.0
C1613 C 0.84754 0.52993 0.66651 0.0
C1614 C 0.83882 0.50618 0.65345 0.0
C1615 C 0.84624 0.4807 0.66346 0.0
H1616 H 0.34313 0.40513 0.21387 0.0
H1617 H 0.34254 0.38778 0.1282 0.0
H1618 H 0.32749 0.45144 0.2045 0.0
H1619 H 0.3274 0.43389 0.11878 0.0
H1620 H 0.2679 0.5057 0.11751 0.0
H1621 H 0.28498 0.46043 0.12723 0.0
H1622 H 0.34467 0.49432 0.18149 0.0
H1623 H 0.32758 0.53981 0.17191 0.0
C1624 C 0.33996 0.41138 0.19306 0.0
C1625 C 0.34466 0.39322 0.17171 0.0
C1626 C 0.33115 0.43781 0.18769 0.0
C1627 C 0.32638 0.44626 0.1609 0.0
C1628 C 0.33086 0.42791 0.13961 0.0
C1629 C 0.33987 0.40166 0.14498 0.0
C1630 C 0.28484 0.5036 0.13132 0.0
C1631 C 0.29652 0.52643 0.14374 0.0
C1632 C 0.29462 0.47764 0.13686 0.0
C1633 C 0.31618 0.47389 0.15506 0.0
C1634 C 0.3279 0.49665 0.16751 0.0
C1635 C 0.31825 0.52268 0.16182 0.0
H1636 H 0.35283 0.6247 0.866 0.0
H1637 H 0.36399 0.60442 0.78172 0.0
H1638 H 0.33662 0.57901 0.87514 0.0
H1639 H 0.34667 0.55862 0.79057 0.0
H1640 H 0.33932 0.47152 0.82276 0.0
H1641 H 0.35893 0.51629 0.81475 0.0
H1642 H 0.29683 0.55232 0.86491 0.0
H1643 H 0.27763 0.50782 0.87338 0.0
C1644 C 0.35207 0.61027 0.84949 0.0
C1645 C 0.36032 0.6177 0.82332 0.0
C1646 C 0.34246 0.58423 0.85463 0.0
C1647 C 0.3405 0.56516 0.8336 0.0
C1648 C 0.34842 0.57274 0.80727 0.0
C1649 C 0.35809 0.59891 0.80214 0.0
C1650 C 0.33007 0.48897 0.83234 0.0
C1651 C 0.30693 0.48608 0.84873 0.0
C1652 C 0.34115 0.51461 0.82753 0.0
C1653 C 0.32936 0.53781 0.83911 0.0
C1654 C 0.30658 0.53481 0.85593 0.0
C1655 C 0.29551 0.50927 0.86071 0.0
H1656 H 0.40703 0.35689 0.79084 0.0
H1657 H 0.37773 0.35242 0.87305 0.0
H1658 H 0.45251 0.34415 0.80649 0.0
H1659 H 0.42295 0.34106 0.8889 0.0
H1660 H 0.49841 0.28797 0.90087 0.0
H1661 H 0.45394 0.30422 0.88767 0.0
H1662 H 0.49094 0.36132 0.83249 0.0
H1663 H 0.53568 0.3445 0.84516 0.0
C1664 C 0.41043 0.35339 0.81224 0.0
C1665 C 0.38914 0.35626 0.83083 0.0
C1666 C 0.43644 0.34641 0.82127 0.0
C1667 C 0.44146 0.34193 0.84903 0.0
C1668 C 0.41986 0.34429 0.86742 0.0
C1669 C 0.39398 0.35111 0.85838 0.0
C1670 C 0.4972 0.30439 0.88633 0.0
C1671 C 0.5207 0.31477 0.87396 0.0
C1672 C 0.4716 0.31373 0.87874 0.0
C1673 C 0.46883 0.33383 0.85872 0.0
C1674 C 0.49236 0.34539 0.84753 0.0
C1675 C 0.51803 0.336 0.85509 0.0
H1676 H 0.67468 0.52789 0.83015 0.0
H1677 H 0.74344 0.49342 0.87225 0.0
H1678 H 0.65735 0.48239 0.82142 0.0
H1679 H 0.72623 0.44808 0.8632 0.0
H1680 H 0.64895 0.39526 0.7888 0.0
H1681 H 0.66853 0.44058 0.79516 0.0
H1682 H 0.68753 0.42037 0.87822 0.0
H1683 H 0.66856 0.3752 0.87157 0.0
C1684 C 0.68608 0.51065 0.83758 0.0
C1685 C 0.71026 0.51433 0.85222 0.0
C1686 C 0.67627 0.48459 0.83235 0.0
C1687 C 0.69039 0.46169 0.84169 0.0
C1688 C 0.71469 0.46536 0.85609 0.0
C1689 C 0.72452 0.49137 0.86129 0.0
C1690 C 0.65739 0.40066 0.80833 0.0
C1691 C 0.65672 0.38217 0.8299 0.0
C1692 C 0.66844 0.42653 0.81203 0.0
C1693 C 0.67937 0.43408 0.83726 0.0
C1694 C 0.67936 0.41515 0.85853 0.0
C1695 C 0.66822 0.38944 0.85485 0.0
H1696 H 0.51324 0.72158 0.88683 0.0
H1697 H 0.47602 0.66217 0.83423 0.0
H1698 H 0.55771 0.70274 0.87652 0.0
H1699 H 0.52056 0.64363 0.82375 0.0
H1700 H 0.60556 0.60466 0.82842 0.0
H1701 H 0.56035 0.61973 0.84213 0.0
H1702 H 0.58643 0.7031 0.8357 0.0
H1703 H 0.63172 0.68799 0.82283 0.0
C1704 C 0.51445 0.70426 0.8734 0.0
C1705 C 0.49101 0.69353 0.86123 0.0
C1706 C 0.53998 0.69364 0.8673 0.0
C1707 C 0.54266 0.67199 0.84898 0.0
C1708 C 0.51915 0.66027 0.83799 0.0
C1709 C 0.4936 0.67093 0.84402 0.0
C1710 C 0.60162 0.62618 0.83014 0.0
C1711 C 0.62224 0.64516 0.82503 0.0
C1712 C 0.57571 0.63481 0.83778 0.0
C1713 C 0.56995 0.66259 0.84041 0.0
C1714 C 0.5904 0.68154 0.83444 0.0
C1715 C 0.61623 0.67291 0.82673 0.0
H1716 H 0.65098 0.46273 0.16066 0.0
H1717 H 0.71744 0.49696 0.11488 0.0
H1718 H 0.63386 0.50811 0.1697 0.0
H1719 H 0.69991 0.54226 0.12341 0.0
H1720 H 0.6853 0.61622 0.17663 0.0
H1721 H 0.69849 0.57046 0.16374 0.0
H1722 H 0.61428 0.54958 0.15146 0.0
H1723 H 0.60105 0.59516 0.16554 0.0
C1724 C 0.66161 0.47985 0.15199 0.0
C1725 C 0.68584 0.47617 0.1374 0.0
C1726 C 0.65174 0.50591 0.15716 0.0
C1727 C 0.66583 0.52882 0.14773 0.0
C1728 C 0.68898 0.52504 0.13156 0.0
C1729 C 0.69889 0.49903 0.12646 0.0
C1730 C 0.66959 0.6018 0.17139 0.0
C1731 C 0.64218 0.60943 0.17159 0.0
C1732 C 0.67716 0.57568 0.16363 0.0
C1733 C 0.65746 0.55652 0.15604 0.0
C1734 C 0.62995 0.56391 0.15705 0.0
C1735 C 0.62238 0.5901 0.16483 0.0
H1736 H 0.37142 0.70134 0.18522 0.0
H1737 H 0.39679 0.61841 0.17346 0.0
H1738 H 0.41794 0.71659 0.17796 0.0
H1739 H 0.4429 0.63366 0.1647 0.0
H1740 H 0.52798 0.66849 0.1736 0.0
H1741 H 0.48241 0.65344 0.18517 0.0
H1742 H 0.44876 0.7206 0.14011 0.0
H1743 H 0.49428 0.73605 0.12907 0.0
C1744 C 0.38693 0.68636 0.18107 0.0
C1745 C 0.3803 0.65873 0.17914 0.0
C1746 C 0.41352 0.69512 0.17661 0.0
C1747 C 0.43406 0.6764 0.17023 0.0
C1748 C 0.4276 0.64864 0.16952 0.0
C1749 C 0.40104 0.63991 0.1741 0.0
C1750 C 0.51087 0.67995 0.16598 0.0
C1751 C 0.51482 0.70337 0.15021 0.0
C1752 C 0.48472 0.67129 0.17261 0.0
C1753 C 0.46191 0.68581 0.1636 0.0
C1754 C 0.46588 0.70914 0.14769 0.0
C1755 C 0.49201 0.71781 0.14108 0.0
H1756 H 0.46294 0.3405 0.16067 0.0
H1757 H 0.49405 0.2604 0.14348 0.0
H1758 H 0.50887 0.35582 0.17146 0.0
H1759 H 0.53968 0.27562 0.15501 0.0
H1760 H 0.61208 0.30885 0.20568 0.0
H1761 H 0.56517 0.29413 0.19824 0.0
H1762 H 0.55332 0.36025 0.14227 0.0
H1763 H 0.60014 0.37395 0.14829 0.0
C1764 C 0.47951 0.32618 0.15919 0.0
C1765 C 0.47483 0.29928 0.15106 0.0
C1766 C 0.50575 0.33494 0.16542 0.0
C1767 C 0.52771 0.31684 0.1642 0.0
C1768 C 0.52305 0.28991 0.15633 0.0
C1769 C 0.49694 0.28131 0.1495 0.0
C1770 C 0.59935 0.32042 0.19204 0.0
C1771 C 0.60971 0.34326 0.17845 0.0
C1772 C 0.57258 0.31195 0.18775 0.0
C1773 C 0.55561 0.32632 0.16995 0.0
C1774 C 0.56581 0.34923 0.15659 0.0
C1775 C 0.59264 0.35735 0.16044 0.0
H1776 H 0.05478 0.51605 0.23285 0.0
H1777 H 0.04512 0.44591 0.18153 0.0
H1778 H 0.01424 0.53605 0.21371 0.0
H1779 H 0.0039 0.4661 0.16201 0.0
H1780 H 0.94436 0.57274 0.1795 0.0
H1781 H 0.99009 0.55469 0.17473 0.0
H1782 H 0.95891 0.47337 0.18372 0.0
H1783 H 0.91317 0.49129 0.18784 0.0
C1784 C 0.04424 0.50521 0.21693 0.0
C1785 C 0.05284 0.47938 0.20883 0.0
C1786 C 0.02112 0.5168 0.2057 0.0
C1787 C 0.00579 0.50268 0.18629 0.0
C1788 C 0.01529 0.47742 0.17697 0.0
C1789 C 0.03886 0.46593 0.18801 0.0
C1790 C 0.94713 0.55096 0.17953 0.0
C1791 C 0.92526 0.53349 0.18489 0.0
C1792 C 0.97335 0.54062 0.17683 0.0
C1793 C 0.97819 0.51267 0.1796 0.0
C1794 C 0.9559 0.49501 0.18153 0.0
C1795 C 0.92963 0.50534 0.18408 0.0
H1796 H 0.51394 0.07109 0.19204 0.0
H1797 H 0.56633 0.01537 0.23448 0.0
H1798 H 0.4836 0.03342 0.18025 0.0
H1799 H 0.53665 0.97781 0.22211 0.0
H1800 H 0.48116 0.91289 0.19587 0.0
H1801 H 0.51188 0.95 0.18326 0.0
H1802 H 0.45663 0.00763 0.21909 0.0
H1803 H 0.42658 0.97064 0.23233 0.0
C1804 C 0.51952 0.05065 0.19783 0.0
C1805 C 0.54223 0.046 0.21434 0.0
C1806 C 0.5022 0.02918 0.19113 0.0
C1807 C 0.50783 0.00277 0.20028 0.0
C1808 C 0.53199 0.99789 0.21452 0.0
C1809 C 0.54887 0.01938 0.22177 0.0
C1810 C 0.47518 0.9336 0.20002 0.0
C1811 C 0.45171 0.93907 0.21515 0.0
C1812 C 0.49273 0.95476 0.1929 0.0
C1813 C 0.48659 0.98161 0.20024 0.0
C1814 C 0.4617 0.98717 0.2129 0.0
C1815 C 0.44458 0.96604 0.2206 0.0
H1816 H 0.05356 0.55998 0.81728 0.0
H1817 H 0.08112 0.4818 0.78909 0.0
H1818 H 0.00866 0.54112 0.82566 0.0
H1819 H 0.0362 0.46335 0.79595 0.0
H1820 H 0.95427 0.43188 0.80756 0.0
H1821 H 0.99856 0.44947 0.82065 0.0
H1822 H 0.97331 0.52994 0.79652 0.0
H1823 H 0.92887 0.51257 0.78498 0.0
C1824 C 0.05016 0.53865 0.81333 0.0
C1825 C 0.07075 0.5225 0.80208 0.0
C1826 C 0.02433 0.52786 0.81789 0.0
C1827 C 0.01845 0.50084 0.81087 0.0
C1828 C 0.03979 0.48418 0.80182 0.0
C1829 C 0.06568 0.49484 0.79769 0.0
C1830 C 0.95805 0.45344 0.80573 0.0
C1831 C 0.93824 0.47078 0.79486 0.0
C1832 C 0.98351 0.46353 0.81306 0.0
C1833 C 0.98987 0.49108 0.80918 0.0
C1834 C 0.96928 0.50867 0.80012 0.0
C1835 C 0.94371 0.49866 0.79326 0.0
H1836 H 0.57336 0.94861 0.81237 0.0
H1837 H 0.49459 0.91469 0.79462 0.0
H1838 H 0.55252 0.99269 0.82035 0.0
H1839 H 0.47404 0.95868 0.80076 0.0
H1840 H 0.4384 0.03899 0.80865 0.0
H1841 H 0.45992 0.99699 0.82332 0.0
H1842 H 0.53646 0.0255 0.79118 0.0
H1843 H 0.51531 0.06781 0.77831 0.0
C1844 C 0.55154 0.95048 0.81062 0.0
C1845 C 0.53569 0.92831 0.80239 0.0
C1846 C 0.53958 0.97581 0.81493 0.0
C1847 C 0.51162 0.97962 0.81049 0.0
C1848 C 0.49556 0.95678 0.80458 0.0
C1849 C 0.50743 0.93139 0.80084 0.0
C1850 C 0.45998 0.03644 0.80541 0.0
C1851 C 0.47509 0.05648 0.79198 0.0
C1852 C 0.47232 0.01229 0.81363 0.0
C1853 C 0.49989 0.0074 0.80797 0.0
C1854 C 0.51531 0.02839 0.79625 0.0
C1855 C 0.50309 0.05273 0.78859 0.0
H1856 H 0.25013 0.97194 0.56821 0.0
H1857 H 0.19167 0.92007 0.52885 0.0
H1858 H 0.23124 0.01113 0.54507 0.0
H1859 H 0.17281 0.95966 0.50507 0.0
H1860 H 0.19432 0.03098 0.4403 0.0
H1861 H 0.19488 0.9903 0.46841 0.0
H1862 H 0.18868 0.03978 0.54022 0.0
H1863 H 0.1882 0.0805 0.51228 0.0
C1864 C 0.23295 0.96902 0.55484 0.0
C1865 C 0.22247 0.94301 0.55013 0.0
C1866 C 0.22195 0.9915 0.54177 0.0
C1867 C 0.20047 0.98845 0.52334 0.0
C1868 C 0.18933 0.96253 0.51923 0.0
C1869 C 0.20004 0.93998 0.53284 0.0
C1870 C 0.19221 0.03318 0.46202 0.0
C1871 C 0.19193 0.05903 0.47408 0.0
C1872 C 0.19238 0.00983 0.47812 0.0
C1873 C 0.19234 0.01197 0.5065 0.0
C1874 C 0.18914 0.03763 0.51838 0.0
C1875 C 0.18881 0.06094 0.50233 0.0
H1876 H 0.0761 0.21265 0.48046 0.0
H1877 H 0.05005 0.18879 0.56054 0.0
H1878 H 0.0312 0.20339 0.46298 0.0
H1879 H 0.00522 0.17797 0.54277 0.0
H1880 H 0.94996 0.18573 0.43278 0.0
H1881 H 0.9948 0.17595 0.45108 0.0
H1882 H 0.96845 0.20439 0.5297 0.0
H1883 H 0.92352 0.21261 0.51175 0.0
C1884 C 0.06099 0.20455 0.49419 0.0
C1885 C 0.06648 0.20193 0.52198 0.0
C1886 C 0.03514 0.19901 0.48411 0.0
C1887 C 0.01424 0.19029 0.5015 0.0
C1888 C 0.02053 0.18537 0.52889 0.0
C1889 C 0.0463 0.19136 0.53907 0.0
C1890 C 0.95362 0.18917 0.45414 0.0
C1891 C 0.93333 0.20032 0.47072 0.0
C1892 C 0.97941 0.18378 0.46462 0.0
C1893 C 0.9856 0.18991 0.49178 0.0
C1894 C 0.96459 0.19913 0.50877 0.0
C1895 C 0.93872 0.20406 0.4984 0.0
H1896 H 0.79069 0.08617 0.47842 0.0
H1897 H 0.81487 0.06087 0.55862 0.0
H1898 H 0.80175 0.04175 0.46092 0.0
H1899 H 0.82764 0.01658 0.54083 0.0
H1900 H 0.79637 0.9337 0.50996 0.0
H1901 H 0.80319 0.97882 0.52782 0.0
H1902 H 0.82977 0.00621 0.44886 0.0
H1903 H 0.82124 0.96109 0.43064 0.0
C1904 C 0.79928 0.07137 0.49218 0.0
C1905 C 0.80142 0.07688 0.52 0.0
C1906 C 0.80586 0.04578 0.48208 0.0
C1907 C 0.81522 0.02517 0.49948 0.0
C1908 C 0.81974 0.0316 0.52692 0.0
C1909 C 0.81265 0.05709 0.53712 0.0
C1910 C 0.80423 0.94918 0.4965 0.0
C1911 C 0.80776 0.94394 0.46877 0.0
C1912 C 0.80836 0.97519 0.50682 0.0
C1913 C 0.81659 0.99654 0.48974 0.0
C1914 C 0.82263 0.99056 0.4625 0.0
C1915 C 0.81799 0.96461 0.45206 0.0
H1916 H 0.92182 0.78804 0.48424 0.0
H1917 H 0.94689 0.81266 0.56435 0.0
H1918 H 0.96567 0.80077 0.46641 0.0
H1919 H 0.99054 0.82719 0.54624 0.0
H1920 H 0.04498 0.8234 0.43525 0.0
H1921 H -0.00019 0.83023 0.45408 0.0
H1922 H 0.02924 0.80481 0.53269 0.0
H1923 H 0.07435 0.7998 0.51424 0.0
C1924 C 0.93645 0.79703 0.49792 0.0
C1925 C 0.93108 0.79889 0.52578 0.0
C1926 C 0.96169 0.80461 0.48763 0.0
C1927 C 0.98207 0.81472 0.50488 0.0
C1928 C 0.97573 0.81877 0.53242 0.0
C1929 C 0.95062 0.81064 0.54281 0.0
C1930 C 0.04187 0.82009 0.45672 0.0
C1931 C 0.06311 0.81066 0.47316 0.0
C1932 C 0.0159 0.82373 0.46751 0.0
C1933 C 0.01049 0.81742 0.49483 0.0
C1934 C 0.03238 0.81012 0.51164 0.0
C1935 C 0.05841 0.80704 0.50098 0.0
H1936 H 0.48107 0.21773 0.93194 0.0
H1937 H 0.55844 0.18909 0.96121 0.0
H1938 H 0.46038 0.20645 0.97489 0.0
H1939 H 0.53739 0.176 0.00396 0.0
H1940 H 0.50294 0.20649 0.08562 0.0
H1941 H 0.52326 0.19959 0.04163 0.0
H1942 H 0.44475 0.1783 0.00873 0.0
H1943 H 0.42414 0.18707 0.05274 0.0
C1944 C 0.4935 0.20816 0.9473 0.0
C1945 C 0.52148 0.20478 0.94339 0.0
C1946 C 0.48155 0.20142 0.97203 0.0
C1947 C 0.49721 0.19062 0.99332 0.0
C1948 C 0.52479 0.185 0.98841 0.0
C1949 C 0.53687 0.1923 0.96382 0.0
C1950 C 0.49006 0.19976 0.06916 0.0
C1951 C 0.46184 0.1979 0.07252 0.0
C1952 C 0.50179 0.19558 0.04378 0.0
C1953 C 0.48565 0.1889 0.02122 0.0
C1954 C 0.45775 0.18429 0.02535 0.0
C1955 C 0.44593 0.18904 0.05066 0.0
H1956 H 0.48871 0.79494 0.07723 0.0
H1957 H 0.57002 0.8164 0.05276 0.0
H1958 H 0.47269 0.80287 0.03163 0.0
H1959 H 0.55371 0.82602 0.00715 0.0
H1960 H 0.52507 0.78898 0.92593 0.0
H1961 H 0.54155 0.79872 0.97104 0.0
H1962 H 0.4621 0.82825 0.9937 0.0
H1963 H 0.44524 0.81684 0.94871 0.0
C1964 C 0.50303 0.80228 0.0623 0.0
C1965 C 0.53073 0.80452 0.06849 0.0
C1966 C 0.49378 0.80705 0.036 0.0
C1967 C 0.51194 0.81465 0.01532 0.0
C1968 C 0.53924 0.81941 0.02226 0.0
C1969 C 0.54859 0.81414 0.0485 0.0
C1970 C 0.51122 0.79806 0.94035 0.0
C1971 C 0.48373 0.80167 0.93391 0.0
C1972 C 0.52075 0.80389 0.96633 0.0
C1973 C 0.50311 0.81392 0.9864 0.0
C1974 C 0.47613 0.81982 0.9791 0.0
C1975 C 0.46648 0.81349 0.95322 0.0
H1976 H 0.23955 0.51331 0.93139 0.0
H1977 H 0.18733 0.44465 0.9459 0.0
H1978 H 0.22224 0.53541 0.97164 0.0
H1979 H 0.16961 0.46697 0.98682 0.0
H1980 H 0.19026 0.57567 0.04124 0.0
H1981 H 0.1849 0.5559 0.99633 0.0
H1982 H 0.19255 0.47571 0.03067 0.0
H1983 H 0.19716 0.49537 0.07561 0.0
C1984 C 0.22377 0.50328 0.94293 0.0
C1985 C 0.2149 0.47725 0.93577 0.0
C1986 C 0.21361 0.51605 0.96591 0.0
C1987 C 0.19454 0.50295 0.98252 0.0
C1988 C 0.18437 0.47751 0.97444 0.0
C1989 C 0.19435 0.46481 0.95103 0.0
C1990 C 0.18995 0.55379 0.03933 0.0
C1991 C 0.19486 0.53711 0.06189 0.0
C1992 C 0.18692 0.54247 0.01358 0.0
C1993 C 0.18895 0.51427 0.00985 0.0
C1994 C 0.19085 0.4975 0.0328 0.0
C1995 C 0.19371 0.50882 0.0586 0.0
H1996 H 0.75434 0.43063 0.02362 0.0
H1997 H 0.80873 0.47643 0.07461 0.0
H1998 H 0.77257 0.45306 0.98375 0.0
H1999 H 0.82697 0.49943 0.03428 0.0
H2000 H 0.80346 0.55931 0.95978 0.0
H2001 H 0.8037 0.53301 0.00162 0.0
H2002 H 0.8148 0.4595 0.95554 0.0
H2003 H 0.81443 0.48564 0.91365 0.0
C2004 C 0.77051 0.44527 0.02622 0.0
C2005 C 0.77999 0.452 0.05215 0.0
C2006 C 0.78115 0.45794 0.00335 0.0
C2007 C 0.80126 0.47794 0.0059 0.0
C2008 C 0.81149 0.48405 0.03179 0.0
C2009 C 0.80115 0.47089 0.05477 0.0
C2010 C 0.80679 0.53764 0.95858 0.0
C2011 C 0.80823 0.52449 0.93333 0.0
C2012 C 0.80707 0.52259 0.9826 0.0
C2013 C 0.80877 0.49418 0.98176 0.0
C2014 C 0.81306 0.48137 0.95671 0.0
C2015 C 0.81289 0.49638 0.93272 0.0
loop_
_geom_bond_atom_site_label_1
_geom_bond_atom_site_label_2
_geom_bond_distance
_geom_bond_site_symmetry_2
_ccdc_geom_bond_type
Co0 O3 1.970 . S
Co0 N17 1.989 . S
Co0 O25 1.967 . S
Co0 O32 1.920 . S
Co1 O4 1.966 . S
Co1 N10 2.022 . S
Co1 N18 1.993 . S
Co1 O26 1.941 . S
C2 O3 1.258 . S
C2 O4 1.263 . S
O3 Co0 1.970 . S
O3 C2 1.258 . S
O4 Co1 1.966 . S
O4 C2 1.263 . S
C5 O6 1.235 . S
C5 O32 1.289 . S
O6 C5 1.235 . S
C7 C9 1.400 . S
C7 N10 1.351 . S
C7 C12 1.501 . S
C8 C9 1.387 . S
C8 N11 1.341 . S
C9 C7 1.400 . S
C9 C8 1.387 . S
N10 Co1 2.022 . S
N10 C7 1.351 . S
N10 N11 1.365 . S
N11 C8 1.341 . S
N11 N10 1.365 . S
N11 H31 0.862 . S
C12 C7 1.501 . S
C12 H13 0.961 . S
C12 H14 0.961 . S
C12 H15 0.960 . S
H13 C12 0.961 . S
H14 C12 0.961 . S
H15 C12 0.960 . S
C16 N17 1.342 . S
C16 C20 1.401 . S
C16 C21 1.499 . S
N17 Co0 1.989 . S
N17 C16 1.342 . S
N17 N18 1.388 . S
N18 Co1 1.993 . S
N18 N17 1.388 . S
N18 C19 1.346 . S
C19 N18 1.346 . S
C19 C20 1.396 . S
C19 C29 1.510 . S
C20 C16 1.401 . S
C20 C19 1.396 . S
C21 C16 1.499 . S
C21 H22 0.959 . S
C21 H23 0.960 . S
C21 H24 0.961 . S
H22 C21 0.959 . S
H23 C21 0.960 . S
H24 C21 0.961 . S
O25 Co0 1.967 . S
O25 C33 1.258 . S
O26 Co1 1.941 . S
O26 C33 1.266 . S
H27 C29 0.959 . S
H28 C29 0.961 . S
C29 C19 1.510 . S
C29 H27 0.959 . S
C29 H28 0.961 . S
C29 H30 0.960 . S
H30 C29 0.960 . S
H31 N11 0.862 . S
O32 Co0 1.920 . S
O32 C5 1.289 . S
C33 O25 1.258 . S
C33 O26 1.266 . S
Co34 O37 1.970 . S
Co34 N51 1.989 . S
Co34 O59 1.967 . S
Co34 O66 1.920 . S
Co35 O38 1.966 . S
Co35 N44 2.022 . S
Co35 N52 1.993 . S
Co35 O60 1.941 . S
C36 O37 1.258 . S
C36 O38 1.263 . S
O37 Co34 1.970 . S
O37 C36 1.258 . S
O38 Co35 1.966 . S
O38 C36 1.263 . S
C39 O40 1.235 . S
C39 O66 1.289 . S
O40 C39 1.235 . S
C41 C43 1.400 . S
C41 N44 1.351 . S
C41 C46 1.501 . S
C42 C43 1.387 . S
C42 N45 1.341 . S
C43 C41 1.400 . S
C43 C42 1.387 . S
N44 Co35 2.022 . S
N44 C41 1.351 . S
N44 N45 1.365 . S
N45 C42 1.341 . S
N45 N44 1.365 . S
N45 H65 0.862 . S
C46 C41 1.501 . S
C46 H47 0.961 . S
C46 H48 0.961 . S
C46 H49 0.960 . S
H47 C46 0.961 . S
H48 C46 0.961 . S
H49 C46 0.960 . S
C50 N51 1.342 . S
C50 C54 1.401 . S
C50 C55 1.499 . S
N51 Co34 1.989 . S
N51 C50 1.342 . S
N51 N52 1.388 . S
N52 Co35 1.993 . S
N52 N51 1.388 . S
N52 C53 1.346 . S
C53 N52 1.346 . S
C53 C54 1.396 . S
C53 C63 1.510 . S
C54 C50 1.401 . S
C54 C53 1.396 . S
C55 C50 1.499 . S
C55 H56 0.959 . S
C55 H57 0.960 . S
C55 H58 0.961 . S
H56 C55 0.959 . S
H57 C55 0.960 . S
H58 C55 0.961 . S
O59 Co34 1.967 . S
O59 C67 1.258 . S
O60 Co35 1.941 . S
O60 C67 1.266 . S
H61 C63 0.959 . S
H62 C63 0.961 . S
C63 C53 1.510 . S
C63 H61 0.959 . S
C63 H62 0.961 . S
C63 H64 0.960 . S
H64 C63 0.960 . S
H65 N45 0.862 . S
O66 Co34 1.920 . S
O66 C39 1.289 . S
C67 O59 1.258 . S
C67 O60 1.266 . S
Co68 O71 1.970 . S
Co68 N85 1.989 . S
Co68 O93 1.967 . S
Co68 O100 1.920 . S
Co69 O72 1.966 . S
Co69 N78 2.022 . S
Co69 N86 1.993 . S
Co69 O94 1.941 . S
C70 O71 1.258 . S
C70 O72 1.263 . S
O71 Co68 1.970 . S
O71 C70 1.258 . S
O72 Co69 1.966 . S
O72 C70 1.263 . S
C73 O74 1.235 . S
C73 O100 1.289 . S
O74 C73 1.235 . S
C75 C77 1.400 . S
C75 N78 1.351 . S
C75 C80 1.501 . S
C76 C77 1.387 . S
C76 N79 1.341 . S
C77 C75 1.400 . S
C77 C76 1.387 . S
N78 Co69 2.022 . S
N78 C75 1.351 . S
N78 N79 1.365 . S
N79 C76 1.341 . S
N79 N78 1.365 . S
N79 H99 0.862 . S
C80 C75 1.501 . S
C80 H81 0.961 . S
C80 H82 0.961 . S
C80 H83 0.960 . S
H81 C80 0.961 . S
H82 C80 0.961 . S
H83 C80 0.960 . S
C84 N85 1.342 . S
C84 C88 1.401 . S
C84 C89 1.499 . S
N85 Co68 1.989 . S
N85 C84 1.342 . S
N85 N86 1.388 . S
N86 Co69 1.993 . S
N86 N85 1.388 . S
N86 C87 1.346 . S
C87 N86 1.346 . S
C87 C88 1.396 . S
C87 C97 1.510 . S
C88 C84 1.401 . S
C88 C87 1.396 . S
C89 C84 1.499 . S
C89 H90 0.959 . S
C89 H91 0.960 . S
C89 H92 0.961 . S
H90 C89 0.959 . S
H91 C89 0.960 . S
H92 C89 0.961 . S
O93 Co68 1.967 . S
O93 C101 1.258 . S
O94 Co69 1.941 . S
O94 C101 1.266 . S
H95 C97 0.959 . S
H96 C97 0.961 . S
C97 C87 1.510 . S
C97 H95 0.959 . S
C97 H96 0.961 . S
C97 H98 0.960 . S
H98 C97 0.960 . S
H99 N79 0.862 . S
O100 Co68 1.920 . S
O100 C73 1.289 . S
C101 O93 1.258 . S
C101 O94 1.266 . S
Co102 O105 1.970 . S
Co102 N119 1.989 . S
Co102 O127 1.967 . S
Co102 O134 1.920 . S
Co103 O106 1.966 . S
Co103 N112 2.022 . S
Co103 N120 1.993 . S
Co103 O128 1.941 . S
C104 O105 1.258 . S
C104 O106 1.263 . S
O105 Co102 1.970 . S
O105 C104 1.258 . S
O106 Co103 1.966 . S
O106 C104 1.263 . S
C107 O108 1.235 . S
C107 O134 1.289 . S
O108 C107 1.235 . S
C109 C111 1.400 . S
C109 N112 1.351 . S
C109 C114 1.501 . S
C110 C111 1.387 . S
C110 N113 1.341 . S
C111 C109 1.400 . S
C111 C110 1.387 . S
N112 Co103 2.022 . S
N112 C109 1.351 . S
N112 N113 1.365 . S
N113 C110 1.341 . S
N113 N112 1.365 . S
N113 H133 0.862 . S
C114 C109 1.501 . S
C114 H115 0.961 . S
C114 H116 0.961 . S
C114 H117 0.960 . S
H115 C114 0.961 . S
H116 C114 0.961 . S
H117 C114 0.960 . S
C118 N119 1.342 . S
C118 C122 1.401 . S
C118 C123 1.499 . S
N119 Co102 1.989 . S
N119 C118 1.342 . S
N119 N120 1.388 . S
N120 Co103 1.993 . S
N120 N119 1.388 . S
N120 C121 1.346 . S
C121 N120 1.346 . S
C121 C122 1.396 . S
C121 C131 1.510 . S
C122 C118 1.401 . S
C122 C121 1.396 . S
C123 C118 1.499 . S
C123 H124 0.959 . S
C123 H125 0.960 . S
C123 H126 0.961 . S
H124 C123 0.959 . S
H125 C123 0.960 . S
H126 C123 0.961 . S
O127 Co102 1.967 . S
O127 C135 1.258 . S
O128 Co103 1.941 . S
O128 C135 1.266 . S
H129 C131 0.959 . S
H130 C131 0.961 . S
C131 C121 1.510 . S
C131 H129 0.959 . S
C131 H130 0.961 . S
C131 H132 0.960 . S
H132 C131 0.960 . S
H133 N113 0.862 . S
O134 Co102 1.920 . S
O134 C107 1.289 . S
C135 O127 1.258 . S
C135 O128 1.266 . S
Co136 O139 1.970 . S
Co136 N153 1.989 . S
Co136 O161 1.967 . S
Co136 O168 1.920 . S
Co137 O140 1.966 . S
Co137 N146 2.022 . S
Co137 N154 1.993 . S
Co137 O162 1.941 . S
C138 O139 1.258 . S
C138 O140 1.263 . S
O139 Co136 1.970 . S
O139 C138 1.258 . S
O140 Co137 1.966 . S
O140 C138 1.263 . S
C141 O142 1.235 . S
C141 O168 1.289 . S
O142 C141 1.235 . S
C143 C145 1.400 . S
C143 N146 1.351 . S
C143 C148 1.501 . S
C144 C145 1.387 . S
C144 N147 1.341 . S
C145 C143 1.400 . S
C145 C144 1.387 . S
N146 Co137 2.022 . S
N146 C143 1.351 . S
N146 N147 1.365 . S
N147 C144 1.341 . S
N147 N146 1.365 . S
N147 H167 0.862 . S
C148 C143 1.501 . S
C148 H149 0.961 . S
C148 H150 0.961 . S
C148 H151 0.960 . S
H149 C148 0.961 . S
H150 C148 0.961 . S
H151 C148 0.960 . S
C152 N153 1.342 . S
C152 C156 1.401 . S
C152 C157 1.499 . S
N153 Co136 1.989 . S
N153 C152 1.342 . S
N153 N154 1.388 . S
N154 Co137 1.993 . S
N154 N153 1.388 . S
N154 C155 1.346 . S
C155 N154 1.346 . S
C155 C156 1.396 . S
C155 C165 1.510 . S
C156 C152 1.401 . S
C156 C155 1.396 . S
C157 C152 1.499 . S
C157 H158 0.959 . S
C157 H159 0.960 . S
C157 H160 0.961 . S
H158 C157 0.959 . S
H159 C157 0.960 . S
H160 C157 0.961 . S
O161 Co136 1.967 . S
O161 C169 1.258 . S
O162 Co137 1.941 . S
O162 C169 1.266 . S
H163 C165 0.959 . S
H164 C165 0.961 . S
C165 C155 1.510 . S
C165 H163 0.959 . S
C165 H164 0.961 . S
C165 H166 0.960 . S
H166 C165 0.960 . S
H167 N147 0.862 . S
O168 Co136 1.920 . S
O168 C141 1.289 . S
C169 O161 1.258 . S
C169 O162 1.266 . S
Co170 O173 1.970 . S
Co170 N187 1.989 . S
Co170 O195 1.967 . S
Co170 O202 1.920 . S
Co171 O174 1.966 . S
Co171 N180 2.022 . S
Co171 N188 1.993 . S
Co171 O196 1.941 . S
C172 O173 1.258 . S
C172 O174 1.263 . S
O173 Co170 1.970 . S
O173 C172 1.258 . S
O174 Co171 1.966 . S
O174 C172 1.263 . S
C175 O176 1.235 . S
C175 O202 1.289 . S
O176 C175 1.235 . S
C177 C179 1.400 . S
C177 N180 1.351 . S
C177 C182 1.501 . S
C178 C179 1.387 . S
C178 N181 1.341 . S
C179 C177 1.400 . S
C179 C178 1.387 . S
N180 Co171 2.022 . S
N180 C177 1.351 . S
N180 N181 1.365 . S
N181 C178 1.341 . S
N181 N180 1.365 . S
N181 H201 0.862 . S
C182 C177 1.501 . S
C182 H183 0.961 . S
C182 H184 0.961 . S
C182 H185 0.960 . S
H183 C182 0.961 . S
H184 C182 0.961 . S
H185 C182 0.960 . S
C186 N187 1.342 . S
C186 C190 1.401 . S
C186 C191 1.499 . S
N187 Co170 1.989 . S
N187 C186 1.342 . S
N187 N188 1.388 . S
N188 Co171 1.993 . S
N188 N187 1.388 . S
N188 C189 1.346 . S
C189 N188 1.346 . S
C189 C190 1.396 . S
C189 C199 1.510 . S
C190 C186 1.401 . S
C190 C189 1.396 . S
C191 C186 1.499 . S
C191 H192 0.959 . S
C191 H193 0.960 . S
C191 H194 0.961 . S
H192 C191 0.959 . S
H193 C191 0.960 . S
H194 C191 0.961 . S
O195 Co170 1.967 . S
O195 C203 1.258 . S
O196 Co171 1.941 . S
O196 C203 1.266 . S
H197 C199 0.959 . S
H198 C199 0.961 . S
C199 C189 1.510 . S
C199 H197 0.959 . S
C199 H198 0.961 . S
C199 H200 0.960 . S
H200 C199 0.960 . S
H201 N181 0.862 . S
O202 Co170 1.920 . S
O202 C175 1.289 . S
C203 O195 1.258 . S
C203 O196 1.266 . S
Co204 O207 1.970 . S
Co204 N221 1.989 . S
Co204 O229 1.967 . S
Co204 O236 1.920 . S
Co205 O208 1.966 . S
Co205 N214 2.022 . S
Co205 N222 1.993 . S
Co205 O230 1.941 . S
C206 O207 1.258 . S
C206 O208 1.263 . S
O207 Co204 1.970 . S
O207 C206 1.258 . S
O208 Co205 1.966 . S
O208 C206 1.263 . S
C209 O210 1.235 . S
C209 O236 1.289 . S
O210 C209 1.235 . S
C211 C213 1.400 . S
C211 N214 1.351 . S
C211 C216 1.501 . S
C212 C213 1.387 . S
C212 N215 1.341 . S
C213 C211 1.400 . S
C213 C212 1.387 . S
N214 Co205 2.022 . S
N214 C211 1.351 . S
N214 N215 1.365 . S
N215 C212 1.341 . S
N215 N214 1.365 . S
N215 H235 0.862 . S
C216 C211 1.501 . S
C216 H217 0.961 . S
C216 H218 0.961 . S
C216 H219 0.960 . S
H217 C216 0.961 . S
H218 C216 0.961 . S
H219 C216 0.960 . S
C220 N221 1.342 . S
C220 C224 1.401 . S
C220 C225 1.499 . S
N221 Co204 1.989 . S
N221 C220 1.342 . S
N221 N222 1.388 . S
N222 Co205 1.993 . S
N222 N221 1.388 . S
N222 C223 1.346 . S
C223 N222 1.346 . S
C223 C224 1.396 . S
C223 C233 1.510 . S
C224 C220 1.401 . S
C224 C223 1.396 . S
C225 C220 1.499 . S
C225 H226 0.959 . S
C225 H227 0.960 . S
C225 H228 0.961 . S
H226 C225 0.959 . S
H227 C225 0.960 . S
H228 C225 0.961 . S
O229 Co204 1.967 . S
O229 C237 1.258 . S
O230 Co205 1.941 . S
O230 C237 1.266 . S
H231 C233 0.959 . S
H232 C233 0.961 . S
C233 C223 1.510 . S
C233 H231 0.959 . S
C233 H232 0.961 . S
C233 H234 0.960 . S
H234 C233 0.960 . S
H235 N215 0.862 . S
O236 Co204 1.920 . S
O236 C209 1.289 . S
C237 O229 1.258 . S
C237 O230 1.266 . S
Co238 O241 1.970 . S
Co238 N255 1.989 . S
Co238 O263 1.967 . S
Co238 O270 1.920 . S
Co239 O242 1.966 . S
Co239 N248 2.022 . S
Co239 N256 1.993 . S
Co239 O264 1.941 . S
C240 O241 1.258 . S
C240 O242 1.263 . S
O241 Co238 1.970 . S
O241 C240 1.258 . S
O242 Co239 1.966 . S
O242 C240 1.263 . S
C243 O244 1.235 . S
C243 O270 1.289 . S
O244 C243 1.235 . S
C245 C247 1.400 . S
C245 N248 1.351 . S
C245 C250 1.501 . S
C246 C247 1.387 . S
C246 N249 1.341 . S
C247 C245 1.400 . S
C247 C246 1.387 . S
N248 Co239 2.022 . S
N248 C245 1.351 . S
N248 N249 1.365 . S
N249 C246 1.341 . S
N249 N248 1.365 . S
N249 H269 0.862 . S
C250 C245 1.501 . S
C250 H251 0.961 . S
C250 H252 0.961 . S
C250 H253 0.960 . S
H251 C250 0.961 . S
H252 C250 0.961 . S
H253 C250 0.960 . S
C254 N255 1.342 . S
C254 C258 1.401 . S
C254 C259 1.499 . S
N255 Co238 1.989 . S
N255 C254 1.342 . S
N255 N256 1.388 . S
N256 Co239 1.993 . S
N256 N255 1.388 . S
N256 C257 1.346 . S
C257 N256 1.346 . S
C257 C258 1.396 . S
C257 C267 1.510 . S
C258 C254 1.401 . S
C258 C257 1.396 . S
C259 C254 1.499 . S
C259 H260 0.959 . S
C259 H261 0.960 . S
C259 H262 0.961 . S
H260 C259 0.959 . S
H261 C259 0.960 . S
H262 C259 0.961 . S
O263 Co238 1.967 . S
O263 C271 1.258 . S
O264 Co239 1.941 . S
O264 C271 1.266 . S
H265 C267 0.959 . S
H266 C267 0.961 . S
C267 C257 1.510 . S
C267 H265 0.959 . S
C267 H266 0.961 . S
C267 H268 0.960 . S
H268 C267 0.960 . S
H269 N249 0.862 . S
O270 Co238 1.920 . S
O270 C243 1.289 . S
C271 O263 1.258 . S
C271 O264 1.266 . S
Co272 O275 1.970 . S
Co272 N289 1.989 . S
Co272 O297 1.967 . S
Co272 O304 1.920 . S
Co273 O276 1.966 . S
Co273 N282 2.022 . S
Co273 N290 1.993 . S
Co273 O298 1.941 . S
C274 O275 1.258 . S
C274 O276 1.263 . S
O275 Co272 1.970 . S
O275 C274 1.258 . S
O276 Co273 1.966 . S
O276 C274 1.263 . S
C277 O278 1.235 . S
C277 O304 1.289 . S
O278 C277 1.235 . S
C279 C281 1.400 . S
C279 N282 1.351 . S
C279 C284 1.501 . S
C280 C281 1.387 . S
C280 N283 1.341 . S
C281 C279 1.400 . S
C281 C280 1.387 . S
N282 Co273 2.022 . S
N282 C279 1.351 . S
N282 N283 1.365 . S
N283 C280 1.341 . S
N283 N282 1.365 . S
N283 H303 0.862 . S
C284 C279 1.501 . S
C284 H285 0.961 . S
C284 H286 0.961 . S
C284 H287 0.960 . S
H285 C284 0.961 . S
H286 C284 0.961 . S
H287 C284 0.960 . S
C288 N289 1.342 . S
C288 C292 1.401 . S
C288 C293 1.499 . S
N289 Co272 1.989 . S
N289 C288 1.342 . S
N289 N290 1.388 . S
N290 Co273 1.993 . S
N290 N289 1.388 . S
N290 C291 1.346 . S
C291 N290 1.346 . S
C291 C292 1.396 . S
C291 C301 1.510 . S
C292 C288 1.401 . S
C292 C291 1.396 . S
C293 C288 1.499 . S
C293 H294 0.959 . S
C293 H295 0.960 . S
C293 H296 0.961 . S
H294 C293 0.959 . S
H295 C293 0.960 . S
H296 C293 0.961 . S
O297 Co272 1.967 . S
O297 C305 1.258 . S
O298 Co273 1.941 . S
O298 C305 1.266 . S
H299 C301 0.959 . S
H300 C301 0.961 . S
C301 C291 1.510 . S
C301 H299 0.959 . S
C301 H300 0.961 . S
C301 H302 0.960 . S
H302 C301 0.960 . S
H303 N283 0.862 . S
O304 Co272 1.920 . S
O304 C277 1.289 . S
C305 O297 1.258 . S
C305 O298 1.266 . S
Co306 O309 1.970 . S
Co306 N323 1.989 . S
Co306 O331 1.967 . S
Co306 O338 1.920 . S
Co307 O310 1.966 . S
Co307 N316 2.022 . S
Co307 N324 1.993 . S
Co307 O332 1.941 . S
C308 O309 1.258 . S
C308 O310 1.263 . S
O309 Co306 1.970 . S
O309 C308 1.258 . S
O310 Co307 1.966 . S
O310 C308 1.263 . S
C311 O312 1.235 . S
C311 O338 1.289 . S
O312 C311 1.235 . S
C313 C315 1.400 . S
C313 N316 1.351 . S
C313 C318 1.501 . S
C314 C315 1.387 . S
C314 N317 1.341 . S
C315 C313 1.400 . S
C315 C314 1.387 . S
N316 Co307 2.022 . S
N316 C313 1.351 . S
N316 N317 1.365 . S
N317 C314 1.341 . S
N317 N316 1.365 . S
N317 H337 0.862 . S
C318 C313 1.501 . S
C318 H319 0.961 . S
C318 H320 0.961 . S
C318 H321 0.960 . S
H319 C318 0.961 . S
H320 C318 0.961 . S
H321 C318 0.960 . S
C322 N323 1.342 . S
C322 C326 1.401 . S
C322 C327 1.499 . S
N323 Co306 1.989 . S
N323 C322 1.342 . S
N323 N324 1.388 . S
N324 Co307 1.993 . S
N324 N323 1.388 . S
N324 C325 1.346 . S
C325 N324 1.346 . S
C325 C326 1.396 . S
C325 C335 1.510 . S
C326 C322 1.401 . S
C326 C325 1.396 . S
C327 C322 1.499 . S
C327 H328 0.959 . S
C327 H329 0.960 . S
C327 H330 0.961 . S
H328 C327 0.959 . S
H329 C327 0.960 . S
H330 C327 0.961 . S
O331 Co306 1.967 . S
O331 C339 1.258 . S
O332 Co307 1.941 . S
O332 C339 1.266 . S
H333 C335 0.959 . S
H334 C335 0.961 . S
C335 C325 1.510 . S
C335 H333 0.959 . S
C335 H334 0.961 . S
C335 H336 0.960 . S
H336 C335 0.960 . S
H337 N317 0.862 . S
O338 Co306 1.920 . S
O338 C311 1.289 . S
C339 O331 1.258 . S
C339 O332 1.266 . S
Co340 O343 1.970 . S
Co340 N357 1.989 . S
Co340 O365 1.967 . S
Co340 O372 1.920 . S
Co341 O344 1.966 . S
Co341 N350 2.022 . S
Co341 N358 1.993 . S
Co341 O366 1.941 . S
C342 O343 1.258 . S
C342 O344 1.263 . S
O343 Co340 1.970 . S
O343 C342 1.258 . S
O344 Co341 1.966 . S
O344 C342 1.263 . S
C345 O346 1.235 . S
C345 O372 1.289 . S
O346 C345 1.235 . S
C347 C349 1.400 . S
C347 N350 1.351 . S
C347 C352 1.501 . S
C348 C349 1.387 . S
C348 N351 1.341 . S
C349 C347 1.400 . S
C349 C348 1.387 . S
N350 Co341 2.022 . S
N350 C347 1.351 . S
N350 N351 1.365 . S
N351 C348 1.341 . S
N351 N350 1.365 . S
N351 H371 0.862 . S
C352 C347 1.501 . S
C352 H353 0.961 . S
C352 H354 0.961 . S
C352 H355 0.960 . S
H353 C352 0.961 . S
H354 C352 0.961 . S
H355 C352 0.960 . S
C356 N357 1.342 . S
C356 C360 1.401 . S
C356 C361 1.499 . S
N357 Co340 1.989 . S
N357 C356 1.342 . S
N357 N358 1.388 . S
N358 Co341 1.993 . S
N358 N357 1.388 . S
N358 C359 1.346 . S
C359 N358 1.346 . S
C359 C360 1.396 . S
C359 C369 1.510 . S
C360 C356 1.401 . S
C360 C359 1.396 . S
C361 C356 1.499 . S
C361 H362 0.959 . S
C361 H363 0.960 . S
C361 H364 0.961 . S
H362 C361 0.959 . S
H363 C361 0.960 . S
H364 C361 0.961 . S
O365 Co340 1.967 . S
O365 C373 1.258 . S
O366 Co341 1.941 . S
O366 C373 1.266 . S
H367 C369 0.959 . S
H368 C369 0.961 . S
C369 C359 1.510 . S
C369 H367 0.959 . S
C369 H368 0.961 . S
C369 H370 0.960 . S
H370 C369 0.960 . S
H371 N351 0.862 . S
O372 Co340 1.920 . S
O372 C345 1.289 . S
C373 O365 1.258 . S
C373 O366 1.266 . S
Co374 O377 1.970 . S
Co374 N391 1.989 . S
Co374 O399 1.967 . S
Co374 O406 1.920 . S
Co375 O378 1.966 . S
Co375 N384 2.022 . S
Co375 N392 1.993 . S
Co375 O400 1.941 . S
C376 O377 1.258 . S
C376 O378 1.263 . S
O377 Co374 1.970 . S
O377 C376 1.258 . S
O378 Co375 1.966 . S
O378 C376 1.263 . S
C379 O380 1.235 . S
C379 O406 1.289 . S
O380 C379 1.235 . S
C381 C383 1.400 . S
C381 N384 1.351 . S
C381 C386 1.501 . S
C382 C383 1.387 . S
C382 N385 1.341 . S
C383 C381 1.400 . S
C383 C382 1.387 . S
N384 Co375 2.022 . S
N384 C381 1.351 . S
N384 N385 1.365 . S
N385 C382 1.341 . S
N385 N384 1.365 . S
N385 H405 0.862 . S
C386 C381 1.501 . S
C386 H387 0.961 . S
C386 H388 0.961 . S
C386 H389 0.960 . S
H387 C386 0.961 . S
H388 C386 0.961 . S
H389 C386 0.960 . S
C390 N391 1.342 . S
C390 C394 1.401 . S
C390 C395 1.499 . S
N391 Co374 1.989 . S
N391 C390 1.342 . S
N391 N392 1.388 . S
N392 Co375 1.993 . S
N392 N391 1.388 . S
N392 C393 1.346 . S
C393 N392 1.346 . S
C393 C394 1.396 . S
C393 C403 1.510 . S
C394 C390 1.401 . S
C394 C393 1.396 . S
C395 C390 1.499 . S
C395 H396 0.959 . S
C395 H397 0.960 . S
C395 H398 0.961 . S
H396 C395 0.959 . S
H397 C395 0.960 . S
H398 C395 0.961 . S
O399 Co374 1.967 . S
O399 C407 1.258 . S
O400 Co375 1.941 . S
O400 C407 1.266 . S
H401 C403 0.959 . S
H402 C403 0.961 . S
C403 C393 1.510 . S
C403 H401 0.959 . S
C403 H402 0.961 . S
C403 H404 0.960 . S
H404 C403 0.960 . S
H405 N385 0.862 . S
O406 Co374 1.920 . S
O406 C379 1.289 . S
C407 O399 1.258 . S
C407 O400 1.266 . S
Co408 O411 1.970 . S
Co408 N425 1.989 . S
Co408 O433 1.967 . S
Co408 O440 1.920 . S
Co409 O412 1.966 . S
Co409 N418 2.022 . S
Co409 N426 1.993 . S
Co409 O434 1.941 . S
C410 O411 1.258 . S
C410 O412 1.263 . S
O411 Co408 1.970 . S
O411 C410 1.258 . S
O412 Co409 1.966 . S
O412 C410 1.263 . S
C413 O414 1.235 . S
C413 O440 1.289 . S
O414 C413 1.235 . S
C415 C417 1.400 . S
C415 N418 1.351 . S
C415 C420 1.501 . S
C416 C417 1.387 . S
C416 N419 1.341 . S
C417 C415 1.400 . S
C417 C416 1.387 . S
N418 Co409 2.022 . S
N418 C415 1.351 . S
N418 N419 1.365 . S
N419 C416 1.341 . S
N419 N418 1.365 . S
N419 H439 0.862 . S
C420 C415 1.501 . S
C420 H421 0.961 . S
C420 H422 0.961 . S
C420 H423 0.960 . S
H421 C420 0.961 . S
H422 C420 0.961 . S
H423 C420 0.960 . S
C424 N425 1.342 . S
C424 C428 1.401 . S
C424 C429 1.499 . S
N425 Co408 1.989 . S
N425 C424 1.342 . S
N425 N426 1.388 . S
N426 Co409 1.993 . S
N426 N425 1.388 . S
N426 C427 1.346 . S
C427 N426 1.346 . S
C427 C428 1.396 . S
C427 C437 1.510 . S
C428 C424 1.401 . S
C428 C427 1.396 . S
C429 C424 1.499 . S
C429 H430 0.959 . S
C429 H431 0.960 . S
C429 H432 0.961 . S
H430 C429 0.959 . S
H431 C429 0.960 . S
H432 C429 0.961 . S
O433 Co408 1.967 . S
O433 C441 1.258 . S
O434 Co409 1.941 . S
O434 C441 1.266 . S
H435 C437 0.959 . S
H436 C437 0.961 . S
C437 C427 1.510 . S
C437 H435 0.959 . S
C437 H436 0.961 . S
C437 H438 0.960 . S
H438 C437 0.960 . S
H439 N419 0.862 . S
O440 Co408 1.920 . S
O440 C413 1.289 . S
C441 O433 1.258 . S
C441 O434 1.266 . S
Co442 O445 1.970 . S
Co442 N459 1.989 . S
Co442 O467 1.967 . S
Co442 O474 1.920 . S
Co443 O446 1.966 . S
Co443 N452 2.022 . S
Co443 N460 1.993 . S
Co443 O468 1.941 . S
C444 O445 1.258 . S
C444 O446 1.263 . S
O445 Co442 1.970 . S
O445 C444 1.258 . S
O446 Co443 1.966 . S
O446 C444 1.263 . S
C447 O448 1.235 . S
C447 O474 1.289 . S
O448 C447 1.235 . S
C449 C451 1.400 . S
C449 N452 1.351 . S
C449 C454 1.501 . S
C450 C451 1.387 . S
C450 N453 1.341 . S
C451 C449 1.400 . S
C451 C450 1.387 . S
N452 Co443 2.022 . S
N452 C449 1.351 . S
N452 N453 1.365 . S
N453 C450 1.341 . S
N453 N452 1.365 . S
N453 H473 0.862 . S
C454 C449 1.501 . S
C454 H455 0.961 . S
C454 H456 0.961 . S
C454 H457 0.960 . S
H455 C454 0.961 . S
H456 C454 0.961 . S
H457 C454 0.960 . S
C458 N459 1.342 . S
C458 C462 1.401 . S
C458 C463 1.499 . S
N459 Co442 1.989 . S
N459 C458 1.342 . S
N459 N460 1.388 . S
N460 Co443 1.993 . S
N460 N459 1.388 . S
N460 C461 1.346 . S
C461 N460 1.346 . S
C461 C462 1.396 . S
C461 C471 1.510 . S
C462 C458 1.401 . S
C462 C461 1.396 . S
C463 C458 1.499 . S
C463 H464 0.959 . S
C463 H465 0.960 . S
C463 H466 0.961 . S
H464 C463 0.959 . S
H465 C463 0.960 . S
H466 C463 0.961 . S
O467 Co442 1.967 . S
O467 C475 1.258 . S
O468 Co443 1.941 . S
O468 C475 1.266 . S
H469 C471 0.959 . S
H470 C471 0.961 . S
C471 C461 1.510 . S
C471 H469 0.959 . S
C471 H470 0.961 . S
C471 H472 0.960 . S
H472 C471 0.960 . S
H473 N453 0.862 . S
O474 Co442 1.920 . S
O474 C447 1.289 . S
C475 O467 1.258 . S
C475 O468 1.266 . S
Co476 O479 1.970 . S
Co476 N493 1.989 . S
Co476 O501 1.967 . S
Co476 O508 1.920 . S
Co477 O480 1.966 . S
Co477 N486 2.022 . S
Co477 N494 1.993 . S
Co477 O502 1.941 . S
C478 O479 1.258 . S
C478 O480 1.263 . S
O479 Co476 1.970 . S
O479 C478 1.258 . S
O480 Co477 1.966 . S
O480 C478 1.263 . S
C481 O482 1.235 . S
C481 O508 1.289 . S
O482 C481 1.235 . S
C483 C485 1.400 . S
C483 N486 1.351 . S
C483 C488 1.501 . S
C484 C485 1.387 . S
C484 N487 1.341 . S
C485 C483 1.400 . S
C485 C484 1.387 . S
N486 Co477 2.022 . S
N486 C483 1.351 . S
N486 N487 1.365 . S
N487 C484 1.341 . S
N487 N486 1.365 . S
N487 H507 0.862 . S
C488 C483 1.501 . S
C488 H489 0.961 . S
C488 H490 0.961 . S
C488 H491 0.960 . S
H489 C488 0.961 . S
H490 C488 0.961 . S
H491 C488 0.960 . S
C492 N493 1.342 . S
C492 C496 1.401 . S
C492 C497 1.499 . S
N493 Co476 1.989 . S
N493 C492 1.342 . S
N493 N494 1.388 . S
N494 Co477 1.993 . S
N494 N493 1.388 . S
N494 C495 1.346 . S
C495 N494 1.346 . S
C495 C496 1.396 . S
C495 C505 1.510 . S
C496 C492 1.401 . S
C496 C495 1.396 . S
C497 C492 1.499 . S
C497 H498 0.959 . S
C497 H499 0.960 . S
C497 H500 0.961 . S
H498 C497 0.959 . S
H499 C497 0.960 . S
H500 C497 0.961 . S
O501 Co476 1.967 . S
O501 C509 1.258 . S
O502 Co477 1.941 . S
O502 C509 1.266 . S
H503 C505 0.959 . S
H504 C505 0.961 . S
C505 C495 1.510 . S
C505 H503 0.959 . S
C505 H504 0.961 . S
C505 H506 0.960 . S
H506 C505 0.960 . S
H507 N487 0.862 . S
O508 Co476 1.920 . S
O508 C481 1.289 . S
C509 O501 1.258 . S
C509 O502 1.266 . S
Co510 O513 1.970 . S
Co510 N527 1.989 . S
Co510 O535 1.967 . S
Co510 O542 1.920 . S
Co511 O514 1.966 . S
Co511 N520 2.022 . S
Co511 N528 1.993 . S
Co511 O536 1.941 . S
C512 O513 1.258 . S
C512 O514 1.263 . S
O513 Co510 1.970 . S
O513 C512 1.258 . S
O514 Co511 1.966 . S
O514 C512 1.263 . S
C515 O516 1.235 . S
C515 O542 1.289 . S
O516 C515 1.235 . S
C517 C519 1.400 . S
C517 N520 1.351 . S
C517 C522 1.501 . S
C518 C519 1.387 . S
C518 N521 1.341 . S
C519 C517 1.400 . S
C519 C518 1.387 . S
N520 Co511 2.022 . S
N520 C517 1.351 . S
N520 N521 1.365 . S
N521 C518 1.341 . S
N521 N520 1.365 . S
N521 H541 0.862 . S
C522 C517 1.501 . S
C522 H523 0.961 . S
C522 H524 0.961 . S
C522 H525 0.960 . S
H523 C522 0.961 . S
H524 C522 0.961 . S
H525 C522 0.960 . S
C526 N527 1.342 . S
C526 C530 1.401 . S
C526 C531 1.499 . S
N527 Co510 1.989 . S
N527 C526 1.342 . S
N527 N528 1.388 . S
N528 Co511 1.993 . S
N528 N527 1.388 . S
N528 C529 1.346 . S
C529 N528 1.346 . S
C529 C530 1.396 . S
C529 C539 1.510 . S
C530 C526 1.401 . S
C530 C529 1.396 . S
C531 C526 1.499 . S
C531 H532 0.959 . S
C531 H533 0.960 . S
C531 H534 0.961 . S
H532 C531 0.959 . S
H533 C531 0.960 . S
H534 C531 0.961 . S
O535 Co510 1.967 . S
O535 C543 1.258 . S
O536 Co511 1.941 . S
O536 C543 1.266 . S
H537 C539 0.959 . S
H538 C539 0.961 . S
C539 C529 1.510 . S
C539 H537 0.959 . S
C539 H538 0.961 . S
C539 H540 0.960 . S
H540 C539 0.960 . S
H541 N521 0.862 . S
O542 Co510 1.920 . S
O542 C515 1.289 . S
C543 O535 1.258 . S
C543 O536 1.266 . S
Co544 O547 1.970 . S
Co544 N561 1.989 . S
Co544 O569 1.967 . S
Co544 O576 1.920 . S
Co545 O548 1.966 . S
Co545 N554 2.022 . S
Co545 N562 1.993 . S
Co545 O570 1.941 . S
C546 O547 1.258 . S
C546 O548 1.263 . S
O547 Co544 1.970 . S
O547 C546 1.258 . S
O548 Co545 1.966 . S
O548 C546 1.263 . S
C549 O550 1.235 . S
C549 O576 1.289 . S
O550 C549 1.235 . S
C551 C553 1.400 . S
C551 N554 1.351 . S
C551 C556 1.501 . S
C552 C553 1.387 . S
C552 N555 1.341 . S
C553 C551 1.400 . S
C553 C552 1.387 . S
N554 Co545 2.022 . S
N554 C551 1.351 . S
N554 N555 1.365 . S
N555 C552 1.341 . S
N555 N554 1.365 . S
N555 H575 0.862 . S
C556 C551 1.501 . S
C556 H557 0.961 . S
C556 H558 0.961 . S
C556 H559 0.960 . S
H557 C556 0.961 . S
H558 C556 0.961 . S
H559 C556 0.960 . S
C560 N561 1.342 . S
C560 C564 1.401 . S
C560 C565 1.499 . S
N561 Co544 1.989 . S
N561 C560 1.342 . S
N561 N562 1.388 . S
N562 Co545 1.993 . S
N562 N561 1.388 . S
N562 C563 1.346 . S
C563 N562 1.346 . S
C563 C564 1.396 . S
C563 C573 1.510 . S
C564 C560 1.401 . S
C564 C563 1.396 . S
C565 C560 1.499 . S
C565 H566 0.959 . S
C565 H567 0.960 . S
C565 H568 0.961 . S
H566 C565 0.959 . S
H567 C565 0.960 . S
H568 C565 0.961 . S
O569 Co544 1.967 . S
O569 C577 1.258 . S
O570 Co545 1.941 . S
O570 C577 1.266 . S
H571 C573 0.959 . S
H572 C573 0.961 . S
C573 C563 1.510 . S
C573 H571 0.959 . S
C573 H572 0.961 . S
C573 H574 0.960 . S
H574 C573 0.960 . S
H575 N555 0.862 . S
O576 Co544 1.920 . S
O576 C549 1.289 . S
C577 O569 1.258 . S
C577 O570 1.266 . S
Co578 O581 1.970 . S
Co578 N595 1.989 . S
Co578 O603 1.967 . S
Co578 O610 1.920 . S
Co579 O582 1.966 . S
Co579 N588 2.022 . S
Co579 N596 1.993 . S
Co579 O604 1.941 . S
C580 O581 1.258 . S
C580 O582 1.263 . S
O581 Co578 1.970 . S
O581 C580 1.258 . S
O582 Co579 1.966 . S
O582 C580 1.263 . S
C583 O584 1.235 . S
C583 O610 1.289 . S
O584 C583 1.235 . S
C585 C587 1.400 . S
C585 N588 1.351 . S
C585 C590 1.501 . S
C586 C587 1.387 . S
C586 N589 1.341 . S
C587 C585 1.400 . S
C587 C586 1.387 . S
N588 Co579 2.022 . S
N588 C585 1.351 . S
N588 N589 1.365 . S
N589 C586 1.341 . S
N589 N588 1.365 . S
N589 H609 0.862 . S
C590 C585 1.501 . S
C590 H591 0.961 . S
C590 H592 0.961 . S
C590 H593 0.960 . S
H591 C590 0.961 . S
H592 C590 0.961 . S
H593 C590 0.960 . S
C594 N595 1.342 . S
C594 C598 1.401 . S
C594 C599 1.499 . S
N595 Co578 1.989 . S
N595 C594 1.342 . S
N595 N596 1.388 . S
N596 Co579 1.993 . S
N596 N595 1.388 . S
N596 C597 1.346 . S
C597 N596 1.346 . S
C597 C598 1.396 . S
C597 C607 1.510 . S
C598 C594 1.401 . S
C598 C597 1.396 . S
C599 C594 1.499 . S
C599 H600 0.959 . S
C599 H601 0.960 . S
C599 H602 0.961 . S
H600 C599 0.959 . S
H601 C599 0.960 . S
H602 C599 0.961 . S
O603 Co578 1.967 . S
O603 C611 1.258 . S
O604 Co579 1.941 . S
O604 C611 1.266 . S
H605 C607 0.959 . S
H606 C607 0.961 . S
C607 C597 1.510 . S
C607 H605 0.959 . S
C607 H606 0.961 . S
C607 H608 0.960 . S
H608 C607 0.960 . S
H609 N589 0.862 . S
O610 Co578 1.920 . S
O610 C583 1.289 . S
C611 O603 1.258 . S
C611 O604 1.266 . S
Co612 O615 1.970 . S
Co612 N629 1.989 . S
Co612 O637 1.967 . S
Co612 O644 1.920 . S
Co613 O616 1.966 . S
Co613 N622 2.022 . S
Co613 N630 1.993 . S
Co613 O638 1.941 . S
C614 O615 1.258 . S
C614 O616 1.263 . S
O615 Co612 1.970 . S
O615 C614 1.258 . S
O616 Co613 1.966 . S
O616 C614 1.263 . S
C617 O618 1.235 . S
C617 O644 1.289 . S
O618 C617 1.235 . S
C619 C621 1.400 . S
C619 N622 1.351 . S
C619 C624 1.501 . S
C620 C621 1.387 . S
C620 N623 1.341 . S
C621 C619 1.400 . S
C621 C620 1.387 . S
N622 Co613 2.022 . S
N622 C619 1.351 . S
N622 N623 1.365 . S
N623 C620 1.341 . S
N623 N622 1.365 . S
N623 H643 0.862 . S
C624 C619 1.501 . S
C624 H625 0.961 . S
C624 H626 0.961 . S
C624 H627 0.960 . S
H625 C624 0.961 . S
H626 C624 0.961 . S
H627 C624 0.960 . S
C628 N629 1.342 . S
C628 C632 1.401 . S
C628 C633 1.499 . S
N629 Co612 1.989 . S
N629 C628 1.342 . S
N629 N630 1.388 . S
N630 Co613 1.993 . S
N630 N629 1.388 . S
N630 C631 1.346 . S
C631 N630 1.346 . S
C631 C632 1.396 . S
C631 C641 1.510 . S
C632 C628 1.401 . S
C632 C631 1.396 . S
C633 C628 1.499 . S
C633 H634 0.959 . S
C633 H635 0.960 . S
C633 H636 0.961 . S
H634 C633 0.959 . S
H635 C633 0.960 . S
H636 C633 0.961 . S
O637 Co612 1.967 . S
O637 C645 1.258 . S
O638 Co613 1.941 . S
O638 C645 1.266 . S
H639 C641 0.959 . S
H640 C641 0.961 . S
C641 C631 1.510 . S
C641 H639 0.959 . S
C641 H640 0.961 . S
C641 H642 0.960 . S
H642 C641 0.960 . S
H643 N623 0.862 . S
O644 Co612 1.920 . S
O644 C617 1.289 . S
C645 O637 1.258 . S
C645 O638 1.266 . S
Co646 O649 1.970 . S
Co646 N663 1.989 . S
Co646 O671 1.967 . S
Co646 O678 1.920 . S
Co647 O650 1.966 . S
Co647 N656 2.022 . S
Co647 N664 1.993 . S
Co647 O672 1.941 . S
C648 O649 1.258 . S
C648 O650 1.263 . S
O649 Co646 1.970 . S
O649 C648 1.258 . S
O650 Co647 1.966 . S
O650 C648 1.263 . S
C651 O652 1.235 . S
C651 O678 1.289 . S
O652 C651 1.235 . S
C653 C655 1.400 . S
C653 N656 1.351 . S
C653 C658 1.501 . S
C654 C655 1.387 . S
C654 N657 1.341 . S
C655 C653 1.400 . S
C655 C654 1.387 . S
N656 Co647 2.022 . S
N656 C653 1.351 . S
N656 N657 1.365 . S
N657 C654 1.341 . S
N657 N656 1.365 . S
N657 H677 0.862 . S
C658 C653 1.501 . S
C658 H659 0.961 . S
C658 H660 0.961 . S
C658 H661 0.960 . S
H659 C658 0.961 . S
H660 C658 0.961 . S
H661 C658 0.960 . S
C662 N663 1.342 . S
C662 C666 1.401 . S
C662 C667 1.499 . S
N663 Co646 1.989 . S
N663 C662 1.342 . S
N663 N664 1.388 . S
N664 Co647 1.993 . S
N664 N663 1.388 . S
N664 C665 1.346 . S
C665 N664 1.346 . S
C665 C666 1.396 . S
C665 C675 1.510 . S
C666 C662 1.401 . S
C666 C665 1.396 . S
C667 C662 1.499 . S
C667 H668 0.959 . S
C667 H669 0.960 . S
C667 H670 0.961 . S
H668 C667 0.959 . S
H669 C667 0.960 . S
H670 C667 0.961 . S
O671 Co646 1.967 . S
O671 C679 1.258 . S
O672 Co647 1.941 . S
O672 C679 1.266 . S
H673 C675 0.959 . S
H674 C675 0.961 . S
C675 C665 1.510 . S
C675 H673 0.959 . S
C675 H674 0.961 . S
C675 H676 0.960 . S
H676 C675 0.960 . S
H677 N657 0.862 . S
O678 Co646 1.920 . S
O678 C651 1.289 . S
C679 O671 1.258 . S
C679 O672 1.266 . S
Co680 O683 1.970 . S
Co680 N697 1.989 . S
Co680 O705 1.967 . S
Co680 O712 1.920 . S
Co681 O684 1.966 . S
Co681 N690 2.022 . S
Co681 N698 1.993 . S
Co681 O706 1.941 . S
C682 O683 1.258 . S
C682 O684 1.263 . S
O683 Co680 1.970 . S
O683 C682 1.258 . S
O684 Co681 1.966 . S
O684 C682 1.263 . S
C685 O686 1.235 . S
C685 O712 1.289 . S
O686 C685 1.235 . S
C687 C689 1.400 . S
C687 N690 1.351 . S
C687 C692 1.501 . S
C688 C689 1.387 . S
C688 N691 1.341 . S
C689 C687 1.400 . S
C689 C688 1.387 . S
N690 Co681 2.022 . S
N690 C687 1.351 . S
N690 N691 1.365 . S
N691 C688 1.341 . S
N691 N690 1.365 . S
N691 H711 0.862 . S
C692 C687 1.501 . S
C692 H693 0.961 . S
C692 H694 0.961 . S
C692 H695 0.960 . S
H693 C692 0.961 . S
H694 C692 0.961 . S
H695 C692 0.960 . S
C696 N697 1.342 . S
C696 C700 1.401 . S
C696 C701 1.499 . S
N697 Co680 1.989 . S
N697 C696 1.342 . S
N697 N698 1.388 . S
N698 Co681 1.993 . S
N698 N697 1.388 . S
N698 C699 1.346 . S
C699 N698 1.346 . S
C699 C700 1.396 . S
C699 C709 1.510 . S
C700 C696 1.401 . S
C700 C699 1.396 . S
C701 C696 1.499 . S
C701 H702 0.959 . S
C701 H703 0.960 . S
C701 H704 0.961 . S
H702 C701 0.959 . S
H703 C701 0.960 . S
H704 C701 0.961 . S
O705 Co680 1.967 . S
O705 C713 1.258 . S
O706 Co681 1.941 . S
O706 C713 1.266 . S
H707 C709 0.959 . S
H708 C709 0.961 . S
C709 C699 1.510 . S
C709 H707 0.959 . S
C709 H708 0.961 . S
C709 H710 0.960 . S
H710 C709 0.960 . S
H711 N691 0.862 . S
O712 Co680 1.920 . S
O712 C685 1.289 . S
C713 O705 1.258 . S
C713 O706 1.266 . S
Co714 O717 1.970 . S
Co714 N731 1.989 . S
Co714 O739 1.967 . S
Co714 O746 1.920 . S
Co715 O718 1.966 . S
Co715 N724 2.022 . S
Co715 N732 1.993 . S
Co715 O740 1.941 . S
C716 O717 1.258 . S
C716 O718 1.263 . S
O717 Co714 1.970 . S
O717 C716 1.258 . S
O718 Co715 1.966 . S
O718 C716 1.263 . S
C719 O720 1.235 . S
C719 O746 1.289 . S
O720 C719 1.235 . S
C721 C723 1.400 . S
C721 N724 1.351 . S
C721 C726 1.501 . S
C722 C723 1.387 . S
C722 N725 1.341 . S
C723 C721 1.400 . S
C723 C722 1.387 . S
N724 Co715 2.022 . S
N724 C721 1.351 . S
N724 N725 1.365 . S
N725 C722 1.341 . S
N725 N724 1.365 . S
N725 H745 0.862 . S
C726 C721 1.501 . S
C726 H727 0.961 . S
C726 H728 0.961 . S
C726 H729 0.960 . S
H727 C726 0.961 . S
H728 C726 0.961 . S
H729 C726 0.960 . S
C730 N731 1.342 . S
C730 C734 1.401 . S
C730 C735 1.499 . S
N731 Co714 1.989 . S
N731 C730 1.342 . S
N731 N732 1.388 . S
N732 Co715 1.993 . S
N732 N731 1.388 . S
N732 C733 1.346 . S
C733 N732 1.346 . S
C733 C734 1.396 . S
C733 C743 1.510 . S
C734 C730 1.401 . S
C734 C733 1.396 . S
C735 C730 1.499 . S
C735 H736 0.959 . S
C735 H737 0.960 . S
C735 H738 0.961 . S
H736 C735 0.959 . S
H737 C735 0.960 . S
H738 C735 0.961 . S
O739 Co714 1.967 . S
O739 C747 1.258 . S
O740 Co715 1.941 . S
O740 C747 1.266 . S
H741 C743 0.959 . S
H742 C743 0.961 . S
C743 C733 1.510 . S
C743 H741 0.959 . S
C743 H742 0.961 . S
C743 H744 0.960 . S
H744 C743 0.960 . S
H745 N725 0.862 . S
O746 Co714 1.920 . S
O746 C719 1.289 . S
C747 O739 1.258 . S
C747 O740 1.266 . S
Co748 O751 1.970 . S
Co748 N765 1.989 . S
Co748 O773 1.967 . S
Co748 O780 1.920 . S
Co749 O752 1.966 . S
Co749 N758 2.022 . S
Co749 N766 1.993 . S
Co749 O774 1.941 . S
C750 O751 1.258 . S
C750 O752 1.263 . S
O751 Co748 1.970 . S
O751 C750 1.258 . S
O752 Co749 1.966 . S
O752 C750 1.263 . S
C753 O754 1.235 . S
C753 O780 1.289 . S
O754 C753 1.235 . S
C755 C757 1.400 . S
C755 N758 1.351 . S
C755 C760 1.501 . S
C756 C757 1.387 . S
C756 N759 1.341 . S
C757 C755 1.400 . S
C757 C756 1.387 . S
N758 Co749 2.022 . S
N758 C755 1.351 . S
N758 N759 1.365 . S
N759 C756 1.341 . S
N759 N758 1.365 . S
N759 H779 0.862 . S
C760 C755 1.501 . S
C760 H761 0.961 . S
C760 H762 0.961 . S
C760 H763 0.960 . S
H761 C760 0.961 . S
H762 C760 0.961 . S
H763 C760 0.960 . S
C764 N765 1.342 . S
C764 C768 1.401 . S
C764 C769 1.499 . S
N765 Co748 1.989 . S
N765 C764 1.342 . S
N765 N766 1.388 . S
N766 Co749 1.993 . S
N766 N765 1.388 . S
N766 C767 1.346 . S
C767 N766 1.346 . S
C767 C768 1.396 . S
C767 C777 1.510 . S
C768 C764 1.401 . S
C768 C767 1.396 . S
C769 C764 1.499 . S
C769 H770 0.959 . S
C769 H771 0.960 . S
C769 H772 0.961 . S
H770 C769 0.959 . S
H771 C769 0.960 . S
H772 C769 0.961 . S
O773 Co748 1.967 . S
O773 C781 1.258 . S
O774 Co749 1.941 . S
O774 C781 1.266 . S
H775 C777 0.959 . S
H776 C777 0.961 . S
C777 C767 1.510 . S
C777 H775 0.959 . S
C777 H776 0.961 . S
C777 H778 0.960 . S
H778 C777 0.960 . S
H779 N759 0.862 . S
O780 Co748 1.920 . S
O780 C753 1.289 . S
C781 O773 1.258 . S
C781 O774 1.266 . S
Co782 O785 1.970 . S
Co782 N799 1.989 . S
Co782 O807 1.967 . S
Co782 O814 1.920 . S
Co783 O786 1.966 . S
Co783 N792 2.022 . S
Co783 N800 1.993 . S
Co783 O808 1.941 . S
C784 O785 1.258 . S
C784 O786 1.263 . S
O785 Co782 1.970 . S
O785 C784 1.258 . S
O786 Co783 1.966 . S
O786 C784 1.263 . S
C787 O788 1.235 . S
C787 O814 1.289 . S
O788 C787 1.235 . S
C789 C791 1.400 . S
C789 N792 1.351 . S
C789 C794 1.501 . S
C790 C791 1.387 . S
C790 N793 1.341 . S
C791 C789 1.400 . S
C791 C790 1.387 . S
N792 Co783 2.022 . S
N792 C789 1.351 . S
N792 N793 1.365 . S
N793 C790 1.341 . S
N793 N792 1.365 . S
N793 H813 0.862 . S
C794 C789 1.501 . S
C794 H795 0.961 . S
C794 H796 0.961 . S
C794 H797 0.960 . S
H795 C794 0.961 . S
H796 C794 0.961 . S
H797 C794 0.960 . S
C798 N799 1.342 . S
C798 C802 1.401 . S
C798 C803 1.499 . S
N799 Co782 1.989 . S
N799 C798 1.342 . S
N799 N800 1.388 . S
N800 Co783 1.993 . S
N800 N799 1.388 . S
N800 C801 1.346 . S
C801 N800 1.346 . S
C801 C802 1.396 . S
C801 C811 1.510 . S
C802 C798 1.401 . S
C802 C801 1.396 . S
C803 C798 1.499 . S
C803 H804 0.959 . S
C803 H805 0.960 . S
C803 H806 0.961 . S
H804 C803 0.959 . S
H805 C803 0.960 . S
H806 C803 0.961 . S
O807 Co782 1.967 . S
O807 C815 1.258 . S
O808 Co783 1.941 . S
O808 C815 1.266 . S
H809 C811 0.959 . S
H810 C811 0.961 . S
C811 C801 1.510 . S
C811 H809 0.959 . S
C811 H810 0.961 . S
C811 H812 0.960 . S
H812 C811 0.960 . S
H813 N793 0.862 . S
O814 Co782 1.920 . S
O814 C787 1.289 . S
C815 O807 1.258 . S
C815 O808 1.266 . S
H816 C824 0.950 . S
H817 C829 0.950 . S
H818 C826 0.950 1_455 S
H819 C828 0.950 . S
H820 C830 0.950 . S
H821 C832 0.950 1_655 S
H822 C834 0.950 . S
H823 C835 0.950 . S
C824 H816 0.950 . S
C824 C825 1.386 . S
C824 C826 1.391 . S
C825 C824 1.386 . S
C825 C829 1.393 . S
C826 H818 0.950 1_655 S
C826 C824 1.391 . S
C826 C827 1.400 . S
C827 C826 1.400 . S
C827 C828 1.398 . S
C827 C833 1.491 1_655 S
C828 H819 0.950 . S
C828 C827 1.398 . S
C828 C829 1.391 . S
C829 H817 0.950 . S
C829 C825 1.393 . S
C829 C828 1.391 . S
C830 H820 0.950 . S
C830 C831 1.386 . S
C830 C832 1.391 . S
C831 C830 1.386 . S
C831 C835 1.393 . S
C832 H821 0.950 1_455 S
C832 C830 1.391 . S
C832 C833 1.400 . S
C833 C827 1.491 1_455 S
C833 C832 1.400 . S
C833 C834 1.398 . S
C834 H822 0.950 . S
C834 C833 1.398 . S
C834 C835 1.391 . S
C835 H823 0.950 . S
C835 C831 1.393 . S
C835 C834 1.391 . S
H836 C844 0.950 . S
H837 C849 0.950 . S
H838 C846 0.950 . S
H839 C848 0.950 . S
H840 C850 0.950 . S
H841 C852 0.950 . S
H842 C854 0.950 . S
H843 C855 0.950 . S
C844 H836 0.950 . S
C844 C845 1.386 . S
C844 C846 1.391 . S
C845 C844 1.386 . S
C845 C849 1.393 . S
C846 H838 0.950 . S
C846 C844 1.391 . S
C846 C847 1.400 . S
C847 C846 1.400 . S
C847 C848 1.398 . S
C847 C853 1.491 1_565 S
C848 H839 0.950 . S
C848 C847 1.398 . S
C848 C849 1.391 . S
C849 H837 0.950 . S
C849 C845 1.393 . S
C849 C848 1.391 . S
C850 H840 0.950 . S
C850 C851 1.386 . S
C850 C852 1.391 . S
C851 C850 1.386 . S
C851 C855 1.393 . S
C852 H841 0.950 . S
C852 C850 1.391 . S
C852 C853 1.400 . S
C853 C847 1.491 1_545 S
C853 C852 1.400 . S
C853 C854 1.398 . S
C854 H842 0.950 . S
C854 C853 1.398 . S
C854 C855 1.391 . S
C855 H843 0.950 . S
C855 C851 1.393 . S
C855 C854 1.391 . S
H856 C864 0.950 . S
H857 C869 0.950 . S
H858 C866 0.950 . S
H859 C868 0.950 . S
H860 C870 0.950 . S
H861 C872 0.950 . S
H862 C874 0.950 . S
H863 C875 0.950 . S
C864 H856 0.950 . S
C864 C865 1.386 . S
C864 C866 1.391 . S
C865 C864 1.386 . S
C865 C869 1.393 . S
C866 H858 0.950 . S
C866 C864 1.391 . S
C866 C867 1.400 . S
C867 C866 1.400 . S
C867 C868 1.398 . S
C867 C873 1.491 1_455 S
C868 H859 0.950 . S
C868 C867 1.398 . S
C868 C869 1.391 . S
C869 H857 0.950 . S
C869 C865 1.393 . S
C869 C868 1.391 . S
C870 H860 0.950 . S
C870 C871 1.386 . S
C870 C872 1.391 . S
C871 C870 1.386 . S
C871 C875 1.393 . S
C872 H861 0.950 . S
C872 C870 1.391 . S
C872 C873 1.400 . S
C873 C867 1.491 1_655 S
C873 C872 1.400 . S
C873 C874 1.398 . S
C874 H862 0.950 . S
C874 C873 1.398 . S
C874 C875 1.391 . S
C875 H863 0.950 . S
C875 C871 1.393 . S
C875 C874 1.391 . S
H876 C884 0.950 . S
H877 C889 0.950 . S
H878 C886 0.950 . S
H879 C888 0.949 1_545 S
H880 C890 0.950 . S
H881 C892 0.950 . S
H882 C894 0.949 1_565 S
H883 C895 0.950 . S
C884 H876 0.950 . S
C884 C885 1.386 . S
C884 C886 1.391 . S
C885 C884 1.386 . S
C885 C889 1.393 . S
C886 H878 0.950 . S
C886 C884 1.391 . S
C886 C887 1.400 . S
C887 C886 1.400 . S
C887 C888 1.398 . S
C887 C893 1.491 1_565 S
C888 H879 0.949 1_565 S
C888 C887 1.398 . S
C888 C889 1.391 . S
C889 H877 0.950 . S
C889 C885 1.393 . S
C889 C888 1.391 . S
C890 H880 0.950 . S
C890 C891 1.386 . S
C890 C892 1.391 . S
C891 C890 1.386 . S
C891 C895 1.393 . S
C892 H881 0.950 . S
C892 C890 1.391 . S
C892 C893 1.400 . S
C893 C887 1.491 1_545 S
C893 C892 1.400 . S
C893 C894 1.398 . S
C894 H882 0.949 1_545 S
C894 C893 1.398 . S
C894 C895 1.391 . S
C895 H883 0.950 . S
C895 C891 1.393 . S
C895 C894 1.391 . S
H896 C904 0.950 . S
H897 C909 0.950 . S
H898 C906 0.950 . S
H899 C908 0.950 . S
H900 C910 0.950 . S
H901 C912 0.950 . S
H902 C914 0.950 . S
H903 C915 0.950 . S
C904 H896 0.950 . S
C904 C905 1.386 . S
C904 C906 1.391 . S
C905 C904 1.386 . S
C905 C909 1.393 . S
C906 H898 0.950 . S
C906 C904 1.391 . S
C906 C907 1.400 . S
C907 C906 1.400 . S
C907 C908 1.398 . S
C907 C913 1.491 1_655 S
C908 H899 0.950 . S
C908 C907 1.398 . S
C908 C909 1.391 . S
C909 H897 0.950 . S
C909 C905 1.393 . S
C909 C908 1.391 . S
C910 H900 0.950 . S
C910 C911 1.386 . S
C910 C912 1.391 . S
C911 C910 1.386 . S
C911 C915 1.393 . S
C912 H901 0.950 . S
C912 C910 1.391 . S
C912 C913 1.400 . S
C913 C907 1.491 1_455 S
C913 C912 1.400 . S
C913 C914 1.398 . S
C914 H902 0.950 . S
C914 C913 1.398 . S
C914 C915 1.391 . S
C915 H903 0.950 . S
C915 C911 1.393 . S
C915 C914 1.391 . S
H916 C924 0.950 . S
H917 C929 0.950 . S
H918 C926 0.950 . S
H919 C928 0.950 . S
H920 C930 0.950 . S
H921 C932 0.950 . S
H922 C934 0.950 . S
H923 C935 0.950 . S
C924 H916 0.950 . S
C924 C925 1.386 . S
C924 C926 1.391 . S
C925 C924 1.386 . S
C925 C929 1.393 . S
C926 H918 0.950 . S
C926 C924 1.391 . S
C926 C927 1.400 . S
C927 C926 1.400 . S
C927 C928 1.398 . S
C927 C933 1.491 1_545 S
C928 H919 0.950 . S
C928 C927 1.398 . S
C928 C929 1.391 . S
C929 H917 0.950 . S
C929 C925 1.393 . S
C929 C928 1.391 . S
C930 H920 0.950 . S
C930 C931 1.386 . S
C930 C932 1.391 . S
C931 C930 1.386 . S
C931 C935 1.393 . S
C932 H921 0.950 . S
C932 C930 1.391 . S
C932 C933 1.400 . S
C933 C927 1.491 1_565 S
C933 C932 1.400 . S
C933 C934 1.398 . S
C934 H922 0.950 . S
C934 C933 1.398 . S
C934 C935 1.391 . S
C935 H923 0.950 . S
C935 C931 1.393 . S
C935 C934 1.391 . S
H936 C944 0.950 . S
H937 C949 0.950 . S
H938 C946 0.950 . S
H939 C948 0.950 . S
H940 C950 0.950 . S
H941 C952 0.950 . S
H942 C954 0.950 . S
H943 C955 0.950 . S
C944 H936 0.950 . S
C944 C945 1.386 . S
C944 C946 1.391 . S
C945 C944 1.386 . S
C945 C949 1.393 . S
C946 H938 0.950 . S
C946 C944 1.391 . S
C946 C947 1.400 . S
C947 C946 1.400 . S
C947 C948 1.398 . S
C947 C953 1.491 1_655 S
C948 H939 0.950 . S
C948 C947 1.398 . S
C948 C949 1.391 . S
C949 H937 0.950 . S
C949 C945 1.393 . S
C949 C948 1.391 . S
C950 H940 0.950 . S
C950 C951 1.386 . S
C950 C952 1.391 . S
C951 C950 1.386 . S
C951 C955 1.393 . S
C952 H941 0.950 . S
C952 C950 1.391 . S
C952 C953 1.400 . S
C953 C947 1.491 1_455 S
C953 C952 1.400 . S
C953 C954 1.398 . S
C954 H942 0.950 . S
C954 C953 1.398 . S
C954 C955 1.391 . S
C955 H943 0.950 . S
C955 C951 1.393 . S
C955 C954 1.391 . S
H956 C964 0.950 . S
H957 C969 0.950 . S
H958 C966 0.950 . S
H959 C968 0.950 . S
H960 C970 0.950 . S
H961 C972 0.950 . S
H962 C974 0.950 . S
H963 C975 0.950 . S
C964 H956 0.950 . S
C964 C965 1.386 . S
C964 C966 1.391 . S
C965 C964 1.386 . S
C965 C969 1.393 . S
C966 H958 0.950 . S
C966 C964 1.391 . S
C966 C967 1.400 . S
C967 C966 1.400 . S
C967 C968 1.398 . S
C967 C973 1.491 1_565 S
C968 H959 0.950 . S
C968 C967 1.398 . S
C968 C969 1.391 . S
C969 H957 0.950 . S
C969 C965 1.393 . S
C969 C968 1.391 . S
C970 H960 0.950 . S
C970 C971 1.386 . S
C970 C972 1.391 . S
C971 C970 1.386 . S
C971 C975 1.393 . S
C972 H961 0.950 . S
C972 C970 1.391 . S
C972 C973 1.400 . S
C973 C967 1.491 1_545 S
C973 C972 1.400 . S
C973 C974 1.398 . S
C974 H962 0.950 . S
C974 C973 1.398 . S
C974 C975 1.391 . S
C975 H963 0.950 . S
C975 C971 1.393 . S
C975 C974 1.391 . S
H976 C984 0.950 . S
H977 C989 0.950 . S
H978 C986 0.950 . S
H979 C988 0.950 . S
H980 C990 0.950 . S
H981 C992 0.950 . S
H982 C994 0.950 . S
H983 C995 0.950 . S
C984 H976 0.950 . S
C984 C985 1.386 . S
C984 C986 1.391 . S
C985 C984 1.386 . S
C985 C989 1.393 . S
C986 H978 0.950 . S
C986 C984 1.391 . S
C986 C987 1.400 . S
C987 C986 1.400 . S
C987 C988 1.398 . S
C987 C993 1.491 1_554 S
C988 H979 0.950 . S
C988 C987 1.398 . S
C988 C989 1.391 . S
C989 H977 0.950 . S
C989 C985 1.393 . S
C989 C988 1.391 . S
C990 H980 0.950 . S
C990 C991 1.386 . S
C990 C992 1.391 . S
C991 C990 1.386 . S
C991 C995 1.393 . S
C992 H981 0.950 . S
C992 C990 1.391 . S
C992 C993 1.400 . S
C993 C987 1.491 1_556 S
C993 C992 1.400 . S
C993 C994 1.398 . S
C994 H982 0.950 . S
C994 C993 1.398 . S
C994 C995 1.391 . S
C995 H983 0.950 . S
C995 C991 1.393 . S
C995 C994 1.391 . S
H996 C1004 0.950 . S
H997 C1009 0.950 . S
H998 C1006 0.950 . S
H999 C1008 0.950 . S
H1000 C1010 0.950 . S
H1001 C1012 0.950 . S
H1002 C1014 0.950 . S
H1003 C1015 0.950 . S
C1004 H996 0.950 . S
C1004 C1005 1.386 . S
C1004 C1006 1.391 . S
C1005 C1004 1.386 . S
C1005 C1009 1.393 . S
C1006 H998 0.950 . S
C1006 C1004 1.391 . S
C1006 C1007 1.400 . S
C1007 C1006 1.400 . S
C1007 C1008 1.398 . S
C1007 C1013 1.491 1_554 S
C1008 H999 0.950 . S
C1008 C1007 1.398 . S
C1008 C1009 1.391 . S
C1009 H997 0.950 . S
C1009 C1005 1.393 . S
C1009 C1008 1.391 . S
C1010 H1000 0.950 . S
C1010 C1011 1.386 . S
C1010 C1012 1.391 . S
C1011 C1010 1.386 . S
C1011 C1015 1.393 . S
C1012 H1001 0.950 . S
C1012 C1010 1.391 . S
C1012 C1013 1.400 . S
C1013 C1007 1.491 1_556 S
C1013 C1012 1.400 . S
C1013 C1014 1.398 . S
C1014 H1002 0.950 . S
C1014 C1013 1.398 . S
C1014 C1015 1.391 . S
C1015 H1003 0.950 . S
C1015 C1011 1.393 . S
C1015 C1014 1.391 . S
H1016 C1024 0.950 . S
H1017 C1029 0.950 . S
H1018 C1026 0.950 . S
H1019 C1028 0.950 1_554 S
H1020 C1030 0.950 . S
H1021 C1032 0.950 . S
H1022 C1034 0.950 1_556 S
H1023 C1035 0.950 . S
C1024 H1016 0.950 . S
C1024 C1025 1.386 . S
C1024 C1026 1.391 . S
C1025 C1024 1.386 . S
C1025 C1029 1.393 . S
C1026 H1018 0.950 . S
C1026 C1024 1.391 . S
C1026 C1027 1.400 . S
C1027 C1026 1.400 . S
C1027 C1028 1.398 . S
C1027 C1033 1.491 1_556 S
C1028 H1019 0.950 1_556 S
C1028 C1027 1.398 . S
C1028 C1029 1.391 . S
C1029 H1017 0.950 . S
C1029 C1025 1.393 . S
C1029 C1028 1.391 . S
C1030 H1020 0.950 . S
C1030 C1031 1.386 . S
C1030 C1032 1.391 . S
C1031 C1030 1.386 . S
C1031 C1035 1.393 . S
C1032 H1021 0.950 . S
C1032 C1030 1.391 . S
C1032 C1033 1.400 . S
C1033 C1027 1.491 1_554 S
C1033 C1032 1.400 . S
C1033 C1034 1.398 . S
C1034 H1022 0.950 1_554 S
C1034 C1033 1.398 . S
C1034 C1035 1.391 . S
C1035 H1023 0.950 . S
C1035 C1031 1.393 . S
C1035 C1034 1.391 . S
H1036 C1044 0.950 . S
H1037 C1049 0.950 . S
H1038 C1046 0.950 . S
H1039 C1048 0.950 . S
H1040 C1050 0.950 . S
H1041 C1052 0.950 . S
H1042 C1054 0.950 . S
H1043 C1055 0.950 . S
C1044 H1036 0.950 . S
C1044 C1045 1.386 . S
C1044 C1046 1.391 . S
C1045 C1044 1.386 . S
C1045 C1049 1.393 . S
C1046 H1038 0.950 . S
C1046 C1044 1.391 . S
C1046 C1047 1.400 . S
C1047 C1046 1.400 . S
C1047 C1048 1.398 . S
C1047 C1053 1.491 1_554 S
C1048 H1039 0.950 . S
C1048 C1047 1.398 . S
C1048 C1049 1.391 . S
C1049 H1037 0.950 . S
C1049 C1045 1.393 . S
C1049 C1048 1.391 . S
C1050 H1040 0.950 . S
C1050 C1051 1.386 . S
C1050 C1052 1.391 . S
C1051 C1050 1.386 . S
C1051 C1055 1.393 . S
C1052 H1041 0.950 . S
C1052 C1050 1.391 . S
C1052 C1053 1.400 . S
C1053 C1047 1.491 1_556 S
C1053 C1052 1.400 . S
C1053 C1054 1.398 . S
C1054 H1042 0.950 . S
C1054 C1053 1.398 . S
C1054 C1055 1.391 . S
C1055 H1043 0.950 . S
C1055 C1051 1.393 . S
C1055 C1054 1.391 . S
H1056 C1064 0.950 . S
H1057 C1069 0.950 . S
H1058 C1066 0.950 . S
H1059 C1068 0.950 . S
H1060 C1070 0.950 . S
H1061 C1072 0.950 . S
H1062 C1074 0.950 . S
H1063 C1075 0.950 . S
C1064 H1056 0.950 . S
C1064 C1065 1.386 . S
C1064 C1066 1.391 . S
C1065 C1064 1.386 . S
C1065 C1069 1.393 . S
C1066 H1058 0.950 . S
C1066 C1064 1.391 . S
C1066 C1067 1.400 . S
C1067 C1066 1.400 . S
C1067 C1068 1.398 . S
C1067 C1073 1.491 . S
C1068 H1059 0.950 . S
C1068 C1067 1.398 . S
C1068 C1069 1.391 . S
C1069 H1057 0.950 . S
C1069 C1065 1.393 . S
C1069 C1068 1.391 . S
C1070 H1060 0.950 . S
C1070 C1071 1.386 . S
C1070 C1072 1.391 . S
C1071 C1070 1.386 . S
C1071 C1075 1.393 . S
C1072 H1061 0.950 . S
C1072 C1070 1.391 . S
C1072 C1073 1.400 . S
C1073 C1067 1.491 . S
C1073 C1072 1.400 . S
C1073 C1074 1.398 . S
C1074 H1062 0.950 . S
C1074 C1073 1.398 . S
C1074 C1075 1.391 . S
C1075 H1063 0.950 . S
C1075 C1071 1.393 . S
C1075 C1074 1.391 . S
H1076 C1084 0.950 . S
H1077 C1089 0.950 . S
H1078 C1086 0.950 . S
H1079 C1088 0.950 . S
H1080 C1090 0.950 . S
H1081 C1092 0.950 . S
H1082 C1094 0.950 . S
H1083 C1095 0.950 . S
C1084 H1076 0.950 . S
C1084 C1085 1.386 . S
C1084 C1086 1.391 . S
C1085 C1084 1.386 . S
C1085 C1089 1.393 . S
C1086 H1078 0.950 . S
C1086 C1084 1.391 . S
C1086 C1087 1.400 . S
C1087 C1086 1.400 . S
C1087 C1088 1.398 . S
C1087 C1093 1.491 . S
C1088 H1079 0.950 . S
C1088 C1087 1.398 . S
C1088 C1089 1.391 . S
C1089 H1077 0.950 . S
C1089 C1085 1.393 . S
C1089 C1088 1.391 . S
C1090 H1080 0.950 . S
C1090 C1091 1.386 . S
C1090 C1092 1.391 . S
C1091 C1090 1.386 . S
C1091 C1095 1.393 . S
C1092 H1081 0.950 . S
C1092 C1090 1.391 . S
C1092 C1093 1.400 . S
C1093 C1087 1.491 . S
C1093 C1092 1.400 . S
C1093 C1094 1.398 . S
C1094 H1082 0.950 . S
C1094 C1093 1.398 . S
C1094 C1095 1.391 . S
C1095 H1083 0.950 . S
C1095 C1091 1.393 . S
C1095 C1094 1.391 . S
H1096 C1104 0.950 . S
H1097 C1109 0.950 . S
H1098 C1106 0.950 . S
H1099 C1108 0.950 . S
H1100 C1110 0.950 . S
H1101 C1112 0.950 . S
H1102 C1114 0.950 . S
H1103 C1115 0.950 . S
C1104 H1096 0.950 . S
C1104 C1105 1.386 . S
C1104 C1106 1.391 . S
C1105 C1104 1.386 . S
C1105 C1109 1.393 . S
C1106 H1098 0.950 . S
C1106 C1104 1.391 . S
C1106 C1107 1.400 . S
C1107 C1106 1.400 . S
C1107 C1108 1.398 . S
C1107 C1113 1.491 . S
C1108 H1099 0.950 . S
C1108 C1107 1.398 . S
C1108 C1109 1.391 . S
C1109 H1097 0.950 . S
C1109 C1105 1.393 . S
C1109 C1108 1.391 . S
C1110 H1100 0.950 . S
C1110 C1111 1.386 . S
C1110 C1112 1.391 . S
C1111 C1110 1.386 . S
C1111 C1115 1.393 . S
C1112 H1101 0.950 . S
C1112 C1110 1.391 . S
C1112 C1113 1.400 . S
C1113 C1107 1.491 . S
C1113 C1112 1.400 . S
C1113 C1114 1.398 . S
C1114 H1102 0.950 . S
C1114 C1113 1.398 . S
C1114 C1115 1.391 . S
C1115 H1103 0.950 . S
C1115 C1111 1.393 . S
C1115 C1114 1.391 . S
H1116 C1124 0.950 . S
H1117 C1129 0.950 . S
H1118 C1126 0.950 . S
H1119 C1128 0.950 . S
H1120 C1130 0.950 . S
H1121 C1132 0.950 . S
H1122 C1134 0.950 . S
H1123 C1135 0.950 . S
C1124 H1116 0.950 . S
C1124 C1125 1.386 . S
C1124 C1126 1.391 . S
C1125 C1124 1.386 . S
C1125 C1129 1.393 . S
C1126 H1118 0.950 . S
C1126 C1124 1.391 . S
C1126 C1127 1.400 . S
C1127 C1126 1.400 . S
C1127 C1128 1.398 . S
C1127 C1133 1.491 . S
C1128 H1119 0.950 . S
C1128 C1127 1.398 . S
C1128 C1129 1.391 . S
C1129 H1117 0.950 . S
C1129 C1125 1.393 . S
C1129 C1128 1.391 . S
C1130 H1120 0.950 . S
C1130 C1131 1.386 . S
C1130 C1132 1.391 . S
C1131 C1130 1.386 . S
C1131 C1135 1.393 . S
C1132 H1121 0.950 . S
C1132 C1130 1.391 . S
C1132 C1133 1.400 . S
C1133 C1127 1.491 . S
C1133 C1132 1.400 . S
C1133 C1134 1.398 . S
C1134 H1122 0.950 . S
C1134 C1133 1.398 . S
C1134 C1135 1.391 . S
C1135 H1123 0.950 . S
C1135 C1131 1.393 . S
C1135 C1134 1.391 . S
H1136 C1144 0.950 . S
H1137 C1149 0.950 . S
H1138 C1146 0.950 . S
H1139 C1148 0.950 . S
H1140 C1150 0.950 . S
H1141 C1152 0.950 . S
H1142 C1154 0.950 . S
H1143 C1155 0.950 . S
C1144 H1136 0.950 . S
C1144 C1145 1.386 . S
C1144 C1146 1.391 . S
C1145 C1144 1.386 . S
C1145 C1149 1.393 . S
C1146 H1138 0.950 . S
C1146 C1144 1.391 . S
C1146 C1147 1.400 . S
C1147 C1146 1.400 . S
C1147 C1148 1.398 . S
C1147 C1153 1.491 . S
C1148 H1139 0.950 . S
C1148 C1147 1.398 . S
C1148 C1149 1.391 . S
C1149 H1137 0.950 . S
C1149 C1145 1.393 . S
C1149 C1148 1.391 . S
C1150 H1140 0.950 . S
C1150 C1151 1.386 . S
C1150 C1152 1.391 . S
C1151 C1150 1.386 . S
C1151 C1155 1.393 . S
C1152 H1141 0.950 . S
C1152 C1150 1.391 . S
C1152 C1153 1.400 . S
C1153 C1147 1.491 . S
C1153 C1152 1.400 . S
C1153 C1154 1.398 . S
C1154 H1142 0.950 . S
C1154 C1153 1.398 . S
C1154 C1155 1.391 . S
C1155 H1143 0.950 . S
C1155 C1151 1.393 . S
C1155 C1154 1.391 . S
H1156 C1164 0.950 . S
H1157 C1169 0.950 . S
H1158 C1166 0.950 . S
H1159 C1168 0.950 . S
H1160 C1170 0.950 . S
H1161 C1172 0.950 . S
H1162 C1174 0.950 . S
H1163 C1175 0.950 . S
C1164 H1156 0.950 . S
C1164 C1165 1.386 . S
C1164 C1166 1.391 . S
C1165 C1164 1.386 . S
C1165 C1169 1.393 . S
C1166 H1158 0.950 . S
C1166 C1164 1.391 . S
C1166 C1167 1.400 . S
C1167 C1166 1.400 . S
C1167 C1168 1.398 . S
C1167 C1173 1.491 . S
C1168 H1159 0.950 . S
C1168 C1167 1.398 . S
C1168 C1169 1.391 . S
C1169 H1157 0.950 . S
C1169 C1165 1.393 . S
C1169 C1168 1.391 . S
C1170 H1160 0.950 . S
C1170 C1171 1.386 . S
C1170 C1172 1.391 . S
C1171 C1170 1.386 . S
C1171 C1175 1.393 . S
C1172 H1161 0.950 . S
C1172 C1170 1.391 . S
C1172 C1173 1.400 . S
C1173 C1167 1.491 . S
C1173 C1172 1.400 . S
C1173 C1174 1.398 . S
C1174 H1162 0.950 . S
C1174 C1173 1.398 . S
C1174 C1175 1.391 . S
C1175 H1163 0.950 . S
C1175 C1171 1.393 . S
C1175 C1174 1.391 . S
H1176 C1184 0.950 . S
H1177 C1189 0.950 . S
H1178 C1186 0.950 . S
H1179 C1188 0.950 . S
H1180 C1190 0.950 . S
H1181 C1192 0.950 . S
H1182 C1194 0.950 . S
H1183 C1195 0.950 . S
C1184 H1176 0.950 . S
C1184 C1185 1.386 . S
C1184 C1186 1.391 . S
C1185 C1184 1.386 . S
C1185 C1189 1.393 . S
C1186 H1178 0.950 . S
C1186 C1184 1.391 . S
C1186 C1187 1.400 . S
C1187 C1186 1.400 . S
C1187 C1188 1.398 . S
C1187 C1193 1.491 . S
C1188 H1179 0.950 . S
C1188 C1187 1.398 . S
C1188 C1189 1.391 . S
C1189 H1177 0.950 . S
C1189 C1185 1.393 . S
C1189 C1188 1.391 . S
C1190 H1180 0.950 . S
C1190 C1191 1.386 . S
C1190 C1192 1.391 . S
C1191 C1190 1.386 . S
C1191 C1195 1.393 . S
C1192 H1181 0.950 . S
C1192 C1190 1.391 . S
C1192 C1193 1.400 . S
C1193 C1187 1.491 . S
C1193 C1192 1.400 . S
C1193 C1194 1.398 . S
C1194 H1182 0.950 . S
C1194 C1193 1.398 . S
C1194 C1195 1.391 . S
C1195 H1183 0.950 . S
C1195 C1191 1.393 . S
C1195 C1194 1.391 . S
H1196 C1204 0.950 . S
H1197 C1209 0.950 . S
H1198 C1206 0.950 . S
H1199 C1208 0.950 . S
H1200 C1210 0.950 . S
H1201 C1212 0.950 . S
H1202 C1214 0.950 . S
H1203 C1215 0.950 . S
C1204 H1196 0.950 . S
C1204 C1205 1.386 . S
C1204 C1206 1.391 . S
C1205 C1204 1.386 . S
C1205 C1209 1.393 . S
C1206 H1198 0.950 . S
C1206 C1204 1.391 . S
C1206 C1207 1.400 . S
C1207 C1206 1.400 . S
C1207 C1208 1.398 . S
C1207 C1213 1.491 . S
C1208 H1199 0.950 . S
C1208 C1207 1.398 . S
C1208 C1209 1.391 . S
C1209 H1197 0.950 . S
C1209 C1205 1.393 . S
C1209 C1208 1.391 . S
C1210 H1200 0.950 . S
C1210 C1211 1.386 . S
C1210 C1212 1.391 . S
C1211 C1210 1.386 . S
C1211 C1215 1.393 . S
C1212 H1201 0.950 . S
C1212 C1210 1.391 . S
C1212 C1213 1.400 . S
C1213 C1207 1.491 . S
C1213 C1212 1.400 . S
C1213 C1214 1.398 . S
C1214 H1202 0.950 . S
C1214 C1213 1.398 . S
C1214 C1215 1.391 . S
C1215 H1203 0.950 . S
C1215 C1211 1.393 . S
C1215 C1214 1.391 . S
H1216 C1224 0.950 . S
H1217 C1229 0.950 . S
H1218 C1226 0.950 . S
H1219 C1228 0.950 . S
H1220 C1230 0.950 . S
H1221 C1232 0.950 . S
H1222 C1234 0.950 . S
H1223 C1235 0.950 . S
C1224 H1216 0.950 . S
C1224 C1225 1.386 . S
C1224 C1226 1.391 . S
C1225 C1224 1.386 . S
C1225 C1229 1.393 . S
C1226 H1218 0.950 . S
C1226 C1224 1.391 . S
C1226 C1227 1.400 . S
C1227 C1226 1.400 . S
C1227 C1228 1.398 . S
C1227 C1233 1.491 . S
C1228 H1219 0.950 . S
C1228 C1227 1.398 . S
C1228 C1229 1.391 . S
C1229 H1217 0.950 . S
C1229 C1225 1.393 . S
C1229 C1228 1.391 . S
C1230 H1220 0.950 . S
C1230 C1231 1.386 . S
C1230 C1232 1.391 . S
C1231 C1230 1.386 . S
C1231 C1235 1.393 . S
C1232 H1221 0.950 . S
C1232 C1230 1.391 . S
C1232 C1233 1.400 . S
C1233 C1227 1.491 . S
C1233 C1232 1.400 . S
C1233 C1234 1.398 . S
C1234 H1222 0.950 . S
C1234 C1233 1.398 . S
C1234 C1235 1.391 . S
C1235 H1223 0.950 . S
C1235 C1231 1.393 . S
C1235 C1234 1.391 . S
H1236 C1244 0.950 . S
H1237 C1249 0.950 . S
H1238 C1246 0.950 . S
H1239 C1248 0.950 . S
H1240 C1250 0.950 . S
H1241 C1252 0.950 . S
H1242 C1254 0.950 . S
H1243 C1255 0.950 . S
C1244 H1236 0.950 . S
C1244 C1245 1.386 . S
C1244 C1246 1.391 . S
C1245 C1244 1.386 . S
C1245 C1249 1.393 . S
C1246 H1238 0.950 . S
C1246 C1244 1.391 . S
C1246 C1247 1.400 . S
C1247 C1246 1.400 . S
C1247 C1248 1.398 . S
C1247 C1253 1.491 . S
C1248 H1239 0.950 . S
C1248 C1247 1.398 . S
C1248 C1249 1.391 . S
C1249 H1237 0.950 . S
C1249 C1245 1.393 . S
C1249 C1248 1.391 . S
C1250 H1240 0.950 . S
C1250 C1251 1.386 . S
C1250 C1252 1.391 . S
C1251 C1250 1.386 . S
C1251 C1255 1.393 . S
C1252 H1241 0.950 . S
C1252 C1250 1.391 . S
C1252 C1253 1.400 . S
C1253 C1247 1.491 . S
C1253 C1252 1.400 . S
C1253 C1254 1.398 . S
C1254 H1242 0.950 . S
C1254 C1253 1.398 . S
C1254 C1255 1.391 . S
C1255 H1243 0.950 . S
C1255 C1251 1.393 . S
C1255 C1254 1.391 . S
H1256 C1264 0.950 . S
H1257 C1269 0.950 . S
H1258 C1266 0.950 . S
H1259 C1268 0.950 . S
H1260 C1270 0.950 . S
H1261 C1272 0.950 . S
H1262 C1274 0.950 . S
H1263 C1275 0.950 . S
C1264 H1256 0.950 . S
C1264 C1265 1.386 . S
C1264 C1266 1.391 . S
C1265 C1264 1.386 . S
C1265 C1269 1.393 . S
C1266 H1258 0.950 . S
C1266 C1264 1.391 . S
C1266 C1267 1.400 . S
C1267 C1266 1.400 . S
C1267 C1268 1.398 . S
C1267 C1273 1.491 . S
C1268 H1259 0.950 . S
C1268 C1267 1.398 . S
C1268 C1269 1.391 . S
C1269 H1257 0.950 . S
C1269 C1265 1.393 . S
C1269 C1268 1.391 . S
C1270 H1260 0.950 . S
C1270 C1271 1.386 . S
C1270 C1272 1.391 . S
C1271 C1270 1.386 . S
C1271 C1275 1.393 . S
C1272 H1261 0.950 . S
C1272 C1270 1.391 . S
C1272 C1273 1.400 . S
C1273 C1267 1.491 . S
C1273 C1272 1.400 . S
C1273 C1274 1.398 . S
C1274 H1262 0.950 . S
C1274 C1273 1.398 . S
C1274 C1275 1.391 . S
C1275 H1263 0.950 . S
C1275 C1271 1.393 . S
C1275 C1274 1.391 . S
H1276 C1284 0.950 . S
H1277 C1289 0.950 . S
H1278 C1286 0.950 . S
H1279 C1288 0.950 . S
H1280 C1290 0.950 . S
H1281 C1292 0.950 . S
H1282 C1294 0.950 . S
H1283 C1295 0.950 . S
C1284 H1276 0.950 . S
C1284 C1285 1.386 . S
C1284 C1286 1.391 . S
C1285 C1284 1.386 . S
C1285 C1289 1.393 . S
C1286 H1278 0.950 . S
C1286 C1284 1.391 . S
C1286 C1287 1.400 . S
C1287 C1286 1.400 . S
C1287 C1288 1.398 . S
C1287 C1293 1.491 . S
C1288 H1279 0.950 . S
C1288 C1287 1.398 . S
C1288 C1289 1.391 . S
C1289 H1277 0.950 . S
C1289 C1285 1.393 . S
C1289 C1288 1.391 . S
C1290 H1280 0.950 . S
C1290 C1291 1.386 . S
C1290 C1292 1.391 . S
C1291 C1290 1.386 . S
C1291 C1295 1.393 . S
C1292 H1281 0.950 . S
C1292 C1290 1.391 . S
C1292 C1293 1.400 . S
C1293 C1287 1.491 . S
C1293 C1292 1.400 . S
C1293 C1294 1.398 . S
C1294 H1282 0.950 . S
C1294 C1293 1.398 . S
C1294 C1295 1.391 . S
C1295 H1283 0.950 . S
C1295 C1291 1.393 . S
C1295 C1294 1.391 . S
H1296 C1304 0.950 . S
H1297 C1309 0.950 . S
H1298 C1306 0.950 . S
H1299 C1308 0.950 . S
H1300 C1310 0.950 . S
H1301 C1312 0.950 . S
H1302 C1314 0.950 . S
H1303 C1315 0.950 . S
C1304 H1296 0.950 . S
C1304 C1305 1.386 . S
C1304 C1306 1.391 . S
C1305 C1304 1.386 . S
C1305 C1309 1.393 . S
C1306 H1298 0.950 . S
C1306 C1304 1.391 . S
C1306 C1307 1.400 . S
C1307 C1306 1.400 . S
C1307 C1308 1.398 . S
C1307 C1313 1.491 . S
C1308 H1299 0.950 . S
C1308 C1307 1.398 . S
C1308 C1309 1.391 . S
C1309 H1297 0.950 . S
C1309 C1305 1.393 . S
C1309 C1308 1.391 . S
C1310 H1300 0.950 . S
C1310 C1311 1.386 . S
C1310 C1312 1.391 . S
C1311 C1310 1.386 . S
C1311 C1315 1.393 . S
C1312 H1301 0.950 . S
C1312 C1310 1.391 . S
C1312 C1313 1.400 . S
C1313 C1307 1.491 . S
C1313 C1312 1.400 . S
C1313 C1314 1.398 . S
C1314 H1302 0.950 . S
C1314 C1313 1.398 . S
C1314 C1315 1.391 . S
C1315 H1303 0.950 . S
C1315 C1311 1.393 . S
C1315 C1314 1.391 . S
H1316 C1324 0.950 . S
H1317 C1329 0.950 . S
H1318 C1326 0.950 . S
H1319 C1328 0.950 . S
H1320 C1330 0.950 . S
H1321 C1332 0.950 . S
H1322 C1334 0.950 . S
H1323 C1335 0.950 . S
C1324 H1316 0.950 . S
C1324 C1325 1.386 . S
C1324 C1326 1.391 . S
C1325 C1324 1.386 . S
C1325 C1329 1.393 . S
C1326 H1318 0.950 . S
C1326 C1324 1.391 . S
C1326 C1327 1.400 . S
C1327 C1326 1.400 . S
C1327 C1328 1.398 . S
C1327 C1333 1.491 . S
C1328 H1319 0.950 . S
C1328 C1327 1.398 . S
C1328 C1329 1.391 . S
C1329 H1317 0.950 . S
C1329 C1325 1.393 . S
C1329 C1328 1.391 . S
C1330 H1320 0.950 . S
C1330 C1331 1.386 . S
C1330 C1332 1.391 . S
C1331 C1330 1.386 . S
C1331 C1335 1.393 . S
C1332 H1321 0.950 . S
C1332 C1330 1.391 . S
C1332 C1333 1.400 . S
C1333 C1327 1.491 . S
C1333 C1332 1.400 . S
C1333 C1334 1.398 . S
C1334 H1322 0.950 . S
C1334 C1333 1.398 . S
C1334 C1335 1.391 . S
C1335 H1323 0.950 . S
C1335 C1331 1.393 . S
C1335 C1334 1.391 . S
H1336 C1344 0.950 . S
H1337 C1349 0.950 . S
H1338 C1346 0.950 . S
H1339 C1348 0.950 . S
H1340 C1350 0.950 . S
H1341 C1352 0.950 . S
H1342 C1354 0.950 . S
H1343 C1355 0.950 . S
C1344 H1336 0.950 . S
C1344 C1345 1.386 . S
C1344 C1346 1.391 . S
C1345 C1344 1.386 . S
C1345 C1349 1.393 . S
C1346 H1338 0.950 . S
C1346 C1344 1.391 . S
C1346 C1347 1.400 . S
C1347 C1346 1.400 . S
C1347 C1348 1.398 . S
C1347 C1353 1.491 . S
C1348 H1339 0.950 . S
C1348 C1347 1.398 . S
C1348 C1349 1.391 . S
C1349 H1337 0.950 . S
C1349 C1345 1.393 . S
C1349 C1348 1.391 . S
C1350 H1340 0.950 . S
C1350 C1351 1.386 . S
C1350 C1352 1.391 . S
C1351 C1350 1.386 . S
C1351 C1355 1.393 . S
C1352 H1341 0.950 . S
C1352 C1350 1.391 . S
C1352 C1353 1.400 . S
C1353 C1347 1.491 . S
C1353 C1352 1.400 . S
C1353 C1354 1.398 . S
C1354 H1342 0.950 . S
C1354 C1353 1.398 . S
C1354 C1355 1.391 . S
C1355 H1343 0.950 . S
C1355 C1351 1.393 . S
C1355 C1354 1.391 . S
H1356 C1364 0.950 . S
H1357 C1369 0.950 . S
H1358 C1366 0.950 . S
H1359 C1368 0.950 . S
H1360 C1370 0.950 . S
H1361 C1372 0.950 . S
H1362 C1374 0.950 . S
H1363 C1375 0.950 . S
C1364 H1356 0.950 . S
C1364 C1365 1.386 . S
C1364 C1366 1.391 . S
C1365 C1364 1.386 . S
C1365 C1369 1.393 . S
C1366 H1358 0.950 . S
C1366 C1364 1.391 . S
C1366 C1367 1.400 . S
C1367 C1366 1.400 . S
C1367 C1368 1.398 . S
C1367 C1373 1.491 . S
C1368 H1359 0.950 . S
C1368 C1367 1.398 . S
C1368 C1369 1.391 . S
C1369 H1357 0.950 . S
C1369 C1365 1.393 . S
C1369 C1368 1.391 . S
C1370 H1360 0.950 . S
C1370 C1371 1.386 . S
C1370 C1372 1.391 . S
C1371 C1370 1.386 . S
C1371 C1375 1.393 . S
C1372 H1361 0.950 . S
C1372 C1370 1.391 . S
C1372 C1373 1.400 . S
C1373 C1367 1.491 . S
C1373 C1372 1.400 . S
C1373 C1374 1.398 . S
C1374 H1362 0.950 . S
C1374 C1373 1.398 . S
C1374 C1375 1.391 . S
C1375 H1363 0.950 . S
C1375 C1371 1.393 . S
C1375 C1374 1.391 . S
H1376 C1384 0.950 . S
H1377 C1389 0.950 . S
H1378 C1386 0.950 . S
H1379 C1388 0.950 . S
H1380 C1390 0.950 . S
H1381 C1392 0.950 . S
H1382 C1394 0.950 . S
H1383 C1395 0.950 . S
C1384 H1376 0.950 . S
C1384 C1385 1.386 . S
C1384 C1386 1.391 . S
C1385 C1384 1.386 . S
C1385 C1389 1.393 . S
C1386 H1378 0.950 . S
C1386 C1384 1.391 . S
C1386 C1387 1.400 . S
C1387 C1386 1.400 . S
C1387 C1388 1.398 . S
C1387 C1393 1.491 . S
C1388 H1379 0.950 . S
C1388 C1387 1.398 . S
C1388 C1389 1.391 . S
C1389 H1377 0.950 . S
C1389 C1385 1.393 . S
C1389 C1388 1.391 . S
C1390 H1380 0.950 . S
C1390 C1391 1.386 . S
C1390 C1392 1.391 . S
C1391 C1390 1.386 . S
C1391 C1395 1.393 . S
C1392 H1381 0.950 . S
C1392 C1390 1.391 . S
C1392 C1393 1.400 . S
C1393 C1387 1.491 . S
C1393 C1392 1.400 . S
C1393 C1394 1.398 . S
C1394 H1382 0.950 . S
C1394 C1393 1.398 . S
C1394 C1395 1.391 . S
C1395 H1383 0.950 . S
C1395 C1391 1.393 . S
C1395 C1394 1.391 . S
H1396 C1404 0.950 . S
H1397 C1409 0.950 . S
H1398 C1406 0.950 . S
H1399 C1408 0.950 . S
H1400 C1410 0.950 . S
H1401 C1412 0.950 . S
H1402 C1414 0.950 . S
H1403 C1415 0.950 . S
C1404 H1396 0.950 . S
C1404 C1405 1.386 . S
C1404 C1406 1.391 . S
C1405 C1404 1.386 . S
C1405 C1409 1.393 . S
C1406 H1398 0.950 . S
C1406 C1404 1.391 . S
C1406 C1407 1.400 . S
C1407 C1406 1.400 . S
C1407 C1408 1.398 . S
C1407 C1413 1.491 . S
C1408 H1399 0.950 . S
C1408 C1407 1.398 . S
C1408 C1409 1.391 . S
C1409 H1397 0.950 . S
C1409 C1405 1.393 . S
C1409 C1408 1.391 . S
C1410 H1400 0.950 . S
C1410 C1411 1.386 . S
C1410 C1412 1.391 . S
C1411 C1410 1.386 . S
C1411 C1415 1.393 . S
C1412 H1401 0.950 . S
C1412 C1410 1.391 . S
C1412 C1413 1.400 . S
C1413 C1407 1.491 . S
C1413 C1412 1.400 . S
C1413 C1414 1.398 . S
C1414 H1402 0.950 . S
C1414 C1413 1.398 . S
C1414 C1415 1.391 . S
C1415 H1403 0.950 . S
C1415 C1411 1.393 . S
C1415 C1414 1.391 . S
H1416 C1424 0.950 . S
H1417 C1429 0.950 . S
H1418 C1426 0.950 . S
H1419 C1428 0.950 . S
H1420 C1430 0.950 . S
H1421 C1432 0.950 . S
H1422 C1434 0.950 . S
H1423 C1435 0.950 . S
C1424 H1416 0.950 . S
C1424 C1425 1.386 . S
C1424 C1426 1.391 . S
C1425 C1424 1.386 . S
C1425 C1429 1.393 . S
C1426 H1418 0.950 . S
C1426 C1424 1.391 . S
C1426 C1427 1.400 . S
C1427 C1426 1.400 . S
C1427 C1428 1.398 . S
C1427 C1433 1.491 . S
C1428 H1419 0.950 . S
C1428 C1427 1.398 . S
C1428 C1429 1.391 . S
C1429 H1417 0.950 . S
C1429 C1425 1.393 . S
C1429 C1428 1.391 . S
C1430 H1420 0.950 . S
C1430 C1431 1.386 . S
C1430 C1432 1.391 . S
C1431 C1430 1.386 . S
C1431 C1435 1.393 . S
C1432 H1421 0.950 . S
C1432 C1430 1.391 . S
C1432 C1433 1.400 . S
C1433 C1427 1.491 . S
C1433 C1432 1.400 . S
C1433 C1434 1.398 . S
C1434 H1422 0.950 . S
C1434 C1433 1.398 . S
C1434 C1435 1.391 . S
C1435 H1423 0.950 . S
C1435 C1431 1.393 . S
C1435 C1434 1.391 . S
H1436 C1444 0.950 . S
H1437 C1449 0.950 . S
H1438 C1446 0.950 . S
H1439 C1448 0.950 . S
H1440 C1450 0.950 . S
H1441 C1452 0.950 . S
H1442 C1454 0.950 . S
H1443 C1455 0.950 . S
C1444 H1436 0.950 . S
C1444 C1445 1.386 . S
C1444 C1446 1.391 . S
C1445 C1444 1.386 . S
C1445 C1449 1.393 . S
C1446 H1438 0.950 . S
C1446 C1444 1.391 . S
C1446 C1447 1.400 . S
C1447 C1446 1.400 . S
C1447 C1448 1.398 . S
C1447 C1453 1.491 . S
C1448 H1439 0.950 . S
C1448 C1447 1.398 . S
C1448 C1449 1.391 . S
C1449 H1437 0.950 . S
C1449 C1445 1.393 . S
C1449 C1448 1.391 . S
C1450 H1440 0.950 . S
C1450 C1451 1.386 . S
C1450 C1452 1.391 . S
C1451 C1450 1.386 . S
C1451 C1455 1.393 . S
C1452 H1441 0.950 . S
C1452 C1450 1.391 . S
C1452 C1453 1.400 . S
C1453 C1447 1.491 . S
C1453 C1452 1.400 . S
C1453 C1454 1.398 . S
C1454 H1442 0.950 . S
C1454 C1453 1.398 . S
C1454 C1455 1.391 . S
C1455 H1443 0.950 . S
C1455 C1451 1.393 . S
C1455 C1454 1.391 . S
H1456 C1464 0.950 . S
H1457 C1469 0.950 . S
H1458 C1466 0.950 . S
H1459 C1468 0.950 . S
H1460 C1470 0.950 . S
H1461 C1472 0.950 . S
H1462 C1474 0.950 . S
H1463 C1475 0.950 . S
C1464 H1456 0.950 . S
C1464 C1465 1.386 . S
C1464 C1466 1.391 . S
C1465 C1464 1.386 . S
C1465 C1469 1.393 . S
C1466 H1458 0.950 . S
C1466 C1464 1.391 . S
C1466 C1467 1.400 . S
C1467 C1466 1.400 . S
C1467 C1468 1.398 . S
C1467 C1473 1.491 . S
C1468 H1459 0.950 . S
C1468 C1467 1.398 . S
C1468 C1469 1.391 . S
C1469 H1457 0.950 . S
C1469 C1465 1.393 . S
C1469 C1468 1.391 . S
C1470 H1460 0.950 . S
C1470 C1471 1.386 . S
C1470 C1472 1.391 . S
C1471 C1470 1.386 . S
C1471 C1475 1.393 . S
C1472 H1461 0.950 . S
C1472 C1470 1.391 . S
C1472 C1473 1.400 . S
C1473 C1467 1.491 . S
C1473 C1472 1.400 . S
C1473 C1474 1.398 . S
C1474 H1462 0.950 . S
C1474 C1473 1.398 . S
C1474 C1475 1.391 . S
C1475 H1463 0.950 . S
C1475 C1471 1.393 . S
C1475 C1474 1.391 . S
H1476 C1484 0.950 . S
H1477 C1489 0.950 . S
H1478 C1486 0.950 . S
H1479 C1488 0.950 . S
H1480 C1490 0.950 . S
H1481 C1492 0.950 . S
H1482 C1494 0.950 . S
H1483 C1495 0.950 . S
C1484 H1476 0.950 . S
C1484 C1485 1.386 . S
C1484 C1486 1.391 . S
C1485 C1484 1.386 . S
C1485 C1489 1.393 . S
C1486 H1478 0.950 . S
C1486 C1484 1.391 . S
C1486 C1487 1.400 . S
C1487 C1486 1.400 . S
C1487 C1488 1.398 . S
C1487 C1493 1.491 . S
C1488 H1479 0.950 . S
C1488 C1487 1.398 . S
C1488 C1489 1.391 . S
C1489 H1477 0.950 . S
C1489 C1485 1.393 . S
C1489 C1488 1.391 . S
C1490 H1480 0.950 . S
C1490 C1491 1.386 . S
C1490 C1492 1.391 . S
C1491 C1490 1.386 . S
C1491 C1495 1.393 . S
C1492 H1481 0.950 . S
C1492 C1490 1.391 . S
C1492 C1493 1.400 . S
C1493 C1487 1.491 . S
C1493 C1492 1.400 . S
C1493 C1494 1.398 . S
C1494 H1482 0.950 . S
C1494 C1493 1.398 . S
C1494 C1495 1.391 . S
C1495 H1483 0.950 . S
C1495 C1491 1.393 . S
C1495 C1494 1.391 . S
H1496 C1504 0.950 . S
H1497 C1509 0.950 . S
H1498 C1506 0.950 . S
H1499 C1508 0.950 . S
H1500 C1510 0.950 . S
H1501 C1512 0.950 . S
H1502 C1514 0.950 . S
H1503 C1515 0.950 . S
C1504 H1496 0.950 . S
C1504 C1505 1.386 . S
C1504 C1506 1.391 . S
C1505 C1504 1.386 . S
C1505 C1509 1.393 . S
C1506 H1498 0.950 . S
C1506 C1504 1.391 . S
C1506 C1507 1.400 . S
C1507 C1506 1.400 . S
C1507 C1508 1.398 . S
C1507 C1513 1.491 . S
C1508 H1499 0.950 . S
C1508 C1507 1.398 . S
C1508 C1509 1.391 . S
C1509 H1497 0.950 . S
C1509 C1505 1.393 . S
C1509 C1508 1.391 . S
C1510 H1500 0.950 . S
C1510 C1511 1.386 . S
C1510 C1512 1.391 . S
C1511 C1510 1.386 . S
C1511 C1515 1.393 . S
C1512 H1501 0.950 . S
C1512 C1510 1.391 . S
C1512 C1513 1.400 . S
C1513 C1507 1.491 . S
C1513 C1512 1.400 . S
C1513 C1514 1.398 . S
C1514 H1502 0.950 . S
C1514 C1513 1.398 . S
C1514 C1515 1.391 . S
C1515 H1503 0.950 . S
C1515 C1511 1.393 . S
C1515 C1514 1.391 . S
H1516 C1524 0.950 . S
H1517 C1529 0.950 . S
H1518 C1526 0.950 . S
H1519 C1528 0.950 . S
H1520 C1530 0.950 . S
H1521 C1532 0.950 . S
H1522 C1534 0.950 . S
H1523 C1535 0.950 . S
C1524 H1516 0.950 . S
C1524 C1525 1.386 . S
C1524 C1526 1.391 . S
C1525 C1524 1.386 . S
C1525 C1529 1.393 . S
C1526 H1518 0.950 . S
C1526 C1524 1.391 . S
C1526 C1527 1.400 . S
C1527 C1526 1.400 . S
C1527 C1528 1.398 . S
C1527 C1533 1.491 . S
C1528 H1519 0.950 . S
C1528 C1527 1.398 . S
C1528 C1529 1.391 . S
C1529 H1517 0.950 . S
C1529 C1525 1.393 . S
C1529 C1528 1.391 . S
C1530 H1520 0.950 . S
C1530 C1531 1.386 . S
C1530 C1532 1.391 . S
C1531 C1530 1.386 . S
C1531 C1535 1.393 . S
C1532 H1521 0.950 . S
C1532 C1530 1.391 . S
C1532 C1533 1.400 . S
C1533 C1527 1.491 . S
C1533 C1532 1.400 . S
C1533 C1534 1.398 . S
C1534 H1522 0.950 . S
C1534 C1533 1.398 . S
C1534 C1535 1.391 . S
C1535 H1523 0.950 . S
C1535 C1531 1.393 . S
C1535 C1534 1.391 . S
H1536 C1544 0.950 . S
H1537 C1549 0.950 . S
H1538 C1546 0.950 . S
H1539 C1548 0.950 . S
H1540 C1550 0.950 . S
H1541 C1552 0.950 . S
H1542 C1554 0.950 . S
H1543 C1555 0.950 . S
C1544 H1536 0.950 . S
C1544 C1545 1.386 . S
C1544 C1546 1.391 . S
C1545 C1544 1.386 . S
C1545 C1549 1.393 . S
C1546 H1538 0.950 . S
C1546 C1544 1.391 . S
C1546 C1547 1.400 . S
C1547 C1546 1.400 . S
C1547 C1548 1.398 . S
C1547 C1553 1.491 . S
C1548 H1539 0.950 . S
C1548 C1547 1.398 . S
C1548 C1549 1.391 . S
C1549 H1537 0.950 . S
C1549 C1545 1.393 . S
C1549 C1548 1.391 . S
C1550 H1540 0.950 . S
C1550 C1551 1.386 . S
C1550 C1552 1.391 . S
C1551 C1550 1.386 . S
C1551 C1555 1.393 . S
C1552 H1541 0.950 . S
C1552 C1550 1.391 . S
C1552 C1553 1.400 . S
C1553 C1547 1.491 . S
C1553 C1552 1.400 . S
C1553 C1554 1.398 . S
C1554 H1542 0.950 . S
C1554 C1553 1.398 . S
C1554 C1555 1.391 . S
C1555 H1543 0.950 . S
C1555 C1551 1.393 . S
C1555 C1554 1.391 . S
H1556 C1564 0.950 . S
H1557 C1569 0.950 . S
H1558 C1566 0.950 . S
H1559 C1568 0.950 . S
H1560 C1570 0.950 . S
H1561 C1572 0.950 . S
H1562 C1574 0.950 . S
H1563 C1575 0.950 . S
C1564 H1556 0.950 . S
C1564 C1565 1.386 . S
C1564 C1566 1.391 . S
C1565 C1564 1.386 . S
C1565 C1569 1.393 . S
C1566 H1558 0.950 . S
C1566 C1564 1.391 . S
C1566 C1567 1.400 . S
C1567 C1566 1.400 . S
C1567 C1568 1.398 . S
C1567 C1573 1.491 . S
C1568 H1559 0.950 . S
C1568 C1567 1.398 . S
C1568 C1569 1.391 . S
C1569 H1557 0.950 . S
C1569 C1565 1.393 . S
C1569 C1568 1.391 . S
C1570 H1560 0.950 . S
C1570 C1571 1.386 . S
C1570 C1572 1.391 . S
C1571 C1570 1.386 . S
C1571 C1575 1.393 . S
C1572 H1561 0.950 . S
C1572 C1570 1.391 . S
C1572 C1573 1.400 . S
C1573 C1567 1.491 . S
C1573 C1572 1.400 . S
C1573 C1574 1.398 . S
C1574 H1562 0.950 . S
C1574 C1573 1.398 . S
C1574 C1575 1.391 . S
C1575 H1563 0.950 . S
C1575 C1571 1.393 . S
C1575 C1574 1.391 . S
H1576 C1584 0.950 . S
H1577 C1589 0.950 . S
H1578 C1586 0.950 . S
H1579 C1588 0.950 . S
H1580 C1590 0.950 . S
H1581 C1592 0.950 . S
H1582 C1594 0.950 . S
H1583 C1595 0.950 . S
C1584 H1576 0.950 . S
C1584 C1585 1.386 . S
C1584 C1586 1.391 . S
C1585 C1584 1.386 . S
C1585 C1589 1.393 . S
C1586 H1578 0.950 . S
C1586 C1584 1.391 . S
C1586 C1587 1.400 . S
C1587 C1586 1.400 . S
C1587 C1588 1.398 . S
C1587 C1593 1.491 . S
C1588 H1579 0.950 . S
C1588 C1587 1.398 . S
C1588 C1589 1.391 . S
C1589 H1577 0.950 . S
C1589 C1585 1.393 . S
C1589 C1588 1.391 . S
C1590 H1580 0.950 . S
C1590 C1591 1.386 . S
C1590 C1592 1.391 . S
C1591 C1590 1.386 . S
C1591 C1595 1.393 . S
C1592 H1581 0.950 . S
C1592 C1590 1.391 . S
C1592 C1593 1.400 . S
C1593 C1587 1.491 . S
C1593 C1592 1.400 . S
C1593 C1594 1.398 . S
C1594 H1582 0.950 . S
C1594 C1593 1.398 . S
C1594 C1595 1.391 . S
C1595 H1583 0.950 . S
C1595 C1591 1.393 . S
C1595 C1594 1.391 . S
H1596 C1604 0.950 . S
H1597 C1609 0.950 . S
H1598 C1606 0.950 . S
H1599 C1608 0.950 . S
H1600 C1610 0.950 . S
H1601 C1612 0.950 . S
H1602 C1614 0.950 . S
H1603 C1615 0.950 . S
C1604 H1596 0.950 . S
C1604 C1605 1.386 . S
C1604 C1606 1.391 . S
C1605 C1604 1.386 . S
C1605 C1609 1.393 . S
C1606 H1598 0.950 . S
C1606 C1604 1.391 . S
C1606 C1607 1.400 . S
C1607 C1606 1.400 . S
C1607 C1608 1.398 . S
C1607 C1613 1.491 . S
C1608 H1599 0.950 . S
C1608 C1607 1.398 . S
C1608 C1609 1.391 . S
C1609 H1597 0.950 . S
C1609 C1605 1.393 . S
C1609 C1608 1.391 . S
C1610 H1600 0.950 . S
C1610 C1611 1.386 . S
C1610 C1612 1.391 . S
C1611 C1610 1.386 . S
C1611 C1615 1.393 . S
C1612 H1601 0.950 . S
C1612 C1610 1.391 . S
C1612 C1613 1.400 . S
C1613 C1607 1.491 . S
C1613 C1612 1.400 . S
C1613 C1614 1.398 . S
C1614 H1602 0.950 . S
C1614 C1613 1.398 . S
C1614 C1615 1.391 . S
C1615 H1603 0.950 . S
C1615 C1611 1.393 . S
C1615 C1614 1.391 . S
H1616 C1624 0.950 . S
H1617 C1629 0.950 . S
H1618 C1626 0.950 . S
H1619 C1628 0.950 . S
H1620 C1630 0.950 . S
H1621 C1632 0.950 . S
H1622 C1634 0.950 . S
H1623 C1635 0.950 . S
C1624 H1616 0.950 . S
C1624 C1625 1.386 . S
C1624 C1626 1.391 . S
C1625 C1624 1.386 . S
C1625 C1629 1.393 . S
C1626 H1618 0.950 . S
C1626 C1624 1.391 . S
C1626 C1627 1.400 . S
C1627 C1626 1.400 . S
C1627 C1628 1.398 . S
C1627 C1633 1.491 . S
C1628 H1619 0.950 . S
C1628 C1627 1.398 . S
C1628 C1629 1.391 . S
C1629 H1617 0.950 . S
C1629 C1625 1.393 . S
C1629 C1628 1.391 . S
C1630 H1620 0.950 . S
C1630 C1631 1.386 . S
C1630 C1632 1.391 . S
C1631 C1630 1.386 . S
C1631 C1635 1.393 . S
C1632 H1621 0.950 . S
C1632 C1630 1.391 . S
C1632 C1633 1.400 . S
C1633 C1627 1.491 . S
C1633 C1632 1.400 . S
C1633 C1634 1.398 . S
C1634 H1622 0.950 . S
C1634 C1633 1.398 . S
C1634 C1635 1.391 . S
C1635 H1623 0.950 . S
C1635 C1631 1.393 . S
C1635 C1634 1.391 . S
H1636 C1644 0.950 . S
H1637 C1649 0.950 . S
H1638 C1646 0.950 . S
H1639 C1648 0.950 . S
H1640 C1650 0.950 . S
H1641 C1652 0.950 . S
H1642 C1654 0.950 . S
H1643 C1655 0.950 . S
C1644 H1636 0.950 . S
C1644 C1645 1.386 . S
C1644 C1646 1.391 . S
C1645 C1644 1.386 . S
C1645 C1649 1.393 . S
C1646 H1638 0.950 . S
C1646 C1644 1.391 . S
C1646 C1647 1.400 . S
C1647 C1646 1.400 . S
C1647 C1648 1.398 . S
C1647 C1653 1.491 . S
C1648 H1639 0.950 . S
C1648 C1647 1.398 . S
C1648 C1649 1.391 . S
C1649 H1637 0.950 . S
C1649 C1645 1.393 . S
C1649 C1648 1.391 . S
C1650 H1640 0.950 . S
C1650 C1651 1.386 . S
C1650 C1652 1.391 . S
C1651 C1650 1.386 . S
C1651 C1655 1.393 . S
C1652 H1641 0.950 . S
C1652 C1650 1.391 . S
C1652 C1653 1.400 . S
C1653 C1647 1.491 . S
C1653 C1652 1.400 . S
C1653 C1654 1.398 . S
C1654 H1642 0.950 . S
C1654 C1653 1.398 . S
C1654 C1655 1.391 . S
C1655 H1643 0.950 . S
C1655 C1651 1.393 . S
C1655 C1654 1.391 . S
H1656 C1664 0.950 . S
H1657 C1669 0.950 . S
H1658 C1666 0.950 . S
H1659 C1668 0.950 . S
H1660 C1670 0.950 . S
H1661 C1672 0.950 . S
H1662 C1674 0.950 . S
H1663 C1675 0.950 . S
C1664 H1656 0.950 . S
C1664 C1665 1.386 . S
C1664 C1666 1.391 . S
C1665 C1664 1.386 . S
C1665 C1669 1.393 . S
C1666 H1658 0.950 . S
C1666 C1664 1.391 . S
C1666 C1667 1.400 . S
C1667 C1666 1.400 . S
C1667 C1668 1.398 . S
C1667 C1673 1.491 . S
C1668 H1659 0.950 . S
C1668 C1667 1.398 . S
C1668 C1669 1.391 . S
C1669 H1657 0.950 . S
C1669 C1665 1.393 . S
C1669 C1668 1.391 . S
C1670 H1660 0.950 . S
C1670 C1671 1.386 . S
C1670 C1672 1.391 . S
C1671 C1670 1.386 . S
C1671 C1675 1.393 . S
C1672 H1661 0.950 . S
C1672 C1670 1.391 . S
C1672 C1673 1.400 . S
C1673 C1667 1.491 . S
C1673 C1672 1.400 . S
C1673 C1674 1.398 . S
C1674 H1662 0.950 . S
C1674 C1673 1.398 . S
C1674 C1675 1.391 . S
C1675 H1663 0.950 . S
C1675 C1671 1.393 . S
C1675 C1674 1.391 . S
H1676 C1684 0.950 . S
H1677 C1689 0.950 . S
H1678 C1686 0.950 . S
H1679 C1688 0.950 . S
H1680 C1690 0.950 . S
H1681 C1692 0.950 . S
H1682 C1694 0.950 . S
H1683 C1695 0.950 . S
C1684 H1676 0.950 . S
C1684 C1685 1.386 . S
C1684 C1686 1.391 . S
C1685 C1684 1.386 . S
C1685 C1689 1.393 . S
C1686 H1678 0.950 . S
C1686 C1684 1.391 . S
C1686 C1687 1.400 . S
C1687 C1686 1.400 . S
C1687 C1688 1.398 . S
C1687 C1693 1.491 . S
C1688 H1679 0.950 . S
C1688 C1687 1.398 . S
C1688 C1689 1.391 . S
C1689 H1677 0.950 . S
C1689 C1685 1.393 . S
C1689 C1688 1.391 . S
C1690 H1680 0.950 . S
C1690 C1691 1.386 . S
C1690 C1692 1.391 . S
C1691 C1690 1.386 . S
C1691 C1695 1.393 . S
C1692 H1681 0.950 . S
C1692 C1690 1.391 . S
C1692 C1693 1.400 . S
C1693 C1687 1.491 . S
C1693 C1692 1.400 . S
C1693 C1694 1.398 . S
C1694 H1682 0.950 . S
C1694 C1693 1.398 . S
C1694 C1695 1.391 . S
C1695 H1683 0.950 . S
C1695 C1691 1.393 . S
C1695 C1694 1.391 . S
H1696 C1704 0.950 . S
H1697 C1709 0.950 . S
H1698 C1706 0.950 . S
H1699 C1708 0.950 . S
H1700 C1710 0.950 . S
H1701 C1712 0.950 . S
H1702 C1714 0.950 . S
H1703 C1715 0.950 . S
C1704 H1696 0.950 . S
C1704 C1705 1.386 . S
C1704 C1706 1.391 . S
C1705 C1704 1.386 . S
C1705 C1709 1.393 . S
C1706 H1698 0.950 . S
C1706 C1704 1.391 . S
C1706 C1707 1.400 . S
C1707 C1706 1.400 . S
C1707 C1708 1.398 . S
C1707 C1713 1.491 . S
C1708 H1699 0.950 . S
C1708 C1707 1.398 . S
C1708 C1709 1.391 . S
C1709 H1697 0.950 . S
C1709 C1705 1.393 . S
C1709 C1708 1.391 . S
C1710 H1700 0.950 . S
C1710 C1711 1.386 . S
C1710 C1712 1.391 . S
C1711 C1710 1.386 . S
C1711 C1715 1.393 . S
C1712 H1701 0.950 . S
C1712 C1710 1.391 . S
C1712 C1713 1.400 . S
C1713 C1707 1.491 . S
C1713 C1712 1.400 . S
C1713 C1714 1.398 . S
C1714 H1702 0.950 . S
C1714 C1713 1.398 . S
C1714 C1715 1.391 . S
C1715 H1703 0.950 . S
C1715 C1711 1.393 . S
C1715 C1714 1.391 . S
H1716 C1724 0.950 . S
H1717 C1729 0.950 . S
H1718 C1726 0.950 . S
H1719 C1728 0.950 . S
H1720 C1730 0.950 . S
H1721 C1732 0.950 . S
H1722 C1734 0.950 . S
H1723 C1735 0.950 . S
C1724 H1716 0.950 . S
C1724 C1725 1.386 . S
C1724 C1726 1.391 . S
C1725 C1724 1.386 . S
C1725 C1729 1.393 . S
C1726 H1718 0.950 . S
C1726 C1724 1.391 . S
C1726 C1727 1.400 . S
C1727 C1726 1.400 . S
C1727 C1728 1.398 . S
C1727 C1733 1.491 . S
C1728 H1719 0.950 . S
C1728 C1727 1.398 . S
C1728 C1729 1.391 . S
C1729 H1717 0.950 . S
C1729 C1725 1.393 . S
C1729 C1728 1.391 . S
C1730 H1720 0.950 . S
C1730 C1731 1.386 . S
C1730 C1732 1.391 . S
C1731 C1730 1.386 . S
C1731 C1735 1.393 . S
C1732 H1721 0.950 . S
C1732 C1730 1.391 . S
C1732 C1733 1.400 . S
C1733 C1727 1.491 . S
C1733 C1732 1.400 . S
C1733 C1734 1.398 . S
C1734 H1722 0.950 . S
C1734 C1733 1.398 . S
C1734 C1735 1.391 . S
C1735 H1723 0.950 . S
C1735 C1731 1.393 . S
C1735 C1734 1.391 . S
H1736 C1744 0.950 . S
H1737 C1749 0.950 . S
H1738 C1746 0.950 . S
H1739 C1748 0.950 . S
H1740 C1750 0.950 . S
H1741 C1752 0.950 . S
H1742 C1754 0.950 . S
H1743 C1755 0.950 . S
C1744 H1736 0.950 . S
C1744 C1745 1.386 . S
C1744 C1746 1.391 . S
C1745 C1744 1.386 . S
C1745 C1749 1.393 . S
C1746 H1738 0.950 . S
C1746 C1744 1.391 . S
C1746 C1747 1.400 . S
C1747 C1746 1.400 . S
C1747 C1748 1.398 . S
C1747 C1753 1.491 . S
C1748 H1739 0.950 . S
C1748 C1747 1.398 . S
C1748 C1749 1.391 . S
C1749 H1737 0.950 . S
C1749 C1745 1.393 . S
C1749 C1748 1.391 . S
C1750 H1740 0.950 . S
C1750 C1751 1.386 . S
C1750 C1752 1.391 . S
C1751 C1750 1.386 . S
C1751 C1755 1.393 . S
C1752 H1741 0.950 . S
C1752 C1750 1.391 . S
C1752 C1753 1.400 . S
C1753 C1747 1.491 . S
C1753 C1752 1.400 . S
C1753 C1754 1.398 . S
C1754 H1742 0.950 . S
C1754 C1753 1.398 . S
C1754 C1755 1.391 . S
C1755 H1743 0.950 . S
C1755 C1751 1.393 . S
C1755 C1754 1.391 . S
H1756 C1764 0.950 . S
H1757 C1769 0.950 . S
H1758 C1766 0.950 . S
H1759 C1768 0.950 . S
H1760 C1770 0.950 . S
H1761 C1772 0.950 . S
H1762 C1774 0.950 . S
H1763 C1775 0.950 . S
C1764 H1756 0.950 . S
C1764 C1765 1.386 . S
C1764 C1766 1.391 . S
C1765 C1764 1.386 . S
C1765 C1769 1.393 . S
C1766 H1758 0.950 . S
C1766 C1764 1.391 . S
C1766 C1767 1.400 . S
C1767 C1766 1.400 . S
C1767 C1768 1.398 . S
C1767 C1773 1.491 . S
C1768 H1759 0.950 . S
C1768 C1767 1.398 . S
C1768 C1769 1.391 . S
C1769 H1757 0.950 . S
C1769 C1765 1.393 . S
C1769 C1768 1.391 . S
C1770 H1760 0.950 . S
C1770 C1771 1.386 . S
C1770 C1772 1.391 . S
C1771 C1770 1.386 . S
C1771 C1775 1.393 . S
C1772 H1761 0.950 . S
C1772 C1770 1.391 . S
C1772 C1773 1.400 . S
C1773 C1767 1.491 . S
C1773 C1772 1.400 . S
C1773 C1774 1.398 . S
C1774 H1762 0.950 . S
C1774 C1773 1.398 . S
C1774 C1775 1.391 . S
C1775 H1763 0.950 . S
C1775 C1771 1.393 . S
C1775 C1774 1.391 . S
H1776 C1784 0.950 . S
H1777 C1789 0.950 . S
H1778 C1786 0.950 . S
H1779 C1788 0.950 . S
H1780 C1790 0.950 . S
H1781 C1792 0.950 . S
H1782 C1794 0.950 . S
H1783 C1795 0.950 . S
C1784 H1776 0.950 . S
C1784 C1785 1.386 . S
C1784 C1786 1.391 . S
C1785 C1784 1.386 . S
C1785 C1789 1.393 . S
C1786 H1778 0.950 . S
C1786 C1784 1.391 . S
C1786 C1787 1.400 . S
C1787 C1786 1.400 . S
C1787 C1788 1.398 . S
C1787 C1793 1.491 1_455 S
C1788 H1779 0.950 . S
C1788 C1787 1.398 . S
C1788 C1789 1.391 . S
C1789 H1777 0.950 . S
C1789 C1785 1.393 . S
C1789 C1788 1.391 . S
C1790 H1780 0.950 . S
C1790 C1791 1.386 . S
C1790 C1792 1.391 . S
C1791 C1790 1.386 . S
C1791 C1795 1.393 . S
C1792 H1781 0.950 . S
C1792 C1790 1.391 . S
C1792 C1793 1.400 . S
C1793 C1787 1.491 1_655 S
C1793 C1792 1.400 . S
C1793 C1794 1.398 . S
C1794 H1782 0.950 . S
C1794 C1793 1.398 . S
C1794 C1795 1.391 . S
C1795 H1783 0.950 . S
C1795 C1791 1.393 . S
C1795 C1794 1.391 . S
H1796 C1804 0.950 . S
H1797 C1809 0.950 . S
H1798 C1806 0.950 . S
H1799 C1808 0.950 . S
H1800 C1810 0.950 . S
H1801 C1812 0.950 . S
H1802 C1814 0.950 . S
H1803 C1815 0.950 . S
C1804 H1796 0.950 . S
C1804 C1805 1.386 . S
C1804 C1806 1.391 . S
C1805 C1804 1.386 . S
C1805 C1809 1.393 . S
C1806 H1798 0.950 . S
C1806 C1804 1.391 . S
C1806 C1807 1.400 . S
C1807 C1806 1.400 . S
C1807 C1808 1.398 . S
C1807 C1813 1.491 1_545 S
C1808 H1799 0.950 . S
C1808 C1807 1.398 . S
C1808 C1809 1.391 . S
C1809 H1797 0.950 . S
C1809 C1805 1.393 . S
C1809 C1808 1.391 . S
C1810 H1800 0.950 . S
C1810 C1811 1.386 . S
C1810 C1812 1.391 . S
C1811 C1810 1.386 . S
C1811 C1815 1.393 . S
C1812 H1801 0.950 . S
C1812 C1810 1.391 . S
C1812 C1813 1.400 . S
C1813 C1807 1.491 1_565 S
C1813 C1812 1.400 . S
C1813 C1814 1.398 . S
C1814 H1802 0.950 . S
C1814 C1813 1.398 . S
C1814 C1815 1.391 . S
C1815 H1803 0.950 . S
C1815 C1811 1.393 . S
C1815 C1814 1.391 . S
H1816 C1824 0.950 . S
H1817 C1829 0.950 . S
H1818 C1826 0.950 1_655 S
H1819 C1828 0.950 . S
H1820 C1830 0.950 . S
H1821 C1832 0.950 1_455 S
H1822 C1834 0.950 . S
H1823 C1835 0.950 . S
C1824 H1816 0.950 . S
C1824 C1825 1.386 . S
C1824 C1826 1.391 . S
C1825 C1824 1.386 . S
C1825 C1829 1.393 . S
C1826 H1818 0.950 1_455 S
C1826 C1824 1.391 . S
C1826 C1827 1.400 . S
C1827 C1826 1.400 . S
C1827 C1828 1.398 . S
C1827 C1833 1.491 1_455 S
C1828 H1819 0.950 . S
C1828 C1827 1.398 . S
C1828 C1829 1.391 . S
C1829 H1817 0.950 . S
C1829 C1825 1.393 . S
C1829 C1828 1.391 . S
C1830 H1820 0.950 . S
C1830 C1831 1.386 . S
C1830 C1832 1.391 . S
C1831 C1830 1.386 . S
C1831 C1835 1.393 . S
C1832 H1821 0.950 1_655 S
C1832 C1830 1.391 . S
C1832 C1833 1.400 . S
C1833 C1827 1.491 1_655 S
C1833 C1832 1.400 . S
C1833 C1834 1.398 . S
C1834 H1822 0.950 . S
C1834 C1833 1.398 . S
C1834 C1835 1.391 . S
C1835 H1823 0.950 . S
C1835 C1831 1.393 . S
C1835 C1834 1.391 . S
H1836 C1844 0.950 . S
H1837 C1849 0.950 . S
H1838 C1846 0.948 1_545 S
H1839 C1848 0.950 . S
H1840 C1850 0.950 . S
H1841 C1852 0.948 1_565 S
H1842 C1854 0.950 . S
H1843 C1855 0.950 . S
C1844 H1836 0.950 . S
C1844 C1845 1.386 . S
C1844 C1846 1.391 . S
C1845 C1844 1.386 . S
C1845 C1849 1.393 . S
C1846 H1838 0.948 1_565 S
C1846 C1844 1.391 . S
C1846 C1847 1.400 . S
C1847 C1846 1.400 . S
C1847 C1848 1.398 . S
C1847 C1853 1.491 1_565 S
C1848 H1839 0.950 . S
C1848 C1847 1.398 . S
C1848 C1849 1.391 . S
C1849 H1837 0.950 . S
C1849 C1845 1.393 . S
C1849 C1848 1.391 . S
C1850 H1840 0.950 . S
C1850 C1851 1.386 . S
C1850 C1852 1.391 . S
C1851 C1850 1.386 . S
C1851 C1855 1.393 . S
C1852 H1841 0.948 1_545 S
C1852 C1850 1.391 . S
C1852 C1853 1.400 . S
C1853 C1847 1.491 1_545 S
C1853 C1852 1.400 . S
C1853 C1854 1.398 . S
C1854 H1842 0.950 . S
C1854 C1853 1.398 . S
C1854 C1855 1.391 . S
C1855 H1843 0.950 . S
C1855 C1851 1.393 . S
C1855 C1854 1.391 . S
H1856 C1864 0.950 . S
H1857 C1869 0.950 . S
H1858 C1866 0.950 . S
H1859 C1868 0.950 . S
H1860 C1870 0.950 . S
H1861 C1872 0.950 . S
H1862 C1874 0.950 . S
H1863 C1875 0.950 . S
C1864 H1856 0.950 . S
C1864 C1865 1.386 . S
C1864 C1866 1.391 . S
C1865 C1864 1.386 . S
C1865 C1869 1.393 . S
C1866 H1858 0.950 . S
C1866 C1864 1.391 . S
C1866 C1867 1.400 . S
C1867 C1866 1.400 . S
C1867 C1868 1.398 . S
C1867 C1873 1.491 1_565 S
C1868 H1859 0.950 . S
C1868 C1867 1.398 . S
C1868 C1869 1.391 . S
C1869 H1857 0.950 . S
C1869 C1865 1.393 . S
C1869 C1868 1.391 . S
C1870 H1860 0.950 . S
C1870 C1871 1.386 . S
C1870 C1872 1.391 . S
C1871 C1870 1.386 . S
C1871 C1875 1.393 . S
C1872 H1861 0.950 . S
C1872 C1870 1.391 . S
C1872 C1873 1.400 . S
C1873 C1867 1.491 1_545 S
C1873 C1872 1.400 . S
C1873 C1874 1.398 . S
C1874 H1862 0.950 . S
C1874 C1873 1.398 . S
C1874 C1875 1.391 . S
C1875 H1863 0.950 . S
C1875 C1871 1.393 . S
C1875 C1874 1.391 . S
H1876 C1884 0.950 . S
H1877 C1889 0.950 . S
H1878 C1886 0.950 . S
H1879 C1888 0.950 . S
H1880 C1890 0.950 . S
H1881 C1892 0.950 . S
H1882 C1894 0.950 . S
H1883 C1895 0.950 . S
C1884 H1876 0.950 . S
C1884 C1885 1.386 . S
C1884 C1886 1.391 . S
C1885 C1884 1.386 . S
C1885 C1889 1.393 . S
C1886 H1878 0.950 . S
C1886 C1884 1.391 . S
C1886 C1887 1.400 . S
C1887 C1886 1.400 . S
C1887 C1888 1.398 . S
C1887 C1893 1.491 1_455 S
C1888 H1879 0.950 . S
C1888 C1887 1.398 . S
C1888 C1889 1.391 . S
C1889 H1877 0.950 . S
C1889 C1885 1.393 . S
C1889 C1888 1.391 . S
C1890 H1880 0.950 . S
C1890 C1891 1.386 . S
C1890 C1892 1.391 . S
C1891 C1890 1.386 . S
C1891 C1895 1.393 . S
C1892 H1881 0.950 . S
C1892 C1890 1.391 . S
C1892 C1893 1.400 . S
C1893 C1887 1.491 1_655 S
C1893 C1892 1.400 . S
C1893 C1894 1.398 . S
C1894 H1882 0.950 . S
C1894 C1893 1.398 . S
C1894 C1895 1.391 . S
C1895 H1883 0.950 . S
C1895 C1891 1.393 . S
C1895 C1894 1.391 . S
H1896 C1904 0.950 . S
H1897 C1909 0.950 . S
H1898 C1906 0.950 . S
H1899 C1908 0.950 1_565 S
H1900 C1910 0.950 . S
H1901 C1912 0.950 . S
H1902 C1914 0.950 1_545 S
H1903 C1915 0.950 . S
C1904 H1896 0.950 . S
C1904 C1905 1.386 . S
C1904 C1906 1.391 . S
C1905 C1904 1.386 . S
C1905 C1909 1.393 . S
C1906 H1898 0.950 . S
C1906 C1904 1.391 . S
C1906 C1907 1.400 . S
C1907 C1906 1.400 . S
C1907 C1908 1.398 . S
C1907 C1913 1.491 1_545 S
C1908 H1899 0.950 1_545 S
C1908 C1907 1.398 . S
C1908 C1909 1.391 . S
C1909 H1897 0.950 . S
C1909 C1905 1.393 . S
C1909 C1908 1.391 . S
C1910 H1900 0.950 . S
C1910 C1911 1.386 . S
C1910 C1912 1.391 . S
C1911 C1910 1.386 . S
C1911 C1915 1.393 . S
C1912 H1901 0.950 . S
C1912 C1910 1.391 . S
C1912 C1913 1.400 . S
C1913 C1907 1.491 1_565 S
C1913 C1912 1.400 . S
C1913 C1914 1.398 . S
C1914 H1902 0.950 1_565 S
C1914 C1913 1.398 . S
C1914 C1915 1.391 . S
C1915 H1903 0.950 . S
C1915 C1911 1.393 . S
C1915 C1914 1.391 . S
H1916 C1924 0.950 . S
H1917 C1929 0.950 . S
H1918 C1926 0.950 . S
H1919 C1928 0.950 . S
H1920 C1930 0.950 . S
H1921 C1932 0.950 . S
H1922 C1934 0.950 . S
H1923 C1935 0.950 . S
C1924 H1916 0.950 . S
C1924 C1925 1.386 . S
C1924 C1926 1.391 . S
C1925 C1924 1.386 . S
C1925 C1929 1.393 . S
C1926 H1918 0.950 . S
C1926 C1924 1.391 . S
C1926 C1927 1.400 . S
C1927 C1926 1.400 . S
C1927 C1928 1.398 . S
C1927 C1933 1.491 1_655 S
C1928 H1919 0.950 . S
C1928 C1927 1.398 . S
C1928 C1929 1.391 . S
C1929 H1917 0.950 . S
C1929 C1925 1.393 . S
C1929 C1928 1.391 . S
C1930 H1920 0.950 . S
C1930 C1931 1.386 . S
C1930 C1932 1.391 . S
C1931 C1930 1.386 . S
C1931 C1935 1.393 . S
C1932 H1921 0.950 . S
C1932 C1930 1.391 . S
C1932 C1933 1.400 . S
C1933 C1927 1.491 1_455 S
C1933 C1932 1.400 . S
C1933 C1934 1.398 . S
C1934 H1922 0.950 . S
C1934 C1933 1.398 . S
C1934 C1935 1.391 . S
C1935 H1923 0.950 . S
C1935 C1931 1.393 . S
C1935 C1934 1.391 . S
H1936 C1944 0.950 . S
H1937 C1949 0.950 . S
H1938 C1946 0.950 . S
H1939 C1948 0.950 1_554 S
H1940 C1950 0.950 . S
H1941 C1952 0.950 . S
H1942 C1954 0.950 1_556 S
H1943 C1955 0.950 . S
C1944 H1936 0.950 . S
C1944 C1945 1.386 . S
C1944 C1946 1.391 . S
C1945 C1944 1.386 . S
C1945 C1949 1.393 . S
C1946 H1938 0.950 . S
C1946 C1944 1.391 . S
C1946 C1947 1.400 . S
C1947 C1946 1.400 . S
C1947 C1948 1.398 . S
C1947 C1953 1.491 1_556 S
C1948 H1939 0.950 1_556 S
C1948 C1947 1.398 . S
C1948 C1949 1.391 . S
C1949 H1937 0.950 . S
C1949 C1945 1.393 . S
C1949 C1948 1.391 . S
C1950 H1940 0.950 . S
C1950 C1951 1.386 . S
C1950 C1952 1.391 . S
C1951 C1950 1.386 . S
C1951 C1955 1.393 . S
C1952 H1941 0.950 . S
C1952 C1950 1.391 . S
C1952 C1953 1.400 . S
C1953 C1947 1.491 1_554 S
C1953 C1952 1.400 . S
C1953 C1954 1.398 . S
C1954 H1942 0.950 1_554 S
C1954 C1953 1.398 . S
C1954 C1955 1.391 . S
C1955 H1943 0.950 . S
C1955 C1951 1.393 . S
C1955 C1954 1.391 . S
H1956 C1964 0.950 . S
H1957 C1969 0.950 . S
H1958 C1966 0.950 . S
H1959 C1968 0.950 . S
H1960 C1970 0.950 . S
H1961 C1972 0.950 . S
H1962 C1974 0.950 . S
H1963 C1975 0.950 . S
C1964 H1956 0.950 . S
C1964 C1965 1.386 . S
C1964 C1966 1.391 . S
C1965 C1964 1.386 . S
C1965 C1969 1.393 . S
C1966 H1958 0.950 . S
C1966 C1964 1.391 . S
C1966 C1967 1.400 . S
C1967 C1966 1.400 . S
C1967 C1968 1.398 . S
C1967 C1973 1.491 1_554 S
C1968 H1959 0.950 . S
C1968 C1967 1.398 . S
C1968 C1969 1.391 . S
C1969 H1957 0.950 . S
C1969 C1965 1.393 . S
C1969 C1968 1.391 . S
C1970 H1960 0.950 . S
C1970 C1971 1.386 . S
C1970 C1972 1.391 . S
C1971 C1970 1.386 . S
C1971 C1975 1.393 . S
C1972 H1961 0.950 . S
C1972 C1970 1.391 . S
C1972 C1973 1.400 . S
C1973 C1967 1.491 1_556 S
C1973 C1972 1.400 . S
C1973 C1974 1.398 . S
C1974 H1962 0.950 . S
C1974 C1973 1.398 . S
C1974 C1975 1.391 . S
C1975 H1963 0.950 . S
C1975 C1971 1.393 . S
C1975 C1974 1.391 . S
H1976 C1984 0.950 . S
H1977 C1989 0.950 . S
H1978 C1986 0.950 . S
H1979 C1988 0.950 . S
H1980 C1990 0.950 . S
H1981 C1992 0.950 . S
H1982 C1994 0.950 . S
H1983 C1995 0.950 . S
C1984 H1976 0.950 . S
C1984 C1985 1.386 . S
C1984 C1986 1.391 . S
C1985 C1984 1.386 . S
C1985 C1989 1.393 . S
C1986 H1978 0.950 . S
C1986 C1984 1.391 . S
C1986 C1987 1.400 . S
C1987 C1986 1.400 . S
C1987 C1988 1.398 . S
C1987 C1993 1.491 1_556 S
C1988 H1979 0.950 . S
C1988 C1987 1.398 . S
C1988 C1989 1.391 . S
C1989 H1977 0.950 . S
C1989 C1985 1.393 . S
C1989 C1988 1.391 . S
C1990 H1980 0.950 . S
C1990 C1991 1.386 . S
C1990 C1992 1.391 . S
C1991 C1990 1.386 . S
C1991 C1995 1.393 . S
C1992 H1981 0.950 . S
C1992 C1990 1.391 . S
C1992 C1993 1.400 . S
C1993 C1987 1.491 1_554 S
C1993 C1992 1.400 . S
C1993 C1994 1.398 . S
C1994 H1982 0.950 . S
C1994 C1993 1.398 . S
C1994 C1995 1.391 . S
C1995 H1983 0.950 . S
C1995 C1991 1.393 . S
C1995 C1994 1.391 . S
H1996 C2004 0.950 . S
H1997 C2009 0.950 . S
H1998 C2006 0.950 1_556 S
H1999 C2008 0.950 . S
H2000 C2010 0.950 . S
H2001 C2012 0.950 1_554 S
H2002 C2014 0.950 . S
H2003 C2015 0.950 . S
C2004 H1996 0.950 . S
C2004 C2005 1.386 . S
C2004 C2006 1.391 . S
C2005 C2004 1.386 . S
C2005 C2009 1.393 . S
C2006 H1998 0.950 1_554 S
C2006 C2004 1.391 . S
C2006 C2007 1.400 . S
C2007 C2006 1.400 . S
C2007 C2008 1.398 . S
C2007 C2013 1.491 1_554 S
C2008 H1999 0.950 . S
C2008 C2007 1.398 . S
C2008 C2009 1.391 . S
C2009 H1997 0.950 . S
C2009 C2005 1.393 . S
C2009 C2008 1.391 . S
C2010 H2000 0.950 . S
C2010 C2011 1.386 . S
C2010 C2012 1.391 . S
C2011 C2010 1.386 . S
C2011 C2015 1.393 . S
C2012 H2001 0.950 1_556 S
C2012 C2010 1.391 . S
C2012 C2013 1.400 . S
C2013 C2007 1.491 1_556 S
C2013 C2012 1.400 . S
C2013 C2014 1.398 . S
C2014 H2002 0.950 . S
C2014 C2013 1.398 . S
C2014 C2015 1.391 . S
C2015 H2003 0.950 . S
C2015 C2011 1.393 . S
C2015 C2014 1.391 . S
C825 C326 1.637 . S
C831 C20 1.613 . S
C845 C360 1.616 . S
C851 C54 1.622 . S
C865 C394 1.612 . S
C871 C88 1.628 . S
C885 C122 1.613 . S
C891 C292 1.637 . S
C905 C530 1.612 . S
C911 C156 1.628 . S
C925 C190 1.617 . S
C931 C428 1.637 . S
C945 C224 1.625 . S
C951 C462 1.614 . S
C965 C258 1.619 . S
C971 C496 1.618 . S
C985 C564 1.631 . S
C991 C632 1.626 . S
C1005 C768 1.619 . S
C1011 C598 1.636 . S
C1025 C666 1.610 . S
C1031 C802 1.632 . S
C1045 C734 1.616 . S
C1051 C700 1.637 . S
C1065 C781 1.410 . S
C1071 C33 1.406 . S
C1085 C577 1.406 . S
C1091 C67 1.407 . S
C1105 C815 1.432 . S
C1111 C101 1.441 . S
C1125 C135 1.439 . S
C1131 C747 1.447 . S
C1145 C645 1.405 . S
C1151 C169 1.407 . S
C1165 C679 1.410 . S
C1171 C203 1.417 . S
C1185 C713 1.406 . S
C1191 C237 1.406 . S
C1205 C611 1.428 . S
C1211 C271 1.419 . S
C1225 C305 1.417 . S
C1231 C475 1.426 . S
C1245 C509 1.406 . S
C1251 C339 1.408 . S
C1265 C543 1.450 . S
C1271 C373 1.443 . S
C1285 C441 1.455 . S
C1291 C407 1.453 . S
C1305 C444 1.875 . S
C1311 C9 1.843 . S
C1325 C43 1.854 . S
C1331 C478 1.868 . S
C1345 C512 1.873 . S
C1351 C77 1.850 . S
C1365 C410 1.875 . S
C1371 C111 1.841 . S
C1385 C376 1.867 . S
C1391 C145 1.854 . S
C1405 C179 1.851 . S
C1411 C274 1.872 . S
C1425 C308 1.871 . S
C1431 C213 1.852 . S
C1445 C342 1.874 . S
C1451 C247 1.839 . S
C1465 C281 1.848 . S
C1471 C36 1.874 . S
C1485 C70 1.868 . S
C1491 C315 1.854 . S
C1505 C349 1.854 . S
C1511 C104 1.865 . S
C1525 C2 1.864 . S
C1531 C383 1.851 . S
C1545 C417 1.839 . S
C1551 C240 1.875 . S
C1565 C138 1.864 . S
C1571 C451 1.849 . S
C1585 C172 1.873 . S
C1591 C485 1.838 . S
C1605 C519 1.839 . S
C1611 C206 1.868 . S
C1625 C553 1.844 . S
C1631 C750 1.865 . S
C1645 C587 1.845 . S
C1651 C614 1.875 . S
C1665 C621 1.837 . S
C1671 C648 1.872 . S
C1685 C682 1.873 . S
C1691 C655 1.838 . S
C1705 C580 1.874 . S
C1711 C689 1.847 . S
C1725 C784 1.865 . S
C1731 C723 1.843 . S
C1745 C757 1.851 . S
C1751 C716 1.872 . S
C1765 C546 1.874 . S
C1771 C791 1.839 . S
C1785 C5 0.867 . S
C1791 C73 0.859 . S
C1805 C39 0.877 . S
C1811 C107 0.848 . S
C1825 C141 0.828 . S
C1831 C209 0.889 . S
C1845 C243 0.831 . S
C1851 C175 0.883 . S
C1865 C413 0.845 . S
C1871 C277 0.879 . S
C1885 C447 0.866 . S
C1891 C311 0.860 . S
C1905 C481 0.885 . S
C1911 C345 0.830 . S
C1925 C515 0.860 . S
C1931 C379 0.866 . S
C1945 C651 0.882 . S
C1951 C549 0.832 . S
C1965 C719 0.871 . S
C1971 C583 0.842 . S
C1985 C617 0.863 . S
C1991 C753 0.862 . S
C2005 C787 0.837 . S
C2011 C685 0.885 . S
