# Generated by pormake.
# Topology ske, (6)-cn, num edge types: 1
# Building blocks:
#     Node 0, Type 0, BuildingBlock: KUMBOL_clean_sbu_1, # of connection points: 6
#     Node 1, Type 0, BuildingBlock: KUMBOL_clean_sbu_1, # of connection points: 6
#     Node 2, Type 0, BuildingBlock: KUMBOL_clean_sbu_1, # of connection points: 6
#     Node 3, Type 0, BuildingBlock: KUMBOL_clean_sbu_1, # of connection points: 6
#     Node 4, Type 0, BuildingBlock: KUMBOL_clean_sbu_1, # of connection points: 6
#     Node 5, Type 0, BuildingBlock: KUMBOL_clean_sbu_1, # of connection points: 6
#     Node 6, Type 0, BuildingBlock: KUMBOL_clean_sbu_1, # of connection points: 6
#     Node 7, Type 0, BuildingBlock: KUMBOL_clean_sbu_1, # of connection points: 6
#     Edge 8, Type (0, 0), BuildingBlock: TEMPAE_clean_linker_10, # of connection points: 2
#     Edge 9, Type (0, 0), BuildingBlock: TEMPAE_clean_linker_10, # of connection points: 2
#     Edge 10, Type (0, 0), BuildingBlock: TEMPAE_clean_linker_10, # of connection points: 2
#     Edge 11, Type (0, 0), BuildingBlock: TEMPAE_clean_linker_10, # of connection points: 2
#     Edge 12, Type (0, 0), BuildingBlock: TEMPAE_clean_linker_10, # of connection points: 2
#     Edge 13, Type (0, 0), BuildingBlock: TEMPAE_clean_linker_10, # of connection points: 2
#     Edge 14, Type (0, 0), BuildingBlock: TEMPAE_clean_linker_10, # of connection points: 2
#     Edge 15, Type (0, 0), BuildingBlock: TEMPAE_clean_linker_10, # of connection points: 2
#     Edge 16, Type (0, 0), BuildingBlock: TEMPAE_clean_linker_10, # of connection points: 2
#     Edge 17, Type (0, 0), BuildingBlock: TEMPAE_clean_linker_10, # of connection points: 2
#     Edge 18, Type (0, 0), BuildingBlock: TEMPAE_clean_linker_10, # of connection points: 2
#     Edge 19, Type (0, 0), BuildingBlock: TEMPAE_clean_linker_10, # of connection points: 2
#     Edge 20, Type (0, 0), BuildingBlock: TEMPAE_clean_linker_10, # of connection points: 2
#     Edge 21, Type (0, 0), BuildingBlock: TEMPAE_clean_linker_10, # of connection points: 2
#     Edge 22, Type (0, 0), BuildingBlock: TEMPAE_clean_linker_10, # of connection points: 2
#     Edge 23, Type (0, 0), BuildingBlock: TEMPAE_clean_linker_10, # of connection points: 2
#     Edge 24, Type (0, 0), BuildingBlock: TEMPAE_clean_linker_10, # of connection points: 2
#     Edge 25, Type (0, 0), BuildingBlock: TEMPAE_clean_linker_10, # of connection points: 2
#     Edge 26, Type (0, 0), BuildingBlock: TEMPAE_clean_linker_10, # of connection points: 2
#     Edge 27, Type (0, 0), BuildingBlock: TEMPAE_clean_linker_10, # of connection points: 2
#     Edge 28, Type (0, 0), BuildingBlock: TEMPAE_clean_linker_10, # of connection points: 2
#     Edge 29, Type (0, 0), BuildingBlock: TEMPAE_clean_linker_10, # of connection points: 2
#     Edge 30, Type (0, 0), BuildingBlock: TEMPAE_clean_linker_10, # of connection points: 2
#     Edge 31, Type (0, 0), BuildingBlock: TEMPAE_clean_linker_10, # of connection points: 2
# Relax obj value: 0.216
# Max RMSD: 0.232
# Mean RMSD: 0.229
data_MOF--net-ske--node1-KUMBOL_clean_sbu_1--edge1-TEMPAE_clean_linker_10
_symmetry_space_group_name_H-M    P1
_symmetry_Int_Tables_number       1
_symmetry_cell_setting            triclinic
loop_
_symmetry_equiv_pos_as_xyz
'x, y, z'
_cell_length_a     99.732389
_cell_length_b     30.32791
_cell_length_c     15.330384
_cell_angle_alpha  98.250942
_cell_angle_beta   89.975662
_cell_angle_gamma 89.99398
loop_
_atom_site_label
_atom_site_type_symbol
_atom_site_fract_x
_atom_site_fract_y
_atom_site_fract_z
_atom_type_partial_charge
C0 C 0.09667 0.23942 0.73462 0.0
C1 C 0.09224 0.31408 0.80871 0.0
C2 C 0.09716 0.28526 0.73517 0.0
C3 C 0.08736 0.29629 0.8823 0.0
C4 C 0.09116 0.22136 0.80645 0.0
C5 C 0.08673 0.25006 0.88093 0.0
N6 N 0.10155 0.21236 0.66338 0.0
C7 C 0.10046 0.16718 0.6566 0.0
C8 C 0.09027 0.17493 0.8011 0.0
C9 C 0.09488 0.14774 0.72565 0.0
Gd10 Gd 0.1504 0.26077 0.54516 0.0
Gd11 Gd 0.10951 0.24703 0.54742 0.0
N12 N 0.10172 0.30147 0.66216 0.0
C13 C 0.09188 0.35985 0.80483 0.0
C14 C 0.10005 0.34556 0.65512 0.0
C15 C 0.09553 0.37552 0.727 0.0
H16 H 0.10177 0.35798 0.59371 0.0
H17 H 0.09458 0.41058 0.72156 0.0
H18 H 0.16125 0.1676 0.42777 0.0
H19 H 0.10391 0.14631 0.59779 0.0
H20 H 0.1724 0.14315 0.28421 0.0
H21 H 0.08819 0.38309 0.85995 0.0
H22 H 0.08368 0.318 0.93966 0.0
H23 H 0.15639 0.3708 0.58573 0.0
H24 H 0.08604 0.15979 0.85476 0.0
H25 H 0.09415 0.11186 0.7207 0.0
H26 H 0.17683 0.27787 0.15537 0.0
H27 H 0.08267 0.23683 0.93742 0.0
H28 H 0.16928 0.4147 0.34614 0.0
H29 H 0.16354 0.43133 0.50425 0.0
N30 N 0.157 0.32092 0.47297 0.0
C31 C 0.16116 0.31056 0.38806 0.0
C32 C 0.1585 0.3633 0.516 0.0
C33 C 0.1659 0.3881 0.38103 0.0
C34 C 0.1627 0.39762 0.47038 0.0
C35 C 0.1656 0.34393 0.33946 0.0
H36 H 0.17377 0.35702 0.21462 0.0
N37 N 0.15957 0.23499 0.40622 0.0
C38 C 0.16275 0.26607 0.354 0.0
C39 C 0.17233 0.20886 0.24603 0.0
C40 C 0.16899 0.25373 0.27163 0.0
C41 C 0.16329 0.19151 0.38348 0.0
C42 C 0.16962 0.17772 0.30271 0.0
O43 O 0.12211 0.22939 0.6622 0.0
O44 O 0.13952 0.27926 0.67594 0.0
O45 O 0.16613 0.21971 0.59325 0.0
O46 O 0.16846 0.29046 0.60766 0.0
O47 O 0.11787 0.31135 0.51247 0.0
O48 O 0.13704 0.31937 0.59675 0.0
O49 O 0.13913 0.23432 0.41703 0.0
O50 O 0.11846 0.26866 0.42408 0.0
O51 O 0.08852 0.26219 0.52684 0.0
O52 O 0.09694 0.20036 0.46286 0.0
O53 O 0.14237 0.193 0.56583 0.0
O54 O 0.1216 0.18562 0.49522 0.0
C55 C 0.13081 0.25444 0.71148 0.0
C56 C 0.1277 0.3358 0.55019 0.0
C57 C 0.18815 0.2482 0.57782 0.0
C58 C 0.21211 0.23125 0.58882 0.0
C59 C 0.20326 0.2556 0.45611 0.0
C60 C 0.19058 0.25975 0.49389 0.0
C61 C 0.21394 0.24125 0.50284 0.0
C62 C 0.19909 0.23462 0.62647 0.0
C63 C 0.17432 0.25292 0.61436 0.0
C64 C 0.17232 0.28673 0.21983 0.0
C65 C 0.17055 0.33181 0.25352 0.0
H66 H 0.17728 0.19813 0.18368 0.0
C67 C 0.12893 0.25173 0.37854 0.0
C68 C 0.13239 0.16861 0.52776 0.0
C69 C 0.07841 0.23036 0.39343 0.0
C70 C 0.05641 0.2346 0.32413 0.0
C71 C 0.07686 0.2359 0.23747 0.0
C72 C 0.08463 0.23279 0.31215 0.0
C73 C 0.06286 0.23654 0.24312 0.0
C74 C 0.06431 0.23175 0.3993 0.0
C75 C 0.08637 0.22587 0.4727 0.0
H76 H 0.20487 0.26451 0.391 0.0
H77 H 0.18276 0.27325 0.45814 0.0
H78 H 0.22379 0.23953 0.47277 0.0
H79 H 0.19754 0.22712 0.69273 0.0
H80 H 0.08171 0.23773 0.17488 0.0
H81 H 0.09545 0.23206 0.30638 0.0
H82 H 0.05706 0.23912 0.18431 0.0
H83 H 0.0595 0.22977 0.46207 0.0
C84 C 0.8455 0.26185 0.34112 0.0
C85 C 0.84074 0.18565 0.2778 0.0
C86 C 0.84608 0.21666 0.3464 0.0
C87 C 0.83544 0.2007 0.20239 0.0
C88 C 0.83945 0.27733 0.26812 0.0
C89 C 0.83473 0.24647 0.19779 0.0
N90 N 0.85054 0.29086 0.40883 0.0
C91 C 0.84896 0.3357 0.41144 0.0
C92 C 0.8382 0.32339 0.26872 0.0
C93 C 0.84288 0.3527 0.34107 0.0
Gd94 Gd 0.90041 0.25645 0.53156 0.0
Gd95 Gd 0.85981 0.26031 0.52678 0.0
N96 N 0.85095 0.20335 0.42132 0.0
C97 C 0.84033 0.14066 0.28878 0.0
C98 C 0.84919 0.16035 0.43578 0.0
C99 C 0.8443 0.12812 0.36897 0.0
H100 H 0.85115 0.15091 0.49955 0.0
H101 H 0.8433 0.09383 0.3802 0.0
H102 H 0.90719 0.35995 0.62323 0.0
H103 H 0.8524 0.35823 0.46795 0.0
H104 H 0.91754 0.39851 0.76015 0.0
H105 H 0.83632 0.11577 0.23766 0.0
H106 H 0.83144 0.17731 0.14863 0.0
H107 H 0.90603 0.14635 0.53556 0.0
H108 H 0.83355 0.33661 0.21411 0.0
H109 H 0.8418 0.38832 0.34269 0.0
H110 H 0.92791 0.28036 0.92697 0.0
H111 H 0.83027 0.25766 0.14036 0.0
H112 H 0.91948 0.1304 0.79321 0.0
H113 H 0.91224 0.09744 0.64371 0.0
N114 N 0.90716 0.20598 0.62664 0.0
C115 C 0.91217 0.22487 0.70594 0.0
C116 C 0.90795 0.16097 0.60241 0.0
C117 C 0.91614 0.15195 0.74696 0.0
C118 C 0.91198 0.1332 0.66288 0.0
C119 C 0.91671 0.19832 0.76842 0.0
H120 H 0.92556 0.19886 0.89769 0.0
N121 N 0.90874 0.29578 0.66249 0.0
C122 C 0.91341 0.27094 0.72308 0.0
C123 C 0.92078 0.33789 0.81536 0.0
C124 C 0.91933 0.29146 0.80209 0.0
C125 C 0.91041 0.34089 0.67381 0.0
C126 C 0.91635 0.36267 0.75079 0.0
O127 O 0.87136 0.27631 0.40631 0.0
O128 O 0.89058 0.23375 0.39814 0.0
O129 O 0.91502 0.29534 0.47005 0.0
O130 O 0.92047 0.23036 0.50014 0.0
O131 O 0.8699 0.19666 0.55417 0.0
O132 O 0.8897 0.19277 0.47531 0.0
O133 O 0.88812 0.28172 0.65526 0.0
O134 O 0.86961 0.23712 0.64572 0.0
O135 O 0.83908 0.24533 0.55616 0.0
O136 O 0.84806 0.30678 0.61727 0.0
O137 O 0.89135 0.31999 0.49796 0.0
O138 O 0.8708 0.32557 0.56982 0.0
C139 C 0.88102 0.2543 0.35997 0.0
C140 C 0.87948 0.17357 0.50931 0.0
C141 C 0.93256 0.25724 0.38585 0.0
C142 C 0.95479 0.24944 0.31731 0.0
C143 C 0.93467 0.24798 0.22671 0.0
C144 C 0.92665 0.25367 0.30221 0.0
C145 C 0.94864 0.24612 0.23403 0.0
C146 C 0.94661 0.25468 0.39311 0.0
C147 C 0.92437 0.26517 0.46656 0.0
C148 C 0.92352 0.26516 0.86529 0.0
C149 C 0.92212 0.21875 0.84877 0.0
H150 H 0.92531 0.35489 0.87512 0.0
C151 C 0.87917 0.25869 0.69312 0.0
C152 C 0.88087 0.34322 0.53072 0.0
C153 C 0.8307 0.27606 0.69569 0.0
C154 C 0.80983 0.27028 0.77815 0.0
C155 C 0.83157 0.26836 0.8508 0.0
C156 C 0.83812 0.27267 0.77208 0.0
C157 C 0.81757 0.26738 0.85412 0.0
C158 C 0.81658 0.27468 0.69885 0.0
C159 C 0.83749 0.28131 0.61232 0.0
H160 H 0.93005 0.24527 0.16225 0.0
H161 H 0.91587 0.2557 0.29547 0.0
H162 H 0.95463 0.2417 0.17448 0.0
H163 H 0.95119 0.25788 0.45787 0.0
H164 H 0.83736 0.26608 0.90972 0.0
H165 H 0.84897 0.27368 0.77098 0.0
H166 H 0.81281 0.265 0.91678 0.0
H167 H 0.8109 0.27664 0.63927 0.0
C168 C 0.09667 0.76394 0.3216 0.0
C169 C 0.08698 0.69209 0.26583 0.0
C170 C 0.09476 0.71929 0.32903 0.0
C171 C 0.08184 0.70977 0.19286 0.0
C172 C 0.09085 0.78246 0.25126 0.0
C173 C 0.08374 0.75488 0.18572 0.0
N174 N 0.1038 0.78971 0.38517 0.0
C175 C 0.10448 0.83477 0.3867 0.0
C176 C 0.09209 0.82837 0.25009 0.0
C177 C 0.09879 0.85471 0.31872 0.0
Gd178 Gd 0.15289 0.7468 0.48711 0.0
Gd179 Gd 0.11219 0.75386 0.49942 0.0
N180 N 0.0996 0.70338 0.40136 0.0
C181 C 0.08409 0.64852 0.27991 0.0
C182 C 0.0958 0.66235 0.41905 0.0
C183 C 0.08827 0.63394 0.35781 0.0
H184 H 0.09842 0.6516 0.48105 0.0
H185 H 0.08555 0.60105 0.37132 0.0
H186 H 0.15664 0.84838 0.60541 0.0
H187 H 0.10935 0.85531 0.44053 0.0
H188 H 0.16802 0.88229 0.74143 0.0
H189 H 0.07813 0.62661 0.23304 0.0
H190 H 0.07599 0.68921 0.14318 0.0
H191 H 0.16499 0.64231 0.44468 0.0
H192 H 0.08769 0.84389 0.19744 0.0
H193 H 0.09953 0.89037 0.31954 0.0
H194 H 0.18909 0.7589 0.8504 0.0
H195 H 0.07938 0.76836 0.13045 0.0
H196 H 0.18806 0.61714 0.66764 0.0
H197 H 0.17883 0.59157 0.51934 0.0
N198 N 0.16573 0.69531 0.55191 0.0
C199 C 0.17142 0.71102 0.6309 0.0
C200 C 0.16871 0.65353 0.51036 0.0
C201 C 0.18185 0.63942 0.63573 0.0
C202 C 0.17665 0.62482 0.55207 0.0
C203 C 0.17953 0.68327 0.67535 0.0
H204 H 0.19167 0.67961 0.79133 0.0
N205 N 0.16244 0.78223 0.6189 0.0
C206 C 0.16993 0.75583 0.66456 0.0
C207 C 0.17573 0.81976 0.77109 0.0
C208 C 0.17657 0.77383 0.74291 0.0
C209 C 0.16201 0.82731 0.64429 0.0
C210 C 0.16853 0.84665 0.72105 0.0
O211 O 0.12346 0.76624 0.37476 0.0
O212 O 0.14103 0.7173 0.3662 0.0
O213 O 0.16252 0.78933 0.40281 0.0
O214 O 0.17311 0.73228 0.43539 0.0
O215 O 0.12061 0.68489 0.50847 0.0
O216 O 0.14283 0.67906 0.4569 0.0
O217 O 0.1424 0.76435 0.62147 0.0
O218 O 0.12255 0.7253 0.61079 0.0
O219 O 0.09147 0.74418 0.53912 0.0
O220 O 0.10266 0.80089 0.60068 0.0
O221 O 0.14291 0.81087 0.46492 0.0
O222 O 0.12415 0.81504 0.5529 0.0
C223 C 0.13213 0.73995 0.32733 0.0
C224 C 0.13149 0.66176 0.48153 0.0
C225 C 0.18606 0.79656 0.42484 0.0
C226 C 0.21051 0.80821 0.42168 0.0
C227 C 0.196 0.86194 0.51038 0.0
C228 C 0.18474 0.83718 0.48085 0.0
C229 C 0.20874 0.84741 0.48235 0.0
C230 C 0.19898 0.78237 0.39439 0.0
C231 C 0.17401 0.76872 0.40069 0.0
C232 C 0.18408 0.74576 0.78946 0.0
C233 C 0.18553 0.70058 0.75589 0.0
H234 H 0.18075 0.83484 0.83061 0.0
C235 C 0.13283 0.74273 0.65762 0.0
C236 C 0.13365 0.83405 0.51211 0.0
C237 C 0.07928 0.8112 0.57924 0.0
C238 C 0.05496 0.82443 0.58084 0.0
C239 C 0.07043 0.88245 0.5506 0.0
C240 C 0.08131 0.85472 0.56027 0.0
C241 C 0.05738 0.86758 0.56093 0.0
C242 C 0.06601 0.79607 0.5889 0.0
C243 C 0.09091 0.78201 0.59067 0.0
H244 H 0.19485 0.89261 0.5555 0.0
H245 H 0.17499 0.84985 0.50241 0.0
H246 H 0.21722 0.86718 0.50888 0.0
H247 H 0.19996 0.75173 0.34895 0.0
H248 H 0.07214 0.9158 0.53555 0.0
H249 H 0.09131 0.8676 0.55332 0.0
H250 H 0.04913 0.88989 0.55294 0.0
H251 H 0.06433 0.76278 0.60456 0.0
C252 C 0.84339 0.74981 0.62044 0.0
C253 C 0.83729 0.82593 0.67661 0.0
C254 C 0.84355 0.79472 0.61223 0.0
C255 C 0.83146 0.81147 0.75102 0.0
C256 C 0.83687 0.73481 0.69232 0.0
C257 C 0.83119 0.76597 0.75863 0.0
N258 N 0.84926 0.72054 0.55642 0.0
C259 C 0.84819 0.67572 0.55668 0.0
C260 C 0.83607 0.68886 0.69453 0.0
C261 C 0.84167 0.65918 0.62598 0.0
Gd262 Gd 0.89984 0.75372 0.43743 0.0
Gd263 Gd 0.85924 0.75051 0.43992 0.0
N264 N 0.84894 0.80743 0.53821 0.0
C265 C 0.83656 0.87042 0.6624 0.0
C266 C 0.84702 0.84977 0.5203 0.0
C267 C 0.84121 0.8822 0.58301 0.0
H268 H 0.84959 0.85842 0.45675 0.0
H269 H 0.84005 0.91601 0.56918 0.0
H270 H 0.90608 0.64958 0.34655 0.0
H271 H 0.85239 0.65281 0.50343 0.0
H272 H 0.91592 0.61015 0.2086 0.0
H273 H 0.83186 0.89543 0.71028 0.0
H274 H 0.82673 0.83503 0.80156 0.0
H275 H 0.90501 0.86392 0.42939 0.0
H276 H 0.83107 0.67599 0.74836 0.0
H277 H 0.84097 0.6236 0.6265 0.0
H278 H 0.92624 0.72713 0.03882 0.0
H279 H 0.82632 0.75516 0.81512 0.0
H280 H 0.91819 0.87772 0.17008 0.0
H281 H 0.91106 0.91176 0.31915 0.0
N282 N 0.90624 0.80355 0.34022 0.0
C283 C 0.91114 0.78409 0.26093 0.0
C284 C 0.90692 0.84869 0.36289 0.0
C285 C 0.91495 0.85657 0.21734 0.0
C286 C 0.91085 0.87591 0.30117 0.0
C287 C 0.91554 0.81014 0.1972 0.0
H288 H 0.92414 0.80872 0.06696 0.0
N289 N 0.9077 0.71346 0.3061 0.0
C290 C 0.9123 0.73791 0.24458 0.0
C291 C 0.91919 0.67038 0.15211 0.0
C292 C 0.91795 0.71688 0.16502 0.0
C293 C 0.90922 0.6683 0.29523 0.0
C294 C 0.91486 0.64603 0.21766 0.0
O295 O 0.87021 0.73605 0.5639 0.0
O296 O 0.89009 0.77577 0.57146 0.0
O297 O 0.91477 0.71539 0.49793 0.0
O298 O 0.91997 0.77993 0.4646 0.0
O299 O 0.86953 0.81481 0.41826 0.0
O300 O 0.88945 0.81769 0.49587 0.0
O301 O 0.88726 0.7286 0.31506 0.0
O302 O 0.86955 0.77608 0.32547 0.0
O303 O 0.83845 0.76209 0.40429 0.0
O304 O 0.84936 0.70601 0.3363 0.0
O305 O 0.89085 0.69091 0.47441 0.0
O306 O 0.87024 0.68464 0.40313 0.0
C307 C 0.88018 0.7567 0.6097 0.0
C308 C 0.87903 0.83733 0.46501 0.0
C309 C 0.93285 0.754 0.57625 0.0
C310 C 0.95554 0.76459 0.6378 0.0
C311 C 0.93599 0.76797 0.73449 0.0
C312 C 0.9275 0.75974 0.66159 0.0
C313 C 0.94988 0.77046 0.72293 0.0
C314 C 0.94684 0.75637 0.56462 0.0
C315 C 0.92411 0.74541 0.49814 0.0
C316 C 0.92204 0.74273 0.10084 0.0
C317 C 0.92077 0.78919 0.1167 0.0
H318 H 0.92349 0.65299 0.09189 0.0
C319 C 0.87874 0.75311 0.27728 0.0
C320 C 0.88033 0.66752 0.44307 0.0
C321 C 0.82584 0.69685 0.35419 0.0
C322 C 0.80152 0.68489 0.34196 0.0
C323 C 0.8163 0.6247 0.37036 0.0
C324 C 0.82742 0.65238 0.36856 0.0
C325 C 0.80346 0.64066 0.35676 0.0
C326 C 0.81279 0.71312 0.34176 0.0
C327 C 0.83774 0.72568 0.3483 0.0
H328 H 0.9318 0.77262 0.80032 0.0
H329 H 0.91679 0.7578 0.67168 0.0
H330 H 0.95616 0.77769 0.78083 0.0
H331 H 0.95091 0.75126 0.49839 0.0
H332 H 0.81764 0.59055 0.38161 0.0
H333 H 0.83726 0.6387 0.37752 0.0
H334 H 0.795 0.61839 0.35833 0.0
H335 H 0.81145 0.74721 0.32976 0.0
C336 C 0.60084 0.7026 0.22558 0.0
C337 C 0.59323 0.76572 0.32959 0.0
C338 C 0.59917 0.74824 0.24848 0.0
C339 C 0.58969 0.73683 0.38964 0.0
C340 C 0.59677 0.67337 0.28438 0.0
C341 C 0.59155 0.6908 0.36736 0.0
N342 N 0.60557 0.68669 0.14376 0.0
C343 C 0.60476 0.64219 0.11326 0.0
C344 C 0.59748 0.62744 0.25649 0.0
C345 C 0.60121 0.61182 0.16983 0.0
Gd346 Gd 0.65245 0.74632 0.05215 0.0
Gd347 Gd 0.61179 0.74134 0.05618 0.0
N348 N 0.60317 0.77562 0.19064 0.0
C349 C 0.59099 0.81173 0.34763 0.0
C350 C 0.60067 0.82029 0.2064 0.0
C351 C 0.59465 0.83909 0.2855 0.0
H352 H 0.60338 0.84127 0.15782 0.0
H353 H 0.59282 0.87461 0.29848 0.0
H354 H 0.66105 0.63704 0.03602 0.0
H355 H 0.60645 0.62989 0.04468 0.0
H356 H 0.66844 0.57696 0.92069 0.0
H357 H 0.5864 0.82642 0.40905 0.0
H358 H 0.58534 0.74969 0.45298 0.0
H359 H 0.66098 0.84132 0.98538 0.0
H360 H 0.59449 0.60389 0.29972 0.0
H361 H 0.601 0.57648 0.1458 0.0
H362 H 0.67954 0.65292 0.67657 0.0
H363 H 0.58851 0.66885 0.41365 0.0
H364 H 0.67896 0.81265 0.72928 0.0
H365 H 0.67173 0.86749 0.85613 0.0
N366 N 0.66193 0.77311 0.93056 0.0
C367 C 0.66648 0.74239 0.86402 0.0
C368 C 0.66408 0.81748 0.9299 0.0
C369 C 0.67428 0.80116 0.78574 0.0
C370 C 0.67021 0.83223 0.85719 0.0
C371 C 0.67248 0.75557 0.78863 0.0
H372 H 0.68115 0.73237 0.66058 0.0
N373 N 0.66105 0.68681 0.95124 0.0
C374 C 0.66566 0.69777 0.87366 0.0
C375 C 0.67109 0.6207 0.82298 0.0
C376 C 0.67071 0.66498 0.8071 0.0
C377 C 0.66289 0.64462 0.97047 0.0
C378 C 0.66746 0.61066 0.90586 0.0
O379 O 0.62397 0.76814 0.17984 0.0
O380 O 0.64254 0.72383 0.17129 0.0
O381 O 0.67326 0.73214 0.08135 0.0
O382 O 0.66401 0.79284 0.14372 0.0
O383 O 0.62049 0.80648 0.02807 0.0
O384 O 0.64176 0.81255 0.09175 0.0
O385 O 0.64083 0.76399 0.93304 0.0
O386 O 0.62175 0.72066 0.92252 0.0
O387 O 0.59729 0.78112 0.9958 0.0
O388 O 0.59165 0.71612 0.02437 0.0
O389 O 0.64196 0.68389 0.08167 0.0
O390 O 0.62296 0.6792 0.99611 0.0
C391 C 0.63308 0.74605 0.2185 0.0
C392 C 0.63101 0.83005 0.05925 0.0
C393 C 0.68147 0.76209 0.22207 0.0
C394 C 0.7023 0.75133 0.30208 0.0
C395 C 0.68081 0.75885 0.37918 0.0
C396 C 0.6742 0.76325 0.3007 0.0
C397 C 0.69471 0.75321 0.38018 0.0
C398 C 0.69549 0.75591 0.22299 0.0
C399 C 0.67467 0.76773 0.13872 0.0
C400 C 0.67581 0.6777 0.72892 0.0
C401 C 0.67676 0.72294 0.71989 0.0
H402 H 0.67485 0.59449 0.77353 0.0
C403 C 0.63125 0.74211 0.88563 0.0
C404 C 0.63301 0.66031 0.03219 0.0
C405 C 0.57947 0.74443 0.91204 0.0
C406 C 0.55711 0.73936 0.84498 0.0
C407 C 0.57716 0.73495 0.75304 0.0
C408 C 0.58529 0.73981 0.82799 0.0
C409 C 0.56319 0.73493 0.76129 0.0
C410 C 0.56539 0.74379 0.92027 0.0
C411 C 0.58782 0.75137 0.99213 0.0
H412 H 0.67513 0.76009 0.43972 0.0
H413 H 0.66343 0.76786 0.30159 0.0
H414 H 0.69953 0.75083 0.44262 0.0
H415 H 0.70102 0.75419 0.16175 0.0
H416 H 0.5817 0.73141 0.68826 0.0
H417 H 0.59608 0.74035 0.82051 0.0
H418 H 0.55712 0.73103 0.70208 0.0
H419 H 0.5609 0.74779 0.98535 0.0
C420 C 0.3462 0.79699 0.89957 0.0
C421 C 0.3383 0.73816 0.78724 0.0
C422 C 0.34499 0.75205 0.86747 0.0
C423 C 0.33386 0.77019 0.73611 0.0
C424 C 0.341 0.82926 0.85099 0.0
C425 C 0.3353 0.81567 0.76763 0.0
N426 N 0.35125 0.80888 0.98191 0.0
C427 C 0.34975 0.85148 0.02356 0.0
C428 C 0.34099 0.87395 0.88981 0.0
C429 C 0.34507 0.88495 0.97734 0.0
Gd430 Gd 0.40051 0.74356 0.05503 0.0
Gd431 Gd 0.35983 0.75033 0.0509 0.0
N432 N 0.34964 0.72181 0.91743 0.0
C433 C 0.33596 0.69255 0.76218 0.0
C434 C 0.34694 0.67749 0.89543 0.0
C435 C 0.34017 0.66213 0.81701 0.0
H436 H 0.35011 0.65413 0.93832 0.0
H437 H 0.33821 0.62691 0.79888 0.0
H438 H 0.4058 0.85627 0.10084 0.0
H439 H 0.35212 0.85971 0.0927 0.0
H440 H 0.41116 0.91097 0.22949 0.0
H441 H 0.33075 0.68056 0.70139 0.0
H442 H 0.32896 0.76016 0.67334 0.0
H443 H 0.40726 0.64474 0.11145 0.0
H444 H 0.33714 0.8998 0.85462 0.0
H445 H 0.34438 0.91899 1.00981 0.0
H446 H 0.42258 0.82251 0.45348 0.0
H447 H 0.33142 0.84001 0.72884 0.0
H448 H 0.42314 0.66383 0.37403 0.0
H449 H 0.41665 0.61338 0.23912 0.0
N450 N 0.40819 0.71156 0.17516 0.0
C451 C 0.41219 0.74005 0.24695 0.0
C452 C 0.41 0.66671 0.17058 0.0
C453 C 0.41906 0.67763 0.31828 0.0
C454 C 0.41537 0.64901 0.24236 0.0
C455 C 0.41749 0.72374 0.32135 0.0
H456 H 0.42497 0.74186 0.45428 0.0
N457 N 0.40654 0.8003 0.17075 0.0
C458 C 0.41095 0.78562 0.24571 0.0
C459 C 0.41438 0.86153 0.31495 0.0
C460 C 0.41488 0.81588 0.31998 0.0
C461 C 0.40736 0.84459 0.1631 0.0
C462 C 0.41086 0.87587 0.23559 0.0
O463 O 0.3708 0.72548 0.92093 0.0
O464 O 0.39144 0.76048 0.92772 0.0
O465 O 0.42117 0.76418 0.03831 0.0
O466 O 0.41467 0.69896 0.97893 0.0
O467 O 0.3687 0.6822 0.06028 0.0
O468 O 0.39024 0.67914 0.99982 0.0
O469 O 0.38737 0.72404 0.16575 0.0
O470 O 0.37058 0.77537 0.17915 0.0
O471 O 0.34818 0.71133 0.1331 0.0
O472 O 0.33903 0.76688 0.08338 0.0
O473 O 0.39131 0.80534 1.01385 0.0
O474 O 0.37206 0.81244 0.09718 0.0
C475 C 0.38093 0.74338 0.88251 0.0
C476 C 0.3793 0.65997 0.02548 0.0
C477 C 0.43298 0.73119 0.91184 0.0
C478 C 0.45536 0.73339 0.84641 0.0
C479 C 0.43535 0.73552 0.75585 0.0
C480 C 0.42719 0.73342 0.82923 0.0
C481 C 0.44932 0.73523 0.76408 0.0
C482 C 0.44706 0.7317 0.92038 0.0
C483 C 0.42455 0.72728 0.98942 0.0
C484 C 0.41963 0.79972 0.39567 0.0
C485 C 0.42103 0.75379 0.39609 0.0
H486 H 0.41729 0.88582 0.37058 0.0
C487 C 0.37914 0.75059 0.21578 0.0
C488 C 0.3811 0.82909 0.04854 0.0
C489 C 0.33051 0.74932 0.21701 0.0
C490 C 0.30955 0.76028 0.30215 0.0
C491 C 0.33104 0.78477 0.36889 0.0
C492 C 0.33769 0.76937 0.29048 0.0
C493 C 0.31713 0.78076 0.37461 0.0
C494 C 0.31647 0.74444 0.22312 0.0
C495 C 0.33745 0.73578 0.13235 0.0
H496 H 0.43083 0.73718 0.69221 0.0
H497 H 0.4164 0.7332 0.82145 0.0
H498 H 0.45541 0.73693 0.70616 0.0
H499 H 0.45154 0.72979 0.98415 0.0
H500 H 0.33668 0.80065 0.42514 0.0
H501 H 0.3484 0.77366 0.28649 0.0
H502 H 0.31234 0.79481 0.43566 0.0
H503 H 0.31103 0.72845 0.16609 0.0
C504 C 0.59799 0.24468 0.79 0.0
C505 C 0.59518 0.16863 0.71869 0.0
C506 C 0.5994 0.19925 0.79171 0.0
C507 C 0.59012 0.18436 0.64334 0.0
C508 C 0.5922 0.26055 0.71656 0.0
C509 C 0.58853 0.23019 0.64256 0.0
N510 N 0.60211 0.27349 0.86095 0.0
C511 C 0.59997 0.31818 0.86588 0.0
C512 C 0.59023 0.30652 0.72005 0.0
C513 C 0.59407 0.33544 0.79525 0.0
Gd514 Gd 0.65155 0.23439 0.987 0.0
Gd515 Gd 0.61064 0.2424 0.97981 0.0
N516 N 0.60402 0.18503 0.86659 0.0
C517 C 0.59563 0.12311 0.72492 0.0
C518 C 0.603 0.14097 0.87586 0.0
C519 C 0.59927 0.10931 0.80455 0.0
H520 H 0.60459 0.12976 0.93856 0.0
H521 H 0.59886 0.07436 0.81185 0.0
H522 H 0.66109 0.33203 0.09366 0.0
H523 H 0.60285 0.34036 0.92445 0.0
H524 H 0.67169 0.36261 0.23584 0.0
H525 H 0.59251 0.09855 0.67028 0.0
H526 H 0.58699 0.16129 0.58638 0.0
H527 H 0.65843 0.12492 0.96474 0.0
H528 H 0.58574 0.31998 0.66518 0.0
H529 H 0.59249 0.37096 0.79877 0.0
H530 H 0.67729 0.23475 0.38501 0.0
H531 H 0.58429 0.24176 0.58485 0.0
H532 H 0.6694 0.09152 0.21685 0.0
H533 H 0.66429 0.0684 0.05897 0.0
N534 N 0.65809 0.17844 0.0705 0.0
C535 C 0.66209 0.19235 0.1547 0.0
C536 C 0.65977 0.13497 0.03462 0.0
C537 C 0.6663 0.11624 0.17647 0.0
C538 C 0.6634 0.103 0.0875 0.0
C539 C 0.66626 0.16164 0.21015 0.0
H540 H 0.67422 0.15427 0.33886 0.0
N541 N 0.66024 0.26596 0.12407 0.0
C542 C 0.66359 0.2376 0.1816 0.0
C543 C 0.67243 0.29901 0.283 0.0
C544 C 0.66959 0.25344 0.26329 0.0
C545 C 0.66333 0.3102 0.14163 0.0
C546 C 0.66937 0.32746 0.22164 0.0
O547 O 0.62311 0.26232 0.86674 0.0
O548 O 0.64115 0.21499 0.85453 0.0
O549 O 0.66725 0.27446 0.93576 0.0
O550 O 0.66996 0.20417 0.93089 0.0
O551 O 0.61986 0.18005 0.01831 0.0
O552 O 0.6392 0.17313 0.93585 0.0
O553 O 0.63966 0.26117 0.11241 0.0
O554 O 0.61963 0.22321 0.10524 0.0
O555 O 0.58974 0.22519 0.99714 0.0
O556 O 0.5975 0.28737 0.06393 0.0
O557 O 0.64302 0.30119 0.96398 0.0
O558 O 0.62173 0.30657 0.02857 0.0
C559 C 0.6322 0.23868 0.81824 0.0
C560 C 0.62986 0.15598 0.98142 0.0
C561 C 0.68939 0.24815 0.95642 0.0
C562 C 0.71331 0.26527 0.94327 0.0
C563 C 0.70445 0.24587 0.08044 0.0
C564 C 0.69179 0.24004 0.0428 0.0
C565 C 0.71512 0.25855 0.03139 0.0
C566 C 0.70032 0.26012 0.90565 0.0
C567 C 0.67563 0.24141 0.91956 0.0
C568 C 0.67293 0.22318 0.3211 0.0
C569 C 0.67114 0.17735 0.2949 0.0
H570 H 0.67715 0.31245 0.34479 0.0
C571 C 0.6298 0.24214 0.15106 0.0
C572 C 0.63268 0.32463 0.99986 0.0
C573 C 0.57892 0.25529 0.12904 0.0
C574 C 0.55663 0.24901 0.19415 0.0
C575 C 0.57686 0.24518 0.28242 0.0
C576 C 0.58487 0.25042 0.2099 0.0
C577 C 0.56288 0.24462 0.27492 0.0
C578 C 0.56484 0.25438 0.12133 0.0
C579 C 0.58714 0.26104 0.05159 0.0
H580 H 0.70605 0.23955 0.14739 0.0
H581 H 0.68397 0.22789 0.0807 0.0
H582 H 0.72496 0.26156 0.06166 0.0
H583 H 0.69876 0.26503 0.83777 0.0
H584 H 0.58151 0.24171 0.34489 0.0
H585 H 0.59567 0.25079 0.21698 0.0
H586 H 0.55697 0.24131 0.33289 0.0
H587 H 0.56032 0.25733 0.05813 0.0
C588 C 0.34652 0.24466 0.16898 0.0
C589 C 0.34276 0.32246 0.2248 0.0
C590 C 0.3475 0.2891 0.15822 0.0
C591 C 0.33783 0.31047 0.30404 0.0
C592 C 0.34063 0.23223 0.24541 0.0
C593 C 0.33669 0.26541 0.31411 0.0
N594 N 0.35075 0.21336 0.10245 0.0
C595 C 0.34834 0.16922 0.10407 0.0
C596 C 0.33857 0.18686 0.24928 0.0
C597 C 0.34229 0.15523 0.17778 0.0
Gd598 Gd 0.40062 0.24294 0.97351 0.0
Gd599 Gd 0.36001 0.23887 0.97884 0.0
N600 N 0.35191 0.29935 0.07961 0.0
C601 C 0.34248 0.36659 0.20791 0.0
C602 C 0.35011 0.34143 0.05957 0.0
C603 C 0.34587 0.37593 0.12412 0.0
H604 H 0.35175 0.34855 0.99345 0.0
H605 H 0.34493 0.40951 0.10858 0.0
H606 H 0.40901 0.14309 0.87144 0.0
H607 H 0.35118 0.14496 0.04856 0.0
H608 H 0.41965 0.10989 0.73098 0.0
H609 H 0.33895 0.39322 0.25733 0.0
H610 H 0.33433 0.33569 0.35639 0.0
H611 H 0.40655 0.35409 0.98727 0.0
H612 H 0.33395 0.17596 0.30652 0.0
H613 H 0.34055 0.12015 0.1796 0.0
H614 H 0.4275 0.23514 0.57797 0.0
H615 H 0.3324 0.25656 0.37422 0.0
H616 H 0.41874 0.38082 0.73306 0.0
H617 H 0.41227 0.40784 0.88727 0.0
N618 N 0.40722 0.2977 0.8872 0.0
C619 C 0.41192 0.28195 0.80526 0.0
C620 C 0.40823 0.34206 0.91854 0.0
C621 C 0.41562 0.35718 0.77579 0.0
C622 C 0.41193 0.37258 0.86263 0.0
C623 C 0.41616 0.31129 0.74712 0.0
H624 H 0.42453 0.31601 0.61822 0.0
N625 N 0.40936 0.20885 0.83921 0.0
C626 C 0.41346 0.2363 0.7818 0.0
C627 C 0.42163 0.17287 0.68246 0.0
C628 C 0.41945 0.21891 0.7008 0.0
C629 C 0.4118 0.16415 0.82317 0.0
C630 C 0.41787 0.14542 0.74419 0.0
O631 O 0.37183 0.22056 0.09652 0.0
O632 O 0.39067 0.26479 0.10668 0.0
O633 O 0.41472 0.20313 0.03725 0.0
O634 O 0.4209 0.26682 1.00445 0.0
O635 O 0.37047 0.30074 0.94629 0.0
O636 O 0.38946 0.30539 0.03193 0.0
O637 O 0.38848 0.21639 0.84954 0.0
O638 O 0.36974 0.26011 0.8577 0.0
O639 O 0.33916 0.25337 0.95197 0.0
O640 O 0.34809 0.19198 0.89038 0.0
O641 O 0.3918 0.17755 0.99984 0.0
O642 O 0.37045 0.17251 0.93737 0.0
C643 C 0.38132 0.24293 0.14393 0.0
C644 C 0.37962 0.32434 0.99392 0.0
C645 C 0.43248 0.24029 0.12093 0.0
C646 C 0.45466 0.24909 0.19066 0.0
C647 C 0.43433 0.25233 0.28015 0.0
C648 C 0.42643 0.24544 0.20424 0.0
C649 C 0.4483 0.25401 0.27365 0.0
C650 C 0.44656 0.2423 0.11438 0.0
C651 C 0.42438 0.23215 0.03987 0.0
C652 C 0.42312 0.24792 0.64126 0.0
C653 C 0.42137 0.29397 0.66407 0.0
H654 H 0.42627 0.15825 0.62115 0.0
C655 C 0.37933 0.23834 0.81084 0.0
C656 C 0.38117 0.15446 0.96887 0.0
C657 C 0.33033 0.22195 0.81427 0.0
C658 C 0.30911 0.22636 0.73506 0.0
C659 C 0.33053 0.22987 0.65919 0.0
C660 C 0.33743 0.22595 0.73686 0.0
C661 C 0.31652 0.22989 0.65799 0.0
C662 C 0.3162 0.22232 0.81324 0.0
C663 C 0.33746 0.21719 0.89662 0.0
H664 H 0.4296 0.25603 0.34439 0.0
H665 H 0.41564 0.24379 0.21043 0.0
H666 H 0.45413 0.25844 0.33384 0.0
H667 H 0.45115 0.23884 0.04967 0.0
H668 H 0.33608 0.23263 0.59946 0.0
H669 H 0.34828 0.22575 0.73639 0.0
H670 H 0.3115 0.23207 0.59615 0.0
H671 H 0.31077 0.21991 0.87363 0.0
C672 C 0.23332 0.18848 0.59671 0.0
C673 C 0.22428 0.2204 0.63769 0.0
C674 C 0.24661 0.18667 0.62612 0.0
C675 C 0.251 0.21736 0.69892 0.0
C676 C 0.24155 0.24672 0.74591 0.0
C677 C 0.22829 0.24801 0.71453 0.0
C678 C 0.25623 0.15464 0.57399 0.0
C679 C 0.24571 0.27933 0.82496 0.0
C680 C 0.28653 0.1985 0.77939 0.0
C681 C 0.29409 0.22657 0.73279 0.0
C682 C 0.27243 0.19652 0.77249 0.0
C683 C 0.26571 0.22279 0.71685 0.0
C684 C 0.27324 0.25222 0.67205 0.0
C685 C 0.28726 0.25397 0.68109 0.0
C686 C 0.26479 0.1652 0.8224 0.0
C687 C 0.26655 0.2809 0.61193 0.0
H688 H 0.23023 0.16699 0.5374 0.0
H689 H 0.22138 0.27295 0.74609 0.0
H690 H 0.26326 0.17351 0.53706 0.0
H691 H 0.26231 0.13694 0.61861 0.0
H692 H 0.25096 0.12955 0.52609 0.0
H693 H 0.23691 0.2936 0.86357 0.0
H694 H 0.25238 0.26311 0.86876 0.0
H695 H 0.25141 0.30707 0.80258 0.0
H696 H 0.29163 0.17694 0.81918 0.0
H697 H 0.2929 0.27666 0.64658 0.0
H698 H 0.26089 0.13685 0.7755 0.0
H699 H 0.25604 0.18239 0.85665 0.0
H700 H 0.27118 0.15172 0.87175 0.0
H701 H 0.26162 0.25938 0.55644 0.0
H702 H 0.27375 0.30317 0.58431 0.0
H703 H 0.25863 0.3017 0.64824 0.0
C704 C 0.72916 0.24641 0.81578 0.0
C705 C 0.72545 0.27476 0.89245 0.0
C706 C 0.74228 0.24736 0.78163 0.0
C707 C 0.75189 0.27709 0.82567 0.0
C708 C 0.7478 0.30833 0.89848 0.0
C709 C 0.73465 0.30691 0.93054 0.0
C710 C 0.7461 0.21421 0.70258 0.0
C711 C 0.75762 0.34075 0.94758 0.0
C712 C 0.78839 0.24178 0.83642 0.0
C713 C 0.79482 0.2692 0.78287 0.0
C714 C 0.77441 0.24301 0.84823 0.0
C715 C 0.76651 0.27185 0.80432 0.0
C716 C 0.77282 0.29797 0.74661 0.0
C717 C 0.78689 0.29659 0.73703 0.0
C718 C 0.76817 0.21454 0.91054 0.0
C719 C 0.76478 0.3286 0.6974 0.0
H720 H 0.72213 0.22136 0.78626 0.0
H721 H 0.73178 0.32914 0.98944 0.0
H722 H 0.75249 0.23012 0.65664 0.0
H723 H 0.752 0.18681 0.72457 0.0
H724 H 0.73714 0.19953 0.66638 0.0
H725 H 0.75257 0.36588 0.99658 0.0
H726 H 0.76496 0.32221 0.98285 0.0
H727 H 0.76333 0.35839 0.90103 0.0
H728 H 0.79431 0.21957 0.87034 0.0
H729 H 0.79168 0.31815 0.69581 0.0
H730 H 0.76013 0.19339 0.8765 0.0
H731 H 0.76347 0.23621 0.96678 0.0
H732 H 0.77561 0.19263 0.93697 0.0
H733 H 0.75589 0.31097 0.66583 0.0
H734 H 0.77083 0.34171 0.64593 0.0
H735 H 0.76105 0.35722 0.74434 0.0
C736 C 0.28616 0.76066 0.23641 0.0
C737 C 0.29451 0.75743 0.30921 0.0
C738 C 0.27208 0.76242 0.2451 0.0
C739 C 0.26612 0.76256 0.32911 0.0
C740 C 0.27442 0.75745 0.40195 0.0
C741 C 0.28839 0.75401 0.39074 0.0
C742 C 0.26362 0.76595 0.16481 0.0
C743 C 0.2686 0.75812 0.49313 0.0
C744 C 0.23396 0.82871 0.38062 0.0
C745 C 0.2244 0.79538 0.38875 0.0
C746 C 0.24744 0.81835 0.36062 0.0
C747 C 0.25153 0.77327 0.3434 0.0
C748 C 0.24182 0.73921 0.345 0.0
C749 C 0.22844 0.7506 0.36909 0.0
C750 C 0.2574 0.85594 0.36134 0.0
C751 C 0.2456 0.6907 0.3234 0.0
H752 H 0.29057 0.7635 0.17292 0.0
H753 H 0.29455 0.74972 0.44708 0.0
H754 H 0.25473 0.7438 0.16317 0.0
H755 H 0.2599 0.80058 0.1674 0.0
H756 H 0.26938 0.75713 0.10272 0.0
H757 H 0.27632 0.7522 0.54237 0.0
H758 H 0.26384 0.79095 0.5149 0.0
H759 H 0.26069 0.73242 0.49241 0.0
H760 H 0.231 0.86341 0.39148 0.0
H761 H 0.22129 0.72429 0.37473 0.0
H762 H 0.26232 0.85415 0.29606 0.0
H763 H 0.26539 0.85279 0.41051 0.0
H764 H 0.25266 0.88925 0.37765 0.0
H765 H 0.25208 0.68524 0.26398 0.0
H766 H 0.23663 0.66892 0.31182 0.0
H767 H 0.25137 0.68037 0.37884 0.0
C768 C 0.72285 0.71636 0.35942 0.0
C769 C 0.7172 0.74439 0.30378 0.0
C770 C 0.73679 0.70998 0.36347 0.0
C771 C 0.74543 0.73149 0.30952 0.0
C772 C 0.73985 0.7596 0.25272 0.0
C773 C 0.72584 0.76589 0.25086 0.0
C774 C 0.74227 0.67978 0.42519 0.0
C775 C 0.74866 0.78282 0.19345 0.0
C776 C 0.78236 0.73862 0.37731 0.0
C777 C 0.78766 0.7005 0.3264 0.0
C778 C 0.76872 0.75003 0.37065 0.0
C779 C 0.76024 0.72303 0.31074 0.0
C780 C 0.76575 0.68581 0.25609 0.0
C781 C 0.77933 0.67487 0.26503 0.0
C782 C 0.76325 0.78974 0.43071 0.0
C783 C 0.7572 0.6565 0.19026 0.0
H784 H 0.71636 0.69876 0.39938 0.0
H785 H 0.72169 0.78812 0.20849 0.0
H786 H 0.74742 0.65086 0.38678 0.0
H787 H 0.74982 0.69787 0.46996 0.0
H788 H 0.7343 0.66714 0.46575 0.0
H789 H 0.74281 0.80372 0.1533 0.0
H790 H 0.75606 0.80428 0.23349 0.0
H791 H 0.75441 0.7578 0.14836 0.0
H792 H 0.78872 0.75836 0.42521 0.0
H793 H 0.78342 0.6456 0.22488 0.0
H794 H 0.75607 0.77826 0.47798 0.0
H795 H 0.75767 0.81196 0.39203 0.0
H796 H 0.77129 0.80931 0.46859 0.0
H797 H 0.74964 0.63889 0.22562 0.0
H798 H 0.76323 0.63125 0.14746 0.0
H799 H 0.75166 0.67704 0.14788 0.0
C800 C 0.14234 0.90377 0.46219 0.0
C801 C 0.13385 0.88333 0.51746 0.0
C802 C 0.14235 0.95016 0.46388 0.0
C803 C 0.13374 0.97695 0.52288 0.0
C804 C 0.12527 0.95665 0.57975 0.0
C805 C 0.12539 0.91008 0.57616 0.0
C806 C 0.15143 0.97044 0.40151 0.0
C807 C 0.11602 0.98412 0.64408 0.0
C808 C 0.1421 0.10024 0.57818 0.0
C809 C 0.133 0.11951 0.5249 0.0
C810 C 0.14238 0.05395 0.57873 0.0
C811 C 0.13346 0.02616 0.52392 0.0
C812 C 0.12435 0.04533 0.46934 0.0
C813 C 0.12418 0.09174 0.47081 0.0
C814 C 0.15215 0.0348 0.63852 0.0
C815 C 0.11478 0.01679 0.40918 0.0
H816 H 0.14889 0.88346 0.41637 0.0
H817 H 0.11881 0.89464 0.61926 0.0
H818 H 0.14534 0.98848 0.35741 0.0
H819 H 0.15823 0.99514 0.43917 0.0
H820 H 0.15761 0.94502 0.36024 0.0
H821 H 0.11028 0.96335 0.68515 0.0
H822 H 0.1219 0.00917 0.68821 0.0
H823 H 0.10881 0.00264 0.60788 0.0
H824 H 0.14888 0.12139 0.62074 0.0
H825 H 0.11714 0.10623 0.42918 0.0
H826 H 0.15894 0.01076 0.59896 0.0
H827 H 0.14662 0.01621 0.68446 0.0
H828 H 0.15833 0.06095 0.67777 0.0
H829 H 0.12049 0.99221 0.36286 0.0
H830 H 0.10839 0.03682 0.37032 0.0
H831 H 0.10818 0.99769 0.44843 0.0
C832 C 0.87124 0.42031 0.56823 0.0
C833 C 0.88021 0.39095 0.51907 0.0
C834 C 0.87055 0.4654 0.55627 0.0
C835 C 0.87896 0.48141 0.4932 0.0
C836 C 0.8879 0.45178 0.44268 0.0
C837 C 0.88847 0.40707 0.4565 0.0
C838 C 0.86095 0.49606 0.61189 0.0
C839 C 0.89696 0.46735 0.37423 0.0
C840 C 0.87076 0.59026 0.40757 0.0
C841 C 0.87979 0.61988 0.45549 0.0
C842 C 0.87021 0.54521 0.42001 0.0
C843 C 0.87885 0.52948 0.48214 0.0
C844 C 0.88785 0.55938 0.53149 0.0
C845 C 0.88825 0.60405 0.51733 0.0
C846 C 0.86053 0.51431 0.36576 0.0
C847 C 0.89714 0.54411 0.59896 0.0
H848 H 0.86481 0.40814 0.61662 0.0
H849 H 0.89533 0.38461 0.41734 0.0
H850 H 0.86663 0.52294 0.65272 0.0
H851 H 0.85413 0.51228 0.56902 0.0
H852 H 0.85482 0.47821 0.65619 0.0
H853 H 0.90299 0.43975 0.33816 0.0
H854 H 0.89091 0.48269 0.3258 0.0
H855 H 0.90392 0.4933 0.40623 0.0
H856 H 0.86418 0.60217 0.35977 0.0
H857 H 0.89515 0.62671 0.55555 0.0
H858 H 0.854 0.49753 0.40949 0.0
H859 H 0.86618 0.48788 0.32343 0.0
H860 H 0.85409 0.53209 0.32302 0.0
H861 H 0.89129 0.52854 0.648 0.0
H862 H 0.90315 0.57191 0.63442 0.0
H863 H 0.90412 0.51841 0.56618 0.0
C864 C 0.87097 0.90847 0.41713 0.0
C865 C 0.87887 0.88681 0.47378 0.0
C866 C 0.87069 0.95511 0.42437 0.0
C867 C 0.87907 0.9808 0.48657 0.0
C868 C 0.88734 0.9592 0.54249 0.0
C869 C 0.88693 0.91255 0.53671 0.0
C870 C 0.8614 0.97687 0.36546 0.0
C871 C 0.89679 0.98532 0.60737 0.0
C872 C 0.88723 0.09773 0.44011 0.0
C873 C 0.87927 0.12415 0.50265 0.0
C874 C 0.88754 0.05116 0.4358 0.0
C875 C 0.87922 0.03027 0.49258 0.0
C876 C 0.87093 0.05663 0.55439 0.0
C877 C 0.8713 0.10323 0.56012 0.0
C878 C 0.8969 0.02434 0.37116 0.0
C879 C 0.86155 0.0356 0.61392 0.0
H880 H 0.86499 0.88898 0.36662 0.0
H881 H 0.89313 0.89613 0.58041 0.0
H882 H 0.85503 0.00208 0.40574 0.0
H883 H 0.86732 0.99456 0.32001 0.0
H884 H 0.85477 0.95234 0.32555 0.0
H885 H 0.90298 0.96338 0.64342 0.0
H886 H 0.90359 0.00586 0.57229 0.0
H887 H 0.89105 0.0085 0.6561 0.0
H888 H 0.89342 0.11355 0.39541 0.0
H889 H 0.86525 0.12329 0.60953 0.0
H890 H 0.89104 0.00181 0.32197 0.0
H891 H 0.90346 0.00309 0.40623 0.0
H892 H 0.90332 0.04584 0.33559 0.0
H893 H 0.85491 0.0112 0.5739 0.0
H894 H 0.8552 0.06066 0.65482 0.0
H895 H 0.86738 0.01707 0.6584 0.0
C896 C 0.12106 0.58638 0.4448 0.0
C897 C 0.13122 0.61336 0.48622 0.0
C898 C 0.11975 0.54163 0.45734 0.0
C899 C 0.12964 0.52203 0.50634 0.0
C900 C 0.14035 0.54895 0.54506 0.0
C901 C 0.14062 0.59454 0.53753 0.0
C902 C 0.10749 0.51673 0.41912 0.0
C903 C 0.15161 0.53089 0.59553 0.0
C904 C 0.12587 0.4162 0.61177 0.0
C905 C 0.12796 0.3832 0.53962 0.0
C906 C 0.12561 0.46141 0.60095 0.0
C907 C 0.12876 0.47395 0.51745 0.0
C908 C 0.13122 0.44025 0.44485 0.0
C909 C 0.1301 0.39528 0.45609 0.0
C910 C 0.12201 0.49529 0.67949 0.0
C911 C 0.13528 0.45116 0.35547 0.0
H912 H 0.11403 0.60015 0.40268 0.0
H913 H 0.14805 0.6156 0.57384 0.0
H914 H 0.10598 0.48422 0.44272 0.0
H915 H 0.0984 0.53738 0.43603 0.0
H916 H 0.10824 0.51132 0.34613 0.0
H917 H 0.16139 0.54135 0.57076 0.0
H918 H 0.15095 0.54566 0.66598 0.0
H919 H 0.15165 0.49412 0.59085 0.0
H920 H 0.12403 0.40659 0.67617 0.0
H921 H 0.13166 0.36941 0.40034 0.0
H922 H 0.11708 0.52509 0.65955 0.0
H923 H 0.13126 0.50608 0.71666 0.0
H924 H 0.11521 0.48062 0.72508 0.0
H925 H 0.1262 0.4581 0.31817 0.0
H926 H 0.14059 0.42281 0.31606 0.0
H927 H 0.14189 0.4809 0.3615 0.0
C928 C 0.63898 0.59089 0.09383 0.0
C929 C 0.63341 0.61107 0.02545 0.0
C930 C 0.63919 0.54436 0.08972 0.0
C931 C 0.63369 0.51728 0.01541 0.0
C932 C 0.62813 0.53749 0.94585 0.0
C933 C 0.62804 0.58418 0.95176 0.0
C934 C 0.64516 0.5242 0.16544 0.0
C935 C 0.62218 0.50979 0.86551 0.0
C936 C 0.64405 0.39519 0.97105 0.0
C937 C 0.6331 0.37401 1.00505 0.0
C938 C 0.64438 0.44174 0.9738 0.0
C939 C 0.6335 0.46784 1.01149 0.0
C940 C 0.62245 0.44677 0.04627 0.0
C941 C 0.62239 0.40024 0.04277 0.0
C942 C 0.65635 0.46301 0.9362 0.0
C943 C 0.61068 0.47343 0.08732 0.0
H944 H 0.64303 0.61158 0.15134 0.0
H945 H 0.62377 0.59971 0.8987 0.0
H946 H 0.6374 0.50492 0.19547 0.0
H947 H 0.65329 0.50063 0.14112 0.0
H948 H 0.64931 0.54985 0.21746 0.0
H949 H 0.61847 0.53057 0.8165 0.0
H950 H 0.62979 0.48616 0.83336 0.0
H951 H 0.61371 0.48968 0.88536 0.0
H952 H 0.65239 0.37544 0.94179 0.0
H953 H 0.61388 0.38445 0.06954 0.0
H954 H 0.66112 0.48724 0.98806 0.0
H955 H 0.65308 0.48184 0.88302 0.0
H956 H 0.66398 0.4381 0.90901 0.0
H957 H 0.61411 0.49735 0.14455 0.0
H958 H 0.60275 0.45197 0.10995 0.0
H959 H 0.60621 0.4932 0.03911 0.0
C960 C 0.3758 0.90933 0.10214 0.0
C961 C 0.38052 0.87649 0.03559 0.0
C962 C 0.37541 0.95435 0.08959 0.0
C963 C 0.37997 0.96676 1.00896 0.0
C964 C 0.38471 0.93357 0.94155 0.0
C965 C 0.38496 0.88889 0.95582 0.0
C966 C 0.37024 0.9887 0.16294 0.0
C967 C 0.38962 0.94527 0.85456 0.0
C968 C 0.36973 0.07962 0.94834 0.0
C969 C 0.38102 0.10587 0.97473 0.0
C970 C 0.36923 0.03433 0.95892 0.0
C971 C 0.38032 0.01463 0.99629 0.0
C972 C 0.39184 0.04064 0.02139 0.0
C973 C 0.39204 0.08582 1.01045 0.0
C974 C 0.35672 0.00782 0.93184 0.0
C975 C 0.40393 0.02082 0.06061 0.0
H976 H 0.37253 0.89982 0.16426 0.0
H977 H 0.38856 0.86347 0.90411 0.0
H978 H 0.37832 0.01282 0.18552 0.0
H979 H 0.3619 0.0078 0.13849 0.0
H980 H 0.36662 0.97345 0.2203 0.0
H981 H 0.39268 0.91538 0.8082 0.0
H982 H 0.38163 0.96297 0.82301 0.0
H983 H 0.39832 0.96819 0.8657 0.0
H984 H 0.36116 0.09454 0.9204 0.0
H985 H 0.40086 0.10551 0.03087 0.0
H986 H 0.35165 0.99905 0.99142 0.0
H987 H 0.35929 0.97615 0.88946 0.0
H988 H 0.34954 0.02664 0.89583 0.0
H989 H 0.41216 0.04539 0.07585 0.0
H990 H 0.40779 0.99216 0.01424 0.0
H991 H 0.40105 0.00799 0.12222 0.0
C992 C 0.3847 0.40086 0.07188 0.0
C993 C 0.37941 0.37348 0.99861 0.0
C994 C 0.38466 0.44748 0.07629 0.0
C995 C 0.37921 0.46711 1.00562 0.0
C996 C 0.37385 0.43952 0.93149 0.0
C997 C 0.374 0.39306 0.92895 0.0
C998 C 0.39044 0.47573 0.15654 0.0
C999 C 0.36801 0.45905 0.85464 0.0
C1000 C 0.36816 0.58841 0.04989 0.0
C1001 C 0.37909 0.61047 0.01765 0.0
C1002 C 0.36805 0.54183 0.04616 0.0
C1003 C 0.37913 0.51652 1.00918 0.0
C1004 C 0.39012 0.53841 0.97568 0.0
C1005 C 0.38997 0.58503 0.98024 0.0
C1006 C 0.35613 0.51969 0.08245 0.0
C1007 C 0.40209 0.51257 0.93543 0.0
H1008 H 0.38884 0.38578 0.12594 0.0
H1009 H 0.37 0.37196 0.8718 0.0
H1010 H 0.39877 0.49646 0.13674 0.0
H1011 H 0.38267 0.49881 0.18842 0.0
H1012 H 0.39429 0.45533 0.20579 0.0
H1013 H 0.3642 0.43301 0.8021 0.0
H1014 H 0.35964 0.48194 0.87754 0.0
H1015 H 0.37573 0.47897 0.82576 0.0
H1016 H 0.35969 0.60752 0.07897 0.0
H1017 H 0.39846 0.60151 0.9549 0.0
H1018 H 0.35939 0.50127 0.13625 0.0
H1019 H 0.35164 0.495 0.03021 0.0
H1020 H 0.34827 0.54403 0.10851 0.0
H1021 H 0.40673 0.4937 0.98448 0.0
H1022 H 0.40983 0.53453 0.91216 0.0
H1023 H 0.39886 0.48789 0.87884 0.0
C1024 C 0.63556 0.07599 0.92697 0.0
C1025 C 0.63031 0.10826 0.99271 0.0
C1026 C 0.63616 0.0309 0.93902 0.0
C1027 C 0.63127 0.01778 0.01829 0.0
C1028 C 0.62594 0.05035 0.08468 0.0
C1029 C 0.62549 0.0951 0.07095 0.0
C1030 C 0.64196 0.99724 0.86681 0.0
C1031 C 0.62067 0.03793 0.17025 0.0
C1032 C 0.62002 0.89764 1.01383 0.0
C1033 C 0.63095 0.87856 0.05258 0.0
C1034 C 0.62001 0.94278 1.00258 0.0
C1035 C 0.63121 0.96981 0.03055 0.0
C1036 C 0.6422 0.95106 0.07088 0.0
C1037 C 0.64193 0.90575 0.08153 0.0
C1038 C 0.60801 0.96151 0.96023 0.0
C1039 C 0.65438 0.97857 0.10117 0.0
H1040 H 0.6392 0.08608 0.86619 0.0
H1041 H 0.6215 0.12001 0.1222 0.0
H1042 H 0.65039 0.9792 0.89306 0.0
H1043 H 0.63424 0.97211 0.84257 0.0
H1044 H 0.64566 0.01295 0.81022 0.0
H1045 H 0.61706 0.06737 0.21581 0.0
H1046 H 0.61227 0.01393 0.15677 0.0
H1047 H 0.62865 0.02123 0.20384 0.0
H1048 H 0.61144 0.87721 0.99131 0.0
H1049 H 0.65042 0.89159 0.1118 0.0
H1050 H 0.61115 0.97478 0.8996 0.0
H1051 H 0.60368 0.98968 1.00571 0.0
H1052 H 0.60005 0.93616 0.94258 0.0
H1053 H 0.65986 0.98693 0.04277 0.0
H1054 H 0.66134 0.96062 0.14038 0.0
H1055 H 0.65138 0.01036 0.14156 0.0
C1056 C 0.12024 0.2785 0.23984 0.0
C1057 C 0.12892 0.25094 0.28022 0.0
C1058 C 0.12037 0.27866 0.14761 0.0
C1059 C 0.12972 0.25183 0.09393 0.0
C1060 C 0.13833 0.22347 0.1342 0.0
C1061 C 0.13755 0.22258 0.22584 0.0
C1062 C 0.11033 0.30706 0.10737 0.0
C1063 C 0.14859 0.19448 0.08091 0.0
C1064 C 0.12404 0.21998 0.84552 0.0
C1065 C 0.13103 0.25326 0.80928 0.0
C1066 C 0.12326 0.21974 0.9373 0.0
C1067 C 0.13024 0.25236 0.99561 0.0
C1068 C 0.13796 0.2847 0.95945 0.0
C1069 C 0.1381 0.2852 0.86723 0.0
C1070 C 0.11474 0.18484 0.97173 0.0
C1071 C 0.1462 0.31852 0.01829 0.0
H1072 H 0.1133 0.30003 0.28033 0.0
H1073 H 0.14372 0.19937 0.25494 0.0
H1074 H 0.11562 0.332 0.07363 0.0
H1075 H 0.10432 0.28585 0.05679 0.0
H1076 H 0.10341 0.32483 0.15728 0.0
H1077 H 0.15284 0.16893 0.11814 0.0
H1078 H 0.14424 0.17722 0.01876 0.0
H1079 H 0.15689 0.21584 0.06284 0.0
H1080 H 0.1191 0.19382 0.80192 0.0
H1081 H 0.14376 0.31071 0.84061 0.0
H1082 H 0.10561 0.20093 1.00321 0.0
H1083 H 0.12014 0.1693 0.02267 0.0
H1084 H 0.11162 0.15803 0.91854 0.0
H1085 H 0.13957 0.33977 0.06486 0.0
H1086 H 0.15211 0.34029 0.98023 0.0
H1087 H 0.15319 0.30118 0.05833 0.0
C1088 C 0.89001 0.22724 0.206 0.0
C1089 C 0.8814 0.2551 0.26197 0.0
C1090 C 0.89011 0.22786 0.11375 0.0
C1091 C 0.88107 0.25579 0.07536 0.0
C1092 C 0.87247 0.28418 0.13171 0.0
C1093 C 0.87301 0.28421 0.22357 0.0
C1094 C 0.90006 0.19911 0.05737 0.0
C1095 C 0.86237 0.31393 0.09536 0.0
C1096 C 0.88688 0.29012 0.84687 0.0
C1097 C 0.87948 0.25827 0.79109 0.0
C1098 C 0.88787 0.28872 0.93832 0.0
C1099 C 0.8807 0.25603 0.97688 0.0
C1100 C 0.87263 0.22513 0.92163 0.0
C1101 C 0.87232 0.22609 0.82969 0.0
C1102 C 0.89657 0.32249 0.99396 0.0
C1103 C 0.86411 0.19156 0.95998 0.0
H1104 H 0.8967 0.20496 0.2342 0.0
H1105 H 0.8668 0.30746 0.26552 0.0
H1106 H 0.89473 0.17576 1.00669 0.0
H1107 H 0.90656 0.22045 0.02209 0.0
H1108 H 0.90652 0.17958 0.09677 0.0
H1109 H 0.85885 0.34109 0.14658 0.0
H1110 H 0.86652 0.32924 0.0397 0.0
H1111 H 0.85358 0.29357 0.07018 0.0
H1112 H 0.89187 0.31653 0.81909 0.0
H1113 H 0.86635 0.20169 0.78802 0.0
H1114 H 0.90475 0.30502 0.02421 0.0
H1115 H 0.89064 0.34102 0.04854 0.0
H1116 H 0.90106 0.34694 0.95514 0.0
H1117 H 0.87054 0.16973 0.99448 0.0
H1118 H 0.85817 0.17039 0.90883 0.0
H1119 H 0.85711 0.20914 1.0096 0.0
C1120 C 0.12509 0.76993 0.18824 0.0
C1121 C 0.13256 0.73914 0.22864 0.0
C1122 C 0.12504 0.76943 0.09595 0.0
C1123 C 0.13297 0.73799 0.041 0.0
C1124 C 0.14083 0.7074 0.08129 0.0
C1125 C 0.14047 0.70813 0.17398 0.0
C1126 C 0.11638 0.80255 0.05726 0.0
C1127 C 0.1497 0.67396 0.02633 0.0
C1128 C 0.12416 0.71296 0.79393 0.0
C1129 C 0.13303 0.74078 0.75554 0.0
C1130 C 0.12409 0.71142 0.88589 0.0
C1131 C 0.13321 0.73794 0.94204 0.0
C1132 C 0.14222 0.76588 0.90364 0.0
C1133 C 0.14192 0.76723 0.81183 0.0
C1134 C 0.1141 0.68176 0.92322 0.0
C1135 C 0.15218 0.79472 0.9598 0.0
H1136 H 0.11933 0.79509 0.22895 0.0
H1137 H 0.14641 0.68432 0.20362 0.0
H1138 H 0.12225 0.81999 1.01111 0.0
H1139 H 0.10809 0.78461 0.01909 0.0
H1140 H 0.11198 0.82791 0.10873 0.0
H1141 H 0.15533 0.65277 0.06707 0.0
H1142 H 0.14356 0.65214 0.97758 0.0
H1143 H 0.15698 0.69154 0.98873 0.0
H1144 H 0.11716 0.69235 0.75206 0.0
H1145 H 0.14851 0.78985 0.78447 0.0
H1146 H 0.10748 0.7022 0.97131 0.0
H1147 H 0.11942 0.65781 0.9593 0.0
H1148 H 0.10777 0.66277 0.87127 0.0
H1149 H 0.14698 0.81579 0.01467 0.0
H1150 H 0.15792 0.81676 0.92144 0.0
H1151 H 0.15937 0.77324 0.98957 0.0
C1152 C 0.89 0.78121 0.76241 0.0
C1153 C 0.88052 0.75635 0.70796 0.0
C1154 C 0.89025 0.78066 0.85467 0.0
C1155 C 0.88051 0.75584 0.89483 0.0
C1156 C 0.87097 0.73065 0.84011 0.0
C1157 C 0.87129 0.73057 0.74814 0.0
C1158 C 0.90116 0.80576 0.9089 0.0
C1159 C 0.86009 0.70448 0.87828 0.0
C1160 C 0.88565 0.71989 0.1228 0.0
C1161 C 0.8791 0.75364 0.17939 0.0
C1162 C 0.88661 0.72104 0.03121 0.0
C1163 C 0.88031 0.75578 0.99348 0.0
C1164 C 0.87323 0.7891 0.04984 0.0
C1165 C 0.87285 0.78795 0.14173 0.0
C1166 C 0.8943 0.68479 0.9745 0.0
C1167 C 0.86586 0.82569 1.01276 0.0
H1168 H 0.8973 0.80107 0.733 0.0
H1169 H 0.86428 0.7098 0.70758 0.0
H1170 H 0.89681 0.82809 0.9655 0.0
H1171 H 0.90774 0.78161 0.93621 0.0
H1172 H 0.90742 0.8259 0.86947 0.0
H1173 H 0.85581 0.67831 0.82797 0.0
H1174 H 0.8638 0.68828 0.93399 0.0
H1175 H 0.85191 0.72762 0.90366 0.0
H1176 H 0.89003 0.69223 0.15014 0.0
H1177 H 0.86761 0.81405 0.18419 0.0
H1178 H 0.90265 0.69977 0.941 0.0
H1179 H 0.88769 0.66736 0.92243 0.0
H1180 H 0.89848 0.65976 1.01324 0.0
H1181 H 0.87297 0.84516 0.97778 0.0
H1182 H 0.86065 0.8488 0.06471 0.0
H1183 H 0.85833 0.81089 0.96379 0.0
C1184 C 0.64025 0.7149 0.35593 0.0
C1185 C 0.63286 0.74635 0.31669 0.0
C1186 C 0.63998 0.71434 0.448 0.0
C1187 C 0.63177 0.74498 0.50283 0.0
C1188 C 0.62444 0.77712 0.46371 0.0
C1189 C 0.62534 0.77804 0.37203 0.0
C1190 C 0.64865 0.68133 0.48685 0.0
C1191 C 0.61554 0.81052 0.51871 0.0
C1192 C 0.62244 0.71538 0.73125 0.0
C1193 C 0.63093 0.74338 0.78776 0.0
C1194 C 0.62237 0.71625 0.63911 0.0
C1195 C 0.63132 0.74469 0.60131 0.0
C1196 C 0.6398 0.77326 0.65816 0.0
C1197 C 0.63924 0.77293 0.74997 0.0
C1198 C 0.61256 0.68719 0.58222 0.0
C1199 C 0.64976 0.8036 0.62229 0.0
H1200 H 0.64633 0.69065 0.31464 0.0
H1201 H 0.62013 0.80381 0.34363 0.0
H1202 H 0.65551 0.69932 0.53684 0.0
H1203 H 0.6423 0.65911 0.521 0.0
H1204 H 0.65476 0.66052 0.43604 0.0
H1205 H 0.61151 0.83597 0.4804 0.0
H1206 H 0.60701 0.7928 0.54466 0.0
H1207 H 0.6211 0.82789 0.57623 0.0
H1208 H 0.61581 0.69271 0.75894 0.0
H1209 H 0.64537 0.79619 0.79236 0.0
H1210 H 0.61798 0.66457 0.53074 0.0
H1211 H 0.60589 0.70843 0.54794 0.0
H1212 H 0.60626 0.66687 0.62107 0.0
H1213 H 0.6585 0.78353 0.59498 0.0
H1214 H 0.65341 0.83021 0.6742 0.0
H1215 H 0.64542 0.81963 0.56818 0.0
C1216 C 0.39009 0.76945 0.74414 0.0
C1217 C 0.38072 0.74406 0.78436 0.0
C1218 C 0.38991 0.77094 0.65233 0.0
C1219 C 0.37989 0.74753 0.59852 0.0
C1220 C 0.37044 0.72176 0.63869 0.0
C1221 C 0.3712 0.7196 0.73 0.0
C1222 C 0.40077 0.79647 0.61264 0.0
C1223 C 0.35929 0.69703 0.58588 0.0
C1224 C 0.37307 0.78436 0.37237 0.0
C1225 C 0.37897 0.74987 0.31377 0.0
C1226 C 0.373 0.78356 0.46452 0.0
C1227 C 0.37956 0.74859 0.50016 0.0
C1228 C 0.38562 0.71394 0.44126 0.0
C1229 C 0.38491 0.71442 0.34948 0.0
C1230 C 0.36576 0.81991 0.52379 0.0
C1231 C 0.39299 0.67638 0.47523 0.0
H1232 H 0.39767 0.78816 0.78438 0.0
H1233 H 0.36434 0.69827 0.75868 0.0
H1234 H 0.40737 0.77252 0.57135 0.0
H1235 H 0.39641 0.81897 0.56917 0.0
H1236 H 0.40702 0.8165 0.6637 0.0
H1237 H 0.35481 0.67094 0.6207 0.0
H1238 H 0.35132 0.72113 0.57469 0.0
H1239 H 0.36282 0.68099 0.52038 0.0
H1240 H 0.36845 0.81204 0.34624 0.0
H1241 H 0.38914 0.68687 0.30543 0.0
H1242 H 0.37294 0.83869 0.57033 0.0
H1243 H 0.35817 0.80496 0.56379 0.0
H1244 H 0.36064 0.84366 0.48605 0.0
H1245 H 0.40188 0.68998 0.51349 0.0
H1246 H 0.39638 0.65043 0.42119 0.0
H1247 H 0.38651 0.66033 0.52038 0.0
C1248 C 0.6219 0.21337 0.28963 0.0
C1249 C 0.62987 0.24303 0.24944 0.0
C1250 C 0.62219 0.21303 0.3818 0.0
C1251 C 0.63101 0.24193 0.43567 0.0
C1252 C 0.63887 0.27247 0.39561 0.0
C1253 C 0.63791 0.27338 0.30398 0.0
C1254 C 0.61286 0.18225 0.42178 0.0
C1255 C 0.6485 0.30387 0.44919 0.0
C1256 C 0.62492 0.2722 0.68411 0.0
C1257 C 0.6325 0.24022 0.72045 0.0
C1258 C 0.62411 0.27248 0.59236 0.0
C1259 C 0.63165 0.24144 0.53406 0.0
C1260 C 0.63997 0.21064 0.57034 0.0
C1261 C 0.64013 0.20991 0.66256 0.0
C1262 C 0.61487 0.30554 0.55802 0.0
C1263 C 0.64887 0.17888 0.51169 0.0
H1264 H 0.61539 0.19029 0.24901 0.0
H1265 H 0.64353 0.29804 0.27493 0.0
H1266 H 0.61871 0.15886 0.4562 0.0
H1267 H 0.60638 0.20201 0.47175 0.0
H1268 H 0.60637 0.16263 0.37163 0.0
H1269 H 0.65231 0.32998 0.41167 0.0
H1270 H 0.64374 0.32056 0.51048 0.0
H1271 H 0.65715 0.28451 0.46897 0.0
H1272 H 0.61952 0.29723 0.72761 0.0
H1273 H 0.64626 0.18552 0.68922 0.0
H1274 H 0.60589 0.28768 0.52842 0.0
H1275 H 0.61974 0.32157 0.50569 0.0
H1276 H 0.61155 0.33215 0.61102 0.0
H1277 H 0.64274 0.15724 0.46257 0.0
H1278 H 0.65492 0.15743 0.54959 0.0
H1279 H 0.65577 0.19807 0.47454 0.0
C1280 C 0.37361 0.2115 0.27945 0.0
C1281 C 0.38169 0.2417 0.24179 0.0
C1282 C 0.37304 0.21123 0.37127 0.0
C1283 C 0.38132 0.24043 0.42823 0.0
C1284 C 0.3901 0.26946 0.39054 0.0
C1285 C 0.38999 0.27038 0.29841 0.0
C1286 C 0.36326 0.18026 0.40708 0.0
C1287 C 0.39975 0.29912 0.44755 0.0
C1288 C 0.3722 0.26963 0.67342 0.0
C1289 C 0.37964 0.23831 0.7127 0.0
C1290 C 0.37252 0.27034 0.58141 0.0
C1291 C 0.38086 0.24011 0.52669 0.0
C1292 C 0.38829 0.20821 0.56588 0.0
C1293 C 0.38731 0.20703 0.65744 0.0
C1294 C 0.36373 0.30301 0.54245 0.0
C1295 C 0.39739 0.17536 0.51111 0.0
H1296 H 0.36765 0.18773 0.23697 0.0
H1297 H 0.39645 0.29357 0.27079 0.0
H1298 H 0.36783 0.16384 0.45992 0.0
H1299 H 0.35456 0.19994 0.43624 0.0
H1300 H 0.35953 0.15395 0.35488 0.0
H1301 H 0.4061 0.3192 0.40854 0.0
H1302 H 0.39418 0.32201 0.49779 0.0
H1303 H 0.40637 0.2784 0.48336 0.0
H1304 H 0.36602 0.2936 0.71463 0.0
H1305 H 0.39257 0.18136 0.6858 0.0
H1306 H 0.35699 0.28477 0.492 0.0
H1307 H 0.36999 0.32566 0.50882 0.0
H1308 H 0.35749 0.32339 0.59312 0.0
H1309 H 0.39204 0.15822 0.45248 0.0
H1310 H 0.40135 0.14968 0.5491 0.0
H1311 H 0.40596 0.19355 0.48684 0.0
C1312 C 0.03488 0.26468 0.39504 0.0
C1313 C 0.04147 0.23547 0.32955 0.0
C1314 C 0.02077 0.26736 0.39777 0.0
C1315 C 0.01305 0.23963 0.33439 0.0
C1316 C 0.01968 0.20923 0.26964 0.0
C1317 C 0.03377 0.2078 0.26756 0.0
C1318 C 0.01415 0.30069 0.46709 0.0
C1319 C 0.01187 0.17848 0.20182 0.0
C1320 C 0.97594 0.2204 0.37851 0.0
C1321 C 0.9697 0.24801 0.32464 0.0
C1322 C 0.99002 0.21753 0.38294 0.0
C1323 C 0.99808 0.24346 0.33344 0.0
C1324 C 0.99181 0.27218 0.28062 0.0
C1325 C 0.97773 0.27383 0.27633 0.0
C1326 C 0.99627 0.18601 0.43904 0.0
C1327 C 0.99997 0.30099 0.22799 0.0
H1328 H 0.04077 0.28638 0.4427 0.0
H1329 H 0.03881 0.18479 0.21743 0.0
H1330 H 0.00842 0.32526 0.43489 0.0
H1331 H 0.0069 0.28364 0.50577 0.0
H1332 H 0.02153 0.31893 0.51312 0.0
H1333 H 0.01848 0.15515 0.15889 0.0
H1334 H 1.00458 0.15876 0.23497 0.0
H1335 H 0.00604 0.19833 0.15962 0.0
H1336 H 0.96979 0.20013 0.4155 0.0
H1337 H 0.97297 0.29566 0.23547 0.0
H1338 H 1.00325 0.20435 0.48762 0.0
H1339 H 1.00224 0.1604 0.39687 0.0
H1340 H 0.98864 0.16894 0.47511 0.0
H1341 H 0.00702 0.32198 0.27198 0.0
H1342 H 0.99359 0.32305 0.19348 0.0
H1343 H 0.00608 0.27967 0.17817 0.0
C1344 C 0.97932 0.75084 0.68397 0.0
C1345 C 0.97042 0.76783 0.6259 0.0
C1346 C 0.99329 0.75601 0.67693 0.0
C1347 C 0.9986 0.7785 0.6098 0.0
C1348 C 0.98973 0.79445 0.54921 0.0
C1349 C 0.97579 0.78908 0.55812 0.0
C1350 C 1.00235 0.73847 0.74296 0.0
C1351 C 0.99494 0.81851 0.47645 0.0
C1352 C 0.03204 0.83907 0.64573 0.0
C1353 C 0.04086 0.8102 0.5939 0.0
C1354 C 0.0184 0.82862 0.6529 0.0
C1355 C 0.01332 0.78828 0.60673 0.0
C1356 C 0.02223 0.75832 0.55616 0.0
C1357 C 0.03591 0.76953 0.55069 0.0
C1358 C 0.00935 0.86132 0.70853 0.0
C1359 C 0.01724 0.71508 0.50566 0.0
H1360 H 0.97535 0.73357 0.73554 0.0
H1361 H 0.96909 0.80281 0.51337 0.0
H1362 H 0.01017 0.71654 0.70842 0.0
H1363 H 0.00757 0.76666 0.78319 0.0
H1364 H 0.99674 0.71946 0.78794 0.0
H1365 H 0.98686 0.82589 0.43076 0.0
H1366 H 0.99966 0.85038 0.50542 0.0
H1367 H 1.00277 0.79825 0.43794 0.0
H1368 H 0.03582 0.87029 0.68028 0.0
H1369 H 0.04264 0.74721 0.51006 0.0
H1370 H 1.00408 0.84457 0.75843 0.0
H1371 H 1.00158 0.87373 0.66636 0.0
H1372 H 0.01495 0.89035 0.7431 0.0
H1373 H 0.01178 0.6956 0.55035 0.0
H1374 H 0.02552 0.69431 0.47339 0.0
H1375 H 0.01005 0.72216 0.45423 0.0
C1376 C 0.53439 0.76562 0.80332 0.0
C1377 C 0.54217 0.73976 0.85306 0.0
C1378 C 0.5203 0.76527 0.80746 0.0
C1379 C 0.51373 0.7379 0.86176 0.0
C1380 C 0.52153 0.71212 0.91304 0.0
C1381 C 0.53564 0.71362 0.90858 0.0
C1382 C 0.51243 0.79386 0.75277 0.0
C1383 C 0.51497 0.68206 0.97089 0.0
C1384 C 0.47689 0.76239 0.91911 0.0
C1385 C 0.47028 0.73296 0.85415 0.0
C1386 C 0.49101 0.76406 0.92319 0.0
C1387 C 0.49872 0.73505 0.86183 0.0
C1388 C 0.49205 0.70434 0.79787 0.0
C1389 C 0.47796 0.70395 0.79434 0.0
C1390 C 0.49767 0.79775 0.99156 0.0
C1391 C 0.49983 0.67224 0.73221 0.0
H1392 H 0.53936 0.78637 0.76119 0.0
H1393 H 0.54157 0.69331 0.94672 0.0
H1394 H 0.5063 0.77239 0.70331 0.0
H1395 H 0.50541 0.81571 0.79538 0.0
H1396 H 0.51902 0.81504 0.71762 0.0
H1397 H 0.52241 0.66534 1.009 0.0
H1398 H 0.50795 0.70144 0.01773 0.0
H1399 H 0.50899 0.65614 0.92963 0.0
H1400 H 0.47102 0.7851 0.9651 0.0
H1401 H 0.47291 0.68078 0.74463 0.0
H1402 H 0.50358 0.82155 0.95843 0.0
H1403 H 0.50477 0.78088 0.03157 0.0
H1404 H 0.4903 0.81683 0.03644 0.0
H1405 H 0.50585 0.691 0.68906 0.0
H1406 H 0.49317 0.64875 0.69005 0.0
H1407 H 0.50693 0.6527 0.76717 0.0
C1408 C 0.47656 0.22159 0.1195 0.0
C1409 C 0.46965 0.25044 0.18427 0.0
C1410 C 0.49067 0.22137 0.11537 0.0
C1411 C 0.49814 0.2504 0.17793 0.0
C1412 C 0.49125 0.28009 0.24249 0.0
C1413 C 0.47715 0.27991 0.24458 0.0
C1414 C 0.4976 0.18942 0.04501 0.0
C1415 C 0.49878 0.31159 0.31053 0.0
C1416 C 0.53399 0.21959 0.2314 0.0
C1417 C 0.54164 0.24816 0.18657 0.0
C1418 C 0.5199 0.21966 0.22826 0.0
C1419 C 0.51316 0.24867 0.17827 0.0
C1420 C 0.52078 0.27685 0.13111 0.0
C1421 C 0.53489 0.27641 0.13611 0.0
C1422 C 0.5122 0.18907 0.27965 0.0
C1423 C 0.51402 0.30804 0.07645 0.0
H1424 H 0.47095 0.1983 0.07311 0.0
H1425 H 0.47198 0.303 0.29382 0.0
H1426 H 0.5047 0.20772 1.00751 0.0
H1427 H 0.50355 0.16496 0.0761 0.0
H1428 H 0.49039 0.17095 0.99804 0.0
H1429 H 0.49196 0.33326 0.35518 0.0
H1430 H 0.50514 0.2923 0.35092 0.0
H1431 H 0.50556 0.33305 0.27757 0.0
H1432 H 0.53904 0.19693 0.26912 0.0
H1433 H 0.54061 0.29902 0.10192 0.0
H1434 H 0.50554 0.16698 0.23483 0.0
H1435 H 0.50571 0.20903 0.32927 0.0
H1436 H 0.51891 0.16802 0.31423 0.0
H1437 H 0.50705 0.28919 0.02845 0.0
H1438 H 0.52135 0.32603 0.03983 0.0
H1439 H 0.50796 0.33292 0.1197 0.0
loop_
_geom_bond_atom_site_label_1
_geom_bond_atom_site_label_2
_geom_bond_distance
_geom_bond_site_symmetry_2
_ccdc_geom_bond_type
C0 C2 1.422 . S
C0 C4 1.415 . S
C0 N6 1.369 . S
C1 C2 1.421 . S
C1 C3 1.417 . S
C1 C13 1.422 . S
C2 C0 1.422 . S
C2 C1 1.421 . S
C2 N12 1.359 . S
C3 C1 1.417 . S
C3 C5 1.329 . S
C3 H22 0.930 . S
C4 C0 1.415 . S
C4 C5 1.437 . S
C4 C8 1.413 . S
C5 C3 1.329 . S
C5 C4 1.437 . S
C5 H27 0.929 . S
N6 C0 1.369 . S
N6 C7 1.338 . S
N6 Gd11 2.622 . S
C7 N6 1.338 . S
C7 C9 1.378 . S
C7 H19 0.929 . S
C8 C4 1.413 . S
C8 C9 1.348 . S
C8 H24 0.931 . S
C9 C7 1.378 . S
C9 C8 1.348 . S
C9 H25 0.930 . S
Gd10 N30 2.622 . S
Gd10 N37 2.570 . S
Gd10 O44 2.353 . S
Gd10 O45 2.468 . S
Gd10 O46 2.427 . S
Gd10 O48 2.388 . S
Gd10 O49 2.386 . S
Gd10 O53 2.307 . S
Gd10 C63 2.805 . S
Gd11 N6 2.622 . S
Gd11 N12 2.570 . S
Gd11 O43 2.386 . S
Gd11 O47 2.307 . S
Gd11 O50 2.353 . S
Gd11 O51 2.468 . S
Gd11 O52 2.427 . S
Gd11 O54 2.388 . S
Gd11 C75 2.805 . S
N12 C2 1.359 . S
N12 Gd11 2.570 . S
N12 C14 1.343 . S
C13 C1 1.422 . S
C13 C15 1.321 . S
C13 H21 0.931 . S
C14 N12 1.343 . S
C14 C15 1.390 . S
C14 H16 0.931 . S
C15 C13 1.321 . S
C15 C14 1.390 . S
C15 H17 0.930 . S
H16 C14 0.931 . S
H17 C15 0.930 . S
H18 C41 0.931 . S
H19 C7 0.929 . S
H20 C42 0.930 . S
H21 C13 0.931 . S
H22 C3 0.930 . S
H23 C32 0.929 . S
H24 C8 0.931 . S
H25 C9 0.930 . S
H26 C64 0.930 . S
H27 C5 0.929 . S
H28 C33 0.931 . S
H29 C34 0.930 . S
N30 Gd10 2.622 . S
N30 C31 1.369 . S
N30 C32 1.338 . S
C31 N30 1.369 . S
C31 C35 1.415 . S
C31 C38 1.422 . S
C32 H23 0.929 . S
C32 N30 1.338 . S
C32 C34 1.378 . S
C33 H28 0.931 . S
C33 C34 1.348 . S
C33 C35 1.413 . S
C34 H29 0.930 . S
C34 C32 1.378 . S
C34 C33 1.348 . S
C35 C31 1.415 . S
C35 C33 1.413 . S
C35 C65 1.437 . S
H36 C65 0.929 . S
N37 Gd10 2.570 . S
N37 C38 1.359 . S
N37 C41 1.343 . S
C38 C31 1.422 . S
C38 N37 1.359 . S
C38 C40 1.421 . S
C39 C40 1.422 . S
C39 C42 1.321 . S
C39 H66 0.931 . S
C40 C38 1.421 . S
C40 C39 1.422 . S
C40 C64 1.417 . S
C41 H18 0.931 . S
C41 N37 1.343 . S
C41 C42 1.390 . S
C42 H20 0.930 . S
C42 C39 1.321 . S
C42 C41 1.390 . S
O43 Gd11 2.386 . S
O43 C55 1.265 . S
O44 Gd10 2.353 . S
O44 C55 1.242 . S
O45 Gd10 2.468 . S
O45 C63 1.263 . S
O46 Gd10 2.427 . S
O46 C63 1.252 . S
O47 Gd11 2.307 . S
O47 C56 1.261 . S
O48 Gd10 2.388 . S
O48 C56 1.252 . S
O49 Gd10 2.386 . S
O49 C67 1.265 . S
O50 Gd11 2.353 . S
O50 C67 1.242 . S
O51 Gd11 2.468 . S
O51 C75 1.263 . S
O52 Gd11 2.427 . S
O52 C75 1.252 . S
O53 Gd10 2.307 . S
O53 C68 1.261 . S
O54 Gd11 2.388 . S
O54 C68 1.252 . S
C55 O43 1.265 . S
C55 O44 1.242 . S
C56 O47 1.261 . S
C56 O48 1.252 . S
C57 C60 1.394 . S
C57 C62 1.370 . S
C57 C63 1.500 . S
C58 C61 1.383 . S
C58 C62 1.395 . S
C59 C60 1.396 . S
C59 C61 1.365 . S
C59 H76 0.929 . S
C60 C57 1.394 . S
C60 C59 1.396 . S
C60 H77 0.930 . S
C61 C58 1.383 . S
C61 C59 1.365 . S
C61 H78 0.931 . S
C62 C57 1.370 . S
C62 C58 1.395 . S
C62 H79 0.930 . S
C63 Gd10 2.805 . S
C63 O45 1.263 . S
C63 O46 1.252 . S
C63 C57 1.500 . S
C64 H26 0.930 . S
C64 C40 1.417 . S
C64 C65 1.329 . S
C65 C35 1.437 . S
C65 H36 0.929 . S
C65 C64 1.329 . S
H66 C39 0.931 . S
C67 O49 1.265 . S
C67 O50 1.242 . S
C68 O53 1.261 . S
C68 O54 1.252 . S
C69 C72 1.394 . S
C69 C74 1.370 . S
C69 C75 1.500 . S
C70 C73 1.383 . S
C70 C74 1.395 . S
C71 C72 1.396 . S
C71 C73 1.365 . S
C71 H80 0.929 . S
C72 C69 1.394 . S
C72 C71 1.396 . S
C72 H81 0.930 . S
C73 C70 1.383 . S
C73 C71 1.365 . S
C73 H82 0.931 . S
C74 C69 1.370 . S
C74 C70 1.395 . S
C74 H83 0.930 . S
C75 Gd11 2.805 . S
C75 O51 1.263 . S
C75 O52 1.252 . S
C75 C69 1.500 . S
H76 C59 0.929 . S
H77 C60 0.930 . S
H78 C61 0.931 . S
H79 C62 0.930 . S
H80 C71 0.929 . S
H81 C72 0.930 . S
H82 C73 0.931 . S
H83 C74 0.930 . S
C84 C86 1.422 . S
C84 C88 1.415 . S
C84 N90 1.369 . S
C85 C86 1.421 . S
C85 C87 1.417 . S
C85 C97 1.422 . S
C86 C84 1.422 . S
C86 C85 1.421 . S
C86 N96 1.359 . S
C87 C85 1.417 . S
C87 C89 1.329 . S
C87 H106 0.930 . S
C88 C84 1.415 . S
C88 C89 1.437 . S
C88 C92 1.413 . S
C89 C87 1.329 . S
C89 C88 1.437 . S
C89 H111 0.929 . S
N90 C84 1.369 . S
N90 C91 1.338 . S
N90 Gd95 2.622 . S
C91 N90 1.338 . S
C91 C93 1.378 . S
C91 H103 0.929 . S
C92 C88 1.413 . S
C92 C93 1.348 . S
C92 H108 0.931 . S
C93 C91 1.378 . S
C93 C92 1.348 . S
C93 H109 0.930 . S
Gd94 N114 2.622 . S
Gd94 N121 2.570 . S
Gd94 O128 2.353 . S
Gd94 O129 2.468 . S
Gd94 O130 2.427 . S
Gd94 O132 2.388 . S
Gd94 O133 2.386 . S
Gd94 O137 2.307 . S
Gd94 C147 2.805 . S
Gd95 N90 2.622 . S
Gd95 N96 2.570 . S
Gd95 O127 2.386 . S
Gd95 O131 2.307 . S
Gd95 O134 2.353 . S
Gd95 O135 2.468 . S
Gd95 O136 2.427 . S
Gd95 O138 2.388 . S
Gd95 C159 2.805 . S
N96 C86 1.359 . S
N96 Gd95 2.570 . S
N96 C98 1.343 . S
C97 C85 1.422 . S
C97 C99 1.321 . S
C97 H105 0.931 . S
C98 N96 1.343 . S
C98 C99 1.390 . S
C98 H100 0.931 . S
C99 C97 1.321 . S
C99 C98 1.390 . S
C99 H101 0.930 . S
H100 C98 0.931 . S
H101 C99 0.930 . S
H102 C125 0.931 . S
H103 C91 0.929 . S
H104 C126 0.930 . S
H105 C97 0.931 . S
H106 C87 0.930 . S
H107 C116 0.929 . S
H108 C92 0.931 . S
H109 C93 0.930 . S
H110 C148 0.930 . S
H111 C89 0.929 . S
H112 C117 0.931 . S
H113 C118 0.930 . S
N114 Gd94 2.622 . S
N114 C115 1.369 . S
N114 C116 1.338 . S
C115 N114 1.369 . S
C115 C119 1.415 . S
C115 C122 1.422 . S
C116 H107 0.929 . S
C116 N114 1.338 . S
C116 C118 1.378 . S
C117 H112 0.931 . S
C117 C118 1.348 . S
C117 C119 1.413 . S
C118 H113 0.930 . S
C118 C116 1.378 . S
C118 C117 1.348 . S
C119 C115 1.415 . S
C119 C117 1.413 . S
C119 C149 1.437 . S
H120 C149 0.929 . S
N121 Gd94 2.570 . S
N121 C122 1.359 . S
N121 C125 1.343 . S
C122 C115 1.422 . S
C122 N121 1.359 . S
C122 C124 1.421 . S
C123 C124 1.422 . S
C123 C126 1.321 . S
C123 H150 0.931 . S
C124 C122 1.421 . S
C124 C123 1.422 . S
C124 C148 1.417 . S
C125 H102 0.931 . S
C125 N121 1.343 . S
C125 C126 1.390 . S
C126 H104 0.930 . S
C126 C123 1.321 . S
C126 C125 1.390 . S
O127 Gd95 2.386 . S
O127 C139 1.265 . S
O128 Gd94 2.353 . S
O128 C139 1.242 . S
O129 Gd94 2.468 . S
O129 C147 1.263 . S
O130 Gd94 2.427 . S
O130 C147 1.252 . S
O131 Gd95 2.307 . S
O131 C140 1.261 . S
O132 Gd94 2.388 . S
O132 C140 1.252 . S
O133 Gd94 2.386 . S
O133 C151 1.265 . S
O134 Gd95 2.353 . S
O134 C151 1.242 . S
O135 Gd95 2.468 . S
O135 C159 1.263 . S
O136 Gd95 2.427 . S
O136 C159 1.252 . S
O137 Gd94 2.307 . S
O137 C152 1.261 . S
O138 Gd95 2.388 . S
O138 C152 1.252 . S
C139 O127 1.265 . S
C139 O128 1.242 . S
C140 O131 1.261 . S
C140 O132 1.252 . S
C141 C144 1.394 . S
C141 C146 1.370 . S
C141 C147 1.500 . S
C142 C145 1.383 . S
C142 C146 1.395 . S
C143 C144 1.396 . S
C143 C145 1.365 . S
C143 H160 0.929 . S
C144 C141 1.394 . S
C144 C143 1.396 . S
C144 H161 0.930 . S
C145 C142 1.383 . S
C145 C143 1.365 . S
C145 H162 0.931 . S
C146 C141 1.370 . S
C146 C142 1.395 . S
C146 H163 0.930 . S
C147 Gd94 2.805 . S
C147 O129 1.263 . S
C147 O130 1.252 . S
C147 C141 1.500 . S
C148 H110 0.930 . S
C148 C124 1.417 . S
C148 C149 1.329 . S
C149 C119 1.437 . S
C149 H120 0.929 . S
C149 C148 1.329 . S
H150 C123 0.931 . S
C151 O133 1.265 . S
C151 O134 1.242 . S
C152 O137 1.261 . S
C152 O138 1.252 . S
C153 C156 1.394 . S
C153 C158 1.370 . S
C153 C159 1.500 . S
C154 C157 1.383 . S
C154 C158 1.395 . S
C155 C156 1.396 . S
C155 C157 1.365 . S
C155 H164 0.929 . S
C156 C153 1.394 . S
C156 C155 1.396 . S
C156 H165 0.930 . S
C157 C154 1.383 . S
C157 C155 1.365 . S
C157 H166 0.931 . S
C158 C153 1.370 . S
C158 C154 1.395 . S
C158 H167 0.930 . S
C159 Gd95 2.805 . S
C159 O135 1.263 . S
C159 O136 1.252 . S
C159 C153 1.500 . S
H160 C143 0.929 . S
H161 C144 0.930 . S
H162 C145 0.931 . S
H163 C146 0.930 . S
H164 C155 0.929 . S
H165 C156 0.930 . S
H166 C157 0.931 . S
H167 C158 0.930 . S
C168 C170 1.422 . S
C168 C172 1.415 . S
C168 N174 1.369 . S
C169 C170 1.421 . S
C169 C171 1.417 . S
C169 C181 1.422 . S
C170 C168 1.422 . S
C170 C169 1.421 . S
C170 N180 1.359 . S
C171 C169 1.417 . S
C171 C173 1.329 . S
C171 H190 0.930 . S
C172 C168 1.415 . S
C172 C173 1.437 . S
C172 C176 1.413 . S
C173 C171 1.329 . S
C173 C172 1.437 . S
C173 H195 0.929 . S
N174 C168 1.369 . S
N174 C175 1.338 . S
N174 Gd179 2.622 . S
C175 N174 1.338 . S
C175 C177 1.378 . S
C175 H187 0.929 . S
C176 C172 1.413 . S
C176 C177 1.348 . S
C176 H192 0.931 . S
C177 C175 1.378 . S
C177 C176 1.348 . S
C177 H193 0.930 . S
Gd178 N198 2.622 . S
Gd178 N205 2.570 . S
Gd178 O212 2.353 . S
Gd178 O213 2.468 . S
Gd178 O214 2.427 . S
Gd178 O216 2.388 . S
Gd178 O217 2.386 . S
Gd178 O221 2.307 . S
Gd178 C231 2.805 . S
Gd179 N174 2.622 . S
Gd179 N180 2.570 . S
Gd179 O211 2.386 . S
Gd179 O215 2.307 . S
Gd179 O218 2.353 . S
Gd179 O219 2.468 . S
Gd179 O220 2.427 . S
Gd179 O222 2.388 . S
Gd179 C243 2.805 . S
N180 C170 1.359 . S
N180 Gd179 2.570 . S
N180 C182 1.343 . S
C181 C169 1.422 . S
C181 C183 1.321 . S
C181 H189 0.931 . S
C182 N180 1.343 . S
C182 C183 1.390 . S
C182 H184 0.931 . S
C183 C181 1.321 . S
C183 C182 1.390 . S
C183 H185 0.930 . S
H184 C182 0.931 . S
H185 C183 0.930 . S
H186 C209 0.931 . S
H187 C175 0.929 . S
H188 C210 0.930 . S
H189 C181 0.931 . S
H190 C171 0.930 . S
H191 C200 0.929 . S
H192 C176 0.931 . S
H193 C177 0.930 . S
H194 C232 0.930 . S
H195 C173 0.929 . S
H196 C201 0.931 . S
H197 C202 0.930 . S
N198 Gd178 2.622 . S
N198 C199 1.369 . S
N198 C200 1.338 . S
C199 N198 1.369 . S
C199 C203 1.415 . S
C199 C206 1.422 . S
C200 H191 0.929 . S
C200 N198 1.338 . S
C200 C202 1.378 . S
C201 H196 0.931 . S
C201 C202 1.348 . S
C201 C203 1.413 . S
C202 H197 0.930 . S
C202 C200 1.378 . S
C202 C201 1.348 . S
C203 C199 1.415 . S
C203 C201 1.413 . S
C203 C233 1.437 . S
H204 C233 0.929 . S
N205 Gd178 2.570 . S
N205 C206 1.359 . S
N205 C209 1.343 . S
C206 C199 1.422 . S
C206 N205 1.359 . S
C206 C208 1.421 . S
C207 C208 1.422 . S
C207 C210 1.321 . S
C207 H234 0.931 . S
C208 C206 1.421 . S
C208 C207 1.422 . S
C208 C232 1.417 . S
C209 H186 0.931 . S
C209 N205 1.343 . S
C209 C210 1.390 . S
C210 H188 0.930 . S
C210 C207 1.321 . S
C210 C209 1.390 . S
O211 Gd179 2.386 . S
O211 C223 1.265 . S
O212 Gd178 2.353 . S
O212 C223 1.242 . S
O213 Gd178 2.468 . S
O213 C231 1.263 . S
O214 Gd178 2.427 . S
O214 C231 1.252 . S
O215 Gd179 2.307 . S
O215 C224 1.261 . S
O216 Gd178 2.388 . S
O216 C224 1.252 . S
O217 Gd178 2.386 . S
O217 C235 1.265 . S
O218 Gd179 2.353 . S
O218 C235 1.242 . S
O219 Gd179 2.468 . S
O219 C243 1.263 . S
O220 Gd179 2.427 . S
O220 C243 1.252 . S
O221 Gd178 2.307 . S
O221 C236 1.261 . S
O222 Gd179 2.388 . S
O222 C236 1.252 . S
C223 O211 1.265 . S
C223 O212 1.242 . S
C224 O215 1.261 . S
C224 O216 1.252 . S
C225 C228 1.394 . S
C225 C230 1.370 . S
C225 C231 1.500 . S
C226 C229 1.383 . S
C226 C230 1.395 . S
C227 C228 1.396 . S
C227 C229 1.365 . S
C227 H244 0.929 . S
C228 C225 1.394 . S
C228 C227 1.396 . S
C228 H245 0.930 . S
C229 C226 1.383 . S
C229 C227 1.365 . S
C229 H246 0.931 . S
C230 C225 1.370 . S
C230 C226 1.395 . S
C230 H247 0.930 . S
C231 Gd178 2.805 . S
C231 O213 1.263 . S
C231 O214 1.252 . S
C231 C225 1.500 . S
C232 H194 0.930 . S
C232 C208 1.417 . S
C232 C233 1.329 . S
C233 C203 1.437 . S
C233 H204 0.929 . S
C233 C232 1.329 . S
H234 C207 0.931 . S
C235 O217 1.265 . S
C235 O218 1.242 . S
C236 O221 1.261 . S
C236 O222 1.252 . S
C237 C240 1.394 . S
C237 C242 1.370 . S
C237 C243 1.500 . S
C238 C241 1.383 . S
C238 C242 1.395 . S
C239 C240 1.396 . S
C239 C241 1.365 . S
C239 H248 0.929 . S
C240 C237 1.394 . S
C240 C239 1.396 . S
C240 H249 0.930 . S
C241 C238 1.383 . S
C241 C239 1.365 . S
C241 H250 0.931 . S
C242 C237 1.370 . S
C242 C238 1.395 . S
C242 H251 0.930 . S
C243 Gd179 2.805 . S
C243 O219 1.263 . S
C243 O220 1.252 . S
C243 C237 1.500 . S
H244 C227 0.929 . S
H245 C228 0.930 . S
H246 C229 0.931 . S
H247 C230 0.930 . S
H248 C239 0.929 . S
H249 C240 0.930 . S
H250 C241 0.931 . S
H251 C242 0.930 . S
C252 C254 1.422 . S
C252 C256 1.415 . S
C252 N258 1.369 . S
C253 C254 1.421 . S
C253 C255 1.417 . S
C253 C265 1.422 . S
C254 C252 1.422 . S
C254 C253 1.421 . S
C254 N264 1.359 . S
C255 C253 1.417 . S
C255 C257 1.329 . S
C255 H274 0.930 . S
C256 C252 1.415 . S
C256 C257 1.437 . S
C256 C260 1.413 . S
C257 C255 1.329 . S
C257 C256 1.437 . S
C257 H279 0.929 . S
N258 C252 1.369 . S
N258 C259 1.338 . S
N258 Gd263 2.622 . S
C259 N258 1.338 . S
C259 C261 1.378 . S
C259 H271 0.929 . S
C260 C256 1.413 . S
C260 C261 1.348 . S
C260 H276 0.931 . S
C261 C259 1.378 . S
C261 C260 1.348 . S
C261 H277 0.930 . S
Gd262 N282 2.622 . S
Gd262 N289 2.570 . S
Gd262 O296 2.353 . S
Gd262 O297 2.468 . S
Gd262 O298 2.427 . S
Gd262 O300 2.388 . S
Gd262 O301 2.386 . S
Gd262 O305 2.307 . S
Gd262 C315 2.805 . S
Gd263 N258 2.622 . S
Gd263 N264 2.570 . S
Gd263 O295 2.386 . S
Gd263 O299 2.307 . S
Gd263 O302 2.353 . S
Gd263 O303 2.468 . S
Gd263 O304 2.427 . S
Gd263 O306 2.388 . S
Gd263 C327 2.805 . S
N264 C254 1.359 . S
N264 Gd263 2.570 . S
N264 C266 1.343 . S
C265 C253 1.422 . S
C265 C267 1.321 . S
C265 H273 0.931 . S
C266 N264 1.343 . S
C266 C267 1.390 . S
C266 H268 0.931 . S
C267 C265 1.321 . S
C267 C266 1.390 . S
C267 H269 0.930 . S
H268 C266 0.931 . S
H269 C267 0.930 . S
H270 C293 0.931 . S
H271 C259 0.929 . S
H272 C294 0.930 . S
H273 C265 0.931 . S
H274 C255 0.930 . S
H275 C284 0.929 . S
H276 C260 0.931 . S
H277 C261 0.930 . S
H278 C316 0.930 . S
H279 C257 0.929 . S
H280 C285 0.931 . S
H281 C286 0.930 . S
N282 Gd262 2.622 . S
N282 C283 1.369 . S
N282 C284 1.338 . S
C283 N282 1.369 . S
C283 C287 1.415 . S
C283 C290 1.422 . S
C284 H275 0.929 . S
C284 N282 1.338 . S
C284 C286 1.378 . S
C285 H280 0.931 . S
C285 C286 1.348 . S
C285 C287 1.413 . S
C286 H281 0.930 . S
C286 C284 1.378 . S
C286 C285 1.348 . S
C287 C283 1.415 . S
C287 C285 1.413 . S
C287 C317 1.437 . S
H288 C317 0.929 . S
N289 Gd262 2.570 . S
N289 C290 1.359 . S
N289 C293 1.343 . S
C290 C283 1.422 . S
C290 N289 1.359 . S
C290 C292 1.421 . S
C291 C292 1.422 . S
C291 C294 1.321 . S
C291 H318 0.931 . S
C292 C290 1.421 . S
C292 C291 1.422 . S
C292 C316 1.417 . S
C293 H270 0.931 . S
C293 N289 1.343 . S
C293 C294 1.390 . S
C294 H272 0.930 . S
C294 C291 1.321 . S
C294 C293 1.390 . S
O295 Gd263 2.386 . S
O295 C307 1.265 . S
O296 Gd262 2.353 . S
O296 C307 1.242 . S
O297 Gd262 2.468 . S
O297 C315 1.263 . S
O298 Gd262 2.427 . S
O298 C315 1.252 . S
O299 Gd263 2.307 . S
O299 C308 1.261 . S
O300 Gd262 2.388 . S
O300 C308 1.252 . S
O301 Gd262 2.386 . S
O301 C319 1.265 . S
O302 Gd263 2.353 . S
O302 C319 1.242 . S
O303 Gd263 2.468 . S
O303 C327 1.263 . S
O304 Gd263 2.427 . S
O304 C327 1.252 . S
O305 Gd262 2.307 . S
O305 C320 1.261 . S
O306 Gd263 2.388 . S
O306 C320 1.252 . S
C307 O295 1.265 . S
C307 O296 1.242 . S
C308 O299 1.261 . S
C308 O300 1.252 . S
C309 C312 1.394 . S
C309 C314 1.370 . S
C309 C315 1.500 . S
C310 C313 1.383 . S
C310 C314 1.395 . S
C311 C312 1.396 . S
C311 C313 1.365 . S
C311 H328 0.929 . S
C312 C309 1.394 . S
C312 C311 1.396 . S
C312 H329 0.930 . S
C313 C310 1.383 . S
C313 C311 1.365 . S
C313 H330 0.931 . S
C314 C309 1.370 . S
C314 C310 1.395 . S
C314 H331 0.930 . S
C315 Gd262 2.805 . S
C315 O297 1.263 . S
C315 O298 1.252 . S
C315 C309 1.500 . S
C316 H278 0.930 . S
C316 C292 1.417 . S
C316 C317 1.329 . S
C317 C287 1.437 . S
C317 H288 0.929 . S
C317 C316 1.329 . S
H318 C291 0.931 . S
C319 O301 1.265 . S
C319 O302 1.242 . S
C320 O305 1.261 . S
C320 O306 1.252 . S
C321 C324 1.394 . S
C321 C326 1.370 . S
C321 C327 1.500 . S
C322 C325 1.383 . S
C322 C326 1.395 . S
C323 C324 1.396 . S
C323 C325 1.365 . S
C323 H332 0.929 . S
C324 C321 1.394 . S
C324 C323 1.396 . S
C324 H333 0.930 . S
C325 C322 1.383 . S
C325 C323 1.365 . S
C325 H334 0.931 . S
C326 C321 1.370 . S
C326 C322 1.395 . S
C326 H335 0.930 . S
C327 Gd263 2.805 . S
C327 O303 1.263 . S
C327 O304 1.252 . S
C327 C321 1.500 . S
H328 C311 0.929 . S
H329 C312 0.930 . S
H330 C313 0.931 . S
H331 C314 0.930 . S
H332 C323 0.929 . S
H333 C324 0.930 . S
H334 C325 0.931 . S
H335 C326 0.930 . S
C336 C338 1.422 . S
C336 C340 1.415 . S
C336 N342 1.369 . S
C337 C338 1.421 . S
C337 C339 1.417 . S
C337 C349 1.422 . S
C338 C336 1.422 . S
C338 C337 1.421 . S
C338 N348 1.359 . S
C339 C337 1.417 . S
C339 C341 1.329 . S
C339 H358 0.930 . S
C340 C336 1.415 . S
C340 C341 1.437 . S
C340 C344 1.413 . S
C341 C339 1.329 . S
C341 C340 1.437 . S
C341 H363 0.929 . S
N342 C336 1.369 . S
N342 C343 1.338 . S
N342 Gd347 2.622 . S
C343 N342 1.338 . S
C343 C345 1.378 . S
C343 H355 0.929 . S
C344 C340 1.413 . S
C344 C345 1.348 . S
C344 H360 0.931 . S
C345 C343 1.378 . S
C345 C344 1.348 . S
C345 H361 0.930 . S
Gd346 N366 2.622 . S
Gd346 N373 2.570 . S
Gd346 O380 2.353 1_556 S
Gd346 O381 2.468 1_556 S
Gd346 O382 2.427 1_556 S
Gd346 O384 2.388 1_556 S
Gd346 O385 2.386 . S
Gd346 O389 2.307 . S
Gd346 C399 2.805 1_556 S
Gd347 N342 2.622 . S
Gd347 N348 2.570 . S
Gd347 O379 2.386 . S
Gd347 O383 2.307 . S
Gd347 O386 2.353 1_554 S
Gd347 O387 2.468 1_554 S
Gd347 O388 2.427 1_554 S
Gd347 O390 2.388 1_554 S
Gd347 C411 2.805 1_554 S
N348 C338 1.359 . S
N348 Gd347 2.570 . S
N348 C350 1.343 . S
C349 C337 1.422 . S
C349 C351 1.321 . S
C349 H357 0.931 . S
C350 N348 1.343 . S
C350 C351 1.390 . S
C350 H352 0.931 . S
C351 C349 1.321 . S
C351 C350 1.390 . S
C351 H353 0.930 . S
H352 C350 0.931 . S
H353 C351 0.930 . S
H354 C377 0.931 . S
H355 C343 0.929 . S
H356 C378 0.930 . S
H357 C349 0.931 . S
H358 C339 0.930 . S
H359 C368 0.929 . S
H360 C344 0.931 . S
H361 C345 0.930 . S
H362 C400 0.930 . S
H363 C341 0.929 . S
H364 C369 0.931 . S
H365 C370 0.930 . S
N366 Gd346 2.622 . S
N366 C367 1.369 . S
N366 C368 1.338 . S
C367 N366 1.369 . S
C367 C371 1.415 . S
C367 C374 1.422 . S
C368 H359 0.929 . S
C368 N366 1.338 . S
C368 C370 1.378 . S
C369 H364 0.931 . S
C369 C370 1.348 . S
C369 C371 1.413 . S
C370 H365 0.930 . S
C370 C368 1.378 . S
C370 C369 1.348 . S
C371 C367 1.415 . S
C371 C369 1.413 . S
C371 C401 1.437 . S
H372 C401 0.929 . S
N373 Gd346 2.570 . S
N373 C374 1.359 . S
N373 C377 1.343 . S
C374 C367 1.422 . S
C374 N373 1.359 . S
C374 C376 1.421 . S
C375 C376 1.422 . S
C375 C378 1.321 . S
C375 H402 0.931 . S
C376 C374 1.421 . S
C376 C375 1.422 . S
C376 C400 1.417 . S
C377 H354 0.931 . S
C377 N373 1.343 . S
C377 C378 1.390 . S
C378 H356 0.930 . S
C378 C375 1.321 . S
C378 C377 1.390 . S
O379 Gd347 2.386 . S
O379 C391 1.265 . S
O380 Gd346 2.353 1_554 S
O380 C391 1.242 . S
O381 Gd346 2.468 1_554 S
O381 C399 1.263 . S
O382 Gd346 2.427 1_554 S
O382 C399 1.252 . S
O383 Gd347 2.307 . S
O383 C392 1.261 . S
O384 Gd346 2.388 1_554 S
O384 C392 1.252 . S
O385 Gd346 2.386 . S
O385 C403 1.265 . S
O386 Gd347 2.353 1_556 S
O386 C403 1.242 . S
O387 Gd347 2.468 1_556 S
O387 C411 1.263 . S
O388 Gd347 2.427 1_556 S
O388 C411 1.252 . S
O389 Gd346 2.307 . S
O389 C404 1.261 . S
O390 Gd347 2.388 1_556 S
O390 C404 1.252 . S
C391 O379 1.265 . S
C391 O380 1.242 . S
C392 O383 1.261 . S
C392 O384 1.252 . S
C393 C396 1.394 . S
C393 C398 1.370 . S
C393 C399 1.500 . S
C394 C397 1.383 . S
C394 C398 1.395 . S
C395 C396 1.396 . S
C395 C397 1.365 . S
C395 H412 0.929 . S
C396 C393 1.394 . S
C396 C395 1.396 . S
C396 H413 0.930 . S
C397 C394 1.383 . S
C397 C395 1.365 . S
C397 H414 0.931 . S
C398 C393 1.370 . S
C398 C394 1.395 . S
C398 H415 0.930 . S
C399 Gd346 2.805 1_554 S
C399 O381 1.263 . S
C399 O382 1.252 . S
C399 C393 1.500 . S
C400 H362 0.930 . S
C400 C376 1.417 . S
C400 C401 1.329 . S
C401 C371 1.437 . S
C401 H372 0.929 . S
C401 C400 1.329 . S
H402 C375 0.931 . S
C403 O385 1.265 . S
C403 O386 1.242 . S
C404 O389 1.261 . S
C404 O390 1.252 . S
C405 C408 1.394 . S
C405 C410 1.370 . S
C405 C411 1.500 . S
C406 C409 1.383 . S
C406 C410 1.395 . S
C407 C408 1.396 . S
C407 C409 1.365 . S
C407 H416 0.929 . S
C408 C405 1.394 . S
C408 C407 1.396 . S
C408 H417 0.930 . S
C409 C406 1.383 . S
C409 C407 1.365 . S
C409 H418 0.931 . S
C410 C405 1.370 . S
C410 C406 1.395 . S
C410 H419 0.930 . S
C411 Gd347 2.805 1_556 S
C411 O387 1.263 . S
C411 O388 1.252 . S
C411 C405 1.500 . S
H412 C395 0.929 . S
H413 C396 0.930 . S
H414 C397 0.931 . S
H415 C398 0.930 . S
H416 C407 0.929 . S
H417 C408 0.930 . S
H418 C409 0.931 . S
H419 C410 0.930 . S
C420 C422 1.422 . S
C420 C424 1.415 . S
C420 N426 1.369 . S
C421 C422 1.421 . S
C421 C423 1.417 . S
C421 C433 1.422 . S
C422 C420 1.422 . S
C422 C421 1.421 . S
C422 N432 1.359 . S
C423 C421 1.417 . S
C423 C425 1.329 . S
C423 H442 0.930 . S
C424 C420 1.415 . S
C424 C425 1.437 . S
C424 C428 1.413 . S
C425 C423 1.329 . S
C425 C424 1.437 . S
C425 H447 0.929 . S
N426 C420 1.369 . S
N426 C427 1.338 . S
N426 Gd431 2.622 . S
C427 N426 1.338 . S
C427 C429 1.378 . S
C427 H439 0.929 . S
C428 C424 1.413 . S
C428 C429 1.348 . S
C428 H444 0.931 . S
C429 C427 1.378 . S
C429 C428 1.348 . S
C429 H445 0.930 . S
Gd430 N450 2.622 . S
Gd430 N457 2.570 . S
Gd430 O464 2.353 1_554 S
Gd430 O465 2.468 1_554 S
Gd430 O466 2.427 1_554 S
Gd430 O468 2.388 1_554 S
Gd430 O469 2.386 . S
Gd430 O473 2.307 . S
Gd430 C483 2.805 1_554 S
Gd431 N426 2.622 . S
Gd431 N432 2.570 . S
Gd431 O463 2.386 . S
Gd431 O467 2.307 . S
Gd431 O470 2.353 1_556 S
Gd431 O471 2.468 1_556 S
Gd431 O472 2.427 1_556 S
Gd431 O474 2.388 1_556 S
Gd431 C495 2.805 1_556 S
N432 C422 1.359 . S
N432 Gd431 2.570 . S
N432 C434 1.343 . S
C433 C421 1.422 . S
C433 C435 1.321 . S
C433 H441 0.931 . S
C434 N432 1.343 . S
C434 C435 1.390 . S
C434 H436 0.931 . S
C435 C433 1.321 . S
C435 C434 1.390 . S
C435 H437 0.930 . S
H436 C434 0.931 . S
H437 C435 0.930 . S
H438 C461 0.931 . S
H439 C427 0.929 . S
H440 C462 0.930 . S
H441 C433 0.931 . S
H442 C423 0.930 . S
H443 C452 0.929 . S
H444 C428 0.931 . S
H445 C429 0.930 . S
H446 C484 0.930 . S
H447 C425 0.929 . S
H448 C453 0.931 . S
H449 C454 0.930 . S
N450 Gd430 2.622 . S
N450 C451 1.369 . S
N450 C452 1.338 . S
C451 N450 1.369 . S
C451 C455 1.415 . S
C451 C458 1.422 . S
C452 H443 0.929 . S
C452 N450 1.338 . S
C452 C454 1.378 . S
C453 H448 0.931 . S
C453 C454 1.348 . S
C453 C455 1.413 . S
C454 H449 0.930 . S
C454 C452 1.378 . S
C454 C453 1.348 . S
C455 C451 1.415 . S
C455 C453 1.413 . S
C455 C485 1.437 . S
H456 C485 0.929 . S
N457 Gd430 2.570 . S
N457 C458 1.359 . S
N457 C461 1.343 . S
C458 C451 1.422 . S
C458 N457 1.359 . S
C458 C460 1.421 . S
C459 C460 1.422 . S
C459 C462 1.321 . S
C459 H486 0.931 . S
C460 C458 1.421 . S
C460 C459 1.422 . S
C460 C484 1.417 . S
C461 H438 0.931 . S
C461 N457 1.343 . S
C461 C462 1.390 . S
C462 H440 0.930 . S
C462 C459 1.321 . S
C462 C461 1.390 . S
O463 Gd431 2.386 . S
O463 C475 1.265 . S
O464 Gd430 2.353 1_556 S
O464 C475 1.242 . S
O465 Gd430 2.468 1_556 S
O465 C483 1.263 . S
O466 Gd430 2.427 1_556 S
O466 C483 1.252 . S
O467 Gd431 2.307 . S
O467 C476 1.261 . S
O468 Gd430 2.388 1_556 S
O468 C476 1.252 . S
O469 Gd430 2.386 . S
O469 C487 1.265 . S
O470 Gd431 2.353 1_554 S
O470 C487 1.242 . S
O471 Gd431 2.468 1_554 S
O471 C495 1.263 . S
O472 Gd431 2.427 1_554 S
O472 C495 1.252 . S
O473 Gd430 2.307 . S
O473 C488 1.261 . S
O474 Gd431 2.388 1_554 S
O474 C488 1.252 . S
C475 O463 1.265 . S
C475 O464 1.242 . S
C476 O467 1.261 . S
C476 O468 1.252 . S
C477 C480 1.394 . S
C477 C482 1.370 . S
C477 C483 1.500 . S
C478 C481 1.383 . S
C478 C482 1.395 . S
C479 C480 1.396 . S
C479 C481 1.365 . S
C479 H496 0.929 . S
C480 C477 1.394 . S
C480 C479 1.396 . S
C480 H497 0.930 . S
C481 C478 1.383 . S
C481 C479 1.365 . S
C481 H498 0.931 . S
C482 C477 1.370 . S
C482 C478 1.395 . S
C482 H499 0.930 . S
C483 Gd430 2.805 1_556 S
C483 O465 1.263 . S
C483 O466 1.252 . S
C483 C477 1.500 . S
C484 H446 0.930 . S
C484 C460 1.417 . S
C484 C485 1.329 . S
C485 C455 1.437 . S
C485 H456 0.929 . S
C485 C484 1.329 . S
H486 C459 0.931 . S
C487 O469 1.265 . S
C487 O470 1.242 . S
C488 O473 1.261 . S
C488 O474 1.252 . S
C489 C492 1.394 . S
C489 C494 1.370 . S
C489 C495 1.500 . S
C490 C493 1.383 . S
C490 C494 1.395 . S
C491 C492 1.396 . S
C491 C493 1.365 . S
C491 H500 0.929 . S
C492 C489 1.394 . S
C492 C491 1.396 . S
C492 H501 0.930 . S
C493 C490 1.383 . S
C493 C491 1.365 . S
C493 H502 0.931 . S
C494 C489 1.370 . S
C494 C490 1.395 . S
C494 H503 0.930 . S
C495 Gd431 2.805 1_554 S
C495 O471 1.263 . S
C495 O472 1.252 . S
C495 C489 1.500 . S
H496 C479 0.929 . S
H497 C480 0.930 . S
H498 C481 0.931 . S
H499 C482 0.930 . S
H500 C491 0.929 . S
H501 C492 0.930 . S
H502 C493 0.931 . S
H503 C494 0.930 . S
C504 C506 1.422 . S
C504 C508 1.415 . S
C504 N510 1.369 . S
C505 C506 1.421 . S
C505 C507 1.417 . S
C505 C517 1.422 . S
C506 C504 1.422 . S
C506 C505 1.421 . S
C506 N516 1.359 . S
C507 C505 1.417 . S
C507 C509 1.329 . S
C507 H526 0.930 . S
C508 C504 1.415 . S
C508 C509 1.437 . S
C508 C512 1.413 . S
C509 C507 1.329 . S
C509 C508 1.437 . S
C509 H531 0.929 . S
N510 C504 1.369 . S
N510 C511 1.338 . S
N510 Gd515 2.622 . S
C511 N510 1.338 . S
C511 C513 1.378 . S
C511 H523 0.929 . S
C512 C508 1.413 . S
C512 C513 1.348 . S
C512 H528 0.931 . S
C513 C511 1.378 . S
C513 C512 1.348 . S
C513 H529 0.930 . S
Gd514 N534 2.622 . S
Gd514 N541 2.570 . S
Gd514 O548 2.353 1_554 S
Gd514 O549 2.468 1_554 S
Gd514 O550 2.427 1_554 S
Gd514 O552 2.388 1_554 S
Gd514 O553 2.386 . S
Gd514 O557 2.307 . S
Gd514 C567 2.805 1_554 S
Gd515 N510 2.622 . S
Gd515 N516 2.570 . S
Gd515 O547 2.386 . S
Gd515 O551 2.307 . S
Gd515 O554 2.353 1_556 S
Gd515 O555 2.468 1_556 S
Gd515 O556 2.427 1_556 S
Gd515 O558 2.388 1_556 S
Gd515 C579 2.805 1_556 S
N516 C506 1.359 . S
N516 Gd515 2.570 . S
N516 C518 1.343 . S
C517 C505 1.422 . S
C517 C519 1.321 . S
C517 H525 0.931 . S
C518 N516 1.343 . S
C518 C519 1.390 . S
C518 H520 0.931 . S
C519 C517 1.321 . S
C519 C518 1.390 . S
C519 H521 0.930 . S
H520 C518 0.931 . S
H521 C519 0.930 . S
H522 C545 0.931 . S
H523 C511 0.929 . S
H524 C546 0.930 . S
H525 C517 0.931 . S
H526 C507 0.930 . S
H527 C536 0.929 . S
H528 C512 0.931 . S
H529 C513 0.930 . S
H530 C568 0.930 . S
H531 C509 0.929 . S
H532 C537 0.931 . S
H533 C538 0.930 . S
N534 Gd514 2.622 . S
N534 C535 1.369 . S
N534 C536 1.338 . S
C535 N534 1.369 . S
C535 C539 1.415 . S
C535 C542 1.422 . S
C536 H527 0.929 . S
C536 N534 1.338 . S
C536 C538 1.378 . S
C537 H532 0.931 . S
C537 C538 1.348 . S
C537 C539 1.413 . S
C538 H533 0.930 . S
C538 C536 1.378 . S
C538 C537 1.348 . S
C539 C535 1.415 . S
C539 C537 1.413 . S
C539 C569 1.437 . S
H540 C569 0.929 . S
N541 Gd514 2.570 . S
N541 C542 1.359 . S
N541 C545 1.343 . S
C542 C535 1.422 . S
C542 N541 1.359 . S
C542 C544 1.421 . S
C543 C544 1.422 . S
C543 C546 1.321 . S
C543 H570 0.931 . S
C544 C542 1.421 . S
C544 C543 1.422 . S
C544 C568 1.417 . S
C545 H522 0.931 . S
C545 N541 1.343 . S
C545 C546 1.390 . S
C546 H524 0.930 . S
C546 C543 1.321 . S
C546 C545 1.390 . S
O547 Gd515 2.386 . S
O547 C559 1.265 . S
O548 Gd514 2.353 1_556 S
O548 C559 1.242 . S
O549 Gd514 2.468 1_556 S
O549 C567 1.263 . S
O550 Gd514 2.427 1_556 S
O550 C567 1.252 . S
O551 Gd515 2.307 . S
O551 C560 1.261 . S
O552 Gd514 2.388 1_556 S
O552 C560 1.252 . S
O553 Gd514 2.386 . S
O553 C571 1.265 . S
O554 Gd515 2.353 1_554 S
O554 C571 1.242 . S
O555 Gd515 2.468 1_554 S
O555 C579 1.263 . S
O556 Gd515 2.427 1_554 S
O556 C579 1.252 . S
O557 Gd514 2.307 . S
O557 C572 1.261 . S
O558 Gd515 2.388 1_554 S
O558 C572 1.252 . S
C559 O547 1.265 . S
C559 O548 1.242 . S
C560 O551 1.261 . S
C560 O552 1.252 . S
C561 C564 1.394 . S
C561 C566 1.370 . S
C561 C567 1.500 . S
C562 C565 1.383 . S
C562 C566 1.395 . S
C563 C564 1.396 . S
C563 C565 1.365 . S
C563 H580 0.929 . S
C564 C561 1.394 . S
C564 C563 1.396 . S
C564 H581 0.930 . S
C565 C562 1.383 . S
C565 C563 1.365 . S
C565 H582 0.931 . S
C566 C561 1.370 . S
C566 C562 1.395 . S
C566 H583 0.930 . S
C567 Gd514 2.805 1_556 S
C567 O549 1.263 . S
C567 O550 1.252 . S
C567 C561 1.500 . S
C568 H530 0.930 . S
C568 C544 1.417 . S
C568 C569 1.329 . S
C569 C539 1.437 . S
C569 H540 0.929 . S
C569 C568 1.329 . S
H570 C543 0.931 . S
C571 O553 1.265 . S
C571 O554 1.242 . S
C572 O557 1.261 . S
C572 O558 1.252 . S
C573 C576 1.394 . S
C573 C578 1.370 . S
C573 C579 1.500 . S
C574 C577 1.383 . S
C574 C578 1.395 . S
C575 C576 1.396 . S
C575 C577 1.365 . S
C575 H584 0.929 . S
C576 C573 1.394 . S
C576 C575 1.396 . S
C576 H585 0.930 . S
C577 C574 1.383 . S
C577 C575 1.365 . S
C577 H586 0.931 . S
C578 C573 1.370 . S
C578 C574 1.395 . S
C578 H587 0.930 . S
C579 Gd515 2.805 1_554 S
C579 O555 1.263 . S
C579 O556 1.252 . S
C579 C573 1.500 . S
H580 C563 0.929 . S
H581 C564 0.930 . S
H582 C565 0.931 . S
H583 C566 0.930 . S
H584 C575 0.929 . S
H585 C576 0.930 . S
H586 C577 0.931 . S
H587 C578 0.930 . S
C588 C590 1.422 . S
C588 C592 1.415 . S
C588 N594 1.369 . S
C589 C590 1.421 . S
C589 C591 1.417 . S
C589 C601 1.422 . S
C590 C588 1.422 . S
C590 C589 1.421 . S
C590 N600 1.359 . S
C591 C589 1.417 . S
C591 C593 1.329 . S
C591 H610 0.930 . S
C592 C588 1.415 . S
C592 C593 1.437 . S
C592 C596 1.413 . S
C593 C591 1.329 . S
C593 C592 1.437 . S
C593 H615 0.929 . S
N594 C588 1.369 . S
N594 C595 1.338 . S
N594 Gd599 2.622 . S
C595 N594 1.338 . S
C595 C597 1.378 . S
C595 H607 0.929 . S
C596 C592 1.413 . S
C596 C597 1.348 . S
C596 H612 0.931 . S
C597 C595 1.378 . S
C597 C596 1.348 . S
C597 H613 0.930 . S
Gd598 N618 2.622 . S
Gd598 N625 2.570 . S
Gd598 O632 2.353 1_556 S
Gd598 O633 2.468 1_556 S
Gd598 O634 2.427 1_556 S
Gd598 O636 2.388 1_556 S
Gd598 O637 2.386 . S
Gd598 O641 2.307 . S
Gd598 C651 2.805 1_556 S
Gd599 N594 2.622 . S
Gd599 N600 2.570 . S
Gd599 O631 2.386 . S
Gd599 O635 2.307 . S
Gd599 O638 2.353 1_554 S
Gd599 O639 2.468 1_554 S
Gd599 O640 2.427 1_554 S
Gd599 O642 2.388 1_554 S
Gd599 C663 2.805 1_554 S
N600 C590 1.359 . S
N600 Gd599 2.570 . S
N600 C602 1.343 . S
C601 C589 1.422 . S
C601 C603 1.321 . S
C601 H609 0.931 . S
C602 N600 1.343 . S
C602 C603 1.390 . S
C602 H604 0.931 . S
C603 C601 1.321 . S
C603 C602 1.390 . S
C603 H605 0.930 . S
H604 C602 0.931 . S
H605 C603 0.930 . S
H606 C629 0.931 . S
H607 C595 0.929 . S
H608 C630 0.930 . S
H609 C601 0.931 . S
H610 C591 0.930 . S
H611 C620 0.929 . S
H612 C596 0.931 . S
H613 C597 0.930 . S
H614 C652 0.930 . S
H615 C593 0.929 . S
H616 C621 0.931 . S
H617 C622 0.930 . S
N618 Gd598 2.622 . S
N618 C619 1.369 . S
N618 C620 1.338 . S
C619 N618 1.369 . S
C619 C623 1.415 . S
C619 C626 1.422 . S
C620 H611 0.929 . S
C620 N618 1.338 . S
C620 C622 1.378 . S
C621 H616 0.931 . S
C621 C622 1.348 . S
C621 C623 1.413 . S
C622 H617 0.930 . S
C622 C620 1.378 . S
C622 C621 1.348 . S
C623 C619 1.415 . S
C623 C621 1.413 . S
C623 C653 1.437 . S
H624 C653 0.929 . S
N625 Gd598 2.570 . S
N625 C626 1.359 . S
N625 C629 1.343 . S
C626 C619 1.422 . S
C626 N625 1.359 . S
C626 C628 1.421 . S
C627 C628 1.422 . S
C627 C630 1.321 . S
C627 H654 0.931 . S
C628 C626 1.421 . S
C628 C627 1.422 . S
C628 C652 1.417 . S
C629 H606 0.931 . S
C629 N625 1.343 . S
C629 C630 1.390 . S
C630 H608 0.930 . S
C630 C627 1.321 . S
C630 C629 1.390 . S
O631 Gd599 2.386 . S
O631 C643 1.265 . S
O632 Gd598 2.353 1_554 S
O632 C643 1.242 . S
O633 Gd598 2.468 1_554 S
O633 C651 1.263 . S
O634 Gd598 2.427 1_554 S
O634 C651 1.252 . S
O635 Gd599 2.307 . S
O635 C644 1.261 . S
O636 Gd598 2.388 1_554 S
O636 C644 1.252 . S
O637 Gd598 2.386 . S
O637 C655 1.265 . S
O638 Gd599 2.353 1_556 S
O638 C655 1.242 . S
O639 Gd599 2.468 1_556 S
O639 C663 1.263 . S
O640 Gd599 2.427 1_556 S
O640 C663 1.252 . S
O641 Gd598 2.307 . S
O641 C656 1.261 . S
O642 Gd599 2.388 1_556 S
O642 C656 1.252 . S
C643 O631 1.265 . S
C643 O632 1.242 . S
C644 O635 1.261 . S
C644 O636 1.252 . S
C645 C648 1.394 . S
C645 C650 1.370 . S
C645 C651 1.500 . S
C646 C649 1.383 . S
C646 C650 1.395 . S
C647 C648 1.396 . S
C647 C649 1.365 . S
C647 H664 0.929 . S
C648 C645 1.394 . S
C648 C647 1.396 . S
C648 H665 0.930 . S
C649 C646 1.383 . S
C649 C647 1.365 . S
C649 H666 0.931 . S
C650 C645 1.370 . S
C650 C646 1.395 . S
C650 H667 0.930 . S
C651 Gd598 2.805 1_554 S
C651 O633 1.263 . S
C651 O634 1.252 . S
C651 C645 1.500 . S
C652 H614 0.930 . S
C652 C628 1.417 . S
C652 C653 1.329 . S
C653 C623 1.437 . S
C653 H624 0.929 . S
C653 C652 1.329 . S
H654 C627 0.931 . S
C655 O637 1.265 . S
C655 O638 1.242 . S
C656 O641 1.261 . S
C656 O642 1.252 . S
C657 C660 1.394 . S
C657 C662 1.370 . S
C657 C663 1.500 . S
C658 C661 1.383 . S
C658 C662 1.395 . S
C659 C660 1.396 . S
C659 C661 1.365 . S
C659 H668 0.929 . S
C660 C657 1.394 . S
C660 C659 1.396 . S
C660 H669 0.930 . S
C661 C658 1.383 . S
C661 C659 1.365 . S
C661 H670 0.931 . S
C662 C657 1.370 . S
C662 C658 1.395 . S
C662 H671 0.930 . S
C663 Gd599 2.805 1_556 S
C663 O639 1.263 . S
C663 O640 1.252 . S
C663 C657 1.500 . S
H664 C647 0.929 . S
H665 C648 0.930 . S
H666 C649 0.931 . S
H667 C650 0.930 . S
H668 C659 0.929 . S
H669 C660 0.930 . S
H670 C661 0.931 . S
H671 C662 0.930 . S
C672 C673 1.391 . S
C672 C674 1.394 . S
C672 H688 0.931 . S
C673 C672 1.391 . S
C673 C677 1.376 . S
C674 C672 1.394 . S
C674 C675 1.369 . S
C674 C678 1.531 . S
C675 C674 1.369 . S
C675 C676 1.410 . S
C675 C683 1.503 . S
C676 C675 1.410 . S
C676 C677 1.392 . S
C676 C679 1.511 . S
C677 C673 1.376 . S
C677 C676 1.392 . S
C677 H689 0.929 . S
C678 C674 1.531 . S
C678 H690 0.960 . S
C678 H691 0.962 . S
C678 H692 0.960 . S
C679 C676 1.511 . S
C679 H693 0.961 . S
C679 H694 0.961 . S
C679 H695 0.961 . S
C680 C681 1.370 . S
C680 C682 1.363 . S
C680 H696 0.931 . S
C681 C680 1.370 . S
C681 C685 1.408 . S
C682 C680 1.363 . S
C682 C683 1.370 . S
C682 C686 1.524 . S
C683 C675 1.503 . S
C683 C682 1.370 . S
C683 C684 1.403 . S
C684 C683 1.403 . S
C684 C685 1.404 . S
C684 C687 1.539 . S
C685 C681 1.408 . S
C685 C684 1.404 . S
C685 H697 0.930 . S
C686 C682 1.524 . S
C686 H698 0.956 . S
C686 H699 0.961 . S
C686 H700 0.961 . S
C687 C684 1.539 . S
C687 H701 0.958 . S
C687 H702 0.961 . S
C687 H703 0.960 . S
H688 C672 0.931 . S
H689 C677 0.929 . S
H690 C678 0.960 . S
H691 C678 0.962 . S
H692 C678 0.960 . S
H693 C679 0.961 . S
H694 C679 0.961 . S
H695 C679 0.961 . S
H696 C680 0.931 . S
H697 C685 0.930 . S
H698 C686 0.956 . S
H699 C686 0.961 . S
H700 C686 0.961 . S
H701 C687 0.958 . S
H702 C687 0.961 . S
H703 C687 0.960 . S
C704 C705 1.391 . S
C704 C706 1.394 . S
C704 H720 0.931 . S
C705 C704 1.391 . S
C705 C709 1.376 . S
C706 C704 1.394 . S
C706 C707 1.369 . S
C706 C710 1.531 . S
C707 C706 1.369 . S
C707 C708 1.410 . S
C707 C715 1.503 . S
C708 C707 1.410 . S
C708 C709 1.392 . S
C708 C711 1.511 . S
C709 C705 1.376 . S
C709 C708 1.392 . S
C709 H721 0.929 . S
C710 C706 1.531 . S
C710 H722 0.960 . S
C710 H723 0.962 . S
C710 H724 0.960 . S
C711 C708 1.511 . S
C711 H725 0.961 . S
C711 H726 0.961 . S
C711 H727 0.961 . S
C712 C713 1.370 . S
C712 C714 1.363 . S
C712 H728 0.931 . S
C713 C712 1.370 . S
C713 C717 1.408 . S
C714 C712 1.363 . S
C714 C715 1.370 . S
C714 C718 1.524 . S
C715 C707 1.503 . S
C715 C714 1.370 . S
C715 C716 1.403 . S
C716 C715 1.403 . S
C716 C717 1.404 . S
C716 C719 1.539 . S
C717 C713 1.408 . S
C717 C716 1.404 . S
C717 H729 0.930 . S
C718 C714 1.524 . S
C718 H730 0.956 . S
C718 H731 0.961 . S
C718 H732 0.961 . S
C719 C716 1.539 . S
C719 H733 0.958 . S
C719 H734 0.961 . S
C719 H735 0.960 . S
H720 C704 0.931 . S
H721 C709 0.929 . S
H722 C710 0.960 . S
H723 C710 0.962 . S
H724 C710 0.960 . S
H725 C711 0.961 . S
H726 C711 0.961 . S
H727 C711 0.961 . S
H728 C712 0.931 . S
H729 C717 0.930 . S
H730 C718 0.956 . S
H731 C718 0.961 . S
H732 C718 0.961 . S
H733 C719 0.958 . S
H734 C719 0.961 . S
H735 C719 0.960 . S
C736 C737 1.391 . S
C736 C738 1.394 . S
C736 H752 0.931 . S
C737 C736 1.391 . S
C737 C741 1.376 . S
C738 C736 1.394 . S
C738 C739 1.369 . S
C738 C742 1.531 . S
C739 C738 1.369 . S
C739 C740 1.410 . S
C739 C747 1.503 . S
C740 C739 1.410 . S
C740 C741 1.392 . S
C740 C743 1.511 . S
C741 C737 1.376 . S
C741 C740 1.392 . S
C741 H753 0.929 . S
C742 C738 1.531 . S
C742 H754 0.960 . S
C742 H755 0.962 . S
C742 H756 0.960 . S
C743 C740 1.511 . S
C743 H757 0.961 . S
C743 H758 0.961 . S
C743 H759 0.961 . S
C744 C745 1.370 . S
C744 C746 1.363 . S
C744 H760 0.931 . S
C745 C744 1.370 . S
C745 C749 1.408 . S
C746 C744 1.363 . S
C746 C747 1.370 . S
C746 C750 1.524 . S
C747 C739 1.503 . S
C747 C746 1.370 . S
C747 C748 1.403 . S
C748 C747 1.403 . S
C748 C749 1.404 . S
C748 C751 1.539 . S
C749 C745 1.408 . S
C749 C748 1.404 . S
C749 H761 0.930 . S
C750 C746 1.524 . S
C750 H762 0.956 . S
C750 H763 0.961 . S
C750 H764 0.961 . S
C751 C748 1.539 . S
C751 H765 0.958 . S
C751 H766 0.961 . S
C751 H767 0.960 . S
H752 C736 0.931 . S
H753 C741 0.929 . S
H754 C742 0.960 . S
H755 C742 0.962 . S
H756 C742 0.960 . S
H757 C743 0.961 . S
H758 C743 0.961 . S
H759 C743 0.961 . S
H760 C744 0.931 . S
H761 C749 0.930 . S
H762 C750 0.956 . S
H763 C750 0.961 . S
H764 C750 0.961 . S
H765 C751 0.958 . S
H766 C751 0.961 . S
H767 C751 0.960 . S
C768 C769 1.391 . S
C768 C770 1.394 . S
C768 H784 0.931 . S
C769 C768 1.391 . S
C769 C773 1.376 . S
C770 C768 1.394 . S
C770 C771 1.369 . S
C770 C774 1.531 . S
C771 C770 1.369 . S
C771 C772 1.410 . S
C771 C779 1.503 . S
C772 C771 1.410 . S
C772 C773 1.392 . S
C772 C775 1.511 . S
C773 C769 1.376 . S
C773 C772 1.392 . S
C773 H785 0.929 . S
C774 C770 1.531 . S
C774 H786 0.960 . S
C774 H787 0.962 . S
C774 H788 0.960 . S
C775 C772 1.511 . S
C775 H789 0.961 . S
C775 H790 0.961 . S
C775 H791 0.961 . S
C776 C777 1.370 . S
C776 C778 1.363 . S
C776 H792 0.931 . S
C777 C776 1.370 . S
C777 C781 1.408 . S
C778 C776 1.363 . S
C778 C779 1.370 . S
C778 C782 1.524 . S
C779 C771 1.503 . S
C779 C778 1.370 . S
C779 C780 1.403 . S
C780 C779 1.403 . S
C780 C781 1.404 . S
C780 C783 1.539 . S
C781 C777 1.408 . S
C781 C780 1.404 . S
C781 H793 0.930 . S
C782 C778 1.524 . S
C782 H794 0.956 . S
C782 H795 0.961 . S
C782 H796 0.961 . S
C783 C780 1.539 . S
C783 H797 0.958 . S
C783 H798 0.961 . S
C783 H799 0.960 . S
H784 C768 0.931 . S
H785 C773 0.929 . S
H786 C774 0.960 . S
H787 C774 0.962 . S
H788 C774 0.960 . S
H789 C775 0.961 . S
H790 C775 0.961 . S
H791 C775 0.961 . S
H792 C776 0.931 . S
H793 C781 0.930 . S
H794 C782 0.956 . S
H795 C782 0.961 . S
H796 C782 0.961 . S
H797 C783 0.958 . S
H798 C783 0.961 . S
H799 C783 0.960 . S
C800 C801 1.391 . S
C800 C802 1.394 . S
C800 H816 0.931 . S
C801 C800 1.391 . S
C801 C805 1.376 . S
C802 C800 1.394 . S
C802 C803 1.369 . S
C802 C806 1.531 . S
C803 C802 1.369 . S
C803 C804 1.410 . S
C803 C811 1.503 1_565 S
C804 C803 1.410 . S
C804 C805 1.392 . S
C804 C807 1.511 . S
C805 C801 1.376 . S
C805 C804 1.392 . S
C805 H817 0.929 . S
C806 C802 1.531 . S
C806 H818 0.960 . S
C806 H819 0.962 . S
C806 H820 0.960 . S
C807 C804 1.511 . S
C807 H821 0.961 . S
C807 H822 0.961 1_565 S
C807 H823 0.961 1_565 S
C808 C809 1.370 . S
C808 C810 1.363 . S
C808 H824 0.931 . S
C809 C808 1.370 . S
C809 C813 1.408 . S
C810 C808 1.363 . S
C810 C811 1.370 . S
C810 C814 1.524 . S
C811 C803 1.503 1_545 S
C811 C810 1.370 . S
C811 C812 1.403 . S
C812 C811 1.403 . S
C812 C813 1.404 . S
C812 C815 1.539 . S
C813 C809 1.408 . S
C813 C812 1.404 . S
C813 H825 0.930 . S
C814 C810 1.524 . S
C814 H826 0.956 1_545 S
C814 H827 0.961 1_545 S
C814 H828 0.961 . S
C815 C812 1.539 . S
C815 H829 0.958 . S
C815 H830 0.961 . S
C815 H831 0.960 . S
H816 C800 0.931 . S
H817 C805 0.929 . S
H818 C806 0.960 . S
H819 C806 0.962 . S
H820 C806 0.960 . S
H821 C807 0.961 . S
H822 C807 0.961 1_545 S
H823 C807 0.961 1_545 S
H824 C808 0.931 . S
H825 C813 0.930 . S
H826 C814 0.956 1_565 S
H827 C814 0.961 1_565 S
H828 C814 0.961 . S
H829 C815 0.958 . S
H830 C815 0.961 . S
H831 C815 0.960 . S
C832 C833 1.391 . S
C832 C834 1.394 . S
C832 H848 0.931 . S
C833 C832 1.391 . S
C833 C837 1.376 . S
C834 C832 1.394 . S
C834 C835 1.369 . S
C834 C838 1.531 . S
C835 C834 1.369 . S
C835 C836 1.410 . S
C835 C843 1.503 . S
C836 C835 1.410 . S
C836 C837 1.392 . S
C836 C839 1.511 . S
C837 C833 1.376 . S
C837 C836 1.392 . S
C837 H849 0.929 . S
C838 C834 1.531 . S
C838 H850 0.960 . S
C838 H851 0.962 . S
C838 H852 0.960 . S
C839 C836 1.511 . S
C839 H853 0.961 . S
C839 H854 0.961 . S
C839 H855 0.961 . S
C840 C841 1.370 . S
C840 C842 1.363 . S
C840 H856 0.931 . S
C841 C840 1.370 . S
C841 C845 1.408 . S
C842 C840 1.363 . S
C842 C843 1.370 . S
C842 C846 1.524 . S
C843 C835 1.503 . S
C843 C842 1.370 . S
C843 C844 1.403 . S
C844 C843 1.403 . S
C844 C845 1.404 . S
C844 C847 1.539 . S
C845 C841 1.408 . S
C845 C844 1.404 . S
C845 H857 0.930 . S
C846 C842 1.524 . S
C846 H858 0.956 . S
C846 H859 0.961 . S
C846 H860 0.961 . S
C847 C844 1.539 . S
C847 H861 0.958 . S
C847 H862 0.961 . S
C847 H863 0.960 . S
H848 C832 0.931 . S
H849 C837 0.929 . S
H850 C838 0.960 . S
H851 C838 0.962 . S
H852 C838 0.960 . S
H853 C839 0.961 . S
H854 C839 0.961 . S
H855 C839 0.961 . S
H856 C840 0.931 . S
H857 C845 0.930 . S
H858 C846 0.956 . S
H859 C846 0.961 . S
H860 C846 0.961 . S
H861 C847 0.958 . S
H862 C847 0.961 . S
H863 C847 0.960 . S
C864 C865 1.391 . S
C864 C866 1.394 . S
C864 H880 0.931 . S
C865 C864 1.391 . S
C865 C869 1.376 . S
C866 C864 1.394 . S
C866 C867 1.369 . S
C866 C870 1.531 . S
C867 C866 1.369 . S
C867 C868 1.410 . S
C867 C875 1.503 1_565 S
C868 C867 1.410 . S
C868 C869 1.392 . S
C868 C871 1.511 . S
C869 C865 1.376 . S
C869 C868 1.392 . S
C869 H881 0.929 . S
C870 C866 1.531 . S
C870 H882 0.960 1_565 S
C870 H883 0.962 . S
C870 H884 0.960 . S
C871 C868 1.511 . S
C871 H885 0.961 . S
C871 H886 0.961 . S
C871 H887 0.961 . S
C872 C873 1.370 . S
C872 C874 1.363 . S
C872 H888 0.931 . S
C873 C872 1.370 . S
C873 C877 1.408 . S
C874 C872 1.363 . S
C874 C875 1.370 . S
C874 C878 1.524 . S
C875 C867 1.503 1_545 S
C875 C874 1.370 . S
C875 C876 1.403 . S
C876 C875 1.403 . S
C876 C877 1.404 . S
C876 C879 1.539 . S
C877 C873 1.408 . S
C877 C876 1.404 . S
C877 H889 0.930 . S
C878 C874 1.524 . S
C878 H890 0.956 1_545 S
C878 H891 0.961 1_545 S
C878 H892 0.961 . S
C879 C876 1.539 . S
C879 H893 0.958 . S
C879 H894 0.961 . S
C879 H895 0.960 . S
H880 C864 0.931 . S
H881 C869 0.929 . S
H882 C870 0.960 1_545 S
H883 C870 0.962 . S
H884 C870 0.960 . S
H885 C871 0.961 . S
H886 C871 0.961 . S
H887 C871 0.961 . S
H888 C872 0.931 . S
H889 C877 0.930 . S
H890 C878 0.956 1_565 S
H891 C878 0.961 1_565 S
H892 C878 0.961 . S
H893 C879 0.958 . S
H894 C879 0.961 . S
H895 C879 0.960 . S
C896 C897 1.391 . S
C896 C898 1.394 . S
C896 H912 0.931 . S
C897 C896 1.391 . S
C897 C901 1.376 . S
C898 C896 1.394 . S
C898 C899 1.369 . S
C898 C902 1.531 . S
C899 C898 1.369 . S
C899 C900 1.410 . S
C899 C907 1.503 . S
C900 C899 1.410 . S
C900 C901 1.392 . S
C900 C903 1.511 . S
C901 C897 1.376 . S
C901 C900 1.392 . S
C901 H913 0.929 . S
C902 C898 1.531 . S
C902 H914 0.960 . S
C902 H915 0.962 . S
C902 H916 0.960 . S
C903 C900 1.511 . S
C903 H917 0.961 . S
C903 H918 0.961 . S
C903 H919 0.961 . S
C904 C905 1.370 . S
C904 C906 1.363 . S
C904 H920 0.931 . S
C905 C904 1.370 . S
C905 C909 1.408 . S
C906 C904 1.363 . S
C906 C907 1.370 . S
C906 C910 1.524 . S
C907 C899 1.503 . S
C907 C906 1.370 . S
C907 C908 1.403 . S
C908 C907 1.403 . S
C908 C909 1.404 . S
C908 C911 1.539 . S
C909 C905 1.408 . S
C909 C908 1.404 . S
C909 H921 0.930 . S
C910 C906 1.524 . S
C910 H922 0.956 . S
C910 H923 0.961 . S
C910 H924 0.961 . S
C911 C908 1.539 . S
C911 H925 0.958 . S
C911 H926 0.961 . S
C911 H927 0.960 . S
H912 C896 0.931 . S
H913 C901 0.929 . S
H914 C902 0.960 . S
H915 C902 0.962 . S
H916 C902 0.960 . S
H917 C903 0.961 . S
H918 C903 0.961 . S
H919 C903 0.961 . S
H920 C904 0.931 . S
H921 C909 0.930 . S
H922 C910 0.956 . S
H923 C910 0.961 . S
H924 C910 0.961 . S
H925 C911 0.958 . S
H926 C911 0.961 . S
H927 C911 0.960 . S
C928 C929 1.391 1_554 S
C928 C930 1.394 . S
C928 H944 0.931 . S
C929 C928 1.391 1_556 S
C929 C933 1.376 . S
C930 C928 1.394 . S
C930 C931 1.369 . S
C930 C934 1.531 . S
C931 C930 1.369 . S
C931 C932 1.410 1_554 S
C931 C939 1.503 . S
C932 C931 1.410 1_556 S
C932 C933 1.392 . S
C932 C935 1.511 . S
C933 C929 1.376 . S
C933 C932 1.392 . S
C933 H945 0.929 . S
C934 C930 1.531 . S
C934 H946 0.960 . S
C934 H947 0.962 . S
C934 H948 0.960 . S
C935 C932 1.511 . S
C935 H949 0.961 . S
C935 H950 0.961 . S
C935 H951 0.961 . S
C936 C937 1.370 1_556 S
C936 C938 1.363 . S
C936 H952 0.931 . S
C937 C936 1.370 1_554 S
C937 C941 1.408 . S
C938 C936 1.363 . S
C938 C939 1.370 1_556 S
C938 C942 1.524 . S
C939 C931 1.503 . S
C939 C938 1.370 1_554 S
C939 C940 1.403 . S
C940 C939 1.403 . S
C940 C941 1.404 . S
C940 C943 1.539 . S
C941 C937 1.408 . S
C941 C940 1.404 . S
C941 H953 0.930 . S
C942 C938 1.524 . S
C942 H954 0.956 . S
C942 H955 0.961 . S
C942 H956 0.961 . S
C943 C940 1.539 . S
C943 H957 0.958 . S
C943 H958 0.961 . S
C943 H959 0.960 . S
H944 C928 0.931 . S
H945 C933 0.929 . S
H946 C934 0.960 . S
H947 C934 0.962 . S
H948 C934 0.960 . S
H949 C935 0.961 . S
H950 C935 0.961 . S
H951 C935 0.961 . S
H952 C936 0.931 . S
H953 C941 0.930 . S
H954 C942 0.956 . S
H955 C942 0.961 . S
H956 C942 0.961 . S
H957 C943 0.958 . S
H958 C943 0.961 . S
H959 C943 0.960 . S
C960 C961 1.391 . S
C960 C962 1.394 . S
C960 H976 0.931 . S
C961 C960 1.391 . S
C961 C965 1.376 1_554 S
C962 C960 1.394 . S
C962 C963 1.369 1_554 S
C962 C966 1.531 . S
C963 C962 1.369 1_556 S
C963 C964 1.410 . S
C963 C971 1.503 1_565 S
C964 C963 1.410 . S
C964 C965 1.392 . S
C964 C967 1.511 . S
C965 C961 1.376 1_556 S
C965 C964 1.392 . S
C965 H977 0.929 . S
C966 C962 1.531 . S
C966 H978 0.960 1_565 S
C966 H979 0.962 1_565 S
C966 H980 0.960 . S
C967 C964 1.511 . S
C967 H981 0.961 . S
C967 H982 0.961 . S
C967 H983 0.961 . S
C968 C969 1.370 1_554 S
C968 C970 1.363 . S
C968 H984 0.931 . S
C969 C968 1.370 1_556 S
C969 C973 1.408 . S
C970 C968 1.363 . S
C970 C971 1.370 1_554 S
C970 C974 1.524 . S
C971 C963 1.503 1_545 S
C971 C970 1.370 1_556 S
C971 C972 1.403 . S
C972 C971 1.403 . S
C972 C973 1.404 . S
C972 C975 1.539 . S
C973 C969 1.408 . S
C973 C972 1.404 . S
C973 H985 0.930 . S
C974 C970 1.524 . S
C974 H986 0.956 . S
C974 H987 0.961 . S
C974 H988 0.961 . S
C975 C972 1.539 . S
C975 H989 0.958 . S
C975 H990 0.961 . S
C975 H991 0.960 1_545 S
H976 C960 0.931 . S
H977 C965 0.929 . S
H978 C966 0.960 1_545 S
H979 C966 0.962 1_545 S
H980 C966 0.960 . S
H981 C967 0.961 . S
H982 C967 0.961 . S
H983 C967 0.961 . S
H984 C968 0.931 . S
H985 C973 0.930 . S
H986 C974 0.956 . S
H987 C974 0.961 . S
H988 C974 0.961 . S
H989 C975 0.958 . S
H990 C975 0.961 . S
H991 C975 0.960 1_565 S
C992 C993 1.391 1_556 S
C992 C994 1.394 . S
C992 H1008 0.931 . S
C993 C992 1.391 1_554 S
C993 C997 1.376 . S
C994 C992 1.394 . S
C994 C995 1.369 . S
C994 C998 1.531 . S
C995 C994 1.369 . S
C995 C996 1.410 1_556 S
C995 C1003 1.503 . S
C996 C995 1.410 1_554 S
C996 C997 1.392 . S
C996 C999 1.511 . S
C997 C993 1.376 . S
C997 C996 1.392 . S
C997 H1009 0.929 . S
C998 C994 1.531 . S
C998 H1010 0.960 . S
C998 H1011 0.962 . S
C998 H1012 0.960 . S
C999 C996 1.511 . S
C999 H1013 0.961 . S
C999 H1014 0.961 . S
C999 H1015 0.961 1_554 S
C1000 C1001 1.370 1_554 S
C1000 C1002 1.363 . S
C1000 H1016 0.931 . S
C1001 C1000 1.370 1_556 S
C1001 C1005 1.408 . S
C1002 C1000 1.363 . S
C1002 C1003 1.370 1_554 S
C1002 C1006 1.524 . S
C1003 C995 1.503 . S
C1003 C1002 1.370 1_556 S
C1003 C1004 1.403 . S
C1004 C1003 1.403 . S
C1004 C1005 1.404 . S
C1004 C1007 1.539 . S
C1005 C1001 1.408 . S
C1005 C1004 1.404 . S
C1005 H1017 0.930 . S
C1006 C1002 1.524 . S
C1006 H1018 0.956 . S
C1006 H1019 0.961 . S
C1006 H1020 0.961 . S
C1007 C1004 1.539 . S
C1007 H1021 0.958 . S
C1007 H1022 0.961 . S
C1007 H1023 0.960 . S
H1008 C992 0.931 . S
H1009 C997 0.929 . S
H1010 C998 0.960 . S
H1011 C998 0.962 . S
H1012 C998 0.960 . S
H1013 C999 0.961 . S
H1014 C999 0.961 . S
H1015 C999 0.961 1_556 S
H1016 C1000 0.931 . S
H1017 C1005 0.930 . S
H1018 C1006 0.956 . S
H1019 C1006 0.961 . S
H1020 C1006 0.961 . S
H1021 C1007 0.958 . S
H1022 C1007 0.961 . S
H1023 C1007 0.960 . S
C1024 C1025 1.391 . S
C1024 C1026 1.394 . S
C1024 H1040 0.931 . S
C1025 C1024 1.391 . S
C1025 C1029 1.376 1_556 S
C1026 C1024 1.394 . S
C1026 C1027 1.369 . S
C1026 C1030 1.531 . S
C1027 C1026 1.369 . S
C1027 C1028 1.410 1_556 S
C1027 C1035 1.503 1_546 S
C1028 C1027 1.410 1_554 S
C1028 C1029 1.392 . S
C1028 C1031 1.511 . S
C1029 C1025 1.376 1_554 S
C1029 C1028 1.392 . S
C1029 H1041 0.929 . S
C1030 C1026 1.531 . S
C1030 H1042 0.960 1_545 S
C1030 H1043 0.962 1_545 S
C1030 H1044 0.960 . S
C1031 C1028 1.511 . S
C1031 H1045 0.961 . S
C1031 H1046 0.961 . S
C1031 H1047 0.961 . S
C1032 C1033 1.370 . S
C1032 C1034 1.363 . S
C1032 H1048 0.931 . S
C1033 C1032 1.370 . S
C1033 C1037 1.408 . S
C1034 C1032 1.363 . S
C1034 C1035 1.370 . S
C1034 C1038 1.524 . S
C1035 C1027 1.503 1_564 S
C1035 C1034 1.370 . S
C1035 C1036 1.402 . S
C1036 C1035 1.402 . S
C1036 C1037 1.406 . S
C1036 C1039 1.539 1_554 S
C1037 C1033 1.408 . S
C1037 C1036 1.406 . S
C1037 H1049 0.930 . S
C1038 C1034 1.524 . S
C1038 H1050 0.956 1_554 S
C1038 H1051 0.961 1_565 S
C1038 H1052 0.961 . S
C1039 C1036 1.539 1_556 S
C1039 H1053 0.959 . S
C1039 H1054 0.961 1_556 S
C1039 H1055 0.959 1_566 S
H1040 C1024 0.931 . S
H1041 C1029 0.929 . S
H1042 C1030 0.960 1_565 S
H1043 C1030 0.962 1_565 S
H1044 C1030 0.960 . S
H1045 C1031 0.961 . S
H1046 C1031 0.961 . S
H1047 C1031 0.961 . S
H1048 C1032 0.931 . S
H1049 C1037 0.930 . S
H1050 C1038 0.956 1_556 S
H1051 C1038 0.961 1_545 S
H1052 C1038 0.961 . S
H1053 C1039 0.959 . S
H1054 C1039 0.961 1_554 S
H1055 C1039 0.959 1_544 S
C1056 C1057 1.391 . S
C1056 C1058 1.394 . S
C1056 H1072 0.931 . S
C1057 C1056 1.391 . S
C1057 C1061 1.376 . S
C1058 C1056 1.394 . S
C1058 C1059 1.369 . S
C1058 C1062 1.531 . S
C1059 C1058 1.369 . S
C1059 C1060 1.410 . S
C1059 C1067 1.503 1_554 S
C1060 C1059 1.410 . S
C1060 C1061 1.392 . S
C1060 C1063 1.511 . S
C1061 C1057 1.376 . S
C1061 C1060 1.392 . S
C1061 H1073 0.929 . S
C1062 C1058 1.531 . S
C1062 H1074 0.960 1_554 S
C1062 H1075 0.962 . S
C1062 H1076 0.960 . S
C1063 C1060 1.511 . S
C1063 H1077 0.961 . S
C1063 H1078 0.961 1_554 S
C1063 H1079 0.961 . S
C1064 C1065 1.370 . S
C1064 C1066 1.363 . S
C1064 H1080 0.931 . S
C1065 C1064 1.370 . S
C1065 C1069 1.408 . S
C1066 C1064 1.363 . S
C1066 C1067 1.370 . S
C1066 C1070 1.524 . S
C1067 C1059 1.503 1_556 S
C1067 C1066 1.370 . S
C1067 C1068 1.403 . S
C1068 C1067 1.403 . S
C1068 C1069 1.404 . S
C1068 C1071 1.539 . S
C1069 C1065 1.408 . S
C1069 C1068 1.404 . S
C1069 H1081 0.930 . S
C1070 C1066 1.524 . S
C1070 H1082 0.956 . S
C1070 H1083 0.961 . S
C1070 H1084 0.961 . S
C1071 C1068 1.539 . S
C1071 H1085 0.958 . S
C1071 H1086 0.961 . S
C1071 H1087 0.960 1_556 S
H1072 C1056 0.931 . S
H1073 C1061 0.929 . S
H1074 C1062 0.960 1_556 S
H1075 C1062 0.962 . S
H1076 C1062 0.960 . S
H1077 C1063 0.961 . S
H1078 C1063 0.961 1_556 S
H1079 C1063 0.961 . S
H1080 C1064 0.931 . S
H1081 C1069 0.930 . S
H1082 C1070 0.956 . S
H1083 C1070 0.961 . S
H1084 C1070 0.961 . S
H1085 C1071 0.958 . S
H1086 C1071 0.961 . S
H1087 C1071 0.960 1_554 S
C1088 C1089 1.391 . S
C1088 C1090 1.394 . S
C1088 H1104 0.931 . S
C1089 C1088 1.391 . S
C1089 C1093 1.376 . S
C1090 C1088 1.394 . S
C1090 C1091 1.369 . S
C1090 C1094 1.531 1_554 S
C1091 C1090 1.369 . S
C1091 C1092 1.410 . S
C1091 C1099 1.503 1_554 S
C1092 C1091 1.410 . S
C1092 C1093 1.392 . S
C1092 C1095 1.511 . S
C1093 C1089 1.376 . S
C1093 C1092 1.392 . S
C1093 H1105 0.929 . S
C1094 C1090 1.531 1_556 S
C1094 H1106 0.960 . S
C1094 H1107 0.962 . S
C1094 H1108 0.960 1_556 S
C1095 C1092 1.511 . S
C1095 H1109 0.961 . S
C1095 H1110 0.961 1_554 S
C1095 H1111 0.961 . S
C1096 C1097 1.370 . S
C1096 C1098 1.363 . S
C1096 H1112 0.931 . S
C1097 C1096 1.370 . S
C1097 C1101 1.408 . S
C1098 C1096 1.363 . S
C1098 C1099 1.370 . S
C1098 C1102 1.524 . S
C1099 C1091 1.503 1_556 S
C1099 C1098 1.370 . S
C1099 C1100 1.403 . S
C1100 C1099 1.403 . S
C1100 C1101 1.404 . S
C1100 C1103 1.539 . S
C1101 C1097 1.408 . S
C1101 C1100 1.404 . S
C1101 H1113 0.930 . S
C1102 C1098 1.524 . S
C1102 H1114 0.956 . S
C1102 H1115 0.961 1_556 S
C1102 H1116 0.961 . S
C1103 C1100 1.539 . S
C1103 H1117 0.958 . S
C1103 H1118 0.961 . S
C1103 H1119 0.960 . S
H1104 C1088 0.931 . S
H1105 C1093 0.929 . S
H1106 C1094 0.960 . S
H1107 C1094 0.962 . S
H1108 C1094 0.960 1_554 S
H1109 C1095 0.961 . S
H1110 C1095 0.961 1_556 S
H1111 C1095 0.961 . S
H1112 C1096 0.931 . S
H1113 C1101 0.930 . S
H1114 C1102 0.956 . S
H1115 C1102 0.961 1_554 S
H1116 C1102 0.961 . S
H1117 C1103 0.958 . S
H1118 C1103 0.961 . S
H1119 C1103 0.960 . S
C1120 C1121 1.391 . S
C1120 C1122 1.394 . S
C1120 H1136 0.931 . S
C1121 C1120 1.391 . S
C1121 C1125 1.376 . S
C1122 C1120 1.394 . S
C1122 C1123 1.369 . S
C1122 C1126 1.531 . S
C1123 C1122 1.369 . S
C1123 C1124 1.410 . S
C1123 C1131 1.503 1_554 S
C1124 C1123 1.410 . S
C1124 C1125 1.392 . S
C1124 C1127 1.511 . S
C1125 C1121 1.376 . S
C1125 C1124 1.392 . S
C1125 H1137 0.929 . S
C1126 C1122 1.531 . S
C1126 H1138 0.960 . S
C1126 H1139 0.962 . S
C1126 H1140 0.960 . S
C1127 C1124 1.511 . S
C1127 H1141 0.961 . S
C1127 H1142 0.961 1_554 S
C1127 H1143 0.961 . S
C1128 C1129 1.370 . S
C1128 C1130 1.363 . S
C1128 H1144 0.931 . S
C1129 C1128 1.370 . S
C1129 C1133 1.408 . S
C1130 C1128 1.363 . S
C1130 C1131 1.370 . S
C1130 C1134 1.524 . S
C1131 C1123 1.503 1_556 S
C1131 C1130 1.370 . S
C1131 C1132 1.403 . S
C1132 C1131 1.403 . S
C1132 C1133 1.404 . S
C1132 C1135 1.539 . S
C1133 C1129 1.408 . S
C1133 C1132 1.404 . S
C1133 H1145 0.930 . S
C1134 C1130 1.524 . S
C1134 H1146 0.956 1_556 S
C1134 H1147 0.961 1_556 S
C1134 H1148 0.961 . S
C1135 C1132 1.539 . S
C1135 H1149 0.958 1_556 S
C1135 H1150 0.961 . S
C1135 H1151 0.960 1_556 S
H1136 C1120 0.931 . S
H1137 C1125 0.929 . S
H1138 C1126 0.960 . S
H1139 C1126 0.962 . S
H1140 C1126 0.960 . S
H1141 C1127 0.961 . S
H1142 C1127 0.961 1_556 S
H1143 C1127 0.961 . S
H1144 C1128 0.931 . S
H1145 C1133 0.930 . S
H1146 C1134 0.956 1_554 S
H1147 C1134 0.961 1_554 S
H1148 C1134 0.961 . S
H1149 C1135 0.958 1_554 S
H1150 C1135 0.961 . S
H1151 C1135 0.960 1_554 S
C1152 C1153 1.391 . S
C1152 C1154 1.394 . S
C1152 H1168 0.931 . S
C1153 C1152 1.391 . S
C1153 C1157 1.376 . S
C1154 C1152 1.394 . S
C1154 C1155 1.369 . S
C1154 C1158 1.531 1_556 S
C1155 C1154 1.369 . S
C1155 C1156 1.410 . S
C1155 C1163 1.503 1_556 S
C1156 C1155 1.410 . S
C1156 C1157 1.392 . S
C1156 C1159 1.511 . S
C1157 C1153 1.376 . S
C1157 C1156 1.392 . S
C1157 H1169 0.929 . S
C1158 C1154 1.531 1_554 S
C1158 H1170 0.960 . S
C1158 H1171 0.962 . S
C1158 H1172 0.960 1_554 S
C1159 C1156 1.511 . S
C1159 H1173 0.961 . S
C1159 H1174 0.961 . S
C1159 H1175 0.961 . S
C1160 C1161 1.370 . S
C1160 C1162 1.363 . S
C1160 H1176 0.931 . S
C1161 C1160 1.370 . S
C1161 C1165 1.408 . S
C1162 C1160 1.363 . S
C1162 C1163 1.370 . S
C1162 C1166 1.524 . S
C1163 C1155 1.503 1_554 S
C1163 C1162 1.370 . S
C1163 C1164 1.403 . S
C1164 C1163 1.403 . S
C1164 C1165 1.404 . S
C1164 C1167 1.539 . S
C1165 C1161 1.408 . S
C1165 C1164 1.404 . S
C1165 H1177 0.930 . S
C1166 C1162 1.524 . S
C1166 H1178 0.956 . S
C1166 H1179 0.961 1_554 S
C1166 H1180 0.961 . S
C1167 C1164 1.539 . S
C1167 H1181 0.958 . S
C1167 H1182 0.961 . S
C1167 H1183 0.960 . S
H1168 C1152 0.931 . S
H1169 C1157 0.929 . S
H1170 C1158 0.960 . S
H1171 C1158 0.962 . S
H1172 C1158 0.960 1_556 S
H1173 C1159 0.961 . S
H1174 C1159 0.961 . S
H1175 C1159 0.961 . S
H1176 C1160 0.931 . S
H1177 C1165 0.930 . S
H1178 C1166 0.956 . S
H1179 C1166 0.961 1_556 S
H1180 C1166 0.961 . S
H1181 C1167 0.958 . S
H1182 C1167 0.961 . S
H1183 C1167 0.960 . S
C1184 C1185 1.391 . S
C1184 C1186 1.394 . S
C1184 H1200 0.931 . S
C1185 C1184 1.391 . S
C1185 C1189 1.376 . S
C1186 C1184 1.394 . S
C1186 C1187 1.369 . S
C1186 C1190 1.531 . S
C1187 C1186 1.369 . S
C1187 C1188 1.410 . S
C1187 C1195 1.503 . S
C1188 C1187 1.410 . S
C1188 C1189 1.392 . S
C1188 C1191 1.511 . S
C1189 C1185 1.376 . S
C1189 C1188 1.392 . S
C1189 H1201 0.929 . S
C1190 C1186 1.531 . S
C1190 H1202 0.960 . S
C1190 H1203 0.962 . S
C1190 H1204 0.960 . S
C1191 C1188 1.511 . S
C1191 H1205 0.961 . S
C1191 H1206 0.961 . S
C1191 H1207 0.961 . S
C1192 C1193 1.370 . S
C1192 C1194 1.363 . S
C1192 H1208 0.931 . S
C1193 C1192 1.370 . S
C1193 C1197 1.408 . S
C1194 C1192 1.363 . S
C1194 C1195 1.370 . S
C1194 C1198 1.524 . S
C1195 C1187 1.503 . S
C1195 C1194 1.370 . S
C1195 C1196 1.403 . S
C1196 C1195 1.403 . S
C1196 C1197 1.404 . S
C1196 C1199 1.539 . S
C1197 C1193 1.408 . S
C1197 C1196 1.404 . S
C1197 H1209 0.930 . S
C1198 C1194 1.524 . S
C1198 H1210 0.956 . S
C1198 H1211 0.961 . S
C1198 H1212 0.961 . S
C1199 C1196 1.539 . S
C1199 H1213 0.958 . S
C1199 H1214 0.961 . S
C1199 H1215 0.960 . S
H1200 C1184 0.931 . S
H1201 C1189 0.929 . S
H1202 C1190 0.960 . S
H1203 C1190 0.962 . S
H1204 C1190 0.960 . S
H1205 C1191 0.961 . S
H1206 C1191 0.961 . S
H1207 C1191 0.961 . S
H1208 C1192 0.931 . S
H1209 C1197 0.930 . S
H1210 C1198 0.956 . S
H1211 C1198 0.961 . S
H1212 C1198 0.961 . S
H1213 C1199 0.958 . S
H1214 C1199 0.961 . S
H1215 C1199 0.960 . S
C1216 C1217 1.391 . S
C1216 C1218 1.394 . S
C1216 H1232 0.931 . S
C1217 C1216 1.391 . S
C1217 C1221 1.376 . S
C1218 C1216 1.394 . S
C1218 C1219 1.369 . S
C1218 C1222 1.531 . S
C1219 C1218 1.369 . S
C1219 C1220 1.410 . S
C1219 C1227 1.503 . S
C1220 C1219 1.410 . S
C1220 C1221 1.392 . S
C1220 C1223 1.511 . S
C1221 C1217 1.376 . S
C1221 C1220 1.392 . S
C1221 H1233 0.929 . S
C1222 C1218 1.531 . S
C1222 H1234 0.960 . S
C1222 H1235 0.962 . S
C1222 H1236 0.960 . S
C1223 C1220 1.511 . S
C1223 H1237 0.961 . S
C1223 H1238 0.961 . S
C1223 H1239 0.961 . S
C1224 C1225 1.370 . S
C1224 C1226 1.363 . S
C1224 H1240 0.931 . S
C1225 C1224 1.370 . S
C1225 C1229 1.408 . S
C1226 C1224 1.363 . S
C1226 C1227 1.370 . S
C1226 C1230 1.524 . S
C1227 C1219 1.503 . S
C1227 C1226 1.370 . S
C1227 C1228 1.403 . S
C1228 C1227 1.403 . S
C1228 C1229 1.404 . S
C1228 C1231 1.539 . S
C1229 C1225 1.408 . S
C1229 C1228 1.404 . S
C1229 H1241 0.930 . S
C1230 C1226 1.524 . S
C1230 H1242 0.956 . S
C1230 H1243 0.961 . S
C1230 H1244 0.961 . S
C1231 C1228 1.539 . S
C1231 H1245 0.958 . S
C1231 H1246 0.961 . S
C1231 H1247 0.960 . S
H1232 C1216 0.931 . S
H1233 C1221 0.929 . S
H1234 C1222 0.960 . S
H1235 C1222 0.962 . S
H1236 C1222 0.960 . S
H1237 C1223 0.961 . S
H1238 C1223 0.961 . S
H1239 C1223 0.961 . S
H1240 C1224 0.931 . S
H1241 C1229 0.930 . S
H1242 C1230 0.956 . S
H1243 C1230 0.961 . S
H1244 C1230 0.961 . S
H1245 C1231 0.958 . S
H1246 C1231 0.961 . S
H1247 C1231 0.960 . S
C1248 C1249 1.391 . S
C1248 C1250 1.394 . S
C1248 H1264 0.931 . S
C1249 C1248 1.391 . S
C1249 C1253 1.376 . S
C1250 C1248 1.394 . S
C1250 C1251 1.369 . S
C1250 C1254 1.531 . S
C1251 C1250 1.369 . S
C1251 C1252 1.410 . S
C1251 C1259 1.503 . S
C1252 C1251 1.410 . S
C1252 C1253 1.392 . S
C1252 C1255 1.511 . S
C1253 C1249 1.376 . S
C1253 C1252 1.392 . S
C1253 H1265 0.929 . S
C1254 C1250 1.531 . S
C1254 H1266 0.960 . S
C1254 H1267 0.962 . S
C1254 H1268 0.960 . S
C1255 C1252 1.511 . S
C1255 H1269 0.961 . S
C1255 H1270 0.961 . S
C1255 H1271 0.961 . S
C1256 C1257 1.370 . S
C1256 C1258 1.363 . S
C1256 H1272 0.931 . S
C1257 C1256 1.370 . S
C1257 C1261 1.408 . S
C1258 C1256 1.363 . S
C1258 C1259 1.370 . S
C1258 C1262 1.524 . S
C1259 C1251 1.503 . S
C1259 C1258 1.370 . S
C1259 C1260 1.403 . S
C1260 C1259 1.403 . S
C1260 C1261 1.404 . S
C1260 C1263 1.539 . S
C1261 C1257 1.408 . S
C1261 C1260 1.404 . S
C1261 H1273 0.930 . S
C1262 C1258 1.524 . S
C1262 H1274 0.956 . S
C1262 H1275 0.961 . S
C1262 H1276 0.961 . S
C1263 C1260 1.539 . S
C1263 H1277 0.958 . S
C1263 H1278 0.961 . S
C1263 H1279 0.960 . S
H1264 C1248 0.931 . S
H1265 C1253 0.929 . S
H1266 C1254 0.960 . S
H1267 C1254 0.962 . S
H1268 C1254 0.960 . S
H1269 C1255 0.961 . S
H1270 C1255 0.961 . S
H1271 C1255 0.961 . S
H1272 C1256 0.931 . S
H1273 C1261 0.930 . S
H1274 C1262 0.956 . S
H1275 C1262 0.961 . S
H1276 C1262 0.961 . S
H1277 C1263 0.958 . S
H1278 C1263 0.961 . S
H1279 C1263 0.960 . S
C1280 C1281 1.391 . S
C1280 C1282 1.394 . S
C1280 H1296 0.931 . S
C1281 C1280 1.391 . S
C1281 C1285 1.376 . S
C1282 C1280 1.394 . S
C1282 C1283 1.369 . S
C1282 C1286 1.531 . S
C1283 C1282 1.369 . S
C1283 C1284 1.410 . S
C1283 C1291 1.503 . S
C1284 C1283 1.410 . S
C1284 C1285 1.392 . S
C1284 C1287 1.511 . S
C1285 C1281 1.376 . S
C1285 C1284 1.392 . S
C1285 H1297 0.929 . S
C1286 C1282 1.531 . S
C1286 H1298 0.960 . S
C1286 H1299 0.962 . S
C1286 H1300 0.960 . S
C1287 C1284 1.511 . S
C1287 H1301 0.961 . S
C1287 H1302 0.961 . S
C1287 H1303 0.961 . S
C1288 C1289 1.370 . S
C1288 C1290 1.363 . S
C1288 H1304 0.931 . S
C1289 C1288 1.370 . S
C1289 C1293 1.408 . S
C1290 C1288 1.363 . S
C1290 C1291 1.370 . S
C1290 C1294 1.524 . S
C1291 C1283 1.503 . S
C1291 C1290 1.370 . S
C1291 C1292 1.403 . S
C1292 C1291 1.403 . S
C1292 C1293 1.404 . S
C1292 C1295 1.539 . S
C1293 C1289 1.408 . S
C1293 C1292 1.404 . S
C1293 H1305 0.930 . S
C1294 C1290 1.524 . S
C1294 H1306 0.956 . S
C1294 H1307 0.961 . S
C1294 H1308 0.961 . S
C1295 C1292 1.539 . S
C1295 H1309 0.958 . S
C1295 H1310 0.961 . S
C1295 H1311 0.960 . S
H1296 C1280 0.931 . S
H1297 C1285 0.929 . S
H1298 C1286 0.960 . S
H1299 C1286 0.962 . S
H1300 C1286 0.960 . S
H1301 C1287 0.961 . S
H1302 C1287 0.961 . S
H1303 C1287 0.961 . S
H1304 C1288 0.931 . S
H1305 C1293 0.930 . S
H1306 C1294 0.956 . S
H1307 C1294 0.961 . S
H1308 C1294 0.961 . S
H1309 C1295 0.958 . S
H1310 C1295 0.961 . S
H1311 C1295 0.960 . S
C1312 C1313 1.391 . S
C1312 C1314 1.394 . S
C1312 H1328 0.931 . S
C1313 C1312 1.391 . S
C1313 C1317 1.376 . S
C1314 C1312 1.394 . S
C1314 C1315 1.369 . S
C1314 C1318 1.531 . S
C1315 C1314 1.369 . S
C1315 C1316 1.410 . S
C1315 C1323 1.503 1_455 S
C1316 C1315 1.410 . S
C1316 C1317 1.392 . S
C1316 C1319 1.511 . S
C1317 C1313 1.376 . S
C1317 C1316 1.392 . S
C1317 H1329 0.929 . S
C1318 C1314 1.531 . S
C1318 H1330 0.960 1_455 S
C1318 H1331 0.962 . S
C1318 H1332 0.960 . S
C1319 C1316 1.511 . S
C1319 H1333 0.961 . S
C1319 H1334 0.961 1_455 S
C1319 H1335 0.961 . S
C1320 C1321 1.370 . S
C1320 C1322 1.363 . S
C1320 H1336 0.931 . S
C1321 C1320 1.370 . S
C1321 C1325 1.408 . S
C1322 C1320 1.363 . S
C1322 C1323 1.370 . S
C1322 C1326 1.524 . S
C1323 C1315 1.503 1_655 S
C1323 C1322 1.370 . S
C1323 C1324 1.403 . S
C1324 C1323 1.403 . S
C1324 C1325 1.404 . S
C1324 C1327 1.539 . S
C1325 C1321 1.408 . S
C1325 C1324 1.404 . S
C1325 H1337 0.930 . S
C1326 C1322 1.524 . S
C1326 H1338 0.982 . S
C1326 H1339 0.919 1_655 S
C1326 H1340 0.961 . S
C1327 C1324 1.539 . S
C1327 H1341 0.958 . S
C1327 H1342 0.961 . S
C1327 H1343 0.966 . S
H1328 C1312 0.931 . S
H1329 C1317 0.929 . S
H1330 C1318 0.960 1_655 S
H1331 C1318 0.962 . S
H1332 C1318 0.960 . S
H1333 C1319 0.961 . S
H1334 C1319 0.961 1_655 S
H1335 C1319 0.961 . S
H1336 C1320 0.931 . S
H1337 C1325 0.930 . S
H1338 C1326 0.982 . S
H1339 C1326 0.919 1_455 S
H1340 C1326 0.961 . S
H1341 C1327 0.958 . S
H1342 C1327 0.961 . S
H1343 C1327 0.966 . S
C1344 C1345 1.391 . S
C1344 C1346 1.394 . S
C1344 H1360 0.931 . S
C1345 C1344 1.391 . S
C1345 C1349 1.376 . S
C1346 C1344 1.394 . S
C1346 C1347 1.369 . S
C1346 C1350 1.531 . S
C1347 C1346 1.369 . S
C1347 C1348 1.410 . S
C1347 C1355 1.503 1_655 S
C1348 C1347 1.410 . S
C1348 C1349 1.392 . S
C1348 C1351 1.511 . S
C1349 C1345 1.376 . S
C1349 C1348 1.392 . S
C1349 H1361 0.929 . S
C1350 C1346 1.531 . S
C1350 H1362 0.960 1_655 S
C1350 H1363 0.962 . S
C1350 H1364 0.960 . S
C1351 C1348 1.511 . S
C1351 H1365 0.961 . S
C1351 H1366 0.961 1_655 S
C1351 H1367 0.961 . S
C1352 C1353 1.370 . S
C1352 C1354 1.363 . S
C1352 H1368 0.931 . S
C1353 C1352 1.370 . S
C1353 C1357 1.408 . S
C1354 C1352 1.363 . S
C1354 C1355 1.370 . S
C1354 C1358 1.524 . S
C1355 C1347 1.503 1_455 S
C1355 C1354 1.370 . S
C1355 C1356 1.403 . S
C1356 C1355 1.403 . S
C1356 C1357 1.404 . S
C1356 C1359 1.539 . S
C1357 C1353 1.408 . S
C1357 C1356 1.404 . S
C1357 H1369 0.930 . S
C1358 C1354 1.524 . S
C1358 H1370 0.982 . S
C1358 H1371 0.919 1_455 S
C1358 H1372 0.961 . S
C1359 C1356 1.539 . S
C1359 H1373 0.958 . S
C1359 H1374 0.961 . S
C1359 H1375 0.966 . S
H1360 C1344 0.931 . S
H1361 C1349 0.929 . S
H1362 C1350 0.960 1_455 S
H1363 C1350 0.962 . S
H1364 C1350 0.960 . S
H1365 C1351 0.961 . S
H1366 C1351 0.961 1_455 S
H1367 C1351 0.961 . S
H1368 C1352 0.931 . S
H1369 C1357 0.930 . S
H1370 C1358 0.982 . S
H1371 C1358 0.919 1_655 S
H1372 C1358 0.961 . S
H1373 C1359 0.958 . S
H1374 C1359 0.961 . S
H1375 C1359 0.966 . S
C1376 C1377 1.391 . S
C1376 C1378 1.394 . S
C1376 H1392 0.931 . S
C1377 C1376 1.391 . S
C1377 C1381 1.376 . S
C1378 C1376 1.394 . S
C1378 C1379 1.369 . S
C1378 C1382 1.531 . S
C1379 C1378 1.369 . S
C1379 C1380 1.410 . S
C1379 C1387 1.503 . S
C1380 C1379 1.410 . S
C1380 C1381 1.392 . S
C1380 C1383 1.511 . S
C1381 C1377 1.376 . S
C1381 C1380 1.392 . S
C1381 H1393 0.929 . S
C1382 C1378 1.531 . S
C1382 H1394 0.960 . S
C1382 H1395 0.962 . S
C1382 H1396 0.960 . S
C1383 C1380 1.511 . S
C1383 H1397 0.961 . S
C1383 H1398 0.961 . S
C1383 H1399 0.961 1_556 S
C1384 C1385 1.370 . S
C1384 C1386 1.363 . S
C1384 H1400 0.931 . S
C1385 C1384 1.370 . S
C1385 C1389 1.408 . S
C1386 C1384 1.363 . S
C1386 C1387 1.370 . S
C1386 C1390 1.524 . S
C1387 C1379 1.503 . S
C1387 C1386 1.370 . S
C1387 C1388 1.403 . S
C1388 C1387 1.403 . S
C1388 C1389 1.404 . S
C1388 C1391 1.539 . S
C1389 C1385 1.408 . S
C1389 C1388 1.404 . S
C1389 H1401 0.930 . S
C1390 C1386 1.524 . S
C1390 H1402 0.956 . S
C1390 H1403 0.961 . S
C1390 H1404 0.961 . S
C1391 C1388 1.539 . S
C1391 H1405 0.958 . S
C1391 H1406 0.961 1_556 S
C1391 H1407 0.960 . S
H1392 C1376 0.931 . S
H1393 C1381 0.929 . S
H1394 C1382 0.960 . S
H1395 C1382 0.962 . S
H1396 C1382 0.960 . S
H1397 C1383 0.961 . S
H1398 C1383 0.961 . S
H1399 C1383 0.961 1_554 S
H1400 C1384 0.931 . S
H1401 C1389 0.930 . S
H1402 C1390 0.956 . S
H1403 C1390 0.961 . S
H1404 C1390 0.961 . S
H1405 C1391 0.958 . S
H1406 C1391 0.961 1_554 S
H1407 C1391 0.960 . S
C1408 C1409 1.391 . S
C1408 C1410 1.394 . S
C1408 H1424 0.931 . S
C1409 C1408 1.391 . S
C1409 C1413 1.376 . S
C1410 C1408 1.394 . S
C1410 C1411 1.369 . S
C1410 C1414 1.531 . S
C1411 C1410 1.369 . S
C1411 C1412 1.410 . S
C1411 C1419 1.503 . S
C1412 C1411 1.410 . S
C1412 C1413 1.392 . S
C1412 C1415 1.511 . S
C1413 C1409 1.376 . S
C1413 C1412 1.392 . S
C1413 H1425 0.929 . S
C1414 C1410 1.531 . S
C1414 H1426 0.960 . S
C1414 H1427 0.962 . S
C1414 H1428 0.960 . S
C1415 C1412 1.511 . S
C1415 H1429 0.961 . S
C1415 H1430 0.961 . S
C1415 H1431 0.961 . S
C1416 C1417 1.370 . S
C1416 C1418 1.363 . S
C1416 H1432 0.931 . S
C1417 C1416 1.370 . S
C1417 C1421 1.408 . S
C1418 C1416 1.363 . S
C1418 C1419 1.370 . S
C1418 C1422 1.524 . S
C1419 C1411 1.503 . S
C1419 C1418 1.370 . S
C1419 C1420 1.403 . S
C1420 C1419 1.403 . S
C1420 C1421 1.404 . S
C1420 C1423 1.539 1_554 S
C1421 C1417 1.408 . S
C1421 C1420 1.404 . S
C1421 H1433 0.930 . S
C1422 C1418 1.524 . S
C1422 H1434 0.956 . S
C1422 H1435 0.961 . S
C1422 H1436 0.961 . S
C1423 C1420 1.539 1_556 S
C1423 H1437 0.958 . S
C1423 H1438 0.961 . S
C1423 H1439 0.960 1_556 S
H1424 C1408 0.931 . S
H1425 C1413 0.929 . S
H1426 C1414 0.960 . S
H1427 C1414 0.962 . S
H1428 C1414 0.960 . S
H1429 C1415 0.961 . S
H1430 C1415 0.961 . S
H1431 C1415 0.961 . S
H1432 C1416 0.931 . S
H1433 C1421 0.930 . S
H1434 C1422 0.956 . S
H1435 C1422 0.961 . S
H1436 C1422 0.961 . S
H1437 C1423 0.958 . S
H1438 C1423 0.961 . S
H1439 C1423 0.960 1_554 S
C673 C58 1.482 . S
C681 C658 1.563 . S
C705 C562 1.591 . S
C713 C154 1.516 . S
C737 C490 1.563 . S
C745 C226 1.526 . S
C769 C394 1.536 . S
C777 C322 1.544 . S
C801 C236 2.420 . S
C809 C68 2.435 . S
C833 C152 0.653 . S
C841 C320 0.666 . S
C865 C308 2.425 . S
C873 C140 2.436 . S
C897 C224 0.589 . S
C905 C56 0.633 . S
C929 C404 2.432 . S
C937 C572 2.442 . S
C961 C488 0.670 . S
C969 C656 0.627 . S
C993 C644 2.453 . S
C1001 C476 2.450 . S
C1025 C560 0.552 . S
C1033 C392 0.588 . S
C1057 C67 1.748 . S
C1065 C55 1.779 . S
C1089 C139 1.778 . S
C1097 C151 1.768 . S
C1121 C223 1.763 . S
C1129 C235 1.772 . S
C1153 C307 1.768 . S
C1161 C319 1.772 . S
C1185 C391 1.782 . S
C1193 C403 1.765 . S
C1217 C475 1.786 . S
C1225 C487 1.764 . S
C1249 C571 1.748 . S
C1257 C559 1.779 . S
C1281 C643 1.762 . S
C1289 C655 1.772 . S
C1313 C70 1.990 . S
C1321 C142 1.994 . S
C1345 C310 2.018 . S
C1353 C238 2.006 . S
C1377 C406 1.959 . S
C1385 C478 1.986 . S
C1409 C646 1.974 . S
C1417 C574 1.987 . S
