# Generated by pormake.
# Topology wjv, (5)-cn, num edge types: 1
# Building blocks:
#     Node 0, Type 0, BuildingBlock: XOMCOT_clean_sbu_0, # of connection points: 5
#     Node 1, Type 0, BuildingBlock: XOMCOT_clean_sbu_0, # of connection points: 5
#     Node 2, Type 0, BuildingBlock: XOMCOT_clean_sbu_0, # of connection points: 5
#     Node 3, Type 0, BuildingBlock: XOMCOT_clean_sbu_0, # of connection points: 5
#     Node 4, Type 0, BuildingBlock: XOMCOT_clean_sbu_0, # of connection points: 5
#     Node 5, Type 0, BuildingBlock: XOMCOT_clean_sbu_0, # of connection points: 5
#     Node 6, Type 0, BuildingBlock: XOMCOT_clean_sbu_0, # of connection points: 5
#     Node 7, Type 0, BuildingBlock: XOMCOT_clean_sbu_0, # of connection points: 5
#     Node 8, Type 0, BuildingBlock: XOMCOT_clean_sbu_0, # of connection points: 5
#     Node 9, Type 0, BuildingBlock: XOMCOT_clean_sbu_0, # of connection points: 5
#     Node 10, Type 0, BuildingBlock: XOMCOT_clean_sbu_0, # of connection points: 5
#     Node 11, Type 0, BuildingBlock: XOMCOT_clean_sbu_0, # of connection points: 5
#     Edge 12, Type (0, 0), BuildingBlock: EYOCIG_clean_linker_4, # of connection points: 2
#     Edge 13, Type (0, 0), BuildingBlock: EYOCIG_clean_linker_4, # of connection points: 2
#     Edge 14, Type (0, 0), BuildingBlock: EYOCIG_clean_linker_4, # of connection points: 2
#     Edge 15, Type (0, 0), BuildingBlock: EYOCIG_clean_linker_4, # of connection points: 2
#     Edge 16, Type (0, 0), BuildingBlock: EYOCIG_clean_linker_4, # of connection points: 2
#     Edge 17, Type (0, 0), BuildingBlock: EYOCIG_clean_linker_4, # of connection points: 2
#     Edge 18, Type (0, 0), BuildingBlock: EYOCIG_clean_linker_4, # of connection points: 2
#     Edge 19, Type (0, 0), BuildingBlock: EYOCIG_clean_linker_4, # of connection points: 2
#     Edge 20, Type (0, 0), BuildingBlock: EYOCIG_clean_linker_4, # of connection points: 2
#     Edge 21, Type (0, 0), BuildingBlock: EYOCIG_clean_linker_4, # of connection points: 2
#     Edge 22, Type (0, 0), BuildingBlock: EYOCIG_clean_linker_4, # of connection points: 2
#     Edge 23, Type (0, 0), BuildingBlock: EYOCIG_clean_linker_4, # of connection points: 2
#     Edge 24, Type (0, 0), BuildingBlock: EYOCIG_clean_linker_4, # of connection points: 2
#     Edge 25, Type (0, 0), BuildingBlock: EYOCIG_clean_linker_4, # of connection points: 2
#     Edge 26, Type (0, 0), BuildingBlock: EYOCIG_clean_linker_4, # of connection points: 2
#     Edge 27, Type (0, 0), BuildingBlock: EYOCIG_clean_linker_4, # of connection points: 2
#     Edge 28, Type (0, 0), BuildingBlock: EYOCIG_clean_linker_4, # of connection points: 2
#     Edge 29, Type (0, 0), BuildingBlock: EYOCIG_clean_linker_4, # of connection points: 2
#     Edge 30, Type (0, 0), BuildingBlock: EYOCIG_clean_linker_4, # of connection points: 2
#     Edge 31, Type (0, 0), BuildingBlock: EYOCIG_clean_linker_4, # of connection points: 2
#     Edge 32, Type (0, 0), BuildingBlock: EYOCIG_clean_linker_4, # of connection points: 2
#     Edge 33, Type (0, 0), BuildingBlock: EYOCIG_clean_linker_4, # of connection points: 2
#     Edge 34, Type (0, 0), BuildingBlock: EYOCIG_clean_linker_4, # of connection points: 2
#     Edge 35, Type (0, 0), BuildingBlock: EYOCIG_clean_linker_4, # of connection points: 2
#     Edge 36, Type (0, 0), BuildingBlock: EYOCIG_clean_linker_4, # of connection points: 2
#     Edge 37, Type (0, 0), BuildingBlock: EYOCIG_clean_linker_4, # of connection points: 2
#     Edge 38, Type (0, 0), BuildingBlock: EYOCIG_clean_linker_4, # of connection points: 2
#     Edge 39, Type (0, 0), BuildingBlock: EYOCIG_clean_linker_4, # of connection points: 2
#     Edge 40, Type (0, 0), BuildingBlock: EYOCIG_clean_linker_4, # of connection points: 2
#     Edge 41, Type (0, 0), BuildingBlock: EYOCIG_clean_linker_4, # of connection points: 2
# Relax obj value: 0.148
# Max RMSD: 0.185
# Mean RMSD: 0.185
data_MOF--net-wjv--node1-XOMCOT_clean_sbu_0--edge1-EYOCIG_clean_linker_4
_symmetry_space_group_name_H-M    P1
_symmetry_Int_Tables_number       1
_symmetry_cell_setting            triclinic
loop_
_symmetry_equiv_pos_as_xyz
'x, y, z'
_cell_length_a     30.296312
_cell_length_b     30.251401
_cell_length_c     41.805567
_cell_angle_alpha  90.003316
_cell_angle_beta   89.999953
_cell_angle_gamma 120.00802
loop_
_atom_site_label
_atom_site_type_symbol
_atom_site_fract_x
_atom_site_fract_y
_atom_site_fract_z
_atom_type_partial_charge
Co0 Co 0.20157 0.28645 0.19018 0.0
C1 C 0.19213 0.30586 0.12178 0.0
C2 C 0.17783 0.22958 0.13001 0.0
C3 C 0.1704 0.23455 0.09807 0.0
N4 N 0.19162 0.27427 0.14477 0.0
N5 N 0.17936 0.28226 0.09318 0.0
H6 H 0.19999 0.34442 0.12607 0.0
H7 H 0.17195 0.19525 0.14182 0.0
C8 C 0.26985 0.2427 0.20313 0.0
O9 O 0.30242 0.28419 0.2185 0.0
N10 N 0.20932 0.29682 0.23646 0.0
C11 C 0.20482 0.33214 0.25383 0.0
C12 C 0.20997 0.32491 0.28585 0.0
C13 C 0.21397 0.26673 0.25861 0.0
N14 N 0.21585 0.28397 0.28851 0.0
C15 C 0.2878 0.38989 0.19653 0.0
C16 C 0.35263 0.37359 0.15806 0.0
C17 C 0.37224 0.41879 0.17553 0.0
C18 C 0.33918 0.42781 0.19411 0.0
C19 C 0.30123 0.33681 0.16118 0.0
N20 N 0.27016 0.34368 0.18192 0.0
H21 H 0.26271 0.39777 0.21043 0.0
H22 H 0.28714 0.30143 0.14817 0.0
H23 H 0.19712 0.36074 0.24417 0.0
H24 H 0.21481 0.23221 0.25337 0.0
O25 O 0.16182 0.32078 0.18842 0.0
O26 O 0.1306 0.23774 0.19657 0.0
O27 O 0.2283 0.2374 0.19193 0.0
C28 C 0.1223 0.27557 0.19279 0.0
H29 H 0.15773 0.20501 0.08001 0.0
H30 H 0.20923 0.34768 0.30561 0.0
H31 H 0.3771 0.36598 0.14291 0.0
H32 H 0.35305 0.46329 0.20714 0.0
Co33 Co 0.91464 0.20234 0.52354 0.0
C34 C 0.88582 0.19276 0.45514 0.0
C35 C 0.94722 0.17777 0.46347 0.0
C36 C 0.93476 0.17023 0.43153 0.0
N37 N 0.91672 0.19207 0.47815 0.0
N38 N 0.89638 0.17962 0.42658 0.0
H39 H 0.85542 0.20103 0.45938 0.0
H40 H 0.97542 0.17163 0.47532 0.0
C41 C 0.02669 0.27014 0.53647 0.0
O42 O 0.0181 0.30299 0.55177 0.0
N43 N 0.9122 0.21044 0.5698 0.0
C44 C 0.87264 0.20648 0.58715 0.0
C45 C 0.88507 0.21173 0.61917 0.0
C46 C 0.94679 0.21485 0.59196 0.0
N47 N 0.93162 0.21713 0.62184 0.0
C48 C 0.89785 0.28882 0.5294 0.0
C49 C 0.97928 0.35348 0.49104 0.0
C50 C 0.95356 0.3732 0.50821 0.0
C51 C 0.91134 0.34023 0.52673 0.0
C52 C 0.9646 0.30204 0.4944 0.0
N53 N 0.92651 0.27109 0.51509 0.0
H54 H 0.86475 0.26377 0.5432 0.0
H55 H 0.98588 0.2878 0.48156 0.0
H56 H 0.83648 0.19904 0.5775 0.0
H57 H 0.98188 0.21525 0.58675 0.0
O58 O 0.84063 0.16305 0.52182 0.0
O59 O 0.89183 0.13122 0.5301 0.0
O60 O 0.99028 0.22863 0.52528 0.0
C61 C 0.84589 0.12328 0.52628 0.0
H62 H 0.95134 0.15719 0.41352 0.0
H63 H 0.86176 0.21138 0.63891 0.0
H64 H 0.01146 0.37789 0.47594 0.0
H65 H 0.88964 0.35419 0.53951 0.0
Co66 Co 0.71162 0.9159 0.85676 0.0
C67 C 0.69223 0.88704 0.78835 0.0
C68 C 0.7684 0.94903 0.79659 0.0
C69 C 0.76343 0.93659 0.76464 0.0
N70 N 0.72378 0.91815 0.81134 0.0
N71 N 0.7158 0.89785 0.75976 0.0
H72 H 0.65373 0.85633 0.79265 0.0
H73 H 0.80268 0.97748 0.80839 0.0
C74 C 0.75568 0.02809 0.86979 0.0
O75 O 0.71429 0.01937 0.88514 0.0
N76 N 0.70126 0.9133 0.90304 0.0
C77 C 0.66586 0.87354 0.9204 0.0
C78 C 0.67311 0.88594 0.95242 0.0
C79 C 0.73139 0.94799 0.92519 0.0
N80 N 0.71411 0.93268 0.95509 0.0
C81 C 0.60835 0.89876 0.86294 0.0
C82 C 0.62478 0.98024 0.82466 0.0
C83 C 0.57948 0.95441 0.84195 0.0
C84 C 0.57042 0.91217 0.86044 0.0
C85 C 0.66156 0.96564 0.82786 0.0
N86 N 0.65461 0.92753 0.8485 0.0
H87 H 0.60044 0.86565 0.87673 0.0
H88 H 0.69697 0.98704 0.81494 0.0
H89 H 0.63722 0.83728 0.91074 0.0
H90 H 0.76595 0.98327 0.91997 0.0
O91 O 0.67714 0.84178 0.85496 0.0
O92 O 0.76009 0.89335 0.86313 0.0
O93 O 0.76079 0.9917 0.85855 0.0
C94 C 0.72222 0.84726 0.85933 0.0
H95 H 0.79293 0.95343 0.74659 0.0
H96 H 0.65029 0.86249 0.97217 0.0
H97 H 0.63242 0.01244 0.80958 0.0
H98 H 0.53487 0.89038 0.87331 0.0
Co99 Co 0.79556 0.7128 0.19006 0.0
C100 C 0.80494 0.69322 0.12168 0.0
C101 C 0.81928 0.76954 0.12985 0.0
C102 C 0.82667 0.76448 0.09791 0.0
N103 N 0.80548 0.72488 0.14464 0.0
N104 N 0.81768 0.71675 0.09306 0.0
H105 H 0.79706 0.65466 0.12601 0.0
H106 H 0.82518 0.8039 0.14163 0.0
C107 C 0.72724 0.75655 0.20293 0.0
O108 O 0.69466 0.71508 0.21831 0.0
N109 N 0.78781 0.70254 0.23636 0.0
C110 C 0.79235 0.66728 0.25376 0.0
C111 C 0.7872 0.67458 0.28577 0.0
C112 C 0.78314 0.73267 0.25847 0.0
N113 N 0.78128 0.71549 0.28839 0.0
C114 C 0.70938 0.60935 0.19648 0.0
C115 C 0.64449 0.6255 0.15797 0.0
C116 C 0.62492 0.58034 0.17548 0.0
C117 C 0.65801 0.5714 0.19408 0.0
C118 C 0.69588 0.66231 0.16108 0.0
N119 N 0.72698 0.65553 0.18183 0.0
H120 H 0.7345 0.60153 0.21039 0.0
H121 H 0.70994 0.69767 0.14804 0.0
H122 H 0.80007 0.63868 0.24414 0.0
H123 H 0.78227 0.76716 0.2532 0.0
O124 O 0.83533 0.67851 0.18837 0.0
O125 O 0.86651 0.76156 0.19644 0.0
O126 O 0.76879 0.76184 0.19175 0.0
C127 C 0.87484 0.72374 0.19271 0.0
H128 H 0.83932 0.79397 0.07982 0.0
H129 H 0.78796 0.65187 0.30555 0.0
H130 H 0.61999 0.63305 0.1428 0.0
H131 H 0.64417 0.53595 0.20714 0.0
Co132 Co 0.0826 0.79678 0.52352 0.0
C133 C 0.11145 0.80634 0.45512 0.0
C134 C 0.04991 0.82114 0.46342 0.0
C135 C 0.06236 0.82866 0.43149 0.0
N136 N 0.0805 0.80698 0.47813 0.0
N137 N 0.10082 0.81938 0.42656 0.0
H138 H 0.14191 0.79819 0.45938 0.0
H139 H 0.02165 0.82721 0.47526 0.0
C140 C 0.97055 0.72892 0.53644 0.0
O141 O 0.97916 0.69609 0.55176 0.0
N142 N 0.08505 0.78874 0.56978 0.0
C143 C 0.12462 0.79274 0.58715 0.0
C144 C 0.11217 0.78752 0.61916 0.0
C145 C 0.05045 0.78433 0.59192 0.0
N146 N 0.0656 0.78209 0.62182 0.0
C147 C 0.09952 0.71038 0.52941 0.0
C148 C 0.01811 0.64562 0.49107 0.0
C149 C 0.04389 0.62596 0.50824 0.0
C150 C 0.08609 0.65899 0.52675 0.0
C151 C 0.03272 0.69704 0.49442 0.0
N152 N 0.0708 0.72804 0.5151 0.0
H153 H 0.13261 0.73547 0.54321 0.0
H154 H 0.0114 0.71123 0.48158 0.0
H155 H 0.16079 0.8002 0.57751 0.0
H156 H 0.01534 0.7839 0.5867 0.0
O157 O 0.15661 0.83612 0.52179 0.0
O158 O 0.10536 0.8679 0.53004 0.0
O159 O 0.00696 0.77043 0.52526 0.0
C160 C 0.15131 0.87587 0.52624 0.0
H161 H 0.04572 0.8416 0.41346 0.0
H162 H 0.13547 0.7879 0.63892 0.0
H163 H 0.98594 0.62117 0.47597 0.0
H164 H 0.10784 0.64508 0.53953 0.0
Co165 Co 0.28533 0.08348 0.85679 0.0
C166 C 0.30491 0.11237 0.78841 0.0
C167 C 0.2286 0.05063 0.7966 0.0
C168 C 0.23368 0.06309 0.76466 0.0
N169 N 0.27324 0.08134 0.81138 0.0
N170 N 0.2814 0.10168 0.7598 0.0
H171 H 0.34348 0.14294 0.79274 0.0
H172 H 0.19424 0.02227 0.80838 0.0
C173 C 0.24116 0.97125 0.86973 0.0
O174 O 0.28252 0.9799 0.88509 0.0
N175 N 0.29565 0.08599 0.90308 0.0
C176 C 0.33105 0.12573 0.92046 0.0
C177 C 0.32379 0.1133 0.95247 0.0
C178 C 0.26551 0.05127 0.92522 0.0
N179 N 0.28279 0.06655 0.95512 0.0
C180 C 0.38857 0.10052 0.863 0.0
C181 C 0.37211 0.01909 0.82466 0.0
C182 C 0.41738 0.04485 0.84197 0.0
C183 C 0.42646 0.08707 0.86049 0.0
C184 C 0.33535 0.03372 0.82786 0.0
N185 N 0.34232 0.07181 0.84854 0.0
H186 H 0.39649 0.13361 0.87682 0.0
H187 H 0.29995 0.01237 0.81493 0.0
H188 H 0.3597 0.162 0.91082 0.0
H189 H 0.23095 0.016 0.91998 0.0
O190 O 0.31986 0.15761 0.85506 0.0
O191 O 0.23689 0.10605 0.86319 0.0
O192 O 0.23611 0.00768 0.85852 0.0
C193 C 0.27478 0.15214 0.85942 0.0
H194 H 0.2042 0.04637 0.74658 0.0
H195 H 0.34661 0.13673 0.97223 0.0
H196 H 0.36445 0.9869 0.80956 0.0
H197 H 0.462 0.10881 0.87338 0.0
Co198 Co 0.71182 0.7968 0.5208 0.0
C199 C 0.69242 0.80625 0.5892 0.0
C200 C 0.76871 0.82091 0.58095 0.0
C201 C 0.76372 0.82839 0.61288 0.0
N202 N 0.72402 0.80686 0.56621 0.0
N203 N 0.71602 0.8192 0.61778 0.0
H204 H 0.65385 0.79818 0.58491 0.0
H205 H 0.80304 0.82695 0.56913 0.0
C206 C 0.75608 0.72894 0.50782 0.0
O207 O 0.7147 0.69614 0.49248 0.0
N208 N 0.70141 0.78892 0.47452 0.0
C209 C 0.66594 0.79311 0.45717 0.0
C210 C 0.67317 0.78796 0.42514 0.0
C211 C 0.73156 0.78446 0.45236 0.0
N212 N 0.71423 0.78239 0.42247 0.0
C213 C 0.60864 0.71039 0.51472 0.0
C214 C 0.62527 0.64556 0.55306 0.0
C215 C 0.57993 0.62593 0.53582 0.0
C216 C 0.57076 0.65899 0.5173 0.0
C217 C 0.66201 0.697 0.54979 0.0
N218 N 0.65495 0.72805 0.52911 0.0
H219 H 0.60066 0.73551 0.50091 0.0
H220 H 0.69746 0.71116 0.56268 0.0
H221 H 0.63726 0.80062 0.46683 0.0
H222 H 0.76617 0.7839 0.45757 0.0
O223 O 0.67713 0.83617 0.52257 0.0
O224 O 0.76013 0.86793 0.51437 0.0
O225 O 0.76113 0.77044 0.51903 0.0
C226 C 0.72215 0.87592 0.51818 0.0
H227 H 0.79325 0.84127 0.63093 0.0
H228 H 0.65031 0.78849 0.4054 0.0
H229 H 0.63299 0.62109 0.56816 0.0
H230 H 0.53517 0.64509 0.50446 0.0
Co231 Co 0.91427 0.71269 0.85406 0.0
C232 C 0.88531 0.69319 0.92244 0.0
C233 C 0.94697 0.7696 0.91423 0.0
C234 C 0.93449 0.76458 0.94616 0.0
N235 N 0.91632 0.72486 0.89947 0.0
N236 N 0.89595 0.7168 0.95104 0.0
H237 H 0.8548 0.65456 0.91814 0.0
H238 H 0.9753 0.80399 0.90243 0.0
C239 C 0.02631 0.7567 0.84125 0.0
O240 O 0.01757 0.71523 0.8259 0.0
N241 N 0.91185 0.70234 0.80778 0.0
C242 C 0.87219 0.66694 0.79038 0.0
C243 C 0.88469 0.67419 0.75837 0.0
C244 C 0.9466 0.73249 0.78568 0.0
N245 N 0.93141 0.71521 0.75576 0.0
C246 C 0.89729 0.6093 0.84785 0.0
C247 C 0.9784 0.62573 0.88637 0.0
C248 C 0.95284 0.58046 0.86897 0.0
C249 C 0.91077 0.57138 0.85036 0.0
C250 C 0.96375 0.66251 0.88315 0.0
N251 N 0.92583 0.65557 0.86239 0.0
H252 H 0.86433 0.60138 0.83394 0.0
H253 H 0.98498 0.69793 0.89613 0.0
H254 H 0.83593 0.63827 0.79999 0.0
H255 H 0.98183 0.76708 0.79094 0.0
O256 O 0.84025 0.67819 0.85573 0.0
O257 O 0.89181 0.76127 0.8476 0.0
O258 O 0.98998 0.7619 0.8524 0.0
C259 C 0.84577 0.72335 0.85135 0.0
H260 H 0.95117 0.79413 0.96422 0.0
H261 H 0.86133 0.65136 0.73859 0.0
H262 H 0.01046 0.63338 0.90154 0.0
H263 H 0.88919 0.53585 0.83739 0.0
Co264 Co 0.20173 0.91595 0.18757 0.0
C265 C 0.19226 0.88709 0.25597 0.0
C266 C 0.1783 0.94928 0.24776 0.0
C267 C 0.17085 0.93686 0.2797 0.0
N268 N 0.19189 0.91826 0.23299 0.0
N269 N 0.1796 0.89799 0.28458 0.0
H270 H 0.19993 0.85627 0.25166 0.0
H271 H 0.17256 0.97782 0.23596 0.0
C272 C 0.27009 0.0281 0.17456 0.0
O273 O 0.30265 0.01922 0.15919 0.0
N274 N 0.20939 0.91328 0.14128 0.0
C275 C 0.20478 0.87339 0.12393 0.0
C276 C 0.20988 0.88574 0.0919 0.0
C277 C 0.21407 0.94802 0.11913 0.0
N278 N 0.21585 0.9326 0.08923 0.0
C279 C 0.28778 0.89863 0.1812 0.0
C280 C 0.35284 0.97991 0.21958 0.0
C281 C 0.3723 0.9542 0.20214 0.0
C282 C 0.33913 0.91204 0.18361 0.0
C283 C 0.30147 0.96533 0.21647 0.0
N284 N 0.27029 0.92732 0.19578 0.0
H285 H 0.26261 0.86561 0.16735 0.0
H286 H 0.28749 0.98672 0.22947 0.0
H287 H 0.19704 0.83708 0.1336 0.0
H288 H 0.21498 0.98342 0.12435 0.0
O289 O 0.16188 0.84183 0.18936 0.0
O290 O 0.13078 0.8937 0.18122 0.0
O291 O 0.22856 0.99181 0.18579 0.0
C292 C 0.1224 0.84753 0.18501 0.0
H293 H 0.1583 0.9538 0.29777 0.0
H294 H 0.20905 0.86218 0.07215 0.0
H295 H 0.3774 0.01205 0.2347 0.0
H296 H 0.35289 0.89034 0.1706 0.0
Co297 Co 0.28557 0.20244 0.52081 0.0
C298 C 0.30509 0.19303 0.58919 0.0
C299 C 0.22878 0.17831 0.58099 0.0
C300 C 0.23382 0.17087 0.61292 0.0
N301 N 0.27345 0.19238 0.56622 0.0
N302 N 0.28155 0.1801 0.61779 0.0
H303 H 0.34367 0.20112 0.58488 0.0
H304 H 0.19443 0.17225 0.5692 0.0
C305 C 0.24134 0.27037 0.50794 0.0
O306 O 0.2827 0.30318 0.49259 0.0
N307 N 0.29589 0.21034 0.47453 0.0
C308 C 0.33133 0.20617 0.45713 0.0
C309 C 0.32406 0.21139 0.42512 0.0
C310 C 0.26572 0.21485 0.45241 0.0
N311 N 0.28301 0.21698 0.4225 0.0
C312 C 0.3888 0.28872 0.51473 0.0
C313 C 0.37234 0.35367 0.55307 0.0
C314 C 0.41768 0.37322 0.53583 0.0
C315 C 0.42676 0.3401 0.51731 0.0
C316 C 0.33553 0.30225 0.5498 0.0
N317 N 0.34251 0.27116 0.52912 0.0
H318 H 0.39672 0.26356 0.50093 0.0
H319 H 0.3001 0.28815 0.5627 0.0
H320 H 0.36002 0.19863 0.46674 0.0
H321 H 0.23112 0.21542 0.45767 0.0
O322 O 0.32019 0.163 0.52251 0.0
O323 O 0.23719 0.13133 0.51438 0.0
O324 O 0.2363 0.22886 0.51912 0.0
C325 C 0.27514 0.12329 0.51814 0.0
H326 H 0.20432 0.15801 0.63099 0.0
H327 H 0.34689 0.2109 0.40535 0.0
H328 H 0.36469 0.37819 0.56817 0.0
H329 H 0.46234 0.35393 0.50448 0.0
Co330 Co 0.08255 0.28652 0.85422 0.0
C331 C 0.11151 0.30592 0.9226 0.0
C332 C 0.04969 0.2296 0.91437 0.0
C333 C 0.06217 0.23456 0.9463 0.0
N334 N 0.08043 0.27432 0.89962 0.0
N335 N 0.10081 0.28229 0.95119 0.0
H336 H 0.14211 0.34451 0.91831 0.0
H337 H 0.02129 0.19525 0.90256 0.0
C338 C 0.97054 0.24258 0.84135 0.0
O339 O 0.97932 0.28406 0.826 0.0
N340 N 0.08503 0.29689 0.80793 0.0
C341 C 0.12473 0.33227 0.79055 0.0
C342 C 0.11228 0.32501 0.75853 0.0
C343 C 0.05031 0.26674 0.78581 0.0
N344 N 0.06556 0.28401 0.7559 0.0
C345 C 0.0995 0.3899 0.84797 0.0
C346 C 0.0184 0.37349 0.88649 0.0
C347 C 0.04393 0.41873 0.86906 0.0
C348 C 0.08599 0.4278 0.85045 0.0
C349 C 0.03307 0.33672 0.88329 0.0
N350 N 0.07099 0.34364 0.86253 0.0
H351 H 0.13245 0.39781 0.83406 0.0
H352 H 0.01184 0.30131 0.89628 0.0
H353 H 0.16098 0.36091 0.80018 0.0
H354 H 0.01505 0.23218 0.79106 0.0
O355 O 0.15656 0.32102 0.85592 0.0
O356 O 0.10502 0.23794 0.84777 0.0
O357 O 0.00684 0.23734 0.85251 0.0
C358 C 0.15106 0.27586 0.85153 0.0
H359 H 0.04543 0.205 0.96435 0.0
H360 H 0.13569 0.34781 0.73876 0.0
H361 H 0.98634 0.36584 0.90166 0.0
H362 H 0.10754 0.46331 0.83746 0.0
Co363 Co 0.79545 0.08337 0.18753 0.0
C364 C 0.80496 0.11218 0.25595 0.0
C365 C 0.81894 0.05002 0.24768 0.0
C366 C 0.82641 0.06241 0.27963 0.0
N367 N 0.80531 0.08104 0.23294 0.0
N368 N 0.81765 0.10126 0.28454 0.0
H369 H 0.79727 0.14299 0.25167 0.0
H370 H 0.82468 0.0215 0.23586 0.0
C371 C 0.72709 0.97123 0.17448 0.0
O372 O 0.69453 0.98013 0.15913 0.0
N373 N 0.78776 0.08606 0.14124 0.0
C374 C 0.79232 0.12593 0.1239 0.0
C375 C 0.78718 0.11358 0.09187 0.0
C376 C 0.78307 0.05132 0.11908 0.0
N377 N 0.78123 0.06673 0.08919 0.0
C378 C 0.70938 0.10067 0.18121 0.0
C379 C 0.64435 0.01935 0.21956 0.0
C380 C 0.62487 0.04507 0.20214 0.0
C381 C 0.65803 0.08724 0.18362 0.0
C382 C 0.69572 0.03395 0.21644 0.0
N383 N 0.72689 0.07198 0.19576 0.0
H384 H 0.73455 0.13371 0.16736 0.0
H385 H 0.70972 0.01257 0.22943 0.0
H386 H 0.80005 0.16224 0.13358 0.0
H387 H 0.78219 0.01594 0.12429 0.0
O388 O 0.83528 0.15749 0.18934 0.0
O389 O 0.86639 0.10564 0.18116 0.0
O390 O 0.76862 0.00751 0.18571 0.0
C391 C 0.87477 0.15181 0.18497 0.0
H392 H 0.83899 0.04546 0.29767 0.0
H393 H 0.78795 0.13712 0.07213 0.0
H394 H 0.6198 0.9872 0.23467 0.0
H395 H 0.64426 0.10894 0.17063 0.0
C396 C 0.24884 0.23567 0.36989 0.0
C397 C 0.26432 0.22705 0.39436 0.0
C398 C 0.23458 0.24992 0.34117 0.0
C399 C 0.22594 0.26536 0.31668 0.0
C400 C 0.98432 0.23571 0.67452 0.0
C401 C 0.96029 0.22713 0.65002 0.0
C402 C 0.01277 0.24992 0.70325 0.0
C403 C 0.03684 0.26536 0.72774 0.0
C404 C 0.74821 0.98547 1.00776 0.0
C405 C 0.73275 0.96139 0.98327 0.0
C406 C 0.76248 0.01397 0.03649 0.0
C407 C 0.77113 0.03804 0.06099 0.0
C408 C 0.76257 0.74961 0.34104 0.0
C409 C 0.7712 0.73416 0.31655 0.0
C410 C 0.74834 0.76382 0.36978 0.0
C411 C 0.73289 0.77239 0.39428 0.0
C412 C 0.01283 0.7635 0.67446 0.0
C413 C 0.03691 0.77208 0.64998 0.0
C414 C 0.98431 0.74929 0.70316 0.0
C415 C 0.96018 0.73385 0.72762 0.0
C416 C 0.2487 0.01377 1.00779 0.0
C417 C 0.26414 0.03783 0.98329 0.0
C418 C 0.23449 0.98531 0.03653 0.0
C419 C 0.22589 0.96126 0.06104 0.0
C420 C 0.14592 0.31029 1.00639 0.0
C421 C 0.12729 0.30056 0.98005 0.0
C422 C 0.1623 0.31027 0.03796 0.0
C423 C 0.17116 0.30052 0.0643 0.0
C424 C 0.83496 0.14637 0.33977 0.0
C425 C 0.82599 0.12776 0.31342 0.0
C426 C 0.8514 0.16271 0.37135 0.0
C427 C 0.87 0.17154 0.39769 0.0
C428 C 0.6879 0.85267 0.70455 0.0
C429 C 0.69759 0.87132 0.73089 0.0
C430 C 0.68796 0.83626 0.67298 0.0
C431 C 0.69772 0.82738 0.64665 0.0
C432 C 0.85094 0.68864 1.00626 0.0
C433 C 0.86952 0.69843 0.97991 0.0
C434 C 0.83462 0.68863 0.03784 0.0
C435 C 0.8258 0.69841 0.06419 0.0
C436 C 0.14586 0.83639 0.37134 0.0
C437 C 0.12724 0.82753 0.39768 0.0
C438 C 0.1623 0.8528 0.33978 0.0
C439 C 0.17126 0.87145 0.31344 0.0
C440 C 0.3096 0.14677 0.70459 0.0
C441 C 0.29979 0.12816 0.73094 0.0
C442 C 0.30965 0.16315 0.67301 0.0
C443 C 0.2999 0.17199 0.64666 0.0
C444 C 0.52533 0.5159 0.17456 0.0
C445 C 0.5708 0.54472 0.17532 0.0
C446 C 0.47184 0.48319 0.17457 0.0
C447 C 0.42636 0.45439 0.17535 0.0
C448 C 0.98852 0.47285 0.50691 0.0
C449 C 0.97203 0.42736 0.5078 0.0
C450 C 0.00903 0.52634 0.50692 0.0
C451 C 0.02549 0.57182 0.50782 0.0
C452 C 0.48197 0.00989 0.84086 0.0
C453 C 0.45305 0.02642 0.84168 0.0
C454 C 0.51485 0.98931 0.84086 0.0
C455 C 0.54379 0.9728 0.84168 0.0
C456 C 0.48238 0.47282 0.53703 0.0
C457 C 0.4534 0.42734 0.53617 0.0
C458 C 0.51532 0.52631 0.53703 0.0
C459 C 0.54427 0.57179 0.53617 0.0
C460 C 0.988 0.51597 0.87007 0.0
C461 C 0.97136 0.54483 0.86924 0.0
C462 C 0.00872 0.48318 0.8701 0.0
C463 C 0.02537 0.45433 0.8693 0.0
C464 C 0.52531 0.00997 0.20309 0.0
C465 C 0.57077 0.0266 0.20232 0.0
C466 C 0.47185 0.98926 0.20308 0.0
C467 C 0.42639 0.97264 0.20231 0.0
C468 C 0.0255 0.25016 0.18984 0.0
C469 C 0.07085 0.26604 0.19087 0.0
C470 C 0.97161 0.22322 0.18796 0.0
C471 C 0.92625 0.19376 0.18692 0.0
C472 C 0.74704 0.97265 0.52129 0.0
C473 C 0.73132 0.92729 0.52019 0.0
C474 C 0.77403 0.02659 0.52326 0.0
C475 C 0.8037 0.07193 0.52431 0.0
C476 C 0.74733 0.77558 0.85625 0.0
C477 C 0.73155 0.80516 0.85733 0.0
C478 C 0.77424 0.74858 0.85433 0.0
C479 C 0.80375 0.73274 0.85328 0.0
C480 C 0.97165 0.74918 0.18982 0.0
C481 C 0.92631 0.73329 0.19082 0.0
C482 C 0.02555 0.77612 0.18797 0.0
C483 C 0.07091 0.80558 0.18694 0.0
C484 C 0.22314 0.97258 0.52318 0.0
C485 C 0.19348 0.92724 0.52425 0.0
C486 C 0.25016 0.02652 0.52122 0.0
C487 C 0.26592 0.07189 0.52013 0.0
C488 C 0.22264 0.25072 0.8545 0.0
C489 C 0.19309 0.26649 0.85346 0.0
C490 C 0.24963 0.22379 0.85641 0.0
C491 C 0.26546 0.19425 0.85746 0.0
C492 C 0.28528 0.16579 0.19254 0.0
C493 C 0.28074 0.20231 0.19825 0.0
C494 C 0.28537 0.12042 0.18509 0.0
C495 C 0.28095 0.0794 0.1794 0.0
C496 C 0.16416 0.28523 0.51849 0.0
C497 C 0.20078 0.28094 0.51281 0.0
C498 C 0.11877 0.28515 0.52591 0.0
C499 C 0.07783 0.28076 0.53158 0.0
C500 C 0.83286 0.12029 0.85934 0.0
C501 C 0.79622 0.07933 0.86499 0.0
C502 C 0.87832 0.16562 0.85194 0.0
C503 C 0.91933 0.20214 0.84624 0.0
C504 C 0.71181 0.87889 0.18493 0.0
C505 C 0.71624 0.91992 0.17928 0.0
C506 C 0.71187 0.8335 0.19234 0.0
C507 C 0.71638 0.79696 0.19805 0.0
C508 C 0.83317 0.71395 0.5184 0.0
C509 C 0.79659 0.7183 0.5127 0.0
C510 C 0.8785 0.71394 0.52585 0.0
C511 C 0.91942 0.71829 0.53155 0.0
C512 C 0.16394 0.87907 0.85924 0.0
C513 C 0.20059 0.92003 0.8649 0.0
C514 C 0.11849 0.83373 0.85183 0.0
C515 C 0.0775 0.79718 0.84614 0.0
loop_
_geom_bond_atom_site_label_1
_geom_bond_atom_site_label_2
_geom_bond_distance
_geom_bond_site_symmetry_2
_ccdc_geom_bond_type
Co0 N4 2.148 . S
Co0 N10 2.128 . S
Co0 N20 2.194 . S
Co0 O25 2.351 . S
Co0 O26 2.155 . S
Co0 O27 2.096 . S
C1 N4 1.301 . S
C1 N5 1.328 . S
C1 H6 0.930 . S
C2 C3 1.333 . S
C2 N4 1.317 . S
C2 H7 0.930 . S
C3 C2 1.333 . S
C3 N5 1.350 . S
C3 H29 0.931 . S
N4 Co0 2.148 . S
N4 C1 1.301 . S
N4 C2 1.317 . S
N5 C1 1.328 . S
N5 C3 1.350 . S
H6 C1 0.930 . S
H7 C2 0.930 . S
C8 O9 1.224 . S
C8 O27 1.247 . S
O9 C8 1.224 . S
N10 Co0 2.128 . S
N10 C11 1.355 . S
N10 C13 1.311 . S
C11 N10 1.355 . S
C11 C12 1.363 . S
C11 H23 0.929 . S
C12 C11 1.363 . S
C12 N14 1.375 . S
C12 H30 0.931 . S
C13 N10 1.311 . S
C13 N14 1.347 . S
C13 H24 0.929 . S
N14 C12 1.375 . S
N14 C13 1.347 . S
C15 C18 1.365 . S
C15 N20 1.328 . S
C15 H21 0.929 . S
C16 C17 1.362 . S
C16 C19 1.378 . S
C16 H31 0.929 . S
C17 C16 1.362 . S
C17 C18 1.366 . S
C18 C15 1.365 . S
C18 C17 1.366 . S
C18 H32 0.930 . S
C19 C16 1.378 . S
C19 N20 1.315 . S
C19 H22 0.930 . S
N20 Co0 2.194 . S
N20 C15 1.328 . S
N20 C19 1.315 . S
H21 C15 0.929 . S
H22 C19 0.930 . S
H23 C11 0.929 . S
H24 C13 0.929 . S
O25 Co0 2.351 . S
O25 C28 1.244 . S
O26 Co0 2.155 . S
O26 C28 1.240 . S
O27 Co0 2.096 . S
O27 C8 1.247 . S
C28 O25 1.244 . S
C28 O26 1.240 . S
H29 C3 0.931 . S
H30 C12 0.931 . S
H31 C16 0.929 . S
H32 C18 0.930 . S
Co33 N37 2.148 . S
Co33 N43 2.128 . S
Co33 N53 2.194 . S
Co33 O58 2.351 . S
Co33 O59 2.155 . S
Co33 O60 2.096 . S
C34 N37 1.301 . S
C34 N38 1.328 . S
C34 H39 0.930 . S
C35 C36 1.333 . S
C35 N37 1.317 . S
C35 H40 0.930 . S
C36 C35 1.333 . S
C36 N38 1.350 . S
C36 H62 0.931 . S
N37 Co33 2.148 . S
N37 C34 1.301 . S
N37 C35 1.317 . S
N38 C34 1.328 . S
N38 C36 1.350 . S
H39 C34 0.930 . S
H40 C35 0.930 . S
C41 O42 1.224 . S
C41 O60 1.247 1_455 S
O42 C41 1.224 . S
N43 Co33 2.128 . S
N43 C44 1.355 . S
N43 C46 1.311 . S
C44 N43 1.355 . S
C44 C45 1.363 . S
C44 H56 0.929 . S
C45 C44 1.363 . S
C45 N47 1.375 . S
C45 H63 0.931 . S
C46 N43 1.311 . S
C46 N47 1.347 . S
C46 H57 0.929 . S
N47 C45 1.375 . S
N47 C46 1.347 . S
C48 C51 1.365 . S
C48 N53 1.328 . S
C48 H54 0.929 . S
C49 C50 1.362 . S
C49 C52 1.378 . S
C49 H64 0.929 . S
C50 C49 1.362 . S
C50 C51 1.366 . S
C51 C48 1.365 . S
C51 C50 1.366 . S
C51 H65 0.930 . S
C52 C49 1.378 . S
C52 N53 1.315 . S
C52 H55 0.930 . S
N53 Co33 2.194 . S
N53 C48 1.328 . S
N53 C52 1.315 . S
H54 C48 0.929 . S
H55 C52 0.930 . S
H56 C44 0.929 . S
H57 C46 0.929 . S
O58 Co33 2.351 . S
O58 C61 1.244 . S
O59 Co33 2.155 . S
O59 C61 1.240 . S
O60 Co33 2.096 . S
O60 C41 1.247 1_655 S
C61 O58 1.244 . S
C61 O59 1.240 . S
H62 C36 0.931 . S
H63 C45 0.931 . S
H64 C49 0.929 . S
H65 C51 0.930 . S
Co66 N70 2.148 . S
Co66 N76 2.128 . S
Co66 N86 2.194 . S
Co66 O91 2.351 . S
Co66 O92 2.155 . S
Co66 O93 2.096 . S
C67 N70 1.301 . S
C67 N71 1.328 . S
C67 H72 0.930 . S
C68 C69 1.333 . S
C68 N70 1.317 . S
C68 H73 0.930 . S
C69 C68 1.333 . S
C69 N71 1.350 . S
C69 H95 0.931 . S
N70 Co66 2.148 . S
N70 C67 1.301 . S
N70 C68 1.317 . S
N71 C67 1.328 . S
N71 C69 1.350 . S
H72 C67 0.930 . S
H73 C68 0.930 . S
C74 O75 1.224 . S
C74 O93 1.247 1_545 S
O75 C74 1.224 . S
N76 Co66 2.128 . S
N76 C77 1.355 . S
N76 C79 1.311 . S
C77 N76 1.355 . S
C77 C78 1.363 . S
C77 H89 0.929 . S
C78 C77 1.363 . S
C78 N80 1.375 . S
C78 H96 0.931 . S
C79 N76 1.311 . S
C79 N80 1.347 . S
C79 H90 0.929 . S
N80 C78 1.375 . S
N80 C79 1.347 . S
C81 C84 1.365 . S
C81 N86 1.328 . S
C81 H87 0.929 . S
C82 C83 1.362 . S
C82 C85 1.378 . S
C82 H97 0.929 . S
C83 C82 1.362 . S
C83 C84 1.366 . S
C84 C81 1.365 . S
C84 C83 1.366 . S
C84 H98 0.930 . S
C85 C82 1.378 . S
C85 N86 1.315 . S
C85 H88 0.930 . S
N86 Co66 2.194 . S
N86 C81 1.328 . S
N86 C85 1.315 . S
H87 C81 0.929 . S
H88 C85 0.930 . S
H89 C77 0.929 . S
H90 C79 0.929 . S
O91 Co66 2.351 . S
O91 C94 1.244 . S
O92 Co66 2.155 . S
O92 C94 1.240 . S
O93 Co66 2.096 . S
O93 C74 1.247 1_565 S
C94 O91 1.244 . S
C94 O92 1.240 . S
H95 C69 0.931 . S
H96 C78 0.931 . S
H97 C82 0.929 . S
H98 C84 0.930 . S
Co99 N103 2.148 . S
Co99 N109 2.128 . S
Co99 N119 2.194 . S
Co99 O124 2.351 . S
Co99 O125 2.155 . S
Co99 O126 2.096 . S
C100 N103 1.301 . S
C100 N104 1.328 . S
C100 H105 0.930 . S
C101 C102 1.333 . S
C101 N103 1.317 . S
C101 H106 0.930 . S
C102 C101 1.333 . S
C102 N104 1.350 . S
C102 H128 0.931 . S
N103 Co99 2.148 . S
N103 C100 1.301 . S
N103 C101 1.317 . S
N104 C100 1.328 . S
N104 C102 1.350 . S
H105 C100 0.930 . S
H106 C101 0.930 . S
C107 O108 1.224 . S
C107 O126 1.247 . S
O108 C107 1.224 . S
N109 Co99 2.128 . S
N109 C110 1.355 . S
N109 C112 1.311 . S
C110 N109 1.355 . S
C110 C111 1.363 . S
C110 H122 0.929 . S
C111 C110 1.363 . S
C111 N113 1.375 . S
C111 H129 0.931 . S
C112 N109 1.311 . S
C112 N113 1.347 . S
C112 H123 0.929 . S
N113 C111 1.375 . S
N113 C112 1.347 . S
C114 C117 1.365 . S
C114 N119 1.328 . S
C114 H120 0.929 . S
C115 C116 1.362 . S
C115 C118 1.378 . S
C115 H130 0.929 . S
C116 C115 1.362 . S
C116 C117 1.366 . S
C117 C114 1.365 . S
C117 C116 1.366 . S
C117 H131 0.930 . S
C118 C115 1.378 . S
C118 N119 1.315 . S
C118 H121 0.930 . S
N119 Co99 2.194 . S
N119 C114 1.328 . S
N119 C118 1.315 . S
H120 C114 0.929 . S
H121 C118 0.930 . S
H122 C110 0.929 . S
H123 C112 0.929 . S
O124 Co99 2.351 . S
O124 C127 1.244 . S
O125 Co99 2.155 . S
O125 C127 1.240 . S
O126 Co99 2.096 . S
O126 C107 1.247 . S
C127 O124 1.244 . S
C127 O125 1.240 . S
H128 C102 0.931 . S
H129 C111 0.931 . S
H130 C115 0.929 . S
H131 C117 0.930 . S
Co132 N136 2.148 . S
Co132 N142 2.128 . S
Co132 N152 2.194 . S
Co132 O157 2.351 . S
Co132 O158 2.155 . S
Co132 O159 2.096 . S
C133 N136 1.301 . S
C133 N137 1.328 . S
C133 H138 0.930 . S
C134 C135 1.333 . S
C134 N136 1.317 . S
C134 H139 0.930 . S
C135 C134 1.333 . S
C135 N137 1.350 . S
C135 H161 0.931 . S
N136 Co132 2.148 . S
N136 C133 1.301 . S
N136 C134 1.317 . S
N137 C133 1.328 . S
N137 C135 1.350 . S
H138 C133 0.930 . S
H139 C134 0.930 . S
C140 O141 1.224 . S
C140 O159 1.247 1_655 S
O141 C140 1.224 . S
N142 Co132 2.128 . S
N142 C143 1.355 . S
N142 C145 1.311 . S
C143 N142 1.355 . S
C143 C144 1.363 . S
C143 H155 0.929 . S
C144 C143 1.363 . S
C144 N146 1.375 . S
C144 H162 0.931 . S
C145 N142 1.311 . S
C145 N146 1.347 . S
C145 H156 0.929 . S
N146 C144 1.375 . S
N146 C145 1.347 . S
C147 C150 1.365 . S
C147 N152 1.328 . S
C147 H153 0.929 . S
C148 C149 1.362 . S
C148 C151 1.378 . S
C148 H163 0.929 . S
C149 C148 1.362 . S
C149 C150 1.366 . S
C150 C147 1.365 . S
C150 C149 1.366 . S
C150 H164 0.930 . S
C151 C148 1.378 . S
C151 N152 1.315 . S
C151 H154 0.930 . S
N152 Co132 2.194 . S
N152 C147 1.328 . S
N152 C151 1.315 . S
H153 C147 0.929 . S
H154 C151 0.930 . S
H155 C143 0.929 . S
H156 C145 0.929 . S
O157 Co132 2.351 . S
O157 C160 1.244 . S
O158 Co132 2.155 . S
O158 C160 1.240 . S
O159 Co132 2.096 . S
O159 C140 1.247 1_455 S
C160 O157 1.244 . S
C160 O158 1.240 . S
H161 C135 0.931 . S
H162 C144 0.931 . S
H163 C148 0.929 . S
H164 C150 0.930 . S
Co165 N169 2.148 . S
Co165 N175 2.128 . S
Co165 N185 2.194 . S
Co165 O190 2.351 . S
Co165 O191 2.155 . S
Co165 O192 2.096 . S
C166 N169 1.301 . S
C166 N170 1.328 . S
C166 H171 0.930 . S
C167 C168 1.333 . S
C167 N169 1.317 . S
C167 H172 0.930 . S
C168 C167 1.333 . S
C168 N170 1.350 . S
C168 H194 0.931 . S
N169 Co165 2.148 . S
N169 C166 1.301 . S
N169 C167 1.317 . S
N170 C166 1.328 . S
N170 C168 1.350 . S
H171 C166 0.930 . S
H172 C167 0.930 . S
C173 O174 1.224 . S
C173 O192 1.247 1_565 S
O174 C173 1.224 . S
N175 Co165 2.128 . S
N175 C176 1.355 . S
N175 C178 1.311 . S
C176 N175 1.355 . S
C176 C177 1.363 . S
C176 H188 0.929 . S
C177 C176 1.363 . S
C177 N179 1.375 . S
C177 H195 0.931 . S
C178 N175 1.311 . S
C178 N179 1.347 . S
C178 H189 0.929 . S
N179 C177 1.375 . S
N179 C178 1.347 . S
C180 C183 1.365 . S
C180 N185 1.328 . S
C180 H186 0.929 . S
C181 C182 1.362 . S
C181 C184 1.378 . S
C181 H196 0.929 . S
C182 C181 1.362 . S
C182 C183 1.366 . S
C183 C180 1.365 . S
C183 C182 1.366 . S
C183 H197 0.930 . S
C184 C181 1.378 . S
C184 N185 1.315 . S
C184 H187 0.930 . S
N185 Co165 2.194 . S
N185 C180 1.328 . S
N185 C184 1.315 . S
H186 C180 0.929 . S
H187 C184 0.930 . S
H188 C176 0.929 . S
H189 C178 0.929 . S
O190 Co165 2.351 . S
O190 C193 1.244 . S
O191 Co165 2.155 . S
O191 C193 1.240 . S
O192 Co165 2.096 . S
O192 C173 1.247 1_545 S
C193 O190 1.244 . S
C193 O191 1.240 . S
H194 C168 0.931 . S
H195 C177 0.931 . S
H196 C181 0.929 . S
H197 C183 0.930 . S
Co198 N202 2.148 . S
Co198 N208 2.128 . S
Co198 N218 2.194 . S
Co198 O223 2.351 . S
Co198 O224 2.155 . S
Co198 O225 2.096 . S
C199 N202 1.301 . S
C199 N203 1.328 . S
C199 H204 0.930 . S
C200 C201 1.333 . S
C200 N202 1.317 . S
C200 H205 0.930 . S
C201 C200 1.333 . S
C201 N203 1.350 . S
C201 H227 0.931 . S
N202 Co198 2.148 . S
N202 C199 1.301 . S
N202 C200 1.317 . S
N203 C199 1.328 . S
N203 C201 1.350 . S
H204 C199 0.930 . S
H205 C200 0.930 . S
C206 O207 1.224 . S
C206 O225 1.247 . S
O207 C206 1.224 . S
N208 Co198 2.128 . S
N208 C209 1.355 . S
N208 C211 1.311 . S
C209 N208 1.355 . S
C209 C210 1.363 . S
C209 H221 0.929 . S
C210 C209 1.363 . S
C210 N212 1.375 . S
C210 H228 0.931 . S
C211 N208 1.311 . S
C211 N212 1.347 . S
C211 H222 0.929 . S
N212 C210 1.375 . S
N212 C211 1.347 . S
C213 C216 1.365 . S
C213 N218 1.328 . S
C213 H219 0.929 . S
C214 C215 1.362 . S
C214 C217 1.378 . S
C214 H229 0.929 . S
C215 C214 1.362 . S
C215 C216 1.366 . S
C216 C213 1.365 . S
C216 C215 1.366 . S
C216 H230 0.930 . S
C217 C214 1.378 . S
C217 N218 1.315 . S
C217 H220 0.930 . S
N218 Co198 2.194 . S
N218 C213 1.328 . S
N218 C217 1.315 . S
H219 C213 0.929 . S
H220 C217 0.930 . S
H221 C209 0.929 . S
H222 C211 0.929 . S
O223 Co198 2.351 . S
O223 C226 1.244 . S
O224 Co198 2.155 . S
O224 C226 1.240 . S
O225 Co198 2.096 . S
O225 C206 1.247 . S
C226 O223 1.244 . S
C226 O224 1.240 . S
H227 C201 0.931 . S
H228 C210 0.931 . S
H229 C214 0.929 . S
H230 C216 0.930 . S
Co231 N235 2.148 . S
Co231 N241 2.128 . S
Co231 N251 2.194 . S
Co231 O256 2.351 . S
Co231 O257 2.155 . S
Co231 O258 2.096 . S
C232 N235 1.301 . S
C232 N236 1.328 . S
C232 H237 0.930 . S
C233 C234 1.333 . S
C233 N235 1.317 . S
C233 H238 0.930 . S
C234 C233 1.333 . S
C234 N236 1.350 . S
C234 H260 0.931 . S
N235 Co231 2.148 . S
N235 C232 1.301 . S
N235 C233 1.317 . S
N236 C232 1.328 . S
N236 C234 1.350 . S
H237 C232 0.930 . S
H238 C233 0.930 . S
C239 O240 1.224 . S
C239 O258 1.247 1_455 S
O240 C239 1.224 . S
N241 Co231 2.128 . S
N241 C242 1.355 . S
N241 C244 1.311 . S
C242 N241 1.355 . S
C242 C243 1.363 . S
C242 H254 0.929 . S
C243 C242 1.363 . S
C243 N245 1.375 . S
C243 H261 0.931 . S
C244 N241 1.311 . S
C244 N245 1.347 . S
C244 H255 0.929 . S
N245 C243 1.375 . S
N245 C244 1.347 . S
C246 C249 1.365 . S
C246 N251 1.328 . S
C246 H252 0.929 . S
C247 C248 1.362 . S
C247 C250 1.378 . S
C247 H262 0.929 . S
C248 C247 1.362 . S
C248 C249 1.366 . S
C249 C246 1.365 . S
C249 C248 1.366 . S
C249 H263 0.930 . S
C250 C247 1.378 . S
C250 N251 1.315 . S
C250 H253 0.930 . S
N251 Co231 2.194 . S
N251 C246 1.328 . S
N251 C250 1.315 . S
H252 C246 0.929 . S
H253 C250 0.930 . S
H254 C242 0.929 . S
H255 C244 0.929 . S
O256 Co231 2.351 . S
O256 C259 1.244 . S
O257 Co231 2.155 . S
O257 C259 1.240 . S
O258 Co231 2.096 . S
O258 C239 1.247 1_655 S
C259 O256 1.244 . S
C259 O257 1.240 . S
H260 C234 0.931 . S
H261 C243 0.931 . S
H262 C247 0.929 . S
H263 C249 0.930 . S
Co264 N268 2.148 . S
Co264 N274 2.128 . S
Co264 N284 2.194 . S
Co264 O289 2.351 . S
Co264 O290 2.155 . S
Co264 O291 2.096 . S
C265 N268 1.301 . S
C265 N269 1.328 . S
C265 H270 0.930 . S
C266 C267 1.333 . S
C266 N268 1.317 . S
C266 H271 0.930 . S
C267 C266 1.333 . S
C267 N269 1.350 . S
C267 H293 0.931 . S
N268 Co264 2.148 . S
N268 C265 1.301 . S
N268 C266 1.317 . S
N269 C265 1.328 . S
N269 C267 1.350 . S
H270 C265 0.930 . S
H271 C266 0.930 . S
C272 O273 1.224 . S
C272 O291 1.247 1_545 S
O273 C272 1.224 . S
N274 Co264 2.128 . S
N274 C275 1.355 . S
N274 C277 1.311 . S
C275 N274 1.355 . S
C275 C276 1.363 . S
C275 H287 0.929 . S
C276 C275 1.363 . S
C276 N278 1.375 . S
C276 H294 0.931 . S
C277 N274 1.311 . S
C277 N278 1.347 . S
C277 H288 0.929 . S
N278 C276 1.375 . S
N278 C277 1.347 . S
C279 C282 1.365 . S
C279 N284 1.328 . S
C279 H285 0.929 . S
C280 C281 1.362 . S
C280 C283 1.378 . S
C280 H295 0.929 . S
C281 C280 1.362 . S
C281 C282 1.366 . S
C282 C279 1.365 . S
C282 C281 1.366 . S
C282 H296 0.930 . S
C283 C280 1.378 . S
C283 N284 1.315 . S
C283 H286 0.930 . S
N284 Co264 2.194 . S
N284 C279 1.328 . S
N284 C283 1.315 . S
H285 C279 0.929 . S
H286 C283 0.930 . S
H287 C275 0.929 . S
H288 C277 0.929 . S
O289 Co264 2.351 . S
O289 C292 1.244 . S
O290 Co264 2.155 . S
O290 C292 1.240 . S
O291 Co264 2.096 . S
O291 C272 1.247 1_565 S
C292 O289 1.244 . S
C292 O290 1.240 . S
H293 C267 0.931 . S
H294 C276 0.931 . S
H295 C280 0.929 . S
H296 C282 0.930 . S
Co297 N301 2.148 . S
Co297 N307 2.128 . S
Co297 N317 2.194 . S
Co297 O322 2.351 . S
Co297 O323 2.155 . S
Co297 O324 2.096 . S
C298 N301 1.301 . S
C298 N302 1.328 . S
C298 H303 0.930 . S
C299 C300 1.333 . S
C299 N301 1.317 . S
C299 H304 0.930 . S
C300 C299 1.333 . S
C300 N302 1.350 . S
C300 H326 0.931 . S
N301 Co297 2.148 . S
N301 C298 1.301 . S
N301 C299 1.317 . S
N302 C298 1.328 . S
N302 C300 1.350 . S
H303 C298 0.930 . S
H304 C299 0.930 . S
C305 O306 1.224 . S
C305 O324 1.247 . S
O306 C305 1.224 . S
N307 Co297 2.128 . S
N307 C308 1.355 . S
N307 C310 1.311 . S
C308 N307 1.355 . S
C308 C309 1.363 . S
C308 H320 0.929 . S
C309 C308 1.363 . S
C309 N311 1.375 . S
C309 H327 0.931 . S
C310 N307 1.311 . S
C310 N311 1.347 . S
C310 H321 0.929 . S
N311 C309 1.375 . S
N311 C310 1.347 . S
C312 C315 1.365 . S
C312 N317 1.328 . S
C312 H318 0.929 . S
C313 C314 1.362 . S
C313 C316 1.378 . S
C313 H328 0.929 . S
C314 C313 1.362 . S
C314 C315 1.366 . S
C315 C312 1.365 . S
C315 C314 1.366 . S
C315 H329 0.930 . S
C316 C313 1.378 . S
C316 N317 1.315 . S
C316 H319 0.930 . S
N317 Co297 2.194 . S
N317 C312 1.328 . S
N317 C316 1.315 . S
H318 C312 0.929 . S
H319 C316 0.930 . S
H320 C308 0.929 . S
H321 C310 0.929 . S
O322 Co297 2.351 . S
O322 C325 1.244 . S
O323 Co297 2.155 . S
O323 C325 1.240 . S
O324 Co297 2.096 . S
O324 C305 1.247 . S
C325 O322 1.244 . S
C325 O323 1.240 . S
H326 C300 0.931 . S
H327 C309 0.931 . S
H328 C313 0.929 . S
H329 C315 0.930 . S
Co330 N334 2.148 . S
Co330 N340 2.128 . S
Co330 N350 2.194 . S
Co330 O355 2.351 . S
Co330 O356 2.155 . S
Co330 O357 2.096 . S
C331 N334 1.301 . S
C331 N335 1.328 . S
C331 H336 0.930 . S
C332 C333 1.333 . S
C332 N334 1.317 . S
C332 H337 0.930 . S
C333 C332 1.333 . S
C333 N335 1.350 . S
C333 H359 0.931 . S
N334 Co330 2.148 . S
N334 C331 1.301 . S
N334 C332 1.317 . S
N335 C331 1.328 . S
N335 C333 1.350 . S
H336 C331 0.930 . S
H337 C332 0.930 . S
C338 O339 1.224 . S
C338 O357 1.247 1_655 S
O339 C338 1.224 . S
N340 Co330 2.128 . S
N340 C341 1.355 . S
N340 C343 1.311 . S
C341 N340 1.355 . S
C341 C342 1.363 . S
C341 H353 0.929 . S
C342 C341 1.363 . S
C342 N344 1.375 . S
C342 H360 0.931 . S
C343 N340 1.311 . S
C343 N344 1.347 . S
C343 H354 0.929 . S
N344 C342 1.375 . S
N344 C343 1.347 . S
C345 C348 1.365 . S
C345 N350 1.328 . S
C345 H351 0.929 . S
C346 C347 1.362 . S
C346 C349 1.378 . S
C346 H361 0.929 . S
C347 C346 1.362 . S
C347 C348 1.366 . S
C348 C345 1.365 . S
C348 C347 1.366 . S
C348 H362 0.930 . S
C349 C346 1.378 . S
C349 N350 1.315 . S
C349 H352 0.930 . S
N350 Co330 2.194 . S
N350 C345 1.328 . S
N350 C349 1.315 . S
H351 C345 0.929 . S
H352 C349 0.930 . S
H353 C341 0.929 . S
H354 C343 0.929 . S
O355 Co330 2.351 . S
O355 C358 1.244 . S
O356 Co330 2.155 . S
O356 C358 1.240 . S
O357 Co330 2.096 . S
O357 C338 1.247 1_455 S
C358 O355 1.244 . S
C358 O356 1.240 . S
H359 C333 0.931 . S
H360 C342 0.931 . S
H361 C346 0.929 . S
H362 C348 0.930 . S
Co363 N367 2.148 . S
Co363 N373 2.128 . S
Co363 N383 2.194 . S
Co363 O388 2.351 . S
Co363 O389 2.155 . S
Co363 O390 2.096 . S
C364 N367 1.301 . S
C364 N368 1.328 . S
C364 H369 0.930 . S
C365 C366 1.333 . S
C365 N367 1.317 . S
C365 H370 0.930 . S
C366 C365 1.333 . S
C366 N368 1.350 . S
C366 H392 0.931 . S
N367 Co363 2.148 . S
N367 C364 1.301 . S
N367 C365 1.317 . S
N368 C364 1.328 . S
N368 C366 1.350 . S
H369 C364 0.930 . S
H370 C365 0.930 . S
C371 O372 1.224 . S
C371 O390 1.247 1_565 S
O372 C371 1.224 . S
N373 Co363 2.128 . S
N373 C374 1.355 . S
N373 C376 1.311 . S
C374 N373 1.355 . S
C374 C375 1.363 . S
C374 H386 0.929 . S
C375 C374 1.363 . S
C375 N377 1.375 . S
C375 H393 0.931 . S
C376 N373 1.311 . S
C376 N377 1.347 . S
C376 H387 0.929 . S
N377 C375 1.375 . S
N377 C376 1.347 . S
C378 C381 1.365 . S
C378 N383 1.328 . S
C378 H384 0.929 . S
C379 C380 1.362 . S
C379 C382 1.378 . S
C379 H394 0.929 . S
C380 C379 1.362 . S
C380 C381 1.366 . S
C381 C378 1.365 . S
C381 C380 1.366 . S
C381 H395 0.930 . S
C382 C379 1.378 . S
C382 N383 1.315 . S
C382 H385 0.930 . S
N383 Co363 2.194 . S
N383 C378 1.328 . S
N383 C382 1.315 . S
H384 C378 0.929 . S
H385 C382 0.930 . S
H386 C374 0.929 . S
H387 C376 0.929 . S
O388 Co363 2.351 . S
O388 C391 1.244 . S
O389 Co363 2.155 . S
O389 C391 1.240 . S
O390 Co363 2.096 . S
O390 C371 1.247 1_545 S
C391 O388 1.244 . S
C391 O389 1.240 . S
H392 C366 0.931 . S
H393 C375 0.931 . S
H394 C379 0.929 . S
H395 C381 0.930 . S
C396 C397 1.170 . S
C396 C398 1.380 . S
C397 C396 1.170 . S
C398 C396 1.380 . S
C398 C399 1.170 . S
C399 C398 1.170 . S
C400 C401 1.170 . S
C400 C402 1.380 1_655 S
C401 C400 1.170 . S
C402 C400 1.380 1_455 S
C402 C403 1.170 . S
C403 C402 1.170 . S
C404 C405 1.170 . S
C404 C406 1.380 1_566 S
C405 C404 1.170 . S
C406 C404 1.380 1_544 S
C406 C407 1.170 . S
C407 C406 1.170 . S
C408 C409 1.170 . S
C408 C410 1.380 . S
C409 C408 1.170 . S
C410 C408 1.380 . S
C410 C411 1.170 . S
C411 C410 1.170 . S
C412 C413 1.170 . S
C412 C414 1.380 1_455 S
C413 C412 1.170 . S
C414 C412 1.380 1_655 S
C414 C415 1.170 . S
C415 C414 1.170 . S
C416 C417 1.170 . S
C416 C418 1.380 1_546 S
C417 C416 1.170 . S
C418 C416 1.380 1_564 S
C418 C419 1.170 . S
C419 C418 1.170 . S
C420 C421 1.170 . S
C420 C422 1.380 1_556 S
C421 C420 1.170 . S
C422 C420 1.380 1_554 S
C422 C423 1.170 . S
C423 C422 1.170 . S
C424 C425 1.170 . S
C424 C426 1.380 . S
C425 C424 1.170 . S
C426 C424 1.380 . S
C426 C427 1.170 . S
C427 C426 1.170 . S
C428 C429 1.170 . S
C428 C430 1.380 . S
C429 C428 1.170 . S
C430 C428 1.380 . S
C430 C431 1.170 . S
C431 C430 1.170 . S
C432 C433 1.170 . S
C432 C434 1.380 1_556 S
C433 C432 1.170 . S
C434 C432 1.380 1_554 S
C434 C435 1.170 . S
C435 C434 1.170 . S
C436 C437 1.170 . S
C436 C438 1.380 . S
C437 C436 1.170 . S
C438 C436 1.380 . S
C438 C439 1.170 . S
C439 C438 1.170 . S
C440 C441 1.170 . S
C440 C442 1.380 . S
C441 C440 1.170 . S
C442 C440 1.380 . S
C442 C443 1.170 . S
C443 C442 1.170 . S
C444 C445 1.170 . S
C444 C446 1.380 . S
C445 C444 1.170 . S
C446 C444 1.380 . S
C446 C447 1.170 . S
C447 C446 1.170 . S
C448 C449 1.170 . S
C448 C450 1.380 1_655 S
C449 C448 1.170 . S
C450 C448 1.380 1_455 S
C450 C451 1.170 . S
C451 C450 1.170 . S
C452 C453 1.170 . S
C452 C454 1.380 1_545 S
C453 C452 1.170 . S
C454 C452 1.380 1_565 S
C454 C455 1.170 . S
C455 C454 1.170 . S
C456 C457 1.170 . S
C456 C458 1.380 . S
C457 C456 1.170 . S
C458 C456 1.380 . S
C458 C459 1.170 . S
C459 C458 1.170 . S
C460 C461 1.170 . S
C460 C462 1.380 1_655 S
C461 C460 1.170 . S
C462 C460 1.380 1_455 S
C462 C463 1.170 . S
C463 C462 1.170 . S
C464 C465 1.170 . S
C464 C466 1.380 1_545 S
C465 C464 1.170 . S
C466 C464 1.380 1_565 S
C466 C467 1.170 . S
C467 C466 1.170 . S
C468 C469 1.170 . S
C468 C470 1.380 1_455 S
C469 C468 1.170 . S
C470 C468 1.380 1_655 S
C470 C471 1.170 . S
C471 C470 1.170 . S
C472 C473 1.170 . S
C472 C474 1.380 1_565 S
C473 C472 1.170 . S
C474 C472 1.380 1_545 S
C474 C475 1.170 . S
C475 C474 1.170 . S
C476 C477 1.170 . S
C476 C478 1.380 . S
C477 C476 1.170 . S
C478 C476 1.380 . S
C478 C479 1.170 . S
C479 C478 1.170 . S
C480 C481 1.170 . S
C480 C482 1.380 1_655 S
C481 C480 1.170 . S
C482 C480 1.380 1_455 S
C482 C483 1.170 . S
C483 C482 1.170 . S
C484 C485 1.170 . S
C484 C486 1.380 1_565 S
C485 C484 1.170 . S
C486 C484 1.380 1_545 S
C486 C487 1.170 . S
C487 C486 1.170 . S
C488 C489 1.170 . S
C488 C490 1.380 . S
C489 C488 1.170 . S
C490 C488 1.380 . S
C490 C491 1.170 . S
C491 C490 1.170 . S
C492 C493 1.170 . S
C492 C494 1.380 . S
C493 C492 1.170 . S
C494 C492 1.380 . S
C494 C495 1.170 . S
C495 C494 1.170 . S
C496 C497 1.170 . S
C496 C498 1.380 . S
C497 C496 1.170 . S
C498 C496 1.380 . S
C498 C499 1.170 . S
C499 C498 1.170 . S
C500 C501 1.170 . S
C500 C502 1.380 . S
C501 C500 1.170 . S
C502 C500 1.380 . S
C502 C503 1.170 . S
C503 C502 1.170 . S
C504 C505 1.170 . S
C504 C506 1.380 . S
C505 C504 1.170 . S
C506 C504 1.380 . S
C506 C507 1.170 . S
C507 C506 1.170 . S
C508 C509 1.170 . S
C508 C510 1.380 . S
C509 C508 1.170 . S
C510 C508 1.380 . S
C510 C511 1.170 . S
C511 C510 1.170 . S
C512 C513 1.170 . S
C512 C514 1.380 . S
C513 C512 1.170 . S
C514 C512 1.380 . S
C514 C515 1.170 . S
C515 C514 1.170 . S
C397 N311 1.536 . S
C399 N14 1.516 . S
C401 N47 1.530 . S
C403 N344 1.513 . S
C405 N80 1.540 . S
C407 N377 1.528 . S
C409 N113 1.529 . S
C411 N212 1.540 . S
C413 N146 1.532 . S
C415 N245 1.513 . S
C417 N179 1.540 . S
C419 N278 1.525 . S
C421 N335 1.414 . S
C423 N5 1.404 . S
C425 N368 1.397 . S
C427 N38 1.383 . S
C429 N71 1.396 . S
C431 N203 1.383 . S
C433 N236 1.414 . S
C435 N104 1.406 . S
C437 N137 1.385 . S
C439 N269 1.385 . S
C441 N170 1.414 . S
C443 N302 1.408 . S
C445 C116 1.853 . S
C447 C17 1.808 . S
C449 C50 1.831 . S
C451 C149 1.841 . S
C453 C182 1.812 . S
C455 C83 1.854 . S
C457 C314 1.850 . S
C459 C215 1.809 . S
C461 C248 1.811 . S
C463 C347 1.845 . S
C465 C380 1.808 . S
C467 C281 1.850 . S
C469 C28 1.343 . S
C471 C391 1.343 . S
C473 C226 1.325 . S
C475 C61 1.339 . S
C477 C94 1.321 . S
C479 C259 1.336 . S
C481 C127 1.309 . S
C483 C292 1.302 . S
C485 C160 1.315 . S
C487 C325 1.331 . S
C489 C358 1.304 . S
C491 C193 1.315 . S
C493 C8 0.878 . S
C495 C272 0.881 . S
C497 C305 0.878 . S
C499 C41 0.877 . S
C501 C74 0.878 . S
C503 C338 0.881 . S
C505 C371 0.878 . S
C507 C107 0.881 . S
C509 C206 0.877 . S
C511 C140 0.878 . S
C513 C173 0.876 . S
C515 C239 0.880 . S
