# Generated by pormake.
# Topology umf, (4)-cn, num edge types: 1
# Building blocks:
#     Node 0, Type 0, BuildingBlock: KOZSID_clean_sbu_0, # of connection points: 4
#     Node 1, Type 0, BuildingBlock: KOZSID_clean_sbu_0, # of connection points: 4
#     Node 2, Type 0, BuildingBlock: KOZSID_clean_sbu_0, # of connection points: 4
#     Node 3, Type 0, BuildingBlock: KOZSID_clean_sbu_0, # of connection points: 4
#     Node 4, Type 0, BuildingBlock: KOZSID_clean_sbu_0, # of connection points: 4
#     Node 5, Type 0, BuildingBlock: KOZSID_clean_sbu_0, # of connection points: 4
#     Node 6, Type 0, BuildingBlock: KOZSID_clean_sbu_0, # of connection points: 4
#     Node 7, Type 0, BuildingBlock: KOZSID_clean_sbu_0, # of connection points: 4
#     Edge 8, Type (0, 0), BuildingBlock: ZUJKAS_clean_linker_0, # of connection points: 2
#     Edge 9, Type (0, 0), BuildingBlock: ZUJKAS_clean_linker_0, # of connection points: 2
#     Edge 10, Type (0, 0), BuildingBlock: ZUJKAS_clean_linker_0, # of connection points: 2
#     Edge 11, Type (0, 0), BuildingBlock: ZUJKAS_clean_linker_0, # of connection points: 2
#     Edge 12, Type (0, 0), BuildingBlock: ZUJKAS_clean_linker_0, # of connection points: 2
#     Edge 13, Type (0, 0), BuildingBlock: ZUJKAS_clean_linker_0, # of connection points: 2
#     Edge 14, Type (0, 0), BuildingBlock: ZUJKAS_clean_linker_0, # of connection points: 2
#     Edge 15, Type (0, 0), BuildingBlock: ZUJKAS_clean_linker_0, # of connection points: 2
#     Edge 16, Type (0, 0), BuildingBlock: ZUJKAS_clean_linker_0, # of connection points: 2
#     Edge 17, Type (0, 0), BuildingBlock: ZUJKAS_clean_linker_0, # of connection points: 2
#     Edge 18, Type (0, 0), BuildingBlock: ZUJKAS_clean_linker_0, # of connection points: 2
#     Edge 19, Type (0, 0), BuildingBlock: ZUJKAS_clean_linker_0, # of connection points: 2
#     Edge 20, Type (0, 0), BuildingBlock: ZUJKAS_clean_linker_0, # of connection points: 2
#     Edge 21, Type (0, 0), BuildingBlock: ZUJKAS_clean_linker_0, # of connection points: 2
#     Edge 22, Type (0, 0), BuildingBlock: ZUJKAS_clean_linker_0, # of connection points: 2
#     Edge 23, Type (0, 0), BuildingBlock: ZUJKAS_clean_linker_0, # of connection points: 2
# Relax obj value: 0.074
# Max RMSD: 0.186
# Mean RMSD: 0.186
data_MOF--net-umf--node1-KOZSID_clean_sbu_0--edge1-ZUJKAS_clean_linker_0
_symmetry_space_group_name_H-M    P1
_symmetry_Int_Tables_number       1
_symmetry_cell_setting            triclinic
loop_
_symmetry_equiv_pos_as_xyz
'x, y, z'
_cell_length_a     46.896069
_cell_length_b     46.898654
_cell_length_c     75.281435
_cell_angle_alpha  90.016116
_cell_angle_beta   89.996741
_cell_angle_gamma 89.995984
loop_
_atom_site_label
_atom_site_type_symbol
_atom_site_fract_x
_atom_site_fract_y
_atom_site_fract_z
_atom_type_partial_charge
C0 C 0.10297 0.24155 0.17347 0.0
C1 C 0.13233 0.2419 0.17586 0.0
C2 C 0.14383 0.25383 0.16085 0.0
C3 C 0.12101 0.25993 0.15008 0.0
N4 N 0.09591 0.25261 0.15741 0.0
Co5 Co 0.05797 0.25654 0.14606 0.0
N6 N 0.07502 0.25854 0.12198 0.0
C7 C 0.10239 0.26485 0.11832 0.0
C8 C 0.10814 0.26506 0.10044 0.0
C9 C 0.08272 0.25874 0.09236 0.0
C10 C 0.06278 0.25502 0.10581 0.0
N11 N 0.02008 0.26089 0.13472 0.0
C12 C 0.01229 0.25798 0.11742 0.0
C13 C 0.98352 0.264 0.11532 0.0
C14 C 0.97322 0.27118 0.13185 0.0
C15 C 0.99616 0.26917 0.14315 0.0
N16 N 0.04148 0.25394 0.17025 0.0
C17 C 0.01529 0.2627 0.175 0.0
C18 C 0.00953 0.25706 0.19258 0.0
C19 C 0.03364 0.24398 0.19917 0.0
C20 C 0.05282 0.24225 0.18521 0.0
N21 N 0.05995 0.29868 0.14812 0.0
C22 C 0.05166 0.35828 0.15175 0.0
C23 C 0.06049 0.34145 0.16623 0.0
C24 C 0.06491 0.31186 0.16408 0.0
C25 C 0.04846 0.34462 0.13531 0.0
C26 C 0.05254 0.31513 0.1338 0.0
N27 N 0.05458 0.21496 0.14391 0.0
C28 C 0.02447 0.17355 0.14622 0.0
C29 C 0.04604 0.15606 0.13949 0.0
C30 C 0.07251 0.1686 0.13549 0.0
C31 C 0.0763 0.1982 0.1377 0.0
C32 C 0.02915 0.20262 0.14836 0.0
H33 H 0.09655 0.2076 0.1342 0.0
H34 H 0.01182 0.21517 0.15348 0.0
H35 H 0.0713 0.29949 0.1755 0.0
H36 H 0.04826 0.30557 0.12109 0.0
C37 C 0.12268 0.26623 0.13193 0.0
C38 C 0.08228 0.23135 0.18673 0.0
C39 C 0.03202 0.25151 0.10267 0.0
C40 C 0.99533 0.27042 0.16186 0.0
H41 H 0.14435 0.23397 0.18708 0.0
H42 H 0.16625 0.25607 0.15773 0.0
H43 H 0.1285 0.26862 0.09405 0.0
H44 H 0.07918 0.25759 0.07817 0.0
H45 H 0.97134 0.26348 0.10311 0.0
H46 H 0.95141 0.27637 0.13526 0.0
H47 H 0.9897 0.2607 0.19958 0.0
H48 H 0.03677 0.23654 0.21264 0.0
H49 H 0.06372 0.351 0.17917 0.0
H50 H 0.04149 0.3564 0.12373 0.0
H51 H 1.00391 0.1648 0.14989 0.0
H52 H 0.08985 0.15581 0.1303 0.0
C53 C 0.77253 0.10389 0.67356 0.0
C54 C 0.77209 0.13322 0.67607 0.0
C55 C 0.76041 0.14485 0.66102 0.0
C56 C 0.75454 0.12213 0.65011 0.0
N57 N 0.76176 0.09697 0.6574 0.0
Co58 Co 0.7582 0.05914 0.64585 0.0
N59 N 0.75678 0.07643 0.62181 0.0
C60 C 0.75047 0.10383 0.61823 0.0
C61 C 0.75051 0.10976 0.60038 0.0
C62 C 0.75698 0.08444 0.59222 0.0
C63 C 0.76056 0.06435 0.60561 0.0
N64 N 0.75424 0.02134 0.63431 0.0
C65 C 0.75742 0.01373 0.617 0.0
C66 C 0.75155 0.98495 0.61476 0.0
C67 C 0.74411 0.97448 0.6312 0.0
C68 C 0.74584 0.99733 0.64259 0.0
N69 N 0.76023 0.04245 0.67 0.0
C70 C 0.75144 0.0162 0.67458 0.0
C71 C 0.75676 0.01027 0.69218 0.0
C72 C 0.76969 0.03432 0.69896 0.0
C73 C 0.77165 0.05364 0.68509 0.0
N74 N 0.71601 0.06096 0.64751 0.0
C75 C 0.65656 0.05084 0.65078 0.0
C76 C 0.67292 0.06043 0.66531 0.0
C77 C 0.70242 0.0656 0.66337 0.0
C78 C 0.67058 0.04862 0.63435 0.0
C79 C 0.69994 0.05354 0.63304 0.0
N80 N 0.79985 0.0559 0.64417 0.0
C81 C 0.84148 0.02655 0.6482 0.0
C82 C 0.85933 0.04857 0.64246 0.0
C83 C 0.84661 0.07447 0.63731 0.0
C84 C 0.81678 0.07774 0.63834 0.0
C85 C 0.81214 0.03061 0.64896 0.0
H86 H 0.80739 0.09782 0.63447 0.0
H87 H 0.7994 0.013 0.65347 0.0
H88 H 0.71448 0.07206 0.67491 0.0
H89 H 0.70976 0.0499 0.62032 0.0
C90 C 0.74869 0.12396 0.63192 0.0
C91 C 0.78258 0.08307 0.68678 0.0
C92 C 0.764 0.03361 0.60234 0.0
C93 C 0.74412 0.99633 0.66129 0.0
H94 H 0.77981 0.14513 0.68738 0.0
H95 H 0.75822 0.1673 0.65797 0.0
H96 H 0.74694 0.13017 0.59405 0.0
H97 H 0.75823 0.08104 0.57803 0.0
H98 H 0.75234 0.97285 0.60253 0.0
H99 H 0.7389 0.95264 0.6345 0.0
H100 H 0.75306 0.99035 0.69906 0.0
H101 H 0.77692 0.03731 0.71248 0.0
H102 H 0.66338 0.0628 0.67832 0.0
H103 H 0.65913 0.04246 0.62247 0.0
H104 H 0.85004 1.00595 0.65191 0.0
H105 H 0.85957 0.09213 0.63278 0.0
C106 C 0.91113 0.77303 0.1734 0.0
C107 C 0.8818 0.77235 0.17594 0.0
C108 C 0.87025 0.7603 0.16098 0.0
C109 C 0.893 0.75446 0.15008 0.0
N110 N 0.91812 0.76205 0.15731 0.0
Co111 Co 0.95595 0.75863 0.14575 0.0
N112 N 0.93862 0.75659 0.12175 0.0
C113 C 0.91126 0.75002 0.11821 0.0
C114 C 0.90529 0.74987 0.10037 0.0
C115 C 0.93054 0.7565 0.09217 0.0
C116 C 0.95062 0.76033 0.10553 0.0
N117 N 0.99375 0.75476 0.13423 0.0
C118 C 1.00129 0.75776 0.1169 0.0
C119 C 0.03008 0.75201 0.11464 0.0
C120 C 0.04067 0.74491 0.13111 0.0
C121 C 0.01785 0.74669 0.14253 0.0
N122 N 0.9727 0.76133 0.16986 0.0
C123 C 0.99905 0.75287 0.17448 0.0
C124 C 1.00497 0.7586 0.19203 0.0
C125 C 0.98081 0.77143 0.19874 0.0
C126 C 0.96143 0.77293 0.18488 0.0
N127 N 0.95452 0.71645 0.14772 0.0
C128 C 0.96484 0.65704 0.15117 0.0
C129 C 0.95538 0.67354 0.16569 0.0
C130 C 0.95012 0.70303 0.16365 0.0
C131 C 0.96689 0.67091 0.1347 0.0
C132 C 0.96188 0.70024 0.13329 0.0
N133 N 0.95883 0.80026 0.14369 0.0
C134 C 0.98858 0.84197 0.14574 0.0
C135 C 0.96665 0.85923 0.13926 0.0
C136 C 0.9402 0.84645 0.13552 0.0
C137 C 0.93678 0.81681 0.13772 0.0
C138 C 0.98424 0.81285 0.14792 0.0
H139 H 0.91655 0.80721 0.13439 0.0
H140 H 1.00181 0.80048 0.15287 0.0
H141 H 0.94373 0.71519 0.17517 0.0
H142 H 0.9654 0.70991 0.12052 0.0
C143 C 0.89118 0.74829 0.13193 0.0
C144 C 0.93188 0.78354 0.18653 0.0
C145 C 0.98132 0.76406 0.10225 0.0
C146 C 0.01893 0.74539 0.16124 0.0
H147 H 0.86984 0.78016 0.18721 0.0
H148 H 0.84782 0.75784 0.15796 0.0
H149 H 0.88488 0.74612 0.09407 0.0
H150 H 0.93389 0.75775 0.07797 0.0
H151 H 0.0421 0.75267 0.10238 0.0
H152 H 0.06257 0.73993 0.13442 0.0
H153 H 0.02494 0.75521 0.19893 0.0
H154 H 0.97778 0.77888 0.21222 0.0
H155 H 0.95315 0.66412 0.17874 0.0
H156 H 0.97296 0.65936 0.12284 0.0
H157 H 0.00915 0.85095 0.14916 0.0
H158 H 0.92261 0.85908 0.13054 0.0
C159 C 0.24154 0.91151 0.6735 0.0
C160 C 0.24209 0.88215 0.6759 0.0
C161 C 0.25422 0.87074 0.66092 0.0
C162 C 0.26023 0.89359 0.65016 0.0
N163 N 0.25265 0.91864 0.65747 0.0
Co164 Co 0.25635 0.95659 0.64611 0.0
N165 N 0.25856 0.93954 0.62204 0.0
C166 C 0.26522 0.91223 0.61841 0.0
C167 C 0.26567 0.90649 0.60054 0.0
C168 C 0.25914 0.93184 0.59243 0.0
C169 C 0.25501 0.95173 0.60587 0.0
N170 N 0.26046 0.9945 0.63477 0.0
C171 C 0.25746 1.00226 0.61748 0.0
C172 C 0.26307 0.03112 0.61541 0.0
C173 C 0.27017 0.04148 0.63193 0.0
C174 C 0.26848 0.0185 0.64321 0.0
N175 N 0.25352 0.97307 0.67029 0.0
C176 C 0.26206 0.99933 0.67506 0.0
C177 C 0.25628 1.00508 0.69263 0.0
C178 C 0.24333 0.98088 0.69919 0.0
C179 C 0.24183 0.96167 0.68523 0.0
N180 N 0.29849 0.9549 0.64823 0.0
C181 C 0.35804 0.96336 0.65185 0.0
C182 C 0.34124 0.95452 0.66634 0.0
C183 C 0.31166 0.95002 0.66419 0.0
C184 C 0.34439 0.96654 0.63542 0.0
C185 C 0.31492 0.96239 0.63391 0.0
N186 N 0.21475 0.95967 0.6439 0.0
C187 C 0.17312 0.9895 0.6461 0.0
C188 C 0.15583 0.96778 0.63937 0.0
C189 C 0.16857 0.94138 0.63542 0.0
C190 C 0.19818 0.93781 0.63768 0.0
C191 C 0.20222 0.98502 0.6483 0.0
H192 H 0.20775 0.91762 0.63422 0.0
H193 H 0.21461 1.00245 0.65343 0.0
H194 H 0.2993 0.94359 0.67561 0.0
H195 H 0.30536 0.96664 0.6212 0.0
C196 C 0.26669 0.89197 0.63203 0.0
C197 C 0.23112 0.93215 0.68674 0.0
C198 C 0.25116 0.98245 0.60273 0.0
C199 C 0.26966 0.01935 0.66193 0.0
H200 H 0.23417 0.87008 0.68709 0.0
H201 H 0.25667 0.84833 0.65781 0.0
H202 H 0.26956 0.88618 0.59415 0.0
H203 H 0.25816 0.93537 0.57824 0.0
H204 H 0.26228 0.04336 0.60323 0.0
H205 H 0.27503 0.06336 0.63537 0.0
H206 H 0.25971 0.02494 0.69962 0.0
H207 H 0.23582 0.97772 0.71264 0.0
H208 H 0.3508 0.95134 0.67928 0.0
H209 H 0.35616 0.97353 0.62383 0.0
H210 H 0.16421 0.01 0.64974 0.0
H211 H 0.15592 0.92393 0.63025 0.0
C212 C 0.10164 0.77365 0.84134 0.0
C213 C 0.13082 0.77291 0.83835 0.0
C214 C 0.14286 0.76065 0.85312 0.0
C215 C 0.12044 0.7546 0.86426 0.0
N216 N 0.09513 0.76222 0.85735 0.0
Co217 Co 0.05755 0.75807 0.86906 0.0
N218 N 0.07528 0.75583 0.89291 0.0
C219 C 0.10276 0.74945 0.89623 0.0
C220 C 0.10899 0.74909 0.91405 0.0
C221 C 0.0838 0.75536 0.92244 0.0
C222 C 0.06348 0.75919 0.90922 0.0
N223 N 0.01998 0.75355 0.88075 0.0
C224 C 0.01267 0.75634 0.89813 0.0
C225 C 0.98397 0.75024 0.90053 0.0
C226 C 0.97323 0.74318 0.88409 0.0
C227 C 0.99585 0.74531 0.87254 0.0
N228 N 0.04041 0.76087 0.84505 0.0
C229 C 0.01414 0.7521 0.84051 0.0
C230 C 0.00793 0.758 0.82302 0.0
C231 C 0.03184 0.77128 0.81628 0.0
C232 C 0.05135 0.7728 0.83006 0.0
N233 N 0.05955 0.71597 0.86679 0.0
C234 C 0.05135 0.6564 0.86292 0.0
C235 C 0.05996 0.67344 0.84849 0.0
C236 C 0.06431 0.703 0.85075 0.0
C237 C 0.04834 0.66985 0.87945 0.0
C238 C 0.0524 0.69932 0.88108 0.0
N239 N 0.05417 0.79962 0.87139 0.0
C240 C 0.02404 0.84108 0.86948 0.0
C241 C 0.04593 0.85855 0.87582 0.0
C242 C 0.07251 0.84597 0.87947 0.0
C243 C 0.07614 0.81636 0.87727 0.0
C244 C 0.02859 0.81198 0.86731 0.0
H245 H 0.0965 0.80693 0.88049 0.0
H246 H 0.01107 0.79945 0.86244 0.0
H247 H 0.0705 0.71554 0.83935 0.0
H248 H 0.04833 0.70872 0.89387 0.0
C249 C 0.12268 0.74809 0.88237 0.0
C250 C 0.08058 0.78429 0.82854 0.0
C251 C 0.03281 0.76271 0.91268 0.0
C252 C 0.99452 0.74423 0.85383 0.0
H253 H 0.14221 0.78068 0.82682 0.0
H254 H 0.16538 0.75807 0.85583 0.0
H255 H 0.12953 0.74544 0.9202 0.0
H256 H 0.08065 0.75641 0.93666 0.0
H257 H 0.97214 0.75064 0.91286 0.0
H258 H 0.95134 0.73799 0.88089 0.0
H259 H 0.98792 0.75449 0.8162 0.0
H260 H 0.03455 0.7791 0.80286 0.0
H261 H 0.06308 0.66407 0.83549 0.0
H262 H 0.04155 0.65791 0.89101 0.0
H263 H 1.00337 0.84986 0.86611 0.0
H264 H 0.09007 0.85875 0.88435 0.0
C265 C 0.24146 0.1027 0.3412 0.0
C266 C 0.24255 0.13179 0.33793 0.0
C267 C 0.25483 0.14407 0.35262 0.0
C268 C 0.26053 0.12187 0.364 0.0
N269 N 0.25271 0.09647 0.35731 0.0
Co270 Co 0.25621 0.05916 0.36942 0.0
N271 N 0.25841 0.07749 0.39312 0.0
C272 C 0.26485 0.10503 0.39619 0.0
C273 C 0.26489 0.11178 0.41393 0.0
C274 C 0.25838 0.08686 0.42255 0.0
C275 C 0.25481 0.06615 0.40953 0.0
N276 N 0.26019 0.02184 0.3815 0.0
C277 C 0.25732 0.015 0.39894 0.0
C278 C 0.26322 0.98634 0.40163 0.0
C279 C 0.27019 0.97509 0.38531 0.0
C280 C 0.26824 0.99742 0.37354 0.0
N281 N 0.25333 0.04143 0.34559 0.0
C282 C 0.26173 0.01492 0.34132 0.0
C283 C 0.25575 0.00832 0.32389 0.0
C284 C 0.24279 0.03221 0.3169 0.0
C285 C 0.24152 0.05211 0.33048 0.0
N286 N 0.29839 0.0605 0.36732 0.0
C287 C 0.35773 0.04979 0.36387 0.0
C288 C 0.34115 0.05859 0.34923 0.0
C289 C 0.3117 0.06408 0.35127 0.0
C290 C 0.344 0.04868 0.38043 0.0
C291 C 0.3147 0.05383 0.38183 0.0
N292 N 0.21459 0.05638 0.37163 0.0
C293 C 0.17284 0.02658 0.3703 0.0
C294 C 0.15559 0.04906 0.37598 0.0
C295 C 0.16836 0.07572 0.37902 0.0
C296 C 0.19804 0.07887 0.37693 0.0
C297 C 0.20199 0.03071 0.36807 0.0
H298 H 0.20766 0.0993 0.37975 0.0
H299 H 0.21436 0.01281 0.36359 0.0
H300 H 0.29947 0.06993 0.33967 0.0
H301 H 0.30512 0.05097 0.39469 0.0
C302 C 0.26667 0.12454 0.38213 0.0
C303 C 0.23045 0.08145 0.32865 0.0
C304 C 0.25129 0.03556 0.41331 0.0
C305 C 0.26936 0.99557 0.35484 0.0
H306 H 0.23492 0.14297 0.32629 0.0
H307 H 0.25757 0.16663 0.35513 0.0
H308 H 0.26849 0.13247 0.41989 0.0
H309 H 0.25699 0.08416 0.4368 0.0
H310 H 0.2628 0.97486 0.4141 0.0
H311 H 0.27524 0.95308 0.38234 0.0
H312 H 0.259 0.98807 0.31729 0.0
H313 H 0.23501 0.03468 0.30345 0.0
H314 H 0.35046 0.06009 0.33611 0.0
H315 H 0.35562 0.04317 0.39236 0.0
H316 H 0.16381 1.0058 0.36748 0.0
H317 H 0.15566 0.0937 0.38338 0.0
C318 C 0.91196 0.24097 0.84148 0.0
C319 C 0.88282 0.24184 0.83839 0.0
C320 C 0.87068 0.25398 0.85317 0.0
C321 C 0.89302 0.25986 0.86441 0.0
N322 N 0.91838 0.25226 0.85756 0.0
Co323 Co 0.95586 0.25616 0.8694 0.0
N324 N 0.93793 0.25812 0.89322 0.0
C325 C 0.91042 0.26448 0.89648 0.0
C326 C 0.90403 0.26463 0.91427 0.0
C327 C 0.92914 0.25825 0.92271 0.0
C328 C 0.94958 0.25457 0.90955 0.0
N329 N 0.99334 0.26046 0.88124 0.0
C330 C 1.0005 0.25759 0.89864 0.0
C331 C 0.02918 0.26364 0.90114 0.0
C332 C 0.04008 0.27079 0.88475 0.0
C333 C 0.01755 0.26873 0.87313 0.0
N334 N 0.97318 0.25358 0.84543 0.0
C335 C 0.99952 0.26231 0.84101 0.0
C336 C 1.00586 0.25653 0.82352 0.0
C337 C 0.98197 0.24336 0.81665 0.0
C338 C 0.96233 0.24179 0.83036 0.0
N339 N 0.95405 0.29832 0.86736 0.0
C340 C 0.96419 0.35775 0.86384 0.0
C341 C 0.95518 0.3411 0.84928 0.0
C342 C 0.94997 0.31161 0.85135 0.0
C343 C 0.96581 0.34402 0.88038 0.0
C344 C 0.96092 0.31467 0.88182 0.0
N345 N 0.95912 0.21457 0.87154 0.0
C346 C 0.98922 0.17309 0.86962 0.0
C347 C 0.96732 0.15564 0.87593 0.0
C348 C 0.94072 0.16822 0.87954 0.0
C349 C 0.93711 0.19784 0.87736 0.0
C350 C 0.98471 0.2022 0.86748 0.0
H351 H 0.91674 0.20727 0.88056 0.0
H352 H 1.00226 0.21474 0.86266 0.0
H353 H 0.94395 0.29934 0.8398 0.0
H354 H 0.96415 0.3051 0.89465 0.0
C355 C 0.89064 0.2661 0.88255 0.0
C356 C 0.93311 0.23033 0.82872 0.0
C357 C 0.98024 0.25115 0.91311 0.0
C358 C 0.01904 0.26999 0.85442 0.0
H359 H 0.87153 0.2342 0.82679 0.0
H360 H 0.84814 0.25658 0.85582 0.0
H361 H 0.88345 0.26825 0.92038 0.0
H362 H 0.93217 0.25708 0.93695 0.0
H363 H 0.04091 0.26317 0.91351 0.0
H364 H 0.062 0.27599 0.88164 0.0
H365 H 0.02595 0.26002 0.81678 0.0
H366 H 0.97937 0.23563 0.8032 0.0
H367 H 0.95329 0.35039 0.83618 0.0
H368 H 0.9715 0.35568 0.89227 0.0
H369 H 0.00991 0.1643 0.86627 0.0
H370 H 0.92314 0.15546 0.8844 0.0
C371 C 0.77363 0.91318 0.34108 0.0
C372 C 0.77304 0.884 0.33806 0.0
C373 C 0.76107 0.87185 0.35289 0.0
C374 C 0.75503 0.89421 0.36409 0.0
N375 N 0.76237 0.91959 0.35716 0.0
Co376 Co 0.75823 0.95711 0.36895 0.0
N377 N 0.75641 0.93931 0.39281 0.0
C378 C 0.75037 0.91174 0.39612 0.0
C379 C 0.75033 0.90541 0.41391 0.0
C380 C 0.75642 0.93063 0.42232 0.0
C381 C 0.75977 0.95107 0.40913 0.0
N382 N 0.75374 0.99464 0.38073 0.0
C383 C 0.75655 1.00192 0.39811 0.0
C384 C 0.75022 0.03055 0.40057 0.0
C385 C 0.74301 0.04131 0.38416 0.0
C386 C 0.74526 0.01874 0.37258 0.0
N387 N 0.7606 0.97432 0.34494 0.0
C388 C 0.75167 1.00057 0.34048 0.0
C389 C 0.75734 1.00686 0.32297 0.0
C390 C 0.77066 0.98303 0.31614 0.0
C391 C 0.77243 0.96349 0.32988 0.0
N392 N 0.71611 0.95494 0.36691 0.0
C393 C 0.65653 0.96321 0.36317 0.0
C394 C 0.67348 0.95447 0.34872 0.0
C395 C 0.70304 0.9501 0.35091 0.0
C396 C 0.67007 0.96623 0.37967 0.0
C397 C 0.69956 0.96212 0.38124 0.0
N398 N 0.79982 0.96064 0.37096 0.0
C399 C 0.84135 0.99027 0.36738 0.0
C400 C 0.8593 0.96806 0.37275 0.0
C401 C 0.84665 0.94195 0.37752 0.0
C402 C 0.81682 0.93865 0.37649 0.0
C403 C 0.81202 0.98614 0.36655 0.0
H404 H 0.80751 0.91839 0.38006 0.0
H405 H 0.79922 1.00384 0.36224 0.0
H406 H 0.7155 0.94386 0.33949 0.0
H407 H 0.70905 0.96618 0.39401 0.0
C408 C 0.74891 0.89187 0.38223 0.0
C409 C 0.78406 0.93433 0.32827 0.0
C410 C 0.76289 0.98178 0.41266 0.0
C411 C 0.7439 0.02011 0.35387 0.0
H412 H 0.78076 0.87269 0.32649 0.0
H413 H 0.75871 0.84931 0.35559 0.0
H414 H 0.747 0.88481 0.42005 0.0
H415 H 0.75768 0.93369 0.43655 0.0
H416 H 0.75049 0.04231 0.41294 0.0
H417 H 0.73757 0.06315 0.38101 0.0
H418 H 0.75368 0.02688 0.3162 0.0
H419 H 0.77836 0.9804 0.30268 0.0
H420 H 0.66404 0.95132 0.33574 0.0
H421 H 0.6582 0.97308 0.39125 0.0
H422 H 0.84981 0.01105 0.36399 0.0
H423 H 0.85965 0.92412 0.38174 0.0
H424 H 0.02179 0.38535 0.1785 0.0
H425 H 1.00632 0.43533 0.17977 0.0
H426 H 0.05047 0.45213 0.13066 0.0
H427 H 0.06536 0.40226 0.12914 0.0
H428 H 0.03175 0.48605 0.18162 0.0
H429 H 0.9738 0.48214 0.11775 0.0
H430 H 0.98755 0.45049 0.12829 0.0
H431 H 0.01058 0.47275 0.11506 0.0
C432 C 0.02841 0.39974 0.16804 0.0
C433 C 0.04461 0.38949 0.15361 0.0
C434 C 0.01942 0.4284 0.16874 0.0
C435 C 0.02641 0.44767 0.15505 0.0
C436 C 0.04375 0.43774 0.14109 0.0
H437 H 1.00691 0.628 0.13298 0.0
H438 H 0.02003 0.57785 0.13481 0.0
C439 C 0.05247 0.4091 0.14029 0.0
C440 C 0.01567 0.478 0.1553 0.0
H441 H 0.98194 0.52851 0.12988 0.0
C442 C 0.02061 0.49517 0.17035 0.0
C443 C 1.00082 0.49023 0.14071 0.0
C444 C 0.99259 0.47286 0.12463 0.0
C445 C 0.01212 0.52411 0.17093 0.0
C446 C 0.99815 0.53646 0.15613 0.0
C447 C 0.99279 0.51924 0.14122 0.0
C448 C 0.9899 0.56741 0.1555 0.0
C449 C 0.01888 0.54161 0.1872 0.0
C450 C 0.96833 0.57864 0.16648 0.0
C451 C 0.96024 0.60755 0.16525 0.0
C452 C 0.97352 0.62608 0.153 0.0
C453 C 0.99544 0.61464 0.14226 0.0
C454 C 1.00327 0.5858 0.14338 0.0
H455 H 0.03366 0.53035 0.19635 0.0
H456 H 0.02856 0.56231 0.18333 0.0
H457 H 0.99884 0.54626 0.19448 0.0
H458 H 0.95738 0.56491 0.17582 0.0
H459 H 0.94315 0.61517 0.17367 0.0
H460 H 0.38507 0.9935 0.6785 0.0
H461 H 0.43503 0.0091 0.67967 0.0
H462 H 0.45186 0.96449 0.63071 0.0
H463 H 0.40201 0.94948 0.62929 0.0
H464 H 0.48586 0.9838 0.68153 0.0
H465 H 0.48151 0.04117 0.61748 0.0
H466 H 0.44994 0.02743 0.62812 0.0
H467 H 0.47221 1.00435 0.61493 0.0
C468 C 0.39947 0.9868 0.66805 0.0
C469 C 0.38924 0.97044 0.65369 0.0
C470 C 0.42811 0.99587 0.66869 0.0
C471 C 0.44737 0.98879 0.65501 0.0
C472 C 0.43746 0.97128 0.64113 0.0
H473 H 0.62759 0.00867 0.63262 0.0
H474 H 0.57747 0.99544 0.63451 0.0
C475 C 0.40884 0.96249 0.64039 0.0
C476 C 0.47765 0.99962 0.65517 0.0
H477 H 0.52795 0.03328 0.62956 0.0
C478 C 0.4949 0.99487 0.67021 0.0
C479 C 0.48977 0.01438 0.64052 0.0
C480 C 0.47231 0.02242 0.62444 0.0
C481 C 0.52382 1.00345 0.67071 0.0
C482 C 0.53605 0.01732 0.65584 0.0
C483 C 0.51876 0.0225 0.64094 0.0
C484 C 0.56697 0.02568 0.65514 0.0
C485 C 0.5414 0.99688 0.68697 0.0
C486 C 0.57813 0.04737 0.66604 0.0
C487 C 0.60701 0.05553 0.66478 0.0
C488 C 0.62558 0.04219 0.65256 0.0
C489 C 0.61419 0.02019 0.64187 0.0
C490 C 0.58538 0.01229 0.64304 0.0
H491 H 0.53024 0.98211 0.69618 0.0
H492 H 0.56213 0.98726 0.68309 0.0
H493 H 0.54598 0.01699 0.69419 0.0
H494 H 0.56437 0.05835 0.67536 0.0
H495 H 0.61458 0.0727 0.67315 0.0
H496 H 1.00555 0.38708 0.88248 0.0
H497 H 0.01885 0.43705 0.88053 0.0
H498 H 0.95854 0.44907 0.83801 0.0
H499 H 0.94362 0.39924 0.84066 0.0
H500 H 0.04292 0.46745 0.85594 0.0
H501 H 0.93668 0.51543 0.86791 0.0
H502 H 0.94337 0.47789 0.87094 0.0
H503 H 0.93727 0.49208 0.84905 0.0
C504 C 0.99443 0.4003 0.87295 0.0
C505 C 0.97289 0.38871 0.862 0.0
C506 C 1.00244 0.42908 0.8717 0.0
C507 C 0.98942 0.44744 0.85938 0.0
C508 C 0.96847 0.43587 0.84803 0.0
H509 H 0.02161 0.62964 0.83602 0.0
H510 H 1.00728 0.57932 0.83409 0.0
C511 C 0.96021 0.40702 0.84939 0.0
C512 C 0.99845 0.4783 0.85832 0.0
H513 H 0.97385 0.54722 0.85996 0.0
C514 C 0.0277 0.48479 0.85685 0.0
C515 C 0.97884 0.50134 0.85948 0.0
C516 C 0.94733 0.49642 0.86211 0.0
C517 C 0.03775 0.51318 0.85654 0.0
C518 C 0.01818 0.5361 0.85778 0.0
C519 C 0.98893 0.52976 0.85892 0.0
C520 C 0.02776 0.56668 0.85859 0.0
C521 C 0.06934 0.51844 0.85474 0.0
C522 C 0.04411 0.5766 0.87297 0.0
C523 C 0.05227 0.60538 0.87414 0.0
C524 C 0.04443 0.62518 0.8609 0.0
C525 C 0.0284 0.61508 0.84635 0.0
C526 C 0.01998 0.58629 0.8453 0.0
H527 H 0.08073 0.49938 0.84959 0.0
H528 H 0.07357 0.53672 0.84574 0.0
H529 H 0.07831 0.52369 0.86799 0.0
H530 H 0.05018 0.56214 0.88353 0.0
H531 H 0.06469 0.61218 0.8855 0.0
H532 H 0.39958 0.0698 0.34075 0.0
H533 H 0.44934 0.05422 0.3382 0.0
H534 H 0.43638 0.99466 0.38101 0.0
H535 H 0.38663 0.0086 0.3829 0.0
H536 H 0.49355 0.05629 0.36024 0.0
H537 H 0.47315 0.94249 0.34649 0.0
H538 H 0.44506 0.96874 0.34609 0.0
H539 H 0.45654 0.9533 0.36683 0.0
C540 C 0.40708 0.05303 0.34944 0.0
C541 C 0.38858 0.04068 0.36207 0.0
C542 C 0.43578 0.04425 0.34806 0.0
C543 C 0.44686 0.02275 0.35917 0.0
C544 C 0.42853 0.01069 0.37189 0.0
H545 H 0.61221 0.9504 0.38583 0.0
H546 H 0.56219 0.96511 0.38376 0.0
C547 C 0.39992 0.01922 0.37319 0.0
C548 C 0.47759 0.01341 0.35792 0.0
H549 H 0.52066 0.95432 0.35571 0.0
C550 C 0.49938 0.034 0.35902 0.0
C551 C 0.48563 0.9843 0.35627 0.0
C552 C 0.46385 0.961 0.35366 0.0
C553 C 0.52854 0.02631 0.35916 0.0
C554 C 0.53645 0.99718 0.35808 0.0
C555 C 0.51476 0.97663 0.35668 0.0
C556 C 0.56702 0.98759 0.35887 0.0
C557 C 0.55074 0.04938 0.36104 0.0
C558 C 0.58658 0.99469 0.3454 0.0
C559 C 0.61531 0.9861 0.34649 0.0
C560 C 0.62535 0.97032 0.36116 0.0
C561 C 0.6055 0.96277 0.37443 0.0
C562 C 0.57677 0.97112 0.37324 0.0
H563 H 0.54123 0.07008 0.3651 0.0
H564 H 0.56711 0.04316 0.37097 0.0
H565 H 0.56164 0.05246 0.3481 0.0
H566 H 0.57965 1.00703 0.33403 0.0
H567 H 0.62986 0.99253 0.33606 0.0
H568 H 0.9948 0.29545 0.93478 0.0
H569 H 1.0034 0.29419 0.96702 0.0
H570 H 0.99387 0.20277 0.96656 0.0
H571 H 0.985 0.20413 0.93433 0.0
H572 H 0.96313 0.27003 0.99314 0.0
H573 H 0.0695 0.21779 0.99513 0.0
H574 H 0.05629 0.23582 0.97558 0.0
H575 H 0.04285 0.20123 0.98137 0.0
C576 C 0.99523 0.27507 0.94154 0.0
C577 C 0.98984 0.24982 0.93205 0.0
C578 C 0.99991 0.27436 0.95996 0.0
C579 C 0.99955 0.24836 0.96927 0.0
C580 C 0.9947 0.22304 0.9597 0.0
H581 H 0.02847 0.20466 0.08123 0.0
H582 H 0.01846 0.20329 0.04918 0.0
C583 C 0.98973 0.22379 0.94129 0.0
C584 C 1.00277 0.24793 0.98905 0.0
H585 H 0.04683 0.22606 0.02262 0.0
C586 C 0.98146 0.26048 0.9996 0.0
C587 C 0.0265 0.23521 0.99753 0.0
C588 C 0.05027 0.22187 0.9869 0.0
C589 C 0.98305 0.26037 0.01832 0.0
C590 C 1.00712 0.24816 0.02686 0.0
C591 C 0.02835 0.23546 0.01624 0.0
C592 C 0.01099 0.2487 0.04668 0.0
C593 C 0.95845 0.27269 0.0287 0.0
C594 C 0.01001 0.27455 0.0562 0.0
C595 C 0.01519 0.27519 0.07457 0.0
C596 C 0.0218 0.25006 0.08385 0.0
C597 C 0.02276 0.22421 0.07445 0.0
C598 C 0.0173 0.22351 0.05609 0.0
H599 H 0.93836 0.27215 0.02088 0.0
H600 H 0.95497 0.26095 0.04132 0.0
H601 H 0.96307 0.29532 0.03189 0.0
H602 H 1.00618 0.29446 0.04934 0.0
H603 H 0.01519 0.2955 0.08142 0.0
H604 H 0.72076 0.01365 0.58141 0.0
H605 H 0.72179 1.00476 0.54921 0.0
H606 H 0.81151 0.02472 0.54823 0.0
H607 H 0.81039 0.03366 0.58042 0.0
H608 H 0.73818 0.04584 0.5228 0.0
H609 H 0.80648 0.94922 0.51967 0.0
H610 H 0.78873 0.96035 0.53981 0.0
H611 H 0.82044 0.97835 0.53253 0.0
C612 C 0.74083 0.01535 0.57436 0.0
C613 C 0.76567 0.02364 0.58346 0.0
C614 C 0.74137 0.01053 0.55595 0.0
C615 C 0.7668 0.01373 0.54622 0.0
C616 C 0.79174 0.02155 0.5554 0.0
H617 H 0.80959 0.99304 0.43327 0.0
H618 H 0.8108 1.0029 0.46538 0.0
C619 C 0.79115 0.02658 0.5738 0.0
C620 C 0.76682 0.0105 0.52642 0.0
H621 H 0.79439 0.97082 0.49232 0.0
C622 C 0.7504 0.02937 0.51614 0.0
C623 C 0.78298 0.98924 0.51764 0.0
C624 C 0.80052 0.96794 0.52792 0.0
C625 C 0.74996 0.02782 0.49742 0.0
C626 C 0.76572 1.0062 0.48859 0.0
C627 C 0.78228 0.98742 0.49892 0.0
C628 C 0.76493 1.00229 0.46877 0.0
C629 C 0.73316 0.04996 0.48732 0.0
C630 C 0.73885 0.99878 0.45976 0.0
C631 C 0.73821 0.99368 0.44138 0.0
C632 C 0.76363 0.99155 0.43159 0.0
C633 C 0.78971 0.99513 0.44047 0.0
C634 C 0.79036 1.0005 0.45885 0.0
H635 H 0.7306 0.06984 0.49519 0.0
H636 H 0.74358 0.0554 0.47452 0.0
H637 H 0.71152 0.04154 0.4845 0.0
H638 H 0.71892 0.99909 0.46701 0.0
H639 H 0.71786 0.99029 0.4349 0.0
H640 H 0.99815 0.72007 0.08096 0.0
H641 H 1.00696 0.72118 0.04874 0.0
H642 H 0.99355 0.81211 0.04858 0.0
H643 H 0.9845 0.8109 0.08079 0.0
H644 H 0.96576 0.74307 0.0225 0.0
H645 H 0.06968 0.79996 0.02006 0.0
H646 H 0.05729 0.78176 0.03976 0.0
H647 H 0.04233 0.81561 0.03371 0.0
C648 C 0.99782 0.74035 0.07407 0.0
C649 C 0.99128 0.7655 0.08338 0.0
C650 C 1.00261 0.74096 0.05566 0.0
C651 C 1.00119 0.76676 0.04619 0.0
C652 C 0.99522 0.79201 0.05558 0.0
H653 H 0.02765 0.80976 0.93385 0.0
H654 H 0.01791 0.81126 0.96595 0.0
C655 C 0.99016 0.79135 0.07398 0.0
C656 C 1.00438 0.76699 0.0264 0.0
H657 H 0.04734 0.79026 0.99264 0.0
C658 C 0.98364 0.75333 0.01596 0.0
C659 C 0.02749 0.78062 0.01781 0.0
C660 C 0.05065 0.7952 0.02834 0.0
C661 C 0.98518 0.7532 0.99724 0.0
C662 C 0.00865 0.76633 0.98859 0.0
C663 C 0.02932 0.78015 0.9991 0.0
C664 C 0.0125 0.76561 0.96877 0.0
C665 C 0.96111 0.73963 0.98697 0.0
C666 C 0.01262 0.73957 0.95945 0.0
C667 C 0.01765 0.73883 0.94107 0.0
C668 C 0.02303 0.76406 0.93159 0.0
C669 C 0.02293 0.79009 0.9408 0.0
C670 C 0.01762 0.79088 0.95917 0.0
H671 H 0.94104 0.73943 0.99481 0.0
H672 H 0.95709 0.75099 0.97427 0.0
H673 H 0.96672 0.71717 0.98392 0.0
H674 H 0.00972 0.71963 0.96646 0.0
H675 H 0.01843 0.71842 0.93434 0.0
H676 H 0.29609 0.02879 0.43595 0.0
H677 H 0.29459 0.01982 0.46813 0.0
H678 H 0.20294 0.01371 0.46576 0.0
H679 H 0.20451 0.0229 0.43355 0.0
H680 H 0.26429 0.05454 0.49375 0.0
H681 H 0.2275 0.94193 0.49462 0.0
H682 H 0.24339 0.95809 0.47521 0.0
H683 H 0.20713 0.96601 0.48104 0.0
C684 C 0.27572 0.02495 0.4423 0.0
C685 C 0.25044 0.02614 0.43229 0.0
C686 C 0.27484 0.02001 0.46068 0.0
C687 C 0.24868 0.01585 0.46943 0.0
C688 C 0.22342 0.01642 0.45933 0.0
H689 H 0.20492 0.98103 0.58074 0.0
H690 H 0.20343 0.99105 0.54869 0.0
C691 C 0.22429 0.02161 0.44094 0.0
C692 C 0.24783 0.01236 0.4892 0.0
H693 H 0.23092 0.96532 0.52231 0.0
C694 C 0.25705 0.03501 0.5 0.0
C695 C 0.23816 0.987 0.49741 0.0
C696 C 0.22865 0.96172 0.48654 0.0
C697 C 0.25658 0.03313 0.5187 0.0
C698 C 0.24738 0.00755 0.52697 0.0
C699 C 0.23798 0.98497 0.51612 0.0
C700 C 0.24778 1.00354 0.54677 0.0
C701 C 0.26527 0.05894 0.52937 0.0
C702 C 0.27308 0.00729 0.55657 0.0
C703 C 0.27378 1.00198 0.57492 0.0
C704 C 0.24924 0.99261 0.58391 0.0
C705 C 0.22393 0.9889 0.5742 0.0
C706 C 0.22318 0.99438 0.55585 0.0
H707 H 0.26264 0.07891 0.5216 0.0
H708 H 0.2526 0.06077 0.54177 0.0
H709 H 0.28813 0.05707 0.53298 0.0
H710 H 0.29262 0.01342 0.54994 0.0
H711 H 0.29378 1.00411 0.58199 0.0
H712 H 0.11349 0.25115 0.21501 0.0
H713 H 0.1363 0.22336 0.23868 0.0
H714 H 0.09634 0.14699 0.21869 0.0
H715 H 0.07456 0.17478 0.19453 0.0
H716 H 0.12033 0.19284 0.26562 0.0
H717 H 0.17635 0.11936 0.21992 0.0
H718 H 0.15745 0.15036 0.2121 0.0
H719 H 0.13839 0.11806 0.21726 0.0
C720 C 0.10947 0.22844 0.21576 0.0
C721 C 0.09248 0.21511 0.20278 0.0
C722 C 0.12257 0.21247 0.22931 0.0
C723 C 0.11894 0.18268 0.23038 0.0
C724 C 0.10053 0.16965 0.21796 0.0
H725 H 0.1728 0.08887 0.32692 0.0
H726 H 0.14492 0.11153 0.30316 0.0
C727 C 0.08766 0.18562 0.20427 0.0
C728 C 0.13453 0.16558 0.24439 0.0
H729 H 0.17896 0.10824 0.25063 0.0
C730 C 0.13311 0.17434 0.26226 0.0
C731 C 0.15185 0.1416 0.24024 0.0
C732 C 0.1564 0.13194 0.22133 0.0
C733 C 0.1481 0.16 0.2759 0.0
C734 C 0.16454 0.13538 0.27185 0.0
C735 C 0.16616 0.12674 0.25396 0.0
C736 C 0.181 0.11904 0.2858 0.0
C737 C 0.14689 0.17214 0.29445 0.0
C738 C 0.21047 0.11393 0.28379 0.0
C739 C 0.22629 0.10027 0.29724 0.0
C740 C 0.21306 0.09121 0.31302 0.0
C741 C 0.18352 0.09537 0.31482 0.0
C742 C 0.16764 0.10878 0.30132 0.0
H743 H 0.14105 0.19511 0.29434 0.0
H744 H 0.13038 0.16064 0.3022 0.0
H745 H 0.16767 0.16979 0.30137 0.0
H746 H 0.2215 0.12137 0.27204 0.0
H747 H 0.2491 0.09777 0.29561 0.0
H748 H 0.92307 0.1731 0.82757 0.0
H749 H 0.90071 0.14529 0.80367 0.0
H750 H 0.89515 0.2213 0.7716 0.0
H751 H 0.9185 0.2487 0.7953 0.0
H752 H 0.85029 0.14741 0.79013 0.0
H753 H 0.92408 0.16874 0.73458 0.0
H754 H 0.93261 0.17823 0.75717 0.0
H755 H 0.9105 0.20123 0.74382 0.0
C756 C 0.9178 0.18362 0.81519 0.0
C757 C 0.92326 0.2129 0.81312 0.0
C758 C 0.90473 0.16777 0.80154 0.0
C759 C 0.89647 0.18081 0.78546 0.0
C760 C 0.902 0.21022 0.78346 0.0
H761 H 0.76268 0.11431 0.715 0.0
H762 H 0.79024 0.1366 0.73891 0.0
C763 C 0.91535 0.22599 0.79706 0.0
C764 C 0.8807 0.16405 0.77137 0.0
H765 H 0.87859 0.1494 0.72672 0.0
C766 C 0.85672 0.14776 0.7763 0.0
C767 C 0.88899 0.16376 0.75322 0.0
C768 C 0.91563 0.17868 0.7469 0.0
C769 C 0.8407 0.13198 0.76377 0.0
C770 C 0.84806 0.13297 0.74547 0.0
C771 C 0.87244 0.1487 0.7406 0.0
C772 C 0.83078 0.11818 0.73121 0.0
C773 C 0.81639 0.11386 0.77048 0.0
C774 C 0.84401 0.10059 0.71841 0.0
C775 C 0.82818 0.08818 0.70449 0.0
C776 C 0.79871 0.09305 0.70293 0.0
C777 C 0.78532 0.10997 0.71592 0.0
C778 C 0.80114 0.12261 0.72971 0.0
H779 H 0.81975 0.10749 0.78454 0.0
H780 H 0.79634 0.12638 0.76989 0.0
H781 H 0.81372 0.09427 0.76237 0.0
H782 H 0.86675 0.0967 0.71906 0.0
H783 H 0.83914 0.07544 0.69461 0.0
H784 H 0.76529 0.91772 0.29531 0.0
H785 H 0.79283 0.89399 0.27175 0.0
H786 H 0.86953 0.90425 0.30271 0.0
H787 H 0.84171 0.92703 0.32645 0.0
H788 H 0.83524 0.90702 0.25022 0.0
H789 H 0.87354 0.82062 0.29413 0.0
H790 H 0.84691 0.84594 0.30113 0.0
H791 H 0.88418 0.85517 0.30187 0.0
C792 C 0.78811 0.91528 0.2969 0.0
C793 C 0.8014 0.9245 0.31264 0.0
C794 C 0.8039 0.90156 0.28346 0.0
C795 C 0.83339 0.89652 0.28544 0.0
C796 C 0.84679 0.90693 0.3009 0.0
H797 H 0.93945 0.84022 0.19409 0.0
H798 H 0.91775 0.86819 0.2182 0.0
C799 C 0.83095 0.9204 0.3144 0.0
C800 C 0.84982 0.8801 0.2715 0.0
H801 H 0.89417 0.82271 0.26537 0.0
C802 C 0.8481 0.88858 0.25359 0.0
C803 C 0.86635 0.85556 0.2756 0.0
C804 C 0.86766 0.84357 0.29418 0.0
C805 C 0.86238 0.87363 0.23989 0.0
C806 C 0.8798 0.84974 0.24408 0.0
C807 C 0.88132 0.84114 0.26198 0.0
C808 C 0.89536 0.83255 0.2301 0.0
C809 C 0.85771 0.88311 0.22096 0.0
C810 C 0.89185 0.80274 0.22916 0.0
C811 C 0.90492 0.78666 0.21564 0.0
C812 C 0.92175 0.79991 0.20255 0.0
C813 C 0.92647 0.82943 0.20391 0.0
C814 C 0.91364 0.84551 0.21758 0.0
H815 H 0.83771 0.89561 0.21955 0.0
H816 H 0.87565 0.89702 0.21681 0.0
H817 H 0.85668 0.86461 0.21178 0.0
H818 H 0.87823 0.79189 0.23861 0.0
H819 H 0.901 0.76392 0.21499 0.0
H820 H 0.25081 0.90075 0.71496 0.0
H821 H 0.22294 0.87796 0.7386 0.0
H822 H 0.14671 0.91829 0.7187 0.0
H823 H 0.17456 0.94002 0.69455 0.0
H824 H 0.1926 0.89393 0.76555 0.0
H825 H 0.11866 0.83846 0.71989 0.0
H826 H 0.14972 0.85725 0.71204 0.0
H827 H 0.11752 0.87643 0.71729 0.0
C828 C 0.2281 0.90483 0.71571 0.0
C829 C 0.21482 0.92189 0.70275 0.0
C830 C 0.21209 0.89175 0.72925 0.0
C831 C 0.18232 0.8955 0.73034 0.0
C832 C 0.16935 0.914 0.71795 0.0
H833 H 0.08858 0.84185 0.82693 0.0
H834 H 0.11138 0.86966 0.8032 0.0
C835 C 0.18536 0.92684 0.70427 0.0
C836 C 0.16518 0.87996 0.74435 0.0
H837 H 0.10763 0.83582 0.75061 0.0
C838 C 0.17402 0.88126 0.76221 0.0
C839 C 0.1411 0.86278 0.74021 0.0
C840 C 0.13134 0.85835 0.72131 0.0
C841 C 0.15966 0.86629 0.77584 0.0
C842 C 0.13494 0.85 0.7718 0.0
C843 C 0.12621 0.8485 0.75393 0.0
C844 C 0.11855 0.8336 0.78576 0.0
C845 C 0.1719 0.86734 0.79437 0.0
C846 C 0.11321 0.80418 0.7837 0.0
C847 C 0.09946 0.78841 0.79714 0.0
C848 C 0.09054 0.80165 0.81295 0.0
C849 C 0.09497 0.83114 0.81481 0.0
C850 C 0.10846 0.84697 0.80132 0.0
H851 H 0.1949 0.87302 0.79422 0.0
H852 H 0.16056 0.88391 0.80217 0.0
H853 H 0.16943 0.84656 0.80127 0.0
H854 H 0.12052 0.79315 0.77191 0.0
H855 H 0.09676 0.76564 0.79546 0.0
H856 H 0.99931 0.13223 0.12391 0.0
H857 H 0.98622 0.08186 0.12249 0.0
H858 H 0.06598 0.05919 0.14722 0.0
H859 H 0.07909 0.10992 0.14893 0.0
H860 H 0.0127 0.03465 0.10659 0.0
H861 H 1.00538 0.02252 0.17989 0.0
H862 H 1.00716 0.05693 0.1692 0.0
H863 H 0.03886 0.03584 0.17175 0.0
C864 C 0.01415 0.11653 0.12901 0.0
C865 C 0.04013 0.12512 0.13672 0.0
C866 C 1.00666 0.08772 0.12813 0.0
C867 C 0.02484 0.06673 0.13504 0.0
C868 C 0.05136 0.07505 0.14209 0.0
H869 H 0.01204 0.88337 0.12244 0.0
H870 H 0.02467 0.93386 0.12073 0.0
C871 C 0.05898 0.104 0.14289 0.0
C872 C 0.01552 0.03634 0.13511 0.0
H873 H 0.99807 0.98098 0.16264 0.0
C874 C 0.00956 0.0229 0.11885 0.0
C875 C 0.01089 0.02115 0.15112 0.0
C876 C 0.01564 0.03482 0.16901 0.0
C877 C 0.9996 0.99461 0.11814 0.0
C878 C 0.99562 0.97921 0.13412 0.0
C879 C 1.00115 0.99277 0.1504 0.0
C880 C 0.98675 0.94871 0.13421 0.0
C881 C 0.99304 0.98152 0.1003 0.0
C882 C 0.96115 0.94013 0.14236 0.0
C883 C 0.95379 0.91113 0.14333 0.0
C884 C 0.97218 0.8902 0.13642 0.0
C885 C 0.99748 0.89897 0.12796 0.0
C886 C 1.00467 0.92785 0.12688 0.0
H887 H 0.99017 0.99802 0.08987 0.0
H888 H 0.01102 0.96756 0.09627 0.0
H889 H 0.97346 0.96824 0.10096 0.0
H890 H 0.94704 0.95586 0.14818 0.0
H891 H 0.93432 0.90501 0.15006 0.0
H892 H 0.13158 0.01422 0.6237 0.0
H893 H 0.08108 0.0273 0.62289 0.0
H894 H 0.05922 0.94784 0.64816 0.0
H895 H 0.11003 0.93458 0.64916 0.0
H896 H 0.0251 0.97916 0.61164 0.0
H897 H 0.03519 0.03415 0.677 0.0
H898 H 0.06438 0.03497 0.66137 0.0
H899 H 0.05523 1.00218 0.67214 0.0
C900 C 0.11603 0.99936 0.62895 0.0
C901 C 0.12484 0.97344 0.63664 0.0
C902 C 0.08719 1.00685 0.62841 0.0
C903 C 0.06649 0.98862 0.63553 0.0
C904 C 0.07494 0.96217 0.64255 0.0
H905 H 0.89242 0.02127 0.66702 0.0
H906 H 0.94235 0.00743 0.66451 0.0
C907 C 0.10391 0.95457 0.64305 0.0
C908 C 0.03638 0.99825 0.63663 0.0
H909 H 0.99088 0.03703 0.66256 0.0
C910 C 0.0175 0.99176 0.62276 0.0
C911 C 0.02665 0.01468 0.65114 0.0
C912 C 0.04625 0.02202 0.66635 0.0
C913 C 0.98895 1.00115 0.6231 0.0
C914 C 0.97924 0.018 0.63754 0.0
C915 C 0.99827 0.02436 0.65142 0.0
C916 C 0.94905 0.02785 0.63908 0.0
C917 C 0.96932 0.99227 0.60822 0.0
C918 C 0.93617 0.04477 0.62588 0.0
C919 C 0.90731 0.05256 0.62721 0.0
C920 C 0.89081 0.04368 0.64181 0.0
C921 C 0.90425 0.02797 0.65539 0.0
C922 C 0.93292 0.02014 0.65403 0.0
H923 H 0.97787 0.9737 0.60076 0.0
H924 H 0.94784 0.9867 0.61338 0.0
H925 H 0.96695 0.01024 0.59875 0.0
H926 H 0.94834 0.05169 0.61445 0.0
H927 H 0.8977 0.06466 0.61653 0.0
H928 H 0.93467 0.10977 0.8656 0.0
H929 H 0.94733 0.05893 0.86754 0.0
H930 H 0.02591 0.08104 0.89387 0.0
H931 H 0.01328 0.13149 0.8922 0.0
H932 H 0.99676 0.03314 0.85255 0.0
H933 H 0.99334 0.01764 0.92556 0.0
H934 H 0.9766 0.04762 0.9147 0.0
H935 H 0.01442 0.04758 0.91857 0.0
C936 C 0.95435 0.10369 0.87211 0.0
C937 C 0.97298 0.12466 0.87872 0.0
C938 C 0.96167 0.07469 0.8731 0.0
C939 C 0.9875 0.06612 0.88097 0.0
C940 C 1.00572 0.08702 0.88796 0.0
H941 H 0.07851 0.90441 0.86538 0.0
H942 H 0.06558 0.9552 0.86701 0.0
C943 C 0.99854 0.1159 0.88688 0.0
C944 C 0.99628 0.03558 0.8811 0.0
H945 H 0.01505 0.98069 0.90862 0.0
C946 C 1.00064 0.02163 0.86481 0.0
C947 C 1.00128 0.02051 0.89709 0.0
C948 C 0.99594 0.03397 0.91499 0.0
C949 C 0.01021 0.9932 0.86408 0.0
C950 C 0.0159 0.97836 0.88008 0.0
C951 C 0.01111 0.99218 0.89637 0.0
C952 C 0.02516 0.94796 0.88016 0.0
C953 C 0.01367 0.97908 0.8462 0.0
C954 C 0.00734 0.92714 0.88761 0.0
C955 C 0.01472 0.89829 0.88676 0.0
C956 C 0.04024 0.88952 0.87854 0.0
C957 C 0.05876 0.91048 0.87182 0.0
C958 C 0.05125 0.93946 0.87258 0.0
H959 H 1.00278 0.99121 0.83549 0.0
H960 H 0.03669 0.97781 0.84287 0.0
H961 H 1.00503 0.95704 0.84644 0.0
H962 H 0.98725 0.93315 0.89365 0.0
H963 H 1.00015 0.8827 0.89227 0.0
H964 H 0.89218 0.99732 0.34887 0.0
H965 H 0.94233 0.01065 0.35153 0.0
H966 H 0.94867 0.96304 0.40029 0.0
H967 H 0.89794 0.95019 0.39806 0.0
H968 H 0.96685 0.03967 0.38626 0.0
H969 H 0.01751 0.93829 0.36401 0.0
H970 H 0.98231 0.94858 0.35663 0.0
H971 H 0.98757 0.93688 0.37904 0.0
C972 C 0.90411 0.98968 0.36023 0.0
C973 C 0.8908 0.97294 0.37339 0.0
C974 C 0.93285 0.99727 0.36167 0.0
C975 C 0.94915 0.98799 0.37614 0.0
C976 C 0.93641 0.9704 0.389 0.0
H977 H 0.13103 0.00738 0.39585 0.0
H978 H 0.08061 0.99431 0.39734 0.0
C979 C 0.90747 0.96291 0.38764 0.0
C980 C 0.97922 0.99759 0.37791 0.0
H981 H 0.048 0.97625 0.37134 0.0
C982 C 0.98467 0.02582 0.3831 0.0
C983 C 1.00232 0.97945 0.37382 0.0
C984 C 0.99741 0.94909 0.36799 0.0
C985 C 0.0127 0.03639 0.38439 0.0
C986 C 0.03593 0.01847 0.37985 0.0
C987 C 0.03033 0.99009 0.37481 0.0
C988 C 0.06619 0.02846 0.38021 0.0
C989 C 0.01708 0.06647 0.39095 0.0
C990 C 0.07508 0.05239 0.37035 0.0
C991 C 0.10398 0.06019 0.36973 0.0
C992 C 0.12459 0.04386 0.37867 0.0
C993 C 0.1156 0.02034 0.38881 0.0
C994 C 0.08678 0.0128 0.38962 0.0
H995 H 0.99869 0.07387 0.39904 0.0
H996 H 0.03674 0.06825 0.39909 0.0
H997 H 0.01908 0.08099 0.37939 0.0
H998 H 0.05985 0.06446 0.36259 0.0
H999 H 0.11038 0.07812 0.36158 0.0
loop_
_geom_bond_atom_site_label_1
_geom_bond_atom_site_label_2
_geom_bond_distance
_geom_bond_site_symmetry_2
_ccdc_geom_bond_type
C0 C1 1.443 . S
C0 N4 1.376 . S
C0 C38 1.389 . S
C1 C0 1.443 . S
C1 C2 1.340 . S
C1 H41 0.951 . S
C2 C1 1.340 . S
C2 C3 1.439 . S
C2 H42 0.950 . S
C3 C2 1.439 . S
C3 N4 1.374 . S
C3 C37 1.395 . S
N4 C0 1.376 . S
N4 C3 1.374 . S
N4 Co5 2.008 . S
Co5 N4 2.008 . S
Co5 N6 1.995 . S
Co5 N11 2.008 . S
Co5 N16 1.995 . S
Co5 N21 2.282 . S
Co5 N27 2.282 . S
N6 Co5 1.995 . S
N6 C7 1.376 . S
N6 C10 1.383 . S
C7 N6 1.376 . S
C7 C8 1.446 . S
C7 C37 1.391 . S
C8 C7 1.446 . S
C8 C9 1.339 . S
C8 H43 0.949 . S
C9 C8 1.339 . S
C9 C10 1.439 . S
C9 H44 0.950 . S
C10 N6 1.383 . S
C10 C9 1.439 . S
C10 C39 1.392 . S
N11 Co5 2.008 . S
N11 C12 1.376 . S
N11 C15 1.374 1_455 S
C12 N11 1.376 . S
C12 C13 1.443 1_455 S
C12 C39 1.389 . S
C13 C12 1.443 1_655 S
C13 C14 1.340 . S
C13 H45 0.951 . S
C14 C13 1.340 . S
C14 C15 1.439 . S
C14 H46 0.950 . S
C15 N11 1.374 1_655 S
C15 C14 1.439 . S
C15 C40 1.395 . S
N16 Co5 1.995 . S
N16 C17 1.376 . S
N16 C20 1.383 . S
C17 N16 1.376 . S
C17 C18 1.446 . S
C17 C40 1.391 1_455 S
C18 C17 1.446 . S
C18 C19 1.339 . S
C18 H47 0.949 1_455 S
C19 C18 1.339 . S
C19 C20 1.439 . S
C19 H48 0.950 . S
C20 N16 1.383 . S
C20 C19 1.439 . S
C20 C38 1.392 . S
N21 Co5 2.282 . S
N21 C24 1.332 . S
N21 C26 1.332 . S
C22 C23 1.386 . S
C22 C25 1.388 . S
C23 C22 1.386 . S
C23 C24 1.382 . S
C23 H49 0.950 . S
C24 N21 1.332 . S
C24 C23 1.382 . S
C24 H35 0.952 . S
C25 C22 1.388 . S
C25 C26 1.382 . S
C25 H50 0.950 . S
C26 N21 1.332 . S
C26 C25 1.382 . S
C26 H36 0.948 . S
N27 Co5 2.282 . S
N27 C31 1.332 . S
N27 C32 1.332 . S
C28 C29 1.388 . S
C28 C32 1.382 . S
C28 H51 0.950 . S
C29 C28 1.388 . S
C29 C30 1.386 . S
C30 C29 1.386 . S
C30 C31 1.382 . S
C30 H52 0.950 . S
C31 N27 1.332 . S
C31 C30 1.382 . S
C31 H33 0.952 . S
C32 N27 1.332 . S
C32 C28 1.382 . S
C32 H34 0.948 . S
H33 C31 0.952 . S
H34 C32 0.948 . S
H35 C24 0.952 . S
H36 C26 0.948 . S
C37 C3 1.395 . S
C37 C7 1.391 . S
C38 C0 1.389 . S
C38 C20 1.392 . S
C39 C10 1.392 . S
C39 C12 1.389 . S
C40 C15 1.395 . S
C40 C17 1.391 1_655 S
H41 C1 0.951 . S
H42 C2 0.950 . S
H43 C8 0.949 . S
H44 C9 0.950 . S
H45 C13 0.951 . S
H46 C14 0.950 . S
H47 C18 0.949 1_655 S
H48 C19 0.950 . S
H49 C23 0.950 . S
H50 C25 0.950 . S
H51 C28 0.950 . S
H52 C30 0.950 . S
C53 C54 1.443 . S
C53 N57 1.376 . S
C53 C91 1.389 . S
C54 C53 1.443 . S
C54 C55 1.340 . S
C54 H94 0.951 . S
C55 C54 1.340 . S
C55 C56 1.439 . S
C55 H95 0.950 . S
C56 C55 1.439 . S
C56 N57 1.374 . S
C56 C90 1.395 . S
N57 C53 1.376 . S
N57 C56 1.374 . S
N57 Co58 2.008 . S
Co58 N57 2.008 . S
Co58 N59 1.995 . S
Co58 N64 2.008 . S
Co58 N69 1.995 . S
Co58 N74 2.282 . S
Co58 N80 2.282 . S
N59 Co58 1.995 . S
N59 C60 1.376 . S
N59 C63 1.383 . S
C60 N59 1.376 . S
C60 C61 1.446 . S
C60 C90 1.391 . S
C61 C60 1.446 . S
C61 C62 1.339 . S
C61 H96 0.949 . S
C62 C61 1.339 . S
C62 C63 1.439 . S
C62 H97 0.950 . S
C63 N59 1.383 . S
C63 C62 1.439 . S
C63 C92 1.392 . S
N64 Co58 2.008 . S
N64 C65 1.376 . S
N64 C68 1.374 1_545 S
C65 N64 1.376 . S
C65 C66 1.443 1_545 S
C65 C92 1.389 . S
C66 C65 1.443 1_565 S
C66 C67 1.340 . S
C66 H98 0.951 . S
C67 C66 1.340 . S
C67 C68 1.439 . S
C67 H99 0.950 . S
C68 N64 1.374 1_565 S
C68 C67 1.439 . S
C68 C93 1.395 . S
N69 Co58 1.995 . S
N69 C70 1.376 . S
N69 C73 1.383 . S
C70 N69 1.376 . S
C70 C71 1.446 . S
C70 C93 1.391 1_545 S
C71 C70 1.446 . S
C71 C72 1.339 . S
C71 H100 0.949 1_545 S
C72 C71 1.339 . S
C72 C73 1.439 . S
C72 H101 0.950 . S
C73 N69 1.383 . S
C73 C72 1.439 . S
C73 C91 1.392 . S
N74 Co58 2.282 . S
N74 C77 1.332 . S
N74 C79 1.332 . S
C75 C76 1.386 . S
C75 C78 1.388 . S
C76 C75 1.386 . S
C76 C77 1.382 . S
C76 H102 0.950 . S
C77 N74 1.332 . S
C77 C76 1.382 . S
C77 H88 0.952 . S
C78 C75 1.388 . S
C78 C79 1.382 . S
C78 H103 0.950 . S
C79 N74 1.332 . S
C79 C78 1.382 . S
C79 H89 0.948 . S
N80 Co58 2.282 . S
N80 C84 1.332 . S
N80 C85 1.332 . S
C81 C82 1.388 . S
C81 C85 1.382 . S
C81 H104 0.950 . S
C82 C81 1.388 . S
C82 C83 1.386 . S
C83 C82 1.386 . S
C83 C84 1.382 . S
C83 H105 0.950 . S
C84 N80 1.332 . S
C84 C83 1.382 . S
C84 H86 0.952 . S
C85 N80 1.332 . S
C85 C81 1.382 . S
C85 H87 0.948 . S
H86 C84 0.952 . S
H87 C85 0.948 . S
H88 C77 0.952 . S
H89 C79 0.948 . S
C90 C56 1.395 . S
C90 C60 1.391 . S
C91 C53 1.389 . S
C91 C73 1.392 . S
C92 C63 1.392 . S
C92 C65 1.389 . S
C93 C68 1.395 . S
C93 C70 1.391 1_565 S
H94 C54 0.951 . S
H95 C55 0.950 . S
H96 C61 0.949 . S
H97 C62 0.950 . S
H98 C66 0.951 . S
H99 C67 0.950 . S
H100 C71 0.949 1_565 S
H101 C72 0.950 . S
H102 C76 0.950 . S
H103 C78 0.950 . S
H104 C81 0.950 . S
H105 C83 0.950 . S
C106 C107 1.443 . S
C106 N110 1.376 . S
C106 C144 1.389 . S
C107 C106 1.443 . S
C107 C108 1.340 . S
C107 H147 0.951 . S
C108 C107 1.340 . S
C108 C109 1.439 . S
C108 H148 0.950 . S
C109 C108 1.439 . S
C109 N110 1.374 . S
C109 C143 1.395 . S
N110 C106 1.376 . S
N110 C109 1.374 . S
N110 Co111 2.008 . S
Co111 N110 2.008 . S
Co111 N112 1.995 . S
Co111 N117 2.008 . S
Co111 N122 1.995 . S
Co111 N127 2.282 . S
Co111 N133 2.282 . S
N112 Co111 1.995 . S
N112 C113 1.376 . S
N112 C116 1.383 . S
C113 N112 1.376 . S
C113 C114 1.446 . S
C113 C143 1.391 . S
C114 C113 1.446 . S
C114 C115 1.339 . S
C114 H149 0.949 . S
C115 C114 1.339 . S
C115 C116 1.439 . S
C115 H150 0.950 . S
C116 N112 1.383 . S
C116 C115 1.439 . S
C116 C145 1.392 . S
N117 Co111 2.008 . S
N117 C118 1.376 . S
N117 C121 1.374 1_655 S
C118 N117 1.376 . S
C118 C119 1.443 1_655 S
C118 C145 1.389 . S
C119 C118 1.443 1_455 S
C119 C120 1.340 . S
C119 H151 0.951 . S
C120 C119 1.340 . S
C120 C121 1.439 . S
C120 H152 0.950 . S
C121 N117 1.374 1_455 S
C121 C120 1.439 . S
C121 C146 1.395 . S
N122 Co111 1.995 . S
N122 C123 1.376 . S
N122 C126 1.383 . S
C123 N122 1.376 . S
C123 C124 1.446 . S
C123 C146 1.391 1_655 S
C124 C123 1.446 . S
C124 C125 1.339 . S
C124 H153 0.949 1_655 S
C125 C124 1.339 . S
C125 C126 1.439 . S
C125 H154 0.950 . S
C126 N122 1.383 . S
C126 C125 1.439 . S
C126 C144 1.392 . S
N127 Co111 2.282 . S
N127 C130 1.332 . S
N127 C132 1.332 . S
C128 C129 1.386 . S
C128 C131 1.388 . S
C129 C128 1.386 . S
C129 C130 1.382 . S
C129 H155 0.950 . S
C130 N127 1.332 . S
C130 C129 1.382 . S
C130 H141 0.952 . S
C131 C128 1.388 . S
C131 C132 1.382 . S
C131 H156 0.950 . S
C132 N127 1.332 . S
C132 C131 1.382 . S
C132 H142 0.948 . S
N133 Co111 2.282 . S
N133 C137 1.332 . S
N133 C138 1.332 . S
C134 C135 1.388 . S
C134 C138 1.382 . S
C134 H157 0.950 . S
C135 C134 1.388 . S
C135 C136 1.386 . S
C136 C135 1.386 . S
C136 C137 1.382 . S
C136 H158 0.950 . S
C137 N133 1.332 . S
C137 C136 1.382 . S
C137 H139 0.952 . S
C138 N133 1.332 . S
C138 C134 1.382 . S
C138 H140 0.948 . S
H139 C137 0.952 . S
H140 C138 0.948 . S
H141 C130 0.952 . S
H142 C132 0.948 . S
C143 C109 1.395 . S
C143 C113 1.391 . S
C144 C106 1.389 . S
C144 C126 1.392 . S
C145 C116 1.392 . S
C145 C118 1.389 . S
C146 C121 1.395 . S
C146 C123 1.391 1_455 S
H147 C107 0.951 . S
H148 C108 0.950 . S
H149 C114 0.949 . S
H150 C115 0.950 . S
H151 C119 0.951 . S
H152 C120 0.950 . S
H153 C124 0.949 1_455 S
H154 C125 0.950 . S
H155 C129 0.950 . S
H156 C131 0.950 . S
H157 C134 0.950 . S
H158 C136 0.950 . S
C159 C160 1.443 . S
C159 N163 1.376 . S
C159 C197 1.389 . S
C160 C159 1.443 . S
C160 C161 1.340 . S
C160 H200 0.951 . S
C161 C160 1.340 . S
C161 C162 1.439 . S
C161 H201 0.950 . S
C162 C161 1.439 . S
C162 N163 1.374 . S
C162 C196 1.395 . S
N163 C159 1.376 . S
N163 C162 1.374 . S
N163 Co164 2.008 . S
Co164 N163 2.008 . S
Co164 N165 1.995 . S
Co164 N170 2.008 . S
Co164 N175 1.995 . S
Co164 N180 2.282 . S
Co164 N186 2.282 . S
N165 Co164 1.995 . S
N165 C166 1.376 . S
N165 C169 1.383 . S
C166 N165 1.376 . S
C166 C167 1.446 . S
C166 C196 1.391 . S
C167 C166 1.446 . S
C167 C168 1.339 . S
C167 H202 0.949 . S
C168 C167 1.339 . S
C168 C169 1.439 . S
C168 H203 0.950 . S
C169 N165 1.383 . S
C169 C168 1.439 . S
C169 C198 1.392 . S
N170 Co164 2.008 . S
N170 C171 1.376 . S
N170 C174 1.374 1_565 S
C171 N170 1.376 . S
C171 C172 1.443 1_565 S
C171 C198 1.389 . S
C172 C171 1.443 1_545 S
C172 C173 1.340 . S
C172 H204 0.951 . S
C173 C172 1.340 . S
C173 C174 1.439 . S
C173 H205 0.950 . S
C174 N170 1.374 1_545 S
C174 C173 1.439 . S
C174 C199 1.395 . S
N175 Co164 1.995 . S
N175 C176 1.376 . S
N175 C179 1.383 . S
C176 N175 1.376 . S
C176 C177 1.446 . S
C176 C199 1.391 1_565 S
C177 C176 1.446 . S
C177 C178 1.339 . S
C177 H206 0.949 1_565 S
C178 C177 1.339 . S
C178 C179 1.439 . S
C178 H207 0.950 . S
C179 N175 1.383 . S
C179 C178 1.439 . S
C179 C197 1.392 . S
N180 Co164 2.282 . S
N180 C183 1.332 . S
N180 C185 1.332 . S
C181 C182 1.386 . S
C181 C184 1.388 . S
C182 C181 1.386 . S
C182 C183 1.382 . S
C182 H208 0.950 . S
C183 N180 1.332 . S
C183 C182 1.382 . S
C183 H194 0.952 . S
C184 C181 1.388 . S
C184 C185 1.382 . S
C184 H209 0.950 . S
C185 N180 1.332 . S
C185 C184 1.382 . S
C185 H195 0.948 . S
N186 Co164 2.282 . S
N186 C190 1.332 . S
N186 C191 1.332 . S
C187 C188 1.388 . S
C187 C191 1.382 . S
C187 H210 0.950 . S
C188 C187 1.388 . S
C188 C189 1.386 . S
C189 C188 1.386 . S
C189 C190 1.382 . S
C189 H211 0.950 . S
C190 N186 1.332 . S
C190 C189 1.382 . S
C190 H192 0.952 . S
C191 N186 1.332 . S
C191 C187 1.382 . S
C191 H193 0.948 . S
H192 C190 0.952 . S
H193 C191 0.948 . S
H194 C183 0.952 . S
H195 C185 0.948 . S
C196 C162 1.395 . S
C196 C166 1.391 . S
C197 C159 1.389 . S
C197 C179 1.392 . S
C198 C169 1.392 . S
C198 C171 1.389 . S
C199 C174 1.395 . S
C199 C176 1.391 1_545 S
H200 C160 0.951 . S
H201 C161 0.950 . S
H202 C167 0.949 . S
H203 C168 0.950 . S
H204 C172 0.951 . S
H205 C173 0.950 . S
H206 C177 0.949 1_545 S
H207 C178 0.950 . S
H208 C182 0.950 . S
H209 C184 0.950 . S
H210 C187 0.950 . S
H211 C189 0.950 . S
C212 C213 1.443 . S
C212 N216 1.376 . S
C212 C250 1.389 . S
C213 C212 1.443 . S
C213 C214 1.340 . S
C213 H253 0.951 . S
C214 C213 1.340 . S
C214 C215 1.439 . S
C214 H254 0.950 . S
C215 C214 1.439 . S
C215 N216 1.374 . S
C215 C249 1.395 . S
N216 C212 1.376 . S
N216 C215 1.374 . S
N216 Co217 2.008 . S
Co217 N216 2.008 . S
Co217 N218 1.995 . S
Co217 N223 2.008 . S
Co217 N228 1.995 . S
Co217 N233 2.282 . S
Co217 N239 2.282 . S
N218 Co217 1.995 . S
N218 C219 1.376 . S
N218 C222 1.383 . S
C219 N218 1.376 . S
C219 C220 1.446 . S
C219 C249 1.391 . S
C220 C219 1.446 . S
C220 C221 1.339 . S
C220 H255 0.949 . S
C221 C220 1.339 . S
C221 C222 1.439 . S
C221 H256 0.950 . S
C222 N218 1.383 . S
C222 C221 1.439 . S
C222 C251 1.392 . S
N223 Co217 2.008 . S
N223 C224 1.376 . S
N223 C227 1.374 1_455 S
C224 N223 1.376 . S
C224 C225 1.443 1_455 S
C224 C251 1.389 . S
C225 C224 1.443 1_655 S
C225 C226 1.340 . S
C225 H257 0.951 . S
C226 C225 1.340 . S
C226 C227 1.439 . S
C226 H258 0.950 . S
C227 N223 1.374 1_655 S
C227 C226 1.439 . S
C227 C252 1.395 . S
N228 Co217 1.995 . S
N228 C229 1.376 . S
N228 C232 1.383 . S
C229 N228 1.376 . S
C229 C230 1.446 . S
C229 C252 1.391 1_455 S
C230 C229 1.446 . S
C230 C231 1.339 . S
C230 H259 0.949 1_455 S
C231 C230 1.339 . S
C231 C232 1.439 . S
C231 H260 0.950 . S
C232 N228 1.383 . S
C232 C231 1.439 . S
C232 C250 1.392 . S
N233 Co217 2.282 . S
N233 C236 1.332 . S
N233 C238 1.332 . S
C234 C235 1.386 . S
C234 C237 1.388 . S
C235 C234 1.386 . S
C235 C236 1.382 . S
C235 H261 0.950 . S
C236 N233 1.332 . S
C236 C235 1.382 . S
C236 H247 0.952 . S
C237 C234 1.388 . S
C237 C238 1.382 . S
C237 H262 0.950 . S
C238 N233 1.332 . S
C238 C237 1.382 . S
C238 H248 0.948 . S
N239 Co217 2.282 . S
N239 C243 1.332 . S
N239 C244 1.332 . S
C240 C241 1.388 . S
C240 C244 1.382 . S
C240 H263 0.950 . S
C241 C240 1.388 . S
C241 C242 1.386 . S
C242 C241 1.386 . S
C242 C243 1.382 . S
C242 H264 0.950 . S
C243 N239 1.332 . S
C243 C242 1.382 . S
C243 H245 0.952 . S
C244 N239 1.332 . S
C244 C240 1.382 . S
C244 H246 0.948 . S
H245 C243 0.952 . S
H246 C244 0.948 . S
H247 C236 0.952 . S
H248 C238 0.948 . S
C249 C215 1.395 . S
C249 C219 1.391 . S
C250 C212 1.389 . S
C250 C232 1.392 . S
C251 C222 1.392 . S
C251 C224 1.389 . S
C252 C227 1.395 . S
C252 C229 1.391 1_655 S
H253 C213 0.951 . S
H254 C214 0.950 . S
H255 C220 0.949 . S
H256 C221 0.950 . S
H257 C225 0.951 . S
H258 C226 0.950 . S
H259 C230 0.949 1_655 S
H260 C231 0.950 . S
H261 C235 0.950 . S
H262 C237 0.950 . S
H263 C240 0.950 . S
H264 C242 0.950 . S
C265 C266 1.443 . S
C265 N269 1.376 . S
C265 C303 1.389 . S
C266 C265 1.443 . S
C266 C267 1.340 . S
C266 H306 0.951 . S
C267 C266 1.340 . S
C267 C268 1.439 . S
C267 H307 0.950 . S
C268 C267 1.439 . S
C268 N269 1.374 . S
C268 C302 1.395 . S
N269 C265 1.376 . S
N269 C268 1.374 . S
N269 Co270 2.008 . S
Co270 N269 2.008 . S
Co270 N271 1.995 . S
Co270 N276 2.008 . S
Co270 N281 1.995 . S
Co270 N286 2.282 . S
Co270 N292 2.282 . S
N271 Co270 1.995 . S
N271 C272 1.376 . S
N271 C275 1.383 . S
C272 N271 1.376 . S
C272 C273 1.446 . S
C272 C302 1.391 . S
C273 C272 1.446 . S
C273 C274 1.339 . S
C273 H308 0.949 . S
C274 C273 1.339 . S
C274 C275 1.439 . S
C274 H309 0.950 . S
C275 N271 1.383 . S
C275 C274 1.439 . S
C275 C304 1.392 . S
N276 Co270 2.008 . S
N276 C277 1.376 . S
N276 C280 1.374 1_545 S
C277 N276 1.376 . S
C277 C278 1.443 1_545 S
C277 C304 1.389 . S
C278 C277 1.443 1_565 S
C278 C279 1.340 . S
C278 H310 0.951 . S
C279 C278 1.340 . S
C279 C280 1.439 . S
C279 H311 0.950 . S
C280 N276 1.374 1_565 S
C280 C279 1.439 . S
C280 C305 1.395 . S
N281 Co270 1.995 . S
N281 C282 1.376 . S
N281 C285 1.383 . S
C282 N281 1.376 . S
C282 C283 1.446 . S
C282 C305 1.391 1_545 S
C283 C282 1.446 . S
C283 C284 1.339 . S
C283 H312 0.949 1_545 S
C284 C283 1.339 . S
C284 C285 1.439 . S
C284 H313 0.950 . S
C285 N281 1.383 . S
C285 C284 1.439 . S
C285 C303 1.392 . S
N286 Co270 2.282 . S
N286 C289 1.332 . S
N286 C291 1.332 . S
C287 C288 1.386 . S
C287 C290 1.388 . S
C288 C287 1.386 . S
C288 C289 1.382 . S
C288 H314 0.950 . S
C289 N286 1.332 . S
C289 C288 1.382 . S
C289 H300 0.952 . S
C290 C287 1.388 . S
C290 C291 1.382 . S
C290 H315 0.950 . S
C291 N286 1.332 . S
C291 C290 1.382 . S
C291 H301 0.948 . S
N292 Co270 2.282 . S
N292 C296 1.332 . S
N292 C297 1.332 . S
C293 C294 1.388 . S
C293 C297 1.382 . S
C293 H316 0.950 . S
C294 C293 1.388 . S
C294 C295 1.386 . S
C295 C294 1.386 . S
C295 C296 1.382 . S
C295 H317 0.950 . S
C296 N292 1.332 . S
C296 C295 1.382 . S
C296 H298 0.952 . S
C297 N292 1.332 . S
C297 C293 1.382 . S
C297 H299 0.948 . S
H298 C296 0.952 . S
H299 C297 0.948 . S
H300 C289 0.952 . S
H301 C291 0.948 . S
C302 C268 1.395 . S
C302 C272 1.391 . S
C303 C265 1.389 . S
C303 C285 1.392 . S
C304 C275 1.392 . S
C304 C277 1.389 . S
C305 C280 1.395 . S
C305 C282 1.391 1_565 S
H306 C266 0.951 . S
H307 C267 0.950 . S
H308 C273 0.949 . S
H309 C274 0.950 . S
H310 C278 0.951 . S
H311 C279 0.950 . S
H312 C283 0.949 1_565 S
H313 C284 0.950 . S
H314 C288 0.950 . S
H315 C290 0.950 . S
H316 C293 0.950 . S
H317 C295 0.950 . S
C318 C319 1.443 . S
C318 N322 1.376 . S
C318 C356 1.389 . S
C319 C318 1.443 . S
C319 C320 1.340 . S
C319 H359 0.951 . S
C320 C319 1.340 . S
C320 C321 1.439 . S
C320 H360 0.950 . S
C321 C320 1.439 . S
C321 N322 1.374 . S
C321 C355 1.395 . S
N322 C318 1.376 . S
N322 C321 1.374 . S
N322 Co323 2.008 . S
Co323 N322 2.008 . S
Co323 N324 1.995 . S
Co323 N329 2.008 . S
Co323 N334 1.995 . S
Co323 N339 2.282 . S
Co323 N345 2.282 . S
N324 Co323 1.995 . S
N324 C325 1.376 . S
N324 C328 1.383 . S
C325 N324 1.376 . S
C325 C326 1.446 . S
C325 C355 1.391 . S
C326 C325 1.446 . S
C326 C327 1.339 . S
C326 H361 0.949 . S
C327 C326 1.339 . S
C327 C328 1.439 . S
C327 H362 0.950 . S
C328 N324 1.383 . S
C328 C327 1.439 . S
C328 C357 1.392 . S
N329 Co323 2.008 . S
N329 C330 1.376 . S
N329 C333 1.374 1_655 S
C330 N329 1.376 . S
C330 C331 1.443 1_655 S
C330 C357 1.389 . S
C331 C330 1.443 1_455 S
C331 C332 1.340 . S
C331 H363 0.951 . S
C332 C331 1.340 . S
C332 C333 1.439 . S
C332 H364 0.950 . S
C333 N329 1.374 1_455 S
C333 C332 1.439 . S
C333 C358 1.395 . S
N334 Co323 1.995 . S
N334 C335 1.376 . S
N334 C338 1.383 . S
C335 N334 1.376 . S
C335 C336 1.446 . S
C335 C358 1.391 1_655 S
C336 C335 1.446 . S
C336 C337 1.339 . S
C336 H365 0.949 1_655 S
C337 C336 1.339 . S
C337 C338 1.439 . S
C337 H366 0.950 . S
C338 N334 1.383 . S
C338 C337 1.439 . S
C338 C356 1.392 . S
N339 Co323 2.282 . S
N339 C342 1.332 . S
N339 C344 1.332 . S
C340 C341 1.386 . S
C340 C343 1.388 . S
C341 C340 1.386 . S
C341 C342 1.382 . S
C341 H367 0.950 . S
C342 N339 1.332 . S
C342 C341 1.382 . S
C342 H353 0.952 . S
C343 C340 1.388 . S
C343 C344 1.382 . S
C343 H368 0.950 . S
C344 N339 1.332 . S
C344 C343 1.382 . S
C344 H354 0.948 . S
N345 Co323 2.282 . S
N345 C349 1.332 . S
N345 C350 1.332 . S
C346 C347 1.388 . S
C346 C350 1.382 . S
C346 H369 0.950 . S
C347 C346 1.388 . S
C347 C348 1.386 . S
C348 C347 1.386 . S
C348 C349 1.382 . S
C348 H370 0.950 . S
C349 N345 1.332 . S
C349 C348 1.382 . S
C349 H351 0.952 . S
C350 N345 1.332 . S
C350 C346 1.382 . S
C350 H352 0.948 . S
H351 C349 0.952 . S
H352 C350 0.948 . S
H353 C342 0.952 . S
H354 C344 0.948 . S
C355 C321 1.395 . S
C355 C325 1.391 . S
C356 C318 1.389 . S
C356 C338 1.392 . S
C357 C328 1.392 . S
C357 C330 1.389 . S
C358 C333 1.395 . S
C358 C335 1.391 1_455 S
H359 C319 0.951 . S
H360 C320 0.950 . S
H361 C326 0.949 . S
H362 C327 0.950 . S
H363 C331 0.951 . S
H364 C332 0.950 . S
H365 C336 0.949 1_455 S
H366 C337 0.950 . S
H367 C341 0.950 . S
H368 C343 0.950 . S
H369 C346 0.950 . S
H370 C348 0.950 . S
C371 C372 1.443 . S
C371 N375 1.376 . S
C371 C409 1.389 . S
C372 C371 1.443 . S
C372 C373 1.340 . S
C372 H412 0.951 . S
C373 C372 1.340 . S
C373 C374 1.439 . S
C373 H413 0.950 . S
C374 C373 1.439 . S
C374 N375 1.374 . S
C374 C408 1.395 . S
N375 C371 1.376 . S
N375 C374 1.374 . S
N375 Co376 2.008 . S
Co376 N375 2.008 . S
Co376 N377 1.995 . S
Co376 N382 2.008 . S
Co376 N387 1.995 . S
Co376 N392 2.282 . S
Co376 N398 2.282 . S
N377 Co376 1.995 . S
N377 C378 1.376 . S
N377 C381 1.383 . S
C378 N377 1.376 . S
C378 C379 1.446 . S
C378 C408 1.391 . S
C379 C378 1.446 . S
C379 C380 1.339 . S
C379 H414 0.949 . S
C380 C379 1.339 . S
C380 C381 1.439 . S
C380 H415 0.950 . S
C381 N377 1.383 . S
C381 C380 1.439 . S
C381 C410 1.392 . S
N382 Co376 2.008 . S
N382 C383 1.376 . S
N382 C386 1.374 1_565 S
C383 N382 1.376 . S
C383 C384 1.443 1_565 S
C383 C410 1.389 . S
C384 C383 1.443 1_545 S
C384 C385 1.340 . S
C384 H416 0.951 . S
C385 C384 1.340 . S
C385 C386 1.439 . S
C385 H417 0.950 . S
C386 N382 1.374 1_545 S
C386 C385 1.439 . S
C386 C411 1.395 . S
N387 Co376 1.995 . S
N387 C388 1.376 . S
N387 C391 1.383 . S
C388 N387 1.376 . S
C388 C389 1.446 . S
C388 C411 1.391 1_565 S
C389 C388 1.446 . S
C389 C390 1.339 . S
C389 H418 0.949 1_565 S
C390 C389 1.339 . S
C390 C391 1.439 . S
C390 H419 0.950 . S
C391 N387 1.383 . S
C391 C390 1.439 . S
C391 C409 1.392 . S
N392 Co376 2.282 . S
N392 C395 1.332 . S
N392 C397 1.332 . S
C393 C394 1.386 . S
C393 C396 1.388 . S
C394 C393 1.386 . S
C394 C395 1.382 . S
C394 H420 0.950 . S
C395 N392 1.332 . S
C395 C394 1.382 . S
C395 H406 0.952 . S
C396 C393 1.388 . S
C396 C397 1.382 . S
C396 H421 0.950 . S
C397 N392 1.332 . S
C397 C396 1.382 . S
C397 H407 0.948 . S
N398 Co376 2.282 . S
N398 C402 1.332 . S
N398 C403 1.332 . S
C399 C400 1.388 . S
C399 C403 1.382 . S
C399 H422 0.950 . S
C400 C399 1.388 . S
C400 C401 1.386 . S
C401 C400 1.386 . S
C401 C402 1.382 . S
C401 H423 0.950 . S
C402 N398 1.332 . S
C402 C401 1.382 . S
C402 H404 0.952 . S
C403 N398 1.332 . S
C403 C399 1.382 . S
C403 H405 0.948 . S
H404 C402 0.952 . S
H405 C403 0.948 . S
H406 C395 0.952 . S
H407 C397 0.948 . S
C408 C374 1.395 . S
C408 C378 1.391 . S
C409 C371 1.389 . S
C409 C391 1.392 . S
C410 C381 1.392 . S
C410 C383 1.389 . S
C411 C386 1.395 . S
C411 C388 1.391 1_545 S
H412 C372 0.951 . S
H413 C373 0.950 . S
H414 C379 0.949 . S
H415 C380 0.950 . S
H416 C384 0.951 . S
H417 C385 0.950 . S
H418 C389 0.949 1_545 S
H419 C390 0.950 . S
H420 C394 0.950 . S
H421 C396 0.950 . S
H422 C399 0.950 . S
H423 C401 0.950 . S
H424 C432 0.929 . S
H425 C434 0.930 . S
H426 C436 0.930 . S
H427 C439 0.929 . S
H428 C442 0.930 . S
H429 C444 0.960 . S
H430 C444 0.960 . S
H431 C444 0.960 1_455 S
C432 H424 0.929 . S
C432 C433 1.377 . S
C432 C434 1.384 . S
C433 C432 1.377 . S
C433 C439 1.390 . S
C434 H425 0.930 . S
C434 C432 1.384 . S
C434 C435 1.372 . S
C435 C434 1.372 . S
C435 C436 1.400 . S
C435 C440 1.490 . S
C436 H426 0.930 . S
C436 C435 1.400 . S
C436 C439 1.386 . S
H437 C453 0.930 . S
H438 C454 0.931 1_455 S
C439 H427 0.929 . S
C439 C433 1.390 . S
C439 C436 1.386 . S
C440 C435 1.490 . S
C440 C442 1.395 . S
C440 C443 1.403 1_455 S
H441 C447 0.930 . S
C442 H428 0.930 . S
C442 C440 1.395 . S
C442 C445 1.403 . S
C443 C440 1.403 1_655 S
C443 C444 1.524 . S
C443 C447 1.400 . S
C444 H429 0.960 . S
C444 H430 0.960 . S
C444 H431 0.960 1_655 S
C444 C443 1.524 . S
C445 C442 1.403 . S
C445 C446 1.392 1_455 S
C445 C449 1.495 . S
C446 C445 1.392 1_655 S
C446 C447 1.385 . S
C446 C448 1.478 . S
C447 H441 0.930 . S
C447 C443 1.400 . S
C447 C446 1.385 . S
C448 C446 1.478 . S
C448 C450 1.381 . S
C448 C454 1.383 . S
C449 C445 1.495 . S
C449 H455 0.959 . S
C449 H456 0.961 . S
C449 H457 0.960 1_455 S
C450 C448 1.381 . S
C450 C451 1.394 . S
C450 H458 0.930 . S
C451 C450 1.394 . S
C451 C452 1.383 . S
C451 H459 0.929 . S
C452 C451 1.383 . S
C452 C453 1.377 . S
C453 H437 0.930 . S
C453 C452 1.377 . S
C453 C454 1.379 . S
C454 H438 0.931 1_655 S
C454 C448 1.383 . S
C454 C453 1.379 . S
H455 C449 0.959 . S
H456 C449 0.961 . S
H457 C449 0.960 1_655 S
H458 C450 0.930 . S
H459 C451 0.929 . S
H460 C468 0.929 . S
H461 C470 0.930 . S
H462 C472 0.930 . S
H463 C475 0.929 . S
H464 C478 0.930 . S
H465 C480 0.960 . S
H466 C480 0.960 . S
H467 C480 0.960 . S
C468 H460 0.929 . S
C468 C469 1.377 . S
C468 C470 1.384 . S
C469 C468 1.377 . S
C469 C475 1.390 . S
C470 H461 0.930 . S
C470 C468 1.384 . S
C470 C471 1.372 . S
C471 C470 1.372 . S
C471 C472 1.400 . S
C471 C476 1.490 . S
C472 H462 0.930 . S
C472 C471 1.400 . S
C472 C475 1.386 . S
H473 C489 0.930 . S
H474 C490 0.931 . S
C475 H463 0.929 . S
C475 C469 1.390 . S
C475 C472 1.386 . S
C476 C471 1.490 . S
C476 C478 1.395 . S
C476 C479 1.403 1_565 S
H477 C483 0.930 . S
C478 H464 0.930 . S
C478 C476 1.395 . S
C478 C481 1.403 . S
C479 C476 1.403 1_545 S
C479 C480 1.524 . S
C479 C483 1.400 . S
C480 H465 0.960 . S
C480 H466 0.960 . S
C480 H467 0.960 . S
C480 C479 1.524 . S
C481 C478 1.403 . S
C481 C482 1.392 1_565 S
C481 C485 1.495 . S
C482 C481 1.392 1_545 S
C482 C483 1.385 . S
C482 C484 1.478 . S
C483 H477 0.930 . S
C483 C479 1.400 . S
C483 C482 1.385 . S
C484 C482 1.478 . S
C484 C486 1.381 . S
C484 C490 1.383 . S
C485 C481 1.495 . S
C485 H491 0.959 . S
C485 H492 0.961 . S
C485 H493 0.960 . S
C486 C484 1.381 . S
C486 C487 1.394 . S
C486 H494 0.930 . S
C487 C486 1.394 . S
C487 C488 1.383 . S
C487 H495 0.929 . S
C488 C487 1.383 . S
C488 C489 1.377 . S
C489 H473 0.930 . S
C489 C488 1.377 . S
C489 C490 1.379 . S
C490 H474 0.931 . S
C490 C484 1.383 . S
C490 C489 1.379 . S
H491 C485 0.959 . S
H492 C485 0.961 . S
H493 C485 0.960 . S
H494 C486 0.930 . S
H495 C487 0.929 . S
H496 C504 0.929 . S
H497 C506 0.930 . S
H498 C508 0.930 . S
H499 C511 0.929 . S
H500 C514 0.930 . S
H501 C516 0.960 . S
H502 C516 0.960 . S
H503 C516 0.960 . S
C504 H496 0.929 . S
C504 C505 1.377 . S
C504 C506 1.384 . S
C505 C504 1.377 . S
C505 C511 1.390 . S
C506 H497 0.930 . S
C506 C504 1.384 . S
C506 C507 1.372 . S
C507 C506 1.372 . S
C507 C508 1.400 . S
C507 C512 1.490 . S
C508 H498 0.930 . S
C508 C507 1.400 . S
C508 C511 1.386 . S
H509 C525 0.930 . S
H510 C526 0.931 . S
C511 H499 0.929 . S
C511 C505 1.390 . S
C511 C508 1.386 . S
C512 C507 1.490 . S
C512 C514 1.395 1_655 S
C512 C515 1.403 . S
H513 C519 0.930 . S
C514 H500 0.930 . S
C514 C512 1.395 1_455 S
C514 C517 1.403 . S
C515 C512 1.403 . S
C515 C516 1.524 . S
C515 C519 1.400 . S
C516 H501 0.960 . S
C516 H502 0.960 . S
C516 H503 0.960 . S
C516 C515 1.524 . S
C517 C514 1.403 . S
C517 C518 1.392 . S
C517 C521 1.495 . S
C518 C517 1.392 . S
C518 C519 1.385 1_455 S
C518 C520 1.478 . S
C519 H513 0.930 . S
C519 C515 1.400 . S
C519 C518 1.385 1_655 S
C520 C518 1.478 . S
C520 C522 1.381 . S
C520 C526 1.383 . S
C521 C517 1.495 . S
C521 H527 0.959 . S
C521 H528 0.961 . S
C521 H529 0.960 . S
C522 C520 1.381 . S
C522 C523 1.394 . S
C522 H530 0.930 . S
C523 C522 1.394 . S
C523 C524 1.383 . S
C523 H531 0.929 . S
C524 C523 1.383 . S
C524 C525 1.377 . S
C525 H509 0.930 . S
C525 C524 1.377 . S
C525 C526 1.379 . S
C526 H510 0.931 . S
C526 C520 1.383 . S
C526 C525 1.379 . S
H527 C521 0.959 . S
H528 C521 0.961 . S
H529 C521 0.960 . S
H530 C522 0.930 . S
H531 C523 0.929 . S
H532 C540 0.929 . S
H533 C542 0.930 . S
H534 C544 0.930 1_565 S
H535 C547 0.929 . S
H536 C550 0.930 . S
H537 C552 0.960 . S
H538 C552 0.960 . S
H539 C552 0.960 . S
C540 H532 0.929 . S
C540 C541 1.377 . S
C540 C542 1.384 . S
C541 C540 1.377 . S
C541 C547 1.390 . S
C542 H533 0.930 . S
C542 C540 1.384 . S
C542 C543 1.372 . S
C543 C542 1.372 . S
C543 C544 1.400 . S
C543 C548 1.490 . S
C544 H534 0.930 1_545 S
C544 C543 1.400 . S
C544 C547 1.386 . S
H545 C561 0.930 . S
H546 C562 0.931 . S
C547 H535 0.929 . S
C547 C541 1.390 . S
C547 C544 1.386 . S
C548 C543 1.490 . S
C548 C550 1.395 . S
C548 C551 1.403 1_545 S
H549 C555 0.930 . S
C550 H536 0.930 . S
C550 C548 1.395 . S
C550 C553 1.403 . S
C551 C548 1.403 1_565 S
C551 C552 1.524 . S
C551 C555 1.400 . S
C552 H537 0.960 . S
C552 H538 0.960 . S
C552 H539 0.960 . S
C552 C551 1.524 . S
C553 C550 1.403 . S
C553 C554 1.392 1_545 S
C553 C557 1.495 . S
C554 C553 1.392 1_565 S
C554 C555 1.385 . S
C554 C556 1.478 . S
C555 H549 0.930 . S
C555 C551 1.400 . S
C555 C554 1.385 . S
C556 C554 1.478 . S
C556 C558 1.381 . S
C556 C562 1.383 . S
C557 C553 1.495 . S
C557 H563 0.959 . S
C557 H564 0.961 . S
C557 H565 0.960 . S
C558 C556 1.381 . S
C558 C559 1.394 . S
C558 H566 0.930 1_565 S
C559 C558 1.394 . S
C559 C560 1.383 . S
C559 H567 0.929 . S
C560 C559 1.383 . S
C560 C561 1.377 . S
C561 H545 0.930 . S
C561 C560 1.377 . S
C561 C562 1.379 . S
C562 H546 0.931 . S
C562 C556 1.383 . S
C562 C561 1.379 . S
H563 C557 0.959 . S
H564 C557 0.961 . S
H565 C557 0.960 . S
H566 C558 0.930 1_545 S
H567 C559 0.929 . S
H568 C576 0.929 . S
H569 C578 0.930 . S
H570 C580 0.930 . S
H571 C583 0.929 . S
H572 C586 0.930 . S
H573 C588 0.960 . S
H574 C588 0.960 . S
H575 C588 0.960 . S
C576 H568 0.929 . S
C576 C577 1.377 . S
C576 C578 1.384 . S
C577 C576 1.377 . S
C577 C583 1.390 . S
C578 H569 0.930 . S
C578 C576 1.384 . S
C578 C579 1.372 . S
C579 C578 1.372 . S
C579 C580 1.400 . S
C579 C584 1.490 . S
C580 H570 0.930 . S
C580 C579 1.400 . S
C580 C583 1.386 . S
H581 C597 0.930 . S
H582 C598 0.931 . S
C583 H571 0.929 . S
C583 C577 1.390 . S
C583 C580 1.386 . S
C584 C579 1.490 . S
C584 C586 1.395 . S
C584 C587 1.403 1_655 S
H585 C591 0.930 . S
C586 H572 0.930 . S
C586 C584 1.395 . S
C586 C589 1.403 1_556 S
C587 C584 1.403 1_455 S
C587 C588 1.524 . S
C587 C591 1.400 1_556 S
C588 H573 0.960 . S
C588 H574 0.960 . S
C588 H575 0.960 . S
C588 C587 1.524 . S
C589 C586 1.403 1_554 S
C589 C590 1.392 1_655 S
C589 C593 1.495 . S
C590 C589 1.392 1_455 S
C590 C591 1.385 . S
C590 C592 1.478 . S
C591 H585 0.930 . S
C591 C587 1.400 1_554 S
C591 C590 1.385 . S
C592 C590 1.478 . S
C592 C594 1.381 . S
C592 C598 1.383 . S
C593 C589 1.495 . S
C593 H599 0.959 . S
C593 H600 0.961 . S
C593 H601 0.960 . S
C594 C592 1.381 . S
C594 C595 1.394 . S
C594 H602 0.930 . S
C595 C594 1.394 . S
C595 C596 1.383 . S
C595 H603 0.929 . S
C596 C595 1.383 . S
C596 C597 1.377 . S
C597 H581 0.930 . S
C597 C596 1.377 . S
C597 C598 1.379 . S
C598 H582 0.931 . S
C598 C592 1.383 . S
C598 C597 1.379 . S
H599 C593 0.959 . S
H600 C593 0.961 . S
H601 C593 0.960 . S
H602 C594 0.930 . S
H603 C595 0.929 . S
H604 C612 0.936 . S
H605 C614 0.930 1_565 S
H606 C616 0.930 . S
H607 C619 0.929 . S
H608 C622 0.930 . S
H609 C624 0.960 . S
H610 C624 0.960 . S
H611 C624 0.960 . S
C612 H604 0.936 . S
C612 C613 1.377 . S
C612 C614 1.384 . S
C613 C612 1.377 . S
C613 C619 1.390 . S
C614 H605 0.930 1_545 S
C614 C612 1.384 . S
C614 C615 1.372 . S
C615 C614 1.372 . S
C615 C616 1.400 . S
C615 C620 1.490 . S
C616 H606 0.930 . S
C616 C615 1.400 . S
C616 C619 1.386 . S
H617 C633 0.930 1_545 S
H618 C634 0.931 . S
C619 H607 0.929 . S
C619 C613 1.390 . S
C619 C616 1.386 . S
C620 C615 1.490 . S
C620 C622 1.395 . S
C620 C623 1.403 1_545 S
H621 C627 0.930 . S
C622 H608 0.930 . S
C622 C620 1.395 . S
C622 C625 1.403 . S
C623 C620 1.403 1_565 S
C623 C624 1.524 . S
C623 C627 1.400 . S
C624 H609 0.960 . S
C624 H610 0.960 . S
C624 H611 0.960 . S
C624 C623 1.524 . S
C625 C622 1.403 . S
C625 C626 1.392 1_545 S
C625 C629 1.495 . S
C626 C625 1.392 1_565 S
C626 C627 1.385 . S
C626 C628 1.478 . S
C627 H621 0.930 . S
C627 C623 1.400 . S
C627 C626 1.385 . S
C628 C626 1.478 . S
C628 C630 1.381 . S
C628 C634 1.383 1_565 S
C629 C625 1.495 . S
C629 H635 0.959 . S
C629 H636 0.961 . S
C629 H637 0.960 . S
C630 C628 1.381 . S
C630 C631 1.394 . S
C630 H638 0.930 . S
C631 C630 1.394 . S
C631 C632 1.383 . S
C631 H639 0.929 . S
C632 C631 1.383 . S
C632 C633 1.377 . S
C633 H617 0.930 1_565 S
C633 C632 1.377 . S
C633 C634 1.379 1_565 S
C634 H618 0.931 . S
C634 C628 1.383 1_545 S
C634 C633 1.379 1_545 S
H635 C629 0.959 . S
H636 C629 0.961 . S
H637 C629 0.960 . S
H638 C630 0.930 . S
H639 C631 0.929 . S
H640 C648 0.929 . S
H641 C650 0.930 . S
H642 C652 0.930 . S
H643 C655 0.929 . S
H644 C658 0.930 . S
H645 C660 0.960 . S
H646 C660 0.960 . S
H647 C660 0.960 . S
C648 H640 0.929 . S
C648 C649 1.377 . S
C648 C650 1.384 . S
C649 C648 1.377 . S
C649 C655 1.390 . S
C650 H641 0.930 . S
C650 C648 1.384 . S
C650 C651 1.372 . S
C651 C650 1.372 . S
C651 C652 1.400 . S
C651 C656 1.490 . S
C652 H642 0.930 . S
C652 C651 1.400 . S
C652 C655 1.386 . S
H653 C669 0.930 . S
H654 C670 0.943 . S
C655 H643 0.929 . S
C655 C649 1.390 . S
C655 C652 1.386 . S
C656 C651 1.490 . S
C656 C658 1.395 . S
C656 C659 1.403 1_655 S
H657 C663 0.930 . S
C658 H644 0.930 . S
C658 C656 1.395 . S
C658 C661 1.403 1_554 S
C659 C656 1.403 1_455 S
C659 C660 1.524 . S
C659 C663 1.400 1_554 S
C660 H645 0.960 . S
C660 H646 0.960 . S
C660 H647 0.960 . S
C660 C659 1.524 . S
C661 C658 1.403 1_556 S
C661 C662 1.392 1_655 S
C661 C665 1.495 . S
C662 C661 1.392 1_455 S
C662 C663 1.385 . S
C662 C664 1.478 . S
C663 H657 0.930 . S
C663 C659 1.400 1_556 S
C663 C662 1.385 . S
C664 C662 1.478 . S
C664 C666 1.381 . S
C664 C670 1.383 . S
C665 C661 1.495 . S
C665 H671 0.959 . S
C665 H672 0.961 . S
C665 H673 0.960 . S
C666 C664 1.381 . S
C666 C667 1.394 . S
C666 H674 0.930 . S
C667 C666 1.394 . S
C667 C668 1.383 . S
C667 H675 0.929 . S
C668 C667 1.383 . S
C668 C669 1.377 . S
C669 H653 0.930 . S
C669 C668 1.377 . S
C669 C670 1.379 . S
C670 H654 0.943 . S
C670 C664 1.383 . S
C670 C669 1.379 . S
H671 C665 0.959 . S
H672 C665 0.961 . S
H673 C665 0.960 . S
H674 C666 0.930 . S
H675 C667 0.929 . S
H676 C684 0.929 . S
H677 C686 0.930 . S
H678 C688 0.942 . S
H679 C691 0.929 1_565 S
H680 C694 0.930 . S
H681 C696 0.960 . S
H682 C696 0.960 . S
H683 C696 0.960 . S
C684 H676 0.929 . S
C684 C685 1.377 . S
C684 C686 1.384 . S
C685 C684 1.377 . S
C685 C691 1.390 . S
C686 H677 0.930 . S
C686 C684 1.384 . S
C686 C687 1.372 . S
C687 C686 1.372 . S
C687 C688 1.392 1_545 S
C687 C692 1.490 . S
C688 H678 0.942 . S
C688 C687 1.392 1_565 S
C688 C691 1.382 1_565 S
H689 C705 0.930 . S
H690 C706 0.931 . S
C691 H679 0.929 1_545 S
C691 C685 1.390 . S
C691 C688 1.382 1_545 S
C692 C687 1.490 . S
C692 C694 1.395 . S
C692 C695 1.403 1_545 S
H693 C699 0.930 . S
C694 H680 0.930 . S
C694 C692 1.395 . S
C694 C697 1.403 . S
C695 C692 1.403 1_565 S
C695 C696 1.524 . S
C695 C699 1.400 . S
C696 H681 0.960 . S
C696 H682 0.960 . S
C696 H683 0.960 . S
C696 C695 1.524 . S
C697 C694 1.403 . S
C697 C698 1.384 1_545 S
C697 C701 1.495 . S
C698 C697 1.384 1_565 S
C698 C699 1.392 . S
C698 C700 1.479 . S
C699 H693 0.930 . S
C699 C695 1.400 . S
C699 C698 1.392 . S
C700 C698 1.479 . S
C700 C702 1.381 1_565 S
C700 C706 1.383 . S
C701 C697 1.495 . S
C701 H707 0.959 . S
C701 H708 0.961 . S
C701 H709 0.960 . S
C702 C700 1.381 1_545 S
C702 C703 1.394 1_545 S
C702 H710 0.930 . S
C703 C702 1.394 1_565 S
C703 C704 1.383 . S
C703 H711 0.929 1_565 S
C704 C703 1.383 . S
C704 C705 1.377 . S
C705 H689 0.930 . S
C705 C704 1.377 . S
C705 C706 1.379 . S
C706 H690 0.931 . S
C706 C700 1.383 . S
C706 C705 1.379 . S
H707 C701 0.959 . S
H708 C701 0.961 . S
H709 C701 0.960 . S
H710 C702 0.930 . S
H711 C703 0.929 1_545 S
H712 C720 0.929 . S
H713 C722 0.930 . S
H714 C724 0.930 . S
H715 C727 0.929 . S
H716 C730 0.930 . S
H717 C732 0.960 . S
H718 C732 0.960 . S
H719 C732 0.960 . S
C720 H712 0.929 . S
C720 C721 1.377 . S
C720 C722 1.384 . S
C721 C720 1.377 . S
C721 C727 1.390 . S
C722 H713 0.930 . S
C722 C720 1.384 . S
C722 C723 1.372 . S
C723 C722 1.372 . S
C723 C724 1.400 . S
C723 C728 1.490 . S
C724 H714 0.930 . S
C724 C723 1.400 . S
C724 C727 1.386 . S
H725 C741 0.930 . S
H726 C742 0.931 . S
C727 H715 0.929 . S
C727 C721 1.390 . S
C727 C724 1.386 . S
C728 C723 1.490 . S
C728 C730 1.395 . S
C728 C731 1.403 . S
H729 C735 0.930 . S
C730 H716 0.930 . S
C730 C728 1.395 . S
C730 C733 1.403 . S
C731 C728 1.403 . S
C731 C732 1.524 . S
C731 C735 1.400 . S
C732 H717 0.960 . S
C732 H718 0.960 . S
C732 H719 0.960 . S
C732 C731 1.524 . S
C733 C730 1.403 . S
C733 C734 1.392 . S
C733 C737 1.495 . S
C734 C733 1.392 . S
C734 C735 1.385 . S
C734 C736 1.478 . S
C735 H729 0.930 . S
C735 C731 1.400 . S
C735 C734 1.385 . S
C736 C734 1.478 . S
C736 C738 1.381 . S
C736 C742 1.383 . S
C737 C733 1.495 . S
C737 H743 0.959 . S
C737 H744 0.961 . S
C737 H745 0.960 . S
C738 C736 1.381 . S
C738 C739 1.394 . S
C738 H746 0.930 . S
C739 C738 1.394 . S
C739 C740 1.383 . S
C739 H747 0.929 . S
C740 C739 1.383 . S
C740 C741 1.377 . S
C741 H725 0.930 . S
C741 C740 1.377 . S
C741 C742 1.379 . S
C742 H726 0.931 . S
C742 C736 1.383 . S
C742 C741 1.379 . S
H743 C737 0.959 . S
H744 C737 0.961 . S
H745 C737 0.960 . S
H746 C738 0.930 . S
H747 C739 0.929 . S
H748 C756 0.929 . S
H749 C758 0.930 . S
H750 C760 0.930 . S
H751 C763 0.929 . S
H752 C766 0.930 . S
H753 C768 0.960 . S
H754 C768 0.960 . S
H755 C768 0.960 . S
C756 H748 0.929 . S
C756 C757 1.377 . S
C756 C758 1.384 . S
C757 C756 1.377 . S
C757 C763 1.390 . S
C758 H749 0.930 . S
C758 C756 1.384 . S
C758 C759 1.372 . S
C759 C758 1.372 . S
C759 C760 1.400 . S
C759 C764 1.490 . S
C760 H750 0.930 . S
C760 C759 1.400 . S
C760 C763 1.386 . S
H761 C777 0.930 . S
H762 C778 0.931 . S
C763 H751 0.929 . S
C763 C757 1.390 . S
C763 C760 1.386 . S
C764 C759 1.490 . S
C764 C766 1.395 . S
C764 C767 1.403 . S
H765 C771 0.930 . S
C766 H752 0.930 . S
C766 C764 1.395 . S
C766 C769 1.403 . S
C767 C764 1.403 . S
C767 C768 1.524 . S
C767 C771 1.400 . S
C768 H753 0.960 . S
C768 H754 0.960 . S
C768 H755 0.960 . S
C768 C767 1.524 . S
C769 C766 1.403 . S
C769 C770 1.392 . S
C769 C773 1.495 . S
C770 C769 1.392 . S
C770 C771 1.385 . S
C770 C772 1.478 . S
C771 H765 0.930 . S
C771 C767 1.400 . S
C771 C770 1.385 . S
C772 C770 1.478 . S
C772 C774 1.381 . S
C772 C778 1.383 . S
C773 C769 1.495 . S
C773 H779 0.959 . S
C773 H780 0.961 . S
C773 H781 0.960 . S
C774 C772 1.381 . S
C774 C775 1.394 . S
C774 H782 0.930 . S
C775 C774 1.394 . S
C775 C776 1.383 . S
C775 H783 0.929 . S
C776 C775 1.383 . S
C776 C777 1.377 . S
C777 H761 0.930 . S
C777 C776 1.377 . S
C777 C778 1.379 . S
C778 H762 0.931 . S
C778 C772 1.383 . S
C778 C777 1.379 . S
H779 C773 0.959 . S
H780 C773 0.961 . S
H781 C773 0.960 . S
H782 C774 0.930 . S
H783 C775 0.929 . S
H784 C792 0.929 . S
H785 C794 0.930 . S
H786 C796 0.930 . S
H787 C799 0.929 . S
H788 C802 0.930 . S
H789 C804 0.960 . S
H790 C804 0.960 . S
H791 C804 0.960 . S
C792 H784 0.929 . S
C792 C793 1.377 . S
C792 C794 1.384 . S
C793 C792 1.377 . S
C793 C799 1.390 . S
C794 H785 0.930 . S
C794 C792 1.384 . S
C794 C795 1.372 . S
C795 C794 1.372 . S
C795 C796 1.400 . S
C795 C800 1.490 . S
C796 H786 0.930 . S
C796 C795 1.400 . S
C796 C799 1.386 . S
H797 C813 0.930 . S
H798 C814 0.931 . S
C799 H787 0.929 . S
C799 C793 1.390 . S
C799 C796 1.386 . S
C800 C795 1.490 . S
C800 C802 1.395 . S
C800 C803 1.403 . S
H801 C807 0.930 . S
C802 H788 0.930 . S
C802 C800 1.395 . S
C802 C805 1.403 . S
C803 C800 1.403 . S
C803 C804 1.524 . S
C803 C807 1.400 . S
C804 H789 0.960 . S
C804 H790 0.960 . S
C804 H791 0.960 . S
C804 C803 1.524 . S
C805 C802 1.403 . S
C805 C806 1.392 . S
C805 C809 1.495 . S
C806 C805 1.392 . S
C806 C807 1.385 . S
C806 C808 1.478 . S
C807 H801 0.930 . S
C807 C803 1.400 . S
C807 C806 1.385 . S
C808 C806 1.478 . S
C808 C810 1.381 . S
C808 C814 1.383 . S
C809 C805 1.495 . S
C809 H815 0.959 . S
C809 H816 0.961 . S
C809 H817 0.960 . S
C810 C808 1.381 . S
C810 C811 1.394 . S
C810 H818 0.930 . S
C811 C810 1.394 . S
C811 C812 1.383 . S
C811 H819 0.929 . S
C812 C811 1.383 . S
C812 C813 1.377 . S
C813 H797 0.930 . S
C813 C812 1.377 . S
C813 C814 1.379 . S
C814 H798 0.931 . S
C814 C808 1.383 . S
C814 C813 1.379 . S
H815 C809 0.959 . S
H816 C809 0.961 . S
H817 C809 0.960 . S
H818 C810 0.930 . S
H819 C811 0.929 . S
H820 C828 0.929 . S
H821 C830 0.930 . S
H822 C832 0.930 . S
H823 C835 0.929 . S
H824 C838 0.930 . S
H825 C840 0.960 . S
H826 C840 0.960 . S
H827 C840 0.960 . S
C828 H820 0.929 . S
C828 C829 1.377 . S
C828 C830 1.384 . S
C829 C828 1.377 . S
C829 C835 1.390 . S
C830 H821 0.930 . S
C830 C828 1.384 . S
C830 C831 1.372 . S
C831 C830 1.372 . S
C831 C832 1.400 . S
C831 C836 1.490 . S
C832 H822 0.930 . S
C832 C831 1.400 . S
C832 C835 1.386 . S
H833 C849 0.930 . S
H834 C850 0.931 . S
C835 H823 0.929 . S
C835 C829 1.390 . S
C835 C832 1.386 . S
C836 C831 1.490 . S
C836 C838 1.395 . S
C836 C839 1.403 . S
H837 C843 0.930 . S
C838 H824 0.930 . S
C838 C836 1.395 . S
C838 C841 1.403 . S
C839 C836 1.403 . S
C839 C840 1.524 . S
C839 C843 1.400 . S
C840 H825 0.960 . S
C840 H826 0.960 . S
C840 H827 0.960 . S
C840 C839 1.524 . S
C841 C838 1.403 . S
C841 C842 1.392 . S
C841 C845 1.495 . S
C842 C841 1.392 . S
C842 C843 1.385 . S
C842 C844 1.478 . S
C843 H837 0.930 . S
C843 C839 1.400 . S
C843 C842 1.385 . S
C844 C842 1.478 . S
C844 C846 1.381 . S
C844 C850 1.383 . S
C845 C841 1.495 . S
C845 H851 0.959 . S
C845 H852 0.961 . S
C845 H853 0.960 . S
C846 C844 1.381 . S
C846 C847 1.394 . S
C846 H854 0.930 . S
C847 C846 1.394 . S
C847 C848 1.383 . S
C847 H855 0.929 . S
C848 C847 1.383 . S
C848 C849 1.377 . S
C849 H833 0.930 . S
C849 C848 1.377 . S
C849 C850 1.379 . S
C850 H834 0.931 . S
C850 C844 1.383 . S
C850 C849 1.379 . S
H851 C845 0.959 . S
H852 C845 0.961 . S
H853 C845 0.960 . S
H854 C846 0.930 . S
H855 C847 0.929 . S
H856 C864 0.929 . S
H857 C866 0.930 1_655 S
H858 C868 0.930 . S
H859 C871 0.929 . S
H860 C874 0.930 . S
H861 C876 0.960 1_565 S
H862 C876 0.960 . S
H863 C876 0.960 . S
C864 H856 0.929 . S
C864 C865 1.377 . S
C864 C866 1.384 . S
C865 C864 1.377 . S
C865 C871 1.390 . S
C866 H857 0.930 1_455 S
C866 C864 1.384 . S
C866 C867 1.372 . S
C867 C866 1.372 . S
C867 C868 1.400 . S
C867 C872 1.490 . S
C868 H858 0.930 . S
C868 C867 1.400 . S
C868 C871 1.386 . S
H869 C885 0.930 . S
H870 C886 0.931 1_455 S
C871 H859 0.929 . S
C871 C865 1.390 . S
C871 C868 1.386 . S
C872 C867 1.490 . S
C872 C874 1.395 1_455 S
C872 C875 1.403 . S
H873 C879 0.930 . S
C874 H860 0.930 . S
C874 C872 1.395 1_655 S
C874 C877 1.403 1_545 S
C875 C872 1.403 . S
C875 C876 1.524 . S
C875 C879 1.400 1_545 S
C876 H861 0.960 1_545 S
C876 H862 0.960 . S
C876 H863 0.960 . S
C876 C875 1.524 . S
C877 C874 1.403 1_565 S
C877 C878 1.392 . S
C877 C881 1.495 . S
C878 C877 1.392 . S
C878 C879 1.385 1_655 S
C878 C880 1.478 . S
C879 H873 0.930 . S
C879 C875 1.400 1_565 S
C879 C878 1.385 1_455 S
C880 C878 1.478 . S
C880 C882 1.381 . S
C880 C886 1.383 . S
C881 C877 1.495 . S
C881 H887 0.959 1_565 S
C881 H888 0.961 . S
C881 H889 0.960 . S
C882 C880 1.381 . S
C882 C883 1.394 . S
C882 H890 0.930 . S
C883 C882 1.394 . S
C883 C884 1.383 . S
C883 H891 0.929 . S
C884 C883 1.383 . S
C884 C885 1.377 . S
C885 H869 0.930 . S
C885 C884 1.377 . S
C885 C886 1.379 . S
C886 H870 0.931 1_655 S
C886 C880 1.383 . S
C886 C885 1.379 . S
H887 C881 0.959 1_545 S
H888 C881 0.961 . S
H889 C881 0.960 . S
H890 C882 0.930 . S
H891 C883 0.929 . S
H892 C900 0.929 . S
H893 C902 0.930 1_545 S
H894 C904 0.930 . S
H895 C907 0.929 . S
H896 C910 0.930 . S
H897 C912 0.960 . S
H898 C912 0.960 . S
H899 C912 0.960 1_565 S
C900 H892 0.929 . S
C900 C901 1.377 . S
C900 C902 1.384 . S
C901 C900 1.377 . S
C901 C907 1.390 . S
C902 H893 0.930 1_565 S
C902 C900 1.384 . S
C902 C903 1.372 . S
C903 C902 1.372 . S
C903 C904 1.400 . S
C903 C908 1.490 . S
C904 H894 0.930 . S
C904 C903 1.400 . S
C904 C907 1.386 . S
H905 C921 0.930 . S
H906 C922 0.931 1_565 S
C907 H895 0.929 . S
C907 C901 1.390 . S
C907 C904 1.386 . S
C908 C903 1.490 . S
C908 C910 1.395 . S
C908 C911 1.397 1_565 S
H909 C915 0.930 . S
C910 H896 0.930 . S
C910 C908 1.395 . S
C910 C913 1.403 1_465 S
C911 C908 1.397 1_545 S
C911 C912 1.524 . S
C911 C915 1.405 1_455 S
C912 H897 0.960 . S
C912 H898 0.960 . S
C912 H899 0.960 1_545 S
C912 C911 1.524 . S
C913 C910 1.403 1_645 S
C913 C914 1.392 . S
C913 C917 1.496 . S
C914 C913 1.392 . S
C914 C915 1.385 . S
C914 C916 1.478 . S
C915 H909 0.930 . S
C915 C911 1.405 1_655 S
C915 C914 1.385 . S
C916 C914 1.478 . S
C916 C918 1.381 . S
C916 C922 1.383 . S
C917 C913 1.496 . S
C917 H923 0.946 1_545 S
C917 H924 0.944 1_545 S
C917 H925 0.991 . S
C918 C916 1.381 . S
C918 C919 1.394 . S
C918 H926 0.930 . S
C919 C918 1.394 . S
C919 C920 1.383 . S
C919 H927 0.929 . S
C920 C919 1.383 . S
C920 C921 1.377 . S
C921 H905 0.930 . S
C921 C920 1.377 . S
C921 C922 1.379 . S
C922 H906 0.931 1_545 S
C922 C916 1.383 . S
C922 C921 1.379 . S
H923 C917 0.946 1_565 S
H924 C917 0.944 1_565 S
H925 C917 0.991 . S
H926 C918 0.930 . S
H927 C919 0.929 . S
H928 C936 0.929 . S
H929 C938 0.930 . S
H930 C940 0.930 1_455 S
H931 C943 0.929 . S
H932 C946 0.930 . S
H933 C948 0.960 . S
H934 C948 0.960 1_655 S
H935 C948 0.960 . S
C936 H928 0.929 . S
C936 C937 1.377 . S
C936 C938 1.384 . S
C937 C936 1.377 . S
C937 C943 1.390 . S
C938 H929 0.930 . S
C938 C936 1.384 . S
C938 C939 1.372 . S
C939 C938 1.372 . S
C939 C940 1.400 . S
C939 C944 1.490 . S
C940 H930 0.930 1_655 S
C940 C939 1.400 . S
C940 C943 1.386 . S
H941 C957 0.930 . S
H942 C958 0.931 . S
C943 H931 0.929 . S
C943 C937 1.390 . S
C943 C940 1.386 . S
C944 C939 1.490 . S
C944 C946 1.395 . S
C944 C947 1.403 1_655 S
H945 C951 0.930 . S
C946 H932 0.930 . S
C946 C944 1.395 . S
C946 C949 1.403 1_545 S
C947 C944 1.403 1_455 S
C947 C948 1.524 . S
C947 C951 1.400 1_545 S
C948 H933 0.960 . S
C948 H934 0.960 1_455 S
C948 H935 0.960 . S
C948 C947 1.524 . S
C949 C946 1.403 1_565 S
C949 C950 1.392 1_655 S
C949 C953 1.495 . S
C950 C949 1.392 1_455 S
C950 C951 1.385 . S
C950 C952 1.478 . S
C951 H945 0.930 . S
C951 C947 1.400 1_565 S
C951 C950 1.385 . S
C952 C950 1.478 . S
C952 C954 1.381 . S
C952 C958 1.383 . S
C953 C949 1.495 . S
C953 H959 0.959 . S
C953 H960 0.961 . S
C953 H961 0.960 . S
C954 C952 1.381 . S
C954 C955 1.394 . S
C954 H962 0.930 1_455 S
C955 C954 1.394 . S
C955 C956 1.383 . S
C955 H963 0.929 . S
C956 C955 1.383 . S
C956 C957 1.377 . S
C957 H941 0.930 . S
C957 C956 1.377 . S
C957 C958 1.379 . S
C958 H942 0.931 . S
C958 C952 1.383 . S
C958 C957 1.379 . S
H959 C953 0.959 . S
H960 C953 0.961 . S
H961 C953 0.960 . S
H962 C954 0.930 1_655 S
H963 C955 0.929 . S
H964 C972 0.929 . S
H965 C974 0.930 . S
H966 C976 0.930 . S
H967 C979 0.929 . S
H968 C982 0.930 . S
H969 C984 0.960 1_455 S
H970 C984 0.960 . S
H971 C984 0.960 . S
C972 H964 0.929 . S
C972 C973 1.377 . S
C972 C974 1.384 . S
C973 C972 1.377 . S
C973 C979 1.390 . S
C974 H965 0.930 . S
C974 C972 1.384 . S
C974 C975 1.372 . S
C975 C974 1.372 . S
C975 C976 1.400 . S
C975 C980 1.490 . S
C976 H966 0.930 . S
C976 C975 1.400 . S
C976 C979 1.386 . S
H977 C993 0.930 . S
H978 C994 0.931 . S
C979 H967 0.929 . S
C979 C973 1.390 . S
C979 C976 1.386 . S
C980 C975 1.490 . S
C980 C982 1.395 1_565 S
C980 C983 1.403 . S
H981 C987 0.930 . S
C982 H968 0.930 . S
C982 C980 1.395 1_545 S
C982 C985 1.403 . S
C983 C980 1.403 . S
C983 C984 1.524 . S
C983 C987 1.400 1_655 S
C984 H969 0.960 1_655 S
C984 H970 0.960 . S
C984 H971 0.960 . S
C984 C983 1.524 . S
C985 C982 1.403 . S
C985 C986 1.392 1_655 S
C985 C989 1.495 . S
C986 C985 1.392 1_455 S
C986 C987 1.385 1_545 S
C986 C988 1.478 . S
C987 H981 0.930 . S
C987 C983 1.400 1_455 S
C987 C986 1.385 1_565 S
C988 C986 1.478 . S
C988 C990 1.381 . S
C988 C994 1.383 . S
C989 C985 1.495 . S
C989 H995 0.957 . S
C989 H996 0.962 1_655 S
C989 H997 0.960 1_655 S
C990 C988 1.381 . S
C990 C991 1.394 . S
C990 H998 0.930 . S
C991 C990 1.394 . S
C991 C992 1.383 . S
C991 H999 0.929 . S
C992 C991 1.383 . S
C992 C993 1.377 . S
C993 H977 0.930 . S
C993 C992 1.377 . S
C993 C994 1.379 . S
C994 H978 0.931 . S
C994 C988 1.383 . S
C994 C993 1.379 . S
H995 C989 0.957 . S
H996 C989 0.962 1_455 S
H997 C989 0.960 1_455 S
H998 C990 0.930 . S
H999 C991 0.929 . S
C433 C22 1.827 . S
C452 C128 1.817 . S
C469 C181 1.827 . S
C488 C75 1.815 . S
C505 C340 1.832 . S
C524 C234 1.841 . S
C541 C287 1.830 . S
C560 C393 1.815 . S
C577 C357 1.816 . S
C596 C39 1.820 . S
C613 C92 1.815 . S
C632 C410 1.823 . S
C649 C145 1.816 . S
C668 C251 1.820 . S
C685 C304 1.817 . S
C704 C198 1.812 . S
C721 C38 1.863 . S
C740 C303 1.849 . S
C757 C356 1.865 . S
C776 C91 1.872 . S
C793 C409 1.864 . S
C812 C144 1.849 . S
C829 C197 1.863 . S
C848 C250 1.849 . S
C865 C29 1.600 . S
C884 C135 1.606 . S
C901 C188 1.598 . S
C920 C82 1.589 . S
C937 C347 1.604 . S
C956 C241 1.591 . S
C973 C400 1.604 . S
C992 C294 1.618 . S
