# Generated by pormake.
# Topology kag, (6)-cn, num edge types: 1
# Building blocks:
#     Node 0, Type 0, BuildingBlock: KUMJIN_clean_sbu_1, # of connection points: 6
#     Node 1, Type 0, BuildingBlock: KUMJIN_clean_sbu_1, # of connection points: 6
#     Node 2, Type 0, BuildingBlock: KUMJIN_clean_sbu_1, # of connection points: 6
#     Edge 3, Type (0, 0), BuildingBlock: UVAHIK_clean_linker_0, # of connection points: 2
#     Edge 4, Type (0, 0), BuildingBlock: UVAHIK_clean_linker_0, # of connection points: 2
#     Edge 5, Type (0, 0), BuildingBlock: UVAHIK_clean_linker_0, # of connection points: 2
#     Edge 6, Type (0, 0), BuildingBlock: UVAHIK_clean_linker_0, # of connection points: 2
#     Edge 7, Type (0, 0), BuildingBlock: UVAHIK_clean_linker_0, # of connection points: 2
#     Edge 8, Type (0, 0), BuildingBlock: UVAHIK_clean_linker_0, # of connection points: 2
#     Edge 9, Type (0, 0), BuildingBlock: UVAHIK_clean_linker_0, # of connection points: 2
#     Edge 10, Type (0, 0), BuildingBlock: UVAHIK_clean_linker_0, # of connection points: 2
#     Edge 11, Type (0, 0), BuildingBlock: UVAHIK_clean_linker_0, # of connection points: 2
# Relax obj value: 0.073
# Max RMSD: 0.170
# Mean RMSD: 0.112
data_MOF--net-kag--node1-KUMJIN_clean_sbu_1--edge1-UVAHIK_clean_linker_0
_symmetry_space_group_name_H-M    P1
_symmetry_Int_Tables_number       1
_symmetry_cell_setting            triclinic
loop_
_symmetry_equiv_pos_as_xyz
'x, y, z'
_cell_length_a     39.677176
_cell_length_b     49.24837
_cell_length_c     19.458977
_cell_angle_alpha  108.76569
_cell_angle_beta   96.607798
_cell_angle_gamma 102.6464
loop_
_atom_site_label
_atom_site_type_symbol
_atom_site_fract_x
_atom_site_fract_y
_atom_site_fract_z
_atom_type_partial_charge
Eu0 Eu 0.04744 0.54192 0.04994 0.0
C1 C 0.06237 0.4135 0.86332 0.0
N2 N 0.03876 0.42843 0.84992 0.0
C3 C 0.04186 0.41241 0.72135 0.0
C4 C 0.07738 0.39803 0.80589 0.0
C5 C 1.02753 0.42729 0.7799 0.0
C6 C 0.06711 0.39791 0.73447 0.0
C7 C 0.09654 0.39887 0.95049 0.0
C8 C 0.07183 0.41383 0.93496 0.0
C9 C 0.11162 0.38361 0.89338 0.0
C10 C 0.1021 0.38319 0.82138 0.0
Eu11 Eu 1.01621 0.45248 0.95272 0.0
N12 N 0.05789 0.42981 0.99004 0.0
C13 C 0.10551 0.39983 0.02312 0.0
C14 C 0.06539 0.42976 0.06019 0.0
C15 C 0.08963 0.41512 0.078 0.0
H16 H 1.00666 0.43696 0.76872 0.0
H17 H 0.09584 0.41545 0.13396 0.0
H18 H 0.03061 0.55235 0.2191 0.0
H19 H 0.9923 0.57685 0.83104 0.0
H20 H 0.05251 0.44061 0.10245 0.0
H21 H 0.12436 0.38858 0.03724 0.0
H22 H 0.03453 0.55817 0.8925 0.0
H23 H 0.03307 0.41178 0.66596 0.0
H24 H 0.13073 0.37205 0.90436 0.0
H25 H 0.11398 0.37128 0.77796 0.0
H26 H 0.99036 0.57384 0.29502 0.0
H27 H 0.07809 0.38631 0.68892 0.0
H28 H 0.94608 0.59413 0.89378 0.0
N29 N 1.00906 0.56009 0.12442 0.0
C30 C 0.98622 0.57222 0.09478 0.0
C31 C 0.98878 0.57335 0.23871 0.0
C32 C 0.96283 0.5847 0.13601 0.0
C33 C 1.01132 0.56103 0.19566 0.0
C34 C 0.96429 0.5851 0.20866 0.0
N35 N 1.00949 0.56026 0.98453 0.0
C36 C 1.01304 0.56339 0.9183 0.0
C37 C 0.96222 0.58402 0.99079 0.0
C38 C 0.98592 0.57171 0.02256 0.0
C39 C 0.96383 0.58485 0.92002 0.0
C40 C 0.98972 0.57494 0.88419 0.0
H41 H 0.94677 0.59453 0.24208 0.0
H42 H 0.92037 0.60576 0.13423 0.0
H43 H 0.91989 0.60525 0.0074 0.0
O44 O 0.07713 0.58512 0.05055 0.0
O45 O 0.99256 0.51513 0.05182 0.0
O46 O 0.9771 0.47877 0.93765 0.0
O47 O 0.08193 0.57483 0.15226 0.0
O48 O 0.05443 0.52179 0.93116 0.0
O49 O 1.00753 0.47977 0.88202 0.0
O50 O 0.97748 0.42418 0.98967 0.0
O51 O 0.07616 0.47231 0.97936 0.0
O52 O 0.09439 0.52414 0.02764 0.0
O53 O 0.98339 0.40955 0.87547 0.0
O54 O 1.01545 0.47219 0.075 0.0
O55 O 0.06106 0.51534 0.11933 0.0
C56 C 0.9682 0.49704 0.99381 0.0
C57 C 0.11627 0.62353 0.16055 0.0
C58 C 0.16224 0.66534 0.16082 0.0
C59 C 0.16784 0.67748 0.23837 0.0
C60 C 0.12194 0.63601 0.23813 0.0
C61 C 0.14746 0.66299 0.27671 0.0
C62 C 0.13608 0.63859 0.12193 0.0
C63 C 0.03217 0.5005 0.87407 0.0
C64 C 0.09141 0.59405 0.12051 0.0
C65 C 0.93871 0.59626 0.10358 0.0
C66 C 0.93836 0.59586 0.03121 0.0
C67 C 0.10075 0.49794 0.00375 0.0
C68 C 0.92674 0.39551 0.89819 0.0
C69 C 0.86929 0.3643 0.89388 0.0
C70 C 0.85336 0.37824 0.85168 0.0
C71 C 0.91063 0.4089 0.855 0.0
C72 C 0.9061 0.37327 0.9174 0.0
C73 C 0.87402 0.40042 0.83235 0.0
C74 C 0.03892 0.49363 0.12964 0.0
C75 C 0.96503 0.40433 0.92322 0.0
H76 H 0.18798 0.69814 0.26911 0.0
H77 H 0.10686 0.62479 0.26895 0.0
H78 H 0.15181 0.67248 0.33653 0.0
H79 H 0.13227 0.62895 0.06209 0.0
H80 H 0.82504 0.37163 0.8325 0.0
H81 H 0.92639 0.42577 0.83861 0.0
H82 H 0.91874 0.36312 0.95109 0.0
H83 H 0.86167 0.41089 0.7993 0.0
Eu84 Eu 0.4767 0.97705 0.95562 0.0
C85 C 0.62512 0.96918 0.05983 0.0
N86 N 0.60871 0.98871 0.09911 0.0
C87 C 0.6246 0.97762 0.20753 0.0
C88 C 0.64116 0.95236 0.09297 0.0
C89 C 0.60874 0.99359 0.1722 0.0
C90 C 0.6407 0.95678 0.16765 0.0
C91 C 0.6414 0.94499 0.94366 0.0
C92 C 0.62468 0.96528 0.98549 0.0
C93 C 0.65696 0.9279 0.97625 0.0
C94 C 0.65681 0.93155 0.05061 0.0
Eu95 Eu 0.58126 0.01369 0.03461 0.0
N96 N 0.6089 0.98182 0.95479 0.0
C97 C 0.64277 0.94297 0.87074 0.0
C98 C 0.61338 0.98195 0.88626 0.0
C99 C 0.62937 0.96199 0.84253 0.0
H100 H 0.59658 0.00988 0.20304 0.0
H101 H 0.63198 0.96173 0.78757 0.0
H102 H 0.46122 0.97976 0.78616 0.0
H103 H 0.42434 0.02856 0.2005 0.0
H104 H 0.60581 -0.00208 0.86525 0.0
H105 H 0.65538 0.92767 0.83684 0.0
H106 H 0.45233 0.99338 0.12516 0.0
H107 H 0.62434 0.98135 0.26538 0.0
H108 H 0.66962 0.91205 0.94463 0.0
H109 H 0.66908 0.91828 0.07498 0.0
H110 H 0.4316 0.00651 0.72122 0.0
H111 H 0.65274 0.94426 0.19504 0.0
H112 H 0.39862 0.06078 0.14823 0.0
N113 N 0.44818 0.00076 0.88915 0.0
C114 C 0.43075 0.01967 0.92717 0.0
C115 C 0.4313 0.01051 0.77916 0.0
C116 C 0.41344 0.03535 0.8924 0.0
C117 C 0.44827 0.99559 0.816 0.0
C118 C 0.41393 0.03058 0.81758 0.0
N119 N 0.44805 0.00842 0.03391 0.0
C120 C 0.44385 0.00867 0.10285 0.0
C121 C 0.41334 0.04357 0.04216 0.0
C122 C 0.43121 0.02398 0.00171 0.0
C123 C 0.4121 0.046 0.11538 0.0
C124 C 0.42681 0.02802 0.14528 0.0
H125 H 0.40095 0.04224 0.78897 0.0
H126 H 0.38329 0.06782 0.90768 0.0
H127 H 0.38289 0.07481 0.03844 0.0
O128 O 0.43852 0.94206 0.97459 0.0
O129 O 0.50014 0.02397 0.95696 0.0
O130 O 0.54383 0.04276 0.06009 0.0
O131 O 0.43342 0.94581 0.86683 0.0
O132 O 0.49927 0.97987 0.07195 0.0
O133 O 0.54615 0.02228 0.11857 0.0
O134 O 0.62002 0.04885 0.01751 0.0
O135 O 0.55685 0.96717 0.03401 0.0
O136 O 0.51418 0.94799 0.92917 0.0
O137 O 0.62481 0.04392 0.12396 0.0
O138 O 0.55887 0.01148 0.91887 0.0
O139 O 0.51195 0.96911 0.87169 0.0
C140 C 0.52289 0.04679 0.00927 0.0
C141 C 0.41765 0.89742 0.87095 0.0
C142 C 0.39147 0.84705 0.86591 0.0
C143 C 0.41048 0.83595 0.81173 0.0
C144 C 0.43593 0.88591 0.81555 0.0
C145 C 0.43237 0.85532 0.78634 0.0
C146 C 0.3952 0.87785 0.89536 0.0
C147 C 0.52203 0.00149 0.12806 0.0
C148 C 0.42251 0.92971 0.90536 0.0
C149 C 0.39656 0.05545 0.93333 0.0
C150 C 0.39649 0.05953 0.00793 0.0
C151 C 0.53545 0.9442 0.97989 0.0
C152 C 0.64167 0.0929 0.12337 0.0
C153 C 0.66444 0.1433 0.12456 0.0
C154 C 0.6525 0.15461 0.19054 0.0
C155 C 0.63025 0.10468 0.18977 0.0
C156 C 0.65868 0.11232 0.09112 0.0
C157 C 0.6355 0.13536 0.22274 0.0
C158 C 0.53594 0.99012 0.86264 0.0
C159 C 0.63598 0.06053 0.08682 0.0
H160 H 0.40798 0.81228 0.7883 0.0
H161 H 0.45345 0.90056 0.79573 0.0
H162 H 0.44681 0.84663 0.74427 0.0
H163 H 0.38111 0.88665 0.9382 0.0
H164 H 0.65692 0.17837 0.21813 0.0
H165 H 0.61686 0.09023 0.21581 0.0
H166 H 0.66722 0.10322 0.03962 0.0
H167 H 0.62652 0.14428 0.27365 0.0
Eu168 Eu 0.51788 0.45192 0.96311 0.0
C169 C 0.62339 0.58044 0.1385 0.0
N170 N 0.58969 0.56988 0.14499 0.0
C171 C 0.60558 0.59476 0.27675 0.0
C172 C 0.64975 0.59835 0.20177 0.0
C173 C 0.58027 0.57732 0.21247 0.0
C174 C 0.64051 0.60519 0.27146 0.0
C175 C 0.66624 0.58445 0.05988 0.0
C176 C 0.63163 0.57351 0.06823 0.0
C177 C 0.69252 0.60217 0.1229 0.0
C178 C 0.68433 0.60904 0.19358 0.0
Eu179 Eu 0.54936 0.54124 0.03274 0.0
N180 N 0.60596 0.55546 0.00817 0.0
C181 C 0.6734 0.57721 0.98835 0.0
C182 C 0.61239 0.54932 0.93825 0.0
C183 C 0.64629 0.55977 0.92727 0.0
H184 H 0.55309 0.57046 0.21678 0.0
H185 H 0.65142 0.55457 0.87172 0.0
H186 H 0.50814 0.42545 0.77664 0.0
H187 H 0.42206 0.43846 0.13781 0.0
H188 H 0.59139 0.53661 0.89099 0.0
H189 H 0.69966 0.58524 0.97963 0.0
H190 H 0.48053 0.45597 0.11151 0.0
H191 H 0.59805 0.60045 0.33024 0.0
H192 H 0.7193 0.61071 0.11756 0.0
H193 H 0.70491 0.6228 0.24161 0.0
H194 H 0.46039 0.39662 0.66759 0.0
H195 H 0.66003 0.61885 0.32138 0.0
H196 H 0.37148 0.40854 0.03435 0.0
N197 N 0.47466 0.42479 0.85431 0.0
C198 C 0.44182 0.41398 0.86494 0.0
C199 C 0.45476 0.40155 0.72274 0.0
C200 C 0.41391 0.39678 0.80405 0.0
C201 C 0.48167 0.41834 0.78469 0.0
C202 C 0.42071 0.39083 0.73239 0.0
N203 N 0.46287 0.43808 0.99489 0.0
C204 C 0.45852 0.44389 0.06615 0.0
C205 C 0.40206 0.40954 0.94945 0.0
C206 C 0.43588 0.42039 0.93705 0.0
C207 C 0.39706 0.41648 0.02254 0.0
C208 C 0.42549 0.43354 0.08111 0.0
H209 H 0.39995 0.37773 0.68422 0.0
H210 H 0.35846 0.37282 0.77025 0.0
H211 H 0.34813 0.38392 0.89733 0.0
O212 O 0.52913 0.42404 0.02556 0.0
O213 O 0.47526 0.47652 0.9547 0.0
O214 O 0.49372 0.52329 0.04665 0.0
O215 O 0.5209 0.4066 0.9062 0.0
O216 O 0.54412 0.47936 0.08351 0.0
O217 O 0.52673 0.52259 0.11459 0.0
O218 O 0.53974 0.56777 0.96552 0.0
O219 O 0.59212 0.51671 0.04118 0.0
O220 O 0.57366 0.46982 0.94973 0.0
O221 O 0.544 0.58629 0.08393 0.0
O222 O 0.52294 0.51324 0.91307 0.0
O223 O 0.54077 0.47038 0.88101 0.0
C224 C 0.46856 0.50036 -0.00018 0.0
C225 C 0.55611 0.38635 0.9714 0.0
C226 C 0.57433 0.34319 0.98163 0.0
C227 C 0.60911 0.35762 0.98145 0.0
C228 C 0.59092 0.4003 0.97158 0.0
C229 C 0.61724 0.3859 0.97635 0.0
C230 C 0.54781 0.35777 0.97608 0.0
C231 C 0.5353 0.50093 0.1317 0.0
C232 C 0.52825 0.40142 0.96693 0.0
C233 C 0.3802 0.38606 0.8164 0.0
C234 C 0.37431 0.39236 0.88882 0.0
C235 C 0.5988 0.49277 -0.00351 0.0
C236 C 0.51003 0.60443 0.0101 0.0
C237 C 0.49133 0.64657 0.9941 0.0
C238 C 0.45602 0.63028 0.98307 0.0
C239 C 0.47468 0.58865 -0.001 0.0
C240 C 0.51833 0.63348 0.00824 0.0
C241 C 0.44784 0.60161 0.98585 0.0
C242 C 0.5333 0.4927 0.86531 0.0
C243 C 0.53842 0.59057 0.02146 0.0
H244 H 0.63004 0.34689 0.98448 0.0
H245 H 0.59768 0.42227 0.96808 0.0
H246 H 0.64408 0.39672 0.97613 0.0
H247 H 0.52089 0.34717 0.97666 0.0
H248 H 0.43468 0.63984 0.97288 0.0
H249 H 0.4679 0.56627 3e-05 0.0
H250 H 0.54568 0.64556 0.01612 0.0
H251 H 0.42057 0.58934 0.97743 0.0
C252 C 1.00269 0.48697 0.74212 0.0
C253 C 0.03285 0.5014 0.79892 0.0
C254 C 1.00371 0.48647 0.67026 0.0
C255 C 0.051 0.52537 0.56293 0.0
H256 H 1.01286 0.44981 0.39987 0.0
C257 C 0.06782 0.5123 0.26398 0.0
C258 C 0.03933 0.49384 0.20601 0.0
C259 C 0.06755 0.51315 0.33643 0.0
C260 C 1.0232 0.47118 0.44455 0.0
H261 H 0.08726 0.52775 0.82567 0.0
H262 H 0.08887 0.52733 0.70001 0.0
H263 H 1.01079 0.45216 0.5263 0.0
H264 H 0.98808 0.46187 0.17878 0.0
H265 H 0.98723 0.46381 0.30499 0.0
H266 H 0.06283 0.54459 0.48144 0.0
C267 C 0.06456 0.51614 0.71114 0.0
C268 C 1.02208 0.47249 0.51703 0.0
C269 C 0.06366 0.51635 0.78297 0.0
C270 C 1.01063 0.47614 0.22202 0.0
C271 C 1.01021 0.47717 0.2945 0.0
C272 C 0.05184 0.52414 0.49036 0.0
C273 C 0.03473 0.50086 0.65386 0.0
C274 C 0.03598 0.49958 0.57698 0.0
C275 C 0.03864 0.49572 0.35275 0.0
C276 C 0.03797 0.49702 0.43017 0.0
H277 H 0.97829 0.4758 0.75303 0.0
H278 H 0.98013 0.47496 0.62752 0.0
H279 H 0.06154 0.54663 0.60802 0.0
H280 H 0.09041 0.52612 0.25344 0.0
H281 H 0.09017 0.52731 0.37955 0.0
C282 C 0.54041 0.02629 0.2664 0.0
C283 C 0.52197 0.00113 0.20396 0.0
C284 C 0.54192 0.02526 0.33769 0.0
C285 C 0.53195 0.97196 0.43646 0.0
H286 H 0.52452 0.03921 0.5998 0.0
C287 C 0.51809 0.96556 0.72419 0.0
C288 C 0.53617 0.99069 0.78697 0.0
C289 C 0.51682 0.96677 0.65309 0.0
C290 C 0.52707 0.02036 0.555 0.0
H291 H 0.49021 0.9553 0.16764 0.0
H292 H 0.49233 0.95368 0.29181 0.0
H293 H 0.52094 0.04174 0.47618 0.0
H294 H 0.56762 0.03666 0.82414 0.0
H295 H 0.56596 0.03857 0.7003 0.0
H296 H 0.5381 0.95058 0.51523 0.0
C297 C 0.5061 0.97408 0.28572 0.0
C298 C 0.52499 0.02181 0.48406 0.0
C299 C 0.50458 0.97511 0.21451 0.0
C300 C 0.5535 0.01686 0.77697 0.0
C301 C 0.55224 0.01807 0.70595 0.0
C302 C 0.53404 0.97051 0.50739 0.0
C303 C 0.52501 -0.00095 0.3482 0.0
C304 C 0.52734 -0.00239 0.42386 0.0
C305 C 0.53367 0.99311 0.6431 0.0
C306 C 0.53161 0.99468 0.56758 0.0
H307 H 0.5541 0.04669 0.26017 0.0
H308 H 0.55699 0.04482 0.38449 0.0
H309 H 0.53447 0.9531 0.39164 0.0
H310 H 0.50449 0.94504 0.72998 0.0
H311 H 0.50198 0.94722 0.60603 0.0
C312 C 0.54931 0.47483 0.7405 0.0
C313 C 0.53347 0.49336 0.78979 0.0
C314 C 0.54982 0.47589 0.66965 0.0
C315 C 0.50511 0.49891 0.52933 0.0
H316 H 0.58998 0.49691 0.44924 0.0
C317 C 0.52002 0.51958 0.25702 0.0
C318 C 0.53621 0.50121 0.20824 0.0
C319 C 0.52016 0.51914 0.32855 0.0
C320 C 0.56594 0.49718 0.47046 0.0
H321 H 0.50608 0.52781 0.80351 0.0
H322 H 0.50721 0.52977 0.68037 0.0
H323 H 0.5891 0.49468 0.57246 0.0
H324 H 0.56498 0.46775 0.19618 0.0
H325 H 0.56479 0.4667 0.32032 0.0
H326 H 0.48187 0.50127 0.42729 0.0
C327 C 0.51878 0.5141 0.69602 0.0
C328 C 0.56545 0.49588 0.54108 0.0
C329 C 0.51834 0.51309 0.76682 0.0
C330 C 0.55243 0.48232 0.23247 0.0
C331 C 0.55254 0.48186 0.30389 0.0
C332 C 0.50558 0.50015 0.45868 0.0
C333 C 0.53451 0.49552 0.64657 0.0
C334 C 0.53502 0.49673 0.57133 0.0
C335 C 0.53635 0.50022 0.35278 0.0
C336 C 0.536 0.49929 0.42836 0.0
H337 H 0.56154 0.45962 0.75675 0.0
H338 H 0.5619 0.46111 0.63265 0.0
H339 H 0.48108 0.49918 0.5506 0.0
H340 H 0.50682 0.53405 0.23974 0.0
H341 H 0.50771 0.53375 0.365 0.0
C342 C 0.16583 0.52127 0.05504 0.0
C343 C 0.13833 0.49756 0.00428 0.0
C344 C 0.20123 0.52132 0.05515 0.0
C345 C 0.25966 0.48763 0.93631 0.0
H346 H 0.32724 0.51768 0.12182 0.0
C347 C 0.40356 0.47912 0.9433 0.0
C348 C 0.43091 0.50073 -0.00049 0.0
C349 C 0.36813 0.47841 0.94467 0.0
C350 C 0.30903 0.50962 0.0692 0.0
H351 H 0.12708 0.45582 0.91222 0.0
H352 H 0.18841 0.4554 0.91327 0.0
H353 H 0.26584 0.51698 0.12281 0.0
H354 H 0.44195 0.5396 0.09985 0.0
H355 H 0.38059 0.53958 0.10006 0.0
H356 H 0.30269 0.48076 0.88238 0.0
C357 C 0.18272 0.47407 0.95319 0.0
C358 C 0.27354 0.50913 0.06986 0.0
C359 C 0.14732 0.47401 0.95332 0.0
C360 C 0.42172 0.52238 0.05584 0.0
C361 C 0.38626 0.52211 0.0564 0.0
C362 C 0.29518 0.48835 0.93557 0.0
C363 C 0.2103 0.49776 0.0041 0.0
C364 C 0.24824 0.4981 0.00344 0.0
C365 C 0.35873 0.49994 0.00114 0.0
C366 C 0.32058 0.49932 0.00201 0.0
H367 H 0.15999 0.53986 0.09506 0.0
H368 H 0.22155 0.54018 0.09456 0.0
H369 H 0.24125 0.47941 0.88385 0.0
H370 H 0.40941 0.46259 0.89774 0.0
H371 H 0.34815 0.46064 0.90147 0.0
C372 C 0.67321 0.1892 0.09139 0.0
C373 C 0.68374 0.16381 0.09186 0.0
C374 C 0.69234 0.20916 0.06355 0.0
C375 C 0.78113 0.23487 0.03215 0.0
H376 H 0.73531 0.27191 0.91465 0.0
C377 C 0.85861 0.31449 0.90761 0.0
C378 C 0.84772 0.34028 0.9131 0.0
C379 C 0.83838 0.29187 0.92603 0.0
C380 C 0.74844 0.26192 0.94797 0.0
H381 H 0.7226 0.13939 0.0631 0.0
H382 H 0.75572 0.17405 0.01366 0.0
H383 H 0.69966 0.23363 0.9506 0.0
H384 H 0.80759 0.36292 0.94338 0.0
H385 H 0.77219 0.3234 0.97568 0.0
H386 H 0.82989 0.26336 0.03021 0.0
C387 C 0.73274 0.17857 0.03523 0.0
C388 C 0.72805 0.24001 0.96843 0.0
C389 C 0.71353 0.15856 0.0628 0.0
C390 C 0.81628 0.34306 0.93746 0.0
C391 C 0.79605 0.32045 0.9559 0.0
C392 C 0.80152 0.25679 0.01171 0.0
C393 C 0.72257 0.20423 0.03606 0.0
C394 C 0.74418 0.22642 0.01118 0.0
C395 C 0.80686 0.29461 0.95022 0.0
C396 C 0.78535 0.27069 0.96991 0.0
H397 H 0.6503 0.19379 0.11305 0.0
H398 H 0.68402 0.22887 0.06547 0.0
H399 H 0.79427 0.2251 0.06606 0.0
H400 H 0.88254 0.3116 0.88809 0.0
H401 H 0.84715 0.27206 0.92031 0.0
C402 C 0.54853 0.90941 0.0431 0.0
C403 C 0.5337 0.91369 0.97943 0.0
C404 C 0.54591 0.88066 0.04368 0.0
C405 C 0.49106 0.8034 0.95433 0.0
H406 H 0.57148 0.78248 0.03479 0.0
C407 C 0.481 0.68218 0.93155 0.0
C408 C 0.4995 0.67695 0.98989 0.0
C409 C 0.48687 0.7109 0.9292 0.0
C410 C 0.54854 0.78795 0.01313 0.0
H411 H 0.50591 0.89106 0.86563 0.0
H412 H 0.49977 0.8408 0.86745 0.0
H413 H 0.57825 0.83281 0.0338 0.0
H414 H 0.53919 0.69777 0.09103 0.0
H415 H 0.54877 0.74814 0.08856 0.0
H416 H 0.46088 0.7592 0.93582 0.0
C417 C 0.51335 0.85974 0.91708 0.0
C418 C 0.55253 0.81685 0.01229 0.0
C419 C 0.51658 0.88852 0.91613 0.0
C420 C 0.52464 0.70108 0.04514 0.0
C421 C 0.53018 0.72998 0.04344 0.0
C422 C 0.48689 0.77471 0.95622 0.0
C423 C 0.52793 0.85547 0.98094 0.0
C424 C 0.52386 0.82485 0.98244 0.0
C425 C 0.51106 0.73541 0.98581 0.0
C426 C 0.51563 0.76638 0.98508 0.0
H427 H 0.56162 0.92826 0.09315 0.0
H428 H 0.55718 0.87816 0.09396 0.0
H429 H 0.4684 0.809 0.9319 0.0
H430 H 0.46191 0.66396 0.88741 0.0
H431 H 0.47234 0.71378 0.88265 0.0
C432 C 0.90445 0.48212 0.92784 0.0
C433 C 0.9302 0.49636 0.99346 0.0
C434 C 0.86877 0.48119 0.92797 0.0
C435 C 0.80544 0.49813 0.05876 0.0
H436 H 0.74325 0.4877 0.87803 0.0
C437 C 0.66359 0.51258 0.0559 0.0
C438 C 0.63649 0.49254 -0.00353 0.0
C439 C 0.69907 0.51313 0.05502 0.0
C440 C 0.76013 0.49042 0.929 0.0
H441 H 0.93798 0.52074 0.11105 0.0
H442 H 0.87731 0.52197 0.11062 0.0
H443 H 0.80476 0.48918 0.87751 0.0
H444 H 0.62594 0.45702 0.88959 0.0
H445 H 0.68765 0.45763 0.88851 0.0
H446 H 0.76067 0.50035 0.11039 0.0
C447 C 0.8838 0.51007 0.0589 0.0
C448 C 0.79575 0.49111 0.92879 0.0
C449 C 0.9192 0.51004 0.05904 0.0
C450 C 0.64597 0.47279 0.93643 0.0
C451 C 0.6815 0.47333 0.9355 0.0
C452 C 0.77 0.49797 0.05917 0.0
C453 C 0.85763 0.49538 0.99345 0.0
C454 C 0.81924 0.49486 0.99364 0.0
C455 C 0.70866 0.49352 0.9948 0.0
C456 C 0.7467 0.49399 0.99427 0.0
H457 H 0.91184 0.47173 0.87592 0.0
H458 H 0.85003 0.469 0.87628 0.0
H459 H 0.8217 0.50032 0.10984 0.0
H460 H 0.65743 0.5279 0.10356 0.0
H461 H 0.71907 0.52925 0.10138 0.0
C462 C 0.22102 0.6823 0.13284 0.0
C463 C 0.18486 0.68002 0.12106 0.0
C464 C 0.24306 0.69757 0.09857 0.0
C465 C 0.2429 0.73189 0.95301 0.0
H466 H 0.33554 0.77884 0.0711 0.0
C467 C 0.33285 0.82801 0.89376 0.0
C468 C 0.36768 0.82653 0.89169 0.0
C469 C 0.31027 0.80849 0.91764 0.0
C470 C 0.30984 0.76565 0.03739 0.0
H471 H 0.14281 0.69089 0.06345 0.0
H472 H 0.18147 0.719 0.00606 0.0
H473 H 0.29629 0.74741 0.11927 0.0
H474 H 0.40641 0.8039 0.91346 0.0
H475 H 0.36711 0.77015 0.9571 0.0
H476 H 0.25635 0.75151 0.87266 0.0
C477 C 0.19291 0.70838 0.03996 0.0
C478 C 0.28736 0.74744 0.0646 0.0
C479 C 0.17075 0.69253 0.07315 0.0
C480 C 0.37964 0.80536 0.91433 0.0
C481 C 0.35727 0.78619 0.93946 0.0
C482 C 0.26521 0.75056 0.92641 0.0
C483 C 0.22948 0.71149 0.05317 0.0
C484 C 0.25359 0.73025 0.02277 0.0
C485 C 0.32237 0.78754 0.94101 0.0
C486 C 0.29885 0.76753 0.9684 0.0
H487 H 0.23221 0.67234 0.16888 0.0
H488 H 0.27083 0.69868 0.10834 0.0
H489 H 0.21737 0.71866 0.91865 0.0
H490 H 0.32301 0.84408 0.87618 0.0
H491 H 0.28352 0.81005 0.91896 0.0
C492 C 0.53659 0.29016 0.94235 0.0
C493 C 0.56621 0.31311 0.9879 0.0
C494 C 0.5306 0.26142 0.94527 0.0
C495 C 0.57789 0.21312 0.00833 0.0
H496 H 0.4835 0.16262 0.97816 0.0
C497 C 0.55036 0.10225 0.06357 0.0
C498 C 0.52629 0.07737 0.00818 0.0
C499 C 0.55473 0.13085 0.06075 0.0
C500 C 0.51001 0.17642 0.98621 0.0
H501 H 0.61163 0.32417 0.07508 0.0
H502 H 0.60092 0.27458 0.08143 0.0
H503 H 0.4915 0.21286 0.97537 0.0
H504 H 0.48806 0.06335 0.90588 0.0
H505 H 0.49441 0.11331 0.90285 0.0
H506 H 0.59619 0.17663 0.01975 0.0
C507 C 0.58287 0.2783 0.04147 0.0
C508 C 0.51465 0.20523 0.98437 0.0
C509 C 0.58897 0.30687 0.0381 0.0
C510 C 0.50629 0.08194 0.95038 0.0
C511 C 0.51006 0.11061 0.94838 0.0
C512 C 0.57321 0.18446 0.01077 0.0
C513 C 0.55394 0.25497 0.99429 0.0
C514 C 0.54869 0.22408 0.99565 0.0
C515 C 0.53452 0.13539 0.00323 0.0
C516 C 0.53927 0.16581 4e-05 0.0
H517 H 0.51863 0.29416 0.90274 0.0
H518 H 0.5082 0.24409 0.90753 0.0
H519 H 0.6045 0.22651 0.0154 0.0
H520 H 0.56591 0.09962 0.10914 0.0
H521 H 0.57366 0.14951 0.10416 0.0
loop_
_geom_bond_atom_site_label_1
_geom_bond_atom_site_label_2
_geom_bond_distance
_geom_bond_site_symmetry_2
_ccdc_geom_bond_type
Eu0 N29 2.600 . S
Eu0 N35 2.562 1_455 S
Eu0 O44 2.462 1_554 S
Eu0 O45 2.373 1_455 S
Eu0 O47 2.432 . S
Eu0 O48 2.291 1_554 S
Eu0 O52 2.335 . S
Eu0 O55 2.372 . S
Eu0 C64 2.787 . S
C1 N2 1.359 1_455 S
C1 C4 1.405 . S
C1 C8 1.448 . S
N2 C1 1.359 1_655 S
N2 C5 1.320 . S
N2 Eu11 2.605 . S
C3 C5 1.397 1_455 S
C3 C6 1.367 . S
C3 H23 0.931 1_455 S
C4 C1 1.405 . S
C4 C6 1.403 . S
C4 C10 1.439 . S
C5 N2 1.320 . S
C5 C3 1.397 1_655 S
C5 H16 0.930 . S
C6 C3 1.367 . S
C6 C4 1.403 . S
C6 H27 0.929 . S
C7 C8 1.430 . S
C7 C9 1.387 . S
C7 C13 1.404 1_556 S
C8 C1 1.448 . S
C8 C7 1.430 . S
C8 N12 1.351 . S
C9 C7 1.387 . S
C9 C10 1.374 . S
C9 H24 0.931 . S
C10 C4 1.439 . S
C10 C9 1.374 . S
C10 H25 0.931 . S
Eu11 N2 2.605 . S
Eu11 N12 2.562 1_655 S
Eu11 O46 2.335 . S
Eu11 O49 2.372 . S
Eu11 O50 2.462 1_556 S
Eu11 O51 2.373 1_655 S
Eu11 O53 2.432 . S
Eu11 O54 2.290 1_656 S
Eu11 C75 2.787 . S
N12 C8 1.351 . S
N12 Eu11 2.562 1_455 S
N12 C14 1.325 1_556 S
C13 C7 1.404 1_554 S
C13 C15 1.366 . S
C13 H21 0.930 . S
C14 N12 1.325 1_554 S
C14 C15 1.416 . S
C14 H20 0.929 . S
C15 C13 1.366 . S
C15 C14 1.416 . S
C15 H17 0.930 . S
H16 C5 0.930 . S
H17 C15 0.930 . S
H18 C33 0.930 . S
H19 C40 0.930 . S
H20 C14 0.929 . S
H21 C13 0.930 . S
H22 C36 0.929 . S
H23 C3 0.931 1_655 S
H24 C9 0.931 . S
H25 C10 0.931 . S
H26 C31 0.931 1_455 S
H27 C6 0.929 . S
H28 C39 0.930 . S
N29 Eu0 2.600 . S
N29 C30 1.365 1_455 S
N29 C33 1.319 . S
C30 N29 1.365 1_655 S
C30 C32 1.405 . S
C30 C38 1.448 . S
C31 H26 0.931 1_655 S
C31 C33 1.397 1_655 S
C31 C34 1.367 . S
C32 C30 1.405 . S
C32 C34 1.403 . S
C32 C65 1.439 . S
C33 H18 0.930 . S
C33 N29 1.319 . S
C33 C31 1.397 1_455 S
C34 C31 1.367 . S
C34 C32 1.403 . S
C34 H41 0.929 . S
N35 Eu0 2.562 1_655 S
N35 C36 1.325 1_554 S
N35 C38 1.351 . S
C36 H22 0.929 . S
C36 N35 1.325 1_556 S
C36 C40 1.416 . S
C37 C38 1.430 . S
C37 C39 1.404 1_554 S
C37 C66 1.387 . S
C38 C30 1.448 . S
C38 N35 1.351 . S
C38 C37 1.430 . S
C39 H28 0.930 . S
C39 C37 1.404 1_556 S
C39 C40 1.366 . S
C40 H19 0.930 . S
C40 C36 1.416 . S
C40 C39 1.366 . S
H41 C34 0.929 . S
H42 C65 0.931 . S
H43 C66 0.931 . S
O44 Eu0 2.462 1_556 S
O44 C64 1.252 1_556 S
O45 Eu0 2.373 1_655 S
O45 C56 1.248 . S
O46 Eu11 2.335 . S
O46 C56 1.264 1_556 S
O47 Eu0 2.432 . S
O47 C64 1.268 . S
O48 Eu0 2.291 1_556 S
O48 C63 1.256 1_455 S
O49 Eu11 2.372 . S
O49 C63 1.257 . S
O50 Eu11 2.462 1_554 S
O50 C75 1.252 1_554 S
O51 Eu11 2.373 1_455 S
O51 C67 1.249 1_556 S
O52 Eu0 2.335 . S
O52 C67 1.264 . S
O53 Eu11 2.432 . S
O53 C75 1.268 . S
O54 Eu11 2.290 1_454 S
O54 C74 1.253 . S
O55 Eu0 2.372 . S
O55 C74 1.257 . S
C56 O45 1.248 . S
C56 O46 1.264 1_554 S
C57 C60 1.382 . S
C57 C62 1.390 . S
C57 C64 1.506 . S
C58 C59 1.398 . S
C58 C62 1.392 . S
C59 C58 1.398 . S
C59 C61 1.372 . S
C59 H76 0.931 . S
C60 C57 1.382 . S
C60 C61 1.390 . S
C60 H77 0.931 . S
C61 C59 1.372 . S
C61 C60 1.390 . S
C61 H78 0.929 . S
C62 C57 1.390 . S
C62 C58 1.392 . S
C62 H79 0.930 1_554 S
C63 O48 1.256 1_655 S
C63 O49 1.257 . S
C64 Eu0 2.787 . S
C64 O44 1.252 1_554 S
C64 O47 1.268 . S
C64 C57 1.506 . S
C65 C32 1.439 . S
C65 H42 0.931 . S
C65 C66 1.374 . S
C66 C37 1.387 . S
C66 H43 0.931 . S
C66 C65 1.374 . S
C67 O51 1.249 1_554 S
C67 O52 1.264 . S
C68 C71 1.382 . S
C68 C72 1.390 . S
C68 C75 1.506 . S
C69 C70 1.398 . S
C69 C72 1.392 . S
C70 C69 1.398 . S
C70 C73 1.372 . S
C70 H80 0.931 . S
C71 C68 1.382 . S
C71 C73 1.390 . S
C71 H81 0.931 . S
C72 C68 1.390 . S
C72 C69 1.392 . S
C72 H82 0.930 1_556 S
C73 C70 1.372 . S
C73 C71 1.390 . S
C73 H83 0.929 . S
C74 O54 1.253 . S
C74 O55 1.257 . S
C75 Eu11 2.787 . S
C75 O50 1.252 1_556 S
C75 O53 1.268 . S
C75 C68 1.506 . S
H76 C59 0.931 . S
H77 C60 0.931 . S
H78 C61 0.929 . S
H79 C62 0.930 1_556 S
H80 C70 0.931 . S
H81 C71 0.931 . S
H82 C72 0.930 1_554 S
H83 C73 0.929 . S
Eu84 N113 2.600 . S
Eu84 N119 2.562 1_566 S
Eu84 O128 2.462 1_556 S
Eu84 O129 2.373 1_565 S
Eu84 O131 2.432 . S
Eu84 O132 2.291 1_566 S
Eu84 O136 2.335 . S
Eu84 O139 2.372 . S
Eu84 C148 2.787 . S
C85 N86 1.365 1_565 S
C85 C88 1.405 . S
C85 C92 1.448 . S
N86 C85 1.365 1_545 S
N86 C89 1.319 . S
N86 Eu95 2.600 . S
C87 C89 1.397 . S
C87 C90 1.367 1_545 S
C87 H107 0.931 . S
C88 C85 1.405 . S
C88 C90 1.403 . S
C88 C94 1.439 . S
C89 N86 1.319 . S
C89 C87 1.397 . S
C89 H100 0.930 . S
C90 C87 1.367 1_565 S
C90 C88 1.403 . S
C90 H111 0.929 . S
C91 C92 1.430 1_556 S
C91 C93 1.387 1_556 S
C91 C97 1.404 . S
C92 C85 1.448 . S
C92 C91 1.430 1_554 S
C92 N96 1.351 1_554 S
C93 C91 1.387 1_554 S
C93 C94 1.374 . S
C93 H108 0.931 . S
C94 C88 1.439 . S
C94 C93 1.374 . S
C94 H109 0.931 . S
Eu95 N86 2.600 . S
Eu95 N96 2.562 1_544 S
Eu95 O130 2.335 . S
Eu95 O133 2.372 . S
Eu95 O134 2.462 1_554 S
Eu95 O135 2.373 1_545 S
Eu95 O137 2.432 . S
Eu95 O138 2.291 1_544 S
Eu95 C159 2.787 . S
N96 C92 1.351 1_556 S
N96 Eu95 2.562 1_566 S
N96 C98 1.325 . S
C97 C91 1.404 . S
C97 C99 1.366 . S
C97 H105 0.930 . S
C98 N96 1.325 . S
C98 C99 1.416 . S
C98 H104 0.929 . S
C99 C97 1.366 . S
C99 C98 1.416 . S
C99 H101 0.930 . S
H100 C89 0.930 . S
H101 C99 0.930 . S
H102 C117 0.930 . S
H103 C124 0.930 . S
H104 C98 0.929 . S
H105 C97 0.930 . S
H106 C120 0.929 . S
H107 C87 0.931 . S
H108 C93 0.931 . S
H109 C94 0.931 . S
H110 C115 0.931 . S
H111 C90 0.929 . S
H112 C123 0.930 . S
N113 Eu84 2.600 . S
N113 C114 1.365 1_565 S
N113 C117 1.319 . S
C114 N113 1.365 1_545 S
C114 C116 1.405 . S
C114 C122 1.448 . S
C115 H110 0.931 . S
C115 C117 1.397 . S
C115 C118 1.367 1_565 S
C116 C114 1.405 . S
C116 C118 1.403 . S
C116 C149 1.439 . S
C117 H102 0.930 . S
C117 N113 1.319 . S
C117 C115 1.397 . S
C118 C115 1.367 1_545 S
C118 C116 1.403 . S
C118 H125 0.929 . S
N119 Eu84 2.562 1_544 S
N119 C120 1.325 . S
N119 C122 1.351 1_554 S
C120 H106 0.929 . S
C120 N119 1.325 . S
C120 C124 1.416 . S
C121 C122 1.430 1_554 S
C121 C123 1.404 . S
C121 C150 1.387 1_554 S
C122 C114 1.448 . S
C122 N119 1.351 1_556 S
C122 C121 1.430 1_556 S
C123 H112 0.930 . S
C123 C121 1.404 . S
C123 C124 1.366 . S
C124 H103 0.930 . S
C124 C120 1.416 . S
C124 C123 1.366 . S
H125 C118 0.929 . S
H126 C149 0.931 . S
H127 C150 0.931 . S
O128 Eu84 2.462 1_554 S
O128 C148 1.252 1_554 S
O129 Eu84 2.373 1_545 S
O129 C140 1.249 1_556 S
O130 Eu95 2.335 . S
O130 C140 1.264 . S
O131 Eu84 2.432 . S
O131 C148 1.268 . S
O132 Eu84 2.291 1_544 S
O132 C147 1.255 . S
O133 Eu95 2.372 . S
O133 C147 1.257 . S
O134 Eu95 2.462 1_556 S
O134 C159 1.252 1_556 S
O135 Eu95 2.373 1_565 S
O135 C151 1.249 1_554 S
O136 Eu84 2.335 . S
O136 C151 1.264 . S
O137 Eu95 2.432 . S
O137 C159 1.268 . S
O138 Eu95 2.291 1_566 S
O138 C158 1.252 . S
O139 Eu84 2.372 . S
O139 C158 1.257 . S
C140 O129 1.249 1_554 S
C140 O130 1.264 . S
C141 C144 1.382 . S
C141 C146 1.390 1_556 S
C141 C148 1.506 . S
C142 C143 1.398 1_554 S
C142 C146 1.392 . S
C143 C142 1.398 1_556 S
C143 C145 1.372 . S
C143 H160 0.931 . S
C144 C141 1.382 . S
C144 C145 1.390 . S
C144 H161 0.931 . S
C145 C143 1.372 . S
C145 C144 1.390 . S
C145 H162 0.929 . S
C146 C141 1.390 1_554 S
C146 C142 1.392 . S
C146 H163 0.930 . S
C147 O132 1.255 . S
C147 O133 1.257 . S
C148 Eu84 2.787 . S
C148 O128 1.252 1_556 S
C148 O131 1.268 . S
C148 C141 1.506 . S
C149 C116 1.439 . S
C149 H126 0.931 . S
C149 C150 1.374 . S
C150 C121 1.387 1_556 S
C150 H127 0.931 . S
C150 C149 1.374 . S
C151 O135 1.249 1_556 S
C151 O136 1.264 . S
C152 C155 1.382 . S
C152 C156 1.390 1_554 S
C152 C159 1.506 . S
C153 C154 1.398 1_556 S
C153 C156 1.392 . S
C154 C153 1.398 1_554 S
C154 C157 1.372 . S
C154 H164 0.931 . S
C155 C152 1.382 . S
C155 C157 1.390 . S
C155 H165 0.931 . S
C156 C152 1.390 1_556 S
C156 C153 1.392 . S
C156 H166 0.930 . S
C157 C154 1.372 . S
C157 C155 1.390 . S
C157 H167 0.929 . S
C158 O138 1.252 . S
C158 O139 1.257 . S
C159 Eu95 2.787 . S
C159 O134 1.252 1_554 S
C159 O137 1.268 . S
C159 C152 1.506 . S
H160 C143 0.931 . S
H161 C144 0.931 . S
H162 C145 0.929 . S
H163 C146 0.930 . S
H164 C154 0.931 . S
H165 C155 0.931 . S
H166 C156 0.930 . S
H167 C157 0.929 . S
Eu168 N197 2.600 . S
Eu168 N203 2.562 . S
Eu168 O212 2.462 1_556 S
Eu168 O213 2.373 . S
Eu168 O215 2.432 . S
Eu168 O216 2.291 1_556 S
Eu168 O220 2.335 . S
Eu168 O223 2.372 . S
Eu168 C232 2.787 . S
C169 N170 1.365 . S
C169 C172 1.405 . S
C169 C176 1.448 . S
N170 C169 1.365 . S
N170 C173 1.319 . S
N170 Eu179 2.600 . S
C171 C173 1.397 . S
C171 C174 1.367 . S
C171 H191 0.931 . S
C172 C169 1.405 . S
C172 C174 1.403 . S
C172 C178 1.439 . S
C173 N170 1.319 . S
C173 C171 1.397 . S
C173 H184 0.930 . S
C174 C171 1.367 . S
C174 C172 1.403 . S
C174 H195 0.929 . S
C175 C176 1.430 . S
C175 C177 1.387 . S
C175 C181 1.418 . S
C176 C169 1.448 . S
C176 C175 1.430 . S
C176 N180 1.351 . S
C177 C175 1.387 . S
C177 C178 1.374 . S
C177 H192 0.931 . S
C178 C172 1.439 . S
C178 C177 1.374 . S
C178 H193 0.931 . S
Eu179 N170 2.600 . S
Eu179 N180 2.562 . S
Eu179 O214 2.335 . S
Eu179 O217 2.372 . S
Eu179 O218 2.462 1_554 S
Eu179 O219 2.373 . S
Eu179 O221 2.432 . S
Eu179 O222 2.291 1_554 S
Eu179 C243 2.787 . S
N180 C176 1.351 . S
N180 Eu179 2.562 . S
N180 C182 1.325 1_554 S
C181 C175 1.418 . S
C181 C183 1.358 1_554 S
C181 H189 0.924 1_554 S
C182 N180 1.325 1_556 S
C182 C183 1.416 . S
C182 H188 0.929 . S
C183 C181 1.358 1_556 S
C183 C182 1.416 . S
C183 H185 0.930 . S
H184 C173 0.930 . S
H185 C183 0.930 . S
H186 C201 0.930 . S
H187 C208 0.930 . S
H188 C182 0.929 . S
H189 C181 0.924 1_556 S
H190 C204 0.929 . S
H191 C171 0.931 . S
H192 C177 0.931 . S
H193 C178 0.931 . S
H194 C199 0.931 . S
H195 C174 0.929 . S
H196 C207 0.934 . S
N197 Eu168 2.600 . S
N197 C198 1.365 . S
N197 C201 1.319 . S
C198 N197 1.365 . S
C198 C200 1.405 . S
C198 C206 1.448 . S
C199 H194 0.931 . S
C199 C201 1.397 . S
C199 C202 1.367 . S
C200 C198 1.405 . S
C200 C202 1.403 . S
C200 C233 1.439 . S
C201 H186 0.930 . S
C201 N197 1.319 . S
C201 C199 1.397 . S
C202 C199 1.367 . S
C202 C200 1.403 . S
C202 H209 0.929 . S
N203 Eu168 2.562 . S
N203 C204 1.325 1_556 S
N203 C206 1.351 . S
C204 H190 0.929 . S
C204 N203 1.325 1_554 S
C204 C208 1.416 . S
C205 C206 1.430 . S
C205 C207 1.397 1_556 S
C205 C234 1.387 . S
C206 C198 1.448 . S
C206 N203 1.351 . S
C206 C205 1.430 . S
C207 H196 0.934 . S
C207 C205 1.397 1_554 S
C207 C208 1.370 . S
C208 H187 0.930 . S
C208 C204 1.416 . S
C208 C207 1.370 . S
H209 C202 0.929 . S
H210 C233 0.931 . S
H211 C234 0.931 . S
O212 Eu168 2.462 1_554 S
O212 C232 1.252 1_554 S
O213 Eu168 2.373 . S
O213 C224 1.249 . S
O214 Eu179 2.335 . S
O214 C224 1.264 1_554 S
O215 Eu168 2.432 . S
O215 C232 1.268 . S
O216 Eu168 2.291 1_554 S
O216 C231 1.255 . S
O217 Eu179 2.372 . S
O217 C231 1.257 . S
O218 Eu179 2.462 1_556 S
O218 C243 1.252 1_556 S
O219 Eu179 2.373 . S
O219 C235 1.249 . S
O220 Eu168 2.335 . S
O220 C235 1.264 1_556 S
O221 Eu179 2.432 . S
O221 C243 1.268 . S
O222 Eu179 2.291 1_556 S
O222 C242 1.255 . S
O223 Eu168 2.372 . S
O223 C242 1.257 . S
C224 O213 1.249 . S
C224 O214 1.264 1_556 S
C225 C228 1.382 . S
C225 C230 1.390 1_556 S
C225 C232 1.506 . S
C226 C227 1.398 . S
C226 C230 1.392 1_556 S
C227 C226 1.398 . S
C227 C229 1.372 . S
C227 H244 0.931 . S
C228 C225 1.382 . S
C228 C229 1.390 . S
C228 H245 0.931 . S
C229 C227 1.372 . S
C229 C228 1.390 . S
C229 H246 0.929 . S
C230 C225 1.390 1_554 S
C230 C226 1.392 1_554 S
C230 H247 0.930 . S
C231 O216 1.255 . S
C231 O217 1.257 . S
C232 Eu168 2.787 . S
C232 O212 1.252 1_556 S
C232 O215 1.268 . S
C232 C225 1.506 . S
C233 C200 1.439 . S
C233 H210 0.931 . S
C233 C234 1.374 . S
C234 C205 1.387 . S
C234 H211 0.931 . S
C234 C233 1.374 . S
C235 O219 1.249 . S
C235 O220 1.264 1_554 S
C236 C239 1.382 . S
C236 C240 1.389 . S
C236 C243 1.506 . S
C237 C238 1.398 . S
C237 C240 1.392 . S
C238 C237 1.398 . S
C238 C241 1.372 . S
C238 H248 0.931 . S
C239 C236 1.382 . S
C239 C241 1.390 . S
C239 H249 0.931 . S
C240 C236 1.389 . S
C240 C237 1.392 . S
C240 H250 0.931 1_554 S
C241 C238 1.372 . S
C241 C239 1.390 . S
C241 H251 0.929 . S
C242 O222 1.255 . S
C242 O223 1.257 . S
C243 Eu179 2.787 . S
C243 O218 1.252 1_554 S
C243 O221 1.268 . S
C243 C236 1.506 . S
H244 C227 0.931 . S
H245 C228 0.931 . S
H246 C229 0.929 . S
H247 C230 0.930 . S
H248 C238 0.931 . S
H249 C239 0.931 . S
H250 C240 0.931 1_556 S
H251 C241 0.929 . S
C252 C253 1.357 . S
C252 C254 1.327 . S
C252 H277 0.950 . S
C253 C252 1.357 . S
C253 C269 1.338 1_655 S
C254 C252 1.327 . S
C254 C273 1.429 . S
C254 H278 0.950 . S
C255 C272 1.574 . S
C255 C274 1.370 . S
C255 H279 0.949 . S
H256 C260 0.949 . S
C257 C258 1.349 . S
C257 C259 1.327 . S
C257 H280 0.950 . S
C258 C257 1.349 . S
C258 C270 1.349 1_455 S
C259 C257 1.327 . S
C259 C275 1.429 . S
C259 H281 0.950 . S
C260 H256 0.949 . S
C260 C268 1.574 . S
C260 C276 1.356 1_655 S
H261 C269 0.950 . S
H262 C267 0.950 . S
H263 C268 0.949 . S
H264 C270 0.950 . S
H265 C271 0.950 . S
H266 C272 0.949 . S
C267 H262 0.950 . S
C267 C269 1.327 . S
C267 C273 1.428 1_455 S
C268 C260 1.574 . S
C268 H263 0.949 . S
C268 C274 1.367 1_655 S
C269 C253 1.338 1_455 S
C269 H261 0.950 . S
C269 C267 1.327 . S
C270 C258 1.349 1_655 S
C270 H264 0.950 . S
C270 C271 1.327 . S
C271 H265 0.950 . S
C271 C270 1.327 . S
C271 C275 1.429 1_655 S
C272 C255 1.574 . S
C272 H266 0.949 . S
C272 C276 1.378 . S
C273 C254 1.429 . S
C273 C267 1.428 1_655 S
C273 C274 1.522 1_655 S
C274 C255 1.370 . S
C274 C268 1.367 1_455 S
C274 C273 1.522 1_455 S
C275 C259 1.429 . S
C275 C271 1.429 1_455 S
C275 C276 1.526 . S
C276 C260 1.356 1_455 S
C276 C272 1.378 . S
C276 C275 1.526 . S
H277 C252 0.950 . S
H278 C254 0.950 . S
H279 C255 0.949 . S
H280 C257 0.950 . S
H281 C259 0.950 . S
C282 C283 1.349 . S
C282 C284 1.327 . S
C282 H307 0.950 . S
C283 C282 1.349 . S
C283 C299 1.349 1_545 S
C284 C282 1.327 . S
C284 C303 1.429 . S
C284 H308 0.950 . S
C285 C302 1.574 . S
C285 C304 1.368 1_565 S
C285 H309 0.949 . S
H286 C290 0.949 . S
C287 C288 1.349 . S
C287 C289 1.327 . S
C287 H310 0.950 . S
C288 C287 1.349 . S
C288 C300 1.349 1_565 S
C289 C287 1.327 . S
C289 C305 1.429 . S
C289 H311 0.950 . S
C290 H286 0.949 . S
C290 C298 1.574 . S
C290 C306 1.337 1_545 S
H291 C299 0.950 . S
H292 C297 0.950 . S
H293 C298 0.949 . S
H294 C300 0.950 . S
H295 C301 0.950 . S
H296 C302 0.949 . S
C297 H292 0.950 . S
C297 C299 1.327 . S
C297 C303 1.429 1_565 S
C298 C290 1.574 . S
C298 H293 0.949 . S
C298 C304 1.368 . S
C299 C283 1.349 1_565 S
C299 H291 0.950 . S
C299 C297 1.327 . S
C300 C288 1.349 1_545 S
C300 H294 0.950 . S
C300 C301 1.327 . S
C301 H295 0.950 . S
C301 C300 1.327 . S
C301 C305 1.429 1_545 S
C302 C285 1.574 . S
C302 H296 0.949 . S
C302 C306 1.391 . S
C303 C284 1.429 . S
C303 C297 1.429 1_545 S
C303 C304 1.523 . S
C304 C285 1.368 1_545 S
C304 C298 1.368 . S
C304 C303 1.523 . S
C305 C289 1.429 . S
C305 C301 1.429 1_565 S
C305 C306 1.535 . S
C306 C290 1.337 1_565 S
C306 C302 1.391 . S
C306 C305 1.535 . S
H307 C282 0.950 . S
H308 C284 0.950 . S
H309 C285 0.949 . S
H310 C287 0.950 . S
H311 C289 0.950 . S
C312 C313 1.349 . S
C312 C314 1.327 . S
C312 H337 0.950 . S
C313 C312 1.349 . S
C313 C329 1.349 . S
C314 C312 1.327 . S
C314 C333 1.429 . S
C314 H338 0.950 . S
C315 C332 1.574 . S
C315 C334 1.368 . S
C315 H339 0.949 . S
H316 C320 0.949 . S
C317 C318 1.349 . S
C317 C319 1.327 . S
C317 H340 0.950 . S
C318 C317 1.349 . S
C318 C330 1.349 . S
C319 C317 1.327 . S
C319 C335 1.429 . S
C319 H341 0.950 . S
C320 H316 0.949 . S
C320 C328 1.574 . S
C320 C336 1.368 . S
H321 C329 0.950 . S
H322 C327 0.950 . S
H323 C328 0.949 . S
H324 C330 0.950 . S
H325 C331 0.950 . S
H326 C332 0.949 . S
C327 H322 0.950 . S
C327 C329 1.327 . S
C327 C333 1.429 . S
C328 C320 1.574 . S
C328 H323 0.949 . S
C328 C334 1.368 . S
C329 C313 1.349 . S
C329 H321 0.950 . S
C329 C327 1.327 . S
C330 C318 1.349 . S
C330 H324 0.950 . S
C330 C331 1.327 . S
C331 H325 0.950 . S
C331 C330 1.327 . S
C331 C335 1.429 . S
C332 C315 1.574 . S
C332 H326 0.949 . S
C332 C336 1.368 . S
C333 C314 1.429 . S
C333 C327 1.429 . S
C333 C334 1.523 . S
C334 C315 1.368 . S
C334 C328 1.368 . S
C334 C333 1.523 . S
C335 C319 1.429 . S
C335 C331 1.429 . S
C335 C336 1.523 . S
C336 C320 1.368 . S
C336 C332 1.368 . S
C336 C335 1.523 . S
H337 C312 0.950 . S
H338 C314 0.950 . S
H339 C315 0.949 . S
H340 C317 0.950 . S
H341 C319 0.950 . S
C342 C343 1.349 . S
C342 C344 1.327 . S
C342 H367 0.950 . S
C343 C342 1.349 . S
C343 C359 1.349 1_554 S
C344 C342 1.327 . S
C344 C363 1.429 . S
C344 H368 0.950 . S
C345 C362 1.574 . S
C345 C364 1.368 1_556 S
C345 H369 0.949 . S
H346 C350 0.949 . S
C347 C348 1.349 . S
C347 C349 1.327 . S
C347 H370 0.950 . S
C348 C347 1.349 . S
C348 C360 1.349 1_556 S
C349 C347 1.327 . S
C349 C365 1.429 . S
C349 H371 0.950 . S
C350 H346 0.949 . S
C350 C358 1.574 . S
C350 C366 1.375 . S
H351 C359 0.950 . S
H352 C357 0.950 . S
H353 C358 0.949 . S
H354 C360 0.950 . S
H355 C361 0.950 . S
H356 C362 0.949 . S
C357 H352 0.950 . S
C357 C359 1.327 . S
C357 C363 1.429 1_556 S
C358 C350 1.574 . S
C358 H353 0.949 . S
C358 C364 1.368 . S
C359 C343 1.349 1_556 S
C359 H351 0.950 . S
C359 C357 1.327 . S
C360 C348 1.349 1_554 S
C360 H354 0.950 . S
C360 C361 1.327 . S
C361 H355 0.950 . S
C361 C360 1.327 . S
C361 C365 1.429 1_554 S
C362 C345 1.574 . S
C362 H356 0.949 . S
C362 C366 1.362 1_556 S
C363 C344 1.429 . S
C363 C357 1.429 1_554 S
C363 C364 1.523 . S
C364 C345 1.368 1_554 S
C364 C358 1.368 . S
C364 C363 1.523 . S
C365 C349 1.429 . S
C365 C361 1.429 1_556 S
C365 C366 1.522 1_556 S
C366 C350 1.375 . S
C366 C362 1.362 1_554 S
C366 C365 1.522 1_554 S
H367 C342 0.950 . S
H368 C344 0.950 . S
H369 C345 0.949 . S
H370 C347 0.950 . S
H371 C349 0.950 . S
C372 C373 1.349 . S
C372 C374 1.327 . S
C372 H397 0.950 . S
C373 C372 1.349 . S
C373 C389 1.349 1_556 S
C374 C372 1.327 . S
C374 C393 1.429 . S
C374 H398 0.950 . S
C375 C392 1.574 . S
C375 C394 1.368 1_554 S
C375 H399 0.949 . S
H376 C380 0.949 . S
C377 C378 1.349 . S
C377 C379 1.327 . S
C377 H400 0.950 . S
C378 C377 1.349 . S
C378 C390 1.349 1_554 S
C379 C377 1.327 . S
C379 C395 1.429 . S
C379 H401 0.950 . S
C380 H376 0.949 . S
C380 C388 1.574 . S
C380 C396 1.368 . S
H381 C389 0.950 . S
H382 C387 0.950 . S
H383 C388 0.949 . S
H384 C390 0.950 . S
H385 C391 0.950 . S
H386 C392 0.949 . S
C387 H382 0.950 . S
C387 C389 1.327 . S
C387 C393 1.429 1_554 S
C388 C380 1.574 . S
C388 H383 0.949 . S
C388 C394 1.368 . S
C389 C373 1.349 1_554 S
C389 H381 0.950 . S
C389 C387 1.327 . S
C390 C378 1.349 1_556 S
C390 H384 0.950 . S
C390 C391 1.327 . S
C391 H385 0.950 . S
C391 C390 1.327 . S
C391 C395 1.429 1_556 S
C392 C375 1.574 . S
C392 H386 0.949 . S
C392 C396 1.368 1_554 S
C393 C374 1.429 . S
C393 C387 1.429 1_556 S
C393 C394 1.523 . S
C394 C375 1.368 1_556 S
C394 C388 1.368 . S
C394 C393 1.523 . S
C395 C379 1.429 . S
C395 C391 1.429 1_554 S
C395 C396 1.523 1_554 S
C396 C380 1.368 . S
C396 C392 1.368 1_556 S
C396 C395 1.523 1_556 S
H397 C372 0.950 . S
H398 C374 0.950 . S
H399 C375 0.949 . S
H400 C377 0.950 . S
H401 C379 0.950 . S
C402 C403 1.349 . S
C402 C404 1.327 . S
C402 H427 0.950 . S
C403 C402 1.349 . S
C403 C419 1.349 1_556 S
C404 C402 1.327 . S
C404 C423 1.429 . S
C404 H428 0.950 . S
C405 C422 1.574 . S
C405 C424 1.368 1_554 S
C405 H429 0.949 . S
H406 C410 0.949 . S
C407 C408 1.349 1_554 S
C407 C409 1.327 . S
C407 H430 0.950 . S
C408 C407 1.349 1_556 S
C408 C420 1.349 . S
C409 C407 1.327 . S
C409 C425 1.429 1_554 S
C409 H431 0.950 . S
C410 H406 0.949 . S
C410 C418 1.574 . S
C410 C426 1.368 . S
H411 C419 0.950 . S
H412 C417 0.950 . S
H413 C418 0.949 . S
H414 C420 0.950 . S
H415 C421 0.950 . S
H416 C422 0.949 . S
C417 H412 0.950 . S
C417 C419 1.327 . S
C417 C423 1.429 1_554 S
C418 C410 1.574 . S
C418 H413 0.949 . S
C418 C424 1.368 . S
C419 C403 1.349 1_554 S
C419 H411 0.950 . S
C419 C417 1.327 . S
C420 C408 1.349 . S
C420 H414 0.950 . S
C420 C421 1.327 . S
C421 H415 0.950 . S
C421 C420 1.327 . S
C421 C425 1.429 . S
C422 C405 1.574 . S
C422 H416 0.949 . S
C422 C426 1.368 1_554 S
C423 C404 1.429 . S
C423 C417 1.429 1_556 S
C423 C424 1.523 . S
C424 C405 1.368 1_556 S
C424 C418 1.368 . S
C424 C423 1.523 . S
C425 C409 1.429 1_556 S
C425 C421 1.429 . S
C425 C426 1.523 . S
C426 C410 1.368 . S
C426 C422 1.368 1_556 S
C426 C425 1.523 . S
H427 C402 0.950 . S
H428 C404 0.950 . S
H429 C405 0.949 . S
H430 C407 0.950 . S
H431 C409 0.950 . S
C432 C433 1.349 . S
C432 C434 1.327 . S
C432 H457 0.950 . S
C433 C432 1.349 . S
C433 C449 1.349 1_556 S
C434 C432 1.327 . S
C434 C453 1.429 . S
C434 H458 0.950 . S
C435 C452 1.574 . S
C435 C454 1.368 1_554 S
C435 H459 0.949 . S
H436 C440 0.949 . S
C437 C438 1.349 . S
C437 C439 1.327 . S
C437 H460 0.950 . S
C438 C437 1.349 . S
C438 C450 1.349 1_554 S
C439 C437 1.327 . S
C439 C455 1.429 . S
C439 H461 0.950 . S
C440 H436 0.949 . S
C440 C448 1.574 . S
C440 C456 1.359 1_556 S
H441 C449 0.950 . S
H442 C447 0.950 . S
H443 C448 0.949 . S
H444 C450 0.950 . S
H445 C451 0.950 . S
H446 C452 0.949 . S
C447 H442 0.950 . S
C447 C449 1.327 . S
C447 C453 1.429 1_554 S
C448 C440 1.574 . S
C448 H443 0.949 . S
C448 C454 1.368 . S
C449 C433 1.349 1_554 S
C449 H441 0.950 . S
C449 C447 1.327 . S
C450 C438 1.349 1_556 S
C450 H444 0.950 . S
C450 C451 1.327 . S
C451 H445 0.950 . S
C451 C450 1.327 . S
C451 C455 1.429 1_556 S
C452 C435 1.574 . S
C452 H446 0.949 . S
C452 C456 1.376 . S
C453 C434 1.429 . S
C453 C447 1.429 1_556 S
C453 C454 1.523 . S
C454 C435 1.368 1_556 S
C454 C448 1.368 . S
C454 C453 1.523 . S
C455 C439 1.429 . S
C455 C451 1.429 1_554 S
C455 C456 1.525 . S
C456 C440 1.359 1_554 S
C456 C452 1.376 . S
C456 C455 1.525 . S
H457 C432 0.950 . S
H458 C434 0.950 . S
H459 C435 0.949 . S
H460 C437 0.950 . S
H461 C439 0.950 . S
C462 C463 1.349 1_554 S
C462 C464 1.327 . S
C462 H487 0.950 . S
C463 C462 1.349 1_556 S
C463 C479 1.349 . S
C464 C462 1.327 . S
C464 C483 1.429 1_554 S
C464 H488 0.950 . S
C465 C482 1.574 . S
C465 C484 1.368 1_556 S
C465 H489 0.949 . S
H466 C470 0.949 . S
C467 C468 1.349 1_556 S
C467 C469 1.327 . S
C467 H490 0.950 . S
C468 C467 1.349 1_554 S
C468 C480 1.349 . S
C469 C467 1.327 . S
C469 C485 1.429 1_556 S
C469 H491 0.950 . S
C470 H466 0.949 . S
C470 C478 1.574 . S
C470 C486 1.368 . S
H471 C479 0.950 . S
H472 C477 0.950 . S
H473 C478 0.949 . S
H474 C480 0.950 . S
H475 C481 0.950 . S
H476 C482 0.949 . S
C477 H472 0.950 . S
C477 C479 1.327 . S
C477 C483 1.429 . S
C478 C470 1.574 . S
C478 H473 0.949 . S
C478 C484 1.368 . S
C479 C463 1.349 . S
C479 H471 0.950 . S
C479 C477 1.327 . S
C480 C468 1.349 . S
C480 H474 0.950 . S
C480 C481 1.327 . S
C481 H475 0.950 . S
C481 C480 1.327 . S
C481 C485 1.429 . S
C482 C465 1.574 . S
C482 H476 0.949 . S
C482 C486 1.368 1_556 S
C483 C464 1.429 1_556 S
C483 C477 1.429 . S
C483 C484 1.523 1_556 S
C484 C465 1.368 1_554 S
C484 C478 1.368 . S
C484 C483 1.523 1_554 S
C485 C469 1.429 1_554 S
C485 C481 1.429 . S
C485 C486 1.523 . S
C486 C470 1.368 . S
C486 C482 1.368 1_554 S
C486 C485 1.523 . S
H487 C462 0.950 . S
H488 C464 0.950 . S
H489 C465 0.949 . S
H490 C467 0.950 . S
H491 C469 0.950 . S
C492 C493 1.349 . S
C492 C494 1.327 . S
C492 H517 0.950 . S
C493 C492 1.349 . S
C493 C509 1.349 1_554 S
C494 C492 1.327 . S
C494 C513 1.429 . S
C494 H518 0.950 . S
C495 C512 1.574 . S
C495 C514 1.368 1_556 S
C495 H519 0.949 . S
H496 C500 0.949 . S
C497 C498 1.349 1_556 S
C497 C499 1.327 . S
C497 H520 0.950 . S
C498 C497 1.349 1_554 S
C498 C510 1.349 . S
C499 C497 1.327 . S
C499 C515 1.429 1_556 S
C499 H521 0.950 . S
C500 H496 0.949 . S
C500 C508 1.574 . S
C500 C516 1.368 . S
H501 C509 0.950 . S
H502 C507 0.950 . S
H503 C508 0.949 . S
H504 C510 0.950 . S
H505 C511 0.950 . S
H506 C512 0.949 . S
C507 H502 0.950 . S
C507 C509 1.327 . S
C507 C513 1.429 1_556 S
C508 C500 1.574 . S
C508 H503 0.949 . S
C508 C514 1.368 . S
C509 C493 1.349 1_556 S
C509 H501 0.950 . S
C509 C507 1.327 . S
C510 C498 1.349 . S
C510 H504 0.950 . S
C510 C511 1.327 . S
C511 H505 0.950 . S
C511 C510 1.327 . S
C511 C515 1.429 . S
C512 C495 1.574 . S
C512 H506 0.949 . S
C512 C516 1.368 1_556 S
C513 C494 1.429 . S
C513 C507 1.429 1_554 S
C513 C514 1.523 . S
C514 C495 1.368 1_554 S
C514 C508 1.368 . S
C514 C513 1.523 . S
C515 C499 1.429 1_554 S
C515 C511 1.429 . S
C515 C516 1.523 . S
C516 C500 1.368 . S
C516 C512 1.368 1_554 S
C516 C515 1.523 . S
H517 C492 0.950 . S
H518 C494 0.950 . S
H519 C495 0.949 . S
H520 C497 0.950 . S
H521 C499 0.950 . S
C253 C63 1.490 . S
C258 C74 1.485 . S
C283 C147 1.521 . S
C288 C158 1.521 . S
C313 C242 1.479 . S
C318 C231 1.479 . S
C343 C67 2.258 . S
C348 C224 2.271 . S
C373 C153 0.747 . S
C378 C69 0.747 1_554 S
C403 C151 1.534 . S
C408 C237 1.404 1_556 S
C433 C56 2.257 1_556 S
C438 C235 2.271 . S
C463 C58 0.747 1_556 S
C468 C142 0.747 . S
C493 C226 1.404 1_554 S
C498 C140 1.534 . S
