# Generated by pormake.
# Topology uou, (4)-cn, num edge types: 1
# Building blocks:
#     Node 0, Type 0, BuildingBlock: QUQFOY_clean_sbu_1, # of connection points: 4
#     Node 1, Type 0, BuildingBlock: QUQFOY_clean_sbu_1, # of connection points: 4
#     Node 2, Type 0, BuildingBlock: QUQFOY_clean_sbu_1, # of connection points: 4
#     Node 3, Type 0, BuildingBlock: QUQFOY_clean_sbu_1, # of connection points: 4
#     Node 4, Type 0, BuildingBlock: QUQFOY_clean_sbu_1, # of connection points: 4
#     Node 5, Type 0, BuildingBlock: QUQFOY_clean_sbu_1, # of connection points: 4
#     Node 6, Type 0, BuildingBlock: QUQFOY_clean_sbu_1, # of connection points: 4
#     Node 7, Type 0, BuildingBlock: QUQFOY_clean_sbu_1, # of connection points: 4
#     Node 8, Type 0, BuildingBlock: QUQFOY_clean_sbu_1, # of connection points: 4
#     Node 9, Type 0, BuildingBlock: QUQFOY_clean_sbu_1, # of connection points: 4
#     Node 10, Type 0, BuildingBlock: QUQFOY_clean_sbu_1, # of connection points: 4
#     Node 11, Type 0, BuildingBlock: QUQFOY_clean_sbu_1, # of connection points: 4
#     Node 12, Type 0, BuildingBlock: QUQFOY_clean_sbu_1, # of connection points: 4
#     Node 13, Type 0, BuildingBlock: QUQFOY_clean_sbu_1, # of connection points: 4
#     Node 14, Type 0, BuildingBlock: QUQFOY_clean_sbu_1, # of connection points: 4
#     Node 15, Type 0, BuildingBlock: QUQFOY_clean_sbu_1, # of connection points: 4
#     Edge 16, Type (0, 0), BuildingBlock: OJICUG_clean_linker_0, # of connection points: 2
#     Edge 17, Type (0, 0), BuildingBlock: OJICUG_clean_linker_0, # of connection points: 2
#     Edge 18, Type (0, 0), BuildingBlock: OJICUG_clean_linker_0, # of connection points: 2
#     Edge 19, Type (0, 0), BuildingBlock: OJICUG_clean_linker_0, # of connection points: 2
#     Edge 20, Type (0, 0), BuildingBlock: OJICUG_clean_linker_0, # of connection points: 2
#     Edge 21, Type (0, 0), BuildingBlock: OJICUG_clean_linker_0, # of connection points: 2
#     Edge 22, Type (0, 0), BuildingBlock: OJICUG_clean_linker_0, # of connection points: 2
#     Edge 23, Type (0, 0), BuildingBlock: OJICUG_clean_linker_0, # of connection points: 2
#     Edge 24, Type (0, 0), BuildingBlock: OJICUG_clean_linker_0, # of connection points: 2
#     Edge 25, Type (0, 0), BuildingBlock: OJICUG_clean_linker_0, # of connection points: 2
#     Edge 26, Type (0, 0), BuildingBlock: OJICUG_clean_linker_0, # of connection points: 2
#     Edge 27, Type (0, 0), BuildingBlock: OJICUG_clean_linker_0, # of connection points: 2
#     Edge 28, Type (0, 0), BuildingBlock: OJICUG_clean_linker_0, # of connection points: 2
#     Edge 29, Type (0, 0), BuildingBlock: OJICUG_clean_linker_0, # of connection points: 2
#     Edge 30, Type (0, 0), BuildingBlock: OJICUG_clean_linker_0, # of connection points: 2
#     Edge 31, Type (0, 0), BuildingBlock: OJICUG_clean_linker_0, # of connection points: 2
#     Edge 32, Type (0, 0), BuildingBlock: OJICUG_clean_linker_0, # of connection points: 2
#     Edge 33, Type (0, 0), BuildingBlock: OJICUG_clean_linker_0, # of connection points: 2
#     Edge 34, Type (0, 0), BuildingBlock: OJICUG_clean_linker_0, # of connection points: 2
#     Edge 35, Type (0, 0), BuildingBlock: OJICUG_clean_linker_0, # of connection points: 2
#     Edge 36, Type (0, 0), BuildingBlock: OJICUG_clean_linker_0, # of connection points: 2
#     Edge 37, Type (0, 0), BuildingBlock: OJICUG_clean_linker_0, # of connection points: 2
#     Edge 38, Type (0, 0), BuildingBlock: OJICUG_clean_linker_0, # of connection points: 2
#     Edge 39, Type (0, 0), BuildingBlock: OJICUG_clean_linker_0, # of connection points: 2
#     Edge 40, Type (0, 0), BuildingBlock: OJICUG_clean_linker_0, # of connection points: 2
#     Edge 41, Type (0, 0), BuildingBlock: OJICUG_clean_linker_0, # of connection points: 2
#     Edge 42, Type (0, 0), BuildingBlock: OJICUG_clean_linker_0, # of connection points: 2
#     Edge 43, Type (0, 0), BuildingBlock: OJICUG_clean_linker_0, # of connection points: 2
#     Edge 44, Type (0, 0), BuildingBlock: OJICUG_clean_linker_0, # of connection points: 2
#     Edge 45, Type (0, 0), BuildingBlock: OJICUG_clean_linker_0, # of connection points: 2
#     Edge 46, Type (0, 0), BuildingBlock: OJICUG_clean_linker_0, # of connection points: 2
#     Edge 47, Type (0, 0), BuildingBlock: OJICUG_clean_linker_0, # of connection points: 2
# Relax obj value: 0.061
# Max RMSD: 0.094
# Mean RMSD: 0.094
data_MOF--net-uou--node1-QUQFOY_clean_sbu_1--edge1-OJICUG_clean_linker_0
_symmetry_space_group_name_H-M    P1
_symmetry_Int_Tables_number       1
_symmetry_cell_setting            triclinic
loop_
_symmetry_equiv_pos_as_xyz
'x, y, z'
_cell_length_a     29.834548
_cell_length_b     27.932102
_cell_length_c     41.601537
_cell_angle_alpha  90.069177
_cell_angle_beta   90.00822
_cell_angle_gamma 89.997725
loop_
_atom_site_label
_atom_site_type_symbol
_atom_site_fract_x
_atom_site_fract_y
_atom_site_fract_z
_atom_type_partial_charge
O0 O 0.04032 0.10534 0.14547 0.0
Cd1 Cd 0.05224 0.03291 0.14404 0.0
Cd2 Cd 0.13093 0.06199 0.12199 0.0
O3 O 0.11007 0.12874 0.13771 0.0
O4 O 1.01196 0.00418 0.17687 0.0
O5 O 0.08606 0.00452 0.1808 0.0
C6 C 0.0475 -0.00488 0.19352 0.0
C7 C 0.20347 0.03308 0.13064 0.0
C8 C 0.06931 0.13857 0.14397 0.0
C9 C 0.06731 0.01195 0.07608 0.0
O10 O 0.10193 0.03782 0.07991 0.0
O11 O 0.04335 0.00053 0.10013 0.0
O12 O 0.19541 0.06583 0.10963 0.0
O13 O 0.17065 0.01822 0.14823 0.0
O14 O 0.53992 0.86894 0.14537 0.0
Cd15 Cd 0.52782 0.94134 0.14404 0.0
Cd16 Cd 0.44901 0.91204 0.12224 0.0
O17 O 0.47011 0.84544 0.13797 0.0
O18 O 0.56804 0.9703 0.17686 0.0
O19 O 0.49395 0.96961 0.18084 0.0
C20 C 0.53249 0.97921 0.19354 0.0
C21 C 0.37636 0.94069 0.13085 0.0
C22 C 0.51095 0.83568 0.14403 0.0
C23 C 0.51223 0.96211 0.07616 0.0
O24 O 0.47774 0.9361 0.0801 0.0
O25 O 0.53631 0.97369 0.10014 0.0
O26 O 0.38454 0.9078 0.10991 0.0
O27 O 0.40911 0.95581 0.14842 0.0
O28 O 0.54051 0.86902 0.37769 0.0
Cd29 Cd 0.5524 0.94146 0.37915 0.0
Cd30 Cd 0.63108 0.91239 0.40122 0.0
O31 O 0.61026 0.84563 0.38549 0.0
O32 O 0.51208 0.97018 0.34633 0.0
O33 O 0.58618 0.96991 0.34239 0.0
C34 C 0.5476 0.97929 0.32969 0.0
C35 C 0.70359 0.94137 0.39257 0.0
C36 C 0.56951 0.8358 0.37921 0.0
C37 C 0.56742 0.96235 0.44712 0.0
O38 O 0.60205 0.9365 0.44329 0.0
O39 O 0.54347 0.97378 0.42306 0.0
O40 O 0.69557 0.90861 0.41358 0.0
O41 O 0.67076 0.9562 0.37499 0.0
O42 O 0.04008 0.10543 0.37789 0.0
Cd43 Cd 1.02793 0.03305 0.3792 0.0
Cd44 Cd 0.94913 0.06238 0.40098 0.0
O45 O 0.97028 0.12897 0.38526 0.0
O46 O 0.06811 0.00407 0.34636 0.0
O47 O 0.99401 0.00485 0.34238 0.0
C48 C 1.03254 -0.00479 0.32968 0.0
C49 C 0.87646 0.0338 0.39237 0.0
C50 C 1.01112 0.13871 0.37922 0.0
C51 C 1.01231 0.01221 0.44706 0.0
O52 O 0.97784 0.03826 0.44313 0.0
O53 O 1.03639 0.00063 0.42308 0.0
O54 O 0.88466 0.06668 0.41331 0.0
O55 O 0.9092 0.01866 0.3748 0.0
O56 O 0.97697 0.93629 0.94329 0.0
Cd57 Cd 0.94796 0.91213 0.90122 0.0
Cd58 Cd 1.02666 0.9412 0.87917 0.0
O59 O 1.03555 0.97358 0.92307 0.0
O60 O 0.88348 0.90829 0.91357 0.0
O61 O 0.90824 0.9559 0.87498 0.0
C62 C 0.87543 0.94104 0.89256 0.0
C63 C 1.0314 0.97899 0.82969 0.0
C64 C 1.01158 0.96217 0.94713 0.0
C65 C 1.00958 0.83555 0.87924 0.0
O66 O 1.03857 0.86877 0.87774 0.0
O67 O 0.96882 0.84538 0.8855 0.0
O68 O 0.06693 0.96993 0.84634 0.0
O69 O 0.99284 0.9696 0.84241 0.0
O70 O 0.60116 0.03803 0.94311 0.0
Cd71 Cd 0.62989 0.06208 0.90096 0.0
Cd72 Cd 0.55108 0.03278 0.87917 0.0
O73 O 0.54258 0.00043 0.92307 0.0
O74 O 0.69436 0.06633 0.91329 0.0
O75 O 0.66979 0.01832 0.87479 0.0
C76 C 0.70254 0.03344 0.89236 0.0
C77 C 0.54641 -0.00509 0.82967 0.0
C78 C 0.56667 0.01202 0.94704 0.0
C79 C 0.56795 0.13844 0.87917 0.0
O80 O 0.53897 0.10518 0.87784 0.0
O81 O 0.60878 0.12869 0.88523 0.0
O82 O 0.51086 0.00382 0.84635 0.0
O83 O 0.58495 0.00451 0.84236 0.0
O84 O 0.47685 0.03762 0.57991 0.0
Cd85 Cd 0.44781 0.06172 0.62198 0.0
Cd86 Cd 0.5265 0.03266 0.64406 0.0
O87 O 0.53544 0.00034 0.60014 0.0
O88 O 0.38333 0.0655 0.60962 0.0
O89 O 0.40815 0.01791 0.64821 0.0
C90 C 0.37531 0.03274 0.63063 0.0
C91 C 0.5313 -0.00517 0.69352 0.0
C92 C 0.51148 0.01177 0.57608 0.0
C93 C 0.50939 0.13832 0.64399 0.0
O94 O 0.53838 0.1051 0.64551 0.0
O95 O 0.46863 0.12849 0.63771 0.0
O96 O 0.56682 0.00394 0.67687 0.0
O97 O 0.49273 0.00421 0.68081 0.0
O98 O 0.10106 0.93585 0.58008 0.0
Cd99 Cd 0.12977 0.91173 0.62223 0.0
Cd100 Cd 0.05097 0.94107 0.64401 0.0
O101 O 0.04251 0.97348 0.60013 0.0
O102 O 0.19424 0.90743 0.6099 0.0
O103 O 0.1697 0.95546 0.64841 0.0
C104 C 0.20244 0.94031 0.63084 0.0
C105 C 0.04637 0.97891 0.69353 0.0
C106 C 0.06659 0.96191 0.57615 0.0
C107 C 0.06778 0.83541 0.64399 0.0
O108 O 1.03882 0.86868 0.64532 0.0
O109 O 0.10862 0.84514 0.63795 0.0
O110 O 1.0108 0.97005 0.67685 0.0
O111 O 0.08489 0.96927 0.68083 0.0
O112 O 0.5403 0.60535 0.14547 0.0
Cd113 Cd 0.55221 0.53292 0.14404 0.0
Cd114 Cd 0.63091 0.56198 0.12199 0.0
O115 O 0.61006 0.62874 0.13771 0.0
O116 O 0.51193 0.50419 0.17687 0.0
O117 O 0.58603 0.50452 0.1808 0.0
C118 C 0.54747 0.49513 0.19352 0.0
C119 C 0.70344 0.53306 0.13065 0.0
C120 C 0.5693 0.63857 0.14397 0.0
C121 C 0.56729 0.51195 0.07608 0.0
O122 O 0.60191 0.53782 0.07992 0.0
O123 O 0.54332 0.50054 0.10013 0.0
O124 O 0.69539 0.56582 0.10964 0.0
O125 O 0.67063 0.51821 0.14823 0.0
O126 O 0.0399 0.36893 0.14537 0.0
Cd127 Cd 1.02778 0.44133 0.14404 0.0
Cd128 Cd 0.94898 0.41202 0.12224 0.0
O129 O 0.97009 0.34542 0.13797 0.0
O130 O 0.068 0.4703 0.17686 0.0
O131 O 0.9939 0.4696 0.18084 0.0
C132 C 1.03245 0.47921 0.19354 0.0
C133 C 0.87633 0.44066 0.13084 0.0
C134 C 1.01093 0.33567 0.14403 0.0
C135 C 1.0122 0.4621 0.07616 0.0
O136 O 0.97772 0.43608 0.08009 0.0
O137 O 1.03628 0.47368 0.10014 0.0
O138 O 0.88451 0.40777 0.10991 0.0
O139 O 0.90908 0.45578 0.14841 0.0
O140 O 0.04049 0.36903 0.37769 0.0
Cd141 Cd 0.05236 0.44146 0.37915 0.0
Cd142 Cd 0.13106 0.41241 0.40121 0.0
O143 O 0.11024 0.34565 0.38548 0.0
O144 O 1.01204 0.47018 0.34633 0.0
O145 O 0.08613 0.46992 0.34239 0.0
C146 C 0.04756 0.47929 0.32969 0.0
C147 C 0.20356 0.4414 0.39257 0.0
C148 C 0.06949 0.33581 0.37921 0.0
C149 C 0.06739 0.46235 0.44712 0.0
O150 O 0.10203 0.43651 0.44329 0.0
O151 O 0.04343 0.47378 0.42307 0.0
O152 O 0.19555 0.40863 0.41357 0.0
O153 O 0.17073 0.45623 0.37499 0.0
O154 O 0.54006 0.60543 0.37789 0.0
Cd155 Cd 0.5279 0.53305 0.3792 0.0
Cd156 Cd 0.44911 0.56239 0.40099 0.0
O157 O 0.47026 0.62898 0.38527 0.0
O158 O 0.56807 0.50406 0.34636 0.0
O159 O 0.49397 0.50485 0.34238 0.0
C160 C 0.5325 0.49521 0.32968 0.0
C161 C 0.37643 0.53381 0.39237 0.0
C162 C 0.5111 0.63871 0.37922 0.0
C163 C 0.51229 0.51221 0.44706 0.0
O164 O 0.47782 0.53827 0.44313 0.0
O165 O 0.53636 0.50063 0.42308 0.0
O166 O 0.38464 0.56669 0.41331 0.0
O167 O 0.40917 0.51867 0.37481 0.0
O168 O 0.47697 0.43629 0.94329 0.0
Cd169 Cd 0.44797 0.41213 0.90121 0.0
Cd170 Cd 0.52667 0.4412 0.87916 0.0
O171 O 0.53555 0.47358 0.92307 0.0
O172 O 0.38349 0.40829 0.91357 0.0
O173 O 0.40825 0.4559 0.87498 0.0
C174 C 0.37543 0.44105 0.89256 0.0
C175 C 0.53141 0.479 0.82969 0.0
C176 C 0.51159 0.46217 0.94712 0.0
C177 C 0.50959 0.33555 0.87924 0.0
O178 O 0.53858 0.36877 0.87774 0.0
O179 O 0.46883 0.34538 0.88549 0.0
O180 O 0.56695 0.46993 0.84634 0.0
O181 O 0.49285 0.4696 0.84241 0.0
O182 O 0.10116 0.53803 0.94312 0.0
Cd183 Cd 0.1299 0.56209 0.90098 0.0
Cd184 Cd 0.0511 0.53278 0.87918 0.0
O185 O 0.04259 0.50043 0.92307 0.0
O186 O 0.19437 0.56633 0.91331 0.0
O187 O 0.16979 0.51833 0.8748 0.0
C188 C 0.20255 0.53345 0.89237 0.0
C189 C 0.04643 0.49491 0.82967 0.0
C190 C 0.06667 0.51201 0.94705 0.0
C191 C 0.06795 0.63844 0.87919 0.0
O192 O 1.03898 0.60518 0.87784 0.0
O193 O 0.10879 0.62869 0.88525 0.0
O194 O 1.01088 0.50381 0.84635 0.0
O195 O 0.08497 0.50452 0.84237 0.0
O196 O 0.97685 0.53761 0.57992 0.0
Cd197 Cd 0.94782 0.56171 0.622 0.0
Cd198 Cd 1.02652 0.53266 0.64407 0.0
O199 O 1.03545 0.50034 0.60015 0.0
O200 O 0.88334 0.56549 0.60964 0.0
O201 O 0.90815 0.5179 0.64823 0.0
C202 C 0.87532 0.53273 0.63065 0.0
C203 C 1.03132 0.49482 0.69352 0.0
C204 C 1.01149 0.51177 0.57609 0.0
C205 C 1.0094 0.63831 0.644 0.0
O206 O 1.0384 0.60509 0.64552 0.0
O207 O 0.96864 0.62848 0.63773 0.0
O208 O 0.06684 0.50393 0.67688 0.0
O209 O 0.99275 0.5042 0.68082 0.0
O210 O 0.60106 0.43586 0.58008 0.0
Cd211 Cd 0.62977 0.41174 0.62222 0.0
Cd212 Cd 0.55098 0.44108 0.64401 0.0
O213 O 0.54251 0.47349 0.60013 0.0
O214 O 0.69424 0.40743 0.6099 0.0
O215 O 0.66971 0.45545 0.6484 0.0
C216 C 0.70245 0.44031 0.63084 0.0
C217 C 0.54638 0.47891 0.69353 0.0
C218 C 0.56659 0.46192 0.57615 0.0
C219 C 0.56778 0.33541 0.64399 0.0
O220 O 0.53882 0.36869 0.64532 0.0
O221 O 0.60862 0.34515 0.63794 0.0
O222 O 0.51081 0.47006 0.67685 0.0
O223 O 0.5849 0.46927 0.68083 0.0
C224 C 0.31111 0.97611 0.16103 0.0
C225 C 0.3319 0.96372 0.13186 0.0
H226 H 0.25278 0.00677 0.18364 0.0
C227 C 0.3104 0.97469 0.1028 0.0
H228 H 0.32721 0.96804 0.18372 0.0
C229 C 0.26922 -0.0017 0.10275 0.0
C230 C 0.24786 0.00992 0.13176 0.0
H231 H 0.32593 0.96587 0.08 0.0
H232 H 0.25358 0.00663 0.07991 0.0
C233 C 0.26877 -0.00183 0.16098 0.0
C234 C 0.76888 0.97626 0.36224 0.0
C235 C 0.74796 0.96457 0.39146 0.0
H236 H 0.82733 0.00634 0.33949 0.0
C237 C 0.76929 0.97628 0.42047 0.0
H238 H 0.75292 0.9676 0.33958 0.0
C239 C 0.81046 -0.00011 0.42041 0.0
C240 C 0.83199 0.01079 0.39135 0.0
H241 H 0.75364 0.96799 0.44331 0.0
H242 H 0.82598 0.00877 0.44321 0.0
C243 C 0.81122 -0.00168 0.36219 0.0
C244 C 0.80968 0.97584 0.92046 0.0
C245 C 0.83104 0.9642 0.89145 0.0
H246 H 0.75297 0.00827 0.9432 0.0
C247 C 0.81013 0.97595 0.86223 0.0
H248 H 0.82532 0.9675 0.9433 0.0
C249 C 0.76779 -0.00199 0.86218 0.0
C250 C 0.747 0.0104 0.89134 0.0
H251 H 0.82611 0.96735 0.83957 0.0
H252 H 0.75169 0.00608 0.83948 0.0
C253 C 0.7685 -0.00055 0.9204 0.0
C254 C 0.26844 0.97421 0.60279 0.0
C255 C 0.24691 0.96332 0.63186 0.0
H256 H 0.32526 0.00611 0.5799 0.0
C257 C 0.26768 0.97579 0.66102 0.0
H258 H 0.25292 0.96534 0.58 0.0
C259 C 0.31002 -0.00215 0.66097 0.0
C260 C 0.33094 0.00954 0.63174 0.0
H261 H 0.25157 0.96778 0.68371 0.0
H262 H 0.32598 0.00652 0.68363 0.0
C263 C 0.30961 -0.00217 0.60273 0.0
C264 C 0.81036 0.47464 0.1028 0.0
C265 C 0.83187 0.46369 0.13186 0.0
H266 H 0.75354 0.50658 0.07991 0.0
C267 C 0.81109 0.4761 0.16103 0.0
H268 H 0.82589 0.46582 0.08 0.0
C269 C 0.76875 0.49815 0.16098 0.0
C270 C 0.74783 0.5099 0.13176 0.0
H271 H 0.82719 0.46804 0.18372 0.0
H272 H 0.75277 0.50677 0.18364 0.0
C273 C 0.76918 0.49825 0.10275 0.0
C274 C 0.3112 0.49834 0.36219 0.0
C275 C 0.33196 0.51081 0.39135 0.0
H276 H 0.2529 0.46761 0.33958 0.0
C277 C 0.31043 0.49993 0.42041 0.0
H278 H 0.32732 0.50635 0.3395 0.0
C279 C 0.26925 0.47631 0.42047 0.0
C280 C 0.24793 0.46459 0.39146 0.0
H281 H 0.32594 0.5088 0.44321 0.0
H282 H 0.2536 0.46803 0.4433 0.0
C283 C 0.26886 0.47628 0.36223 0.0
C284 C 0.26779 0.49801 0.86218 0.0
C285 C 0.24701 0.51041 0.89135 0.0
H286 H 0.32611 0.46735 0.83957 0.0
C287 C 0.26852 0.49946 0.92041 0.0
H288 H 0.25169 0.50608 0.83949 0.0
C289 C 0.3097 0.47585 0.92046 0.0
C290 C 0.33104 0.46421 0.89145 0.0
H291 H 0.25299 0.50828 0.94321 0.0
H292 H 0.32534 0.46752 0.9433 0.0
C293 C 0.31013 0.47596 0.86223 0.0
C294 C 0.76845 0.4742 0.6028 0.0
C295 C 0.74692 0.46332 0.63186 0.0
H296 H 0.82528 0.5061 0.57991 0.0
C297 C 0.76768 0.47579 0.66102 0.0
H298 H 0.75294 0.46533 0.58 0.0
C299 C 0.81002 0.49785 0.66098 0.0
C300 C 0.83095 0.50953 0.63175 0.0
H301 H 0.75156 0.46778 0.68371 0.0
H302 H 0.82598 0.50652 0.68363 0.0
C303 C 0.80963 0.49782 0.60274 0.0
C304 C 0.07857 0.97897 0.28063 0.0
C305 C 1.03622 0.98168 0.29538 0.0
H306 H 0.11544 0.98041 0.23653 0.0
C307 C 0.99768 0.97917 0.27604 0.0
H308 H 0.10895 0.98034 0.29485 0.0
C309 C 1.00143 0.9791 0.24255 0.0
C310 C 0.04378 0.98163 0.2278 0.0
H311 H 0.96456 0.98072 0.28665 0.0
H312 H 0.97105 0.98056 0.22833 0.0
C313 C 0.08231 0.979 0.24714 0.0
C314 C 0.57857 -0.00454 0.24257 0.0
C315 C 0.53622 -0.00724 0.22784 0.0
H316 H 0.6155 -0.00599 0.28666 0.0
C317 C 0.4977 -0.00472 0.24719 0.0
H318 H 0.60895 -0.00591 0.22834 0.0
C319 C 0.50148 -0.00465 0.28068 0.0
C320 C 0.54385 -0.0072 0.29541 0.0
H321 H 0.46456 -0.00626 0.23658 0.0
H322 H 0.47111 -0.0061 0.2949 0.0
C323 C 0.58236 -0.00457 0.27606 0.0
C324 C 0.08122 -0.00506 0.74717 0.0
C325 C 0.04268 -0.00756 0.72783 0.0
H326 H 0.10786 -0.00645 0.79488 0.0
C327 C 1.00034 -0.00485 0.74258 0.0
H328 H 0.11434 -0.00661 0.73656 0.0
C329 C 0.99659 -0.00488 0.77607 0.0
C330 C 1.03512 -0.00752 0.79541 0.0
H331 H 0.96995 -0.00621 0.72836 0.0
H332 H 0.96346 -0.00629 0.78669 0.0
C333 C 0.07747 -0.00498 0.78066 0.0
C334 C 0.49654 0.97869 0.74714 0.0
C335 C 0.53506 0.98132 0.7278 0.0
H336 H 0.46995 0.98003 0.79486 0.0
C337 C 0.57742 0.97877 0.74253 0.0
H338 H 0.46341 0.98011 0.73654 0.0
C339 C 0.5812 0.97884 0.77602 0.0
C340 C 0.54268 0.98136 0.79537 0.0
H341 H 0.60779 0.98023 0.7283 0.0
H342 H 0.61434 0.98038 0.78662 0.0
C343 C 0.50033 0.97865 0.78063 0.0
C344 C 0.50139 0.47911 0.24255 0.0
C345 C 0.54374 0.48164 0.2278 0.0
H346 H 0.46452 0.48074 0.28665 0.0
C347 C 0.58228 0.47899 0.24714 0.0
H348 H 0.47101 0.48058 0.22833 0.0
C349 C 0.57853 0.47896 0.28063 0.0
C350 C 0.53618 0.48168 0.29538 0.0
H351 H 0.6154 0.4804 0.23652 0.0
H352 H 0.60892 0.48032 0.29485 0.0
C353 C 0.49764 0.47918 0.27604 0.0
C354 C 1.00143 0.49534 0.28068 0.0
C355 C 0.0438 0.4928 0.29541 0.0
H356 H 0.96451 0.49372 0.23659 0.0
C357 C 0.08231 0.49544 0.27606 0.0
H358 H 0.97106 0.49387 0.29491 0.0
C359 C 0.07852 0.49547 0.24257 0.0
C360 C 1.03617 0.49276 0.22784 0.0
H361 H 0.11545 0.49403 0.28666 0.0
H362 H 0.1089 0.49411 0.22834 0.0
C363 C 0.99765 0.49527 0.24719 0.0
C364 C 0.50035 0.49515 0.74258 0.0
C365 C 0.54269 0.49244 0.72783 0.0
H366 H 0.46347 0.49371 0.78668 0.0
C367 C 0.58123 0.49494 0.74717 0.0
H368 H 0.46996 0.4938 0.72836 0.0
C369 C 0.57748 0.49501 0.78066 0.0
C370 C 0.53513 0.49249 0.79541 0.0
H371 H 0.61436 0.49339 0.73656 0.0
H372 H 0.60787 0.49355 0.79488 0.0
C373 C 0.4966 0.49513 0.77607 0.0
C374 C 0.08123 0.47885 0.77603 0.0
C375 C 0.04271 0.48136 0.79538 0.0
H376 H 0.10782 0.48024 0.72831 0.0
C377 C 1.00035 0.47865 0.78064 0.0
H378 H 0.11436 0.48039 0.78663 0.0
C379 C 0.99657 0.47867 0.74715 0.0
C380 C 1.03508 0.48131 0.72781 0.0
H381 H 0.96998 0.48001 0.79487 0.0
H382 H 0.96343 0.48009 0.73655 0.0
C383 C 0.07745 0.47877 0.74254 0.0
C384 C 0.08598 0.2264 0.14768 0.0
C385 C 0.0546 0.18896 0.14727 0.0
H386 H 0.09682 0.30203 0.14738 0.0
C387 C 1.00862 0.20023 0.14813 0.0
H388 H 0.12161 0.21898 0.14719 0.0
C389 C 0.99433 0.24786 0.14799 0.0
C390 C 1.0257 0.2853 0.1473 0.0
H391 H 0.98349 0.17224 0.1479 0.0
H392 H 0.95869 0.25528 0.14775 0.0
C393 C 0.07169 0.27405 0.14784 0.0
C394 C 0.49434 0.74788 0.148 0.0
C395 C 0.52571 0.78531 0.1473 0.0
H396 H 0.48348 0.67226 0.1479 0.0
C397 C 0.57171 0.77405 0.14784 0.0
H398 H 0.4587 0.75531 0.14775 0.0
C399 C 0.58599 0.7264 0.14768 0.0
C400 C 0.5546 0.68897 0.14727 0.0
H401 H 0.59683 0.80203 0.14738 0.0
H402 H 0.62161 0.71897 0.14719 0.0
C403 C 0.50862 0.70024 0.14813 0.0
C404 C 0.57188 0.70031 0.37542 0.0
C405 C 0.52589 0.68907 0.37594 0.0
H406 H 0.62181 0.75537 0.37607 0.0
C407 C 0.49452 0.72651 0.3752 0.0
H408 H 0.597 0.67232 0.37591 0.0
C409 C 0.50882 0.77415 0.37504 0.0
C410 C 0.5548 0.7854 0.37592 0.0
H411 H 0.45889 0.7191 0.37542 0.0
H412 H 0.48369 0.80213 0.37524 0.0
C413 C 0.58618 0.74795 0.37556 0.0
C414 C 1.00881 0.27414 0.37504 0.0
C415 C 0.05479 0.28541 0.37592 0.0
H416 H 0.95889 0.21909 0.37542 0.0
C417 C 0.08617 0.24797 0.37555 0.0
H418 H 0.98367 0.30213 0.37524 0.0
C419 C 0.07189 0.20032 0.37541 0.0
C420 C 1.02589 0.18907 0.37594 0.0
H421 H 0.1218 0.25539 0.37606 0.0
H422 H 0.09701 0.17234 0.3759 0.0
C423 C 0.99452 0.22651 0.3752 0.0
C424 C 1.00719 0.70007 0.87537 0.0
C425 C 0.05318 0.68881 0.87592 0.0
H426 H 0.95727 0.75514 0.87602 0.0
C427 C 0.08456 0.72625 0.87522 0.0
H428 H 0.98207 0.67209 0.87583 0.0
C429 C 0.07027 0.77389 0.87508 0.0
C430 C 1.02429 0.78515 0.87594 0.0
H431 H 0.12019 0.71883 0.87546 0.0
H432 H 0.0954 0.80187 0.87532 0.0
C433 C 0.9929 0.74771 0.87553 0.0
C434 C 0.4929 0.24771 0.87552 0.0
C435 C 0.52429 0.28515 0.87593 0.0
H436 H 0.48206 0.17209 0.87582 0.0
C437 C 0.57027 0.27388 0.87508 0.0
H438 H 0.45727 0.25514 0.87601 0.0
C439 C 0.58455 0.22624 0.87521 0.0
C440 C 0.55318 0.18881 0.87591 0.0
H441 H 0.59541 0.30186 0.87531 0.0
H442 H 0.62019 0.21882 0.87545 0.0
C443 C 0.50719 0.20007 0.87536 0.0
C444 C 0.49271 0.22616 0.64765 0.0
C445 C 0.52409 0.18872 0.64728 0.0
H446 H 0.48188 0.30179 0.64729 0.0
C447 C 0.57008 0.19998 0.64816 0.0
H448 H 0.45708 0.21874 0.64714 0.0
C449 C 0.58437 0.24761 0.648 0.0
C450 C 0.553 0.28505 0.64726 0.0
H451 H 0.59521 0.17199 0.64796 0.0
H452 H 0.62 0.25502 0.64778 0.0
C453 C 0.507 0.27381 0.64779 0.0
C454 C 0.08437 0.74761 0.64801 0.0
C455 C 0.053 0.78505 0.64727 0.0
H456 H 0.09521 0.67199 0.64797 0.0
C457 C 1.007 0.7738 0.6478 0.0
H458 H 0.12001 0.75502 0.64779 0.0
C459 C 0.99272 0.72616 0.64766 0.0
C460 C 1.0241 0.68871 0.64729 0.0
H461 H 0.98188 0.80178 0.64731 0.0
H462 H 0.95709 0.71873 0.64715 0.0
C463 C 0.07008 0.69997 0.64817 0.0
C464 C 0.06519 0.00163 0.98526 0.0
C465 C 1.02533 0.97604 0.98003 0.0
H466 H 0.10996 0.0325 0.01961 0.0
C467 C 0.99974 0.96161 1.00673 0.0
H468 H 0.08582 0.01304 0.96526 0.0
C469 C 1.01371 0.97248 0.03795 0.0
C470 C 0.05356 -0.00193 0.04318 0.0
H471 H 0.96894 0.94162 1.00359 0.0
H472 H 0.99307 0.96107 0.05794 0.0
C473 C 0.07915 0.01251 0.01648 0.0
C474 C 0.51355 0.97234 0.98535 0.0
C475 C 0.55324 -0.00187 0.97999 0.0
H476 H 0.46922 0.94126 0.01985 0.0
C477 C 0.57899 0.01272 1.0066 0.0
H478 H 0.4928 0.9608 0.96542 0.0
C479 C 0.56535 0.00179 0.03786 0.0
C480 C 0.52566 0.97599 0.04322 0.0
H481 H 0.60968 0.03286 1.00336 0.0
H482 H 0.5861 0.01332 0.05778 0.0
C483 C 0.4999 0.96141 0.0166 0.0
C484 C 0.56517 0.97244 0.53795 0.0
C485 C 0.52528 -0.00202 0.54318 0.0
H486 H 0.61001 0.94171 0.5036 0.0
C487 C 0.49971 0.01246 0.51647 0.0
H488 H 0.58579 0.961 0.55795 0.0
C489 C 0.51373 0.00167 0.48525 0.0
C490 C 0.55362 0.97614 0.48003 0.0
H491 H 0.46889 0.03241 0.5196 0.0
H492 H 0.49311 0.01312 0.46525 0.0
C493 C 0.57919 0.96166 0.50674 0.0
C494 C 1.01355 0.00176 0.53786 0.0
C495 C 0.0532 0.97588 0.54322 0.0
H496 H 0.96929 0.033 0.50337 0.0
C497 C 0.07895 0.96132 0.5166 0.0
H498 H 0.9928 0.01328 0.55779 0.0
C499 C 0.06535 0.97236 0.48535 0.0
C500 C 1.0257 -0.00177 0.47999 0.0
H501 H 0.10961 0.94112 0.51984 0.0
H502 H 0.0861 0.96083 0.46542 0.0
C503 C 0.99995 0.0128 0.50661 0.0
C504 C 0.57914 0.51251 0.01648 0.0
C505 C 0.55355 0.49808 0.04318 0.0
H506 H 0.58582 0.51304 0.96527 0.0
C507 C 0.51369 0.47249 0.03795 0.0
H508 H 0.60995 0.5325 0.01962 0.0
C509 C 0.49973 0.46161 1.00673 0.0
C510 C 0.52533 0.47604 0.98003 0.0
H511 H 0.49305 0.46108 0.05794 0.0
H512 H 0.46893 0.44162 1.00359 0.0
C513 C 0.56519 0.50163 0.98526 0.0
C514 C 0.06533 0.50178 0.03787 0.0
C515 C 1.02564 0.47598 0.04322 0.0
H516 H 0.10967 0.53286 1.00337 0.0
C517 C 0.9999 0.46139 0.0166 0.0
H518 H 0.08607 0.51332 0.05779 0.0
C519 C 1.01355 0.47233 0.98535 0.0
C520 C 0.05324 0.49813 0.97999 0.0
H521 H 0.96921 0.44125 0.01984 0.0
H522 H 0.9928 0.46079 0.96542 0.0
C523 C 0.07898 0.51272 1.00661 0.0
C524 C 0.9997 0.51245 0.51648 0.0
C525 C 1.02528 0.49798 0.54318 0.0
H526 H 0.99308 0.51311 0.46526 0.0
C527 C 0.06517 0.47245 0.53795 0.0
H528 H 0.96887 0.53239 0.51962 0.0
C529 C 0.07918 0.46167 0.50674 0.0
C530 C 0.0536 0.47614 0.48003 0.0
H531 H 0.0858 0.46101 0.55795 0.0
H532 H 0.11001 0.44173 0.5036 0.0
C533 C 1.01371 0.50167 0.48526 0.0
C534 C 0.57894 0.46132 0.5166 0.0
C535 C 0.55319 0.47589 0.54322 0.0
H536 H 0.58608 0.46083 0.46542 0.0
C537 C 0.51354 0.50177 0.53786 0.0
H538 H 0.6096 0.44112 0.51983 0.0
C539 C 0.49994 0.5128 0.50661 0.0
C540 C 0.52569 0.49824 0.47999 0.0
H541 H 0.4928 0.5133 0.55779 0.0
H542 H 0.46928 0.53301 0.50337 0.0
C543 C 0.56534 0.47236 0.48535 0.0
loop_
_geom_bond_atom_site_label_1
_geom_bond_atom_site_label_2
_geom_bond_distance
_geom_bond_site_symmetry_2
_ccdc_geom_bond_type
O0 Cd1 2.223 1_655 S
O0 C8 1.315 1_655 S
Cd1 O0 2.223 1_455 S
Cd1 O4 2.297 1_455 S
Cd1 O5 2.439 . S
Cd1 O11 2.240 . S
Cd2 O3 2.240 . S
Cd2 O10 2.223 . S
Cd2 O12 2.297 . S
Cd2 O13 2.439 . S
O3 Cd2 2.240 . S
O3 C8 1.279 . S
O4 Cd1 2.297 1_655 S
O4 C6 1.247 1_655 S
O5 Cd1 2.439 . S
O5 C6 1.208 . S
C6 O4 1.247 1_455 S
C6 O5 1.208 . S
C7 O12 1.247 . S
C7 O13 1.208 . S
C8 O0 1.315 1_455 S
C8 O3 1.279 . S
C9 O10 1.315 . S
C9 O11 1.279 . S
O10 Cd2 2.223 . S
O10 C9 1.315 . S
O11 Cd1 2.240 . S
O11 C9 1.279 . S
O12 Cd2 2.297 . S
O12 C7 1.247 . S
O13 Cd2 2.439 . S
O13 C7 1.208 . S
O14 Cd15 2.223 . S
O14 C22 1.315 . S
Cd15 O14 2.223 . S
Cd15 O18 2.297 . S
Cd15 O19 2.439 . S
Cd15 O25 2.240 . S
Cd16 O17 2.240 . S
Cd16 O24 2.223 . S
Cd16 O26 2.297 . S
Cd16 O27 2.439 . S
O17 Cd16 2.240 . S
O17 C22 1.279 . S
O18 Cd15 2.297 . S
O18 C20 1.247 . S
O19 Cd15 2.439 . S
O19 C20 1.208 . S
C20 O18 1.247 . S
C20 O19 1.208 . S
C21 O26 1.247 . S
C21 O27 1.208 . S
C22 O14 1.315 . S
C22 O17 1.279 . S
C23 O24 1.315 . S
C23 O25 1.279 . S
O24 Cd16 2.223 . S
O24 C23 1.315 . S
O25 Cd15 2.240 . S
O25 C23 1.279 . S
O26 Cd16 2.297 . S
O26 C21 1.247 . S
O27 Cd16 2.439 . S
O27 C21 1.208 . S
O28 Cd29 2.223 . S
O28 C36 1.315 . S
Cd29 O28 2.223 . S
Cd29 O32 2.297 . S
Cd29 O33 2.439 . S
Cd29 O39 2.240 . S
Cd30 O31 2.240 . S
Cd30 O38 2.223 . S
Cd30 O40 2.297 . S
Cd30 O41 2.439 . S
O31 Cd30 2.240 . S
O31 C36 1.279 . S
O32 Cd29 2.297 . S
O32 C34 1.247 . S
O33 Cd29 2.439 . S
O33 C34 1.208 . S
C34 O32 1.247 . S
C34 O33 1.208 . S
C35 O40 1.247 . S
C35 O41 1.208 . S
C36 O28 1.315 . S
C36 O31 1.279 . S
C37 O38 1.315 . S
C37 O39 1.279 . S
O38 Cd30 2.223 . S
O38 C37 1.315 . S
O39 Cd29 2.240 . S
O39 C37 1.279 . S
O40 Cd30 2.297 . S
O40 C35 1.247 . S
O41 Cd30 2.439 . S
O41 C35 1.208 . S
O42 Cd43 2.223 1_455 S
O42 C50 1.315 1_455 S
Cd43 O42 2.223 1_655 S
Cd43 O46 2.297 1_655 S
Cd43 O47 2.439 . S
Cd43 O53 2.240 . S
Cd44 O45 2.240 . S
Cd44 O52 2.223 . S
Cd44 O54 2.297 . S
Cd44 O55 2.439 . S
O45 Cd44 2.240 . S
O45 C50 1.279 . S
O46 Cd43 2.297 1_455 S
O46 C48 1.247 1_455 S
O47 Cd43 2.439 . S
O47 C48 1.208 . S
C48 O46 1.247 1_655 S
C48 O47 1.208 . S
C49 O54 1.247 . S
C49 O55 1.208 . S
C50 O42 1.315 1_655 S
C50 O45 1.279 . S
C51 O52 1.315 . S
C51 O53 1.279 . S
O52 Cd44 2.223 . S
O52 C51 1.315 . S
O53 Cd43 2.240 . S
O53 C51 1.279 . S
O54 Cd44 2.297 . S
O54 C49 1.247 . S
O55 Cd44 2.439 . S
O55 C49 1.208 . S
O56 Cd57 2.223 . S
O56 C64 1.315 . S
Cd57 O56 2.223 . S
Cd57 O60 2.297 . S
Cd57 O61 2.439 . S
Cd57 O67 2.240 . S
Cd58 O59 2.240 . S
Cd58 O66 2.223 1_655 S
Cd58 O68 2.297 1_655 S
Cd58 O69 2.439 . S
O59 Cd58 2.240 . S
O59 C64 1.279 . S
O60 Cd57 2.297 . S
O60 C62 1.247 . S
O61 Cd57 2.439 . S
O61 C62 1.208 . S
C62 O60 1.247 . S
C62 O61 1.208 . S
C63 O68 1.247 1_655 S
C63 O69 1.208 . S
C64 O56 1.315 . S
C64 O59 1.279 . S
C65 O66 1.315 1_655 S
C65 O67 1.279 . S
O66 Cd58 2.223 1_455 S
O66 C65 1.315 1_455 S
O67 Cd57 2.240 . S
O67 C65 1.279 . S
O68 Cd58 2.297 1_455 S
O68 C63 1.247 1_455 S
O69 Cd58 2.439 . S
O69 C63 1.208 . S
O70 Cd71 2.223 . S
O70 C78 1.315 . S
Cd71 O70 2.223 . S
Cd71 O74 2.297 . S
Cd71 O75 2.439 . S
Cd71 O81 2.240 . S
Cd72 O73 2.240 . S
Cd72 O80 2.223 . S
Cd72 O82 2.297 . S
Cd72 O83 2.439 . S
O73 Cd72 2.240 . S
O73 C78 1.279 . S
O74 Cd71 2.297 . S
O74 C76 1.247 . S
O75 Cd71 2.439 . S
O75 C76 1.208 . S
C76 O74 1.247 . S
C76 O75 1.208 . S
C77 O82 1.247 . S
C77 O83 1.208 . S
C78 O70 1.315 . S
C78 O73 1.279 . S
C79 O80 1.315 . S
C79 O81 1.279 . S
O80 Cd72 2.223 . S
O80 C79 1.315 . S
O81 Cd71 2.240 . S
O81 C79 1.279 . S
O82 Cd72 2.297 . S
O82 C77 1.247 . S
O83 Cd72 2.439 . S
O83 C77 1.208 . S
O84 Cd85 2.223 . S
O84 C92 1.315 . S
Cd85 O84 2.223 . S
Cd85 O88 2.297 . S
Cd85 O89 2.439 . S
Cd85 O95 2.240 . S
Cd86 O87 2.240 . S
Cd86 O94 2.223 . S
Cd86 O96 2.297 . S
Cd86 O97 2.439 . S
O87 Cd86 2.240 . S
O87 C92 1.279 . S
O88 Cd85 2.297 . S
O88 C90 1.247 . S
O89 Cd85 2.439 . S
O89 C90 1.208 . S
C90 O88 1.247 . S
C90 O89 1.208 . S
C91 O96 1.247 . S
C91 O97 1.208 . S
C92 O84 1.315 . S
C92 O87 1.279 . S
C93 O94 1.315 . S
C93 O95 1.279 . S
O94 Cd86 2.223 . S
O94 C93 1.315 . S
O95 Cd85 2.240 . S
O95 C93 1.279 . S
O96 Cd86 2.297 . S
O96 C91 1.247 . S
O97 Cd86 2.439 . S
O97 C91 1.208 . S
O98 Cd99 2.223 . S
O98 C106 1.315 . S
Cd99 O98 2.223 . S
Cd99 O102 2.297 . S
Cd99 O103 2.439 . S
Cd99 O109 2.240 . S
Cd100 O101 2.240 . S
Cd100 O108 2.223 1_455 S
Cd100 O110 2.297 1_455 S
Cd100 O111 2.439 . S
O101 Cd100 2.240 . S
O101 C106 1.279 . S
O102 Cd99 2.297 . S
O102 C104 1.247 . S
O103 Cd99 2.439 . S
O103 C104 1.208 . S
C104 O102 1.247 . S
C104 O103 1.208 . S
C105 O110 1.247 1_455 S
C105 O111 1.208 . S
C106 O98 1.315 . S
C106 O101 1.279 . S
C107 O108 1.315 1_455 S
C107 O109 1.279 . S
O108 Cd100 2.223 1_655 S
O108 C107 1.315 1_655 S
O109 Cd99 2.240 . S
O109 C107 1.279 . S
O110 Cd100 2.297 1_655 S
O110 C105 1.247 1_655 S
O111 Cd100 2.439 . S
O111 C105 1.208 . S
O112 Cd113 2.223 . S
O112 C120 1.315 . S
Cd113 O112 2.223 . S
Cd113 O116 2.297 . S
Cd113 O117 2.439 . S
Cd113 O123 2.240 . S
Cd114 O115 2.240 . S
Cd114 O122 2.223 . S
Cd114 O124 2.297 . S
Cd114 O125 2.439 . S
O115 Cd114 2.240 . S
O115 C120 1.279 . S
O116 Cd113 2.297 . S
O116 C118 1.247 . S
O117 Cd113 2.439 . S
O117 C118 1.208 . S
C118 O116 1.247 . S
C118 O117 1.208 . S
C119 O124 1.247 . S
C119 O125 1.208 . S
C120 O112 1.315 . S
C120 O115 1.279 . S
C121 O122 1.315 . S
C121 O123 1.279 . S
O122 Cd114 2.223 . S
O122 C121 1.315 . S
O123 Cd113 2.240 . S
O123 C121 1.279 . S
O124 Cd114 2.297 . S
O124 C119 1.247 . S
O125 Cd114 2.439 . S
O125 C119 1.208 . S
O126 Cd127 2.223 1_455 S
O126 C134 1.315 1_455 S
Cd127 O126 2.223 1_655 S
Cd127 O130 2.297 1_655 S
Cd127 O131 2.439 . S
Cd127 O137 2.240 . S
Cd128 O129 2.240 . S
Cd128 O136 2.223 . S
Cd128 O138 2.297 . S
Cd128 O139 2.439 . S
O129 Cd128 2.240 . S
O129 C134 1.279 . S
O130 Cd127 2.297 1_455 S
O130 C132 1.247 1_455 S
O131 Cd127 2.439 . S
O131 C132 1.208 . S
C132 O130 1.247 1_655 S
C132 O131 1.208 . S
C133 O138 1.247 . S
C133 O139 1.208 . S
C134 O126 1.315 1_655 S
C134 O129 1.279 . S
C135 O136 1.315 . S
C135 O137 1.279 . S
O136 Cd128 2.223 . S
O136 C135 1.315 . S
O137 Cd127 2.240 . S
O137 C135 1.279 . S
O138 Cd128 2.297 . S
O138 C133 1.247 . S
O139 Cd128 2.439 . S
O139 C133 1.208 . S
O140 Cd141 2.223 1_655 S
O140 C148 1.315 1_655 S
Cd141 O140 2.223 1_455 S
Cd141 O144 2.297 1_455 S
Cd141 O145 2.439 . S
Cd141 O151 2.240 . S
Cd142 O143 2.240 . S
Cd142 O150 2.223 . S
Cd142 O152 2.297 . S
Cd142 O153 2.439 . S
O143 Cd142 2.240 . S
O143 C148 1.279 . S
O144 Cd141 2.297 1_655 S
O144 C146 1.247 1_655 S
O145 Cd141 2.439 . S
O145 C146 1.208 . S
C146 O144 1.247 1_455 S
C146 O145 1.208 . S
C147 O152 1.247 . S
C147 O153 1.208 . S
C148 O140 1.315 1_455 S
C148 O143 1.279 . S
C149 O150 1.315 . S
C149 O151 1.279 . S
O150 Cd142 2.223 . S
O150 C149 1.315 . S
O151 Cd141 2.240 . S
O151 C149 1.279 . S
O152 Cd142 2.297 . S
O152 C147 1.247 . S
O153 Cd142 2.439 . S
O153 C147 1.208 . S
O154 Cd155 2.223 . S
O154 C162 1.315 . S
Cd155 O154 2.223 . S
Cd155 O158 2.297 . S
Cd155 O159 2.439 . S
Cd155 O165 2.240 . S
Cd156 O157 2.240 . S
Cd156 O164 2.223 . S
Cd156 O166 2.297 . S
Cd156 O167 2.439 . S
O157 Cd156 2.240 . S
O157 C162 1.279 . S
O158 Cd155 2.297 . S
O158 C160 1.247 . S
O159 Cd155 2.439 . S
O159 C160 1.208 . S
C160 O158 1.247 . S
C160 O159 1.208 . S
C161 O166 1.247 . S
C161 O167 1.208 . S
C162 O154 1.315 . S
C162 O157 1.279 . S
C163 O164 1.315 . S
C163 O165 1.279 . S
O164 Cd156 2.223 . S
O164 C163 1.315 . S
O165 Cd155 2.240 . S
O165 C163 1.279 . S
O166 Cd156 2.297 . S
O166 C161 1.247 . S
O167 Cd156 2.439 . S
O167 C161 1.208 . S
O168 Cd169 2.223 . S
O168 C176 1.315 . S
Cd169 O168 2.223 . S
Cd169 O172 2.297 . S
Cd169 O173 2.439 . S
Cd169 O179 2.240 . S
Cd170 O171 2.240 . S
Cd170 O178 2.223 . S
Cd170 O180 2.297 . S
Cd170 O181 2.439 . S
O171 Cd170 2.240 . S
O171 C176 1.279 . S
O172 Cd169 2.297 . S
O172 C174 1.247 . S
O173 Cd169 2.439 . S
O173 C174 1.208 . S
C174 O172 1.247 . S
C174 O173 1.208 . S
C175 O180 1.247 . S
C175 O181 1.208 . S
C176 O168 1.315 . S
C176 O171 1.279 . S
C177 O178 1.315 . S
C177 O179 1.279 . S
O178 Cd170 2.223 . S
O178 C177 1.315 . S
O179 Cd169 2.240 . S
O179 C177 1.279 . S
O180 Cd170 2.297 . S
O180 C175 1.247 . S
O181 Cd170 2.439 . S
O181 C175 1.208 . S
O182 Cd183 2.223 . S
O182 C190 1.315 . S
Cd183 O182 2.223 . S
Cd183 O186 2.297 . S
Cd183 O187 2.439 . S
Cd183 O193 2.240 . S
Cd184 O185 2.240 . S
Cd184 O192 2.223 1_455 S
Cd184 O194 2.297 1_455 S
Cd184 O195 2.439 . S
O185 Cd184 2.240 . S
O185 C190 1.279 . S
O186 Cd183 2.297 . S
O186 C188 1.247 . S
O187 Cd183 2.439 . S
O187 C188 1.208 . S
C188 O186 1.247 . S
C188 O187 1.208 . S
C189 O194 1.247 1_455 S
C189 O195 1.208 . S
C190 O182 1.315 . S
C190 O185 1.279 . S
C191 O192 1.315 1_455 S
C191 O193 1.279 . S
O192 Cd184 2.223 1_655 S
O192 C191 1.315 1_655 S
O193 Cd183 2.240 . S
O193 C191 1.279 . S
O194 Cd184 2.297 1_655 S
O194 C189 1.247 1_655 S
O195 Cd184 2.439 . S
O195 C189 1.208 . S
O196 Cd197 2.223 . S
O196 C204 1.315 . S
Cd197 O196 2.223 . S
Cd197 O200 2.297 . S
Cd197 O201 2.439 . S
Cd197 O207 2.240 . S
Cd198 O199 2.240 . S
Cd198 O206 2.223 1_655 S
Cd198 O208 2.297 1_655 S
Cd198 O209 2.439 . S
O199 Cd198 2.240 . S
O199 C204 1.279 . S
O200 Cd197 2.297 . S
O200 C202 1.247 . S
O201 Cd197 2.439 . S
O201 C202 1.208 . S
C202 O200 1.247 . S
C202 O201 1.208 . S
C203 O208 1.247 1_655 S
C203 O209 1.208 . S
C204 O196 1.315 . S
C204 O199 1.279 . S
C205 O206 1.315 1_655 S
C205 O207 1.279 . S
O206 Cd198 2.223 1_455 S
O206 C205 1.315 1_455 S
O207 Cd197 2.240 . S
O207 C205 1.279 . S
O208 Cd198 2.297 1_455 S
O208 C203 1.247 1_455 S
O209 Cd198 2.439 . S
O209 C203 1.208 . S
O210 Cd211 2.223 . S
O210 C218 1.315 . S
Cd211 O210 2.223 . S
Cd211 O214 2.297 . S
Cd211 O215 2.439 . S
Cd211 O221 2.240 . S
Cd212 O213 2.240 . S
Cd212 O220 2.223 . S
Cd212 O222 2.297 . S
Cd212 O223 2.439 . S
O213 Cd212 2.240 . S
O213 C218 1.279 . S
O214 Cd211 2.297 . S
O214 C216 1.247 . S
O215 Cd211 2.439 . S
O215 C216 1.208 . S
C216 O214 1.247 . S
C216 O215 1.208 . S
C217 O222 1.247 . S
C217 O223 1.208 . S
C218 O210 1.315 . S
C218 O213 1.279 . S
C219 O220 1.315 . S
C219 O221 1.279 . S
O220 Cd212 2.223 . S
O220 C219 1.315 . S
O221 Cd211 2.240 . S
O221 C219 1.279 . S
O222 Cd212 2.297 . S
O222 C217 1.247 . S
O223 Cd212 2.439 . S
O223 C217 1.208 . S
C224 C225 1.387 . S
C224 H228 0.950 . S
C224 C233 1.390 1_565 S
C225 C224 1.387 . S
C225 C227 1.387 . S
H226 C233 0.950 . S
C227 C225 1.387 . S
C227 C229 1.390 1_565 S
C227 H231 0.950 . S
H228 C224 0.950 . S
C229 C227 1.390 1_545 S
C229 C230 1.387 . S
C229 H232 0.950 . S
C230 C229 1.387 . S
C230 C233 1.387 . S
H231 C227 0.950 . S
H232 C229 0.950 . S
C233 C224 1.390 1_545 S
C233 H226 0.950 . S
C233 C230 1.387 . S
C234 C235 1.387 . S
C234 H238 0.950 . S
C234 C243 1.390 1_565 S
C235 C234 1.387 . S
C235 C237 1.387 . S
H236 C243 0.950 . S
C237 C235 1.387 . S
C237 C239 1.390 1_565 S
C237 H241 0.950 . S
H238 C234 0.950 . S
C239 C237 1.390 1_545 S
C239 C240 1.387 . S
C239 H242 0.950 . S
C240 C239 1.387 . S
C240 C243 1.387 . S
H241 C237 0.950 . S
H242 C239 0.950 . S
C243 C234 1.390 1_545 S
C243 H236 0.950 . S
C243 C240 1.387 . S
C244 C245 1.387 . S
C244 H248 0.950 . S
C244 C253 1.390 1_565 S
C245 C244 1.387 . S
C245 C247 1.387 . S
H246 C253 0.950 . S
C247 C245 1.387 . S
C247 C249 1.390 1_565 S
C247 H251 0.950 . S
H248 C244 0.950 . S
C249 C247 1.390 1_545 S
C249 C250 1.387 . S
C249 H252 0.950 . S
C250 C249 1.387 . S
C250 C253 1.387 . S
H251 C247 0.950 . S
H252 C249 0.950 . S
C253 C244 1.390 1_545 S
C253 H246 0.950 . S
C253 C250 1.387 . S
C254 C255 1.387 . S
C254 H258 0.950 . S
C254 C263 1.390 1_565 S
C255 C254 1.387 . S
C255 C257 1.387 . S
H256 C263 0.950 . S
C257 C255 1.387 . S
C257 C259 1.390 1_565 S
C257 H261 0.950 . S
H258 C254 0.950 . S
C259 C257 1.390 1_545 S
C259 C260 1.387 . S
C259 H262 0.950 . S
C260 C259 1.387 . S
C260 C263 1.387 . S
H261 C257 0.950 . S
H262 C259 0.950 . S
C263 C254 1.390 1_545 S
C263 H256 0.950 . S
C263 C260 1.387 . S
C264 C265 1.387 . S
C264 H268 0.950 . S
C264 C273 1.390 . S
C265 C264 1.387 . S
C265 C267 1.387 . S
H266 C273 0.950 . S
C267 C265 1.387 . S
C267 C269 1.390 . S
C267 H271 0.950 . S
H268 C264 0.950 . S
C269 C267 1.390 . S
C269 C270 1.387 . S
C269 H272 0.950 . S
C270 C269 1.387 . S
C270 C273 1.387 . S
H271 C267 0.950 . S
H272 C269 0.950 . S
C273 C264 1.390 . S
C273 H266 0.950 . S
C273 C270 1.387 . S
C274 C275 1.387 . S
C274 H278 0.950 . S
C274 C283 1.390 . S
C275 C274 1.387 . S
C275 C277 1.387 . S
H276 C283 0.950 . S
C277 C275 1.387 . S
C277 C279 1.390 . S
C277 H281 0.950 . S
H278 C274 0.950 . S
C279 C277 1.390 . S
C279 C280 1.387 . S
C279 H282 0.950 . S
C280 C279 1.387 . S
C280 C283 1.387 . S
H281 C277 0.950 . S
H282 C279 0.950 . S
C283 C274 1.390 . S
C283 H276 0.950 . S
C283 C280 1.387 . S
C284 C285 1.387 . S
C284 H288 0.950 . S
C284 C293 1.390 . S
C285 C284 1.387 . S
C285 C287 1.387 . S
H286 C293 0.950 . S
C287 C285 1.387 . S
C287 C289 1.390 . S
C287 H291 0.950 . S
H288 C284 0.950 . S
C289 C287 1.390 . S
C289 C290 1.387 . S
C289 H292 0.950 . S
C290 C289 1.387 . S
C290 C293 1.387 . S
H291 C287 0.950 . S
H292 C289 0.950 . S
C293 C284 1.390 . S
C293 H286 0.950 . S
C293 C290 1.387 . S
C294 C295 1.387 . S
C294 H298 0.950 . S
C294 C303 1.390 . S
C295 C294 1.387 . S
C295 C297 1.387 . S
H296 C303 0.950 . S
C297 C295 1.387 . S
C297 C299 1.390 . S
C297 H301 0.950 . S
H298 C294 0.950 . S
C299 C297 1.390 . S
C299 C300 1.387 . S
C299 H302 0.950 . S
C300 C299 1.387 . S
C300 C303 1.387 . S
H301 C297 0.950 . S
H302 C299 0.950 . S
C303 C294 1.390 . S
C303 H296 0.950 . S
C303 C300 1.387 . S
C304 C305 1.387 . S
C304 H308 0.950 1_545 S
C304 C313 1.390 1_655 S
C305 C304 1.387 . S
C305 C307 1.387 . S
H306 C313 0.950 1_565 S
C307 C305 1.387 . S
C307 C309 1.390 1_655 S
C307 H311 0.950 . S
H308 C304 0.950 1_565 S
C309 C307 1.390 1_455 S
C309 C310 1.387 . S
C309 H312 0.950 . S
C310 C309 1.387 . S
C310 C313 1.387 . S
H311 C307 0.950 . S
H312 C309 0.950 . S
C313 C304 1.390 1_455 S
C313 H306 0.950 1_545 S
C313 C310 1.387 . S
C314 C315 1.387 . S
C314 H318 0.950 1_565 S
C314 C323 1.390 . S
C315 C314 1.387 . S
C315 C317 1.387 . S
H316 C323 0.950 1_545 S
C317 C315 1.387 . S
C317 C319 1.390 . S
C317 H321 0.950 . S
H318 C314 0.950 1_545 S
C319 C317 1.390 . S
C319 C320 1.387 . S
C319 H322 0.950 . S
C320 C319 1.387 . S
C320 C323 1.387 . S
H321 C317 0.950 . S
H322 C319 0.950 . S
C323 C314 1.390 . S
C323 H316 0.950 1_565 S
C323 C320 1.387 . S
C324 C325 1.387 . S
C324 H328 0.950 . S
C324 C333 1.390 1_455 S
C325 C324 1.387 . S
C325 C327 1.387 . S
H326 C333 0.950 . S
C327 C325 1.387 . S
C327 C329 1.390 1_455 S
C327 H331 0.950 1_565 S
H328 C324 0.950 . S
C329 C327 1.390 1_655 S
C329 C330 1.387 . S
C329 H332 0.950 1_565 S
C330 C329 1.387 . S
C330 C333 1.387 . S
H331 C327 0.950 1_545 S
H332 C329 0.950 1_545 S
C333 C324 1.390 1_655 S
C333 H326 0.950 . S
C333 C330 1.387 . S
C334 C335 1.387 . S
C334 H338 0.950 1_545 S
C334 C343 1.390 . S
C335 C334 1.387 . S
C335 C337 1.387 . S
H336 C343 0.950 1_565 S
C337 C335 1.387 . S
C337 C339 1.390 . S
C337 H341 0.950 . S
H338 C334 0.950 1_565 S
C339 C337 1.390 . S
C339 C340 1.387 . S
C339 H342 0.950 . S
C340 C339 1.387 . S
C340 C343 1.387 . S
H341 C337 0.950 . S
H342 C339 0.950 . S
C343 C334 1.390 . S
C343 H336 0.950 1_545 S
C343 C340 1.387 . S
C344 C345 1.387 . S
C344 H348 0.950 . S
C344 C353 1.390 . S
C345 C344 1.387 . S
C345 C347 1.387 . S
H346 C353 0.950 . S
C347 C345 1.387 . S
C347 C349 1.390 . S
C347 H351 0.950 . S
H348 C344 0.950 . S
C349 C347 1.390 . S
C349 C350 1.387 . S
C349 H352 0.950 . S
C350 C349 1.387 . S
C350 C353 1.387 . S
H351 C347 0.950 . S
H352 C349 0.950 . S
C353 C344 1.390 . S
C353 H346 0.950 . S
C353 C350 1.387 . S
C354 C355 1.387 . S
C354 H358 0.950 . S
C354 C363 1.390 1_455 S
C355 C354 1.387 . S
C355 C357 1.387 . S
H356 C363 0.950 . S
C357 C355 1.387 . S
C357 C359 1.390 1_455 S
C357 H361 0.950 . S
H358 C354 0.950 . S
C359 C357 1.390 1_655 S
C359 C360 1.387 . S
C359 H362 0.950 . S
C360 C359 1.387 . S
C360 C363 1.387 . S
H361 C357 0.950 . S
H362 C359 0.950 . S
C363 C354 1.390 1_655 S
C363 H356 0.950 . S
C363 C360 1.387 . S
C364 C365 1.387 . S
C364 H368 0.950 . S
C364 C373 1.390 . S
C365 C364 1.387 . S
C365 C367 1.387 . S
H366 C373 0.950 . S
C367 C365 1.387 . S
C367 C369 1.390 . S
C367 H371 0.950 . S
H368 C364 0.950 . S
C369 C367 1.390 . S
C369 C370 1.387 . S
C369 H372 0.950 . S
C370 C369 1.387 . S
C370 C373 1.387 . S
H371 C367 0.950 . S
H372 C369 0.950 . S
C373 C364 1.390 . S
C373 H366 0.950 . S
C373 C370 1.387 . S
C374 C375 1.387 . S
C374 H378 0.950 . S
C374 C383 1.390 1_455 S
C375 C374 1.387 . S
C375 C377 1.387 . S
H376 C383 0.950 . S
C377 C375 1.387 . S
C377 C379 1.390 1_455 S
C377 H381 0.950 . S
H378 C374 0.950 . S
C379 C377 1.390 1_655 S
C379 C380 1.387 . S
C379 H382 0.950 . S
C380 C379 1.387 . S
C380 C383 1.387 . S
H381 C377 0.950 . S
H382 C379 0.950 . S
C383 C374 1.390 1_655 S
C383 H376 0.950 . S
C383 C380 1.387 . S
C384 C385 1.387 . S
C384 H388 0.950 . S
C384 C393 1.390 1_455 S
C385 C384 1.387 . S
C385 C387 1.387 . S
H386 C393 0.950 . S
C387 C385 1.387 . S
C387 C389 1.390 1_455 S
C387 H391 0.950 . S
H388 C384 0.950 . S
C389 C387 1.390 1_655 S
C389 C390 1.387 . S
C389 H392 0.950 . S
C390 C389 1.387 . S
C390 C393 1.387 . S
H391 C387 0.950 . S
H392 C389 0.950 . S
C393 C384 1.390 1_655 S
C393 H386 0.950 . S
C393 C390 1.387 . S
C394 C395 1.387 . S
C394 H398 0.950 . S
C394 C403 1.390 . S
C395 C394 1.387 . S
C395 C397 1.387 . S
H396 C403 0.950 . S
C397 C395 1.387 . S
C397 C399 1.390 . S
C397 H401 0.950 . S
H398 C394 0.950 . S
C399 C397 1.390 . S
C399 C400 1.387 . S
C399 H402 0.950 . S
C400 C399 1.387 . S
C400 C403 1.387 . S
H401 C397 0.950 . S
H402 C399 0.950 . S
C403 C394 1.390 . S
C403 H396 0.950 . S
C403 C400 1.387 . S
C404 C405 1.387 . S
C404 H408 0.950 . S
C404 C413 1.390 . S
C405 C404 1.387 . S
C405 C407 1.387 . S
H406 C413 0.950 . S
C407 C405 1.387 . S
C407 C409 1.390 . S
C407 H411 0.950 . S
H408 C404 0.950 . S
C409 C407 1.390 . S
C409 C410 1.387 . S
C409 H412 0.950 . S
C410 C409 1.387 . S
C410 C413 1.387 . S
H411 C407 0.950 . S
H412 C409 0.950 . S
C413 C404 1.390 . S
C413 H406 0.950 . S
C413 C410 1.387 . S
C414 C415 1.387 . S
C414 H418 0.950 . S
C414 C423 1.390 1_455 S
C415 C414 1.387 . S
C415 C417 1.387 . S
H416 C423 0.950 . S
C417 C415 1.387 . S
C417 C419 1.390 1_455 S
C417 H421 0.950 . S
H418 C414 0.950 . S
C419 C417 1.390 1_655 S
C419 C420 1.387 . S
C419 H422 0.950 . S
C420 C419 1.387 . S
C420 C423 1.387 . S
H421 C417 0.950 . S
H422 C419 0.950 . S
C423 C414 1.390 1_655 S
C423 H416 0.950 . S
C423 C420 1.387 . S
C424 C425 1.387 . S
C424 H428 0.950 . S
C424 C433 1.390 1_455 S
C425 C424 1.387 . S
C425 C427 1.387 . S
H426 C433 0.950 . S
C427 C425 1.387 . S
C427 C429 1.390 1_455 S
C427 H431 0.950 . S
H428 C424 0.950 . S
C429 C427 1.390 1_655 S
C429 C430 1.387 . S
C429 H432 0.950 . S
C430 C429 1.387 . S
C430 C433 1.387 . S
H431 C427 0.950 . S
H432 C429 0.950 . S
C433 C424 1.390 1_655 S
C433 H426 0.950 . S
C433 C430 1.387 . S
C434 C435 1.387 . S
C434 H438 0.950 . S
C434 C443 1.390 . S
C435 C434 1.387 . S
C435 C437 1.387 . S
H436 C443 0.950 . S
C437 C435 1.387 . S
C437 C439 1.390 . S
C437 H441 0.950 . S
H438 C434 0.950 . S
C439 C437 1.390 . S
C439 C440 1.387 . S
C439 H442 0.950 . S
C440 C439 1.387 . S
C440 C443 1.387 . S
H441 C437 0.950 . S
H442 C439 0.950 . S
C443 C434 1.390 . S
C443 H436 0.950 . S
C443 C440 1.387 . S
C444 C445 1.387 . S
C444 H448 0.950 . S
C444 C453 1.390 . S
C445 C444 1.387 . S
C445 C447 1.387 . S
H446 C453 0.950 . S
C447 C445 1.387 . S
C447 C449 1.390 . S
C447 H451 0.950 . S
H448 C444 0.950 . S
C449 C447 1.390 . S
C449 C450 1.387 . S
C449 H452 0.950 . S
C450 C449 1.387 . S
C450 C453 1.387 . S
H451 C447 0.950 . S
H452 C449 0.950 . S
C453 C444 1.390 . S
C453 H446 0.950 . S
C453 C450 1.387 . S
C454 C455 1.387 . S
C454 H458 0.950 . S
C454 C463 1.390 1_455 S
C455 C454 1.387 . S
C455 C457 1.387 . S
H456 C463 0.950 . S
C457 C455 1.387 . S
C457 C459 1.390 1_455 S
C457 H461 0.950 . S
H458 C454 0.950 . S
C459 C457 1.390 1_655 S
C459 C460 1.387 . S
C459 H462 0.950 . S
C460 C459 1.387 . S
C460 C463 1.387 . S
H461 C457 0.950 . S
H462 C459 0.950 . S
C463 C454 1.390 1_655 S
C463 H456 0.950 . S
C463 C460 1.387 . S
C464 C465 1.387 1_545 S
C464 H468 0.950 . S
C464 C473 1.390 1_655 S
C465 C464 1.387 1_565 S
C465 C467 1.387 1_556 S
H466 C473 0.950 . S
C467 C465 1.387 1_554 S
C467 C469 1.390 1_655 S
C467 H471 0.950 . S
H468 C464 0.950 . S
C469 C467 1.390 1_455 S
C469 C470 1.387 1_565 S
C469 H472 0.950 . S
C470 C469 1.387 1_545 S
C470 C473 1.387 1_554 S
H471 C467 0.950 . S
H472 C469 0.950 . S
C473 C464 1.390 1_455 S
C473 H466 0.950 . S
C473 C470 1.387 1_556 S
C474 C475 1.387 1_565 S
C474 H478 0.950 . S
C474 C483 1.390 . S
C475 C474 1.387 1_545 S
C475 C477 1.387 1_556 S
H476 C483 0.950 . S
C477 C475 1.387 1_554 S
C477 C479 1.390 . S
C477 H481 0.950 . S
H478 C474 0.950 . S
C479 C477 1.390 . S
C479 C480 1.387 1_545 S
C479 H482 0.950 . S
C480 C479 1.387 1_565 S
C480 C483 1.387 1_554 S
H481 C477 0.950 . S
H482 C479 0.950 . S
C483 C474 1.390 . S
C483 H476 0.950 . S
C483 C480 1.387 1_556 S
C484 C485 1.387 . S
C484 H488 0.950 . S
C484 C493 1.390 . S
C485 C484 1.387 . S
C485 C487 1.387 1_545 S
H486 C493 0.950 . S
C487 C485 1.387 1_565 S
C487 C489 1.390 . S
C487 H491 0.950 . S
H488 C484 0.950 . S
C489 C487 1.390 . S
C489 C490 1.387 . S
C489 H492 0.950 . S
C490 C489 1.387 . S
C490 C493 1.387 1_565 S
H491 C487 0.950 . S
H492 C489 0.950 . S
C493 C484 1.390 . S
C493 H486 0.950 . S
C493 C490 1.387 1_545 S
C494 C495 1.387 1_545 S
C494 H498 0.950 . S
C494 C503 1.390 1_455 S
C495 C494 1.387 1_565 S
C495 C497 1.387 . S
H496 C503 0.950 . S
C497 C495 1.387 . S
C497 C499 1.390 1_455 S
C497 H501 0.950 . S
H498 C494 0.950 . S
C499 C497 1.390 1_655 S
C499 C500 1.387 1_565 S
C499 H502 0.950 . S
C500 C499 1.387 1_545 S
C500 C503 1.387 . S
H501 C497 0.950 . S
H502 C499 0.950 . S
C503 C494 1.390 1_655 S
C503 H496 0.950 . S
C503 C500 1.387 . S
C504 C505 1.387 1_556 S
C504 H508 0.950 . S
C504 C513 1.390 . S
C505 C504 1.387 1_554 S
C505 C507 1.387 . S
H506 C513 0.950 . S
C507 C505 1.387 . S
C507 C509 1.390 . S
C507 H511 0.950 . S
H508 C504 0.950 . S
C509 C507 1.390 . S
C509 C510 1.387 1_554 S
C509 H512 0.950 . S
C510 C509 1.387 1_556 S
C510 C513 1.387 . S
H511 C507 0.950 . S
H512 C509 0.950 . S
C513 C504 1.390 . S
C513 H506 0.950 . S
C513 C510 1.387 . S
C514 C515 1.387 . S
C514 H518 0.950 . S
C514 C523 1.390 1_554 S
C515 C514 1.387 . S
C515 C517 1.388 1_655 S
H516 C523 0.950 . S
C517 C515 1.388 1_455 S
C517 C519 1.390 1_554 S
C517 H521 0.950 . S
H518 C514 0.950 . S
C519 C517 1.390 1_556 S
C519 C520 1.387 . S
C519 H522 0.950 . S
C520 C519 1.387 . S
C520 C523 1.388 1_455 S
H521 C517 0.950 . S
H522 C519 0.950 . S
C523 C514 1.390 1_556 S
C523 H516 0.950 . S
C523 C520 1.388 1_655 S
C524 C525 1.387 . S
C524 H528 0.950 . S
C524 C533 1.390 . S
C525 C524 1.387 . S
C525 C527 1.387 1_655 S
H526 C533 0.950 . S
C527 C525 1.387 1_455 S
C527 C529 1.390 . S
C527 H531 0.950 . S
H528 C524 0.950 . S
C529 C527 1.390 . S
C529 C530 1.387 . S
C529 H532 0.950 . S
C530 C529 1.387 . S
C530 C533 1.387 1_455 S
H531 C527 0.950 . S
H532 C529 0.950 . S
C533 C524 1.390 . S
C533 H526 0.950 . S
C533 C530 1.387 1_655 S
C534 C535 1.387 . S
C534 H538 0.950 . S
C534 C543 1.390 . S
C535 C534 1.387 . S
C535 C537 1.387 . S
H536 C543 0.950 . S
C537 C535 1.387 . S
C537 C539 1.390 . S
C537 H541 0.950 . S
H538 C534 0.950 . S
C539 C537 1.390 . S
C539 C540 1.387 . S
C539 H542 0.950 . S
C540 C539 1.387 . S
C540 C543 1.387 . S
H541 C537 0.950 . S
H542 C539 0.950 . S
C543 C534 1.390 . S
C543 H536 0.950 . S
C543 C540 1.387 . S
C225 C21 1.521 . S
C230 C7 1.521 . S
C235 C35 1.521 . S
C240 C49 1.521 . S
C245 C62 1.521 . S
C250 C76 1.521 . S
C255 C104 1.521 . S
C260 C90 1.521 . S
C265 C133 1.524 . S
C270 C119 1.524 . S
C275 C161 1.521 . S
C280 C147 1.521 . S
C285 C188 1.524 . S
C290 C174 1.524 . S
C295 C216 1.521 . S
C300 C202 1.521 . S
C305 C48 1.506 . S
C310 C6 1.506 . S
C315 C20 1.506 . S
C320 C34 1.506 . S
C325 C105 1.506 . S
C330 C63 1.506 . S
C335 C91 1.508 . S
C340 C77 1.508 . S
C345 C118 1.508 . S
C350 C160 1.508 . S
C355 C146 1.508 . S
C360 C132 1.508 . S
C365 C217 1.508 . S
C370 C175 1.508 . S
C375 C189 1.506 . S
C380 C203 1.506 . S
C385 C8 1.488 . S
C390 C134 1.488 . S
C395 C22 1.487 . S
C400 C120 1.487 . S
C405 C162 1.488 . S
C410 C36 1.488 . S
C415 C148 1.487 . S
C420 C50 1.487 . S
C425 C191 1.487 . S
C430 C65 1.487 . S
C435 C177 1.487 . S
C440 C79 1.487 . S
C445 C93 1.487 . S
C450 C219 1.487 . S
C455 C107 1.488 . S
C460 C205 1.488 . S
C465 C64 1.581 . S
C470 C9 1.581 . S
C475 C78 1.581 . S
C480 C23 1.581 . S
C485 C92 1.581 . S
C490 C37 1.581 . S
C495 C106 1.581 . S
C500 C51 1.581 . S
C505 C121 1.581 . S
C510 C176 1.581 . S
C515 C135 1.580 . S
C520 C190 1.580 . S
C525 C204 1.581 . S
C530 C149 1.581 . S
C535 C218 1.580 . S
C540 C163 1.580 . S
