# Generated by pormake.
# Topology sxc, (6)-cn, num edge types: 1
# Building blocks:
#     Node 0, Type 0, BuildingBlock: CUWYAW_clean_sbu_0, # of connection points: 6
#     Node 1, Type 0, BuildingBlock: CUWYAW_clean_sbu_0, # of connection points: 6
#     Node 2, Type 0, BuildingBlock: CUWYAW_clean_sbu_0, # of connection points: 6
#     Edge 3, Type (0, 0), BuildingBlock: ZUJKAS_clean_linker_0, # of connection points: 2
#     Edge 4, Type (0, 0), BuildingBlock: ZUJKAS_clean_linker_0, # of connection points: 2
#     Edge 5, Type (0, 0), BuildingBlock: ZUJKAS_clean_linker_0, # of connection points: 2
#     Edge 6, Type (0, 0), BuildingBlock: ZUJKAS_clean_linker_0, # of connection points: 2
#     Edge 7, Type (0, 0), BuildingBlock: ZUJKAS_clean_linker_0, # of connection points: 2
#     Edge 8, Type (0, 0), BuildingBlock: ZUJKAS_clean_linker_0, # of connection points: 2
#     Edge 9, Type (0, 0), BuildingBlock: ZUJKAS_clean_linker_0, # of connection points: 2
#     Edge 10, Type (0, 0), BuildingBlock: ZUJKAS_clean_linker_0, # of connection points: 2
#     Edge 11, Type (0, 0), BuildingBlock: ZUJKAS_clean_linker_0, # of connection points: 2
# Relax obj value: 0.370
# Max RMSD: 0.068
# Mean RMSD: 0.051
data_MOF--net-sxc--node1-CUWYAW_clean_sbu_0--edge1-ZUJKAS_clean_linker_0
_symmetry_space_group_name_H-M    P1
_symmetry_Int_Tables_number       1
_symmetry_cell_setting            triclinic
loop_
_symmetry_equiv_pos_as_xyz
'x, y, z'
_cell_length_a     22.104374
_cell_length_b     22.154382
_cell_length_c     59.075266
_cell_angle_alpha  95.342018
_cell_angle_beta   91.257361
_cell_angle_gamma 120.20474
loop_
_atom_site_label
_atom_site_type_symbol
_atom_site_fract_x
_atom_site_fract_y
_atom_site_fract_z
_atom_type_partial_charge
C0 C 1.10914 0.22406 0.9783 0.0
Eu1 Eu 0.15257 0.14456 -0.00697 0.0
C2 C 0.15093 0.28937 0.96764 0.0
C3 C 0.19908 0.35222 0.98121 0.0
C4 C 0.25003 0.40898 0.97122 0.0
C5 C 0.25352 0.40431 0.94752 0.0
C6 C 0.20274 0.34398 0.93371 0.0
C7 C 0.15166 0.28675 0.94371 0.0
C8 C 0.16172 0.12293 0.03755 0.0
C9 C 0.33281 0.25267 -0.00387 0.0
C10 C 0.29167 1.0117 0.00632 0.0
Eu11 Eu 0.22865 1.08042 -0.00271 0.0
C12 C 0.35556 1.01412 -0.00129 0.0
C13 C 0.38395 1.04391 0.97881 0.0
C14 C 0.43722 1.03577 0.96944 0.0
C15 C 0.46335 0.99836 0.97999 0.0
C16 C 0.43885 0.97377 0.00095 0.0
C17 C 0.38501 0.98134 0.01019 0.0
C18 C 0.21974 0.10476 0.95297 0.0
C19 C 1.04828 0.9734 -0.00461 0.0
O20 O 1.09884 0.16644 0.96644 0.0
O21 O 1.12596 0.2266 -0.00013 0.0
O22 O 1.10522 0.11283 0.02661 0.0
O23 O 0.21189 0.14503 0.02465 0.0
O24 O 0.26912 0.24517 -0.00817 0.0
O25 O 0.33125 0.19356 0.00021 0.0
O26 O 0.24045 0.98895 -0.00952 0.0
O27 O 0.30044 1.06673 0.01942 0.0
O28 O 0.2765 0.1171 0.96407 0.0
O29 O 0.16961 1.07999 0.96576 0.0
O30 O 1.11205 0.9815 0.00049 0.0
O31 O 1.04983 1.03176 -0.00974 0.0
H32 H 0.2 0.35646 -0.00036 0.0
H33 H 0.28841 0.45588 0.98207 0.0
H34 H 0.20435 0.3401 0.91534 0.0
H35 H 1.11511 0.23918 0.93278 0.0
H36 H 0.36234 1.07004 0.96981 0.0
H37 H 0.45514 1.05509 0.95328 0.0
H38 H 0.45734 0.94383 0.00927 0.0
H39 H 0.3639 0.95834 0.02562 0.0
C40 C 0.39338 0.2147 0.32954 0.0
Eu41 Eu 0.26261 0.17711 0.33134 0.0
C42 C 0.42435 0.17739 0.33981 0.0
C43 C 0.40135 0.15008 0.36056 0.0
C44 C 0.41429 0.09909 0.36764 0.0
C45 C 0.45028 1.07412 0.35412 0.0
C46 C 0.47674 0.1043 0.33401 0.0
C47 C 0.46369 0.15543 0.32689 0.0
C48 C 0.21576 0.16342 0.37426 0.0
C49 C 0.1913 0.9983 0.3299 0.0
C50 C 0.99381 1.05283 0.33394 0.0
Eu51 Eu 1.12617 0.10424 0.32753 0.0
C52 C 0.93932 0.99964 0.3464 0.0
C53 C 0.89393 1.01687 0.35747 0.0
C54 C 0.83951 0.96757 0.36872 0.0
C55 C 0.82911 0.89953 0.36925 0.0
C56 C 0.87587 0.88268 0.35856 0.0
C57 C 0.931 0.93265 0.34729 0.0
C58 C 0.17199 0.11501 0.28452 0.0
C59 C 0.19886 0.28372 0.32857 0.0
O60 O 0.34656 0.17737 0.31249 0.0
O61 O 0.3724 0.24773 0.34382 0.0
O62 O 0.2625 0.2217 0.36744 0.0
O63 O 0.19319 0.11439 0.35786 0.0
O64 O 0.24849 1.06069 0.32771 0.0
O65 O 1.13314 1.00201 0.33221 0.0
O66 O 1.01595 1.03084 0.31654 0.0
O67 O 1.04439 0.10769 0.34646 0.0
O68 O 1.12476 1.05761 0.29168 0.0
O69 O 0.19515 0.16522 0.3006 0.0
O70 O 1.14093 0.2211 0.33025 0.0
O71 O 0.25728 0.28012 0.32683 0.0
H72 H 0.36956 0.16488 0.3707 0.0
H73 H 0.39412 1.07757 0.38335 0.0
H74 H 0.50415 1.08561 0.3231 0.0
H75 H 0.48046 0.17451 0.31061 0.0
H76 H 0.89956 1.06824 0.35697 0.0
H77 H 0.80359 0.98217 0.37611 0.0
H78 H 0.86917 0.83079 0.35859 0.0
H79 H 0.96618 0.91861 0.33899 0.0
C80 C 0.30481 0.30792 0.65899 0.0
Eu81 Eu 0.22569 0.17573 0.66443 0.0
C82 C 0.30024 0.36146 0.64738 0.0
C83 C 0.35653 0.40453 0.63519 0.0
C84 C 0.35618 0.45795 0.62469 0.0
C85 C 0.29928 0.46967 0.62608 0.0
C86 C 0.2418 0.42524 0.63789 0.0
C87 C 0.24206 0.3711 0.64838 0.0
C88 C 0.19899 0.13276 0.70695 0.0
C89 C 0.33257 0.1036 0.66384 0.0
C90 C 1.0683 0.90771 0.66066 0.0
Eu91 Eu 0.16104 1.03906 0.65988 0.0
C92 C 0.99359 0.87502 0.65264 0.0
C93 C 0.97481 0.88551 0.63104 0.0
C94 C 0.90707 0.87201 0.62564 0.0
C95 C 0.85673 0.84809 0.64173 0.0
C96 C 0.8743 0.83354 0.66279 0.0
C97 C 0.94209 0.84676 0.66817 0.0
C98 C 0.18774 1.08541 0.6178 0.0
C99 C 1.05358 0.10987 0.66105 0.0
O100 O 0.26835 0.2866 0.67661 0.0
O101 O 0.30357 0.25669 0.64575 0.0
O102 O 0.18784 0.17947 0.69939 0.0
O103 O 0.22318 0.10869 0.69156 0.0
O104 O 0.32745 0.16132 0.66252 0.0
O105 O 0.27088 1.04504 0.66504 0.0
O106 O 1.08815 0.95439 0.67862 0.0
O107 O 1.11317 0.92936 0.64509 0.0
O108 O 0.20347 1.04146 0.62515 0.0
O109 O 0.16141 0.10604 0.63336 0.0
O110 O 1.05941 1.05296 0.66297 0.0
O111 O 1.11487 0.16798 0.65909 0.0
H112 H 0.40179 0.39787 0.63423 0.0
H113 H 0.40237 0.49218 0.61634 0.0
H114 H 0.19739 0.43306 0.63933 0.0
H115 H 0.19757 0.33777 0.65755 0.0
H116 H 1.01341 0.90802 0.61872 0.0
H117 H 0.8948 0.88239 0.60911 0.0
H118 H 0.83688 0.8156 0.67566 0.0
H119 H 0.95553 0.83933 0.68503 0.0
H120 H 0.38848 0.43462 0.94794 0.0
H121 H 0.49054 0.54836 0.94212 0.0
H122 H 0.35146 0.61959 0.92086 0.0
H123 H 0.24973 0.50578 0.92638 0.0
H124 H 0.49305 0.68061 0.89998 0.0
H125 H 0.50373 0.69536 -0.00496 0.0
H126 H 0.50895 0.62637 0.97834 0.0
H127 H 0.4276 0.62588 0.97795 0.0
C128 C 0.38016 0.47393 0.94122 0.0
C129 C 0.31198 0.46259 0.93781 0.0
C130 C 0.43825 0.53854 0.93786 0.0
C131 C 0.42842 0.5925 0.93139 0.0
C132 C 0.36006 0.57836 0.92573 0.0
H133 H 0.43117 0.93261 0.93698 0.0
H134 H 0.46744 0.85274 0.92119 0.0
C135 C 0.30203 0.51367 0.92897 0.0
C136 C 0.48539 0.66677 0.93561 0.0
H137 H 0.54554 0.79921 0.97918 0.0
C138 C 0.5069 0.70696 0.9173 0.0
C139 C 0.50569 0.701 0.9582 0.0
C140 C 0.48554 0.66037 0.9786 0.0
C141 C 0.54031 0.78067 0.92103 0.0
C142 C 0.54897 0.81398 0.9435 0.0
C143 C 0.53765 0.7743 0.96184 0.0
C144 C 0.54871 0.8811 0.9482 0.0
C145 C 0.5617 0.82141 0.90076 0.0
C146 C 0.58388 0.92703 0.96827 0.0
C147 C 0.5607 0.97124 0.9779 0.0
C148 C 0.50369 0.9718 0.96718 0.0
C149 C 0.47561 0.93369 0.94556 0.0
C150 C 0.49724 0.88819 0.93629 0.0
H151 H 0.58889 0.80188 0.88927 0.0
H152 H 0.51412 0.81246 0.8908 0.0
H153 H 0.59703 0.8787 0.90588 0.0
H154 H 0.62416 0.9233 0.97774 0.0
H155 H 0.58361 1.00073 -0.00547 0.0
H156 H 0.34986 0.95338 0.36992 0.0
H157 H 0.35846 0.85057 0.37701 0.0
H158 H 0.5732 0.95675 0.3592 0.0
H159 H 0.56503 1.0591 0.35211 0.0
H160 H 0.48341 0.81877 0.33517 0.0
H161 H 0.4629 0.81765 0.42885 0.0
H162 H 0.39716 0.81866 0.41054 0.0
H163 H 0.48264 0.89576 0.41602 0.0
C164 C 0.39919 0.95503 0.36781 0.0
C165 C 0.4567 1.01408 0.36022 0.0
C166 C 0.40384 0.89615 0.37183 0.0
C167 C 0.46621 0.89585 0.36845 0.0
C168 C 0.52421 0.95566 0.36164 0.0
H169 H 0.76976 0.91537 0.40771 0.0
H170 H 0.645 0.85693 0.41042 0.0
C171 C 0.51953 1.01407 0.35753 0.0
C172 C 0.47286 0.8336 0.37092 0.0
H173 H 0.52343 0.76604 0.41179 0.0
C174 C 0.49122 0.80585 0.35186 0.0
C175 C 0.47775 0.81288 0.39243 0.0
C176 C 0.45401 0.83737 0.41323 0.0
C177 C 0.52845 0.77079 0.3543 0.0
C178 C 0.54764 0.76382 0.37668 0.0
C179 C 0.51297 0.7755 0.39485 0.0
C180 C 0.61898 0.77434 0.3824 0.0
C181 C 0.55335 0.75015 0.33295 0.0
C182 C 0.64854 0.74256 0.36844 0.0
C183 C 0.72086 0.77941 0.36583 0.0
C184 C 0.76419 0.84571 0.37845 0.0
C185 C 0.73681 0.86663 0.39674 0.0
C186 C 0.66466 0.83207 0.39846 0.0
H187 H 0.52831 0.75481 0.3172 0.0
H188 H 0.61096 0.7848 0.33264 0.0
H189 H 0.54005 0.69461 0.33224 0.0
H190 H 0.61553 0.69401 0.35751 0.0
H191 H 0.74081 0.75984 0.35222 0.0
H192 H 0.82734 0.93682 0.62054 0.0
H193 H 0.71288 0.92778 0.61443 0.0
H194 H 0.61593 0.73645 0.64625 0.0
H195 H 0.72905 0.74452 0.65211 0.0
H196 H 0.59176 0.83446 0.59121 0.0
H197 H 0.53867 0.84503 0.68059 0.0
H198 H 0.62635 0.8748 0.67199 0.0
H199 H 0.56929 0.78407 0.67656 0.0
C200 C 0.78144 0.89258 0.62611 0.0
C201 C 0.78737 0.84168 0.63707 0.0
C202 C 0.71629 0.88804 0.62281 0.0
C203 C 0.65638 0.83307 0.63069 0.0
C204 C 0.66201 0.78114 0.64093 0.0
H205 H 0.35102 0.52262 0.58649 0.0
H206 H 0.41543 0.64582 0.58301 0.0
C207 C 0.7267 0.78552 0.64418 0.0
C208 C 0.58622 0.82546 0.62728 0.0
H209 H 0.43682 0.7524 0.65437 0.0
C210 C 0.5577 0.81817 0.60506 0.0
C211 C 0.5422 0.81095 0.64538 0.0
C212 C 0.57121 0.83029 0.66999 0.0
C213 C 0.48455 0.78302 0.60021 0.0
C214 C 0.44034 0.74971 0.61757 0.0
C215 C 0.46941 0.77218 0.64036 0.0
C216 C 0.37649 0.67788 0.61262 0.0
C217 C 0.45572 0.77776 0.57631 0.0
C218 C 0.32634 0.65126 0.62884 0.0
C219 C 0.29258 0.57975 0.63173 0.0
C220 C 0.30609 0.53379 0.61766 0.0
C221 C 0.3424 0.55763 0.59824 0.0
C222 C 0.3785 0.62913 0.59597 0.0
H223 H 0.47804 0.83141 0.57115 0.0
H224 H 0.47265 0.74869 0.56423 0.0
H225 H 0.39754 0.7517 0.57485 0.0
H226 H 0.32058 0.68671 0.64131 0.0
H227 H 0.2631 0.56269 0.64655 0.0
H228 H 0.91047 0.9992 0.66568 0.0
H229 H 0.79872 0.99903 0.66636 0.0
H230 H 0.90808 0.21754 0.65666 0.0
H231 H 1.01922 0.21794 0.65661 0.0
H232 H 0.70008 1.00502 0.64452 0.0
H233 H 0.79905 0.25561 0.69899 0.0
H234 H 0.84569 0.26742 0.67384 0.0
H235 H 0.85244 0.21602 0.69469 0.0
C236 C 0.9121 1.04812 0.66381 0.0
C237 C 0.97911 0.10878 0.66124 0.0
C238 C 0.84568 1.04802 0.66415 0.0
C239 C 0.83886 0.10867 0.66216 0.0
C240 C 0.90599 0.16891 0.65922 0.0
H241 H 0.47657 0.21462 0.66073 0.0
H242 H 0.58794 0.21419 0.66022 0.0
C243 C 0.97225 0.16903 0.65889 0.0
C244 C 0.76424 0.10834 0.66272 0.0
H245 H 0.68524 0.20672 0.6809 0.0
C246 C 0.69859 1.04996 0.65269 0.0
C247 C 0.75484 0.16476 0.6731 0.0
C248 C 0.81638 0.22924 0.68597 0.0
C249 C 0.63069 1.04733 0.65201 0.0
C250 C 0.62121 0.1036 0.66249 0.0
C251 C 0.68682 0.16188 0.67261 0.0
C252 C 0.54669 0.1035 0.66298 0.0
C253 C 0.5696 0.98363 0.63868 0.0
C254 C 0.47901 1.0429 0.66514 0.0
C255 C 0.41293 1.04318 0.66539 0.0
C256 C 0.40681 0.10419 0.66377 0.0
C257 C 0.47434 0.16513 0.662 0.0
C258 C 0.54056 0.16484 0.66174 0.0
H259 H 0.58763 0.95865 0.62544 0.0
H260 H 0.53988 0.94434 0.65045 0.0
H261 H 0.53378 0.99735 0.63009 0.0
H262 H 0.47626 0.99365 0.66714 0.0
H263 H 0.36551 0.99395 0.66703 0.0
H264 H 1.0166 0.83312 0.00324 0.0
H265 H 0.9044 0.72155 0.00303 0.0
H266 H 0.79264 0.8275 -0.01114 0.0
H267 H 0.90419 0.93751 0.9883 0.0
H268 H 0.79422 0.64579 0.02148 0.0
H269 H 0.65376 0.67283 0.94873 0.0
H270 H 0.74629 0.73277 0.95553 0.0
H271 H 0.68235 0.74462 0.97083 0.0
C272 C 0.96864 0.83376 -0.00019 0.0
C273 C 0.97455 0.89926 -0.00443 0.0
C274 C 0.90189 0.7675 -0.00026 0.0
C275 C 0.83362 0.75919 -0.00474 0.0
C276 C 0.83998 0.82535 -0.00854 0.0
H277 H 0.36353 0.39345 -0.01013 0.0
H278 H 0.47526 0.50535 -0.01011 0.0
C279 C 0.90655 0.89137 -0.00854 0.0
C280 C 0.75909 0.68447 -0.00485 0.0
H281 H 0.58589 0.5803 0.97003 0.0
C282 C 0.7496 0.63293 0.00991 0.0
C283 C 0.69544 0.66093 0.98066 0.0
C284 C 0.69475 0.70513 0.96288 0.0
C285 C 0.68428 0.56579 0.01102 0.0
C286 C 0.62086 0.54219 -0.00353 0.0
C287 C 0.63034 0.59358 0.98169 0.0
C288 C 0.54658 0.4674 -0.00364 0.0
C289 C 0.68417 0.52176 0.02896 0.0
C290 C 0.54079 0.40106 -0.00052 0.0
C291 C 0.47448 0.33479 -0.00052 0.0
C292 C 0.40631 0.32701 -0.00388 0.0
C293 C 0.41169 0.3928 -0.00736 0.0
C294 C 0.47814 0.45922 -0.00737 0.0
H295 H 0.72455 0.55427 0.04325 0.0
H296 H 0.63225 0.49408 0.03609 0.0
H297 H 0.69678 0.48218 0.02126 0.0
H298 H 0.58841 0.39912 0.00157 0.0
H299 H 0.47718 0.28842 0.00202 0.0
H300 H 1.08788 0.31739 0.33252 0.0
H301 H 1.08824 0.429 0.33286 0.0
H302 H 0.3091 0.53673 0.32415 0.0
H303 H 0.30881 0.42597 0.32443 0.0
H304 H 1.09592 0.52727 0.31229 0.0
H305 H 0.34281 0.69642 0.36482 0.0
H306 H 0.35824 0.65652 0.3395 0.0
H307 H 0.30539 0.60273 0.36053 0.0
C308 C 1.13745 0.36439 0.33083 0.0
C309 C 0.19844 0.35748 0.32863 0.0
C310 C 1.1377 0.43084 0.33098 0.0
C311 C 0.19905 0.4982 0.32918 0.0
C312 C 0.25974 0.49069 0.32659 0.0
H313 H 0.30253 0.96524 0.32501 0.0
H314 H 0.30299 0.85397 0.32466 0.0
C315 C 0.25949 0.42437 0.32645 0.0
C316 C 0.19876 0.57264 0.32949 0.0
H317 H 0.29658 0.75586 0.34591 0.0
C318 C 1.14054 0.57642 0.31999 0.0
C319 C 0.25472 0.64196 0.33918 0.0
C320 C 0.31857 0.64955 0.35178 0.0
C321 C 1.13739 0.64111 0.31934 0.0
C322 C 0.19343 0.71045 0.32896 0.0
C323 C 0.25178 0.70672 0.33837 0.0
C324 C 0.19286 0.78476 0.32932 0.0
C325 C 1.07301 0.63348 0.30711 0.0
C326 C 1.13227 0.79212 0.33244 0.0
C327 C 1.13198 0.85815 0.33257 0.0
C328 C 0.19237 0.9249 0.32983 0.0
C329 C 0.25336 0.91823 0.3271 0.0
C330 C 0.25363 0.85202 0.32696 0.0
H331 H 1.04694 0.58554 0.29448 0.0
H332 H 1.03471 0.62835 0.31972 0.0
H333 H 1.08613 0.6797 0.29802 0.0
H334 H 1.08342 0.74619 0.33534 0.0
H335 H 1.0828 0.85645 0.33504 0.0
H336 H 0.24593 0.23548 0.26309 0.0
H337 H 0.25334 0.2436 0.22183 0.0
H338 H 1.12325 1.01808 0.20815 0.0
H339 H 1.11667 1.00978 0.24906 0.0
H340 H 0.23034 1.06533 0.18095 0.0
H341 H 1.10351 0.22586 0.17647 0.0
H342 H 0.18056 0.265 0.19599 0.0
H343 H 1.10381 0.18486 0.20143 0.0
C344 C 0.21911 0.18767 0.25128 0.0
C345 C 0.18036 0.122 0.25954 0.0
C346 C 0.22286 0.19234 0.22758 0.0
C347 C 0.18783 0.13151 0.21153 0.0
C348 C 0.15062 1.06601 0.21991 0.0
H349 H 1.05975 1.08956 0.06744 0.0
H350 H 1.07029 0.09371 0.10896 0.0
C351 C 0.14678 1.06136 0.24345 0.0
C352 C 0.18936 0.13503 0.18608 0.0
H353 H 0.14509 0.20105 0.14241 0.0
C354 C 0.212 0.09539 0.17259 0.0
C355 C 0.16456 0.17325 0.17481 0.0
C356 C 1.13609 0.21418 0.18783 0.0
C357 C 0.2105 0.09281 0.14854 0.0
C358 C 0.18662 0.1318 0.1373 0.0
C359 C 0.16405 0.17151 0.15078 0.0
C360 C 0.18133 0.12947 0.11162 0.0
C361 C 0.23228 1.04616 0.13533 0.0
C362 C 0.24014 0.14852 0.09881 0.0
C363 C 0.23412 0.14599 0.07484 0.0
C364 C 0.1692 0.12479 0.063 0.0
C365 C 1.11063 0.10613 0.07586 0.0
C366 C 1.11665 0.10867 0.09974 0.0
H367 H 0.23143 1.00627 0.14562 0.0
H368 H 0.19736 1.01847 0.11949 0.0
H369 H 0.28668 1.07895 0.13048 0.0
H370 H 0.29111 0.16622 0.10735 0.0
H371 H 0.28046 0.16113 0.06559 0.0
H372 H 0.29891 0.25459 0.41111 0.0
H373 H 0.28947 0.23931 0.45151 0.0
H374 H 1.10184 1.03667 0.43456 0.0
H375 H 1.1137 1.05045 0.3938 0.0
H376 H 0.20483 0.2308 0.48076 0.0
H377 H 0.19784 0.97697 0.47584 0.0
H378 H 0.21584 1.02607 0.45176 0.0
H379 H 1.12665 0.97054 0.45862 0.0
C380 C 0.25578 0.20642 0.41591 0.0
C381 C 0.20746 0.15347 0.39904 0.0
C382 C 0.25024 0.19774 0.4392 0.0
C383 C 0.19569 0.1361 0.44657 0.0
C384 C 0.14604 1.08382 0.42968 0.0
H385 H 1.1149 0.13453 0.59407 0.0
H386 H 1.11258 0.14582 0.55312 0.0
C387 C 0.15239 1.09197 0.40626 0.0
C388 C 0.19112 0.12794 0.4718 0.0
H389 H 0.17363 1.01687 0.51122 0.0
C390 C 0.19822 0.18391 0.48733 0.0
C391 C 0.18354 1.06752 0.48088 0.0
C392 C 0.18129 1.00723 0.46595 0.0
C393 C 0.19836 0.18152 0.51121 0.0
C394 C 0.18822 0.12007 0.52022 0.0
C395 C 0.18075 1.06398 0.50467 0.0
C396 C 0.18859 0.11368 0.54557 0.0
C397 C 0.2124 0.24647 0.52647 0.0
C398 C 0.22994 1.08956 0.55542 0.0
C399 C 0.22973 1.08131 0.57874 0.0
C400 C 0.18882 0.09762 0.59319 0.0
C401 C 0.14778 0.12234 0.58356 0.0
C402 C 0.14693 0.12933 0.56003 0.0
H403 H 0.24084 0.29457 0.5178 0.0
H404 H 0.16166 0.24136 0.53094 0.0
H405 H 0.24393 0.25382 0.54246 0.0
H406 H 0.2628 1.07699 0.54503 0.0
H407 H 0.262 1.06211 0.58549 0.0
H408 H 0.15838 0.19326 0.74085 0.0
H409 H 0.15994 0.18408 0.78166 0.0
H410 H 0.23943 1.04241 0.77111 0.0
H411 H 0.23766 1.05126 0.72976 0.0
H412 H 1.13175 0.99971 0.80242 0.0
H413 H 0.33641 0.27925 0.82589 0.0
H414 H 0.26276 0.26733 0.80847 0.0
H415 H 0.31836 0.2364 0.79701 0.0
C416 C 0.17637 0.16007 0.74709 0.0
C417 C 0.19856 0.12354 0.73185 0.0
C418 C 0.17749 0.15511 0.7706 0.0
C419 C 0.20099 0.11357 0.77981 0.0
C420 C 0.22145 1.07529 0.7646 0.0
H421 H 0.32529 0.14964 0.92443 0.0
H422 H 0.31839 0.14891 0.88305 0.0
C423 C 0.22055 1.08043 0.74091 0.0
C424 C 0.2044 0.11117 0.80524 0.0
H425 H 0.27667 0.2159 0.85625 0.0
C426 C 0.16368 1.04698 0.81416 0.0
C427 C 0.24636 0.17251 0.82082 0.0
C428 C 0.294 0.2427 0.81262 0.0
C429 C 0.1628 1.04281 0.83796 0.0
C430 C 0.2032 0.10459 0.85354 0.0
C431 C 0.24487 0.16846 0.84456 0.0
C432 C 0.20581 0.10404 0.87911 0.0
C433 C 1.11957 0.97182 0.84619 0.0
C434 C 0.14502 1.08004 0.89121 0.0
C435 C 0.1489 1.08056 0.91515 0.0
C436 C 0.21371 0.10514 0.92761 0.0
C437 C 0.27436 0.12997 0.91549 0.0
C438 C 0.2705 0.12964 0.8917 0.0
H439 H 1.10622 0.9282 0.83247 0.0
H440 H 0.14784 0.96618 0.86087 0.0
H441 H 1.06973 0.96638 0.85187 0.0
H442 H 1.09449 1.06148 0.88219 0.0
H443 H 1.10119 1.06154 0.92388 0.0
loop_
_geom_bond_atom_site_label_1
_geom_bond_atom_site_label_2
_geom_bond_distance
_geom_bond_site_symmetry_2
_ccdc_geom_bond_type
C0 Eu1 2.835 . S
C0 C2 1.506 . S
C0 O20 1.257 1_554 S
C0 O21 1.260 . S
Eu1 C0 2.835 . S
Eu1 O20 2.473 1_554 S
Eu1 O21 2.480 . S
Eu1 O22 2.430 . S
Eu1 O23 2.670 1_545 S
Eu1 O24 2.394 . S
Eu1 O29 2.355 1_554 S
Eu1 O31 2.374 1_444 S
C2 C0 1.506 . S
C2 C3 1.399 . S
C2 C7 1.350 1_554 S
C3 C2 1.399 . S
C3 C4 1.395 . S
C3 H32 0.931 . S
C4 C3 1.395 . S
C4 C5 1.383 1_554 S
C4 H33 0.931 . S
C5 C4 1.383 1_556 S
C5 C6 1.394 . S
C6 C5 1.394 . S
C6 C7 1.378 . S
C6 H34 0.931 . S
C7 C2 1.350 1_556 S
C7 C6 1.378 . S
C7 H35 0.931 . S
C8 O22 1.259 . S
C8 O23 1.270 1_545 S
C9 O24 1.251 . S
C9 O25 1.251 . S
C10 Eu11 2.832 1_554 S
C10 C12 1.503 . S
C10 O26 1.271 . S
C10 O27 1.244 1_554 S
Eu11 C10 2.832 1_556 S
Eu11 O23 2.355 1_556 S
Eu11 O25 2.374 1_566 S
Eu11 O26 2.473 1_556 S
Eu11 O27 2.480 . S
Eu11 O28 2.430 . S
Eu11 O29 2.670 1_565 S
Eu11 O30 2.394 . S
C12 C10 1.503 . S
C12 C13 1.377 1_554 S
C12 C17 1.377 . S
C13 C12 1.377 1_556 S
C13 C14 1.395 . S
C13 H36 0.931 . S
C14 C13 1.395 . S
C14 C15 1.383 1_556 S
C14 H37 0.931 . S
C15 C14 1.383 1_554 S
C15 C16 1.394 . S
C16 C15 1.394 . S
C16 C17 1.378 . S
C16 H38 0.931 . S
C17 C12 1.377 . S
C17 C16 1.378 . S
C17 H39 0.931 . S
C18 O28 1.259 1_545 S
C18 O29 1.270 . S
C19 O30 1.251 1_655 S
C19 O31 1.251 . S
O20 C0 1.257 1_556 S
O20 Eu1 2.473 1_556 S
O21 C0 1.260 . S
O21 Eu1 2.480 . S
O22 Eu1 2.430 . S
O22 C8 1.259 . S
O23 Eu1 2.670 1_565 S
O23 C8 1.270 1_565 S
O23 Eu11 2.355 1_554 S
O24 Eu1 2.394 . S
O24 C9 1.251 . S
O25 C9 1.251 . S
O25 Eu11 2.374 1_544 S
O26 C10 1.271 . S
O26 Eu11 2.473 1_554 S
O27 C10 1.244 1_556 S
O27 Eu11 2.480 . S
O28 Eu11 2.430 . S
O28 C18 1.259 1_565 S
O29 Eu1 2.355 1_556 S
O29 Eu11 2.670 1_545 S
O29 C18 1.270 . S
O30 Eu11 2.394 . S
O30 C19 1.251 1_455 S
O31 Eu1 2.374 1_666 S
O31 C19 1.251 . S
H32 C3 0.931 . S
H33 C4 0.931 . S
H34 C6 0.931 . S
H35 C7 0.931 . S
H36 C13 0.931 . S
H37 C14 0.931 . S
H38 C16 0.931 . S
H39 C17 0.931 . S
C40 Eu41 2.835 . S
C40 C42 1.500 . S
C40 O60 1.257 . S
C40 O61 1.260 . S
Eu41 C40 2.835 . S
Eu41 O60 2.473 . S
Eu41 O61 2.480 . S
Eu41 O62 2.430 . S
Eu41 O63 2.670 . S
Eu41 O64 2.394 1_545 S
Eu41 O69 2.355 . S
Eu41 O71 2.374 . S
C42 C40 1.500 . S
C42 C43 1.377 . S
C42 C47 1.377 . S
C43 C42 1.377 . S
C43 C44 1.395 . S
C43 H72 0.931 . S
C44 C43 1.395 . S
C44 C45 1.383 . S
C44 H73 0.931 . S
C45 C44 1.383 . S
C45 C46 1.394 . S
C46 C45 1.394 . S
C46 C47 1.378 . S
C46 H74 0.931 1_545 S
C47 C42 1.377 . S
C47 C46 1.378 . S
C47 H75 0.931 . S
C48 O62 1.259 . S
C48 O63 1.270 . S
C49 O64 1.251 . S
C49 O65 1.251 . S
C50 Eu51 2.835 1_545 S
C50 C52 1.500 . S
C50 O66 1.257 . S
C50 O67 1.260 1_545 S
Eu51 C50 2.835 1_565 S
Eu51 O63 2.355 1_665 S
Eu51 O65 2.374 1_655 S
Eu51 O66 2.473 1_565 S
Eu51 O67 2.480 . S
Eu51 O68 2.430 . S
Eu51 O69 2.670 1_665 S
Eu51 O70 2.394 1_665 S
C52 C50 1.500 . S
C52 C53 1.377 . S
C52 C57 1.377 . S
C53 C52 1.377 . S
C53 C54 1.395 . S
C53 H76 0.931 . S
C54 C53 1.395 . S
C54 C55 1.383 . S
C54 H77 0.931 . S
C55 C54 1.383 . S
C55 C56 1.394 . S
C56 C55 1.394 . S
C56 C57 1.378 . S
C56 H78 0.931 . S
C57 C52 1.377 . S
C57 C56 1.378 . S
C57 H79 0.931 . S
C58 O68 1.259 1_445 S
C58 O69 1.270 . S
C59 O70 1.251 . S
C59 O71 1.251 . S
O60 C40 1.257 . S
O60 Eu41 2.473 . S
O61 C40 1.260 . S
O61 Eu41 2.480 . S
O62 Eu41 2.430 . S
O62 C48 1.259 . S
O63 Eu41 2.670 . S
O63 C48 1.270 . S
O63 Eu51 2.355 1_445 S
O64 Eu41 2.394 1_565 S
O64 C49 1.251 . S
O65 C49 1.251 . S
O65 Eu51 2.374 1_455 S
O66 C50 1.257 . S
O66 Eu51 2.473 1_545 S
O67 C50 1.260 1_565 S
O67 Eu51 2.480 . S
O68 Eu51 2.430 . S
O68 C58 1.259 1_665 S
O69 Eu41 2.355 . S
O69 Eu51 2.670 1_445 S
O69 C58 1.270 . S
O70 Eu51 2.394 1_445 S
O70 C59 1.251 . S
O71 Eu41 2.374 . S
O71 C59 1.251 . S
H72 C43 0.931 . S
H73 C44 0.931 . S
H74 C46 0.931 1_565 S
H75 C47 0.931 . S
H76 C53 0.931 . S
H77 C54 0.931 . S
H78 C56 0.931 . S
H79 C57 0.931 . S
C80 Eu81 2.835 . S
C80 C82 1.500 . S
C80 O100 1.257 . S
C80 O101 1.260 . S
Eu81 C80 2.835 . S
Eu81 O100 2.473 . S
Eu81 O101 2.480 . S
Eu81 O102 2.430 . S
Eu81 O103 2.670 . S
Eu81 O104 2.394 . S
Eu81 O109 2.355 . S
Eu81 O111 2.374 1_455 S
C82 C80 1.500 . S
C82 C83 1.377 . S
C82 C87 1.377 . S
C83 C82 1.377 . S
C83 C84 1.395 . S
C83 H112 0.931 . S
C84 C83 1.395 . S
C84 C85 1.383 . S
C84 H113 0.931 . S
C85 C84 1.383 . S
C85 C86 1.394 . S
C86 C85 1.394 . S
C86 C87 1.378 . S
C86 H114 0.931 . S
C87 C82 1.377 . S
C87 C86 1.378 . S
C87 H115 0.931 . S
C88 O102 1.259 . S
C88 O103 1.270 . S
C89 O104 1.251 . S
C89 O105 1.251 1_545 S
C90 Eu91 2.835 . S
C90 C92 1.500 . S
C90 O106 1.257 . S
C90 O107 1.260 . S
Eu91 C90 2.835 . S
Eu91 O103 2.355 1_665 S
Eu91 O105 2.374 1_655 S
Eu91 O106 2.473 . S
Eu91 O107 2.480 . S
Eu91 O108 2.430 . S
Eu91 O109 2.670 1_665 S
Eu91 O110 2.394 . S
C92 C90 1.500 . S
C92 C93 1.377 . S
C92 C97 1.377 . S
C93 C92 1.377 . S
C93 C94 1.395 . S
C93 H116 0.931 . S
C94 C93 1.395 . S
C94 C95 1.383 . S
C94 H117 0.931 . S
C95 C94 1.383 . S
C95 C96 1.394 . S
C96 C95 1.394 . S
C96 C97 1.378 . S
C96 H118 0.931 . S
C97 C92 1.377 . S
C97 C96 1.378 . S
C97 H119 0.931 . S
C98 O108 1.259 1_445 S
C98 O109 1.270 . S
C99 O110 1.251 1_545 S
C99 O111 1.251 . S
O100 C80 1.257 . S
O100 Eu81 2.473 . S
O101 C80 1.260 . S
O101 Eu81 2.480 . S
O102 Eu81 2.430 . S
O102 C88 1.259 . S
O103 Eu81 2.670 . S
O103 C88 1.270 . S
O103 Eu91 2.355 1_445 S
O104 Eu81 2.394 . S
O104 C89 1.251 . S
O105 C89 1.251 1_565 S
O105 Eu91 2.374 1_455 S
O106 C90 1.257 . S
O106 Eu91 2.473 . S
O107 C90 1.260 . S
O107 Eu91 2.480 . S
O108 Eu91 2.430 . S
O108 C98 1.259 1_665 S
O109 Eu81 2.355 . S
O109 Eu91 2.670 1_445 S
O109 C98 1.270 . S
O110 Eu91 2.394 . S
O110 C99 1.251 1_565 S
O111 Eu81 2.374 1_655 S
O111 C99 1.251 . S
H112 C83 0.931 . S
H113 C84 0.931 . S
H114 C86 0.931 . S
H115 C87 0.931 . S
H116 C93 0.931 . S
H117 C94 0.931 . S
H118 C96 0.931 . S
H119 C97 0.931 . S
H120 C128 0.929 1_554 S
H121 C130 0.930 . S
H122 C132 0.930 1_655 S
H123 C135 0.920 1_655 S
H124 C138 0.930 . S
H125 C140 0.960 1_655 S
H126 C140 0.960 . S
H127 C140 0.960 1_655 S
C128 H120 0.929 1_556 S
C128 C129 1.377 . S
C128 C130 1.384 1_556 S
C129 C128 1.377 . S
C129 C135 1.390 . S
C130 H121 0.930 . S
C130 C128 1.384 1_554 S
C130 C131 1.372 1_554 S
C131 C130 1.372 1_556 S
C131 C132 1.400 . S
C131 C136 1.492 . S
C132 H122 0.930 1_455 S
C132 C131 1.400 . S
C132 C135 1.386 . S
H133 C149 0.914 1_656 S
H134 C150 0.931 1_655 S
C135 H123 0.920 1_455 S
C135 C129 1.390 . S
C135 C132 1.386 . S
C136 C131 1.492 . S
C136 C138 1.428 . S
C136 C139 1.370 1_556 S
H137 C143 0.930 . S
C138 H124 0.930 . S
C138 C136 1.428 . S
C138 C141 1.403 . S
C139 C136 1.370 1_554 S
C139 C140 1.524 . S
C139 C143 1.400 . S
C140 H125 0.960 1_455 S
C140 H126 0.960 . S
C140 H127 0.960 1_455 S
C140 C139 1.524 . S
C141 C138 1.403 . S
C141 C142 1.392 1_556 S
C141 C145 1.495 . S
C142 C141 1.392 1_554 S
C142 C143 1.385 . S
C142 C144 1.478 . S
C143 H137 0.930 . S
C143 C139 1.400 . S
C143 C142 1.385 . S
C144 C142 1.478 . S
C144 C146 1.381 . S
C144 C150 1.383 1_554 S
C145 C141 1.495 . S
C145 H151 0.959 . S
C145 H152 0.961 . S
C145 H153 0.960 . S
C146 C144 1.381 . S
C146 C147 1.394 . S
C146 H154 0.930 . S
C147 C146 1.394 . S
C147 C148 1.383 . S
C147 H155 0.929 . S
C148 C147 1.383 . S
C148 C149 1.382 . S
C149 H133 0.914 1_454 S
C149 C148 1.382 . S
C149 C150 1.389 1_554 S
C150 H134 0.931 1_455 S
C150 C144 1.383 1_556 S
C150 C149 1.389 1_556 S
H151 C145 0.959 . S
H152 C145 0.961 . S
H153 C145 0.960 . S
H154 C146 0.930 . S
H155 C147 0.929 . S
H156 C164 0.929 . S
H157 C166 0.930 . S
H158 C168 0.930 . S
H159 C171 0.929 . S
H160 C174 0.930 . S
H161 C176 0.960 . S
H162 C176 0.960 . S
H163 C176 0.960 . S
C164 H156 0.929 . S
C164 C165 1.377 . S
C164 C166 1.384 . S
C165 C164 1.377 . S
C165 C171 1.390 . S
C166 H157 0.930 . S
C166 C164 1.384 . S
C166 C167 1.372 . S
C167 C166 1.372 . S
C167 C168 1.400 . S
C167 C172 1.490 . S
C168 H158 0.930 . S
C168 C167 1.400 . S
C168 C171 1.386 . S
H169 C185 0.930 . S
H170 C186 0.931 . S
C171 H159 0.929 . S
C171 C165 1.390 . S
C171 C168 1.386 . S
C172 C167 1.490 . S
C172 C174 1.395 1_545 S
C172 C175 1.403 . S
H173 C179 0.930 . S
C174 H160 0.930 . S
C174 C172 1.395 1_565 S
C174 C177 1.403 . S
C175 C172 1.403 . S
C175 C176 1.524 . S
C175 C179 1.400 . S
C176 H161 0.960 . S
C176 H162 0.960 . S
C176 H163 0.960 . S
C176 C175 1.524 . S
C177 C174 1.403 . S
C177 C178 1.392 1_565 S
C177 C181 1.495 . S
C178 C177 1.392 1_545 S
C178 C179 1.385 . S
C178 C180 1.478 . S
C179 H173 0.930 . S
C179 C175 1.400 . S
C179 C178 1.385 . S
C180 C178 1.478 . S
C180 C182 1.381 . S
C180 C186 1.383 . S
C181 C177 1.495 . S
C181 H187 0.959 . S
C181 H188 0.961 . S
C181 H189 0.960 . S
C182 C180 1.381 . S
C182 C183 1.394 . S
C182 H190 0.930 . S
C183 C182 1.394 . S
C183 C184 1.383 . S
C183 H191 0.929 . S
C184 C183 1.383 . S
C184 C185 1.377 . S
C185 H169 0.930 . S
C185 C184 1.377 . S
C185 C186 1.379 . S
C186 H170 0.931 . S
C186 C180 1.383 . S
C186 C185 1.379 . S
H187 C181 0.959 . S
H188 C181 0.961 . S
H189 C181 0.960 . S
H190 C182 0.930 . S
H191 C183 0.929 . S
H192 C200 0.929 . S
H193 C202 0.930 . S
H194 C204 0.930 . S
H195 C207 0.929 . S
H196 C210 0.930 . S
H197 C212 0.960 . S
H198 C212 0.960 . S
H199 C212 0.960 . S
C200 H192 0.929 . S
C200 C201 1.377 . S
C200 C202 1.384 . S
C201 C200 1.377 . S
C201 C207 1.390 . S
C202 H193 0.930 . S
C202 C200 1.384 . S
C202 C203 1.372 . S
C203 C202 1.372 . S
C203 C204 1.400 . S
C203 C208 1.490 . S
C204 H194 0.930 . S
C204 C203 1.400 . S
C204 C207 1.386 . S
H205 C221 0.930 . S
H206 C222 0.931 . S
C207 H195 0.929 . S
C207 C201 1.390 . S
C207 C204 1.386 . S
C208 C203 1.490 . S
C208 C210 1.395 . S
C208 C211 1.403 . S
H209 C215 0.930 . S
C210 H196 0.930 . S
C210 C208 1.395 . S
C210 C213 1.403 . S
C211 C208 1.403 . S
C211 C212 1.524 . S
C211 C215 1.400 . S
C212 H197 0.960 . S
C212 H198 0.960 . S
C212 H199 0.960 . S
C212 C211 1.524 . S
C213 C210 1.403 . S
C213 C214 1.392 . S
C213 C217 1.495 . S
C214 C213 1.392 . S
C214 C215 1.385 . S
C214 C216 1.478 . S
C215 H209 0.930 . S
C215 C211 1.400 . S
C215 C214 1.385 . S
C216 C214 1.478 . S
C216 C218 1.381 . S
C216 C222 1.383 . S
C217 C213 1.495 . S
C217 H223 0.959 . S
C217 H224 0.961 . S
C217 H225 0.960 . S
C218 C216 1.381 . S
C218 C219 1.394 . S
C218 H226 0.930 . S
C219 C218 1.394 . S
C219 C220 1.383 . S
C219 H227 0.929 . S
C220 C219 1.383 . S
C220 C221 1.377 . S
C221 H205 0.930 . S
C221 C220 1.377 . S
C221 C222 1.379 . S
C222 H206 0.931 . S
C222 C216 1.383 . S
C222 C221 1.379 . S
H223 C217 0.959 . S
H224 C217 0.961 . S
H225 C217 0.960 . S
H226 C218 0.930 . S
H227 C219 0.929 . S
H228 C236 0.929 . S
H229 C238 0.930 . S
H230 C240 0.930 . S
H231 C243 0.929 . S
H232 C246 0.930 . S
H233 C248 0.960 . S
H234 C248 0.960 1_565 S
H235 C248 0.960 . S
C236 H228 0.929 . S
C236 C237 1.377 1_565 S
C236 C238 1.384 . S
C237 C236 1.377 1_545 S
C237 C243 1.390 . S
C238 H229 0.930 . S
C238 C236 1.384 . S
C238 C239 1.372 1_565 S
C239 C238 1.372 1_545 S
C239 C240 1.400 . S
C239 C244 1.490 . S
C240 H230 0.930 . S
C240 C239 1.400 . S
C240 C243 1.386 . S
H241 C257 0.930 . S
H242 C258 0.931 . S
C243 H231 0.929 . S
C243 C237 1.390 . S
C243 C240 1.386 . S
C244 C239 1.490 . S
C244 C246 1.395 . S
C244 C247 1.403 . S
H245 C251 0.930 . S
C246 H232 0.930 . S
C246 C244 1.395 . S
C246 C249 1.403 . S
C247 C244 1.403 . S
C247 C248 1.524 . S
C247 C251 1.400 . S
C248 H233 0.960 . S
C248 H234 0.960 1_545 S
C248 H235 0.960 . S
C248 C247 1.524 . S
C249 C246 1.403 . S
C249 C250 1.392 . S
C249 C253 1.495 . S
C250 C249 1.392 . S
C250 C251 1.385 . S
C250 C252 1.478 . S
C251 H245 0.930 . S
C251 C247 1.400 . S
C251 C250 1.385 . S
C252 C250 1.478 . S
C252 C254 1.381 1_545 S
C252 C258 1.383 . S
C253 C249 1.495 . S
C253 H259 0.959 . S
C253 H260 0.961 . S
C253 H261 0.960 . S
C254 C252 1.381 1_565 S
C254 C255 1.394 . S
C254 H262 0.930 . S
C255 C254 1.394 . S
C255 C256 1.383 1_565 S
C255 H263 0.929 . S
C256 C255 1.383 1_545 S
C256 C257 1.377 . S
C257 H241 0.930 . S
C257 C256 1.377 . S
C257 C258 1.379 . S
C258 H242 0.931 . S
C258 C252 1.383 . S
C258 C257 1.379 . S
H259 C253 0.959 . S
H260 C253 0.961 . S
H261 C253 0.960 . S
H262 C254 0.930 . S
H263 C255 0.929 . S
H264 C272 0.929 . S
H265 C274 0.930 . S
H266 C276 0.930 . S
H267 C279 0.929 . S
H268 C282 0.930 . S
H269 C284 0.960 . S
H270 C284 0.960 . S
H271 C284 0.960 . S
C272 H264 0.929 . S
C272 C273 1.377 . S
C272 C274 1.384 . S
C273 C272 1.377 . S
C273 C279 1.390 1_556 S
C274 H265 0.930 . S
C274 C272 1.384 . S
C274 C275 1.393 . S
C275 C274 1.393 . S
C275 C276 1.383 1_556 S
C275 C280 1.485 1_556 S
C276 H266 0.930 . S
C276 C275 1.383 1_554 S
C276 C279 1.386 . S
H277 C293 0.930 . S
H278 C294 0.931 . S
C279 H267 0.929 . S
C279 C273 1.390 1_554 S
C279 C276 1.386 . S
C280 C275 1.485 1_554 S
C280 C282 1.397 . S
C280 C283 1.401 1_554 S
H281 C287 0.930 . S
C282 H268 0.930 . S
C282 C280 1.397 . S
C282 C285 1.403 . S
C283 C280 1.401 1_556 S
C283 C284 1.524 . S
C283 C287 1.400 . S
C284 H269 0.960 . S
C284 H270 0.960 . S
C284 H271 0.960 . S
C284 C283 1.524 . S
C285 C282 1.403 . S
C285 C286 1.392 . S
C285 C289 1.495 . S
C286 C285 1.392 . S
C286 C287 1.385 1_554 S
C286 C288 1.478 . S
C287 H281 0.930 . S
C287 C283 1.400 . S
C287 C286 1.385 1_556 S
C288 C286 1.478 . S
C288 C290 1.381 1_554 S
C288 C294 1.383 . S
C289 C285 1.495 . S
C289 H295 0.959 . S
C289 H296 0.961 . S
C289 H297 0.960 . S
C290 C288 1.381 1_556 S
C290 C291 1.394 . S
C290 H298 0.930 . S
C291 C290 1.394 . S
C291 C292 1.383 1_556 S
C291 H299 0.929 . S
C292 C291 1.383 1_554 S
C292 C293 1.377 . S
C293 H277 0.930 . S
C293 C292 1.377 . S
C293 C294 1.379 . S
C294 H278 0.931 . S
C294 C288 1.383 . S
C294 C293 1.379 . S
H295 C289 0.959 . S
H296 C289 0.961 . S
H297 C289 0.960 . S
H298 C290 0.930 . S
H299 C291 0.929 . S
H300 C308 0.929 1_655 S
H301 C310 0.930 1_655 S
H302 C312 0.930 . S
H303 C315 0.929 . S
H304 C318 0.930 . S
H305 C320 0.960 . S
H306 C320 0.960 . S
H307 C320 0.960 . S
C308 H300 0.929 1_455 S
C308 C309 1.377 . S
C308 C310 1.384 . S
C309 C308 1.377 . S
C309 C315 1.390 . S
C310 H301 0.930 1_455 S
C310 C308 1.384 . S
C310 C311 1.372 . S
C311 C310 1.372 . S
C311 C312 1.400 . S
C311 C316 1.490 . S
C312 H302 0.930 . S
C312 C311 1.400 . S
C312 C315 1.386 . S
H313 C329 0.930 . S
H314 C330 0.931 . S
C315 H303 0.929 . S
C315 C309 1.390 . S
C315 C312 1.386 . S
C316 C311 1.490 . S
C316 C318 1.395 . S
C316 C319 1.403 . S
H317 C323 0.930 . S
C318 H304 0.930 . S
C318 C316 1.395 . S
C318 C321 1.403 . S
C319 C316 1.403 . S
C319 C320 1.524 . S
C319 C323 1.400 . S
C320 H305 0.960 . S
C320 H306 0.960 . S
C320 H307 0.960 . S
C320 C319 1.524 . S
C321 C318 1.403 . S
C321 C322 1.392 . S
C321 C325 1.495 . S
C322 C321 1.392 . S
C322 C323 1.385 . S
C322 C324 1.478 . S
C323 H317 0.930 . S
C323 C319 1.400 . S
C323 C322 1.385 . S
C324 C322 1.478 . S
C324 C326 1.381 . S
C324 C330 1.383 . S
C325 C321 1.495 . S
C325 H331 0.959 . S
C325 H332 0.961 . S
C325 H333 0.960 . S
C326 C324 1.381 . S
C326 C327 1.394 . S
C326 H334 0.930 1_455 S
C327 C326 1.394 . S
C327 C328 1.383 . S
C327 H335 0.929 1_455 S
C328 C327 1.383 . S
C328 C329 1.377 . S
C329 H313 0.930 . S
C329 C328 1.377 . S
C329 C330 1.379 . S
C330 H314 0.931 . S
C330 C324 1.383 . S
C330 C329 1.379 . S
H331 C325 0.959 . S
H332 C325 0.961 . S
H333 C325 0.960 . S
H334 C326 0.930 1_655 S
H335 C327 0.929 1_655 S
H336 C344 0.929 . S
H337 C346 0.930 . S
H338 C348 0.930 1_655 S
H339 C351 0.929 1_655 S
H340 C354 0.930 . S
H341 C356 0.960 . S
H342 C356 0.960 . S
H343 C356 0.960 . S
C344 H336 0.929 . S
C344 C345 1.377 . S
C344 C346 1.384 . S
C345 C344 1.377 . S
C345 C351 1.390 . S
C346 H337 0.930 . S
C346 C344 1.384 . S
C346 C347 1.372 . S
C347 C346 1.372 . S
C347 C348 1.400 . S
C347 C352 1.490 . S
C348 H338 0.930 1_455 S
C348 C347 1.400 . S
C348 C351 1.386 . S
H349 C365 0.930 1_655 S
H350 C366 0.931 1_655 S
C351 H339 0.929 1_455 S
C351 C345 1.390 . S
C351 C348 1.386 . S
C352 C347 1.490 . S
C352 C354 1.395 1_545 S
C352 C355 1.403 . S
H353 C359 0.930 . S
C354 H340 0.930 . S
C354 C352 1.395 1_565 S
C354 C357 1.403 . S
C355 C352 1.403 . S
C355 C356 1.524 . S
C355 C359 1.400 . S
C356 H341 0.960 . S
C356 H342 0.960 . S
C356 H343 0.960 . S
C356 C355 1.524 . S
C357 C354 1.403 . S
C357 C358 1.392 1_565 S
C357 C361 1.495 . S
C358 C357 1.392 1_545 S
C358 C359 1.385 . S
C358 C360 1.478 . S
C359 H353 0.930 . S
C359 C355 1.400 . S
C359 C358 1.385 . S
C360 C358 1.478 . S
C360 C362 1.381 . S
C360 C366 1.383 1_545 S
C361 C357 1.495 . S
C361 H367 0.959 . S
C361 H368 0.961 . S
C361 H369 0.960 . S
C362 C360 1.381 . S
C362 C363 1.394 . S
C362 H370 0.930 . S
C363 C362 1.394 . S
C363 C364 1.383 . S
C363 H371 0.929 . S
C364 C363 1.383 . S
C364 C365 1.377 1_545 S
C365 H349 0.930 1_455 S
C365 C364 1.377 1_565 S
C365 C366 1.379 . S
C366 H350 0.931 1_455 S
C366 C360 1.383 1_565 S
C366 C365 1.379 . S
H367 C361 0.959 . S
H368 C361 0.961 . S
H369 C361 0.960 . S
H370 C362 0.930 . S
H371 C363 0.929 . S
H372 C380 0.929 . S
H373 C382 0.930 . S
H374 C384 0.930 1_565 S
H375 C387 0.929 1_565 S
H376 C390 0.930 . S
H377 C392 0.960 . S
H378 C392 0.960 1_455 S
H379 C392 0.960 . S
C380 H372 0.929 . S
C380 C381 1.377 . S
C380 C382 1.384 . S
C381 C380 1.377 . S
C381 C387 1.390 1_455 S
C382 H373 0.930 . S
C382 C380 1.384 . S
C382 C383 1.372 . S
C383 C382 1.372 . S
C383 C384 1.400 1_455 S
C383 C388 1.490 . S
C384 H374 0.930 1_545 S
C384 C383 1.400 1_655 S
C384 C387 1.386 . S
H385 C401 0.930 . S
H386 C402 0.931 . S
C387 H375 0.929 1_545 S
C387 C381 1.390 1_655 S
C387 C384 1.386 . S
C388 C383 1.490 . S
C388 C390 1.395 . S
C388 C391 1.403 1_545 S
H389 C395 0.930 1_655 S
C390 H376 0.930 . S
C390 C388 1.395 . S
C390 C393 1.403 . S
C391 C388 1.403 1_565 S
C391 C392 1.524 1_455 S
C391 C395 1.400 . S
C392 H377 0.960 . S
C392 H378 0.960 1_655 S
C392 H379 0.960 . S
C392 C391 1.524 1_655 S
C393 C390 1.403 . S
C393 C394 1.392 . S
C393 C397 1.495 . S
C394 C393 1.392 . S
C394 C395 1.385 1_545 S
C394 C396 1.478 . S
C395 H389 0.930 1_455 S
C395 C391 1.400 . S
C395 C394 1.385 1_565 S
C396 C394 1.478 . S
C396 C398 1.381 . S
C396 C402 1.383 1_455 S
C397 C393 1.495 . S
C397 H403 0.959 . S
C397 H404 0.961 . S
C397 H405 0.960 . S
C398 C396 1.381 . S
C398 C399 1.394 . S
C398 H406 0.930 . S
C399 C398 1.394 . S
C399 C400 1.383 . S
C399 H407 0.929 . S
C400 C399 1.383 . S
C400 C401 1.377 1_455 S
C401 H385 0.930 . S
C401 C400 1.377 1_655 S
C401 C402 1.379 . S
C402 H386 0.931 . S
C402 C396 1.383 1_655 S
C402 C401 1.379 . S
H403 C397 0.959 . S
H404 C397 0.961 . S
H405 C397 0.960 . S
H406 C398 0.930 . S
H407 C399 0.929 . S
H408 C416 0.929 . S
H409 C418 0.930 . S
H410 C420 0.930 . S
H411 C423 0.929 . S
H412 C426 0.930 . S
H413 C428 0.960 . S
H414 C428 0.960 1_655 S
H415 C428 0.960 . S
C416 H408 0.929 . S
C416 C417 1.377 1_665 S
C416 C418 1.384 . S
C417 C416 1.377 1_445 S
C417 C423 1.390 . S
C418 H409 0.930 . S
C418 C416 1.384 . S
C418 C419 1.372 1_665 S
C419 C418 1.372 1_445 S
C419 C420 1.400 . S
C419 C424 1.490 . S
C420 H410 0.930 . S
C420 C419 1.400 . S
C420 C423 1.386 . S
H421 C437 0.930 . S
H422 C438 0.931 . S
C423 H411 0.929 . S
C423 C417 1.390 . S
C423 C420 1.386 . S
C424 C419 1.490 . S
C424 C426 1.395 1_545 S
C424 C427 1.403 . S
H425 C431 0.930 . S
C426 H412 0.930 . S
C426 C424 1.395 1_565 S
C426 C429 1.403 . S
C427 C424 1.403 . S
C427 C428 1.524 . S
C427 C431 1.400 . S
C428 H413 0.960 . S
C428 H414 0.960 1_455 S
C428 H415 0.960 . S
C428 C427 1.524 . S
C429 C426 1.403 . S
C429 C430 1.392 1_565 S
C429 C433 1.495 . S
C430 C429 1.392 1_545 S
C430 C431 1.385 . S
C430 C432 1.478 . S
C431 H425 0.930 . S
C431 C427 1.400 . S
C431 C430 1.385 . S
C432 C430 1.478 . S
C432 C434 1.381 1_445 S
C432 C438 1.383 . S
C433 C429 1.495 . S
C433 H439 0.959 . S
C433 H440 0.961 . S
C433 H441 0.960 . S
C434 C432 1.381 1_665 S
C434 C435 1.394 1_655 S
C434 H442 0.930 . S
C435 C434 1.394 1_455 S
C435 C436 1.383 1_565 S
C435 H443 0.929 1_455 S
C436 C435 1.383 1_545 S
C436 C437 1.377 . S
C437 H421 0.930 . S
C437 C436 1.377 . S
C437 C438 1.379 . S
C438 H422 0.931 . S
C438 C432 1.383 . S
C438 C437 1.379 . S
H439 C433 0.959 . S
H440 C433 0.961 . S
H441 C433 0.960 . S
H442 C434 0.930 . S
H443 C435 0.929 1_655 S
C129 C5 1.116 . S
C148 C15 1.112 . S
C165 C45 1.122 . S
C184 C55 1.130 . S
C201 C95 1.129 . S
C220 C85 1.136 . S
C237 C99 4.792 . S
C256 C89 4.783 . S
C273 C19 4.806 . S
C292 C9 4.798 . S
C309 C59 4.785 . S
C328 C49 4.776 . S
C345 C58 1.466 . S
C364 C8 1.464 . S
C381 C48 1.467 . S
C400 C98 1.479 . S
C417 C88 1.473 . S
C436 C18 1.453 . S
