# Generated by pormake.
# Topology wlu, (5)-cn, num edge types: 1
# Building blocks:
#     Node 0, Type 0, BuildingBlock: BEQFEK_clean_sbu_0, # of connection points: 5
#     Node 1, Type 0, BuildingBlock: BEQFEK_clean_sbu_0, # of connection points: 5
#     Node 2, Type 0, BuildingBlock: BEQFEK_clean_sbu_0, # of connection points: 5
#     Node 3, Type 0, BuildingBlock: BEQFEK_clean_sbu_0, # of connection points: 5
#     Node 4, Type 0, BuildingBlock: BEQFEK_clean_sbu_0, # of connection points: 5
#     Node 5, Type 0, BuildingBlock: BEQFEK_clean_sbu_0, # of connection points: 5
#     Node 6, Type 0, BuildingBlock: BEQFEK_clean_sbu_0, # of connection points: 5
#     Node 7, Type 0, BuildingBlock: BEQFEK_clean_sbu_0, # of connection points: 5
#     Node 8, Type 0, BuildingBlock: BEQFEK_clean_sbu_0, # of connection points: 5
#     Node 9, Type 0, BuildingBlock: BEQFEK_clean_sbu_0, # of connection points: 5
#     Node 10, Type 0, BuildingBlock: BEQFEK_clean_sbu_0, # of connection points: 5
#     Node 11, Type 0, BuildingBlock: BEQFEK_clean_sbu_0, # of connection points: 5
#     Node 12, Type 0, BuildingBlock: BEQFEK_clean_sbu_0, # of connection points: 5
#     Node 13, Type 0, BuildingBlock: BEQFEK_clean_sbu_0, # of connection points: 5
#     Node 14, Type 0, BuildingBlock: BEQFEK_clean_sbu_0, # of connection points: 5
#     Node 15, Type 0, BuildingBlock: BEQFEK_clean_sbu_0, # of connection points: 5
#     Node 16, Type 0, BuildingBlock: BEQFEK_clean_sbu_0, # of connection points: 5
#     Node 17, Type 0, BuildingBlock: BEQFEK_clean_sbu_0, # of connection points: 5
#     Node 18, Type 0, BuildingBlock: BEQFEK_clean_sbu_0, # of connection points: 5
#     Node 19, Type 0, BuildingBlock: BEQFEK_clean_sbu_0, # of connection points: 5
#     Node 20, Type 0, BuildingBlock: BEQFEK_clean_sbu_0, # of connection points: 5
#     Node 21, Type 0, BuildingBlock: BEQFEK_clean_sbu_0, # of connection points: 5
#     Node 22, Type 0, BuildingBlock: BEQFEK_clean_sbu_0, # of connection points: 5
#     Node 23, Type 0, BuildingBlock: BEQFEK_clean_sbu_0, # of connection points: 5
#     Node 24, Type 0, BuildingBlock: BEQFEK_clean_sbu_0, # of connection points: 5
#     Node 25, Type 0, BuildingBlock: BEQFEK_clean_sbu_0, # of connection points: 5
#     Node 26, Type 0, BuildingBlock: BEQFEK_clean_sbu_0, # of connection points: 5
#     Node 27, Type 0, BuildingBlock: BEQFEK_clean_sbu_0, # of connection points: 5
#     Node 28, Type 0, BuildingBlock: BEQFEK_clean_sbu_0, # of connection points: 5
#     Node 29, Type 0, BuildingBlock: BEQFEK_clean_sbu_0, # of connection points: 5
#     Node 30, Type 0, BuildingBlock: BEQFEK_clean_sbu_0, # of connection points: 5
#     Node 31, Type 0, BuildingBlock: BEQFEK_clean_sbu_0, # of connection points: 5
#     Node 32, Type 0, BuildingBlock: BEQFEK_clean_sbu_0, # of connection points: 5
#     Node 33, Type 0, BuildingBlock: BEQFEK_clean_sbu_0, # of connection points: 5
#     Node 34, Type 0, BuildingBlock: BEQFEK_clean_sbu_0, # of connection points: 5
#     Node 35, Type 0, BuildingBlock: BEQFEK_clean_sbu_0, # of connection points: 5
#     Edge 36, Type (0, 0), BuildingBlock: XIVTED_clean_linker_0, # of connection points: 2
#     Edge 37, Type (0, 0), BuildingBlock: XIVTED_clean_linker_0, # of connection points: 2
#     Edge 38, Type (0, 0), BuildingBlock: XIVTED_clean_linker_0, # of connection points: 2
#     Edge 39, Type (0, 0), BuildingBlock: XIVTED_clean_linker_0, # of connection points: 2
#     Edge 40, Type (0, 0), BuildingBlock: XIVTED_clean_linker_0, # of connection points: 2
#     Edge 41, Type (0, 0), BuildingBlock: XIVTED_clean_linker_0, # of connection points: 2
#     Edge 42, Type (0, 0), BuildingBlock: XIVTED_clean_linker_0, # of connection points: 2
#     Edge 43, Type (0, 0), BuildingBlock: XIVTED_clean_linker_0, # of connection points: 2
#     Edge 44, Type (0, 0), BuildingBlock: XIVTED_clean_linker_0, # of connection points: 2
#     Edge 45, Type (0, 0), BuildingBlock: XIVTED_clean_linker_0, # of connection points: 2
#     Edge 46, Type (0, 0), BuildingBlock: XIVTED_clean_linker_0, # of connection points: 2
#     Edge 47, Type (0, 0), BuildingBlock: XIVTED_clean_linker_0, # of connection points: 2
#     Edge 48, Type (0, 0), BuildingBlock: XIVTED_clean_linker_0, # of connection points: 2
#     Edge 49, Type (0, 0), BuildingBlock: XIVTED_clean_linker_0, # of connection points: 2
#     Edge 50, Type (0, 0), BuildingBlock: XIVTED_clean_linker_0, # of connection points: 2
#     Edge 51, Type (0, 0), BuildingBlock: XIVTED_clean_linker_0, # of connection points: 2
#     Edge 52, Type (0, 0), BuildingBlock: XIVTED_clean_linker_0, # of connection points: 2
#     Edge 53, Type (0, 0), BuildingBlock: XIVTED_clean_linker_0, # of connection points: 2
#     Edge 54, Type (0, 0), BuildingBlock: XIVTED_clean_linker_0, # of connection points: 2
#     Edge 55, Type (0, 0), BuildingBlock: XIVTED_clean_linker_0, # of connection points: 2
#     Edge 56, Type (0, 0), BuildingBlock: XIVTED_clean_linker_0, # of connection points: 2
#     Edge 57, Type (0, 0), BuildingBlock: XIVTED_clean_linker_0, # of connection points: 2
#     Edge 58, Type (0, 0), BuildingBlock: XIVTED_clean_linker_0, # of connection points: 2
#     Edge 59, Type (0, 0), BuildingBlock: XIVTED_clean_linker_0, # of connection points: 2
#     Edge 60, Type (0, 0), BuildingBlock: XIVTED_clean_linker_0, # of connection points: 2
#     Edge 61, Type (0, 0), BuildingBlock: XIVTED_clean_linker_0, # of connection points: 2
#     Edge 62, Type (0, 0), BuildingBlock: XIVTED_clean_linker_0, # of connection points: 2
#     Edge 63, Type (0, 0), BuildingBlock: XIVTED_clean_linker_0, # of connection points: 2
#     Edge 64, Type (0, 0), BuildingBlock: XIVTED_clean_linker_0, # of connection points: 2
#     Edge 65, Type (0, 0), BuildingBlock: XIVTED_clean_linker_0, # of connection points: 2
#     Edge 66, Type (0, 0), BuildingBlock: XIVTED_clean_linker_0, # of connection points: 2
#     Edge 67, Type (0, 0), BuildingBlock: XIVTED_clean_linker_0, # of connection points: 2
#     Edge 68, Type (0, 0), BuildingBlock: XIVTED_clean_linker_0, # of connection points: 2
#     Edge 69, Type (0, 0), BuildingBlock: XIVTED_clean_linker_0, # of connection points: 2
#     Edge 70, Type (0, 0), BuildingBlock: XIVTED_clean_linker_0, # of connection points: 2
#     Edge 71, Type (0, 0), BuildingBlock: XIVTED_clean_linker_0, # of connection points: 2
#     Edge 72, Type (0, 0), BuildingBlock: XIVTED_clean_linker_0, # of connection points: 2
#     Edge 73, Type (0, 0), BuildingBlock: XIVTED_clean_linker_0, # of connection points: 2
#     Edge 74, Type (0, 0), BuildingBlock: XIVTED_clean_linker_0, # of connection points: 2
#     Edge 75, Type (0, 0), BuildingBlock: XIVTED_clean_linker_0, # of connection points: 2
#     Edge 76, Type (0, 0), BuildingBlock: XIVTED_clean_linker_0, # of connection points: 2
#     Edge 77, Type (0, 0), BuildingBlock: XIVTED_clean_linker_0, # of connection points: 2
#     Edge 78, Type (0, 0), BuildingBlock: XIVTED_clean_linker_0, # of connection points: 2
#     Edge 79, Type (0, 0), BuildingBlock: XIVTED_clean_linker_0, # of connection points: 2
#     Edge 80, Type (0, 0), BuildingBlock: XIVTED_clean_linker_0, # of connection points: 2
#     Edge 81, Type (0, 0), BuildingBlock: XIVTED_clean_linker_0, # of connection points: 2
#     Edge 82, Type (0, 0), BuildingBlock: XIVTED_clean_linker_0, # of connection points: 2
#     Edge 83, Type (0, 0), BuildingBlock: XIVTED_clean_linker_0, # of connection points: 2
#     Edge 84, Type (0, 0), BuildingBlock: XIVTED_clean_linker_0, # of connection points: 2
#     Edge 85, Type (0, 0), BuildingBlock: XIVTED_clean_linker_0, # of connection points: 2
#     Edge 86, Type (0, 0), BuildingBlock: XIVTED_clean_linker_0, # of connection points: 2
#     Edge 87, Type (0, 0), BuildingBlock: XIVTED_clean_linker_0, # of connection points: 2
#     Edge 88, Type (0, 0), BuildingBlock: XIVTED_clean_linker_0, # of connection points: 2
#     Edge 89, Type (0, 0), BuildingBlock: XIVTED_clean_linker_0, # of connection points: 2
#     Edge 90, Type (0, 0), BuildingBlock: XIVTED_clean_linker_0, # of connection points: 2
#     Edge 91, Type (0, 0), BuildingBlock: XIVTED_clean_linker_0, # of connection points: 2
#     Edge 92, Type (0, 0), BuildingBlock: XIVTED_clean_linker_0, # of connection points: 2
#     Edge 93, Type (0, 0), BuildingBlock: XIVTED_clean_linker_0, # of connection points: 2
#     Edge 94, Type (0, 0), BuildingBlock: XIVTED_clean_linker_0, # of connection points: 2
#     Edge 95, Type (0, 0), BuildingBlock: XIVTED_clean_linker_0, # of connection points: 2
#     Edge 96, Type (0, 0), BuildingBlock: XIVTED_clean_linker_0, # of connection points: 2
#     Edge 97, Type (0, 0), BuildingBlock: XIVTED_clean_linker_0, # of connection points: 2
#     Edge 98, Type (0, 0), BuildingBlock: XIVTED_clean_linker_0, # of connection points: 2
#     Edge 99, Type (0, 0), BuildingBlock: XIVTED_clean_linker_0, # of connection points: 2
#     Edge 100, Type (0, 0), BuildingBlock: XIVTED_clean_linker_0, # of connection points: 2
#     Edge 101, Type (0, 0), BuildingBlock: XIVTED_clean_linker_0, # of connection points: 2
#     Edge 102, Type (0, 0), BuildingBlock: XIVTED_clean_linker_0, # of connection points: 2
#     Edge 103, Type (0, 0), BuildingBlock: XIVTED_clean_linker_0, # of connection points: 2
#     Edge 104, Type (0, 0), BuildingBlock: XIVTED_clean_linker_0, # of connection points: 2
#     Edge 105, Type (0, 0), BuildingBlock: XIVTED_clean_linker_0, # of connection points: 2
#     Edge 106, Type (0, 0), BuildingBlock: XIVTED_clean_linker_0, # of connection points: 2
#     Edge 107, Type (0, 0), BuildingBlock: XIVTED_clean_linker_0, # of connection points: 2
#     Edge 108, Type (0, 0), BuildingBlock: XIVTED_clean_linker_0, # of connection points: 2
#     Edge 109, Type (0, 0), BuildingBlock: XIVTED_clean_linker_0, # of connection points: 2
#     Edge 110, Type (0, 0), BuildingBlock: XIVTED_clean_linker_0, # of connection points: 2
#     Edge 111, Type (0, 0), BuildingBlock: XIVTED_clean_linker_0, # of connection points: 2
#     Edge 112, Type (0, 0), BuildingBlock: XIVTED_clean_linker_0, # of connection points: 2
#     Edge 113, Type (0, 0), BuildingBlock: XIVTED_clean_linker_0, # of connection points: 2
#     Edge 114, Type (0, 0), BuildingBlock: XIVTED_clean_linker_0, # of connection points: 2
#     Edge 115, Type (0, 0), BuildingBlock: XIVTED_clean_linker_0, # of connection points: 2
#     Edge 116, Type (0, 0), BuildingBlock: XIVTED_clean_linker_0, # of connection points: 2
#     Edge 117, Type (0, 0), BuildingBlock: XIVTED_clean_linker_0, # of connection points: 2
#     Edge 118, Type (0, 0), BuildingBlock: XIVTED_clean_linker_0, # of connection points: 2
#     Edge 119, Type (0, 0), BuildingBlock: XIVTED_clean_linker_0, # of connection points: 2
#     Edge 120, Type (0, 0), BuildingBlock: XIVTED_clean_linker_0, # of connection points: 2
#     Edge 121, Type (0, 0), BuildingBlock: XIVTED_clean_linker_0, # of connection points: 2
#     Edge 122, Type (0, 0), BuildingBlock: XIVTED_clean_linker_0, # of connection points: 2
#     Edge 123, Type (0, 0), BuildingBlock: XIVTED_clean_linker_0, # of connection points: 2
#     Edge 124, Type (0, 0), BuildingBlock: XIVTED_clean_linker_0, # of connection points: 2
#     Edge 125, Type (0, 0), BuildingBlock: XIVTED_clean_linker_0, # of connection points: 2
# Relax obj value: 0.084
# Max RMSD: 0.146
# Mean RMSD: 0.146
data_MOF--net-wlu--node1-BEQFEK_clean_sbu_0--edge1-XIVTED_clean_linker_0
_symmetry_space_group_name_H-M    P1
_symmetry_Int_Tables_number       1
_symmetry_cell_setting            triclinic
loop_
_symmetry_equiv_pos_as_xyz
'x, y, z'
_cell_length_a     69.222337
_cell_length_b     69.186408
_cell_length_c     57.814786
_cell_angle_alpha  89.984747
_cell_angle_beta   90.021858
_cell_angle_gamma 119.99403
loop_
_atom_site_label
_atom_site_type_symbol
_atom_site_fract_x
_atom_site_fract_y
_atom_site_fract_z
_atom_type_partial_charge
Co0 Co 0.28878 0.20653 0.04206 0.0
Co1 Co 0.257 0.15604 0.03077 0.0
C2 C 0.29462 0.18572 -0.00073 0.0
O3 O 0.30042 0.20247 0.01247 0.0
O4 O 0.27831 0.16653 0.00434 0.0
C5 C 0.32973 0.24831 0.05142 0.0
O6 O 0.34016 0.24029 0.03923 0.0
C7 C 0.24179 0.10942 0.01878 0.0
C8 C 0.20608 0.09309 0.02802 0.0
C9 C 0.22198 0.089 0.01824 0.0
N10 N 0.23756 0.12471 0.02809 0.0
N11 N 0.21623 0.11484 0.03367 0.0
C12 C 0.26463 0.11447 0.0117 0.0
H13 H 0.27749 0.12923 0.02127 0.0
H14 H 0.26692 0.09994 0.01504 0.0
H15 H 0.26691 0.11841 0.99295 0.0
C16 C 0.29482 0.18727 0.08505 0.0
N17 N 0.28547 0.18498 0.0641 0.0
N18 N 0.27232 0.16365 0.0596 0.0
C19 C 0.27304 0.15161 0.07762 0.0
C20 C 0.28722 0.16623 0.09438 0.0
C21 C 0.31193 0.20918 0.09508 0.0
H22 H 0.32655 0.217 0.08337 0.0
H23 H 0.31776 0.20739 0.11237 0.0
H24 H 0.30488 0.22044 0.09636 0.0
O25 O 0.26019 0.20517 0.03613 0.0
O26 O 0.2376 0.16953 0.0277 0.0
H27 H 0.24225 0.12074 0.07519 0.0
H28 H 0.26158 0.12054 0.09614 0.0
C29 C 0.26007 0.12669 0.07888 0.0
H30 H 0.26629 0.11969 0.06546 0.0
H31 H 0.20851 0.12305 0.04097 0.0
O32 O 0.30875 0.2367 0.05417 0.0
C33 C 0.24111 0.18929 0.03028 0.0
Co34 Co 0.77902 0.07969 0.04036 0.0
Co35 Co 0.8298 0.1002 0.02971 0.0
C36 C 0.79989 0.10554 -0.00332 0.0
O37 O 0.78318 0.09417 0.00981 0.0
O38 O 0.81944 0.10983 0.00232 0.0
C39 C 0.73807 0.0801 0.05059 0.0
O40 O 0.74799 0.10052 0.04233 0.0
C41 C 0.87655 0.13006 0.01655 0.0
C42 C 0.89288 0.11279 0.03231 0.0
C43 C 0.89698 0.13083 0.01849 0.0
N44 N 0.86121 0.11221 0.02833 0.0
N45 N 0.87109 0.10204 0.03781 0.0
C46 C 0.87161 0.14641 0.00487 0.0
H47 H 0.85717 0.14636 0.01326 0.0
H48 H 0.88629 0.1635 0.00558 0.0
H49 H 0.86726 0.14148 0.98651 0.0
C50 C 0.79726 0.10709 0.0826 0.0
N51 N 0.79991 0.09931 0.06223 0.0
N52 N 0.82134 0.10851 0.05766 0.0
C53 C 0.83302 0.12284 0.07484 0.0
C54 C 0.81808 0.12248 0.09115 0.0
C55 C 0.77526 0.09904 0.09434 0.0
H56 H 0.76433 0.08089 0.09141 0.0
H57 H 0.76708 0.10798 0.08707 0.0
H58 H 0.77738 0.10218 0.11324 0.0
O59 O 0.78135 0.05278 0.03654 0.0
O60 O 0.81705 0.06736 0.02749 0.0
H61 H 0.86564 0.12698 0.07746 0.0
H62 H 0.8636 0.15036 0.08852 0.0
C63 C 0.85785 0.13745 0.0748 0.0
H64 H 0.86338 0.14574 0.05774 0.0
H65 H 0.86285 0.0875 0.04766 0.0
O66 O 0.74839 0.06923 0.05096 0.0
C67 C 0.79779 0.05049 0.03074 0.0
Co68 Co 0.90921 0.69793 0.04268 0.0
Co69 Co 0.89226 0.73123 0.03217 0.0
C70 C 0.88319 0.69361 -7e-05 0.0
O71 O 0.89346 0.68686 0.01299 0.0
O72 O 0.88116 0.71037 0.00535 0.0
C73 C 0.90936 0.65644 0.05163 0.0
O74 O 0.8914 0.64623 0.03869 0.0
C75 C 0.86186 0.74764 0.02072 0.0
C76 C 0.88199 0.78329 0.03011 0.0
C77 C 0.86178 0.76771 0.02045 0.0
N78 N 0.8813 0.75139 0.02976 0.0
N79 N 0.89323 0.77269 0.03543 0.0
C80 C 0.84364 0.72497 0.01366 0.0
H81 H 0.84527 0.71186 0.02304 0.0
H82 H 0.82703 0.72308 0.01725 0.0
H83 H 0.84502 0.72269 0.99487 0.0
C84 C 0.88329 0.69161 0.0854 0.0
N85 N 0.89122 0.70161 0.06485 0.0
N86 N 0.88384 0.71547 0.06064 0.0
C87 C 0.87086 0.71469 0.07843 0.0
C88 C 0.87017 0.69959 0.09474 0.0
C89 C 0.88668 0.67335 0.09478 0.0
H90 H 0.90479 0.67965 0.097 0.0
H91 H 0.88005 0.65941 0.08219 0.0
H92 H 0.87806 0.66676 0.1115 0.0
O93 O 0.93703 0.72611 0.03665 0.0
O94 O 0.92509 0.74984 0.02951 0.0
H95 H 0.87178 0.746 0.07592 0.0
H96 H 0.85238 0.72725 0.09728 0.0
C97 C 0.8596 0.72832 0.07987 0.0
H98 H 0.84611 0.72226 0.06677 0.0
H99 H 0.90919 0.78005 0.0426 0.0
O100 O 0.91861 0.67736 0.05478 0.0
C101 C 0.94088 0.74556 0.03143 0.0
Co102 Co 0.20477 0.29199 0.44709 0.0
Co103 Co 0.15446 0.25898 0.45831 0.0
C104 C 0.18383 0.29525 0.49124 0.0
O105 O 0.20051 0.30186 0.47773 0.0
O106 O 0.16466 0.27901 0.48589 0.0
C107 C 0.24887 0.33181 0.44297 0.0
O108 O 0.24505 0.33848 0.46284 0.0
C109 C 0.10743 0.24023 0.47162 0.0
C110 C 0.0924 0.20645 0.45643 0.0
C111 C 0.08745 0.22007 0.46974 0.0
N112 N 0.12332 0.23834 0.46024 0.0
N113 N 0.11422 0.21815 0.45114 0.0
C114 C 0.11142 0.26142 0.4828 0.0
H115 H 0.12578 0.27599 0.47453 0.0
H116 H 0.09639 0.26321 0.48144 0.0
H117 H 0.11545 0.2612 0.50134 0.0
C118 C 0.18473 0.30044 0.40629 0.0
N119 N 0.18279 0.28941 0.42607 0.0
N120 N 0.16156 0.27585 0.43055 0.0
C121 C 0.14923 0.27791 0.41367 0.0
C122 C 0.16357 0.29372 0.39783 0.0
C123 C 0.20658 0.31652 0.39535 0.0
H124 H 0.21711 0.30866 0.39415 0.0
H125 H 0.21535 0.33161 0.40638 0.0
H126 H 0.20445 0.32149 0.37772 0.0
O127 O 0.20439 0.26364 0.45122 0.0
O128 O 0.16886 0.24034 0.45942 0.0
H129 H 0.11777 0.24774 0.41216 0.0
H130 H 0.1177 0.2715 0.39909 0.0
C131 C 0.12428 0.26596 0.41357 0.0
H132 H 0.11826 0.26904 0.43017 0.0
H133 H 0.123 0.21227 0.44155 0.0
O134 O 0.23433 0.31326 0.43446 0.0
C135 C 0.18871 0.24425 0.45647 0.0
Co136 Co 0.68637 0.9053 0.4531 0.0
Co137 Co 0.7165 0.88426 0.46308 0.0
C138 C 0.68227 0.88078 0.49712 0.0
O139 O 0.6765 0.89182 0.484 0.0
O140 O 0.69726 0.87623 0.49108 0.0
C141 C 0.6462 0.90812 0.44629 0.0
O142 O 0.63593 0.89007 0.4591 0.0
C143 C 0.7319 0.8532 0.47716 0.0
C144 C 0.76349 0.86665 0.45761 0.0
C145 C 0.75005 0.85021 0.47323 0.0
N146 N 0.7345 0.87052 0.46425 0.0
N147 N 0.75339 0.87845 0.45261 0.0
C148 C 0.71376 0.84178 0.49472 0.0
H149 H 0.71566 0.85413 0.50805 0.0
H150 H 0.69731 0.83562 0.48627 0.0
H151 H 0.7143 0.82786 0.50353 0.0
C152 C 0.67537 0.87681 0.4116 0.0
N153 N 0.68641 0.88475 0.43166 0.0
N154 N 0.69881 0.87563 0.43572 0.0
C155 C 0.69584 0.86133 0.41838 0.0
C156 C 0.68099 0.86175 0.40247 0.0
C157 C 0.65878 0.88265 0.40217 0.0
H158 H 0.66684 0.901 0.40005 0.0
H159 H 0.64491 0.87726 0.41469 0.0
H160 H 0.65167 0.87439 0.3854 0.0
O161 O 0.71626 0.93163 0.45614 0.0
O162 O 0.7377 0.91705 0.4638 0.0
H163 H 0.7258 0.85988 0.4153 0.0
H164 H 0.70204 0.8369 0.4016 0.0
C165 C 0.70761 0.8482 0.41679 0.0
H166 H 0.70463 0.8383 0.43283 0.0
H167 H 0.75955 0.89217 0.44152 0.0
O168 O 0.66689 0.91658 0.4421 0.0
C169 C 0.73525 0.93393 0.46077 0.0
Co170 Co 0.0781 0.78254 0.45168 0.0
Co171 Co 0.09655 0.83341 0.46042 0.0
C172 C 0.10484 0.80486 0.49375 0.0
O173 O 0.09463 0.78745 0.48118 0.0
O174 O 0.10661 0.82341 0.48774 0.0
C175 C 0.06953 0.73663 0.44838 0.0
O176 O 0.07969 0.73975 0.46838 0.0
C177 C 0.12807 0.88012 0.47142 0.0
C178 C 0.10916 0.89655 0.4606 0.0
C179 C 0.12889 0.90064 0.47105 0.0
N180 N 0.10867 0.86477 0.46198 0.0
N181 N 0.09749 0.87469 0.45544 0.0
C182 C 0.14553 0.87497 0.47954 0.0
H183 H 0.14385 0.86014 0.47029 0.0
H184 H 0.16249 0.88942 0.47663 0.0
H185 H 0.14322 0.87106 0.49829 0.0
C186 C 0.10426 0.8003 0.40886 0.0
N187 N 0.09654 0.80333 0.42909 0.0
N188 N 0.10441 0.82478 0.43243 0.0
C189 C 0.11738 0.83615 0.41427 0.0
C190 C 0.1176 0.82096 0.39868 0.0
C191 C 0.10025 0.77812 0.40046 0.0
H192 H 0.10345 0.76935 0.41473 0.0
H193 H 0.11117 0.77978 0.38566 0.0
H194 H 0.08255 0.76779 0.39516 0.0
O195 O 0.0508 0.78437 0.45737 0.0
O196 O 0.06408 0.82051 0.46306 0.0
H197 H 0.13599 0.86644 0.39422 0.0
H198 H 0.14238 0.86879 0.4248 0.0
C199 C 0.12884 0.86098 0.41178 0.0
H200 H 0.1168 0.86677 0.41521 0.0
H201 H 0.0817 0.86645 0.44786 0.0
O202 O 0.06745 0.75226 0.43947 0.0
C203 C 0.04777 0.80068 0.46177 0.0
Co204 Co 0.69639 0.78148 0.95464 0.0
Co205 Co 0.72683 0.83244 0.96405 0.0
C206 C 0.69176 0.80343 -0.00239 0.0
O207 O 0.68641 0.78644 0.98491 0.0
O208 O 0.70692 0.82287 0.99153 0.0
C209 C 0.65499 0.73996 0.94725 0.0
O210 O 0.64486 0.7501 0.95591 0.0
C211 C 0.74256 0.87943 0.97465 0.0
C212 C 0.77735 0.89551 0.96212 0.0
C213 C 0.76226 0.89989 0.97337 0.0
N214 N 0.7461 0.86384 0.96495 0.0
N215 N 0.76687 0.87355 0.9574 0.0
C216 C 0.72038 0.87458 0.98385 0.0
H217 H 0.70679 0.85958 0.97528 0.0
H218 H 0.71781 0.88901 0.98103 0.0
H219 H 0.71964 0.87114 0.00267 0.0
C220 C 0.68743 0.79872 0.91148 0.0
N221 N 0.69767 0.80184 0.93207 0.0
N222 N 0.71017 0.82338 0.93602 0.0
C223 C 0.70801 0.83469 0.91815 0.0
C224 C 0.69358 0.81942 0.90198 0.0
C225 C 0.67091 0.7763 0.90199 0.0
H226 H 0.67796 0.76502 0.90281 0.0
H227 H 0.65563 0.76906 0.91276 0.0
H228 H 0.66609 0.7772 0.88393 0.0
O229 O 0.72567 0.78386 0.95865 0.0
O230 O 0.74689 0.81977 0.96689 0.0
H231 H 0.73807 0.86634 0.91872 0.0
H232 H 0.71693 0.86523 0.89952 0.0
C233 C 0.7199 0.85959 0.91644 0.0
H234 H 0.71414 0.86635 0.93055 0.0
H235 H 0.77401 0.8651 0.94939 0.0
O236 O 0.67608 0.75048 0.94518 0.0
C237 C 0.74444 0.80042 0.96414 0.0
Co238 Co 0.20943 0.91109 0.94892 0.0
Co239 Co 0.1584 0.89041 0.95881 0.0
C240 C 0.18866 0.88549 0.99234 0.0
O241 O 0.20553 0.89658 0.97934 0.0
O242 O 0.16929 0.88153 0.98643 0.0
C243 C 0.25168 0.91276 0.94149 0.0
O244 O 0.24294 0.89366 0.95261 0.0
C245 C 0.11116 0.8577 0.96904 0.0
C246 C 0.09522 0.87747 0.95977 0.0
C247 C 0.09079 0.85719 0.96905 0.0
N248 N 0.12678 0.87744 0.96033 0.0
N249 N 0.11705 0.88902 0.95458 0.0
C250 C 0.11605 0.84042 0.9784 0.0
H251 H 0.13419 0.84699 0.97994 0.0
H252 H 0.10939 0.82605 0.96632 0.0
H253 H 0.10791 0.83436 0.99548 0.0
C254 C 0.19176 0.88405 0.90635 0.0
N255 N 0.18877 0.89143 0.92683 0.0
N256 N 0.16728 0.88258 0.93081 0.0
C257 C 0.15586 0.86917 0.91293 0.0
C258 C 0.17102 0.8697 0.8968 0.0
C259 C 0.21411 0.88954 0.897 0.0
H260 H 0.22205 0.88321 0.90916 0.0
H261 H 0.21298 0.88189 0.87987 0.0
H262 H 0.22492 0.90791 0.8957 0.0
O263 O 0.20654 0.9378 0.95315 0.0
O264 O 0.17057 0.92313 0.96099 0.0
H265 H 0.1253 0.84906 0.89373 0.0
H266 H 0.12394 0.8435 0.92444 0.0
C267 C 0.13097 0.85674 0.91104 0.0
H268 H 0.12456 0.86831 0.91432 0.0
H269 H 0.12548 0.90514 0.94777 0.0
O270 O 0.24017 0.92218 0.93826 0.0
C271 C 0.18993 0.94003 0.95839 0.0
Co272 Co 0.07385 0.29096 0.94821 0.0
Co273 Co 0.09723 0.26313 0.95853 0.0
C274 C 0.10136 0.29797 0.9912 0.0
O275 O 0.08873 0.30192 0.97844 0.0
O276 O 0.10689 0.28364 0.98541 0.0
C277 C 0.07324 0.33157 0.93911 0.0
O278 O 0.09427 0.34176 0.9455 0.0
C279 C 0.12512 0.24465 0.97472 0.0
C280 C 0.11805 0.21898 0.94813 0.0
C281 C 0.13015 0.22836 0.96814 0.0
N282 N 0.11101 0.24513 0.95904 0.0
N283 N 0.10673 0.22963 0.94332 0.0
C284 C 0.13159 0.25789 -0.00332 0.0
H285 H 0.11658 0.2569 0.00472 0.0
H286 H 0.14352 0.27565 0.99265 0.0
H287 H 0.13919 0.25163 0.00935 0.0
C288 C 0.10035 0.30096 0.90526 0.0
N289 N 0.09358 0.29072 0.92588 0.0
N290 N 0.10422 0.27984 0.93044 0.0
C291 C 0.11872 0.2835 0.9131 0.0
C292 C 0.11665 0.29694 0.89656 0.0
C293 C 0.09044 0.31326 0.89348 0.0
H294 H 0.07245 0.30543 0.89765 0.0
H295 H 0.09906 0.33081 0.89958 0.0
H296 H 0.09241 0.31327 0.87443 0.0
O297 O 0.04811 0.26109 0.95234 0.0
O298 O 0.06457 0.24169 0.96163 0.0
H299 H 0.12769 0.25871 0.90606 0.0
H300 H 0.15017 0.28691 0.90243 0.0
C301 C 0.13548 0.27585 0.91323 0.0
H302 H 0.14109 0.27566 0.93115 0.0
H303 H 0.09594 0.22623 0.92935 0.0
O304 O 0.06208 0.31039 0.9388 0.0
C305 C 0.04702 0.24293 0.95842 0.0
Co306 Co 0.77992 0.69234 0.53674 0.0
Co307 Co 0.82954 0.72859 0.5281 0.0
C308 C 0.80322 0.69166 0.49406 0.0
O309 O 0.78609 0.68249 0.50702 0.0
O310 O 0.82073 0.70957 0.49999 0.0
C311 C 0.73296 0.66213 0.53573 0.0
O312 O 0.73439 0.66995 0.51471 0.0
C313 C 0.87607 0.74536 0.51641 0.0
C314 C 0.89191 0.78087 0.52638 0.0
C315 C 0.89631 0.76531 0.51621 0.0
N316 N 0.86058 0.74914 0.52591 0.0
N317 N 0.87012 0.77036 0.53192 0.0
C318 C 0.87137 0.7227 0.50893 0.0
H319 H 0.85663 0.70955 0.51828 0.0
H320 H 0.88598 0.72055 0.51225 0.0
H321 H 0.86755 0.72065 0.49015 0.0
C322 C 0.79946 0.68586 0.57919 0.0
N323 N 0.8015 0.69641 0.55904 0.0
N324 N 0.82257 0.71135 0.55559 0.0
C325 C 0.83472 0.71077 0.57356 0.0
C326 C 0.82044 0.69443 0.58903 0.0
C327 C 0.77757 0.6688 0.5893 0.0
H328 H 0.7659 0.6754 0.58916 0.0
H329 H 0.77027 0.65352 0.57846 0.0
H330 H 0.77928 0.66445 0.60735 0.0
O331 O 0.77854 0.72002 0.53186 0.0
O332 O 0.81404 0.74603 0.52734 0.0
H333 H 0.86428 0.74282 0.57449 0.0
H334 H 0.86611 0.72174 0.59142 0.0
C335 C 0.85954 0.72497 0.57528 0.0
H336 H 0.86733 0.7215 0.56031 0.0
H337 H 0.86167 0.77773 0.53944 0.0
O338 O 0.7505 0.66926 0.54783 0.0
C339 C 0.79349 0.74027 0.5285 0.0
Co340 Co 0.29152 0.07942 0.54336 0.0
Co341 Co 0.26091 0.09948 0.53136 0.0
C342 C 0.2979 0.1054 0.49995 0.0
O343 O 0.30339 0.09434 0.51336 0.0
O344 O 0.28196 0.10886 0.50491 0.0
C345 C 0.33193 0.07782 0.55238 0.0
O346 O 0.34211 0.09561 0.53919 0.0
C347 C 0.24622 0.13179 0.51954 0.0
C348 C 0.2102 0.1116 0.52723 0.0
C349 C 0.22623 0.13202 0.51842 0.0
N350 N 0.242 0.11207 0.52843 0.0
N351 N 0.22049 0.10023 0.53322 0.0
C352 C 0.26868 0.14934 0.51111 0.0
H353 H 0.28044 0.14296 0.51026 0.0
H354 H 0.27574 0.16355 0.52339 0.0
H355 H 0.26722 0.15554 0.49386 0.0
C356 C 0.29877 0.10619 0.5856 0.0
N357 N 0.28911 0.0987 0.56484 0.0
N358 N 0.27636 0.10728 0.56003 0.0
C359 C 0.27757 0.12062 0.57764 0.0
C360 C 0.29175 0.12029 0.59446 0.0
C361 C 0.3157 0.10121 0.59579 0.0
H362 H 0.32998 0.1071 0.58373 0.0
H363 H 0.32212 0.10954 0.61268 0.0
H364 H 0.30821 0.08291 0.59794 0.0
O365 O 0.26237 0.05249 0.53796 0.0
O366 O 0.24097 0.06676 0.52877 0.0
H367 H 0.26637 0.14068 0.59571 0.0
H368 H 0.27168 0.14624 0.5651 0.0
C369 C 0.265 0.133 0.5785 0.0
H370 H 0.24717 0.1214 0.57456 0.0
H371 H 0.2127 0.08407 0.53993 0.0
O372 O 0.31109 0.06891 0.5559 0.0
C373 C 0.24364 0.05003 0.53179 0.0
Co374 Co 0.90955 0.20219 0.53951 0.0
Co375 Co 0.88662 0.15113 0.52794 0.0
C376 C 0.88257 0.18263 0.49609 0.0
O377 O 0.8949 0.199 0.50924 0.0
O378 O 0.8773 0.16271 0.50137 0.0
C379 C 0.91012 0.24329 0.54975 0.0
O380 O 0.88979 0.23323 0.54127 0.0
C381 C 0.85834 0.10504 0.5108 0.0
C382 C 0.86514 0.08576 0.53678 0.0
C383 C 0.85296 0.08349 0.51695 0.0
N384 N 0.8727 0.11929 0.52655 0.0
N385 N 0.87684 0.10765 0.5419 0.0
C386 C 0.85177 0.11229 0.48923 0.0
H387 H 0.86675 0.12642 0.48128 0.0
H388 H 0.83994 0.11812 0.49373 0.0
H389 H 0.84402 0.09867 0.47631 0.0
C390 C 0.88249 0.18458 0.58184 0.0
N391 N 0.88966 0.18153 0.56127 0.0
N392 N 0.87915 0.1601 0.55627 0.0
C393 C 0.86431 0.1489 0.57326 0.0
C394 C 0.86598 0.16409 0.59001 0.0
C395 C 0.89213 0.20656 0.59405 0.0
H396 H 0.91029 0.21662 0.59068 0.0
H397 H 0.88394 0.21578 0.5876 0.0
H398 H 0.88942 0.20423 0.613 0.0
O399 O 0.93538 0.19829 0.53518 0.0
O400 O 0.91942 0.16259 0.52525 0.0
H401 H 0.85538 0.11502 0.57941 0.0
H402 H 0.8328 0.12055 0.58335 0.0
C403 C 0.84759 0.12449 0.57257 0.0
H404 H 0.84214 0.11911 0.55452 0.0
H405 H 0.88768 0.11469 0.55589 0.0
O406 O 0.92102 0.233 0.55039 0.0
C407 C 0.9368 0.18146 0.52886 0.0
Co408 Co 0.95878 0.54079 0.37224 0.0
Co409 Co 0.92309 0.49036 0.36494 0.0
C410 C 0.95981 0.5163 0.33056 0.0
O411 O 0.96872 0.53387 0.34294 0.0
O412 O 0.94211 0.49877 0.3369 0.0
C413 C 0.98637 0.58815 0.37066 0.0
O414 O 0.97643 0.586 0.35069 0.0
C415 C 0.90448 0.4431 0.35321 0.0
C416 C 0.87275 0.42711 0.3727 0.0
C417 C 0.88583 0.42259 0.35808 0.0
N418 N 0.90263 0.45897 0.36472 0.0
N419 N 0.88359 0.44933 0.37626 0.0
C420 C 0.9229 0.44806 0.33646 0.0
H421 H 0.93922 0.45742 0.34543 0.0
H422 H 0.92131 0.43286 0.32831 0.0
H423 H 0.92254 0.45881 0.32245 0.0
C424 C 0.96611 0.52273 0.41531 0.0
N425 N 0.95517 0.52 0.39528 0.0
N426 N 0.94079 0.49869 0.39219 0.0
C427 C 0.94235 0.48707 0.41013 0.0
C428 C 0.95851 0.50196 0.42536 0.0
C429 C 0.98287 0.545 0.42494 0.0
H430 H 0.97605 0.55647 0.42413 0.0
H431 H -0.00178 0.55219 0.41423 0.0
H432 H 0.98715 0.54381 0.44317 0.0
O433 O 0.93077 0.54125 0.3668 0.0
O434 O 0.90526 0.50542 0.36325 0.0
H435 H 0.91192 0.45638 0.41518 0.0
H436 H 0.93633 0.45601 0.42569 0.0
C437 C 0.92975 0.46214 0.41175 0.0
H438 H 0.93087 0.45489 0.39505 0.0
H439 H 0.87802 0.45793 0.38658 0.0
O440 O 0.98153 0.57084 0.38245 0.0
C441 C 0.91065 0.52591 0.36366 0.0
Co442 Co 0.4431 0.41954 0.36658 0.0
Co443 Co 0.49291 0.43248 0.36028 0.0
C444 C 0.46854 0.44495 0.32543 0.0
O445 O 0.45075 0.4366 0.33743 0.0
O446 O 0.48563 0.44409 0.33213 0.0
C447 C 0.39616 0.40282 0.36388 0.0
O448 O 0.39833 0.39707 0.3428 0.0
C449 C 0.54009 0.46236 0.35173 0.0
C450 C 0.55478 0.44119 0.35975 0.0
C451 C 0.56005 0.46209 0.35145 0.0
N452 N 0.52391 0.44251 0.35942 0.0
N453 N 0.53277 0.42994 0.36431 0.0
C454 C 0.53617 0.48118 0.34583 0.0
H455 H 0.52132 0.47928 0.3552 0.0
H456 H 0.55095 0.49748 0.35031 0.0
H457 H 0.53285 0.48083 0.32701 0.0
C458 C 0.46103 0.44407 0.4102 0.0
N459 N 0.46379 0.43616 0.38999 0.0
N460 N 0.48486 0.44176 0.38766 0.0
C461 C 0.49621 0.45332 0.40654 0.0
C462 C 0.48142 0.45508 0.42147 0.0
C463 C 0.4395 0.4423 0.41771 0.0
H464 H 0.43228 0.44709 0.40318 0.0
H465 H 0.44175 0.45322 0.43271 0.0
H466 H 0.42752 0.42471 0.42238 0.0
O467 O 0.44158 0.3904 0.36127 0.0
O468 O 0.47716 0.39972 0.3584 0.0
H469 H 0.52518 0.46659 0.42886 0.0
H470 H 0.53046 0.47628 0.39927 0.0
C471 C 0.52046 0.46164 0.41056 0.0
H472 H 0.52444 0.44848 0.40589 0.0
H473 H 0.52371 0.41354 0.3703 0.0
O474 O 0.41327 0.41285 0.37667 0.0
C475 C 0.45656 0.38503 0.35855 0.0
Co476 Co 0.57053 0.02731 0.3699 0.0
Co477 Co 0.5539 0.06164 0.36378 0.0
C478 C 0.54427 0.02574 0.32866 0.0
O479 O 0.55344 0.01714 0.34073 0.0
O480 O 0.5438 0.04301 0.3354 0.0
C481 C 0.56967 0.98523 0.37835 0.0
O482 O 0.54852 0.97492 0.37238 0.0
C483 C 0.52593 0.08089 0.35093 0.0
C484 C 0.5383 0.10975 0.37464 0.0
C485 C 0.52297 0.09861 0.35722 0.0
N486 N 0.54204 0.08135 0.36431 0.0
N487 N 0.54944 0.09871 0.37834 0.0
C488 C 0.51536 0.06507 0.33112 0.0
H489 H 0.50631 0.0477 0.33775 0.0
H490 H 0.50388 0.06857 0.32099 0.0
H491 H 0.52863 0.06662 0.31926 0.0
C492 C 0.54545 0.01871 0.41385 0.0
N493 N 0.55308 0.0297 0.3937 0.0
N494 N 0.54517 0.04333 0.39079 0.0
C495 C 0.53173 0.04096 0.40878 0.0
C496 C 0.53147 0.02526 0.42397 0.0
C497 C 0.55234 0.00311 0.42387 0.0
H498 H 0.57014 0.00917 0.41998 0.0
H499 H 0.54205 0.98633 0.41611 0.0
H500 H 0.54997 0.00166 0.4429 0.0
O501 O 0.59799 0.05608 0.3646 0.0
O502 O 0.5867 0.08085 0.36193 0.0
H503 H 0.52907 0.06976 0.41619 0.0
H504 H 0.50429 0.04372 0.42305 0.0
C505 C 0.51816 0.05226 0.41049 0.0
H506 H 0.51114 0.05246 0.39331 0.0
H507 H 0.56216 0.10303 0.39044 0.0
O508 O 0.58086 0.00641 0.37838 0.0
C509 C 0.60221 0.07606 0.36193 0.0
Co510 Co 0.87895 0.63441 0.79409 0.0
Co511 Co 0.82775 0.60459 0.80261 0.0
C512 C 0.85661 0.63873 0.83698 0.0
O513 O 0.87376 0.64406 0.82454 0.0
O514 O 0.83718 0.62393 0.83046 0.0
C515 C 0.92018 0.67568 0.78417 0.0
O516 O 0.90974 0.6863 0.79046 0.0
C517 C 0.78042 0.58855 0.81247 0.0
C518 C 0.76463 0.55484 0.79699 0.0
C519 C 0.75992 0.56915 0.8094 0.0
N520 N 0.79629 0.58556 0.80257 0.0
N521 N 0.78674 0.56543 0.7933 0.0
C522 C 0.78503 0.61007 0.82333 0.0
H523 H 0.80057 0.62415 0.81613 0.0
H524 H 0.77095 0.61314 0.82033 0.0
H525 H 0.78736 0.60929 0.84223 0.0
C526 C 0.86256 0.64414 0.75063 0.0
N527 N 0.85909 0.63391 0.77128 0.0
N528 N 0.83748 0.62178 0.775 0.0
C529 C 0.82652 0.62423 0.75695 0.0
C530 C 0.84211 0.6386 0.741 0.0
C531 C 0.88493 0.65759 0.73943 0.0
H532 H 0.89565 0.65037 0.74356 0.0
H533 H 0.89299 0.67495 0.74601 0.0
H534 H 0.88337 0.65802 0.72036 0.0
O535 O 0.87599 0.6048 0.79761 0.0
O536 O 0.8399 0.58404 0.80516 0.0
H537 H 0.79423 0.59536 0.75361 0.0
H538 H 0.79647 0.62027 0.74081 0.0
C539 C 0.8017 0.61367 0.75555 0.0
H540 H 0.79528 0.61684 0.77182 0.0
H541 H 0.79539 0.55882 0.78469 0.0
O542 O 0.91005 0.6545 0.78483 0.0
C543 C 0.8591 0.58609 0.80263 0.0
Co544 Co 0.3576 0.24478 0.79505 0.0
Co545 Co 0.38816 0.22423 0.80359 0.0
C546 C 0.35352 0.21841 0.83787 0.0
O547 O 0.34786 0.23 0.82546 0.0
O548 O 0.36863 0.2142 0.83138 0.0
C549 C 0.31683 0.24676 0.7879 0.0
O550 O 0.30601 0.22759 0.79882 0.0
C551 C 0.40318 0.19196 0.8121 0.0
C552 C 0.43819 0.21111 0.80029 0.0
C553 C 0.42272 0.19094 0.81011 0.0
N554 N 0.40719 0.21184 0.80403 0.0
N555 N 0.4281 0.22317 0.79696 0.0
C556 C 0.38073 0.17425 0.8203 0.0
H557 H 0.36748 0.17697 0.81289 0.0
H558 H 0.37765 0.15745 0.81533 0.0
H559 H 0.37998 0.17512 0.83942 0.0
C560 C 0.34757 0.21812 0.75216 0.0
N561 N 0.35831 0.22539 0.77248 0.0
N562 N 0.37107 0.21657 0.7759 0.0
C563 C 0.36874 0.20323 0.75782 0.0
C564 C 0.3538 0.20384 0.74219 0.0
C565 C 0.33053 0.22362 0.74337 0.0
H566 H 0.3163 0.21688 0.75558 0.0
H567 H 0.32402 0.21634 0.7261 0.0
H568 H 0.33793 0.242 0.74253 0.0
O569 O 0.3871 0.27155 0.79852 0.0
O570 O 0.40852 0.25692 0.80588 0.0
H571 H 0.37875 0.18321 0.73783 0.0
H572 H 0.37498 0.17729 0.76848 0.0
C573 C 0.38106 0.19071 0.75529 0.0
H574 H 0.3991 0.20216 0.75834 0.0
H575 H 0.43554 0.23924 0.79004 0.0
O576 O 0.33777 0.25588 0.78504 0.0
C577 C 0.40603 0.2738 0.8033 0.0
Co578 Co 0.74305 0.11262 0.79208 0.0
Co579 Co 0.76671 0.16411 0.80017 0.0
C580 C 0.77067 0.13452 0.83461 0.0
O581 O 0.75794 0.11745 0.82249 0.0
O582 O 0.7763 0.15415 0.82782 0.0
C583 C 0.74227 0.07121 0.7835 0.0
O584 O 0.76341 0.08205 0.78946 0.0
C585 C 0.79381 0.21082 0.81537 0.0
C586 C 0.78788 0.22874 0.78708 0.0
C587 C 0.79902 0.23195 0.80787 0.0
N588 N 0.78055 0.19587 0.79948 0.0
N589 N 0.77692 0.20668 0.78273 0.0
C590 C 0.79913 0.20456 0.83832 0.0
H591 H 0.8116 0.19914 0.83585 0.0
H592 H 0.80567 0.21859 0.8508 0.0
H593 H 0.78383 0.19042 0.84577 0.0
C594 C 0.76901 0.12737 0.74858 0.0
N595 N 0.76269 0.13169 0.76906 0.0
N596 N 0.77361 0.15336 0.77276 0.0
C597 C 0.78796 0.16344 0.7551 0.0
C598 C 0.78543 0.14728 0.73917 0.0
C599 C 0.75835 0.10486 0.73738 0.0
H600 H 0.74045 0.09511 0.74208 0.0
H601 H 0.76685 0.09578 0.74335 0.0
H602 H 0.75979 0.10636 0.71826 0.0
O603 O 0.71743 0.11703 0.79538 0.0
O604 O 0.73411 0.15326 0.80292 0.0
H605 H 0.7975 0.19697 0.74606 0.0
H606 H 0.81971 0.1907 0.74398 0.0
C607 C 0.80497 0.18776 0.75431 0.0
H608 H 0.81044 0.19432 0.77205 0.0
H609 H 0.76674 0.19893 0.76843 0.0
O610 O 0.73111 0.08122 0.78359 0.0
C611 C 0.71648 0.13441 0.80035 0.0
Co612 Co 0.35737 0.11258 0.29463 0.0
Co613 Co 0.38815 0.16393 0.30245 0.0
C614 C 0.35413 0.13446 0.33759 0.0
O615 O 0.34761 0.1172 0.325 0.0
O616 O 0.36946 0.15361 0.33095 0.0
C617 C 0.3171 0.06965 0.28778 0.0
O618 O 0.30627 0.07793 0.29879 0.0
C619 C 0.40165 0.21125 0.31078 0.0
C620 C 0.43722 0.22769 0.30089 0.0
C621 C 0.42112 0.23191 0.30981 0.0
N622 N 0.40621 0.19565 0.3029 0.0
N623 N 0.42743 0.20566 0.29679 0.0
C624 C 0.3795 0.20616 0.32032 0.0
H625 H 0.36845 0.18804 0.32292 0.0
H626 H 0.37117 0.21181 0.30784 0.0
H627 H 0.38174 0.21517 0.33687 0.0
C628 C 0.3467 0.12862 0.25183 0.0
N629 N 0.35761 0.13242 0.27208 0.0
N630 N 0.37037 0.15406 0.27516 0.0
C631 C 0.36783 0.16476 0.25691 0.0
C632 C 0.35281 0.14896 0.24152 0.0
C633 C 0.32979 0.10593 0.24327 0.0
H634 H 0.31569 0.09837 0.25563 0.0
H635 H 0.32304 0.10646 0.22606 0.0
H636 H 0.33741 0.09515 0.24238 0.0
O637 O 0.38707 0.11603 0.29826 0.0
O638 O 0.40928 0.1523 0.3039 0.0
H639 H 0.39822 0.19618 0.25669 0.0
H640 H 0.37748 0.19446 0.23646 0.0
C641 C 0.38013 0.18956 0.25393 0.0
H642 H 0.37429 0.1971 0.26714 0.0
H643 H 0.4354 0.19734 0.29042 0.0
O644 O 0.338 0.08158 0.28472 0.0
C645 C 0.40631 0.13265 0.3021 0.0
Co646 Co 0.87492 0.24433 0.29438 0.0
Co647 Co 0.82352 0.22224 0.30245 0.0
C648 C 0.85278 0.2163 0.33622 0.0
O649 O 0.86995 0.22838 0.32396 0.0
O650 O 0.8334 0.21204 0.32989 0.0
C651 C 0.91638 0.24524 0.28492 0.0
O652 O 0.90606 0.22428 0.29159 0.0
C653 C 0.77652 0.19219 0.31519 0.0
C654 C 0.75926 0.20373 0.2915 0.0
C655 C 0.75558 0.18851 0.30889 0.0
N656 N 0.79183 0.20865 0.30187 0.0
N657 N 0.78141 0.2155 0.28781 0.0
C658 C 0.78228 0.18197 0.33493 0.0
H659 H 0.79418 0.19542 0.34655 0.0
H660 H 0.79061 0.17299 0.32816 0.0
H661 H 0.76748 0.17044 0.34528 0.0
C662 C 0.8594 0.21917 0.25047 0.0
N663 N 0.85546 0.22565 0.27104 0.0
N664 N 0.83381 0.21551 0.27467 0.0
C665 C 0.8233 0.20166 0.25675 0.0
C666 C 0.83922 0.20354 0.24085 0.0
C667 C 0.88193 0.22872 0.2395 0.0
H668 H 0.89224 0.24668 0.24378 0.0
H669 H 0.89034 0.21976 0.2461 0.0
H670 H 0.88057 0.22688 0.22041 0.0
O671 O 0.87122 0.2702 0.29959 0.0
O672 O 0.8349 0.25493 0.30573 0.0
H673 H 0.79021 0.19502 0.25008 0.0
H674 H 0.79459 0.17205 0.2433 0.0
C675 C 0.7987 0.18582 0.2557 0.0
H676 H 0.79237 0.17867 0.27307 0.0
H677 H 0.78947 0.22837 0.27579 0.0
O678 O 0.90609 0.25614 0.28516 0.0
C679 C 0.85429 0.27205 0.30428 0.0
Co680 Co 0.74263 0.62798 0.29308 0.0
Co681 Co 0.76199 0.59596 0.29944 0.0
C682 C 0.77027 0.63183 0.33401 0.0
O683 O 0.75982 0.6392 0.32213 0.0
O684 O 0.77194 0.61519 0.32732 0.0
C685 C 0.74005 0.66843 0.28652 0.0
O686 O 0.75962 0.67932 0.29666 0.0
C687 C 0.79374 0.58086 0.31043 0.0
C688 C 0.77818 0.548 0.29304 0.0
C689 C 0.79606 0.56227 0.3068 0.0
N690 N 0.7754 0.5777 0.29916 0.0
N691 N 0.76623 0.55809 0.28873 0.0
C692 C 0.80689 0.60008 0.32644 0.0
H693 H 0.81126 0.61594 0.31748 0.0
H694 H 0.82219 0.60067 0.33297 0.0
H695 H 0.79634 0.59851 0.34156 0.0
C696 C 0.768 0.63782 0.24928 0.0
N697 N 0.76063 0.62656 0.26932 0.0
N698 N 0.76921 0.61349 0.27205 0.0
C699 C 0.78259 0.61625 0.2539 0.0
C700 C 0.78217 0.6317 0.23883 0.0
C701 C 0.7631 0.65556 0.24146 0.0
H702 H 0.7448 0.64873 0.24109 0.0
H703 H 0.77049 0.66955 0.25398 0.0
H704 H 0.77012 0.66224 0.22415 0.0
O705 O 0.71604 0.5984 0.29852 0.0
O706 O 0.72952 0.57548 0.30229 0.0
H707 H 0.78366 0.58603 0.2512 0.0
H708 H 0.80505 0.60883 0.23474 0.0
C709 C 0.79542 0.60427 0.25112 0.0
H710 H 0.80695 0.60826 0.26598 0.0
H711 H 0.75153 0.55138 0.2791 0.0
O712 O 0.73084 0.64746 0.28372 0.0
C713 C 0.71315 0.57896 0.30189 0.0
Co714 Co 0.44837 0.02918 0.86979 0.0
Co715 Co 0.49862 0.06443 0.86242 0.0
C716 C 0.47303 0.02679 0.8289 0.0
O717 O 0.45533 0.01845 0.84106 0.0
O718 O 0.49066 0.04453 0.83503 0.0
C719 C 0.40654 0.9871 0.87706 0.0
O720 O 0.41573 0.97662 0.86707 0.0
C721 C 0.54572 0.08169 0.85254 0.0
C722 C 0.56075 0.11708 0.86282 0.0
C723 C 0.56573 0.10187 0.85281 0.0
N724 N 0.52975 0.08501 0.86154 0.0
N725 N 0.53882 0.10615 0.86778 0.0
C726 C 0.54166 0.0593 0.84489 0.0
H727 H 0.52732 0.04589 0.85447 0.0
H728 H 0.55668 0.05775 0.84776 0.0
H729 H 0.53747 0.05713 0.82619 0.0
C730 C 0.46604 0.02298 0.91397 0.0
N731 N 0.46885 0.0332 0.89344 0.0
N732 N 0.49012 0.04784 0.89049 0.0
C733 C 0.50159 0.0473 0.90912 0.0
C734 C 0.48667 0.03158 0.92465 0.0
C735 C 0.44422 0.00407 0.92217 0.0
H736 H 0.43178 0.00969 0.92327 0.0
H737 H 0.43812 0.9903 0.90941 0.0
H738 H 0.4456 -0.00248 0.93919 0.0
O739 O 0.4482 0.0572 0.86354 0.0
O740 O 0.48389 0.08238 0.85893 0.0
H741 H 0.53106 0.07946 0.90863 0.0
H742 H 0.53168 0.0605 0.92977 0.0
C743 C 0.52625 0.06185 0.91208 0.0
H744 H 0.53493 0.05692 0.89928 0.0
H745 H 0.52995 0.11321 0.87497 0.0
O746 O 0.4177 0.00814 0.87963 0.0
C747 C 0.46348 0.07712 0.85952 0.0
Co748 Co 0.95579 0.41436 0.87634 0.0
Co749 Co 0.9237 0.43267 0.86528 0.0
C750 C 0.95979 0.43887 0.83242 0.0
O751 O 0.96604 0.42847 0.84586 0.0
O752 O 0.94383 0.44218 0.83785 0.0
C753 C -0.00334 0.41296 0.88319 0.0
O754 O 0.00648 0.43087 0.87012 0.0
C755 C 0.90909 0.46453 0.85376 0.0
C756 C 0.87335 0.44555 0.863 0.0
C757 C 0.88952 0.46558 0.85351 0.0
N758 N 0.90448 0.44475 0.86267 0.0
N759 N 0.88313 0.4335 0.86822 0.0
C760 C 0.93209 0.48214 0.84686 0.0
H761 H 0.94474 0.47959 0.85601 0.0
H762 H 0.93481 0.49901 0.85084 0.0
H763 H 0.93423 0.48092 0.828 0.0
C764 C 0.96387 0.44166 0.91814 0.0
N765 N 0.95372 0.43378 0.89769 0.0
N766 N 0.94024 0.44161 0.89341 0.0
C767 C 0.94144 0.45486 0.91115 0.0
C768 C 0.95641 0.45522 0.92742 0.0
C769 C 0.98134 0.43719 0.9278 0.0
H770 H -0.00497 0.44256 0.91505 0.0
H771 H 0.9885 0.44625 0.94421 0.0
H772 H 0.97402 0.419 0.9307 0.0
O773 O 0.92685 0.38706 0.87239 0.0
O774 O 0.904 0.39975 0.86387 0.0
H775 H 0.92915 0.47341 0.93028 0.0
H776 H 0.93393 0.47973 0.89977 0.0
C777 C 0.92791 0.4662 0.91284 0.0
H778 H 0.91019 0.45408 0.90898 0.0
H779 H 0.87518 0.41748 0.8753 0.0
O780 O 0.97603 0.40425 0.88776 0.0
C781 C 0.90757 0.38361 0.86711 0.0
Co782 Co 0.57461 0.54387 0.87237 0.0
Co783 Co 0.55714 0.49382 0.86057 0.0
C784 C 0.54905 0.52317 0.82887 0.0
O785 O 0.55971 0.53994 0.84215 0.0
O786 O 0.54626 0.50404 0.83405 0.0
C787 C 0.57517 0.58571 0.88134 0.0
O788 O 0.55701 0.57796 0.86871 0.0
C789 C 0.52629 0.44703 0.84928 0.0
C790 C 0.54658 0.43141 0.85761 0.0
C791 C 0.52604 0.42679 0.84885 0.0
N792 N 0.54609 0.46272 0.85763 0.0
N793 N 0.55813 0.45331 0.86261 0.0
C794 C 0.50791 0.45154 0.84315 0.0
H795 H 0.51021 0.46665 0.85231 0.0
H796 H 0.49143 0.43707 0.8477 0.0
H797 H 0.50836 0.45465 0.82427 0.0
C798 C 0.54794 0.52362 0.9145 0.0
N799 N 0.55592 0.52188 0.89387 0.0
N800 N 0.54853 0.5007 0.88925 0.0
C801 C 0.53554 0.48822 0.90692 0.0
C802 C 0.5348 0.50237 0.92352 0.0
C803 C 0.55162 0.54519 0.92444 0.0
H804 H 0.54559 0.55314 0.91193 0.0
H805 H 0.54266 0.54286 0.94099 0.0
H806 H 0.56974 0.55661 0.92715 0.0
O807 O 0.60244 0.54325 0.86756 0.0
O808 O 0.58999 0.50796 0.85801 0.0
H809 H 0.51793 0.45705 0.9257 0.0
H810 H 0.51068 0.45585 0.89551 0.0
C811 C 0.52458 0.46334 0.90815 0.0
H812 H 0.53676 0.45804 0.90347 0.0
H813 H 0.57431 0.46189 0.86923 0.0
O814 O 0.58418 0.57383 0.8846 0.0
C815 C 0.60601 0.52769 0.86139 0.0
Co816 Co 0.62443 0.87677 0.70367 0.0
Co817 Co 0.59318 0.82576 0.69446 0.0
C818 C 0.6289 0.85541 0.66082 0.0
O819 O 0.6351 0.87255 0.67353 0.0
O820 O 0.61316 0.83626 0.66694 0.0
C821 C 0.66464 0.9196 0.71124 0.0
O822 O 0.67537 0.91185 0.69915 0.0
C823 C 0.57719 0.77923 0.68105 0.0
C824 C 0.54552 0.76143 0.70053 0.0
C825 C 0.55902 0.7582 0.68522 0.0
N826 N 0.57463 0.79415 0.69359 0.0
N827 N 0.55566 0.78342 0.70513 0.0
C828 C 0.59535 0.78565 0.66357 0.0
H829 H 0.61182 0.79545 0.67215 0.0
H830 H 0.5944 0.77111 0.65453 0.0
H831 H 0.5939 0.79647 0.65035 0.0
C832 C 0.63388 0.85931 0.74622 0.0
N833 N 0.62311 0.85623 0.72598 0.0
N834 N 0.61024 0.83471 0.72222 0.0
C835 C 0.61269 0.82336 0.73989 0.0
C836 C 0.62764 0.83861 0.75574 0.0
C837 C 0.65103 0.88166 0.75531 0.0
H838 H 0.64362 0.89259 0.75686 0.0
H839 H 0.66507 0.88946 0.74288 0.0
H840 H 0.65777 0.88051 0.77232 0.0
O841 O 0.59511 0.87401 0.69903 0.0
O842 O 0.57264 0.83798 0.69238 0.0
H843 H 0.58251 0.79212 0.74287 0.0
H844 H 0.60597 0.79272 0.75705 0.0
C845 C 0.60068 0.79846 0.74165 0.0
H846 H 0.60375 0.79138 0.72578 0.0
H847 H 0.54954 0.79117 0.71599 0.0
O848 O 0.64382 0.90741 0.71463 0.0
C849 C 0.57588 0.85769 0.69442 0.0
Co850 Co 0.10973 0.74651 0.69508 0.0
Co851 Co 0.16024 0.76201 0.68872 0.0
C852 C 0.13357 0.77103 0.65307 0.0
O853 O 0.11604 0.76278 0.66549 0.0
O854 O 0.15117 0.77115 0.65978 0.0
C855 C 0.0672 0.74555 0.70232 0.0
O856 O 0.07529 0.76439 0.69081 0.0
C857 C 0.20799 0.79415 0.68173 0.0
C858 C 0.223 0.77331 0.68997 0.0
C859 C 0.22822 0.79444 0.68259 0.0
N860 N 0.19171 0.77382 0.68831 0.0
N861 N 0.20083 0.76152 0.69337 0.0
C862 C 0.20387 0.8123 0.67346 0.0
H863 H 0.18598 0.80578 0.66989 0.0
H864 H 0.20895 0.8252 0.68711 0.0
H865 H 0.21385 0.82029 0.65769 0.0
C866 C 0.1269 0.77236 0.7384 0.0
N867 N 0.13004 0.76451 0.71829 0.0
N868 N 0.15138 0.77125 0.7158 0.0
C869 C 0.16252 0.78362 0.7344 0.0
C870 C 0.14735 0.7847 0.74932 0.0
C871 C 0.10489 0.76923 0.74619 0.0
H872 H 0.09844 0.77601 0.73281 0.0
H873 H 0.10617 0.7779 0.76271 0.0
H874 H 0.09282 0.75116 0.74819 0.0
O875 O 0.11063 0.71858 0.69046 0.0
O876 O 0.14653 0.72923 0.68798 0.0
H877 H 0.1917 0.799 0.75644 0.0
H878 H 0.19627 0.80777 0.72658 0.0
C879 C 0.18701 0.79333 0.73831 0.0
H880 H 0.19192 0.78072 0.73421 0.0
H881 H 0.19184 0.74489 0.69868 0.0
O882 O 0.07906 0.73647 0.70527 0.0
C883 C 0.12615 0.71394 0.68821 0.0
Co884 Co 0.24056 0.35904 0.6957 0.0
Co885 Co 0.22111 0.39053 0.68599 0.0
C886 C 0.21443 0.35465 0.6527 0.0
O887 O 0.22546 0.34864 0.66552 0.0
O888 O 0.21106 0.37047 0.65857 0.0
C889 C 0.24013 0.3177 0.70693 0.0
O890 O 0.21925 0.30695 0.70004 0.0
C891 C 0.19322 0.40965 0.67167 0.0
C892 C 0.2041 0.43753 0.69646 0.0
C893 C 0.18957 0.42687 0.67829 0.0
N894 N 0.20889 0.40991 0.68561 0.0
N895 N 0.21547 0.42674 0.70023 0.0
C896 C 0.18352 0.39438 0.65133 0.0
H897 H 0.17256 0.37706 0.65755 0.0
H898 H 0.17397 0.39938 0.63982 0.0
H899 H 0.19718 0.39468 0.64105 0.0
C900 C 0.21429 0.35074 0.73866 0.0
N901 N 0.22169 0.36092 0.71809 0.0
N902 N 0.21258 0.37327 0.7137 0.0
C903 C 0.19841 0.37067 0.73104 0.0
C904 C 0.19907 0.3563 0.74742 0.0
C905 C 0.22277 0.33718 0.75049 0.0
H906 H 0.24075 0.34417 0.74678 0.0
H907 H 0.21344 0.31976 0.74405 0.0
H908 H 0.22046 0.33697 0.7695 0.0
O909 O 0.26743 0.38801 0.69134 0.0
O910 O 0.2541 0.41061 0.68424 0.0
H911 H 0.19285 0.39791 0.73721 0.0
H912 H 0.16885 0.37091 0.74269 0.0
C913 C 0.18336 0.3804 0.73109 0.0
H914 H 0.17726 0.38027 0.71333 0.0
H915 H 0.22764 0.43075 0.7129 0.0
O916 O 0.25112 0.33888 0.7061 0.0
C917 C 0.27049 0.40727 0.68666 0.0
Co918 Co 0.54314 0.96647 0.12751 0.0
Co919 Co 0.49219 0.93277 0.13268 0.0
C920 C 0.51771 0.9688 0.16777 0.0
O921 O 0.53583 0.97683 0.15632 0.0
O922 O 0.49988 0.95179 0.16071 0.0
C923 C 0.58594 0.00789 0.12179 0.0
O924 O 0.57703 0.01865 0.13176 0.0
C925 C 0.445 0.91714 0.14041 0.0
C926 C 0.4293 0.88185 0.12956 0.0
C927 C 0.42459 0.89739 0.1392 0.0
N928 N 0.46087 0.91321 0.13225 0.0
N929 N 0.45139 0.89214 0.12567 0.0
C930 C 0.44964 0.93969 0.14817 0.0
H931 H 0.46488 0.95291 0.13957 0.0
H932 H 0.43532 0.94214 0.14419 0.0
H933 H 0.45262 0.94124 0.16712 0.0
C934 C 0.52776 0.97527 0.083 0.0
N935 N 0.52382 0.96424 0.1032 0.0
N936 N 0.50229 0.95024 0.10528 0.0
C937 C 0.49178 0.95196 0.08641 0.0
C938 C 0.5076 0.96786 0.07165 0.0
C939 C 0.5502 0.99383 0.07578 0.0
H940 H 0.56218 0.98761 0.07512 0.0
H941 H 0.55621 0.00733 0.08884 0.0
H942 H 0.54979 0.00096 0.05876 0.0
O943 O 0.54171 0.93751 0.13305 0.0
O944 O 0.50549 0.91356 0.13603 0.0
H945 H 0.46146 0.92049 0.0858 0.0
H946 H 0.46262 0.9402 0.06452 0.0
C947 C 0.46717 0.93833 0.08246 0.0
H948 H 0.45847 0.94367 0.09479 0.0
H949 H 0.46008 0.88468 0.11897 0.0
O950 O 0.57433 0.98693 0.11881 0.0
C951 C 0.52559 0.91777 0.13612 0.0
Co952 Co 0.02134 0.57568 0.1308 0.0
Co953 Co 0.05495 0.55808 0.13569 0.0
C954 C 0.01892 0.54738 0.17069 0.0
O955 O 0.011 0.55761 0.15933 0.0
O956 O 0.03596 0.54661 0.16368 0.0
C957 C 0.97942 0.57555 0.1245 0.0
O958 O 0.96907 0.5547 0.13153 0.0
C959 C 0.0727 0.52808 0.14484 0.0
C960 C 0.10456 0.54465 0.12556 0.0
C961 C 0.09145 0.5265 0.13958 0.0
N962 N 0.07457 0.5462 0.13415 0.0
N963 N 0.09365 0.55604 0.12271 0.0
C964 C 0.05447 0.51433 0.16167 0.0
H965 H 0.03804 0.50788 0.15308 0.0
H966 H 0.0559 0.50034 0.16904 0.0
H967 H 0.05525 0.52513 0.17623 0.0
C968 C 0.01303 0.55253 0.0857 0.0
N969 N 0.02368 0.55904 0.10615 0.0
N970 N 0.03722 0.55096 0.10838 0.0
C971 C 0.03524 0.53859 0.08955 0.0
C972 C 0.01994 0.5393 0.07452 0.0
C973 C -0.00457 0.55761 0.07784 0.0
H974 H 0.9804 0.54819 0.08875 0.0
H975 H 0.99053 0.55279 0.05959 0.0
H976 H 0.00152 0.57569 0.07991 0.0
O977 O 0.05023 0.60297 0.13639 0.0
O978 O 0.0742 0.59068 0.13927 0.0
H979 H 0.04305 0.51675 0.06974 0.0
H980 H 0.04523 0.51546 0.10089 0.0
C981 C 0.04799 0.52663 0.08595 0.0
H982 H 0.06605 0.53902 0.08511 0.0
H983 H 0.09934 0.57069 0.11314 0.0
O984 O 0.00056 0.58629 0.12309 0.0
C985 C 0.06995 0.60656 0.13941 0.0
Co986 Co 0.41028 0.44321 0.12527 0.0
Co987 Co 0.42679 0.49426 0.12846 0.0
C988 C 0.43835 0.4701 0.16448 0.0
O989 O 0.42875 0.4517 0.15348 0.0
O990 O 0.43827 0.48737 0.15699 0.0
C991 C 0.41007 0.40107 0.12046 0.0
O992 O 0.43071 0.41143 0.1281 0.0
C993 C 0.45787 0.54192 0.13571 0.0
C994 C 0.44023 0.55734 0.11873 0.0
C995 C 0.45935 0.56232 0.13102 0.0
N996 N 0.43885 0.52571 0.12638 0.0
N997 N 0.42841 0.53502 0.11623 0.0
C998 C 0.47266 0.53735 0.15092 0.0
H999 H 0.4635 0.52926 0.16706 0.0
H1000 H 0.47665 0.52553 0.1421 0.0
H1001 H 0.48822 0.55264 0.15586 0.0
C1002 C 0.43362 0.45733 0.08011 0.0
N1003 N 0.42659 0.46169 0.10013 0.0
N1004 N 0.43413 0.48328 0.10167 0.0
C1005 C 0.44651 0.4934 0.08277 0.0
C1006 C 0.44653 0.47728 0.06847 0.0
C1007 C 0.42954 0.43471 0.0733 0.0
H1008 H 0.4387 0.42968 0.08534 0.0
H1009 H 0.43529 0.43445 0.05549 0.0
H1010 H 0.41149 0.42239 0.07468 0.0
O1011 O 0.38297 0.44478 0.13131 0.0
O1012 O 0.39417 0.4809 0.13168 0.0
H1013 H 0.46644 0.52257 0.06147 0.0
H1014 H 0.47024 0.52687 0.09242 0.0
C1015 C 0.4579 0.51801 0.07848 0.0
H1016 H 0.44539 0.52354 0.07898 0.0
H1017 H 0.41302 0.52609 0.10791 0.0
O1018 O 0.39959 0.41166 0.11817 0.0
C1019 C 0.37876 0.46062 0.13317 0.0
Co1020 Co 0.02011 0.43915 0.62717 0.0
Co1021 Co 0.05072 0.49055 0.63545 0.0
C1022 C 0.01651 0.46127 0.67017 0.0
O1023 O 0.01052 0.44399 0.65773 0.0
O1024 O 0.03169 0.48052 0.66358 0.0
C1025 C 0.97953 0.39645 0.61875 0.0
O1026 O 0.96818 0.40552 0.62686 0.0
C1027 C 0.06761 0.53766 0.64818 0.0
C1028 C 0.09694 0.55483 0.62518 0.0
C1029 C 0.08504 0.5586 0.64209 0.0
N1030 N 0.06904 0.52229 0.63521 0.0
N1031 N 0.08664 0.53267 0.62158 0.0
C1032 C 0.05112 0.53195 0.66738 0.0
H1033 H 0.05263 0.52038 0.67953 0.0
H1034 H 0.03397 0.5232 0.66014 0.0
H1035 H 0.05386 0.54682 0.67726 0.0
C1036 C 0.00908 0.45558 0.5847 0.0
N1037 N 0.02017 0.45907 0.6048 0.0
N1038 N 0.03257 0.48069 0.60839 0.0
C1039 C 0.02933 0.49164 0.59087 0.0
C1040 C 0.01434 0.47606 0.5753 0.0
C1041 C -0.00517 0.4331 0.57399 0.0
H1042 H 0.00245 0.42251 0.57679 0.0
H1043 H 0.97813 0.42496 0.58223 0.0
H1044 H -0.00723 0.43443 0.55513 0.0
O1045 O 0.04983 0.44264 0.63018 0.0
O1046 O 0.07181 0.47882 0.63653 0.0
H1047 H 0.05708 0.52412 0.58455 0.0
H1048 H 0.03046 0.52131 0.57715 0.0
C1049 C 0.03933 0.51644 0.58978 0.0
H1050 H 0.0386 0.52295 0.60708 0.0
H1051 H 0.09167 0.52457 0.60986 0.0
O1052 O 0.00067 0.40791 0.6177 0.0
C1053 C 0.06902 0.45929 0.63409 0.0
Co1054 Co 0.54228 0.57689 0.62277 0.0
Co1055 Co 0.49144 0.55814 0.63261 0.0
C1056 C 0.52139 0.55285 0.66665 0.0
O1057 O 0.53836 0.56327 0.65358 0.0
O1058 O 0.50215 0.54929 0.66059 0.0
C1059 C 0.58774 0.58446 0.61908 0.0
O1060 O 0.58483 0.57476 0.63932 0.0
C1061 C 0.44437 0.52851 0.64552 0.0
C1062 C 0.42791 0.54383 0.62605 0.0
C1063 C 0.42372 0.52649 0.64094 0.0
N1064 N 0.45995 0.54607 0.63357 0.0
N1065 N 0.45002 0.55521 0.62209 0.0
C1066 C 0.44979 0.51564 0.6626 0.0
H1067 H 0.46215 0.52744 0.67516 0.0
H1068 H 0.45751 0.5071 0.65343 0.0
H1069 H 0.43499 0.50335 0.67245 0.0
C1070 C 0.52381 0.54815 0.58184 0.0
N1071 N 0.52108 0.55671 0.60162 0.0
N1072 N 0.49969 0.54887 0.60525 0.0
C1073 C 0.48805 0.53506 0.58769 0.0
C1074 C 0.50303 0.53431 0.5722 0.0
C1075 C 0.54591 0.55218 0.57315 0.0
H1076 H 0.55518 0.54984 0.58749 0.0
H1077 H 0.54406 0.54065 0.55891 0.0
H1078 H 0.5558 0.56965 0.56694 0.0
O1079 O 0.54022 0.60406 0.6261 0.0
O1080 O 0.50435 0.59093 0.63325 0.0
H1081 H 0.45716 0.51328 0.5696 0.0
H1082 H 0.45535 0.51314 0.60087 0.0
C1083 C 0.46322 0.52369 0.58541 0.0
H1084 H 0.45806 0.53647 0.58468 0.0
H1085 H 0.45838 0.56928 0.61158 0.0
O1086 O 0.57222 0.58679 0.6103 0.0
C1087 C 0.52403 0.60724 0.63053 0.0
Co1088 Co 0.41237 0.96452 0.62954 0.0
Co1089 Co 0.42958 0.9306 0.63423 0.0
C1090 C 0.44015 0.96652 0.66956 0.0
O1091 O 0.43042 0.97489 0.65807 0.0
O1092 O 0.44054 0.94928 0.66255 0.0
C1093 C 0.41316 0.00656 0.62192 0.0
O1094 O 0.4345 0.01671 0.62703 0.0
C1095 C 0.45772 0.91124 0.64574 0.0
C1096 C 0.44518 0.8828 0.62145 0.0
C1097 C 0.46064 0.89365 0.63885 0.0
N1098 N 0.44152 0.91101 0.63272 0.0
N1099 N 0.43401 0.8939 0.61833 0.0
C1100 C 0.46838 0.92666 0.66582 0.0
H1101 H 0.47748 0.94416 0.65955 0.0
H1102 H 0.47987 0.92293 0.67563 0.0
H1103 H 0.45517 0.92493 0.67788 0.0
C1104 C 0.4361 0.97325 0.58464 0.0
N1105 N 0.42916 0.96229 0.6049 0.0
N1106 N 0.43741 0.94889 0.60727 0.0
C1107 C 0.45041 0.95141 0.58882 0.0
C1108 C 0.44999 0.96693 0.57387 0.0
C1109 C 0.42866 0.9886 0.57515 0.0
H1110 H 0.411 0.98246 0.5798 0.0
H1111 H 0.43915 0.00548 0.5826 0.0
H1112 H 0.43031 0.98985 0.55604 0.0
O1113 O 0.38512 0.93568 0.63541 0.0
O1114 O 0.39686 0.91121 0.63687 0.0
H1115 H 0.45353 0.92304 0.58046 0.0
H1116 H 0.47799 0.94939 0.57379 0.0
C1117 C 0.46428 0.94047 0.58644 0.0
H1118 H 0.47153 0.94012 0.60342 0.0
H1119 H 0.42119 0.88977 0.60642 0.0
O1120 O 0.4018 0.98539 0.62201 0.0
C1121 C 0.3812 0.91576 0.63767 0.0
Co1122 Co 0.10587 0.35881 0.19578 0.0
Co1123 Co 0.15717 0.39026 0.18829 0.0
C1124 C 0.12834 0.35576 0.15317 0.0
O1125 O 0.111 0.349 0.16567 0.0
O1126 O 0.14729 0.3715 0.15979 0.0
C1127 C 0.06391 0.31782 0.20412 0.0
O1128 O 0.07333 0.307 0.19545 0.0
C1129 C 0.20488 0.40488 0.18027 0.0
C1130 C 0.22071 0.43991 0.19207 0.0
C1131 C 0.22539 0.42437 0.18245 0.0
N1132 N 0.1889 0.40882 0.18829 0.0
N1133 N 0.19855 0.42973 0.19546 0.0
C1134 C 0.2004 0.3833 0.1696 0.0
H1135 H 0.18252 0.37245 0.16569 0.0
H1136 H 0.20525 0.37419 0.18194 0.0
H1137 H 0.21041 0.3865 0.15359 0.0
C1138 C 0.12199 0.34851 0.23884 0.0
N1139 N 0.12568 0.35949 0.21864 0.0
N1140 N 0.1473 0.37235 0.21556 0.0
C1141 C 0.15808 0.36974 0.2337 0.0
C1142 C 0.14234 0.35439 0.24893 0.0
C1143 C 0.09939 0.33371 0.24904 0.0
H1144 H 0.0886 0.3411 0.24623 0.0
H1145 H 0.09169 0.31717 0.24047 0.0
H1146 H 0.1004 0.33133 0.26789 0.0
O1147 O 0.10879 0.38825 0.1918 0.0
O1148 O 0.14502 0.41101 0.1867 0.0
H1149 H 0.19004 0.39931 0.23582 0.0
H1150 H 0.18816 0.37582 0.25163 0.0
C1151 C 0.18291 0.38095 0.23576 0.0
H1152 H 0.18966 0.3766 0.22051 0.0
H1153 H 0.18991 0.43723 0.20222 0.0
O1154 O 0.07486 0.33898 0.20524 0.0
C1155 C 0.12522 0.40765 0.18815 0.0
Co1156 Co 0.62315 0.74321 0.19921 0.0
Co1157 Co 0.59206 0.76286 0.18889 0.0
C1158 C 0.63059 0.77221 0.15804 0.0
O1159 O 0.636 0.7606 0.17072 0.0
O1160 O 0.6141 0.77479 0.16313 0.0
C1161 C 0.66343 0.74148 0.20953 0.0
O1162 O 0.67457 0.76121 0.19975 0.0
C1163 C 0.57844 0.79605 0.1801 0.0
C1164 C 0.5422 0.77641 0.18684 0.0
C1165 C 0.55897 0.7973 0.17981 0.0
N1166 N 0.5732 0.77539 0.18676 0.0
N1167 N 0.55155 0.76374 0.19079 0.0
C1168 C 0.60184 0.81416 0.1754 0.0
H1169 H 0.61389 0.81039 0.18408 0.0
H1170 H 0.60446 0.8305 0.18152 0.0
H1171 H 0.60502 0.81515 0.15651 0.0
C1172 C 0.62838 0.76668 0.24358 0.0
N1173 N 0.6194 0.7604 0.22234 0.0
N1174 N 0.60646 0.76889 0.21817 0.0
C1175 C 0.60688 0.78096 0.23669 0.0
C1176 C 0.62076 0.77992 0.25339 0.0
C1177 C 0.64542 0.76161 0.25331 0.0
H1178 H 0.63864 0.7433 0.2533 0.0
H1179 H 0.66044 0.76941 0.24216 0.0
H1180 H 0.65054 0.7681 0.2711 0.0
O1181 O 0.59459 0.7166 0.19121 0.0
O1182 O 0.57233 0.73033 0.18413 0.0
H1183 H 0.57654 0.78181 0.23286 0.0
H1184 H 0.59396 0.79859 0.25648 0.0
C1185 C 0.59398 0.79296 0.23851 0.0
H1186 H 0.60155 0.80771 0.22693 0.0
H1187 H 0.54313 0.74709 0.19606 0.0
O1188 O 0.6423 0.73177 0.21073 0.0
C1189 C 0.57568 0.71388 0.18541 0.0
Co1190 Co 0.24227 0.88003 0.19818 0.0
Co1191 Co 0.22216 0.82908 0.18949 0.0
C1192 C 0.21559 0.85784 0.15561 0.0
O1193 O 0.2271 0.87508 0.16803 0.0
O1194 O 0.21171 0.83859 0.162 0.0
C1195 C 0.24386 0.92242 0.20628 0.0
O1196 O 0.22404 0.91365 0.19666 0.0
C1197 C 0.18948 0.78203 0.18129 0.0
C1198 C 0.2088 0.76575 0.19113 0.0
C1199 C 0.1883 0.76135 0.18248 0.0
N1200 N 0.20974 0.79769 0.18868 0.0
N1201 N 0.22119 0.78787 0.19457 0.0
C1202 C 0.17163 0.78711 0.1745 0.0
H1203 H 0.17491 0.80313 0.18231 0.0
H1204 H 0.15501 0.77352 0.1801 0.0
H1205 H 0.17164 0.78882 0.15541 0.0
C1206 C 0.21642 0.86319 0.2416 0.0
N1207 N 0.22339 0.85985 0.22103 0.0
N1208 N 0.21479 0.83829 0.21758 0.0
C1209 C 0.20191 0.82718 0.2359 0.0
C1210 C 0.20257 0.84262 0.25173 0.0
C1211 C 0.22179 0.88565 0.25054 0.0
H1212 H 0.21441 0.89285 0.23876 0.0
H1213 H 0.21504 0.88485 0.26809 0.0
H1214 H 0.24014 0.8969 0.25076 0.0
O1215 O 0.26911 0.87754 0.19393 0.0
O1216 O 0.25481 0.84154 0.18648 0.0
H1217 H 0.18329 0.79718 0.25633 0.0
H1218 H 0.17572 0.79482 0.22613 0.0
C1219 C 0.18983 0.80234 0.23853 0.0
H1220 H 0.20125 0.79594 0.23443 0.0
H1221 H 0.23754 0.79632 0.20076 0.0
O1222 O 0.25343 0.91092 0.20818 0.0
C1223 C 0.27155 0.86103 0.18883 0.0
H1224 H 0.33384 0.23677 0.86341 0.0
H1225 H 0.29431 0.15453 0.9694 0.0
H1226 H 0.35147 0.18509 0.86567 0.0
H1227 H 0.31922 0.22523 0.97685 0.0
H1228 H 0.30903 0.16128 0.92965 0.0
H1229 H 0.32073 0.22803 0.90322 0.0
C1230 C 0.33472 0.22339 0.87218 0.0
C1231 C 0.34382 0.21166 0.86123 0.0
C1232 C 0.3114 0.17523 0.9402 0.0
C1233 C 0.32877 0.20161 0.90679 0.0
C1234 C 0.30303 0.17143 0.96279 0.0
C1235 C 0.30548 0.18934 0.97643 0.0
C1236 C 0.32168 0.19695 0.93116 0.0
C1237 C 0.31695 0.21092 0.96703 0.0
C1238 C 0.32741 0.21856 0.89495 0.0
C1239 C 0.34466 0.19458 0.87356 0.0
N1240 N 0.32431 0.21406 0.94488 0.0
N1241 N 0.33709 0.18994 0.89575 0.0
H1242 H 0.76038 0.08864 0.97369 0.0
H1243 H 0.8048 0.16498 0.86216 0.0
H1244 H 0.83051 0.13675 0.96671 0.0
H1245 H 0.75099 0.09659 0.86048 0.0
H1246 H 0.81282 0.1593 0.90225 0.0
H1247 H 0.75443 0.09648 0.93405 0.0
C1248 C 0.77451 0.10105 0.96392 0.0
C1249 C 0.79602 0.11198 0.9735 0.0
C1250 C 0.79939 0.14558 0.89293 0.0
C1251 C 0.78923 0.12099 0.92809 0.0
C1252 C 0.79478 0.14878 0.87014 0.0
C1253 C 0.77721 0.13122 0.85796 0.0
C1254 C 0.78595 0.12489 0.90366 0.0
C1255 C 0.76476 0.11057 0.86913 0.0
C1256 C 0.7711 0.10538 0.94124 0.0
C1257 C 0.81369 0.12785 0.95992 0.0
N1258 N 0.76921 0.10806 0.89141 0.0
N1259 N 0.80991 0.13196 0.93784 0.0
H1260 H 0.89477 0.65782 0.86239 0.0
H1261 H 0.85278 0.69537 0.97056 0.0
H1262 H 0.82571 0.64089 0.86522 0.0
H1263 H 0.89763 0.66919 0.97637 0.0
H1264 H 0.84487 0.68193 0.93033 0.0
H1265 H 0.8993 0.67009 0.90254 0.0
C1266 C 0.88061 0.65695 0.87135 0.0
C1267 C 0.85979 0.64825 0.86046 0.0
C1268 C 0.85624 0.679 0.94063 0.0
C1269 C 0.86497 0.66232 0.90641 0.0
C1270 C 0.86077 0.68664 0.96348 0.0
C1271 C 0.87593 0.68343 0.9768 0.0
C1272 C 0.86743 0.66872 0.93101 0.0
C1273 C 0.8858 0.67199 0.96681 0.0
C1274 C 0.88319 0.66377 0.89431 0.0
C1275 C 0.84201 0.6474 0.87304 0.0
N1276 N 0.88164 0.66536 0.94441 0.0
N1277 N 0.84501 0.65446 0.89543 0.0
H1278 H 0.22329 0.31841 0.51403 0.0
H1279 H 0.18114 0.35259 0.62489 0.0
H1280 H 0.15289 0.29482 0.52156 0.0
H1281 H 0.23202 0.33391 0.62765 0.0
H1282 H 0.17234 0.33813 0.58505 0.0
H1283 H 0.22924 0.33221 0.55367 0.0
C1284 C 0.20909 0.31636 0.52392 0.0
C1285 C 0.18752 0.30535 0.5145 0.0
C1286 C 0.18528 0.33711 0.59457 0.0
C1287 C 0.19434 0.32123 0.55986 0.0
C1288 C 0.19035 0.34536 0.61719 0.0
C1289 C 0.20735 0.34445 0.62956 0.0
C1290 C 0.19775 0.32855 0.58421 0.0
C1291 C 0.21872 0.33487 0.61882 0.0
C1292 C 0.21251 0.32409 0.54658 0.0
C1293 C 0.16976 0.30309 0.52824 0.0
N1294 N 0.21392 0.32757 0.59666 0.0
N1295 N 0.17356 0.31108 0.5503 0.0
H1296 H 0.63061 0.82404 0.633 0.0
H1297 H 0.663 0.90035 0.52145 0.0
H1298 H 0.64869 0.89346 0.6352 0.0
H1299 H 0.6805 0.84872 0.52665 0.0
H1300 H 0.65079 0.89364 0.56167 0.0
H1301 H 0.6433 0.82905 0.5926 0.0
C1302 C 0.63733 0.84031 0.62505 0.0
C1303 C 0.63852 0.85834 0.63743 0.0
C1304 C 0.65727 0.88376 0.55397 0.0
C1305 C 0.65256 0.86398 0.59141 0.0
C1306 C 0.66406 0.88742 0.53097 0.0
C1307 C 0.67292 0.87516 0.52072 0.0
C1308 C 0.65896 0.86745 0.56677 0.0
C1309 C 0.67398 0.85869 0.53398 0.0
C1310 C 0.64458 0.84314 0.60209 0.0
C1311 C 0.64754 0.87912 0.62636 0.0
N1312 N 0.667 0.85523 0.55638 0.0
N1313 N 0.65394 0.88129 0.6039 0.0
H1314 H 0.11066 0.83044 0.53186 0.0
H1315 H 0.15625 0.77061 0.61464 0.0
H1316 H 0.11753 0.77505 0.50801 0.0
H1317 H 0.10927 0.78997 0.63843 0.0
H1318 H 0.15221 0.78118 0.57512 0.0
H1319 H 0.12046 0.8247 0.571 0.0
C1320 C 0.11458 0.81731 0.53477 0.0
C1321 C 0.11315 0.80308 0.51672 0.0
C1322 C 0.14301 0.78328 0.5891 0.0
C1323 C 0.12461 0.79674 0.56123 0.0
C1324 C 0.14536 0.7774 0.61159 0.0
C1325 C 0.13297 0.77934 0.62973 0.0
C1326 C 0.12864 0.7917 0.58493 0.0
C1327 C 0.11899 0.78809 0.62486 0.0
C1328 C 0.12004 0.81401 0.55709 0.0
C1329 C 0.11829 0.78626 0.5215 0.0
N1330 N 0.11726 0.79405 0.6029 0.0
N1331 N 0.12386 0.78357 0.54334 0.0
H1332 H 0.67148 0.76472 0.02203 0.0
H1333 H 0.63048 0.80396 0.12931 0.0
H1334 H 0.68956 0.83409 0.02633 0.0
H1335 H 0.65627 0.75878 0.13534 0.0
H1336 H 0.64586 0.81336 0.08986 0.0
H1337 H 0.658 0.75937 0.06173 0.0
C1338 C 0.67238 0.7788 0.03122 0.0
C1339 C 0.68173 0.79993 0.02087 0.0
C1340 C 0.64829 0.80161 0.10006 0.0
C1341 C 0.66624 0.79379 0.06633 0.0
C1342 C 0.63955 0.79623 0.12248 0.0
C1343 C 0.64202 0.78048 0.1356 0.0
C1344 C 0.65896 0.79071 0.09067 0.0
C1345 C 0.65395 0.77099 0.12592 0.0
C1346 C 0.66485 0.77574 0.05393 0.0
C1347 C 0.68256 0.81756 0.03374 0.0
N1348 N 0.66165 0.77598 0.10392 0.0
N1349 N 0.67477 0.81409 0.05587 0.0
H1350 H 0.22766 0.90275 0.01633 0.0
H1351 H 0.18318 0.82624 0.12729 0.0
H1352 H 0.15755 0.85402 0.02173 0.0
H1353 H 0.23331 0.89607 0.13032 0.0
H1354 H 0.17553 0.83149 0.08686 0.0
H1355 H 0.23275 0.8951 0.05637 0.0
C1356 C 0.21337 0.89022 0.02582 0.0
C1357 C 0.19211 0.87908 0.0157 0.0
C1358 C 0.18804 0.8456 0.09657 0.0
C1359 C 0.19793 0.87028 0.06151 0.0
C1360 C 0.19242 0.84266 0.11955 0.0
C1361 C 0.20889 0.86076 0.13218 0.0
C1362 C 0.20067 0.8666 0.08614 0.0
C1363 C 0.22039 0.88167 0.12132 0.0
C1364 C 0.21628 0.88602 0.04872 0.0
C1365 C 0.1742 0.86307 0.02894 0.0
N1366 N 0.21627 0.88394 0.09885 0.0
N1367 N 0.17751 0.85907 0.05124 0.0
H1368 H 0.08273 0.31878 0.01447 0.0
H1369 H 0.16068 0.35656 0.1248 0.0
H1370 H 0.13432 0.30128 0.02046 0.0
H1371 H 0.09028 0.33434 0.1278 0.0
H1372 H 0.15579 0.34327 0.08453 0.0
H1373 H 0.09051 0.33292 0.05397 0.0
C1374 C 0.0959 0.31815 0.02397 0.0
C1375 C 0.1078 0.30868 0.01418 0.0
C1376 C 0.14149 0.34125 0.09419 0.0
C1377 C 0.11674 0.3249 0.05941 0.0
C1378 C 0.14424 0.34881 0.11706 0.0
C1379 C 0.12584 0.34651 0.12965 0.0
C1380 C 0.12038 0.33196 0.08383 0.0
C1381 C 0.1049 0.33635 0.11882 0.0
C1382 C 0.10019 0.32608 0.04656 0.0
C1383 C 0.12464 0.30829 0.02742 0.0
N1384 N 0.1028 0.3297 0.09647 0.0
N1385 N 0.12868 0.31634 0.04944 0.0
H1386 H 0.77807 0.64824 0.48026 0.0
H1387 H 0.7846 0.67455 0.34838 0.0
H1388 H 0.82534 0.71397 0.45508 0.0
H1389 H 0.77581 0.61137 0.37166 0.0
H1390 H 0.79627 0.68945 0.3876 0.0
H1391 H 0.77347 0.63389 0.44066 0.0
C1392 C 0.78761 0.65958 0.46642 0.0
C1393 C 0.80206 0.6823 0.47087 0.0
C1394 C 0.79204 0.67242 0.38397 0.0
C1395 C 0.79651 0.66616 0.42574 0.0
C1396 C 0.78531 0.66391 0.3617 0.0
C1397 C 0.77923 0.64172 0.35685 0.0
C1398 C 0.79204 0.65843 0.40154 0.0
C1399 C 0.78047 0.6286 0.37468 0.0
C1400 C 0.78505 0.65139 0.44392 0.0
C1401 C 0.81409 0.69631 0.45236 0.0
N1402 N 0.78638 0.63705 0.39639 0.0
N1403 N 0.81074 0.68809 0.43048 0.0
H1404 H 0.32153 0.08945 0.47726 0.0
H1405 H 0.35329 0.16597 0.36594 0.0
H1406 H 0.29876 0.13703 0.47053 0.0
H1407 H 0.33538 0.09659 0.3634 0.0
H1408 H 0.34079 0.16076 0.40652 0.0
H1409 H 0.33562 0.09785 0.43769 0.0
C1410 C 0.31977 0.1019 0.46759 0.0
C1411 C 0.3088 0.11244 0.47713 0.0
C1412 C 0.33956 0.14675 0.3969 0.0
C1413 C 0.32495 0.1221 0.43194 0.0
C1414 C 0.34664 0.14967 0.37386 0.0
C1415 C 0.34527 0.13165 0.36131 0.0
C1416 C 0.33171 0.12588 0.40745 0.0
C1417 C 0.33658 0.11089 0.37236 0.0
C1418 C 0.32767 0.10654 0.44498 0.0
C1419 C 0.30696 0.12841 0.46373 0.0
N1420 N 0.33037 0.10865 0.39487 0.0
N1421 N 0.31499 0.1328 0.44173 0.0
H1422 H 0.90048 0.22257 0.47376 0.0
H1423 H 0.82167 0.18258 0.36379 0.0
H1424 H 0.84992 0.15323 0.46642 0.0
H1425 H 0.89103 0.23402 0.36139 0.0
H1426 H 0.82743 0.1735 0.40347 0.0
H1427 H 0.89219 0.22961 0.43474 0.0
C1428 C 0.88745 0.20884 0.46406 0.0
C1429 C 0.87598 0.18722 0.47333 0.0
C1430 C 0.84132 0.18665 0.39407 0.0
C1431 C 0.86644 0.19526 0.42862 0.0
C1432 C 0.83807 0.19186 0.37153 0.0
C1433 C 0.8559 0.20908 0.35929 0.0
C1434 C 0.86235 0.19915 0.40447 0.0
C1435 C 0.87683 0.22055 0.3701 0.0
C1436 C 0.88286 0.21287 0.44172 0.0
C1437 C 0.85929 0.1701 0.45985 0.0
N1438 N 0.8794 0.21554 0.39214 0.0
N1439 N 0.85495 0.17449 0.4381 0.0
H1440 H 0.00312 0.54167 0.31651 0.0
H1441 H 0.97588 0.53089 0.18492 0.0
H1442 H 0.93773 0.49259 0.2922 0.0
H1443 H 0.04015 0.54281 0.20828 0.0
H1444 H 0.96132 0.51928 0.22421 0.0
H1445 H 0.01745 0.54519 0.27701 0.0
C1446 C -0.00814 0.5315 0.3029 0.0
C1447 C 0.96922 0.51688 0.30754 0.0
C1448 C 0.97851 0.52413 0.22059 0.0
C1449 C 0.98534 0.52114 0.26253 0.0
C1450 C 0.98683 0.53082 0.19827 0.0
C1451 C 0.00923 0.53785 0.19344 0.0
C1452 C -0.00711 0.52513 0.23826 0.0
C1453 C 0.02274 0.53742 0.21131 0.0
C1454 C 5e-05 0.53343 0.28046 0.0
C1455 C 0.95532 0.504 0.28933 0.0
N1456 N 0.01447 0.53158 0.23309 0.0
N1457 N 0.96351 0.50674 0.26749 0.0
H1458 H 0.45595 0.44482 0.17981 0.0
H1459 H 0.44354 0.463 0.31037 0.0
H1460 H 0.44242 0.49664 0.20122 0.0
H1461 H 0.49338 0.44704 0.28785 0.0
H1462 H 0.4406 0.47353 0.27059 0.0
H1463 H 0.46778 0.44312 0.21937 0.0
C1464 C 0.45572 0.456 0.19279 0.0
C1465 C 0.44812 0.47081 0.18734 0.0
C1466 C 0.45242 0.46805 0.27449 0.0
C1467 C 0.46113 0.46862 0.23247 0.0
C1468 C 0.45403 0.46196 0.2971 0.0
C1469 C 0.46863 0.45403 0.30233 0.0
C1470 C 0.46502 0.46557 0.25695 0.0
C1471 C 0.48193 0.45309 0.28453 0.0
C1472 C 0.46255 0.45509 0.21527 0.0
C1473 C 0.44821 0.48501 0.20474 0.0
N1474 N 0.47949 0.45837 0.2625 0.0
N1475 N 0.45419 0.48326 0.22669 0.0
H1476 H 0.5448 0.01155 0.18279 0.0
H1477 H 0.52656 0.98261 0.31398 0.0
H1478 H 0.49139 0.94732 0.20494 0.0
H1479 H 0.54327 0.04838 0.29053 0.0
H1480 H 0.51631 0.96885 0.2742 0.0
H1481 H 0.54756 0.02558 0.22232 0.0
C1482 C 0.53353 0.00049 0.19593 0.0
C1483 C 0.5179 0.97825 0.19068 0.0
C1484 C 0.52192 0.98621 0.2779 0.0
C1485 C 0.52131 0.99398 0.23576 0.0
C1486 C 0.52783 0.99407 0.30049 0.0
C1487 C 0.53575 0.01663 0.30547 0.0
C1488 C 0.52461 0.0012 0.26015 0.0
C1489 C 0.5371 0.03083 0.28741 0.0
C1490 C 0.53505 0.00851 0.21838 0.0
C1491 C 0.50364 0.96461 0.20829 0.0
N1492 N 0.53197 0.02296 0.26542 0.0
N1493 N 0.50596 0.97257 0.2302 0.0
H1494 H 0.4583 0.00985 0.68357 0.0
H1495 H 0.44648 0.98345 0.81534 0.0
H1496 H 0.44312 0.94465 0.70746 0.0
H1497 H 0.49772 0.04772 0.7906 0.0
H1498 H 0.44238 0.96858 0.77603 0.0
H1499 H 0.47043 0.02442 0.7228 0.0
C1500 C 0.45775 -0.00131 0.69703 0.0
C1501 C 0.4497 0.97604 0.69235 0.0
C1502 C 0.45474 0.98584 0.77935 0.0
C1503 C 0.46304 0.99242 0.73709 0.0
C1504 C 0.45703 0.99434 0.80169 0.0
C1505 C 0.47238 0.01685 0.80615 0.0
C1506 C 0.46743 0.00013 0.76131 0.0
C1507 C 0.4857 0.03025 0.78788 0.0
C1508 C 0.46475 0.00701 0.71931 0.0
C1509 C 0.44935 0.96225 0.71035 0.0
N1510 N 0.48262 0.02179 0.76611 0.0
N1511 N 0.45553 0.97057 0.73208 0.0
H1512 H -0.00233 0.42368 0.69649 0.0
H1513 H 0.95884 0.46877 0.80159 0.0
H1514 H 0.01375 0.49255 0.69715 0.0
H1515 H 0.98295 0.42241 0.80991 0.0
H1516 H 0.97263 0.47539 0.76147 0.0
H1517 H 0.98454 0.41977 0.7363 0.0
C1518 C -0.00178 0.43793 0.70492 0.0
C1519 C 0.00692 0.45851 0.69355 0.0
C1520 C 0.97499 0.46394 0.77227 0.0
C1521 C -0.00815 0.45407 0.73904 0.0
C1522 C 0.96715 0.46014 0.79507 0.0
C1523 C 0.96974 0.445 0.80909 0.0
C1524 C 0.98488 0.45206 0.76343 0.0
C1525 C 0.98064 0.43427 0.7998 0.0
C1526 C 0.99089 0.43571 0.72768 0.0
C1527 C 0.00734 0.47645 0.70541 0.0
N1528 N 0.98754 0.43779 0.77748 0.0
N1529 N -0.00021 0.4738 0.72757 0.0
H1530 H 0.51774 0.49182 0.79958 0.0
H1531 H 0.55969 0.57215 0.69176 0.0
H1532 H 0.56463 0.56239 0.80559 0.0
H1533 H 0.49064 0.52013 0.69531 0.0
H1534 H 0.56466 0.56441 0.73181 0.0
H1535 H 0.50959 0.49805 0.75971 0.0
C1536 C 0.52615 0.5086 0.79261 0.0
C1537 C 0.54192 0.52662 0.80589 0.0
C1538 C 0.54844 0.55467 0.72378 0.0
C1539 C 0.53311 0.53362 0.76047 0.0
C1540 C 0.54561 0.55892 0.70088 0.0
C1541 C 0.52468 0.5468 0.69022 0.0
C1542 C 0.53035 0.53788 0.73602 0.0
C1543 C 0.507 0.52995 0.70298 0.0
C1544 C 0.52148 0.5121 0.76995 0.0
C1545 C 0.55232 0.54802 0.79604 0.0
N1546 N 0.51025 0.52585 0.72526 0.0
N1547 N 0.54797 0.55087 0.77382 0.0
H1548 H 0.42965 0.37635 0.10828 0.0
H1549 H 0.31249 0.2692 0.07685 0.0
H1550 H 0.36575 0.37258 0.11502 0.0
H1551 H 0.37512 0.27719 0.0527 0.0
H1552 H 0.33256 0.30529 0.09575 0.0
H1553 H 0.41064 0.33817 0.09265 0.0
C1554 C 0.41165 0.36742 0.1067 0.0
C1555 C 0.39923 0.37763 0.11282 0.0
C1556 C 0.34197 0.29921 0.08632 0.0
C1557 C 0.37755 0.33427 0.09511 0.0
C1558 C 0.3305 0.27856 0.07548 0.0
C1559 C 0.34213 0.27023 0.06297 0.0
C1560 C 0.3653 0.31173 0.08475 0.0
C1561 C 0.3655 0.28308 0.06202 0.0
C1562 C 0.40086 0.34575 0.09768 0.0
C1563 C 0.37599 0.36542 0.11034 0.0
N1564 N 0.37637 0.30328 0.07275 0.0
N1565 N 0.36593 0.34443 0.10168 0.0
H1566 H 0.71231 0.03731 0.06526 0.0
H1567 H 0.61339 0.05312 0.11523 0.0
H1568 H 0.71279 0.09981 0.05984 0.0
H1569 H 0.61062 0.98973 0.10713 0.0
H1570 H 0.65084 0.07167 0.09789 0.0
H1571 H 0.67593 0.02068 0.08346 0.0
C1572 C 0.70473 0.04757 0.06784 0.0
C1573 C 0.7156 0.07 0.06094 0.0
C1574 C 0.64197 0.05371 0.09998 0.0
C1575 C 0.67373 0.05095 0.08196 0.0
C1576 C 0.62069 0.04315 0.10995 0.0
C1577 C 0.60887 0.01985 0.11257 0.0
C1578 C 0.65142 0.04083 0.09284 0.0
C1579 C 0.61903 0.00771 0.10536 0.0
C1580 C 0.68389 0.03803 0.07826 0.0
C1581 C 0.70491 0.08242 0.0648 0.0
N1582 N 0.63966 0.01833 0.09587 0.0
N1583 N 0.68451 0.07273 0.07513 0.0
H1584 H 0.94608 0.67325 0.07919 0.0
H1585 H 0.93583 0.55578 0.10976 0.0
H1586 H 0.89316 0.61104 0.05195 0.0
H1587 H -0.00517 0.61992 0.12046 0.0
H1588 H 0.91709 0.57484 0.09313 0.0
H1589 H 0.9613 0.65293 0.09904 0.0
C1590 C 0.93763 0.65527 0.07733 0.0
C1591 C 0.9184 0.64385 0.06368 0.0
C1592 C 0.9341 0.58465 0.09926 0.0
C1593 C 0.93584 0.62038 0.08655 0.0
C1594 C 0.94472 0.57383 0.10885 0.0
C1595 C 0.96693 0.58632 0.11636 0.0
C1596 C 0.94576 0.60804 0.09751 0.0
C1597 C 0.97776 0.60963 0.1147 0.0
C1598 C 0.94636 0.64366 0.08872 0.0
C1599 C 0.90812 0.62051 0.06215 0.0
N1600 N 0.96708 0.6197 0.10545 0.0
N1601 N 0.91701 0.60949 0.07344 0.0
H1602 H 0.28691 0.36903 0.45816 0.0
H1603 H 0.35541 0.37675 0.34359 0.0
H1604 H 0.25903 0.32548 0.3991 0.0
H1605 H 0.38619 0.41294 0.40637 0.0
H1606 H 0.31885 0.36225 0.36165 0.0
H1607 H 0.32244 0.3895 0.43745 0.0
C1608 C 0.2882 0.36388 0.44081 0.0
C1609 C 0.27005 0.34538 0.43044 0.0
C1610 C 0.33361 0.37349 0.37142 0.0
C1611 C 0.31049 0.3687 0.40669 0.0
C1612 C 0.35448 0.38181 0.36108 0.0
C1613 C 0.37389 0.39583 0.37359 0.0
C1614 C 0.33214 0.37923 0.3944 0.0
C1615 C 0.37167 0.40196 0.39617 0.0
C1616 C 0.30846 0.37554 0.42901 0.0
C1617 C 0.27262 0.33949 0.40788 0.0
N1618 N 0.35117 0.39348 0.40592 0.0
N1619 N 0.29247 0.35104 0.39682 0.0
H1620 H 0.60101 0.89266 0.44699 0.0
H1621 H 0.61406 0.00049 0.38239 0.0
H1622 H 0.66339 0.94661 0.4214 0.0
H1623 H 0.54984 0.94165 0.39325 0.0
H1624 H 0.63206 0.98093 0.39815 0.0
H1625 H 0.58152 0.9103 0.42906 0.0
C1626 C 0.6106 0.90818 0.43765 0.0
C1627 C 0.63388 0.91823 0.43578 0.0
C1628 C 0.61403 0.97218 0.39701 0.0
C1629 C 0.61176 0.93837 0.41532 0.0
C1630 C 0.60372 0.98338 0.38804 0.0
C1631 C 0.58041 0.97269 0.38656 0.0
C1632 C 0.60098 0.95014 0.40485 0.0
C1633 C 0.56788 0.95045 0.39403 0.0
C1634 C 0.59946 0.91816 0.42735 0.0
C1635 C 0.64545 0.93826 0.42337 0.0
N1636 N 0.57834 0.93991 0.40305 0.0
N1637 N 0.63428 0.94768 0.41372 0.0
H1638 H -0.00169 0.6289 0.35174 0.0
H1639 H 0.0665 0.69753 0.46352 0.0
H1640 H 0.00907 0.59828 0.41175 0.0
H1641 H 0.05092 0.72649 0.40533 0.0
H1642 H 0.04881 0.66157 0.44336 0.0
H1643 H 0.02106 0.66545 0.36959 0.0
C1644 C 0.00558 0.62986 0.3686 0.0
C1645 C 0.0016 0.61048 0.38035 0.0
C1646 C 0.04938 0.67585 0.435 0.0
C1647 C 0.02758 0.65228 0.40096 0.0
C1648 C 0.05948 0.69637 0.44649 0.0
C1649 C 0.06002 0.715 0.4362 0.0
C1650 C 0.03982 0.67401 0.41307 0.0
C1651 C 0.05074 0.71255 0.41405 0.0
C1652 C 0.01854 0.65074 0.37881 0.0
C1653 C 0.01155 0.61277 0.40213 0.0
N1654 N 0.04096 0.69244 0.40329 0.0
N1655 N 0.02396 0.63328 0.41179 0.0
H1656 H 0.5594 0.61525 0.88201 0.0
H1657 H 0.67079 0.7118 0.93889 0.0
H1658 H 0.6142 0.60704 0.90519 0.0
H1659 H 0.61032 0.71539 0.93662 0.0
H1660 H 0.65039 0.67401 0.92379 0.0
H1661 H 0.57778 0.65267 0.89941 0.0
C1662 C 0.57522 0.62127 0.89075 0.0
C1663 C 0.58534 0.60806 0.89203 0.0
C1664 C 0.64149 0.68296 0.92668 0.0
C1665 C 0.60634 0.65061 0.91177 0.0
C1666 C 0.65316 0.70459 0.93523 0.0
C1667 C 0.64222 0.71674 0.93899 0.0
C1668 C 0.61871 0.67339 0.92153 0.0
C1669 C 0.61933 0.70651 0.93405 0.0
C1670 C 0.58563 0.64255 0.90073 0.0
C1671 C 0.60578 0.61662 0.90367 0.0
N1672 N 0.6083 0.6854 0.92537 0.0
N1673 N 0.61563 0.63735 0.91294 0.0
H1674 H 0.27603 0.95443 0.92343 0.0
H1675 H 0.37957 0.94182 0.88366 0.0
H1676 H 0.27903 0.89466 0.93735 0.0
H1677 H 0.38104 0.00468 0.89071 0.0
H1678 H 0.34142 0.9227 0.89934 0.0
H1679 H 0.3133 0.97159 0.90713 0.0
C1680 C 0.28454 0.94488 0.92307 0.0
C1681 C 0.27443 0.9231 0.93186 0.0
C1682 C 0.35021 0.94067 0.89743 0.0
C1683 C 0.31726 0.94271 0.91308 0.0
C1684 C 0.37187 0.95156 0.88841 0.0
C1685 C 0.38348 0.97486 0.88591 0.0
C1686 C 0.34014 0.95323 0.90363 0.0
C1687 C 0.37279 0.98671 0.89241 0.0
C1688 C 0.30588 0.95473 0.91379 0.0
C1689 C 0.2863 0.91155 0.93088 0.0
N1690 N 0.35176 0.97576 0.90088 0.0
N1691 N 0.30715 0.9215 0.92157 0.0
H1692 H 0.02888 0.31601 0.93358 0.0
H1693 H 0.04173 0.42815 0.8806 0.0
H1694 H 0.09302 0.37607 0.92785 0.0
H1695 H 0.97991 0.37381 0.90679 0.0
H1696 H 0.06129 0.40919 0.89518 0.0
H1697 H 0.01096 0.33669 0.92078 0.0
C1698 C 0.03922 0.33359 0.92963 0.0
C1699 C 0.06248 0.34435 0.93178 0.0
C1700 C 0.04346 0.40156 0.89778 0.0
C1701 C 0.04201 0.36817 0.91701 0.0
C1702 C 0.0323 0.4123 0.88944 0.0
C1703 C 0.00914 0.40249 0.89238 0.0
C1704 C 0.03128 0.38081 0.90887 0.0
C1705 C -0.00225 0.382 0.90404 0.0
C1706 C 0.02895 0.34542 0.9224 0.0
C1707 C 0.07501 0.36718 0.9265 0.0
N1708 N 0.00891 0.37181 0.91171 0.0
N1709 N 0.06461 0.37836 0.91919 0.0
H1710 H 0.62694 0.58741 0.63369 0.0
H1711 H 0.69154 0.64701 0.51693 0.0
H1712 H 0.59651 0.60031 0.57491 0.0
H1713 H 0.72449 0.64261 0.57849 0.0
H1714 H 0.65563 0.62496 0.53622 0.0
H1715 H 0.66205 0.60306 0.6121 0.0
C1716 C 0.62759 0.5934 0.61624 0.0
C1717 C 0.60884 0.59275 0.60619 0.0
C1718 C 0.67072 0.62871 0.54546 0.0
C1719 C 0.64878 0.61054 0.58142 0.0
C1720 C 0.69122 0.64125 0.53442 0.0
C1721 C 0.71105 0.64691 0.54621 0.0
C1722 C 0.67004 0.62178 0.56845 0.0
C1723 C 0.70962 0.63886 0.56883 0.0
C1724 C 0.64761 0.60233 0.60393 0.0
C1725 C 0.61059 0.60065 0.58347 0.0
N1726 N 0.68947 0.62684 0.57928 0.0
N1727 N 0.63021 0.60927 0.57191 0.0
H1728 H 0.43291 0.04971 0.60578 0.0
H1729 H 0.31536 0.04135 0.58039 0.0
H1730 H 0.36879 0.99195 0.62023 0.0
H1731 H 0.3771 0.09331 0.55131 0.0
H1732 H 0.3358 0.02576 0.5994 0.0
H1733 H 0.41377 0.06869 0.59006 0.0
C1734 C 0.41486 0.04114 0.60587 0.0
C1735 C 0.40239 0.0192 0.61418 0.0
C1736 C 0.34494 0.04057 0.58886 0.0
C1737 C 0.38054 0.04066 0.59634 0.0
C1738 C 0.33326 0.04951 0.57797 0.0
C1739 C 0.34451 0.06857 0.56405 0.0
C1740 C 0.36811 0.05074 0.58592 0.0
C1741 C 0.36775 0.07849 0.56176 0.0
C1742 C 0.40397 0.0519 0.59681 0.0
C1743 C 0.37906 0.0088 0.61382 0.0
N1744 N 0.37883 0.06941 0.57256 0.0
N1745 N 0.36892 0.0196 0.60503 0.0
H1746 H 0.93475 0.36878 0.61013 0.0
H1747 H 0.95255 0.26933 0.56553 0.0
H1748 H -0.0015 0.3718 0.60625 0.0
H1749 H 0.89018 0.26858 0.55723 0.0
H1750 H 0.96869 0.3061 0.583 0.0
H1751 H 0.91707 0.33114 0.59336 0.0
C1752 C 0.94499 0.36151 0.60587 0.0
C1753 C 0.96813 0.37345 0.60956 0.0
C1754 C 0.95148 0.29797 0.57733 0.0
C1755 C 0.94811 0.33063 0.59044 0.0
C1756 C 0.94223 0.27692 0.56734 0.0
C1757 C 0.91999 0.26587 0.55984 0.0
C1758 C 0.93842 0.30813 0.57999 0.0
C1759 C 0.90744 0.27657 0.56269 0.0
C1760 C 0.93492 0.34011 0.59623 0.0
C1761 C 0.98062 0.36329 0.60365 0.0
N1762 N 0.91683 0.29714 0.5726 0.0
N1763 N 0.97046 0.34251 0.59442 0.0
H1764 H 0.94345 0.71913 0.76869 0.0
H1765 H 0.04486 0.70505 0.72323 0.0
H1766 H 0.94786 0.65932 0.77562 0.0
H1767 H 0.03974 0.76345 0.70802 0.0
H1768 H 0.00988 0.68921 0.74409 0.0
H1769 H 0.97952 0.73704 0.74851 0.0
C1770 C 0.95208 0.70986 0.76618 0.0
C1771 C 0.94263 0.68769 0.77378 0.0
C1772 C 0.01628 0.70547 0.73618 0.0
C1773 C 0.98358 0.70792 0.7507 0.0
C1774 C 0.03632 0.71455 0.72421 0.0
C1775 C 0.04526 0.73563 0.71384 0.0
C1776 C 0.00497 0.7175 0.73796 0.0
C1777 C 0.03337 0.7471 0.71569 0.0
C1778 C 0.97256 0.72003 0.75455 0.0
C1779 C 0.95443 0.67639 0.76996 0.0
N1780 N 0.01379 0.7379 0.72762 0.0
N1781 N 0.97421 0.68661 0.75869 0.0
H1782 H 0.33499 0.28824 0.76923 0.0
H1783 H 0.22016 0.27385 0.72109 0.0
H1784 H 0.27161 0.22865 0.78128 0.0
H1785 H 0.28384 0.33475 0.71787 0.0
H1786 H 0.23818 0.25586 0.74144 0.0
H1787 H 0.31593 0.30462 0.74907 0.0
C1788 C 0.31699 0.27859 0.76771 0.0
C1789 C 0.30487 0.25702 0.77695 0.0
C1790 C 0.24814 0.27314 0.73621 0.0
C1791 C 0.28281 0.27574 0.75364 0.0
C1792 C 0.23791 0.28336 0.7245 0.0
C1793 C 0.25052 0.30583 0.7178 0.0
C1794 C 0.27108 0.28551 0.74107 0.0
C1795 C 0.27342 0.31743 0.72276 0.0
C1796 C 0.30609 0.28798 0.75615 0.0
C1797 C 0.28157 0.24537 0.77447 0.0
N1798 N 0.28291 0.30714 0.73407 0.0
N1799 N 0.27125 0.25486 0.76293 0.0
H1800 H 0.76248 0.04762 0.76944 0.0
H1801 H 0.64642 0.94078 0.73446 0.0
H1802 H 0.69804 0.04253 0.77706 0.0
H1803 H 0.7099 0.94884 0.71339 0.0
H1804 H 0.66574 0.97689 0.75334 0.0
H1805 H 0.74411 0.01015 0.7522 0.0
C1806 C 0.74449 0.03856 0.76768 0.0
C1807 C 0.73175 0.04818 0.77462 0.0
C1808 C 0.67551 0.97085 0.74457 0.0
C1809 C 0.71078 0.00562 0.75497 0.0
C1810 C 0.66448 0.95018 0.73376 0.0
C1811 C 0.67657 0.9418 0.72223 0.0
C1812 C 0.69889 0.98335 0.74399 0.0
C1813 C 0.69994 0.95475 0.72198 0.0
C1814 C 0.73406 0.01728 0.75774 0.0
C1815 C 0.70854 0.03582 0.77184 0.0
N1816 N 0.7104 0.97494 0.73275 0.0
N1817 N 0.69884 0.01522 0.76224 0.0
H1818 H 0.27192 0.04272 0.28087 0.0
H1819 H 0.28706 0.94767 0.21951 0.0
H1820 H 0.33525 0.04627 0.26929 0.0
H1821 H 0.22472 0.94771 0.21784 0.0
H1822 H 0.30418 0.98313 0.23974 0.0
H1823 H 0.25335 0.00689 0.2602 0.0
C1824 C 0.28188 0.03591 0.27414 0.0
C1825 C 0.30515 0.04747 0.27678 0.0
C1826 C 0.28678 0.97551 0.2349 0.0
C1827 C 0.28415 0.00682 0.25317 0.0
C1828 C 0.27697 0.95522 0.22332 0.0
C1829 C 0.25442 0.94472 0.217 0.0
C1830 C 0.27396 0.98543 0.24041 0.0
C1831 C 0.2422 0.95533 0.22233 0.0
C1832 C 0.2713 0.01558 0.26224 0.0
C1833 C 0.31728 0.03799 0.26762 0.0
N1834 N 0.25211 0.97512 0.23389 0.0
N1835 N 0.30664 0.01826 0.25627 0.0
H1836 H 0.0379 0.27283 0.21309 0.0
H1837 H 0.94348 0.28907 0.27472 0.0
H1838 H 0.03941 0.33572 0.22023 0.0
H1839 H 0.94021 0.22515 0.27118 0.0
H1840 H 0.97905 0.306 0.2548 0.0
H1841 H 0.00207 0.25442 0.2337 0.0
C1842 C 0.03064 0.28272 0.21882 0.0
C1843 C 0.04166 0.30584 0.21497 0.0
C1844 C 0.97067 0.28827 0.25839 0.0
C1845 C 0.00101 0.28503 0.23859 0.0
C1846 C 0.95032 0.27858 0.26984 0.0
C1847 C 0.93883 0.25564 0.27456 0.0
C1848 C 0.97968 0.27498 0.25146 0.0
C1849 C 0.94858 0.24293 0.26791 0.0
C1850 C 0.0103 0.27223 0.23067 0.0
C1851 C 0.0316 0.31787 0.22285 0.0
N1852 N 0.96846 0.25276 0.25655 0.0
N1853 N 0.01192 0.30734 0.23428 0.0
H1854 H 0.75829 0.71349 0.27886 0.0
H1855 H 0.64504 0.6992 0.22636 0.0
H1856 H 0.69735 0.65037 0.27121 0.0
H1857 H 0.70829 0.75996 0.21849 0.0
H1858 H 0.66386 0.6822 0.246 0.0
H1859 H 0.74008 0.73206 0.2601 0.0
C1860 C 0.74107 0.70358 0.2734 0.0
C1861 C 0.72932 0.68036 0.27656 0.0
C1862 C 0.6737 0.69924 0.23994 0.0
C1863 C 0.70852 0.70138 0.25517 0.0
C1864 C 0.66294 0.70898 0.22871 0.0
C1865 C 0.67513 0.73103 0.2207 0.0
C1866 C 0.69685 0.71162 0.24338 0.0
C1867 C 0.69829 0.74287 0.22429 0.0
C1868 C 0.73076 0.71416 0.2626 0.0
C1869 C 0.70709 0.66829 0.26905 0.0
N1870 N 0.70844 0.73302 0.23546 0.0
N1871 N 0.69745 0.67894 0.25875 0.0
H1872 H 0.28287 0.17977 0.13716 0.0
H1873 H 0.35516 0.13337 0.19908 0.0
H1874 H 0.30767 0.1418 0.10175 0.0
H1875 H 0.33112 0.17218 0.23414 0.0
H1876 H 0.33764 0.13594 0.16328 0.0
H1877 H 0.29916 0.17592 0.17326 0.0
C1878 C 0.29154 0.17036 0.13716 0.0
C1879 C 0.29408 0.16113 0.11663 0.0
C1880 C 0.33623 0.14398 0.17874 0.0
C1881 C 0.31296 0.15686 0.15758 0.0
C1882 C 0.34629 0.14258 0.19908 0.0
C1883 C 0.34443 0.15253 0.21942 0.0
C1884 C 0.32425 0.15544 0.17879 0.0
C1885 C 0.33293 0.16437 0.21869 0.0
C1886 C 0.30093 0.16827 0.15767 0.0
C1887 C 0.30535 0.14907 0.11735 0.0
N1888 N 0.32316 0.16542 0.19869 0.0
N1889 N 0.31454 0.1474 0.1375 0.0
H1890 H 0.79961 0.1475 0.10371 0.0
H1891 H 0.86041 0.18135 0.22697 0.0
H1892 H 0.84659 0.12791 0.12661 0.0
H1893 H 0.81073 0.19774 0.20532 0.0
H1894 H 0.85645 0.1626 0.18996 0.0
H1895 H 0.80458 0.16727 0.14023 0.0
C1896 C 0.81106 0.14748 0.11648 0.0
C1897 C 0.82266 0.13605 0.11231 0.0
C1898 C 0.84637 0.17025 0.19326 0.0
C1899 C 0.82846 0.15857 0.15409 0.0
C1900 C 0.84866 0.18097 0.21435 0.0
C1901 C 0.83591 0.19112 0.21906 0.0
C1902 C 0.83123 0.1697 0.17675 0.0
C1903 C 0.82073 0.18996 0.20233 0.0
C1904 C 0.81389 0.15874 0.1373 0.0
C1905 C 0.83747 0.13668 0.12919 0.0
N1906 N 0.81885 0.17949 0.18186 0.0
N1907 N 0.83989 0.14768 0.14943 0.0
H1908 H 0.82735 0.65314 0.23423 0.0
H1909 H 0.82528 0.68161 0.10002 0.0
H1910 H 0.76686 0.63233 0.19562 0.0
H1911 H 0.88557 0.70016 0.13814 0.0
H1912 H 0.80355 0.6652 0.13536 0.0
H1913 H 0.8491 0.67126 0.1994 0.0
C1914 C 0.81871 0.65225 0.21829 0.0
C1915 C 0.79539 0.64129 0.21761 0.0
C1916 C 0.82154 0.67297 0.13606 0.0
C1917 C 0.81997 0.66215 0.17791 0.0
C1918 C 0.8339 0.68246 0.11597 0.0
C1919 C 0.85713 0.69208 0.11633 0.0
C1920 C 0.83258 0.67317 0.15657 0.0
C1921 C 0.86761 0.6927 0.13726 0.0
C1922 C 0.83107 0.6627 0.19848 0.0
C1923 C 0.78488 0.64074 0.19672 0.0
N1924 N 0.85525 0.68325 0.15655 0.0
N1925 N 0.79724 0.65109 0.17767 0.0
H1926 H 0.17691 0.33699 0.38812 0.0
H1927 H 0.12566 0.31081 0.26018 0.0
H1928 H 0.13837 0.27047 0.36057 0.0
H1929 H 0.16639 0.37736 0.28694 0.0
H1930 H 0.12912 0.2956 0.29717 0.0
H1931 H 0.17168 0.35204 0.35185 0.0
C1932 C 0.16716 0.32558 0.37441 0.0
C1933 C 0.15811 0.30253 0.37713 0.0
C1934 C 0.13738 0.31353 0.29498 0.0
C1935 C 0.15217 0.31951 0.33562 0.0
C1936 C 0.13544 0.32218 0.2739 0.0
C1937 C 0.14586 0.34532 0.27062 0.0
C1938 C 0.1498 0.32815 0.31295 0.0
C1939 C 0.15835 0.35941 0.28879 0.0
C1940 C 0.16423 0.33415 0.35372 0.0
C1941 C 0.14551 0.28836 0.35906 0.0
N1942 N 0.15995 0.3506 0.30924 0.0
N1943 N 0.14301 0.29709 0.33896 0.0
H1944 H 0.65888 0.81659 0.39637 0.0
H1945 H 0.64003 0.82465 0.26055 0.0
H1946 H 0.68425 0.87862 0.35931 0.0
H1947 H 0.6178 0.76243 0.29636 0.0
H1948 H 0.65485 0.8447 0.29704 0.0
H1949 H 0.64309 0.79621 0.36014 0.0
C1950 C 0.66127 0.82585 0.38049 0.0
C1951 C 0.67281 0.84921 0.38064 0.0
C1952 C 0.64667 0.82666 0.29698 0.0
C1953 C 0.65464 0.82625 0.33939 0.0
C1954 C 0.63809 0.81526 0.27622 0.0
C1955 C 0.62785 0.79197 0.2756 0.0
C1956 C 0.64492 0.81461 0.31723 0.0
C1957 C 0.6258 0.78047 0.29623 0.0
C1958 C 0.65217 0.81428 0.35989 0.0
C1959 C 0.67533 0.86055 0.35979 0.0
N1960 N 0.63436 0.79191 0.31623 0.0
N1961 N 0.66626 0.84897 0.34 0.0
H1962 H 0.10052 0.80312 0.3566 0.0
H1963 H 0.21987 0.85842 0.29443 0.0
H1964 H 0.16216 0.84826 0.39086 0.0
H1965 H 0.15775 0.81739 0.25891 0.0
H1966 H 0.19918 0.85396 0.3303 0.0
H1967 H 0.12118 0.8077 0.32072 0.0
C1968 C 0.11843 0.81413 0.35643 0.0
C1969 C 0.12974 0.82534 0.37656 0.0
C1970 C 0.19004 0.84588 0.3147 0.0
C1971 C 0.15351 0.83057 0.3358 0.0
C1972 C 0.20183 0.84839 0.2943 0.0
C1973 C 0.1904 0.83837 0.27381 0.0
C1974 C 0.16663 0.83315 0.31457 0.0
C1975 C 0.16711 0.82533 0.27444 0.0
C1976 C 0.13022 0.81672 0.33602 0.0
C1977 C 0.15289 0.83947 0.37558 0.0
N1978 N 0.15595 0.82315 0.2945 0.0
N1979 N 0.16406 0.84161 0.35553 0.0
H1980 H 0.64964 0.81544 0.76106 0.0
H1981 H 0.67143 0.8424 0.89666 0.0
H1982 H 0.62528 0.85242 0.79913 0.0
H1983 H 0.69654 0.80616 0.85844 0.0
H1984 H 0.65474 0.84671 0.86101 0.0
H1985 H 0.66644 0.81122 0.79669 0.0
C1986 C 0.64766 0.82242 0.77705 0.0
C1987 C 0.63612 0.83423 0.77735 0.0
C1988 C 0.66395 0.83787 0.86036 0.0
C1989 C 0.65547 0.82988 0.81795 0.0
C1990 C 0.67357 0.83556 0.88064 0.0
C1991 C 0.6852 0.82384 0.88033 0.0
C1992 C 0.66604 0.82837 0.83968 0.0
C1993 C 0.68748 0.81515 0.85929 0.0
C1994 C 0.65735 0.82019 0.79731 0.0
C1995 C 0.63415 0.84323 0.79832 0.0
N1996 N 0.6779 0.8175 0.83979 0.0
N1997 N 0.64379 0.84093 0.8178 0.0
H1998 H 0.18622 0.88682 0.85392 0.0
H1999 H 0.1287 0.76758 0.79122 0.0
H2000 H 0.14564 0.82478 0.88978 0.0
H2001 H 0.17567 0.82891 0.75762 0.0
H2002 H 0.13375 0.7882 0.82728 0.0
H2003 H 0.18114 0.86604 0.818 0.0
C2004 C 0.17616 0.86878 0.85412 0.0
C2005 C 0.16645 0.8574 0.87473 0.0
C2006 C 0.14304 0.79718 0.81208 0.0
C2007 C 0.16049 0.83352 0.83385 0.0
C2008 C 0.14017 0.78542 0.79157 0.0
C2009 C 0.15174 0.79667 0.77156 0.0
C2010 C 0.15754 0.82038 0.81252 0.0
C2011 C 0.16652 0.8197 0.77278 0.0
C2012 C 0.1733 0.85693 0.83368 0.0
C2013 C 0.15335 0.8341 0.87416 0.0
N2014 N 0.16891 0.83085 0.79291 0.0
N2015 N 0.1508 0.82288 0.85404 0.0
H2016 H 0.19312 0.38031 0.78144 0.0
H2017 H 0.12427 0.27366 0.86318 0.0
H2018 H 0.17558 0.31328 0.76228 0.0
H2019 H 0.13745 0.33974 0.88059 0.0
H2020 H 0.14401 0.28812 0.8265 0.0
H2021 H 0.173 0.36599 0.81802 0.0
C2022 C 0.18486 0.36256 0.78491 0.0
C2023 C 0.18604 0.34793 0.76899 0.0
C2024 C 0.14259 0.29948 0.83832 0.0
C2025 C 0.16332 0.33146 0.81071 0.0
C2026 C 0.13147 0.29125 0.85928 0.0
C2027 C 0.12923 0.30555 0.87477 0.0
C2028 C 0.15158 0.3222 0.83291 0.0
C2029 C 0.13862 0.32815 0.8689 0.0
C2030 C 0.17351 0.3544 0.8058 0.0
C2031 C 0.17529 0.32512 0.77431 0.0
N2032 N 0.1494 0.3358 0.84842 0.0
N2033 N 0.16443 0.31758 0.79475 0.0
H2034 H 0.81587 0.61376 0.70503 0.0
H2035 H 0.84308 0.71982 0.62647 0.0
H2036 H 0.86009 0.68157 0.72654 0.0
H2037 H 0.8095 0.65222 0.60106 0.0
H2038 H 0.84869 0.70637 0.66376 0.0
H2039 H 0.81153 0.62759 0.66743 0.0
C2040 C 0.82448 0.63158 0.70183 0.0
C2041 C 0.83827 0.64661 0.71876 0.0
C2042 C 0.84023 0.69449 0.64998 0.0
C2043 C 0.83368 0.66255 0.67594 0.0
C2044 C 0.83719 0.70219 0.62871 0.0
C2045 C 0.82586 0.68706 0.61082 0.0
C2046 C 0.83169 0.67149 0.65332 0.0
C2047 C 0.81821 0.66435 0.61458 0.0
C2048 C 0.82217 0.63946 0.68037 0.0
C2049 C 0.84935 0.6695 0.71379 0.0
N2050 N 0.82114 0.65722 0.63546 0.0
N2051 N 0.8468 0.67681 0.69283 0.0
H2052 H 0.33312 0.15885 0.73599 0.0
H2053 H 0.3114 0.16527 0.60062 0.0
H2054 H 0.35522 0.22056 0.69921 0.0
H2055 H 0.28863 0.10362 0.63774 0.0
H2056 H 0.32669 0.18594 0.63676 0.0
H2057 H 0.31676 0.13822 0.70009 0.0
C2058 C 0.33464 0.16799 0.72024 0.0
C2059 C 0.34538 0.19132 0.72039 0.0
C2060 C 0.31825 0.16789 0.63705 0.0
C2061 C 0.32661 0.16805 0.67946 0.0
C2062 C 0.30942 0.15614 0.6165 0.0
C2063 C 0.29891 0.13283 0.61637 0.0
C2064 C 0.31653 0.15615 0.65753 0.0
C2065 C 0.29682 0.12166 0.63724 0.0
C2066 C 0.32521 0.15628 0.69982 0.0
C2067 C 0.34688 0.20251 0.69969 0.0
N2068 N 0.30567 0.13343 0.65699 0.0
N2069 N 0.33753 0.19077 0.68003 0.0
H2070 H 0.857 0.1329 0.62364 0.0
H2071 H 0.79349 0.17745 0.70475 0.0
H2072 H 0.84478 0.18607 0.60452 0.0
H2073 H 0.80482 0.12371 0.72389 0.0
H2074 H 0.81233 0.18091 0.66786 0.0
H2075 H 0.83708 0.12847 0.66012 0.0
C2076 C 0.84993 0.14348 0.62709 0.0
C2077 C 0.85263 0.15996 0.61126 0.0
C2078 C 0.81071 0.16835 0.68011 0.0
C2079 C 0.83015 0.15527 0.65284 0.0
C2080 C 0.80011 0.1665 0.7012 0.0
C2081 C 0.79759 0.15025 0.71725 0.0
C2082 C 0.81887 0.15384 0.67511 0.0
C2083 C 0.8062 0.13627 0.71178 0.0
C2084 C 0.83871 0.14107 0.64792 0.0
C2085 C 0.84333 0.17338 0.6165 0.0
N2086 N 0.81645 0.13837 0.69115 0.0
N2087 N 0.83258 0.17081 0.63689 0.0
H2088 H 0.97102 0.4577 0.5618 0.0
H2089 H 0.0015 0.51567 0.43704 0.0
H2090 H 0.03821 0.5033 0.53955 0.0
H2091 H 0.93412 0.47726 0.46237 0.0
H2092 H 0.01523 0.50958 0.47374 0.0
H2093 H 0.95703 0.46312 0.52486 0.0
C2094 C 0.98278 0.46888 0.54907 0.0
C2095 C 0.00574 0.48009 0.55357 0.0
C2096 C -0.00256 0.50244 0.47132 0.0
C2097 C 0.98999 0.48636 0.51141 0.0
C2098 C 0.98963 0.50591 0.45041 0.0
C2099 C 0.96671 0.49705 0.44687 0.0
C2100 C 0.98218 0.4899 0.48878 0.0
C2101 C 0.95193 0.48428 0.46449 0.0
C2102 C 0.97483 0.472 0.52805 0.0
C2103 C 0.02036 0.49451 0.53671 0.0
N2104 N 0.95993 0.48111 0.48476 0.0
N2105 N 0.01224 0.49719 0.5163 0.0
H2106 H 0.47558 0.48973 0.56424 0.0
H2107 H 0.51267 0.49805 0.43154 0.0
H2108 H 0.52072 0.55153 0.53017 0.0
H2109 H 0.46033 0.43783 0.46235 0.0
H2110 H 0.51781 0.51742 0.4685 0.0
H2111 H 0.47073 0.46986 0.52762 0.0
C2112 C 0.48423 0.49909 0.54893 0.0
C2113 C 0.49848 0.52222 0.55004 0.0
C2114 C 0.50523 0.49995 0.46722 0.0
C2115 C 0.49348 0.49976 0.50842 0.0
C2116 C 0.50246 0.4889 0.44623 0.0
C2117 C 0.48604 0.46643 0.44406 0.0
C2118 C 0.49153 0.48834 0.48613 0.0
C2119 C 0.47306 0.45526 0.46342 0.0
C2120 C 0.48162 0.48778 0.52812 0.0
C2121 C 0.50964 0.53363 0.52993 0.0
N2122 N 0.47604 0.46635 0.48368 0.0
N2123 N 0.50697 0.52228 0.50994 0.0
H2124 H 0.505 0.98177 0.43634 0.0
H2125 H 0.47552 0.01045 0.56106 0.0
H2126 H 0.52874 0.04887 0.4605 0.0
H2127 H 0.45233 0.94341 0.53706 0.0
H2128 H 0.49481 0.02489 0.52423 0.0
H2129 H 0.48518 0.96736 0.47291 0.0
C2130 C 0.50601 0.99345 0.44942 0.0
C2131 C 0.51855 0.0165 0.44555 0.0
C2132 C 0.48553 0.00702 0.52697 0.0
C2133 C 0.49588 0.00023 0.48735 0.0
C2134 C 0.47448 -0.00121 0.54794 0.0
C2135 C 0.46231 0.97574 0.55197 0.0
C2136 C 0.48439 0.99206 0.50989 0.0
C2137 C 0.4617 0.96132 0.53462 0.0
C2138 C 0.49467 0.98524 0.47025 0.0
C2139 C 0.51911 0.03096 0.46284 0.0
N2140 N 0.47256 0.96971 0.51429 0.0
N2141 N 0.50798 0.02258 0.48305 0.0
H2142 H 0.52659 0.9697 0.02989 0.0
H2143 H 0.46883 0.03098 0.96669 0.0
H2144 H 0.48064 0.98538 0.06363 0.0
H2145 H 0.51483 0.01546 0.93281 0.0
H2146 H 0.47365 0.0152 0.00269 0.0
H2147 H 0.5227 0.9865 0.99415 0.0
C2148 C 0.5156 0.97663 0.02965 0.0
C2149 C 0.50396 0.9763 0.04959 0.0
C2150 C 0.4828 0.01532 0.98745 0.0
C2151 C 0.49943 -0.00446 0.00899 0.0
C2152 C 0.4801 0.02438 0.96699 0.0
C2153 C 0.4914 0.02437 0.94691 0.0
C2154 C 0.49693 0.00619 0.98779 0.0
C2155 C 0.5059 0.01579 0.94805 0.0
C2156 C 0.51341 0.98624 0.00932 0.0
C2157 C 0.4898 0.98528 0.0485 0.0
N2158 N 0.50817 0.00691 0.96814 0.0
N2159 N 0.48798 -0.00537 0.02854 0.0
H2160 H 0.95384 0.43775 0.9701 0.0
H2161 H 0.02136 0.557 0.03208 0.0
H2162 H 0.97495 0.49998 0.93477 0.0
H2163 H -0.00135 0.49445 0.06734 0.0
H2164 H 0.00435 0.53659 0.99622 0.0
H2165 H 0.96928 0.45824 0.00618 0.0
C2166 C 0.96159 0.45577 0.9701 0.0
C2167 C 0.9633 0.4673 0.9496 0.0
C2168 C 0.00311 0.5273 0.01176 0.0
C2169 C 0.98114 0.49088 0.99057 0.0
C2170 C 0.01285 0.53893 0.03213 0.0
C2171 C 0.01132 0.52729 0.0525 0.0
C2172 C -0.00819 0.50385 0.01184 0.0
C2173 C 0.00025 0.50395 0.05186 0.0
C2174 C 0.97045 0.46747 0.99061 0.0
C2175 C 0.97332 0.49058 0.95034 0.0
N2176 N 0.99086 0.49296 0.03184 0.0
N2177 N 0.98204 0.50167 0.9705 0.0
H2178 H 0.43028 0.45915 0.02612 0.0
H2179 H 0.55103 0.51707 0.96668 0.0
H2180 H 0.49136 0.50274 0.06214 0.0
H2181 H 0.49012 0.47463 0.92982 0.0
H2182 H 0.52954 0.51048 0.00233 0.0
H2183 H 0.45182 0.46349 0.99088 0.0
C2184 C 0.44826 0.46967 0.0265 0.0
C2185 C 0.45916 0.48063 0.04688 0.0
C2186 C 0.52083 0.50248 0.98651 0.0
C2187 C 0.48388 0.48569 0.0069 0.0
C2188 C 0.53309 0.50621 0.96624 0.0
C2189 C 0.52222 0.49647 0.94543 0.0
C2190 C 0.4975 0.48891 0.98593 0.0
C2191 C 0.49904 0.48239 0.94563 0.0
C2192 C 0.46054 0.47213 0.00647 0.0
C2193 C 0.48241 0.49415 0.04663 0.0
N2194 N 0.48739 0.47912 0.96557 0.0
N2195 N 0.49402 0.49629 0.02694 0.0
H2196 H 0.18951 0.04774 0.03168 0.0
H2197 H 0.22682 0.98052 0.94891 0.0
H2198 H 0.2427 0.08041 0.98189 0.0
H2199 H 0.16181 0.95081 0.9809 0.0
H2200 H 0.23435 0.01717 0.96233 0.0
H2201 H 0.18055 0.01174 0.01514 0.0
C2202 C 0.19946 0.04738 0.01741 0.0
C2203 C 0.21733 0.0672 0.00866 0.0
C2204 C 0.21836 0.00264 0.9662 0.0
C2205 C 0.20707 0.02599 0.98955 0.0
C2206 C 0.21404 0.98172 0.95855 0.0
C2207 C 0.19368 0.96254 0.96387 0.0
C2208 C 0.20236 0.00435 0.97956 0.0
C2209 C 0.17773 0.96512 0.97637 0.0
C2210 C 0.19427 0.02681 0.00793 0.0
C2211 C 0.22946 0.06566 0.98997 0.0
N2212 N 0.18251 0.98561 0.98402 0.0
N2213 N 0.22419 0.0454 0.98114 0.0
H2214 H 0.90555 0.15333 0.97682 0.0
H2215 H 0.0376 0.20668 0.98535 0.0
H2216 H 0.93827 0.14252 0.03488 0.0
H2217 H 0.00615 0.23551 0.94444 0.0
H2218 H 0.00071 0.1777 -0.00151 0.0
H2219 H 0.94193 0.1789 0.96024 0.0
C2220 C 0.9203 0.15667 0.98641 0.0
C2221 C 0.91879 0.14641 0.00781 0.0
C2222 C 0.00193 0.19029 0.98648 0.0
C2223 C 0.96052 0.17476 0.98818 0.0
C2224 C 0.02294 0.20671 0.97884 0.0
C2225 C 0.02494 0.22362 0.96393 0.0
C2226 C 0.98284 0.19065 0.97891 0.0
C2227 C 0.00538 0.2229 0.95612 0.0
C2228 C 0.9411 0.17102 0.97669 0.0
C2229 C 0.93863 0.15032 0.01852 0.0
N2230 N 0.98514 0.20672 0.96376 0.0
N2231 N 0.95869 0.16423 0.00864 0.0
H2232 H 0.74821 0.76387 0.95359 0.0
H2233 H 0.8534 0.80017 0.03502 0.0
H2234 H 0.78321 0.82824 0.98701 0.0
H2235 H 0.83249 0.7479 0.98401 0.0
H2236 H 0.82622 0.80942 0.01941 0.0
H2237 H 0.77757 0.75638 0.9661 0.0
C2238 C 0.76216 0.77651 0.96338 0.0
C2239 C 0.76321 0.79668 0.96935 0.0
C2240 C 0.82753 0.79584 0.01173 0.0
C2241 C 0.79664 0.78807 0.98397 0.0
C2242 C 0.84298 0.79049 0.02067 0.0
C2243 C 0.8448 0.77275 0.01132 0.0
C2244 C 0.81374 0.78334 0.99331 0.0
C2245 C 0.83104 0.76099 0.99255 0.0
C2246 C 0.7789 0.77222 0.9705 0.0
C2247 C 0.78172 0.81248 0.982 0.0
N2248 N 0.81599 0.7664 0.98426 0.0
N2249 N 0.79759 0.80773 0.98911 0.0
H2250 H 0.97707 0.21464 0.54442 0.0
H2251 H 0.04687 0.18958 0.45252 0.0
H2252 H 0.94737 0.15598 0.50107 0.0
H2253 H 0.07731 0.23375 0.51064 0.0
H2254 H 0.01017 0.17783 0.46911 0.0
H2255 H 0.01396 0.2227 0.53162 0.0
C2256 C 0.97833 0.20331 0.53239 0.0
C2257 C 0.95911 0.18467 0.52369 0.0
C2258 C 0.02491 0.19016 0.47817 0.0
C2259 C 0.00129 0.19402 0.5087 0.0
C2260 C 0.04587 0.19694 0.46869 0.0
C2261 C 0.06525 0.21327 0.47977 0.0
C2262 C 0.02329 0.19979 0.49889 0.0
C2263 C 0.06292 0.22198 0.50084 0.0
C2264 C -0.0006 0.20793 0.52511 0.0
C2265 C 0.96174 0.17051 0.50823 0.0
N2266 N 0.04231 0.21527 0.50961 0.0
N2267 N 0.98246 0.17565 0.50098 0.0
H2268 H 0.82046 0.7855 0.52408 0.0
H2269 H 0.72234 0.80526 0.47978 0.0
H2270 H 0.75126 0.73356 0.5223 0.0
H2271 H 0.7902 0.8582 0.48943 0.0
H2272 H 0.73226 0.77882 0.49638 0.0
H2273 H 0.80942 0.81255 0.51273 0.0
C2274 C 0.80292 0.77979 0.52149 0.0
C2275 C 0.78679 0.75717 0.52402 0.0
C2276 C 0.74493 0.79626 0.49514 0.0
C2277 C 0.77404 0.78809 0.51078 0.0
C2278 C 0.73921 0.81138 0.48587 0.0
C2279 C 0.75536 0.834 0.48382 0.0
C2280 C 0.76704 0.80382 0.50205 0.0
C2281 C 0.77723 0.84089 0.49091 0.0
C2282 C 0.79662 0.79527 0.51499 0.0
C2283 C 0.76429 0.75081 0.52052 0.0
N2284 N 0.78243 0.82586 0.49971 0.0
N2285 N 0.75861 0.76616 0.51389 0.0
H2286 H 0.24019 0.00973 0.54204 0.0
H2287 H 0.13851 0.94177 0.45619 0.0
H2288 H 0.20554 0.03896 0.50758 0.0
H2289 H 0.15699 0.9095 0.50857 0.0
H2290 H 0.16516 0.97792 0.47272 0.0
H2291 H 0.2117 0.97296 0.52819 0.0
C2292 C 0.22649 0.0084 0.53175 0.0
C2293 C 0.2253 0.02747 0.52589 0.0
C2294 C 0.16346 0.96289 0.48049 0.0
C2295 C 0.19292 0.98555 0.50973 0.0
C2296 C 0.14831 0.94225 0.47102 0.0
C2297 C 0.1459 0.9225 0.48054 0.0
C2298 C 0.17637 0.96386 0.49962 0.0
C2299 C 0.1589 0.92418 0.49992 0.0
C2300 C 0.21026 0.98742 0.52387 0.0
C2301 C 0.20714 0.02473 0.51255 0.0
N2302 N 0.17368 0.94452 0.50874 0.0
N2303 N 0.1918 0.0042 0.50471 0.0
H2304 H 0.76192 0.01032 0.04302 0.0
H2305 H 0.79309 0.94065 0.95698 0.0
H2306 H 0.82448 0.03925 0.00611 0.0
H2307 H 0.74483 0.90965 0.01178 0.0
H2308 H 0.80316 0.9772 0.97288 0.0
H2309 H 0.75374 0.97331 0.03021 0.0
C2310 C 0.77404 0.00887 0.03242 0.0
C2311 C 0.79388 0.02791 0.02554 0.0
C2312 C 0.79028 0.96236 0.98133 0.0
C2313 C 0.78443 0.98569 0.01056 0.0
C2314 C 0.78444 0.94149 0.97223 0.0
C2315 C 0.76758 0.92198 0.98261 0.0
C2316 C 0.77913 0.96378 0.00094 0.0
C2317 C 0.75715 0.92412 0.00249 0.0
C2318 C 0.76935 0.98775 0.02512 0.0
C2319 C 0.80899 0.02503 0.01185 0.0
N2320 N 0.763 0.94466 0.01092 0.0
N2321 N 0.80383 0.00433 0.00457 0.0
H2322 H 0.95689 0.79021 0.02425 0.0
H2323 H 0.0718 0.81124 0.97106 0.0
H2324 H 0.97713 0.74042 0.02434 0.0
H2325 H 0.05977 0.86483 0.98926 0.0
H2326 H 0.03647 0.78475 0.98892 0.0
H2327 H -0.00607 0.81769 0.01019 0.0
C2328 C 0.96917 0.78509 0.02152 0.0
C2329 C 0.96386 0.76294 0.02539 0.0
C2330 C 0.04169 0.80235 0.98922 0.0
C2331 C 0.00613 0.79422 0.00902 0.0
C2332 C 0.06205 0.81757 0.97921 0.0
C2333 C 0.06916 0.84044 0.97921 0.0
C2334 C 0.02814 0.80999 -0.00107 0.0
C2335 C 0.05503 0.84736 0.98895 0.0
C2336 C 0.9903 0.80079 0.01349 0.0
C2337 C 0.98047 0.75729 0.0216 0.0
N2338 N 0.03519 0.83221 -0.00159 0.0
N2339 N 0.00078 0.77277 0.01341 0.0
H2340 H 0.24264 0.22948 0.03371 0.0
H2341 H 0.1242 0.18655 0.97287 0.0
H2342 H 0.19902 0.16087 0.01364 0.0
H2343 H 0.17093 0.25563 0.9878 0.0
H2344 H 0.14992 0.17615 0.99048 0.0
H2345 H 0.21471 0.23856 0.0205 0.0
C2346 C 0.22711 0.21625 0.0267 0.0
C2347 C 0.22328 0.19439 0.02461 0.0
C2348 C 0.15444 0.19356 0.99012 0.0
C2349 C 0.19122 0.20478 0.00927 0.0
C2350 C 0.1398 0.19949 0.98005 0.0
C2351 C 0.14525 0.22191 0.97939 0.0
C2352 C 0.17476 0.21023 -0.00063 0.0
C2353 C 0.16575 0.23807 0.98867 0.0
C2354 C 0.21117 0.22149 0.01909 0.0
C2355 C 0.20275 0.17797 0.01549 0.0
N2356 N 0.17975 0.23192 -0.00172 0.0
N2357 N 0.18755 0.18354 0.008 0.0
H2358 H 0.90541 0.74522 0.47963 0.0
H2359 H 0.0363 0.82909 0.48226 0.0
H2360 H 0.93737 0.7977 0.53035 0.0
H2361 H 0.00769 0.76249 0.45425 0.0
H2362 H -0.00083 0.82078 0.49445 0.0
H2363 H 0.94199 0.75394 0.4653 0.0
C2364 C 0.92002 0.7582 0.48819 0.0
C2365 C 0.91823 0.77016 0.50689 0.0
C2366 C 0.00104 0.80804 0.48555 0.0
C2367 C 0.96018 0.78102 0.48959 0.0
C2368 C 0.02219 0.81279 0.47845 0.0
C2369 C 0.02513 0.7964 0.46731 0.0
C2370 C 0.98262 0.78686 0.48123 0.0
C2371 C 0.00621 0.77556 0.46291 0.0
C2372 C 0.94093 0.76338 0.47971 0.0
C2373 C 0.93793 0.78783 0.51611 0.0
N2374 N 0.98572 0.77137 0.46988 0.0
N2375 N 0.95808 0.79273 0.50737 0.0
H2376 H 0.253 0.17803 0.51675 0.0
H2377 H 0.15981 0.19958 0.46334 0.0
H2378 H 0.18803 0.12429 0.49697 0.0
H2379 H 0.23 0.24877 0.46213 0.0
H2380 H 0.16924 0.17179 0.47685 0.0
H2381 H 0.24437 0.20446 0.49843 0.0
C2382 C 0.23714 0.17165 0.50814 0.0
C2383 C 0.2215 0.14875 0.50786 0.0
C2384 C 0.18256 0.18862 0.47339 0.0
C2385 C 0.21112 0.17917 0.48763 0.0
C2386 C 0.1772 0.20449 0.46567 0.0
C2387 C 0.19413 0.22658 0.46172 0.0
C2388 C 0.20496 0.19498 0.47749 0.0
C2389 C 0.21638 0.23196 0.46497 0.0
C2390 C 0.23211 0.18684 0.49786 0.0
C2391 C 0.20066 0.14178 0.49752 0.0
N2392 N 0.22113 0.21634 0.47292 0.0
N2393 N 0.19606 0.15692 0.48786 0.0
H2394 H 0.73631 0.97371 0.45513 0.0
H2395 H 0.85717 0.04659 0.512 0.0
H2396 H 0.77754 0.94613 0.47581 0.0
H2397 H 0.81223 0.07132 0.4978 0.0
H2398 H 0.83001 0.01056 0.49521 0.0
H2399 H 0.76611 0.01065 0.46623 0.0
C2400 C 0.75171 0.97542 0.4618 0.0
C2401 C 0.75429 0.95669 0.46475 0.0
C2402 C 0.82622 0.02397 0.4955 0.0
C2403 C 0.78852 -0.00092 0.47771 0.0
C2404 C 0.84168 0.04449 0.5051 0.0
C2405 C 0.83715 0.0621 0.50578 0.0
C2406 C 0.80598 0.02099 0.48674 0.0
C2407 C 0.81675 0.05846 0.49688 0.0
C2408 C 0.76872 -0.00345 0.46821 0.0
C2409 C 0.77473 0.96004 0.47334 0.0
N2410 N 0.80193 0.03832 0.48775 0.0
N2411 N 0.791 0.98081 0.4797 0.0
H2412 H 0.82276 0.2841 0.31408 0.0
H2413 H 0.91386 0.4056 0.35687 0.0
H2414 H 0.89389 0.311 0.30804 0.0
H2415 H 0.84595 0.38844 0.34281 0.0
H2416 H 0.90569 0.36921 0.34226 0.0
H2417 H 0.82979 0.32083 0.32709 0.0
C2418 C 0.8398 0.29771 0.3153 0.0
C2419 C 0.85776 0.2944 0.31004 0.0
C2420 C 0.89259 0.37343 0.34214 0.0
C2421 C 0.86584 0.3362 0.32517 0.0
C2422 C 0.8973 0.39426 0.35031 0.0
C2423 C 0.88077 0.40027 0.35016 0.0
C2424 C 0.87103 0.35829 0.3342 0.0
C2425 C 0.85924 0.38449 0.34278 0.0
C2426 C 0.84378 0.31863 0.32274 0.0
C2427 C 0.8795 0.31267 0.31193 0.0
N2428 N 0.85496 0.36417 0.33497 0.0
N2429 N 0.8829 0.33267 0.31949 0.0
H2430 H 0.5706 0.49334 0.31679 0.0
H2431 H 0.70132 0.53855 0.32161 0.0
H2432 H 0.60048 0.469 0.36585 0.0
H2433 H 0.67334 0.57725 0.294 0.0
H2434 H 0.66383 0.50943 0.33282 0.0
H2435 H 0.60766 0.52119 0.30375 0.0
C2436 C 0.58487 0.49414 0.32528 0.0
C2437 C 0.58236 0.47931 0.34315 0.0
C2438 C 0.66593 0.52427 0.32423 0.0
C2439 C 0.62491 0.51047 0.3273 0.0
C2440 C 0.68728 0.54083 0.31769 0.0
C2441 C 0.69047 0.56041 0.30695 0.0
C2442 C 0.64763 0.5272 0.31972 0.0
C2443 C 0.67167 0.56249 0.30238 0.0
C2444 C 0.60608 0.50987 0.31752 0.0
C2445 C 0.60164 0.4803 0.35227 0.0
N2446 N 0.65104 0.54608 0.30878 0.0
N2447 N 0.62212 0.49564 0.34427 0.0
H2448 H 0.40556 0.09287 0.30011 0.0
H2449 H 0.52982 0.14013 0.34709 0.0
H2450 H 0.44946 0.16278 0.31496 0.0
H2451 H 0.47892 0.07066 0.34777 0.0
H2452 H 0.50248 0.14946 0.3314 0.0
H2453 H 0.43466 0.08519 0.31229 0.0
C2454 C 0.4214 0.10669 0.30573 0.0
C2455 C 0.42496 0.1285 0.30671 0.0
C2456 C 0.4974 0.13218 0.33482 0.0
C2457 C 0.4584 0.1197 0.32091 0.0
C2458 C 0.51293 0.12687 0.34379 0.0
C2459 C 0.50673 0.10454 0.34801 0.0
C2460 C 0.47555 0.115 0.33022 0.0
C2461 C 0.4846 0.08798 0.34385 0.0
C2462 C 0.43799 0.10224 0.31281 0.0
C2463 C 0.44593 0.14569 0.31403 0.0
N2464 N 0.46986 0.09353 0.33506 0.0
N2465 N 0.46186 0.1409 0.32099 0.0
H2466 H 0.645 0.5647 0.87452 0.0
H2467 H 0.72016 0.53964 0.79004 0.0
H2468 H 0.61953 0.50313 0.83623 0.0
H2469 H 0.74804 0.58438 0.84822 0.0
H2470 H 0.68283 0.52864 0.80412 0.0
H2471 H 0.68286 0.57477 0.86272 0.0
C2472 C 0.64738 0.55324 0.86378 0.0
C2473 C 0.62908 0.53307 0.85629 0.0
C2474 C 0.69717 0.54098 0.8137 0.0
C2475 C 0.67221 0.54465 0.84249 0.0
C2476 C 0.71849 0.54734 0.80565 0.0
C2477 C 0.73739 0.56345 0.81757 0.0
C2478 C 0.69465 0.55085 0.83378 0.0
C2479 C 0.73413 0.57268 0.83782 0.0
C2480 C 0.66897 0.55899 0.85709 0.0
C2481 C 0.63314 0.51882 0.84244 0.0
N2482 N 0.71315 0.56635 0.84522 0.0
N2483 N 0.65426 0.525 0.83578 0.0
H2484 H 0.4541 0.18276 0.79198 0.0
H2485 H 0.42382 0.07566 0.86807 0.0
H2486 H 0.40358 0.15951 0.84517 0.0
H2487 H 0.48891 0.11718 0.83793 0.0
H2488 H 0.41326 0.10315 0.85624 0.0
H2489 H 0.4642 0.15539 0.8048 0.0
C2490 C 0.44494 0.17177 0.80619 0.0
C2491 C 0.42759 0.1732 0.81713 0.0
C2492 C 0.42988 0.10624 0.85237 0.0
C2493 C 0.43913 0.14182 0.83188 0.0
C2494 C 0.43591 0.09059 0.85907 0.0
C2495 C 0.45728 0.09415 0.85397 0.0
C2496 C 0.44518 0.12533 0.84014 0.0
C2497 C 0.4723 0.11379 0.84231 0.0
C2498 C 0.45078 0.1562 0.81352 0.0
C2499 C 0.41642 0.15855 0.83554 0.0
N2500 N 0.46589 0.12855 0.8356 0.0
N2501 N 0.42233 0.14339 0.84228 0.0
H2502 H 0.79265 0.26772 0.80982 0.0
H2503 H 0.90865 0.34509 0.87413 0.0
H2504 H 0.83868 0.24597 0.83019 0.0
H2505 H 0.86569 0.36933 0.84951 0.0
H2506 H 0.88093 0.30759 0.86206 0.0
H2507 H 0.81738 0.30422 0.82729 0.0
C2508 C 0.80788 0.2706 0.81817 0.0
C2509 C 0.81343 0.2537 0.81904 0.0
C2510 C 0.87747 0.32106 0.85943 0.0
C2511 C 0.84179 0.29529 0.83888 0.0
C2512 C 0.89329 0.34252 0.86638 0.0
C2513 C 0.88962 0.36047 0.8626 0.0
C2514 C 0.85783 0.31747 0.84852 0.0
C2515 C 0.86929 0.35602 0.85264 0.0
C2516 C 0.82194 0.29137 0.82817 0.0
C2517 C 0.83342 0.25829 0.82981 0.0
N2518 N 0.85423 0.33498 0.84575 0.0
N2519 N 0.84688 0.27865 0.8393 0.0
H2520 H 0.45918 0.26408 0.3297 0.0
H2521 H 0.41482 0.34977 0.34911 0.0
H2522 H 0.39348 0.25015 0.30927 0.0
H2523 H 0.48351 0.36668 0.3577 0.0
H2524 H 0.4053 0.3117 0.33873 0.0
H2525 H 0.46714 0.30054 0.34373 0.0
C2526 C 0.44636 0.26863 0.32826 0.0
C2527 C 0.42548 0.25381 0.31863 0.0
C2528 C 0.42242 0.32375 0.34299 0.0
C2529 C 0.43449 0.29564 0.33469 0.0
C2530 C 0.42786 0.34545 0.34903 0.0
C2531 C 0.45003 0.36149 0.35415 0.0
C2532 C 0.43924 0.31806 0.34223 0.0
C2533 C 0.46623 0.35494 0.35372 0.0
C2534 C 0.4509 0.28944 0.33634 0.0
C2535 C 0.40952 0.26063 0.31723 0.0
N2536 N 0.46051 0.33377 0.3478 0.0
N2537 N 0.41436 0.28107 0.32516 0.0
H2538 H 0.73991 0.14453 0.31897 0.0
H2539 H 0.61813 0.12067 0.35405 0.0
H2540 H 0.72098 0.19518 0.31906 0.0
H2541 H 0.6392 0.0716 0.35835 0.0
H2542 H 0.65595 0.14859 0.34252 0.0
H2543 H 0.70321 0.11778 0.33435 0.0
C2544 C 0.72812 0.15009 0.32265 0.0
C2545 C 0.7336 0.17219 0.31836 0.0
C2546 C 0.6523 0.13174 0.34613 0.0
C2547 C 0.69137 0.14159 0.33528 0.0
C2548 C 0.63072 0.11579 0.35276 0.0
C2549 C 0.62541 0.0937 0.35705 0.0
C2550 C 0.66867 0.12554 0.34368 0.0
C2551 C 0.64246 0.08838 0.35514 0.0
C2552 C 0.70711 0.1348 0.33124 0.0
C2553 C 0.7174 0.17831 0.32238 0.0
N2554 N 0.66325 0.10415 0.34846 0.0
N2555 N 0.697 0.16309 0.33067 0.0
H2556 H 0.78831 0.52328 0.32618 0.0
H2557 H 0.91673 0.56763 0.35559 0.0
H2558 H 0.84147 0.58923 0.30875 0.0
H2559 H 0.8655 0.49822 0.35952 0.0
H2560 H 0.88863 0.57692 0.34313 0.0
H2561 H 0.81582 0.51465 0.34233 0.0
C2562 C 0.8058 0.53598 0.32592 0.0
C2563 C 0.81264 0.55717 0.31671 0.0
C2564 C 0.88354 0.55968 0.34683 0.0
C2565 C 0.84416 0.54746 0.33502 0.0
C2566 C 0.89954 0.55436 0.35408 0.0
C2567 C 0.89349 0.53207 0.35848 0.0
C2568 C 0.86131 0.54262 0.34408 0.0
C2569 C 0.87096 0.5156 0.35618 0.0
C2570 C 0.82146 0.53108 0.33516 0.0
C2571 C 0.83546 0.57297 0.31651 0.0
N2572 N 0.8557 0.52121 0.34906 0.0
N2573 N 0.85043 0.56782 0.32561 0.0
H2574 H 0.57509 0.08379 0.8149 0.0
H2575 H 0.70712 0.16309 0.82404 0.0
H2576 H 0.60666 0.13364 0.8682 0.0
H2577 H 0.67562 0.10021 0.78756 0.0
H2578 H 0.67019 0.15644 0.83538 0.0
H2579 H 0.61172 0.09315 0.80028 0.0
C2580 C 0.58967 0.09634 0.82391 0.0
C2581 C 0.58777 0.1073 0.84344 0.0
C2582 C 0.67142 0.14421 0.82476 0.0
C2583 C 0.62984 0.11889 0.82598 0.0
C2584 C 0.69245 0.14805 0.81815 0.0
C2585 C 0.69444 0.13209 0.80499 0.0
C2586 C 0.6523 0.12441 0.81792 0.0
C2587 C 0.67487 0.11287 0.7979 0.0
C2588 C 0.61062 0.10193 0.81528 0.0
C2589 C 0.60738 0.12451 0.85333 0.0
N2590 N 0.65463 0.10954 0.8045 0.0
N2591 N 0.62763 0.12973 0.84456 0.0
H2592 H 0.82989 0.54663 0.8236 0.0
H2593 H 0.91077 0.49574 0.81794 0.0
H2594 H 0.89548 0.58176 0.79283 0.0
H2595 H 0.85769 0.47491 0.86793 0.0
H2596 H 0.90285 0.52434 0.80416 0.0
H2597 H 0.83685 0.5166 0.8348 0.0
C2598 C 0.84566 0.54793 0.81897 0.0
C2599 C 0.86219 0.56682 0.80739 0.0
C2600 C 0.89308 0.5136 0.81828 0.0
C2601 C 0.87023 0.53253 0.82021 0.0
C2602 C 0.89782 0.49744 0.82644 0.0
C2603 C 0.88541 0.48334 0.84475 0.0
C2604 C 0.87551 0.51536 0.82813 0.0
C2605 C 0.86786 0.48557 0.85397 0.0
C2606 C 0.84966 0.53085 0.82551 0.0
C2607 C 0.88232 0.56759 0.80189 0.0
N2608 N 0.86344 0.50128 0.84558 0.0
N2609 N 0.8858 0.55069 0.80838 0.0
H2610 H 0.4462 0.28513 0.82326 0.0
H2611 H 0.49459 0.41646 0.81437 0.0
H2612 H 0.40928 0.31396 0.793 0.0
H2613 H 0.51836 0.38628 0.86375 0.0
H2614 H 0.46609 0.37937 0.80189 0.0
H2615 H 0.47618 0.32262 0.83307 0.0
C2616 C 0.44447 0.29934 0.81848 0.0
C2617 C 0.42512 0.2964 0.80744 0.0
C2618 C 0.47746 0.38091 0.81559 0.0
C2619 C 0.45934 0.33926 0.81864 0.0
C2620 C 0.49357 0.40213 0.82301 0.0
C2621 C 0.50845 0.40457 0.84078 0.0
C2622 C 0.47651 0.36201 0.82566 0.0
C2623 C 0.50708 0.38521 0.85019 0.0
C2624 C 0.46154 0.3207 0.8242 0.0
C2625 C 0.42382 0.31543 0.80168 0.0
N2626 N 0.49137 0.36475 0.84255 0.0
N2627 N 0.4407 0.33607 0.80737 0.0
H2628 H 0.49398 0.62141 0.63833 0.0
H2629 H 0.5876 0.74203 0.68012 0.0
H2630 H 0.56465 0.6454 0.63298 0.0
H2631 H 0.51914 0.72473 0.66957 0.0
H2632 H 0.57915 0.70612 0.66372 0.0
H2633 H 0.50242 0.6588 0.65006 0.0
C2634 C 0.51125 0.63457 0.63939 0.0
C2635 C 0.52863 0.63021 0.63483 0.0
C2636 C 0.56602 0.71026 0.66471 0.0
C2637 C 0.53836 0.67287 0.6485 0.0
C2638 C 0.57089 0.73082 0.67389 0.0
C2639 C 0.55419 0.73656 0.67546 0.0
C2640 C 0.54417 0.69515 0.6575 0.0
C2641 C 0.53252 0.72096 0.66835 0.0
C2642 C 0.51604 0.65589 0.6461 0.0
C2643 C 0.55069 0.64793 0.6364 0.0
N2644 N 0.5281 0.70092 0.65964 0.0
N2645 N 0.55492 0.66841 0.64332 0.0
H2646 H 0.34475 0.92001 0.647 0.0
H2647 H 0.26112 0.7893 0.66306 0.0
H2648 H 0.3651 0.8706 0.63971 0.0
H2649 H 0.24706 0.84012 0.68681 0.0
H2650 H 0.29817 0.81853 0.65092 0.0
H2651 H 0.30737 0.89047 0.65735 0.0
C2652 C 0.34135 0.90294 0.64742 0.0
C2653 C 0.35815 0.8978 0.64255 0.0
C2654 C 0.28688 0.82325 0.65865 0.0
C2655 C 0.31532 0.8639 0.65447 0.0
C2656 C 0.26575 0.8066 0.66562 0.0
C2657 C 0.25067 0.81224 0.67542 0.0
C2658 C 0.29302 0.84574 0.66155 0.0
C2659 C 0.25764 0.83491 0.67846 0.0
C2660 C 0.32 0.88609 0.65345 0.0
C2661 C 0.35271 0.87535 0.64343 0.0
N2662 N 0.27827 0.85083 0.67147 0.0
N2663 N 0.33175 0.85922 0.64929 0.0
H2664 H 0.06896 0.42003 0.62902 0.0
H2665 H 0.19458 0.46824 0.67229 0.0
H2666 H 0.11227 0.4894 0.64655 0.0
H2667 H 0.1464 0.39819 0.66559 0.0
H2668 H 0.16625 0.47718 0.65908 0.0
H2669 H 0.09907 0.41273 0.63768 0.0
C2670 C 0.08486 0.43381 0.63456 0.0
C2671 C 0.08799 0.45536 0.63727 0.0
C2672 C 0.162 0.45987 0.66024 0.0
C2673 C 0.12264 0.44699 0.64736 0.0
C2674 C 0.17811 0.45477 0.66777 0.0
C2675 C 0.17297 0.43247 0.66939 0.0
C2676 C 0.14057 0.44249 0.6545 0.0
C2677 C 0.15135 0.41562 0.6637 0.0
C2678 C 0.10206 0.42958 0.63956 0.0
C2679 C 0.10907 0.47252 0.64434 0.0
N2680 N 0.13597 0.42098 0.65648 0.0
N2681 N 0.12558 0.46793 0.64928 0.0
H2682 H 0.28303 0.8334 0.16633 0.0
H2683 H 0.41408 0.91637 0.17566 0.0
H2684 H 0.31158 0.89776 0.19967 0.0
H2685 H 0.38414 0.86586 0.12269 0.0
H2686 H 0.377 0.90702 0.1888 0.0
H2687 H 0.32051 0.84187 0.15504 0.0
C2688 C 0.29718 0.8492 0.1715 0.0
C2689 C 0.29417 0.86496 0.18386 0.0
C2690 C 0.37859 0.89815 0.17416 0.0
C2691 C 0.33699 0.8747 0.17097 0.0
C2692 C 0.39981 0.90372 0.16636 0.0
C2693 C 0.40232 0.89247 0.14742 0.0
C2694 C 0.35973 0.88086 0.16331 0.0
C2695 C 0.383 0.87518 0.13716 0.0
C2696 C 0.31853 0.85407 0.16491 0.0
C2697 C 0.31312 0.88519 0.19002 0.0
N2698 N 0.36252 0.8699 0.14522 0.0
N2699 N 0.33374 0.88949 0.1835 0.0
H2700 H 0.13187 0.53342 0.15423 0.0
H2701 H 0.0847 0.40526 0.18608 0.0
H2702 H 0.06434 0.48122 0.14112 0.0
H2703 H 0.15527 0.45196 0.1795 0.0
H2704 H 0.07694 0.43457 0.17492 0.0
H2705 H 0.1409 0.50515 0.16761 0.0
C2706 C 0.11894 0.51601 0.15432 0.0
C2707 C 0.09715 0.50964 0.14733 0.0
C2708 C 0.09414 0.43845 0.17597 0.0
C2709 C 0.10728 0.47741 0.16249 0.0
C2710 C 0.09862 0.42173 0.18248 0.0
C2711 C 0.12071 0.42608 0.1836 0.0
C2712 C 0.11182 0.45979 0.17064 0.0
C2713 C 0.138 0.44783 0.17876 0.0
C2714 C 0.12408 0.49995 0.16195 0.0
C2715 C 0.08108 0.48691 0.14735 0.0
N2716 N 0.13318 0.4639 0.17243 0.0
N2717 N 0.08643 0.47163 0.15498 0.0
H2718 H 0.53146 0.69974 0.17746 0.0
H2719 H 0.50469 0.581 0.12864 0.0
H2720 H 0.57919 0.67684 0.17738 0.0
H2721 H 0.4531 0.59515 0.14894 0.0
H2722 H 0.5328 0.61778 0.1428 0.0
H2723 H 0.50282 0.66289 0.16382 0.0
C2724 C 0.5359 0.68696 0.17469 0.0
C2725 C 0.55777 0.69139 0.17858 0.0
C2726 C 0.51532 0.61278 0.14435 0.0
C2727 C 0.5252 0.6494 0.16273 0.0
C2728 C 0.4993 0.59174 0.13646 0.0
C2729 C 0.47659 0.5848 0.13849 0.0
C2730 C 0.50856 0.62713 0.15386 0.0
C2731 C 0.47049 0.59982 0.14745 0.0
C2732 C 0.51955 0.66596 0.16691 0.0
C2733 C 0.56256 0.67419 0.1747 0.0
N2734 N 0.4864 0.6203 0.15492 0.0
N2735 N 0.54645 0.65401 0.16685 0.0
H2736 H 0.15447 0.6973 0.68265 0.0
H2737 H 0.05654 0.57441 0.65082 0.0
H2738 H 0.08449 0.67707 0.68475 0.0
H2739 H 0.1261 0.59342 0.65242 0.0
H2740 H 0.06637 0.6116 0.6647 0.0
H2741 H 0.14438 0.65899 0.6732 0.0
C2742 C 0.13698 0.6848 0.68129 0.0
C2743 C 0.12031 0.69048 0.68437 0.0
C2744 C 0.07948 0.60759 0.66227 0.0
C2745 C 0.10866 0.64658 0.6734 0.0
C2746 C 0.07384 0.5863 0.65457 0.0
C2747 C 0.09049 0.58071 0.65109 0.0
C2748 C 0.10198 0.6235 0.6662 0.0
C2749 C 0.11276 0.59705 0.65512 0.0
C2750 C 0.13123 0.66291 0.67586 0.0
C2751 C 0.09792 0.67351 0.68244 0.0
N2752 N 0.11787 0.61772 0.66249 0.0
N2753 N 0.09277 0.65238 0.67695 0.0
H2754 H 0.30871 0.40493 0.68672 0.0
H2755 H 0.3895 0.53293 0.65377 0.0
H2756 H 0.28488 0.4514 0.67707 0.0
H2757 H 0.40688 0.48151 0.64574 0.0
H2758 H 0.3522 0.50457 0.66674 0.0
H2759 H 0.34619 0.43437 0.67702 0.0
C2760 C 0.31135 0.42137 0.68271 0.0
C2761 C 0.29353 0.42563 0.68256 0.0
C2762 C 0.36427 0.49957 0.66235 0.0
C2763 C 0.33658 0.45948 0.67134 0.0
C2764 C 0.38551 0.5157 0.65498 0.0
C2765 C 0.40147 0.50961 0.64939 0.0
C2766 C 0.359 0.47721 0.66402 0.0
C2767 C 0.3954 0.48706 0.65085 0.0
C2768 C 0.33279 0.43817 0.67707 0.0
C2769 C 0.29808 0.44733 0.67728 0.0
N2770 N 0.37467 0.47169 0.65812 0.0
N2771 N 0.31919 0.46346 0.67181 0.0
H2772 H 0.57748 0.89791 0.69563 0.0
H2773 H 0.45351 0.85193 0.64834 0.0
H2774 H 0.53276 0.82809 0.68117 0.0
H2775 H 0.50476 0.92128 0.64815 0.0
H2776 H 0.48065 0.84223 0.6638 0.0
H2777 H 0.54886 0.90612 0.68298 0.0
C2778 C 0.56156 0.88424 0.68998 0.0
C2779 C 0.55761 0.86227 0.68929 0.0
C2780 C 0.48587 0.85957 0.66051 0.0
C2781 C 0.52473 0.87167 0.67456 0.0
C2782 C 0.47046 0.86509 0.65167 0.0
C2783 C 0.47681 0.88748 0.64767 0.0
C2784 C 0.50776 0.87661 0.6652 0.0
C2785 C 0.49898 0.9039 0.65187 0.0
C2786 C 0.54524 0.88898 0.68264 0.0
C2787 C 0.53657 0.84528 0.68189 0.0
N2788 N 0.51362 0.89815 0.66054 0.0
N2789 N 0.52092 0.85035 0.67469 0.0
H2790 H 0.24341 0.39669 0.18345 0.0
H2791 H 0.3624 0.48942 0.13581 0.0
H2792 H 0.25868 0.46323 0.16472 0.0
H2793 H 0.34261 0.41978 0.14294 0.0
H2794 H 0.32482 0.48048 0.14716 0.0
H2795 H 0.28005 0.40514 0.16965 0.0
C2796 C 0.25423 0.41291 0.176 0.0
C2797 C 0.24767 0.42905 0.17462 0.0
C2798 C 0.32869 0.46715 0.14612 0.0
C2799 C 0.29008 0.43916 0.15954 0.0
C2800 C 0.35014 0.47224 0.13963 0.0
C2801 C 0.35572 0.45534 0.13848 0.0
C2802 C 0.31273 0.44504 0.15165 0.0
C2803 C 0.33911 0.43337 0.14359 0.0
C2804 C 0.27531 0.41783 0.16834 0.0
C2805 C 0.26301 0.45024 0.16596 0.0
N2806 N 0.31842 0.42889 0.15008 0.0
N2807 N 0.28349 0.45467 0.15871 0.0
H2808 H 0.58275 0.83177 0.14869 0.0
H2809 H 0.49698 0.8764 0.15355 0.0
H2810 H 0.52603 0.80471 0.19472 0.0
H2811 H 0.56495 0.91777 0.13043 0.0
H2812 H 0.50553 0.84732 0.16397 0.0
H2813 H 0.57505 0.86131 0.13785 0.0
C2814 C 0.56904 0.83226 0.157 0.0
C2815 C 0.55542 0.81601 0.17323 0.0
C2816 C 0.51856 0.86276 0.15659 0.0
C2817 C 0.54588 0.8492 0.15988 0.0
C2818 C 0.51367 0.87933 0.1505 0.0
C2819 C 0.5303 0.89959 0.14116 0.0
C2820 C 0.54015 0.86633 0.15306 0.0
C2821 C 0.55166 0.90244 0.13769 0.0
C2822 C 0.56447 0.84901 0.15051 0.0
C2823 C 0.53709 0.81695 0.18227 0.0
N2824 N 0.55597 0.88594 0.14359 0.0
N2825 N 0.53282 0.83321 0.17544 0.0
H2826 H 0.11081 0.61958 0.15845 0.0
H2827 H 0.15549 0.74978 0.14911 0.0
H2828 H 0.07017 0.64573 0.13178 0.0
H2829 H 0.18039 0.72142 0.19943 0.0
H2830 H 0.12663 0.71227 0.13831 0.0
H2831 H 0.13961 0.6575 0.16862 0.0
C2832 C 0.10801 0.6333 0.15456 0.0
C2833 C 0.08803 0.62949 0.14432 0.0
C2834 C 0.1383 0.71434 0.15188 0.0
C2835 C 0.1209 0.67283 0.15588 0.0
C2836 C 0.15464 0.73582 0.15835 0.0
C2837 C 0.17006 0.73891 0.17578 0.0
C2838 C 0.13771 0.69583 0.16251 0.0
C2839 C 0.16877 0.71989 0.18603 0.0
C2840 C 0.12439 0.6549 0.16051 0.0
C2841 C 0.08528 0.64791 0.13977 0.0
N2842 N 0.15293 0.69917 0.17921 0.0
N2843 N 0.10157 0.66883 0.14553 0.0
loop_
_geom_bond_atom_site_label_1
_geom_bond_atom_site_label_2
_geom_bond_distance
_geom_bond_site_symmetry_2
_ccdc_geom_bond_type
Co0 O3 1.970 . S
Co0 N17 1.989 . S
Co0 O25 1.967 . S
Co0 O32 1.920 . S
Co1 O4 1.966 . S
Co1 N10 2.022 . S
Co1 N18 1.993 . S
Co1 O26 1.941 . S
C2 O3 1.258 1_556 S
C2 O4 1.263 1_556 S
O3 Co0 1.970 . S
O3 C2 1.258 1_554 S
O4 Co1 1.966 . S
O4 C2 1.263 1_554 S
C5 O6 1.235 . S
C5 O32 1.289 . S
O6 C5 1.235 . S
C7 C9 1.400 . S
C7 N10 1.351 . S
C7 C12 1.501 1_554 S
C8 C9 1.387 . S
C8 N11 1.341 . S
C9 C7 1.400 . S
C9 C8 1.387 . S
N10 Co1 2.022 . S
N10 C7 1.351 . S
N10 N11 1.365 . S
N11 C8 1.341 . S
N11 N10 1.365 . S
N11 H31 0.862 . S
C12 C7 1.501 1_556 S
C12 H13 0.961 . S
C12 H14 0.972 . S
C12 H15 0.960 . S
H13 C12 0.961 . S
H14 C12 0.972 . S
H15 C12 0.960 . S
C16 N17 1.342 . S
C16 C20 1.401 . S
C16 C21 1.499 . S
N17 Co0 1.989 . S
N17 C16 1.342 . S
N17 N18 1.388 . S
N18 Co1 1.993 . S
N18 N17 1.388 . S
N18 C19 1.346 . S
C19 N18 1.346 . S
C19 C20 1.396 . S
C19 C29 1.510 . S
C20 C16 1.401 . S
C20 C19 1.396 . S
C21 C16 1.499 . S
C21 H22 0.959 . S
C21 H23 0.960 . S
C21 H24 0.961 . S
H22 C21 0.959 . S
H23 C21 0.960 . S
H24 C21 0.961 . S
O25 Co0 1.967 . S
O25 C33 1.258 . S
O26 Co1 1.941 . S
O26 C33 1.266 . S
H27 C29 0.959 . S
H28 C29 0.961 . S
C29 C19 1.510 . S
C29 H27 0.959 . S
C29 H28 0.961 . S
C29 H30 0.960 . S
H30 C29 0.960 . S
H31 N11 0.862 . S
O32 Co0 1.920 . S
O32 C5 1.289 . S
C33 O25 1.258 . S
C33 O26 1.266 . S
Co34 O37 1.970 . S
Co34 N51 1.989 . S
Co34 O59 1.967 . S
Co34 O66 1.920 . S
Co35 O38 1.966 . S
Co35 N44 2.022 . S
Co35 N52 1.993 . S
Co35 O60 1.941 . S
C36 O37 1.258 1_556 S
C36 O38 1.263 1_556 S
O37 Co34 1.970 . S
O37 C36 1.258 1_554 S
O38 Co35 1.966 . S
O38 C36 1.263 1_554 S
C39 O40 1.235 . S
C39 O66 1.289 . S
O40 C39 1.235 . S
C41 C43 1.400 . S
C41 N44 1.351 . S
C41 C46 1.501 1_554 S
C42 C43 1.387 . S
C42 N45 1.341 . S
C43 C41 1.400 . S
C43 C42 1.387 . S
N44 Co35 2.022 . S
N44 C41 1.351 . S
N44 N45 1.365 . S
N45 C42 1.341 . S
N45 N44 1.365 . S
N45 H65 0.862 . S
C46 C41 1.501 1_556 S
C46 H47 0.961 . S
C46 H48 0.972 . S
C46 H49 0.960 . S
H47 C46 0.961 . S
H48 C46 0.972 . S
H49 C46 0.960 . S
C50 N51 1.342 . S
C50 C54 1.401 . S
C50 C55 1.499 . S
N51 Co34 1.989 . S
N51 C50 1.342 . S
N51 N52 1.388 . S
N52 Co35 1.993 . S
N52 N51 1.388 . S
N52 C53 1.346 . S
C53 N52 1.346 . S
C53 C54 1.396 . S
C53 C63 1.510 . S
C54 C50 1.401 . S
C54 C53 1.396 . S
C55 C50 1.499 . S
C55 H56 0.959 . S
C55 H57 0.960 . S
C55 H58 0.961 . S
H56 C55 0.959 . S
H57 C55 0.960 . S
H58 C55 0.961 . S
O59 Co34 1.967 . S
O59 C67 1.258 . S
O60 Co35 1.941 . S
O60 C67 1.266 . S
H61 C63 0.959 . S
H62 C63 0.961 . S
C63 C53 1.510 . S
C63 H61 0.959 . S
C63 H62 0.961 . S
C63 H64 0.960 . S
H64 C63 0.960 . S
H65 N45 0.862 . S
O66 Co34 1.920 . S
O66 C39 1.289 . S
C67 O59 1.258 . S
C67 O60 1.266 . S
Co68 O71 1.970 . S
Co68 N85 1.989 . S
Co68 O93 1.967 . S
Co68 O100 1.920 . S
Co69 O72 1.966 . S
Co69 N78 2.022 . S
Co69 N86 1.993 . S
Co69 O94 1.941 . S
C70 O71 1.258 1_556 S
C70 O72 1.263 1_556 S
O71 Co68 1.970 . S
O71 C70 1.258 1_554 S
O72 Co69 1.966 . S
O72 C70 1.263 1_554 S
C73 O74 1.235 . S
C73 O100 1.289 . S
O74 C73 1.235 . S
C75 C77 1.400 . S
C75 N78 1.351 . S
C75 C80 1.501 1_554 S
C76 C77 1.387 . S
C76 N79 1.341 . S
C77 C75 1.400 . S
C77 C76 1.387 . S
N78 Co69 2.022 . S
N78 C75 1.351 . S
N78 N79 1.365 . S
N79 C76 1.341 . S
N79 N78 1.365 . S
N79 H99 0.862 . S
C80 C75 1.501 1_556 S
C80 H81 0.961 . S
C80 H82 0.972 . S
C80 H83 0.960 . S
H81 C80 0.961 . S
H82 C80 0.972 . S
H83 C80 0.960 . S
C84 N85 1.342 . S
C84 C88 1.401 . S
C84 C89 1.499 . S
N85 Co68 1.989 . S
N85 C84 1.342 . S
N85 N86 1.388 . S
N86 Co69 1.993 . S
N86 N85 1.388 . S
N86 C87 1.346 . S
C87 N86 1.346 . S
C87 C88 1.396 . S
C87 C97 1.510 . S
C88 C84 1.401 . S
C88 C87 1.396 . S
C89 C84 1.499 . S
C89 H90 0.959 . S
C89 H91 0.960 . S
C89 H92 0.961 . S
H90 C89 0.959 . S
H91 C89 0.960 . S
H92 C89 0.961 . S
O93 Co68 1.967 . S
O93 C101 1.258 . S
O94 Co69 1.941 . S
O94 C101 1.266 . S
H95 C97 0.959 . S
H96 C97 0.961 . S
C97 C87 1.510 . S
C97 H95 0.959 . S
C97 H96 0.961 . S
C97 H98 0.960 . S
H98 C97 0.960 . S
H99 N79 0.862 . S
O100 Co68 1.920 . S
O100 C73 1.289 . S
C101 O93 1.258 . S
C101 O94 1.266 . S
Co102 O105 1.970 . S
Co102 N119 1.989 . S
Co102 O127 1.967 . S
Co102 O134 1.920 . S
Co103 O106 1.966 . S
Co103 N112 2.022 . S
Co103 N120 1.993 . S
Co103 O128 1.941 . S
C104 O105 1.258 . S
C104 O106 1.263 . S
O105 Co102 1.970 . S
O105 C104 1.258 . S
O106 Co103 1.966 . S
O106 C104 1.263 . S
C107 O108 1.235 . S
C107 O134 1.289 . S
O108 C107 1.235 . S
C109 C111 1.400 . S
C109 N112 1.351 . S
C109 C114 1.501 . S
C110 C111 1.387 . S
C110 N113 1.341 . S
C111 C109 1.400 . S
C111 C110 1.387 . S
N112 Co103 2.022 . S
N112 C109 1.351 . S
N112 N113 1.365 . S
N113 C110 1.341 . S
N113 N112 1.365 . S
N113 H133 0.862 . S
C114 C109 1.501 . S
C114 H115 0.961 . S
C114 H116 0.961 . S
C114 H117 0.960 . S
H115 C114 0.961 . S
H116 C114 0.961 . S
H117 C114 0.960 . S
C118 N119 1.342 . S
C118 C122 1.401 . S
C118 C123 1.499 . S
N119 Co102 1.989 . S
N119 C118 1.342 . S
N119 N120 1.388 . S
N120 Co103 1.993 . S
N120 N119 1.388 . S
N120 C121 1.346 . S
C121 N120 1.346 . S
C121 C122 1.396 . S
C121 C131 1.510 . S
C122 C118 1.401 . S
C122 C121 1.396 . S
C123 C118 1.499 . S
C123 H124 0.959 . S
C123 H125 0.960 . S
C123 H126 0.961 . S
H124 C123 0.959 . S
H125 C123 0.960 . S
H126 C123 0.961 . S
O127 Co102 1.967 . S
O127 C135 1.258 . S
O128 Co103 1.941 . S
O128 C135 1.266 . S
H129 C131 0.959 . S
H130 C131 0.961 . S
C131 C121 1.510 . S
C131 H129 0.959 . S
C131 H130 0.961 . S
C131 H132 0.960 . S
H132 C131 0.960 . S
H133 N113 0.862 . S
O134 Co102 1.920 . S
O134 C107 1.289 . S
C135 O127 1.258 . S
C135 O128 1.266 . S
Co136 O139 1.970 . S
Co136 N153 1.989 . S
Co136 O161 1.967 . S
Co136 O168 1.920 . S
Co137 O140 1.966 . S
Co137 N146 2.022 . S
Co137 N154 1.993 . S
Co137 O162 1.941 . S
C138 O139 1.258 . S
C138 O140 1.263 . S
O139 Co136 1.970 . S
O139 C138 1.258 . S
O140 Co137 1.966 . S
O140 C138 1.263 . S
C141 O142 1.235 . S
C141 O168 1.289 . S
O142 C141 1.235 . S
C143 C145 1.400 . S
C143 N146 1.351 . S
C143 C148 1.501 . S
C144 C145 1.387 . S
C144 N147 1.341 . S
C145 C143 1.400 . S
C145 C144 1.387 . S
N146 Co137 2.022 . S
N146 C143 1.351 . S
N146 N147 1.365 . S
N147 C144 1.341 . S
N147 N146 1.365 . S
N147 H167 0.862 . S
C148 C143 1.501 . S
C148 H149 0.961 . S
C148 H150 0.961 . S
C148 H151 0.960 . S
H149 C148 0.961 . S
H150 C148 0.961 . S
H151 C148 0.960 . S
C152 N153 1.342 . S
C152 C156 1.401 . S
C152 C157 1.499 . S
N153 Co136 1.989 . S
N153 C152 1.342 . S
N153 N154 1.388 . S
N154 Co137 1.993 . S
N154 N153 1.388 . S
N154 C155 1.346 . S
C155 N154 1.346 . S
C155 C156 1.396 . S
C155 C165 1.510 . S
C156 C152 1.401 . S
C156 C155 1.396 . S
C157 C152 1.499 . S
C157 H158 0.959 . S
C157 H159 0.960 . S
C157 H160 0.961 . S
H158 C157 0.959 . S
H159 C157 0.960 . S
H160 C157 0.961 . S
O161 Co136 1.967 . S
O161 C169 1.258 . S
O162 Co137 1.941 . S
O162 C169 1.266 . S
H163 C165 0.959 . S
H164 C165 0.961 . S
C165 C155 1.510 . S
C165 H163 0.959 . S
C165 H164 0.961 . S
C165 H166 0.960 . S
H166 C165 0.960 . S
H167 N147 0.862 . S
O168 Co136 1.920 . S
O168 C141 1.289 . S
C169 O161 1.258 . S
C169 O162 1.266 . S
Co170 O173 1.970 . S
Co170 N187 1.989 . S
Co170 O195 1.967 . S
Co170 O202 1.920 . S
Co171 O174 1.966 . S
Co171 N180 2.022 . S
Co171 N188 1.993 . S
Co171 O196 1.941 . S
C172 O173 1.258 . S
C172 O174 1.263 . S
O173 Co170 1.970 . S
O173 C172 1.258 . S
O174 Co171 1.966 . S
O174 C172 1.263 . S
C175 O176 1.235 . S
C175 O202 1.289 . S
O176 C175 1.235 . S
C177 C179 1.400 . S
C177 N180 1.351 . S
C177 C182 1.501 . S
C178 C179 1.387 . S
C178 N181 1.341 . S
C179 C177 1.400 . S
C179 C178 1.387 . S
N180 Co171 2.022 . S
N180 C177 1.351 . S
N180 N181 1.365 . S
N181 C178 1.341 . S
N181 N180 1.365 . S
N181 H201 0.862 . S
C182 C177 1.501 . S
C182 H183 0.961 . S
C182 H184 0.961 . S
C182 H185 0.960 . S
H183 C182 0.961 . S
H184 C182 0.961 . S
H185 C182 0.960 . S
C186 N187 1.342 . S
C186 C190 1.401 . S
C186 C191 1.499 . S
N187 Co170 1.989 . S
N187 C186 1.342 . S
N187 N188 1.388 . S
N188 Co171 1.993 . S
N188 N187 1.388 . S
N188 C189 1.346 . S
C189 N188 1.346 . S
C189 C190 1.396 . S
C189 C199 1.510 . S
C190 C186 1.401 . S
C190 C189 1.396 . S
C191 C186 1.499 . S
C191 H192 0.959 . S
C191 H193 0.960 . S
C191 H194 0.961 . S
H192 C191 0.959 . S
H193 C191 0.960 . S
H194 C191 0.961 . S
O195 Co170 1.967 . S
O195 C203 1.258 . S
O196 Co171 1.941 . S
O196 C203 1.266 . S
H197 C199 0.959 . S
H198 C199 0.961 . S
C199 C189 1.510 . S
C199 H197 0.959 . S
C199 H198 0.961 . S
C199 H200 0.960 . S
H200 C199 0.960 . S
H201 N181 0.862 . S
O202 Co170 1.920 . S
O202 C175 1.289 . S
C203 O195 1.258 . S
C203 O196 1.266 . S
Co204 O207 1.970 . S
Co204 N221 1.989 . S
Co204 O229 1.967 . S
Co204 O236 1.920 . S
Co205 O208 1.966 . S
Co205 N214 2.022 . S
Co205 N222 1.993 . S
Co205 O230 1.941 . S
C206 O207 1.258 1_554 S
C206 O208 1.263 1_554 S
O207 Co204 1.970 . S
O207 C206 1.258 1_556 S
O208 Co205 1.966 . S
O208 C206 1.263 1_556 S
C209 O210 1.235 . S
C209 O236 1.289 . S
O210 C209 1.235 . S
C211 C213 1.400 . S
C211 N214 1.351 . S
C211 C216 1.501 1_556 S
C212 C213 1.387 . S
C212 N215 1.341 . S
C213 C211 1.400 . S
C213 C212 1.387 . S
N214 Co205 2.022 . S
N214 C211 1.351 . S
N214 N215 1.365 . S
N215 C212 1.341 . S
N215 N214 1.365 . S
N215 H235 0.862 . S
C216 C211 1.501 1_554 S
C216 H217 0.961 . S
C216 H218 0.972 . S
C216 H219 0.960 . S
H217 C216 0.961 . S
H218 C216 0.972 . S
H219 C216 0.960 . S
C220 N221 1.342 . S
C220 C224 1.401 . S
C220 C225 1.499 . S
N221 Co204 1.989 . S
N221 C220 1.342 . S
N221 N222 1.388 . S
N222 Co205 1.993 . S
N222 N221 1.388 . S
N222 C223 1.346 . S
C223 N222 1.346 . S
C223 C224 1.396 . S
C223 C233 1.510 . S
C224 C220 1.401 . S
C224 C223 1.396 . S
C225 C220 1.499 . S
C225 H226 0.959 . S
C225 H227 0.960 . S
C225 H228 0.961 . S
H226 C225 0.959 . S
H227 C225 0.960 . S
H228 C225 0.961 . S
O229 Co204 1.967 . S
O229 C237 1.258 . S
O230 Co205 1.941 . S
O230 C237 1.266 . S
H231 C233 0.959 . S
H232 C233 0.961 . S
C233 C223 1.510 . S
C233 H231 0.959 . S
C233 H232 0.961 . S
C233 H234 0.960 . S
H234 C233 0.960 . S
H235 N215 0.862 . S
O236 Co204 1.920 . S
O236 C209 1.289 . S
C237 O229 1.258 . S
C237 O230 1.266 . S
Co238 O241 1.970 . S
Co238 N255 1.989 . S
Co238 O263 1.967 . S
Co238 O270 1.920 . S
Co239 O242 1.966 . S
Co239 N248 2.022 . S
Co239 N256 1.993 . S
Co239 O264 1.941 . S
C240 O241 1.258 1_554 S
C240 O242 1.263 1_554 S
O241 Co238 1.970 . S
O241 C240 1.258 1_556 S
O242 Co239 1.966 . S
O242 C240 1.263 1_556 S
C243 O244 1.235 . S
C243 O270 1.289 . S
O244 C243 1.235 . S
C245 C247 1.400 . S
C245 N248 1.351 . S
C245 C250 1.501 1_556 S
C246 C247 1.387 . S
C246 N249 1.341 . S
C247 C245 1.400 . S
C247 C246 1.387 . S
N248 Co239 2.022 . S
N248 C245 1.351 . S
N248 N249 1.365 . S
N249 C246 1.341 . S
N249 N248 1.365 . S
N249 H269 0.862 . S
C250 C245 1.501 1_554 S
C250 H251 0.961 . S
C250 H252 0.972 . S
C250 H253 0.960 . S
H251 C250 0.961 . S
H252 C250 0.972 . S
H253 C250 0.960 . S
C254 N255 1.342 . S
C254 C258 1.401 . S
C254 C259 1.499 . S
N255 Co238 1.989 . S
N255 C254 1.342 . S
N255 N256 1.388 . S
N256 Co239 1.993 . S
N256 N255 1.388 . S
N256 C257 1.346 . S
C257 N256 1.346 . S
C257 C258 1.396 . S
C257 C267 1.510 . S
C258 C254 1.401 . S
C258 C257 1.396 . S
C259 C254 1.499 . S
C259 H260 0.959 . S
C259 H261 0.960 . S
C259 H262 0.961 . S
H260 C259 0.959 . S
H261 C259 0.960 . S
H262 C259 0.961 . S
O263 Co238 1.967 . S
O263 C271 1.258 . S
O264 Co239 1.941 . S
O264 C271 1.266 . S
H265 C267 0.959 . S
H266 C267 0.961 . S
C267 C257 1.510 . S
C267 H265 0.959 . S
C267 H266 0.961 . S
C267 H268 0.960 . S
H268 C267 0.960 . S
H269 N249 0.862 . S
O270 Co238 1.920 . S
O270 C243 1.289 . S
C271 O263 1.258 . S
C271 O264 1.266 . S
Co272 O275 1.970 . S
Co272 N289 1.989 . S
Co272 O297 1.967 . S
Co272 O304 1.920 . S
Co273 O276 1.966 . S
Co273 N282 2.022 . S
Co273 N290 1.993 . S
Co273 O298 1.941 . S
C274 O275 1.258 1_554 S
C274 O276 1.263 1_554 S
O275 Co272 1.970 . S
O275 C274 1.258 1_556 S
O276 Co273 1.966 . S
O276 C274 1.263 1_556 S
C277 O278 1.235 . S
C277 O304 1.289 . S
O278 C277 1.235 . S
C279 C281 1.400 . S
C279 N282 1.351 . S
C279 C284 1.501 1_556 S
C280 C281 1.387 . S
C280 N283 1.341 . S
C281 C279 1.400 . S
C281 C280 1.387 . S
N282 Co273 2.022 . S
N282 C279 1.351 . S
N282 N283 1.365 . S
N283 C280 1.341 . S
N283 N282 1.365 . S
N283 H303 0.862 . S
C284 C279 1.501 1_554 S
C284 H285 0.961 . S
C284 H286 0.972 . S
C284 H287 0.960 . S
H285 C284 0.961 . S
H286 C284 0.972 . S
H287 C284 0.960 . S
C288 N289 1.342 . S
C288 C292 1.401 . S
C288 C293 1.499 . S
N289 Co272 1.989 . S
N289 C288 1.342 . S
N289 N290 1.388 . S
N290 Co273 1.993 . S
N290 N289 1.388 . S
N290 C291 1.346 . S
C291 N290 1.346 . S
C291 C292 1.396 . S
C291 C301 1.510 . S
C292 C288 1.401 . S
C292 C291 1.396 . S
C293 C288 1.499 . S
C293 H294 0.959 . S
C293 H295 0.960 . S
C293 H296 0.961 . S
H294 C293 0.959 . S
H295 C293 0.960 . S
H296 C293 0.961 . S
O297 Co272 1.967 . S
O297 C305 1.258 . S
O298 Co273 1.941 . S
O298 C305 1.266 . S
H299 C301 0.959 . S
H300 C301 0.961 . S
C301 C291 1.510 . S
C301 H299 0.959 . S
C301 H300 0.961 . S
C301 H302 0.960 . S
H302 C301 0.960 . S
H303 N283 0.862 . S
O304 Co272 1.920 . S
O304 C277 1.289 . S
C305 O297 1.258 . S
C305 O298 1.266 . S
Co306 O309 1.970 . S
Co306 N323 1.989 . S
Co306 O331 1.967 . S
Co306 O338 1.920 . S
Co307 O310 1.966 . S
Co307 N316 2.022 . S
Co307 N324 1.993 . S
Co307 O332 1.941 . S
C308 O309 1.258 . S
C308 O310 1.263 . S
O309 Co306 1.970 . S
O309 C308 1.258 . S
O310 Co307 1.966 . S
O310 C308 1.263 . S
C311 O312 1.235 . S
C311 O338 1.289 . S
O312 C311 1.235 . S
C313 C315 1.400 . S
C313 N316 1.351 . S
C313 C318 1.501 . S
C314 C315 1.387 . S
C314 N317 1.341 . S
C315 C313 1.400 . S
C315 C314 1.387 . S
N316 Co307 2.022 . S
N316 C313 1.351 . S
N316 N317 1.365 . S
N317 C314 1.341 . S
N317 N316 1.365 . S
N317 H337 0.862 . S
C318 C313 1.501 . S
C318 H319 0.961 . S
C318 H320 0.961 . S
C318 H321 0.960 . S
H319 C318 0.961 . S
H320 C318 0.961 . S
H321 C318 0.960 . S
C322 N323 1.342 . S
C322 C326 1.401 . S
C322 C327 1.499 . S
N323 Co306 1.989 . S
N323 C322 1.342 . S
N323 N324 1.388 . S
N324 Co307 1.993 . S
N324 N323 1.388 . S
N324 C325 1.346 . S
C325 N324 1.346 . S
C325 C326 1.396 . S
C325 C335 1.510 . S
C326 C322 1.401 . S
C326 C325 1.396 . S
C327 C322 1.499 . S
C327 H328 0.959 . S
C327 H329 0.960 . S
C327 H330 0.961 . S
H328 C327 0.959 . S
H329 C327 0.960 . S
H330 C327 0.961 . S
O331 Co306 1.967 . S
O331 C339 1.258 . S
O332 Co307 1.941 . S
O332 C339 1.266 . S
H333 C335 0.959 . S
H334 C335 0.961 . S
C335 C325 1.510 . S
C335 H333 0.959 . S
C335 H334 0.961 . S
C335 H336 0.960 . S
H336 C335 0.960 . S
H337 N317 0.862 . S
O338 Co306 1.920 . S
O338 C311 1.289 . S
C339 O331 1.258 . S
C339 O332 1.266 . S
Co340 O343 1.970 . S
Co340 N357 1.989 . S
Co340 O365 1.967 . S
Co340 O372 1.920 . S
Co341 O344 1.966 . S
Co341 N350 2.022 . S
Co341 N358 1.993 . S
Co341 O366 1.941 . S
C342 O343 1.258 . S
C342 O344 1.263 . S
O343 Co340 1.970 . S
O343 C342 1.258 . S
O344 Co341 1.966 . S
O344 C342 1.263 . S
C345 O346 1.235 . S
C345 O372 1.289 . S
O346 C345 1.235 . S
C347 C349 1.400 . S
C347 N350 1.351 . S
C347 C352 1.501 . S
C348 C349 1.387 . S
C348 N351 1.341 . S
C349 C347 1.400 . S
C349 C348 1.387 . S
N350 Co341 2.022 . S
N350 C347 1.351 . S
N350 N351 1.365 . S
N351 C348 1.341 . S
N351 N350 1.365 . S
N351 H371 0.862 . S
C352 C347 1.501 . S
C352 H353 0.961 . S
C352 H354 0.961 . S
C352 H355 0.960 . S
H353 C352 0.961 . S
H354 C352 0.961 . S
H355 C352 0.960 . S
C356 N357 1.342 . S
C356 C360 1.401 . S
C356 C361 1.499 . S
N357 Co340 1.989 . S
N357 C356 1.342 . S
N357 N358 1.388 . S
N358 Co341 1.993 . S
N358 N357 1.388 . S
N358 C359 1.346 . S
C359 N358 1.346 . S
C359 C360 1.396 . S
C359 C369 1.510 . S
C360 C356 1.401 . S
C360 C359 1.396 . S
C361 C356 1.499 . S
C361 H362 0.959 . S
C361 H363 0.960 . S
C361 H364 0.961 . S
H362 C361 0.959 . S
H363 C361 0.960 . S
H364 C361 0.961 . S
O365 Co340 1.967 . S
O365 C373 1.258 . S
O366 Co341 1.941 . S
O366 C373 1.266 . S
H367 C369 0.959 . S
H368 C369 0.961 . S
C369 C359 1.510 . S
C369 H367 0.959 . S
C369 H368 0.961 . S
C369 H370 0.960 . S
H370 C369 0.960 . S
H371 N351 0.862 . S
O372 Co340 1.920 . S
O372 C345 1.289 . S
C373 O365 1.258 . S
C373 O366 1.266 . S
Co374 O377 1.970 . S
Co374 N391 1.989 . S
Co374 O399 1.967 . S
Co374 O406 1.920 . S
Co375 O378 1.966 . S
Co375 N384 2.022 . S
Co375 N392 1.993 . S
Co375 O400 1.941 . S
C376 O377 1.258 . S
C376 O378 1.263 . S
O377 Co374 1.970 . S
O377 C376 1.258 . S
O378 Co375 1.966 . S
O378 C376 1.263 . S
C379 O380 1.235 . S
C379 O406 1.289 . S
O380 C379 1.235 . S
C381 C383 1.400 . S
C381 N384 1.351 . S
C381 C386 1.501 . S
C382 C383 1.387 . S
C382 N385 1.341 . S
C383 C381 1.400 . S
C383 C382 1.387 . S
N384 Co375 2.022 . S
N384 C381 1.351 . S
N384 N385 1.365 . S
N385 C382 1.341 . S
N385 N384 1.365 . S
N385 H405 0.862 . S
C386 C381 1.501 . S
C386 H387 0.961 . S
C386 H388 0.961 . S
C386 H389 0.960 . S
H387 C386 0.961 . S
H388 C386 0.961 . S
H389 C386 0.960 . S
C390 N391 1.342 . S
C390 C394 1.401 . S
C390 C395 1.499 . S
N391 Co374 1.989 . S
N391 C390 1.342 . S
N391 N392 1.388 . S
N392 Co375 1.993 . S
N392 N391 1.388 . S
N392 C393 1.346 . S
C393 N392 1.346 . S
C393 C394 1.396 . S
C393 C403 1.510 . S
C394 C390 1.401 . S
C394 C393 1.396 . S
C395 C390 1.499 . S
C395 H396 0.959 . S
C395 H397 0.960 . S
C395 H398 0.961 . S
H396 C395 0.959 . S
H397 C395 0.960 . S
H398 C395 0.961 . S
O399 Co374 1.967 . S
O399 C407 1.258 . S
O400 Co375 1.941 . S
O400 C407 1.266 . S
H401 C403 0.959 . S
H402 C403 0.961 . S
C403 C393 1.510 . S
C403 H401 0.959 . S
C403 H402 0.961 . S
C403 H404 0.960 . S
H404 C403 0.960 . S
H405 N385 0.862 . S
O406 Co374 1.920 . S
O406 C379 1.289 . S
C407 O399 1.258 . S
C407 O400 1.266 . S
Co408 O411 1.970 . S
Co408 N425 1.989 . S
Co408 O433 1.967 . S
Co408 O440 1.920 . S
Co409 O412 1.966 . S
Co409 N418 2.022 . S
Co409 N426 1.993 . S
Co409 O434 1.941 . S
C410 O411 1.258 . S
C410 O412 1.263 . S
O411 Co408 1.970 . S
O411 C410 1.258 . S
O412 Co409 1.966 . S
O412 C410 1.263 . S
C413 O414 1.264 . S
C413 O440 1.262 1_455 S
O414 C413 1.264 . S
C415 C417 1.400 . S
C415 N418 1.351 . S
C415 C420 1.501 . S
C416 C417 1.387 . S
C416 N419 1.341 . S
C417 C415 1.400 . S
C417 C416 1.387 . S
N418 Co409 2.022 . S
N418 C415 1.351 . S
N418 N419 1.365 . S
N419 C416 1.341 . S
N419 N418 1.365 . S
N419 H439 0.862 . S
C420 C415 1.501 . S
C420 H421 0.961 . S
C420 H422 0.961 . S
C420 H423 0.960 . S
H421 C420 0.961 . S
H422 C420 0.961 . S
H423 C420 0.960 . S
C424 N425 1.342 . S
C424 C428 1.401 . S
C424 C429 1.499 . S
N425 Co408 1.989 . S
N425 C424 1.342 . S
N425 N426 1.388 . S
N426 Co409 1.993 . S
N426 N425 1.388 . S
N426 C427 1.346 . S
C427 N426 1.346 . S
C427 C428 1.396 . S
C427 C437 1.510 . S
C428 C424 1.401 . S
C428 C427 1.396 . S
C429 C424 1.499 . S
C429 H430 0.959 . S
C429 H431 0.960 . S
C429 H432 0.961 . S
H430 C429 0.959 . S
H431 C429 0.960 . S
H432 C429 0.961 . S
O433 Co408 1.967 . S
O433 C441 1.258 . S
O434 Co409 1.941 . S
O434 C441 1.266 . S
H435 C437 0.959 . S
H436 C437 0.961 . S
C437 C427 1.510 . S
C437 H435 0.959 . S
C437 H436 0.961 . S
C437 H438 0.960 . S
H438 C437 0.960 . S
H439 N419 0.862 . S
O440 Co408 1.920 . S
O440 C413 1.262 1_655 S
C441 O433 1.258 . S
C441 O434 1.266 . S
Co442 O445 1.970 . S
Co442 N459 1.989 . S
Co442 O467 1.967 . S
Co442 O474 1.920 . S
Co443 O446 1.966 . S
Co443 N452 2.022 . S
Co443 N460 1.993 . S
Co443 O468 1.941 . S
C444 O445 1.258 . S
C444 O446 1.263 . S
O445 Co442 1.970 . S
O445 C444 1.258 . S
O446 Co443 1.966 . S
O446 C444 1.263 . S
C447 O448 1.235 . S
C447 O474 1.289 . S
O448 C447 1.235 . S
C449 C451 1.400 . S
C449 N452 1.351 . S
C449 C454 1.501 . S
C450 C451 1.387 . S
C450 N453 1.341 . S
C451 C449 1.400 . S
C451 C450 1.387 . S
N452 Co443 2.022 . S
N452 C449 1.351 . S
N452 N453 1.365 . S
N453 C450 1.341 . S
N453 N452 1.365 . S
N453 H473 0.862 . S
C454 C449 1.501 . S
C454 H455 0.961 . S
C454 H456 0.961 . S
C454 H457 0.960 . S
H455 C454 0.961 . S
H456 C454 0.961 . S
H457 C454 0.960 . S
C458 N459 1.342 . S
C458 C462 1.401 . S
C458 C463 1.499 . S
N459 Co442 1.989 . S
N459 C458 1.342 . S
N459 N460 1.388 . S
N460 Co443 1.993 . S
N460 N459 1.388 . S
N460 C461 1.346 . S
C461 N460 1.346 . S
C461 C462 1.396 . S
C461 C471 1.510 . S
C462 C458 1.401 . S
C462 C461 1.396 . S
C463 C458 1.499 . S
C463 H464 0.959 . S
C463 H465 0.960 . S
C463 H466 0.961 . S
H464 C463 0.959 . S
H465 C463 0.960 . S
H466 C463 0.961 . S
O467 Co442 1.967 . S
O467 C475 1.258 . S
O468 Co443 1.941 . S
O468 C475 1.266 . S
H469 C471 0.959 . S
H470 C471 0.961 . S
C471 C461 1.510 . S
C471 H469 0.959 . S
C471 H470 0.961 . S
C471 H472 0.960 . S
H472 C471 0.960 . S
H473 N453 0.862 . S
O474 Co442 1.920 . S
O474 C447 1.289 . S
C475 O467 1.258 . S
C475 O468 1.266 . S
Co476 O479 1.970 . S
Co476 N493 1.989 . S
Co476 O501 1.967 . S
Co476 O508 1.920 . S
Co477 O480 1.966 . S
Co477 N486 2.022 . S
Co477 N494 1.993 . S
Co477 O502 1.941 . S
C478 O479 1.258 . S
C478 O480 1.263 . S
O479 Co476 1.970 . S
O479 C478 1.258 . S
O480 Co477 1.966 . S
O480 C478 1.263 . S
C481 O482 1.240 . S
C481 O508 1.260 1_565 S
O482 C481 1.240 . S
C483 C485 1.400 . S
C483 N486 1.351 . S
C483 C488 1.501 . S
C484 C485 1.387 . S
C484 N487 1.341 . S
C485 C483 1.400 . S
C485 C484 1.387 . S
N486 Co477 2.022 . S
N486 C483 1.351 . S
N486 N487 1.365 . S
N487 C484 1.341 . S
N487 N486 1.365 . S
N487 H507 0.862 . S
C488 C483 1.501 . S
C488 H489 0.961 . S
C488 H490 0.961 . S
C488 H491 0.960 . S
H489 C488 0.961 . S
H490 C488 0.961 . S
H491 C488 0.960 . S
C492 N493 1.342 . S
C492 C496 1.401 . S
C492 C497 1.499 . S
N493 Co476 1.989 . S
N493 C492 1.342 . S
N493 N494 1.388 . S
N494 Co477 1.993 . S
N494 N493 1.388 . S
N494 C495 1.346 . S
C495 N494 1.346 . S
C495 C496 1.396 . S
C495 C505 1.510 . S
C496 C492 1.401 . S
C496 C495 1.396 . S
C497 C492 1.499 . S
C497 H498 0.959 . S
C497 H499 0.960 . S
C497 H500 0.961 . S
H498 C497 0.959 . S
H499 C497 0.960 . S
H500 C497 0.961 . S
O501 Co476 1.967 . S
O501 C509 1.258 . S
O502 Co477 1.941 . S
O502 C509 1.266 . S
H503 C505 0.959 . S
H504 C505 0.961 . S
C505 C495 1.510 . S
C505 H503 0.959 . S
C505 H504 0.961 . S
C505 H506 0.960 . S
H506 C505 0.960 . S
H507 N487 0.862 . S
O508 Co476 1.920 . S
O508 C481 1.260 1_545 S
C509 O501 1.258 . S
C509 O502 1.266 . S
Co510 O513 1.970 . S
Co510 N527 1.989 . S
Co510 O535 1.967 . S
Co510 O542 1.920 . S
Co511 O514 1.966 . S
Co511 N520 2.022 . S
Co511 N528 1.993 . S
Co511 O536 1.941 . S
C512 O513 1.258 . S
C512 O514 1.263 . S
O513 Co510 1.970 . S
O513 C512 1.258 . S
O514 Co511 1.966 . S
O514 C512 1.263 . S
C515 O516 1.235 . S
C515 O542 1.289 . S
O516 C515 1.235 . S
C517 C519 1.400 . S
C517 N520 1.351 . S
C517 C522 1.501 . S
C518 C519 1.387 . S
C518 N521 1.341 . S
C519 C517 1.400 . S
C519 C518 1.387 . S
N520 Co511 2.022 . S
N520 C517 1.351 . S
N520 N521 1.365 . S
N521 C518 1.341 . S
N521 N520 1.365 . S
N521 H541 0.862 . S
C522 C517 1.501 . S
C522 H523 0.961 . S
C522 H524 0.961 . S
C522 H525 0.960 . S
H523 C522 0.961 . S
H524 C522 0.961 . S
H525 C522 0.960 . S
C526 N527 1.342 . S
C526 C530 1.401 . S
C526 C531 1.499 . S
N527 Co510 1.989 . S
N527 C526 1.342 . S
N527 N528 1.388 . S
N528 Co511 1.993 . S
N528 N527 1.388 . S
N528 C529 1.346 . S
C529 N528 1.346 . S
C529 C530 1.396 . S
C529 C539 1.510 . S
C530 C526 1.401 . S
C530 C529 1.396 . S
C531 C526 1.499 . S
C531 H532 0.959 . S
C531 H533 0.960 . S
C531 H534 0.961 . S
H532 C531 0.959 . S
H533 C531 0.960 . S
H534 C531 0.961 . S
O535 Co510 1.967 . S
O535 C543 1.258 . S
O536 Co511 1.941 . S
O536 C543 1.266 . S
H537 C539 0.959 . S
H538 C539 0.961 . S
C539 C529 1.510 . S
C539 H537 0.959 . S
C539 H538 0.961 . S
C539 H540 0.960 . S
H540 C539 0.960 . S
H541 N521 0.862 . S
O542 Co510 1.920 . S
O542 C515 1.289 . S
C543 O535 1.258 . S
C543 O536 1.266 . S
Co544 O547 1.970 . S
Co544 N561 1.989 . S
Co544 O569 1.967 . S
Co544 O576 1.920 . S
Co545 O548 1.966 . S
Co545 N554 2.022 . S
Co545 N562 1.993 . S
Co545 O570 1.941 . S
C546 O547 1.258 . S
C546 O548 1.263 . S
O547 Co544 1.970 . S
O547 C546 1.258 . S
O548 Co545 1.966 . S
O548 C546 1.263 . S
C549 O550 1.235 . S
C549 O576 1.289 . S
O550 C549 1.235 . S
C551 C553 1.400 . S
C551 N554 1.351 . S
C551 C556 1.501 . S
C552 C553 1.387 . S
C552 N555 1.341 . S
C553 C551 1.400 . S
C553 C552 1.387 . S
N554 Co545 2.022 . S
N554 C551 1.351 . S
N554 N555 1.365 . S
N555 C552 1.341 . S
N555 N554 1.365 . S
N555 H575 0.862 . S
C556 C551 1.501 . S
C556 H557 0.961 . S
C556 H558 0.961 . S
C556 H559 0.960 . S
H557 C556 0.961 . S
H558 C556 0.961 . S
H559 C556 0.960 . S
C560 N561 1.342 . S
C560 C564 1.401 . S
C560 C565 1.499 . S
N561 Co544 1.989 . S
N561 C560 1.342 . S
N561 N562 1.388 . S
N562 Co545 1.993 . S
N562 N561 1.388 . S
N562 C563 1.346 . S
C563 N562 1.346 . S
C563 C564 1.396 . S
C563 C573 1.510 . S
C564 C560 1.401 . S
C564 C563 1.396 . S
C565 C560 1.499 . S
C565 H566 0.959 . S
C565 H567 0.960 . S
C565 H568 0.961 . S
H566 C565 0.959 . S
H567 C565 0.960 . S
H568 C565 0.961 . S
O569 Co544 1.967 . S
O569 C577 1.258 . S
O570 Co545 1.941 . S
O570 C577 1.266 . S
H571 C573 0.959 . S
H572 C573 0.961 . S
C573 C563 1.510 . S
C573 H571 0.959 . S
C573 H572 0.961 . S
C573 H574 0.960 . S
H574 C573 0.960 . S
H575 N555 0.862 . S
O576 Co544 1.920 . S
O576 C549 1.289 . S
C577 O569 1.258 . S
C577 O570 1.266 . S
Co578 O581 1.970 . S
Co578 N595 1.989 . S
Co578 O603 1.967 . S
Co578 O610 1.920 . S
Co579 O582 1.966 . S
Co579 N588 2.022 . S
Co579 N596 1.993 . S
Co579 O604 1.941 . S
C580 O581 1.258 . S
C580 O582 1.263 . S
O581 Co578 1.970 . S
O581 C580 1.258 . S
O582 Co579 1.966 . S
O582 C580 1.263 . S
C583 O584 1.235 . S
C583 O610 1.289 . S
O584 C583 1.235 . S
C585 C587 1.400 . S
C585 N588 1.351 . S
C585 C590 1.501 . S
C586 C587 1.387 . S
C586 N589 1.341 . S
C587 C585 1.400 . S
C587 C586 1.387 . S
N588 Co579 2.022 . S
N588 C585 1.351 . S
N588 N589 1.365 . S
N589 C586 1.341 . S
N589 N588 1.365 . S
N589 H609 0.862 . S
C590 C585 1.501 . S
C590 H591 0.961 . S
C590 H592 0.961 . S
C590 H593 0.960 . S
H591 C590 0.961 . S
H592 C590 0.961 . S
H593 C590 0.960 . S
C594 N595 1.342 . S
C594 C598 1.401 . S
C594 C599 1.499 . S
N595 Co578 1.989 . S
N595 C594 1.342 . S
N595 N596 1.388 . S
N596 Co579 1.993 . S
N596 N595 1.388 . S
N596 C597 1.346 . S
C597 N596 1.346 . S
C597 C598 1.396 . S
C597 C607 1.510 . S
C598 C594 1.401 . S
C598 C597 1.396 . S
C599 C594 1.499 . S
C599 H600 0.959 . S
C599 H601 0.960 . S
C599 H602 0.961 . S
H600 C599 0.959 . S
H601 C599 0.960 . S
H602 C599 0.961 . S
O603 Co578 1.967 . S
O603 C611 1.258 . S
O604 Co579 1.941 . S
O604 C611 1.266 . S
H605 C607 0.959 . S
H606 C607 0.961 . S
C607 C597 1.510 . S
C607 H605 0.959 . S
C607 H606 0.961 . S
C607 H608 0.960 . S
H608 C607 0.960 . S
H609 N589 0.862 . S
O610 Co578 1.920 . S
O610 C583 1.289 . S
C611 O603 1.258 . S
C611 O604 1.266 . S
Co612 O615 1.970 . S
Co612 N629 1.989 . S
Co612 O637 1.967 . S
Co612 O644 1.920 . S
Co613 O616 1.966 . S
Co613 N622 2.022 . S
Co613 N630 1.993 . S
Co613 O638 1.941 . S
C614 O615 1.258 . S
C614 O616 1.263 . S
O615 Co612 1.970 . S
O615 C614 1.258 . S
O616 Co613 1.966 . S
O616 C614 1.263 . S
C617 O618 1.235 . S
C617 O644 1.289 . S
O618 C617 1.235 . S
C619 C621 1.400 . S
C619 N622 1.351 . S
C619 C624 1.501 . S
C620 C621 1.387 . S
C620 N623 1.341 . S
C621 C619 1.400 . S
C621 C620 1.387 . S
N622 Co613 2.022 . S
N622 C619 1.351 . S
N622 N623 1.365 . S
N623 C620 1.341 . S
N623 N622 1.365 . S
N623 H643 0.862 . S
C624 C619 1.501 . S
C624 H625 0.961 . S
C624 H626 0.961 . S
C624 H627 0.960 . S
H625 C624 0.961 . S
H626 C624 0.961 . S
H627 C624 0.960 . S
C628 N629 1.342 . S
C628 C632 1.401 . S
C628 C633 1.499 . S
N629 Co612 1.989 . S
N629 C628 1.342 . S
N629 N630 1.388 . S
N630 Co613 1.993 . S
N630 N629 1.388 . S
N630 C631 1.346 . S
C631 N630 1.346 . S
C631 C632 1.396 . S
C631 C641 1.510 . S
C632 C628 1.401 . S
C632 C631 1.396 . S
C633 C628 1.499 . S
C633 H634 0.959 . S
C633 H635 0.960 . S
C633 H636 0.961 . S
H634 C633 0.959 . S
H635 C633 0.960 . S
H636 C633 0.961 . S
O637 Co612 1.967 . S
O637 C645 1.258 . S
O638 Co613 1.941 . S
O638 C645 1.266 . S
H639 C641 0.959 . S
H640 C641 0.961 . S
C641 C631 1.510 . S
C641 H639 0.959 . S
C641 H640 0.961 . S
C641 H642 0.960 . S
H642 C641 0.960 . S
H643 N623 0.862 . S
O644 Co612 1.920 . S
O644 C617 1.289 . S
C645 O637 1.258 . S
C645 O638 1.266 . S
Co646 O649 1.970 . S
Co646 N663 1.989 . S
Co646 O671 1.967 . S
Co646 O678 1.920 . S
Co647 O650 1.966 . S
Co647 N656 2.022 . S
Co647 N664 1.993 . S
Co647 O672 1.941 . S
C648 O649 1.258 . S
C648 O650 1.263 . S
O649 Co646 1.970 . S
O649 C648 1.258 . S
O650 Co647 1.966 . S
O650 C648 1.263 . S
C651 O652 1.235 . S
C651 O678 1.289 . S
O652 C651 1.235 . S
C653 C655 1.400 . S
C653 N656 1.351 . S
C653 C658 1.501 . S
C654 C655 1.387 . S
C654 N657 1.341 . S
C655 C653 1.400 . S
C655 C654 1.387 . S
N656 Co647 2.022 . S
N656 C653 1.351 . S
N656 N657 1.365 . S
N657 C654 1.341 . S
N657 N656 1.365 . S
N657 H677 0.862 . S
C658 C653 1.501 . S
C658 H659 0.961 . S
C658 H660 0.961 . S
C658 H661 0.960 . S
H659 C658 0.961 . S
H660 C658 0.961 . S
H661 C658 0.960 . S
C662 N663 1.342 . S
C662 C666 1.401 . S
C662 C667 1.499 . S
N663 Co646 1.989 . S
N663 C662 1.342 . S
N663 N664 1.388 . S
N664 Co647 1.993 . S
N664 N663 1.388 . S
N664 C665 1.346 . S
C665 N664 1.346 . S
C665 C666 1.396 . S
C665 C675 1.510 . S
C666 C662 1.401 . S
C666 C665 1.396 . S
C667 C662 1.499 . S
C667 H668 0.959 . S
C667 H669 0.960 . S
C667 H670 0.961 . S
H668 C667 0.959 . S
H669 C667 0.960 . S
H670 C667 0.961 . S
O671 Co646 1.967 . S
O671 C679 1.258 . S
O672 Co647 1.941 . S
O672 C679 1.266 . S
H673 C675 0.959 . S
H674 C675 0.961 . S
C675 C665 1.510 . S
C675 H673 0.959 . S
C675 H674 0.961 . S
C675 H676 0.960 . S
H676 C675 0.960 . S
H677 N657 0.862 . S
O678 Co646 1.920 . S
O678 C651 1.289 . S
C679 O671 1.258 . S
C679 O672 1.266 . S
Co680 O683 1.970 . S
Co680 N697 1.989 . S
Co680 O705 1.967 . S
Co680 O712 1.920 . S
Co681 O684 1.966 . S
Co681 N690 2.022 . S
Co681 N698 1.993 . S
Co681 O706 1.941 . S
C682 O683 1.258 . S
C682 O684 1.263 . S
O683 Co680 1.970 . S
O683 C682 1.258 . S
O684 Co681 1.966 . S
O684 C682 1.263 . S
C685 O686 1.235 . S
C685 O712 1.289 . S
O686 C685 1.235 . S
C687 C689 1.400 . S
C687 N690 1.351 . S
C687 C692 1.501 . S
C688 C689 1.387 . S
C688 N691 1.341 . S
C689 C687 1.400 . S
C689 C688 1.387 . S
N690 Co681 2.022 . S
N690 C687 1.351 . S
N690 N691 1.365 . S
N691 C688 1.341 . S
N691 N690 1.365 . S
N691 H711 0.862 . S
C692 C687 1.501 . S
C692 H693 0.961 . S
C692 H694 0.961 . S
C692 H695 0.960 . S
H693 C692 0.961 . S
H694 C692 0.961 . S
H695 C692 0.960 . S
C696 N697 1.342 . S
C696 C700 1.401 . S
C696 C701 1.499 . S
N697 Co680 1.989 . S
N697 C696 1.342 . S
N697 N698 1.388 . S
N698 Co681 1.993 . S
N698 N697 1.388 . S
N698 C699 1.346 . S
C699 N698 1.346 . S
C699 C700 1.396 . S
C699 C709 1.510 . S
C700 C696 1.401 . S
C700 C699 1.396 . S
C701 C696 1.499 . S
C701 H702 0.959 . S
C701 H703 0.960 . S
C701 H704 0.961 . S
H702 C701 0.959 . S
H703 C701 0.960 . S
H704 C701 0.961 . S
O705 Co680 1.967 . S
O705 C713 1.258 . S
O706 Co681 1.941 . S
O706 C713 1.266 . S
H707 C709 0.959 . S
H708 C709 0.961 . S
C709 C699 1.510 . S
C709 H707 0.959 . S
C709 H708 0.961 . S
C709 H710 0.960 . S
H710 C709 0.960 . S
H711 N691 0.862 . S
O712 Co680 1.920 . S
O712 C685 1.289 . S
C713 O705 1.258 . S
C713 O706 1.266 . S
Co714 O717 1.970 . S
Co714 N731 1.989 . S
Co714 O739 1.967 . S
Co714 O746 1.920 . S
Co715 O718 1.966 . S
Co715 N724 2.022 . S
Co715 N732 1.993 . S
Co715 O740 1.941 . S
C716 O717 1.258 . S
C716 O718 1.263 . S
O717 Co714 1.970 . S
O717 C716 1.258 . S
O718 Co715 1.966 . S
O718 C716 1.263 . S
C719 O720 1.264 . S
C719 O746 1.262 1_565 S
O720 C719 1.264 . S
C721 C723 1.400 . S
C721 N724 1.351 . S
C721 C726 1.501 . S
C722 C723 1.387 . S
C722 N725 1.341 . S
C723 C721 1.400 . S
C723 C722 1.387 . S
N724 Co715 2.022 . S
N724 C721 1.351 . S
N724 N725 1.365 . S
N725 C722 1.341 . S
N725 N724 1.365 . S
N725 H745 0.862 . S
C726 C721 1.501 . S
C726 H727 0.961 . S
C726 H728 0.961 . S
C726 H729 0.960 . S
H727 C726 0.961 . S
H728 C726 0.961 . S
H729 C726 0.960 . S
C730 N731 1.342 . S
C730 C734 1.401 . S
C730 C735 1.499 . S
N731 Co714 1.989 . S
N731 C730 1.342 . S
N731 N732 1.388 . S
N732 Co715 1.993 . S
N732 N731 1.388 . S
N732 C733 1.346 . S
C733 N732 1.346 . S
C733 C734 1.396 . S
C733 C743 1.510 . S
C734 C730 1.401 . S
C734 C733 1.396 . S
C735 C730 1.499 . S
C735 H736 0.959 . S
C735 H737 0.960 . S
C735 H738 0.961 . S
H736 C735 0.959 . S
H737 C735 0.960 . S
H738 C735 0.961 . S
O739 Co714 1.967 . S
O739 C747 1.258 . S
O740 Co715 1.941 . S
O740 C747 1.266 . S
H741 C743 0.959 . S
H742 C743 0.961 . S
C743 C733 1.510 . S
C743 H741 0.959 . S
C743 H742 0.961 . S
C743 H744 0.960 . S
H744 C743 0.960 . S
H745 N725 0.862 . S
O746 Co714 1.920 . S
O746 C719 1.262 1_545 S
C747 O739 1.258 . S
C747 O740 1.266 . S
Co748 O751 1.970 . S
Co748 N765 1.989 . S
Co748 O773 1.967 . S
Co748 O780 1.920 . S
Co749 O752 1.966 . S
Co749 N758 2.022 . S
Co749 N766 1.993 . S
Co749 O774 1.941 . S
C750 O751 1.258 . S
C750 O752 1.263 . S
O751 Co748 1.970 . S
O751 C750 1.258 . S
O752 Co749 1.966 . S
O752 C750 1.263 . S
C753 O754 1.240 . S
C753 O780 1.260 1_455 S
O754 C753 1.240 . S
C755 C757 1.400 . S
C755 N758 1.351 . S
C755 C760 1.501 . S
C756 C757 1.387 . S
C756 N759 1.341 . S
C757 C755 1.400 . S
C757 C756 1.387 . S
N758 Co749 2.022 . S
N758 C755 1.351 . S
N758 N759 1.365 . S
N759 C756 1.341 . S
N759 N758 1.365 . S
N759 H779 0.862 . S
C760 C755 1.501 . S
C760 H761 0.961 . S
C760 H762 0.961 . S
C760 H763 0.960 . S
H761 C760 0.961 . S
H762 C760 0.961 . S
H763 C760 0.960 . S
C764 N765 1.342 . S
C764 C768 1.401 . S
C764 C769 1.499 . S
N765 Co748 1.989 . S
N765 C764 1.342 . S
N765 N766 1.388 . S
N766 Co749 1.993 . S
N766 N765 1.388 . S
N766 C767 1.346 . S
C767 N766 1.346 . S
C767 C768 1.396 . S
C767 C777 1.510 . S
C768 C764 1.401 . S
C768 C767 1.396 . S
C769 C764 1.499 . S
C769 H770 0.959 . S
C769 H771 0.960 . S
C769 H772 0.961 . S
H770 C769 0.959 . S
H771 C769 0.960 . S
H772 C769 0.961 . S
O773 Co748 1.967 . S
O773 C781 1.258 . S
O774 Co749 1.941 . S
O774 C781 1.266 . S
H775 C777 0.959 . S
H776 C777 0.961 . S
C777 C767 1.510 . S
C777 H775 0.959 . S
C777 H776 0.961 . S
C777 H778 0.960 . S
H778 C777 0.960 . S
H779 N759 0.862 . S
O780 Co748 1.920 . S
O780 C753 1.260 1_655 S
C781 O773 1.258 . S
C781 O774 1.266 . S
Co782 O785 1.970 . S
Co782 N799 1.989 . S
Co782 O807 1.967 . S
Co782 O814 1.920 . S
Co783 O786 1.966 . S
Co783 N792 2.022 . S
Co783 N800 1.993 . S
Co783 O808 1.941 . S
C784 O785 1.258 . S
C784 O786 1.263 . S
O785 Co782 1.970 . S
O785 C784 1.258 . S
O786 Co783 1.966 . S
O786 C784 1.263 . S
C787 O788 1.235 . S
C787 O814 1.289 . S
O788 C787 1.235 . S
C789 C791 1.400 . S
C789 N792 1.351 . S
C789 C794 1.501 . S
C790 C791 1.387 . S
C790 N793 1.341 . S
C791 C789 1.400 . S
C791 C790 1.387 . S
N792 Co783 2.022 . S
N792 C789 1.351 . S
N792 N793 1.365 . S
N793 C790 1.341 . S
N793 N792 1.365 . S
N793 H813 0.862 . S
C794 C789 1.501 . S
C794 H795 0.961 . S
C794 H796 0.961 . S
C794 H797 0.960 . S
H795 C794 0.961 . S
H796 C794 0.961 . S
H797 C794 0.960 . S
C798 N799 1.342 . S
C798 C802 1.401 . S
C798 C803 1.499 . S
N799 Co782 1.989 . S
N799 C798 1.342 . S
N799 N800 1.388 . S
N800 Co783 1.993 . S
N800 N799 1.388 . S
N800 C801 1.346 . S
C801 N800 1.346 . S
C801 C802 1.396 . S
C801 C811 1.510 . S
C802 C798 1.401 . S
C802 C801 1.396 . S
C803 C798 1.499 . S
C803 H804 0.959 . S
C803 H805 0.960 . S
C803 H806 0.961 . S
H804 C803 0.959 . S
H805 C803 0.960 . S
H806 C803 0.961 . S
O807 Co782 1.967 . S
O807 C815 1.258 . S
O808 Co783 1.941 . S
O808 C815 1.266 . S
H809 C811 0.959 . S
H810 C811 0.961 . S
C811 C801 1.510 . S
C811 H809 0.959 . S
C811 H810 0.961 . S
C811 H812 0.960 . S
H812 C811 0.960 . S
H813 N793 0.862 . S
O814 Co782 1.920 . S
O814 C787 1.289 . S
C815 O807 1.258 . S
C815 O808 1.266 . S
Co816 O819 1.970 . S
Co816 N833 1.989 . S
Co816 O841 1.967 . S
Co816 O848 1.920 . S
Co817 O820 1.966 . S
Co817 N826 2.022 . S
Co817 N834 1.993 . S
Co817 O842 1.941 . S
C818 O819 1.258 . S
C818 O820 1.263 . S
O819 Co816 1.970 . S
O819 C818 1.258 . S
O820 Co817 1.966 . S
O820 C818 1.263 . S
C821 O822 1.235 . S
C821 O848 1.289 . S
O822 C821 1.235 . S
C823 C825 1.400 . S
C823 N826 1.351 . S
C823 C828 1.501 . S
C824 C825 1.387 . S
C824 N827 1.341 . S
C825 C823 1.400 . S
C825 C824 1.387 . S
N826 Co817 2.022 . S
N826 C823 1.351 . S
N826 N827 1.365 . S
N827 C824 1.341 . S
N827 N826 1.365 . S
N827 H847 0.862 . S
C828 C823 1.501 . S
C828 H829 0.961 . S
C828 H830 0.961 . S
C828 H831 0.960 . S
H829 C828 0.961 . S
H830 C828 0.961 . S
H831 C828 0.960 . S
C832 N833 1.342 . S
C832 C836 1.401 . S
C832 C837 1.499 . S
N833 Co816 1.989 . S
N833 C832 1.342 . S
N833 N834 1.388 . S
N834 Co817 1.993 . S
N834 N833 1.388 . S
N834 C835 1.346 . S
C835 N834 1.346 . S
C835 C836 1.396 . S
C835 C845 1.510 . S
C836 C832 1.401 . S
C836 C835 1.396 . S
C837 C832 1.499 . S
C837 H838 0.959 . S
C837 H839 0.960 . S
C837 H840 0.961 . S
H838 C837 0.959 . S
H839 C837 0.960 . S
H840 C837 0.961 . S
O841 Co816 1.967 . S
O841 C849 1.258 . S
O842 Co817 1.941 . S
O842 C849 1.266 . S
H843 C845 0.959 . S
H844 C845 0.961 . S
C845 C835 1.510 . S
C845 H843 0.959 . S
C845 H844 0.961 . S
C845 H846 0.960 . S
H846 C845 0.960 . S
H847 N827 0.862 . S
O848 Co816 1.920 . S
O848 C821 1.289 . S
C849 O841 1.258 . S
C849 O842 1.266 . S
Co850 O853 1.970 . S
Co850 N867 1.989 . S
Co850 O875 1.967 . S
Co850 O882 1.920 . S
Co851 O854 1.966 . S
Co851 N860 2.022 . S
Co851 N868 1.993 . S
Co851 O876 1.941 . S
C852 O853 1.258 . S
C852 O854 1.263 . S
O853 Co850 1.970 . S
O853 C852 1.258 . S
O854 Co851 1.966 . S
O854 C852 1.263 . S
C855 O856 1.235 . S
C855 O882 1.289 . S
O856 C855 1.235 . S
C857 C859 1.400 . S
C857 N860 1.351 . S
C857 C862 1.501 . S
C858 C859 1.387 . S
C858 N861 1.341 . S
C859 C857 1.400 . S
C859 C858 1.387 . S
N860 Co851 2.022 . S
N860 C857 1.351 . S
N860 N861 1.365 . S
N861 C858 1.341 . S
N861 N860 1.365 . S
N861 H881 0.862 . S
C862 C857 1.501 . S
C862 H863 0.961 . S
C862 H864 0.961 . S
C862 H865 0.960 . S
H863 C862 0.961 . S
H864 C862 0.961 . S
H865 C862 0.960 . S
C866 N867 1.342 . S
C866 C870 1.401 . S
C866 C871 1.499 . S
N867 Co850 1.989 . S
N867 C866 1.342 . S
N867 N868 1.388 . S
N868 Co851 1.993 . S
N868 N867 1.388 . S
N868 C869 1.346 . S
C869 N868 1.346 . S
C869 C870 1.396 . S
C869 C879 1.510 . S
C870 C866 1.401 . S
C870 C869 1.396 . S
C871 C866 1.499 . S
C871 H872 0.959 . S
C871 H873 0.960 . S
C871 H874 0.961 . S
H872 C871 0.959 . S
H873 C871 0.960 . S
H874 C871 0.961 . S
O875 Co850 1.967 . S
O875 C883 1.258 . S
O876 Co851 1.941 . S
O876 C883 1.266 . S
H877 C879 0.959 . S
H878 C879 0.961 . S
C879 C869 1.510 . S
C879 H877 0.959 . S
C879 H878 0.961 . S
C879 H880 0.960 . S
H880 C879 0.960 . S
H881 N861 0.862 . S
O882 Co850 1.920 . S
O882 C855 1.289 . S
C883 O875 1.258 . S
C883 O876 1.266 . S
Co884 O887 1.970 . S
Co884 N901 1.989 . S
Co884 O909 1.967 . S
Co884 O916 1.920 . S
Co885 O888 1.966 . S
Co885 N894 2.022 . S
Co885 N902 1.993 . S
Co885 O910 1.941 . S
C886 O887 1.258 . S
C886 O888 1.263 . S
O887 Co884 1.970 . S
O887 C886 1.258 . S
O888 Co885 1.966 . S
O888 C886 1.263 . S
C889 O890 1.235 . S
C889 O916 1.289 . S
O890 C889 1.235 . S
C891 C893 1.400 . S
C891 N894 1.351 . S
C891 C896 1.501 . S
C892 C893 1.387 . S
C892 N895 1.341 . S
C893 C891 1.400 . S
C893 C892 1.387 . S
N894 Co885 2.022 . S
N894 C891 1.351 . S
N894 N895 1.365 . S
N895 C892 1.341 . S
N895 N894 1.365 . S
N895 H915 0.862 . S
C896 C891 1.501 . S
C896 H897 0.961 . S
C896 H898 0.961 . S
C896 H899 0.960 . S
H897 C896 0.961 . S
H898 C896 0.961 . S
H899 C896 0.960 . S
C900 N901 1.342 . S
C900 C904 1.401 . S
C900 C905 1.499 . S
N901 Co884 1.989 . S
N901 C900 1.342 . S
N901 N902 1.388 . S
N902 Co885 1.993 . S
N902 N901 1.388 . S
N902 C903 1.346 . S
C903 N902 1.346 . S
C903 C904 1.396 . S
C903 C913 1.510 . S
C904 C900 1.401 . S
C904 C903 1.396 . S
C905 C900 1.499 . S
C905 H906 0.959 . S
C905 H907 0.960 . S
C905 H908 0.961 . S
H906 C905 0.959 . S
H907 C905 0.960 . S
H908 C905 0.961 . S
O909 Co884 1.967 . S
O909 C917 1.258 . S
O910 Co885 1.941 . S
O910 C917 1.266 . S
H911 C913 0.959 . S
H912 C913 0.961 . S
C913 C903 1.510 . S
C913 H911 0.959 . S
C913 H912 0.961 . S
C913 H914 0.960 . S
H914 C913 0.960 . S
H915 N895 0.862 . S
O916 Co884 1.920 . S
O916 C889 1.289 . S
C917 O909 1.258 . S
C917 O910 1.266 . S
Co918 O921 1.970 . S
Co918 N935 1.989 . S
Co918 O943 1.967 . S
Co918 O950 1.920 . S
Co919 O922 1.966 . S
Co919 N928 2.022 . S
Co919 N936 1.993 . S
Co919 O944 1.941 . S
C920 O921 1.258 . S
C920 O922 1.263 . S
O921 Co918 1.970 . S
O921 C920 1.258 . S
O922 Co919 1.966 . S
O922 C920 1.263 . S
C923 O924 1.264 . S
C923 O950 1.262 1_545 S
O924 C923 1.264 . S
C925 C927 1.400 . S
C925 N928 1.351 . S
C925 C930 1.501 . S
C926 C927 1.387 . S
C926 N929 1.341 . S
C927 C925 1.400 . S
C927 C926 1.387 . S
N928 Co919 2.022 . S
N928 C925 1.351 . S
N928 N929 1.365 . S
N929 C926 1.341 . S
N929 N928 1.365 . S
N929 H949 0.862 . S
C930 C925 1.501 . S
C930 H931 0.961 . S
C930 H932 0.961 . S
C930 H933 0.960 . S
H931 C930 0.961 . S
H932 C930 0.961 . S
H933 C930 0.960 . S
C934 N935 1.342 . S
C934 C938 1.401 . S
C934 C939 1.499 . S
N935 Co918 1.989 . S
N935 C934 1.342 . S
N935 N936 1.388 . S
N936 Co919 1.993 . S
N936 N935 1.388 . S
N936 C937 1.346 . S
C937 N936 1.346 . S
C937 C938 1.396 . S
C937 C947 1.510 . S
C938 C934 1.401 . S
C938 C937 1.396 . S
C939 C934 1.499 . S
C939 H940 0.959 . S
C939 H941 0.960 . S
C939 H942 0.961 . S
H940 C939 0.959 . S
H941 C939 0.960 . S
H942 C939 0.961 . S
O943 Co918 1.967 . S
O943 C951 1.258 . S
O944 Co919 1.941 . S
O944 C951 1.266 . S
H945 C947 0.959 . S
H946 C947 0.961 . S
C947 C937 1.510 . S
C947 H945 0.959 . S
C947 H946 0.961 . S
C947 H948 0.960 . S
H948 C947 0.960 . S
H949 N929 0.862 . S
O950 Co918 1.920 . S
O950 C923 1.262 1_565 S
C951 O943 1.258 . S
C951 O944 1.266 . S
Co952 O955 1.970 . S
Co952 N969 1.989 . S
Co952 O977 1.967 . S
Co952 O984 1.920 . S
Co953 O956 1.966 . S
Co953 N962 2.022 . S
Co953 N970 1.993 . S
Co953 O978 1.941 . S
C954 O955 1.258 . S
C954 O956 1.263 . S
O955 Co952 1.970 . S
O955 C954 1.258 . S
O956 Co953 1.966 . S
O956 C954 1.263 . S
C957 O958 1.240 . S
C957 O984 1.260 1_655 S
O958 C957 1.240 . S
C959 C961 1.400 . S
C959 N962 1.351 . S
C959 C964 1.501 . S
C960 C961 1.387 . S
C960 N963 1.341 . S
C961 C959 1.400 . S
C961 C960 1.387 . S
N962 Co953 2.022 . S
N962 C959 1.351 . S
N962 N963 1.365 . S
N963 C960 1.341 . S
N963 N962 1.365 . S
N963 H983 0.862 . S
C964 C959 1.501 . S
C964 H965 0.961 . S
C964 H966 0.961 . S
C964 H967 0.960 . S
H965 C964 0.961 . S
H966 C964 0.961 . S
H967 C964 0.960 . S
C968 N969 1.342 . S
C968 C972 1.401 . S
C968 C973 1.499 . S
N969 Co952 1.989 . S
N969 C968 1.342 . S
N969 N970 1.388 . S
N970 Co953 1.993 . S
N970 N969 1.388 . S
N970 C971 1.346 . S
C971 N970 1.346 . S
C971 C972 1.396 . S
C971 C981 1.510 . S
C972 C968 1.401 . S
C972 C971 1.396 . S
C973 C968 1.499 . S
C973 H974 0.959 . S
C973 H975 0.960 . S
C973 H976 0.961 . S
H974 C973 0.959 . S
H975 C973 0.960 . S
H976 C973 0.961 . S
O977 Co952 1.967 . S
O977 C985 1.258 . S
O978 Co953 1.941 . S
O978 C985 1.266 . S
H979 C981 0.959 . S
H980 C981 0.961 . S
C981 C971 1.510 . S
C981 H979 0.959 . S
C981 H980 0.961 . S
C981 H982 0.960 . S
H982 C981 0.960 . S
H983 N963 0.862 . S
O984 Co952 1.920 . S
O984 C957 1.260 1_455 S
C985 O977 1.258 . S
C985 O978 1.266 . S
Co986 O989 1.970 . S
Co986 N1003 1.989 . S
Co986 O1011 1.967 . S
Co986 O1018 1.920 . S
Co987 O990 1.966 . S
Co987 N996 2.022 . S
Co987 N1004 1.993 . S
Co987 O1012 1.941 . S
C988 O989 1.258 . S
C988 O990 1.263 . S
O989 Co986 1.970 . S
O989 C988 1.258 . S
O990 Co987 1.966 . S
O990 C988 1.263 . S
C991 O992 1.235 . S
C991 O1018 1.289 . S
O992 C991 1.235 . S
C993 C995 1.400 . S
C993 N996 1.351 . S
C993 C998 1.501 . S
C994 C995 1.387 . S
C994 N997 1.341 . S
C995 C993 1.400 . S
C995 C994 1.387 . S
N996 Co987 2.022 . S
N996 C993 1.351 . S
N996 N997 1.365 . S
N997 C994 1.341 . S
N997 N996 1.365 . S
N997 H1017 0.862 . S
C998 C993 1.501 . S
C998 H999 0.961 . S
C998 H1000 0.961 . S
C998 H1001 0.960 . S
H999 C998 0.961 . S
H1000 C998 0.961 . S
H1001 C998 0.960 . S
C1002 N1003 1.342 . S
C1002 C1006 1.401 . S
C1002 C1007 1.499 . S
N1003 Co986 1.989 . S
N1003 C1002 1.342 . S
N1003 N1004 1.388 . S
N1004 Co987 1.993 . S
N1004 N1003 1.388 . S
N1004 C1005 1.346 . S
C1005 N1004 1.346 . S
C1005 C1006 1.396 . S
C1005 C1015 1.510 . S
C1006 C1002 1.401 . S
C1006 C1005 1.396 . S
C1007 C1002 1.499 . S
C1007 H1008 0.959 . S
C1007 H1009 0.960 . S
C1007 H1010 0.961 . S
H1008 C1007 0.959 . S
H1009 C1007 0.960 . S
H1010 C1007 0.961 . S
O1011 Co986 1.967 . S
O1011 C1019 1.258 . S
O1012 Co987 1.941 . S
O1012 C1019 1.266 . S
H1013 C1015 0.959 . S
H1014 C1015 0.961 . S
C1015 C1005 1.510 . S
C1015 H1013 0.959 . S
C1015 H1014 0.961 . S
C1015 H1016 0.960 . S
H1016 C1015 0.960 . S
H1017 N997 0.862 . S
O1018 Co986 1.920 . S
O1018 C991 1.289 . S
C1019 O1011 1.258 . S
C1019 O1012 1.266 . S
Co1020 O1023 1.970 . S
Co1020 N1037 1.989 . S
Co1020 O1045 1.967 . S
Co1020 O1052 1.920 . S
Co1021 O1024 1.966 . S
Co1021 N1030 2.022 . S
Co1021 N1038 1.993 . S
Co1021 O1046 1.941 . S
C1022 O1023 1.258 . S
C1022 O1024 1.263 . S
O1023 Co1020 1.970 . S
O1023 C1022 1.258 . S
O1024 Co1021 1.966 . S
O1024 C1022 1.263 . S
C1025 O1026 1.264 . S
C1025 O1052 1.262 1_655 S
O1026 C1025 1.264 . S
C1027 C1029 1.400 . S
C1027 N1030 1.351 . S
C1027 C1032 1.501 . S
C1028 C1029 1.387 . S
C1028 N1031 1.341 . S
C1029 C1027 1.400 . S
C1029 C1028 1.387 . S
N1030 Co1021 2.022 . S
N1030 C1027 1.351 . S
N1030 N1031 1.365 . S
N1031 C1028 1.341 . S
N1031 N1030 1.365 . S
N1031 H1051 0.862 . S
C1032 C1027 1.501 . S
C1032 H1033 0.961 . S
C1032 H1034 0.961 . S
C1032 H1035 0.960 . S
H1033 C1032 0.961 . S
H1034 C1032 0.961 . S
H1035 C1032 0.960 . S
C1036 N1037 1.342 . S
C1036 C1040 1.401 . S
C1036 C1041 1.499 . S
N1037 Co1020 1.989 . S
N1037 C1036 1.342 . S
N1037 N1038 1.388 . S
N1038 Co1021 1.993 . S
N1038 N1037 1.388 . S
N1038 C1039 1.346 . S
C1039 N1038 1.346 . S
C1039 C1040 1.396 . S
C1039 C1049 1.510 . S
C1040 C1036 1.401 . S
C1040 C1039 1.396 . S
C1041 C1036 1.499 . S
C1041 H1042 0.959 . S
C1041 H1043 0.960 . S
C1041 H1044 0.961 . S
H1042 C1041 0.959 . S
H1043 C1041 0.960 . S
H1044 C1041 0.961 . S
O1045 Co1020 1.967 . S
O1045 C1053 1.258 . S
O1046 Co1021 1.941 . S
O1046 C1053 1.266 . S
H1047 C1049 0.959 . S
H1048 C1049 0.961 . S
C1049 C1039 1.510 . S
C1049 H1047 0.959 . S
C1049 H1048 0.961 . S
C1049 H1050 0.960 . S
H1050 C1049 0.960 . S
H1051 N1031 0.862 . S
O1052 Co1020 1.920 . S
O1052 C1025 1.262 1_455 S
C1053 O1045 1.258 . S
C1053 O1046 1.266 . S
Co1054 O1057 1.970 . S
Co1054 N1071 1.989 . S
Co1054 O1079 1.967 . S
Co1054 O1086 1.920 . S
Co1055 O1058 1.966 . S
Co1055 N1064 2.022 . S
Co1055 N1072 1.993 . S
Co1055 O1080 1.941 . S
C1056 O1057 1.258 . S
C1056 O1058 1.263 . S
O1057 Co1054 1.970 . S
O1057 C1056 1.258 . S
O1058 Co1055 1.966 . S
O1058 C1056 1.263 . S
C1059 O1060 1.235 . S
C1059 O1086 1.289 . S
O1060 C1059 1.235 . S
C1061 C1063 1.400 . S
C1061 N1064 1.351 . S
C1061 C1066 1.501 . S
C1062 C1063 1.387 . S
C1062 N1065 1.341 . S
C1063 C1061 1.400 . S
C1063 C1062 1.387 . S
N1064 Co1055 2.022 . S
N1064 C1061 1.351 . S
N1064 N1065 1.365 . S
N1065 C1062 1.341 . S
N1065 N1064 1.365 . S
N1065 H1085 0.862 . S
C1066 C1061 1.501 . S
C1066 H1067 0.961 . S
C1066 H1068 0.961 . S
C1066 H1069 0.960 . S
H1067 C1066 0.961 . S
H1068 C1066 0.961 . S
H1069 C1066 0.960 . S
C1070 N1071 1.342 . S
C1070 C1074 1.401 . S
C1070 C1075 1.499 . S
N1071 Co1054 1.989 . S
N1071 C1070 1.342 . S
N1071 N1072 1.388 . S
N1072 Co1055 1.993 . S
N1072 N1071 1.388 . S
N1072 C1073 1.346 . S
C1073 N1072 1.346 . S
C1073 C1074 1.396 . S
C1073 C1083 1.510 . S
C1074 C1070 1.401 . S
C1074 C1073 1.396 . S
C1075 C1070 1.499 . S
C1075 H1076 0.959 . S
C1075 H1077 0.960 . S
C1075 H1078 0.961 . S
H1076 C1075 0.959 . S
H1077 C1075 0.960 . S
H1078 C1075 0.961 . S
O1079 Co1054 1.967 . S
O1079 C1087 1.258 . S
O1080 Co1055 1.941 . S
O1080 C1087 1.266 . S
H1081 C1083 0.959 . S
H1082 C1083 0.961 . S
C1083 C1073 1.510 . S
C1083 H1081 0.959 . S
C1083 H1082 0.961 . S
C1083 H1084 0.960 . S
H1084 C1083 0.960 . S
H1085 N1065 0.862 . S
O1086 Co1054 1.920 . S
O1086 C1059 1.289 . S
C1087 O1079 1.258 . S
C1087 O1080 1.266 . S
Co1088 O1091 1.970 . S
Co1088 N1105 1.989 . S
Co1088 O1113 1.967 . S
Co1088 O1120 1.920 . S
Co1089 O1092 1.966 . S
Co1089 N1098 2.022 . S
Co1089 N1106 1.993 . S
Co1089 O1114 1.941 . S
C1090 O1091 1.258 . S
C1090 O1092 1.263 . S
O1091 Co1088 1.970 . S
O1091 C1090 1.258 . S
O1092 Co1089 1.966 . S
O1092 C1090 1.263 . S
C1093 O1094 1.240 . S
C1093 O1120 1.260 1_545 S
O1094 C1093 1.240 . S
C1095 C1097 1.400 . S
C1095 N1098 1.351 . S
C1095 C1100 1.501 . S
C1096 C1097 1.387 . S
C1096 N1099 1.341 . S
C1097 C1095 1.400 . S
C1097 C1096 1.387 . S
N1098 Co1089 2.022 . S
N1098 C1095 1.351 . S
N1098 N1099 1.365 . S
N1099 C1096 1.341 . S
N1099 N1098 1.365 . S
N1099 H1119 0.862 . S
C1100 C1095 1.501 . S
C1100 H1101 0.961 . S
C1100 H1102 0.961 . S
C1100 H1103 0.960 . S
H1101 C1100 0.961 . S
H1102 C1100 0.961 . S
H1103 C1100 0.960 . S
C1104 N1105 1.342 . S
C1104 C1108 1.401 . S
C1104 C1109 1.499 . S
N1105 Co1088 1.989 . S
N1105 C1104 1.342 . S
N1105 N1106 1.388 . S
N1106 Co1089 1.993 . S
N1106 N1105 1.388 . S
N1106 C1107 1.346 . S
C1107 N1106 1.346 . S
C1107 C1108 1.396 . S
C1107 C1117 1.510 . S
C1108 C1104 1.401 . S
C1108 C1107 1.396 . S
C1109 C1104 1.499 . S
C1109 H1110 0.959 . S
C1109 H1111 0.960 . S
C1109 H1112 0.961 . S
H1110 C1109 0.959 . S
H1111 C1109 0.960 . S
H1112 C1109 0.961 . S
O1113 Co1088 1.967 . S
O1113 C1121 1.258 . S
O1114 Co1089 1.941 . S
O1114 C1121 1.266 . S
H1115 C1117 0.959 . S
H1116 C1117 0.961 . S
C1117 C1107 1.510 . S
C1117 H1115 0.959 . S
C1117 H1116 0.961 . S
C1117 H1118 0.960 . S
H1118 C1117 0.960 . S
H1119 N1099 0.862 . S
O1120 Co1088 1.920 . S
O1120 C1093 1.260 1_565 S
C1121 O1113 1.258 . S
C1121 O1114 1.266 . S
Co1122 O1125 1.970 . S
Co1122 N1139 1.989 . S
Co1122 O1147 1.967 . S
Co1122 O1154 1.920 . S
Co1123 O1126 1.966 . S
Co1123 N1132 2.022 . S
Co1123 N1140 1.993 . S
Co1123 O1148 1.941 . S
C1124 O1125 1.258 . S
C1124 O1126 1.263 . S
O1125 Co1122 1.970 . S
O1125 C1124 1.258 . S
O1126 Co1123 1.966 . S
O1126 C1124 1.263 . S
C1127 O1128 1.235 . S
C1127 O1154 1.289 . S
O1128 C1127 1.235 . S
C1129 C1131 1.400 . S
C1129 N1132 1.351 . S
C1129 C1134 1.501 . S
C1130 C1131 1.387 . S
C1130 N1133 1.341 . S
C1131 C1129 1.400 . S
C1131 C1130 1.387 . S
N1132 Co1123 2.022 . S
N1132 C1129 1.351 . S
N1132 N1133 1.365 . S
N1133 C1130 1.341 . S
N1133 N1132 1.365 . S
N1133 H1153 0.862 . S
C1134 C1129 1.501 . S
C1134 H1135 0.961 . S
C1134 H1136 0.961 . S
C1134 H1137 0.960 . S
H1135 C1134 0.961 . S
H1136 C1134 0.961 . S
H1137 C1134 0.960 . S
C1138 N1139 1.342 . S
C1138 C1142 1.401 . S
C1138 C1143 1.499 . S
N1139 Co1122 1.989 . S
N1139 C1138 1.342 . S
N1139 N1140 1.388 . S
N1140 Co1123 1.993 . S
N1140 N1139 1.388 . S
N1140 C1141 1.346 . S
C1141 N1140 1.346 . S
C1141 C1142 1.396 . S
C1141 C1151 1.510 . S
C1142 C1138 1.401 . S
C1142 C1141 1.396 . S
C1143 C1138 1.499 . S
C1143 H1144 0.959 . S
C1143 H1145 0.960 . S
C1143 H1146 0.961 . S
H1144 C1143 0.959 . S
H1145 C1143 0.960 . S
H1146 C1143 0.961 . S
O1147 Co1122 1.967 . S
O1147 C1155 1.258 . S
O1148 Co1123 1.941 . S
O1148 C1155 1.266 . S
H1149 C1151 0.959 . S
H1150 C1151 0.961 . S
C1151 C1141 1.510 . S
C1151 H1149 0.959 . S
C1151 H1150 0.961 . S
C1151 H1152 0.960 . S
H1152 C1151 0.960 . S
H1153 N1133 0.862 . S
O1154 Co1122 1.920 . S
O1154 C1127 1.289 . S
C1155 O1147 1.258 . S
C1155 O1148 1.266 . S
Co1156 O1159 1.970 . S
Co1156 N1173 1.989 . S
Co1156 O1181 1.967 . S
Co1156 O1188 1.920 . S
Co1157 O1160 1.966 . S
Co1157 N1166 2.022 . S
Co1157 N1174 1.993 . S
Co1157 O1182 1.941 . S
C1158 O1159 1.258 . S
C1158 O1160 1.263 . S
O1159 Co1156 1.970 . S
O1159 C1158 1.258 . S
O1160 Co1157 1.966 . S
O1160 C1158 1.263 . S
C1161 O1162 1.235 . S
C1161 O1188 1.289 . S
O1162 C1161 1.235 . S
C1163 C1165 1.400 . S
C1163 N1166 1.351 . S
C1163 C1168 1.501 . S
C1164 C1165 1.387 . S
C1164 N1167 1.341 . S
C1165 C1163 1.400 . S
C1165 C1164 1.387 . S
N1166 Co1157 2.022 . S
N1166 C1163 1.351 . S
N1166 N1167 1.365 . S
N1167 C1164 1.341 . S
N1167 N1166 1.365 . S
N1167 H1187 0.862 . S
C1168 C1163 1.501 . S
C1168 H1169 0.961 . S
C1168 H1170 0.961 . S
C1168 H1171 0.960 . S
H1169 C1168 0.961 . S
H1170 C1168 0.961 . S
H1171 C1168 0.960 . S
C1172 N1173 1.342 . S
C1172 C1176 1.401 . S
C1172 C1177 1.499 . S
N1173 Co1156 1.989 . S
N1173 C1172 1.342 . S
N1173 N1174 1.388 . S
N1174 Co1157 1.993 . S
N1174 N1173 1.388 . S
N1174 C1175 1.346 . S
C1175 N1174 1.346 . S
C1175 C1176 1.396 . S
C1175 C1185 1.510 . S
C1176 C1172 1.401 . S
C1176 C1175 1.396 . S
C1177 C1172 1.499 . S
C1177 H1178 0.959 . S
C1177 H1179 0.960 . S
C1177 H1180 0.961 . S
H1178 C1177 0.959 . S
H1179 C1177 0.960 . S
H1180 C1177 0.961 . S
O1181 Co1156 1.967 . S
O1181 C1189 1.258 . S
O1182 Co1157 1.941 . S
O1182 C1189 1.266 . S
H1183 C1185 0.959 . S
H1184 C1185 0.961 . S
C1185 C1175 1.510 . S
C1185 H1183 0.959 . S
C1185 H1184 0.961 . S
C1185 H1186 0.960 . S
H1186 C1185 0.960 . S
H1187 N1167 0.862 . S
O1188 Co1156 1.920 . S
O1188 C1161 1.289 . S
C1189 O1181 1.258 . S
C1189 O1182 1.266 . S
Co1190 O1193 1.970 . S
Co1190 N1207 1.989 . S
Co1190 O1215 1.967 . S
Co1190 O1222 1.920 . S
Co1191 O1194 1.966 . S
Co1191 N1200 2.022 . S
Co1191 N1208 1.993 . S
Co1191 O1216 1.941 . S
C1192 O1193 1.258 . S
C1192 O1194 1.263 . S
O1193 Co1190 1.970 . S
O1193 C1192 1.258 . S
O1194 Co1191 1.966 . S
O1194 C1192 1.263 . S
C1195 O1196 1.235 . S
C1195 O1222 1.289 . S
O1196 C1195 1.235 . S
C1197 C1199 1.400 . S
C1197 N1200 1.351 . S
C1197 C1202 1.501 . S
C1198 C1199 1.387 . S
C1198 N1201 1.341 . S
C1199 C1197 1.400 . S
C1199 C1198 1.387 . S
N1200 Co1191 2.022 . S
N1200 C1197 1.351 . S
N1200 N1201 1.365 . S
N1201 C1198 1.341 . S
N1201 N1200 1.365 . S
N1201 H1221 0.862 . S
C1202 C1197 1.501 . S
C1202 H1203 0.961 . S
C1202 H1204 0.961 . S
C1202 H1205 0.960 . S
H1203 C1202 0.961 . S
H1204 C1202 0.961 . S
H1205 C1202 0.960 . S
C1206 N1207 1.342 . S
C1206 C1210 1.401 . S
C1206 C1211 1.499 . S
N1207 Co1190 1.989 . S
N1207 C1206 1.342 . S
N1207 N1208 1.388 . S
N1208 Co1191 1.993 . S
N1208 N1207 1.388 . S
N1208 C1209 1.346 . S
C1209 N1208 1.346 . S
C1209 C1210 1.396 . S
C1209 C1219 1.510 . S
C1210 C1206 1.401 . S
C1210 C1209 1.396 . S
C1211 C1206 1.499 . S
C1211 H1212 0.959 . S
C1211 H1213 0.960 . S
C1211 H1214 0.961 . S
H1212 C1211 0.959 . S
H1213 C1211 0.960 . S
H1214 C1211 0.961 . S
O1215 Co1190 1.967 . S
O1215 C1223 1.258 . S
O1216 Co1191 1.941 . S
O1216 C1223 1.266 . S
H1217 C1219 0.959 . S
H1218 C1219 0.961 . S
C1219 C1209 1.510 . S
C1219 H1217 0.959 . S
C1219 H1218 0.961 . S
C1219 H1220 0.960 . S
H1220 C1219 0.960 . S
H1221 N1201 0.862 . S
O1222 Co1190 1.920 . S
O1222 C1195 1.289 . S
C1223 O1215 1.258 . S
C1223 O1216 1.266 . S
H1224 C1230 0.930 . S
H1225 C1234 0.930 . S
H1226 C1239 0.929 . S
H1227 C1237 0.929 . S
H1228 C1232 0.929 . S
H1229 C1238 0.929 . S
C1230 H1224 0.930 . S
C1230 C1231 1.367 . S
C1230 C1238 1.378 . S
C1231 C1230 1.367 . S
C1231 C1239 1.433 . S
C1232 H1228 0.929 . S
C1232 C1234 1.378 . S
C1232 C1236 1.350 . S
C1233 C1236 1.463 . S
C1233 C1238 1.350 . S
C1233 N1241 1.427 . S
C1234 H1225 0.930 . S
C1234 C1232 1.378 . S
C1234 C1235 1.367 . S
C1235 C1234 1.367 . S
C1235 C1237 1.433 . S
C1236 C1232 1.350 . S
C1236 C1233 1.463 . S
C1236 N1240 1.427 . S
C1237 H1227 0.929 . S
C1237 C1235 1.433 . S
C1237 N1240 1.384 . S
C1238 H1229 0.929 . S
C1238 C1230 1.378 . S
C1238 C1233 1.350 . S
C1239 H1226 0.929 . S
C1239 C1231 1.433 . S
C1239 N1241 1.384 . S
N1240 C1236 1.427 . S
N1240 C1237 1.384 . S
N1241 C1233 1.427 . S
N1241 C1239 1.384 . S
H1242 C1248 0.930 . S
H1243 C1252 0.930 . S
H1244 C1257 0.929 . S
H1245 C1255 0.929 . S
H1246 C1250 0.929 . S
H1247 C1256 0.929 . S
C1248 H1242 0.930 . S
C1248 C1249 1.367 . S
C1248 C1256 1.378 . S
C1249 C1248 1.367 . S
C1249 C1257 1.433 . S
C1250 H1246 0.929 . S
C1250 C1252 1.378 . S
C1250 C1254 1.350 . S
C1251 C1254 1.463 . S
C1251 C1256 1.350 . S
C1251 N1259 1.427 . S
C1252 H1243 0.930 . S
C1252 C1250 1.378 . S
C1252 C1253 1.367 . S
C1253 C1252 1.367 . S
C1253 C1255 1.433 . S
C1254 C1250 1.350 . S
C1254 C1251 1.463 . S
C1254 N1258 1.427 . S
C1255 H1245 0.929 . S
C1255 C1253 1.433 . S
C1255 N1258 1.384 . S
C1256 H1247 0.929 . S
C1256 C1248 1.378 . S
C1256 C1251 1.350 . S
C1257 H1244 0.929 . S
C1257 C1249 1.433 . S
C1257 N1259 1.384 . S
N1258 C1254 1.427 . S
N1258 C1255 1.384 . S
N1259 C1251 1.427 . S
N1259 C1257 1.384 . S
H1260 C1266 0.930 . S
H1261 C1270 0.930 . S
H1262 C1275 0.929 . S
H1263 C1273 0.929 . S
H1264 C1268 0.929 . S
H1265 C1274 0.929 . S
C1266 H1260 0.930 . S
C1266 C1267 1.367 . S
C1266 C1274 1.378 . S
C1267 C1266 1.367 . S
C1267 C1275 1.433 . S
C1268 H1264 0.929 . S
C1268 C1270 1.378 . S
C1268 C1272 1.350 . S
C1269 C1272 1.463 . S
C1269 C1274 1.350 . S
C1269 N1277 1.427 . S
C1270 H1261 0.930 . S
C1270 C1268 1.378 . S
C1270 C1271 1.367 . S
C1271 C1270 1.367 . S
C1271 C1273 1.433 . S
C1272 C1268 1.350 . S
C1272 C1269 1.463 . S
C1272 N1276 1.427 . S
C1273 H1263 0.929 . S
C1273 C1271 1.433 . S
C1273 N1276 1.384 . S
C1274 H1265 0.929 . S
C1274 C1266 1.378 . S
C1274 C1269 1.350 . S
C1275 H1262 0.929 . S
C1275 C1267 1.433 . S
C1275 N1277 1.384 . S
N1276 C1272 1.427 . S
N1276 C1273 1.384 . S
N1277 C1269 1.427 . S
N1277 C1275 1.384 . S
H1278 C1284 0.930 . S
H1279 C1288 0.930 . S
H1280 C1293 0.929 . S
H1281 C1291 0.929 . S
H1282 C1286 0.929 . S
H1283 C1292 0.929 . S
C1284 H1278 0.930 . S
C1284 C1285 1.367 . S
C1284 C1292 1.378 . S
C1285 C1284 1.367 . S
C1285 C1293 1.433 . S
C1286 H1282 0.929 . S
C1286 C1288 1.378 . S
C1286 C1290 1.350 . S
C1287 C1290 1.463 . S
C1287 C1292 1.350 . S
C1287 N1295 1.427 . S
C1288 H1279 0.930 . S
C1288 C1286 1.378 . S
C1288 C1289 1.367 . S
C1289 C1288 1.367 . S
C1289 C1291 1.433 . S
C1290 C1286 1.350 . S
C1290 C1287 1.463 . S
C1290 N1294 1.427 . S
C1291 H1281 0.929 . S
C1291 C1289 1.433 . S
C1291 N1294 1.384 . S
C1292 H1283 0.929 . S
C1292 C1284 1.378 . S
C1292 C1287 1.350 . S
C1293 H1280 0.929 . S
C1293 C1285 1.433 . S
C1293 N1295 1.384 . S
N1294 C1290 1.427 . S
N1294 C1291 1.384 . S
N1295 C1287 1.427 . S
N1295 C1293 1.384 . S
H1296 C1302 0.930 . S
H1297 C1306 0.930 . S
H1298 C1311 0.929 . S
H1299 C1309 0.929 . S
H1300 C1304 0.929 . S
H1301 C1310 0.929 . S
C1302 H1296 0.930 . S
C1302 C1303 1.367 . S
C1302 C1310 1.378 . S
C1303 C1302 1.367 . S
C1303 C1311 1.433 . S
C1304 H1300 0.929 . S
C1304 C1306 1.378 . S
C1304 C1308 1.350 . S
C1305 C1308 1.463 . S
C1305 C1310 1.350 . S
C1305 N1313 1.427 . S
C1306 H1297 0.930 . S
C1306 C1304 1.378 . S
C1306 C1307 1.367 . S
C1307 C1306 1.367 . S
C1307 C1309 1.433 . S
C1308 C1304 1.350 . S
C1308 C1305 1.463 . S
C1308 N1312 1.427 . S
C1309 H1299 0.929 . S
C1309 C1307 1.433 . S
C1309 N1312 1.384 . S
C1310 H1301 0.929 . S
C1310 C1302 1.378 . S
C1310 C1305 1.350 . S
C1311 H1298 0.929 . S
C1311 C1303 1.433 . S
C1311 N1313 1.384 . S
N1312 C1308 1.427 . S
N1312 C1309 1.384 . S
N1313 C1305 1.427 . S
N1313 C1311 1.384 . S
H1314 C1320 0.930 . S
H1315 C1324 0.930 . S
H1316 C1329 0.929 . S
H1317 C1327 0.929 . S
H1318 C1322 0.929 . S
H1319 C1328 0.929 . S
C1320 H1314 0.930 . S
C1320 C1321 1.367 . S
C1320 C1328 1.378 . S
C1321 C1320 1.367 . S
C1321 C1329 1.433 . S
C1322 H1318 0.929 . S
C1322 C1324 1.378 . S
C1322 C1326 1.350 . S
C1323 C1326 1.463 . S
C1323 C1328 1.350 . S
C1323 N1331 1.427 . S
C1324 H1315 0.930 . S
C1324 C1322 1.378 . S
C1324 C1325 1.367 . S
C1325 C1324 1.367 . S
C1325 C1327 1.433 . S
C1326 C1322 1.350 . S
C1326 C1323 1.463 . S
C1326 N1330 1.427 . S
C1327 H1317 0.929 . S
C1327 C1325 1.433 . S
C1327 N1330 1.384 . S
C1328 H1319 0.929 . S
C1328 C1320 1.378 . S
C1328 C1323 1.350 . S
C1329 H1316 0.929 . S
C1329 C1321 1.433 . S
C1329 N1331 1.384 . S
N1330 C1326 1.427 . S
N1330 C1327 1.384 . S
N1331 C1323 1.427 . S
N1331 C1329 1.384 . S
H1332 C1338 0.930 . S
H1333 C1342 0.930 . S
H1334 C1347 0.929 . S
H1335 C1345 0.929 . S
H1336 C1340 0.929 . S
H1337 C1346 0.929 . S
C1338 H1332 0.930 . S
C1338 C1339 1.367 . S
C1338 C1346 1.378 . S
C1339 C1338 1.367 . S
C1339 C1347 1.433 . S
C1340 H1336 0.929 . S
C1340 C1342 1.378 . S
C1340 C1344 1.350 . S
C1341 C1344 1.463 . S
C1341 C1346 1.350 . S
C1341 N1349 1.427 . S
C1342 H1333 0.930 . S
C1342 C1340 1.378 . S
C1342 C1343 1.367 . S
C1343 C1342 1.367 . S
C1343 C1345 1.433 . S
C1344 C1340 1.350 . S
C1344 C1341 1.463 . S
C1344 N1348 1.427 . S
C1345 H1335 0.929 . S
C1345 C1343 1.433 . S
C1345 N1348 1.384 . S
C1346 H1337 0.929 . S
C1346 C1338 1.378 . S
C1346 C1341 1.350 . S
C1347 H1334 0.929 . S
C1347 C1339 1.433 . S
C1347 N1349 1.384 . S
N1348 C1344 1.427 . S
N1348 C1345 1.384 . S
N1349 C1341 1.427 . S
N1349 C1347 1.384 . S
H1350 C1356 0.930 . S
H1351 C1360 0.930 . S
H1352 C1365 0.929 . S
H1353 C1363 0.929 . S
H1354 C1358 0.929 . S
H1355 C1364 0.929 . S
C1356 H1350 0.930 . S
C1356 C1357 1.367 . S
C1356 C1364 1.378 . S
C1357 C1356 1.367 . S
C1357 C1365 1.433 . S
C1358 H1354 0.929 . S
C1358 C1360 1.378 . S
C1358 C1362 1.350 . S
C1359 C1362 1.463 . S
C1359 C1364 1.350 . S
C1359 N1367 1.427 . S
C1360 H1351 0.930 . S
C1360 C1358 1.378 . S
C1360 C1361 1.367 . S
C1361 C1360 1.367 . S
C1361 C1363 1.433 . S
C1362 C1358 1.350 . S
C1362 C1359 1.463 . S
C1362 N1366 1.427 . S
C1363 H1353 0.929 . S
C1363 C1361 1.433 . S
C1363 N1366 1.384 . S
C1364 H1355 0.929 . S
C1364 C1356 1.378 . S
C1364 C1359 1.350 . S
C1365 H1352 0.929 . S
C1365 C1357 1.433 . S
C1365 N1367 1.384 . S
N1366 C1362 1.427 . S
N1366 C1363 1.384 . S
N1367 C1359 1.427 . S
N1367 C1365 1.384 . S
H1368 C1374 0.930 . S
H1369 C1378 0.930 . S
H1370 C1383 0.929 . S
H1371 C1381 0.929 . S
H1372 C1376 0.929 . S
H1373 C1382 0.929 . S
C1374 H1368 0.930 . S
C1374 C1375 1.367 . S
C1374 C1382 1.378 . S
C1375 C1374 1.367 . S
C1375 C1383 1.433 . S
C1376 H1372 0.929 . S
C1376 C1378 1.378 . S
C1376 C1380 1.350 . S
C1377 C1380 1.463 . S
C1377 C1382 1.350 . S
C1377 N1385 1.427 . S
C1378 H1369 0.930 . S
C1378 C1376 1.378 . S
C1378 C1379 1.367 . S
C1379 C1378 1.367 . S
C1379 C1381 1.433 . S
C1380 C1376 1.350 . S
C1380 C1377 1.463 . S
C1380 N1384 1.427 . S
C1381 H1371 0.929 . S
C1381 C1379 1.433 . S
C1381 N1384 1.384 . S
C1382 H1373 0.929 . S
C1382 C1374 1.378 . S
C1382 C1377 1.350 . S
C1383 H1370 0.929 . S
C1383 C1375 1.433 . S
C1383 N1385 1.384 . S
N1384 C1380 1.427 . S
N1384 C1381 1.384 . S
N1385 C1377 1.427 . S
N1385 C1383 1.384 . S
H1386 C1392 0.930 . S
H1387 C1396 0.930 . S
H1388 C1401 0.929 . S
H1389 C1399 0.929 . S
H1390 C1394 0.929 . S
H1391 C1400 0.929 . S
C1392 H1386 0.930 . S
C1392 C1393 1.367 . S
C1392 C1400 1.378 . S
C1393 C1392 1.367 . S
C1393 C1401 1.433 . S
C1394 H1390 0.929 . S
C1394 C1396 1.378 . S
C1394 C1398 1.350 . S
C1395 C1398 1.463 . S
C1395 C1400 1.350 . S
C1395 N1403 1.427 . S
C1396 H1387 0.930 . S
C1396 C1394 1.378 . S
C1396 C1397 1.367 . S
C1397 C1396 1.367 . S
C1397 C1399 1.433 . S
C1398 C1394 1.350 . S
C1398 C1395 1.463 . S
C1398 N1402 1.427 . S
C1399 H1389 0.929 . S
C1399 C1397 1.433 . S
C1399 N1402 1.384 . S
C1400 H1391 0.929 . S
C1400 C1392 1.378 . S
C1400 C1395 1.350 . S
C1401 H1388 0.929 . S
C1401 C1393 1.433 . S
C1401 N1403 1.384 . S
N1402 C1398 1.427 . S
N1402 C1399 1.384 . S
N1403 C1395 1.427 . S
N1403 C1401 1.384 . S
H1404 C1410 0.930 . S
H1405 C1414 0.930 . S
H1406 C1419 0.929 . S
H1407 C1417 0.929 . S
H1408 C1412 0.929 . S
H1409 C1418 0.929 . S
C1410 H1404 0.930 . S
C1410 C1411 1.367 . S
C1410 C1418 1.378 . S
C1411 C1410 1.367 . S
C1411 C1419 1.433 . S
C1412 H1408 0.929 . S
C1412 C1414 1.378 . S
C1412 C1416 1.350 . S
C1413 C1416 1.463 . S
C1413 C1418 1.350 . S
C1413 N1421 1.427 . S
C1414 H1405 0.930 . S
C1414 C1412 1.378 . S
C1414 C1415 1.367 . S
C1415 C1414 1.367 . S
C1415 C1417 1.433 . S
C1416 C1412 1.350 . S
C1416 C1413 1.463 . S
C1416 N1420 1.427 . S
C1417 H1407 0.929 . S
C1417 C1415 1.433 . S
C1417 N1420 1.384 . S
C1418 H1409 0.929 . S
C1418 C1410 1.378 . S
C1418 C1413 1.350 . S
C1419 H1406 0.929 . S
C1419 C1411 1.433 . S
C1419 N1421 1.384 . S
N1420 C1416 1.427 . S
N1420 C1417 1.384 . S
N1421 C1413 1.427 . S
N1421 C1419 1.384 . S
H1422 C1428 0.930 . S
H1423 C1432 0.930 . S
H1424 C1437 0.929 . S
H1425 C1435 0.929 . S
H1426 C1430 0.929 . S
H1427 C1436 0.929 . S
C1428 H1422 0.930 . S
C1428 C1429 1.367 . S
C1428 C1436 1.378 . S
C1429 C1428 1.367 . S
C1429 C1437 1.433 . S
C1430 H1426 0.929 . S
C1430 C1432 1.378 . S
C1430 C1434 1.350 . S
C1431 C1434 1.463 . S
C1431 C1436 1.350 . S
C1431 N1439 1.427 . S
C1432 H1423 0.930 . S
C1432 C1430 1.378 . S
C1432 C1433 1.367 . S
C1433 C1432 1.367 . S
C1433 C1435 1.433 . S
C1434 C1430 1.350 . S
C1434 C1431 1.463 . S
C1434 N1438 1.427 . S
C1435 H1425 0.929 . S
C1435 C1433 1.433 . S
C1435 N1438 1.384 . S
C1436 H1427 0.929 . S
C1436 C1428 1.378 . S
C1436 C1431 1.350 . S
C1437 H1424 0.929 . S
C1437 C1429 1.433 . S
C1437 N1439 1.384 . S
N1438 C1434 1.427 . S
N1438 C1435 1.384 . S
N1439 C1431 1.427 . S
N1439 C1437 1.384 . S
H1440 C1446 0.930 1_455 S
H1441 C1450 0.930 1_655 S
H1442 C1455 0.929 . S
H1443 C1453 0.929 . S
H1444 C1448 0.929 . S
H1445 C1454 0.929 . S
C1446 H1440 0.930 1_655 S
C1446 C1447 1.367 . S
C1446 C1454 1.378 1_655 S
C1447 C1446 1.367 . S
C1447 C1455 1.433 . S
C1448 H1444 0.929 . S
C1448 C1450 1.378 1_655 S
C1448 C1452 1.350 1_655 S
C1449 C1452 1.463 1_655 S
C1449 C1454 1.350 1_655 S
C1449 N1457 1.427 . S
C1450 H1441 0.930 1_455 S
C1450 C1448 1.378 1_455 S
C1450 C1451 1.367 . S
C1451 C1450 1.367 . S
C1451 C1453 1.433 . S
C1452 C1448 1.350 1_455 S
C1452 C1449 1.463 1_455 S
C1452 N1456 1.427 . S
C1453 H1443 0.929 . S
C1453 C1451 1.433 . S
C1453 N1456 1.384 . S
C1454 H1445 0.929 . S
C1454 C1446 1.378 1_455 S
C1454 C1449 1.350 1_455 S
C1455 H1442 0.929 . S
C1455 C1447 1.433 . S
C1455 N1457 1.384 . S
N1456 C1452 1.427 . S
N1456 C1453 1.384 . S
N1457 C1449 1.427 . S
N1457 C1455 1.384 . S
H1458 C1464 0.930 . S
H1459 C1468 0.930 . S
H1460 C1473 0.929 . S
H1461 C1471 0.929 . S
H1462 C1466 0.929 . S
H1463 C1472 0.929 . S
C1464 H1458 0.930 . S
C1464 C1465 1.367 . S
C1464 C1472 1.378 . S
C1465 C1464 1.367 . S
C1465 C1473 1.433 . S
C1466 H1462 0.929 . S
C1466 C1468 1.378 . S
C1466 C1470 1.350 . S
C1467 C1470 1.463 . S
C1467 C1472 1.350 . S
C1467 N1475 1.427 . S
C1468 H1459 0.930 . S
C1468 C1466 1.378 . S
C1468 C1469 1.367 . S
C1469 C1468 1.367 . S
C1469 C1471 1.433 . S
C1470 C1466 1.350 . S
C1470 C1467 1.463 . S
C1470 N1474 1.427 . S
C1471 H1461 0.929 . S
C1471 C1469 1.433 . S
C1471 N1474 1.384 . S
C1472 H1463 0.929 . S
C1472 C1464 1.378 . S
C1472 C1467 1.350 . S
C1473 H1460 0.929 . S
C1473 C1465 1.433 . S
C1473 N1475 1.384 . S
N1474 C1470 1.427 . S
N1474 C1471 1.384 . S
N1475 C1467 1.427 . S
N1475 C1473 1.384 . S
H1476 C1482 0.930 1_545 S
H1477 C1486 0.930 1_565 S
H1478 C1491 0.929 . S
H1479 C1489 0.929 . S
H1480 C1484 0.929 . S
H1481 C1490 0.929 . S
C1482 H1476 0.930 1_565 S
C1482 C1483 1.367 . S
C1482 C1490 1.378 1_565 S
C1483 C1482 1.367 . S
C1483 C1491 1.433 . S
C1484 H1480 0.929 . S
C1484 C1486 1.378 1_565 S
C1484 C1488 1.350 1_565 S
C1485 C1488 1.463 1_565 S
C1485 C1490 1.350 1_565 S
C1485 N1493 1.427 . S
C1486 H1477 0.930 1_545 S
C1486 C1484 1.378 1_545 S
C1486 C1487 1.367 . S
C1487 C1486 1.367 . S
C1487 C1489 1.433 . S
C1488 C1484 1.350 1_545 S
C1488 C1485 1.463 1_545 S
C1488 N1492 1.427 . S
C1489 H1479 0.929 . S
C1489 C1487 1.433 . S
C1489 N1492 1.384 . S
C1490 H1481 0.929 . S
C1490 C1482 1.378 1_545 S
C1490 C1485 1.350 1_545 S
C1491 H1478 0.929 . S
C1491 C1483 1.433 . S
C1491 N1493 1.384 . S
N1492 C1488 1.427 . S
N1492 C1489 1.384 . S
N1493 C1485 1.427 . S
N1493 C1491 1.384 . S
H1494 C1500 0.930 1_545 S
H1495 C1504 0.930 1_565 S
H1496 C1509 0.929 . S
H1497 C1507 0.929 . S
H1498 C1502 0.929 . S
H1499 C1508 0.929 . S
C1500 H1494 0.930 1_565 S
C1500 C1501 1.367 . S
C1500 C1508 1.378 1_565 S
C1501 C1500 1.367 . S
C1501 C1509 1.433 . S
C1502 H1498 0.929 . S
C1502 C1504 1.378 1_565 S
C1502 C1506 1.350 1_565 S
C1503 C1506 1.463 1_565 S
C1503 C1508 1.350 1_565 S
C1503 N1511 1.427 . S
C1504 H1495 0.930 1_545 S
C1504 C1502 1.378 1_545 S
C1504 C1505 1.367 . S
C1505 C1504 1.367 . S
C1505 C1507 1.433 . S
C1506 C1502 1.350 1_545 S
C1506 C1503 1.463 1_545 S
C1506 N1510 1.427 . S
C1507 H1497 0.929 . S
C1507 C1505 1.433 . S
C1507 N1510 1.384 . S
C1508 H1499 0.929 . S
C1508 C1500 1.378 1_545 S
C1508 C1503 1.350 1_545 S
C1509 H1496 0.929 . S
C1509 C1501 1.433 . S
C1509 N1511 1.384 . S
N1510 C1506 1.427 . S
N1510 C1507 1.384 . S
N1511 C1503 1.427 . S
N1511 C1509 1.384 . S
H1512 C1518 0.930 . S
H1513 C1522 0.930 . S
H1514 C1527 0.929 . S
H1515 C1525 0.929 . S
H1516 C1520 0.929 . S
H1517 C1526 0.929 . S
C1518 H1512 0.930 . S
C1518 C1519 1.367 . S
C1518 C1526 1.378 . S
C1519 C1518 1.367 . S
C1519 C1527 1.433 . S
C1520 H1516 0.929 . S
C1520 C1522 1.378 . S
C1520 C1524 1.350 . S
C1521 C1524 1.463 1_455 S
C1521 C1526 1.350 . S
C1521 N1529 1.427 . S
C1522 H1513 0.930 . S
C1522 C1520 1.378 . S
C1522 C1523 1.367 . S
C1523 C1522 1.367 . S
C1523 C1525 1.433 . S
C1524 C1520 1.350 . S
C1524 C1521 1.463 1_655 S
C1524 N1528 1.427 . S
C1525 H1515 0.929 . S
C1525 C1523 1.433 . S
C1525 N1528 1.384 . S
C1526 H1517 0.929 . S
C1526 C1518 1.378 . S
C1526 C1521 1.350 . S
C1527 H1514 0.929 . S
C1527 C1519 1.433 . S
C1527 N1529 1.384 . S
N1528 C1524 1.427 . S
N1528 C1525 1.384 . S
N1529 C1521 1.427 . S
N1529 C1527 1.384 . S
H1530 C1536 0.930 . S
H1531 C1540 0.930 . S
H1532 C1545 0.929 . S
H1533 C1543 0.929 . S
H1534 C1538 0.929 . S
H1535 C1544 0.929 . S
C1536 H1530 0.930 . S
C1536 C1537 1.367 . S
C1536 C1544 1.378 . S
C1537 C1536 1.367 . S
C1537 C1545 1.433 . S
C1538 H1534 0.929 . S
C1538 C1540 1.378 . S
C1538 C1542 1.350 . S
C1539 C1542 1.463 . S
C1539 C1544 1.350 . S
C1539 N1547 1.427 . S
C1540 H1531 0.930 . S
C1540 C1538 1.378 . S
C1540 C1541 1.367 . S
C1541 C1540 1.367 . S
C1541 C1543 1.433 . S
C1542 C1538 1.350 . S
C1542 C1539 1.463 . S
C1542 N1546 1.427 . S
C1543 H1533 0.929 . S
C1543 C1541 1.433 . S
C1543 N1546 1.384 . S
C1544 H1535 0.929 . S
C1544 C1536 1.378 . S
C1544 C1539 1.350 . S
C1545 H1532 0.929 . S
C1545 C1537 1.433 . S
C1545 N1547 1.384 . S
N1546 C1542 1.427 . S
N1546 C1543 1.384 . S
N1547 C1539 1.427 . S
N1547 C1545 1.384 . S
H1548 C1554 0.930 . S
H1549 C1558 0.930 . S
H1550 C1563 0.929 . S
H1551 C1561 0.929 . S
H1552 C1556 0.929 . S
H1553 C1562 0.929 . S
C1554 H1548 0.930 . S
C1554 C1555 1.367 . S
C1554 C1562 1.378 . S
C1555 C1554 1.367 . S
C1555 C1563 1.433 . S
C1556 H1552 0.929 . S
C1556 C1558 1.378 . S
C1556 C1560 1.350 . S
C1557 C1560 1.463 . S
C1557 C1562 1.350 . S
C1557 N1565 1.427 . S
C1558 H1549 0.930 . S
C1558 C1556 1.378 . S
C1558 C1559 1.367 . S
C1559 C1558 1.367 . S
C1559 C1561 1.433 . S
C1560 C1556 1.350 . S
C1560 C1557 1.463 . S
C1560 N1564 1.427 . S
C1561 H1551 0.929 . S
C1561 C1559 1.433 . S
C1561 N1564 1.384 . S
C1562 H1553 0.929 . S
C1562 C1554 1.378 . S
C1562 C1557 1.350 . S
C1563 H1550 0.929 . S
C1563 C1555 1.433 . S
C1563 N1565 1.384 . S
N1564 C1560 1.427 . S
N1564 C1561 1.384 . S
N1565 C1557 1.427 . S
N1565 C1563 1.384 . S
H1566 C1572 0.930 . S
H1567 C1576 0.930 . S
H1568 C1581 0.929 . S
H1569 C1579 0.929 . S
H1570 C1574 0.929 . S
H1571 C1580 0.929 . S
C1572 H1566 0.930 . S
C1572 C1573 1.367 . S
C1572 C1580 1.378 . S
C1573 C1572 1.367 . S
C1573 C1581 1.433 . S
C1574 H1570 0.929 . S
C1574 C1576 1.378 . S
C1574 C1578 1.350 . S
C1575 C1578 1.463 . S
C1575 C1580 1.350 . S
C1575 N1583 1.427 . S
C1576 H1567 0.930 . S
C1576 C1574 1.378 . S
C1576 C1577 1.367 . S
C1577 C1576 1.367 . S
C1577 C1579 1.433 1_545 S
C1578 C1574 1.350 . S
C1578 C1575 1.463 . S
C1578 N1582 1.427 . S
C1579 H1569 0.929 . S
C1579 C1577 1.433 1_565 S
C1579 N1582 1.384 1_565 S
C1580 H1571 0.929 . S
C1580 C1572 1.378 . S
C1580 C1575 1.350 . S
C1581 H1568 0.929 . S
C1581 C1573 1.433 . S
C1581 N1583 1.384 . S
N1582 C1578 1.427 . S
N1582 C1579 1.384 1_545 S
N1583 C1575 1.427 . S
N1583 C1581 1.384 . S
H1584 C1590 0.930 . S
H1585 C1594 0.930 . S
H1586 C1599 0.929 . S
H1587 C1597 0.929 1_455 S
H1588 C1592 0.929 . S
H1589 C1598 0.929 . S
C1590 H1584 0.930 . S
C1590 C1591 1.367 . S
C1590 C1598 1.378 . S
C1591 C1590 1.367 . S
C1591 C1599 1.433 . S
C1592 H1588 0.929 . S
C1592 C1594 1.378 . S
C1592 C1596 1.350 . S
C1593 C1596 1.463 . S
C1593 C1598 1.350 . S
C1593 N1601 1.427 . S
C1594 H1585 0.930 . S
C1594 C1592 1.378 . S
C1594 C1595 1.367 . S
C1595 C1594 1.367 . S
C1595 C1597 1.433 . S
C1596 C1592 1.350 . S
C1596 C1593 1.463 . S
C1596 N1600 1.427 . S
C1597 H1587 0.929 1_655 S
C1597 C1595 1.433 . S
C1597 N1600 1.384 . S
C1598 H1589 0.929 . S
C1598 C1590 1.378 . S
C1598 C1593 1.350 . S
C1599 H1586 0.929 . S
C1599 C1591 1.433 . S
C1599 N1601 1.384 . S
N1600 C1596 1.427 . S
N1600 C1597 1.384 . S
N1601 C1593 1.427 . S
N1601 C1599 1.384 . S
H1602 C1608 0.930 . S
H1603 C1612 0.930 . S
H1604 C1617 0.929 . S
H1605 C1615 0.929 . S
H1606 C1610 0.929 . S
H1607 C1616 0.929 . S
C1608 H1602 0.930 . S
C1608 C1609 1.367 . S
C1608 C1616 1.378 . S
C1609 C1608 1.367 . S
C1609 C1617 1.433 . S
C1610 H1606 0.929 . S
C1610 C1612 1.378 . S
C1610 C1614 1.350 . S
C1611 C1614 1.463 . S
C1611 C1616 1.350 . S
C1611 N1619 1.427 . S
C1612 H1603 0.930 . S
C1612 C1610 1.378 . S
C1612 C1613 1.367 . S
C1613 C1612 1.367 . S
C1613 C1615 1.433 . S
C1614 C1610 1.350 . S
C1614 C1611 1.463 . S
C1614 N1618 1.427 . S
C1615 H1605 0.929 . S
C1615 C1613 1.433 . S
C1615 N1618 1.384 . S
C1616 H1607 0.929 . S
C1616 C1608 1.378 . S
C1616 C1611 1.350 . S
C1617 H1604 0.929 . S
C1617 C1609 1.433 . S
C1617 N1619 1.384 . S
N1618 C1614 1.427 . S
N1618 C1615 1.384 . S
N1619 C1611 1.427 . S
N1619 C1617 1.384 . S
H1620 C1626 0.930 . S
H1621 C1630 0.946 . S
H1622 C1635 0.929 . S
H1623 C1633 0.929 . S
H1624 C1628 0.929 . S
H1625 C1634 0.929 . S
C1626 H1620 0.930 . S
C1626 C1627 1.367 . S
C1626 C1634 1.378 . S
C1627 C1626 1.367 . S
C1627 C1635 1.433 . S
C1628 H1624 0.929 . S
C1628 C1630 1.364 1_565 S
C1628 C1632 1.350 . S
C1629 C1632 1.463 . S
C1629 C1634 1.350 . S
C1629 N1637 1.427 . S
C1630 H1621 0.946 . S
C1630 C1628 1.364 1_545 S
C1630 C1631 1.365 1_545 S
C1631 C1630 1.365 1_565 S
C1631 C1633 1.433 . S
C1632 C1628 1.350 . S
C1632 C1629 1.463 . S
C1632 N1636 1.427 . S
C1633 H1623 0.929 . S
C1633 C1631 1.433 . S
C1633 N1636 1.384 . S
C1634 H1625 0.929 . S
C1634 C1626 1.378 . S
C1634 C1629 1.350 . S
C1635 H1622 0.929 . S
C1635 C1627 1.433 . S
C1635 N1637 1.384 . S
N1636 C1632 1.427 . S
N1636 C1633 1.384 . S
N1637 C1629 1.427 . S
N1637 C1635 1.384 . S
H1638 C1644 0.930 . S
H1639 C1648 0.930 . S
H1640 C1653 0.929 . S
H1641 C1651 0.929 . S
H1642 C1646 0.929 . S
H1643 C1652 0.929 . S
C1644 H1638 0.930 . S
C1644 C1645 1.367 . S
C1644 C1652 1.378 . S
C1645 C1644 1.367 . S
C1645 C1653 1.433 . S
C1646 H1642 0.929 . S
C1646 C1648 1.378 . S
C1646 C1650 1.350 . S
C1647 C1650 1.463 . S
C1647 C1652 1.350 . S
C1647 N1655 1.427 . S
C1648 H1639 0.930 . S
C1648 C1646 1.378 . S
C1648 C1649 1.367 . S
C1649 C1648 1.367 . S
C1649 C1651 1.433 . S
C1650 C1646 1.350 . S
C1650 C1647 1.463 . S
C1650 N1654 1.427 . S
C1651 H1641 0.929 . S
C1651 C1649 1.433 . S
C1651 N1654 1.384 . S
C1652 H1643 0.929 . S
C1652 C1644 1.378 . S
C1652 C1647 1.350 . S
C1653 H1640 0.929 . S
C1653 C1645 1.433 . S
C1653 N1655 1.384 . S
N1654 C1650 1.427 . S
N1654 C1651 1.384 . S
N1655 C1647 1.427 . S
N1655 C1653 1.384 . S
H1656 C1662 0.930 . S
H1657 C1666 0.930 . S
H1658 C1671 0.929 . S
H1659 C1669 0.929 . S
H1660 C1664 0.929 . S
H1661 C1670 0.929 . S
C1662 H1656 0.930 . S
C1662 C1663 1.367 . S
C1662 C1670 1.378 . S
C1663 C1662 1.367 . S
C1663 C1671 1.433 . S
C1664 H1660 0.929 . S
C1664 C1666 1.378 . S
C1664 C1668 1.350 . S
C1665 C1668 1.463 . S
C1665 C1670 1.350 . S
C1665 N1673 1.427 . S
C1666 H1657 0.930 . S
C1666 C1664 1.378 . S
C1666 C1667 1.367 . S
C1667 C1666 1.367 . S
C1667 C1669 1.433 . S
C1668 C1664 1.350 . S
C1668 C1665 1.463 . S
C1668 N1672 1.427 . S
C1669 H1659 0.929 . S
C1669 C1667 1.433 . S
C1669 N1672 1.384 . S
C1670 H1661 0.929 . S
C1670 C1662 1.378 . S
C1670 C1665 1.350 . S
C1671 H1658 0.929 . S
C1671 C1663 1.433 . S
C1671 N1673 1.384 . S
N1672 C1668 1.427 . S
N1672 C1669 1.384 . S
N1673 C1665 1.427 . S
N1673 C1671 1.384 . S
H1674 C1680 0.930 . S
H1675 C1684 0.930 . S
H1676 C1689 0.929 . S
H1677 C1687 0.929 1_545 S
H1678 C1682 0.929 . S
H1679 C1688 0.929 . S
C1680 H1674 0.930 . S
C1680 C1681 1.367 . S
C1680 C1688 1.378 . S
C1681 C1680 1.367 . S
C1681 C1689 1.433 . S
C1682 H1678 0.929 . S
C1682 C1684 1.378 . S
C1682 C1686 1.350 . S
C1683 C1686 1.463 . S
C1683 C1688 1.350 . S
C1683 N1691 1.427 . S
C1684 H1675 0.930 . S
C1684 C1682 1.378 . S
C1684 C1685 1.367 . S
C1685 C1684 1.367 . S
C1685 C1687 1.433 . S
C1686 C1682 1.350 . S
C1686 C1683 1.463 . S
C1686 N1690 1.427 . S
C1687 H1677 0.929 1_565 S
C1687 C1685 1.433 . S
C1687 N1690 1.384 . S
C1688 H1679 0.929 . S
C1688 C1680 1.378 . S
C1688 C1683 1.350 . S
C1689 H1676 0.929 . S
C1689 C1681 1.433 . S
C1689 N1691 1.384 . S
N1690 C1686 1.427 . S
N1690 C1687 1.384 . S
N1691 C1683 1.427 . S
N1691 C1689 1.384 . S
H1692 C1698 0.930 . S
H1693 C1702 0.930 . S
H1694 C1707 0.929 . S
H1695 C1705 0.929 1_655 S
H1696 C1700 0.929 . S
H1697 C1706 0.929 . S
C1698 H1692 0.930 . S
C1698 C1699 1.367 . S
C1698 C1706 1.378 . S
C1699 C1698 1.367 . S
C1699 C1707 1.433 . S
C1700 H1696 0.929 . S
C1700 C1702 1.378 . S
C1700 C1704 1.350 . S
C1701 C1704 1.463 . S
C1701 C1706 1.350 . S
C1701 N1709 1.427 . S
C1702 H1693 0.930 . S
C1702 C1700 1.378 . S
C1702 C1703 1.367 . S
C1703 C1702 1.367 . S
C1703 C1705 1.433 . S
C1704 C1700 1.350 . S
C1704 C1701 1.463 . S
C1704 N1708 1.427 . S
C1705 H1695 0.929 1_455 S
C1705 C1703 1.433 . S
C1705 N1708 1.384 . S
C1706 H1697 0.929 . S
C1706 C1698 1.378 . S
C1706 C1701 1.350 . S
C1707 H1694 0.929 . S
C1707 C1699 1.433 . S
C1707 N1709 1.384 . S
N1708 C1704 1.427 . S
N1708 C1705 1.384 . S
N1709 C1701 1.427 . S
N1709 C1707 1.384 . S
H1710 C1716 0.930 . S
H1711 C1720 0.930 . S
H1712 C1725 0.929 . S
H1713 C1723 0.929 . S
H1714 C1718 0.929 . S
H1715 C1724 0.929 . S
C1716 H1710 0.930 . S
C1716 C1717 1.367 . S
C1716 C1724 1.378 . S
C1717 C1716 1.367 . S
C1717 C1725 1.433 . S
C1718 H1714 0.929 . S
C1718 C1720 1.378 . S
C1718 C1722 1.350 . S
C1719 C1722 1.463 . S
C1719 C1724 1.350 . S
C1719 N1727 1.427 . S
C1720 H1711 0.930 . S
C1720 C1718 1.378 . S
C1720 C1721 1.367 . S
C1721 C1720 1.367 . S
C1721 C1723 1.433 . S
C1722 C1718 1.350 . S
C1722 C1719 1.463 . S
C1722 N1726 1.427 . S
C1723 H1713 0.929 . S
C1723 C1721 1.433 . S
C1723 N1726 1.384 . S
C1724 H1715 0.929 . S
C1724 C1716 1.378 . S
C1724 C1719 1.350 . S
C1725 H1712 0.929 . S
C1725 C1717 1.433 . S
C1725 N1727 1.384 . S
N1726 C1722 1.427 . S
N1726 C1723 1.384 . S
N1727 C1719 1.427 . S
N1727 C1725 1.384 . S
H1728 C1734 0.930 . S
H1729 C1738 0.930 . S
H1730 C1743 0.929 . S
H1731 C1741 0.929 . S
H1732 C1736 0.929 . S
H1733 C1742 0.929 . S
C1734 H1728 0.930 . S
C1734 C1735 1.367 . S
C1734 C1742 1.378 . S
C1735 C1734 1.367 . S
C1735 C1743 1.433 . S
C1736 H1732 0.929 . S
C1736 C1738 1.378 . S
C1736 C1740 1.350 . S
C1737 C1740 1.463 . S
C1737 C1742 1.350 . S
C1737 N1745 1.427 . S
C1738 H1729 0.930 . S
C1738 C1736 1.378 . S
C1738 C1739 1.367 . S
C1739 C1738 1.367 . S
C1739 C1741 1.433 . S
C1740 C1736 1.350 . S
C1740 C1737 1.463 . S
C1740 N1744 1.427 . S
C1741 H1731 0.929 . S
C1741 C1739 1.433 . S
C1741 N1744 1.384 . S
C1742 H1733 0.929 . S
C1742 C1734 1.378 . S
C1742 C1737 1.350 . S
C1743 H1730 0.929 . S
C1743 C1735 1.433 . S
C1743 N1745 1.384 . S
N1744 C1740 1.427 . S
N1744 C1741 1.384 . S
N1745 C1737 1.427 . S
N1745 C1743 1.384 . S
H1746 C1752 0.930 . S
H1747 C1756 0.930 . S
H1748 C1761 0.929 1_455 S
H1749 C1759 0.929 . S
H1750 C1754 0.929 . S
H1751 C1760 0.929 . S
C1752 H1746 0.930 . S
C1752 C1753 1.367 . S
C1752 C1760 1.378 . S
C1753 C1752 1.367 . S
C1753 C1761 1.433 . S
C1754 H1750 0.929 . S
C1754 C1756 1.378 . S
C1754 C1758 1.350 . S
C1755 C1758 1.463 . S
C1755 C1760 1.350 . S
C1755 N1763 1.427 . S
C1756 H1747 0.930 . S
C1756 C1754 1.378 . S
C1756 C1757 1.367 . S
C1757 C1756 1.367 . S
C1757 C1759 1.433 . S
C1758 C1754 1.350 . S
C1758 C1755 1.463 . S
C1758 N1762 1.427 . S
C1759 H1749 0.929 . S
C1759 C1757 1.433 . S
C1759 N1762 1.384 . S
C1760 H1751 0.929 . S
C1760 C1752 1.378 . S
C1760 C1755 1.350 . S
C1761 H1748 0.929 1_655 S
C1761 C1753 1.433 . S
C1761 N1763 1.384 . S
N1762 C1758 1.427 . S
N1762 C1759 1.384 . S
N1763 C1755 1.427 . S
N1763 C1761 1.384 . S
H1764 C1770 0.930 . S
H1765 C1774 0.930 . S
H1766 C1779 0.929 . S
H1767 C1777 0.929 . S
H1768 C1772 0.929 . S
H1769 C1778 0.929 . S
C1770 H1764 0.930 . S
C1770 C1771 1.367 . S
C1770 C1778 1.378 . S
C1771 C1770 1.367 . S
C1771 C1779 1.433 . S
C1772 H1768 0.929 . S
C1772 C1774 1.378 . S
C1772 C1776 1.350 . S
C1773 C1776 1.463 1_655 S
C1773 C1778 1.350 . S
C1773 N1781 1.427 . S
C1774 H1765 0.930 . S
C1774 C1772 1.378 . S
C1774 C1775 1.367 . S
C1775 C1774 1.367 . S
C1775 C1777 1.433 . S
C1776 C1772 1.350 . S
C1776 C1773 1.463 1_455 S
C1776 N1780 1.427 . S
C1777 H1767 0.929 . S
C1777 C1775 1.433 . S
C1777 N1780 1.384 . S
C1778 H1769 0.929 . S
C1778 C1770 1.378 . S
C1778 C1773 1.350 . S
C1779 H1766 0.929 . S
C1779 C1771 1.433 . S
C1779 N1781 1.384 . S
N1780 C1776 1.427 . S
N1780 C1777 1.384 . S
N1781 C1773 1.427 . S
N1781 C1779 1.384 . S
H1782 C1788 0.930 . S
H1783 C1792 0.930 . S
H1784 C1797 0.929 . S
H1785 C1795 0.929 . S
H1786 C1790 0.929 . S
H1787 C1796 0.929 . S
C1788 H1782 0.930 . S
C1788 C1789 1.367 . S
C1788 C1796 1.378 . S
C1789 C1788 1.367 . S
C1789 C1797 1.433 . S
C1790 H1786 0.929 . S
C1790 C1792 1.378 . S
C1790 C1794 1.350 . S
C1791 C1794 1.463 . S
C1791 C1796 1.350 . S
C1791 N1799 1.427 . S
C1792 H1783 0.930 . S
C1792 C1790 1.378 . S
C1792 C1793 1.367 . S
C1793 C1792 1.367 . S
C1793 C1795 1.433 . S
C1794 C1790 1.350 . S
C1794 C1791 1.463 . S
C1794 N1798 1.427 . S
C1795 H1785 0.929 . S
C1795 C1793 1.433 . S
C1795 N1798 1.384 . S
C1796 H1787 0.929 . S
C1796 C1788 1.378 . S
C1796 C1791 1.350 . S
C1797 H1784 0.929 . S
C1797 C1789 1.433 . S
C1797 N1799 1.384 . S
N1798 C1794 1.427 . S
N1798 C1795 1.384 . S
N1799 C1791 1.427 . S
N1799 C1797 1.384 . S
H1800 C1806 0.930 . S
H1801 C1810 0.930 . S
H1802 C1815 0.929 . S
H1803 C1813 0.929 . S
H1804 C1808 0.929 . S
H1805 C1814 0.929 . S
C1806 H1800 0.930 . S
C1806 C1807 1.367 . S
C1806 C1814 1.378 . S
C1807 C1806 1.367 . S
C1807 C1815 1.433 . S
C1808 H1804 0.929 . S
C1808 C1810 1.378 . S
C1808 C1812 1.350 . S
C1809 C1812 1.463 1_545 S
C1809 C1814 1.350 . S
C1809 N1817 1.427 . S
C1810 H1801 0.930 . S
C1810 C1808 1.378 . S
C1810 C1811 1.367 . S
C1811 C1810 1.367 . S
C1811 C1813 1.433 . S
C1812 C1808 1.350 . S
C1812 C1809 1.463 1_565 S
C1812 N1816 1.427 . S
C1813 H1803 0.929 . S
C1813 C1811 1.433 . S
C1813 N1816 1.384 . S
C1814 H1805 0.929 . S
C1814 C1806 1.378 . S
C1814 C1809 1.350 . S
C1815 H1802 0.929 . S
C1815 C1807 1.433 . S
C1815 N1817 1.384 . S
N1816 C1812 1.427 . S
N1816 C1813 1.384 . S
N1817 C1809 1.427 . S
N1817 C1815 1.384 . S
H1818 C1824 0.930 . S
H1819 C1828 0.930 . S
H1820 C1833 0.929 . S
H1821 C1831 0.929 . S
H1822 C1826 0.929 . S
H1823 C1832 0.929 . S
C1824 H1818 0.930 . S
C1824 C1825 1.367 . S
C1824 C1832 1.378 . S
C1825 C1824 1.367 . S
C1825 C1833 1.433 . S
C1826 H1822 0.929 . S
C1826 C1828 1.378 . S
C1826 C1830 1.350 . S
C1827 C1830 1.463 1_545 S
C1827 C1832 1.350 . S
C1827 N1835 1.427 . S
C1828 H1819 0.930 . S
C1828 C1826 1.378 . S
C1828 C1829 1.367 . S
C1829 C1828 1.367 . S
C1829 C1831 1.433 . S
C1830 C1826 1.350 . S
C1830 C1827 1.463 1_565 S
C1830 N1834 1.427 . S
C1831 H1821 0.929 . S
C1831 C1829 1.433 . S
C1831 N1834 1.384 . S
C1832 H1823 0.929 . S
C1832 C1824 1.378 . S
C1832 C1827 1.350 . S
C1833 H1820 0.929 . S
C1833 C1825 1.433 . S
C1833 N1835 1.384 . S
N1834 C1830 1.427 . S
N1834 C1831 1.384 . S
N1835 C1827 1.427 . S
N1835 C1833 1.384 . S
H1836 C1842 0.930 . S
H1837 C1846 0.930 . S
H1838 C1851 0.929 . S
H1839 C1849 0.929 . S
H1840 C1844 0.929 . S
H1841 C1850 0.929 . S
C1842 H1836 0.930 . S
C1842 C1843 1.367 . S
C1842 C1850 1.378 . S
C1843 C1842 1.367 . S
C1843 C1851 1.433 . S
C1844 H1840 0.929 . S
C1844 C1846 1.378 . S
C1844 C1848 1.350 . S
C1845 C1848 1.463 1_455 S
C1845 C1850 1.350 . S
C1845 N1853 1.427 . S
C1846 H1837 0.930 . S
C1846 C1844 1.378 . S
C1846 C1847 1.367 . S
C1847 C1846 1.367 . S
C1847 C1849 1.433 . S
C1848 C1844 1.350 . S
C1848 C1845 1.463 1_655 S
C1848 N1852 1.427 . S
C1849 H1839 0.929 . S
C1849 C1847 1.433 . S
C1849 N1852 1.384 . S
C1850 H1841 0.929 . S
C1850 C1842 1.378 . S
C1850 C1845 1.350 . S
C1851 H1838 0.929 . S
C1851 C1843 1.433 . S
C1851 N1853 1.384 . S
N1852 C1848 1.427 . S
N1852 C1849 1.384 . S
N1853 C1845 1.427 . S
N1853 C1851 1.384 . S
H1854 C1860 0.930 . S
H1855 C1864 0.930 . S
H1856 C1869 0.929 . S
H1857 C1867 0.929 . S
H1858 C1862 0.929 . S
H1859 C1868 0.929 . S
C1860 H1854 0.930 . S
C1860 C1861 1.367 . S
C1860 C1868 1.378 . S
C1861 C1860 1.367 . S
C1861 C1869 1.433 . S
C1862 H1858 0.929 . S
C1862 C1864 1.378 . S
C1862 C1866 1.350 . S
C1863 C1866 1.463 . S
C1863 C1868 1.350 . S
C1863 N1871 1.427 . S
C1864 H1855 0.930 . S
C1864 C1862 1.378 . S
C1864 C1865 1.367 . S
C1865 C1864 1.367 . S
C1865 C1867 1.433 . S
C1866 C1862 1.350 . S
C1866 C1863 1.463 . S
C1866 N1870 1.427 . S
C1867 H1857 0.929 . S
C1867 C1865 1.433 . S
C1867 N1870 1.384 . S
C1868 H1859 0.929 . S
C1868 C1860 1.378 . S
C1868 C1863 1.350 . S
C1869 H1856 0.929 . S
C1869 C1861 1.433 . S
C1869 N1871 1.384 . S
N1870 C1866 1.427 . S
N1870 C1867 1.384 . S
N1871 C1863 1.427 . S
N1871 C1869 1.384 . S
H1872 C1878 0.930 . S
H1873 C1882 0.930 . S
H1874 C1887 0.929 . S
H1875 C1885 0.929 . S
H1876 C1880 0.929 . S
H1877 C1886 0.929 . S
C1878 H1872 0.930 . S
C1878 C1879 1.367 . S
C1878 C1886 1.378 . S
C1879 C1878 1.367 . S
C1879 C1887 1.433 . S
C1880 H1876 0.929 . S
C1880 C1882 1.378 . S
C1880 C1884 1.350 . S
C1881 C1884 1.463 . S
C1881 C1886 1.350 . S
C1881 N1889 1.427 . S
C1882 H1873 0.930 . S
C1882 C1880 1.378 . S
C1882 C1883 1.367 . S
C1883 C1882 1.367 . S
C1883 C1885 1.433 . S
C1884 C1880 1.350 . S
C1884 C1881 1.463 . S
C1884 N1888 1.427 . S
C1885 H1875 0.929 . S
C1885 C1883 1.433 . S
C1885 N1888 1.384 . S
C1886 H1877 0.929 . S
C1886 C1878 1.378 . S
C1886 C1881 1.350 . S
C1887 H1874 0.929 . S
C1887 C1879 1.433 . S
C1887 N1889 1.384 . S
N1888 C1884 1.427 . S
N1888 C1885 1.384 . S
N1889 C1881 1.427 . S
N1889 C1887 1.384 . S
H1890 C1896 0.930 . S
H1891 C1900 0.930 . S
H1892 C1905 0.929 . S
H1893 C1903 0.929 . S
H1894 C1898 0.929 . S
H1895 C1904 0.929 . S
C1896 H1890 0.930 . S
C1896 C1897 1.367 . S
C1896 C1904 1.378 . S
C1897 C1896 1.367 . S
C1897 C1905 1.433 . S
C1898 H1894 0.929 . S
C1898 C1900 1.378 . S
C1898 C1902 1.350 . S
C1899 C1902 1.463 . S
C1899 C1904 1.350 . S
C1899 N1907 1.427 . S
C1900 H1891 0.930 . S
C1900 C1898 1.378 . S
C1900 C1901 1.367 . S
C1901 C1900 1.367 . S
C1901 C1903 1.433 . S
C1902 C1898 1.350 . S
C1902 C1899 1.463 . S
C1902 N1906 1.427 . S
C1903 H1893 0.929 . S
C1903 C1901 1.433 . S
C1903 N1906 1.384 . S
C1904 H1895 0.929 . S
C1904 C1896 1.378 . S
C1904 C1899 1.350 . S
C1905 H1892 0.929 . S
C1905 C1897 1.433 . S
C1905 N1907 1.384 . S
N1906 C1902 1.427 . S
N1906 C1903 1.384 . S
N1907 C1899 1.427 . S
N1907 C1905 1.384 . S
H1908 C1914 0.930 . S
H1909 C1918 0.930 . S
H1910 C1923 0.929 . S
H1911 C1921 0.929 . S
H1912 C1916 0.929 . S
H1913 C1922 0.929 . S
C1914 H1908 0.930 . S
C1914 C1915 1.367 . S
C1914 C1922 1.378 . S
C1915 C1914 1.367 . S
C1915 C1923 1.433 . S
C1916 H1912 0.929 . S
C1916 C1918 1.378 . S
C1916 C1920 1.350 . S
C1917 C1920 1.463 . S
C1917 C1922 1.350 . S
C1917 N1925 1.427 . S
C1918 H1909 0.930 . S
C1918 C1916 1.378 . S
C1918 C1919 1.367 . S
C1919 C1918 1.367 . S
C1919 C1921 1.433 . S
C1920 C1916 1.350 . S
C1920 C1917 1.463 . S
C1920 N1924 1.427 . S
C1921 H1911 0.929 . S
C1921 C1919 1.433 . S
C1921 N1924 1.384 . S
C1922 H1913 0.929 . S
C1922 C1914 1.378 . S
C1922 C1917 1.350 . S
C1923 H1910 0.929 . S
C1923 C1915 1.433 . S
C1923 N1925 1.384 . S
N1924 C1920 1.427 . S
N1924 C1921 1.384 . S
N1925 C1917 1.427 . S
N1925 C1923 1.384 . S
H1926 C1932 0.930 . S
H1927 C1936 0.930 . S
H1928 C1941 0.929 . S
H1929 C1939 0.929 . S
H1930 C1934 0.929 . S
H1931 C1940 0.929 . S
C1932 H1926 0.930 . S
C1932 C1933 1.367 . S
C1932 C1940 1.378 . S
C1933 C1932 1.367 . S
C1933 C1941 1.433 . S
C1934 H1930 0.929 . S
C1934 C1936 1.378 . S
C1934 C1938 1.350 . S
C1935 C1938 1.463 . S
C1935 C1940 1.350 . S
C1935 N1943 1.427 . S
C1936 H1927 0.930 . S
C1936 C1934 1.378 . S
C1936 C1937 1.367 . S
C1937 C1936 1.367 . S
C1937 C1939 1.433 . S
C1938 C1934 1.350 . S
C1938 C1935 1.463 . S
C1938 N1942 1.427 . S
C1939 H1929 0.929 . S
C1939 C1937 1.433 . S
C1939 N1942 1.384 . S
C1940 H1931 0.929 . S
C1940 C1932 1.378 . S
C1940 C1935 1.350 . S
C1941 H1928 0.929 . S
C1941 C1933 1.433 . S
C1941 N1943 1.384 . S
N1942 C1938 1.427 . S
N1942 C1939 1.384 . S
N1943 C1935 1.427 . S
N1943 C1941 1.384 . S
H1944 C1950 0.930 . S
H1945 C1954 0.930 . S
H1946 C1959 0.929 . S
H1947 C1957 0.929 . S
H1948 C1952 0.929 . S
H1949 C1958 0.929 . S
C1950 H1944 0.930 . S
C1950 C1951 1.367 . S
C1950 C1958 1.378 . S
C1951 C1950 1.367 . S
C1951 C1959 1.433 . S
C1952 H1948 0.929 . S
C1952 C1954 1.378 . S
C1952 C1956 1.350 . S
C1953 C1956 1.463 . S
C1953 C1958 1.350 . S
C1953 N1961 1.427 . S
C1954 H1945 0.930 . S
C1954 C1952 1.378 . S
C1954 C1955 1.367 . S
C1955 C1954 1.367 . S
C1955 C1957 1.433 . S
C1956 C1952 1.350 . S
C1956 C1953 1.463 . S
C1956 N1960 1.427 . S
C1957 H1947 0.929 . S
C1957 C1955 1.433 . S
C1957 N1960 1.384 . S
C1958 H1949 0.929 . S
C1958 C1950 1.378 . S
C1958 C1953 1.350 . S
C1959 H1946 0.929 . S
C1959 C1951 1.433 . S
C1959 N1961 1.384 . S
N1960 C1956 1.427 . S
N1960 C1957 1.384 . S
N1961 C1953 1.427 . S
N1961 C1959 1.384 . S
H1962 C1968 0.930 . S
H1963 C1972 0.930 . S
H1964 C1977 0.929 . S
H1965 C1975 0.929 . S
H1966 C1970 0.929 . S
H1967 C1976 0.929 . S
C1968 H1962 0.930 . S
C1968 C1969 1.367 . S
C1968 C1976 1.378 . S
C1969 C1968 1.367 . S
C1969 C1977 1.433 . S
C1970 H1966 0.929 . S
C1970 C1972 1.378 . S
C1970 C1974 1.350 . S
C1971 C1974 1.463 . S
C1971 C1976 1.350 . S
C1971 N1979 1.427 . S
C1972 H1963 0.930 . S
C1972 C1970 1.378 . S
C1972 C1973 1.367 . S
C1973 C1972 1.367 . S
C1973 C1975 1.433 . S
C1974 C1970 1.350 . S
C1974 C1971 1.463 . S
C1974 N1978 1.427 . S
C1975 H1965 0.929 . S
C1975 C1973 1.433 . S
C1975 N1978 1.384 . S
C1976 H1967 0.929 . S
C1976 C1968 1.378 . S
C1976 C1971 1.350 . S
C1977 H1964 0.929 . S
C1977 C1969 1.433 . S
C1977 N1979 1.384 . S
N1978 C1974 1.427 . S
N1978 C1975 1.384 . S
N1979 C1971 1.427 . S
N1979 C1977 1.384 . S
H1980 C1986 0.930 . S
H1981 C1990 0.930 . S
H1982 C1995 0.929 . S
H1983 C1993 0.929 . S
H1984 C1988 0.929 . S
H1985 C1994 0.929 . S
C1986 H1980 0.930 . S
C1986 C1987 1.367 . S
C1986 C1994 1.378 . S
C1987 C1986 1.367 . S
C1987 C1995 1.433 . S
C1988 H1984 0.929 . S
C1988 C1990 1.378 . S
C1988 C1992 1.350 . S
C1989 C1992 1.463 . S
C1989 C1994 1.350 . S
C1989 N1997 1.427 . S
C1990 H1981 0.930 . S
C1990 C1988 1.378 . S
C1990 C1991 1.367 . S
C1991 C1990 1.367 . S
C1991 C1993 1.433 . S
C1992 C1988 1.350 . S
C1992 C1989 1.463 . S
C1992 N1996 1.427 . S
C1993 H1983 0.929 . S
C1993 C1991 1.433 . S
C1993 N1996 1.384 . S
C1994 H1985 0.929 . S
C1994 C1986 1.378 . S
C1994 C1989 1.350 . S
C1995 H1982 0.929 . S
C1995 C1987 1.433 . S
C1995 N1997 1.384 . S
N1996 C1992 1.427 . S
N1996 C1993 1.384 . S
N1997 C1989 1.427 . S
N1997 C1995 1.384 . S
H1998 C2004 0.930 . S
H1999 C2008 0.930 . S
H2000 C2013 0.929 . S
H2001 C2011 0.929 . S
H2002 C2006 0.929 . S
H2003 C2012 0.929 . S
C2004 H1998 0.930 . S
C2004 C2005 1.367 . S
C2004 C2012 1.378 . S
C2005 C2004 1.367 . S
C2005 C2013 1.433 . S
C2006 H2002 0.929 . S
C2006 C2008 1.378 . S
C2006 C2010 1.350 . S
C2007 C2010 1.463 . S
C2007 C2012 1.350 . S
C2007 N2015 1.427 . S
C2008 H1999 0.930 . S
C2008 C2006 1.378 . S
C2008 C2009 1.367 . S
C2009 C2008 1.367 . S
C2009 C2011 1.433 . S
C2010 C2006 1.350 . S
C2010 C2007 1.463 . S
C2010 N2014 1.427 . S
C2011 H2001 0.929 . S
C2011 C2009 1.433 . S
C2011 N2014 1.384 . S
C2012 H2003 0.929 . S
C2012 C2004 1.378 . S
C2012 C2007 1.350 . S
C2013 H2000 0.929 . S
C2013 C2005 1.433 . S
C2013 N2015 1.384 . S
N2014 C2010 1.427 . S
N2014 C2011 1.384 . S
N2015 C2007 1.427 . S
N2015 C2013 1.384 . S
H2016 C2022 0.930 . S
H2017 C2026 0.930 . S
H2018 C2031 0.929 . S
H2019 C2029 0.929 . S
H2020 C2024 0.929 . S
H2021 C2030 0.929 . S
C2022 H2016 0.930 . S
C2022 C2023 1.367 . S
C2022 C2030 1.378 . S
C2023 C2022 1.367 . S
C2023 C2031 1.433 . S
C2024 H2020 0.929 . S
C2024 C2026 1.378 . S
C2024 C2028 1.350 . S
C2025 C2028 1.463 . S
C2025 C2030 1.350 . S
C2025 N2033 1.427 . S
C2026 H2017 0.930 . S
C2026 C2024 1.378 . S
C2026 C2027 1.367 . S
C2027 C2026 1.367 . S
C2027 C2029 1.433 . S
C2028 C2024 1.350 . S
C2028 C2025 1.463 . S
C2028 N2032 1.427 . S
C2029 H2019 0.929 . S
C2029 C2027 1.433 . S
C2029 N2032 1.384 . S
C2030 H2021 0.929 . S
C2030 C2022 1.378 . S
C2030 C2025 1.350 . S
C2031 H2018 0.929 . S
C2031 C2023 1.433 . S
C2031 N2033 1.384 . S
N2032 C2028 1.427 . S
N2032 C2029 1.384 . S
N2033 C2025 1.427 . S
N2033 C2031 1.384 . S
H2034 C2040 0.930 . S
H2035 C2044 0.930 . S
H2036 C2049 0.929 . S
H2037 C2047 0.929 . S
H2038 C2042 0.929 . S
H2039 C2048 0.929 . S
C2040 H2034 0.930 . S
C2040 C2041 1.367 . S
C2040 C2048 1.378 . S
C2041 C2040 1.367 . S
C2041 C2049 1.433 . S
C2042 H2038 0.929 . S
C2042 C2044 1.378 . S
C2042 C2046 1.350 . S
C2043 C2046 1.463 . S
C2043 C2048 1.350 . S
C2043 N2051 1.427 . S
C2044 H2035 0.930 . S
C2044 C2042 1.378 . S
C2044 C2045 1.367 . S
C2045 C2044 1.367 . S
C2045 C2047 1.433 . S
C2046 C2042 1.350 . S
C2046 C2043 1.463 . S
C2046 N2050 1.427 . S
C2047 H2037 0.929 . S
C2047 C2045 1.433 . S
C2047 N2050 1.384 . S
C2048 H2039 0.929 . S
C2048 C2040 1.378 . S
C2048 C2043 1.350 . S
C2049 H2036 0.929 . S
C2049 C2041 1.433 . S
C2049 N2051 1.384 . S
N2050 C2046 1.427 . S
N2050 C2047 1.384 . S
N2051 C2043 1.427 . S
N2051 C2049 1.384 . S
H2052 C2058 0.930 . S
H2053 C2062 0.930 . S
H2054 C2067 0.929 . S
H2055 C2065 0.929 . S
H2056 C2060 0.929 . S
H2057 C2066 0.929 . S
C2058 H2052 0.930 . S
C2058 C2059 1.367 . S
C2058 C2066 1.378 . S
C2059 C2058 1.367 . S
C2059 C2067 1.433 . S
C2060 H2056 0.929 . S
C2060 C2062 1.378 . S
C2060 C2064 1.350 . S
C2061 C2064 1.463 . S
C2061 C2066 1.350 . S
C2061 N2069 1.427 . S
C2062 H2053 0.930 . S
C2062 C2060 1.378 . S
C2062 C2063 1.367 . S
C2063 C2062 1.367 . S
C2063 C2065 1.433 . S
C2064 C2060 1.350 . S
C2064 C2061 1.463 . S
C2064 N2068 1.427 . S
C2065 H2055 0.929 . S
C2065 C2063 1.433 . S
C2065 N2068 1.384 . S
C2066 H2057 0.929 . S
C2066 C2058 1.378 . S
C2066 C2061 1.350 . S
C2067 H2054 0.929 . S
C2067 C2059 1.433 . S
C2067 N2069 1.384 . S
N2068 C2064 1.427 . S
N2068 C2065 1.384 . S
N2069 C2061 1.427 . S
N2069 C2067 1.384 . S
H2070 C2076 0.930 . S
H2071 C2080 0.930 . S
H2072 C2085 0.929 . S
H2073 C2083 0.929 . S
H2074 C2078 0.929 . S
H2075 C2084 0.929 . S
C2076 H2070 0.930 . S
C2076 C2077 1.367 . S
C2076 C2084 1.378 . S
C2077 C2076 1.367 . S
C2077 C2085 1.433 . S
C2078 H2074 0.929 . S
C2078 C2080 1.378 . S
C2078 C2082 1.350 . S
C2079 C2082 1.463 . S
C2079 C2084 1.350 . S
C2079 N2087 1.427 . S
C2080 H2071 0.930 . S
C2080 C2078 1.378 . S
C2080 C2081 1.367 . S
C2081 C2080 1.367 . S
C2081 C2083 1.433 . S
C2082 C2078 1.350 . S
C2082 C2079 1.463 . S
C2082 N2086 1.427 . S
C2083 H2073 0.929 . S
C2083 C2081 1.433 . S
C2083 N2086 1.384 . S
C2084 H2075 0.929 . S
C2084 C2076 1.378 . S
C2084 C2079 1.350 . S
C2085 H2072 0.929 . S
C2085 C2077 1.433 . S
C2085 N2087 1.384 . S
N2086 C2082 1.427 . S
N2086 C2083 1.384 . S
N2087 C2079 1.427 . S
N2087 C2085 1.384 . S
H2088 C2094 0.916 1_655 S
H2089 C2098 0.916 1_455 S
H2090 C2103 0.929 . S
H2091 C2101 0.929 . S
H2092 C2096 0.929 . S
H2093 C2102 0.929 . S
C2094 H2088 0.916 1_455 S
C2094 C2095 1.367 . S
C2094 C2102 1.378 1_455 S
C2095 C2094 1.367 . S
C2095 C2103 1.433 . S
C2096 H2092 0.929 . S
C2096 C2098 1.378 1_455 S
C2096 C2100 1.350 1_455 S
C2097 C2100 1.463 1_455 S
C2097 C2102 1.350 1_455 S
C2097 N2105 1.427 . S
C2098 H2089 0.916 1_655 S
C2098 C2096 1.378 1_655 S
C2098 C2099 1.367 . S
C2099 C2098 1.367 . S
C2099 C2101 1.433 . S
C2100 C2096 1.350 1_655 S
C2100 C2097 1.463 1_655 S
C2100 N2104 1.427 . S
C2101 H2091 0.929 . S
C2101 C2099 1.433 . S
C2101 N2104 1.384 . S
C2102 H2093 0.929 . S
C2102 C2094 1.378 1_655 S
C2102 C2097 1.350 1_655 S
C2103 H2090 0.929 . S
C2103 C2095 1.433 . S
C2103 N2105 1.384 . S
N2104 C2100 1.427 . S
N2104 C2101 1.384 . S
N2105 C2097 1.427 . S
N2105 C2103 1.384 . S
H2106 C2112 0.930 . S
H2107 C2116 0.930 . S
H2108 C2121 0.929 . S
H2109 C2119 0.929 . S
H2110 C2114 0.929 . S
H2111 C2120 0.929 . S
C2112 H2106 0.930 . S
C2112 C2113 1.367 . S
C2112 C2120 1.378 . S
C2113 C2112 1.367 . S
C2113 C2121 1.433 . S
C2114 H2110 0.929 . S
C2114 C2116 1.378 . S
C2114 C2118 1.350 . S
C2115 C2118 1.463 . S
C2115 C2120 1.350 . S
C2115 N2123 1.427 . S
C2116 H2107 0.930 . S
C2116 C2114 1.378 . S
C2116 C2117 1.367 . S
C2117 C2116 1.367 . S
C2117 C2119 1.433 . S
C2118 C2114 1.350 . S
C2118 C2115 1.463 . S
C2118 N2122 1.427 . S
C2119 H2109 0.929 . S
C2119 C2117 1.433 . S
C2119 N2122 1.384 . S
C2120 H2111 0.929 . S
C2120 C2112 1.378 . S
C2120 C2115 1.350 . S
C2121 H2108 0.929 . S
C2121 C2113 1.433 . S
C2121 N2123 1.384 . S
N2122 C2118 1.427 . S
N2122 C2119 1.384 . S
N2123 C2115 1.427 . S
N2123 C2121 1.384 . S
H2124 C2130 0.930 . S
H2125 C2134 0.930 . S
H2126 C2139 0.929 . S
H2127 C2137 0.929 . S
H2128 C2132 0.971 . S
H2129 C2138 0.971 . S
C2130 H2124 0.930 . S
C2130 C2131 1.367 . S
C2130 C2138 1.367 1_545 S
C2131 C2130 1.367 . S
C2131 C2139 1.433 . S
C2132 H2128 0.971 . S
C2132 C2134 1.367 1_545 S
C2132 C2136 1.320 1_545 S
C2133 C2136 1.463 1_545 S
C2133 C2138 1.320 1_545 S
C2133 N2141 1.427 . S
C2134 H2125 0.930 . S
C2134 C2132 1.367 1_565 S
C2134 C2135 1.367 . S
C2135 C2134 1.367 . S
C2135 C2137 1.433 . S
C2136 C2132 1.320 1_565 S
C2136 C2133 1.463 1_565 S
C2136 N2140 1.427 . S
C2137 H2127 0.929 . S
C2137 C2135 1.433 . S
C2137 N2140 1.384 . S
C2138 H2129 0.971 . S
C2138 C2130 1.367 1_565 S
C2138 C2133 1.320 1_565 S
C2139 H2126 0.929 . S
C2139 C2131 1.433 . S
C2139 N2141 1.384 . S
N2140 C2136 1.427 . S
N2140 C2137 1.384 . S
N2141 C2133 1.427 . S
N2141 C2139 1.384 . S
H2142 C2148 0.930 . S
H2143 C2152 0.930 . S
H2144 C2157 0.929 . S
H2145 C2155 0.929 . S
H2146 C2150 0.929 1_554 S
H2147 C2156 0.929 1_556 S
C2148 H2142 0.930 . S
C2148 C2149 1.367 . S
C2148 C2156 1.378 . S
C2149 C2148 1.367 . S
C2149 C2157 1.433 . S
C2150 H2146 0.929 1_556 S
C2150 C2152 1.378 . S
C2150 C2154 1.350 . S
C2151 C2154 1.463 1_564 S
C2151 C2156 1.350 . S
C2151 N2159 1.432 . S
C2152 H2143 0.930 . S
C2152 C2150 1.378 . S
C2152 C2153 1.367 . S
C2153 C2152 1.367 . S
C2153 C2155 1.433 . S
C2154 C2150 1.350 . S
C2154 C2151 1.463 1_546 S
C2154 N2158 1.432 . S
C2155 H2145 0.929 . S
C2155 C2153 1.433 . S
C2155 N2158 1.391 . S
C2156 H2147 0.929 1_554 S
C2156 C2148 1.378 . S
C2156 C2151 1.350 . S
C2157 H2144 0.929 . S
C2157 C2149 1.433 . S
C2157 N2159 1.391 . S
N2158 C2154 1.432 . S
N2158 C2155 1.391 . S
N2159 C2151 1.432 . S
N2159 C2157 1.391 . S
H2160 C2166 0.930 . S
H2161 C2170 0.930 . S
H2162 C2175 0.929 . S
H2163 C2173 0.929 . S
H2164 C2168 0.929 1_556 S
H2165 C2174 0.929 1_554 S
C2166 H2160 0.930 . S
C2166 C2167 1.367 . S
C2166 C2174 1.378 . S
C2167 C2166 1.367 . S
C2167 C2175 1.433 . S
C2168 H2164 0.929 1_554 S
C2168 C2170 1.378 . S
C2168 C2172 1.350 . S
C2169 C2172 1.463 1_656 S
C2169 C2174 1.350 . S
C2169 N2177 1.427 . S
C2170 H2161 0.930 . S
C2170 C2168 1.378 . S
C2170 C2171 1.367 . S
C2171 C2170 1.367 . S
C2171 C2173 1.433 . S
C2172 C2168 1.350 . S
C2172 C2169 1.463 1_454 S
C2172 N2176 1.427 . S
C2173 H2163 0.929 . S
C2173 C2171 1.433 . S
C2173 N2176 1.384 . S
C2174 H2165 0.929 1_556 S
C2174 C2166 1.378 . S
C2174 C2169 1.350 . S
C2175 H2162 0.929 . S
C2175 C2167 1.433 . S
C2175 N2177 1.384 . S
N2176 C2172 1.427 . S
N2176 C2173 1.384 . S
N2177 C2169 1.427 . S
N2177 C2175 1.384 . S
H2178 C2184 0.930 . S
H2179 C2188 0.930 . S
H2180 C2193 0.929 . S
H2181 C2191 0.929 . S
H2182 C2186 0.929 . S
H2183 C2192 0.929 . S
C2184 H2178 0.930 . S
C2184 C2185 1.367 . S
C2184 C2192 1.378 . S
C2185 C2184 1.367 . S
C2185 C2193 1.433 . S
C2186 H2182 0.929 . S
C2186 C2188 1.378 . S
C2186 C2190 1.350 . S
C2187 C2190 1.463 1_554 S
C2187 C2192 1.350 . S
C2187 N2195 1.427 . S
C2188 H2179 0.930 . S
C2188 C2186 1.378 . S
C2188 C2189 1.367 . S
C2189 C2188 1.367 . S
C2189 C2191 1.433 . S
C2190 C2186 1.350 . S
C2190 C2187 1.463 1_556 S
C2190 N2194 1.427 . S
C2191 H2181 0.929 . S
C2191 C2189 1.433 . S
C2191 N2194 1.384 . S
C2192 H2183 0.929 . S
C2192 C2184 1.378 . S
C2192 C2187 1.350 . S
C2193 H2180 0.929 . S
C2193 C2185 1.433 . S
C2193 N2195 1.384 . S
N2194 C2190 1.427 . S
N2194 C2191 1.384 . S
N2195 C2187 1.427 . S
N2195 C2193 1.384 . S
H2196 C2202 0.930 . S
H2197 C2206 0.930 . S
H2198 C2211 0.929 . S
H2199 C2209 0.929 . S
H2200 C2204 0.929 . S
H2201 C2210 0.929 . S
C2202 H2196 0.930 . S
C2202 C2203 1.367 . S
C2202 C2210 1.378 . S
C2203 C2202 1.367 . S
C2203 C2211 1.433 1_554 S
C2204 H2200 0.929 . S
C2204 C2206 1.378 1_545 S
C2204 C2208 1.350 . S
C2205 C2208 1.463 . S
C2205 C2210 1.350 1_556 S
C2205 N2213 1.427 . S
C2206 H2197 0.930 . S
C2206 C2204 1.378 1_565 S
C2206 C2207 1.367 . S
C2207 C2206 1.367 . S
C2207 C2209 1.433 . S
C2208 C2204 1.350 . S
C2208 C2205 1.463 . S
C2208 N2212 1.429 1_545 S
C2209 H2199 0.929 . S
C2209 C2207 1.433 . S
C2209 N2212 1.385 . S
C2210 H2201 0.929 . S
C2210 C2202 1.378 . S
C2210 C2205 1.350 1_554 S
C2211 H2198 0.929 . S
C2211 C2203 1.433 1_556 S
C2211 N2213 1.384 . S
N2212 C2208 1.429 1_565 S
N2212 C2209 1.385 . S
N2213 C2205 1.427 . S
N2213 C2211 1.384 . S
H2214 C2220 0.930 . S
H2215 C2224 0.935 . S
H2216 C2229 0.929 . S
H2217 C2227 0.929 . S
H2218 C2222 0.929 . S
H2219 C2228 0.929 . S
C2220 H2214 0.930 . S
C2220 C2221 1.367 1_556 S
C2220 C2228 1.378 . S
C2221 C2220 1.367 1_554 S
C2221 C2229 1.433 . S
C2222 H2218 0.929 . S
C2222 C2224 1.380 . S
C2222 C2226 1.350 1_454 S
C2223 C2226 1.463 . S
C2223 C2228 1.350 . S
C2223 N2231 1.427 1_556 S
C2224 H2215 0.935 . S
C2224 C2222 1.380 . S
C2224 C2225 1.360 1_554 S
C2225 C2224 1.360 1_556 S
C2225 C2227 1.433 . S
C2226 C2222 1.350 1_656 S
C2226 C2223 1.463 . S
C2226 N2230 1.427 . S
C2227 H2217 0.929 . S
C2227 C2225 1.433 . S
C2227 N2230 1.384 1_455 S
C2228 H2219 0.929 . S
C2228 C2220 1.378 . S
C2228 C2223 1.350 . S
C2229 H2216 0.929 . S
C2229 C2221 1.433 . S
C2229 N2231 1.384 . S
N2230 C2226 1.427 . S
N2230 C2227 1.384 1_655 S
N2231 C2223 1.427 1_554 S
N2231 C2229 1.384 . S
H2232 C2238 0.930 . S
H2233 C2242 0.930 . S
H2234 C2247 0.964 . S
H2235 C2245 0.929 . S
H2236 C2240 0.929 . S
H2237 C2246 0.929 . S
C2238 H2232 0.930 . S
C2238 C2239 1.367 . S
C2238 C2246 1.378 . S
C2239 C2238 1.367 . S
C2239 C2247 1.383 1_556 S
C2240 H2236 0.929 . S
C2240 C2242 1.378 . S
C2240 C2244 1.309 1_554 S
C2241 C2244 1.478 . S
C2241 C2246 1.350 . S
C2241 N2249 1.427 1_556 S
C2242 H2233 0.930 . S
C2242 C2240 1.378 . S
C2242 C2243 1.367 . S
C2243 C2242 1.367 . S
C2243 C2245 1.433 1_554 S
C2244 C2240 1.309 1_556 S
C2244 C2241 1.478 . S
C2244 N2248 1.458 . S
C2245 H2235 0.929 . S
C2245 C2243 1.433 1_556 S
C2245 N2248 1.384 . S
C2246 H2237 0.929 . S
C2246 C2238 1.378 . S
C2246 C2241 1.350 . S
C2247 H2234 0.964 . S
C2247 C2239 1.383 1_554 S
C2247 N2249 1.399 . S
N2248 C2244 1.458 . S
N2248 C2245 1.384 . S
N2249 C2241 1.427 1_554 S
N2249 C2247 1.399 . S
H2250 C2256 0.930 . S
H2251 C2260 0.930 . S
H2252 C2265 0.929 . S
H2253 C2263 0.929 . S
H2254 C2258 0.929 . S
H2255 C2264 0.929 . S
C2256 H2250 0.930 . S
C2256 C2257 1.367 . S
C2256 C2264 1.378 1_655 S
C2257 C2256 1.367 . S
C2257 C2265 1.433 . S
C2258 H2254 0.929 . S
C2258 C2260 1.378 . S
C2258 C2262 1.350 . S
C2259 C2262 1.463 . S
C2259 C2264 1.350 . S
C2259 N2267 1.427 1_455 S
C2260 H2251 0.930 . S
C2260 C2258 1.378 . S
C2260 C2261 1.367 . S
C2261 C2260 1.367 . S
C2261 C2263 1.433 . S
C2262 C2258 1.350 . S
C2262 C2259 1.463 . S
C2262 N2266 1.427 . S
C2263 H2253 0.929 . S
C2263 C2261 1.433 . S
C2263 N2266 1.384 . S
C2264 H2255 0.929 . S
C2264 C2256 1.378 1_455 S
C2264 C2259 1.350 . S
C2265 H2252 0.929 . S
C2265 C2257 1.433 . S
C2265 N2267 1.384 . S
N2266 C2262 1.427 . S
N2266 C2263 1.384 . S
N2267 C2259 1.427 1_655 S
N2267 C2265 1.384 . S
H2268 C2274 0.930 . S
H2269 C2278 0.930 . S
H2270 C2283 0.929 . S
H2271 C2281 0.929 . S
H2272 C2276 0.929 . S
H2273 C2282 0.929 . S
C2274 H2268 0.930 . S
C2274 C2275 1.367 . S
C2274 C2282 1.378 . S
C2275 C2274 1.367 . S
C2275 C2283 1.433 . S
C2276 H2272 0.929 . S
C2276 C2278 1.378 . S
C2276 C2280 1.350 . S
C2277 C2280 1.463 . S
C2277 C2282 1.350 . S
C2277 N2285 1.427 . S
C2278 H2269 0.930 . S
C2278 C2276 1.378 . S
C2278 C2279 1.367 . S
C2279 C2278 1.367 . S
C2279 C2281 1.433 . S
C2280 C2276 1.350 . S
C2280 C2277 1.463 . S
C2280 N2284 1.427 . S
C2281 H2271 0.929 . S
C2281 C2279 1.433 . S
C2281 N2284 1.384 . S
C2282 H2273 0.929 . S
C2282 C2274 1.378 . S
C2282 C2277 1.350 . S
C2283 H2270 0.929 . S
C2283 C2275 1.433 . S
C2283 N2285 1.384 . S
N2284 C2280 1.427 . S
N2284 C2281 1.384 . S
N2285 C2277 1.427 . S
N2285 C2283 1.384 . S
H2286 C2292 0.930 . S
H2287 C2296 0.930 . S
H2288 C2301 0.929 . S
H2289 C2299 0.929 . S
H2290 C2294 0.929 . S
H2291 C2300 0.929 . S
C2292 H2286 0.930 . S
C2292 C2293 1.367 . S
C2292 C2300 1.378 1_545 S
C2293 C2292 1.367 . S
C2293 C2301 1.433 . S
C2294 H2290 0.929 . S
C2294 C2296 1.378 . S
C2294 C2298 1.350 . S
C2295 C2298 1.463 . S
C2295 C2300 1.350 . S
C2295 N2303 1.427 1_565 S
C2296 H2287 0.930 . S
C2296 C2294 1.378 . S
C2296 C2297 1.367 . S
C2297 C2296 1.367 . S
C2297 C2299 1.433 . S
C2298 C2294 1.350 . S
C2298 C2295 1.463 . S
C2298 N2302 1.427 . S
C2299 H2289 0.929 . S
C2299 C2297 1.433 . S
C2299 N2302 1.384 . S
C2300 H2291 0.929 . S
C2300 C2292 1.378 1_565 S
C2300 C2295 1.350 . S
C2301 H2288 0.929 . S
C2301 C2293 1.433 . S
C2301 N2303 1.384 . S
N2302 C2298 1.427 . S
N2302 C2299 1.384 . S
N2303 C2295 1.427 1_545 S
N2303 C2301 1.384 . S
H2304 C2310 0.930 . S
H2305 C2314 0.930 . S
H2306 C2319 0.929 1_556 S
H2307 C2317 0.929 . S
H2308 C2312 0.929 . S
H2309 C2318 0.929 . S
C2310 H2304 0.930 . S
C2310 C2311 1.367 . S
C2310 C2318 1.378 1_545 S
C2311 C2310 1.367 . S
C2311 C2319 1.433 . S
C2312 H2308 0.929 . S
C2312 C2314 1.378 . S
C2312 C2316 1.350 1_556 S
C2313 C2316 1.463 . S
C2313 C2318 1.350 . S
C2313 N2321 1.427 1_564 S
C2314 H2305 0.930 . S
C2314 C2312 1.378 . S
C2314 C2315 1.367 . S
C2315 C2314 1.367 . S
C2315 C2317 1.433 1_556 S
C2316 C2312 1.350 1_554 S
C2316 C2313 1.463 . S
C2316 N2320 1.427 . S
C2317 H2307 0.929 . S
C2317 C2315 1.433 1_554 S
C2317 N2320 1.384 . S
C2318 H2309 0.929 . S
C2318 C2310 1.378 1_565 S
C2318 C2313 1.350 . S
C2319 H2306 0.929 1_554 S
C2319 C2311 1.433 . S
C2319 N2321 1.384 1_554 S
N2320 C2316 1.427 . S
N2320 C2317 1.384 . S
N2321 C2313 1.427 1_546 S
N2321 C2319 1.384 1_556 S
H2322 C2328 0.930 . S
H2323 C2332 0.930 . S
H2324 C2337 0.929 . S
H2325 C2335 0.929 . S
H2326 C2330 0.929 . S
H2327 C2336 0.929 1_455 S
C2328 H2322 0.930 . S
C2328 C2329 1.367 . S
C2328 C2336 1.378 . S
C2329 C2328 1.367 . S
C2329 C2337 1.433 . S
C2330 H2326 0.929 . S
C2330 C2332 1.378 . S
C2330 C2334 1.350 1_556 S
C2331 C2334 1.463 . S
C2331 C2336 1.350 1_455 S
C2331 N2339 1.427 . S
C2332 H2323 0.930 . S
C2332 C2330 1.378 . S
C2332 C2333 1.367 . S
C2333 C2332 1.367 . S
C2333 C2335 1.433 . S
C2334 C2330 1.350 1_554 S
C2334 C2331 1.463 . S
C2334 N2338 1.429 . S
C2335 H2325 0.929 . S
C2335 C2333 1.433 . S
C2335 N2338 1.371 1_556 S
C2336 H2327 0.929 1_655 S
C2336 C2328 1.378 . S
C2336 C2331 1.350 1_655 S
C2337 H2324 0.929 . S
C2337 C2329 1.433 . S
C2337 N2339 1.379 1_655 S
N2338 C2334 1.429 . S
N2338 C2335 1.371 1_554 S
N2339 C2331 1.427 . S
N2339 C2337 1.379 1_455 S
H2340 C2346 0.940 . S
H2341 C2350 0.930 . S
H2342 C2355 0.929 . S
H2343 C2353 0.929 . S
H2344 C2348 0.929 . S
H2345 C2354 0.943 . S
C2346 H2340 0.940 . S
C2346 C2347 1.367 . S
C2346 C2354 1.372 1_554 S
C2347 C2346 1.367 . S
C2347 C2355 1.433 . S
C2348 H2344 0.929 . S
C2348 C2350 1.378 . S
C2348 C2352 1.350 . S
C2349 C2352 1.463 . S
C2349 C2354 1.342 1_554 S
C2349 N2357 1.427 . S
C2350 H2341 0.930 . S
C2350 C2348 1.378 . S
C2350 C2351 1.367 1_554 S
C2351 C2350 1.367 1_556 S
C2351 C2353 1.433 . S
C2352 C2348 1.350 . S
C2352 C2349 1.463 . S
C2352 N2356 1.427 1_554 S
C2353 H2343 0.929 . S
C2353 C2351 1.433 . S
C2353 N2356 1.384 . S
C2354 H2345 0.943 . S
C2354 C2346 1.372 1_556 S
C2354 C2349 1.342 1_556 S
C2355 H2342 0.929 . S
C2355 C2347 1.433 . S
C2355 N2357 1.384 . S
N2356 C2352 1.427 1_556 S
N2356 C2353 1.384 . S
N2357 C2349 1.427 . S
N2357 C2355 1.384 . S
H2358 C2364 0.930 . S
H2359 C2368 0.930 . S
H2360 C2373 0.929 . S
H2361 C2371 0.929 . S
H2362 C2366 0.929 . S
H2363 C2372 0.929 . S
C2364 H2358 0.930 . S
C2364 C2365 1.367 . S
C2364 C2372 1.378 . S
C2365 C2364 1.367 . S
C2365 C2373 1.433 . S
C2366 H2362 0.929 . S
C2366 C2368 1.378 . S
C2366 C2370 1.350 1_455 S
C2367 C2370 1.463 . S
C2367 C2372 1.350 . S
C2367 N2375 1.427 . S
C2368 H2359 0.930 . S
C2368 C2366 1.378 . S
C2368 C2369 1.367 . S
C2369 C2368 1.367 . S
C2369 C2371 1.433 . S
C2370 C2366 1.350 1_655 S
C2370 C2367 1.463 . S
C2370 N2374 1.427 . S
C2371 H2361 0.929 . S
C2371 C2369 1.433 . S
C2371 N2374 1.384 1_455 S
C2372 H2363 0.929 . S
C2372 C2364 1.378 . S
C2372 C2367 1.350 . S
C2373 H2360 0.929 . S
C2373 C2365 1.433 . S
C2373 N2375 1.384 . S
N2374 C2370 1.427 . S
N2374 C2371 1.384 1_655 S
N2375 C2367 1.427 . S
N2375 C2373 1.384 . S
H2376 C2382 0.930 . S
H2377 C2386 0.930 . S
H2378 C2391 0.929 . S
H2379 C2389 0.929 . S
H2380 C2384 0.929 . S
H2381 C2390 0.929 . S
C2382 H2376 0.930 . S
C2382 C2383 1.367 . S
C2382 C2390 1.378 . S
C2383 C2382 1.367 . S
C2383 C2391 1.433 . S
C2384 H2380 0.929 . S
C2384 C2386 1.378 . S
C2384 C2388 1.350 . S
C2385 C2388 1.463 . S
C2385 C2390 1.350 . S
C2385 N2393 1.427 . S
C2386 H2377 0.930 . S
C2386 C2384 1.378 . S
C2386 C2387 1.367 . S
C2387 C2386 1.367 . S
C2387 C2389 1.433 . S
C2388 C2384 1.350 . S
C2388 C2385 1.463 . S
C2388 N2392 1.427 . S
C2389 H2379 0.929 . S
C2389 C2387 1.433 . S
C2389 N2392 1.384 . S
C2390 H2381 0.929 . S
C2390 C2382 1.378 . S
C2390 C2385 1.350 . S
C2391 H2378 0.929 . S
C2391 C2383 1.433 . S
C2391 N2393 1.384 . S
N2392 C2388 1.427 . S
N2392 C2389 1.384 . S
N2393 C2385 1.427 . S
N2393 C2391 1.384 . S
H2394 C2400 0.930 . S
H2395 C2404 0.930 . S
H2396 C2409 0.929 . S
H2397 C2407 0.929 . S
H2398 C2402 0.929 . S
H2399 C2408 0.929 . S
C2400 H2394 0.930 . S
C2400 C2401 1.367 . S
C2400 C2408 1.378 1_565 S
C2401 C2400 1.367 . S
C2401 C2409 1.433 . S
C2402 H2398 0.929 . S
C2402 C2404 1.378 . S
C2402 C2406 1.350 . S
C2403 C2406 1.463 . S
C2403 C2408 1.350 . S
C2403 N2411 1.427 1_545 S
C2404 H2395 0.930 . S
C2404 C2402 1.378 . S
C2404 C2405 1.367 . S
C2405 C2404 1.367 . S
C2405 C2407 1.433 . S
C2406 C2402 1.350 . S
C2406 C2403 1.463 . S
C2406 N2410 1.427 . S
C2407 H2397 0.929 . S
C2407 C2405 1.433 . S
C2407 N2410 1.384 . S
C2408 H2399 0.929 . S
C2408 C2400 1.378 1_545 S
C2408 C2403 1.350 . S
C2409 H2396 0.929 . S
C2409 C2401 1.433 . S
C2409 N2411 1.384 . S
N2410 C2406 1.427 . S
N2410 C2407 1.384 . S
N2411 C2403 1.427 1_565 S
N2411 C2409 1.384 . S
H2412 C2418 0.930 . S
H2413 C2422 0.930 . S
H2414 C2427 0.929 . S
H2415 C2425 0.929 . S
H2416 C2420 0.929 . S
H2417 C2426 0.929 . S
C2418 H2412 0.930 . S
C2418 C2419 1.367 . S
C2418 C2426 1.378 . S
C2419 C2418 1.367 . S
C2419 C2427 1.433 . S
C2420 H2416 0.929 . S
C2420 C2422 1.378 . S
C2420 C2424 1.350 . S
C2421 C2424 1.463 . S
C2421 C2426 1.350 . S
C2421 N2429 1.427 . S
C2422 H2413 0.930 . S
C2422 C2420 1.378 . S
C2422 C2423 1.367 . S
C2423 C2422 1.367 . S
C2423 C2425 1.433 . S
C2424 C2420 1.350 . S
C2424 C2421 1.463 . S
C2424 N2428 1.427 . S
C2425 H2415 0.929 . S
C2425 C2423 1.433 . S
C2425 N2428 1.384 . S
C2426 H2417 0.929 . S
C2426 C2418 1.378 . S
C2426 C2421 1.350 . S
C2427 H2414 0.929 . S
C2427 C2419 1.433 . S
C2427 N2429 1.384 . S
N2428 C2424 1.427 . S
N2428 C2425 1.384 . S
N2429 C2421 1.427 . S
N2429 C2427 1.384 . S
H2430 C2436 0.930 . S
H2431 C2440 0.930 . S
H2432 C2445 0.929 . S
H2433 C2443 0.929 . S
H2434 C2438 0.929 . S
H2435 C2444 0.929 . S
C2436 H2430 0.930 . S
C2436 C2437 1.367 . S
C2436 C2444 1.378 . S
C2437 C2436 1.367 . S
C2437 C2445 1.433 . S
C2438 H2434 0.929 . S
C2438 C2440 1.378 . S
C2438 C2442 1.350 . S
C2439 C2442 1.463 . S
C2439 C2444 1.350 . S
C2439 N2447 1.427 . S
C2440 H2431 0.930 . S
C2440 C2438 1.378 . S
C2440 C2441 1.367 . S
C2441 C2440 1.367 . S
C2441 C2443 1.433 . S
C2442 C2438 1.350 . S
C2442 C2439 1.463 . S
C2442 N2446 1.427 . S
C2443 H2433 0.929 . S
C2443 C2441 1.433 . S
C2443 N2446 1.384 . S
C2444 H2435 0.929 . S
C2444 C2436 1.378 . S
C2444 C2439 1.350 . S
C2445 H2432 0.929 . S
C2445 C2437 1.433 . S
C2445 N2447 1.384 . S
N2446 C2442 1.427 . S
N2446 C2443 1.384 . S
N2447 C2439 1.427 . S
N2447 C2445 1.384 . S
H2448 C2454 0.930 . S
H2449 C2458 0.930 . S
H2450 C2463 0.929 . S
H2451 C2461 0.929 . S
H2452 C2456 0.929 . S
H2453 C2462 0.929 . S
C2454 H2448 0.930 . S
C2454 C2455 1.367 . S
C2454 C2462 1.378 . S
C2455 C2454 1.367 . S
C2455 C2463 1.433 . S
C2456 H2452 0.929 . S
C2456 C2458 1.378 . S
C2456 C2460 1.350 . S
C2457 C2460 1.463 . S
C2457 C2462 1.350 . S
C2457 N2465 1.427 . S
C2458 H2449 0.930 . S
C2458 C2456 1.378 . S
C2458 C2459 1.367 . S
C2459 C2458 1.367 . S
C2459 C2461 1.433 . S
C2460 C2456 1.350 . S
C2460 C2457 1.463 . S
C2460 N2464 1.427 . S
C2461 H2451 0.929 . S
C2461 C2459 1.433 . S
C2461 N2464 1.384 . S
C2462 H2453 0.929 . S
C2462 C2454 1.378 . S
C2462 C2457 1.350 . S
C2463 H2450 0.929 . S
C2463 C2455 1.433 . S
C2463 N2465 1.384 . S
N2464 C2460 1.427 . S
N2464 C2461 1.384 . S
N2465 C2457 1.427 . S
N2465 C2463 1.384 . S
H2466 C2472 0.930 . S
H2467 C2476 0.930 . S
H2468 C2481 0.929 . S
H2469 C2479 0.929 . S
H2470 C2474 0.929 . S
H2471 C2480 0.929 . S
C2472 H2466 0.930 . S
C2472 C2473 1.367 . S
C2472 C2480 1.378 . S
C2473 C2472 1.367 . S
C2473 C2481 1.433 . S
C2474 H2470 0.929 . S
C2474 C2476 1.378 . S
C2474 C2478 1.350 . S
C2475 C2478 1.463 . S
C2475 C2480 1.350 . S
C2475 N2483 1.427 . S
C2476 H2467 0.930 . S
C2476 C2474 1.378 . S
C2476 C2477 1.367 . S
C2477 C2476 1.367 . S
C2477 C2479 1.433 . S
C2478 C2474 1.350 . S
C2478 C2475 1.463 . S
C2478 N2482 1.427 . S
C2479 H2469 0.929 . S
C2479 C2477 1.433 . S
C2479 N2482 1.384 . S
C2480 H2471 0.929 . S
C2480 C2472 1.378 . S
C2480 C2475 1.350 . S
C2481 H2468 0.929 . S
C2481 C2473 1.433 . S
C2481 N2483 1.384 . S
N2482 C2478 1.427 . S
N2482 C2479 1.384 . S
N2483 C2475 1.427 . S
N2483 C2481 1.384 . S
H2484 C2490 0.930 . S
H2485 C2494 0.930 . S
H2486 C2499 0.929 . S
H2487 C2497 0.929 . S
H2488 C2492 0.929 . S
H2489 C2498 0.929 . S
C2490 H2484 0.930 . S
C2490 C2491 1.367 . S
C2490 C2498 1.378 . S
C2491 C2490 1.367 . S
C2491 C2499 1.433 . S
C2492 H2488 0.929 . S
C2492 C2494 1.378 . S
C2492 C2496 1.350 . S
C2493 C2496 1.463 . S
C2493 C2498 1.350 . S
C2493 N2501 1.427 . S
C2494 H2485 0.930 . S
C2494 C2492 1.378 . S
C2494 C2495 1.367 . S
C2495 C2494 1.367 . S
C2495 C2497 1.433 . S
C2496 C2492 1.350 . S
C2496 C2493 1.463 . S
C2496 N2500 1.427 . S
C2497 H2487 0.929 . S
C2497 C2495 1.433 . S
C2497 N2500 1.384 . S
C2498 H2489 0.929 . S
C2498 C2490 1.378 . S
C2498 C2493 1.350 . S
C2499 H2486 0.929 . S
C2499 C2491 1.433 . S
C2499 N2501 1.384 . S
N2500 C2496 1.427 . S
N2500 C2497 1.384 . S
N2501 C2493 1.427 . S
N2501 C2499 1.384 . S
H2502 C2508 0.930 . S
H2503 C2512 0.930 . S
H2504 C2517 0.929 . S
H2505 C2515 0.929 . S
H2506 C2510 0.929 . S
H2507 C2516 0.929 . S
C2508 H2502 0.930 . S
C2508 C2509 1.367 . S
C2508 C2516 1.378 . S
C2509 C2508 1.367 . S
C2509 C2517 1.433 . S
C2510 H2506 0.929 . S
C2510 C2512 1.378 . S
C2510 C2514 1.350 . S
C2511 C2514 1.463 . S
C2511 C2516 1.350 . S
C2511 N2519 1.427 . S
C2512 H2503 0.930 . S
C2512 C2510 1.378 . S
C2512 C2513 1.367 . S
C2513 C2512 1.367 . S
C2513 C2515 1.433 . S
C2514 C2510 1.350 . S
C2514 C2511 1.463 . S
C2514 N2518 1.427 . S
C2515 H2505 0.929 . S
C2515 C2513 1.433 . S
C2515 N2518 1.384 . S
C2516 H2507 0.929 . S
C2516 C2508 1.378 . S
C2516 C2511 1.350 . S
C2517 H2504 0.929 . S
C2517 C2509 1.433 . S
C2517 N2519 1.384 . S
N2518 C2514 1.427 . S
N2518 C2515 1.384 . S
N2519 C2511 1.427 . S
N2519 C2517 1.384 . S
H2520 C2526 0.930 . S
H2521 C2530 0.930 . S
H2522 C2535 0.929 . S
H2523 C2533 0.929 . S
H2524 C2528 0.929 . S
H2525 C2534 0.929 . S
C2526 H2520 0.930 . S
C2526 C2527 1.367 . S
C2526 C2534 1.378 . S
C2527 C2526 1.367 . S
C2527 C2535 1.433 . S
C2528 H2524 0.929 . S
C2528 C2530 1.378 . S
C2528 C2532 1.350 . S
C2529 C2532 1.463 . S
C2529 C2534 1.350 . S
C2529 N2537 1.427 . S
C2530 H2521 0.930 . S
C2530 C2528 1.378 . S
C2530 C2531 1.367 . S
C2531 C2530 1.367 . S
C2531 C2533 1.433 . S
C2532 C2528 1.350 . S
C2532 C2529 1.463 . S
C2532 N2536 1.427 . S
C2533 H2523 0.929 . S
C2533 C2531 1.433 . S
C2533 N2536 1.384 . S
C2534 H2525 0.929 . S
C2534 C2526 1.378 . S
C2534 C2529 1.350 . S
C2535 H2522 0.929 . S
C2535 C2527 1.433 . S
C2535 N2537 1.384 . S
N2536 C2532 1.427 . S
N2536 C2533 1.384 . S
N2537 C2529 1.427 . S
N2537 C2535 1.384 . S
H2538 C2544 0.930 . S
H2539 C2548 0.930 . S
H2540 C2553 0.929 . S
H2541 C2551 0.929 . S
H2542 C2546 0.929 . S
H2543 C2552 0.929 . S
C2544 H2538 0.930 . S
C2544 C2545 1.367 . S
C2544 C2552 1.378 . S
C2545 C2544 1.367 . S
C2545 C2553 1.433 . S
C2546 H2542 0.929 . S
C2546 C2548 1.378 . S
C2546 C2550 1.350 . S
C2547 C2550 1.463 . S
C2547 C2552 1.350 . S
C2547 N2555 1.427 . S
C2548 H2539 0.930 . S
C2548 C2546 1.378 . S
C2548 C2549 1.367 . S
C2549 C2548 1.367 . S
C2549 C2551 1.433 . S
C2550 C2546 1.350 . S
C2550 C2547 1.463 . S
C2550 N2554 1.427 . S
C2551 H2541 0.929 . S
C2551 C2549 1.433 . S
C2551 N2554 1.384 . S
C2552 H2543 0.929 . S
C2552 C2544 1.378 . S
C2552 C2547 1.350 . S
C2553 H2540 0.929 . S
C2553 C2545 1.433 . S
C2553 N2555 1.384 . S
N2554 C2550 1.427 . S
N2554 C2551 1.384 . S
N2555 C2547 1.427 . S
N2555 C2553 1.384 . S
H2556 C2562 0.930 . S
H2557 C2566 0.930 . S
H2558 C2571 0.929 . S
H2559 C2569 0.929 . S
H2560 C2564 0.929 . S
H2561 C2570 0.929 . S
C2562 H2556 0.930 . S
C2562 C2563 1.367 . S
C2562 C2570 1.378 . S
C2563 C2562 1.367 . S
C2563 C2571 1.433 . S
C2564 H2560 0.929 . S
C2564 C2566 1.378 . S
C2564 C2568 1.350 . S
C2565 C2568 1.463 . S
C2565 C2570 1.350 . S
C2565 N2573 1.427 . S
C2566 H2557 0.930 . S
C2566 C2564 1.378 . S
C2566 C2567 1.367 . S
C2567 C2566 1.367 . S
C2567 C2569 1.433 . S
C2568 C2564 1.350 . S
C2568 C2565 1.463 . S
C2568 N2572 1.427 . S
C2569 H2559 0.929 . S
C2569 C2567 1.433 . S
C2569 N2572 1.384 . S
C2570 H2561 0.929 . S
C2570 C2562 1.378 . S
C2570 C2565 1.350 . S
C2571 H2558 0.929 . S
C2571 C2563 1.433 . S
C2571 N2573 1.384 . S
N2572 C2568 1.427 . S
N2572 C2569 1.384 . S
N2573 C2565 1.427 . S
N2573 C2571 1.384 . S
H2574 C2580 0.930 . S
H2575 C2584 0.930 . S
H2576 C2589 0.929 . S
H2577 C2587 0.929 . S
H2578 C2582 0.929 . S
H2579 C2588 0.929 . S
C2580 H2574 0.930 . S
C2580 C2581 1.367 . S
C2580 C2588 1.378 . S
C2581 C2580 1.367 . S
C2581 C2589 1.433 . S
C2582 H2578 0.929 . S
C2582 C2584 1.378 . S
C2582 C2586 1.350 . S
C2583 C2586 1.463 . S
C2583 C2588 1.350 . S
C2583 N2591 1.427 . S
C2584 H2575 0.930 . S
C2584 C2582 1.378 . S
C2584 C2585 1.367 . S
C2585 C2584 1.367 . S
C2585 C2587 1.433 . S
C2586 C2582 1.350 . S
C2586 C2583 1.463 . S
C2586 N2590 1.427 . S
C2587 H2577 0.929 . S
C2587 C2585 1.433 . S
C2587 N2590 1.384 . S
C2588 H2579 0.929 . S
C2588 C2580 1.378 . S
C2588 C2583 1.350 . S
C2589 H2576 0.929 . S
C2589 C2581 1.433 . S
C2589 N2591 1.384 . S
N2590 C2586 1.427 . S
N2590 C2587 1.384 . S
N2591 C2583 1.427 . S
N2591 C2589 1.384 . S
H2592 C2598 0.930 . S
H2593 C2602 0.930 . S
H2594 C2607 0.929 . S
H2595 C2605 0.929 . S
H2596 C2600 0.929 . S
H2597 C2606 0.929 . S
C2598 H2592 0.930 . S
C2598 C2599 1.367 . S
C2598 C2606 1.378 . S
C2599 C2598 1.367 . S
C2599 C2607 1.433 . S
C2600 H2596 0.929 . S
C2600 C2602 1.378 . S
C2600 C2604 1.350 . S
C2601 C2604 1.463 . S
C2601 C2606 1.350 . S
C2601 N2609 1.427 . S
C2602 H2593 0.930 . S
C2602 C2600 1.378 . S
C2602 C2603 1.367 . S
C2603 C2602 1.367 . S
C2603 C2605 1.433 . S
C2604 C2600 1.350 . S
C2604 C2601 1.463 . S
C2604 N2608 1.427 . S
C2605 H2595 0.929 . S
C2605 C2603 1.433 . S
C2605 N2608 1.384 . S
C2606 H2597 0.929 . S
C2606 C2598 1.378 . S
C2606 C2601 1.350 . S
C2607 H2594 0.929 . S
C2607 C2599 1.433 . S
C2607 N2609 1.384 . S
N2608 C2604 1.427 . S
N2608 C2605 1.384 . S
N2609 C2601 1.427 . S
N2609 C2607 1.384 . S
H2610 C2616 0.930 . S
H2611 C2620 0.930 . S
H2612 C2625 0.929 . S
H2613 C2623 0.929 . S
H2614 C2618 0.929 . S
H2615 C2624 0.929 . S
C2616 H2610 0.930 . S
C2616 C2617 1.367 . S
C2616 C2624 1.378 . S
C2617 C2616 1.367 . S
C2617 C2625 1.433 . S
C2618 H2614 0.929 . S
C2618 C2620 1.378 . S
C2618 C2622 1.350 . S
C2619 C2622 1.463 . S
C2619 C2624 1.350 . S
C2619 N2627 1.427 . S
C2620 H2611 0.930 . S
C2620 C2618 1.378 . S
C2620 C2621 1.367 . S
C2621 C2620 1.367 . S
C2621 C2623 1.433 . S
C2622 C2618 1.350 . S
C2622 C2619 1.463 . S
C2622 N2626 1.427 . S
C2623 H2613 0.929 . S
C2623 C2621 1.433 . S
C2623 N2626 1.384 . S
C2624 H2615 0.929 . S
C2624 C2616 1.378 . S
C2624 C2619 1.350 . S
C2625 H2612 0.929 . S
C2625 C2617 1.433 . S
C2625 N2627 1.384 . S
N2626 C2622 1.427 . S
N2626 C2623 1.384 . S
N2627 C2619 1.427 . S
N2627 C2625 1.384 . S
H2628 C2634 0.930 . S
H2629 C2638 0.930 . S
H2630 C2643 0.929 . S
H2631 C2641 0.929 . S
H2632 C2636 0.929 . S
H2633 C2642 0.929 . S
C2634 H2628 0.930 . S
C2634 C2635 1.367 . S
C2634 C2642 1.378 . S
C2635 C2634 1.367 . S
C2635 C2643 1.433 . S
C2636 H2632 0.929 . S
C2636 C2638 1.378 . S
C2636 C2640 1.350 . S
C2637 C2640 1.463 . S
C2637 C2642 1.350 . S
C2637 N2645 1.427 . S
C2638 H2629 0.930 . S
C2638 C2636 1.378 . S
C2638 C2639 1.367 . S
C2639 C2638 1.367 . S
C2639 C2641 1.433 . S
C2640 C2636 1.350 . S
C2640 C2637 1.463 . S
C2640 N2644 1.427 . S
C2641 H2631 0.929 . S
C2641 C2639 1.433 . S
C2641 N2644 1.384 . S
C2642 H2633 0.929 . S
C2642 C2634 1.378 . S
C2642 C2637 1.350 . S
C2643 H2630 0.929 . S
C2643 C2635 1.433 . S
C2643 N2645 1.384 . S
N2644 C2640 1.427 . S
N2644 C2641 1.384 . S
N2645 C2637 1.427 . S
N2645 C2643 1.384 . S
H2646 C2652 0.930 . S
H2647 C2656 0.930 . S
H2648 C2661 0.929 . S
H2649 C2659 0.929 . S
H2650 C2654 0.929 . S
H2651 C2660 0.929 . S
C2652 H2646 0.930 . S
C2652 C2653 1.367 . S
C2652 C2660 1.378 . S
C2653 C2652 1.367 . S
C2653 C2661 1.433 . S
C2654 H2650 0.929 . S
C2654 C2656 1.378 . S
C2654 C2658 1.350 . S
C2655 C2658 1.463 . S
C2655 C2660 1.350 . S
C2655 N2663 1.427 . S
C2656 H2647 0.930 . S
C2656 C2654 1.378 . S
C2656 C2657 1.367 . S
C2657 C2656 1.367 . S
C2657 C2659 1.433 . S
C2658 C2654 1.350 . S
C2658 C2655 1.463 . S
C2658 N2662 1.427 . S
C2659 H2649 0.929 . S
C2659 C2657 1.433 . S
C2659 N2662 1.384 . S
C2660 H2651 0.929 . S
C2660 C2652 1.378 . S
C2660 C2655 1.350 . S
C2661 H2648 0.929 . S
C2661 C2653 1.433 . S
C2661 N2663 1.384 . S
N2662 C2658 1.427 . S
N2662 C2659 1.384 . S
N2663 C2655 1.427 . S
N2663 C2661 1.384 . S
H2664 C2670 0.930 . S
H2665 C2674 0.930 . S
H2666 C2679 0.929 . S
H2667 C2677 0.929 . S
H2668 C2672 0.929 . S
H2669 C2678 0.929 . S
C2670 H2664 0.930 . S
C2670 C2671 1.367 . S
C2670 C2678 1.378 . S
C2671 C2670 1.367 . S
C2671 C2679 1.433 . S
C2672 H2668 0.929 . S
C2672 C2674 1.378 . S
C2672 C2676 1.350 . S
C2673 C2676 1.463 . S
C2673 C2678 1.350 . S
C2673 N2681 1.427 . S
C2674 H2665 0.930 . S
C2674 C2672 1.378 . S
C2674 C2675 1.367 . S
C2675 C2674 1.367 . S
C2675 C2677 1.433 . S
C2676 C2672 1.350 . S
C2676 C2673 1.463 . S
C2676 N2680 1.427 . S
C2677 H2667 0.929 . S
C2677 C2675 1.433 . S
C2677 N2680 1.384 . S
C2678 H2669 0.929 . S
C2678 C2670 1.378 . S
C2678 C2673 1.350 . S
C2679 H2666 0.929 . S
C2679 C2671 1.433 . S
C2679 N2681 1.384 . S
N2680 C2676 1.427 . S
N2680 C2677 1.384 . S
N2681 C2673 1.427 . S
N2681 C2679 1.384 . S
H2682 C2688 0.930 . S
H2683 C2692 0.930 . S
H2684 C2697 0.929 . S
H2685 C2695 0.929 . S
H2686 C2690 0.929 . S
H2687 C2696 0.929 . S
C2688 H2682 0.930 . S
C2688 C2689 1.367 . S
C2688 C2696 1.378 . S
C2689 C2688 1.367 . S
C2689 C2697 1.433 . S
C2690 H2686 0.929 . S
C2690 C2692 1.378 . S
C2690 C2694 1.350 . S
C2691 C2694 1.463 . S
C2691 C2696 1.350 . S
C2691 N2699 1.427 . S
C2692 H2683 0.930 . S
C2692 C2690 1.378 . S
C2692 C2693 1.367 . S
C2693 C2692 1.367 . S
C2693 C2695 1.433 . S
C2694 C2690 1.350 . S
C2694 C2691 1.463 . S
C2694 N2698 1.427 . S
C2695 H2685 0.929 . S
C2695 C2693 1.433 . S
C2695 N2698 1.384 . S
C2696 H2687 0.929 . S
C2696 C2688 1.378 . S
C2696 C2691 1.350 . S
C2697 H2684 0.929 . S
C2697 C2689 1.433 . S
C2697 N2699 1.384 . S
N2698 C2694 1.427 . S
N2698 C2695 1.384 . S
N2699 C2691 1.427 . S
N2699 C2697 1.384 . S
H2700 C2706 0.930 . S
H2701 C2710 0.930 . S
H2702 C2715 0.929 . S
H2703 C2713 0.929 . S
H2704 C2708 0.929 . S
H2705 C2714 0.929 . S
C2706 H2700 0.930 . S
C2706 C2707 1.367 . S
C2706 C2714 1.378 . S
C2707 C2706 1.367 . S
C2707 C2715 1.433 . S
C2708 H2704 0.929 . S
C2708 C2710 1.378 . S
C2708 C2712 1.350 . S
C2709 C2712 1.463 . S
C2709 C2714 1.350 . S
C2709 N2717 1.427 . S
C2710 H2701 0.930 . S
C2710 C2708 1.378 . S
C2710 C2711 1.367 . S
C2711 C2710 1.367 . S
C2711 C2713 1.433 . S
C2712 C2708 1.350 . S
C2712 C2709 1.463 . S
C2712 N2716 1.427 . S
C2713 H2703 0.929 . S
C2713 C2711 1.433 . S
C2713 N2716 1.384 . S
C2714 H2705 0.929 . S
C2714 C2706 1.378 . S
C2714 C2709 1.350 . S
C2715 H2702 0.929 . S
C2715 C2707 1.433 . S
C2715 N2717 1.384 . S
N2716 C2712 1.427 . S
N2716 C2713 1.384 . S
N2717 C2709 1.427 . S
N2717 C2715 1.384 . S
H2718 C2724 0.930 . S
H2719 C2728 0.930 . S
H2720 C2733 0.929 . S
H2721 C2731 0.929 . S
H2722 C2726 0.929 . S
H2723 C2732 0.929 . S
C2724 H2718 0.930 . S
C2724 C2725 1.367 . S
C2724 C2732 1.378 . S
C2725 C2724 1.367 . S
C2725 C2733 1.433 . S
C2726 H2722 0.929 . S
C2726 C2728 1.378 . S
C2726 C2730 1.350 . S
C2727 C2730 1.463 . S
C2727 C2732 1.350 . S
C2727 N2735 1.427 . S
C2728 H2719 0.930 . S
C2728 C2726 1.378 . S
C2728 C2729 1.367 . S
C2729 C2728 1.367 . S
C2729 C2731 1.433 . S
C2730 C2726 1.350 . S
C2730 C2727 1.463 . S
C2730 N2734 1.427 . S
C2731 H2721 0.929 . S
C2731 C2729 1.433 . S
C2731 N2734 1.384 . S
C2732 H2723 0.929 . S
C2732 C2724 1.378 . S
C2732 C2727 1.350 . S
C2733 H2720 0.929 . S
C2733 C2725 1.433 . S
C2733 N2735 1.384 . S
N2734 C2730 1.427 . S
N2734 C2731 1.384 . S
N2735 C2727 1.427 . S
N2735 C2733 1.384 . S
H2736 C2742 0.930 . S
H2737 C2746 0.930 . S
H2738 C2751 0.929 . S
H2739 C2749 0.929 . S
H2740 C2744 0.929 . S
H2741 C2750 0.929 . S
C2742 H2736 0.930 . S
C2742 C2743 1.367 . S
C2742 C2750 1.378 . S
C2743 C2742 1.367 . S
C2743 C2751 1.433 . S
C2744 H2740 0.929 . S
C2744 C2746 1.378 . S
C2744 C2748 1.350 . S
C2745 C2748 1.463 . S
C2745 C2750 1.350 . S
C2745 N2753 1.427 . S
C2746 H2737 0.930 . S
C2746 C2744 1.378 . S
C2746 C2747 1.367 . S
C2747 C2746 1.367 . S
C2747 C2749 1.433 . S
C2748 C2744 1.350 . S
C2748 C2745 1.463 . S
C2748 N2752 1.427 . S
C2749 H2739 0.929 . S
C2749 C2747 1.433 . S
C2749 N2752 1.384 . S
C2750 H2741 0.929 . S
C2750 C2742 1.378 . S
C2750 C2745 1.350 . S
C2751 H2738 0.929 . S
C2751 C2743 1.433 . S
C2751 N2753 1.384 . S
N2752 C2748 1.427 . S
N2752 C2749 1.384 . S
N2753 C2745 1.427 . S
N2753 C2751 1.384 . S
H2754 C2760 0.930 . S
H2755 C2764 0.930 . S
H2756 C2769 0.929 . S
H2757 C2767 0.929 . S
H2758 C2762 0.929 . S
H2759 C2768 0.929 . S
C2760 H2754 0.930 . S
C2760 C2761 1.367 . S
C2760 C2768 1.378 . S
C2761 C2760 1.367 . S
C2761 C2769 1.433 . S
C2762 H2758 0.929 . S
C2762 C2764 1.378 . S
C2762 C2766 1.350 . S
C2763 C2766 1.463 . S
C2763 C2768 1.350 . S
C2763 N2771 1.427 . S
C2764 H2755 0.930 . S
C2764 C2762 1.378 . S
C2764 C2765 1.367 . S
C2765 C2764 1.367 . S
C2765 C2767 1.433 . S
C2766 C2762 1.350 . S
C2766 C2763 1.463 . S
C2766 N2770 1.427 . S
C2767 H2757 0.929 . S
C2767 C2765 1.433 . S
C2767 N2770 1.384 . S
C2768 H2759 0.929 . S
C2768 C2760 1.378 . S
C2768 C2763 1.350 . S
C2769 H2756 0.929 . S
C2769 C2761 1.433 . S
C2769 N2771 1.384 . S
N2770 C2766 1.427 . S
N2770 C2767 1.384 . S
N2771 C2763 1.427 . S
N2771 C2769 1.384 . S
H2772 C2778 0.930 . S
H2773 C2782 0.930 . S
H2774 C2787 0.929 . S
H2775 C2785 0.929 . S
H2776 C2780 0.929 . S
H2777 C2786 0.929 . S
C2778 H2772 0.930 . S
C2778 C2779 1.367 . S
C2778 C2786 1.378 . S
C2779 C2778 1.367 . S
C2779 C2787 1.433 . S
C2780 H2776 0.929 . S
C2780 C2782 1.378 . S
C2780 C2784 1.350 . S
C2781 C2784 1.463 . S
C2781 C2786 1.350 . S
C2781 N2789 1.427 . S
C2782 H2773 0.930 . S
C2782 C2780 1.378 . S
C2782 C2783 1.367 . S
C2783 C2782 1.367 . S
C2783 C2785 1.433 . S
C2784 C2780 1.350 . S
C2784 C2781 1.463 . S
C2784 N2788 1.427 . S
C2785 H2775 0.929 . S
C2785 C2783 1.433 . S
C2785 N2788 1.384 . S
C2786 H2777 0.929 . S
C2786 C2778 1.378 . S
C2786 C2781 1.350 . S
C2787 H2774 0.929 . S
C2787 C2779 1.433 . S
C2787 N2789 1.384 . S
N2788 C2784 1.427 . S
N2788 C2785 1.384 . S
N2789 C2781 1.427 . S
N2789 C2787 1.384 . S
H2790 C2796 0.930 . S
H2791 C2800 0.930 . S
H2792 C2805 0.929 . S
H2793 C2803 0.929 . S
H2794 C2798 0.929 . S
H2795 C2804 0.929 . S
C2796 H2790 0.930 . S
C2796 C2797 1.367 . S
C2796 C2804 1.378 . S
C2797 C2796 1.367 . S
C2797 C2805 1.433 . S
C2798 H2794 0.929 . S
C2798 C2800 1.378 . S
C2798 C2802 1.350 . S
C2799 C2802 1.463 . S
C2799 C2804 1.350 . S
C2799 N2807 1.427 . S
C2800 H2791 0.930 . S
C2800 C2798 1.378 . S
C2800 C2801 1.367 . S
C2801 C2800 1.367 . S
C2801 C2803 1.433 . S
C2802 C2798 1.350 . S
C2802 C2799 1.463 . S
C2802 N2806 1.427 . S
C2803 H2793 0.929 . S
C2803 C2801 1.433 . S
C2803 N2806 1.384 . S
C2804 H2795 0.929 . S
C2804 C2796 1.378 . S
C2804 C2799 1.350 . S
C2805 H2792 0.929 . S
C2805 C2797 1.433 . S
C2805 N2807 1.384 . S
N2806 C2802 1.427 . S
N2806 C2803 1.384 . S
N2807 C2799 1.427 . S
N2807 C2805 1.384 . S
H2808 C2814 0.930 . S
H2809 C2818 0.930 . S
H2810 C2823 0.929 . S
H2811 C2821 0.929 . S
H2812 C2816 0.929 . S
H2813 C2822 0.929 . S
C2814 H2808 0.930 . S
C2814 C2815 1.367 . S
C2814 C2822 1.378 . S
C2815 C2814 1.367 . S
C2815 C2823 1.433 . S
C2816 H2812 0.929 . S
C2816 C2818 1.378 . S
C2816 C2820 1.350 . S
C2817 C2820 1.463 . S
C2817 C2822 1.350 . S
C2817 N2825 1.427 . S
C2818 H2809 0.930 . S
C2818 C2816 1.378 . S
C2818 C2819 1.367 . S
C2819 C2818 1.367 . S
C2819 C2821 1.433 . S
C2820 C2816 1.350 . S
C2820 C2817 1.463 . S
C2820 N2824 1.427 . S
C2821 H2811 0.929 . S
C2821 C2819 1.433 . S
C2821 N2824 1.384 . S
C2822 H2813 0.929 . S
C2822 C2814 1.378 . S
C2822 C2817 1.350 . S
C2823 H2810 0.929 . S
C2823 C2815 1.433 . S
C2823 N2825 1.384 . S
N2824 C2820 1.427 . S
N2824 C2821 1.384 . S
N2825 C2817 1.427 . S
N2825 C2823 1.384 . S
H2826 C2832 0.930 . S
H2827 C2836 0.930 . S
H2828 C2841 0.929 . S
H2829 C2839 0.929 . S
H2830 C2834 0.929 . S
H2831 C2840 0.929 . S
C2832 H2826 0.930 . S
C2832 C2833 1.367 . S
C2832 C2840 1.378 . S
C2833 C2832 1.367 . S
C2833 C2841 1.433 . S
C2834 H2830 0.929 . S
C2834 C2836 1.378 . S
C2834 C2838 1.350 . S
C2835 C2838 1.463 . S
C2835 C2840 1.350 . S
C2835 N2843 1.427 . S
C2836 H2827 0.930 . S
C2836 C2834 1.378 . S
C2836 C2837 1.367 . S
C2837 C2836 1.367 . S
C2837 C2839 1.433 . S
C2838 C2834 1.350 . S
C2838 C2835 1.463 . S
C2838 N2842 1.427 . S
C2839 H2829 0.929 . S
C2839 C2837 1.433 . S
C2839 N2842 1.384 . S
C2840 H2831 0.929 . S
C2840 C2832 1.378 . S
C2840 C2835 1.350 . S
C2841 H2828 0.929 . S
C2841 C2833 1.433 . S
C2841 N2843 1.384 . S
N2842 C2838 1.427 . S
N2842 C2839 1.384 . S
N2843 C2835 1.427 . S
N2843 C2841 1.384 . S
C1231 C546 1.490 . S
C1235 C2 1.491 . S
C1249 C36 1.490 . S
C1253 C580 1.491 . S
C1267 C512 1.490 . S
C1271 C70 1.491 . S
C1285 C104 1.490 . S
C1289 C886 1.491 . S
C1303 C818 1.491 . S
C1307 C138 1.490 . S
C1321 C172 1.491 . S
C1325 C852 1.491 . S
C1339 C206 1.490 . S
C1343 C1158 1.491 . S
C1357 C240 1.489 . S
C1361 C1192 1.490 . S
C1375 C274 1.490 . S
C1379 C1124 1.491 . S
C1393 C308 1.489 . S
C1397 C682 1.490 . S
C1411 C342 1.490 . S
C1415 C614 1.491 . S
C1429 C376 1.490 . S
C1433 C648 1.491 . S
C1447 C410 1.489 . S
C1451 C954 1.490 . S
C1465 C988 1.489 . S
C1469 C444 1.490 . S
C1483 C920 1.490 . S
C1487 C478 1.489 . S
C1501 C1090 1.489 . S
C1505 C716 1.490 . S
C1519 C1022 1.490 . S
C1523 C750 1.490 . S
C1537 C784 1.491 . S
C1541 C1056 1.490 . S
C1555 C991 1.318 . S
C1559 C5 1.321 . S
C1573 C39 1.323 . S
C1577 C923 1.317 . S
C1591 C73 1.321 . S
C1595 C957 1.344 . S
C1609 C107 1.323 . S
C1613 C447 1.323 . S
C1627 C141 1.318 . S
C1631 C481 1.346 . S
C1645 C413 1.321 . S
C1649 C175 1.323 . S
C1663 C787 1.321 . S
C1667 C209 1.324 . S
C1681 C243 1.323 . S
C1685 C719 1.320 . S
C1699 C277 1.322 . S
C1703 C753 1.344 . S
C1717 C1059 1.323 . S
C1721 C311 1.323 . S
C1735 C1093 1.344 . S
C1739 C345 1.320 . S
C1753 C1025 1.320 . S
C1757 C379 1.324 . S
C1771 C515 1.321 . S
C1775 C855 1.324 . S
C1789 C549 1.324 . S
C1793 C889 1.322 . S
C1807 C583 1.320 . S
C1811 C821 1.324 . S
C1825 C617 1.321 . S
C1829 C1195 1.324 . S
C1843 C1127 1.321 . S
C1847 C651 1.324 . S
C1861 C685 1.320 . S
C1865 C1161 1.324 . S
C1879 C20 1.589 . S
C1883 C632 1.589 . S
C1897 C54 1.583 . S
C1901 C666 1.583 . S
C1915 C700 1.582 . S
C1919 C88 1.582 . S
C1933 C122 1.582 . S
C1937 C1142 1.582 . S
C1951 C156 1.582 . S
C1955 C1176 1.582 . S
C1969 C190 1.587 . S
C1973 C1210 1.587 . S
C1987 C836 1.585 . S
C1991 C224 1.585 . S
C2005 C258 1.586 . S
C2009 C870 1.586 . S
C2023 C904 1.591 . S
C2027 C292 1.591 . S
C2041 C530 1.593 . S
C2045 C326 1.593 . S
C2059 C564 1.588 . S
C2063 C360 1.588 . S
C2077 C394 1.593 . S
C2081 C598 1.593 . S
C2095 C1040 1.582 . S
C2099 C428 1.582 . S
C2113 C1074 1.588 . S
C2117 C462 1.588 . S
C2131 C496 1.584 . S
C2135 C1108 1.584 . S
C2149 C938 1.592 . S
C2153 C734 1.592 . S
C2167 C768 1.588 . S
C2171 C972 1.588 . S
C2185 C1006 1.586 . S
C2189 C802 1.586 . S
C2203 C9 1.294 . S
C2207 C271 1.339 . S
C2221 C43 1.301 . S
C2225 C305 1.337 . S
C2239 C237 1.343 . S
C2243 C77 1.301 . S
C2257 C407 1.343 . S
C2261 C111 1.301 . S
C2275 C339 1.344 . S
C2279 C145 1.311 . S
C2293 C373 1.340 . S
C2297 C179 1.295 . S
C2311 C67 1.340 . S
C2315 C213 1.295 . S
C2329 C101 1.344 . S
C2333 C247 1.310 . S
C2347 C33 1.336 . S
C2351 C281 1.296 . S
C2365 C315 1.308 . S
C2369 C203 1.340 . S
C2383 C349 1.307 . S
C2387 C135 1.345 . S
C2401 C169 1.339 . S
C2405 C383 1.294 . S
C2419 C679 1.345 . S
C2423 C417 1.306 . S
C2437 C451 1.302 . S
C2441 C713 1.337 . S
C2455 C645 1.337 . S
C2459 C485 1.299 . S
C2473 C815 1.341 . S
C2477 C519 1.296 . S
C2491 C553 1.303 . S
C2495 C747 1.344 . S
C2509 C587 1.296 . S
C2513 C781 1.336 . S
C2527 C621 1.293 . S
C2531 C475 1.337 . S
C2545 C655 1.305 . S
C2549 C509 1.345 . S
C2563 C689 1.298 . S
C2567 C441 1.336 . S
C2581 C723 1.304 . S
C2585 C611 1.338 . S
C2599 C543 1.337 . S
C2603 C757 1.302 . S
C2617 C577 1.341 . S
C2621 C791 1.309 . S
C2635 C1087 1.345 . S
C2639 C825 1.305 . S
C2653 C1121 1.336 . S
C2657 C859 1.294 . S
C2671 C1053 1.336 . S
C2675 C893 1.299 . S
C2689 C1223 1.340 . S
C2693 C927 1.308 . S
C2707 C961 1.296 . S
C2711 C1155 1.336 . S
C2725 C1189 1.343 . S
C2729 C995 1.310 . S
C2743 C883 1.345 . S
C2747 C1029 1.308 . S
C2761 C917 1.339 . S
C2765 C1063 1.294 . S
C2779 C849 1.337 . S
C2783 C1097 1.295 . S
C2797 C1131 1.310 . S
C2801 C1019 1.344 . S
C2815 C1165 1.302 . S
C2819 C951 1.337 . S
C2833 C985 1.341 . S
C2837 C1199 1.309 . S
