# Generated by pormake.
# Topology wjd, (6)-cn, num edge types: 1
# Building blocks:
#     Node 0, Type 0, BuildingBlock: JUFBIX_clean_sbu_0, # of connection points: 6
#     Node 1, Type 0, BuildingBlock: JUFBIX_clean_sbu_0, # of connection points: 6
#     Node 2, Type 0, BuildingBlock: JUFBIX_clean_sbu_0, # of connection points: 6
#     Node 3, Type 0, BuildingBlock: JUFBIX_clean_sbu_0, # of connection points: 6
#     Node 4, Type 0, BuildingBlock: JUFBIX_clean_sbu_0, # of connection points: 6
#     Node 5, Type 0, BuildingBlock: JUFBIX_clean_sbu_0, # of connection points: 6
#     Node 6, Type 0, BuildingBlock: JUFBIX_clean_sbu_0, # of connection points: 6
#     Node 7, Type 0, BuildingBlock: JUFBIX_clean_sbu_0, # of connection points: 6
#     Node 8, Type 0, BuildingBlock: JUFBIX_clean_sbu_0, # of connection points: 6
#     Node 9, Type 0, BuildingBlock: JUFBIX_clean_sbu_0, # of connection points: 6
#     Node 10, Type 0, BuildingBlock: JUFBIX_clean_sbu_0, # of connection points: 6
#     Node 11, Type 0, BuildingBlock: JUFBIX_clean_sbu_0, # of connection points: 6
#     Edge 12, Type (0, 0), BuildingBlock: EZIPEK_clean_linker_0, # of connection points: 2
#     Edge 13, Type (0, 0), BuildingBlock: EZIPEK_clean_linker_0, # of connection points: 2
#     Edge 14, Type (0, 0), BuildingBlock: EZIPEK_clean_linker_0, # of connection points: 2
#     Edge 15, Type (0, 0), BuildingBlock: EZIPEK_clean_linker_0, # of connection points: 2
#     Edge 16, Type (0, 0), BuildingBlock: EZIPEK_clean_linker_0, # of connection points: 2
#     Edge 17, Type (0, 0), BuildingBlock: EZIPEK_clean_linker_0, # of connection points: 2
#     Edge 18, Type (0, 0), BuildingBlock: EZIPEK_clean_linker_0, # of connection points: 2
#     Edge 19, Type (0, 0), BuildingBlock: EZIPEK_clean_linker_0, # of connection points: 2
#     Edge 20, Type (0, 0), BuildingBlock: EZIPEK_clean_linker_0, # of connection points: 2
#     Edge 21, Type (0, 0), BuildingBlock: EZIPEK_clean_linker_0, # of connection points: 2
#     Edge 22, Type (0, 0), BuildingBlock: EZIPEK_clean_linker_0, # of connection points: 2
#     Edge 23, Type (0, 0), BuildingBlock: EZIPEK_clean_linker_0, # of connection points: 2
#     Edge 24, Type (0, 0), BuildingBlock: EZIPEK_clean_linker_0, # of connection points: 2
#     Edge 25, Type (0, 0), BuildingBlock: EZIPEK_clean_linker_0, # of connection points: 2
#     Edge 26, Type (0, 0), BuildingBlock: EZIPEK_clean_linker_0, # of connection points: 2
#     Edge 27, Type (0, 0), BuildingBlock: EZIPEK_clean_linker_0, # of connection points: 2
#     Edge 28, Type (0, 0), BuildingBlock: EZIPEK_clean_linker_0, # of connection points: 2
#     Edge 29, Type (0, 0), BuildingBlock: EZIPEK_clean_linker_0, # of connection points: 2
#     Edge 30, Type (0, 0), BuildingBlock: EZIPEK_clean_linker_0, # of connection points: 2
#     Edge 31, Type (0, 0), BuildingBlock: EZIPEK_clean_linker_0, # of connection points: 2
#     Edge 32, Type (0, 0), BuildingBlock: EZIPEK_clean_linker_0, # of connection points: 2
#     Edge 33, Type (0, 0), BuildingBlock: EZIPEK_clean_linker_0, # of connection points: 2
#     Edge 34, Type (0, 0), BuildingBlock: EZIPEK_clean_linker_0, # of connection points: 2
#     Edge 35, Type (0, 0), BuildingBlock: EZIPEK_clean_linker_0, # of connection points: 2
#     Edge 36, Type (0, 0), BuildingBlock: EZIPEK_clean_linker_0, # of connection points: 2
#     Edge 37, Type (0, 0), BuildingBlock: EZIPEK_clean_linker_0, # of connection points: 2
#     Edge 38, Type (0, 0), BuildingBlock: EZIPEK_clean_linker_0, # of connection points: 2
#     Edge 39, Type (0, 0), BuildingBlock: EZIPEK_clean_linker_0, # of connection points: 2
#     Edge 40, Type (0, 0), BuildingBlock: EZIPEK_clean_linker_0, # of connection points: 2
#     Edge 41, Type (0, 0), BuildingBlock: EZIPEK_clean_linker_0, # of connection points: 2
#     Edge 42, Type (0, 0), BuildingBlock: EZIPEK_clean_linker_0, # of connection points: 2
#     Edge 43, Type (0, 0), BuildingBlock: EZIPEK_clean_linker_0, # of connection points: 2
#     Edge 44, Type (0, 0), BuildingBlock: EZIPEK_clean_linker_0, # of connection points: 2
#     Edge 45, Type (0, 0), BuildingBlock: EZIPEK_clean_linker_0, # of connection points: 2
#     Edge 46, Type (0, 0), BuildingBlock: EZIPEK_clean_linker_0, # of connection points: 2
#     Edge 47, Type (0, 0), BuildingBlock: EZIPEK_clean_linker_0, # of connection points: 2
# Relax obj value: 0.322
# Max RMSD: 0.245
# Mean RMSD: 0.245
data_MOF--net-wjd--node1-JUFBIX_clean_sbu_0--edge1-EZIPEK_clean_linker_0
_symmetry_space_group_name_H-M    P1
_symmetry_Int_Tables_number       1
_symmetry_cell_setting            triclinic
loop_
_symmetry_equiv_pos_as_xyz
'x, y, z'
_cell_length_a     25.19986
_cell_length_b     25.301926
_cell_length_c     40.271324
_cell_angle_alpha  90.274422
_cell_angle_beta   90.020471
_cell_angle_gamma 119.7652
loop_
_atom_site_label
_atom_site_type_symbol
_atom_site_fract_x
_atom_site_fract_y
_atom_site_fract_z
_atom_type_partial_charge
Co0 Co 0.31894 0.13513 0.12987 0.0
C1 C 0.37434 0.14618 0.1916 0.0
Co2 Co 0.3779 0.09365 0.13138 0.0
C3 C 0.21314 0.15567 0.12977 0.0
C4 C 0.29995 0.23579 0.13741 0.0
N5 N 0.27391 0.17562 0.13008 0.0
N6 N 0.20156 0.2014 0.13647 0.0
C7 C 0.25583 0.25164 0.141 0.0
H8 H 0.17819 0.1086 0.1262 0.0
H9 H 0.34806 0.26626 0.14196 0.0
C10 C 0.31747 0.07332 0.07114 0.0
N11 N 0.4283 0.06008 0.13293 0.0
C12 C 0.48818 0.09399 0.14022 0.0
C13 C 0.42214 0.00852 0.11923 0.0
N14 N 0.52039 0.06787 0.13005 0.0
C15 C 0.47917 0.01318 0.11746 0.0
C16 C 0.25564 0.01563 0.14777 0.0
O17 O 0.29722 0.1066 0.0838 0.0
O18 O 0.35742 0.06691 0.08695 0.0
O19 O 0.30766 0.01867 0.14515 0.0
O20 O 0.25184 0.06336 0.14388 0.0
O21 O 0.39797 0.11907 0.17626 0.0
H22 H 0.3804 0.97289 0.10823 0.0
H23 H 0.50925 0.13999 0.14986 0.0
O24 O 0.33913 0.1595 0.17562 0.0
O25 O 0.38657 0.20756 0.11566 0.0
O26 O 0.44652 0.16887 0.11725 0.0
C27 C 0.43918 0.21418 0.11275 0.0
H28 H 0.26265 0.29611 0.14768 0.0
H29 H 0.49023 0.98181 0.10509 0.0
Co30 Co 0.78233 0.71144 0.40021 0.0
C31 C 0.80157 0.65432 0.34736 0.0
Co32 Co 0.82003 0.65427 0.41636 0.0
C33 C 0.78978 0.82575 0.39533 0.0
C34 C 0.71532 0.76183 0.36515 0.0
N35 N 0.75909 0.76655 0.38628 0.0
N36 N 0.76756 0.85829 0.38077 0.0
C37 C 0.72046 0.81864 0.36171 0.0
H38 H 0.82852 0.84516 0.41214 0.0
H39 H 0.68282 0.72029 0.35261 0.0
C40 C 0.79408 0.71508 0.46811 0.0
N41 N 0.8467 0.60105 0.43038 0.0
C42 C 0.87851 0.5798 0.41322 0.0
C43 C 0.83282 0.57066 0.45942 0.0
N44 N 0.88393 0.5368 0.43023 0.0
C45 C 0.85548 0.53111 0.45933 0.0
C46 C 0.91269 0.76577 0.40141 0.0
O47 O 0.78372 0.7384 0.44319 0.0
O48 O 0.81144 0.67575 0.46336 0.0
O49 O 0.90085 0.71629 0.41503 0.0
O50 O 0.8684 0.77405 0.39328 0.0
O51 O 0.82597 0.63602 0.36902 0.0
H52 H 0.80513 0.57447 0.47875 0.0
H53 H 0.89411 0.59258 0.38797 0.0
O54 O 0.7778 0.6849 0.35759 0.0
O55 O 0.69838 0.64664 0.40637 0.0
O56 O 0.73977 0.58997 0.41727 0.0
C57 C 0.69245 0.59448 0.4129 0.0
H58 H 0.69256 0.83012 0.34623 0.0
H59 H 0.84826 0.49791 0.47822 0.0
Co60 Co 0.86296 0.15396 0.13661 0.0
C61 C 0.85832 0.20833 0.19858 0.0
Co62 Co 0.89971 0.25366 0.13673 0.0
C63 C 0.83057 0.02151 0.13597 0.0
C64 C 0.76512 0.04272 0.15643 0.0
N65 N 0.8205 0.06875 0.14133 0.0
N66 N 0.78332 0.96842 0.14722 0.0
C67 C 0.74256 0.98191 0.16003 0.0
H68 H 0.87206 0.02608 0.12532 0.0
H69 H 0.74246 0.06672 0.16535 0.0
C70 C 0.91477 0.20551 0.07595 0.0
N71 N 0.933 0.338 0.1338 0.0
C72 C 0.9 0.36679 0.13494 0.0
C73 C 0.99089 0.3829 0.12826 0.0
N74 N 0.93413 0.42705 0.12999 0.0
C75 C 0.9918 0.43796 0.12616 0.0
C76 C 0.98373 0.21433 0.15069 0.0
O77 O 0.88464 0.15301 0.08965 0.0
O78 O 0.92058 0.25135 0.0922 0.0
O79 O 0.97716 0.26125 0.14891 0.0
O80 O 0.9376 0.16125 0.14806 0.0
O81 O 0.88096 0.25692 0.18177 0.0
H82 H 0.02977 0.37613 0.12544 0.0
H83 H 0.85137 0.34451 0.13954 0.0
O84 O 0.84623 0.15896 0.18381 0.0
O85 O 0.78811 0.14611 0.12418 0.0
O86 O 0.82151 0.24326 0.12432 0.0
C87 C 0.77785 0.18947 0.12091 0.0
H88 H 0.7001 0.94994 0.17192 0.0
H89 H 0.03129 0.48221 0.12172 0.0
Co90 Co 0.3129 0.0798 0.38652 0.0
C91 C 0.37031 0.15776 0.33458 0.0
Co92 Co 0.37048 0.17528 0.40352 0.0
C93 C 0.20194 0.96962 0.38485 0.0
C94 C 0.26191 0.96274 0.34981 0.0
N95 N 0.25971 1.0 0.3732 0.0
N96 N 0.16774 0.91574 0.36979 0.0
C97 C 0.20501 0.91041 0.3477 0.0
H98 H 0.18405 0.9876 0.40337 0.0
H99 H 0.3013 0.97377 0.3345 0.0
C100 C 0.3103 0.09003 0.45462 0.0
N101 N 0.41661 0.25592 0.41836 0.0
C102 C 0.46845 0.30427 0.40683 0.0
C103 C 0.39752 0.27925 0.44283 0.0
N104 N 0.48162 0.35628 0.42322 0.0
C105 C 0.43729 0.34059 0.4459 0.0
C106 C 0.25433 0.1484 0.38861 0.0
O107 O 0.29269 0.05426 0.43007 0.0
O108 O 0.34434 0.14708 0.44943 0.0
O109 O 0.30612 0.18958 0.39809 0.0
O110 O 0.2455 0.09528 0.38305 0.0
O111 O 0.39451 0.19899 0.35714 0.0
H112 H 0.35613 0.25352 0.45705 0.0
H113 H 0.49549 0.30167 0.38668 0.0
O114 O 0.33257 0.10358 0.34286 0.0
O115 O 0.38366 0.06789 0.38992 0.0
O116 O 0.43634 0.16241 0.40877 0.0
C117 C 0.43398 0.1127 0.40075 0.0
H118 H 0.19163 0.87248 0.33078 0.0
H119 H 0.43412 0.3715 0.46341 0.0
Co120 Co 0.84118 0.69272 0.14719 0.0
C121 C 0.78197 0.62298 0.20427 0.0
Co122 Co 0.74461 0.62389 0.1409 0.0
C123 C 0.97346 0.77254 0.14632 0.0
C124 C 0.92849 0.78303 0.18886 0.0
N125 N 0.91786 0.75225 0.15979 0.0
N126 N 0.01768 0.81485 0.16597 0.0
C127 C 0.98974 0.82155 0.19265 0.0
H128 H 0.9812 0.7588 0.12213 0.0
H129 H 0.89362 0.77824 0.20619 0.0
C130 C 0.79978 0.69741 0.08478 0.0
N131 N 0.66615 0.56296 0.131 0.0
C132 C 0.64664 0.50283 0.13152 0.0
C133 C 0.61839 0.56713 0.11883 0.0
N134 N 0.5893 0.46958 0.11996 0.0
C135 C 0.57071 0.50942 0.11214 0.0
C136 C 0.75841 0.73406 0.15777 0.0
O137 O 0.84948 0.72176 0.10172 0.0
O138 O 0.75259 0.65218 0.09682 0.0
O139 O 0.71606 0.67946 0.15277 0.0
O140 O 0.81324 0.74589 0.15795 0.0
O141 O 0.73499 0.59618 0.18584 0.0
H142 H 0.61852 0.60922 0.11436 0.0
H143 H 0.67382 0.48323 0.13997 0.0
O144 O 0.83102 0.66458 0.19189 0.0
O145 O 0.87118 0.64045 0.13607 0.0
O146 O 0.77571 0.56998 0.12872 0.0
C147 C 0.83215 0.58575 0.12937 0.0
H148 H 1.01194 0.85455 0.21241 0.0
H149 H 0.5264 0.49758 0.10192 0.0
Co150 Co 0.94404 0.24241 0.39365 0.0
C151 C 0.86279 0.21853 0.34268 0.0
Co152 Co 0.85173 0.21239 0.41283 0.0
C153 C 0.04906 0.23264 0.38705 0.0
C154 C 0.05627 0.30314 0.35502 0.0
N155 N 0.02007 0.26283 0.37811 0.0
N156 N 0.10129 0.25155 0.3704 0.0
C157 C 0.10694 0.29635 0.35025 0.0
H158 H 0.03191 0.19654 0.40525 0.0
H159 H 0.04572 0.33405 0.34194 0.0
C160 C 0.94242 0.24095 0.46252 0.0
N161 N 0.77371 0.18934 0.42859 0.0
C162 C 0.7197 0.15751 0.4124 0.0
C163 C 0.75937 0.20563 0.45773 0.0
N164 N 0.67269 0.15426 0.43009 0.0
C165 C 0.69734 0.1843 0.45865 0.0
C166 C 0.86811 0.11544 0.40093 0.0
O167 O 0.97471 0.25191 0.43683 0.0
O168 O 0.88489 0.22111 0.45903 0.0
O169 O 0.83022 0.13048 0.41141 0.0
O170 O 0.92164 0.15692 0.39303 0.0
O171 O 0.82383 0.20647 0.36597 0.0
H172 H 0.79222 0.23391 0.47641 0.0
H173 H 0.71516 0.14021 0.38732 0.0
O174 O 0.91711 0.23415 0.35045 0.0
O175 O 0.96287 0.32725 0.39389 0.0
O176 O 0.87068 0.29336 0.41409 0.0
C177 C 0.92082 0.33746 0.40433 0.0
H178 H 0.14405 0.32111 0.33302 0.0
H179 H 0.67278 0.19337 0.47783 0.0
Co180 Co 0.11884 0.39254 0.63838 0.0
C181 C 0.10894 0.33288 0.57604 0.0
Co182 Co 0.15013 0.32497 0.63801 0.0
C183 C 0.12848 0.51047 0.63972 0.0
C184 C 0.04812 0.44453 0.61448 0.0
N185 N 0.0947 0.45027 0.63322 0.0
N186 N 0.10515 0.54366 0.62608 0.0
C187 C 0.05508 0.5012 0.60937 0.0
H188 H 0.17297 0.52988 0.65125 0.0
H189 H 0.01506 0.40282 0.60228 0.0
C190 C 0.1486 0.37762 0.70073 0.0
N191 N 0.18199 0.27186 0.64448 0.0
C192 C 0.16643 0.21334 0.63717 0.0
C193 C 0.23374 0.29269 0.66277 0.0
N194 N 0.20663 0.19815 0.65064 0.0
C195 C 0.24849 0.24811 0.66668 0.0
C196 C 0.24509 0.44252 0.62805 0.0
O197 O 0.12689 0.40617 0.68514 0.0
O198 O 0.16545 0.34568 0.68421 0.0
O199 O 0.23097 0.38711 0.62748 0.0
O200 O 0.20306 0.45566 0.6321 0.0
O201 O 0.13042 0.30351 0.59159 0.0
H202 H 0.25941 0.33794 0.6733 0.0
H203 H 0.1264 0.18244 0.62289 0.0
O204 O 0.10685 0.37563 0.59176 0.0
O205 O 0.03696 0.33011 0.64518 0.0
O206 O 0.06978 0.26393 0.64852 0.0
C207 C 0.02634 0.27599 0.64961 0.0
H208 H 0.02814 0.50914 0.59145 0.0
H209 H 0.28722 0.25186 0.68038 0.0
Co210 Co 0.17942 0.85848 0.89418 0.0
C211 C 0.22651 0.83996 0.83267 0.0
Co212 Co 0.27998 0.89939 0.89031 0.0
C213 C 0.04777 0.82752 0.8952 0.0
C214 C 0.06493 0.75526 0.88246 0.0
N215 N 0.09356 0.81434 0.89228 0.0
N216 N 0.99262 0.77876 0.88736 0.0
C217 C 1.00372 0.73373 0.87922 0.0
H218 H 0.05481 0.8722 0.90151 0.0
H219 H 0.08749 0.72956 0.87649 0.0
C220 C 0.23563 0.92367 0.95053 0.0
N221 N 0.36574 0.93395 0.89238 0.0
C222 C 0.39623 0.90231 0.88977 0.0
C223 C 0.40448 0.9849 0.90926 0.0
N224 N 0.45058 0.92967 0.90601 0.0
C225 C 0.45607 0.98211 0.91787 0.0
C226 C 0.23279 0.97399 0.86845 0.0
O227 O 0.18204 0.89222 0.93797 0.0
O228 O 0.28122 0.92752 0.93484 0.0
O229 O 0.28274 0.97311 0.87363 0.0
O230 O 0.18237 0.92698 0.87561 0.0
O231 O 0.2787 0.87322 0.84579 0.0
H232 H 0.39307 0.01847 0.91811 0.0
H233 H 0.37606 0.85677 0.87946 0.0
O234 O 0.1798 0.8284 0.84999 0.0
O235 O 0.17598 0.78948 0.91321 0.0
O236 O 0.27335 0.82467 0.90632 0.0
C237 C 0.22149 0.78175 0.91491 0.0
H238 H 0.96982 0.68875 0.87071 0.0
H239 H 0.49279 0.01406 0.93379 0.0
Co240 Co 0.66234 0.76318 0.64682 0.0
C241 C 0.72512 0.80134 0.58598 0.0
Co242 Co 0.73538 0.85917 0.64586 0.0
C243 C 0.53814 0.66191 0.64681 0.0
C244 C 0.60229 0.63658 0.62866 0.0
N245 N 0.59875 0.68308 0.64307 0.0
N246 N 0.50428 0.60474 0.63487 0.0
C247 C 0.54423 0.58829 0.62368 0.0
H248 H 0.51895 0.68868 0.65662 0.0
H249 H 0.64413 0.63898 0.62026 0.0
C250 C 0.67726 0.81602 0.70822 0.0
N251 N 0.79938 0.93843 0.64745 0.0
C252 C 0.80005 0.99053 0.65584 0.0
C253 C 0.85744 0.95605 0.63836 0.0
N254 N 0.85626 0.03923 0.65217 0.0
C255 C 0.89238 0.01788 0.64128 0.0
C256 C 0.62359 0.84892 0.63327 0.0
O257 O 0.64533 0.76611 0.69268 0.0
O258 O 0.71863 0.86191 0.69255 0.0
O259 O 0.68032 0.88687 0.63499 0.0
O260 O 0.60572 0.79228 0.6359 0.0
O261 O 0.7533 0.85382 0.59954 0.0
H262 H 0.87352 0.92613 0.62956 0.0
H263 H 0.76023 0.993 0.66363 0.0
O264 O 0.68053 0.7588 0.60131 0.0
O265 O 0.72107 0.73723 0.6583 0.0
O266 O 0.78961 0.83327 0.65671 0.0
C267 C 0.77691 0.77904 0.661 0.0
H268 H 0.53208 0.54522 0.61185 0.0
H269 H 0.94032 0.04548 0.6351 0.0
Co270 Co 0.14114 0.30186 0.90504 0.0
C271 C 0.14788 0.36786 0.84568 0.0
Co272 Co 0.11242 0.37116 0.90836 0.0
C273 C 0.16007 0.19121 0.89689 0.0
C274 C 0.22629 0.2763 0.87634 0.0
N275 N 0.17381 0.25032 0.89422 0.0
N276 N 0.20187 0.18092 0.88091 0.0
C277 C 0.24271 0.23445 0.86791 0.0
H278 H 0.12023 0.15652 0.90963 0.0
H279 H 0.25158 0.32359 0.86911 0.0
C280 C 0.09244 0.29718 0.96606 0.0
N281 N 0.09112 0.43007 0.9168 0.0
C282 C 0.12845 0.48941 0.91006 0.0
C283 C 0.04493 0.42856 0.93455 0.0
N284 N 0.10845 0.52515 0.92322 0.0
C285 C 0.05535 0.48732 0.93837 0.0
C286 C 0.01819 0.25773 0.89189 0.0
O287 O 0.11917 0.27291 0.95028 0.0
O288 O 0.09269 0.34322 0.95302 0.0
O289 O 0.03112 0.31256 0.89699 0.0
O290 O 0.06038 0.24362 0.89232 0.0
O291 O 0.12773 0.3959 0.86306 0.0
H292 H 1.0079 0.38807 0.94541 0.0
H293 H 0.17105 0.50675 0.89662 0.0
O294 O 0.15893 0.32981 0.8599 0.0
O295 O 0.22078 0.36056 0.91856 0.0
O296 O 0.19586 0.4305 0.91995 0.0
C297 C 0.23686 0.41587 0.92317 0.0
H298 H 0.28228 0.24268 0.85342 0.0
H299 H 0.02763 0.50143 0.95221 0.0
Co300 Co 0.28633 0.91471 0.6339 0.0
C301 C 0.24643 0.94132 0.57354 0.0
Co302 Co 0.18745 0.87261 0.62789 0.0
C303 C 0.40087 0.91914 0.64374 0.0
C304 C 0.41539 1.0008 0.62031 0.0
N305 N 0.37188 0.95024 0.63542 0.0
N306 N 0.45915 0.94657 0.63304 0.0
C307 C 0.46893 0.99844 0.61861 0.0
H308 H 0.37839 0.87463 0.65503 0.0
H309 H 0.40791 0.03493 0.60894 0.0
C310 C 0.22936 0.85458 0.69017 0.0
N311 N 0.10178 0.82494 0.62652 0.0
C312 C 0.05504 0.83679 0.62781 0.0
C313 C 0.07442 0.76386 0.63099 0.0
N314 N 1.00064 0.7854 0.63303 0.0
C315 C 1.01306 0.73982 0.63489 0.0
C316 C 0.23289 0.79796 0.60768 0.0
O317 O 0.28181 0.89158 0.67891 0.0
O318 O 0.18368 0.83628 0.67079 0.0
O319 O 0.18922 0.80853 0.60593 0.0
O320 O 0.28252 0.83908 0.62014 0.0
O321 O 0.19301 0.91143 0.58616 0.0
H322 H 0.09791 0.73828 0.63423 0.0
H323 H 0.06117 0.88229 0.62792 0.0
O324 O 0.29097 0.94093 0.58849 0.0
O325 O 0.2863 0.98812 0.64826 0.0
O326 O 0.18587 0.93824 0.64881 0.0
C327 C 0.23588 0.98753 0.65399 0.0
H328 H 0.51067 0.03053 0.60619 0.0
H329 H 0.98051 0.69316 0.64122 0.0
Co330 Co 0.72509 0.8447 0.91428 0.0
C331 C 0.66919 0.82036 0.85155 0.0
Co332 Co 0.6504 0.751 0.90803 0.0
C333 C 0.79436 0.9751 0.90672 0.0
C334 C 0.84412 0.93886 0.93201 0.0
N335 N 0.7892 0.92285 0.9183 0.0
N336 N 0.8505 0.02258 0.91256 0.0
C337 C 0.88194 1.00038 0.92856 0.0
H338 H 0.75844 0.97817 0.89367 0.0
H339 H 0.85635 0.90752 0.94312 0.0
C340 C 0.71284 0.7735 0.9696 0.0
N341 N 0.58575 0.67071 0.90469 0.0
C342 C 0.52498 0.64881 0.90033 0.0
C343 C 0.59069 0.62112 0.9103 0.0
N344 N 0.4915 0.58678 0.90177 0.0
C345 C 0.53392 0.57063 0.90931 0.0
C346 C 0.76415 0.76842 0.88837 0.0
O347 O 0.74353 0.82666 0.95765 0.0
O348 O 0.66555 0.73478 0.95356 0.0
O349 O 0.70863 0.72683 0.89209 0.0
O350 O 0.77917 0.82234 0.89648 0.0
O351 O 0.63748 0.76666 0.86295 0.0
H352 H 0.63244 0.62148 0.91657 0.0
H353 H 0.50662 0.679 0.89837 0.0
O354 O 0.70811 0.86141 0.87066 0.0
O355 O 0.67089 0.86916 0.9315 0.0
O356 O 0.59412 0.7785 0.92265 0.0
C357 C 0.61348 0.83387 0.93103 0.0
H358 H 0.92907 0.02681 0.93663 0.0
H359 H 0.52493 0.52561 0.916 0.0
C360 C 0.07944 0.23958 0.12007 0.0
C361 C 0.04482 0.21962 0.14988 0.0
C362 C 0.11411 0.18544 0.17092 0.0
C363 C 0.14415 0.19968 0.13985 0.0
N364 N 0.15084 0.23074 0.08326 0.0
N365 N 0.02639 0.17068 0.20317 0.0
C366 C 0.12522 0.22384 0.11396 0.0
C367 C 0.06138 0.1916 0.1752 0.0
N368 N 0.06966 0.27447 0.09782 0.0
N369 N 0.13748 0.16801 0.19651 0.0
H370 H 0.99031 0.17868 0.20811 0.0
H371 H 0.0316 0.14365 0.22082 0.0
H372 H 0.17516 0.16178 0.1936 0.0
H373 H 0.12197 0.16308 0.22086 0.0
H374 H 0.09759 0.295 0.07739 0.0
H375 H 0.0377 0.28848 0.1013 0.0
H376 H 0.13467 0.24178 0.0621 0.0
H377 H 0.1848 0.21959 0.07839 0.0
C378 C 0.05894 0.86934 0.35277 0.0
C379 C 0.10364 0.87559 0.37619 0.0
C380 C 0.02342 0.82275 0.41759 0.0
C381 C 0.97782 0.80974 0.39313 0.0
N382 N 0.95378 0.8098 0.33489 0.0
N383 N 0.12806 0.84839 0.42864 0.0
C384 C 0.99587 0.83033 0.35998 0.0
C385 C 0.08561 0.84924 0.40795 0.0
N386 N 0.0766 0.90196 0.32405 0.0
N387 N 1.00751 0.81176 0.45028 0.0
H388 H 0.17397 0.86732 0.42204 0.0
H389 H 0.11652 0.82341 0.45055 0.0
H390 H 0.96283 0.79563 0.45837 0.0
H391 H 0.0393 0.82476 0.4695 0.0
H392 H 0.04579 0.90414 0.30761 0.0
H393 H 0.12236 0.93101 0.31813 0.0
H394 H 0.96559 0.81857 0.30992 0.0
H395 H 0.90778 0.77886 0.33859 0.0
C396 C 0.73484 0.86247 0.12773 0.0
C397 C 0.77671 0.90887 0.14925 0.0
C398 C 0.78346 0.83272 0.18332 0.0
C399 C 0.74896 0.78738 0.15913 0.0
N400 N 0.69278 0.75937 0.1072 0.0
N401 N 0.84177 0.94025 0.19731 0.0
C402 C 0.72377 0.80192 0.13132 0.0
C403 C 0.8012 0.89446 0.17706 0.0
N404 N 0.70537 0.87673 0.10396 0.0
N405 N 0.79884 0.81604 0.21241 0.0
H406 H 0.85398 0.9857 0.19385 0.0
H407 H 0.86642 0.93412 0.21617 0.0
H408 H 0.78619 0.77096 0.21746 0.0
H409 H 0.81933 0.84529 0.23249 0.0
H410 H 0.66851 0.84439 0.09012 0.0
H411 H 0.716 0.92145 0.09924 0.0
H412 H 0.6796 0.76916 0.08462 0.0
H413 H 0.68243 0.71433 0.10874 0.0
C414 C 0.18297 0.1644 0.35214 0.0
C415 C 0.20642 0.16475 0.38425 0.0
C416 C 0.16728 0.22938 0.40525 0.0
C417 C 0.14037 0.22582 0.37392 0.0
N418 N 0.11015 0.17903 0.31988 0.0
N419 N 0.20883 0.18489 0.44295 0.0
C420 C 0.14456 0.19012 0.34796 0.0
C421 C 0.19458 0.19323 0.41135 0.0
N422 N 0.19964 0.14244 0.32544 0.0
N423 N 0.16817 0.26892 0.42876 0.0
H424 H 0.2277 0.1573 0.44821 0.0
H425 H 0.1964 0.20014 0.46403 0.0
H426 H 0.15 0.29743 0.42444 0.0
H427 H 0.19189 0.2777 0.45114 0.0
H428 H 0.18965 0.14783 0.301 0.0
H429 H 0.22714 0.12257 0.3274 0.0
H430 H 0.1066 0.14826 0.30153 0.0
H431 H 0.0809 0.19659 0.31629 0.0
C432 C 0.14872 0.94944 0.1277 0.0
C433 C 0.19749 0.95644 0.14865 0.0
C434 C 0.12806 0.85729 0.17325 0.0
C435 C 0.07876 0.85777 0.15685 0.0
N436 N 0.0404 0.90982 0.12305 0.0
N437 N 0.23304 0.91562 0.19208 0.0
C438 C 0.08855 0.90506 0.13516 0.0
C439 C 0.18746 0.90943 0.17133 0.0
N440 N 0.15967 0.98368 0.09984 0.0
N441 N 0.11737 0.80697 0.19083 0.0
H442 H 0.27738 0.95198 0.19094 0.0
H443 H 0.22618 0.88625 0.21169 0.0
H444 H 0.07373 0.76892 0.19259 0.0
H445 H 0.15184 0.8009 0.20115 0.0
H446 H 0.1261 0.97573 0.08225 0.0
H447 H 0.20327 0.01433 0.09204 0.0
H448 H 0.04596 0.94806 0.11035 0.0
H449 H 0.9949 0.8787 0.12829 0.0
C450 C 0.78468 0.945 0.41608 0.0
C451 C 0.79155 0.9227 0.38507 0.0
C452 C 0.84943 0.02688 0.36396 0.0
C453 C 0.84713 0.0497 0.39601 0.0
N454 N 0.82129 0.03054 0.45411 0.0
N455 N 0.83976 0.94131 0.33166 0.0
C456 C 0.81717 0.00868 0.42254 0.0
C457 C 0.82668 0.96338 0.35962 0.0
N458 N 0.74562 0.90498 0.439 0.0
N459 N 0.86991 0.06496 0.33724 0.0
H460 H 0.82356 0.89497 0.32781 0.0
H461 H 0.8707 0.96916 0.31373 0.0
H462 H 0.88579 0.11152 0.33886 0.0
H463 H 0.866 0.04947 0.31286 0.0
H464 H 0.7336 0.91834 0.46091 0.0
H465 H 0.72089 0.85812 0.43464 0.0
H466 H 0.80577 1.00282 0.47497 0.0
H467 H 0.84523 0.07683 0.45992 0.0
C468 C 0.17832 0.04137 0.67307 0.0
C469 C 0.23308 0.04496 0.66049 0.0
C470 C 0.26239 0.14462 0.63701 0.0
C471 C 0.20884 0.14214 0.64965 0.0
N472 N 0.12146 0.09376 0.68544 0.0
N473 N 0.33854 0.11551 0.64704 0.0
C474 C 0.16796 0.09174 0.66915 0.0
C475 C 0.27869 0.10107 0.64725 0.0
N476 N 0.13744 0.99073 0.68994 0.0
N477 N 0.29836 0.18961 0.6154 0.0
H478 H 0.35393 0.08924 0.65903 0.0
H479 H 0.37373 0.15783 0.63946 0.0
H480 H 0.28684 0.22169 0.60713 0.0
H481 H 0.33552 0.19078 0.60329 0.0
H482 H 0.09296 0.98051 0.69535 0.0
H483 H 0.14885 0.95904 0.69884 0.0
H484 H 0.09354 0.06177 0.70287 0.0
H485 H 0.11289 0.12982 0.68296 0.0
C486 C 0.88329 0.72667 0.90202 0.0
C487 C 0.93332 0.77398 0.88479 0.0
C488 C 0.86354 0.80302 0.85906 0.0
C489 C 0.81444 0.7572 0.87768 0.0
N490 N 0.7744 0.65722 0.90061 0.0
N491 N 0.96754 0.84413 0.83904 0.0
C492 C 0.82304 0.7131 0.89418 0.0
C493 C 0.92253 0.80854 0.86088 0.0
N494 N 0.89342 0.69593 0.92668 0.0
N495 N 0.85304 0.84081 0.83956 0.0
H496 H 1.01022 0.84695 0.83892 0.0
H497 H 0.96108 0.86664 0.81923 0.0
H498 H 0.80874 0.83229 0.835 0.0
H499 H 0.88743 0.88005 0.82853 0.0
H500 H 0.85845 0.66438 0.94173 0.0
H501 H 0.93731 0.70673 0.9342 0.0
H502 H 0.77924 0.6217 0.91031 0.0
H503 H 0.73055 0.64457 0.89218 0.0
C504 C 0.90405 0.13274 0.68526 0.0
C505 C 0.87559 0.10255 0.65539 0.0
C506 C 0.92821 0.19764 0.62459 0.0
C507 C 0.96347 0.22542 0.65344 0.0
N508 N 0.97129 0.22909 0.71281 0.0
N509 N 0.84516 0.10598 0.59955 0.0
C510 C 0.94623 0.1961 0.68451 0.0
C511 C 0.88181 0.13559 0.62611 0.0
N512 N 0.89395 0.09949 0.71349 0.0
N513 N 0.94208 0.22954 0.59559 0.0
H514 H 0.81159 0.06013 0.60073 0.0
H515 H 0.84487 0.12702 0.57748 0.0
H516 H 0.97406 0.27585 0.59452 0.0
H517 H 0.92263 0.2107 0.57269 0.0
H518 H 0.91794 0.11709 0.73557 0.0
H519 H 0.86198 0.05307 0.71422 0.0
H520 H 0.95879 0.21151 0.73664 0.0
H521 H 1.00135 0.27601 0.7121 0.0
C522 C 0.26326 0.13051 0.88597 0.0
C523 C 0.20694 0.12671 0.87721 0.0
C524 C 0.17491 0.02747 0.85082 0.0
C525 C 0.23107 0.0314 0.86094 0.0
N526 N 0.33798 0.10142 0.87069 0.0
N527 N 0.11577 0.07902 0.84369 0.0
C528 C 0.27852 0.08789 0.87265 0.0
C529 C 0.16434 0.07711 0.85743 0.0
N530 N 0.30187 0.17455 0.90761 0.0
N531 N 0.1325 0.97672 0.83425 0.0
H532 H 0.10754 0.11501 0.84777 0.0
H533 H 0.08591 0.04728 0.82654 0.0
H534 H 0.14284 0.94444 0.82471 0.0
H535 H 0.08768 0.96662 0.83 0.0
H536 H 0.34157 0.17659 0.91674 0.0
H537 H 0.29053 0.20472 0.91905 0.0
H538 H 0.37443 0.14377 0.8775 0.0
H539 H 0.35086 0.07359 0.85797 0.0
C540 C 0.8884 0.73673 0.62711 0.0
C541 C 0.94328 0.77977 0.64299 0.0
C542 C 0.88632 0.81305 0.67759 0.0
C543 C 0.83004 0.76815 0.66256 0.0
N544 N 0.77927 0.67198 0.63287 0.0
N545 N 0.98933 0.83903 0.69238 0.0
C546 C 0.83144 0.72466 0.64065 0.0
C547 C 0.94068 0.81163 0.67113 0.0
N548 N 0.89071 0.70925 0.59834 0.0
N549 N 0.88958 0.85917 0.6968 0.0
H550 H 0.02873 0.83589 0.68943 0.0
H551 H 0.98741 0.85824 0.71499 0.0
H552 H 0.85227 0.86364 0.70313 0.0
H553 H 0.93099 0.89635 0.70431 0.0
H554 H 0.85208 0.68197 0.58399 0.0
H555 H 0.93191 0.71918 0.58709 0.0
H556 H 0.7791 0.63797 0.61809 0.0
H557 H 0.73829 0.65811 0.64527 0.0
C558 C 0.93447 0.16699 0.86495 0.0
C559 C 0.95414 0.20787 0.89191 0.0
C560 C 0.88228 0.1275 0.92851 0.0
C561 C 0.87416 0.08481 0.90344 0.0
N562 N 0.88997 0.06183 0.84752 0.0
N563 N 0.93231 0.23366 0.94583 0.0
C564 C 0.89799 0.10396 0.87117 0.0
C565 C 0.92265 0.19034 0.92259 0.0
N566 N 0.95076 0.18931 0.83363 0.0
N567 N 0.8541 0.10677 0.95842 0.0
H568 H 0.96014 0.27992 0.94137 0.0
H569 H 0.9098 0.22482 0.96847 0.0
H570 H 0.82311 0.06077 0.96244 0.0
H571 H 0.86107 0.13402 0.97919 0.0
H572 H 0.93516 0.16249 0.81226 0.0
H573 H 0.97454 0.23621 0.82946 0.0
H574 H 0.91147 0.07302 0.82449 0.0
H575 H 0.86466 0.01522 0.85191 0.0
C576 C 0.38256 0.21125 0.27911 0.0
C577 C 0.38799 0.16777 0.29883 0.0
C578 C 0.38452 0.11119 0.24874 0.0
C579 C 0.38299 0.15626 0.2284 0.0
N580 N 0.39857 0.25842 0.22494 0.0
N581 N 0.41648 0.08967 0.30084 0.0
C582 C 0.38769 0.20934 0.24378 0.0
C583 C 0.3973 0.12289 0.28297 0.0
N584 N 0.36944 0.25223 0.29366 0.0
N585 N 0.36814 0.05461 0.23653 0.0
H586 H 0.42544 0.09592 0.32622 0.0
H587 H 0.42935 0.06044 0.2897 0.0
H588 H 0.35151 0.04022 0.21267 0.0
H589 H 0.36298 0.01892 0.25156 0.0
H590 H 0.35806 0.28017 0.28008 0.0
H591 H 0.36584 0.25539 0.31928 0.0
H592 H 0.40749 0.29993 0.23519 0.0
H593 H 0.40549 0.2599 0.19936 0.0
C594 C 0.81075 0.5986 0.29495 0.0
C595 C 0.79892 0.64274 0.31038 0.0
C596 C 0.75507 0.65132 0.25773 0.0
C597 C 0.77786 0.61789 0.24098 0.0
N598 N 0.84151 0.57156 0.24346 0.0
N599 N 0.78688 0.7309 0.29782 0.0
C600 C 0.81016 0.59505 0.25947 0.0
C601 C 0.77861 0.67486 0.28942 0.0
N602 N 0.82075 0.55903 0.31317 0.0
N603 N 0.71411 0.66425 0.24299 0.0
H604 H 0.8146 0.757 0.31741 0.0
H605 H 0.77464 0.75566 0.28201 0.0
H606 H 0.69552 0.64799 0.21955 0.0
H607 H 0.69454 0.68629 0.25578 0.0
H608 H 0.82496 0.52387 0.30221 0.0
H609 H 0.81785 0.55614 0.33887 0.0
H610 H 0.86994 0.55909 0.25585 0.0
H611 H 0.84354 0.57032 0.21767 0.0
C612 C 0.80161 0.16801 0.25364 0.0
C613 C 0.85378 0.21146 0.23567 0.0
C614 C 0.89603 0.26812 0.2875 0.0
C615 C 0.85022 0.21945 0.30633 0.0
N616 N 0.76216 0.11841 0.30663 0.0
N617 N 0.95875 0.29363 0.23871 0.0
C618 C 0.80324 0.1682 0.28925 0.0
C619 C 0.90303 0.25931 0.25341 0.0
N620 N 0.75003 0.12759 0.23694 0.0
N621 N 0.93412 0.32287 0.3023 0.0
H622 H 0.96888 0.28522 0.21487 0.0
H623 H 0.9974 0.32515 0.25181 0.0
H624 H 0.93119 0.3316 0.32732 0.0
H625 H 0.96435 0.36129 0.28887 0.0
H626 H 0.70892 0.09878 0.24878 0.0
H627 H 0.7466 0.12732 0.21117 0.0
H628 H 0.73155 0.07727 0.29527 0.0
H629 H 0.7616 0.1167 0.33247 0.0
C630 C 0.17613 0.4316 0.75696 0.0
C631 C 0.15013 0.37668 0.73788 0.0
C632 C 0.12106 0.31715 0.78946 0.0
C633 C 0.15005 0.37181 0.80861 0.0
N634 N 0.21481 0.48072 0.81058 0.0
N635 N 0.10533 0.26654 0.73676 0.0
C636 C 0.17987 0.42904 0.79236 0.0
C637 C 0.12566 0.31958 0.75437 0.0
N638 N 0.19824 0.48639 0.74135 0.0
N639 N 0.08473 0.26234 0.80445 0.0
H640 H 0.09497 0.26161 0.71159 0.0
H641 H 0.09997 0.22665 0.74732 0.0
H642 H 0.07722 0.25687 0.82981 0.0
H643 H 0.05612 0.22238 0.79151 0.0
H644 H 0.2099 0.5269 0.75379 0.0
H645 H 0.20261 0.49145 0.71569 0.0
H646 H 0.24301 0.52322 0.80018 0.0
H647 H 0.22015 0.48036 0.83625 0.0
C648 C 0.16659 0.81136 0.77876 0.0
C649 C 0.22016 0.82263 0.79626 0.0
C650 C 0.26746 0.8274 0.74193 0.0
C651 C 0.22193 0.83605 0.72599 0.0
N652 N 0.12967 0.84338 0.73251 0.0
N653 N 0.31964 0.83021 0.79299 0.0
C654 C 0.17148 0.82943 0.74515 0.0
C655 C 0.27016 0.82726 0.77739 0.0
N656 N 0.11055 0.78103 0.7934 0.0
N657 N 0.306 0.81609 0.72323 0.0
H658 H 0.31964 0.82017 0.81801 0.0
H659 H 0.36079 0.84284 0.78093 0.0
H660 H 0.30189 0.811 0.69749 0.0
H661 H 0.33679 0.80437 0.73333 0.0
H662 H 0.07016 0.76959 0.78068 0.0
H663 H 0.10372 0.75809 0.81576 0.0
H664 H 0.09591 0.84408 0.74718 0.0
H665 H 0.1322 0.86075 0.70891 0.0
C666 C 0.72484 0.84371 0.76456 0.0
C667 C 0.67133 0.8195 0.74504 0.0
C668 C 0.61223 0.80224 0.79652 0.0
C669 C 0.66782 0.832 0.8151 0.0
N670 N 0.77593 0.90718 0.81141 0.0
N671 N 0.56352 0.7856 0.74216 0.0
C672 C 0.72375 0.86176 0.79748 0.0
C673 C 0.61449 0.80153 0.76089 0.0
N674 N 0.77537 0.84364 0.75288 0.0
N675 N 0.55763 0.77559 0.81282 0.0
H676 H 0.56422 0.78566 0.71626 0.0
H677 H 0.522 0.77725 0.75219 0.0
H678 H 0.55451 0.78096 0.83833 0.0
H679 H 0.51598 0.74726 0.80117 0.0
H680 H 0.81488 0.8581 0.76712 0.0
H681 H 0.77237 0.81871 0.73164 0.0
H682 H 0.81656 0.93033 0.79802 0.0
H683 H 0.77663 0.92762 0.83394 0.0
C684 C 0.28048 0.02644 0.98 0.0
C685 C 0.24783 0.96143 0.98155 0.0
C686 C 0.25882 0.96949 0.0422 0.0
C687 C 0.28948 0.03481 0.04053 0.0
N688 N 0.32626 0.12471 1.00684 0.0
N689 N 0.19509 0.87177 1.01497 0.0
C690 C 0.29804 0.06271 1.00924 0.0
C691 C 0.23326 0.93329 1.01296 0.0
N692 N 0.29669 0.0559 0.95058 0.0
N693 N 0.25651 0.94144 0.07141 0.0
H694 H 0.17749 0.84375 0.9941 0.0
H695 H 0.17653 0.84922 0.03718 0.0
H696 H 0.27326 0.96485 0.09347 0.0
H697 H 0.24242 0.89531 0.07338 0.0
H698 H 0.28693 0.03351 0.92783 0.0
H699 H 0.28693 0.03351 0.92783 0.0
H700 H 0.33373 0.14701 0.98412 0.0
H701 H 0.34146 0.1537 0.02743 0.0
C702 C 0.7166 0.72032 0.50496 0.0
C703 C 0.77714 0.73028 0.50118 0.0
C704 C 0.80659 0.7916 0.55274 0.0
C705 C 0.747 0.78541 0.55474 0.0
N706 N 0.6502 0.75451 0.52853 0.0
N707 N 0.88121 0.77916 0.52005 0.0
C708 C 0.70353 0.75271 0.52959 0.0
C709 C 0.82254 0.76698 0.52476 0.0
N710 N 0.67071 0.6782 0.48537 0.0
N711 N 0.84733 0.81891 0.5781 0.0
H712 H 0.89276 0.75776 0.50156 0.0
H713 H 0.91865 0.81183 0.53338 0.0
H714 H 0.83807 0.83726 0.59887 0.0
H715 H 0.8894 0.82077 0.57964 0.0
H716 H 0.62463 0.66376 0.48913 0.0
H717 H 0.67815 0.65287 0.46752 0.0
H718 H 0.61925 0.7371 0.50887 0.0
H719 H 0.63997 0.77931 0.5456 0.0
C720 C 0.03408 0.30609 1.01441 0.0
C721 C 0.0516 0.26887 0.99635 0.0
C722 C 0.97612 0.18242 0.03073 0.0
C723 C 0.95248 0.21919 0.04412 0.0
N724 N 0.94601 0.31008 0.03372 0.0
N725 N 0.02306 0.16378 0.98305 0.0
C726 C 0.97724 0.27901 0.0311 0.0
C727 C 0.0183 0.20472 1.00324 0.0
N728 N 0.07174 0.36763 1.01625 0.0
N729 N 0.96014 0.12687 0.04383 0.0
H730 H 0.05099 0.17526 0.96235 0.0
H731 H 0.99401 0.11693 0.98518 0.0
H732 H 0.92733 0.10555 0.06205 0.0
H733 H 0.98273 0.10314 0.03748 0.0
H734 H 0.06098 0.39552 0.03055 0.0
H735 H 0.11643 0.38899 1.00725 0.0
H736 H 0.96187 0.35283 0.02304 0.0
H737 H 0.9011 0.28959 0.04237 0.0
C738 C 0.33357 0.07535 0.5143 0.0
C739 C 0.29101 0.06182 0.48822 0.0
C740 C 0.21794 0.96803 0.51739 0.0
C741 C 0.25931 0.98341 0.54442 0.0
N742 N 0.34349 0.06757 0.57307 0.0
N743 N 0.18503 1.00701 0.47166 0.0
C744 C 0.31342 0.04174 0.54423 0.0
C745 C 0.23058 0.01188 0.49202 0.0
N746 N 0.39371 0.11816 0.51057 0.0
N747 N 0.16818 0.91112 0.51484 0.0
H748 H 0.19235 0.04054 0.45435 0.0
H749 H 0.13924 0.97415 0.47473 0.0
H750 H 0.15943 0.87611 0.53131 0.0
H751 H 0.13909 0.89696 0.49436 0.0
H752 H 0.42684 0.12447 0.52812 0.0
H753 H 0.41153 0.14343 0.48904 0.0
H754 H 0.38015 0.11198 0.57447 0.0
H755 H 0.32617 0.0478 0.59592 0.0
C756 C 0.79683 0.78144 0.05169 0.0
C757 C 0.79152 0.72267 0.05263 0.0
C758 C 0.74159 0.70038 0.99765 0.0
C759 C 0.73806 0.75503 0.99891 0.0
N760 N 0.75682 0.84437 0.02998 0.0
N761 N 0.7565 0.62497 0.02673 0.0
C762 C 0.76494 0.79505 0.02657 0.0
C763 C 0.76301 0.68193 0.02566 0.0
N764 N 0.83123 0.82405 0.07513 0.0
N765 N 0.72867 0.66779 0.96883 0.0
H766 H 0.77804 0.61222 0.04455 0.0
H767 H 0.72754 0.58956 1.01093 0.0
H768 H 0.71844 0.68206 0.94693 0.0
H769 H 0.73526 0.63066 0.96546 0.0
H770 H 0.84215 0.86943 0.07395 0.0
H771 H 0.8537 0.81583 0.09436 0.0
H772 H 0.77114 0.87306 0.05061 0.0
H773 H 0.73013 0.85339 1.01373 0.0
C774 C 0.05509 0.25228 0.52947 0.0
C775 C 0.07377 0.31113 0.5432 0.0
C776 C 0.99682 0.31768 0.50774 0.0
C777 C 0.97633 0.25833 0.49511 0.0
N778 N 0.98178 0.1664 0.49566 0.0
N779 N 0.08098 0.40808 0.53199 0.0
C780 C 1.00444 0.22494 0.50657 0.0
C781 C 0.04959 0.34613 0.52865 0.0
N782 N 0.08947 0.22526 0.5355 0.0
N783 N 0.96575 0.34729 0.49964 0.0
H784 H 0.12445 0.43136 0.54267 0.0
H785 H 0.06865 0.43673 0.51992 0.0
H786 H 0.92725 0.32795 0.48429 0.0
H787 H 0.97446 0.38814 0.51073 0.0
H788 H 0.08083 0.18399 0.52519 0.0
H789 H 0.13216 0.24814 0.54692 0.0
H790 H 0.99492 0.13638 0.50502 0.0
H791 H 0.94549 0.14606 0.47886 0.0
C792 C 0.67762 0.14688 0.09179 0.0
C793 C 0.71347 0.17426 0.12047 0.0
C794 C 0.62229 0.12642 0.15515 0.0
C795 C 0.5858 0.10069 0.12647 0.0
N796 N 0.57712 0.10242 0.06678 0.0
N797 N 0.7186 0.20515 0.17758 0.0
C798 C 0.61288 0.11544 0.09445 0.0
C799 C 0.6852 0.16923 0.15154 0.0
N800 N 0.70552 0.15012 0.06221 0.0
N801 N 0.59693 0.10811 0.18586 0.0
H802 H 0.76454 0.23807 0.17531 0.0
H803 H 0.69934 0.20675 0.20018 0.0
H804 H 0.55111 0.0753 0.18913 0.0
H805 H 0.62242 0.1209 0.20775 0.0
H806 H 0.68199 0.12499 0.04129 0.0
H807 H 0.75285 0.17599 0.05925 0.0
H808 H 0.59489 0.11707 0.04311 0.0
H809 H 0.52974 0.08264 0.0678 0.0
C810 C 0.62454 0.50114 0.44529 0.0
C811 C 0.63241 0.53773 0.41692 0.0
C812 C 0.53721 0.45447 0.39329 0.0
C813 C 0.534 0.4163 0.41975 0.0
N814 N 0.57895 0.39941 0.46811 0.0
N815 N 0.60008 0.54608 0.36163 0.0
C816 C 0.5789 0.43873 0.44499 0.0
C817 C 0.58944 0.51384 0.39035 0.0
N818 N 0.66021 0.52641 0.47285 0.0
N819 N 0.48962 0.43418 0.37139 0.0
H820 H 0.63745 0.58953 0.35843 0.0
H821 H 0.57417 0.52809 0.34013 0.0
H822 H 0.45155 0.39062 0.37279 0.0
H823 H 0.48585 0.46177 0.35354 0.0
H824 H 0.65247 0.50378 0.49539 0.0
H825 H 0.69416 0.57199 0.47428 0.0
H826 H 0.61418 0.41118 0.48518 0.0
H827 H 0.54644 0.35315 0.46813 0.0
C828 C 0.87546 0.46965 0.15639 0.0
C829 C 0.91098 0.46905 0.12937 0.0
C830 C 0.89289 0.54427 0.10079 0.0
C831 C 0.8527 0.54012 0.12665 0.0
N832 N 0.79307 0.48513 0.17455 0.0
N833 N 0.94219 0.49536 0.07247 0.0
C834 C 0.83969 0.49827 0.15293 0.0
C835 C 0.91688 0.5037 0.10057 0.0
N836 N 0.87812 0.44508 0.18604 0.0
N837 N 0.90768 0.58649 0.07632 0.0
H838 H 0.95774 0.46418 0.07102 0.0
H839 H 0.94244 0.51498 0.04975 0.0
H840 H 0.88762 0.61386 0.07441 0.0
H841 H 0.94202 0.59637 0.05899 0.0
H842 H 0.85761 0.44927 0.20761 0.0
H843 H 0.90668 0.42677 0.18993 0.0
H844 H 0.77809 0.45009 0.19183 0.0
H845 H 0.76612 0.50561 0.17369 0.0
C846 C 0.54411 0.15997 0.3859 0.0
C847 C 0.49262 0.11188 0.40204 0.0
C848 C 0.56107 0.08338 0.4304 0.0
C849 C 0.6122 0.1367 0.4181 0.0
N850 N 0.65316 0.23 0.3873 0.0
N851 N 0.45181 0.02927 0.44121 0.0
C852 C 0.60398 0.17568 0.39629 0.0
C853 C 0.50081 0.07312 0.42431 0.0
N854 N 0.53571 0.1911 0.3607 0.0
N855 N 0.57069 0.04294 0.44802 0.0
H856 H 0.40718 0.02013 0.43713 0.0
H857 H 0.45562 1.00424 0.46057 0.0
H858 H 0.61457 0.05037 0.45294 0.0
H859 H 0.53577 1.00041 0.4554 0.0
H860 H 0.57094 0.2218 0.34554 0.0
H861 H 0.49269 0.18239 0.35298 0.0
H862 H 0.64941 0.2639 0.37476 0.0
H863 H 0.69773 0.24373 0.39484 0.0
C864 C 0.51668 0.30513 0.14287 0.0
C865 C 0.49106 0.2768 0.11198 0.0
C866 C 0.5395 0.3765 0.08522 0.0
C867 C 0.55582 0.40448 0.11699 0.0
N868 N 0.55203 0.39596 0.17648 0.0
N869 N 0.47567 0.28423 0.05363 0.0
C870 C 0.54273 0.36892 0.14596 0.0
C871 C 0.50212 0.31217 0.08298 0.0
N872 N 0.51556 0.27106 0.16933 0.0
N873 N 0.5612 0.41135 0.0574 0.0
H874 H 0.45101 0.23691 0.05107 0.0
H875 H 0.47607 0.3078 0.03241 0.0
H876 H 0.58975 0.45845 0.05848 0.0
H877 H 0.55533 0.3932 0.03354 0.0
H878 H 0.53798 0.28994 0.19168 0.0
H879 H 0.49787 0.22426 0.16777 0.0
H880 H 0.53735 0.37158 0.19854 0.0
H881 H 0.56876 0.44255 0.17954 0.0
C882 C 0.95615 0.49732 0.42923 0.0
C883 C 0.90176 0.4945 0.41753 0.0
C884 C 0.87588 0.40101 0.3869 0.0
C885 C 0.9246 0.39807 0.40301 0.0
N886 N 1.01209 0.44349 0.43947 0.0
N887 N 0.80659 0.44128 0.38764 0.0
C888 C 0.96595 0.44695 0.42366 0.0
C889 C 0.86131 0.44632 0.39646 0.0
N890 N 0.99786 0.54824 0.44591 0.0
N891 N 0.84279 0.35956 0.36268 0.0
H892 H 0.7937 0.47305 0.39449 0.0
H893 H 0.77167 0.40313 0.37583 0.0
H894 H 0.8508 0.32449 0.35574 0.0
H895 H 0.8112 0.36305 0.34751 0.0
H896 H 0.04091 0.55616 0.45304 0.0
H897 H 0.99072 0.58493 0.45034 0.0
H898 H 0.03951 0.47393 0.45783 0.0
H899 H 0.0213 0.40816 0.43525 0.0
C900 C 0.16346 0.69552 0.58536 0.0
C901 C 0.21691 0.73291 0.60397 0.0
C902 C 0.19097 0.64777 0.64154 0.0
C903 C 0.13695 0.61018 0.62285 0.0
N904 N 0.05906 0.61805 0.59222 0.0
N905 N 0.29255 0.73608 0.64148 0.0
C906 C 0.11939 0.63851 0.59825 0.0
C907 C 0.23431 0.70628 0.62942 0.0
N908 N 0.15304 0.7167 0.55644 0.0
N909 N 0.19655 0.6316 0.67305 0.0
H910 H 0.32636 0.77589 0.63056 0.0
H911 H 0.30877 0.71688 0.65875 0.0
H912 H 0.16046 0.59451 0.68482 0.0
H913 H 0.23245 0.65969 0.68887 0.0
H914 H 0.11599 0.68979 0.54095 0.0
H915 H 0.18511 0.75898 0.54684 0.0
H916 H 0.04382 0.63976 0.57602 0.0
H917 H 0.02538 0.58752 0.60827 0.0
C918 C 0.55394 0.94081 0.9101 0.0
C919 C 0.49003 0.90463 0.91437 0.0
C920 C 0.50615 0.82239 0.93634 0.0
C921 C 0.57074 0.8602 0.93284 0.0
N922 N 0.65155 0.96612 0.93349 0.0
N923 N 0.40799 0.81806 0.94183 0.0
C924 C 0.59355 0.92274 0.92491 0.0
C925 C 0.4666 0.84708 0.93025 0.0
N926 N 0.57723 0.99228 0.89137 0.0
N927 N 0.48244 0.76376 0.94681 0.0
H928 H 0.37968 0.83708 0.94063 0.0
H929 H 0.38971 0.77861 0.95602 0.0
H930 H 0.5092 0.7475 0.95751 0.0
H931 H 0.43619 0.73148 0.94484 0.0
H932 H 0.62349 0.01754 0.88535 0.0
H933 H 0.54944 1.0055 0.87889 0.0
H934 H 0.66845 0.01239 0.92931 0.0
H935 H 0.67842 0.95771 0.94991 0.0
C936 C 0.40724 0.53377 0.66158 0.0
C937 C 0.43868 0.56852 0.63365 0.0
C938 C 0.34257 0.52408 0.60181 0.0
C939 C 0.31077 0.49024 0.63021 0.0
N940 N 0.31066 0.47374 0.6892 0.0
N941 N 0.4378 0.60508 0.57894 0.0
C942 C 0.34256 0.49832 0.66072 0.0
C943 C 0.40663 0.56625 0.60424 0.0
N944 N 0.43978 0.53333 0.68863 0.0
N945 N 0.31184 0.5145 0.57244 0.0
H946 H 0.48471 0.63558 0.58025 0.0
H947 H 0.41702 0.6101 0.55779 0.0
H948 H 0.26478 0.48527 0.5703 0.0
H949 H 0.33303 0.53299 0.54992 0.0
H950 H 0.42054 0.50338 0.70839 0.0
H951 H 0.48724 0.56016 0.69019 0.0
H952 H 0.3303 0.4829 0.71277 0.0
H953 H 0.26337 0.44899 0.68957 0.0
C954 C 0.19132 0.69007 0.95023 0.0
C955 C 0.20909 0.71869 0.91891 0.0
C956 C 0.1565 0.6198 0.89103 0.0
C957 C 0.14088 0.59063 0.92223 0.0
N958 N 0.15716 0.59696 0.98143 0.0
N959 N 0.22474 0.71036 0.86057 0.0
C960 C 0.16232 0.62544 0.95194 0.0
C961 C 0.19726 0.68325 0.88967 0.0
N962 N 0.2012 0.72462 0.97814 0.0
N963 N 0.12988 0.58718 0.86279 0.0
H964 H 0.25695 0.75641 0.85935 0.0
H965 H 0.22129 0.68617 0.8389 0.0
H966 H 0.09728 0.54098 0.86315 0.0
H967 H 0.13515 0.60713 0.83956 0.0
H968 H 0.18309 0.70621 1.00126 0.0
H969 H 0.22552 0.77215 0.97762 0.0
H970 H 0.17669 0.62032 1.00347 0.0
H971 H 0.13835 0.54994 0.98323 0.0
C972 C 0.54555 0.94032 0.65734 0.0
C973 C 0.4995 0.92131 0.6329 0.0
C974 C 0.53474 0.85517 0.6076 0.0
C975 C 0.57902 0.87184 0.63328 0.0
N976 N 0.61715 0.92026 0.68671 0.0
N977 N 0.44474 0.85661 0.58671 0.0
C978 C 0.58204 0.91194 0.65921 0.0
C979 C 0.49234 0.87725 0.60866 0.0
N980 N 0.55453 0.98609 0.67876 0.0
N981 N 0.53501 0.82056 0.58151 0.0
H982 H 0.4153 0.87443 0.58575 0.0
H983 H 0.43222 0.81974 0.57078 0.0
H984 H 0.5654 0.80393 0.57993 0.0
H985 H 0.50821 0.81168 0.56031 0.0
H986 H 0.59207 0.00767 0.69462 0.0
H987 H 0.52648 1.00557 0.67897 0.0
H988 H 0.61605 0.94323 0.70799 0.0
H989 H 0.64302 0.89906 0.68981 0.0
C990 C 0.38204 0.56551 0.90615 0.0
C991 C 0.42504 0.54511 0.90187 0.0
C992 C 0.34714 0.4431 0.91909 0.0
C993 C 0.30402 0.46287 0.92416 0.0
N994 N 0.28991 0.54943 0.93381 0.0
N995 N 0.43029 0.45674 0.88435 0.0
C996 C 0.32419 0.52612 0.92105 0.0
C997 C 0.40238 0.4815 0.90255 0.0
N998 N 0.39146 0.61742 0.89096 0.0
N999 N 0.33743 0.38903 0.93167 0.0
H1000 H 0.46606 0.48303 0.86813 0.0
H1001 H 0.41243 0.40982 0.88204 0.0
H1002 H 0.3019 0.36348 0.94813 0.0
H1003 H 0.36978 0.37486 0.92975 0.0
H1004 H 0.36 0.63278 0.89165 0.0
H1005 H 0.42379 0.6372 0.87216 0.0
H1006 H 0.30474 0.59592 0.9342 0.0
H1007 H 0.25131 0.52357 0.94831 0.0
loop_
_geom_bond_atom_site_label_1
_geom_bond_atom_site_label_2
_geom_bond_distance
_geom_bond_site_symmetry_2
_ccdc_geom_bond_type
Co0 N5 2.057 . S
Co0 O17 2.021 . S
Co0 O20 2.062 . S
Co0 O24 2.117 . S
Co0 O25 2.020 . S
C1 O21 1.259 . S
C1 O24 1.258 . S
Co2 N11 2.057 . S
Co2 O18 2.117 . S
Co2 O19 2.020 . S
Co2 O21 2.021 . S
Co2 O26 2.062 . S
C3 N5 1.316 . S
C3 N6 1.347 . S
C3 H8 0.931 . S
C4 N5 1.375 . S
C4 C7 1.350 . S
C4 H9 0.930 . S
N5 Co0 2.057 . S
N5 C3 1.316 . S
N5 C4 1.375 . S
N6 C3 1.347 . S
N6 C7 1.373 . S
C7 C4 1.350 . S
C7 N6 1.373 . S
C7 H28 0.931 . S
H8 C3 0.931 . S
H9 C4 0.930 . S
C10 O17 1.259 . S
C10 O18 1.258 . S
N11 Co2 2.057 . S
N11 C12 1.316 . S
N11 C13 1.375 . S
C12 N11 1.316 . S
C12 N14 1.347 . S
C12 H23 0.931 . S
C13 N11 1.375 . S
C13 C15 1.350 . S
C13 H22 0.930 . S
N14 C12 1.347 . S
N14 C15 1.373 . S
C15 C13 1.350 . S
C15 N14 1.373 . S
C15 H29 0.931 . S
C16 O19 1.256 . S
C16 O20 1.255 . S
O17 Co0 2.021 . S
O17 C10 1.259 . S
O18 Co2 2.117 . S
O18 C10 1.258 . S
O19 Co2 2.020 . S
O19 C16 1.256 . S
O20 Co0 2.062 . S
O20 C16 1.255 . S
O21 C1 1.259 . S
O21 Co2 2.021 . S
H22 C13 0.930 . S
H23 C12 0.931 . S
O24 Co0 2.117 . S
O24 C1 1.258 . S
O25 Co0 2.020 . S
O25 C27 1.256 . S
O26 Co2 2.062 . S
O26 C27 1.255 . S
C27 O25 1.256 . S
C27 O26 1.255 . S
H28 C7 0.931 . S
H29 C15 0.931 . S
Co30 N35 2.057 . S
Co30 O47 2.021 . S
Co30 O50 2.062 . S
Co30 O54 2.117 . S
Co30 O55 2.020 . S
C31 O51 1.259 . S
C31 O54 1.258 . S
Co32 N41 2.057 . S
Co32 O48 2.117 . S
Co32 O49 2.020 . S
Co32 O51 2.021 . S
Co32 O56 2.062 . S
C33 N35 1.316 . S
C33 N36 1.347 . S
C33 H38 0.931 . S
C34 N35 1.375 . S
C34 C37 1.350 . S
C34 H39 0.930 . S
N35 Co30 2.057 . S
N35 C33 1.316 . S
N35 C34 1.375 . S
N36 C33 1.347 . S
N36 C37 1.373 . S
C37 C34 1.350 . S
C37 N36 1.373 . S
C37 H58 0.931 . S
H38 C33 0.931 . S
H39 C34 0.930 . S
C40 O47 1.259 . S
C40 O48 1.258 . S
N41 Co32 2.057 . S
N41 C42 1.316 . S
N41 C43 1.375 . S
C42 N41 1.316 . S
C42 N44 1.347 . S
C42 H53 0.931 . S
C43 N41 1.375 . S
C43 C45 1.350 . S
C43 H52 0.930 . S
N44 C42 1.347 . S
N44 C45 1.373 . S
C45 C43 1.350 . S
C45 N44 1.373 . S
C45 H59 0.931 . S
C46 O49 1.256 . S
C46 O50 1.255 . S
O47 Co30 2.021 . S
O47 C40 1.259 . S
O48 Co32 2.117 . S
O48 C40 1.258 . S
O49 Co32 2.020 . S
O49 C46 1.256 . S
O50 Co30 2.062 . S
O50 C46 1.255 . S
O51 C31 1.259 . S
O51 Co32 2.021 . S
H52 C43 0.930 . S
H53 C42 0.931 . S
O54 Co30 2.117 . S
O54 C31 1.258 . S
O55 Co30 2.020 . S
O55 C57 1.256 . S
O56 Co32 2.062 . S
O56 C57 1.255 . S
C57 O55 1.256 . S
C57 O56 1.255 . S
H58 C37 0.931 . S
H59 C45 0.931 . S
Co60 N65 2.057 . S
Co60 O77 2.021 . S
Co60 O80 2.062 . S
Co60 O84 2.117 . S
Co60 O85 2.020 . S
C61 O81 1.259 . S
C61 O84 1.258 . S
Co62 N71 2.057 . S
Co62 O78 2.117 . S
Co62 O79 2.020 . S
Co62 O81 2.021 . S
Co62 O86 2.062 . S
C63 N65 1.316 . S
C63 N66 1.347 1_545 S
C63 H68 0.931 . S
C64 N65 1.375 . S
C64 C67 1.350 1_545 S
C64 H69 0.930 . S
N65 Co60 2.057 . S
N65 C63 1.316 . S
N65 C64 1.375 . S
N66 C63 1.347 1_565 S
N66 C67 1.373 . S
C67 C64 1.350 1_565 S
C67 N66 1.373 . S
C67 H88 0.931 . S
H68 C63 0.931 . S
H69 C64 0.930 . S
C70 O77 1.259 . S
C70 O78 1.258 . S
N71 Co62 2.057 . S
N71 C72 1.316 . S
N71 C73 1.375 . S
C72 N71 1.316 . S
C72 N74 1.347 . S
C72 H83 0.931 . S
C73 N71 1.375 . S
C73 C75 1.350 . S
C73 H82 0.930 . S
N74 C72 1.347 . S
N74 C75 1.373 . S
C75 C73 1.350 . S
C75 N74 1.373 . S
C75 H89 0.931 . S
C76 O79 1.256 . S
C76 O80 1.255 . S
O77 Co60 2.021 . S
O77 C70 1.259 . S
O78 Co62 2.117 . S
O78 C70 1.258 . S
O79 Co62 2.020 . S
O79 C76 1.256 . S
O80 Co60 2.062 . S
O80 C76 1.255 . S
O81 C61 1.259 . S
O81 Co62 2.021 . S
H82 C73 0.930 . S
H83 C72 0.931 . S
O84 Co60 2.117 . S
O84 C61 1.258 . S
O85 Co60 2.020 . S
O85 C87 1.256 . S
O86 Co62 2.062 . S
O86 C87 1.255 . S
C87 O85 1.256 . S
C87 O86 1.255 . S
H88 C67 0.931 . S
H89 C75 0.931 . S
Co90 N95 2.057 1_545 S
Co90 O107 2.021 . S
Co90 O110 2.062 . S
Co90 O114 2.117 . S
Co90 O115 2.020 . S
C91 O111 1.259 . S
C91 O114 1.258 . S
Co92 N101 2.057 . S
Co92 O108 2.117 . S
Co92 O109 2.020 . S
Co92 O111 2.021 . S
Co92 O116 2.062 . S
C93 N95 1.316 . S
C93 N96 1.347 . S
C93 H98 0.931 . S
C94 N95 1.375 . S
C94 C97 1.350 . S
C94 H99 0.930 . S
N95 Co90 2.057 1_565 S
N95 C93 1.316 . S
N95 C94 1.375 . S
N96 C93 1.347 . S
N96 C97 1.373 . S
C97 C94 1.350 . S
C97 N96 1.373 . S
C97 H118 0.931 . S
H98 C93 0.931 . S
H99 C94 0.930 . S
C100 O107 1.259 . S
C100 O108 1.258 . S
N101 Co92 2.057 . S
N101 C102 1.316 . S
N101 C103 1.375 . S
C102 N101 1.316 . S
C102 N104 1.347 . S
C102 H113 0.931 . S
C103 N101 1.375 . S
C103 C105 1.350 . S
C103 H112 0.930 . S
N104 C102 1.347 . S
N104 C105 1.373 . S
C105 C103 1.350 . S
C105 N104 1.373 . S
C105 H119 0.931 . S
C106 O109 1.256 . S
C106 O110 1.255 . S
O107 Co90 2.021 . S
O107 C100 1.259 . S
O108 Co92 2.117 . S
O108 C100 1.258 . S
O109 Co92 2.020 . S
O109 C106 1.256 . S
O110 Co90 2.062 . S
O110 C106 1.255 . S
O111 C91 1.259 . S
O111 Co92 2.021 . S
H112 C103 0.930 . S
H113 C102 0.931 . S
O114 Co90 2.117 . S
O114 C91 1.258 . S
O115 Co90 2.020 . S
O115 C117 1.256 . S
O116 Co92 2.062 . S
O116 C117 1.255 . S
C117 O115 1.256 . S
C117 O116 1.255 . S
H118 C97 0.931 . S
H119 C105 0.931 . S
Co120 N125 2.057 . S
Co120 O137 2.021 . S
Co120 O140 2.062 . S
Co120 O144 2.117 . S
Co120 O145 2.020 . S
C121 O141 1.259 . S
C121 O144 1.258 . S
Co122 N131 2.057 . S
Co122 O138 2.117 . S
Co122 O139 2.020 . S
Co122 O141 2.021 . S
Co122 O146 2.062 . S
C123 N125 1.316 . S
C123 N126 1.347 1_655 S
C123 H128 0.931 . S
C124 N125 1.375 . S
C124 C127 1.350 1_655 S
C124 H129 0.930 . S
N125 Co120 2.057 . S
N125 C123 1.316 . S
N125 C124 1.375 . S
N126 C123 1.347 1_455 S
N126 C127 1.373 . S
C127 C124 1.350 1_455 S
C127 N126 1.373 . S
C127 H148 0.931 . S
H128 C123 0.931 . S
H129 C124 0.930 . S
C130 O137 1.259 . S
C130 O138 1.258 . S
N131 Co122 2.057 . S
N131 C132 1.316 . S
N131 C133 1.375 . S
C132 N131 1.316 . S
C132 N134 1.347 . S
C132 H143 0.931 . S
C133 N131 1.375 . S
C133 C135 1.350 . S
C133 H142 0.930 . S
N134 C132 1.347 . S
N134 C135 1.373 . S
C135 C133 1.350 . S
C135 N134 1.373 . S
C135 H149 0.931 . S
C136 O139 1.256 . S
C136 O140 1.255 . S
O137 Co120 2.021 . S
O137 C130 1.259 . S
O138 Co122 2.117 . S
O138 C130 1.258 . S
O139 Co122 2.020 . S
O139 C136 1.256 . S
O140 Co120 2.062 . S
O140 C136 1.255 . S
O141 C121 1.259 . S
O141 Co122 2.021 . S
H142 C133 0.930 . S
H143 C132 0.931 . S
O144 Co120 2.117 . S
O144 C121 1.258 . S
O145 Co120 2.020 . S
O145 C147 1.256 . S
O146 Co122 2.062 . S
O146 C147 1.255 . S
C147 O145 1.256 . S
C147 O146 1.255 . S
H148 C127 0.931 . S
H149 C135 0.931 . S
Co150 N155 2.057 1_655 S
Co150 O167 2.021 . S
Co150 O170 2.062 . S
Co150 O174 2.117 . S
Co150 O175 2.020 . S
C151 O171 1.259 . S
C151 O174 1.258 . S
Co152 N161 2.057 . S
Co152 O168 2.117 . S
Co152 O169 2.020 . S
Co152 O171 2.021 . S
Co152 O176 2.062 . S
C153 N155 1.316 . S
C153 N156 1.347 . S
C153 H158 0.931 . S
C154 N155 1.375 . S
C154 C157 1.350 . S
C154 H159 0.930 . S
N155 Co150 2.057 1_455 S
N155 C153 1.316 . S
N155 C154 1.375 . S
N156 C153 1.347 . S
N156 C157 1.373 . S
C157 C154 1.350 . S
C157 N156 1.373 . S
C157 H178 0.931 . S
H158 C153 0.931 . S
H159 C154 0.930 . S
C160 O167 1.259 . S
C160 O168 1.258 . S
N161 Co152 2.057 . S
N161 C162 1.316 . S
N161 C163 1.375 . S
C162 N161 1.316 . S
C162 N164 1.347 . S
C162 H173 0.931 . S
C163 N161 1.375 . S
C163 C165 1.350 . S
C163 H172 0.930 . S
N164 C162 1.347 . S
N164 C165 1.373 . S
C165 C163 1.350 . S
C165 N164 1.373 . S
C165 H179 0.931 . S
C166 O169 1.256 . S
C166 O170 1.255 . S
O167 Co150 2.021 . S
O167 C160 1.259 . S
O168 Co152 2.117 . S
O168 C160 1.258 . S
O169 Co152 2.020 . S
O169 C166 1.256 . S
O170 Co150 2.062 . S
O170 C166 1.255 . S
O171 C151 1.259 . S
O171 Co152 2.021 . S
H172 C163 0.930 . S
H173 C162 0.931 . S
O174 Co150 2.117 . S
O174 C151 1.258 . S
O175 Co150 2.020 . S
O175 C177 1.256 . S
O176 Co152 2.062 . S
O176 C177 1.255 . S
C177 O175 1.256 . S
C177 O176 1.255 . S
H178 C157 0.931 . S
H179 C165 0.931 . S
Co180 N185 2.057 . S
Co180 O197 2.021 . S
Co180 O200 2.062 . S
Co180 O204 2.117 . S
Co180 O205 2.020 . S
C181 O201 1.259 . S
C181 O204 1.258 . S
Co182 N191 2.057 . S
Co182 O198 2.117 . S
Co182 O199 2.020 . S
Co182 O201 2.021 . S
Co182 O206 2.062 . S
C183 N185 1.316 . S
C183 N186 1.347 . S
C183 H188 0.931 . S
C184 N185 1.375 . S
C184 C187 1.350 . S
C184 H189 0.930 . S
N185 Co180 2.057 . S
N185 C183 1.316 . S
N185 C184 1.375 . S
N186 C183 1.347 . S
N186 C187 1.373 . S
C187 C184 1.350 . S
C187 N186 1.373 . S
C187 H208 0.931 . S
H188 C183 0.931 . S
H189 C184 0.930 . S
C190 O197 1.259 . S
C190 O198 1.258 . S
N191 Co182 2.057 . S
N191 C192 1.316 . S
N191 C193 1.375 . S
C192 N191 1.316 . S
C192 N194 1.347 . S
C192 H203 0.931 . S
C193 N191 1.375 . S
C193 C195 1.350 . S
C193 H202 0.930 . S
N194 C192 1.347 . S
N194 C195 1.373 . S
C195 C193 1.350 . S
C195 N194 1.373 . S
C195 H209 0.931 . S
C196 O199 1.256 . S
C196 O200 1.255 . S
O197 Co180 2.021 . S
O197 C190 1.259 . S
O198 Co182 2.117 . S
O198 C190 1.258 . S
O199 Co182 2.020 . S
O199 C196 1.256 . S
O200 Co180 2.062 . S
O200 C196 1.255 . S
O201 C181 1.259 . S
O201 Co182 2.021 . S
H202 C193 0.930 . S
H203 C192 0.931 . S
O204 Co180 2.117 . S
O204 C181 1.258 . S
O205 Co180 2.020 . S
O205 C207 1.256 . S
O206 Co182 2.062 . S
O206 C207 1.255 . S
C207 O205 1.256 . S
C207 O206 1.255 . S
H208 C187 0.931 . S
H209 C195 0.931 . S
Co210 N215 2.057 . S
Co210 O227 2.021 . S
Co210 O230 2.062 . S
Co210 O234 2.117 . S
Co210 O235 2.020 . S
C211 O231 1.259 . S
C211 O234 1.258 . S
Co212 N221 2.057 . S
Co212 O228 2.117 . S
Co212 O229 2.020 . S
Co212 O231 2.021 . S
Co212 O236 2.062 . S
C213 N215 1.316 . S
C213 N216 1.347 1_455 S
C213 H218 0.931 . S
C214 N215 1.375 . S
C214 C217 1.350 1_455 S
C214 H219 0.930 . S
N215 Co210 2.057 . S
N215 C213 1.316 . S
N215 C214 1.375 . S
N216 C213 1.347 1_655 S
N216 C217 1.373 . S
C217 C214 1.350 1_655 S
C217 N216 1.373 . S
C217 H238 0.931 . S
H218 C213 0.931 . S
H219 C214 0.930 . S
C220 O227 1.259 . S
C220 O228 1.258 . S
N221 Co212 2.057 . S
N221 C222 1.316 . S
N221 C223 1.375 . S
C222 N221 1.316 . S
C222 N224 1.347 . S
C222 H233 0.931 . S
C223 N221 1.375 . S
C223 C225 1.350 . S
C223 H232 0.930 . S
N224 C222 1.347 . S
N224 C225 1.373 . S
C225 C223 1.350 . S
C225 N224 1.373 . S
C225 H239 0.931 . S
C226 O229 1.256 . S
C226 O230 1.255 . S
O227 Co210 2.021 . S
O227 C220 1.259 . S
O228 Co212 2.117 . S
O228 C220 1.258 . S
O229 Co212 2.020 . S
O229 C226 1.256 . S
O230 Co210 2.062 . S
O230 C226 1.255 . S
O231 C211 1.259 . S
O231 Co212 2.021 . S
H232 C223 0.930 . S
H233 C222 0.931 . S
O234 Co210 2.117 . S
O234 C211 1.258 . S
O235 Co210 2.020 . S
O235 C237 1.256 . S
O236 Co212 2.062 . S
O236 C237 1.255 . S
C237 O235 1.256 . S
C237 O236 1.255 . S
H238 C217 0.931 . S
H239 C225 0.931 . S
Co240 N245 2.057 . S
Co240 O257 2.021 . S
Co240 O260 2.062 . S
Co240 O264 2.117 . S
Co240 O265 2.020 . S
C241 O261 1.259 . S
C241 O264 1.258 . S
Co242 N251 2.057 . S
Co242 O258 2.117 . S
Co242 O259 2.020 . S
Co242 O261 2.021 . S
Co242 O266 2.062 . S
C243 N245 1.316 . S
C243 N246 1.347 . S
C243 H248 0.931 . S
C244 N245 1.375 . S
C244 C247 1.350 . S
C244 H249 0.930 . S
N245 Co240 2.057 . S
N245 C243 1.316 . S
N245 C244 1.375 . S
N246 C243 1.347 . S
N246 C247 1.373 . S
C247 C244 1.350 . S
C247 N246 1.373 . S
C247 H268 0.931 . S
H248 C243 0.931 . S
H249 C244 0.930 . S
C250 O257 1.259 . S
C250 O258 1.258 . S
N251 Co242 2.057 . S
N251 C252 1.316 . S
N251 C253 1.375 . S
C252 N251 1.316 . S
C252 N254 1.347 1_565 S
C252 H263 0.931 . S
C253 N251 1.375 . S
C253 C255 1.350 1_565 S
C253 H262 0.930 . S
N254 C252 1.347 1_545 S
N254 C255 1.373 . S
C255 C253 1.350 1_545 S
C255 N254 1.373 . S
C255 H269 0.931 . S
C256 O259 1.256 . S
C256 O260 1.255 . S
O257 Co240 2.021 . S
O257 C250 1.259 . S
O258 Co242 2.117 . S
O258 C250 1.258 . S
O259 Co242 2.020 . S
O259 C256 1.256 . S
O260 Co240 2.062 . S
O260 C256 1.255 . S
O261 C241 1.259 . S
O261 Co242 2.021 . S
H262 C253 0.930 . S
H263 C252 0.931 . S
O264 Co240 2.117 . S
O264 C241 1.258 . S
O265 Co240 2.020 . S
O265 C267 1.256 . S
O266 Co242 2.062 . S
O266 C267 1.255 . S
C267 O265 1.256 . S
C267 O266 1.255 . S
H268 C247 0.931 . S
H269 C255 0.931 . S
Co270 N275 2.057 . S
Co270 O287 2.021 . S
Co270 O290 2.062 . S
Co270 O294 2.117 . S
Co270 O295 2.020 . S
C271 O291 1.259 . S
C271 O294 1.258 . S
Co272 N281 2.057 . S
Co272 O288 2.117 . S
Co272 O289 2.020 . S
Co272 O291 2.021 . S
Co272 O296 2.062 . S
C273 N275 1.316 . S
C273 N276 1.347 . S
C273 H278 0.931 . S
C274 N275 1.375 . S
C274 C277 1.350 . S
C274 H279 0.930 . S
N275 Co270 2.057 . S
N275 C273 1.316 . S
N275 C274 1.375 . S
N276 C273 1.347 . S
N276 C277 1.373 . S
C277 C274 1.350 . S
C277 N276 1.373 . S
C277 H298 0.931 . S
H278 C273 0.931 . S
H279 C274 0.930 . S
C280 O287 1.259 . S
C280 O288 1.258 . S
N281 Co272 2.057 . S
N281 C282 1.316 . S
N281 C283 1.375 . S
C282 N281 1.316 . S
C282 N284 1.347 . S
C282 H293 0.931 . S
C283 N281 1.375 . S
C283 C285 1.350 . S
C283 H292 0.930 . S
N284 C282 1.347 . S
N284 C285 1.373 . S
C285 C283 1.350 . S
C285 N284 1.373 . S
C285 H299 0.931 . S
C286 O289 1.256 . S
C286 O290 1.255 . S
O287 Co270 2.021 . S
O287 C280 1.259 . S
O288 Co272 2.117 . S
O288 C280 1.258 . S
O289 Co272 2.020 . S
O289 C286 1.256 . S
O290 Co270 2.062 . S
O290 C286 1.255 . S
O291 C271 1.259 . S
O291 Co272 2.021 . S
H292 C283 0.930 . S
H293 C282 0.931 . S
O294 Co270 2.117 . S
O294 C271 1.258 . S
O295 Co270 2.020 . S
O295 C297 1.256 . S
O296 Co272 2.062 . S
O296 C297 1.255 . S
C297 O295 1.256 . S
C297 O296 1.255 . S
H298 C277 0.931 . S
H299 C285 0.931 . S
Co300 N305 2.057 . S
Co300 O317 2.021 . S
Co300 O320 2.062 . S
Co300 O324 2.117 . S
Co300 O325 2.020 . S
C301 O321 1.259 . S
C301 O324 1.258 . S
Co302 N311 2.057 . S
Co302 O318 2.117 . S
Co302 O319 2.020 . S
Co302 O321 2.021 . S
Co302 O326 2.062 . S
C303 N305 1.316 . S
C303 N306 1.347 . S
C303 H308 0.931 . S
C304 N305 1.375 . S
C304 C307 1.350 . S
C304 H309 0.930 . S
N305 Co300 2.057 . S
N305 C303 1.316 . S
N305 C304 1.375 . S
N306 C303 1.347 . S
N306 C307 1.373 . S
C307 C304 1.350 . S
C307 N306 1.373 . S
C307 H328 0.931 . S
H308 C303 0.931 . S
H309 C304 0.930 . S
C310 O317 1.259 . S
C310 O318 1.258 . S
N311 Co302 2.057 . S
N311 C312 1.316 . S
N311 C313 1.375 . S
C312 N311 1.316 . S
C312 N314 1.347 1_455 S
C312 H323 0.931 . S
C313 N311 1.375 . S
C313 C315 1.350 1_455 S
C313 H322 0.930 . S
N314 C312 1.347 1_655 S
N314 C315 1.373 . S
C315 C313 1.350 1_655 S
C315 N314 1.373 . S
C315 H329 0.931 . S
C316 O319 1.256 . S
C316 O320 1.255 . S
O317 Co300 2.021 . S
O317 C310 1.259 . S
O318 Co302 2.117 . S
O318 C310 1.258 . S
O319 Co302 2.020 . S
O319 C316 1.256 . S
O320 Co300 2.062 . S
O320 C316 1.255 . S
O321 C301 1.259 . S
O321 Co302 2.021 . S
H322 C313 0.930 . S
H323 C312 0.931 . S
O324 Co300 2.117 . S
O324 C301 1.258 . S
O325 Co300 2.020 . S
O325 C327 1.256 . S
O326 Co302 2.062 . S
O326 C327 1.255 . S
C327 O325 1.256 . S
C327 O326 1.255 . S
H328 C307 0.931 . S
H329 C315 0.931 . S
Co330 N335 2.057 . S
Co330 O347 2.021 . S
Co330 O350 2.062 . S
Co330 O354 2.117 . S
Co330 O355 2.020 . S
C331 O351 1.259 . S
C331 O354 1.258 . S
Co332 N341 2.057 . S
Co332 O348 2.117 . S
Co332 O349 2.020 . S
Co332 O351 2.021 . S
Co332 O356 2.062 . S
C333 N335 1.316 . S
C333 N336 1.347 1_565 S
C333 H338 0.931 . S
C334 N335 1.375 . S
C334 C337 1.350 1_565 S
C334 H339 0.930 . S
N335 Co330 2.057 . S
N335 C333 1.316 . S
N335 C334 1.375 . S
N336 C333 1.347 1_545 S
N336 C337 1.373 . S
C337 C334 1.350 1_545 S
C337 N336 1.373 . S
C337 H358 0.931 . S
H338 C333 0.931 . S
H339 C334 0.930 . S
C340 O347 1.259 . S
C340 O348 1.258 . S
N341 Co332 2.057 . S
N341 C342 1.316 . S
N341 C343 1.375 . S
C342 N341 1.316 . S
C342 N344 1.347 . S
C342 H353 0.931 . S
C343 N341 1.375 . S
C343 C345 1.350 . S
C343 H352 0.930 . S
N344 C342 1.347 . S
N344 C345 1.373 . S
C345 C343 1.350 . S
C345 N344 1.373 . S
C345 H359 0.931 . S
C346 O349 1.256 . S
C346 O350 1.255 . S
O347 Co330 2.021 . S
O347 C340 1.259 . S
O348 Co332 2.117 . S
O348 C340 1.258 . S
O349 Co332 2.020 . S
O349 C346 1.256 . S
O350 Co330 2.062 . S
O350 C346 1.255 . S
O351 C331 1.259 . S
O351 Co332 2.021 . S
H352 C343 0.930 . S
H353 C342 0.931 . S
O354 Co330 2.117 . S
O354 C331 1.258 . S
O355 Co330 2.020 . S
O355 C357 1.256 . S
O356 Co332 2.062 . S
O356 C357 1.255 . S
C357 O355 1.256 . S
C357 O356 1.255 . S
H358 C337 0.931 . S
H359 C345 0.931 . S
C360 C361 1.363 . S
C360 C366 1.379 . S
C360 N368 1.356 1_455 S
C361 C360 1.363 . S
C361 C367 1.363 . S
C362 C363 1.363 . S
C362 C367 1.379 . S
C362 N369 1.356 . S
C363 C362 1.363 . S
C363 C366 1.363 . S
N364 C366 1.356 . S
N364 H376 0.984 . S
N364 H377 0.985 . S
N365 C367 1.356 . S
N365 H370 0.984 1_455 S
N365 H371 0.985 . S
C366 C360 1.379 . S
C366 C363 1.363 . S
C366 N364 1.356 . S
C367 C361 1.363 . S
C367 C362 1.379 . S
C367 N365 1.356 . S
N368 C360 1.356 1_655 S
N368 H374 0.984 . S
N368 H375 0.984 . S
N369 C362 1.356 . S
N369 H372 0.984 . S
N369 H373 0.985 . S
H370 N365 0.984 1_655 S
H371 N365 0.985 . S
H372 N369 0.984 . S
H373 N369 0.985 . S
H374 N368 0.984 . S
H375 N368 0.984 . S
H376 N364 0.984 . S
H377 N364 0.985 . S
C378 C379 1.363 . S
C378 C384 1.379 1_455 S
C378 N386 1.356 . S
C379 C378 1.363 . S
C379 C385 1.363 . S
C380 C381 1.363 1_455 S
C380 C385 1.379 . S
C380 N387 1.356 1_455 S
C381 C380 1.363 1_655 S
C381 C384 1.363 . S
N382 C384 1.356 . S
N382 H394 0.984 . S
N382 H395 0.985 . S
N383 C385 1.356 . S
N383 H388 0.984 . S
N383 H389 0.985 . S
C384 C378 1.379 1_655 S
C384 C381 1.363 . S
C384 N382 1.356 . S
C385 C379 1.363 . S
C385 C380 1.379 . S
C385 N383 1.356 . S
N386 C378 1.356 . S
N386 H392 0.984 . S
N386 H393 0.984 . S
N387 C380 1.356 1_655 S
N387 H390 0.984 . S
N387 H391 0.985 . S
H388 N383 0.984 . S
H389 N383 0.985 . S
H390 N387 0.984 . S
H391 N387 0.985 . S
H392 N386 0.984 . S
H393 N386 0.984 . S
H394 N382 0.984 . S
H395 N382 0.985 . S
C396 C397 1.363 . S
C396 C402 1.379 . S
C396 N404 1.356 . S
C397 C396 1.363 . S
C397 C403 1.363 . S
C398 C399 1.363 . S
C398 C403 1.379 . S
C398 N405 1.356 . S
C399 C398 1.363 . S
C399 C402 1.363 . S
N400 C402 1.356 . S
N400 H412 0.984 . S
N400 H413 0.985 . S
N401 C403 1.356 . S
N401 H406 0.984 . S
N401 H407 0.985 . S
C402 C396 1.379 . S
C402 C399 1.363 . S
C402 N400 1.356 . S
C403 C397 1.363 . S
C403 C398 1.379 . S
C403 N401 1.356 . S
N404 C396 1.356 . S
N404 H410 0.984 . S
N404 H411 0.984 . S
N405 C398 1.356 . S
N405 H408 0.984 . S
N405 H409 0.985 . S
H406 N401 0.984 . S
H407 N401 0.985 . S
H408 N405 0.984 . S
H409 N405 0.985 . S
H410 N404 0.984 . S
H411 N404 0.984 . S
H412 N400 0.984 . S
H413 N400 0.985 . S
C414 C415 1.363 . S
C414 C420 1.379 . S
C414 N422 1.356 . S
C415 C414 1.363 . S
C415 C421 1.363 . S
C416 C417 1.363 . S
C416 C421 1.379 . S
C416 N423 1.356 . S
C417 C416 1.363 . S
C417 C420 1.363 . S
N418 C420 1.356 . S
N418 H430 0.984 . S
N418 H431 0.985 . S
N419 C421 1.356 . S
N419 H424 0.984 . S
N419 H425 0.985 . S
C420 C414 1.379 . S
C420 C417 1.363 . S
C420 N418 1.356 . S
C421 C415 1.363 . S
C421 C416 1.379 . S
C421 N419 1.356 . S
N422 C414 1.356 . S
N422 H428 0.984 . S
N422 H429 0.984 . S
N423 C416 1.356 . S
N423 H426 0.984 . S
N423 H427 0.985 . S
H424 N419 0.984 . S
H425 N419 0.985 . S
H426 N423 0.984 . S
H427 N423 0.985 . S
H428 N422 0.984 . S
H429 N422 0.984 . S
H430 N418 0.984 . S
H431 N418 0.985 . S
C432 C433 1.363 . S
C432 C438 1.379 . S
C432 N440 1.356 1_565 S
C433 C432 1.363 . S
C433 C439 1.363 . S
C434 C435 1.363 . S
C434 C439 1.379 . S
C434 N441 1.356 . S
C435 C434 1.363 . S
C435 C438 1.363 . S
N436 C438 1.356 . S
N436 H448 0.984 . S
N436 H449 0.985 . S
N437 C439 1.356 . S
N437 H442 0.984 . S
N437 H443 0.985 . S
C438 C432 1.379 . S
C438 C435 1.363 . S
C438 N436 1.356 . S
C439 C433 1.363 . S
C439 C434 1.379 . S
C439 N437 1.356 . S
N440 C432 1.356 1_545 S
N440 H446 0.984 . S
N440 H447 0.984 . S
N441 C434 1.356 . S
N441 H444 0.984 . S
N441 H445 0.985 . S
H442 N437 0.984 . S
H443 N437 0.985 . S
H444 N441 0.984 . S
H445 N441 0.985 . S
H446 N440 0.984 . S
H447 N440 0.984 . S
H448 N436 0.984 . S
H449 N436 0.985 . S
C450 C451 1.363 . S
C450 C456 1.379 . S
C450 N458 1.356 . S
C451 C450 1.363 . S
C451 C457 1.363 . S
C452 C453 1.363 . S
C452 C457 1.379 1_545 S
C452 N459 1.356 . S
C453 C452 1.363 . S
C453 C456 1.363 1_545 S
N454 C456 1.356 1_545 S
N454 H466 0.984 . S
N454 H467 0.985 . S
N455 C457 1.356 . S
N455 H460 0.984 . S
N455 H461 0.985 . S
C456 C450 1.379 . S
C456 C453 1.363 1_565 S
C456 N454 1.356 1_565 S
C457 C451 1.363 . S
C457 C452 1.379 1_565 S
C457 N455 1.356 . S
N458 C450 1.356 . S
N458 H464 0.984 . S
N458 H465 0.984 . S
N459 C452 1.356 . S
N459 H462 0.984 . S
N459 H463 0.985 . S
H460 N455 0.984 . S
H461 N455 0.985 . S
H462 N459 0.984 . S
H463 N459 0.985 . S
H464 N458 0.984 . S
H465 N458 0.984 . S
H466 N454 0.984 . S
H467 N454 0.985 . S
C468 C469 1.363 . S
C468 C474 1.379 . S
C468 N476 1.357 . S
C469 C468 1.363 . S
C469 C475 1.363 . S
C470 C471 1.363 . S
C470 C475 1.379 . S
C470 N477 1.356 . S
C471 C470 1.363 . S
C471 C474 1.363 . S
N472 C474 1.356 . S
N472 H484 0.984 . S
N472 H485 0.985 . S
N473 C475 1.356 . S
N473 H478 0.984 1_545 S
N473 H479 0.985 . S
C474 C468 1.379 . S
C474 C471 1.363 . S
C474 N472 1.356 . S
C475 C469 1.363 . S
C475 C470 1.379 . S
C475 N473 1.356 . S
N476 C468 1.357 . S
N476 H482 0.985 . S
N476 H483 0.983 1_545 S
N477 C470 1.356 . S
N477 H480 0.984 . S
N477 H481 0.985 . S
H478 N473 0.984 1_565 S
H479 N473 0.985 . S
H480 N477 0.984 . S
H481 N477 0.985 . S
H482 N476 0.985 . S
H483 N476 0.983 1_565 S
H484 N472 0.984 . S
H485 N472 0.985 . S
C486 C487 1.363 . S
C486 C492 1.379 . S
C486 N494 1.356 . S
C487 C486 1.363 . S
C487 C493 1.363 . S
C488 C489 1.363 . S
C488 C493 1.379 . S
C488 N495 1.356 . S
C489 C488 1.363 . S
C489 C492 1.363 . S
N490 C492 1.356 . S
N490 H502 0.984 . S
N490 H503 0.985 . S
N491 C493 1.356 . S
N491 H496 0.984 . S
N491 H497 0.985 . S
C492 C486 1.379 . S
C492 C489 1.363 . S
C492 N490 1.356 . S
C493 C487 1.363 . S
C493 C488 1.379 . S
C493 N491 1.356 . S
N494 C486 1.356 . S
N494 H500 0.984 . S
N494 H501 0.984 . S
N495 C488 1.356 . S
N495 H498 0.984 . S
N495 H499 0.985 . S
H496 N491 0.984 . S
H497 N491 0.985 . S
H498 N495 0.984 . S
H499 N495 0.985 . S
H500 N494 0.984 . S
H501 N494 0.984 . S
H502 N490 0.984 . S
H503 N490 0.985 . S
C504 C505 1.363 . S
C504 C510 1.379 . S
C504 N512 1.356 . S
C505 C504 1.363 . S
C505 C511 1.363 . S
C506 C507 1.363 . S
C506 C511 1.379 . S
C506 N513 1.356 1_655 S
C507 C506 1.363 . S
C507 C510 1.363 . S
N508 C510 1.356 . S
N508 H520 0.984 . S
N508 H521 0.985 . S
N509 C511 1.356 . S
N509 H514 0.984 . S
N509 H515 0.985 . S
C510 C504 1.379 . S
C510 C507 1.363 . S
C510 N508 1.356 . S
C511 C505 1.363 . S
C511 C506 1.379 . S
C511 N509 1.356 . S
N512 C504 1.356 . S
N512 H518 0.984 . S
N512 H519 0.984 . S
N513 C506 1.356 1_455 S
N513 H516 0.984 . S
N513 H517 0.985 . S
H514 N509 0.984 . S
H515 N509 0.985 . S
H516 N513 0.984 . S
H517 N513 0.985 . S
H518 N512 0.984 . S
H519 N512 0.984 . S
H520 N508 0.984 . S
H521 N508 0.985 . S
C522 C523 1.363 . S
C522 C528 1.379 . S
C522 N530 1.356 . S
C523 C522 1.363 . S
C523 C529 1.363 . S
C524 C525 1.363 . S
C524 C529 1.379 . S
C524 N531 1.356 1_545 S
C525 C524 1.363 . S
C525 C528 1.363 . S
N526 C528 1.356 . S
N526 H538 0.984 . S
N526 H539 0.985 1_545 S
N527 C529 1.356 . S
N527 H532 0.984 . S
N527 H533 0.985 . S
C528 C522 1.379 . S
C528 C525 1.363 . S
C528 N526 1.356 . S
C529 C523 1.363 . S
C529 C524 1.379 . S
C529 N527 1.356 . S
N530 C522 1.356 . S
N530 H536 0.984 . S
N530 H537 0.984 . S
N531 C524 1.356 1_565 S
N531 H534 0.984 . S
N531 H535 0.985 . S
H532 N527 0.984 . S
H533 N527 0.985 . S
H534 N531 0.984 . S
H535 N531 0.985 . S
H536 N530 0.984 . S
H537 N530 0.984 . S
H538 N526 0.984 . S
H539 N526 0.985 1_565 S
C540 C541 1.363 . S
C540 C546 1.379 . S
C540 N548 1.356 . S
C541 C540 1.363 . S
C541 C547 1.363 . S
C542 C543 1.363 . S
C542 C547 1.379 . S
C542 N549 1.356 . S
C543 C542 1.363 . S
C543 C546 1.363 . S
N544 C546 1.356 . S
N544 H556 0.984 . S
N544 H557 0.985 . S
N545 C547 1.356 . S
N545 H550 0.984 . S
N545 H551 0.985 . S
C546 C540 1.379 . S
C546 C543 1.363 . S
C546 N544 1.356 . S
C547 C541 1.363 . S
C547 C542 1.379 . S
C547 N545 1.356 . S
N548 C540 1.356 . S
N548 H554 0.984 . S
N548 H555 0.984 . S
N549 C542 1.356 . S
N549 H552 0.984 . S
N549 H553 0.985 . S
H550 N545 0.984 . S
H551 N545 0.985 . S
H552 N549 0.984 . S
H553 N549 0.985 . S
H554 N548 0.984 . S
H555 N548 0.984 . S
H556 N544 0.984 . S
H557 N544 0.985 . S
C558 C559 1.363 . S
C558 C564 1.379 . S
C558 N566 1.356 . S
C559 C558 1.363 . S
C559 C565 1.363 . S
C560 C561 1.363 . S
C560 C565 1.379 . S
C560 N567 1.356 . S
C561 C560 1.363 . S
C561 C564 1.363 . S
N562 C564 1.356 . S
N562 H574 0.984 . S
N562 H575 0.985 . S
N563 C565 1.356 1_455 S
N563 H568 0.984 . S
N563 H569 0.985 . S
C564 C558 1.379 . S
C564 C561 1.363 . S
C564 N562 1.356 . S
C565 C559 1.363 . S
C565 C560 1.379 . S
C565 N563 1.356 1_655 S
N566 C558 1.356 . S
N566 H572 0.984 . S
N566 H573 0.984 . S
N567 C560 1.356 . S
N567 H570 0.984 . S
N567 H571 0.985 . S
H568 N563 0.984 . S
H569 N563 0.985 . S
H570 N567 0.984 . S
H571 N567 0.985 . S
H572 N566 0.984 . S
H573 N566 0.984 . S
H574 N562 0.984 . S
H575 N562 0.985 . S
C576 C577 1.363 . S
C576 C582 1.379 . S
C576 N584 1.356 . S
C577 C576 1.363 . S
C577 C583 1.363 . S
C578 C579 1.363 . S
C578 C583 1.379 . S
C578 N585 1.356 . S
C579 C578 1.363 . S
C579 C582 1.363 . S
N580 C582 1.356 . S
N580 H592 0.984 . S
N580 H593 0.985 . S
N581 C583 1.356 . S
N581 H586 0.984 . S
N581 H587 0.985 . S
C582 C576 1.379 . S
C582 C579 1.363 . S
C582 N580 1.356 . S
C583 C577 1.363 . S
C583 C578 1.379 . S
C583 N581 1.356 . S
N584 C576 1.356 . S
N584 H590 0.984 . S
N584 H591 0.984 . S
N585 C578 1.356 . S
N585 H588 0.984 . S
N585 H589 0.985 . S
H586 N581 0.984 . S
H587 N581 0.985 . S
H588 N585 0.984 . S
H589 N585 0.985 . S
H590 N584 0.984 . S
H591 N584 0.984 . S
H592 N580 0.984 . S
H593 N580 0.985 . S
C594 C595 1.363 . S
C594 C600 1.379 . S
C594 N602 1.356 . S
C595 C594 1.363 . S
C595 C601 1.363 . S
C596 C597 1.363 . S
C596 C601 1.379 . S
C596 N603 1.356 . S
C597 C596 1.363 . S
C597 C600 1.363 . S
N598 C600 1.356 . S
N598 H610 0.984 . S
N598 H611 0.985 . S
N599 C601 1.356 . S
N599 H604 0.984 . S
N599 H605 0.985 . S
C600 C594 1.379 . S
C600 C597 1.363 . S
C600 N598 1.356 . S
C601 C595 1.363 . S
C601 C596 1.379 . S
C601 N599 1.356 . S
N602 C594 1.356 . S
N602 H608 0.984 . S
N602 H609 0.984 . S
N603 C596 1.356 . S
N603 H606 0.984 . S
N603 H607 0.985 . S
H604 N599 0.984 . S
H605 N599 0.985 . S
H606 N603 0.984 . S
H607 N603 0.985 . S
H608 N602 0.984 . S
H609 N602 0.984 . S
H610 N598 0.984 . S
H611 N598 0.985 . S
C612 C613 1.363 . S
C612 C618 1.379 . S
C612 N620 1.356 . S
C613 C612 1.363 . S
C613 C619 1.363 . S
C614 C615 1.363 . S
C614 C619 1.379 . S
C614 N621 1.356 . S
C615 C614 1.363 . S
C615 C618 1.363 . S
N616 C618 1.356 . S
N616 H628 0.984 . S
N616 H629 0.985 . S
N617 C619 1.356 . S
N617 H622 0.984 . S
N617 H623 0.985 . S
C618 C612 1.379 . S
C618 C615 1.363 . S
C618 N616 1.356 . S
C619 C613 1.363 . S
C619 C614 1.379 . S
C619 N617 1.356 . S
N620 C612 1.356 . S
N620 H626 0.984 . S
N620 H627 0.984 . S
N621 C614 1.356 . S
N621 H624 0.984 . S
N621 H625 0.985 . S
H622 N617 0.984 . S
H623 N617 0.985 . S
H624 N621 0.984 . S
H625 N621 0.985 . S
H626 N620 0.984 . S
H627 N620 0.984 . S
H628 N616 0.984 . S
H629 N616 0.985 . S
C630 C631 1.363 . S
C630 C636 1.379 . S
C630 N638 1.356 . S
C631 C630 1.363 . S
C631 C637 1.363 . S
C632 C633 1.363 . S
C632 C637 1.379 . S
C632 N639 1.356 . S
C633 C632 1.363 . S
C633 C636 1.363 . S
N634 C636 1.356 . S
N634 H646 0.984 . S
N634 H647 0.985 . S
N635 C637 1.356 . S
N635 H640 0.984 . S
N635 H641 0.985 . S
C636 C630 1.379 . S
C636 C633 1.363 . S
C636 N634 1.356 . S
C637 C631 1.363 . S
C637 C632 1.379 . S
C637 N635 1.356 . S
N638 C630 1.356 . S
N638 H644 0.984 . S
N638 H645 0.984 . S
N639 C632 1.356 . S
N639 H642 0.984 . S
N639 H643 0.985 . S
H640 N635 0.984 . S
H641 N635 0.985 . S
H642 N639 0.984 . S
H643 N639 0.985 . S
H644 N638 0.984 . S
H645 N638 0.984 . S
H646 N634 0.984 . S
H647 N634 0.985 . S
C648 C649 1.363 . S
C648 C654 1.379 . S
C648 N656 1.356 . S
C649 C648 1.363 . S
C649 C655 1.363 . S
C650 C651 1.363 . S
C650 C655 1.379 . S
C650 N657 1.356 . S
C651 C650 1.363 . S
C651 C654 1.363 . S
N652 C654 1.356 . S
N652 H664 0.984 . S
N652 H665 0.985 . S
N653 C655 1.356 . S
N653 H658 0.984 . S
N653 H659 0.985 . S
C654 C648 1.379 . S
C654 C651 1.363 . S
C654 N652 1.356 . S
C655 C649 1.363 . S
C655 C650 1.379 . S
C655 N653 1.356 . S
N656 C648 1.356 . S
N656 H662 0.984 . S
N656 H663 0.984 . S
N657 C650 1.356 . S
N657 H660 0.984 . S
N657 H661 0.985 . S
H658 N653 0.984 . S
H659 N653 0.985 . S
H660 N657 0.984 . S
H661 N657 0.985 . S
H662 N656 0.984 . S
H663 N656 0.984 . S
H664 N652 0.984 . S
H665 N652 0.985 . S
C666 C667 1.363 . S
C666 C672 1.379 . S
C666 N674 1.356 . S
C667 C666 1.363 . S
C667 C673 1.363 . S
C668 C669 1.363 . S
C668 C673 1.379 . S
C668 N675 1.356 . S
C669 C668 1.363 . S
C669 C672 1.363 . S
N670 C672 1.356 . S
N670 H682 0.984 . S
N670 H683 0.985 . S
N671 C673 1.356 . S
N671 H676 0.984 . S
N671 H677 0.985 . S
C672 C666 1.379 . S
C672 C669 1.363 . S
C672 N670 1.356 . S
C673 C667 1.363 . S
C673 C668 1.379 . S
C673 N671 1.356 . S
N674 C666 1.356 . S
N674 H680 0.984 . S
N674 H681 0.984 . S
N675 C668 1.356 . S
N675 H678 0.984 . S
N675 H679 0.985 . S
H676 N671 0.984 . S
H677 N671 0.985 . S
H678 N675 0.984 . S
H679 N675 0.985 . S
H680 N674 0.984 . S
H681 N674 0.984 . S
H682 N670 0.984 . S
H683 N670 0.985 . S
C684 C685 1.363 1_545 S
C684 C690 1.379 . S
C684 N692 1.356 1_545 S
C685 C684 1.363 1_565 S
C685 C691 1.363 1_556 S
C686 C687 1.363 1_565 S
C686 C691 1.379 . S
C686 N693 1.356 1_565 S
C687 C686 1.363 1_545 S
C687 C690 1.363 1_554 S
N688 C690 1.356 . S
N688 H700 0.984 . S
N688 H701 0.985 . S
N689 C691 1.356 . S
N689 H694 0.984 . S
N689 H695 0.985 . S
C690 C684 1.379 . S
C690 C687 1.363 1_556 S
C690 N688 1.356 . S
C691 C685 1.363 1_554 S
C691 C686 1.379 . S
C691 N689 1.356 . S
N692 C684 1.356 1_565 S
N692 H698 0.984 1_565 S
N692 H699 0.984 . S
N693 C686 1.356 1_545 S
N693 H696 0.984 . S
N693 H697 0.985 1_545 S
H694 N689 0.984 . S
H695 N689 0.985 . S
H696 N693 0.984 . S
H697 N693 0.985 1_565 S
H698 N692 0.984 1_545 S
H699 N692 0.984 . S
H700 N688 0.984 . S
H701 N688 0.985 . S
C702 C703 1.363 . S
C702 C708 1.379 . S
C702 N710 1.356 . S
C703 C702 1.363 . S
C703 C709 1.363 . S
C704 C705 1.363 . S
C704 C709 1.379 . S
C704 N711 1.356 . S
C705 C704 1.363 . S
C705 C708 1.363 . S
N706 C708 1.356 . S
N706 H718 0.984 . S
N706 H719 0.985 . S
N707 C709 1.356 . S
N707 H712 0.984 . S
N707 H713 0.985 . S
C708 C702 1.379 . S
C708 C705 1.363 . S
C708 N706 1.356 . S
C709 C703 1.363 . S
C709 C704 1.379 . S
C709 N707 1.356 . S
N710 C702 1.356 . S
N710 H716 0.984 . S
N710 H717 0.984 . S
N711 C704 1.356 . S
N711 H714 0.984 . S
N711 H715 0.985 . S
H712 N707 0.984 . S
H713 N707 0.985 . S
H714 N711 0.984 . S
H715 N711 0.985 . S
H716 N710 0.984 . S
H717 N710 0.984 . S
H718 N706 0.984 . S
H719 N706 0.985 . S
C720 C721 1.362 1_554 S
C720 C726 1.380 1_455 S
C720 N728 1.356 1_554 S
C721 C720 1.362 1_556 S
C721 C727 1.363 . S
C722 C723 1.362 1_556 S
C722 C727 1.380 1_655 S
C722 N729 1.356 1_556 S
C723 C722 1.362 1_554 S
C723 C726 1.363 . S
N724 C726 1.356 . S
N724 H736 0.984 . S
N724 H737 0.985 . S
N725 C727 1.356 . S
N725 H730 0.984 . S
N725 H731 0.985 . S
C726 C720 1.380 1_655 S
C726 C723 1.363 . S
C726 N724 1.356 . S
C727 C721 1.363 . S
C727 C722 1.380 1_455 S
C727 N725 1.356 . S
N728 C720 1.356 1_556 S
N728 H734 0.984 1_556 S
N728 H735 0.984 . S
N729 C722 1.356 1_554 S
N729 H732 0.984 . S
N729 H733 0.985 1_554 S
H730 N725 0.984 . S
H731 N725 0.985 . S
H732 N729 0.984 . S
H733 N729 0.985 1_556 S
H734 N728 0.984 1_554 S
H735 N728 0.984 . S
H736 N724 0.984 . S
H737 N724 0.985 . S
C738 C739 1.363 . S
C738 C744 1.379 1_545 S
C738 N746 1.356 . S
C739 C738 1.363 . S
C739 C745 1.363 . S
C740 C741 1.363 . S
C740 C745 1.379 1_565 S
C740 N747 1.356 . S
C741 C740 1.363 . S
C741 C744 1.363 . S
N742 C744 1.356 . S
N742 H754 0.984 1_565 S
N742 H755 0.985 . S
N743 C745 1.356 . S
N743 H748 0.984 . S
N743 H749 0.985 1_545 S
C744 C738 1.379 1_565 S
C744 C741 1.363 . S
C744 N742 1.356 . S
C745 C739 1.363 . S
C745 C740 1.379 1_545 S
C745 N743 1.356 . S
N746 C738 1.356 . S
N746 H752 0.984 . S
N746 H753 0.984 . S
N747 C740 1.356 . S
N747 H750 0.984 . S
N747 H751 0.985 . S
H748 N743 0.984 . S
H749 N743 0.985 1_565 S
H750 N747 0.984 . S
H751 N747 0.985 . S
H752 N746 0.984 . S
H753 N746 0.984 . S
H754 N742 0.984 1_545 S
H755 N742 0.985 . S
C756 C757 1.363 . S
C756 C762 1.379 . S
C756 N764 1.356 . S
C757 C756 1.363 . S
C757 C763 1.363 1_554 S
C758 C759 1.363 . S
C758 C763 1.379 . S
C758 N765 1.356 . S
C759 C758 1.363 . S
C759 C762 1.363 1_556 S
N760 C762 1.356 . S
N760 H772 0.984 . S
N760 H773 0.985 . S
N761 C763 1.356 . S
N761 H766 0.984 . S
N761 H767 0.985 . S
C762 C756 1.379 . S
C762 C759 1.363 1_554 S
C762 N760 1.356 . S
C763 C757 1.363 1_556 S
C763 C758 1.379 . S
C763 N761 1.356 . S
N764 C756 1.356 . S
N764 H770 0.984 . S
N764 H771 0.984 . S
N765 C758 1.356 . S
N765 H768 0.984 . S
N765 H769 0.985 . S
H766 N761 0.984 . S
H767 N761 0.985 . S
H768 N765 0.984 . S
H769 N765 0.985 . S
H770 N764 0.984 . S
H771 N764 0.984 . S
H772 N760 0.984 . S
H773 N760 0.985 . S
C774 C775 1.363 . S
C774 C780 1.379 1_455 S
C774 N782 1.356 . S
C775 C774 1.363 . S
C775 C781 1.363 . S
C776 C777 1.363 . S
C776 C781 1.379 1_655 S
C776 N783 1.356 . S
C777 C776 1.363 . S
C777 C780 1.363 . S
N778 C780 1.356 . S
N778 H790 0.984 . S
N778 H791 0.985 . S
N779 C781 1.356 . S
N779 H784 0.984 . S
N779 H785 0.985 . S
C780 C774 1.379 1_655 S
C780 C777 1.363 . S
C780 N778 1.356 . S
C781 C775 1.363 . S
C781 C776 1.379 1_455 S
C781 N779 1.356 . S
N782 C774 1.356 . S
N782 H788 0.984 . S
N782 H789 0.984 . S
N783 C776 1.356 . S
N783 H786 0.984 . S
N783 H787 0.985 . S
H784 N779 0.984 . S
H785 N779 0.985 . S
H786 N783 0.984 . S
H787 N783 0.985 . S
H788 N782 0.984 . S
H789 N782 0.984 . S
H790 N778 0.984 . S
H791 N778 0.985 . S
C792 C793 1.363 . S
C792 C798 1.379 . S
C792 N800 1.356 . S
C793 C792 1.363 . S
C793 C799 1.363 . S
C794 C795 1.363 . S
C794 C799 1.379 . S
C794 N801 1.356 . S
C795 C794 1.363 . S
C795 C798 1.363 . S
N796 C798 1.356 . S
N796 H808 0.984 . S
N796 H809 0.985 . S
N797 C799 1.356 . S
N797 H802 0.984 . S
N797 H803 0.985 . S
C798 C792 1.379 . S
C798 C795 1.363 . S
C798 N796 1.356 . S
C799 C793 1.363 . S
C799 C794 1.379 . S
C799 N797 1.356 . S
N800 C792 1.356 . S
N800 H806 0.984 . S
N800 H807 0.984 . S
N801 C794 1.356 . S
N801 H804 0.984 . S
N801 H805 0.985 . S
H802 N797 0.984 . S
H803 N797 0.985 . S
H804 N801 0.984 . S
H805 N801 0.985 . S
H806 N800 0.984 . S
H807 N800 0.984 . S
H808 N796 0.984 . S
H809 N796 0.985 . S
C810 C811 1.363 . S
C810 C816 1.379 . S
C810 N818 1.356 . S
C811 C810 1.363 . S
C811 C817 1.363 . S
C812 C813 1.363 . S
C812 C817 1.379 . S
C812 N819 1.356 . S
C813 C812 1.363 . S
C813 C816 1.363 . S
N814 C816 1.356 . S
N814 H826 0.984 . S
N814 H827 0.985 . S
N815 C817 1.356 . S
N815 H820 0.984 . S
N815 H821 0.985 . S
C816 C810 1.379 . S
C816 C813 1.363 . S
C816 N814 1.356 . S
C817 C811 1.363 . S
C817 C812 1.379 . S
C817 N815 1.356 . S
N818 C810 1.356 . S
N818 H824 0.984 . S
N818 H825 0.984 . S
N819 C812 1.356 . S
N819 H822 0.984 . S
N819 H823 0.985 . S
H820 N815 0.984 . S
H821 N815 0.985 . S
H822 N819 0.984 . S
H823 N819 0.985 . S
H824 N818 0.984 . S
H825 N818 0.984 . S
H826 N814 0.984 . S
H827 N814 0.985 . S
C828 C829 1.363 . S
C828 C834 1.379 . S
C828 N836 1.356 . S
C829 C828 1.363 . S
C829 C835 1.363 . S
C830 C831 1.363 . S
C830 C835 1.379 . S
C830 N837 1.356 . S
C831 C830 1.363 . S
C831 C834 1.363 . S
N832 C834 1.356 . S
N832 H844 0.984 . S
N832 H845 0.985 . S
N833 C835 1.356 . S
N833 H838 0.984 . S
N833 H839 0.985 . S
C834 C828 1.379 . S
C834 C831 1.363 . S
C834 N832 1.356 . S
C835 C829 1.363 . S
C835 C830 1.379 . S
C835 N833 1.356 . S
N836 C828 1.356 . S
N836 H842 0.984 . S
N836 H843 0.984 . S
N837 C830 1.356 . S
N837 H840 0.984 . S
N837 H841 0.985 . S
H838 N833 0.984 . S
H839 N833 0.985 . S
H840 N837 0.984 . S
H841 N837 0.985 . S
H842 N836 0.984 . S
H843 N836 0.984 . S
H844 N832 0.984 . S
H845 N832 0.985 . S
C846 C847 1.363 . S
C846 C852 1.379 . S
C846 N854 1.356 . S
C847 C846 1.363 . S
C847 C853 1.363 . S
C848 C849 1.363 . S
C848 C853 1.379 . S
C848 N855 1.356 . S
C849 C848 1.363 . S
C849 C852 1.363 . S
N850 C852 1.356 . S
N850 H862 0.984 . S
N850 H863 0.985 . S
N851 C853 1.356 . S
N851 H856 0.984 . S
N851 H857 0.985 . S
C852 C846 1.379 . S
C852 C849 1.363 . S
C852 N850 1.356 . S
C853 C847 1.363 . S
C853 C848 1.379 . S
C853 N851 1.356 . S
N854 C846 1.356 . S
N854 H860 0.984 . S
N854 H861 0.984 . S
N855 C848 1.356 . S
N855 H858 0.984 . S
N855 H859 0.985 . S
H856 N851 0.984 . S
H857 N851 0.985 . S
H858 N855 0.984 . S
H859 N855 0.985 . S
H860 N854 0.984 . S
H861 N854 0.984 . S
H862 N850 0.984 . S
H863 N850 0.985 . S
C864 C865 1.363 . S
C864 C870 1.379 . S
C864 N872 1.356 . S
C865 C864 1.363 . S
C865 C871 1.363 . S
C866 C867 1.363 . S
C866 C871 1.379 . S
C866 N873 1.356 . S
C867 C866 1.363 . S
C867 C870 1.363 . S
N868 C870 1.356 . S
N868 H880 0.984 . S
N868 H881 0.985 . S
N869 C871 1.356 . S
N869 H874 0.984 . S
N869 H875 0.985 . S
C870 C864 1.379 . S
C870 C867 1.363 . S
C870 N868 1.356 . S
C871 C865 1.363 . S
C871 C866 1.379 . S
C871 N869 1.356 . S
N872 C864 1.356 . S
N872 H878 0.984 . S
N872 H879 0.984 . S
N873 C866 1.356 . S
N873 H876 0.984 . S
N873 H877 0.985 . S
H874 N869 0.984 . S
H875 N869 0.985 . S
H876 N873 0.984 . S
H877 N873 0.985 . S
H878 N872 0.984 . S
H879 N872 0.984 . S
H880 N868 0.984 . S
H881 N868 0.985 . S
C882 C883 1.363 . S
C882 C888 1.379 . S
C882 N890 1.356 . S
C883 C882 1.363 . S
C883 C889 1.363 . S
C884 C885 1.363 . S
C884 C889 1.379 . S
C884 N891 1.356 . S
C885 C884 1.363 . S
C885 C888 1.363 . S
N886 C888 1.356 . S
N886 H898 0.984 . S
N886 H899 0.985 . S
N887 C889 1.356 . S
N887 H892 0.984 . S
N887 H893 0.985 . S
C888 C882 1.379 . S
C888 C885 1.363 . S
C888 N886 1.356 . S
C889 C883 1.363 . S
C889 C884 1.379 . S
C889 N887 1.356 . S
N890 C882 1.356 . S
N890 H896 0.984 . S
N890 H897 0.984 . S
N891 C884 1.356 . S
N891 H894 0.984 . S
N891 H895 0.985 . S
H892 N887 0.984 . S
H893 N887 0.985 . S
H894 N891 0.984 . S
H895 N891 0.985 . S
H896 N890 0.984 . S
H897 N890 0.984 . S
H898 N886 0.984 . S
H899 N886 0.985 . S
C900 C901 1.363 . S
C900 C906 1.379 . S
C900 N908 1.356 . S
C901 C900 1.363 . S
C901 C907 1.363 . S
C902 C903 1.363 . S
C902 C907 1.379 . S
C902 N909 1.356 . S
C903 C902 1.363 . S
C903 C906 1.363 . S
N904 C906 1.356 . S
N904 H916 0.984 . S
N904 H917 0.985 . S
N905 C907 1.356 . S
N905 H910 0.984 . S
N905 H911 0.985 . S
C906 C900 1.379 . S
C906 C903 1.363 . S
C906 N904 1.356 . S
C907 C901 1.363 . S
C907 C902 1.379 . S
C907 N905 1.356 . S
N908 C900 1.356 . S
N908 H914 0.984 . S
N908 H915 0.984 . S
N909 C902 1.356 . S
N909 H912 0.984 . S
N909 H913 0.985 . S
H910 N905 0.984 . S
H911 N905 0.985 . S
H912 N909 0.984 . S
H913 N909 0.985 . S
H914 N908 0.984 . S
H915 N908 0.984 . S
H916 N904 0.984 . S
H917 N904 0.985 . S
C918 C919 1.363 . S
C918 C924 1.379 . S
C918 N926 1.356 . S
C919 C918 1.363 . S
C919 C925 1.363 . S
C920 C921 1.363 . S
C920 C925 1.379 . S
C920 N927 1.356 . S
C921 C920 1.363 . S
C921 C924 1.363 . S
N922 C924 1.356 . S
N922 H934 0.984 . S
N922 H935 0.985 . S
N923 C925 1.356 . S
N923 H928 0.984 . S
N923 H929 0.985 . S
C924 C918 1.379 . S
C924 C921 1.363 . S
C924 N922 1.356 . S
C925 C919 1.363 . S
C925 C920 1.379 . S
C925 N923 1.356 . S
N926 C918 1.356 . S
N926 H932 0.984 1_565 S
N926 H933 0.984 . S
N927 C920 1.356 . S
N927 H930 0.984 . S
N927 H931 0.985 . S
H928 N923 0.984 . S
H929 N923 0.985 . S
H930 N927 0.984 . S
H931 N927 0.985 . S
H932 N926 0.984 1_545 S
H933 N926 0.984 . S
H934 N922 0.984 . S
H935 N922 0.985 . S
C936 C937 1.363 . S
C936 C942 1.379 . S
C936 N944 1.356 . S
C937 C936 1.363 . S
C937 C943 1.363 . S
C938 C939 1.363 . S
C938 C943 1.379 . S
C938 N945 1.356 . S
C939 C938 1.363 . S
C939 C942 1.363 . S
N940 C942 1.356 . S
N940 H952 0.984 . S
N940 H953 0.985 . S
N941 C943 1.356 . S
N941 H946 0.984 . S
N941 H947 0.985 . S
C942 C936 1.379 . S
C942 C939 1.363 . S
C942 N940 1.356 . S
C943 C937 1.363 . S
C943 C938 1.379 . S
C943 N941 1.356 . S
N944 C936 1.356 . S
N944 H950 0.984 . S
N944 H951 0.984 . S
N945 C938 1.356 . S
N945 H948 0.984 . S
N945 H949 0.985 . S
H946 N941 0.984 . S
H947 N941 0.985 . S
H948 N945 0.984 . S
H949 N945 0.985 . S
H950 N944 0.984 . S
H951 N944 0.984 . S
H952 N940 0.984 . S
H953 N940 0.985 . S
C954 C955 1.363 . S
C954 C960 1.379 . S
C954 N962 1.356 . S
C955 C954 1.363 . S
C955 C961 1.363 . S
C956 C957 1.363 . S
C956 C961 1.379 . S
C956 N963 1.356 . S
C957 C956 1.363 . S
C957 C960 1.363 . S
N958 C960 1.356 . S
N958 H970 0.984 . S
N958 H971 0.985 . S
N959 C961 1.356 . S
N959 H964 0.984 . S
N959 H965 0.985 . S
C960 C954 1.379 . S
C960 C957 1.363 . S
C960 N958 1.356 . S
C961 C955 1.363 . S
C961 C956 1.379 . S
C961 N959 1.356 . S
N962 C954 1.356 . S
N962 H968 0.984 . S
N962 H969 0.984 . S
N963 C956 1.356 . S
N963 H966 0.984 . S
N963 H967 0.985 . S
H964 N959 0.984 . S
H965 N959 0.985 . S
H966 N963 0.984 . S
H967 N963 0.985 . S
H968 N962 0.984 . S
H969 N962 0.984 . S
H970 N958 0.984 . S
H971 N958 0.985 . S
C972 C973 1.363 . S
C972 C978 1.379 . S
C972 N980 1.356 . S
C973 C972 1.363 . S
C973 C979 1.363 . S
C974 C975 1.363 . S
C974 C979 1.379 . S
C974 N981 1.356 . S
C975 C974 1.363 . S
C975 C978 1.363 . S
N976 C978 1.356 . S
N976 H988 0.984 . S
N976 H989 0.985 . S
N977 C979 1.356 . S
N977 H982 0.984 . S
N977 H983 0.985 . S
C978 C972 1.379 . S
C978 C975 1.363 . S
C978 N976 1.356 . S
C979 C973 1.363 . S
C979 C974 1.379 . S
C979 N977 1.356 . S
N980 C972 1.356 . S
N980 H986 0.984 . S
N980 H987 0.984 . S
N981 C974 1.356 . S
N981 H984 0.984 . S
N981 H985 0.985 . S
H982 N977 0.984 . S
H983 N977 0.985 . S
H984 N981 0.984 . S
H985 N981 0.985 . S
H986 N980 0.984 . S
H987 N980 0.984 . S
H988 N976 0.984 . S
H989 N976 0.985 . S
C990 C991 1.363 . S
C990 C996 1.379 . S
C990 N998 1.356 . S
C991 C990 1.363 . S
C991 C997 1.363 . S
C992 C993 1.363 . S
C992 C997 1.379 . S
C992 N999 1.356 . S
C993 C992 1.363 . S
C993 C996 1.363 . S
N994 C996 1.356 . S
N994 H1006 0.984 . S
N994 H1007 0.985 . S
N995 C997 1.356 . S
N995 H1000 0.984 . S
N995 H1001 0.985 . S
C996 C990 1.379 . S
C996 C993 1.363 . S
C996 N994 1.356 . S
C997 C991 1.363 . S
C997 C992 1.379 . S
C997 N995 1.356 . S
N998 C990 1.356 . S
N998 H1004 0.984 . S
N998 H1005 0.984 . S
N999 C992 1.356 . S
N999 H1002 0.984 . S
N999 H1003 0.985 . S
H1000 N995 0.984 . S
H1001 N995 0.985 . S
H1002 N999 0.984 . S
H1003 N999 0.985 . S
H1004 N998 0.984 . S
H1005 N998 0.984 . S
H1006 N994 0.984 . S
H1007 N994 0.985 . S
C361 C76 1.004 1_455 S
C363 N6 0.982 . S
C379 N96 1.221 . S
C381 C46 1.226 . S
C397 N66 0.982 . S
C399 C136 1.004 . S
C415 C106 1.226 . S
C417 N156 1.221 . S
C433 C16 1.004 1_565 S
C435 N126 0.982 . S
C451 N36 1.221 . S
C453 C166 1.226 . S
C469 C327 1.003 1_545 S
C471 N194 0.982 . S
C487 N216 0.982 . S
C489 C346 1.003 . S
C505 N254 0.982 . S
C507 C207 1.003 1_655 S
C523 N276 0.982 . S
C525 C226 1.004 1_545 S
C541 N314 0.982 . S
C543 C267 1.003 . S
C559 C286 1.004 1_655 S
C561 N336 0.982 . S
C577 C91 1.666 . S
C579 C1 1.649 . S
C595 C31 1.666 . S
C597 C121 1.649 . S
C613 C61 1.649 . S
C615 C151 1.666 . S
C631 C190 1.650 . S
C633 C271 1.650 . S
C649 C211 1.650 . S
C651 C310 1.650 . S
C667 C250 1.650 . S
C669 C331 1.650 . S
C685 C220 2.045 . S
C687 C10 2.045 . S
C703 C40 1.950 . S
C705 C241 2.046 . S
C721 C280 2.045 . S
C723 C70 2.045 . S
C739 C100 1.950 . S
C741 C301 2.046 . S
C757 C130 2.045 . S
C759 C340 2.045 . S
C775 C181 2.046 . S
C777 C160 1.949 . S
C793 C87 1.438 . S
C795 N14 1.389 . S
C811 C57 1.270 . S
C813 N104 1.299 . S
C829 N74 1.389 . S
C831 C147 1.438 . S
C847 C117 1.270 . S
C849 N164 1.299 . S
C865 C27 1.439 . S
C867 N134 1.389 . S
C883 N44 1.299 . S
C885 C177 1.270 . S
C901 C316 1.439 . S
C903 N186 1.389 . S
C919 N224 1.388 . S
C921 C357 1.438 . S
C937 N246 1.389 . S
C939 C196 1.439 . S
C955 C237 1.438 . S
C957 N284 1.388 . S
C973 N306 1.389 . S
C975 C256 1.439 . S
C991 N344 1.388 . S
C993 C297 1.438 . S
