# Generated by pormake.
# Topology qtz-x, (6)-cn, num edge types: 1
# Building blocks:
#     Node 0, Type 0, BuildingBlock: UKALOJ_clean_sbu_0, # of connection points: 6
#     Node 1, Type 0, BuildingBlock: UKALOJ_clean_sbu_0, # of connection points: 6
#     Node 2, Type 0, BuildingBlock: UKALOJ_clean_sbu_0, # of connection points: 6
#     Edge 3, Type (0, 0), BuildingBlock: FUNLAD_clean_linker_0, # of connection points: 2
#     Edge 4, Type (0, 0), BuildingBlock: FUNLAD_clean_linker_0, # of connection points: 2
#     Edge 5, Type (0, 0), BuildingBlock: FUNLAD_clean_linker_0, # of connection points: 2
#     Edge 6, Type (0, 0), BuildingBlock: FUNLAD_clean_linker_0, # of connection points: 2
#     Edge 7, Type (0, 0), BuildingBlock: FUNLAD_clean_linker_0, # of connection points: 2
#     Edge 8, Type (0, 0), BuildingBlock: FUNLAD_clean_linker_0, # of connection points: 2
#     Edge 9, Type (0, 0), BuildingBlock: FUNLAD_clean_linker_0, # of connection points: 2
#     Edge 10, Type (0, 0), BuildingBlock: FUNLAD_clean_linker_0, # of connection points: 2
#     Edge 11, Type (0, 0), BuildingBlock: FUNLAD_clean_linker_0, # of connection points: 2
# Relax obj value: 0.281
# Max RMSD: 0.252
# Mean RMSD: 0.250
data_MOF--net-qtz-x--node1-UKALOJ_clean_sbu_0--edge1-FUNLAD_clean_linker_0
_symmetry_space_group_name_H-M    P1
_symmetry_Int_Tables_number       1
_symmetry_cell_setting            triclinic
loop_
_symmetry_equiv_pos_as_xyz
'x, y, z'
_cell_length_a     22.564703
_cell_length_b     22.436614
_cell_length_c     38.761373
_cell_angle_alpha  93.798873
_cell_angle_beta   94.016201
_cell_angle_gamma 120.1218
loop_
_atom_site_label
_atom_site_type_symbol
_atom_site_fract_x
_atom_site_fract_y
_atom_site_fract_z
_atom_type_partial_charge
Zn0 Zn -0.00158 0.52989 0.1866 0.0
O1 O 0.06197 0.57841 0.14648 0.0
C2 C 0.88454 0.44208 0.13111 0.0
Zn3 Zn -0.00163 0.43325 0.17142 0.0
C4 C 0.08562 0.54546 0.13007 0.0
O5 O 0.06816 0.48433 0.13618 0.0
C6 C 0.91298 0.41528 0.22854 0.0
O7 O 0.08417 0.46368 0.21056 0.0
O8 O 0.08814 0.56303 0.22074 0.0
N9 N -0.0033 0.34446 0.155 0.0
C10 C 0.00977 0.30127 0.17217 0.0
C11 C 0.98191 0.25988 0.11857 0.0
N12 N 0.97948 0.31872 0.12171 0.0
N13 N 0.00126 0.24809 0.14983 0.0
C14 C 0.9854 0.66122 0.18643 0.0
C15 C 0.01782 0.7044 0.2397 0.0
N16 N 0.00034 0.6188 0.20318 0.0
N17 N 0.02031 0.64562 0.23626 0.0
N18 N -0.0044 0.71507 0.20885 0.0
H19 H 0.9872 0.7031 0.13776 0.0
H20 H 0.90761 0.62614 0.14294 0.0
H21 H 0.98088 0.61945 0.13365 0.0
C22 C 0.96461 0.65202 0.14795 0.0
C23 C 0.02702 0.30911 0.21092 0.0
H24 H 0.00636 0.33827 0.22459 0.0
H25 H 0.08395 0.33813 0.21742 0.0
H26 H 0.00602 0.25761 0.22054 0.0
O27 O 0.92921 0.38243 0.20696 0.0
O28 O 0.93572 0.47954 0.2268 0.0
C29 C 0.11307 0.5246 0.22665 0.0
O30 O 0.90911 0.4968 0.15231 0.0
O31 O 0.91277 0.40522 0.13227 0.0
Zn32 Zn 0.58923 0.02147 0.5234 0.0
O33 O 0.56071 0.9405 0.4819 0.0
C34 C 0.60457 0.11595 0.47087 0.0
Zn35 Zn 0.49222 0.02166 0.51163 0.0
C36 C 0.49989 0.9125 0.46619 0.0
O37 O 0.46124 0.93595 0.47417 0.0
C38 C 0.57905 0.12944 0.56939 0.0
O39 O 0.44468 0.95109 0.54921 0.0
O40 O 0.53913 0.94581 0.55677 0.0
N41 N 0.4031 0.0192 0.49643 0.0
C42 C 0.36018 0.0316 0.51393 0.0
C43 C 0.31852 0.00469 0.46036 0.0
N44 N 0.37721 0.00262 0.46318 0.0
N45 N 0.30688 0.02315 0.4918 0.0
C46 C 0.7224 0.01381 0.52078 0.0
C47 C 0.76163 0.03549 0.57462 0.0
N48 N 0.6782 0.02355 0.53856 0.0
N49 N 0.70261 0.03696 0.57197 0.0
N50 N 0.77497 0.02068 0.54289 0.0
H51 H 0.68715 0.94461 0.4736 0.0
H52 H 0.76753 0.02409 0.47262 0.0
H53 H 0.68718 0.02373 0.46932 0.0
C54 C 0.7159 0.00134 0.48184 0.0
C55 C 0.36877 0.04837 0.55271 0.0
H56 H 0.39889 0.02815 0.56595 0.0
H57 H 0.31779 0.02635 0.56262 0.0
H58 H 0.39703 0.10555 0.55935 0.0
O59 O 0.52347 0.10713 0.5493 0.0
O60 O 0.61579 0.10189 0.56501 0.0
C61 C 0.47818 0.92579 0.56361 0.0
O62 O 0.63891 0.0969 0.48973 0.0
O63 O 0.54097 0.09149 0.47402 0.0
Zn64 Zn 0.50897 0.56931 0.85393 0.0
O65 O 0.56673 0.54385 0.81982 0.0
C66 C 0.42336 0.56588 0.79217 0.0
Zn67 Zn 0.41803 0.4633 0.84002 0.0
C68 C 0.53822 0.48207 0.80478 0.0
O69 O 0.47696 0.43834 0.80956 0.0
C70 C 0.38688 0.54856 0.88885 0.0
O71 O 0.44989 0.42673 0.88341 0.0
O72 O 0.54032 0.53178 0.89528 0.0
N73 N 0.33528 0.36681 0.82412 0.0
C74 C 0.28196 0.32203 0.84014 0.0
C75 C 0.26909 0.27448 0.78854 0.0
N76 N 0.32714 0.33714 0.79209 0.0
N77 N 0.23953 0.26382 0.81826 0.0
C78 C 0.64449 0.7108 0.85348 0.0
C79 C 0.65879 0.75763 0.90541 0.0
N80 N 0.5918 0.66572 0.86974 0.0
N81 N 0.60079 0.69495 0.90196 0.0
N82 N 0.68741 0.76875 0.87542 0.0
H83 H 0.60043 0.66566 0.80048 0.0
H84 H 0.68237 0.67377 0.81337 0.0
H85 H 0.67831 0.74966 0.80476 0.0
C86 C 0.65155 0.69952 0.81579 0.0
C87 C 0.27374 0.33386 0.87758 0.0
H88 H 0.32428 0.36944 0.89305 0.0
H89 H 0.24814 0.28404 0.88897 0.0
H90 H 0.24118 0.35779 0.87924 0.0
O91 O 0.35889 0.48941 0.87101 0.0
O92 O 0.45002 0.59222 0.8871 0.0
C93 C 0.50578 0.46981 0.90242 0.0
O94 O 0.47637 0.60686 0.81336 0.0
O95 O 0.38909 0.50184 0.79638 0.0
C96 C 0.04076 0.8406 0.21665 0.0
C97 C 0.9891 0.77377 0.20215 0.0
C98 C 0.03574 0.89825 0.20973 0.0
C99 C 0.97865 0.88993 0.18811 0.0
C100 C 0.92577 0.8227 0.17475 0.0
C101 C 0.93094 0.7651 0.18168 0.0
C102 C 0.97159 0.94969 0.17957 0.0
C103 C 0.02588 0.01422 0.17981 0.0
C104 C 0.01865 0.07382 0.1712 0.0
C105 C 0.07048 0.14101 0.18526 0.0
C106 C 0.06507 0.1984 0.17818 0.0
C107 C 0.00779 0.18954 0.15681 0.0
H108 H 0.92281 0.01472 0.13629 0.0
C109 C 0.95722 0.12278 0.14166 0.0
C110 C 0.96242 0.06531 0.14878 0.0
H111 H 0.91324 0.11515 0.12461 0.0
H112 H 0.08546 0.84816 0.23301 0.0
H113 H 0.07624 0.94883 0.22175 0.0
H114 H 0.88061 0.81473 0.15863 0.0
H115 H 0.88923 0.71381 0.17133 0.0
H116 H 0.91969 0.93934 0.17224 0.0
H117 H 0.07783 0.02476 0.18717 0.0
H118 H 0.11496 0.14909 0.20205 0.0
H119 H 0.10589 0.24973 0.18914 0.0
C120 C 0.1827 0.98028 0.48209 0.0
C121 C 0.24848 0.0293 0.49881 0.0
C122 C 0.12552 0.98599 0.48827 0.0
C123 C 0.13318 0.0411 0.51145 0.0
C124 C 0.19942 0.09122 0.52736 0.0
C125 C 0.25661 0.08542 0.5211 0.0
C126 C 0.07387 0.04921 0.51887 0.0
C127 C 0.0083 0.99581 0.51532 0.0
C128 C 0.94903 0.00392 0.52272 0.0
C129 C 0.88304 0.95462 0.5062 0.0
C130 C 0.8258 0.96021 0.51257 0.0
C131 C 0.83361 0.01519 0.53565 0.0
H132 H 0.00586 0.09555 0.56087 0.0
C133 C 0.89913 0.06345 0.55292 0.0
C134 C 0.95643 0.05805 0.54655 0.0
H135 H 0.90588 0.10553 0.5713 0.0
H136 H 0.17562 0.9373 0.46429 0.0
H137 H 0.07596 0.9478 0.47433 0.0
H138 H 0.20695 0.1349 0.54478 0.0
H139 H 0.30722 0.12537 0.53321 0.0
H140 H 0.08532 0.10108 0.52804 0.0
H141 H -0.00329 0.94391 0.50615 0.0
H142 H 0.87576 0.91174 0.48823 0.0
H143 H 0.77534 0.92094 0.49994 0.0
C144 C 0.80044 0.82361 0.85282 0.0
C145 C 0.75037 0.82948 0.86979 0.0
C146 C 0.86285 0.88279 0.84879 0.0
C147 C 0.87633 0.94917 0.86169 0.0
C148 C 0.82649 0.95461 0.87916 0.0
C149 C 0.7642 0.8954 0.8832 0.0
C150 C 0.94239 0.01363 0.85873 0.0
C151 C 0.9844 0.01879 0.83459 0.0
C152 C 0.05046 0.08327 0.83169 0.0
C153 C 0.10078 0.07785 0.81469 0.0
C154 C 0.1631 0.13711 0.81075 0.0
C155 C 0.17645 0.20307 0.82377 0.0
H156 H 0.02508 0.1566 0.85611 0.0
C157 C 0.12586 0.20889 0.84023 0.0
C158 C 0.06344 0.14966 0.84418 0.0
H159 H 0.13372 0.25935 0.84912 0.0
H160 H 0.79216 0.77314 0.84358 0.0
H161 H 0.90078 0.87575 0.83647 0.0
H162 H 0.83571 0.00489 0.8897 0.0
H163 H 0.72658 0.90096 0.89676 0.0
H164 H 0.95607 0.05846 0.8771 0.0
H165 H 0.97083 0.97399 0.81622 0.0
H166 H 0.09193 0.02755 0.80446 0.0
H167 H 0.20112 0.13156 0.79757 0.0
C168 C 0.38067 0.62471 0.9371 0.0
C169 C 0.34712 0.5653 0.91249 0.0
C170 C 0.34401 0.63741 0.96132 0.0
C171 C 0.27296 0.59096 0.96134 0.0
C172 C 0.23885 0.5337 0.93558 0.0
C173 C 0.27556 0.52066 0.91156 0.0
C174 C 0.23363 0.59828 0.98887 0.0
C175 C 0.26244 0.62382 0.02202 0.0
C176 C 0.22039 0.61384 0.05116 0.0
C177 C 0.23965 0.59557 0.0821 0.0
C178 C 0.19674 0.57624 0.10843 0.0
C179 C 0.13496 0.57716 0.10482 0.0
H180 H 0.14446 0.63283 0.02472 0.0
C181 C 0.11768 0.60009 0.07502 0.0
C182 C 0.15988 0.61772 0.04811 0.0
H183 H 0.06991 0.60069 0.07176 0.0
H184 H 0.43563 0.66055 0.93827 0.0
H185 H 0.37159 0.68317 0.98019 0.0
H186 H 0.18405 0.49741 0.93484 0.0
H187 H 0.24798 0.47494 0.89265 0.0
H188 H 0.17793 0.57308 0.98286 0.0
H189 H 0.31691 0.64235 0.02884 0.0
H190 H 0.28613 0.59252 0.08513 0.0
H191 H 0.21081 0.55855 0.13126 0.0
C192 C 0.70606 0.18386 0.43886 0.0
C193 C 0.63795 0.16357 0.44453 0.0
C194 C 0.73661 0.22489 0.41257 0.0
C195 C 0.69972 0.24656 0.39119 0.0
C196 C 0.63279 0.22896 0.39778 0.0
C197 C 0.6019 0.18736 0.42402 0.0
C198 C 0.72999 0.28656 0.36167 0.0
C199 C 0.77135 0.27437 0.34267 0.0
C200 C 0.80228 0.31079 0.31235 0.0
C201 C 0.82171 0.27732 0.28767 0.0
C202 C 0.85554 0.31071 0.26001 0.0
C203 C 0.87181 0.3791 0.2565 0.0
H204 H 0.80385 0.40661 0.32748 0.0
C205 C 0.85152 0.41261 0.28087 0.0
C206 C 0.81687 0.3787 0.30856 0.0
H207 H 0.86359 0.4654 0.27897 0.0
H208 H 0.73564 0.1671 0.45437 0.0
H209 H 0.78915 0.23944 0.40898 0.0
H210 H 0.6036 0.24568 0.38193 0.0
H211 H 0.54953 0.17308 0.4279 0.0
H212 H 0.71422 0.32277 0.35412 0.0
H213 H 0.78077 0.23292 0.34856 0.0
H214 H 0.81138 0.22517 0.29001 0.0
H215 H 0.87043 0.28321 0.24183 0.0
C216 C 0.42602 0.66398 0.76429 0.0
C217 C 0.40443 0.59309 0.7623 0.0
C218 C 0.41574 0.69241 0.73511 0.0
C219 C 0.38427 0.65063 0.70309 0.0
C220 C 0.36091 0.57934 0.70133 0.0
C221 C 0.37003 0.55055 0.73081 0.0
C222 C 0.38401 0.68198 0.67055 0.0
C223 C 0.38278 0.74134 0.66988 0.0
C224 C 0.40051 0.78189 0.63962 0.0
C225 C 0.37335 0.82508 0.63356 0.0
C226 C 0.39614 0.87002 0.60776 0.0
C227 C 0.44796 0.87382 0.58833 0.0
H228 H 0.47406 0.75304 0.62374 0.0
C229 C 0.47413 0.82972 0.59401 0.0
C230 C 0.45051 0.78407 0.6192 0.0
H231 H 0.51403 0.83138 0.57938 0.0
H232 H 0.45268 0.69802 0.78825 0.0
H233 H 0.43606 0.74782 0.73731 0.0
H234 H 0.33726 0.54622 0.67687 0.0
H235 H 0.35329 0.49583 0.7285 0.0
H236 H 0.3885 0.65703 0.64668 0.0
H237 H 0.37159 0.76286 0.69277 0.0
H238 H 0.33541 0.82497 0.64925 0.0
H239 H 0.37533 0.9037 0.60401 0.0
C240 C 0.53141 0.38865 0.93326 0.0
C241 C 0.53016 0.45068 0.93372 0.0
C242 C 0.56222 0.37585 0.9624 0.0
C243 C 0.59034 0.42422 0.99256 0.0
C244 C 0.58568 0.48429 0.99334 0.0
C245 C 0.55701 0.49795 0.96409 0.0
C246 C 0.62654 0.41568 0.02357 0.0
C247 C 0.67048 0.39172 0.02157 0.0
C248 C 0.72023 0.4001 0.05167 0.0
C249 C 0.75243 0.36028 0.05039 0.0
C250 C 0.80436 0.37193 0.07668 0.0
C251 C 0.82562 0.42425 0.10465 0.0
H252 H 0.71986 0.48537 0.08196 0.0
C253 C 0.79242 0.46299 0.10627 0.0
C254 C 0.74089 0.45149 0.08015 0.0
H255 H 0.80736 0.50372 0.12741 0.0
H256 H 0.51104 0.35155 0.91003 0.0
H257 H 0.56413 0.32851 0.96131 0.0
H258 H 0.60664 0.52215 0.0163 0.0
H259 H 0.55628 0.54597 0.96511 0.0
H260 H 0.62242 0.4375 0.04848 0.0
H261 H 0.6737 0.36945 0.9965 0.0
H262 H 0.73829 0.32091 0.02864 0.0
H263 H 0.8291 0.34133 0.07458 0.0
C264 C 0.22359 0.62268 0.2566 0.0
C265 C 0.17404 0.55162 0.25282 0.0
C266 C 0.27562 0.65216 0.28465 0.0
C267 C 0.27863 0.61131 0.30994 0.0
C268 C 0.23078 0.53956 0.30534 0.0
C269 C 0.17943 0.50966 0.27666 0.0
C270 C 0.32327 0.64441 0.34365 0.0
C271 C 0.38316 0.7056 0.34688 0.0
C272 C 0.41511 0.75045 0.38062 0.0
C273 C 0.48643 0.7986 0.38586 0.0
C274 C 0.51541 0.84915 0.41496 0.0
C275 C 0.47297 0.85356 0.43858 0.0
H276 H 0.31824 0.71786 0.40191 0.0
C277 C 0.40216 0.80409 0.43393 0.0
C278 C 0.37359 0.7528 0.40547 0.0
H279 H 0.36832 0.8063 0.45183 0.0
H280 H 0.22048 0.65613 0.23852 0.0
H281 H 0.31031 0.7078 0.28766 0.0
H282 H 0.23146 0.50711 0.32467 0.0
H283 H 0.14142 0.4548 0.27441 0.0
H284 H 0.30305 0.62051 0.36686 0.0
H285 H 0.40681 0.72644 0.32373 0.0
H286 H 0.51936 0.79846 0.36685 0.0
H287 H 0.57013 0.88703 0.41789 0.0
C288 C 0.55755 0.39129 0.77713 0.0
C289 C 0.57262 0.46033 0.78013 0.0
C290 C 0.57831 0.36527 0.7498 0.0
C291 C 0.61396 0.4076 0.72449 0.0
C292 C 0.63156 0.47756 0.7283 0.0
C293 C 0.61189 0.50408 0.75622 0.0
C294 C 0.62442 0.37714 0.69186 0.0
C295 C 0.63196 0.32116 0.69045 0.0
C296 C 0.62546 0.2798 0.65735 0.0
C297 C 0.6583 0.24071 0.65642 0.0
C298 C 0.64566 0.19403 0.62719 0.0
C299 C 0.59852 0.18428 0.59862 0.0
H300 H 0.55271 0.2999 0.62828 0.0
C301 C 0.5668 0.22453 0.59921 0.0
C302 C 0.58035 0.27203 0.62817 0.0
H303 H 0.53019 0.21818 0.5776 0.0
H304 H 0.527 0.35642 0.79517 0.0
H305 H 0.56226 0.31076 0.74738 0.0
H306 H 0.65839 0.51105 0.70898 0.0
H307 H 0.62337 0.55729 0.75776 0.0
H308 H 0.62243 0.39952 0.66809 0.0
H309 H 0.64064 0.30298 0.71454 0.0
H310 H 0.69262 0.24511 0.67871 0.0
H311 H 0.67068 0.16357 0.6276 0.0
loop_
_geom_bond_atom_site_label_1
_geom_bond_atom_site_label_2
_geom_bond_distance
_geom_bond_site_symmetry_2
_ccdc_geom_bond_type
Zn0 O1 2.055 . S
Zn0 O8 2.046 . S
Zn0 N16 2.036 . S
Zn0 O28 2.053 1_455 S
Zn0 O30 2.066 1_455 S
O1 Zn0 2.055 . S
O1 C4 1.259 . S
C2 O30 1.256 . S
C2 O31 1.244 . S
Zn3 O5 2.046 . S
Zn3 O7 2.055 . S
Zn3 N9 2.036 . S
Zn3 O27 2.066 1_455 S
Zn3 O31 2.053 1_455 S
C4 O1 1.259 . S
C4 O5 1.254 . S
O5 Zn3 2.046 . S
O5 C4 1.254 . S
C6 O27 1.256 . S
C6 O28 1.244 . S
O7 Zn3 2.055 . S
O7 C29 1.259 . S
O8 Zn0 2.046 . S
O8 C29 1.254 . S
N9 Zn3 2.036 . S
N9 C10 1.298 . S
N9 N12 1.398 1_455 S
C10 N9 1.298 . S
C10 N13 1.367 1_455 S
C10 C23 1.481 . S
C11 N12 1.299 . S
C11 N13 1.379 . S
N12 N9 1.398 1_655 S
N12 C11 1.299 . S
N13 C10 1.367 1_655 S
N13 C11 1.379 . S
C14 N16 1.298 . S
C14 N18 1.367 1_455 S
C14 C22 1.481 . S
C15 N17 1.299 . S
C15 N18 1.379 . S
N16 Zn0 2.036 . S
N16 C14 1.298 . S
N16 N17 1.398 1_455 S
N17 C15 1.299 . S
N17 N16 1.398 1_655 S
N18 C14 1.367 1_655 S
N18 C15 1.379 . S
H19 C22 0.980 . S
H20 C22 0.981 . S
H21 C22 0.981 1_655 S
C22 C14 1.481 . S
C22 H19 0.980 . S
C22 H20 0.981 . S
C22 H21 0.981 1_455 S
C23 C10 1.481 . S
C23 H24 0.980 . S
C23 H25 0.981 . S
C23 H26 0.981 . S
H24 C23 0.980 . S
H25 C23 0.981 . S
H26 C23 0.981 . S
O27 Zn3 2.066 1_655 S
O27 C6 1.256 . S
O28 Zn0 2.053 1_655 S
O28 C6 1.244 . S
C29 O7 1.259 . S
C29 O8 1.254 . S
O30 Zn0 2.066 1_655 S
O30 C2 1.256 . S
O31 C2 1.244 . S
O31 Zn3 2.053 1_655 S
Zn32 O33 2.055 1_545 S
Zn32 O40 2.046 1_545 S
Zn32 N48 2.036 . S
Zn32 O60 2.053 . S
Zn32 O62 2.066 . S
O33 Zn32 2.055 1_565 S
O33 C36 1.259 . S
C34 O62 1.256 . S
C34 O63 1.244 . S
Zn35 O37 2.046 1_545 S
Zn35 O39 2.055 1_545 S
Zn35 N41 2.036 . S
Zn35 O59 2.066 . S
Zn35 O63 2.053 . S
C36 O33 1.259 . S
C36 O37 1.254 . S
O37 Zn35 2.046 1_565 S
O37 C36 1.254 . S
C38 O59 1.256 . S
C38 O60 1.244 . S
O39 Zn35 2.055 1_565 S
O39 C61 1.259 . S
O40 Zn32 2.046 1_565 S
O40 C61 1.254 . S
N41 Zn35 2.036 . S
N41 C42 1.298 . S
N41 N44 1.398 . S
C42 N41 1.298 . S
C42 N45 1.367 . S
C42 C55 1.481 1_545 S
C43 N44 1.299 . S
C43 N45 1.379 . S
N44 N41 1.398 . S
N44 C43 1.299 . S
N45 C42 1.367 . S
N45 C43 1.379 . S
C46 N48 1.298 . S
C46 N50 1.367 . S
C46 C54 1.481 1_545 S
C47 N49 1.299 . S
C47 N50 1.379 . S
N48 Zn32 2.036 . S
N48 C46 1.298 . S
N48 N49 1.398 . S
N49 C47 1.299 . S
N49 N48 1.398 . S
N50 C46 1.367 . S
N50 C47 1.379 . S
H51 C54 0.980 . S
H52 C54 0.981 . S
H53 C54 0.981 1_545 S
C54 C46 1.481 1_565 S
C54 H51 0.980 . S
C54 H52 0.981 . S
C54 H53 0.981 1_565 S
C55 C42 1.481 1_565 S
C55 H56 0.980 . S
C55 H57 0.981 . S
C55 H58 0.981 1_565 S
H56 C55 0.980 . S
H57 C55 0.981 . S
H58 C55 0.981 1_545 S
O59 Zn35 2.066 . S
O59 C38 1.256 . S
O60 Zn32 2.053 . S
O60 C38 1.244 . S
C61 O39 1.259 . S
C61 O40 1.254 . S
O62 Zn32 2.066 . S
O62 C34 1.256 . S
O63 C34 1.244 . S
O63 Zn35 2.053 . S
Zn64 O65 2.055 . S
Zn64 O72 2.046 . S
Zn64 N80 2.036 . S
Zn64 O92 2.053 . S
Zn64 O94 2.066 . S
O65 Zn64 2.055 . S
O65 C68 1.259 . S
C66 O94 1.256 . S
C66 O95 1.244 . S
Zn67 O69 2.046 . S
Zn67 O71 2.055 . S
Zn67 N73 2.036 . S
Zn67 O91 2.066 . S
Zn67 O95 2.053 . S
C68 O65 1.259 . S
C68 O69 1.254 . S
O69 Zn67 2.046 . S
O69 C68 1.254 . S
C70 O91 1.256 . S
C70 O92 1.244 . S
O71 Zn67 2.055 . S
O71 C93 1.259 . S
O72 Zn64 2.046 . S
O72 C93 1.254 . S
N73 Zn67 2.036 . S
N73 C74 1.298 . S
N73 N76 1.398 . S
C74 N73 1.298 . S
C74 N77 1.367 . S
C74 C87 1.481 . S
C75 N76 1.299 . S
C75 N77 1.379 . S
N76 N73 1.398 . S
N76 C75 1.299 . S
N77 C74 1.367 . S
N77 C75 1.379 . S
C78 N80 1.298 . S
C78 N82 1.367 . S
C78 C86 1.481 . S
C79 N81 1.299 . S
C79 N82 1.379 . S
N80 Zn64 2.036 . S
N80 C78 1.298 . S
N80 N81 1.398 . S
N81 C79 1.299 . S
N81 N80 1.398 . S
N82 C78 1.367 . S
N82 C79 1.379 . S
H83 C86 0.980 . S
H84 C86 0.981 . S
H85 C86 0.981 . S
C86 C78 1.481 . S
C86 H83 0.980 . S
C86 H84 0.981 . S
C86 H85 0.981 . S
C87 C74 1.481 . S
C87 H88 0.980 . S
C87 H89 0.981 . S
C87 H90 0.981 . S
H88 C87 0.980 . S
H89 C87 0.981 . S
H90 C87 0.981 . S
O91 Zn67 2.066 . S
O91 C70 1.256 . S
O92 Zn64 2.053 . S
O92 C70 1.244 . S
C93 O71 1.259 . S
C93 O72 1.254 . S
O94 Zn64 2.066 . S
O94 C66 1.256 . S
O95 C66 1.244 . S
O95 Zn67 2.053 . S
C96 C97 1.386 1_455 S
C96 C98 1.383 . S
C96 H112 0.951 . S
C97 C96 1.386 1_655 S
C97 C101 1.383 . S
C98 C96 1.383 . S
C98 C99 1.402 1_455 S
C98 H113 0.951 . S
C99 C98 1.402 1_655 S
C99 C100 1.375 . S
C99 C102 1.481 . S
C100 C99 1.375 . S
C100 C101 1.367 . S
C100 H114 0.951 . S
C101 C97 1.383 . S
C101 C100 1.367 . S
C101 H115 0.950 . S
C102 C99 1.481 . S
C102 C103 1.297 1_665 S
C102 H116 0.950 . S
C103 C102 1.297 1_445 S
C103 C104 1.479 . S
C103 H117 0.950 . S
C104 C103 1.479 . S
C104 C105 1.375 . S
C104 C110 1.404 1_455 S
C105 C104 1.375 . S
C105 C106 1.369 . S
C105 H118 0.950 . S
C106 C105 1.369 . S
C106 C107 1.392 1_455 S
C106 H119 0.951 . S
C107 C106 1.392 1_655 S
C107 C109 1.384 . S
H108 C110 0.949 . S
C109 C107 1.384 . S
C109 C110 1.385 . S
C109 H111 0.950 . S
C110 C104 1.404 1_655 S
C110 H108 0.949 . S
C110 C109 1.385 . S
H111 C109 0.950 . S
H112 C96 0.951 . S
H113 C98 0.951 . S
H114 C100 0.951 . S
H115 C101 0.950 . S
H116 C102 0.950 . S
H117 C103 0.950 . S
H118 C105 0.950 . S
H119 C106 0.951 . S
C120 C121 1.386 1_565 S
C120 C122 1.383 . S
C120 H136 0.951 . S
C121 C120 1.386 1_545 S
C121 C125 1.383 . S
C122 C120 1.383 . S
C122 C123 1.402 1_565 S
C122 H137 0.951 . S
C123 C122 1.402 1_545 S
C123 C124 1.375 . S
C123 C126 1.481 . S
C124 C123 1.375 . S
C124 C125 1.367 . S
C124 H138 0.951 . S
C125 C121 1.383 . S
C125 C124 1.367 . S
C125 H139 0.950 . S
C126 C123 1.481 . S
C126 C127 1.297 . S
C126 H140 0.950 . S
C127 C126 1.297 . S
C127 C128 1.479 1_455 S
C127 H141 0.950 1_545 S
C128 C127 1.479 1_655 S
C128 C129 1.375 1_545 S
C128 C134 1.404 . S
C129 C128 1.375 1_565 S
C129 C130 1.369 . S
C129 H142 0.950 . S
C130 C129 1.369 . S
C130 C131 1.392 1_565 S
C130 H143 0.951 . S
C131 C130 1.392 1_545 S
C131 C133 1.384 . S
H132 C134 0.949 1_455 S
C133 C131 1.384 . S
C133 C134 1.385 . S
C133 H135 0.950 . S
C134 C128 1.404 . S
C134 H132 0.949 1_655 S
C134 C133 1.385 . S
H135 C133 0.950 . S
H136 C120 0.951 . S
H137 C122 0.951 . S
H138 C124 0.951 . S
H139 C125 0.950 . S
H140 C126 0.950 . S
H141 C127 0.950 1_565 S
H142 C129 0.950 . S
H143 C130 0.951 . S
C144 C145 1.386 . S
C144 C146 1.383 . S
C144 H160 0.951 . S
C145 C144 1.386 . S
C145 C149 1.383 . S
C146 C144 1.383 . S
C146 C147 1.402 . S
C146 H161 0.951 . S
C147 C146 1.402 . S
C147 C148 1.375 . S
C147 C150 1.481 1_565 S
C148 C147 1.375 . S
C148 C149 1.367 . S
C148 H162 0.951 . S
C149 C145 1.383 . S
C149 C148 1.367 . S
C149 H163 0.950 . S
C150 C147 1.481 1_545 S
C150 C151 1.297 . S
C150 H164 0.950 . S
C151 C150 1.297 . S
C151 C152 1.479 1_655 S
C151 H165 0.950 . S
C152 C151 1.479 1_455 S
C152 C153 1.375 . S
C152 C158 1.404 . S
C153 C152 1.375 . S
C153 C154 1.369 . S
C153 H166 0.950 . S
C154 C153 1.369 . S
C154 C155 1.392 . S
C154 H167 0.951 . S
C155 C154 1.392 . S
C155 C157 1.384 . S
H156 C158 0.949 . S
C157 C155 1.384 . S
C157 C158 1.385 . S
C157 H159 0.950 . S
C158 C152 1.404 . S
C158 H156 0.949 . S
C158 C157 1.385 . S
H159 C157 0.950 . S
H160 C144 0.951 . S
H161 C146 0.951 . S
H162 C148 0.951 . S
H163 C149 0.950 . S
H164 C150 0.950 . S
H165 C151 0.950 . S
H166 C153 0.950 . S
H167 C154 0.951 . S
C168 C169 1.386 . S
C168 C170 1.383 . S
C168 H184 0.951 . S
C169 C168 1.386 . S
C169 C173 1.383 . S
C170 C168 1.383 . S
C170 C171 1.402 . S
C170 H185 0.951 . S
C171 C170 1.402 . S
C171 C172 1.375 . S
C171 C174 1.481 . S
C172 C171 1.375 . S
C172 C173 1.367 . S
C172 H186 0.951 . S
C173 C169 1.383 . S
C173 C172 1.367 . S
C173 H187 0.950 . S
C174 C171 1.481 . S
C174 C175 1.297 1_556 S
C174 H188 0.950 . S
C175 C174 1.297 1_554 S
C175 C176 1.479 . S
C175 H189 0.950 . S
C176 C175 1.479 . S
C176 C177 1.375 . S
C176 C182 1.404 . S
C177 C176 1.375 . S
C177 C178 1.369 . S
C177 H190 0.950 . S
C178 C177 1.369 . S
C178 C179 1.392 . S
C178 H191 0.951 . S
C179 C178 1.392 . S
C179 C181 1.384 . S
H180 C182 0.949 . S
C181 C179 1.384 . S
C181 C182 1.385 . S
C181 H183 0.950 . S
C182 C176 1.404 . S
C182 H180 0.949 . S
C182 C181 1.385 . S
H183 C181 0.950 . S
H184 C168 0.951 . S
H185 C170 0.951 . S
H186 C172 0.951 . S
H187 C173 0.950 . S
H188 C174 0.950 . S
H189 C175 0.950 . S
H190 C177 0.950 . S
H191 C178 0.951 . S
C192 C193 1.386 . S
C192 C194 1.383 . S
C192 H208 0.951 . S
C193 C192 1.386 . S
C193 C197 1.383 . S
C194 C192 1.383 . S
C194 C195 1.402 . S
C194 H209 0.951 . S
C195 C194 1.402 . S
C195 C196 1.375 . S
C195 C198 1.481 . S
C196 C195 1.375 . S
C196 C197 1.367 . S
C196 H210 0.951 . S
C197 C193 1.383 . S
C197 C196 1.367 . S
C197 H211 0.950 . S
C198 C195 1.481 . S
C198 C199 1.297 . S
C198 H212 0.950 . S
C199 C198 1.297 . S
C199 C200 1.479 . S
C199 H213 0.950 . S
C200 C199 1.479 . S
C200 C201 1.375 . S
C200 C206 1.404 . S
C201 C200 1.375 . S
C201 C202 1.369 . S
C201 H214 0.950 . S
C202 C201 1.369 . S
C202 C203 1.392 . S
C202 H215 0.951 . S
C203 C202 1.392 . S
C203 C205 1.384 . S
H204 C206 0.949 . S
C205 C203 1.384 . S
C205 C206 1.385 . S
C205 H207 0.950 . S
C206 C200 1.404 . S
C206 H204 0.949 . S
C206 C205 1.385 . S
H207 C205 0.950 . S
H208 C192 0.951 . S
H209 C194 0.951 . S
H210 C196 0.951 . S
H211 C197 0.950 . S
H212 C198 0.950 . S
H213 C199 0.950 . S
H214 C201 0.950 . S
H215 C202 0.951 . S
C216 C217 1.386 . S
C216 C218 1.383 . S
C216 H232 0.951 . S
C217 C216 1.386 . S
C217 C221 1.383 . S
C218 C216 1.383 . S
C218 C219 1.402 . S
C218 H233 0.951 . S
C219 C218 1.402 . S
C219 C220 1.375 . S
C219 C222 1.481 . S
C220 C219 1.375 . S
C220 C221 1.367 . S
C220 H234 0.951 . S
C221 C217 1.383 . S
C221 C220 1.367 . S
C221 H235 0.950 . S
C222 C219 1.481 . S
C222 C223 1.297 . S
C222 H236 0.950 . S
C223 C222 1.297 . S
C223 C224 1.479 . S
C223 H237 0.950 . S
C224 C223 1.479 . S
C224 C225 1.375 . S
C224 C230 1.404 . S
C225 C224 1.375 . S
C225 C226 1.369 . S
C225 H238 0.950 . S
C226 C225 1.369 . S
C226 C227 1.392 . S
C226 H239 0.951 . S
C227 C226 1.392 . S
C227 C229 1.384 . S
H228 C230 0.949 . S
C229 C227 1.384 . S
C229 C230 1.385 . S
C229 H231 0.950 . S
C230 C224 1.404 . S
C230 H228 0.949 . S
C230 C229 1.385 . S
H231 C229 0.950 . S
H232 C216 0.951 . S
H233 C218 0.951 . S
H234 C220 0.951 . S
H235 C221 0.950 . S
H236 C222 0.950 . S
H237 C223 0.950 . S
H238 C225 0.950 . S
H239 C226 0.951 . S
C240 C241 1.386 . S
C240 C242 1.383 . S
C240 H256 0.951 . S
C241 C240 1.386 . S
C241 C245 1.383 . S
C242 C240 1.383 . S
C242 C243 1.402 . S
C242 H257 0.951 . S
C243 C242 1.402 . S
C243 C244 1.375 . S
C243 C246 1.481 . S
C244 C243 1.375 . S
C244 C245 1.367 . S
C244 H258 0.951 . S
C245 C241 1.383 . S
C245 C244 1.367 . S
C245 H259 0.950 . S
C246 C243 1.481 . S
C246 C247 1.317 . S
C246 H260 0.950 . S
C247 C246 1.317 . S
C247 C248 1.457 1_556 S
C247 H261 0.954 . S
C248 C247 1.457 1_554 S
C248 C249 1.375 . S
C248 C254 1.404 . S
C249 C248 1.375 . S
C249 C250 1.369 . S
C249 H262 0.950 . S
C250 C249 1.369 . S
C250 C251 1.392 . S
C250 H263 0.951 . S
C251 C250 1.392 . S
C251 C253 1.384 . S
H252 C254 0.949 . S
C253 C251 1.384 . S
C253 C254 1.385 . S
C253 H255 0.950 . S
C254 C248 1.404 . S
C254 H252 0.949 . S
C254 C253 1.385 . S
H255 C253 0.950 . S
H256 C240 0.951 . S
H257 C242 0.951 . S
H258 C244 0.951 . S
H259 C245 0.950 . S
H260 C246 0.950 . S
H261 C247 0.954 . S
H262 C249 0.950 . S
H263 C250 0.951 . S
C264 C265 1.386 . S
C264 C266 1.383 . S
C264 H280 0.951 . S
C265 C264 1.386 . S
C265 C269 1.383 . S
C266 C264 1.383 . S
C266 C267 1.402 . S
C266 H281 0.951 . S
C267 C266 1.402 . S
C267 C268 1.375 . S
C267 C270 1.481 . S
C268 C267 1.375 . S
C268 C269 1.367 . S
C268 H282 0.951 . S
C269 C265 1.383 . S
C269 C268 1.367 . S
C269 H283 0.950 . S
C270 C267 1.481 . S
C270 C271 1.297 . S
C270 H284 0.950 . S
C271 C270 1.297 . S
C271 C272 1.479 . S
C271 H285 0.950 . S
C272 C271 1.479 . S
C272 C273 1.375 . S
C272 C278 1.404 . S
C273 C272 1.375 . S
C273 C274 1.369 . S
C273 H286 0.950 . S
C274 C273 1.369 . S
C274 C275 1.392 . S
C274 H287 0.951 . S
C275 C274 1.392 . S
C275 C277 1.384 . S
H276 C278 0.949 . S
C277 C275 1.384 . S
C277 C278 1.385 . S
C277 H279 0.950 . S
C278 C272 1.404 . S
C278 H276 0.949 . S
C278 C277 1.385 . S
H279 C277 0.950 . S
H280 C264 0.951 . S
H281 C266 0.951 . S
H282 C268 0.951 . S
H283 C269 0.950 . S
H284 C270 0.950 . S
H285 C271 0.950 . S
H286 C273 0.950 . S
H287 C274 0.951 . S
C288 C289 1.386 . S
C288 C290 1.383 . S
C288 H304 0.951 . S
C289 C288 1.386 . S
C289 C293 1.383 . S
C290 C288 1.383 . S
C290 C291 1.402 . S
C290 H305 0.951 . S
C291 C290 1.402 . S
C291 C292 1.375 . S
C291 C294 1.481 . S
C292 C291 1.375 . S
C292 C293 1.367 . S
C292 H306 0.951 . S
C293 C289 1.383 . S
C293 C292 1.367 . S
C293 H307 0.950 . S
C294 C291 1.481 . S
C294 C295 1.297 . S
C294 H308 0.950 . S
C295 C294 1.297 . S
C295 C296 1.479 . S
C295 H309 0.950 . S
C296 C295 1.479 . S
C296 C297 1.375 . S
C296 C302 1.404 . S
C297 C296 1.375 . S
C297 C298 1.369 . S
C297 H310 0.950 . S
C298 C297 1.369 . S
C298 C299 1.392 . S
C298 H311 0.951 . S
C299 C298 1.392 . S
C299 C301 1.384 . S
H300 C302 0.949 . S
C301 C299 1.384 . S
C301 C302 1.385 . S
C301 H303 0.950 . S
C302 C296 1.404 . S
C302 H300 0.949 . S
C302 C301 1.385 . S
H303 C301 0.950 . S
H304 C288 0.951 . S
H305 C290 0.951 . S
H306 C292 0.951 . S
H307 C293 0.950 . S
H308 C294 0.950 . S
H309 C295 0.950 . S
H310 C297 0.950 . S
H311 C298 0.951 . S
C97 N18 0.896 . S
C107 N13 0.774 . S
C121 N45 0.878 . S
C131 N50 0.761 . S
C145 N82 0.821 . S
C155 N77 0.827 . S
C169 C70 1.552 . S
C179 C4 1.583 . S
C193 C34 1.951 . S
C203 C6 1.921 . S
C217 C66 1.537 . S
C227 C61 1.569 . S
C241 C93 1.564 . S
C251 C2 1.600 . S
C265 C29 1.239 . S
C275 C36 1.163 . S
C289 C68 1.565 . S
C299 C38 1.583 . S
