# Generated by pormake.
# Topology ech, (8)-cn, num edge types: 1
# Building blocks:
#     Node 0, Type 0, BuildingBlock: TAGTUT_clean_sbu_1, # of connection points: 8
#     Node 1, Type 0, BuildingBlock: TAGTUT_clean_sbu_1, # of connection points: 8
#     Node 2, Type 0, BuildingBlock: TAGTUT_clean_sbu_1, # of connection points: 8
#     Node 3, Type 0, BuildingBlock: TAGTUT_clean_sbu_1, # of connection points: 8
#     Node 4, Type 0, BuildingBlock: TAGTUT_clean_sbu_1, # of connection points: 8
#     Node 5, Type 0, BuildingBlock: TAGTUT_clean_sbu_1, # of connection points: 8
#     Node 6, Type 0, BuildingBlock: TAGTUT_clean_sbu_1, # of connection points: 8
#     Node 7, Type 0, BuildingBlock: TAGTUT_clean_sbu_1, # of connection points: 8
#     Node 8, Type 0, BuildingBlock: TAGTUT_clean_sbu_1, # of connection points: 8
#     Node 9, Type 0, BuildingBlock: TAGTUT_clean_sbu_1, # of connection points: 8
#     Node 10, Type 0, BuildingBlock: TAGTUT_clean_sbu_1, # of connection points: 8
#     Node 11, Type 0, BuildingBlock: TAGTUT_clean_sbu_1, # of connection points: 8
#     Node 12, Type 0, BuildingBlock: TAGTUT_clean_sbu_1, # of connection points: 8
#     Node 13, Type 0, BuildingBlock: TAGTUT_clean_sbu_1, # of connection points: 8
#     Node 14, Type 0, BuildingBlock: TAGTUT_clean_sbu_1, # of connection points: 8
#     Node 15, Type 0, BuildingBlock: TAGTUT_clean_sbu_1, # of connection points: 8
#     Node 16, Type 0, BuildingBlock: TAGTUT_clean_sbu_1, # of connection points: 8
#     Node 17, Type 0, BuildingBlock: TAGTUT_clean_sbu_1, # of connection points: 8
#     Node 18, Type 0, BuildingBlock: TAGTUT_clean_sbu_1, # of connection points: 8
#     Node 19, Type 0, BuildingBlock: TAGTUT_clean_sbu_1, # of connection points: 8
#     Node 20, Type 0, BuildingBlock: TAGTUT_clean_sbu_1, # of connection points: 8
#     Node 21, Type 0, BuildingBlock: TAGTUT_clean_sbu_1, # of connection points: 8
#     Node 22, Type 0, BuildingBlock: TAGTUT_clean_sbu_1, # of connection points: 8
#     Node 23, Type 0, BuildingBlock: TAGTUT_clean_sbu_1, # of connection points: 8
#     Edge 24, Type (0, 0), BuildingBlock: KIFKEQ_clean_linker_1, # of connection points: 2
#     Edge 25, Type (0, 0), BuildingBlock: KIFKEQ_clean_linker_1, # of connection points: 2
#     Edge 26, Type (0, 0), BuildingBlock: KIFKEQ_clean_linker_1, # of connection points: 2
#     Edge 27, Type (0, 0), BuildingBlock: KIFKEQ_clean_linker_1, # of connection points: 2
#     Edge 28, Type (0, 0), BuildingBlock: KIFKEQ_clean_linker_1, # of connection points: 2
#     Edge 29, Type (0, 0), BuildingBlock: KIFKEQ_clean_linker_1, # of connection points: 2
#     Edge 30, Type (0, 0), BuildingBlock: KIFKEQ_clean_linker_1, # of connection points: 2
#     Edge 31, Type (0, 0), BuildingBlock: KIFKEQ_clean_linker_1, # of connection points: 2
#     Edge 32, Type (0, 0), BuildingBlock: KIFKEQ_clean_linker_1, # of connection points: 2
#     Edge 33, Type (0, 0), BuildingBlock: KIFKEQ_clean_linker_1, # of connection points: 2
#     Edge 34, Type (0, 0), BuildingBlock: KIFKEQ_clean_linker_1, # of connection points: 2
#     Edge 35, Type (0, 0), BuildingBlock: KIFKEQ_clean_linker_1, # of connection points: 2
#     Edge 36, Type (0, 0), BuildingBlock: KIFKEQ_clean_linker_1, # of connection points: 2
#     Edge 37, Type (0, 0), BuildingBlock: KIFKEQ_clean_linker_1, # of connection points: 2
#     Edge 38, Type (0, 0), BuildingBlock: KIFKEQ_clean_linker_1, # of connection points: 2
#     Edge 39, Type (0, 0), BuildingBlock: KIFKEQ_clean_linker_1, # of connection points: 2
#     Edge 40, Type (0, 0), BuildingBlock: KIFKEQ_clean_linker_1, # of connection points: 2
#     Edge 41, Type (0, 0), BuildingBlock: KIFKEQ_clean_linker_1, # of connection points: 2
#     Edge 42, Type (0, 0), BuildingBlock: KIFKEQ_clean_linker_1, # of connection points: 2
#     Edge 43, Type (0, 0), BuildingBlock: KIFKEQ_clean_linker_1, # of connection points: 2
#     Edge 44, Type (0, 0), BuildingBlock: KIFKEQ_clean_linker_1, # of connection points: 2
#     Edge 45, Type (0, 0), BuildingBlock: KIFKEQ_clean_linker_1, # of connection points: 2
#     Edge 46, Type (0, 0), BuildingBlock: KIFKEQ_clean_linker_1, # of connection points: 2
#     Edge 47, Type (0, 0), BuildingBlock: KIFKEQ_clean_linker_1, # of connection points: 2
#     Edge 48, Type (0, 0), BuildingBlock: KIFKEQ_clean_linker_1, # of connection points: 2
#     Edge 49, Type (0, 0), BuildingBlock: KIFKEQ_clean_linker_1, # of connection points: 2
#     Edge 50, Type (0, 0), BuildingBlock: KIFKEQ_clean_linker_1, # of connection points: 2
#     Edge 51, Type (0, 0), BuildingBlock: KIFKEQ_clean_linker_1, # of connection points: 2
#     Edge 52, Type (0, 0), BuildingBlock: KIFKEQ_clean_linker_1, # of connection points: 2
#     Edge 53, Type (0, 0), BuildingBlock: KIFKEQ_clean_linker_1, # of connection points: 2
#     Edge 54, Type (0, 0), BuildingBlock: KIFKEQ_clean_linker_1, # of connection points: 2
#     Edge 55, Type (0, 0), BuildingBlock: KIFKEQ_clean_linker_1, # of connection points: 2
#     Edge 56, Type (0, 0), BuildingBlock: KIFKEQ_clean_linker_1, # of connection points: 2
#     Edge 57, Type (0, 0), BuildingBlock: KIFKEQ_clean_linker_1, # of connection points: 2
#     Edge 58, Type (0, 0), BuildingBlock: KIFKEQ_clean_linker_1, # of connection points: 2
#     Edge 59, Type (0, 0), BuildingBlock: KIFKEQ_clean_linker_1, # of connection points: 2
#     Edge 60, Type (0, 0), BuildingBlock: KIFKEQ_clean_linker_1, # of connection points: 2
#     Edge 61, Type (0, 0), BuildingBlock: KIFKEQ_clean_linker_1, # of connection points: 2
#     Edge 62, Type (0, 0), BuildingBlock: KIFKEQ_clean_linker_1, # of connection points: 2
#     Edge 63, Type (0, 0), BuildingBlock: KIFKEQ_clean_linker_1, # of connection points: 2
#     Edge 64, Type (0, 0), BuildingBlock: KIFKEQ_clean_linker_1, # of connection points: 2
#     Edge 65, Type (0, 0), BuildingBlock: KIFKEQ_clean_linker_1, # of connection points: 2
#     Edge 66, Type (0, 0), BuildingBlock: KIFKEQ_clean_linker_1, # of connection points: 2
#     Edge 67, Type (0, 0), BuildingBlock: KIFKEQ_clean_linker_1, # of connection points: 2
#     Edge 68, Type (0, 0), BuildingBlock: KIFKEQ_clean_linker_1, # of connection points: 2
#     Edge 69, Type (0, 0), BuildingBlock: KIFKEQ_clean_linker_1, # of connection points: 2
#     Edge 70, Type (0, 0), BuildingBlock: KIFKEQ_clean_linker_1, # of connection points: 2
#     Edge 71, Type (0, 0), BuildingBlock: KIFKEQ_clean_linker_1, # of connection points: 2
#     Edge 72, Type (0, 0), BuildingBlock: KIFKEQ_clean_linker_1, # of connection points: 2
#     Edge 73, Type (0, 0), BuildingBlock: KIFKEQ_clean_linker_1, # of connection points: 2
#     Edge 74, Type (0, 0), BuildingBlock: KIFKEQ_clean_linker_1, # of connection points: 2
#     Edge 75, Type (0, 0), BuildingBlock: KIFKEQ_clean_linker_1, # of connection points: 2
#     Edge 76, Type (0, 0), BuildingBlock: KIFKEQ_clean_linker_1, # of connection points: 2
#     Edge 77, Type (0, 0), BuildingBlock: KIFKEQ_clean_linker_1, # of connection points: 2
#     Edge 78, Type (0, 0), BuildingBlock: KIFKEQ_clean_linker_1, # of connection points: 2
#     Edge 79, Type (0, 0), BuildingBlock: KIFKEQ_clean_linker_1, # of connection points: 2
#     Edge 80, Type (0, 0), BuildingBlock: KIFKEQ_clean_linker_1, # of connection points: 2
#     Edge 81, Type (0, 0), BuildingBlock: KIFKEQ_clean_linker_1, # of connection points: 2
#     Edge 82, Type (0, 0), BuildingBlock: KIFKEQ_clean_linker_1, # of connection points: 2
#     Edge 83, Type (0, 0), BuildingBlock: KIFKEQ_clean_linker_1, # of connection points: 2
#     Edge 84, Type (0, 0), BuildingBlock: KIFKEQ_clean_linker_1, # of connection points: 2
#     Edge 85, Type (0, 0), BuildingBlock: KIFKEQ_clean_linker_1, # of connection points: 2
#     Edge 86, Type (0, 0), BuildingBlock: KIFKEQ_clean_linker_1, # of connection points: 2
#     Edge 87, Type (0, 0), BuildingBlock: KIFKEQ_clean_linker_1, # of connection points: 2
#     Edge 88, Type (0, 0), BuildingBlock: KIFKEQ_clean_linker_1, # of connection points: 2
#     Edge 89, Type (0, 0), BuildingBlock: KIFKEQ_clean_linker_1, # of connection points: 2
#     Edge 90, Type (0, 0), BuildingBlock: KIFKEQ_clean_linker_1, # of connection points: 2
#     Edge 91, Type (0, 0), BuildingBlock: KIFKEQ_clean_linker_1, # of connection points: 2
#     Edge 92, Type (0, 0), BuildingBlock: KIFKEQ_clean_linker_1, # of connection points: 2
#     Edge 93, Type (0, 0), BuildingBlock: KIFKEQ_clean_linker_1, # of connection points: 2
#     Edge 94, Type (0, 0), BuildingBlock: KIFKEQ_clean_linker_1, # of connection points: 2
#     Edge 95, Type (0, 0), BuildingBlock: KIFKEQ_clean_linker_1, # of connection points: 2
#     Edge 96, Type (0, 0), BuildingBlock: KIFKEQ_clean_linker_1, # of connection points: 2
#     Edge 97, Type (0, 0), BuildingBlock: KIFKEQ_clean_linker_1, # of connection points: 2
#     Edge 98, Type (0, 0), BuildingBlock: KIFKEQ_clean_linker_1, # of connection points: 2
#     Edge 99, Type (0, 0), BuildingBlock: KIFKEQ_clean_linker_1, # of connection points: 2
#     Edge 100, Type (0, 0), BuildingBlock: KIFKEQ_clean_linker_1, # of connection points: 2
#     Edge 101, Type (0, 0), BuildingBlock: KIFKEQ_clean_linker_1, # of connection points: 2
#     Edge 102, Type (0, 0), BuildingBlock: KIFKEQ_clean_linker_1, # of connection points: 2
#     Edge 103, Type (0, 0), BuildingBlock: KIFKEQ_clean_linker_1, # of connection points: 2
#     Edge 104, Type (0, 0), BuildingBlock: KIFKEQ_clean_linker_1, # of connection points: 2
#     Edge 105, Type (0, 0), BuildingBlock: KIFKEQ_clean_linker_1, # of connection points: 2
#     Edge 106, Type (0, 0), BuildingBlock: KIFKEQ_clean_linker_1, # of connection points: 2
#     Edge 107, Type (0, 0), BuildingBlock: KIFKEQ_clean_linker_1, # of connection points: 2
#     Edge 108, Type (0, 0), BuildingBlock: KIFKEQ_clean_linker_1, # of connection points: 2
#     Edge 109, Type (0, 0), BuildingBlock: KIFKEQ_clean_linker_1, # of connection points: 2
#     Edge 110, Type (0, 0), BuildingBlock: KIFKEQ_clean_linker_1, # of connection points: 2
#     Edge 111, Type (0, 0), BuildingBlock: KIFKEQ_clean_linker_1, # of connection points: 2
#     Edge 112, Type (0, 0), BuildingBlock: KIFKEQ_clean_linker_1, # of connection points: 2
#     Edge 113, Type (0, 0), BuildingBlock: KIFKEQ_clean_linker_1, # of connection points: 2
#     Edge 114, Type (0, 0), BuildingBlock: KIFKEQ_clean_linker_1, # of connection points: 2
#     Edge 115, Type (0, 0), BuildingBlock: KIFKEQ_clean_linker_1, # of connection points: 2
#     Edge 116, Type (0, 0), BuildingBlock: KIFKEQ_clean_linker_1, # of connection points: 2
#     Edge 117, Type (0, 0), BuildingBlock: KIFKEQ_clean_linker_1, # of connection points: 2
#     Edge 118, Type (0, 0), BuildingBlock: KIFKEQ_clean_linker_1, # of connection points: 2
#     Edge 119, Type (0, 0), BuildingBlock: KIFKEQ_clean_linker_1, # of connection points: 2
# Relax obj value: 0.223
# Max RMSD: 0.224
# Mean RMSD: 0.224
data_MOF--net-ech--node1-TAGTUT_clean_sbu_1--edge1-KIFKEQ_clean_linker_1
_symmetry_space_group_name_H-M    P1
_symmetry_Int_Tables_number       1
_symmetry_cell_setting            triclinic
loop_
_symmetry_equiv_pos_as_xyz
'x, y, z'
_cell_length_a     47.927473
_cell_length_b     47.917676
_cell_length_c     47.919055
_cell_angle_alpha  89.982312
_cell_angle_beta   89.971481
_cell_angle_gamma 90.020887
loop_
_atom_site_label
_atom_site_type_symbol
_atom_site_fract_x
_atom_site_fract_y
_atom_site_fract_z
_atom_type_partial_charge
C0 C 0.01526 0.31855 0.47614 0.0
C1 C 0.07522 0.27754 0.52986 0.0
C2 C 0.15802 0.31391 0.46989 0.0
Mg3 Mg 0.05108 0.26486 0.47258 0.0
O4 O 0.07313 0.29182 0.45454 0.0
Mg5 Mg 0.08632 0.3239 0.47759 0.0
Mg6 Mg 0.10794 0.27806 0.43764 0.0
O7 O 0.143 0.26228 0.42184 0.0
Mg8 Mg 0.174 0.28309 0.41239 0.0
Mg9 Mg 0.12595 0.23585 0.39466 0.0
C10 C 0.06432 0.23168 0.41655 0.0
C11 C 0.11919 0.21481 0.4591 0.0
O12 O 0.03728 0.3339 0.47956 0.0
O13 O 0.01652 0.29197 0.47391 0.0
O14 O 0.0831 0.30027 0.51854 0.0
O15 O 0.06421 0.25814 0.51531 0.0
O16 O 0.05123 0.23309 0.43994 0.0
O17 O 0.08275 0.24982 0.4093 0.0
C18 C 0.0962 0.34087 0.41308 0.0
O19 O 0.10377 0.31593 0.40686 0.0
O20 O 0.08941 0.34776 0.4378 0.0
O21 O 0.17004 0.22053 0.38367 0.0
O22 O 0.20253 0.24996 0.39998 0.0
O23 O 0.12969 0.26986 0.35917 0.0
C24 C 0.1956 0.22722 0.38765 0.0
O25 O 0.15859 0.30294 0.37589 0.0
O26 O 0.17634 0.30635 0.45172 0.0
C27 C 0.14224 0.29356 0.35703 0.0
O28 O 0.13208 0.3072 0.46739 0.0
O29 O 0.11231 0.23977 0.46629 0.0
O30 O 0.12424 0.20817 0.43355 0.0
C31 C 0.48332 0.67332 0.97573 0.0
C32 C 0.42388 0.71806 0.02647 0.0
C33 C 0.34147 0.68477 0.96521 0.0
Mg34 Mg 0.45098 0.72894 0.97023 0.0
O35 O 0.42744 0.70402 0.95149 0.0
Mg36 Mg 0.41209 0.67232 0.97392 0.0
Mg37 Mg 0.39332 0.72001 0.93478 0.0
O38 O 0.35902 0.73768 0.91935 0.0
Mg39 Mg 0.32754 0.71811 0.90888 0.0
Mg40 Mg 0.37692 0.76488 0.89351 0.0
C41 C 0.44042 0.76439 0.91484 0.0
C42 C 0.38396 0.78251 0.95891 0.0
O43 O 0.46015 0.65949 0.97732 0.0
O44 O 0.48403 0.69992 0.97351 0.0
O45 O 0.41532 0.69544 0.0154 0.0
O46 O 0.43608 0.73675 0.01193 0.0
O47 O 0.45372 0.76058 0.93783 0.0
O48 O 0.41983 0.74867 0.90759 0.0
C49 C 0.40328 0.6577 0.90861 0.0
O50 O 0.39685 0.68311 0.90293 0.0
O51 O 0.40897 0.64975 0.93333 0.0
O52 O 0.33307 0.78201 0.88289 0.0
O53 O 0.30003 0.75228 0.89758 0.0
O54 O 0.37237 0.73249 0.85643 0.0
C55 C 0.30737 0.77546 0.88636 0.0
O56 O 0.34277 0.69934 0.87179 0.0
O57 O 0.32359 0.69338 0.94711 0.0
C58 C 0.35936 0.70913 0.85334 0.0
O59 O 0.36756 0.69097 0.96322 0.0
O60 O 0.38977 0.75699 0.96486 0.0
O61 O 0.37944 0.79083 0.93375 0.0
C62 C 0.51984 0.17071 0.52688 0.0
C63 C 0.57632 0.21725 0.47307 0.0
C64 C 0.66144 0.18588 0.53475 0.0
Mg65 Mg 0.5497 0.2278 0.53009 0.0
O66 O 0.57518 0.20379 0.54779 0.0
Mg67 Mg 0.5912 0.17232 0.52555 0.0
Mg68 Mg 0.60882 0.21982 0.56532 0.0
O69 O 0.64263 0.23735 0.58193 0.0
Mg70 Mg 0.67402 0.2176 0.59234 0.0
Mg71 Mg 0.62363 0.26266 0.6089 0.0
C72 C 0.56197 0.2632 0.58544 0.0
C73 C 0.6174 0.28375 0.54435 0.0
O74 O 0.54364 0.15829 0.52398 0.0
O75 O 0.51746 0.19723 0.52908 0.0
O76 O 0.58654 0.19546 0.48437 0.0
O77 O 0.56289 0.23519 0.48749 0.0
O78 O 0.54845 0.26016 0.56242 0.0
O79 O 0.58153 0.24644 0.59294 0.0
C80 C 0.60009 0.15659 0.59025 0.0
O81 O 0.60551 0.18209 0.59639 0.0
O82 O 0.59524 0.14894 0.56535 0.0
O83 O 0.6669 0.28007 0.62105 0.0
O84 O 0.70073 0.2518 0.60531 0.0
O85 O 0.62796 0.22874 0.6445 0.0
C86 C 0.69277 0.27428 0.61748 0.0
O87 O 0.65864 0.19702 0.62842 0.0
O88 O 0.67886 0.19402 0.55351 0.0
C89 C 0.64144 0.20559 0.64689 0.0
O90 O 0.63533 0.1922 0.53613 0.0
O91 O 0.61187 0.25852 0.5368 0.0
O92 O 0.62154 0.29037 0.57007 0.0
C93 C 0.98533 0.82246 0.02433 0.0
C94 C 0.92718 0.77839 0.97196 0.0
C95 C 0.843 0.81418 0.03225 0.0
Mg96 Mg 0.95198 0.76733 0.02954 0.0
O97 O 0.9282 0.79317 0.04686 0.0
Mg98 Mg 0.91403 0.82478 0.02359 0.0
Mg99 Mg 0.89358 0.77865 0.06388 0.0
O100 O 0.85875 0.7625 0.07997 0.0
Mg101 Mg 0.82814 0.78361 0.09013 0.0
Mg102 Mg 0.87615 0.73616 0.10709 0.0
C103 C 0.93818 0.73332 0.08518 0.0
C104 C 0.8829 0.71517 0.0426 0.0
O105 O 0.96244 0.83649 0.02115 0.0
O106 O 0.9856 0.79595 0.0276 0.0
O107 O 0.91794 0.80089 0.98271 0.0
O108 O 0.93919 0.75991 0.98693 0.0
O109 O 0.95196 0.73545 0.06221 0.0
O110 O 0.91916 0.75089 0.0922 0.0
C111 C 0.90419 0.84177 0.08808 0.0
O112 O 0.89733 0.81666 0.09446 0.0
O113 O 0.91048 0.84877 0.06325 0.0
O114 O 0.83198 0.72051 0.11834 0.0
O115 O 0.79969 0.75052 0.10264 0.0
O116 O 0.87261 0.76981 0.14285 0.0
C117 C 0.80645 0.72753 0.11461 0.0
O118 O 0.84399 0.80332 0.12662 0.0
O119 O 0.82501 0.80695 0.05088 0.0
C120 C 0.86033 0.79359 0.14531 0.0
O121 O 0.86887 0.80709 0.03412 0.0
O122 O 0.88965 0.74017 0.03535 0.0
O123 O 0.87789 0.70857 0.06817 0.0
C124 C 0.47523 0.01515 0.32428 0.0
C125 C 0.52773 0.07157 0.27641 0.0
C126 C 0.46545 0.15584 0.31518 0.0
Mg127 Mg 0.47006 0.04581 0.26795 0.0
O128 O 0.45339 0.07108 0.29302 0.0
Mg129 Mg 0.47732 0.08644 0.3235 0.0
Mg130 Mg 0.43583 0.10531 0.2782 0.0
O131 O 0.41918 0.13967 0.26181 0.0
Mg132 Mg 0.40837 0.17 0.28306 0.0
Mg133 Mg 0.39163 0.12145 0.2363 0.0
C134 C 0.41403 0.05946 0.23424 0.0
C135 C 0.45581 0.11491 0.21416 0.0
O136 O 0.47895 0.03876 0.33683 0.0
O137 O 0.47186 0.01309 0.29787 0.0
O138 O 0.51742 0.08175 0.29868 0.0
O139 O 0.51255 0.05824 0.25905 0.0
O140 O 0.43691 0.04559 0.23656 0.0
O141 O 0.40709 0.07879 0.25154 0.0
C142 C 0.41374 0.09696 0.34259 0.0
O143 O 0.406 0.10277 0.31757 0.0
O144 O 0.43892 0.09096 0.34828 0.0
O145 O 0.37984 0.1654 0.22042 0.0
O146 O 0.39566 0.1982 0.24988 0.0
O147 O 0.356 0.12479 0.27027 0.0
C148 C 0.3835 0.19105 0.22711 0.0
O149 O 0.37217 0.15432 0.3029 0.0
O150 O 0.4459 0.17313 0.3088 0.0
C151 C 0.35365 0.13749 0.29382 0.0
O152 O 0.46643 0.13098 0.30499 0.0
O153 O 0.46345 0.10838 0.23908 0.0
O154 O 0.43013 0.11979 0.20796 0.0
C155 C 0.02366 0.9848 0.82242 0.0
C156 C 0.97322 0.92435 0.77896 0.0
C157 C 0.03634 0.8428 0.81405 0.0
Mg158 Mg 0.02958 0.9515 0.76731 0.0
O159 O 0.04818 0.92867 0.79318 0.0
Mg160 Mg 0.0257 0.91355 0.82494 0.0
Mg161 Mg 0.0663 0.8947 0.77855 0.0
O162 O 0.08336 0.86051 0.76216 0.0
Mg163 Mg 0.0941 0.82966 0.78259 0.0
Mg164 Mg 0.10978 0.87886 0.73577 0.0
C165 C 0.08567 0.94016 0.73305 0.0
C166 C 0.04494 0.88358 0.71522 0.0
O167 O 0.02162 0.96183 0.83655 0.0
O168 O 0.02643 0.98514 0.79584 0.0
O169 O 0.98469 0.91586 0.80138 0.0
O170 O 0.98747 0.93672 0.76012 0.0
O171 O 0.06215 0.95292 0.73532 0.0
O172 O 0.09354 0.92139 0.75057 0.0
C173 C 0.09055 0.90629 0.84146 0.0
O174 O 0.09704 0.89959 0.81633 0.0
O175 O 0.06555 0.9116 0.84861 0.0
O176 O 0.12227 0.83523 0.71971 0.0
O177 O 0.10708 0.80202 0.749 0.0
O178 O 0.1457 0.87604 0.76952 0.0
C179 C 0.11904 0.80949 0.72622 0.0
O180 O 0.13019 0.84617 0.80235 0.0
O181 O 0.05521 0.8253 0.80633 0.0
C182 C 0.14839 0.86332 0.79308 0.0
O183 O 0.03762 0.8688 0.80723 0.0
O184 O 0.03769 0.88991 0.74031 0.0
O185 O 0.07061 0.8795 0.70835 0.0
C186 C 0.97356 0.48242 0.67404 0.0
C187 C 0.02682 0.42523 0.71905 0.0
C188 C 0.96065 0.34212 0.68415 0.0
Mg189 Mg 0.9702 0.45208 0.73087 0.0
O190 O 0.9519 0.4271 0.7068 0.0
Mg191 Mg 0.97347 0.41118 0.67479 0.0
Mg192 Mg 0.93391 0.39349 0.72243 0.0
O193 O 0.91665 0.35956 0.73917 0.0
Mg194 Mg 0.90393 0.33004 0.71772 0.0
Mg195 Mg 0.89056 0.3787 0.76556 0.0
C196 C 0.9152 0.44014 0.76694 0.0
C197 C 0.95563 0.38296 0.78564 0.0
O198 O 0.97587 0.45872 0.66134 0.0
O199 O 0.97148 0.48459 0.70058 0.0
O200 O 0.0151 0.41519 0.69737 0.0
O201 O 0.01273 0.43844 0.73742 0.0
O202 O 0.93832 0.45346 0.7637 0.0
O203 O 0.90727 0.42082 0.75008 0.0
C204 C 0.90846 0.40349 0.65964 0.0
O205 O 0.90248 0.39793 0.68515 0.0
O206 O 0.93336 0.40801 0.65178 0.0
O207 O 0.87745 0.33506 0.78148 0.0
O208 O 0.89089 0.30207 0.75103 0.0
O209 O 0.85375 0.37696 0.73284 0.0
C210 C 0.87976 0.30938 0.77429 0.0
O211 O 0.86781 0.34749 0.69918 0.0
O212 O 0.94077 0.32536 0.69098 0.0
C213 C 0.85019 0.36476 0.70918 0.0
O214 O 0.96237 0.36701 0.69413 0.0
O215 O 0.96286 0.38919 0.7605 0.0
O216 O 0.92997 0.37891 0.79255 0.0
C217 C 0.52026 0.51562 0.17571 0.0
C218 C 0.47101 0.57692 0.2197 0.0
C219 C 0.5328 0.65722 0.18392 0.0
Mg220 Mg 0.52694 0.5492 0.23054 0.0
O221 O 0.54587 0.57164 0.20467 0.0
Mg222 Mg 0.52312 0.5867 0.17306 0.0
Mg223 Mg 0.56361 0.60586 0.21945 0.0
O224 O 0.58007 0.64036 0.23566 0.0
Mg225 Mg 0.59035 0.67111 0.21478 0.0
Mg226 Mg 0.60664 0.62282 0.26228 0.0
C227 C 0.58376 0.55965 0.26418 0.0
C228 C 0.54197 0.61691 0.28277 0.0
O229 O 0.51883 0.5385 0.1614 0.0
O230 O 0.52275 0.51544 0.2023 0.0
O231 O 0.48228 0.58462 0.19689 0.0
O232 O 0.48537 0.56491 0.23865 0.0
O233 O 0.56027 0.54694 0.26134 0.0
O234 O 0.59128 0.57959 0.24771 0.0
C235 C 0.58797 0.59447 0.15649 0.0
O236 O 0.59437 0.60133 0.18161 0.0
O237 O 0.56304 0.58882 0.14934 0.0
O238 O 0.61813 0.66703 0.27801 0.0
O239 O 0.60274 0.69934 0.24785 0.0
O240 O 0.64269 0.6262 0.22866 0.0
C241 C 0.61451 0.69258 0.27091 0.0
O242 O 0.62675 0.65512 0.19523 0.0
O243 O 0.55138 0.67514 0.19135 0.0
C244 C 0.64531 0.63862 0.20493 0.0
O245 O 0.53474 0.6313 0.19075 0.0
O246 O 0.53481 0.61036 0.2577 0.0
O247 O 0.56756 0.62147 0.28958 0.0
C248 C 0.31883 0.47313 0.01409 0.0
C249 C 0.27779 0.52654 0.07416 0.0
C250 C 0.31841 0.46285 0.15524 0.0
Mg251 Mg 0.26507 0.46932 0.0497 0.0
O252 O 0.29184 0.45134 0.07184 0.0
Mg253 Mg 0.32409 0.47426 0.08504 0.0
Mg254 Mg 0.27828 0.43417 0.10663 0.0
O255 O 0.26325 0.41786 0.14179 0.0
Mg256 Mg 0.28587 0.40629 0.17086 0.0
Mg257 Mg 0.23619 0.39098 0.1248 0.0
C258 C 0.23142 0.41359 0.06324 0.0
C259 C 0.21526 0.45559 0.11872 0.0
O260 O 0.33406 0.47666 0.03615 0.0
O261 O 0.29228 0.47062 0.01521 0.0
O262 O 0.30054 0.51539 0.0822 0.0
O263 O 0.25857 0.51194 0.06292 0.0
O264 O 0.2331 0.43693 0.05009 0.0
O265 O 0.24961 0.40608 0.08151 0.0
C266 C 0.34097 0.4097 0.09425 0.0
O267 O 0.31606 0.40341 0.10186 0.0
O268 O 0.34787 0.43447 0.08769 0.0
O269 O 0.22218 0.37972 0.16941 0.0
O270 O 0.2538 0.3943 0.20072 0.0
O271 O 0.26917 0.35439 0.12667 0.0
C272 C 0.23027 0.38299 0.19469 0.0
O273 O 0.30396 0.3696 0.15414 0.0
O274 O 0.31234 0.44345 0.17284 0.0
C275 C 0.29331 0.3513 0.13802 0.0
O276 O 0.30751 0.46378 0.13069 0.0
O277 O 0.2401 0.46282 0.11147 0.0
O278 O 0.20879 0.43006 0.12406 0.0
C279 C 0.82216 0.02387 0.98751 0.0
C280 C 0.78042 0.97291 0.9261 0.0
C281 C 0.82041 0.03811 0.84645 0.0
Mg282 Mg 0.76781 0.02917 0.95295 0.0
O283 O 0.79399 0.04786 0.9305 0.0
Mg284 Mg 0.82637 0.02567 0.91636 0.0
Mg285 Mg 0.77993 0.06505 0.89583 0.0
O286 O 0.76423 0.08132 0.86095 0.0
Mg287 Mg 0.78616 0.09379 0.83174 0.0
Mg288 Mg 0.73607 0.10684 0.87827 0.0
C289 C 0.73295 0.08443 0.94019 0.0
C290 C 0.71796 0.04128 0.88343 0.0
O291 O 0.8368 0.02196 0.96487 0.0
O292 O 0.79556 0.02638 0.98727 0.0
O293 O 0.80313 0.9843 0.91823 0.0
O294 O 0.76131 0.98711 0.93806 0.0
O295 O 0.73534 0.06126 0.95356 0.0
O296 O 0.75051 0.09197 0.92133 0.0
C297 C 0.84188 0.09077 0.90855 0.0
O298 O 0.81684 0.09669 0.90106 0.0
O299 O 0.84935 0.06602 0.91459 0.0
O300 O 0.72141 0.11804 0.8338 0.0
O301 O 0.75352 0.10504 0.80226 0.0
O302 O 0.76771 0.14475 0.87641 0.0
C303 C 0.72961 0.11541 0.80847 0.0
O304 O 0.803 0.13091 0.84878 0.0
O305 O 0.81373 0.05746 0.82904 0.0
C306 C 0.79171 0.14876 0.865 0.0
O307 O 0.80975 0.03679 0.87111 0.0
O308 O 0.74313 0.03514 0.89034 0.0
O309 O 0.71003 0.06652 0.87877 0.0
C310 C 0.67442 0.97667 0.48203 0.0
C311 C 0.72373 0.02771 0.42623 0.0
C312 C 0.6873 0.96779 0.34056 0.0
Mg313 Mg 0.73073 0.96985 0.45176 0.0
O314 O 0.70553 0.95348 0.4265 0.0
Mg315 Mg 0.67583 0.97817 0.41078 0.0
Mg316 Mg 0.72055 0.93568 0.39246 0.0
O317 O 0.73732 0.91894 0.35831 0.0
Mg318 Mg 0.71665 0.90901 0.32738 0.0
Mg319 Mg 0.76263 0.89128 0.37641 0.0
C320 C 0.76379 0.91329 0.43874 0.0
C321 C 0.78498 0.95524 0.38388 0.0
O322 O 0.66207 0.98035 0.45832 0.0
O323 O 0.70072 0.9727 0.48425 0.0
O324 O 0.70131 0.01795 0.4158 0.0
O325 O 0.74075 0.01199 0.43934 0.0
O326 O 0.76144 0.93623 0.45251 0.0
O327 O 0.74676 0.90646 0.41911 0.0
C328 C 0.65572 0.91472 0.40025 0.0
O329 O 0.68064 0.90647 0.39462 0.0
O330 O 0.65048 0.94005 0.40611 0.0
O331 O 0.77929 0.87982 0.33247 0.0
O332 O 0.75001 0.89608 0.29976 0.0
O333 O 0.72843 0.85611 0.37199 0.0
C334 C 0.77272 0.88382 0.30683 0.0
O335 O 0.69584 0.87293 0.3427 0.0
O336 O 0.69406 0.94843 0.3232 0.0
C337 C 0.70489 0.85404 0.3592 0.0
O338 O 0.69449 0.96667 0.36646 0.0
O339 O 0.75999 0.96294 0.38999 0.0
O340 O 0.79117 0.92957 0.37892 0.0
C341 C 0.17906 0.52406 0.51377 0.0
C342 C 0.22121 0.47356 0.57506 0.0
C343 C 0.1817 0.53947 0.65445 0.0
Mg344 Mg 0.23366 0.52975 0.54787 0.0
O345 O 0.20766 0.54855 0.57033 0.0
Mg346 Mg 0.17538 0.52636 0.58488 0.0
Mg347 Mg 0.22176 0.56657 0.60461 0.0
O348 O 0.23716 0.58368 0.63922 0.0
Mg349 Mg 0.2149 0.59598 0.66828 0.0
Mg350 Mg 0.26442 0.60983 0.62143 0.0
C351 C 0.2683 0.58553 0.55996 0.0
C352 C 0.28466 0.5448 0.6172 0.0
O353 O 0.16459 0.52216 0.53652 0.0
O354 O 0.20564 0.52676 0.51379 0.0
O355 O 0.19867 0.48508 0.58315 0.0
O356 O 0.24024 0.48765 0.56281 0.0
O357 O 0.26589 0.56207 0.5471 0.0
O358 O 0.2506 0.5936 0.5785 0.0
C359 C 0.1592 0.59135 0.59192 0.0
O360 O 0.18425 0.59762 0.59906 0.0
O361 O 0.15196 0.56642 0.58639 0.0
O362 O 0.27879 0.62227 0.66574 0.0
O363 O 0.24723 0.60856 0.69756 0.0
O364 O 0.23174 0.64679 0.6227 0.0
C365 C 0.27075 0.61969 0.69114 0.0
O366 O 0.19705 0.63245 0.65083 0.0
O367 O 0.18805 0.55913 0.67163 0.0
C368 C 0.20774 0.65034 0.63425 0.0
O369 O 0.1924 0.53807 0.62983 0.0
O370 O 0.25972 0.53763 0.61019 0.0
O371 O 0.29141 0.57042 0.62168 0.0
C372 C 0.80831 0.77134 0.61779 0.0
C373 C 0.8639 0.70673 0.64769 0.0
C374 C 0.93934 0.76752 0.58532 0.0
Mg375 Mg 0.83051 0.71558 0.59319 0.0
O376 O 0.85995 0.73759 0.58148 0.0
Mg377 Mg 0.8779 0.76399 0.60845 0.0
Mg378 Mg 0.89448 0.72208 0.56421 0.0
O379 O 0.92891 0.70836 0.54614 0.0
Mg380 Mg 0.95181 0.73499 0.5285 0.0
Mg381 Mg 0.91435 0.67753 0.52226 0.0
C382 C 0.84468 0.68358 0.53576 0.0
C383 C 0.90498 0.65804 0.58601 0.0
O384 O 0.83382 0.77881 0.62079 0.0
O385 O 0.80156 0.7482 0.60607 0.0
O386 O 0.87586 0.73061 0.64469 0.0
O387 O 0.84728 0.6967 0.62949 0.0
O388 O 0.82773 0.68953 0.55577 0.0
O389 O 0.86922 0.69449 0.53403 0.0
C390 C 0.88291 0.78569 0.54396 0.0
O391 O 0.88998 0.76091 0.53644 0.0
O392 O 0.87824 0.79199 0.56965 0.0
O393 O 0.96281 0.66625 0.51858 0.0
O394 O 0.9858 0.70692 0.52492 0.0
O395 O 0.91722 0.70241 0.48216 0.0
C396 C 0.98567 0.68044 0.52131 0.0
O397 O 0.93789 0.74359 0.48632 0.0
O398 O 0.95244 0.76601 0.56192 0.0
C399 C 0.92573 0.72517 0.4714 0.0
O400 O 0.92064 0.74962 0.59251 0.0
O401 O 0.8982 0.68279 0.59385 0.0
O402 O 0.91141 0.65266 0.56084 0.0
C403 C 0.69181 0.22896 0.12125 0.0
C404 C 0.63598 0.29354 0.15095 0.0
C405 C 0.56136 0.23298 0.08607 0.0
Mg406 Mg 0.67023 0.28504 0.09686 0.0
O407 O 0.64077 0.26324 0.08464 0.0
Mg408 Mg 0.62235 0.23658 0.11098 0.0
Mg409 Mg 0.60647 0.27895 0.06721 0.0
O410 O 0.57246 0.29331 0.04895 0.0
Mg411 Mg 0.54977 0.26752 0.03011 0.0
Mg412 Mg 0.58722 0.32556 0.02696 0.0
C413 C 0.65684 0.31836 0.04018 0.0
C414 C 0.59434 0.34161 0.09189 0.0
O415 O 0.66622 0.22162 0.12388 0.0
O416 O 0.69885 0.25215 0.10978 0.0
O417 O 0.62384 0.26978 0.14761 0.0
O418 O 0.65303 0.30353 0.13311 0.0
O419 O 0.67386 0.31178 0.05991 0.0
O420 O 0.63212 0.3079 0.03855 0.0
C421 C 0.61841 0.21571 0.04611 0.0
O422 O 0.61178 0.24066 0.0386 0.0
O423 O 0.62257 0.20918 0.07185 0.0
O424 O 0.53882 0.33682 0.02311 0.0
O425 O 0.5159 0.29584 0.02748 0.0
O426 O 0.58506 0.30253 0.98561 0.0
C427 C 0.51599 0.32246 0.02503 0.0
O428 O 0.5645 0.26108 0.98781 0.0
O429 O 0.54872 0.23525 0.06247 0.0
C430 C 0.57674 0.28021 0.97382 0.0
O431 O 0.57983 0.25072 0.09418 0.0
O432 O 0.60115 0.31648 0.09816 0.0
O433 O 0.58901 0.34892 0.06697 0.0
C434 C 0.30785 0.72412 0.3821 0.0
C435 C 0.35787 0.79447 0.35343 0.0
C436 C 0.43893 0.73585 0.41149 0.0
Mg437 Mg 0.32638 0.78022 0.40827 0.0
O438 O 0.35834 0.76089 0.41744 0.0
Mg439 Mg 0.37706 0.73655 0.38937 0.0
Mg440 Mg 0.39224 0.77848 0.43376 0.0
O441 O 0.42618 0.79413 0.45111 0.0
Mg442 Mg 0.45177 0.76933 0.46778 0.0
Mg443 Mg 0.41023 0.82405 0.47528 0.0
C444 C 0.33991 0.811 0.46622 0.0
C445 C 0.39882 0.84296 0.41176 0.0
O446 O 0.3337 0.71894 0.37757 0.0
O447 O 0.29987 0.746 0.39528 0.0
O448 O 0.37205 0.77165 0.35488 0.0
O449 O 0.34055 0.8017 0.37235 0.0
O450 O 0.32232 0.80322 0.44747 0.0
O451 O 0.36598 0.80447 0.46469 0.0
C452 C 0.38469 0.71402 0.45333 0.0
O453 O 0.39048 0.7391 0.46107 0.0
O454 O 0.37995 0.70777 0.4276 0.0
O455 O 0.45779 0.83834 0.47678 0.0
O456 O 0.48406 0.79974 0.46997 0.0
O457 O 0.41566 0.79921 0.51516 0.0
C458 C 0.48162 0.82612 0.47327 0.0
O459 O 0.43932 0.75975 0.51018 0.0
O460 O 0.45273 0.73818 0.43442 0.0
C461 C 0.426 0.77702 0.52547 0.0
O462 O 0.41929 0.75286 0.40476 0.0
O463 O 0.39349 0.81783 0.40407 0.0
O464 O 0.4049 0.84879 0.4369 0.0
C465 C 0.19208 0.27313 0.88145 0.0
C466 C 0.13823 0.2065 0.8525 0.0
C467 C 0.06136 0.26636 0.91487 0.0
Mg468 Mg 0.17162 0.21697 0.90681 0.0
O469 O 0.14102 0.23768 0.91768 0.0
Mg470 Mg 0.12269 0.26389 0.89107 0.0
Mg471 Mg 0.10677 0.22118 0.93467 0.0
O472 O 0.07273 0.20646 0.9527 0.0
Mg473 Mg 0.04986 0.23244 0.97115 0.0
Mg474 Mg 0.08785 0.17493 0.97546 0.0
C475 C 0.15852 0.18598 0.96485 0.0
C476 C 0.09579 0.15812 0.91067 0.0
O477 O 0.16639 0.27994 0.87845 0.0
O478 O 0.19937 0.2503 0.8934 0.0
O479 O 0.1257 0.23015 0.85514 0.0
O480 O 0.1551 0.19705 0.87085 0.0
O481 O 0.17596 0.19346 0.9458 0.0
O482 O 0.13257 0.19296 0.96375 0.0
C483 C 0.11732 0.2846 0.95587 0.0
O484 O 0.111 0.25949 0.96307 0.0
O485 O 0.12175 0.29145 0.93023 0.0
O486 O 0.03961 0.16317 0.97945 0.0
O487 O 0.0163 0.20386 0.97452 0.0
O488 O 0.08495 0.19855 0.01649 0.0
C489 C 0.01666 0.17731 0.97749 0.0
O490 O 0.06414 0.23979 0.01343 0.0
O491 O 0.04851 0.26427 0.93837 0.0
C492 C 0.07623 0.22093 0.02786 0.0
O493 O 0.08019 0.24882 0.90722 0.0
O494 O 0.10238 0.18326 0.90412 0.0
O495 O 0.09028 0.15106 0.93566 0.0
C496 C 0.61432 0.80734 0.77155 0.0
C497 C 0.64739 0.86166 0.70713 0.0
C498 C 0.58529 0.94056 0.76361 0.0
Mg499 Mg 0.59212 0.82943 0.71478 0.0
O500 O 0.58036 0.85945 0.73593 0.0
Mg501 Mg 0.60666 0.87719 0.7631 0.0
Mg502 Mg 0.56419 0.89392 0.71924 0.0
O503 O 0.54692 0.92827 0.70425 0.0
Mg504 Mg 0.52882 0.95163 0.72996 0.0
Mg505 Mg 0.52332 0.9132 0.67341 0.0
C506 C 0.53619 0.84374 0.68083 0.0
C507 C 0.58752 0.90339 0.65564 0.0
O508 O 0.61751 0.83286 0.77901 0.0
O509 O 0.60341 0.80071 0.74801 0.0
O510 O 0.64398 0.87388 0.73082 0.0
O511 O 0.62915 0.84529 0.69676 0.0
O512 O 0.55569 0.82655 0.68757 0.0
O513 O 0.53455 0.86845 0.6913 0.0
C514 C 0.54163 0.88395 0.78228 0.0
O515 O 0.53518 0.89029 0.75704 0.0
O516 O 0.56692 0.87907 0.78988 0.0
O517 O 0.5199 0.96142 0.66097 0.0
O518 O 0.52497 0.98506 0.70139 0.0
O519 O 0.4828 0.91628 0.69785 0.0
C520 C 0.52207 0.98452 0.67485 0.0
O521 O 0.48712 0.93708 0.73899 0.0
O522 O 0.56215 0.95382 0.76062 0.0
C523 C 0.47222 0.92471 0.72072 0.0
O524 O 0.5922 0.92021 0.74741 0.0
O525 O 0.5948 0.8969 0.68066 0.0
O526 O 0.5625 0.90977 0.64954 0.0
C527 C 0.88268 0.19294 0.27325 0.0
C528 C 0.85163 0.13703 0.20985 0.0
C529 C 0.91526 0.0615 0.26952 0.0
Mg530 Mg 0.90636 0.17037 0.21721 0.0
O531 O 0.91857 0.14112 0.23929 0.0
Mg532 Mg 0.89212 0.12327 0.26633 0.0
Mg533 Mg 0.93501 0.10637 0.22342 0.0
O534 O 0.95217 0.07186 0.20888 0.0
Mg535 Mg 0.97034 0.04834 0.23438 0.0
Mg536 Mg 0.97436 0.08607 0.17652 0.0
C537 C 0.96243 0.1559 0.1833 0.0
C538 C 0.9095 0.09495 0.16105 0.0
O539 O 0.88008 0.16748 0.28108 0.0
O540 O 0.89385 0.19953 0.24978 0.0
O541 O 0.85508 0.12524 0.23375 0.0
O542 O 0.86971 0.15348 0.19929 0.0
O543 O 0.94297 0.1732 0.18993 0.0
O544 O 0.96397 0.1313 0.19409 0.0
C545 C 0.9572 0.118 0.28626 0.0
O546 O 0.96417 0.11102 0.26126 0.0
O547 O 0.93168 0.12281 0.29318 0.0
O548 O 0.97706 0.03761 0.16509 0.0
O549 O 0.97194 0.01455 0.20589 0.0
O550 O 0.01576 0.08301 0.19952 0.0
C551 C 0.97448 0.01473 0.17929 0.0
O552 O 0.01289 0.06198 0.24076 0.0
O553 O 0.93833 0.04801 0.26694 0.0
C554 C 0.02717 0.07424 0.22188 0.0
O555 O 0.90771 0.0804 0.252 0.0
O556 O 0.90364 0.10189 0.18624 0.0
O557 O 0.9342 0.08891 0.15348 0.0
C558 C 0.11746 0.6933 0.22969 0.0
C559 C 0.14896 0.63531 0.29166 0.0
C560 C 0.08487 0.56179 0.23177 0.0
Mg561 Mg 0.09464 0.66938 0.28558 0.0
O562 O 0.08162 0.6411 0.26271 0.0
Mg563 Mg 0.10791 0.62349 0.23531 0.0
Mg564 Mg 0.06505 0.60618 0.27821 0.0
O565 O 0.04795 0.57152 0.29247 0.0
Mg566 Mg 0.02999 0.54792 0.2669 0.0
Mg567 Mg 0.02582 0.58537 0.325 0.0
C568 C 0.03829 0.65508 0.31913 0.0
C569 C 0.0906 0.59437 0.34048 0.0
O570 O 0.11988 0.66806 0.2211 0.0
O571 O 0.10689 0.69922 0.25361 0.0
O572 O 0.14519 0.62445 0.26741 0.0
O573 O 0.13119 0.65159 0.30292 0.0
O574 O 0.05821 0.67204 0.31296 0.0
O575 O 0.03605 0.63081 0.30772 0.0
C576 C 0.04287 0.61829 0.21544 0.0
O577 O 0.03585 0.61108 0.24037 0.0
O578 O 0.06838 0.62333 0.20865 0.0
O579 O 0.02341 0.5368 0.33615 0.0
O580 O 0.02875 0.51397 0.29527 0.0
O581 O 0.98439 0.58218 0.30203 0.0
C582 C 0.0262 0.51401 0.32187 0.0
O583 O 0.98732 0.56124 0.26076 0.0
O584 O 0.06191 0.54808 0.23423 0.0
C585 C 0.973 0.57335 0.27969 0.0
O586 O 0.09229 0.58057 0.24943 0.0
O587 O 0.09643 0.60144 0.31532 0.0
O588 O 0.06593 0.58823 0.34804 0.0
C589 C 0.38557 0.30698 0.73093 0.0
C590 C 0.35287 0.36419 0.79243 0.0
C591 C 0.41665 0.43872 0.7303 0.0
Mg592 Mg 0.40829 0.33169 0.78637 0.0
O593 O 0.4201 0.36043 0.76349 0.0
Mg594 Mg 0.39362 0.37697 0.73576 0.0
Mg595 Mg 0.43751 0.39549 0.77748 0.0
O596 O 0.45567 0.43034 0.7899 0.0
Mg597 Mg 0.47319 0.45288 0.76308 0.0
Mg598 Mg 0.47849 0.41723 0.82218 0.0
C599 C 0.46494 0.34731 0.81896 0.0
C600 C 0.41394 0.41141 0.83956 0.0
O601 O 0.38223 0.33213 0.72241 0.0
O602 O 0.39679 0.30136 0.7546 0.0
O603 O 0.35648 0.37554 0.76833 0.0
O604 O 0.37112 0.34834 0.80359 0.0
O605 O 0.44512 0.33006 0.8133 0.0
O606 O 0.46677 0.37141 0.80712 0.0
C607 C 0.45828 0.38159 0.71454 0.0
O608 O 0.46585 0.38905 0.7392 0.0
O609 O 0.43261 0.3768 0.70836 0.0
O610 O 0.48241 0.46586 0.83147 0.0
O611 O 0.47556 0.48775 0.79031 0.0
O612 O 0.51919 0.41826 0.79792 0.0
C613 C 0.47914 0.4883 0.81679 0.0
O614 O 0.51558 0.43863 0.75638 0.0
O615 O 0.43994 0.45206 0.73167 0.0
C616 C 0.53013 0.42641 0.77509 0.0
O617 O 0.40948 0.42042 0.74861 0.0
O618 O 0.40727 0.40218 0.81532 0.0
O619 O 0.43894 0.41735 0.84602 0.0
C620 C 0.77307 0.61699 0.80737 0.0
C621 C 0.70532 0.64623 0.86003 0.0
C622 C 0.76571 0.5857 0.93838 0.0
Mg623 Mg 0.71703 0.59148 0.82772 0.0
O624 O 0.73761 0.58144 0.85869 0.0
Mg625 Mg 0.76314 0.60883 0.87683 0.0
Mg626 Mg 0.72122 0.56453 0.89298 0.0
O627 O 0.70654 0.54669 0.92711 0.0
Mg628 Mg 0.73252 0.5291 0.95059 0.0
Mg629 Mg 0.67544 0.52325 0.91214 0.0
C630 C 0.68683 0.53312 0.84133 0.0
C631 C 0.65765 0.58758 0.90316 0.0
O632 O 0.77944 0.62079 0.83307 0.0
O633 O 0.75049 0.6046 0.80006 0.0
O634 O 0.7288 0.64408 0.87294 0.0
O635 O 0.6964 0.6275 0.84328 0.0
O636 O 0.69414 0.55213 0.82378 0.0
O637 O 0.69364 0.53454 0.86732 0.0
C638 C 0.78529 0.54468 0.88323 0.0
O639 O 0.76031 0.53682 0.88934 0.0
O640 O 0.79145 0.57044 0.87864 0.0
O641 O 0.66332 0.51998 0.96044 0.0
O642 O 0.7037 0.52606 0.98398 0.0
O643 O 0.69975 0.48272 0.91581 0.0
C644 C 0.6772 0.5227 0.98348 0.0
O645 O 0.74068 0.48675 0.93704 0.0
O646 O 0.76385 0.56233 0.95152 0.0
C647 C 0.72224 0.47186 0.92488 0.0
O648 O 0.7481 0.59294 0.91945 0.0
O649 O 0.68274 0.59444 0.89672 0.0
O650 O 0.65093 0.56256 0.90893 0.0
C651 C 0.27511 0.88757 0.19102 0.0
C652 C 0.20671 0.85635 0.14093 0.0
C653 C 0.26411 0.91564 0.0584 0.0
Mg654 Mg 0.21872 0.9122 0.17175 0.0
O655 O 0.23795 0.92119 0.13963 0.0
Mg656 Mg 0.26358 0.89385 0.12173 0.0
Mg657 Mg 0.22093 0.93747 0.10546 0.0
O658 O 0.20543 0.95479 0.07139 0.0
Mg659 Mg 0.23089 0.97246 0.04757 0.0
Mg660 Mg 0.17461 0.97837 0.08675 0.0
C661 C 0.18701 0.9694 0.15732 0.0
C662 C 0.15739 0.91384 0.09626 0.0
O663 O 0.28046 0.88228 0.16538 0.0
O664 O 0.25333 0.90104 0.19873 0.0
O665 O 0.22953 0.85853 0.12684 0.0
O666 O 0.19845 0.87518 0.15793 0.0
O667 O 0.19509 0.95111 0.17524 0.0
O668 O 0.19335 0.96737 0.13125 0.0
C669 C 0.28486 0.95821 0.11456 0.0
O670 O 0.25975 0.96567 0.10852 0.0
O671 O 0.29142 0.93255 0.11918 0.0
O672 O 0.16165 0.98181 0.03868 0.0
O673 O 0.20183 0.97649 0.01464 0.0
O674 O 0.19908 0.01891 0.08292 0.0
C675 C 0.17534 0.97965 0.01546 0.0
O676 O 0.24008 0.01419 0.06181 0.0
O677 O 0.26126 0.9388 0.04512 0.0
C678 C 0.22188 0.02933 0.07403 0.0
O679 O 0.24798 0.90893 0.07887 0.0
O680 O 0.18261 0.90724 0.10248 0.0
O681 O 0.15039 0.9388 0.09042 0.0
C682 C 0.22792 0.11404 0.69354 0.0
C683 C 0.29691 0.14354 0.64279 0.0
C684 C 0.23766 0.08619 0.56172 0.0
Mg685 Mg 0.2839 0.08815 0.6735 0.0
O686 O 0.26372 0.07915 0.64196 0.0
Mg687 Mg 0.23896 0.10741 0.62403 0.0
Mg688 Mg 0.28062 0.06294 0.60757 0.0
O689 O 0.2957 0.04574 0.57321 0.0
Mg690 Mg 0.27065 0.0299 0.54742 0.0
Mg691 Mg 0.32549 0.02092 0.58845 0.0
C692 C 0.31328 0.02957 0.65897 0.0
C693 C 0.3455 0.08406 0.60048 0.0
O694 O 0.22201 0.1185 0.66783 0.0
O695 O 0.2502 0.10115 0.70091 0.0
O696 O 0.27365 0.14197 0.62942 0.0
O697 O 0.30531 0.1243 0.65923 0.0
O698 O 0.30626 0.04843 0.67679 0.0
O699 O 0.30643 0.03136 0.63301 0.0
C700 C 0.21597 0.04381 0.61569 0.0
O701 O 0.24091 0.03589 0.60955 0.0
O702 O 0.21005 0.06951 0.62082 0.0
O703 O 0.3394 0.01983 0.54075 0.0
O704 O 0.30077 0.02801 0.51493 0.0
O705 O 0.30017 0.98126 0.58259 0.0
C706 C 0.32707 0.02401 0.51709 0.0
O707 O 0.26091 0.98729 0.55877 0.0
O708 O 0.2398 0.0635 0.54751 0.0
C709 C 0.2779 0.97151 0.57186 0.0
O710 O 0.25488 0.09262 0.5813 0.0
O711 O 0.32054 0.09212 0.60618 0.0
O712 O 0.35082 0.0589 0.59405 0.0
C713 C 0.7256 0.38552 0.3099 0.0
C714 C 0.79147 0.35374 0.36281 0.0
C715 C 0.73225 0.41653 0.44094 0.0
Mg716 Mg 0.78239 0.40914 0.33051 0.0
O717 O 0.76276 0.41919 0.36199 0.0
Mg718 Mg 0.73516 0.3935 0.37946 0.0
Mg719 Mg 0.77886 0.43605 0.39645 0.0
O720 O 0.79252 0.45416 0.43085 0.0
Mg721 Mg 0.76611 0.47278 0.45312 0.0
Mg722 Mg 0.82464 0.47647 0.41655 0.0
C723 C 0.81476 0.46619 0.34515 0.0
C724 C 0.84081 0.41142 0.41119 0.0
O725 O 0.71907 0.38195 0.33559 0.0
O726 O 0.74847 0.39741 0.30264 0.0
O727 O 0.76813 0.35673 0.3759 0.0
O728 O 0.80109 0.37214 0.34604 0.0
O729 O 0.8066 0.44784 0.32728 0.0
O730 O 0.80838 0.46431 0.37123 0.0
C731 C 0.71628 0.45878 0.38443 0.0
O732 O 0.74155 0.46528 0.39064 0.0
O733 O 0.70846 0.43337 0.38047 0.0
O734 O 0.83488 0.48101 0.46504 0.0
O735 O 0.79381 0.47585 0.48758 0.0
O736 O 0.80102 0.51747 0.41735 0.0
C737 C 0.82038 0.47875 0.48774 0.0
O738 O 0.75947 0.51485 0.43772 0.0
O739 O 0.73414 0.44001 0.45387 0.0
C740 C 0.77838 0.52893 0.42525 0.0
O741 O 0.75002 0.40898 0.4223 0.0
O742 O 0.81623 0.40503 0.40259 0.0
O743 O 0.84782 0.43641 0.41666 0.0
H744 H 0.043 0.50439 0.37595 0.0
H745 H 0.02224 0.4621 0.29911 0.0
H746 H 0.06162 0.46076 0.39462 0.0
H747 H 0.0419 0.41912 0.31711 0.0
H748 H 0.05903 0.34004 0.37041 0.0
H749 H 0.03885 0.38152 0.34866 0.0
H750 H 0.10195 0.43261 0.388 0.0
H751 H 0.12111 0.39121 0.41049 0.0
C752 C 0.04188 0.48572 0.36326 0.0
C753 C 0.03126 0.48687 0.33599 0.0
C754 C 0.05308 0.46078 0.37371 0.0
C755 C 0.054 0.43647 0.35709 0.0
C756 C 0.04167 0.43728 0.33054 0.0
C757 C 0.03037 0.46207 0.3202 0.0
C758 C 0.06923 0.36002 0.37334 0.0
C759 C 0.09182 0.36246 0.39175 0.0
C760 C 0.05747 0.38391 0.36121 0.0
C761 C 0.06826 0.41064 0.36718 0.0
C762 C 0.09247 0.41257 0.38366 0.0
C763 C 0.10394 0.38878 0.39598 0.0
H764 H 0.44044 0.66099 0.86594 0.0
H765 H 0.37998 0.60671 0.90451 0.0
H766 H 0.46237 0.6207 0.84355 0.0
H767 H 0.40101 0.56653 0.88153 0.0
H768 H 0.48154 0.54013 0.79336 0.0
H769 H 0.46056 0.58266 0.8113 0.0
H770 H 0.44331 0.54099 0.88941 0.0
H771 H 0.46339 0.49799 0.87101 0.0
C772 C 0.43097 0.6406 0.8684 0.0
C773 C 0.4084 0.6369 0.88668 0.0
C774 C 0.44375 0.61742 0.85593 0.0
C775 C 0.43401 0.59021 0.86147 0.0
C776 C 0.40969 0.58702 0.87759 0.0
C777 C 0.39717 0.61009 0.8902 0.0
C778 C 0.47376 0.54014 0.8146 0.0
C779 C 0.47394 0.5155 0.83066 0.0
C780 C 0.46167 0.56461 0.82486 0.0
C781 C 0.44953 0.56512 0.85152 0.0
C782 C 0.45168 0.5411 0.86842 0.0
C783 C 0.46373 0.51655 0.8581 0.0
H784 H 0.51299 0.03652 0.69559 0.0
H785 H 0.54342 0.99366 0.62241 0.0
H786 H 0.53404 0.07964 0.67944 0.0
H787 H 0.56354 0.03735 0.60543 0.0
H788 H 0.62504 0.10655 0.59692 0.0
H789 H 0.60287 0.06537 0.61703 0.0
H790 H 0.53553 0.11702 0.64763 0.0
H791 H 0.55862 0.15821 0.62849 0.0
C792 C 0.52344 0.03652 0.67553 0.0
C793 C 0.52673 0.01152 0.66041 0.0
C794 C 0.5356 0.06134 0.66628 0.0
C795 C 0.55123 0.06195 0.64149 0.0
C796 C 0.55245 0.03748 0.62512 0.0
C797 C 0.54036 0.01251 0.6345 0.0
C798 C 0.60623 0.10916 0.60921 0.0
C799 C 0.59382 0.13557 0.61167 0.0
C800 C 0.59306 0.0855 0.62005 0.0
C801 C 0.56688 0.08764 0.6332 0.0
C802 C 0.55563 0.11446 0.63765 0.0
C803 C 0.56907 0.13821 0.62709 0.0
H804 H 0.94133 0.84085 0.13076 0.0
H805 H 0.87953 0.89224 0.09055 0.0
H806 H 0.96173 0.88225 0.15242 0.0
H807 H 0.89887 0.93357 0.11299 0.0
H808 H 0.95779 0.00523 0.12516 0.0
H809 H 0.9392 0.96163 0.10642 0.0
H810 H 0.95896 0.91983 0.18386 0.0
H811 H 0.97864 0.96277 0.2019 0.0
C812 C 0.93124 0.86086 0.12778 0.0
C813 C 0.90868 0.86339 0.10934 0.0
C814 C 0.94312 0.88471 0.13986 0.0
C815 C 0.93247 0.91148 0.13384 0.0
C816 C 0.90827 0.9135 0.11736 0.0
C817 C 0.89669 0.88975 0.10506 0.0
C818 C 0.95894 0.98653 0.13781 0.0
C819 C 0.96956 0.98763 0.16508 0.0
C820 C 0.94775 0.9616 0.12732 0.0
C821 C 0.94682 0.93726 0.14391 0.0
C822 C 0.95919 0.93801 0.17045 0.0
C823 C 0.97051 0.96278 0.18081 0.0
H824 H 0.32694 0.00049 0.4651 0.0
H825 H 0.36071 0.06834 0.5133 0.0
H826 H 0.34446 0.02192 0.4223 0.0
H827 H 0.37531 0.09158 0.47108 0.0
H828 H 0.42323 0.11572 0.39417 0.0
H829 H 0.40413 0.09688 0.43632 0.0
H830 H 0.34031 0.0544 0.38832 0.0
H831 H 0.36206 0.07151 0.34532 0.0
C832 C 0.33872 0.01975 0.46646 0.0
C833 C 0.34352 0.03223 0.4925 0.0
C834 C 0.34808 0.03259 0.44185 0.0
C835 C 0.36131 0.05892 0.44261 0.0
C836 C 0.36614 0.07108 0.46903 0.0
C837 C 0.35786 0.05766 0.49355 0.0
C838 C 0.40461 0.10294 0.39264 0.0
C839 C 0.39432 0.09489 0.36643 0.0
C840 C 0.39343 0.09198 0.41709 0.0
C841 C 0.37076 0.07331 0.41632 0.0
C842 C 0.35843 0.06775 0.39003 0.0
C843 C 0.37031 0.07821 0.36527 0.0
H844 H 0.19568 0.9903 0.96366 0.0
H845 H 0.12294 0.95831 0.00617 0.0
H846 H 0.17935 0.97047 0.92009 0.0
H847 H 0.10571 0.93947 0.96202 0.0
H848 H 0.09694 0.88018 0.89089 0.0
H849 H 0.11702 0.90116 0.93267 0.0
H850 H 0.14753 0.97004 0.88293 0.0
H851 H 0.12842 0.94812 0.84112 0.0
C852 C 0.17566 0.97978 0.9635 0.0
C853 C 0.16072 0.97568 0.98849 0.0
C854 C 0.1663 0.96833 0.93841 0.0
C855 C 0.14156 0.95265 0.93752 0.0
C856 C 0.12536 0.95062 0.96207 0.0
C857 C 0.13486 0.96198 0.98731 0.0
C858 C 0.10918 0.8991 0.88882 0.0
C859 C 0.11169 0.91226 0.86278 0.0
C860 C 0.12001 0.91157 0.91284 0.0
C861 C 0.13316 0.9378 0.91143 0.0
C862 C 0.13756 0.94986 0.88494 0.0
C863 C 0.12701 0.93712 0.86083 0.0
H864 H 0.87367 0.46015 0.4975 0.0
H865 H 0.79791 0.48482 0.53966 0.0
H866 H 0.89132 0.44064 0.54111 0.0
H867 H 0.815 0.46445 0.58282 0.0
H868 H 0.9029 0.37888 0.60939 0.0
H869 H 0.8813 0.40002 0.56848 0.0
H870 H 0.8475 0.46548 0.62051 0.0
H871 H 0.86841 0.44347 0.66154 0.0
C872 C 0.86108 0.46206 0.51618 0.0
C873 C 0.83433 0.47395 0.51498 0.0
C874 C 0.87091 0.45034 0.5411 0.0
C875 C 0.85423 0.45021 0.56538 0.0
C876 C 0.8284 0.464 0.56463 0.0
C877 C 0.81862 0.47575 0.53979 0.0
C878 C 0.88973 0.39706 0.61217 0.0
C879 C 0.88691 0.40931 0.63861 0.0
C880 C 0.87796 0.40962 0.58866 0.0
C881 C 0.86342 0.43501 0.59099 0.0
C882 C 0.85861 0.44599 0.61786 0.0
C883 C 0.87022 0.43319 0.64148 0.0
H884 H 0.69865 0.51547 0.0355 0.0
H885 H 0.62365 0.54113 0.99267 0.0
H886 H 0.68106 0.53508 0.07869 0.0
H887 H 0.6053 0.55973 0.03646 0.0
H888 H 0.62834 0.55492 0.1574 0.0
H889 H 0.64905 0.53365 0.11595 0.0
H890 H 0.61402 0.59938 0.06501 0.0
H891 H 0.59248 0.61966 0.1064 0.0
C892 C 0.67797 0.5246 0.03548 0.0
C893 C 0.66267 0.52696 0.01049 0.0
C894 C 0.66787 0.53589 0.06037 0.0
C895 C 0.64204 0.54969 0.06105 0.0
C896 C 0.62571 0.55005 0.03654 0.0
C897 C 0.63592 0.53884 0.01151 0.0
C898 C 0.62619 0.56541 0.13748 0.0
C899 C 0.60924 0.58913 0.13507 0.0
C900 C 0.6377 0.55304 0.11359 0.0
C901 C 0.63257 0.56432 0.0869 0.0
C902 C 0.61764 0.58953 0.08502 0.0
C903 C 0.60591 0.60163 0.10881 0.0
H904 H 0.39037 0.40548 0.12068 0.0
H905 H 0.34111 0.36913 0.0549 0.0
H906 H 0.43235 0.38416 0.10137 0.0
H907 H 0.38315 0.34861 0.03463 0.0
H908 H 0.46433 0.30009 0.01758 0.0
H909 H 0.42069 0.31696 0.03684 0.0
H910 H 0.46155 0.39326 0.0622 0.0
H911 H 0.50578 0.37567 0.04395 0.0
C912 C 0.38846 0.39196 0.10265 0.0
C913 C 0.36252 0.38845 0.08955 0.0
C914 C 0.41258 0.38036 0.09111 0.0
C915 C 0.41138 0.36537 0.0659 0.0
C916 C 0.38498 0.36002 0.05404 0.0
C917 C 0.36076 0.37141 0.06584 0.0
C918 C 0.46397 0.32073 0.02682 0.0
C919 C 0.4887 0.33643 0.02943 0.0
C920 C 0.43882 0.3304 0.03791 0.0
C921 C 0.4376 0.35619 0.05175 0.0
C922 C 0.46187 0.37288 0.05247 0.0
C923 C 0.48716 0.36309 0.04146 0.0
H924 H 0.00663 0.1247 0.95713 0.0
H925 H 0.96509 0.1986 0.98769 0.0
H926 H 0.96215 0.10737 0.9392 0.0
H927 H 0.92109 0.18196 0.96891 0.0
H928 H 0.89034 0.09789 0.88102 0.0
H929 H 0.93234 0.11884 0.90072 0.0
H930 H 0.88402 0.14914 0.97062 0.0
H931 H 0.84194 0.12897 0.95009 0.0
C932 C 0.98793 0.1369 0.96066 0.0
C933 C 0.98946 0.16307 0.9737 0.0
C934 C 0.96251 0.12729 0.94986 0.0
C935 C 0.93812 0.14367 0.95186 0.0
C936 C 0.93935 0.16882 0.96682 0.0
C937 C 0.96466 0.17834 0.97765 0.0
C938 C 0.88858 0.11025 0.89988 0.0
C939 C 0.86291 0.11237 0.91378 0.0
C940 C 0.91273 0.1216 0.9116 0.0
C941 C 0.91179 0.13493 0.93774 0.0
C942 C 0.8856 0.139 0.9505 0.0
C943 C 0.86136 0.12785 0.93856 0.0
H944 H 0.65279 0.86188 0.42347 0.0
H945 H 0.60355 0.92595 0.38401 0.0
H946 H 0.60995 0.83976 0.44056 0.0
H947 H 0.5617 0.90634 0.40292 0.0
H948 H 0.4849 0.86193 0.43046 0.0
H949 H 0.52679 0.87743 0.40717 0.0
H950 H 0.57667 0.84249 0.47404 0.0
H951 H 0.53416 0.82426 0.49544 0.0
C952 C 0.63279 0.87077 0.41783 0.0
C953 C 0.63152 0.89568 0.40252 0.0
C954 C 0.60814 0.85861 0.42829 0.0
C955 C 0.58187 0.87149 0.42407 0.0
C956 C 0.58092 0.8952 0.40675 0.0
C957 C 0.60522 0.9067 0.39579 0.0
C958 C 0.50482 0.85834 0.44056 0.0
C959 C 0.50625 0.84266 0.46517 0.0
C960 C 0.52916 0.86714 0.4271 0.0
C961 C 0.55577 0.86147 0.43844 0.0
C962 C 0.55694 0.84682 0.464 0.0
C963 C 0.53251 0.83701 0.47684 0.0
H964 H 0.99552 0.62667 0.53872 0.0
H965 H 0.0375 0.70271 0.51456 0.0
H966 H 0.0395 0.60847 0.55695 0.0
H967 H 0.08096 0.68513 0.53369 0.0
H968 H 0.10922 0.59584 0.61718 0.0
H969 H 0.0678 0.61744 0.59708 0.0
H970 H 0.11852 0.65286 0.53138 0.0
H971 H 0.16006 0.63191 0.55236 0.0
C972 C 0.01422 0.63922 0.53667 0.0
C973 C 0.01289 0.6662 0.52534 0.0
C974 C 0.03936 0.62906 0.54765 0.0
C975 C 0.06369 0.64567 0.54757 0.0
C976 C 0.06274 0.67176 0.53429 0.0
C977 C 0.03772 0.68184 0.52327 0.0
C978 C 0.11159 0.60933 0.59917 0.0
C979 C 0.13782 0.61267 0.58658 0.0
C980 C 0.08779 0.62112 0.5872 0.0
C981 C 0.0896 0.63617 0.56206 0.0
C982 C 0.11626 0.64136 0.5507 0.0
C983 C 0.14017 0.62973 0.56291 0.0
H984 H 0.92949 0.48702 0.64007 0.0
H985 H 0.99717 0.53433 0.67549 0.0
H986 H 0.90715 0.52961 0.62506 0.0
H987 H 0.97662 0.57745 0.65771 0.0
H988 H 0.92832 0.65493 0.63871 0.0
H989 H 0.94394 0.61171 0.66121 0.0
H990 H 0.90445 0.56413 0.59522 0.0
H991 H 0.88706 0.60646 0.57518 0.0
C992 C 0.94032 0.50664 0.64328 0.0
C993 C 0.96546 0.50738 0.65813 0.0
C994 C 0.92743 0.53134 0.63478 0.0
C995 C 0.93988 0.55756 0.63989 0.0
C996 C 0.96582 0.55802 0.65383 0.0
C997 C 0.97812 0.53325 0.66337 0.0
C998 C 0.92199 0.63504 0.63004 0.0
C999 C 0.90661 0.634 0.60518 0.0
C1000 C 0.93154 0.61018 0.64242 0.0
C1001 C 0.92632 0.58397 0.6298 0.0
C1002 C 0.90896 0.58334 0.60614 0.0
C1003 C 0.89891 0.60788 0.5944 0.0
H1004 H 0.54099 0.50543 0.12325 0.0
H1005 H 0.51081 0.46401 0.19742 0.0
H1006 H 0.56013 0.46122 0.10662 0.0
H1007 H 0.53088 0.42032 0.18152 0.0
H1008 H 0.55289 0.34091 0.13025 0.0
H1009 H 0.53093 0.38264 0.14964 0.0
H1010 H 0.59923 0.43274 0.11849 0.0
H1011 H 0.6203 0.39107 0.09827 0.0
C1012 C 0.53778 0.4868 0.13565 0.0
C1013 C 0.52452 0.48833 0.16172 0.0
C1014 C 0.5493 0.46153 0.12645 0.0
C1015 C 0.54785 0.4373 0.14315 0.0
C1016 C 0.53259 0.43845 0.16814 0.0
C1017 C 0.52101 0.46359 0.17724 0.0
C1018 C 0.56377 0.36069 0.12877 0.0
C1019 C 0.58846 0.3628 0.1132 0.0
C1020 C 0.551 0.38473 0.13948 0.0
C1021 C 0.56286 0.41127 0.13491 0.0
C1022 C 0.58898 0.41283 0.12159 0.0
C1023 C 0.6015 0.38889 0.11067 0.0
H1024 H 0.49684 0.96231 0.3233 0.0
H1025 H 0.43114 0.01259 0.3583 0.0
H1026 H 0.47416 0.92015 0.34083 0.0
H1027 H 0.40662 0.97112 0.37286 0.0
H1028 H 0.38128 0.89499 0.42141 0.0
H1029 H 0.40076 0.93655 0.40177 0.0
H1030 H 0.44043 0.88732 0.33707 0.0
H1031 H 0.4227 0.84484 0.35931 0.0
C1032 C 0.47779 0.96425 0.33531 0.0
C1033 C 0.46628 0.99066 0.34049 0.0
C1034 C 0.46422 0.94004 0.34468 0.0
C1035 C 0.43812 0.94165 0.35829 0.0
C1036 C 0.42692 0.96842 0.36341 0.0
C1037 C 0.44109 0.99251 0.35516 0.0
C1038 C 0.39356 0.89307 0.4025 0.0
C1039 C 0.40078 0.86664 0.39215 0.0
C1040 C 0.40489 0.91719 0.391 0.0
C1041 C 0.42305 0.91584 0.36793 0.0
C1042 C 0.42755 0.88942 0.35549 0.0
C1043 C 0.41672 0.86497 0.36767 0.0
H1044 H 0.05645 0.15896 0.87007 0.0
H1045 H 0.12079 0.10793 0.90657 0.0
H1046 H 0.03514 0.11747 0.84948 0.0
H1047 H 0.10049 0.06651 0.88513 0.0
H1048 H 0.042 0.99437 0.87592 0.0
H1049 H 0.06071 0.03821 0.89395 0.0
H1050 H 0.03647 0.07998 0.81777 0.0
H1051 H 0.01671 0.03673 0.80048 0.0
C1052 C 0.06685 0.13902 0.87239 0.0
C1053 C 0.09044 0.13661 0.88952 0.0
C1054 C 0.05445 0.11512 0.86095 0.0
C1055 C 0.06561 0.08842 0.8663 0.0
C1056 C 0.09073 0.08653 0.88136 0.0
C1057 C 0.10284 0.11033 0.89304 0.0
C1058 C 0.03983 0.01312 0.86347 0.0
C1059 C 0.02802 0.01194 0.8367 0.0
C1060 C 0.0511 0.03818 0.87351 0.0
C1061 C 0.0509 0.06256 0.85697 0.0
C1062 C 0.03717 0.06175 0.83111 0.0
C1063 C 0.02579 0.03683 0.82118 0.0
H1064 H 0.67419 0.00022 0.53402 0.0
H1065 H 0.64126 0.93211 0.4856 0.0
H1066 H 0.65681 0.9785 0.57673 0.0
H1067 H 0.62697 0.90855 0.52769 0.0
H1068 H 0.57894 0.88386 0.60428 0.0
H1069 H 0.5982 0.90272 0.56225 0.0
H1070 H 0.66113 0.9461 0.61066 0.0
H1071 H 0.63911 0.929 0.65351 0.0
C1072 C 0.66262 0.98085 0.5326 0.0
C1073 C 0.65798 0.96836 0.50654 0.0
C1074 C 0.65337 0.96783 0.55715 0.0
C1075 C 0.64048 0.94133 0.55627 0.0
C1076 C 0.63585 0.92918 0.52983 0.0
C1077 C 0.64394 0.94278 0.50538 0.0
C1078 C 0.59742 0.89682 0.60591 0.0
C1079 C 0.60732 0.9052 0.63215 0.0
C1080 C 0.6087 0.90781 0.58154 0.0
C1081 C 0.63112 0.92678 0.58247 0.0
C1082 C 0.64318 0.93254 0.60883 0.0
C1083 C 0.63117 0.92208 0.63351 0.0
H1084 H 0.86881 0.05571 0.16207 0.0
H1085 H 0.9044 0.12105 0.11156 0.0
H1086 H 0.84787 0.03488 0.12049 0.0
H1087 H 0.88277 0.10111 0.07007 0.0
H1088 H 0.79912 0.01728 0.03906 0.0
H1089 H 0.81582 0.03696 0.08262 0.0
H1090 H 0.89278 0.06087 0.04211 0.0
H1091 H 0.87548 0.04211 0.99802 0.0
C1092 C 0.87083 0.06643 0.14226 0.0
C1093 C 0.88784 0.09014 0.13997 0.0
C1094 C 0.85921 0.05431 0.11832 0.0
C1095 C 0.86436 0.06583 0.09174 0.0
C1096 C 0.87917 0.09112 0.09003 0.0
C1097 C 0.89095 0.103 0.11386 0.0
C1098 C 0.81986 0.02627 0.0395 0.0
C1099 C 0.83585 0.02837 0.0149 0.0
C1100 C 0.82942 0.0376 0.06458 0.0
C1101 C 0.85533 0.05121 0.06579 0.0
C1102 C 0.8723 0.05133 0.04172 0.0
C1103 C 0.86266 0.04005 0.01653 0.0
H1104 H 0.20171 0.51723 0.46211 0.0
H1105 H 0.1256 0.542 0.50358 0.0
H1106 H 0.18466 0.53669 0.41858 0.0
H1107 H 0.10792 0.56051 0.45953 0.0
H1108 H 0.09576 0.62046 0.38992 0.0
H1109 H 0.11761 0.60066 0.43137 0.0
H1110 H 0.15244 0.53444 0.38095 0.0
H1111 H 0.1313 0.55516 0.3394 0.0
C1112 C 0.18095 0.52615 0.46176 0.0
C1113 C 0.16513 0.52832 0.48647 0.0
C1114 C 0.17118 0.53736 0.43671 0.0
C1115 C 0.14524 0.55087 0.43563 0.0
C1116 C 0.12843 0.55104 0.45981 0.0
C1117 C 0.13828 0.5399 0.48499 0.0
C1118 C 0.10922 0.60244 0.38761 0.0
C1119 C 0.11228 0.58955 0.36152 0.0
C1120 C 0.12114 0.59064 0.41142 0.0
C1121 C 0.13601 0.5654 0.4097 0.0
C1122 C 0.14106 0.55384 0.38312 0.0
C1123 C 0.12932 0.56589 0.35921 0.0
H1124 H 0.29367 0.44863 0.96971 0.0
H1125 H 0.37301 0.48287 0.99602 0.0
H1126 H 0.31422 0.43372 0.92608 0.0
H1127 H 0.39339 0.46835 0.95105 0.0
H1128 H 0.40131 0.4642 0.85181 0.0
H1129 H 0.37854 0.48094 0.89436 0.0
H1130 H 0.35892 0.39605 0.91713 0.0
H1131 H 0.38313 0.37919 0.87506 0.0
C1132 C 0.31545 0.45349 0.96611 0.0
C1133 C 0.3317 0.46719 0.98653 0.0
C1134 C 0.32715 0.44466 0.94107 0.0
C1135 C 0.35525 0.44978 0.93542 0.0
C1136 C 0.37155 0.46421 0.95516 0.0
C1137 C 0.35993 0.47255 0.98076 0.0
C1138 C 0.39127 0.44921 0.86549 0.0
C1139 C 0.39291 0.42048 0.85978 0.0
C1140 C 0.37876 0.45876 0.88996 0.0
C1141 C 0.36735 0.43973 0.90895 0.0
C1142 C 0.36763 0.41105 0.90262 0.0
C1143 C 0.38083 0.40143 0.87837 0.0
H1144 H 0.6577 0.62726 0.94325 0.0
H1145 H 0.60773 0.59181 0.87752 0.0
H1146 H 0.61586 0.64673 0.96473 0.0
H1147 H 0.56588 0.61235 0.89791 0.0
H1148 H 0.49272 0.62047 0.95537 0.0
H1149 H 0.53673 0.60292 0.93653 0.0
H1150 H 0.57853 0.6778 0.96457 0.0
H1151 H 0.53521 0.69439 0.98457 0.0
C1152 C 0.63789 0.625 0.93258 0.0
C1153 C 0.63592 0.60848 0.90853 0.0
C1154 C 0.61377 0.63581 0.94507 0.0
C1155 C 0.58722 0.6305 0.93352 0.0
C1156 C 0.58575 0.61608 0.90798 0.0
C1157 C 0.6098 0.60495 0.89581 0.0
C1158 C 0.51152 0.63265 0.95836 0.0
C1159 C 0.51035 0.65889 0.97132 0.0
C1160 C 0.53669 0.62294 0.947 0.0
C1161 C 0.56116 0.63931 0.94823 0.0
C1162 C 0.56028 0.66456 0.96307 0.0
C1163 C 0.5353 0.6741 0.97459 0.0
H1164 H 0.03735 0.80014 0.02023 0.0
H1165 H 0.9945 0.87675 0.0407 0.0
H1166 H 0.08005 0.81833 0.04024 0.0
H1167 H 0.03789 0.89569 0.05958 0.0
H1168 H 0.1065 0.9116 0.12015 0.0
H1169 H 0.06541 0.88927 0.10017 0.0
H1170 H 0.1176 0.84964 0.03813 0.0
H1171 H 0.15873 0.87113 0.05919 0.0
C1172 C 0.03723 0.82125 0.02833 0.0
C1173 C 0.01233 0.83688 0.02912 0.0
C1174 C 0.06185 0.83171 0.03983 0.0
C1175 C 0.0624 0.85824 0.05222 0.0
C1176 C 0.03804 0.87477 0.05104 0.0
C1177 C 0.01325 0.86418 0.03967 0.0
C1178 C 0.10921 0.89706 0.10303 0.0
C1179 C 0.13574 0.89268 0.09146 0.0
C1180 C 0.08561 0.88484 0.09108 0.0
C1181 C 0.08796 0.86833 0.06692 0.0
C1182 C 0.11488 0.86221 0.05669 0.0
C1183 C 0.13857 0.87419 0.06896 0.0
H1184 H 0.39735 0.07312 0.6179 0.0
H1185 H 0.34859 0.13676 0.57718 0.0
H1186 H 0.43945 0.09254 0.5992 0.0
H1187 H 0.3916 0.1586 0.56019 0.0
H1188 H 0.46733 0.17208 0.50473 0.0
H1189 H 0.42477 0.15459 0.52663 0.0
H1190 H 0.47448 0.12152 0.59457 0.0
H1191 H 0.51646 0.13632 0.5709 0.0
C1192 C 0.39584 0.09227 0.60593 0.0
C1193 C 0.36963 0.1032 0.59875 0.0
C1194 C 0.42026 0.10362 0.59506 0.0
C1195 C 0.41947 0.12704 0.57735 0.0
C1196 C 0.39327 0.13993 0.57277 0.0
C1197 C 0.36852 0.12795 0.58317 0.0
C1198 C 0.46894 0.15991 0.52373 0.0
C1199 C 0.49516 0.15457 0.53558 0.0
C1200 C 0.44449 0.15054 0.53683 0.0
C1201 C 0.4456 0.13666 0.5628 0.0
C1202 C 0.47218 0.13127 0.57435 0.0
C1203 C 0.49655 0.13964 0.56068 0.0
H1204 H 0.85089 0.39695 0.46399 0.0
H1205 H 0.87809 0.38224 0.3795 0.0
H1206 H 0.89348 0.37498 0.48174 0.0
H1207 H 0.92019 0.35884 0.39732 0.0
H1208 H 0.97054 0.29235 0.45328 0.0
H1209 H 0.92697 0.3123 0.4375 0.0
H1210 H 0.95221 0.39294 0.46824 0.0
H1211 H 0.99721 0.37318 0.48359 0.0
C1212 C 0.86541 0.38776 0.44927 0.0
C1213 C 0.86079 0.39019 0.4204 0.0
C1214 C 0.88992 0.37576 0.45942 0.0
C1215 C 0.91005 0.36565 0.44084 0.0
C1216 C 0.90483 0.36662 0.41197 0.0
C1217 C 0.88054 0.37932 0.40178 0.0
C1218 C 0.96704 0.31435 0.45711 0.0
C1219 C 0.9876 0.33117 0.46992 0.0
C1220 C 0.94201 0.32568 0.4478 0.0
C1221 C 0.93646 0.354 0.45155 0.0
C1222 C 0.95627 0.37092 0.46515 0.0
C1223 C 0.98188 0.35965 0.47398 0.0
H1224 H 0.23672 0.38947 0.25119 0.0
H1225 H 0.18176 0.35327 0.18946 0.0
H1226 H 0.20734 0.37057 0.28815 0.0
H1227 H 0.15233 0.3346 0.22652 0.0
H1228 H 0.14427 0.34973 0.3508 0.0
H1229 H 0.16044 0.37449 0.30939 0.0
H1230 H 0.15761 0.29758 0.26248 0.0
H1231 H 0.1411 0.27287 0.30396 0.0
C1232 C 0.21827 0.37772 0.24547 0.0
C1233 C 0.21176 0.3728 0.21733 0.0
C1234 C 0.20126 0.36709 0.26666 0.0
C1235 C 0.1774 0.3512 0.26022 0.0
C1236 C 0.17061 0.34666 0.23212 0.0
C1237 C 0.18751 0.35744 0.21092 0.0
C1238 C 0.14615 0.33833 0.33135 0.0
C1239 C 0.14182 0.30933 0.33061 0.0
C1240 C 0.15568 0.35245 0.30774 0.0
C1241 C 0.16107 0.33782 0.28294 0.0
C1242 C 0.15373 0.30941 0.28134 0.0
C1243 C 0.14409 0.29525 0.30503 0.0
H1244 H 0.35896 0.6532 0.84569 0.0
H1245 H 0.35861 0.73128 0.8008 0.0
H1246 H 0.34252 0.629 0.8041 0.0
H1247 H 0.34181 0.7071 0.75908 0.0
H1248 H 0.31801 0.65135 0.68526 0.0
H1249 H 0.34745 0.67074 0.72199 0.0
H1250 H 0.29487 0.63222 0.78425 0.0
H1251 H 0.26548 0.61271 0.74767 0.0
C1252 C 0.35629 0.66501 0.82659 0.0
C1253 C 0.35976 0.69414 0.82648 0.0
C1254 C 0.34658 0.65121 0.80288 0.0
C1255 C 0.34011 0.66627 0.77859 0.0
C1256 C 0.34653 0.69493 0.77754 0.0
C1257 C 0.35636 0.70879 0.80135 0.0
C1258 C 0.31282 0.64679 0.70679 0.0
C1259 C 0.28926 0.63049 0.7135 0.0
C1260 C 0.3297 0.65799 0.7278 0.0
C1261 C 0.32362 0.65289 0.75599 0.0
C1262 C 0.30041 0.63616 0.76269 0.0
C1263 C 0.28339 0.62516 0.74172 0.0
H1264 H 0.6395 0.22564 0.7002 0.0
H1265 H 0.64405 0.14943 0.65244 0.0
H1266 H 0.65595 0.20061 0.74152 0.0
H1267 H 0.66009 0.12434 0.69367 0.0
H1268 H 0.68054 0.14419 0.81398 0.0
H1269 H 0.65101 0.16298 0.77706 0.0
H1270 H 0.70676 0.12863 0.71515 0.0
H1271 H 0.73622 0.10966 0.75193 0.0
C1272 C 0.64275 0.20331 0.69889 0.0
C1273 C 0.64087 0.18952 0.67312 0.0
C1274 C 0.65236 0.18897 0.72249 0.0
C1275 C 0.66006 0.16067 0.7206 0.0
C1276 C 0.65504 0.1463 0.69556 0.0
C1277 C 0.64557 0.16059 0.67206 0.0
C1278 C 0.68641 0.14038 0.79249 0.0
C1279 C 0.7109 0.12547 0.78594 0.0
C1280 C 0.66946 0.15124 0.77137 0.0
C1281 C 0.67644 0.14721 0.74322 0.0
C1282 C 0.70052 0.13172 0.73666 0.0
C1283 C 0.71758 0.12103 0.75775 0.0
H1284 H 0.86041 0.84972 0.15217 0.0
H1285 H 0.86032 0.77226 0.19813 0.0
H1286 H 0.84533 0.87463 0.19386 0.0
H1287 H 0.8446 0.79706 0.23982 0.0
H1288 H 0.76897 0.89208 0.25047 0.0
H1289 H 0.79861 0.87278 0.21415 0.0
H1290 H 0.84976 0.8328 0.27665 0.0
H1291 H 0.81984 0.8519 0.31321 0.0
C1292 C 0.85803 0.83819 0.17148 0.0
C1293 C 0.86117 0.80904 0.1719 0.0
C1294 C 0.84913 0.85239 0.19527 0.0
C1295 C 0.84296 0.8377 0.21989 0.0
C1296 C 0.8491 0.80899 0.22116 0.0
C1297 C 0.85825 0.79476 0.19731 0.0
C1298 C 0.78664 0.87938 0.25657 0.0
C1299 C 0.79185 0.87344 0.28479 0.0
C1300 C 0.80385 0.86851 0.23572 0.0
C1301 C 0.8267 0.85136 0.24251 0.0
C1302 C 0.83228 0.84584 0.27075 0.0
C1303 C 0.81513 0.85686 0.29167 0.0
H1304 H 0.34831 0.13745 0.35 0.0
H1305 H 0.30033 0.13775 0.27383 0.0
H1306 H 0.30769 0.15364 0.37592 0.0
H1307 H 0.25965 0.15449 0.29967 0.0
H1308 H 0.1883 0.17973 0.35679 0.0
H1309 H 0.22402 0.14952 0.33691 0.0
H1310 H 0.288 0.2011 0.37388 0.0
H1311 H 0.25236 0.23124 0.394 0.0
C1312 C 0.32872 0.13998 0.339 0.0
C1313 C 0.32746 0.1366 0.3099 0.0
C1314 C 0.30558 0.14959 0.35378 0.0
C1315 C 0.28075 0.15614 0.33971 0.0
C1316 C 0.27854 0.14971 0.3111 0.0
C1317 C 0.30177 0.13992 0.29629 0.0
C1318 C 0.20999 0.18455 0.36094 0.0
C1319 C 0.21745 0.20808 0.37693 0.0
C1320 C 0.23042 0.1672 0.34946 0.0
C1321 C 0.2588 0.17282 0.35388 0.0
C1322 C 0.26627 0.19591 0.37045 0.0
C1323 C 0.24584 0.21337 0.3818 0.0
H1324 H 0.15414 0.8645 0.84924 0.0
H1325 H 0.20159 0.86324 0.77272 0.0
H1326 H 0.19518 0.84941 0.87516 0.0
H1327 H 0.24269 0.84757 0.79856 0.0
H1328 H 0.25081 0.77224 0.89387 0.0
H1329 H 0.21509 0.80223 0.87389 0.0
H1330 H 0.27878 0.85307 0.83532 0.0
H1331 H 0.31469 0.8229 0.85515 0.0
C1332 C 0.17368 0.86196 0.83814 0.0
C1333 C 0.17468 0.86475 0.80896 0.0
C1334 C 0.19709 0.85301 0.85292 0.0
C1335 C 0.22193 0.8465 0.8388 0.0
C1336 C 0.22383 0.85235 0.81005 0.0
C1337 C 0.20034 0.8615 0.79522 0.0
C1338 C 0.25728 0.78995 0.88139 0.0
C1339 C 0.28564 0.79498 0.87603 0.0
C1340 C 0.23678 0.80734 0.87011 0.0
C1341 C 0.2441 0.83016 0.85309 0.0
C1342 C 0.27248 0.83562 0.84824 0.0
C1343 C 0.29302 0.81832 0.8597 0.0
H1344 H 0.7493 0.27326 0.60935 0.0
H1345 H 0.68412 0.32035 0.65028 0.0
H1346 H 0.78411 0.30436 0.62926 0.0
H1347 H 0.71912 0.35164 0.67005 0.0
H1348 H 0.84289 0.36822 0.65335 0.0
H1349 H 0.80163 0.35263 0.62813 0.0
H1350 H 0.75641 0.34691 0.70593 0.0
H1351 H 0.7977 0.36319 0.73107 0.0
C1352 C 0.74235 0.29039 0.62236 0.0
C1353 C 0.71391 0.29415 0.6283 0.0
C1354 C 0.76229 0.30843 0.63357 0.0
C1355 C 0.75434 0.33062 0.6511 0.0
C1356 C 0.72588 0.33472 0.65668 0.0
C1357 C 0.70587 0.31677 0.64528 0.0
C1358 C 0.82373 0.36488 0.66489 0.0
C1359 C 0.82348 0.36667 0.69415 0.0
C1360 C 0.80022 0.3556 0.6505 0.0
C1361 C 0.77608 0.34771 0.66513 0.0
C1362 C 0.77475 0.35274 0.69406 0.0
C1363 C 0.79833 0.36226 0.70849 0.0
H1364 H 0.65223 0.63865 0.14883 0.0
H1365 H 0.6981 0.63899 0.2263 0.0
H1366 H 0.69365 0.65469 0.12402 0.0
H1367 H 0.73958 0.65549 0.20156 0.0
H1368 H 0.81276 0.68024 0.14618 0.0
H1369 H 0.77631 0.65033 0.1654 0.0
H1370 H 0.71363 0.70196 0.12636 0.0
H1371 H 0.74994 0.73174 0.10695 0.0
C1372 C 0.6715 0.64124 0.16038 0.0
C1373 C 0.67193 0.63791 0.18952 0.0
C1374 C 0.69512 0.65072 0.14623 0.0
C1375 C 0.71962 0.65715 0.16095 0.0
C1376 C 0.72097 0.6508 0.18962 0.0
C1377 C 0.69728 0.64116 0.20381 0.0
C1378 C 0.79121 0.68511 0.14145 0.0
C1379 C 0.78429 0.70855 0.12508 0.0
C1380 C 0.77035 0.66794 0.15255 0.0
C1381 C 0.74211 0.67365 0.14732 0.0
C1382 C 0.73523 0.69667 0.13041 0.0
C1383 C 0.75605 0.71394 0.11947 0.0
H1384 H 0.39185 0.24756 0.22981 0.0
H1385 H 0.35069 0.18393 0.18085 0.0
H1386 H 0.37221 0.28334 0.19957 0.0
H1387 H 0.33119 0.21986 0.15051 0.0
H1388 H 0.34917 0.34336 0.13545 0.0
H1389 H 0.3738 0.30182 0.15138 0.0
H1390 H 0.29554 0.25735 0.15617 0.0
H1391 H 0.27094 0.29895 0.13982 0.0
C1392 C 0.37884 0.24116 0.21248 0.0
C1393 C 0.37277 0.21286 0.20791 0.0
C1394 C 0.36777 0.26166 0.19494 0.0
C1395 C 0.35027 0.2544 0.1725 0.0
C1396 C 0.34454 0.22609 0.16765 0.0
C1397 C 0.35578 0.20554 0.18505 0.0
C1398 C 0.33739 0.32434 0.13882 0.0
C1399 C 0.30814 0.32439 0.13674 0.0
C1400 C 0.35145 0.30067 0.14825 0.0
C1401 C 0.33651 0.27662 0.15582 0.0
C1402 C 0.30762 0.27562 0.15058 0.0
C1403 C 0.29351 0.29938 0.14102 0.0
H1404 H 0.76772 0.2003 0.86183 0.0
H1405 H 0.84717 0.15856 0.86873 0.0
H1406 H 0.79136 0.24229 0.84488 0.0
H1407 H 0.87081 0.20044 0.8521 0.0
H1408 H 0.84609 0.31682 0.81991 0.0
H1409 H 0.82653 0.28109 0.85057 0.0
H1410 H 0.86874 0.21736 0.80289 0.0
H1411 H 0.88832 0.25292 0.77226 0.0
C1412 C 0.79031 0.20059 0.86109 0.0
C1413 C 0.80562 0.17616 0.86627 0.0
C1414 C 0.80386 0.22454 0.85115 0.0
C1415 C 0.83286 0.22432 0.8464 0.0
C1416 C 0.84838 0.20096 0.85488 0.0
C1417 C 0.83488 0.17711 0.86471 0.0
C1418 C 0.85141 0.29519 0.81608 0.0
C1419 C 0.86876 0.28773 0.79352 0.0
C1420 C 0.84013 0.27476 0.83366 0.0
C1421 C 0.84626 0.24646 0.82931 0.0
C1422 C 0.86401 0.23906 0.8071 0.0
C1423 C 0.87503 0.25942 0.78936 0.0
H1424 H 0.645 0.68655 0.31898 0.0
H1425 H 0.60747 0.74903 0.26581 0.0
H1426 H 0.66391 0.72328 0.34876 0.0
H1427 H 0.6266 0.78555 0.29533 0.0
H1428 H 0.6487 0.84803 0.35721 0.0
H1429 H 0.62365 0.8066 0.34168 0.0
H1430 H 0.70041 0.75942 0.34412 0.0
H1431 H 0.72533 0.80088 0.3603 0.0
C1432 C 0.64059 0.70808 0.31371 0.0
C1433 C 0.62479 0.71482 0.28985 0.0
C1434 C 0.6515 0.7291 0.33079 0.0
C1435 C 0.64666 0.75732 0.32454 0.0
C1436 C 0.63032 0.764 0.30107 0.0
C1437 C 0.61955 0.74304 0.28394 0.0
C1438 C 0.65999 0.82852 0.35542 0.0
C1439 C 0.68899 0.82769 0.35961 0.0
C1440 C 0.64571 0.80488 0.34625 0.0
C1441 C 0.6602 0.77997 0.34087 0.0
C1442 C 0.68865 0.77832 0.348 0.0
C1443 C 0.70294 0.80203 0.35741 0.0
H1444 H 0.15212 0.81736 0.68024 0.0
H1445 H 0.11059 0.75295 0.72792 0.0
H1446 H 0.17138 0.78197 0.64911 0.0
H1447 H 0.12996 0.7177 0.69686 0.0
H1448 H 0.23079 0.70232 0.63657 0.0
H1449 H 0.20672 0.74387 0.65379 0.0
H1450 H 0.1279 0.70053 0.64808 0.0
H1451 H 0.15202 0.65904 0.63123 0.0
C1452 C 0.14691 0.79569 0.684 0.0
C1453 C 0.12985 0.78799 0.70672 0.0
C1454 C 0.15801 0.77545 0.66614 0.0
C1455 C 0.15205 0.74708 0.67037 0.0
C1456 C 0.13456 0.73944 0.69272 0.0
C1457 C 0.12366 0.75963 0.71072 0.0
C1458 C 0.20821 0.70218 0.63769 0.0
C1459 C 0.19328 0.67744 0.63289 0.0
C1460 C 0.19441 0.72589 0.64779 0.0
C1461 C 0.16551 0.72514 0.65307 0.0
C1462 C 0.15027 0.70147 0.64492 0.0
C1463 C 0.16403 0.67784 0.63494 0.0
H1464 H 0.77046 0.60899 0.75083 0.0
H1465 H 0.8197 0.64931 0.81476 0.0
H1466 H 0.80105 0.62836 0.71523 0.0
H1467 H 0.85047 0.6685 0.77899 0.0
H1468 H 0.86506 0.65076 0.65521 0.0
H1469 H 0.84883 0.62617 0.69666 0.0
H1470 H 0.84611 0.70421 0.74168 0.0
H1471 H 0.86296 0.72871 0.70021 0.0
C1472 C 0.78793 0.62176 0.75734 0.0
C1473 C 0.79246 0.62766 0.78568 0.0
C1474 C 0.80568 0.63267 0.73693 0.0
C1475 C 0.82835 0.64984 0.7443 0.0
C1476 C 0.83316 0.65542 0.77265 0.0
C1477 C 0.81551 0.64435 0.79311 0.0
C1478 C 0.86215 0.66246 0.67434 0.0
C1479 C 0.86501 0.69165 0.67448 0.0
C1480 C 0.8525 0.64845 0.69796 0.0
C1481 C 0.84536 0.66337 0.72215 0.0
C1482 C 0.85134 0.69213 0.72332 0.0
C1483 C 0.86119 0.70618 0.69963 0.0
H1484 H 0.63758 0.27181 0.20358 0.0
H1485 H 0.63334 0.34946 0.15819 0.0
H1486 H 0.65418 0.29691 0.24479 0.0
H1487 H 0.64952 0.37461 0.19933 0.0
H1488 H 0.67921 0.35295 0.31748 0.0
H1489 H 0.64879 0.33303 0.28187 0.0
H1490 H 0.69768 0.37336 0.21778 0.0
H1491 H 0.72803 0.39343 0.25326 0.0
C1492 C 0.63882 0.29438 0.20287 0.0
C1493 C 0.63445 0.30868 0.17769 0.0
C1494 C 0.64856 0.30878 0.2264 0.0
C1495 C 0.65393 0.33765 0.22502 0.0
C1496 C 0.6463 0.35228 0.2008 0.0
C1497 C 0.63668 0.33793 0.17737 0.0
C1498 C 0.68336 0.35783 0.2958 0.0
C1499 C 0.70622 0.37475 0.28824 0.0
C1500 C 0.66591 0.34632 0.27542 0.0
C1501 C 0.6707 0.3517 0.24703 0.0
C1502 C 0.69311 0.36917 0.23952 0.0
C1503 C 0.7107 0.3805 0.25985 0.0
H1504 H 0.30034 0.91611 0.23315 0.0
H1505 H 0.2934 0.8345 0.19611 0.0
H1506 H 0.33137 0.89744 0.26884 0.0
H1507 H 0.32197 0.8149 0.23308 0.0
H1508 H 0.37347 0.78041 0.2998 0.0
H1509 H 0.36161 0.80633 0.25754 0.0
H1510 H 0.32909 0.87345 0.30861 0.0
H1511 H 0.34311 0.84883 0.34988 0.0
C1512 C 0.30532 0.89406 0.23295 0.0
C1513 C 0.29431 0.8766 0.21229 0.0
C1514 C 0.32299 0.88319 0.25348 0.0
C1515 C 0.32905 0.85436 0.2545 0.0
C1516 C 0.31846 0.8372 0.23307 0.0
C1517 C 0.30167 0.84831 0.212 0.0
C1518 C 0.36478 0.80117 0.30177 0.0
C1519 C 0.35848 0.81222 0.32815 0.0
C1520 C 0.35745 0.81591 0.27755 0.0
C1521 C 0.34328 0.84172 0.27931 0.0
C1522 C 0.33983 0.8538 0.30585 0.0
C1523 C 0.34764 0.83941 0.32983 0.0
H1524 H 0.13925 0.22747 0.79958 0.0
H1525 H 0.1371 0.15037 0.84607 0.0
H1526 H 0.15574 0.20217 0.75847 0.0
H1527 H 0.15298 0.12496 0.80497 0.0
H1528 H 0.1814 0.1465 0.6861 0.0
H1529 H 0.151 0.16624 0.72185 0.0
H1530 H 0.20025 0.12601 0.7857 0.0
H1531 H 0.23043 0.10606 0.75011 0.0
C1532 C 0.14096 0.20495 0.80058 0.0
C1533 C 0.13722 0.1909 0.82601 0.0
C1534 C 0.1506 0.19043 0.77709 0.0
C1535 C 0.15643 0.16166 0.77874 0.0
C1536 C 0.14944 0.14723 0.80328 0.0
C1537 C 0.14001 0.16171 0.82671 0.0
C1538 C 0.18561 0.14162 0.70775 0.0
C1539 C 0.20852 0.12475 0.71521 0.0
C1540 C 0.16817 0.15301 0.72822 0.0
C1541 C 0.17308 0.14762 0.7566 0.0
C1542 C 0.19554 0.1302 0.76399 0.0
C1543 C 0.21306 0.11894 0.74357 0.0
H1544 H 0.81498 0.81772 0.65048 0.0
H1545 H 0.75171 0.76763 0.61014 0.0
H1546 H 0.77884 0.84775 0.67002 0.0
H1547 H 0.71568 0.79765 0.6298 0.0
H1548 H 0.69956 0.85956 0.72993 0.0
H1549 H 0.74115 0.84229 0.70587 0.0
H1550 H 0.69727 0.84606 0.62726 0.0
H1551 H 0.65579 0.86298 0.65133 0.0
C1552 C 0.79339 0.81318 0.64559 0.0
C1553 C 0.78626 0.79014 0.62875 0.0
C1554 C 0.77272 0.83041 0.65687 0.0
C1555 C 0.74445 0.82522 0.65133 0.0
C1556 C 0.73733 0.80251 0.63409 0.0
C1557 C 0.75797 0.78513 0.623 0.0
C1558 C 0.69928 0.85794 0.70738 0.0
C1559 C 0.67445 0.86232 0.69251 0.0
C1560 C 0.72301 0.84782 0.69359 0.0
C1561 C 0.72216 0.84207 0.66478 0.0
C1562 C 0.6983 0.8496 0.64957 0.0
C1563 C 0.67468 0.85961 0.6633 0.0
H1564 H 0.74844 0.23189 0.11357 0.0
H1565 H 0.68447 0.18266 0.15394 0.0
H1566 H 0.78403 0.20119 0.13299 0.0
H1567 H 0.72016 0.15195 0.17325 0.0
H1568 H 0.843 0.13509 0.15408 0.0
H1569 H 0.80159 0.15236 0.13017 0.0
H1570 H 0.75808 0.1568 0.20898 0.0
H1571 H 0.79959 0.1392 0.23288 0.0
C1572 C 0.74194 0.21445 0.1264 0.0
C1573 C 0.71359 0.20986 0.13222 0.0
C1574 C 0.76231 0.19667 0.13733 0.0
C1575 C 0.75486 0.17399 0.15449 0.0
C1576 C 0.72653 0.16924 0.16014 0.0
C1577 C 0.70612 0.18687 0.149 0.0
C1578 C 0.82419 0.13864 0.16613 0.0
C1579 C 0.82453 0.13609 0.19535 0.0
C1580 C 0.80061 0.14887 0.15249 0.0
C1581 C 0.77691 0.15673 0.1678 0.0
C1582 C 0.7761 0.15102 0.19663 0.0
C1583 C 0.79978 0.1407 0.21032 0.0
H1584 H 0.20085 0.63818 0.26852 0.0
H1585 H 0.15777 0.62987 0.34716 0.0
H1586 H 0.24269 0.65376 0.29316 0.0
H1587 H 0.19961 0.64474 0.37186 0.0
H1588 H 0.31616 0.67929 0.34751 0.0
H1589 H 0.28098 0.6482 0.32772 0.0
H1590 H 0.21666 0.6931 0.3721 0.0
H1591 H 0.25163 0.72395 0.39203 0.0
C1592 C 0.20081 0.63826 0.29113 0.0
C1593 C 0.17607 0.63317 0.30595 0.0
C1594 C 0.22471 0.64736 0.30528 0.0
C1595 C 0.22413 0.65126 0.3344 0.0
C1596 C 0.20043 0.64266 0.34936 0.0
C1597 C 0.17659 0.63381 0.33525 0.0
C1598 C 0.29453 0.68236 0.35329 0.0
C1599 C 0.28671 0.70427 0.37128 0.0
C1600 C 0.27441 0.66454 0.34189 0.0
C1601 C 0.24609 0.66804 0.34845 0.0
C1602 C 0.23838 0.68947 0.36701 0.0
C1603 C 0.25842 0.70739 0.37823 0.0
H1604 H 0.18474 0.31854 0.84742 0.0
H1605 H 0.24857 0.27084 0.88966 0.0
H1606 H 0.22056 0.34881 0.82738 0.0
H1607 H 0.28419 0.30099 0.86956 0.0
H1608 H 0.30113 0.36097 0.76859 0.0
H1609 H 0.25923 0.34359 0.79216 0.0
H1610 H 0.30144 0.34963 0.87153 0.0
H1611 H 0.34316 0.3663 0.84792 0.0
C1612 C 0.20637 0.3146 0.85262 0.0
C1613 C 0.21377 0.29217 0.87017 0.0
C1614 C 0.22685 0.33194 0.84105 0.0
C1615 C 0.25516 0.32746 0.84704 0.0
C1616 C 0.2625 0.30533 0.86492 0.0
C1617 C 0.24209 0.28786 0.87627 0.0
C1618 C 0.30095 0.35982 0.79117 0.0
C1619 C 0.32545 0.36482 0.80645 0.0
C1620 C 0.27704 0.34965 0.80468 0.0
C1621 C 0.27736 0.34451 0.83363 0.0
C1622 C 0.3008 0.35269 0.84913 0.0
C1623 C 0.32459 0.36265 0.83567 0.0
H1624 H 0.64421 0.81333 0.81996 0.0
H1625 H 0.60759 0.75081 0.76622 0.0
H1626 H 0.6633 0.77663 0.84965 0.0
H1627 H 0.62686 0.71428 0.79575 0.0
H1628 H 0.64911 0.65193 0.85824 0.0
H1629 H 0.62385 0.69311 0.84236 0.0
H1630 H 0.70032 0.7408 0.84469 0.0
H1631 H 0.7255 0.69955 0.86104 0.0
C1632 C 0.64 0.79179 0.81457 0.0
C1633 C 0.62443 0.78504 0.79055 0.0
C1634 C 0.65104 0.77078 0.8316 0.0
C1635 C 0.64653 0.74256 0.82517 0.0
C1636 C 0.63035 0.73584 0.8016 0.0
C1637 C 0.61948 0.7568 0.78448 0.0
C1638 C 0.6603 0.6715 0.85634 0.0
C1639 C 0.6893 0.67252 0.86054 0.0
C1640 C 0.6459 0.695 0.84696 0.0
C1641 C 0.66023 0.71998 0.84149 0.0
C1642 C 0.68868 0.72183 0.84864 0.0
C1643 C 0.70311 0.69825 0.85818 0.0
H1644 H 0.15068 0.85049 0.14553 0.0
H1645 H 0.22694 0.80308 0.13897 0.0
H1646 H 0.12618 0.80911 0.16216 0.0
H1647 H 0.20251 0.7616 0.156 0.0
H1648 H 0.11206 0.74974 0.23725 0.0
H1649 H 0.13097 0.78696 0.20828 0.0
H1650 H 0.16517 0.72591 0.15151 0.0
H1651 H 0.14645 0.68853 0.1806 0.0
C1652 C 0.16198 0.83094 0.14683 0.0
C1653 C 0.19076 0.83001 0.14129 0.0
C1654 C 0.14802 0.80733 0.15662 0.0
C1655 C 0.16258 0.78231 0.16115 0.0
C1656 C 0.19071 0.7806 0.1528 0.0
C1657 C 0.2047 0.8043 0.14286 0.0
C1658 C 0.12342 0.74419 0.21852 0.0
C1659 C 0.12778 0.7161 0.21139 0.0
C1660 C 0.13407 0.76555 0.20173 0.0
C1661 C 0.14945 0.75938 0.17747 0.0
C1662 C 0.15352 0.73133 0.17011 0.0
C1663 C 0.14269 0.70993 0.1868 0.0
H1664 H 0.35299 0.14891 0.64812 0.0
H1665 H 0.27727 0.19698 0.63999 0.0
H1666 H 0.37765 0.19026 0.66452 0.0
H1667 H 0.30183 0.23838 0.65682 0.0
H1668 H 0.39114 0.25059 0.73906 0.0
H1669 H 0.37269 0.21308 0.71018 0.0
H1670 H 0.33921 0.27361 0.65242 0.0
H1671 H 0.35738 0.31123 0.6814 0.0
C1672 C 0.34184 0.16857 0.64905 0.0
C1673 C 0.31313 0.16971 0.64317 0.0
C1674 C 0.35589 0.19217 0.6587 0.0
C1675 C 0.3415 0.21737 0.66273 0.0
C1676 C 0.3135 0.21924 0.65401 0.0
C1677 C 0.29943 0.19557 0.64421 0.0
C1678 C 0.38003 0.25595 0.72013 0.0
C1679 C 0.37565 0.28397 0.71272 0.0
C1680 C 0.36966 0.23443 0.7034 0.0
C1681 C 0.35458 0.24038 0.6789 0.0
C1682 C 0.3506 0.26836 0.67122 0.0
C1683 C 0.36109 0.2899 0.68786 0.0
H1684 H 0.8473 0.34659 0.36174 0.0
H1685 H 0.76978 0.3009 0.36222 0.0
H1686 H 0.87185 0.30536 0.3452 0.0
H1687 H 0.79427 0.25948 0.34498 0.0
H1688 H 0.88873 0.24961 0.26811 0.0
H1689 H 0.86858 0.28578 0.29759 0.0
H1690 H 0.83121 0.22276 0.35009 0.0
H1691 H 0.85122 0.18645 0.32056 0.0
C1692 C 0.83572 0.32736 0.35935 0.0
C1693 C 0.80666 0.32696 0.36316 0.0
C1694 C 0.8497 0.30385 0.34947 0.0
C1695 C 0.83487 0.27945 0.34301 0.0
C1696 C 0.80627 0.27805 0.34969 0.0
C1697 C 0.79224 0.30168 0.35978 0.0
C1698 C 0.87641 0.24341 0.28602 0.0
C1699 C 0.87161 0.2151 0.29185 0.0
C1700 C 0.86502 0.26414 0.30309 0.0
C1701 C 0.84843 0.2571 0.32631 0.0
C1702 C 0.84382 0.22882 0.33233 0.0
C1703 C 0.8554 0.20805 0.3154 0.0
H1704 H 0.12867 0.35133 0.50243 0.0
H1705 H 0.2104 0.31516 0.49076 0.0
H1706 H 0.14831 0.3839 0.53657 0.0
H1707 H 0.22975 0.347 0.52503 0.0
H1708 H 0.25373 0.44077 0.54148 0.0
H1709 H 0.23918 0.39631 0.52218 0.0
H1710 H 0.17162 0.39209 0.58173 0.0
H1711 H 0.18614 0.4368 0.6011 0.0
C1712 C 0.15063 0.34995 0.50757 0.0
C1713 C 0.16808 0.33119 0.49341 0.0
C1714 C 0.16191 0.36844 0.52725 0.0
C1715 C 0.19074 0.36826 0.53326 0.0
C1716 C 0.20764 0.34809 0.52049 0.0
C1717 C 0.19648 0.32988 0.50079 0.0
C1718 C 0.23656 0.42985 0.55136 0.0
C1719 C 0.22065 0.44277 0.5723 0.0
C1720 C 0.22805 0.40431 0.54015 0.0
C1721 C 0.20363 0.39111 0.54984 0.0
C1722 C 0.19 0.40218 0.57328 0.0
C1723 C 0.19858 0.42766 0.58457 0.0
H1724 H 0.31244 0.56454 0.09885 0.0
H1725 H 0.24534 0.55768 0.03905 0.0
H1726 H 0.32666 0.60864 0.07789 0.0
H1727 H 0.25968 0.60141 0.01802 0.0
H1728 H 0.37031 0.64807 0.99899 0.0
H1729 H 0.35039 0.61589 0.03327 0.0
H1730 H 0.26852 0.65054 0.01836 0.0
H1731 H 0.28817 0.68195 0.98385 0.0
C1732 C 0.30005 0.57293 0.0819 0.0
C1733 C 0.27818 0.55719 0.07015 0.0
C1734 C 0.30847 0.59804 0.06967 0.0
C1735 C 0.29494 0.60807 0.0457 0.0
C1736 C 0.27073 0.59425 0.03638 0.0
C1737 C 0.26233 0.56913 0.04859 0.0
C1738 C 0.34816 0.64899 0.0033 0.0
C1739 C 0.33078 0.66708 0.98821 0.0
C1740 C 0.33671 0.63073 0.02312 0.0
C1741 C 0.30774 0.63046 0.02837 0.0
C1742 C 0.29077 0.64979 0.01445 0.0
C1743 C 0.30211 0.66777 0.9946 0.0
H1744 H 0.71545 0.18189 0.51841 0.0
H1745 H 0.63306 0.15094 0.4988 0.0
H1746 H 0.73567 0.1506 0.48414 0.0
H1747 H 0.65352 0.11895 0.46472 0.0
H1748 H 0.69263 0.06777 0.40004 0.0
H1749 H 0.67936 0.11215 0.42094 0.0
H1750 H 0.74249 0.1009 0.48426 0.0
H1751 H 0.75588 0.05682 0.46336 0.0
C1752 C 0.70157 0.16841 0.50671 0.0
C1753 C 0.67262 0.16846 0.5118 0.0
C1754 C 0.71324 0.15052 0.48699 0.0
C1755 C 0.69633 0.13206 0.47189 0.0
C1756 C 0.66717 0.13313 0.47582 0.0
C1757 C 0.6554 0.15127 0.49552 0.0
C1758 C 0.70445 0.07529 0.41777 0.0
C1759 C 0.72478 0.05831 0.43054 0.0
C1760 C 0.69657 0.10059 0.42994 0.0
C1761 C 0.70916 0.10956 0.4548 0.0
C1762 C 0.73216 0.09453 0.4652 0.0
C1763 C 0.74 0.0692 0.45308 0.0
H1764 H 0.79027 0.8157 0.01225 0.0
H1765 H 0.87219 0.85083 0.99877 0.0
H1766 H 0.77083 0.84697 0.97749 0.0
H1767 H 0.85249 0.88291 0.96429 0.0
H1768 H 0.81515 0.93582 0.90014 0.0
H1769 H 0.82916 0.89099 0.9196 0.0
H1770 H 0.76157 0.89601 0.97909 0.0
H1771 H 0.74746 0.94047 0.95958 0.0
C1772 C 0.8042 0.83009 0.00174 0.0
C1773 C 0.8327 0.83127 0.00871 0.0
C1774 C 0.793 0.84798 0.98176 0.0
C1775 C 0.80995 0.86772 0.96836 0.0
C1776 C 0.83884 0.86777 0.97405 0.0
C1777 C 0.85016 0.84957 0.99396 0.0
C1778 C 0.80259 0.92681 0.91666 0.0
C1779 C 0.78067 0.94213 0.92887 0.0
C1780 C 0.81086 0.90126 0.92801 0.0
C1781 C 0.79712 0.8904 0.9515 0.0
C1782 C 0.77279 0.90382 0.96108 0.0
C1783 C 0.76454 0.92938 0.94976 0.0
H1784 H 0.59584 0.17795 0.43663 0.0
H1785 H 0.54831 0.25453 0.43953 0.0
H1786 H 0.5727 0.16492 0.39386 0.0
H1787 H 0.52666 0.24248 0.39523 0.0
H1788 H 0.45666 0.19076 0.35827 0.0
H1789 H 0.49052 0.2108 0.38969 0.0
H1790 H 0.55629 0.16484 0.3482 0.0
H1791 H 0.52147 0.14355 0.31731 0.0
C1792 C 0.58134 0.19269 0.4275 0.0
C1793 C 0.57286 0.21666 0.44231 0.0
C1794 C 0.56804 0.18516 0.40271 0.0
C1795 C 0.54663 0.20191 0.39177 0.0
C1796 C 0.54197 0.22832 0.40391 0.0
C1797 C 0.55477 0.23553 0.42912 0.0
C1798 C 0.47835 0.18485 0.3559 0.0
C1799 C 0.48645 0.16555 0.33544 0.0
C1800 C 0.49797 0.19676 0.37364 0.0
C1801 C 0.52645 0.19015 0.37118 0.0
C1802 C 0.53458 0.1705 0.35078 0.0
C1803 C 0.51469 0.15814 0.33319 0.0
H1804 H 0.90212 0.812 0.93324 0.0
H1805 H 0.96354 0.74654 0.94159 0.0
H1806 H 0.92321 0.82622 0.88921 0.0
H1807 H 0.9847 0.7609 0.89793 0.0
H1808 H 0.0013 0.87134 0.8498 0.0
H1809 H 0.9672 0.85101 0.88193 0.0
H1810 H 0.98465 0.76902 0.84871 0.0
H1811 H 0.01898 0.78911 0.81738 0.0
C1812 C 0.91948 0.79995 0.92521 0.0
C1813 C 0.9316 0.77857 0.94135 0.0
C1814 C 0.93178 0.80838 0.90012 0.0
C1815 C 0.95619 0.79535 0.89052 0.0
C1816 C 0.96599 0.77156 0.90475 0.0
C1817 C 0.95371 0.76315 0.92984 0.0
C1818 C 0.99757 0.84907 0.84918 0.0
C1819 C 0.01331 0.83181 0.83153 0.0
C1820 C 0.97787 0.83738 0.86741 0.0
C1821 C 0.97339 0.80827 0.86809 0.0
C1822 C 0.98795 0.79138 0.84915 0.0
C1823 C 0.00769 0.80297 0.83121 0.0
H1824 H 0.04579 0.24069 0.56272 0.0
H1825 H 0.09421 0.31666 0.56666 0.0
H1826 H 0.02263 0.25341 0.60606 0.0
H1827 H 0.06962 0.33044 0.60835 0.0
H1828 H 0.01666 0.35388 0.6825 0.0
H1829 H 0.05185 0.33168 0.6529 0.0
H1830 H 0.98664 0.28484 0.61148 0.0
H1831 H 0.95231 0.30571 0.64197 0.0
C1832 C 0.05214 0.25968 0.5732 0.0
C1833 C 0.07098 0.2782 0.56053 0.0
C1834 C 0.03842 0.26733 0.59783 0.0
C1835 C 0.04295 0.2938 0.6099 0.0
C1836 C 0.06501 0.31016 0.59958 0.0
C1837 C 0.07918 0.3022 0.57541 0.0
C1838 C 0.01004 0.3389 0.66691 0.0
C1839 C 0.9818 0.33157 0.66442 0.0
C1840 C 0.03018 0.32602 0.65001 0.0
C1841 C 0.02235 0.30595 0.62993 0.0
C1842 C 0.99387 0.29927 0.62727 0.0
C1843 C 0.97398 0.31167 0.64444 0.0
H1844 H 0.51324 0.71017 0.18186 0.0
H1845 H 0.49872 0.62786 0.1481 0.0
H1846 H 0.47782 0.72933 0.15116 0.0
H1847 H 0.46366 0.64723 0.11658 0.0
H1848 H 0.3988 0.6835 0.0644 0.0
H1849 H 0.41901 0.67024 0.1091 0.0
H1850 H 0.4779 0.73821 0.10222 0.0
H1851 H 0.45754 0.75166 0.05799 0.0
C1852 C 0.5024 0.6961 0.16787 0.0
C1853 C 0.50922 0.66755 0.16693 0.0
C1854 C 0.48203 0.70714 0.15032 0.0
C1855 C 0.46811 0.68996 0.13115 0.0
C1856 C 0.47377 0.66107 0.13131 0.0
C1857 C 0.49405 0.64993 0.14917 0.0
C1858 C 0.41533 0.69632 0.07299 0.0
C1859 C 0.42714 0.71814 0.0572 0.0
C1860 C 0.42712 0.68847 0.09846 0.0
C1861 C 0.4507 0.7025 0.10874 0.0
C1862 C 0.45986 0.72675 0.09488 0.0
C1863 C 0.44807 0.73461 0.06942 0.0
H1864 H 0.43432 0.59777 0.18136 0.0
H1865 H 0.43767 0.54836 0.25674 0.0
H1866 H 0.39245 0.57355 0.16713 0.0
H1867 H 0.39432 0.52553 0.24348 0.0
H1868 H 0.36256 0.45506 0.18904 0.0
H1869 H 0.39213 0.49 0.21018 0.0
H1870 H 0.34734 0.5548 0.16603 0.0
H1871 H 0.31827 0.51903 0.14373 0.0
C1872 C 0.42538 0.58266 0.19563 0.0
C1873 C 0.44022 0.57386 0.21946 0.0
C1874 C 0.40116 0.56872 0.1874 0.0
C1875 C 0.39087 0.54639 0.20336 0.0
C1876 C 0.40263 0.54159 0.22991 0.0
C1877 C 0.42726 0.55508 0.23783 0.0
C1878 C 0.35917 0.47677 0.18367 0.0
C1879 C 0.33826 0.48435 0.16467 0.0
C1880 C 0.37578 0.49696 0.19624 0.0
C1881 C 0.37169 0.52547 0.19059 0.0
C1882 C 0.35106 0.53309 0.17101 0.0
C1883 C 0.33457 0.51265 0.15803 0.0
H1884 H 0.82113 0.98189 0.85747 0.0
H1885 H 0.86433 0.04683 0.81243 0.0
H1886 H 0.85049 0.94671 0.83471 0.0
H1887 H 0.89431 0.01246 0.79087 0.0
H1888 H 0.93983 0.95425 0.74309 0.0
H1889 H 0.89698 0.9774 0.75732 0.0
H1890 H 0.89541 0.92813 0.83288 0.0
H1891 H 0.93676 0.90363 0.81767 0.0
C1892 C 0.83729 0.98862 0.84315 0.0
C1893 C 0.84055 0.01701 0.83671 0.0
C1894 C 0.85397 0.96851 0.8299 0.0
C1895 C 0.87443 0.97654 0.81029 0.0
C1896 C 0.87812 0.00517 0.80485 0.0
C1897 C 0.86127 0.02504 0.81766 0.0
C1898 C 0.92959 0.94737 0.76204 0.0
C1899 C 0.94249 0.92802 0.77985 0.0
C1900 C 0.90526 0.96106 0.77054 0.0
C1901 C 0.89369 0.9559 0.79712 0.0
C1902 C 0.90395 0.93323 0.81259 0.0
C1903 C 0.92787 0.91911 0.80379 0.0
H1904 H 0.56648 0.09952 0.30755 0.0
H1905 H 0.5584 0.03491 0.24515 0.0
H1906 H 0.61146 0.08044 0.32151 0.0
H1907 H 0.60319 0.01594 0.25911 0.0
H1908 H 0.68497 0.98525 0.28693 0.0
H1909 H 0.65317 0.01882 0.26628 0.0
H1910 H 0.61918 0.0366 0.34788 0.0
H1911 H 0.6516 0.00312 0.36877 0.0
C1912 C 0.57476 0.0819 0.29605 0.0
C1913 C 0.55844 0.06822 0.27576 0.0
C1914 C 0.60041 0.07081 0.30431 0.0
C1915 C 0.61044 0.04618 0.29208 0.0
C1916 C 0.59599 0.03488 0.26912 0.0
C1917 C 0.57026 0.04588 0.26095 0.0
C1918 C 0.67092 0.99653 0.30059 0.0
C1919 C 0.67034 0.99107 0.32947 0.0
C1920 C 0.65275 0.01582 0.28869 0.0
C1921 C 0.63341 0.03011 0.30532 0.0
C1922 C 0.63402 0.02607 0.33448 0.0
C1923 C 0.65243 0.00676 0.34649 0.0
H1924 H 0.13882 0.54764 0.69001 0.0
H1925 H 0.17981 0.48356 0.64181 0.0
H1926 H 0.10813 0.51318 0.71039 0.0
H1927 H 0.14972 0.44825 0.66337 0.0
H1928 H 0.06262 0.40658 0.67868 0.0
H1929 H 0.10436 0.43096 0.66443 0.0
H1930 H 0.10404 0.47676 0.74214 0.0
H1931 H 0.06079 0.45379 0.75549 0.0
C1932 C 0.14132 0.52601 0.68389 0.0
C1933 C 0.16158 0.51829 0.66423 0.0
C1934 C 0.12402 0.50606 0.696 0.0
C1935 C 0.12677 0.47762 0.68922 0.0
C1936 C 0.14691 0.4699 0.66917 0.0
C1937 C 0.16404 0.4901 0.65664 0.0
C1938 C 0.0718 0.42128 0.69319 0.0
C1939 C 0.0575 0.42925 0.71764 0.0
C1940 C 0.09598 0.43532 0.68494 0.0
C1941 C 0.10684 0.45699 0.70142 0.0
C1942 C 0.09536 0.46125 0.7282 0.0
C1943 C 0.07078 0.44767 0.73616 0.0
H1944 H 0.74179 0.56291 0.45358 0.0
H1945 H 0.81676 0.56516 0.40351 0.0
H1946 H 0.75528 0.60672 0.47535 0.0
H1947 H 0.83123 0.60754 0.42669 0.0
H1948 H 0.85531 0.68281 0.47933 0.0
H1949 H 0.83253 0.6531 0.44438 0.0
H1950 H 0.78883 0.60978 0.51053 0.0
H1951 H 0.81045 0.63991 0.54463 0.0
C1952 C 0.76066 0.57314 0.4465 0.0
C1953 C 0.77883 0.55979 0.42781 0.0
C1954 C 0.76872 0.59806 0.45937 0.0
C1955 C 0.79522 0.60974 0.45408 0.0
C1956 C 0.811 0.59894 0.43188 0.0
C1957 C 0.80263 0.57442 0.41854 0.0
C1958 C 0.84096 0.66673 0.48618 0.0
C1959 C 0.8346 0.66362 0.51462 0.0
C1960 C 0.82771 0.64986 0.46621 0.0
C1961 C 0.80816 0.62941 0.47445 0.0
C1962 C 0.80274 0.62596 0.50309 0.0
C1963 C 0.81558 0.64293 0.5228 0.0
H1964 H 0.75856 0.43974 0.95568 0.0
H1965 H 0.68417 0.43429 0.90508 0.0
H1966 H 0.7454 0.39677 0.97928 0.0
H1967 H 0.66991 0.39294 0.93005 0.0
H1968 H 0.64608 0.31907 0.98393 0.0
H1969 H 0.66858 0.34859 0.94877 0.0
H1970 H 0.71271 0.39218 0.01443 0.0
H1971 H 0.69154 0.36186 0.04877 0.0
C1972 C 0.73985 0.42899 0.94895 0.0
C1973 C 0.72183 0.4412 0.92935 0.0
C1974 C 0.73194 0.40459 0.96292 0.0
C1975 C 0.70568 0.39225 0.95785 0.0
C1976 C 0.68997 0.40199 0.9351 0.0
C1977 C 0.69823 0.42594 0.92069 0.0
C1978 C 0.66047 0.33516 0.99064 0.0
C1979 C 0.66704 0.33828 0.01902 0.0
C1980 C 0.67354 0.35199 0.97053 0.0
C1981 C 0.69305 0.37257 0.97852 0.0
C1982 C 0.69878 0.37598 0.00712 0.0
C1983 C 0.6862 0.3589 0.02699 0.0
H1984 H 0.24663 0.9423 0.53403 0.0
H1985 H 0.30839 0.93158 0.59886 0.0
H1986 H 0.25998 0.89771 0.51408 0.0
H1987 H 0.32172 0.88682 0.57879 0.0
H1988 H 0.36855 0.84631 0.50164 0.0
H1989 H 0.34818 0.87923 0.53493 0.0
H1990 H 0.26593 0.84742 0.51629 0.0
H1991 H 0.28605 0.81507 0.48296 0.0
C1992 C 0.26216 0.9299 0.54481 0.0
C1993 C 0.27694 0.94091 0.56759 0.0
C1994 C 0.26998 0.9043 0.53324 0.0
C1995 C 0.29257 0.88916 0.54437 0.0
C1996 C 0.30481 0.89842 0.5693 0.0
C1997 C 0.29689 0.92394 0.58095 0.0
C1998 C 0.34622 0.84608 0.505 0.0
C1999 C 0.32892 0.82854 0.48918 0.0
C2000 C 0.33451 0.86479 0.52421 0.0
C2001 C 0.30534 0.86611 0.52803 0.0
C2002 C 0.28836 0.84728 0.51349 0.0
C2003 C 0.29998 0.82877 0.49432 0.0
H2004 H 0.25446 0.05958 0.03822 0.0
H2005 H 0.18926 0.06833 0.09992 0.0
H2006 H 0.24059 0.10349 0.01736 0.0
H2007 H 0.17553 0.11263 0.07913 0.0
H2008 H 0.13014 0.15074 0.00049 0.0
H2009 H 0.1506 0.11933 0.03512 0.0
H2010 H 0.23243 0.15271 0.01709 0.0
H2011 H 0.21221 0.18331 0.9822 0.0
C2012 C 0.23804 0.07148 0.04821 0.0
C2013 C 0.22244 0.05999 0.07021 0.0
C2014 C 0.22992 0.09673 0.03611 0.0
C2015 C 0.20627 0.11109 0.04601 0.0
C2016 C 0.19325 0.10159 0.07048 0.0
C2017 C 0.20139 0.07635 0.0826 0.0
C2018 C 0.1524 0.15156 0.00421 0.0
C2019 C 0.16959 0.16898 0.98813 0.0
C2020 C 0.16417 0.13376 0.02422 0.0
C2021 C 0.19327 0.13332 0.02868 0.0
C2022 C 0.21008 0.1521 0.01381 0.0
C2023 C 0.19842 0.1696 0.99374 0.0
H2024 H 0.47948 0.85154 0.68084 0.0
H2025 H 0.54668 0.81242 0.6355 0.0
H2026 H 0.44552 0.82794 0.65069 0.0
H2027 H 0.51349 0.79017 0.60471 0.0
H2028 H 0.45828 0.74146 0.55692 0.0
H2029 H 0.48056 0.75478 0.60052 0.0
H2030 H 0.42681 0.82701 0.60591 0.0
H2031 H 0.4032 0.81251 0.56384 0.0
C2032 C 0.48691 0.83836 0.66404 0.0
C2033 C 0.5156 0.83378 0.66036 0.0
C2034 C 0.46754 0.82464 0.64691 0.0
C2035 C 0.47661 0.80645 0.62558 0.0
C2036 C 0.50547 0.80294 0.62153 0.0
C2037 C 0.52463 0.81617 0.63883 0.0
C2038 C 0.45029 0.75939 0.56812 0.0
C2039 C 0.42988 0.77665 0.55616 0.0
C2040 C 0.46344 0.7674 0.5929 0.0
C2041 C 0.4567 0.79298 0.60581 0.0
C2042 C 0.43311 0.80755 0.59635 0.0
C2043 C 0.41953 0.79916 0.572 0.0
H2044 H 0.95348 0.1904 0.13973 0.0
H2045 H 0.01854 0.14424 0.18143 0.0
H2046 H 0.9875 0.21107 0.10871 0.0
H2047 H 0.0534 0.16617 0.15108 0.0
H2048 H 0.09573 0.18181 0.06452 0.0
H2049 H 0.07116 0.16734 0.10608 0.0
H2050 H 0.023 0.24358 0.10403 0.0
H2051 H 0.04621 0.25706 0.06094 0.0
C2052 C 0.97523 0.18478 0.14229 0.0
C2053 C 0.98336 0.16562 0.16288 0.0
C2054 C 0.99492 0.19707 0.1248 0.0
C2055 C 0.02351 0.19101 0.12768 0.0
C2056 C 0.03164 0.17141 0.14813 0.0
C2057 C 0.0117 0.15867 0.16543 0.0
C2058 C 0.08046 0.19598 0.07331 0.0
C2059 C 0.072 0.21999 0.05855 0.0
C2060 C 0.06629 0.1876 0.09737 0.0
C2061 C 0.04395 0.20352 0.1077 0.0
C2062 C 0.03906 0.23 0.09578 0.0
C2063 C 0.0528 0.23808 0.0713 0.0
H2064 H 0.98154 0.64716 0.31854 0.0
H2065 H 0.04804 0.68682 0.36445 0.0
H2066 H 0.94712 0.67122 0.3478 0.0
H2067 H 0.01433 0.70962 0.39431 0.0
H2068 H 0.95827 0.76007 0.43948 0.0
H2069 H 0.98146 0.74539 0.3968 0.0
H2070 H 0.92749 0.67324 0.39236 0.0
H2071 H 0.90306 0.68904 0.43357 0.0
C2072 C 0.98874 0.66054 0.33528 0.0
C2073 C 0.01738 0.66514 0.33932 0.0
C2074 C 0.96908 0.67454 0.35191 0.0
C2075 C 0.9778 0.69308 0.37306 0.0
C2076 C 0.0066 0.69656 0.37757 0.0
C2077 C 0.02605 0.68301 0.3608 0.0
C2078 C 0.9504 0.74188 0.42862 0.0
C2079 C 0.92968 0.72504 0.4407 0.0
C2080 C 0.9641 0.73307 0.4044 0.0
C2081 C 0.95755 0.70714 0.39211 0.0
C2082 C 0.93367 0.69295 0.40148 0.0
C2083 C 0.91957 0.70211 0.42529 0.0
H2084 H 0.45578 0.31438 0.86359 0.0
H2085 H 0.52137 0.35807 0.81993 0.0
H2086 H 0.48975 0.2931 0.89415 0.0
H2087 H 0.55615 0.33571 0.85018 0.0
H2088 H 0.59765 0.31934 0.93789 0.0
H2089 H 0.57386 0.33457 0.89606 0.0
H2090 H 0.5247 0.25896 0.89667 0.0
H2091 H 0.54719 0.24461 0.93985 0.0
C2092 C 0.47763 0.31939 0.86054 0.0
C2093 C 0.48593 0.33792 0.83944 0.0
C2094 C 0.49726 0.30675 0.87777 0.0
C2095 C 0.52593 0.31189 0.8742 0.0
C2096 C 0.53428 0.3311 0.85348 0.0
C2097 C 0.51441 0.34412 0.83631 0.0
C2098 C 0.58236 0.30545 0.92869 0.0
C2099 C 0.57331 0.28141 0.94306 0.0
C2100 C 0.56868 0.31427 0.90451 0.0
C2101 C 0.54625 0.29875 0.8938 0.0
C2102 C 0.5409 0.27216 0.90525 0.0
C2103 C 0.55419 0.26362 0.92979 0.0
H2104 H 0.56187 0.46146 0.7431 0.0
H2105 H 0.56784 0.39956 0.80842 0.0
H2106 H 0.6059 0.48138 0.75801 0.0
H2107 H 0.61217 0.41952 0.82329 0.0
H2108 H 0.65046 0.49821 0.8693 0.0
H2109 H 0.619 0.46384 0.84832 0.0
H2110 H 0.65515 0.48013 0.76731 0.0
H2111 H 0.68585 0.51465 0.78801 0.0
C2112 C 0.57319 0.45121 0.75977 0.0
C2113 C 0.56089 0.42944 0.77507 0.0
C2114 C 0.59849 0.46279 0.76851 0.0
C2115 C 0.61207 0.45261 0.79251 0.0
C2116 C 0.60175 0.42836 0.80529 0.0
C2117 C 0.5765 0.41671 0.79649 0.0
C2118 C 0.65191 0.4941 0.84713 0.0
C2119 C 0.67011 0.50963 0.83025 0.0
C2120 C 0.63406 0.47427 0.83508 0.0
C2121 C 0.63436 0.46948 0.80601 0.0
C2122 C 0.65398 0.48368 0.78961 0.0
C2123 C 0.67153 0.50354 0.80154 0.0
H2124 H 0.05937 0.03953 0.25378 0.0
H2125 H 0.06437 0.10039 0.18737 0.0
H2126 H 0.10376 0.02011 0.23919 0.0
H2127 H 0.10904 0.08095 0.17285 0.0
H2128 H 0.18509 0.98877 0.21035 0.0
H2129 H 0.15313 0.02263 0.23024 0.0
H2130 H 0.11715 0.03635 0.14873 0.0
H2131 H 0.14978 0.00266 0.12858 0.0
C2132 C 0.0705 0.04963 0.23688 0.0
C2133 C 0.0579 0.07101 0.22129 0.0
C2134 C 0.09601 0.03836 0.22835 0.0
C2135 C 0.1095 0.04843 0.20424 0.0
C2136 C 0.09872 0.07221 0.19097 0.0
C2137 C 0.07326 0.08354 0.19955 0.0
C2138 C 0.17054 0.99919 0.19653 0.0
C2139 C 0.16954 0.99257 0.16792 0.0
C2140 C 0.15226 0.01865 0.20801 0.0
C2141 C 0.13234 0.03194 0.19122 0.0
C2142 C 0.13242 0.02664 0.16225 0.0
C2143 C 0.15096 0.00719 0.15067 0.0
H2144 H 0.43405 0.89732 0.68843 0.0
H2145 H 0.44091 0.95941 0.75346 0.0
H2146 H 0.38885 0.91631 0.67503 0.0
H2147 H 0.39598 0.97837 0.74001 0.0
H2148 H 0.34909 0.99498 0.63011 0.0
H2149 H 0.3811 0.96072 0.65025 0.0
H2150 H 0.34632 0.97608 0.73202 0.0
H2151 H 0.31497 0.01051 0.71212 0.0
C2152 C 0.42544 0.91432 0.70061 0.0
C2153 C 0.44147 0.92741 0.72149 0.0
C2154 C 0.39967 0.92537 0.69268 0.0
C2155 C 0.3893 0.94941 0.70578 0.0
C2156 C 0.40344 0.95992 0.7293 0.0
C2157 C 0.42925 0.94892 0.73718 0.0
C2158 C 0.348 0.99065 0.65226 0.0
C2159 C 0.33002 0.00592 0.66958 0.0
C2160 C 0.36617 0.97088 0.66383 0.0
C2161 C 0.36645 0.96591 0.69286 0.0
C2162 C 0.34701 0.97978 0.70973 0.0
C2163 C 0.32909 0.99958 0.69826 0.0
H2164 H 0.93562 0.59885 0.31447 0.0
H2165 H 0.9411 0.5383 0.24787 0.0
H2166 H 0.89139 0.57861 0.32928 0.0
H2167 H 0.89718 0.51805 0.26277 0.0
H2168 H 0.81657 0.48529 0.29203 0.0
H2169 H 0.84798 0.51959 0.27201 0.0
H2170 H 0.88395 0.53397 0.35341 0.0
H2171 H 0.85178 0.49985 0.37373 0.0
C2172 C 0.92691 0.58189 0.30231 0.0
C2173 C 0.94231 0.56969 0.28043 0.0
C2174 C 0.90171 0.5701 0.31107 0.0
C2175 C 0.89124 0.54616 0.29783 0.0
C2176 C 0.90471 0.53641 0.27359 0.0
C2177 C 0.92994 0.54815 0.26488 0.0
C2178 C 0.83103 0.4959 0.30579 0.0
C2179 C 0.83215 0.48937 0.33442 0.0
C2180 C 0.84899 0.51563 0.29424 0.0
C2181 C 0.86873 0.52927 0.31096 0.0
C2182 C 0.86881 0.52399 0.33994 0.0
C2183 C 0.85056 0.50429 0.35161 0.0
H2184 H 0.18649 0.07032 0.54339 0.0
H2185 H 0.23423 0.14288 0.56729 0.0
H2186 H 0.14933 0.10025 0.52605 0.0
H2187 H 0.19752 0.17304 0.54883 0.0
H2188 H 0.12583 0.15883 0.45246 0.0
H2189 H 0.14851 0.12708 0.48446 0.0
H2190 H 0.15046 0.19155 0.54753 0.0
H2191 H 0.12816 0.22381 0.51494 0.0
C2192 C 0.18888 0.09274 0.54515 0.0
C2193 C 0.21349 0.10436 0.55601 0.0
C2194 C 0.16761 0.10988 0.53521 0.0
C2195 C 0.17069 0.13905 0.53542 0.0
C2196 C 0.19436 0.15067 0.54842 0.0
C2197 C 0.21552 0.13343 0.55882 0.0
C2198 C 0.13044 0.1661 0.47337 0.0
C2199 C 0.12569 0.194 0.48094 0.0
C2200 C 0.14333 0.14778 0.49189 0.0
C2201 C 0.15171 0.15686 0.51852 0.0
C2202 C 0.14472 0.18407 0.527 0.0
C2203 C 0.1317 0.20247 0.5084 0.0
H2204 H 0.28479 0.86812 0.08422 0.0
H2205 H 0.29536 0.92047 0.01151 0.0
H2206 H 0.32189 0.83768 0.06746 0.0
H2207 H 0.33032 0.88938 0.99385 0.0
H2208 H 0.39629 0.83787 0.96301 0.0
H2209 H 0.374 0.87135 0.99411 0.0
H2210 H 0.33002 0.80365 0.0348 0.0
H2211 H 0.35444 0.77043 0.00546 0.0
C2212 C 0.29505 0.87329 0.06482 0.0
C2213 C 0.2871 0.89695 0.04942 0.0
C2214 C 0.31625 0.85565 0.05501 0.0
C2215 C 0.32948 0.86091 0.02923 0.0
C2216 C 0.32156 0.88481 0.01415 0.0
C2217 C 0.30099 0.90263 0.0242 0.0
C2218 C 0.38265 0.83027 0.97937 0.0
C2219 C 0.37682 0.80173 0.98174 0.0
C2220 C 0.36947 0.8494 0.99696 0.0
C2221 C 0.34918 0.84046 0.01636 0.0
C2222 C 0.34539 0.81158 0.02027 0.0
C2223 C 0.35938 0.7924 0.00335 0.0
H2224 H 0.62309 0.33973 0.55211 0.0
H2225 H 0.62607 0.27623 0.48815 0.0
H2226 H 0.64487 0.37263 0.52068 0.0
H2227 H 0.64725 0.30973 0.45605 0.0
H2228 H 0.72891 0.35996 0.43455 0.0
H2229 H 0.69332 0.32906 0.45367 0.0
H2230 H 0.64554 0.40076 0.48043 0.0
H2231 H 0.68175 0.43151 0.46239 0.0
C2232 C 0.62765 0.333 0.53101 0.0
C2233 C 0.62337 0.30517 0.52288 0.0
C2234 C 0.64001 0.35202 0.5128 0.0
C2235 C 0.64828 0.34378 0.48586 0.0
C2236 C 0.64168 0.31661 0.47684 0.0
C2237 C 0.62928 0.29748 0.49517 0.0
C2238 C 0.71054 0.36908 0.44407 0.0
C2239 C 0.70844 0.39809 0.44762 0.0
C2240 C 0.68998 0.35138 0.45488 0.0
C2241 C 0.66672 0.36238 0.46909 0.0
C2242 C 0.66352 0.39153 0.47032 0.0
C2243 C 0.68425 0.40917 0.45993 0.0
H2244 H 0.81655 0.57006 0.95807 0.0
H2245 H 0.76908 0.64244 0.93311 0.0
H2246 H 0.85322 0.60017 0.97616 0.0
H2247 H 0.80527 0.67273 0.95225 0.0
H2248 H 0.87418 0.72389 0.98665 0.0
H2249 H 0.85214 0.69142 0.95409 0.0
H2250 H 0.85371 0.62726 0.01751 0.0
H2251 H 0.87617 0.6592 0.04948 0.0
C2252 C 0.81409 0.59246 0.95624 0.0
C2253 C 0.78968 0.60396 0.9448 0.0
C2254 C 0.83509 0.60972 0.96663 0.0
C2255 C 0.83196 0.63888 0.96626 0.0
C2256 C 0.80849 0.65038 0.9528 0.0
C2257 C 0.78762 0.63304 0.94199 0.0
C2258 C 0.8706 0.70257 0.99329 0.0
C2259 C 0.87647 0.69425 0.02083 0.0
C2260 C 0.85773 0.68405 0.97471 0.0
C2261 C 0.85071 0.65686 0.98328 0.0
C2262 C 0.85891 0.64794 0.01001 0.0
C2263 C 0.87167 0.66638 0.02852 0.0
H2264 H 0.51211 0.12198 0.22199 0.0
H2265 H 0.44812 0.12348 0.15848 0.0
H2266 H 0.54464 0.14416 0.1896 0.0
H2267 H 0.48015 0.14605 0.1266 0.0
H2268 H 0.56699 0.22807 0.14269 0.0
H2269 H 0.54716 0.19164 0.17227 0.0
H2270 H 0.52131 0.14612 0.09883 0.0
H2271 H 0.54021 0.18297 0.06942 0.0
C2272 C 0.50517 0.12636 0.20093 0.0
C2273 C 0.47734 0.12141 0.19296 0.0
C2274 C 0.52376 0.13931 0.18246 0.0
C2275 C 0.51492 0.14734 0.15564 0.0
C2276 C 0.48784 0.14006 0.14698 0.0
C2277 C 0.46931 0.12722 0.16539 0.0
C2278 C 0.55756 0.21 0.13292 0.0
C2279 C 0.5545 0.2087 0.10381 0.0
C2280 C 0.54634 0.18899 0.14985 0.0
C2281 C 0.53216 0.16615 0.13793 0.0
C2282 C 0.53143 0.16374 0.10871 0.0
C2283 C 0.5423 0.18486 0.09186 0.0
H2284 H 0.9344 0.77012 0.64215 0.0
H2285 H 0.95894 0.81859 0.57023 0.0
H2286 H 0.95408 0.80577 0.67278 0.0
H2287 H 0.97761 0.85466 0.60068 0.0
H2288 H 0.98909 0.87454 0.72424 0.0
H2289 H 0.95629 0.85264 0.69192 0.0
H2290 H 0.01938 0.85412 0.62744 0.0
H2291 H 0.05164 0.87639 0.65925 0.0
C2292 C 0.94328 0.78877 0.63294 0.0
C2293 C 0.94582 0.79127 0.60386 0.0
C2294 C 0.95441 0.80932 0.65046 0.0
C2295 C 0.96794 0.83286 0.63916 0.0
C2296 C 0.96803 0.83646 0.61006 0.0
C2297 C 0.95729 0.8158 0.59261 0.0
C2298 C 0.99564 0.87092 0.70291 0.0
C2299 C 0.02314 0.87678 0.69443 0.0
C2300 C 0.97691 0.85815 0.68447 0.0
C2301 C 0.98528 0.85123 0.6572 0.0
C2302 C 0.01204 0.85928 0.64818 0.0
C2303 C 0.0307 0.87193 0.66654 0.0
H2304 H 0.01162 0.37438 0.77687 0.0
H2305 H 0.94875 0.37567 0.84156 0.0
H2306 H 0.04437 0.35263 0.80932 0.0
H2307 H 0.98088 0.35343 0.87344 0.0
H2308 H 0.06668 0.27004 0.85818 0.0
H2309 H 0.04698 0.30595 0.82797 0.0
H2310 H 0.02205 0.35328 0.90062 0.0
H2311 H 0.04068 0.31682 0.93066 0.0
C2312 C 0.00498 0.37066 0.79816 0.0
C2313 C 0.9774 0.3763 0.80649 0.0
C2314 C 0.02368 0.35796 0.81667 0.0
C2315 C 0.01518 0.35084 0.84387 0.0
C2316 C 0.98835 0.35873 0.85277 0.0
C2317 C 0.96974 0.37135 0.83435 0.0
C2318 C 0.05745 0.28838 0.86763 0.0
C2319 C 0.05453 0.29031 0.89671 0.0
C2320 C 0.04632 0.30911 0.85033 0.0
C2321 C 0.03242 0.33231 0.86186 0.0
C2322 C 0.03191 0.33534 0.89103 0.0
C2323 C 0.04262 0.31447 0.90826 0.0
H2324 H 0.54865 0.62356 0.33874 0.0
H2325 H 0.48617 0.62638 0.2738 0.0
H2326 H 0.51692 0.64653 0.37048 0.0
H2327 H 0.45378 0.64891 0.30611 0.0
H2328 H 0.45824 0.68499 0.4274 0.0
H2329 H 0.47576 0.64789 0.3975 0.0
H2330 H 0.45225 0.69569 0.32468 0.0
H2331 H 0.43355 0.73227 0.35481 0.0
C2332 C 0.52779 0.62834 0.33146 0.0
C2333 C 0.52017 0.62363 0.30357 0.0
C2334 C 0.50941 0.6414 0.3498 0.0
C2335 C 0.48283 0.64999 0.34078 0.0
C2336 C 0.47428 0.64304 0.31356 0.0
C2337 C 0.49276 0.62988 0.29513 0.0
C2338 C 0.45639 0.68732 0.40499 0.0
C2339 C 0.44518 0.71177 0.39336 0.0
C2340 C 0.46645 0.66607 0.38785 0.0
C2341 C 0.46604 0.66903 0.35866 0.0
C2342 C 0.45282 0.69259 0.34705 0.0
C2343 C 0.44228 0.71369 0.36428 0.0
H2344 H 0.1413 0.56865 0.22769 0.0
H2345 H 0.06921 0.54078 0.18141 0.0
H2346 H 0.17177 0.549 0.192 0.0
H2347 H 0.09953 0.52215 0.14515 0.0
H2348 H 0.22345 0.51195 0.12511 0.0
H2349 H 0.19052 0.54526 0.14529 0.0
H2350 H 0.12711 0.48107 0.14684 0.0
H2351 H 0.15948 0.44835 0.12622 0.0
C2352 C 0.13198 0.55908 0.20945 0.0
C2353 C 0.10297 0.55553 0.20766 0.0
C2354 C 0.14943 0.54797 0.18886 0.0
C2355 C 0.1381 0.53346 0.16595 0.0
C2356 C 0.10895 0.5325 0.16289 0.0
C2357 C 0.09157 0.5432 0.18364 0.0
C2358 C 0.20221 0.50525 0.12902 0.0
C2359 C 0.1942 0.47735 0.12458 0.0
C2360 C 0.18342 0.52428 0.14078 0.0
C2361 C 0.15629 0.51578 0.14809 0.0
C2362 C 0.14772 0.48853 0.14133 0.0
C2363 C 0.16642 0.46959 0.12969 0.0
H2364 H 0.63302 0.91515 0.78424 0.0
H2365 H 0.57993 0.98725 0.795 0.0
H2366 H 0.66357 0.93243 0.82108 0.0
H2367 H 0.611 0.00537 0.82968 0.0
H2368 H 0.66259 0.0369 0.89539 0.0
H2369 H 0.62934 0.0055 0.87318 0.0
H2370 H 0.69724 0.96565 0.82881 0.0
H2371 H 0.73028 0.9953 0.8532 0.0
C2372 C 0.62772 0.93452 0.7945 0.0
C2373 C 0.60386 0.94964 0.78664 0.0
C2374 C 0.6454 0.94463 0.81553 0.0
C2375 C 0.63992 0.97039 0.82871 0.0
C2376 C 0.61576 0.9851 0.82095 0.0
C2377 C 0.59795 0.97478 0.80054 0.0
C2378 C 0.67029 0.0207 0.88163 0.0
C2379 C 0.69882 0.0186 0.87574 0.0
C2380 C 0.65129 0.00292 0.86852 0.0
C2381 C 0.66034 0.98361 0.84821 0.0
C2382 C 0.68924 0.98008 0.84423 0.0
C2383 C 0.70829 0.99718 0.85816 0.0
H2384 H 0.77768 0.01177 0.37798 0.0
H2385 H 0.84071 0.9473 0.37583 0.0
H2386 H 0.81063 0.04457 0.35709 0.0
H2387 H 0.87314 0.97962 0.35451 0.0
H2388 H 0.85877 0.06822 0.27421 0.0
H2389 H 0.82861 0.04816 0.31 0.0
H2390 H 0.90125 0.02045 0.35568 0.0
H2391 H 0.93124 0.03957 0.3194 0.0
C2392 C 0.79874 0.00476 0.37372 0.0
C2393 C 0.80641 0.97675 0.3781 0.0
C2394 C 0.81754 0.02352 0.36152 0.0
C2395 C 0.8444 0.01466 0.35367 0.0
C2396 C 0.85274 0.98733 0.36039 0.0
C2397 C 0.834 0.96864 0.3725 0.0
C2398 C 0.86825 0.05836 0.2922 0.0
C2399 C 0.89729 0.05481 0.29367 0.0
C2400 C 0.85098 0.047 0.31286 0.0
C2401 C 0.8625 0.03219 0.33549 0.0
C2402 C 0.89168 0.03105 0.33817 0.0
C2403 C 0.90886 0.04205 0.31739 0.0
H2404 H 0.27583 0.48884 0.62601 0.0
H2405 H 0.34058 0.55161 0.6241 0.0
H2406 H 0.30861 0.4558 0.64692 0.0
H2407 H 0.37282 0.51916 0.64539 0.0
H2408 H 0.35991 0.43296 0.72825 0.0
H2409 H 0.32863 0.45277 0.69331 0.0
H2410 H 0.39979 0.47759 0.6437 0.0
H2411 H 0.43093 0.45879 0.67912 0.0
C2412 C 0.29719 0.4954 0.62943 0.0
C2413 C 0.30549 0.523 0.62381 0.0
C2414 C 0.31589 0.47653 0.64162 0.0
C2415 C 0.34326 0.48488 0.64819 0.0
C2416 C 0.35204 0.51181 0.64046 0.0
C2417 C 0.33341 0.53059 0.6284 0.0
C2418 C 0.3688 0.44212 0.70958 0.0
C2419 C 0.39782 0.445 0.70673 0.0
C2420 C 0.35088 0.45334 0.68943 0.0
C2421 C 0.36171 0.46731 0.66593 0.0
C2422 C 0.39077 0.46767 0.6619 0.0
C2423 C 0.40862 0.45684 0.68218 0.0
H2424 H 0.87459 0.77704 0.48795 0.0
H2425 H 0.87388 0.84134 0.5512 0.0
H2426 H 0.85172 0.80893 0.4554 0.0
H2427 H 0.85071 0.87273 0.51913 0.0
H2428 H 0.81427 0.92947 0.45865 0.0
H2429 H 0.85097 0.89985 0.4774 0.0
H2430 H 0.80408 0.82666 0.45329 0.0
H2431 H 0.76773 0.85652 0.43356 0.0
C2432 C 0.87023 0.79817 0.49471 0.0
C2433 C 0.87567 0.80653 0.52233 0.0
C2434 C 0.85689 0.81634 0.47612 0.0
C2435 C 0.84901 0.84325 0.48473 0.0
C2436 C 0.85662 0.85226 0.51162 0.0
C2437 C 0.8698 0.83414 0.53016 0.0
C2438 C 0.81204 0.90703 0.45691 0.0
C2439 C 0.78787 0.89523 0.44527 0.0
C2440 C 0.83307 0.89006 0.46768 0.0
C2441 C 0.83021 0.86089 0.46744 0.0
C2442 C 0.80703 0.84906 0.45375 0.0
C2443 C 0.7861 0.86612 0.44258 0.0
H2444 H 0.62631 0.2236 0.98984 0.0
H2445 H 0.62628 0.15999 0.05381 0.0
H2446 H 0.64738 0.19058 0.95718 0.0
H2447 H 0.64786 0.12757 0.02178 0.0
H2448 H 0.72912 0.14096 0.93359 0.0
H2449 H 0.6938 0.17164 0.95357 0.0
H2450 H 0.64693 0.09962 0.98117 0.0
H2451 H 0.68285 0.06911 0.96223 0.0
C2452 C 0.6302 0.20243 0.99677 0.0
C2453 C 0.62506 0.19457 0.02459 0.0
C2454 C 0.6425 0.18359 0.97811 0.0
C2455 C 0.64973 0.15651 0.9869 0.0
C2456 C 0.64244 0.14811 0.01407 0.0
C2457 C 0.63021 0.16685 0.03263 0.0
C2458 C 0.71098 0.13173 0.94344 0.0
C2459 C 0.70908 0.1027 0.947 0.0
C2460 C 0.69059 0.1493 0.95476 0.0
C2461 C 0.66774 0.13812 0.9695 0.0
C2462 C 0.66463 0.10896 0.97065 0.0
C2463 C 0.68519 0.09146 0.95974 0.0
H2464 H 0.3181 0.56892 0.53831 0.0
H2465 H 0.27337 0.64213 0.56585 0.0
H2466 H 0.35469 0.59836 0.51897 0.0
H2467 H 0.30955 0.67175 0.54563 0.0
H2468 H 0.37613 0.6583 0.44551 0.0
H2469 H 0.3541 0.62627 0.47781 0.0
H2470 H 0.35707 0.689 0.54254 0.0
H2471 H 0.37871 0.72151 0.50981 0.0
C2472 C 0.31625 0.59135 0.5405 0.0
C2473 C 0.29257 0.60328 0.55303 0.0
C2474 C 0.33721 0.60822 0.52938 0.0
C2475 C 0.33482 0.63743 0.5302 0.0
C2476 C 0.31219 0.64932 0.54472 0.0
C2477 C 0.29132 0.63237 0.55618 0.0
C2478 C 0.37276 0.66511 0.46681 0.0
C2479 C 0.37869 0.69266 0.47486 0.0
C2480 C 0.36023 0.64662 0.48548 0.0
C2481 C 0.35338 0.65518 0.51272 0.0
C2482 C 0.36158 0.68194 0.52154 0.0
C2483 C 0.37422 0.70049 0.50282 0.0
H2484 H 0.22812 0.35687 0.06863 0.0
H2485 H 0.18052 0.42919 0.04367 0.0
H2486 H 0.19246 0.32654 0.04856 0.0
H2487 H 0.14447 0.399 0.02448 0.0
H2488 H 0.1252 0.34053 0.94929 0.0
H2489 H 0.14641 0.37229 0.98233 0.0
H2490 H 0.14522 0.30788 0.04549 0.0
H2491 H 0.12433 0.27565 0.012 0.0
C2492 C 0.20963 0.36624 0.05963 0.0
C2493 C 0.20742 0.39533 0.05702 0.0
C2494 C 0.18908 0.34889 0.04825 0.0
C2495 C 0.16586 0.36039 0.03439 0.0
C2496 C 0.16244 0.3895 0.03435 0.0
C2497 C 0.18308 0.40679 0.04538 0.0
C2498 C 0.12884 0.33325 0.97038 0.0
C2499 C 0.12356 0.3054 0.97781 0.0
C2500 C 0.14086 0.35158 0.98949 0.0
C2501 C 0.14786 0.34254 0.01652 0.0
C2502 C 0.14049 0.31533 0.02468 0.0
C2503 C 0.12833 0.29695 0.00553 0.0
H2504 H 0.53938 0.89477 0.83808 0.0
H2505 H 0.4939 0.85613 0.77075 0.0
H2506 H 0.50823 0.87285 0.87178 0.0
H2507 H 0.46443 0.83203 0.80411 0.0
H2508 H 0.41447 0.78737 0.86851 0.0
H2509 H 0.43215 0.82448 0.83856 0.0
H2510 H 0.50684 0.82896 0.88913 0.0
H2511 H 0.48834 0.79398 0.91977 0.0
C2512 C 0.52238 0.88189 0.83056 0.0
C2513 C 0.51915 0.87687 0.80196 0.0
C2514 C 0.50474 0.86892 0.84982 0.0
C2515 C 0.48436 0.84963 0.8409 0.0
C2516 C 0.4797 0.84664 0.81204 0.0
C2517 C 0.49671 0.86044 0.79278 0.0
C2518 C 0.43434 0.79677 0.87353 0.0
C2519 C 0.44982 0.78767 0.89671 0.0
C2520 C 0.44467 0.81797 0.85618 0.0
C2521 C 0.47104 0.83006 0.86123 0.0
C2522 C 0.48614 0.82108 0.88473 0.0
C2523 C 0.4756 0.80051 0.90229 0.0
H2524 H 0.01311 0.1264 0.27693 0.0
H2525 H 0.95094 0.12494 0.34228 0.0
H2526 H 0.04647 0.14743 0.30928 0.0
H2527 H 0.98375 0.14632 0.37412 0.0
H2528 H 0.06944 0.22933 0.35975 0.0
H2529 H 0.04945 0.19409 0.3289 0.0
H2530 H 0.0257 0.14479 0.40065 0.0
H2531 H 0.04471 0.18049 0.43136 0.0
C2532 C 0.00676 0.12992 0.29834 0.0
C2533 C 0.97922 0.12442 0.30693 0.0
C2534 C 0.02581 0.14218 0.3168 0.0
C2535 C 0.01773 0.14893 0.3442 0.0
C2536 C 0.99088 0.14125 0.35329 0.0
C2537 C 0.9719 0.12914 0.3349 0.0
C2538 C 0.06049 0.21066 0.36885 0.0
C2539 C 0.05795 0.20798 0.39791 0.0
C2540 C 0.04917 0.19034 0.35119 0.0
C2541 C 0.03544 0.16684 0.36233 0.0
C2542 C 0.03544 0.16298 0.3914 0.0
C2543 C 0.04637 0.18342 0.409 0.0
H2544 H 0.98689 0.62671 0.22437 0.0
H2545 H 0.04951 0.62478 0.15948 0.0
H2546 H 0.95387 0.64775 0.19169 0.0
H2547 H 0.01715 0.64629 0.12736 0.0
H2548 H 0.9321 0.73009 0.14176 0.0
H2549 H 0.95119 0.69421 0.17241 0.0
H2550 H 0.97591 0.64593 0.10031 0.0
H2551 H 0.95794 0.68238 0.06984 0.0
C2552 C 0.9934 0.63012 0.20299 0.0
C2553 C 0.02098 0.62456 0.19463 0.0
C2554 C 0.97455 0.6424 0.18434 0.0
C2555 C 0.98292 0.64913 0.157 0.0
C2556 C 0.00977 0.64127 0.14813 0.0
C2557 C 0.02852 0.6291 0.16668 0.0
C2558 C 0.94112 0.71153 0.13254 0.0
C2559 C 0.94426 0.70934 0.1035 0.0
C2560 C 0.9519 0.69082 0.15008 0.0
C2561 C 0.96563 0.6674 0.13882 0.0
C2562 C 0.96619 0.66405 0.10968 0.0
C2563 C 0.95587 0.68491 0.09222 0.0
H2564 H 0.45029 0.37324 0.65901 0.0
H2565 H 0.51452 0.37355 0.72229 0.0
H2566 H 0.48186 0.35069 0.62683 0.0
H2567 H 0.54676 0.35151 0.68947 0.0
H2568 H 0.54019 0.31299 0.56898 0.0
H2569 H 0.52217 0.35007 0.59865 0.0
H2570 H 0.54942 0.30466 0.6717 0.0
H2571 H 0.56857 0.2682 0.64182 0.0
C2572 C 0.47146 0.36919 0.66582 0.0
C2573 C 0.47968 0.37465 0.6934 0.0
C2574 C 0.48975 0.35641 0.6472 0.0
C2575 C 0.51683 0.34888 0.65563 0.0
C2576 C 0.52587 0.35655 0.6825 0.0
C2577 C 0.50747 0.3694 0.70122 0.0
C2578 C 0.54274 0.31119 0.59138 0.0
C2579 C 0.55516 0.28743 0.60318 0.0
C2580 C 0.53239 0.33243 0.60839 0.0
C2581 C 0.53375 0.3301 0.63761 0.0
C2582 C 0.54811 0.30728 0.6493 0.0
C2583 C 0.55891 0.28623 0.6322 0.0
H2584 H 0.77848 0.48809 0.87695 0.0
H2585 H 0.84088 0.55323 0.87521 0.0
H2586 H 0.81175 0.45583 0.85577 0.0
H2587 H 0.87351 0.52159 0.85342 0.0
H2588 H 0.85894 0.43294 0.77268 0.0
H2589 H 0.82918 0.45249 0.80896 0.0
H2590 H 0.90225 0.48171 0.85308 0.0
H2591 H 0.93182 0.46322 0.81614 0.0
C2592 C 0.79946 0.49537 0.87269 0.0
C2593 C 0.80686 0.52341 0.87724 0.0
C2594 C 0.81845 0.47693 0.86031 0.0
C2595 C 0.84517 0.48619 0.85237 0.0
C2596 C 0.85324 0.51354 0.85933 0.0
C2597 C 0.83437 0.53187 0.87169 0.0
C2598 C 0.86862 0.4431 0.79039 0.0
C2599 C 0.89761 0.44721 0.79124 0.0
C2600 C 0.85158 0.45414 0.81136 0.0
C2601 C 0.86328 0.46915 0.83376 0.0
C2602 C 0.89249 0.47095 0.83577 0.0
C2603 C 0.90945 0.46033 0.81461 0.0
H2604 H 0.34081 0.95092 0.12092 0.0
H2605 H 0.27661 0.01417 0.12377 0.0
H2606 H 0.37286 0.98224 0.14406 0.0
H2607 H 0.30923 0.04613 0.14643 0.0
H2608 H 0.43015 0.04012 0.18341 0.0
H2609 H 0.40037 0.02303 0.14601 0.0
H2610 H 0.32743 0.04721 0.19329 0.0
H2611 H 0.35744 0.06546 0.23018 0.0
C2612 C 0.33378 0.97187 0.12571 0.0
C2613 C 0.30598 0.97981 0.121 0.0
C2614 C 0.35229 0.99001 0.13888 0.0
C2615 C 0.34354 0.01665 0.14757 0.0
C2616 C 0.31647 0.02555 0.14053 0.0
C2617 C 0.29786 0.00732 0.12727 0.0
C2618 C 0.40774 0.04221 0.18557 0.0
C2619 C 0.39603 0.05349 0.20996 0.0
C2620 C 0.39067 0.03239 0.16415 0.0
C2621 C 0.36147 0.03313 0.16686 0.0
C2622 C 0.34982 0.0464 0.19037 0.0
C2623 C 0.36698 0.05668 0.21165 0.0
H2624 H 0.22286 0.98737 0.62277 0.0
H2625 H 0.16026 0.05227 0.62319 0.0
H2626 H 0.18977 0.95543 0.64475 0.0
H2627 H 0.12772 0.02087 0.64566 0.0
H2628 H 0.06949 0.96209 0.68318 0.0
H2629 H 0.09926 0.98047 0.64636 0.0
H2630 H 0.17217 0.95319 0.6919 0.0
H2631 H 0.14221 0.93382 0.72823 0.0
C2632 C 0.20185 0.99463 0.62685 0.0
C2633 C 0.19436 0.02255 0.6217 0.0
C2634 C 0.18297 0.97638 0.63972 0.0
C2635 C 0.15623 0.98567 0.64749 0.0
C2636 C 0.14803 0.01282 0.63991 0.0
C2637 C 0.16683 0.03099 0.62712 0.0
C2638 C 0.09188 0.9596 0.68509 0.0
C2639 C 0.10358 0.94707 0.70888 0.0
C2640 C 0.10895 0.97018 0.66399 0.0
C2641 C 0.13815 0.96886 0.66638 0.0
C2642 C 0.14977 0.95446 0.68922 0.0
C2643 C 0.13262 0.94351 0.7102 0.0
H2644 H 0.57885 0.51194 0.29405 0.0
H2645 H 0.63064 0.58538 0.28628 0.0
H2646 H 0.60965 0.4935 0.32888 0.0
H2647 H 0.66086 0.56772 0.3232 0.0
H2648 H 0.72818 0.50563 0.35525 0.0
H2649 H 0.69503 0.535 0.33074 0.0
H2650 H 0.62709 0.49276 0.37283 0.0
H2651 H 0.66053 0.46172 0.39524 0.0
C2652 C 0.5965 0.5246 0.30029 0.0
C2653 C 0.60216 0.55024 0.2872 0.0
C2654 C 0.61415 0.51409 0.32076 0.0
C2655 C 0.63785 0.5291 0.32938 0.0
C2656 C 0.64306 0.5553 0.31697 0.0
C2657 C 0.62558 0.5656 0.29587 0.0
C2658 C 0.70615 0.50313 0.35971 0.0
C2659 C 0.69678 0.48117 0.37669 0.0
C2660 C 0.68702 0.52009 0.3457 0.0
C2661 C 0.65813 0.51584 0.34899 0.0
C2662 C 0.64907 0.49592 0.36871 0.0
C2663 C 0.66818 0.47833 0.38192 0.0
loop_
_geom_bond_atom_site_label_1
_geom_bond_atom_site_label_2
_geom_bond_distance
_geom_bond_site_symmetry_2
_ccdc_geom_bond_type
C0 O12 1.241 . S
C0 O13 1.280 . S
C1 O14 1.277 . S
C1 O15 1.245 . S
C2 O26 1.247 . S
C2 O28 1.289 . S
Mg3 O4 1.926 . S
Mg3 O13 1.984 . S
Mg3 O15 1.988 . S
Mg3 O16 2.061 . S
O4 Mg3 1.926 . S
O4 Mg5 1.986 . S
O4 Mg6 1.917 . S
Mg5 O4 1.986 . S
Mg5 O12 2.042 . S
Mg5 O14 2.041 . S
Mg5 O20 2.038 . S
Mg5 O28 2.238 . S
Mg6 O4 1.917 . S
Mg6 O7 1.917 . S
Mg6 O17 2.106 . S
Mg6 O19 2.079 . S
Mg6 O28 2.106 . S
Mg6 O29 2.079 . S
O7 Mg6 1.917 . S
O7 Mg8 1.926 . S
O7 Mg9 1.986 . S
Mg8 O7 1.926 . S
Mg8 O22 1.984 . S
Mg8 O25 1.988 . S
Mg8 O26 2.061 . S
Mg9 O7 1.986 . S
Mg9 O17 2.238 . S
Mg9 O21 2.042 . S
Mg9 O23 2.041 . S
Mg9 O30 2.038 . S
C10 O16 1.247 . S
C10 O17 1.289 . S
C11 O29 1.245 . S
C11 O30 1.274 . S
O12 C0 1.241 . S
O12 Mg5 2.042 . S
O13 C0 1.280 . S
O13 Mg3 1.984 . S
O14 C1 1.277 . S
O14 Mg5 2.041 . S
O15 C1 1.245 . S
O15 Mg3 1.988 . S
O16 Mg3 2.061 . S
O16 C10 1.247 . S
O17 Mg6 2.106 . S
O17 Mg9 2.238 . S
O17 C10 1.289 . S
C18 O19 1.245 . S
C18 O20 1.274 . S
O19 Mg6 2.079 . S
O19 C18 1.245 . S
O20 Mg5 2.038 . S
O20 C18 1.274 . S
O21 Mg9 2.042 . S
O21 C24 1.241 . S
O22 Mg8 1.984 . S
O22 C24 1.280 . S
O23 Mg9 2.041 . S
O23 C27 1.277 . S
C24 O21 1.241 . S
C24 O22 1.280 . S
O25 Mg8 1.988 . S
O25 C27 1.245 . S
O26 C2 1.247 . S
O26 Mg8 2.061 . S
C27 O23 1.277 . S
C27 O25 1.245 . S
O28 C2 1.289 . S
O28 Mg5 2.238 . S
O28 Mg6 2.106 . S
O29 Mg6 2.079 . S
O29 C11 1.245 . S
O30 Mg9 2.038 . S
O30 C11 1.274 . S
C31 O43 1.241 . S
C31 O44 1.280 . S
C32 O45 1.277 1_554 S
C32 O46 1.245 1_554 S
C33 O57 1.247 . S
C33 O59 1.289 . S
Mg34 O35 1.926 . S
Mg34 O44 1.984 . S
Mg34 O46 1.988 . S
Mg34 O47 2.061 . S
O35 Mg34 1.926 . S
O35 Mg36 1.986 . S
O35 Mg37 1.917 . S
Mg36 O35 1.986 . S
Mg36 O43 2.042 . S
Mg36 O45 2.041 . S
Mg36 O51 2.038 . S
Mg36 O59 2.238 . S
Mg37 O35 1.917 . S
Mg37 O38 1.917 . S
Mg37 O48 2.106 . S
Mg37 O50 2.079 . S
Mg37 O59 2.106 . S
Mg37 O60 2.079 . S
O38 Mg37 1.917 . S
O38 Mg39 1.926 . S
O38 Mg40 1.986 . S
Mg39 O38 1.926 . S
Mg39 O53 1.984 . S
Mg39 O56 1.988 . S
Mg39 O57 2.061 . S
Mg40 O38 1.986 . S
Mg40 O48 2.238 . S
Mg40 O52 2.042 . S
Mg40 O54 2.041 . S
Mg40 O61 2.038 . S
C41 O47 1.247 . S
C41 O48 1.289 . S
C42 O60 1.245 . S
C42 O61 1.274 . S
O43 C31 1.241 . S
O43 Mg36 2.042 . S
O44 C31 1.280 . S
O44 Mg34 1.984 . S
O45 C32 1.277 1_556 S
O45 Mg36 2.041 . S
O46 C32 1.245 1_556 S
O46 Mg34 1.988 . S
O47 Mg34 2.061 . S
O47 C41 1.247 . S
O48 Mg37 2.106 . S
O48 Mg40 2.238 . S
O48 C41 1.289 . S
C49 O50 1.245 . S
C49 O51 1.274 . S
O50 Mg37 2.079 . S
O50 C49 1.245 . S
O51 Mg36 2.038 . S
O51 C49 1.274 . S
O52 Mg40 2.042 . S
O52 C55 1.241 . S
O53 Mg39 1.984 . S
O53 C55 1.280 . S
O54 Mg40 2.041 . S
O54 C58 1.277 . S
C55 O52 1.241 . S
C55 O53 1.280 . S
O56 Mg39 1.988 . S
O56 C58 1.245 . S
O57 C33 1.247 . S
O57 Mg39 2.061 . S
C58 O54 1.277 . S
C58 O56 1.245 . S
O59 C33 1.289 . S
O59 Mg36 2.238 . S
O59 Mg37 2.106 . S
O60 Mg37 2.079 . S
O60 C42 1.245 . S
O61 Mg40 2.038 . S
O61 C42 1.274 . S
C62 O74 1.241 . S
C62 O75 1.280 . S
C63 O76 1.277 . S
C63 O77 1.245 . S
C64 O88 1.247 . S
C64 O90 1.289 . S
Mg65 O66 1.926 . S
Mg65 O75 1.984 . S
Mg65 O77 1.988 . S
Mg65 O78 2.061 . S
O66 Mg65 1.926 . S
O66 Mg67 1.986 . S
O66 Mg68 1.917 . S
Mg67 O66 1.986 . S
Mg67 O74 2.042 . S
Mg67 O76 2.041 . S
Mg67 O82 2.038 . S
Mg67 O90 2.238 . S
Mg68 O66 1.917 . S
Mg68 O69 1.917 . S
Mg68 O79 2.106 . S
Mg68 O81 2.079 . S
Mg68 O90 2.106 . S
Mg68 O91 2.079 . S
O69 Mg68 1.917 . S
O69 Mg70 1.926 . S
O69 Mg71 1.986 . S
Mg70 O69 1.926 . S
Mg70 O84 1.984 . S
Mg70 O87 1.988 . S
Mg70 O88 2.061 . S
Mg71 O69 1.986 . S
Mg71 O79 2.238 . S
Mg71 O83 2.042 . S
Mg71 O85 2.041 . S
Mg71 O92 2.038 . S
C72 O78 1.247 . S
C72 O79 1.289 . S
C73 O91 1.245 . S
C73 O92 1.274 . S
O74 C62 1.241 . S
O74 Mg67 2.042 . S
O75 C62 1.280 . S
O75 Mg65 1.984 . S
O76 C63 1.277 . S
O76 Mg67 2.041 . S
O77 C63 1.245 . S
O77 Mg65 1.988 . S
O78 Mg65 2.061 . S
O78 C72 1.247 . S
O79 Mg68 2.106 . S
O79 Mg71 2.238 . S
O79 C72 1.289 . S
C80 O81 1.245 . S
C80 O82 1.274 . S
O81 Mg68 2.079 . S
O81 C80 1.245 . S
O82 Mg67 2.038 . S
O82 C80 1.274 . S
O83 Mg71 2.042 . S
O83 C86 1.241 . S
O84 Mg70 1.984 . S
O84 C86 1.280 . S
O85 Mg71 2.041 . S
O85 C89 1.277 . S
C86 O83 1.241 . S
C86 O84 1.280 . S
O87 Mg70 1.988 . S
O87 C89 1.245 . S
O88 C64 1.247 . S
O88 Mg70 2.061 . S
C89 O85 1.277 . S
C89 O87 1.245 . S
O90 C64 1.289 . S
O90 Mg67 2.238 . S
O90 Mg68 2.106 . S
O91 Mg68 2.079 . S
O91 C73 1.245 . S
O92 Mg71 2.038 . S
O92 C73 1.274 . S
C93 O105 1.241 . S
C93 O106 1.280 . S
C94 O107 1.277 1_556 S
C94 O108 1.245 1_556 S
C95 O119 1.247 . S
C95 O121 1.289 . S
Mg96 O97 1.926 . S
Mg96 O106 1.984 . S
Mg96 O108 1.988 . S
Mg96 O109 2.061 . S
O97 Mg96 1.926 . S
O97 Mg98 1.986 . S
O97 Mg99 1.917 . S
Mg98 O97 1.986 . S
Mg98 O105 2.042 . S
Mg98 O107 2.041 . S
Mg98 O113 2.038 . S
Mg98 O121 2.238 . S
Mg99 O97 1.917 . S
Mg99 O100 1.917 . S
Mg99 O110 2.106 . S
Mg99 O112 2.079 . S
Mg99 O121 2.106 . S
Mg99 O122 2.079 . S
O100 Mg99 1.917 . S
O100 Mg101 1.926 . S
O100 Mg102 1.986 . S
Mg101 O100 1.926 . S
Mg101 O115 1.984 . S
Mg101 O118 1.988 . S
Mg101 O119 2.061 . S
Mg102 O100 1.986 . S
Mg102 O110 2.238 . S
Mg102 O114 2.042 . S
Mg102 O116 2.041 . S
Mg102 O123 2.038 . S
C103 O109 1.247 . S
C103 O110 1.289 . S
C104 O122 1.245 . S
C104 O123 1.274 . S
O105 C93 1.241 . S
O105 Mg98 2.042 . S
O106 C93 1.280 . S
O106 Mg96 1.984 . S
O107 C94 1.277 1_554 S
O107 Mg98 2.041 . S
O108 C94 1.245 1_554 S
O108 Mg96 1.988 . S
O109 Mg96 2.061 . S
O109 C103 1.247 . S
O110 Mg99 2.106 . S
O110 Mg102 2.238 . S
O110 C103 1.289 . S
C111 O112 1.245 . S
C111 O113 1.274 . S
O112 Mg99 2.079 . S
O112 C111 1.245 . S
O113 Mg98 2.038 . S
O113 C111 1.274 . S
O114 Mg102 2.042 . S
O114 C117 1.241 . S
O115 Mg101 1.984 . S
O115 C117 1.280 . S
O116 Mg102 2.041 . S
O116 C120 1.277 . S
C117 O114 1.241 . S
C117 O115 1.280 . S
O118 Mg101 1.988 . S
O118 C120 1.245 . S
O119 C95 1.247 . S
O119 Mg101 2.061 . S
C120 O116 1.277 . S
C120 O118 1.245 . S
O121 C95 1.289 . S
O121 Mg98 2.238 . S
O121 Mg99 2.106 . S
O122 Mg99 2.079 . S
O122 C104 1.245 . S
O123 Mg102 2.038 . S
O123 C104 1.274 . S
C124 O136 1.241 . S
C124 O137 1.280 . S
C125 O138 1.277 . S
C125 O139 1.245 . S
C126 O150 1.247 . S
C126 O152 1.289 . S
Mg127 O128 1.926 . S
Mg127 O137 1.984 . S
Mg127 O139 1.988 . S
Mg127 O140 2.061 . S
O128 Mg127 1.926 . S
O128 Mg129 1.986 . S
O128 Mg130 1.917 . S
Mg129 O128 1.986 . S
Mg129 O136 2.042 . S
Mg129 O138 2.041 . S
Mg129 O144 2.038 . S
Mg129 O152 2.238 . S
Mg130 O128 1.917 . S
Mg130 O131 1.917 . S
Mg130 O141 2.106 . S
Mg130 O143 2.079 . S
Mg130 O152 2.106 . S
Mg130 O153 2.079 . S
O131 Mg130 1.917 . S
O131 Mg132 1.926 . S
O131 Mg133 1.986 . S
Mg132 O131 1.926 . S
Mg132 O146 1.984 . S
Mg132 O149 1.988 . S
Mg132 O150 2.061 . S
Mg133 O131 1.986 . S
Mg133 O141 2.238 . S
Mg133 O145 2.042 . S
Mg133 O147 2.041 . S
Mg133 O154 2.038 . S
C134 O140 1.247 . S
C134 O141 1.289 . S
C135 O153 1.245 . S
C135 O154 1.274 . S
O136 C124 1.241 . S
O136 Mg129 2.042 . S
O137 C124 1.280 . S
O137 Mg127 1.984 . S
O138 C125 1.277 . S
O138 Mg129 2.041 . S
O139 C125 1.245 . S
O139 Mg127 1.988 . S
O140 Mg127 2.061 . S
O140 C134 1.247 . S
O141 Mg130 2.106 . S
O141 Mg133 2.238 . S
O141 C134 1.289 . S
C142 O143 1.245 . S
C142 O144 1.274 . S
O143 Mg130 2.079 . S
O143 C142 1.245 . S
O144 Mg129 2.038 . S
O144 C142 1.274 . S
O145 Mg133 2.042 . S
O145 C148 1.241 . S
O146 Mg132 1.984 . S
O146 C148 1.280 . S
O147 Mg133 2.041 . S
O147 C151 1.277 . S
C148 O145 1.241 . S
C148 O146 1.280 . S
O149 Mg132 1.988 . S
O149 C151 1.245 . S
O150 C126 1.247 . S
O150 Mg132 2.061 . S
C151 O147 1.277 . S
C151 O149 1.245 . S
O152 C126 1.289 . S
O152 Mg129 2.238 . S
O152 Mg130 2.106 . S
O153 Mg130 2.079 . S
O153 C135 1.245 . S
O154 Mg133 2.038 . S
O154 C135 1.274 . S
C155 O167 1.241 . S
C155 O168 1.280 . S
C156 O169 1.277 1_655 S
C156 O170 1.245 1_655 S
C157 O181 1.247 . S
C157 O183 1.289 . S
Mg158 O159 1.926 . S
Mg158 O168 1.984 . S
Mg158 O170 1.988 . S
Mg158 O171 2.061 . S
O159 Mg158 1.926 . S
O159 Mg160 1.986 . S
O159 Mg161 1.917 . S
Mg160 O159 1.986 . S
Mg160 O167 2.042 . S
Mg160 O169 2.041 . S
Mg160 O175 2.038 . S
Mg160 O183 2.238 . S
Mg161 O159 1.917 . S
Mg161 O162 1.917 . S
Mg161 O172 2.106 . S
Mg161 O174 2.079 . S
Mg161 O183 2.106 . S
Mg161 O184 2.079 . S
O162 Mg161 1.917 . S
O162 Mg163 1.926 . S
O162 Mg164 1.986 . S
Mg163 O162 1.926 . S
Mg163 O177 1.984 . S
Mg163 O180 1.988 . S
Mg163 O181 2.061 . S
Mg164 O162 1.986 . S
Mg164 O172 2.238 . S
Mg164 O176 2.042 . S
Mg164 O178 2.041 . S
Mg164 O185 2.038 . S
C165 O171 1.247 . S
C165 O172 1.289 . S
C166 O184 1.245 . S
C166 O185 1.274 . S
O167 C155 1.241 . S
O167 Mg160 2.042 . S
O168 C155 1.280 . S
O168 Mg158 1.984 . S
O169 C156 1.277 1_455 S
O169 Mg160 2.041 . S
O170 C156 1.245 1_455 S
O170 Mg158 1.988 . S
O171 Mg158 2.061 . S
O171 C165 1.247 . S
O172 Mg161 2.106 . S
O172 Mg164 2.238 . S
O172 C165 1.289 . S
C173 O174 1.245 . S
C173 O175 1.274 . S
O174 Mg161 2.079 . S
O174 C173 1.245 . S
O175 Mg160 2.038 . S
O175 C173 1.274 . S
O176 Mg164 2.042 . S
O176 C179 1.241 . S
O177 Mg163 1.984 . S
O177 C179 1.280 . S
O178 Mg164 2.041 . S
O178 C182 1.277 . S
C179 O176 1.241 . S
C179 O177 1.280 . S
O180 Mg163 1.988 . S
O180 C182 1.245 . S
O181 C157 1.247 . S
O181 Mg163 2.061 . S
C182 O178 1.277 . S
C182 O180 1.245 . S
O183 C157 1.289 . S
O183 Mg160 2.238 . S
O183 Mg161 2.106 . S
O184 Mg161 2.079 . S
O184 C166 1.245 . S
O185 Mg164 2.038 . S
O185 C166 1.274 . S
C186 O198 1.241 . S
C186 O199 1.280 . S
C187 O200 1.277 1_455 S
C187 O201 1.245 1_455 S
C188 O212 1.247 . S
C188 O214 1.289 . S
Mg189 O190 1.926 . S
Mg189 O199 1.984 . S
Mg189 O201 1.988 . S
Mg189 O202 2.061 . S
O190 Mg189 1.926 . S
O190 Mg191 1.986 . S
O190 Mg192 1.917 . S
Mg191 O190 1.986 . S
Mg191 O198 2.042 . S
Mg191 O200 2.041 . S
Mg191 O206 2.038 . S
Mg191 O214 2.238 . S
Mg192 O190 1.917 . S
Mg192 O193 1.917 . S
Mg192 O203 2.106 . S
Mg192 O205 2.079 . S
Mg192 O214 2.106 . S
Mg192 O215 2.079 . S
O193 Mg192 1.917 . S
O193 Mg194 1.926 . S
O193 Mg195 1.986 . S
Mg194 O193 1.926 . S
Mg194 O208 1.984 . S
Mg194 O211 1.988 . S
Mg194 O212 2.061 . S
Mg195 O193 1.986 . S
Mg195 O203 2.238 . S
Mg195 O207 2.042 . S
Mg195 O209 2.041 . S
Mg195 O216 2.038 . S
C196 O202 1.247 . S
C196 O203 1.289 . S
C197 O215 1.245 . S
C197 O216 1.274 . S
O198 C186 1.241 . S
O198 Mg191 2.042 . S
O199 C186 1.280 . S
O199 Mg189 1.984 . S
O200 C187 1.277 1_655 S
O200 Mg191 2.041 . S
O201 C187 1.245 1_655 S
O201 Mg189 1.988 . S
O202 Mg189 2.061 . S
O202 C196 1.247 . S
O203 Mg192 2.106 . S
O203 Mg195 2.238 . S
O203 C196 1.289 . S
C204 O205 1.245 . S
C204 O206 1.274 . S
O205 Mg192 2.079 . S
O205 C204 1.245 . S
O206 Mg191 2.038 . S
O206 C204 1.274 . S
O207 Mg195 2.042 . S
O207 C210 1.241 . S
O208 Mg194 1.984 . S
O208 C210 1.280 . S
O209 Mg195 2.041 . S
O209 C213 1.277 . S
C210 O207 1.241 . S
C210 O208 1.280 . S
O211 Mg194 1.988 . S
O211 C213 1.245 . S
O212 C188 1.247 . S
O212 Mg194 2.061 . S
C213 O209 1.277 . S
C213 O211 1.245 . S
O214 C188 1.289 . S
O214 Mg191 2.238 . S
O214 Mg192 2.106 . S
O215 Mg192 2.079 . S
O215 C197 1.245 . S
O216 Mg195 2.038 . S
O216 C197 1.274 . S
C217 O229 1.241 . S
C217 O230 1.280 . S
C218 O231 1.277 . S
C218 O232 1.245 . S
C219 O243 1.247 . S
C219 O245 1.289 . S
Mg220 O221 1.926 . S
Mg220 O230 1.984 . S
Mg220 O232 1.988 . S
Mg220 O233 2.061 . S
O221 Mg220 1.926 . S
O221 Mg222 1.986 . S
O221 Mg223 1.917 . S
Mg222 O221 1.986 . S
Mg222 O229 2.042 . S
Mg222 O231 2.041 . S
Mg222 O237 2.038 . S
Mg222 O245 2.238 . S
Mg223 O221 1.917 . S
Mg223 O224 1.917 . S
Mg223 O234 2.106 . S
Mg223 O236 2.079 . S
Mg223 O245 2.106 . S
Mg223 O246 2.079 . S
O224 Mg223 1.917 . S
O224 Mg225 1.926 . S
O224 Mg226 1.986 . S
Mg225 O224 1.926 . S
Mg225 O239 1.984 . S
Mg225 O242 1.988 . S
Mg225 O243 2.061 . S
Mg226 O224 1.986 . S
Mg226 O234 2.238 . S
Mg226 O238 2.042 . S
Mg226 O240 2.041 . S
Mg226 O247 2.038 . S
C227 O233 1.247 . S
C227 O234 1.289 . S
C228 O246 1.245 . S
C228 O247 1.274 . S
O229 C217 1.241 . S
O229 Mg222 2.042 . S
O230 C217 1.280 . S
O230 Mg220 1.984 . S
O231 C218 1.277 . S
O231 Mg222 2.041 . S
O232 C218 1.245 . S
O232 Mg220 1.988 . S
O233 Mg220 2.061 . S
O233 C227 1.247 . S
O234 Mg223 2.106 . S
O234 Mg226 2.238 . S
O234 C227 1.289 . S
C235 O236 1.245 . S
C235 O237 1.274 . S
O236 Mg223 2.079 . S
O236 C235 1.245 . S
O237 Mg222 2.038 . S
O237 C235 1.274 . S
O238 Mg226 2.042 . S
O238 C241 1.241 . S
O239 Mg225 1.984 . S
O239 C241 1.280 . S
O240 Mg226 2.041 . S
O240 C244 1.277 . S
C241 O238 1.241 . S
C241 O239 1.280 . S
O242 Mg225 1.988 . S
O242 C244 1.245 . S
O243 C219 1.247 . S
O243 Mg225 2.061 . S
C244 O240 1.277 . S
C244 O242 1.245 . S
O245 C219 1.289 . S
O245 Mg222 2.238 . S
O245 Mg223 2.106 . S
O246 Mg223 2.079 . S
O246 C228 1.245 . S
O247 Mg226 2.038 . S
O247 C228 1.274 . S
C248 O260 1.241 . S
C248 O261 1.280 . S
C249 O262 1.277 . S
C249 O263 1.245 . S
C250 O274 1.247 . S
C250 O276 1.289 . S
Mg251 O252 1.926 . S
Mg251 O261 1.984 . S
Mg251 O263 1.988 . S
Mg251 O264 2.061 . S
O252 Mg251 1.926 . S
O252 Mg253 1.986 . S
O252 Mg254 1.917 . S
Mg253 O252 1.986 . S
Mg253 O260 2.042 . S
Mg253 O262 2.041 . S
Mg253 O268 2.038 . S
Mg253 O276 2.238 . S
Mg254 O252 1.917 . S
Mg254 O255 1.917 . S
Mg254 O265 2.106 . S
Mg254 O267 2.079 . S
Mg254 O276 2.106 . S
Mg254 O277 2.079 . S
O255 Mg254 1.917 . S
O255 Mg256 1.926 . S
O255 Mg257 1.986 . S
Mg256 O255 1.926 . S
Mg256 O270 1.984 . S
Mg256 O273 1.988 . S
Mg256 O274 2.061 . S
Mg257 O255 1.986 . S
Mg257 O265 2.238 . S
Mg257 O269 2.042 . S
Mg257 O271 2.041 . S
Mg257 O278 2.038 . S
C258 O264 1.247 . S
C258 O265 1.289 . S
C259 O277 1.245 . S
C259 O278 1.274 . S
O260 C248 1.241 . S
O260 Mg253 2.042 . S
O261 C248 1.280 . S
O261 Mg251 1.984 . S
O262 C249 1.277 . S
O262 Mg253 2.041 . S
O263 C249 1.245 . S
O263 Mg251 1.988 . S
O264 Mg251 2.061 . S
O264 C258 1.247 . S
O265 Mg254 2.106 . S
O265 Mg257 2.238 . S
O265 C258 1.289 . S
C266 O267 1.245 . S
C266 O268 1.274 . S
O267 Mg254 2.079 . S
O267 C266 1.245 . S
O268 Mg253 2.038 . S
O268 C266 1.274 . S
O269 Mg257 2.042 . S
O269 C272 1.241 . S
O270 Mg256 1.984 . S
O270 C272 1.280 . S
O271 Mg257 2.041 . S
O271 C275 1.277 . S
C272 O269 1.241 . S
C272 O270 1.280 . S
O273 Mg256 1.988 . S
O273 C275 1.245 . S
O274 C250 1.247 . S
O274 Mg256 2.061 . S
C275 O271 1.277 . S
C275 O273 1.245 . S
O276 C250 1.289 . S
O276 Mg253 2.238 . S
O276 Mg254 2.106 . S
O277 Mg254 2.079 . S
O277 C259 1.245 . S
O278 Mg257 2.038 . S
O278 C259 1.274 . S
C279 O291 1.241 . S
C279 O292 1.280 . S
C280 O293 1.277 1_565 S
C280 O294 1.245 1_565 S
C281 O305 1.247 . S
C281 O307 1.289 . S
Mg282 O283 1.926 . S
Mg282 O292 1.984 . S
Mg282 O294 1.988 . S
Mg282 O295 2.061 . S
O283 Mg282 1.926 . S
O283 Mg284 1.986 . S
O283 Mg285 1.917 . S
Mg284 O283 1.986 . S
Mg284 O291 2.042 . S
Mg284 O293 2.041 . S
Mg284 O299 2.038 . S
Mg284 O307 2.238 . S
Mg285 O283 1.917 . S
Mg285 O286 1.917 . S
Mg285 O296 2.106 . S
Mg285 O298 2.079 . S
Mg285 O307 2.106 . S
Mg285 O308 2.079 . S
O286 Mg285 1.917 . S
O286 Mg287 1.926 . S
O286 Mg288 1.986 . S
Mg287 O286 1.926 . S
Mg287 O301 1.984 . S
Mg287 O304 1.988 . S
Mg287 O305 2.061 . S
Mg288 O286 1.986 . S
Mg288 O296 2.238 . S
Mg288 O300 2.042 . S
Mg288 O302 2.041 . S
Mg288 O309 2.038 . S
C289 O295 1.247 . S
C289 O296 1.289 . S
C290 O308 1.245 . S
C290 O309 1.274 . S
O291 C279 1.241 . S
O291 Mg284 2.042 . S
O292 C279 1.280 . S
O292 Mg282 1.984 . S
O293 C280 1.277 1_545 S
O293 Mg284 2.041 . S
O294 C280 1.245 1_545 S
O294 Mg282 1.988 . S
O295 Mg282 2.061 . S
O295 C289 1.247 . S
O296 Mg285 2.106 . S
O296 Mg288 2.238 . S
O296 C289 1.289 . S
C297 O298 1.245 . S
C297 O299 1.274 . S
O298 Mg285 2.079 . S
O298 C297 1.245 . S
O299 Mg284 2.038 . S
O299 C297 1.274 . S
O300 Mg288 2.042 . S
O300 C303 1.241 . S
O301 Mg287 1.984 . S
O301 C303 1.280 . S
O302 Mg288 2.041 . S
O302 C306 1.277 . S
C303 O300 1.241 . S
C303 O301 1.280 . S
O304 Mg287 1.988 . S
O304 C306 1.245 . S
O305 C281 1.247 . S
O305 Mg287 2.061 . S
C306 O302 1.277 . S
C306 O304 1.245 . S
O307 C281 1.289 . S
O307 Mg284 2.238 . S
O307 Mg285 2.106 . S
O308 Mg285 2.079 . S
O308 C290 1.245 . S
O309 Mg288 2.038 . S
O309 C290 1.274 . S
C310 O322 1.241 . S
C310 O323 1.280 . S
C311 O324 1.277 1_545 S
C311 O325 1.245 1_545 S
C312 O336 1.247 . S
C312 O338 1.289 . S
Mg313 O314 1.926 . S
Mg313 O323 1.984 . S
Mg313 O325 1.988 . S
Mg313 O326 2.061 . S
O314 Mg313 1.926 . S
O314 Mg315 1.986 . S
O314 Mg316 1.917 . S
Mg315 O314 1.986 . S
Mg315 O322 2.042 . S
Mg315 O324 2.041 . S
Mg315 O330 2.038 . S
Mg315 O338 2.238 . S
Mg316 O314 1.917 . S
Mg316 O317 1.917 . S
Mg316 O327 2.106 . S
Mg316 O329 2.079 . S
Mg316 O338 2.106 . S
Mg316 O339 2.079 . S
O317 Mg316 1.917 . S
O317 Mg318 1.926 . S
O317 Mg319 1.986 . S
Mg318 O317 1.926 . S
Mg318 O332 1.984 . S
Mg318 O335 1.988 . S
Mg318 O336 2.061 . S
Mg319 O317 1.986 . S
Mg319 O327 2.238 . S
Mg319 O331 2.042 . S
Mg319 O333 2.041 . S
Mg319 O340 2.038 . S
C320 O326 1.247 . S
C320 O327 1.289 . S
C321 O339 1.245 . S
C321 O340 1.274 . S
O322 C310 1.241 . S
O322 Mg315 2.042 . S
O323 C310 1.280 . S
O323 Mg313 1.984 . S
O324 C311 1.277 1_565 S
O324 Mg315 2.041 . S
O325 C311 1.245 1_565 S
O325 Mg313 1.988 . S
O326 Mg313 2.061 . S
O326 C320 1.247 . S
O327 Mg316 2.106 . S
O327 Mg319 2.238 . S
O327 C320 1.289 . S
C328 O329 1.245 . S
C328 O330 1.274 . S
O329 Mg316 2.079 . S
O329 C328 1.245 . S
O330 Mg315 2.038 . S
O330 C328 1.274 . S
O331 Mg319 2.042 . S
O331 C334 1.241 . S
O332 Mg318 1.984 . S
O332 C334 1.280 . S
O333 Mg319 2.041 . S
O333 C337 1.277 . S
C334 O331 1.241 . S
C334 O332 1.280 . S
O335 Mg318 1.988 . S
O335 C337 1.245 . S
O336 C312 1.247 . S
O336 Mg318 2.061 . S
C337 O333 1.277 . S
C337 O335 1.245 . S
O338 C312 1.289 . S
O338 Mg315 2.238 . S
O338 Mg316 2.106 . S
O339 Mg316 2.079 . S
O339 C321 1.245 . S
O340 Mg319 2.038 . S
O340 C321 1.274 . S
C341 O353 1.241 . S
C341 O354 1.280 . S
C342 O355 1.277 . S
C342 O356 1.245 . S
C343 O367 1.247 . S
C343 O369 1.289 . S
Mg344 O345 1.926 . S
Mg344 O354 1.984 . S
Mg344 O356 1.988 . S
Mg344 O357 2.061 . S
O345 Mg344 1.926 . S
O345 Mg346 1.986 . S
O345 Mg347 1.917 . S
Mg346 O345 1.986 . S
Mg346 O353 2.042 . S
Mg346 O355 2.041 . S
Mg346 O361 2.038 . S
Mg346 O369 2.238 . S
Mg347 O345 1.917 . S
Mg347 O348 1.917 . S
Mg347 O358 2.106 . S
Mg347 O360 2.079 . S
Mg347 O369 2.106 . S
Mg347 O370 2.079 . S
O348 Mg347 1.917 . S
O348 Mg349 1.926 . S
O348 Mg350 1.986 . S
Mg349 O348 1.926 . S
Mg349 O363 1.984 . S
Mg349 O366 1.988 . S
Mg349 O367 2.061 . S
Mg350 O348 1.986 . S
Mg350 O358 2.238 . S
Mg350 O362 2.042 . S
Mg350 O364 2.041 . S
Mg350 O371 2.038 . S
C351 O357 1.247 . S
C351 O358 1.289 . S
C352 O370 1.245 . S
C352 O371 1.274 . S
O353 C341 1.241 . S
O353 Mg346 2.042 . S
O354 C341 1.280 . S
O354 Mg344 1.984 . S
O355 C342 1.277 . S
O355 Mg346 2.041 . S
O356 C342 1.245 . S
O356 Mg344 1.988 . S
O357 Mg344 2.061 . S
O357 C351 1.247 . S
O358 Mg347 2.106 . S
O358 Mg350 2.238 . S
O358 C351 1.289 . S
C359 O360 1.245 . S
C359 O361 1.274 . S
O360 Mg347 2.079 . S
O360 C359 1.245 . S
O361 Mg346 2.038 . S
O361 C359 1.274 . S
O362 Mg350 2.042 . S
O362 C365 1.241 . S
O363 Mg349 1.984 . S
O363 C365 1.280 . S
O364 Mg350 2.041 . S
O364 C368 1.277 . S
C365 O362 1.241 . S
C365 O363 1.280 . S
O366 Mg349 1.988 . S
O366 C368 1.245 . S
O367 C343 1.247 . S
O367 Mg349 2.061 . S
C368 O364 1.277 . S
C368 O366 1.245 . S
O369 C343 1.289 . S
O369 Mg346 2.238 . S
O369 Mg347 2.106 . S
O370 Mg347 2.079 . S
O370 C352 1.245 . S
O371 Mg350 2.038 . S
O371 C352 1.274 . S
C372 O384 1.241 . S
C372 O385 1.280 . S
C373 O386 1.277 . S
C373 O387 1.245 . S
C374 O398 1.247 . S
C374 O400 1.289 . S
Mg375 O376 1.926 . S
Mg375 O385 1.984 . S
Mg375 O387 1.988 . S
Mg375 O388 2.061 . S
O376 Mg375 1.926 . S
O376 Mg377 1.986 . S
O376 Mg378 1.917 . S
Mg377 O376 1.986 . S
Mg377 O384 2.042 . S
Mg377 O386 2.041 . S
Mg377 O392 2.038 . S
Mg377 O400 2.238 . S
Mg378 O376 1.917 . S
Mg378 O379 1.917 . S
Mg378 O389 2.106 . S
Mg378 O391 2.079 . S
Mg378 O400 2.106 . S
Mg378 O401 2.079 . S
O379 Mg378 1.917 . S
O379 Mg380 1.926 . S
O379 Mg381 1.986 . S
Mg380 O379 1.926 . S
Mg380 O394 1.984 . S
Mg380 O397 1.988 . S
Mg380 O398 2.061 . S
Mg381 O379 1.986 . S
Mg381 O389 2.238 . S
Mg381 O393 2.042 . S
Mg381 O395 2.041 . S
Mg381 O402 2.038 . S
C382 O388 1.247 . S
C382 O389 1.289 . S
C383 O401 1.245 . S
C383 O402 1.274 . S
O384 C372 1.241 . S
O384 Mg377 2.042 . S
O385 C372 1.280 . S
O385 Mg375 1.984 . S
O386 C373 1.277 . S
O386 Mg377 2.041 . S
O387 C373 1.245 . S
O387 Mg375 1.988 . S
O388 Mg375 2.061 . S
O388 C382 1.247 . S
O389 Mg378 2.106 . S
O389 Mg381 2.238 . S
O389 C382 1.289 . S
C390 O391 1.245 . S
C390 O392 1.274 . S
O391 Mg378 2.079 . S
O391 C390 1.245 . S
O392 Mg377 2.038 . S
O392 C390 1.274 . S
O393 Mg381 2.042 . S
O393 C396 1.241 . S
O394 Mg380 1.984 . S
O394 C396 1.280 . S
O395 Mg381 2.041 . S
O395 C399 1.277 . S
C396 O393 1.241 . S
C396 O394 1.280 . S
O397 Mg380 1.988 . S
O397 C399 1.245 . S
O398 C374 1.247 . S
O398 Mg380 2.061 . S
C399 O395 1.277 . S
C399 O397 1.245 . S
O400 C374 1.289 . S
O400 Mg377 2.238 . S
O400 Mg378 2.106 . S
O401 Mg378 2.079 . S
O401 C383 1.245 . S
O402 Mg381 2.038 . S
O402 C383 1.274 . S
C403 O415 1.241 . S
C403 O416 1.280 . S
C404 O417 1.277 . S
C404 O418 1.245 . S
C405 O429 1.247 . S
C405 O431 1.289 . S
Mg406 O407 1.926 . S
Mg406 O416 1.984 . S
Mg406 O418 1.988 . S
Mg406 O419 2.061 . S
O407 Mg406 1.926 . S
O407 Mg408 1.986 . S
O407 Mg409 1.917 . S
Mg408 O407 1.986 . S
Mg408 O415 2.042 . S
Mg408 O417 2.041 . S
Mg408 O423 2.038 . S
Mg408 O431 2.238 . S
Mg409 O407 1.917 . S
Mg409 O410 1.917 . S
Mg409 O420 2.106 . S
Mg409 O422 2.079 . S
Mg409 O431 2.106 . S
Mg409 O432 2.079 . S
O410 Mg409 1.917 . S
O410 Mg411 1.926 . S
O410 Mg412 1.986 . S
Mg411 O410 1.926 . S
Mg411 O425 1.984 . S
Mg411 O428 1.988 . S
Mg411 O429 2.061 . S
Mg412 O410 1.986 . S
Mg412 O420 2.238 . S
Mg412 O424 2.042 . S
Mg412 O426 2.041 . S
Mg412 O433 2.038 . S
C413 O419 1.247 . S
C413 O420 1.289 . S
C414 O432 1.245 . S
C414 O433 1.274 . S
O415 C403 1.241 . S
O415 Mg408 2.042 . S
O416 C403 1.280 . S
O416 Mg406 1.984 . S
O417 C404 1.277 . S
O417 Mg408 2.041 . S
O418 C404 1.245 . S
O418 Mg406 1.988 . S
O419 Mg406 2.061 . S
O419 C413 1.247 . S
O420 Mg409 2.106 . S
O420 Mg412 2.238 . S
O420 C413 1.289 . S
C421 O422 1.245 . S
C421 O423 1.274 . S
O422 Mg409 2.079 . S
O422 C421 1.245 . S
O423 Mg408 2.038 . S
O423 C421 1.274 . S
O424 Mg412 2.042 . S
O424 C427 1.241 . S
O425 Mg411 1.984 . S
O425 C427 1.280 . S
O426 Mg412 2.041 . S
O426 C430 1.277 1_554 S
C427 O424 1.241 . S
C427 O425 1.280 . S
O428 Mg411 1.988 . S
O428 C430 1.245 1_554 S
O429 C405 1.247 . S
O429 Mg411 2.061 . S
C430 O426 1.277 1_556 S
C430 O428 1.245 1_556 S
O431 C405 1.289 . S
O431 Mg408 2.238 . S
O431 Mg409 2.106 . S
O432 Mg409 2.079 . S
O432 C414 1.245 . S
O433 Mg412 2.038 . S
O433 C414 1.274 . S
C434 O446 1.241 . S
C434 O447 1.280 . S
C435 O448 1.277 . S
C435 O449 1.245 . S
C436 O460 1.247 . S
C436 O462 1.289 . S
Mg437 O438 1.926 . S
Mg437 O447 1.984 . S
Mg437 O449 1.988 . S
Mg437 O450 2.061 . S
O438 Mg437 1.926 . S
O438 Mg439 1.986 . S
O438 Mg440 1.917 . S
Mg439 O438 1.986 . S
Mg439 O446 2.042 . S
Mg439 O448 2.041 . S
Mg439 O454 2.038 . S
Mg439 O462 2.238 . S
Mg440 O438 1.917 . S
Mg440 O441 1.917 . S
Mg440 O451 2.106 . S
Mg440 O453 2.079 . S
Mg440 O462 2.106 . S
Mg440 O463 2.079 . S
O441 Mg440 1.917 . S
O441 Mg442 1.926 . S
O441 Mg443 1.986 . S
Mg442 O441 1.926 . S
Mg442 O456 1.984 . S
Mg442 O459 1.988 . S
Mg442 O460 2.061 . S
Mg443 O441 1.986 . S
Mg443 O451 2.238 . S
Mg443 O455 2.042 . S
Mg443 O457 2.041 . S
Mg443 O464 2.038 . S
C444 O450 1.247 . S
C444 O451 1.289 . S
C445 O463 1.245 . S
C445 O464 1.274 . S
O446 C434 1.241 . S
O446 Mg439 2.042 . S
O447 C434 1.280 . S
O447 Mg437 1.984 . S
O448 C435 1.277 . S
O448 Mg439 2.041 . S
O449 C435 1.245 . S
O449 Mg437 1.988 . S
O450 Mg437 2.061 . S
O450 C444 1.247 . S
O451 Mg440 2.106 . S
O451 Mg443 2.238 . S
O451 C444 1.289 . S
C452 O453 1.245 . S
C452 O454 1.274 . S
O453 Mg440 2.079 . S
O453 C452 1.245 . S
O454 Mg439 2.038 . S
O454 C452 1.274 . S
O455 Mg443 2.042 . S
O455 C458 1.241 . S
O456 Mg442 1.984 . S
O456 C458 1.280 . S
O457 Mg443 2.041 . S
O457 C461 1.277 . S
C458 O455 1.241 . S
C458 O456 1.280 . S
O459 Mg442 1.988 . S
O459 C461 1.245 . S
O460 C436 1.247 . S
O460 Mg442 2.061 . S
C461 O457 1.277 . S
C461 O459 1.245 . S
O462 C436 1.289 . S
O462 Mg439 2.238 . S
O462 Mg440 2.106 . S
O463 Mg440 2.079 . S
O463 C445 1.245 . S
O464 Mg443 2.038 . S
O464 C445 1.274 . S
C465 O477 1.241 . S
C465 O478 1.280 . S
C466 O479 1.277 . S
C466 O480 1.245 . S
C467 O491 1.247 . S
C467 O493 1.289 . S
Mg468 O469 1.926 . S
Mg468 O478 1.984 . S
Mg468 O480 1.988 . S
Mg468 O481 2.061 . S
O469 Mg468 1.926 . S
O469 Mg470 1.986 . S
O469 Mg471 1.917 . S
Mg470 O469 1.986 . S
Mg470 O477 2.042 . S
Mg470 O479 2.041 . S
Mg470 O485 2.038 . S
Mg470 O493 2.238 . S
Mg471 O469 1.917 . S
Mg471 O472 1.917 . S
Mg471 O482 2.106 . S
Mg471 O484 2.079 . S
Mg471 O493 2.106 . S
Mg471 O494 2.079 . S
O472 Mg471 1.917 . S
O472 Mg473 1.926 . S
O472 Mg474 1.986 . S
Mg473 O472 1.926 . S
Mg473 O487 1.984 . S
Mg473 O490 1.988 . S
Mg473 O491 2.061 . S
Mg474 O472 1.986 . S
Mg474 O482 2.238 . S
Mg474 O486 2.042 . S
Mg474 O488 2.041 . S
Mg474 O495 2.038 . S
C475 O481 1.247 . S
C475 O482 1.289 . S
C476 O494 1.245 . S
C476 O495 1.274 . S
O477 C465 1.241 . S
O477 Mg470 2.042 . S
O478 C465 1.280 . S
O478 Mg468 1.984 . S
O479 C466 1.277 . S
O479 Mg470 2.041 . S
O480 C466 1.245 . S
O480 Mg468 1.988 . S
O481 Mg468 2.061 . S
O481 C475 1.247 . S
O482 Mg471 2.106 . S
O482 Mg474 2.238 . S
O482 C475 1.289 . S
C483 O484 1.245 . S
C483 O485 1.274 . S
O484 Mg471 2.079 . S
O484 C483 1.245 . S
O485 Mg470 2.038 . S
O485 C483 1.274 . S
O486 Mg474 2.042 . S
O486 C489 1.241 . S
O487 Mg473 1.984 . S
O487 C489 1.280 . S
O488 Mg474 2.041 . S
O488 C492 1.277 1_556 S
C489 O486 1.241 . S
C489 O487 1.280 . S
O490 Mg473 1.988 . S
O490 C492 1.245 1_556 S
O491 C467 1.247 . S
O491 Mg473 2.061 . S
C492 O488 1.277 1_554 S
C492 O490 1.245 1_554 S
O493 C467 1.289 . S
O493 Mg470 2.238 . S
O493 Mg471 2.106 . S
O494 Mg471 2.079 . S
O494 C476 1.245 . S
O495 Mg474 2.038 . S
O495 C476 1.274 . S
C496 O508 1.241 . S
C496 O509 1.280 . S
C497 O510 1.277 . S
C497 O511 1.245 . S
C498 O522 1.247 . S
C498 O524 1.289 . S
Mg499 O500 1.926 . S
Mg499 O509 1.984 . S
Mg499 O511 1.988 . S
Mg499 O512 2.061 . S
O500 Mg499 1.926 . S
O500 Mg501 1.986 . S
O500 Mg502 1.917 . S
Mg501 O500 1.986 . S
Mg501 O508 2.042 . S
Mg501 O510 2.041 . S
Mg501 O516 2.038 . S
Mg501 O524 2.238 . S
Mg502 O500 1.917 . S
Mg502 O503 1.917 . S
Mg502 O513 2.106 . S
Mg502 O515 2.079 . S
Mg502 O524 2.106 . S
Mg502 O525 2.079 . S
O503 Mg502 1.917 . S
O503 Mg504 1.926 . S
O503 Mg505 1.986 . S
Mg504 O503 1.926 . S
Mg504 O518 1.984 . S
Mg504 O521 1.988 . S
Mg504 O522 2.061 . S
Mg505 O503 1.986 . S
Mg505 O513 2.238 . S
Mg505 O517 2.042 . S
Mg505 O519 2.041 . S
Mg505 O526 2.038 . S
C506 O512 1.247 . S
C506 O513 1.289 . S
C507 O525 1.245 . S
C507 O526 1.274 . S
O508 C496 1.241 . S
O508 Mg501 2.042 . S
O509 C496 1.280 . S
O509 Mg499 1.984 . S
O510 C497 1.277 . S
O510 Mg501 2.041 . S
O511 C497 1.245 . S
O511 Mg499 1.988 . S
O512 Mg499 2.061 . S
O512 C506 1.247 . S
O513 Mg502 2.106 . S
O513 Mg505 2.238 . S
O513 C506 1.289 . S
C514 O515 1.245 . S
C514 O516 1.274 . S
O515 Mg502 2.079 . S
O515 C514 1.245 . S
O516 Mg501 2.038 . S
O516 C514 1.274 . S
O517 Mg505 2.042 . S
O517 C520 1.241 . S
O518 Mg504 1.984 . S
O518 C520 1.280 . S
O519 Mg505 2.041 . S
O519 C523 1.277 . S
C520 O517 1.241 . S
C520 O518 1.280 . S
O521 Mg504 1.988 . S
O521 C523 1.245 . S
O522 C498 1.247 . S
O522 Mg504 2.061 . S
C523 O519 1.277 . S
C523 O521 1.245 . S
O524 C498 1.289 . S
O524 Mg501 2.238 . S
O524 Mg502 2.106 . S
O525 Mg502 2.079 . S
O525 C507 1.245 . S
O526 Mg505 2.038 . S
O526 C507 1.274 . S
C527 O539 1.241 . S
C527 O540 1.280 . S
C528 O541 1.277 . S
C528 O542 1.245 . S
C529 O553 1.247 . S
C529 O555 1.289 . S
Mg530 O531 1.926 . S
Mg530 O540 1.984 . S
Mg530 O542 1.988 . S
Mg530 O543 2.061 . S
O531 Mg530 1.926 . S
O531 Mg532 1.986 . S
O531 Mg533 1.917 . S
Mg532 O531 1.986 . S
Mg532 O539 2.042 . S
Mg532 O541 2.041 . S
Mg532 O547 2.038 . S
Mg532 O555 2.238 . S
Mg533 O531 1.917 . S
Mg533 O534 1.917 . S
Mg533 O544 2.106 . S
Mg533 O546 2.079 . S
Mg533 O555 2.106 . S
Mg533 O556 2.079 . S
O534 Mg533 1.917 . S
O534 Mg535 1.926 . S
O534 Mg536 1.986 . S
Mg535 O534 1.926 . S
Mg535 O549 1.984 . S
Mg535 O552 1.988 . S
Mg535 O553 2.061 . S
Mg536 O534 1.986 . S
Mg536 O544 2.238 . S
Mg536 O548 2.042 . S
Mg536 O550 2.041 . S
Mg536 O557 2.038 . S
C537 O543 1.247 . S
C537 O544 1.289 . S
C538 O556 1.245 . S
C538 O557 1.274 . S
O539 C527 1.241 . S
O539 Mg532 2.042 . S
O540 C527 1.280 . S
O540 Mg530 1.984 . S
O541 C528 1.277 . S
O541 Mg532 2.041 . S
O542 C528 1.245 . S
O542 Mg530 1.988 . S
O543 Mg530 2.061 . S
O543 C537 1.247 . S
O544 Mg533 2.106 . S
O544 Mg536 2.238 . S
O544 C537 1.289 . S
C545 O546 1.245 . S
C545 O547 1.274 . S
O546 Mg533 2.079 . S
O546 C545 1.245 . S
O547 Mg532 2.038 . S
O547 C545 1.274 . S
O548 Mg536 2.042 . S
O548 C551 1.241 . S
O549 Mg535 1.984 . S
O549 C551 1.280 . S
O550 Mg536 2.041 . S
O550 C554 1.277 1_655 S
C551 O548 1.241 . S
C551 O549 1.280 . S
O552 Mg535 1.988 . S
O552 C554 1.245 1_655 S
O553 C529 1.247 . S
O553 Mg535 2.061 . S
C554 O550 1.277 1_455 S
C554 O552 1.245 1_455 S
O555 C529 1.289 . S
O555 Mg532 2.238 . S
O555 Mg533 2.106 . S
O556 Mg533 2.079 . S
O556 C538 1.245 . S
O557 Mg536 2.038 . S
O557 C538 1.274 . S
C558 O570 1.241 . S
C558 O571 1.280 . S
C559 O572 1.277 . S
C559 O573 1.245 . S
C560 O584 1.247 . S
C560 O586 1.289 . S
Mg561 O562 1.926 . S
Mg561 O571 1.984 . S
Mg561 O573 1.988 . S
Mg561 O574 2.061 . S
O562 Mg561 1.926 . S
O562 Mg563 1.986 . S
O562 Mg564 1.917 . S
Mg563 O562 1.986 . S
Mg563 O570 2.042 . S
Mg563 O572 2.041 . S
Mg563 O578 2.038 . S
Mg563 O586 2.238 . S
Mg564 O562 1.917 . S
Mg564 O565 1.917 . S
Mg564 O575 2.106 . S
Mg564 O577 2.079 . S
Mg564 O586 2.106 . S
Mg564 O587 2.079 . S
O565 Mg564 1.917 . S
O565 Mg566 1.926 . S
O565 Mg567 1.986 . S
Mg566 O565 1.926 . S
Mg566 O580 1.984 . S
Mg566 O583 1.988 . S
Mg566 O584 2.061 . S
Mg567 O565 1.986 . S
Mg567 O575 2.238 . S
Mg567 O579 2.042 . S
Mg567 O581 2.041 . S
Mg567 O588 2.038 . S
C568 O574 1.247 . S
C568 O575 1.289 . S
C569 O587 1.245 . S
C569 O588 1.274 . S
O570 C558 1.241 . S
O570 Mg563 2.042 . S
O571 C558 1.280 . S
O571 Mg561 1.984 . S
O572 C559 1.277 . S
O572 Mg563 2.041 . S
O573 C559 1.245 . S
O573 Mg561 1.988 . S
O574 Mg561 2.061 . S
O574 C568 1.247 . S
O575 Mg564 2.106 . S
O575 Mg567 2.238 . S
O575 C568 1.289 . S
C576 O577 1.245 . S
C576 O578 1.274 . S
O577 Mg564 2.079 . S
O577 C576 1.245 . S
O578 Mg563 2.038 . S
O578 C576 1.274 . S
O579 Mg567 2.042 . S
O579 C582 1.241 . S
O580 Mg566 1.984 . S
O580 C582 1.280 . S
O581 Mg567 2.041 . S
O581 C585 1.277 1_455 S
C582 O579 1.241 . S
C582 O580 1.280 . S
O583 Mg566 1.988 . S
O583 C585 1.245 1_455 S
O584 C560 1.247 . S
O584 Mg566 2.061 . S
C585 O581 1.277 1_655 S
C585 O583 1.245 1_655 S
O586 C560 1.289 . S
O586 Mg563 2.238 . S
O586 Mg564 2.106 . S
O587 Mg564 2.079 . S
O587 C569 1.245 . S
O588 Mg567 2.038 . S
O588 C569 1.274 . S
C589 O601 1.241 . S
C589 O602 1.280 . S
C590 O603 1.277 . S
C590 O604 1.245 . S
C591 O615 1.247 . S
C591 O617 1.289 . S
Mg592 O593 1.926 . S
Mg592 O602 1.984 . S
Mg592 O604 1.988 . S
Mg592 O605 2.061 . S
O593 Mg592 1.926 . S
O593 Mg594 1.986 . S
O593 Mg595 1.917 . S
Mg594 O593 1.986 . S
Mg594 O601 2.042 . S
Mg594 O603 2.041 . S
Mg594 O609 2.038 . S
Mg594 O617 2.238 . S
Mg595 O593 1.917 . S
Mg595 O596 1.917 . S
Mg595 O606 2.106 . S
Mg595 O608 2.079 . S
Mg595 O617 2.106 . S
Mg595 O618 2.079 . S
O596 Mg595 1.917 . S
O596 Mg597 1.926 . S
O596 Mg598 1.986 . S
Mg597 O596 1.926 . S
Mg597 O611 1.984 . S
Mg597 O614 1.988 . S
Mg597 O615 2.061 . S
Mg598 O596 1.986 . S
Mg598 O606 2.238 . S
Mg598 O610 2.042 . S
Mg598 O612 2.041 . S
Mg598 O619 2.038 . S
C599 O605 1.247 . S
C599 O606 1.289 . S
C600 O618 1.245 . S
C600 O619 1.274 . S
O601 C589 1.241 . S
O601 Mg594 2.042 . S
O602 C589 1.280 . S
O602 Mg592 1.984 . S
O603 C590 1.277 . S
O603 Mg594 2.041 . S
O604 C590 1.245 . S
O604 Mg592 1.988 . S
O605 Mg592 2.061 . S
O605 C599 1.247 . S
O606 Mg595 2.106 . S
O606 Mg598 2.238 . S
O606 C599 1.289 . S
C607 O608 1.245 . S
C607 O609 1.274 . S
O608 Mg595 2.079 . S
O608 C607 1.245 . S
O609 Mg594 2.038 . S
O609 C607 1.274 . S
O610 Mg598 2.042 . S
O610 C613 1.241 . S
O611 Mg597 1.984 . S
O611 C613 1.280 . S
O612 Mg598 2.041 . S
O612 C616 1.277 . S
C613 O610 1.241 . S
C613 O611 1.280 . S
O614 Mg597 1.988 . S
O614 C616 1.245 . S
O615 C591 1.247 . S
O615 Mg597 2.061 . S
C616 O612 1.277 . S
C616 O614 1.245 . S
O617 C591 1.289 . S
O617 Mg594 2.238 . S
O617 Mg595 2.106 . S
O618 Mg595 2.079 . S
O618 C600 1.245 . S
O619 Mg598 2.038 . S
O619 C600 1.274 . S
C620 O632 1.241 . S
C620 O633 1.280 . S
C621 O634 1.277 . S
C621 O635 1.245 . S
C622 O646 1.247 . S
C622 O648 1.289 . S
Mg623 O624 1.926 . S
Mg623 O633 1.984 . S
Mg623 O635 1.988 . S
Mg623 O636 2.061 . S
O624 Mg623 1.926 . S
O624 Mg625 1.986 . S
O624 Mg626 1.917 . S
Mg625 O624 1.986 . S
Mg625 O632 2.042 . S
Mg625 O634 2.041 . S
Mg625 O640 2.038 . S
Mg625 O648 2.238 . S
Mg626 O624 1.917 . S
Mg626 O627 1.917 . S
Mg626 O637 2.106 . S
Mg626 O639 2.079 . S
Mg626 O648 2.106 . S
Mg626 O649 2.079 . S
O627 Mg626 1.917 . S
O627 Mg628 1.926 . S
O627 Mg629 1.986 . S
Mg628 O627 1.926 . S
Mg628 O642 1.984 . S
Mg628 O645 1.988 . S
Mg628 O646 2.061 . S
Mg629 O627 1.986 . S
Mg629 O637 2.238 . S
Mg629 O641 2.042 . S
Mg629 O643 2.041 . S
Mg629 O650 2.038 . S
C630 O636 1.247 . S
C630 O637 1.289 . S
C631 O649 1.245 . S
C631 O650 1.274 . S
O632 C620 1.241 . S
O632 Mg625 2.042 . S
O633 C620 1.280 . S
O633 Mg623 1.984 . S
O634 C621 1.277 . S
O634 Mg625 2.041 . S
O635 C621 1.245 . S
O635 Mg623 1.988 . S
O636 Mg623 2.061 . S
O636 C630 1.247 . S
O637 Mg626 2.106 . S
O637 Mg629 2.238 . S
O637 C630 1.289 . S
C638 O639 1.245 . S
C638 O640 1.274 . S
O639 Mg626 2.079 . S
O639 C638 1.245 . S
O640 Mg625 2.038 . S
O640 C638 1.274 . S
O641 Mg629 2.042 . S
O641 C644 1.241 . S
O642 Mg628 1.984 . S
O642 C644 1.280 . S
O643 Mg629 2.041 . S
O643 C647 1.277 . S
C644 O641 1.241 . S
C644 O642 1.280 . S
O645 Mg628 1.988 . S
O645 C647 1.245 . S
O646 C622 1.247 . S
O646 Mg628 2.061 . S
C647 O643 1.277 . S
C647 O645 1.245 . S
O648 C622 1.289 . S
O648 Mg625 2.238 . S
O648 Mg626 2.106 . S
O649 Mg626 2.079 . S
O649 C631 1.245 . S
O650 Mg629 2.038 . S
O650 C631 1.274 . S
C651 O663 1.241 . S
C651 O664 1.280 . S
C652 O665 1.277 . S
C652 O666 1.245 . S
C653 O677 1.247 . S
C653 O679 1.289 . S
Mg654 O655 1.926 . S
Mg654 O664 1.984 . S
Mg654 O666 1.988 . S
Mg654 O667 2.061 . S
O655 Mg654 1.926 . S
O655 Mg656 1.986 . S
O655 Mg657 1.917 . S
Mg656 O655 1.986 . S
Mg656 O663 2.042 . S
Mg656 O665 2.041 . S
Mg656 O671 2.038 . S
Mg656 O679 2.238 . S
Mg657 O655 1.917 . S
Mg657 O658 1.917 . S
Mg657 O668 2.106 . S
Mg657 O670 2.079 . S
Mg657 O679 2.106 . S
Mg657 O680 2.079 . S
O658 Mg657 1.917 . S
O658 Mg659 1.926 . S
O658 Mg660 1.986 . S
Mg659 O658 1.926 . S
Mg659 O673 1.984 . S
Mg659 O676 1.988 . S
Mg659 O677 2.061 . S
Mg660 O658 1.986 . S
Mg660 O668 2.238 . S
Mg660 O672 2.042 . S
Mg660 O674 2.041 . S
Mg660 O681 2.038 . S
C661 O667 1.247 . S
C661 O668 1.289 . S
C662 O680 1.245 . S
C662 O681 1.274 . S
O663 C651 1.241 . S
O663 Mg656 2.042 . S
O664 C651 1.280 . S
O664 Mg654 1.984 . S
O665 C652 1.277 . S
O665 Mg656 2.041 . S
O666 C652 1.245 . S
O666 Mg654 1.988 . S
O667 Mg654 2.061 . S
O667 C661 1.247 . S
O668 Mg657 2.106 . S
O668 Mg660 2.238 . S
O668 C661 1.289 . S
C669 O670 1.245 . S
C669 O671 1.274 . S
O670 Mg657 2.079 . S
O670 C669 1.245 . S
O671 Mg656 2.038 . S
O671 C669 1.274 . S
O672 Mg660 2.042 . S
O672 C675 1.241 . S
O673 Mg659 1.984 . S
O673 C675 1.280 . S
O674 Mg660 2.041 . S
O674 C678 1.277 1_565 S
C675 O672 1.241 . S
C675 O673 1.280 . S
O676 Mg659 1.988 . S
O676 C678 1.245 1_565 S
O677 C653 1.247 . S
O677 Mg659 2.061 . S
C678 O674 1.277 1_545 S
C678 O676 1.245 1_545 S
O679 C653 1.289 . S
O679 Mg656 2.238 . S
O679 Mg657 2.106 . S
O680 Mg657 2.079 . S
O680 C662 1.245 . S
O681 Mg660 2.038 . S
O681 C662 1.274 . S
C682 O694 1.241 . S
C682 O695 1.280 . S
C683 O696 1.277 . S
C683 O697 1.245 . S
C684 O708 1.247 . S
C684 O710 1.289 . S
Mg685 O686 1.926 . S
Mg685 O695 1.984 . S
Mg685 O697 1.988 . S
Mg685 O698 2.061 . S
O686 Mg685 1.926 . S
O686 Mg687 1.986 . S
O686 Mg688 1.917 . S
Mg687 O686 1.986 . S
Mg687 O694 2.042 . S
Mg687 O696 2.041 . S
Mg687 O702 2.038 . S
Mg687 O710 2.238 . S
Mg688 O686 1.917 . S
Mg688 O689 1.917 . S
Mg688 O699 2.106 . S
Mg688 O701 2.079 . S
Mg688 O710 2.106 . S
Mg688 O711 2.079 . S
O689 Mg688 1.917 . S
O689 Mg690 1.926 . S
O689 Mg691 1.986 . S
Mg690 O689 1.926 . S
Mg690 O704 1.984 . S
Mg690 O707 1.988 . S
Mg690 O708 2.061 . S
Mg691 O689 1.986 . S
Mg691 O699 2.238 . S
Mg691 O703 2.042 . S
Mg691 O705 2.041 . S
Mg691 O712 2.038 . S
C692 O698 1.247 . S
C692 O699 1.289 . S
C693 O711 1.245 . S
C693 O712 1.274 . S
O694 C682 1.241 . S
O694 Mg687 2.042 . S
O695 C682 1.280 . S
O695 Mg685 1.984 . S
O696 C683 1.277 . S
O696 Mg687 2.041 . S
O697 C683 1.245 . S
O697 Mg685 1.988 . S
O698 Mg685 2.061 . S
O698 C692 1.247 . S
O699 Mg688 2.106 . S
O699 Mg691 2.238 . S
O699 C692 1.289 . S
C700 O701 1.245 . S
C700 O702 1.274 . S
O701 Mg688 2.079 . S
O701 C700 1.245 . S
O702 Mg687 2.038 . S
O702 C700 1.274 . S
O703 Mg691 2.042 . S
O703 C706 1.241 . S
O704 Mg690 1.984 . S
O704 C706 1.280 . S
O705 Mg691 2.041 . S
O705 C709 1.277 1_545 S
C706 O703 1.241 . S
C706 O704 1.280 . S
O707 Mg690 1.988 . S
O707 C709 1.245 1_545 S
O708 C684 1.247 . S
O708 Mg690 2.061 . S
C709 O705 1.277 1_565 S
C709 O707 1.245 1_565 S
O710 C684 1.289 . S
O710 Mg687 2.238 . S
O710 Mg688 2.106 . S
O711 Mg688 2.079 . S
O711 C693 1.245 . S
O712 Mg691 2.038 . S
O712 C693 1.274 . S
C713 O725 1.241 . S
C713 O726 1.280 . S
C714 O727 1.277 . S
C714 O728 1.245 . S
C715 O739 1.247 . S
C715 O741 1.289 . S
Mg716 O717 1.926 . S
Mg716 O726 1.984 . S
Mg716 O728 1.988 . S
Mg716 O729 2.061 . S
O717 Mg716 1.926 . S
O717 Mg718 1.986 . S
O717 Mg719 1.917 . S
Mg718 O717 1.986 . S
Mg718 O725 2.042 . S
Mg718 O727 2.041 . S
Mg718 O733 2.038 . S
Mg718 O741 2.238 . S
Mg719 O717 1.917 . S
Mg719 O720 1.917 . S
Mg719 O730 2.106 . S
Mg719 O732 2.079 . S
Mg719 O741 2.106 . S
Mg719 O742 2.079 . S
O720 Mg719 1.917 . S
O720 Mg721 1.926 . S
O720 Mg722 1.986 . S
Mg721 O720 1.926 . S
Mg721 O735 1.984 . S
Mg721 O738 1.988 . S
Mg721 O739 2.061 . S
Mg722 O720 1.986 . S
Mg722 O730 2.238 . S
Mg722 O734 2.042 . S
Mg722 O736 2.041 . S
Mg722 O743 2.038 . S
C723 O729 1.247 . S
C723 O730 1.289 . S
C724 O742 1.245 . S
C724 O743 1.274 . S
O725 C713 1.241 . S
O725 Mg718 2.042 . S
O726 C713 1.280 . S
O726 Mg716 1.984 . S
O727 C714 1.277 . S
O727 Mg718 2.041 . S
O728 C714 1.245 . S
O728 Mg716 1.988 . S
O729 Mg716 2.061 . S
O729 C723 1.247 . S
O730 Mg719 2.106 . S
O730 Mg722 2.238 . S
O730 C723 1.289 . S
C731 O732 1.245 . S
C731 O733 1.274 . S
O732 Mg719 2.079 . S
O732 C731 1.245 . S
O733 Mg718 2.038 . S
O733 C731 1.274 . S
O734 Mg722 2.042 . S
O734 C737 1.241 . S
O735 Mg721 1.984 . S
O735 C737 1.280 . S
O736 Mg722 2.041 . S
O736 C740 1.277 . S
C737 O734 1.241 . S
C737 O735 1.280 . S
O738 Mg721 1.988 . S
O738 C740 1.245 . S
O739 C715 1.247 . S
O739 Mg721 2.061 . S
C740 O736 1.277 . S
C740 O738 1.245 . S
O741 C715 1.289 . S
O741 Mg718 2.238 . S
O741 Mg719 2.106 . S
O742 Mg719 2.079 . S
O742 C724 1.245 . S
O743 Mg722 2.038 . S
O743 C724 1.274 . S
H744 C752 0.950 . S
H745 C757 0.950 . S
H746 C754 0.950 . S
H747 C756 0.950 . S
H748 C758 0.950 . S
H749 C760 0.950 . S
H750 C762 0.950 . S
H751 C763 0.950 . S
C752 H744 0.950 . S
C752 C753 1.386 . S
C752 C754 1.391 . S
C753 C752 1.386 . S
C753 C757 1.393 . S
C754 H746 0.950 . S
C754 C752 1.391 . S
C754 C755 1.400 . S
C755 C754 1.400 . S
C755 C756 1.398 . S
C755 C761 1.491 . S
C756 H747 0.950 . S
C756 C755 1.398 . S
C756 C757 1.391 . S
C757 H745 0.950 . S
C757 C753 1.393 . S
C757 C756 1.391 . S
C758 H748 0.950 . S
C758 C759 1.386 . S
C758 C760 1.391 . S
C759 C758 1.386 . S
C759 C763 1.393 . S
C760 H749 0.950 . S
C760 C758 1.391 . S
C760 C761 1.400 . S
C761 C755 1.491 . S
C761 C760 1.400 . S
C761 C762 1.398 . S
C762 H750 0.950 . S
C762 C761 1.398 . S
C762 C763 1.391 . S
C763 H751 0.950 . S
C763 C759 1.393 . S
C763 C762 1.391 . S
H764 C772 0.950 . S
H765 C777 0.950 . S
H766 C774 0.950 . S
H767 C776 0.950 . S
H768 C778 0.950 . S
H769 C780 0.950 . S
H770 C782 0.950 . S
H771 C783 0.950 . S
C772 H764 0.950 . S
C772 C773 1.386 . S
C772 C774 1.391 . S
C773 C772 1.386 . S
C773 C777 1.393 . S
C774 H766 0.950 . S
C774 C772 1.391 . S
C774 C775 1.400 . S
C775 C774 1.400 . S
C775 C776 1.398 . S
C775 C781 1.491 . S
C776 H767 0.950 . S
C776 C775 1.398 . S
C776 C777 1.391 . S
C777 H765 0.950 . S
C777 C773 1.393 . S
C777 C776 1.391 . S
C778 H768 0.950 . S
C778 C779 1.386 . S
C778 C780 1.391 . S
C779 C778 1.386 . S
C779 C783 1.393 . S
C780 H769 0.950 . S
C780 C778 1.391 . S
C780 C781 1.400 . S
C781 C775 1.491 . S
C781 C780 1.400 . S
C781 C782 1.398 . S
C782 H770 0.950 . S
C782 C781 1.398 . S
C782 C783 1.391 . S
C783 H771 0.950 . S
C783 C779 1.393 . S
C783 C782 1.391 . S
H784 C792 0.950 . S
H785 C797 0.950 1_565 S
H786 C794 0.950 . S
H787 C796 0.950 . S
H788 C798 0.950 . S
H789 C800 0.950 . S
H790 C802 0.950 . S
H791 C803 0.950 . S
C792 H784 0.950 . S
C792 C793 1.386 1_545 S
C792 C794 1.391 . S
C793 C792 1.386 1_565 S
C793 C797 1.393 1_565 S
C794 H786 0.950 . S
C794 C792 1.391 . S
C794 C795 1.400 . S
C795 C794 1.400 . S
C795 C796 1.398 . S
C795 C801 1.491 . S
C796 H787 0.950 . S
C796 C795 1.398 . S
C796 C797 1.391 . S
C797 H785 0.950 1_545 S
C797 C793 1.393 1_545 S
C797 C796 1.391 . S
C798 H788 0.950 . S
C798 C799 1.386 . S
C798 C800 1.391 . S
C799 C798 1.386 . S
C799 C803 1.393 . S
C800 H789 0.950 . S
C800 C798 1.391 . S
C800 C801 1.400 . S
C801 C795 1.491 . S
C801 C800 1.400 . S
C801 C802 1.398 . S
C802 H790 0.950 . S
C802 C801 1.398 . S
C802 C803 1.391 . S
C803 H791 0.950 . S
C803 C799 1.393 . S
C803 C802 1.391 . S
H804 C812 0.950 . S
H805 C817 0.950 . S
H806 C814 0.950 . S
H807 C816 0.950 . S
H808 C818 0.950 1_545 S
H809 C820 0.950 . S
H810 C822 0.950 . S
H811 C823 0.950 . S
C812 H804 0.950 . S
C812 C813 1.386 . S
C812 C814 1.391 . S
C813 C812 1.386 . S
C813 C817 1.393 . S
C814 H806 0.950 . S
C814 C812 1.391 . S
C814 C815 1.400 . S
C815 C814 1.400 . S
C815 C816 1.398 . S
C815 C821 1.491 . S
C816 H807 0.950 . S
C816 C815 1.398 . S
C816 C817 1.391 . S
C817 H805 0.950 . S
C817 C813 1.393 . S
C817 C816 1.391 . S
C818 H808 0.950 1_565 S
C818 C819 1.386 1_565 S
C818 C820 1.391 . S
C819 C818 1.386 1_545 S
C819 C823 1.393 1_545 S
C820 H809 0.950 . S
C820 C818 1.391 . S
C820 C821 1.400 . S
C821 C815 1.491 . S
C821 C820 1.400 . S
C821 C822 1.398 . S
C822 H810 0.950 . S
C822 C821 1.398 . S
C822 C823 1.391 . S
C823 H811 0.950 . S
C823 C819 1.393 1_565 S
C823 C822 1.391 . S
H824 C832 0.950 . S
H825 C837 0.950 . S
H826 C834 0.950 . S
H827 C836 0.950 . S
H828 C838 0.950 . S
H829 C840 0.950 . S
H830 C842 0.950 . S
H831 C843 0.950 . S
C832 H824 0.950 . S
C832 C833 1.386 . S
C832 C834 1.391 . S
C833 C832 1.386 . S
C833 C837 1.393 . S
C834 H826 0.950 . S
C834 C832 1.391 . S
C834 C835 1.400 . S
C835 C834 1.400 . S
C835 C836 1.398 . S
C835 C841 1.491 . S
C836 H827 0.950 . S
C836 C835 1.398 . S
C836 C837 1.391 . S
C837 H825 0.950 . S
C837 C833 1.393 . S
C837 C836 1.391 . S
C838 H828 0.950 . S
C838 C839 1.386 . S
C838 C840 1.391 . S
C839 C838 1.386 . S
C839 C843 1.393 . S
C840 H829 0.950 . S
C840 C838 1.391 . S
C840 C841 1.400 . S
C841 C835 1.491 . S
C841 C840 1.400 . S
C841 C842 1.398 . S
C842 H830 0.950 . S
C842 C841 1.398 . S
C842 C843 1.391 . S
C843 H831 0.950 . S
C843 C839 1.393 . S
C843 C842 1.391 . S
H844 C852 0.950 . S
H845 C857 0.950 1_554 S
H846 C854 0.950 . S
H847 C856 0.950 . S
H848 C858 0.950 . S
H849 C860 0.950 . S
H850 C862 0.950 . S
H851 C863 0.950 . S
C852 H844 0.950 . S
C852 C853 1.386 1_556 S
C852 C854 1.391 . S
C853 C852 1.386 1_554 S
C853 C857 1.393 1_554 S
C854 H846 0.950 . S
C854 C852 1.391 . S
C854 C855 1.400 . S
C855 C854 1.400 . S
C855 C856 1.398 . S
C855 C861 1.491 . S
C856 H847 0.950 . S
C856 C855 1.398 . S
C856 C857 1.391 . S
C857 H845 0.950 1_556 S
C857 C853 1.393 1_556 S
C857 C856 1.391 . S
C858 H848 0.950 . S
C858 C859 1.386 . S
C858 C860 1.391 . S
C859 C858 1.386 . S
C859 C863 1.393 . S
C860 H849 0.950 . S
C860 C858 1.391 . S
C860 C861 1.400 . S
C861 C855 1.491 . S
C861 C860 1.400 . S
C861 C862 1.398 . S
C862 H850 0.950 . S
C862 C861 1.398 . S
C862 C863 1.391 . S
C863 H851 0.950 . S
C863 C859 1.393 . S
C863 C862 1.391 . S
H864 C872 0.950 . S
H865 C877 0.950 . S
H866 C874 0.950 . S
H867 C876 0.950 . S
H868 C878 0.950 . S
H869 C880 0.950 . S
H870 C882 0.950 . S
H871 C883 0.950 . S
C872 H864 0.950 . S
C872 C873 1.386 . S
C872 C874 1.391 . S
C873 C872 1.386 . S
C873 C877 1.393 . S
C874 H866 0.950 . S
C874 C872 1.391 . S
C874 C875 1.400 . S
C875 C874 1.400 . S
C875 C876 1.398 . S
C875 C881 1.491 . S
C876 H867 0.950 . S
C876 C875 1.398 . S
C876 C877 1.391 . S
C877 H865 0.950 . S
C877 C873 1.393 . S
C877 C876 1.391 . S
C878 H868 0.950 . S
C878 C879 1.386 . S
C878 C880 1.391 . S
C879 C878 1.386 . S
C879 C883 1.393 . S
C880 H869 0.950 . S
C880 C878 1.391 . S
C880 C881 1.400 . S
C881 C875 1.491 . S
C881 C880 1.400 . S
C881 C882 1.398 . S
C882 H870 0.950 . S
C882 C881 1.398 . S
C882 C883 1.391 . S
C883 H871 0.950 . S
C883 C879 1.393 . S
C883 C882 1.391 . S
H884 C892 0.950 . S
H885 C897 0.950 . S
H886 C894 0.950 . S
H887 C896 0.950 . S
H888 C898 0.950 . S
H889 C900 0.950 . S
H890 C902 0.950 . S
H891 C903 0.950 . S
C892 H884 0.950 . S
C892 C893 1.386 1_554 S
C892 C894 1.391 . S
C893 C892 1.386 1_556 S
C893 C897 1.393 1_556 S
C894 H886 0.950 . S
C894 C892 1.391 . S
C894 C895 1.400 . S
C895 C894 1.400 . S
C895 C896 1.398 . S
C895 C901 1.491 . S
C896 H887 0.950 . S
C896 C895 1.398 . S
C896 C897 1.391 . S
C897 H885 0.950 . S
C897 C893 1.393 1_554 S
C897 C896 1.391 . S
C898 H888 0.950 . S
C898 C899 1.386 . S
C898 C900 1.391 . S
C899 C898 1.386 . S
C899 C903 1.393 . S
C900 H889 0.950 . S
C900 C898 1.391 . S
C900 C901 1.400 . S
C901 C895 1.491 . S
C901 C900 1.400 . S
C901 C902 1.398 . S
C902 H890 0.950 . S
C902 C901 1.398 . S
C902 C903 1.391 . S
C903 H891 0.950 . S
C903 C899 1.393 . S
C903 C902 1.391 . S
H904 C912 0.950 . S
H905 C917 0.950 . S
H906 C914 0.950 . S
H907 C916 0.950 . S
H908 C918 0.950 . S
H909 C920 0.950 . S
H910 C922 0.950 . S
H911 C923 0.950 . S
C912 H904 0.950 . S
C912 C913 1.386 . S
C912 C914 1.391 . S
C913 C912 1.386 . S
C913 C917 1.393 . S
C914 H906 0.950 . S
C914 C912 1.391 . S
C914 C915 1.400 . S
C915 C914 1.400 . S
C915 C916 1.398 . S
C915 C921 1.491 . S
C916 H907 0.950 . S
C916 C915 1.398 . S
C916 C917 1.391 . S
C917 H905 0.950 . S
C917 C913 1.393 . S
C917 C916 1.391 . S
C918 H908 0.950 . S
C918 C919 1.386 . S
C918 C920 1.391 . S
C919 C918 1.386 . S
C919 C923 1.393 . S
C920 H909 0.950 . S
C920 C918 1.391 . S
C920 C921 1.400 . S
C921 C915 1.491 . S
C921 C920 1.400 . S
C921 C922 1.398 . S
C922 H910 0.950 . S
C922 C921 1.398 . S
C922 C923 1.391 . S
C923 H911 0.950 . S
C923 C919 1.393 . S
C923 C922 1.391 . S
H924 C932 0.950 . S
H925 C937 0.950 . S
H926 C934 0.950 . S
H927 C936 0.950 . S
H928 C938 0.950 . S
H929 C940 0.950 . S
H930 C942 0.950 . S
H931 C943 0.950 . S
C932 H924 0.950 . S
C932 C933 1.386 1_655 S
C932 C934 1.391 . S
C933 C932 1.386 1_455 S
C933 C937 1.393 1_455 S
C934 H926 0.950 . S
C934 C932 1.391 . S
C934 C935 1.400 . S
C935 C934 1.400 . S
C935 C936 1.398 . S
C935 C941 1.491 . S
C936 H927 0.950 . S
C936 C935 1.398 . S
C936 C937 1.391 . S
C937 H925 0.950 . S
C937 C933 1.393 1_655 S
C937 C936 1.391 . S
C938 H928 0.950 . S
C938 C939 1.386 . S
C938 C940 1.391 . S
C939 C938 1.386 . S
C939 C943 1.393 . S
C940 H929 0.950 . S
C940 C938 1.391 . S
C940 C941 1.400 . S
C941 C935 1.491 . S
C941 C940 1.400 . S
C941 C942 1.398 . S
C942 H930 0.950 . S
C942 C941 1.398 . S
C942 C943 1.391 . S
C943 H931 0.950 . S
C943 C939 1.393 . S
C943 C942 1.391 . S
H944 C952 0.950 . S
H945 C957 0.950 . S
H946 C954 0.950 . S
H947 C956 0.950 . S
H948 C958 0.950 . S
H949 C960 0.950 . S
H950 C962 0.950 . S
H951 C963 0.950 . S
C952 H944 0.950 . S
C952 C953 1.386 . S
C952 C954 1.391 . S
C953 C952 1.386 . S
C953 C957 1.393 . S
C954 H946 0.950 . S
C954 C952 1.391 . S
C954 C955 1.400 . S
C955 C954 1.400 . S
C955 C956 1.398 . S
C955 C961 1.491 . S
C956 H947 0.950 . S
C956 C955 1.398 . S
C956 C957 1.391 . S
C957 H945 0.950 . S
C957 C953 1.393 . S
C957 C956 1.391 . S
C958 H948 0.950 . S
C958 C959 1.386 . S
C958 C960 1.391 . S
C959 C958 1.386 . S
C959 C963 1.393 . S
C960 H949 0.950 . S
C960 C958 1.391 . S
C960 C961 1.400 . S
C961 C955 1.491 . S
C961 C960 1.400 . S
C961 C962 1.398 . S
C962 H950 0.950 . S
C962 C961 1.398 . S
C962 C963 1.391 . S
C963 H951 0.950 . S
C963 C959 1.393 . S
C963 C962 1.391 . S
H964 C972 0.950 1_655 S
H965 C977 0.950 . S
H966 C974 0.950 . S
H967 C976 0.950 . S
H968 C978 0.950 . S
H969 C980 0.950 . S
H970 C982 0.950 . S
H971 C983 0.950 . S
C972 H964 0.950 1_455 S
C972 C973 1.386 1_455 S
C972 C974 1.391 . S
C973 C972 1.386 1_655 S
C973 C977 1.393 1_655 S
C974 H966 0.950 . S
C974 C972 1.391 . S
C974 C975 1.400 . S
C975 C974 1.400 . S
C975 C976 1.398 . S
C975 C981 1.491 . S
C976 H967 0.950 . S
C976 C975 1.398 . S
C976 C977 1.391 . S
C977 H965 0.950 . S
C977 C973 1.393 1_455 S
C977 C976 1.391 . S
C978 H968 0.950 . S
C978 C979 1.386 . S
C978 C980 1.391 . S
C979 C978 1.386 . S
C979 C983 1.393 . S
C980 H969 0.950 . S
C980 C978 1.391 . S
C980 C981 1.400 . S
C981 C975 1.491 . S
C981 C980 1.400 . S
C981 C982 1.398 . S
C982 H970 0.950 . S
C982 C981 1.398 . S
C982 C983 1.391 . S
C983 H971 0.950 . S
C983 C979 1.393 . S
C983 C982 1.391 . S
H984 C992 0.950 . S
H985 C997 0.950 . S
H986 C994 0.950 . S
H987 C996 0.950 . S
H988 C998 0.950 . S
H989 C1000 0.950 . S
H990 C1002 0.950 . S
H991 C1003 0.950 . S
C992 H984 0.950 . S
C992 C993 1.386 . S
C992 C994 1.391 . S
C993 C992 1.386 . S
C993 C997 1.393 . S
C994 H986 0.950 . S
C994 C992 1.391 . S
C994 C995 1.400 . S
C995 C994 1.400 . S
C995 C996 1.398 . S
C995 C1001 1.491 . S
C996 H987 0.950 . S
C996 C995 1.398 . S
C996 C997 1.391 . S
C997 H985 0.950 . S
C997 C993 1.393 . S
C997 C996 1.391 . S
C998 H988 0.950 . S
C998 C999 1.386 . S
C998 C1000 1.391 . S
C999 C998 1.386 . S
C999 C1003 1.393 . S
C1000 H989 0.950 . S
C1000 C998 1.391 . S
C1000 C1001 1.400 . S
C1001 C995 1.491 . S
C1001 C1000 1.400 . S
C1001 C1002 1.398 . S
C1002 H990 0.950 . S
C1002 C1001 1.398 . S
C1002 C1003 1.391 . S
C1003 H991 0.950 . S
C1003 C999 1.393 . S
C1003 C1002 1.391 . S
H1004 C1012 0.950 . S
H1005 C1017 0.950 . S
H1006 C1014 0.950 . S
H1007 C1016 0.950 . S
H1008 C1018 0.950 . S
H1009 C1020 0.950 . S
H1010 C1022 0.950 . S
H1011 C1023 0.950 . S
C1012 H1004 0.950 . S
C1012 C1013 1.386 . S
C1012 C1014 1.391 . S
C1013 C1012 1.386 . S
C1013 C1017 1.393 . S
C1014 H1006 0.950 . S
C1014 C1012 1.391 . S
C1014 C1015 1.400 . S
C1015 C1014 1.400 . S
C1015 C1016 1.398 . S
C1015 C1021 1.491 . S
C1016 H1007 0.950 . S
C1016 C1015 1.398 . S
C1016 C1017 1.391 . S
C1017 H1005 0.950 . S
C1017 C1013 1.393 . S
C1017 C1016 1.391 . S
C1018 H1008 0.950 . S
C1018 C1019 1.386 . S
C1018 C1020 1.391 . S
C1019 C1018 1.386 . S
C1019 C1023 1.393 . S
C1020 H1009 0.950 . S
C1020 C1018 1.391 . S
C1020 C1021 1.400 . S
C1021 C1015 1.491 . S
C1021 C1020 1.400 . S
C1021 C1022 1.398 . S
C1022 H1010 0.950 . S
C1022 C1021 1.398 . S
C1022 C1023 1.391 . S
C1023 H1011 0.950 . S
C1023 C1019 1.393 . S
C1023 C1022 1.391 . S
H1024 C1032 0.950 . S
H1025 C1037 0.950 1_545 S
H1026 C1034 0.950 . S
H1027 C1036 0.950 . S
H1028 C1038 0.950 . S
H1029 C1040 0.950 . S
H1030 C1042 0.950 . S
H1031 C1043 0.950 . S
C1032 H1024 0.950 . S
C1032 C1033 1.386 1_565 S
C1032 C1034 1.391 . S
C1033 C1032 1.386 1_545 S
C1033 C1037 1.393 1_545 S
C1034 H1026 0.950 . S
C1034 C1032 1.391 . S
C1034 C1035 1.400 . S
C1035 C1034 1.400 . S
C1035 C1036 1.398 . S
C1035 C1041 1.491 . S
C1036 H1027 0.950 . S
C1036 C1035 1.398 . S
C1036 C1037 1.391 . S
C1037 H1025 0.950 1_565 S
C1037 C1033 1.393 1_565 S
C1037 C1036 1.391 . S
C1038 H1028 0.950 . S
C1038 C1039 1.386 . S
C1038 C1040 1.391 . S
C1039 C1038 1.386 . S
C1039 C1043 1.393 . S
C1040 H1029 0.950 . S
C1040 C1038 1.391 . S
C1040 C1041 1.400 . S
C1041 C1035 1.491 . S
C1041 C1040 1.400 . S
C1041 C1042 1.398 . S
C1042 H1030 0.950 . S
C1042 C1041 1.398 . S
C1042 C1043 1.391 . S
C1043 H1031 0.950 . S
C1043 C1039 1.393 . S
C1043 C1042 1.391 . S
H1044 C1052 0.950 . S
H1045 C1057 0.950 . S
H1046 C1054 0.950 . S
H1047 C1056 0.950 . S
H1048 C1058 0.950 1_565 S
H1049 C1060 0.950 . S
H1050 C1062 0.950 . S
H1051 C1063 0.950 . S
C1052 H1044 0.950 . S
C1052 C1053 1.386 . S
C1052 C1054 1.391 . S
C1053 C1052 1.386 . S
C1053 C1057 1.393 . S
C1054 H1046 0.950 . S
C1054 C1052 1.391 . S
C1054 C1055 1.400 . S
C1055 C1054 1.400 . S
C1055 C1056 1.398 . S
C1055 C1061 1.491 . S
C1056 H1047 0.950 . S
C1056 C1055 1.398 . S
C1056 C1057 1.391 . S
C1057 H1045 0.950 . S
C1057 C1053 1.393 . S
C1057 C1056 1.391 . S
C1058 H1048 0.950 1_545 S
C1058 C1059 1.386 1_545 S
C1058 C1060 1.391 . S
C1059 C1058 1.386 1_565 S
C1059 C1063 1.393 1_565 S
C1060 H1049 0.950 . S
C1060 C1058 1.391 . S
C1060 C1061 1.400 . S
C1061 C1055 1.491 . S
C1061 C1060 1.400 . S
C1061 C1062 1.398 . S
C1062 H1050 0.950 . S
C1062 C1061 1.398 . S
C1062 C1063 1.391 . S
C1063 H1051 0.950 . S
C1063 C1059 1.393 1_545 S
C1063 C1062 1.391 . S
H1064 C1072 0.950 . S
H1065 C1077 0.950 . S
H1066 C1074 0.950 . S
H1067 C1076 0.950 . S
H1068 C1078 0.950 . S
H1069 C1080 0.950 . S
H1070 C1082 0.950 . S
H1071 C1083 0.950 . S
C1072 H1064 0.950 . S
C1072 C1073 1.386 . S
C1072 C1074 1.391 . S
C1073 C1072 1.386 . S
C1073 C1077 1.393 . S
C1074 H1066 0.950 . S
C1074 C1072 1.391 . S
C1074 C1075 1.400 . S
C1075 C1074 1.400 . S
C1075 C1076 1.398 . S
C1075 C1081 1.491 . S
C1076 H1067 0.950 . S
C1076 C1075 1.398 . S
C1076 C1077 1.391 . S
C1077 H1065 0.950 . S
C1077 C1073 1.393 . S
C1077 C1076 1.391 . S
C1078 H1068 0.950 . S
C1078 C1079 1.386 . S
C1078 C1080 1.391 . S
C1079 C1078 1.386 . S
C1079 C1083 1.393 . S
C1080 H1069 0.950 . S
C1080 C1078 1.391 . S
C1080 C1081 1.400 . S
C1081 C1075 1.491 . S
C1081 C1080 1.400 . S
C1081 C1082 1.398 . S
C1082 H1070 0.950 . S
C1082 C1081 1.398 . S
C1082 C1083 1.391 . S
C1083 H1071 0.950 . S
C1083 C1079 1.393 . S
C1083 C1082 1.391 . S
H1084 C1092 0.950 . S
H1085 C1097 0.950 . S
H1086 C1094 0.950 . S
H1087 C1096 0.950 . S
H1088 C1098 0.950 . S
H1089 C1100 0.950 . S
H1090 C1102 0.950 . S
H1091 C1103 0.970 . S
C1092 H1084 0.950 . S
C1092 C1093 1.386 . S
C1092 C1094 1.391 . S
C1093 C1092 1.386 . S
C1093 C1097 1.393 . S
C1094 H1086 0.950 . S
C1094 C1092 1.391 . S
C1094 C1095 1.400 . S
C1095 C1094 1.400 . S
C1095 C1096 1.398 . S
C1095 C1101 1.491 . S
C1096 H1087 0.950 . S
C1096 C1095 1.398 . S
C1096 C1097 1.391 . S
C1097 H1085 0.950 . S
C1097 C1093 1.393 . S
C1097 C1096 1.391 . S
C1098 H1088 0.950 . S
C1098 C1099 1.386 1_554 S
C1098 C1100 1.391 . S
C1099 C1098 1.386 1_556 S
C1099 C1103 1.393 1_556 S
C1100 H1089 0.950 . S
C1100 C1098 1.391 . S
C1100 C1101 1.400 . S
C1101 C1095 1.491 . S
C1101 C1100 1.400 . S
C1101 C1102 1.398 . S
C1102 H1090 0.950 . S
C1102 C1101 1.398 . S
C1102 C1103 1.391 . S
C1103 H1091 0.970 . S
C1103 C1099 1.393 1_554 S
C1103 C1102 1.391 . S
H1104 C1112 0.950 . S
H1105 C1117 0.950 . S
H1106 C1114 0.950 . S
H1107 C1116 0.950 . S
H1108 C1118 0.950 . S
H1109 C1120 0.950 . S
H1110 C1122 0.950 . S
H1111 C1123 0.950 . S
C1112 H1104 0.950 . S
C1112 C1113 1.386 . S
C1112 C1114 1.391 . S
C1113 C1112 1.386 . S
C1113 C1117 1.393 . S
C1114 H1106 0.950 . S
C1114 C1112 1.391 . S
C1114 C1115 1.400 . S
C1115 C1114 1.400 . S
C1115 C1116 1.398 . S
C1115 C1121 1.491 . S
C1116 H1107 0.950 . S
C1116 C1115 1.398 . S
C1116 C1117 1.391 . S
C1117 H1105 0.950 . S
C1117 C1113 1.393 . S
C1117 C1116 1.391 . S
C1118 H1108 0.950 . S
C1118 C1119 1.386 . S
C1118 C1120 1.391 . S
C1119 C1118 1.386 . S
C1119 C1123 1.393 . S
C1120 H1109 0.950 . S
C1120 C1118 1.391 . S
C1120 C1121 1.400 . S
C1121 C1115 1.491 . S
C1121 C1120 1.400 . S
C1121 C1122 1.398 . S
C1122 H1110 0.950 . S
C1122 C1121 1.398 . S
C1122 C1123 1.391 . S
C1123 H1111 0.950 . S
C1123 C1119 1.393 . S
C1123 C1122 1.391 . S
H1124 C1132 0.950 1_554 S
H1125 C1137 0.950 . S
H1126 C1134 0.950 . S
H1127 C1136 0.950 . S
H1128 C1138 0.950 . S
H1129 C1140 0.950 . S
H1130 C1142 0.950 . S
H1131 C1143 0.950 . S
C1132 H1124 0.950 1_556 S
C1132 C1133 1.386 1_556 S
C1132 C1134 1.391 . S
C1133 C1132 1.386 1_554 S
C1133 C1137 1.393 1_554 S
C1134 H1126 0.950 . S
C1134 C1132 1.391 . S
C1134 C1135 1.400 . S
C1135 C1134 1.400 . S
C1135 C1136 1.398 . S
C1135 C1141 1.491 . S
C1136 H1127 0.950 . S
C1136 C1135 1.398 . S
C1136 C1137 1.391 . S
C1137 H1125 0.950 . S
C1137 C1133 1.393 1_556 S
C1137 C1136 1.391 . S
C1138 H1128 0.950 . S
C1138 C1139 1.386 . S
C1138 C1140 1.391 . S
C1139 C1138 1.386 . S
C1139 C1143 1.393 . S
C1140 H1129 0.950 . S
C1140 C1138 1.391 . S
C1140 C1141 1.400 . S
C1141 C1135 1.491 . S
C1141 C1140 1.400 . S
C1141 C1142 1.398 . S
C1142 H1130 0.950 . S
C1142 C1141 1.398 . S
C1142 C1143 1.391 . S
C1143 H1131 0.950 . S
C1143 C1139 1.393 . S
C1143 C1142 1.391 . S
H1144 C1152 0.950 . S
H1145 C1157 0.950 . S
H1146 C1154 0.950 . S
H1147 C1156 0.950 . S
H1148 C1158 0.950 . S
H1149 C1160 0.950 . S
H1150 C1162 0.950 . S
H1151 C1163 0.950 . S
C1152 H1144 0.950 . S
C1152 C1153 1.386 . S
C1152 C1154 1.391 . S
C1153 C1152 1.386 . S
C1153 C1157 1.393 . S
C1154 H1146 0.950 . S
C1154 C1152 1.391 . S
C1154 C1155 1.400 . S
C1155 C1154 1.400 . S
C1155 C1156 1.398 . S
C1155 C1161 1.491 . S
C1156 H1147 0.950 . S
C1156 C1155 1.398 . S
C1156 C1157 1.391 . S
C1157 H1145 0.950 . S
C1157 C1153 1.393 . S
C1157 C1156 1.391 . S
C1158 H1148 0.950 . S
C1158 C1159 1.386 . S
C1158 C1160 1.391 . S
C1159 C1158 1.386 . S
C1159 C1163 1.393 . S
C1160 H1149 0.950 . S
C1160 C1158 1.391 . S
C1160 C1161 1.400 . S
C1161 C1155 1.491 . S
C1161 C1160 1.400 . S
C1161 C1162 1.398 . S
C1162 H1150 0.950 . S
C1162 C1161 1.398 . S
C1162 C1163 1.391 . S
C1163 H1151 0.950 . S
C1163 C1159 1.393 . S
C1163 C1162 1.391 . S
H1164 C1172 0.950 . S
H1165 C1177 0.950 1_655 S
H1166 C1174 0.950 . S
H1167 C1176 0.950 . S
H1168 C1178 0.950 . S
H1169 C1180 0.950 . S
H1170 C1182 0.950 . S
H1171 C1183 0.950 . S
C1172 H1164 0.950 . S
C1172 C1173 1.386 1_455 S
C1172 C1174 1.391 . S
C1173 C1172 1.386 1_655 S
C1173 C1177 1.393 1_655 S
C1174 H1166 0.950 . S
C1174 C1172 1.391 . S
C1174 C1175 1.400 . S
C1175 C1174 1.400 . S
C1175 C1176 1.398 . S
C1175 C1181 1.491 . S
C1176 H1167 0.950 . S
C1176 C1175 1.398 . S
C1176 C1177 1.391 . S
C1177 H1165 0.950 1_455 S
C1177 C1173 1.393 1_455 S
C1177 C1176 1.391 . S
C1178 H1168 0.950 . S
C1178 C1179 1.386 . S
C1178 C1180 1.391 . S
C1179 C1178 1.386 . S
C1179 C1183 1.393 . S
C1180 H1169 0.950 . S
C1180 C1178 1.391 . S
C1180 C1181 1.400 . S
C1181 C1175 1.491 . S
C1181 C1180 1.400 . S
C1181 C1182 1.398 . S
C1182 H1170 0.950 . S
C1182 C1181 1.398 . S
C1182 C1183 1.391 . S
C1183 H1171 0.950 . S
C1183 C1179 1.393 . S
C1183 C1182 1.391 . S
H1184 C1192 0.950 . S
H1185 C1197 0.950 . S
H1186 C1194 0.950 . S
H1187 C1196 0.950 . S
H1188 C1198 0.950 . S
H1189 C1200 0.950 . S
H1190 C1202 0.950 . S
H1191 C1203 0.950 . S
C1192 H1184 0.950 . S
C1192 C1193 1.386 . S
C1192 C1194 1.391 . S
C1193 C1192 1.386 . S
C1193 C1197 1.393 . S
C1194 H1186 0.950 . S
C1194 C1192 1.391 . S
C1194 C1195 1.400 . S
C1195 C1194 1.400 . S
C1195 C1196 1.398 . S
C1195 C1201 1.491 . S
C1196 H1187 0.950 . S
C1196 C1195 1.398 . S
C1196 C1197 1.391 . S
C1197 H1185 0.950 . S
C1197 C1193 1.393 . S
C1197 C1196 1.391 . S
C1198 H1188 0.950 . S
C1198 C1199 1.386 . S
C1198 C1200 1.391 . S
C1199 C1198 1.386 . S
C1199 C1203 1.393 . S
C1200 H1189 0.950 . S
C1200 C1198 1.391 . S
C1200 C1201 1.400 . S
C1201 C1195 1.491 . S
C1201 C1200 1.400 . S
C1201 C1202 1.398 . S
C1202 H1190 0.950 . S
C1202 C1201 1.398 . S
C1202 C1203 1.391 . S
C1203 H1191 0.950 . S
C1203 C1199 1.393 . S
C1203 C1202 1.391 . S
H1204 C1212 0.950 . S
H1205 C1217 0.950 . S
H1206 C1214 0.950 . S
H1207 C1216 0.950 . S
H1208 C1218 0.950 1_455 S
H1209 C1220 0.950 . S
H1210 C1222 0.950 . S
H1211 C1223 0.950 . S
C1212 H1204 0.950 . S
C1212 C1213 1.386 . S
C1212 C1214 1.391 . S
C1213 C1212 1.386 . S
C1213 C1217 1.393 . S
C1214 H1206 0.950 . S
C1214 C1212 1.391 . S
C1214 C1215 1.400 . S
C1215 C1214 1.400 . S
C1215 C1216 1.398 . S
C1215 C1221 1.491 . S
C1216 H1207 0.950 . S
C1216 C1215 1.398 . S
C1216 C1217 1.391 . S
C1217 H1205 0.950 . S
C1217 C1213 1.393 . S
C1217 C1216 1.391 . S
C1218 H1208 0.950 1_655 S
C1218 C1219 1.386 1_655 S
C1218 C1220 1.391 . S
C1219 C1218 1.386 1_455 S
C1219 C1223 1.393 1_455 S
C1220 H1209 0.950 . S
C1220 C1218 1.391 . S
C1220 C1221 1.400 . S
C1221 C1215 1.491 . S
C1221 C1220 1.400 . S
C1221 C1222 1.398 . S
C1222 H1210 0.950 . S
C1222 C1221 1.398 . S
C1222 C1223 1.391 . S
C1223 H1211 0.950 . S
C1223 C1219 1.393 1_655 S
C1223 C1222 1.391 . S
H1224 C1232 0.950 . S
H1225 C1237 0.950 . S
H1226 C1234 0.950 . S
H1227 C1236 0.950 . S
H1228 C1238 0.950 . S
H1229 C1240 0.950 . S
H1230 C1242 0.950 . S
H1231 C1243 0.950 . S
C1232 H1224 0.950 . S
C1232 C1233 1.386 . S
C1232 C1234 1.391 . S
C1233 C1232 1.386 . S
C1233 C1237 1.393 . S
C1234 H1226 0.950 . S
C1234 C1232 1.391 . S
C1234 C1235 1.400 . S
C1235 C1234 1.400 . S
C1235 C1236 1.398 . S
C1235 C1241 1.491 . S
C1236 H1227 0.950 . S
C1236 C1235 1.398 . S
C1236 C1237 1.391 . S
C1237 H1225 0.950 . S
C1237 C1233 1.393 . S
C1237 C1236 1.391 . S
C1238 H1228 0.950 . S
C1238 C1239 1.386 . S
C1238 C1240 1.391 . S
C1239 C1238 1.386 . S
C1239 C1243 1.393 . S
C1240 H1229 0.950 . S
C1240 C1238 1.391 . S
C1240 C1241 1.400 . S
C1241 C1235 1.491 . S
C1241 C1240 1.400 . S
C1241 C1242 1.398 . S
C1242 H1230 0.950 . S
C1242 C1241 1.398 . S
C1242 C1243 1.391 . S
C1243 H1231 0.950 . S
C1243 C1239 1.393 . S
C1243 C1242 1.391 . S
H1244 C1252 0.950 . S
H1245 C1257 0.950 . S
H1246 C1254 0.950 . S
H1247 C1256 0.950 . S
H1248 C1258 0.950 . S
H1249 C1260 0.950 . S
H1250 C1262 0.950 . S
H1251 C1263 0.950 . S
C1252 H1244 0.950 . S
C1252 C1253 1.386 . S
C1252 C1254 1.391 . S
C1253 C1252 1.386 . S
C1253 C1257 1.393 . S
C1254 H1246 0.950 . S
C1254 C1252 1.391 . S
C1254 C1255 1.400 . S
C1255 C1254 1.400 . S
C1255 C1256 1.398 . S
C1255 C1261 1.491 . S
C1256 H1247 0.950 . S
C1256 C1255 1.398 . S
C1256 C1257 1.391 . S
C1257 H1245 0.950 . S
C1257 C1253 1.393 . S
C1257 C1256 1.391 . S
C1258 H1248 0.950 . S
C1258 C1259 1.386 . S
C1258 C1260 1.391 . S
C1259 C1258 1.386 . S
C1259 C1263 1.393 . S
C1260 H1249 0.950 . S
C1260 C1258 1.391 . S
C1260 C1261 1.400 . S
C1261 C1255 1.491 . S
C1261 C1260 1.400 . S
C1261 C1262 1.398 . S
C1262 H1250 0.950 . S
C1262 C1261 1.398 . S
C1262 C1263 1.391 . S
C1263 H1251 0.950 . S
C1263 C1259 1.393 . S
C1263 C1262 1.391 . S
H1264 C1272 0.950 . S
H1265 C1277 0.950 . S
H1266 C1274 0.950 . S
H1267 C1276 0.950 . S
H1268 C1278 0.950 . S
H1269 C1280 0.950 . S
H1270 C1282 0.950 . S
H1271 C1283 0.950 . S
C1272 H1264 0.950 . S
C1272 C1273 1.386 . S
C1272 C1274 1.391 . S
C1273 C1272 1.386 . S
C1273 C1277 1.393 . S
C1274 H1266 0.950 . S
C1274 C1272 1.391 . S
C1274 C1275 1.400 . S
C1275 C1274 1.400 . S
C1275 C1276 1.398 . S
C1275 C1281 1.491 . S
C1276 H1267 0.950 . S
C1276 C1275 1.398 . S
C1276 C1277 1.391 . S
C1277 H1265 0.950 . S
C1277 C1273 1.393 . S
C1277 C1276 1.391 . S
C1278 H1268 0.950 . S
C1278 C1279 1.386 . S
C1278 C1280 1.391 . S
C1279 C1278 1.386 . S
C1279 C1283 1.393 . S
C1280 H1269 0.950 . S
C1280 C1278 1.391 . S
C1280 C1281 1.400 . S
C1281 C1275 1.491 . S
C1281 C1280 1.400 . S
C1281 C1282 1.398 . S
C1282 H1270 0.950 . S
C1282 C1281 1.398 . S
C1282 C1283 1.391 . S
C1283 H1271 0.950 . S
C1283 C1279 1.393 . S
C1283 C1282 1.391 . S
H1284 C1292 0.950 . S
H1285 C1297 0.950 . S
H1286 C1294 0.950 . S
H1287 C1296 0.950 . S
H1288 C1298 0.950 . S
H1289 C1300 0.950 . S
H1290 C1302 0.950 . S
H1291 C1303 0.950 . S
C1292 H1284 0.950 . S
C1292 C1293 1.386 . S
C1292 C1294 1.391 . S
C1293 C1292 1.386 . S
C1293 C1297 1.393 . S
C1294 H1286 0.950 . S
C1294 C1292 1.391 . S
C1294 C1295 1.400 . S
C1295 C1294 1.400 . S
C1295 C1296 1.398 . S
C1295 C1301 1.491 . S
C1296 H1287 0.950 . S
C1296 C1295 1.398 . S
C1296 C1297 1.391 . S
C1297 H1285 0.950 . S
C1297 C1293 1.393 . S
C1297 C1296 1.391 . S
C1298 H1288 0.950 . S
C1298 C1299 1.386 . S
C1298 C1300 1.391 . S
C1299 C1298 1.386 . S
C1299 C1303 1.393 . S
C1300 H1289 0.950 . S
C1300 C1298 1.391 . S
C1300 C1301 1.400 . S
C1301 C1295 1.491 . S
C1301 C1300 1.400 . S
C1301 C1302 1.398 . S
C1302 H1290 0.950 . S
C1302 C1301 1.398 . S
C1302 C1303 1.391 . S
C1303 H1291 0.950 . S
C1303 C1299 1.393 . S
C1303 C1302 1.391 . S
H1304 C1312 0.950 . S
H1305 C1317 0.950 . S
H1306 C1314 0.950 . S
H1307 C1316 0.950 . S
H1308 C1318 0.950 . S
H1309 C1320 0.950 . S
H1310 C1322 0.950 . S
H1311 C1323 0.950 . S
C1312 H1304 0.950 . S
C1312 C1313 1.386 . S
C1312 C1314 1.391 . S
C1313 C1312 1.386 . S
C1313 C1317 1.393 . S
C1314 H1306 0.950 . S
C1314 C1312 1.391 . S
C1314 C1315 1.400 . S
C1315 C1314 1.400 . S
C1315 C1316 1.398 . S
C1315 C1321 1.491 . S
C1316 H1307 0.950 . S
C1316 C1315 1.398 . S
C1316 C1317 1.391 . S
C1317 H1305 0.950 . S
C1317 C1313 1.393 . S
C1317 C1316 1.391 . S
C1318 H1308 0.950 . S
C1318 C1319 1.386 . S
C1318 C1320 1.391 . S
C1319 C1318 1.386 . S
C1319 C1323 1.393 . S
C1320 H1309 0.950 . S
C1320 C1318 1.391 . S
C1320 C1321 1.400 . S
C1321 C1315 1.491 . S
C1321 C1320 1.400 . S
C1321 C1322 1.398 . S
C1322 H1310 0.950 . S
C1322 C1321 1.398 . S
C1322 C1323 1.391 . S
C1323 H1311 0.950 . S
C1323 C1319 1.393 . S
C1323 C1322 1.391 . S
H1324 C1332 0.950 . S
H1325 C1337 0.950 . S
H1326 C1334 0.950 . S
H1327 C1336 0.950 . S
H1328 C1338 0.950 . S
H1329 C1340 0.950 . S
H1330 C1342 0.950 . S
H1331 C1343 0.950 . S
C1332 H1324 0.950 . S
C1332 C1333 1.386 . S
C1332 C1334 1.391 . S
C1333 C1332 1.386 . S
C1333 C1337 1.393 . S
C1334 H1326 0.950 . S
C1334 C1332 1.391 . S
C1334 C1335 1.400 . S
C1335 C1334 1.400 . S
C1335 C1336 1.398 . S
C1335 C1341 1.491 . S
C1336 H1327 0.950 . S
C1336 C1335 1.398 . S
C1336 C1337 1.391 . S
C1337 H1325 0.950 . S
C1337 C1333 1.393 . S
C1337 C1336 1.391 . S
C1338 H1328 0.950 . S
C1338 C1339 1.386 . S
C1338 C1340 1.391 . S
C1339 C1338 1.386 . S
C1339 C1343 1.393 . S
C1340 H1329 0.950 . S
C1340 C1338 1.391 . S
C1340 C1341 1.400 . S
C1341 C1335 1.491 . S
C1341 C1340 1.400 . S
C1341 C1342 1.398 . S
C1342 H1330 0.950 . S
C1342 C1341 1.398 . S
C1342 C1343 1.391 . S
C1343 H1331 0.950 . S
C1343 C1339 1.393 . S
C1343 C1342 1.391 . S
H1344 C1352 0.950 . S
H1345 C1357 0.950 . S
H1346 C1354 0.950 . S
H1347 C1356 0.950 . S
H1348 C1358 0.950 . S
H1349 C1360 0.950 . S
H1350 C1362 0.950 . S
H1351 C1363 0.950 . S
C1352 H1344 0.950 . S
C1352 C1353 1.386 . S
C1352 C1354 1.391 . S
C1353 C1352 1.386 . S
C1353 C1357 1.393 . S
C1354 H1346 0.950 . S
C1354 C1352 1.391 . S
C1354 C1355 1.400 . S
C1355 C1354 1.400 . S
C1355 C1356 1.398 . S
C1355 C1361 1.491 . S
C1356 H1347 0.950 . S
C1356 C1355 1.398 . S
C1356 C1357 1.391 . S
C1357 H1345 0.950 . S
C1357 C1353 1.393 . S
C1357 C1356 1.391 . S
C1358 H1348 0.950 . S
C1358 C1359 1.386 . S
C1358 C1360 1.391 . S
C1359 C1358 1.386 . S
C1359 C1363 1.393 . S
C1360 H1349 0.950 . S
C1360 C1358 1.391 . S
C1360 C1361 1.400 . S
C1361 C1355 1.491 . S
C1361 C1360 1.400 . S
C1361 C1362 1.398 . S
C1362 H1350 0.950 . S
C1362 C1361 1.398 . S
C1362 C1363 1.391 . S
C1363 H1351 0.950 . S
C1363 C1359 1.393 . S
C1363 C1362 1.391 . S
H1364 C1372 0.950 . S
H1365 C1377 0.950 . S
H1366 C1374 0.950 . S
H1367 C1376 0.950 . S
H1368 C1378 0.950 . S
H1369 C1380 0.950 . S
H1370 C1382 0.950 . S
H1371 C1383 0.950 . S
C1372 H1364 0.950 . S
C1372 C1373 1.386 . S
C1372 C1374 1.391 . S
C1373 C1372 1.386 . S
C1373 C1377 1.393 . S
C1374 H1366 0.950 . S
C1374 C1372 1.391 . S
C1374 C1375 1.400 . S
C1375 C1374 1.400 . S
C1375 C1376 1.398 . S
C1375 C1381 1.491 . S
C1376 H1367 0.950 . S
C1376 C1375 1.398 . S
C1376 C1377 1.391 . S
C1377 H1365 0.950 . S
C1377 C1373 1.393 . S
C1377 C1376 1.391 . S
C1378 H1368 0.950 . S
C1378 C1379 1.386 . S
C1378 C1380 1.391 . S
C1379 C1378 1.386 . S
C1379 C1383 1.393 . S
C1380 H1369 0.950 . S
C1380 C1378 1.391 . S
C1380 C1381 1.400 . S
C1381 C1375 1.491 . S
C1381 C1380 1.400 . S
C1381 C1382 1.398 . S
C1382 H1370 0.950 . S
C1382 C1381 1.398 . S
C1382 C1383 1.391 . S
C1383 H1371 0.950 . S
C1383 C1379 1.393 . S
C1383 C1382 1.391 . S
H1384 C1392 0.950 . S
H1385 C1397 0.950 . S
H1386 C1394 0.950 . S
H1387 C1396 0.950 . S
H1388 C1398 0.950 . S
H1389 C1400 0.950 . S
H1390 C1402 0.950 . S
H1391 C1403 0.950 . S
C1392 H1384 0.950 . S
C1392 C1393 1.386 . S
C1392 C1394 1.391 . S
C1393 C1392 1.386 . S
C1393 C1397 1.393 . S
C1394 H1386 0.950 . S
C1394 C1392 1.391 . S
C1394 C1395 1.400 . S
C1395 C1394 1.400 . S
C1395 C1396 1.398 . S
C1395 C1401 1.491 . S
C1396 H1387 0.950 . S
C1396 C1395 1.398 . S
C1396 C1397 1.391 . S
C1397 H1385 0.950 . S
C1397 C1393 1.393 . S
C1397 C1396 1.391 . S
C1398 H1388 0.950 . S
C1398 C1399 1.386 . S
C1398 C1400 1.391 . S
C1399 C1398 1.386 . S
C1399 C1403 1.393 . S
C1400 H1389 0.950 . S
C1400 C1398 1.391 . S
C1400 C1401 1.400 . S
C1401 C1395 1.491 . S
C1401 C1400 1.400 . S
C1401 C1402 1.398 . S
C1402 H1390 0.950 . S
C1402 C1401 1.398 . S
C1402 C1403 1.391 . S
C1403 H1391 0.950 . S
C1403 C1399 1.393 . S
C1403 C1402 1.391 . S
H1404 C1412 0.950 . S
H1405 C1417 0.950 . S
H1406 C1414 0.950 . S
H1407 C1416 0.950 . S
H1408 C1418 0.950 . S
H1409 C1420 0.950 . S
H1410 C1422 0.950 . S
H1411 C1423 0.950 . S
C1412 H1404 0.950 . S
C1412 C1413 1.386 . S
C1412 C1414 1.391 . S
C1413 C1412 1.386 . S
C1413 C1417 1.393 . S
C1414 H1406 0.950 . S
C1414 C1412 1.391 . S
C1414 C1415 1.400 . S
C1415 C1414 1.400 . S
C1415 C1416 1.398 . S
C1415 C1421 1.491 . S
C1416 H1407 0.950 . S
C1416 C1415 1.398 . S
C1416 C1417 1.391 . S
C1417 H1405 0.950 . S
C1417 C1413 1.393 . S
C1417 C1416 1.391 . S
C1418 H1408 0.950 . S
C1418 C1419 1.386 . S
C1418 C1420 1.391 . S
C1419 C1418 1.386 . S
C1419 C1423 1.393 . S
C1420 H1409 0.950 . S
C1420 C1418 1.391 . S
C1420 C1421 1.400 . S
C1421 C1415 1.491 . S
C1421 C1420 1.400 . S
C1421 C1422 1.398 . S
C1422 H1410 0.950 . S
C1422 C1421 1.398 . S
C1422 C1423 1.391 . S
C1423 H1411 0.950 . S
C1423 C1419 1.393 . S
C1423 C1422 1.391 . S
H1424 C1432 0.950 . S
H1425 C1437 0.950 . S
H1426 C1434 0.950 . S
H1427 C1436 0.950 . S
H1428 C1438 0.950 . S
H1429 C1440 0.950 . S
H1430 C1442 0.950 . S
H1431 C1443 0.950 . S
C1432 H1424 0.950 . S
C1432 C1433 1.386 . S
C1432 C1434 1.391 . S
C1433 C1432 1.386 . S
C1433 C1437 1.393 . S
C1434 H1426 0.950 . S
C1434 C1432 1.391 . S
C1434 C1435 1.400 . S
C1435 C1434 1.400 . S
C1435 C1436 1.398 . S
C1435 C1441 1.491 . S
C1436 H1427 0.950 . S
C1436 C1435 1.398 . S
C1436 C1437 1.391 . S
C1437 H1425 0.950 . S
C1437 C1433 1.393 . S
C1437 C1436 1.391 . S
C1438 H1428 0.950 . S
C1438 C1439 1.386 . S
C1438 C1440 1.391 . S
C1439 C1438 1.386 . S
C1439 C1443 1.393 . S
C1440 H1429 0.950 . S
C1440 C1438 1.391 . S
C1440 C1441 1.400 . S
C1441 C1435 1.491 . S
C1441 C1440 1.400 . S
C1441 C1442 1.398 . S
C1442 H1430 0.950 . S
C1442 C1441 1.398 . S
C1442 C1443 1.391 . S
C1443 H1431 0.950 . S
C1443 C1439 1.393 . S
C1443 C1442 1.391 . S
H1444 C1452 0.950 . S
H1445 C1457 0.950 . S
H1446 C1454 0.950 . S
H1447 C1456 0.950 . S
H1448 C1458 0.950 . S
H1449 C1460 0.950 . S
H1450 C1462 0.950 . S
H1451 C1463 0.950 . S
C1452 H1444 0.950 . S
C1452 C1453 1.386 . S
C1452 C1454 1.391 . S
C1453 C1452 1.386 . S
C1453 C1457 1.393 . S
C1454 H1446 0.950 . S
C1454 C1452 1.391 . S
C1454 C1455 1.400 . S
C1455 C1454 1.400 . S
C1455 C1456 1.398 . S
C1455 C1461 1.491 . S
C1456 H1447 0.950 . S
C1456 C1455 1.398 . S
C1456 C1457 1.391 . S
C1457 H1445 0.950 . S
C1457 C1453 1.393 . S
C1457 C1456 1.391 . S
C1458 H1448 0.950 . S
C1458 C1459 1.386 . S
C1458 C1460 1.391 . S
C1459 C1458 1.386 . S
C1459 C1463 1.393 . S
C1460 H1449 0.950 . S
C1460 C1458 1.391 . S
C1460 C1461 1.400 . S
C1461 C1455 1.491 . S
C1461 C1460 1.400 . S
C1461 C1462 1.398 . S
C1462 H1450 0.950 . S
C1462 C1461 1.398 . S
C1462 C1463 1.391 . S
C1463 H1451 0.950 . S
C1463 C1459 1.393 . S
C1463 C1462 1.391 . S
H1464 C1472 0.950 . S
H1465 C1477 0.950 . S
H1466 C1474 0.950 . S
H1467 C1476 0.950 . S
H1468 C1478 0.950 . S
H1469 C1480 0.950 . S
H1470 C1482 0.950 . S
H1471 C1483 0.950 . S
C1472 H1464 0.950 . S
C1472 C1473 1.386 . S
C1472 C1474 1.391 . S
C1473 C1472 1.386 . S
C1473 C1477 1.393 . S
C1474 H1466 0.950 . S
C1474 C1472 1.391 . S
C1474 C1475 1.400 . S
C1475 C1474 1.400 . S
C1475 C1476 1.398 . S
C1475 C1481 1.491 . S
C1476 H1467 0.950 . S
C1476 C1475 1.398 . S
C1476 C1477 1.391 . S
C1477 H1465 0.950 . S
C1477 C1473 1.393 . S
C1477 C1476 1.391 . S
C1478 H1468 0.950 . S
C1478 C1479 1.386 . S
C1478 C1480 1.391 . S
C1479 C1478 1.386 . S
C1479 C1483 1.393 . S
C1480 H1469 0.950 . S
C1480 C1478 1.391 . S
C1480 C1481 1.400 . S
C1481 C1475 1.491 . S
C1481 C1480 1.400 . S
C1481 C1482 1.398 . S
C1482 H1470 0.950 . S
C1482 C1481 1.398 . S
C1482 C1483 1.391 . S
C1483 H1471 0.950 . S
C1483 C1479 1.393 . S
C1483 C1482 1.391 . S
H1484 C1492 0.950 . S
H1485 C1497 0.950 . S
H1486 C1494 0.950 . S
H1487 C1496 0.950 . S
H1488 C1498 0.950 . S
H1489 C1500 0.950 . S
H1490 C1502 0.950 . S
H1491 C1503 0.950 . S
C1492 H1484 0.950 . S
C1492 C1493 1.386 . S
C1492 C1494 1.391 . S
C1493 C1492 1.386 . S
C1493 C1497 1.393 . S
C1494 H1486 0.950 . S
C1494 C1492 1.391 . S
C1494 C1495 1.400 . S
C1495 C1494 1.400 . S
C1495 C1496 1.398 . S
C1495 C1501 1.491 . S
C1496 H1487 0.950 . S
C1496 C1495 1.398 . S
C1496 C1497 1.391 . S
C1497 H1485 0.950 . S
C1497 C1493 1.393 . S
C1497 C1496 1.391 . S
C1498 H1488 0.950 . S
C1498 C1499 1.386 . S
C1498 C1500 1.391 . S
C1499 C1498 1.386 . S
C1499 C1503 1.393 . S
C1500 H1489 0.950 . S
C1500 C1498 1.391 . S
C1500 C1501 1.400 . S
C1501 C1495 1.491 . S
C1501 C1500 1.400 . S
C1501 C1502 1.398 . S
C1502 H1490 0.950 . S
C1502 C1501 1.398 . S
C1502 C1503 1.391 . S
C1503 H1491 0.950 . S
C1503 C1499 1.393 . S
C1503 C1502 1.391 . S
H1504 C1512 0.950 . S
H1505 C1517 0.950 . S
H1506 C1514 0.950 . S
H1507 C1516 0.950 . S
H1508 C1518 0.950 . S
H1509 C1520 0.950 . S
H1510 C1522 0.950 . S
H1511 C1523 0.950 . S
C1512 H1504 0.950 . S
C1512 C1513 1.386 . S
C1512 C1514 1.391 . S
C1513 C1512 1.386 . S
C1513 C1517 1.393 . S
C1514 H1506 0.950 . S
C1514 C1512 1.391 . S
C1514 C1515 1.400 . S
C1515 C1514 1.400 . S
C1515 C1516 1.398 . S
C1515 C1521 1.491 . S
C1516 H1507 0.950 . S
C1516 C1515 1.398 . S
C1516 C1517 1.391 . S
C1517 H1505 0.950 . S
C1517 C1513 1.393 . S
C1517 C1516 1.391 . S
C1518 H1508 0.950 . S
C1518 C1519 1.386 . S
C1518 C1520 1.391 . S
C1519 C1518 1.386 . S
C1519 C1523 1.393 . S
C1520 H1509 0.950 . S
C1520 C1518 1.391 . S
C1520 C1521 1.400 . S
C1521 C1515 1.491 . S
C1521 C1520 1.400 . S
C1521 C1522 1.398 . S
C1522 H1510 0.950 . S
C1522 C1521 1.398 . S
C1522 C1523 1.391 . S
C1523 H1511 0.950 . S
C1523 C1519 1.393 . S
C1523 C1522 1.391 . S
H1524 C1532 0.950 . S
H1525 C1537 0.950 . S
H1526 C1534 0.950 . S
H1527 C1536 0.950 . S
H1528 C1538 0.950 . S
H1529 C1540 0.950 . S
H1530 C1542 0.950 . S
H1531 C1543 0.950 . S
C1532 H1524 0.950 . S
C1532 C1533 1.386 . S
C1532 C1534 1.391 . S
C1533 C1532 1.386 . S
C1533 C1537 1.393 . S
C1534 H1526 0.950 . S
C1534 C1532 1.391 . S
C1534 C1535 1.400 . S
C1535 C1534 1.400 . S
C1535 C1536 1.398 . S
C1535 C1541 1.491 . S
C1536 H1527 0.950 . S
C1536 C1535 1.398 . S
C1536 C1537 1.391 . S
C1537 H1525 0.950 . S
C1537 C1533 1.393 . S
C1537 C1536 1.391 . S
C1538 H1528 0.950 . S
C1538 C1539 1.386 . S
C1538 C1540 1.391 . S
C1539 C1538 1.386 . S
C1539 C1543 1.393 . S
C1540 H1529 0.950 . S
C1540 C1538 1.391 . S
C1540 C1541 1.400 . S
C1541 C1535 1.491 . S
C1541 C1540 1.400 . S
C1541 C1542 1.398 . S
C1542 H1530 0.950 . S
C1542 C1541 1.398 . S
C1542 C1543 1.391 . S
C1543 H1531 0.950 . S
C1543 C1539 1.393 . S
C1543 C1542 1.391 . S
H1544 C1552 0.950 . S
H1545 C1557 0.950 . S
H1546 C1554 0.950 . S
H1547 C1556 0.950 . S
H1548 C1558 0.950 . S
H1549 C1560 0.950 . S
H1550 C1562 0.950 . S
H1551 C1563 0.950 . S
C1552 H1544 0.950 . S
C1552 C1553 1.386 . S
C1552 C1554 1.391 . S
C1553 C1552 1.386 . S
C1553 C1557 1.393 . S
C1554 H1546 0.950 . S
C1554 C1552 1.391 . S
C1554 C1555 1.400 . S
C1555 C1554 1.400 . S
C1555 C1556 1.398 . S
C1555 C1561 1.491 . S
C1556 H1547 0.950 . S
C1556 C1555 1.398 . S
C1556 C1557 1.391 . S
C1557 H1545 0.950 . S
C1557 C1553 1.393 . S
C1557 C1556 1.391 . S
C1558 H1548 0.950 . S
C1558 C1559 1.386 . S
C1558 C1560 1.391 . S
C1559 C1558 1.386 . S
C1559 C1563 1.393 . S
C1560 H1549 0.950 . S
C1560 C1558 1.391 . S
C1560 C1561 1.400 . S
C1561 C1555 1.491 . S
C1561 C1560 1.400 . S
C1561 C1562 1.398 . S
C1562 H1550 0.950 . S
C1562 C1561 1.398 . S
C1562 C1563 1.391 . S
C1563 H1551 0.950 . S
C1563 C1559 1.393 . S
C1563 C1562 1.391 . S
H1564 C1572 0.950 . S
H1565 C1577 0.950 . S
H1566 C1574 0.950 . S
H1567 C1576 0.950 . S
H1568 C1578 0.950 . S
H1569 C1580 0.950 . S
H1570 C1582 0.950 . S
H1571 C1583 0.950 . S
C1572 H1564 0.950 . S
C1572 C1573 1.386 . S
C1572 C1574 1.391 . S
C1573 C1572 1.386 . S
C1573 C1577 1.393 . S
C1574 H1566 0.950 . S
C1574 C1572 1.391 . S
C1574 C1575 1.400 . S
C1575 C1574 1.400 . S
C1575 C1576 1.398 . S
C1575 C1581 1.491 . S
C1576 H1567 0.950 . S
C1576 C1575 1.398 . S
C1576 C1577 1.391 . S
C1577 H1565 0.950 . S
C1577 C1573 1.393 . S
C1577 C1576 1.391 . S
C1578 H1568 0.950 . S
C1578 C1579 1.386 . S
C1578 C1580 1.391 . S
C1579 C1578 1.386 . S
C1579 C1583 1.393 . S
C1580 H1569 0.950 . S
C1580 C1578 1.391 . S
C1580 C1581 1.400 . S
C1581 C1575 1.491 . S
C1581 C1580 1.400 . S
C1581 C1582 1.398 . S
C1582 H1570 0.950 . S
C1582 C1581 1.398 . S
C1582 C1583 1.391 . S
C1583 H1571 0.950 . S
C1583 C1579 1.393 . S
C1583 C1582 1.391 . S
H1584 C1592 0.950 . S
H1585 C1597 0.950 . S
H1586 C1594 0.950 . S
H1587 C1596 0.950 . S
H1588 C1598 0.950 . S
H1589 C1600 0.950 . S
H1590 C1602 0.950 . S
H1591 C1603 0.950 . S
C1592 H1584 0.950 . S
C1592 C1593 1.386 . S
C1592 C1594 1.391 . S
C1593 C1592 1.386 . S
C1593 C1597 1.393 . S
C1594 H1586 0.950 . S
C1594 C1592 1.391 . S
C1594 C1595 1.400 . S
C1595 C1594 1.400 . S
C1595 C1596 1.398 . S
C1595 C1601 1.491 . S
C1596 H1587 0.950 . S
C1596 C1595 1.398 . S
C1596 C1597 1.391 . S
C1597 H1585 0.950 . S
C1597 C1593 1.393 . S
C1597 C1596 1.391 . S
C1598 H1588 0.950 . S
C1598 C1599 1.386 . S
C1598 C1600 1.391 . S
C1599 C1598 1.386 . S
C1599 C1603 1.393 . S
C1600 H1589 0.950 . S
C1600 C1598 1.391 . S
C1600 C1601 1.400 . S
C1601 C1595 1.491 . S
C1601 C1600 1.400 . S
C1601 C1602 1.398 . S
C1602 H1590 0.950 . S
C1602 C1601 1.398 . S
C1602 C1603 1.391 . S
C1603 H1591 0.950 . S
C1603 C1599 1.393 . S
C1603 C1602 1.391 . S
H1604 C1612 0.950 . S
H1605 C1617 0.950 . S
H1606 C1614 0.950 . S
H1607 C1616 0.950 . S
H1608 C1618 0.950 . S
H1609 C1620 0.950 . S
H1610 C1622 0.950 . S
H1611 C1623 0.950 . S
C1612 H1604 0.950 . S
C1612 C1613 1.386 . S
C1612 C1614 1.391 . S
C1613 C1612 1.386 . S
C1613 C1617 1.393 . S
C1614 H1606 0.950 . S
C1614 C1612 1.391 . S
C1614 C1615 1.400 . S
C1615 C1614 1.400 . S
C1615 C1616 1.398 . S
C1615 C1621 1.491 . S
C1616 H1607 0.950 . S
C1616 C1615 1.398 . S
C1616 C1617 1.391 . S
C1617 H1605 0.950 . S
C1617 C1613 1.393 . S
C1617 C1616 1.391 . S
C1618 H1608 0.950 . S
C1618 C1619 1.386 . S
C1618 C1620 1.391 . S
C1619 C1618 1.386 . S
C1619 C1623 1.393 . S
C1620 H1609 0.950 . S
C1620 C1618 1.391 . S
C1620 C1621 1.400 . S
C1621 C1615 1.491 . S
C1621 C1620 1.400 . S
C1621 C1622 1.398 . S
C1622 H1610 0.950 . S
C1622 C1621 1.398 . S
C1622 C1623 1.391 . S
C1623 H1611 0.950 . S
C1623 C1619 1.393 . S
C1623 C1622 1.391 . S
H1624 C1632 0.950 . S
H1625 C1637 0.950 . S
H1626 C1634 0.950 . S
H1627 C1636 0.950 . S
H1628 C1638 0.950 . S
H1629 C1640 0.950 . S
H1630 C1642 0.950 . S
H1631 C1643 0.950 . S
C1632 H1624 0.950 . S
C1632 C1633 1.386 . S
C1632 C1634 1.391 . S
C1633 C1632 1.386 . S
C1633 C1637 1.393 . S
C1634 H1626 0.950 . S
C1634 C1632 1.391 . S
C1634 C1635 1.400 . S
C1635 C1634 1.400 . S
C1635 C1636 1.398 . S
C1635 C1641 1.491 . S
C1636 H1627 0.950 . S
C1636 C1635 1.398 . S
C1636 C1637 1.391 . S
C1637 H1625 0.950 . S
C1637 C1633 1.393 . S
C1637 C1636 1.391 . S
C1638 H1628 0.950 . S
C1638 C1639 1.386 . S
C1638 C1640 1.391 . S
C1639 C1638 1.386 . S
C1639 C1643 1.393 . S
C1640 H1629 0.950 . S
C1640 C1638 1.391 . S
C1640 C1641 1.400 . S
C1641 C1635 1.491 . S
C1641 C1640 1.400 . S
C1641 C1642 1.398 . S
C1642 H1630 0.950 . S
C1642 C1641 1.398 . S
C1642 C1643 1.391 . S
C1643 H1631 0.950 . S
C1643 C1639 1.393 . S
C1643 C1642 1.391 . S
H1644 C1652 0.950 . S
H1645 C1657 0.950 . S
H1646 C1654 0.950 . S
H1647 C1656 0.950 . S
H1648 C1658 0.950 . S
H1649 C1660 0.950 . S
H1650 C1662 0.950 . S
H1651 C1663 0.950 . S
C1652 H1644 0.950 . S
C1652 C1653 1.386 . S
C1652 C1654 1.391 . S
C1653 C1652 1.386 . S
C1653 C1657 1.393 . S
C1654 H1646 0.950 . S
C1654 C1652 1.391 . S
C1654 C1655 1.400 . S
C1655 C1654 1.400 . S
C1655 C1656 1.398 . S
C1655 C1661 1.491 . S
C1656 H1647 0.950 . S
C1656 C1655 1.398 . S
C1656 C1657 1.391 . S
C1657 H1645 0.950 . S
C1657 C1653 1.393 . S
C1657 C1656 1.391 . S
C1658 H1648 0.950 . S
C1658 C1659 1.386 . S
C1658 C1660 1.391 . S
C1659 C1658 1.386 . S
C1659 C1663 1.393 . S
C1660 H1649 0.950 . S
C1660 C1658 1.391 . S
C1660 C1661 1.400 . S
C1661 C1655 1.491 . S
C1661 C1660 1.400 . S
C1661 C1662 1.398 . S
C1662 H1650 0.950 . S
C1662 C1661 1.398 . S
C1662 C1663 1.391 . S
C1663 H1651 0.950 . S
C1663 C1659 1.393 . S
C1663 C1662 1.391 . S
H1664 C1672 0.950 . S
H1665 C1677 0.950 . S
H1666 C1674 0.950 . S
H1667 C1676 0.950 . S
H1668 C1678 0.950 . S
H1669 C1680 0.950 . S
H1670 C1682 0.950 . S
H1671 C1683 0.950 . S
C1672 H1664 0.950 . S
C1672 C1673 1.386 . S
C1672 C1674 1.391 . S
C1673 C1672 1.386 . S
C1673 C1677 1.393 . S
C1674 H1666 0.950 . S
C1674 C1672 1.391 . S
C1674 C1675 1.400 . S
C1675 C1674 1.400 . S
C1675 C1676 1.398 . S
C1675 C1681 1.491 . S
C1676 H1667 0.950 . S
C1676 C1675 1.398 . S
C1676 C1677 1.391 . S
C1677 H1665 0.950 . S
C1677 C1673 1.393 . S
C1677 C1676 1.391 . S
C1678 H1668 0.950 . S
C1678 C1679 1.386 . S
C1678 C1680 1.391 . S
C1679 C1678 1.386 . S
C1679 C1683 1.393 . S
C1680 H1669 0.950 . S
C1680 C1678 1.391 . S
C1680 C1681 1.400 . S
C1681 C1675 1.491 . S
C1681 C1680 1.400 . S
C1681 C1682 1.398 . S
C1682 H1670 0.950 . S
C1682 C1681 1.398 . S
C1682 C1683 1.391 . S
C1683 H1671 0.950 . S
C1683 C1679 1.393 . S
C1683 C1682 1.391 . S
H1684 C1692 0.950 . S
H1685 C1697 0.950 . S
H1686 C1694 0.950 . S
H1687 C1696 0.950 . S
H1688 C1698 0.950 . S
H1689 C1700 0.950 . S
H1690 C1702 0.950 . S
H1691 C1703 0.950 . S
C1692 H1684 0.950 . S
C1692 C1693 1.386 . S
C1692 C1694 1.391 . S
C1693 C1692 1.386 . S
C1693 C1697 1.393 . S
C1694 H1686 0.950 . S
C1694 C1692 1.391 . S
C1694 C1695 1.400 . S
C1695 C1694 1.400 . S
C1695 C1696 1.398 . S
C1695 C1701 1.491 . S
C1696 H1687 0.950 . S
C1696 C1695 1.398 . S
C1696 C1697 1.391 . S
C1697 H1685 0.950 . S
C1697 C1693 1.393 . S
C1697 C1696 1.391 . S
C1698 H1688 0.950 . S
C1698 C1699 1.386 . S
C1698 C1700 1.391 . S
C1699 C1698 1.386 . S
C1699 C1703 1.393 . S
C1700 H1689 0.950 . S
C1700 C1698 1.391 . S
C1700 C1701 1.400 . S
C1701 C1695 1.491 . S
C1701 C1700 1.400 . S
C1701 C1702 1.398 . S
C1702 H1690 0.950 . S
C1702 C1701 1.398 . S
C1702 C1703 1.391 . S
C1703 H1691 0.950 . S
C1703 C1699 1.393 . S
C1703 C1702 1.391 . S
H1704 C1712 0.950 . S
H1705 C1717 0.950 . S
H1706 C1714 0.950 . S
H1707 C1716 0.950 . S
H1708 C1718 0.950 . S
H1709 C1720 0.950 . S
H1710 C1722 0.950 . S
H1711 C1723 0.950 . S
C1712 H1704 0.950 . S
C1712 C1713 1.386 . S
C1712 C1714 1.391 . S
C1713 C1712 1.386 . S
C1713 C1717 1.393 . S
C1714 H1706 0.950 . S
C1714 C1712 1.391 . S
C1714 C1715 1.400 . S
C1715 C1714 1.400 . S
C1715 C1716 1.398 . S
C1715 C1721 1.491 . S
C1716 H1707 0.950 . S
C1716 C1715 1.398 . S
C1716 C1717 1.391 . S
C1717 H1705 0.950 . S
C1717 C1713 1.393 . S
C1717 C1716 1.391 . S
C1718 H1708 0.950 . S
C1718 C1719 1.386 . S
C1718 C1720 1.391 . S
C1719 C1718 1.386 . S
C1719 C1723 1.393 . S
C1720 H1709 0.950 . S
C1720 C1718 1.391 . S
C1720 C1721 1.400 . S
C1721 C1715 1.491 . S
C1721 C1720 1.400 . S
C1721 C1722 1.398 . S
C1722 H1710 0.950 . S
C1722 C1721 1.398 . S
C1722 C1723 1.391 . S
C1723 H1711 0.950 . S
C1723 C1719 1.393 . S
C1723 C1722 1.391 . S
H1724 C1732 0.950 . S
H1725 C1737 0.950 . S
H1726 C1734 0.950 . S
H1727 C1736 0.950 . S
H1728 C1738 0.950 . S
H1729 C1740 0.950 . S
H1730 C1742 0.950 . S
H1731 C1743 0.950 . S
C1732 H1724 0.950 . S
C1732 C1733 1.386 . S
C1732 C1734 1.391 . S
C1733 C1732 1.386 . S
C1733 C1737 1.393 . S
C1734 H1726 0.950 . S
C1734 C1732 1.391 . S
C1734 C1735 1.400 . S
C1735 C1734 1.400 . S
C1735 C1736 1.398 . S
C1735 C1741 1.491 . S
C1736 H1727 0.950 . S
C1736 C1735 1.398 . S
C1736 C1737 1.391 . S
C1737 H1725 0.950 . S
C1737 C1733 1.393 . S
C1737 C1736 1.391 . S
C1738 H1728 0.950 . S
C1738 C1739 1.386 . S
C1738 C1740 1.391 . S
C1739 C1738 1.386 . S
C1739 C1743 1.393 1_556 S
C1740 H1729 0.950 . S
C1740 C1738 1.391 . S
C1740 C1741 1.400 1_556 S
C1741 C1735 1.491 . S
C1741 C1740 1.400 1_554 S
C1741 C1742 1.398 . S
C1742 H1730 0.950 . S
C1742 C1741 1.398 . S
C1742 C1743 1.391 . S
C1743 H1731 0.950 . S
C1743 C1739 1.393 1_554 S
C1743 C1742 1.391 . S
H1744 C1752 0.950 . S
H1745 C1757 0.950 . S
H1746 C1754 0.950 . S
H1747 C1756 0.950 . S
H1748 C1758 0.950 . S
H1749 C1760 0.950 . S
H1750 C1762 0.950 . S
H1751 C1763 0.950 . S
C1752 H1744 0.950 . S
C1752 C1753 1.386 . S
C1752 C1754 1.391 . S
C1753 C1752 1.386 . S
C1753 C1757 1.393 . S
C1754 H1746 0.950 . S
C1754 C1752 1.391 . S
C1754 C1755 1.400 . S
C1755 C1754 1.400 . S
C1755 C1756 1.398 . S
C1755 C1761 1.491 . S
C1756 H1747 0.950 . S
C1756 C1755 1.398 . S
C1756 C1757 1.391 . S
C1757 H1745 0.950 . S
C1757 C1753 1.393 . S
C1757 C1756 1.391 . S
C1758 H1748 0.950 . S
C1758 C1759 1.386 . S
C1758 C1760 1.391 . S
C1759 C1758 1.386 . S
C1759 C1763 1.393 . S
C1760 H1749 0.950 . S
C1760 C1758 1.391 . S
C1760 C1761 1.400 . S
C1761 C1755 1.491 . S
C1761 C1760 1.400 . S
C1761 C1762 1.398 . S
C1762 H1750 0.950 . S
C1762 C1761 1.398 . S
C1762 C1763 1.391 . S
C1763 H1751 0.950 . S
C1763 C1759 1.393 . S
C1763 C1762 1.391 . S
H1764 C1772 0.950 . S
H1765 C1777 0.950 . S
H1766 C1774 0.950 . S
H1767 C1776 0.950 . S
H1768 C1778 0.950 . S
H1769 C1780 0.950 . S
H1770 C1782 0.950 . S
H1771 C1783 0.950 . S
C1772 H1764 0.950 . S
C1772 C1773 1.386 . S
C1772 C1774 1.391 1_554 S
C1773 C1772 1.386 . S
C1773 C1777 1.393 . S
C1774 H1766 0.950 . S
C1774 C1772 1.391 1_556 S
C1774 C1775 1.400 . S
C1775 C1774 1.400 . S
C1775 C1776 1.398 . S
C1775 C1781 1.491 . S
C1776 H1767 0.950 . S
C1776 C1775 1.398 . S
C1776 C1777 1.391 1_556 S
C1777 H1765 0.950 . S
C1777 C1773 1.393 . S
C1777 C1776 1.391 1_554 S
C1778 H1768 0.950 . S
C1778 C1779 1.386 . S
C1778 C1780 1.391 . S
C1779 C1778 1.386 . S
C1779 C1783 1.393 . S
C1780 H1769 0.950 . S
C1780 C1778 1.391 . S
C1780 C1781 1.400 . S
C1781 C1775 1.491 . S
C1781 C1780 1.400 . S
C1781 C1782 1.398 . S
C1782 H1770 0.950 . S
C1782 C1781 1.398 . S
C1782 C1783 1.391 . S
C1783 H1771 0.950 . S
C1783 C1779 1.393 . S
C1783 C1782 1.391 . S
H1784 C1792 0.950 . S
H1785 C1797 0.950 . S
H1786 C1794 0.950 . S
H1787 C1796 0.950 . S
H1788 C1798 0.950 . S
H1789 C1800 0.950 . S
H1790 C1802 0.950 . S
H1791 C1803 0.950 . S
C1792 H1784 0.950 . S
C1792 C1793 1.386 . S
C1792 C1794 1.391 . S
C1793 C1792 1.386 . S
C1793 C1797 1.393 . S
C1794 H1786 0.950 . S
C1794 C1792 1.391 . S
C1794 C1795 1.400 . S
C1795 C1794 1.400 . S
C1795 C1796 1.398 . S
C1795 C1801 1.491 . S
C1796 H1787 0.950 . S
C1796 C1795 1.398 . S
C1796 C1797 1.391 . S
C1797 H1785 0.950 . S
C1797 C1793 1.393 . S
C1797 C1796 1.391 . S
C1798 H1788 0.950 . S
C1798 C1799 1.386 . S
C1798 C1800 1.391 . S
C1799 C1798 1.386 . S
C1799 C1803 1.393 . S
C1800 H1789 0.950 . S
C1800 C1798 1.391 . S
C1800 C1801 1.400 . S
C1801 C1795 1.491 . S
C1801 C1800 1.400 . S
C1801 C1802 1.398 . S
C1802 H1790 0.950 . S
C1802 C1801 1.398 . S
C1802 C1803 1.391 . S
C1803 H1791 0.950 . S
C1803 C1799 1.393 . S
C1803 C1802 1.391 . S
H1804 C1812 0.950 . S
H1805 C1817 0.950 . S
H1806 C1814 0.950 . S
H1807 C1816 0.950 . S
H1808 C1818 0.950 . S
H1809 C1820 0.950 . S
H1810 C1822 0.950 . S
H1811 C1823 0.950 . S
C1812 H1804 0.950 . S
C1812 C1813 1.386 . S
C1812 C1814 1.391 . S
C1813 C1812 1.386 . S
C1813 C1817 1.393 . S
C1814 H1806 0.950 . S
C1814 C1812 1.391 . S
C1814 C1815 1.400 . S
C1815 C1814 1.400 . S
C1815 C1816 1.398 . S
C1815 C1821 1.491 . S
C1816 H1807 0.950 . S
C1816 C1815 1.398 . S
C1816 C1817 1.391 . S
C1817 H1805 0.950 . S
C1817 C1813 1.393 . S
C1817 C1816 1.391 . S
C1818 H1808 0.950 . S
C1818 C1819 1.386 . S
C1818 C1820 1.391 . S
C1819 C1818 1.386 . S
C1819 C1823 1.393 1_455 S
C1820 H1809 0.950 . S
C1820 C1818 1.391 . S
C1820 C1821 1.400 1_455 S
C1821 C1815 1.491 . S
C1821 C1820 1.400 1_655 S
C1821 C1822 1.398 . S
C1822 H1810 0.950 . S
C1822 C1821 1.398 . S
C1822 C1823 1.391 . S
C1823 H1811 0.950 . S
C1823 C1819 1.393 1_655 S
C1823 C1822 1.391 . S
H1824 C1832 0.950 . S
H1825 C1837 0.950 . S
H1826 C1834 0.950 . S
H1827 C1836 0.950 . S
H1828 C1838 0.950 . S
H1829 C1840 0.950 . S
H1830 C1842 0.950 . S
H1831 C1843 0.950 . S
C1832 H1824 0.950 . S
C1832 C1833 1.386 . S
C1832 C1834 1.391 . S
C1833 C1832 1.386 . S
C1833 C1837 1.393 . S
C1834 H1826 0.950 . S
C1834 C1832 1.391 . S
C1834 C1835 1.400 . S
C1835 C1834 1.400 . S
C1835 C1836 1.398 . S
C1835 C1841 1.491 . S
C1836 H1827 0.950 . S
C1836 C1835 1.398 . S
C1836 C1837 1.391 . S
C1837 H1825 0.950 . S
C1837 C1833 1.393 . S
C1837 C1836 1.391 . S
C1838 H1828 0.950 . S
C1838 C1839 1.386 1_455 S
C1838 C1840 1.391 . S
C1839 C1838 1.386 1_655 S
C1839 C1843 1.393 . S
C1840 H1829 0.950 . S
C1840 C1838 1.391 . S
C1840 C1841 1.400 . S
C1841 C1835 1.491 . S
C1841 C1840 1.400 . S
C1841 C1842 1.398 1_455 S
C1842 H1830 0.950 . S
C1842 C1841 1.398 1_655 S
C1842 C1843 1.391 . S
C1843 H1831 0.950 . S
C1843 C1839 1.393 . S
C1843 C1842 1.391 . S
H1844 C1852 0.950 . S
H1845 C1857 0.950 . S
H1846 C1854 0.950 . S
H1847 C1856 0.950 . S
H1848 C1858 0.950 . S
H1849 C1860 0.950 . S
H1850 C1862 0.950 . S
H1851 C1863 0.950 . S
C1852 H1844 0.950 . S
C1852 C1853 1.386 . S
C1852 C1854 1.391 . S
C1853 C1852 1.386 . S
C1853 C1857 1.393 . S
C1854 H1846 0.950 . S
C1854 C1852 1.391 . S
C1854 C1855 1.400 . S
C1855 C1854 1.400 . S
C1855 C1856 1.398 . S
C1855 C1861 1.491 . S
C1856 H1847 0.950 . S
C1856 C1855 1.398 . S
C1856 C1857 1.391 . S
C1857 H1845 0.950 . S
C1857 C1853 1.393 . S
C1857 C1856 1.391 . S
C1858 H1848 0.950 . S
C1858 C1859 1.386 . S
C1858 C1860 1.391 . S
C1859 C1858 1.386 . S
C1859 C1863 1.393 . S
C1860 H1849 0.950 . S
C1860 C1858 1.391 . S
C1860 C1861 1.400 . S
C1861 C1855 1.491 . S
C1861 C1860 1.400 . S
C1861 C1862 1.398 . S
C1862 H1850 0.950 . S
C1862 C1861 1.398 . S
C1862 C1863 1.391 . S
C1863 H1851 0.950 . S
C1863 C1859 1.393 . S
C1863 C1862 1.391 . S
H1864 C1872 0.950 . S
H1865 C1877 0.950 . S
H1866 C1874 0.950 . S
H1867 C1876 0.950 . S
H1868 C1878 0.950 . S
H1869 C1880 0.950 . S
H1870 C1882 0.950 . S
H1871 C1883 0.950 . S
C1872 H1864 0.950 . S
C1872 C1873 1.386 . S
C1872 C1874 1.391 . S
C1873 C1872 1.386 . S
C1873 C1877 1.393 . S
C1874 H1866 0.950 . S
C1874 C1872 1.391 . S
C1874 C1875 1.400 . S
C1875 C1874 1.400 . S
C1875 C1876 1.398 . S
C1875 C1881 1.491 . S
C1876 H1867 0.950 . S
C1876 C1875 1.398 . S
C1876 C1877 1.391 . S
C1877 H1865 0.950 . S
C1877 C1873 1.393 . S
C1877 C1876 1.391 . S
C1878 H1868 0.950 . S
C1878 C1879 1.386 . S
C1878 C1880 1.391 . S
C1879 C1878 1.386 . S
C1879 C1883 1.393 . S
C1880 H1869 0.950 . S
C1880 C1878 1.391 . S
C1880 C1881 1.400 . S
C1881 C1875 1.491 . S
C1881 C1880 1.400 . S
C1881 C1882 1.398 . S
C1882 H1870 0.950 . S
C1882 C1881 1.398 . S
C1882 C1883 1.391 . S
C1883 H1871 0.950 . S
C1883 C1879 1.393 . S
C1883 C1882 1.391 . S
H1884 C1892 0.950 . S
H1885 C1897 0.950 . S
H1886 C1894 0.950 . S
H1887 C1896 0.950 . S
H1888 C1898 0.950 . S
H1889 C1900 0.908 1_545 S
H1890 C1902 0.950 . S
H1891 C1903 0.950 . S
C1892 H1884 0.950 . S
C1892 C1893 1.386 1_565 S
C1892 C1894 1.391 . S
C1893 C1892 1.386 1_545 S
C1893 C1897 1.393 . S
C1894 H1886 0.950 . S
C1894 C1892 1.391 . S
C1894 C1895 1.400 . S
C1895 C1894 1.400 . S
C1895 C1896 1.398 1_565 S
C1895 C1901 1.491 . S
C1896 H1887 0.950 . S
C1896 C1895 1.398 1_545 S
C1896 C1897 1.391 . S
C1897 H1885 0.950 . S
C1897 C1893 1.393 . S
C1897 C1896 1.391 . S
C1898 H1888 0.950 . S
C1898 C1899 1.386 . S
C1898 C1900 1.391 . S
C1899 C1898 1.386 . S
C1899 C1903 1.393 . S
C1900 H1889 0.908 1_565 S
C1900 C1898 1.391 . S
C1900 C1901 1.400 . S
C1901 C1895 1.491 . S
C1901 C1900 1.400 . S
C1901 C1902 1.398 . S
C1902 H1890 0.950 . S
C1902 C1901 1.398 . S
C1902 C1903 1.391 . S
C1903 H1891 0.950 . S
C1903 C1899 1.393 . S
C1903 C1902 1.391 . S
H1904 C1912 0.950 . S
H1905 C1917 0.950 . S
H1906 C1914 0.950 . S
H1907 C1916 0.950 . S
H1908 C1918 0.950 . S
H1909 C1920 0.950 . S
H1910 C1922 0.950 . S
H1911 C1923 0.950 . S
C1912 H1904 0.950 . S
C1912 C1913 1.386 . S
C1912 C1914 1.391 . S
C1913 C1912 1.386 . S
C1913 C1917 1.393 . S
C1914 H1906 0.950 . S
C1914 C1912 1.391 . S
C1914 C1915 1.400 . S
C1915 C1914 1.400 . S
C1915 C1916 1.398 . S
C1915 C1921 1.491 . S
C1916 H1907 0.950 . S
C1916 C1915 1.398 . S
C1916 C1917 1.391 . S
C1917 H1905 0.950 . S
C1917 C1913 1.393 . S
C1917 C1916 1.391 . S
C1918 H1908 0.950 . S
C1918 C1919 1.386 . S
C1918 C1920 1.391 1_565 S
C1919 C1918 1.386 . S
C1919 C1923 1.393 1_565 S
C1920 H1909 0.950 . S
C1920 C1918 1.391 1_545 S
C1920 C1921 1.400 . S
C1921 C1915 1.491 . S
C1921 C1920 1.400 . S
C1921 C1922 1.398 . S
C1922 H1910 0.950 . S
C1922 C1921 1.398 . S
C1922 C1923 1.391 . S
C1923 H1911 0.950 . S
C1923 C1919 1.393 1_545 S
C1923 C1922 1.391 . S
H1924 C1932 0.950 . S
H1925 C1937 0.950 . S
H1926 C1934 0.950 . S
H1927 C1936 0.950 . S
H1928 C1938 0.950 . S
H1929 C1940 0.950 . S
H1930 C1942 0.950 . S
H1931 C1943 0.950 . S
C1932 H1924 0.950 . S
C1932 C1933 1.386 . S
C1932 C1934 1.391 . S
C1933 C1932 1.386 . S
C1933 C1937 1.393 . S
C1934 H1926 0.950 . S
C1934 C1932 1.391 . S
C1934 C1935 1.400 . S
C1935 C1934 1.400 . S
C1935 C1936 1.398 . S
C1935 C1941 1.491 . S
C1936 H1927 0.950 . S
C1936 C1935 1.398 . S
C1936 C1937 1.391 . S
C1937 H1925 0.950 . S
C1937 C1933 1.393 . S
C1937 C1936 1.391 . S
C1938 H1928 0.950 . S
C1938 C1939 1.386 . S
C1938 C1940 1.391 . S
C1939 C1938 1.386 . S
C1939 C1943 1.393 . S
C1940 H1929 0.950 . S
C1940 C1938 1.391 . S
C1940 C1941 1.400 . S
C1941 C1935 1.491 . S
C1941 C1940 1.400 . S
C1941 C1942 1.398 . S
C1942 H1930 0.950 . S
C1942 C1941 1.398 . S
C1942 C1943 1.391 . S
C1943 H1931 0.950 . S
C1943 C1939 1.393 . S
C1943 C1942 1.391 . S
H1944 C1952 0.950 . S
H1945 C1957 0.950 . S
H1946 C1954 0.950 . S
H1947 C1956 0.950 . S
H1948 C1958 0.950 . S
H1949 C1960 0.950 . S
H1950 C1962 0.950 . S
H1951 C1963 0.950 . S
C1952 H1944 0.950 . S
C1952 C1953 1.386 . S
C1952 C1954 1.391 . S
C1953 C1952 1.386 . S
C1953 C1957 1.393 . S
C1954 H1946 0.950 . S
C1954 C1952 1.391 . S
C1954 C1955 1.400 . S
C1955 C1954 1.400 . S
C1955 C1956 1.398 . S
C1955 C1961 1.491 . S
C1956 H1947 0.950 . S
C1956 C1955 1.398 . S
C1956 C1957 1.391 . S
C1957 H1945 0.950 . S
C1957 C1953 1.393 . S
C1957 C1956 1.391 . S
C1958 H1948 0.950 . S
C1958 C1959 1.386 . S
C1958 C1960 1.391 . S
C1959 C1958 1.386 . S
C1959 C1963 1.393 . S
C1960 H1949 0.950 . S
C1960 C1958 1.391 . S
C1960 C1961 1.400 . S
C1961 C1955 1.491 . S
C1961 C1960 1.400 . S
C1961 C1962 1.398 . S
C1962 H1950 0.950 . S
C1962 C1961 1.398 . S
C1962 C1963 1.391 . S
C1963 H1951 0.950 . S
C1963 C1959 1.393 . S
C1963 C1962 1.391 . S
H1964 C1972 0.950 . S
H1965 C1977 0.950 . S
H1966 C1974 0.950 1_554 S
H1967 C1976 0.950 . S
H1968 C1978 0.950 . S
H1969 C1980 0.950 . S
H1970 C1982 0.950 . S
H1971 C1983 0.950 . S
C1972 H1964 0.950 . S
C1972 C1973 1.386 . S
C1972 C1974 1.391 . S
C1973 C1972 1.386 . S
C1973 C1977 1.393 . S
C1974 H1966 0.950 1_556 S
C1974 C1972 1.391 . S
C1974 C1975 1.400 . S
C1975 C1974 1.400 . S
C1975 C1976 1.398 . S
C1975 C1981 1.491 . S
C1976 H1967 0.950 . S
C1976 C1975 1.398 . S
C1976 C1977 1.391 . S
C1977 H1965 0.950 . S
C1977 C1973 1.393 . S
C1977 C1976 1.391 . S
C1978 H1968 0.950 . S
C1978 C1979 1.386 1_556 S
C1978 C1980 1.391 . S
C1979 C1978 1.386 1_554 S
C1979 C1983 1.393 . S
C1980 H1969 0.950 . S
C1980 C1978 1.391 . S
C1980 C1981 1.400 . S
C1981 C1975 1.491 . S
C1981 C1980 1.400 . S
C1981 C1982 1.398 1_556 S
C1982 H1970 0.950 . S
C1982 C1981 1.398 1_554 S
C1982 C1983 1.391 . S
C1983 H1971 0.950 . S
C1983 C1979 1.393 . S
C1983 C1982 1.391 . S
H1984 C1992 0.950 . S
H1985 C1997 0.950 . S
H1986 C1994 0.950 . S
H1987 C1996 0.950 . S
H1988 C1998 0.950 . S
H1989 C2000 0.950 . S
H1990 C2002 0.950 . S
H1991 C2003 0.950 . S
C1992 H1984 0.950 . S
C1992 C1993 1.386 . S
C1992 C1994 1.391 . S
C1993 C1992 1.386 . S
C1993 C1997 1.393 . S
C1994 H1986 0.950 . S
C1994 C1992 1.391 . S
C1994 C1995 1.400 . S
C1995 C1994 1.400 . S
C1995 C1996 1.398 . S
C1995 C2001 1.491 . S
C1996 H1987 0.950 . S
C1996 C1995 1.398 . S
C1996 C1997 1.391 . S
C1997 H1985 0.950 . S
C1997 C1993 1.393 . S
C1997 C1996 1.391 . S
C1998 H1988 0.950 . S
C1998 C1999 1.386 . S
C1998 C2000 1.391 . S
C1999 C1998 1.386 . S
C1999 C2003 1.393 . S
C2000 H1989 0.950 . S
C2000 C1998 1.391 . S
C2000 C2001 1.400 . S
C2001 C1995 1.491 . S
C2001 C2000 1.400 . S
C2001 C2002 1.398 . S
C2002 H1990 0.950 . S
C2002 C2001 1.398 . S
C2002 C2003 1.391 . S
C2003 H1991 0.950 . S
C2003 C1999 1.393 . S
C2003 C2002 1.391 . S
H2004 C2012 0.950 . S
H2005 C2017 0.950 . S
H2006 C2014 0.950 . S
H2007 C2016 0.950 . S
H2008 C2018 0.950 . S
H2009 C2020 0.950 . S
H2010 C2022 0.950 . S
H2011 C2023 0.953 . S
C2012 H2004 0.950 . S
C2012 C2013 1.386 . S
C2012 C2014 1.391 . S
C2013 C2012 1.386 . S
C2013 C2017 1.393 . S
C2014 H2006 0.950 . S
C2014 C2012 1.391 . S
C2014 C2015 1.400 . S
C2015 C2014 1.400 . S
C2015 C2016 1.398 . S
C2015 C2021 1.491 . S
C2016 H2007 0.950 . S
C2016 C2015 1.398 . S
C2016 C2017 1.391 . S
C2017 H2005 0.950 . S
C2017 C2013 1.393 . S
C2017 C2016 1.391 . S
C2018 H2008 0.950 . S
C2018 C2019 1.386 . S
C2018 C2020 1.391 1_556 S
C2019 C2018 1.386 . S
C2019 C2023 1.404 . S
C2020 H2009 0.950 . S
C2020 C2018 1.391 1_554 S
C2020 C2021 1.400 . S
C2021 C2015 1.491 . S
C2021 C2020 1.400 . S
C2021 C2022 1.398 . S
C2022 H2010 0.950 . S
C2022 C2021 1.398 . S
C2022 C2023 1.377 1_554 S
C2023 H2011 0.953 . S
C2023 C2019 1.404 . S
C2023 C2022 1.377 1_556 S
H2024 C2032 0.950 . S
H2025 C2037 0.950 . S
H2026 C2034 0.950 . S
H2027 C2036 0.950 . S
H2028 C2038 0.950 . S
H2029 C2040 0.950 . S
H2030 C2042 0.950 . S
H2031 C2043 0.950 . S
C2032 H2024 0.950 . S
C2032 C2033 1.386 . S
C2032 C2034 1.391 . S
C2033 C2032 1.386 . S
C2033 C2037 1.393 . S
C2034 H2026 0.950 . S
C2034 C2032 1.391 . S
C2034 C2035 1.400 . S
C2035 C2034 1.400 . S
C2035 C2036 1.398 . S
C2035 C2041 1.491 . S
C2036 H2027 0.950 . S
C2036 C2035 1.398 . S
C2036 C2037 1.391 . S
C2037 H2025 0.950 . S
C2037 C2033 1.393 . S
C2037 C2036 1.391 . S
C2038 H2028 0.950 . S
C2038 C2039 1.386 . S
C2038 C2040 1.391 . S
C2039 C2038 1.386 . S
C2039 C2043 1.393 . S
C2040 H2029 0.950 . S
C2040 C2038 1.391 . S
C2040 C2041 1.400 . S
C2041 C2035 1.491 . S
C2041 C2040 1.400 . S
C2041 C2042 1.398 . S
C2042 H2030 0.950 . S
C2042 C2041 1.398 . S
C2042 C2043 1.391 . S
C2043 H2031 0.950 . S
C2043 C2039 1.393 . S
C2043 C2042 1.391 . S
H2044 C2052 0.950 . S
H2045 C2057 0.950 . S
H2046 C2054 0.950 . S
H2047 C2056 0.950 . S
H2048 C2058 0.950 . S
H2049 C2060 0.950 . S
H2050 C2062 0.950 1_655 S
H2051 C2063 0.950 . S
C2052 H2044 0.950 . S
C2052 C2053 1.386 . S
C2052 C2054 1.391 . S
C2053 C2052 1.386 . S
C2053 C2057 1.393 1_655 S
C2054 H2046 0.950 . S
C2054 C2052 1.391 . S
C2054 C2055 1.400 1_655 S
C2055 C2054 1.400 1_455 S
C2055 C2056 1.398 . S
C2055 C2061 1.491 . S
C2056 H2047 0.950 . S
C2056 C2055 1.398 . S
C2056 C2057 1.391 . S
C2057 H2045 0.950 . S
C2057 C2053 1.393 1_455 S
C2057 C2056 1.391 . S
C2058 H2048 0.950 . S
C2058 C2059 1.386 . S
C2058 C2060 1.391 . S
C2059 C2058 1.386 . S
C2059 C2063 1.393 . S
C2060 H2049 0.950 . S
C2060 C2058 1.391 . S
C2060 C2061 1.400 . S
C2061 C2055 1.491 . S
C2061 C2060 1.400 . S
C2061 C2062 1.398 . S
C2062 H2050 0.950 1_455 S
C2062 C2061 1.398 . S
C2062 C2063 1.391 . S
C2063 H2051 0.950 . S
C2063 C2059 1.393 . S
C2063 C2062 1.391 . S
H2064 C2072 0.950 . S
H2065 C2077 0.950 . S
H2066 C2074 0.950 . S
H2067 C2076 0.950 . S
H2068 C2078 0.950 . S
H2069 C2080 0.918 1_455 S
H2070 C2082 0.950 . S
H2071 C2083 0.950 . S
C2072 H2064 0.950 . S
C2072 C2073 1.386 1_655 S
C2072 C2074 1.391 . S
C2073 C2072 1.386 1_455 S
C2073 C2077 1.393 . S
C2074 H2066 0.950 . S
C2074 C2072 1.391 . S
C2074 C2075 1.400 . S
C2075 C2074 1.400 . S
C2075 C2076 1.398 1_655 S
C2075 C2081 1.491 . S
C2076 H2067 0.950 . S
C2076 C2075 1.398 1_455 S
C2076 C2077 1.391 . S
C2077 H2065 0.950 . S
C2077 C2073 1.393 . S
C2077 C2076 1.391 . S
C2078 H2068 0.950 . S
C2078 C2079 1.386 . S
C2078 C2080 1.391 . S
C2079 C2078 1.386 . S
C2079 C2083 1.393 . S
C2080 H2069 0.918 1_655 S
C2080 C2078 1.391 . S
C2080 C2081 1.400 . S
C2081 C2075 1.491 . S
C2081 C2080 1.400 . S
C2081 C2082 1.398 . S
C2082 H2070 0.950 . S
C2082 C2081 1.398 . S
C2082 C2083 1.391 . S
C2083 H2071 0.950 . S
C2083 C2079 1.393 . S
C2083 C2082 1.391 . S
H2084 C2092 0.950 . S
H2085 C2097 0.950 . S
H2086 C2094 0.950 . S
H2087 C2096 0.950 . S
H2088 C2098 0.950 . S
H2089 C2100 0.950 . S
H2090 C2102 0.950 . S
H2091 C2103 0.950 . S
C2092 H2084 0.950 . S
C2092 C2093 1.386 . S
C2092 C2094 1.391 . S
C2093 C2092 1.386 . S
C2093 C2097 1.393 . S
C2094 H2086 0.950 . S
C2094 C2092 1.391 . S
C2094 C2095 1.400 . S
C2095 C2094 1.400 . S
C2095 C2096 1.398 . S
C2095 C2101 1.491 . S
C2096 H2087 0.950 . S
C2096 C2095 1.398 . S
C2096 C2097 1.391 . S
C2097 H2085 0.950 . S
C2097 C2093 1.393 . S
C2097 C2096 1.391 . S
C2098 H2088 0.950 . S
C2098 C2099 1.386 . S
C2098 C2100 1.391 . S
C2099 C2098 1.386 . S
C2099 C2103 1.393 . S
C2100 H2089 0.950 . S
C2100 C2098 1.391 . S
C2100 C2101 1.400 . S
C2101 C2095 1.491 . S
C2101 C2100 1.400 . S
C2101 C2102 1.398 . S
C2102 H2090 0.950 . S
C2102 C2101 1.398 . S
C2102 C2103 1.391 . S
C2103 H2091 0.950 . S
C2103 C2099 1.393 . S
C2103 C2102 1.391 . S
H2104 C2112 0.950 . S
H2105 C2117 0.950 . S
H2106 C2114 0.950 . S
H2107 C2116 0.950 . S
H2108 C2118 0.950 . S
H2109 C2120 0.950 . S
H2110 C2122 0.950 . S
H2111 C2123 0.950 . S
C2112 H2104 0.950 . S
C2112 C2113 1.386 . S
C2112 C2114 1.391 . S
C2113 C2112 1.386 . S
C2113 C2117 1.393 . S
C2114 H2106 0.950 . S
C2114 C2112 1.391 . S
C2114 C2115 1.400 . S
C2115 C2114 1.400 . S
C2115 C2116 1.398 . S
C2115 C2121 1.491 . S
C2116 H2107 0.950 . S
C2116 C2115 1.398 . S
C2116 C2117 1.391 . S
C2117 H2105 0.950 . S
C2117 C2113 1.393 . S
C2117 C2116 1.391 . S
C2118 H2108 0.950 . S
C2118 C2119 1.386 . S
C2118 C2120 1.391 . S
C2119 C2118 1.386 . S
C2119 C2123 1.393 . S
C2120 H2109 0.950 . S
C2120 C2118 1.391 . S
C2120 C2121 1.400 . S
C2121 C2115 1.491 . S
C2121 C2120 1.400 . S
C2121 C2122 1.398 . S
C2122 H2110 0.950 . S
C2122 C2121 1.398 . S
C2122 C2123 1.391 . S
C2123 H2111 0.950 . S
C2123 C2119 1.393 . S
C2123 C2122 1.391 . S
H2124 C2132 0.950 . S
H2125 C2137 0.950 . S
H2126 C2134 0.950 . S
H2127 C2136 0.950 . S
H2128 C2138 0.949 . S
H2129 C2140 0.950 . S
H2130 C2142 0.950 . S
H2131 C2143 0.950 . S
C2132 H2124 0.950 . S
C2132 C2133 1.386 . S
C2132 C2134 1.391 . S
C2133 C2132 1.386 . S
C2133 C2137 1.393 . S
C2134 H2126 0.950 . S
C2134 C2132 1.391 . S
C2134 C2135 1.400 . S
C2135 C2134 1.400 . S
C2135 C2136 1.398 . S
C2135 C2141 1.491 . S
C2136 H2127 0.950 . S
C2136 C2135 1.398 . S
C2136 C2137 1.391 . S
C2137 H2125 0.950 . S
C2137 C2133 1.393 . S
C2137 C2136 1.391 . S
C2138 H2128 0.949 . S
C2138 C2139 1.383 1_545 S
C2138 C2140 1.394 . S
C2139 C2138 1.383 1_565 S
C2139 C2143 1.393 . S
C2140 H2129 0.950 . S
C2140 C2138 1.394 . S
C2140 C2141 1.400 . S
C2141 C2135 1.491 . S
C2141 C2140 1.400 . S
C2141 C2142 1.396 1_545 S
C2142 H2130 0.950 . S
C2142 C2141 1.396 1_565 S
C2142 C2143 1.392 . S
C2143 H2131 0.950 . S
C2143 C2139 1.393 . S
C2143 C2142 1.392 . S
H2144 C2152 0.950 . S
H2145 C2157 0.950 . S
H2146 C2154 0.950 . S
H2147 C2156 0.950 . S
H2148 C2158 0.950 . S
H2149 C2160 0.950 . S
H2150 C2162 0.950 . S
H2151 C2163 0.949 1_545 S
C2152 H2144 0.950 . S
C2152 C2153 1.386 . S
C2152 C2154 1.391 . S
C2153 C2152 1.386 . S
C2153 C2157 1.393 . S
C2154 H2146 0.950 . S
C2154 C2152 1.391 . S
C2154 C2155 1.400 . S
C2155 C2154 1.400 . S
C2155 C2156 1.398 . S
C2155 C2161 1.491 . S
C2156 H2147 0.950 . S
C2156 C2155 1.398 . S
C2156 C2157 1.391 . S
C2157 H2145 0.950 . S
C2157 C2153 1.393 . S
C2157 C2156 1.391 . S
C2158 H2148 0.950 . S
C2158 C2159 1.386 . S
C2158 C2160 1.391 1_545 S
C2159 C2158 1.386 . S
C2159 C2163 1.376 1_545 S
C2160 H2149 0.950 . S
C2160 C2158 1.391 1_565 S
C2160 C2161 1.400 . S
C2161 C2155 1.491 . S
C2161 C2160 1.400 . S
C2161 C2162 1.398 . S
C2162 H2150 0.950 . S
C2162 C2161 1.398 . S
C2162 C2163 1.409 . S
C2163 H2151 0.949 1_565 S
C2163 C2159 1.376 1_565 S
C2163 C2162 1.409 . S
H2164 C2172 0.950 . S
H2165 C2177 0.950 . S
H2166 C2174 0.950 . S
H2167 C2176 0.950 . S
H2168 C2178 0.950 . S
H2169 C2180 0.950 . S
H2170 C2182 0.950 . S
H2171 C2183 0.950 . S
C2172 H2164 0.950 . S
C2172 C2173 1.386 . S
C2172 C2174 1.391 . S
C2173 C2172 1.386 . S
C2173 C2177 1.393 . S
C2174 H2166 0.950 . S
C2174 C2172 1.391 . S
C2174 C2175 1.400 . S
C2175 C2174 1.400 . S
C2175 C2176 1.398 . S
C2175 C2181 1.491 . S
C2176 H2167 0.950 . S
C2176 C2175 1.398 . S
C2176 C2177 1.391 . S
C2177 H2165 0.950 . S
C2177 C2173 1.393 . S
C2177 C2176 1.391 . S
C2178 H2168 0.950 . S
C2178 C2179 1.386 . S
C2178 C2180 1.391 . S
C2179 C2178 1.386 . S
C2179 C2183 1.393 . S
C2180 H2169 0.950 . S
C2180 C2178 1.391 . S
C2180 C2181 1.400 . S
C2181 C2175 1.491 . S
C2181 C2180 1.400 . S
C2181 C2182 1.398 . S
C2182 H2170 0.950 . S
C2182 C2181 1.398 . S
C2182 C2183 1.391 . S
C2183 H2171 0.950 . S
C2183 C2179 1.393 . S
C2183 C2182 1.391 . S
H2184 C2192 0.950 . S
H2185 C2197 0.950 . S
H2186 C2194 0.950 . S
H2187 C2196 0.950 . S
H2188 C2198 0.950 . S
H2189 C2200 0.950 . S
H2190 C2202 0.950 . S
H2191 C2203 0.950 . S
C2192 H2184 0.950 . S
C2192 C2193 1.386 . S
C2192 C2194 1.391 . S
C2193 C2192 1.386 . S
C2193 C2197 1.393 . S
C2194 H2186 0.950 . S
C2194 C2192 1.391 . S
C2194 C2195 1.400 . S
C2195 C2194 1.400 . S
C2195 C2196 1.398 . S
C2195 C2201 1.491 . S
C2196 H2187 0.950 . S
C2196 C2195 1.398 . S
C2196 C2197 1.391 . S
C2197 H2185 0.950 . S
C2197 C2193 1.393 . S
C2197 C2196 1.391 . S
C2198 H2188 0.950 . S
C2198 C2199 1.386 . S
C2198 C2200 1.391 . S
C2199 C2198 1.386 . S
C2199 C2203 1.393 . S
C2200 H2189 0.950 . S
C2200 C2198 1.391 . S
C2200 C2201 1.400 . S
C2201 C2195 1.491 . S
C2201 C2200 1.400 . S
C2201 C2202 1.398 . S
C2202 H2190 0.950 . S
C2202 C2201 1.398 . S
C2202 C2203 1.391 . S
C2203 H2191 0.950 . S
C2203 C2199 1.393 . S
C2203 C2202 1.391 . S
H2204 C2212 0.950 . S
H2205 C2217 0.950 . S
H2206 C2214 0.950 . S
H2207 C2216 0.950 . S
H2208 C2218 0.950 . S
H2209 C2220 0.950 . S
H2210 C2222 0.950 . S
H2211 C2223 0.950 . S
C2212 H2204 0.950 . S
C2212 C2213 1.386 . S
C2212 C2214 1.391 . S
C2213 C2212 1.386 . S
C2213 C2217 1.393 . S
C2214 H2206 0.950 . S
C2214 C2212 1.391 . S
C2214 C2215 1.400 . S
C2215 C2214 1.400 . S
C2215 C2216 1.398 . S
C2215 C2221 1.491 . S
C2216 H2207 0.950 . S
C2216 C2215 1.398 . S
C2216 C2217 1.391 . S
C2217 H2205 0.950 . S
C2217 C2213 1.393 . S
C2217 C2216 1.391 . S
C2218 H2208 0.950 . S
C2218 C2219 1.386 . S
C2218 C2220 1.391 . S
C2219 C2218 1.386 . S
C2219 C2223 1.393 1_556 S
C2220 H2209 0.950 . S
C2220 C2218 1.391 . S
C2220 C2221 1.400 1_556 S
C2221 C2215 1.491 . S
C2221 C2220 1.400 1_554 S
C2221 C2222 1.398 . S
C2222 H2210 0.950 . S
C2222 C2221 1.398 . S
C2222 C2223 1.391 . S
C2223 H2211 0.950 . S
C2223 C2219 1.393 1_554 S
C2223 C2222 1.391 . S
H2224 C2232 0.950 . S
H2225 C2237 0.950 . S
H2226 C2234 0.950 . S
H2227 C2236 0.950 . S
H2228 C2238 0.950 . S
H2229 C2240 0.950 . S
H2230 C2242 0.950 . S
H2231 C2243 0.950 . S
C2232 H2224 0.950 . S
C2232 C2233 1.386 . S
C2232 C2234 1.391 . S
C2233 C2232 1.386 . S
C2233 C2237 1.393 . S
C2234 H2226 0.950 . S
C2234 C2232 1.391 . S
C2234 C2235 1.400 . S
C2235 C2234 1.400 . S
C2235 C2236 1.398 . S
C2235 C2241 1.491 . S
C2236 H2227 0.950 . S
C2236 C2235 1.398 . S
C2236 C2237 1.391 . S
C2237 H2225 0.950 . S
C2237 C2233 1.393 . S
C2237 C2236 1.391 . S
C2238 H2228 0.950 . S
C2238 C2239 1.386 . S
C2238 C2240 1.391 . S
C2239 C2238 1.386 . S
C2239 C2243 1.393 . S
C2240 H2229 0.950 . S
C2240 C2238 1.391 . S
C2240 C2241 1.400 . S
C2241 C2235 1.491 . S
C2241 C2240 1.400 . S
C2241 C2242 1.398 . S
C2242 H2230 0.950 . S
C2242 C2241 1.398 . S
C2242 C2243 1.391 . S
C2243 H2231 0.950 . S
C2243 C2239 1.393 . S
C2243 C2242 1.391 . S
H2244 C2252 0.950 . S
H2245 C2257 0.950 . S
H2246 C2254 0.950 . S
H2247 C2256 0.950 . S
H2248 C2258 0.950 . S
H2249 C2260 0.950 . S
H2250 C2262 0.950 . S
H2251 C2263 0.950 . S
C2252 H2244 0.950 . S
C2252 C2253 1.386 . S
C2252 C2254 1.391 . S
C2253 C2252 1.386 . S
C2253 C2257 1.393 . S
C2254 H2246 0.950 . S
C2254 C2252 1.391 . S
C2254 C2255 1.400 . S
C2255 C2254 1.400 . S
C2255 C2256 1.398 . S
C2255 C2261 1.491 . S
C2256 H2247 0.950 . S
C2256 C2255 1.398 . S
C2256 C2257 1.391 . S
C2257 H2245 0.950 . S
C2257 C2253 1.393 . S
C2257 C2256 1.391 . S
C2258 H2248 0.950 . S
C2258 C2259 1.386 . S
C2258 C2260 1.391 1_554 S
C2259 C2258 1.386 . S
C2259 C2263 1.393 . S
C2260 H2249 0.950 . S
C2260 C2258 1.391 1_556 S
C2260 C2261 1.400 . S
C2261 C2255 1.491 . S
C2261 C2260 1.400 . S
C2261 C2262 1.398 . S
C2262 H2250 0.950 . S
C2262 C2261 1.398 . S
C2262 C2263 1.391 1_556 S
C2263 H2251 0.950 . S
C2263 C2259 1.393 . S
C2263 C2262 1.391 1_554 S
H2264 C2272 0.950 . S
H2265 C2277 0.950 . S
H2266 C2274 0.950 . S
H2267 C2276 0.950 . S
H2268 C2278 0.950 . S
H2269 C2280 0.950 . S
H2270 C2282 0.950 . S
H2271 C2283 0.950 . S
C2272 H2264 0.950 . S
C2272 C2273 1.386 . S
C2272 C2274 1.391 . S
C2273 C2272 1.386 . S
C2273 C2277 1.393 . S
C2274 H2266 0.950 . S
C2274 C2272 1.391 . S
C2274 C2275 1.400 . S
C2275 C2274 1.400 . S
C2275 C2276 1.398 . S
C2275 C2281 1.491 . S
C2276 H2267 0.950 . S
C2276 C2275 1.398 . S
C2276 C2277 1.391 . S
C2277 H2265 0.950 . S
C2277 C2273 1.393 . S
C2277 C2276 1.391 . S
C2278 H2268 0.950 . S
C2278 C2279 1.386 . S
C2278 C2280 1.391 . S
C2279 C2278 1.386 . S
C2279 C2283 1.393 . S
C2280 H2269 0.950 . S
C2280 C2278 1.391 . S
C2280 C2281 1.400 . S
C2281 C2275 1.491 . S
C2281 C2280 1.400 . S
C2281 C2282 1.398 . S
C2282 H2270 0.950 . S
C2282 C2281 1.398 . S
C2282 C2283 1.391 . S
C2283 H2271 0.950 . S
C2283 C2279 1.393 . S
C2283 C2282 1.391 . S
H2284 C2292 0.950 . S
H2285 C2297 0.950 . S
H2286 C2294 0.950 . S
H2287 C2296 0.950 . S
H2288 C2298 0.950 . S
H2289 C2300 0.950 . S
H2290 C2302 0.950 . S
H2291 C2303 0.950 . S
C2292 H2284 0.950 . S
C2292 C2293 1.386 . S
C2292 C2294 1.391 . S
C2293 C2292 1.386 . S
C2293 C2297 1.393 . S
C2294 H2286 0.950 . S
C2294 C2292 1.391 . S
C2294 C2295 1.400 . S
C2295 C2294 1.400 . S
C2295 C2296 1.398 . S
C2295 C2301 1.491 . S
C2296 H2287 0.950 . S
C2296 C2295 1.398 . S
C2296 C2297 1.391 . S
C2297 H2285 0.950 . S
C2297 C2293 1.393 . S
C2297 C2296 1.391 . S
C2298 H2288 0.950 . S
C2298 C2299 1.386 1_655 S
C2298 C2300 1.391 . S
C2299 C2298 1.386 1_455 S
C2299 C2303 1.393 . S
C2300 H2289 0.950 . S
C2300 C2298 1.391 . S
C2300 C2301 1.400 . S
C2301 C2295 1.491 . S
C2301 C2300 1.400 . S
C2301 C2302 1.398 1_655 S
C2302 H2290 0.950 . S
C2302 C2301 1.398 1_455 S
C2302 C2303 1.391 . S
C2303 H2291 0.950 . S
C2303 C2299 1.393 . S
C2303 C2302 1.391 . S
H2304 C2312 0.950 . S
H2305 C2317 0.950 . S
H2306 C2314 0.950 . S
H2307 C2316 0.950 . S
H2308 C2318 0.950 . S
H2309 C2320 0.950 . S
H2310 C2322 0.950 . S
H2311 C2323 0.950 . S
C2312 H2304 0.950 . S
C2312 C2313 1.386 1_455 S
C2312 C2314 1.391 . S
C2313 C2312 1.386 1_655 S
C2313 C2317 1.393 . S
C2314 H2306 0.950 . S
C2314 C2312 1.391 . S
C2314 C2315 1.400 . S
C2315 C2314 1.400 . S
C2315 C2316 1.398 1_455 S
C2315 C2321 1.491 . S
C2316 H2307 0.950 . S
C2316 C2315 1.398 1_655 S
C2316 C2317 1.391 . S
C2317 H2305 0.950 . S
C2317 C2313 1.393 . S
C2317 C2316 1.391 . S
C2318 H2308 0.950 . S
C2318 C2319 1.386 . S
C2318 C2320 1.391 . S
C2319 C2318 1.386 . S
C2319 C2323 1.393 . S
C2320 H2309 0.950 . S
C2320 C2318 1.391 . S
C2320 C2321 1.400 . S
C2321 C2315 1.491 . S
C2321 C2320 1.400 . S
C2321 C2322 1.398 . S
C2322 H2310 0.950 . S
C2322 C2321 1.398 . S
C2322 C2323 1.391 . S
C2323 H2311 0.950 . S
C2323 C2319 1.393 . S
C2323 C2322 1.391 . S
H2324 C2332 0.950 . S
H2325 C2337 0.950 . S
H2326 C2334 0.950 . S
H2327 C2336 0.950 . S
H2328 C2338 0.950 . S
H2329 C2340 0.950 . S
H2330 C2342 0.950 . S
H2331 C2343 0.950 . S
C2332 H2324 0.950 . S
C2332 C2333 1.386 . S
C2332 C2334 1.391 . S
C2333 C2332 1.386 . S
C2333 C2337 1.393 . S
C2334 H2326 0.950 . S
C2334 C2332 1.391 . S
C2334 C2335 1.400 . S
C2335 C2334 1.400 . S
C2335 C2336 1.398 . S
C2335 C2341 1.491 . S
C2336 H2327 0.950 . S
C2336 C2335 1.398 . S
C2336 C2337 1.391 . S
C2337 H2325 0.950 . S
C2337 C2333 1.393 . S
C2337 C2336 1.391 . S
C2338 H2328 0.950 . S
C2338 C2339 1.386 . S
C2338 C2340 1.391 . S
C2339 C2338 1.386 . S
C2339 C2343 1.393 . S
C2340 H2329 0.950 . S
C2340 C2338 1.391 . S
C2340 C2341 1.400 . S
C2341 C2335 1.491 . S
C2341 C2340 1.400 . S
C2341 C2342 1.398 . S
C2342 H2330 0.950 . S
C2342 C2341 1.398 . S
C2342 C2343 1.391 . S
C2343 H2331 0.950 . S
C2343 C2339 1.393 . S
C2343 C2342 1.391 . S
H2344 C2352 0.950 . S
H2345 C2357 0.950 . S
H2346 C2354 0.950 . S
H2347 C2356 0.950 . S
H2348 C2358 0.950 . S
H2349 C2360 0.950 . S
H2350 C2362 0.950 . S
H2351 C2363 0.950 . S
C2352 H2344 0.950 . S
C2352 C2353 1.386 . S
C2352 C2354 1.391 . S
C2353 C2352 1.386 . S
C2353 C2357 1.393 . S
C2354 H2346 0.950 . S
C2354 C2352 1.391 . S
C2354 C2355 1.400 . S
C2355 C2354 1.400 . S
C2355 C2356 1.398 . S
C2355 C2361 1.491 . S
C2356 H2347 0.950 . S
C2356 C2355 1.398 . S
C2356 C2357 1.391 . S
C2357 H2345 0.950 . S
C2357 C2353 1.393 . S
C2357 C2356 1.391 . S
C2358 H2348 0.950 . S
C2358 C2359 1.386 . S
C2358 C2360 1.391 . S
C2359 C2358 1.386 . S
C2359 C2363 1.393 . S
C2360 H2349 0.950 . S
C2360 C2358 1.391 . S
C2360 C2361 1.400 . S
C2361 C2355 1.491 . S
C2361 C2360 1.400 . S
C2361 C2362 1.398 . S
C2362 H2350 0.950 . S
C2362 C2361 1.398 . S
C2362 C2363 1.391 . S
C2363 H2351 0.950 . S
C2363 C2359 1.393 . S
C2363 C2362 1.391 . S
H2364 C2372 0.950 . S
H2365 C2377 0.950 . S
H2366 C2374 0.950 . S
H2367 C2376 0.950 . S
H2368 C2378 0.949 1_545 S
H2369 C2380 0.950 . S
H2370 C2382 0.950 . S
H2371 C2383 0.950 . S
C2372 H2364 0.950 . S
C2372 C2373 1.386 . S
C2372 C2374 1.391 . S
C2373 C2372 1.386 . S
C2373 C2377 1.393 . S
C2374 H2366 0.950 . S
C2374 C2372 1.391 . S
C2374 C2375 1.400 . S
C2375 C2374 1.400 . S
C2375 C2376 1.398 . S
C2375 C2381 1.491 . S
C2376 H2367 0.950 . S
C2376 C2375 1.398 . S
C2376 C2377 1.391 . S
C2377 H2365 0.950 . S
C2377 C2373 1.393 . S
C2377 C2376 1.391 . S
C2378 H2368 0.949 1_565 S
C2378 C2379 1.385 1_565 S
C2378 C2380 1.392 . S
C2379 C2378 1.385 1_545 S
C2379 C2383 1.393 . S
C2380 H2369 0.950 . S
C2380 C2378 1.392 . S
C2380 C2381 1.400 . S
C2381 C2375 1.491 . S
C2381 C2380 1.400 . S
C2381 C2382 1.398 . S
C2382 H2370 0.950 . S
C2382 C2381 1.398 . S
C2382 C2383 1.391 1_565 S
C2383 H2371 0.950 . S
C2383 C2379 1.393 . S
C2383 C2382 1.391 1_545 S
H2384 C2392 0.950 . S
H2385 C2397 0.950 . S
H2386 C2394 0.950 . S
H2387 C2396 0.950 . S
H2388 C2398 0.950 . S
H2389 C2400 0.950 . S
H2390 C2402 0.950 . S
H2391 C2403 0.950 . S
C2392 H2384 0.950 . S
C2392 C2393 1.386 1_545 S
C2392 C2394 1.391 . S
C2393 C2392 1.386 1_565 S
C2393 C2397 1.393 . S
C2394 H2386 0.950 . S
C2394 C2392 1.391 . S
C2394 C2395 1.400 . S
C2395 C2394 1.400 . S
C2395 C2396 1.398 1_545 S
C2395 C2401 1.491 . S
C2396 H2387 0.950 . S
C2396 C2395 1.398 1_565 S
C2396 C2397 1.391 . S
C2397 H2385 0.950 . S
C2397 C2393 1.393 . S
C2397 C2396 1.391 . S
C2398 H2388 0.950 . S
C2398 C2399 1.386 . S
C2398 C2400 1.391 . S
C2399 C2398 1.386 . S
C2399 C2403 1.393 . S
C2400 H2389 0.950 . S
C2400 C2398 1.391 . S
C2400 C2401 1.400 . S
C2401 C2395 1.491 . S
C2401 C2400 1.400 . S
C2401 C2402 1.398 . S
C2402 H2390 0.950 . S
C2402 C2401 1.398 . S
C2402 C2403 1.391 . S
C2403 H2391 0.950 . S
C2403 C2399 1.393 . S
C2403 C2402 1.391 . S
H2404 C2412 0.950 . S
H2405 C2417 0.950 . S
H2406 C2414 0.950 . S
H2407 C2416 0.950 . S
H2408 C2418 0.950 . S
H2409 C2420 0.950 . S
H2410 C2422 0.950 . S
H2411 C2423 0.950 . S
C2412 H2404 0.950 . S
C2412 C2413 1.386 . S
C2412 C2414 1.391 . S
C2413 C2412 1.386 . S
C2413 C2417 1.393 . S
C2414 H2406 0.950 . S
C2414 C2412 1.391 . S
C2414 C2415 1.400 . S
C2415 C2414 1.400 . S
C2415 C2416 1.398 . S
C2415 C2421 1.491 . S
C2416 H2407 0.950 . S
C2416 C2415 1.398 . S
C2416 C2417 1.391 . S
C2417 H2405 0.950 . S
C2417 C2413 1.393 . S
C2417 C2416 1.391 . S
C2418 H2408 0.950 . S
C2418 C2419 1.386 . S
C2418 C2420 1.391 . S
C2419 C2418 1.386 . S
C2419 C2423 1.393 . S
C2420 H2409 0.950 . S
C2420 C2418 1.391 . S
C2420 C2421 1.400 . S
C2421 C2415 1.491 . S
C2421 C2420 1.400 . S
C2421 C2422 1.398 . S
C2422 H2410 0.950 . S
C2422 C2421 1.398 . S
C2422 C2423 1.391 . S
C2423 H2411 0.950 . S
C2423 C2419 1.393 . S
C2423 C2422 1.391 . S
H2424 C2432 0.950 . S
H2425 C2437 0.950 . S
H2426 C2434 0.950 . S
H2427 C2436 0.950 . S
H2428 C2438 0.950 . S
H2429 C2440 0.950 . S
H2430 C2442 0.950 . S
H2431 C2443 0.950 . S
C2432 H2424 0.950 . S
C2432 C2433 1.386 . S
C2432 C2434 1.391 . S
C2433 C2432 1.386 . S
C2433 C2437 1.393 . S
C2434 H2426 0.950 . S
C2434 C2432 1.391 . S
C2434 C2435 1.400 . S
C2435 C2434 1.400 . S
C2435 C2436 1.398 . S
C2435 C2441 1.491 . S
C2436 H2427 0.950 . S
C2436 C2435 1.398 . S
C2436 C2437 1.391 . S
C2437 H2425 0.950 . S
C2437 C2433 1.393 . S
C2437 C2436 1.391 . S
C2438 H2428 0.950 . S
C2438 C2439 1.386 . S
C2438 C2440 1.391 . S
C2439 C2438 1.386 . S
C2439 C2443 1.393 . S
C2440 H2429 0.950 . S
C2440 C2438 1.391 . S
C2440 C2441 1.400 . S
C2441 C2435 1.491 . S
C2441 C2440 1.400 . S
C2441 C2442 1.398 . S
C2442 H2430 0.950 . S
C2442 C2441 1.398 . S
C2442 C2443 1.391 . S
C2443 H2431 0.950 . S
C2443 C2439 1.393 . S
C2443 C2442 1.391 . S
H2444 C2452 0.950 . S
H2445 C2457 0.950 . S
H2446 C2454 0.950 . S
H2447 C2456 0.950 . S
H2448 C2458 0.950 . S
H2449 C2460 0.950 . S
H2450 C2462 0.950 . S
H2451 C2463 0.950 . S
C2452 H2444 0.950 . S
C2452 C2453 1.386 1_556 S
C2452 C2454 1.391 . S
C2453 C2452 1.386 1_554 S
C2453 C2457 1.393 . S
C2454 H2446 0.950 . S
C2454 C2452 1.391 . S
C2454 C2455 1.400 . S
C2455 C2454 1.400 . S
C2455 C2456 1.398 1_556 S
C2455 C2461 1.491 . S
C2456 H2447 0.950 . S
C2456 C2455 1.398 1_554 S
C2456 C2457 1.391 . S
C2457 H2445 0.950 . S
C2457 C2453 1.393 . S
C2457 C2456 1.391 . S
C2458 H2448 0.950 . S
C2458 C2459 1.386 . S
C2458 C2460 1.391 . S
C2459 C2458 1.386 . S
C2459 C2463 1.393 . S
C2460 H2449 0.950 . S
C2460 C2458 1.391 . S
C2460 C2461 1.400 . S
C2461 C2455 1.491 . S
C2461 C2460 1.400 . S
C2461 C2462 1.398 . S
C2462 H2450 0.950 . S
C2462 C2461 1.398 . S
C2462 C2463 1.391 . S
C2463 H2451 0.950 . S
C2463 C2459 1.393 . S
C2463 C2462 1.391 . S
H2464 C2472 0.950 . S
H2465 C2477 0.950 . S
H2466 C2474 0.950 . S
H2467 C2476 0.950 . S
H2468 C2478 0.950 . S
H2469 C2480 0.950 . S
H2470 C2482 0.950 . S
H2471 C2483 0.950 . S
C2472 H2464 0.950 . S
C2472 C2473 1.386 . S
C2472 C2474 1.391 . S
C2473 C2472 1.386 . S
C2473 C2477 1.393 . S
C2474 H2466 0.950 . S
C2474 C2472 1.391 . S
C2474 C2475 1.400 . S
C2475 C2474 1.400 . S
C2475 C2476 1.398 . S
C2475 C2481 1.491 . S
C2476 H2467 0.950 . S
C2476 C2475 1.398 . S
C2476 C2477 1.391 . S
C2477 H2465 0.950 . S
C2477 C2473 1.393 . S
C2477 C2476 1.391 . S
C2478 H2468 0.950 . S
C2478 C2479 1.386 . S
C2478 C2480 1.391 . S
C2479 C2478 1.386 . S
C2479 C2483 1.393 . S
C2480 H2469 0.950 . S
C2480 C2478 1.391 . S
C2480 C2481 1.400 . S
C2481 C2475 1.491 . S
C2481 C2480 1.400 . S
C2481 C2482 1.398 . S
C2482 H2470 0.950 . S
C2482 C2481 1.398 . S
C2482 C2483 1.391 . S
C2483 H2471 0.950 . S
C2483 C2479 1.393 . S
C2483 C2482 1.391 . S
H2484 C2492 0.950 . S
H2485 C2497 0.950 . S
H2486 C2494 0.950 . S
H2487 C2496 0.950 . S
H2488 C2498 0.950 . S
H2489 C2500 0.950 . S
H2490 C2502 0.950 . S
H2491 C2503 0.950 . S
C2492 H2484 0.950 . S
C2492 C2493 1.386 . S
C2492 C2494 1.391 . S
C2493 C2492 1.386 . S
C2493 C2497 1.393 . S
C2494 H2486 0.950 . S
C2494 C2492 1.391 . S
C2494 C2495 1.400 . S
C2495 C2494 1.400 . S
C2495 C2496 1.398 . S
C2495 C2501 1.491 . S
C2496 H2487 0.950 . S
C2496 C2495 1.398 . S
C2496 C2497 1.391 . S
C2497 H2485 0.950 . S
C2497 C2493 1.393 . S
C2497 C2496 1.391 . S
C2498 H2488 0.950 . S
C2498 C2499 1.386 1_554 S
C2498 C2500 1.391 . S
C2499 C2498 1.386 1_556 S
C2499 C2503 1.393 . S
C2500 H2489 0.950 . S
C2500 C2498 1.391 . S
C2500 C2501 1.400 . S
C2501 C2495 1.491 . S
C2501 C2500 1.400 . S
C2501 C2502 1.398 1_554 S
C2502 H2490 0.950 . S
C2502 C2501 1.398 1_556 S
C2502 C2503 1.391 . S
C2503 H2491 0.950 . S
C2503 C2499 1.393 . S
C2503 C2502 1.391 . S
H2504 C2512 0.950 . S
H2505 C2517 0.950 . S
H2506 C2514 0.950 . S
H2507 C2516 0.950 . S
H2508 C2518 0.950 . S
H2509 C2520 0.950 . S
H2510 C2522 0.950 . S
H2511 C2523 0.950 . S
C2512 H2504 0.950 . S
C2512 C2513 1.386 . S
C2512 C2514 1.391 . S
C2513 C2512 1.386 . S
C2513 C2517 1.393 . S
C2514 H2506 0.950 . S
C2514 C2512 1.391 . S
C2514 C2515 1.400 . S
C2515 C2514 1.400 . S
C2515 C2516 1.398 . S
C2515 C2521 1.491 . S
C2516 H2507 0.950 . S
C2516 C2515 1.398 . S
C2516 C2517 1.391 . S
C2517 H2505 0.950 . S
C2517 C2513 1.393 . S
C2517 C2516 1.391 . S
C2518 H2508 0.950 . S
C2518 C2519 1.386 . S
C2518 C2520 1.391 . S
C2519 C2518 1.386 . S
C2519 C2523 1.393 . S
C2520 H2509 0.950 . S
C2520 C2518 1.391 . S
C2520 C2521 1.400 . S
C2521 C2515 1.491 . S
C2521 C2520 1.400 . S
C2521 C2522 1.398 . S
C2522 H2510 0.950 . S
C2522 C2521 1.398 . S
C2522 C2523 1.391 . S
C2523 H2511 0.950 . S
C2523 C2519 1.393 . S
C2523 C2522 1.391 . S
H2524 C2532 0.950 . S
H2525 C2537 0.950 . S
H2526 C2534 0.950 . S
H2527 C2536 0.950 . S
H2528 C2538 0.950 . S
H2529 C2540 0.950 . S
H2530 C2542 0.950 . S
H2531 C2543 0.950 . S
C2532 H2524 0.950 . S
C2532 C2533 1.386 1_455 S
C2532 C2534 1.391 . S
C2533 C2532 1.386 1_655 S
C2533 C2537 1.393 . S
C2534 H2526 0.950 . S
C2534 C2532 1.391 . S
C2534 C2535 1.400 . S
C2535 C2534 1.400 . S
C2535 C2536 1.398 1_455 S
C2535 C2541 1.491 . S
C2536 H2527 0.950 . S
C2536 C2535 1.398 1_655 S
C2536 C2537 1.391 . S
C2537 H2525 0.950 . S
C2537 C2533 1.393 . S
C2537 C2536 1.391 . S
C2538 H2528 0.950 . S
C2538 C2539 1.386 . S
C2538 C2540 1.391 . S
C2539 C2538 1.386 . S
C2539 C2543 1.393 . S
C2540 H2529 0.950 . S
C2540 C2538 1.391 . S
C2540 C2541 1.400 . S
C2541 C2535 1.491 . S
C2541 C2540 1.400 . S
C2541 C2542 1.398 . S
C2542 H2530 0.950 . S
C2542 C2541 1.398 . S
C2542 C2543 1.391 . S
C2543 H2531 0.950 . S
C2543 C2539 1.393 . S
C2543 C2542 1.391 . S
H2544 C2552 0.950 . S
H2545 C2557 0.950 . S
H2546 C2554 0.950 . S
H2547 C2556 0.950 . S
H2548 C2558 0.950 . S
H2549 C2560 0.950 . S
H2550 C2562 0.950 . S
H2551 C2563 0.950 . S
C2552 H2544 0.950 . S
C2552 C2553 1.386 1_655 S
C2552 C2554 1.391 . S
C2553 C2552 1.386 1_455 S
C2553 C2557 1.393 . S
C2554 H2546 0.950 . S
C2554 C2552 1.391 . S
C2554 C2555 1.400 . S
C2555 C2554 1.400 . S
C2555 C2556 1.398 1_655 S
C2555 C2561 1.491 . S
C2556 H2547 0.950 . S
C2556 C2555 1.398 1_455 S
C2556 C2557 1.391 . S
C2557 H2545 0.950 . S
C2557 C2553 1.393 . S
C2557 C2556 1.391 . S
C2558 H2548 0.950 . S
C2558 C2559 1.386 . S
C2558 C2560 1.391 . S
C2559 C2558 1.386 . S
C2559 C2563 1.393 . S
C2560 H2549 0.950 . S
C2560 C2558 1.391 . S
C2560 C2561 1.400 . S
C2561 C2555 1.491 . S
C2561 C2560 1.400 . S
C2561 C2562 1.398 . S
C2562 H2550 0.950 . S
C2562 C2561 1.398 . S
C2562 C2563 1.391 . S
C2563 H2551 0.950 . S
C2563 C2559 1.393 . S
C2563 C2562 1.391 . S
H2564 C2572 0.950 . S
H2565 C2577 0.950 . S
H2566 C2574 0.950 . S
H2567 C2576 0.950 . S
H2568 C2578 0.950 . S
H2569 C2580 0.950 . S
H2570 C2582 0.950 . S
H2571 C2583 0.950 . S
C2572 H2564 0.950 . S
C2572 C2573 1.386 . S
C2572 C2574 1.391 . S
C2573 C2572 1.386 . S
C2573 C2577 1.393 . S
C2574 H2566 0.950 . S
C2574 C2572 1.391 . S
C2574 C2575 1.400 . S
C2575 C2574 1.400 . S
C2575 C2576 1.398 . S
C2575 C2581 1.491 . S
C2576 H2567 0.950 . S
C2576 C2575 1.398 . S
C2576 C2577 1.391 . S
C2577 H2565 0.950 . S
C2577 C2573 1.393 . S
C2577 C2576 1.391 . S
C2578 H2568 0.950 . S
C2578 C2579 1.386 . S
C2578 C2580 1.391 . S
C2579 C2578 1.386 . S
C2579 C2583 1.393 . S
C2580 H2569 0.950 . S
C2580 C2578 1.391 . S
C2580 C2581 1.400 . S
C2581 C2575 1.491 . S
C2581 C2580 1.400 . S
C2581 C2582 1.398 . S
C2582 H2570 0.950 . S
C2582 C2581 1.398 . S
C2582 C2583 1.391 . S
C2583 H2571 0.950 . S
C2583 C2579 1.393 . S
C2583 C2582 1.391 . S
H2584 C2592 0.950 . S
H2585 C2597 0.950 . S
H2586 C2594 0.950 . S
H2587 C2596 0.950 . S
H2588 C2598 0.950 . S
H2589 C2600 0.950 . S
H2590 C2602 0.950 . S
H2591 C2603 0.950 . S
C2592 H2584 0.950 . S
C2592 C2593 1.386 . S
C2592 C2594 1.391 . S
C2593 C2592 1.386 . S
C2593 C2597 1.393 . S
C2594 H2586 0.950 . S
C2594 C2592 1.391 . S
C2594 C2595 1.400 . S
C2595 C2594 1.400 . S
C2595 C2596 1.398 . S
C2595 C2601 1.491 . S
C2596 H2587 0.950 . S
C2596 C2595 1.398 . S
C2596 C2597 1.391 . S
C2597 H2585 0.950 . S
C2597 C2593 1.393 . S
C2597 C2596 1.391 . S
C2598 H2588 0.950 . S
C2598 C2599 1.386 . S
C2598 C2600 1.391 . S
C2599 C2598 1.386 . S
C2599 C2603 1.393 . S
C2600 H2589 0.950 . S
C2600 C2598 1.391 . S
C2600 C2601 1.400 . S
C2601 C2595 1.491 . S
C2601 C2600 1.400 . S
C2601 C2602 1.398 . S
C2602 H2590 0.950 . S
C2602 C2601 1.398 . S
C2602 C2603 1.391 . S
C2603 H2591 0.950 . S
C2603 C2599 1.393 . S
C2603 C2602 1.391 . S
H2604 C2612 0.950 . S
H2605 C2617 0.950 . S
H2606 C2614 0.950 . S
H2607 C2616 0.950 . S
H2608 C2618 0.950 . S
H2609 C2620 0.950 . S
H2610 C2622 0.950 . S
H2611 C2623 0.950 . S
C2612 H2604 0.950 . S
C2612 C2613 1.386 . S
C2612 C2614 1.391 . S
C2613 C2612 1.386 . S
C2613 C2617 1.393 1_565 S
C2614 H2606 0.950 . S
C2614 C2612 1.391 . S
C2614 C2615 1.400 1_565 S
C2615 C2614 1.400 1_545 S
C2615 C2616 1.398 . S
C2615 C2621 1.491 . S
C2616 H2607 0.950 . S
C2616 C2615 1.398 . S
C2616 C2617 1.391 . S
C2617 H2605 0.950 . S
C2617 C2613 1.393 1_545 S
C2617 C2616 1.391 . S
C2618 H2608 0.950 . S
C2618 C2619 1.386 . S
C2618 C2620 1.391 . S
C2619 C2618 1.386 . S
C2619 C2623 1.393 . S
C2620 H2609 0.950 . S
C2620 C2618 1.391 . S
C2620 C2621 1.400 . S
C2621 C2615 1.491 . S
C2621 C2620 1.400 . S
C2621 C2622 1.398 . S
C2622 H2610 0.950 . S
C2622 C2621 1.398 . S
C2622 C2623 1.391 . S
C2623 H2611 0.950 . S
C2623 C2619 1.393 . S
C2623 C2622 1.391 . S
H2624 C2632 0.950 . S
H2625 C2637 0.952 . S
H2626 C2634 0.950 . S
H2627 C2636 0.950 . S
H2628 C2638 0.950 . S
H2629 C2640 0.950 . S
H2630 C2642 0.950 . S
H2631 C2643 0.950 . S
C2632 H2624 0.950 . S
C2632 C2633 1.386 . S
C2632 C2634 1.391 . S
C2633 C2632 1.386 . S
C2633 C2637 1.374 1_545 S
C2634 H2626 0.950 . S
C2634 C2632 1.391 . S
C2634 C2635 1.400 1_545 S
C2635 C2634 1.400 1_565 S
C2635 C2636 1.398 . S
C2635 C2641 1.491 . S
C2636 H2627 0.950 . S
C2636 C2635 1.398 . S
C2636 C2637 1.409 . S
C2637 H2625 0.952 . S
C2637 C2633 1.374 1_565 S
C2637 C2636 1.409 . S
C2638 H2628 0.950 . S
C2638 C2639 1.386 . S
C2638 C2640 1.391 . S
C2639 C2638 1.386 . S
C2639 C2643 1.393 . S
C2640 H2629 0.950 . S
C2640 C2638 1.391 . S
C2640 C2641 1.400 . S
C2641 C2635 1.491 . S
C2641 C2640 1.400 . S
C2641 C2642 1.398 . S
C2642 H2630 0.950 . S
C2642 C2641 1.398 . S
C2642 C2643 1.391 . S
C2643 H2631 0.950 . S
C2643 C2639 1.393 . S
C2643 C2642 1.391 . S
H2644 C2652 0.950 . S
H2645 C2657 0.950 . S
H2646 C2654 0.950 . S
H2647 C2656 0.950 . S
H2648 C2658 0.950 . S
H2649 C2660 0.950 . S
H2650 C2662 0.950 . S
H2651 C2663 0.950 . S
C2652 H2644 0.950 . S
C2652 C2653 1.386 . S
C2652 C2654 1.391 . S
C2653 C2652 1.386 . S
C2653 C2657 1.393 . S
C2654 H2646 0.950 . S
C2654 C2652 1.391 . S
C2654 C2655 1.400 . S
C2655 C2654 1.400 . S
C2655 C2656 1.398 . S
C2655 C2661 1.491 . S
C2656 H2647 0.950 . S
C2656 C2655 1.398 . S
C2656 C2657 1.391 . S
C2657 H2645 0.950 . S
C2657 C2653 1.393 . S
C2657 C2656 1.391 . S
C2658 H2648 0.950 . S
C2658 C2659 1.386 . S
C2658 C2660 1.391 . S
C2659 C2658 1.386 . S
C2659 C2663 1.393 . S
C2660 H2649 0.950 . S
C2660 C2658 1.391 . S
C2660 C2661 1.400 . S
C2661 C2655 1.491 . S
C2661 C2660 1.400 . S
C2661 C2662 1.398 . S
C2662 H2650 0.950 . S
C2662 C2661 1.398 . S
C2662 C2663 1.391 . S
C2663 H2651 0.950 . S
C2663 C2659 1.393 . S
C2663 C2662 1.391 . S
C753 C582 1.079 . S
C759 C18 1.044 . S
C773 C49 1.031 . S
C779 C613 1.079 . S
C793 C520 1.094 . S
C799 C80 1.036 . S
C813 C111 1.027 . S
C819 C551 1.088 . S
C833 C706 1.088 . S
C839 C142 1.027 . S
C853 C675 1.093 . S
C859 C173 1.033 . S
C873 C737 1.079 . S
C879 C204 1.030 . S
C893 C644 1.097 . S
C899 C235 1.067 . S
C913 C266 1.063 . S
C919 C427 1.085 . S
C933 C489 1.080 . S
C939 C297 1.028 . S
C953 C328 1.026 . S
C959 C458 1.084 . S
C973 C396 1.079 . S
C979 C359 1.033 . S
C993 C186 1.087 . S
C999 C383 1.026 . S
C1013 C217 1.094 . S
C1019 C414 1.035 . S
C1033 C124 1.094 . S
C1039 C445 1.069 . S
C1053 C476 1.057 . S
C1059 C155 1.082 . S
C1073 C310 1.093 . S
C1079 C507 1.069 . S
C1093 C538 1.066 . S
C1099 C279 1.097 . S
C1113 C341 1.083 . S
C1119 C569 1.058 . S
C1133 C248 1.085 . S
C1139 C600 1.026 . S
C1153 C631 1.062 . S
C1159 C31 1.085 . S
C1173 C93 1.079 . S
C1179 C662 1.049 . S
C1193 C693 1.026 . S
C1199 C62 1.087 . S
C1213 C724 1.069 . S
C1219 C0 1.093 . S
C1233 C272 1.465 . S
C1239 C27 1.611 . S
C1253 C58 1.595 . S
C1259 C365 1.471 . S
C1273 C89 1.610 . S
C1279 C303 1.460 . S
C1293 C120 1.577 . S
C1299 C334 1.438 . S
C1313 C151 1.592 . S
C1319 C24 1.469 . S
C1333 C182 1.577 . S
C1339 C55 1.436 . S
C1353 C86 1.458 . S
C1359 C213 1.609 . S
C1373 C244 1.598 . S
C1379 C117 1.473 . S
C1393 C148 1.474 . S
C1399 C275 1.608 . S
C1413 C306 1.600 . S
C1419 C210 1.474 . S
C1433 C241 1.446 . S
C1439 C337 1.604 . S
C1453 C179 1.429 . S
C1459 C368 1.586 . S
C1473 C620 1.454 . S
C1479 C373 1.581 . S
C1493 C404 1.577 . S
C1499 C713 1.437 . S
C1513 C651 1.437 . S
C1519 C435 1.598 . S
C1533 C466 1.582 . S
C1539 C682 1.429 . S
C1553 C372 1.466 . S
C1559 C497 1.611 . S
C1573 C403 1.429 . S
C1579 C528 1.586 . S
C1593 C559 1.583 . S
C1599 C434 1.428 . S
C1613 C465 1.453 . S
C1619 C590 1.608 . S
C1633 C496 1.469 . S
C1639 C621 1.592 . S
C1653 C652 1.606 . S
C1659 C558 1.448 . S
C1673 C683 1.608 . S
C1679 C589 1.453 . S
C1693 C714 1.608 . S
C1699 C527 1.473 . S
C1713 C2 1.287 . S
C1719 C342 1.233 . S
C1733 C249 1.247 . S
C1739 C33 1.256 . S
C1753 C64 1.251 . S
C1759 C311 1.266 . S
C1773 C95 1.250 . S
C1779 C280 1.264 . S
C1793 C63 1.227 . S
C1799 C126 1.279 . S
C1813 C94 1.249 . S
C1819 C157 1.255 . S
C1833 C1 1.268 . S
C1839 C188 1.254 . S
C1853 C219 1.251 . S
C1859 C32 1.266 . S
C1873 C218 1.240 . S
C1879 C250 1.262 . S
C1893 C281 1.265 . S
C1899 C156 1.236 . S
C1913 C125 1.231 . S
C1919 C312 1.287 . S
C1933 C343 1.278 . S
C1939 C187 1.252 . S
C1953 C740 1.234 . S
C1959 C382 1.267 . S
C1973 C647 1.231 . S
C1979 C413 1.272 . S
C1993 C709 1.231 . S
C1999 C444 1.287 . S
C2013 C678 1.235 . S
C2019 C475 1.287 . S
C2033 C506 1.280 . S
C2039 C461 1.249 . S
C2053 C537 1.276 . S
C2059 C492 1.228 . S
C2073 C568 1.269 . S
C2079 C399 1.261 . S
C2093 C599 1.278 . S
C2099 C430 1.227 . S
C2113 C616 1.228 . S
C2119 C630 1.286 . S
C2133 C554 1.257 . S
C2139 C661 1.251 . S
C2153 C523 1.237 . S
C2159 C692 1.286 . S
C2173 C585 1.265 . S
C2179 C723 1.250 . S
C2193 C684 1.840 . S
C2199 C11 1.837 . S
C2213 C653 1.828 . S
C2219 C42 1.849 . S
C2233 C73 1.834 . S
C2239 C715 1.840 . S
C2253 C622 1.837 . S
C2259 C104 1.830 . S
C2273 C135 1.839 . S
C2279 C405 1.841 . S
C2293 C374 1.820 . S
C2299 C166 1.834 . S
C2313 C197 1.836 . S
C2319 C467 1.840 . S
C2333 C228 1.833 . S
C2339 C436 1.820 . S
C2353 C560 1.819 . S
C2359 C259 1.843 . S
C2373 C498 1.820 . S
C2379 C290 1.844 . S
C2393 C321 1.841 . S
C2399 C529 1.840 . S
C2413 C352 1.835 . S
C2419 C591 1.840 . S
C2433 C390 1.836 . S
C2439 C320 1.840 . S
C2453 C421 1.835 . S
C2459 C289 1.819 . S
C2473 C351 1.819 . S
C2479 C452 1.844 . S
C2493 C258 1.839 . S
C2499 C483 1.833 . S
C2513 C514 1.848 . S
C2519 C41 1.834 . S
C2533 C545 1.838 . S
C2539 C10 1.818 . S
C2553 C576 1.831 . S
C2559 C103 1.822 . S
C2573 C607 1.843 . S
C2579 C72 1.839 . S
C2593 C638 1.842 . S
C2599 C196 1.819 . S
C2613 C669 1.844 . S
C2619 C134 1.839 . S
C2633 C700 1.834 . S
C2639 C165 1.840 . S
C2653 C227 1.832 . S
C2659 C731 1.849 . S
