# Generated by pormake.
# Topology wfu, (7)-cn, num edge types: 1
# Building blocks:
#     Node 0, Type 0, BuildingBlock: NUHQUE_clean_sbu_2, # of connection points: 7
#     Node 1, Type 0, BuildingBlock: NUHQUE_clean_sbu_2, # of connection points: 7
#     Node 2, Type 0, BuildingBlock: NUHQUE_clean_sbu_2, # of connection points: 7
#     Node 3, Type 0, BuildingBlock: NUHQUE_clean_sbu_2, # of connection points: 7
#     Node 4, Type 0, BuildingBlock: NUHQUE_clean_sbu_2, # of connection points: 7
#     Node 5, Type 0, BuildingBlock: NUHQUE_clean_sbu_2, # of connection points: 7
#     Node 6, Type 0, BuildingBlock: NUHQUE_clean_sbu_2, # of connection points: 7
#     Node 7, Type 0, BuildingBlock: NUHQUE_clean_sbu_2, # of connection points: 7
#     Edge 8, Type (0, 0), BuildingBlock: XIVTED_clean_linker_0, # of connection points: 2
#     Edge 9, Type (0, 0), BuildingBlock: XIVTED_clean_linker_0, # of connection points: 2
#     Edge 10, Type (0, 0), BuildingBlock: XIVTED_clean_linker_0, # of connection points: 2
#     Edge 11, Type (0, 0), BuildingBlock: XIVTED_clean_linker_0, # of connection points: 2
#     Edge 12, Type (0, 0), BuildingBlock: XIVTED_clean_linker_0, # of connection points: 2
#     Edge 13, Type (0, 0), BuildingBlock: XIVTED_clean_linker_0, # of connection points: 2
#     Edge 14, Type (0, 0), BuildingBlock: XIVTED_clean_linker_0, # of connection points: 2
#     Edge 15, Type (0, 0), BuildingBlock: XIVTED_clean_linker_0, # of connection points: 2
#     Edge 16, Type (0, 0), BuildingBlock: XIVTED_clean_linker_0, # of connection points: 2
#     Edge 17, Type (0, 0), BuildingBlock: XIVTED_clean_linker_0, # of connection points: 2
#     Edge 18, Type (0, 0), BuildingBlock: XIVTED_clean_linker_0, # of connection points: 2
#     Edge 19, Type (0, 0), BuildingBlock: XIVTED_clean_linker_0, # of connection points: 2
#     Edge 20, Type (0, 0), BuildingBlock: XIVTED_clean_linker_0, # of connection points: 2
#     Edge 21, Type (0, 0), BuildingBlock: XIVTED_clean_linker_0, # of connection points: 2
#     Edge 22, Type (0, 0), BuildingBlock: XIVTED_clean_linker_0, # of connection points: 2
#     Edge 23, Type (0, 0), BuildingBlock: XIVTED_clean_linker_0, # of connection points: 2
#     Edge 24, Type (0, 0), BuildingBlock: XIVTED_clean_linker_0, # of connection points: 2
#     Edge 25, Type (0, 0), BuildingBlock: XIVTED_clean_linker_0, # of connection points: 2
#     Edge 26, Type (0, 0), BuildingBlock: XIVTED_clean_linker_0, # of connection points: 2
#     Edge 27, Type (0, 0), BuildingBlock: XIVTED_clean_linker_0, # of connection points: 2
#     Edge 28, Type (0, 0), BuildingBlock: XIVTED_clean_linker_0, # of connection points: 2
#     Edge 29, Type (0, 0), BuildingBlock: XIVTED_clean_linker_0, # of connection points: 2
#     Edge 30, Type (0, 0), BuildingBlock: XIVTED_clean_linker_0, # of connection points: 2
#     Edge 31, Type (0, 0), BuildingBlock: XIVTED_clean_linker_0, # of connection points: 2
#     Edge 32, Type (0, 0), BuildingBlock: XIVTED_clean_linker_0, # of connection points: 2
#     Edge 33, Type (0, 0), BuildingBlock: XIVTED_clean_linker_0, # of connection points: 2
#     Edge 34, Type (0, 0), BuildingBlock: XIVTED_clean_linker_0, # of connection points: 2
#     Edge 35, Type (0, 0), BuildingBlock: XIVTED_clean_linker_0, # of connection points: 2
# Relax obj value: 0.203
# Max RMSD: 0.201
# Mean RMSD: 0.201
data_MOF--net-wfu--node1-NUHQUE_clean_sbu_2--edge1-XIVTED_clean_linker_0
_symmetry_space_group_name_H-M    P1
_symmetry_Int_Tables_number       1
_symmetry_cell_setting            triclinic
loop_
_symmetry_equiv_pos_as_xyz
'x, y, z'
_cell_length_a     36.727249
_cell_length_b     36.899006
_cell_length_c     31.342072
_cell_angle_alpha  90.397491
_cell_angle_beta   90.38638
_cell_angle_gamma 90.081079
loop_
_atom_site_label
_atom_site_type_symbol
_atom_site_fract_x
_atom_site_fract_y
_atom_site_fract_z
_atom_type_partial_charge
O0 O 0.31562 0.48357 0.19637 0.0
Tb1 Tb 0.32606 0.43661 0.1559 0.0
Eu2 Eu 0.36506 0.36817 0.231 0.0
C3 C 0.3361 0.51254 0.19164 0.0
O4 O 0.36357 0.51091 0.16508 0.0
C5 C 0.40273 0.44029 0.1984 0.0
O6 O 0.41197 0.33422 0.20815 0.0
C7 C 0.3395 0.34916 0.30457 0.0
C8 C 0.44573 0.34596 0.21059 0.0
O9 O 0.45294 0.37545 0.23277 0.0
C10 C 0.30189 0.35812 0.16137 0.0
C11 C 0.31834 0.32026 0.32513 0.0
C12 C 0.30718 0.325 0.36773 0.0
C13 C 0.28749 0.29766 0.38832 0.0
C14 C 0.27831 0.26604 0.36581 0.0
C15 C 0.28867 0.26119 0.32317 0.0
C16 C 0.30919 0.28817 0.30294 0.0
O17 O 0.38526 0.43585 0.16195 0.0
O18 O 0.39165 0.4237 0.23301 0.0
O19 O 0.29415 0.46779 0.11018 0.0
O20 O 0.33434 0.43158 0.08693 0.0
C21 C 0.30952 0.45494 0.07609 0.0
O22 O 0.33223 0.3442 0.17633 0.0
O23 O 0.29237 0.39087 0.17322 0.0
O24 O 0.37231 0.34041 0.29136 0.0
O25 O 0.32167 0.37031 0.27793 0.0
H26 H 0.31404 0.34972 0.38491 0.0
H27 H 0.26267 0.2451 0.38154 0.0
H28 H 0.31743 0.2845 0.27004 0.0
O29 O 0.49206 0.71659 0.82074 0.0
Tb30 Tb 0.4441 0.70601 0.85901 0.0
Eu31 Eu 0.37636 0.67166 0.77824 0.0
C32 C 0.52052 0.69526 0.82468 0.0
O33 O 0.51816 0.66691 0.84961 0.0
C34 C 0.44622 0.63116 0.81332 0.0
O35 O 0.34821 0.62182 0.80315 0.0
C36 C 0.35549 0.69237 0.70293 0.0
C37 C 0.34343 0.62019 0.84463 0.0
O38 O 0.35519 0.6469 0.86891 0.0
C39 C 0.36789 0.7367 0.84638 0.0
C40 C 0.32836 0.71724 0.68427 0.0
C41 C 0.3331 0.73013 0.64242 0.0
C42 C 0.30835 0.7551 0.62497 0.0
C43 C 0.27886 0.76682 0.6495 0.0
C44 C 0.27311 0.75337 0.69063 0.0
C45 C 0.29794 0.72854 0.70804 0.0
O46 O 0.44041 0.64755 0.85003 0.0
O47 O 0.43139 0.64366 0.778 0.0
O48 O 0.43283 0.69868 0.92697 0.0
O49 O 0.47803 0.7308 0.90874 0.0
C50 C 0.46008 0.71805 0.94093 0.0
O51 O 0.35181 0.70876 0.8282 0.0
O52 O 0.40223 0.74338 0.83845 0.0
O53 O 0.34265 0.66326 0.72174 0.0
O54 O 0.38257 0.70778 0.72411 0.0
H55 H 0.35609 0.72103 0.62367 0.0
H56 H 0.25929 0.78546 0.6357 0.0
H57 H 0.29373 0.71827 0.73996 0.0
O58 O 0.72237 0.54075 0.20112 0.0
Tb59 Tb 0.71158 0.58909 0.16346 0.0
Eu60 Eu 0.67242 0.66066 0.23744 0.0
C61 C 0.70095 0.51236 0.19615 0.0
O62 O 0.67252 0.51507 0.17075 0.0
C63 C 0.63501 0.5875 0.20554 0.0
O64 O 0.62672 0.69369 0.20956 0.0
C65 C 0.69647 0.68453 0.3105 0.0
C66 C 0.59276 0.68241 0.2104 0.0
O67 O 0.58445 0.65394 0.23329 0.0
C68 C 0.73813 0.66656 0.17155 0.0
C69 C 0.71743 0.71459 0.3302 0.0
C70 C 0.73011 0.71064 0.37242 0.0
C71 C 0.74847 0.73919 0.39315 0.0
C72 C 0.75474 0.77147 0.3712 0.0
C73 C 0.74306 0.77568 0.32889 0.0
C74 C 0.72415 0.74723 0.3083 0.0
O75 O 0.65263 0.59166 0.16953 0.0
O76 O 0.64527 0.60526 0.24025 0.0
O77 O 0.73914 0.5578 0.11382 0.0
O78 O 0.70277 0.59962 0.09556 0.0
C79 C 0.72451 0.57449 0.08162 0.0
O80 O 0.70755 0.68142 0.18414 0.0
O81 O 0.74629 0.63358 0.18364 0.0
O82 O 0.66396 0.69239 0.2952 0.0
O83 O 0.71465 0.66133 0.28664 0.0
H84 H 0.72497 0.68569 0.38947 0.0
H85 H 0.76914 0.79349 0.38712 0.0
H86 H 0.71476 0.75044 0.27568 0.0
O87 O 0.54274 0.31049 0.82407 0.0
Tb88 Tb 0.59136 0.3225 0.86187 0.0
Eu89 Eu 0.66404 0.36103 0.78753 0.0
C90 C 0.51423 0.33183 0.82773 0.0
O91 O 0.51686 0.36076 0.8522 0.0
C92 C 0.58958 0.39749 0.81669 0.0
O93 O 0.69674 0.40636 0.81693 0.0
C94 C 0.69071 0.33957 0.71508 0.0
C95 C 0.6858 0.4402 0.81495 0.0
O96 O 0.65738 0.44827 0.79123 0.0
C97 C 0.66911 0.29673 0.85504 0.0
C98 C 0.72437 0.32357 0.6977 0.0
C99 C 0.72585 0.31436 0.65399 0.0
C100 C 0.75849 0.30183 0.6359 0.0
C101 C 0.78932 0.29823 0.66204 0.0
C102 C 0.78809 0.30644 0.70568 0.0
C103 C 0.75551 0.31901 0.72369 0.0
O104 O 0.59313 0.38101 0.85358 0.0
O105 O 0.60753 0.38606 0.78287 0.0
O106 O 0.56099 0.29495 0.91189 0.0
O107 O 0.6024 0.33236 0.92969 0.0
C108 C 0.57776 0.31028 0.94392 0.0
O109 O 0.68493 0.32645 0.84166 0.0
O110 O 0.6362 0.28881 0.84145 0.0
O111 O 0.69351 0.37304 0.72952 0.0
O112 O 0.67038 0.31867 0.73922 0.0
H113 H 0.70192 0.31767 0.63396 0.0
H114 H 0.81441 0.28787 0.64855 0.0
H115 H 0.75451 0.32567 0.7574 0.0
O116 O 0.81694 0.0532 0.31851 0.0
Tb117 Tb 0.83454 0.09748 0.36029 0.0
Eu118 Eu 0.86602 0.16278 0.27878 0.0
C119 C 0.83565 0.02275 0.31881 0.0
O120 O 0.86659 0.02188 0.34005 0.0
C121 C 0.90882 0.0925 0.31219 0.0
O122 O 0.90608 0.20714 0.26351 0.0
C123 C 0.81539 0.16847 0.22057 0.0
C124 C 0.92639 0.22566 0.29074 0.0
O125 O 0.94507 0.25335 0.27638 0.0
C126 C 0.82058 0.17879 0.36208 0.0
C127 C 0.79285 0.1973 0.20103 0.0
C128 C 0.7809 0.19307 0.15836 0.0
C129 C 0.76038 0.2204 0.13852 0.0
C130 C 0.75181 0.25181 0.16145 0.0
C131 C 0.76425 0.25704 0.20339 0.0
C132 C 0.78502 0.2298 0.22322 0.0
O133 O 0.89309 0.09643 0.34954 0.0
O134 O 0.89648 0.10928 0.27806 0.0
O135 O 0.80354 0.06634 0.4067 0.0
O136 O 0.85001 0.09549 0.428 0.0
C137 C 0.82372 0.0742 0.43967 0.0
O138 O 0.85024 0.18829 0.34174 0.0
O139 O 0.80468 0.1478 0.35288 0.0
O140 O 0.85031 0.17013 0.21237 0.0
O141 O 0.80857 0.15943 0.2603 0.0
H142 H 0.78785 0.1688 0.14053 0.0
H143 H 0.73644 0.27312 0.14585 0.0
H144 H 0.79509 0.23392 0.25548 0.0
O145 O 0.04993 0.21514 0.69713 0.0
Tb146 Tb 0.07862 0.19085 0.64367 0.0
Eu147 Eu 0.14478 0.18436 0.72661 0.0
C148 C 0.02022 0.1989 0.71053 0.0
O149 O 1.01261 0.16642 0.69549 0.0
C150 C 0.08444 0.1264 0.70393 0.0
O151 O 0.16995 0.13888 0.68899 0.0
C152 C 0.17711 0.19632 0.79961 0.0
C153 C 0.2005 0.14241 0.66791 0.0
O154 O 0.21862 0.17306 0.67037 0.0
C155 C 0.15278 0.23384 0.6414 0.0
C156 C 0.20408 0.22106 0.82015 0.0
C157 C 0.19879 0.23246 0.86284 0.0
C158 C 0.22431 0.25536 0.88315 0.0
C159 C 0.25493 0.26681 0.86072 0.0
C160 C 0.26124 0.25512 0.81882 0.0
C161 C 0.2358 0.23216 0.79849 0.0
O162 O 0.08813 0.13594 0.66401 0.0
O163 O 0.09441 0.14888 0.73485 0.0
O164 O 0.03953 0.21907 0.60272 0.0
O165 O 0.0505 0.16376 0.59013 0.0
C166 C 0.0318 0.19176 0.57791 0.0
O167 O 0.15787 0.23176 0.68308 0.0
O168 O 0.12839 0.21446 0.62055 0.0
O169 O 0.1894 0.17355 0.7706 0.0
O170 O 0.14504 0.21003 0.78973 0.0
H171 H 0.17514 0.22329 0.88026 0.0
H172 H 0.27494 0.28385 0.8768 0.0
H173 H 0.24077 0.22298 0.76613 0.0
O174 O 0.2238 0.98584 0.30494 0.0
Tb175 Tb 0.21442 0.94246 0.35015 0.0
Eu176 Eu 0.17692 0.8703 0.27878 0.0
C177 C 0.20261 1.01452 0.30669 0.0
O178 O 0.17438 1.0139 0.33218 0.0
C179 C 0.13797 0.94168 0.30854 0.0
O180 O 0.1245 0.84696 0.30348 0.0
C181 C 0.19851 0.84534 0.20541 0.0
C182 C 0.12444 0.81665 0.32525 0.0
O183 O 0.15425 0.79702 0.32651 0.0
C184 C 0.24133 0.86417 0.34874 0.0
C185 C 0.22377 0.81859 0.18647 0.0
C186 C 0.23674 0.82409 0.14471 0.0
C187 C 0.26151 0.79959 0.12638 0.0
C188 C 0.27304 0.76962 0.14993 0.0
C189 C 0.25962 0.7631 0.19094 0.0
C190 C 0.23488 0.78764 0.20925 0.0
O191 O 0.15547 0.93776 0.3449 0.0
O192 O 0.14985 0.9253 0.27393 0.0
O193 O 0.24258 0.98151 0.39141 0.0
O194 O 0.20739 0.943 0.41953 0.0
C195 C 0.22892 0.97035 0.42708 0.0
O196 O 0.21139 0.84936 0.33341 0.0
O197 O 0.25053 0.89721 0.33794 0.0
O198 O 0.17004 0.83251 0.22576 0.0
O199 O 0.21344 0.87373 0.22442 0.0
H200 H 0.22775 0.8474 0.12663 0.0
H201 H 0.2916 0.75033 0.13545 0.0
H202 H 0.22452 0.78277 0.24101 0.0
O203 O 0.99343 0.8067 0.70445 0.0
Tb204 Tb 0.94729 0.81726 0.66254 0.0
Eu205 Eu 0.87903 0.85008 0.7422 0.0
C206 C 0.02204 0.82803 0.70161 0.0
O207 O 0.0202 0.85618 0.67627 0.0
C208 C 0.94944 0.88982 0.71241 0.0
O209 O 0.85588 0.90164 0.7145 0.0
C210 C 0.8551 0.8312 0.81658 0.0
C211 C 0.85287 0.90303 0.67265 0.0
O212 O 0.86326 0.8751 0.64968 0.0
C213 C 0.86882 0.78724 0.67004 0.0
C214 C 0.82767 0.80676 0.83514 0.0
C215 C 0.83292 0.79368 0.87691 0.0
C216 C 0.80829 0.76875 0.89432 0.0
C217 C 0.77836 0.75727 0.86991 0.0
C218 C 0.77209 0.77084 0.82887 0.0
C219 C 0.79681 0.79567 0.81143 0.0
O220 O 0.94402 0.87549 0.67433 0.0
O221 O 0.93526 0.87453 0.74617 0.0
O222 O 0.98325 0.79025 0.61724 0.0
O223 O 0.9451 0.82851 0.59383 0.0
C224 C 0.97104 0.80624 0.58327 0.0
O225 O 0.85413 0.81424 0.69129 0.0
O226 O 0.90342 0.7791 0.67462 0.0
O227 O 0.84288 0.85969 0.79581 0.0
O228 O 0.88283 0.81526 0.79776 0.0
H229 H 0.85628 0.80256 0.89559 0.0
H230 H 0.75888 0.73866 0.88373 0.0
H231 H 0.79223 0.806 0.77954 0.0
H232 H 0.30875 0.28764 0.13408 0.0
H233 H 0.20344 0.32083 0.91517 0.0
H234 H 0.25049 0.38636 0.10683 0.0
H235 H 0.24302 0.21611 0.95318 0.0
H236 H 0.21554 0.34394 0.98747 0.0
H237 H 0.28126 0.25966 0.07058 0.0
C238 C 0.28987 0.30334 0.11503 0.0
C239 C 0.28212 0.33952 0.12582 0.0
C240 C 0.22078 0.31566 0.98044 0.0
C241 C 0.25072 0.30766 0.05254 0.0
C242 C 0.2135 0.30243 0.9393 0.0
C243 C 0.2216 0.26639 0.92859 0.0
C244 C 0.23714 0.2929 0.01085 0.0
C245 C 0.23573 0.24388 0.96052 0.0
C246 C 0.27411 0.2873 0.07874 0.0
C247 C 0.25731 0.35841 0.09988 0.0
N248 N 0.24352 0.2576 1.00002 0.0
N249 N 0.24289 0.34244 0.06425 0.0
H250 H 0.29562 0.73445 0.86793 0.0
H251 H 0.33076 0.81342 0.10085 0.0
H252 H 0.39822 0.78131 0.90758 0.0
H253 H 0.22315 0.7912 0.05192 0.0
H254 H 0.35522 0.80589 0.02879 0.0
H255 H 0.26766 0.75838 0.93293 0.0
C256 C 0.31218 0.75022 0.88997 0.0
C257 C 0.34943 0.75567 0.88225 0.0
C258 C 0.32615 0.80338 0.03349 0.0
C259 C 0.3176 0.78279 0.95724 0.0
C260 C 0.3122 0.8079 0.07457 0.0
C261 C 0.2749 0.80332 0.08209 0.0
C262 C 0.30273 0.79331 0.99975 0.0
C263 C 0.25202 0.79546 0.04722 0.0
C264 C 0.29616 0.7639 0.92712 0.0
C265 C 0.36944 0.77639 0.91204 0.0
N266 N 0.26635 0.79017 1.00765 0.0
N267 N 0.35341 0.78873 0.9484 0.0
H268 H 0.81851 0.6992 0.91996 0.0
H269 H 0.73775 0.7379 0.14867 0.0
H270 H 0.80306 0.80747 0.96862 0.0
H271 H 0.7844 0.6347 0.11388 0.0
H272 H 0.7644 0.76457 0.08482 0.0
H273 H 0.8099 0.67541 0.99198 0.0
C274 C 0.81427 0.71798 0.94618 0.0
C275 C 0.81174 0.75531 0.93859 0.0
C276 C 0.76931 0.73622 0.09145 0.0
C277 C 0.80059 0.72833 0.02077 0.0
C278 C 0.75402 0.72095 0.12788 0.0
C279 C 0.75861 0.68394 0.13652 0.0
C280 C 0.78883 0.71422 0.06291 0.0
C281 C 0.78012 0.66333 0.10853 0.0
C282 C 0.80919 0.70444 0.98722 0.0
C283 C 0.80561 0.77855 0.97337 0.0
N284 N 0.79393 0.67861 0.07266 0.0
N285 N 0.79963 0.76464 0.01287 0.0
H286 H 0.69281 0.20643 0.10597 0.0
H287 H 0.73924 0.29975 0.88508 0.0
H288 H 0.80207 0.23357 0.06886 0.0
H289 H 0.63542 0.24949 0.90975 0.0
H290 H 0.76347 0.2729 0.95047 0.0
H291 H 0.67183 0.21819 0.03284 0.0
C292 C 0.71251 0.2138 0.08194 0.0
C293 C 0.74926 0.21846 0.09305 0.0
C294 C 0.73551 0.26735 0.94136 0.0
C295 C 0.7254 0.23344 0.00988 0.0
C296 C 0.72161 0.28276 0.90402 0.0
C297 C 0.68514 0.2771 0.89194 0.0
C298 C 0.71268 0.24647 0.96735 0.0
C299 C 0.66368 0.25465 0.91772 0.0
C300 C 0.70054 0.2208 0.04033 0.0
C301 C 0.77362 0.22904 0.06121 0.0
N302 N 0.67762 0.24058 0.95444 0.0
N303 N 0.76121 0.23664 0.02122 0.0
H304 H 0.75949 0.1676 0.41017 0.0
H305 H 0.80952 0.32348 0.57864 0.0
H306 H 0.84979 0.24141 0.39573 0.0
H307 H 0.71483 0.25518 0.58981 0.0
H308 H 0.82105 0.2976 0.50807 0.0
H309 H 0.73959 0.20235 0.47242 0.0
C310 C 0.775 0.19129 0.41982 0.0
C311 C 0.80654 0.20143 0.39771 0.0
C312 C 0.79745 0.28853 0.52557 0.0
C313 C 0.78387 0.24134 0.46932 0.0
C314 C 0.79081 0.30339 0.56584 0.0
C315 C 0.7613 0.29128 0.59018 0.0
C316 C 0.77464 0.26099 0.50952 0.0
C317 C 0.7378 0.26535 0.57201 0.0
C318 C 0.76355 0.21116 0.45542 0.0
C319 C 0.8254 0.23246 0.41177 0.0
N320 N 0.74525 0.25069 0.53299 0.0
N321 N 0.81394 0.25109 0.44681 0.0
H322 H 0.22727 0.24177 0.64536 0.0
H323 H 0.23229 0.33984 0.41797 0.0
H324 H 0.13209 0.27696 0.57606 0.0
H325 H 0.31277 0.26243 0.4586 0.0
H326 H 0.20275 0.33491 0.48787 0.0
H327 H 0.26574 0.26718 0.58882 0.0
C328 C 0.21454 0.25577 0.61896 0.0
C329 C 0.17649 0.25692 0.615 0.0
C330 C 0.22741 0.31971 0.48185 0.0
C331 C 0.22005 0.2862 0.55083 0.0
C332 C 0.24435 0.32273 0.44219 0.0
C333 C 0.27495 0.3016 0.43286 0.0
C334 C 0.24136 0.29552 0.51233 0.0
C335 C 0.28925 0.27926 0.46489 0.0
C336 C 0.23644 0.27004 0.58664 0.0
C337 C 0.16135 0.27528 0.58007 0.0
N338 N 0.27219 0.27657 0.50316 0.0
N339 N 0.18311 0.28898 0.54923 0.0
H340 H 0.28982 0.894 0.40597 0.0
H341 H 0.30206 0.71606 0.55087 0.0
H342 H 0.23751 0.7928 0.37257 0.0
H343 H 0.31869 0.82453 0.59881 0.0
H344 H 0.29317 0.74071 0.47877 0.0
H345 H 0.31508 0.86557 0.46992 0.0
C346 C 0.28419 0.86561 0.41158 0.0
C347 C 0.26124 0.84585 0.38392 0.0
C348 C 0.29949 0.75903 0.50495 0.0
C349 C 0.29013 0.81316 0.45728 0.0
C350 C 0.30491 0.74494 0.54589 0.0
C351 C 0.31127 0.76835 0.58059 0.0
C352 C 0.30077 0.79672 0.49875 0.0
C353 C 0.314 0.80564 0.57275 0.0
C354 C 0.29848 0.84947 0.44828 0.0
C355 C 0.25481 0.80917 0.39314 0.0
N356 N 0.30857 0.8187 0.53274 0.0
N357 N 0.26899 0.79407 0.42912 0.0
H358 H 0.79604 0.79531 0.65384 0.0
H359 H 0.80148 0.69522 0.4263 0.0
H360 H 0.89128 0.73942 0.6075 0.0
H361 H 0.72456 0.77814 0.46108 0.0
H362 H 0.828 0.69885 0.4987 0.0
H363 H 0.76281 0.77604 0.59007 0.0
C364 C 0.80987 0.77844 0.63065 0.0
C365 C 0.84676 0.76939 0.63594 0.0
C366 C 0.80493 0.71579 0.49063 0.0
C367 C 0.80866 0.74743 0.56235 0.0
C368 C 0.78972 0.71355 0.44956 0.0
C369 C 0.76087 0.73641 0.43803 0.0
C370 C 0.79084 0.7408 0.52027 0.0
C371 C 0.7468 0.76007 0.46892 0.0
C372 C 0.79084 0.76757 0.59408 0.0
C373 C 0.86296 0.74719 0.60476 0.0
N374 N 0.76197 0.76174 0.50853 0.0
N375 N 0.84394 0.73731 0.56903 0.0
H376 H 0.60497 0.34722 0.01297 0.0
H377 H 0.43986 0.28562 0.15975 0.0
H378 H 0.52509 0.26676 0.97673 0.0
H379 H 0.51335 0.37314 0.19216 0.0
H380 H 0.4789 0.26946 0.09992 0.0
H381 H 0.57969 0.34841 0.08512 0.0
C382 C 0.58248 0.32939 0.02045 0.0
C383 C 0.5667 0.30722 0.98885 0.0
C384 C 0.48682 0.29186 0.12049 0.0
C385 C 0.53757 0.30854 0.07099 0.0
C386 C 0.46457 0.30104 0.15479 0.0
C387 C 0.473 0.33118 0.18061 0.0
C388 C 0.51761 0.31309 0.1117 0.0
C389 C 0.50558 0.34991 0.17286 0.0
C390 C 0.56802 0.33011 0.06157 0.0
C391 C 0.53777 0.28451 1.00014 0.0
N392 N 0.5264 0.34092 0.13868 0.0
N393 N 0.52386 0.28605 0.04016 0.0
H394 H 0.25758 0.5025 0.05069 0.0
H395 H 0.36054 0.54846 0.83433 0.0
H396 H 0.34901 0.44112 1.00393 0.0
H397 H 0.29041 0.6213 0.90343 0.0
H398 H 0.34324 0.49945 0.88325 0.0
H399 H 0.25572 0.53578 0.98369 0.0
C400 C 0.27687 0.49561 0.02593 0.0
C401 C 0.30394 0.46962 0.033 0.0
C402 C 0.33093 0.52593 0.8869 0.0
C403 C 0.30233 0.50785 0.95656 0.0
C404 C 0.34054 0.5537 0.85886 0.0
C405 C 0.32687 0.58873 0.86526 0.0
C406 C 0.30732 0.53352 0.92096 0.0
C407 C 0.30158 0.59456 0.89776 0.0
C408 C 0.27585 0.51463 0.98773 0.0
C409 C 0.328 0.46136 0.99977 0.0
N410 N 0.29284 0.56732 0.92461 0.0
N411 N 0.32708 0.48092 0.96312 0.0
H412 H 0.43184 0.68369 0.01039 0.0
H413 H 0.60111 0.74059 0.15769 0.0
H414 H 0.51615 0.75826 0.97309 0.0
H415 H 0.52465 0.65641 0.19038 0.0
H416 H 0.56284 0.75637 0.09672 0.0
H417 H 0.45824 0.68208 0.08246 0.0
C418 C 0.45556 0.70016 0.01762 0.0
C419 C 0.47216 0.72081 0.98577 0.0
C420 C 0.55414 0.73476 0.11754 0.0
C421 C 0.50252 0.71903 0.06776 0.0
C422 C 0.57595 0.7258 0.1525 0.0
C423 C 0.56638 0.69676 0.17886 0.0
C424 C 0.52259 0.71444 0.10865 0.0
C425 C 0.53327 0.67881 0.17072 0.0
C426 C 0.47067 0.69918 0.05866 0.0
C427 C 0.50275 0.74172 0.99669 0.0
N428 N 0.51282 0.6876 0.13596 0.0
N429 N 0.51715 0.74003 0.03665 0.0
H430 H 0.7453 0.43293 0.86705 0.0
H431 H 0.68852 0.60155 0.0123 0.0
H432 H 0.66005 0.50821 0.83356 0.0
H433 H 0.76677 0.52043 0.04936 0.0
H434 H 0.68657 0.57513 0.94039 0.0
H435 H 0.76244 0.47213 0.92685 0.0
C436 C 0.73054 0.45802 0.87184 0.0
C437 C 0.70079 0.467 0.84567 0.0
C438 C 0.70458 0.56343 0.96406 0.0
C439 C 0.72004 0.51184 0.91449 0.0
C440 C 0.70574 0.57854 1.00503 0.0
C441 C 0.72747 0.56277 0.03679 0.0
C442 C 0.72524 0.53233 0.95497 0.0
C443 C 0.74938 0.53314 0.02581 0.0
C444 C 0.74032 0.48038 0.90609 0.0
C445 C 0.68296 0.50004 0.85315 0.0
N446 N 0.7474 0.51861 0.98593 0.0
N447 N 0.69251 0.52101 0.88729 0.0
H448 H 0.94008 0.15945 0.32561 0.0
H449 H 0.99039 0.24862 0.55192 0.0
H450 H 0.92351 0.27159 0.3583 0.0
H451 H 0.01897 0.13903 0.51742 0.0
H452 H 0.95556 0.25371 0.48561 0.0
H453 H 0.95806 0.14742 0.39993 0.0
C454 C 0.93892 0.18113 0.3489 0.0
C455 C 0.92983 0.21631 0.33622 0.0
C456 C 0.96916 0.22839 0.49258 0.0
C457 C 0.95159 0.20346 0.4205 0.0
C458 C 0.98906 0.2255 0.53047 0.0
C459 C 1.0079 0.19351 0.53986 0.0
C460 C 0.96825 0.19916 0.46358 0.0
C461 C 1.00501 0.16427 0.51114 0.0
C462 C 0.94972 0.1745 0.39109 0.0
C463 C 0.93027 0.24403 0.36697 0.0
N464 N 0.98588 0.1679 0.47402 0.0
N465 N 0.94119 0.23708 0.40756 0.0
H466 H 0.25581 0.14363 0.60944 0.0
H467 H 0.19455 0.95559 0.50201 0.0
H468 H 0.17081 0.07486 0.65849 0.0
H469 H 0.27035 0.02992 0.44484 0.0
H470 H 0.1935 0.99392 0.56609 0.0
H471 H 0.26916 0.09745 0.55536 0.0
C472 C 0.24027 0.11865 0.60921 0.0
C473 C 0.21191 0.11327 0.63826 0.0
C474 C 0.21071 1.00164 0.53974 0.0
C475 C 0.22693 0.06042 0.57641 0.0
C476 C 0.21141 0.97969 0.50327 0.0
C477 C 0.23229 0.98987 0.46808 0.0
C478 C 0.231 0.03399 0.54087 0.0
C479 C 0.25368 0.02129 0.47127 0.0
C480 C 0.24785 0.09233 0.57826 0.0
C481 C 0.19271 0.08034 0.6365 0.0
N482 N 0.25222 0.04245 0.50687 0.0
N483 N 0.20038 0.05532 0.60589 0.0
H484 H 0.06238 0.85644 0.33873 0.0
H485 H 0.02124 0.75674 0.55788 0.0
H486 H 0.11839 0.76027 0.38113 0.0
H487 H 0.9577 0.84667 0.51174 0.0
H488 H 0.05274 0.75399 0.48961 0.0
H489 H 0.01929 0.84955 0.39726 0.0
C490 C 0.06527 0.83349 0.35984 0.0
C491 C 0.09437 0.80912 0.35525 0.0
C492 C 0.03166 0.77412 0.4941 0.0
C493 C 0.04534 0.80138 0.42271 0.0
C494 C 1.01368 0.77569 0.53311 0.0
C495 C 0.98708 0.80215 0.54047 0.0
C496 C 0.02331 0.79948 0.46228 0.0
C497 C 0.97819 0.82594 0.5073 0.0
C498 C 0.04068 0.82965 0.39339 0.0
C499 C 0.09662 0.77991 0.38359 0.0
N500 N 0.99659 0.82433 0.46976 0.0
N501 N 0.07276 0.77713 0.41636 0.0
H502 H 0.77145 0.02707 0.46512 0.0
H503 H 0.87558 0.97358 0.68084 0.0
H504 H 0.8684 0.08193 0.50966 0.0
H505 H 0.80101 0.90431 0.61164 0.0
H506 H 0.86224 0.02267 0.63006 0.0
H507 H 0.77095 0.99158 0.53059 0.0
C508 C 0.79234 0.03201 0.48903 0.0
C509 C 0.8203 0.05703 0.48181 0.0
C510 C 0.84819 0.99697 0.62671 0.0
C511 C 0.82009 0.01636 0.55668 0.0
C512 C 0.85551 0.96921 0.65584 0.0
C513 C 0.83922 0.93513 0.6502 0.0
C514 C 0.82418 0.99042 0.59232 0.0
C515 C 0.81404 0.93033 0.61691 0.0
C516 C 0.79209 1.01171 0.52636 0.0
C517 C 0.84655 0.06259 0.51395 0.0
N518 N 0.80744 0.95757 0.58911 0.0
N519 N 0.8461 0.04205 0.54988 0.0
H520 H 0.43381 0.47685 0.13238 0.0
H521 H 0.60557 0.55067 0.13788 0.0
H522 H 0.44856 0.45592 0.26669 0.0
H523 H 0.5868 0.57299 0.27131 0.0
H524 H 0.55028 0.51494 0.13522 0.0
H525 H 0.4889 0.51321 0.13327 0.0
C526 C 0.44883 0.47955 0.16209 0.0
C527 C 0.43653 0.46278 0.1994 0.0
C528 C 0.55759 0.52817 0.16498 0.0
C529 C 0.50108 0.50399 0.20042 0.0
C530 C 0.58964 0.54841 0.1667 0.0
C531 C 0.60095 0.56536 0.20483 0.0
C532 C 0.53599 0.52482 0.20157 0.0
C533 C 0.5791 0.56071 0.24111 0.0
C534 C 0.48072 0.50016 0.16248 0.0
C535 C 0.45711 0.46801 0.23702 0.0
N536 N 0.54768 0.54085 0.2386 0.0
N537 N 0.48835 0.48814 0.23658 0.0
H538 H 0.48072 0.59963 0.8808 0.0
H539 H 0.55021 0.42774 0.88117 0.0
H540 H 0.46232 0.58495 0.74562 0.0
H541 H 0.57773 0.44465 0.74912 0.0
H542 H 0.51499 0.48307 0.8806 0.0
H543 H 0.51579 0.54415 0.8819 0.0
C544 C 0.48366 0.58453 0.85126 0.0
C545 C 0.46798 0.59702 0.81313 0.0
C546 C 0.52925 0.47534 0.85185 0.0
C547 C 0.50768 0.53182 0.81447 0.0
C548 C 0.54919 0.44325 0.85198 0.0
C549 C 0.56749 0.43141 0.81523 0.0
C550 C 0.52766 0.49655 0.81483 0.0
C551 C 0.56438 0.45277 0.77833 0.0
C552 C 0.50354 0.55239 0.85203 0.0
C553 C 0.47358 0.57628 0.77586 0.0
N554 N 0.54489 0.48433 0.77906 0.0
N555 N 0.49295 0.54468 0.77746 0.0
H556 H 0.94733 0.07163 0.24065 0.0
H557 H 0.10206 0.97063 0.37663 0.0
H558 H 0.9477 0.06269 0.3779 0.0
H559 H 0.09609 0.96297 0.23929 0.0
H560 H 0.04695 1.00701 0.37642 0.0
H561 H 1.00288 0.03464 0.23828 0.0
C562 C 0.95904 0.062 0.27027 0.0
C563 C 0.94266 0.07039 0.30955 0.0
C564 C 0.05752 0.99738 0.34623 0.0
C565 C 1.00632 0.02808 0.30701 0.0
C566 C 0.08916 0.97653 0.34629 0.0
C567 C 0.10388 0.96352 0.30788 0.0
C568 C 0.04018 1.00572 0.30746 0.0
C569 C 0.08571 0.97227 0.26968 0.0
C570 C 0.99072 0.0408 0.26885 0.0
C571 C 0.95913 0.05698 0.34683 0.0
N572 N 0.05486 0.9929 0.27041 0.0
N573 N 0.98992 0.03669 0.3446 0.0
H574 H 0.05285 0.10066 0.77812 0.0
H575 H 0.96533 0.92948 0.78527 0.0
H576 H 0.07677 0.07051 0.64805 0.0
H577 H 0.98125 0.92887 0.64899 0.0
H578 H 0.99965 0.98622 0.79033 0.0
H579 H 0.02024 0.04304 0.78649 0.0
C580 C 0.05168 0.08173 0.75158 0.0
C581 C 0.0674 0.09062 0.71229 0.0
C582 C 0.99545 0.974 0.75925 0.0
C583 C 0.03031 0.02442 0.72141 0.0
C584 C 0.97591 0.94134 0.75637 0.0
C585 C 0.9702 0.92431 0.7166 0.0
C586 C 1.00938 0.98976 0.72198 0.0
C587 C 0.98476 0.94089 0.68035 0.0
C588 C 0.03301 0.0487 0.7563 0.0
C589 C 0.06481 0.06518 0.67886 0.0
N590 N 1.00357 0.97248 0.68398 0.0
N591 N 0.04656 0.03359 0.68415 0.0
H592 H 0.16047 0.07336 0.28994 0.0
H593 H 0.33128 0.20614 0.29251 0.0
H594 H 0.27156 0.03596 0.28441 0.0
H595 H 0.21964 0.23976 0.30552 0.0
H596 H 0.31014 0.14508 0.27213 0.0
H597 H 0.18156 0.13503 0.27747 0.0
C598 C 0.18929 0.07806 0.28522 0.0
C599 C 0.21435 0.04961 0.28888 0.0
C600 C 0.29026 0.16605 0.27844 0.0
C601 C 0.2389 0.12042 0.2756 0.0
C602 C 0.30233 0.20086 0.28975 0.0
C603 C 0.27707 0.22769 0.30083 0.0
C604 C 0.25272 0.15827 0.27838 0.0
C605 C 0.23989 0.21961 0.29734 0.0
C606 C 0.20137 0.11334 0.27823 0.0
C607 C 0.25133 0.05718 0.28206 0.0
N608 N 0.22885 0.18555 0.28692 0.0
N609 N 0.26261 0.09202 0.27662 0.0
H610 H 0.25167 0.82157 0.71183 0.0
H611 H 0.0446 0.76067 0.72787 0.0
H612 H 0.21783 0.70994 0.71824 0.0
H613 H 0.08126 0.87112 0.71478 0.0
H614 H 0.10766 0.74211 0.74182 0.0
H615 H 0.1902 0.84045 0.73114 0.0
C616 C 0.23138 0.80105 0.71846 0.0
C617 C 0.23957 0.76423 0.71321 0.0
C618 C 0.10178 0.77051 0.73675 0.0
C619 C 0.16883 0.78548 0.73393 0.0
C620 C 0.06576 0.78114 0.72899 0.0
C621 C 0.05782 0.8174 0.71942 0.0
C622 C 0.12988 0.79638 0.73498 0.0
C623 C 0.08626 0.84277 0.72127 0.0
C624 C 0.19623 0.81177 0.72923 0.0
C625 C 0.21246 0.73862 0.72206 0.0
N626 N 0.12101 0.83172 0.72827 0.0
N627 N 0.17801 0.74973 0.73116 0.0
H628 H 0.8061 0.7937 0.28983 0.0
H629 H 0.7634 1.00613 0.30505 0.0
H630 H 0.70124 0.83661 0.32381 0.0
H631 H 0.87113 0.96011 0.29882 0.0
H632 H 0.73753 0.94538 0.29365 0.0
H633 H 0.82705 0.85521 0.27389 0.0
C634 C 0.78713 0.81606 0.29242 0.0
C635 C 0.75183 0.81022 0.30756 0.0
C636 C 0.76682 0.94872 0.29402 0.0
C637 C 0.77583 0.88079 0.29098 0.0
C638 C 0.78162 0.98343 0.30023 0.0
C639 C 0.8195 0.98815 0.30331 0.0
C640 C 0.7901 0.91863 0.29047 0.0
C641 C 0.84177 0.95769 0.29712 0.0
C642 C 0.79916 0.8512 0.28382 0.0
C643 C 0.7285 0.84009 0.31156 0.0
N644 N 0.82677 0.92428 0.29138 0.0
N645 N 0.74103 0.87419 0.30381 0.0
H646 H 1.01342 0.27276 0.7188 0.0
H647 H 0.80129 0.25152 0.76114 0.0
H648 H 0.9601 0.17232 0.75049 0.0
H649 H 0.85112 0.34494 0.70419 0.0
H650 H 0.86191 0.22921 0.78119 0.0
H651 H 0.95763 0.30549 0.73694 0.0
C652 C 0.99037 0.25766 0.73076 0.0
C653 C 0.99115 0.21966 0.73226 0.0
C654 C 0.85956 0.25518 0.76553 0.0
C655 C 0.92715 0.2569 0.75263 0.0
C656 C 0.82496 0.26807 0.75458 0.0
C657 C 0.82143 0.30005 0.73112 0.0
C658 C 0.89068 0.27435 0.75254 0.0
C659 C 0.85289 0.3202 0.72247 0.0
C660 C 0.95843 0.27636 0.74088 0.0
C661 C 0.96046 0.20158 0.74809 0.0
N662 N 0.88626 0.30673 0.73253 0.0
N663 N 0.92952 0.22027 0.75695 0.0
H664 H 0.69834 0.28293 0.22712 0.0
H665 H 0.76806 0.48813 0.22342 0.0
H666 H 0.8118 0.31202 0.22234 0.0
H667 H 0.65624 0.45441 0.20776 0.0
H668 H 0.78459 0.42532 0.24046 0.0
H669 H 0.68285 0.34657 0.23921 0.0
C670 C 0.72007 0.3027 0.23015 0.0
C671 C 0.75635 0.29234 0.22399 0.0
C672 C 0.75636 0.43184 0.23398 0.0
C673 C 0.73887 0.3655 0.23603 0.0
C674 C 0.74688 0.4677 0.22444 0.0
C675 C 0.71078 0.47642 0.21363 0.0
C676 C 0.72946 0.40467 0.23305 0.0
C677 C 0.68449 0.44884 0.21533 0.0
C678 C 0.71125 0.33909 0.23654 0.0
C679 C 0.78352 0.319 0.22741 0.0
N680 N 0.69438 0.41428 0.22444 0.0
N681 N 0.7742 0.35452 0.23247 0.0
H682 H 0.45585 0.37568 0.81401 0.0
H683 H 0.31679 0.21106 0.7928 0.0
H684 H 0.49035 0.26445 0.80143 0.0
H685 H 0.28559 0.32323 0.80298 0.0
H686 H 0.38012 0.23005 0.78121 0.0
H687 H 0.39384 0.35736 0.79601 0.0
C688 C 0.45044 0.34739 0.8069 0.0
C689 C 0.47823 0.32149 0.80981 0.0
C690 C 0.35928 0.25054 0.78485 0.0
C691 C 0.40686 0.30007 0.78974 0.0
C692 C 0.32311 0.23969 0.79099 0.0
C693 C 0.29611 0.26567 0.79891 0.0
C694 C 0.36831 0.2876 0.78689 0.0
C695 C 0.30572 0.30241 0.79704 0.0
C696 C 0.41495 0.3369 0.79658 0.0
C697 C 0.46968 0.28529 0.79976 0.0
N698 N 0.34104 0.31224 0.79184 0.0
N699 N 0.43461 0.27553 0.79089 0.0
H700 H 0.32811 0.74174 0.21194 0.0
H701 H 0.26899 0.53406 0.22091 0.0
H702 H 0.21626 0.70674 0.21551 0.0
H703 H 0.37875 0.57231 0.20234 0.0
H704 H 0.25002 0.59645 0.23686 0.0
H705 H 0.34758 0.67994 0.22759 0.0
C706 C 0.30765 0.72111 0.2173 0.0
C707 C 0.2706 0.72915 0.21229 0.0
C708 C 0.27837 0.59104 0.23007 0.0
C709 C 0.29257 0.65806 0.22875 0.0
C710 C 0.28925 0.55542 0.22116 0.0
C711 C 0.3254 0.54811 0.20965 0.0
C712 C 0.30391 0.61938 0.22765 0.0
C713 C 0.35049 0.57681 0.21041 0.0
C714 C 0.31872 0.68577 0.22589 0.0
C715 C 0.2451 0.70152 0.21929 0.0
N716 N 0.3392 0.61114 0.21874 0.0
N717 N 0.25656 0.66697 0.22636 0.0
H718 H 0.54249 0.76188 0.79561 0.0
H719 H 0.75072 0.70272 0.80684 0.0
H720 H 0.58041 0.65257 0.81503 0.0
H721 H 0.71581 0.81405 0.80314 0.0
H722 H 0.68859 0.68334 0.79004 0.0
H723 H 0.60511 0.78051 0.77996 0.0
C724 C 0.56383 0.74165 0.79569 0.0
C725 C 0.55637 0.70574 0.80735 0.0
C726 C 0.69453 0.71207 0.79194 0.0
C727 C 0.6279 0.72684 0.7896 0.0
C728 C 0.73004 0.72308 0.80118 0.0
C729 C 0.73816 0.75995 0.80657 0.0
C730 C 0.66677 0.7381 0.78881 0.0
C731 C 0.71052 0.78535 0.79912 0.0
C732 C 0.59958 0.75233 0.78689 0.0
C733 C 0.58503 0.68067 0.80689 0.0
N734 N 0.67579 0.77393 0.79144 0.0
N735 N 0.61952 0.69177 0.79869 0.0
loop_
_geom_bond_atom_site_label_1
_geom_bond_atom_site_label_2
_geom_bond_distance
_geom_bond_site_symmetry_2
_ccdc_geom_bond_type
O0 Tb1 2.292 . S
O0 C3 1.255 . S
Tb1 O0 2.292 . S
Tb1 O17 2.326 . S
Tb1 O19 2.500 . S
Tb1 O20 2.473 . S
Tb1 O23 2.324 . S
Eu2 O6 2.292 . S
Eu2 C7 2.852 . S
Eu2 O18 2.324 . S
Eu2 O22 2.326 . S
Eu2 O24 2.500 . S
Eu2 O25 2.473 . S
C3 O0 1.255 . S
C3 O4 1.247 . S
O4 C3 1.247 . S
C5 O17 1.242 . S
C5 O18 1.258 . S
O6 Eu2 2.292 . S
O6 C8 1.255 . S
C7 Eu2 2.852 . S
C7 C11 1.503 . S
C7 O24 1.273 . S
C7 O25 1.257 . S
C8 O6 1.255 . S
C8 O9 1.247 . S
O9 C8 1.247 . S
C10 O22 1.242 . S
C10 O23 1.258 . S
C11 C7 1.503 . S
C11 C12 1.379 . S
C11 C16 1.392 . S
C12 C11 1.379 . S
C12 C13 1.404 . S
C12 H26 0.929 . S
C13 C12 1.404 . S
C13 C14 1.389 . S
C14 C13 1.389 . S
C14 C15 1.399 . S
C14 H27 0.931 . S
C15 C14 1.399 . S
C15 C16 1.390 . S
C16 C11 1.392 . S
C16 C15 1.390 . S
C16 H28 0.929 . S
O17 Tb1 2.326 . S
O17 C5 1.242 . S
O18 Eu2 2.324 . S
O18 C5 1.258 . S
O19 Tb1 2.500 . S
O19 C21 1.273 . S
O20 Tb1 2.473 . S
O20 C21 1.257 . S
C21 O19 1.273 . S
C21 O20 1.257 . S
O22 Eu2 2.326 . S
O22 C10 1.242 . S
O23 Tb1 2.324 . S
O23 C10 1.258 . S
O24 Eu2 2.500 . S
O24 C7 1.273 . S
O25 Eu2 2.473 . S
O25 C7 1.257 . S
H26 C12 0.929 . S
H27 C14 0.931 . S
H28 C16 0.929 . S
O29 Tb30 2.292 . S
O29 C32 1.255 . S
Tb30 O29 2.292 . S
Tb30 O46 2.326 . S
Tb30 O48 2.500 . S
Tb30 O49 2.473 . S
Tb30 O52 2.324 . S
Eu31 O35 2.292 . S
Eu31 C36 2.852 . S
Eu31 O47 2.324 . S
Eu31 O51 2.326 . S
Eu31 O53 2.500 . S
Eu31 O54 2.473 . S
C32 O29 1.255 . S
C32 O33 1.247 . S
O33 C32 1.247 . S
C34 O46 1.242 . S
C34 O47 1.258 . S
O35 Eu31 2.292 . S
O35 C37 1.255 . S
C36 Eu31 2.852 . S
C36 C40 1.503 . S
C36 O53 1.273 . S
C36 O54 1.257 . S
C37 O35 1.255 . S
C37 O38 1.247 . S
O38 C37 1.247 . S
C39 O51 1.242 . S
C39 O52 1.258 . S
C40 C36 1.503 . S
C40 C41 1.379 . S
C40 C45 1.392 . S
C41 C40 1.379 . S
C41 C42 1.404 . S
C41 H55 0.929 . S
C42 C41 1.404 . S
C42 C43 1.389 . S
C43 C42 1.389 . S
C43 C44 1.399 . S
C43 H56 0.931 . S
C44 C43 1.399 . S
C44 C45 1.390 . S
C45 C40 1.392 . S
C45 C44 1.390 . S
C45 H57 0.929 . S
O46 Tb30 2.326 . S
O46 C34 1.242 . S
O47 Eu31 2.324 . S
O47 C34 1.258 . S
O48 Tb30 2.500 . S
O48 C50 1.273 . S
O49 Tb30 2.473 . S
O49 C50 1.257 . S
C50 O48 1.273 . S
C50 O49 1.257 . S
O51 Eu31 2.326 . S
O51 C39 1.242 . S
O52 Tb30 2.324 . S
O52 C39 1.258 . S
O53 Eu31 2.500 . S
O53 C36 1.273 . S
O54 Eu31 2.473 . S
O54 C36 1.257 . S
H55 C41 0.929 . S
H56 C43 0.931 . S
H57 C45 0.929 . S
O58 Tb59 2.292 . S
O58 C61 1.255 . S
Tb59 O58 2.292 . S
Tb59 O75 2.326 . S
Tb59 O77 2.500 . S
Tb59 O78 2.473 . S
Tb59 O81 2.324 . S
Eu60 O64 2.292 . S
Eu60 C65 2.852 . S
Eu60 O76 2.324 . S
Eu60 O80 2.326 . S
Eu60 O82 2.500 . S
Eu60 O83 2.473 . S
C61 O58 1.255 . S
C61 O62 1.247 . S
O62 C61 1.247 . S
C63 O75 1.242 . S
C63 O76 1.258 . S
O64 Eu60 2.292 . S
O64 C66 1.255 . S
C65 Eu60 2.852 . S
C65 C69 1.503 . S
C65 O82 1.273 . S
C65 O83 1.257 . S
C66 O64 1.255 . S
C66 O67 1.247 . S
O67 C66 1.247 . S
C68 O80 1.242 . S
C68 O81 1.258 . S
C69 C65 1.503 . S
C69 C70 1.379 . S
C69 C74 1.392 . S
C70 C69 1.379 . S
C70 C71 1.404 . S
C70 H84 0.929 . S
C71 C70 1.404 . S
C71 C72 1.389 . S
C72 C71 1.389 . S
C72 C73 1.399 . S
C72 H85 0.931 . S
C73 C72 1.399 . S
C73 C74 1.390 . S
C74 C69 1.392 . S
C74 C73 1.390 . S
C74 H86 0.929 . S
O75 Tb59 2.326 . S
O75 C63 1.242 . S
O76 Eu60 2.324 . S
O76 C63 1.258 . S
O77 Tb59 2.500 . S
O77 C79 1.273 . S
O78 Tb59 2.473 . S
O78 C79 1.257 . S
C79 O77 1.273 . S
C79 O78 1.257 . S
O80 Eu60 2.326 . S
O80 C68 1.242 . S
O81 Tb59 2.324 . S
O81 C68 1.258 . S
O82 Eu60 2.500 . S
O82 C65 1.273 . S
O83 Eu60 2.473 . S
O83 C65 1.257 . S
H84 C70 0.929 . S
H85 C72 0.931 . S
H86 C74 0.929 . S
O87 Tb88 2.292 . S
O87 C90 1.255 . S
Tb88 O87 2.292 . S
Tb88 O104 2.326 . S
Tb88 O106 2.500 . S
Tb88 O107 2.473 . S
Tb88 O110 2.324 . S
Eu89 O93 2.292 . S
Eu89 C94 2.852 . S
Eu89 O105 2.324 . S
Eu89 O109 2.326 . S
Eu89 O111 2.500 . S
Eu89 O112 2.473 . S
C90 O87 1.255 . S
C90 O91 1.247 . S
O91 C90 1.247 . S
C92 O104 1.242 . S
C92 O105 1.258 . S
O93 Eu89 2.292 . S
O93 C95 1.255 . S
C94 Eu89 2.852 . S
C94 C98 1.503 . S
C94 O111 1.273 . S
C94 O112 1.257 . S
C95 O93 1.255 . S
C95 O96 1.247 . S
O96 C95 1.247 . S
C97 O109 1.242 . S
C97 O110 1.258 . S
C98 C94 1.503 . S
C98 C99 1.379 . S
C98 C103 1.392 . S
C99 C98 1.379 . S
C99 C100 1.404 . S
C99 H113 0.929 . S
C100 C99 1.404 . S
C100 C101 1.389 . S
C101 C100 1.389 . S
C101 C102 1.399 . S
C101 H114 0.931 . S
C102 C101 1.399 . S
C102 C103 1.390 . S
C103 C98 1.392 . S
C103 C102 1.390 . S
C103 H115 0.929 . S
O104 Tb88 2.326 . S
O104 C92 1.242 . S
O105 Eu89 2.324 . S
O105 C92 1.258 . S
O106 Tb88 2.500 . S
O106 C108 1.273 . S
O107 Tb88 2.473 . S
O107 C108 1.257 . S
C108 O106 1.273 . S
C108 O107 1.257 . S
O109 Eu89 2.326 . S
O109 C97 1.242 . S
O110 Tb88 2.324 . S
O110 C97 1.258 . S
O111 Eu89 2.500 . S
O111 C94 1.273 . S
O112 Eu89 2.473 . S
O112 C94 1.257 . S
H113 C99 0.929 . S
H114 C101 0.931 . S
H115 C103 0.929 . S
O116 Tb117 2.272 1_565 S
O116 C119 1.258 . S
Tb117 O116 2.272 1_545 S
Tb117 O133 2.326 . S
Tb117 O135 2.500 1_545 S
Tb117 O136 2.473 . S
Tb117 O139 2.324 . S
Eu118 O122 2.292 . S
Eu118 C123 2.852 . S
Eu118 O134 2.324 . S
Eu118 O138 2.326 . S
Eu118 O140 2.500 . S
Eu118 O141 2.473 . S
C119 O116 1.258 . S
C119 O120 1.247 1_565 S
O120 C119 1.247 1_545 S
C121 O133 1.242 . S
C121 O134 1.258 . S
O122 Eu118 2.292 . S
O122 C124 1.255 . S
C123 Eu118 2.852 . S
C123 C127 1.503 . S
C123 O140 1.273 . S
C123 O141 1.257 . S
C124 O122 1.255 . S
C124 O125 1.247 . S
O125 C124 1.247 . S
C126 O138 1.242 . S
C126 O139 1.258 . S
C127 C123 1.503 . S
C127 C128 1.379 . S
C127 C132 1.392 . S
C128 C127 1.379 . S
C128 C129 1.404 . S
C128 H142 0.929 . S
C129 C128 1.404 . S
C129 C130 1.389 . S
C130 C129 1.389 . S
C130 C131 1.399 . S
C130 H143 0.931 . S
C131 C130 1.399 . S
C131 C132 1.390 . S
C132 C127 1.392 . S
C132 C131 1.390 . S
C132 H144 0.929 . S
O133 Tb117 2.326 . S
O133 C121 1.242 . S
O134 Eu118 2.324 . S
O134 C121 1.258 . S
O135 Tb117 2.500 1_565 S
O135 C137 1.273 1_565 S
O136 Tb117 2.473 . S
O136 C137 1.257 . S
C137 O135 1.273 1_545 S
C137 O136 1.257 . S
O138 Eu118 2.326 . S
O138 C126 1.242 . S
O139 Tb117 2.324 . S
O139 C126 1.258 . S
O140 Eu118 2.500 . S
O140 C123 1.273 . S
O141 Eu118 2.473 . S
O141 C123 1.257 . S
H142 C128 0.929 . S
H143 C130 0.931 . S
H144 C132 0.929 . S
O145 Tb146 2.272 1_655 S
O145 C148 1.258 . S
Tb146 O145 2.272 1_455 S
Tb146 O162 2.326 . S
Tb146 O164 2.500 1_455 S
Tb146 O165 2.473 . S
Tb146 O168 2.324 . S
Eu147 O151 2.292 . S
Eu147 C152 2.852 . S
Eu147 O163 2.324 . S
Eu147 O167 2.326 . S
Eu147 O169 2.500 . S
Eu147 O170 2.473 . S
C148 O145 1.258 . S
C148 O149 1.247 1_655 S
O149 C148 1.247 1_455 S
C150 O162 1.242 . S
C150 O163 1.258 . S
O151 Eu147 2.292 . S
O151 C153 1.255 . S
C152 Eu147 2.852 . S
C152 C156 1.503 . S
C152 O169 1.273 . S
C152 O170 1.257 . S
C153 O151 1.255 . S
C153 O154 1.247 . S
O154 C153 1.247 . S
C155 O167 1.242 . S
C155 O168 1.258 . S
C156 C152 1.503 . S
C156 C157 1.379 . S
C156 C161 1.392 . S
C157 C156 1.379 . S
C157 C158 1.404 . S
C157 H171 0.929 . S
C158 C157 1.404 . S
C158 C159 1.389 . S
C159 C158 1.389 . S
C159 C160 1.399 . S
C159 H172 0.931 . S
C160 C159 1.399 . S
C160 C161 1.390 . S
C161 C156 1.392 . S
C161 C160 1.390 . S
C161 H173 0.929 . S
O162 Tb146 2.326 . S
O162 C150 1.242 . S
O163 Eu147 2.324 . S
O163 C150 1.258 . S
O164 Tb146 2.500 1_655 S
O164 C166 1.273 1_655 S
O165 Tb146 2.473 . S
O165 C166 1.257 . S
C166 O164 1.273 1_455 S
C166 O165 1.257 . S
O167 Eu147 2.326 . S
O167 C155 1.242 . S
O168 Tb146 2.324 . S
O168 C155 1.258 . S
O169 Eu147 2.500 . S
O169 C152 1.273 . S
O170 Eu147 2.473 . S
O170 C152 1.257 . S
H171 C157 0.929 . S
H172 C159 0.931 . S
H173 C161 0.929 . S
O174 Tb175 2.272 1_545 S
O174 C177 1.258 . S
Tb175 O174 2.272 1_565 S
Tb175 O191 2.326 . S
Tb175 O193 2.500 1_565 S
Tb175 O194 2.473 . S
Tb175 O197 2.324 . S
Eu176 O180 2.292 . S
Eu176 C181 2.852 . S
Eu176 O192 2.324 . S
Eu176 O196 2.326 . S
Eu176 O198 2.500 . S
Eu176 O199 2.473 . S
C177 O174 1.258 . S
C177 O178 1.247 1_545 S
O178 C177 1.247 1_565 S
C179 O191 1.242 . S
C179 O192 1.258 . S
O180 Eu176 2.292 . S
O180 C182 1.255 . S
C181 Eu176 2.852 . S
C181 C185 1.503 . S
C181 O198 1.273 . S
C181 O199 1.257 . S
C182 O180 1.255 . S
C182 O183 1.247 . S
O183 C182 1.247 . S
C184 O196 1.242 . S
C184 O197 1.258 . S
C185 C181 1.503 . S
C185 C186 1.379 . S
C185 C190 1.392 . S
C186 C185 1.379 . S
C186 C187 1.404 . S
C186 H200 0.929 . S
C187 C186 1.404 . S
C187 C188 1.389 . S
C188 C187 1.389 . S
C188 C189 1.399 . S
C188 H201 0.931 . S
C189 C188 1.399 . S
C189 C190 1.390 . S
C190 C185 1.392 . S
C190 C189 1.390 . S
C190 H202 0.929 . S
O191 Tb175 2.326 . S
O191 C179 1.242 . S
O192 Eu176 2.324 . S
O192 C179 1.258 . S
O193 Tb175 2.500 1_545 S
O193 C195 1.273 1_545 S
O194 Tb175 2.473 . S
O194 C195 1.257 . S
C195 O193 1.273 1_565 S
C195 O194 1.257 . S
O196 Eu176 2.326 . S
O196 C184 1.242 . S
O197 Tb175 2.324 . S
O197 C184 1.258 . S
O198 Eu176 2.500 . S
O198 C181 1.273 . S
O199 Eu176 2.473 . S
O199 C181 1.257 . S
H200 C186 0.929 . S
H201 C188 0.931 . S
H202 C190 0.929 . S
O203 Tb204 2.272 1_455 S
O203 C206 1.258 . S
Tb204 O203 2.272 1_655 S
Tb204 O220 2.326 . S
Tb204 O222 2.500 1_655 S
Tb204 O223 2.473 . S
Tb204 O226 2.324 . S
Eu205 O209 2.292 . S
Eu205 C210 2.852 . S
Eu205 O221 2.324 . S
Eu205 O225 2.326 . S
Eu205 O227 2.500 . S
Eu205 O228 2.473 . S
C206 O203 1.258 . S
C206 O207 1.247 1_455 S
O207 C206 1.247 1_655 S
C208 O220 1.242 . S
C208 O221 1.258 . S
O209 Eu205 2.292 . S
O209 C211 1.255 . S
C210 Eu205 2.852 . S
C210 C214 1.503 . S
C210 O227 1.273 . S
C210 O228 1.257 . S
C211 O209 1.255 . S
C211 O212 1.247 . S
O212 C211 1.247 . S
C213 O225 1.242 . S
C213 O226 1.258 . S
C214 C210 1.503 . S
C214 C215 1.379 . S
C214 C219 1.392 . S
C215 C214 1.379 . S
C215 C216 1.404 . S
C215 H229 0.929 . S
C216 C215 1.404 . S
C216 C217 1.389 . S
C217 C216 1.389 . S
C217 C218 1.399 . S
C217 H230 0.931 . S
C218 C217 1.399 . S
C218 C219 1.390 . S
C219 C214 1.392 . S
C219 C218 1.390 . S
C219 H231 0.929 . S
O220 Tb204 2.326 . S
O220 C208 1.242 . S
O221 Eu205 2.324 . S
O221 C208 1.258 . S
O222 Tb204 2.500 1_455 S
O222 C224 1.273 1_455 S
O223 Tb204 2.473 . S
O223 C224 1.257 . S
C224 O222 1.273 1_655 S
C224 O223 1.257 . S
O225 Eu205 2.326 . S
O225 C213 1.242 . S
O226 Tb204 2.324 . S
O226 C213 1.258 . S
O227 Eu205 2.500 . S
O227 C210 1.273 . S
O228 Eu205 2.473 . S
O228 C210 1.257 . S
H229 C215 0.929 . S
H230 C217 0.931 . S
H231 C219 0.929 . S
H232 C238 0.930 . S
H233 C242 0.930 . S
H234 C247 0.929 . S
H235 C245 0.929 . S
H236 C240 0.929 . S
H237 C246 0.929 . S
C238 H232 0.930 . S
C238 C239 1.367 . S
C238 C246 1.378 1_554 S
C239 C238 1.367 . S
C239 C247 1.433 . S
C240 H236 0.929 . S
C240 C242 1.378 . S
C240 C244 1.350 . S
C241 C244 1.463 . S
C241 C246 1.350 . S
C241 N249 1.427 . S
C242 H233 0.930 . S
C242 C240 1.378 . S
C242 C243 1.367 . S
C243 C242 1.367 . S
C243 C245 1.433 . S
C244 C240 1.350 . S
C244 C241 1.463 . S
C244 N248 1.427 . S
C245 H235 0.929 . S
C245 C243 1.433 . S
C245 N248 1.384 . S
C246 H237 0.929 . S
C246 C238 1.378 1_556 S
C246 C241 1.350 . S
C247 H234 0.929 . S
C247 C239 1.433 . S
C247 N249 1.384 1_554 S
N248 C244 1.427 . S
N248 C245 1.384 . S
N249 C241 1.427 . S
N249 C247 1.384 1_556 S
H250 C256 0.930 . S
H251 C260 0.930 . S
H252 C265 0.929 . S
H253 C263 0.929 . S
H254 C258 0.929 . S
H255 C264 0.929 . S
C256 H250 0.930 . S
C256 C257 1.367 . S
C256 C264 1.378 1_556 S
C257 C256 1.367 . S
C257 C265 1.433 . S
C258 H254 0.929 . S
C258 C260 1.378 . S
C258 C262 1.350 . S
C259 C262 1.463 . S
C259 C264 1.350 . S
C259 N267 1.427 . S
C260 H251 0.930 . S
C260 C258 1.378 . S
C260 C261 1.367 . S
C261 C260 1.367 . S
C261 C263 1.433 . S
C262 C258 1.350 . S
C262 C259 1.463 . S
C262 N266 1.427 . S
C263 H253 0.929 . S
C263 C261 1.433 . S
C263 N266 1.384 . S
C264 H255 0.929 . S
C264 C256 1.378 1_554 S
C264 C259 1.350 . S
C265 H252 0.929 . S
C265 C257 1.433 . S
C265 N267 1.384 1_556 S
N266 C262 1.427 . S
N266 C263 1.384 . S
N267 C259 1.427 . S
N267 C265 1.384 1_554 S
H268 C274 0.930 . S
H269 C278 0.930 . S
H270 C283 0.929 . S
H271 C281 0.929 . S
H272 C276 0.929 . S
H273 C282 0.929 . S
C274 H268 0.930 . S
C274 C275 1.367 . S
C274 C282 1.378 . S
C275 C274 1.367 . S
C275 C283 1.433 . S
C276 H272 0.929 . S
C276 C278 1.378 1_556 S
C276 C280 1.350 . S
C277 C280 1.463 . S
C277 C282 1.350 . S
C277 N285 1.427 . S
C278 H269 0.930 . S
C278 C276 1.378 1_554 S
C278 C279 1.367 . S
C279 C278 1.367 . S
C279 C281 1.433 . S
C280 C276 1.350 . S
C280 C277 1.463 . S
C280 N284 1.427 . S
C281 H271 0.929 . S
C281 C279 1.433 . S
C281 N284 1.384 1_554 S
C282 H273 0.929 . S
C282 C274 1.378 . S
C282 C277 1.350 . S
C283 H270 0.929 . S
C283 C275 1.433 . S
C283 N285 1.384 . S
N284 C280 1.427 . S
N284 C281 1.384 1_556 S
N285 C277 1.427 . S
N285 C283 1.384 . S
H286 C292 0.930 . S
H287 C296 0.930 . S
H288 C301 0.929 . S
H289 C299 0.929 . S
H290 C294 0.929 . S
H291 C300 0.929 . S
C292 H286 0.930 . S
C292 C293 1.367 . S
C292 C300 1.378 . S
C293 C292 1.367 . S
C293 C301 1.433 . S
C294 H290 0.929 . S
C294 C296 1.378 1_554 S
C294 C298 1.350 . S
C295 C298 1.463 . S
C295 C300 1.350 . S
C295 N303 1.427 . S
C296 H287 0.930 . S
C296 C294 1.378 1_556 S
C296 C297 1.367 . S
C297 C296 1.367 . S
C297 C299 1.433 . S
C298 C294 1.350 . S
C298 C295 1.463 . S
C298 N302 1.427 . S
C299 H289 0.929 . S
C299 C297 1.433 . S
C299 N302 1.384 1_556 S
C300 H291 0.929 . S
C300 C292 1.378 . S
C300 C295 1.350 . S
C301 H288 0.929 . S
C301 C293 1.433 . S
C301 N303 1.384 . S
N302 C298 1.427 . S
N302 C299 1.384 1_554 S
N303 C295 1.427 . S
N303 C301 1.384 . S
H304 C310 0.930 . S
H305 C314 0.930 . S
H306 C319 0.929 . S
H307 C317 0.929 . S
H308 C312 0.929 . S
H309 C318 0.929 . S
C310 H304 0.930 . S
C310 C311 1.367 . S
C310 C318 1.378 . S
C311 C310 1.367 . S
C311 C319 1.433 . S
C312 H308 0.929 . S
C312 C314 1.378 . S
C312 C316 1.350 . S
C313 C316 1.463 . S
C313 C318 1.350 . S
C313 N321 1.427 . S
C314 H305 0.930 . S
C314 C312 1.378 . S
C314 C315 1.367 . S
C315 C314 1.367 . S
C315 C317 1.433 . S
C316 C312 1.350 . S
C316 C313 1.463 . S
C316 N320 1.427 . S
C317 H307 0.929 . S
C317 C315 1.433 . S
C317 N320 1.384 . S
C318 H309 0.929 . S
C318 C310 1.378 . S
C318 C313 1.350 . S
C319 H306 0.929 . S
C319 C311 1.433 . S
C319 N321 1.384 . S
N320 C316 1.427 . S
N320 C317 1.384 . S
N321 C313 1.427 . S
N321 C319 1.384 . S
H322 C328 0.930 . S
H323 C332 0.930 . S
H324 C337 0.929 . S
H325 C335 0.929 . S
H326 C330 0.929 . S
H327 C336 0.929 . S
C328 H322 0.930 . S
C328 C329 1.367 . S
C328 C336 1.378 . S
C329 C328 1.367 . S
C329 C337 1.433 . S
C330 H326 0.929 . S
C330 C332 1.378 . S
C330 C334 1.350 . S
C331 C334 1.463 . S
C331 C336 1.350 . S
C331 N339 1.427 . S
C332 H323 0.930 . S
C332 C330 1.378 . S
C332 C333 1.367 . S
C333 C332 1.367 . S
C333 C335 1.433 . S
C334 C330 1.350 . S
C334 C331 1.463 . S
C334 N338 1.427 . S
C335 H325 0.929 . S
C335 C333 1.433 . S
C335 N338 1.384 . S
C336 H327 0.929 . S
C336 C328 1.378 . S
C336 C331 1.350 . S
C337 H324 0.929 . S
C337 C329 1.433 . S
C337 N339 1.384 . S
N338 C334 1.427 . S
N338 C335 1.384 . S
N339 C331 1.427 . S
N339 C337 1.384 . S
H340 C346 0.930 . S
H341 C350 0.930 . S
H342 C355 0.929 . S
H343 C353 0.929 . S
H344 C348 0.929 . S
H345 C354 0.929 . S
C346 H340 0.930 . S
C346 C347 1.367 . S
C346 C354 1.378 . S
C347 C346 1.367 . S
C347 C355 1.433 . S
C348 H344 0.929 . S
C348 C350 1.378 . S
C348 C352 1.350 . S
C349 C352 1.463 . S
C349 C354 1.350 . S
C349 N357 1.427 . S
C350 H341 0.930 . S
C350 C348 1.378 . S
C350 C351 1.367 . S
C351 C350 1.367 . S
C351 C353 1.433 . S
C352 C348 1.350 . S
C352 C349 1.463 . S
C352 N356 1.427 . S
C353 H343 0.929 . S
C353 C351 1.433 . S
C353 N356 1.384 . S
C354 H345 0.929 . S
C354 C346 1.378 . S
C354 C349 1.350 . S
C355 H342 0.929 . S
C355 C347 1.433 . S
C355 N357 1.384 . S
N356 C352 1.427 . S
N356 C353 1.384 . S
N357 C349 1.427 . S
N357 C355 1.384 . S
H358 C364 0.930 . S
H359 C368 0.930 . S
H360 C373 0.929 . S
H361 C371 0.929 . S
H362 C366 0.929 . S
H363 C372 0.929 . S
C364 H358 0.930 . S
C364 C365 1.367 . S
C364 C372 1.378 . S
C365 C364 1.367 . S
C365 C373 1.433 . S
C366 H362 0.929 . S
C366 C368 1.378 . S
C366 C370 1.350 . S
C367 C370 1.463 . S
C367 C372 1.350 . S
C367 N375 1.427 . S
C368 H359 0.930 . S
C368 C366 1.378 . S
C368 C369 1.367 . S
C369 C368 1.367 . S
C369 C371 1.433 . S
C370 C366 1.350 . S
C370 C367 1.463 . S
C370 N374 1.427 . S
C371 H361 0.929 . S
C371 C369 1.433 . S
C371 N374 1.384 . S
C372 H363 0.929 . S
C372 C364 1.378 . S
C372 C367 1.350 . S
C373 H360 0.929 . S
C373 C365 1.433 . S
C373 N375 1.384 . S
N374 C370 1.427 . S
N374 C371 1.384 . S
N375 C367 1.427 . S
N375 C373 1.384 . S
H376 C382 0.930 . S
H377 C386 0.930 1_556 S
H378 C391 0.929 . S
H379 C389 0.929 . S
H380 C384 0.929 . S
H381 C390 0.929 . S
C382 H376 0.930 . S
C382 C383 1.367 . S
C382 C390 1.378 1_556 S
C383 C382 1.367 . S
C383 C391 1.433 . S
C384 H380 0.929 . S
C384 C386 1.378 1_556 S
C384 C388 1.350 1_556 S
C385 C388 1.463 1_556 S
C385 C390 1.350 1_556 S
C385 N393 1.427 . S
C386 H377 0.930 1_554 S
C386 C384 1.378 1_554 S
C386 C387 1.367 . S
C387 C386 1.367 . S
C387 C389 1.433 . S
C388 C384 1.350 1_554 S
C388 C385 1.463 1_554 S
C388 N392 1.427 . S
C389 H379 0.929 . S
C389 C387 1.433 . S
C389 N392 1.384 . S
C390 H381 0.929 . S
C390 C382 1.378 1_554 S
C390 C385 1.350 1_554 S
C391 H378 0.929 . S
C391 C383 1.433 . S
C391 N393 1.384 . S
N392 C388 1.427 . S
N392 C389 1.384 . S
N393 C385 1.427 . S
N393 C391 1.384 . S
H394 C400 0.930 . S
H395 C404 0.930 . S
H396 C409 0.929 . S
H397 C407 0.929 1_554 S
H398 C402 0.929 . S
H399 C408 0.929 . S
C400 H394 0.930 . S
C400 C401 1.367 . S
C400 C408 1.378 . S
C401 C400 1.367 . S
C401 C409 1.433 . S
C402 H398 0.929 . S
C402 C404 1.378 . S
C402 C406 1.350 . S
C403 C406 1.463 1_554 S
C403 C408 1.350 . S
C403 N411 1.427 . S
C404 H395 0.930 . S
C404 C402 1.378 . S
C404 C405 1.367 . S
C405 C404 1.367 . S
C405 C407 1.433 . S
C406 C402 1.350 . S
C406 C403 1.463 1_556 S
C406 N410 1.427 1_556 S
C407 H397 0.929 1_556 S
C407 C405 1.433 . S
C407 N410 1.384 1_556 S
C408 H399 0.929 . S
C408 C400 1.378 . S
C408 C403 1.350 . S
C409 H396 0.929 . S
C409 C401 1.433 . S
C409 N411 1.384 . S
N410 C406 1.427 1_554 S
N410 C407 1.384 1_554 S
N411 C403 1.427 . S
N411 C409 1.384 . S
H412 C418 0.930 . S
H413 C422 0.930 . S
H414 C427 0.929 . S
H415 C425 0.929 . S
H416 C420 0.920 1_556 S
H417 C426 0.929 . S
C418 H412 0.930 . S
C418 C419 1.367 . S
C418 C426 1.378 . S
C419 C418 1.367 . S
C419 C427 1.433 . S
C420 H416 0.920 1_554 S
C420 C422 1.386 . S
C420 C424 1.350 . S
C421 C424 1.463 1_556 S
C421 C426 1.350 . S
C421 N429 1.427 . S
C422 H413 0.930 . S
C422 C420 1.386 . S
C422 C423 1.367 . S
C423 C422 1.367 . S
C423 C425 1.433 . S
C424 C420 1.350 . S
C424 C421 1.463 1_554 S
C424 N428 1.427 . S
C425 H415 0.929 . S
C425 C423 1.433 . S
C425 N428 1.384 . S
C426 H417 0.929 . S
C426 C418 1.378 . S
C426 C421 1.350 . S
C427 H414 0.929 . S
C427 C419 1.433 . S
C427 N429 1.384 . S
N428 C424 1.427 . S
N428 C425 1.384 . S
N429 C421 1.427 . S
N429 C427 1.384 . S
H430 C436 0.930 . S
H431 C440 0.930 . S
H432 C445 0.929 . S
H433 C443 0.929 . S
H434 C438 0.929 . S
H435 C444 0.929 1_554 S
C436 H430 0.930 . S
C436 C437 1.367 . S
C436 C444 1.378 . S
C437 C436 1.367 . S
C437 C445 1.433 . S
C438 H434 0.929 . S
C438 C440 1.378 . S
C438 C442 1.350 . S
C439 C442 1.463 1_556 S
C439 C444 1.350 . S
C439 N447 1.427 . S
C440 H431 0.930 . S
C440 C438 1.378 . S
C440 C441 1.367 . S
C441 C440 1.367 . S
C441 C443 1.433 . S
C442 C438 1.350 . S
C442 C439 1.463 1_554 S
C442 N446 1.427 . S
C443 H433 0.929 . S
C443 C441 1.433 . S
C443 N446 1.384 . S
C444 H435 0.929 1_556 S
C444 C436 1.378 . S
C444 C439 1.350 . S
C445 H432 0.929 . S
C445 C437 1.433 . S
C445 N447 1.384 . S
N446 C442 1.427 . S
N446 C443 1.384 . S
N447 C439 1.427 . S
N447 C445 1.384 . S
H448 C454 0.930 . S
H449 C458 0.930 . S
H450 C463 0.929 . S
H451 C461 0.929 1_455 S
H452 C456 0.929 . S
H453 C462 0.929 . S
C454 H448 0.930 . S
C454 C455 1.367 . S
C454 C462 1.378 . S
C455 C454 1.367 . S
C455 C463 1.433 . S
C456 H452 0.929 . S
C456 C458 1.378 . S
C456 C460 1.350 . S
C457 C460 1.463 . S
C457 C462 1.350 . S
C457 N465 1.427 . S
C458 H449 0.930 . S
C458 C456 1.378 . S
C458 C459 1.367 1_655 S
C459 C458 1.367 1_455 S
C459 C461 1.433 1_455 S
C460 C456 1.350 . S
C460 C457 1.463 . S
C460 N464 1.427 . S
C461 H451 0.929 1_655 S
C461 C459 1.433 1_655 S
C461 N464 1.384 . S
C462 H453 0.929 . S
C462 C454 1.378 . S
C462 C457 1.350 . S
C463 H450 0.929 . S
C463 C455 1.433 . S
C463 N465 1.384 . S
N464 C460 1.427 . S
N464 C461 1.384 . S
N465 C457 1.427 . S
N465 C463 1.384 . S
H466 C472 0.930 . S
H467 C476 0.930 1_565 S
H468 C481 0.929 . S
H469 C479 0.929 . S
H470 C474 0.929 . S
H471 C480 0.929 . S
C472 H466 0.930 . S
C472 C473 1.367 . S
C472 C480 1.378 . S
C473 C472 1.367 . S
C473 C481 1.433 . S
C474 H470 0.929 . S
C474 C476 1.378 . S
C474 C478 1.350 . S
C475 C478 1.463 . S
C475 C480 1.350 . S
C475 N483 1.427 . S
C476 H467 0.930 1_545 S
C476 C474 1.378 . S
C476 C477 1.367 1_545 S
C477 C476 1.367 1_565 S
C477 C479 1.433 1_565 S
C478 C474 1.350 . S
C478 C475 1.463 . S
C478 N482 1.427 . S
C479 H469 0.929 . S
C479 C477 1.433 1_545 S
C479 N482 1.384 . S
C480 H471 0.929 . S
C480 C472 1.378 . S
C480 C475 1.350 . S
C481 H468 0.929 . S
C481 C473 1.433 . S
C481 N483 1.384 . S
N482 C478 1.427 . S
N482 C479 1.384 . S
N483 C475 1.427 . S
N483 C481 1.384 . S
H484 C490 0.930 . S
H485 C494 0.935 . S
H486 C499 0.929 . S
H487 C497 0.929 . S
H488 C492 0.929 . S
H489 C498 0.929 . S
C490 H484 0.930 . S
C490 C491 1.367 . S
C490 C498 1.378 . S
C491 C490 1.367 . S
C491 C499 1.433 . S
C492 H488 0.929 . S
C492 C494 1.378 . S
C492 C496 1.350 . S
C493 C496 1.463 . S
C493 C498 1.350 . S
C493 N501 1.427 . S
C494 H485 0.935 . S
C494 C492 1.378 . S
C494 C495 1.367 1_455 S
C495 C494 1.367 1_655 S
C495 C497 1.433 1_655 S
C496 C492 1.350 . S
C496 C493 1.463 . S
C496 N500 1.427 . S
C497 H487 0.929 . S
C497 C495 1.433 1_455 S
C497 N500 1.384 . S
C498 H489 0.929 . S
C498 C490 1.378 . S
C498 C493 1.350 . S
C499 H486 0.929 . S
C499 C491 1.433 . S
C499 N501 1.384 . S
N500 C496 1.427 . S
N500 C497 1.384 . S
N501 C493 1.427 . S
N501 C499 1.384 . S
H502 C508 0.930 . S
H503 C512 0.930 . S
H504 C517 0.929 . S
H505 C515 0.929 . S
H506 C510 0.929 . S
H507 C516 0.929 . S
C508 H502 0.930 . S
C508 C509 1.367 1_565 S
C508 C516 1.378 . S
C509 C508 1.367 1_545 S
C509 C517 1.433 . S
C510 H506 0.929 . S
C510 C512 1.378 . S
C510 C514 1.350 . S
C511 C514 1.463 . S
C511 C516 1.350 . S
C511 N519 1.427 . S
C512 H503 0.930 . S
C512 C510 1.378 . S
C512 C513 1.367 . S
C513 C512 1.367 . S
C513 C515 1.433 . S
C514 C510 1.350 . S
C514 C511 1.463 . S
C514 N518 1.427 . S
C515 H505 0.929 . S
C515 C513 1.433 . S
C515 N518 1.384 . S
C516 H507 0.929 . S
C516 C508 1.378 . S
C516 C511 1.350 . S
C517 H504 0.929 . S
C517 C509 1.433 . S
C517 N519 1.384 1_545 S
N518 C514 1.427 . S
N518 C515 1.384 . S
N519 C511 1.427 . S
N519 C517 1.384 1_565 S
H520 C526 0.930 . S
H521 C530 0.930 . S
H522 C535 0.929 . S
H523 C533 0.929 . S
H524 C528 0.929 . S
H525 C534 0.929 . S
C526 H520 0.930 . S
C526 C527 1.367 . S
C526 C534 1.378 . S
C527 C526 1.367 . S
C527 C535 1.433 . S
C528 H524 0.929 . S
C528 C530 1.378 . S
C528 C532 1.350 . S
C529 C532 1.463 . S
C529 C534 1.350 . S
C529 N537 1.427 . S
C530 H521 0.930 . S
C530 C528 1.378 . S
C530 C531 1.367 . S
C531 C530 1.367 . S
C531 C533 1.433 . S
C532 C528 1.350 . S
C532 C529 1.463 . S
C532 N536 1.427 . S
C533 H523 0.929 . S
C533 C531 1.433 . S
C533 N536 1.384 . S
C534 H525 0.929 . S
C534 C526 1.378 . S
C534 C529 1.350 . S
C535 H522 0.929 . S
C535 C527 1.433 . S
C535 N537 1.384 . S
N536 C532 1.427 . S
N536 C533 1.384 . S
N537 C529 1.427 . S
N537 C535 1.384 . S
H538 C544 0.930 . S
H539 C548 0.930 . S
H540 C553 0.929 . S
H541 C551 0.929 . S
H542 C546 0.929 . S
H543 C552 0.929 . S
C544 H538 0.930 . S
C544 C545 1.367 . S
C544 C552 1.378 . S
C545 C544 1.367 . S
C545 C553 1.433 . S
C546 H542 0.929 . S
C546 C548 1.378 . S
C546 C550 1.350 . S
C547 C550 1.463 . S
C547 C552 1.350 . S
C547 N555 1.427 . S
C548 H539 0.930 . S
C548 C546 1.378 . S
C548 C549 1.367 . S
C549 C548 1.367 . S
C549 C551 1.433 . S
C550 C546 1.350 . S
C550 C547 1.463 . S
C550 N554 1.427 . S
C551 H541 0.929 . S
C551 C549 1.433 . S
C551 N554 1.384 . S
C552 H543 0.929 . S
C552 C544 1.378 . S
C552 C547 1.350 . S
C553 H540 0.929 . S
C553 C545 1.433 . S
C553 N555 1.384 . S
N554 C550 1.427 . S
N554 C551 1.384 . S
N555 C547 1.427 . S
N555 C553 1.384 . S
H556 C562 0.930 . S
H557 C566 0.930 . S
H558 C571 0.929 . S
H559 C569 0.929 . S
H560 C564 0.929 . S
H561 C570 0.929 . S
C562 H556 0.930 . S
C562 C563 1.367 . S
C562 C570 1.378 . S
C563 C562 1.367 . S
C563 C571 1.433 . S
C564 H560 0.929 . S
C564 C566 1.378 . S
C564 C568 1.350 . S
C565 C568 1.463 1_645 S
C565 C570 1.350 . S
C565 N573 1.427 . S
C566 H557 0.930 . S
C566 C564 1.378 . S
C566 C567 1.367 . S
C567 C566 1.367 . S
C567 C569 1.433 . S
C568 C564 1.350 . S
C568 C565 1.463 1_465 S
C568 N572 1.427 . S
C569 H559 0.929 . S
C569 C567 1.433 . S
C569 N572 1.384 . S
C570 H561 0.929 . S
C570 C562 1.378 . S
C570 C565 1.350 . S
C571 H558 0.929 . S
C571 C563 1.433 . S
C571 N573 1.384 . S
N572 C568 1.427 . S
N572 C569 1.384 . S
N573 C565 1.427 . S
N573 C571 1.384 . S
H574 C580 0.930 . S
H575 C584 0.930 . S
H576 C589 0.929 . S
H577 C587 0.929 . S
H578 C582 0.929 . S
H579 C588 0.929 . S
C580 H574 0.930 . S
C580 C581 1.367 . S
C580 C588 1.378 . S
C581 C580 1.367 . S
C581 C589 1.433 1_455 S
C582 H578 0.929 . S
C582 C584 1.378 . S
C582 C586 1.350 . S
C583 C586 1.463 1_445 S
C583 C588 1.350 . S
C583 N591 1.427 1_455 S
C584 H575 0.930 . S
C584 C582 1.378 . S
C584 C585 1.367 . S
C585 C584 1.367 . S
C585 C587 1.433 1_655 S
C586 C582 1.350 . S
C586 C583 1.463 1_665 S
C586 N590 1.427 1_655 S
C587 H577 0.929 . S
C587 C585 1.433 1_455 S
C587 N590 1.384 . S
C588 H579 0.929 . S
C588 C580 1.378 . S
C588 C583 1.350 . S
C589 H576 0.929 . S
C589 C581 1.433 1_655 S
C589 N591 1.384 . S
N590 C586 1.427 1_455 S
N590 C587 1.384 . S
N591 C583 1.427 1_655 S
N591 C589 1.384 . S
H592 C598 0.930 . S
H593 C602 0.930 . S
H594 C607 0.929 . S
H595 C605 0.929 . S
H596 C600 0.929 . S
H597 C606 0.929 . S
C598 H592 0.930 . S
C598 C599 1.367 . S
C598 C606 1.378 . S
C599 C598 1.367 . S
C599 C607 1.433 . S
C600 H596 0.929 . S
C600 C602 1.378 . S
C600 C604 1.350 . S
C601 C604 1.463 . S
C601 C606 1.350 . S
C601 N609 1.427 . S
C602 H593 0.930 . S
C602 C600 1.378 . S
C602 C603 1.367 . S
C603 C602 1.367 . S
C603 C605 1.433 . S
C604 C600 1.350 . S
C604 C601 1.463 . S
C604 N608 1.427 . S
C605 H595 0.929 . S
C605 C603 1.433 . S
C605 N608 1.384 . S
C606 H597 0.929 . S
C606 C598 1.378 . S
C606 C601 1.350 . S
C607 H594 0.929 . S
C607 C599 1.433 . S
C607 N609 1.384 . S
N608 C604 1.427 . S
N608 C605 1.384 . S
N609 C601 1.427 . S
N609 C607 1.384 . S
H610 C616 0.930 . S
H611 C620 0.930 . S
H612 C625 0.929 . S
H613 C623 0.929 . S
H614 C618 0.929 . S
H615 C624 0.929 . S
C616 H610 0.930 . S
C616 C617 1.367 . S
C616 C624 1.378 . S
C617 C616 1.367 . S
C617 C625 1.433 . S
C618 H614 0.929 . S
C618 C620 1.378 . S
C618 C622 1.350 . S
C619 C622 1.463 . S
C619 C624 1.350 . S
C619 N627 1.427 . S
C620 H611 0.930 . S
C620 C618 1.378 . S
C620 C621 1.367 . S
C621 C620 1.367 . S
C621 C623 1.433 . S
C622 C618 1.350 . S
C622 C619 1.463 . S
C622 N626 1.427 . S
C623 H613 0.929 . S
C623 C621 1.433 . S
C623 N626 1.384 . S
C624 H615 0.929 . S
C624 C616 1.378 . S
C624 C619 1.350 . S
C625 H612 0.929 . S
C625 C617 1.433 . S
C625 N627 1.384 . S
N626 C622 1.427 . S
N626 C623 1.384 . S
N627 C619 1.427 . S
N627 C625 1.384 . S
H628 C634 0.930 . S
H629 C638 0.930 . S
H630 C643 0.929 . S
H631 C641 0.929 . S
H632 C636 0.929 . S
H633 C642 0.929 . S
C634 H628 0.930 . S
C634 C635 1.367 . S
C634 C642 1.378 . S
C635 C634 1.367 . S
C635 C643 1.433 . S
C636 H632 0.929 . S
C636 C638 1.378 . S
C636 C640 1.350 . S
C637 C640 1.463 . S
C637 C642 1.350 . S
C637 N645 1.427 . S
C638 H629 0.930 . S
C638 C636 1.378 . S
C638 C639 1.367 . S
C639 C638 1.367 . S
C639 C641 1.433 . S
C640 C636 1.350 . S
C640 C637 1.463 . S
C640 N644 1.427 . S
C641 H631 0.929 . S
C641 C639 1.433 . S
C641 N644 1.384 . S
C642 H633 0.929 . S
C642 C634 1.378 . S
C642 C637 1.350 . S
C643 H630 0.929 . S
C643 C635 1.433 . S
C643 N645 1.384 . S
N644 C640 1.427 . S
N644 C641 1.384 . S
N645 C637 1.427 . S
N645 C643 1.384 . S
H646 C652 0.930 . S
H647 C656 0.930 . S
H648 C661 0.929 . S
H649 C659 0.929 . S
H650 C654 0.929 . S
H651 C660 0.929 . S
C652 H646 0.930 . S
C652 C653 1.367 . S
C652 C660 1.378 . S
C653 C652 1.367 . S
C653 C661 1.433 . S
C654 H650 0.929 . S
C654 C656 1.378 . S
C654 C658 1.350 . S
C655 C658 1.463 . S
C655 C660 1.350 . S
C655 N663 1.427 . S
C656 H647 0.930 . S
C656 C654 1.378 . S
C656 C657 1.367 . S
C657 C656 1.367 . S
C657 C659 1.433 . S
C658 C654 1.350 . S
C658 C655 1.463 . S
C658 N662 1.427 . S
C659 H649 0.929 . S
C659 C657 1.433 . S
C659 N662 1.384 . S
C660 H651 0.929 . S
C660 C652 1.378 . S
C660 C655 1.350 . S
C661 H648 0.929 . S
C661 C653 1.433 . S
C661 N663 1.384 . S
N662 C658 1.427 . S
N662 C659 1.384 . S
N663 C655 1.427 . S
N663 C661 1.384 . S
H664 C670 0.930 . S
H665 C674 0.930 . S
H666 C679 0.929 . S
H667 C677 0.929 . S
H668 C672 0.929 . S
H669 C678 0.929 . S
C670 H664 0.930 . S
C670 C671 1.367 . S
C670 C678 1.378 . S
C671 C670 1.367 . S
C671 C679 1.433 . S
C672 H668 0.929 . S
C672 C674 1.378 . S
C672 C676 1.350 . S
C673 C676 1.463 . S
C673 C678 1.350 . S
C673 N681 1.427 . S
C674 H665 0.930 . S
C674 C672 1.378 . S
C674 C675 1.367 . S
C675 C674 1.367 . S
C675 C677 1.433 . S
C676 C672 1.350 . S
C676 C673 1.463 . S
C676 N680 1.427 . S
C677 H667 0.929 . S
C677 C675 1.433 . S
C677 N680 1.384 . S
C678 H669 0.929 . S
C678 C670 1.378 . S
C678 C673 1.350 . S
C679 H666 0.929 . S
C679 C671 1.433 . S
C679 N681 1.384 . S
N680 C676 1.427 . S
N680 C677 1.384 . S
N681 C673 1.427 . S
N681 C679 1.384 . S
H682 C688 0.930 . S
H683 C692 0.930 . S
H684 C697 0.929 . S
H685 C695 0.929 . S
H686 C690 0.929 . S
H687 C696 0.929 . S
C688 H682 0.930 . S
C688 C689 1.367 . S
C688 C696 1.378 . S
C689 C688 1.367 . S
C689 C697 1.433 . S
C690 H686 0.929 . S
C690 C692 1.378 . S
C690 C694 1.350 . S
C691 C694 1.463 . S
C691 C696 1.350 . S
C691 N699 1.427 . S
C692 H683 0.930 . S
C692 C690 1.378 . S
C692 C693 1.367 . S
C693 C692 1.367 . S
C693 C695 1.433 . S
C694 C690 1.350 . S
C694 C691 1.463 . S
C694 N698 1.427 . S
C695 H685 0.929 . S
C695 C693 1.433 . S
C695 N698 1.384 . S
C696 H687 0.929 . S
C696 C688 1.378 . S
C696 C691 1.350 . S
C697 H684 0.929 . S
C697 C689 1.433 . S
C697 N699 1.384 . S
N698 C694 1.427 . S
N698 C695 1.384 . S
N699 C691 1.427 . S
N699 C697 1.384 . S
H700 C706 0.930 . S
H701 C710 0.930 . S
H702 C715 0.929 . S
H703 C713 0.929 . S
H704 C708 0.929 . S
H705 C714 0.929 . S
C706 H700 0.930 . S
C706 C707 1.367 . S
C706 C714 1.378 . S
C707 C706 1.367 . S
C707 C715 1.433 . S
C708 H704 0.929 . S
C708 C710 1.378 . S
C708 C712 1.350 . S
C709 C712 1.463 . S
C709 C714 1.350 . S
C709 N717 1.427 . S
C710 H701 0.930 . S
C710 C708 1.378 . S
C710 C711 1.367 . S
C711 C710 1.367 . S
C711 C713 1.433 . S
C712 C708 1.350 . S
C712 C709 1.463 . S
C712 N716 1.427 . S
C713 H703 0.929 . S
C713 C711 1.433 . S
C713 N716 1.384 . S
C714 H705 0.929 . S
C714 C706 1.378 . S
C714 C709 1.350 . S
C715 H702 0.929 . S
C715 C707 1.433 . S
C715 N717 1.384 . S
N716 C712 1.427 . S
N716 C713 1.384 . S
N717 C709 1.427 . S
N717 C715 1.384 . S
H718 C724 0.930 . S
H719 C728 0.930 . S
H720 C733 0.929 . S
H721 C731 0.929 . S
H722 C726 0.929 . S
H723 C732 0.929 . S
C724 H718 0.930 . S
C724 C725 1.367 . S
C724 C732 1.378 . S
C725 C724 1.367 . S
C725 C733 1.433 . S
C726 H722 0.929 . S
C726 C728 1.378 . S
C726 C730 1.350 . S
C727 C730 1.463 . S
C727 C732 1.350 . S
C727 N735 1.427 . S
C728 H719 0.930 . S
C728 C726 1.378 . S
C728 C729 1.367 . S
C729 C728 1.367 . S
C729 C731 1.433 . S
C730 C726 1.350 . S
C730 C727 1.463 . S
C730 N734 1.427 . S
C731 H721 0.929 . S
C731 C729 1.433 . S
C731 N734 1.384 . S
C732 H723 0.929 . S
C732 C724 1.378 . S
C732 C727 1.350 . S
C733 H720 0.929 . S
C733 C725 1.433 . S
C733 N735 1.384 . S
N734 C730 1.427 . S
N734 C731 1.384 . S
N735 C727 1.427 . S
N735 C733 1.384 . S
C239 C10 2.344 . S
C243 C158 2.204 . S
C257 C39 2.345 . S
C261 C187 2.207 . S
C275 C216 2.211 . S
C279 C68 2.344 . S
C293 C129 2.215 . S
C297 C97 2.341 . S
C311 C126 2.336 . S
C315 C100 2.212 . S
C329 C155 2.344 . S
C333 C13 2.213 . S
C347 C184 2.335 . S
C351 C42 2.209 . S
C365 C213 2.345 . S
C369 C71 2.209 . S
C383 C108 0.604 . S
C387 C8 0.770 . S
C401 C21 0.589 . S
C405 C37 0.761 . S
C419 C50 0.565 . S
C423 C66 0.732 . S
C437 C95 0.780 . S
C441 C79 0.611 . S
C455 C124 0.726 . S
C459 C166 0.556 . S
C473 C153 0.778 . S
C477 C195 0.610 . S
C491 C182 0.726 . S
C495 C224 0.559 . S
C509 C137 0.572 . S
C513 C211 0.744 . S
C527 C5 2.863 . S
C531 C63 2.860 . S
C545 C34 2.864 . S
C549 C92 2.859 . S
C563 C121 2.861 . S
C567 C179 2.854 . S
C581 C150 2.852 . S
C585 C208 2.857 . S
C599 C177 1.490 . S
C603 C15 1.487 . S
C617 C44 1.495 . S
C621 C206 1.485 . S
C635 C73 1.494 . S
C639 C119 1.483 . S
C653 C148 1.490 . S
C657 C102 1.493 . S
C671 C131 1.492 . S
C675 C61 1.482 . S
C689 C90 1.484 . S
C693 C160 1.489 . S
C707 C189 1.491 . S
C711 C3 1.483 . S
C725 C32 1.491 . S
C729 C218 1.492 . S
