# Generated by pormake.
# Topology sth, (5)-cn, num edge types: 1
# Building blocks:
#     Node 0, Type 0, BuildingBlock: XOMCOT_clean_sbu_0, # of connection points: 5
#     Node 1, Type 0, BuildingBlock: XOMCOT_clean_sbu_0, # of connection points: 5
#     Node 2, Type 0, BuildingBlock: XOMCOT_clean_sbu_0, # of connection points: 5
#     Node 3, Type 0, BuildingBlock: XOMCOT_clean_sbu_0, # of connection points: 5
#     Node 4, Type 0, BuildingBlock: XOMCOT_clean_sbu_0, # of connection points: 5
#     Node 5, Type 0, BuildingBlock: XOMCOT_clean_sbu_0, # of connection points: 5
#     Node 6, Type 0, BuildingBlock: XOMCOT_clean_sbu_0, # of connection points: 5
#     Node 7, Type 0, BuildingBlock: XOMCOT_clean_sbu_0, # of connection points: 5
#     Node 8, Type 0, BuildingBlock: XOMCOT_clean_sbu_0, # of connection points: 5
#     Node 9, Type 0, BuildingBlock: XOMCOT_clean_sbu_0, # of connection points: 5
#     Node 10, Type 0, BuildingBlock: XOMCOT_clean_sbu_0, # of connection points: 5
#     Node 11, Type 0, BuildingBlock: XOMCOT_clean_sbu_0, # of connection points: 5
#     Node 12, Type 0, BuildingBlock: XOMCOT_clean_sbu_0, # of connection points: 5
#     Node 13, Type 0, BuildingBlock: XOMCOT_clean_sbu_0, # of connection points: 5
#     Node 14, Type 0, BuildingBlock: XOMCOT_clean_sbu_0, # of connection points: 5
#     Node 15, Type 0, BuildingBlock: XOMCOT_clean_sbu_0, # of connection points: 5
#     Node 16, Type 0, BuildingBlock: XOMCOT_clean_sbu_0, # of connection points: 5
#     Node 17, Type 0, BuildingBlock: XOMCOT_clean_sbu_0, # of connection points: 5
#     Edge 18, Type (0, 0), BuildingBlock: XUDNAN_clean_linker_2, # of connection points: 2
#     Edge 19, Type (0, 0), BuildingBlock: XUDNAN_clean_linker_2, # of connection points: 2
#     Edge 20, Type (0, 0), BuildingBlock: XUDNAN_clean_linker_2, # of connection points: 2
#     Edge 21, Type (0, 0), BuildingBlock: XUDNAN_clean_linker_2, # of connection points: 2
#     Edge 22, Type (0, 0), BuildingBlock: XUDNAN_clean_linker_2, # of connection points: 2
#     Edge 23, Type (0, 0), BuildingBlock: XUDNAN_clean_linker_2, # of connection points: 2
#     Edge 24, Type (0, 0), BuildingBlock: XUDNAN_clean_linker_2, # of connection points: 2
#     Edge 25, Type (0, 0), BuildingBlock: XUDNAN_clean_linker_2, # of connection points: 2
#     Edge 26, Type (0, 0), BuildingBlock: XUDNAN_clean_linker_2, # of connection points: 2
#     Edge 27, Type (0, 0), BuildingBlock: XUDNAN_clean_linker_2, # of connection points: 2
#     Edge 28, Type (0, 0), BuildingBlock: XUDNAN_clean_linker_2, # of connection points: 2
#     Edge 29, Type (0, 0), BuildingBlock: XUDNAN_clean_linker_2, # of connection points: 2
#     Edge 30, Type (0, 0), BuildingBlock: XUDNAN_clean_linker_2, # of connection points: 2
#     Edge 31, Type (0, 0), BuildingBlock: XUDNAN_clean_linker_2, # of connection points: 2
#     Edge 32, Type (0, 0), BuildingBlock: XUDNAN_clean_linker_2, # of connection points: 2
#     Edge 33, Type (0, 0), BuildingBlock: XUDNAN_clean_linker_2, # of connection points: 2
#     Edge 34, Type (0, 0), BuildingBlock: XUDNAN_clean_linker_2, # of connection points: 2
#     Edge 35, Type (0, 0), BuildingBlock: XUDNAN_clean_linker_2, # of connection points: 2
#     Edge 36, Type (0, 0), BuildingBlock: XUDNAN_clean_linker_2, # of connection points: 2
#     Edge 37, Type (0, 0), BuildingBlock: XUDNAN_clean_linker_2, # of connection points: 2
#     Edge 38, Type (0, 0), BuildingBlock: XUDNAN_clean_linker_2, # of connection points: 2
#     Edge 39, Type (0, 0), BuildingBlock: XUDNAN_clean_linker_2, # of connection points: 2
#     Edge 40, Type (0, 0), BuildingBlock: XUDNAN_clean_linker_2, # of connection points: 2
#     Edge 41, Type (0, 0), BuildingBlock: XUDNAN_clean_linker_2, # of connection points: 2
#     Edge 42, Type (0, 0), BuildingBlock: XUDNAN_clean_linker_2, # of connection points: 2
#     Edge 43, Type (0, 0), BuildingBlock: XUDNAN_clean_linker_2, # of connection points: 2
#     Edge 44, Type (0, 0), BuildingBlock: XUDNAN_clean_linker_2, # of connection points: 2
#     Edge 45, Type (0, 0), BuildingBlock: XUDNAN_clean_linker_2, # of connection points: 2
#     Edge 46, Type (0, 0), BuildingBlock: XUDNAN_clean_linker_2, # of connection points: 2
#     Edge 47, Type (0, 0), BuildingBlock: XUDNAN_clean_linker_2, # of connection points: 2
#     Edge 48, Type (0, 0), BuildingBlock: XUDNAN_clean_linker_2, # of connection points: 2
#     Edge 49, Type (0, 0), BuildingBlock: XUDNAN_clean_linker_2, # of connection points: 2
#     Edge 50, Type (0, 0), BuildingBlock: XUDNAN_clean_linker_2, # of connection points: 2
#     Edge 51, Type (0, 0), BuildingBlock: XUDNAN_clean_linker_2, # of connection points: 2
#     Edge 52, Type (0, 0), BuildingBlock: XUDNAN_clean_linker_2, # of connection points: 2
#     Edge 53, Type (0, 0), BuildingBlock: XUDNAN_clean_linker_2, # of connection points: 2
#     Edge 54, Type (0, 0), BuildingBlock: XUDNAN_clean_linker_2, # of connection points: 2
#     Edge 55, Type (0, 0), BuildingBlock: XUDNAN_clean_linker_2, # of connection points: 2
#     Edge 56, Type (0, 0), BuildingBlock: XUDNAN_clean_linker_2, # of connection points: 2
#     Edge 57, Type (0, 0), BuildingBlock: XUDNAN_clean_linker_2, # of connection points: 2
#     Edge 58, Type (0, 0), BuildingBlock: XUDNAN_clean_linker_2, # of connection points: 2
#     Edge 59, Type (0, 0), BuildingBlock: XUDNAN_clean_linker_2, # of connection points: 2
#     Edge 60, Type (0, 0), BuildingBlock: XUDNAN_clean_linker_2, # of connection points: 2
#     Edge 61, Type (0, 0), BuildingBlock: XUDNAN_clean_linker_2, # of connection points: 2
#     Edge 62, Type (0, 0), BuildingBlock: XUDNAN_clean_linker_2, # of connection points: 2
# Relax obj value: 0.190
# Max RMSD: 0.215
# Mean RMSD: 0.215
data_MOF--net-sth--node1-XOMCOT_clean_sbu_0--edge1-XUDNAN_clean_linker_2
_symmetry_space_group_name_H-M    P1
_symmetry_Int_Tables_number       1
_symmetry_cell_setting            triclinic
loop_
_symmetry_equiv_pos_as_xyz
'x, y, z'
_cell_length_a     40.38965
_cell_length_b     40.520849
_cell_length_c     78.498707
_cell_angle_alpha  90.147627
_cell_angle_beta   89.841827
_cell_angle_gamma 119.84777
loop_
_atom_site_label
_atom_site_type_symbol
_atom_site_fract_x
_atom_site_fract_y
_atom_site_fract_z
_atom_type_partial_charge
Co0 Co 0.13923 0.29016 0.22623 0.0
C1 C 0.21684 0.35 0.2124 0.0
C2 C 0.21739 0.30323 0.22486 0.0
C3 C 0.25351 0.32767 0.21921 0.0
N4 N 0.19399 0.31698 0.22089 0.0
N5 N 0.25337 0.35696 0.21135 0.0
H6 H 0.20726 0.36855 0.20725 0.0
H7 H 0.20917 0.27678 0.23129 0.0
C8 C 0.1253 0.21309 0.23777 0.0
O9 O 0.10626 0.21408 0.25118 0.0
N10 N 0.08453 0.2617 0.23108 0.0
C11 C 0.06223 0.27276 0.23929 0.0
C12 C 0.0251 0.24295 0.23937 0.0
C13 C 0.06016 0.22583 0.22574 0.0
N14 N 0.02406 0.21335 0.23103 0.0
C15 C 0.14418 0.32984 0.25712 0.0
C16 C 0.17806 0.3001 0.27777 0.0
C17 C 0.16991 0.32728 0.28462 0.0
C18 C 0.15245 0.34183 0.274 0.0
C19 C 0.16913 0.28868 0.26066 0.0
N20 N 0.15141 0.3028 0.25055 0.0
H21 H 0.13232 0.34316 0.24933 0.0
H22 H 0.17726 0.26897 0.25572 0.0
H23 H 0.07161 0.30047 0.2447 0.0
H24 H 0.06858 0.20906 0.21803 0.0
O25 O 0.13437 0.33364 0.21976 0.0
O26 O 0.12663 0.28764 0.20219 0.0
O27 O 0.14061 0.24112 0.22745 0.0
C28 C 0.1248 0.31849 0.20471 0.0
H29 H 0.2782 0.32406 0.22061 0.0
H30 H 1.00089 0.24281 0.24539 0.0
H31 H 0.19233 0.28865 0.28537 0.0
H32 H 0.14543 0.36282 0.27861 0.0
Co33 Co 0.76006 0.86744 0.22294 0.0
C34 C 0.70852 0.88496 0.20139 0.0
C35 C 0.72565 0.91553 0.22507 0.0
C36 C 0.70303 0.92634 0.21663 0.0
N37 N 0.72857 0.88892 0.21583 0.0
N38 N 0.69232 0.90729 0.20179 0.0
H39 H 0.706 0.86666 0.19083 0.0
H40 H 0.73974 0.92703 0.2371 0.0
C41 C 0.83764 0.93992 0.23004 0.0
O42 O 0.85284 0.92153 0.23733 0.0
N43 N 0.79202 0.84669 0.23007 0.0
C44 C 0.78625 0.82371 0.2435 0.0
C45 C 0.81618 0.81665 0.24449 0.0
C46 C 0.8241 0.85128 0.22246 0.0
N47 N 0.83996 0.83414 0.23132 0.0
C48 C 0.70543 0.84703 0.2491 0.0
C49 C 0.75394 0.87851 0.27655 0.0
C50 C 0.7144 0.85667 0.27952 0.0
C51 C 0.69019 0.84214 0.26538 0.0
C52 C 0.76812 0.88376 0.25982 0.0
N53 N 0.74387 0.86724 0.24639 0.0
H54 H 0.68614 0.83436 0.23849 0.0
H55 H 0.7985 0.8993 0.25787 0.0
H56 H 0.7623 0.81319 0.25217 0.0
H57 H 0.83688 0.86887 0.21133 0.0
O58 O 0.72105 0.81636 0.21719 0.0
O59 O 0.76582 0.85565 0.19936 0.0
O60 O 0.80327 0.92228 0.2245 0.0
C61 C 0.73668 0.82182 0.20226 0.0
H62 H 0.69597 0.9476 0.22078 0.0
H63 H 0.82052 0.80043 0.25429 0.0
H64 H 0.77387 0.89016 0.28703 0.0
H65 H 0.65945 0.82635 0.26681 0.0
Co66 Co 0.183 0.90611 0.22906 0.0
C67 C 0.14898 0.83058 0.21236 0.0
C68 C 0.20025 0.84428 0.22603 0.0
C69 C 0.18549 0.80831 0.21934 0.0
N70 N 0.17732 0.85813 0.22169 0.0
N71 N 0.1532 0.79957 0.21073 0.0
H72 H 0.1258 0.83322 0.20697 0.0
H73 H 0.22546 0.85899 0.23388 0.0
C74 C 0.10445 0.88989 0.23844 0.0
O75 O 0.11887 0.90984 0.25242 0.0
N76 N 0.18873 0.95472 0.23626 0.0
C77 C 0.20932 0.97778 0.24923 0.0
C78 C 0.20322 1.00821 0.24997 0.0
C79 C 0.17156 0.97244 0.22893 0.0
N80 N 0.17942 1.0047 0.23726 0.0
C81 C 0.21637 0.90675 0.26121 0.0
C82 C 0.15075 0.85317 0.27743 0.0
C83 C 0.18413 0.87429 0.28691 0.0
C84 C 0.21757 0.90009 0.2785 0.0
C85 C 0.15086 0.86098 0.26003 0.0
N86 N 0.18259 0.89016 0.25257 0.0
H87 H 0.24255 0.92694 0.25502 0.0
H88 H 0.12521 0.84407 0.25276 0.0
H89 H 0.22798 0.97383 0.25764 0.0
H90 H 0.15273 0.96129 0.21805 0.0
O91 O 0.23735 0.93074 0.2247 0.0
O92 O 0.19404 0.92496 0.20591 0.0
O93 O 0.12569 0.88388 0.22826 0.0
C94 C 0.22984 0.93758 0.20947 0.0
H95 H 0.19723 0.78971 0.22117 0.0
H96 H 0.21578 0.03149 0.259 0.0
H97 H 0.12465 0.83203 0.28351 0.0
H98 H 0.24417 0.91601 0.2854 0.0
Co99 Co 0.29115 0.10692 0.80157 0.0
C100 C 0.33541 0.18057 0.82003 0.0
C101 C 0.3712 0.16397 0.80653 0.0
C102 C 0.39417 0.197 0.81527 0.0
N103 N 0.33443 0.15357 0.80955 0.0
N104 N 0.37174 0.20739 0.82375 0.0
H105 H 0.31029 0.18009 0.82518 0.0
H106 H 0.3807 0.14824 0.79873 0.0
C107 C 0.23063 0.12568 0.79206 0.0
O108 O 0.22455 0.10472 0.77837 0.0
N109 N 0.24777 0.05936 0.79379 0.0
C110 C 0.2454 0.03822 0.78002 0.0
C111 C 0.2092 1.00747 0.77907 0.0
C112 C 0.21302 0.04023 0.80132 0.0
N113 N 0.18892 1.00879 0.79241 0.0
C114 C 0.32804 0.10806 0.7704 0.0
C115 C 0.31579 0.15965 0.75262 0.0
C116 C 0.33098 0.13972 0.74405 0.0
C117 C 0.33907 0.11543 0.75347 0.0
C118 C 0.3057 0.15181 0.76993 0.0
N119 N 0.30859 0.12355 0.77815 0.0
H120 H 0.33354 0.08793 0.77689 0.0
H121 H 0.29516 0.16816 0.77647 0.0
H122 H 0.26787 0.04399 0.77111 0.0
H123 H 0.20522 0.0498 0.81274 0.0
O124 O 0.31892 0.08044 0.8056 0.0
O125 O 0.28219 0.08652 0.82473 0.0
O126 O 0.2576 0.13129 0.80233 0.0
C127 C 0.30481 0.07329 0.82082 0.0
H128 H 0.42508 0.21234 0.81533 0.0
H129 H 0.19856 0.9856 0.76934 0.0
H130 H 0.31057 0.17996 0.74593 0.0
H131 H 0.35252 0.10083 0.7476 0.0
Co132 Co 0.92484 0.1788 0.79796 0.0
C133 C 0.85726 0.1659 0.8198 0.0
C134 C 0.84163 0.13591 0.79598 0.0
C135 C 0.80891 0.12685 0.80477 0.0
N136 N 0.8722 0.16121 0.80506 0.0
N137 N 0.81853 0.14552 0.81973 0.0
H138 H 0.87405 0.18309 0.83043 0.0
H139 H 0.84289 0.12357 0.78394 0.0
C140 C 0.92637 0.1042 0.79328 0.0
O141 O 0.95956 0.12105 0.78554 0.0
N142 N 0.97732 0.19561 0.79115 0.0
C143 C 0.99549 0.21459 0.7769 0.0
C144 C 0.03146 0.21865 0.7766 0.0
C145 C 1.00343 0.19062 0.79983 0.0
N146 N 0.03628 0.20333 0.79095 0.0
C147 C 0.89361 0.1985 0.77026 0.0
C148 C 0.90614 0.15954 0.74446 0.0
C149 C 0.89099 0.18311 0.74028 0.0
C150 C 0.88367 0.20163 0.75364 0.0
C151 C 0.91486 0.15635 0.7615 0.0
N152 N 0.90929 0.17641 0.77415 0.0
H153 H 0.88845 0.21391 0.78019 0.0
H154 H 0.9276 0.1392 0.76423 0.0
H155 H 0.98333 0.22418 0.76718 0.0
H156 H 0.99739 0.17528 0.81175 0.0
O157 O 0.9396 0.23118 0.80166 0.0
O158 O 0.94303 0.19399 0.82137 0.0
O159 O 0.91051 0.12312 0.79834 0.0
C160 C 0.94955 0.22778 0.81692 0.0
H161 H 0.7801 0.1066 0.80082 0.0
H162 H 0.05222 0.23119 0.76644 0.0
H163 H 0.91252 0.14472 0.73463 0.0
H164 H 0.87064 0.21897 0.75136 0.0
Co165 Co 0.84694 0.73932 0.78746 0.0
C166 C 0.88493 0.70268 0.80553 0.0
C167 C 0.8435 0.66542 0.78729 0.0
C168 C 0.85971 0.64635 0.79487 0.0
N169 N 0.85926 0.70067 0.79396 0.0
N170 N 0.88576 0.66971 0.80634 0.0
H171 H 0.90237 0.72755 0.81324 0.0
H172 H 0.82205 0.65455 0.7774 0.0
C173 C 0.92266 0.80862 0.78385 0.0
O174 O 0.91036 0.81235 0.76889 0.0
N175 N 0.83344 0.77811 0.78151 0.0
C176 C 0.80131 0.77246 0.77357 0.0
C177 C 0.79873 0.80495 0.77465 0.0
C178 C 0.84884 0.81379 0.78798 0.0
N179 N 0.82875 0.83092 0.78362 0.0
C180 C 0.83698 0.7278 0.75115 0.0
C181 C 0.90523 0.72972 0.74468 0.0
C182 C 0.87983 0.72244 0.7312 0.0
C183 C 0.84546 0.72174 0.7346 0.0
C184 C 0.89589 0.73632 0.76106 0.0
N185 N 0.86234 0.73603 0.76412 0.0
H186 H 0.80912 0.72386 0.75354 0.0
H187 H 0.91534 0.74078 0.77138 0.0
H188 H 0.77933 0.74582 0.76841 0.0
H189 H 0.87284 0.82636 0.79661 0.0
O190 O 0.7941 0.70094 0.78569 0.0
O191 O 0.82124 0.73329 0.80926 0.0
O192 O 0.90073 0.78064 0.79348 0.0
C193 C 0.79039 0.70797 0.8015 0.0
H194 H 0.85334 0.61769 0.79189 0.0
H195 H 0.77595 0.80882 0.76964 0.0
H196 H 0.93184 0.72989 0.74264 0.0
H197 H 0.82436 0.71471 0.72468 0.0
Co198 Co 0.79409 0.60588 0.55723 0.0
C199 C 0.8757 0.66682 0.54902 0.0
C200 C 0.84756 0.62374 0.52988 0.0
C201 C 0.88458 0.64667 0.52494 0.0
N202 N 0.84167 0.63592 0.54496 0.0
N203 N 0.90243 0.67353 0.53695 0.0
H204 H 0.88143 0.6826 0.56082 0.0
H205 H 0.82669 0.59845 0.52328 0.0
C206 C 0.80081 0.53971 0.56933 0.0
O207 O 0.78765 0.54323 0.58415 0.0
N208 N 0.74485 0.57277 0.56801 0.0
C209 C 0.72112 0.58064 0.57707 0.0
C210 C 0.68563 0.54816 0.57804 0.0
C211 C 0.72275 0.53616 0.56312 0.0
N212 N 0.68669 0.52017 0.56914 0.0
C213 C 0.80808 0.64425 0.58928 0.0
C214 C 0.86713 0.63359 0.6 0.0
C215 C 0.85297 0.65069 0.61126 0.0
C216 C 0.8234 0.65647 0.60548 0.0
C217 C 0.85044 0.6212 0.58392 0.0
N218 N 0.81988 0.62482 0.57908 0.0
H219 H 0.78672 0.6507 0.58495 0.0
H220 H 0.86221 0.60875 0.57536 0.0
H221 H 0.72743 0.60836 0.58149 0.0
H222 H 0.73267 0.52219 0.55447 0.0
O223 O 0.77955 0.64398 0.55316 0.0
O224 O 0.76676 0.59582 0.53587 0.0
O225 O 0.80523 0.56246 0.55714 0.0
C226 C 0.76379 0.62578 0.53917 0.0
H227 H 0.89797 0.64297 0.51369 0.0
H228 H 0.66044 0.54625 0.58388 0.0
H229 H 0.89096 0.62985 0.6035 0.0
H230 H 0.81136 0.66969 0.61346 0.0
Co231 Co 0.41395 0.18078 0.56291 0.0
C232 C 0.36668 0.19625 0.53856 0.0
C233 C 0.35708 0.2079 0.56416 0.0
C234 C 0.33717 0.21823 0.55341 0.0
N235 N 0.37562 0.19365 0.555 0.0
N236 N 0.34307 0.21083 0.53737 0.0
H237 H 0.37891 0.18987 0.52763 0.0
H238 H 0.35974 0.21368 0.57764 0.0
C239 C 0.45866 0.26612 0.56521 0.0
O240 O 0.43191 0.26517 0.57506 0.0
N241 N 0.45276 0.169 0.56999 0.0
C242 C 0.45014 0.14397 0.5819 0.0
C243 C 0.48397 0.14331 0.58211 0.0
C244 C 0.48776 0.18292 0.56303 0.0
N245 N 0.50764 0.16784 0.57022 0.0
C246 C 0.37019 0.16487 0.59293 0.0
C247 C 0.42889 0.20655 0.61551 0.0
C248 C 0.39231 0.18129 0.62182 0.0
C249 C 0.36264 0.16149 0.61025 0.0
C250 C 0.43522 0.20962 0.5978 0.0
N251 N 0.4059 0.18879 0.58673 0.0
H252 H 0.34715 0.14728 0.58436 0.0
H253 H 0.46405 0.22668 0.59308 0.0
H254 H 0.42533 0.12726 0.5898 0.0
H255 H 0.49797 0.20297 0.55258 0.0
O256 O 0.37731 0.12748 0.56265 0.0
O257 O 0.41363 0.15856 0.5406 0.0
O258 O 0.45543 0.23531 0.55917 0.0
C259 C 0.38831 0.12621 0.54731 0.0
H260 H 0.32129 0.23224 0.55699 0.0
H261 H 0.4906 0.12624 0.59049 0.0
H262 H 0.45271 0.22167 0.62413 0.0
H263 H 0.33401 0.14164 0.61462 0.0
Co264 Co 0.84379 0.2262 0.56192 0.0
C265 C 0.81618 0.14283 0.55472 0.0
C266 C 0.85233 0.17985 0.53507 0.0
C267 C 0.84077 0.14323 0.53036 0.0
N268 N 0.83715 0.18017 0.55043 0.0
N269 N 0.8179 0.11991 0.54261 0.0
H270 H 0.80003 0.1323 0.56637 0.0
H271 H 0.86979 0.20423 0.52721 0.0
C272 C 0.75743 0.18464 0.55937 0.0
O273 O 0.75542 0.15535 0.56736 0.0
N274 N 0.85074 0.27238 0.57237 0.0
C275 C 0.86957 0.2897 0.58677 0.0
C276 C 0.86936 0.32354 0.58849 0.0
C277 C 0.8401 0.29595 0.56539 0.0
N278 N 0.85106 0.32738 0.57494 0.0
C279 C 0.85003 0.18611 0.59042 0.0
C280 C 0.80425 0.20031 0.61194 0.0
C281 C 0.82848 0.18844 0.61897 0.0
C282 C 0.85007 0.17939 0.60791 0.0
C283 C 0.80478 0.20634 0.5944 0.0
N284 N 0.82866 0.20072 0.58394 0.0
H285 H 0.86967 0.18262 0.58226 0.0
H286 H 0.78894 0.21929 0.58954 0.0
H287 H 0.883 0.27883 0.59523 0.0
H288 H 0.82509 0.29038 0.5534 0.0
O289 O 0.89779 0.24506 0.56398 0.0
O290 O 0.87054 0.25641 0.54199 0.0
O291 O 0.78992 0.21342 0.55581 0.0
C292 C 0.90171 0.26179 0.54942 0.0
H293 H 0.84698 0.13428 0.51833 0.0
H294 H 0.88275 0.34429 0.59857 0.0
H295 H 0.78718 0.20768 0.62007 0.0
H296 H 0.8695 0.17059 0.61285 0.0
Co297 Co 0.95749 0.45127 0.12859 0.0
C298 C 0.99689 0.5254 0.14771 0.0
C299 C 0.0367 0.51292 0.13545 0.0
C300 C 0.0568 0.54674 0.144 0.0
N301 N 0.99887 0.49993 0.13714 0.0
N302 N 0.03181 0.5548 0.15168 0.0
H303 H 0.97068 0.522 0.153 0.0
H304 H 0.0494 0.49857 0.12881 0.0
C305 C 0.91445 0.49398 0.13092 0.0
O306 O 0.94254 0.52182 0.12244 0.0
N307 N 0.91685 0.40265 0.12085 0.0
C308 C 0.91706 0.38277 0.10713 0.0
C309 C 0.88243 0.34957 0.10629 0.0
C310 C 0.88252 0.38128 0.12828 0.0
N311 N 0.86066 0.34862 0.11961 0.0
C312 C 0.99619 0.48975 0.09799 0.0
C313 C 0.93288 0.47914 0.08002 0.0
C314 C 0.96906 0.49967 0.07251 0.0
C315 C 1.00083 0.50459 0.08164 0.0
C316 C 0.92958 0.46537 0.09668 0.0
N317 N 0.96129 0.47191 0.10571 0.0
H318 H 1.02075 0.49167 0.10412 0.0
H319 H 0.90149 0.44926 0.10228 0.0
H320 H 0.94061 0.39198 0.09829 0.0
H321 H 0.87406 0.38941 0.13993 0.0
O322 O 0.99279 0.43293 0.12538 0.0
O323 O 0.96159 0.42712 0.14944 0.0
O324 O 0.91716 0.46503 0.13547 0.0
C325 C 0.98577 0.42077 0.14097 0.0
H326 H 0.08757 0.56404 0.14441 0.0
H327 H 0.87385 0.32818 0.09643 0.0
H328 H 0.90753 0.47396 0.07313 0.0
H329 H 0.02905 0.51881 0.07596 0.0
Co330 Co 0.58809 0.5247 0.12259 0.0
C331 C 0.51605 0.49691 0.14244 0.0
C332 C 0.51521 0.52465 0.11932 0.0
C333 C 0.48086 0.51201 0.12761 0.0
N334 N 0.5371 0.51473 0.12848 0.0
N335 N 0.48142 0.4947 0.14216 0.0
H336 H 0.5258 0.48569 0.15253 0.0
H337 H 0.52365 0.5401 0.10742 0.0
C338 C 0.57989 0.44841 0.11814 0.0
O339 O 0.5992 0.46258 0.10397 0.0
N340 N 0.64004 0.53507 0.1175 0.0
C341 C 0.66692 0.56221 0.10744 0.0
C342 C 0.70036 0.56117 0.10884 0.0
C343 C 0.65861 0.51942 0.12555 0.0
N344 N 0.69516 0.53406 0.12018 0.0
C345 C 0.58783 0.54006 0.08685 0.0
C346 C 0.52728 0.47039 0.07746 0.0
C347 C 0.54533 0.49854 0.06496 0.0
C348 C 0.5758 0.5338 0.06993 0.0
C349 C 0.54015 0.47801 0.09437 0.0
N350 N 0.57144 0.51196 0.09878 0.0
H351 H 0.60922 0.56834 0.09038 0.0
H352 H 0.52436 0.4568 0.10396 0.0
H353 H 0.66381 0.58295 0.10016 0.0
H354 H 0.64578 0.49825 0.13547 0.0
O355 O 0.60531 0.57812 0.12119 0.0
O356 O 0.60724 0.54954 0.14478 0.0
O357 O 0.57251 0.46948 0.1279 0.0
C358 C 0.6151 0.58117 0.13704 0.0
H359 H 0.4576 0.51609 0.12347 0.0
H360 H 0.72652 0.5793 0.10201 0.0
H361 H 0.5027 0.44316 0.07433 0.0
H362 H 0.5902 0.55671 0.06084 0.0
Co363 Co 0.51752 0.08338 0.12645 0.0
C364 C 0.5526 0.03724 0.13926 0.0
C365 C 0.49297 1.01075 0.14495 0.0
C366 C 0.50649 0.98809 0.15115 0.0
N367 N 0.52177 0.0419 0.1374 0.0
N368 N 0.54393 1.00466 0.14754 0.0
H369 H 0.58098 0.0571 0.13505 0.0
H370 H 0.46356 1.0039 0.14574 0.0
C371 C 0.60391 0.1262 0.12337 0.0
O372 O 0.60267 0.1021 0.11184 0.0
N373 N 0.51315 0.12501 0.11673 0.0
C374 C 0.49105 0.12406 0.10369 0.0
C375 C 0.49323 0.15909 0.10254 0.0
C376 C 0.52748 0.16005 0.12363 0.0
N377 N 0.51592 0.18153 0.11518 0.0
C378 C 0.50921 0.03026 0.10069 0.0
C379 C 0.54248 0.08061 0.07403 0.0
C380 C 0.52371 0.04132 0.07062 0.0
C381 C 0.50861 0.01635 0.08445 0.0
C382 C 0.54371 0.09357 0.09078 0.0
N383 N 0.52658 0.06839 0.1039 0.0
H384 H 0.49369 1.00977 0.1105 0.0
H385 H 0.55752 0.12387 0.09309 0.0
H386 H 0.47378 0.09935 0.09587 0.0
H387 H 0.54526 0.16929 0.13489 0.0
O388 O 0.46296 0.0528 0.12579 0.0
O389 O 0.49564 0.09002 0.14748 0.0
O390 O 0.5734 0.12082 0.13084 0.0
C391 C 0.46258 0.0668 0.14064 0.0
H392 H 0.48984 0.96106 0.15755 0.0
H393 H 0.47803 0.16693 0.09357 0.0
H394 H 0.55465 0.10117 0.06382 0.0
H395 H 0.4948 0.98582 0.08274 0.0
Co396 Co 0.47174 0.93942 0.89383 0.0
C397 C 0.55085 1.00709 0.88513 0.0
C398 C 0.51498 0.97982 0.86362 0.0
C399 C 0.54961 1.00769 0.85778 0.0
N400 N 0.51507 0.97906 0.88082 0.0
N401 N 0.57248 0.0248 0.87121 0.0
H402 H 0.56192 1.01297 0.89795 0.0
H403 H 0.492 0.96 0.85556 0.0
C404 C 0.5237 0.90801 0.88983 0.0
O405 O 0.55052 0.94174 0.89476 0.0
N406 N 0.42771 0.89921 0.90547 0.0
C407 C 0.41217 0.901 0.92041 0.0
C408 C 0.37789 0.86768 0.92254 0.0
C409 C 0.40248 0.86527 0.89861 0.0
N410 N 0.37168 0.84537 0.90874 0.0
C411 C 0.5097 0.98861 0.92194 0.0
C412 C 0.50761 0.93296 0.94291 0.0
C413 C 0.51556 0.9679 0.95005 0.0
C414 C 0.51837 0.99655 0.93921 0.0
C415 C 0.49955 0.92631 0.92554 0.0
N416 N 0.49956 0.95361 0.91533 0.0
H417 H 0.50842 1.00983 0.91409 0.0
H418 H 0.48947 0.89788 0.92074 0.0
H419 H 0.42408 0.92541 0.92882 0.0
H420 H 0.40608 0.85597 0.88615 0.0
O421 O 0.44972 0.97176 0.89602 0.0
O422 O 0.43818 0.93214 0.8745 0.0
O423 O 0.48938 0.90148 0.88829 0.0
C424 C 0.43171 0.95725 0.88193 0.0
H425 H 0.55812 1.01307 0.84453 0.0
H426 H 0.35811 0.86127 0.93301 0.0
H427 H 0.50481 0.90997 0.95092 0.0
H428 H 0.52376 0.02367 0.94428 0.0
Co429 Co 0.0733 0.51994 0.89715 0.0
C430 C 0.03759 0.557 0.8774 0.0
C431 C 0.9967 0.50726 0.89101 0.0
C432 C 0.97748 0.52217 0.88251 0.0
N433 N 0.03428 0.52893 0.88778 0.0
N434 N 1.00308 0.5534 0.87394 0.0
H435 H 0.06448 0.57931 0.87243 0.0
H436 H 0.98416 0.48254 0.89919 0.0
C437 C 0.1374 0.59604 0.90716 0.0
O438 O 0.13616 0.58035 0.92196 0.0
N439 N 0.11262 0.51031 0.9061 0.0
C440 C 0.10941 0.48248 0.91659 0.0
C441 C 0.14418 0.48406 0.91759 0.0
C442 C 0.14898 0.52723 0.90037 0.0
N443 N 0.16905 0.51236 0.90743 0.0
C444 C 0.04032 0.49548 0.93052 0.0
C445 C 0.04439 0.56294 0.94019 0.0
C446 C 0.03079 0.53303 0.952 0.0
C447 C 0.02813 0.49865 0.94679 0.0
C448 C 0.05666 0.5586 0.9241 0.0
N449 N 0.05691 0.52598 0.91982 0.0
H450 H 0.03534 0.46804 0.92643 0.0
H451 H 0.06577 0.58152 0.91503 0.0
H452 H 0.08359 0.4609 0.92245 0.0
H453 H 0.16013 0.54909 0.89068 0.0
O454 O 0.03968 0.4656 0.89431 0.0
O455 O 0.08119 0.50357 0.87503 0.0
O456 O 0.11293 0.57642 0.8956 0.0
C457 C 0.05533 0.46923 0.87943 0.0
H458 H 0.94699 0.51128 0.88295 0.0
H459 H 0.15043 0.46535 0.92502 0.0
H460 H 0.04524 0.58942 0.94325 0.0
H461 H 1.01704 0.4743 0.95519 0.0
Co462 Co 0.50503 0.56962 0.88828 0.0
C463 C 0.47674 0.48653 0.87885 0.0
C464 C 0.46009 0.51681 0.86177 0.0
C465 C 0.4446 0.48013 0.85605 0.0
N466 N 0.48019 0.52116 0.87611 0.0
N467 N 0.45487 0.46094 0.86679 0.0
H468 H 0.48892 0.47949 0.88944 0.0
H469 H 0.45649 0.53896 0.85593 0.0
C470 C 0.42189 0.53862 0.89354 0.0
O471 O 0.41949 0.50583 0.89712 0.0
N472 N 0.52855 0.61862 0.89927 0.0
C473 C 0.55825 0.63359 0.91013 0.0
C474 C 0.56893 0.67125 0.91287 0.0
C475 C 0.52146 0.64699 0.89559 0.0
N476 N 0.54576 0.67955 0.90369 0.0
C477 C 0.51958 0.52844 0.91413 0.0
C478 C 0.47937 0.53935 0.93996 0.0
C479 C 0.49919 0.52 0.94364 0.0
C480 C 0.51942 0.51456 0.93044 0.0
C481 C 0.47996 0.55242 0.92342 0.0
N482 N 0.49885 0.54581 0.91055 0.0
H483 H 0.53732 0.52608 0.90444 0.0
H484 H 0.46645 0.56925 0.9212 0.0
H485 H 0.57203 0.61864 0.91513 0.0
H486 H 0.50045 0.64444 0.88635 0.0
O487 O 0.55504 0.57727 0.8825 0.0
O488 O 0.5216 0.59512 0.8665 0.0
O489 O 0.45423 0.56751 0.88999 0.0
C490 C 0.55277 0.59361 0.86867 0.0
H491 H 0.4275 0.46867 0.84469 0.0
H492 H 0.59257 0.69124 0.92065 0.0
H493 H 0.46399 0.5449 0.94984 0.0
H494 H 0.53633 0.50107 0.93283 0.0
Co495 Co 0.62746 0.78257 0.45895 0.0
C496 C 0.66739 0.85109 0.48009 0.0
C497 C 0.70329 0.85133 0.45979 0.0
C498 C 0.72372 0.8836 0.46951 0.0
N499 N 0.66801 0.83121 0.46643 0.0
N500 N 0.70117 0.8834 0.48232 0.0
H501 H 0.64288 0.84153 0.48839 0.0
H502 H 0.71351 0.84303 0.44875 0.0
C503 C 0.5601 0.79317 0.4534 0.0
O504 O 0.55208 0.77116 0.43994 0.0
N505 N 0.58624 0.73283 0.45215 0.0
C506 C 0.58573 0.70852 0.44021 0.0
C507 C 0.5515 0.67503 0.44118 0.0
C508 C 0.55278 0.7131 0.46055 0.0
N509 N 0.53078 0.67807 0.45392 0.0
C510 C 0.65451 0.78605 0.42496 0.0
C511 C 0.63678 0.83866 0.41202 0.0
C512 C 0.64952 0.82013 0.40097 0.0
C513 C 0.65976 0.79469 0.4077 0.0
C514 C 0.63186 0.82901 0.42938 0.0
N515 N 0.63776 0.80061 0.43536 0.0
H516 H 0.66341 0.76685 0.42978 0.0
H517 H 0.623 0.84418 0.43784 0.0
H518 H 0.6086 0.71353 0.43166 0.0
H519 H 0.54499 0.72411 0.47149 0.0
O520 O 0.66107 0.7619 0.45991 0.0
O521 O 0.62559 0.76147 0.48155 0.0
O522 O 0.58971 0.80143 0.46238 0.0
C523 C 0.64957 0.75175 0.47541 0.0
H524 H 0.75286 0.90561 0.46714 0.0
H525 H 0.54256 0.65038 0.43307 0.0
H526 H 0.62969 0.85942 0.40724 0.0
H527 H 0.67089 0.7808 0.39957 0.0
Co528 Co 0.25549 0.83854 0.46486 0.0
C529 C 0.18535 0.81763 0.48616 0.0
C530 C 0.1746 0.78227 0.46408 0.0
C531 C 0.14138 0.76837 0.47323 0.0
N532 N 0.20236 0.81306 0.47213 0.0
N533 N 0.14808 0.79045 0.48708 0.0
H534 H 0.19994 0.83915 0.49581 0.0
H535 H 0.17855 0.77005 0.45252 0.0
C536 C 0.24336 0.76119 0.47146 0.0
O537 O 0.24059 0.7669 0.48775 0.0
N538 N 0.30832 0.86228 0.45771 0.0
C539 C 0.33017 0.89724 0.45103 0.0
C540 C 0.36724 0.9042 0.44975 0.0
C541 C 0.33212 0.84841 0.46029 0.0
N542 N 0.3682 0.87334 0.45551 0.0
C543 C 0.21746 0.85518 0.439 0.0
C544 C 0.24306 0.83107 0.41153 0.0
C545 C 0.22089 0.84838 0.40855 0.0
C546 C 0.20732 0.85957 0.42261 0.0
C547 C 0.25222 0.82674 0.42828 0.0
N548 N 0.23974 0.8392 0.44168 0.0
H549 H 0.20776 0.86509 0.44967 0.0
H550 H 0.27035 0.81456 0.43045 0.0
H551 H 0.32011 0.91666 0.44778 0.0
H552 H 0.32364 0.82127 0.46622 0.0
O553 O 0.2628 0.8872 0.47153 0.0
O554 O 0.27321 0.84963 0.48842 0.0
O555 O 0.2504 0.78744 0.46075 0.0
C556 C 0.27494 0.88241 0.48604 0.0
H557 H 0.11435 0.74353 0.47007 0.0
H558 H 0.39162 0.92996 0.44506 0.0
H559 H 0.25443 0.82232 0.40105 0.0
H560 H 0.18946 0.87229 0.42099 0.0
Co561 Co 0.19266 0.40984 0.46613 0.0
C562 C 0.21747 0.35088 0.47206 0.0
C563 C 0.21834 0.38233 0.49428 0.0
C564 C 0.23319 0.35974 0.49859 0.0
N565 N 0.2084 0.3772 0.47767 0.0
N566 N 0.23307 0.34024 0.48469 0.0
H567 H 0.21559 0.34187 0.45897 0.0
H568 H 0.21713 0.40294 0.50263 0.0
C569 C 0.27808 0.45534 0.46736 0.0
O570 O 0.27943 0.4248 0.46289 0.0
N571 N 0.17779 0.44343 0.4556 0.0
C572 C 0.15399 0.43614 0.44236 0.0
C573 C 0.15342 0.46903 0.43844 0.0
C574 C 0.19088 0.48019 0.45973 0.0
N575 N 0.17663 0.49663 0.4494 0.0
C576 C 0.17844 0.36253 0.43633 0.0
C577 C 0.23192 0.41975 0.41591 0.0
C578 C 0.20535 0.38549 0.40812 0.0
C579 C 0.17905 0.35612 0.41872 0.0
C580 C 0.22943 0.42541 0.43326 0.0
N581 N 0.20306 0.3971 0.44339 0.0
H582 H 0.15668 0.3404 0.44414 0.0
H583 H 0.24703 0.45382 0.43808 0.0
H584 H 0.13871 0.40909 0.43585 0.0
H585 H 0.21129 0.49489 0.4698 0.0
O586 O 0.13909 0.37099 0.46868 0.0
O587 O 0.17285 0.41636 0.4874 0.0
O588 O 0.24601 0.45418 0.46873 0.0
C589 C 0.14051 0.38684 0.48334 0.0
H590 H 0.24487 0.3589 0.51088 0.0
H591 H 0.13725 0.47238 0.42829 0.0
H592 H 0.25344 0.44319 0.40853 0.0
H593 H 0.15767 0.3292 0.4134 0.0
H594 H 0.40459 0.45465 0.13693 0.0
H595 H 0.49087 0.49959 0.17638 0.0
H596 H 0.44017 0.47578 0.1984 0.0
H597 H 0.33413 0.47237 0.15793 0.0
H598 H 0.2939 0.42823 0.15091 0.0
H599 H 0.3367 0.451 0.13815 0.0
H600 H 0.34149 0.38961 0.13877 0.0
H601 H 0.29843 0.36654 0.15127 0.0
H602 H 0.34139 0.36854 0.15899 0.0
H603 H 0.38042 0.4462 0.21609 0.0
H604 H 0.31637 0.40494 0.2284 0.0
H605 H 0.26782 0.37651 0.17784 0.0
C606 C 0.4127 0.4597 0.15022 0.0
C607 C 0.45173 0.47924 0.15498 0.0
C608 C 0.46125 0.4846 0.17248 0.0
C609 C 0.43261 0.47149 0.18504 0.0
C610 C 0.39444 0.45268 0.17993 0.0
C611 C 0.38439 0.44618 0.16294 0.0
C612 C 0.34127 0.42249 0.16095 0.0
C613 C 0.32558 0.44487 0.15142 0.0
C614 C 0.32999 0.38454 0.15197 0.0
C615 C 0.32859 0.41638 0.17948 0.0
C616 C 0.35981 0.43471 0.19018 0.0
C617 C 0.35581 0.43207 0.20783 0.0
C618 C 0.31933 0.40891 0.21473 0.0
C619 C 0.28713 0.38844 0.20411 0.0
C620 C 0.29173 0.39296 0.18624 0.0
H621 H 0.62501 0.90365 0.20678 0.0
H622 H 0.71166 0.92721 0.1688 0.0
H623 H 0.68101 0.95259 0.14941 0.0
H624 H 0.54427 0.8771 0.17642 0.0
H625 H 0.52413 0.89891 0.18978 0.0
H626 H 0.55022 0.87821 0.19921 0.0
H627 H 0.5946 0.94235 0.21422 0.0
H628 H 0.56928 0.96351 0.20459 0.0
H629 H 0.62012 0.98493 0.20161 0.0
H630 H 0.64554 0.98427 0.13627 0.0
H631 H 0.60416 1.01142 0.12908 0.0
H632 H 0.54045 0.96497 0.17578 0.0
C633 C 0.63659 0.9129 0.19411 0.0
C634 C 0.67023 0.91312 0.18909 0.0
C635 C 0.68537 0.92614 0.17263 0.0
C636 C 0.66834 0.94088 0.16167 0.0
C637 C 0.63591 0.94172 0.16733 0.0
C638 C 0.61973 0.92718 0.18305 0.0
C639 C 0.58614 0.93294 0.18664 0.0
C640 C 0.54899 0.8945 0.18809 0.0
C641 C 0.59298 0.95739 0.20271 0.0
C642 C 0.58648 0.95405 0.17074 0.0
C643 C 0.61534 0.95898 0.15971 0.0
C644 C 0.62246 0.9799 0.1447 0.0
C645 C 0.5991 0.99554 0.14078 0.0
C646 C 0.5689 0.98998 0.15179 0.0
C647 C 0.56278 0.96901 0.16694 0.0
H648 H 0.09897 0.60185 0.16765 0.0
H649 H 0.98606 0.58544 0.15771 0.0
H650 H 1.00401 0.64594 0.17253 0.0
H651 H 0.11275 0.64568 0.20909 0.0
H652 H 0.16271 0.67836 0.20539 0.0
H653 H 0.13975 0.63255 0.19508 0.0
H654 H 0.16167 0.66544 0.16566 0.0
H655 H 0.18457 0.71133 0.17587 0.0
H656 H 0.14942 0.70088 0.15952 0.0
H657 H 0.03609 0.71048 0.1876 0.0
H658 H 0.07841 0.77162 0.20185 0.0
H659 H 0.17082 0.74606 0.20004 0.0
C660 C 0.07786 0.61076 0.16852 0.0
C661 C 0.04102 0.58862 0.16144 0.0
C662 C 1.01428 0.60145 0.1632 0.0
C663 C 0.02431 0.63597 0.17151 0.0
C664 C 0.06119 0.65738 0.178 0.0
C665 C 0.08744 0.6451 0.17662 0.0
C666 C 0.12559 0.67369 0.18413 0.0
C667 C 0.13578 0.65654 0.19932 0.0
C668 C 0.15716 0.68872 0.17048 0.0
C669 C 0.1169 0.70423 0.18985 0.0
C670 C 0.07961 0.69436 0.18631 0.0
C671 C 0.06534 0.71844 0.19042 0.0
C672 C 0.08978 0.75334 0.19842 0.0
C673 C 0.1282 0.76402 0.20218 0.0
C674 C 0.14164 0.7389 0.19768 0.0
H675 H 0.39177 0.40431 0.85141 0.0
H676 H 0.49542 0.42808 0.87796 0.0
H677 H 0.48121 0.36223 0.87237 0.0
H678 H 0.33341 0.30387 0.8645 0.0
H679 H 0.31028 0.28964 0.84405 0.0
H680 H 0.32618 0.33698 0.85198 0.0
H681 H 0.36592 0.36544 0.82449 0.0
H682 H 0.35021 0.3183 0.8165 0.0
H683 H 0.40053 0.35192 0.81826 0.0
H684 H 0.45974 0.29661 0.86091 0.0
H685 H 0.43201 0.23583 0.84511 0.0
H686 H 0.34224 0.25461 0.826 0.0
C687 C 0.41138 0.39567 0.8562 0.0
C688 C 0.44485 0.42154 0.86511 0.0
C689 C 0.46944 0.40877 0.87129 0.0
C690 C 0.46163 0.37142 0.86812 0.0
C691 C 0.42889 0.34705 0.85891 0.0
C692 C 0.40398 0.35858 0.85317 0.0
C693 C 0.37209 0.32777 0.84264 0.0
C694 C 0.33318 0.31374 0.85131 0.0
C695 C 0.37222 0.3417 0.82439 0.0
C696 C 0.38355 0.29743 0.84289 0.0
C697 C 0.41624 0.30902 0.85247 0.0
C698 C 0.43386 0.28704 0.8536 0.0
C699 C 0.41804 0.25269 0.84453 0.0
C700 C 0.3849 0.24051 0.83444 0.0
C701 C 0.36708 0.26289 0.83391 0.0
H702 H 0.75387 0.14779 0.81565 0.0
H703 H 0.82052 0.12815 0.85301 0.0
H704 H 0.76575 0.1031 0.87318 0.0
H705 H 0.69702 0.17198 0.84667 0.0
H706 H 0.65508 0.14787 0.8335 0.0
H707 H 0.70183 0.17108 0.82386 0.0
H708 H 0.68616 0.10793 0.80883 0.0
H709 H 0.63972 0.08446 0.81853 0.0
H710 H 0.67153 0.06577 0.82146 0.0
H711 H 0.69869 0.06876 0.88682 0.0
H712 H 0.62908 0.03183 0.89254 0.0
H713 H 0.60811 0.07691 0.84642 0.0
C714 C 0.75733 0.13965 0.82837 0.0
C715 C 0.79143 0.14031 0.83291 0.0
C716 C 0.79488 0.12862 0.84946 0.0
C717 C 0.7638 0.11417 0.86093 0.0
C718 C 0.72979 0.1123 0.85572 0.0
C719 C 0.72683 0.12555 0.83988 0.0
C720 C 0.68654 0.11718 0.83644 0.0
C721 C 0.68504 0.15424 0.83504 0.0
C722 C 0.67004 0.09236 0.82038 0.0
C723 C 0.66663 0.09548 0.85241 0.0
C724 C 0.6919 0.09323 0.86355 0.0
C725 C 0.67892 0.07122 0.87836 0.0
C726 C 0.63928 0.05043 0.88158 0.0
C727 C 0.61302 0.0515 0.86996 0.0
C728 C 0.62734 0.07546 0.85556 0.0
H729 H 0.93808 0.53199 0.85617 0.0
H730 H 0.04794 0.62961 0.86839 0.0
H731 H 0.03026 0.67118 0.8523 0.0
H732 H 0.93054 0.56079 0.81365 0.0
H733 H 0.87977 0.54215 0.81528 0.0
H734 H 0.90207 0.5207 0.82729 0.0
H735 H 0.87377 0.53091 0.85517 0.0
H736 H 0.85154 0.55255 0.84327 0.0
H737 H 0.88315 0.57802 0.86066 0.0
H738 H 0.99811 0.70227 0.83561 0.0
H739 H 0.95681 0.71883 0.81859 0.0
H740 H 0.86854 0.60005 0.81807 0.0
C741 C 0.95847 0.56212 0.85552 0.0
C742 C 0.99434 0.57757 0.86364 0.0
C743 C 1.02043 0.61709 0.86217 0.0
C744 C 1.0105 0.64092 0.85315 0.0
C745 C 0.97449 0.62472 0.84558 0.0
C746 C 0.94909 0.5861 0.84659 0.0
C747 C 0.91216 0.57537 0.83745 0.0
C748 C 0.90578 0.54815 0.82253 0.0
C749 C 0.87816 0.55821 0.84988 0.0
C750 C 0.92049 0.614 0.83117 0.0
C751 C 0.95647 0.64224 0.83599 0.0
C752 C 0.96995 0.68028 0.83174 0.0
C753 C 0.94621 0.68948 0.82218 0.0
C754 C 0.90948 0.66075 0.81689 0.0
C755 C 0.89663 0.62264 0.82163 0.0
H756 H 0.76951 0.6913 0.83547 0.0
H757 H 0.72426 0.68553 0.78478 0.0
H758 H 0.65928 0.65703 0.79656 0.0
H759 H 0.69164 0.60032 0.84921 0.0
H760 H 0.69134 0.61541 0.8708 0.0
H761 H 0.73501 0.6373 0.85865 0.0
H762 H 0.74227 0.70366 0.86411 0.0
H763 H 0.69861 0.68196 0.87629 0.0
H764 H 0.70387 0.71206 0.85842 0.0
H765 H 0.59953 0.63116 0.81357 0.0
H766 H 0.54736 0.60399 0.83479 0.0
H767 H 0.62916 0.62095 0.87437 0.0
C768 C 0.74586 0.68415 0.82693 0.0
C769 C 0.75191 0.69075 0.80922 0.0
C770 C 0.72027 0.6806 0.79838 0.0
C771 C 0.68323 0.66452 0.80495 0.0
C772 C 0.67804 0.65814 0.8224 0.0
C773 C 0.70829 0.66714 0.83326 0.0
C774 C 0.69421 0.65551 0.85141 0.0
C775 C 0.70361 0.62534 0.8579 0.0
C776 C 0.71072 0.69038 0.86325 0.0
C777 C 0.6515 0.63883 0.84897 0.0
C778 C 0.64297 0.64115 0.83215 0.0
C779 C 0.60575 0.62886 0.82677 0.0
C780 C 0.57634 0.61356 0.83889 0.0
C781 C 0.58422 0.61007 0.85613 0.0
C782 C 0.62231 0.62282 0.8612 0.0
H783 H 0.41609 0.96549 0.84853 0.0
H784 H 0.38767 0.97636 0.90076 0.0
H785 H 0.34707 1.00199 0.89076 0.0
H786 H 0.42643 0.05242 0.83486 0.0
H787 H 0.40682 0.03623 0.8139 0.0
H788 H 0.42936 0.01378 0.82493 0.0
H789 H 0.36798 0.94819 0.82167 0.0
H790 H 0.34529 0.97047 0.81055 0.0
H791 H 0.32306 0.94207 0.82921 0.0
H792 H 0.31318 0.03089 0.87526 0.0
H793 H 0.29075 0.06293 0.85531 0.0
H794 H 0.34328 0.03568 0.81337 0.0
C795 C 0.40047 0.97236 0.85777 0.0
C796 C 0.40459 0.9686 0.87538 0.0
C797 C 0.38472 0.97894 0.88719 0.0
C798 C 0.36149 0.9934 0.88164 0.0
C799 C 0.35861 0.99766 0.86421 0.0
C800 C 0.37759 0.98751 0.85243 0.0
C801 C 0.3724 0.99821 0.83456 0.0
C802 C 0.41105 0.02686 0.8266 0.0
C803 C 0.35089 0.96261 0.82334 0.0
C804 C 0.34819 0.01645 0.8382 0.0
C805 C 0.34005 0.0154 0.85534 0.0
C806 C 0.31911 0.03163 0.86177 0.0
C807 C 0.30647 0.04976 0.85038 0.0
C808 C 0.31525 0.05184 0.83283 0.0
C809 C 0.33603 0.03455 0.82673 0.0
H810 H 0.9955 0.39587 0.88308 0.0
H811 H 0.09383 0.46646 0.85133 0.0
H812 H 0.0801 0.41036 0.83384 0.0
H813 H 1.00381 0.31041 0.88189 0.0
H814 H 0.95305 0.27837 0.88067 0.0
H815 H 0.97127 0.32356 0.89133 0.0
H816 H 0.93049 0.34077 0.87182 0.0
H817 H 0.91185 0.2955 0.86124 0.0
H818 H 0.93475 0.33885 0.84901 0.0
H819 H 0.0555 0.34785 0.81944 0.0
H820 H 1.01815 0.28343 0.80723 0.0
H821 H 0.9345 0.25191 0.84765 0.0
C822 C 1.01419 0.39946 0.87247 0.0
C823 C 0.04587 0.43562 0.86859 0.0
C824 C 0.0694 0.43917 0.85452 0.0
C825 C 0.06196 0.40739 0.84458 0.0
C826 C 0.03076 0.37218 0.84881 0.0
C827 C 1.00695 0.36799 0.86229 0.0
C828 C 0.97418 0.32719 0.86348 0.0
C829 C 0.97568 0.3088 0.88035 0.0
C830 C 0.93553 0.32549 0.86125 0.0
C831 C 0.98308 0.3092 0.84843 0.0
C832 C 1.01619 0.33575 0.84033 0.0
C833 C 0.02976 0.32677 0.82575 0.0
C834 C 1.00847 0.2901 0.81896 0.0
C835 C 0.97401 0.26268 0.8267 0.0
C836 C 0.96136 0.27208 0.8418 0.0
H837 H 0.68924 0.74577 0.2083 0.0
H838 H 0.75271 0.82595 0.16804 0.0
H839 H 0.72919 0.77265 0.14742 0.0
H840 H 0.70712 0.67115 0.19374 0.0
H841 H 0.66053 0.63313 0.19974 0.0
H842 H 0.68191 0.67746 0.21129 0.0
H843 H 0.62256 0.68422 0.20528 0.0
H844 H 0.60096 0.63989 0.19374 0.0
H845 H 0.6071 0.68246 0.18361 0.0
H846 H 0.69711 0.71134 0.13114 0.0
H847 H 0.66083 0.64602 0.12008 0.0
H848 H 0.62003 0.60386 0.17104 0.0
C849 C 0.69811 0.75218 0.19512 0.0
C850 C 0.72266 0.79017 0.18972 0.0
C851 C 0.73393 0.7972 0.17244 0.0
C852 C 0.72069 0.76707 0.16066 0.0
C853 C 0.69657 0.73002 0.16641 0.0
C854 C 0.68558 0.72239 0.18325 0.0
C855 C 0.65983 0.67989 0.18614 0.0
C856 C 0.67847 0.66451 0.19846 0.0
C857 C 0.62026 0.67111 0.19257 0.0
C858 C 0.65763 0.66472 0.16822 0.0
C859 C 0.67898 0.69431 0.15708 0.0
C860 C 0.68054 0.68801 0.13976 0.0
C861 C 0.65965 0.65069 0.13361 0.0
C862 C 0.63757 0.61972 0.14468 0.0
C863 C 0.63692 0.62685 0.1623 0.0
H864 H 0.30725 0.97073 0.21431 0.0
H865 H 0.22203 0.95386 0.17645 0.0
H866 H 0.27323 0.99008 0.15555 0.0
H867 H 0.37812 0.06722 0.20143 0.0
H868 H 0.41803 0.05998 0.20527 0.0
H869 H 0.37486 0.03418 0.21758 0.0
H870 H 0.3701 0.97039 0.20859 0.0
H871 H 0.41333 0.99598 0.19635 0.0
H872 H 0.37038 0.95995 0.18626 0.0
H873 H 0.33273 0.02397 0.1383 0.0
H874 H 0.39709 0.05318 0.12556 0.0
H875 H 0.44477 0.05072 0.17463 0.0
C876 C 0.29937 0.97484 0.20164 0.0
C877 C 0.2606 0.95944 0.19699 0.0
C878 C 0.25148 0.96538 0.1803 0.0
C879 C 0.28038 0.98602 0.16836 0.0
C880 C 0.31827 1.00081 0.17335 0.0
C881 C 0.32789 0.99557 0.18958 0.0
C882 C 0.37084 0.0134 0.19146 0.0
C883 C 0.38637 0.04561 0.20472 0.0
C884 C 0.38179 0.98312 0.19592 0.0
C885 C 0.38382 0.02888 0.17363 0.0
C886 C 0.35293 0.02136 0.16344 0.0
C887 C 0.35716 0.03051 0.1462 0.0
C888 C 0.39379 0.04707 0.13909 0.0
C889 C 0.42578 0.05467 0.1492 0.0
C890 C 0.42086 0.04614 0.16676 0.0
H891 H 0.09299 0.36334 0.21077 0.0
H892 H 0.11594 0.30414 0.17039 0.0
H893 H 0.08216 0.32345 0.14993 0.0
H894 H 0.9983 0.33611 0.19738 0.0
H895 H 1.00133 0.3806 0.20319 0.0
H896 H 0.02933 0.36432 0.21446 0.0
H897 H 0.0911 0.42734 0.20743 0.0
H898 H 0.06329 0.44399 0.19629 0.0
H899 H 0.10206 0.44253 0.18557 0.0
H900 H 0.04623 0.34935 0.13396 0.0
H901 H 1.00981 0.37908 0.12341 0.0
H902 H 1.00623 0.41838 0.17447 0.0
C903 C 0.0915 0.35499 0.19755 0.0
C904 C 0.10763 0.33269 0.19208 0.0
C905 C 0.10414 0.3215 0.17479 0.0
C906 C 0.08492 0.33227 0.16312 0.0
C907 C 0.06888 0.35378 0.16898 0.0
C908 C 0.07184 0.36495 0.1858 0.0
C909 C 0.05077 0.38674 0.18894 0.0
C910 C 1.01799 0.36568 0.20175 0.0
C911 C 0.07846 0.42757 0.19491 0.0
C912 C 0.03563 0.38633 0.17122 0.0
C913 C 0.04666 0.36732 0.15991 0.0
C914 C 0.03729 0.3641 0.14271 0.0
C915 C 1.01657 0.3811 0.13685 0.0
C916 C 1.0049 0.40076 0.14813 0.0
C917 C 1.01421 0.403 0.16561 0.0
H918 H 0.10134 0.72337 0.50175 0.0
H919 H 0.13132 0.84167 0.50125 0.0
H920 H 0.0748 0.82619 0.51941 0.0
H921 H 1.0068 0.68588 0.49612 0.0
H922 H 0.99189 0.64495 0.50963 0.0
H923 H 0.03824 0.66704 0.49989 0.0
H924 H 0.06968 0.6761 0.52957 0.0
H925 H 0.02318 0.65387 0.53945 0.0
H926 H 0.05944 0.70065 0.54614 0.0
H927 H 1.00769 0.79437 0.53301 0.0
H928 H 0.9395 0.75053 0.54039 0.0
H929 H 0.95616 0.65424 0.53247 0.0
C930 C 0.09661 0.74614 0.50597 0.0
C931 C 0.12055 0.78366 0.50026 0.0
C932 C 0.11348 0.81285 0.50577 0.0
C933 C 0.08143 0.80421 0.51603 0.0
C934 C 0.05736 0.7664 0.52092 0.0
C935 C 0.06518 0.73801 0.51626 0.0
C936 C 0.03341 0.69913 0.52144 0.0
C937 C 1.01661 0.67274 0.50585 0.0
C938 C 0.04727 0.6814 0.53496 0.0
C939 C 1.00536 0.70957 0.52895 0.0
C940 C 1.01964 0.74849 0.52887 0.0
C941 C 0.99672 0.76399 0.53354 0.0
C942 C 0.95813 0.73903 0.53781 0.0
C943 C 0.94299 0.69921 0.53718 0.0
C944 C 0.9674 0.68466 0.53332 0.0
H945 H 0.30301 0.36068 0.49606 0.0
H946 H 0.20284 0.26771 0.47305 0.0
H947 H 0.22813 0.22421 0.47928 0.0
H948 H 0.37362 0.32751 0.48489 0.0
H949 H 0.39684 0.34393 0.50522 0.0
H950 H 0.37573 0.36865 0.49485 0.0
H951 H 0.3353 0.3603 0.52187 0.0
H952 H 0.35592 0.33543 0.53224 0.0
H953 H 0.3048 0.31317 0.5302 0.0
H954 H 0.2584 0.18903 0.49366 0.0
H955 H 0.28946 0.16667 0.51436 0.0
H956 H 0.36849 0.28299 0.52833 0.0
C957 C 0.28728 0.33147 0.49169 0.0
C958 C 0.25128 0.31746 0.48393 0.0
C959 C 0.23085 0.27901 0.47869 0.0
C960 C 0.24501 0.2542 0.48226 0.0
C961 C 0.27985 0.26858 0.49085 0.0
C962 C 0.30094 0.30664 0.49525 0.0
C963 C 0.33446 0.31448 0.50649 0.0
C964 C 0.37241 0.34016 0.49731 0.0
C965 C 0.33245 0.33183 0.5237 0.0
C966 C 0.32795 0.27463 0.5086 0.0
C967 C 0.29694 0.24849 0.49919 0.0
C968 C 0.28332 0.20942 0.50066 0.0
C969 C 0.30113 0.19689 0.51236 0.0
C970 C 0.33178 0.22331 0.52251 0.0
C971 C 0.34586 0.26253 0.52024 0.0
H972 H 0.77262 0.93547 0.4929 0.0
H973 H 0.65261 0.89697 0.50147 0.0
H974 H 0.67024 0.94838 0.52249 0.0
H975 H 0.80641 0.96899 0.53677 0.0
H976 H 0.8497 1.00948 0.52916 0.0
H977 H 0.82753 0.96594 0.517 0.0
H978 H 0.82481 1.00272 0.49053 0.0
H979 H 0.84724 0.04623 0.50255 0.0
H980 H 0.80203 0.03118 0.49231 0.0
H981 H 0.70138 1.00914 0.54 0.0
H982 H 0.74289 0.07518 0.55025 0.0
H983 H 0.84172 0.07377 0.52976 0.0
C984 C 0.74989 0.93744 0.49927 0.0
C985 C 0.71116 0.91187 0.49546 0.0
C986 C 0.68249 0.91566 0.50427 0.0
C987 C 0.69224 0.94486 0.51628 0.0
C988 C 0.73077 0.96994 0.51947 0.0
C989 C 0.7591 0.96641 0.51118 0.0
C990 C 0.79831 0.9991 0.51543 0.0
C991 C 0.82187 0.98502 0.52517 0.0
C992 C 0.8193 0.0211 0.49925 0.0
C993 C 0.78762 0.02251 0.52683 0.0
C994 C 0.74862 1.00491 0.52937 0.0
C995 C 0.73201 0.02282 0.53835 0.0
C996 C 0.75575 0.06019 0.54425 0.0
C997 C 0.79542 0.07926 0.54088 0.0
C998 C 0.8115 0.05953 0.53264 0.0
H999 H 0.36294 0.09999 0.51453 0.0
H1000 H 0.38658 0.06728 0.56357 0.0
H1001 H 0.36167 1.00161 0.5533 0.0
H1002 H 0.27438 0.01523 0.50831 0.0
H1003 H 0.28004 1.01232 0.48567 0.0
H1004 H 0.30317 0.0579 0.49617 0.0
H1005 H 0.36869 0.07117 0.48441 0.0
H1006 H 0.34566 0.02577 0.47372 0.0
H1007 H 0.3844 0.03728 0.48826 0.0
H1008 H 0.33188 0.93851 0.53817 0.0
H1009 H 0.29925 0.88275 0.5189 0.0
H1010 H 0.29209 0.95551 0.48032 0.0
C1011 C 0.36356 0.0791 0.5229 0.0
C1012 C 0.37694 0.08864 0.53977 0.0
C1013 C 0.37647 0.06043 0.55057 0.0
C1014 C 0.36242 0.02306 0.54486 0.0
C1015 C 0.3485 0.01408 0.52833 0.0
C1016 C 0.34894 0.04122 0.51747 0.0
C1017 C 0.33022 0.02334 0.50064 0.0
C1018 C 0.29486 0.02744 0.49752 0.0
C1019 C 0.35896 0.04041 0.48589 0.0
C1020 C 0.31913 0.98216 0.50385 0.0
C1021 C 0.33017 0.97741 0.51983 0.0
C1022 C 0.32307 0.94184 0.52559 0.0
C1023 C 0.30443 0.91031 0.51462 0.0
C1024 C 0.29282 0.91461 0.4982 0.0
C1025 C 0.30024 0.95108 0.49288 0.0
H1026 H 0.0633 0.34063 0.47671 0.0
H1027 H 0.14465 0.39902 0.51734 0.0
H1028 H 0.0922 0.37469 0.5382 0.0
H1029 H 0.98973 0.35896 0.4936 0.0
H1030 H 0.95065 0.31341 0.48722 0.0
H1031 H 0.99453 0.33493 0.4752 0.0
H1032 H 1.0001 0.27448 0.47934 0.0
H1033 H 0.95622 0.25276 0.49134 0.0
H1034 H 0.99902 0.25712 0.50058 0.0
H1035 H 0.03251 0.3419 0.55492 0.0
H1036 H 0.96732 0.30482 0.56658 0.0
H1037 H 0.92242 0.27078 0.51545 0.0
C1038 C 0.06992 0.34817 0.49 0.0
C1039 C 0.10807 0.37165 0.49542 0.0
C1040 C 0.11566 0.38122 0.51289 0.0
C1041 C 0.08607 0.36749 0.52486 0.0
C1042 C 0.04884 0.3446 0.51917 0.0
C1043 C 0.04045 0.3352 0.50217 0.0
C1044 C 0.99764 0.31051 0.4996 0.0
C1045 C 0.98224 0.33067 0.48823 0.0
C1046 C 0.98767 0.2714 0.49228 0.0
C1047 C 0.98353 0.30718 0.51783 0.0
C1048 C 1.01374 0.32692 0.52886 0.0
C1049 C 1.00853 0.32668 0.54641 0.0
C1050 C 0.97146 0.30551 0.55291 0.0
C1051 C 0.93997 0.28534 0.54191 0.0
C1052 C 0.94601 0.28653 0.52411 0.0
H1053 H 0.74932 0.6846 0.54418 0.0
H1054 H 0.73027 0.59447 0.50869 0.0
H1055 H 0.69493 0.61463 0.48977 0.0
H1056 H 0.6568 0.67867 0.53831 0.0
H1057 H 0.67612 0.72939 0.5398 0.0
H1058 H 0.69874 0.70714 0.551 0.0
H1059 H 0.76288 0.75219 0.53604 0.0
H1060 H 0.74053 0.77467 0.52487 0.0
H1061 H 0.76475 0.75466 0.5131 0.0
H1062 H 0.66553 0.6464 0.47396 0.0
H1063 H 0.64347 0.68824 0.46192 0.0
H1064 H 0.67881 0.75702 0.50781 0.0
C1065 C 0.73757 0.66901 0.53246 0.0
C1066 C 0.7426 0.63795 0.52788 0.0
C1067 C 0.72681 0.61832 0.51245 0.0
C1068 C 0.70659 0.62949 0.50165 0.0
C1069 C 0.70217 0.66018 0.50652 0.0
C1070 C 0.7171 0.67968 0.52155 0.0
C1071 C 0.70911 0.7124 0.52347 0.0
C1072 C 0.68367 0.70653 0.53907 0.0
C1073 C 0.74655 0.75075 0.52442 0.0
C1074 C 0.6879 0.70863 0.50701 0.0
C1075 C 0.68421 0.67817 0.49749 0.0
C1076 C 0.66781 0.67 0.48137 0.0
C1077 C 0.65542 0.69391 0.47465 0.0
C1078 C 0.6591 0.72539 0.48406 0.0
C1079 C 0.67495 0.73256 0.50057 0.0
H1080 H 0.16376 0.288 0.31466 0.0
H1081 H 0.20172 0.40122 0.29471 0.0
H1082 H 0.21476 0.42705 0.32378 0.0
H1083 H 0.11773 0.29619 0.35187 0.0
H1084 H 0.13291 0.271 0.36582 0.0
H1085 H 0.12753 0.26057 0.34334 0.0
H1086 H 0.1974 0.27468 0.34162 0.0
H1087 H 0.2029 0.28484 0.36413 0.0
H1088 H 0.23537 0.31973 0.34919 0.0
H1089 H 0.21853 0.44035 0.35442 0.0
H1090 H 0.21933 0.44234 0.38551 0.0
H1091 H 0.1844 0.32203 0.38709 0.0
C1092 C 0.17536 0.31829 0.31642 0.0
C1093 C 0.18105 0.34244 0.30232 0.0
C1094 C 0.19617 0.38192 0.30523 0.0
C1095 C 0.20391 0.39697 0.32173 0.0
C1096 C 0.19697 0.3724 0.33532 0.0
C1097 C 0.18359 0.33403 0.33295 0.0
C1098 C 0.17861 0.31431 0.35004 0.0
C1099 C 0.1367 0.2837 0.35293 0.0
C1100 C 0.20516 0.29739 0.35132 0.0
C1101 C 0.19077 0.34759 0.36228 0.0
C1102 C 0.20104 0.38066 0.35337 0.0
C1103 C 0.21154 0.41488 0.36156 0.0
C1104 C 0.21227 0.41571 0.37936 0.0
C1105 C 0.20327 0.38268 0.38903 0.0
C1106 C 0.19189 0.34796 0.38023 0.0
H1107 H 0.73894 0.90031 0.30916 0.0
H1108 H 0.65336 0.78951 0.28999 0.0
H1109 H 0.62385 0.77267 0.31822 0.0
H1110 H 0.7512 0.86445 0.34889 0.0
H1111 H 0.75847 0.90514 0.3612 0.0
H1112 H 0.7712 0.91055 0.33897 0.0
H1113 H 0.72799 0.93994 0.33367 0.0
H1114 H 0.71478 0.93419 0.35587 0.0
H1115 H 0.67836 0.91372 0.33972 0.0
H1116 H 0.60433 0.76579 0.34818 0.0
H1117 H 0.60008 0.76689 0.37952 0.0
H1118 H 0.69931 0.87994 0.38068 0.0
C1119 C 0.71399 0.87254 0.31088 0.0
C1120 C 0.69796 0.84679 0.29705 0.0
C1121 C 0.66547 0.81053 0.30004 0.0
C1122 C 0.64849 0.80048 0.31612 0.0
C1123 C 0.6645 0.82665 0.3293 0.0
C1124 C 0.69681 0.86169 0.32702 0.0
C1125 C 0.70966 0.8831 0.34381 0.0
C1126 C 0.75002 0.89127 0.34849 0.0
C1127 C 0.70757 0.91992 0.34323 0.0
C1128 C 0.6798 0.85424 0.35584 0.0
C1129 C 0.65374 0.82218 0.34704 0.0
C1130 C 0.62431 0.79082 0.35523 0.0
C1131 C 0.622 0.79173 0.37297 0.0
C1132 C 0.64897 0.82367 0.38232 0.0
C1133 C 0.67788 0.85563 0.37368 0.0
H1134 H 0.18001 0.81804 0.30795 0.0
H1135 H 0.18978 0.92951 0.3077 0.0
H1136 H 0.1974 0.93343 0.33897 0.0
H1137 H 0.12852 0.78592 0.3492 0.0
H1138 H 0.1538 0.76166 0.3554 0.0
H1139 H 0.14539 0.76584 0.33318 0.0
H1140 H 0.21795 0.79716 0.32726 0.0
H1141 H 0.22664 0.79348 0.34947 0.0
H1142 H 0.25068 0.8391 0.33903 0.0
H1143 H 0.20935 0.9282 0.36926 0.0
H1144 H 0.22233 0.91308 0.39787 0.0
H1145 H 0.20419 0.8041 0.37943 0.0
C1146 C 0.18286 0.84273 0.31463 0.0
C1147 C 0.18391 0.87336 0.30564 0.0
C1148 C 0.18859 0.90575 0.31455 0.0
C1149 C 0.19297 0.90821 0.33224 0.0
C1150 C 0.19265 0.87801 0.34078 0.0
C1151 C 0.18747 0.84574 0.33239 0.0
C1152 C 0.19028 0.81839 0.34469 0.0
C1153 C 0.15222 0.78072 0.34568 0.0
C1154 C 0.22336 0.81165 0.33982 0.0
C1155 C 0.19851 0.84073 0.36119 0.0
C1156 C 0.19954 0.87492 0.35857 0.0
C1157 C 0.20795 0.90122 0.37159 0.0
C1158 C 0.21509 0.89222 0.38783 0.0
C1159 C 0.21363 0.85709 0.39103 0.0
C1160 C 0.20544 0.83113 0.37743 0.0
H1161 H 0.40542 0.22729 0.65028 0.0
H1162 H 0.36226 0.11033 0.63423 0.0
H1163 H 0.34097 0.08833 0.66345 0.0
H1164 H 0.43908 0.21588 0.69256 0.0
H1165 H 0.42563 0.24697 0.70317 0.0
H1166 H 0.43922 0.25436 0.68102 0.0
H1167 H 0.37497 0.25053 0.6736 0.0
H1168 H 0.36093 0.24254 0.69569 0.0
H1169 H 0.33084 0.20903 0.67972 0.0
H1170 H 0.31978 0.07771 0.69287 0.0
H1171 H 0.30683 0.07891 0.72333 0.0
H1172 H 0.36539 0.20244 0.72232 0.0
C1173 C 0.39211 0.19721 0.65309 0.0
C1174 C 0.38506 0.17038 0.64001 0.0
C1175 C 0.36743 0.1312 0.64405 0.0
C1176 C 0.35522 0.11842 0.66058 0.0
C1177 C 0.36117 0.14519 0.67305 0.0
C1178 C 0.37974 0.18378 0.66973 0.0
C1179 C 0.38219 0.20596 0.68582 0.0
C1180 C 0.42402 0.23235 0.69095 0.0
C1181 C 0.36096 0.22834 0.68357 0.0
C1182 C 0.36174 0.17363 0.69851 0.0
C1183 C 0.34974 0.13895 0.69067 0.0
C1184 C 0.32955 0.10466 0.69928 0.0
C1185 C 0.32238 0.10568 0.71659 0.0
C1186 C 0.33574 0.14075 0.72527 0.0
C1187 C 0.35498 0.17525 0.71602 0.0
H1188 H 0.8671 0.13338 0.71248 0.0
H1189 H 0.9008 0.24966 0.7268 0.0
H1190 H 0.88551 0.26141 0.69809 0.0
H1191 H 0.90873 0.15858 0.66977 0.0
H1192 H 0.87158 0.11579 0.66005 0.0
H1193 H 0.88394 0.11545 0.68206 0.0
H1194 H 0.8135 0.09041 0.69073 0.0
H1195 H 0.80099 0.09101 0.66876 0.0
H1196 H 0.79026 0.11669 0.68456 0.0
H1197 H 0.86446 0.26084 0.66861 0.0
H1198 H 0.8459 0.25021 0.63839 0.0
H1199 H 0.83054 0.13647 0.64134 0.0
C1200 C 0.8716 0.16141 0.70957 0.0
C1201 C 0.88416 0.19017 0.72225 0.0
C1202 C 0.88979 0.22651 0.71769 0.0
C1203 C 0.8815 0.2337 0.70131 0.0
C1204 C 0.8683 0.20461 0.68933 0.0
C1205 C 0.86404 0.16941 0.69305 0.0
C1206 C 0.8507 0.14381 0.6774 0.0
C1207 C 0.88052 0.13276 0.672 0.0
C1208 C 0.81153 0.10838 0.68056 0.0
C1209 C 0.84793 0.17017 0.66445 0.0
C1210 C 0.85782 0.20491 0.67176 0.0
C1211 C 0.85679 0.23383 0.66269 0.0
C1212 C 0.84588 0.22739 0.64556 0.0
C1213 C 0.83645 0.19243 0.63756 0.0
C1214 C 0.83753 0.16342 0.64716 0.0
H1215 H 0.87219 0.75064 0.70076 0.0
H1216 H 0.90277 0.67136 0.72265 0.0
H1217 H 0.90642 0.64882 0.69374 0.0
H1218 H 0.81173 0.69116 0.66971 0.0
H1219 H 0.82532 0.72695 0.65344 0.0
H1220 H 0.8302 0.74031 0.67554 0.0
H1221 H 0.90201 0.78851 0.6709 0.0
H1222 H 0.89729 0.77551 0.6487 0.0
H1223 H 0.93249 0.77252 0.66165 0.0
H1224 H 0.89715 0.62859 0.66281 0.0
H1225 H 0.87922 0.61469 0.63257 0.0
H1226 H 0.85942 0.71066 0.63066 0.0
C1227 C 0.88045 0.7291 0.69941 0.0
C1228 C 0.88733 0.7128 0.71389 0.0
C1229 C 0.8979 0.68457 0.71169 0.0
C1230 C 0.89991 0.67152 0.69533 0.0
C1231 C 0.89194 0.68751 0.68132 0.0
C1232 C 0.88305 0.71615 0.6832 0.0
C1233 C 0.87361 0.72713 0.66623 0.0
C1234 C 0.8328 0.721 0.66624 0.0
C1235 C 0.90312 0.76836 0.6616 0.0
C1236 C 0.87697 0.69909 0.65459 0.0
C1237 C 0.8878 0.67663 0.66347 0.0
C1238 C 0.88956 0.64662 0.65564 0.0
C1239 C 0.87949 0.63908 0.63837 0.0
C1240 C 0.86785 0.66151 0.62903 0.0
C1241 C 0.86765 0.69251 0.63731 0.0
H1242 H 0.93616 0.46 0.04327 0.0
H1243 H 1.01628 0.5724 0.0623 0.0
H1244 H 0.03486 0.59546 0.03279 0.0
H1245 H 0.99455 0.45752 0.01235 0.0
H1246 H 0.95839 0.43255 0.99644 0.0
H1247 H 0.94566 0.42642 0.01864 0.0
H1248 H 0.89539 0.44712 0.01319 0.0
H1249 H 0.90762 0.45286 0.99087 0.0
H1250 H 0.9096 0.49187 1.00281 0.0
H1251 H 0.05185 0.60366 1.00203 0.0
H1252 H 0.06529 0.59702 0.97202 0.0
H1253 H 0.97316 0.47952 0.97241 0.0
C1254 C 0.95645 0.48979 0.04112 0.0
C1255 C 0.97447 0.51465 0.05495 0.0
C1256 C 1.00199 0.55312 0.05179 0.0
C1257 C 1.01263 0.56644 0.0351 0.0
C1258 C 0.99541 0.54093 0.02171 0.0
C1259 C 0.96762 0.50348 0.02449 0.0
C1260 C 0.95667 0.48101 1.00799 0.0
C1261 C 0.96429 0.44741 1.00892 0.0
C1262 C 0.91483 0.46742 1.00345 0.0
C1263 C 0.98373 0.51124 0.99567 0.0
C1264 C 1.00541 0.54571 1.00381 0.0
C1265 C 0.03442 0.57707 0.99541 0.0
C1266 C 0.04174 0.57303 0.97829 0.0
C1267 C 1.02022 0.53782 0.96968 0.0
C1268 C 0.99037 0.50681 0.97853 0.0
H1269 H 0.5364 0.54734 0.04378 0.0
H1270 H 0.5252 0.4352 0.04526 0.0
H1271 H 0.50856 0.4267 0.01461 0.0
H1272 H 0.45905 0.52423 0.01364 0.0
H1273 H 0.48435 0.56981 1.00321 0.0
H1274 H 0.49261 0.56567 0.02545 0.0
H1275 H 0.56504 0.5954 0.01946 0.0
H1276 H 0.55701 0.59957 0.99723 0.0
H1277 H 0.581 0.57414 1.0036 0.0
H1278 H 0.49827 0.43295 0.98312 0.0
H1279 H 0.49246 0.45219 0.95388 0.0
H1280 H 0.51044 0.56019 0.97332 0.0
C1281 C 0.53031 0.52089 0.03769 0.0
C1282 C 0.53225 0.49196 0.04692 0.0
C1283 C 0.52356 0.45761 0.0385 0.0
C1284 C 0.51424 0.45261 0.02108 0.0
C1285 C 0.51336 0.48208 0.0123 0.0
C1286 C 0.52084 0.51541 0.02039 0.0
C1287 C 0.51914 0.5432 1.00805 0.0
C1288 C 0.48686 0.55118 0.01288 0.0
C1289 C 0.55785 0.58026 1.00703 0.0
C1290 C 0.51027 0.52066 0.99165 0.0
C1291 C 0.50694 0.48543 0.99434 0.0
C1292 C 0.50045 0.46032 0.98092 0.0
C1293 C 0.49739 0.47156 0.96435 0.0
C1294 C 0.50071 0.50756 0.96131 0.0
C1295 C 0.50699 0.53219 0.97524 0.0
H1296 H 0.57052 0.06979 0.04188 0.0
H1297 H 0.46034 0.97783 0.05873 0.0
H1298 H 0.44963 0.94824 0.03062 0.0
H1299 H 0.53626 0.076 0.99972 0.0
H1300 H 0.58026 0.0872 0.98911 0.0
H1301 H 0.58093 0.10089 1.01101 0.0
H1302 H 0.61639 0.06485 0.01937 0.0
H1303 H 0.61549 0.05073 0.99751 0.0
H1304 H 0.59572 0.01517 0.014 0.0
H1305 H 0.45066 0.92665 1.00148 0.0
H1306 H 0.45953 0.91871 0.97101 0.0
H1307 H 0.56572 0.0266 0.97109 0.0
C1308 C 0.54407 0.04356 0.03965 0.0
C1309 C 0.51701 0.02561 0.05291 0.0
C1310 C 0.48253 0.99147 0.04922 0.0
C1311 C 0.47587 0.97445 0.03317 0.0
C1312 C 0.50344 0.9922 0.02063 0.0
C1313 C 0.53648 0.02636 0.02346 0.0
C1314 C 0.56021 0.04011 1.00726 0.0
C1315 C 0.56466 0.07832 1.00143 0.0
C1316 C 0.59927 0.04287 1.00969 0.0
C1317 C 0.53529 1.00816 0.99503 0.0
C1318 C 0.50299 0.98064 1.0032 0.0
C1319 C 0.47577 0.94801 0.99488 0.0
C1320 C 0.48124 0.94359 0.97762 0.0
C1321 C 0.51347 0.97181 0.96875 0.0
C1322 C 0.54092 1.00452 0.97761 0.0
H1323 H 0.15778 0.04005 0.26023 0.0
H1324 H 0.17026 0.02757 0.20616 0.0
H1325 H 0.1526 0.07686 0.20012 0.0
H1326 H 0.07556 0.057 0.25626 0.0
H1327 H 0.09203 0.09041 0.27369 0.0
H1328 H 0.10206 0.05175 0.27346 0.0
H1329 H 0.17435 0.10014 0.27652 0.0
H1330 H 0.16455 0.13885 0.27662 0.0
H1331 H 0.19732 0.13806 0.26121 0.0
H1332 H 0.14204 0.13296 0.20043 0.0
H1333 H 0.1339 0.18825 0.20672 0.0
H1334 H 0.12456 0.16168 0.26062 0.0
C1335 C 0.15628 0.04745 0.24712 0.0
C1336 C 0.1655 0.03035 0.23362 0.0
C1337 C 0.16301 0.0403 0.21661 0.0
C1338 C 0.15311 0.06824 0.2131 0.0
C1339 C 0.145 0.0852 0.22676 0.0
C1340 C 0.14577 0.07469 0.24342 0.0
C1341 C 0.13699 0.09804 0.25581 0.0
C1342 C 0.09942 0.07279 0.26537 0.0
C1343 C 0.17029 0.12007 0.26827 0.0
C1344 C 0.13284 0.12455 0.24358 0.0
C1345 C 0.13741 0.11656 0.22688 0.0
C1346 C 0.1377 0.13901 0.21342 0.0
C1347 C 0.13332 0.17047 0.21713 0.0
C1348 C 0.12841 0.17901 0.23414 0.0
C1349 C 0.12764 0.1554 0.24748 0.0
H1350 H 0.91545 0.98669 0.2332 0.0
H1351 H 0.81046 0.98878 0.22427 0.0
H1352 H 0.84703 0.05892 0.223 0.0
H1353 H 0.96124 0.06974 0.2596 0.0
H1354 H 1.00814 0.08623 0.25077 0.0
H1355 H 0.97377 0.03614 0.25093 0.0
H1356 H 0.98162 0.03326 0.21829 0.0
H1357 H 1.01597 0.0834 0.2181 0.0
H1358 H 0.97441 0.06482 0.20463 0.0
H1359 H 0.89457 0.12912 0.22413 0.0
H1360 H 0.95035 0.19418 0.22597 0.0
H1361 H 0.0248 0.14674 0.23269 0.0
C1362 C 0.90014 1.00189 0.23097 0.0
C1363 C 0.85998 0.98212 0.2289 0.0
C1364 C 0.84115 1.00316 0.22586 0.0
C1365 C 0.86169 0.04307 0.22515 0.0
C1366 C 0.90117 0.06165 0.22728 0.0
C1367 C 0.92029 0.04178 0.22997 0.0
C1368 C 0.96296 0.06871 0.23167 0.0
C1369 C 0.97735 0.06498 0.24929 0.0
C1370 C 0.98503 0.06215 0.21731 0.0
C1371 C 0.96471 0.1068 0.22973 0.0
C1372 C 0.92873 0.10208 0.22729 0.0
C1373 C 0.92291 0.13314 0.22586 0.0
C1374 C 0.95467 0.16994 0.22698 0.0
C1375 C 0.99183 0.17546 0.2293 0.0
C1376 C 0.99679 0.14336 0.23058 0.0
H1377 H 0.89256 0.84866 0.25565 0.0
H1378 H 0.87187 0.83087 0.20143 0.0
H1379 H 0.93674 0.8395 0.19732 0.0
H1380 H 0.98915 0.92315 0.2518 0.0
H1381 H 1.00518 0.90935 0.27047 0.0
H1382 H 0.95645 0.89899 0.26907 0.0
H1383 H 0.93287 0.82753 0.27436 0.0
H1384 H 0.98157 0.83768 0.27574 0.0
H1385 H 0.94939 0.80285 0.2607 0.0
H1386 H 1.00417 0.84987 0.19951 0.0
H1387 H 0.07031 0.86733 0.20716 0.0
H1388 H 0.04736 0.88218 0.25982 0.0
C1389 C 0.90157 0.84601 0.24296 0.0
C1390 C 0.87722 0.83849 0.22886 0.0
C1391 C 0.89022 0.83641 0.21236 0.0
C1392 C 0.92685 0.84111 0.20995 0.0
C1393 C 0.9502 0.84847 0.22418 0.0
C1394 C 0.93818 0.85139 0.24033 0.0
C1395 C 0.96947 0.86205 0.25336 0.0
C1396 C 0.98072 0.90068 0.26166 0.0
C1397 C 0.95761 0.83065 0.26684 0.0
C1398 C 1.00106 0.8646 0.24206 0.0
C1399 C 0.98931 0.85619 0.22531 0.0
C1400 C 1.01366 0.85658 0.21258 0.0
C1401 C 0.05112 0.86639 0.21706 0.0
C1402 C 0.06402 0.87622 0.23408 0.0
C1403 C 0.03842 0.87495 0.2467 0.0
H1404 H 0.07255 0.18137 0.76848 0.0
H1405 H 0.06894 0.20785 0.82168 0.0
H1406 H 0.12118 0.1941 0.82787 0.0
H1407 H 0.08635 0.10237 0.77601 0.0
H1408 H 0.11688 0.11147 0.75776 0.0
H1409 H 0.08137 0.12597 0.75757 0.0
H1410 H 0.13377 0.19525 0.7509 0.0
H1411 H 0.16947 0.18096 0.75109 0.0
H1412 H 0.17454 0.21899 0.76478 0.0
H1413 H 0.17474 0.17738 0.82786 0.0
H1414 H 0.21994 0.15393 0.82226 0.0
H1415 H 0.18492 0.13519 0.76928 0.0
C1416 C 0.08322 0.18487 0.78138 0.0
C1417 C 0.06723 0.19628 0.79458 0.0
C1418 C 0.08104 0.19935 0.8114 0.0
C1419 C 0.11073 0.19172 0.81499 0.0
C1420 C 0.1259 0.18051 0.80164 0.0
C1421 C 0.11223 0.1767 0.7852 0.0
C1422 C 0.13149 0.16194 0.77328 0.0
C1423 C 0.10228 0.12314 0.76572 0.0
C1424 C 0.15363 0.19103 0.75918 0.0
C1425 C 0.1583 0.15813 0.78551 0.0
C1426 C 0.15509 0.16936 0.80178 0.0
C1427 C 0.17734 0.16844 0.81516 0.0
C1428 C 0.20304 0.1552 0.81186 0.0
C1429 C 0.20592 0.14257 0.79536 0.0
C1430 C 0.18334 0.14443 0.78206 0.0
H1431 H 0.95477 0.05576 0.78856 0.0
H1432 H 0.85096 0.05752 0.80133 0.0
H1433 H 0.8155 0.9873 0.80204 0.0
H1434 H 0.91313 0.97689 0.76095 0.0
H1435 H 0.94255 0.9574 0.76763 0.0
H1436 H 0.96033 1.00777 0.76924 0.0
H1437 H 0.97324 1.00563 0.80141 0.0
H1438 H 0.95548 0.95518 0.79985 0.0
H1439 H 0.93496 0.97321 0.81512 0.0
H1440 H 0.79017 0.91719 0.79872 0.0
H1441 H 0.77742 0.85181 0.79306 0.0
H1442 H 0.89785 0.89519 0.78369 0.0
C1443 C 0.92465 0.04142 0.79168 0.0
C1444 C 0.90564 0.06219 0.79487 0.0
C1445 C 0.86621 0.04229 0.79892 0.0
C1446 C 0.8458 1.00238 0.79934 0.0
C1447 C 0.86531 0.9828 0.79591 0.0
C1448 C 0.90395 1.00162 0.79234 0.0
C1449 C 0.91788 0.97378 0.78867 0.0
C1450 C 0.93443 0.9793 0.77055 0.0
C1451 C 0.94712 0.97716 0.80207 0.0
C1452 C 0.88084 0.93637 0.79032 0.0
C1453 C 0.85088 0.94224 0.79451 0.0
C1454 C 0.81347 0.91221 0.79568 0.0
C1455 C 0.80646 0.87526 0.79238 0.0
C1456 C 0.8367 0.86861 0.78809 0.0
C1457 C 0.8744 0.89955 0.78729 0.0
H1458 H 0.13263 0.98092 0.76921 0.0
H1459 H 0.15606 0.97677 0.82266 0.0
H1460 H 0.08885 0.92544 0.8271 0.0
H1461 H 0.03467 0.96348 0.77509 0.0
H1462 H 1.01835 0.93602 0.75574 0.0
H1463 H 0.06717 0.97378 0.7575 0.0
H1464 H 0.0902 0.9261 0.74986 0.0
H1465 H 0.04151 0.88819 0.74828 0.0
H1466 H 0.07404 0.88367 0.76247 0.0
H1467 H 1.01982 0.86962 0.82451 0.0
H1468 H 0.9549 0.81952 0.81585 0.0
H1469 H 0.97825 0.86366 0.76426 0.0
C1470 C 0.12338 0.96945 0.78188 0.0
C1471 C 0.14925 0.98244 0.7956 0.0
C1472 C 0.13636 0.96717 0.81205 0.0
C1473 C 0.0984 0.93799 0.81463 0.0
C1474 C 0.07375 0.92509 0.80065 0.0
C1475 C 0.0857 0.94096 0.78467 0.0
C1476 C 0.05424 0.92214 0.77163 0.0
C1477 C 0.04295 0.95055 0.76458 0.0
C1478 C 0.0657 0.90394 0.75722 0.0
C1479 C 0.02291 0.8923 0.7826 0.0
C1480 C 0.03443 0.89428 0.79931 0.0
C1481 C 1.01042 0.86823 0.8115 0.0
C1482 C 0.97369 0.83977 0.80646 0.0
C1483 C 0.96139 0.83779 0.78941 0.0
C1484 C 0.98652 0.86453 0.77744 0.0
H1485 H 0.80728 0.49479 0.59365 0.0
H1486 H 0.81603 0.51582 0.53916 0.0
H1487 H 0.83081 0.46414 0.53479 0.0
H1488 H 0.88481 0.47459 0.59633 0.0
H1489 H 0.86149 0.43808 0.61223 0.0
H1490 H 0.85167 0.47679 0.61109 0.0
H1491 H 0.77938 0.4286 0.60819 0.0
H1492 H 0.78895 0.38975 0.60933 0.0
H1493 H 0.76309 0.39346 0.59145 0.0
H1494 H 0.84227 0.4088 0.53624 0.0
H1495 H 0.85235 0.3552 0.54351 0.0
H1496 H 0.83809 0.37133 0.59709 0.0
C1497 C 0.8123 0.48855 0.58079 0.0
C1498 C 0.81036 0.50925 0.56673 0.0
C1499 C 0.8174 0.50037 0.55013 0.0
C1500 C 0.82577 0.47105 0.54751 0.0
C1501 C 0.82733 0.45113 0.56164 0.0
C1502 C 0.82105 0.45963 0.57797 0.0
C1503 C 0.82463 0.43401 0.59097 0.0
C1504 C 0.85762 0.45726 0.60338 0.0
C1505 C 0.78676 0.41004 0.60054 0.0
C1506 C 0.8336 0.40953 0.57939 0.0
C1507 C 0.83485 0.41979 0.56252 0.0
C1508 C 0.84152 0.40062 0.5494 0.0
C1509 C 0.84699 0.3701 0.55365 0.0
C1510 C 0.84601 0.35919 0.57085 0.0
C1511 C 0.83946 0.37941 0.58387 0.0
H1512 H 0.61855 0.48063 0.58614 0.0
H1513 H 0.68298 0.47268 0.54341 0.0
H1514 H 0.63168 0.40778 0.53777 0.0
H1515 H 0.57891 0.38485 0.60043 0.0
H1516 H 0.5329 0.37916 0.60573 0.0
H1517 H 0.57485 0.4256 0.60658 0.0
H1518 H 0.54328 0.45147 0.58589 0.0
H1519 H 0.50119 0.40509 0.585 0.0
H1520 H 0.52564 0.42835 0.56562 0.0
H1521 H 0.57455 0.34232 0.5372 0.0
H1522 H 0.51401 0.28199 0.54125 0.0
H1523 H 0.48452 0.33287 0.58311 0.0
C1524 C 0.62185 0.46554 0.57548 0.0
C1525 C 0.6555 0.48225 0.56543 0.0
C1526 C 0.65832 0.46089 0.55167 0.0
C1527 C 0.62901 0.4238 0.54821 0.0
C1528 C 0.5966 0.40823 0.55844 0.0
C1529 C 0.59263 0.42845 0.57171 0.0
C1530 C 0.55468 0.40489 0.58073 0.0
C1531 C 0.56071 0.39823 0.59948 0.0
C1532 C 0.52972 0.42357 0.57921 0.0
C1533 C 0.53821 0.36825 0.57051 0.0
C1534 C 0.56295 0.37076 0.55775 0.0
C1535 C 0.55474 0.34012 0.54705 0.0
C1536 C 0.5203 0.30594 0.54945 0.0
C1537 C 0.49432 0.30276 0.56237 0.0
C1538 C 0.50348 0.33452 0.57295 0.0
H1539 H 0.68435 0.13211 0.56891 0.0
H1540 H 0.75065 0.24307 0.54528 0.0
H1541 H 0.69312 0.24974 0.54444 0.0
H1542 H 0.59517 0.10306 0.54576 0.0
H1543 H 0.56595 0.07944 0.56408 0.0
H1544 H 0.61165 0.08229 0.56153 0.0
H1545 H 0.63204 0.11373 0.5913 0.0
H1546 H 0.5866 0.11133 0.59388 0.0
H1547 H 0.63009 0.15638 0.5958 0.0
H1548 H 0.62904 0.24605 0.54799 0.0
H1549 H 0.56368 0.23177 0.55496 0.0
H1550 H 0.53926 0.12293 0.57603 0.0
C1551 C 0.68674 0.15757 0.56327 0.0
C1552 C 0.72214 0.18699 0.55708 0.0
C1553 C 0.72391 0.22001 0.55002 0.0
C1554 C 0.69136 0.22409 0.54951 0.0
C1555 C 0.65715 0.19488 0.55605 0.0
C1556 C 0.65459 0.16214 0.56269 0.0
C1557 C 0.61489 0.13563 0.56955 0.0
C1558 C 0.59579 0.09787 0.55963 0.0
C1559 C 0.616 0.12889 0.58877 0.0
C1560 C 0.59562 0.1588 0.56597 0.0
C1561 C 0.62039 0.19279 0.55811 0.0
C1562 C 0.6093 0.2193 0.55397 0.0
C1563 C 0.57194 0.21082 0.55793 0.0
C1564 C 0.54593 0.17609 0.566 0.0
C1565 C 0.55824 0.14984 0.56999 0.0
H1566 H 0.90017 0.55171 0.12319 0.0
H1567 H 0.84603 0.43704 0.14357 0.0
H1568 H 0.78428 0.43598 0.14464 0.0
H1569 H 0.84419 0.58435 0.14764 0.0
H1570 H 0.84248 0.61218 0.13014 0.0
H1571 H 0.88268 0.60473 0.13238 0.0
H1572 H 0.8715 0.57733 0.10174 0.0
H1573 H 0.83115 0.58441 0.09945 0.0
H1574 H 0.82548 0.53784 0.09612 0.0
H1575 H 0.72704 0.44612 0.14132 0.0
H1576 H 0.68043 0.46663 0.13444 0.0
H1577 H 0.77289 0.57514 0.11679 0.0
C1578 C 0.87553 0.52654 0.12816 0.0
C1579 C 0.87815 0.49451 0.13339 0.0
C1580 C 0.84495 0.46208 0.13963 0.0
C1581 C 0.80967 0.46119 0.14025 0.0
C1582 C 0.80802 0.49304 0.13468 0.0
C1583 C 0.84021 0.52521 0.12888 0.0
C1584 C 0.83071 0.5551 0.12294 0.0
C1585 C 0.85123 0.59123 0.13394 0.0
C1586 C 0.84027 0.56418 0.10394 0.0
C1587 C 0.78799 0.53453 0.12599 0.0
C1588 C 0.77539 0.49886 0.13285 0.0
C1589 C 0.73676 0.47421 0.13615 0.0
C1590 C 0.71043 0.48625 0.13226 0.0
C1591 C 0.72266 0.52268 0.12509 0.0
C1592 C 0.76219 0.54706 0.12212 0.0
H1593 H 0.52664 0.2372 0.09304 0.0
H1594 H 0.52376 0.21203 0.1468 0.0
H1595 H 0.53664 0.277 0.15391 0.0
H1596 H 0.60419 0.33286 0.09578 0.0
H1597 H 0.58537 0.3506 0.07967 0.0
H1598 H 0.57422 0.30171 0.07911 0.0
H1599 H 0.50197 0.27979 0.07911 0.0
H1600 H 0.51295 0.32865 0.07977 0.0
H1601 H 0.48255 0.29572 0.09584 0.0
H1602 H 0.54902 0.34577 0.15489 0.0
H1603 H 0.56597 0.41283 0.14946 0.0
H1604 H 0.56333 0.39234 0.09511 0.0
C1605 C 0.5284 0.2453 0.1063 0.0
C1606 C 0.52399 0.21954 0.11937 0.0
C1607 C 0.52727 0.23142 0.13659 0.0
C1608 C 0.53431 0.26816 0.14074 0.0
C1609 C 0.53841 0.29289 0.12752 0.0
C1610 C 0.53599 0.28197 0.11064 0.0
C1611 C 0.54335 0.31427 0.09876 0.0
C1612 C 0.5789 0.32552 0.08768 0.0
C1613 C 0.5081 0.30398 0.08772 0.0
C1614 C 0.55029 0.34509 0.11153 0.0
C1615 C 0.54687 0.33228 0.12808 0.0
C1616 C 0.55187 0.35606 0.14196 0.0
C1617 C 0.56129 0.394 0.13879 0.0
C1618 C 0.56616 0.4078 0.1219 0.0
C1619 C 0.56012 0.38273 0.10819 0.0
H1620 H 0.67468 0.14544 0.11078 0.0
H1621 H 0.61637 0.18672 0.14362 0.0
H1622 H 0.67667 0.24742 0.14728 0.0
H1623 H 0.76572 0.19082 0.13378 0.0
H1624 H 0.79337 0.20122 0.11446 0.0
H1625 H 0.74622 0.16018 0.11547 0.0
H1626 H 0.72652 0.18433 0.08896 0.0
H1627 H 0.77346 0.22556 0.08794 0.0
H1628 H 0.73205 0.23131 0.08923 0.0
H1629 H 0.74251 0.30551 0.14558 0.0
H1630 H 0.80867 0.35524 0.13948 0.0
H1631 H 0.82408 0.27499 0.10842 0.0
C1632 C 0.67461 0.16697 0.11895 0.0
C1633 C 0.64071 0.16119 0.12694 0.0
C1634 C 0.64195 0.19032 0.13743 0.0
C1635 C 0.67609 0.22496 0.13957 0.0
C1636 C 0.7088 0.22994 0.13125 0.0
C1637 C 0.7084 0.2016 0.12127 0.0
C1638 C 0.74708 0.21449 0.11326 0.0
C1639 C 0.7641 0.19024 0.11963 0.0
C1640 C 0.74461 0.21389 0.09369 0.0
C1641 C 0.76917 0.25479 0.12002 0.0
C1642 C 0.74668 0.26315 0.13042 0.0
C1643 C 0.76053 0.29909 0.13764 0.0
C1644 C 0.79834 0.32718 0.13414 0.0
C1645 C 0.82204 0.31927 0.12351 0.0
C1646 C 0.80698 0.28235 0.11649 0.0
H1647 H 0.47476 0.82964 0.88893 0.0
H1648 H 0.59467 0.91656 0.88936 0.0
H1649 H 0.61264 0.86728 0.89234 0.0
H1650 H 0.48039 0.76975 0.91968 0.0
H1651 H 0.44776 0.72546 0.90942 0.0
H1652 H 0.44341 0.76704 0.90594 0.0
H1653 H 0.44873 0.76063 0.87336 0.0
H1654 H 0.45266 0.71872 0.87674 0.0
H1655 H 0.48895 0.75821 0.86482 0.0
H1656 H 0.61831 0.81043 0.89813 0.0
H1657 H 0.61128 0.74727 0.90333 0.0
H1658 H 0.48845 0.69536 0.89819 0.0
C1659 C 0.50478 0.83816 0.88925 0.0
C1660 C 0.53326 0.8771 0.88896 0.0
C1661 C 0.57223 0.88704 0.88963 0.0
C1662 C 0.58284 0.85923 0.89133 0.0
C1663 C 0.55423 0.82135 0.89214 0.0
C1664 C 0.51602 0.81054 0.89083 0.0
C1665 C 0.49125 0.76761 0.89242 0.0
C1666 C 0.46411 0.75685 0.90778 0.0
C1667 C 0.46909 0.75027 0.87584 0.0
C1668 C 0.52156 0.75638 0.89525 0.0
C1669 C 0.55765 0.78796 0.89507 0.0
C1670 C 0.59024 0.78536 0.89811 0.0
C1671 C 0.58596 0.74942 0.90121 0.0
C1672 C 0.54939 0.71643 0.90116 0.0
C1673 C 0.51679 0.72007 0.89811 0.0
H1674 H 0.32472 0.7913 0.93131 0.0
H1675 H 0.34075 0.81867 0.87749 0.0
H1676 H 0.28121 0.75882 0.87106 0.0
H1677 H 0.28814 0.69067 0.92623 0.0
H1678 H 0.25477 0.67781 0.94363 0.0
H1679 H 0.29834 0.723 0.94383 0.0
H1680 H 0.25916 0.75744 0.94736 0.0
H1681 H 0.21547 0.71234 0.94705 0.0
H1682 H 0.22248 0.74894 0.93209 0.0
H1683 H 0.21834 0.69556 0.87067 0.0
H1684 H 0.16099 0.63294 0.87626 0.0
H1685 H 0.18731 0.64714 0.93026 0.0
C1686 C 0.31562 0.78479 0.91818 0.0
C1687 C 0.33749 0.80979 0.90492 0.0
C1688 C 0.3248 0.79987 0.88787 0.0
C1689 C 0.29081 0.76602 0.8841 0.0
C1690 C 0.26982 0.74214 0.8975 0.0
C1691 C 0.28198 0.75098 0.91419 0.0
C1692 C 0.2549 0.72007 0.92624 0.0
C1693 C 0.27526 0.70181 0.93552 0.0
C1694 C 0.23694 0.73564 0.93893 0.0
C1695 C 0.22551 0.69252 0.91376 0.0
C1696 C 0.23436 0.70577 0.89724 0.0
C1697 C 0.21121 0.68495 0.88357 0.0
C1698 C 0.17857 0.64947 0.88687 0.0
C1699 C 0.16953 0.63502 0.90368 0.0
C1700 C 0.1933 0.65723 0.91724 0.0
H1701 H 0.34889 0.48312 0.90109 0.0
H1702 H 0.41683 0.60287 0.88814 0.0
H1703 H 0.35912 0.60913 0.89001 0.0
H1704 H 0.26483 0.46457 0.87765 0.0
H1705 H 0.23242 0.43236 0.89342 0.0
H1706 H 0.27903 0.43739 0.89083 0.0
H1707 H 0.29304 0.45428 0.92285 0.0
H1708 H 0.24652 0.44939 0.92554 0.0
H1709 H 0.28856 0.4931 0.93154 0.0
H1710 H 0.29373 0.6022 0.89353 0.0
H1711 H 0.22604 0.58274 0.8987 0.0
H1712 H 0.20152 0.46764 0.90918 0.0
C1713 C 0.35172 0.51068 0.8986 0.0
C1714 C 0.38739 0.54249 0.89444 0.0
C1715 C 0.38978 0.57805 0.89131 0.0
C1716 C 0.35717 0.5819 0.89235 0.0
C1717 C 0.32245 0.54994 0.89651 0.0
C1718 C 0.31955 0.51503 0.89959 0.0
C1719 C 0.27902 0.48518 0.90397 0.0
C1720 C 0.26288 0.45298 0.89067 0.0
C1721 C 0.27667 0.46959 0.92205 0.0
C1722 C 0.25955 0.50876 0.90297 0.0
C1723 C 0.285 0.54601 0.8986 0.0
C1724 C 0.27352 0.57307 0.8969 0.0
C1725 C 0.235 0.5617 0.89977 0.0
C1726 C 0.20846 0.52365 0.90433 0.0
C1727 C 0.22112 0.49699 0.90591 0.0
H1728 H 0.48416 0.7631 0.44698 0.0
H1729 H 0.58249 0.86297 0.46771 0.0
H1730 H 0.54367 0.89453 0.47092 0.0
H1731 H 0.44599 0.80988 0.42319 0.0
H1732 H 0.3968 0.7761 0.42789 0.0
H1733 H 0.43189 0.76107 0.42782 0.0
H1734 H 0.41314 0.73604 0.4587 0.0
H1735 H 0.3777 0.75068 0.45881 0.0
H1736 H 0.41382 0.76754 0.47512 0.0
H1737 H 0.49514 0.91712 0.46917 0.0
H1738 H 0.43898 0.92599 0.46597 0.0
H1739 H 0.37153 0.80966 0.44839 0.0
C1740 C 0.49741 0.79151 0.45234 0.0
C1741 C 0.53634 0.81075 0.45703 0.0
C1742 C 0.55265 0.84771 0.46413 0.0
C1743 C 0.53086 0.86588 0.46591 0.0
C1744 C 0.49266 0.84635 0.46086 0.0
C1745 C 0.4759 0.80966 0.45455 0.0
C1746 C 0.43428 0.79466 0.45021 0.0
C1747 C 0.42683 0.78487 0.43115 0.0
C1748 C 0.4082 0.76019 0.46138 0.0
C1749 C 0.43035 0.82892 0.4547 0.0
C1750 C 0.4644 0.85859 0.46069 0.0
C1751 C 0.46822 0.89387 0.46474 0.0
C1752 C 0.43635 0.89877 0.46278 0.0
C1753 C 0.40101 0.86843 0.45707 0.0
C1754 C 0.3981 0.83309 0.45304 0.0
H1755 H 0.1947 0.54382 0.47683 0.0
H1756 H 0.18033 0.53876 0.42197 0.0
H1757 H 0.19757 0.60639 0.42174 0.0
H1758 H 0.15504 0.60447 0.48493 0.0
H1759 H 0.18797 0.63067 0.50182 0.0
H1760 H 0.17544 0.58209 0.49765 0.0
H1761 H 0.24701 0.60296 0.49405 0.0
H1762 H 0.25975 0.65163 0.49817 0.0
H1763 H 0.27552 0.63953 0.47884 0.0
H1764 H 0.21714 0.67435 0.4273 0.0
H1765 H 0.23379 0.73759 0.43836 0.0
H1766 H 0.23402 0.699 0.48992 0.0
C1767 C 0.19544 0.55705 0.46477 0.0
C1768 C 0.18617 0.53599 0.4494 0.0
C1769 C 0.1869 0.55418 0.4339 0.0
C1770 C 0.19693 0.59265 0.43364 0.0
C1771 C 0.20595 0.61256 0.44899 0.0
C1772 C 0.20504 0.5954 0.4643 0.0
C1773 C 0.21492 0.62309 0.47903 0.0
C1774 C 0.18134 0.60925 0.4916 0.0
C1775 C 0.25148 0.62969 0.48805 0.0
C1776 C 0.2214 0.65846 0.4696 0.0
C1777 C 0.21642 0.65175 0.45227 0.0
C1778 C 0.22104 0.67994 0.44084 0.0
C1779 C 0.23062 0.71587 0.44729 0.0
C1780 C 0.23521 0.72339 0.46504 0.0
C1781 C 0.23066 0.6942 0.47631 0.0
H1782 H 0.49823 0.60135 0.45139 0.0
H1783 H 0.47687 0.69146 0.46767 0.0
H1784 H 0.41037 0.64356 0.47486 0.0
H1785 H 0.4097 0.54479 0.43124 0.0
H1786 H 0.40518 0.50003 0.43764 0.0
H1787 H 0.45177 0.5412 0.43513 0.0
H1788 H 0.46883 0.5333 0.46611 0.0
H1789 H 0.42222 0.49205 0.46871 0.0
H1790 H 0.43838 0.53139 0.48337 0.0
H1791 H 0.34498 0.58609 0.47816 0.0
H1792 H 0.28602 0.52349 0.47783 0.0
H1793 H 0.35065 0.47115 0.45946 0.0
C1794 C 0.47963 0.61101 0.45654 0.0
C1795 C 0.49274 0.65012 0.45902 0.0
C1796 C 0.46759 0.6616 0.46592 0.0
C1797 C 0.42974 0.63462 0.46996 0.0
C1798 C 0.41765 0.5963 0.46716 0.0
C1799 C 0.44192 0.5845 0.4607 0.0
C1800 C 0.42157 0.54179 0.45828 0.0
C1801 C 0.42209 0.53136 0.43945 0.0
C1802 C 0.43878 0.52357 0.46981 0.0
C1803 C 0.3818 0.53145 0.46404 0.0
C1804 C 0.38014 0.56323 0.4692 0.0
C1805 C 0.34602 0.56095 0.47433 0.0
C1806 C 0.31268 0.52526 0.47406 0.0
C1807 C 0.31373 0.49237 0.46868 0.0
C1808 C 0.34891 0.49563 0.4638 0.0
loop_
_geom_bond_atom_site_label_1
_geom_bond_atom_site_label_2
_geom_bond_distance
_geom_bond_site_symmetry_2
_ccdc_geom_bond_type
Co0 N4 2.148 . S
Co0 N10 2.128 . S
Co0 N20 2.194 . S
Co0 O25 2.351 . S
Co0 O26 2.155 . S
Co0 O27 2.096 . S
C1 N4 1.301 . S
C1 N5 1.328 . S
C1 H6 0.930 . S
C2 C3 1.333 . S
C2 N4 1.317 . S
C2 H7 0.930 . S
C3 C2 1.333 . S
C3 N5 1.350 . S
C3 H29 0.931 . S
N4 Co0 2.148 . S
N4 C1 1.301 . S
N4 C2 1.317 . S
N5 C1 1.328 . S
N5 C3 1.350 . S
H6 C1 0.930 . S
H7 C2 0.930 . S
C8 O9 1.224 . S
C8 O27 1.247 . S
O9 C8 1.224 . S
N10 Co0 2.128 . S
N10 C11 1.355 . S
N10 C13 1.311 . S
C11 N10 1.355 . S
C11 C12 1.381 . S
C11 H23 0.929 . S
C12 C11 1.381 . S
C12 N14 1.393 1_455 S
C12 H30 0.904 1_455 S
C13 N10 1.311 . S
C13 N14 1.341 1_455 S
C13 H24 0.929 . S
N14 C12 1.393 1_655 S
N14 C13 1.341 1_655 S
C15 C18 1.365 . S
C15 N20 1.328 . S
C15 H21 0.929 . S
C16 C17 1.362 . S
C16 C19 1.378 . S
C16 H31 0.929 . S
C17 C16 1.362 . S
C17 C18 1.366 . S
C18 C15 1.365 . S
C18 C17 1.366 . S
C18 H32 0.930 . S
C19 C16 1.378 . S
C19 N20 1.315 . S
C19 H22 0.930 . S
N20 Co0 2.194 . S
N20 C15 1.328 . S
N20 C19 1.315 . S
H21 C15 0.929 . S
H22 C19 0.930 . S
H23 C11 0.929 . S
H24 C13 0.929 . S
O25 Co0 2.351 . S
O25 C28 1.244 . S
O26 Co0 2.155 . S
O26 C28 1.240 . S
O27 Co0 2.096 . S
O27 C8 1.247 . S
C28 O25 1.244 . S
C28 O26 1.240 . S
H29 C3 0.931 . S
H30 C12 0.904 1_655 S
H31 C16 0.929 . S
H32 C18 0.930 . S
Co33 N37 2.148 . S
Co33 N43 2.128 . S
Co33 N53 2.194 . S
Co33 O58 2.351 . S
Co33 O59 2.155 . S
Co33 O60 2.096 . S
C34 N37 1.301 . S
C34 N38 1.328 . S
C34 H39 0.930 . S
C35 C36 1.333 . S
C35 N37 1.317 . S
C35 H40 0.930 . S
C36 C35 1.333 . S
C36 N38 1.350 . S
C36 H62 0.931 . S
N37 Co33 2.148 . S
N37 C34 1.301 . S
N37 C35 1.317 . S
N38 C34 1.328 . S
N38 C36 1.350 . S
H39 C34 0.930 . S
H40 C35 0.930 . S
C41 O42 1.224 . S
C41 O60 1.247 . S
O42 C41 1.224 . S
N43 Co33 2.128 . S
N43 C44 1.355 . S
N43 C46 1.311 . S
C44 N43 1.355 . S
C44 C45 1.363 . S
C44 H56 0.929 . S
C45 C44 1.363 . S
C45 N47 1.375 . S
C45 H63 0.931 . S
C46 N43 1.311 . S
C46 N47 1.347 . S
C46 H57 0.929 . S
N47 C45 1.375 . S
N47 C46 1.347 . S
C48 C51 1.365 . S
C48 N53 1.328 . S
C48 H54 0.929 . S
C49 C50 1.362 . S
C49 C52 1.378 . S
C49 H64 0.929 . S
C50 C49 1.362 . S
C50 C51 1.366 . S
C51 C48 1.365 . S
C51 C50 1.366 . S
C51 H65 0.930 . S
C52 C49 1.378 . S
C52 N53 1.315 . S
C52 H55 0.930 . S
N53 Co33 2.194 . S
N53 C48 1.328 . S
N53 C52 1.315 . S
H54 C48 0.929 . S
H55 C52 0.930 . S
H56 C44 0.929 . S
H57 C46 0.929 . S
O58 Co33 2.351 . S
O58 C61 1.244 . S
O59 Co33 2.155 . S
O59 C61 1.240 . S
O60 Co33 2.096 . S
O60 C41 1.247 . S
C61 O58 1.244 . S
C61 O59 1.240 . S
H62 C36 0.931 . S
H63 C45 0.931 . S
H64 C49 0.929 . S
H65 C51 0.930 . S
Co66 N70 2.148 . S
Co66 N76 2.128 . S
Co66 N86 2.194 . S
Co66 O91 2.351 . S
Co66 O92 2.155 . S
Co66 O93 2.096 . S
C67 N70 1.301 . S
C67 N71 1.328 . S
C67 H72 0.930 . S
C68 C69 1.333 . S
C68 N70 1.317 . S
C68 H73 0.930 . S
C69 C68 1.333 . S
C69 N71 1.350 . S
C69 H95 0.931 . S
N70 Co66 2.148 . S
N70 C67 1.301 . S
N70 C68 1.317 . S
N71 C67 1.328 . S
N71 C69 1.350 . S
H72 C67 0.930 . S
H73 C68 0.930 . S
C74 O75 1.224 . S
C74 O93 1.247 . S
O75 C74 1.224 . S
N76 Co66 2.128 . S
N76 C77 1.355 . S
N76 C79 1.311 . S
C77 N76 1.355 . S
C77 C78 1.363 . S
C77 H89 0.929 . S
C78 C77 1.363 . S
C78 N80 1.375 . S
C78 H96 0.931 1_565 S
C79 N76 1.311 . S
C79 N80 1.347 . S
C79 H90 0.929 . S
N80 C78 1.375 . S
N80 C79 1.347 . S
C81 C84 1.365 . S
C81 N86 1.328 . S
C81 H87 0.929 . S
C82 C83 1.362 . S
C82 C85 1.378 . S
C82 H97 0.929 . S
C83 C82 1.362 . S
C83 C84 1.366 . S
C84 C81 1.365 . S
C84 C83 1.366 . S
C84 H98 0.930 . S
C85 C82 1.378 . S
C85 N86 1.315 . S
C85 H88 0.930 . S
N86 Co66 2.194 . S
N86 C81 1.328 . S
N86 C85 1.315 . S
H87 C81 0.929 . S
H88 C85 0.930 . S
H89 C77 0.929 . S
H90 C79 0.929 . S
O91 Co66 2.351 . S
O91 C94 1.244 . S
O92 Co66 2.155 . S
O92 C94 1.240 . S
O93 Co66 2.096 . S
O93 C74 1.247 . S
C94 O91 1.244 . S
C94 O92 1.240 . S
H95 C69 0.931 . S
H96 C78 0.931 1_545 S
H97 C82 0.929 . S
H98 C84 0.930 . S
Co99 N103 2.148 . S
Co99 N109 2.128 . S
Co99 N119 2.194 . S
Co99 O124 2.351 . S
Co99 O125 2.155 . S
Co99 O126 2.096 . S
C100 N103 1.301 . S
C100 N104 1.328 . S
C100 H105 0.930 . S
C101 C102 1.333 . S
C101 N103 1.317 . S
C101 H106 0.930 . S
C102 C101 1.333 . S
C102 N104 1.350 . S
C102 H128 0.931 . S
N103 Co99 2.148 . S
N103 C100 1.301 . S
N103 C101 1.317 . S
N104 C100 1.328 . S
N104 C102 1.350 . S
H105 C100 0.930 . S
H106 C101 0.930 . S
C107 O108 1.224 . S
C107 O126 1.247 . S
O108 C107 1.224 . S
N109 Co99 2.128 . S
N109 C110 1.355 . S
N109 C112 1.311 . S
C110 N109 1.355 . S
C110 C111 1.381 . S
C110 H122 0.929 . S
C111 C110 1.381 . S
C111 N113 1.393 1_545 S
C111 H129 0.904 1_545 S
C112 N109 1.311 . S
C112 N113 1.341 1_545 S
C112 H123 0.929 . S
N113 C111 1.393 1_565 S
N113 C112 1.341 1_565 S
C114 C117 1.365 . S
C114 N119 1.328 . S
C114 H120 0.929 . S
C115 C116 1.362 . S
C115 C118 1.378 . S
C115 H130 0.929 . S
C116 C115 1.362 . S
C116 C117 1.366 . S
C117 C114 1.365 . S
C117 C116 1.366 . S
C117 H131 0.930 . S
C118 C115 1.378 . S
C118 N119 1.315 . S
C118 H121 0.930 . S
N119 Co99 2.194 . S
N119 C114 1.328 . S
N119 C118 1.315 . S
H120 C114 0.929 . S
H121 C118 0.930 . S
H122 C110 0.929 . S
H123 C112 0.929 . S
O124 Co99 2.351 . S
O124 C127 1.244 . S
O125 Co99 2.155 . S
O125 C127 1.240 . S
O126 Co99 2.096 . S
O126 C107 1.247 . S
C127 O124 1.244 . S
C127 O125 1.240 . S
H128 C102 0.931 . S
H129 C111 0.904 1_565 S
H130 C115 0.929 . S
H131 C117 0.930 . S
Co132 N136 2.148 . S
Co132 N142 2.128 . S
Co132 N152 2.194 . S
Co132 O157 2.351 . S
Co132 O158 2.155 . S
Co132 O159 2.096 . S
C133 N136 1.301 . S
C133 N137 1.328 . S
C133 H138 0.930 . S
C134 C135 1.333 . S
C134 N136 1.317 . S
C134 H139 0.930 . S
C135 C134 1.333 . S
C135 N137 1.350 . S
C135 H161 0.931 . S
N136 Co132 2.148 . S
N136 C133 1.301 . S
N136 C134 1.317 . S
N137 C133 1.328 . S
N137 C135 1.350 . S
H138 C133 0.930 . S
H139 C134 0.930 . S
C140 O141 1.224 . S
C140 O159 1.247 . S
O141 C140 1.224 . S
N142 Co132 2.128 . S
N142 C143 1.355 . S
N142 C145 1.311 . S
C143 N142 1.355 . S
C143 C144 1.363 . S
C143 H155 0.929 . S
C144 C143 1.363 . S
C144 N146 1.375 . S
C144 H162 0.931 1_655 S
C145 N142 1.311 . S
C145 N146 1.347 . S
C145 H156 0.929 . S
N146 C144 1.375 . S
N146 C145 1.347 . S
C147 C150 1.365 . S
C147 N152 1.328 . S
C147 H153 0.929 . S
C148 C149 1.362 . S
C148 C151 1.378 . S
C148 H163 0.929 . S
C149 C148 1.362 . S
C149 C150 1.366 . S
C150 C147 1.365 . S
C150 C149 1.366 . S
C150 H164 0.930 . S
C151 C148 1.378 . S
C151 N152 1.315 . S
C151 H154 0.930 . S
N152 Co132 2.194 . S
N152 C147 1.328 . S
N152 C151 1.315 . S
H153 C147 0.929 . S
H154 C151 0.930 . S
H155 C143 0.929 . S
H156 C145 0.929 . S
O157 Co132 2.351 . S
O157 C160 1.244 . S
O158 Co132 2.155 . S
O158 C160 1.240 . S
O159 Co132 2.096 . S
O159 C140 1.247 . S
C160 O157 1.244 . S
C160 O158 1.240 . S
H161 C135 0.931 . S
H162 C144 0.931 1_455 S
H163 C148 0.929 . S
H164 C150 0.930 . S
Co165 N169 2.148 . S
Co165 N175 2.128 . S
Co165 N185 2.194 . S
Co165 O190 2.351 . S
Co165 O191 2.155 . S
Co165 O192 2.096 . S
C166 N169 1.301 . S
C166 N170 1.328 . S
C166 H171 0.930 . S
C167 C168 1.333 . S
C167 N169 1.317 . S
C167 H172 0.930 . S
C168 C167 1.333 . S
C168 N170 1.350 . S
C168 H194 0.931 . S
N169 Co165 2.148 . S
N169 C166 1.301 . S
N169 C167 1.317 . S
N170 C166 1.328 . S
N170 C168 1.350 . S
H171 C166 0.930 . S
H172 C167 0.930 . S
C173 O174 1.224 . S
C173 O192 1.247 . S
O174 C173 1.224 . S
N175 Co165 2.128 . S
N175 C176 1.355 . S
N175 C178 1.311 . S
C176 N175 1.355 . S
C176 C177 1.363 . S
C176 H188 0.929 . S
C177 C176 1.363 . S
C177 N179 1.375 . S
C177 H195 0.931 . S
C178 N175 1.311 . S
C178 N179 1.347 . S
C178 H189 0.929 . S
N179 C177 1.375 . S
N179 C178 1.347 . S
C180 C183 1.365 . S
C180 N185 1.328 . S
C180 H186 0.929 . S
C181 C182 1.362 . S
C181 C184 1.378 . S
C181 H196 0.929 . S
C182 C181 1.362 . S
C182 C183 1.366 . S
C183 C180 1.365 . S
C183 C182 1.366 . S
C183 H197 0.930 . S
C184 C181 1.378 . S
C184 N185 1.315 . S
C184 H187 0.930 . S
N185 Co165 2.194 . S
N185 C180 1.328 . S
N185 C184 1.315 . S
H186 C180 0.929 . S
H187 C184 0.930 . S
H188 C176 0.929 . S
H189 C178 0.929 . S
O190 Co165 2.351 . S
O190 C193 1.244 . S
O191 Co165 2.155 . S
O191 C193 1.240 . S
O192 Co165 2.096 . S
O192 C173 1.247 . S
C193 O190 1.244 . S
C193 O191 1.240 . S
H194 C168 0.931 . S
H195 C177 0.931 . S
H196 C181 0.929 . S
H197 C183 0.930 . S
Co198 N202 2.148 . S
Co198 N208 2.128 . S
Co198 N218 2.194 . S
Co198 O223 2.351 . S
Co198 O224 2.155 . S
Co198 O225 2.096 . S
C199 N202 1.301 . S
C199 N203 1.328 . S
C199 H204 0.930 . S
C200 C201 1.333 . S
C200 N202 1.317 . S
C200 H205 0.930 . S
C201 C200 1.333 . S
C201 N203 1.350 . S
C201 H227 0.931 . S
N202 Co198 2.148 . S
N202 C199 1.301 . S
N202 C200 1.317 . S
N203 C199 1.328 . S
N203 C201 1.350 . S
H204 C199 0.930 . S
H205 C200 0.930 . S
C206 O207 1.224 . S
C206 O225 1.247 . S
O207 C206 1.224 . S
N208 Co198 2.128 . S
N208 C209 1.355 . S
N208 C211 1.311 . S
C209 N208 1.355 . S
C209 C210 1.363 . S
C209 H221 0.929 . S
C210 C209 1.363 . S
C210 N212 1.375 . S
C210 H228 0.931 . S
C211 N208 1.311 . S
C211 N212 1.347 . S
C211 H222 0.929 . S
N212 C210 1.375 . S
N212 C211 1.347 . S
C213 C216 1.365 . S
C213 N218 1.328 . S
C213 H219 0.929 . S
C214 C215 1.362 . S
C214 C217 1.378 . S
C214 H229 0.929 . S
C215 C214 1.362 . S
C215 C216 1.366 . S
C216 C213 1.365 . S
C216 C215 1.366 . S
C216 H230 0.930 . S
C217 C214 1.378 . S
C217 N218 1.315 . S
C217 H220 0.930 . S
N218 Co198 2.194 . S
N218 C213 1.328 . S
N218 C217 1.315 . S
H219 C213 0.929 . S
H220 C217 0.930 . S
H221 C209 0.929 . S
H222 C211 0.929 . S
O223 Co198 2.351 . S
O223 C226 1.244 . S
O224 Co198 2.155 . S
O224 C226 1.240 . S
O225 Co198 2.096 . S
O225 C206 1.247 . S
C226 O223 1.244 . S
C226 O224 1.240 . S
H227 C201 0.931 . S
H228 C210 0.931 . S
H229 C214 0.929 . S
H230 C216 0.930 . S
Co231 N235 2.148 . S
Co231 N241 2.128 . S
Co231 N251 2.194 . S
Co231 O256 2.351 . S
Co231 O257 2.155 . S
Co231 O258 2.096 . S
C232 N235 1.301 . S
C232 N236 1.328 . S
C232 H237 0.930 . S
C233 C234 1.333 . S
C233 N235 1.317 . S
C233 H238 0.930 . S
C234 C233 1.333 . S
C234 N236 1.350 . S
C234 H260 0.931 . S
N235 Co231 2.148 . S
N235 C232 1.301 . S
N235 C233 1.317 . S
N236 C232 1.328 . S
N236 C234 1.350 . S
H237 C232 0.930 . S
H238 C233 0.930 . S
C239 O240 1.224 . S
C239 O258 1.247 . S
O240 C239 1.224 . S
N241 Co231 2.128 . S
N241 C242 1.355 . S
N241 C244 1.311 . S
C242 N241 1.355 . S
C242 C243 1.363 . S
C242 H254 0.929 . S
C243 C242 1.363 . S
C243 N245 1.375 . S
C243 H261 0.931 . S
C244 N241 1.311 . S
C244 N245 1.347 . S
C244 H255 0.929 . S
N245 C243 1.375 . S
N245 C244 1.347 . S
C246 C249 1.365 . S
C246 N251 1.328 . S
C246 H252 0.929 . S
C247 C248 1.362 . S
C247 C250 1.378 . S
C247 H262 0.929 . S
C248 C247 1.362 . S
C248 C249 1.366 . S
C249 C246 1.365 . S
C249 C248 1.366 . S
C249 H263 0.930 . S
C250 C247 1.378 . S
C250 N251 1.315 . S
C250 H253 0.930 . S
N251 Co231 2.194 . S
N251 C246 1.328 . S
N251 C250 1.315 . S
H252 C246 0.929 . S
H253 C250 0.930 . S
H254 C242 0.929 . S
H255 C244 0.929 . S
O256 Co231 2.351 . S
O256 C259 1.244 . S
O257 Co231 2.155 . S
O257 C259 1.240 . S
O258 Co231 2.096 . S
O258 C239 1.247 . S
C259 O256 1.244 . S
C259 O257 1.240 . S
H260 C234 0.931 . S
H261 C243 0.931 . S
H262 C247 0.929 . S
H263 C249 0.930 . S
Co264 N268 2.148 . S
Co264 N274 2.128 . S
Co264 N284 2.194 . S
Co264 O289 2.351 . S
Co264 O290 2.155 . S
Co264 O291 2.096 . S
C265 N268 1.301 . S
C265 N269 1.328 . S
C265 H270 0.930 . S
C266 C267 1.333 . S
C266 N268 1.317 . S
C266 H271 0.930 . S
C267 C266 1.333 . S
C267 N269 1.350 . S
C267 H293 0.931 . S
N268 Co264 2.148 . S
N268 C265 1.301 . S
N268 C266 1.317 . S
N269 C265 1.328 . S
N269 C267 1.350 . S
H270 C265 0.930 . S
H271 C266 0.930 . S
C272 O273 1.224 . S
C272 O291 1.247 . S
O273 C272 1.224 . S
N274 Co264 2.128 . S
N274 C275 1.355 . S
N274 C277 1.311 . S
C275 N274 1.355 . S
C275 C276 1.363 . S
C275 H287 0.929 . S
C276 C275 1.363 . S
C276 N278 1.375 . S
C276 H294 0.931 . S
C277 N274 1.311 . S
C277 N278 1.347 . S
C277 H288 0.929 . S
N278 C276 1.375 . S
N278 C277 1.347 . S
C279 C282 1.365 . S
C279 N284 1.328 . S
C279 H285 0.929 . S
C280 C281 1.362 . S
C280 C283 1.378 . S
C280 H295 0.929 . S
C281 C280 1.362 . S
C281 C282 1.366 . S
C282 C279 1.365 . S
C282 C281 1.366 . S
C282 H296 0.930 . S
C283 C280 1.378 . S
C283 N284 1.315 . S
C283 H286 0.930 . S
N284 Co264 2.194 . S
N284 C279 1.328 . S
N284 C283 1.315 . S
H285 C279 0.929 . S
H286 C283 0.930 . S
H287 C275 0.929 . S
H288 C277 0.929 . S
O289 Co264 2.351 . S
O289 C292 1.244 . S
O290 Co264 2.155 . S
O290 C292 1.240 . S
O291 Co264 2.096 . S
O291 C272 1.247 . S
C292 O289 1.244 . S
C292 O290 1.240 . S
H293 C267 0.931 . S
H294 C276 0.931 . S
H295 C280 0.929 . S
H296 C282 0.930 . S
Co297 N301 2.148 . S
Co297 N307 2.128 . S
Co297 N317 2.194 . S
Co297 O322 2.351 . S
Co297 O323 2.155 . S
Co297 O324 2.096 . S
C298 N301 1.301 . S
C298 N302 1.328 1_655 S
C298 H303 0.930 1_655 S
C299 C300 1.333 . S
C299 N301 1.317 . S
C299 H304 0.930 . S
C300 C299 1.333 . S
C300 N302 1.350 1_655 S
C300 H326 0.931 . S
N301 Co297 2.148 . S
N301 C298 1.301 . S
N301 C299 1.317 . S
N302 C298 1.328 1_455 S
N302 C300 1.350 1_455 S
H303 C298 0.930 1_455 S
H304 C299 0.930 . S
C305 O306 1.224 . S
C305 O324 1.247 . S
O306 C305 1.224 . S
N307 Co297 2.128 . S
N307 C308 1.355 . S
N307 C310 1.311 . S
C308 N307 1.355 . S
C308 C309 1.363 . S
C308 H320 0.929 . S
C309 C308 1.363 . S
C309 N311 1.375 . S
C309 H327 0.931 . S
C310 N307 1.311 . S
C310 N311 1.347 . S
C310 H321 0.929 . S
N311 C309 1.375 . S
N311 C310 1.347 . S
C312 C315 1.365 . S
C312 N317 1.328 . S
C312 H318 0.929 . S
C313 C314 1.362 . S
C313 C316 1.378 . S
C313 H328 0.929 . S
C314 C313 1.362 . S
C314 C315 1.366 . S
C315 C312 1.365 . S
C315 C314 1.366 . S
C315 H329 0.930 1_655 S
C316 C313 1.378 . S
C316 N317 1.315 . S
C316 H319 0.930 . S
N317 Co297 2.194 . S
N317 C312 1.328 . S
N317 C316 1.315 . S
H318 C312 0.929 . S
H319 C316 0.930 . S
H320 C308 0.929 . S
H321 C310 0.929 . S
O322 Co297 2.351 . S
O322 C325 1.244 . S
O323 Co297 2.155 . S
O323 C325 1.240 . S
O324 Co297 2.096 . S
O324 C305 1.247 . S
C325 O322 1.244 . S
C325 O323 1.240 . S
H326 C300 0.931 . S
H327 C309 0.931 . S
H328 C313 0.929 . S
H329 C315 0.930 1_455 S
Co330 N334 2.148 . S
Co330 N340 2.128 . S
Co330 N350 2.194 . S
Co330 O355 2.351 . S
Co330 O356 2.155 . S
Co330 O357 2.096 . S
C331 N334 1.301 . S
C331 N335 1.328 . S
C331 H336 0.930 . S
C332 C333 1.333 . S
C332 N334 1.317 . S
C332 H337 0.930 . S
C333 C332 1.333 . S
C333 N335 1.350 . S
C333 H359 0.931 . S
N334 Co330 2.148 . S
N334 C331 1.301 . S
N334 C332 1.317 . S
N335 C331 1.328 . S
N335 C333 1.350 . S
H336 C331 0.930 . S
H337 C332 0.930 . S
C338 O339 1.224 . S
C338 O357 1.247 . S
O339 C338 1.224 . S
N340 Co330 2.128 . S
N340 C341 1.355 . S
N340 C343 1.311 . S
C341 N340 1.355 . S
C341 C342 1.363 . S
C341 H353 0.929 . S
C342 C341 1.363 . S
C342 N344 1.375 . S
C342 H360 0.931 . S
C343 N340 1.311 . S
C343 N344 1.347 . S
C343 H354 0.929 . S
N344 C342 1.375 . S
N344 C343 1.347 . S
C345 C348 1.365 . S
C345 N350 1.328 . S
C345 H351 0.929 . S
C346 C347 1.362 . S
C346 C349 1.378 . S
C346 H361 0.929 . S
C347 C346 1.362 . S
C347 C348 1.366 . S
C348 C345 1.365 . S
C348 C347 1.366 . S
C348 H362 0.930 . S
C349 C346 1.378 . S
C349 N350 1.315 . S
C349 H352 0.930 . S
N350 Co330 2.194 . S
N350 C345 1.328 . S
N350 C349 1.315 . S
H351 C345 0.929 . S
H352 C349 0.930 . S
H353 C341 0.929 . S
H354 C343 0.929 . S
O355 Co330 2.351 . S
O355 C358 1.244 . S
O356 Co330 2.155 . S
O356 C358 1.240 . S
O357 Co330 2.096 . S
O357 C338 1.247 . S
C358 O355 1.244 . S
C358 O356 1.240 . S
H359 C333 0.931 . S
H360 C342 0.931 . S
H361 C346 0.929 . S
H362 C348 0.930 . S
Co363 N367 2.148 . S
Co363 N373 2.128 . S
Co363 N383 2.194 . S
Co363 O388 2.351 . S
Co363 O389 2.155 . S
Co363 O390 2.096 . S
C364 N367 1.301 . S
C364 N368 1.328 1_545 S
C364 H369 0.930 1_545 S
C365 C366 1.333 . S
C365 N367 1.317 . S
C365 H370 0.930 . S
C366 C365 1.333 . S
C366 N368 1.350 1_545 S
C366 H392 0.931 . S
N367 Co363 2.148 . S
N367 C364 1.301 . S
N367 C365 1.317 . S
N368 C364 1.328 1_565 S
N368 C366 1.350 1_565 S
H369 C364 0.930 1_565 S
H370 C365 0.930 . S
C371 O372 1.224 . S
C371 O390 1.247 . S
O372 C371 1.224 . S
N373 Co363 2.128 . S
N373 C374 1.355 . S
N373 C376 1.311 . S
C374 N373 1.355 . S
C374 C375 1.363 . S
C374 H386 0.929 . S
C375 C374 1.363 . S
C375 N377 1.375 . S
C375 H393 0.931 . S
C376 N373 1.311 . S
C376 N377 1.347 . S
C376 H387 0.929 . S
N377 C375 1.375 . S
N377 C376 1.347 . S
C378 C381 1.365 . S
C378 N383 1.328 . S
C378 H384 0.929 . S
C379 C380 1.362 . S
C379 C382 1.378 . S
C379 H394 0.929 . S
C380 C379 1.362 . S
C380 C381 1.366 . S
C381 C378 1.365 . S
C381 C380 1.366 . S
C381 H395 0.930 1_545 S
C382 C379 1.378 . S
C382 N383 1.315 . S
C382 H385 0.930 . S
N383 Co363 2.194 . S
N383 C378 1.328 . S
N383 C382 1.315 . S
H384 C378 0.929 . S
H385 C382 0.930 . S
H386 C374 0.929 . S
H387 C376 0.929 . S
O388 Co363 2.351 . S
O388 C391 1.244 . S
O389 Co363 2.155 . S
O389 C391 1.240 . S
O390 Co363 2.096 . S
O390 C371 1.247 . S
C391 O388 1.244 . S
C391 O389 1.240 . S
H392 C366 0.931 . S
H393 C375 0.931 . S
H394 C379 0.929 . S
H395 C381 0.930 1_565 S
Co396 N400 2.148 . S
Co396 N406 2.128 . S
Co396 N416 2.194 . S
Co396 O421 2.351 . S
Co396 O422 2.155 . S
Co396 O423 2.096 . S
C397 N400 1.301 . S
C397 N401 1.328 1_565 S
C397 H402 0.930 1_565 S
C398 C399 1.333 . S
C398 N400 1.317 . S
C398 H403 0.930 . S
C399 C398 1.333 . S
C399 N401 1.350 1_565 S
C399 H425 0.931 . S
N400 Co396 2.148 . S
N400 C397 1.301 . S
N400 C398 1.317 . S
N401 C397 1.328 1_545 S
N401 C399 1.350 1_545 S
H402 C397 0.930 1_545 S
H403 C398 0.930 . S
C404 O405 1.224 . S
C404 O423 1.247 . S
O405 C404 1.224 . S
N406 Co396 2.128 . S
N406 C407 1.355 . S
N406 C409 1.311 . S
C407 N406 1.355 . S
C407 C408 1.363 . S
C407 H419 0.929 . S
C408 C407 1.363 . S
C408 N410 1.375 . S
C408 H426 0.931 . S
C409 N406 1.311 . S
C409 N410 1.347 . S
C409 H420 0.929 . S
N410 C408 1.375 . S
N410 C409 1.347 . S
C411 C414 1.365 . S
C411 N416 1.328 . S
C411 H417 0.929 . S
C412 C413 1.362 . S
C412 C415 1.378 . S
C412 H427 0.929 . S
C413 C412 1.362 . S
C413 C414 1.366 . S
C414 C411 1.365 . S
C414 C413 1.366 . S
C414 H428 0.930 1_565 S
C415 C412 1.378 . S
C415 N416 1.315 . S
C415 H418 0.930 . S
N416 Co396 2.194 . S
N416 C411 1.328 . S
N416 C415 1.315 . S
H417 C411 0.929 . S
H418 C415 0.930 . S
H419 C407 0.929 . S
H420 C409 0.929 . S
O421 Co396 2.351 . S
O421 C424 1.244 . S
O422 Co396 2.155 . S
O422 C424 1.240 . S
O423 Co396 2.096 . S
O423 C404 1.247 . S
C424 O421 1.244 . S
C424 O422 1.240 . S
H425 C399 0.931 . S
H426 C408 0.931 . S
H427 C412 0.929 . S
H428 C414 0.930 1_545 S
Co429 N433 2.148 . S
Co429 N439 2.128 . S
Co429 N449 2.194 . S
Co429 O454 2.351 . S
Co429 O455 2.155 . S
Co429 O456 2.096 . S
C430 N433 1.301 . S
C430 N434 1.328 1_455 S
C430 H435 0.930 1_455 S
C431 C432 1.333 . S
C431 N433 1.317 . S
C431 H436 0.930 . S
C432 C431 1.333 . S
C432 N434 1.350 1_455 S
C432 H458 0.931 . S
N433 Co429 2.148 . S
N433 C430 1.301 . S
N433 C431 1.317 . S
N434 C430 1.328 1_655 S
N434 C432 1.350 1_655 S
H435 C430 0.930 1_655 S
H436 C431 0.930 . S
C437 O438 1.224 . S
C437 O456 1.247 . S
O438 C437 1.224 . S
N439 Co429 2.128 . S
N439 C440 1.355 . S
N439 C442 1.311 . S
C440 N439 1.355 . S
C440 C441 1.363 . S
C440 H452 0.929 . S
C441 C440 1.363 . S
C441 N443 1.375 . S
C441 H459 0.931 . S
C442 N439 1.311 . S
C442 N443 1.347 . S
C442 H453 0.929 . S
N443 C441 1.375 . S
N443 C442 1.347 . S
C444 C447 1.365 . S
C444 N449 1.328 . S
C444 H450 0.929 . S
C445 C446 1.362 . S
C445 C448 1.378 . S
C445 H460 0.929 . S
C446 C445 1.362 . S
C446 C447 1.366 . S
C447 C444 1.365 . S
C447 C446 1.366 . S
C447 H461 0.930 1_455 S
C448 C445 1.378 . S
C448 N449 1.315 . S
C448 H451 0.930 . S
N449 Co429 2.194 . S
N449 C444 1.328 . S
N449 C448 1.315 . S
H450 C444 0.929 . S
H451 C448 0.930 . S
H452 C440 0.929 . S
H453 C442 0.929 . S
O454 Co429 2.351 . S
O454 C457 1.244 . S
O455 Co429 2.155 . S
O455 C457 1.240 . S
O456 Co429 2.096 . S
O456 C437 1.247 . S
C457 O454 1.244 . S
C457 O455 1.240 . S
H458 C432 0.931 . S
H459 C441 0.931 . S
H460 C445 0.929 . S
H461 C447 0.930 1_655 S
Co462 N466 2.148 . S
Co462 N472 2.128 . S
Co462 N482 2.194 . S
Co462 O487 2.351 . S
Co462 O488 2.155 . S
Co462 O489 2.096 . S
C463 N466 1.301 . S
C463 N467 1.328 . S
C463 H468 0.930 . S
C464 C465 1.333 . S
C464 N466 1.317 . S
C464 H469 0.930 . S
C465 C464 1.333 . S
C465 N467 1.350 . S
C465 H491 0.931 . S
N466 Co462 2.148 . S
N466 C463 1.301 . S
N466 C464 1.317 . S
N467 C463 1.328 . S
N467 C465 1.350 . S
H468 C463 0.930 . S
H469 C464 0.930 . S
C470 O471 1.224 . S
C470 O489 1.247 . S
O471 C470 1.224 . S
N472 Co462 2.128 . S
N472 C473 1.355 . S
N472 C475 1.311 . S
C473 N472 1.355 . S
C473 C474 1.363 . S
C473 H485 0.929 . S
C474 C473 1.363 . S
C474 N476 1.375 . S
C474 H492 0.931 . S
C475 N472 1.311 . S
C475 N476 1.347 . S
C475 H486 0.929 . S
N476 C474 1.375 . S
N476 C475 1.347 . S
C477 C480 1.365 . S
C477 N482 1.328 . S
C477 H483 0.929 . S
C478 C479 1.362 . S
C478 C481 1.378 . S
C478 H493 0.929 . S
C479 C478 1.362 . S
C479 C480 1.366 . S
C480 C477 1.365 . S
C480 C479 1.366 . S
C480 H494 0.930 . S
C481 C478 1.378 . S
C481 N482 1.315 . S
C481 H484 0.930 . S
N482 Co462 2.194 . S
N482 C477 1.328 . S
N482 C481 1.315 . S
H483 C477 0.929 . S
H484 C481 0.930 . S
H485 C473 0.929 . S
H486 C475 0.929 . S
O487 Co462 2.351 . S
O487 C490 1.244 . S
O488 Co462 2.155 . S
O488 C490 1.240 . S
O489 Co462 2.096 . S
O489 C470 1.247 . S
C490 O487 1.244 . S
C490 O488 1.240 . S
H491 C465 0.931 . S
H492 C474 0.931 . S
H493 C478 0.929 . S
H494 C480 0.930 . S
Co495 N499 2.148 . S
Co495 N505 2.128 . S
Co495 N515 2.194 . S
Co495 O520 2.351 . S
Co495 O521 2.155 . S
Co495 O522 2.096 . S
C496 N499 1.301 . S
C496 N500 1.328 . S
C496 H501 0.930 . S
C497 C498 1.333 . S
C497 N499 1.317 . S
C497 H502 0.930 . S
C498 C497 1.333 . S
C498 N500 1.350 . S
C498 H524 0.931 . S
N499 Co495 2.148 . S
N499 C496 1.301 . S
N499 C497 1.317 . S
N500 C496 1.328 . S
N500 C498 1.350 . S
H501 C496 0.930 . S
H502 C497 0.930 . S
C503 O504 1.224 . S
C503 O522 1.247 . S
O504 C503 1.224 . S
N505 Co495 2.128 . S
N505 C506 1.355 . S
N505 C508 1.311 . S
C506 N505 1.355 . S
C506 C507 1.363 . S
C506 H518 0.929 . S
C507 C506 1.363 . S
C507 N509 1.375 . S
C507 H525 0.931 . S
C508 N505 1.311 . S
C508 N509 1.347 . S
C508 H519 0.929 . S
N509 C507 1.375 . S
N509 C508 1.347 . S
C510 C513 1.365 . S
C510 N515 1.328 . S
C510 H516 0.929 . S
C511 C512 1.362 . S
C511 C514 1.378 . S
C511 H526 0.929 . S
C512 C511 1.362 . S
C512 C513 1.366 . S
C513 C510 1.365 . S
C513 C512 1.366 . S
C513 H527 0.930 . S
C514 C511 1.378 . S
C514 N515 1.315 . S
C514 H517 0.930 . S
N515 Co495 2.194 . S
N515 C510 1.328 . S
N515 C514 1.315 . S
H516 C510 0.929 . S
H517 C514 0.930 . S
H518 C506 0.929 . S
H519 C508 0.929 . S
O520 Co495 2.351 . S
O520 C523 1.244 . S
O521 Co495 2.155 . S
O521 C523 1.240 . S
O522 Co495 2.096 . S
O522 C503 1.247 . S
C523 O520 1.244 . S
C523 O521 1.240 . S
H524 C498 0.931 . S
H525 C507 0.931 . S
H526 C511 0.929 . S
H527 C513 0.930 . S
Co528 N532 2.148 . S
Co528 N538 2.128 . S
Co528 N548 2.194 . S
Co528 O553 2.351 . S
Co528 O554 2.155 . S
Co528 O555 2.096 . S
C529 N532 1.301 . S
C529 N533 1.328 . S
C529 H534 0.930 . S
C530 C531 1.333 . S
C530 N532 1.317 . S
C530 H535 0.930 . S
C531 C530 1.333 . S
C531 N533 1.350 . S
C531 H557 0.931 . S
N532 Co528 2.148 . S
N532 C529 1.301 . S
N532 C530 1.317 . S
N533 C529 1.328 . S
N533 C531 1.350 . S
H534 C529 0.930 . S
H535 C530 0.930 . S
C536 O537 1.224 . S
C536 O555 1.247 . S
O537 C536 1.224 . S
N538 Co528 2.128 . S
N538 C539 1.355 . S
N538 C541 1.311 . S
C539 N538 1.355 . S
C539 C540 1.363 . S
C539 H551 0.929 . S
C540 C539 1.363 . S
C540 N542 1.375 . S
C540 H558 0.931 . S
C541 N538 1.311 . S
C541 N542 1.347 . S
C541 H552 0.929 . S
N542 C540 1.375 . S
N542 C541 1.347 . S
C543 C546 1.365 . S
C543 N548 1.328 . S
C543 H549 0.929 . S
C544 C545 1.362 . S
C544 C547 1.378 . S
C544 H559 0.929 . S
C545 C544 1.362 . S
C545 C546 1.366 . S
C546 C543 1.365 . S
C546 C545 1.366 . S
C546 H560 0.930 . S
C547 C544 1.378 . S
C547 N548 1.315 . S
C547 H550 0.930 . S
N548 Co528 2.194 . S
N548 C543 1.328 . S
N548 C547 1.315 . S
H549 C543 0.929 . S
H550 C547 0.930 . S
H551 C539 0.929 . S
H552 C541 0.929 . S
O553 Co528 2.351 . S
O553 C556 1.244 . S
O554 Co528 2.155 . S
O554 C556 1.240 . S
O555 Co528 2.096 . S
O555 C536 1.247 . S
C556 O553 1.244 . S
C556 O554 1.240 . S
H557 C531 0.931 . S
H558 C540 0.931 . S
H559 C544 0.929 . S
H560 C546 0.930 . S
Co561 N565 2.148 . S
Co561 N571 2.128 . S
Co561 N581 2.194 . S
Co561 O586 2.351 . S
Co561 O587 2.155 . S
Co561 O588 2.096 . S
C562 N565 1.301 . S
C562 N566 1.328 . S
C562 H567 0.930 . S
C563 C564 1.333 . S
C563 N565 1.317 . S
C563 H568 0.930 . S
C564 C563 1.333 . S
C564 N566 1.350 . S
C564 H590 0.931 . S
N565 Co561 2.148 . S
N565 C562 1.301 . S
N565 C563 1.317 . S
N566 C562 1.328 . S
N566 C564 1.350 . S
H567 C562 0.930 . S
H568 C563 0.930 . S
C569 O570 1.224 . S
C569 O588 1.247 . S
O570 C569 1.224 . S
N571 Co561 2.128 . S
N571 C572 1.355 . S
N571 C574 1.311 . S
C572 N571 1.355 . S
C572 C573 1.363 . S
C572 H584 0.929 . S
C573 C572 1.363 . S
C573 N575 1.375 . S
C573 H591 0.931 . S
C574 N571 1.311 . S
C574 N575 1.347 . S
C574 H585 0.929 . S
N575 C573 1.375 . S
N575 C574 1.347 . S
C576 C579 1.365 . S
C576 N581 1.328 . S
C576 H582 0.929 . S
C577 C578 1.362 . S
C577 C580 1.378 . S
C577 H592 0.929 . S
C578 C577 1.362 . S
C578 C579 1.366 . S
C579 C576 1.365 . S
C579 C578 1.366 . S
C579 H593 0.930 . S
C580 C577 1.378 . S
C580 N581 1.315 . S
C580 H583 0.930 . S
N581 Co561 2.194 . S
N581 C576 1.328 . S
N581 C580 1.315 . S
H582 C576 0.929 . S
H583 C580 0.930 . S
H584 C572 0.929 . S
H585 C574 0.929 . S
O586 Co561 2.351 . S
O586 C589 1.244 . S
O587 Co561 2.155 . S
O587 C589 1.240 . S
O588 Co561 2.096 . S
O588 C569 1.247 . S
C589 O586 1.244 . S
C589 O587 1.240 . S
H590 C564 0.931 . S
H591 C573 0.931 . S
H592 C577 0.929 . S
H593 C579 0.930 . S
H594 C606 0.930 . S
H595 C608 0.930 . S
H596 C609 0.930 . S
H597 C613 0.959 . S
H598 C613 0.959 . S
H599 C613 0.961 . S
H600 C614 0.960 . S
H601 C614 0.961 . S
H602 C614 0.959 . S
H603 C617 0.929 . S
H604 C618 0.931 . S
H605 C620 0.930 . S
C606 H594 0.930 . S
C606 C607 1.399 . S
C606 C611 1.399 . S
C607 C606 1.399 . S
C607 C608 1.376 . S
C608 H595 0.930 . S
C608 C607 1.376 . S
C608 C609 1.388 . S
C609 H596 0.930 . S
C609 C608 1.388 . S
C609 C610 1.390 . S
C610 C609 1.390 . S
C610 C611 1.394 . S
C610 C616 1.465 . S
C611 C606 1.399 . S
C611 C610 1.394 . S
C611 C612 1.516 . S
C612 C611 1.516 . S
C612 C613 1.502 . S
C612 C614 1.561 . S
C612 C615 1.526 . S
C613 H597 0.959 . S
C613 H598 0.959 . S
C613 H599 0.961 . S
C613 C612 1.502 . S
C614 H600 0.960 . S
C614 H601 0.961 . S
C614 H602 0.959 . S
C614 C612 1.561 . S
C615 C612 1.526 . S
C615 C616 1.396 . S
C615 C620 1.390 . S
C616 C610 1.465 . S
C616 C615 1.396 . S
C616 C617 1.399 . S
C617 H603 0.929 . S
C617 C616 1.399 . S
C617 C618 1.385 . S
C618 H604 0.931 . S
C618 C617 1.385 . S
C618 C619 1.389 . S
C619 C618 1.389 . S
C619 C620 1.387 . S
C620 H605 0.930 . S
C620 C615 1.390 . S
C620 C619 1.387 . S
H621 C633 0.930 . S
H622 C635 0.930 . S
H623 C636 0.930 . S
H624 C640 0.959 . S
H625 C640 0.959 . S
H626 C640 0.961 . S
H627 C641 0.960 . S
H628 C641 0.961 . S
H629 C641 0.959 . S
H630 C644 0.929 . S
H631 C645 0.931 . S
H632 C647 0.930 . S
C633 H621 0.930 . S
C633 C634 1.399 . S
C633 C638 1.399 . S
C634 C633 1.399 . S
C634 C635 1.376 . S
C635 H622 0.930 . S
C635 C634 1.376 . S
C635 C636 1.388 . S
C636 H623 0.930 . S
C636 C635 1.388 . S
C636 C637 1.390 . S
C637 C636 1.390 . S
C637 C638 1.394 . S
C637 C643 1.465 . S
C638 C633 1.399 . S
C638 C637 1.394 . S
C638 C639 1.516 . S
C639 C638 1.516 . S
C639 C640 1.502 . S
C639 C641 1.561 . S
C639 C642 1.526 . S
C640 H624 0.959 . S
C640 H625 0.959 . S
C640 H626 0.961 . S
C640 C639 1.502 . S
C641 H627 0.960 . S
C641 H628 0.961 . S
C641 H629 0.959 . S
C641 C639 1.561 . S
C642 C639 1.526 . S
C642 C643 1.396 . S
C642 C647 1.390 . S
C643 C637 1.465 . S
C643 C642 1.396 . S
C643 C644 1.399 . S
C644 H630 0.929 . S
C644 C643 1.399 . S
C644 C645 1.385 . S
C645 H631 0.931 . S
C645 C644 1.385 . S
C645 C646 1.389 . S
C646 C645 1.389 . S
C646 C647 1.387 . S
C647 H632 0.930 . S
C647 C642 1.390 . S
C647 C646 1.387 . S
H648 C660 0.930 . S
H649 C662 0.930 1_655 S
H650 C663 0.930 1_655 S
H651 C667 0.959 . S
H652 C667 0.959 . S
H653 C667 0.961 . S
H654 C668 0.960 . S
H655 C668 0.961 . S
H656 C668 0.959 . S
H657 C671 0.929 . S
H658 C672 0.931 . S
H659 C674 0.930 . S
C660 H648 0.930 . S
C660 C661 1.399 . S
C660 C665 1.399 . S
C661 C660 1.399 . S
C661 C662 1.376 . S
C662 H649 0.930 1_455 S
C662 C661 1.376 . S
C662 C663 1.388 . S
C663 H650 0.930 1_455 S
C663 C662 1.388 . S
C663 C664 1.390 . S
C664 C663 1.390 . S
C664 C665 1.394 . S
C664 C670 1.465 . S
C665 C660 1.399 . S
C665 C664 1.394 . S
C665 C666 1.516 . S
C666 C665 1.516 . S
C666 C667 1.502 . S
C666 C668 1.561 . S
C666 C669 1.526 . S
C667 H651 0.959 . S
C667 H652 0.959 . S
C667 H653 0.961 . S
C667 C666 1.502 . S
C668 H654 0.960 . S
C668 H655 0.961 . S
C668 H656 0.959 . S
C668 C666 1.561 . S
C669 C666 1.526 . S
C669 C670 1.396 . S
C669 C674 1.390 . S
C670 C664 1.465 . S
C670 C669 1.396 . S
C670 C671 1.399 . S
C671 H657 0.929 . S
C671 C670 1.399 . S
C671 C672 1.385 . S
C672 H658 0.931 . S
C672 C671 1.385 . S
C672 C673 1.389 . S
C673 C672 1.389 . S
C673 C674 1.387 . S
C674 H659 0.930 . S
C674 C669 1.390 . S
C674 C673 1.387 . S
H675 C687 0.930 . S
H676 C689 0.930 . S
H677 C690 0.930 . S
H678 C694 0.959 . S
H679 C694 0.959 . S
H680 C694 0.961 . S
H681 C695 0.960 . S
H682 C695 0.961 . S
H683 C695 0.959 . S
H684 C698 0.929 . S
H685 C699 0.931 . S
H686 C701 0.930 . S
C687 H675 0.930 . S
C687 C688 1.399 . S
C687 C692 1.399 . S
C688 C687 1.399 . S
C688 C689 1.376 . S
C689 H676 0.930 . S
C689 C688 1.376 . S
C689 C690 1.388 . S
C690 H677 0.930 . S
C690 C689 1.388 . S
C690 C691 1.390 . S
C691 C690 1.390 . S
C691 C692 1.394 . S
C691 C697 1.465 . S
C692 C687 1.399 . S
C692 C691 1.394 . S
C692 C693 1.516 . S
C693 C692 1.516 . S
C693 C694 1.502 . S
C693 C695 1.561 . S
C693 C696 1.526 . S
C694 H678 0.959 . S
C694 H679 0.959 . S
C694 H680 0.961 . S
C694 C693 1.502 . S
C695 H681 0.960 . S
C695 H682 0.961 . S
C695 H683 0.959 . S
C695 C693 1.561 . S
C696 C693 1.526 . S
C696 C697 1.396 . S
C696 C701 1.390 . S
C697 C691 1.465 . S
C697 C696 1.396 . S
C697 C698 1.399 . S
C698 H684 0.929 . S
C698 C697 1.399 . S
C698 C699 1.385 . S
C699 H685 0.931 . S
C699 C698 1.385 . S
C699 C700 1.389 . S
C700 C699 1.389 . S
C700 C701 1.387 . S
C701 H686 0.930 . S
C701 C696 1.390 . S
C701 C700 1.387 . S
H702 C714 0.930 . S
H703 C716 0.930 . S
H704 C717 0.930 . S
H705 C721 0.959 . S
H706 C721 0.959 . S
H707 C721 0.961 . S
H708 C722 0.960 . S
H709 C722 0.961 1_565 S
H710 C722 0.959 . S
H711 C725 0.929 . S
H712 C726 0.931 . S
H713 C728 0.930 . S
C714 H702 0.930 . S
C714 C715 1.399 . S
C714 C719 1.399 . S
C715 C714 1.399 . S
C715 C716 1.376 . S
C716 H703 0.930 . S
C716 C715 1.376 . S
C716 C717 1.388 . S
C717 H704 0.930 . S
C717 C716 1.388 . S
C717 C718 1.390 . S
C718 C717 1.390 . S
C718 C719 1.394 . S
C718 C724 1.465 . S
C719 C714 1.399 . S
C719 C718 1.394 . S
C719 C720 1.516 . S
C720 C719 1.516 . S
C720 C721 1.502 . S
C720 C722 1.561 . S
C720 C723 1.526 . S
C721 H705 0.959 . S
C721 H706 0.959 . S
C721 H707 0.961 . S
C721 C720 1.502 . S
C722 H708 0.960 . S
C722 H709 0.961 1_545 S
C722 H710 0.959 . S
C722 C720 1.561 . S
C723 C720 1.526 . S
C723 C724 1.396 . S
C723 C728 1.390 . S
C724 C718 1.465 . S
C724 C723 1.396 . S
C724 C725 1.399 . S
C725 H711 0.929 . S
C725 C724 1.399 . S
C725 C726 1.385 . S
C726 H712 0.931 . S
C726 C725 1.385 . S
C726 C727 1.389 . S
C727 C726 1.389 . S
C727 C728 1.387 . S
C728 H713 0.930 . S
C728 C723 1.390 . S
C728 C727 1.387 . S
H729 C741 0.930 . S
H730 C743 0.930 1_455 S
H731 C744 0.930 . S
H732 C748 0.959 . S
H733 C748 0.959 . S
H734 C748 0.961 . S
H735 C749 0.960 . S
H736 C749 0.961 . S
H737 C749 0.959 . S
H738 C752 0.929 . S
H739 C753 0.931 . S
H740 C755 0.930 . S
C741 H729 0.930 . S
C741 C742 1.399 . S
C741 C746 1.399 . S
C742 C741 1.399 . S
C742 C743 1.376 . S
C743 H730 0.930 1_655 S
C743 C742 1.376 . S
C743 C744 1.388 . S
C744 H731 0.930 . S
C744 C743 1.388 . S
C744 C745 1.390 . S
C745 C744 1.390 . S
C745 C746 1.394 . S
C745 C751 1.465 . S
C746 C741 1.399 . S
C746 C745 1.394 . S
C746 C747 1.516 . S
C747 C746 1.516 . S
C747 C748 1.502 . S
C747 C749 1.561 . S
C747 C750 1.526 . S
C748 H732 0.959 . S
C748 H733 0.959 . S
C748 H734 0.961 . S
C748 C747 1.502 . S
C749 H735 0.960 . S
C749 H736 0.961 . S
C749 H737 0.959 . S
C749 C747 1.561 . S
C750 C747 1.526 . S
C750 C751 1.396 . S
C750 C755 1.390 . S
C751 C745 1.465 . S
C751 C750 1.396 . S
C751 C752 1.399 . S
C752 H738 0.929 . S
C752 C751 1.399 . S
C752 C753 1.385 . S
C753 H739 0.931 . S
C753 C752 1.385 . S
C753 C754 1.389 . S
C754 C753 1.389 . S
C754 C755 1.387 . S
C755 H740 0.930 . S
C755 C750 1.390 . S
C755 C754 1.387 . S
H756 C768 0.930 . S
H757 C770 0.930 . S
H758 C771 0.930 . S
H759 C775 0.959 . S
H760 C775 0.959 . S
H761 C775 0.961 . S
H762 C776 0.960 . S
H763 C776 0.961 . S
H764 C776 0.959 . S
H765 C779 0.929 . S
H766 C780 0.931 . S
H767 C782 0.930 . S
C768 H756 0.930 . S
C768 C769 1.399 . S
C768 C773 1.399 . S
C769 C768 1.399 . S
C769 C770 1.376 . S
C770 H757 0.930 . S
C770 C769 1.376 . S
C770 C771 1.388 . S
C771 H758 0.930 . S
C771 C770 1.388 . S
C771 C772 1.390 . S
C772 C771 1.390 . S
C772 C773 1.394 . S
C772 C778 1.465 . S
C773 C768 1.399 . S
C773 C772 1.394 . S
C773 C774 1.516 . S
C774 C773 1.516 . S
C774 C775 1.502 . S
C774 C776 1.561 . S
C774 C777 1.526 . S
C775 H759 0.959 . S
C775 H760 0.959 . S
C775 H761 0.961 . S
C775 C774 1.502 . S
C776 H762 0.960 . S
C776 H763 0.961 . S
C776 H764 0.959 . S
C776 C774 1.561 . S
C777 C774 1.526 . S
C777 C778 1.396 . S
C777 C782 1.390 . S
C778 C772 1.465 . S
C778 C777 1.396 . S
C778 C779 1.399 . S
C779 H765 0.929 . S
C779 C778 1.399 . S
C779 C780 1.385 . S
C780 H766 0.931 . S
C780 C779 1.385 . S
C780 C781 1.389 . S
C781 C780 1.389 . S
C781 C782 1.387 . S
C782 H767 0.930 . S
C782 C777 1.390 . S
C782 C781 1.387 . S
H783 C795 0.930 . S
H784 C797 0.930 . S
H785 C798 0.930 . S
H786 C802 0.959 . S
H787 C802 0.959 . S
H788 C802 0.961 . S
H789 C803 0.960 . S
H790 C803 0.961 . S
H791 C803 0.959 . S
H792 C806 0.929 . S
H793 C807 0.931 . S
H794 C809 0.930 . S
C795 H783 0.930 . S
C795 C796 1.399 . S
C795 C800 1.399 . S
C796 C795 1.399 . S
C796 C797 1.376 1_565 S
C797 H784 0.930 . S
C797 C796 1.376 1_545 S
C797 C798 1.388 . S
C798 H785 0.930 . S
C798 C797 1.388 . S
C798 C799 1.390 . S
C799 C798 1.390 . S
C799 C800 1.394 1_545 S
C799 C805 1.465 . S
C800 C795 1.399 . S
C800 C799 1.394 1_565 S
C800 C801 1.516 . S
C801 C800 1.516 . S
C801 C802 1.502 . S
C801 C803 1.561 . S
C801 C804 1.526 1_565 S
C802 H786 0.959 . S
C802 H787 0.959 . S
C802 H788 0.961 . S
C802 C801 1.502 . S
C803 H789 0.960 . S
C803 H790 0.961 . S
C803 H791 0.959 . S
C803 C801 1.561 . S
C804 C801 1.526 1_545 S
C804 C805 1.396 . S
C804 C809 1.390 . S
C805 C799 1.465 . S
C805 C804 1.396 . S
C805 C806 1.399 . S
C806 H792 0.929 . S
C806 C805 1.399 . S
C806 C807 1.385 . S
C807 H793 0.931 . S
C807 C806 1.385 . S
C807 C808 1.389 . S
C808 C807 1.389 . S
C808 C809 1.387 . S
C809 H794 0.930 . S
C809 C804 1.390 . S
C809 C808 1.387 . S
H810 C822 0.930 . S
H811 C824 0.926 . S
H812 C825 0.930 . S
H813 C829 0.959 . S
H814 C829 0.958 . S
H815 C829 0.961 . S
H816 C830 0.960 . S
H817 C830 0.961 . S
H818 C830 0.959 . S
H819 C833 0.929 . S
H820 C834 0.931 . S
H821 C836 0.930 . S
C822 H810 0.930 . S
C822 C823 1.399 . S
C822 C827 1.399 1_455 S
C823 C822 1.399 . S
C823 C824 1.382 . S
C824 H811 0.926 . S
C824 C823 1.382 . S
C824 C825 1.387 1_455 S
C825 H812 0.930 . S
C825 C824 1.387 1_655 S
C825 C826 1.390 . S
C826 C825 1.390 . S
C826 C827 1.394 . S
C826 C832 1.465 . S
C827 C822 1.399 1_655 S
C827 C826 1.394 . S
C827 C828 1.516 . S
C828 C827 1.516 . S
C828 C829 1.502 1_655 S
C828 C830 1.561 . S
C828 C831 1.526 . S
C829 H813 0.959 . S
C829 H814 0.958 . S
C829 H815 0.961 . S
C829 C828 1.502 1_455 S
C830 H816 0.960 . S
C830 H817 0.961 . S
C830 H818 0.959 . S
C830 C828 1.561 . S
C831 C828 1.526 . S
C831 C832 1.396 . S
C831 C836 1.390 . S
C832 C826 1.465 . S
C832 C831 1.396 . S
C832 C833 1.399 . S
C833 H819 0.929 . S
C833 C832 1.399 . S
C833 C834 1.385 . S
C834 H820 0.931 . S
C834 C833 1.385 . S
C834 C835 1.389 . S
C835 C834 1.389 . S
C835 C836 1.387 . S
C836 H821 0.930 . S
C836 C831 1.390 . S
C836 C835 1.387 . S
H837 C849 0.930 . S
H838 C851 0.930 . S
H839 C852 0.930 . S
H840 C856 0.959 . S
H841 C856 0.959 . S
H842 C856 0.961 . S
H843 C857 0.960 . S
H844 C857 0.961 . S
H845 C857 0.959 . S
H846 C860 0.929 . S
H847 C861 0.931 . S
H848 C863 0.930 . S
C849 H837 0.930 . S
C849 C850 1.399 . S
C849 C854 1.399 . S
C850 C849 1.399 . S
C850 C851 1.376 . S
C851 H838 0.930 . S
C851 C850 1.376 . S
C851 C852 1.388 . S
C852 H839 0.930 . S
C852 C851 1.388 . S
C852 C853 1.390 . S
C853 C852 1.390 . S
C853 C854 1.394 . S
C853 C859 1.465 . S
C854 C849 1.399 . S
C854 C853 1.394 . S
C854 C855 1.516 . S
C855 C854 1.516 . S
C855 C856 1.502 . S
C855 C857 1.561 . S
C855 C858 1.526 . S
C856 H840 0.959 . S
C856 H841 0.959 . S
C856 H842 0.961 . S
C856 C855 1.502 . S
C857 H843 0.960 . S
C857 H844 0.961 . S
C857 H845 0.959 . S
C857 C855 1.561 . S
C858 C855 1.526 . S
C858 C859 1.396 . S
C858 C863 1.390 . S
C859 C853 1.465 . S
C859 C858 1.396 . S
C859 C860 1.399 . S
C860 H846 0.929 . S
C860 C859 1.399 . S
C860 C861 1.385 . S
C861 H847 0.931 . S
C861 C860 1.385 . S
C861 C862 1.389 . S
C862 C861 1.389 . S
C862 C863 1.387 . S
C863 H848 0.930 . S
C863 C858 1.390 . S
C863 C862 1.387 . S
H864 C876 0.930 . S
H865 C878 0.930 . S
H866 C879 0.930 . S
H867 C883 0.959 . S
H868 C883 0.959 . S
H869 C883 0.961 . S
H870 C884 0.960 . S
H871 C884 0.959 1_545 S
H872 C884 0.959 . S
H873 C887 0.929 . S
H874 C888 0.931 . S
H875 C890 0.930 . S
C876 H864 0.930 . S
C876 C877 1.399 . S
C876 C881 1.399 . S
C877 C876 1.399 . S
C877 C878 1.376 . S
C878 H865 0.930 . S
C878 C877 1.376 . S
C878 C879 1.388 . S
C879 H866 0.930 . S
C879 C878 1.388 . S
C879 C880 1.390 . S
C880 C879 1.390 . S
C880 C881 1.394 . S
C880 C886 1.465 . S
C881 C876 1.399 . S
C881 C880 1.394 . S
C881 C882 1.516 . S
C882 C881 1.516 . S
C882 C883 1.502 1_565 S
C882 C884 1.561 . S
C882 C885 1.526 . S
C883 H867 0.959 . S
C883 H868 0.959 . S
C883 H869 0.961 . S
C883 C882 1.502 1_545 S
C884 H870 0.960 . S
C884 H871 0.959 1_565 S
C884 H872 0.959 . S
C884 C882 1.561 . S
C885 C882 1.526 . S
C885 C886 1.396 . S
C885 C890 1.390 1_565 S
C886 C880 1.465 . S
C886 C885 1.396 . S
C886 C887 1.399 . S
C887 H873 0.929 . S
C887 C886 1.399 . S
C887 C888 1.385 . S
C888 H874 0.931 . S
C888 C887 1.385 . S
C888 C889 1.389 1_565 S
C889 C888 1.389 1_545 S
C889 C890 1.387 . S
C890 H875 0.930 . S
C890 C885 1.390 1_545 S
C890 C889 1.387 . S
H891 C903 0.930 . S
H892 C905 0.930 . S
H893 C906 0.930 . S
H894 C910 0.959 . S
H895 C910 0.959 . S
H896 C910 0.961 . S
H897 C911 0.960 . S
H898 C911 0.961 . S
H899 C911 0.959 . S
H900 C914 0.929 . S
H901 C915 0.931 . S
H902 C917 0.930 . S
C903 H891 0.930 . S
C903 C904 1.399 . S
C903 C908 1.399 . S
C904 C903 1.399 . S
C904 C905 1.376 . S
C905 H892 0.930 . S
C905 C904 1.376 . S
C905 C906 1.388 . S
C906 H893 0.930 . S
C906 C905 1.388 . S
C906 C907 1.390 . S
C907 C906 1.390 . S
C907 C908 1.394 . S
C907 C913 1.465 . S
C908 C903 1.399 . S
C908 C907 1.394 . S
C908 C909 1.516 1_455 S
C909 C908 1.516 1_655 S
C909 C910 1.502 . S
C909 C911 1.561 . S
C909 C912 1.526 . S
C910 H894 0.959 . S
C910 H895 0.959 . S
C910 H896 0.961 . S
C910 C909 1.502 . S
C911 H897 0.960 . S
C911 H898 0.961 . S
C911 H899 0.959 . S
C911 C909 1.561 . S
C912 C909 1.526 . S
C912 C913 1.396 1_655 S
C912 C917 1.390 . S
C913 C907 1.465 . S
C913 C912 1.396 1_455 S
C913 C914 1.399 . S
C914 H900 0.929 . S
C914 C913 1.399 . S
C914 C915 1.385 . S
C915 H901 0.931 . S
C915 C914 1.385 . S
C915 C916 1.389 1_455 S
C916 C915 1.389 1_655 S
C916 C917 1.387 . S
C917 H902 0.930 . S
C917 C912 1.390 . S
C917 C916 1.387 . S
H918 C930 0.930 . S
H919 C932 0.930 . S
H920 C933 0.930 . S
H921 C937 0.959 . S
H922 C937 0.959 . S
H923 C937 0.961 1_455 S
H924 C938 0.960 . S
H925 C938 0.961 . S
H926 C938 0.959 . S
H927 C941 0.929 . S
H928 C942 0.931 . S
H929 C944 0.930 . S
C930 H918 0.930 . S
C930 C931 1.399 . S
C930 C935 1.399 . S
C931 C930 1.399 . S
C931 C932 1.376 . S
C932 H919 0.930 . S
C932 C931 1.376 . S
C932 C933 1.388 . S
C933 H920 0.930 . S
C933 C932 1.388 . S
C933 C934 1.390 . S
C934 C933 1.390 . S
C934 C935 1.394 . S
C934 C940 1.465 1_455 S
C935 C930 1.399 . S
C935 C934 1.394 . S
C935 C936 1.516 . S
C936 C935 1.516 . S
C936 C937 1.502 1_455 S
C936 C938 1.561 . S
C936 C939 1.526 1_455 S
C937 H921 0.959 . S
C937 H922 0.959 . S
C937 H923 0.961 1_655 S
C937 C936 1.502 1_655 S
C938 H924 0.960 . S
C938 H925 0.961 . S
C938 H926 0.959 . S
C938 C936 1.561 . S
C939 C936 1.526 1_655 S
C939 C940 1.396 . S
C939 C944 1.390 . S
C940 C934 1.465 1_655 S
C940 C939 1.396 . S
C940 C941 1.399 . S
C941 H927 0.929 . S
C941 C940 1.399 . S
C941 C942 1.385 . S
C942 H928 0.931 . S
C942 C941 1.385 . S
C942 C943 1.389 . S
C943 C942 1.389 . S
C943 C944 1.387 . S
C944 H929 0.930 . S
C944 C939 1.390 . S
C944 C943 1.387 . S
H945 C957 0.930 . S
H946 C959 0.930 . S
H947 C960 0.930 . S
H948 C964 0.959 . S
H949 C964 0.959 . S
H950 C964 0.961 . S
H951 C965 0.960 . S
H952 C965 0.961 . S
H953 C965 0.959 . S
H954 C968 0.929 . S
H955 C969 0.931 . S
H956 C971 0.930 . S
C957 H945 0.930 . S
C957 C958 1.399 . S
C957 C962 1.399 . S
C958 C957 1.399 . S
C958 C959 1.376 . S
C959 H946 0.930 . S
C959 C958 1.376 . S
C959 C960 1.388 . S
C960 H947 0.930 . S
C960 C959 1.388 . S
C960 C961 1.390 . S
C961 C960 1.390 . S
C961 C962 1.394 . S
C961 C967 1.465 . S
C962 C957 1.399 . S
C962 C961 1.394 . S
C962 C963 1.516 . S
C963 C962 1.516 . S
C963 C964 1.502 . S
C963 C965 1.561 . S
C963 C966 1.526 . S
C964 H948 0.959 . S
C964 H949 0.959 . S
C964 H950 0.961 . S
C964 C963 1.502 . S
C965 H951 0.960 . S
C965 H952 0.961 . S
C965 H953 0.959 . S
C965 C963 1.561 . S
C966 C963 1.526 . S
C966 C967 1.396 . S
C966 C971 1.390 . S
C967 C961 1.465 . S
C967 C966 1.396 . S
C967 C968 1.399 . S
C968 H954 0.929 . S
C968 C967 1.399 . S
C968 C969 1.385 . S
C969 H955 0.931 . S
C969 C968 1.385 . S
C969 C970 1.389 . S
C970 C969 1.389 . S
C970 C971 1.387 . S
C971 H956 0.930 . S
C971 C966 1.390 . S
C971 C970 1.387 . S
H972 C984 0.930 . S
H973 C986 0.930 . S
H974 C987 0.930 . S
H975 C991 0.959 . S
H976 C991 0.959 . S
H977 C991 0.961 . S
H978 C992 0.960 . S
H979 C992 0.961 . S
H980 C992 0.959 . S
H981 C995 0.929 1_565 S
H982 C996 0.931 . S
H983 C998 0.930 . S
C984 H972 0.930 . S
C984 C985 1.399 . S
C984 C989 1.399 . S
C985 C984 1.399 . S
C985 C986 1.376 . S
C986 H973 0.930 . S
C986 C985 1.376 . S
C986 C987 1.388 . S
C987 H974 0.930 . S
C987 C986 1.388 . S
C987 C988 1.390 . S
C988 C987 1.390 . S
C988 C989 1.394 . S
C988 C994 1.465 1_565 S
C989 C984 1.399 . S
C989 C988 1.394 . S
C989 C990 1.516 1_565 S
C990 C989 1.516 1_545 S
C990 C991 1.502 . S
C990 C992 1.561 . S
C990 C993 1.526 . S
C991 H975 0.959 . S
C991 H976 0.959 . S
C991 H977 0.961 . S
C991 C990 1.502 . S
C992 H978 0.960 . S
C992 H979 0.961 . S
C992 H980 0.959 . S
C992 C990 1.561 . S
C993 C990 1.526 . S
C993 C994 1.396 . S
C993 C998 1.390 . S
C994 C988 1.465 1_545 S
C994 C993 1.396 . S
C994 C995 1.399 . S
C995 H981 0.929 1_545 S
C995 C994 1.399 . S
C995 C996 1.385 . S
C996 H982 0.931 . S
C996 C995 1.385 . S
C996 C997 1.389 . S
C997 C996 1.389 . S
C997 C998 1.387 . S
C998 H983 0.930 . S
C998 C993 1.390 . S
C998 C997 1.387 . S
H999 C1011 0.930 . S
H1000 C1013 0.930 . S
H1001 C1014 0.930 . S
H1002 C1018 0.959 . S
H1003 C1018 0.959 . S
H1004 C1018 0.961 . S
H1005 C1019 0.960 . S
H1006 C1019 0.961 . S
H1007 C1019 0.959 . S
H1008 C1022 0.929 . S
H1009 C1023 0.931 . S
H1010 C1025 0.930 . S
C1011 H999 0.930 . S
C1011 C1012 1.399 . S
C1011 C1016 1.399 . S
C1012 C1011 1.399 . S
C1012 C1013 1.376 . S
C1013 H1000 0.930 . S
C1013 C1012 1.376 . S
C1013 C1014 1.388 . S
C1014 H1001 0.930 . S
C1014 C1013 1.388 . S
C1014 C1015 1.390 . S
C1015 C1014 1.390 . S
C1015 C1016 1.394 . S
C1015 C1021 1.465 1_545 S
C1016 C1011 1.399 . S
C1016 C1015 1.394 . S
C1016 C1017 1.516 . S
C1017 C1016 1.516 . S
C1017 C1018 1.502 . S
C1017 C1019 1.561 . S
C1017 C1020 1.526 1_545 S
C1018 H1002 0.959 . S
C1018 H1003 0.959 . S
C1018 H1004 0.961 . S
C1018 C1017 1.502 . S
C1019 H1005 0.960 . S
C1019 H1006 0.961 . S
C1019 H1007 0.959 . S
C1019 C1017 1.561 . S
C1020 C1017 1.526 1_565 S
C1020 C1021 1.396 . S
C1020 C1025 1.390 . S
C1021 C1015 1.465 1_565 S
C1021 C1020 1.396 . S
C1021 C1022 1.399 . S
C1022 H1008 0.929 . S
C1022 C1021 1.399 . S
C1022 C1023 1.385 . S
C1023 H1009 0.931 . S
C1023 C1022 1.385 . S
C1023 C1024 1.389 . S
C1024 C1023 1.389 . S
C1024 C1025 1.387 . S
C1025 H1010 0.930 . S
C1025 C1020 1.390 . S
C1025 C1024 1.387 . S
H1026 C1038 0.930 . S
H1027 C1040 0.930 . S
H1028 C1041 0.930 . S
H1029 C1045 0.959 . S
H1030 C1045 0.959 . S
H1031 C1045 0.961 . S
H1032 C1046 0.960 . S
H1033 C1046 0.961 . S
H1034 C1046 0.959 . S
H1035 C1049 0.929 . S
H1036 C1050 0.931 . S
H1037 C1052 0.930 . S
C1038 H1026 0.930 . S
C1038 C1039 1.399 . S
C1038 C1043 1.399 . S
C1039 C1038 1.399 . S
C1039 C1040 1.376 . S
C1040 H1027 0.930 . S
C1040 C1039 1.376 . S
C1040 C1041 1.388 . S
C1041 H1028 0.930 . S
C1041 C1040 1.388 . S
C1041 C1042 1.390 . S
C1042 C1041 1.390 . S
C1042 C1043 1.394 . S
C1042 C1048 1.465 1_455 S
C1043 C1038 1.399 . S
C1043 C1042 1.394 . S
C1043 C1044 1.516 1_455 S
C1044 C1043 1.516 1_655 S
C1044 C1045 1.502 . S
C1044 C1046 1.561 . S
C1044 C1047 1.526 . S
C1045 H1029 0.959 . S
C1045 H1030 0.959 . S
C1045 H1031 0.961 . S
C1045 C1044 1.502 . S
C1046 H1032 0.960 . S
C1046 H1033 0.961 . S
C1046 H1034 0.959 . S
C1046 C1044 1.561 . S
C1047 C1044 1.526 . S
C1047 C1048 1.396 . S
C1047 C1052 1.390 . S
C1048 C1042 1.465 1_655 S
C1048 C1047 1.396 . S
C1048 C1049 1.399 . S
C1049 H1035 0.929 . S
C1049 C1048 1.399 . S
C1049 C1050 1.385 . S
C1050 H1036 0.931 . S
C1050 C1049 1.385 . S
C1050 C1051 1.389 . S
C1051 C1050 1.389 . S
C1051 C1052 1.387 . S
C1052 H1037 0.930 . S
C1052 C1047 1.390 . S
C1052 C1051 1.387 . S
H1053 C1065 0.930 . S
H1054 C1067 0.930 . S
H1055 C1068 0.930 . S
H1056 C1072 0.959 . S
H1057 C1072 0.959 . S
H1058 C1072 0.961 . S
H1059 C1073 0.960 . S
H1060 C1073 0.961 . S
H1061 C1073 0.959 . S
H1062 C1076 0.929 . S
H1063 C1077 0.931 . S
H1064 C1079 0.930 . S
C1065 H1053 0.930 . S
C1065 C1066 1.399 . S
C1065 C1070 1.399 . S
C1066 C1065 1.399 . S
C1066 C1067 1.376 . S
C1067 H1054 0.930 . S
C1067 C1066 1.376 . S
C1067 C1068 1.388 . S
C1068 H1055 0.930 . S
C1068 C1067 1.388 . S
C1068 C1069 1.390 . S
C1069 C1068 1.390 . S
C1069 C1070 1.394 . S
C1069 C1075 1.465 . S
C1070 C1065 1.399 . S
C1070 C1069 1.394 . S
C1070 C1071 1.516 . S
C1071 C1070 1.516 . S
C1071 C1072 1.502 . S
C1071 C1073 1.561 . S
C1071 C1074 1.526 . S
C1072 H1056 0.959 . S
C1072 H1057 0.959 . S
C1072 H1058 0.961 . S
C1072 C1071 1.502 . S
C1073 H1059 0.960 . S
C1073 H1060 0.961 . S
C1073 H1061 0.959 . S
C1073 C1071 1.561 . S
C1074 C1071 1.526 . S
C1074 C1075 1.396 . S
C1074 C1079 1.390 . S
C1075 C1069 1.465 . S
C1075 C1074 1.396 . S
C1075 C1076 1.399 . S
C1076 H1062 0.929 . S
C1076 C1075 1.399 . S
C1076 C1077 1.385 . S
C1077 H1063 0.931 . S
C1077 C1076 1.385 . S
C1077 C1078 1.389 . S
C1078 C1077 1.389 . S
C1078 C1079 1.387 . S
C1079 H1064 0.930 . S
C1079 C1074 1.390 . S
C1079 C1078 1.387 . S
H1080 C1092 0.930 . S
H1081 C1094 0.930 . S
H1082 C1095 0.930 . S
H1083 C1099 0.959 . S
H1084 C1099 0.959 . S
H1085 C1099 0.961 . S
H1086 C1100 0.960 . S
H1087 C1100 0.961 . S
H1088 C1100 0.959 . S
H1089 C1103 0.929 . S
H1090 C1104 0.931 . S
H1091 C1106 0.930 . S
C1092 H1080 0.930 . S
C1092 C1093 1.399 . S
C1092 C1097 1.399 . S
C1093 C1092 1.399 . S
C1093 C1094 1.376 . S
C1094 H1081 0.930 . S
C1094 C1093 1.376 . S
C1094 C1095 1.388 . S
C1095 H1082 0.930 . S
C1095 C1094 1.388 . S
C1095 C1096 1.390 . S
C1096 C1095 1.390 . S
C1096 C1097 1.394 . S
C1096 C1102 1.465 . S
C1097 C1092 1.399 . S
C1097 C1096 1.394 . S
C1097 C1098 1.516 . S
C1098 C1097 1.516 . S
C1098 C1099 1.502 . S
C1098 C1100 1.561 . S
C1098 C1101 1.526 . S
C1099 H1083 0.959 . S
C1099 H1084 0.959 . S
C1099 H1085 0.961 . S
C1099 C1098 1.502 . S
C1100 H1086 0.960 . S
C1100 H1087 0.961 . S
C1100 H1088 0.959 . S
C1100 C1098 1.561 . S
C1101 C1098 1.526 . S
C1101 C1102 1.396 . S
C1101 C1106 1.390 . S
C1102 C1096 1.465 . S
C1102 C1101 1.396 . S
C1102 C1103 1.399 . S
C1103 H1089 0.929 . S
C1103 C1102 1.399 . S
C1103 C1104 1.385 . S
C1104 H1090 0.931 . S
C1104 C1103 1.385 . S
C1104 C1105 1.389 . S
C1105 C1104 1.389 . S
C1105 C1106 1.387 . S
C1106 H1091 0.930 . S
C1106 C1101 1.390 . S
C1106 C1105 1.387 . S
H1107 C1119 0.930 . S
H1108 C1121 0.930 . S
H1109 C1122 0.930 . S
H1110 C1126 0.959 . S
H1111 C1126 0.959 . S
H1112 C1126 0.961 . S
H1113 C1127 0.960 . S
H1114 C1127 0.961 . S
H1115 C1127 0.959 . S
H1116 C1130 0.929 . S
H1117 C1131 0.931 . S
H1118 C1133 0.930 . S
C1119 H1107 0.930 . S
C1119 C1120 1.399 . S
C1119 C1124 1.399 . S
C1120 C1119 1.399 . S
C1120 C1121 1.376 . S
C1121 H1108 0.930 . S
C1121 C1120 1.376 . S
C1121 C1122 1.388 . S
C1122 H1109 0.930 . S
C1122 C1121 1.388 . S
C1122 C1123 1.390 . S
C1123 C1122 1.390 . S
C1123 C1124 1.394 . S
C1123 C1129 1.465 . S
C1124 C1119 1.399 . S
C1124 C1123 1.394 . S
C1124 C1125 1.516 . S
C1125 C1124 1.516 . S
C1125 C1126 1.502 . S
C1125 C1127 1.561 . S
C1125 C1128 1.526 . S
C1126 H1110 0.959 . S
C1126 H1111 0.959 . S
C1126 H1112 0.961 . S
C1126 C1125 1.502 . S
C1127 H1113 0.960 . S
C1127 H1114 0.961 . S
C1127 H1115 0.959 . S
C1127 C1125 1.561 . S
C1128 C1125 1.526 . S
C1128 C1129 1.396 . S
C1128 C1133 1.390 . S
C1129 C1123 1.465 . S
C1129 C1128 1.396 . S
C1129 C1130 1.399 . S
C1130 H1116 0.929 . S
C1130 C1129 1.399 . S
C1130 C1131 1.385 . S
C1131 H1117 0.931 . S
C1131 C1130 1.385 . S
C1131 C1132 1.389 . S
C1132 C1131 1.389 . S
C1132 C1133 1.387 . S
C1133 H1118 0.930 . S
C1133 C1128 1.390 . S
C1133 C1132 1.387 . S
H1134 C1146 0.930 . S
H1135 C1148 0.930 . S
H1136 C1149 0.930 . S
H1137 C1153 0.959 . S
H1138 C1153 0.959 . S
H1139 C1153 0.961 . S
H1140 C1154 0.960 . S
H1141 C1154 0.961 . S
H1142 C1154 0.959 . S
H1143 C1157 0.929 . S
H1144 C1158 0.931 . S
H1145 C1160 0.930 . S
C1146 H1134 0.930 . S
C1146 C1147 1.399 . S
C1146 C1151 1.399 . S
C1147 C1146 1.399 . S
C1147 C1148 1.376 . S
C1148 H1135 0.930 . S
C1148 C1147 1.376 . S
C1148 C1149 1.388 . S
C1149 H1136 0.930 . S
C1149 C1148 1.388 . S
C1149 C1150 1.390 . S
C1150 C1149 1.390 . S
C1150 C1151 1.394 . S
C1150 C1156 1.465 . S
C1151 C1146 1.399 . S
C1151 C1150 1.394 . S
C1151 C1152 1.516 . S
C1152 C1151 1.516 . S
C1152 C1153 1.502 . S
C1152 C1154 1.561 . S
C1152 C1155 1.526 . S
C1153 H1137 0.959 . S
C1153 H1138 0.959 . S
C1153 H1139 0.961 . S
C1153 C1152 1.502 . S
C1154 H1140 0.960 . S
C1154 H1141 0.961 . S
C1154 H1142 0.959 . S
C1154 C1152 1.561 . S
C1155 C1152 1.526 . S
C1155 C1156 1.396 . S
C1155 C1160 1.390 . S
C1156 C1150 1.465 . S
C1156 C1155 1.396 . S
C1156 C1157 1.399 . S
C1157 H1143 0.929 . S
C1157 C1156 1.399 . S
C1157 C1158 1.385 . S
C1158 H1144 0.931 . S
C1158 C1157 1.385 . S
C1158 C1159 1.389 . S
C1159 C1158 1.389 . S
C1159 C1160 1.387 . S
C1160 H1145 0.930 . S
C1160 C1155 1.390 . S
C1160 C1159 1.387 . S
H1161 C1173 0.930 . S
H1162 C1175 0.930 . S
H1163 C1176 0.930 . S
H1164 C1180 0.959 . S
H1165 C1180 0.959 . S
H1166 C1180 0.961 . S
H1167 C1181 0.960 . S
H1168 C1181 0.961 . S
H1169 C1181 0.959 . S
H1170 C1184 0.929 . S
H1171 C1185 0.931 . S
H1172 C1187 0.930 . S
C1173 H1161 0.930 . S
C1173 C1174 1.399 . S
C1173 C1178 1.399 . S
C1174 C1173 1.399 . S
C1174 C1175 1.376 . S
C1175 H1162 0.930 . S
C1175 C1174 1.376 . S
C1175 C1176 1.388 . S
C1176 H1163 0.930 . S
C1176 C1175 1.388 . S
C1176 C1177 1.390 . S
C1177 C1176 1.390 . S
C1177 C1178 1.394 . S
C1177 C1183 1.465 . S
C1178 C1173 1.399 . S
C1178 C1177 1.394 . S
C1178 C1179 1.516 . S
C1179 C1178 1.516 . S
C1179 C1180 1.502 . S
C1179 C1181 1.561 . S
C1179 C1182 1.526 . S
C1180 H1164 0.959 . S
C1180 H1165 0.959 . S
C1180 H1166 0.961 . S
C1180 C1179 1.502 . S
C1181 H1167 0.960 . S
C1181 H1168 0.961 . S
C1181 H1169 0.959 . S
C1181 C1179 1.561 . S
C1182 C1179 1.526 . S
C1182 C1183 1.396 . S
C1182 C1187 1.390 . S
C1183 C1177 1.465 . S
C1183 C1182 1.396 . S
C1183 C1184 1.399 . S
C1184 H1170 0.929 . S
C1184 C1183 1.399 . S
C1184 C1185 1.385 . S
C1185 H1171 0.931 . S
C1185 C1184 1.385 . S
C1185 C1186 1.389 . S
C1186 C1185 1.389 . S
C1186 C1187 1.387 . S
C1187 H1172 0.930 . S
C1187 C1182 1.390 . S
C1187 C1186 1.387 . S
H1188 C1200 0.930 . S
H1189 C1202 0.930 . S
H1190 C1203 0.930 . S
H1191 C1207 0.959 . S
H1192 C1207 0.959 . S
H1193 C1207 0.961 . S
H1194 C1208 0.960 . S
H1195 C1208 0.961 . S
H1196 C1208 0.959 . S
H1197 C1211 0.929 . S
H1198 C1212 0.931 . S
H1199 C1214 0.930 . S
C1200 H1188 0.930 . S
C1200 C1201 1.399 . S
C1200 C1205 1.399 . S
C1201 C1200 1.399 . S
C1201 C1202 1.376 . S
C1202 H1189 0.930 . S
C1202 C1201 1.376 . S
C1202 C1203 1.388 . S
C1203 H1190 0.930 . S
C1203 C1202 1.388 . S
C1203 C1204 1.390 . S
C1204 C1203 1.390 . S
C1204 C1205 1.394 . S
C1204 C1210 1.465 . S
C1205 C1200 1.399 . S
C1205 C1204 1.394 . S
C1205 C1206 1.516 . S
C1206 C1205 1.516 . S
C1206 C1207 1.502 . S
C1206 C1208 1.561 . S
C1206 C1209 1.526 . S
C1207 H1191 0.959 . S
C1207 H1192 0.959 . S
C1207 H1193 0.961 . S
C1207 C1206 1.502 . S
C1208 H1194 0.960 . S
C1208 H1195 0.961 . S
C1208 H1196 0.959 . S
C1208 C1206 1.561 . S
C1209 C1206 1.526 . S
C1209 C1210 1.396 . S
C1209 C1214 1.390 . S
C1210 C1204 1.465 . S
C1210 C1209 1.396 . S
C1210 C1211 1.399 . S
C1211 H1197 0.929 . S
C1211 C1210 1.399 . S
C1211 C1212 1.385 . S
C1212 H1198 0.931 . S
C1212 C1211 1.385 . S
C1212 C1213 1.389 . S
C1213 C1212 1.389 . S
C1213 C1214 1.387 . S
C1214 H1199 0.930 . S
C1214 C1209 1.390 . S
C1214 C1213 1.387 . S
H1215 C1227 0.930 . S
H1216 C1229 0.930 . S
H1217 C1230 0.930 . S
H1218 C1234 0.959 . S
H1219 C1234 0.959 . S
H1220 C1234 0.961 . S
H1221 C1235 0.960 . S
H1222 C1235 0.961 . S
H1223 C1235 0.959 . S
H1224 C1238 0.929 . S
H1225 C1239 0.931 . S
H1226 C1241 0.930 . S
C1227 H1215 0.930 . S
C1227 C1228 1.399 . S
C1227 C1232 1.399 . S
C1228 C1227 1.399 . S
C1228 C1229 1.376 . S
C1229 H1216 0.930 . S
C1229 C1228 1.376 . S
C1229 C1230 1.388 . S
C1230 H1217 0.930 . S
C1230 C1229 1.388 . S
C1230 C1231 1.390 . S
C1231 C1230 1.390 . S
C1231 C1232 1.394 . S
C1231 C1237 1.465 . S
C1232 C1227 1.399 . S
C1232 C1231 1.394 . S
C1232 C1233 1.516 . S
C1233 C1232 1.516 . S
C1233 C1234 1.502 . S
C1233 C1235 1.561 . S
C1233 C1236 1.526 . S
C1234 H1218 0.959 . S
C1234 H1219 0.959 . S
C1234 H1220 0.961 . S
C1234 C1233 1.502 . S
C1235 H1221 0.960 . S
C1235 H1222 0.961 . S
C1235 H1223 0.959 . S
C1235 C1233 1.561 . S
C1236 C1233 1.526 . S
C1236 C1237 1.396 . S
C1236 C1241 1.390 . S
C1237 C1231 1.465 . S
C1237 C1236 1.396 . S
C1237 C1238 1.399 . S
C1238 H1224 0.929 . S
C1238 C1237 1.399 . S
C1238 C1239 1.385 . S
C1239 H1225 0.931 . S
C1239 C1238 1.385 . S
C1239 C1240 1.389 . S
C1240 C1239 1.389 . S
C1240 C1241 1.387 . S
C1241 H1226 0.930 . S
C1241 C1236 1.390 . S
C1241 C1240 1.387 . S
H1242 C1254 0.930 . S
H1243 C1256 0.930 . S
H1244 C1257 0.930 . S
H1245 C1261 0.959 1_454 S
H1246 C1261 0.974 . S
H1247 C1261 0.946 1_554 S
H1248 C1262 0.960 1_554 S
H1249 C1262 0.961 . S
H1250 C1262 0.959 . S
H1251 C1265 0.929 . S
H1252 C1266 0.931 . S
H1253 C1268 0.923 . S
C1254 H1242 0.930 . S
C1254 C1255 1.399 . S
C1254 C1259 1.399 . S
C1255 C1254 1.399 . S
C1255 C1256 1.376 . S
C1256 H1243 0.930 . S
C1256 C1255 1.376 . S
C1256 C1257 1.388 1_655 S
C1257 H1244 0.930 . S
C1257 C1256 1.388 1_455 S
C1257 C1258 1.390 1_455 S
C1258 C1257 1.390 1_655 S
C1258 C1259 1.394 . S
C1258 C1264 1.465 1_654 S
C1259 C1254 1.399 . S
C1259 C1258 1.394 . S
C1259 C1260 1.516 1_554 S
C1260 C1259 1.516 1_556 S
C1260 C1261 1.502 . S
C1260 C1262 1.561 . S
C1260 C1263 1.526 . S
C1261 H1245 0.959 1_656 S
C1261 H1246 0.974 . S
C1261 H1247 0.946 1_556 S
C1261 C1260 1.502 . S
C1262 H1248 0.960 1_556 S
C1262 H1249 0.961 . S
C1262 H1250 0.959 . S
C1262 C1260 1.561 . S
C1263 C1260 1.526 . S
C1263 C1264 1.396 1_655 S
C1263 C1268 1.395 . S
C1264 C1258 1.465 1_456 S
C1264 C1263 1.396 1_455 S
C1264 C1265 1.399 . S
C1265 H1251 0.929 . S
C1265 C1264 1.399 . S
C1265 C1266 1.385 . S
C1266 H1252 0.931 . S
C1266 C1265 1.385 . S
C1266 C1267 1.389 . S
C1267 C1266 1.389 . S
C1267 C1268 1.388 1_455 S
C1268 H1253 0.923 . S
C1268 C1263 1.395 . S
C1268 C1267 1.388 1_655 S
H1269 C1281 0.930 . S
H1270 C1283 0.930 . S
H1271 C1284 0.930 . S
H1272 C1288 0.959 . S
H1273 C1288 0.959 1_556 S
H1274 C1288 0.961 . S
H1275 C1289 1.023 . S
H1276 C1289 0.912 1_556 S
H1277 C1289 0.946 1_556 S
H1278 C1292 0.929 . S
H1279 C1293 0.931 . S
H1280 C1295 0.930 . S
C1281 H1269 0.930 . S
C1281 C1282 1.399 . S
C1281 C1286 1.399 . S
C1282 C1281 1.399 . S
C1282 C1283 1.376 . S
C1283 H1270 0.930 . S
C1283 C1282 1.376 . S
C1283 C1284 1.388 . S
C1284 H1271 0.930 . S
C1284 C1283 1.388 . S
C1284 C1285 1.390 . S
C1285 C1284 1.390 . S
C1285 C1286 1.394 . S
C1285 C1291 1.465 1_554 S
C1286 C1281 1.399 . S
C1286 C1285 1.394 . S
C1286 C1287 1.516 . S
C1287 C1286 1.516 . S
C1287 C1288 1.502 . S
C1287 C1289 1.566 . S
C1287 C1290 1.526 1_554 S
C1288 H1272 0.959 . S
C1288 H1273 0.959 1_554 S
C1288 H1274 0.961 . S
C1288 C1287 1.502 . S
C1289 H1275 1.023 . S
C1289 H1276 0.912 1_554 S
C1289 H1277 0.946 1_554 S
C1289 C1287 1.566 . S
C1290 C1287 1.526 1_556 S
C1290 C1291 1.396 . S
C1290 C1295 1.390 . S
C1291 C1285 1.465 1_556 S
C1291 C1290 1.396 . S
C1291 C1292 1.399 . S
C1292 H1278 0.929 . S
C1292 C1291 1.399 . S
C1292 C1293 1.385 . S
C1293 H1279 0.931 . S
C1293 C1292 1.385 . S
C1293 C1294 1.389 . S
C1294 C1293 1.389 . S
C1294 C1295 1.387 . S
C1295 H1280 0.930 . S
C1295 C1290 1.390 . S
C1295 C1294 1.387 . S
H1296 C1308 0.930 . S
H1297 C1310 0.930 . S
H1298 C1311 0.930 . S
H1299 C1315 0.959 . S
H1300 C1315 0.959 . S
H1301 C1315 0.961 1_554 S
H1302 C1316 0.960 1_554 S
H1303 C1316 0.961 . S
H1304 C1316 0.959 . S
H1305 C1319 0.929 . S
H1306 C1320 0.931 . S
H1307 C1322 0.930 . S
C1308 H1296 0.930 . S
C1308 C1309 1.399 . S
C1308 C1313 1.399 . S
C1309 C1308 1.399 . S
C1309 C1310 1.376 1_545 S
C1310 H1297 0.930 . S
C1310 C1309 1.376 1_565 S
C1310 C1311 1.388 . S
C1311 H1298 0.930 . S
C1311 C1310 1.388 . S
C1311 C1312 1.390 . S
C1312 C1311 1.390 . S
C1312 C1313 1.394 1_565 S
C1312 C1318 1.465 1_554 S
C1313 C1308 1.399 . S
C1313 C1312 1.394 1_545 S
C1313 C1314 1.516 1_554 S
C1314 C1313 1.516 1_556 S
C1314 C1315 1.502 . S
C1314 C1316 1.561 . S
C1314 C1317 1.526 . S
C1315 H1299 0.959 . S
C1315 H1300 0.959 . S
C1315 H1301 0.961 1_556 S
C1315 C1314 1.502 . S
C1316 H1302 0.960 1_556 S
C1316 H1303 0.961 . S
C1316 H1304 0.959 . S
C1316 C1314 1.561 . S
C1317 C1314 1.526 . S
C1317 C1318 1.396 1_545 S
C1317 C1322 1.390 . S
C1318 C1312 1.465 1_556 S
C1318 C1317 1.396 1_565 S
C1318 C1319 1.399 . S
C1319 H1305 0.929 . S
C1319 C1318 1.399 . S
C1319 C1320 1.385 . S
C1320 H1306 0.931 . S
C1320 C1319 1.385 . S
C1320 C1321 1.389 . S
C1321 C1320 1.389 . S
C1321 C1322 1.387 1_565 S
C1322 H1307 0.930 . S
C1322 C1317 1.390 . S
C1322 C1321 1.387 1_545 S
H1323 C1335 0.930 . S
H1324 C1337 0.930 1_565 S
H1325 C1338 0.930 . S
H1326 C1342 0.959 . S
H1327 C1342 0.959 . S
H1328 C1342 0.961 . S
H1329 C1343 0.960 . S
H1330 C1343 0.961 . S
H1331 C1343 0.959 . S
H1332 C1346 0.929 . S
H1333 C1347 0.931 . S
H1334 C1349 0.930 . S
C1335 H1323 0.930 . S
C1335 C1336 1.399 . S
C1335 C1340 1.399 . S
C1336 C1335 1.399 . S
C1336 C1337 1.376 . S
C1337 H1324 0.930 1_545 S
C1337 C1336 1.376 . S
C1337 C1338 1.388 . S
C1338 H1325 0.930 . S
C1338 C1337 1.388 . S
C1338 C1339 1.390 . S
C1339 C1338 1.390 . S
C1339 C1340 1.394 . S
C1339 C1345 1.465 . S
C1340 C1335 1.399 . S
C1340 C1339 1.394 . S
C1340 C1341 1.516 . S
C1341 C1340 1.516 . S
C1341 C1342 1.502 . S
C1341 C1343 1.561 . S
C1341 C1344 1.526 . S
C1342 H1326 0.959 . S
C1342 H1327 0.959 . S
C1342 H1328 0.961 . S
C1342 C1341 1.502 . S
C1343 H1329 0.960 . S
C1343 H1330 0.961 . S
C1343 H1331 0.959 . S
C1343 C1341 1.561 . S
C1344 C1341 1.526 . S
C1344 C1345 1.396 . S
C1344 C1349 1.390 . S
C1345 C1339 1.465 . S
C1345 C1344 1.396 . S
C1345 C1346 1.399 . S
C1346 H1332 0.929 . S
C1346 C1345 1.399 . S
C1346 C1347 1.385 . S
C1347 H1333 0.931 . S
C1347 C1346 1.385 . S
C1347 C1348 1.389 . S
C1348 C1347 1.389 . S
C1348 C1349 1.387 . S
C1349 H1334 0.930 . S
C1349 C1344 1.390 . S
C1349 C1348 1.387 . S
H1350 C1362 0.930 . S
H1351 C1364 0.930 . S
H1352 C1365 0.930 1_545 S
H1353 C1369 0.959 . S
H1354 C1369 0.959 . S
H1355 C1369 0.961 . S
H1356 C1370 0.960 . S
H1357 C1370 0.961 . S
H1358 C1370 0.959 . S
H1359 C1373 0.929 . S
H1360 C1374 0.931 . S
H1361 C1376 0.930 . S
C1362 H1350 0.930 . S
C1362 C1363 1.399 . S
C1362 C1367 1.399 1_565 S
C1363 C1362 1.399 . S
C1363 C1364 1.376 . S
C1364 H1351 0.930 . S
C1364 C1363 1.376 . S
C1364 C1365 1.388 . S
C1365 H1352 0.930 1_565 S
C1365 C1364 1.388 . S
C1365 C1366 1.390 1_565 S
C1366 C1365 1.390 1_545 S
C1366 C1367 1.394 . S
C1366 C1372 1.465 . S
C1367 C1362 1.399 1_545 S
C1367 C1366 1.394 . S
C1367 C1368 1.516 . S
C1368 C1367 1.516 . S
C1368 C1369 1.502 . S
C1368 C1370 1.561 . S
C1368 C1371 1.526 . S
C1369 H1353 0.959 . S
C1369 H1354 0.959 . S
C1369 H1355 0.961 . S
C1369 C1368 1.502 . S
C1370 H1356 0.960 . S
C1370 H1357 0.961 . S
C1370 H1358 0.959 . S
C1370 C1368 1.561 . S
C1371 C1368 1.526 . S
C1371 C1372 1.396 . S
C1371 C1376 1.390 . S
C1372 C1366 1.465 . S
C1372 C1371 1.396 . S
C1372 C1373 1.399 . S
C1373 H1359 0.929 . S
C1373 C1372 1.399 . S
C1373 C1374 1.385 . S
C1374 H1360 0.931 . S
C1374 C1373 1.385 . S
C1374 C1375 1.389 . S
C1375 C1374 1.389 . S
C1375 C1376 1.387 . S
C1376 H1361 0.930 . S
C1376 C1371 1.390 . S
C1376 C1375 1.387 . S
H1377 C1389 0.930 . S
H1378 C1391 0.930 . S
H1379 C1392 0.930 . S
H1380 C1396 0.959 . S
H1381 C1396 0.959 1_455 S
H1382 C1396 0.961 . S
H1383 C1397 0.960 . S
H1384 C1397 0.961 . S
H1385 C1397 0.959 . S
H1386 C1400 0.929 . S
H1387 C1401 0.931 . S
H1388 C1403 0.930 . S
C1389 H1377 0.930 . S
C1389 C1390 1.399 . S
C1389 C1394 1.399 . S
C1390 C1389 1.399 . S
C1390 C1391 1.376 . S
C1391 H1378 0.930 . S
C1391 C1390 1.376 . S
C1391 C1392 1.388 . S
C1392 H1379 0.930 . S
C1392 C1391 1.388 . S
C1392 C1393 1.390 . S
C1393 C1392 1.390 . S
C1393 C1394 1.394 . S
C1393 C1399 1.465 . S
C1394 C1389 1.399 . S
C1394 C1393 1.394 . S
C1394 C1395 1.516 . S
C1395 C1394 1.516 . S
C1395 C1396 1.502 . S
C1395 C1397 1.561 . S
C1395 C1398 1.526 . S
C1396 H1380 0.959 . S
C1396 H1381 0.959 1_655 S
C1396 H1382 0.961 . S
C1396 C1395 1.502 . S
C1397 H1383 0.960 . S
C1397 H1384 0.961 . S
C1397 H1385 0.959 . S
C1397 C1395 1.561 . S
C1398 C1395 1.526 . S
C1398 C1399 1.396 . S
C1398 C1403 1.390 1_655 S
C1399 C1393 1.465 . S
C1399 C1398 1.396 . S
C1399 C1400 1.399 . S
C1400 H1386 0.929 . S
C1400 C1399 1.399 . S
C1400 C1401 1.385 1_655 S
C1401 H1387 0.931 . S
C1401 C1400 1.385 1_455 S
C1401 C1402 1.389 . S
C1402 C1401 1.389 . S
C1402 C1403 1.387 . S
C1403 H1388 0.930 . S
C1403 C1398 1.390 1_455 S
C1403 C1402 1.387 . S
H1404 C1416 0.930 . S
H1405 C1418 0.930 . S
H1406 C1419 0.930 . S
H1407 C1423 0.959 . S
H1408 C1423 0.959 . S
H1409 C1423 0.961 . S
H1410 C1424 0.960 . S
H1411 C1424 0.961 . S
H1412 C1424 0.959 . S
H1413 C1427 0.929 . S
H1414 C1428 0.931 . S
H1415 C1430 0.930 . S
C1416 H1404 0.930 . S
C1416 C1417 1.399 . S
C1416 C1421 1.399 . S
C1417 C1416 1.399 . S
C1417 C1418 1.376 . S
C1418 H1405 0.930 . S
C1418 C1417 1.376 . S
C1418 C1419 1.388 . S
C1419 H1406 0.930 . S
C1419 C1418 1.388 . S
C1419 C1420 1.390 . S
C1420 C1419 1.390 . S
C1420 C1421 1.394 . S
C1420 C1426 1.465 . S
C1421 C1416 1.399 . S
C1421 C1420 1.394 . S
C1421 C1422 1.516 . S
C1422 C1421 1.516 . S
C1422 C1423 1.502 . S
C1422 C1424 1.561 . S
C1422 C1425 1.526 . S
C1423 H1407 0.959 . S
C1423 H1408 0.959 . S
C1423 H1409 0.961 . S
C1423 C1422 1.502 . S
C1424 H1410 0.960 . S
C1424 H1411 0.961 . S
C1424 H1412 0.959 . S
C1424 C1422 1.561 . S
C1425 C1422 1.526 . S
C1425 C1426 1.396 . S
C1425 C1430 1.390 . S
C1426 C1420 1.465 . S
C1426 C1425 1.396 . S
C1426 C1427 1.399 . S
C1427 H1413 0.929 . S
C1427 C1426 1.399 . S
C1427 C1428 1.385 . S
C1428 H1414 0.931 . S
C1428 C1427 1.385 . S
C1428 C1429 1.389 . S
C1429 C1428 1.389 . S
C1429 C1430 1.387 . S
C1430 H1415 0.930 . S
C1430 C1425 1.390 . S
C1430 C1429 1.387 . S
H1431 C1443 0.930 . S
H1432 C1445 0.930 . S
H1433 C1446 0.930 . S
H1434 C1450 0.959 . S
H1435 C1450 0.959 . S
H1436 C1450 0.961 . S
H1437 C1451 0.960 . S
H1438 C1451 0.961 . S
H1439 C1451 0.959 . S
H1440 C1454 0.929 . S
H1441 C1455 0.931 . S
H1442 C1457 0.930 . S
C1443 H1431 0.930 . S
C1443 C1444 1.399 . S
C1443 C1448 1.399 1_545 S
C1444 C1443 1.399 . S
C1444 C1445 1.376 . S
C1445 H1432 0.930 . S
C1445 C1444 1.376 . S
C1445 C1446 1.388 1_545 S
C1446 H1433 0.930 . S
C1446 C1445 1.388 1_565 S
C1446 C1447 1.390 . S
C1447 C1446 1.390 . S
C1447 C1448 1.394 . S
C1447 C1453 1.465 . S
C1448 C1443 1.399 1_565 S
C1448 C1447 1.394 . S
C1448 C1449 1.516 . S
C1449 C1448 1.516 . S
C1449 C1450 1.502 . S
C1449 C1451 1.561 . S
C1449 C1452 1.526 . S
C1450 H1434 0.959 . S
C1450 H1435 0.959 . S
C1450 H1436 0.961 . S
C1450 C1449 1.502 . S
C1451 H1437 0.960 . S
C1451 H1438 0.961 . S
C1451 H1439 0.959 . S
C1451 C1449 1.561 . S
C1452 C1449 1.526 . S
C1452 C1453 1.396 . S
C1452 C1457 1.390 . S
C1453 C1447 1.465 . S
C1453 C1452 1.396 . S
C1453 C1454 1.399 . S
C1454 H1440 0.929 . S
C1454 C1453 1.399 . S
C1454 C1455 1.385 . S
C1455 H1441 0.931 . S
C1455 C1454 1.385 . S
C1455 C1456 1.389 . S
C1456 C1455 1.389 . S
C1456 C1457 1.387 . S
C1457 H1442 0.930 . S
C1457 C1452 1.390 . S
C1457 C1456 1.387 . S
H1458 C1470 0.930 . S
H1459 C1472 0.930 . S
H1460 C1473 0.930 . S
H1461 C1477 0.959 . S
H1462 C1477 0.959 1_655 S
H1463 C1477 0.961 . S
H1464 C1478 0.960 . S
H1465 C1478 0.961 . S
H1466 C1478 0.959 . S
H1467 C1481 0.929 . S
H1468 C1482 0.931 . S
H1469 C1484 0.930 . S
C1470 H1458 0.930 . S
C1470 C1471 1.399 . S
C1470 C1475 1.399 . S
C1471 C1470 1.399 . S
C1471 C1472 1.376 . S
C1472 H1459 0.930 . S
C1472 C1471 1.376 . S
C1472 C1473 1.388 . S
C1473 H1460 0.930 . S
C1473 C1472 1.388 . S
C1473 C1474 1.390 . S
C1474 C1473 1.390 . S
C1474 C1475 1.394 . S
C1474 C1480 1.465 . S
C1475 C1470 1.399 . S
C1475 C1474 1.394 . S
C1475 C1476 1.516 . S
C1476 C1475 1.516 . S
C1476 C1477 1.502 . S
C1476 C1478 1.561 . S
C1476 C1479 1.526 . S
C1477 H1461 0.959 . S
C1477 H1462 0.959 1_455 S
C1477 H1463 0.961 . S
C1477 C1476 1.502 . S
C1478 H1464 0.960 . S
C1478 H1465 0.961 . S
C1478 H1466 0.959 . S
C1478 C1476 1.561 . S
C1479 C1476 1.526 . S
C1479 C1480 1.396 . S
C1479 C1484 1.390 1_455 S
C1480 C1474 1.465 . S
C1480 C1479 1.396 . S
C1480 C1481 1.399 . S
C1481 H1467 0.929 . S
C1481 C1480 1.399 . S
C1481 C1482 1.385 1_455 S
C1482 H1468 0.931 . S
C1482 C1481 1.385 1_655 S
C1482 C1483 1.389 . S
C1483 C1482 1.389 . S
C1483 C1484 1.387 . S
C1484 H1469 0.930 . S
C1484 C1479 1.390 1_655 S
C1484 C1483 1.387 . S
H1485 C1497 0.930 . S
H1486 C1499 0.930 . S
H1487 C1500 0.930 . S
H1488 C1504 0.959 . S
H1489 C1504 0.959 . S
H1490 C1504 0.961 . S
H1491 C1505 0.960 . S
H1492 C1505 0.961 . S
H1493 C1505 0.959 . S
H1494 C1508 0.929 . S
H1495 C1509 0.931 . S
H1496 C1511 0.930 . S
C1497 H1485 0.930 . S
C1497 C1498 1.399 . S
C1497 C1502 1.399 . S
C1498 C1497 1.399 . S
C1498 C1499 1.376 . S
C1499 H1486 0.930 . S
C1499 C1498 1.376 . S
C1499 C1500 1.388 . S
C1500 H1487 0.930 . S
C1500 C1499 1.388 . S
C1500 C1501 1.390 . S
C1501 C1500 1.390 . S
C1501 C1502 1.394 . S
C1501 C1507 1.465 . S
C1502 C1497 1.399 . S
C1502 C1501 1.394 . S
C1502 C1503 1.516 . S
C1503 C1502 1.516 . S
C1503 C1504 1.502 . S
C1503 C1505 1.561 . S
C1503 C1506 1.526 . S
C1504 H1488 0.959 . S
C1504 H1489 0.959 . S
C1504 H1490 0.961 . S
C1504 C1503 1.502 . S
C1505 H1491 0.960 . S
C1505 H1492 0.961 . S
C1505 H1493 0.959 . S
C1505 C1503 1.561 . S
C1506 C1503 1.526 . S
C1506 C1507 1.396 . S
C1506 C1511 1.390 . S
C1507 C1501 1.465 . S
C1507 C1506 1.396 . S
C1507 C1508 1.399 . S
C1508 H1494 0.929 . S
C1508 C1507 1.399 . S
C1508 C1509 1.385 . S
C1509 H1495 0.931 . S
C1509 C1508 1.385 . S
C1509 C1510 1.389 . S
C1510 C1509 1.389 . S
C1510 C1511 1.387 . S
C1511 H1496 0.930 . S
C1511 C1506 1.390 . S
C1511 C1510 1.387 . S
H1512 C1524 0.930 . S
H1513 C1526 0.930 . S
H1514 C1527 0.930 . S
H1515 C1531 0.959 . S
H1516 C1531 0.959 . S
H1517 C1531 0.961 . S
H1518 C1532 0.960 . S
H1519 C1532 0.961 . S
H1520 C1532 0.959 . S
H1521 C1535 0.929 . S
H1522 C1536 0.931 . S
H1523 C1538 0.930 . S
C1524 H1512 0.930 . S
C1524 C1525 1.399 . S
C1524 C1529 1.399 . S
C1525 C1524 1.399 . S
C1525 C1526 1.376 . S
C1526 H1513 0.930 . S
C1526 C1525 1.376 . S
C1526 C1527 1.388 . S
C1527 H1514 0.930 . S
C1527 C1526 1.388 . S
C1527 C1528 1.390 . S
C1528 C1527 1.390 . S
C1528 C1529 1.394 . S
C1528 C1534 1.465 . S
C1529 C1524 1.399 . S
C1529 C1528 1.394 . S
C1529 C1530 1.516 . S
C1530 C1529 1.516 . S
C1530 C1531 1.502 . S
C1530 C1532 1.561 . S
C1530 C1533 1.526 . S
C1531 H1515 0.959 . S
C1531 H1516 0.959 . S
C1531 H1517 0.961 . S
C1531 C1530 1.502 . S
C1532 H1518 0.960 . S
C1532 H1519 0.961 . S
C1532 H1520 0.959 . S
C1532 C1530 1.561 . S
C1533 C1530 1.526 . S
C1533 C1534 1.396 . S
C1533 C1538 1.390 . S
C1534 C1528 1.465 . S
C1534 C1533 1.396 . S
C1534 C1535 1.399 . S
C1535 H1521 0.929 . S
C1535 C1534 1.399 . S
C1535 C1536 1.385 . S
C1536 H1522 0.931 . S
C1536 C1535 1.385 . S
C1536 C1537 1.389 . S
C1537 C1536 1.389 . S
C1537 C1538 1.387 . S
C1538 H1523 0.930 . S
C1538 C1533 1.390 . S
C1538 C1537 1.387 . S
H1539 C1551 0.930 . S
H1540 C1553 0.930 . S
H1541 C1554 0.930 . S
H1542 C1558 0.959 . S
H1543 C1558 0.959 . S
H1544 C1558 0.961 . S
H1545 C1559 0.960 . S
H1546 C1559 0.961 . S
H1547 C1559 0.959 . S
H1548 C1562 0.929 . S
H1549 C1563 0.931 . S
H1550 C1565 0.930 . S
C1551 H1539 0.930 . S
C1551 C1552 1.399 . S
C1551 C1556 1.399 . S
C1552 C1551 1.399 . S
C1552 C1553 1.376 . S
C1553 H1540 0.930 . S
C1553 C1552 1.376 . S
C1553 C1554 1.388 . S
C1554 H1541 0.930 . S
C1554 C1553 1.388 . S
C1554 C1555 1.390 . S
C1555 C1554 1.390 . S
C1555 C1556 1.394 . S
C1555 C1561 1.465 . S
C1556 C1551 1.399 . S
C1556 C1555 1.394 . S
C1556 C1557 1.516 . S
C1557 C1556 1.516 . S
C1557 C1558 1.502 . S
C1557 C1559 1.561 . S
C1557 C1560 1.526 . S
C1558 H1542 0.959 . S
C1558 H1543 0.959 . S
C1558 H1544 0.961 . S
C1558 C1557 1.502 . S
C1559 H1545 0.960 . S
C1559 H1546 0.961 . S
C1559 H1547 0.959 . S
C1559 C1557 1.561 . S
C1560 C1557 1.526 . S
C1560 C1561 1.396 . S
C1560 C1565 1.390 . S
C1561 C1555 1.465 . S
C1561 C1560 1.396 . S
C1561 C1562 1.399 . S
C1562 H1548 0.929 . S
C1562 C1561 1.399 . S
C1562 C1563 1.385 . S
C1563 H1549 0.931 . S
C1563 C1562 1.385 . S
C1563 C1564 1.389 . S
C1564 C1563 1.389 . S
C1564 C1565 1.387 . S
C1565 H1550 0.930 . S
C1565 C1560 1.390 . S
C1565 C1564 1.387 . S
H1566 C1578 0.930 . S
H1567 C1580 0.930 . S
H1568 C1581 0.930 . S
H1569 C1585 0.959 . S
H1570 C1585 0.959 . S
H1571 C1585 0.961 . S
H1572 C1586 0.960 . S
H1573 C1586 0.961 . S
H1574 C1586 0.959 . S
H1575 C1589 0.929 . S
H1576 C1590 0.931 . S
H1577 C1592 0.930 . S
C1578 H1566 0.930 . S
C1578 C1579 1.399 . S
C1578 C1583 1.399 . S
C1579 C1578 1.399 . S
C1579 C1580 1.376 . S
C1580 H1567 0.930 . S
C1580 C1579 1.376 . S
C1580 C1581 1.388 . S
C1581 H1568 0.930 . S
C1581 C1580 1.388 . S
C1581 C1582 1.390 . S
C1582 C1581 1.390 . S
C1582 C1583 1.394 . S
C1582 C1588 1.465 . S
C1583 C1578 1.399 . S
C1583 C1582 1.394 . S
C1583 C1584 1.516 . S
C1584 C1583 1.516 . S
C1584 C1585 1.502 . S
C1584 C1586 1.561 . S
C1584 C1587 1.526 . S
C1585 H1569 0.959 . S
C1585 H1570 0.959 . S
C1585 H1571 0.961 . S
C1585 C1584 1.502 . S
C1586 H1572 0.960 . S
C1586 H1573 0.961 . S
C1586 H1574 0.959 . S
C1586 C1584 1.561 . S
C1587 C1584 1.526 . S
C1587 C1588 1.396 . S
C1587 C1592 1.390 . S
C1588 C1582 1.465 . S
C1588 C1587 1.396 . S
C1588 C1589 1.399 . S
C1589 H1575 0.929 . S
C1589 C1588 1.399 . S
C1589 C1590 1.385 . S
C1590 H1576 0.931 . S
C1590 C1589 1.385 . S
C1590 C1591 1.389 . S
C1591 C1590 1.389 . S
C1591 C1592 1.387 . S
C1592 H1577 0.930 . S
C1592 C1587 1.390 . S
C1592 C1591 1.387 . S
H1593 C1605 0.930 . S
H1594 C1607 0.930 . S
H1595 C1608 0.930 . S
H1596 C1612 0.959 . S
H1597 C1612 0.959 . S
H1598 C1612 0.961 . S
H1599 C1613 0.960 . S
H1600 C1613 0.961 . S
H1601 C1613 0.959 . S
H1602 C1616 0.929 . S
H1603 C1617 0.931 . S
H1604 C1619 0.930 . S
C1605 H1593 0.930 . S
C1605 C1606 1.399 . S
C1605 C1610 1.399 . S
C1606 C1605 1.399 . S
C1606 C1607 1.376 . S
C1607 H1594 0.930 . S
C1607 C1606 1.376 . S
C1607 C1608 1.388 . S
C1608 H1595 0.930 . S
C1608 C1607 1.388 . S
C1608 C1609 1.390 . S
C1609 C1608 1.390 . S
C1609 C1610 1.394 . S
C1609 C1615 1.465 . S
C1610 C1605 1.399 . S
C1610 C1609 1.394 . S
C1610 C1611 1.516 . S
C1611 C1610 1.516 . S
C1611 C1612 1.502 . S
C1611 C1613 1.561 . S
C1611 C1614 1.526 . S
C1612 H1596 0.959 . S
C1612 H1597 0.959 . S
C1612 H1598 0.961 . S
C1612 C1611 1.502 . S
C1613 H1599 0.960 . S
C1613 H1600 0.961 . S
C1613 H1601 0.959 . S
C1613 C1611 1.561 . S
C1614 C1611 1.526 . S
C1614 C1615 1.396 . S
C1614 C1619 1.390 . S
C1615 C1609 1.465 . S
C1615 C1614 1.396 . S
C1615 C1616 1.399 . S
C1616 H1602 0.929 . S
C1616 C1615 1.399 . S
C1616 C1617 1.385 . S
C1617 H1603 0.931 . S
C1617 C1616 1.385 . S
C1617 C1618 1.389 . S
C1618 C1617 1.389 . S
C1618 C1619 1.387 . S
C1619 H1604 0.930 . S
C1619 C1614 1.390 . S
C1619 C1618 1.387 . S
H1620 C1632 0.930 . S
H1621 C1634 0.930 . S
H1622 C1635 0.930 . S
H1623 C1639 0.959 . S
H1624 C1639 0.959 . S
H1625 C1639 0.961 . S
H1626 C1640 0.960 . S
H1627 C1640 0.961 . S
H1628 C1640 0.959 . S
H1629 C1643 0.929 . S
H1630 C1644 0.931 . S
H1631 C1646 0.930 . S
C1632 H1620 0.930 . S
C1632 C1633 1.399 . S
C1632 C1637 1.399 . S
C1633 C1632 1.399 . S
C1633 C1634 1.376 . S
C1634 H1621 0.930 . S
C1634 C1633 1.376 . S
C1634 C1635 1.388 . S
C1635 H1622 0.930 . S
C1635 C1634 1.388 . S
C1635 C1636 1.390 . S
C1636 C1635 1.390 . S
C1636 C1637 1.394 . S
C1636 C1642 1.465 . S
C1637 C1632 1.399 . S
C1637 C1636 1.394 . S
C1637 C1638 1.516 . S
C1638 C1637 1.516 . S
C1638 C1639 1.502 . S
C1638 C1640 1.561 . S
C1638 C1641 1.526 . S
C1639 H1623 0.959 . S
C1639 H1624 0.959 . S
C1639 H1625 0.961 . S
C1639 C1638 1.502 . S
C1640 H1626 0.960 . S
C1640 H1627 0.961 . S
C1640 H1628 0.959 . S
C1640 C1638 1.561 . S
C1641 C1638 1.526 . S
C1641 C1642 1.396 . S
C1641 C1646 1.390 . S
C1642 C1636 1.465 . S
C1642 C1641 1.396 . S
C1642 C1643 1.399 . S
C1643 H1629 0.929 . S
C1643 C1642 1.399 . S
C1643 C1644 1.385 . S
C1644 H1630 0.931 . S
C1644 C1643 1.385 . S
C1644 C1645 1.389 . S
C1645 C1644 1.389 . S
C1645 C1646 1.387 . S
C1646 H1631 0.930 . S
C1646 C1641 1.390 . S
C1646 C1645 1.387 . S
H1647 C1659 0.930 . S
H1648 C1661 0.930 . S
H1649 C1662 0.930 . S
H1650 C1666 0.959 . S
H1651 C1666 0.959 . S
H1652 C1666 0.961 . S
H1653 C1667 0.960 . S
H1654 C1667 0.961 . S
H1655 C1667 0.959 . S
H1656 C1670 0.929 . S
H1657 C1671 0.931 . S
H1658 C1673 0.930 . S
C1659 H1647 0.930 . S
C1659 C1660 1.399 . S
C1659 C1664 1.399 . S
C1660 C1659 1.399 . S
C1660 C1661 1.376 . S
C1661 H1648 0.930 . S
C1661 C1660 1.376 . S
C1661 C1662 1.388 . S
C1662 H1649 0.930 . S
C1662 C1661 1.388 . S
C1662 C1663 1.390 . S
C1663 C1662 1.390 . S
C1663 C1664 1.394 . S
C1663 C1669 1.465 . S
C1664 C1659 1.399 . S
C1664 C1663 1.394 . S
C1664 C1665 1.516 . S
C1665 C1664 1.516 . S
C1665 C1666 1.502 . S
C1665 C1667 1.561 . S
C1665 C1668 1.526 . S
C1666 H1650 0.959 . S
C1666 H1651 0.959 . S
C1666 H1652 0.961 . S
C1666 C1665 1.502 . S
C1667 H1653 0.960 . S
C1667 H1654 0.961 . S
C1667 H1655 0.959 . S
C1667 C1665 1.561 . S
C1668 C1665 1.526 . S
C1668 C1669 1.396 . S
C1668 C1673 1.390 . S
C1669 C1663 1.465 . S
C1669 C1668 1.396 . S
C1669 C1670 1.399 . S
C1670 H1656 0.929 . S
C1670 C1669 1.399 . S
C1670 C1671 1.385 . S
C1671 H1657 0.931 . S
C1671 C1670 1.385 . S
C1671 C1672 1.389 . S
C1672 C1671 1.389 . S
C1672 C1673 1.387 . S
C1673 H1658 0.930 . S
C1673 C1668 1.390 . S
C1673 C1672 1.387 . S
H1674 C1686 0.930 . S
H1675 C1688 0.930 . S
H1676 C1689 0.930 . S
H1677 C1693 0.959 . S
H1678 C1693 0.959 . S
H1679 C1693 0.961 . S
H1680 C1694 0.960 . S
H1681 C1694 0.961 . S
H1682 C1694 0.959 . S
H1683 C1697 0.929 . S
H1684 C1698 0.931 . S
H1685 C1700 0.930 . S
C1686 H1674 0.930 . S
C1686 C1687 1.399 . S
C1686 C1691 1.399 . S
C1687 C1686 1.399 . S
C1687 C1688 1.376 . S
C1688 H1675 0.930 . S
C1688 C1687 1.376 . S
C1688 C1689 1.388 . S
C1689 H1676 0.930 . S
C1689 C1688 1.388 . S
C1689 C1690 1.390 . S
C1690 C1689 1.390 . S
C1690 C1691 1.394 . S
C1690 C1696 1.465 . S
C1691 C1686 1.399 . S
C1691 C1690 1.394 . S
C1691 C1692 1.516 . S
C1692 C1691 1.516 . S
C1692 C1693 1.502 . S
C1692 C1694 1.561 . S
C1692 C1695 1.526 . S
C1693 H1677 0.959 . S
C1693 H1678 0.959 . S
C1693 H1679 0.961 . S
C1693 C1692 1.502 . S
C1694 H1680 0.960 . S
C1694 H1681 0.961 . S
C1694 H1682 0.959 . S
C1694 C1692 1.561 . S
C1695 C1692 1.526 . S
C1695 C1696 1.396 . S
C1695 C1700 1.390 . S
C1696 C1690 1.465 . S
C1696 C1695 1.396 . S
C1696 C1697 1.399 . S
C1697 H1683 0.929 . S
C1697 C1696 1.399 . S
C1697 C1698 1.385 . S
C1698 H1684 0.931 . S
C1698 C1697 1.385 . S
C1698 C1699 1.389 . S
C1699 C1698 1.389 . S
C1699 C1700 1.387 . S
C1700 H1685 0.930 . S
C1700 C1695 1.390 . S
C1700 C1699 1.387 . S
H1701 C1713 0.930 . S
H1702 C1715 0.930 . S
H1703 C1716 0.930 . S
H1704 C1720 0.959 . S
H1705 C1720 0.959 . S
H1706 C1720 0.961 . S
H1707 C1721 0.960 . S
H1708 C1721 0.961 . S
H1709 C1721 0.959 . S
H1710 C1724 0.929 . S
H1711 C1725 0.931 . S
H1712 C1727 0.930 . S
C1713 H1701 0.930 . S
C1713 C1714 1.399 . S
C1713 C1718 1.399 . S
C1714 C1713 1.399 . S
C1714 C1715 1.376 . S
C1715 H1702 0.930 . S
C1715 C1714 1.376 . S
C1715 C1716 1.388 . S
C1716 H1703 0.930 . S
C1716 C1715 1.388 . S
C1716 C1717 1.390 . S
C1717 C1716 1.390 . S
C1717 C1718 1.394 . S
C1717 C1723 1.465 . S
C1718 C1713 1.399 . S
C1718 C1717 1.394 . S
C1718 C1719 1.516 . S
C1719 C1718 1.516 . S
C1719 C1720 1.502 . S
C1719 C1721 1.561 . S
C1719 C1722 1.526 . S
C1720 H1704 0.959 . S
C1720 H1705 0.959 . S
C1720 H1706 0.961 . S
C1720 C1719 1.502 . S
C1721 H1707 0.960 . S
C1721 H1708 0.961 . S
C1721 H1709 0.959 . S
C1721 C1719 1.561 . S
C1722 C1719 1.526 . S
C1722 C1723 1.396 . S
C1722 C1727 1.390 . S
C1723 C1717 1.465 . S
C1723 C1722 1.396 . S
C1723 C1724 1.399 . S
C1724 H1710 0.929 . S
C1724 C1723 1.399 . S
C1724 C1725 1.385 . S
C1725 H1711 0.931 . S
C1725 C1724 1.385 . S
C1725 C1726 1.389 . S
C1726 C1725 1.389 . S
C1726 C1727 1.387 . S
C1727 H1712 0.930 . S
C1727 C1722 1.390 . S
C1727 C1726 1.387 . S
H1728 C1740 0.930 . S
H1729 C1742 0.930 . S
H1730 C1743 0.930 . S
H1731 C1747 0.959 . S
H1732 C1747 0.959 . S
H1733 C1747 0.961 . S
H1734 C1748 0.960 . S
H1735 C1748 0.961 . S
H1736 C1748 0.959 . S
H1737 C1751 0.929 . S
H1738 C1752 0.931 . S
H1739 C1754 0.930 . S
C1740 H1728 0.930 . S
C1740 C1741 1.399 . S
C1740 C1745 1.399 . S
C1741 C1740 1.399 . S
C1741 C1742 1.376 . S
C1742 H1729 0.930 . S
C1742 C1741 1.376 . S
C1742 C1743 1.388 . S
C1743 H1730 0.930 . S
C1743 C1742 1.388 . S
C1743 C1744 1.390 . S
C1744 C1743 1.390 . S
C1744 C1745 1.394 . S
C1744 C1750 1.465 . S
C1745 C1740 1.399 . S
C1745 C1744 1.394 . S
C1745 C1746 1.516 . S
C1746 C1745 1.516 . S
C1746 C1747 1.502 . S
C1746 C1748 1.561 . S
C1746 C1749 1.526 . S
C1747 H1731 0.959 . S
C1747 H1732 0.959 . S
C1747 H1733 0.961 . S
C1747 C1746 1.502 . S
C1748 H1734 0.960 . S
C1748 H1735 0.961 . S
C1748 H1736 0.959 . S
C1748 C1746 1.561 . S
C1749 C1746 1.526 . S
C1749 C1750 1.396 . S
C1749 C1754 1.390 . S
C1750 C1744 1.465 . S
C1750 C1749 1.396 . S
C1750 C1751 1.399 . S
C1751 H1737 0.929 . S
C1751 C1750 1.399 . S
C1751 C1752 1.385 . S
C1752 H1738 0.931 . S
C1752 C1751 1.385 . S
C1752 C1753 1.389 . S
C1753 C1752 1.389 . S
C1753 C1754 1.387 . S
C1754 H1739 0.930 . S
C1754 C1749 1.390 . S
C1754 C1753 1.387 . S
H1755 C1767 0.930 . S
H1756 C1769 0.930 . S
H1757 C1770 0.930 . S
H1758 C1774 0.959 . S
H1759 C1774 0.959 . S
H1760 C1774 0.961 . S
H1761 C1775 0.960 . S
H1762 C1775 0.961 . S
H1763 C1775 0.959 . S
H1764 C1778 0.929 . S
H1765 C1779 0.931 . S
H1766 C1781 0.930 . S
C1767 H1755 0.930 . S
C1767 C1768 1.399 . S
C1767 C1772 1.399 . S
C1768 C1767 1.399 . S
C1768 C1769 1.376 . S
C1769 H1756 0.930 . S
C1769 C1768 1.376 . S
C1769 C1770 1.388 . S
C1770 H1757 0.930 . S
C1770 C1769 1.388 . S
C1770 C1771 1.390 . S
C1771 C1770 1.390 . S
C1771 C1772 1.394 . S
C1771 C1777 1.465 . S
C1772 C1767 1.399 . S
C1772 C1771 1.394 . S
C1772 C1773 1.516 . S
C1773 C1772 1.516 . S
C1773 C1774 1.502 . S
C1773 C1775 1.561 . S
C1773 C1776 1.526 . S
C1774 H1758 0.959 . S
C1774 H1759 0.959 . S
C1774 H1760 0.961 . S
C1774 C1773 1.502 . S
C1775 H1761 0.960 . S
C1775 H1762 0.961 . S
C1775 H1763 0.959 . S
C1775 C1773 1.561 . S
C1776 C1773 1.526 . S
C1776 C1777 1.396 . S
C1776 C1781 1.390 . S
C1777 C1771 1.465 . S
C1777 C1776 1.396 . S
C1777 C1778 1.399 . S
C1778 H1764 0.929 . S
C1778 C1777 1.399 . S
C1778 C1779 1.385 . S
C1779 H1765 0.931 . S
C1779 C1778 1.385 . S
C1779 C1780 1.389 . S
C1780 C1779 1.389 . S
C1780 C1781 1.387 . S
C1781 H1766 0.930 . S
C1781 C1776 1.390 . S
C1781 C1780 1.387 . S
H1782 C1794 0.930 . S
H1783 C1796 0.930 . S
H1784 C1797 0.930 . S
H1785 C1801 0.959 . S
H1786 C1801 0.959 . S
H1787 C1801 0.961 . S
H1788 C1802 0.960 . S
H1789 C1802 0.961 . S
H1790 C1802 0.959 . S
H1791 C1805 0.929 . S
H1792 C1806 0.931 . S
H1793 C1808 0.930 . S
C1794 H1782 0.930 . S
C1794 C1795 1.399 . S
C1794 C1799 1.399 . S
C1795 C1794 1.399 . S
C1795 C1796 1.376 . S
C1796 H1783 0.930 . S
C1796 C1795 1.376 . S
C1796 C1797 1.388 . S
C1797 H1784 0.930 . S
C1797 C1796 1.388 . S
C1797 C1798 1.390 . S
C1798 C1797 1.390 . S
C1798 C1799 1.394 . S
C1798 C1804 1.465 . S
C1799 C1794 1.399 . S
C1799 C1798 1.394 . S
C1799 C1800 1.516 . S
C1800 C1799 1.516 . S
C1800 C1801 1.502 . S
C1800 C1802 1.561 . S
C1800 C1803 1.526 . S
C1801 H1785 0.959 . S
C1801 H1786 0.959 . S
C1801 H1787 0.961 . S
C1801 C1800 1.502 . S
C1802 H1788 0.960 . S
C1802 H1789 0.961 . S
C1802 H1790 0.959 . S
C1802 C1800 1.561 . S
C1803 C1800 1.526 . S
C1803 C1804 1.396 . S
C1803 C1808 1.390 . S
C1804 C1798 1.465 . S
C1804 C1803 1.396 . S
C1804 C1805 1.399 . S
C1805 H1791 0.929 . S
C1805 C1804 1.399 . S
C1805 C1806 1.385 . S
C1806 H1792 0.931 . S
C1806 C1805 1.385 . S
C1806 C1807 1.389 . S
C1807 C1806 1.389 . S
C1807 C1808 1.387 . S
C1808 H1793 0.930 . S
C1808 C1803 1.390 . S
C1808 C1807 1.387 . S
C607 N335 1.764 . S
C619 N5 1.808 . S
C634 N38 1.743 . S
C646 N368 1.788 . S
C661 N302 1.742 . S
C673 N71 1.733 . S
C688 N467 1.790 . S
C700 N104 1.818 . S
C715 N137 1.772 . S
C727 N401 1.812 . S
C742 N434 1.755 . S
C754 N170 1.730 . S
C769 C193 1.753 . S
C781 C490 1.788 . S
C796 C424 1.764 . S
C808 C127 1.782 . S
C823 C457 1.787 . S
C835 C160 1.757 . S
C850 C61 1.781 . S
C862 C358 1.765 . S
C877 C94 1.787 . S
C889 C391 1.757 . S
C904 C28 1.777 . S
C916 C325 1.770 . S
C931 N533 1.810 . S
C943 N203 1.814 . S
C958 N566 1.755 . S
C970 N236 1.801 . S
C985 N500 1.730 . S
C997 N269 1.761 . S
C1012 C259 1.747 . S
C1024 C556 1.789 . S
C1039 C589 1.789 . S
C1051 C292 1.750 . S
C1066 C226 1.779 . S
C1078 C523 1.750 . S
C1093 C17 1.319 . S
C1105 C578 1.296 . S
C1120 C50 1.326 . S
C1132 C512 1.302 . S
C1147 C83 1.320 . S
C1159 C545 1.317 . S
C1174 C248 1.326 . S
C1186 C116 1.302 . S
C1201 C149 1.326 . S
C1213 C281 1.301 . S
C1228 C182 1.316 . S
C1240 C215 1.296 . S
C1255 C314 1.304 . S
C1267 C446 1.303 . S
C1282 C347 1.295 . S
C1294 C479 1.320 . S
C1309 C380 1.323 . S
C1321 C413 1.297 . S
C1336 N80 1.447 1_545 S
C1348 C8 1.488 . S
C1363 C41 1.425 . S
C1375 N14 1.498 . S
C1390 N47 1.456 . S
C1402 C74 1.475 . S
C1417 N146 1.461 1_455 S
C1429 C107 1.468 . S
C1444 C140 1.433 . S
C1456 N179 1.488 . S
C1471 N113 1.451 . S
C1483 C173 1.485 . S
C1498 C206 1.466 . S
C1510 N278 1.465 . S
C1525 N212 1.455 . S
C1537 C239 1.476 . S
C1552 C272 1.424 . S
C1564 N245 1.497 . S
C1579 C305 1.423 . S
C1591 N344 1.497 . S
C1606 N377 1.457 . S
C1618 C338 1.474 . S
C1633 C371 1.431 . S
C1645 N311 1.492 . S
C1660 C404 1.423 . S
C1672 N476 1.497 . S
C1687 N410 1.453 . S
C1699 C437 1.479 . S
C1714 C470 1.424 . S
C1726 N443 1.497 . S
C1741 C503 1.475 . S
C1753 N542 1.456 . S
C1768 N575 1.488 . S
C1780 C536 1.438 . S
C1795 N509 1.489 . S
C1807 C569 1.436 . S
