# Generated by pormake.
# Topology fni, (5)-cn, num edge types: 1
# Building blocks:
#     Node 0, Type 0, BuildingBlock: BEQFEK_clean_sbu_0, # of connection points: 5
#     Node 1, Type 0, BuildingBlock: BEQFEK_clean_sbu_0, # of connection points: 5
#     Node 2, Type 0, BuildingBlock: BEQFEK_clean_sbu_0, # of connection points: 5
#     Node 3, Type 0, BuildingBlock: BEQFEK_clean_sbu_0, # of connection points: 5
#     Node 4, Type 0, BuildingBlock: BEQFEK_clean_sbu_0, # of connection points: 5
#     Node 5, Type 0, BuildingBlock: BEQFEK_clean_sbu_0, # of connection points: 5
#     Node 6, Type 0, BuildingBlock: BEQFEK_clean_sbu_0, # of connection points: 5
#     Node 7, Type 0, BuildingBlock: BEQFEK_clean_sbu_0, # of connection points: 5
#     Edge 8, Type (0, 0), BuildingBlock: UVAHIK_clean_linker_0, # of connection points: 2
#     Edge 9, Type (0, 0), BuildingBlock: UVAHIK_clean_linker_0, # of connection points: 2
#     Edge 10, Type (0, 0), BuildingBlock: UVAHIK_clean_linker_0, # of connection points: 2
#     Edge 11, Type (0, 0), BuildingBlock: UVAHIK_clean_linker_0, # of connection points: 2
#     Edge 12, Type (0, 0), BuildingBlock: UVAHIK_clean_linker_0, # of connection points: 2
#     Edge 13, Type (0, 0), BuildingBlock: UVAHIK_clean_linker_0, # of connection points: 2
#     Edge 14, Type (0, 0), BuildingBlock: UVAHIK_clean_linker_0, # of connection points: 2
#     Edge 15, Type (0, 0), BuildingBlock: UVAHIK_clean_linker_0, # of connection points: 2
#     Edge 16, Type (0, 0), BuildingBlock: UVAHIK_clean_linker_0, # of connection points: 2
#     Edge 17, Type (0, 0), BuildingBlock: UVAHIK_clean_linker_0, # of connection points: 2
#     Edge 18, Type (0, 0), BuildingBlock: UVAHIK_clean_linker_0, # of connection points: 2
#     Edge 19, Type (0, 0), BuildingBlock: UVAHIK_clean_linker_0, # of connection points: 2
#     Edge 20, Type (0, 0), BuildingBlock: UVAHIK_clean_linker_0, # of connection points: 2
#     Edge 21, Type (0, 0), BuildingBlock: UVAHIK_clean_linker_0, # of connection points: 2
#     Edge 22, Type (0, 0), BuildingBlock: UVAHIK_clean_linker_0, # of connection points: 2
#     Edge 23, Type (0, 0), BuildingBlock: UVAHIK_clean_linker_0, # of connection points: 2
#     Edge 24, Type (0, 0), BuildingBlock: UVAHIK_clean_linker_0, # of connection points: 2
#     Edge 25, Type (0, 0), BuildingBlock: UVAHIK_clean_linker_0, # of connection points: 2
#     Edge 26, Type (0, 0), BuildingBlock: UVAHIK_clean_linker_0, # of connection points: 2
#     Edge 27, Type (0, 0), BuildingBlock: UVAHIK_clean_linker_0, # of connection points: 2
# Relax obj value: 0.147
# Max RMSD: 0.209
# Mean RMSD: 0.177
data_MOF--net-fni--node1-BEQFEK_clean_sbu_0--edge1-UVAHIK_clean_linker_0
_symmetry_space_group_name_H-M    P1
_symmetry_Int_Tables_number       1
_symmetry_cell_setting            triclinic
loop_
_symmetry_equiv_pos_as_xyz
'x, y, z'
_cell_length_a     65.717694
_cell_length_b     69.650668
_cell_length_c     23.322775
_cell_angle_alpha  91.211915
_cell_angle_beta   90.345915
_cell_angle_gamma 90.018973
loop_
_atom_site_label
_atom_site_type_symbol
_atom_site_fract_x
_atom_site_fract_y
_atom_site_fract_z
_atom_type_partial_charge
Co0 Co 0.36704 0.39411 0.08416 0.0
Co1 Co 0.38005 0.38588 0.95768 0.0
C2 C 0.33648 0.39417 0.99008 0.0
O3 O 0.34068 0.39685 0.04303 0.0
O4 O 0.35024 0.38963 0.95416 0.0
C5 C 0.3557 0.41409 0.19313 0.0
O6 O 0.34922 0.42908 0.16507 0.0
C7 C 0.38426 0.39462 0.83564 0.0
C8 C 0.40663 0.37277 0.80736 0.0
C9 C 0.39466 0.3877 0.78797 0.0
N10 N 0.38997 0.38435 0.88121 0.0
N11 N 0.40345 0.37141 0.86407 0.0
C12 C 0.36832 0.40999 0.83731 0.0
H13 H 0.35633 0.40673 0.8048 0.0
H14 H 0.36151 0.4115 0.88038 0.0
H15 H 0.37521 0.424 0.82697 0.0
C16 C 0.4003 0.42318 0.0759 0.0
N17 N 0.38796 0.4095 0.05307 0.0
N18 N 0.39308 0.40627 -0.00075 0.0
C19 C 0.40851 0.41806 0.98573 0.0
C20 C 0.41365 0.42913 0.03392 0.0
C21 C 0.40071 0.429 0.13803 0.0
H22 H 0.39822 0.41629 0.16489 0.0
H23 H 0.38836 0.43952 0.14648 0.0
H24 H 0.41545 0.43573 0.15036 0.0
O25 O 0.37575 0.36704 0.08246 0.0
O26 O 0.38588 0.36079 0.99356 0.0
H27 H 0.42457 0.40509 0.91535 0.0
H28 H 0.42912 0.43064 0.92413 0.0
C29 C 0.41759 0.41912 0.92715 0.0
H30 H 0.40539 0.42215 0.89579 0.0
H31 H 0.41016 0.36139 0.89088 0.0
O32 O 0.36308 0.39972 0.16611 0.0
C33 C 0.38308 0.35556 0.04487 0.0
Co34 Co 0.6099 0.88158 0.30543 0.0
Co35 Co 0.62517 0.88931 0.18182 0.0
C36 C 0.608 0.85086 0.21601 0.0
O37 O 0.60447 0.85641 0.26736 0.0
O38 O 0.61592 0.86212 0.18002 0.0
C39 C 0.59688 0.86755 0.41503 0.0
O40 O 0.60149 0.8504 0.39446 0.0
C41 C 0.61976 0.89051 0.05874 0.0
C42 C 0.64458 0.90955 0.03113 0.0
C43 C 0.62829 0.89866 0.011 0.0
N44 N 0.63055 0.89615 0.10509 0.0
N45 N 0.64543 0.90749 0.08845 0.0
C46 C 0.60053 0.87906 0.06109 0.0
H47 H 0.59364 0.88028 0.10433 0.0
H48 H 0.58947 0.88401 0.02842 0.0
H49 H 0.60403 0.86377 0.05158 0.0
C50 C 0.58366 0.91473 0.2793 0.0
N51 N 0.59807 0.90186 0.26451 0.0
N52 N 0.60483 0.90565 0.21303 0.0
C53 C 0.59507 0.92128 0.19358 0.0
C54 C 0.58128 0.92746 0.23488 0.0
C55 C 0.57344 0.91544 0.33648 0.0
H56 H 0.58512 0.91768 0.3705 0.0
H57 H 0.56587 0.90149 0.34399 0.0
H58 H 0.5621 0.92719 0.33973 0.0
O59 O 0.63962 0.88562 0.31442 0.0
O60 O 0.65077 0.89146 0.22687 0.0
H61 H 0.61504 0.93264 0.13055 0.0
H62 H 0.58995 0.94337 0.13079 0.0
C63 C 0.59856 0.92984 0.13614 0.0
H64 H 0.59361 0.91947 0.10217 0.0
H65 H 0.65601 0.91396 0.11622 0.0
O66 O 0.59891 0.88205 0.38354 0.0
C67 C 0.65404 0.88946 0.28029 0.0
Co68 Co 0.11989 0.1046 0.46831 0.0
Co69 Co 0.13297 0.0959 0.59383 0.0
C70 C 0.11465 0.13399 0.56119 0.0
O71 O 0.11247 0.12871 0.50893 0.0
O72 O 0.12249 0.12285 0.59797 0.0
C73 C 0.11024 0.12029 0.35886 0.0
O74 O 0.1166 0.13662 0.38183 0.0
C75 C 0.12955 0.0935 0.71811 0.0
C76 C 0.15078 0.06998 0.73868 0.0
C77 C 0.13704 0.0828 0.76291 0.0
N78 N 0.13815 0.08709 0.66932 0.0
N79 N 0.15086 0.07305 0.68181 0.0
C80 C 0.11593 0.11068 0.72145 0.0
H81 H 0.12508 0.12347 0.71077 0.0
H82 H 0.10349 0.10911 0.68932 0.0
H83 H 0.10944 0.11319 0.7646 0.0
C84 C 0.09507 0.06986 0.48483 0.0
N85 N 0.10862 0.08302 0.50392 0.0
N86 N 0.11337 0.0796 0.55754 0.0
C87 C 0.10248 0.06438 0.57498 0.0
C88 C 0.09054 0.05766 0.52933 0.0
C89 C 0.08764 0.06847 0.42406 0.0
H90 H 0.10073 0.06975 0.39462 0.0
H91 H 0.07705 0.08053 0.41585 0.0
H92 H 0.07983 0.05465 0.41456 0.0
O93 O 0.14963 0.10248 0.46376 0.0
O94 O 0.15939 0.09505 0.55175 0.0
H95 H 0.11699 0.05037 0.64486 0.0
H96 H 0.08965 0.04736 0.64284 0.0
C97 C 0.10231 0.05752 0.63537 0.0
H98 H 0.1006 0.06996 0.66531 0.0
H99 H 0.15954 0.06554 0.65149 0.0
O100 O 0.10994 0.10537 0.3891 0.0
C101 C 0.16354 0.0984 0.4996 0.0
Co102 Co 0.87978 0.60631 0.7176 0.0
Co103 Co 0.89369 0.61855 0.84121 0.0
C104 C 0.84946 0.61025 0.80922 0.0
O105 O 0.85323 0.60562 0.75724 0.0
O106 O 0.86363 0.61559 0.84348 0.0
C107 C 0.86139 0.59824 0.6064 0.0
O108 O 0.84452 0.60513 0.62866 0.0
C109 C 0.89408 0.61155 0.9625 0.0
C110 C 0.91697 0.63189 -0.00243 0.0
C111 C 0.90293 0.61812 0.01317 0.0
N112 N 0.90223 0.62112 0.91895 0.0
N113 N 0.91601 0.63323 0.93998 0.0
C114 C 0.87904 0.59554 0.9549 0.0
H115 H 0.88036 0.58886 0.91145 0.0
H116 H 0.88146 0.58449 0.98788 0.0
H117 H 0.86343 0.60131 0.95979 0.0
C118 C 0.90892 0.57501 0.73856 0.0
N119 N 0.8992 0.59114 0.75538 0.0
N120 N 0.90584 0.59656 0.80649 0.0
C121 C 0.92032 0.58417 0.82355 0.0
C122 C 0.92262 0.57005 0.78115 0.0
C123 C 0.90579 0.56523 0.68141 0.0
H124 H 0.91037 0.57513 0.64716 0.0
H125 H 0.88939 0.56192 0.67526 0.0
H126 H 0.91481 0.55183 0.67708 0.0
O127 O 0.88968 0.63308 0.71246 0.0
O128 O 0.90059 0.64212 0.79916 0.0
H129 H 0.93668 0.60047 0.88762 0.0
H130 H 0.94434 0.57552 0.88167 0.0
C131 C 0.93126 0.58555 0.87993 0.0
H132 H 0.92056 0.58198 0.91468 0.0
H133 H 0.9245 0.64257 0.91521 0.0
O134 O 0.87722 0.59706 0.63758 0.0
C135 C 0.89765 0.64558 0.74633 0.0
Co136 Co 0.40943 0.13084 0.30933 0.0
Co137 Co 0.39474 0.1192 0.18583 0.0
C138 C 0.40515 0.16035 0.22199 0.0
O139 O 0.41069 0.15611 0.27256 0.0
O140 O 0.39853 0.14754 0.18686 0.0
C141 C 0.41898 0.14752 0.42028 0.0
O142 O 0.41169 0.16344 0.39901 0.0
C143 C 0.4021 0.11701 0.063 0.0
C144 C 0.37565 0.10049 0.03021 0.0
C145 C 0.39297 0.1101 0.01285 0.0
N146 N 0.39075 0.11167 0.10767 0.0
N147 N 0.37505 0.10164 0.0879 0.0
C148 C 0.42047 0.12969 0.06857 0.0
H149 H 0.41939 0.14166 0.03802 0.0
H150 H 0.42227 0.13543 0.11288 0.0
H151 H 0.43432 0.12125 0.05835 0.0
C152 C 0.44025 0.10106 0.28233 0.0
N153 N 0.42431 0.11206 0.26749 0.0
N154 N 0.41771 0.10657 0.21638 0.0
C155 C 0.42894 0.09156 0.19757 0.0
C156 C 0.44369 0.08769 0.23855 0.0
C157 C 0.45063 0.10224 0.33958 0.0
H158 H 0.45542 0.11728 0.34874 0.0
H159 H 0.46405 0.09263 0.34154 0.0
H160 H 0.43968 0.09813 0.37323 0.0
O161 O 0.38056 0.12282 0.31691 0.0
O162 O 0.37024 0.11276 0.23052 0.0
H163 H 0.40865 0.07791 0.137 0.0
H164 H 0.43367 0.06704 0.14014 0.0
C165 C 0.42517 0.08078 0.14231 0.0
H166 H 0.43018 0.08968 0.10623 0.0
H167 H 0.36363 0.09608 0.11361 0.0
O168 O 0.42003 0.13254 0.38847 0.0
C169 C 0.36693 0.11567 0.28377 0.0
Co170 Co 0.89291 0.87711 0.5711 0.0
Co171 Co 0.90238 0.86554 0.4442 0.0
C172 C 0.86038 0.87801 0.48315 0.0
O173 O 0.86586 0.88113 0.53497 0.0
O174 O 0.87298 0.87189 0.4458 0.0
C175 C 0.87765 0.8927 0.67946 0.0
O176 O 0.86002 0.89471 0.65349 0.0
C177 C 0.9026 0.87435 0.32402 0.0
C178 C 0.92168 0.85152 0.28509 0.0
C179 C 0.91005 0.86749 0.2721 0.0
N180 N 0.90927 0.86289 0.36562 0.0
N181 N 0.92071 0.84926 0.34228 0.0
C182 C 0.89051 0.89225 0.335 0.0
H183 H 0.89306 0.89769 0.37953 0.0
H184 H 0.8947 0.9035 0.30418 0.0
H185 H 0.8741 0.889 0.32959 0.0
C186 C 0.92632 0.90449 0.5506 0.0
N187 N 0.91358 0.89045 0.53265 0.0
N188 N 0.91794 0.88549 0.4794 0.0
C189 C 0.93364 0.89629 0.46168 0.0
C190 C 0.93943 0.90865 0.50625 0.0
C191 C 0.92565 0.91389 0.60885 0.0
H192 H 0.93054 0.90341 0.64132 0.0
H193 H 0.90979 0.91823 0.61873 0.0
H194 H 0.93566 0.92671 0.61175 0.0
O195 O 0.89945 0.84938 0.57248 0.0
O196 O 0.90706 0.84081 0.48293 0.0
H197 H 0.94562 0.87864 0.39349 0.0
H198 H 0.95874 0.90128 0.40419 0.0
C199 C 0.94367 0.89408 0.40449 0.0
H200 H 0.93385 0.90058 0.37132 0.0
H201 H 0.92774 0.8384 0.36526 0.0
O202 O 0.89267 0.88582 0.65189 0.0
C203 C 0.90498 0.83673 0.53557 0.0
Co204 Co 0.08832 0.36358 0.81069 0.0
Co205 Co 0.10179 0.37173 0.68581 0.0
C206 C 0.09013 0.33199 0.72378 0.0
O207 O 0.0861 0.33766 0.77471 0.0
O208 O 0.0963 0.34368 0.68639 0.0
C209 C 0.07428 0.34877 0.91909 0.0
O210 O 0.07774 0.33153 0.89734 0.0
C211 C 0.09551 0.3716 0.56303 0.0
C212 C 0.11749 0.39324 0.53364 0.0
C213 C 0.1025 0.38059 0.51463 0.0
N214 N 0.10591 0.37852 0.60858 0.0
N215 N 0.11913 0.39138 0.59087 0.0
C216 C 0.07789 0.35808 0.56712 0.0
H217 H 0.07094 0.3592 0.61031 0.0
H218 H 0.06623 0.36119 0.53395 0.0
H219 H 0.08336 0.34317 0.56009 0.0
C220 C 0.05867 0.39405 0.78425 0.0
N221 N 0.07378 0.38202 0.76875 0.0
N222 N 0.07972 0.38599 0.71661 0.0
C223 C 0.06873 0.40091 0.69743 0.0
C224 C 0.05498 0.40643 0.73959 0.0
C225 C 0.04953 0.39488 0.84288 0.0
H226 H 0.04334 0.38056 0.8533 0.0
H227 H 0.03728 0.40577 0.84642 0.0
H228 H 0.06161 0.39849 0.87475 0.0
O229 O 0.11738 0.37113 0.81826 0.0
O230 O 0.12702 0.37737 0.72956 0.0
H231 H 0.06157 0.42257 0.63489 0.0
H232 H 0.06821 0.39928 0.60591 0.0
C233 C 0.07165 0.40997 0.64046 0.0
H234 H 0.08775 0.41448 0.63615 0.0
H235 H 0.12902 0.39908 0.61792 0.0
O236 O 0.07759 0.36341 0.88907 0.0
C237 C 0.13092 0.37633 0.78295 0.0
Co238 Co 0.6012 0.61958 0.97024 0.0
Co239 Co 0.61099 0.6126 0.09902 0.0
C240 C 0.59848 0.65144 0.05642 0.0
O241 O 0.59635 0.64536 0.0049 0.0
O242 O 0.60416 0.64025 0.09586 0.0
C243 C 0.57856 0.62818 0.86624 0.0
O244 O 0.56431 0.63546 0.89944 0.0
C245 C 0.59988 0.61334 0.21877 0.0
C246 C 0.62278 0.5946 0.25882 0.0
C247 C 0.60597 0.606 0.27083 0.0
N248 N 0.61252 0.60672 0.17797 0.0
N249 N 0.62622 0.59553 0.20204 0.0
C250 C 0.58141 0.62521 0.20674 0.0
H251 H 0.57626 0.62288 0.16172 0.0
H252 H 0.5689 0.62162 0.23644 0.0
H253 H 0.58525 0.64061 0.21301 0.0
C254 C 0.57212 0.58757 0.98971 0.0
N255 N 0.58645 0.60021 0.00776 0.0
N256 N 0.59057 0.59728 0.06221 0.0
C257 C 0.5788 0.58283 0.08065 0.0
C258 C 0.56671 0.57631 0.03547 0.0
C259 C 0.56361 0.58651 0.93009 0.0
H260 H 0.57619 0.58678 0.89864 0.0
H261 H 0.5538 0.5992 0.92315 0.0
H262 H 0.55433 0.57339 0.92265 0.0
O263 O 0.63051 0.61357 0.97241 0.0
O264 O 0.6381 0.6082 0.06353 0.0
H265 H 0.59592 0.57253 0.15215 0.0
H266 H 0.57171 0.5607 0.14127 0.0
C267 C 0.57982 0.57465 0.13942 0.0
H268 H 0.5727 0.58484 0.17044 0.0
H269 H 0.63785 0.58851 0.17973 0.0
O270 O 0.59429 0.62068 0.88828 0.0
C271 C 0.64334 0.60928 0.01117 0.0
C272 C 0.55398 0.54405 0.00406 0.0
C273 C 0.55133 0.56098 0.03658 0.0
C274 C 0.53954 0.52936 0.0062 0.0
C275 C 0.49598 0.5121 0.09294 0.0
H276 H 0.48385 0.48231 0.95458 0.0
C277 C 0.42606 0.46181 0.06367 0.0
C278 C 0.43008 0.44355 0.03972 0.0
C279 C 0.44136 0.47575 0.06657 0.0
C280 C 0.48722 0.49043 0.99362 0.0
H281 H 0.53189 0.57614 0.09668 0.0
H282 H 0.50614 0.55088 0.09892 0.0
H283 H 0.50928 0.50771 0.952 0.0
H284 H 0.45335 0.42512 0.00299 0.0
H285 H 0.47995 0.44972 0.00622 0.0
H286 H 0.47326 0.49509 0.13373 0.0
C287 C 0.51953 0.54857 0.07286 0.0
C288 C 0.50186 0.50494 0.99231 0.0
C289 C 0.53413 0.56312 0.07128 0.0
C290 C 0.44977 0.43926 0.02031 0.0
C291 C 0.46496 0.45327 0.02234 0.0
C292 C 0.4811 0.49777 0.09396 0.0
C293 C 0.52206 0.53146 0.04043 0.0
C294 C 0.50648 0.51595 0.04198 0.0
C295 C 0.46084 0.47169 0.04499 0.0
C296 C 0.47665 0.48678 0.04435 0.0
H297 H 0.56735 0.54211 0.97761 0.0
H298 H 0.54225 0.51628 0.98154 0.0
H299 H 0.49937 0.52 0.13231 0.0
H300 H 0.41098 0.46543 0.07889 0.0
H301 H 0.43781 0.48988 0.08404 0.0
C302 C 0.47916 0.07502 0.23884 0.0
C303 C 0.45815 0.07156 0.23869 0.0
C304 C 0.49285 0.05966 0.23842 0.0
C305 C 0.49698 0.00864 0.27388 0.0
H306 H 0.54274 0.00844 0.16964 0.0
C307 C 0.54641 0.94137 0.23777 0.0
C308 C 0.56745 0.94407 0.23293 0.0
C309 C 0.53327 0.95712 0.23789 0.0
C310 C 0.53019 0.00838 0.19952 0.0
H311 H 0.43474 0.04974 0.23908 0.0
H312 H 0.45863 0.02277 0.23831 0.0
H313 H 0.51956 0.03581 0.17227 0.0
H314 H 0.59147 0.96503 0.22455 0.0
H315 H 0.56857 0.99274 0.2255 0.0
H316 H 0.50763 0.98135 0.30162 0.0
C317 C 0.46459 0.03728 0.23882 0.0
C318 C 0.51691 0.02404 0.20096 0.0
C319 C 0.45094 0.05263 0.23886 0.0
C320 C 0.57523 0.96269 0.2278 0.0
C321 C 0.56211 0.97848 0.22818 0.0
C322 C 0.51031 0.99303 0.27269 0.0
C323 C 0.48569 0.04063 0.23844 0.0
C324 C 0.50011 0.02427 0.23792 0.0
C325 C 0.54097 0.97588 0.23354 0.0
C326 C 0.527 0.99265 0.23525 0.0
H327 H 0.48495 0.08959 0.23892 0.0
H328 H 0.50902 0.06266 0.23873 0.0
H329 H 0.48433 0.00855 0.30343 0.0
H330 H 0.54015 0.92706 0.24146 0.0
H331 H 0.51707 0.95457 0.24107 0.0
C332 C 0.97216 0.92125 0.54611 0.0
C333 C 0.95606 0.92281 0.50688 0.0
C334 C 0.98772 0.93492 0.54762 0.0
C335 C 0.00965 0.97508 0.46389 0.0
H336 H 0.03358 0.98961 0.61097 0.0
C337 C 0.05623 0.04431 0.50468 0.0
C338 C 0.07567 0.0417 0.52853 0.0
C339 C 0.04238 0.02913 0.50169 0.0
C340 C 0.0271 0.98555 0.56964 0.0
H341 H 0.94324 0.93957 0.43863 0.0
H342 H 0.96984 0.96403 0.44263 0.0
H343 H 0.00774 0.96448 0.60601 0.0
H344 H 0.09585 0.02131 0.56866 0.0
H345 H 0.07116 0.99485 0.56569 0.0
H346 H 0.02846 0.99692 0.42833 0.0
C347 C 0.97101 0.95201 0.47112 0.0
C348 C 0.01238 0.97108 0.56658 0.0
C349 C 0.95567 0.93812 0.46898 0.0
C350 C 0.08086 0.02373 0.55063 0.0
C351 C 0.06684 0.00863 0.54872 0.0
C352 C 0.02406 0.9898 0.46721 0.0
C353 C 0.98726 0.95063 0.51054 0.0
C354 C 0.00339 0.96568 0.51365 0.0
C355 C 0.04758 0.01117 0.52364 0.0
C356 C 0.03285 0.99518 0.5201 0.0
H357 H 0.97274 0.90939 0.57539 0.0
H358 H 0.00014 0.93309 0.5777 0.0
H359 H 0.00349 0.97107 0.42219 0.0
H360 H 0.05173 0.05812 0.48828 0.0
H361 H 0.02751 0.03147 0.48278 0.0
C362 C 0.02041 0.42091 0.74692 0.0
C363 C 0.04144 0.42327 0.74037 0.0
C364 C 0.00767 0.43694 0.75036 0.0
C365 C 0.00786 0.48812 0.78974 0.0
H366 H 0.95707 0.48939 0.70444 0.0
C367 C 0.95755 0.55609 0.78094 0.0
C368 C 0.93642 0.55341 0.7808 0.0
C369 C 0.97058 0.54027 0.77667 0.0
C370 C 0.97106 0.48916 0.72921 0.0
H371 H 0.06584 0.44387 0.73221 0.0
H372 H 0.04355 0.47203 0.73825 0.0
H373 H 0.97938 0.46158 0.69447 0.0
H374 H 0.91212 0.53248 0.7776 0.0
H375 H 0.93479 0.50471 0.77163 0.0
H376 H -0.00055 0.51553 0.82524 0.0
C377 C 0.0369 0.45785 0.74084 0.0
C378 C 0.98386 0.47326 0.72328 0.0
C379 C 0.0496 0.44181 0.73693 0.0
C380 C 0.92843 0.53477 0.77753 0.0
C381 C 0.94141 0.51895 0.77365 0.0
C382 C 0.99498 0.50397 0.79602 0.0
C383 C 0.01581 0.45557 0.74785 0.0
C384 C 0.00237 0.47257 0.7535 0.0
C385 C 0.96265 0.52151 0.77247 0.0
C386 C 0.97641 0.50468 0.76589 0.0
H387 H 0.0139 0.40668 0.74984 0.0
H388 H 0.9915 0.43477 0.75628 0.0
H389 H 0.02193 0.48785 0.81412 0.0
H390 H 0.96394 0.57043 0.78291 0.0
H391 H 0.98682 0.54279 0.77517 0.0
C392 C 0.35882 0.39665 0.28421 0.0
C393 C 0.35677 0.4142 0.25626 0.0
C394 C 0.36291 0.39627 0.34268 0.0
C395 C 0.36175 0.42318 0.4785 0.0
H396 H 0.40461 0.38738 0.51805 0.0
C397 C 0.39049 0.41233 0.71171 0.0
C398 C 0.39202 0.39304 0.72754 0.0
C399 C 0.38721 0.41702 0.65441 0.0
C400 C 0.39258 0.39739 0.50773 0.0
H401 H 0.35626 0.44516 0.26804 0.0
H402 H 0.36351 0.44448 0.37151 0.0
H403 H 0.39588 0.39206 0.4178 0.0
H404 H 0.39205 0.36356 0.69604 0.0
H405 H 0.38638 0.37167 0.59613 0.0
H406 H 0.35826 0.42817 0.56897 0.0
C407 C 0.36193 0.43105 0.34763 0.0
C408 C 0.38758 0.40007 0.4504 0.0
C409 C 0.35775 0.43143 0.28864 0.0
C410 C 0.3909 0.37855 0.68497 0.0
C411 C 0.3877 0.38321 0.62782 0.0
C412 C 0.36678 0.42048 0.53618 0.0
C413 C 0.36516 0.41343 0.37465 0.0
C414 C 0.37175 0.41256 0.43527 0.0
C415 C 0.38571 0.40248 0.61198 0.0
C416 C 0.38188 0.40716 0.55126 0.0
H417 H 0.35782 0.38312 0.26055 0.0
H418 H 0.36477 0.38248 0.36272 0.0
H419 H 0.3495 0.4329 0.46789 0.0
H420 H 0.3922 0.42384 0.74318 0.0
H421 H 0.38612 0.432 0.64319 0.0
C422 C 0.61688 0.87799 0.92849 0.0
C423 C 0.62163 0.89629 0.95093 0.0
C424 C 0.61064 0.87566 0.87153 0.0
C425 C 0.61249 0.89996 0.73248 0.0
H426 H 0.57377 0.86032 0.68698 0.0
C427 C 0.58902 0.88931 0.49828 0.0
C428 C 0.59254 0.87061 0.4766 0.0
C429 C 0.58845 0.89293 0.55721 0.0
C430 C 0.58456 0.87145 0.69925 0.0
H431 H 0.62364 0.92652 0.93226 0.0
H432 H 0.61214 0.92263 0.83286 0.0
H433 H 0.58097 0.86636 0.78873 0.0
H434 H 0.59647 0.84082 0.49963 0.0
H435 H 0.5954 0.84721 0.60303 0.0
H436 H 0.61605 0.90504 0.64308 0.0
C437 C 0.61357 0.90998 0.85878 0.0
C438 C 0.58879 0.87487 0.75737 0.0
C439 C 0.6201 0.91226 0.91563 0.0
C440 C 0.59388 0.85539 0.51502 0.0
C441 C 0.59318 0.85902 0.57417 0.0
C442 C 0.60807 0.89671 0.67459 0.0
C443 C 0.60888 0.89162 0.83593 0.0
C444 C 0.60307 0.88896 0.77462 0.0
C445 C 0.59122 0.87792 0.59566 0.0
C446 C 0.59428 0.88227 0.65739 0.0
H447 H 0.61845 0.8654 0.95458 0.0
H448 H 0.60768 0.86126 0.85512 0.0
H449 H 0.62385 0.91065 0.74393 0.0
H450 H 0.58764 0.90134 0.46985 0.0
H451 H 0.58659 0.90758 0.57279 0.0
C452 C 0.11169 0.08596 0.84156 0.0
C453 C 0.13205 0.08487 0.8241 0.0
C454 C 0.10696 0.09003 0.89872 0.0
C455 C 0.12964 0.11213 0.02914 0.0
H456 H 0.08361 0.08902 0.10478 0.0
C457 C 0.10158 0.10029 0.27222 0.0
C458 C 0.10654 0.11834 0.29653 0.0
C459 C 0.10138 0.09747 0.21294 0.0
C460 C 0.09652 0.0956 0.08425 0.0
H461 H 0.16344 0.08545 0.8526 0.0
H462 H 0.15525 0.09201 0.95327 0.0
H463 H 0.0913 0.0798 0.00593 0.0
H464 H 0.11348 0.14799 0.27772 0.0
H465 H 0.11269 0.14314 0.17377 0.0
H466 H 0.13547 0.12724 0.10809 0.0
C467 C 0.14292 0.0905 0.92249 0.0
C468 C 0.10084 0.09042 0.02746 0.0
C469 C 0.14763 0.08654 0.86516 0.0
C470 C 0.10983 0.13386 0.26026 0.0
C471 C 0.10952 0.13105 0.20076 0.0
C472 C 0.12541 0.11721 0.08596 0.0
C473 C 0.12254 0.09276 0.93962 0.0
C474 C 0.1176 0.09846 -0.00047 0.0
C475 C 0.10597 0.11267 0.17656 0.0
C476 C 0.10895 0.10883 0.11441 0.0
H477 H 0.09943 0.08413 0.81065 0.0
H478 H 0.09112 0.09164 0.91043 0.0
H479 H 0.14242 0.11889 0.00849 0.0
H480 H 0.0988 0.08805 0.29894 0.0
H481 H 0.09874 0.0831 0.19588 0.0
C482 C 0.91257 0.61012 0.11365 0.0
C483 C 0.89742 0.61298 0.07209 0.0
C484 C 0.90722 0.60547 0.16964 0.0
C485 C 0.86615 0.61147 0.27267 0.0
H486 H 0.89325 0.57086 0.35478 0.0
C487 C 0.84628 0.59705 0.50734 0.0
C488 C 0.86306 0.59451 0.54397 0.0
C489 C 0.84872 0.59602 0.44781 0.0
C490 C 0.88562 0.58233 0.33258 0.0
H491 H 0.86488 0.61415 0.05672 0.0
H492 H 0.85556 0.60603 0.15427 0.0
H493 H 0.90163 0.5762 0.25449 0.0
H494 H 0.89532 0.58781 0.5469 0.0
H495 H 0.89965 0.58656 0.44388 0.0
H496 H 0.85076 0.61823 0.35086 0.0
C497 C 0.87153 0.60705 0.14347 0.0
C498 C 0.89042 0.58536 0.2752 0.0
C499 C 0.87687 0.61147 0.08751 0.0
C500 C 0.88206 0.58992 0.51995 0.0
C501 C 0.88453 0.58905 0.46064 0.0
C502 C 0.86151 0.6086 0.33016 0.0
C503 C 0.88664 0.60401 0.18508 0.0
C504 C 0.88089 0.60009 0.24495 0.0
C505 C 0.86801 0.59256 0.42379 0.0
C506 C 0.87138 0.59416 0.36109 0.0
H507 H 0.92851 0.61136 0.10275 0.0
H508 H 0.91916 0.60345 0.20116 0.0
H509 H 0.85872 0.62307 0.25046 0.0
H510 H 0.8314 0.60042 0.52452 0.0
H511 H 0.83558 0.5984 0.42064 0.0
C512 C 0.38313 0.11746 0.9123 0.0
C513 C 0.39851 0.11412 0.95289 0.0
C514 C 0.38807 0.12232 0.85633 0.0
C515 C 0.42984 0.12063 0.75074 0.0
H516 H 0.39614 0.15809 0.67444 0.0
C517 C 0.4202 0.16197 0.51961 0.0
C518 C 0.42287 0.14602 0.48254 0.0
C519 C 0.42088 0.15978 0.57904 0.0
C520 C 0.40598 0.14787 0.6953 0.0
H521 H 0.43114 0.11168 0.96513 0.0
H522 H 0.43981 0.12097 0.8684 0.0
H523 H 0.38979 0.15086 0.77414 0.0
H524 H 0.42968 0.11552 0.4787 0.0
H525 H 0.43034 0.11163 0.58173 0.0
H526 H 0.44622 0.11785 0.672 0.0
C527 C 0.4239 0.11996 0.87982 0.0
C528 C 0.40209 0.14347 0.75228 0.0
C529 C 0.41893 0.11499 0.93574 0.0
C530 C 0.42745 0.1281 0.50603 0.0
C531 C 0.42798 0.12589 0.56531 0.0
C532 C 0.43383 0.12513 0.6938 0.0
C533 C 0.40852 0.1239 0.83962 0.0
C534 C 0.41368 0.1295 0.78032 0.0
C535 C 0.42413 0.14158 0.60256 0.0
C536 C 0.42168 0.13852 0.66502 0.0
H537 H 0.36724 0.1167 0.9241 0.0
H538 H 0.37582 0.12476 0.82608 0.0
H539 H 0.43903 0.10975 0.77092 0.0
H540 H 0.41686 0.17601 0.50284 0.0
H541 H 0.41829 0.17225 0.60655 0.0
C542 C 0.92138 0.87468 0.17293 0.0
C543 C 0.90594 0.87476 0.21421 0.0
C544 C 0.91736 0.88095 0.1175 0.0
C545 C 0.87555 0.8853 0.01472 0.0
H546 H 0.9143 0.91557 0.93031 0.0
C547 C 0.86289 0.90076 0.77596 0.0
C548 C 0.87991 0.89679 0.74157 0.0
C549 C 0.86499 0.90239 0.83559 0.0
C550 C 0.90333 0.90711 0.95334 0.0
H551 H 0.87401 0.88072 0.22936 0.0
H552 H 0.86707 0.89194 0.13303 0.0
H553 H 0.92027 0.90967 0.03189 0.0
H554 H 0.91265 0.8926 0.74231 0.0
H555 H 0.91624 0.89514 0.84567 0.0
H556 H 0.85901 0.88205 0.93597 0.0
C557 C 0.88233 0.88725 0.14362 0.0
C558 C 0.90677 0.90372 0.0114 0.0
C559 C 0.88638 0.88107 0.19904 0.0
C560 C 0.89919 0.89551 0.7676 0.0
C561 C 0.90129 0.89716 0.82696 0.0
C562 C 0.87215 0.88861 0.95665 0.0
C563 C 0.89774 0.88716 0.1022 0.0
C564 C 0.89313 0.89244 0.04233 0.0
C565 C 0.88417 0.90017 0.86176 0.0
C566 C 0.88625 0.89917 0.925 0.0
H567 H 0.93654 0.86973 0.1835 0.0
H568 H 0.92946 0.88042 0.08618 0.0
H569 H 0.86487 0.87639 0.03731 0.0
H570 H 0.84785 0.90195 0.7571 0.0
H571 H 0.85156 0.90497 0.86128 0.0
C572 C 0.0925 0.39375 0.42015 0.0
C573 C 0.0954 0.37784 0.45507 0.0
C574 C 0.08595 0.39119 0.36346 0.0
C575 C 0.06371 0.35503 0.26093 0.0
H576 H 0.08985 0.38671 0.14823 0.0
C577 C 0.07061 0.33629 0.01853 0.0
C578 C 0.06931 0.35157 0.98033 0.0
C579 C 0.06929 0.33978 0.07766 0.0
C580 C 0.08215 0.37795 0.17924 0.0
H581 H 0.0944 0.34679 0.45821 0.0
H582 H 0.08349 0.34221 0.35892 0.0
H583 H 0.09685 0.3925 0.24935 0.0
H584 H 0.0637 0.38218 0.97368 0.0
H585 H 0.06143 0.38818 0.07652 0.0
H586 H 0.04975 0.33996 0.18978 0.0
C587 C 0.08548 0.35672 0.37562 0.0
C588 C 0.08612 0.38129 0.2373 0.0
C589 C 0.09179 0.35932 0.43246 0.0
C590 C 0.06512 0.37013 0.00202 0.0
C591 C 0.06384 0.3736 0.0609 0.0
C592 C 0.05989 0.35156 0.2026 0.0
C593 C 0.08256 0.37262 0.34033 0.0
C594 C 0.07712 0.36977 0.27888 0.0
C595 C 0.06666 0.35859 0.09932 0.0
C596 C 0.0692 0.36293 0.16127 0.0
H597 H 0.09511 0.40818 0.43686 0.0
H598 H 0.08357 0.40377 0.33776 0.0
H599 H 0.05628 0.34608 0.29192 0.0
H600 H 0.07371 0.32182 0.00306 0.0
H601 H 0.07156 0.32795 0.10643 0.0
C602 C 0.59462 0.62856 0.77028 0.0
C603 C 0.57685 0.6289 0.80335 0.0
C604 C 0.59345 0.62873 0.71073 0.0
C605 C 0.56328 0.61294 0.59116 0.0
H606 H 0.59785 0.64722 0.50599 0.0
C607 C 0.59621 0.59507 0.36803 0.0
C608 C 0.59727 0.60982 0.32809 0.0
C609 C 0.58914 0.59889 0.42347 0.0
C610 C 0.58784 0.63774 0.52895 0.0
H611 H 0.54389 0.62969 0.80036 0.0
H612 H 0.54184 0.62936 0.69493 0.0
H613 H 0.59384 0.65222 0.60914 0.0
H614 H 0.59215 0.64018 0.315 0.0
H615 H 0.57969 0.6468 0.41162 0.0
H616 H 0.55809 0.59788 0.51123 0.0
C617 C 0.55662 0.62926 0.7157 0.0
C618 C 0.58564 0.64056 0.58792 0.0
C619 C 0.5578 0.6295 0.77571 0.0
C620 C 0.59098 0.62841 0.34433 0.0
C621 C 0.58405 0.63226 0.39982 0.0
C622 C 0.56568 0.60996 0.53211 0.0
C623 C 0.57448 0.62892 0.6829 0.0
C624 C 0.57377 0.62791 0.61969 0.0
C625 C 0.58329 0.61759 0.44013 0.0
C626 C 0.57837 0.62208 0.50076 0.0
H627 H 0.60951 0.62818 0.79045 0.0
H628 H 0.60742 0.62824 0.68629 0.0
H629 H 0.55415 0.60294 0.61497 0.0
H630 H 0.60107 0.58064 0.35656 0.0
H631 H 0.58902 0.58737 0.45396 0.0
C632 C 0.16755 0.38438 0.76572 0.0
C633 C 0.15171 0.3808 0.8043 0.0
C634 C 0.18734 0.38771 0.78576 0.0
C635 C 0.21733 0.40189 0.91405 0.0
H636 H 0.26069 0.37396 0.8373 0.0
C637 C 0.29887 0.39593 0.00824 0.0
C638 C 0.31519 0.39564 0.96955 0.0
C639 C 0.27877 0.39577 0.98808 0.0
C640 C 0.24885 0.38213 0.85873 0.0
H641 H 0.14419 0.37843 0.89442 0.0
H642 H 0.17875 0.38424 0.92922 0.0
H643 H 0.22596 0.37088 0.80173 0.0
H644 H 0.32318 0.39592 0.87938 0.0
H645 H 0.28829 0.39612 0.84447 0.0
H646 H 0.24026 0.41316 0.9711 0.0
C647 C 0.17581 0.38453 0.8835 0.0
C648 C 0.22892 0.38033 0.83834 0.0
C649 C 0.15603 0.38109 0.86347 0.0
C650 C 0.31098 0.39591 0.9104 0.0
C651 C 0.29094 0.39591 0.89032 0.0
C652 C 0.23732 0.4038 0.93431 0.0
C653 C 0.19172 0.38766 0.84482 0.0
C654 C 0.21293 0.39013 0.86583 0.0
C655 C 0.27458 0.39546 0.92881 0.0
C656 C 0.25332 0.39389 0.90694 0.0
H657 H 0.16476 0.38435 0.7199 0.0
H658 H 0.19926 0.39031 0.75497 0.0
H659 H 0.20533 0.40977 0.93578 0.0
H660 H 0.30161 0.3957 0.05407 0.0
H661 H 0.26655 0.39527 0.01893 0.0
C662 C 0.59905 0.8168 0.23849 0.0
C663 C 0.60337 0.83082 0.19785 0.0
C664 C 0.5959 0.79767 0.22121 0.0
C665 C 0.60665 0.7641 0.09959 0.0
H666 H 0.56964 0.73069 0.17947 0.0
C667 C 0.59285 0.68548 0.02697 0.0
C668 C 0.59522 0.67202 0.07061 0.0
C669 C 0.5914 0.70508 0.04052 0.0
C670 C 0.58002 0.73989 0.15684 0.0
H671 H 0.60706 0.83581 0.10705 0.0
H672 H 0.60082 0.80279 0.0768 0.0
H673 H 0.57147 0.76472 0.20662 0.0
H674 H 0.59725 0.66861 0.16277 0.0
H675 H 0.59442 0.70273 0.18622 0.0
H676 H 0.6151 0.73925 0.0497 0.0
C677 C 0.60046 0.80637 0.12219 0.0
C678 C 0.58117 0.75935 0.17254 0.0
C679 C 0.60388 0.8254 0.13952 0.0
C680 C 0.5954 0.67855 0.12809 0.0
C681 C 0.59369 0.6981 0.14161 0.0
C682 C 0.60532 0.74472 0.08351 0.0
C683 C 0.59677 0.79218 0.16284 0.0
C684 C 0.59467 0.77166 0.14451 0.0
C685 C 0.59202 0.71158 0.09795 0.0
C686 C 0.59217 0.73239 0.11237 0.0
H687 H 0.59863 0.82048 0.28382 0.0
H688 H 0.59337 0.78712 0.25385 0.0
H689 H 0.61753 0.773 0.07775 0.0
H690 H 0.59264 0.68095 0.98225 0.0
H691 H 0.58997 0.71519 0.00606 0.0
C692 C 0.34064 0.11944 0.36022 0.0
C693 C 0.34677 0.11105 0.30782 0.0
C694 C 0.32138 0.11568 0.38235 0.0
C695 C 0.2832 0.09991 0.43492 0.0
H696 H 0.23822 0.09456 0.32767 0.0
C697 C 0.2002 0.08869 0.51103 0.0
C698 C 0.18488 0.09794 0.47969 0.0
C699 C 0.22024 0.08817 0.49085 0.0
C700 C 0.25055 0.0962 0.35837 0.0
H701 H 0.33779 0.09158 0.23848 0.0
H702 H 0.30447 0.0844 0.27807 0.0
H703 H 0.27248 0.09799 0.29163 0.0
H704 H 0.17868 0.11431 0.40341 0.0
H705 H 0.21344 0.11408 0.36966 0.0
H706 H 0.26103 0.09936 0.50162 0.0
C707 C 0.31425 0.09441 0.30131 0.0
C708 C 0.27034 0.09783 0.3376 0.0
C709 C 0.33341 0.09844 0.27867 0.0
C710 C 0.19005 0.10685 0.4283 0.0
C711 C 0.21004 0.10658 0.40863 0.0
C712 C 0.26334 0.09858 0.45571 0.0
C713 C 0.30786 0.10316 0.35315 0.0
C714 C 0.28694 0.09998 0.37553 0.0
C715 C 0.22541 0.09711 0.43929 0.0
C716 C 0.24671 0.09702 0.41766 0.0
H717 H 0.35053 0.12933 0.38359 0.0
H718 H 0.31695 0.12304 0.42168 0.0
H719 H 0.29559 0.10113 0.46558 0.0
H720 H 0.19666 0.08162 0.55067 0.0
H721 H 0.2316 0.08057 0.51534 0.0
C722 C 0.90635 0.6805 0.76033 0.0
C723 C 0.90293 0.6646 0.72345 0.0
C724 C 0.90966 0.69872 0.73799 0.0
C725 C 0.89988 0.72605 0.60632 0.0
H726 H 0.93516 0.76391 0.6799 0.0
C727 C 0.91076 0.80162 0.51454 0.0
C728 C 0.90851 0.81684 0.55458 0.0
C729 C 0.91276 0.78273 0.533 0.0
C730 C 0.92523 0.75347 0.65899 0.0
H731 H 0.90143 0.65516 0.63423 0.0
H732 H 0.90771 0.6867 0.59549 0.0
H733 H 0.93397 0.73131 0.71642 0.0
H734 H 0.90739 0.82417 0.64549 0.0
H735 H 0.91087 0.7913 0.67739 0.0
H736 H 0.89106 0.74822 0.54918 0.0
C737 C 0.90722 0.68529 0.64161 0.0
C738 C 0.92449 0.73483 0.68 0.0
C739 C 0.90372 0.66716 0.66388 0.0
C740 C 0.90898 0.8128 0.61343 0.0
C741 C 0.91114 0.79397 0.63181 0.0
C742 C 0.90074 0.74462 0.58513 0.0
C743 C 0.90981 0.70138 0.67831 0.0
C744 C 0.91162 0.72094 0.65431 0.0
C745 C 0.91275 0.7787 0.59183 0.0
C746 C 0.91322 0.7586 0.61163 0.0
H747 H 0.9058 0.679 0.80643 0.0
H748 H 0.91139 0.71082 0.76755 0.0
H749 H 0.8895 0.71588 0.58607 0.0
H750 H 0.91053 0.80423 0.46893 0.0
H751 H 0.91416 0.77124 0.50122 0.0
C752 C 0.82401 0.88631 0.50595 0.0
C753 C 0.839 0.88141 0.46543 0.0
C754 C 0.8038 0.88908 0.48866 0.0
C755 C 0.77218 0.90045 0.36319 0.0
H756 H 0.72934 0.87362 0.44225 0.0
C757 C 0.69181 0.89108 0.2661 0.0
C758 C 0.67505 0.89109 0.30324 0.0
C759 C 0.71165 0.89159 0.28802 0.0
C760 C 0.74102 0.88151 0.42024 0.0
H761 H 0.84442 0.87562 0.37492 0.0
H762 H 0.8094 0.88074 0.34502 0.0
H763 H 0.76424 0.87183 0.4777 0.0
H764 H 0.66601 0.8923 0.39259 0.0
H765 H 0.70054 0.89372 0.4307 0.0
H766 H 0.74908 0.91022 0.30582 0.0
C767 C 0.81328 0.88253 0.39003 0.0
C768 C 0.76103 0.88044 0.44057 0.0
C769 C 0.83336 0.87954 0.4073 0.0
C770 C 0.67858 0.8921 0.36275 0.0
C771 C 0.6984 0.8928 0.38465 0.0
C772 C 0.75215 0.90169 0.34317 0.0
C773 C 0.79827 0.88724 0.43049 0.0
C774 C 0.77684 0.88966 0.41174 0.0
C775 C 0.71521 0.89233 0.34761 0.0
C776 C 0.73635 0.89201 0.37094 0.0
H777 H 0.82781 0.88784 0.55107 0.0
H778 H 0.79252 0.89277 0.52072 0.0
H779 H 0.78405 0.90791 0.34057 0.0
H780 H 0.68964 0.89022 0.22004 0.0
H781 H 0.72419 0.89091 0.25816 0.0
C782 C 0.10673 0.16815 0.53828 0.0
C783 C 0.10852 0.15366 0.57902 0.0
C784 C 0.10201 0.18698 0.55536 0.0
C785 C 0.10386 0.21945 0.68275 0.0
H786 H 0.0711 0.25248 0.58738 0.0
C787 C 0.08491 0.29759 0.75031 0.0
C788 C 0.08849 0.31132 0.70815 0.0
C789 C 0.08485 0.278 0.73597 0.0
C790 C 0.08032 0.24342 0.61436 0.0
H791 H 0.1056 0.14741 0.66918 0.0
H792 H 0.09715 0.18009 0.69898 0.0
H793 H 0.07545 0.21873 0.55982 0.0
H794 H 0.09422 0.31516 0.61754 0.0
H795 H 0.09398 0.28106 0.59267 0.0
H796 H 0.10878 0.24418 0.7371 0.0
C797 C 0.09998 0.17706 0.654 0.0
C798 C 0.08287 0.22411 0.59851 0.0
C799 C 0.10484 0.15829 0.63694 0.0
C800 C 0.09139 0.30501 0.6511 0.0
C801 C 0.09115 0.28546 0.63673 0.0
C802 C 0.10119 0.23871 0.69877 0.0
C803 C 0.09877 0.19171 0.61354 0.0
C804 C 0.09491 0.21194 0.63212 0.0
C805 C 0.08818 0.27173 0.67913 0.0
C806 C 0.08961 0.25096 0.66435 0.0
H807 H 0.10951 0.16508 0.49328 0.0
H808 H 0.10147 0.19791 0.52307 0.0
H809 H 0.1135 0.2106 0.7092 0.0
H810 H 0.08259 0.30193 0.79466 0.0
H811 H 0.08233 0.26773 0.76944 0.0
C812 C 0.66971 0.60279 0.93654 0.0
C813 C 0.6648 0.60622 0.99446 0.0
C814 C 0.68996 0.60134 0.91942 0.0
C815 C 0.74052 0.6182 0.95927 0.0
H816 H 0.75908 0.57952 0.84955 0.0
C817 C 0.82425 0.61407 0.88869 0.0
C818 C 0.82837 0.60917 0.83112 0.0
C819 C 0.80456 0.61267 0.91025 0.0
C820 C 0.75409 0.59057 0.87963 0.0
H821 H 0.67731 0.61032 0.0801 0.0
H822 H 0.71287 0.60803 0.04987 0.0
H823 H 0.72432 0.57822 0.88555 0.0
H824 H 0.81482 0.59931 0.75071 0.0
H825 H 0.78029 0.59747 0.78786 0.0
H826 H 0.76992 0.63099 0.9522 0.0
C827 C 0.70093 0.60647 0.01787 0.0
C828 C 0.73422 0.58974 0.9005 0.0
C829 C 0.68061 0.60767 0.03518 0.0
C830 C 0.81222 0.6031 0.79535 0.0
C831 C 0.79243 0.60188 0.81683 0.0
C832 C 0.76031 0.61916 0.938 0.0
C833 C 0.70579 0.60348 0.95972 0.0
C834 C 0.72722 0.60359 0.94034 0.0
C835 C 0.78837 0.6066 0.87464 0.0
C836 C 0.76734 0.6054 0.89773 0.0
H837 H 0.65788 0.60151 0.90411 0.0
H838 H 0.69325 0.59919 0.87428 0.0
H839 H 0.73542 0.62925 0.98924 0.0
H840 H 0.83623 0.61897 0.91744 0.0
H841 H 0.80211 0.61617 0.95513 0.0
C842 C 0.38989 0.33142 0.12024 0.0
C843 C 0.38817 0.33577 0.06185 0.0
C844 C 0.39374 0.31268 0.13715 0.0
C845 C 0.41118 0.26476 0.08432 0.0
H846 H 0.38232 0.2474 0.21827 0.0
C847 C 0.40355 0.18493 0.14532 0.0
C848 C 0.40594 0.18054 0.20358 0.0
C849 C 0.40324 0.204 0.12797 0.0
C850 C 0.39068 0.2521 0.18121 0.0
H851 H 0.38954 0.3239 0.97529 0.0
H852 H 0.39569 0.29096 0.00485 0.0
H853 H 0.37798 0.28026 0.18726 0.0
H854 H 0.4103 0.19274 0.28914 0.0
H855 H 0.40955 0.22609 0.25874 0.0
H856 H 0.42337 0.23625 0.07768 0.0
C857 C 0.39444 0.30214 0.03761 0.0
C858 C 0.38824 0.27097 0.16342 0.0
C859 C 0.39081 0.321 0.02061 0.0
C860 C 0.40841 0.19564 0.24397 0.0
C861 C 0.40788 0.21472 0.22663 0.0
C862 C 0.41347 0.24579 0.10188 0.0
C863 C 0.39572 0.29772 0.09616 0.0
C864 C 0.39849 0.27758 0.11483 0.0
C865 C 0.4051 0.21909 0.16853 0.0
C866 C 0.40325 0.2393 0.15056 0.0
H867 H 0.38823 0.34252 0.15313 0.0
H868 H 0.39513 0.30994 0.18253 0.0
H869 H 0.41952 0.26941 0.0472 0.0
H870 H 0.40172 0.17364 0.11304 0.0
H871 H 0.40092 0.20694 0.08298 0.0
loop_
_geom_bond_atom_site_label_1
_geom_bond_atom_site_label_2
_geom_bond_distance
_geom_bond_site_symmetry_2
_ccdc_geom_bond_type
Co0 O3 1.970 . S
Co0 N17 1.989 . S
Co0 O25 1.967 . S
Co0 O32 1.920 . S
Co1 O4 1.966 . S
Co1 N10 2.022 . S
Co1 N18 1.993 . S
Co1 O26 1.941 . S
C2 O3 1.258 . S
C2 O4 1.263 1_554 S
O3 Co0 1.970 . S
O3 C2 1.258 . S
O4 Co1 1.966 . S
O4 C2 1.263 1_556 S
C5 O6 1.235 . S
C5 O32 1.289 . S
O6 C5 1.235 . S
C7 C9 1.400 . S
C7 N10 1.351 . S
C7 C12 1.501 . S
C8 C9 1.387 . S
C8 N11 1.341 . S
C9 C7 1.400 . S
C9 C8 1.387 . S
N10 Co1 2.022 . S
N10 C7 1.351 . S
N10 N11 1.365 . S
N11 C8 1.341 . S
N11 N10 1.365 . S
N11 H31 0.862 . S
C12 C7 1.501 . S
C12 H13 0.961 . S
C12 H14 0.961 . S
C12 H15 0.960 . S
H13 C12 0.961 . S
H14 C12 0.961 . S
H15 C12 0.960 . S
C16 N17 1.342 . S
C16 C20 1.401 . S
C16 C21 1.499 . S
N17 Co0 1.989 . S
N17 C16 1.342 . S
N17 N18 1.388 1_554 S
N18 Co1 1.993 . S
N18 N17 1.388 1_556 S
N18 C19 1.346 . S
C19 N18 1.346 . S
C19 C20 1.396 1_556 S
C19 C29 1.510 . S
C20 C16 1.401 . S
C20 C19 1.396 1_554 S
C21 C16 1.499 . S
C21 H22 0.959 . S
C21 H23 0.960 . S
C21 H24 0.961 . S
H22 C21 0.959 . S
H23 C21 0.960 . S
H24 C21 0.961 . S
O25 Co0 1.967 . S
O25 C33 1.258 . S
O26 Co1 1.941 . S
O26 C33 1.266 1_556 S
H27 C29 0.959 . S
H28 C29 0.961 . S
C29 C19 1.510 . S
C29 H27 0.959 . S
C29 H28 0.961 . S
C29 H30 0.960 . S
H30 C29 0.960 . S
H31 N11 0.862 . S
O32 Co0 1.920 . S
O32 C5 1.289 . S
C33 O25 1.258 . S
C33 O26 1.266 1_554 S
Co34 O37 1.970 . S
Co34 N51 1.989 . S
Co34 O59 1.967 . S
Co34 O66 1.920 . S
Co35 O38 1.966 . S
Co35 N44 2.022 . S
Co35 N52 1.993 . S
Co35 O60 1.941 . S
C36 O37 1.258 . S
C36 O38 1.263 . S
O37 Co34 1.970 . S
O37 C36 1.258 . S
O38 Co35 1.966 . S
O38 C36 1.263 . S
C39 O40 1.235 . S
C39 O66 1.289 . S
O40 C39 1.235 . S
C41 C43 1.384 1_554 S
C41 N44 1.351 . S
C41 C46 1.501 . S
C42 C43 1.383 1_554 S
C42 N45 1.341 . S
C43 C41 1.384 1_556 S
C43 C42 1.383 1_556 S
N44 Co35 2.022 . S
N44 C41 1.351 . S
N44 N45 1.365 . S
N45 C42 1.341 . S
N45 N44 1.365 . S
N45 H65 0.862 . S
C46 C41 1.501 . S
C46 H47 0.961 . S
C46 H48 0.961 . S
C46 H49 0.960 . S
H47 C46 0.961 . S
H48 C46 0.961 . S
H49 C46 0.960 . S
C50 N51 1.342 . S
C50 C54 1.401 . S
C50 C55 1.499 . S
N51 Co34 1.989 . S
N51 C50 1.342 . S
N51 N52 1.388 . S
N52 Co35 1.993 . S
N52 N51 1.388 . S
N52 C53 1.346 . S
C53 N52 1.346 . S
C53 C54 1.396 . S
C53 C63 1.510 . S
C54 C50 1.401 . S
C54 C53 1.396 . S
C55 C50 1.499 . S
C55 H56 0.959 . S
C55 H57 0.960 . S
C55 H58 0.961 . S
H56 C55 0.959 . S
H57 C55 0.960 . S
H58 C55 0.961 . S
O59 Co34 1.967 . S
O59 C67 1.258 . S
O60 Co35 1.941 . S
O60 C67 1.266 . S
H61 C63 0.959 . S
H62 C63 0.961 . S
C63 C53 1.510 . S
C63 H61 0.959 . S
C63 H62 0.961 . S
C63 H64 0.960 . S
H64 C63 0.960 . S
H65 N45 0.862 . S
O66 Co34 1.920 . S
O66 C39 1.289 . S
C67 O59 1.258 . S
C67 O60 1.266 . S
Co68 O71 1.970 . S
Co68 N85 1.989 . S
Co68 O93 1.967 . S
Co68 O100 1.920 . S
Co69 O72 1.966 . S
Co69 N78 2.022 . S
Co69 N86 1.993 . S
Co69 O94 1.941 . S
C70 O71 1.258 . S
C70 O72 1.263 . S
O71 Co68 1.970 . S
O71 C70 1.258 . S
O72 Co69 1.966 . S
O72 C70 1.263 . S
C73 O74 1.235 . S
C73 O100 1.289 . S
O74 C73 1.235 . S
C75 C77 1.400 . S
C75 N78 1.351 . S
C75 C80 1.501 . S
C76 C77 1.387 . S
C76 N79 1.341 . S
C77 C75 1.400 . S
C77 C76 1.387 . S
N78 Co69 2.022 . S
N78 C75 1.351 . S
N78 N79 1.365 . S
N79 C76 1.341 . S
N79 N78 1.365 . S
N79 H99 0.862 . S
C80 C75 1.501 . S
C80 H81 0.961 . S
C80 H82 0.961 . S
C80 H83 0.960 . S
H81 C80 0.961 . S
H82 C80 0.961 . S
H83 C80 0.960 . S
C84 N85 1.342 . S
C84 C88 1.401 . S
C84 C89 1.499 . S
N85 Co68 1.989 . S
N85 C84 1.342 . S
N85 N86 1.388 . S
N86 Co69 1.993 . S
N86 N85 1.388 . S
N86 C87 1.346 . S
C87 N86 1.346 . S
C87 C88 1.396 . S
C87 C97 1.510 . S
C88 C84 1.401 . S
C88 C87 1.396 . S
C89 C84 1.499 . S
C89 H90 0.959 . S
C89 H91 0.960 . S
C89 H92 0.961 . S
H90 C89 0.959 . S
H91 C89 0.960 . S
H92 C89 0.961 . S
O93 Co68 1.967 . S
O93 C101 1.258 . S
O94 Co69 1.941 . S
O94 C101 1.266 . S
H95 C97 0.959 . S
H96 C97 0.961 . S
C97 C87 1.510 . S
C97 H95 0.959 . S
C97 H96 0.961 . S
C97 H98 0.960 . S
H98 C97 0.960 . S
H99 N79 0.862 . S
O100 Co68 1.920 . S
O100 C73 1.289 . S
C101 O93 1.258 . S
C101 O94 1.266 . S
Co102 O105 1.970 . S
Co102 N119 1.989 . S
Co102 O127 1.967 . S
Co102 O134 1.920 . S
Co103 O106 1.966 . S
Co103 N112 2.022 . S
Co103 N120 1.993 . S
Co103 O128 1.941 . S
C104 O105 1.258 . S
C104 O106 1.263 . S
O105 Co102 1.970 . S
O105 C104 1.258 . S
O106 Co103 1.966 . S
O106 C104 1.263 . S
C107 O108 1.235 . S
C107 O134 1.289 . S
O108 C107 1.235 . S
C109 C111 1.400 1_556 S
C109 N112 1.351 . S
C109 C114 1.501 . S
C110 C111 1.387 . S
C110 N113 1.341 1_554 S
C111 C109 1.400 1_554 S
C111 C110 1.387 . S
N112 Co103 2.022 . S
N112 C109 1.351 . S
N112 N113 1.365 . S
N113 C110 1.341 1_556 S
N113 N112 1.365 . S
N113 H133 0.862 . S
C114 C109 1.501 . S
C114 H115 0.961 . S
C114 H116 0.961 . S
C114 H117 0.960 1_556 S
H115 C114 0.961 . S
H116 C114 0.961 . S
H117 C114 0.960 1_554 S
C118 N119 1.342 . S
C118 C122 1.401 . S
C118 C123 1.499 . S
N119 Co102 1.989 . S
N119 C118 1.342 . S
N119 N120 1.388 . S
N120 Co103 1.993 . S
N120 N119 1.388 . S
N120 C121 1.346 . S
C121 N120 1.346 . S
C121 C122 1.396 . S
C121 C131 1.510 . S
C122 C118 1.401 . S
C122 C121 1.396 . S
C123 C118 1.499 . S
C123 H124 0.959 . S
C123 H125 0.960 . S
C123 H126 0.961 . S
H124 C123 0.959 . S
H125 C123 0.960 . S
H126 C123 0.961 . S
O127 Co102 1.967 . S
O127 C135 1.258 . S
O128 Co103 1.941 . S
O128 C135 1.266 . S
H129 C131 0.959 . S
H130 C131 0.961 . S
C131 C121 1.510 . S
C131 H129 0.959 . S
C131 H130 0.961 . S
C131 H132 0.960 . S
H132 C131 0.960 . S
H133 N113 0.862 . S
O134 Co102 1.920 . S
O134 C107 1.289 . S
C135 O127 1.258 . S
C135 O128 1.266 . S
Co136 O139 1.970 . S
Co136 N153 1.989 . S
Co136 O161 1.967 . S
Co136 O168 1.920 . S
Co137 O140 1.966 . S
Co137 N146 2.022 . S
Co137 N154 1.993 . S
Co137 O162 1.941 . S
C138 O139 1.258 . S
C138 O140 1.263 . S
O139 Co136 1.970 . S
O139 C138 1.258 . S
O140 Co137 1.966 . S
O140 C138 1.263 . S
C141 O142 1.235 . S
C141 O168 1.289 . S
O142 C141 1.235 . S
C143 C145 1.400 . S
C143 N146 1.351 . S
C143 C148 1.501 . S
C144 C145 1.387 . S
C144 N147 1.341 . S
C145 C143 1.400 . S
C145 C144 1.387 . S
N146 Co137 2.022 . S
N146 C143 1.351 . S
N146 N147 1.365 . S
N147 C144 1.341 . S
N147 N146 1.365 . S
N147 H167 0.862 . S
C148 C143 1.501 . S
C148 H149 0.961 . S
C148 H150 0.961 . S
C148 H151 0.960 . S
H149 C148 0.961 . S
H150 C148 0.961 . S
H151 C148 0.960 . S
C152 N153 1.342 . S
C152 C156 1.401 . S
C152 C157 1.499 . S
N153 Co136 1.989 . S
N153 C152 1.342 . S
N153 N154 1.388 . S
N154 Co137 1.993 . S
N154 N153 1.388 . S
N154 C155 1.346 . S
C155 N154 1.346 . S
C155 C156 1.396 . S
C155 C165 1.510 . S
C156 C152 1.401 . S
C156 C155 1.396 . S
C157 C152 1.499 . S
C157 H158 0.959 . S
C157 H159 0.960 . S
C157 H160 0.961 . S
H158 C157 0.959 . S
H159 C157 0.960 . S
H160 C157 0.961 . S
O161 Co136 1.967 . S
O161 C169 1.258 . S
O162 Co137 1.941 . S
O162 C169 1.266 . S
H163 C165 0.959 . S
H164 C165 0.961 . S
C165 C155 1.510 . S
C165 H163 0.959 . S
C165 H164 0.961 . S
C165 H166 0.960 . S
H166 C165 0.960 . S
H167 N147 0.862 . S
O168 Co136 1.920 . S
O168 C141 1.289 . S
C169 O161 1.258 . S
C169 O162 1.266 . S
Co170 O173 1.970 . S
Co170 N187 1.989 . S
Co170 O195 1.967 . S
Co170 O202 1.920 . S
Co171 O174 1.966 . S
Co171 N180 2.022 . S
Co171 N188 1.993 . S
Co171 O196 1.941 . S
C172 O173 1.258 . S
C172 O174 1.263 . S
O173 Co170 1.970 . S
O173 C172 1.258 . S
O174 Co171 1.966 . S
O174 C172 1.263 . S
C175 O176 1.235 . S
C175 O202 1.289 . S
O176 C175 1.235 . S
C177 C179 1.400 . S
C177 N180 1.351 . S
C177 C182 1.501 . S
C178 C179 1.387 . S
C178 N181 1.341 . S
C179 C177 1.400 . S
C179 C178 1.387 . S
N180 Co171 2.022 . S
N180 C177 1.351 . S
N180 N181 1.365 . S
N181 C178 1.341 . S
N181 N180 1.365 . S
N181 H201 0.862 . S
C182 C177 1.501 . S
C182 H183 0.961 . S
C182 H184 0.961 . S
C182 H185 0.960 . S
H183 C182 0.961 . S
H184 C182 0.961 . S
H185 C182 0.960 . S
C186 N187 1.342 . S
C186 C190 1.401 . S
C186 C191 1.499 . S
N187 Co170 1.989 . S
N187 C186 1.342 . S
N187 N188 1.388 . S
N188 Co171 1.993 . S
N188 N187 1.388 . S
N188 C189 1.346 . S
C189 N188 1.346 . S
C189 C190 1.396 . S
C189 C199 1.510 . S
C190 C186 1.401 . S
C190 C189 1.396 . S
C191 C186 1.499 . S
C191 H192 0.959 . S
C191 H193 0.960 . S
C191 H194 0.961 . S
H192 C191 0.959 . S
H193 C191 0.960 . S
H194 C191 0.961 . S
O195 Co170 1.967 . S
O195 C203 1.258 . S
O196 Co171 1.941 . S
O196 C203 1.266 . S
H197 C199 0.959 . S
H198 C199 0.961 . S
C199 C189 1.510 . S
C199 H197 0.959 . S
C199 H198 0.961 . S
C199 H200 0.960 . S
H200 C199 0.960 . S
H201 N181 0.862 . S
O202 Co170 1.920 . S
O202 C175 1.289 . S
C203 O195 1.258 . S
C203 O196 1.266 . S
Co204 O207 1.970 . S
Co204 N221 1.989 . S
Co204 O229 1.967 . S
Co204 O236 1.920 . S
Co205 O208 1.966 . S
Co205 N214 2.022 . S
Co205 N222 1.993 . S
Co205 O230 1.941 . S
C206 O207 1.258 . S
C206 O208 1.263 . S
O207 Co204 1.970 . S
O207 C206 1.258 . S
O208 Co205 1.966 . S
O208 C206 1.263 . S
C209 O210 1.235 . S
C209 O236 1.289 . S
O210 C209 1.235 . S
C211 C213 1.400 . S
C211 N214 1.351 . S
C211 C216 1.501 . S
C212 C213 1.387 . S
C212 N215 1.341 . S
C213 C211 1.400 . S
C213 C212 1.387 . S
N214 Co205 2.022 . S
N214 C211 1.351 . S
N214 N215 1.365 . S
N215 C212 1.341 . S
N215 N214 1.365 . S
N215 H235 0.862 . S
C216 C211 1.501 . S
C216 H217 0.961 . S
C216 H218 0.961 . S
C216 H219 0.960 . S
H217 C216 0.961 . S
H218 C216 0.961 . S
H219 C216 0.960 . S
C220 N221 1.342 . S
C220 C224 1.401 . S
C220 C225 1.499 . S
N221 Co204 1.989 . S
N221 C220 1.342 . S
N221 N222 1.388 . S
N222 Co205 1.993 . S
N222 N221 1.388 . S
N222 C223 1.346 . S
C223 N222 1.346 . S
C223 C224 1.396 . S
C223 C233 1.510 . S
C224 C220 1.401 . S
C224 C223 1.396 . S
C225 C220 1.499 . S
C225 H226 0.959 . S
C225 H227 0.960 . S
C225 H228 0.961 . S
H226 C225 0.959 . S
H227 C225 0.960 . S
H228 C225 0.961 . S
O229 Co204 1.967 . S
O229 C237 1.258 . S
O230 Co205 1.941 . S
O230 C237 1.266 . S
H231 C233 0.959 . S
H232 C233 0.961 . S
C233 C223 1.510 . S
C233 H231 0.959 . S
C233 H232 0.961 . S
C233 H234 0.960 . S
H234 C233 0.960 . S
H235 N215 0.862 . S
O236 Co204 1.920 . S
O236 C209 1.289 . S
C237 O229 1.258 . S
C237 O230 1.266 . S
Co238 O241 1.970 1_556 S
Co238 N255 1.989 1_556 S
Co238 O263 1.967 . S
Co238 O270 1.920 . S
Co239 O242 1.966 . S
Co239 N248 2.022 . S
Co239 N256 1.993 . S
Co239 O264 1.941 . S
C240 O241 1.258 . S
C240 O242 1.263 . S
O241 Co238 1.970 1_554 S
O241 C240 1.258 . S
O242 Co239 1.966 . S
O242 C240 1.263 . S
C243 O244 1.235 . S
C243 O270 1.289 . S
O244 C243 1.235 . S
C245 C247 1.400 . S
C245 N248 1.351 . S
C245 C250 1.501 . S
C246 C247 1.387 . S
C246 N249 1.341 . S
C247 C245 1.400 . S
C247 C246 1.387 . S
N248 Co239 2.022 . S
N248 C245 1.351 . S
N248 N249 1.365 . S
N249 C246 1.341 . S
N249 N248 1.365 . S
N249 H269 0.862 . S
C250 C245 1.501 . S
C250 H251 0.961 . S
C250 H252 0.961 . S
C250 H253 0.960 . S
H251 C250 0.961 . S
H252 C250 0.961 . S
H253 C250 0.960 . S
C254 N255 1.342 1_556 S
C254 C258 1.401 1_556 S
C254 C259 1.499 . S
N255 Co238 1.989 1_554 S
N255 C254 1.342 1_554 S
N255 N256 1.388 . S
N256 Co239 1.993 . S
N256 N255 1.388 . S
N256 C257 1.346 . S
C257 N256 1.346 . S
C257 C258 1.396 . S
C257 C267 1.510 . S
C258 C254 1.401 1_554 S
C258 C257 1.396 . S
C259 C254 1.499 . S
C259 H260 0.959 . S
C259 H261 0.960 . S
C259 H262 0.961 . S
H260 C259 0.959 . S
H261 C259 0.960 . S
H262 C259 0.961 . S
O263 Co238 1.967 . S
O263 C271 1.258 1_556 S
O264 Co239 1.941 . S
O264 C271 1.266 . S
H265 C267 0.959 . S
H266 C267 0.961 . S
C267 C257 1.510 . S
C267 H265 0.959 . S
C267 H266 0.961 . S
C267 H268 0.960 . S
H268 C267 0.960 . S
H269 N249 0.862 . S
O270 Co238 1.920 . S
O270 C243 1.289 . S
C271 O263 1.258 1_554 S
C271 O264 1.266 . S
C272 C273 1.349 1_556 S
C272 C274 1.327 . S
C272 H297 0.950 . S
C273 C272 1.349 1_554 S
C273 C289 1.349 . S
C274 C272 1.327 . S
C274 C293 1.429 1_556 S
C274 H298 0.950 . S
C275 C292 1.574 . S
C275 C294 1.368 . S
C275 H299 0.949 . S
H276 C280 0.949 . S
C277 C278 1.349 . S
C277 C279 1.327 . S
C277 H300 0.950 . S
C278 C277 1.349 . S
C278 C290 1.349 1_554 S
C279 C277 1.327 . S
C279 C295 1.429 . S
C279 H301 0.950 . S
C280 H276 0.949 . S
C280 C288 1.574 . S
C280 C296 1.368 1_556 S
H281 C289 0.950 . S
H282 C287 0.950 . S
H283 C288 0.949 . S
H284 C290 0.950 . S
H285 C291 0.950 . S
H286 C292 0.949 . S
C287 H282 0.950 . S
C287 C289 1.327 . S
C287 C293 1.429 . S
C288 C280 1.574 . S
C288 H283 0.949 . S
C288 C294 1.368 1_556 S
C289 C273 1.349 . S
C289 H281 0.950 . S
C289 C287 1.327 . S
C290 C278 1.349 1_556 S
C290 H284 0.950 . S
C290 C291 1.327 . S
C291 H285 0.950 . S
C291 C290 1.327 . S
C291 C295 1.429 1_556 S
C292 C275 1.574 . S
C292 H286 0.949 . S
C292 C296 1.368 . S
C293 C274 1.429 1_554 S
C293 C287 1.429 . S
C293 C294 1.523 . S
C294 C275 1.368 . S
C294 C288 1.368 1_554 S
C294 C293 1.523 . S
C295 C279 1.429 . S
C295 C291 1.429 1_554 S
C295 C296 1.523 . S
C296 C280 1.368 1_554 S
C296 C292 1.368 . S
C296 C295 1.523 . S
H297 C272 0.950 . S
H298 C274 0.950 . S
H299 C275 0.949 . S
H300 C277 0.950 . S
H301 C279 0.950 . S
C302 C303 1.349 . S
C302 C304 1.327 . S
C302 H327 0.950 . S
C303 C302 1.349 . S
C303 C319 1.349 . S
C304 C302 1.327 . S
C304 C323 1.429 . S
C304 H328 0.950 . S
C305 C322 1.574 1_545 S
C305 C324 1.368 . S
C305 H329 0.949 . S
H306 C310 0.949 . S
C307 C308 1.349 . S
C307 C309 1.327 . S
C307 H330 0.950 . S
C308 C307 1.349 . S
C308 C320 1.349 . S
C309 C307 1.327 . S
C309 C325 1.429 . S
C309 H331 0.950 . S
C310 H306 0.949 . S
C310 C318 1.574 . S
C310 C326 1.368 1_545 S
H311 C319 0.950 . S
H312 C317 0.950 . S
H313 C318 0.949 . S
H314 C320 0.950 . S
H315 C321 0.950 . S
H316 C322 0.949 . S
C317 H312 0.950 . S
C317 C319 1.327 . S
C317 C323 1.429 . S
C318 C310 1.574 . S
C318 H313 0.949 . S
C318 C324 1.368 . S
C319 C303 1.349 . S
C319 H311 0.950 . S
C319 C317 1.327 . S
C320 C308 1.349 . S
C320 H314 0.950 . S
C320 C321 1.327 . S
C321 H315 0.950 . S
C321 C320 1.327 . S
C321 C325 1.429 . S
C322 C305 1.574 1_565 S
C322 H316 0.949 . S
C322 C326 1.368 . S
C323 C304 1.429 . S
C323 C317 1.429 . S
C323 C324 1.523 . S
C324 C305 1.368 . S
C324 C318 1.368 . S
C324 C323 1.523 . S
C325 C309 1.429 . S
C325 C321 1.429 . S
C325 C326 1.523 . S
C326 C310 1.368 1_565 S
C326 C322 1.368 . S
C326 C325 1.523 . S
H327 C302 0.950 . S
H328 C304 0.950 . S
H329 C305 0.949 . S
H330 C307 0.950 . S
H331 C309 0.950 . S
C332 C333 1.349 . S
C332 C334 1.327 . S
C332 H357 0.950 . S
C333 C332 1.349 . S
C333 C349 1.349 . S
C334 C332 1.327 . S
C334 C353 1.429 . S
C334 H358 0.950 . S
C335 C352 1.574 . S
C335 C354 1.368 . S
C335 H359 0.949 1_455 S
H336 C340 0.949 . S
C337 C338 1.349 . S
C337 C339 1.327 . S
C337 H360 0.950 . S
C338 C337 1.349 . S
C338 C350 1.349 . S
C339 C337 1.327 . S
C339 C355 1.429 . S
C339 H361 0.950 . S
C340 H336 0.949 . S
C340 C348 1.574 . S
C340 C356 1.368 . S
H341 C349 0.950 . S
H342 C347 0.950 . S
H343 C348 0.949 . S
H344 C350 0.950 . S
H345 C351 0.950 . S
H346 C352 0.949 1_545 S
C347 H342 0.950 . S
C347 C349 1.327 . S
C347 C353 1.429 . S
C348 C340 1.574 . S
C348 H343 0.949 . S
C348 C354 1.368 . S
C349 C333 1.349 . S
C349 H341 0.950 . S
C349 C347 1.327 . S
C350 C338 1.349 . S
C350 H344 0.950 . S
C350 C351 1.327 . S
C351 H345 0.950 . S
C351 C350 1.327 . S
C351 C355 1.429 . S
C352 C335 1.574 . S
C352 H346 0.949 1_565 S
C352 C356 1.368 . S
C353 C334 1.429 . S
C353 C347 1.429 . S
C353 C354 1.523 1_655 S
C354 C335 1.368 . S
C354 C348 1.368 . S
C354 C353 1.523 1_455 S
C355 C339 1.429 . S
C355 C351 1.429 . S
C355 C356 1.523 1_545 S
C356 C340 1.368 . S
C356 C352 1.368 . S
C356 C355 1.523 1_565 S
H357 C332 0.950 . S
H358 C334 0.950 . S
H359 C335 0.949 1_655 S
H360 C337 0.950 . S
H361 C339 0.950 . S
C362 C363 1.349 . S
C362 C364 1.327 . S
C362 H387 0.950 . S
C363 C362 1.349 . S
C363 C379 1.349 . S
C364 C362 1.327 . S
C364 C383 1.429 . S
C364 H388 0.950 . S
C365 C382 1.574 1_455 S
C365 C384 1.368 . S
C365 H389 0.949 . S
H366 C370 0.949 . S
C367 C368 1.349 . S
C367 C369 1.327 . S
C367 H390 0.950 . S
C368 C367 1.349 . S
C368 C380 1.349 . S
C369 C367 1.327 . S
C369 C385 1.429 . S
C369 H391 0.950 . S
C370 H366 0.949 . S
C370 C378 1.574 . S
C370 C386 1.368 . S
H371 C379 0.950 . S
H372 C377 0.950 . S
H373 C378 0.949 . S
H374 C380 0.950 . S
H375 C381 0.950 . S
H376 C382 0.949 . S
C377 H372 0.950 . S
C377 C379 1.327 . S
C377 C383 1.429 . S
C378 C370 1.574 . S
C378 H373 0.949 . S
C378 C384 1.368 1_655 S
C379 C363 1.349 . S
C379 H371 0.950 . S
C379 C377 1.327 . S
C380 C368 1.349 . S
C380 H374 0.950 . S
C380 C381 1.327 . S
C381 H375 0.950 . S
C381 C380 1.327 . S
C381 C385 1.429 . S
C382 C365 1.574 1_655 S
C382 H376 0.949 . S
C382 C386 1.368 . S
C383 C364 1.429 . S
C383 C377 1.429 . S
C383 C384 1.523 . S
C384 C365 1.368 . S
C384 C378 1.368 1_455 S
C384 C383 1.523 . S
C385 C369 1.429 . S
C385 C381 1.429 . S
C385 C386 1.523 . S
C386 C370 1.368 . S
C386 C382 1.368 . S
C386 C385 1.523 . S
H387 C362 0.950 . S
H388 C364 0.950 . S
H389 C365 0.949 . S
H390 C367 0.950 . S
H391 C369 0.950 . S
C392 C393 1.349 . S
C392 C394 1.327 . S
C392 H417 0.950 . S
C393 C392 1.349 . S
C393 C409 1.349 . S
C394 C392 1.327 . S
C394 C413 1.429 . S
C394 H418 0.950 . S
C395 C412 1.574 . S
C395 C414 1.368 . S
C395 H419 0.949 . S
H396 C400 0.949 . S
C397 C398 1.349 . S
C397 C399 1.327 . S
C397 H420 0.950 . S
C398 C397 1.349 . S
C398 C410 1.349 . S
C399 C397 1.327 . S
C399 C415 1.429 . S
C399 H421 0.950 . S
C400 H396 0.949 . S
C400 C408 1.574 . S
C400 C416 1.368 . S
H401 C409 0.950 . S
H402 C407 0.950 . S
H403 C408 0.949 . S
H404 C410 0.950 . S
H405 C411 0.950 . S
H406 C412 0.949 . S
C407 H402 0.950 . S
C407 C409 1.327 . S
C407 C413 1.429 . S
C408 C400 1.574 . S
C408 H403 0.949 . S
C408 C414 1.368 . S
C409 C393 1.349 . S
C409 H401 0.950 . S
C409 C407 1.327 . S
C410 C398 1.349 . S
C410 H404 0.950 . S
C410 C411 1.327 . S
C411 H405 0.950 . S
C411 C410 1.327 . S
C411 C415 1.429 . S
C412 C395 1.574 . S
C412 H406 0.949 . S
C412 C416 1.368 . S
C413 C394 1.429 . S
C413 C407 1.429 . S
C413 C414 1.523 . S
C414 C395 1.368 . S
C414 C408 1.368 . S
C414 C413 1.523 . S
C415 C399 1.429 . S
C415 C411 1.429 . S
C415 C416 1.523 . S
C416 C400 1.368 . S
C416 C412 1.368 . S
C416 C415 1.523 . S
H417 C392 0.950 . S
H418 C394 0.950 . S
H419 C395 0.949 . S
H420 C397 0.950 . S
H421 C399 0.950 . S
C422 C423 1.349 . S
C422 C424 1.327 . S
C422 H447 0.950 . S
C423 C422 1.349 . S
C423 C439 1.349 . S
C424 C422 1.327 . S
C424 C443 1.429 . S
C424 H448 0.950 . S
C425 C442 1.574 . S
C425 C444 1.368 . S
C425 H449 0.949 . S
H426 C430 0.949 . S
C427 C428 1.349 . S
C427 C429 1.327 . S
C427 H450 0.950 . S
C428 C427 1.349 . S
C428 C440 1.349 . S
C429 C427 1.327 . S
C429 C445 1.429 . S
C429 H451 0.950 . S
C430 H426 0.949 . S
C430 C438 1.574 . S
C430 C446 1.368 . S
H431 C439 0.950 . S
H432 C437 0.950 . S
H433 C438 0.949 . S
H434 C440 0.950 . S
H435 C441 0.950 . S
H436 C442 0.949 . S
C437 H432 0.950 . S
C437 C439 1.327 . S
C437 C443 1.429 . S
C438 C430 1.574 . S
C438 H433 0.949 . S
C438 C444 1.368 . S
C439 C423 1.349 . S
C439 H431 0.950 . S
C439 C437 1.327 . S
C440 C428 1.349 . S
C440 H434 0.950 . S
C440 C441 1.327 . S
C441 H435 0.950 . S
C441 C440 1.327 . S
C441 C445 1.429 . S
C442 C425 1.574 . S
C442 H436 0.949 . S
C442 C446 1.368 . S
C443 C424 1.429 . S
C443 C437 1.429 . S
C443 C444 1.523 . S
C444 C425 1.368 . S
C444 C438 1.368 . S
C444 C443 1.523 . S
C445 C429 1.429 . S
C445 C441 1.429 . S
C445 C446 1.523 . S
C446 C430 1.368 . S
C446 C442 1.368 . S
C446 C445 1.523 . S
H447 C422 0.950 . S
H448 C424 0.950 . S
H449 C425 0.949 . S
H450 C427 0.950 . S
H451 C429 0.950 . S
C452 C453 1.349 . S
C452 C454 1.327 . S
C452 H477 0.950 . S
C453 C452 1.349 . S
C453 C469 1.349 . S
C454 C452 1.327 . S
C454 C473 1.429 . S
C454 H478 0.950 . S
C455 C472 1.574 . S
C455 C474 1.368 . S
C455 H479 0.949 . S
H456 C460 0.949 . S
C457 C458 1.349 . S
C457 C459 1.327 . S
C457 H480 0.950 . S
C458 C457 1.349 . S
C458 C470 1.349 . S
C459 C457 1.327 . S
C459 C475 1.429 . S
C459 H481 0.950 . S
C460 H456 0.949 . S
C460 C468 1.574 . S
C460 C476 1.368 . S
H461 C469 0.950 . S
H462 C467 0.950 . S
H463 C468 0.949 . S
H464 C470 0.950 . S
H465 C471 0.950 . S
H466 C472 0.949 . S
C467 H462 0.950 . S
C467 C469 1.327 . S
C467 C473 1.429 . S
C468 C460 1.574 . S
C468 H463 0.949 . S
C468 C474 1.368 . S
C469 C453 1.349 . S
C469 H461 0.950 . S
C469 C467 1.327 . S
C470 C458 1.349 . S
C470 H464 0.950 . S
C470 C471 1.327 . S
C471 H465 0.950 . S
C471 C470 1.327 . S
C471 C475 1.429 . S
C472 C455 1.574 . S
C472 H466 0.949 . S
C472 C476 1.368 . S
C473 C454 1.429 . S
C473 C467 1.429 . S
C473 C474 1.523 1_556 S
C474 C455 1.368 . S
C474 C468 1.368 . S
C474 C473 1.523 1_554 S
C475 C459 1.429 . S
C475 C471 1.429 . S
C475 C476 1.523 . S
C476 C460 1.368 . S
C476 C472 1.368 . S
C476 C475 1.523 . S
H477 C452 0.950 . S
H478 C454 0.950 . S
H479 C455 0.949 . S
H480 C457 0.950 . S
H481 C459 0.950 . S
C482 C483 1.349 . S
C482 C484 1.327 . S
C482 H507 0.950 . S
C483 C482 1.349 . S
C483 C499 1.349 . S
C484 C482 1.327 . S
C484 C503 1.429 . S
C484 H508 0.950 . S
C485 C502 1.574 . S
C485 C504 1.368 . S
C485 H509 0.949 . S
H486 C490 0.949 . S
C487 C488 1.349 . S
C487 C489 1.327 . S
C487 H510 0.950 . S
C488 C487 1.349 . S
C488 C500 1.349 . S
C489 C487 1.327 . S
C489 C505 1.429 . S
C489 H511 0.950 . S
C490 H486 0.949 . S
C490 C498 1.574 . S
C490 C506 1.368 . S
H491 C499 0.950 . S
H492 C497 0.950 . S
H493 C498 0.949 . S
H494 C500 0.950 . S
H495 C501 0.950 . S
H496 C502 0.949 . S
C497 H492 0.950 . S
C497 C499 1.327 . S
C497 C503 1.429 . S
C498 C490 1.574 . S
C498 H493 0.949 . S
C498 C504 1.368 . S
C499 C483 1.349 . S
C499 H491 0.950 . S
C499 C497 1.327 . S
C500 C488 1.349 . S
C500 H494 0.950 . S
C500 C501 1.327 . S
C501 H495 0.950 . S
C501 C500 1.327 . S
C501 C505 1.429 . S
C502 C485 1.574 . S
C502 H496 0.949 . S
C502 C506 1.368 . S
C503 C484 1.429 . S
C503 C497 1.429 . S
C503 C504 1.523 . S
C504 C485 1.368 . S
C504 C498 1.368 . S
C504 C503 1.523 . S
C505 C489 1.429 . S
C505 C501 1.429 . S
C505 C506 1.523 . S
C506 C490 1.368 . S
C506 C502 1.368 . S
C506 C505 1.523 . S
H507 C482 0.950 . S
H508 C484 0.950 . S
H509 C485 0.949 . S
H510 C487 0.950 . S
H511 C489 0.950 . S
C512 C513 1.349 . S
C512 C514 1.327 . S
C512 H537 0.950 . S
C513 C512 1.349 . S
C513 C529 1.349 . S
C514 C512 1.327 . S
C514 C533 1.429 . S
C514 H538 0.950 . S
C515 C532 1.574 . S
C515 C534 1.368 . S
C515 H539 0.949 . S
H516 C520 0.949 . S
C517 C518 1.349 . S
C517 C519 1.327 . S
C517 H540 0.950 . S
C518 C517 1.349 . S
C518 C530 1.349 . S
C519 C517 1.327 . S
C519 C535 1.429 . S
C519 H541 0.950 . S
C520 H516 0.949 . S
C520 C528 1.574 . S
C520 C536 1.368 . S
H521 C529 0.950 . S
H522 C527 0.950 . S
H523 C528 0.949 . S
H524 C530 0.950 . S
H525 C531 0.950 . S
H526 C532 0.949 . S
C527 H522 0.950 . S
C527 C529 1.327 . S
C527 C533 1.429 . S
C528 C520 1.574 . S
C528 H523 0.949 . S
C528 C534 1.368 . S
C529 C513 1.349 . S
C529 H521 0.950 . S
C529 C527 1.327 . S
C530 C518 1.349 . S
C530 H524 0.950 . S
C530 C531 1.327 . S
C531 H525 0.950 . S
C531 C530 1.327 . S
C531 C535 1.429 . S
C532 C515 1.574 . S
C532 H526 0.949 . S
C532 C536 1.368 . S
C533 C514 1.429 . S
C533 C527 1.429 . S
C533 C534 1.523 . S
C534 C515 1.368 . S
C534 C528 1.368 . S
C534 C533 1.523 . S
C535 C519 1.429 . S
C535 C531 1.429 . S
C535 C536 1.523 . S
C536 C520 1.368 . S
C536 C532 1.368 . S
C536 C535 1.523 . S
H537 C512 0.950 . S
H538 C514 0.950 . S
H539 C515 0.949 . S
H540 C517 0.950 . S
H541 C519 0.950 . S
C542 C543 1.349 . S
C542 C544 1.327 . S
C542 H567 0.950 . S
C543 C542 1.349 . S
C543 C559 1.349 . S
C544 C542 1.327 . S
C544 C563 1.429 . S
C544 H568 0.950 . S
C545 C562 1.574 1_554 S
C545 C564 1.368 . S
C545 H569 0.949 . S
H546 C550 0.949 . S
C547 C548 1.349 . S
C547 C549 1.327 . S
C547 H570 0.950 . S
C548 C547 1.349 . S
C548 C560 1.349 . S
C549 C547 1.327 . S
C549 C565 1.429 . S
C549 H571 0.950 . S
C550 H546 0.949 . S
C550 C558 1.574 1_556 S
C550 C566 1.368 . S
H551 C559 0.950 . S
H552 C557 0.950 . S
H553 C558 0.949 . S
H554 C560 0.950 . S
H555 C561 0.950 . S
H556 C562 0.949 . S
C557 H552 0.950 . S
C557 C559 1.327 . S
C557 C563 1.429 . S
C558 C550 1.574 1_554 S
C558 H553 0.949 . S
C558 C564 1.368 . S
C559 C543 1.349 . S
C559 H551 0.950 . S
C559 C557 1.327 . S
C560 C548 1.349 . S
C560 H554 0.950 . S
C560 C561 1.327 . S
C561 H555 0.950 . S
C561 C560 1.327 . S
C561 C565 1.429 . S
C562 C545 1.574 1_556 S
C562 H556 0.949 . S
C562 C566 1.368 . S
C563 C544 1.429 . S
C563 C557 1.429 . S
C563 C564 1.523 . S
C564 C545 1.368 . S
C564 C558 1.368 . S
C564 C563 1.523 . S
C565 C549 1.429 . S
C565 C561 1.429 . S
C565 C566 1.523 . S
C566 C550 1.368 . S
C566 C562 1.368 . S
C566 C565 1.523 . S
H567 C542 0.950 . S
H568 C544 0.950 . S
H569 C545 0.949 . S
H570 C547 0.950 . S
H571 C549 0.950 . S
C572 C573 1.349 . S
C572 C574 1.327 . S
C572 H597 0.950 . S
C573 C572 1.349 . S
C573 C589 1.349 . S
C574 C572 1.327 . S
C574 C593 1.429 . S
C574 H598 0.950 . S
C575 C592 1.574 . S
C575 C594 1.368 . S
C575 H599 0.949 . S
H576 C580 0.949 . S
C577 C578 1.349 1_554 S
C577 C579 1.327 . S
C577 H600 0.957 . S
C578 C577 1.349 1_556 S
C578 C590 1.349 1_556 S
C579 C577 1.327 . S
C579 C595 1.429 . S
C579 H601 0.950 . S
C580 H576 0.949 . S
C580 C588 1.574 . S
C580 C596 1.368 . S
H581 C589 0.950 . S
H582 C587 0.950 . S
H583 C588 0.949 . S
H584 C590 0.950 1_556 S
H585 C591 0.950 . S
H586 C592 0.949 . S
C587 H582 0.950 . S
C587 C589 1.327 . S
C587 C593 1.429 . S
C588 C580 1.574 . S
C588 H583 0.949 . S
C588 C594 1.368 . S
C589 C573 1.349 . S
C589 H581 0.950 . S
C589 C587 1.327 . S
C590 C578 1.349 1_554 S
C590 H584 0.950 1_554 S
C590 C591 1.327 . S
C591 H585 0.950 . S
C591 C590 1.327 . S
C591 C595 1.429 . S
C592 C575 1.574 . S
C592 H586 0.949 . S
C592 C596 1.368 . S
C593 C574 1.429 . S
C593 C587 1.429 . S
C593 C594 1.523 . S
C594 C575 1.368 . S
C594 C588 1.368 . S
C594 C593 1.523 . S
C595 C579 1.429 . S
C595 C591 1.429 . S
C595 C596 1.523 . S
C596 C580 1.368 . S
C596 C592 1.368 . S
C596 C595 1.523 . S
H597 C572 0.950 . S
H598 C574 0.950 . S
H599 C575 0.949 . S
H600 C577 0.957 . S
H601 C579 0.950 . S
C602 C603 1.349 . S
C602 C604 1.327 . S
C602 H627 0.950 . S
C603 C602 1.349 . S
C603 C619 1.349 . S
C604 C602 1.327 . S
C604 C623 1.429 . S
C604 H628 0.950 . S
C605 C622 1.574 . S
C605 C624 1.368 . S
C605 H629 0.949 . S
H606 C610 0.949 . S
C607 C608 1.349 . S
C607 C609 1.327 . S
C607 H630 0.950 . S
C608 C607 1.349 . S
C608 C620 1.349 . S
C609 C607 1.327 . S
C609 C625 1.429 . S
C609 H631 0.950 . S
C610 H606 0.949 . S
C610 C618 1.574 . S
C610 C626 1.368 . S
H611 C619 0.950 . S
H612 C617 0.950 . S
H613 C618 0.949 . S
H614 C620 0.950 . S
H615 C621 0.950 . S
H616 C622 0.949 . S
C617 H612 0.950 . S
C617 C619 1.327 . S
C617 C623 1.429 . S
C618 C610 1.574 . S
C618 H613 0.949 . S
C618 C624 1.368 . S
C619 C603 1.349 . S
C619 H611 0.950 . S
C619 C617 1.327 . S
C620 C608 1.349 . S
C620 H614 0.950 . S
C620 C621 1.327 . S
C621 H615 0.950 . S
C621 C620 1.327 . S
C621 C625 1.429 . S
C622 C605 1.574 . S
C622 H616 0.949 . S
C622 C626 1.368 . S
C623 C604 1.429 . S
C623 C617 1.429 . S
C623 C624 1.523 . S
C624 C605 1.368 . S
C624 C618 1.368 . S
C624 C623 1.523 . S
C625 C609 1.429 . S
C625 C621 1.429 . S
C625 C626 1.523 . S
C626 C610 1.368 . S
C626 C622 1.368 . S
C626 C625 1.523 . S
H627 C602 0.950 . S
H628 C604 0.950 . S
H629 C605 0.949 . S
H630 C607 0.950 . S
H631 C609 0.950 . S
C632 C633 1.349 . S
C632 C634 1.327 . S
C632 H657 0.950 . S
C633 C632 1.349 . S
C633 C649 1.349 . S
C634 C632 1.327 . S
C634 C653 1.429 . S
C634 H658 0.950 . S
C635 C652 1.574 . S
C635 C654 1.368 . S
C635 H659 0.949 . S
H636 C640 0.949 . S
C637 C638 1.352 . S
C637 C639 1.335 . S
C637 H660 0.939 1_556 S
C638 C637 1.352 . S
C638 C650 1.349 . S
C639 C637 1.335 . S
C639 C655 1.429 . S
C639 H661 0.950 . S
C640 H636 0.949 . S
C640 C648 1.574 . S
C640 C656 1.368 . S
H641 C649 0.950 . S
H642 C647 0.950 . S
H643 C648 0.949 . S
H644 C650 0.950 . S
H645 C651 0.950 . S
H646 C652 0.949 . S
C647 H642 0.950 . S
C647 C649 1.327 . S
C647 C653 1.429 . S
C648 C640 1.574 . S
C648 H643 0.949 . S
C648 C654 1.368 . S
C649 C633 1.349 . S
C649 H641 0.950 . S
C649 C647 1.327 . S
C650 C638 1.349 . S
C650 H644 0.950 . S
C650 C651 1.327 . S
C651 H645 0.950 . S
C651 C650 1.327 . S
C651 C655 1.429 . S
C652 C635 1.574 . S
C652 H646 0.949 . S
C652 C656 1.368 . S
C653 C634 1.429 . S
C653 C647 1.429 . S
C653 C654 1.523 . S
C654 C635 1.368 . S
C654 C648 1.368 . S
C654 C653 1.523 . S
C655 C639 1.429 . S
C655 C651 1.429 . S
C655 C656 1.523 . S
C656 C640 1.368 . S
C656 C652 1.368 . S
C656 C655 1.523 . S
H657 C632 0.950 . S
H658 C634 0.950 . S
H659 C635 0.949 . S
H660 C637 0.939 1_554 S
H661 C639 0.950 . S
C662 C663 1.349 . S
C662 C664 1.327 . S
C662 H687 0.950 . S
C663 C662 1.349 . S
C663 C679 1.349 . S
C664 C662 1.327 . S
C664 C683 1.429 . S
C664 H688 0.950 . S
C665 C682 1.574 . S
C665 C684 1.368 . S
C665 H689 0.949 . S
H666 C670 0.949 . S
C667 C668 1.349 . S
C667 C669 1.327 . S
C667 H690 0.950 . S
C668 C667 1.349 . S
C668 C680 1.349 . S
C669 C667 1.327 . S
C669 C685 1.429 . S
C669 H691 0.950 . S
C670 H666 0.949 . S
C670 C678 1.574 . S
C670 C686 1.368 . S
H671 C679 0.950 . S
H672 C677 0.950 . S
H673 C678 0.949 . S
H674 C680 0.950 . S
H675 C681 0.950 . S
H676 C682 0.949 . S
C677 H672 0.950 . S
C677 C679 1.327 . S
C677 C683 1.429 . S
C678 C670 1.574 . S
C678 H673 0.949 . S
C678 C684 1.368 . S
C679 C663 1.349 . S
C679 H671 0.950 . S
C679 C677 1.327 . S
C680 C668 1.349 . S
C680 H674 0.950 . S
C680 C681 1.327 . S
C681 H675 0.950 . S
C681 C680 1.327 . S
C681 C685 1.429 . S
C682 C665 1.574 . S
C682 H676 0.949 . S
C682 C686 1.368 . S
C683 C664 1.429 . S
C683 C677 1.429 . S
C683 C684 1.523 . S
C684 C665 1.368 . S
C684 C678 1.368 . S
C684 C683 1.523 . S
C685 C669 1.429 . S
C685 C681 1.429 . S
C685 C686 1.523 . S
C686 C670 1.368 . S
C686 C682 1.368 . S
C686 C685 1.523 . S
H687 C662 0.950 . S
H688 C664 0.950 . S
H689 C665 0.949 . S
H690 C667 0.950 . S
H691 C669 0.950 . S
C692 C693 1.349 . S
C692 C694 1.327 . S
C692 H717 0.950 . S
C693 C692 1.349 . S
C693 C709 1.349 . S
C694 C692 1.327 . S
C694 C713 1.429 . S
C694 H718 0.950 . S
C695 C712 1.574 . S
C695 C714 1.368 . S
C695 H719 0.949 . S
H696 C700 0.949 . S
C697 C698 1.349 . S
C697 C699 1.327 . S
C697 H720 0.950 . S
C698 C697 1.349 . S
C698 C710 1.349 . S
C699 C697 1.327 . S
C699 C715 1.429 . S
C699 H721 0.950 . S
C700 H696 0.949 . S
C700 C708 1.574 . S
C700 C716 1.368 . S
H701 C709 0.950 . S
H702 C707 0.950 . S
H703 C708 0.949 . S
H704 C710 0.950 . S
H705 C711 0.950 . S
H706 C712 0.949 . S
C707 H702 0.950 . S
C707 C709 1.327 . S
C707 C713 1.429 . S
C708 C700 1.574 . S
C708 H703 0.949 . S
C708 C714 1.368 . S
C709 C693 1.349 . S
C709 H701 0.950 . S
C709 C707 1.327 . S
C710 C698 1.349 . S
C710 H704 0.950 . S
C710 C711 1.327 . S
C711 H705 0.950 . S
C711 C710 1.327 . S
C711 C715 1.429 . S
C712 C695 1.574 . S
C712 H706 0.949 . S
C712 C716 1.368 . S
C713 C694 1.429 . S
C713 C707 1.429 . S
C713 C714 1.523 . S
C714 C695 1.368 . S
C714 C708 1.368 . S
C714 C713 1.523 . S
C715 C699 1.429 . S
C715 C711 1.429 . S
C715 C716 1.523 . S
C716 C700 1.368 . S
C716 C712 1.368 . S
C716 C715 1.523 . S
H717 C692 0.950 . S
H718 C694 0.950 . S
H719 C695 0.949 . S
H720 C697 0.950 . S
H721 C699 0.950 . S
C722 C723 1.349 . S
C722 C724 1.327 . S
C722 H747 0.950 . S
C723 C722 1.349 . S
C723 C739 1.349 . S
C724 C722 1.327 . S
C724 C743 1.429 . S
C724 H748 0.950 . S
C725 C742 1.574 . S
C725 C744 1.368 . S
C725 H749 0.949 . S
H726 C730 0.949 . S
C727 C728 1.349 . S
C727 C729 1.327 . S
C727 H750 0.950 . S
C728 C727 1.349 . S
C728 C740 1.349 . S
C729 C727 1.327 . S
C729 C745 1.429 . S
C729 H751 0.950 . S
C730 H726 0.949 . S
C730 C738 1.574 . S
C730 C746 1.368 . S
H731 C739 0.950 . S
H732 C737 0.950 . S
H733 C738 0.949 . S
H734 C740 0.950 . S
H735 C741 0.950 . S
H736 C742 0.949 . S
C737 H732 0.950 . S
C737 C739 1.327 . S
C737 C743 1.429 . S
C738 C730 1.574 . S
C738 H733 0.949 . S
C738 C744 1.368 . S
C739 C723 1.349 . S
C739 H731 0.950 . S
C739 C737 1.327 . S
C740 C728 1.349 . S
C740 H734 0.950 . S
C740 C741 1.327 . S
C741 H735 0.950 . S
C741 C740 1.327 . S
C741 C745 1.429 . S
C742 C725 1.574 . S
C742 H736 0.949 . S
C742 C746 1.368 . S
C743 C724 1.429 . S
C743 C737 1.429 . S
C743 C744 1.523 . S
C744 C725 1.368 . S
C744 C738 1.368 . S
C744 C743 1.523 . S
C745 C729 1.429 . S
C745 C741 1.429 . S
C745 C746 1.523 . S
C746 C730 1.368 . S
C746 C742 1.368 . S
C746 C745 1.523 . S
H747 C722 0.950 . S
H748 C724 0.950 . S
H749 C725 0.949 . S
H750 C727 0.950 . S
H751 C729 0.950 . S
C752 C753 1.349 . S
C752 C754 1.327 . S
C752 H777 0.950 . S
C753 C752 1.349 . S
C753 C769 1.349 . S
C754 C752 1.327 . S
C754 C773 1.429 . S
C754 H778 0.950 . S
C755 C772 1.574 . S
C755 C774 1.368 . S
C755 H779 0.949 . S
H756 C760 0.949 . S
C757 C758 1.349 . S
C757 C759 1.327 . S
C757 H780 0.950 . S
C758 C757 1.349 . S
C758 C770 1.349 . S
C759 C757 1.327 . S
C759 C775 1.429 . S
C759 H781 0.950 . S
C760 H756 0.949 . S
C760 C768 1.574 . S
C760 C776 1.368 . S
H761 C769 0.950 . S
H762 C767 0.950 . S
H763 C768 0.949 . S
H764 C770 0.950 . S
H765 C771 0.950 . S
H766 C772 0.949 . S
C767 H762 0.950 . S
C767 C769 1.327 . S
C767 C773 1.429 . S
C768 C760 1.574 . S
C768 H763 0.949 . S
C768 C774 1.368 . S
C769 C753 1.349 . S
C769 H761 0.950 . S
C769 C767 1.327 . S
C770 C758 1.349 . S
C770 H764 0.950 . S
C770 C771 1.327 . S
C771 H765 0.950 . S
C771 C770 1.327 . S
C771 C775 1.429 . S
C772 C755 1.574 . S
C772 H766 0.949 . S
C772 C776 1.368 . S
C773 C754 1.429 . S
C773 C767 1.429 . S
C773 C774 1.523 . S
C774 C755 1.368 . S
C774 C768 1.368 . S
C774 C773 1.523 . S
C775 C759 1.429 . S
C775 C771 1.429 . S
C775 C776 1.523 . S
C776 C760 1.368 . S
C776 C772 1.368 . S
C776 C775 1.523 . S
H777 C752 0.950 . S
H778 C754 0.950 . S
H779 C755 0.949 . S
H780 C757 0.950 . S
H781 C759 0.950 . S
C782 C783 1.349 . S
C782 C784 1.327 . S
C782 H807 0.950 . S
C783 C782 1.349 . S
C783 C799 1.349 . S
C784 C782 1.327 . S
C784 C803 1.429 . S
C784 H808 0.950 . S
C785 C802 1.574 . S
C785 C804 1.368 . S
C785 H809 0.949 . S
H786 C790 0.949 . S
C787 C788 1.349 . S
C787 C789 1.327 . S
C787 H810 0.950 . S
C788 C787 1.349 . S
C788 C800 1.349 . S
C789 C787 1.327 . S
C789 C805 1.429 . S
C789 H811 0.950 . S
C790 H786 0.949 . S
C790 C798 1.574 . S
C790 C806 1.368 . S
H791 C799 0.950 . S
H792 C797 0.950 . S
H793 C798 0.949 . S
H794 C800 0.950 . S
H795 C801 0.950 . S
H796 C802 0.949 . S
C797 H792 0.950 . S
C797 C799 1.327 . S
C797 C803 1.429 . S
C798 C790 1.574 . S
C798 H793 0.949 . S
C798 C804 1.368 . S
C799 C783 1.349 . S
C799 H791 0.950 . S
C799 C797 1.327 . S
C800 C788 1.349 . S
C800 H794 0.950 . S
C800 C801 1.327 . S
C801 H795 0.950 . S
C801 C800 1.327 . S
C801 C805 1.429 . S
C802 C785 1.574 . S
C802 H796 0.949 . S
C802 C806 1.368 . S
C803 C784 1.429 . S
C803 C797 1.429 . S
C803 C804 1.523 . S
C804 C785 1.368 . S
C804 C798 1.368 . S
C804 C803 1.523 . S
C805 C789 1.429 . S
C805 C801 1.429 . S
C805 C806 1.523 . S
C806 C790 1.368 . S
C806 C802 1.368 . S
C806 C805 1.523 . S
H807 C782 0.950 . S
H808 C784 0.950 . S
H809 C785 0.949 . S
H810 C787 0.950 . S
H811 C789 0.950 . S
C812 C813 1.349 1_556 S
C812 C814 1.327 . S
C812 H837 0.950 . S
C813 C812 1.349 1_554 S
C813 C829 1.349 . S
C814 C812 1.327 . S
C814 C833 1.429 . S
C814 H838 0.950 . S
C815 C832 1.574 . S
C815 C834 1.368 . S
C815 H839 0.949 . S
H816 C820 0.949 . S
C817 C818 1.349 . S
C817 C819 1.327 . S
C817 H840 0.950 . S
C818 C817 1.349 . S
C818 C830 1.349 . S
C819 C817 1.327 . S
C819 C835 1.429 . S
C819 H841 0.950 . S
C820 H816 0.949 . S
C820 C828 1.574 . S
C820 C836 1.368 . S
H821 C829 0.950 . S
H822 C827 0.950 . S
H823 C828 0.949 . S
H824 C830 0.950 . S
H825 C831 0.950 . S
H826 C832 0.949 . S
C827 H822 0.950 . S
C827 C829 1.327 . S
C827 C833 1.429 1_554 S
C828 C820 1.574 . S
C828 H823 0.949 . S
C828 C834 1.368 . S
C829 C813 1.349 . S
C829 H821 0.950 . S
C829 C827 1.327 . S
C830 C818 1.349 . S
C830 H824 0.950 . S
C830 C831 1.327 . S
C831 H825 0.950 . S
C831 C830 1.327 . S
C831 C835 1.429 . S
C832 C815 1.574 . S
C832 H826 0.949 . S
C832 C836 1.368 . S
C833 C814 1.429 . S
C833 C827 1.429 1_556 S
C833 C834 1.523 . S
C834 C815 1.368 . S
C834 C828 1.368 . S
C834 C833 1.523 . S
C835 C819 1.429 . S
C835 C831 1.429 . S
C835 C836 1.523 . S
C836 C820 1.368 . S
C836 C832 1.368 . S
C836 C835 1.523 . S
H837 C812 0.950 . S
H838 C814 0.950 . S
H839 C815 0.949 . S
H840 C817 0.950 . S
H841 C819 0.950 . S
C842 C843 1.349 . S
C842 C844 1.327 . S
C842 H867 0.950 . S
C843 C842 1.349 . S
C843 C859 1.349 . S
C844 C842 1.327 . S
C844 C863 1.429 . S
C844 H868 0.950 . S
C845 C862 1.574 . S
C845 C864 1.368 . S
C845 H869 0.949 . S
H846 C850 0.949 . S
C847 C848 1.349 . S
C847 C849 1.327 . S
C847 H870 0.950 . S
C848 C847 1.349 . S
C848 C860 1.349 . S
C849 C847 1.327 . S
C849 C865 1.429 . S
C849 H871 0.950 . S
C850 H846 0.949 . S
C850 C858 1.574 . S
C850 C866 1.368 . S
H851 C859 0.950 . S
H852 C857 0.950 . S
H853 C858 0.949 . S
H854 C860 0.950 . S
H855 C861 0.950 . S
H856 C862 0.949 . S
C857 H852 0.950 . S
C857 C859 1.327 . S
C857 C863 1.429 . S
C858 C850 1.574 . S
C858 H853 0.949 . S
C858 C864 1.368 . S
C859 C843 1.349 . S
C859 H851 0.950 . S
C859 C857 1.327 . S
C860 C848 1.349 . S
C860 H854 0.950 . S
C860 C861 1.327 . S
C861 H855 0.950 . S
C861 C860 1.327 . S
C861 C865 1.429 . S
C862 C845 1.574 . S
C862 H856 0.949 . S
C862 C866 1.368 . S
C863 C844 1.429 . S
C863 C857 1.429 . S
C863 C864 1.523 . S
C864 C845 1.368 . S
C864 C858 1.368 . S
C864 C863 1.523 . S
C865 C849 1.429 . S
C865 C861 1.429 . S
C865 C866 1.523 . S
C866 C850 1.368 . S
C866 C862 1.368 . S
C866 C865 1.523 . S
H867 C842 0.950 . S
H868 C844 0.950 . S
H869 C845 0.949 . S
H870 C847 0.950 . S
H871 C849 0.950 . S
C273 C258 1.388 . S
C278 C20 1.389 . S
C303 C156 1.508 . S
C308 C54 1.503 . S
C333 C190 1.662 . S
C338 C88 1.659 . S
C363 C224 1.539 . S
C368 C122 1.528 . S
C393 C5 1.159 . S
C398 C9 1.130 . S
C423 C43 1.111 . S
C428 C39 1.124 . S
C453 C77 1.127 . S
C458 C73 1.153 . S
C483 C111 1.164 . S
C488 C107 1.187 . S
C513 C145 1.153 1_556 S
C518 C141 1.175 . S
C543 C179 1.164 . S
C548 C175 1.188 . S
C573 C213 1.097 . S
C578 C209 1.129 . S
C603 C243 1.128 . S
C608 C247 1.097 . S
C633 C237 1.357 . S
C638 C2 1.355 1_556 S
C663 C36 1.293 . S
C668 C240 1.294 . S
C693 C169 1.672 . S
C698 C101 1.661 . S
C723 C135 1.692 . S
C728 C203 1.689 . S
C753 C172 1.715 . S
C758 C67 1.714 . S
C783 C70 1.665 . S
C788 C206 1.664 . S
C813 C271 1.538 . S
C818 C104 1.538 . S
C843 C33 1.602 . S
C848 C138 1.599 . S
