# Generated by pormake.
# Topology tfs, (6)-cn, num edge types: 1
# Building blocks:
#     Node 0, Type 0, BuildingBlock: NUHQIS_clean_sbu_0, # of connection points: 6
#     Node 1, Type 0, BuildingBlock: NUHQIS_clean_sbu_0, # of connection points: 6
#     Node 2, Type 0, BuildingBlock: NUHQIS_clean_sbu_0, # of connection points: 6
#     Node 3, Type 0, BuildingBlock: NUHQIS_clean_sbu_0, # of connection points: 6
#     Node 4, Type 0, BuildingBlock: NUHQIS_clean_sbu_0, # of connection points: 6
#     Node 5, Type 0, BuildingBlock: NUHQIS_clean_sbu_0, # of connection points: 6
#     Edge 6, Type (0, 0), BuildingBlock: UVAHIK_clean_linker_0, # of connection points: 2
#     Edge 7, Type (0, 0), BuildingBlock: UVAHIK_clean_linker_0, # of connection points: 2
#     Edge 8, Type (0, 0), BuildingBlock: UVAHIK_clean_linker_0, # of connection points: 2
#     Edge 9, Type (0, 0), BuildingBlock: UVAHIK_clean_linker_0, # of connection points: 2
#     Edge 10, Type (0, 0), BuildingBlock: UVAHIK_clean_linker_0, # of connection points: 2
#     Edge 11, Type (0, 0), BuildingBlock: UVAHIK_clean_linker_0, # of connection points: 2
#     Edge 12, Type (0, 0), BuildingBlock: UVAHIK_clean_linker_0, # of connection points: 2
#     Edge 13, Type (0, 0), BuildingBlock: UVAHIK_clean_linker_0, # of connection points: 2
#     Edge 14, Type (0, 0), BuildingBlock: UVAHIK_clean_linker_0, # of connection points: 2
#     Edge 15, Type (0, 0), BuildingBlock: UVAHIK_clean_linker_0, # of connection points: 2
#     Edge 16, Type (0, 0), BuildingBlock: UVAHIK_clean_linker_0, # of connection points: 2
#     Edge 17, Type (0, 0), BuildingBlock: UVAHIK_clean_linker_0, # of connection points: 2
#     Edge 18, Type (0, 0), BuildingBlock: UVAHIK_clean_linker_0, # of connection points: 2
#     Edge 19, Type (0, 0), BuildingBlock: UVAHIK_clean_linker_0, # of connection points: 2
#     Edge 20, Type (0, 0), BuildingBlock: UVAHIK_clean_linker_0, # of connection points: 2
#     Edge 21, Type (0, 0), BuildingBlock: UVAHIK_clean_linker_0, # of connection points: 2
#     Edge 22, Type (0, 0), BuildingBlock: UVAHIK_clean_linker_0, # of connection points: 2
#     Edge 23, Type (0, 0), BuildingBlock: UVAHIK_clean_linker_0, # of connection points: 2
# Relax obj value: 0.538
# Max RMSD: 0.385
# Mean RMSD: 0.333
data_MOF--net-tfs--node1-NUHQIS_clean_sbu_0--edge1-UVAHIK_clean_linker_0
_symmetry_space_group_name_H-M    P1
_symmetry_Int_Tables_number       1
_symmetry_cell_setting            triclinic
loop_
_symmetry_equiv_pos_as_xyz
'x, y, z'
_cell_length_a     65.784759
_cell_length_b     58.510732
_cell_length_c     17.517844
_cell_angle_alpha  87.989353
_cell_angle_beta   90.251811
_cell_angle_gamma 119.77492
loop_
_atom_site_label
_atom_site_type_symbol
_atom_site_fract_x
_atom_site_fract_y
_atom_site_fract_z
_atom_type_partial_charge
Tb0 Tb 0.18498 0.41107 0.05111 0.0
Eu1 Eu 0.18325 0.4635 0.1054 0.0
C2 C 0.16094 0.43577 0.95079 0.0
C3 C 0.22443 0.46915 0.00406 0.0
C4 C 0.18004 0.34555 0.053 0.0
C5 C 0.16516 0.29842 0.05116 0.0
C6 C 0.17041 0.32218 0.01313 0.0
C7 C 0.1838 0.34486 0.13168 0.0
C8 C 0.17884 0.32127 0.16946 0.0
C9 C 0.16963 0.29776 0.12965 0.0
C10 C 0.18597 0.37053 0.0126 0.0
O11 O 0.1911 0.41324 0.17278 0.0
O12 O 0.20948 0.45792 0.17372 0.0
O13 O 0.15815 0.43012 0.18277 0.0
O14 O 0.15022 0.39669 0.10215 0.0
C15 C 0.20433 0.43529 0.20716 0.0
O16 O 0.20173 0.50419 0.14045 0.0
O17 O 0.16375 0.48284 0.13827 0.0
O18 O 0.15851 0.44795 0.00812 0.0
O19 O 0.17531 0.4263 0.9521 0.0
O20 O 0.21957 0.44554 0.02985 0.0
O21 O 0.20865 0.47653 0.0071 0.0
C22 C 0.14463 0.40597 0.16111 0.0
O23 O 0.16845 0.37446 -0.00109 0.0
O24 O 0.20405 0.39149 0.03797 0.0
C25 C 0.18268 0.52705 0.09638 0.0
C26 C 0.1813 0.56659 0.00477 0.0
C27 C 0.16963 0.55886 0.07604 0.0
C28 C 0.17038 0.53925 0.12164 0.0
C29 C 0.19383 0.53424 0.02432 0.0
C30 C 0.19331 0.55404 -0.02088 0.0
C31 C 0.18262 0.50575 0.14307 0.0
H32 H 0.15778 0.28065 0.01896 0.0
H33 H 0.16711 0.32235 0.95252 0.0
H34 H 0.19098 0.36265 0.16382 0.0
H35 H 0.18297 0.32173 0.22948 0.0
H36 H 0.16051 0.56852 0.09744 0.0
H37 H 0.16141 0.53364 0.17664 0.0
H38 H 0.20299 0.5246 0.00305 0.0
H39 H 0.20236 0.55962 0.92428 0.0
Tb40 Tb 0.75433 0.22716 0.66369 0.0
Eu41 Eu 0.80501 0.26188 0.57238 0.0
C42 C 0.75812 0.23432 0.48821 0.0
C43 C 0.7796 0.19848 0.59216 0.0
C44 C 0.70534 0.20499 0.80684 0.0
C45 C 0.68269 0.22363 0.85744 0.0
C46 C 0.69689 0.22277 0.79991 0.0
C47 C 0.7007 0.18943 0.87423 0.0
C48 C 0.68663 0.1904 0.93193 0.0
C49 C 0.67675 0.20679 0.92288 0.0
C50 C 0.71761 0.20093 0.7432 0.0
O51 O 0.78221 0.25091 0.74095 0.0
O52 O 0.81096 0.24663 0.68445 0.0
O53 O 0.79623 0.29152 0.62046 0.0
O54 O 0.7565 0.26516 0.64234 0.0
C55 C 0.80087 0.24844 0.74608 0.0
O56 O 0.84096 0.29417 0.56933 0.0
O57 O 0.8261 0.27157 0.46769 0.0
O58 O 0.77489 0.25798 0.5031 0.0
O59 O 0.74871 0.21673 0.54446 0.0
O60 O 0.76728 0.19982 0.64906 0.0
O61 O 0.79345 0.21932 0.5486 0.0
C62 C 0.77538 0.28855 0.63512 0.0
O63 O 0.71819 0.21222 0.67686 0.0
O64 O 0.73758 0.20242 0.75954 0.0
C65 C 0.86721 0.29042 0.48416 0.0
C66 C 0.91171 0.29688 0.44989 0.0
C67 C 0.90489 0.29661 0.52601 0.0
C68 C 0.88284 0.29337 0.54305 0.0
C69 C 0.87377 0.28998 0.40836 0.0
C70 C 0.89575 0.29308 0.39137 0.0
C71 C 0.8449 0.28985 0.49966 0.0
H72 H 0.67519 0.2363 0.8483 0.0
H73 H 0.7004 0.23522 0.74883 0.0
H74 H 0.70724 0.17575 0.88106 0.0
H75 H 0.68264 0.17747 -0.01785 0.0
H76 H 0.91671 0.2992 0.57237 0.0
H77 H 0.8783 0.29375 0.60215 0.0
H78 H 0.86212 0.28796 0.36194 0.0
H79 H 0.90058 0.29351 0.33208 0.0
Tb80 Tb 0.60889 0.80275 0.30146 0.0
Eu81 Eu 0.56632 0.74181 0.25894 0.0
C82 C 0.60237 0.7805 0.14215 0.0
C83 C 0.55987 0.79269 0.22996 0.0
C84 C 0.65761 0.87549 0.35372 0.0
C85 C 0.68621 0.92041 0.3128 0.0
C86 C 0.67171 0.89387 0.29623 0.0
C87 C 0.65905 0.88387 0.42871 0.0
C88 C 0.67386 0.91029 0.44556 0.0
C89 C 0.68718 0.92896 0.38745 0.0
C90 C 0.6396 0.84857 0.33395 0.0
O91 O 0.58857 0.78231 0.40371 0.0
O92 O 0.55243 0.75458 0.35446 0.0
O93 O 0.59057 0.73723 0.34007 0.0
O94 O 0.62429 0.77682 0.31599 0.0
C95 C 0.56554 0.76955 0.40869 0.0
O96 O 0.53949 0.70122 0.28805 0.0
O97 O 0.5498 0.7136 0.16958 0.0
O98 O 0.59794 0.75928 0.18228 0.0
O99 O 0.60519 0.80089 0.17886 0.0
O100 O 0.57859 0.8073 0.27097 0.0
O101 O 0.55409 0.76878 0.20958 0.0
C102 C 0.61351 0.75182 0.34037 0.0
O103 O 0.64211 0.8361 0.27758 0.0
O104 O 0.62027 0.83484 0.37356 0.0
C105 C 0.51105 0.6795 0.19247 0.0
C106 C 0.46448 0.64946 0.14277 0.0
C107 C 0.47017 0.66821 0.19917 0.0
C108 C 0.4933 0.68315 0.22378 0.0
C109 C 0.50549 0.66115 0.13561 0.0
C110 C 0.48249 0.64631 0.1109 0.0
C111 C 0.53555 0.69468 0.21668 0.0
H112 H 0.6964 0.93435 0.26702 0.0
H113 H 0.67077 0.88796 0.23781 0.0
H114 H 0.64827 0.87012 0.47402 0.0
H115 H 0.67412 0.91633 0.50348 0.0
H116 H 0.45671 0.671 0.22524 0.0
H117 H 0.49728 0.69742 0.26736 0.0
H118 H 0.51901 0.65828 0.11016 0.0
H119 H 0.47884 0.63246 0.06634 0.0
Tb120 Tb 0.75124 0.56703 0.52664 0.0
Eu121 Eu 0.69793 0.53013 0.60571 0.0
C122 C 0.73973 0.57576 0.69012 0.0
C123 C 0.73585 0.51064 0.60187 0.0
C124 C 0.815 0.61747 0.46483 0.0
C125 C 0.85429 0.64179 0.51651 0.0
C126 C 0.83048 0.62316 0.52615 0.0
C127 C 0.82348 0.63205 0.39564 0.0
C128 C 0.84723 0.65062 0.38598 0.0
C129 C 0.86309 0.65495 0.44531 0.0
C130 C 0.79165 0.59347 0.46617 0.0
O131 O 0.72799 0.54314 0.43819 0.0
O132 O 0.69697 0.50809 0.50315 0.0
O133 O 0.6967 0.56009 0.52435 0.0
O134 O 0.73539 0.59244 0.52543 0.0
C135 C 0.7099 0.51906 0.44167 0.0
O136 O 0.65985 0.51024 0.60292 0.0
O137 O 0.67721 0.51326 0.711 0.0
O138 O 0.71849 0.56785 0.66628 0.0
O139 O 0.75454 0.57258 0.6485 0.0
O140 O 0.74683 0.52778 0.54519 0.0
O141 O 0.71931 0.51118 0.64247 0.0
C142 C 0.71314 0.58481 0.51291 0.0
O143 O 0.78637 0.57663 0.52355 0.0
O144 O 0.77355 0.59505 0.44241 0.0
C145 C 0.63842 0.4775 0.69946 0.0
C146 C 0.59931 0.42797 0.73937 0.0
C147 C 0.61489 0.43039 0.68063 0.0
C148 C 0.63428 0.45501 0.66063 0.0
C149 C 0.62341 0.47494 0.75967 0.0
C150 C 0.60406 0.45046 0.77944 0.0
C151 C 0.65725 0.50407 0.67596 0.0
H152 H 0.86603 0.64458 0.56328 0.0
H153 H 0.82453 0.61215 0.58015 0.0
H154 H 0.81198 0.62794 0.34732 0.0
H155 H 0.85336 0.66077 0.33085 0.0
H156 H 0.61165 0.41344 0.64852 0.0
H157 H 0.64571 0.45661 0.6139 0.0
H158 H 0.62637 0.49205 0.79047 0.0
H159 H 0.59265 0.44919 0.82577 0.0
Tb160 Tb 0.21932 0.8467 0.13562 0.0
Eu161 Eu 0.27646 0.86453 0.13074 0.0
C162 C 0.25283 0.8868 0.00843 0.0
C163 C 0.2379 0.81575 0.04806 0.0
C164 C 0.15313 0.81835 0.17014 0.0
C165 C 0.11092 0.79788 0.15958 0.0
C166 C 0.13321 0.8112 0.12607 0.0
C167 C 0.15055 0.81237 0.24904 0.0
C168 C 0.12808 0.79896 0.28299 0.0
C169 C 0.10799 0.79127 0.23824 0.0
C170 C 0.17597 0.83131 0.13024 0.0
O171 O 0.22337 0.82202 0.22287 0.0
O172 O 0.26263 0.84722 0.24745 0.0
O173 O 0.27293 0.89883 0.16952 0.0
O174 O 0.23623 0.8746 0.22491 0.0
C175 C 0.24114 0.82999 0.26948 0.0
O176 O 0.31086 0.88059 0.18366 0.0
O177 O 0.30643 0.86841 0.06654 0.0
O178 O 0.2688 0.87995 0.02186 0.0
O179 O 0.23498 0.88006 0.05488 0.0
O180 O 0.227 0.82928 0.04061 0.0
O181 O 0.25495 0.82258 0.09678 0.0
C182 C 0.25659 0.89638 0.21768 0.0
O183 O 0.19176 0.85476 0.15035 0.0
O184 O 0.18508 0.81666 0.11449 0.0
C185 C 0.3369 0.86645 0.13624 0.0
C186 C 0.37235 0.85249 0.15365 0.0
C187 C 0.3648 0.86101 0.21615 0.0
C188 C 0.34735 0.86797 0.20752 0.0
C189 C 0.34405 0.85733 0.07424 0.0
C190 C 0.36146 0.85036 0.08288 0.0
C191 C 0.32065 0.87698 0.12406 0.0
H192 H 0.09593 0.79279 0.12366 0.0
H193 H 0.13487 0.81576 0.06512 0.0
H194 H 0.16579 0.81779 0.28395 0.0
H195 H 0.12641 0.79409 0.34369 0.0
H196 H 0.37255 0.86257 0.27175 0.0
H197 H 0.34247 0.87515 0.25635 0.0
H198 H 0.33668 0.85632 0.0182 0.0
H199 H 0.367 0.84424 0.03319 0.0
Tb200 Tb 0.32885 0.15869 0.78665 0.0
Eu201 Eu 0.35718 0.12582 0.81822 0.0
C202 C 0.31743 0.12025 0.92223 0.0
C203 C 0.3805 0.1877 0.84728 0.0
C204 C 0.28657 0.17965 0.72156 0.0
C205 C 0.24853 0.17589 0.70108 0.0
C206 C 0.26566 0.17701 0.75056 0.0
C207 C 0.29002 0.18078 0.6422 0.0
C208 C 0.273 0.17994 0.59263 0.0
C209 C 0.25208 0.17762 0.62146 0.0
C210 C 0.30416 0.18048 0.77518 0.0
O211 O 0.34206 0.15705 0.67598 0.0
O212 O 0.37204 0.14878 0.70793 0.0
O213 O 0.32864 0.0998 0.74119 0.0
O214 O 0.30726 0.12161 0.72912 0.0
C215 C 0.36056 0.15518 0.658 0.0
O216 O 0.3778 0.10744 0.78908 0.0
O217 O 0.36688 0.10618 0.90678 0.0
O218 O 0.32281 0.10615 0.88016 0.0
O219 O 0.32645 0.14533 0.90462 0.0
O220 O 0.36461 0.18929 0.8055 0.0
O221 O 0.3778 0.16501 0.87314 0.0
C222 C 0.31077 0.10176 0.71557 0.0
O223 O 0.29793 0.15873 0.81514 0.0
O224 O 0.32576 0.19135 0.75004 0.0
C225 C 0.40379 0.11091 0.88696 0.0
C226 C 0.44839 0.13036 0.95098 0.0
C227 C 0.44396 0.14601 0.89826 0.0
C228 C 0.42182 0.1364 0.86678 0.0
C229 C 0.40815 0.09505 0.93846 0.0
C230 C 0.4303 0.10468 0.97024 0.0
C231 C 0.37995 0.10178 0.86048 0.0
H232 H 0.23249 0.17364 0.7253 0.0
H233 H 0.26257 0.17578 0.81167 0.0
H234 H 0.30593 0.18252 0.61841 0.0
H235 H 0.27651 0.18173 0.53174 0.0
H236 H 0.45762 0.16569 0.88118 0.0
H237 H 0.41866 0.14901 0.82759 0.0
H238 H 0.39427 0.07547 0.9554 0.0
H239 H 0.4331 0.09225 0.01119 0.0
C240 C 0.22306 0.19221 0.5876 0.0
C241 C 0.23462 0.17835 0.56874 0.0
C242 C 0.20847 0.19523 0.53518 0.0
C243 C 0.17215 0.19138 0.41938 0.0
H244 H 0.20613 0.22459 0.23054 0.0
C245 C 0.15975 0.26801 0.24682 0.0
C246 C 0.16647 0.2733 0.16929 0.0
C247 C 0.16122 0.24809 0.28815 0.0
C248 C 0.1959 0.21466 0.28163 0.0
H249 H 0.23858 0.15529 0.48161 0.0
H250 H 0.21365 0.16142 0.38902 0.0
H251 H 0.22114 0.20398 0.31893 0.0
H252 H 0.17777 0.25989 0.07266 0.0
H253 H 0.17906 0.22425 0.14365 0.0
H254 H 0.14714 0.20258 0.38289 0.0
C255 C 0.21598 0.16988 0.44459 0.0
C256 C 0.20463 0.20291 0.33255 0.0
C257 C 0.23039 0.16659 0.49738 0.0
C258 C 0.1725 0.2565 0.13231 0.0
C259 C 0.17357 0.23624 0.17339 0.0
C260 C 0.16319 0.20281 0.36784 0.0
C261 C 0.20528 0.18469 0.4625 0.0
C262 C 0.19332 0.19205 0.40308 0.0
C263 C 0.16905 0.23261 0.2526 0.0
C264 C 0.17548 0.21554 0.29968 0.0
H265 H 0.22614 0.20187 0.64146 0.0
H266 H 0.20074 0.20711 0.55001 0.0
H267 H 0.16298 0.18285 0.47316 0.0
H268 H 0.15436 0.28008 0.27666 0.0
H269 H 0.15764 0.24606 0.34901 0.0
C270 C 0.10515 0.36523 0.1727 0.0
C271 C 0.12196 0.38944 0.2016 0.0
C272 C 0.08285 0.35106 0.20647 0.0
C273 C 0.04795 0.34538 0.37957 0.0
H274 H 0.99662 0.32135 0.23743 0.0
C275 C 0.9552 0.32318 0.46635 0.0
C276 C 0.93583 0.30267 0.43089 0.0
C277 C 0.97799 0.33025 0.4439 0.0
C278 C 1.01067 0.32746 0.27807 0.0
H279 H 0.12897 0.41696 0.29142 0.0
H280 H 0.09009 0.39242 0.34957 0.0
H281 H 0.03648 0.3396 0.189 0.0
H282 H 0.92518 0.27268 0.34668 0.0
H283 H 0.965 0.28488 0.30782 0.0
H284 H 1.02209 0.33371 0.46861 0.0
C285 C 0.09411 0.38431 0.30103 0.0
C286 C 0.03356 0.33794 0.25024 0.0
C287 C 0.11637 0.3985 0.26722 0.0
C288 C 0.93976 0.28882 0.37426 0.0
C289 C 0.96256 0.29584 0.35198 0.0
C290 C 0.02501 0.33484 0.40746 0.0
C291 C 0.07692 0.36073 0.27001 0.0
C292 C 0.0525 0.34737 0.30055 0.0
C293 C 0.98195 0.31694 0.3856 0.0
C294 C 1.00613 0.32609 0.35694 0.0
H295 H 0.10893 0.35759 0.12258 0.0
H296 H 0.07009 0.33274 0.18199 0.0
H297 H 0.06214 0.35217 0.41986 0.0
H298 H 0.95276 0.33447 0.50942 0.0
H299 H 0.99249 0.34685 0.47022 0.0
C300 C 0.78549 0.16797 0.50789 0.0
C301 C 0.77554 0.17194 0.57348 0.0
C302 C 0.77931 0.14238 0.48702 0.0
C303 C 0.74878 0.07209 0.56237 0.0
H304 H 0.74131 0.05632 0.3478 0.0
C305 C 0.71574 0.96597 0.46726 0.0
C306 C 0.70093 0.95743 0.40405 0.0
C307 C 0.72765 0.99262 0.48514 0.0
C308 C 0.74305 0.06024 0.4081 0.0
H309 H 0.75152 0.15189 0.66906 0.0
H310 H 0.74038 0.10794 0.63193 0.0
H311 H 0.75656 0.10151 0.3853 0.0
H312 H 0.68689 0.97008 0.31013 0.0
H313 H 0.70682 0.01626 0.34262 0.0
H314 H 0.73389 0.03078 0.5857 0.0
C315 C 0.75341 0.12434 0.59724 0.0
C316 C 0.75224 0.08637 0.42964 0.0
C317 C 0.75972 0.14977 0.61837 0.0
C318 C 0.69845 0.97615 0.35865 0.0
C319 C 0.71002 1.00272 0.37724 0.0
C320 C 0.73927 0.04597 0.54095 0.0
C321 C 0.76293 0.12015 0.53098 0.0
C322 C 0.75497 0.09266 0.50722 0.0
C323 C 0.72469 1.01138 0.44115 0.0
C324 C 0.73604 0.03955 0.46349 0.0
H325 H 0.79762 0.18456 0.4717 0.0
H326 H 0.78728 0.14005 0.43614 0.0
H327 H 0.75102 0.07603 0.62265 0.0
H328 H 0.71815 0.95201 0.50288 0.0
H329 H 0.73916 0.99842 0.53371 0.0
C330 C 0.72211 0.63142 0.47819 0.0
C331 C 0.70579 0.60444 0.49 0.0
C332 C 0.71459 0.64958 0.45886 0.0
C333 C 0.6626 0.65239 0.38285 0.0
H334 H 0.6909 0.72108 0.47199 0.0
C335 C 0.61481 0.71154 0.38659 0.0
C336 C 0.62702 0.73836 0.36292 0.0
C337 C 0.62658 0.6975 0.40031 0.0
C338 C 0.683 0.70208 0.44598 0.0
H339 H 0.66865 0.57566 0.49106 0.0
H340 H 0.65575 0.60693 0.45905 0.0
H341 H 0.7074 0.69213 0.49768 0.0
H342 H 0.66162 0.77159 0.33837 0.0
H343 H 0.68237 0.74688 0.36377 0.0
H344 H 0.63786 0.66193 0.33295 0.0
C345 C 0.67439 0.61421 0.46291 0.0
C346 C 0.69247 0.68547 0.46054 0.0
C347 C 0.68185 0.59617 0.4819 0.0
C348 C 0.65162 0.751 0.35646 0.0
C349 C 0.66351 0.73686 0.37101 0.0
C350 C 0.65309 0.66882 0.36892 0.0
C351 C 0.69058 0.64119 0.45077 0.0
C352 C 0.68209 0.66013 0.43039 0.0
C353 C 0.65101 0.70975 0.39143 0.0
C354 C 0.66284 0.69367 0.40142 0.0
H355 H 0.74068 0.63855 0.48404 0.0
H356 H 0.72762 0.67014 0.44949 0.0
H357 H 0.65447 0.63342 0.35668 0.0
H358 H 0.59592 0.701 0.39301 0.0
H359 H 0.61643 0.67682 0.41743 0.0
C360 C 0.06615 0.75525 0.23187 0.0
C361 C 0.0839 0.77605 0.27185 0.0
C362 C 0.04309 0.74202 0.25942 0.0
C363 C 1.00229 0.74978 0.38597 0.0
H364 H 0.9629 0.67514 0.3533 0.0
C365 C 0.90415 0.68792 0.48453 0.0
C366 C 0.88881 0.67076 0.43032 0.0
C367 C 0.92845 0.70126 0.47147 0.0
C368 C 0.97363 0.69603 0.36249 0.0
H369 H 0.09134 0.79877 0.3736 0.0
H370 H 0.05094 0.77524 0.42283 0.0
H371 H 1.00455 0.69662 0.32255 0.0
H372 H 0.88708 0.65414 0.32008 0.0
H373 H 0.92919 0.67745 0.29725 0.0
H374 H 0.97111 0.74897 0.42593 0.0
C375 C 0.05491 0.76948 0.3693 0.0
C376 C 0.99753 0.70838 0.34477 0.0
C377 C 0.0781 0.78277 0.34157 0.0
C378 C 0.89832 0.66748 0.36259 0.0
C379 C 0.92251 0.68058 0.34991 0.0
C380 C 0.97832 0.73733 0.40422 0.0
C381 C 0.03707 0.74907 0.32814 0.0
C382 C 1.01212 0.73553 0.35469 0.0
C383 C 0.93789 0.69741 0.40444 0.0
C384 C 0.96365 0.71042 0.39115 0.0
H385 H 0.07003 0.74928 0.17855 0.0
H386 H 0.02986 0.72667 0.22555 0.0
H387 H 1.01292 0.77075 0.39374 0.0
H388 H 0.89737 0.69094 0.53715 0.0
H389 H 0.93987 0.71407 0.51462 0.0
C390 C 0.25086 0.91361 0.33864 0.0
C391 C 0.26083 0.91854 0.26509 0.0
C392 C 0.25367 0.9344 0.38255 0.0
C393 C 0.28885 1.00744 0.3951 0.0
H394 H 0.23921 0.99503 0.53809 0.0
C395 C 0.29563 0.08888 0.58518 0.0
C396 C 0.2956 0.08173 0.66247 0.0
C397 C 0.28723 0.06958 0.53033 0.0
C398 C 0.25308 0.99878 0.49784 0.0
H399 H 0.28159 0.94881 0.17945 0.0
H400 H 0.28565 0.98518 0.2544 0.0
H401 H 0.23388 0.96032 0.45348 0.0
H402 H 0.28574 0.04925 0.74426 0.0
H403 H 0.27011 0.01537 0.64871 0.0
H404 H 0.30782 0.04612 0.43934 0.0
C405 C 0.27625 0.9654 0.27955 0.0
C406 C 0.25022 0.97883 0.44999 0.0
C407 C 0.27389 0.9446 0.23634 0.0
C408 C 0.28551 0.05504 0.68495 0.0
C409 C 0.27666 0.03574 0.63037 0.0
C410 C 0.29148 0.02755 0.44189 0.0
C411 C 0.26603 0.96058 0.35313 0.0
C412 C 0.26832 0.98263 0.39937 0.0
C413 C 0.27838 0.04296 0.55239 0.0
C414 C 0.27384 0.02317 0.49487 0.0
H415 H 0.24097 0.89365 0.36248 0.0
H416 H 0.2462 0.92985 0.43975 0.0
H417 H 0.30332 1.01111 0.35782 0.0
H418 H 0.30384 0.10945 0.56665 0.0
H419 H 0.28862 0.07545 0.4705 0.0
C420 C 0.2445 0.78081 -0.00484 0.0
C421 C 0.23028 0.79226 0.00234 0.0
C422 C 0.23626 0.75722 0.95771 0.0
C423 C 0.18276 0.69747 0.93988 0.0
H424 H 0.21933 0.67833 0.81119 0.0
C425 C 0.16253 0.59145 0.94901 0.0
C426 C 0.18263 0.58929 0.96084 0.0
C427 C 0.16454 0.61493 0.91895 0.0
C428 C 0.20882 0.68331 0.84698 0.0
H429 H 0.19677 0.78877 0.97288 0.0
H430 H 0.18215 0.74702 0.90965 0.0
H431 H 0.23148 0.72477 0.82514 0.0
H432 H 0.22032 0.60907 0.94627 0.0
H433 H 0.22406 0.6502 0.89734 0.0
H434 H 0.16148 0.65663 0.96851 0.0
C435 C 0.19973 0.75654 0.93206 0.0
C436 C 0.21573 0.70987 0.85444 0.0
C437 C 0.20811 0.78035 0.96842 0.0
C438 C 0.20455 0.61023 0.93733 0.0
C439 C 0.20661 0.6338 0.90861 0.0
C440 C 0.17612 0.671 0.93369 0.0
C441 C 0.21356 0.74452 0.92783 0.0
C442 C 0.20331 0.71713 0.90367 0.0
C443 C 0.18674 0.63683 0.90191 0.0
C444 C 0.18978 0.66367 0.89032 0.0
H445 H 0.26173 0.78969 0.02019 0.0
H446 H 0.24712 0.74812 0.95605 0.0
H447 H 0.17296 0.7026 0.97854 0.0
H448 H 0.14539 0.57533 0.96563 0.0
H449 H 0.1488 0.61632 0.91279 0.0
C450 C 0.4821 0.12475 -0.00618 0.0
C451 C 0.47189 0.1408 -0.01499 0.0
C452 C 0.50493 0.13515 0.02023 0.0
C453 C 0.55949 0.19691 0.01404 0.0
H454 H 0.58146 0.15723 0.13646 0.0
C455 C 0.65515 0.22507 -0.00624 0.0
C456 C 0.65761 0.20343 0.97469 0.0
C457 C 0.63435 0.2211 0.02735 0.0
C458 C 0.57562 0.16868 0.10263 0.0
H459 H 0.47707 0.17992 0.00164 0.0
H460 H 0.51719 0.19822 0.04629 0.0
H461 H 0.5396 0.14243 0.13286 0.0
H462 H 0.64093 0.16076 -0.01841 0.0
H463 H 0.60492 0.15386 0.03887 0.0
H464 H 0.59504 0.22202 -0.02094 0.0
C465 C 0.50753 0.17764 0.03228 0.0
C466 C 0.55168 0.16019 0.10062 0.0
C467 C 0.48465 0.1672 0.00622 0.0
C468 C 0.63975 0.1779 -0.00387 0.0
C469 C 0.619 0.17394 0.02932 0.0
C470 C 0.58335 0.20527 0.01555 0.0
C471 C 0.51805 0.16184 0.03812 0.0
C472 C 0.54334 0.17364 0.05382 0.0
C473 C 0.61561 0.19541 0.042 0.0
C474 C 0.59159 0.19059 0.05718 0.0
H475 H 0.47284 0.10442 0.97724 0.0
H476 H 0.51272 0.12261 0.02285 0.0
H477 H 0.55357 0.20757 0.97695 0.0
H478 H 0.66882 0.245 -0.02081 0.0
H479 H 0.63245 0.23808 0.03788 0.0
C480 C 0.42507 0.64359 0.10658 0.0
C481 C 0.43989 0.63287 0.11771 0.0
C482 C 0.40207 0.62787 0.08199 0.0
C483 C 0.36352 0.5648 -0.01122 0.0
H484 H 0.31329 0.57007 0.08617 0.0
C485 C 0.26678 0.4824 -0.01015 0.0
C486 C 0.24921 0.48942 -0.01137 0.0
C487 C 0.29042 0.50177 -0.00884 0.0
C488 C 0.32713 0.56866 0.0573 0.0
H489 H 0.44185 0.597 0.11358 0.0
H490 H 0.40191 0.5697 0.07102 0.0
H491 H 0.35377 0.60041 0.11901 0.0
H492 H 0.24284 0.52247 -0.01771 0.0
H493 H 0.28408 0.55621 -0.01588 0.0
H494 H 0.33678 0.53255 0.92864 0.0
C495 C 0.40817 0.59038 0.07956 0.0
C496 C 0.35036 0.58605 0.07625 0.0
C497 C 0.4311 0.60605 0.10413 0.0
C498 C 0.25588 0.51631 -0.01648 0.0
C499 C 0.27953 0.53568 -0.01475 0.0
C500 C 0.34029 0.54737 0.96997 0.0
C501 C 0.39337 0.60108 0.06797 0.0
C502 C 0.36882 0.58404 0.04321 0.0
C503 C 0.29702 0.52861 -0.00852 0.0
C504 C 0.3218 0.54883 0.0049 0.0
H505 H 0.43137 0.66425 0.11566 0.0
H506 H 0.3912 0.63679 0.073 0.0
H507 H 0.37735 0.56304 0.96113 0.0
H508 H 0.26228 0.4619 -0.00636 0.0
H509 H 0.30343 0.49563 -0.00369 0.0
C510 C 0.72614 0.46634 0.66068 0.0
C511 C 0.74123 0.48897 0.61604 0.0
C512 C 0.73049 0.44523 0.66913 0.0
C513 C 0.77677 0.42704 0.65203 0.0
H514 H 0.72481 0.35687 0.62194 0.0
C515 C 0.79024 0.33717 0.61336 0.0
C516 C 0.77272 0.31225 0.64113 0.0
C517 C 0.78694 0.35907 0.61505 0.0
C518 C 0.73951 0.37622 0.6319 0.0
H519 H 0.77319 0.50737 0.54733 0.0
H520 H 0.78082 0.47075 0.56272 0.0
H521 H 0.71814 0.39425 0.61887 0.0
H522 H 0.73832 0.29112 0.69525 0.0
H523 H 0.73288 0.3292 0.7004 0.0
H524 H 0.79814 0.40907 0.66576 0.0
C525 C 0.7656 0.46929 0.59111 0.0
C526 C 0.73565 0.39771 0.62992 0.0
C527 C 0.76113 0.49025 0.58195 0.0
C528 C 0.7521 0.30993 0.67251 0.0
C529 C 0.74891 0.33183 0.67497 0.0
C530 C 0.78062 0.4055 0.65476 0.0
C531 C 0.75019 0.44636 0.63394 0.0
C532 C 0.75424 0.42341 0.63949 0.0
C533 C 0.76611 0.35668 0.64529 0.0
C534 C 0.76205 0.37974 0.64432 0.0
H535 H 0.71065 0.46464 0.68772 0.0
H536 H 0.71839 0.42796 0.70314 0.0
H537 H 0.79145 0.44656 0.66041 0.0
H538 H 0.80629 0.33967 0.58844 0.0
H539 H 0.8005 0.37771 0.59072 0.0
C540 C 0.39187 0.82601 0.12316 0.0
C541 C 0.39215 0.84696 0.16115 0.0
C542 C 0.41088 0.82154 0.12782 0.0
C543 C 0.4629 0.83599 0.24422 0.0
H544 H 0.48322 0.81584 0.06379 0.0
C545 C 0.54552 0.82496 0.24568 0.0
C546 C 0.54335 0.80247 0.21154 0.0
C547 C 0.52834 0.83225 0.23534 0.0
C548 C 0.47768 0.82127 0.11487 0.0
H549 H 0.41296 0.87978 0.23337 0.0
H550 H 0.44598 0.87192 0.24177 0.0
H551 H 0.45042 0.82417 0.05582 0.0
H552 H 0.52182 0.77071 0.13676 0.0
H553 H 0.49197 0.78332 0.11919 0.0
H554 H 0.49 0.83287 0.30346 0.0
C555 C 0.4309 0.85869 0.20916 0.0
C556 C 0.45881 0.826 0.11035 0.0
C557 C 0.4119 0.86317 0.20446 0.0
C558 C 0.52408 0.78811 0.16426 0.0
C559 C 0.50697 0.79544 0.15376 0.0
C560 C 0.48175 0.83126 0.24875 0.0
C561 C 0.43071 0.83789 0.17063 0.0
C562 C 0.45107 0.83328 0.17508 0.0
C563 C 0.50862 0.8173 0.19034 0.0
C564 C 0.48932 0.82368 0.18426 0.0
H565 H 0.37685 0.81288 0.09017 0.0
H566 H 0.40993 0.80505 0.09849 0.0
H567 H 0.45724 0.8412 0.2955 0.0
H568 H 0.56012 0.83653 0.28237 0.0
H569 H 0.53039 0.84946 0.26336 0.0
C570 C 0.55627 0.40191 0.76887 0.0
C571 C 0.57763 0.40247 0.75717 0.0
C572 C 0.5358 0.37822 0.78653 0.0
C573 C 0.50932 0.30553 0.77941 0.0
H574 H 0.46324 0.30606 0.91565 0.0
C575 C 0.42368 0.21056 0.87119 0.0
C576 C 0.40325 0.21201 0.85764 0.0
C577 C 0.44571 0.2334 0.86814 0.0
C578 C 0.47595 0.30563 0.87752 0.0
H579 H 0.59421 0.37846 0.7547 0.0
H580 H 0.5585 0.33699 0.78696 0.0
H581 H 0.50049 0.34637 0.89168 0.0
H582 H 0.38983 0.23869 0.83449 0.0
H583 H 0.4282 0.27857 0.8313 0.0
H584 H 0.48465 0.2646 0.76604 0.0
C585 C 0.55749 0.35488 0.78128 0.0
C586 C 0.49727 0.32876 0.86329 0.0
C587 C 0.57799 0.37865 0.76293 0.0
C588 C 0.40523 0.2369 0.84515 0.0
C589 C 0.42719 0.25975 0.84346 0.0
C590 C 0.48809 0.2823 0.79443 0.0
C591 C 0.53611 0.35437 0.79364 0.0
C592 C 0.5141 0.32918 0.81292 0.0
C593 C 0.4477 0.25818 0.85299 0.0
C594 C 0.47103 0.28222 0.84269 0.0
H595 H 0.55528 0.41984 0.76332 0.0
H596 H 0.51964 0.37862 0.7935 0.0
H597 H 0.52165 0.30508 0.73959 0.0
H598 H 0.4228 0.1917 0.88061 0.0
H599 H 0.46121 0.23164 0.87633 0.0
C600 C 0.14043 0.41404 0.83509 0.0
C601 C 0.15094 0.43682 0.87751 0.0
C602 C 0.13987 0.41618 0.75597 0.0
C603 C 0.18469 0.45934 0.63164 0.0
H604 H 0.14658 0.41214 0.47528 0.0
C605 C 0.21741 0.45856 0.32832 0.0
C606 C 0.20595 0.43465 0.29072 0.0
C607 C 0.21094 0.45988 0.40278 0.0
C608 C 0.15746 0.42519 0.51894 0.0
H609 H 0.16586 0.47918 0.87425 0.0
H610 H 0.16553 0.48307 0.73483 0.0
H611 H 0.12791 0.41497 0.59204 0.0
H612 H 0.18227 0.39252 0.3057 0.0
H613 H 0.17167 0.39471 0.43694 0.0
H614 H 0.21437 0.46846 0.56126 0.0
C615 C 0.15751 0.46362 0.76243 0.0
C616 C 0.1467 0.42719 0.58468 0.0
C617 C 0.15766 0.46141 0.84191 0.0
C618 C 0.191 0.41135 0.33271 0.0
C619 C 0.18464 0.41266 0.40743 0.0
C620 C 0.19546 0.45713 0.56641 0.0
C621 C 0.15042 0.44119 0.71913 0.0
C622 C 0.1603 0.44391 0.64214 0.0
C623 C 0.19327 0.4372 0.44081 0.0
C624 C 0.182 0.43961 0.51024 0.0
H625 H 0.13511 0.39492 0.86225 0.0
H626 H 0.13427 0.39858 0.72384 0.0
H627 H 0.19565 0.47185 0.67614 0.0
H628 H 0.22944 0.47677 0.29772 0.0
H629 H 0.21819 0.47905 0.42746 0.0
C630 C 0.7667 0.24476 0.35016 0.0
C631 C 0.75741 0.22565 0.40994 0.0
C632 C 0.77308 0.2389 0.28119 0.0
C633 C 0.76564 0.19326 0.14495 0.0
H634 H 0.83113 0.24303 0.09945 0.0
C635 C 0.80072 0.21539 0.83807 0.0
C636 C 0.80646 0.24154 0.82093 0.0
C637 C 0.79951 0.20666 0.91409 0.0
C638 C 0.81301 0.22851 0.11191 0.0
H639 H 0.74547 0.18467 0.44223 0.0
H640 H 0.75624 0.17431 0.31946 0.0
H641 H 0.81575 0.23868 0.22905 0.0
H642 H 0.81688 0.27953 0.86689 0.0
H643 H 0.81578 0.26474 -0.0005 0.0
H644 H 0.7624 0.18485 0.02614 0.0
C645 C 0.75883 0.19387 0.32725 0.0
C646 C 0.80422 0.22607 0.1857 0.0
C647 C 0.75249 0.19978 0.39691 0.0
C648 C 0.81281 0.25941 0.87933 0.0
C649 C 0.8122 0.2509 0.95492 0.0
C650 C 0.77446 0.19569 0.07084 0.0
C651 C 0.77012 0.2138 0.27054 0.0
C652 C 0.78022 0.20965 0.20136 0.0
C653 C 0.80455 0.22422 0.97314 0.0
C654 C 0.79787 0.21458 0.053 0.0
H655 H 0.77055 0.26478 0.35849 0.0
H656 H 0.78134 0.25437 0.23719 0.0
H657 H 0.74707 0.18051 0.1562 0.0
H658 H 0.79532 0.20126 0.79334 0.0
H659 H 0.79338 0.18599 0.92698 0.0
C660 C 0.59444 0.79929 0.02332 0.0
C661 C 0.59339 0.77762 0.06389 0.0
C662 C 0.5816 0.79562 0.95686 0.0
C663 C 0.5491 0.74541 0.81204 0.0
H664 H 0.53567 0.79978 0.73914 0.0
C665 C 0.53303 0.74933 0.50521 0.0
C666 C 0.55439 0.77077 0.47937 0.0
C667 C 0.52505 0.74863 0.57939 0.0
C668 C 0.53856 0.78399 0.76 0.0
H669 H 0.57961 0.73541 0.06324 0.0
H670 H 0.55541 0.72856 0.95335 0.0
H671 H 0.54825 0.79999 0.87048 0.0
H672 H 0.5822 0.80998 0.50445 0.0
H673 H 0.56839 0.80874 0.63376 0.0
H674 H 0.53968 0.72964 0.70165 0.0
C675 C 0.56655 0.74858 0.97045 0.0
C676 C 0.54635 0.7844 0.83449 0.0
C677 C 0.58026 0.75244 0.03459 0.0
C678 C 0.56601 0.79291 0.52428 0.0
C679 C 0.55783 0.79242 0.59765 0.0
C680 C 0.54058 0.7445 0.73894 0.0
C681 C 0.56687 0.77009 0.93073 0.0
C682 C 0.55328 0.76616 0.85954 0.0
C683 C 0.53823 0.76954 0.62749 0.0
C684 C 0.53681 0.76476 0.71066 0.0
H685 H 0.60468 0.81903 0.04399 0.0
H686 H 0.58327 0.81289 0.92643 0.0
H687 H 0.55424 0.731 0.82788 0.0
H688 H 0.52356 0.73222 0.47076 0.0
H689 H 0.50992 0.73079 0.60156 0.0
C690 C 0.6848 0.50492 0.32986 0.0
C691 C 0.70343 0.5055 0.37027 0.0
C692 C 0.68577 0.50648 0.25028 0.0
C693 C 0.72177 0.51399 0.07981 0.0
H694 H 0.72324 0.58101 0.05417 0.0
C695 C 0.76037 0.57548 0.80879 0.0
C696 C 0.74396 0.58054 0.7718 0.0
C697 C 0.75804 0.56931 0.88698 0.0
C698 C 0.72283 0.5623 0.06034 0.0
H699 H 0.73517 0.50324 0.36263 0.0
H700 H 0.73674 0.50553 0.22382 0.0
H701 H 0.70685 0.5543 0.17094 0.0
H702 H 0.71521 0.5881 0.78852 0.0
H703 H 0.71096 0.5771 0.92411 0.0
H704 H 0.73764 0.52194 0.96886 0.0
C705 C 0.72155 0.50412 0.25232 0.0
C706 C 0.71314 0.54682 0.12655 0.0
C707 C 0.72065 0.50274 0.33172 0.0
C708 C 0.72774 0.58364 0.81558 0.0
C709 C 0.72536 0.57741 0.89349 0.0
C710 C 0.73128 0.52939 0.01309 0.0
C711 C 0.70534 0.50857 0.21171 0.0
C712 C 0.71245 0.5225 0.13672 0.0
C713 C 0.73937 0.56829 0.92853 0.0
C714 C 0.7319 0.5537 0.00278 0.0
H715 H 0.67145 0.50717 0.35911 0.0
H716 H 0.67288 0.50945 0.21958 0.0
H717 H 0.72173 0.4955 0.08711 0.0
H718 H 0.77337 0.57346 0.77653 0.0
H719 H 0.76956 0.56318 0.91348 0.0
C720 C 0.25526 0.83653 0.40246 0.0
C721 C 0.23634 0.82756 0.35227 0.0
C722 C 0.25391 0.84602 0.47287 0.0
C723 C 0.25271 0.88719 0.56828 0.0
H724 H 0.20649 0.85296 0.73088 0.0
C725 C 0.23103 0.89464 0.90366 0.0
C726 C 0.25218 0.89731 0.93137 0.0
C727 C 0.22744 0.89483 0.82515 0.0
C728 C 0.21914 0.86319 0.68503 0.0
H729 H 0.1999 0.81733 0.34166 0.0
H730 H 0.19747 0.83341 0.46592 0.0
H731 H 0.202 0.83023 0.61271 0.0
H732 H 0.28752 0.90716 0.89982 0.0
H733 H 0.28128 0.90734 0.76357 0.0
H734 H 0.27039 0.9197 0.64151 0.0
C735 C 0.21351 0.83382 0.44952 0.0
C736 C 0.21666 0.84999 0.61784 0.0
C737 C 0.21487 0.82436 0.37873 0.0
C738 C 0.27086 0.90444 0.88003 0.0
C739 C 0.26731 0.90473 0.80169 0.0
C740 C 0.25514 0.90044 0.63522 0.0
C741 C 0.23353 0.84627 0.49456 0.0
C742 C 0.23403 0.86141 0.56066 0.0
C743 C 0.24501 0.89789 0.77374 0.0
C744 C 0.23897 0.88804 0.69566 0.0
H745 H 0.2719 0.83879 0.38419 0.0
H746 H 0.26932 0.85472 0.50823 0.0
H747 H 0.26593 0.8967 0.52356 0.0
H748 H 0.2164 0.88962 0.94191 0.0
H749 H 0.21026 0.89011 0.8049 0.0
C750 C 0.36358 0.12934 0.55559 0.0
C751 C 0.36327 0.15208 0.57707 0.0
C752 C 0.35454 0.11848 0.48535 0.0
C753 C 0.30985 0.11613 0.35808 0.0
H754 H 0.33469 0.0887 0.20927 0.0
C755 C 0.30255 0.12549 0.04629 0.0
C756 C 0.30684 0.10974 -0.00203 0.0
C757 C 0.29922 0.11929 0.12419 0.0
C758 C 0.32698 0.09531 0.25151 0.0
H759 H 0.35693 0.18355 0.53911 0.0
H760 H 0.34228 0.16535 0.41474 0.0
H761 H 0.35517 0.10461 0.32852 0.0
H762 H 0.30677 0.07272 -0.01006 0.0
H763 H 0.30126 0.06212 0.12666 0.0
H764 H 0.2822 0.10788 0.27998 0.0
C765 C 0.34843 0.15527 0.45326 0.0
C766 C 0.33894 0.10477 0.31925 0.0
C767 C 0.35725 0.16596 0.52351 0.0
C768 C 0.30418 0.08563 0.02652 0.0
C769 C 0.30092 0.07947 0.10464 0.0
C770 C 0.29775 0.10642 0.29087 0.0
C771 C 0.34551 0.13056 0.43613 0.0
C772 C 0.33115 0.1166 0.3708 0.0
C773 C 0.30026 0.09732 0.15455 0.0
C774 C 0.30704 0.09751 0.23489 0.0
H775 H 0.36791 0.11814 0.59645 0.0
H776 H 0.35266 0.09953 0.47279 0.0
H777 H 0.30304 0.12426 0.3988 0.0
H778 H 0.30386 0.14381 0.02521 0.0
H779 H 0.29863 0.13343 0.16106 0.0
loop_
_geom_bond_atom_site_label_1
_geom_bond_atom_site_label_2
_geom_bond_distance
_geom_bond_site_symmetry_2
_ccdc_geom_bond_type
Tb0 C10 2.825 . S
Tb0 O11 2.347 . S
Tb0 O14 2.366 . S
Tb0 O19 2.418 1_554 S
Tb0 O20 2.384 1_554 S
Tb0 O23 2.479 1_554 S
Tb0 O24 2.471 . S
Eu1 O12 2.418 . S
Eu1 O13 2.384 . S
Eu1 O16 2.479 . S
Eu1 O17 2.471 1_554 S
Eu1 O18 2.347 1_554 S
Eu1 O21 2.366 . S
Eu1 C31 2.825 1_554 S
C2 O18 1.259 . S
C2 O19 1.265 . S
C3 O20 1.255 . S
C3 O21 1.265 1_556 S
C4 C6 1.380 . S
C4 C7 1.374 . S
C4 C10 1.507 . S
C5 C6 1.384 . S
C5 C9 1.387 . S
C5 H32 0.930 . S
C6 C4 1.380 . S
C6 C5 1.384 . S
C6 H33 0.931 1_554 S
C7 C4 1.374 . S
C7 C8 1.390 . S
C7 H34 0.930 . S
C8 C7 1.390 . S
C8 C9 1.391 . S
C8 H35 0.930 . S
C9 C5 1.387 . S
C9 C8 1.391 . S
C10 Tb0 2.825 . S
C10 C4 1.507 . S
C10 O23 1.238 1_554 S
C10 O24 1.247 . S
O11 Tb0 2.347 . S
O11 C15 1.259 . S
O12 Eu1 2.418 . S
O12 C15 1.265 . S
O13 Eu1 2.384 . S
O13 C22 1.255 . S
O14 Tb0 2.366 . S
O14 C22 1.265 . S
C15 O11 1.259 . S
C15 O12 1.265 . S
O16 Eu1 2.479 . S
O16 C31 1.238 1_554 S
O17 Eu1 2.471 1_556 S
O17 C31 1.247 . S
O18 Eu1 2.347 1_556 S
O18 C2 1.259 . S
O19 Tb0 2.418 1_556 S
O19 C2 1.265 . S
O20 Tb0 2.384 1_556 S
O20 C3 1.255 . S
O21 Eu1 2.366 . S
O21 C3 1.265 1_554 S
C22 O13 1.255 . S
C22 O14 1.265 . S
O23 Tb0 2.479 1_556 S
O23 C10 1.238 1_556 S
O24 Tb0 2.471 . S
O24 C10 1.247 . S
C25 C28 1.380 . S
C25 C29 1.374 . S
C25 C31 1.507 . S
C26 C27 1.387 . S
C26 C30 1.391 . S
C27 C26 1.387 . S
C27 C28 1.384 . S
C27 H36 0.930 . S
C28 C25 1.380 . S
C28 C27 1.384 . S
C28 H37 0.931 1_556 S
C29 C25 1.374 . S
C29 C30 1.390 . S
C29 H38 0.930 . S
C30 C26 1.391 . S
C30 C29 1.390 . S
C30 H39 0.930 . S
C31 Eu1 2.825 1_556 S
C31 O16 1.238 1_556 S
C31 O17 1.247 . S
C31 C25 1.507 . S
H32 C5 0.930 . S
H33 C6 0.931 1_556 S
H34 C7 0.930 . S
H35 C8 0.930 . S
H36 C27 0.930 . S
H37 C28 0.931 1_554 S
H38 C29 0.930 . S
H39 C30 0.930 . S
Tb40 C50 2.825 . S
Tb40 O51 2.347 . S
Tb40 O54 2.366 . S
Tb40 O59 2.418 . S
Tb40 O60 2.384 . S
Tb40 O63 2.479 . S
Tb40 O64 2.471 . S
Eu41 O52 2.418 . S
Eu41 O53 2.384 . S
Eu41 O56 2.479 . S
Eu41 O57 2.471 . S
Eu41 O58 2.347 . S
Eu41 O61 2.366 . S
Eu41 C71 2.825 . S
C42 O58 1.259 . S
C42 O59 1.265 . S
C43 O60 1.255 . S
C43 O61 1.265 . S
C44 C46 1.380 . S
C44 C47 1.374 . S
C44 C50 1.507 . S
C45 C46 1.384 . S
C45 C49 1.387 . S
C45 H72 0.930 . S
C46 C44 1.380 . S
C46 C45 1.384 . S
C46 H73 0.931 . S
C47 C44 1.374 . S
C47 C48 1.391 . S
C47 H74 0.930 1_556 S
C48 C47 1.391 . S
C48 C49 1.393 . S
C48 H75 0.927 1_556 S
C49 C45 1.387 . S
C49 C48 1.393 . S
C50 Tb40 2.825 . S
C50 C44 1.507 . S
C50 O63 1.238 . S
C50 O64 1.247 . S
O51 Tb40 2.347 . S
O51 C55 1.259 . S
O52 Eu41 2.418 . S
O52 C55 1.265 . S
O53 Eu41 2.384 . S
O53 C62 1.255 . S
O54 Tb40 2.366 . S
O54 C62 1.265 . S
C55 O51 1.259 . S
C55 O52 1.265 . S
O56 Eu41 2.479 . S
O56 C71 1.238 . S
O57 Eu41 2.471 . S
O57 C71 1.247 . S
O58 Eu41 2.347 . S
O58 C42 1.259 . S
O59 Tb40 2.418 . S
O59 C42 1.265 . S
O60 Tb40 2.384 . S
O60 C43 1.255 . S
O61 Eu41 2.366 . S
O61 C43 1.265 . S
C62 O53 1.255 . S
C62 O54 1.265 . S
O63 Tb40 2.479 . S
O63 C50 1.238 . S
O64 Tb40 2.471 . S
O64 C50 1.247 . S
C65 C68 1.380 . S
C65 C69 1.374 . S
C65 C71 1.507 . S
C66 C67 1.387 . S
C66 C70 1.391 . S
C67 C66 1.387 . S
C67 C68 1.384 . S
C67 H76 0.930 . S
C68 C65 1.380 . S
C68 C67 1.384 . S
C68 H77 0.931 . S
C69 C65 1.374 . S
C69 C70 1.390 . S
C69 H78 0.930 . S
C70 C66 1.391 . S
C70 C69 1.390 . S
C70 H79 0.930 . S
C71 Eu41 2.825 . S
C71 O56 1.238 . S
C71 O57 1.247 . S
C71 C65 1.507 . S
H72 C45 0.930 . S
H73 C46 0.931 . S
H74 C47 0.930 1_554 S
H75 C48 0.927 1_554 S
H76 C67 0.930 . S
H77 C68 0.931 . S
H78 C69 0.930 . S
H79 C70 0.930 . S
Tb80 C90 2.825 . S
Tb80 O91 2.347 . S
Tb80 O94 2.366 . S
Tb80 O99 2.418 1_554 S
Tb80 O100 2.384 . S
Tb80 O103 2.479 . S
Tb80 O104 2.471 . S
Eu81 O92 2.418 . S
Eu81 O93 2.384 . S
Eu81 O96 2.479 . S
Eu81 O97 2.471 . S
Eu81 O98 2.347 . S
Eu81 O101 2.366 . S
Eu81 C111 2.825 . S
C82 O98 1.259 1_556 S
C82 O99 1.265 . S
C83 O100 1.255 . S
C83 O101 1.265 . S
C84 C86 1.380 . S
C84 C87 1.374 . S
C84 C90 1.507 . S
C85 C86 1.384 . S
C85 C89 1.387 . S
C85 H112 0.930 . S
C86 C84 1.380 . S
C86 C85 1.384 . S
C86 H113 0.931 . S
C87 C84 1.374 . S
C87 C88 1.390 . S
C87 H114 0.930 . S
C88 C87 1.390 . S
C88 C89 1.391 . S
C88 H115 0.930 . S
C89 C85 1.387 . S
C89 C88 1.391 . S
C90 Tb80 2.825 . S
C90 C84 1.507 . S
C90 O103 1.238 . S
C90 O104 1.247 . S
O91 Tb80 2.347 . S
O91 C95 1.259 . S
O92 Eu81 2.418 . S
O92 C95 1.265 . S
O93 Eu81 2.384 . S
O93 C102 1.255 . S
O94 Tb80 2.366 . S
O94 C102 1.265 . S
C95 O91 1.259 . S
C95 O92 1.265 . S
O96 Eu81 2.479 . S
O96 C111 1.238 . S
O97 Eu81 2.471 . S
O97 C111 1.247 . S
O98 Eu81 2.347 . S
O98 C82 1.259 1_554 S
O99 Tb80 2.418 1_556 S
O99 C82 1.265 . S
O100 Tb80 2.384 . S
O100 C83 1.255 . S
O101 Eu81 2.366 . S
O101 C83 1.265 . S
C102 O93 1.255 . S
C102 O94 1.265 . S
O103 Tb80 2.479 . S
O103 C90 1.238 . S
O104 Tb80 2.471 . S
O104 C90 1.247 . S
C105 C108 1.380 . S
C105 C109 1.374 1_554 S
C105 C111 1.507 . S
C106 C107 1.387 1_556 S
C106 C110 1.391 . S
C107 C106 1.387 1_554 S
C107 C108 1.384 . S
C107 H116 0.930 . S
C108 C105 1.380 . S
C108 C107 1.384 . S
C108 H117 0.931 . S
C109 C105 1.374 1_556 S
C109 C110 1.390 . S
C109 H118 0.930 . S
C110 C106 1.391 . S
C110 C109 1.390 . S
C110 H119 0.930 . S
C111 Eu81 2.825 . S
C111 O96 1.238 . S
C111 O97 1.247 . S
C111 C105 1.507 . S
H112 C85 0.930 . S
H113 C86 0.931 . S
H114 C87 0.930 . S
H115 C88 0.930 . S
H116 C107 0.930 . S
H117 C108 0.931 . S
H118 C109 0.930 . S
H119 C110 0.930 . S
Tb120 C130 2.825 . S
Tb120 O131 2.347 . S
Tb120 O134 2.366 . S
Tb120 O139 2.418 . S
Tb120 O140 2.384 . S
Tb120 O143 2.479 . S
Tb120 O144 2.471 . S
Eu121 O132 2.418 . S
Eu121 O133 2.384 . S
Eu121 O136 2.479 . S
Eu121 O137 2.471 . S
Eu121 O138 2.347 . S
Eu121 O141 2.366 . S
Eu121 C151 2.825 . S
C122 O138 1.259 . S
C122 O139 1.265 . S
C123 O140 1.255 . S
C123 O141 1.265 . S
C124 C126 1.380 . S
C124 C127 1.374 . S
C124 C130 1.507 . S
C125 C126 1.384 . S
C125 C129 1.387 . S
C125 H152 0.930 . S
C126 C124 1.380 . S
C126 C125 1.384 . S
C126 H153 0.931 . S
C127 C124 1.374 . S
C127 C128 1.390 . S
C127 H154 0.930 . S
C128 C127 1.390 . S
C128 C129 1.391 . S
C128 H155 0.930 . S
C129 C125 1.387 . S
C129 C128 1.391 . S
C130 Tb120 2.825 . S
C130 C124 1.507 . S
C130 O143 1.238 . S
C130 O144 1.247 . S
O131 Tb120 2.347 . S
O131 C135 1.259 . S
O132 Eu121 2.418 . S
O132 C135 1.265 . S
O133 Eu121 2.384 . S
O133 C142 1.255 . S
O134 Tb120 2.366 . S
O134 C142 1.265 . S
C135 O131 1.259 . S
C135 O132 1.265 . S
O136 Eu121 2.479 . S
O136 C151 1.238 . S
O137 Eu121 2.471 . S
O137 C151 1.247 . S
O138 Eu121 2.347 . S
O138 C122 1.259 . S
O139 Tb120 2.418 . S
O139 C122 1.265 . S
O140 Tb120 2.384 . S
O140 C123 1.255 . S
O141 Eu121 2.366 . S
O141 C123 1.265 . S
C142 O133 1.255 . S
C142 O134 1.265 . S
O143 Tb120 2.479 . S
O143 C130 1.238 . S
O144 Tb120 2.471 . S
O144 C130 1.247 . S
C145 C148 1.380 . S
C145 C149 1.374 . S
C145 C151 1.507 . S
C146 C147 1.387 . S
C146 C150 1.391 . S
C147 C146 1.387 . S
C147 C148 1.384 . S
C147 H156 0.930 . S
C148 C145 1.380 . S
C148 C147 1.384 . S
C148 H157 0.931 . S
C149 C145 1.374 . S
C149 C150 1.390 . S
C149 H158 0.930 . S
C150 C146 1.391 . S
C150 C149 1.390 . S
C150 H159 0.930 1_556 S
C151 Eu121 2.825 . S
C151 O136 1.238 . S
C151 O137 1.247 . S
C151 C145 1.507 . S
H152 C125 0.930 . S
H153 C126 0.931 . S
H154 C127 0.930 . S
H155 C128 0.930 . S
H156 C147 0.930 . S
H157 C148 0.931 . S
H158 C149 0.930 . S
H159 C150 0.930 1_554 S
Tb160 C170 2.825 . S
Tb160 O171 2.347 . S
Tb160 O174 2.366 . S
Tb160 O179 2.418 1_554 S
Tb160 O180 2.384 . S
Tb160 O183 2.479 . S
Tb160 O184 2.471 . S
Eu161 O172 2.418 . S
Eu161 O173 2.384 . S
Eu161 O176 2.479 . S
Eu161 O177 2.471 1_554 S
Eu161 O178 2.347 1_554 S
Eu161 O181 2.366 . S
Eu161 C191 2.825 . S
C162 O178 1.259 . S
C162 O179 1.265 . S
C163 O180 1.255 . S
C163 O181 1.265 . S
C164 C166 1.380 . S
C164 C167 1.374 . S
C164 C170 1.507 . S
C165 C166 1.384 . S
C165 C169 1.387 . S
C165 H192 0.930 . S
C166 C164 1.380 . S
C166 C165 1.384 . S
C166 H193 0.931 . S
C167 C164 1.374 . S
C167 C168 1.390 . S
C167 H194 0.930 . S
C168 C167 1.390 . S
C168 C169 1.391 . S
C168 H195 0.930 . S
C169 C165 1.387 . S
C169 C168 1.391 . S
C170 Tb160 2.825 . S
C170 C164 1.507 . S
C170 O183 1.238 . S
C170 O184 1.247 . S
O171 Tb160 2.347 . S
O171 C175 1.259 . S
O172 Eu161 2.418 . S
O172 C175 1.265 . S
O173 Eu161 2.384 . S
O173 C182 1.255 . S
O174 Tb160 2.366 . S
O174 C182 1.265 . S
C175 O171 1.259 . S
C175 O172 1.265 . S
O176 Eu161 2.479 . S
O176 C191 1.238 . S
O177 Eu161 2.471 1_556 S
O177 C191 1.247 1_556 S
O178 Eu161 2.347 1_556 S
O178 C162 1.259 . S
O179 Tb160 2.418 1_556 S
O179 C162 1.265 . S
O180 Tb160 2.384 . S
O180 C163 1.255 . S
O181 Eu161 2.366 . S
O181 C163 1.265 . S
C182 O173 1.255 . S
C182 O174 1.265 . S
O183 Tb160 2.479 . S
O183 C170 1.238 . S
O184 Tb160 2.471 . S
O184 C170 1.247 . S
C185 C188 1.380 1_556 S
C185 C189 1.374 . S
C185 C191 1.507 1_556 S
C186 C187 1.387 1_556 S
C186 C190 1.391 . S
C187 C186 1.387 1_554 S
C187 C188 1.384 . S
C187 H196 0.930 . S
C188 C185 1.380 1_554 S
C188 C187 1.384 . S
C188 H197 0.931 . S
C189 C185 1.374 . S
C189 C190 1.390 . S
C189 H198 0.930 . S
C190 C186 1.391 . S
C190 C189 1.390 . S
C190 H199 0.930 . S
C191 Eu161 2.825 . S
C191 O176 1.238 . S
C191 O177 1.247 1_554 S
C191 C185 1.507 1_554 S
H192 C165 0.930 . S
H193 C166 0.931 . S
H194 C167 0.930 . S
H195 C168 0.930 . S
H196 C187 0.930 . S
H197 C188 0.931 . S
H198 C189 0.930 . S
H199 C190 0.930 . S
Tb200 C210 2.825 . S
Tb200 O211 2.347 . S
Tb200 O214 2.366 . S
Tb200 O219 2.418 . S
Tb200 O220 2.384 . S
Tb200 O223 2.479 . S
Tb200 O224 2.471 . S
Eu201 O212 2.418 . S
Eu201 O213 2.384 . S
Eu201 O216 2.479 . S
Eu201 O217 2.471 . S
Eu201 O218 2.347 . S
Eu201 O221 2.366 . S
Eu201 C231 2.825 . S
C202 O218 1.259 . S
C202 O219 1.265 . S
C203 O220 1.255 . S
C203 O221 1.265 . S
C204 C206 1.380 . S
C204 C207 1.374 . S
C204 C210 1.507 . S
C205 C206 1.384 . S
C205 C209 1.387 . S
C205 H232 0.930 . S
C206 C204 1.380 . S
C206 C205 1.384 . S
C206 H233 0.931 . S
C207 C204 1.374 . S
C207 C208 1.390 . S
C207 H234 0.930 . S
C208 C207 1.390 . S
C208 C209 1.391 . S
C208 H235 0.930 . S
C209 C205 1.387 . S
C209 C208 1.391 . S
C210 Tb200 2.825 . S
C210 C204 1.507 . S
C210 O223 1.238 . S
C210 O224 1.247 . S
O211 Tb200 2.347 . S
O211 C215 1.259 . S
O212 Eu201 2.418 . S
O212 C215 1.265 . S
O213 Eu201 2.384 . S
O213 C222 1.255 . S
O214 Tb200 2.366 . S
O214 C222 1.265 . S
C215 O211 1.259 . S
C215 O212 1.265 . S
O216 Eu201 2.479 . S
O216 C231 1.238 . S
O217 Eu201 2.471 . S
O217 C231 1.247 . S
O218 Eu201 2.347 . S
O218 C202 1.259 . S
O219 Tb200 2.418 . S
O219 C202 1.265 . S
O220 Tb200 2.384 . S
O220 C203 1.255 . S
O221 Eu201 2.366 . S
O221 C203 1.265 . S
C222 O213 1.255 . S
C222 O214 1.265 . S
O223 Tb200 2.479 . S
O223 C210 1.238 . S
O224 Tb200 2.471 . S
O224 C210 1.247 . S
C225 C228 1.380 . S
C225 C229 1.374 . S
C225 C231 1.507 . S
C226 C227 1.387 . S
C226 C230 1.391 1_556 S
C227 C226 1.387 . S
C227 C228 1.384 . S
C227 H236 0.930 . S
C228 C225 1.380 . S
C228 C227 1.384 . S
C228 H237 0.931 . S
C229 C225 1.374 . S
C229 C230 1.390 1_556 S
C229 H238 0.930 1_556 S
C230 C226 1.391 1_554 S
C230 C229 1.390 1_554 S
C230 H239 0.930 . S
C231 Eu201 2.825 . S
C231 O216 1.238 . S
C231 O217 1.247 . S
C231 C225 1.507 . S
H232 C205 0.930 . S
H233 C206 0.931 . S
H234 C207 0.930 . S
H235 C208 0.930 . S
H236 C227 0.930 . S
H237 C228 0.931 . S
H238 C229 0.930 1_554 S
H239 C230 0.930 . S
C240 C241 1.349 . S
C240 C242 1.327 . S
C240 H265 0.950 . S
C241 C240 1.349 . S
C241 C257 1.349 . S
C242 C240 1.327 . S
C242 C261 1.429 . S
C242 H266 0.950 . S
C243 C260 1.574 . S
C243 C262 1.368 . S
C243 H267 0.949 . S
H244 C248 0.949 . S
C245 C246 1.349 . S
C245 C247 1.327 . S
C245 H268 0.950 . S
C246 C245 1.349 . S
C246 C258 1.349 . S
C247 C245 1.327 . S
C247 C263 1.429 . S
C247 H269 0.950 . S
C248 H244 0.949 . S
C248 C256 1.574 . S
C248 C264 1.368 . S
H249 C257 0.950 . S
H250 C255 0.950 . S
H251 C256 0.949 . S
H252 C258 0.950 . S
H253 C259 0.950 . S
H254 C260 0.949 . S
C255 H250 0.950 . S
C255 C257 1.327 . S
C255 C261 1.429 . S
C256 C248 1.574 . S
C256 H251 0.949 . S
C256 C262 1.368 . S
C257 C241 1.349 . S
C257 H249 0.950 . S
C257 C255 1.327 . S
C258 C246 1.349 . S
C258 H252 0.950 . S
C258 C259 1.327 . S
C259 H253 0.950 . S
C259 C258 1.327 . S
C259 C263 1.429 . S
C260 C243 1.574 . S
C260 H254 0.949 . S
C260 C264 1.368 . S
C261 C242 1.429 . S
C261 C255 1.429 . S
C261 C262 1.523 . S
C262 C243 1.368 . S
C262 C256 1.368 . S
C262 C261 1.523 . S
C263 C247 1.429 . S
C263 C259 1.429 . S
C263 C264 1.523 . S
C264 C248 1.368 . S
C264 C260 1.368 . S
C264 C263 1.523 . S
H265 C240 0.950 . S
H266 C242 0.950 . S
H267 C243 0.949 . S
H268 C245 0.950 . S
H269 C247 0.950 . S
C270 C271 1.349 . S
C270 C272 1.327 . S
C270 H295 0.950 . S
C271 C270 1.349 . S
C271 C287 1.349 . S
C272 C270 1.327 . S
C272 C291 1.429 . S
C272 H296 0.950 . S
C273 C290 1.574 . S
C273 C292 1.368 . S
C273 H297 0.949 . S
H274 C278 0.949 . S
C275 C276 1.349 . S
C275 C277 1.327 . S
C275 H298 0.950 . S
C276 C275 1.349 . S
C276 C288 1.349 . S
C277 C275 1.327 . S
C277 C293 1.429 . S
C277 H299 0.950 . S
C278 H274 0.949 . S
C278 C286 1.576 1_655 S
C278 C294 1.368 . S
H279 C287 0.950 . S
H280 C285 0.950 . S
H281 C286 0.949 1_655 S
H282 C288 0.950 . S
H283 C289 0.950 . S
H284 C290 0.949 . S
C285 H280 0.950 . S
C285 C287 1.327 . S
C285 C291 1.429 . S
C286 C278 1.576 1_455 S
C286 H281 0.949 1_455 S
C286 C292 1.366 . S
C287 C271 1.349 . S
C287 H279 0.950 . S
C287 C285 1.327 . S
C288 C276 1.349 . S
C288 H282 0.950 . S
C288 C289 1.327 . S
C289 H283 0.950 . S
C289 C288 1.327 . S
C289 C293 1.429 . S
C290 C273 1.574 . S
C290 H284 0.949 . S
C290 C294 1.368 1_455 S
C291 C272 1.429 . S
C291 C285 1.429 . S
C291 C292 1.523 . S
C292 C273 1.368 . S
C292 C286 1.366 . S
C292 C291 1.523 . S
C293 C277 1.429 . S
C293 C289 1.429 . S
C293 C294 1.523 . S
C294 C278 1.368 . S
C294 C290 1.368 1_655 S
C294 C293 1.523 . S
H295 C270 0.950 . S
H296 C272 0.950 . S
H297 C273 0.949 . S
H298 C275 0.950 . S
H299 C277 0.950 . S
C300 C301 1.349 . S
C300 C302 1.327 . S
C300 H325 0.950 . S
C301 C300 1.349 . S
C301 C317 1.349 . S
C302 C300 1.327 . S
C302 C321 1.429 . S
C302 H326 0.950 . S
C303 C320 1.574 . S
C303 C322 1.368 . S
C303 H327 0.949 . S
H304 C308 0.949 . S
C305 C306 1.349 . S
C305 C307 1.327 . S
C305 H328 0.950 . S
C306 C305 1.349 . S
C306 C318 1.349 . S
C307 C305 1.327 . S
C307 C323 1.429 . S
C307 H329 0.950 . S
C308 H304 0.949 . S
C308 C316 1.574 . S
C308 C324 1.368 . S
H309 C317 0.950 . S
H310 C315 0.950 . S
H311 C316 0.949 . S
H312 C318 0.950 . S
H313 C319 0.950 1_545 S
H314 C320 0.949 1_565 S
C315 H310 0.950 . S
C315 C317 1.327 . S
C315 C321 1.429 . S
C316 C308 1.574 . S
C316 H311 0.949 . S
C316 C322 1.368 . S
C317 C301 1.349 . S
C317 H309 0.950 . S
C317 C315 1.327 . S
C318 C306 1.349 . S
C318 H312 0.950 . S
C318 C319 1.327 . S
C319 H313 0.950 1_565 S
C319 C318 1.327 . S
C319 C323 1.429 . S
C320 C303 1.574 . S
C320 H314 0.949 1_545 S
C320 C324 1.368 . S
C321 C302 1.429 . S
C321 C315 1.429 . S
C321 C322 1.523 . S
C322 C303 1.368 . S
C322 C316 1.368 . S
C322 C321 1.523 . S
C323 C307 1.429 . S
C323 C319 1.429 . S
C323 C324 1.523 1_565 S
C324 C308 1.368 . S
C324 C320 1.368 . S
C324 C323 1.523 1_545 S
H325 C300 0.950 . S
H326 C302 0.950 . S
H327 C303 0.949 . S
H328 C305 0.950 . S
H329 C307 0.950 . S
C330 C331 1.349 . S
C330 C332 1.327 . S
C330 H355 0.950 . S
C331 C330 1.349 . S
C331 C347 1.349 . S
C332 C330 1.327 . S
C332 C351 1.429 . S
C332 H356 0.950 . S
C333 C350 1.574 . S
C333 C352 1.368 . S
C333 H357 0.949 . S
H334 C338 0.949 . S
C335 C336 1.349 . S
C335 C337 1.327 . S
C335 H358 0.950 . S
C336 C335 1.349 . S
C336 C348 1.349 . S
C337 C335 1.327 . S
C337 C353 1.429 . S
C337 H359 0.950 . S
C338 H334 0.949 . S
C338 C346 1.574 . S
C338 C354 1.368 . S
H339 C347 0.950 . S
H340 C345 0.950 . S
H341 C346 0.949 . S
H342 C348 0.950 . S
H343 C349 0.950 . S
H344 C350 0.949 . S
C345 H340 0.950 . S
C345 C347 1.327 . S
C345 C351 1.429 . S
C346 C338 1.574 . S
C346 H341 0.949 . S
C346 C352 1.368 . S
C347 C331 1.349 . S
C347 H339 0.950 . S
C347 C345 1.327 . S
C348 C336 1.349 . S
C348 H342 0.950 . S
C348 C349 1.327 . S
C349 H343 0.950 . S
C349 C348 1.327 . S
C349 C353 1.429 . S
C350 C333 1.574 . S
C350 H344 0.949 . S
C350 C354 1.368 . S
C351 C332 1.429 . S
C351 C345 1.429 . S
C351 C352 1.523 . S
C352 C333 1.368 . S
C352 C346 1.368 . S
C352 C351 1.523 . S
C353 C337 1.429 . S
C353 C349 1.429 . S
C353 C354 1.523 . S
C354 C338 1.368 . S
C354 C350 1.368 . S
C354 C353 1.523 . S
H355 C330 0.950 . S
H356 C332 0.950 . S
H357 C333 0.949 . S
H358 C335 0.950 . S
H359 C337 0.950 . S
C360 C361 1.349 . S
C360 C362 1.327 . S
C360 H385 0.950 . S
C361 C360 1.349 . S
C361 C377 1.349 . S
C362 C360 1.327 . S
C362 C381 1.429 1_455 S
C362 H386 0.950 1_455 S
C363 C380 1.574 . S
C363 C382 1.368 . S
C363 H387 0.949 . S
H364 C368 0.949 . S
C365 C366 1.349 . S
C365 C367 1.327 . S
C365 H388 0.950 . S
C366 C365 1.349 . S
C366 C378 1.349 . S
C367 C365 1.327 . S
C367 C383 1.429 . S
C367 H389 0.950 . S
C368 H364 0.949 . S
C368 C376 1.574 . S
C368 C384 1.368 . S
H369 C377 0.950 . S
H370 C375 0.950 . S
H371 C376 0.949 . S
H372 C378 0.950 . S
H373 C379 0.950 . S
H374 C380 0.949 . S
C375 H370 0.950 . S
C375 C377 1.327 . S
C375 C381 1.429 1_455 S
C376 C368 1.574 . S
C376 H371 0.949 . S
C376 C382 1.368 . S
C377 C361 1.349 . S
C377 H369 0.950 . S
C377 C375 1.327 . S
C378 C366 1.349 . S
C378 H372 0.950 . S
C378 C379 1.327 . S
C379 H373 0.950 . S
C379 C378 1.327 . S
C379 C383 1.429 . S
C380 C363 1.574 . S
C380 H374 0.949 . S
C380 C384 1.368 . S
C381 C362 1.429 1_655 S
C381 C375 1.429 1_655 S
C381 C382 1.523 . S
C382 C363 1.368 . S
C382 C376 1.368 . S
C382 C381 1.523 . S
C383 C367 1.429 . S
C383 C379 1.429 . S
C383 C384 1.523 . S
C384 C368 1.368 . S
C384 C380 1.368 . S
C384 C383 1.523 . S
H385 C360 0.950 . S
H386 C362 0.950 1_655 S
H387 C363 0.949 . S
H388 C365 0.950 . S
H389 C367 0.950 . S
C390 C391 1.349 . S
C390 C392 1.327 . S
C390 H415 0.950 . S
C391 C390 1.349 . S
C391 C407 1.349 . S
C392 C390 1.327 . S
C392 C411 1.429 . S
C392 H416 0.950 . S
C393 C410 1.574 1_565 S
C393 C412 1.368 . S
C393 H417 0.949 . S
H394 C398 0.949 . S
C395 C396 1.349 . S
C395 C397 1.327 . S
C395 H418 0.950 . S
C396 C395 1.349 . S
C396 C408 1.349 . S
C397 C395 1.327 . S
C397 C413 1.429 . S
C397 H419 0.950 . S
C398 H394 0.949 . S
C398 C406 1.574 . S
C398 C414 1.368 . S
H399 C407 0.950 . S
H400 C405 0.950 . S
H401 C406 0.949 . S
H402 C408 0.950 . S
H403 C409 0.935 1_565 S
H404 C410 0.949 . S
C405 H400 0.950 . S
C405 C407 1.327 . S
C405 C411 1.429 . S
C406 C398 1.574 . S
C406 H401 0.949 . S
C406 C412 1.368 . S
C407 C391 1.349 . S
C407 H399 0.950 . S
C407 C405 1.327 . S
C408 C396 1.349 . S
C408 H402 0.950 . S
C408 C409 1.335 . S
C409 H403 0.935 1_545 S
C409 C408 1.335 . S
C409 C413 1.435 . S
C410 C393 1.574 1_545 S
C410 H404 0.949 . S
C410 C414 1.368 1_545 S
C411 C392 1.429 . S
C411 C405 1.429 . S
C411 C412 1.523 . S
C412 C393 1.368 . S
C412 C406 1.368 . S
C412 C411 1.523 . S
C413 C397 1.429 . S
C413 C409 1.435 . S
C413 C414 1.523 1_545 S
C414 C398 1.368 . S
C414 C410 1.368 1_565 S
C414 C413 1.523 1_565 S
H415 C390 0.950 . S
H416 C392 0.950 . S
H417 C393 0.949 . S
H418 C395 0.950 . S
H419 C397 0.950 . S
C420 C421 1.349 1_556 S
C420 C422 1.327 . S
C420 H445 0.950 . S
C421 C420 1.349 1_554 S
C421 C437 1.349 . S
C422 C420 1.327 . S
C422 C441 1.429 . S
C422 H446 0.950 . S
C423 C440 1.574 . S
C423 C442 1.368 1_554 S
C423 H447 0.949 . S
H424 C428 0.949 . S
C425 C426 1.349 . S
C425 C427 1.327 . S
C425 H448 0.950 . S
C426 C425 1.349 . S
C426 C438 1.349 . S
C427 C425 1.327 . S
C427 C443 1.429 . S
C427 H449 0.950 1_556 S
C428 H424 0.949 . S
C428 C436 1.574 . S
C428 C444 1.368 . S
H429 C437 0.950 . S
H430 C435 0.950 . S
H431 C436 0.949 . S
H432 C438 0.950 . S
H433 C439 0.950 . S
H434 C440 0.949 . S
C435 H430 0.950 . S
C435 C437 1.327 . S
C435 C441 1.429 1_554 S
C436 C428 1.574 . S
C436 H431 0.949 . S
C436 C442 1.368 . S
C437 C421 1.349 . S
C437 H429 0.950 . S
C437 C435 1.327 . S
C438 C426 1.349 . S
C438 H432 0.950 . S
C438 C439 1.327 . S
C439 H433 0.950 . S
C439 C438 1.327 . S
C439 C443 1.429 . S
C440 C423 1.574 . S
C440 H434 0.949 . S
C440 C444 1.368 1_554 S
C441 C422 1.429 . S
C441 C435 1.429 1_556 S
C441 C442 1.523 . S
C442 C423 1.368 1_556 S
C442 C436 1.368 . S
C442 C441 1.523 . S
C443 C427 1.429 . S
C443 C439 1.429 . S
C443 C444 1.523 . S
C444 C428 1.368 . S
C444 C440 1.368 1_556 S
C444 C443 1.523 . S
H445 C420 0.950 . S
H446 C422 0.950 . S
H447 C423 0.949 . S
H448 C425 0.950 . S
H449 C427 0.950 1_554 S
C450 C451 1.349 1_554 S
C450 C452 1.327 . S
C450 H475 0.950 . S
C451 C450 1.349 1_556 S
C451 C467 1.349 . S
C452 C450 1.327 . S
C452 C471 1.429 1_554 S
C452 H476 0.950 . S
C453 C470 1.574 . S
C453 C472 1.368 . S
C453 H477 0.949 . S
H454 C458 0.949 . S
C455 C456 1.349 . S
C455 C457 1.327 . S
C455 H478 0.950 . S
C456 C455 1.349 . S
C456 C468 1.349 1_556 S
C457 C455 1.327 . S
C457 C473 1.429 . S
C457 H479 0.950 . S
C458 H454 0.949 . S
C458 C466 1.574 . S
C458 C474 1.368 1_554 S
H459 C467 0.950 . S
H460 C465 0.950 . S
H461 C466 0.949 . S
H462 C468 0.950 . S
H463 C469 0.950 . S
H464 C470 0.949 . S
C465 H460 0.950 . S
C465 C467 1.327 . S
C465 C471 1.429 . S
C466 C458 1.574 . S
C466 H461 0.949 . S
C466 C472 1.368 1_554 S
C467 C451 1.349 . S
C467 H459 0.950 . S
C467 C465 1.327 . S
C468 C456 1.349 1_554 S
C468 H462 0.950 . S
C468 C469 1.327 . S
C469 H463 0.950 . S
C469 C468 1.327 . S
C469 C473 1.429 1_554 S
C470 C453 1.574 . S
C470 H464 0.949 . S
C470 C474 1.368 . S
C471 C452 1.429 1_556 S
C471 C465 1.429 . S
C471 C472 1.523 . S
C472 C453 1.368 . S
C472 C466 1.368 1_556 S
C472 C471 1.523 . S
C473 C457 1.429 . S
C473 C469 1.429 1_556 S
C473 C474 1.523 . S
C474 C458 1.368 1_556 S
C474 C470 1.368 . S
C474 C473 1.523 . S
H475 C450 0.950 . S
H476 C452 0.950 . S
H477 C453 0.949 . S
H478 C455 0.950 . S
H479 C457 0.950 . S
C480 C481 1.349 1_554 S
C480 C482 1.327 . S
C480 H505 0.950 . S
C481 C480 1.349 1_556 S
C481 C497 1.349 . S
C482 C480 1.327 . S
C482 C501 1.429 1_554 S
C482 H506 0.950 . S
C483 C500 1.574 . S
C483 C502 1.368 . S
C483 H507 0.949 . S
H484 C488 0.949 . S
C485 C486 1.349 . S
C485 C487 1.327 . S
C485 H508 0.950 . S
C486 C485 1.349 . S
C486 C498 1.349 1_556 S
C487 C485 1.327 . S
C487 C503 1.429 . S
C487 H509 0.950 . S
C488 H484 0.949 . S
C488 C496 1.574 . S
C488 C504 1.368 1_554 S
H489 C497 0.950 . S
H490 C495 0.950 . S
H491 C496 0.949 . S
H492 C498 0.950 . S
H493 C499 0.950 . S
H494 C500 0.949 . S
C495 H490 0.950 . S
C495 C497 1.327 . S
C495 C501 1.429 . S
C496 C488 1.574 . S
C496 H491 0.949 . S
C496 C502 1.368 1_554 S
C497 C481 1.349 . S
C497 H489 0.950 . S
C497 C495 1.327 . S
C498 C486 1.349 1_554 S
C498 H492 0.950 . S
C498 C499 1.327 . S
C499 H493 0.950 . S
C499 C498 1.327 . S
C499 C503 1.429 1_554 S
C500 C483 1.574 . S
C500 H494 0.949 . S
C500 C504 1.368 . S
C501 C482 1.429 1_556 S
C501 C495 1.429 . S
C501 C502 1.523 . S
C502 C483 1.368 . S
C502 C496 1.368 1_556 S
C502 C501 1.523 . S
C503 C487 1.429 . S
C503 C499 1.429 1_556 S
C503 C504 1.523 . S
C504 C488 1.368 1_556 S
C504 C500 1.368 . S
C504 C503 1.523 . S
H505 C480 0.950 . S
H506 C482 0.950 . S
H507 C483 0.949 . S
H508 C485 0.950 . S
H509 C487 0.950 . S
C510 C511 1.349 . S
C510 C512 1.327 . S
C510 H535 0.950 . S
C511 C510 1.349 . S
C511 C527 1.349 . S
C512 C510 1.327 . S
C512 C531 1.429 . S
C512 H536 0.950 . S
C513 C530 1.574 . S
C513 C532 1.368 . S
C513 H537 0.949 . S
H514 C518 0.949 . S
C515 C516 1.349 . S
C515 C517 1.327 . S
C515 H538 0.950 . S
C516 C515 1.349 . S
C516 C528 1.349 . S
C517 C515 1.327 . S
C517 C533 1.429 . S
C517 H539 0.950 . S
C518 H514 0.949 . S
C518 C526 1.574 . S
C518 C534 1.368 . S
H519 C527 0.950 . S
H520 C525 0.950 . S
H521 C526 0.949 . S
H522 C528 0.950 . S
H523 C529 0.950 . S
H524 C530 0.949 . S
C525 H520 0.950 . S
C525 C527 1.327 . S
C525 C531 1.429 . S
C526 C518 1.574 . S
C526 H521 0.949 . S
C526 C532 1.368 . S
C527 C511 1.349 . S
C527 H519 0.950 . S
C527 C525 1.327 . S
C528 C516 1.349 . S
C528 H522 0.950 . S
C528 C529 1.327 . S
C529 H523 0.950 . S
C529 C528 1.327 . S
C529 C533 1.429 . S
C530 C513 1.574 . S
C530 H524 0.949 . S
C530 C534 1.368 . S
C531 C512 1.429 . S
C531 C525 1.429 . S
C531 C532 1.523 . S
C532 C513 1.368 . S
C532 C526 1.368 . S
C532 C531 1.523 . S
C533 C517 1.429 . S
C533 C529 1.429 . S
C533 C534 1.523 . S
C534 C518 1.368 . S
C534 C530 1.368 . S
C534 C533 1.523 . S
H535 C510 0.950 . S
H536 C512 0.950 . S
H537 C513 0.949 . S
H538 C515 0.950 . S
H539 C517 0.950 . S
C540 C541 1.349 . S
C540 C542 1.327 . S
C540 H565 0.950 . S
C541 C540 1.349 . S
C541 C557 1.349 1_556 S
C542 C540 1.327 . S
C542 C561 1.429 . S
C542 H566 0.950 . S
C543 C560 1.574 . S
C543 C562 1.368 1_554 S
C543 H567 0.949 . S
H544 C548 0.949 . S
C545 C546 1.349 . S
C545 C547 1.327 . S
C545 H568 0.950 . S
C546 C545 1.349 . S
C546 C558 1.349 1_554 S
C547 C545 1.327 . S
C547 C563 1.429 . S
C547 H569 0.950 . S
C548 H544 0.949 . S
C548 C556 1.574 . S
C548 C564 1.368 1_556 S
H549 C557 0.950 . S
H550 C555 0.950 . S
H551 C556 0.949 . S
H552 C558 0.950 . S
H553 C559 0.950 . S
H554 C560 0.949 . S
C555 H550 0.950 . S
C555 C557 1.327 . S
C555 C561 1.429 1_554 S
C556 C548 1.574 . S
C556 H551 0.949 . S
C556 C562 1.368 . S
C557 C541 1.349 1_554 S
C557 H549 0.950 . S
C557 C555 1.327 . S
C558 C546 1.349 1_556 S
C558 H552 0.950 . S
C558 C559 1.327 . S
C559 H553 0.950 . S
C559 C558 1.327 . S
C559 C563 1.429 1_556 S
C560 C543 1.574 . S
C560 H554 0.949 . S
C560 C564 1.368 . S
C561 C542 1.429 . S
C561 C555 1.429 1_556 S
C561 C562 1.523 . S
C562 C543 1.368 1_556 S
C562 C556 1.368 . S
C562 C561 1.523 . S
C563 C547 1.429 . S
C563 C559 1.429 1_554 S
C563 C564 1.523 . S
C564 C548 1.368 1_554 S
C564 C560 1.368 . S
C564 C563 1.523 . S
H565 C540 0.950 . S
H566 C542 0.950 . S
H567 C543 0.949 . S
H568 C545 0.950 . S
H569 C547 0.950 . S
C570 C571 1.349 . S
C570 C572 1.327 . S
C570 H595 0.950 1_556 S
C571 C570 1.349 . S
C571 C587 1.349 . S
C572 C570 1.327 . S
C572 C591 1.429 . S
C572 H596 0.950 1_556 S
C573 C590 1.574 . S
C573 C592 1.368 . S
C573 H597 0.949 . S
H574 C578 0.948 . S
C575 C576 1.349 . S
C575 C577 1.327 . S
C575 H598 0.950 . S
C576 C575 1.349 . S
C576 C588 1.349 . S
C577 C575 1.327 . S
C577 C593 1.429 . S
C577 H599 0.950 . S
C578 H574 0.948 . S
C578 C586 1.574 . S
C578 C594 1.368 . S
H579 C587 0.950 . S
H580 C585 0.950 . S
H581 C586 0.949 1_554 S
H582 C588 0.950 . S
H583 C589 0.950 . S
H584 C590 0.949 . S
C585 H580 0.950 . S
C585 C587 1.327 . S
C585 C591 1.429 . S
C586 C578 1.574 . S
C586 H581 0.949 1_556 S
C586 C592 1.368 . S
C587 C571 1.349 . S
C587 H579 0.950 . S
C587 C585 1.327 . S
C588 C576 1.349 . S
C588 H582 0.950 . S
C588 C589 1.327 . S
C589 H583 0.950 . S
C589 C588 1.327 . S
C589 C593 1.429 . S
C590 C573 1.574 . S
C590 H584 0.949 . S
C590 C594 1.368 . S
C591 C572 1.429 . S
C591 C585 1.429 . S
C591 C592 1.523 . S
C592 C573 1.368 . S
C592 C586 1.368 . S
C592 C591 1.523 . S
C593 C577 1.429 . S
C593 C589 1.429 . S
C593 C594 1.523 . S
C594 C578 1.368 . S
C594 C590 1.368 . S
C594 C593 1.523 . S
H595 C570 0.950 1_554 S
H596 C572 0.950 1_554 S
H597 C573 0.949 . S
H598 C575 0.950 . S
H599 C577 0.950 . S
C600 C601 1.349 . S
C600 C602 1.327 . S
C600 H625 0.950 . S
C601 C600 1.349 . S
C601 C617 1.349 . S
C602 C600 1.327 . S
C602 C621 1.429 . S
C602 H626 0.950 . S
C603 C620 1.574 . S
C603 C622 1.368 . S
C603 H627 0.949 . S
H604 C608 0.949 . S
C605 C606 1.349 . S
C605 C607 1.327 . S
C605 H628 0.950 . S
C606 C605 1.349 . S
C606 C618 1.349 . S
C607 C605 1.327 . S
C607 C623 1.429 . S
C607 H629 0.950 . S
C608 H604 0.949 . S
C608 C616 1.574 . S
C608 C624 1.368 . S
H609 C617 0.950 . S
H610 C615 0.950 . S
H611 C616 0.949 . S
H612 C618 0.950 . S
H613 C619 0.950 . S
H614 C620 0.949 . S
C615 H610 0.950 . S
C615 C617 1.327 . S
C615 C621 1.429 . S
C616 C608 1.574 . S
C616 H611 0.949 . S
C616 C622 1.368 . S
C617 C601 1.349 . S
C617 H609 0.950 . S
C617 C615 1.327 . S
C618 C606 1.349 . S
C618 H612 0.950 . S
C618 C619 1.327 . S
C619 H613 0.950 . S
C619 C618 1.327 . S
C619 C623 1.429 . S
C620 C603 1.574 . S
C620 H614 0.949 . S
C620 C624 1.368 . S
C621 C602 1.429 . S
C621 C615 1.429 . S
C621 C622 1.523 . S
C622 C603 1.368 . S
C622 C616 1.368 . S
C622 C621 1.523 . S
C623 C607 1.429 . S
C623 C619 1.429 . S
C623 C624 1.523 . S
C624 C608 1.368 . S
C624 C620 1.368 . S
C624 C623 1.523 . S
H625 C600 0.950 . S
H626 C602 0.950 . S
H627 C603 0.949 . S
H628 C605 0.950 . S
H629 C607 0.950 . S
C630 C631 1.349 . S
C630 C632 1.327 . S
C630 H655 0.950 . S
C631 C630 1.349 . S
C631 C647 1.349 . S
C632 C630 1.327 . S
C632 C651 1.429 . S
C632 H656 0.950 . S
C633 C650 1.574 . S
C633 C652 1.368 . S
C633 H657 0.949 . S
H634 C638 0.949 . S
C635 C636 1.349 . S
C635 C637 1.327 . S
C635 H658 0.950 . S
C636 C635 1.349 . S
C636 C648 1.349 . S
C637 C635 1.327 . S
C637 C653 1.429 . S
C637 H659 0.950 . S
C638 H634 0.949 . S
C638 C646 1.574 . S
C638 C654 1.368 . S
H639 C647 0.950 . S
H640 C645 0.950 . S
H641 C646 0.949 . S
H642 C648 0.950 . S
H643 C649 0.950 . S
H644 C650 0.949 . S
C645 H640 0.950 . S
C645 C647 1.327 . S
C645 C651 1.429 . S
C646 C638 1.574 . S
C646 H641 0.949 . S
C646 C652 1.368 . S
C647 C631 1.349 . S
C647 H639 0.950 . S
C647 C645 1.327 . S
C648 C636 1.349 . S
C648 H642 0.950 . S
C648 C649 1.327 . S
C649 H643 0.950 . S
C649 C648 1.327 . S
C649 C653 1.429 . S
C650 C633 1.574 . S
C650 H644 0.949 . S
C650 C654 1.368 . S
C651 C632 1.429 . S
C651 C645 1.429 . S
C651 C652 1.523 . S
C652 C633 1.368 . S
C652 C646 1.368 . S
C652 C651 1.523 . S
C653 C637 1.429 . S
C653 C649 1.429 . S
C653 C654 1.523 . S
C654 C638 1.368 . S
C654 C650 1.368 . S
C654 C653 1.523 . S
H655 C630 0.950 . S
H656 C632 0.950 . S
H657 C633 0.949 . S
H658 C635 0.950 . S
H659 C637 0.950 . S
C660 C661 1.349 . S
C660 C662 1.327 . S
C660 H685 0.950 . S
C661 C660 1.349 . S
C661 C677 1.349 . S
C662 C660 1.327 . S
C662 C681 1.429 . S
C662 H686 0.950 . S
C663 C680 1.574 . S
C663 C682 1.368 . S
C663 H687 0.949 . S
H664 C668 0.949 . S
C665 C666 1.349 . S
C665 C667 1.327 . S
C665 H688 0.950 . S
C666 C665 1.349 . S
C666 C678 1.349 . S
C667 C665 1.327 . S
C667 C683 1.429 . S
C667 H689 0.950 . S
C668 H664 0.949 . S
C668 C676 1.574 . S
C668 C684 1.368 . S
H669 C677 0.950 . S
H670 C675 0.950 . S
H671 C676 0.949 . S
H672 C678 0.950 . S
H673 C679 0.950 . S
H674 C680 0.949 . S
C675 H670 0.950 . S
C675 C677 1.327 . S
C675 C681 1.429 . S
C676 C668 1.574 . S
C676 H671 0.949 . S
C676 C682 1.368 . S
C677 C661 1.349 . S
C677 H669 0.950 . S
C677 C675 1.327 . S
C678 C666 1.349 . S
C678 H672 0.950 . S
C678 C679 1.327 . S
C679 H673 0.950 . S
C679 C678 1.327 . S
C679 C683 1.429 . S
C680 C663 1.574 . S
C680 H674 0.949 . S
C680 C684 1.368 . S
C681 C662 1.429 . S
C681 C675 1.429 . S
C681 C682 1.523 . S
C682 C663 1.368 . S
C682 C676 1.368 . S
C682 C681 1.523 . S
C683 C667 1.429 . S
C683 C679 1.429 . S
C683 C684 1.523 . S
C684 C668 1.368 . S
C684 C680 1.368 . S
C684 C683 1.523 . S
H685 C660 0.950 . S
H686 C662 0.950 . S
H687 C663 0.949 . S
H688 C665 0.950 . S
H689 C667 0.950 . S
C690 C691 1.349 . S
C690 C692 1.327 . S
C690 H715 0.950 . S
C691 C690 1.349 . S
C691 C707 1.349 . S
C692 C690 1.327 . S
C692 C711 1.429 . S
C692 H716 0.950 . S
C693 C710 1.574 . S
C693 C712 1.368 . S
C693 H717 0.949 . S
H694 C698 0.949 . S
C695 C696 1.349 . S
C695 C697 1.327 1_556 S
C695 H718 0.950 . S
C696 C695 1.349 . S
C696 C708 1.349 . S
C697 C695 1.327 1_554 S
C697 C713 1.429 . S
C697 H719 0.950 . S
C698 H694 0.949 . S
C698 C706 1.574 . S
C698 C714 1.368 . S
H699 C707 0.950 . S
H700 C705 0.950 . S
H701 C706 0.949 . S
H702 C708 0.950 . S
H703 C709 0.950 . S
H704 C710 0.949 . S
C705 H700 0.950 . S
C705 C707 1.327 . S
C705 C711 1.429 . S
C706 C698 1.574 . S
C706 H701 0.949 . S
C706 C712 1.368 . S
C707 C691 1.349 . S
C707 H699 0.950 . S
C707 C705 1.327 . S
C708 C696 1.349 . S
C708 H702 0.950 . S
C708 C709 1.327 1_556 S
C709 H703 0.950 . S
C709 C708 1.327 1_554 S
C709 C713 1.429 . S
C710 C693 1.574 . S
C710 H704 0.949 . S
C710 C714 1.368 . S
C711 C692 1.429 . S
C711 C705 1.429 . S
C711 C712 1.523 . S
C712 C693 1.368 . S
C712 C706 1.368 . S
C712 C711 1.523 . S
C713 C697 1.429 . S
C713 C709 1.429 . S
C713 C714 1.523 . S
C714 C698 1.368 . S
C714 C710 1.368 . S
C714 C713 1.523 . S
H715 C690 0.950 . S
H716 C692 0.950 . S
H717 C693 0.949 . S
H718 C695 0.950 . S
H719 C697 0.950 . S
C720 C721 1.349 . S
C720 C722 1.327 . S
C720 H745 0.950 . S
C721 C720 1.349 . S
C721 C737 1.349 . S
C722 C720 1.327 . S
C722 C741 1.429 . S
C722 H746 0.950 . S
C723 C740 1.574 . S
C723 C742 1.368 . S
C723 H747 0.949 . S
H724 C728 0.949 . S
C725 C726 1.349 . S
C725 C727 1.327 . S
C725 H748 0.950 . S
C726 C725 1.349 . S
C726 C738 1.349 . S
C727 C725 1.327 . S
C727 C743 1.429 . S
C727 H749 0.950 . S
C728 H724 0.949 . S
C728 C736 1.574 . S
C728 C744 1.368 . S
H729 C737 0.950 . S
H730 C735 0.950 . S
H731 C736 0.949 . S
H732 C738 0.950 . S
H733 C739 0.950 . S
H734 C740 0.949 . S
C735 H730 0.950 . S
C735 C737 1.327 . S
C735 C741 1.429 . S
C736 C728 1.574 . S
C736 H731 0.949 . S
C736 C742 1.368 . S
C737 C721 1.349 . S
C737 H729 0.950 . S
C737 C735 1.327 . S
C738 C726 1.349 . S
C738 H732 0.950 . S
C738 C739 1.327 . S
C739 H733 0.950 . S
C739 C738 1.327 . S
C739 C743 1.429 . S
C740 C723 1.574 . S
C740 H734 0.949 . S
C740 C744 1.368 . S
C741 C722 1.429 . S
C741 C735 1.429 . S
C741 C742 1.523 . S
C742 C723 1.368 . S
C742 C736 1.368 . S
C742 C741 1.523 . S
C743 C727 1.429 . S
C743 C739 1.429 . S
C743 C744 1.523 . S
C744 C728 1.368 . S
C744 C740 1.368 . S
C744 C743 1.523 . S
H745 C720 0.950 . S
H746 C722 0.950 . S
H747 C723 0.949 . S
H748 C725 0.950 . S
H749 C727 0.950 . S
C750 C751 1.349 . S
C750 C752 1.327 . S
C750 H775 0.950 . S
C751 C750 1.349 . S
C751 C767 1.349 . S
C752 C750 1.327 . S
C752 C771 1.429 . S
C752 H776 0.950 . S
C753 C770 1.574 . S
C753 C772 1.368 . S
C753 H777 0.949 . S
H754 C758 0.949 . S
C755 C756 1.349 . S
C755 C757 1.327 . S
C755 H778 0.950 . S
C756 C755 1.349 . S
C756 C768 1.349 . S
C757 C755 1.327 . S
C757 C773 1.429 . S
C757 H779 0.950 . S
C758 H754 0.949 . S
C758 C766 1.574 . S
C758 C774 1.368 . S
H759 C767 0.950 . S
H760 C765 0.950 . S
H761 C766 0.949 . S
H762 C768 0.950 . S
H763 C769 0.950 . S
H764 C770 0.949 . S
C765 H760 0.950 . S
C765 C767 1.327 . S
C765 C771 1.429 . S
C766 C758 1.574 . S
C766 H761 0.949 . S
C766 C772 1.368 . S
C767 C751 1.349 . S
C767 H759 0.950 . S
C767 C765 1.327 . S
C768 C756 1.349 . S
C768 H762 0.950 . S
C768 C769 1.327 . S
C769 H763 0.950 . S
C769 C768 1.327 . S
C769 C773 1.429 . S
C770 C753 1.574 . S
C770 H764 0.949 . S
C770 C774 1.368 . S
C771 C752 1.429 . S
C771 C765 1.429 . S
C771 C772 1.523 . S
C772 C753 1.368 . S
C772 C766 1.368 . S
C772 C771 1.523 . S
C773 C757 1.429 . S
C773 C769 1.429 . S
C773 C774 1.523 . S
C774 C758 1.368 . S
C774 C770 1.368 . S
C774 C773 1.523 . S
H775 C750 0.950 . S
H776 C752 0.950 . S
H777 C753 0.949 . S
H778 C755 0.950 . S
H779 C757 0.950 . S
C241 C209 1.759 . S
C246 C9 1.875 . S
C271 C22 3.269 . S
C276 C66 3.126 . S
C301 C43 2.220 . S
C306 C89 2.046 . S
C331 C142 4.135 . S
C336 C102 4.060 . S
C361 C169 2.499 . S
C366 C129 2.586 . S
C391 C182 2.299 . S
C396 C222 2.231 . S
C421 C163 1.497 . S
C426 C26 1.439 . S
C451 C226 1.110 . S
C456 C49 1.097 . S
C481 C106 2.242 . S
C486 C3 2.251 . S
C511 C123 3.905 . S
C516 C62 3.925 . S
C541 C186 3.089 . S
C546 C83 3.147 . S
C571 C146 2.223 . S
C576 C203 2.285 . S
C601 C2 0.375 . S
C606 C15 0.375 . S
C631 C42 0.417 . S
C636 C55 0.417 1_554 S
C661 C82 0.379 . S
C666 C95 0.379 . S
C691 C135 0.383 . S
C696 C122 0.383 . S
C721 C175 0.435 . S
C726 C162 0.435 . S
C751 C215 0.409 . S
C756 C202 0.409 1_554 S
