# Generated by pormake.
# Topology sow, (4)-cn, num edge types: 1
# Building blocks:
#     Node 0, Type 0, BuildingBlock: NAWXER_clean_sbu_0, # of connection points: 4
#     Node 1, Type 0, BuildingBlock: NAWXER_clean_sbu_0, # of connection points: 4
#     Node 2, Type 0, BuildingBlock: NAWXER_clean_sbu_0, # of connection points: 4
#     Node 3, Type 0, BuildingBlock: NAWXER_clean_sbu_0, # of connection points: 4
#     Node 4, Type 0, BuildingBlock: NAWXER_clean_sbu_0, # of connection points: 4
#     Node 5, Type 0, BuildingBlock: NAWXER_clean_sbu_0, # of connection points: 4
#     Node 6, Type 0, BuildingBlock: NAWXER_clean_sbu_0, # of connection points: 4
#     Node 7, Type 0, BuildingBlock: NAWXER_clean_sbu_0, # of connection points: 4
#     Edge 8, Type (0, 0), BuildingBlock: OJICUG_clean_linker_0, # of connection points: 2
#     Edge 9, Type (0, 0), BuildingBlock: OJICUG_clean_linker_0, # of connection points: 2
#     Edge 10, Type (0, 0), BuildingBlock: OJICUG_clean_linker_0, # of connection points: 2
#     Edge 11, Type (0, 0), BuildingBlock: OJICUG_clean_linker_0, # of connection points: 2
#     Edge 12, Type (0, 0), BuildingBlock: OJICUG_clean_linker_0, # of connection points: 2
#     Edge 13, Type (0, 0), BuildingBlock: OJICUG_clean_linker_0, # of connection points: 2
#     Edge 14, Type (0, 0), BuildingBlock: OJICUG_clean_linker_0, # of connection points: 2
#     Edge 15, Type (0, 0), BuildingBlock: OJICUG_clean_linker_0, # of connection points: 2
#     Edge 16, Type (0, 0), BuildingBlock: OJICUG_clean_linker_0, # of connection points: 2
#     Edge 17, Type (0, 0), BuildingBlock: OJICUG_clean_linker_0, # of connection points: 2
#     Edge 18, Type (0, 0), BuildingBlock: OJICUG_clean_linker_0, # of connection points: 2
#     Edge 19, Type (0, 0), BuildingBlock: OJICUG_clean_linker_0, # of connection points: 2
#     Edge 20, Type (0, 0), BuildingBlock: OJICUG_clean_linker_0, # of connection points: 2
#     Edge 21, Type (0, 0), BuildingBlock: OJICUG_clean_linker_0, # of connection points: 2
#     Edge 22, Type (0, 0), BuildingBlock: OJICUG_clean_linker_0, # of connection points: 2
#     Edge 23, Type (0, 0), BuildingBlock: OJICUG_clean_linker_0, # of connection points: 2
# Relax obj value: 0.113
# Max RMSD: 0.238
# Mean RMSD: 0.237
data_MOF--net-sow--node1-NAWXER_clean_sbu_0--edge1-OJICUG_clean_linker_0
_symmetry_space_group_name_H-M    P1
_symmetry_Int_Tables_number       1
_symmetry_cell_setting            triclinic
loop_
_symmetry_equiv_pos_as_xyz
'x, y, z'
_cell_length_a     31.343562
_cell_length_b     14.025409
_cell_length_c     16.838583
_cell_angle_alpha  89.98129
_cell_angle_beta   90.022577
_cell_angle_gamma 90.002639
loop_
_atom_site_label
_atom_site_type_symbol
_atom_site_fract_x
_atom_site_fract_y
_atom_site_fract_z
_atom_type_partial_charge
C0 C 0.21239 0.18925 0.17952 0.0
C1 C 0.09313 0.08425 0.01898 0.0
O2 O 0.20193 0.10558 0.15873 0.0
Zn3 Zn 0.15722 0.13775 0.08632 0.0
O4 O 0.19333 0.26089 0.14781 0.0
Zn5 Zn 0.14293 0.2802 0.06076 0.0
O6 O 0.10241 0.35621 0.1198 0.0
O7 O 0.1103 0.20756 0.16131 0.0
O8 O 0.09769 0.17518 0.01524 0.0
O9 O 0.12252 0.03392 0.04976 0.0
O10 O 0.18894 0.18865 0.98196 0.0
O11 O 0.16912 0.33818 0.96926 0.0
C12 C 0.09127 0.2885 0.16569 0.0
C13 C 0.19062 0.26788 0.94412 0.0
C14 C 0.30731 0.31451 0.68047 0.0
C15 C 0.42561 0.42024 0.51798 0.0
O16 O 0.31787 0.3981 0.65973 0.0
Zn17 Zn 0.36216 0.36607 0.58643 0.0
O18 O 0.32617 0.24284 0.64848 0.0
Zn19 Zn 0.37613 0.22378 0.56078 0.0
O20 O 0.41694 0.14739 0.61872 0.0
O21 O 0.41025 0.29671 0.65955 0.0
O22 O 0.42111 0.32926 0.51408 0.0
O23 O 0.39631 0.47033 0.54928 0.0
O24 O 0.33013 0.31542 0.4821 0.0
O25 O 0.34968 0.16569 0.46975 0.0
C26 C 0.42917 0.21557 0.66305 0.0
C27 C 0.3283 0.2361 0.44443 0.0
C28 C 0.7126 0.31532 0.81 0.0
C29 C 0.59319 0.42012 0.97004 0.0
O30 O 0.70209 0.39898 0.83071 0.0
Zn31 Zn 0.6573 0.3667 0.90287 0.0
O32 O 0.69353 0.24365 0.84165 0.0
Zn33 Zn 0.64304 0.22426 0.92844 0.0
O34 O 0.60263 0.14814 0.86927 0.0
O35 O 0.61051 0.29671 0.82761 0.0
O36 O 0.59776 0.3292 0.97376 0.0
O37 O 0.62256 0.47049 0.93929 0.0
O38 O 0.68895 0.31586 0.00741 0.0
O39 O 0.66914 0.16632 0.02006 0.0
C40 C 0.59155 0.21568 0.82313 0.0
C41 C 0.6906 0.23666 0.04528 0.0
C42 C 0.80711 0.19002 0.30936 0.0
C43 C 0.92566 0.08426 0.47135 0.0
O44 O 0.81761 0.10641 0.33017 0.0
Zn45 Zn 0.86206 0.1384 0.4032 0.0
O46 O 0.82607 0.26166 0.34122 0.0
Zn47 Zn 0.87618 0.28072 0.42874 0.0
O48 O 0.91695 0.3569 0.37051 0.0
O49 O 0.90992 0.20766 0.32968 0.0
O50 O 0.9212 0.17523 0.47522 0.0
O51 O 0.8963 0.03417 0.44022 0.0
O52 O 0.83023 0.18919 0.5076 0.0
O53 O 0.84987 0.33888 0.51989 0.0
C54 C 0.92893 0.28868 0.32598 0.0
C55 C 0.82849 0.2685 0.54527 0.0
C56 C 0.92552 0.92086 0.97023 0.0
C57 C 0.80637 0.81592 0.80942 0.0
O58 O 0.92095 0.82993 0.97399 0.0
Zn59 Zn 0.87572 0.72492 0.92836 0.0
O60 O 0.89616 0.97119 0.93938 0.0
Zn61 Zn 0.86149 0.86736 0.90275 0.0
O62 O 0.82967 0.81654 0.00706 0.0
O63 O 0.84946 0.667 0.0198 0.0
O64 O 0.81684 0.89958 0.8302 0.0
O65 O 0.82539 0.74427 0.8412 0.0
O66 O 0.91625 0.64881 0.86947 0.0
O67 O 0.90849 0.79749 0.82796 0.0
C68 C 0.82796 0.73732 0.04489 0.0
C69 C 0.9275 0.71652 0.82367 0.0
C70 C 0.59311 0.58479 0.47139 0.0
C71 C 0.71124 0.69065 0.30851 0.0
O72 O 0.59759 0.67577 0.47526 0.0
Zn73 Zn 0.64249 0.7813 0.42835 0.0
O74 O 0.62239 0.53471 0.44 0.0
Zn75 Zn 0.65647 0.63902 0.40271 0.0
O76 O 0.68856 0.68975 0.50695 0.0
O77 O 0.66901 0.83948 0.51928 0.0
O78 O 0.70071 0.60705 0.32928 0.0
O79 O 0.69239 0.7623 0.34054 0.0
O80 O 0.6016 0.85759 0.37052 0.0
O81 O 0.60827 0.70822 0.32976 0.0
C82 C 0.69041 0.76909 0.54458 0.0
C83 C 0.58933 0.78934 0.32629 0.0
C84 C 0.42568 0.58352 0.01949 0.0
C85 C 0.30606 0.68813 0.17903 0.0
O86 O 0.42108 0.67443 0.01569 0.0
Zn87 Zn 0.37566 0.77926 0.06071 0.0
O88 O 0.3963 0.53313 0.05017 0.0
Zn89 Zn 0.36146 0.63686 0.08637 0.0
O90 O 0.32984 0.68748 0.98169 0.0
O91 O 0.34964 0.83702 0.96898 0.0
O92 O 0.31664 0.60448 0.15842 0.0
O93 O 0.3251 0.75981 0.14737 0.0
O94 O 0.41592 0.85568 0.11991 0.0
O95 O 0.40812 0.70718 0.16178 0.0
C96 C 0.3282 0.76665 0.94376 0.0
C97 C 0.42699 0.78833 0.16622 0.0
C98 C 0.09318 0.91957 0.51783 0.0
C99 C 0.21178 0.81344 0.67959 0.0
O100 O 0.0976 0.82858 0.514 0.0
Zn101 Zn 0.14255 0.72297 0.56041 0.0
O102 O 0.12258 0.96962 0.54889 0.0
Zn103 Zn 0.15681 0.86529 0.58585 0.0
O104 O 0.1885 0.81432 0.48142 0.0
O105 O 0.16877 0.66467 0.4692 0.0
O106 O 0.20135 0.8971 0.65874 0.0
O107 O 0.19272 0.74187 0.64782 0.0
O108 O 0.10171 0.6471 0.61881 0.0
O109 O 0.10901 0.79629 0.65958 0.0
C110 C 0.19017 0.73499 0.44376 0.0
C111 C 0.08988 0.71541 0.6634 0.0
C112 C 0.26797 0.21012 0.77726 0.0
C113 C 0.27521 0.30073 0.74412 0.0
H114 H 0.23568 0.12856 0.86651 0.0
C115 C 0.25297 0.37946 0.77513 0.0
H116 H 0.2846 0.14801 0.75485 0.0
C117 C 0.22487 0.3683 0.83883 0.0
C118 C 0.21848 0.27823 0.87348 0.0
H119 H 0.25771 0.45028 0.751 0.0
H120 H 0.20882 0.43083 0.8619 0.0
C121 C 0.24 0.19904 0.84144 0.0
C122 C 0.25136 0.29375 0.27674 0.0
C123 C 0.2444 0.20317 0.24334 0.0
H124 H 0.28319 0.37532 0.36658 0.0
C125 C 0.26666 0.12455 0.27452 0.0
H126 H 0.23468 0.35578 0.25424 0.0
C127 C 0.2945 0.13576 0.33864 0.0
C128 C 0.3006 0.22578 0.37354 0.0
H129 H 0.26213 0.05376 0.25022 0.0
H130 H 0.31059 0.0733 0.3618 0.0
C131 C 0.27907 0.30489 0.34134 0.0
C132 C 0.76785 0.29442 0.21241 0.0
C133 C 0.775 0.20384 0.24568 0.0
H134 H 0.73569 0.37596 0.12294 0.0
C135 C 0.75272 0.12515 0.21468 0.0
H136 H 0.78452 0.35651 0.2348 0.0
C137 C 0.72467 0.13631 0.15086 0.0
C138 C 0.71838 0.22634 0.11607 0.0
H139 H 0.75738 0.05434 0.23891 0.0
H140 H 0.70859 0.0738 0.1278 0.0
C141 C 0.73994 0.30551 0.14811 0.0
C142 C 0.75165 0.21084 0.71297 0.0
C143 C 0.74465 0.30142 0.74631 0.0
H144 H 0.78349 0.12927 0.62321 0.0
C145 C 0.76689 0.38007 0.71514 0.0
H146 H 0.73498 0.14879 0.73546 0.0
C147 C 0.79473 0.36887 0.65106 0.0
C148 C 0.80085 0.27884 0.61619 0.0
H149 H 0.76233 0.45087 0.7394 0.0
H150 H 0.81079 0.43134 0.62788 0.0
C151 C 0.77935 0.19971 0.64842 0.0
C152 C 0.7937 0.63692 0.15018 0.0
C153 C 0.80006 0.72698 0.11549 0.0
H154 H 0.76089 0.55493 0.23804 0.0
C155 C 0.7785 0.80615 0.14746 0.0
H156 H 0.80979 0.57441 0.12716 0.0
C157 C 0.75053 0.79505 0.21163 0.0
C158 C 0.74332 0.70445 0.24483 0.0
H159 H 0.7828 0.87662 0.12236 0.0
H160 H 0.73386 0.85714 0.234 0.0
C161 C 0.76559 0.62575 0.21386 0.0
C162 C 0.72431 0.86948 0.65023 0.0
C163 C 0.71815 0.77944 0.61541 0.0
H164 H 0.75673 0.9515 0.73858 0.0
C165 C 0.73964 0.70031 0.64767 0.0
H166 H 0.70825 0.93196 0.62703 0.0
C167 C 0.76736 0.71144 0.71224 0.0
C168 C 0.77438 0.80204 0.74557 0.0
H169 H 0.73547 0.62986 0.62248 0.0
H170 H 0.78401 0.64939 0.73479 0.0
C171 C 0.75216 0.88069 0.71433 0.0
C172 C 0.29431 0.86692 0.83795 0.0
C173 C 0.30046 0.77693 0.87291 0.0
H174 H 0.26172 0.9489 0.74975 0.0
C175 C 0.2788 0.69783 0.841 0.0
H176 H 0.31048 0.92937 0.8609 0.0
C177 C 0.25091 0.70896 0.77667 0.0
C178 C 0.24388 0.79952 0.74325 0.0
H179 H 0.28294 0.62742 0.8663 0.0
H180 H 0.23414 0.64695 0.75439 0.0
C181 C 0.26628 0.87812 0.7741 0.0
C182 C 0.25177 0.62334 0.27392 0.0
C183 C 0.27397 0.702 0.24267 0.0
H184 H 0.20791 0.57206 0.36126 0.0
C185 C 0.26692 0.79261 0.27592 0.0
H186 H 0.25638 0.55252 0.24973 0.0
C187 C 0.23922 0.80374 0.34047 0.0
C188 C 0.21778 0.7246 0.37279 0.0
H189 H 0.28354 0.85468 0.25336 0.0
H190 H 0.23505 0.87421 0.36561 0.0
C191 C 0.22393 0.63454 0.338 0.0
C192 C 0.03362 0.20911 0.24119 0.0
C193 C 0.05154 0.29426 0.21268 0.0
H194 H 0.98093 0.14101 0.29642 0.0
C195 C 0.02857 0.37989 0.22162 0.0
H196 H 0.05005 0.14154 0.23509 0.0
C197 C 0.98825 0.37958 0.25812 0.0
C198 C 0.97006 0.29326 0.28374 0.0
H199 H 0.04148 0.44651 0.1997 0.0
H200 H 0.97113 0.4461 0.26523 0.0
C201 C 0.99341 0.2085 0.27532 0.0
C202 C 0.49468 0.2948 0.70991 0.0
C203 C 0.47052 0.21084 0.7045 0.0
H204 H 0.55198 0.36101 0.74789 0.0
C205 C 0.48798 0.12492 0.73261 0.0
H206 H 0.48275 0.36177 0.68665 0.0
C207 C 0.52833 0.12449 0.76906 0.0
C208 C 0.55202 0.20949 0.77551 0.0
H209 H 0.47022 0.05895 0.72772 0.0
H210 H 0.5406 0.05836 0.79319 0.0
C211 C 0.53492 0.29398 0.74403 0.0
C212 C 0.02598 0.79631 0.71585 0.0
C213 C 0.04884 0.7111 0.70601 0.0
H214 H 0.96971 0.8639 0.75714 0.0
C215 C 0.0302 0.62475 0.73042 0.0
H216 H 0.0388 0.86393 0.69581 0.0
C217 C 0.98987 0.62473 0.76691 0.0
C218 C 0.96734 0.71074 0.77704 0.0
H219 H 0.04693 0.55792 0.72224 0.0
H220 H 0.97657 0.55799 0.78776 0.0
C221 C 0.98576 0.79603 0.74997 0.0
C222 C 0.48334 0.71078 0.24654 0.0
C223 C 0.46642 0.79492 0.21409 0.0
H224 H 0.5354 0.6434 0.30465 0.0
C225 C 0.49025 0.87982 0.21973 0.0
H226 H 0.46615 0.64386 0.24339 0.0
C227 C 0.53059 0.87957 0.25619 0.0
C228 C 0.5479 0.79392 0.28514 0.0
H229 H 0.47812 0.94568 0.19487 0.0
H230 H 0.54849 0.94544 0.26035 0.0
C231 C 0.52358 0.71011 0.28068 0.0
C232 C 0.01604 0.0997 0.98134 0.0
C233 C 0.0509 0.04131 0.0016 0.0
H234 H 0.94904 0.10833 0.95776 0.0
C235 C 0.04366 0.94366 0.01478 0.0
H236 H 0.02027 0.17551 0.9719 0.0
C237 C 1.00261 0.9054 0.0079 0.0
C238 C 0.96775 0.9638 0.98765 0.0
H239 H 0.06961 0.89677 0.03148 0.0
H240 H 0.99838 0.82959 0.01733 0.0
C241 C 0.975 0.06144 0.97446 0.0
C242 C 0.54402 0.44361 0.47666 0.0
C243 C 0.55091 0.54161 0.48853 0.0
H244 H 0.49907 0.32891 0.47454 0.0
C245 C 0.51573 0.60001 0.50669 0.0
H246 H 0.57024 0.39669 0.46159 0.0
C247 C 0.47472 0.56139 0.5128 0.0
C248 C 0.46783 0.46339 0.50092 0.0
H249 H 0.51967 0.67609 0.51491 0.0
H250 H 0.4485 0.60831 0.52786 0.0
C251 C 0.50301 0.40499 0.48277 0.0
C252 C 0.47517 0.44299 0.01534 0.0
C253 C 0.4679 0.5406 0.00204 0.0
H254 H 0.52045 0.32894 0.01776 0.0
C255 C 0.5027 0.59897 0.98144 0.0
H256 H 0.44925 0.39613 0.03229 0.0
C257 C 0.54373 0.5607 0.97432 0.0
C258 C 0.55099 0.46308 0.9876 0.0
H259 H 0.49844 0.67475 0.97188 0.0
H260 H 0.56964 0.60755 0.95735 0.0
C261 C 0.51619 0.40472 0.00822 0.0
C262 C 0.01579 0.90448 0.48239 0.0
C263 C 0.05096 0.9628 0.50083 0.0
H264 H 0.94857 0.89625 0.46095 0.0
C265 C 0.04407 0.06076 0.51297 0.0
H266 H 0.01974 0.82844 0.47391 0.0
C267 C 1.00306 0.09939 0.50682 0.0
C268 C 0.96789 0.04107 0.48838 0.0
H269 H 0.07028 0.10761 0.52826 0.0
H270 H 0.9991 0.17544 0.51528 0.0
C271 C 0.97478 0.94311 0.47625 0.0
loop_
_geom_bond_atom_site_label_1
_geom_bond_atom_site_label_2
_geom_bond_distance
_geom_bond_site_symmetry_2
_ccdc_geom_bond_type
C0 O2 1.247 . S
C0 O4 1.258 . S
C1 O8 1.247 . S
C1 O9 1.258 . S
O2 C0 1.247 . S
O2 Zn3 2.028 . S
Zn3 O2 2.028 . S
Zn3 O7 2.035 . S
Zn3 O9 2.035 . S
Zn3 O10 2.028 . S
O4 C0 1.258 . S
O4 Zn5 2.035 . S
Zn5 O4 2.035 . S
Zn5 O6 2.028 . S
Zn5 O8 2.028 . S
Zn5 O11 2.035 1_554 S
O6 Zn5 2.028 . S
O6 C12 1.247 . S
O7 Zn3 2.035 . S
O7 C12 1.258 . S
O8 C1 1.247 . S
O8 Zn5 2.028 . S
O9 C1 1.258 . S
O9 Zn3 2.035 . S
O10 Zn3 2.028 . S
O10 C13 1.247 1_554 S
O11 Zn5 2.035 1_556 S
O11 C13 1.258 . S
C12 O6 1.247 . S
C12 O7 1.258 . S
C13 O10 1.247 1_556 S
C13 O11 1.258 . S
C14 O16 1.247 . S
C14 O18 1.258 . S
C15 O22 1.247 . S
C15 O23 1.258 . S
O16 C14 1.247 . S
O16 Zn17 2.028 . S
Zn17 O16 2.028 . S
Zn17 O21 2.035 . S
Zn17 O23 2.035 . S
Zn17 O24 2.028 . S
O18 C14 1.258 . S
O18 Zn19 2.035 . S
Zn19 O18 2.035 . S
Zn19 O20 2.028 . S
Zn19 O22 2.028 . S
Zn19 O25 2.035 . S
O20 Zn19 2.028 . S
O20 C26 1.247 . S
O21 Zn17 2.035 . S
O21 C26 1.258 . S
O22 C15 1.247 . S
O22 Zn19 2.028 . S
O23 C15 1.258 . S
O23 Zn17 2.035 . S
O24 Zn17 2.028 . S
O24 C27 1.247 . S
O25 Zn19 2.035 . S
O25 C27 1.258 . S
C26 O20 1.247 . S
C26 O21 1.258 . S
C27 O24 1.247 . S
C27 O25 1.258 . S
C28 O30 1.247 . S
C28 O32 1.258 . S
C29 O36 1.247 . S
C29 O37 1.258 . S
O30 C28 1.247 . S
O30 Zn31 2.028 . S
Zn31 O30 2.028 . S
Zn31 O35 2.035 . S
Zn31 O37 2.035 . S
Zn31 O38 2.028 . S
O32 C28 1.258 . S
O32 Zn33 2.035 . S
Zn33 O32 2.035 . S
Zn33 O34 2.028 . S
Zn33 O36 2.028 . S
Zn33 O39 2.035 1_556 S
O34 Zn33 2.028 . S
O34 C40 1.247 . S
O35 Zn31 2.035 . S
O35 C40 1.258 . S
O36 C29 1.247 . S
O36 Zn33 2.028 . S
O37 C29 1.258 . S
O37 Zn31 2.035 . S
O38 Zn31 2.028 . S
O38 C41 1.247 1_556 S
O39 Zn33 2.035 1_554 S
O39 C41 1.258 . S
C40 O34 1.247 . S
C40 O35 1.258 . S
C41 O38 1.247 1_554 S
C41 O39 1.258 . S
C42 O44 1.247 . S
C42 O46 1.258 . S
C43 O50 1.247 . S
C43 O51 1.258 . S
O44 C42 1.247 . S
O44 Zn45 2.028 . S
Zn45 O44 2.028 . S
Zn45 O49 2.035 . S
Zn45 O51 2.035 . S
Zn45 O52 2.028 . S
O46 C42 1.258 . S
O46 Zn47 2.035 . S
Zn47 O46 2.035 . S
Zn47 O48 2.028 . S
Zn47 O50 2.028 . S
Zn47 O53 2.035 . S
O48 Zn47 2.028 . S
O48 C54 1.247 . S
O49 Zn45 2.035 . S
O49 C54 1.258 . S
O50 C43 1.247 . S
O50 Zn47 2.028 . S
O51 C43 1.258 . S
O51 Zn45 2.035 . S
O52 Zn45 2.028 . S
O52 C55 1.247 . S
O53 Zn47 2.035 . S
O53 C55 1.258 . S
C54 O48 1.247 . S
C54 O49 1.258 . S
C55 O52 1.247 . S
C55 O53 1.258 . S
C56 O58 1.247 . S
C56 O60 1.258 . S
C57 O64 1.247 . S
C57 O65 1.258 . S
O58 C56 1.247 . S
O58 Zn59 2.028 . S
Zn59 O58 2.028 . S
Zn59 O63 2.035 1_556 S
Zn59 O65 2.035 . S
Zn59 O66 2.028 . S
O60 C56 1.258 . S
O60 Zn61 2.035 . S
Zn61 O60 2.035 . S
Zn61 O62 2.028 . S
Zn61 O64 2.028 . S
Zn61 O67 2.035 . S
O62 Zn61 2.028 . S
O62 C68 1.247 1_556 S
O63 Zn59 2.035 1_554 S
O63 C68 1.258 . S
O64 C57 1.247 . S
O64 Zn61 2.028 . S
O65 C57 1.258 . S
O65 Zn59 2.035 . S
O66 Zn59 2.028 . S
O66 C69 1.247 . S
O67 Zn61 2.035 . S
O67 C69 1.258 . S
C68 O62 1.247 1_554 S
C68 O63 1.258 . S
C69 O66 1.247 . S
C69 O67 1.258 . S
C70 O72 1.247 . S
C70 O74 1.258 . S
C71 O78 1.247 . S
C71 O79 1.258 . S
O72 C70 1.247 . S
O72 Zn73 2.028 . S
Zn73 O72 2.028 . S
Zn73 O77 2.035 . S
Zn73 O79 2.035 . S
Zn73 O80 2.028 . S
O74 C70 1.258 . S
O74 Zn75 2.035 . S
Zn75 O74 2.035 . S
Zn75 O76 2.028 . S
Zn75 O78 2.028 . S
Zn75 O81 2.035 . S
O76 Zn75 2.028 . S
O76 C82 1.247 . S
O77 Zn73 2.035 . S
O77 C82 1.258 . S
O78 C71 1.247 . S
O78 Zn75 2.028 . S
O79 C71 1.258 . S
O79 Zn73 2.035 . S
O80 Zn73 2.028 . S
O80 C83 1.247 . S
O81 Zn75 2.035 . S
O81 C83 1.258 . S
C82 O76 1.247 . S
C82 O77 1.258 . S
C83 O80 1.247 . S
C83 O81 1.258 . S
C84 O86 1.247 . S
C84 O88 1.258 . S
C85 O92 1.247 . S
C85 O93 1.258 . S
O86 C84 1.247 . S
O86 Zn87 2.028 . S
Zn87 O86 2.028 . S
Zn87 O91 2.035 1_554 S
Zn87 O93 2.035 . S
Zn87 O94 2.028 . S
O88 C84 1.258 . S
O88 Zn89 2.035 . S
Zn89 O88 2.035 . S
Zn89 O90 2.028 . S
Zn89 O92 2.028 . S
Zn89 O95 2.035 . S
O90 Zn89 2.028 . S
O90 C96 1.247 1_554 S
O91 Zn87 2.035 1_556 S
O91 C96 1.258 . S
O92 C85 1.247 . S
O92 Zn89 2.028 . S
O93 C85 1.258 . S
O93 Zn87 2.035 . S
O94 Zn87 2.028 . S
O94 C97 1.247 . S
O95 Zn89 2.035 . S
O95 C97 1.258 . S
C96 O90 1.247 1_556 S
C96 O91 1.258 . S
C97 O94 1.247 . S
C97 O95 1.258 . S
C98 O100 1.247 . S
C98 O102 1.258 . S
C99 O106 1.247 . S
C99 O107 1.258 . S
O100 C98 1.247 . S
O100 Zn101 2.028 . S
Zn101 O100 2.028 . S
Zn101 O105 2.035 . S
Zn101 O107 2.035 . S
Zn101 O108 2.028 . S
O102 C98 1.258 . S
O102 Zn103 2.035 . S
Zn103 O102 2.035 . S
Zn103 O104 2.028 . S
Zn103 O106 2.028 . S
Zn103 O109 2.035 . S
O104 Zn103 2.028 . S
O104 C110 1.247 . S
O105 Zn101 2.035 . S
O105 C110 1.258 . S
O106 C99 1.247 . S
O106 Zn103 2.028 . S
O107 C99 1.258 . S
O107 Zn101 2.035 . S
O108 Zn101 2.028 . S
O108 C111 1.247 . S
O109 Zn103 2.035 . S
O109 C111 1.258 . S
C110 O104 1.247 . S
C110 O105 1.258 . S
C111 O108 1.247 . S
C111 O109 1.258 . S
C112 C113 1.387 . S
C112 H116 0.950 . S
C112 C121 1.390 . S
C113 C112 1.387 . S
C113 C115 1.387 . S
H114 C121 0.950 . S
C115 C113 1.387 . S
C115 C117 1.390 . S
C115 H119 0.950 . S
H116 C112 0.950 . S
C117 C115 1.390 . S
C117 C118 1.387 . S
C117 H120 0.950 . S
C118 C117 1.387 . S
C118 C121 1.387 . S
H119 C115 0.950 . S
H120 C117 0.950 . S
C121 C112 1.390 . S
C121 H114 0.950 . S
C121 C118 1.387 . S
C122 C123 1.387 . S
C122 H126 0.950 . S
C122 C131 1.390 . S
C123 C122 1.387 . S
C123 C125 1.387 . S
H124 C131 0.950 . S
C125 C123 1.387 . S
C125 C127 1.390 . S
C125 H129 0.950 . S
H126 C122 0.950 . S
C127 C125 1.390 . S
C127 C128 1.387 . S
C127 H130 0.950 . S
C128 C127 1.387 . S
C128 C131 1.387 . S
H129 C125 0.950 . S
H130 C127 0.950 . S
C131 C122 1.390 . S
C131 H124 0.950 . S
C131 C128 1.387 . S
C132 C133 1.387 . S
C132 H136 0.950 . S
C132 C141 1.390 . S
C133 C132 1.387 . S
C133 C135 1.387 . S
H134 C141 0.950 . S
C135 C133 1.387 . S
C135 C137 1.390 . S
C135 H139 0.950 . S
H136 C132 0.950 . S
C137 C135 1.390 . S
C137 C138 1.387 . S
C137 H140 0.950 . S
C138 C137 1.387 . S
C138 C141 1.387 . S
H139 C135 0.950 . S
H140 C137 0.950 . S
C141 C132 1.390 . S
C141 H134 0.950 . S
C141 C138 1.387 . S
C142 C143 1.387 . S
C142 H146 0.950 . S
C142 C151 1.390 . S
C143 C142 1.387 . S
C143 C145 1.387 . S
H144 C151 0.950 . S
C145 C143 1.387 . S
C145 C147 1.390 . S
C145 H149 0.950 . S
H146 C142 0.950 . S
C147 C145 1.390 . S
C147 C148 1.387 . S
C147 H150 0.950 . S
C148 C147 1.387 . S
C148 C151 1.387 . S
H149 C145 0.950 . S
H150 C147 0.950 . S
C151 C142 1.390 . S
C151 H144 0.950 . S
C151 C148 1.387 . S
C152 C153 1.387 . S
C152 H156 0.950 . S
C152 C161 1.390 . S
C153 C152 1.387 . S
C153 C155 1.387 . S
H154 C161 0.950 . S
C155 C153 1.387 . S
C155 C157 1.390 . S
C155 H159 0.950 . S
H156 C152 0.950 . S
C157 C155 1.390 . S
C157 C158 1.387 . S
C157 H160 0.950 . S
C158 C157 1.387 . S
C158 C161 1.387 . S
H159 C155 0.950 . S
H160 C157 0.950 . S
C161 C152 1.390 . S
C161 H154 0.950 . S
C161 C158 1.387 . S
C162 C163 1.387 . S
C162 H166 0.950 . S
C162 C171 1.390 . S
C163 C162 1.387 . S
C163 C165 1.387 . S
H164 C171 0.950 . S
C165 C163 1.387 . S
C165 C167 1.390 . S
C165 H169 0.950 . S
H166 C162 0.950 . S
C167 C165 1.390 . S
C167 C168 1.387 . S
C167 H170 0.950 . S
C168 C167 1.387 . S
C168 C171 1.387 . S
H169 C165 0.950 . S
H170 C167 0.950 . S
C171 C162 1.390 . S
C171 H164 0.950 . S
C171 C168 1.387 . S
C172 C173 1.387 . S
C172 H176 0.950 . S
C172 C181 1.390 . S
C173 C172 1.387 . S
C173 C175 1.387 . S
H174 C181 0.950 . S
C175 C173 1.387 . S
C175 C177 1.390 . S
C175 H179 0.950 . S
H176 C172 0.950 . S
C177 C175 1.390 . S
C177 C178 1.387 . S
C177 H180 0.950 . S
C178 C177 1.387 . S
C178 C181 1.387 . S
H179 C175 0.950 . S
H180 C177 0.950 . S
C181 C172 1.390 . S
C181 H174 0.950 . S
C181 C178 1.387 . S
C182 C183 1.387 . S
C182 H186 0.950 . S
C182 C191 1.390 . S
C183 C182 1.387 . S
C183 C185 1.387 . S
H184 C191 0.950 . S
C185 C183 1.387 . S
C185 C187 1.390 . S
C185 H189 0.950 . S
H186 C182 0.950 . S
C187 C185 1.390 . S
C187 C188 1.387 . S
C187 H190 0.950 . S
C188 C187 1.387 . S
C188 C191 1.387 . S
H189 C185 0.950 . S
H190 C187 0.950 . S
C191 C182 1.390 . S
C191 H184 0.950 . S
C191 C188 1.387 . S
C192 C193 1.387 . S
C192 H196 0.950 . S
C192 C201 1.390 1_455 S
C193 C192 1.387 . S
C193 C195 1.387 . S
H194 C201 0.950 . S
C195 C193 1.387 . S
C195 C197 1.390 1_455 S
C195 H199 0.950 . S
H196 C192 0.950 . S
C197 C195 1.390 1_655 S
C197 C198 1.387 . S
C197 H200 0.950 . S
C198 C197 1.387 . S
C198 C201 1.387 . S
H199 C195 0.950 . S
H200 C197 0.950 . S
C201 C192 1.390 1_655 S
C201 H194 0.950 . S
C201 C198 1.387 . S
C202 C203 1.387 . S
C202 H206 0.950 . S
C202 C211 1.390 . S
C203 C202 1.387 . S
C203 C205 1.387 . S
H204 C211 0.950 . S
C205 C203 1.387 . S
C205 C207 1.390 . S
C205 H209 0.950 . S
H206 C202 0.950 . S
C207 C205 1.390 . S
C207 C208 1.387 . S
C207 H210 0.950 . S
C208 C207 1.387 . S
C208 C211 1.387 . S
H209 C205 0.950 . S
H210 C207 0.950 . S
C211 C202 1.390 . S
C211 H204 0.950 . S
C211 C208 1.387 . S
C212 C213 1.387 . S
C212 H216 0.950 . S
C212 C221 1.390 1_455 S
C213 C212 1.387 . S
C213 C215 1.387 . S
H214 C221 0.950 . S
C215 C213 1.387 . S
C215 C217 1.390 1_455 S
C215 H219 0.950 . S
H216 C212 0.950 . S
C217 C215 1.390 1_655 S
C217 C218 1.387 . S
C217 H220 0.950 . S
C218 C217 1.387 . S
C218 C221 1.387 . S
H219 C215 0.950 . S
H220 C217 0.950 . S
C221 C212 1.390 1_655 S
C221 H214 0.950 . S
C221 C218 1.387 . S
C222 C223 1.387 . S
C222 H226 0.950 . S
C222 C231 1.390 . S
C223 C222 1.387 . S
C223 C225 1.387 . S
H224 C231 0.950 . S
C225 C223 1.387 . S
C225 C227 1.390 . S
C225 H229 0.950 . S
H226 C222 0.950 . S
C227 C225 1.390 . S
C227 C228 1.387 . S
C227 H230 0.950 . S
C228 C227 1.387 . S
C228 C231 1.387 . S
H229 C225 0.950 . S
H230 C227 0.950 . S
C231 C222 1.390 . S
C231 H224 0.950 . S
C231 C228 1.387 . S
C232 C233 1.387 . S
C232 H236 0.950 . S
C232 C241 1.390 1_445 S
C233 C232 1.387 . S
C233 C235 1.387 1_556 S
H234 C241 0.950 . S
C235 C233 1.387 1_554 S
C235 C237 1.390 1_445 S
C235 H239 0.950 . S
H236 C232 0.950 . S
C237 C235 1.390 1_665 S
C237 C238 1.387 . S
C237 H240 0.950 . S
C238 C237 1.387 . S
C238 C241 1.387 1_554 S
H239 C235 0.950 . S
H240 C237 0.950 . S
C241 C232 1.390 1_665 S
C241 H234 0.950 . S
C241 C238 1.387 1_556 S
C242 C243 1.387 . S
C242 H246 0.950 . S
C242 C251 1.390 . S
C243 C242 1.387 . S
C243 C245 1.387 . S
H244 C251 0.950 . S
C245 C243 1.387 . S
C245 C247 1.390 . S
C245 H249 0.950 . S
H246 C242 0.950 . S
C247 C245 1.390 . S
C247 C248 1.387 . S
C247 H250 0.950 . S
C248 C247 1.387 . S
C248 C251 1.387 . S
H249 C245 0.950 . S
H250 C247 0.950 . S
C251 C242 1.390 . S
C251 H244 0.950 . S
C251 C248 1.387 . S
C252 C253 1.387 1_554 S
C252 H256 0.950 . S
C252 C261 1.390 . S
C253 C252 1.387 1_556 S
C253 C255 1.387 . S
H254 C261 0.950 . S
C255 C253 1.387 . S
C255 C257 1.390 . S
C255 H259 0.950 . S
H256 C252 0.950 . S
C257 C255 1.390 . S
C257 C258 1.387 1_556 S
C257 H260 0.950 . S
C258 C257 1.387 1_554 S
C258 C261 1.387 . S
H259 C255 0.950 . S
H260 C257 0.950 . S
C261 C252 1.390 . S
C261 H254 0.950 . S
C261 C258 1.387 . S
C262 C263 1.387 . S
C262 H266 0.950 . S
C262 C271 1.390 1_465 S
C263 C262 1.387 . S
C263 C265 1.387 . S
H264 C271 0.950 . S
C265 C263 1.387 . S
C265 C267 1.390 1_465 S
C265 H269 0.950 . S
H266 C262 0.950 . S
C267 C265 1.390 1_645 S
C267 C268 1.387 . S
C267 H270 0.950 . S
C268 C267 1.387 . S
C268 C271 1.387 . S
H269 C265 0.950 . S
H270 C267 0.950 . S
C271 C262 1.390 1_645 S
C271 H264 0.950 . S
C271 C268 1.387 . S
C113 C14 1.873 . S
C118 C13 1.927 . S
C123 C0 1.873 . S
C128 C27 1.927 . S
C133 C42 1.873 . S
C138 C41 1.927 . S
C143 C28 1.873 . S
C148 C55 1.927 . S
C153 C68 1.927 . S
C158 C71 1.873 . S
C163 C82 1.927 . S
C168 C57 1.873 . S
C173 C96 1.927 . S
C178 C99 1.873 . S
C183 C85 1.873 . S
C188 C110 1.927 . S
C193 C12 0.940 . S
C198 C54 0.940 . S
C203 C26 0.940 . S
C208 C40 0.940 . S
C213 C111 0.944 . S
C218 C69 0.944 . S
C223 C97 0.944 . S
C228 C83 0.944 . S
C233 C1 1.896 1_556 S
C238 C56 1.896 1_554 S
C243 C70 1.895 . S
C248 C15 1.895 . S
C253 C84 1.895 1_556 S
C258 C29 1.895 1_554 S
C263 C98 1.893 . S
C268 C43 1.893 . S
