# Generated by pormake.
# Topology whe, (6)-cn, num edge types: 1
# Building blocks:
#     Node 0, Type 0, BuildingBlock: IZENUY_clean_sbu_0, # of connection points: 6
#     Node 1, Type 0, BuildingBlock: IZENUY_clean_sbu_0, # of connection points: 6
#     Node 2, Type 0, BuildingBlock: IZENUY_clean_sbu_0, # of connection points: 6
#     Node 3, Type 0, BuildingBlock: IZENUY_clean_sbu_0, # of connection points: 6
#     Node 4, Type 0, BuildingBlock: IZENUY_clean_sbu_0, # of connection points: 6
#     Node 5, Type 0, BuildingBlock: IZENUY_clean_sbu_0, # of connection points: 6
#     Node 6, Type 0, BuildingBlock: IZENUY_clean_sbu_0, # of connection points: 6
#     Node 7, Type 0, BuildingBlock: IZENUY_clean_sbu_0, # of connection points: 6
#     Node 8, Type 0, BuildingBlock: IZENUY_clean_sbu_0, # of connection points: 6
#     Node 9, Type 0, BuildingBlock: IZENUY_clean_sbu_0, # of connection points: 6
#     Node 10, Type 0, BuildingBlock: IZENUY_clean_sbu_0, # of connection points: 6
#     Node 11, Type 0, BuildingBlock: IZENUY_clean_sbu_0, # of connection points: 6
#     Node 12, Type 0, BuildingBlock: IZENUY_clean_sbu_0, # of connection points: 6
#     Node 13, Type 0, BuildingBlock: IZENUY_clean_sbu_0, # of connection points: 6
#     Node 14, Type 0, BuildingBlock: IZENUY_clean_sbu_0, # of connection points: 6
#     Node 15, Type 0, BuildingBlock: IZENUY_clean_sbu_0, # of connection points: 6
#     Edge 16, Type (0, 0), BuildingBlock: EZIPEK_clean_linker_0, # of connection points: 2
#     Edge 17, Type (0, 0), BuildingBlock: EZIPEK_clean_linker_0, # of connection points: 2
#     Edge 18, Type (0, 0), BuildingBlock: EZIPEK_clean_linker_0, # of connection points: 2
#     Edge 19, Type (0, 0), BuildingBlock: EZIPEK_clean_linker_0, # of connection points: 2
#     Edge 20, Type (0, 0), BuildingBlock: EZIPEK_clean_linker_0, # of connection points: 2
#     Edge 21, Type (0, 0), BuildingBlock: EZIPEK_clean_linker_0, # of connection points: 2
#     Edge 22, Type (0, 0), BuildingBlock: EZIPEK_clean_linker_0, # of connection points: 2
#     Edge 23, Type (0, 0), BuildingBlock: EZIPEK_clean_linker_0, # of connection points: 2
#     Edge 24, Type (0, 0), BuildingBlock: EZIPEK_clean_linker_0, # of connection points: 2
#     Edge 25, Type (0, 0), BuildingBlock: EZIPEK_clean_linker_0, # of connection points: 2
#     Edge 26, Type (0, 0), BuildingBlock: EZIPEK_clean_linker_0, # of connection points: 2
#     Edge 27, Type (0, 0), BuildingBlock: EZIPEK_clean_linker_0, # of connection points: 2
#     Edge 28, Type (0, 0), BuildingBlock: EZIPEK_clean_linker_0, # of connection points: 2
#     Edge 29, Type (0, 0), BuildingBlock: EZIPEK_clean_linker_0, # of connection points: 2
#     Edge 30, Type (0, 0), BuildingBlock: EZIPEK_clean_linker_0, # of connection points: 2
#     Edge 31, Type (0, 0), BuildingBlock: EZIPEK_clean_linker_0, # of connection points: 2
#     Edge 32, Type (0, 0), BuildingBlock: EZIPEK_clean_linker_0, # of connection points: 2
#     Edge 33, Type (0, 0), BuildingBlock: EZIPEK_clean_linker_0, # of connection points: 2
#     Edge 34, Type (0, 0), BuildingBlock: EZIPEK_clean_linker_0, # of connection points: 2
#     Edge 35, Type (0, 0), BuildingBlock: EZIPEK_clean_linker_0, # of connection points: 2
#     Edge 36, Type (0, 0), BuildingBlock: EZIPEK_clean_linker_0, # of connection points: 2
#     Edge 37, Type (0, 0), BuildingBlock: EZIPEK_clean_linker_0, # of connection points: 2
#     Edge 38, Type (0, 0), BuildingBlock: EZIPEK_clean_linker_0, # of connection points: 2
#     Edge 39, Type (0, 0), BuildingBlock: EZIPEK_clean_linker_0, # of connection points: 2
#     Edge 40, Type (0, 0), BuildingBlock: EZIPEK_clean_linker_0, # of connection points: 2
#     Edge 41, Type (0, 0), BuildingBlock: EZIPEK_clean_linker_0, # of connection points: 2
#     Edge 42, Type (0, 0), BuildingBlock: EZIPEK_clean_linker_0, # of connection points: 2
#     Edge 43, Type (0, 0), BuildingBlock: EZIPEK_clean_linker_0, # of connection points: 2
#     Edge 44, Type (0, 0), BuildingBlock: EZIPEK_clean_linker_0, # of connection points: 2
#     Edge 45, Type (0, 0), BuildingBlock: EZIPEK_clean_linker_0, # of connection points: 2
#     Edge 46, Type (0, 0), BuildingBlock: EZIPEK_clean_linker_0, # of connection points: 2
#     Edge 47, Type (0, 0), BuildingBlock: EZIPEK_clean_linker_0, # of connection points: 2
#     Edge 48, Type (0, 0), BuildingBlock: EZIPEK_clean_linker_0, # of connection points: 2
#     Edge 49, Type (0, 0), BuildingBlock: EZIPEK_clean_linker_0, # of connection points: 2
#     Edge 50, Type (0, 0), BuildingBlock: EZIPEK_clean_linker_0, # of connection points: 2
#     Edge 51, Type (0, 0), BuildingBlock: EZIPEK_clean_linker_0, # of connection points: 2
#     Edge 52, Type (0, 0), BuildingBlock: EZIPEK_clean_linker_0, # of connection points: 2
#     Edge 53, Type (0, 0), BuildingBlock: EZIPEK_clean_linker_0, # of connection points: 2
#     Edge 54, Type (0, 0), BuildingBlock: EZIPEK_clean_linker_0, # of connection points: 2
#     Edge 55, Type (0, 0), BuildingBlock: EZIPEK_clean_linker_0, # of connection points: 2
#     Edge 56, Type (0, 0), BuildingBlock: EZIPEK_clean_linker_0, # of connection points: 2
#     Edge 57, Type (0, 0), BuildingBlock: EZIPEK_clean_linker_0, # of connection points: 2
#     Edge 58, Type (0, 0), BuildingBlock: EZIPEK_clean_linker_0, # of connection points: 2
#     Edge 59, Type (0, 0), BuildingBlock: EZIPEK_clean_linker_0, # of connection points: 2
#     Edge 60, Type (0, 0), BuildingBlock: EZIPEK_clean_linker_0, # of connection points: 2
#     Edge 61, Type (0, 0), BuildingBlock: EZIPEK_clean_linker_0, # of connection points: 2
#     Edge 62, Type (0, 0), BuildingBlock: EZIPEK_clean_linker_0, # of connection points: 2
#     Edge 63, Type (0, 0), BuildingBlock: EZIPEK_clean_linker_0, # of connection points: 2
# Relax obj value: 0.462
# Max RMSD: 0.278
# Mean RMSD: 0.278
data_MOF--net-whe--node1-IZENUY_clean_sbu_0--edge1-EZIPEK_clean_linker_0
_symmetry_space_group_name_H-M    P1
_symmetry_Int_Tables_number       1
_symmetry_cell_setting            triclinic
loop_
_symmetry_equiv_pos_as_xyz
'x, y, z'
_cell_length_a     25.164456
_cell_length_b     25.212283
_cell_length_c     40.442666
_cell_angle_alpha  89.649527
_cell_angle_beta   89.64779
_cell_angle_gamma 90.235257
loop_
_atom_site_label
_atom_site_type_symbol
_atom_site_fract_x
_atom_site_fract_y
_atom_site_fract_z
_atom_type_partial_charge
Fe0 Fe 0.08728 0.25204 0.16301 0.0
Fe1 Fe 0.03633 0.35165 0.13728 0.0
O2 O 0.09372 0.31852 0.15129 0.0
Fe3 Fe 0.15371 0.35427 0.15277 0.0
O4 O 0.1715 0.33368 0.19634 0.0
O5 O 0.13447 0.25454 0.19753 0.0
O6 O 0.03437 0.2722 0.19145 0.0
C7 C 0.01771 0.31843 0.20004 0.0
C8 C 0.18252 0.25098 0.12926 0.0
O9 O 1.01687 0.35861 0.18036 0.0
C10 C 0.10615 0.35984 0.0862 0.0
O11 O 0.04255 0.2338 0.12928 0.0
O12 O 0.9899 0.29784 0.13529 0.0
O13 O 0.19394 0.29865 0.13677 0.0
O14 O 0.1382 0.23037 0.13589 0.0
C15 C 0.08484 0.44118 0.15647 0.0
O16 O 0.0604 0.34202 0.0954 0.0
O17 O 0.14186 0.37443 0.10775 0.0
C18 C 0.99833 0.25371 0.12359 0.0
O19 O 0.06322 0.4169 0.13409 0.0
O20 O 0.12115 0.41583 0.17134 0.0
C21 C 0.16594 0.28794 0.21021 0.0
Fe22 Fe 0.69658 0.14798 0.15894 0.0
Fe23 Fe 0.78219 0.07565 0.18937 0.0
O24 O 0.72401 0.08483 0.1645 0.0
Fe25 Fe 0.69963 0.02801 0.14476 0.0
O26 O 0.63315 0.03564 0.15556 0.0
O27 O 0.62318 0.1222 0.16358 0.0
O28 O 0.70164 0.16736 0.20397 0.0
C29 C 0.74541 0.1691 0.21997 0.0
C30 C 0.68864 0.10526 0.09488 0.0
O31 O 0.78265 0.13988 0.21053 0.0
C32 C 0.79419 0.98905 0.14724 0.0
O33 O 0.7662 0.17371 0.14995 0.0
O34 O 0.82093 0.10449 0.15702 0.0
O35 O 0.69031 0.05757 0.10421 0.0
O36 O 0.69109 0.14307 0.11472 0.0
C37 C 0.70413 1.01495 0.21378 0.0
O38 O 0.79946 1.00718 0.17583 0.0
O39 O 0.76478 1.01509 0.12947 0.0
C40 C 0.80968 0.14817 0.14272 0.0
O41 O 0.73976 0.04873 0.2207 0.0
O42 O 0.70293 0.99291 0.18522 0.0
C43 C 0.60379 0.07386 0.16103 0.0
Fe44 Fe 0.861 0.69258 0.16122 0.0
Fe45 Fe 0.91231 0.80071 0.16843 0.0
O46 O 0.91912 0.73295 0.1601 0.0
Fe47 Fe 0.98284 0.70679 0.1507 0.0
O48 O 0.97609 0.6565 0.18194 0.0
O49 O 0.89647 0.62853 0.17196 0.0
O50 O 0.84718 0.70982 0.20652 0.0
C51 C 0.83818 0.75838 0.21537 0.0
C52 C 0.91193 0.66728 0.1015 0.0
O53 O 0.85253 0.79457 0.19524 0.0
C54 C 1.00087 0.80367 0.12379 0.0
O55 O 0.81675 0.74691 0.14738 0.0
O56 O 0.87363 0.80838 0.13185 0.0
O57 O 0.95679 0.66605 0.11619 0.0
O58 O 0.86945 0.6781 0.11713 0.0
C59 C 0.99512 0.77059 0.20716 0.0
O60 O 0.97087 0.82295 0.14559 0.0
O61 O 0.99929 0.75485 0.11898 0.0
C62 C 0.82817 0.7875 0.12969 0.0
O63 O 0.95079 0.79284 0.2043 0.0
O64 O 1.01606 0.74479 0.18355 0.0
C65 C 0.94422 0.61894 0.18076 0.0
Fe66 Fe 0.31969 0.87688 0.15595 0.0
Fe67 Fe 0.24618 0.95738 0.1884 0.0
O68 O 0.29877 0.94221 0.16056 0.0
Fe69 Fe 0.32661 0.99608 0.13892 0.0
O70 O 0.39287 0.9786 0.143 0.0
O71 O 0.3944 0.89581 0.16127 0.0
O72 O 0.31386 0.85767 0.20133 0.0
C73 C 0.27053 0.85928 0.21801 0.0
C74 C 0.32564 0.91894 0.09001 0.0
O75 O 0.23705 0.89291 0.20928 0.0
C76 C 0.23916 0.04816 0.1497 0.0
O77 O 0.24695 0.85865 0.14853 0.0
O78 O 0.20238 0.93562 0.15674 0.0
O79 O 0.32292 0.96687 0.09839 0.0
O80 O 0.32669 0.88166 0.111 0.0
C81 C 0.33623 1.00223 0.2078 0.0
O82 O 0.23653 0.02856 0.17806 0.0
O83 O 0.26247 0.0213 0.12903 0.0
C84 C 0.20457 0.88831 0.14548 0.0
O85 O 0.29571 0.97581 0.21734 0.0
O86 O 0.33624 0.0276 0.17995 0.0
C87 C 0.41831 0.94066 0.15402 0.0
Fe88 Fe 0.08074 0.79121 0.37504 0.0
Fe89 Fe 0.02338 0.69289 0.39964 0.0
O90 O 0.08306 0.72409 0.38769 0.0
Fe91 Fe 0.1449 0.69219 0.39054 0.0
O92 O 0.16125 0.7061 0.3456 0.0
O93 O 0.14422 0.79074 0.35092 0.0
O94 O 0.04914 0.77211 0.33862 0.0
C95 C 1.00646 0.7461 0.33824 0.0
C96 C 0.15956 0.79537 0.41862 0.0
O97 O 0.9873 0.72291 0.36389 0.0
C98 C 0.0957 0.66219 0.45043 0.0
O99 O 1.01504 0.80761 0.39393 0.0
O100 O 1.00897 0.74438 0.42894 0.0
O101 O 0.17919 0.75467 0.40396 0.0
O102 O 0.11268 0.80953 0.41242 0.0
C103 C 0.07044 0.60697 0.37235 0.0
O104 O 0.05139 0.65815 0.43584 0.0
O105 O 0.13557 0.67963 0.43459 0.0
C106 C 0.99161 0.78705 0.41855 0.0
O107 O 0.0325 0.63845 0.37251 0.0
O108 O 0.1173 0.6232 0.3804 0.0
C109 C 0.16598 0.75379 0.33437 0.0
Fe110 Fe 0.32376 0.15479 0.38306 0.0
Fe111 Fe 0.2464 0.07303 0.35384 0.0
O112 O 0.30558 0.08849 0.37443 0.0
Fe113 Fe 0.34573 0.03513 0.38641 0.0
O114 O 0.39642 0.05889 0.36079 0.0
O115 O 0.40041 0.13935 0.37904 0.0
O116 O 0.31629 0.17912 0.33912 0.0
C117 C 0.27186 0.17525 0.32356 0.0
C118 C 0.35006 0.10429 0.44113 0.0
O119 O 0.24023 0.13786 0.33197 0.0
C120 C 0.25499 0.98701 0.39947 0.0
O121 O 0.2524 0.17377 0.39128 0.0
O122 O 0.21158 0.09577 0.3893 0.0
O123 O 0.36997 0.06601 0.42505 0.0
O124 O 0.32627 0.14108 0.42667 0.0
C125 C 0.32178 0.01965 0.32182 0.0
O126 O 0.2385 1.0045 0.37175 0.0
O127 O 0.29508 1.00714 0.41214 0.0
C128 C 0.21232 0.14347 0.39813 0.0
O129 O 0.28383 0.05139 0.31827 0.0
O130 O 0.32788 0.99744 0.34965 0.0
C131 C 0.42415 0.09688 0.36794 0.0
Fe132 Fe 0.92446 0.22991 0.37387 0.0
Fe133 Fe 0.99178 0.32429 0.39411 0.0
O134 O 0.9285 0.29661 0.3862 0.0
Fe135 Fe 0.86947 0.33326 0.39066 0.0
O136 O 0.84931 0.32092 0.3465 0.0
O137 O 0.86098 0.23537 0.35154 0.0
O138 O 0.95562 0.24666 0.3365 0.0
C139 C 0.9994 0.27011 0.33346 0.0
C140 C 0.84782 0.23004 0.41923 0.0
O141 O 0.02272 0.28937 0.35863 0.0
C142 C 0.92705 0.35986 0.4473 0.0
O143 O 0.98717 0.2094 0.39232 0.0
O144 O 1.00778 0.2741 0.4243 0.0
O145 O 0.83085 0.27325 0.40583 0.0
O146 O 0.89289 0.2129 0.41157 0.0
C147 C 0.94786 0.41212 0.36788 0.0
O148 O 0.96967 0.36308 0.43034 0.0
O149 O 0.88382 0.34565 0.43398 0.0
C150 C 1.01162 0.22627 0.41732 0.0
O151 O 0.98225 0.37705 0.36516 0.0
O152 O 0.90133 0.39963 0.37891 0.0
C153 C 0.84155 0.27389 0.33546 0.0
Fe154 Fe 0.75461 0.95415 0.37 0.0
Fe155 Fe 0.65426 0.98802 0.40546 0.0
O156 O 0.69517 0.9371 0.38971 0.0
Fe157 Fe 0.67023 0.87287 0.39288 0.0
O158 O 0.68459 0.85134 0.34894 0.0
O159 O 0.75387 0.90177 0.33923 0.0
O160 O 0.71458 0.99514 0.34143 0.0
C161 C 0.66343 0.99501 0.33851 0.0
C162 C 0.78267 0.86654 0.40689 0.0
O163 O 0.63191 0.99738 0.36334 0.0
C164 C 0.67561 0.9246 0.45748 0.0
O165 O 0.77125 1.00717 0.39959 0.0
O166 O 0.69673 0.04358 0.39794 0.0
O167 O 0.73599 0.84588 0.40524 0.0
O168 O 0.7933 0.91261 0.39625 0.0
C169 C 0.57198 0.92963 0.39573 0.0
O170 O 0.68053 0.97236 0.44609 0.0
O171 O 0.66032 0.88549 0.43874 0.0
C172 C 0.74225 0.04476 0.40824 0.0
O173 O 0.59914 0.94718 0.41768 0.0
O174 O 0.59969 0.89713 0.37852 0.0
C175 C 0.72577 0.86241 0.33123 0.0
Fe176 Fe 0.95857 0.77065 0.8692 0.0
Fe177 Fe 1.00873 0.68182 0.90704 0.0
O178 O 0.95075 0.71014 0.88966 0.0
Fe179 Fe 0.88576 0.68348 0.89333 0.0
O180 O 0.86926 0.69 0.84772 0.0
O181 O 0.89513 0.77171 0.84558 0.0
O182 O 0.98825 0.73676 0.83604 0.0
C183 C 0.02803 0.70671 0.84006 0.0
C184 C 0.88121 0.79646 0.90859 0.0
O185 O 0.04694 0.69573 0.86859 0.0
C186 C 0.92974 0.66539 0.95702 0.0
O187 O 0.02371 0.78813 0.8846 0.0
O188 O 0.0296 0.74148 0.92839 0.0
O189 O 0.85747 0.75219 0.90159 0.0
O190 O 0.93019 0.80046 0.90502 0.0
C191 C 0.95673 0.59266 0.88425 0.0
O192 O 0.97709 0.66268 0.94632 0.0
O193 O 0.89118 0.67595 0.9382 0.0
C194 C 0.0437 0.78151 0.91254 0.0
O195 O 0.99692 0.62021 0.88901 0.0
O196 O 0.90928 0.6121 0.88647 0.0
C197 C 0.86685 0.73547 0.83347 0.0
Fe198 Fe 0.36178 0.87275 0.88302 0.0
Fe199 Fe 0.28532 0.95726 0.85654 0.0
O200 O 0.33957 0.93822 0.8802 0.0
Fe201 Fe 0.37827 0.98621 0.90098 0.0
O202 O 0.42945 0.94217 0.91392 0.0
O203 O 0.43529 0.89664 0.87327 0.0
O204 O 0.35519 0.85413 0.8383 0.0
C205 C 0.31612 0.86469 0.81929 0.0
C206 C 0.34633 0.91835 0.94871 0.0
O207 O 0.2876 0.90425 0.82569 0.0
C208 C 0.2918 0.04914 0.89363 0.0
O209 O 0.29286 0.84675 0.8905 0.0
O210 O 0.2423 0.91823 0.88184 0.0
O211 O 0.34502 0.96709 0.93913 0.0
O212 O 0.36339 0.88076 0.92951 0.0
C213 C 0.38244 1.00162 0.83325 0.0
O214 O 0.26434 1.01227 0.88263 0.0
O215 O 0.34012 0.04429 0.89539 0.0
C216 C 0.24781 0.87071 0.89139 0.0
O217 O 0.33153 0.99651 0.83081 0.0
O218 O 0.40771 1.00108 0.86068 0.0
C219 C 0.46018 0.92792 0.89273 0.0
Fe220 Fe 0.16988 0.33737 0.8849 0.0
Fe221 Fe 0.11223 0.23122 0.87738 0.0
O222 O 0.11022 0.30006 0.88425 0.0
Fe223 Fe 0.04913 0.33064 0.89248 0.0
O224 O 0.05963 0.37646 0.85926 0.0
O225 O 0.13737 0.40344 0.87358 0.0
O226 O 0.18578 0.31993 0.84044 0.0
C227 C 0.19332 0.27118 0.83162 0.0
C228 C 0.11809 0.37008 0.94212 0.0
O229 O 0.17316 0.23413 0.8498 0.0
C230 C 0.02306 0.23968 0.92199 0.0
O231 O 0.21011 0.28068 0.89899 0.0
O232 O 0.14981 0.223 0.91467 0.0
O233 O 0.07622 0.37418 0.92493 0.0
O234 O 0.15958 0.3516 0.92873 0.0
C235 C 0.03263 0.26403 0.83788 0.0
O236 O 0.04986 0.21438 0.90062 0.0
O237 O 0.03459 0.28695 0.92637 0.0
C238 C 0.19676 0.24033 0.9163 0.0
O239 O 0.07504 0.23858 0.84105 0.0
O240 O 1.01324 0.2913 0.86132 0.0
C241 C 0.09085 0.41413 0.86259 0.0
Fe242 Fe 0.77713 0.09008 0.8602 0.0
Fe243 Fe 0.68399 0.05458 0.90503 0.0
O244 O 0.72169 0.10597 0.88485 0.0
Fe245 Fe 0.6986 0.17113 0.88985 0.0
O246 O 0.71442 0.19846 0.84744 0.0
O247 O 0.76906 0.1396 0.82724 0.0
O248 O 0.73503 0.04545 0.83658 0.0
C249 C 0.68516 0.03605 0.83874 0.0
C250 C 0.8118 0.17256 0.901 0.0
O251 O 0.65839 0.03648 0.8654 0.0
C252 C 0.70169 0.12222 0.95442 0.0
O253 O 0.80121 0.03956 0.88851 0.0
O254 O 0.72857 1.00002 0.90172 0.0
O255 O 0.76541 0.19325 0.90472 0.0
O256 O 0.82001 0.13347 0.88231 0.0
C257 C 0.60152 0.11321 0.89107 0.0
O258 O 0.71093 0.07529 0.9442 0.0
O259 O 0.68518 0.15887 0.93476 0.0
C260 C 0.77736 0.99972 0.89939 0.0
O261 O 0.6271 0.09412 0.91386 0.0
O262 O 0.62817 0.14833 0.87449 0.0
C263 C 0.74779 0.18466 0.82523 0.0
Fe264 Fe 0.93186 0.24196 0.66991 0.0
Fe265 Fe 0.99893 0.32844 0.63992 0.0
O266 O 0.93692 0.30814 0.65534 0.0
Fe267 Fe 0.87944 0.34772 0.65424 0.0
O268 O 0.86418 0.33511 0.69914 0.0
O269 O 0.86838 0.24925 0.69366 0.0
O270 O 0.96458 0.2608 0.70556 0.0
C271 C 1.00997 0.28176 0.70488 0.0
C272 C 0.85246 0.24266 0.62843 0.0
O273 O 0.03149 0.30045 0.67822 0.0
C274 C 0.92541 0.36657 0.59128 0.0
O275 O 0.99604 0.21566 0.65316 0.0
O276 O 1.00428 0.2706 0.61437 0.0
O277 O 0.83769 0.28761 0.64118 0.0
O278 O 0.89914 0.22635 0.63265 0.0
C279 C 0.96732 0.42379 0.66714 0.0
O280 O 0.97236 0.35844 0.60163 0.0
O281 O 0.88584 0.36267 0.61039 0.0
C282 C 0.02073 0.22983 0.62751 0.0
O283 O 1.00128 0.38911 0.66175 0.0
O284 O 0.91694 0.41263 0.66482 0.0
C285 C 0.85098 0.28881 0.70954 0.0
Fe286 Fe 0.79075 0.94277 0.69399 0.0
Fe287 Fe 0.71075 0.9944 0.65038 0.0
O288 O 0.73262 0.93608 0.66923 0.0
Fe289 Fe 0.70161 0.87454 0.66396 0.0
O290 O 0.7117 0.85016 0.7083 0.0
O291 O 0.79302 0.87646 0.71333 0.0
O292 O 0.74793 0.96604 0.72608 0.0
C293 C 0.71103 0.99845 0.71903 0.0
C294 C 0.81433 0.87275 0.64583 0.0
O295 O 0.71219 0.02485 0.69177 0.0
C296 C 0.69336 0.92272 0.59994 0.0
O297 O 0.80904 1.01327 0.68382 0.0
O298 O 0.77657 1.0096 0.63671 0.0
O299 O 0.769 0.84874 0.65125 0.0
O300 O 0.82741 0.91659 0.65968 0.0
C301 C 0.61341 0.94949 0.66977 0.0
O302 O 0.70591 0.96811 0.60959 0.0
O303 O 0.68732 0.88444 0.61993 0.0
C304 C 0.80558 0.03367 0.65565 0.0
O305 O 0.6425 0.98562 0.65876 0.0
O306 O 0.63162 0.90152 0.67396 0.0
C307 C 0.75653 0.84612 0.72302 0.0
Fe308 Fe 0.12301 0.80394 0.6725 0.0
Fe309 Fe 0.05003 0.71712 0.64868 0.0
O310 O 0.11483 0.73788 0.65817 0.0
Fe311 Fe 0.17162 0.69824 0.65284 0.0
O312 O 0.19767 0.71347 0.69584 0.0
O313 O 0.19053 0.79791 0.68863 0.0
O314 O 0.09807 0.78304 0.71092 0.0
C315 C 0.05477 0.75802 0.71457 0.0
C316 C 0.18932 0.79976 0.62097 0.0
O317 O 0.02766 0.74167 0.68972 0.0
C318 C 0.11065 0.67834 0.59444 0.0
O319 O 0.05718 0.83068 0.66271 0.0
O320 O 0.03685 0.77682 0.6252 0.0
O321 O 0.20778 0.7562 0.63339 0.0
O322 O 0.14789 0.82124 0.63283 0.0
C323 C 0.09064 0.62157 0.67352 0.0
O324 O 0.06704 0.69009 0.60829 0.0
O325 O 0.15404 0.6793 0.61035 0.0
C326 C 0.02769 0.81932 0.63918 0.0
O327 O 0.05375 0.65362 0.66851 0.0
O328 O 0.13957 0.63528 0.66922 0.0
C329 C 0.20978 0.76044 0.70517 0.0
Fe330 Fe 0.3706 0.03798 0.63791 0.0
Fe331 Fe 0.34764 0.15354 0.64896 0.0
O332 O 0.32824 0.08749 0.65511 0.0
Fe333 Fe 0.2727 0.0675 0.6784 0.0
O334 O 0.31721 0.02549 0.70389 0.0
O335 O 0.39706 0.02847 0.67855 0.0
O336 O 0.42238 0.08223 0.62522 0.0
C337 C 0.44887 0.103 0.64653 0.0
C338 C 0.28313 0.98029 0.63682 0.0
O339 O 0.42007 0.13538 0.66324 0.0
C340 C 0.23444 0.15262 0.63986 0.0
O341 O 0.34278 0.05082 0.59773 0.0
O342 O 0.35699 0.13855 0.60327 0.0
O343 O 0.25374 1.01595 0.64803 0.0
O344 O 0.32941 0.98159 0.64611 0.0
C345 C 0.29815 0.1638 0.71386 0.0
O346 O 0.28018 0.17442 0.63623 0.0
O347 O 0.2277 0.10923 0.65536 0.0
C348 C 0.34496 0.09759 0.58522 0.0
O349 O 0.33212 0.17956 0.69194 0.0
O350 O 0.27794 0.1178 0.71118 0.0
C351 C 0.36848 0.0251 0.70439 0.0
C352 C 0.20678 0.1716 0.09951 0.0
C353 C 0.22366 0.21182 0.12102 0.0
C354 C 0.25635 0.14625 0.1603 0.0
C355 C 0.231 0.10528 0.14166 0.0
N356 N 0.18072 0.07954 0.09336 0.0
N357 N 0.2889 0.23738 0.1601 0.0
C358 C 0.20692 0.11799 0.11068 0.0
C359 C 0.25714 0.19879 0.14737 0.0
N360 N 0.18694 0.18629 0.06953 0.0
N361 N 0.27736 0.13637 0.19079 0.0
H362 H 0.28927 0.27566 0.15008 0.0
H363 H 0.31834 0.23006 0.17752 0.0
H364 H 0.27618 0.09976 0.20256 0.0
H365 H 0.29152 0.16613 0.2062 0.0
H366 H 0.17604 0.15988 0.05108 0.0
H367 H 0.18549 0.22624 0.06257 0.0
H368 H 0.15972 0.08662 0.07173 0.0
H369 H 0.17626 0.04067 0.10194 0.0
C370 C 0.95056 0.16701 0.11231 0.0
C371 C 0.95178 0.22289 0.11128 0.0
C372 C 0.85424 0.2259 0.11181 0.0
C373 C 0.85406 0.17207 0.12219 0.0
N374 N 0.89654 0.08786 0.11089 0.0
N375 N 0.90686 0.29989 0.09032 0.0
C376 C 0.90063 0.14122 0.11568 0.0
C377 C 0.90396 0.25071 0.10458 0.0
N378 N 0.99656 0.13868 0.11024 0.0
N379 N 0.80766 0.25279 0.10839 0.0
H380 H 0.94314 0.31638 0.08279 0.0
H381 H 0.87393 0.32176 0.08296 0.0
H382 H 0.77116 0.23341 0.10657 0.0
H383 H 0.80541 0.29379 0.10588 0.0
H384 H 0.9994 0.0988 0.11675 0.0
H385 H 0.03178 0.15513 0.10106 0.0
H386 H 0.92797 0.06386 0.10346 0.0
H387 H 0.86016 0.06851 0.11047 0.0
C388 C 0.80219 0.86231 0.09631 0.0
C389 C 0.78638 0.82518 0.1205 0.0
C390 C 0.77321 0.89303 0.16093 0.0
C391 C 0.79694 0.93141 0.13919 0.0
N392 N 0.82524 0.95332 0.08308 0.0
N393 N 0.72418 0.80988 0.16404 0.0
C394 C 0.80791 0.91646 0.10558 0.0
C395 C 0.75862 0.8432 0.14809 0.0
N396 N 0.81871 0.84355 0.06642 0.0
N397 N 0.76794 0.90164 0.19394 0.0
H398 H 0.71615 0.77211 0.15476 0.0
H399 H 0.7007 0.82172 0.18399 0.0
H400 H 0.7851 0.93351 0.20591 0.0
H401 H 0.75258 0.87308 0.21005 0.0
H402 H 0.83638 0.86651 0.04791 0.0
H403 H 0.81505 0.80324 0.06089 0.0
H404 H 0.8287 0.94627 0.05785 0.0
H405 H 0.83581 0.99167 0.08964 0.0
C406 C 0.14696 0.83034 0.1075 0.0
C407 C 0.15226 0.86667 0.13422 0.0
C408 C 0.05708 0.88234 0.13133 0.0
C409 C 0.0496 0.83468 0.11428 0.0
N410 N 0.08837 0.76941 0.07829 0.0
N411 N 0.10471 0.91332 0.17808 0.0
C412 C 0.09499 0.81041 0.0997 0.0
C413 C 0.10518 0.88935 0.14787 0.0
N414 N 0.19019 0.81682 0.08889 0.0
N415 N 1.01694 0.91817 0.13421 0.0
H416 H 0.13647 0.91112 0.19444 0.0
H417 H 0.06995 0.92826 0.18863 0.0
H418 H 0.98131 0.91344 0.12139 0.0
H419 H 0.022 0.95435 0.14623 0.0
H420 H 0.1877 0.79396 0.06759 0.0
H421 H 0.22788 0.83264 0.09287 0.0
H422 H 0.11954 0.74582 0.06997 0.0
H423 H 0.05109 0.75946 0.06893 0.0
C424 C 0.26938 0.89034 0.41317 0.0
C425 C 0.23609 0.93632 0.41385 0.0
C426 C 0.16801 0.88501 0.44288 0.0
C427 C 0.19369 0.83827 0.43226 0.0
N428 N 0.27761 0.79586 0.42633 0.0
N429 N 0.15766 0.97976 0.43499 0.0
C430 C 0.24778 0.84075 0.42377 0.0
C431 C 0.18687 0.93464 0.43103 0.0
N432 N 0.32017 0.89352 0.4011 0.0
N433 N 0.12514 0.88078 0.46355 0.0
H434 H 0.17138 0.0171 0.4276 0.0
H435 H 0.11904 0.97994 0.44437 0.0
H436 H 0.11237 0.84382 0.47244 0.0
H437 H 0.10595 0.91314 0.47405 0.0
H438 H 0.34454 0.86089 0.39732 0.0
H439 H 0.3382 0.9288 0.39369 0.0
H440 H 0.31829 0.79415 0.42184 0.0
H441 H 0.26153 0.76084 0.43614 0.0
C442 C 0.11325 0.1382 0.39762 0.0
C443 C 0.1601 0.16376 0.40964 0.0
C444 C 0.1032 0.22123 0.44323 0.0
C445 C 0.05821 0.19565 0.42924 0.0
N446 N 0.02404 0.11145 0.41211 0.0
N447 N 0.19879 0.21836 0.45225 0.0
C448 C 0.06523 0.1465 0.41418 0.0
C449 C 0.15511 0.20205 0.43518 0.0
N450 N 0.11277 0.1108 0.36855 0.0
N451 N 0.09613 0.26298 0.46403 0.0
H452 H 0.23666 0.20335 0.44777 0.0
H453 H 0.19684 0.24316 0.4727 0.0
H454 H 0.05879 0.27231 0.47371 0.0
H455 H 0.12694 0.28757 0.47177 0.0
H456 H 0.14441 0.11112 0.35183 0.0
H457 H 0.07801 0.09461 0.35885 0.0
H458 H 0.02843 0.07398 0.40163 0.0
H459 H 0.98774 0.11874 0.4239 0.0
C460 C 0.73061 0.13949 0.42831 0.0
C461 C 0.76161 0.09226 0.42672 0.0
C462 C 0.83716 0.14192 0.44749 0.0
C463 C 0.81279 0.18927 0.43537 0.0
N464 N 0.73072 0.23597 0.42768 0.0
N465 N 0.83588 0.04569 0.4499 0.0
C466 C 0.75733 0.18918 0.43041 0.0
C467 C 0.81222 0.09245 0.44153 0.0
N468 N 0.67648 0.13652 0.43032 0.0
N469 N 0.88421 0.14467 0.46405 0.0
H470 H 0.81444 1.01031 0.45127 0.0
H471 H 0.87568 0.04196 0.45631 0.0
H472 H 0.90345 0.18038 0.46849 0.0
H473 H 0.90239 0.11251 0.47547 0.0
H474 H 0.65202 0.16944 0.43283 0.0
H475 H 0.65648 0.10077 0.43446 0.0
H476 H 0.69176 0.23888 0.41935 0.0
H477 H 0.74818 0.272 0.43418 0.0
C478 C 0.89369 0.76525 0.41396 0.0
C479 C 0.93476 0.79996 0.42506 0.0
C480 C 0.86641 0.86456 0.43937 0.0
C481 C 0.8291 0.83662 0.41963 0.0
N482 N 0.81083 0.76102 0.38463 0.0
N483 N 0.95945 0.88265 0.45023 0.0
C484 C 0.8432 0.78667 0.40639 0.0
C485 C 0.92082 0.84956 0.43862 0.0
N486 N 0.9018 0.71197 0.41092 0.0
N487 N 0.84954 0.90551 0.45864 0.0
H488 H 0.99931 0.87155 0.45151 0.0
H489 H 0.95222 0.92177 0.45703 0.0
H490 H 0.80955 0.91612 0.46011 0.0
H491 H 0.87392 0.9249 0.47547 0.0
H492 H 0.87122 0.68557 0.40525 0.0
H493 H 0.93626 0.69284 0.41825 0.0
H494 H 0.82327 0.72808 0.37121 0.0
H495 H 0.77352 0.77453 0.37774 0.0
C496 C 0.86911 0.88656 0.88145 0.0
C497 C 0.85364 0.84826 0.9064 0.0
C498 C 0.79481 0.91497 0.93051 0.0
C499 C 0.80475 0.94867 0.9028 0.0
N500 N 0.83781 0.95655 0.84662 0.0
N501 N 0.79787 0.82563 0.95318 0.0
C502 C 0.83771 0.9316 0.87679 0.0
C503 C 0.81476 0.86215 0.9303 0.0
N504 N 0.91395 0.88252 0.86219 0.0
N505 N 0.76852 0.93415 0.95755 0.0
H506 H 0.81367 0.78753 0.95484 0.0
H507 H 0.76582 0.83201 0.96906 0.0
H508 H 0.75529 0.97322 0.95904 0.0
H509 H 0.76451 0.9131 0.97967 0.0
H510 H 0.92834 0.91444 0.84818 0.0
H511 H 0.94062 0.85165 0.86122 0.0
H512 H 0.85715 0.94108 0.82594 0.0
H513 H 0.81353 0.98831 0.84063 0.0
C514 C 0.10137 0.8562 0.89927 0.0
C515 C 0.09353 0.81151 0.9196 0.0
C516 C 0.19035 0.80978 0.92844 0.0
C517 C 0.19687 0.84383 0.90042 0.0
N518 N 0.15355 0.8837 0.85281 0.0
N519 N 0.13167 0.74947 0.95862 0.0
C520 C 0.1508 0.8625 0.88394 0.0
C521 C 0.13835 0.78919 0.93594 0.0
N522 N 0.06036 0.88965 0.89241 0.0
N523 N 0.23231 0.79924 0.94863 0.0
H524 H 0.09471 0.73965 0.96869 0.0
H525 H 0.16311 0.72698 0.96767 0.0
H526 H 0.27024 0.81458 0.94445 0.0
H527 H 0.22839 0.77906 0.97107 0.0
H528 H 0.06544 0.92396 0.87814 0.0
H529 H 0.02331 0.88532 0.90395 0.0
H530 H 0.1198 0.89553 0.8399 0.0
H531 H 0.18815 0.88259 0.83852 0.0
C532 C 0.29083 0.14667 0.88835 0.0
C533 C 0.26962 0.10025 0.90362 0.0
C534 C 0.22034 0.15493 0.94285 0.0
C535 C 0.23725 0.20021 0.92471 0.0
N536 N 0.31107 0.23964 0.89579 0.0
N537 N 0.2261 0.05952 0.95084 0.0
C538 C 0.28057 0.19618 0.90283 0.0
C539 C 0.23812 0.10403 0.93281 0.0
N540 N 0.31869 0.14371 0.85931 0.0
N541 N 0.18524 0.16137 0.96837 0.0
H542 H 0.23777 0.02173 0.94358 0.0
H543 H 0.20693 0.06004 0.9737 0.0
H544 H 0.17465 0.19918 0.9765 0.0
H545 H 0.16644 0.13032 0.9809 0.0
H546 H 0.33108 0.17718 0.84606 0.0
H547 H 0.3245 0.10813 0.84681 0.0
H548 H 0.34538 0.23796 0.88125 0.0
H549 H 0.3052 0.27555 0.908 0.0
C550 C 0.92577 0.25981 0.93298 0.0
C551 C 0.96761 0.22187 0.93114 0.0
C552 C 0.89939 0.15285 0.92802 0.0
C553 C 0.86091 0.19171 0.91829 0.0
N554 N 0.84098 0.28492 0.9104 0.0
N555 N 0.9927 0.13018 0.93332 0.0
C556 C 0.87461 0.2461 0.92092 0.0
C557 C 0.95384 0.16759 0.93088 0.0
N558 N 0.93388 0.30792 0.94739 0.0
N559 N 0.8837 0.10203 0.93498 0.0
H560 H 0.0318 0.13992 0.93936 0.0
H561 H 0.98634 0.09005 0.92869 0.0
H562 H 0.84405 0.09016 0.93458 0.0
H563 H 0.90891 0.07332 0.94472 0.0
H564 H 0.90352 0.33548 0.95058 0.0
H565 H 0.96794 0.31626 0.96097 0.0
H566 H 0.85254 0.32464 0.90889 0.0
H567 H 0.80358 0.27746 0.90065 0.0
C568 C 0.836 0.10231 0.61474 0.0
C569 C 0.81588 0.09066 0.64714 0.0
C570 C 0.78422 0.18254 0.65042 0.0
C571 C 0.81588 0.19687 0.62315 0.0
N572 N 0.86188 0.16974 0.57427 0.0
N573 N 0.77566 0.12446 0.69761 0.0
C574 C 0.83648 0.15581 0.60296 0.0
C575 C 0.79106 0.132 0.66552 0.0
N576 N 0.85588 0.06229 0.59566 0.0
N577 N 0.74726 0.21731 0.66159 0.0
H578 H 0.76042 0.15497 0.71211 0.0
H579 H 0.78417 0.09031 0.71103 0.0
H580 H 0.74174 0.25389 0.64985 0.0
H581 H 0.71863 0.20667 0.67919 0.0
H582 H 0.8652 0.06638 0.57068 0.0
H583 H 0.86222 0.02402 0.60473 0.0
H584 H 0.88362 0.14396 0.55952 0.0
H585 H 0.86219 0.20891 0.56593 0.0
C586 C 0.94862 0.85656 0.6087 0.0
C587 C 0.97211 0.83837 0.63858 0.0
C588 C 0.8851 0.81334 0.65879 0.0
C589 C 0.86056 0.84284 0.63383 0.0
N590 N 0.86928 0.89497 0.58415 0.0
N591 N 0.95576 0.82398 0.69715 0.0
C592 C 0.89246 0.86476 0.60807 0.0
C593 C 0.9386 0.82357 0.6653 0.0
N594 N 0.97962 0.86708 0.58166 0.0
N595 N 0.85646 0.77916 0.6779 0.0
H596 H 0.99169 0.84144 0.70374 0.0
H597 H 0.93065 0.81475 0.71703 0.0
H598 H 0.81748 0.76972 0.67166 0.0
H599 H 0.874 0.75614 0.69637 0.0
H600 H 0.96392 0.87627 0.55854 0.0
H601 H 0.02099 0.86425 0.58229 0.0
H602 H 0.89092 0.91641 0.56651 0.0
H603 H 0.82811 0.89987 0.58324 0.0
C604 C 0.27733 0.83994 0.60639 0.0
C605 C 0.22243 0.83647 0.60073 0.0
C606 C 0.21361 0.93208 0.60128 0.0
C607 C 0.26515 0.93508 0.6155 0.0
N608 N 0.35356 0.89854 0.60678 0.0
N609 N 0.15136 0.87675 0.57089 0.0
C610 C 0.30005 0.89111 0.61024 0.0
C611 C 0.19605 0.8823 0.58942 0.0
N612 N 0.30687 0.79496 0.60881 0.0
N613 N 0.18104 0.97499 0.59998 0.0
H614 H 0.13115 0.90868 0.56048 0.0
H615 H 0.13798 0.83915 0.56391 0.0
H616 H 0.19374 1.01284 0.60584 0.0
H617 H 0.14116 0.97265 0.59336 0.0
H618 H 0.34603 0.79477 0.61705 0.0
H619 H 0.29116 0.75794 0.60267 0.0
H620 H 0.3798 0.8678 0.6016 0.0
H621 H 0.37046 0.93612 0.60387 0.0
C622 C 0.17091 0.23086 0.6391 0.0
C623 C 0.18477 0.17935 0.62838 0.0
C624 C 0.09167 0.16316 0.61293 0.0
C625 C 0.07802 0.21495 0.62306 0.0
N626 N 0.11273 0.30473 0.62995 0.0
N627 N 0.16243 0.10746 0.59247 0.0
C628 C 0.11994 0.25114 0.63113 0.0
C629 C 0.14623 0.14878 0.6114 0.0
N630 N 0.20468 0.25988 0.65822 0.0
N631 N 0.05293 0.12771 0.60461 0.0
H632 H 0.20272 0.09983 0.58911 0.0
H633 H 0.13698 0.08601 0.57727 0.0
H634 H 1.01274 0.13772 0.60388 0.0
H635 H 0.06075 0.08779 0.60019 0.0
H636 H 0.19307 0.29494 0.6697 0.0
H637 H 0.24228 0.24697 0.66511 0.0
H638 H 0.1437 0.33163 0.63359 0.0
H639 H 0.07886 0.32255 0.62065 0.0
C640 C 0.16714 0.24255 0.26804 0.0
C641 C 0.19552 0.26995 0.24231 0.0
C642 C 0.27923 0.24401 0.27277 0.0
C643 C 0.24948 0.21662 0.29803 0.0
N644 N 0.16475 0.21845 0.3258 0.0
N645 N 0.28093 0.30453 0.22503 0.0
C646 C 0.19344 0.22436 0.29727 0.0
C647 C 0.25229 0.27328 0.24632 0.0
N648 N 0.11413 0.23281 0.26516 0.0
N649 N 0.33326 0.24228 0.27376 0.0
H650 H 0.26392 0.32455 0.20521 0.0
H651 H 0.32096 0.31355 0.2281 0.0
H652 H 0.35358 0.22885 0.29447 0.0
H653 H 0.35781 0.25344 0.2541 0.0
H654 H 0.09447 0.2053 0.2803 0.0
H655 H 0.09032 0.25011 0.24729 0.0
H656 H 0.12445 0.22759 0.32767 0.0
H657 H 0.1831 0.21257 0.34849 0.0
C658 C 0.76997 0.215 0.31062 0.0
C659 C 0.80473 0.25926 0.30638 0.0
C660 C 0.78354 0.25491 0.24597 0.0
C661 C 0.75702 0.20482 0.25006 0.0
N662 N 0.73939 0.13243 0.28787 0.0
N663 N 0.84507 0.32121 0.26829 0.0
C664 C 0.75377 0.18396 0.28289 0.0
C665 C 0.81097 0.27975 0.27353 0.0
N666 N 0.75205 0.20225 0.34158 0.0
N667 N 0.78354 0.27818 0.21542 0.0
H668 H 0.86509 0.33989 0.28749 0.0
H669 H 0.85573 0.33541 0.24497 0.0
H670 H 0.76475 0.26081 0.19523 0.0
H671 H 0.79812 0.31616 0.21065 0.0
H672 H 0.72344 0.17299 0.34605 0.0
H673 H 0.76101 0.2255 0.36204 0.0
H674 H 0.74188 0.11346 0.3108 0.0
H675 H 0.73099 0.10725 0.26847 0.0
C676 C 0.81805 0.83184 0.25804 0.0
C677 C 0.80842 0.77842 0.24742 0.0
C678 C 0.74027 0.77584 0.29368 0.0
C679 C 0.74544 0.8319 0.29978 0.0
N680 N 0.77796 0.91376 0.27541 0.0
N681 N 0.7502 0.70271 0.25447 0.0
C682 C 0.78033 0.85971 0.27782 0.0
C683 C 0.76651 0.75125 0.2651 0.0
N684 N 0.86477 0.85655 0.25057 0.0
N685 N 0.712 0.74514 0.31539 0.0
H686 H 0.76759 0.68368 0.23441 0.0
H687 H 0.71661 0.68351 0.26395 0.0
H688 H 0.69195 0.76062 0.33569 0.0
H689 H 0.71181 0.70384 0.31448 0.0
H690 H 0.87506 0.89388 0.25953 0.0
H691 H 0.89637 0.83639 0.24042 0.0
H692 H 0.80262 0.93615 0.25993 0.0
H693 H 0.74737 0.9358 0.28585 0.0
C694 C 0.22775 0.77443 0.24442 0.0
C695 C 0.2556 0.82376 0.24832 0.0
C696 C 0.2381 0.81442 0.30892 0.0
C697 C 0.20276 0.77067 0.30482 0.0
N698 N 0.16461 0.70861 0.26682 0.0
N699 N 0.27645 0.89458 0.28587 0.0
C700 C 0.19841 0.7501 0.272 0.0
C701 C 0.25787 0.84443 0.28105 0.0
N702 N 0.22863 0.75123 0.21402 0.0
N703 N 0.25504 0.82644 0.33989 0.0
H704 H 0.29061 0.91816 0.26663 0.0
H705 H 0.27307 0.91421 0.30839 0.0
H706 H 0.24449 0.80339 0.36035 0.0
H707 H 0.28501 0.8541 0.34422 0.0
H708 H 0.21337 0.71369 0.20921 0.0
H709 H 0.24873 0.76826 0.19393 0.0
H710 H 0.15614 0.69342 0.24361 0.0
H711 H 0.14308 0.69055 0.28593 0.0
C712 C 0.78795 0.75623 0.7495 0.0
C713 C 0.76938 0.80952 0.75338 0.0
C714 C 0.79417 0.79919 0.81283 0.0
C715 C 0.82517 0.75284 0.80696 0.0
N716 N 0.85072 0.68759 0.76686 0.0
N717 N 0.76041 0.88216 0.7914 0.0
C718 C 0.82133 0.73113 0.77448 0.0
C719 C 0.77411 0.83084 0.78588 0.0
N720 N 0.77208 0.72863 0.72248 0.0
N721 N 0.78122 0.81177 0.84455 0.0
H722 H 0.74664 0.90663 0.77275 0.0
H723 H 0.76603 0.90113 0.81389 0.0
H724 H 0.7899 0.78624 0.86406 0.0
H725 H 0.7554 0.84242 0.85073 0.0
H726 H 0.7805 0.68858 0.71909 0.0
H727 H 0.74598 0.74506 0.70528 0.0
H728 H 0.854 0.67297 0.74288 0.0
H729 H 0.87427 0.66836 0.78434 0.0
C730 C 0.24768 0.75365 0.76603 0.0
C731 C 0.24835 0.77628 0.73346 0.0
C732 C 0.29664 0.85388 0.7568 0.0
C733 C 0.29969 0.8307 0.78903 0.0
N734 N 0.28318 0.75272 0.82235 0.0
N735 N 0.29413 0.83854 0.69781 0.0
C736 C 0.27742 0.77839 0.7928 0.0
C737 C 0.27957 0.82322 0.72902 0.0
N738 N 0.21662 0.71014 0.77204 0.0
N739 N 0.30722 0.90652 0.7524 0.0
H740 H 0.2857 0.81547 0.67716 0.0
H741 H 0.32016 0.87004 0.6931 0.0
H742 H 0.31824 0.93146 0.77154 0.0
H743 H 0.29976 0.92628 0.7302 0.0
H744 H 0.20978 0.69438 0.79553 0.0
H745 H 0.19492 0.69137 0.75364 0.0
H746 H 0.27267 0.71319 0.82622 0.0
H747 H 0.30252 0.76981 0.84237 0.0
C748 C 0.19391 0.22246 0.77588 0.0
C749 C 0.22239 0.25384 0.79878 0.0
C750 C 0.30368 0.2346 0.76353 0.0
C751 C 0.27431 0.19985 0.74205 0.0
N752 N 0.18581 0.17894 0.72341 0.0
N753 N 0.30795 0.28584 0.81522 0.0
C754 C 0.21811 0.1984 0.74752 0.0
C755 C 0.27834 0.25927 0.79251 0.0
N756 N 0.14132 0.21587 0.78098 0.0
N757 N 0.35516 0.2462 0.7556 0.0
H758 H 0.29063 0.30465 0.83549 0.0
H759 H 0.34929 0.28664 0.8152 0.0
H760 H 0.37371 0.2311 0.73463 0.0
H761 H 0.37802 0.2742 0.76791 0.0
H762 H 0.12132 0.18141 0.77412 0.0
H763 H 0.11979 0.24639 0.79154 0.0
H764 H 0.14458 0.18112 0.72404 0.0
H765 H 0.1997 0.16699 0.70058 0.0
C766 C 0.76357 0.27166 0.74385 0.0
C767 C 0.82001 0.27754 0.74191 0.0
C768 C 0.82586 0.23439 0.79681 0.0
C769 C 0.76997 0.22335 0.79819 0.0
N770 N 0.68468 0.24989 0.77745 0.0
N771 N 0.89673 0.28921 0.77483 0.0
C772 C 0.73835 0.24773 0.77299 0.0
C773 C 0.84864 0.26579 0.7707 0.0
N774 N 0.73413 0.29052 0.71824 0.0
N775 N 0.85854 0.21526 0.82073 0.0
H776 H 0.91429 0.31332 0.75672 0.0
H777 H 0.91308 0.292 0.79827 0.0
H778 H 0.84429 0.19915 0.84253 0.0
H779 H 0.89984 0.21513 0.81847 0.0
H780 H 0.69341 0.28449 0.71592 0.0
H781 H 0.75161 0.31156 0.69866 0.0
H782 H 0.6589 0.26926 0.76147 0.0
H783 H 0.66636 0.23585 0.79899 0.0
C784 C 0.16062 0.36203 0.03226 0.0
C785 C 0.11283 0.37281 0.04981 0.0
C786 C 0.06995 0.39591 0.99671 0.0
C787 C 0.1177 0.38336 0.97899 0.0
N788 N 0.21344 0.38408 0.98397 0.0
N789 N 0.02954 0.42031 0.04882 0.0
C790 C 0.16466 0.3755 0.99798 0.0
C791 C 0.06971 0.39563 0.03205 0.0
N792 N 0.20182 0.33711 0.04757 0.0
N793 N 0.02431 0.40872 0.98049 0.0
H794 H 0.02856 0.42379 0.07441 0.0
H795 H 1.0004 0.443 0.03731 0.0
H796 H 0.02318 0.42308 0.95642 0.0
H797 H 0.98695 0.40667 0.99172 0.0
H798 H 0.23511 0.3236 0.03471 0.0
H799 H 0.20065 0.3254 0.07227 0.0
H800 H 0.24863 0.38215 0.9974 0.0
H801 H 0.21803 0.40137 0.96063 0.0
C802 C 0.6499 0.14064 0.04222 0.0
C803 C 0.69303 0.11767 0.05935 0.0
C804 C 0.7461 0.1206 1.00871 0.0
C805 C 0.69957 0.13039 0.9905 0.0
N806 N 0.60538 0.14996 0.9899 0.0
N807 N 0.78437 0.08871 0.05945 0.0
C808 C 0.65095 0.14121 1.00717 0.0
C809 C 0.74186 0.10844 0.04272 0.0
N810 N 0.60887 0.16325 0.05923 0.0
N811 N 0.79446 0.12601 0.99367 0.0
H812 H 0.78397 0.08369 0.08494 0.0
H813 H 0.81881 0.07526 0.04785 0.0
H814 H 0.79762 0.14054 0.9696 0.0
H815 H 0.83054 0.12338 1.00605 0.0
H816 H 0.57872 0.18468 0.04779 0.0
H817 H 0.60814 0.16589 0.08493 0.0
H818 H 0.56791 0.15074 1.00099 0.0
H819 H 0.60444 0.15365 0.96434 0.0
C820 C 0.93539 0.71152 1.0117 0.0
C821 C 0.92061 0.66573 0.9937 0.0
C822 C 0.89106 0.62276 0.04593 0.0
C823 C 0.91096 0.66666 0.06409 0.0
N824 N 0.92903 0.76032 0.06258 0.0
N825 N 0.88173 0.5785 0.99272 0.0
C826 C 0.92722 0.71302 0.04649 0.0
C827 C 0.89731 0.62161 1.01057 0.0
N828 N 0.95685 0.75431 0.99546 0.0
N829 N 0.86271 0.58436 0.06224 0.0
H830 H 0.88195 0.57837 0.96694 0.0
H831 H 0.87018 0.54241 1.00313 0.0
H832 H 0.85311 0.58741 0.08722 0.0
H833 H 0.84418 0.55246 0.05085 0.0
H834 H 0.97666 0.78504 1.00737 0.0
H835 H 0.95661 0.75828 0.96982 0.0
H836 H 0.93523 0.79688 0.05107 0.0
H837 H 0.91715 0.76364 0.08704 0.0
C838 C 0.28339 0.92373 0.03404 0.0
C839 C 0.32627 0.90672 0.05412 0.0
C840 C 0.37998 0.88904 1.00468 0.0
C841 C 0.33766 0.90743 0.98452 0.0
N842 N 0.24471 0.92765 0.97925 0.0
N843 N 0.40802 0.85725 0.05836 0.0
C844 C 0.28792 0.92027 0.99903 0.0
C845 C 0.372 0.88385 0.03939 0.0
N846 N 0.23854 0.94371 0.04852 0.0
N847 N 0.42903 0.87989 0.99124 0.0
H848 H 0.40465 0.85327 0.08391 0.0
H849 H 0.43881 0.83479 0.04842 0.0
H850 H 0.43712 0.88195 0.96604 0.0
H851 H 0.463 0.87401 1.00536 0.0
H852 H 0.20887 0.96328 0.03548 0.0
H853 H 0.2318 0.94234 0.074 0.0
H854 H 0.20612 0.93208 0.98818 0.0
H855 H 0.2468 0.92456 0.95358 0.0
C856 C 0.05744 0.63777 0.5091 0.0
C857 C 0.10117 0.65069 0.48751 0.0
C858 C 0.1526 0.67781 0.53616 0.0
C859 C 0.11 0.66415 0.55801 0.0
N860 N 0.03096 0.61023 0.56441 0.0
N861 N 0.19749 0.6513 0.48625 0.0
C862 C 0.06506 0.6379 0.54423 0.0
C863 C 0.15106 0.66053 0.50281 0.0
N864 N 1.00857 0.62485 0.49703 0.0
N865 N 0.19349 0.70962 0.54596 0.0
H866 H 0.19859 0.63127 0.46377 0.0
H867 H 0.23454 0.65568 0.49737 0.0
H868 H 0.19491 0.72795 0.56884 0.0
H869 H 0.2227 0.72312 0.52949 0.0
H870 H 0.97452 0.62437 0.51186 0.0
H871 H 1.00114 0.61439 0.47275 0.0
H872 H 1.0005 0.58625 0.55548 0.0
H873 H 0.0372 0.60556 0.58971 0.0
C874 C 0.30541 0.07901 0.4945 0.0
C875 C 0.34863 0.1039 0.47787 0.0
C876 C 0.38712 0.12913 0.53113 0.0
C877 C 0.3452 0.1018 0.5482 0.0
N878 N 0.26808 0.0439 0.54514 0.0
N879 N 0.41729 0.17028 0.48007 0.0
C880 C 0.30545 0.0748 0.52957 0.0
C881 C 0.38573 0.13401 0.49607 0.0
N882 N 0.26158 0.06398 0.47697 0.0
N883 N 0.43068 0.147 0.54782 0.0
H884 H 0.41473 0.17742 0.45472 0.0
H885 H 0.44105 0.19773 0.4923 0.0
H886 H 0.43562 0.14304 0.57317 0.0
H887 H 0.46499 0.16079 0.536 0.0
H888 H 0.22613 0.05109 0.48778 0.0
H889 H 0.25788 0.07084 0.4517 0.0
H890 H 0.24409 0.01672 0.53287 0.0
H891 H 0.26288 0.04248 0.57058 0.0
C892 C 0.89894 0.32627 0.50336 0.0
C893 C 0.92775 0.3647 0.48459 0.0
C894 C 0.94262 0.41378 0.53629 0.0
C895 C 0.91629 0.37342 0.55466 0.0
N896 N 0.84633 0.30766 0.55182 0.0
N897 N 0.98782 0.43987 0.4858 0.0
C898 C 0.88724 0.33475 0.53714 0.0
C899 C 0.95275 0.40713 0.50171 0.0
N900 N 0.88781 0.27827 0.48985 0.0
N901 N 0.95031 0.46174 0.55078 0.0
H902 H 1.01118 0.46744 0.49823 0.0
H903 H 0.99793 0.43575 0.46102 0.0
H904 H 0.9326 0.47018 0.57354 0.0
H905 H 0.96532 0.49486 0.53828 0.0
H906 H 0.87026 0.24714 0.5031 0.0
H907 H 0.90454 0.26745 0.46736 0.0
H908 H 0.82035 0.28373 0.53847 0.0
H909 H 0.83321 0.31455 0.57577 0.0
C910 C 0.70888 0.87674 0.54526 0.0
C911 C 0.68261 0.91641 0.56407 0.0
C912 C 0.64251 0.9519 0.5134 0.0
C913 C 0.67451 0.91754 0.49414 0.0
N914 N 0.73855 0.8467 0.49154 0.0
N915 N 0.62619 0.99411 0.56551 0.0
C916 C 0.70702 0.8791 0.51004 0.0
C917 C 0.64986 0.9544 0.54797 0.0
N918 N 0.73659 0.83733 0.56079 0.0
N919 N 0.6027 0.98043 0.49897 0.0
H920 H 0.62257 0.99409 0.59114 0.0
H921 H 0.61201 0.02863 0.55441 0.0
H922 H 0.59485 0.97947 0.47386 0.0
H923 H 0.57376 1.00078 0.5123 0.0
H924 H 0.74995 0.80333 0.54894 0.0
H925 H 0.74428 0.83662 0.58599 0.0
H926 H 0.76932 0.82391 0.50108 0.0
H927 H 0.73597 0.84459 0.46606 0.0
C928 C 0.03566 0.34927 0.25688 0.0
C929 C 1.00133 0.32233 0.23473 0.0
C930 C 0.98708 0.25278 0.27469 0.0
C931 C 1.0152 0.28193 0.29892 0.0
N932 N 0.07324 0.35557 0.31182 0.0
N933 N 0.93216 0.25827 0.22625 0.0
C934 C 0.04137 0.32992 0.28983 0.0
C935 C 0.97153 0.2784 0.24561 0.0
N936 N 0.06547 0.39083 0.24557 0.0
N937 N 0.97728 0.19989 0.27919 0.0
H938 H 0.92139 0.27669 0.20406 0.0
H939 H 0.90758 0.22707 0.2339 0.0
H940 H 0.99247 0.17907 0.29943 0.0
H941 H 0.95985 0.17622 0.26116 0.0
H942 H 0.09696 0.40769 0.2584 0.0
H943 H 0.05832 0.40813 0.22271 0.0
H944 H 0.08693 0.39425 0.30849 0.0
H945 H 0.08813 0.33721 0.33291 0.0
C946 C 0.63506 0.04717 0.29102 0.0
C947 C 0.64107 0.99729 0.30532 0.0
C948 C 0.65179 0.95559 0.2513 0.0
C949 C 0.66197 1.00648 0.23885 0.0
N950 N 0.6377 0.09822 0.24105 0.0
N951 N 0.62618 0.90363 0.29883 0.0
C952 C 0.64381 0.0514 0.25684 0.0
C953 C 0.63979 0.95102 0.28531 0.0
N954 N 0.62537 0.09026 0.31049 0.0
N955 N 0.65656 0.91242 0.23137 0.0
H956 H 0.61553 0.90129 0.32336 0.0
H957 H 0.62092 0.86866 0.28571 0.0
H958 H 0.65933 0.91602 0.20574 0.0
H959 H 0.65706 0.87341 0.23991 0.0
H960 H 0.62539 0.12933 0.30211 0.0
H961 H 0.61727 0.08652 0.33574 0.0
H962 H 0.62267 0.13274 0.25141 0.0
H963 H 0.64414 0.09938 0.21606 0.0
C964 C 0.97468 0.79636 0.29301 0.0
C965 C 0.98113 0.74511 0.30623 0.0
C966 C 0.02055 0.71468 0.25459 0.0
C967 C 1.014 0.76626 0.24134 0.0
N968 N 1.00349 0.85931 0.25096 0.0
N969 N 0.99738 0.65306 0.29904 0.0
C970 C 0.99782 0.80834 0.262 0.0
C971 C 0.99913 0.7032 0.28636 0.0
N972 N 0.94974 0.83377 0.31168 0.0
N973 N 0.04919 0.67807 0.23746 0.0
H974 H 0.97742 0.64495 0.32121 0.0
H975 H 1.0122 0.61994 0.28718 0.0
H976 H 0.06892 0.6876 0.21547 0.0
H977 H 0.0594 0.6411 0.24694 0.0
H978 H 0.94213 0.87221 0.30351 0.0
H979 H 0.93353 0.82412 0.33482 0.0
H980 H 0.99486 0.89246 0.26521 0.0
H981 H 0.02088 0.86763 0.22797 0.0
C982 C 0.37598 0.06521 0.27719 0.0
C983 C 0.36533 0.0198 0.29726 0.0
C984 C 0.38849 0.96289 0.25319 0.0
C985 C 0.3799 1.00685 0.23145 0.0
N986 N 0.40109 0.09784 0.22221 0.0
N987 N 0.39956 0.93339 0.3099 0.0
C988 C 0.38787 0.05771 0.24348 0.0
C989 C 0.38599 0.97131 0.28735 0.0
N990 N 0.37466 0.1141 0.2905 0.0
N991 N 0.39039 0.91289 0.24135 0.0
H992 H 0.39942 0.94088 0.33523 0.0
H993 H 0.4173 0.89765 0.30337 0.0
H994 H 0.39169 0.90674 0.21633 0.0
H995 H 0.38918 0.87876 0.256 0.0
H996 H 0.38149 0.1488 0.27724 0.0
H997 H 0.37036 0.11802 0.31569 0.0
H998 H 0.40716 0.137 0.22924 0.0
H999 H 0.4095 0.09004 0.19738 0.0
C1000 C 0.07174 0.76926 0.77357 0.0
C1001 C 0.04074 0.74401 0.74893 0.0
C1002 C 0.02435 0.67024 0.78682 0.0
C1003 C 0.05701 0.69591 0.81007 0.0
N1004 N 0.1272 0.75664 0.82155 0.0
N1005 N 0.97704 0.67582 0.73489 0.0
C1006 C 0.08789 0.73969 0.8011 0.0
C1007 C 1.01405 0.69556 0.75613 0.0
N1008 N 0.08335 0.82209 0.7711 0.0
N1009 N 0.99741 0.62605 0.79697 0.0
H1010 H 0.95972 0.69903 0.71653 0.0
H1011 H 0.96019 0.63821 0.73689 0.0
H1012 H 1.0067 0.60821 0.81952 0.0
H1013 H 0.96678 0.60803 0.784 0.0
H1014 H 0.10359 0.84286 0.78935 0.0
H1015 H 0.0673 0.84577 0.75241 0.0
H1016 H 0.15272 0.7879 0.81539 0.0
H1017 H 0.1367 0.73554 0.84302 0.0
C1018 C 0.40247 0.06696 0.75601 0.0
C1019 C 0.39595 0.02138 0.7359 0.0
C1020 C 0.41876 0.96454 0.78109 0.0
C1021 C 0.41211 1.00871 0.80246 0.0
N1022 N 0.42191 0.10162 0.81084 0.0
N1023 N 0.42395 0.93234 0.72475 0.0
C1024 C 0.41351 0.06021 0.78985 0.0
C1025 C 0.41399 0.97202 0.7468 0.0
N1026 N 0.398 0.11599 0.74259 0.0
N1027 N 0.42405 0.91503 0.79378 0.0
H1028 H 0.41901 0.93722 0.69933 0.0
H1029 H 0.44151 0.89646 0.73121 0.0
H1030 H 0.42851 0.90962 0.81875 0.0
H1031 H 0.42234 0.88024 0.7801 0.0
H1032 H 0.40098 0.15103 0.75572 0.0
H1033 H 0.39411 0.12057 0.7174 0.0
H1034 H 0.42376 0.14128 0.80374 0.0
H1035 H 0.43021 0.09519 0.83582 0.0
C1036 C 0.03161 0.22627 0.75097 0.0
C1037 C 0.03678 0.27739 0.73639 0.0
C1038 C 1.01522 0.3187 0.78868 0.0
C1039 C 1.01344 0.26819 0.80392 0.0
N1040 N 1.00646 0.17378 0.79937 0.0
N1041 N 0.04505 0.37138 0.74186 0.0
C1042 C 1.0168 0.22172 0.7847 0.0
C1043 C 0.03354 0.32325 0.75574 0.0
N1044 N 0.03897 0.18272 0.73153 0.0
N1045 N 0.99206 0.36076 0.8039 0.0
H1046 H 0.05934 0.37477 0.71765 0.0
H1047 H 0.04499 0.40653 0.75521 0.0
H1048 H 0.97344 0.3573 0.82692 0.0
H1049 H 0.98246 0.3952 0.79098 0.0
H1050 H 0.03653 0.14369 0.73984 0.0
H1051 H 0.05102 0.18657 0.70687 0.0
H1052 H 1.0072 0.13759 0.7872 0.0
H1053 H 0.99402 0.17105 0.82402 0.0
C1054 C 0.65345 0.06827 0.78507 0.0
C1055 C 0.65795 0.02612 0.80836 0.0
C1056 C 0.65588 0.96244 0.76521 0.0
C1057 C 0.66753 1.00479 0.74292 0.0
N1058 N 0.64104 0.09247 0.72746 0.0
N1059 N 0.64779 0.93415 0.82247 0.0
C1060 C 0.65306 0.05614 0.75135 0.0
C1061 C 0.65197 0.97327 0.79902 0.0
N1062 N 0.65411 0.11943 0.79514 0.0
N1063 N 0.64873 0.91271 0.75363 0.0
H1064 H 0.6433 0.94264 0.84755 0.0
H1065 H 0.64887 0.89376 0.81745 0.0
H1066 H 0.64736 0.9069 0.72859 0.0
H1067 H 0.63848 0.87972 0.76789 0.0
H1068 H 0.65617 0.15134 0.77886 0.0
H1069 H 0.65379 0.12899 0.81999 0.0
H1070 H 0.6273 0.13049 0.73253 0.0
H1071 H 0.63841 0.08184 0.70263 0.0
C1072 C 0.05062 0.51416 0.19676 0.0
C1073 C 0.05788 0.49384 0.16453 0.0
C1074 C 0.97919 0.54427 0.14636 0.0
C1075 C 0.971 0.56517 0.17824 0.0
N1076 N 0.99318 0.56099 0.23548 0.0
N1077 N 0.0445 0.51445 0.10692 0.0
C1078 C 1.00573 0.54797 0.20384 0.0
C1079 C 0.02683 0.51679 0.13884 0.0
N1080 N 0.08962 0.50661 0.21939 0.0
N1081 N 0.94018 0.54821 0.1234 0.0
H1082 H 0.08146 0.49834 0.10086 0.0
H1083 H 0.02558 0.53399 0.0875 0.0
H1084 H 0.90274 0.56242 0.12974 0.0
H1085 H 0.9427 0.53036 0.10025 0.0
H1086 H 0.09171 0.52845 0.24103 0.0
H1087 H 0.12354 0.48453 0.2141 0.0
H1088 H 1.01256 0.54478 0.25575 0.0
H1089 H 0.95992 0.584 0.24109 0.0
C1090 C 0.52468 0.02787 0.1881 0.0
C1091 C 0.54629 0.05307 0.15939 0.0
C1092 C 0.49697 0.9842 0.12665 0.0
C1093 C 0.47697 0.95827 0.15586 0.0
N1094 N 0.49454 0.9449 0.2131 0.0
N1095 N 0.55278 0.05179 0.10028 0.0
C1096 C 0.49722 0.97742 0.18626 0.0
C1097 C 0.53135 0.03026 0.12839 0.0
N1098 N 0.5292 0.05316 0.21748 0.0
N1099 N 0.48025 0.96553 0.09683 0.0
H1100 H 0.57455 0.0869 0.10098 0.0
H1101 H 0.55068 0.03478 0.07696 0.0
H1102 H 0.45851 0.93037 0.09518 0.0
H1103 H 0.48614 0.98486 0.07431 0.0
H1104 H 0.5113 0.039 0.23907 0.0
H1105 H 0.54427 0.09172 0.21849 0.0
H1106 H 0.51193 0.95418 0.23569 0.0
H1107 H 0.48132 0.90582 0.21071 0.0
C1108 C 0.02306 0.53077 0.39927 0.0
C1109 C 0.05183 0.54953 0.37132 0.0
C1110 C 1.00355 0.4823 0.33812 0.0
C1111 C 0.97091 0.46801 0.36592 0.0
N1112 N 0.94118 0.49252 0.42037 0.0
N1113 N 0.07641 0.53643 0.31516 0.0
C1114 C 0.97799 0.49668 0.39563 0.0
C1115 C 0.0435 0.52358 0.34082 0.0
N1116 N 0.04146 0.54293 0.42985 0.0
N1117 N 0.9943 0.4575 0.30877 0.0
H1118 H 0.10509 0.56632 0.31705 0.0
H1119 H 0.07919 0.51415 0.2938 0.0
H1120 H 0.96396 0.42948 0.30614 0.0
H1121 H 1.01437 0.4659 0.28684 0.0
H1122 H 0.02448 0.52826 0.45158 0.0
H1123 H 0.0783 0.56134 0.43273 0.0
H1124 H 0.94209 0.51648 0.44129 0.0
H1125 H 0.90678 0.46972 0.41822 0.0
C1126 C 0.50798 1.00351 0.41182 0.0
C1127 C 0.52867 0.97084 0.38575 0.0
C1128 C 0.49986 0.04234 0.34701 0.0
C1129 C 0.47986 0.07475 0.37337 0.0
N1130 N 0.48533 0.09218 0.43083 0.0
N1131 N 0.52417 0.95365 0.32795 0.0
C1132 C 0.49091 0.05704 0.40571 0.0
C1133 C 0.5196 0.98908 0.35299 0.0
N1134 N 0.50186 0.9819 0.44263 0.0
N1135 N 0.49755 0.06256 0.31577 0.0
H1136 H 0.52984 0.91345 0.33302 0.0
H1137 H 0.51528 0.96223 0.30339 0.0
H1138 H 0.483 0.10068 0.31132 0.0
H1139 H 0.51438 0.04401 0.2954 0.0
H1140 H 0.48309 1.00153 0.46204 0.0
H1141 H 0.51024 0.94208 0.4475 0.0
H1142 H 0.49614 0.08391 0.45515 0.0
H1143 H 0.47572 0.13161 0.42579 0.0
C1144 C 0.02653 0.48298 0.84134 0.0
C1145 C 0.06251 0.46707 0.86652 0.0
C1146 C 1.00813 0.51751 0.90637 0.0
C1147 C 0.97321 0.53532 0.88097 0.0
N1148 N 0.94185 0.52354 0.82612 0.0
N1149 N 0.09671 0.48701 0.92028 0.0
C1150 C 0.98026 0.51421 0.84898 0.0
C1151 C 0.05572 0.48913 0.89842 0.0
N1152 N 0.03965 0.47164 0.80948 0.0
N1153 N 0.99653 0.53086 0.93824 0.0
H1154 H 0.13377 0.47195 0.91375 0.0
H1155 H 0.09628 0.50569 0.94316 0.0
H1156 H 0.96195 0.55146 0.94411 0.0
H1157 H 0.01815 0.51805 0.95862 0.0
H1158 H 0.01813 0.4849 0.78926 0.0
H1159 H 0.07483 0.45191 0.80353 0.0
H1160 H 0.94079 0.50523 0.80316 0.0
H1161 H 0.90854 0.54645 0.83179 0.0
C1162 C 0.52821 0.0571 0.91292 0.0
C1163 C 0.55176 0.07834 0.88381 0.0
C1164 C 0.5219 0.99377 0.85614 0.0
C1165 C 0.50443 0.97126 0.88701 0.0
N1166 N 0.51695 0.97804 0.94594 0.0
N1167 N 0.54998 0.07348 0.82504 0.0
C1168 C 0.51622 1.00205 0.9156 0.0
C1169 C 0.5433 0.04809 0.85446 0.0
N1170 N 0.51917 0.08999 0.93895 0.0
N1171 N 0.52236 0.96196 0.82918 0.0
H1172 H 0.56009 0.11368 0.82429 0.0
H1173 H 0.53976 0.05695 0.80242 0.0
H1174 H 0.51404 0.92154 0.8315 0.0
H1175 H 0.53671 0.97386 0.80611 0.0
H1176 H 0.49953 0.07759 0.96046 0.0
H1177 H 0.52597 0.13077 0.93688 0.0
H1178 H 0.52849 0.99778 0.96734 0.0
H1179 H 0.5124 0.93706 0.94867 0.0
C1180 C 0.99822 0.50693 0.69975 0.0
C1181 C 0.99368 0.47909 0.66941 0.0
C1182 C 0.06984 0.53384 0.64747 0.0
C1183 C 0.07101 0.56455 0.67645 0.0
N1184 N 0.04726 0.57098 0.73327 0.0
N1185 N 0.02212 0.47348 0.61261 0.0
C1186 C 0.03764 0.5487 0.70335 0.0
C1187 C 0.02911 0.49478 0.64302 0.0
N1188 N 0.96363 0.4947 0.72473 0.0
N1189 N 0.10885 0.54115 0.62418 0.0
H1190 H 0.99185 0.44687 0.60853 0.0
H1191 H 0.0413 0.48646 0.59115 0.0
H1192 H 0.13961 0.56847 0.62701 0.0
H1193 H 0.11445 0.51648 0.60393 0.0
H1194 H 0.95961 0.51747 0.74594 0.0
H1195 H 0.93564 0.46424 0.72269 0.0
H1196 H 0.03082 0.55673 0.75515 0.0
H1197 H 0.07663 0.59993 0.73629 0.0
C1198 C 0.53982 1.00451 0.69625 0.0
C1199 C 0.55601 0.96907 0.67057 0.0
C1200 C 0.51374 0.03022 0.63092 0.0
C1201 C 0.49599 0.06601 0.65628 0.0
N1202 N 0.5058 0.0916 0.71275 0.0
N1203 N 0.539 0.94037 0.61573 0.0
C1204 C 0.5126 0.05414 0.68905 0.0
C1205 C 0.53531 0.97926 0.63889 0.0
N1206 N 0.54654 0.98785 0.72793 0.0
N1207 N 0.51231 0.0465 0.59866 0.0
H1208 H 0.55599 0.90366 0.62133 0.0
H1209 H 0.52107 0.94282 0.59262 0.0
H1210 H 0.50391 0.08567 0.59216 0.0
H1211 H 0.52474 0.02334 0.5789 0.0
H1212 H 0.53292 1.00846 0.74849 0.0
H1213 H 0.55991 0.94953 0.73278 0.0
H1214 H 0.52038 0.08803 0.73669 0.0
H1215 H 0.49031 0.12883 0.70704 0.0
loop_
_geom_bond_atom_site_label_1
_geom_bond_atom_site_label_2
_geom_bond_distance
_geom_bond_site_symmetry_2
_ccdc_geom_bond_type
Fe0 O2 1.918 . S
Fe0 O5 1.997 . S
Fe0 O6 2.002 . S
Fe0 O11 1.976 . S
Fe0 O14 1.996 . S
Fe1 O2 1.918 . S
Fe1 O9 1.993 1_455 S
Fe1 O12 1.996 1_455 S
Fe1 O16 1.976 . S
Fe1 O19 2.002 . S
O2 Fe0 1.918 . S
O2 Fe1 1.918 . S
O2 Fe3 1.918 . S
Fe3 O2 1.918 . S
Fe3 O4 2.002 . S
Fe3 O13 1.976 . S
Fe3 O17 1.996 . S
Fe3 O20 1.997 . S
O4 Fe3 2.002 . S
O4 C21 1.295 . S
O5 Fe0 1.997 . S
O5 C21 1.235 . S
O6 Fe0 2.002 . S
O6 C7 1.295 . S
C7 O6 1.295 . S
C7 O9 1.234 1_455 S
C8 O13 1.287 . S
C8 O14 1.255 . S
O9 Fe1 1.993 1_655 S
O9 C7 1.234 1_655 S
C10 O16 1.287 . S
C10 O17 1.255 . S
O11 Fe0 1.976 . S
O11 C18 1.287 1_455 S
O12 Fe1 1.996 1_655 S
O12 C18 1.255 . S
O13 Fe3 1.976 . S
O13 C8 1.287 . S
O14 Fe0 1.996 . S
O14 C8 1.255 . S
C15 O19 1.295 . S
C15 O20 1.235 . S
O16 Fe1 1.976 . S
O16 C10 1.287 . S
O17 Fe3 1.996 . S
O17 C10 1.255 . S
C18 O11 1.287 1_655 S
C18 O12 1.255 . S
O19 Fe1 2.002 . S
O19 C15 1.295 . S
O20 Fe3 1.997 . S
O20 C15 1.235 . S
C21 O4 1.295 . S
C21 O5 1.235 . S
Fe22 O24 1.918 . S
Fe22 O27 1.997 . S
Fe22 O28 2.002 . S
Fe22 O33 1.976 . S
Fe22 O36 1.996 . S
Fe23 O24 1.918 . S
Fe23 O31 1.997 . S
Fe23 O34 1.996 . S
Fe23 O38 1.976 . S
Fe23 O41 2.002 . S
O24 Fe22 1.918 . S
O24 Fe23 1.918 . S
O24 Fe25 1.918 . S
Fe25 O24 1.918 . S
Fe25 O26 2.002 . S
Fe25 O35 1.976 . S
Fe25 O39 1.996 1_545 S
Fe25 O42 1.993 1_545 S
O26 Fe25 2.002 . S
O26 C43 1.295 . S
O27 Fe22 1.997 . S
O27 C43 1.235 . S
O28 Fe22 2.002 . S
O28 C29 1.295 . S
C29 O28 1.295 . S
C29 O31 1.235 . S
C30 O35 1.287 . S
C30 O36 1.255 . S
O31 Fe23 1.997 . S
O31 C29 1.235 . S
C32 O38 1.287 1_565 S
C32 O39 1.255 . S
O33 Fe22 1.976 . S
O33 C40 1.287 . S
O34 Fe23 1.996 . S
O34 C40 1.255 . S
O35 Fe25 1.976 . S
O35 C30 1.287 . S
O36 Fe22 1.996 . S
O36 C30 1.255 . S
C37 O41 1.295 . S
C37 O42 1.234 1_545 S
O38 Fe23 1.976 . S
O38 C32 1.287 1_545 S
O39 Fe25 1.996 1_565 S
O39 C32 1.255 . S
C40 O33 1.287 . S
C40 O34 1.255 . S
O41 Fe23 2.002 . S
O41 C37 1.295 . S
O42 Fe25 1.993 1_565 S
O42 C37 1.234 1_565 S
C43 O26 1.295 . S
C43 O27 1.235 . S
Fe44 O46 1.918 . S
Fe44 O49 1.997 . S
Fe44 O50 2.002 . S
Fe44 O55 1.976 . S
Fe44 O58 1.996 . S
Fe45 O46 1.918 . S
Fe45 O53 1.997 . S
Fe45 O56 1.996 . S
Fe45 O60 1.976 . S
Fe45 O63 2.002 . S
O46 Fe44 1.918 . S
O46 Fe45 1.918 . S
O46 Fe47 1.918 . S
Fe47 O46 1.918 . S
Fe47 O48 2.002 . S
Fe47 O57 1.976 . S
Fe47 O61 1.996 1_655 S
Fe47 O64 1.993 1_655 S
O48 Fe47 2.002 . S
O48 C65 1.295 . S
O49 Fe44 1.997 . S
O49 C65 1.235 . S
O50 Fe44 2.002 . S
O50 C51 1.295 . S
C51 O50 1.295 . S
C51 O53 1.235 . S
C52 O57 1.287 . S
C52 O58 1.255 . S
O53 Fe45 1.997 . S
O53 C51 1.235 . S
C54 O60 1.287 1_455 S
C54 O61 1.255 . S
O55 Fe44 1.976 . S
O55 C62 1.287 . S
O56 Fe45 1.996 . S
O56 C62 1.255 . S
O57 Fe47 1.976 . S
O57 C52 1.287 . S
O58 Fe44 1.996 . S
O58 C52 1.255 . S
C59 O63 1.295 . S
C59 O64 1.234 1_655 S
O60 Fe45 1.976 . S
O60 C54 1.287 1_655 S
O61 Fe47 1.996 1_455 S
O61 C54 1.255 . S
C62 O55 1.287 . S
C62 O56 1.255 . S
O63 Fe45 2.002 . S
O63 C59 1.295 . S
O64 Fe47 1.993 1_455 S
O64 C59 1.234 1_455 S
C65 O48 1.295 . S
C65 O49 1.235 . S
Fe66 O68 1.918 . S
Fe66 O71 1.997 . S
Fe66 O72 2.002 . S
Fe66 O77 1.976 . S
Fe66 O80 1.996 . S
Fe67 O68 1.918 . S
Fe67 O75 1.997 . S
Fe67 O78 1.996 . S
Fe67 O82 1.976 . S
Fe67 O85 2.002 . S
O68 Fe66 1.918 . S
O68 Fe67 1.918 . S
O68 Fe69 1.918 . S
Fe69 O68 1.918 . S
Fe69 O70 2.002 . S
Fe69 O79 1.976 . S
Fe69 O83 1.996 1_565 S
Fe69 O86 1.993 1_565 S
O70 Fe69 2.002 . S
O70 C87 1.295 . S
O71 Fe66 1.997 . S
O71 C87 1.235 . S
O72 Fe66 2.002 . S
O72 C73 1.295 . S
C73 O72 1.295 . S
C73 O75 1.235 . S
C74 O79 1.287 . S
C74 O80 1.255 . S
O75 Fe67 1.997 . S
O75 C73 1.235 . S
C76 O82 1.287 1_545 S
C76 O83 1.255 . S
O77 Fe66 1.976 . S
O77 C84 1.287 . S
O78 Fe67 1.996 . S
O78 C84 1.255 . S
O79 Fe69 1.976 . S
O79 C74 1.287 . S
O80 Fe66 1.996 . S
O80 C74 1.255 . S
C81 O85 1.295 . S
C81 O86 1.234 1_565 S
O82 Fe67 1.976 . S
O82 C76 1.287 1_565 S
O83 Fe69 1.996 1_545 S
O83 C76 1.255 . S
C84 O77 1.287 . S
C84 O78 1.255 . S
O85 Fe67 2.002 . S
O85 C81 1.295 . S
O86 Fe69 1.993 1_545 S
O86 C81 1.234 1_545 S
C87 O70 1.295 . S
C87 O71 1.235 . S
Fe88 O90 1.918 . S
Fe88 O93 1.997 . S
Fe88 O94 2.002 . S
Fe88 O99 1.976 . S
Fe88 O102 1.996 . S
Fe89 O90 1.918 . S
Fe89 O97 1.993 1_455 S
Fe89 O100 1.996 1_455 S
Fe89 O104 1.976 . S
Fe89 O107 2.002 . S
O90 Fe88 1.918 . S
O90 Fe89 1.918 . S
O90 Fe91 1.918 . S
Fe91 O90 1.918 . S
Fe91 O92 2.002 . S
Fe91 O101 1.976 . S
Fe91 O105 1.996 . S
Fe91 O108 1.997 . S
O92 Fe91 2.002 . S
O92 C109 1.295 . S
O93 Fe88 1.997 . S
O93 C109 1.235 . S
O94 Fe88 2.002 . S
O94 C95 1.295 . S
C95 O94 1.295 . S
C95 O97 1.234 1_455 S
C96 O101 1.287 . S
C96 O102 1.255 . S
O97 Fe89 1.993 1_655 S
O97 C95 1.234 1_655 S
C98 O104 1.287 . S
C98 O105 1.255 . S
O99 Fe88 1.976 . S
O99 C106 1.287 1_455 S
O100 Fe89 1.996 1_655 S
O100 C106 1.255 . S
O101 Fe91 1.976 . S
O101 C96 1.287 . S
O102 Fe88 1.996 . S
O102 C96 1.255 . S
C103 O107 1.295 . S
C103 O108 1.235 . S
O104 Fe89 1.976 . S
O104 C98 1.287 . S
O105 Fe91 1.996 . S
O105 C98 1.255 . S
C106 O99 1.287 1_655 S
C106 O100 1.255 . S
O107 Fe89 2.002 . S
O107 C103 1.295 . S
O108 Fe91 1.997 . S
O108 C103 1.235 . S
C109 O92 1.295 . S
C109 O93 1.235 . S
Fe110 O112 1.918 . S
Fe110 O115 1.997 . S
Fe110 O116 2.002 . S
Fe110 O121 1.976 . S
Fe110 O124 1.996 . S
Fe111 O112 1.918 . S
Fe111 O119 1.997 . S
Fe111 O122 1.996 . S
Fe111 O126 1.976 . S
Fe111 O129 2.002 . S
O112 Fe110 1.918 . S
O112 Fe111 1.918 . S
O112 Fe113 1.918 . S
Fe113 O112 1.918 . S
Fe113 O114 2.002 . S
Fe113 O123 1.976 . S
Fe113 O127 1.996 1_545 S
Fe113 O130 1.993 1_545 S
O114 Fe113 2.002 . S
O114 C131 1.295 . S
O115 Fe110 1.997 . S
O115 C131 1.235 . S
O116 Fe110 2.002 . S
O116 C117 1.295 . S
C117 O116 1.295 . S
C117 O119 1.235 . S
C118 O123 1.287 . S
C118 O124 1.255 . S
O119 Fe111 1.997 . S
O119 C117 1.235 . S
C120 O126 1.287 1_565 S
C120 O127 1.255 . S
O121 Fe110 1.976 . S
O121 C128 1.287 . S
O122 Fe111 1.996 . S
O122 C128 1.255 . S
O123 Fe113 1.976 . S
O123 C118 1.287 . S
O124 Fe110 1.996 . S
O124 C118 1.255 . S
C125 O129 1.295 . S
C125 O130 1.234 1_545 S
O126 Fe111 1.976 . S
O126 C120 1.287 1_545 S
O127 Fe113 1.996 1_565 S
O127 C120 1.255 . S
C128 O121 1.287 . S
C128 O122 1.255 . S
O129 Fe111 2.002 . S
O129 C125 1.295 . S
O130 Fe113 1.993 1_565 S
O130 C125 1.234 1_565 S
C131 O114 1.295 . S
C131 O115 1.235 . S
Fe132 O134 1.918 . S
Fe132 O137 1.997 . S
Fe132 O138 2.002 . S
Fe132 O143 1.976 . S
Fe132 O146 1.996 . S
Fe133 O134 1.918 . S
Fe133 O141 1.993 1_655 S
Fe133 O144 1.996 1_655 S
Fe133 O148 1.976 . S
Fe133 O151 2.002 . S
O134 Fe132 1.918 . S
O134 Fe133 1.918 . S
O134 Fe135 1.918 . S
Fe135 O134 1.918 . S
Fe135 O136 2.002 . S
Fe135 O145 1.976 . S
Fe135 O149 1.996 . S
Fe135 O152 1.997 . S
O136 Fe135 2.002 . S
O136 C153 1.295 . S
O137 Fe132 1.997 . S
O137 C153 1.235 . S
O138 Fe132 2.002 . S
O138 C139 1.295 . S
C139 O138 1.295 . S
C139 O141 1.234 1_655 S
C140 O145 1.287 . S
C140 O146 1.255 . S
O141 Fe133 1.993 1_455 S
O141 C139 1.234 1_455 S
C142 O148 1.287 . S
C142 O149 1.255 . S
O143 Fe132 1.976 . S
O143 C150 1.287 1_655 S
O144 Fe133 1.996 1_455 S
O144 C150 1.255 . S
O145 Fe135 1.976 . S
O145 C140 1.287 . S
O146 Fe132 1.996 . S
O146 C140 1.255 . S
C147 O151 1.295 . S
C147 O152 1.235 . S
O148 Fe133 1.976 . S
O148 C142 1.287 . S
O149 Fe135 1.996 . S
O149 C142 1.255 . S
C150 O143 1.287 1_455 S
C150 O144 1.255 . S
O151 Fe133 2.002 . S
O151 C147 1.295 . S
O152 Fe135 1.997 . S
O152 C147 1.235 . S
C153 O136 1.295 . S
C153 O137 1.235 . S
Fe154 O156 1.918 . S
Fe154 O159 1.997 . S
Fe154 O160 2.002 . S
Fe154 O165 1.976 . S
Fe154 O168 1.996 . S
Fe155 O156 1.918 . S
Fe155 O163 1.993 1_565 S
Fe155 O166 1.996 1_565 S
Fe155 O170 1.976 . S
Fe155 O173 2.002 . S
O156 Fe154 1.918 . S
O156 Fe155 1.918 . S
O156 Fe157 1.918 . S
Fe157 O156 1.918 . S
Fe157 O158 2.002 . S
Fe157 O167 1.976 . S
Fe157 O171 1.996 . S
Fe157 O174 1.997 . S
O158 Fe157 2.002 . S
O158 C175 1.295 . S
O159 Fe154 1.997 . S
O159 C175 1.235 . S
O160 Fe154 2.002 . S
O160 C161 1.295 . S
C161 O160 1.295 . S
C161 O163 1.234 1_565 S
C162 O167 1.287 . S
C162 O168 1.255 . S
O163 Fe155 1.993 1_545 S
O163 C161 1.234 1_545 S
C164 O170 1.287 . S
C164 O171 1.255 . S
O165 Fe154 1.976 . S
O165 C172 1.287 1_565 S
O166 Fe155 1.996 1_545 S
O166 C172 1.255 . S
O167 Fe157 1.976 . S
O167 C162 1.287 . S
O168 Fe154 1.996 . S
O168 C162 1.255 . S
C169 O173 1.295 . S
C169 O174 1.235 . S
O170 Fe155 1.976 . S
O170 C164 1.287 . S
O171 Fe157 1.996 . S
O171 C164 1.255 . S
C172 O165 1.287 1_545 S
C172 O166 1.255 . S
O173 Fe155 2.002 . S
O173 C169 1.295 . S
O174 Fe157 1.997 . S
O174 C169 1.235 . S
C175 O158 1.295 . S
C175 O159 1.235 . S
Fe176 O178 1.918 . S
Fe176 O181 1.997 . S
Fe176 O182 2.002 . S
Fe176 O187 1.976 . S
Fe176 O190 1.996 . S
Fe177 O178 1.918 . S
Fe177 O185 1.993 1_655 S
Fe177 O188 1.996 1_655 S
Fe177 O192 1.976 . S
Fe177 O195 2.002 . S
O178 Fe176 1.918 . S
O178 Fe177 1.918 . S
O178 Fe179 1.918 . S
Fe179 O178 1.918 . S
Fe179 O180 2.002 . S
Fe179 O189 1.976 . S
Fe179 O193 1.996 . S
Fe179 O196 1.997 . S
O180 Fe179 2.002 . S
O180 C197 1.295 . S
O181 Fe176 1.997 . S
O181 C197 1.235 . S
O182 Fe176 2.002 . S
O182 C183 1.295 . S
C183 O182 1.295 . S
C183 O185 1.234 1_655 S
C184 O189 1.287 . S
C184 O190 1.255 . S
O185 Fe177 1.993 1_455 S
O185 C183 1.234 1_455 S
C186 O192 1.287 . S
C186 O193 1.255 . S
O187 Fe176 1.976 . S
O187 C194 1.287 1_655 S
O188 Fe177 1.996 1_455 S
O188 C194 1.255 . S
O189 Fe179 1.976 . S
O189 C184 1.287 . S
O190 Fe176 1.996 . S
O190 C184 1.255 . S
C191 O195 1.295 . S
C191 O196 1.235 . S
O192 Fe177 1.976 . S
O192 C186 1.287 . S
O193 Fe179 1.996 . S
O193 C186 1.255 . S
C194 O187 1.287 1_455 S
C194 O188 1.255 . S
O195 Fe177 2.002 . S
O195 C191 1.295 . S
O196 Fe179 1.997 . S
O196 C191 1.235 . S
C197 O180 1.295 . S
C197 O181 1.235 . S
Fe198 O200 1.918 . S
Fe198 O203 1.997 . S
Fe198 O204 2.002 . S
Fe198 O209 1.976 . S
Fe198 O212 1.996 . S
Fe199 O200 1.918 . S
Fe199 O207 1.997 . S
Fe199 O210 1.996 . S
Fe199 O214 1.976 . S
Fe199 O217 2.002 . S
O200 Fe198 1.918 . S
O200 Fe199 1.918 . S
O200 Fe201 1.918 . S
Fe201 O200 1.918 . S
Fe201 O202 2.002 . S
Fe201 O211 1.976 . S
Fe201 O215 1.996 1_565 S
Fe201 O218 1.993 1_565 S
O202 Fe201 2.002 . S
O202 C219 1.295 . S
O203 Fe198 1.997 . S
O203 C219 1.235 . S
O204 Fe198 2.002 . S
O204 C205 1.295 . S
C205 O204 1.295 . S
C205 O207 1.235 . S
C206 O211 1.287 . S
C206 O212 1.255 . S
O207 Fe199 1.997 . S
O207 C205 1.235 . S
C208 O214 1.287 1_545 S
C208 O215 1.255 . S
O209 Fe198 1.976 . S
O209 C216 1.287 . S
O210 Fe199 1.996 . S
O210 C216 1.255 . S
O211 Fe201 1.976 . S
O211 C206 1.287 . S
O212 Fe198 1.996 . S
O212 C206 1.255 . S
C213 O217 1.295 . S
C213 O218 1.234 1_565 S
O214 Fe199 1.976 . S
O214 C208 1.287 1_565 S
O215 Fe201 1.996 1_545 S
O215 C208 1.255 . S
C216 O209 1.287 . S
C216 O210 1.255 . S
O217 Fe199 2.002 . S
O217 C213 1.295 . S
O218 Fe201 1.993 1_545 S
O218 C213 1.234 1_545 S
C219 O202 1.295 . S
C219 O203 1.235 . S
Fe220 O222 1.918 . S
Fe220 O225 1.997 . S
Fe220 O226 2.002 . S
Fe220 O231 1.976 . S
Fe220 O234 1.996 . S
Fe221 O222 1.918 . S
Fe221 O229 1.997 . S
Fe221 O232 1.996 . S
Fe221 O236 1.976 . S
Fe221 O239 2.002 . S
O222 Fe220 1.918 . S
O222 Fe221 1.918 . S
O222 Fe223 1.918 . S
Fe223 O222 1.918 . S
Fe223 O224 2.002 . S
Fe223 O233 1.976 . S
Fe223 O237 1.996 1_455 S
Fe223 O240 1.993 1_455 S
O224 Fe223 2.002 . S
O224 C241 1.295 . S
O225 Fe220 1.997 . S
O225 C241 1.235 . S
O226 Fe220 2.002 . S
O226 C227 1.295 . S
C227 O226 1.295 . S
C227 O229 1.235 . S
C228 O233 1.287 . S
C228 O234 1.255 . S
O229 Fe221 1.997 . S
O229 C227 1.235 . S
C230 O236 1.287 1_655 S
C230 O237 1.255 . S
O231 Fe220 1.976 . S
O231 C238 1.287 . S
O232 Fe221 1.996 . S
O232 C238 1.255 . S
O233 Fe223 1.976 . S
O233 C228 1.287 . S
O234 Fe220 1.996 . S
O234 C228 1.255 . S
C235 O239 1.295 . S
C235 O240 1.234 1_455 S
O236 Fe221 1.976 . S
O236 C230 1.287 1_455 S
O237 Fe223 1.996 1_655 S
O237 C230 1.255 . S
C238 O231 1.287 . S
C238 O232 1.255 . S
O239 Fe221 2.002 . S
O239 C235 1.295 . S
O240 Fe223 1.993 1_655 S
O240 C235 1.234 1_655 S
C241 O224 1.295 . S
C241 O225 1.235 . S
Fe242 O244 1.918 . S
Fe242 O247 1.997 . S
Fe242 O248 2.002 . S
Fe242 O253 1.976 . S
Fe242 O256 1.996 . S
Fe243 O244 1.918 . S
Fe243 O251 1.993 1_545 S
Fe243 O254 1.996 1_545 S
Fe243 O258 1.976 . S
Fe243 O261 2.002 . S
O244 Fe242 1.918 . S
O244 Fe243 1.918 . S
O244 Fe245 1.918 . S
Fe245 O244 1.918 . S
Fe245 O246 2.002 . S
Fe245 O255 1.976 . S
Fe245 O259 1.996 . S
Fe245 O262 1.997 . S
O246 Fe245 2.002 . S
O246 C263 1.295 . S
O247 Fe242 1.997 . S
O247 C263 1.235 . S
O248 Fe242 2.002 . S
O248 C249 1.295 . S
C249 O248 1.295 . S
C249 O251 1.234 1_545 S
C250 O255 1.287 . S
C250 O256 1.255 . S
O251 Fe243 1.993 1_565 S
O251 C249 1.234 1_565 S
C252 O258 1.287 . S
C252 O259 1.255 . S
O253 Fe242 1.976 . S
O253 C260 1.287 1_545 S
O254 Fe243 1.996 1_565 S
O254 C260 1.255 . S
O255 Fe245 1.976 . S
O255 C250 1.287 . S
O256 Fe242 1.996 . S
O256 C250 1.255 . S
C257 O261 1.295 . S
C257 O262 1.235 . S
O258 Fe243 1.976 . S
O258 C252 1.287 . S
O259 Fe245 1.996 . S
O259 C252 1.255 . S
C260 O253 1.287 1_565 S
C260 O254 1.255 . S
O261 Fe243 2.002 . S
O261 C257 1.295 . S
O262 Fe245 1.997 . S
O262 C257 1.235 . S
C263 O246 1.295 . S
C263 O247 1.235 . S
Fe264 O266 1.918 . S
Fe264 O269 1.997 . S
Fe264 O270 2.002 . S
Fe264 O275 1.976 . S
Fe264 O278 1.996 . S
Fe265 O266 1.918 . S
Fe265 O273 1.993 1_655 S
Fe265 O276 1.996 1_655 S
Fe265 O280 1.976 . S
Fe265 O283 2.002 . S
O266 Fe264 1.918 . S
O266 Fe265 1.918 . S
O266 Fe267 1.918 . S
Fe267 O266 1.918 . S
Fe267 O268 2.002 . S
Fe267 O277 1.976 . S
Fe267 O281 1.996 . S
Fe267 O284 1.997 . S
O268 Fe267 2.002 . S
O268 C285 1.295 . S
O269 Fe264 1.997 . S
O269 C285 1.235 . S
O270 Fe264 2.002 . S
O270 C271 1.295 . S
C271 O270 1.295 . S
C271 O273 1.234 1_655 S
C272 O277 1.287 . S
C272 O278 1.255 . S
O273 Fe265 1.993 1_455 S
O273 C271 1.234 1_455 S
C274 O280 1.287 . S
C274 O281 1.255 . S
O275 Fe264 1.976 . S
O275 C282 1.287 1_655 S
O276 Fe265 1.996 1_455 S
O276 C282 1.255 . S
O277 Fe267 1.976 . S
O277 C272 1.287 . S
O278 Fe264 1.996 . S
O278 C272 1.255 . S
C279 O283 1.295 . S
C279 O284 1.235 . S
O280 Fe265 1.976 . S
O280 C274 1.287 . S
O281 Fe267 1.996 . S
O281 C274 1.255 . S
C282 O275 1.287 1_455 S
C282 O276 1.255 . S
O283 Fe265 2.002 . S
O283 C279 1.295 . S
O284 Fe267 1.997 . S
O284 C279 1.235 . S
C285 O268 1.295 . S
C285 O269 1.235 . S
Fe286 O288 1.918 . S
Fe286 O291 1.997 . S
Fe286 O292 2.002 . S
Fe286 O297 1.976 . S
Fe286 O300 1.996 . S
Fe287 O288 1.918 . S
Fe287 O295 1.993 1_565 S
Fe287 O298 1.996 1_565 S
Fe287 O302 1.976 . S
Fe287 O305 2.002 . S
O288 Fe286 1.918 . S
O288 Fe287 1.918 . S
O288 Fe289 1.918 . S
Fe289 O288 1.918 . S
Fe289 O290 2.002 . S
Fe289 O299 1.976 . S
Fe289 O303 1.996 . S
Fe289 O306 1.997 . S
O290 Fe289 2.002 . S
O290 C307 1.295 . S
O291 Fe286 1.997 . S
O291 C307 1.235 . S
O292 Fe286 2.002 . S
O292 C293 1.295 . S
C293 O292 1.295 . S
C293 O295 1.234 1_565 S
C294 O299 1.287 . S
C294 O300 1.255 . S
O295 Fe287 1.993 1_545 S
O295 C293 1.234 1_545 S
C296 O302 1.287 . S
C296 O303 1.255 . S
O297 Fe286 1.976 . S
O297 C304 1.287 1_565 S
O298 Fe287 1.996 1_545 S
O298 C304 1.255 . S
O299 Fe289 1.976 . S
O299 C294 1.287 . S
O300 Fe286 1.996 . S
O300 C294 1.255 . S
C301 O305 1.295 . S
C301 O306 1.235 . S
O302 Fe287 1.976 . S
O302 C296 1.287 . S
O303 Fe289 1.996 . S
O303 C296 1.255 . S
C304 O297 1.287 1_545 S
C304 O298 1.255 . S
O305 Fe287 2.002 . S
O305 C301 1.295 . S
O306 Fe289 1.997 . S
O306 C301 1.235 . S
C307 O290 1.295 . S
C307 O291 1.235 . S
Fe308 O310 1.918 . S
Fe308 O313 1.997 . S
Fe308 O314 2.002 . S
Fe308 O319 1.976 . S
Fe308 O322 1.996 . S
Fe309 O310 1.918 . S
Fe309 O317 1.993 1_455 S
Fe309 O320 1.996 1_455 S
Fe309 O324 1.976 . S
Fe309 O327 2.002 . S
O310 Fe308 1.918 . S
O310 Fe309 1.918 . S
O310 Fe311 1.918 . S
Fe311 O310 1.918 . S
Fe311 O312 2.002 . S
Fe311 O321 1.976 . S
Fe311 O325 1.996 . S
Fe311 O328 1.997 . S
O312 Fe311 2.002 . S
O312 C329 1.295 . S
O313 Fe308 1.997 . S
O313 C329 1.235 . S
O314 Fe308 2.002 . S
O314 C315 1.295 . S
C315 O314 1.295 . S
C315 O317 1.234 1_455 S
C316 O321 1.287 . S
C316 O322 1.255 . S
O317 Fe309 1.993 1_655 S
O317 C315 1.234 1_655 S
C318 O324 1.287 . S
C318 O325 1.255 . S
O319 Fe308 1.976 . S
O319 C326 1.287 1_455 S
O320 Fe309 1.996 1_655 S
O320 C326 1.255 . S
O321 Fe311 1.976 . S
O321 C316 1.287 . S
O322 Fe308 1.996 . S
O322 C316 1.255 . S
C323 O327 1.295 . S
C323 O328 1.235 . S
O324 Fe309 1.976 . S
O324 C318 1.287 . S
O325 Fe311 1.996 . S
O325 C318 1.255 . S
C326 O319 1.287 1_655 S
C326 O320 1.255 . S
O327 Fe309 2.002 . S
O327 C323 1.295 . S
O328 Fe311 1.997 . S
O328 C323 1.235 . S
C329 O312 1.295 . S
C329 O313 1.235 . S
Fe330 O332 1.918 . S
Fe330 O335 1.993 1_545 S
Fe330 O336 2.002 . S
Fe330 O341 1.976 . S
Fe330 O344 1.996 1_545 S
Fe331 O332 1.918 . S
Fe331 O339 1.997 . S
Fe331 O342 1.996 . S
Fe331 O346 1.976 . S
Fe331 O349 2.002 . S
O332 Fe330 1.918 . S
O332 Fe331 1.918 . S
O332 Fe333 1.918 . S
Fe333 O332 1.918 . S
Fe333 O334 2.002 . S
Fe333 O343 1.976 . S
Fe333 O347 1.996 . S
Fe333 O350 1.997 . S
O334 Fe333 2.002 . S
O334 C351 1.295 . S
O335 Fe330 1.993 1_565 S
O335 C351 1.234 1_565 S
O336 Fe330 2.002 . S
O336 C337 1.295 . S
C337 O336 1.295 . S
C337 O339 1.235 . S
C338 O343 1.287 1_565 S
C338 O344 1.255 . S
O339 Fe331 1.997 . S
O339 C337 1.235 . S
C340 O346 1.287 . S
C340 O347 1.255 . S
O341 Fe330 1.976 . S
O341 C348 1.287 . S
O342 Fe331 1.996 . S
O342 C348 1.255 . S
O343 Fe333 1.976 . S
O343 C338 1.287 1_545 S
O344 Fe330 1.996 1_565 S
O344 C338 1.255 . S
C345 O349 1.295 . S
C345 O350 1.235 . S
O346 Fe331 1.976 . S
O346 C340 1.287 . S
O347 Fe333 1.996 . S
O347 C340 1.255 . S
C348 O341 1.287 . S
C348 O342 1.255 . S
O349 Fe331 2.002 . S
O349 C345 1.295 . S
O350 Fe333 1.997 . S
O350 C345 1.235 . S
C351 O334 1.295 . S
C351 O335 1.234 1_545 S
C352 C353 1.363 . S
C352 C358 1.379 . S
C352 N360 1.356 . S
C353 C352 1.363 . S
C353 C359 1.363 . S
C354 C355 1.363 . S
C354 C359 1.379 . S
C354 N361 1.356 . S
C355 C354 1.363 . S
C355 C358 1.363 . S
N356 C358 1.356 . S
N356 H368 0.984 . S
N356 H369 0.985 1_545 S
N357 C359 1.356 . S
N357 H362 0.984 . S
N357 H363 0.985 . S
C358 C352 1.379 . S
C358 C355 1.363 . S
C358 N356 1.356 . S
C359 C353 1.363 . S
C359 C354 1.379 . S
C359 N357 1.356 . S
N360 C352 1.356 . S
N360 H366 0.984 . S
N360 H367 0.984 . S
N361 C354 1.356 . S
N361 H364 0.984 . S
N361 H365 0.985 . S
H362 N357 0.984 . S
H363 N357 0.985 . S
H364 N361 0.984 . S
H365 N361 0.985 . S
H366 N360 0.984 . S
H367 N360 0.984 . S
H368 N356 0.984 . S
H369 N356 0.985 1_565 S
C370 C371 1.363 . S
C370 C376 1.379 . S
C370 N378 1.356 . S
C371 C370 1.363 . S
C371 C377 1.363 . S
C372 C373 1.363 . S
C372 C377 1.379 . S
C372 N379 1.356 . S
C373 C372 1.363 . S
C373 C376 1.363 . S
N374 C376 1.356 . S
N374 H386 0.984 . S
N374 H387 0.985 . S
N375 C377 1.356 . S
N375 H380 0.984 . S
N375 H381 0.985 . S
C376 C370 1.379 . S
C376 C373 1.363 . S
C376 N374 1.356 . S
C377 C371 1.363 . S
C377 C372 1.379 . S
C377 N375 1.356 . S
N378 C370 1.356 . S
N378 H384 0.984 . S
N378 H385 0.984 1_655 S
N379 C372 1.356 . S
N379 H382 0.984 . S
N379 H383 0.985 . S
H380 N375 0.984 . S
H381 N375 0.985 . S
H382 N379 0.984 . S
H383 N379 0.985 . S
H384 N378 0.984 . S
H385 N378 0.984 1_455 S
H386 N374 0.984 . S
H387 N374 0.985 . S
C388 C389 1.363 . S
C388 C394 1.379 . S
C388 N396 1.356 . S
C389 C388 1.363 . S
C389 C395 1.363 . S
C390 C391 1.363 . S
C390 C395 1.379 . S
C390 N397 1.356 . S
C391 C390 1.363 . S
C391 C394 1.363 . S
N392 C394 1.356 . S
N392 H404 0.984 . S
N392 H405 0.985 1_565 S
N393 C395 1.356 . S
N393 H398 0.984 . S
N393 H399 0.985 . S
C394 C388 1.379 . S
C394 C391 1.363 . S
C394 N392 1.356 . S
C395 C389 1.363 . S
C395 C390 1.379 . S
C395 N393 1.356 . S
N396 C388 1.356 . S
N396 H402 0.984 . S
N396 H403 0.984 . S
N397 C390 1.356 . S
N397 H400 0.984 . S
N397 H401 0.985 . S
H398 N393 0.984 . S
H399 N393 0.985 . S
H400 N397 0.984 . S
H401 N397 0.985 . S
H402 N396 0.984 . S
H403 N396 0.984 . S
H404 N392 0.984 . S
H405 N392 0.985 1_545 S
C406 C407 1.363 . S
C406 C412 1.379 . S
C406 N414 1.356 . S
C407 C406 1.363 . S
C407 C413 1.363 . S
C408 C409 1.363 . S
C408 C413 1.379 . S
C408 N415 1.356 . S
C409 C408 1.363 . S
C409 C412 1.363 . S
N410 C412 1.356 . S
N410 H422 0.984 . S
N410 H423 0.985 . S
N411 C413 1.356 . S
N411 H416 0.984 . S
N411 H417 0.985 . S
C412 C406 1.379 . S
C412 C409 1.363 . S
C412 N410 1.356 . S
C413 C407 1.363 . S
C413 C408 1.379 . S
C413 N411 1.356 . S
N414 C406 1.356 . S
N414 H420 0.984 . S
N414 H421 0.984 . S
N415 C408 1.356 . S
N415 H418 0.984 . S
N415 H419 0.985 . S
H416 N411 0.984 . S
H417 N411 0.985 . S
H418 N415 0.984 . S
H419 N415 0.985 . S
H420 N414 0.984 . S
H421 N414 0.984 . S
H422 N410 0.984 . S
H423 N410 0.985 . S
C424 C425 1.363 . S
C424 C430 1.379 . S
C424 N432 1.356 . S
C425 C424 1.363 . S
C425 C431 1.363 . S
C426 C427 1.363 . S
C426 C431 1.379 . S
C426 N433 1.356 . S
C427 C426 1.363 . S
C427 C430 1.363 . S
N428 C430 1.356 . S
N428 H440 0.984 . S
N428 H441 0.985 . S
N429 C431 1.356 . S
N429 H434 0.984 1_565 S
N429 H435 0.985 . S
C430 C424 1.379 . S
C430 C427 1.363 . S
C430 N428 1.356 . S
C431 C425 1.363 . S
C431 C426 1.379 . S
C431 N429 1.356 . S
N432 C424 1.356 . S
N432 H438 0.984 . S
N432 H439 0.984 . S
N433 C426 1.356 . S
N433 H436 0.984 . S
N433 H437 0.985 . S
H434 N429 0.984 1_545 S
H435 N429 0.985 . S
H436 N433 0.984 . S
H437 N433 0.985 . S
H438 N432 0.984 . S
H439 N432 0.984 . S
H440 N428 0.984 . S
H441 N428 0.985 . S
C442 C443 1.363 . S
C442 C448 1.379 . S
C442 N450 1.356 . S
C443 C442 1.363 . S
C443 C449 1.363 . S
C444 C445 1.363 . S
C444 C449 1.379 . S
C444 N451 1.356 . S
C445 C444 1.363 . S
C445 C448 1.363 . S
N446 C448 1.356 . S
N446 H458 0.984 . S
N446 H459 0.985 . S
N447 C449 1.356 . S
N447 H452 0.984 . S
N447 H453 0.985 . S
C448 C442 1.379 . S
C448 C445 1.363 . S
C448 N446 1.356 . S
C449 C443 1.363 . S
C449 C444 1.379 . S
C449 N447 1.356 . S
N450 C442 1.356 . S
N450 H456 0.984 . S
N450 H457 0.984 . S
N451 C444 1.356 . S
N451 H454 0.984 . S
N451 H455 0.985 . S
H452 N447 0.984 . S
H453 N447 0.985 . S
H454 N451 0.984 . S
H455 N451 0.985 . S
H456 N450 0.984 . S
H457 N450 0.984 . S
H458 N446 0.984 . S
H459 N446 0.985 . S
C460 C461 1.363 . S
C460 C466 1.379 . S
C460 N468 1.356 . S
C461 C460 1.363 . S
C461 C467 1.363 . S
C462 C463 1.363 . S
C462 C467 1.379 . S
C462 N469 1.356 . S
C463 C462 1.363 . S
C463 C466 1.363 . S
N464 C466 1.356 . S
N464 H476 0.984 . S
N464 H477 0.985 . S
N465 C467 1.356 . S
N465 H470 0.984 . S
N465 H471 0.985 . S
C466 C460 1.379 . S
C466 C463 1.363 . S
C466 N464 1.356 . S
C467 C461 1.363 . S
C467 C462 1.379 . S
C467 N465 1.356 . S
N468 C460 1.356 . S
N468 H474 0.984 . S
N468 H475 0.984 . S
N469 C462 1.356 . S
N469 H472 0.984 . S
N469 H473 0.985 . S
H470 N465 0.984 . S
H471 N465 0.985 . S
H472 N469 0.984 . S
H473 N469 0.985 . S
H474 N468 0.984 . S
H475 N468 0.984 . S
H476 N464 0.984 . S
H477 N464 0.985 . S
C478 C479 1.363 . S
C478 C484 1.379 . S
C478 N486 1.356 . S
C479 C478 1.363 . S
C479 C485 1.363 . S
C480 C481 1.363 . S
C480 C485 1.379 . S
C480 N487 1.356 . S
C481 C480 1.363 . S
C481 C484 1.363 . S
N482 C484 1.356 . S
N482 H494 0.984 . S
N482 H495 0.985 . S
N483 C485 1.356 . S
N483 H488 0.984 1_655 S
N483 H489 0.985 . S
C484 C478 1.379 . S
C484 C481 1.363 . S
C484 N482 1.356 . S
C485 C479 1.363 . S
C485 C480 1.379 . S
C485 N483 1.356 . S
N486 C478 1.356 . S
N486 H492 0.984 . S
N486 H493 0.984 . S
N487 C480 1.356 . S
N487 H490 0.984 . S
N487 H491 0.985 . S
H488 N483 0.984 1_455 S
H489 N483 0.985 . S
H490 N487 0.984 . S
H491 N487 0.985 . S
H492 N486 0.984 . S
H493 N486 0.984 . S
H494 N482 0.984 . S
H495 N482 0.985 . S
C496 C497 1.363 . S
C496 C502 1.379 . S
C496 N504 1.356 . S
C497 C496 1.363 . S
C497 C503 1.363 . S
C498 C499 1.363 . S
C498 C503 1.379 . S
C498 N505 1.356 . S
C499 C498 1.363 . S
C499 C502 1.363 . S
N500 C502 1.356 . S
N500 H512 0.984 . S
N500 H513 0.985 . S
N501 C503 1.356 . S
N501 H506 0.984 . S
N501 H507 0.985 . S
C502 C496 1.379 . S
C502 C499 1.363 . S
C502 N500 1.356 . S
C503 C497 1.363 . S
C503 C498 1.379 . S
C503 N501 1.356 . S
N504 C496 1.356 . S
N504 H510 0.984 . S
N504 H511 0.984 . S
N505 C498 1.356 . S
N505 H508 0.984 . S
N505 H509 0.985 . S
H506 N501 0.984 . S
H507 N501 0.985 . S
H508 N505 0.984 . S
H509 N505 0.985 . S
H510 N504 0.984 . S
H511 N504 0.984 . S
H512 N500 0.984 . S
H513 N500 0.985 . S
C514 C515 1.363 . S
C514 C520 1.379 . S
C514 N522 1.356 . S
C515 C514 1.363 . S
C515 C521 1.363 . S
C516 C517 1.363 . S
C516 C521 1.379 . S
C516 N523 1.356 . S
C517 C516 1.363 . S
C517 C520 1.363 . S
N518 C520 1.356 . S
N518 H530 0.984 . S
N518 H531 0.985 . S
N519 C521 1.356 . S
N519 H524 0.981 1_455 S
N519 H525 0.985 . S
C520 C514 1.379 . S
C520 C517 1.363 . S
C520 N518 1.356 . S
C521 C515 1.363 . S
C521 C516 1.379 . S
C521 N519 1.356 . S
N522 C514 1.356 . S
N522 H528 0.984 . S
N522 H529 0.984 . S
N523 C516 1.356 . S
N523 H526 0.984 . S
N523 H527 0.985 . S
H524 N519 0.981 1_655 S
H525 N519 0.985 . S
H526 N523 0.984 . S
H527 N523 0.985 . S
H528 N522 0.984 . S
H529 N522 0.984 . S
H530 N518 0.984 . S
H531 N518 0.985 . S
C532 C533 1.363 . S
C532 C538 1.379 . S
C532 N540 1.356 . S
C533 C532 1.363 . S
C533 C539 1.363 . S
C534 C535 1.363 . S
C534 C539 1.379 . S
C534 N541 1.356 . S
C535 C534 1.363 . S
C535 C538 1.363 . S
N536 C538 1.356 . S
N536 H548 0.984 . S
N536 H549 0.985 . S
N537 C539 1.356 . S
N537 H542 0.984 1_545 S
N537 H543 0.985 . S
C538 C532 1.379 . S
C538 C535 1.363 . S
C538 N536 1.356 . S
C539 C533 1.363 . S
C539 C534 1.379 . S
C539 N537 1.356 . S
N540 C532 1.356 . S
N540 H546 0.984 . S
N540 H547 0.984 . S
N541 C534 1.356 . S
N541 H544 0.984 . S
N541 H545 0.985 . S
H542 N537 0.984 1_565 S
H543 N537 0.985 . S
H544 N541 0.984 . S
H545 N541 0.985 . S
H546 N540 0.984 . S
H547 N540 0.984 . S
H548 N536 0.984 . S
H549 N536 0.985 . S
C550 C551 1.363 . S
C550 C556 1.379 . S
C550 N558 1.356 . S
C551 C550 1.363 . S
C551 C557 1.363 . S
C552 C553 1.363 . S
C552 C557 1.379 . S
C552 N559 1.356 . S
C553 C552 1.363 . S
C553 C556 1.363 . S
N554 C556 1.356 . S
N554 H566 0.984 . S
N554 H567 0.985 . S
N555 C557 1.356 . S
N555 H560 0.984 1_655 S
N555 H561 0.985 . S
C556 C550 1.379 . S
C556 C553 1.363 . S
C556 N554 1.356 . S
C557 C551 1.363 . S
C557 C552 1.379 . S
C557 N555 1.356 . S
N558 C550 1.356 . S
N558 H564 0.984 . S
N558 H565 0.984 . S
N559 C552 1.356 . S
N559 H562 0.984 . S
N559 H563 0.985 . S
H560 N555 0.984 1_455 S
H561 N555 0.985 . S
H562 N559 0.984 . S
H563 N559 0.985 . S
H564 N558 0.984 . S
H565 N558 0.984 . S
H566 N554 0.984 . S
H567 N554 0.985 . S
C568 C569 1.363 . S
C568 C574 1.379 . S
C568 N576 1.356 . S
C569 C568 1.363 . S
C569 C575 1.363 . S
C570 C571 1.363 . S
C570 C575 1.379 . S
C570 N577 1.356 . S
C571 C570 1.363 . S
C571 C574 1.363 . S
N572 C574 1.356 . S
N572 H584 0.984 . S
N572 H585 0.985 . S
N573 C575 1.356 . S
N573 H578 0.984 . S
N573 H579 0.985 . S
C574 C568 1.379 . S
C574 C571 1.363 . S
C574 N572 1.356 . S
C575 C569 1.363 . S
C575 C570 1.379 . S
C575 N573 1.356 . S
N576 C568 1.356 . S
N576 H582 0.984 . S
N576 H583 0.984 1_545 S
N577 C570 1.356 . S
N577 H580 0.984 . S
N577 H581 0.985 . S
H578 N573 0.984 . S
H579 N573 0.985 . S
H580 N577 0.984 . S
H581 N577 0.985 . S
H582 N576 0.984 . S
H583 N576 0.984 1_565 S
H584 N572 0.984 . S
H585 N572 0.985 . S
C586 C587 1.363 . S
C586 C592 1.379 . S
C586 N594 1.356 . S
C587 C586 1.363 . S
C587 C593 1.363 . S
C588 C589 1.363 . S
C588 C593 1.379 . S
C588 N595 1.356 . S
C589 C588 1.363 . S
C589 C592 1.363 . S
N590 C592 1.356 . S
N590 H602 0.984 . S
N590 H603 0.985 . S
N591 C593 1.356 . S
N591 H596 0.984 . S
N591 H597 0.985 . S
C592 C586 1.379 . S
C592 C589 1.363 . S
C592 N590 1.356 . S
C593 C587 1.363 . S
C593 C588 1.379 . S
C593 N591 1.356 . S
N594 C586 1.356 . S
N594 H600 0.984 . S
N594 H601 0.984 1_655 S
N595 C588 1.356 . S
N595 H598 0.984 . S
N595 H599 0.985 . S
H596 N591 0.984 . S
H597 N591 0.985 . S
H598 N595 0.984 . S
H599 N595 0.985 . S
H600 N594 0.984 . S
H601 N594 0.984 1_455 S
H602 N590 0.984 . S
H603 N590 0.985 . S
C604 C605 1.363 . S
C604 C610 1.379 . S
C604 N612 1.356 . S
C605 C604 1.363 . S
C605 C611 1.363 . S
C606 C607 1.363 . S
C606 C611 1.379 . S
C606 N613 1.356 . S
C607 C606 1.363 . S
C607 C610 1.363 . S
N608 C610 1.356 . S
N608 H620 0.984 . S
N608 H621 0.985 . S
N609 C611 1.356 . S
N609 H614 0.984 . S
N609 H615 0.985 . S
C610 C604 1.379 . S
C610 C607 1.363 . S
C610 N608 1.356 . S
C611 C605 1.363 . S
C611 C606 1.379 . S
C611 N609 1.356 . S
N612 C604 1.356 . S
N612 H618 0.984 . S
N612 H619 0.984 . S
N613 C606 1.356 . S
N613 H616 0.984 . S
N613 H617 0.985 . S
H614 N609 0.984 . S
H615 N609 0.985 . S
H616 N613 0.984 . S
H617 N613 0.985 . S
H618 N612 0.984 . S
H619 N612 0.984 . S
H620 N608 0.984 . S
H621 N608 0.985 . S
C622 C623 1.363 . S
C622 C628 1.379 . S
C622 N630 1.356 . S
C623 C622 1.363 . S
C623 C629 1.363 . S
C624 C625 1.363 . S
C624 C629 1.379 . S
C624 N631 1.356 . S
C625 C624 1.363 . S
C625 C628 1.363 . S
N626 C628 1.356 . S
N626 H638 0.984 . S
N626 H639 0.985 . S
N627 C629 1.356 . S
N627 H632 0.984 . S
N627 H633 0.985 . S
C628 C622 1.379 . S
C628 C625 1.363 . S
C628 N626 1.356 . S
C629 C623 1.363 . S
C629 C624 1.379 . S
C629 N627 1.356 . S
N630 C622 1.356 . S
N630 H636 0.984 . S
N630 H637 0.984 . S
N631 C624 1.356 . S
N631 H634 0.984 1_455 S
N631 H635 0.985 . S
H632 N627 0.984 . S
H633 N627 0.985 . S
H634 N631 0.984 1_655 S
H635 N631 0.985 . S
H636 N630 0.984 . S
H637 N630 0.984 . S
H638 N626 0.984 . S
H639 N626 0.985 . S
C640 C641 1.363 . S
C640 C646 1.379 . S
C640 N648 1.356 . S
C641 C640 1.363 . S
C641 C647 1.363 . S
C642 C643 1.363 . S
C642 C647 1.379 . S
C642 N649 1.356 . S
C643 C642 1.363 . S
C643 C646 1.363 . S
N644 C646 1.356 . S
N644 H656 0.984 . S
N644 H657 0.985 . S
N645 C647 1.356 . S
N645 H650 0.984 . S
N645 H651 0.985 . S
C646 C640 1.379 . S
C646 C643 1.363 . S
C646 N644 1.356 . S
C647 C641 1.363 . S
C647 C642 1.379 . S
C647 N645 1.356 . S
N648 C640 1.356 . S
N648 H654 0.984 . S
N648 H655 0.984 . S
N649 C642 1.356 . S
N649 H652 0.984 . S
N649 H653 0.985 . S
H650 N645 0.984 . S
H651 N645 0.985 . S
H652 N649 0.984 . S
H653 N649 0.985 . S
H654 N648 0.984 . S
H655 N648 0.984 . S
H656 N644 0.984 . S
H657 N644 0.985 . S
C658 C659 1.363 . S
C658 C664 1.379 . S
C658 N666 1.356 . S
C659 C658 1.363 . S
C659 C665 1.363 . S
C660 C661 1.363 . S
C660 C665 1.379 . S
C660 N667 1.356 . S
C661 C660 1.363 . S
C661 C664 1.363 . S
N662 C664 1.356 . S
N662 H674 0.984 . S
N662 H675 0.985 . S
N663 C665 1.356 . S
N663 H668 0.984 . S
N663 H669 0.985 . S
C664 C658 1.379 . S
C664 C661 1.363 . S
C664 N662 1.356 . S
C665 C659 1.363 . S
C665 C660 1.379 . S
C665 N663 1.356 . S
N666 C658 1.356 . S
N666 H672 0.984 . S
N666 H673 0.984 . S
N667 C660 1.356 . S
N667 H670 0.984 . S
N667 H671 0.985 . S
H668 N663 0.984 . S
H669 N663 0.985 . S
H670 N667 0.984 . S
H671 N667 0.985 . S
H672 N666 0.984 . S
H673 N666 0.984 . S
H674 N662 0.984 . S
H675 N662 0.985 . S
C676 C677 1.363 . S
C676 C682 1.379 . S
C676 N684 1.356 . S
C677 C676 1.363 . S
C677 C683 1.363 . S
C678 C679 1.363 . S
C678 C683 1.379 . S
C678 N685 1.356 . S
C679 C678 1.363 . S
C679 C682 1.363 . S
N680 C682 1.356 . S
N680 H692 0.984 . S
N680 H693 0.985 . S
N681 C683 1.356 . S
N681 H686 0.984 . S
N681 H687 0.985 . S
C682 C676 1.379 . S
C682 C679 1.363 . S
C682 N680 1.356 . S
C683 C677 1.363 . S
C683 C678 1.379 . S
C683 N681 1.356 . S
N684 C676 1.356 . S
N684 H690 0.984 . S
N684 H691 0.984 . S
N685 C678 1.356 . S
N685 H688 0.984 . S
N685 H689 0.985 . S
H686 N681 0.984 . S
H687 N681 0.985 . S
H688 N685 0.984 . S
H689 N685 0.985 . S
H690 N684 0.984 . S
H691 N684 0.984 . S
H692 N680 0.984 . S
H693 N680 0.985 . S
C694 C695 1.363 . S
C694 C700 1.379 . S
C694 N702 1.356 . S
C695 C694 1.363 . S
C695 C701 1.363 . S
C696 C697 1.363 . S
C696 C701 1.379 . S
C696 N703 1.356 . S
C697 C696 1.363 . S
C697 C700 1.363 . S
N698 C700 1.356 . S
N698 H710 0.984 . S
N698 H711 0.985 . S
N699 C701 1.356 . S
N699 H704 0.984 . S
N699 H705 0.985 . S
C700 C694 1.379 . S
C700 C697 1.363 . S
C700 N698 1.356 . S
C701 C695 1.363 . S
C701 C696 1.379 . S
C701 N699 1.356 . S
N702 C694 1.356 . S
N702 H708 0.984 . S
N702 H709 0.984 . S
N703 C696 1.356 . S
N703 H706 0.984 . S
N703 H707 0.985 . S
H704 N699 0.984 . S
H705 N699 0.985 . S
H706 N703 0.984 . S
H707 N703 0.985 . S
H708 N702 0.984 . S
H709 N702 0.984 . S
H710 N698 0.984 . S
H711 N698 0.985 . S
C712 C713 1.363 . S
C712 C718 1.379 . S
C712 N720 1.356 . S
C713 C712 1.363 . S
C713 C719 1.363 . S
C714 C715 1.363 . S
C714 C719 1.379 . S
C714 N721 1.356 . S
C715 C714 1.363 . S
C715 C718 1.363 . S
N716 C718 1.356 . S
N716 H728 0.984 . S
N716 H729 0.985 . S
N717 C719 1.356 . S
N717 H722 0.984 . S
N717 H723 0.985 . S
C718 C712 1.379 . S
C718 C715 1.363 . S
C718 N716 1.356 . S
C719 C713 1.363 . S
C719 C714 1.379 . S
C719 N717 1.356 . S
N720 C712 1.356 . S
N720 H726 0.984 . S
N720 H727 0.984 . S
N721 C714 1.356 . S
N721 H724 0.984 . S
N721 H725 0.985 . S
H722 N717 0.984 . S
H723 N717 0.985 . S
H724 N721 0.984 . S
H725 N721 0.985 . S
H726 N720 0.984 . S
H727 N720 0.984 . S
H728 N716 0.984 . S
H729 N716 0.985 . S
C730 C731 1.363 . S
C730 C736 1.379 . S
C730 N738 1.356 . S
C731 C730 1.363 . S
C731 C737 1.363 . S
C732 C733 1.363 . S
C732 C737 1.379 . S
C732 N739 1.356 . S
C733 C732 1.363 . S
C733 C736 1.363 . S
N734 C736 1.356 . S
N734 H746 0.984 . S
N734 H747 0.985 . S
N735 C737 1.356 . S
N735 H740 0.984 . S
N735 H741 0.985 . S
C736 C730 1.379 . S
C736 C733 1.363 . S
C736 N734 1.356 . S
C737 C731 1.363 . S
C737 C732 1.379 . S
C737 N735 1.356 . S
N738 C730 1.356 . S
N738 H744 0.984 . S
N738 H745 0.984 . S
N739 C732 1.356 . S
N739 H742 0.984 . S
N739 H743 0.985 . S
H740 N735 0.984 . S
H741 N735 0.985 . S
H742 N739 0.984 . S
H743 N739 0.985 . S
H744 N738 0.984 . S
H745 N738 0.984 . S
H746 N734 0.984 . S
H747 N734 0.985 . S
C748 C749 1.363 . S
C748 C754 1.379 . S
C748 N756 1.356 . S
C749 C748 1.363 . S
C749 C755 1.363 . S
C750 C751 1.363 . S
C750 C755 1.379 . S
C750 N757 1.356 . S
C751 C750 1.363 . S
C751 C754 1.363 . S
N752 C754 1.356 . S
N752 H764 0.984 . S
N752 H765 0.985 . S
N753 C755 1.356 . S
N753 H758 0.984 . S
N753 H759 0.985 . S
C754 C748 1.379 . S
C754 C751 1.363 . S
C754 N752 1.356 . S
C755 C749 1.363 . S
C755 C750 1.379 . S
C755 N753 1.356 . S
N756 C748 1.356 . S
N756 H762 0.984 . S
N756 H763 0.984 . S
N757 C750 1.356 . S
N757 H760 0.984 . S
N757 H761 0.985 . S
H758 N753 0.984 . S
H759 N753 0.985 . S
H760 N757 0.984 . S
H761 N757 0.985 . S
H762 N756 0.984 . S
H763 N756 0.984 . S
H764 N752 0.984 . S
H765 N752 0.985 . S
C766 C767 1.363 . S
C766 C772 1.379 . S
C766 N774 1.356 . S
C767 C766 1.363 . S
C767 C773 1.363 . S
C768 C769 1.363 . S
C768 C773 1.379 . S
C768 N775 1.356 . S
C769 C768 1.363 . S
C769 C772 1.363 . S
N770 C772 1.356 . S
N770 H782 0.984 . S
N770 H783 0.985 . S
N771 C773 1.356 . S
N771 H776 0.984 . S
N771 H777 0.985 . S
C772 C766 1.379 . S
C772 C769 1.363 . S
C772 N770 1.356 . S
C773 C767 1.363 . S
C773 C768 1.379 . S
C773 N771 1.356 . S
N774 C766 1.356 . S
N774 H780 0.984 . S
N774 H781 0.984 . S
N775 C768 1.356 . S
N775 H778 0.984 . S
N775 H779 0.985 . S
H776 N771 0.984 . S
H777 N771 0.985 . S
H778 N775 0.984 . S
H779 N775 0.985 . S
H780 N774 0.984 . S
H781 N774 0.984 . S
H782 N770 0.984 . S
H783 N770 0.985 . S
C784 C785 1.363 . S
C784 C790 1.379 1_554 S
C784 N792 1.356 . S
C785 C784 1.363 . S
C785 C791 1.363 . S
C786 C787 1.363 . S
C786 C791 1.379 1_556 S
C786 N793 1.356 . S
C787 C786 1.363 . S
C787 C790 1.363 . S
N788 C790 1.356 . S
N788 H800 0.984 . S
N788 H801 0.985 . S
N789 C791 1.356 . S
N789 H794 0.984 . S
N789 H795 0.985 . S
C790 C784 1.379 1_556 S
C790 C787 1.363 . S
C790 N788 1.356 . S
C791 C785 1.363 . S
C791 C786 1.379 1_554 S
C791 N789 1.356 . S
N792 C784 1.356 . S
N792 H798 0.984 . S
N792 H799 0.984 . S
N793 C786 1.356 . S
N793 H796 0.984 . S
N793 H797 0.985 . S
H794 N789 0.984 . S
H795 N789 0.985 . S
H796 N793 0.984 . S
H797 N793 0.985 . S
H798 N792 0.984 . S
H799 N792 0.984 . S
H800 N788 0.984 . S
H801 N788 0.985 . S
C802 C803 1.363 . S
C802 C808 1.379 1_554 S
C802 N810 1.356 . S
C803 C802 1.363 . S
C803 C809 1.363 . S
C804 C805 1.363 . S
C804 C809 1.379 1_556 S
C804 N811 1.356 . S
C805 C804 1.363 . S
C805 C808 1.363 . S
N806 C808 1.356 . S
N806 H818 0.984 . S
N806 H819 0.985 . S
N807 C809 1.356 . S
N807 H812 0.984 . S
N807 H813 0.985 1_545 S
C808 C802 1.379 1_556 S
C808 C805 1.363 . S
C808 N806 1.356 . S
C809 C803 1.363 . S
C809 C804 1.379 1_554 S
C809 N807 1.356 . S
N810 C802 1.356 . S
N810 H816 0.984 . S
N810 H817 0.984 . S
N811 C804 1.356 . S
N811 H814 0.984 . S
N811 H815 0.985 1_545 S
H812 N807 0.984 . S
H813 N807 0.985 1_565 S
H814 N811 0.984 . S
H815 N811 0.985 1_565 S
H816 N810 0.984 . S
H817 N810 0.984 . S
H818 N806 0.984 . S
H819 N806 0.985 . S
C820 C821 1.363 . S
C820 C826 1.379 1_556 S
C820 N828 1.356 . S
C821 C820 1.363 . S
C821 C827 1.363 . S
C822 C823 1.363 . S
C822 C827 1.379 1_554 S
C822 N829 1.356 . S
C823 C822 1.363 . S
C823 C826 1.363 . S
N824 C826 1.356 . S
N824 H836 0.984 . S
N824 H837 0.985 . S
N825 C827 1.356 . S
N825 H830 0.984 . S
N825 H831 0.985 . S
C826 C820 1.379 1_554 S
C826 C823 1.363 . S
C826 N824 1.356 . S
C827 C821 1.363 . S
C827 C822 1.379 1_556 S
C827 N825 1.356 . S
N828 C820 1.356 . S
N828 H834 0.984 . S
N828 H835 0.984 . S
N829 C822 1.356 . S
N829 H832 0.984 . S
N829 H833 0.985 . S
H830 N825 0.984 . S
H831 N825 0.985 . S
H832 N829 0.984 . S
H833 N829 0.985 . S
H834 N828 0.984 . S
H835 N828 0.984 . S
H836 N824 0.984 . S
H837 N824 0.985 . S
C838 C839 1.363 . S
C838 C844 1.379 1_554 S
C838 N846 1.356 . S
C839 C838 1.363 . S
C839 C845 1.363 . S
C840 C841 1.363 . S
C840 C845 1.379 1_556 S
C840 N847 1.356 . S
C841 C840 1.363 . S
C841 C844 1.363 . S
N842 C844 1.356 . S
N842 H854 0.984 1_565 S
N842 H855 0.985 . S
N843 C845 1.356 . S
N843 H848 0.984 . S
N843 H849 0.985 . S
C844 C838 1.379 1_556 S
C844 C841 1.363 . S
C844 N842 1.356 . S
C845 C839 1.363 . S
C845 C840 1.379 1_554 S
C845 N843 1.356 . S
N846 C838 1.356 . S
N846 H852 0.984 1_565 S
N846 H853 0.984 . S
N847 C840 1.356 . S
N847 H850 0.984 . S
N847 H851 0.985 . S
H848 N843 0.984 . S
H849 N843 0.985 . S
H850 N847 0.984 . S
H851 N847 0.985 . S
H852 N846 0.984 1_545 S
H853 N846 0.984 . S
H854 N842 0.984 1_545 S
H855 N842 0.985 . S
C856 C857 1.363 . S
C856 C862 1.379 . S
C856 N864 1.356 . S
C857 C856 1.363 . S
C857 C863 1.363 . S
C858 C859 1.363 . S
C858 C863 1.379 . S
C858 N865 1.356 . S
C859 C858 1.363 . S
C859 C862 1.363 . S
N860 C862 1.356 . S
N860 H872 0.984 . S
N860 H873 0.985 . S
N861 C863 1.356 . S
N861 H866 0.984 . S
N861 H867 0.985 . S
C862 C856 1.379 . S
C862 C859 1.363 . S
C862 N860 1.356 . S
C863 C857 1.363 . S
C863 C858 1.379 . S
C863 N861 1.356 . S
N864 C856 1.356 . S
N864 H870 0.984 . S
N864 H871 0.984 . S
N865 C858 1.356 . S
N865 H868 0.984 . S
N865 H869 0.985 . S
H866 N861 0.984 . S
H867 N861 0.985 . S
H868 N865 0.984 . S
H869 N865 0.985 . S
H870 N864 0.984 . S
H871 N864 0.984 . S
H872 N860 0.984 . S
H873 N860 0.985 . S
C874 C875 1.363 . S
C874 C880 1.379 . S
C874 N882 1.356 . S
C875 C874 1.363 . S
C875 C881 1.363 . S
C876 C877 1.363 . S
C876 C881 1.379 . S
C876 N883 1.356 . S
C877 C876 1.363 . S
C877 C880 1.363 . S
N878 C880 1.356 . S
N878 H890 0.984 1_545 S
N878 H891 0.985 . S
N879 C881 1.356 . S
N879 H884 0.984 . S
N879 H885 0.985 . S
C880 C874 1.379 . S
C880 C877 1.363 . S
C880 N878 1.356 . S
C881 C875 1.363 . S
C881 C876 1.379 . S
C881 N879 1.356 . S
N882 C874 1.356 . S
N882 H888 0.984 1_545 S
N882 H889 0.984 . S
N883 C876 1.356 . S
N883 H886 0.984 . S
N883 H887 0.985 . S
H884 N879 0.984 . S
H885 N879 0.985 . S
H886 N883 0.984 . S
H887 N883 0.985 . S
H888 N882 0.984 1_565 S
H889 N882 0.984 . S
H890 N878 0.984 1_565 S
H891 N878 0.985 . S
C892 C893 1.363 . S
C892 C898 1.379 . S
C892 N900 1.356 . S
C893 C892 1.363 . S
C893 C899 1.363 . S
C894 C895 1.363 . S
C894 C899 1.379 . S
C894 N901 1.356 . S
C895 C894 1.363 . S
C895 C898 1.363 . S
N896 C898 1.356 . S
N896 H908 0.984 . S
N896 H909 0.985 . S
N897 C899 1.356 . S
N897 H902 0.984 . S
N897 H903 0.985 . S
C898 C892 1.379 . S
C898 C895 1.363 . S
C898 N896 1.356 . S
C899 C893 1.363 . S
C899 C894 1.379 . S
C899 N897 1.356 . S
N900 C892 1.356 . S
N900 H906 0.984 . S
N900 H907 0.984 . S
N901 C894 1.356 . S
N901 H904 0.984 . S
N901 H905 0.985 . S
H902 N897 0.984 . S
H903 N897 0.985 . S
H904 N901 0.984 . S
H905 N901 0.985 . S
H906 N900 0.984 . S
H907 N900 0.984 . S
H908 N896 0.984 . S
H909 N896 0.985 . S
C910 C911 1.363 . S
C910 C916 1.379 . S
C910 N918 1.356 . S
C911 C910 1.363 . S
C911 C917 1.363 . S
C912 C913 1.363 . S
C912 C917 1.379 . S
C912 N919 1.356 . S
C913 C912 1.363 . S
C913 C916 1.363 . S
N914 C916 1.356 . S
N914 H926 0.984 . S
N914 H927 0.985 . S
N915 C917 1.356 . S
N915 H920 0.984 . S
N915 H921 0.985 1_565 S
C916 C910 1.379 . S
C916 C913 1.363 . S
C916 N914 1.356 . S
C917 C911 1.363 . S
C917 C912 1.379 . S
C917 N915 1.356 . S
N918 C910 1.356 . S
N918 H924 0.984 . S
N918 H925 0.984 . S
N919 C912 1.356 . S
N919 H922 0.984 . S
N919 H923 0.985 1_565 S
H920 N915 0.984 . S
H921 N915 0.985 1_545 S
H922 N919 0.984 . S
H923 N919 0.985 1_545 S
H924 N918 0.984 . S
H925 N918 0.984 . S
H926 N914 0.984 . S
H927 N914 0.985 . S
C928 C929 1.363 1_455 S
C928 C934 1.379 . S
C928 N936 1.356 . S
C929 C928 1.363 1_655 S
C929 C935 1.363 . S
C930 C931 1.363 1_655 S
C930 C935 1.379 . S
C930 N937 1.356 . S
C931 C930 1.363 1_455 S
C931 C934 1.363 . S
N932 C934 1.356 . S
N932 H944 0.984 . S
N932 H945 0.985 . S
N933 C935 1.356 . S
N933 H938 0.984 . S
N933 H939 0.985 . S
C934 C928 1.379 . S
C934 C931 1.363 . S
C934 N932 1.356 . S
C935 C929 1.363 . S
C935 C930 1.379 . S
C935 N933 1.356 . S
N936 C928 1.356 . S
N936 H942 0.984 . S
N936 H943 0.984 . S
N937 C930 1.356 . S
N937 H940 0.984 . S
N937 H941 0.985 . S
H938 N933 0.984 . S
H939 N933 0.985 . S
H940 N937 0.984 . S
H941 N937 0.985 . S
H942 N936 0.984 . S
H943 N936 0.984 . S
H944 N932 0.984 . S
H945 N932 0.985 . S
C946 C947 1.363 . S
C946 C952 1.379 . S
C946 N954 1.356 . S
C947 C946 1.363 . S
C947 C953 1.363 1_545 S
C948 C949 1.363 . S
C948 C953 1.379 . S
C948 N955 1.356 . S
C949 C948 1.363 . S
C949 C952 1.363 1_565 S
N950 C952 1.356 . S
N950 H962 0.984 . S
N950 H963 0.985 . S
N951 C953 1.356 . S
N951 H956 0.984 . S
N951 H957 0.985 . S
C952 C946 1.379 . S
C952 C949 1.363 1_545 S
C952 N950 1.356 . S
C953 C947 1.363 1_565 S
C953 C948 1.379 . S
C953 N951 1.356 . S
N954 C946 1.356 . S
N954 H960 0.984 . S
N954 H961 0.984 . S
N955 C948 1.356 . S
N955 H958 0.984 . S
N955 H959 0.985 . S
H956 N951 0.984 . S
H957 N951 0.985 . S
H958 N955 0.984 . S
H959 N955 0.985 . S
H960 N954 0.984 . S
H961 N954 0.984 . S
H962 N950 0.984 . S
H963 N950 0.985 . S
C964 C965 1.363 . S
C964 C970 1.379 . S
C964 N972 1.356 . S
C965 C964 1.363 . S
C965 C971 1.363 1_655 S
C966 C967 1.363 . S
C966 C971 1.379 . S
C966 N973 1.356 . S
C967 C966 1.363 . S
C967 C970 1.363 1_455 S
N968 C970 1.356 . S
N968 H980 0.984 . S
N968 H981 0.985 . S
N969 C971 1.356 . S
N969 H974 0.984 . S
N969 H975 0.985 . S
C970 C964 1.379 . S
C970 C967 1.363 1_655 S
C970 N968 1.356 . S
C971 C965 1.363 1_455 S
C971 C966 1.379 . S
C971 N969 1.356 . S
N972 C964 1.356 . S
N972 H978 0.984 . S
N972 H979 0.984 . S
N973 C966 1.356 . S
N973 H976 0.984 . S
N973 H977 0.985 . S
H974 N969 0.984 . S
H975 N969 0.985 . S
H976 N973 0.984 . S
H977 N973 0.985 . S
H978 N972 0.984 . S
H979 N972 0.984 . S
H980 N968 0.984 . S
H981 N968 0.985 . S
C982 C983 1.363 1_545 S
C982 C988 1.379 . S
C982 N990 1.356 . S
C983 C982 1.363 1_565 S
C983 C989 1.363 . S
C984 C985 1.363 1_565 S
C984 C989 1.379 . S
C984 N991 1.356 . S
C985 C984 1.363 1_545 S
C985 C988 1.363 . S
N986 C988 1.356 . S
N986 H998 0.984 . S
N986 H999 0.985 . S
N987 C989 1.356 . S
N987 H992 0.984 . S
N987 H993 0.985 . S
C988 C982 1.379 . S
C988 C985 1.363 . S
C988 N986 1.356 . S
C989 C983 1.363 . S
C989 C984 1.379 . S
C989 N987 1.356 . S
N990 C982 1.356 . S
N990 H996 0.984 . S
N990 H997 0.984 . S
N991 C984 1.356 . S
N991 H994 0.984 . S
N991 H995 0.985 . S
H992 N987 0.984 . S
H993 N987 0.985 . S
H994 N991 0.984 . S
H995 N991 0.985 . S
H996 N990 0.984 . S
H997 N990 0.984 . S
H998 N986 0.984 . S
H999 N986 0.985 . S
C1000 C1001 1.363 1_455 S
C1000 C1006 1.379 . S
C1000 N1008 1.356 . S
C1001 C1000 1.363 1_655 S
C1001 C1007 1.363 . S
C1002 C1003 1.363 1_655 S
C1002 C1007 1.379 . S
C1002 N1009 1.356 . S
C1003 C1002 1.363 1_455 S
C1003 C1006 1.363 . S
N1004 C1006 1.356 . S
N1004 H1016 0.984 . S
N1004 H1017 0.985 . S
N1005 C1007 1.356 . S
N1005 H1010 0.984 . S
N1005 H1011 0.985 . S
C1006 C1000 1.379 . S
C1006 C1003 1.363 . S
C1006 N1004 1.356 . S
C1007 C1001 1.363 . S
C1007 C1002 1.379 . S
C1007 N1005 1.356 . S
N1008 C1000 1.356 . S
N1008 H1014 0.984 . S
N1008 H1015 0.984 . S
N1009 C1002 1.356 . S
N1009 H1012 0.984 . S
N1009 H1013 0.985 . S
H1010 N1005 0.984 . S
H1011 N1005 0.985 . S
H1012 N1009 0.984 . S
H1013 N1009 0.985 . S
H1014 N1008 0.984 . S
H1015 N1008 0.984 . S
H1016 N1004 0.984 . S
H1017 N1004 0.985 . S
C1018 C1019 1.363 1_545 S
C1018 C1024 1.379 . S
C1018 N1026 1.356 . S
C1019 C1018 1.363 1_565 S
C1019 C1025 1.363 . S
C1020 C1021 1.363 1_565 S
C1020 C1025 1.379 . S
C1020 N1027 1.356 . S
C1021 C1020 1.363 1_545 S
C1021 C1024 1.363 . S
N1022 C1024 1.356 . S
N1022 H1034 0.984 . S
N1022 H1035 0.985 . S
N1023 C1025 1.356 . S
N1023 H1028 0.984 . S
N1023 H1029 0.985 . S
C1024 C1018 1.379 . S
C1024 C1021 1.363 . S
C1024 N1022 1.356 . S
C1025 C1019 1.363 . S
C1025 C1020 1.379 . S
C1025 N1023 1.356 . S
N1026 C1018 1.356 . S
N1026 H1032 0.984 . S
N1026 H1033 0.984 . S
N1027 C1020 1.356 . S
N1027 H1030 0.984 . S
N1027 H1031 0.985 . S
H1028 N1023 0.984 . S
H1029 N1023 0.985 . S
H1030 N1027 0.984 . S
H1031 N1027 0.985 . S
H1032 N1026 0.984 . S
H1033 N1026 0.984 . S
H1034 N1022 0.984 . S
H1035 N1022 0.985 . S
C1036 C1037 1.363 1_655 S
C1036 C1042 1.379 . S
C1036 N1044 1.356 . S
C1037 C1036 1.363 1_455 S
C1037 C1043 1.363 . S
C1038 C1039 1.363 1_455 S
C1038 C1043 1.379 . S
C1038 N1045 1.356 . S
C1039 C1038 1.363 1_655 S
C1039 C1042 1.363 . S
N1040 C1042 1.356 . S
N1040 H1052 0.984 . S
N1040 H1053 0.985 . S
N1041 C1043 1.356 . S
N1041 H1046 0.984 . S
N1041 H1047 0.985 . S
C1042 C1036 1.379 . S
C1042 C1039 1.363 . S
C1042 N1040 1.356 . S
C1043 C1037 1.363 . S
C1043 C1038 1.379 . S
C1043 N1041 1.356 . S
N1044 C1036 1.356 . S
N1044 H1050 0.984 . S
N1044 H1051 0.984 . S
N1045 C1038 1.356 . S
N1045 H1048 0.984 . S
N1045 H1049 0.985 . S
H1046 N1041 0.984 . S
H1047 N1041 0.985 . S
H1048 N1045 0.984 . S
H1049 N1045 0.985 . S
H1050 N1044 0.984 . S
H1051 N1044 0.984 . S
H1052 N1040 0.984 . S
H1053 N1040 0.985 . S
C1054 C1055 1.363 1_545 S
C1054 C1060 1.379 . S
C1054 N1062 1.356 . S
C1055 C1054 1.363 1_565 S
C1055 C1061 1.363 . S
C1056 C1057 1.363 1_565 S
C1056 C1061 1.379 . S
C1056 N1063 1.356 . S
C1057 C1056 1.363 1_545 S
C1057 C1060 1.363 . S
N1058 C1060 1.356 . S
N1058 H1070 0.984 . S
N1058 H1071 0.985 . S
N1059 C1061 1.356 . S
N1059 H1064 0.984 . S
N1059 H1065 0.985 . S
C1060 C1054 1.379 . S
C1060 C1057 1.363 . S
C1060 N1058 1.356 . S
C1061 C1055 1.363 . S
C1061 C1056 1.379 . S
C1061 N1059 1.356 . S
N1062 C1054 1.356 . S
N1062 H1068 0.984 . S
N1062 H1069 0.984 . S
N1063 C1056 1.356 . S
N1063 H1066 0.984 . S
N1063 H1067 0.985 . S
H1064 N1059 0.984 . S
H1065 N1059 0.985 . S
H1066 N1063 0.984 . S
H1067 N1063 0.985 . S
H1068 N1062 0.984 . S
H1069 N1062 0.984 . S
H1070 N1058 0.984 . S
H1071 N1058 0.985 . S
C1072 C1073 1.363 . S
C1072 C1078 1.379 1_455 S
C1072 N1080 1.356 . S
C1073 C1072 1.363 . S
C1073 C1079 1.363 . S
C1074 C1075 1.363 . S
C1074 C1079 1.379 1_655 S
C1074 N1081 1.356 . S
C1075 C1074 1.363 . S
C1075 C1078 1.363 . S
N1076 C1078 1.356 . S
N1076 H1088 0.984 . S
N1076 H1089 0.985 . S
N1077 C1079 1.356 . S
N1077 H1082 0.984 . S
N1077 H1083 0.985 . S
C1078 C1072 1.379 1_655 S
C1078 C1075 1.363 . S
C1078 N1076 1.356 . S
C1079 C1073 1.363 . S
C1079 C1074 1.379 1_455 S
C1079 N1077 1.356 . S
N1080 C1072 1.356 . S
N1080 H1086 0.984 . S
N1080 H1087 0.984 . S
N1081 C1074 1.356 . S
N1081 H1084 0.984 . S
N1081 H1085 0.985 . S
H1082 N1077 0.984 . S
H1083 N1077 0.985 . S
H1084 N1081 0.984 . S
H1085 N1081 0.985 . S
H1086 N1080 0.984 . S
H1087 N1080 0.984 . S
H1088 N1076 0.984 . S
H1089 N1076 0.985 . S
C1090 C1091 1.363 . S
C1090 C1096 1.379 1_545 S
C1090 N1098 1.356 . S
C1091 C1090 1.363 . S
C1091 C1097 1.363 . S
C1092 C1093 1.363 . S
C1092 C1097 1.379 1_565 S
C1092 N1099 1.356 . S
C1093 C1092 1.363 . S
C1093 C1096 1.363 . S
N1094 C1096 1.356 . S
N1094 H1106 0.984 . S
N1094 H1107 0.985 . S
N1095 C1097 1.356 . S
N1095 H1100 0.984 . S
N1095 H1101 0.985 . S
C1096 C1090 1.379 1_565 S
C1096 C1093 1.363 . S
C1096 N1094 1.356 . S
C1097 C1091 1.363 . S
C1097 C1092 1.379 1_545 S
C1097 N1095 1.356 . S
N1098 C1090 1.356 . S
N1098 H1104 0.984 . S
N1098 H1105 0.984 . S
N1099 C1092 1.356 . S
N1099 H1102 0.984 . S
N1099 H1103 0.985 . S
H1100 N1095 0.984 . S
H1101 N1095 0.985 . S
H1102 N1099 0.984 . S
H1103 N1099 0.985 . S
H1104 N1098 0.984 . S
H1105 N1098 0.984 . S
H1106 N1094 0.984 . S
H1107 N1094 0.985 . S
C1108 C1109 1.363 . S
C1108 C1114 1.379 1_455 S
C1108 N1116 1.356 . S
C1109 C1108 1.363 . S
C1109 C1115 1.363 . S
C1110 C1111 1.363 . S
C1110 C1115 1.379 1_655 S
C1110 N1117 1.356 . S
C1111 C1110 1.363 . S
C1111 C1114 1.363 . S
N1112 C1114 1.356 . S
N1112 H1124 0.984 . S
N1112 H1125 0.985 . S
N1113 C1115 1.356 . S
N1113 H1118 0.984 . S
N1113 H1119 0.985 . S
C1114 C1108 1.379 1_655 S
C1114 C1111 1.363 . S
C1114 N1112 1.356 . S
C1115 C1109 1.363 . S
C1115 C1110 1.379 1_455 S
C1115 N1113 1.356 . S
N1116 C1108 1.356 . S
N1116 H1122 0.984 . S
N1116 H1123 0.984 . S
N1117 C1110 1.356 . S
N1117 H1120 0.984 . S
N1117 H1121 0.985 . S
H1118 N1113 0.984 . S
H1119 N1113 0.985 . S
H1120 N1117 0.984 . S
H1121 N1117 0.985 . S
H1122 N1116 0.984 . S
H1123 N1116 0.984 . S
H1124 N1112 0.984 . S
H1125 N1112 0.985 . S
C1126 C1127 1.363 . S
C1126 C1132 1.379 1_565 S
C1126 N1134 1.356 . S
C1127 C1126 1.363 . S
C1127 C1133 1.363 . S
C1128 C1129 1.363 . S
C1128 C1133 1.379 1_545 S
C1128 N1135 1.356 . S
C1129 C1128 1.363 . S
C1129 C1132 1.363 . S
N1130 C1132 1.356 . S
N1130 H1142 0.984 . S
N1130 H1143 0.985 . S
N1131 C1133 1.356 . S
N1131 H1136 0.984 . S
N1131 H1137 0.985 . S
C1132 C1126 1.379 1_545 S
C1132 C1129 1.363 . S
C1132 N1130 1.356 . S
C1133 C1127 1.363 . S
C1133 C1128 1.379 1_565 S
C1133 N1131 1.356 . S
N1134 C1126 1.356 . S
N1134 H1140 0.984 . S
N1134 H1141 0.984 . S
N1135 C1128 1.356 . S
N1135 H1138 0.984 . S
N1135 H1139 0.985 . S
H1136 N1131 0.984 . S
H1137 N1131 0.985 . S
H1138 N1135 0.984 . S
H1139 N1135 0.985 . S
H1140 N1134 0.984 . S
H1141 N1134 0.984 . S
H1142 N1130 0.984 . S
H1143 N1130 0.985 . S
C1144 C1145 1.363 . S
C1144 C1150 1.379 1_455 S
C1144 N1152 1.356 . S
C1145 C1144 1.363 . S
C1145 C1151 1.363 . S
C1146 C1147 1.363 . S
C1146 C1151 1.379 1_655 S
C1146 N1153 1.356 . S
C1147 C1146 1.363 . S
C1147 C1150 1.363 . S
N1148 C1150 1.356 . S
N1148 H1160 0.984 . S
N1148 H1161 0.985 . S
N1149 C1151 1.356 . S
N1149 H1154 0.984 . S
N1149 H1155 0.985 . S
C1150 C1144 1.379 1_655 S
C1150 C1147 1.363 . S
C1150 N1148 1.356 . S
C1151 C1145 1.363 . S
C1151 C1146 1.379 1_455 S
C1151 N1149 1.356 . S
N1152 C1144 1.356 . S
N1152 H1158 0.984 . S
N1152 H1159 0.984 . S
N1153 C1146 1.356 . S
N1153 H1156 0.984 . S
N1153 H1157 0.985 . S
H1154 N1149 0.984 . S
H1155 N1149 0.985 . S
H1156 N1153 0.984 . S
H1157 N1153 0.985 . S
H1158 N1152 0.984 . S
H1159 N1152 0.984 . S
H1160 N1148 0.984 . S
H1161 N1148 0.985 . S
C1162 C1163 1.363 . S
C1162 C1168 1.379 1_545 S
C1162 N1170 1.356 . S
C1163 C1162 1.363 . S
C1163 C1169 1.363 . S
C1164 C1165 1.363 . S
C1164 C1169 1.379 1_565 S
C1164 N1171 1.356 . S
C1165 C1164 1.363 . S
C1165 C1168 1.363 . S
N1166 C1168 1.356 . S
N1166 H1178 0.984 . S
N1166 H1179 0.985 . S
N1167 C1169 1.356 . S
N1167 H1172 0.984 . S
N1167 H1173 0.985 . S
C1168 C1162 1.379 1_565 S
C1168 C1165 1.363 . S
C1168 N1166 1.356 . S
C1169 C1163 1.363 . S
C1169 C1164 1.379 1_545 S
C1169 N1167 1.356 . S
N1170 C1162 1.356 . S
N1170 H1176 0.984 . S
N1170 H1177 0.984 . S
N1171 C1164 1.356 . S
N1171 H1174 0.984 . S
N1171 H1175 0.985 . S
H1172 N1167 0.984 . S
H1173 N1167 0.985 . S
H1174 N1171 0.984 . S
H1175 N1171 0.985 . S
H1176 N1170 0.984 . S
H1177 N1170 0.984 . S
H1178 N1166 0.984 . S
H1179 N1166 0.985 . S
C1180 C1181 1.363 . S
C1180 C1186 1.379 1_655 S
C1180 N1188 1.356 . S
C1181 C1180 1.363 . S
C1181 C1187 1.363 . S
C1182 C1183 1.363 . S
C1182 C1187 1.379 1_455 S
C1182 N1189 1.356 . S
C1183 C1182 1.363 . S
C1183 C1186 1.363 . S
N1184 C1186 1.356 . S
N1184 H1196 0.984 . S
N1184 H1197 0.985 . S
N1185 C1187 1.356 . S
N1185 H1190 0.984 . S
N1185 H1191 0.985 . S
C1186 C1180 1.379 1_455 S
C1186 C1183 1.363 . S
C1186 N1184 1.356 . S
C1187 C1181 1.363 . S
C1187 C1182 1.379 1_655 S
C1187 N1185 1.356 . S
N1188 C1180 1.356 . S
N1188 H1194 0.984 . S
N1188 H1195 0.984 . S
N1189 C1182 1.356 . S
N1189 H1192 0.984 . S
N1189 H1193 0.985 . S
H1190 N1185 0.984 . S
H1191 N1185 0.985 . S
H1192 N1189 0.984 . S
H1193 N1189 0.985 . S
H1194 N1188 0.984 . S
H1195 N1188 0.984 . S
H1196 N1184 0.984 . S
H1197 N1184 0.985 . S
C1198 C1199 1.363 . S
C1198 C1204 1.379 1_565 S
C1198 N1206 1.356 . S
C1199 C1198 1.363 . S
C1199 C1205 1.363 . S
C1200 C1201 1.363 . S
C1200 C1205 1.379 1_545 S
C1200 N1207 1.356 . S
C1201 C1200 1.363 . S
C1201 C1204 1.363 . S
N1202 C1204 1.356 . S
N1202 H1214 0.984 . S
N1202 H1215 0.985 . S
N1203 C1205 1.356 . S
N1203 H1208 0.984 . S
N1203 H1209 0.985 . S
C1204 C1198 1.379 1_545 S
C1204 C1201 1.363 . S
C1204 N1202 1.356 . S
C1205 C1199 1.363 . S
C1205 C1200 1.379 1_565 S
C1205 N1203 1.356 . S
N1206 C1198 1.356 . S
N1206 H1212 0.984 . S
N1206 H1213 0.984 . S
N1207 C1200 1.356 . S
N1207 H1210 0.984 . S
N1207 H1211 0.985 . S
H1208 N1203 0.984 . S
H1209 N1203 0.985 . S
H1210 N1207 0.984 . S
H1211 N1207 0.985 . S
H1212 N1206 0.984 . S
H1213 N1206 0.984 . S
H1214 N1202 0.984 . S
H1215 N1202 0.985 . S
C353 C8 1.105 . S
C355 C76 1.119 . S
C371 C18 1.119 . S
C373 C40 1.105 . S
C389 C62 1.105 . S
C391 C32 1.119 . S
C407 C84 1.105 . S
C409 C54 1.119 . S
C425 C120 1.119 . S
C427 C96 1.105 . S
C443 C128 1.105 . S
C445 C150 1.119 . S
C461 C172 1.119 . S
C463 C140 1.105 . S
C479 C106 1.119 . S
C481 C162 1.105 . S
C497 C184 1.105 . S
C499 C260 1.119 . S
C515 C194 1.119 . S
C517 C216 1.105 . S
C533 C208 1.119 . S
C535 C238 1.105 . S
C551 C230 1.119 . S
C553 C250 1.105 . S
C569 C304 1.119 . S
C571 C272 1.105 . S
C587 C326 1.119 . S
C589 C294 1.105 . S
C605 C316 1.105 . S
C607 C338 1.119 . S
C623 C340 1.105 . S
C625 C282 1.119 . S
C641 C21 1.812 . S
C643 C117 1.812 . S
C659 C153 1.812 . S
C661 C29 1.812 . S
C677 C51 1.812 . S
C679 C175 1.812 . S
C695 C73 1.812 . S
C697 C109 1.812 . S
C713 C307 1.812 . S
C715 C197 1.812 . S
C731 C329 1.812 . S
C733 C205 1.812 . S
C749 C227 1.812 . S
C751 C345 1.812 . S
C767 C285 1.812 . S
C769 C263 1.812 . S
C785 C10 1.506 . S
C787 C228 1.506 . S
C803 C30 1.506 . S
C805 C252 1.506 . S
C821 C186 1.506 . S
C823 C52 1.506 . S
C839 C74 1.506 . S
C841 C206 1.506 . S
C857 C98 1.506 . S
C859 C318 1.506 . S
C875 C118 1.506 . S
C877 C348 1.506 . S
C893 C142 1.506 . S
C895 C274 1.506 . S
C911 C296 1.506 . S
C913 C164 1.506 . S
C929 C7 0.797 1_655 S
C931 C139 0.797 1_455 S
C947 C161 0.797 1_545 S
C949 C37 0.797 1_565 S
C965 C95 0.797 1_655 S
C967 C59 0.797 1_455 S
C983 C125 0.797 1_565 S
C985 C81 0.797 1_545 S
C1001 C315 0.797 1_655 S
C1003 C183 0.797 1_455 S
C1019 C351 0.797 1_565 S
C1021 C213 0.797 1_545 S
C1037 C271 0.797 1_455 S
C1039 C235 0.797 1_655 S
C1055 C249 0.797 1_565 S
C1057 C293 0.797 1_545 S
C1073 C15 2.125 . S
C1075 C65 2.125 . S
C1091 C43 2.125 . S
C1093 C87 2.125 . S
C1109 C103 2.125 . S
C1111 C147 2.125 . S
C1127 C169 2.125 . S
C1129 C131 2.125 . S
C1145 C241 2.125 . S
C1147 C191 2.125 . S
C1163 C257 2.125 . S
C1165 C219 2.125 . S
C1181 C279 2.125 . S
C1183 C323 2.125 . S
C1199 C301 2.125 . S
C1201 C337 2.125 . S
