# Generated by pormake.
# Topology why, (6)-cn, num edge types: 1
# Building blocks:
#     Node 0, Type 0, BuildingBlock: BETFEN_clean_sbu_0, # of connection points: 6
#     Node 1, Type 0, BuildingBlock: BETFEN_clean_sbu_0, # of connection points: 6
#     Node 2, Type 0, BuildingBlock: BETFEN_clean_sbu_0, # of connection points: 6
#     Node 3, Type 0, BuildingBlock: BETFEN_clean_sbu_0, # of connection points: 6
#     Node 4, Type 0, BuildingBlock: BETFEN_clean_sbu_0, # of connection points: 6
#     Node 5, Type 0, BuildingBlock: BETFEN_clean_sbu_0, # of connection points: 6
#     Node 6, Type 0, BuildingBlock: BETFEN_clean_sbu_0, # of connection points: 6
#     Node 7, Type 0, BuildingBlock: BETFEN_clean_sbu_0, # of connection points: 6
#     Node 8, Type 0, BuildingBlock: BETFEN_clean_sbu_0, # of connection points: 6
#     Node 9, Type 0, BuildingBlock: BETFEN_clean_sbu_0, # of connection points: 6
#     Node 10, Type 0, BuildingBlock: BETFEN_clean_sbu_0, # of connection points: 6
#     Node 11, Type 0, BuildingBlock: BETFEN_clean_sbu_0, # of connection points: 6
#     Node 12, Type 0, BuildingBlock: BETFEN_clean_sbu_0, # of connection points: 6
#     Node 13, Type 0, BuildingBlock: BETFEN_clean_sbu_0, # of connection points: 6
#     Node 14, Type 0, BuildingBlock: BETFEN_clean_sbu_0, # of connection points: 6
#     Node 15, Type 0, BuildingBlock: BETFEN_clean_sbu_0, # of connection points: 6
#     Edge 16, Type (0, 0), BuildingBlock: OJICUG_clean_linker_0, # of connection points: 2
#     Edge 17, Type (0, 0), BuildingBlock: OJICUG_clean_linker_0, # of connection points: 2
#     Edge 18, Type (0, 0), BuildingBlock: OJICUG_clean_linker_0, # of connection points: 2
#     Edge 19, Type (0, 0), BuildingBlock: OJICUG_clean_linker_0, # of connection points: 2
#     Edge 20, Type (0, 0), BuildingBlock: OJICUG_clean_linker_0, # of connection points: 2
#     Edge 21, Type (0, 0), BuildingBlock: OJICUG_clean_linker_0, # of connection points: 2
#     Edge 22, Type (0, 0), BuildingBlock: OJICUG_clean_linker_0, # of connection points: 2
#     Edge 23, Type (0, 0), BuildingBlock: OJICUG_clean_linker_0, # of connection points: 2
#     Edge 24, Type (0, 0), BuildingBlock: OJICUG_clean_linker_0, # of connection points: 2
#     Edge 25, Type (0, 0), BuildingBlock: OJICUG_clean_linker_0, # of connection points: 2
#     Edge 26, Type (0, 0), BuildingBlock: OJICUG_clean_linker_0, # of connection points: 2
#     Edge 27, Type (0, 0), BuildingBlock: OJICUG_clean_linker_0, # of connection points: 2
#     Edge 28, Type (0, 0), BuildingBlock: OJICUG_clean_linker_0, # of connection points: 2
#     Edge 29, Type (0, 0), BuildingBlock: OJICUG_clean_linker_0, # of connection points: 2
#     Edge 30, Type (0, 0), BuildingBlock: OJICUG_clean_linker_0, # of connection points: 2
#     Edge 31, Type (0, 0), BuildingBlock: OJICUG_clean_linker_0, # of connection points: 2
#     Edge 32, Type (0, 0), BuildingBlock: OJICUG_clean_linker_0, # of connection points: 2
#     Edge 33, Type (0, 0), BuildingBlock: OJICUG_clean_linker_0, # of connection points: 2
#     Edge 34, Type (0, 0), BuildingBlock: OJICUG_clean_linker_0, # of connection points: 2
#     Edge 35, Type (0, 0), BuildingBlock: OJICUG_clean_linker_0, # of connection points: 2
#     Edge 36, Type (0, 0), BuildingBlock: OJICUG_clean_linker_0, # of connection points: 2
#     Edge 37, Type (0, 0), BuildingBlock: OJICUG_clean_linker_0, # of connection points: 2
#     Edge 38, Type (0, 0), BuildingBlock: OJICUG_clean_linker_0, # of connection points: 2
#     Edge 39, Type (0, 0), BuildingBlock: OJICUG_clean_linker_0, # of connection points: 2
#     Edge 40, Type (0, 0), BuildingBlock: OJICUG_clean_linker_0, # of connection points: 2
#     Edge 41, Type (0, 0), BuildingBlock: OJICUG_clean_linker_0, # of connection points: 2
#     Edge 42, Type (0, 0), BuildingBlock: OJICUG_clean_linker_0, # of connection points: 2
#     Edge 43, Type (0, 0), BuildingBlock: OJICUG_clean_linker_0, # of connection points: 2
#     Edge 44, Type (0, 0), BuildingBlock: OJICUG_clean_linker_0, # of connection points: 2
#     Edge 45, Type (0, 0), BuildingBlock: OJICUG_clean_linker_0, # of connection points: 2
#     Edge 46, Type (0, 0), BuildingBlock: OJICUG_clean_linker_0, # of connection points: 2
#     Edge 47, Type (0, 0), BuildingBlock: OJICUG_clean_linker_0, # of connection points: 2
#     Edge 48, Type (0, 0), BuildingBlock: OJICUG_clean_linker_0, # of connection points: 2
#     Edge 49, Type (0, 0), BuildingBlock: OJICUG_clean_linker_0, # of connection points: 2
#     Edge 50, Type (0, 0), BuildingBlock: OJICUG_clean_linker_0, # of connection points: 2
#     Edge 51, Type (0, 0), BuildingBlock: OJICUG_clean_linker_0, # of connection points: 2
#     Edge 52, Type (0, 0), BuildingBlock: OJICUG_clean_linker_0, # of connection points: 2
#     Edge 53, Type (0, 0), BuildingBlock: OJICUG_clean_linker_0, # of connection points: 2
#     Edge 54, Type (0, 0), BuildingBlock: OJICUG_clean_linker_0, # of connection points: 2
#     Edge 55, Type (0, 0), BuildingBlock: OJICUG_clean_linker_0, # of connection points: 2
#     Edge 56, Type (0, 0), BuildingBlock: OJICUG_clean_linker_0, # of connection points: 2
#     Edge 57, Type (0, 0), BuildingBlock: OJICUG_clean_linker_0, # of connection points: 2
#     Edge 58, Type (0, 0), BuildingBlock: OJICUG_clean_linker_0, # of connection points: 2
#     Edge 59, Type (0, 0), BuildingBlock: OJICUG_clean_linker_0, # of connection points: 2
#     Edge 60, Type (0, 0), BuildingBlock: OJICUG_clean_linker_0, # of connection points: 2
#     Edge 61, Type (0, 0), BuildingBlock: OJICUG_clean_linker_0, # of connection points: 2
#     Edge 62, Type (0, 0), BuildingBlock: OJICUG_clean_linker_0, # of connection points: 2
#     Edge 63, Type (0, 0), BuildingBlock: OJICUG_clean_linker_0, # of connection points: 2
# Relax obj value: 0.556
# Max RMSD: 0.254
# Mean RMSD: 0.254
data_MOF--net-why--node1-BETFEN_clean_sbu_0--edge1-OJICUG_clean_linker_0
_symmetry_space_group_name_H-M    P1
_symmetry_Int_Tables_number       1
_symmetry_cell_setting            triclinic
loop_
_symmetry_equiv_pos_as_xyz
'x, y, z'
_cell_length_a     38.847195
_cell_length_b     38.713278
_cell_length_c     31.713676
_cell_angle_alpha  89.827315
_cell_angle_beta   89.905047
_cell_angle_gamma 90.408248
loop_
_atom_site_label
_atom_site_type_symbol
_atom_site_fract_x
_atom_site_fract_y
_atom_site_fract_z
_atom_type_partial_charge
Pr0 Pr 0.49365 0.2163 0.06103 0.0
Pr1 Pr 0.46178 0.24903 0.102 0.0
C2 C 0.52802 0.17659 1.00575 0.0
C3 C 0.54653 0.18302 0.96638 0.0
C4 C 0.56621 0.15675 0.94857 0.0
C5 C 0.58455 0.16289 0.91147 0.0
C6 C 0.58339 0.19544 0.89161 0.0
C7 C 0.56381 0.22186 0.90989 0.0
C8 C 0.54547 0.21567 0.9471 0.0
C9 C 0.48317 0.17121 0.13899 0.0
C10 C 0.5426 0.28954 0.08918 0.0
C11 C 0.43541 0.26644 0.17707 0.0
C12 C 0.4066 0.25057 0.19992 0.0
C13 C 0.383 0.22948 0.17819 0.0
C14 C 0.35168 0.22035 0.19687 0.0
C15 C 0.34392 0.23182 0.23767 0.0
C16 C 0.36948 0.24932 0.261 0.0
C17 C 0.40056 0.25891 0.24205 0.0
C18 C 0.46085 0.29018 0.03145 0.0
C19 C 0.40896 0.22461 0.02125 0.0
O20 O 0.49476 0.18088 1.00448 0.0
O21 O 0.54215 0.18979 0.03933 0.0
O22 O 0.4607 0.18666 0.11514 0.0
O23 O 0.51198 0.18521 0.12587 0.0
O24 O 0.51405 0.28904 0.1134 0.0
O25 O 0.54122 0.2626 0.06244 0.0
O26 O 0.46299 0.24759 0.17352 0.0
O27 O 0.42694 0.28179 0.14198 0.0
O28 O 0.48762 0.27387 0.04299 0.0
O29 O 0.43447 0.2856 0.05617 0.0
O30 O 0.44091 0.21316 0.01263 0.0
O31 O 0.40795 0.23851 0.05989 0.0
H32 H 0.56752 0.13156 0.96347 0.0
H33 H 0.59993 0.14223 0.89852 0.0
H34 H 0.56229 0.24708 0.89515 0.0
H35 H 0.53046 0.23628 0.96084 0.0
H36 H 0.38768 0.22232 0.14569 0.0
H37 H 0.33239 0.20705 0.17822 0.0
H38 H 0.36406 0.25895 0.29235 0.0
H39 H 0.41871 0.27483 0.25931 0.0
Pr40 Pr 0.73669 0.74204 0.31251 0.0
Pr41 Pr 0.7024 0.70933 0.34918 0.0
C42 C 0.77765 0.77611 0.25708 0.0
C43 C 0.77243 0.79309 0.21625 0.0
C44 C 0.79897 0.81291 0.19841 0.0
C45 C 0.79376 0.83029 0.16032 0.0
C46 C 0.76184 0.82812 0.13944 0.0
C47 C 0.7353 0.80805 0.15751 0.0
C48 C 0.74057 0.79067 0.19564 0.0
C49 C 0.78006 0.73113 0.39138 0.0
C50 C 0.66242 0.78989 0.33775 0.0
C51 C 0.66904 0.68937 0.41896 0.0
C52 C 0.63163 0.68541 0.42608 0.0
C53 C 0.61405 0.65664 0.40976 0.0
C54 C 0.57865 0.65328 0.41477 0.0
C55 C 0.55968 0.67852 0.43639 0.0
C56 C 0.57707 0.70788 0.45175 0.0
C57 C 0.61274 0.71127 0.44666 0.0
C58 C 0.6637 0.70873 0.27705 0.0
C59 C 0.72708 0.65685 0.26999 0.0
O60 O 0.77416 0.7426 0.25765 0.0
O61 O 0.7629 0.79087 0.28914 0.0
O62 O 0.7639 0.70862 0.36797 0.0
O63 O 0.7681 0.76027 0.37695 0.0
O64 O 0.65842 0.75796 0.35365 0.0
O65 O 0.69379 0.7922 0.31959 0.0
O66 O 0.68306 0.66746 0.39288 0.0
O67 O 0.68048 0.72097 0.41381 0.0
O68 O 0.6806 0.73546 0.28851 0.0
O69 O 0.66679 0.68247 0.30226 0.0
O70 O 0.74039 0.68887 0.2635 0.0
O71 O 0.71085 0.65552 0.30717 0.0
H72 H 0.8236 0.81527 0.21418 0.0
H73 H 0.81454 0.84598 0.14763 0.0
H74 H 0.71055 0.80562 0.14207 0.0
H75 H 0.71976 0.77551 0.20922 0.0
H76 H 0.62761 0.63628 0.39348 0.0
H77 H 0.56656 0.62974 0.4036 0.0
H78 H 0.56327 0.72766 0.46877 0.0
H79 H 0.62557 0.73397 0.45912 0.0
Pr80 Pr 0.21204 0.98282 0.56082 0.0
Pr81 Pr 0.24353 0.94897 0.60157 0.0
C82 C 0.1788 1.02328 0.50519 0.0
C83 C 0.16143 1.01683 0.46515 0.0
C84 C 0.13597 1.0395 0.45121 0.0
C85 C 0.11732 1.032 0.41479 0.0
C86 C 0.12397 1.00172 0.39188 0.0
C87 C 0.15002 0.97937 0.40556 0.0
C88 C 0.16851 0.98679 0.44214 0.0
C89 C 0.22203 1.02705 0.63935 0.0
C90 C 0.16248 0.90936 0.58887 0.0
C91 C 0.27226 0.92879 0.67427 0.0
C92 C 0.30496 0.93969 0.69401 0.0
C93 C 0.3361 0.9255 0.68012 0.0
C94 C 0.36708 0.93548 0.69829 0.0
C95 C 0.36789 0.95977 0.73121 0.0
C96 C 0.33691 0.97523 0.74387 0.0
C97 C 0.30568 0.96524 0.72545 0.0
C98 C 0.24455 0.90961 0.52976 0.0
C99 C 0.29692 0.97438 0.52096 0.0
O100 O 0.21215 1.01943 0.50517 0.0
O101 O 0.16392 1.00958 0.53816 0.0
O102 O 0.24466 1.01127 0.61597 0.0
O103 O 0.1932 1.01384 0.62534 0.0
O104 O 0.19063 0.90994 0.61365 0.0
O105 O 0.16436 0.93631 0.56186 0.0
O106 O 0.24772 0.95165 0.6729 0.0
O107 O 0.27493 0.91132 0.6394 0.0
O108 O 0.21771 0.92549 0.54193 0.0
O109 O 0.27099 0.91401 0.55425 0.0
O110 O 0.2651 0.98628 0.51253 0.0
O111 O 0.29757 0.95978 0.55937 0.0
H112 H 0.13013 1.06266 0.46888 0.0
H113 H 1.0976 1.04982 0.4046 0.0
H114 H 0.1554 0.95573 0.38868 0.0
H115 H 0.18786 0.96878 0.45291 0.0
H116 H 0.33663 0.90593 0.65578 0.0
H117 H 0.39011 0.92217 0.68831 0.0
H118 H 0.33665 0.99387 0.76926 0.0
H119 H 0.28209 0.97699 0.7364 0.0
Pr120 Pr 0.96676 0.45647 0.81174 0.0
Pr121 Pr 1.00572 0.48696 0.84872 0.0
C122 C 0.93054 0.41012 0.76602 0.0
C123 C 0.93586 0.3924 0.72589 0.0
C124 C 0.91088 0.36933 0.71096 0.0
C125 C 0.91577 0.35246 0.67259 0.0
C126 C 0.94576 0.35846 0.64862 0.0
C127 C 0.9709 0.38147 0.66401 0.0
C128 C 0.96595 0.39837 0.70237 0.0
C129 C 0.92229 0.47349 0.88693 0.0
C130 C 1.04292 0.40763 0.83981 0.0
C131 C 1.03493 0.53397 0.89935 0.0
C132 C 1.0648 0.55635 0.8913 0.0
C133 C 1.09105 0.54579 0.8637 0.0
C134 C 0.11945 0.56717 0.85595 0.0
C135 C 0.12188 0.59957 0.87544 0.0
C136 C 1.09468 0.61058 0.90159 0.0
C137 C 1.06639 0.58914 0.90938 0.0
C138 C 1.04194 0.47483 0.77417 0.0
C139 C 0.97748 0.53993 0.76742 0.0
O140 O 0.92577 0.44335 0.76362 0.0
O141 O 0.95143 0.40147 0.79634 0.0
O142 O 0.95466 0.46359 0.88682 0.0
O143 O 0.91577 0.47885 0.84726 0.0
O144 O 1.04682 0.43782 0.85974 0.0
O145 O 1.01264 0.40772 0.81839 0.0
O146 O 1.00791 0.54069 0.8765 0.0
O147 O 1.04116 0.50097 0.90256 0.0
O148 O 1.01047 0.48239 0.77554 0.0
O149 O 1.05536 0.47257 0.81133 0.0
O150 O 0.96268 0.50857 0.76143 0.0
O151 O 0.99578 0.53972 0.80316 0.0
H152 H 0.88762 0.36436 0.72896 0.0
H153 H 0.89618 0.33449 0.66185 0.0
H154 H 0.99408 0.38686 0.64607 0.0
H155 H 0.98549 0.4162 0.71364 0.0
H156 H 1.08998 0.52073 0.84876 0.0
H157 H 0.13998 0.55796 0.83584 0.0
H158 H 1.09604 0.63506 0.91798 0.0
H159 H 1.04611 0.59789 0.93019 0.0
Pr160 Pr 0.74348 0.95349 0.92053 0.0
Pr161 Pr 0.7123 0.98463 0.957 0.0
C162 C 0.75124 0.93211 0.84106 0.0
C163 C 0.73993 0.90245 0.81578 0.0
C164 C 0.74927 0.86871 0.82656 0.0
C165 C 0.74153 0.84153 0.79945 0.0
C166 C 0.7243 0.84764 0.76103 0.0
C167 C 0.71133 0.88082 0.75309 0.0
C168 C 0.71947 0.9081 0.78001 0.0
C169 C 0.74594 0.91057 0.98883 0.0
C170 C 0.79771 0.97606 0.99719 0.0
C171 C 0.67836 1.02463 0.01263 0.0
C172 C 0.66049 1.01846 0.05257 0.0
C173 C 0.63969 1.04429 0.06944 0.0
C174 C 0.62142 1.03824 0.10664 0.0
C175 C 0.62376 1.00623 0.12762 0.0
C176 C 0.64449 0.98024 0.11032 0.0
C177 C 0.66276 0.98634 0.07299 0.0
C178 C 0.72384 1.03086 0.88047 0.0
C179 C 0.66407 0.91071 0.93227 0.0
O180 O 0.77484 0.92712 0.87001 0.0
O181 O 0.72653 0.95271 0.85289 0.0
O182 O 0.71914 0.92828 0.98027 0.0
O183 O 0.77146 0.91463 0.96239 0.0
O184 O 0.76513 0.9858 1.00618 0.0
O185 O 0.7992 0.96386 0.95781 0.0
O186 O 0.71166 1.02085 0.01297 0.0
O187 O 0.6639 1.01079 0.97972 0.0
O188 O 0.74597 1.01575 0.90517 0.0
O189 O 0.69507 1.01589 0.89192 0.0
O190 O 0.6961 0.90725 0.91709 0.0
O191 O 0.66158 0.94219 0.94975 0.0
H192 H 0.76414 0.8635 0.85471 0.0
H193 H 0.75213 0.81647 0.80692 0.0
H194 H 0.69745 0.88628 0.72427 0.0
H195 H 0.71113 0.93391 0.77183 0.0
H196 H 0.63735 1.06902 0.05365 0.0
H197 H 0.60515 1.05855 0.11876 0.0
H198 H 0.64695 0.95544 0.12589 0.0
H199 H 0.67856 0.96601 0.05996 0.0
Pr200 Pr 0.50289 0.4908 0.66748 0.0
Pr201 Pr 0.47023 0.45792 0.70596 0.0
C202 C 0.52106 0.51185 0.59005 0.0
C203 C 0.5031 0.53374 0.55966 0.0
C204 C 0.47669 0.55568 0.57333 0.0
C205 C 0.46507 0.58216 0.54711 0.0
C206 C 0.47961 0.58672 0.50691 0.0
C207 C 0.5027 0.56172 0.49159 0.0
C208 C 0.51459 0.53557 0.518 0.0
C209 C 0.54359 0.49248 0.73737 0.0
C210 C 0.47866 0.54349 0.74663 0.0
C211 C 0.43051 0.42321 0.76205 0.0
C212 C 0.43623 0.40549 0.80227 0.0
C213 C 0.41016 0.38463 0.81931 0.0
C214 C 0.41551 0.36701 0.85715 0.0
C215 C 0.44707 0.37005 0.87867 0.0
C216 C 0.47331 0.39085 0.86119 0.0
C217 C 0.46792 0.40844 0.82321 0.0
C218 C 0.42535 0.46887 0.62846 0.0
C219 C 0.54439 0.41073 0.6798 0.0
O220 O 0.50726 0.48149 0.59717 0.0
O221 O 0.53103 0.52763 0.62433 0.0
O222 O 0.52701 0.46531 0.72668 0.0
O223 O 0.53946 0.51879 0.71228 0.0
O224 O 0.46729 0.51103 0.75481 0.0
O225 O 0.49272 0.54502 0.70813 0.0
O226 O 0.43427 0.4567 0.76223 0.0
O227 O 0.44441 0.40883 0.72917 0.0
O228 O 0.4408 0.4913 0.65266 0.0
O229 O 0.439 0.43995 0.64122 0.0
O230 O 0.5473 0.44225 0.66212 0.0
O231 O 0.51371 0.40847 0.69956 0.0
H232 H 0.46709 0.55408 0.60539 0.0
H233 H 0.4473 0.60099 0.55965 0.0
H234 H 0.51469 0.56462 0.4609 0.0
H235 H 0.53462 0.51849 0.50689 0.0
H236 H 0.38571 0.38181 0.80322 0.0
H237 H 0.39501 0.35068 0.86933 0.0
H238 H 0.49778 0.39388 0.87711 0.0
H239 H 0.48842 0.42435 0.81017 0.0
Pr240 Pr 0.96533 0.25025 0.4158 0.0
Pr241 Pr 0.99388 0.21376 0.46016 0.0
C242 C 0.9269 0.26883 0.34974 0.0
C243 C 0.89005 0.27594 0.34773 0.0
C244 C 0.87187 0.28428 0.38458 0.0
C245 C 0.83604 0.28608 0.38418 0.0
C246 C 0.8178 0.2798 0.34678 0.0
C247 C 0.83623 0.27094 0.31006 0.0
C248 C 0.87203 0.26885 0.31065 0.0
C249 C 0.96107 0.28648 0.49082 0.0
C250 C 0.91153 0.22333 0.49938 0.0
C251 C 1.0376 0.17664 0.50756 0.0
C252 C 1.05932 0.18392 0.54394 0.0
C253 C 1.08126 0.15842 0.5594 0.0
C254 C 1.09931 0.16393 0.59676 0.0
C255 C 1.09541 0.19497 0.61921 0.0
C256 C 1.07437 0.22103 0.60257 0.0
C257 C 1.05644 0.21553 0.56511 0.0
C258 C 0.97777 0.16749 0.38533 0.0
C259 C 1.0434 0.2897 0.42999 0.0
O260 O 0.93349 0.2367 0.3591 0.0
O261 O 0.94635 0.29101 0.37003 0.0
O262 O 0.98784 0.27058 0.47941 0.0
O263 O 0.93593 0.28342 0.46432 0.0
O264 O 0.9429 0.21209 0.5098 0.0
O265 O 0.91184 0.2364 0.45992 0.0
O266 O 1.0046 0.17827 0.51486 0.0
O267 O 1.0467 0.19133 0.47213 0.0
O268 O 0.99177 0.19827 0.38616 0.0
O269 O 0.96686 0.16397 0.42398 0.0
O270 O 1.01587 0.29052 0.40453 0.0
O271 O 1.04108 0.26184 0.45618 0.0
H272 H 0.88528 0.28915 0.41379 0.0
H273 H 0.82267 0.29308 0.41288 0.0
H274 H 0.82316 0.26687 0.28033 0.0
H275 H 0.88563 0.26153 0.28222 0.0
H276 H 1.08375 0.13396 0.54318 0.0
H277 H 0.11589 0.14368 0.60845 0.0
H278 H 1.07071 0.24509 0.6193 0.0
H279 H 1.03946 0.23544 0.55336 0.0
Pr280 Pr 0.20496 0.71071 0.16834 0.0
Pr281 Pr 0.23776 0.74305 0.20516 0.0
C282 C 0.18389 0.69471 0.09041 0.0
C283 C 0.19901 0.68395 0.04987 0.0
C284 C 0.20107 0.64882 0.03987 0.0
C285 C 0.20838 0.63863 0.9988 0.0
C286 C 0.21325 0.66343 0.96661 0.0
C287 C 0.21566 0.69843 0.97793 0.0
C288 C 0.20828 0.70865 0.01916 0.0
C289 C 0.16494 0.70856 0.23895 0.0
C290 C 0.22848 0.65727 0.24676 0.0
C291 C 0.27757 0.77784 0.26066 0.0
C292 C 0.27141 0.79551 0.30072 0.0
C293 C 0.29732 0.81625 0.31808 0.0
C294 C 0.29147 0.83391 0.35568 0.0
C295 C 0.25957 0.83104 0.37662 0.0
C296 C 0.23348 0.8104 0.3588 0.0
C297 C 0.23938 0.79275 0.32107 0.0
C298 C 0.28238 0.73203 0.12744 0.0
C299 C 0.16295 0.7901 0.18035 0.0
O300 O 0.19033 0.72639 0.10245 0.0
O301 O 0.1837 0.67231 0.12144 0.0
O302 O 0.18174 0.73568 0.22844 0.0
O303 O 0.16795 0.68277 0.21296 0.0
O304 O 0.24096 0.68948 0.25402 0.0
O305 O 0.21336 0.65605 0.20893 0.0
O306 O 0.27401 0.74434 0.26104 0.0
O307 O 0.26368 0.79213 0.22768 0.0
O308 O 0.26683 0.70966 0.15179 0.0
O309 O 0.26896 0.76101 0.14014 0.0
O310 O 0.15934 0.75806 0.16482 0.0
O311 O 0.19445 0.79284 0.19789 0.0
H312 H 0.19454 0.62913 0.06294 0.0
H313 H 0.20619 0.61137 0.99174 0.0
H314 H 0.21997 0.71813 0.95413 0.0
H315 H 0.20755 0.73601 0.02613 0.0
H316 H 0.32202 0.81896 0.30242 0.0
H317 H 0.31186 0.85011 0.36815 0.0
H318 H 0.20876 0.80749 0.37428 0.0
H319 H 0.219 0.77695 0.30777 0.0
Pr320 Pr 0.99202 0.7136 0.55866 0.0
Pr321 Pr 0.96354 0.74957 0.6035 0.0
C322 C 1.03408 0.67633 0.50931 0.0
C323 C 1.05482 0.68147 0.47106 0.0
C324 C 1.0465 0.66213 0.43522 0.0
C325 C 1.06397 0.66772 0.3975 0.0
C326 C 1.09064 0.69237 0.395 0.0
C327 C 1.09918 0.71162 0.43109 0.0
C328 C 1.08129 0.70633 0.46885 0.0
C329 C 0.97645 0.66667 0.63349 0.0
C330 C 1.042 0.78891 0.58935 0.0
C331 C 0.9258 0.76758 0.67048 0.0
C332 C 0.88896 0.77426 0.67382 0.0
C333 C 0.8697 0.78154 0.63749 0.0
C334 C 0.83389 0.78314 0.63951 0.0
C335 C 0.81678 0.77765 0.67801 0.0
C336 C 0.83631 0.76976 0.71418 0.0
C337 C 0.87207 0.76792 0.712 0.0
C338 C 0.95904 0.78631 0.52866 0.0
C339 C 0.9094 0.72297 0.52026 0.0
O340 O 1.00088 0.67806 0.50378 0.0
O341 O 1.04442 0.69105 0.54414 0.0
O342 O 0.99035 0.69747 0.63263 0.0
O343 O 0.9653 0.66348 0.595 0.0
O344 O 1.01425 0.78968 0.61461 0.0
O345 O 1.03975 0.76118 0.5631 0.0
O346 O 0.93256 0.73556 0.66096 0.0
O347 O 0.94455 0.79004 0.64944 0.0
O348 O 0.98594 0.77068 0.5402 0.0
O349 O 0.93381 0.78282 0.55513 0.0
O350 O 0.94087 0.71226 0.50947 0.0
O351 O 0.90979 0.73565 0.55985 0.0
H352 H 1.02598 0.64303 0.43619 0.0
H353 H 1.05621 0.65294 0.37013 0.0
H354 H 0.11987 0.73051 0.43031 0.0
H355 H 1.08804 0.72178 0.49607 0.0
H356 H 0.88227 0.78578 0.60748 0.0
H357 H 0.81964 0.78937 0.61118 0.0
H358 H 0.82413 0.76633 0.74467 0.0
H359 H 0.88654 0.76141 0.74007 0.0
Pr360 Pr 0.2372 0.2412 0.81238 0.0
Pr361 Pr 0.20376 0.20846 0.8498 0.0
C362 C 0.2774 0.27572 0.7566 0.0
C363 C 0.27155 0.2933 0.71632 0.0
C364 C 0.29788 0.31322 0.69825 0.0
C365 C 0.29221 0.33089 0.66049 0.0
C366 C 0.26004 0.32888 0.64019 0.0
C367 C 0.23361 0.30891 0.65862 0.0
C368 C 0.23935 0.29123 0.69644 0.0
C369 C 0.28114 0.23028 0.89047 0.0
C370 C 0.16241 0.28833 0.8381 0.0
C371 C 0.18287 0.19135 0.92765 0.0
C372 C 0.19901 0.17957 0.96722 0.0
C373 C 0.20424 0.1443 0.97453 0.0
C374 C 0.21384 0.13269 0.01435 0.0
C375 C 0.21802 0.15609 0.048 0.0
C376 C 0.21684 0.19167 0.03923 0.0
C377 C 0.20707 0.20331 0.99928 0.0
C378 C 0.16426 0.20787 0.7787 0.0
C379 C 0.22751 0.1554 0.77098 0.0
O380 O 0.27366 0.24224 0.75655 0.0
O381 O 0.26338 0.29014 0.78937 0.0
O382 O 0.26569 0.20782 0.86632 0.0
O383 O 0.26802 0.25928 0.87725 0.0
O384 O 0.15871 0.25629 0.85392 0.0
O385 O 0.19377 0.29093 0.8199 0.0
O386 O 0.18951 0.22319 0.91616 0.0
O387 O 0.18184 0.16964 0.89607 0.0
O388 O 0.18105 0.2346 0.79017 0.0
O389 O 0.16677 0.18157 0.80419 0.0
O390 O 0.24023 0.1876 0.76378 0.0
O391 O 0.21216 0.15409 0.80877 0.0
H392 H 0.32275 0.31532 0.71349 0.0
H393 H 0.3129 0.34652 0.64748 0.0
H394 H 0.20868 0.30665 0.64361 0.0
H395 H 0.21871 0.276 0.71026 0.0
H396 H 0.19876 0.12535 0.95035 0.0
H397 H 0.21427 0.10503 0.01947 0.0
H398 H 0.22043 0.2104 0.06418 0.0
H399 H 0.20387 0.2308 0.99434 0.0
Pr400 Pr 0.71183 0.48308 0.06104 0.0
Pr401 Pr 0.74242 0.45176 0.10149 0.0
C402 C 0.67934 0.52246 1.00365 0.0
C403 C 0.66124 0.51602 0.96374 0.0
C404 C 0.6709 0.53454 0.92757 0.0
C405 C 0.65402 0.52877 0.88942 0.0
C406 C 0.62687 0.5046 0.88687 0.0
C407 C 0.61766 0.48562 0.92306 0.0
C408 C 0.6348 0.49114 0.9611 0.0
C409 C 0.72191 0.5293 0.13798 0.0
C410 C 0.66201 0.41035 0.08805 0.0
C411 C 0.75364 0.43054 0.18063 0.0
C412 C 0.74154 0.40183 0.20734 0.0
C413 C 0.7498 0.36757 0.19789 0.0
C414 C 0.74151 0.34127 0.22625 0.0
C415 C 0.72486 0.34877 0.2647 0.0
C416 C 0.71291 0.38249 0.27142 0.0
C417 C 0.72159 0.40889 0.24322 0.0
C418 C 0.74491 0.40838 0.03349 0.0
C419 C 0.79715 0.47393 0.0227 0.0
O420 O 0.71256 0.5178 1.0033 0.0
O421 O 0.6646 0.51082 0.03789 0.0
O422 O 0.74447 0.51399 0.11415 0.0
O423 O 0.69329 0.51461 0.12547 0.0
O424 O 0.69127 0.40989 0.11064 0.0
O425 O 0.66279 0.43833 0.06279 0.0
O426 O 0.77489 0.42367 0.14966 0.0
O427 O 0.73011 0.45306 0.17073 0.0
O428 O 0.71806 0.42563 0.04269 0.0
O429 O 0.77048 0.41284 0.0595 0.0
O430 O 0.7649 0.48384 0.01292 0.0
O431 O 0.79807 0.46204 0.06248 0.0
H432 H 0.6915 0.55353 0.92885 0.0
H433 H 0.66218 0.54337 0.86194 0.0
H434 H 0.59663 0.46712 0.92235 0.0
H435 H 0.62706 0.47616 0.98846 0.0
H436 H 0.76429 0.36123 0.16979 0.0
H437 H 0.75132 0.31575 0.21967 0.0
H438 H 0.69949 0.38904 0.30024 0.0
H439 H 0.7141 0.43512 0.2505 0.0
Pr440 Pr 0.46942 0.95725 0.31191 0.0
Pr441 Pr 0.50339 0.99042 0.35031 0.0
C442 C 0.42923 0.9227 0.25675 0.0
C443 C 0.43539 0.90491 0.21689 0.0
C444 C 0.40915 0.88501 0.19885 0.0
C445 C 0.41509 0.86732 0.16131 0.0
C446 C 0.4474 0.86934 0.14123 0.0
C447 C 0.47376 0.8892 0.15969 0.0
C448 C 0.46777 0.90688 0.1973 0.0
C449 C 0.42536 0.96844 0.39004 0.0
C450 C 0.54307 0.90933 0.33909 0.0
C451 C 0.52381 1.01802 0.42355 0.0
C452 C 0.51164 1.0489 0.44621 0.0
C453 C 0.52193 1.08189 0.4325 0.0
C454 C 0.51169 0.11115 0.4542 0.0
C455 C 0.491 0.10838 0.49055 0.0
C456 C 0.47885 1.0755 0.50279 0.0
C457 C 0.48919 1.04598 0.48087 0.0
C458 C 0.54215 0.99121 0.27841 0.0
C459 C 0.47751 1.04269 0.27042 0.0
O460 O 0.43322 0.95617 0.25608 0.0
O461 O 0.44292 0.90836 0.28986 0.0
O462 O 0.44122 0.99087 0.36591 0.0
O463 O 0.4382 0.93935 0.37681 0.0
O464 O 0.54571 0.94029 0.35808 0.0
O465 O 0.51305 0.90787 0.31787 0.0
O466 O 0.50287 0.99147 0.42199 0.0
O467 O 0.53952 1.02382 0.38787 0.0
O468 O 0.52628 0.96406 0.29097 0.0
O469 O 0.53781 1.01801 0.30243 0.0
O470 O 0.46595 1.01029 0.26271 0.0
O471 O 0.49217 1.04418 0.30855 0.0
H472 H 0.38416 0.88299 0.21392 0.0
H473 H 0.39447 0.85173 0.14825 0.0
H474 H 0.49879 0.89144 0.14481 0.0
H475 H 0.48834 0.92209 0.21115 0.0
H476 H 0.53893 1.08528 0.40567 0.0
H477 H 0.52239 0.13571 0.44405 0.0
H478 H 0.46281 1.07244 0.53052 0.0
H479 H 0.48037 1.02086 0.4917 0.0
Pr480 Pr 0.2435 0.45119 0.41807 0.0
Pr481 Pr 0.21264 0.48425 0.45717 0.0
C482 C 0.2599 0.42119 0.34499 0.0
C483 C 0.25804 0.38462 0.33234 0.0
C484 C 0.27826 0.35987 0.35283 0.0
C485 C 0.27671 0.32542 0.34073 0.0
C486 C 0.25469 0.31462 0.30797 0.0
C487 C 0.23277 0.33912 0.28938 0.0
C488 C 0.23462 0.37385 0.30128 0.0
C489 C 0.24465 0.40979 0.48849 0.0
C490 C 0.29749 0.47444 0.49731 0.0
C491 C 0.17957 0.52462 0.51305 0.0
C492 C 0.16203 0.51783 0.55315 0.0
C493 C 0.13645 0.54034 0.56716 0.0
C494 C 0.11751 0.53245 0.60341 0.0
C495 C 0.12394 0.50192 0.62615 0.0
C496 C 0.1501 0.47973 0.61239 0.0
C497 C 0.16889 0.48753 0.57598 0.0
C498 C 0.22243 0.52876 0.37839 0.0
C499 C 0.16319 0.41038 0.4317 0.0
O500 O 0.28297 0.42942 0.37332 0.0
O501 O 0.23029 0.43619 0.35111 0.0
O502 O 0.21827 0.42735 0.47851 0.0
O503 O 0.27034 0.41334 0.46259 0.0
O504 O 0.26593 0.48741 0.50508 0.0
O505 O 0.29803 0.45926 0.4594 0.0
O506 O 0.2129 0.52066 0.51288 0.0
O507 O 0.16471 0.51128 0.48003 0.0
O508 O 0.24513 0.513 0.40156 0.0
O509 O 0.19365 0.51546 0.39265 0.0
O510 O 0.19251 0.40952 0.40929 0.0
O511 O 0.16385 0.43881 0.45615 0.0
H512 H 0.29604 0.36711 0.37759 0.0
H513 H 0.2946 0.30783 0.35547 0.0
H514 H 0.21522 0.33176 0.26443 0.0
H515 H 0.21813 0.39239 0.28573 0.0
H516 H 0.13073 0.56368 0.54965 0.0
H517 H 1.09775 0.55019 0.61362 0.0
H518 H 0.15535 0.45589 0.62908 0.0
H519 H 0.18828 0.46961 0.56517 0.0
Pr520 Pr 1.00612 0.9887 0.16976 0.0
Pr521 Pr 0.96708 0.95798 0.2074 0.0
C522 C 1.03789 1.03314 0.1179 0.0
C523 C 1.07115 1.05076 0.12419 0.0
C524 C 1.07793 1.06975 0.16113 0.0
C525 C 0.11031 1.08473 0.16765 0.0
C526 C 0.13657 1.08039 0.13778 0.0
C527 C 0.12999 1.0604 0.10161 0.0
C528 C 1.09759 1.04585 0.09485 0.0
C529 C 1.04264 0.97639 0.24381 0.0
C530 C 0.97811 1.04142 0.2511 0.0
C531 C 0.93051 0.91187 0.25356 0.0
C532 C 0.93544 0.89409 0.29385 0.0
C533 C 0.91038 0.87086 0.30851 0.0
C534 C 0.91489 0.85386 0.34697 0.0
C535 C 0.94458 0.85989 0.37133 0.0
C536 C 0.96978 0.88311 0.35625 0.0
C537 C 0.9652 0.90012 0.31778 0.0
C538 C 0.92257 0.97571 0.13256 0.0
C539 C 1.04323 0.90918 0.17952 0.0
O540 O 1.01262 1.04241 0.14252 0.0
O541 O 1.03963 0.99977 0.11283 0.0
O542 O 1.01109 0.98358 0.24291 0.0
O543 O 1.05602 0.97465 0.20654 0.0
O544 O 0.96389 1.00984 0.25776 0.0
O545 O 0.99553 1.04159 0.21459 0.0
O546 O 0.92596 0.94513 0.25571 0.0
O547 O 0.95147 0.90306 0.22336 0.0
O548 O 0.95483 0.96553 0.13249 0.0
O549 O 0.91617 0.98095 0.17227 0.0
O550 O 1.04733 0.93953 0.15984 0.0
O551 O 1.01276 0.90906 0.20062 0.0
H552 H 1.05822 1.0733 0.18488 0.0
H553 H 0.1146 1.10039 0.19542 0.0
H554 H 0.14941 1.05741 0.07736 0.0
H555 H 1.0931 1.03088 0.06654 0.0
H556 H 0.88736 0.86585 0.2902 0.0
H557 H 0.89528 0.83574 0.35746 0.0
H558 H 0.99273 0.88853 0.37448 0.0
H559 H 0.9848 0.91808 0.30674 0.0
Pr560 Pr 0.46443 0.74966 0.91867 0.0
Pr561 Pr 0.49565 0.71598 0.95536 0.0
C562 C 0.4511 0.78045 0.84497 0.0
C563 C 0.45602 0.81664 0.83285 0.0
C564 C 0.46057 0.84192 0.86406 0.0
C565 C 0.46239 0.87678 0.85304 0.0
C566 C 0.45914 0.88687 0.81069 0.0
C567 C 0.45751 0.86111 0.77932 0.0
C568 C 0.45595 0.82623 0.7904 0.0
C569 C 0.46323 0.78955 0.98958 0.0
C570 C 0.41036 0.72555 0.99637 0.0
C571 C 0.52882 0.67504 0.01084 0.0
C572 C 0.54646 0.68112 0.05088 0.0
C573 C 0.56598 0.65481 0.06902 0.0
C574 C 0.58401 0.66085 0.10632 0.0
C575 C 0.58273 0.69334 0.1261 0.0
C576 C 0.5632 0.71976 0.10758 0.0
C577 C 0.54517 0.71367 0.07019 0.0
C578 C 0.48475 0.67196 0.87715 0.0
C579 C 0.54476 0.79023 0.9316 0.0
O580 O 0.4273 0.77466 0.87343 0.0
O581 O 0.47951 0.76345 0.85184 0.0
O582 O 0.48975 0.77214 0.97935 0.0
O583 O 0.43742 0.78639 0.96379 0.0
O584 O 0.44215 0.71281 1.00385 0.0
O585 O 0.40958 0.74088 0.95854 0.0
O586 O 0.49554 0.67912 0.011 0.0
O587 O 0.54357 0.68885 0.97793 0.0
O588 O 0.46231 0.68782 0.90071 0.0
O589 O 0.51375 0.68489 0.89082 0.0
O590 O 0.51314 0.79423 0.91568 0.0
O591 O 0.54657 0.75864 0.94931 0.0
H592 H 0.46108 0.83486 0.89712 0.0
H593 H 0.46378 0.89593 0.87783 0.0
H594 H 0.45443 0.86785 0.74638 0.0
H595 H 0.45302 0.80692 0.76597 0.0
H596 H 0.56754 0.62971 0.05414 0.0
H597 H 0.59932 0.64015 0.1194 0.0
H598 H 0.56153 0.74494 0.12221 0.0
H599 H 0.53033 0.73434 0.05623 0.0
Pr600 Pr 0.70484 0.21201 0.67025 0.0
Pr601 Pr 0.73875 0.24448 0.70694 0.0
C602 C 0.67319 0.19673 0.59787 0.0
C603 C 0.63658 0.19999 0.58799 0.0
C604 C 0.6125 0.20308 0.62086 0.0
C605 C 0.57733 0.2029 0.6122 0.0
C606 C 0.56577 0.19949 0.57053 0.0
C607 C 0.59012 0.19941 0.53747 0.0
C608 C 0.62533 0.19959 0.54621 0.0
C609 C 0.66535 0.21095 0.7415 0.0
C610 C 0.72929 0.15892 0.7487 0.0
C611 C 0.77911 0.27828 0.76294 0.0
C612 C 0.77335 0.2949 0.80386 0.0
C613 C 0.79951 0.31488 0.82205 0.0
C614 C 0.79389 0.33161 0.86041 0.0
C615 C 0.76194 0.32863 0.88126 0.0
C616 C 0.73575 0.30851 0.86277 0.0
C617 C 0.74143 0.29177 0.82437 0.0
C618 C 0.78268 0.23287 0.62869 0.0
C619 C 0.6646 0.29239 0.68186 0.0
O620 O 0.68061 0.17326 0.62614 0.0
O621 O 0.6895 0.22599 0.60364 0.0
O622 O 0.68258 0.23775 0.73064 0.0
O623 O 0.66863 0.18477 0.7163 0.0
O624 O 0.74184 0.19109 0.75583 0.0
O625 O 0.71391 0.1576 0.71104 0.0
O626 O 0.77574 0.24477 0.76214 0.0
O627 O 0.76473 0.29323 0.73069 0.0
O628 O 0.76641 0.21057 0.65247 0.0
O629 O 0.7706 0.26216 0.64235 0.0
O630 O 0.66056 0.26038 0.66667 0.0
O631 O 0.69612 0.29487 0.69941 0.0
H632 H 0.62083 0.20395 0.6534 0.0
H633 H 0.55921 0.20296 0.6382 0.0
H634 H 0.5821 0.19621 0.50501 0.0
H635 H 0.64365 0.19776 0.52052 0.0
H636 H 0.82419 0.31778 0.80641 0.0
H637 H 0.81441 0.34738 0.87337 0.0
H638 H 0.71099 0.30545 0.87813 0.0
H639 H 0.7209 0.27648 0.81056 0.0
C640 C 0.58636 0.33854 0.0523 0.0
C641 C 0.57333 0.32053 0.08928 0.0
H642 H 0.61947 0.37777 0.02187 0.0
C643 C 0.59113 0.33401 0.12598 0.0
H644 H 0.57539 0.33137 0.02219 0.0
C645 C 0.61865 0.36099 0.12559 0.0
C646 C 0.63114 0.37951 0.08868 0.0
H647 H 0.5842 0.32302 0.15627 0.0
H648 H 0.62999 0.3678 0.1556 0.0
C649 C 0.61282 0.36652 0.05212 0.0
C650 C 0.59503 0.8146 0.33743 0.0
C651 C 0.63195 0.82075 0.33832 0.0
H652 H 0.54142 0.83275 0.33551 0.0
C653 C 0.63778 0.8578 0.33963 0.0
H654 H 0.58648 0.78795 0.33626 0.0
C655 C 0.61059 0.88473 0.34084 0.0
C656 C 0.57368 0.87858 0.33921 0.0
H657 H 0.66426 0.86663 0.34041 0.0
H658 H 0.61913 0.91136 0.34233 0.0
C659 C 0.56789 0.84156 0.337 0.0
C660 C 0.11579 0.86277 0.62618 0.0
C661 C 0.13152 0.87843 0.58914 0.0
H662 H 1.07857 0.82738 0.65657 0.0
C663 C 0.11629 0.86244 0.55213 0.0
H664 H 0.12446 0.87199 0.65657 0.0
C665 C 1.08973 0.83446 0.55217 0.0
C666 C 1.07347 0.81932 0.5892 0.0
H667 H 0.12551 0.8713 0.52172 0.0
H668 H 1.08127 0.82501 0.52179 0.0
C669 C 1.08819 0.83582 0.62617 0.0
C670 C 0.1101 0.3828 0.84105 0.0
C671 C 1.07321 0.3766 0.83913 0.0
H672 H 0.16382 0.36493 0.84096 0.0
C673 C 1.0675 0.33957 0.83673 0.0
H674 H 0.11857 0.40945 0.84279 0.0
C675 C 1.09477 0.31269 0.83724 0.0
C676 C 0.13169 0.31896 0.83849 0.0
H677 H 1.04106 0.3307 0.83513 0.0
H678 H 1.08631 0.28602 0.8359 0.0
C679 C 0.13738 0.356 0.83993 0.0
C680 C 0.59652 0.88539 0.9316 0.0
C681 C 0.63337 0.87981 0.93189 0.0
H682 H 0.54305 0.86623 0.9299 0.0
C683 C 0.63943 0.84285 0.93212 0.0
H684 H 0.58785 0.91189 0.93139 0.0
C685 C 0.61247 0.81538 0.93278 0.0
C686 C 0.57562 0.82097 0.93166 0.0
H687 H 0.66597 0.83455 0.93251 0.0
H688 H 0.62112 0.78887 0.93356 0.0
C689 C 0.56958 0.85792 0.9307 0.0
C690 C 0.61212 0.38682 0.67929 0.0
C691 C 0.57526 0.38031 0.67998 0.0
H692 H 0.66593 0.36918 0.68056 0.0
C693 C 0.56973 0.34323 0.68145 0.0
H694 H 0.62044 0.41355 0.67843 0.0
C695 C 0.59711 0.31652 0.6812 0.0
C696 C 0.63396 0.32303 0.68122 0.0
H697 H 0.54333 0.33416 0.68218 0.0
H698 H 0.58878 0.28979 0.68172 0.0
C699 C 0.63952 0.36013 0.68063 0.0
C700 C 1.09252 0.33408 0.39397 0.0
C701 C 1.07464 0.32023 0.4306 0.0
H702 H 0.13135 0.36814 0.3644 0.0
C703 C 1.08749 0.33809 0.46764 0.0
H704 H 1.08565 0.32336 0.36363 0.0
C705 C 0.1139 0.36618 0.46787 0.0
C706 C 0.13228 0.37951 0.43131 0.0
H707 H 1.07637 0.33077 0.49771 0.0
H708 H 0.12043 0.37727 0.49813 0.0
C709 C 0.11996 0.36112 0.39442 0.0
C710 C 1.09523 0.81428 0.18175 0.0
C711 C 0.13214 0.82064 0.1802 0.0
H712 H 1.04149 0.83217 0.18426 0.0
C713 C 0.13774 0.85769 0.17874 0.0
H714 H 1.08684 0.78759 0.18315 0.0
C715 C 0.11042 0.88444 0.17786 0.0
C716 C 1.07355 0.87816 0.18005 0.0
H717 H 0.16417 0.86668 0.1775 0.0
H718 H 0.11883 0.91111 0.17605 0.0
C719 C 1.06791 0.84111 0.18248 0.0
C720 C 0.3197 0.251 0.9583 0.0
C721 C 0.31357 0.22684 0.92446 0.0
H722 H 0.34966 0.26943 0.01243 0.0
C723 C 0.34064 0.20138 0.92409 0.0
H724 H 0.30144 0.27175 0.9621 0.0
C725 C 0.37029 0.2007 0.95349 0.0
C726 C 0.37595 0.22465 0.98782 0.0
H727 H 0.33956 0.18173 0.89992 0.0
H728 H 0.38906 0.18049 0.94917 0.0
C729 C 0.34857 0.24964 0.98843 0.0
C730 C 0.75138 0.58854 0.17308 0.0
C731 C 0.72506 0.5619 0.17199 0.0
H732 H 0.77306 0.6365 0.19959 0.0
C733 C 0.69997 0.56847 0.20462 0.0
H734 H 0.77182 0.5871 0.14995 0.0
C735 C 0.70124 0.59729 0.23494 0.0
C736 C 0.72713 0.62421 0.23584 0.0
H737 H 0.67854 0.55059 0.20731 0.0
H738 H 0.68068 0.59868 0.25794 0.0
C739 C 0.75206 0.61815 0.20271 0.0
C740 C 0.38588 0.94729 0.45734 0.0
C741 C 0.39275 0.97197 0.42402 0.0
H742 H 0.3553 0.92844 0.51101 0.0
C743 C 0.36621 0.99802 0.42423 0.0
H744 H 0.40364 0.92604 0.4607 0.0
C745 C 0.33644 0.99878 0.45362 0.0
C746 C 0.33007 0.97429 0.48745 0.0
H747 H 0.36782 1.01813 0.40051 0.0
H748 H 0.31815 1.01949 0.44972 0.0
C749 C 0.35691 0.94869 0.48747 0.0
C750 C 0.99315 0.63549 0.71008 0.0
C751 C 0.97692 0.63501 0.66914 0.0
H752 H 1.00655 0.6101 0.76989 0.0
C753 C 0.96075 0.60167 0.66258 0.0
H754 H 1.00644 0.65894 0.71925 0.0
C755 C 0.96064 0.5726 0.69281 0.0
C756 C 0.97682 0.57296 0.73368 0.0
H757 H 0.94761 0.59763 0.63292 0.0
H758 H 0.94753 0.54909 0.68343 0.0
C759 C 0.99316 0.60626 0.74036 0.0
C760 C 0.82827 0.98685 0.0744 0.0
C761 C 0.83053 0.97639 0.03093 0.0
H762 H 0.85131 0.995 0.13653 0.0
C763 C 0.86539 0.96545 0.02186 0.0
H764 H 0.8035 0.99551 0.08573 0.0
C765 C 0.89429 0.96519 0.05242 0.0
C766 C 0.89182 0.97572 0.096 0.0
H767 H 0.87078 0.95666 0.99019 0.0
H768 H 0.91903 0.9563 0.04131 0.0
C769 C 0.85695 0.98649 0.1048 0.0
C770 C 0.50564 0.6329 0.80994 0.0
C771 C 0.48118 0.63927 0.84334 0.0
H772 H 0.5242 0.60269 0.75622 0.0
C773 C 0.45534 0.61216 0.84346 0.0
H774 H 0.52672 0.65112 0.80638 0.0
C775 C 0.45455 0.5823 0.81421 0.0
C776 C 0.4788 0.57647 0.78026 0.0
H777 H 0.43545 0.61336 0.86733 0.0
H778 H 0.43401 0.56356 0.81829 0.0
C779 C 0.50418 0.60388 0.77993 0.0
C780 C 0.84172 0.20258 0.59599 0.0
C781 C 0.81524 0.22862 0.59492 0.0
H782 H 0.88987 0.18048 0.57182 0.0
C783 C 0.82215 0.25238 0.56062 0.0
H784 H 0.84005 0.1832 0.62057 0.0
C785 C 0.85117 0.25007 0.53066 0.0
C786 C 0.87797 0.22447 0.53204 0.0
H787 H 0.8044 0.27351 0.5563 0.0
H788 H 0.8529 0.26961 0.50625 0.0
C789 C 0.87154 0.20101 0.56686 0.0
C790 C 0.25188 0.5884 0.34382 0.0
C791 C 0.22579 0.56152 0.34435 0.0
H792 H 0.27347 0.63678 0.31794 0.0
C793 C 0.20113 0.5681 0.31128 0.0
H794 H 0.27197 0.587 0.36735 0.0
C795 C 0.20265 0.59711 0.28101 0.0
C796 C 0.22828 0.6243 0.28072 0.0
H797 H 0.17989 0.55005 0.30816 0.0
H798 H 0.1825 0.59841 0.25755 0.0
C799 C 0.25272 0.61824 0.31433 0.0
C800 C 0.83946 0.70146 0.42425 0.0
C801 C 0.81272 0.72725 0.42513 0.0
H802 H 0.88784 0.67984 0.44838 0.0
C803 C 0.8195 0.75113 0.45917 0.0
H804 H 0.83796 0.68199 0.3999 0.0
C805 C 0.84861 0.74916 0.48902 0.0
C806 C 0.87566 0.72379 0.48782 0.0
H807 H 0.80159 0.77214 0.46336 0.0
H808 H 0.85019 0.76878 0.5132 0.0
C809 C 0.86935 0.70022 0.45325 0.0
C810 C 0.20137 1.09575 0.73594 0.0
C811 C 0.22747 0.12249 0.73702 0.0
H812 H 0.17841 1.04915 0.70828 0.0
C813 C 0.25256 0.11599 0.70415 0.0
H814 H 0.18065 1.09741 0.75869 0.0
C815 C 0.25186 1.08621 0.67469 0.0
C816 C 0.22532 1.05977 0.6734 0.0
H817 H 0.27375 0.13413 0.70112 0.0
H818 H 0.27247 1.0845 0.65182 0.0
C819 C 0.20005 1.06679 0.70573 0.0
C820 C 0.82801 0.48452 0.94553 0.0
C821 C 0.83021 0.47411 0.9891 0.0
H822 H 0.85103 0.49264 0.88325 0.0
C823 C 0.86509 0.46321 0.99815 0.0
H824 H 0.80325 0.49315 0.93417 0.0
C825 C 0.89402 0.46296 0.96745 0.0
C826 C 0.89157 0.47344 0.92375 0.0
H827 H 0.87047 0.45446 0.02988 0.0
H828 H 0.91876 0.45411 0.97855 0.0
C829 C 0.85669 0.48416 0.91502 0.0
C830 C 0.50306 0.10294 0.2363 0.0
C831 C 0.47754 1.07566 0.23654 0.0
H832 H 0.52561 0.15012 0.20924 0.0
C833 C 0.45309 1.08162 0.20291 0.0
H834 H 0.52325 0.10166 0.25972 0.0
C835 C 0.45383 0.11146 0.17342 0.0
C836 C 0.47981 0.13844 0.17297 0.0
H837 H 0.43242 1.06299 0.19927 0.0
H838 H 0.43375 0.1128 0.14988 0.0
C839 C 0.50445 0.13198 0.20608 0.0
C840 C 0.33689 0.49916 0.56417 0.0
C841 C 0.33047 0.47437 0.5309 0.0
H842 H 0.36821 0.5188 0.61689 0.0
C843 C 0.35711 0.44857 0.53148 0.0
H844 H 0.31875 0.52006 0.56756 0.0
C845 C 0.38596 0.44726 0.56167 0.0
C846 C 0.39284 0.47221 0.59446 0.0
H847 H 0.35543 0.4281 0.50838 0.0
H848 H 0.40359 0.42587 0.55879 0.0
C849 C 0.36652 0.49846 0.59364 0.0
C850 C 0.96223 0.10253 0.35639 0.0
C851 C 0.9781 0.13602 0.34958 0.0
H852 H 0.94915 1.04997 0.33573 0.0
C853 C 0.99386 0.13683 0.30827 0.0
H854 H 0.94945 1.0982 0.38631 0.0
C855 C 0.99371 0.10777 0.27792 0.0
C856 C 0.97767 1.07431 0.28486 0.0
H857 H 1.0069 0.16042 0.29886 0.0
H858 H 1.00674 0.11188 0.24812 0.0
C859 C 0.96198 1.07362 0.3261 0.0
C860 C 0.32177 0.75301 0.06014 0.0
C861 C 0.31495 0.72844 0.09355 0.0
H862 H 0.35232 0.77162 1.00637 0.0
C863 C 0.34141 0.70232 0.09345 0.0
H864 H 0.30403 0.77425 0.05669 0.0
C865 C 0.37112 0.70138 0.06401 0.0
C866 C 0.37746 0.72578 0.03012 0.0
H867 H 0.33977 0.68229 0.11726 0.0
H868 H 0.38935 0.68062 0.06793 0.0
C869 C 0.3507 0.75145 0.03001 0.0
C870 C 0.75357 0.12056 0.81669 0.0
C871 C 0.72935 0.12608 0.7827 0.0
H872 H 0.77272 1.08984 0.87021 0.0
C873 C 0.70415 1.09853 0.78269 0.0
H874 H 0.77396 0.13946 0.82053 0.0
C875 C 0.70286 1.06957 0.81297 0.0
C876 C 0.72725 1.06355 0.84647 0.0
H877 H 0.68417 1.0995 0.75898 0.0
H878 H 0.68196 1.05116 0.80959 0.0
C879 C 0.75289 1.09083 0.84633 0.0
C880 C 0.60218 0.17563 0.82061 0.0
C881 C 0.60236 0.20132 0.85171 0.0
H882 H 0.6218 0.15878 0.76146 0.0
C883 C 0.62159 0.23179 0.84487 0.0
H884 H 0.58704 0.15223 0.82456 0.0
C885 C 0.64137 0.23577 0.80821 0.0
C886 C 0.64213 0.20931 0.77808 0.0
H887 H 0.62226 0.25197 0.86843 0.0
H888 H 0.65676 0.25897 0.80407 0.0
C889 C 0.62192 0.17953 0.78431 0.0
C890 C 0.72554 0.86506 0.09182 0.0
C891 C 0.75636 0.84717 0.09931 0.0
H892 H 0.69793 0.89916 0.05074 0.0
C893 C 0.78257 0.84861 0.06875 0.0
H894 H 0.70496 0.8647 0.11491 0.0
C895 C 0.77858 0.86838 0.03228 0.0
C896 C 0.74826 0.88709 0.02541 0.0
H897 H 0.80636 0.83465 0.07319 0.0
H898 H 0.79963 0.86953 0.00986 0.0
C899 C 0.72153 0.88487 0.05518 0.0
C900 C 1.04747 0.9898 0.32013 0.0
C901 C 1.06335 0.97999 0.28226 0.0
H902 H 1.05437 1.00433 0.38455 0.0
C903 C 1.09917 0.9757 0.28104 0.0
H904 H 1.01983 0.9931 0.32198 0.0
C905 C 0.11895 0.98215 0.31694 0.0
C906 C 0.10315 0.99317 0.3544 0.0
H907 H 0.11196 0.96806 0.25219 0.0
H908 H 0.14665 0.97947 0.31509 0.0
C909 C 1.06721 0.99646 0.35582 0.0
C910 C 0.92652 0.32107 0.54109 0.0
C911 C 0.95823 0.30644 0.53006 0.0
H912 H 0.89789 0.34926 0.58693 0.0
C913 C 0.98624 0.30967 0.5577 0.0
H914 H 0.90446 0.3189 0.52038 0.0
C915 C 0.9824 0.32694 0.59608 0.0
C916 C 0.95044 0.34107 0.60745 0.0
H917 H 1.01093 0.29847 0.54995 0.0
H918 H 1.0042 0.32853 0.61726 0.0
C919 C 0.92266 0.3382 0.57936 0.0
C920 C 0.60374 1.02705 0.1977 0.0
C921 C 0.60484 1.00054 0.16768 0.0
H922 H 0.58323 1.04466 0.25603 0.0
C923 C 0.58691 0.96947 0.17574 0.0
H924 H 0.61786 1.05097 0.19288 0.0
C925 C 0.56719 0.96562 0.21253 0.0
C926 C 0.5652 0.99281 0.24158 0.0
H927 H 0.5872 0.94863 0.15303 0.0
H928 H 0.55282 0.94189 0.21762 0.0
C929 C 0.58407 1.02328 0.23408 0.0
C930 C 0.48323 0.33462 0.92832 0.0
C931 C 0.45217 0.35164 0.91928 0.0
H932 H 0.51055 0.30177 0.97131 0.0
C933 C 0.42528 0.35007 0.94887 0.0
H934 H 0.50437 0.3352 0.90601 0.0
C935 C 0.42874 0.3309 0.98581 0.0
C936 C 0.45928 0.313 0.99426 0.0
H937 H 0.4013 0.36344 0.94332 0.0
H938 H 0.40713 0.3296 1.0074 0.0
C939 C 0.48676 0.31543 0.96557 0.0
C940 C 0.12782 0.17505 0.72861 0.0
C941 C 0.14419 0.20614 0.73961 0.0
H942 H 1.09925 0.14738 0.68214 0.0
C943 C 0.14354 0.23416 0.71145 0.0
H944 H 0.12799 0.153 0.74973 0.0
C945 C 0.12746 0.23076 0.6723 0.0
C946 C 0.11184 0.19929 0.66086 0.0
H947 H 0.15609 0.25838 0.71923 0.0
H948 H 0.128 0.25243 0.65062 0.0
C949 C 0.11174 0.17168 0.68968 0.0
C950 C 0.21919 0.88547 0.4631 0.0
C951 C 0.24628 0.88726 0.49229 0.0
H952 H 0.20224 0.86643 0.40308 0.0
C953 C 0.27672 0.86909 0.48421 0.0
H954 H 0.19551 0.89939 0.46855 0.0
C955 C 0.28051 0.85024 0.44722 0.0
C956 C 0.25404 0.84926 0.41717 0.0
H957 H 0.29804 0.86987 0.50618 0.0
H958 H 0.3044 0.83662 0.44202 0.0
C959 C 0.22305 0.86657 0.42576 0.0
C960 C 0.1171 0.6685 0.32968 0.0
C961 C 0.10964 0.69726 0.3549 0.0
H962 H 0.13971 0.64984 0.27301 0.0
C963 C 0.12018 0.73032 0.34123 0.0
H964 H 0.11018 0.64259 0.33968 0.0
C965 C 0.13785 0.7344 0.30306 0.0
C966 C 0.14477 0.70552 0.2779 0.0
H967 H 0.11452 0.75303 0.35978 0.0
H968 H 0.14604 0.76001 0.29328 0.0
C969 C 0.13415 0.67263 0.29147 0.0
C970 C 0.22383 0.36592 0.59246 0.0
C971 C 0.25442 0.34759 0.5999 0.0
H972 H 0.19656 0.4001 0.551 0.0
C973 C 0.28038 0.34814 0.56905 0.0
H974 H 0.20344 0.36615 0.61579 0.0
C975 C 0.27649 0.36755 0.53235 0.0
C976 C 0.24649 0.38676 0.52548 0.0
H977 H 0.30394 0.33378 0.57344 0.0
H978 H 0.29741 0.368 0.50971 0.0
C979 C 0.2199 0.3854 0.5555 0.0
C980 C 0.5792 0.5268 0.78677 0.0
C981 C 0.5664 0.49446 0.77419 0.0
H982 H 0.60752 0.55541 0.8325 0.0
C983 C 0.57435 0.46503 0.79805 0.0
H984 H 0.5731 0.55002 0.76923 0.0
C985 C 0.59467 0.46805 0.83425 0.0
C986 C 0.60703 0.50061 0.84726 0.0
H987 H 0.56472 0.4398 0.78894 0.0
H988 H 0.60061 0.44495 0.85206 0.0
C989 C 0.59913 0.52987 0.82297 0.0
C990 C 0.43145 0.83164 0.03332 0.0
C991 C 0.46137 0.81228 0.02659 0.0
H992 H 0.40396 0.86528 0.07432 0.0
C993 C 0.4878 0.81327 0.0567 0.0
H994 H 0.41068 0.83151 0.01057 0.0
C995 C 0.48374 0.83247 0.0937 0.0
C996 C 0.4532 0.8509 0.101 0.0
H997 H 0.51109 0.7985 0.05224 0.0
H998 H 0.50397 0.83197 0.11714 0.0
C999 C 0.42745 0.85079 0.07003 0.0
C1000 C 1.06696 0.49675 0.66236 0.0
C1001 C 0.10288 0.49301 0.66359 0.0
H1002 H 1.01946 0.4933 0.69628 0.0
C1003 C 0.11844 0.48115 0.70085 0.0
H1004 H 1.05424 0.50526 0.63382 0.0
C1005 C 1.09851 0.47428 0.73667 0.0
C1006 C 1.06272 0.47894 0.73564 0.0
H1007 H 0.1461 0.47813 0.70264 0.0
H1008 H 0.11117 0.46599 0.76534 0.0
C1009 C 1.04705 0.48965 0.69799 0.0
C1010 C 0.92095 0.83869 0.44021 0.0
C1011 C 0.94899 0.84216 0.41245 0.0
H1012 H 0.90235 0.8185 0.49881 0.0
C1013 C 0.98095 0.82817 0.42403 0.0
H1014 H 0.89615 0.84961 0.43247 0.0
C1015 C 0.98457 0.81049 0.46227 0.0
C1016 C 0.95632 0.80667 0.48958 0.0
H1017 H 1.00294 0.83019 0.4031 0.0
H1018 H 1.00927 0.7994 0.47014 0.0
C1019 C 0.92459 0.82114 0.47836 0.0
C1020 C 0.60146 0.67332 0.19721 0.0
C1021 C 0.60154 0.69918 0.16612 0.0
H1022 H 0.62084 0.65631 0.25646 0.0
C1023 C 0.6205 0.72977 0.17314 0.0
H1024 H 0.58655 0.64981 0.19319 0.0
C1025 C 0.64004 0.73373 0.20995 0.0
C1026 C 0.64083 0.70715 0.24011 0.0
H1027 H 0.62114 0.7501 0.14962 0.0
H1028 H 0.6552 0.75704 0.21421 0.0
C1029 C 0.62094 0.6772 0.23365 0.0
C1030 C 0.77804 0.36727 0.9892 0.0
C1031 C 0.7474 0.3853 0.99665 0.0
H1032 H 0.80638 0.33481 0.94747 0.0
C1033 C 0.72064 0.38306 0.96704 0.0
H1034 H 0.79913 0.36846 0.01147 0.0
C1035 C 0.72495 0.36396 0.92997 0.0
C1036 C 0.75611 0.34683 0.92187 0.0
H1037 H 0.6968 0.39686 0.9719 0.0
H1038 H 0.70433 0.36362 0.90703 0.0
C1039 C 0.78232 0.34821 0.95232 0.0
C1040 C 0.29886 0.23136 0.29354 0.0
C1041 C 0.30774 0.23577 0.25097 0.0
H1042 H 0.27153 0.25252 0.34582 0.0
C1043 C 0.28665 0.25628 0.22529 0.0
H1044 H 0.31409 0.21483 0.31373 0.0
C1045 C 0.26337 0.27889 0.24378 0.0
C1046 C 0.26073 0.28048 0.28796 0.0
H1047 H 0.29233 0.25956 0.19204 0.0
H1048 H 0.25214 0.29854 0.22384 0.0
C1049 C 0.27478 0.25332 0.3119 0.0
C1050 C 0.5157 0.67282 0.49284 0.0
C1051 C 0.52403 0.66995 0.44989 0.0
H1052 H 0.49223 0.64788 0.54547 0.0
C1053 C 0.50328 0.64871 0.42428 0.0
H1054 H 0.53035 0.68961 0.51345 0.0
C1055 C 0.48162 0.62409 0.44293 0.0
C1056 C 0.48034 0.62133 0.48705 0.0
H1057 H 0.50794 0.64721 0.39065 0.0
H1058 H 0.47063 0.60396 0.42337 0.0
C1059 C 0.49355 0.64868 0.51136 0.0
C1060 C 0.43169 0.95652 0.73928 0.0
C1061 C 0.3992 0.96173 0.7578 0.0
H1062 H 0.47831 0.92757 0.74293 0.0
C1063 C 0.39543 0.95557 0.80123 0.0
H1064 H 0.43595 0.96266 0.70631 0.0
C1065 C 0.41985 0.93587 0.82233 0.0
C1066 C 0.44792 0.9223 0.79993 0.0
H1067 H 0.37122 0.96032 0.81708 0.0
H1068 H 0.41333 0.92647 0.85356 0.0
C1069 C 0.456 0.93642 0.76024 0.0
C1070 C 0.21058 0.61932 0.9095 0.0
C1071 C 0.20475 0.65345 0.92261 0.0
H1072 H 0.18706 0.57411 0.88384 0.0
C1073 C 0.17918 0.67255 0.90169 0.0
H1074 H 0.23126 0.60444 0.92326 0.0
C1075 C 0.15412 0.65533 0.87824 0.0
C1076 C 0.15474 0.61916 0.87569 0.0
H1077 H 0.17462 0.69937 0.90932 0.0
H1078 H 0.13164 0.6695 0.86809 0.0
C1079 C 0.18516 0.6019 0.8867 0.0
C1080 C 0.74329 0.83648 0.68797 0.0
C1081 C 0.72958 0.8231 0.72579 0.0
H1082 H 0.78304 0.83176 0.64228 0.0
C1083 C 0.73414 0.78782 0.7346 0.0
H1084 H 0.73941 0.86316 0.67894 0.0
C1085 C 0.75973 0.76961 0.7134 0.0
C1086 C 0.78003 0.7866 0.68291 0.0
H1087 H 0.72238 0.77617 0.76225 0.0
H1088 H 0.76684 0.74431 0.725 0.0
C1089 C 0.76872 0.81832 0.66671 0.0
C1090 C 0.74458 0.33901 0.33773 0.0
C1091 C 0.72996 0.325 0.30093 0.0
H1092 H 0.78537 0.33488 0.38198 0.0
C1093 C 0.73379 0.28944 0.29351 0.0
H1094 H 0.7412 0.36592 0.34583 0.0
C1095 C 0.75972 0.27143 0.31439 0.0
C1096 C 0.78099 0.2889 0.34326 0.0
H1097 H 0.72128 0.27733 0.26682 0.0
H1098 H 0.7663 0.24581 0.30353 0.0
C1099 C 0.77033 0.32105 0.35869 0.0
C1100 C 0.18665 0.1586 0.11584 0.0
C1101 C 0.21275 0.14309 0.0917 0.0
H1102 H 0.14076 0.14945 0.15117 0.0
C1103 C 0.22215 0.109 0.10166 0.0
H1104 H 0.1794 0.18522 0.11061 0.0
C1105 C 0.19938 1.08816 0.12466 0.0
C1106 C 0.16808 0.10194 0.13881 0.0
H1107 H 0.24337 1.09683 0.08539 0.0
H1108 H 0.2036 1.06053 0.12547 0.0
C1109 C 0.16417 0.13792 0.1393 0.0
C1110 C 0.51958 0.15661 0.5832 0.0
C1111 C 0.53054 0.18664 0.56194 0.0
H1112 H 0.4966 0.107 0.57647 0.0
C1113 C 0.51382 0.19607 0.52448 0.0
H1114 H 0.53124 0.14899 0.61277 0.0
C1115 C 0.49298 0.17197 0.50383 0.0
C1116 C 0.4901 0.13814 0.51998 0.0
H1117 H 0.52086 0.21975 0.50821 0.0
H1118 H 0.48433 0.17786 0.47217 0.0
C1119 C 0.4994 0.1323 0.56218 0.0
loop_
_geom_bond_atom_site_label_1
_geom_bond_atom_site_label_2
_geom_bond_distance
_geom_bond_site_symmetry_2
_ccdc_geom_bond_type
Pr0 C2 2.880 . S
Pr0 O20 2.562 . S
Pr0 O21 2.490 . S
Pr0 O22 2.695 1_556 S
Pr0 O23 2.512 1_556 S
Pr0 O25 2.437 1_556 S
Pr0 O28 2.436 . S
Pr0 O30 2.438 . S
Pr1 C11 2.880 . S
Pr1 O22 2.436 . S
Pr1 O24 2.438 . S
Pr1 O26 2.562 . S
Pr1 O27 2.490 . S
Pr1 O28 2.695 1_554 S
Pr1 O29 2.512 . S
Pr1 O31 2.437 . S
C2 Pr0 2.880 . S
C2 C3 1.491 . S
C2 O20 1.254 . S
C2 O21 1.225 . S
C3 C2 1.491 . S
C3 C4 1.392 . S
C3 C8 1.356 . S
C4 C3 1.392 . S
C4 C5 1.368 . S
C4 H32 0.929 . S
C5 C4 1.368 . S
C5 C6 1.386 . S
C5 H33 0.929 . S
C6 C5 1.386 . S
C6 C7 1.373 . S
C7 C6 1.373 . S
C7 C8 1.409 . S
C7 H34 0.931 . S
C8 C3 1.356 . S
C8 C7 1.409 . S
C8 H35 0.930 . S
C9 O22 1.270 . S
C9 O23 1.248 . S
C10 O24 1.267 . S
C10 O25 1.278 . S
C11 Pr1 2.880 . S
C11 C12 1.491 . S
C11 O26 1.254 . S
C11 O27 1.225 . S
C12 C11 1.491 . S
C12 C13 1.392 . S
C12 C17 1.356 . S
C13 C12 1.392 . S
C13 C14 1.368 . S
C13 H36 0.929 . S
C14 C13 1.368 . S
C14 C15 1.386 . S
C14 H37 0.929 . S
C15 C14 1.386 . S
C15 C16 1.373 . S
C16 C15 1.373 . S
C16 C17 1.409 . S
C16 H38 0.931 . S
C17 C12 1.356 . S
C17 C16 1.409 . S
C17 H39 0.930 . S
C18 O28 1.270 . S
C18 O29 1.248 1_556 S
C19 O30 1.256 1_554 S
C19 O31 1.287 . S
O20 Pr0 2.562 . S
O20 C2 1.254 . S
O21 Pr0 2.490 . S
O21 C2 1.225 . S
O22 Pr0 2.695 1_554 S
O22 Pr1 2.436 . S
O22 C9 1.270 . S
O23 Pr0 2.512 1_554 S
O23 C9 1.248 . S
O24 Pr1 2.438 . S
O24 C10 1.267 . S
O25 Pr0 2.437 1_554 S
O25 C10 1.278 . S
O26 Pr1 2.562 . S
O26 C11 1.254 . S
O27 Pr1 2.490 . S
O27 C11 1.225 . S
O28 Pr0 2.436 . S
O28 Pr1 2.695 1_556 S
O28 C18 1.270 . S
O29 Pr1 2.512 . S
O29 C18 1.248 1_554 S
O30 Pr0 2.438 . S
O30 C19 1.256 1_556 S
O31 Pr1 2.437 . S
O31 C19 1.287 . S
H32 C4 0.929 . S
H33 C5 0.929 . S
H34 C7 0.931 . S
H35 C8 0.930 . S
H36 C13 0.929 . S
H37 C14 0.929 . S
H38 C16 0.931 . S
H39 C17 0.930 . S
Pr40 C42 2.880 . S
Pr40 O60 2.562 . S
Pr40 O61 2.490 . S
Pr40 O62 2.695 . S
Pr40 O63 2.512 . S
Pr40 O65 2.437 . S
Pr40 O68 2.436 . S
Pr40 O70 2.438 . S
Pr41 C51 2.880 . S
Pr41 O62 2.436 . S
Pr41 O64 2.438 . S
Pr41 O66 2.562 . S
Pr41 O67 2.490 . S
Pr41 O68 2.695 . S
Pr41 O69 2.512 . S
Pr41 O71 2.437 . S
C42 Pr40 2.880 . S
C42 C43 1.491 . S
C42 O60 1.254 . S
C42 O61 1.225 . S
C43 C42 1.491 . S
C43 C44 1.392 . S
C43 C48 1.356 . S
C44 C43 1.392 . S
C44 C45 1.368 . S
C44 H72 0.929 . S
C45 C44 1.368 . S
C45 C46 1.386 . S
C45 H73 0.929 . S
C46 C45 1.386 . S
C46 C47 1.373 . S
C47 C46 1.373 . S
C47 C48 1.409 . S
C47 H74 0.931 . S
C48 C43 1.356 . S
C48 C47 1.409 . S
C48 H75 0.930 . S
C49 O62 1.270 . S
C49 O63 1.248 . S
C50 O64 1.267 . S
C50 O65 1.278 . S
C51 Pr41 2.880 . S
C51 C52 1.491 . S
C51 O66 1.254 . S
C51 O67 1.225 . S
C52 C51 1.491 . S
C52 C53 1.392 . S
C52 C57 1.356 . S
C53 C52 1.392 . S
C53 C54 1.368 . S
C53 H76 0.929 . S
C54 C53 1.368 . S
C54 C55 1.386 . S
C54 H77 0.929 . S
C55 C54 1.386 . S
C55 C56 1.373 . S
C56 C55 1.373 . S
C56 C57 1.409 . S
C56 H78 0.931 . S
C57 C52 1.356 . S
C57 C56 1.409 . S
C57 H79 0.930 . S
C58 O68 1.270 . S
C58 O69 1.248 . S
C59 O70 1.267 . S
C59 O71 1.278 . S
O60 Pr40 2.562 . S
O60 C42 1.254 . S
O61 Pr40 2.490 . S
O61 C42 1.225 . S
O62 Pr40 2.695 . S
O62 Pr41 2.436 . S
O62 C49 1.270 . S
O63 Pr40 2.512 . S
O63 C49 1.248 . S
O64 Pr41 2.438 . S
O64 C50 1.267 . S
O65 Pr40 2.437 . S
O65 C50 1.278 . S
O66 Pr41 2.562 . S
O66 C51 1.254 . S
O67 Pr41 2.490 . S
O67 C51 1.225 . S
O68 Pr40 2.436 . S
O68 Pr41 2.695 . S
O68 C58 1.270 . S
O69 Pr41 2.512 . S
O69 C58 1.248 . S
O70 Pr40 2.438 . S
O70 C59 1.267 . S
O71 Pr41 2.437 . S
O71 C59 1.278 . S
H72 C44 0.929 . S
H73 C45 0.929 . S
H74 C47 0.931 . S
H75 C48 0.930 . S
H76 C53 0.929 . S
H77 C54 0.929 . S
H78 C56 0.931 . S
H79 C57 0.930 . S
Pr80 C82 2.880 . S
Pr80 O100 2.562 . S
Pr80 O101 2.490 . S
Pr80 O102 2.695 . S
Pr80 O103 2.512 . S
Pr80 O105 2.437 . S
Pr80 O108 2.436 . S
Pr80 O110 2.438 . S
Pr81 C91 2.880 . S
Pr81 O102 2.436 . S
Pr81 O104 2.438 . S
Pr81 O106 2.562 . S
Pr81 O107 2.490 . S
Pr81 O108 2.695 . S
Pr81 O109 2.512 . S
Pr81 O111 2.437 . S
C82 Pr80 2.880 . S
C82 C83 1.491 . S
C82 O100 1.254 . S
C82 O101 1.225 . S
C83 C82 1.491 . S
C83 C84 1.392 . S
C83 C88 1.356 . S
C84 C83 1.392 . S
C84 C85 1.368 1_455 S
C84 H112 0.929 . S
C85 C84 1.368 1_655 S
C85 C86 1.386 . S
C85 H113 0.929 . S
C86 C85 1.386 . S
C86 C87 1.373 . S
C87 C86 1.373 . S
C87 C88 1.409 1_655 S
C87 H114 0.931 . S
C88 C83 1.356 . S
C88 C87 1.409 1_455 S
C88 H115 0.930 . S
C89 O102 1.270 . S
C89 O103 1.248 . S
C90 O104 1.267 . S
C90 O105 1.278 . S
C91 Pr81 2.880 . S
C91 C92 1.491 . S
C91 O106 1.254 . S
C91 O107 1.225 . S
C92 C91 1.491 . S
C92 C93 1.392 . S
C92 C97 1.356 . S
C93 C92 1.392 . S
C93 C94 1.368 . S
C93 H116 0.929 . S
C94 C93 1.368 . S
C94 C95 1.386 . S
C94 H117 0.929 . S
C95 C94 1.386 . S
C95 C96 1.373 . S
C96 C95 1.373 . S
C96 C97 1.409 . S
C96 H118 0.931 . S
C97 C92 1.356 . S
C97 C96 1.409 . S
C97 H119 0.930 . S
C98 O108 1.270 . S
C98 O109 1.248 . S
C99 O110 1.267 . S
C99 O111 1.278 . S
O100 Pr80 2.562 . S
O100 C82 1.254 . S
O101 Pr80 2.490 . S
O101 C82 1.225 . S
O102 Pr80 2.695 . S
O102 Pr81 2.436 . S
O102 C89 1.270 . S
O103 Pr80 2.512 . S
O103 C89 1.248 . S
O104 Pr81 2.438 . S
O104 C90 1.267 . S
O105 Pr80 2.437 . S
O105 C90 1.278 . S
O106 Pr81 2.562 . S
O106 C91 1.254 . S
O107 Pr81 2.490 . S
O107 C91 1.225 . S
O108 Pr80 2.436 . S
O108 Pr81 2.695 . S
O108 C98 1.270 . S
O109 Pr81 2.512 . S
O109 C98 1.248 . S
O110 Pr80 2.438 . S
O110 C99 1.267 . S
O111 Pr81 2.437 . S
O111 C99 1.278 . S
H112 C84 0.929 . S
H113 C85 0.929 . S
H114 C87 0.931 . S
H115 C88 0.930 . S
H116 C93 0.929 . S
H117 C94 0.929 . S
H118 C96 0.931 . S
H119 C97 0.930 . S
Pr120 C122 2.880 . S
Pr120 O140 2.562 . S
Pr120 O141 2.490 . S
Pr120 O142 2.695 . S
Pr120 O143 2.512 . S
Pr120 O145 2.437 . S
Pr120 O148 2.436 . S
Pr120 O150 2.438 . S
Pr121 C131 2.880 . S
Pr121 O142 2.436 . S
Pr121 O144 2.438 . S
Pr121 O146 2.562 . S
Pr121 O147 2.490 . S
Pr121 O148 2.695 . S
Pr121 O149 2.512 . S
Pr121 O151 2.437 . S
C122 Pr120 2.880 . S
C122 C123 1.491 . S
C122 O140 1.254 . S
C122 O141 1.225 . S
C123 C122 1.491 . S
C123 C124 1.392 . S
C123 C128 1.356 . S
C124 C123 1.392 . S
C124 C125 1.368 . S
C124 H152 0.929 . S
C125 C124 1.368 . S
C125 C126 1.386 . S
C125 H153 0.929 . S
C126 C125 1.386 . S
C126 C127 1.373 . S
C127 C126 1.373 . S
C127 C128 1.409 . S
C127 H154 0.931 . S
C128 C123 1.356 . S
C128 C127 1.409 . S
C128 H155 0.930 . S
C129 O142 1.270 . S
C129 O143 1.248 . S
C130 O144 1.267 . S
C130 O145 1.278 . S
C131 Pr121 2.880 . S
C131 C132 1.491 . S
C131 O146 1.254 . S
C131 O147 1.225 . S
C132 C131 1.491 . S
C132 C133 1.392 . S
C132 C137 1.356 . S
C133 C132 1.392 . S
C133 C134 1.368 . S
C133 H156 0.929 . S
C134 C133 1.368 . S
C134 C135 1.386 . S
C134 H157 0.929 . S
C135 C134 1.386 . S
C135 C136 1.373 . S
C136 C135 1.373 . S
C136 C137 1.409 . S
C136 H158 0.931 . S
C137 C132 1.356 . S
C137 C136 1.409 . S
C137 H159 0.930 . S
C138 O148 1.270 . S
C138 O149 1.248 . S
C139 O150 1.267 . S
C139 O151 1.278 . S
O140 Pr120 2.562 . S
O140 C122 1.254 . S
O141 Pr120 2.490 . S
O141 C122 1.225 . S
O142 Pr120 2.695 . S
O142 Pr121 2.436 . S
O142 C129 1.270 . S
O143 Pr120 2.512 . S
O143 C129 1.248 . S
O144 Pr121 2.438 . S
O144 C130 1.267 . S
O145 Pr120 2.437 . S
O145 C130 1.278 . S
O146 Pr121 2.562 . S
O146 C131 1.254 . S
O147 Pr121 2.490 . S
O147 C131 1.225 . S
O148 Pr120 2.436 . S
O148 Pr121 2.695 . S
O148 C138 1.270 . S
O149 Pr121 2.512 . S
O149 C138 1.248 . S
O150 Pr120 2.438 . S
O150 C139 1.267 . S
O151 Pr121 2.437 . S
O151 C139 1.278 . S
H152 C124 0.929 . S
H153 C125 0.929 . S
H154 C127 0.931 . S
H155 C128 0.930 . S
H156 C133 0.929 . S
H157 C134 0.929 . S
H158 C136 0.931 . S
H159 C137 0.930 . S
Pr160 C162 2.880 . S
Pr160 O180 2.562 . S
Pr160 O181 2.490 . S
Pr160 O182 2.695 1_556 S
Pr160 O183 2.512 . S
Pr160 O185 2.437 . S
Pr160 O188 2.436 . S
Pr160 O190 2.438 . S
Pr161 C171 2.880 . S
Pr161 O182 2.436 . S
Pr161 O184 2.438 . S
Pr161 O186 2.562 . S
Pr161 O187 2.490 . S
Pr161 O188 2.695 1_554 S
Pr161 O189 2.512 1_554 S
Pr161 O191 2.437 1_554 S
C162 Pr160 2.880 . S
C162 C163 1.491 . S
C162 O180 1.254 . S
C162 O181 1.225 . S
C163 C162 1.491 . S
C163 C164 1.392 . S
C163 C168 1.356 . S
C164 C163 1.392 . S
C164 C165 1.368 . S
C164 H192 0.929 . S
C165 C164 1.368 . S
C165 C166 1.386 . S
C165 H193 0.929 . S
C166 C165 1.386 . S
C166 C167 1.373 . S
C167 C166 1.373 . S
C167 C168 1.409 . S
C167 H194 0.931 . S
C168 C163 1.356 . S
C168 C167 1.409 . S
C168 H195 0.930 . S
C169 O182 1.270 . S
C169 O183 1.248 1_554 S
C170 O184 1.256 1_556 S
C170 O185 1.287 . S
C171 Pr161 2.880 . S
C171 C172 1.491 . S
C171 O186 1.254 . S
C171 O187 1.225 . S
C172 C171 1.491 . S
C172 C173 1.392 . S
C172 C177 1.356 . S
C173 C172 1.392 . S
C173 C174 1.368 . S
C173 H196 0.929 . S
C174 C173 1.368 . S
C174 C175 1.386 . S
C174 H197 0.929 . S
C175 C174 1.386 . S
C175 C176 1.373 . S
C176 C175 1.373 . S
C176 C177 1.409 . S
C176 H198 0.931 . S
C177 C172 1.356 . S
C177 C176 1.409 . S
C177 H199 0.930 . S
C178 O188 1.270 . S
C178 O189 1.248 . S
C179 O190 1.267 . S
C179 O191 1.278 . S
O180 Pr160 2.562 . S
O180 C162 1.254 . S
O181 Pr160 2.490 . S
O181 C162 1.225 . S
O182 Pr160 2.695 1_554 S
O182 Pr161 2.436 . S
O182 C169 1.270 . S
O183 Pr160 2.512 . S
O183 C169 1.248 1_556 S
O184 Pr161 2.438 . S
O184 C170 1.256 1_554 S
O185 Pr160 2.437 . S
O185 C170 1.287 . S
O186 Pr161 2.562 . S
O186 C171 1.254 . S
O187 Pr161 2.490 . S
O187 C171 1.225 . S
O188 Pr160 2.436 . S
O188 Pr161 2.695 1_556 S
O188 C178 1.270 . S
O189 Pr161 2.512 1_556 S
O189 C178 1.248 . S
O190 Pr160 2.438 . S
O190 C179 1.267 . S
O191 Pr161 2.437 1_556 S
O191 C179 1.278 . S
H192 C164 0.929 . S
H193 C165 0.929 . S
H194 C167 0.931 . S
H195 C168 0.930 . S
H196 C173 0.929 . S
H197 C174 0.929 . S
H198 C176 0.931 . S
H199 C177 0.930 . S
Pr200 C202 2.880 . S
Pr200 O220 2.562 . S
Pr200 O221 2.490 . S
Pr200 O222 2.695 . S
Pr200 O223 2.512 . S
Pr200 O225 2.437 . S
Pr200 O228 2.436 . S
Pr200 O230 2.438 . S
Pr201 C211 2.880 . S
Pr201 O222 2.436 . S
Pr201 O224 2.438 . S
Pr201 O226 2.562 . S
Pr201 O227 2.490 . S
Pr201 O228 2.695 . S
Pr201 O229 2.512 . S
Pr201 O231 2.437 . S
C202 Pr200 2.880 . S
C202 C203 1.491 . S
C202 O220 1.254 . S
C202 O221 1.225 . S
C203 C202 1.491 . S
C203 C204 1.392 . S
C203 C208 1.356 . S
C204 C203 1.392 . S
C204 C205 1.368 . S
C204 H232 0.929 . S
C205 C204 1.368 . S
C205 C206 1.386 . S
C205 H233 0.929 . S
C206 C205 1.386 . S
C206 C207 1.373 . S
C207 C206 1.373 . S
C207 C208 1.409 . S
C207 H234 0.931 . S
C208 C203 1.356 . S
C208 C207 1.409 . S
C208 H235 0.930 . S
C209 O222 1.270 . S
C209 O223 1.248 . S
C210 O224 1.267 . S
C210 O225 1.278 . S
C211 Pr201 2.880 . S
C211 C212 1.491 . S
C211 O226 1.254 . S
C211 O227 1.225 . S
C212 C211 1.491 . S
C212 C213 1.392 . S
C212 C217 1.356 . S
C213 C212 1.392 . S
C213 C214 1.368 . S
C213 H236 0.929 . S
C214 C213 1.368 . S
C214 C215 1.386 . S
C214 H237 0.929 . S
C215 C214 1.386 . S
C215 C216 1.373 . S
C216 C215 1.373 . S
C216 C217 1.409 . S
C216 H238 0.931 . S
C217 C212 1.356 . S
C217 C216 1.409 . S
C217 H239 0.930 . S
C218 O228 1.270 . S
C218 O229 1.248 . S
C219 O230 1.267 . S
C219 O231 1.278 . S
O220 Pr200 2.562 . S
O220 C202 1.254 . S
O221 Pr200 2.490 . S
O221 C202 1.225 . S
O222 Pr200 2.695 . S
O222 Pr201 2.436 . S
O222 C209 1.270 . S
O223 Pr200 2.512 . S
O223 C209 1.248 . S
O224 Pr201 2.438 . S
O224 C210 1.267 . S
O225 Pr200 2.437 . S
O225 C210 1.278 . S
O226 Pr201 2.562 . S
O226 C211 1.254 . S
O227 Pr201 2.490 . S
O227 C211 1.225 . S
O228 Pr200 2.436 . S
O228 Pr201 2.695 . S
O228 C218 1.270 . S
O229 Pr201 2.512 . S
O229 C218 1.248 . S
O230 Pr200 2.438 . S
O230 C219 1.267 . S
O231 Pr201 2.437 . S
O231 C219 1.278 . S
H232 C204 0.929 . S
H233 C205 0.929 . S
H234 C207 0.931 . S
H235 C208 0.930 . S
H236 C213 0.929 . S
H237 C214 0.929 . S
H238 C216 0.931 . S
H239 C217 0.930 . S
Pr240 C242 2.880 . S
Pr240 O260 2.562 . S
Pr240 O261 2.490 . S
Pr240 O262 2.695 . S
Pr240 O263 2.512 . S
Pr240 O265 2.437 . S
Pr240 O268 2.436 . S
Pr240 O270 2.438 . S
Pr241 C251 2.880 . S
Pr241 O262 2.436 . S
Pr241 O264 2.438 . S
Pr241 O266 2.562 . S
Pr241 O267 2.490 . S
Pr241 O268 2.695 . S
Pr241 O269 2.512 . S
Pr241 O271 2.437 . S
C242 Pr240 2.880 . S
C242 C243 1.491 . S
C242 O260 1.254 . S
C242 O261 1.225 . S
C243 C242 1.491 . S
C243 C244 1.392 . S
C243 C248 1.356 . S
C244 C243 1.392 . S
C244 C245 1.368 . S
C244 H272 0.929 . S
C245 C244 1.368 . S
C245 C246 1.386 . S
C245 H273 0.929 . S
C246 C245 1.386 . S
C246 C247 1.373 . S
C247 C246 1.373 . S
C247 C248 1.409 . S
C247 H274 0.931 . S
C248 C243 1.356 . S
C248 C247 1.409 . S
C248 H275 0.930 . S
C249 O262 1.270 . S
C249 O263 1.248 . S
C250 O264 1.267 . S
C250 O265 1.278 . S
C251 Pr241 2.880 . S
C251 C252 1.491 . S
C251 O266 1.254 . S
C251 O267 1.225 . S
C252 C251 1.491 . S
C252 C253 1.392 . S
C252 C257 1.356 . S
C253 C252 1.392 . S
C253 C254 1.368 1_655 S
C253 H276 0.929 . S
C254 C253 1.368 1_455 S
C254 C255 1.386 . S
C254 H277 0.929 . S
C255 C254 1.386 . S
C255 C256 1.373 . S
C256 C255 1.373 . S
C256 C257 1.409 1_455 S
C256 H278 0.931 . S
C257 C252 1.356 . S
C257 C256 1.409 1_655 S
C257 H279 0.930 . S
C258 O268 1.270 . S
C258 O269 1.248 . S
C259 O270 1.267 . S
C259 O271 1.278 . S
O260 Pr240 2.562 . S
O260 C242 1.254 . S
O261 Pr240 2.490 . S
O261 C242 1.225 . S
O262 Pr240 2.695 . S
O262 Pr241 2.436 . S
O262 C249 1.270 . S
O263 Pr240 2.512 . S
O263 C249 1.248 . S
O264 Pr241 2.438 . S
O264 C250 1.267 . S
O265 Pr240 2.437 . S
O265 C250 1.278 . S
O266 Pr241 2.562 . S
O266 C251 1.254 . S
O267 Pr241 2.490 . S
O267 C251 1.225 . S
O268 Pr240 2.436 . S
O268 Pr241 2.695 . S
O268 C258 1.270 . S
O269 Pr241 2.512 . S
O269 C258 1.248 . S
O270 Pr240 2.438 . S
O270 C259 1.267 . S
O271 Pr241 2.437 . S
O271 C259 1.278 . S
H272 C244 0.929 . S
H273 C245 0.929 . S
H274 C247 0.931 . S
H275 C248 0.930 . S
H276 C253 0.929 . S
H277 C254 0.929 . S
H278 C256 0.931 . S
H279 C257 0.930 . S
Pr280 C282 2.880 . S
Pr280 O300 2.562 . S
Pr280 O301 2.490 . S
Pr280 O302 2.695 . S
Pr280 O303 2.512 . S
Pr280 O305 2.437 . S
Pr280 O308 2.436 . S
Pr280 O310 2.438 . S
Pr281 C291 2.880 . S
Pr281 O302 2.436 . S
Pr281 O304 2.438 . S
Pr281 O306 2.562 . S
Pr281 O307 2.490 . S
Pr281 O308 2.695 . S
Pr281 O309 2.512 . S
Pr281 O311 2.437 . S
C282 Pr280 2.880 . S
C282 C283 1.491 . S
C282 O300 1.254 . S
C282 O301 1.225 . S
C283 C282 1.491 . S
C283 C284 1.392 . S
C283 C288 1.356 . S
C284 C283 1.392 . S
C284 C285 1.368 . S
C284 H312 0.929 . S
C285 C284 1.368 . S
C285 C286 1.386 . S
C285 H313 0.929 . S
C286 C285 1.386 . S
C286 C287 1.373 . S
C287 C286 1.373 . S
C287 C288 1.409 . S
C287 H314 0.931 . S
C288 C283 1.356 . S
C288 C287 1.409 . S
C288 H315 0.930 . S
C289 O302 1.270 . S
C289 O303 1.248 . S
C290 O304 1.267 . S
C290 O305 1.278 . S
C291 Pr281 2.880 . S
C291 C292 1.491 . S
C291 O306 1.254 . S
C291 O307 1.225 . S
C292 C291 1.491 . S
C292 C293 1.392 . S
C292 C297 1.356 . S
C293 C292 1.392 . S
C293 C294 1.368 . S
C293 H316 0.929 . S
C294 C293 1.368 . S
C294 C295 1.386 . S
C294 H317 0.929 . S
C295 C294 1.386 . S
C295 C296 1.373 . S
C296 C295 1.373 . S
C296 C297 1.409 . S
C296 H318 0.931 . S
C297 C292 1.356 . S
C297 C296 1.409 . S
C297 H319 0.930 . S
C298 O308 1.270 . S
C298 O309 1.248 . S
C299 O310 1.267 . S
C299 O311 1.278 . S
O300 Pr280 2.562 . S
O300 C282 1.254 . S
O301 Pr280 2.490 . S
O301 C282 1.225 . S
O302 Pr280 2.695 . S
O302 Pr281 2.436 . S
O302 C289 1.270 . S
O303 Pr280 2.512 . S
O303 C289 1.248 . S
O304 Pr281 2.438 . S
O304 C290 1.267 . S
O305 Pr280 2.437 . S
O305 C290 1.278 . S
O306 Pr281 2.562 . S
O306 C291 1.254 . S
O307 Pr281 2.490 . S
O307 C291 1.225 . S
O308 Pr280 2.436 . S
O308 Pr281 2.695 . S
O308 C298 1.270 . S
O309 Pr281 2.512 . S
O309 C298 1.248 . S
O310 Pr280 2.438 . S
O310 C299 1.267 . S
O311 Pr281 2.437 . S
O311 C299 1.278 . S
H312 C284 0.929 . S
H313 C285 0.929 . S
H314 C287 0.931 . S
H315 C288 0.930 . S
H316 C293 0.929 . S
H317 C294 0.929 . S
H318 C296 0.931 . S
H319 C297 0.930 . S
Pr320 C322 2.880 . S
Pr320 O340 2.562 . S
Pr320 O341 2.490 . S
Pr320 O342 2.695 . S
Pr320 O343 2.512 . S
Pr320 O345 2.437 . S
Pr320 O348 2.436 . S
Pr320 O350 2.438 . S
Pr321 C331 2.880 . S
Pr321 O342 2.436 . S
Pr321 O344 2.438 . S
Pr321 O346 2.562 . S
Pr321 O347 2.490 . S
Pr321 O348 2.695 . S
Pr321 O349 2.512 . S
Pr321 O351 2.437 . S
C322 Pr320 2.880 . S
C322 C323 1.491 . S
C322 O340 1.254 . S
C322 O341 1.225 . S
C323 C322 1.491 . S
C323 C324 1.392 . S
C323 C328 1.356 . S
C324 C323 1.392 . S
C324 C325 1.368 1_655 S
C324 H352 0.929 . S
C325 C324 1.368 1_455 S
C325 C326 1.386 . S
C325 H353 0.929 . S
C326 C325 1.386 . S
C326 C327 1.373 . S
C327 C326 1.373 . S
C327 C328 1.409 1_455 S
C327 H354 0.931 . S
C328 C323 1.356 . S
C328 C327 1.409 1_655 S
C328 H355 0.930 . S
C329 O342 1.270 . S
C329 O343 1.248 . S
C330 O344 1.267 . S
C330 O345 1.278 . S
C331 Pr321 2.880 . S
C331 C332 1.491 . S
C331 O346 1.254 . S
C331 O347 1.225 . S
C332 C331 1.491 . S
C332 C333 1.392 . S
C332 C337 1.356 . S
C333 C332 1.392 . S
C333 C334 1.368 . S
C333 H356 0.929 . S
C334 C333 1.368 . S
C334 C335 1.386 . S
C334 H357 0.929 . S
C335 C334 1.386 . S
C335 C336 1.373 . S
C336 C335 1.373 . S
C336 C337 1.409 . S
C336 H358 0.931 . S
C337 C332 1.356 . S
C337 C336 1.409 . S
C337 H359 0.930 . S
C338 O348 1.270 . S
C338 O349 1.248 . S
C339 O350 1.267 . S
C339 O351 1.278 . S
O340 Pr320 2.562 . S
O340 C322 1.254 . S
O341 Pr320 2.490 . S
O341 C322 1.225 . S
O342 Pr320 2.695 . S
O342 Pr321 2.436 . S
O342 C329 1.270 . S
O343 Pr320 2.512 . S
O343 C329 1.248 . S
O344 Pr321 2.438 . S
O344 C330 1.267 . S
O345 Pr320 2.437 . S
O345 C330 1.278 . S
O346 Pr321 2.562 . S
O346 C331 1.254 . S
O347 Pr321 2.490 . S
O347 C331 1.225 . S
O348 Pr320 2.436 . S
O348 Pr321 2.695 . S
O348 C338 1.270 . S
O349 Pr321 2.512 . S
O349 C338 1.248 . S
O350 Pr320 2.438 . S
O350 C339 1.267 . S
O351 Pr321 2.437 . S
O351 C339 1.278 . S
H352 C324 0.929 . S
H353 C325 0.929 . S
H354 C327 0.931 . S
H355 C328 0.930 . S
H356 C333 0.929 . S
H357 C334 0.929 . S
H358 C336 0.931 . S
H359 C337 0.930 . S
Pr360 C362 2.880 . S
Pr360 O380 2.562 . S
Pr360 O381 2.490 . S
Pr360 O382 2.695 . S
Pr360 O383 2.512 . S
Pr360 O385 2.437 . S
Pr360 O388 2.436 . S
Pr360 O390 2.438 . S
Pr361 C371 2.880 . S
Pr361 O382 2.436 . S
Pr361 O384 2.438 . S
Pr361 O386 2.562 . S
Pr361 O387 2.490 . S
Pr361 O388 2.695 . S
Pr361 O389 2.512 . S
Pr361 O391 2.437 . S
C362 Pr360 2.880 . S
C362 C363 1.491 . S
C362 O380 1.254 . S
C362 O381 1.225 . S
C363 C362 1.491 . S
C363 C364 1.392 . S
C363 C368 1.356 . S
C364 C363 1.392 . S
C364 C365 1.368 . S
C364 H392 0.929 . S
C365 C364 1.368 . S
C365 C366 1.386 . S
C365 H393 0.929 . S
C366 C365 1.386 . S
C366 C367 1.373 . S
C367 C366 1.373 . S
C367 C368 1.409 . S
C367 H394 0.931 . S
C368 C363 1.356 . S
C368 C367 1.409 . S
C368 H395 0.930 . S
C369 O382 1.270 . S
C369 O383 1.248 . S
C370 O384 1.267 . S
C370 O385 1.278 . S
C371 Pr361 2.880 . S
C371 C372 1.491 . S
C371 O386 1.254 . S
C371 O387 1.225 . S
C372 C371 1.491 . S
C372 C373 1.392 . S
C372 C377 1.356 . S
C373 C372 1.392 . S
C373 C374 1.367 . S
C373 H396 0.929 . S
C374 C373 1.367 . S
C374 C375 1.387 1_545 S
C374 H397 0.929 1_545 S
C375 C374 1.387 1_565 S
C375 C376 1.373 . S
C376 C375 1.373 . S
C376 C377 1.409 1_565 S
C376 H398 0.931 . S
C377 C372 1.356 . S
C377 C376 1.409 1_545 S
C377 H399 0.930 . S
C378 O388 1.270 . S
C378 O389 1.248 . S
C379 O390 1.267 . S
C379 O391 1.278 . S
O380 Pr360 2.562 . S
O380 C362 1.254 . S
O381 Pr360 2.490 . S
O381 C362 1.225 . S
O382 Pr360 2.695 . S
O382 Pr361 2.436 . S
O382 C369 1.270 . S
O383 Pr360 2.512 . S
O383 C369 1.248 . S
O384 Pr361 2.438 . S
O384 C370 1.267 . S
O385 Pr360 2.437 . S
O385 C370 1.278 . S
O386 Pr361 2.562 . S
O386 C371 1.254 . S
O387 Pr361 2.490 . S
O387 C371 1.225 . S
O388 Pr360 2.436 . S
O388 Pr361 2.695 . S
O388 C378 1.270 . S
O389 Pr361 2.512 . S
O389 C378 1.248 . S
O390 Pr360 2.438 . S
O390 C379 1.267 . S
O391 Pr361 2.437 . S
O391 C379 1.278 . S
H392 C364 0.929 . S
H393 C365 0.929 . S
H394 C367 0.931 . S
H395 C368 0.930 . S
H396 C373 0.929 . S
H397 C374 0.929 1_565 S
H398 C376 0.931 . S
H399 C377 0.930 . S
Pr400 C402 2.880 . S
Pr400 O420 2.562 . S
Pr400 O421 2.490 . S
Pr400 O422 2.695 1_556 S
Pr400 O423 2.512 1_556 S
Pr400 O425 2.437 1_556 S
Pr400 O428 2.436 . S
Pr400 O430 2.438 . S
Pr401 C411 2.880 . S
Pr401 O422 2.436 . S
Pr401 O424 2.438 . S
Pr401 O426 2.562 . S
Pr401 O427 2.490 . S
Pr401 O428 2.695 1_554 S
Pr401 O429 2.512 . S
Pr401 O431 2.437 . S
C402 Pr400 2.880 . S
C402 C403 1.491 . S
C402 O420 1.254 . S
C402 O421 1.225 . S
C403 C402 1.491 . S
C403 C404 1.392 . S
C403 C408 1.356 . S
C404 C403 1.392 . S
C404 C405 1.368 . S
C404 H432 0.929 . S
C405 C404 1.368 . S
C405 C406 1.386 . S
C405 H433 0.929 . S
C406 C405 1.386 . S
C406 C407 1.373 . S
C407 C406 1.373 . S
C407 C408 1.409 . S
C407 H434 0.931 . S
C408 C403 1.356 . S
C408 C407 1.409 . S
C408 H435 0.930 . S
C409 O422 1.270 . S
C409 O423 1.248 . S
C410 O424 1.267 . S
C410 O425 1.278 . S
C411 Pr401 2.880 . S
C411 C412 1.491 . S
C411 O426 1.254 . S
C411 O427 1.225 . S
C412 C411 1.491 . S
C412 C413 1.392 . S
C412 C417 1.356 . S
C413 C412 1.392 . S
C413 C414 1.368 . S
C413 H436 0.929 . S
C414 C413 1.368 . S
C414 C415 1.386 . S
C414 H437 0.929 . S
C415 C414 1.386 . S
C415 C416 1.373 . S
C416 C415 1.373 . S
C416 C417 1.409 . S
C416 H438 0.931 . S
C417 C412 1.356 . S
C417 C416 1.409 . S
C417 H439 0.930 . S
C418 O428 1.270 . S
C418 O429 1.248 1_556 S
C419 O430 1.256 1_554 S
C419 O431 1.287 . S
O420 Pr400 2.562 . S
O420 C402 1.254 . S
O421 Pr400 2.490 . S
O421 C402 1.225 . S
O422 Pr400 2.695 1_554 S
O422 Pr401 2.436 . S
O422 C409 1.270 . S
O423 Pr400 2.512 1_554 S
O423 C409 1.248 . S
O424 Pr401 2.438 . S
O424 C410 1.267 . S
O425 Pr400 2.437 1_554 S
O425 C410 1.278 . S
O426 Pr401 2.562 . S
O426 C411 1.254 . S
O427 Pr401 2.490 . S
O427 C411 1.225 . S
O428 Pr400 2.436 . S
O428 Pr401 2.695 1_556 S
O428 C418 1.270 . S
O429 Pr401 2.512 . S
O429 C418 1.248 1_554 S
O430 Pr400 2.438 . S
O430 C419 1.256 1_556 S
O431 Pr401 2.437 . S
O431 C419 1.287 . S
H432 C404 0.929 . S
H433 C405 0.929 . S
H434 C407 0.931 . S
H435 C408 0.930 . S
H436 C413 0.929 . S
H437 C414 0.929 . S
H438 C416 0.931 . S
H439 C417 0.930 . S
Pr440 C442 2.880 . S
Pr440 O460 2.562 . S
Pr440 O461 2.490 . S
Pr440 O462 2.695 . S
Pr440 O463 2.512 . S
Pr440 O465 2.437 . S
Pr440 O468 2.436 . S
Pr440 O470 2.438 . S
Pr441 C451 2.880 . S
Pr441 O462 2.436 . S
Pr441 O464 2.438 . S
Pr441 O466 2.562 . S
Pr441 O467 2.490 . S
Pr441 O468 2.695 . S
Pr441 O469 2.512 . S
Pr441 O471 2.437 . S
C442 Pr440 2.880 . S
C442 C443 1.491 . S
C442 O460 1.254 . S
C442 O461 1.225 . S
C443 C442 1.491 . S
C443 C444 1.392 . S
C443 C448 1.356 . S
C444 C443 1.392 . S
C444 C445 1.368 . S
C444 H472 0.929 . S
C445 C444 1.368 . S
C445 C446 1.386 . S
C445 H473 0.929 . S
C446 C445 1.386 . S
C446 C447 1.373 . S
C447 C446 1.373 . S
C447 C448 1.409 . S
C447 H474 0.931 . S
C448 C443 1.356 . S
C448 C447 1.409 . S
C448 H475 0.930 . S
C449 O462 1.270 . S
C449 O463 1.248 . S
C450 O464 1.267 . S
C450 O465 1.278 . S
C451 Pr441 2.880 . S
C451 C452 1.491 . S
C451 O466 1.254 . S
C451 O467 1.225 . S
C452 C451 1.491 . S
C452 C453 1.392 . S
C452 C457 1.356 . S
C453 C452 1.392 . S
C453 C454 1.367 . S
C453 H476 0.929 . S
C454 C453 1.367 . S
C454 C455 1.387 1_565 S
C454 H477 0.929 1_565 S
C455 C454 1.387 1_545 S
C455 C456 1.373 . S
C456 C455 1.373 . S
C456 C457 1.409 1_545 S
C456 H478 0.931 . S
C457 C452 1.356 . S
C457 C456 1.409 1_565 S
C457 H479 0.930 . S
C458 O468 1.270 . S
C458 O469 1.248 . S
C459 O470 1.267 . S
C459 O471 1.278 . S
O460 Pr440 2.562 . S
O460 C442 1.254 . S
O461 Pr440 2.490 . S
O461 C442 1.225 . S
O462 Pr440 2.695 . S
O462 Pr441 2.436 . S
O462 C449 1.270 . S
O463 Pr440 2.512 . S
O463 C449 1.248 . S
O464 Pr441 2.438 . S
O464 C450 1.267 . S
O465 Pr440 2.437 . S
O465 C450 1.278 . S
O466 Pr441 2.562 . S
O466 C451 1.254 . S
O467 Pr441 2.490 . S
O467 C451 1.225 . S
O468 Pr440 2.436 . S
O468 Pr441 2.695 . S
O468 C458 1.270 . S
O469 Pr441 2.512 . S
O469 C458 1.248 . S
O470 Pr440 2.438 . S
O470 C459 1.267 . S
O471 Pr441 2.437 . S
O471 C459 1.278 . S
H472 C444 0.929 . S
H473 C445 0.929 . S
H474 C447 0.931 . S
H475 C448 0.930 . S
H476 C453 0.929 . S
H477 C454 0.929 1_545 S
H478 C456 0.931 . S
H479 C457 0.930 . S
Pr480 C482 2.880 . S
Pr480 O500 2.562 . S
Pr480 O501 2.490 . S
Pr480 O502 2.695 . S
Pr480 O503 2.512 . S
Pr480 O505 2.437 . S
Pr480 O508 2.436 . S
Pr480 O510 2.438 . S
Pr481 C491 2.880 . S
Pr481 O502 2.436 . S
Pr481 O504 2.438 . S
Pr481 O506 2.562 . S
Pr481 O507 2.490 . S
Pr481 O508 2.695 . S
Pr481 O509 2.512 . S
Pr481 O511 2.437 . S
C482 Pr480 2.880 . S
C482 C483 1.491 . S
C482 O500 1.254 . S
C482 O501 1.225 . S
C483 C482 1.491 . S
C483 C484 1.392 . S
C483 C488 1.356 . S
C484 C483 1.392 . S
C484 C485 1.368 . S
C484 H512 0.929 . S
C485 C484 1.368 . S
C485 C486 1.386 . S
C485 H513 0.929 . S
C486 C485 1.386 . S
C486 C487 1.373 . S
C487 C486 1.373 . S
C487 C488 1.409 . S
C487 H514 0.931 . S
C488 C483 1.356 . S
C488 C487 1.409 . S
C488 H515 0.930 . S
C489 O502 1.270 . S
C489 O503 1.248 . S
C490 O504 1.267 . S
C490 O505 1.278 . S
C491 Pr481 2.880 . S
C491 C492 1.491 . S
C491 O506 1.254 . S
C491 O507 1.225 . S
C492 C491 1.491 . S
C492 C493 1.392 . S
C492 C497 1.356 . S
C493 C492 1.392 . S
C493 C494 1.368 1_455 S
C493 H516 0.929 . S
C494 C493 1.368 1_655 S
C494 C495 1.386 . S
C494 H517 0.929 . S
C495 C494 1.386 . S
C495 C496 1.373 . S
C496 C495 1.373 . S
C496 C497 1.409 1_655 S
C496 H518 0.931 . S
C497 C492 1.356 . S
C497 C496 1.409 1_455 S
C497 H519 0.930 . S
C498 O508 1.270 . S
C498 O509 1.248 . S
C499 O510 1.267 . S
C499 O511 1.278 . S
O500 Pr480 2.562 . S
O500 C482 1.254 . S
O501 Pr480 2.490 . S
O501 C482 1.225 . S
O502 Pr480 2.695 . S
O502 Pr481 2.436 . S
O502 C489 1.270 . S
O503 Pr480 2.512 . S
O503 C489 1.248 . S
O504 Pr481 2.438 . S
O504 C490 1.267 . S
O505 Pr480 2.437 . S
O505 C490 1.278 . S
O506 Pr481 2.562 . S
O506 C491 1.254 . S
O507 Pr481 2.490 . S
O507 C491 1.225 . S
O508 Pr480 2.436 . S
O508 Pr481 2.695 . S
O508 C498 1.270 . S
O509 Pr481 2.512 . S
O509 C498 1.248 . S
O510 Pr480 2.438 . S
O510 C499 1.267 . S
O511 Pr481 2.437 . S
O511 C499 1.278 . S
H512 C484 0.929 . S
H513 C485 0.929 . S
H514 C487 0.931 . S
H515 C488 0.930 . S
H516 C493 0.929 . S
H517 C494 0.929 . S
H518 C496 0.931 . S
H519 C497 0.930 . S
Pr520 C522 2.880 . S
Pr520 O540 2.562 . S
Pr520 O541 2.490 . S
Pr520 O542 2.695 . S
Pr520 O543 2.512 . S
Pr520 O545 2.437 . S
Pr520 O548 2.436 . S
Pr520 O550 2.438 . S
Pr521 C531 2.880 . S
Pr521 O542 2.436 . S
Pr521 O544 2.438 . S
Pr521 O546 2.562 . S
Pr521 O547 2.490 . S
Pr521 O548 2.695 . S
Pr521 O549 2.512 . S
Pr521 O551 2.437 . S
C522 Pr520 2.880 . S
C522 C523 1.491 . S
C522 O540 1.254 . S
C522 O541 1.225 . S
C523 C522 1.491 . S
C523 C524 1.392 . S
C523 C528 1.356 . S
C524 C523 1.392 . S
C524 C525 1.367 . S
C524 H552 0.929 . S
C525 C524 1.367 . S
C525 C526 1.387 1_565 S
C525 H553 0.929 1_565 S
C526 C525 1.387 1_545 S
C526 C527 1.373 . S
C527 C526 1.373 . S
C527 C528 1.409 1_545 S
C527 H554 0.931 . S
C528 C523 1.356 . S
C528 C527 1.409 1_565 S
C528 H555 0.930 . S
C529 O542 1.270 . S
C529 O543 1.248 . S
C530 O544 1.267 . S
C530 O545 1.278 . S
C531 Pr521 2.880 . S
C531 C532 1.491 . S
C531 O546 1.254 . S
C531 O547 1.225 . S
C532 C531 1.491 . S
C532 C533 1.392 . S
C532 C537 1.356 . S
C533 C532 1.392 . S
C533 C534 1.368 . S
C533 H556 0.929 . S
C534 C533 1.368 . S
C534 C535 1.386 . S
C534 H557 0.929 . S
C535 C534 1.386 . S
C535 C536 1.373 . S
C536 C535 1.373 . S
C536 C537 1.409 . S
C536 H558 0.931 . S
C537 C532 1.356 . S
C537 C536 1.409 . S
C537 H559 0.930 . S
C538 O548 1.270 . S
C538 O549 1.248 . S
C539 O550 1.267 . S
C539 O551 1.278 . S
O540 Pr520 2.562 . S
O540 C522 1.254 . S
O541 Pr520 2.490 . S
O541 C522 1.225 . S
O542 Pr520 2.695 . S
O542 Pr521 2.436 . S
O542 C529 1.270 . S
O543 Pr520 2.512 . S
O543 C529 1.248 . S
O544 Pr521 2.438 . S
O544 C530 1.267 . S
O545 Pr520 2.437 . S
O545 C530 1.278 . S
O546 Pr521 2.562 . S
O546 C531 1.254 . S
O547 Pr521 2.490 . S
O547 C531 1.225 . S
O548 Pr520 2.436 . S
O548 Pr521 2.695 . S
O548 C538 1.270 . S
O549 Pr521 2.512 . S
O549 C538 1.248 . S
O550 Pr520 2.438 . S
O550 C539 1.267 . S
O551 Pr521 2.437 . S
O551 C539 1.278 . S
H552 C524 0.929 . S
H553 C525 0.929 1_545 S
H554 C527 0.931 . S
H555 C528 0.930 . S
H556 C533 0.929 . S
H557 C534 0.929 . S
H558 C536 0.931 . S
H559 C537 0.930 . S
Pr560 C562 2.880 . S
Pr560 O580 2.562 . S
Pr560 O581 2.490 . S
Pr560 O582 2.695 1_556 S
Pr560 O583 2.512 . S
Pr560 O585 2.437 . S
Pr560 O588 2.436 . S
Pr560 O590 2.438 . S
Pr561 C571 2.880 . S
Pr561 O582 2.436 . S
Pr561 O584 2.438 . S
Pr561 O586 2.562 . S
Pr561 O587 2.490 . S
Pr561 O588 2.695 1_554 S
Pr561 O589 2.512 1_554 S
Pr561 O591 2.437 1_554 S
C562 Pr560 2.880 . S
C562 C563 1.491 . S
C562 O580 1.254 . S
C562 O581 1.225 . S
C563 C562 1.491 . S
C563 C564 1.392 . S
C563 C568 1.356 . S
C564 C563 1.392 . S
C564 C565 1.368 . S
C564 H592 0.929 . S
C565 C564 1.368 . S
C565 C566 1.386 . S
C565 H593 0.929 . S
C566 C565 1.386 . S
C566 C567 1.373 . S
C567 C566 1.373 . S
C567 C568 1.409 . S
C567 H594 0.931 . S
C568 C563 1.356 . S
C568 C567 1.409 . S
C568 H595 0.930 . S
C569 O582 1.270 . S
C569 O583 1.248 1_554 S
C570 O584 1.256 1_556 S
C570 O585 1.287 . S
C571 Pr561 2.880 . S
C571 C572 1.491 . S
C571 O586 1.254 . S
C571 O587 1.225 . S
C572 C571 1.491 . S
C572 C573 1.392 . S
C572 C577 1.356 . S
C573 C572 1.392 . S
C573 C574 1.368 . S
C573 H596 0.929 . S
C574 C573 1.368 . S
C574 C575 1.386 . S
C574 H597 0.929 . S
C575 C574 1.386 . S
C575 C576 1.373 . S
C576 C575 1.373 . S
C576 C577 1.409 . S
C576 H598 0.931 . S
C577 C572 1.356 . S
C577 C576 1.409 . S
C577 H599 0.930 . S
C578 O588 1.270 . S
C578 O589 1.248 . S
C579 O590 1.267 . S
C579 O591 1.278 . S
O580 Pr560 2.562 . S
O580 C562 1.254 . S
O581 Pr560 2.490 . S
O581 C562 1.225 . S
O582 Pr560 2.695 1_554 S
O582 Pr561 2.436 . S
O582 C569 1.270 . S
O583 Pr560 2.512 . S
O583 C569 1.248 1_556 S
O584 Pr561 2.438 . S
O584 C570 1.256 1_554 S
O585 Pr560 2.437 . S
O585 C570 1.287 . S
O586 Pr561 2.562 . S
O586 C571 1.254 . S
O587 Pr561 2.490 . S
O587 C571 1.225 . S
O588 Pr560 2.436 . S
O588 Pr561 2.695 1_556 S
O588 C578 1.270 . S
O589 Pr561 2.512 1_556 S
O589 C578 1.248 . S
O590 Pr560 2.438 . S
O590 C579 1.267 . S
O591 Pr561 2.437 1_556 S
O591 C579 1.278 . S
H592 C564 0.929 . S
H593 C565 0.929 . S
H594 C567 0.931 . S
H595 C568 0.930 . S
H596 C573 0.929 . S
H597 C574 0.929 . S
H598 C576 0.931 . S
H599 C577 0.930 . S
Pr600 C602 2.880 . S
Pr600 O620 2.562 . S
Pr600 O621 2.490 . S
Pr600 O622 2.695 . S
Pr600 O623 2.512 . S
Pr600 O625 2.437 . S
Pr600 O628 2.436 . S
Pr600 O630 2.438 . S
Pr601 C611 2.880 . S
Pr601 O622 2.436 . S
Pr601 O624 2.438 . S
Pr601 O626 2.562 . S
Pr601 O627 2.490 . S
Pr601 O628 2.695 . S
Pr601 O629 2.512 . S
Pr601 O631 2.437 . S
C602 Pr600 2.880 . S
C602 C603 1.491 . S
C602 O620 1.254 . S
C602 O621 1.225 . S
C603 C602 1.491 . S
C603 C604 1.392 . S
C603 C608 1.356 . S
C604 C603 1.392 . S
C604 C605 1.367 . S
C604 H632 0.929 . S
C605 C604 1.367 . S
C605 C606 1.387 1_545 S
C605 H633 0.929 1_545 S
C606 C605 1.387 1_565 S
C606 C607 1.373 . S
C607 C606 1.373 . S
C607 C608 1.409 1_565 S
C607 H634 0.931 . S
C608 C603 1.356 . S
C608 C607 1.409 1_545 S
C608 H635 0.930 . S
C609 O622 1.270 . S
C609 O623 1.248 . S
C610 O624 1.267 . S
C610 O625 1.278 . S
C611 Pr601 2.880 . S
C611 C612 1.491 . S
C611 O626 1.254 . S
C611 O627 1.225 . S
C612 C611 1.491 . S
C612 C613 1.392 . S
C612 C617 1.356 . S
C613 C612 1.392 . S
C613 C614 1.368 . S
C613 H636 0.929 . S
C614 C613 1.368 . S
C614 C615 1.386 . S
C614 H637 0.929 . S
C615 C614 1.386 . S
C615 C616 1.373 . S
C616 C615 1.373 . S
C616 C617 1.409 . S
C616 H638 0.931 . S
C617 C612 1.356 . S
C617 C616 1.409 . S
C617 H639 0.930 . S
C618 O628 1.270 . S
C618 O629 1.248 . S
C619 O630 1.267 . S
C619 O631 1.278 . S
O620 Pr600 2.562 . S
O620 C602 1.254 . S
O621 Pr600 2.490 . S
O621 C602 1.225 . S
O622 Pr600 2.695 . S
O622 Pr601 2.436 . S
O622 C609 1.270 . S
O623 Pr600 2.512 . S
O623 C609 1.248 . S
O624 Pr601 2.438 . S
O624 C610 1.267 . S
O625 Pr600 2.437 . S
O625 C610 1.278 . S
O626 Pr601 2.562 . S
O626 C611 1.254 . S
O627 Pr601 2.490 . S
O627 C611 1.225 . S
O628 Pr600 2.436 . S
O628 Pr601 2.695 . S
O628 C618 1.270 . S
O629 Pr601 2.512 . S
O629 C618 1.248 . S
O630 Pr600 2.438 . S
O630 C619 1.267 . S
O631 Pr601 2.437 . S
O631 C619 1.278 . S
H632 C604 0.929 . S
H633 C605 0.929 1_565 S
H634 C607 0.931 . S
H635 C608 0.930 . S
H636 C613 0.929 . S
H637 C614 0.929 . S
H638 C616 0.931 . S
H639 C617 0.930 . S
C640 C641 1.399 . S
C640 H644 0.939 1_554 S
C640 C649 1.390 . S
C641 C640 1.399 . S
C641 C643 1.387 . S
H642 C649 0.939 1_556 S
C643 C641 1.387 . S
C643 C645 1.390 . S
C643 H647 0.950 . S
H644 C640 0.939 1_556 S
C645 C643 1.390 . S
C645 C646 1.387 . S
C645 H648 0.950 . S
C646 C645 1.387 . S
C646 C649 1.399 . S
H647 C643 0.950 . S
H648 C645 0.950 . S
C649 C640 1.390 . S
C649 H642 0.939 1_554 S
C649 C646 1.399 . S
C650 C651 1.387 . S
C650 H654 0.950 . S
C650 C659 1.390 . S
C651 C650 1.387 . S
C651 C653 1.387 . S
H652 C659 0.950 . S
C653 C651 1.387 . S
C653 C655 1.390 . S
C653 H657 0.950 . S
H654 C650 0.950 . S
C655 C653 1.390 . S
C655 C656 1.387 . S
C655 H658 0.950 . S
C656 C655 1.387 . S
C656 C659 1.387 . S
H657 C653 0.950 . S
H658 C655 0.950 . S
C659 C650 1.390 . S
C659 H652 0.950 . S
C659 C656 1.387 . S
C660 C661 1.387 . S
C660 H664 0.950 . S
C660 C669 1.390 1_455 S
C661 C660 1.387 . S
C661 C663 1.387 . S
H662 C669 0.950 . S
C663 C661 1.387 . S
C663 C665 1.390 1_455 S
C663 H667 0.950 . S
H664 C660 0.950 . S
C665 C663 1.390 1_655 S
C665 C666 1.387 . S
C665 H668 0.950 . S
C666 C665 1.387 . S
C666 C669 1.387 . S
H667 C663 0.950 . S
H668 C665 0.950 . S
C669 C660 1.390 1_655 S
C669 H662 0.950 . S
C669 C666 1.387 . S
C670 C671 1.387 . S
C670 H674 0.950 . S
C670 C679 1.390 1_655 S
C671 C670 1.387 . S
C671 C673 1.387 . S
H672 C679 0.950 . S
C673 C671 1.387 . S
C673 C675 1.390 1_655 S
C673 H677 0.950 . S
H674 C670 0.950 . S
C675 C673 1.390 1_455 S
C675 C676 1.387 . S
C675 H678 0.950 . S
C676 C675 1.387 . S
C676 C679 1.387 . S
H677 C673 0.950 . S
H678 C675 0.950 . S
C679 C670 1.390 1_455 S
C679 H672 0.950 . S
C679 C676 1.387 . S
C680 C681 1.387 . S
C680 H684 0.950 . S
C680 C689 1.390 . S
C681 C680 1.387 . S
C681 C683 1.399 . S
H682 C689 0.950 . S
C683 C681 1.399 . S
C683 C685 1.390 . S
C683 H687 0.939 1_556 S
H684 C680 0.950 . S
C685 C683 1.390 . S
C685 C686 1.399 . S
C685 H688 0.939 1_556 S
C686 C685 1.399 . S
C686 C689 1.387 . S
H687 C683 0.939 1_554 S
H688 C685 0.939 1_554 S
C689 C680 1.390 . S
C689 H682 0.950 . S
C689 C686 1.387 . S
C690 C691 1.387 . S
C690 H694 0.950 . S
C690 C699 1.390 . S
C691 C690 1.387 . S
C691 C693 1.387 . S
H692 C699 0.950 . S
C693 C691 1.387 . S
C693 C695 1.390 . S
C693 H697 0.950 . S
H694 C690 0.950 . S
C695 C693 1.390 . S
C695 C696 1.387 . S
C695 H698 0.950 . S
C696 C695 1.387 . S
C696 C699 1.387 . S
H697 C693 0.950 . S
H698 C695 0.950 . S
C699 C690 1.390 . S
C699 H692 0.950 . S
C699 C696 1.387 . S
C700 C701 1.387 . S
C700 H704 0.950 . S
C700 C709 1.390 1_655 S
C701 C700 1.387 . S
C701 C703 1.387 . S
H702 C709 0.950 . S
C703 C701 1.387 . S
C703 C705 1.390 1_655 S
C703 H707 0.950 . S
H704 C700 0.950 . S
C705 C703 1.390 1_455 S
C705 C706 1.387 . S
C705 H708 0.950 . S
C706 C705 1.387 . S
C706 C709 1.387 . S
H707 C703 0.950 . S
H708 C705 0.950 . S
C709 C700 1.390 1_455 S
C709 H702 0.950 . S
C709 C706 1.387 . S
C710 C711 1.387 . S
C710 H714 0.950 . S
C710 C719 1.390 1_455 S
C711 C710 1.387 . S
C711 C713 1.387 . S
H712 C719 0.950 . S
C713 C711 1.387 . S
C713 C715 1.390 1_455 S
C713 H717 0.950 . S
H714 C710 0.950 . S
C715 C713 1.390 1_655 S
C715 C716 1.387 . S
C715 H718 0.950 . S
C716 C715 1.387 . S
C716 C719 1.387 . S
H717 C713 0.950 . S
H718 C715 0.950 . S
C719 C710 1.390 1_655 S
C719 H712 0.950 . S
C719 C716 1.387 . S
C720 C721 1.387 . S
C720 H724 0.950 . S
C720 C729 1.390 . S
C721 C720 1.387 . S
C721 C723 1.387 . S
H722 C729 0.950 . S
C723 C721 1.387 . S
C723 C725 1.390 . S
C723 H727 0.950 . S
H724 C720 0.950 . S
C725 C723 1.390 . S
C725 C726 1.387 . S
C725 H728 0.950 . S
C726 C725 1.387 . S
C726 C729 1.387 . S
H727 C723 0.950 . S
H728 C725 0.950 . S
C729 C720 1.390 . S
C729 H722 0.950 . S
C729 C726 1.387 . S
C730 C731 1.387 . S
C730 H734 0.950 . S
C730 C739 1.390 . S
C731 C730 1.387 . S
C731 C733 1.387 . S
H732 C739 0.950 . S
C733 C731 1.387 . S
C733 C735 1.390 . S
C733 H737 0.950 . S
H734 C730 0.950 . S
C735 C733 1.390 . S
C735 C736 1.387 . S
C735 H738 0.950 . S
C736 C735 1.387 . S
C736 C739 1.387 . S
H737 C733 0.950 . S
H738 C735 0.950 . S
C739 C730 1.390 . S
C739 H732 0.950 . S
C739 C736 1.387 . S
C740 C741 1.387 . S
C740 H744 0.950 . S
C740 C749 1.390 . S
C741 C740 1.387 . S
C741 C743 1.387 . S
H742 C749 0.950 . S
C743 C741 1.387 . S
C743 C745 1.390 . S
C743 H747 0.950 . S
H744 C740 0.950 . S
C745 C743 1.390 . S
C745 C746 1.387 . S
C745 H748 0.950 . S
C746 C745 1.387 . S
C746 C749 1.387 . S
H747 C743 0.950 . S
H748 C745 0.950 . S
C749 C740 1.390 . S
C749 H742 0.950 . S
C749 C746 1.387 . S
C750 C751 1.387 . S
C750 H754 0.950 . S
C750 C759 1.390 . S
C751 C750 1.387 . S
C751 C753 1.387 . S
H752 C759 0.950 . S
C753 C751 1.387 . S
C753 C755 1.390 . S
C753 H757 0.950 . S
H754 C750 0.950 . S
C755 C753 1.390 . S
C755 C756 1.387 . S
C755 H758 0.950 . S
C756 C755 1.387 . S
C756 C759 1.387 . S
H757 C753 0.950 . S
H758 C755 0.950 . S
C759 C750 1.390 . S
C759 H752 0.950 . S
C759 C756 1.387 . S
C760 C761 1.387 . S
C760 H764 0.950 . S
C760 C769 1.390 . S
C761 C760 1.387 . S
C761 C763 1.387 . S
H762 C769 0.950 . S
C763 C761 1.387 . S
C763 C765 1.390 . S
C763 H767 0.950 . S
H764 C760 0.950 . S
C765 C763 1.390 . S
C765 C766 1.387 . S
C765 H768 0.950 . S
C766 C765 1.387 . S
C766 C769 1.387 . S
H767 C763 0.950 . S
H768 C765 0.950 . S
C769 C760 1.390 . S
C769 H762 0.950 . S
C769 C766 1.387 . S
C770 C771 1.387 . S
C770 H774 0.950 . S
C770 C779 1.390 . S
C771 C770 1.387 . S
C771 C773 1.387 . S
H772 C779 0.950 . S
C773 C771 1.387 . S
C773 C775 1.390 . S
C773 H777 0.950 . S
H774 C770 0.950 . S
C775 C773 1.390 . S
C775 C776 1.387 . S
C775 H778 0.950 . S
C776 C775 1.387 . S
C776 C779 1.387 . S
H777 C773 0.950 . S
H778 C775 0.950 . S
C779 C770 1.390 . S
C779 H772 0.950 . S
C779 C776 1.387 . S
C780 C781 1.387 . S
C780 H784 0.950 . S
C780 C789 1.390 . S
C781 C780 1.387 . S
C781 C783 1.387 . S
H782 C789 0.950 . S
C783 C781 1.387 . S
C783 C785 1.390 . S
C783 H787 0.950 . S
H784 C780 0.950 . S
C785 C783 1.390 . S
C785 C786 1.387 . S
C785 H788 0.950 . S
C786 C785 1.387 . S
C786 C789 1.387 . S
H787 C783 0.950 . S
H788 C785 0.950 . S
C789 C780 1.390 . S
C789 H782 0.950 . S
C789 C786 1.387 . S
C790 C791 1.387 . S
C790 H794 0.950 . S
C790 C799 1.390 . S
C791 C790 1.387 . S
C791 C793 1.387 . S
H792 C799 0.950 . S
C793 C791 1.387 . S
C793 C795 1.390 . S
C793 H797 0.950 . S
H794 C790 0.950 . S
C795 C793 1.390 . S
C795 C796 1.387 . S
C795 H798 0.950 . S
C796 C795 1.387 . S
C796 C799 1.387 . S
H797 C793 0.950 . S
H798 C795 0.950 . S
C799 C790 1.390 . S
C799 H792 0.950 . S
C799 C796 1.387 . S
C800 C801 1.387 . S
C800 H804 0.950 . S
C800 C809 1.390 . S
C801 C800 1.387 . S
C801 C803 1.387 . S
H802 C809 0.950 . S
C803 C801 1.387 . S
C803 C805 1.390 . S
C803 H807 0.950 . S
H804 C800 0.950 . S
C805 C803 1.390 . S
C805 C806 1.387 . S
C805 H808 0.950 . S
C806 C805 1.387 . S
C806 C809 1.387 . S
H807 C803 0.950 . S
H808 C805 0.950 . S
C809 C800 1.390 . S
C809 H802 0.950 . S
C809 C806 1.387 . S
C810 C811 1.387 1_565 S
C810 H814 0.950 1_565 S
C810 C819 1.390 . S
C811 C810 1.387 1_545 S
C811 C813 1.387 1_545 S
H812 C819 0.950 . S
C813 C811 1.387 1_565 S
C813 C815 1.390 . S
C813 H817 0.950 . S
H814 C810 0.950 1_545 S
C815 C813 1.390 . S
C815 C816 1.387 . S
C815 H818 0.950 . S
C816 C815 1.387 . S
C816 C819 1.387 . S
H817 C813 0.950 . S
H818 C815 0.950 . S
C819 C810 1.390 . S
C819 H812 0.950 . S
C819 C816 1.387 . S
C820 C821 1.387 . S
C820 H824 0.950 . S
C820 C829 1.390 . S
C821 C820 1.387 . S
C821 C823 1.387 . S
H822 C829 0.950 . S
C823 C821 1.387 . S
C823 C825 1.390 . S
C823 H827 0.950 . S
H824 C820 0.950 . S
C825 C823 1.390 . S
C825 C826 1.387 . S
C825 H828 0.950 . S
C826 C825 1.387 . S
C826 C829 1.387 . S
H827 C823 0.950 . S
H828 C825 0.950 . S
C829 C820 1.390 . S
C829 H822 0.950 . S
C829 C826 1.387 . S
C830 C831 1.379 1_545 S
C830 H834 0.933 1_545 S
C830 C839 1.417 . S
C831 C830 1.379 1_565 S
C831 C833 1.387 1_565 S
H832 C839 0.950 . S
C833 C831 1.387 1_545 S
C833 C835 1.390 . S
C833 H837 0.950 . S
H834 C830 0.933 1_565 S
C835 C833 1.390 . S
C835 C836 1.387 . S
C835 H838 0.950 . S
C836 C835 1.387 . S
C836 C839 1.387 . S
H837 C833 0.950 . S
H838 C835 0.950 . S
C839 C830 1.417 . S
C839 H832 0.950 . S
C839 C836 1.387 . S
C840 C841 1.387 . S
C840 H844 0.950 . S
C840 C849 1.390 . S
C841 C840 1.387 . S
C841 C843 1.387 . S
H842 C849 0.950 . S
C843 C841 1.387 . S
C843 C845 1.390 . S
C843 H847 0.950 . S
H844 C840 0.950 . S
C845 C843 1.390 . S
C845 C846 1.387 . S
C845 H848 0.950 . S
C846 C845 1.387 . S
C846 C849 1.387 . S
H847 C843 0.950 . S
H848 C845 0.950 . S
C849 C840 1.390 . S
C849 H842 0.950 . S
C849 C846 1.387 . S
C850 C851 1.387 . S
C850 H854 0.950 . S
C850 C859 1.390 1_545 S
C851 C850 1.387 . S
C851 C853 1.387 . S
H852 C859 0.950 . S
C853 C851 1.387 . S
C853 C855 1.390 . S
C853 H857 0.950 . S
H854 C850 0.950 . S
C855 C853 1.390 . S
C855 C856 1.387 1_545 S
C855 H858 0.950 . S
C856 C855 1.387 1_565 S
C856 C859 1.387 . S
H857 C853 0.950 . S
H858 C855 0.950 . S
C859 C850 1.390 1_565 S
C859 H852 0.950 . S
C859 C856 1.387 . S
C860 C861 1.387 . S
C860 H864 0.950 . S
C860 C869 1.390 . S
C861 C860 1.387 . S
C861 C863 1.387 . S
H862 C869 0.950 . S
C863 C861 1.387 . S
C863 C865 1.390 . S
C863 H867 0.950 . S
H864 C860 0.950 . S
C865 C863 1.390 . S
C865 C866 1.387 . S
C865 H868 0.950 . S
C866 C865 1.387 . S
C866 C869 1.387 . S
H867 C863 0.950 . S
H868 C865 0.950 . S
C869 C860 1.390 . S
C869 H862 0.950 . S
C869 C866 1.387 . S
C870 C871 1.387 1_565 S
C870 H874 0.950 . S
C870 C879 1.390 . S
C871 C870 1.387 1_545 S
C871 C873 1.387 1_545 S
H872 C879 0.950 . S
C873 C871 1.387 1_565 S
C873 C875 1.390 . S
C873 H877 0.950 1_565 S
H874 C870 0.950 . S
C875 C873 1.390 . S
C875 C876 1.387 . S
C875 H878 0.950 . S
C876 C875 1.387 . S
C876 C879 1.387 . S
H877 C873 0.950 1_545 S
H878 C875 0.950 . S
C879 C870 1.390 . S
C879 H872 0.950 . S
C879 C876 1.387 . S
C880 C881 1.387 . S
C880 H884 0.950 . S
C880 C889 1.390 . S
C881 C880 1.387 . S
C881 C883 1.387 . S
H882 C889 0.950 . S
C883 C881 1.387 . S
C883 C885 1.390 . S
C883 H887 0.950 . S
H884 C880 0.950 . S
C885 C883 1.390 . S
C885 C886 1.387 . S
C885 H888 0.950 . S
C886 C885 1.387 . S
C886 C889 1.387 . S
H887 C883 0.950 . S
H888 C885 0.950 . S
C889 C880 1.390 . S
C889 H882 0.950 . S
C889 C886 1.387 . S
C890 C891 1.387 . S
C890 H894 0.950 . S
C890 C899 1.390 . S
C891 C890 1.387 . S
C891 C893 1.387 . S
H892 C899 0.950 . S
C893 C891 1.387 . S
C893 C895 1.390 . S
C893 H897 0.950 . S
H894 C890 0.950 . S
C895 C893 1.390 . S
C895 C896 1.387 . S
C895 H898 0.950 . S
C896 C895 1.387 . S
C896 C899 1.387 . S
H897 C893 0.950 . S
H898 C895 0.950 . S
C899 C890 1.390 . S
C899 H892 0.950 . S
C899 C896 1.387 . S
C900 C901 1.387 . S
C900 H904 0.950 . S
C900 C909 1.390 . S
C901 C900 1.387 . S
C901 C903 1.387 . S
H902 C909 0.950 . S
C903 C901 1.387 . S
C903 C905 1.390 . S
C903 H907 0.950 . S
H904 C900 0.950 . S
C905 C903 1.390 . S
C905 C906 1.387 . S
C905 H908 0.950 . S
C906 C905 1.387 . S
C906 C909 1.387 . S
H907 C903 0.950 . S
H908 C905 0.950 . S
C909 C900 1.390 . S
C909 H902 0.950 . S
C909 C906 1.387 . S
C910 C911 1.387 . S
C910 H914 0.950 . S
C910 C919 1.390 . S
C911 C910 1.387 . S
C911 C913 1.387 . S
H912 C919 0.950 . S
C913 C911 1.387 . S
C913 C915 1.390 . S
C913 H917 0.950 . S
H914 C910 0.950 . S
C915 C913 1.390 . S
C915 C916 1.387 . S
C915 H918 0.950 . S
C916 C915 1.387 . S
C916 C919 1.387 . S
H917 C913 0.950 . S
H918 C915 0.950 . S
C919 C910 1.390 . S
C919 H912 0.950 . S
C919 C916 1.387 . S
C920 C921 1.387 . S
C920 H924 0.950 . S
C920 C929 1.390 . S
C921 C920 1.387 . S
C921 C923 1.387 . S
H922 C929 0.950 . S
C923 C921 1.387 . S
C923 C925 1.390 . S
C923 H927 0.950 . S
H924 C920 0.950 . S
C925 C923 1.390 . S
C925 C926 1.387 . S
C925 H928 0.950 . S
C926 C925 1.387 . S
C926 C929 1.387 . S
H927 C923 0.950 . S
H928 C925 0.950 . S
C929 C920 1.390 . S
C929 H922 0.950 . S
C929 C926 1.387 . S
C930 C931 1.387 . S
C930 H934 0.950 . S
C930 C939 1.390 . S
C931 C930 1.387 . S
C931 C933 1.387 . S
H932 C939 0.950 . S
C933 C931 1.387 . S
C933 C935 1.390 . S
C933 H937 0.950 . S
H934 C930 0.950 . S
C935 C933 1.390 . S
C935 C936 1.387 . S
C935 H938 0.950 . S
C936 C935 1.387 . S
C936 C939 1.387 . S
H937 C933 0.950 . S
H938 C935 0.950 . S
C939 C930 1.390 . S
C939 H932 0.950 . S
C939 C936 1.387 . S
C940 C941 1.387 . S
C940 H944 0.950 . S
C940 C949 1.390 . S
C941 C940 1.387 . S
C941 C943 1.387 . S
H942 C949 0.930 1_655 S
C943 C941 1.387 . S
C943 C945 1.390 . S
C943 H947 0.950 . S
H944 C940 0.950 . S
C945 C943 1.390 . S
C945 C946 1.387 . S
C945 H948 0.950 . S
C946 C945 1.387 . S
C946 C949 1.387 . S
H947 C943 0.950 . S
H948 C945 0.950 . S
C949 C940 1.390 . S
C949 H942 0.930 1_455 S
C949 C946 1.387 . S
C950 C951 1.387 . S
C950 H954 0.950 . S
C950 C959 1.390 . S
C951 C950 1.387 . S
C951 C953 1.387 . S
H952 C959 0.950 . S
C953 C951 1.387 . S
C953 C955 1.390 . S
C953 H957 0.950 . S
H954 C950 0.950 . S
C955 C953 1.390 . S
C955 C956 1.387 . S
C955 H958 0.950 . S
C956 C955 1.387 . S
C956 C959 1.387 . S
H957 C953 0.950 . S
H958 C955 0.950 . S
C959 C950 1.390 . S
C959 H952 0.950 . S
C959 C956 1.387 . S
C960 C961 1.387 . S
C960 H964 0.950 . S
C960 C969 1.390 . S
C961 C960 1.387 . S
C961 C963 1.387 . S
H962 C969 0.950 . S
C963 C961 1.387 . S
C963 C965 1.390 . S
C963 H967 0.950 . S
H964 C960 0.950 . S
C965 C963 1.390 . S
C965 C966 1.387 . S
C965 H968 0.950 . S
C966 C965 1.387 . S
C966 C969 1.387 . S
H967 C963 0.950 . S
H968 C965 0.950 . S
C969 C960 1.390 . S
C969 H962 0.950 . S
C969 C966 1.387 . S
C970 C971 1.387 . S
C970 H974 0.950 . S
C970 C979 1.390 . S
C971 C970 1.387 . S
C971 C973 1.387 . S
H972 C979 0.950 . S
C973 C971 1.387 . S
C973 C975 1.390 . S
C973 H977 0.950 . S
H974 C970 0.950 . S
C975 C973 1.390 . S
C975 C976 1.387 . S
C975 H978 0.950 . S
C976 C975 1.387 . S
C976 C979 1.387 . S
H977 C973 0.950 . S
H978 C975 0.950 . S
C979 C970 1.390 . S
C979 H972 0.950 . S
C979 C976 1.387 . S
C980 C981 1.387 . S
C980 H984 0.950 . S
C980 C989 1.390 . S
C981 C980 1.387 . S
C981 C983 1.387 . S
H982 C989 0.950 . S
C983 C981 1.387 . S
C983 C985 1.390 . S
C983 H987 0.950 . S
H984 C980 0.950 . S
C985 C983 1.390 . S
C985 C986 1.387 . S
C985 H988 0.950 . S
C986 C985 1.387 . S
C986 C989 1.387 . S
H987 C983 0.950 . S
H988 C985 0.950 . S
C989 C980 1.390 . S
C989 H982 0.950 . S
C989 C986 1.387 . S
C990 C991 1.387 . S
C990 H994 0.950 . S
C990 C999 1.390 . S
C991 C990 1.387 . S
C991 C993 1.387 . S
H992 C999 0.950 . S
C993 C991 1.387 . S
C993 C995 1.390 . S
C993 H997 0.950 . S
H994 C990 0.950 . S
C995 C993 1.390 . S
C995 C996 1.387 . S
C995 H998 0.950 . S
C996 C995 1.387 . S
C996 C999 1.387 . S
H997 C993 0.950 . S
H998 C995 0.950 . S
C999 C990 1.390 . S
C999 H992 0.950 . S
C999 C996 1.387 . S
C1000 C1001 1.387 . S
C1000 H1004 0.950 . S
C1000 C1009 1.390 . S
C1001 C1000 1.387 . S
C1001 C1003 1.387 . S
H1002 C1009 0.950 . S
C1003 C1001 1.387 . S
C1003 C1005 1.390 . S
C1003 H1007 0.959 . S
H1004 C1000 0.950 . S
C1005 C1003 1.390 . S
C1005 C1006 1.387 . S
C1005 H1008 0.950 . S
C1006 C1005 1.387 . S
C1006 C1009 1.387 . S
H1007 C1003 0.959 . S
H1008 C1005 0.950 . S
C1009 C1000 1.390 . S
C1009 H1002 0.950 . S
C1009 C1006 1.387 . S
C1010 C1011 1.387 . S
C1010 H1014 0.950 . S
C1010 C1019 1.390 . S
C1011 C1010 1.387 . S
C1011 C1013 1.387 . S
H1012 C1019 0.950 . S
C1013 C1011 1.387 . S
C1013 C1015 1.390 . S
C1013 H1017 0.950 . S
H1014 C1010 0.950 . S
C1015 C1013 1.390 . S
C1015 C1016 1.387 . S
C1015 H1018 0.950 . S
C1016 C1015 1.387 . S
C1016 C1019 1.387 . S
H1017 C1013 0.950 . S
H1018 C1015 0.950 . S
C1019 C1010 1.390 . S
C1019 H1012 0.950 . S
C1019 C1016 1.387 . S
C1020 C1021 1.387 . S
C1020 H1024 0.950 . S
C1020 C1029 1.390 . S
C1021 C1020 1.387 . S
C1021 C1023 1.387 . S
H1022 C1029 0.950 . S
C1023 C1021 1.387 . S
C1023 C1025 1.390 . S
C1023 H1027 0.950 . S
H1024 C1020 0.950 . S
C1025 C1023 1.390 . S
C1025 C1026 1.387 . S
C1025 H1028 0.950 . S
C1026 C1025 1.387 . S
C1026 C1029 1.387 . S
H1027 C1023 0.950 . S
H1028 C1025 0.950 . S
C1029 C1020 1.390 . S
C1029 H1022 0.950 . S
C1029 C1026 1.387 . S
C1030 C1031 1.387 . S
C1030 H1034 0.950 . S
C1030 C1039 1.390 . S
C1031 C1030 1.387 . S
C1031 C1033 1.387 . S
H1032 C1039 0.950 . S
C1033 C1031 1.387 . S
C1033 C1035 1.390 . S
C1033 H1037 0.950 . S
H1034 C1030 0.950 . S
C1035 C1033 1.390 . S
C1035 C1036 1.387 . S
C1035 H1038 0.950 . S
C1036 C1035 1.387 . S
C1036 C1039 1.387 . S
H1037 C1033 0.950 . S
H1038 C1035 0.950 . S
C1039 C1030 1.390 . S
C1039 H1032 0.950 . S
C1039 C1036 1.387 . S
C1040 C1041 1.387 . S
C1040 H1044 0.950 . S
C1040 C1049 1.390 . S
C1041 C1040 1.387 . S
C1041 C1043 1.387 . S
H1042 C1049 0.950 . S
C1043 C1041 1.387 . S
C1043 C1045 1.390 . S
C1043 H1047 0.950 . S
H1044 C1040 0.950 . S
C1045 C1043 1.390 . S
C1045 C1046 1.387 . S
C1045 H1048 0.950 . S
C1046 C1045 1.387 . S
C1046 C1049 1.387 . S
H1047 C1043 0.950 . S
H1048 C1045 0.950 . S
C1049 C1040 1.390 . S
C1049 H1042 0.950 . S
C1049 C1046 1.387 . S
C1050 C1051 1.387 . S
C1050 H1054 0.950 . S
C1050 C1059 1.390 . S
C1051 C1050 1.387 . S
C1051 C1053 1.387 . S
H1052 C1059 0.950 . S
C1053 C1051 1.387 . S
C1053 C1055 1.390 . S
C1053 H1057 0.950 . S
H1054 C1050 0.950 . S
C1055 C1053 1.390 . S
C1055 C1056 1.387 . S
C1055 H1058 0.950 . S
C1056 C1055 1.387 . S
C1056 C1059 1.387 . S
H1057 C1053 0.950 . S
H1058 C1055 0.950 . S
C1059 C1050 1.390 . S
C1059 H1052 0.950 . S
C1059 C1056 1.387 . S
C1060 C1061 1.387 . S
C1060 H1064 0.950 . S
C1060 C1069 1.390 . S
C1061 C1060 1.387 . S
C1061 C1063 1.387 . S
H1062 C1069 0.950 . S
C1063 C1061 1.387 . S
C1063 C1065 1.390 . S
C1063 H1067 0.950 . S
H1064 C1060 0.950 . S
C1065 C1063 1.390 . S
C1065 C1066 1.387 . S
C1065 H1068 0.950 . S
C1066 C1065 1.387 . S
C1066 C1069 1.387 . S
H1067 C1063 0.950 . S
H1068 C1065 0.950 . S
C1069 C1060 1.390 . S
C1069 H1062 0.950 . S
C1069 C1066 1.387 . S
C1070 C1071 1.389 1_556 S
C1070 H1074 0.950 . S
C1070 C1079 1.389 1_455 S
C1071 C1070 1.389 1_554 S
C1071 C1073 1.387 . S
H1072 C1079 0.950 . S
C1073 C1071 1.387 . S
C1073 C1075 1.389 1_455 S
C1073 H1077 0.950 . S
H1074 C1070 0.950 . S
C1075 C1073 1.389 1_655 S
C1075 C1076 1.389 1_554 S
C1075 H1078 0.950 . S
C1076 C1075 1.389 1_556 S
C1076 C1079 1.387 . S
H1077 C1073 0.950 . S
H1078 C1075 0.950 . S
C1079 C1070 1.389 1_655 S
C1079 H1072 0.950 . S
C1079 C1076 1.387 . S
C1080 C1081 1.387 . S
C1080 H1084 0.950 . S
C1080 C1089 1.390 . S
C1081 C1080 1.387 . S
C1081 C1083 1.387 . S
H1082 C1089 0.950 . S
C1083 C1081 1.387 . S
C1083 C1085 1.390 . S
C1083 H1087 0.950 . S
H1084 C1080 0.950 . S
C1085 C1083 1.390 . S
C1085 C1086 1.387 . S
C1085 H1088 0.950 . S
C1086 C1085 1.387 . S
C1086 C1089 1.387 . S
H1087 C1083 0.950 . S
H1088 C1085 0.950 . S
C1089 C1080 1.390 . S
C1089 H1082 0.950 . S
C1089 C1086 1.387 . S
C1090 C1091 1.387 . S
C1090 H1094 0.950 . S
C1090 C1099 1.390 . S
C1091 C1090 1.387 . S
C1091 C1093 1.387 . S
H1092 C1099 0.950 . S
C1093 C1091 1.387 . S
C1093 C1095 1.390 . S
C1093 H1097 0.950 . S
H1094 C1090 0.950 . S
C1095 C1093 1.390 . S
C1095 C1096 1.387 . S
C1095 H1098 0.950 . S
C1096 C1095 1.387 . S
C1096 C1099 1.387 . S
H1097 C1093 0.950 . S
H1098 C1095 0.950 . S
C1099 C1090 1.390 . S
C1099 H1092 0.950 . S
C1099 C1096 1.387 . S
C1100 C1101 1.387 1_545 S
C1100 H1104 0.950 . S
C1100 C1109 1.390 1_556 S
C1101 C1100 1.387 1_565 S
C1101 C1103 1.387 1_455 S
H1102 C1109 0.950 . S
C1103 C1101 1.387 1_655 S
C1103 C1105 1.390 1_556 S
C1103 H1107 0.950 . S
H1104 C1100 0.950 . S
C1105 C1103 1.390 1_554 S
C1105 C1106 1.387 1_565 S
C1105 H1108 0.950 . S
C1106 C1105 1.387 1_545 S
C1106 C1109 1.387 1_655 S
H1107 C1103 0.950 . S
H1108 C1105 0.950 . S
C1109 C1100 1.390 1_554 S
C1109 H1102 0.950 . S
C1109 C1106 1.387 1_455 S
C1110 C1111 1.387 . S
C1110 H1114 0.950 . S
C1110 C1119 1.390 1_565 S
C1111 C1110 1.387 . S
C1111 C1113 1.387 . S
H1112 C1119 0.950 . S
C1113 C1111 1.387 . S
C1113 C1115 1.390 1_565 S
C1113 H1117 0.950 . S
H1114 C1110 0.950 . S
C1115 C1113 1.390 1_545 S
C1115 C1116 1.387 . S
C1115 H1118 0.950 . S
C1116 C1115 1.387 . S
C1116 C1119 1.387 . S
H1117 C1113 0.950 . S
H1118 C1115 0.950 . S
C1119 C1110 1.390 1_545 S
C1119 H1112 0.950 . S
C1119 C1116 1.387 . S
C641 C10 3.527 . S
C646 C410 3.527 . S
C651 C50 3.527 . S
C656 C450 3.527 . S
C661 C90 3.526 . S
C666 C330 3.526 . S
C671 C130 3.527 . S
C676 C370 3.527 . S
C681 C179 3.527 . S
C686 C579 3.527 . S
C691 C219 3.526 . S
C696 C619 3.526 . S
C701 C259 3.527 . S
C706 C499 3.527 . S
C711 C299 3.526 . S
C716 C539 3.526 . S
C721 C369 3.819 . S
C726 C19 3.691 1_556 S
C731 C409 3.820 . S
C736 C59 3.700 . S
C741 C449 3.819 . S
C746 C99 3.701 . S
C751 C329 3.820 . S
C756 C139 3.700 . S
C761 C170 3.691 1_554 S
C766 C538 3.819 . S
C771 C578 3.821 . S
C776 C210 3.700 . S
C781 C618 3.819 . S
C786 C250 3.701 . S
C791 C498 3.819 . S
C796 C290 3.701 . S
C801 C49 3.820 . S
C806 C339 3.700 . S
C811 C379 3.701 . S
C816 C89 3.819 . S
C821 C419 3.690 1_556 S
C826 C129 3.820 . S
C831 C459 3.701 . S
C836 C9 3.819 . S
C841 C490 3.701 . S
C846 C218 3.819 . S
C851 C258 3.820 . S
C856 C530 3.700 . S
C861 C298 3.820 . S
C866 C570 3.690 1_554 S
C871 C610 3.701 . S
C876 C178 3.819 . S
C881 C6 0.713 . S
C886 C609 0.664 . S
C891 C46 0.708 . S
C896 C169 0.656 . S
C901 C529 0.657 . S
C906 C86 0.709 . S
C911 C249 0.664 . S
C916 C126 0.714 . S
C921 C175 0.708 . S
C926 C458 0.656 . S
C931 C215 0.714 . S
C936 C18 0.664 . S
C941 C378 0.656 . S
C946 C255 0.707 . S
C951 C98 0.664 . S
C956 C295 0.714 . S
C961 C326 0.711 . S
C966 C289 0.658 . S
C971 C366 0.707 . S
C976 C489 0.655 . S
C981 C209 0.657 . S
C986 C406 0.709 . S
C991 C569 0.664 . S
C996 C446 0.714 . S
C1001 C495 0.715 . S
C1006 C138 0.664 . S
C1011 C535 0.708 . S
C1016 C338 0.656 . S
C1021 C575 0.708 . S
C1026 C58 0.656 . S
C1031 C418 0.656 . S
C1036 C615 0.709 . S
C1041 C15 2.267 . S
C1046 C486 2.267 . S
C1051 C55 2.267 . S
C1056 C206 2.267 . S
C1061 C95 2.266 . S
C1066 C566 2.266 . S
C1071 C286 2.268 . S
C1076 C135 2.268 . S
C1081 C166 2.268 . S
C1086 C335 2.268 . S
C1091 C415 2.267 . S
C1096 C246 2.267 . S
C1101 C375 2.269 . S
C1106 C526 2.269 . S
C1111 C606 2.269 . S
C1116 C455 2.269 . S
