# Generated by pormake.
# Topology snk, (6)-cn, num edge types: 1
# Building blocks:
#     Node 0, Type 0, BuildingBlock: BETDIP_clean_sbu_0, # of connection points: 6
#     Node 1, Type 0, BuildingBlock: BETDIP_clean_sbu_0, # of connection points: 6
#     Node 2, Type 0, BuildingBlock: BETDIP_clean_sbu_0, # of connection points: 6
#     Node 3, Type 0, BuildingBlock: BETDIP_clean_sbu_0, # of connection points: 6
#     Node 4, Type 0, BuildingBlock: BETDIP_clean_sbu_0, # of connection points: 6
#     Node 5, Type 0, BuildingBlock: BETDIP_clean_sbu_0, # of connection points: 6
#     Node 6, Type 0, BuildingBlock: BETDIP_clean_sbu_0, # of connection points: 6
#     Node 7, Type 0, BuildingBlock: BETDIP_clean_sbu_0, # of connection points: 6
#     Edge 8, Type (0, 0), BuildingBlock: AJUNOK_clean_linker_0, # of connection points: 2
#     Edge 9, Type (0, 0), BuildingBlock: AJUNOK_clean_linker_0, # of connection points: 2
#     Edge 10, Type (0, 0), BuildingBlock: AJUNOK_clean_linker_0, # of connection points: 2
#     Edge 11, Type (0, 0), BuildingBlock: AJUNOK_clean_linker_0, # of connection points: 2
#     Edge 12, Type (0, 0), BuildingBlock: AJUNOK_clean_linker_0, # of connection points: 2
#     Edge 13, Type (0, 0), BuildingBlock: AJUNOK_clean_linker_0, # of connection points: 2
#     Edge 14, Type (0, 0), BuildingBlock: AJUNOK_clean_linker_0, # of connection points: 2
#     Edge 15, Type (0, 0), BuildingBlock: AJUNOK_clean_linker_0, # of connection points: 2
#     Edge 16, Type (0, 0), BuildingBlock: AJUNOK_clean_linker_0, # of connection points: 2
#     Edge 17, Type (0, 0), BuildingBlock: AJUNOK_clean_linker_0, # of connection points: 2
#     Edge 18, Type (0, 0), BuildingBlock: AJUNOK_clean_linker_0, # of connection points: 2
#     Edge 19, Type (0, 0), BuildingBlock: AJUNOK_clean_linker_0, # of connection points: 2
#     Edge 20, Type (0, 0), BuildingBlock: AJUNOK_clean_linker_0, # of connection points: 2
#     Edge 21, Type (0, 0), BuildingBlock: AJUNOK_clean_linker_0, # of connection points: 2
#     Edge 22, Type (0, 0), BuildingBlock: AJUNOK_clean_linker_0, # of connection points: 2
#     Edge 23, Type (0, 0), BuildingBlock: AJUNOK_clean_linker_0, # of connection points: 2
#     Edge 24, Type (0, 0), BuildingBlock: AJUNOK_clean_linker_0, # of connection points: 2
#     Edge 25, Type (0, 0), BuildingBlock: AJUNOK_clean_linker_0, # of connection points: 2
#     Edge 26, Type (0, 0), BuildingBlock: AJUNOK_clean_linker_0, # of connection points: 2
#     Edge 27, Type (0, 0), BuildingBlock: AJUNOK_clean_linker_0, # of connection points: 2
#     Edge 28, Type (0, 0), BuildingBlock: AJUNOK_clean_linker_0, # of connection points: 2
#     Edge 29, Type (0, 0), BuildingBlock: AJUNOK_clean_linker_0, # of connection points: 2
#     Edge 30, Type (0, 0), BuildingBlock: AJUNOK_clean_linker_0, # of connection points: 2
#     Edge 31, Type (0, 0), BuildingBlock: AJUNOK_clean_linker_0, # of connection points: 2
# Relax obj value: 0.120
# Max RMSD: 0.197
# Mean RMSD: 0.156
data_MOF--net-snk--node1-BETDIP_clean_sbu_0--edge1-AJUNOK_clean_linker_0
_symmetry_space_group_name_H-M    P1
_symmetry_Int_Tables_number       1
_symmetry_cell_setting            triclinic
loop_
_symmetry_equiv_pos_as_xyz
'x, y, z'
_cell_length_a     26.25008
_cell_length_b     26.196201
_cell_length_c     20.829195
_cell_angle_alpha  96.751205
_cell_angle_beta   96.950438
_cell_angle_gamma 90.666838
loop_
_atom_site_label
_atom_site_type_symbol
_atom_site_fract_x
_atom_site_fract_y
_atom_site_fract_z
_atom_type_partial_charge
Tb0 Tb 0.99366 0.98716 0.46906 0.0
Tb1 Tb 0.0343 0.0495 0.59857 0.0
C2 C 0.95788 0.96245 0.3514 0.0
C3 C 0.96785 0.97558 0.28666 0.0
C4 C 0.97944 0.02627 0.2763 0.0
C5 C 0.98851 0.03758 0.21441 0.0
C6 C 0.98591 0.99849 0.16145 0.0
C7 C 0.97471 0.94774 0.17229 0.0
C8 C 0.96563 0.9365 0.23411 0.0
C9 C 0.06137 0.94132 0.54414 0.0
C10 C 0.08669 0.07022 0.47796 0.0
C11 C 0.06648 0.0782 0.7167 0.0
C12 C 0.05492 0.06588 0.78126 0.0
C13 C 0.04238 0.0155 0.79167 0.0
C14 C 0.03054 1.00472 0.85256 0.0
C15 C 0.03072 0.0442 0.90462 0.0
C16 C 0.044 0.0946 0.89437 0.0
C17 C 0.05585 0.10529 0.83332 0.0
C18 C 0.96664 0.09433 0.52176 0.0
C19 C 0.94406 0.9636 0.59046 0.0
O20 O 0.93891 0.99842 0.39021 0.0
O21 O 0.99353 0.93691 0.3825 0.0
O22 O 0.06171 0.98832 0.53683 0.0
O23 O 0.02499 0.91698 0.50406 0.0
O24 O 0.04818 0.04295 0.44225 0.0
O25 O 0.09294 0.07365 0.54244 0.0
O26 O 0.08796 0.04244 0.68026 0.0
O27 O 0.0305 0.10139 0.68285 0.0
O28 O 0.966 0.04786 0.53137 0.0
O29 O 1.00509 0.11855 0.55809 0.0
O30 O 0.98202 0.9918 0.62587 0.0
O31 O 0.93701 0.96063 0.5261 0.0
H32 H 0.98139 0.05715 0.31597 0.0
H33 H 0.997 0.07706 0.20783 0.0
H34 H 0.97361 0.91649 0.13314 0.0
H35 H 0.95697 0.89709 0.24095 0.0
H36 H 0.04168 0.98439 0.75279 0.0
H37 H 0.02176 0.96529 0.85902 0.0
H38 H 0.04455 0.12592 0.93336 0.0
H39 H 0.06553 0.14449 0.82665 0.0
Tb40 Tb 0.29034 0.74399 0.72005 0.0
Tb41 Tb 0.23399 0.78415 0.83337 0.0
C42 C 0.31277 0.70972 0.60947 0.0
C43 C 0.29949 0.72185 0.54192 0.0
C44 C 0.26755 0.68792 0.49675 0.0
C45 C 0.25599 0.69819 0.43228 0.0
C46 C 0.2763 0.74253 0.4117 0.0
C47 C 0.30828 0.77641 0.45679 0.0
C48 C 0.31969 0.76629 0.52124 0.0
C49 C 0.34187 0.8118 0.80732 0.0
C50 C 0.20902 0.83436 0.70657 0.0
C51 C 0.20948 0.81729 0.94339 0.0
C52 C 0.22052 0.8045 1.01094 0.0
C53 C 0.25081 0.83841 0.05803 0.0
C54 C 0.25981 0.82787 0.12265 0.0
C55 C 0.2382 0.78351 0.14157 0.0
C56 C 0.20847 0.74925 0.09439 0.0
C57 C 0.19964 0.75962 1.02976 0.0
C58 C 0.18287 0.71683 0.74458 0.0
C59 C 0.31617 0.69486 0.84795 0.0
O60 O 0.27595 0.68987 0.63673 0.0
O61 O 0.34084 0.74404 0.64977 0.0
O62 O 0.29457 0.81274 0.78748 0.0
O63 O 0.36242 0.77383 0.77493 0.0
O64 O 0.23476 0.79679 0.67776 0.0
O65 O 0.20919 0.84168 0.77053 0.0
O66 O 0.24759 0.83681 0.91819 0.0
O67 O 0.18178 0.78371 0.90158 0.0
O68 O 0.22984 0.71578 0.76571 0.0
O69 O 0.16215 0.75467 0.77693 0.0
O70 O 0.28992 0.73225 0.87606 0.0
O71 O 0.31629 0.68728 0.78399 0.0
H72 H 0.25188 0.65314 0.51114 0.0
H73 H 0.23199 0.67091 0.3982 0.0
H74 H 0.32425 0.81097 0.44225 0.0
H75 H 0.34455 0.79326 0.55463 0.0
H76 H 0.26715 0.87337 0.04498 0.0
H77 H 0.28286 0.85492 0.15815 0.0
H78 H 0.19225 0.71425 0.10743 0.0
H79 H 0.17624 0.73252 0.99476 0.0
Tb80 Tb 0.53831 0.99493 0.08913 0.0
Tb81 Tb 0.48919 0.0371 0.9671 0.0
C82 C 0.58151 0.98605 0.20164 0.0
C83 C 0.56517 0.99151 0.267 0.0
C84 C 0.60217 0.99669 0.32188 0.0
C85 C 0.58714 1.002 0.3844 0.0
C86 C 0.5348 1.00236 0.39295 0.0
C87 C 0.49779 0.9971 0.33766 0.0
C88 C 0.51287 0.99192 0.27514 0.0
C89 C 0.46305 0.93761 1.02078 0.0
C90 C 0.4471 0.07563 0.09654 0.0
C91 C 0.44656 0.04866 0.85495 0.0
C92 C 0.4586 0.03777 0.7877 0.0
C93 C 0.41858 0.0319 0.73619 0.0
C94 C 0.42938 0.02439 0.6717 0.0
C95 C 0.48048 0.02302 0.65776 0.0
C96 C 0.52048 0.02746 0.70969 0.0
C97 C 0.50964 0.0347 0.77416 0.0
C98 C 0.56459 0.09379 0.03701 0.0
C99 C 0.57939 0.95647 0.95967 0.0
O100 O 0.58293 0.02846 0.17435 0.0
O101 O 0.56052 0.94741 0.16117 0.0
O102 O 0.46523 0.98601 0.03032 0.0
O103 O 0.50221 0.91975 0.0543 0.0
O104 O 0.48512 0.05164 0.12738 0.0
O105 O 0.43675 0.07025 0.03235 0.0
O106 O 0.43805 1.00874 0.88473 0.0
O107 O 0.47553 0.08389 0.8924 0.0
O108 O 0.56211 0.04559 1.02588 0.0
O109 O 0.52517 0.11213 1.00466 0.0
O110 O 0.53819 0.97606 0.92946 0.0
O111 O 0.59264 0.96651 1.02326 0.0
H112 H 0.6427 0.9967 0.31637 0.0
H113 H 0.61646 1.00629 0.42613 0.0
H114 H 0.45722 0.99633 0.34272 0.0
H115 H 0.48375 0.98797 0.23318 0.0
H116 H 0.37895 0.03367 0.74586 0.0
H117 H 0.39777 0.01974 0.63275 0.0
H118 H 0.56021 0.0265 0.70042 0.0
H119 H 0.54109 0.03878 0.81337 0.0
Tb120 Tb 0.29941 0.28294 0.34658 0.0
Tb121 Tb 0.2359 0.24235 0.21901 0.0
C122 C 0.3301 0.31103 0.46513 0.0
C123 C 0.31492 0.30071 0.52893 0.0
C124 C 0.26454 0.30777 0.54435 0.0
C125 C 0.25161 0.29798 0.6053 0.0
C126 C 0.28858 0.2804 0.65198 0.0
C127 C 0.33886 0.27335 0.63618 0.0
C128 C 0.35183 0.28346 0.57554 0.0
C129 C 0.34424 0.21732 0.26809 0.0
C130 C 0.21507 0.19171 0.33999 0.0
C131 C 0.20988 0.20871 0.101 0.0
C132 C 0.22236 0.22019 0.0363 0.0
C133 C 0.2714 0.21193 1.01677 0.0
C134 C 0.28157 0.22165 0.95466 0.0
C135 C 0.24291 0.23957 0.91049 0.0
C136 C 0.19415 0.2484 0.93049 0.0
C137 C 0.18397 0.23856 0.99241 0.0
C138 C 0.18855 0.3074 0.29602 0.0
C139 C 0.31819 0.33582 0.22574 0.0
O140 O 0.29892 0.3376 0.42878 0.0
O141 O 0.349 0.27235 0.43083 0.0
O142 O 0.29826 0.2151 0.27888 0.0
O143 O 0.36806 0.25612 0.30401 0.0
O144 O 0.24199 0.23087 0.37453 0.0
O145 O 0.21159 0.18423 0.27565 0.0
O146 O 0.24563 0.18832 0.13887 0.0
O147 O 0.18474 0.24376 0.13353 0.0
O148 O 0.23545 0.31013 0.28794 0.0
O149 O 0.16611 0.26971 0.25627 0.0
O150 O 0.28972 0.2978 0.19117 0.0
O151 O 0.32388 0.34172 0.29035 0.0
H152 H 0.23512 0.32103 0.50951 0.0
H153 H 0.2128 0.30488 0.61614 0.0
H154 H 0.36823 0.25955 0.67062 0.0
H155 H 0.39091 0.27768 0.56495 0.0
H156 H 0.30188 0.19764 0.04918 0.0
H157 H 0.31955 0.21447 0.94085 0.0
H158 H 0.16384 0.26332 0.89839 0.0
H159 H 0.14583 0.24526 1.006 0.0
Tb160 Tb 0.79413 0.24798 0.22441 0.0
Tb161 Tb 0.73857 0.28494 0.33974 0.0
C162 C 0.82167 0.21672 0.11527 0.0
C163 C 0.80876 0.22521 0.04683 0.0
C164 C 0.76085 0.24377 1.02382 0.0
C165 C 0.75099 0.25448 0.95927 0.0
C166 C 0.78902 0.24719 0.91716 0.0
C167 C 0.83649 0.22763 0.94021 0.0
C168 C 0.84626 0.21686 1.00455 0.0
C169 C 0.84461 0.31568 0.31365 0.0
C170 C 0.71003 0.33456 0.2128 0.0
C171 C 0.71426 0.31943 0.44952 0.0
C172 C 0.72729 0.31034 0.51777 0.0
C173 C 0.77549 0.29223 0.54044 0.0
C174 C 0.78637 0.28297 0.60543 0.0
C175 C 0.74921 0.29164 0.64855 0.0
C176 C 0.701 0.30958 0.62545 0.0
C177 C 0.69021 0.31895 0.56063 0.0
C178 C 0.68677 0.21751 0.25186 0.0
C179 C 0.82277 0.19694 0.34995 0.0
O180 O 0.78708 0.19286 0.14197 0.0
O181 O 0.84303 0.25617 0.15379 0.0
O182 O 0.79745 0.3156 0.29352 0.0
O183 O 0.86576 0.2784 0.281 0.0
O184 O 0.73422 0.29646 0.18293 0.0
O185 O 0.71203 0.34254 0.27694 0.0
O186 O 0.75039 0.34005 0.42192 0.0
O187 O 0.68922 0.28186 0.41127 0.0
O188 O 0.73439 0.2171 0.27037 0.0
O189 O 0.66638 0.25478 0.2857 0.0
O190 O 0.79562 0.23251 0.38031 0.0
O191 O 0.82292 0.19119 0.2861 0.0
H192 H 0.73142 0.25055 0.05583 0.0
H193 H 0.71405 0.26946 0.94261 0.0
H194 H 0.86606 0.22063 0.90843 0.0
H195 H 0.88342 0.2025 1.02156 0.0
H196 H 0.80454 0.28497 0.50794 0.0
H197 H 0.82353 0.2683 0.62171 0.0
H198 H 0.67176 0.31668 0.6577 0.0
H199 H 0.65276 0.33277 0.54385 0.0
Tb200 Tb 0.79879 0.78409 0.84687 0.0
Tb201 Tb 0.73472 0.74712 0.71905 0.0
C202 C 0.83043 0.81295 0.96503 0.0
C203 C 0.81764 0.80333 1.03005 0.0
C204 C 0.768 0.81032 0.04803 0.0
C205 C 0.75756 0.80178 0.11043 0.0
C206 C 0.79644 0.78612 0.15615 0.0
C207 C 0.84582 0.77856 0.13761 0.0
C208 C 0.85631 0.78734 0.07546 0.0
C209 C 0.84513 0.72041 0.76697 0.0
C210 C 0.71312 0.69412 0.83859 0.0
C211 C 0.70364 0.72042 0.60031 0.0
C212 C 0.71988 0.72962 0.53678 0.0
C213 C 0.77074 0.72286 0.52312 0.0
C214 C 0.78464 0.73186 0.46236 0.0
C215 C 0.74814 0.74826 0.41425 0.0
C216 C 0.69741 0.75506 0.42835 0.0
C217 C 0.6835 0.7458 0.48879 0.0
C218 C 0.6898 0.81231 0.79869 0.0
C219 C 0.81959 0.83747 0.72776 0.0
O220 O 0.79755 0.83826 0.92931 0.0
O221 O 0.84938 0.77441 0.93057 0.0
O222 O 0.79836 0.71748 0.77553 0.0
O223 O 0.86775 0.75774 0.80689 0.0
O224 O 0.74146 0.73186 0.87392 0.0
O225 O 0.70868 0.68831 0.77406 0.0
O226 O 0.73296 0.69228 0.63667 0.0
O227 O 0.68682 0.76034 0.63454 0.0
O228 O 0.73626 0.81399 0.78923 0.0
O229 O 0.66615 0.77479 0.76003 0.0
O230 O 0.79278 0.79872 0.69238 0.0
O231 O 0.82324 0.84372 0.79218 0.0
H232 H 0.73726 0.82245 1.01406 0.0
H233 H 0.71911 0.80791 0.12315 0.0
H234 H 0.87634 0.76531 0.17093 0.0
H235 H 0.89483 0.78152 0.06277 0.0
H236 H 0.79974 0.71053 0.55921 0.0
H237 H 0.82382 0.72532 0.4528 0.0
H238 H 0.66844 0.76801 0.39271 0.0
H239 H 0.64411 0.75143 0.49816 0.0
Tb240 Tb 0.49657 0.48203 0.96526 0.0
Tb241 Tb 0.5306 0.5476 0.09372 0.0
C242 C 0.46639 0.45021 0.84745 0.0
C243 C 0.47516 0.46244 0.7816 0.0
C244 C 0.45566 0.50696 0.75675 0.0
C245 C 0.46406 0.51743 0.6944 0.0
C246 C 0.491 0.48304 0.65477 0.0
C247 C 0.50975 0.43813 0.67898 0.0
C248 C 0.50197 0.428 0.7417 0.0
C249 C 0.56417 0.43989 0.04549 0.0
C250 C 0.58377 0.57091 0.97472 0.0
C251 C 0.55726 0.57846 0.2124 0.0
C252 C 0.54719 0.56206 0.27558 0.0
C253 C 0.55861 0.51245 0.29186 0.0
C254 C 0.54904 0.49831 0.35225 0.0
C255 C 0.52741 0.53322 0.39744 0.0
C256 C 0.51598 0.5827 0.38082 0.0
C257 C 0.52586 0.59693 0.32073 0.0
C258 C 0.4637 0.58919 1.0126 0.0
C259 C 0.44479 0.45821 0.08518 0.0
O260 O 0.44154 0.48339 0.88336 0.0
O261 O 0.50503 0.43107 0.88178 0.0
O262 O 0.56337 0.48668 0.03644 0.0
O263 O 0.52805 0.41459 1.00609 0.0
O264 O 0.5475 0.54107 0.93834 0.0
O265 O 0.5886 0.5753 0.03924 0.0
O266 O 0.58496 0.5485 0.17645 0.0
O267 O 0.51812 0.59635 0.17766 0.0
O268 O 0.46438 0.54271 1.02246 0.0
O269 O 0.49832 0.61532 0.05338 0.0
O270 O 0.48197 0.48707 0.12086 0.0
O271 O 0.43872 0.45495 1.02074 0.0
H272 H 0.43349 0.53356 0.785 0.0
H273 H 0.44877 0.55211 0.67668 0.0
H274 H 0.53097 0.41114 0.64965 0.0
H275 H 0.51686 0.39303 0.75899 0.0
H276 H 0.5752 0.48462 0.2582 0.0
H277 H 0.55941 0.4603 0.36395 0.0
H278 H 0.49907 0.61045 0.41423 0.0
H279 H 0.51673 0.63538 0.30946 0.0
Tb280 Tb 0.04312 0.49728 0.58907 0.0
Tb281 Tb 0.98833 0.53435 0.4663 0.0
C282 C 0.088 0.49131 0.70193 0.0
C283 C 0.07307 0.49597 0.7684 0.0
C284 C 0.10844 0.51673 0.82115 0.0
C285 C 0.09527 0.52124 0.88467 0.0
C286 C 0.04648 0.50476 0.89671 0.0
C287 C 1.01078 0.48474 0.84354 0.0
C288 C 0.02391 0.48044 0.77995 0.0
C289 C 0.96375 0.43948 0.52992 0.0
C290 C 0.95334 0.57884 0.59772 0.0
C291 C 0.94286 0.53845 0.35337 0.0
C292 C 0.95879 0.53413 0.28746 0.0
C293 C 0.92426 0.51356 0.23373 0.0
C294 C 0.93905 0.50838 0.17096 0.0
C295 C 0.98877 0.52354 0.16081 0.0
C296 C 0.0232 0.54442 0.21486 0.0
C297 C 1.00847 0.54935 0.27763 0.0
C298 C 0.06669 0.5933 0.52535 0.0
C299 C 0.07916 0.45359 0.45828 0.0
O300 O 0.08648 0.53345 0.67398 0.0
O301 O 0.06914 0.45151 0.66187 0.0
O302 O 0.96763 0.48769 0.53608 0.0
O303 O 1.00389 0.42222 0.56201 0.0
O304 O 0.99529 0.55927 0.62614 0.0
O305 O 0.93706 0.56642 0.53498 0.0
O306 O 0.94589 0.49649 0.38176 0.0
O307 O 0.96007 0.57899 0.39325 0.0
O308 O 0.06351 0.54494 0.51991 0.0
O309 O 0.02714 0.60949 0.49099 0.0
O310 O 0.03703 0.47274 0.42965 0.0
O311 O 0.0951 0.46606 0.52105 0.0
H312 H 0.14632 0.52956 0.81317 0.0
H313 H 0.12315 0.53806 0.92433 0.0
H314 H 0.97289 0.47179 0.85123 0.0
H315 H 0.99575 0.4648 0.7399 0.0
H316 H 0.88589 0.50125 0.24038 0.0
H317 H 0.91177 0.49194 0.13039 0.0
H318 H 0.06139 0.55743 0.20858 0.0
H319 H 0.03587 0.56513 0.31847 0.0
C320 C 0.11037 0.10212 0.37635 0.0
C321 C 0.12247 0.09856 0.44353 0.0
C322 C 0.14123 0.13104 0.34282 0.0
C323 C 0.18567 0.15753 0.37494 0.0
H324 H 0.07605 0.08341 0.34932 0.0
H325 H 0.12925 0.13378 0.29173 0.0
S326 S 0.23916 0.15468 0.54784 0.0
N327 N 0.18521 0.12014 0.53927 0.0
N328 N 0.2433 0.17419 0.47612 0.0
C329 C 0.19963 0.15253 0.44133 0.0
C330 C 0.16811 0.12311 0.4756 0.0
C331 C 0.09509 0.91283 0.65023 0.0
C332 C 0.1009 0.91645 0.58498 0.0
C333 C 0.1316 0.88833 0.69008 0.0
C334 C 0.17467 0.86541 0.66537 0.0
H335 H 0.06139 0.9279 0.66999 0.0
H336 H 0.1248 0.88558 0.73984 0.0
S337 S 0.20637 0.86427 0.49612 0.0
N338 N 0.1523 0.89587 0.49675 0.0
N339 N 0.22067 0.84844 0.57054 0.0
C340 C 0.18069 0.86888 0.59965 0.0
C341 C 0.14376 0.8946 0.5596 0.0
C342 C 0.41606 0.82706 0.89352 0.0
C343 C 0.36972 0.8445 0.86351 0.0
C344 C 0.44492 0.85703 0.94558 0.0
C345 C 0.42902 0.90598 0.96913 0.0
H346 H 0.43037 0.78987 0.87658 0.0
H347 H 0.48069 0.84208 0.96647 0.0
S348 S 0.30918 0.9684 0.90986 0.0
N349 N 0.30824 0.91318 0.86229 0.0
N350 N 0.36239 0.96943 0.96134 0.0
C351 C 0.38203 0.92344 0.94091 0.0
C352 C 0.35243 0.89274 0.88769 0.0
C353 C 0.39553 0.09445 0.18904 0.0
C354 C 0.41665 0.11089 0.13584 0.0
C355 C 0.3703 0.12895 0.2305 0.0
C356 C 0.36754 0.18118 0.22149 0.0
H357 H 0.39879 0.05481 0.19879 0.0
H358 H 0.35446 0.1151 0.27113 0.0
S359 S 0.41743 0.24341 0.09015 0.0
N360 N 0.43199 0.18229 0.07539 0.0
N361 N 0.3878 0.24777 0.15611 0.0
C362 C 0.38863 0.19806 0.16874 0.0
C363 C 0.41241 0.16265 0.12506 0.0
C364 C 0.92234 0.92963 0.69188 0.0
C365 C 0.9096 0.93373 0.62492 0.0
C366 C 0.89227 0.89983 0.72539 0.0
C367 C 0.84823 0.87266 0.69327 0.0
H368 H 0.95644 0.94877 0.71874 0.0
H369 H 0.90453 0.89694 0.77638 0.0
S370 S 0.79404 0.87516 0.52043 0.0
N371 N 0.84704 0.91113 0.52922 0.0
N372 N 0.79064 0.85521 0.59205 0.0
C373 C 0.83384 0.87782 0.62697 0.0
C374 C 0.86444 0.90826 0.59285 0.0
C375 C 0.87714 0.11613 0.48072 0.0
C376 C 0.92997 0.11766 0.47518 0.0
C377 C 0.84215 0.14149 0.43953 0.0
C378 C 0.85876 0.16689 0.38965 0.0
H379 H 0.86308 0.09682 0.51858 0.0
H380 H 0.80197 0.14132 0.44675 0.0
S381 S 0.99291 0.17978 0.35351 0.0
N382 N 0.99722 0.14692 0.41687 0.0
N383 N 0.9312 0.19041 0.33574 0.0
C384 C 0.91125 0.1668 0.38216 0.0
C385 C 0.947 0.14322 0.42595 0.0
C386 C 0.60815 0.1986 0.17348 0.0
C387 C 0.65757 0.18396 0.19737 0.0
C388 C 0.57914 0.16964 0.12074 0.0
C389 C 0.59762 0.12387 0.091 0.0
H390 H 0.59162 0.23308 0.19542 0.0
H391 H 0.54146 0.18286 0.10398 0.0
S392 S 0.72263 0.06577 0.13837 0.0
N393 N 0.72267 0.119 0.18958 0.0
N394 N 0.66751 0.06384 0.09039 0.0
C395 C 0.6464 0.10781 0.11521 0.0
C396 C 0.67648 0.13792 0.16859 0.0
C397 C 0.61189 0.84095 0.84802 0.0
C398 C 0.66378 0.85009 0.84122 0.0
C399 C 0.58505 0.87586 0.88655 0.0
C400 C 0.60946 0.92046 0.92104 0.0
H401 H 0.59157 0.80668 0.82298 0.0
H402 H 0.54495 0.86771 0.88972 0.0
S403 S 0.7433 0.9646 0.91685 0.0
N404 N 0.73728 0.90956 0.86854 0.0
N405 N 0.68743 0.97335 0.94497 0.0
C406 C 0.66118 0.93029 0.91519 0.0
C407 C 0.68824 0.8955 0.87421 0.0
C408 C 0.60898 0.60227 0.8732 0.0
C409 C 0.61907 0.60064 0.94105 0.0
C410 C 0.64032 0.63124 0.84012 0.0
C411 C 0.68309 0.65999 0.8734 0.0
H412 H 0.57601 0.58168 0.84518 0.0
H413 H 0.63006 0.63206 0.78829 0.0
S414 S 0.72932 0.66531 0.05017 0.0
N415 N 0.67713 0.62808 0.03957 0.0
N416 N 0.7359 0.68227 0.97774 0.0
C417 C 0.69456 0.65755 0.94096 0.0
C418 C 0.66264 0.62802 0.97464 0.0
C419 C 0.631 0.33753 0.13581 0.0
C420 C 0.67382 0.36364 0.17241 0.0
C421 C 0.59567 0.363 0.09587 0.0
C422 C 0.60265 0.41538 0.08936 0.0
H423 H 0.62469 0.29701 0.13813 0.0
H424 H 0.56279 0.34118 0.06946 0.0
S425 S 0.71295 0.49933 0.16873 0.0
N426 N 0.72329 0.44376 0.19769 0.0
N427 N 0.65898 0.4912 0.1184 0.0
C428 C 0.64662 0.44158 0.12393 0.0
C429 C 0.68178 0.41581 0.16649 0.0
C430 C 0.94258 0.35697 0.4593 0.0
C431 C 0.92878 0.4074 0.47973 0.0
C432 C 0.91434 0.32748 0.40625 0.0
C433 C 0.87078 0.34692 0.37217 0.0
H434 H 0.97674 0.34073 0.48268 0.0
H435 H 0.92734 0.2894 0.39124 0.0
S436 S 0.81487 0.47445 0.41093 0.0
N437 N 0.86584 0.47386 0.46581 0.0
N438 N 0.81292 0.41831 0.36517 0.0
C439 C 0.8548 0.3962 0.39416 0.0
C440 C 0.88371 0.42642 0.44834 0.0
C441 C 0.84566 0.64593 0.67841 0.0
C442 C 0.8724 0.68437 0.72328 0.0
C443 C 0.87156 0.6129 0.63565 0.0
C444 C 0.92529 0.61583 0.63859 0.0
H445 H 0.80468 0.64073 0.67684 0.0
H446 H 0.84966 0.58382 0.60179 0.0
S447 S 1.01379 0.70689 0.7503 0.0
N448 N 0.95606 0.72237 0.76848 0.0
N449 N 1.00457 0.65859 0.69138 0.0
C450 C 0.95255 0.65308 0.68432 0.0
C451 C 0.9262 0.68766 0.72604 0.0
C452 C 0.38937 0.40001 0.22215 0.0
C453 C 0.3472 0.36994 0.18973 0.0
C454 C 0.42015 0.4286 0.18795 0.0
C455 C 0.41015 0.42847 0.11975 0.0
H456 H 0.39964 0.40056 0.2742 0.0
H457 H 0.4526 0.45037 0.21549 0.0
S458 S 0.30178 0.35911 1.01221 0.0
N459 N 0.29521 0.34412 0.08556 0.0
N460 N 0.35313 0.39745 1.02167 0.0
C461 C 0.36727 0.39959 0.08693 0.0
C462 C 0.33583 0.37052 0.12176 0.0
C463 C 0.42408 0.60823 0.90373 0.0
C464 C 0.42321 0.61244 0.97125 0.0
C465 C 0.38792 0.63315 0.86375 0.0
C466 C 0.34997 0.66384 0.89024 0.0
H467 H 0.45417 0.5871 0.88215 0.0
H468 H 0.39103 0.62977 0.81205 0.0
S469 S 0.33185 0.686 0.06575 0.0
N470 N 0.38177 0.64833 0.06354 0.0
N471 N 0.31363 0.69552 0.98947 0.0
C472 C 0.34855 0.66755 0.95823 0.0
C473 C 0.38537 0.64197 0.99855 0.0
C474 C 0.17104 0.63662 0.66504 0.0
C475 C 0.1572 0.68729 0.68438 0.0
C476 C 0.14312 0.60682 0.61135 0.0
C477 C 0.10048 0.62677 0.57568 0.0
H478 H 0.20242 0.61936 0.69288 0.0
H479 H 0.15394 0.56743 0.59902 0.0
S480 S 0.05488 0.76061 0.59996 0.0
N481 N 0.10253 0.7582 0.65885 0.0
N482 N 0.05034 0.70271 0.55849 0.0
C483 C 0.08888 0.67866 0.59182 0.0
C484 C 0.11702 0.70872 0.64634 0.0
C485 C 0.18737 0.38436 0.3809 0.0
C486 C 0.16088 0.34478 0.33756 0.0
C487 C 0.16117 0.41877 0.42168 0.0
C488 C 0.10738 0.4161 0.41819 0.0
H489 H 0.22845 0.38922 0.38292 0.0
H490 H 0.18292 0.44852 0.45463 0.0
S491 S 0.01956 0.32187 0.31041 0.0
N492 N 0.07745 0.30568 0.29355 0.0
N493 N 0.02839 0.37211 0.36663 0.0
C494 C 0.0804 0.37771 0.37386 0.0
C495 C 0.10705 0.34171 0.33428 0.0
C496 C 0.04908 0.05276 1.02708 0.0
C497 C 0.0178 0.0328 0.96961 0.0
C498 C 0.03831 0.04183 0.08864 0.0
C499 C 0.99577 1.01047 0.09546 0.0
H500 H 0.08276 0.07634 1.02444 0.0
H501 H 0.0641 0.05736 0.13121 0.0
S502 S 0.89895 0.95262 0.96088 0.0
N503 N 0.9405 0.98276 0.92404 0.0
N504 N 0.9203 0.96231 0.03935 0.0
C505 C 0.96358 0.9911 0.03847 0.0
C506 C 0.97456 1.00221 0.97579 0.0
C507 C 0.30605 0.76507 0.30856 0.0
C508 C 0.26542 0.75295 0.34294 0.0
C509 C 0.29692 0.77493 0.24352 0.0
C510 C 0.24683 0.77299 0.21044 0.0
H511 H 0.34531 0.76633 0.33191 0.0
H512 H 0.32937 0.78352 0.21866 0.0
S513 S 0.12687 0.74704 0.28005 0.0
N514 N 0.17306 0.74223 0.34017 0.0
N515 N 0.15586 0.76064 0.2178 0.0
C516 C 0.2058 0.76153 0.24445 0.0
C517 C 0.2151 0.75155 0.3107 0.0
C518 C 0.52884 0.98193 0.56954 0.0
C519 C 0.49237 0.01747 0.58935 0.0
C520 C 0.54199 0.97708 0.50591 0.0
C521 C 0.51918 1.00757 0.45958 0.0
H522 H 0.54725 0.95747 0.60344 0.0
H523 H 0.57008 0.94901 0.49277 0.0
S524 S 0.42358 0.10846 0.48773 0.0
N525 N 0.43495 0.085 0.55812 0.0
N526 N 0.4596 0.07577 0.43848 0.0
C527 C 0.48266 0.0433 0.47868 0.0
C528 C 0.46928 0.04827 0.54353 0.0
C529 C 0.2982 0.27715 0.83608 0.0
C530 C 0.25356 0.24944 0.84402 0.0
C531 C 0.30887 0.28723 0.77417 0.0
C532 C 0.27543 0.27 0.71735 0.0
H533 H 0.32492 0.29174 0.87818 0.0
H534 H 0.34348 0.30921 0.77092 0.0
S535 S 0.15513 0.19242 0.71093 0.0
N536 N 0.17693 0.20259 0.78922 0.0
N537 N 0.19661 0.22191 0.67332 0.0
C538 C 0.23077 0.24193 0.7246 0.0
C539 C 0.21999 0.23153 0.78766 0.0
C540 C 0.73466 0.24063 0.80893 0.0
C541 C 0.77928 0.25981 0.84921 0.0
C542 C 0.72525 0.25113 0.74415 0.0
C543 C 0.76011 0.28122 0.71731 0.0
H544 H 0.7072 0.21665 0.82734 0.0
H545 H 0.69074 0.235 0.71455 0.0
S546 S 0.88021 0.34449 0.80421 0.0
N547 N 0.85706 0.31294 0.85892 0.0
N548 N 0.83935 0.33262 0.73711 0.0
C549 C 0.8044 0.30138 0.75739 0.0
C550 C 0.81397 0.29071 0.82334 0.0
C551 C 0.72998 0.73866 0.29194 0.0
C552 C 0.76218 0.75771 0.34908 0.0
C553 C 0.74127 0.74806 0.2301 0.0
C554 C 0.78528 0.77693 0.22259 0.0
H555 H 0.69585 0.71585 0.29494 0.0
H556 H 0.71551 0.7321 0.18773 0.0
S557 S 0.88048 0.83848 0.3566 0.0
N558 N 0.83916 0.80849 0.39395 0.0
N559 N 0.86004 0.82658 0.27804 0.0
C560 C 0.81767 0.79656 0.27927 0.0
C561 C 0.80626 0.78682 0.3423 0.0
C562 C 0.52296 0.5418 0.58081 0.0
C563 C 0.50001 0.49452 0.58865 0.0
C564 C 0.53191 0.55369 0.51907 0.0
C565 C 0.51788 0.51898 0.46247 0.0
H566 H 0.53465 0.56963 0.62291 0.0
H567 H 0.55044 0.59029 0.51579 0.0
S568 S 0.45259 0.39161 0.45631 0.0
N569 N 0.46137 0.41362 0.53459 0.0
N570 N 0.47712 0.43625 0.41839 0.0
C571 C 0.49421 0.47176 0.46965 0.0
C572 C 0.48551 0.4595 0.53269 0.0
C573 C 0.98561 0.5301 0.97853 0.0
C574 C 0.0326 0.50886 0.96441 0.0
C575 C 0.97178 0.53462 0.04195 0.0
C576 C 1.00434 0.51805 0.09387 0.0
H577 H 0.95958 0.54402 0.94038 0.0
H578 H 0.93554 0.55187 0.05056 0.0
S579 S 0.1296 0.4556 0.08174 0.0
N580 N 0.1104 0.46844 1.00702 0.0
N581 N 0.0844 0.47683 0.126 0.0
C582 C 0.05109 0.49604 0.08024 0.0
C583 C 0.06519 0.49147 1.01566 0.0
loop_
_geom_bond_atom_site_label_1
_geom_bond_atom_site_label_2
_geom_bond_distance
_geom_bond_site_symmetry_2
_ccdc_geom_bond_type
Tb0 C2 2.809 1_655 S
Tb0 O20 2.484 . S
Tb0 O21 2.440 1_655 S
Tb0 O22 2.658 1_655 S
Tb0 O23 2.409 1_655 S
Tb0 O24 2.378 1_665 S
Tb0 O28 2.325 1_565 S
Tb0 O31 2.341 . S
Tb1 C11 2.809 1_455 S
Tb1 O22 2.325 1_545 S
Tb1 O25 2.341 . S
Tb1 O26 2.484 . S
Tb1 O27 2.440 1_455 S
Tb1 O28 2.658 1_455 S
Tb1 O29 2.409 1_455 S
Tb1 O30 2.378 1_445 S
C2 Tb0 2.809 1_455 S
C2 C3 1.514 . S
C2 O20 1.248 1_455 S
C2 O21 1.266 . S
C3 C2 1.514 . S
C3 C4 1.359 1_455 S
C3 C8 1.348 . S
C4 C3 1.359 1_655 S
C4 C5 1.380 1_655 S
C4 H32 0.929 1_565 S
C5 C4 1.380 1_455 S
C5 C6 1.347 . S
C5 H33 0.931 1_465 S
C6 C5 1.347 . S
C6 C7 1.369 . S
C7 C6 1.369 . S
C7 C8 1.408 . S
C7 H34 0.930 . S
C8 C3 1.348 . S
C8 C7 1.408 . S
C8 H35 0.930 . S
C9 O22 1.281 . S
C9 O23 1.254 . S
C10 O24 1.236 . S
C10 O25 1.266 . S
C11 Tb1 2.809 1_655 S
C11 C12 1.514 . S
C11 O26 1.248 1_655 S
C11 O27 1.266 . S
C12 C11 1.514 . S
C12 C13 1.359 1_655 S
C12 C17 1.348 . S
C13 C12 1.359 1_455 S
C13 C14 1.380 1_455 S
C13 H36 0.929 1_545 S
C14 C13 1.380 1_655 S
C14 C15 1.347 . S
C14 H37 0.931 1_645 S
C15 C14 1.347 . S
C15 C16 1.369 . S
C16 C15 1.369 . S
C16 C17 1.408 . S
C16 H38 0.930 . S
C17 C12 1.348 . S
C17 C16 1.408 . S
C17 H39 0.930 . S
C18 O28 1.281 . S
C18 O29 1.254 . S
C19 O30 1.236 . S
C19 O31 1.266 . S
O20 Tb0 2.484 . S
O20 C2 1.248 1_655 S
O21 Tb0 2.440 1_455 S
O21 C2 1.266 . S
O22 Tb0 2.658 1_455 S
O22 Tb1 2.325 1_565 S
O22 C9 1.281 . S
O23 Tb0 2.409 1_455 S
O23 C9 1.254 . S
O24 Tb0 2.378 1_445 S
O24 C10 1.236 . S
O25 Tb1 2.341 . S
O25 C10 1.266 . S
O26 Tb1 2.484 . S
O26 C11 1.248 1_455 S
O27 Tb1 2.440 1_655 S
O27 C11 1.266 . S
O28 Tb0 2.325 1_545 S
O28 Tb1 2.658 1_655 S
O28 C18 1.281 . S
O29 Tb1 2.409 1_655 S
O29 C18 1.254 . S
O30 Tb1 2.378 1_665 S
O30 C19 1.236 . S
O31 Tb0 2.341 . S
O31 C19 1.266 . S
H32 C4 0.929 1_545 S
H33 C5 0.931 1_645 S
H34 C7 0.930 . S
H35 C8 0.930 . S
H36 C13 0.929 1_565 S
H37 C14 0.931 1_465 S
H38 C16 0.930 . S
H39 C17 0.930 . S
Tb40 C42 2.809 . S
Tb40 O60 2.484 . S
Tb40 O61 2.440 . S
Tb40 O62 2.658 . S
Tb40 O63 2.409 . S
Tb40 O64 2.378 . S
Tb40 O68 2.325 . S
Tb40 O71 2.341 . S
Tb41 C51 2.809 . S
Tb41 O62 2.325 . S
Tb41 O65 2.341 . S
Tb41 O66 2.484 . S
Tb41 O67 2.440 . S
Tb41 O68 2.658 . S
Tb41 O69 2.409 . S
Tb41 O70 2.378 . S
C42 Tb40 2.809 . S
C42 C43 1.514 . S
C42 O60 1.248 . S
C42 O61 1.266 . S
C43 C42 1.514 . S
C43 C44 1.359 . S
C43 C48 1.348 . S
C44 C43 1.359 . S
C44 C45 1.380 . S
C44 H72 0.929 . S
C45 C44 1.380 . S
C45 C46 1.347 . S
C45 H73 0.931 . S
C46 C45 1.347 . S
C46 C47 1.369 . S
C47 C46 1.369 . S
C47 C48 1.408 . S
C47 H74 0.930 . S
C48 C43 1.348 . S
C48 C47 1.408 . S
C48 H75 0.930 . S
C49 O62 1.281 . S
C49 O63 1.254 . S
C50 O64 1.236 . S
C50 O65 1.266 . S
C51 Tb41 2.809 . S
C51 C52 1.501 1_556 S
C51 O66 1.248 . S
C51 O67 1.266 . S
C52 C51 1.501 1_554 S
C52 C53 1.365 . S
C52 C57 1.354 . S
C53 C52 1.365 . S
C53 C54 1.380 . S
C53 H76 0.929 . S
C54 C53 1.380 . S
C54 C55 1.347 . S
C54 H77 0.931 . S
C55 C54 1.347 . S
C55 C56 1.369 . S
C56 C55 1.369 . S
C56 C57 1.408 . S
C56 H78 0.930 . S
C57 C52 1.354 . S
C57 C56 1.408 . S
C57 H79 0.930 1_554 S
C58 O68 1.281 . S
C58 O69 1.254 . S
C59 O70 1.236 . S
C59 O71 1.266 . S
O60 Tb40 2.484 . S
O60 C42 1.248 . S
O61 Tb40 2.440 . S
O61 C42 1.266 . S
O62 Tb40 2.658 . S
O62 Tb41 2.325 . S
O62 C49 1.281 . S
O63 Tb40 2.409 . S
O63 C49 1.254 . S
O64 Tb40 2.378 . S
O64 C50 1.236 . S
O65 Tb41 2.341 . S
O65 C50 1.266 . S
O66 Tb41 2.484 . S
O66 C51 1.248 . S
O67 Tb41 2.440 . S
O67 C51 1.266 . S
O68 Tb40 2.325 . S
O68 Tb41 2.658 . S
O68 C58 1.281 . S
O69 Tb41 2.409 . S
O69 C58 1.254 . S
O70 Tb41 2.378 . S
O70 C59 1.236 . S
O71 Tb40 2.341 . S
O71 C59 1.266 . S
H72 C44 0.929 . S
H73 C45 0.931 . S
H74 C47 0.930 . S
H75 C48 0.930 . S
H76 C53 0.929 . S
H77 C54 0.931 . S
H78 C56 0.930 . S
H79 C57 0.930 1_556 S
Tb80 C82 2.809 . S
Tb80 O100 2.484 1_565 S
Tb80 O101 2.440 . S
Tb80 O102 2.658 1_554 S
Tb80 O103 2.409 . S
Tb80 O104 2.378 1_565 S
Tb80 O108 2.325 1_565 S
Tb80 O111 2.341 1_554 S
Tb81 C91 2.809 . S
Tb81 O102 2.325 1_545 S
Tb81 O105 2.341 1_556 S
Tb81 O106 2.484 1_545 S
Tb81 O107 2.440 . S
Tb81 O108 2.658 1_556 S
Tb81 O109 2.409 . S
Tb81 O110 2.378 1_545 S
C82 Tb80 2.809 . S
C82 C83 1.514 . S
C82 O100 1.248 1_565 S
C82 O101 1.266 . S
C83 C82 1.514 . S
C83 C84 1.359 1_565 S
C83 C88 1.348 . S
C84 C83 1.359 1_545 S
C84 C85 1.380 . S
C84 H112 0.929 . S
C85 C84 1.380 . S
C85 C86 1.347 1_545 S
C85 H113 0.931 . S
C86 C85 1.347 1_565 S
C86 C87 1.369 . S
C87 C86 1.369 . S
C87 C88 1.408 . S
C87 H114 0.930 . S
C88 C83 1.348 . S
C88 C87 1.408 . S
C88 H115 0.930 . S
C89 O102 1.281 . S
C89 O103 1.254 1_556 S
C90 O104 1.236 . S
C90 O105 1.266 . S
C91 Tb81 2.809 . S
C91 C92 1.514 . S
C91 O106 1.248 1_545 S
C91 O107 1.266 . S
C92 C91 1.514 . S
C92 C93 1.359 1_545 S
C92 C97 1.348 . S
C93 C92 1.359 1_565 S
C93 C94 1.380 . S
C93 H116 0.929 . S
C94 C93 1.380 . S
C94 C95 1.347 1_565 S
C94 H117 0.931 . S
C95 C94 1.347 1_545 S
C95 C96 1.369 . S
C96 C95 1.369 . S
C96 C97 1.408 . S
C96 H118 0.930 . S
C97 C92 1.348 . S
C97 C96 1.408 . S
C97 H119 0.930 . S
C98 O108 1.281 . S
C98 O109 1.254 1_554 S
C99 O110 1.236 . S
C99 O111 1.266 . S
O100 Tb80 2.484 1_545 S
O100 C82 1.248 1_545 S
O101 Tb80 2.440 . S
O101 C82 1.266 . S
O102 Tb80 2.658 1_556 S
O102 Tb81 2.325 1_565 S
O102 C89 1.281 . S
O103 Tb80 2.409 . S
O103 C89 1.254 1_554 S
O104 Tb80 2.378 1_545 S
O104 C90 1.236 . S
O105 Tb81 2.341 1_554 S
O105 C90 1.266 . S
O106 Tb81 2.484 1_565 S
O106 C91 1.248 1_565 S
O107 Tb81 2.440 . S
O107 C91 1.266 . S
O108 Tb80 2.325 1_545 S
O108 Tb81 2.658 1_554 S
O108 C98 1.281 . S
O109 Tb81 2.409 . S
O109 C98 1.254 1_556 S
O110 Tb81 2.378 1_565 S
O110 C99 1.236 . S
O111 Tb80 2.341 1_556 S
O111 C99 1.266 . S
H112 C84 0.929 . S
H113 C85 0.931 . S
H114 C87 0.930 . S
H115 C88 0.930 . S
H116 C93 0.929 . S
H117 C94 0.931 . S
H118 C96 0.930 . S
H119 C97 0.930 . S
Tb120 C122 2.809 . S
Tb120 O140 2.484 . S
Tb120 O141 2.440 . S
Tb120 O142 2.658 . S
Tb120 O143 2.409 . S
Tb120 O144 2.378 . S
Tb120 O148 2.325 . S
Tb120 O151 2.341 . S
Tb121 C131 2.809 . S
Tb121 O142 2.325 . S
Tb121 O145 2.341 . S
Tb121 O146 2.484 . S
Tb121 O147 2.440 . S
Tb121 O148 2.658 . S
Tb121 O149 2.409 . S
Tb121 O150 2.378 . S
C122 Tb120 2.809 . S
C122 C123 1.514 . S
C122 O140 1.248 . S
C122 O141 1.266 . S
C123 C122 1.514 . S
C123 C124 1.359 . S
C123 C128 1.348 . S
C124 C123 1.359 . S
C124 C125 1.380 . S
C124 H152 0.929 . S
C125 C124 1.380 . S
C125 C126 1.347 . S
C125 H153 0.931 . S
C126 C125 1.347 . S
C126 C127 1.369 . S
C127 C126 1.369 . S
C127 C128 1.408 . S
C127 H154 0.930 . S
C128 C123 1.348 . S
C128 C127 1.408 . S
C128 H155 0.930 . S
C129 O142 1.281 . S
C129 O143 1.254 . S
C130 O144 1.236 . S
C130 O145 1.266 . S
C131 Tb121 2.809 . S
C131 C132 1.514 1_554 S
C131 O146 1.248 . S
C131 O147 1.266 . S
C132 C131 1.514 1_556 S
C132 C133 1.359 . S
C132 C137 1.348 . S
C133 C132 1.359 . S
C133 C134 1.380 . S
C133 H156 0.929 . S
C134 C133 1.380 . S
C134 C135 1.347 . S
C134 H157 0.931 . S
C135 C134 1.347 . S
C135 C136 1.369 . S
C136 C135 1.369 . S
C136 C137 1.408 . S
C136 H158 0.930 . S
C137 C132 1.348 . S
C137 C136 1.408 . S
C137 H159 0.930 . S
C138 O148 1.281 . S
C138 O149 1.254 . S
C139 O150 1.236 . S
C139 O151 1.266 . S
O140 Tb120 2.484 . S
O140 C122 1.248 . S
O141 Tb120 2.440 . S
O141 C122 1.266 . S
O142 Tb120 2.658 . S
O142 Tb121 2.325 . S
O142 C129 1.281 . S
O143 Tb120 2.409 . S
O143 C129 1.254 . S
O144 Tb120 2.378 . S
O144 C130 1.236 . S
O145 Tb121 2.341 . S
O145 C130 1.266 . S
O146 Tb121 2.484 . S
O146 C131 1.248 . S
O147 Tb121 2.440 . S
O147 C131 1.266 . S
O148 Tb120 2.325 . S
O148 Tb121 2.658 . S
O148 C138 1.281 . S
O149 Tb121 2.409 . S
O149 C138 1.254 . S
O150 Tb121 2.378 . S
O150 C139 1.236 . S
O151 Tb120 2.341 . S
O151 C139 1.266 . S
H152 C124 0.929 . S
H153 C125 0.931 . S
H154 C127 0.930 . S
H155 C128 0.930 . S
H156 C133 0.929 . S
H157 C134 0.931 . S
H158 C136 0.930 . S
H159 C137 0.930 . S
Tb160 C162 2.809 . S
Tb160 O180 2.484 . S
Tb160 O181 2.440 . S
Tb160 O182 2.658 . S
Tb160 O183 2.409 . S
Tb160 O184 2.378 . S
Tb160 O188 2.325 . S
Tb160 O191 2.341 . S
Tb161 C171 2.809 . S
Tb161 O182 2.325 . S
Tb161 O185 2.341 . S
Tb161 O186 2.484 . S
Tb161 O187 2.440 . S
Tb161 O188 2.658 . S
Tb161 O189 2.409 . S
Tb161 O190 2.378 . S
C162 Tb160 2.809 . S
C162 C163 1.504 1_554 S
C162 O180 1.248 . S
C162 O181 1.266 . S
C163 C162 1.504 1_556 S
C163 C164 1.364 . S
C163 C168 1.353 . S
C164 C163 1.364 . S
C164 C165 1.380 . S
C164 H192 0.929 . S
C165 C164 1.380 . S
C165 C166 1.347 . S
C165 H193 0.931 . S
C166 C165 1.347 . S
C166 C167 1.369 . S
C167 C166 1.369 . S
C167 C168 1.408 . S
C167 H194 0.930 . S
C168 C163 1.353 . S
C168 C167 1.408 . S
C168 H195 0.930 1_556 S
C169 O182 1.281 . S
C169 O183 1.254 . S
C170 O184 1.236 . S
C170 O185 1.266 . S
C171 Tb161 2.809 . S
C171 C172 1.514 . S
C171 O186 1.248 . S
C171 O187 1.266 . S
C172 C171 1.514 . S
C172 C173 1.359 . S
C172 C177 1.348 . S
C173 C172 1.359 . S
C173 C174 1.380 . S
C173 H196 0.929 . S
C174 C173 1.380 . S
C174 C175 1.347 . S
C174 H197 0.931 . S
C175 C174 1.347 . S
C175 C176 1.369 . S
C176 C175 1.369 . S
C176 C177 1.408 . S
C176 H198 0.930 . S
C177 C172 1.348 . S
C177 C176 1.408 . S
C177 H199 0.930 . S
C178 O188 1.281 . S
C178 O189 1.254 . S
C179 O190 1.236 . S
C179 O191 1.266 . S
O180 Tb160 2.484 . S
O180 C162 1.248 . S
O181 Tb160 2.440 . S
O181 C162 1.266 . S
O182 Tb160 2.658 . S
O182 Tb161 2.325 . S
O182 C169 1.281 . S
O183 Tb160 2.409 . S
O183 C169 1.254 . S
O184 Tb160 2.378 . S
O184 C170 1.236 . S
O185 Tb161 2.341 . S
O185 C170 1.266 . S
O186 Tb161 2.484 . S
O186 C171 1.248 . S
O187 Tb161 2.440 . S
O187 C171 1.266 . S
O188 Tb160 2.325 . S
O188 Tb161 2.658 . S
O188 C178 1.281 . S
O189 Tb161 2.409 . S
O189 C178 1.254 . S
O190 Tb161 2.378 . S
O190 C179 1.236 . S
O191 Tb160 2.341 . S
O191 C179 1.266 . S
H192 C164 0.929 . S
H193 C165 0.931 . S
H194 C167 0.930 . S
H195 C168 0.930 1_554 S
H196 C173 0.929 . S
H197 C174 0.931 . S
H198 C176 0.930 . S
H199 C177 0.930 . S
Tb200 C202 2.809 . S
Tb200 O220 2.484 . S
Tb200 O221 2.440 . S
Tb200 O222 2.658 . S
Tb200 O223 2.409 . S
Tb200 O224 2.378 . S
Tb200 O228 2.325 . S
Tb200 O231 2.341 . S
Tb201 C211 2.809 . S
Tb201 O222 2.325 . S
Tb201 O225 2.341 . S
Tb201 O226 2.484 . S
Tb201 O227 2.440 . S
Tb201 O228 2.658 . S
Tb201 O229 2.409 . S
Tb201 O230 2.378 . S
C202 Tb200 2.809 . S
C202 C203 1.514 1_556 S
C202 O220 1.248 . S
C202 O221 1.266 . S
C203 C202 1.514 1_554 S
C203 C204 1.359 . S
C203 C208 1.348 . S
C204 C203 1.359 . S
C204 C205 1.380 . S
C204 H232 0.929 . S
C205 C204 1.380 . S
C205 C206 1.347 . S
C205 H233 0.931 . S
C206 C205 1.347 . S
C206 C207 1.369 . S
C207 C206 1.369 . S
C207 C208 1.408 . S
C207 H234 0.930 . S
C208 C203 1.348 . S
C208 C207 1.408 . S
C208 H235 0.930 . S
C209 O222 1.281 . S
C209 O223 1.254 . S
C210 O224 1.236 . S
C210 O225 1.266 . S
C211 Tb201 2.809 . S
C211 C212 1.514 . S
C211 O226 1.248 . S
C211 O227 1.266 . S
C212 C211 1.514 . S
C212 C213 1.359 . S
C212 C217 1.348 . S
C213 C212 1.359 . S
C213 C214 1.380 . S
C213 H236 0.929 . S
C214 C213 1.380 . S
C214 C215 1.347 . S
C214 H237 0.931 . S
C215 C214 1.347 . S
C215 C216 1.369 . S
C216 C215 1.369 . S
C216 C217 1.408 . S
C216 H238 0.930 . S
C217 C212 1.348 . S
C217 C216 1.408 . S
C217 H239 0.930 . S
C218 O228 1.281 . S
C218 O229 1.254 . S
C219 O230 1.236 . S
C219 O231 1.266 . S
O220 Tb200 2.484 . S
O220 C202 1.248 . S
O221 Tb200 2.440 . S
O221 C202 1.266 . S
O222 Tb200 2.658 . S
O222 Tb201 2.325 . S
O222 C209 1.281 . S
O223 Tb200 2.409 . S
O223 C209 1.254 . S
O224 Tb200 2.378 . S
O224 C210 1.236 . S
O225 Tb201 2.341 . S
O225 C210 1.266 . S
O226 Tb201 2.484 . S
O226 C211 1.248 . S
O227 Tb201 2.440 . S
O227 C211 1.266 . S
O228 Tb200 2.325 . S
O228 Tb201 2.658 . S
O228 C218 1.281 . S
O229 Tb201 2.409 . S
O229 C218 1.254 . S
O230 Tb201 2.378 . S
O230 C219 1.236 . S
O231 Tb200 2.341 . S
O231 C219 1.266 . S
H232 C204 0.929 . S
H233 C205 0.931 . S
H234 C207 0.930 . S
H235 C208 0.930 . S
H236 C213 0.929 . S
H237 C214 0.931 . S
H238 C216 0.930 . S
H239 C217 0.930 . S
Tb240 C242 2.809 . S
Tb240 O260 2.484 . S
Tb240 O261 2.440 . S
Tb240 O262 2.658 1_556 S
Tb240 O263 2.409 . S
Tb240 O264 2.378 . S
Tb240 O268 2.325 . S
Tb240 O271 2.341 . S
Tb241 C251 2.809 . S
Tb241 O262 2.325 . S
Tb241 O265 2.341 . S
Tb241 O266 2.484 . S
Tb241 O267 2.440 . S
Tb241 O268 2.658 1_554 S
Tb241 O269 2.409 . S
Tb241 O270 2.378 . S
C242 Tb240 2.809 . S
C242 C243 1.514 . S
C242 O260 1.248 . S
C242 O261 1.266 . S
C243 C242 1.514 . S
C243 C244 1.359 . S
C243 C248 1.348 . S
C244 C243 1.359 . S
C244 C245 1.380 . S
C244 H272 0.929 . S
C245 C244 1.380 . S
C245 C246 1.347 . S
C245 H273 0.931 . S
C246 C245 1.347 . S
C246 C247 1.369 . S
C247 C246 1.369 . S
C247 C248 1.408 . S
C247 H274 0.930 . S
C248 C243 1.348 . S
C248 C247 1.408 . S
C248 H275 0.930 . S
C249 O262 1.281 . S
C249 O263 1.254 1_554 S
C250 O264 1.236 . S
C250 O265 1.266 1_556 S
C251 Tb241 2.809 . S
C251 C252 1.514 . S
C251 O266 1.248 . S
C251 O267 1.266 . S
C252 C251 1.514 . S
C252 C253 1.359 . S
C252 C257 1.348 . S
C253 C252 1.359 . S
C253 C254 1.380 . S
C253 H276 0.929 . S
C254 C253 1.380 . S
C254 C255 1.347 . S
C254 H277 0.931 . S
C255 C254 1.347 . S
C255 C256 1.369 . S
C256 C255 1.369 . S
C256 C257 1.408 . S
C256 H278 0.930 . S
C257 C252 1.348 . S
C257 C256 1.408 . S
C257 H279 0.930 . S
C258 O268 1.281 . S
C258 O269 1.254 1_556 S
C259 O270 1.236 . S
C259 O271 1.266 1_554 S
O260 Tb240 2.484 . S
O260 C242 1.248 . S
O261 Tb240 2.440 . S
O261 C242 1.266 . S
O262 Tb240 2.658 1_554 S
O262 Tb241 2.325 . S
O262 C249 1.281 . S
O263 Tb240 2.409 . S
O263 C249 1.254 1_556 S
O264 Tb240 2.378 . S
O264 C250 1.236 . S
O265 Tb241 2.341 . S
O265 C250 1.266 1_554 S
O266 Tb241 2.484 . S
O266 C251 1.248 . S
O267 Tb241 2.440 . S
O267 C251 1.266 . S
O268 Tb240 2.325 . S
O268 Tb241 2.658 1_556 S
O268 C258 1.281 . S
O269 Tb241 2.409 . S
O269 C258 1.254 1_554 S
O270 Tb241 2.378 . S
O270 C259 1.236 . S
O271 Tb240 2.341 . S
O271 C259 1.266 1_556 S
H272 C244 0.929 . S
H273 C245 0.931 . S
H274 C247 0.930 . S
H275 C248 0.930 . S
H276 C253 0.929 . S
H277 C254 0.931 . S
H278 C256 0.930 . S
H279 C257 0.930 . S
Tb280 C282 2.809 1_455 S
Tb280 O300 2.484 . S
Tb280 O301 2.440 1_455 S
Tb280 O302 2.658 1_455 S
Tb280 O303 2.409 1_455 S
Tb280 O304 2.378 1_455 S
Tb280 O308 2.325 . S
Tb280 O311 2.341 . S
Tb281 C291 2.809 1_655 S
Tb281 O302 2.325 . S
Tb281 O305 2.341 . S
Tb281 O306 2.484 . S
Tb281 O307 2.440 1_655 S
Tb281 O308 2.658 1_655 S
Tb281 O309 2.409 1_655 S
Tb281 O310 2.378 1_655 S
C282 Tb280 2.809 1_655 S
C282 C283 1.514 . S
C282 O300 1.248 1_655 S
C282 O301 1.266 . S
C283 C282 1.514 . S
C283 C284 1.359 1_655 S
C283 C288 1.348 . S
C284 C283 1.359 1_455 S
C284 C285 1.380 1_455 S
C284 H312 0.929 . S
C285 C284 1.380 1_655 S
C285 C286 1.347 . S
C285 H313 0.931 1_655 S
C286 C285 1.347 . S
C286 C287 1.369 . S
C287 C286 1.369 . S
C287 C288 1.408 . S
C287 H314 0.930 . S
C288 C283 1.348 . S
C288 C287 1.408 . S
C288 H315 0.930 . S
C289 O302 1.281 . S
C289 O303 1.254 . S
C290 O304 1.236 . S
C290 O305 1.266 . S
C291 Tb281 2.809 1_455 S
C291 C292 1.514 . S
C291 O306 1.248 1_455 S
C291 O307 1.266 . S
C292 C291 1.514 . S
C292 C293 1.359 1_455 S
C292 C297 1.348 . S
C293 C292 1.359 1_655 S
C293 C294 1.380 1_655 S
C293 H316 0.929 . S
C294 C293 1.380 1_455 S
C294 C295 1.347 . S
C294 H317 0.931 1_455 S
C295 C294 1.347 . S
C295 C296 1.369 . S
C296 C295 1.369 . S
C296 C297 1.408 . S
C296 H318 0.930 . S
C297 C292 1.348 . S
C297 C296 1.408 . S
C297 H319 0.930 . S
C298 O308 1.281 . S
C298 O309 1.254 . S
C299 O310 1.236 . S
C299 O311 1.266 . S
O300 Tb280 2.484 . S
O300 C282 1.248 1_455 S
O301 Tb280 2.440 1_655 S
O301 C282 1.266 . S
O302 Tb280 2.658 1_655 S
O302 Tb281 2.325 . S
O302 C289 1.281 . S
O303 Tb280 2.409 1_655 S
O303 C289 1.254 . S
O304 Tb280 2.378 1_655 S
O304 C290 1.236 . S
O305 Tb281 2.341 . S
O305 C290 1.266 . S
O306 Tb281 2.484 . S
O306 C291 1.248 1_655 S
O307 Tb281 2.440 1_455 S
O307 C291 1.266 . S
O308 Tb280 2.325 . S
O308 Tb281 2.658 1_455 S
O308 C298 1.281 . S
O309 Tb281 2.409 1_455 S
O309 C298 1.254 . S
O310 Tb281 2.378 1_455 S
O310 C299 1.236 . S
O311 Tb280 2.341 . S
O311 C299 1.266 . S
H312 C284 0.929 . S
H313 C285 0.931 1_455 S
H314 C287 0.930 . S
H315 C288 0.930 . S
H316 C293 0.929 . S
H317 C294 0.931 1_655 S
H318 C296 0.930 . S
H319 C297 0.930 . S
C320 C321 1.369 . S
C320 C322 1.419 . S
C320 H324 0.930 . S
C321 C320 1.369 . S
C321 C330 1.429 . S
C322 C320 1.419 . S
C322 C323 1.363 . S
C322 H325 0.929 . S
C323 C322 1.363 . S
C323 C329 1.428 . S
H324 C320 0.930 . S
H325 C322 0.929 . S
S326 N327 1.613 . S
S326 N328 1.610 . S
N327 S326 1.613 . S
N327 C330 1.350 . S
N328 S326 1.610 . S
N328 C329 1.351 . S
C329 C323 1.428 . S
C329 N328 1.351 . S
C329 C330 1.434 . S
C330 C321 1.429 . S
C330 N327 1.350 . S
C330 C329 1.434 . S
C331 C332 1.369 . S
C331 C333 1.419 . S
C331 H335 0.930 . S
C332 C331 1.369 . S
C332 C341 1.429 . S
C333 C331 1.419 . S
C333 C334 1.363 . S
C333 H336 0.929 . S
C334 C333 1.363 . S
C334 C340 1.428 . S
H335 C331 0.930 . S
H336 C333 0.929 . S
S337 N338 1.613 . S
S337 N339 1.610 . S
N338 S337 1.613 . S
N338 C341 1.350 . S
N339 S337 1.610 . S
N339 C340 1.351 . S
C340 C334 1.428 . S
C340 N339 1.351 . S
C340 C341 1.434 . S
C341 C332 1.429 . S
C341 N338 1.350 . S
C341 C340 1.434 . S
C342 C343 1.369 . S
C342 C344 1.419 . S
C342 H346 0.930 . S
C343 C342 1.369 . S
C343 C352 1.429 . S
C344 C342 1.419 . S
C344 C345 1.363 . S
C344 H347 0.929 . S
C345 C344 1.363 . S
C345 C351 1.428 . S
H346 C342 0.930 . S
H347 C344 0.929 . S
S348 N349 1.613 . S
S348 N350 1.610 . S
N349 S348 1.613 . S
N349 C352 1.350 . S
N350 S348 1.610 . S
N350 C351 1.351 . S
C351 C345 1.428 . S
C351 N350 1.351 . S
C351 C352 1.434 . S
C352 C343 1.429 . S
C352 N349 1.350 . S
C352 C351 1.434 . S
C353 C354 1.369 . S
C353 C355 1.419 . S
C353 H357 0.930 . S
C354 C353 1.369 . S
C354 C363 1.429 . S
C355 C353 1.419 . S
C355 C356 1.363 . S
C355 H358 0.929 . S
C356 C355 1.363 . S
C356 C362 1.428 . S
H357 C353 0.930 . S
H358 C355 0.929 . S
S359 N360 1.613 . S
S359 N361 1.610 . S
N360 S359 1.613 . S
N360 C363 1.350 . S
N361 S359 1.610 . S
N361 C362 1.351 . S
C362 C356 1.428 . S
C362 N361 1.351 . S
C362 C363 1.434 . S
C363 C354 1.429 . S
C363 N360 1.350 . S
C363 C362 1.434 . S
C364 C365 1.369 . S
C364 C366 1.419 . S
C364 H368 0.930 . S
C365 C364 1.369 . S
C365 C374 1.429 . S
C366 C364 1.419 . S
C366 C367 1.363 . S
C366 H369 0.929 . S
C367 C366 1.363 . S
C367 C373 1.428 . S
H368 C364 0.930 . S
H369 C366 0.929 . S
S370 N371 1.613 . S
S370 N372 1.610 . S
N371 S370 1.613 . S
N371 C374 1.350 . S
N372 S370 1.610 . S
N372 C373 1.351 . S
C373 C367 1.428 . S
C373 N372 1.351 . S
C373 C374 1.434 . S
C374 C365 1.429 . S
C374 N371 1.350 . S
C374 C373 1.434 . S
C375 C376 1.369 . S
C375 C377 1.419 . S
C375 H379 0.930 . S
C376 C375 1.369 . S
C376 C385 1.429 . S
C377 C375 1.419 . S
C377 C378 1.363 . S
C377 H380 0.929 . S
C378 C377 1.363 . S
C378 C384 1.428 . S
H379 C375 0.930 . S
H380 C377 0.929 . S
S381 N382 1.613 . S
S381 N383 1.610 . S
N382 S381 1.613 . S
N382 C385 1.350 . S
N383 S381 1.610 . S
N383 C384 1.351 . S
C384 C378 1.428 . S
C384 N383 1.351 . S
C384 C385 1.434 . S
C385 C376 1.429 . S
C385 N382 1.350 . S
C385 C384 1.434 . S
C386 C387 1.369 . S
C386 C388 1.419 . S
C386 H390 0.930 . S
C387 C386 1.369 . S
C387 C396 1.429 . S
C388 C386 1.419 . S
C388 C389 1.363 . S
C388 H391 0.929 . S
C389 C388 1.363 . S
C389 C395 1.428 . S
H390 C386 0.930 . S
H391 C388 0.929 . S
S392 N393 1.613 . S
S392 N394 1.610 . S
N393 S392 1.613 . S
N393 C396 1.350 . S
N394 S392 1.610 . S
N394 C395 1.351 . S
C395 C389 1.428 . S
C395 N394 1.351 . S
C395 C396 1.434 . S
C396 C387 1.429 . S
C396 N393 1.350 . S
C396 C395 1.434 . S
C397 C398 1.369 . S
C397 C399 1.419 . S
C397 H401 0.930 . S
C398 C397 1.369 . S
C398 C407 1.429 . S
C399 C397 1.419 . S
C399 C400 1.363 . S
C399 H402 0.929 . S
C400 C399 1.363 . S
C400 C406 1.428 . S
H401 C397 0.930 . S
H402 C399 0.929 . S
S403 N404 1.613 . S
S403 N405 1.610 . S
N404 S403 1.613 . S
N404 C407 1.350 . S
N405 S403 1.610 . S
N405 C406 1.351 . S
C406 C400 1.428 . S
C406 N405 1.351 . S
C406 C407 1.434 . S
C407 C398 1.429 . S
C407 N404 1.350 . S
C407 C406 1.434 . S
C408 C409 1.369 . S
C408 C410 1.419 . S
C408 H412 0.930 . S
C409 C408 1.369 . S
C409 C418 1.429 . S
C410 C408 1.419 . S
C410 C411 1.363 . S
C410 H413 0.929 . S
C411 C410 1.363 . S
C411 C417 1.428 . S
H412 C408 0.930 . S
H413 C410 0.929 . S
S414 N415 1.613 . S
S414 N416 1.610 . S
N415 S414 1.613 . S
N415 C418 1.350 . S
N416 S414 1.610 . S
N416 C417 1.351 . S
C417 C411 1.428 . S
C417 N416 1.351 . S
C417 C418 1.434 . S
C418 C409 1.429 . S
C418 N415 1.350 . S
C418 C417 1.434 . S
C419 C420 1.369 . S
C419 C421 1.419 . S
C419 H423 0.930 . S
C420 C419 1.369 . S
C420 C429 1.429 . S
C421 C419 1.419 . S
C421 C422 1.363 . S
C421 H424 0.929 . S
C422 C421 1.363 . S
C422 C428 1.428 . S
H423 C419 0.930 . S
H424 C421 0.929 . S
S425 N426 1.613 . S
S425 N427 1.610 . S
N426 S425 1.613 . S
N426 C429 1.350 . S
N427 S425 1.610 . S
N427 C428 1.351 . S
C428 C422 1.428 . S
C428 N427 1.351 . S
C428 C429 1.434 . S
C429 C420 1.429 . S
C429 N426 1.350 . S
C429 C428 1.434 . S
C430 C431 1.369 . S
C430 C432 1.419 . S
C430 H434 0.930 . S
C431 C430 1.369 . S
C431 C440 1.429 . S
C432 C430 1.419 . S
C432 C433 1.363 . S
C432 H435 0.929 . S
C433 C432 1.363 . S
C433 C439 1.428 . S
H434 C430 0.930 . S
H435 C432 0.929 . S
S436 N437 1.613 . S
S436 N438 1.610 . S
N437 S436 1.613 . S
N437 C440 1.350 . S
N438 S436 1.610 . S
N438 C439 1.351 . S
C439 C433 1.428 . S
C439 N438 1.351 . S
C439 C440 1.434 . S
C440 C431 1.429 . S
C440 N437 1.350 . S
C440 C439 1.434 . S
C441 C442 1.369 . S
C441 C443 1.419 . S
C441 H445 0.930 . S
C442 C441 1.369 . S
C442 C451 1.429 . S
C443 C441 1.419 . S
C443 C444 1.363 . S
C443 H446 0.929 . S
C444 C443 1.363 . S
C444 C450 1.428 . S
H445 C441 0.930 . S
H446 C443 0.929 . S
S447 N448 1.613 . S
S447 N449 1.610 . S
N448 S447 1.613 . S
N448 C451 1.350 . S
N449 S447 1.610 . S
N449 C450 1.351 . S
C450 C444 1.428 . S
C450 N449 1.351 . S
C450 C451 1.434 . S
C451 C442 1.429 . S
C451 N448 1.350 . S
C451 C450 1.434 . S
C452 C453 1.369 . S
C452 C454 1.419 . S
C452 H456 0.930 . S
C453 C452 1.369 . S
C453 C462 1.429 . S
C454 C452 1.419 . S
C454 C455 1.363 . S
C454 H457 0.929 . S
C455 C454 1.363 . S
C455 C461 1.428 . S
H456 C452 0.930 . S
H457 C454 0.929 . S
S458 N459 1.624 . S
S458 N460 1.609 . S
N459 S458 1.624 . S
N459 C462 1.350 . S
N460 S458 1.609 . S
N460 C461 1.351 . S
C461 C455 1.428 . S
C461 N460 1.351 . S
C461 C462 1.434 . S
C462 C453 1.429 . S
C462 N459 1.350 . S
C462 C461 1.434 . S
C463 C464 1.369 . S
C463 C465 1.419 . S
C463 H467 0.930 . S
C464 C463 1.369 . S
C464 C473 1.429 . S
C465 C463 1.419 . S
C465 C466 1.363 . S
C465 H468 0.929 . S
C466 C465 1.363 . S
C466 C472 1.428 . S
H467 C463 0.930 . S
H468 C465 0.929 . S
S469 N470 1.613 . S
S469 N471 1.610 . S
N470 S469 1.613 . S
N470 C473 1.350 . S
N471 S469 1.610 . S
N471 C472 1.351 . S
C472 C466 1.428 . S
C472 N471 1.351 . S
C472 C473 1.434 . S
C473 C464 1.429 . S
C473 N470 1.350 . S
C473 C472 1.434 . S
C474 C475 1.369 . S
C474 C476 1.419 . S
C474 H478 0.930 . S
C475 C474 1.369 . S
C475 C484 1.429 . S
C476 C474 1.419 . S
C476 C477 1.363 . S
C476 H479 0.929 . S
C477 C476 1.363 . S
C477 C483 1.428 . S
H478 C474 0.930 . S
H479 C476 0.929 . S
S480 N481 1.613 . S
S480 N482 1.610 . S
N481 S480 1.613 . S
N481 C484 1.350 . S
N482 S480 1.610 . S
N482 C483 1.351 . S
C483 C477 1.428 . S
C483 N482 1.351 . S
C483 C484 1.434 . S
C484 C475 1.429 . S
C484 N481 1.350 . S
C484 C483 1.434 . S
C485 C486 1.369 . S
C485 C487 1.419 . S
C485 H489 0.930 . S
C486 C485 1.369 . S
C486 C495 1.429 . S
C487 C485 1.419 . S
C487 C488 1.363 . S
C487 H490 0.929 . S
C488 C487 1.363 . S
C488 C494 1.428 . S
H489 C485 0.930 . S
H490 C487 0.929 . S
S491 N492 1.613 . S
S491 N493 1.610 . S
N492 S491 1.613 . S
N492 C495 1.350 . S
N493 S491 1.610 . S
N493 C494 1.351 . S
C494 C488 1.428 . S
C494 N493 1.351 . S
C494 C495 1.434 . S
C495 C486 1.429 . S
C495 N492 1.350 . S
C495 C494 1.434 . S
C496 C497 1.375 1_455 S
C496 C498 1.411 1_556 S
C496 H500 0.932 1_556 S
C497 C496 1.375 1_655 S
C497 C506 1.429 1_545 S
C498 C496 1.411 1_554 S
C498 C499 1.363 1_545 S
C498 H501 0.929 . S
C499 C498 1.363 1_565 S
C499 C505 1.421 1_454 S
H500 C496 0.932 1_554 S
H501 C498 0.929 . S
S502 N503 1.613 . S
S502 N504 1.610 . S
N503 S502 1.613 . S
N503 C506 1.350 . S
N504 S502 1.610 . S
N504 C505 1.349 . S
C505 C499 1.421 1_656 S
C505 N504 1.349 . S
C505 C506 1.443 . S
C506 C497 1.429 1_565 S
C506 N503 1.350 . S
C506 C505 1.443 . S
C507 C508 1.369 . S
C507 C509 1.419 . S
C507 H511 0.930 . S
C508 C507 1.369 . S
C508 C517 1.429 . S
C509 C507 1.419 . S
C509 C510 1.363 . S
C509 H512 0.929 . S
C510 C509 1.363 . S
C510 C516 1.428 . S
H511 C507 0.930 . S
H512 C509 0.929 . S
S513 N514 1.613 . S
S513 N515 1.610 . S
N514 S513 1.613 . S
N514 C517 1.350 . S
N515 S513 1.610 . S
N515 C516 1.351 . S
C516 C510 1.428 . S
C516 N515 1.351 . S
C516 C517 1.434 . S
C517 C508 1.429 . S
C517 N514 1.350 . S
C517 C516 1.434 . S
C518 C519 1.369 1_565 S
C518 C520 1.419 . S
C518 H522 0.930 . S
C519 C518 1.369 1_545 S
C519 C528 1.429 . S
C520 C518 1.419 . S
C520 C521 1.363 . S
C520 H523 0.929 . S
C521 C520 1.363 . S
C521 C527 1.428 1_565 S
H522 C518 0.930 . S
H523 C520 0.929 . S
S524 N525 1.613 . S
S524 N526 1.610 . S
N525 S524 1.613 . S
N525 C528 1.350 . S
N526 S524 1.610 . S
N526 C527 1.351 . S
C527 C521 1.428 1_545 S
C527 N526 1.351 . S
C527 C528 1.434 . S
C528 C519 1.429 . S
C528 N525 1.350 . S
C528 C527 1.434 . S
C529 C530 1.369 . S
C529 C531 1.419 . S
C529 H533 0.930 . S
C530 C529 1.369 . S
C530 C539 1.429 . S
C531 C529 1.419 . S
C531 C532 1.363 . S
C531 H534 0.929 . S
C532 C531 1.363 . S
C532 C538 1.428 . S
H533 C529 0.930 . S
H534 C531 0.929 . S
S535 N536 1.613 . S
S535 N537 1.610 . S
N536 S535 1.613 . S
N536 C539 1.350 . S
N537 S535 1.610 . S
N537 C538 1.351 . S
C538 C532 1.428 . S
C538 N537 1.351 . S
C538 C539 1.434 . S
C539 C530 1.429 . S
C539 N536 1.350 . S
C539 C538 1.434 . S
C540 C541 1.369 . S
C540 C542 1.419 . S
C540 H544 0.930 . S
C541 C540 1.369 . S
C541 C550 1.429 . S
C542 C540 1.419 . S
C542 C543 1.363 . S
C542 H545 0.929 . S
C543 C542 1.363 . S
C543 C549 1.428 . S
H544 C540 0.930 . S
H545 C542 0.929 . S
S546 N547 1.613 . S
S546 N548 1.610 . S
N547 S546 1.613 . S
N547 C550 1.350 . S
N548 S546 1.610 . S
N548 C549 1.351 . S
C549 C543 1.428 . S
C549 N548 1.351 . S
C549 C550 1.434 . S
C550 C541 1.429 . S
C550 N547 1.350 . S
C550 C549 1.434 . S
C551 C552 1.369 . S
C551 C553 1.419 . S
C551 H555 0.930 . S
C552 C551 1.369 . S
C552 C561 1.429 . S
C553 C551 1.419 . S
C553 C554 1.363 . S
C553 H556 0.929 . S
C554 C553 1.363 . S
C554 C560 1.428 . S
H555 C551 0.930 . S
H556 C553 0.929 . S
S557 N558 1.613 . S
S557 N559 1.610 . S
N558 S557 1.613 . S
N558 C561 1.350 . S
N559 S557 1.610 . S
N559 C560 1.351 . S
C560 C554 1.428 . S
C560 N559 1.351 . S
C560 C561 1.434 . S
C561 C552 1.429 . S
C561 N558 1.350 . S
C561 C560 1.434 . S
C562 C563 1.369 . S
C562 C564 1.419 . S
C562 H566 0.930 . S
C563 C562 1.369 . S
C563 C572 1.429 . S
C564 C562 1.419 . S
C564 C565 1.363 . S
C564 H567 0.929 . S
C565 C564 1.363 . S
C565 C571 1.428 . S
H566 C562 0.930 . S
H567 C564 0.929 . S
S568 N569 1.613 . S
S568 N570 1.610 . S
N569 S568 1.613 . S
N569 C572 1.350 . S
N570 S568 1.610 . S
N570 C571 1.351 . S
C571 C565 1.428 . S
C571 N570 1.351 . S
C571 C572 1.434 . S
C572 C563 1.429 . S
C572 N569 1.350 . S
C572 C571 1.434 . S
C573 C574 1.369 . S
C573 C575 1.419 1_556 S
C573 H577 0.930 . S
C574 C573 1.369 . S
C574 C583 1.429 1_655 S
C575 C573 1.419 1_554 S
C575 C576 1.363 1_655 S
C575 H578 0.929 . S
C576 C575 1.363 1_455 S
C576 C582 1.428 . S
H577 C573 0.930 . S
H578 C575 0.929 . S
S579 N580 1.613 . S
S579 N581 1.610 1_556 S
N580 S579 1.613 . S
N580 C583 1.350 . S
N581 S579 1.610 1_554 S
N581 C582 1.351 . S
C582 C576 1.428 . S
C582 N581 1.351 . S
C582 C583 1.434 1_554 S
C583 C574 1.429 1_455 S
C583 N580 1.350 . S
C583 C582 1.434 1_556 S
C321 C10 1.977 . S
C323 C130 1.974 . S
C332 C9 1.546 . S
C334 C50 1.578 . S
C343 C49 1.059 . S
C345 C89 1.061 . S
C354 C90 1.579 . S
C356 C129 1.541 . S
C365 C19 1.976 . S
C367 C219 1.979 . S
C376 C18 1.542 . S
C378 C179 1.579 . S
C387 C178 1.062 . S
C389 C98 1.060 . S
C398 C218 1.545 . S
C400 C99 1.580 . S
C409 C250 1.977 . S
C411 C210 1.978 . S
C420 C170 1.577 . S
C422 C249 1.547 . S
C431 C289 1.062 . S
C433 C169 1.061 . S
C442 C209 1.543 . S
C444 C290 1.580 . S
C453 C139 1.976 . S
C455 C259 1.976 . S
C464 C258 1.548 . S
C466 C59 1.578 . S
C475 C58 1.055 . S
C477 C298 1.055 . S
C486 C138 1.545 . S
C488 C299 1.577 . S
C497 C15 1.788 . S
C499 C6 1.787 . S
C508 C46 1.457 . S
C510 C55 1.464 . S
C519 C95 1.456 . S
C521 C86 1.465 . S
C530 C135 1.791 . S
C532 C126 1.784 . S
C541 C166 1.467 . S
C543 C175 1.457 . S
C552 C215 1.785 . S
C554 C206 1.789 . S
C563 C246 1.792 . S
C565 C255 1.783 . S
C574 C286 1.458 . S
C576 C295 1.464 . S
