# Generated by pormake.
# Topology yfz, (5)-cn, num edge types: 1
# Building blocks:
#     Node 0, Type 0, BuildingBlock: BEQFEK_clean_sbu_0, # of connection points: 5
#     Node 1, Type 0, BuildingBlock: BEQFEK_clean_sbu_0, # of connection points: 5
#     Node 2, Type 0, BuildingBlock: BEQFEK_clean_sbu_0, # of connection points: 5
#     Node 3, Type 0, BuildingBlock: BEQFEK_clean_sbu_0, # of connection points: 5
#     Node 4, Type 0, BuildingBlock: BEQFEK_clean_sbu_0, # of connection points: 5
#     Node 5, Type 0, BuildingBlock: BEQFEK_clean_sbu_0, # of connection points: 5
#     Node 6, Type 0, BuildingBlock: BEQFEK_clean_sbu_0, # of connection points: 5
#     Node 7, Type 0, BuildingBlock: BEQFEK_clean_sbu_0, # of connection points: 5
#     Edge 8, Type (0, 0), BuildingBlock: KIFKEQ_clean_linker_1, # of connection points: 2
#     Edge 9, Type (0, 0), BuildingBlock: KIFKEQ_clean_linker_1, # of connection points: 2
#     Edge 10, Type (0, 0), BuildingBlock: KIFKEQ_clean_linker_1, # of connection points: 2
#     Edge 11, Type (0, 0), BuildingBlock: KIFKEQ_clean_linker_1, # of connection points: 2
#     Edge 12, Type (0, 0), BuildingBlock: KIFKEQ_clean_linker_1, # of connection points: 2
#     Edge 13, Type (0, 0), BuildingBlock: KIFKEQ_clean_linker_1, # of connection points: 2
#     Edge 14, Type (0, 0), BuildingBlock: KIFKEQ_clean_linker_1, # of connection points: 2
#     Edge 15, Type (0, 0), BuildingBlock: KIFKEQ_clean_linker_1, # of connection points: 2
#     Edge 16, Type (0, 0), BuildingBlock: KIFKEQ_clean_linker_1, # of connection points: 2
#     Edge 17, Type (0, 0), BuildingBlock: KIFKEQ_clean_linker_1, # of connection points: 2
#     Edge 18, Type (0, 0), BuildingBlock: KIFKEQ_clean_linker_1, # of connection points: 2
#     Edge 19, Type (0, 0), BuildingBlock: KIFKEQ_clean_linker_1, # of connection points: 2
#     Edge 20, Type (0, 0), BuildingBlock: KIFKEQ_clean_linker_1, # of connection points: 2
#     Edge 21, Type (0, 0), BuildingBlock: KIFKEQ_clean_linker_1, # of connection points: 2
#     Edge 22, Type (0, 0), BuildingBlock: KIFKEQ_clean_linker_1, # of connection points: 2
#     Edge 23, Type (0, 0), BuildingBlock: KIFKEQ_clean_linker_1, # of connection points: 2
#     Edge 24, Type (0, 0), BuildingBlock: KIFKEQ_clean_linker_1, # of connection points: 2
#     Edge 25, Type (0, 0), BuildingBlock: KIFKEQ_clean_linker_1, # of connection points: 2
#     Edge 26, Type (0, 0), BuildingBlock: KIFKEQ_clean_linker_1, # of connection points: 2
#     Edge 27, Type (0, 0), BuildingBlock: KIFKEQ_clean_linker_1, # of connection points: 2
# Relax obj value: 0.193
# Max RMSD: 0.174
# Mean RMSD: 0.174
data_MOF--net-yfz--node1-BEQFEK_clean_sbu_0--edge1-KIFKEQ_clean_linker_1
_symmetry_space_group_name_H-M    P1
_symmetry_Int_Tables_number       1
_symmetry_cell_setting            triclinic
loop_
_symmetry_equiv_pos_as_xyz
'x, y, z'
_cell_length_a     52.575904
_cell_length_b     52.613891
_cell_length_c     19.064119
_cell_angle_alpha  89.99458
_cell_angle_beta   89.968453
_cell_angle_gamma 90.001699
loop_
_atom_site_label
_atom_site_type_symbol
_atom_site_fract_x
_atom_site_fract_y
_atom_site_fract_z
_atom_type_partial_charge
Co0 Co 0.60239 0.10185 0.25051 0.0
Co1 Co 0.61442 0.11585 0.40698 0.0
C2 C 0.6552 0.09794 0.30982 0.0
O3 O 0.63921 0.0964 0.26013 0.0
O4 O 0.64834 0.10476 0.37107 0.0
C5 C 0.6073 0.07337 0.12487 0.0
O6 O 0.62446 0.06126 0.16211 0.0
C7 C 0.62449 0.10432 0.55479 0.0
C8 C 0.61355 0.14019 0.60685 0.0
C9 C 0.6219 0.1157 0.61984 0.0
N10 N 0.61771 0.12123 0.50538 0.0
N11 N 0.61157 0.14278 0.53679 0.0
C12 C 0.63356 0.07794 0.5396 0.0
H13 H 0.62874 0.07239 0.48503 0.0
H14 H 0.62526 0.06421 0.57737 0.0
H15 H 0.65453 0.07733 0.54592 0.0
C16 C 0.56544 0.06741 0.31959 0.0
N17 N 0.58418 0.08483 0.32199 0.0
N18 N 0.58793 0.09181 0.38757 0.0
C19 C 0.57077 0.07979 0.42856 0.0
C20 C 0.5563 0.0637 0.38702 0.0
C21 C 0.5558 0.05559 0.25343 0.0
H22 H 0.5501 0.07078 0.21625 0.0
H23 H 0.57137 0.04459 0.22847 0.0
H24 H 0.53936 0.04287 0.2635 0.0
O25 O 0.59559 0.13898 0.25438 0.0
O26 O 0.60569 0.14894 0.36408 0.0
H27 H 0.57184 0.10392 0.51953 0.0
H28 H 0.54825 0.07926 0.52381 0.0
C29 C 0.56773 0.0839 0.50585 0.0
H30 H 0.58095 0.07119 0.53427 0.0
H31 H 0.60524 0.15899 0.51056 0.0
O32 O 0.59358 0.09016 0.15446 0.0
C33 C 0.59821 0.15537 0.30307 0.0
Co34 Co 0.39561 0.60308 0.75354 0.0
Co35 Co 0.38106 0.61616 0.90819 0.0
C36 C 0.40019 0.65613 0.81032 0.0
O37 O 0.40201 0.63983 0.76137 0.0
O38 O 0.39264 0.64975 0.87138 0.0
C39 C 0.42386 0.60507 0.6255 0.0
O40 O 0.43728 0.62242 0.65841 0.0
C41 C 0.3888 0.62815 0.05789 0.0
C42 C 0.35563 0.60853 0.10421 0.0
C43 C 0.37764 0.62158 0.1215 0.0
N44 N 0.37437 0.61863 0.00588 0.0
N45 N 0.35432 0.60743 0.03395 0.0
C46 C 0.4122 0.64384 0.04615 0.0
H47 H 0.42882 0.63129 0.03738 0.0
H48 H 0.41607 0.65622 0.09206 0.0
H49 H 0.40985 0.65577 -0.00132 0.0
C50 C 0.42934 0.56614 0.82505 0.0
N51 N 0.41202 0.58498 0.82594 0.0
N52 N 0.40512 0.58954 0.89116 0.0
C53 C 0.41727 0.57299 0.93369 0.0
C54 C 0.43316 0.55787 0.89327 0.0
C55 C 0.44108 0.55569 0.75966 0.0
H56 H 0.42583 0.55007 0.72256 0.0
H57 H 0.45252 0.57078 0.73401 0.0
H58 H 0.45338 0.53904 0.77088 0.0
O59 O 0.35836 0.59694 0.75552 0.0
O60 O 0.34813 0.60764 0.86432 0.0
H61 H 0.39308 0.57182 0.02417 0.0
H62 H 0.42209 0.55396 0.034 0.0
C63 C 0.41363 0.57142 0.0115 0.0
H64 H 0.42297 0.58787 0.03673 0.0
H65 H 0.34031 0.59804 0.00521 0.0
O66 O 0.40689 0.59288 0.65906 0.0
C67 C 0.34179 0.60001 0.8035 0.0
Co68 Co 0.89387 0.39532 0.25718 0.0
Co69 Co 0.88091 0.38097 0.41202 0.0
C70 C 0.84066 0.39929 0.3144 0.0
O71 O 0.85697 0.40113 0.26543 0.0
O72 O 0.8471 0.39202 0.37566 0.0
C73 C 0.89122 0.42354 0.12939 0.0
O74 O 0.87366 0.43662 0.16261 0.0
C75 C 0.86867 0.38792 0.56203 0.0
C76 C 0.89017 0.35582 0.6076 0.0
C77 C 0.87597 0.37704 0.62538 0.0
N78 N 0.87889 0.37413 0.50968 0.0
N79 N 0.89122 0.35469 0.53732 0.0
C80 C 0.85175 0.41046 0.55089 0.0
H81 H 0.83973 0.40749 0.50385 0.0
H82 H 0.86341 0.42768 0.54169 0.0
H83 H 0.83937 0.4137 0.59722 0.0
C84 C 0.93052 0.4295 0.32801 0.0
N85 N 0.91178 0.41207 0.32924 0.0
N86 N 0.90713 0.40545 0.39461 0.0
C87 C 0.9234 0.41801 0.437 0.0
C88 C 0.93856 0.43377 0.39624 0.0
C89 C 0.94115 0.44085 0.26232 0.0
H90 H 0.9466 0.42542 0.22561 0.0
H91 H 0.92621 0.4524 0.23639 0.0
H92 H 0.95796 0.45298 0.27324 0.0
O93 O 0.90064 0.35824 0.25924 0.0
O94 O 0.88987 0.34816 0.36809 0.0
H95 H 0.92558 0.39459 0.52872 0.0
H96 H 0.94109 0.42496 0.53829 0.0
C97 C 0.92455 0.41503 0.51506 0.0
H98 H 0.90717 0.42318 0.53866 0.0
H99 H 0.90132 0.34126 0.50823 0.0
O100 O 0.90375 0.40676 0.16264 0.0
C101 C 0.89769 0.34177 0.30747 0.0
Co102 Co 0.10107 0.89376 0.76074 0.0
Co103 Co 0.11613 0.88055 0.91505 0.0
C104 C 0.09673 0.84065 0.81756 0.0
O105 O 0.09473 0.857 0.7688 0.0
O106 O 0.10448 0.84696 0.87847 0.0
C107 C 0.07297 0.89153 0.63247 0.0
O108 O 0.05978 0.87392 0.6651 0.0
C109 C 0.10909 0.86833 0.06502 0.0
C110 C 0.1418 0.88892 0.11056 0.0
C111 C 0.12016 0.87533 0.1284 0.0
N112 N 0.12316 0.87816 0.01264 0.0
N113 N 0.14296 0.88993 0.04026 0.0
C114 C 0.08609 0.85204 0.05384 0.0
H115 H 0.08879 0.8399 0.00691 0.0
H116 H 0.06919 0.86414 0.04437 0.0
H117 H 0.08245 0.83982 0.10023 0.0
C118 C 0.06755 0.93063 0.83335 0.0
N119 N 0.0849 0.9118 0.83366 0.0
N120 N 0.09191 0.90711 0.89869 0.0
C121 C 0.07975 0.92349 0.94171 0.0
C122 C 0.06379 0.93871 0.9018 0.0
C123 C 0.05573 0.94122 0.76828 0.0
H124 H 0.07093 0.94681 0.73093 0.0
H125 H 0.04416 0.92621 0.74271 0.0
H126 H 0.04353 0.95791 0.77988 0.0
O127 O 0.13829 0.89988 0.76179 0.0
O128 O 0.14894 0.88912 0.87021 0.0
H129 H 0.10385 0.92495 0.03223 0.0
H130 H 0.07417 0.94161 0.04309 0.0
C131 C 0.08329 0.92466 0.0196 0.0
H132 H 0.07459 0.9077 0.04391 0.0
H133 H 0.15666 0.89967 0.01117 0.0
O134 O 0.08964 0.90399 0.66636 0.0
C135 C 0.15504 0.89678 0.8092 0.0
Co136 Co 0.60273 0.39528 0.23642 0.0
Co137 Co 0.61577 0.38073 0.08173 0.0
C138 C 0.65594 0.39924 0.17946 0.0
O139 O 0.6396 0.40117 0.22835 0.0
O140 O 0.64953 0.39186 0.11829 0.0
C141 C 0.60528 0.42346 0.36435 0.0
O142 O 0.62283 0.43658 0.33123 0.0
C143 C 0.62809 0.3878 0.93182 0.0
C144 C 0.60707 0.35544 0.88602 0.0
C145 C 0.62103 0.37685 0.86838 0.0
N146 N 0.61799 0.37388 0.98407 0.0
N147 N 0.60594 0.35429 0.9563 0.0
C148 C 0.64473 0.41055 0.94315 0.0
H149 H 0.63285 0.42763 0.95234 0.0
H150 H 0.6571 0.41397 0.89691 0.0
H151 H 0.65674 0.40771 0.99026 0.0
C152 C 0.56604 0.4293 0.16503 0.0
N153 N 0.58482 0.41191 0.16408 0.0
N154 N 0.58948 0.40516 0.09881 0.0
C155 C 0.57315 0.41758 0.05623 0.0
C156 C 0.55797 0.43339 0.09674 0.0
C157 C 0.55539 0.44077 0.23054 0.0
H158 H 0.54992 0.4254 0.26743 0.0
H159 H 0.57034 0.45233 0.25638 0.0
H160 H 0.5386 0.45289 0.21943 0.0
O161 O 0.59605 0.35818 0.23456 0.0
O162 O 0.60681 0.34793 0.12583 0.0
H163 H 0.57125 0.3939 0.96497 0.0
H164 H 0.55525 0.42398 0.95494 0.0
C165 C 0.57197 0.41438 0.97823 0.0
H166 H 0.58918 0.42276 0.95431 0.0
H167 H 0.59598 0.34073 0.98527 0.0
O168 O 0.59276 0.40672 0.33093 0.0
C169 C 0.599 0.34164 0.18655 0.0
Co170 Co 0.10155 0.60328 0.7371 0.0
Co171 Co 0.11593 0.61656 0.58243 0.0
C172 C 0.09693 0.65641 0.68061 0.0
O173 O 0.09522 0.64004 0.7294 0.0
O174 O 0.10438 0.65014 0.61936 0.0
C175 C 0.07331 0.60533 0.86507 0.0
O176 O 0.05988 0.62265 0.832 0.0
C177 C 0.10837 0.62868 0.43264 0.0
C178 C 0.14134 0.60868 0.38649 0.0
C179 C 0.11949 0.62197 0.36908 0.0
N180 N 0.12265 0.61899 0.48473 0.0
N181 N 0.14259 0.60756 0.45676 0.0
C182 C 0.08514 0.64463 0.44423 0.0
H183 H 0.06837 0.63228 0.45295 0.0
H184 H 0.08144 0.65704 0.39827 0.0
H185 H 0.0876 0.65654 0.49169 0.0
C186 C 0.0677 0.56648 0.66563 0.0
N187 N 0.08505 0.5853 0.66472 0.0
N188 N 0.09184 0.58995 0.59946 0.0
C189 C 0.07956 0.57352 0.5569 0.0
C190 C 0.06372 0.55835 0.59736 0.0
C191 C 0.05608 0.55594 0.73106 0.0
H192 H 0.07138 0.55036 0.76804 0.0
H193 H 0.04458 0.57096 0.75684 0.0
H194 H 0.04383 0.53924 0.71985 0.0
O195 O 0.13877 0.59706 0.7349 0.0
O196 O 0.14889 0.60799 0.6262 0.0
H197 H 0.10351 0.57227 0.46596 0.0
H198 H 0.0742 0.55486 0.45627 0.0
C199 C 0.08298 0.57213 0.47899 0.0
H200 H 0.07384 0.58879 0.45432 0.0
H201 H 0.15648 0.59801 0.48557 0.0
O202 O 0.09028 0.59311 0.83162 0.0
C203 C 0.15529 0.60023 0.68686 0.0
Co204 Co 0.89352 0.10188 0.24249 0.0
Co205 Co 0.88176 0.11623 0.08693 0.0
C206 C 0.84075 0.09792 0.1822 0.0
O207 O 0.8567 0.09613 0.23206 0.0
O208 O 0.84764 0.10511 0.12119 0.0
C209 C 0.89008 0.07359 0.37049 0.0
O210 O 0.87189 0.06126 0.33776 0.0
C211 C 0.87179 0.108 0.93708 0.0
C212 C 0.89382 0.13967 0.89114 0.0
C213 C 0.88037 0.11792 0.87406 0.0
N214 N 0.88031 0.12296 0.98917 0.0
N215 N 0.89275 0.14229 0.96119 0.0
C216 C 0.85852 0.08317 0.94826 0.0
H217 H 0.86142 0.07635 0.00278 0.0
H218 H 0.86539 0.06873 0.91025 0.0
H219 H 0.83785 0.08589 0.93936 0.0
C220 C 0.93065 0.0676 0.17388 0.0
N221 N 0.91198 0.0851 0.17142 0.0
N222 N 0.90791 0.09172 0.10575 0.0
C223 C 0.92454 0.07909 0.06449 0.0
C224 C 0.93928 0.06331 0.10622 0.0
C225 C 0.94062 0.05615 0.24018 0.0
H226 H 0.94622 0.07154 0.27685 0.0
H227 H 0.92526 0.04502 0.26568 0.0
H228 H 0.9572 0.04361 0.23015 0.0
O229 O 0.90036 0.13895 0.24075 0.0
O230 O 0.8904 0.14905 0.13132 0.0
H231 H 0.92632 0.10225 0.97212 0.0
H232 H 0.94383 0.07298 0.96499 0.0
C233 C 0.9264 0.08187 0.98648 0.0
H234 H 0.90992 0.07236 0.9618 0.0
H235 H 0.9021 0.15626 0.99019 0.0
O236 O 0.90286 0.09024 0.33738 0.0
C237 C 0.89779 0.15542 0.19236 0.0
Co238 Co 0.39486 0.89367 0.73273 0.0
Co239 Co 0.37989 0.8805 0.57836 0.0
C240 C 0.39934 0.84058 0.67545 0.0
O241 O 0.40125 0.8569 0.7243 0.0
O242 O 0.3916 0.8469 0.61453 0.0
C243 C 0.42293 0.89127 0.86101 0.0
O244 O 0.43607 0.87363 0.82834 0.0
C245 C 0.38646 0.86814 0.42825 0.0
C246 C 0.35428 0.88965 0.38311 0.0
C247 C 0.37551 0.87549 0.36502 0.0
N248 N 0.37274 0.87833 0.4808 0.0
N249 N 0.35323 0.89065 0.45342 0.0
C250 C 0.40904 0.85123 0.43911 0.0
H251 H 0.40594 0.83893 0.48551 0.0
H252 H 0.42621 0.86288 0.44932 0.0
H253 H 0.41247 0.83915 0.39233 0.0
C254 C 0.42823 0.93077 0.66039 0.0
N255 N 0.41098 0.91184 0.65996 0.0
N256 N 0.40414 0.90703 0.59486 0.0
C257 C 0.4164 0.92334 0.55185 0.0
C258 C 0.43215 0.93875 0.59189 0.0
C259 C 0.43976 0.94155 0.7256 0.0
H260 H 0.42442 0.94669 0.76302 0.0
H261 H 0.45171 0.92681 0.75098 0.0
H262 H 0.45152 0.95857 0.71422 0.0
O263 O 0.35766 0.89977 0.73183 0.0
O264 O 0.34707 0.889 0.62339 0.0
H265 H 0.39285 0.92519 0.46035 0.0
H266 H 0.42332 0.94041 0.44962 0.0
C267 C 0.41332 0.9241 0.47378 0.0
H268 H 0.42133 0.90656 0.45083 0.0
H269 H 0.33985 0.90074 0.48269 0.0
O270 O 0.40631 0.9038 0.82714 0.0
C271 C 0.34094 0.89665 0.68438 0.0
H272 H 0.48351 0.9399 0.60528 0.0
H273 H 0.42012 0.98171 0.52023 0.0
H274 H 0.51305 0.97059 0.55322 0.0
H275 H 0.44947 0.01217 0.46671 0.0
H276 H 0.51041 0.07507 0.44458 0.0
H277 H 0.47995 0.04546 0.49709 0.0
H278 H 0.52761 0.98241 0.43488 0.0
H279 H 0.55823 0.01228 0.38383 0.0
C280 C 0.47599 0.95582 0.57581 0.0
C281 C 0.44971 0.95852 0.56619 0.0
C282 C 0.49282 0.97319 0.54538 0.0
C283 C 0.4836 0.99364 0.50513 0.0
C284 C 0.45718 0.9967 0.4976 0.0
C285 C 0.44039 0.97929 0.52792 0.0
C286 C 0.51415 0.05484 0.44192 0.0
C287 C 0.53657 0.0458 0.41091 0.0
C288 C 0.49675 0.0379 0.47165 0.0
C289 C 0.50151 0.0116 0.47081 0.0
C290 C 0.52364 0.00259 0.43753 0.0
C291 C 0.54099 0.01957 0.40767 0.0
H292 H 0.55781 0.48476 0.10787 0.0
H293 H 0.51414 0.42163 0.02878 0.0
H294 H 0.52706 0.51449 0.05685 0.0
H295 H 0.4835 0.45118 0.97672 0.0
H296 H 0.42145 0.51341 0.95811 0.0
H297 H 0.45104 0.48285 0.01043 0.0
H298 H 0.51439 0.52795 0.93697 0.0
H299 H 0.48461 0.55858 0.88564 0.0
C300 C 0.54146 0.47735 0.07998 0.0
C301 C 0.53823 0.45109 0.07168 0.0
C302 C 0.52404 0.49427 0.05022 0.0
C303 C 0.50301 0.48516 0.01213 0.0
C304 C 0.49944 0.45877 0.00596 0.0
C305 C 0.51693 0.44189 0.03546 0.0
C306 C 0.44173 0.51655 0.95294 0.0
C307 C 0.45093 0.53823 0.91847 0.0
C308 C 0.45864 0.49912 0.9826 0.0
C309 C 0.48504 0.50314 0.97838 0.0
C310 C 0.49415 0.52457 0.94209 0.0
C311 C 0.47721 0.54193 0.91215 0.0
H312 H 0.98243 0.4221 0.46408 0.0
H313 H 0.9387 0.48512 0.38453 0.0
H314 H 0.01317 0.45172 0.51534 0.0
H315 H 0.96953 0.51492 0.4349 0.0
H316 H 0.0753 0.51401 0.53178 0.0
H317 H 0.04559 0.48343 0.48004 0.0
H318 H 0.9824 0.52841 0.55504 0.0
H319 H 0.01229 0.55904 0.60591 0.0
C320 C 0.97964 0.44235 0.45714 0.0
C321 C 0.95831 0.4515 0.42098 0.0
C322 C 0.99719 0.45927 0.48618 0.0
C323 C 0.99363 0.48565 0.47967 0.0
C324 C 0.97255 0.49471 0.44173 0.0
C325 C 0.95508 0.47775 0.41237 0.0
C326 C 0.05503 0.51713 0.53741 0.0
C327 C 0.0459 0.53875 0.57223 0.0
C328 C 0.03806 0.49968 0.50808 0.0
C329 C 0.01167 0.50366 0.51294 0.0
C330 C 0.00263 0.52506 0.54947 0.0
C331 C 0.01963 0.54242 0.57913 0.0
H332 H 0.98407 0.07487 0.04302 0.0
H333 H 0.93865 0.01188 0.11529 0.0
H334 H 0.01467 0.04525 0.99116 0.0
H335 H 0.96938 0.98204 0.06455 0.0
H336 H 0.01233 0.93866 0.89279 0.0
H337 H 0.98272 0.96922 0.9452 0.0
H338 H 0.04632 0.01293 0.0231 0.0
H339 H 0.07573 0.98252 0.96949 0.0
C340 C 0.98092 0.05461 0.04842 0.0
C341 C 0.95912 0.04548 0.08253 0.0
C342 C 0.99838 0.03768 0.01899 0.0
C343 C 0.9943 0.01131 0.02316 0.0
C344 C 0.97281 0.00225 0.05943 0.0
C345 C 0.9554 0.01923 0.08908 0.0
C346 C 0.01982 0.955 0.92048 0.0
C347 C 0.04613 0.95835 0.92764 0.0
C348 C 0.00297 0.97231 0.95109 0.0
C349 C 0.01219 0.99333 0.98897 0.0
C350 C 0.03862 0.997 0.99407 0.0
C351 C 0.05543 0.97964 0.96366 0.0
H352 H 0.60678 0.19601 0.38924 0.0
H353 H 0.57976 0.17653 0.18194 0.0
H354 H 0.60349 0.24086 0.3605 0.0
H355 H 0.57573 0.22155 0.15392 0.0
H356 H 0.60786 0.30086 0.10122 0.0
H357 H 0.60414 0.25606 0.13017 0.0
H358 H 0.57559 0.27575 0.33574 0.0
H359 H 0.58005 0.32073 0.30752 0.0
C360 C 0.59976 0.20127 0.33784 0.0
C361 C 0.59379 0.18262 0.28765 0.0
C362 C 0.5977 0.22706 0.32151 0.0
C363 C 0.58947 0.23486 0.25473 0.0
C364 C 0.58256 0.2162 0.20544 0.0
C365 C 0.58475 0.19038 0.22164 0.0
C366 C 0.60059 0.29569 0.15245 0.0
C367 C 0.59449 0.31443 0.20229 0.0
C368 C 0.59827 0.26994 0.16889 0.0
C369 C 0.58966 0.26225 0.23542 0.0
C370 C 0.58269 0.281 0.28442 0.0
C371 C 0.58513 0.3068 0.2681 0.0
H372 H 0.17644 0.58147 0.80765 0.0
H373 H 0.19599 0.60954 0.60141 0.0
H374 H 0.2215 0.5774 0.83563 0.0
H375 H 0.24087 0.60621 0.63012 0.0
H376 H 0.32069 0.58194 0.68181 0.0
H377 H 0.27564 0.57799 0.65357 0.0
H378 H 0.25619 0.60555 0.86031 0.0
H379 H 0.30106 0.60877 0.88924 0.0
C380 C 0.19032 0.5867 0.7682 0.0
C381 C 0.18257 0.59601 0.70247 0.0
C382 C 0.21616 0.58448 0.78437 0.0
C383 C 0.23484 0.59163 0.73532 0.0
C384 C 0.22705 0.60021 0.66888 0.0
C385 C 0.20125 0.60231 0.65258 0.0
C386 C 0.3068 0.58692 0.72147 0.0
C387 C 0.31452 0.59584 0.78763 0.0
C388 C 0.28096 0.58477 0.70515 0.0
C389 C 0.26226 0.5916 0.75449 0.0
C390 C 0.27003 0.59981 0.82131 0.0
C391 C 0.29582 0.60183 0.83774 0.0
H392 H 0.91605 0.17652 0.31382 0.0
H393 H 0.8895 0.19606 0.10611 0.0
H394 H 0.92034 0.22154 0.34167 0.0
H395 H 0.89302 0.2409 0.13466 0.0
H396 H 0.91674 0.32062 0.18695 0.0
H397 H 0.92107 0.27558 0.15931 0.0
H398 H 0.89225 0.25632 0.36492 0.0
H399 H 0.88869 0.30116 0.3933 0.0
C400 C 0.91121 0.19038 0.27402 0.0
C401 C 0.90224 0.18265 0.20793 0.0
C402 C 0.91355 0.21621 0.29011 0.0
C403 C 0.90686 0.23488 0.24061 0.0
C404 C 0.89866 0.22709 0.1738 0.0
C405 C 0.89646 0.20131 0.15759 0.0
C406 C 0.91158 0.30677 0.2265 0.0
C407 C 0.90218 0.31453 0.29214 0.0
C408 C 0.91394 0.28094 0.21053 0.0
C409 C 0.90684 0.26229 0.25968 0.0
C410 C 0.89821 0.27011 0.32608 0.0
C411 C 0.89599 0.29589 0.34218 0.0
H412 H 0.32041 0.91519 0.80628 0.0
H413 H 0.29978 0.8874 0.60062 0.0
H414 H 0.27552 0.91914 0.83634 0.0
H415 H 0.25505 0.89063 0.6314 0.0
H416 H 0.19621 0.88779 0.89314 0.0
H417 H 0.24093 0.89095 0.86226 0.0
H418 H 0.22044 0.9189 0.65674 0.0
H419 H 0.17555 0.91502 0.68691 0.0
C420 C 0.30633 0.90999 0.76738 0.0
C421 C 0.31373 0.9008 0.7012 0.0
C422 C 0.28058 0.91214 0.78477 0.0
C423 C 0.26164 0.90505 0.73649 0.0
C424 C 0.26907 0.89658 0.6696 0.0
C425 C 0.29479 0.89455 0.6521 0.0
C426 C 0.20119 0.8948 0.8415 0.0
C427 C 0.18224 0.90093 0.79229 0.0
C428 C 0.2269 0.89679 0.82395 0.0
C429 C 0.23433 0.90508 0.75687 0.0
C430 C 0.21539 0.91204 0.70846 0.0
C431 C 0.18964 0.90994 0.72591 0.0
H432 H 0.39074 0.7987 0.59305 0.0
H433 H 0.41922 0.82118 0.79652 0.0
H434 H 0.39439 0.75419 0.62703 0.0
H435 H 0.42339 0.77675 0.8297 0.0
H436 H 0.41972 0.67566 0.68892 0.0
H437 H 0.42346 0.72013 0.65563 0.0
H438 H 0.39469 0.74246 0.85884 0.0
H439 H 0.39148 0.69792 0.8929 0.0
C440 C 0.39818 0.79417 0.64453 0.0
C441 C 0.40445 0.81354 0.6922 0.0
C442 C 0.40038 0.76863 0.66397 0.0
C443 C 0.40899 0.7619 0.73139 0.0
C444 C 0.41625 0.78128 0.7779 0.0
C445 C 0.41399 0.80677 0.7586 0.0
C446 C 0.41446 0.69003 0.72694 0.0
C447 C 0.40511 0.68319 0.79351 0.0
C448 C 0.41646 0.71555 0.70757 0.0
C449 C 0.40913 0.73487 0.75421 0.0
C450 C 0.40073 0.72807 0.8218 0.0
C451 C 0.39879 0.70251 0.84129 0.0
H452 H 0.79884 0.39033 0.3969 0.0
H453 H 0.82106 0.41856 0.19287 0.0
H454 H 0.75425 0.39346 0.36291 0.0
H455 H 0.77657 0.42223 0.15969 0.0
H456 H 0.69777 0.3903 0.09702 0.0
H457 H 0.74235 0.39344 0.13104 0.0
H458 H 0.72001 0.42223 0.3342 0.0
H459 H 0.67553 0.41855 0.30099 0.0
C460 C 0.79423 0.3976 0.34528 0.0
C461 C 0.81355 0.40397 0.29749 0.0
C462 C 0.76865 0.3995 0.32583 0.0
C463 C 0.76183 0.40791 0.25829 0.0
C464 C 0.78115 0.41523 0.21159 0.0
C465 C 0.80669 0.41327 0.2309 0.0
C466 C 0.70237 0.39757 0.14863 0.0
C467 C 0.68304 0.40395 0.19639 0.0
C468 C 0.72795 0.39948 0.1681 0.0
C469 C 0.73476 0.4079 0.23563 0.0
C470 C 0.71543 0.41522 0.28231 0.0
C471 C 0.6899 0.41325 0.26298 0.0
H472 H 0.10575 0.79873 0.89943 0.0
H473 H 0.07674 0.8213 0.6966 0.0
H474 H 0.10241 0.75424 0.86496 0.0
H475 H 0.07288 0.77689 0.66293 0.0
H476 H 0.10532 0.6984 0.59843 0.0
H477 H 0.10186 0.74287 0.63305 0.0
H478 H 0.07353 0.72002 0.83629 0.0
H479 H 0.0775 0.67565 0.80245 0.0
C480 C 0.09825 0.79422 0.848 0.0
C481 C 0.09175 0.81361 0.80064 0.0
C482 C 0.09624 0.76869 0.82827 0.0
C483 C 0.08758 0.762 0.76087 0.0
C484 C 0.08007 0.78139 0.71469 0.0
C485 C 0.08215 0.80687 0.73429 0.0
C486 C 0.09806 0.70286 0.65017 0.0
C487 C 0.09193 0.68343 0.69779 0.0
C488 C 0.09598 0.72838 0.66999 0.0
C489 C 0.08761 0.73501 0.73774 0.0
C490 C 0.08048 0.71557 0.78423 0.0
C491 C 0.08262 0.69011 0.76455 0.0
H492 H 0.82034 0.07844 0.30249 0.0
H493 H 0.79945 0.10729 0.09814 0.0
H494 H 0.77566 0.07494 0.33383 0.0
H495 H 0.75465 0.10433 0.13029 0.0
H496 H 0.67551 0.07923 0.18846 0.0
H497 H 0.72015 0.07566 0.15693 0.0
H498 H 0.74135 0.10369 0.36177 0.0
H499 H 0.69657 0.10668 0.39412 0.0
C500 C 0.80622 0.08391 0.26399 0.0
C501 C 0.81352 0.09331 0.19784 0.0
C502 C 0.78057 0.08205 0.28226 0.0
C503 C 0.76155 0.08958 0.23494 0.0
C504 C 0.7688 0.09812 0.16783 0.0
C505 C 0.7945 0.09991 0.14941 0.0
C506 C 0.68965 0.08438 0.22721 0.0
C507 C 0.68242 0.09339 0.29382 0.0
C508 C 0.71529 0.08248 0.20883 0.0
C509 C 0.73435 0.08961 0.25647 0.0
C510 C 0.72716 0.09779 0.32397 0.0
C511 C 0.70147 0.09961 0.3425 0.0
H512 H 0.59016 0.07888 0.66668 0.0
H513 H 0.65295 0.12645 0.72936 0.0
H514 H 0.58608 0.06318 0.7875 0.0
H515 H 0.6494 0.11025 0.84974 0.0
H516 H 0.64702 0.0582 0.04336 0.0
H517 H 0.65165 0.064 0.9168 0.0
H518 H 0.57455 0.09168 0.90474 0.0
H519 H 0.57 0.08658 0.0319 0.0
C520 C 0.60352 0.08536 0.70605 0.0
C521 C 0.62209 0.10354 0.68921 0.0
C522 C 0.60108 0.07654 0.7749 0.0
C523 C 0.61751 0.08545 0.8274 0.0
C524 C 0.63672 0.10291 0.8098 0.0
C525 C 0.63875 0.11216 0.74132 0.0
C526 C 0.63083 0.06496 0.01359 0.0
C527 C 0.60815 0.07207 0.04752 0.0
C528 C 0.63358 0.06838 0.94132 0.0
C529 C 0.6135 0.07835 0.90153 0.0
C530 C 0.59024 0.08384 0.93451 0.0
C531 C 0.58767 0.08097 0.0071 0.0
H532 H 0.45132 0.63444 0.53362 0.0
H533 H 0.39522 0.57437 0.54182 0.0
H534 H 0.44306 0.63968 0.40797 0.0
H535 H 0.38697 0.57992 0.41722 0.0
H536 H 0.35077 0.62636 0.24153 0.0
H537 H 0.36608 0.62084 0.36119 0.0
H538 H 0.44297 0.61349 0.2847 0.0
H539 H 0.42764 0.61815 0.16429 0.0
C540 C 0.4377 0.62196 0.50847 0.0
C541 C 0.42359 0.60429 0.54797 0.0
C542 C 0.43299 0.62503 0.43669 0.0
C543 C 0.414 0.61059 0.40379 0.0
C544 C 0.40136 0.59161 0.44199 0.0
C545 C 0.40621 0.58837 0.51324 0.0
C546 C 0.371 0.62397 0.25019 0.0
C547 C 0.38799 0.62307 0.19345 0.0
C548 C 0.37971 0.62067 0.31854 0.0
C549 C 0.40563 0.61646 0.33169 0.0
C550 C 0.42291 0.61682 0.27562 0.0
C551 C 0.41412 0.61985 0.20681 0.0
H552 H 0.92309 0.39637 0.04525 0.0
H553 H 0.86055 0.44973 0.03805 0.0
H554 H 0.91774 0.38796 0.92067 0.0
H555 H 0.85548 0.44129 0.91247 0.0
H556 H 0.87692 0.42705 0.66862 0.0
H557 H 0.88113 0.44246 0.78906 0.0
H558 H 0.87797 0.36525 0.86488 0.0
H559 H 0.87289 0.34983 0.74519 0.0
C560 C 0.90856 0.40674 0.01689 0.0
C561 C 0.89193 0.42337 0.05188 0.0
C562 C 0.90544 0.40179 0.94565 0.0
C563 C 0.88584 0.41357 0.90777 0.0
C564 C 0.87062 0.43188 0.94094 0.0
C565 C 0.87359 0.43671 0.01268 0.0
C566 C 0.87604 0.41343 0.71102 0.0
C567 C 0.87413 0.3872 0.69746 0.0
C568 C 0.87881 0.42228 0.77984 0.0
C569 C 0.88023 0.40498 0.83571 0.0
C570 C 0.87732 0.37892 0.82238 0.0
C571 C 0.87426 0.37013 0.75402 0.0
H572 H 0.14721 0.87179 0.24842 0.0
H573 H 0.07011 0.87757 0.17153 0.0
H574 H 0.13181 0.87723 0.36806 0.0
H575 H 0.0547 0.88215 0.29189 0.0
H576 H 0.04626 0.86171 0.54012 0.0
H577 H 0.05494 0.85657 0.41468 0.0
H578 H 0.11009 0.91718 0.42475 0.0
H579 H 0.10143 0.92261 0.54921 0.0
C580 C 0.12693 0.87363 0.25716 0.0
C581 C 0.1099 0.87384 0.2005 0.0
C582 C 0.11815 0.87691 0.3255 0.0
C583 C 0.09213 0.88039 0.33876 0.0
C584 C 0.07485 0.87938 0.28278 0.0
C585 C 0.08369 0.87639 0.21398 0.0
C586 C 0.05976 0.87438 0.5152 0.0
C587 C 0.07348 0.89228 0.55493 0.0
C588 C 0.06472 0.87137 0.44352 0.0
C589 C 0.08358 0.88609 0.41088 0.0
C590 C 0.09582 0.90526 0.44929 0.0
C591 C 0.09073 0.90844 0.52047 0.0
H592 H 0.57392 0.39564 0.44837 0.0
H593 H 0.63559 0.44999 0.45587 0.0
H594 H 0.57943 0.38718 0.57288 0.0
H595 H 0.64081 0.44151 0.58139 0.0
H596 H 0.61942 0.42685 0.82519 0.0
H597 H 0.61511 0.44222 0.70473 0.0
H598 H 0.61951 0.36509 0.62883 0.0
H599 H 0.62467 0.34972 0.74856 0.0
C600 C 0.58828 0.40621 0.47678 0.0
C601 C 0.60463 0.42315 0.44188 0.0
C602 C 0.5915 0.40123 0.54798 0.0
C603 C 0.61091 0.41329 0.58594 0.0
C604 C 0.62583 0.43188 0.55287 0.0
C605 C 0.62277 0.43673 0.48116 0.0
C606 C 0.62055 0.41325 0.78277 0.0
C607 C 0.62283 0.38705 0.79633 0.0
C608 C 0.61772 0.42207 0.71393 0.0
C609 C 0.61662 0.40478 0.65802 0.0
C610 C 0.61991 0.37875 0.67135 0.0
C611 C 0.62302 0.37 0.73973 0.0
H612 H 0.04603 0.63497 0.95666 0.0
H613 H 0.10177 0.57456 0.94903 0.0
H614 H 0.05432 0.64031 0.08225 0.0
H615 H 0.11004 0.5802 0.07359 0.0
H616 H 0.14648 0.6264 0.24916 0.0
H617 H 0.1312 0.62089 0.12947 0.0
H618 H 0.05418 0.61442 0.20565 0.0
H619 H 0.06949 0.61907 0.32608 0.0
C620 C 0.05957 0.62244 0.98193 0.0
C621 C 0.07358 0.60464 0.9426 0.0
C622 C 0.0643 0.62557 0.05368 0.0
C623 C 0.08321 0.61106 0.08672 0.0
C624 C 0.09572 0.59196 0.0487 0.0
C625 C 0.09086 0.58866 0.97748 0.0
C626 C 0.12624 0.62421 0.24041 0.0
C627 C 0.1092 0.62353 0.29708 0.0
C628 C 0.11754 0.62091 0.17205 0.0
C629 C 0.09159 0.61695 0.15881 0.0
C630 C 0.07427 0.61756 0.21479 0.0
C631 C 0.08304 0.62058 0.28362 0.0
H632 H 0.92482 0.09742 0.45339 0.0
H633 H 0.85963 0.04748 0.46245 0.0
H634 H 0.92305 0.10284 0.5793 0.0
H635 H 0.85836 0.05223 0.58984 0.0
H636 H 0.84183 0.10267 0.78795 0.0
H637 H 0.8461 0.08576 0.66872 0.0
H638 H 0.92795 0.08542 0.69213 0.0
H639 H 0.92345 0.10344 0.80922 0.0
C640 C 0.91048 0.08706 0.48251 0.0
C641 C 0.89215 0.07232 0.44773 0.0
C642 C 0.90955 0.09003 0.55508 0.0
C643 C 0.89039 0.07816 0.59486 0.0
C644 C 0.87307 0.06201 0.5606 0.0
C645 C 0.87395 0.0591 0.48768 0.0
C646 C 0.86061 0.09867 0.76733 0.0
C647 C 0.88232 0.10475 0.80638 0.0
C648 C 0.86313 0.08881 0.69948 0.0
C649 C 0.88743 0.08456 0.67038 0.0
C650 C 0.90901 0.08907 0.71206 0.0
C651 C 0.90647 0.09932 0.77906 0.0
H652 H 0.34831 0.87263 0.24513 0.0
H653 H 0.42555 0.87673 0.32172 0.0
H654 H 0.36376 0.8779 0.12546 0.0
H655 H 0.44099 0.88116 0.20136 0.0
H656 H 0.4492 0.86104 0.9533 0.0
H657 H 0.44038 0.85592 0.07866 0.0
H658 H 0.38609 0.9173 0.0687 0.0
H659 H 0.39487 0.92269 0.94428 0.0
C660 C 0.36862 0.87406 0.2363 0.0
C661 C 0.38568 0.87385 0.29287 0.0
C662 C 0.37743 0.87724 0.16794 0.0
C663 C 0.40351 0.88022 0.15461 0.0
C664 C 0.42079 0.87878 0.21051 0.0
C665 C 0.41193 0.87588 0.27931 0.0
C666 C 0.43586 0.87387 0.97823 0.0
C667 C 0.4224 0.89199 0.93854 0.0
C668 C 0.43082 0.87088 0.04987 0.0
C669 C 0.41215 0.88583 0.08251 0.0
C670 C 0.40019 0.90519 0.04415 0.0
C671 C 0.40536 0.90835 0.97301 0.0
loop_
_geom_bond_atom_site_label_1
_geom_bond_atom_site_label_2
_geom_bond_distance
_geom_bond_site_symmetry_2
_ccdc_geom_bond_type
Co0 O3 1.970 . S
Co0 N17 1.989 . S
Co0 O25 1.967 . S
Co0 O32 1.920 . S
Co1 O4 1.966 . S
Co1 N10 2.022 . S
Co1 N18 1.993 . S
Co1 O26 1.941 . S
C2 O3 1.258 . S
C2 O4 1.263 . S
O3 Co0 1.970 . S
O3 C2 1.258 . S
O4 Co1 1.966 . S
O4 C2 1.263 . S
C5 O6 1.235 . S
C5 O32 1.289 . S
O6 C5 1.235 . S
C7 C9 1.400 . S
C7 N10 1.351 . S
C7 C12 1.501 . S
C8 C9 1.387 . S
C8 N11 1.341 . S
C9 C7 1.400 . S
C9 C8 1.387 . S
N10 Co1 2.022 . S
N10 C7 1.351 . S
N10 N11 1.365 . S
N11 C8 1.341 . S
N11 N10 1.365 . S
N11 H31 0.862 . S
C12 C7 1.501 . S
C12 H13 0.961 . S
C12 H14 0.961 . S
C12 H15 0.960 . S
H13 C12 0.961 . S
H14 C12 0.961 . S
H15 C12 0.960 . S
C16 N17 1.342 . S
C16 C20 1.401 . S
C16 C21 1.499 . S
N17 Co0 1.989 . S
N17 C16 1.342 . S
N17 N18 1.388 . S
N18 Co1 1.993 . S
N18 N17 1.388 . S
N18 C19 1.346 . S
C19 N18 1.346 . S
C19 C20 1.396 . S
C19 C29 1.510 . S
C20 C16 1.401 . S
C20 C19 1.396 . S
C21 C16 1.499 . S
C21 H22 0.959 . S
C21 H23 0.960 . S
C21 H24 0.961 . S
H22 C21 0.959 . S
H23 C21 0.960 . S
H24 C21 0.961 . S
O25 Co0 1.967 . S
O25 C33 1.258 . S
O26 Co1 1.941 . S
O26 C33 1.266 . S
H27 C29 0.959 . S
H28 C29 0.961 . S
C29 C19 1.510 . S
C29 H27 0.959 . S
C29 H28 0.961 . S
C29 H30 0.960 . S
H30 C29 0.960 . S
H31 N11 0.862 . S
O32 Co0 1.920 . S
O32 C5 1.289 . S
C33 O25 1.258 . S
C33 O26 1.266 . S
Co34 O37 1.970 . S
Co34 N51 1.989 . S
Co34 O59 1.967 . S
Co34 O66 1.920 . S
Co35 O38 1.966 . S
Co35 N44 2.022 1_556 S
Co35 N52 1.993 . S
Co35 O60 1.941 . S
C36 O37 1.258 . S
C36 O38 1.263 . S
O37 Co34 1.970 . S
O37 C36 1.258 . S
O38 Co35 1.966 . S
O38 C36 1.263 . S
C39 O40 1.235 . S
C39 O66 1.289 . S
O40 C39 1.235 . S
C41 C43 1.400 . S
C41 N44 1.351 . S
C41 C46 1.501 . S
C42 C43 1.387 . S
C42 N45 1.341 . S
C43 C41 1.400 . S
C43 C42 1.387 . S
N44 Co35 2.022 1_554 S
N44 C41 1.351 . S
N44 N45 1.365 . S
N45 C42 1.341 . S
N45 N44 1.365 . S
N45 H65 0.862 . S
C46 C41 1.501 . S
C46 H47 0.973 . S
C46 H48 0.961 . S
C46 H49 0.960 . S
H47 C46 0.973 . S
H48 C46 0.961 . S
H49 C46 0.960 . S
C50 N51 1.342 . S
C50 C54 1.401 . S
C50 C55 1.499 . S
N51 Co34 1.989 . S
N51 C50 1.342 . S
N51 N52 1.388 . S
N52 Co35 1.993 . S
N52 N51 1.388 . S
N52 C53 1.346 . S
C53 N52 1.346 . S
C53 C54 1.396 . S
C53 C63 1.510 1_556 S
C54 C50 1.401 . S
C54 C53 1.396 . S
C55 C50 1.499 . S
C55 H56 0.959 . S
C55 H57 0.960 . S
C55 H58 0.961 . S
H56 C55 0.959 . S
H57 C55 0.960 . S
H58 C55 0.961 . S
O59 Co34 1.967 . S
O59 C67 1.258 . S
O60 Co35 1.941 . S
O60 C67 1.266 . S
H61 C63 0.959 . S
H62 C63 0.961 . S
C63 C53 1.510 1_554 S
C63 H61 0.959 . S
C63 H62 0.961 . S
C63 H64 0.960 . S
H64 C63 0.960 . S
H65 N45 0.862 . S
O66 Co34 1.920 . S
O66 C39 1.289 . S
C67 O59 1.258 . S
C67 O60 1.266 . S
Co68 O71 1.970 . S
Co68 N85 1.989 . S
Co68 O93 1.967 . S
Co68 O100 1.920 . S
Co69 O72 1.966 . S
Co69 N78 2.022 . S
Co69 N86 1.993 . S
Co69 O94 1.941 . S
C70 O71 1.258 . S
C70 O72 1.263 . S
O71 Co68 1.970 . S
O71 C70 1.258 . S
O72 Co69 1.966 . S
O72 C70 1.263 . S
C73 O74 1.235 . S
C73 O100 1.289 . S
O74 C73 1.235 . S
C75 C77 1.400 . S
C75 N78 1.351 . S
C75 C80 1.501 . S
C76 C77 1.387 . S
C76 N79 1.341 . S
C77 C75 1.400 . S
C77 C76 1.387 . S
N78 Co69 2.022 . S
N78 C75 1.351 . S
N78 N79 1.365 . S
N79 C76 1.341 . S
N79 N78 1.365 . S
N79 H99 0.862 . S
C80 C75 1.501 . S
C80 H81 0.961 . S
C80 H82 0.961 . S
C80 H83 0.960 . S
H81 C80 0.961 . S
H82 C80 0.961 . S
H83 C80 0.960 . S
C84 N85 1.342 . S
C84 C88 1.401 . S
C84 C89 1.499 . S
N85 Co68 1.989 . S
N85 C84 1.342 . S
N85 N86 1.388 . S
N86 Co69 1.993 . S
N86 N85 1.388 . S
N86 C87 1.346 . S
C87 N86 1.346 . S
C87 C88 1.396 . S
C87 C97 1.510 . S
C88 C84 1.401 . S
C88 C87 1.396 . S
C89 C84 1.499 . S
C89 H90 0.959 . S
C89 H91 0.960 . S
C89 H92 0.961 . S
H90 C89 0.959 . S
H91 C89 0.960 . S
H92 C89 0.961 . S
O93 Co68 1.967 . S
O93 C101 1.258 . S
O94 Co69 1.941 . S
O94 C101 1.266 . S
H95 C97 0.959 . S
H96 C97 0.961 . S
C97 C87 1.510 . S
C97 H95 0.959 . S
C97 H96 0.961 . S
C97 H98 0.960 . S
H98 C97 0.960 . S
H99 N79 0.862 . S
O100 Co68 1.920 . S
O100 C73 1.289 . S
C101 O93 1.258 . S
C101 O94 1.266 . S
Co102 O105 1.970 . S
Co102 N119 1.989 . S
Co102 O127 1.967 . S
Co102 O134 1.920 . S
Co103 O106 1.966 . S
Co103 N112 2.022 1_556 S
Co103 N120 1.993 . S
Co103 O128 1.941 . S
C104 O105 1.258 . S
C104 O106 1.263 . S
O105 Co102 1.970 . S
O105 C104 1.258 . S
O106 Co103 1.966 . S
O106 C104 1.263 . S
C107 O108 1.235 . S
C107 O134 1.289 . S
O108 C107 1.235 . S
C109 C111 1.400 . S
C109 N112 1.351 . S
C109 C114 1.501 . S
C110 C111 1.387 . S
C110 N113 1.341 . S
C111 C109 1.400 . S
C111 C110 1.387 . S
N112 Co103 2.022 1_554 S
N112 C109 1.351 . S
N112 N113 1.365 . S
N113 C110 1.341 . S
N113 N112 1.365 . S
N113 H133 0.862 . S
C114 C109 1.501 . S
C114 H115 0.973 . S
C114 H116 0.961 . S
C114 H117 0.960 . S
H115 C114 0.973 . S
H116 C114 0.961 . S
H117 C114 0.960 . S
C118 N119 1.342 . S
C118 C122 1.401 . S
C118 C123 1.499 . S
N119 Co102 1.989 . S
N119 C118 1.342 . S
N119 N120 1.388 . S
N120 Co103 1.993 . S
N120 N119 1.388 . S
N120 C121 1.346 . S
C121 N120 1.346 . S
C121 C122 1.396 . S
C121 C131 1.510 1_556 S
C122 C118 1.401 . S
C122 C121 1.396 . S
C123 C118 1.499 . S
C123 H124 0.959 . S
C123 H125 0.960 . S
C123 H126 0.961 . S
H124 C123 0.959 . S
H125 C123 0.960 . S
H126 C123 0.961 . S
O127 Co102 1.967 . S
O127 C135 1.258 . S
O128 Co103 1.941 . S
O128 C135 1.266 . S
H129 C131 0.959 . S
H130 C131 0.961 . S
C131 C121 1.510 1_554 S
C131 H129 0.959 . S
C131 H130 0.961 . S
C131 H132 0.960 . S
H132 C131 0.960 . S
H133 N113 0.862 . S
O134 Co102 1.920 . S
O134 C107 1.289 . S
C135 O127 1.258 . S
C135 O128 1.266 . S
Co136 O139 1.970 . S
Co136 N153 1.989 . S
Co136 O161 1.967 . S
Co136 O168 1.920 . S
Co137 O140 1.966 . S
Co137 N146 2.022 1_554 S
Co137 N154 1.993 . S
Co137 O162 1.941 . S
C138 O139 1.258 . S
C138 O140 1.263 . S
O139 Co136 1.970 . S
O139 C138 1.258 . S
O140 Co137 1.966 . S
O140 C138 1.263 . S
C141 O142 1.235 . S
C141 O168 1.289 . S
O142 C141 1.235 . S
C143 C145 1.400 . S
C143 N146 1.351 . S
C143 C148 1.501 . S
C144 C145 1.387 . S
C144 N147 1.341 . S
C145 C143 1.400 . S
C145 C144 1.387 . S
N146 Co137 2.022 1_556 S
N146 C143 1.351 . S
N146 N147 1.365 . S
N147 C144 1.341 . S
N147 N146 1.365 . S
N147 H167 0.862 . S
C148 C143 1.501 . S
C148 H149 0.973 . S
C148 H150 0.961 . S
C148 H151 0.960 . S
H149 C148 0.973 . S
H150 C148 0.961 . S
H151 C148 0.960 . S
C152 N153 1.342 . S
C152 C156 1.401 . S
C152 C157 1.499 . S
N153 Co136 1.989 . S
N153 C152 1.342 . S
N153 N154 1.388 . S
N154 Co137 1.993 . S
N154 N153 1.388 . S
N154 C155 1.346 . S
C155 N154 1.346 . S
C155 C156 1.396 . S
C155 C165 1.510 1_554 S
C156 C152 1.401 . S
C156 C155 1.396 . S
C157 C152 1.499 . S
C157 H158 0.959 . S
C157 H159 0.960 . S
C157 H160 0.961 . S
H158 C157 0.959 . S
H159 C157 0.960 . S
H160 C157 0.961 . S
O161 Co136 1.967 . S
O161 C169 1.258 . S
O162 Co137 1.941 . S
O162 C169 1.266 . S
H163 C165 0.959 . S
H164 C165 0.961 . S
C165 C155 1.510 1_556 S
C165 H163 0.959 . S
C165 H164 0.961 . S
C165 H166 0.960 . S
H166 C165 0.960 . S
H167 N147 0.862 . S
O168 Co136 1.920 . S
O168 C141 1.289 . S
C169 O161 1.258 . S
C169 O162 1.266 . S
Co170 O173 1.970 . S
Co170 N187 1.989 . S
Co170 O195 1.967 . S
Co170 O202 1.920 . S
Co171 O174 1.966 . S
Co171 N180 2.022 . S
Co171 N188 1.993 . S
Co171 O196 1.941 . S
C172 O173 1.258 . S
C172 O174 1.263 . S
O173 Co170 1.970 . S
O173 C172 1.258 . S
O174 Co171 1.966 . S
O174 C172 1.263 . S
C175 O176 1.235 . S
C175 O202 1.289 . S
O176 C175 1.235 . S
C177 C179 1.400 . S
C177 N180 1.351 . S
C177 C182 1.501 . S
C178 C179 1.387 . S
C178 N181 1.341 . S
C179 C177 1.400 . S
C179 C178 1.387 . S
N180 Co171 2.022 . S
N180 C177 1.351 . S
N180 N181 1.365 . S
N181 C178 1.341 . S
N181 N180 1.365 . S
N181 H201 0.862 . S
C182 C177 1.501 . S
C182 H183 0.961 . S
C182 H184 0.961 . S
C182 H185 0.960 . S
H183 C182 0.961 . S
H184 C182 0.961 . S
H185 C182 0.960 . S
C186 N187 1.342 . S
C186 C190 1.401 . S
C186 C191 1.499 . S
N187 Co170 1.989 . S
N187 C186 1.342 . S
N187 N188 1.388 . S
N188 Co171 1.993 . S
N188 N187 1.388 . S
N188 C189 1.346 . S
C189 N188 1.346 . S
C189 C190 1.396 . S
C189 C199 1.510 . S
C190 C186 1.401 . S
C190 C189 1.396 . S
C191 C186 1.499 . S
C191 H192 0.959 . S
C191 H193 0.960 . S
C191 H194 0.961 . S
H192 C191 0.959 . S
H193 C191 0.960 . S
H194 C191 0.961 . S
O195 Co170 1.967 . S
O195 C203 1.258 . S
O196 Co171 1.941 . S
O196 C203 1.266 . S
H197 C199 0.959 . S
H198 C199 0.961 . S
C199 C189 1.510 . S
C199 H197 0.959 . S
C199 H198 0.961 . S
C199 H200 0.960 . S
H200 C199 0.960 . S
H201 N181 0.862 . S
O202 Co170 1.920 . S
O202 C175 1.289 . S
C203 O195 1.258 . S
C203 O196 1.266 . S
Co204 O207 1.970 . S
Co204 N221 1.989 . S
Co204 O229 1.967 . S
Co204 O236 1.920 . S
Co205 O208 1.966 . S
Co205 N214 2.022 1_554 S
Co205 N222 1.993 . S
Co205 O230 1.941 . S
C206 O207 1.258 . S
C206 O208 1.263 . S
O207 Co204 1.970 . S
O207 C206 1.258 . S
O208 Co205 1.966 . S
O208 C206 1.263 . S
C209 O210 1.235 . S
C209 O236 1.289 . S
O210 C209 1.235 . S
C211 C213 1.400 . S
C211 N214 1.351 . S
C211 C216 1.501 . S
C212 C213 1.387 . S
C212 N215 1.341 . S
C213 C211 1.400 . S
C213 C212 1.387 . S
N214 Co205 2.022 1_556 S
N214 C211 1.351 . S
N214 N215 1.365 . S
N215 C212 1.341 . S
N215 N214 1.365 . S
N215 H235 0.862 . S
C216 C211 1.501 . S
C216 H217 0.973 . S
C216 H218 0.961 . S
C216 H219 0.960 . S
H217 C216 0.973 . S
H218 C216 0.961 . S
H219 C216 0.960 . S
C220 N221 1.342 . S
C220 C224 1.401 . S
C220 C225 1.499 . S
N221 Co204 1.989 . S
N221 C220 1.342 . S
N221 N222 1.388 . S
N222 Co205 1.993 . S
N222 N221 1.388 . S
N222 C223 1.346 . S
C223 N222 1.346 . S
C223 C224 1.396 . S
C223 C233 1.510 1_554 S
C224 C220 1.401 . S
C224 C223 1.396 . S
C225 C220 1.499 . S
C225 H226 0.959 . S
C225 H227 0.960 . S
C225 H228 0.961 . S
H226 C225 0.959 . S
H227 C225 0.960 . S
H228 C225 0.961 . S
O229 Co204 1.967 . S
O229 C237 1.258 . S
O230 Co205 1.941 . S
O230 C237 1.266 . S
H231 C233 0.959 . S
H232 C233 0.961 . S
C233 C223 1.510 1_556 S
C233 H231 0.959 . S
C233 H232 0.961 . S
C233 H234 0.960 . S
H234 C233 0.960 . S
H235 N215 0.862 . S
O236 Co204 1.920 . S
O236 C209 1.289 . S
C237 O229 1.258 . S
C237 O230 1.266 . S
Co238 O241 1.970 . S
Co238 N255 1.989 . S
Co238 O263 1.967 . S
Co238 O270 1.920 . S
Co239 O242 1.966 . S
Co239 N248 2.022 . S
Co239 N256 1.993 . S
Co239 O264 1.941 . S
C240 O241 1.258 . S
C240 O242 1.263 . S
O241 Co238 1.970 . S
O241 C240 1.258 . S
O242 Co239 1.966 . S
O242 C240 1.263 . S
C243 O244 1.235 . S
C243 O270 1.289 . S
O244 C243 1.235 . S
C245 C247 1.400 . S
C245 N248 1.351 . S
C245 C250 1.501 . S
C246 C247 1.387 . S
C246 N249 1.341 . S
C247 C245 1.400 . S
C247 C246 1.387 . S
N248 Co239 2.022 . S
N248 C245 1.351 . S
N248 N249 1.365 . S
N249 C246 1.341 . S
N249 N248 1.365 . S
N249 H269 0.862 . S
C250 C245 1.501 . S
C250 H251 0.961 . S
C250 H252 0.961 . S
C250 H253 0.960 . S
H251 C250 0.961 . S
H252 C250 0.961 . S
H253 C250 0.960 . S
C254 N255 1.342 . S
C254 C258 1.401 . S
C254 C259 1.499 . S
N255 Co238 1.989 . S
N255 C254 1.342 . S
N255 N256 1.388 . S
N256 Co239 1.993 . S
N256 N255 1.388 . S
N256 C257 1.346 . S
C257 N256 1.346 . S
C257 C258 1.396 . S
C257 C267 1.510 . S
C258 C254 1.401 . S
C258 C257 1.396 . S
C259 C254 1.499 . S
C259 H260 0.959 . S
C259 H261 0.960 . S
C259 H262 0.961 . S
H260 C259 0.959 . S
H261 C259 0.960 . S
H262 C259 0.961 . S
O263 Co238 1.967 . S
O263 C271 1.258 . S
O264 Co239 1.941 . S
O264 C271 1.266 . S
H265 C267 0.959 . S
H266 C267 0.961 . S
C267 C257 1.510 . S
C267 H265 0.959 . S
C267 H266 0.961 . S
C267 H268 0.960 . S
H268 C267 0.960 . S
H269 N249 0.862 . S
O270 Co238 1.920 . S
O270 C243 1.289 . S
C271 O263 1.258 . S
C271 O264 1.266 . S
H272 C280 0.950 . S
H273 C285 0.950 . S
H274 C282 0.950 . S
H275 C284 0.950 . S
H276 C286 0.950 . S
H277 C288 0.950 . S
H278 C290 0.916 1_565 S
H279 C291 0.950 . S
C280 H272 0.950 . S
C280 C281 1.386 . S
C280 C282 1.391 . S
C281 C280 1.386 . S
C281 C285 1.393 . S
C282 H274 0.950 . S
C282 C280 1.391 . S
C282 C283 1.400 1_565 S
C283 C282 1.400 1_545 S
C283 C284 1.398 . S
C283 C289 1.491 . S
C284 H275 0.950 . S
C284 C283 1.398 . S
C284 C285 1.391 1_545 S
C285 H273 0.950 . S
C285 C281 1.393 . S
C285 C284 1.391 1_565 S
C286 H276 0.950 . S
C286 C287 1.386 . S
C286 C288 1.391 . S
C287 C286 1.386 . S
C287 C291 1.393 . S
C288 H277 0.950 . S
C288 C286 1.391 . S
C288 C289 1.400 . S
C289 C283 1.491 . S
C289 C288 1.400 . S
C289 C290 1.398 . S
C290 H278 0.916 1_545 S
C290 C289 1.398 . S
C290 C291 1.391 . S
C291 H279 0.950 . S
C291 C287 1.393 . S
C291 C290 1.391 . S
H292 C300 0.950 . S
H293 C305 0.950 . S
H294 C302 0.950 . S
H295 C304 0.950 . S
H296 C306 0.950 . S
H297 C308 0.950 . S
H298 C310 0.950 . S
H299 C311 0.950 . S
C300 H292 0.950 . S
C300 C301 1.386 . S
C300 C302 1.391 . S
C301 C300 1.386 . S
C301 C305 1.393 . S
C302 H294 0.950 . S
C302 C300 1.391 . S
C302 C303 1.400 . S
C303 C302 1.400 . S
C303 C304 1.398 1_554 S
C303 C309 1.491 1_554 S
C304 H295 0.950 . S
C304 C303 1.398 1_556 S
C304 C305 1.391 1_556 S
C305 H293 0.950 . S
C305 C301 1.393 . S
C305 C304 1.391 1_554 S
C306 H296 0.950 . S
C306 C307 1.386 . S
C306 C308 1.391 . S
C307 C306 1.386 . S
C307 C311 1.393 . S
C308 H297 0.950 . S
C308 C306 1.391 . S
C308 C309 1.400 . S
C309 C303 1.491 1_556 S
C309 C308 1.400 . S
C309 C310 1.398 1_556 S
C310 H298 0.950 . S
C310 C309 1.398 1_554 S
C310 C311 1.391 1_554 S
C311 H299 0.950 . S
C311 C307 1.393 . S
C311 C310 1.391 1_556 S
H312 C320 0.950 . S
H313 C325 0.950 . S
H314 C322 0.950 . S
H315 C324 0.950 . S
H316 C326 0.950 . S
H317 C328 0.950 . S
H318 C330 0.950 . S
H319 C331 0.950 . S
C320 H312 0.950 . S
C320 C321 1.386 . S
C320 C322 1.391 . S
C321 C320 1.386 . S
C321 C325 1.393 . S
C322 H314 0.950 . S
C322 C320 1.391 . S
C322 C323 1.400 1_655 S
C323 C322 1.400 1_455 S
C323 C324 1.398 . S
C323 C329 1.491 . S
C324 H315 0.950 . S
C324 C323 1.398 . S
C324 C325 1.391 1_455 S
C325 H313 0.950 . S
C325 C321 1.393 . S
C325 C324 1.391 1_655 S
C326 H316 0.950 . S
C326 C327 1.386 . S
C326 C328 1.391 . S
C327 C326 1.386 . S
C327 C331 1.393 . S
C328 H317 0.950 . S
C328 C326 1.391 . S
C328 C329 1.400 . S
C329 C323 1.491 . S
C329 C328 1.400 . S
C329 C330 1.398 . S
C330 H318 0.950 . S
C330 C329 1.398 . S
C330 C331 1.391 . S
C331 H319 0.950 . S
C331 C327 1.393 . S
C331 C330 1.391 . S
H332 C340 0.950 . S
H333 C345 0.950 . S
H334 C342 0.950 . S
H335 C344 0.950 1_565 S
H336 C346 0.950 . S
H337 C348 0.950 1_655 S
H338 C350 0.950 . S
H339 C351 0.944 1_545 S
C340 H332 0.950 . S
C340 C341 1.386 . S
C340 C342 1.391 1_655 S
C341 C340 1.386 . S
C341 C345 1.393 . S
C342 H334 0.950 . S
C342 C340 1.391 1_455 S
C342 C343 1.400 . S
C343 C342 1.400 . S
C343 C344 1.398 1_455 S
C343 C349 1.491 1_554 S
C344 H335 0.950 1_545 S
C344 C343 1.398 1_655 S
C344 C345 1.391 . S
C345 H333 0.950 . S
C345 C341 1.393 . S
C345 C344 1.391 . S
C346 H336 0.950 . S
C346 C347 1.386 . S
C346 C348 1.391 . S
C347 C346 1.386 . S
C347 C351 1.393 . S
C348 H337 0.950 1_455 S
C348 C346 1.391 . S
C348 C349 1.400 1_565 S
C349 C343 1.491 1_556 S
C349 C348 1.400 1_545 S
C349 C350 1.398 . S
C350 H338 0.950 . S
C350 C349 1.398 . S
C350 C351 1.391 1_545 S
C351 H339 0.944 1_565 S
C351 C347 1.393 . S
C351 C350 1.391 1_565 S
H352 C360 0.950 . S
H353 C365 0.950 . S
H354 C362 0.950 . S
H355 C364 0.950 . S
H356 C366 0.950 . S
H357 C368 0.950 . S
H358 C370 0.950 . S
H359 C371 0.950 . S
C360 H352 0.950 . S
C360 C361 1.386 . S
C360 C362 1.391 . S
C361 C360 1.386 . S
C361 C365 1.393 . S
C362 H354 0.950 . S
C362 C360 1.391 . S
C362 C363 1.400 . S
C363 C362 1.400 . S
C363 C364 1.398 . S
C363 C369 1.491 . S
C364 H355 0.950 . S
C364 C363 1.398 . S
C364 C365 1.391 . S
C365 H353 0.950 . S
C365 C361 1.393 . S
C365 C364 1.391 . S
C366 H356 0.950 . S
C366 C367 1.386 . S
C366 C368 1.391 . S
C367 C366 1.386 . S
C367 C371 1.393 . S
C368 H357 0.950 . S
C368 C366 1.391 . S
C368 C369 1.400 . S
C369 C363 1.491 . S
C369 C368 1.400 . S
C369 C370 1.398 . S
C370 H358 0.950 . S
C370 C369 1.398 . S
C370 C371 1.391 . S
C371 H359 0.950 . S
C371 C367 1.393 . S
C371 C370 1.391 . S
H372 C380 0.950 . S
H373 C385 0.950 . S
H374 C382 0.950 . S
H375 C384 0.950 . S
H376 C386 0.950 . S
H377 C388 0.950 . S
H378 C390 0.950 . S
H379 C391 0.950 . S
C380 H372 0.950 . S
C380 C381 1.386 . S
C380 C382 1.391 . S
C381 C380 1.386 . S
C381 C385 1.393 . S
C382 H374 0.950 . S
C382 C380 1.391 . S
C382 C383 1.400 . S
C383 C382 1.400 . S
C383 C384 1.398 . S
C383 C389 1.491 . S
C384 H375 0.950 . S
C384 C383 1.398 . S
C384 C385 1.391 . S
C385 H373 0.950 . S
C385 C381 1.393 . S
C385 C384 1.391 . S
C386 H376 0.950 . S
C386 C387 1.386 . S
C386 C388 1.391 . S
C387 C386 1.386 . S
C387 C391 1.393 . S
C388 H377 0.950 . S
C388 C386 1.391 . S
C388 C389 1.400 . S
C389 C383 1.491 . S
C389 C388 1.400 . S
C389 C390 1.398 . S
C390 H378 0.950 . S
C390 C389 1.398 . S
C390 C391 1.391 . S
C391 H379 0.950 . S
C391 C387 1.393 . S
C391 C390 1.391 . S
H392 C400 0.950 . S
H393 C405 0.950 . S
H394 C402 0.950 . S
H395 C404 0.950 . S
H396 C406 0.950 . S
H397 C408 0.950 . S
H398 C410 0.950 . S
H399 C411 0.950 . S
C400 H392 0.950 . S
C400 C401 1.386 . S
C400 C402 1.391 . S
C401 C400 1.386 . S
C401 C405 1.393 . S
C402 H394 0.950 . S
C402 C400 1.391 . S
C402 C403 1.400 . S
C403 C402 1.400 . S
C403 C404 1.398 . S
C403 C409 1.491 . S
C404 H395 0.950 . S
C404 C403 1.398 . S
C404 C405 1.391 . S
C405 H393 0.950 . S
C405 C401 1.393 . S
C405 C404 1.391 . S
C406 H396 0.950 . S
C406 C407 1.386 . S
C406 C408 1.391 . S
C407 C406 1.386 . S
C407 C411 1.393 . S
C408 H397 0.950 . S
C408 C406 1.391 . S
C408 C409 1.400 . S
C409 C403 1.491 . S
C409 C408 1.400 . S
C409 C410 1.398 . S
C410 H398 0.950 . S
C410 C409 1.398 . S
C410 C411 1.391 . S
C411 H399 0.950 . S
C411 C407 1.393 . S
C411 C410 1.391 . S
H412 C420 0.950 . S
H413 C425 0.950 . S
H414 C422 0.950 . S
H415 C424 0.950 . S
H416 C426 0.950 . S
H417 C428 0.950 . S
H418 C430 0.950 . S
H419 C431 0.950 . S
C420 H412 0.950 . S
C420 C421 1.386 . S
C420 C422 1.391 . S
C421 C420 1.386 . S
C421 C425 1.393 . S
C422 H414 0.950 . S
C422 C420 1.391 . S
C422 C423 1.400 . S
C423 C422 1.400 . S
C423 C424 1.398 . S
C423 C429 1.491 . S
C424 H415 0.950 . S
C424 C423 1.398 . S
C424 C425 1.391 . S
C425 H413 0.950 . S
C425 C421 1.393 . S
C425 C424 1.391 . S
C426 H416 0.950 . S
C426 C427 1.386 . S
C426 C428 1.391 . S
C427 C426 1.386 . S
C427 C431 1.393 . S
C428 H417 0.950 . S
C428 C426 1.391 . S
C428 C429 1.400 . S
C429 C423 1.491 . S
C429 C428 1.400 . S
C429 C430 1.398 . S
C430 H418 0.950 . S
C430 C429 1.398 . S
C430 C431 1.391 . S
C431 H419 0.950 . S
C431 C427 1.393 . S
C431 C430 1.391 . S
H432 C440 0.950 . S
H433 C445 0.950 . S
H434 C442 0.950 . S
H435 C444 0.950 . S
H436 C446 0.950 . S
H437 C448 0.950 . S
H438 C450 0.950 . S
H439 C451 0.950 . S
C440 H432 0.950 . S
C440 C441 1.386 . S
C440 C442 1.391 . S
C441 C440 1.386 . S
C441 C445 1.393 . S
C442 H434 0.950 . S
C442 C440 1.391 . S
C442 C443 1.400 . S
C443 C442 1.400 . S
C443 C444 1.398 . S
C443 C449 1.491 . S
C444 H435 0.950 . S
C444 C443 1.398 . S
C444 C445 1.391 . S
C445 H433 0.950 . S
C445 C441 1.393 . S
C445 C444 1.391 . S
C446 H436 0.950 . S
C446 C447 1.386 . S
C446 C448 1.391 . S
C447 C446 1.386 . S
C447 C451 1.393 . S
C448 H437 0.950 . S
C448 C446 1.391 . S
C448 C449 1.400 . S
C449 C443 1.491 . S
C449 C448 1.400 . S
C449 C450 1.398 . S
C450 H438 0.950 . S
C450 C449 1.398 . S
C450 C451 1.391 . S
C451 H439 0.950 . S
C451 C447 1.393 . S
C451 C450 1.391 . S
H452 C460 0.950 . S
H453 C465 0.950 . S
H454 C462 0.950 . S
H455 C464 0.950 . S
H456 C466 0.950 . S
H457 C468 0.950 . S
H458 C470 0.950 . S
H459 C471 0.950 . S
C460 H452 0.950 . S
C460 C461 1.386 . S
C460 C462 1.391 . S
C461 C460 1.386 . S
C461 C465 1.393 . S
C462 H454 0.950 . S
C462 C460 1.391 . S
C462 C463 1.400 . S
C463 C462 1.400 . S
C463 C464 1.398 . S
C463 C469 1.491 . S
C464 H455 0.950 . S
C464 C463 1.398 . S
C464 C465 1.391 . S
C465 H453 0.950 . S
C465 C461 1.393 . S
C465 C464 1.391 . S
C466 H456 0.950 . S
C466 C467 1.386 . S
C466 C468 1.391 . S
C467 C466 1.386 . S
C467 C471 1.393 . S
C468 H457 0.950 . S
C468 C466 1.391 . S
C468 C469 1.400 . S
C469 C463 1.491 . S
C469 C468 1.400 . S
C469 C470 1.398 . S
C470 H458 0.950 . S
C470 C469 1.398 . S
C470 C471 1.391 . S
C471 H459 0.950 . S
C471 C467 1.393 . S
C471 C470 1.391 . S
H472 C480 0.950 . S
H473 C485 0.950 . S
H474 C482 0.950 . S
H475 C484 0.950 . S
H476 C486 0.950 . S
H477 C488 0.950 . S
H478 C490 0.950 . S
H479 C491 0.950 . S
C480 H472 0.950 . S
C480 C481 1.386 . S
C480 C482 1.391 . S
C481 C480 1.386 . S
C481 C485 1.393 . S
C482 H474 0.950 . S
C482 C480 1.391 . S
C482 C483 1.400 . S
C483 C482 1.400 . S
C483 C484 1.398 . S
C483 C489 1.491 . S
C484 H475 0.950 . S
C484 C483 1.398 . S
C484 C485 1.391 . S
C485 H473 0.950 . S
C485 C481 1.393 . S
C485 C484 1.391 . S
C486 H476 0.950 . S
C486 C487 1.386 . S
C486 C488 1.391 . S
C487 C486 1.386 . S
C487 C491 1.393 . S
C488 H477 0.950 . S
C488 C486 1.391 . S
C488 C489 1.400 . S
C489 C483 1.491 . S
C489 C488 1.400 . S
C489 C490 1.398 . S
C490 H478 0.950 . S
C490 C489 1.398 . S
C490 C491 1.391 . S
C491 H479 0.950 . S
C491 C487 1.393 . S
C491 C490 1.391 . S
H492 C500 0.950 . S
H493 C505 0.950 . S
H494 C502 0.950 . S
H495 C504 0.950 . S
H496 C506 0.950 . S
H497 C508 0.950 . S
H498 C510 0.950 . S
H499 C511 0.950 . S
C500 H492 0.950 . S
C500 C501 1.386 . S
C500 C502 1.391 . S
C501 C500 1.386 . S
C501 C505 1.393 . S
C502 H494 0.950 . S
C502 C500 1.391 . S
C502 C503 1.400 . S
C503 C502 1.400 . S
C503 C504 1.398 . S
C503 C509 1.491 . S
C504 H495 0.950 . S
C504 C503 1.398 . S
C504 C505 1.391 . S
C505 H493 0.950 . S
C505 C501 1.393 . S
C505 C504 1.391 . S
C506 H496 0.950 . S
C506 C507 1.386 . S
C506 C508 1.391 . S
C507 C506 1.386 . S
C507 C511 1.393 . S
C508 H497 0.950 . S
C508 C506 1.391 . S
C508 C509 1.400 . S
C509 C503 1.491 . S
C509 C508 1.400 . S
C509 C510 1.398 . S
C510 H498 0.950 . S
C510 C509 1.398 . S
C510 C511 1.391 . S
C511 H499 0.950 . S
C511 C507 1.393 . S
C511 C510 1.391 . S
H512 C520 0.950 . S
H513 C525 0.950 . S
H514 C522 0.950 . S
H515 C524 0.950 . S
H516 C526 0.950 . S
H517 C528 0.950 . S
H518 C530 0.950 . S
H519 C531 0.950 . S
C520 H512 0.950 . S
C520 C521 1.386 . S
C520 C522 1.391 . S
C521 C520 1.386 . S
C521 C525 1.393 . S
C522 H514 0.950 . S
C522 C520 1.391 . S
C522 C523 1.400 . S
C523 C522 1.400 . S
C523 C524 1.398 . S
C523 C529 1.491 . S
C524 H515 0.950 . S
C524 C523 1.398 . S
C524 C525 1.391 . S
C525 H513 0.950 . S
C525 C521 1.393 . S
C525 C524 1.391 . S
C526 H516 0.950 . S
C526 C527 1.386 . S
C526 C528 1.391 1_554 S
C527 C526 1.386 . S
C527 C531 1.393 . S
C528 H517 0.950 . S
C528 C526 1.391 1_556 S
C528 C529 1.400 . S
C529 C523 1.491 . S
C529 C528 1.400 . S
C529 C530 1.398 . S
C530 H518 0.950 . S
C530 C529 1.398 . S
C530 C531 1.391 1_556 S
C531 H519 0.950 . S
C531 C527 1.393 . S
C531 C530 1.391 1_554 S
H532 C540 0.950 . S
H533 C545 0.950 . S
H534 C542 0.950 . S
H535 C544 0.950 . S
H536 C546 0.950 . S
H537 C548 0.950 . S
H538 C550 0.950 . S
H539 C551 0.950 . S
C540 H532 0.950 . S
C540 C541 1.386 . S
C540 C542 1.391 . S
C541 C540 1.386 . S
C541 C545 1.393 . S
C542 H534 0.950 . S
C542 C540 1.391 . S
C542 C543 1.400 . S
C543 C542 1.400 . S
C543 C544 1.398 . S
C543 C549 1.491 . S
C544 H535 0.950 . S
C544 C543 1.398 . S
C544 C545 1.391 . S
C545 H533 0.950 . S
C545 C541 1.393 . S
C545 C544 1.391 . S
C546 H536 0.950 . S
C546 C547 1.386 . S
C546 C548 1.391 . S
C547 C546 1.386 . S
C547 C551 1.393 . S
C548 H537 0.950 . S
C548 C546 1.391 . S
C548 C549 1.400 . S
C549 C543 1.491 . S
C549 C548 1.400 . S
C549 C550 1.398 . S
C550 H538 0.950 . S
C550 C549 1.398 . S
C550 C551 1.391 . S
C551 H539 0.950 . S
C551 C547 1.393 . S
C551 C550 1.391 . S
H552 C560 0.950 . S
H553 C565 0.950 . S
H554 C562 0.950 . S
H555 C564 0.950 . S
H556 C566 0.950 . S
H557 C568 0.950 . S
H558 C570 0.950 . S
H559 C571 0.950 . S
C560 H552 0.950 . S
C560 C561 1.386 . S
C560 C562 1.391 1_554 S
C561 C560 1.386 . S
C561 C565 1.393 . S
C562 H554 0.950 . S
C562 C560 1.391 1_556 S
C562 C563 1.400 . S
C563 C562 1.400 . S
C563 C564 1.398 . S
C563 C569 1.491 . S
C564 H555 0.950 . S
C564 C563 1.398 . S
C564 C565 1.391 1_556 S
C565 H553 0.950 . S
C565 C561 1.393 . S
C565 C564 1.391 1_554 S
C566 H556 0.950 . S
C566 C567 1.386 . S
C566 C568 1.391 . S
C567 C566 1.386 . S
C567 C571 1.393 . S
C568 H557 0.950 . S
C568 C566 1.391 . S
C568 C569 1.400 . S
C569 C563 1.491 . S
C569 C568 1.400 . S
C569 C570 1.398 . S
C570 H558 0.950 . S
C570 C569 1.398 . S
C570 C571 1.391 . S
C571 H559 0.950 . S
C571 C567 1.393 . S
C571 C570 1.391 . S
H572 C580 0.950 . S
H573 C585 0.950 . S
H574 C582 0.950 . S
H575 C584 0.950 . S
H576 C586 0.950 . S
H577 C588 0.950 . S
H578 C590 0.950 . S
H579 C591 0.950 . S
C580 H572 0.950 . S
C580 C581 1.386 . S
C580 C582 1.391 . S
C581 C580 1.386 . S
C581 C585 1.393 . S
C582 H574 0.950 . S
C582 C580 1.391 . S
C582 C583 1.400 . S
C583 C582 1.400 . S
C583 C584 1.398 . S
C583 C589 1.491 . S
C584 H575 0.950 . S
C584 C583 1.398 . S
C584 C585 1.391 . S
C585 H573 0.950 . S
C585 C581 1.393 . S
C585 C584 1.391 . S
C586 H576 0.950 . S
C586 C587 1.386 . S
C586 C588 1.391 . S
C587 C586 1.386 . S
C587 C591 1.393 . S
C588 H577 0.950 . S
C588 C586 1.391 . S
C588 C589 1.400 . S
C589 C583 1.491 . S
C589 C588 1.400 . S
C589 C590 1.398 . S
C590 H578 0.950 . S
C590 C589 1.398 . S
C590 C591 1.391 . S
C591 H579 0.950 . S
C591 C587 1.393 . S
C591 C590 1.391 . S
H592 C600 0.950 . S
H593 C605 0.950 . S
H594 C602 0.950 . S
H595 C604 0.950 . S
H596 C606 0.950 . S
H597 C608 0.950 . S
H598 C610 0.950 . S
H599 C611 0.950 . S
C600 H592 0.950 . S
C600 C601 1.386 . S
C600 C602 1.391 . S
C601 C600 1.386 . S
C601 C605 1.393 . S
C602 H594 0.950 . S
C602 C600 1.391 . S
C602 C603 1.400 . S
C603 C602 1.400 . S
C603 C604 1.398 . S
C603 C609 1.491 . S
C604 H595 0.950 . S
C604 C603 1.398 . S
C604 C605 1.391 . S
C605 H593 0.950 . S
C605 C601 1.393 . S
C605 C604 1.391 . S
C606 H596 0.950 . S
C606 C607 1.386 . S
C606 C608 1.391 . S
C607 C606 1.386 . S
C607 C611 1.393 . S
C608 H597 0.950 . S
C608 C606 1.391 . S
C608 C609 1.400 . S
C609 C603 1.491 . S
C609 C608 1.400 . S
C609 C610 1.398 . S
C610 H598 0.950 . S
C610 C609 1.398 . S
C610 C611 1.391 . S
C611 H599 0.950 . S
C611 C607 1.393 . S
C611 C610 1.391 . S
H612 C620 0.950 . S
H613 C625 0.950 . S
H614 C622 0.950 . S
H615 C624 0.950 . S
H616 C626 0.950 . S
H617 C628 0.950 . S
H618 C630 0.950 . S
H619 C631 0.950 . S
C620 H612 0.950 . S
C620 C621 1.386 . S
C620 C622 1.391 1_556 S
C621 C620 1.386 . S
C621 C625 1.393 . S
C622 H614 0.950 . S
C622 C620 1.391 1_554 S
C622 C623 1.400 . S
C623 C622 1.400 . S
C623 C624 1.398 . S
C623 C629 1.491 . S
C624 H615 0.950 . S
C624 C623 1.398 . S
C624 C625 1.391 1_554 S
C625 H613 0.950 . S
C625 C621 1.393 . S
C625 C624 1.391 1_556 S
C626 H616 0.950 . S
C626 C627 1.386 . S
C626 C628 1.391 . S
C627 C626 1.386 . S
C627 C631 1.393 . S
C628 H617 0.950 . S
C628 C626 1.391 . S
C628 C629 1.400 . S
C629 C623 1.491 . S
C629 C628 1.400 . S
C629 C630 1.398 . S
C630 H618 0.950 . S
C630 C629 1.398 . S
C630 C631 1.391 . S
C631 H619 0.950 . S
C631 C627 1.393 . S
C631 C630 1.391 . S
H632 C640 0.950 . S
H633 C645 0.950 . S
H634 C642 0.950 . S
H635 C644 0.950 . S
H636 C646 0.950 . S
H637 C648 0.950 . S
H638 C650 0.950 . S
H639 C651 0.950 . S
C640 H632 0.950 . S
C640 C641 1.386 . S
C640 C642 1.391 . S
C641 C640 1.386 . S
C641 C645 1.393 . S
C642 H634 0.950 . S
C642 C640 1.391 . S
C642 C643 1.400 . S
C643 C642 1.400 . S
C643 C644 1.398 . S
C643 C649 1.491 . S
C644 H635 0.950 . S
C644 C643 1.398 . S
C644 C645 1.391 . S
C645 H633 0.950 . S
C645 C641 1.393 . S
C645 C644 1.391 . S
C646 H636 0.950 . S
C646 C647 1.386 . S
C646 C648 1.391 . S
C647 C646 1.386 . S
C647 C651 1.393 . S
C648 H637 0.950 . S
C648 C646 1.391 . S
C648 C649 1.400 . S
C649 C643 1.491 . S
C649 C648 1.400 . S
C649 C650 1.398 . S
C650 H638 0.950 . S
C650 C649 1.398 . S
C650 C651 1.391 . S
C651 H639 0.950 . S
C651 C647 1.393 . S
C651 C650 1.391 . S
H652 C660 0.950 . S
H653 C665 0.950 . S
H654 C662 0.950 . S
H655 C664 0.950 . S
H656 C666 0.950 . S
H657 C668 0.950 . S
H658 C670 0.950 . S
H659 C671 0.950 . S
C660 H652 0.950 . S
C660 C661 1.386 . S
C660 C662 1.391 . S
C661 C660 1.386 . S
C661 C665 1.393 . S
C662 H654 0.950 . S
C662 C660 1.391 . S
C662 C663 1.400 . S
C663 C662 1.400 . S
C663 C664 1.398 . S
C663 C669 1.491 . S
C664 H655 0.950 . S
C664 C663 1.398 . S
C664 C665 1.391 . S
C665 H653 0.950 . S
C665 C661 1.393 . S
C665 C664 1.391 . S
C666 H656 0.950 . S
C666 C667 1.386 . S
C666 C668 1.391 1_556 S
C667 C666 1.386 . S
C667 C671 1.393 . S
C668 H657 0.950 . S
C668 C666 1.391 1_554 S
C668 C669 1.400 . S
C669 C663 1.491 . S
C669 C668 1.400 . S
C669 C670 1.398 . S
C670 H658 0.950 . S
C670 C669 1.398 . S
C670 C671 1.391 1_554 S
C671 H659 0.950 . S
C671 C667 1.393 . S
C671 C670 1.391 1_556 S
C281 C258 1.538 . S
C287 C20 1.539 . S
C301 C156 1.537 . S
C307 C54 1.542 . S
C321 C88 1.550 . S
C327 C190 1.540 . S
C341 C224 1.551 . S
C347 C122 1.552 . S
C361 C33 1.185 . S
C367 C169 1.196 . S
C381 C203 1.196 . S
C387 C67 1.187 . S
C401 C237 1.192 . S
C407 C101 1.183 . S
C421 C271 1.191 . S
C427 C135 1.195 . S
C441 C240 1.687 . S
C447 C36 1.687 . S
C461 C70 1.676 . S
C467 C138 1.676 . S
C481 C104 1.684 . S
C487 C172 1.684 . S
C501 C206 1.687 . S
C507 C2 1.687 . S
C521 C9 1.129 . S
C527 C5 1.168 . S
C541 C39 1.170 . S
C547 C43 1.130 . S
C561 C73 1.151 . S
C567 C77 1.098 . S
C581 C111 1.091 . S
C587 C107 1.151 . S
C601 C141 1.152 . S
C607 C145 1.086 . S
C621 C175 1.173 . S
C627 C179 1.129 . S
C641 C209 1.155 . S
C647 C213 1.109 . S
C661 C247 1.101 . S
C667 C243 1.152 . S
