# Generated by pormake.
# Topology uoc, (4)-cn, num edge types: 1
# Building blocks:
#     Node 0, Type 0, BuildingBlock: KUFVIS_clean_sbu_0, # of connection points: 4
#     Node 1, Type 0, BuildingBlock: KUFVIS_clean_sbu_0, # of connection points: 4
#     Node 2, Type 0, BuildingBlock: KUFVIS_clean_sbu_0, # of connection points: 4
#     Node 3, Type 0, BuildingBlock: KUFVIS_clean_sbu_0, # of connection points: 4
#     Node 4, Type 0, BuildingBlock: KUFVIS_clean_sbu_0, # of connection points: 4
#     Node 5, Type 0, BuildingBlock: KUFVIS_clean_sbu_0, # of connection points: 4
#     Node 6, Type 0, BuildingBlock: KUFVIS_clean_sbu_0, # of connection points: 4
#     Node 7, Type 0, BuildingBlock: KUFVIS_clean_sbu_0, # of connection points: 4
#     Edge 8, Type (0, 0), BuildingBlock: FUNLAD_clean_linker_0, # of connection points: 2
#     Edge 9, Type (0, 0), BuildingBlock: FUNLAD_clean_linker_0, # of connection points: 2
#     Edge 10, Type (0, 0), BuildingBlock: FUNLAD_clean_linker_0, # of connection points: 2
#     Edge 11, Type (0, 0), BuildingBlock: FUNLAD_clean_linker_0, # of connection points: 2
#     Edge 12, Type (0, 0), BuildingBlock: FUNLAD_clean_linker_0, # of connection points: 2
#     Edge 13, Type (0, 0), BuildingBlock: FUNLAD_clean_linker_0, # of connection points: 2
#     Edge 14, Type (0, 0), BuildingBlock: FUNLAD_clean_linker_0, # of connection points: 2
#     Edge 15, Type (0, 0), BuildingBlock: FUNLAD_clean_linker_0, # of connection points: 2
#     Edge 16, Type (0, 0), BuildingBlock: FUNLAD_clean_linker_0, # of connection points: 2
#     Edge 17, Type (0, 0), BuildingBlock: FUNLAD_clean_linker_0, # of connection points: 2
#     Edge 18, Type (0, 0), BuildingBlock: FUNLAD_clean_linker_0, # of connection points: 2
#     Edge 19, Type (0, 0), BuildingBlock: FUNLAD_clean_linker_0, # of connection points: 2
#     Edge 20, Type (0, 0), BuildingBlock: FUNLAD_clean_linker_0, # of connection points: 2
#     Edge 21, Type (0, 0), BuildingBlock: FUNLAD_clean_linker_0, # of connection points: 2
#     Edge 22, Type (0, 0), BuildingBlock: FUNLAD_clean_linker_0, # of connection points: 2
#     Edge 23, Type (0, 0), BuildingBlock: FUNLAD_clean_linker_0, # of connection points: 2
# Relax obj value: 0.118
# Max RMSD: 0.133
# Mean RMSD: 0.131
data_MOF--net-uoc--node1-KUFVIS_clean_sbu_0--edge1-FUNLAD_clean_linker_0
_symmetry_space_group_name_H-M    P1
_symmetry_Int_Tables_number       1
_symmetry_cell_setting            triclinic
loop_
_symmetry_equiv_pos_as_xyz
'x, y, z'
_cell_length_a     31.753173
_cell_length_b     31.619633
_cell_length_c     62.74714
_cell_angle_alpha  90.345524
_cell_angle_beta   90.47653
_cell_angle_gamma 90.009001
loop_
_atom_site_label
_atom_site_type_symbol
_atom_site_fract_x
_atom_site_fract_y
_atom_site_fract_z
_atom_type_partial_charge
Mn0 Mn 0.0959 0.22817 0.12506 0.0
Mn1 Mn 0.18998 0.18281 0.13525 0.0
C2 C 0.12667 0.23565 0.15809 0.0
C3 C 0.05758 0.28577 0.11263 0.0
C4 C 0.10774 0.13402 0.13238 0.0
O5 O 0.11836 0.21429 0.09561 0.0
O6 O 0.18399 0.19219 0.10411 0.0
C7 C 0.24684 0.25259 0.12298 0.0
N8 N 0.23287 0.22499 0.13792 0.0
C9 C 0.28186 0.25232 0.16404 0.0
C10 C 0.29701 0.28079 0.14887 0.0
C11 C 0.27937 0.28096 0.12826 0.0
C12 C 0.24966 0.22451 0.1578 0.0
H13 H 0.23315 0.25306 0.10717 0.0
C14 C 0.15546 0.2026 0.09053 0.0
O15 O 0.041 0.24821 0.11316 0.0
O16 O 0.09659 0.28933 0.11862 0.0
N17 N 0.19945 0.17303 0.16501 0.0
C18 C 0.17938 0.14559 0.17816 0.0
C19 C 0.19216 0.14272 0.19959 0.0
C20 C 0.22546 0.16795 0.20725 0.0
C21 C 0.24583 0.19574 0.19338 0.0
C22 C 0.232 0.19694 0.17214 0.0
H23 H 0.15365 0.12624 0.1724 0.0
O24 O 0.08648 0.24159 0.15573 0.0
O25 O 0.14744 0.22586 0.14105 0.0
O26 O 0.0834 0.16582 0.13035 0.0
O27 O 0.14787 0.13672 0.13326 0.0
C28 C 0.27868 0.22294 0.19993 0.0
C29 C 0.2967 0.2512 0.18527 0.0
H30 H 0.32184 0.30299 0.15294 0.0
H31 H 0.2907 0.30304 0.11651 0.0
H32 H 0.17621 0.12127 0.2102 0.0
H33 H 0.23489 0.16601 0.22385 0.0
H34 H 0.28989 0.22285 0.21628 0.0
H35 H 0.3215 0.2724 0.19057 0.0
Mn36 Mn 0.74895 0.61708 0.37452 0.0
Mn37 Mn 0.80701 0.70595 0.38002 0.0
C38 C 0.75304 0.65045 0.40707 0.0
C39 C 0.68515 0.58501 0.36547 0.0
C40 C 0.84506 0.61789 0.37879 0.0
O41 O 0.75874 0.63486 0.34405 0.0
O42 O 0.79367 0.69609 0.34923 0.0
C43 C 0.7423 0.76781 0.36645 0.0
N44 N 0.77004 0.75356 0.38144 0.0
C45 C 0.75085 0.80934 0.40575 0.0
C46 C 0.7223 0.82479 0.39051 0.0
C47 C 0.71797 0.80389 0.37079 0.0
C48 C 0.77441 0.7734 0.40048 0.0
H49 H 0.73868 0.75169 0.35133 0.0
C50 C 0.77627 0.66823 0.33709 0.0
O51 O 0.72032 0.56402 0.36486 0.0
O52 O 0.68735 0.62457 0.37089 0.0
N53 N 0.82179 0.71976 0.40887 0.0
C54 C 0.8497 0.70002 0.4221 0.0
C55 C 0.85705 0.71649 0.44263 0.0
C56 C 0.83591 0.75321 0.44929 0.0
C57 C 0.80786 0.77336 0.43528 0.0
C58 C 0.80208 0.7557 0.41494 0.0
H59 H 0.86595 0.67171 0.41711 0.0
O60 O 0.7416 0.61114 0.40575 0.0
O61 O 0.76075 0.66947 0.38919 0.0
O62 O 0.81034 0.59766 0.37715 0.0
O63 O 0.84732 0.65827 0.3794 0.0
C64 C 0.78488 0.80986 0.44082 0.0
C65 C 0.75636 0.8278 0.42608 0.0
H66 H 0.70331 0.85248 0.39383 0.0
H67 H 0.69584 0.81549 0.35899 0.0
H68 H 0.87878 0.70079 0.45334 0.0
H69 H 0.84132 0.76556 0.46522 0.0
H70 H 0.78857 0.82412 0.45647 0.0
H71 H 0.73854 0.8556 0.43061 0.0
Mn72 Mn 0.3838 0.24324 0.61062 0.0
Mn73 Mn 0.29449 0.18713 0.60313 0.0
C74 C 0.35317 0.23985 0.57737 0.0
C75 C 0.41579 0.30716 0.62006 0.0
C76 C 0.38085 0.14696 0.60782 0.0
O77 O 0.3628 0.23375 0.64071 0.0
O78 O 0.30041 0.20224 0.6338 0.0
C79 C 0.23226 0.25384 0.61314 0.0
N80 N 0.24814 0.22489 0.59921 0.0
C81 C 0.1966 0.24337 0.57252 0.0
C82 C 0.1795 0.27319 0.58664 0.0
C83 C 0.19745 0.27847 0.60702 0.0
C84 C 0.2311 0.21952 0.57956 0.0
H85 H 0.24613 0.25815 0.62878 0.0
C86 C 0.32777 0.21814 0.64669 0.0
O87 O 0.43622 0.2716 0.62135 0.0
O88 O 0.3768 0.3052 0.6139 0.0
N89 N 0.28497 0.17087 0.57405 0.0
C90 C 0.30648 0.14226 0.56201 0.0
C91 C 0.29326 0.13408 0.54097 0.0
C92 C 0.25798 0.15522 0.53258 0.0
C93 C 0.23608 0.18419 0.54536 0.0
C94 C 0.25048 0.19075 0.56627 0.0
H95 H 0.3337 0.12602 0.56835 0.0
O96 O 0.39246 0.25046 0.57948 0.0
O97 O 0.33292 0.23231 0.59484 0.0
O98 O 0.40226 0.18115 0.60855 0.0
O99 O 0.34067 0.14575 0.6066 0.0
C100 C 0.201 0.20739 0.53804 0.0
C101 C 0.1813 0.23697 0.5516 0.0
H102 H 0.15284 0.29246 0.58193 0.0
H103 H 0.18457 0.30158 0.61797 0.0
H104 H 0.31034 0.1117 0.5312 0.0
H105 H 0.24816 0.14917 0.51627 0.0
H106 H 0.18926 0.2031 0.52191 0.0
H107 H 0.15468 0.255 0.5457 0.0
Mn108 Mn 0.76893 0.90081 0.86032 0.0
Mn109 Mn 0.8225 0.81221 0.84733 0.0
C110 C 0.76572 0.87465 0.82614 0.0
C111 C 0.70911 0.9344 0.87303 0.0
C112 C 0.86374 0.89815 0.85241 0.0
O113 O 0.78239 0.87522 0.88908 0.0
O114 O 0.81496 0.81524 0.87879 0.0
C115 C 0.75845 0.7491 0.85974 0.0
N116 N 0.78388 0.76606 0.84464 0.0
C117 C 0.75902 0.71629 0.81823 0.0
C118 C 0.73278 0.69812 0.83353 0.0
C119 C 0.73245 0.71465 0.85436 0.0
C120 C 0.7844 0.75044 0.82454 0.0
H121 H 0.75793 0.76182 0.87574 0.0
C122 C 0.80006 0.83993 0.89316 0.0
O123 O 0.7457 0.95273 0.87379 0.0
O124 O 0.70766 0.89604 0.86558 0.0
N125 N 0.83141 0.80491 0.81738 0.0
C126 C 0.85722 0.82711 0.80429 0.0
C127 C 0.86047 0.81516 0.78277 0.0
C128 C 0.8374 0.78037 0.77497 0.0
C129 C 0.8115 0.75766 0.78881 0.0
C130 C 0.80981 0.77081 0.81014 0.0
H131 H 0.87498 0.85393 0.81016 0.0
O132 O 0.75691 0.91404 0.8299 0.0
O133 O 0.77578 0.85166 0.8425 0.0
O134 O 0.83015 0.91835 0.85674 0.0
O135 O 0.86468 0.85824 0.84908 0.0
C136 C 0.78673 0.72294 0.78219 0.0
C137 C 0.76044 0.70233 0.79687 0.0
H138 H 0.71251 0.6717 0.82942 0.0
H139 H 0.71213 0.70094 0.86623 0.0
H140 H 0.88054 0.83285 0.77219 0.0
H141 H 0.83961 0.77154 0.75831 0.0
H142 H 0.78727 0.71215 0.76578 0.0
H143 H 0.74114 0.67602 0.79152 0.0
Mn144 Mn 0.60033 0.74404 0.62197 0.0
Mn145 Mn 0.68916 0.69403 0.63751 0.0
C146 C 0.6185 0.74129 0.65751 0.0
C147 C 0.56774 0.8063 0.61083 0.0
C148 C 0.60891 0.64779 0.62465 0.0
O149 O 0.63316 0.73853 0.5945 0.0
O150 O 0.69305 0.70876 0.60681 0.0
C151 C 0.74896 0.76525 0.63313 0.0
N152 N 0.7307 0.73512 0.64542 0.0
C153 C 0.77109 0.75714 0.67617 0.0
C154 C 0.79051 0.78823 0.6638 0.0
C155 C 0.77934 0.79233 0.6422 0.0
C156 C 0.74118 0.73093 0.66624 0.0
H157 H 0.74031 0.76866 0.61655 0.0
C158 C 0.6705 0.72466 0.59181 0.0
O159 O 0.55097 0.76961 0.60664 0.0
O160 O 0.60365 0.80645 0.62074 0.0
N161 N 0.68968 0.6786 0.66698 0.0
C162 C 0.6665 0.64845 0.67696 0.0
C163 C 0.67312 0.64105 0.69878 0.0
C164 C 0.70362 0.66454 0.71008 0.0
C165 C 0.72735 0.69512 0.69943 0.0
C166 C 0.71962 0.70084 0.67762 0.0
H167 H 0.64298 0.63033 0.66837 0.0
O168 O 0.57975 0.74852 0.65193 0.0
O169 O 0.64508 0.736 0.64214 0.0
O170 O 0.58639 0.68059 0.62113 0.0
O171 O 0.64769 0.64953 0.63027 0.0
C172 C 0.75783 0.72066 0.70967 0.0
C173 C 0.77963 0.7517 0.69806 0.0
H174 H 0.81378 0.80935 0.67076 0.0
H175 H 0.79403 0.81639 0.63258 0.0
H176 H 0.65465 0.61742 0.7069 0.0
H177 H 0.70834 0.65904 0.72696 0.0
H178 H 0.76429 0.71714 0.72654 0.0
H179 H 0.80252 0.77158 0.7062 0.0
Mn180 Mn 0.26857 0.11109 0.87262 0.0
Mn181 Mn 0.3226 0.19873 0.88735 0.0
C182 C 0.26955 0.13186 0.90761 0.0
C183 C 0.208 0.07812 0.85985 0.0
C184 C 0.36425 0.11422 0.87931 0.0
O185 O 0.2782 0.14054 0.84467 0.0
O186 O 0.31345 0.19852 0.85583 0.0
C187 C 0.25649 0.2615 0.87694 0.0
N188 N 0.28336 0.24386 0.89139 0.0
C189 C 0.25941 0.29077 0.91909 0.0
C190 C 0.2317 0.30965 0.90446 0.0
C191 C 0.2302 0.29489 0.88331 0.0
C192 C 0.28497 0.25772 0.9118 0.0
H193 H 0.25506 0.25013 0.86069 0.0
C194 C 0.29659 0.17557 0.84116 0.0
O195 O 0.24479 0.06072 0.85777 0.0
O196 O 0.20665 0.11524 0.86877 0.0
N197 N 0.33369 0.20383 0.91729 0.0
C198 C 0.36137 0.1815 0.92955 0.0
C199 C 0.36618 0.19187 0.95123 0.0
C200 C 0.34285 0.22534 0.96002 0.0
C201 C 0.31519 0.24839 0.947 0.0
C202 C 0.31196 0.23682 0.92546 0.0
H203 H 0.37936 0.15571 0.9229 0.0
O204 O 0.26055 0.09308 0.90247 0.0
O205 O 0.27688 0.15787 0.89204 0.0
O206 O 0.33058 0.09439 0.87433 0.0
O207 O 0.36507 0.15349 0.88422 0.0
C208 C 0.29017 0.28193 0.95462 0.0
C209 C 0.26223 0.30304 0.94069 0.0
H210 H 0.21124 0.33529 0.90934 0.0
H211 H 0.20874 0.30916 0.87195 0.0
H212 H 0.38766 0.17399 0.96116 0.0
H213 H 0.34632 0.23296 0.97679 0.0
H214 H 0.29183 0.29145 0.97122 0.0
H215 H 0.24283 0.32848 0.94678 0.0
Mn216 Mn 0.89172 0.73011 0.10843 0.0
Mn217 Mn 0.79964 0.67833 0.10173 0.0
C218 C 0.86502 0.7193 0.07476 0.0
C219 C 0.92899 0.79227 0.11443 0.0
C220 C 0.88227 0.6336 0.10999 0.0
O221 O 0.86702 0.73153 0.13796 0.0
O222 O 0.80625 0.69653 0.13215 0.0
C223 C 0.74311 0.75118 0.10949 0.0
N224 N 0.75662 0.71936 0.09651 0.0
C225 C 0.70752 0.73939 0.06895 0.0
C226 C 0.69289 0.7722 0.08207 0.0
C227 C 0.71081 0.77814 0.10242 0.0
C228 C 0.73961 0.71339 0.0769 0.0
H229 H 0.75696 0.75605 0.12508 0.0
C230 C 0.83237 0.71611 0.14441 0.0
O231 O 0.94514 0.75579 0.11928 0.0
O232 O 0.891 0.79263 0.1067 0.0
N233 N 0.78866 0.65921 0.07322 0.0
C234 C 0.80707 0.62681 0.06232 0.0
C235 C 0.79321 0.61714 0.04155 0.0
C236 C 0.7604 0.64065 0.03226 0.0
C237 C 0.74146 0.67337 0.04392 0.0
C238 C 0.75634 0.68131 0.06464 0.0
H239 H 0.83242 0.60874 0.06934 0.0
O240 O 0.90482 0.72695 0.07761 0.0
O241 O 0.84176 0.71893 0.09176 0.0
O242 O 0.90461 0.66706 0.1116 0.0
O243 O 0.84261 0.63402 0.10631 0.0
C244 C 0.70885 0.69885 0.03568 0.0
C245 C 0.69193 0.73187 0.04817 0.0
H246 H 0.66814 0.7932 0.07664 0.0
H247 H 0.69984 0.80351 0.1126 0.0
H248 H 0.80795 0.59179 0.03267 0.0
H249 H 0.75009 0.63338 0.01615 0.0
H250 H 0.69682 0.69358 0.01968 0.0
H251 H 0.66714 0.7515 0.04159 0.0
Mn252 Mn 0.25031 0.40276 0.3638 0.0
Mn253 Mn 0.29666 0.31259 0.3471 0.0
C254 C 0.24638 0.38271 0.32856 0.0
C255 C 0.191 0.43736 0.37691 0.0
C256 C 0.34519 0.39293 0.35766 0.0
O257 O 0.2601 0.3706 0.3913 0.0
O258 O 0.28634 0.30942 0.37823 0.0
C259 C 0.22642 0.2529 0.35432 0.0
N260 N 0.25449 0.27104 0.34087 0.0
C261 C 0.22804 0.23011 0.31117 0.0
C262 C 0.199 0.21084 0.32475 0.0
C263 C 0.19815 0.22235 0.3464 0.0
C264 C 0.25554 0.26024 0.31999 0.0
H265 H 0.22554 0.26177 0.37096 0.0
C266 C 0.27336 0.33273 0.39364 0.0
O267 O 0.22839 0.45364 0.37922 0.0
O268 O 0.18859 0.40052 0.36785 0.0
N269 N 0.30753 0.31172 0.31711 0.0
C270 C 0.33597 0.33481 0.30593 0.0
C271 C 0.34006 0.32787 0.28392 0.0
C272 C 0.31504 0.29716 0.27364 0.0
C273 C 0.28622 0.27356 0.28549 0.0
C274 C 0.28376 0.28164 0.30743 0.0
H275 H 0.35528 0.35847 0.31373 0.0
O276 O 0.2408 0.42203 0.33384 0.0
O277 O 0.25442 0.35687 0.34401 0.0
O278 O 0.31332 0.41606 0.36188 0.0
O279 O 0.34233 0.35382 0.35255 0.0
C280 C 0.25933 0.24287 0.27634 0.0
C281 C 0.2302 0.22122 0.28917 0.0
H282 H 0.17699 0.18743 0.31868 0.0
H283 H 0.17569 0.20776 0.35695 0.0
H284 H 0.36233 0.34626 0.27487 0.0
H285 H 0.31799 0.29218 0.25662 0.0
H286 H 0.26036 0.23611 0.2594 0.0
H287 H 0.20927 0.19814 0.28189 0.0
C288 C 0.2094 0.20038 0.06186 0.0
C289 C 0.16683 0.20174 0.06776 0.0
C290 C 0.22059 0.19893 0.04045 0.0
C291 C 0.18938 0.19794 0.02441 0.0
C292 C 0.14688 0.2007 0.03027 0.0
C293 C 0.13566 0.2026 0.05174 0.0
C294 C 0.19999 0.19347 0.00153 0.0
C295 C 0.23581 0.17502 -0.00513 0.0
C296 C 0.24513 0.16619 0.97218 0.0
C297 C 0.27348 0.13349 0.96739 0.0
C298 C 0.28207 0.12287 0.94628 0.0
C299 C 0.26344 0.14566 0.92964 0.0
H300 H 0.20519 0.21508 0.95839 0.0
C301 C 0.23516 0.17838 0.93426 0.0
C302 C 0.22638 0.18898 0.95539 0.0
H303 H 0.21957 0.19545 0.92152 0.0
H304 H 0.23427 0.20069 0.07378 0.0
H305 H 0.25375 0.19878 0.03664 0.0
H306 H 0.12224 0.2005 0.01822 0.0
H307 H 0.10258 0.20398 0.05577 0.0
H308 H 0.17598 0.20242 0.99001 0.0
H309 H 0.25794 0.16249 0.00649 0.0
H310 H 0.28837 0.11548 0.98001 0.0
H311 H 0.30332 0.0969 0.94293 0.0
C312 C 0.7896 0.71389 0.30522 0.0
C313 C 0.77636 0.67511 0.31374 0.0
C314 C 0.79005 0.72008 0.28318 0.0
C315 C 0.77771 0.68736 0.26912 0.0
C316 C 0.76363 0.64903 0.27768 0.0
C317 C 0.76298 0.64291 0.29969 0.0
C318 C 0.77911 0.69155 0.24551 0.0
C319 C 0.8029 0.72029 0.23537 0.0
C320 C 0.80788 0.72111 0.21182 0.0
C321 C 0.84428 0.73964 0.20345 0.0
C322 C 0.85173 0.73886 0.18157 0.0
C323 C 0.82275 0.71969 0.16744 0.0
H324 H 0.74868 0.6904 0.20333 0.0
C325 C 0.78538 0.70273 0.17571 0.0
C326 C 0.77792 0.70356 0.19765 0.0
H327 H 0.76205 0.6883 0.16529 0.0
H328 H 0.79945 0.73965 0.31558 0.0
H329 H 0.79973 0.75067 0.27738 0.0
H330 H 0.75361 0.62337 0.26729 0.0
H331 H 0.75237 0.61268 0.30565 0.0
H332 H 0.76233 0.66774 0.23625 0.0
H333 H 0.82252 0.74188 0.24457 0.0
H334 H 0.86766 0.75384 0.21394 0.0
H335 H 0.88071 0.7526 0.17581 0.0
C336 C 0.34793 0.2288 0.53832 0.0
C337 C 0.3319 0.24691 0.55696 0.0
C338 C 0.33072 0.23943 0.51854 0.0
C339 C 0.29764 0.26901 0.51714 0.0
C340 C 0.28197 0.28728 0.53589 0.0
C341 C 0.29904 0.27638 0.55567 0.0
C342 C 0.2824 0.28503 0.49634 0.0
C343 C 0.28418 0.26203 0.47826 0.0
C344 C 0.27754 0.27995 0.45667 0.0
C345 C 0.29316 0.2572 0.43918 0.0
C346 C 0.29139 0.27415 0.41874 0.0
C347 C 0.2738 0.31435 0.41526 0.0
H348 H 0.24448 0.33758 0.4659 0.0
C349 C 0.25665 0.33651 0.43262 0.0
C350 C 0.25828 0.31945 0.45309 0.0
H351 H 0.24212 0.3672 0.43045 0.0
H352 H 0.3742 0.20698 0.53906 0.0
H353 H 0.34484 0.22592 0.50443 0.0
H354 H 0.25708 0.31068 0.53521 0.0
H355 H 0.28738 0.29185 0.5699 0.0
H356 H 0.27159 0.31752 0.49607 0.0
H357 H 0.2941 0.2292 0.47911 0.0
H358 H 0.3079 0.22661 0.44139 0.0
H359 H 0.30453 0.25589 0.40573 0.0
C360 C 0.72521 0.82261 0.80473 0.0
C361 C 0.75418 0.85601 0.80556 0.0
C362 C 0.71224 0.80588 0.78516 0.0
C363 C 0.72759 0.82295 0.76609 0.0
C364 C 0.75649 0.85655 0.76703 0.0
C365 C 0.76915 0.87349 0.78664 0.0
C366 C 0.71405 0.80688 0.74497 0.0
C367 C 0.67587 0.78967 0.74126 0.0
C368 C 0.66105 0.77758 0.71964 0.0
C369 C 0.62963 0.74654 0.71732 0.0
C370 C 0.6153 0.73446 0.69705 0.0
C371 C 0.63277 0.75294 0.67893 0.0
H372 H 0.69909 0.82323 0.70242 0.0
C373 C 0.66253 0.78533 0.68121 0.0
C374 C 0.67655 0.79765 0.70135 0.0
H375 H 0.67498 0.80119 0.66735 0.0
H376 H 0.71258 0.80948 0.81926 0.0
H377 H 0.69075 0.77932 0.7851 0.0
H378 H 0.76873 0.8702 0.75255 0.0
H379 H 0.79097 0.89983 0.78707 0.0
H380 H 0.73575 0.81149 0.73191 0.0
H381 H 0.65427 0.7847 0.75432 0.0
H382 H 0.61655 0.73128 0.73119 0.0
H383 H 0.59138 0.71019 0.69549 0.0
C384 C 0.24439 0.38161 0.28886 0.0
C385 C 0.22934 0.36702 0.30838 0.0
C386 C 0.22809 0.3649 0.26985 0.0
C387 C 0.19598 0.33416 0.27033 0.0
C388 C 0.17935 0.32184 0.28993 0.0
C389 C 0.19601 0.33803 0.30882 0.0
C390 C 0.17876 0.31424 0.25085 0.0
C391 C 0.20171 0.30762 0.23329 0.0
C392 C 0.1836 0.2869 0.2142 0.0
C393 C 0.19652 0.30032 0.19406 0.0
C394 C 0.17821 0.28301 0.17574 0.0
C395 C 0.14771 0.25117 0.17735 0.0
H396 H 0.14341 0.2428 0.23109 0.0
C397 C 0.13488 0.23738 0.1974 0.0
C398 C 0.15314 0.25469 0.21576 0.0
H399 H 0.11099 0.21311 0.19884 0.0
H400 H 0.26936 0.40492 0.28837 0.0
H401 H 0.24052 0.37615 0.25491 0.0
H402 H 0.15423 0.2987 0.29066 0.0
H403 H 0.18319 0.32747 0.32383 0.0
H404 H 0.14638 0.30318 0.2514 0.0
H405 H 0.23403 0.31876 0.23251 0.0
H406 H 0.21997 0.32498 0.19251 0.0
H407 H 0.18752 0.29484 0.16031 0.0
C408 C 0.6665 0.74512 0.55325 0.0
C409 C 0.68878 0.72641 0.57019 0.0
C410 C 0.6829 0.74469 0.53265 0.0
C411 C 0.7219 0.72514 0.52851 0.0
C412 C 0.74489 0.70819 0.54564 0.0
C413 C 0.72858 0.70874 0.56621 0.0
C414 C 0.73885 0.71925 0.50666 0.0
C415 C 0.71562 0.72303 0.48872 0.0
C416 C 0.73016 0.70771 0.46764 0.0
C417 C 0.7583 0.67345 0.46578 0.0
C418 C 0.76704 0.65594 0.44585 0.0
C419 C 0.74851 0.67273 0.42744 0.0
H420 H 0.68925 0.75014 0.45012 0.0
C421 C 0.72061 0.7069 0.42915 0.0
C422 C 0.7116 0.72433 0.44911 0.0
H423 H 0.70477 0.71919 0.41514 0.0
H424 H 0.63609 0.75973 0.5558 0.0
H425 H 0.66456 0.75944 0.52017 0.0
H426 H 0.77512 0.69321 0.54302 0.0
H427 H 0.74692 0.69444 0.57889 0.0
H428 H 0.77108 0.70802 0.50548 0.0
H429 H 0.68383 0.73538 0.48931 0.0
H430 H 0.77197 0.65856 0.47968 0.0
H431 H 0.78762 0.62868 0.44483 0.0
C432 C 0.3468 0.23424 0.68486 0.0
C433 C 0.3186 0.21681 0.66978 0.0
C434 C 0.33922 0.2303 0.70668 0.0
C435 C 0.30321 0.20888 0.71384 0.0
C436 C 0.27478 0.19219 0.69878 0.0
C437 C 0.28217 0.19631 0.67703 0.0
C438 C 0.29562 0.20031 0.73668 0.0
C439 C 0.31079 0.22432 0.75282 0.0
C440 C 0.30473 0.21354 0.77564 0.0
C441 C 0.33249 0.23059 0.79098 0.0
C442 C 0.32941 0.21913 0.81241 0.0
C443 C 0.29854 0.19017 0.81887 0.0
H444 H 0.24897 0.17396 0.77145 0.0
C445 C 0.26973 0.17444 0.8037 0.0
C446 C 0.27244 0.1863 0.7824 0.0
H447 H 0.2449 0.15289 0.80827 0.0
H448 H 0.37522 0.25015 0.67984 0.0
H449 H 0.36244 0.24268 0.71779 0.0
H450 H 0.2469 0.17537 0.70387 0.0
H451 H 0.25968 0.1825 0.66594 0.0
H452 H 0.27697 0.17246 0.74006 0.0
H453 H 0.32961 0.25206 0.74932 0.0
H454 H 0.35729 0.25208 0.78631 0.0
H455 H 0.3519 0.23202 0.82378 0.0
C456 C 0.81713 0.75268 0.0484 0.0
C457 C 0.84748 0.7219 0.05316 0.0
C458 C 0.80492 0.7598 0.0273 0.0
C459 C 0.82357 0.73669 0.01063 0.0
C460 C 0.85282 0.70487 0.01556 0.0
C461 C 0.86528 0.69805 0.03665 0.0
C462 C 0.81514 0.7465 0.98795 0.0
C463 C 0.80805 0.78625 0.98119 0.0
C464 C 0.80531 0.79839 0.95839 0.0
C465 C 0.787 0.83742 0.95316 0.0
C466 C 0.78539 0.85105 0.93204 0.0
C467 C 0.80238 0.826 0.91564 0.0
H468 H 0.83837 0.74387 0.9453 0.0
C469 C 0.82099 0.78704 0.92089 0.0
C470 C 0.82262 0.77344 0.942 0.0
H471 H 0.83459 0.76697 0.9087 0.0
H472 H 0.80383 0.7721 0.06093 0.0
H473 H 0.78143 0.78379 0.02411 0.0
H474 H 0.86749 0.68657 0.00299 0.0
H475 H 0.8893 0.67466 0.04005 0.0
H476 H 0.81826 0.72076 0.97657 0.0
H477 H 0.8054 0.81167 -0.00718 0.0
H478 H 0.77386 0.85751 0.96548 0.0
H479 H 0.7708 0.88124 0.92862 0.0
C480 C 0.10868 0.0564 0.1249 0.0
C481 C 0.08858 0.09171 0.13391 0.0
C482 C 0.08994 0.01649 0.12581 0.0
C483 C 0.05131 0.01112 0.1362 0.0
C484 C 0.03197 0.04608 0.14587 0.0
C485 C 0.0501 0.08623 0.14444 0.0
C486 C 0.03031 0.96944 0.13667 0.0
C487 C 0.02594 0.94597 0.11889 0.0
C488 C 0.00096 0.90663 0.11842 0.0
C489 C 0.97125 0.90061 0.10206 0.0
C490 C 0.94715 0.86376 0.10119 0.0
C491 C 0.95349 0.83162 0.11621 0.0
H492 H 0.03018 0.8787 0.14632 0.0
C493 C 0.98382 0.8372 0.13239 0.0
C494 C 0.007 0.87481 0.13369 0.0
H495 H 0.98924 0.81275 0.14412 0.0
H496 H 0.13843 0.05982 0.11676 0.0
H497 H 0.10567 0.9898 0.11846 0.0
H498 H 0.00224 0.0425 0.15402 0.0
H499 H 0.03424 0.11293 0.15172 0.0
H500 H 0.01467 0.95987 0.15122 0.0
H501 H 0.03745 0.95802 0.10382 0.0
H502 H 0.96631 0.92473 0.0901 0.0
H503 H 0.9242 0.85997 0.08844 0.0
C504 C 0.11273 0.44206 0.3788 0.0
C505 C 0.15225 0.46103 0.3822 0.0
C506 C 0.07574 0.46551 0.38084 0.0
C507 C 0.0773 0.50861 0.38657 0.0
C508 C 0.11682 0.52719 0.39066 0.0
C509 C 0.15394 0.50364 0.38858 0.0
C510 C 0.03899 0.53588 0.38667 0.0
C511 C -0.00066 0.52066 0.38791 0.0
C512 C 0.96051 0.54687 0.38573 0.0
C513 C 0.92203 0.52617 0.38181 0.0
C514 C 0.88468 0.54909 0.37935 0.0
C515 C 0.88483 0.59346 0.38082 0.0
H516 H 0.98909 0.60877 0.39096 0.0
C517 C 0.92328 0.61425 0.38491 0.0
C518 C 0.96062 0.59131 0.38742 0.0
H519 H 0.9246 0.64836 0.38642 0.0
H520 H 0.1103 0.40932 0.37373 0.0
H521 H 0.04637 0.44992 0.37692 0.0
H522 H 0.11909 0.56034 0.39499 0.0
H523 H 0.18393 0.51923 0.39121 0.0
H524 H 0.04419 0.56956 0.38499 0.0
H525 H 0.99455 0.48698 0.38999 0.0
H526 H 0.92081 0.492 0.3805 0.0
H527 H 0.85571 0.53192 0.37632 0.0
C528 C 0.48008 0.35188 0.62656 0.0
C529 C 0.43622 0.34857 0.62398 0.0
C530 C 0.49933 0.39165 0.62824 0.0
C531 C 0.47497 0.42888 0.62736 0.0
C532 C 0.43103 0.4253 0.62568 0.0
C533 C 0.41188 0.38569 0.62388 0.0
C534 C 0.4938 0.47198 0.62819 0.0
C535 C 0.53349 0.48065 0.62216 0.0
C536 C 0.55169 0.52403 0.62238 0.0
C537 C 0.59548 0.52855 0.62433 0.0
C538 C 0.61398 0.56862 0.6248 0.0
C539 C 0.58912 0.60532 0.62302 0.0
H540 H 0.49303 0.55848 0.61782 0.0
C541 C 0.54531 0.6008 0.62045 0.0
C542 C 0.52677 0.56062 0.62012 0.0
H543 H 0.52521 0.6283 0.61891 0.0
H544 H 0.49963 0.32382 0.62683 0.0
H545 H 0.53316 0.39291 0.63028 0.0
H546 H 0.41143 0.45334 0.62523 0.0
H547 H 0.37796 0.38425 0.62205 0.0
H548 H 0.47345 0.4976 0.63334 0.0
H549 H 0.55401 0.45513 0.61708 0.0
H550 H 0.6155 0.50095 0.62584 0.0
H551 H 0.64785 0.57073 0.62669 0.0
C552 C 0.63084 0.93809 0.87535 0.0
C553 C 0.67021 0.95741 0.8785 0.0
C554 C 0.59377 0.9612 0.87787 0.0
C555 C 0.59525 0.0042 0.88386 0.0
C556 C 0.63468 0.02305 0.88767 0.0
C557 C 0.6718 0.99992 0.88508 0.0
C558 C 0.55692 0.0312 0.88462 0.0
C559 C 0.51748 0.01571 0.8858 0.0
C560 C 0.47905 0.04227 0.88413 0.0
C561 C 0.44145 0.02301 0.87732 0.0
C562 C 0.40445 0.0465 0.87537 0.0
C563 C 0.40408 0.0899 0.88038 0.0
H564 H 0.50672 0.10153 0.89518 0.0
C565 C 0.4417 0.10922 0.88734 0.0
C566 C 0.47877 0.08567 0.88927 0.0
H567 H 0.44247 0.14245 0.89162 0.0
H568 H 0.62859 0.90545 0.87012 0.0
H569 H 0.56442 0.94542 0.87415 0.0
H570 H 0.63684 0.05611 0.89221 0.0
H571 H 0.70171 0.01572 0.88758 0.0
H572 H 0.56173 0.06506 0.8834 0.0
H573 H 0.51253 0.98191 0.88711 0.0
H574 H 0.44069 0.98961 0.87334 0.0
H575 H 0.37608 0.03042 0.87007 0.0
C576 C 0.88208 0.55431 0.10695 0.0
C577 C 0.90383 0.59212 0.11151 0.0
C578 C 0.90311 0.51544 0.10723 0.0
C579 C 0.94644 0.51359 0.11205 0.0
C580 C 0.96779 0.55124 0.11715 0.0
C581 C 0.94687 0.59003 0.11679 0.0
C582 C 0.97068 0.4734 0.11237 0.0
C583 C 0.95851 0.43732 0.10253 0.0
C584 C 0.98457 0.39834 0.10314 0.0
C585 C 0.96484 0.35859 0.10271 0.0
C586 C 0.98861 0.32155 0.10492 0.0
C587 C 0.03258 0.32375 0.10739 0.0
H588 H 0.04529 0.43015 0.10373 0.0
C589 C 0.05246 0.36338 0.10653 0.0
C590 C 0.02878 0.40024 0.10433 0.0
H591 H 0.08636 0.3661 0.10805 0.0
H592 H 0.84885 0.55467 0.10292 0.0
H593 H 0.88508 0.48715 0.10384 0.0
H594 H 0.00106 0.55077 0.12113 0.0
H595 H 0.96465 0.61841 0.12051 0.0
H596 H 0.00054 0.47404 0.12094 0.0
H597 H 0.92841 0.43554 0.09427 0.0
H598 H 0.93086 0.35626 0.10145 0.0
H599 H 0.97243 0.29142 0.10541 0.0
C600 C 0.39299 0.45585 0.36209 0.0
C601 C 0.38779 0.41226 0.35834 0.0
C602 C 0.43318 0.47397 0.36239 0.0
C603 C 0.46913 0.44888 0.35886 0.0
C604 C 0.46397 0.4053 0.35547 0.0
C605 C 0.42383 0.38721 0.35506 0.0
C606 C 0.51249 0.46663 0.35945 0.0
C607 C 0.52129 0.50721 0.35477 0.0
C608 C 0.56416 0.526 0.35639 0.0
C609 C 0.56762 0.56999 0.35891 0.0
C610 C 0.60697 0.58912 0.36142 0.0
C611 C 0.64394 0.56471 0.36125 0.0
H612 H 0.60019 0.46782 0.35285 0.0
C613 C 0.64077 0.52085 0.35795 0.0
C614 C 0.60128 0.50162 0.35551 0.0
H615 H 0.66874 0.50126 0.35756 0.0
H616 H 0.36603 0.47609 0.36483 0.0
H617 H 0.43585 0.50744 0.3658 0.0
H618 H 0.4911 0.38516 0.35294 0.0
H619 H 0.42116 0.3535 0.35221 0.0
H620 H 0.53773 0.44518 0.36383 0.0
H621 H 0.49583 0.52832 0.35023 0.0
H622 H 0.53967 0.58962 0.35942 0.0
H623 H 0.60831 0.62305 0.3638 0.0
C624 C 0.43893 0.09867 0.59628 0.0
C625 C 0.40326 0.10624 0.60882 0.0
C626 C 0.45914 0.05931 0.59694 0.0
C627 C 0.4446 0.02753 0.61062 0.0
C628 C 0.40943 0.03547 0.62339 0.0
C629 C 0.38842 0.07418 0.6222 0.0
C630 C 0.46731 0.987 0.61294 0.0
C631 C 0.48032 0.96385 0.59619 0.0
C632 C 0.50345 0.92364 0.5993 0.0
C633 C 0.49303 0.88762 0.58714 0.0
C634 C 0.51376 0.84911 0.59077 0.0
C635 C 0.5461 0.84658 0.60613 0.0
H636 H 0.54526 0.94861 0.62377 0.0
C637 C 0.55737 0.88311 0.6177 0.0
C638 C 0.53607 0.9211 0.61446 0.0
H639 H 0.58215 0.88219 0.62967 0.0
H640 H 0.45076 0.12294 0.58579 0.0
H641 H 0.4867 0.0541 0.58721 0.0
H642 H 0.39801 0.01152 0.63419 0.0
H643 H 0.36103 0.07941 0.63206 0.0
H644 H 0.4716 0.97481 0.62898 0.0
H645 H 0.47223 0.97353 0.58007 0.0
H646 H 0.46814 0.88903 0.57525 0.0
H647 H 0.5046 0.82147 0.58156 0.0
C648 C 0.94092 0.90282 0.84418 0.0
C649 C 0.90334 0.9226 0.85051 0.0
C650 C 0.97794 0.92629 0.84197 0.0
C651 C 0.97819 0.9701 0.84618 0.0
C652 C 0.94052 0.98984 0.85219 0.0
C653 C 0.9036 0.96644 0.85441 0.0
C654 C 0.01671 0.99655 0.84466 0.0
C655 C 0.05615 0.98111 0.84623 0.0
C656 C 0.09428 0.00833 0.84753 0.0
C657 C 0.13368 0.99034 0.84307 0.0
C658 C 0.17069 0.01359 0.84619 0.0
C659 C 0.16901 0.05526 0.85401 0.0
H660 H 0.06323 0.06543 0.85907 0.0
C661 C 0.1296 0.07375 0.85788 0.0
C662 C 0.09264 0.05055 0.85479 0.0
H663 H 0.12728 0.10572 0.86406 0.0
H664 H 0.94175 0.86922 0.84074 0.0
H665 H 0.00591 0.90997 0.83667 0.0
H666 H 0.9397 0.02353 0.85544 0.0
H667 H 0.87525 0.98288 0.85919 0.0
H668 H 0.01194 0.03039 0.84325 0.0
H669 H 0.06115 0.94727 0.8474 0.0
H670 H 0.13592 0.95786 0.83759 0.0
H671 H 0.20063 0.99843 0.8431 0.0
loop_
_geom_bond_atom_site_label_1
_geom_bond_atom_site_label_2
_geom_bond_distance
_geom_bond_site_symmetry_2
_ccdc_geom_bond_type
Mn0 O5 2.095 . S
Mn0 O15 2.162 . S
Mn0 O16 2.297 . S
Mn0 O24 2.385 . S
Mn0 O25 2.209 . S
Mn0 O26 2.094 . S
Mn1 O6 2.121 . S
Mn1 N8 2.257 . S
Mn1 N17 2.282 . S
Mn1 O25 2.215 . S
Mn1 O27 2.117 . S
C2 O24 1.234 . S
C2 O25 1.283 . S
C3 O15 1.281 . S
C3 O16 1.236 . S
C4 O26 1.240 . S
C4 O27 1.264 . S
O5 Mn0 2.095 . S
O5 C14 1.250 . S
O6 Mn1 2.121 . S
O6 C14 1.258 . S
C7 N8 1.326 . S
C7 C11 1.460 . S
C7 H13 0.929 . S
N8 Mn1 2.257 . S
N8 C7 1.326 . S
N8 C12 1.362 . S
C9 C10 1.258 . S
C9 C12 1.431 . S
C9 C29 1.449 . S
C10 C9 1.258 . S
C10 C11 1.477 . S
C10 H30 0.931 . S
C11 C7 1.460 . S
C11 C10 1.477 . S
C11 H31 0.930 . S
C12 N8 1.362 . S
C12 C9 1.431 . S
C12 C22 1.476 . S
H13 C7 0.929 . S
C14 O5 1.250 . S
C14 O6 1.258 . S
O15 Mn0 2.162 . S
O15 C3 1.281 . S
O16 Mn0 2.297 . S
O16 C3 1.236 . S
N17 Mn1 2.282 . S
N17 C18 1.328 . S
N17 C22 1.318 . S
C18 N17 1.328 . S
C18 C19 1.457 . S
C18 H23 0.929 . S
C19 C18 1.457 . S
C19 C20 1.291 . S
C19 H32 0.931 . S
C20 C19 1.291 . S
C20 C21 1.373 . S
C20 H33 0.929 . S
C21 C20 1.373 . S
C21 C22 1.396 . S
C21 C28 1.403 . S
C22 C12 1.476 . S
C22 N17 1.318 . S
C22 C21 1.396 . S
H23 C18 0.929 . S
O24 Mn0 2.385 . S
O24 C2 1.234 . S
O25 Mn0 2.209 . S
O25 Mn1 2.215 . S
O25 C2 1.283 . S
O26 Mn0 2.094 . S
O26 C4 1.240 . S
O27 Mn1 2.117 . S
O27 C4 1.264 . S
C28 C21 1.403 . S
C28 C29 1.399 . S
C28 H34 0.929 . S
C29 C9 1.449 . S
C29 C28 1.399 . S
C29 H35 0.930 . S
H30 C10 0.931 . S
H31 C11 0.930 . S
H32 C19 0.931 . S
H33 C20 0.929 . S
H34 C28 0.929 . S
H35 C29 0.930 . S
Mn36 O41 2.095 . S
Mn36 O51 2.162 . S
Mn36 O52 2.297 . S
Mn36 O60 2.385 . S
Mn36 O61 2.209 . S
Mn36 O62 2.094 . S
Mn37 O42 2.121 . S
Mn37 N44 2.257 . S
Mn37 N53 2.282 . S
Mn37 O61 2.215 . S
Mn37 O63 2.117 . S
C38 O60 1.234 . S
C38 O61 1.283 . S
C39 O51 1.281 . S
C39 O52 1.236 . S
C40 O62 1.240 . S
C40 O63 1.264 . S
O41 Mn36 2.095 . S
O41 C50 1.250 . S
O42 Mn37 2.121 . S
O42 C50 1.258 . S
C43 N44 1.326 . S
C43 C47 1.460 . S
C43 H49 0.929 . S
N44 Mn37 2.257 . S
N44 C43 1.326 . S
N44 C48 1.362 . S
C45 C46 1.258 . S
C45 C48 1.431 . S
C45 C65 1.449 . S
C46 C45 1.258 . S
C46 C47 1.477 . S
C46 H66 0.931 . S
C47 C43 1.460 . S
C47 C46 1.477 . S
C47 H67 0.930 . S
C48 N44 1.362 . S
C48 C45 1.431 . S
C48 C58 1.476 . S
H49 C43 0.929 . S
C50 O41 1.250 . S
C50 O42 1.258 . S
O51 Mn36 2.162 . S
O51 C39 1.281 . S
O52 Mn36 2.297 . S
O52 C39 1.236 . S
N53 Mn37 2.282 . S
N53 C54 1.328 . S
N53 C58 1.318 . S
C54 N53 1.328 . S
C54 C55 1.457 . S
C54 H59 0.929 . S
C55 C54 1.457 . S
C55 C56 1.291 . S
C55 H68 0.931 . S
C56 C55 1.291 . S
C56 C57 1.373 . S
C56 H69 0.929 . S
C57 C56 1.373 . S
C57 C58 1.396 . S
C57 C64 1.403 . S
C58 C48 1.476 . S
C58 N53 1.318 . S
C58 C57 1.396 . S
H59 C54 0.929 . S
O60 Mn36 2.385 . S
O60 C38 1.234 . S
O61 Mn36 2.209 . S
O61 Mn37 2.215 . S
O61 C38 1.283 . S
O62 Mn36 2.094 . S
O62 C40 1.240 . S
O63 Mn37 2.117 . S
O63 C40 1.264 . S
C64 C57 1.403 . S
C64 C65 1.399 . S
C64 H70 0.929 . S
C65 C45 1.449 . S
C65 C64 1.399 . S
C65 H71 0.930 . S
H66 C46 0.931 . S
H67 C47 0.930 . S
H68 C55 0.931 . S
H69 C56 0.929 . S
H70 C64 0.929 . S
H71 C65 0.930 . S
Mn72 O77 2.095 . S
Mn72 O87 2.162 . S
Mn72 O88 2.297 . S
Mn72 O96 2.385 . S
Mn72 O97 2.209 . S
Mn72 O98 2.094 . S
Mn73 O78 2.121 . S
Mn73 N80 2.257 . S
Mn73 N89 2.282 . S
Mn73 O97 2.215 . S
Mn73 O99 2.117 . S
C74 O96 1.234 . S
C74 O97 1.283 . S
C75 O87 1.281 . S
C75 O88 1.236 . S
C76 O98 1.240 . S
C76 O99 1.264 . S
O77 Mn72 2.095 . S
O77 C86 1.250 . S
O78 Mn73 2.121 . S
O78 C86 1.258 . S
C79 N80 1.326 . S
C79 C83 1.460 . S
C79 H85 0.929 . S
N80 Mn73 2.257 . S
N80 C79 1.326 . S
N80 C84 1.362 . S
C81 C82 1.258 . S
C81 C84 1.431 . S
C81 C101 1.449 . S
C82 C81 1.258 . S
C82 C83 1.477 . S
C82 H102 0.931 . S
C83 C79 1.460 . S
C83 C82 1.477 . S
C83 H103 0.930 . S
C84 N80 1.362 . S
C84 C81 1.431 . S
C84 C94 1.476 . S
H85 C79 0.929 . S
C86 O77 1.250 . S
C86 O78 1.258 . S
O87 Mn72 2.162 . S
O87 C75 1.281 . S
O88 Mn72 2.297 . S
O88 C75 1.236 . S
N89 Mn73 2.282 . S
N89 C90 1.328 . S
N89 C94 1.318 . S
C90 N89 1.328 . S
C90 C91 1.457 . S
C90 H95 0.929 . S
C91 C90 1.457 . S
C91 C92 1.291 . S
C91 H104 0.931 . S
C92 C91 1.291 . S
C92 C93 1.373 . S
C92 H105 0.929 . S
C93 C92 1.373 . S
C93 C94 1.396 . S
C93 C100 1.403 . S
C94 C84 1.476 . S
C94 N89 1.318 . S
C94 C93 1.396 . S
H95 C90 0.929 . S
O96 Mn72 2.385 . S
O96 C74 1.234 . S
O97 Mn72 2.209 . S
O97 Mn73 2.215 . S
O97 C74 1.283 . S
O98 Mn72 2.094 . S
O98 C76 1.240 . S
O99 Mn73 2.117 . S
O99 C76 1.264 . S
C100 C93 1.403 . S
C100 C101 1.399 . S
C100 H106 0.929 . S
C101 C81 1.449 . S
C101 C100 1.399 . S
C101 H107 0.930 . S
H102 C82 0.931 . S
H103 C83 0.930 . S
H104 C91 0.931 . S
H105 C92 0.929 . S
H106 C100 0.929 . S
H107 C101 0.930 . S
Mn108 O113 2.095 . S
Mn108 O123 2.162 . S
Mn108 O124 2.297 . S
Mn108 O132 2.385 . S
Mn108 O133 2.209 . S
Mn108 O134 2.094 . S
Mn109 O114 2.121 . S
Mn109 N116 2.257 . S
Mn109 N125 2.282 . S
Mn109 O133 2.215 . S
Mn109 O135 2.117 . S
C110 O132 1.234 . S
C110 O133 1.283 . S
C111 O123 1.281 . S
C111 O124 1.236 . S
C112 O134 1.240 . S
C112 O135 1.264 . S
O113 Mn108 2.095 . S
O113 C122 1.250 . S
O114 Mn109 2.121 . S
O114 C122 1.258 . S
C115 N116 1.326 . S
C115 C119 1.460 . S
C115 H121 0.929 . S
N116 Mn109 2.257 . S
N116 C115 1.326 . S
N116 C120 1.362 . S
C117 C118 1.258 . S
C117 C120 1.431 . S
C117 C137 1.449 . S
C118 C117 1.258 . S
C118 C119 1.477 . S
C118 H138 0.931 . S
C119 C115 1.460 . S
C119 C118 1.477 . S
C119 H139 0.930 . S
C120 N116 1.362 . S
C120 C117 1.431 . S
C120 C130 1.476 . S
H121 C115 0.929 . S
C122 O113 1.250 . S
C122 O114 1.258 . S
O123 Mn108 2.162 . S
O123 C111 1.281 . S
O124 Mn108 2.297 . S
O124 C111 1.236 . S
N125 Mn109 2.282 . S
N125 C126 1.328 . S
N125 C130 1.318 . S
C126 N125 1.328 . S
C126 C127 1.457 . S
C126 H131 0.929 . S
C127 C126 1.457 . S
C127 C128 1.291 . S
C127 H140 0.931 . S
C128 C127 1.291 . S
C128 C129 1.373 . S
C128 H141 0.929 . S
C129 C128 1.373 . S
C129 C130 1.396 . S
C129 C136 1.403 . S
C130 C120 1.476 . S
C130 N125 1.318 . S
C130 C129 1.396 . S
H131 C126 0.929 . S
O132 Mn108 2.385 . S
O132 C110 1.234 . S
O133 Mn108 2.209 . S
O133 Mn109 2.215 . S
O133 C110 1.283 . S
O134 Mn108 2.094 . S
O134 C112 1.240 . S
O135 Mn109 2.117 . S
O135 C112 1.264 . S
C136 C129 1.403 . S
C136 C137 1.399 . S
C136 H142 0.929 . S
C137 C117 1.449 . S
C137 C136 1.399 . S
C137 H143 0.930 . S
H138 C118 0.931 . S
H139 C119 0.930 . S
H140 C127 0.931 . S
H141 C128 0.929 . S
H142 C136 0.929 . S
H143 C137 0.930 . S
Mn144 O149 2.095 . S
Mn144 O159 2.162 . S
Mn144 O160 2.297 . S
Mn144 O168 2.385 . S
Mn144 O169 2.209 . S
Mn144 O170 2.094 . S
Mn145 O150 2.121 . S
Mn145 N152 2.257 . S
Mn145 N161 2.282 . S
Mn145 O169 2.215 . S
Mn145 O171 2.117 . S
C146 O168 1.234 . S
C146 O169 1.283 . S
C147 O159 1.281 . S
C147 O160 1.236 . S
C148 O170 1.240 . S
C148 O171 1.264 . S
O149 Mn144 2.095 . S
O149 C158 1.250 . S
O150 Mn145 2.121 . S
O150 C158 1.258 . S
C151 N152 1.326 . S
C151 C155 1.460 . S
C151 H157 0.929 . S
N152 Mn145 2.257 . S
N152 C151 1.326 . S
N152 C156 1.362 . S
C153 C154 1.258 . S
C153 C156 1.431 . S
C153 C173 1.449 . S
C154 C153 1.258 . S
C154 C155 1.477 . S
C154 H174 0.931 . S
C155 C151 1.460 . S
C155 C154 1.477 . S
C155 H175 0.930 . S
C156 N152 1.362 . S
C156 C153 1.431 . S
C156 C166 1.476 . S
H157 C151 0.929 . S
C158 O149 1.250 . S
C158 O150 1.258 . S
O159 Mn144 2.162 . S
O159 C147 1.281 . S
O160 Mn144 2.297 . S
O160 C147 1.236 . S
N161 Mn145 2.282 . S
N161 C162 1.328 . S
N161 C166 1.318 . S
C162 N161 1.328 . S
C162 C163 1.457 . S
C162 H167 0.929 . S
C163 C162 1.457 . S
C163 C164 1.291 . S
C163 H176 0.931 . S
C164 C163 1.291 . S
C164 C165 1.373 . S
C164 H177 0.929 . S
C165 C164 1.373 . S
C165 C166 1.396 . S
C165 C172 1.403 . S
C166 C156 1.476 . S
C166 N161 1.318 . S
C166 C165 1.396 . S
H167 C162 0.929 . S
O168 Mn144 2.385 . S
O168 C146 1.234 . S
O169 Mn144 2.209 . S
O169 Mn145 2.215 . S
O169 C146 1.283 . S
O170 Mn144 2.094 . S
O170 C148 1.240 . S
O171 Mn145 2.117 . S
O171 C148 1.264 . S
C172 C165 1.403 . S
C172 C173 1.399 . S
C172 H178 0.929 . S
C173 C153 1.449 . S
C173 C172 1.399 . S
C173 H179 0.930 . S
H174 C154 0.931 . S
H175 C155 0.930 . S
H176 C163 0.931 . S
H177 C164 0.929 . S
H178 C172 0.929 . S
H179 C173 0.930 . S
Mn180 O185 2.095 . S
Mn180 O195 2.162 . S
Mn180 O196 2.297 . S
Mn180 O204 2.385 . S
Mn180 O205 2.209 . S
Mn180 O206 2.094 . S
Mn181 O186 2.121 . S
Mn181 N188 2.257 . S
Mn181 N197 2.282 . S
Mn181 O205 2.215 . S
Mn181 O207 2.117 . S
C182 O204 1.234 . S
C182 O205 1.283 . S
C183 O195 1.281 . S
C183 O196 1.236 . S
C184 O206 1.240 . S
C184 O207 1.264 . S
O185 Mn180 2.095 . S
O185 C194 1.250 . S
O186 Mn181 2.121 . S
O186 C194 1.258 . S
C187 N188 1.326 . S
C187 C191 1.460 . S
C187 H193 0.929 . S
N188 Mn181 2.257 . S
N188 C187 1.326 . S
N188 C192 1.362 . S
C189 C190 1.258 . S
C189 C192 1.431 . S
C189 C209 1.449 . S
C190 C189 1.258 . S
C190 C191 1.477 . S
C190 H210 0.931 . S
C191 C187 1.460 . S
C191 C190 1.477 . S
C191 H211 0.930 . S
C192 N188 1.362 . S
C192 C189 1.431 . S
C192 C202 1.476 . S
H193 C187 0.929 . S
C194 O185 1.250 . S
C194 O186 1.258 . S
O195 Mn180 2.162 . S
O195 C183 1.281 . S
O196 Mn180 2.297 . S
O196 C183 1.236 . S
N197 Mn181 2.282 . S
N197 C198 1.328 . S
N197 C202 1.318 . S
C198 N197 1.328 . S
C198 C199 1.457 . S
C198 H203 0.929 . S
C199 C198 1.457 . S
C199 C200 1.291 . S
C199 H212 0.931 . S
C200 C199 1.291 . S
C200 C201 1.373 . S
C200 H213 0.929 . S
C201 C200 1.373 . S
C201 C202 1.396 . S
C201 C208 1.403 . S
C202 C192 1.476 . S
C202 N197 1.318 . S
C202 C201 1.396 . S
H203 C198 0.929 . S
O204 Mn180 2.385 . S
O204 C182 1.234 . S
O205 Mn180 2.209 . S
O205 Mn181 2.215 . S
O205 C182 1.283 . S
O206 Mn180 2.094 . S
O206 C184 1.240 . S
O207 Mn181 2.117 . S
O207 C184 1.264 . S
C208 C201 1.403 . S
C208 C209 1.399 . S
C208 H214 0.929 . S
C209 C189 1.449 . S
C209 C208 1.399 . S
C209 H215 0.930 . S
H210 C190 0.931 . S
H211 C191 0.930 . S
H212 C199 0.931 . S
H213 C200 0.929 . S
H214 C208 0.929 . S
H215 C209 0.930 . S
Mn216 O221 2.095 . S
Mn216 O231 2.162 . S
Mn216 O232 2.297 . S
Mn216 O240 2.385 . S
Mn216 O241 2.209 . S
Mn216 O242 2.094 . S
Mn217 O222 2.121 . S
Mn217 N224 2.257 . S
Mn217 N233 2.282 . S
Mn217 O241 2.215 . S
Mn217 O243 2.117 . S
C218 O240 1.234 . S
C218 O241 1.283 . S
C219 O231 1.281 . S
C219 O232 1.236 . S
C220 O242 1.240 . S
C220 O243 1.264 . S
O221 Mn216 2.095 . S
O221 C230 1.250 . S
O222 Mn217 2.121 . S
O222 C230 1.258 . S
C223 N224 1.326 . S
C223 C227 1.460 . S
C223 H229 0.929 . S
N224 Mn217 2.257 . S
N224 C223 1.326 . S
N224 C228 1.362 . S
C225 C226 1.258 . S
C225 C228 1.431 . S
C225 C245 1.449 . S
C226 C225 1.258 . S
C226 C227 1.477 . S
C226 H246 0.931 . S
C227 C223 1.460 . S
C227 C226 1.477 . S
C227 H247 0.930 . S
C228 N224 1.362 . S
C228 C225 1.431 . S
C228 C238 1.476 . S
H229 C223 0.929 . S
C230 O221 1.250 . S
C230 O222 1.258 . S
O231 Mn216 2.162 . S
O231 C219 1.281 . S
O232 Mn216 2.297 . S
O232 C219 1.236 . S
N233 Mn217 2.282 . S
N233 C234 1.328 . S
N233 C238 1.318 . S
C234 N233 1.328 . S
C234 C235 1.457 . S
C234 H239 0.929 . S
C235 C234 1.457 . S
C235 C236 1.291 . S
C235 H248 0.931 . S
C236 C235 1.291 . S
C236 C237 1.373 . S
C236 H249 0.929 . S
C237 C236 1.373 . S
C237 C238 1.396 . S
C237 C244 1.403 . S
C238 C228 1.476 . S
C238 N233 1.318 . S
C238 C237 1.396 . S
H239 C234 0.929 . S
O240 Mn216 2.385 . S
O240 C218 1.234 . S
O241 Mn216 2.209 . S
O241 Mn217 2.215 . S
O241 C218 1.283 . S
O242 Mn216 2.094 . S
O242 C220 1.240 . S
O243 Mn217 2.117 . S
O243 C220 1.264 . S
C244 C237 1.403 . S
C244 C245 1.399 . S
C244 H250 0.929 . S
C245 C225 1.449 . S
C245 C244 1.399 . S
C245 H251 0.930 . S
H246 C226 0.931 . S
H247 C227 0.930 . S
H248 C235 0.931 . S
H249 C236 0.929 . S
H250 C244 0.929 . S
H251 C245 0.930 . S
Mn252 O257 2.095 . S
Mn252 O267 2.162 . S
Mn252 O268 2.297 . S
Mn252 O276 2.385 . S
Mn252 O277 2.209 . S
Mn252 O278 2.094 . S
Mn253 O258 2.121 . S
Mn253 N260 2.257 . S
Mn253 N269 2.282 . S
Mn253 O277 2.215 . S
Mn253 O279 2.117 . S
C254 O276 1.234 . S
C254 O277 1.283 . S
C255 O267 1.281 . S
C255 O268 1.236 . S
C256 O278 1.240 . S
C256 O279 1.264 . S
O257 Mn252 2.095 . S
O257 C266 1.250 . S
O258 Mn253 2.121 . S
O258 C266 1.258 . S
C259 N260 1.326 . S
C259 C263 1.460 . S
C259 H265 0.929 . S
N260 Mn253 2.257 . S
N260 C259 1.326 . S
N260 C264 1.362 . S
C261 C262 1.258 . S
C261 C264 1.431 . S
C261 C281 1.449 . S
C262 C261 1.258 . S
C262 C263 1.477 . S
C262 H282 0.931 . S
C263 C259 1.460 . S
C263 C262 1.477 . S
C263 H283 0.930 . S
C264 N260 1.362 . S
C264 C261 1.431 . S
C264 C274 1.476 . S
H265 C259 0.929 . S
C266 O257 1.250 . S
C266 O258 1.258 . S
O267 Mn252 2.162 . S
O267 C255 1.281 . S
O268 Mn252 2.297 . S
O268 C255 1.236 . S
N269 Mn253 2.282 . S
N269 C270 1.328 . S
N269 C274 1.318 . S
C270 N269 1.328 . S
C270 C271 1.457 . S
C270 H275 0.929 . S
C271 C270 1.457 . S
C271 C272 1.291 . S
C271 H284 0.931 . S
C272 C271 1.291 . S
C272 C273 1.373 . S
C272 H285 0.929 . S
C273 C272 1.373 . S
C273 C274 1.396 . S
C273 C280 1.403 . S
C274 C264 1.476 . S
C274 N269 1.318 . S
C274 C273 1.396 . S
H275 C270 0.929 . S
O276 Mn252 2.385 . S
O276 C254 1.234 . S
O277 Mn252 2.209 . S
O277 Mn253 2.215 . S
O277 C254 1.283 . S
O278 Mn252 2.094 . S
O278 C256 1.240 . S
O279 Mn253 2.117 . S
O279 C256 1.264 . S
C280 C273 1.403 . S
C280 C281 1.399 . S
C280 H286 0.929 . S
C281 C261 1.449 . S
C281 C280 1.399 . S
C281 H287 0.930 . S
H282 C262 0.931 . S
H283 C263 0.930 . S
H284 C271 0.931 . S
H285 C272 0.929 . S
H286 C280 0.929 . S
H287 C281 0.930 . S
C288 C289 1.386 . S
C288 C290 1.383 . S
C288 H304 0.951 . S
C289 C288 1.386 . S
C289 C293 1.383 . S
C290 C288 1.383 . S
C290 C291 1.402 . S
C290 H305 0.951 . S
C291 C290 1.402 . S
C291 C292 1.375 . S
C291 C294 1.481 . S
C292 C291 1.375 . S
C292 C293 1.367 . S
C292 H306 0.951 . S
C293 C289 1.383 . S
C293 C292 1.367 . S
C293 H307 0.950 . S
C294 C291 1.481 . S
C294 C295 1.297 1_554 S
C294 H308 0.950 1_554 S
C295 C294 1.297 1_556 S
C295 C296 1.479 . S
C295 H309 0.950 . S
C296 C295 1.479 . S
C296 C297 1.375 . S
C296 C302 1.404 . S
C297 C296 1.375 . S
C297 C298 1.369 . S
C297 H310 0.950 . S
C298 C297 1.369 . S
C298 C299 1.392 . S
C298 H311 0.951 . S
C299 C298 1.392 . S
C299 C301 1.384 . S
H300 C302 0.949 . S
C301 C299 1.384 . S
C301 C302 1.385 . S
C301 H303 0.950 . S
C302 C296 1.404 . S
C302 H300 0.949 . S
C302 C301 1.385 . S
H303 C301 0.950 . S
H304 C288 0.951 . S
H305 C290 0.951 . S
H306 C292 0.951 . S
H307 C293 0.950 . S
H308 C294 0.950 1_556 S
H309 C295 0.950 . S
H310 C297 0.950 . S
H311 C298 0.951 . S
C312 C313 1.386 . S
C312 C314 1.383 . S
C312 H328 0.951 . S
C313 C312 1.386 . S
C313 C317 1.383 . S
C314 C312 1.383 . S
C314 C315 1.402 . S
C314 H329 0.951 . S
C315 C314 1.402 . S
C315 C316 1.375 . S
C315 C318 1.481 . S
C316 C315 1.375 . S
C316 C317 1.367 . S
C316 H330 0.951 . S
C317 C313 1.383 . S
C317 C316 1.367 . S
C317 H331 0.950 . S
C318 C315 1.481 . S
C318 C319 1.297 . S
C318 H332 0.950 . S
C319 C318 1.297 . S
C319 C320 1.479 . S
C319 H333 0.950 . S
C320 C319 1.479 . S
C320 C321 1.375 . S
C320 C326 1.404 . S
C321 C320 1.375 . S
C321 C322 1.369 . S
C321 H334 0.950 . S
C322 C321 1.369 . S
C322 C323 1.392 . S
C322 H335 0.951 . S
C323 C322 1.392 . S
C323 C325 1.384 . S
H324 C326 0.949 . S
C325 C323 1.384 . S
C325 C326 1.385 . S
C325 H327 0.950 . S
C326 C320 1.404 . S
C326 H324 0.949 . S
C326 C325 1.385 . S
H327 C325 0.950 . S
H328 C312 0.951 . S
H329 C314 0.951 . S
H330 C316 0.951 . S
H331 C317 0.950 . S
H332 C318 0.950 . S
H333 C319 0.950 . S
H334 C321 0.950 . S
H335 C322 0.951 . S
C336 C337 1.386 . S
C336 C338 1.383 . S
C336 H352 0.951 . S
C337 C336 1.386 . S
C337 C341 1.383 . S
C338 C336 1.383 . S
C338 C339 1.402 . S
C338 H353 0.951 . S
C339 C338 1.402 . S
C339 C340 1.375 . S
C339 C342 1.481 . S
C340 C339 1.375 . S
C340 C341 1.367 . S
C340 H354 0.951 . S
C341 C337 1.383 . S
C341 C340 1.367 . S
C341 H355 0.950 . S
C342 C339 1.481 . S
C342 C343 1.297 . S
C342 H356 0.950 . S
C343 C342 1.297 . S
C343 C344 1.479 . S
C343 H357 0.950 . S
C344 C343 1.479 . S
C344 C345 1.375 . S
C344 C350 1.404 . S
C345 C344 1.375 . S
C345 C346 1.369 . S
C345 H358 0.950 . S
C346 C345 1.369 . S
C346 C347 1.392 . S
C346 H359 0.951 . S
C347 C346 1.392 . S
C347 C349 1.384 . S
H348 C350 0.949 . S
C349 C347 1.384 . S
C349 C350 1.385 . S
C349 H351 0.950 . S
C350 C344 1.404 . S
C350 H348 0.949 . S
C350 C349 1.385 . S
H351 C349 0.950 . S
H352 C336 0.951 . S
H353 C338 0.951 . S
H354 C340 0.951 . S
H355 C341 0.950 . S
H356 C342 0.950 . S
H357 C343 0.950 . S
H358 C345 0.950 . S
H359 C346 0.951 . S
C360 C361 1.386 . S
C360 C362 1.383 . S
C360 H376 0.951 . S
C361 C360 1.386 . S
C361 C365 1.383 . S
C362 C360 1.383 . S
C362 C363 1.402 . S
C362 H377 0.951 . S
C363 C362 1.402 . S
C363 C364 1.375 . S
C363 C366 1.481 . S
C364 C363 1.375 . S
C364 C365 1.367 . S
C364 H378 0.951 . S
C365 C361 1.383 . S
C365 C364 1.367 . S
C365 H379 0.950 . S
C366 C363 1.481 . S
C366 C367 1.297 . S
C366 H380 0.950 . S
C367 C366 1.297 . S
C367 C368 1.479 . S
C367 H381 0.950 . S
C368 C367 1.479 . S
C368 C369 1.375 . S
C368 C374 1.404 . S
C369 C368 1.375 . S
C369 C370 1.369 . S
C369 H382 0.950 . S
C370 C369 1.369 . S
C370 C371 1.392 . S
C370 H383 0.951 . S
C371 C370 1.392 . S
C371 C373 1.384 . S
H372 C374 0.949 . S
C373 C371 1.384 . S
C373 C374 1.385 . S
C373 H375 0.950 . S
C374 C368 1.404 . S
C374 H372 0.949 . S
C374 C373 1.385 . S
H375 C373 0.950 . S
H376 C360 0.951 . S
H377 C362 0.951 . S
H378 C364 0.951 . S
H379 C365 0.950 . S
H380 C366 0.950 . S
H381 C367 0.950 . S
H382 C369 0.950 . S
H383 C370 0.951 . S
C384 C385 1.386 . S
C384 C386 1.383 . S
C384 H400 0.951 . S
C385 C384 1.386 . S
C385 C389 1.383 . S
C386 C384 1.383 . S
C386 C387 1.402 . S
C386 H401 0.951 . S
C387 C386 1.402 . S
C387 C388 1.375 . S
C387 C390 1.481 . S
C388 C387 1.375 . S
C388 C389 1.367 . S
C388 H402 0.951 . S
C389 C385 1.383 . S
C389 C388 1.367 . S
C389 H403 0.950 . S
C390 C387 1.481 . S
C390 C391 1.297 . S
C390 H404 0.950 . S
C391 C390 1.297 . S
C391 C392 1.479 . S
C391 H405 0.950 . S
C392 C391 1.479 . S
C392 C393 1.375 . S
C392 C398 1.404 . S
C393 C392 1.375 . S
C393 C394 1.369 . S
C393 H406 0.950 . S
C394 C393 1.369 . S
C394 C395 1.392 . S
C394 H407 0.951 . S
C395 C394 1.392 . S
C395 C397 1.384 . S
H396 C398 0.949 . S
C397 C395 1.384 . S
C397 C398 1.385 . S
C397 H399 0.950 . S
C398 C392 1.404 . S
C398 H396 0.949 . S
C398 C397 1.385 . S
H399 C397 0.950 . S
H400 C384 0.951 . S
H401 C386 0.951 . S
H402 C388 0.951 . S
H403 C389 0.950 . S
H404 C390 0.950 . S
H405 C391 0.950 . S
H406 C393 0.950 . S
H407 C394 0.951 . S
C408 C409 1.386 . S
C408 C410 1.383 . S
C408 H424 0.951 . S
C409 C408 1.386 . S
C409 C413 1.383 . S
C410 C408 1.383 . S
C410 C411 1.402 . S
C410 H425 0.951 . S
C411 C410 1.402 . S
C411 C412 1.375 . S
C411 C414 1.481 . S
C412 C411 1.375 . S
C412 C413 1.367 . S
C412 H426 0.951 . S
C413 C409 1.383 . S
C413 C412 1.367 . S
C413 H427 0.950 . S
C414 C411 1.481 . S
C414 C415 1.297 . S
C414 H428 0.950 . S
C415 C414 1.297 . S
C415 C416 1.479 . S
C415 H429 0.950 . S
C416 C415 1.479 . S
C416 C417 1.375 . S
C416 C422 1.404 . S
C417 C416 1.375 . S
C417 C418 1.369 . S
C417 H430 0.950 . S
C418 C417 1.369 . S
C418 C419 1.392 . S
C418 H431 0.951 . S
C419 C418 1.392 . S
C419 C421 1.384 . S
H420 C422 0.949 . S
C421 C419 1.384 . S
C421 C422 1.385 . S
C421 H423 0.950 . S
C422 C416 1.404 . S
C422 H420 0.949 . S
C422 C421 1.385 . S
H423 C421 0.950 . S
H424 C408 0.951 . S
H425 C410 0.951 . S
H426 C412 0.951 . S
H427 C413 0.950 . S
H428 C414 0.950 . S
H429 C415 0.950 . S
H430 C417 0.950 . S
H431 C418 0.951 . S
C432 C433 1.386 . S
C432 C434 1.383 . S
C432 H448 0.951 . S
C433 C432 1.386 . S
C433 C437 1.383 . S
C434 C432 1.383 . S
C434 C435 1.402 . S
C434 H449 0.951 . S
C435 C434 1.402 . S
C435 C436 1.375 . S
C435 C438 1.481 . S
C436 C435 1.375 . S
C436 C437 1.367 . S
C436 H450 0.951 . S
C437 C433 1.383 . S
C437 C436 1.367 . S
C437 H451 0.950 . S
C438 C435 1.481 . S
C438 C439 1.297 . S
C438 H452 0.950 . S
C439 C438 1.297 . S
C439 C440 1.479 . S
C439 H453 0.950 . S
C440 C439 1.479 . S
C440 C441 1.375 . S
C440 C446 1.404 . S
C441 C440 1.375 . S
C441 C442 1.369 . S
C441 H454 0.950 . S
C442 C441 1.369 . S
C442 C443 1.392 . S
C442 H455 0.951 . S
C443 C442 1.392 . S
C443 C445 1.384 . S
H444 C446 0.949 . S
C445 C443 1.384 . S
C445 C446 1.385 . S
C445 H447 0.950 . S
C446 C440 1.404 . S
C446 H444 0.949 . S
C446 C445 1.385 . S
H447 C445 0.950 . S
H448 C432 0.951 . S
H449 C434 0.951 . S
H450 C436 0.951 . S
H451 C437 0.950 . S
H452 C438 0.950 . S
H453 C439 0.950 . S
H454 C441 0.950 . S
H455 C442 0.951 . S
C456 C457 1.386 . S
C456 C458 1.383 . S
C456 H472 0.951 . S
C457 C456 1.386 . S
C457 C461 1.383 . S
C458 C456 1.383 . S
C458 C459 1.402 . S
C458 H473 0.951 . S
C459 C458 1.402 . S
C459 C460 1.375 . S
C459 C462 1.481 . S
C460 C459 1.375 . S
C460 C461 1.367 . S
C460 H474 0.951 . S
C461 C457 1.383 . S
C461 C460 1.367 . S
C461 H475 0.950 . S
C462 C459 1.481 . S
C462 C463 1.297 1_554 S
C462 H476 0.950 . S
C463 C462 1.297 1_556 S
C463 C464 1.479 . S
C463 H477 0.950 1_556 S
C464 C463 1.479 . S
C464 C465 1.375 . S
C464 C470 1.404 . S
C465 C464 1.375 . S
C465 C466 1.369 . S
C465 H478 0.950 . S
C466 C465 1.369 . S
C466 C467 1.392 . S
C466 H479 0.951 . S
C467 C466 1.392 . S
C467 C469 1.384 . S
H468 C470 0.949 . S
C469 C467 1.384 . S
C469 C470 1.385 . S
C469 H471 0.950 . S
C470 C464 1.404 . S
C470 H468 0.949 . S
C470 C469 1.385 . S
H471 C469 0.950 . S
H472 C456 0.951 . S
H473 C458 0.951 . S
H474 C460 0.951 . S
H475 C461 0.950 . S
H476 C462 0.950 . S
H477 C463 0.950 1_554 S
H478 C465 0.950 . S
H479 C466 0.951 . S
C480 C481 1.386 . S
C480 C482 1.383 . S
C480 H496 0.951 . S
C481 C480 1.386 . S
C481 C485 1.383 . S
C482 C480 1.383 . S
C482 C483 1.402 . S
C482 H497 0.951 . S
C483 C482 1.402 . S
C483 C484 1.375 . S
C483 C486 1.481 . S
C484 C483 1.375 . S
C484 C485 1.367 . S
C484 H498 0.951 . S
C485 C481 1.383 . S
C485 C484 1.367 . S
C485 H499 0.950 . S
C486 C483 1.481 . S
C486 C487 1.297 1_545 S
C486 H500 0.950 . S
C487 C486 1.297 1_565 S
C487 C488 1.479 1_455 S
C487 H501 0.950 . S
C488 C487 1.479 1_655 S
C488 C489 1.375 . S
C488 C494 1.404 . S
C489 C488 1.375 . S
C489 C490 1.369 . S
C489 H502 0.950 . S
C490 C489 1.369 . S
C490 C491 1.392 . S
C490 H503 0.951 . S
C491 C490 1.392 . S
C491 C493 1.384 . S
H492 C494 0.949 . S
C493 C491 1.384 . S
C493 C494 1.385 . S
C493 H495 0.950 . S
C494 C488 1.404 . S
C494 H492 0.949 . S
C494 C493 1.385 . S
H495 C493 0.950 . S
H496 C480 0.951 . S
H497 C482 0.951 . S
H498 C484 0.951 . S
H499 C485 0.950 . S
H500 C486 0.950 . S
H501 C487 0.950 . S
H502 C489 0.950 . S
H503 C490 0.951 . S
C504 C505 1.386 . S
C504 C506 1.383 . S
C504 H520 0.951 . S
C505 C504 1.386 . S
C505 C509 1.383 . S
C506 C504 1.383 . S
C506 C507 1.402 . S
C506 H521 0.951 . S
C507 C506 1.402 . S
C507 C508 1.375 . S
C507 C510 1.481 . S
C508 C507 1.375 . S
C508 C509 1.367 . S
C508 H522 0.951 . S
C509 C505 1.383 . S
C509 C508 1.367 . S
C509 H523 0.950 . S
C510 C507 1.481 . S
C510 C511 1.297 1_455 S
C510 H524 0.950 1_455 S
C511 C510 1.297 1_655 S
C511 C512 1.479 . S
C511 H525 0.950 . S
C512 C511 1.479 . S
C512 C513 1.375 . S
C512 C518 1.404 . S
C513 C512 1.375 . S
C513 C514 1.369 . S
C513 H526 0.950 . S
C514 C513 1.369 . S
C514 C515 1.392 . S
C514 H527 0.951 . S
C515 C514 1.392 . S
C515 C517 1.384 . S
H516 C518 0.949 . S
C517 C515 1.384 . S
C517 C518 1.385 . S
C517 H519 0.950 . S
C518 C512 1.404 . S
C518 H516 0.949 . S
C518 C517 1.385 . S
H519 C517 0.950 . S
H520 C504 0.951 . S
H521 C506 0.951 . S
H522 C508 0.951 . S
H523 C509 0.950 . S
H524 C510 0.950 1_655 S
H525 C511 0.950 . S
H526 C513 0.950 . S
H527 C514 0.951 . S
C528 C529 1.386 . S
C528 C530 1.383 . S
C528 H544 0.951 . S
C529 C528 1.386 . S
C529 C533 1.383 . S
C530 C528 1.383 . S
C530 C531 1.402 . S
C530 H545 0.951 . S
C531 C530 1.402 . S
C531 C532 1.375 . S
C531 C534 1.481 . S
C532 C531 1.375 . S
C532 C533 1.367 . S
C532 H546 0.951 . S
C533 C529 1.383 . S
C533 C532 1.367 . S
C533 H547 0.950 . S
C534 C531 1.481 . S
C534 C535 1.297 . S
C534 H548 0.950 . S
C535 C534 1.297 . S
C535 C536 1.479 . S
C535 H549 0.950 . S
C536 C535 1.479 . S
C536 C537 1.375 . S
C536 C542 1.404 . S
C537 C536 1.375 . S
C537 C538 1.369 . S
C537 H550 0.950 . S
C538 C537 1.369 . S
C538 C539 1.392 . S
C538 H551 0.951 . S
C539 C538 1.392 . S
C539 C541 1.384 . S
H540 C542 0.949 . S
C541 C539 1.384 . S
C541 C542 1.385 . S
C541 H543 0.950 . S
C542 C536 1.404 . S
C542 H540 0.949 . S
C542 C541 1.385 . S
H543 C541 0.950 . S
H544 C528 0.951 . S
H545 C530 0.951 . S
H546 C532 0.951 . S
H547 C533 0.950 . S
H548 C534 0.950 . S
H549 C535 0.950 . S
H550 C537 0.950 . S
H551 C538 0.951 . S
C552 C553 1.386 . S
C552 C554 1.383 . S
C552 H568 0.951 . S
C553 C552 1.386 . S
C553 C557 1.383 . S
C554 C552 1.383 . S
C554 C555 1.402 . S
C554 H569 0.951 . S
C555 C554 1.402 . S
C555 C556 1.375 . S
C555 C558 1.481 1_565 S
C556 C555 1.375 . S
C556 C557 1.367 . S
C556 H570 0.951 1_565 S
C557 C553 1.383 . S
C557 C556 1.367 . S
C557 H571 0.950 . S
C558 C555 1.481 1_545 S
C558 C559 1.297 1_545 S
C558 H572 0.950 . S
C559 C558 1.297 1_565 S
C559 C560 1.479 1_565 S
C559 H573 0.950 . S
C560 C559 1.479 1_545 S
C560 C561 1.375 . S
C560 C566 1.404 . S
C561 C560 1.375 . S
C561 C562 1.369 . S
C561 H574 0.950 1_545 S
C562 C561 1.369 . S
C562 C563 1.392 . S
C562 H575 0.951 . S
C563 C562 1.392 . S
C563 C565 1.384 . S
H564 C566 0.949 . S
C565 C563 1.384 . S
C565 C566 1.385 . S
C565 H567 0.950 . S
C566 C560 1.404 . S
C566 H564 0.949 . S
C566 C565 1.385 . S
H567 C565 0.950 . S
H568 C552 0.951 . S
H569 C554 0.951 . S
H570 C556 0.951 1_545 S
H571 C557 0.950 . S
H572 C558 0.950 . S
H573 C559 0.950 . S
H574 C561 0.950 1_565 S
H575 C562 0.951 . S
C576 C577 1.386 . S
C576 C578 1.383 . S
C576 H592 0.951 . S
C577 C576 1.386 . S
C577 C581 1.383 . S
C578 C576 1.383 . S
C578 C579 1.402 . S
C578 H593 0.951 . S
C579 C578 1.402 . S
C579 C580 1.375 . S
C579 C582 1.481 . S
C580 C579 1.375 . S
C580 C581 1.367 . S
C580 H594 0.951 . S
C581 C577 1.383 . S
C581 C580 1.367 . S
C581 H595 0.950 . S
C582 C579 1.481 . S
C582 C583 1.297 . S
C582 H596 0.950 1_655 S
C583 C582 1.297 . S
C583 C584 1.479 1_655 S
C583 H597 0.950 . S
C584 C583 1.479 1_455 S
C584 C585 1.375 . S
C584 C590 1.404 . S
C585 C584 1.375 . S
C585 C586 1.369 . S
C585 H598 0.950 . S
C586 C585 1.369 . S
C586 C587 1.392 . S
C586 H599 0.951 . S
C587 C586 1.392 . S
C587 C589 1.384 . S
H588 C590 0.949 . S
C589 C587 1.384 . S
C589 C590 1.385 . S
C589 H591 0.950 . S
C590 C584 1.404 . S
C590 H588 0.949 . S
C590 C589 1.385 . S
H591 C589 0.950 . S
H592 C576 0.951 . S
H593 C578 0.951 . S
H594 C580 0.951 . S
H595 C581 0.950 . S
H596 C582 0.950 1_455 S
H597 C583 0.950 . S
H598 C585 0.950 . S
H599 C586 0.951 . S
C600 C601 1.386 . S
C600 C602 1.383 . S
C600 H616 0.951 . S
C601 C600 1.386 . S
C601 C605 1.383 . S
C602 C600 1.383 . S
C602 C603 1.402 . S
C602 H617 0.951 . S
C603 C602 1.402 . S
C603 C604 1.375 . S
C603 C606 1.481 . S
C604 C603 1.375 . S
C604 C605 1.367 . S
C604 H618 0.951 . S
C605 C601 1.383 . S
C605 C604 1.367 . S
C605 H619 0.950 . S
C606 C603 1.481 . S
C606 C607 1.297 . S
C606 H620 0.950 . S
C607 C606 1.297 . S
C607 C608 1.479 . S
C607 H621 0.950 . S
C608 C607 1.479 . S
C608 C609 1.375 . S
C608 C614 1.404 . S
C609 C608 1.375 . S
C609 C610 1.369 . S
C609 H622 0.950 . S
C610 C609 1.369 . S
C610 C611 1.392 . S
C610 H623 0.951 . S
C611 C610 1.392 . S
C611 C613 1.384 . S
H612 C614 0.949 . S
C613 C611 1.384 . S
C613 C614 1.385 . S
C613 H615 0.950 . S
C614 C608 1.404 . S
C614 H612 0.949 . S
C614 C613 1.385 . S
H615 C613 0.950 . S
H616 C600 0.951 . S
H617 C602 0.951 . S
H618 C604 0.951 . S
H619 C605 0.950 . S
H620 C606 0.950 . S
H621 C607 0.950 . S
H622 C609 0.950 . S
H623 C610 0.951 . S
C624 C625 1.386 . S
C624 C626 1.383 . S
C624 H640 0.951 . S
C625 C624 1.386 . S
C625 C629 1.383 . S
C626 C624 1.383 . S
C626 C627 1.402 . S
C626 H641 0.951 . S
C627 C626 1.402 . S
C627 C628 1.375 . S
C627 C630 1.481 . S
C628 C627 1.375 . S
C628 C629 1.367 . S
C628 H642 0.951 . S
C629 C625 1.383 . S
C629 C628 1.367 . S
C629 H643 0.950 . S
C630 C627 1.481 . S
C630 C631 1.287 1_545 S
C630 H644 0.950 . S
C631 C630 1.287 1_565 S
C631 C632 1.496 . S
C631 H645 0.943 1_565 S
C632 C631 1.496 . S
C632 C633 1.375 . S
C632 C638 1.404 . S
C633 C632 1.375 . S
C633 C634 1.369 . S
C633 H646 0.950 . S
C634 C633 1.369 . S
C634 C635 1.392 . S
C634 H647 0.951 . S
C635 C634 1.392 . S
C635 C637 1.384 . S
H636 C638 0.949 . S
C637 C635 1.384 . S
C637 C638 1.385 . S
C637 H639 0.950 . S
C638 C632 1.404 . S
C638 H636 0.949 . S
C638 C637 1.385 . S
H639 C637 0.950 . S
H640 C624 0.951 . S
H641 C626 0.951 . S
H642 C628 0.951 . S
H643 C629 0.950 . S
H644 C630 0.950 . S
H645 C631 0.943 1_545 S
H646 C633 0.950 . S
H647 C634 0.951 . S
C648 C649 1.386 . S
C648 C650 1.383 . S
C648 H664 0.951 . S
C649 C648 1.386 . S
C649 C653 1.383 . S
C650 C648 1.383 . S
C650 C651 1.402 . S
C650 H665 0.951 . S
C651 C650 1.402 . S
C651 C652 1.375 . S
C651 C654 1.481 . S
C652 C651 1.375 . S
C652 C653 1.367 . S
C652 H666 0.951 . S
C653 C649 1.383 . S
C653 C652 1.367 . S
C653 H667 0.950 . S
C654 C651 1.481 . S
C654 C655 1.297 1_655 S
C654 H668 0.950 1_565 S
C655 C654 1.297 1_455 S
C655 C656 1.479 1_565 S
C655 H669 0.950 . S
C656 C655 1.479 1_545 S
C656 C657 1.375 . S
C656 C662 1.404 . S
C657 C656 1.375 . S
C657 C658 1.369 . S
C657 H670 0.967 . S
C658 C657 1.369 . S
C658 C659 1.392 . S
C658 H671 0.951 . S
C659 C658 1.392 . S
C659 C661 1.384 . S
H660 C662 0.949 . S
C661 C659 1.384 . S
C661 C662 1.385 . S
C661 H663 0.950 . S
C662 C656 1.404 . S
C662 H660 0.949 . S
C662 C661 1.385 . S
H663 C661 0.950 . S
H664 C648 0.951 . S
H665 C650 0.951 . S
H666 C652 0.951 . S
H667 C653 0.950 . S
H668 C654 0.950 1_545 S
H669 C655 0.950 . S
H670 C657 0.967 . S
H671 C658 0.951 . S
C289 C14 1.104 . S
C299 C182 1.081 . S
C313 C50 1.028 . S
C323 C230 0.953 . S
C337 C74 1.075 . S
C347 C266 1.122 . S
C361 C110 1.074 . S
C371 C146 1.061 . S
C385 C254 1.151 . S
C395 C2 1.158 . S
C409 C158 1.108 . S
C419 C38 1.104 . S
C433 C86 1.058 . S
C443 C194 0.982 . S
C457 C218 1.036 . S
C467 C122 1.070 . S
C481 C4 1.573 . S
C491 C219 1.545 . S
C505 C255 1.575 . S
C515 C40 1.571 . S
C529 C75 1.565 . S
C539 C148 1.560 . S
C553 C111 1.564 . S
C563 C184 1.571 . S
C577 C220 1.575 . S
C587 C3 1.546 . S
C601 C256 1.572 . S
C611 C39 1.567 . S
C625 C76 1.575 . S
C635 C147 1.576 . S
C649 C112 1.574 . S
C659 C183 1.546 . S
