# Generated by pormake.
# Topology fcq, (5)-cn, num edge types: 1
# Building blocks:
#     Node 0, Type 0, BuildingBlock: XOMCOT_clean_sbu_1, # of connection points: 5
#     Node 1, Type 0, BuildingBlock: XOMCOT_clean_sbu_1, # of connection points: 5
#     Node 2, Type 0, BuildingBlock: XOMCOT_clean_sbu_1, # of connection points: 5
#     Node 3, Type 0, BuildingBlock: XOMCOT_clean_sbu_1, # of connection points: 5
#     Node 4, Type 0, BuildingBlock: XOMCOT_clean_sbu_1, # of connection points: 5
#     Node 5, Type 0, BuildingBlock: XOMCOT_clean_sbu_1, # of connection points: 5
#     Node 6, Type 0, BuildingBlock: XOMCOT_clean_sbu_1, # of connection points: 5
#     Node 7, Type 0, BuildingBlock: XOMCOT_clean_sbu_1, # of connection points: 5
#     Node 8, Type 0, BuildingBlock: XOMCOT_clean_sbu_1, # of connection points: 5
#     Node 9, Type 0, BuildingBlock: XOMCOT_clean_sbu_1, # of connection points: 5
#     Node 10, Type 0, BuildingBlock: XOMCOT_clean_sbu_1, # of connection points: 5
#     Node 11, Type 0, BuildingBlock: XOMCOT_clean_sbu_1, # of connection points: 5
#     Node 12, Type 0, BuildingBlock: XOMCOT_clean_sbu_1, # of connection points: 5
#     Node 13, Type 0, BuildingBlock: XOMCOT_clean_sbu_1, # of connection points: 5
#     Node 14, Type 0, BuildingBlock: XOMCOT_clean_sbu_1, # of connection points: 5
#     Node 15, Type 0, BuildingBlock: XOMCOT_clean_sbu_1, # of connection points: 5
#     Node 16, Type 0, BuildingBlock: XOMCOT_clean_sbu_1, # of connection points: 5
#     Node 17, Type 0, BuildingBlock: XOMCOT_clean_sbu_1, # of connection points: 5
#     Node 18, Type 0, BuildingBlock: XOMCOT_clean_sbu_1, # of connection points: 5
#     Node 19, Type 0, BuildingBlock: XOMCOT_clean_sbu_1, # of connection points: 5
#     Node 20, Type 0, BuildingBlock: XOMCOT_clean_sbu_1, # of connection points: 5
#     Node 21, Type 0, BuildingBlock: XOMCOT_clean_sbu_1, # of connection points: 5
#     Node 22, Type 0, BuildingBlock: XOMCOT_clean_sbu_1, # of connection points: 5
#     Node 23, Type 0, BuildingBlock: XOMCOT_clean_sbu_1, # of connection points: 5
#     Node 24, Type 0, BuildingBlock: XOMCOT_clean_sbu_1, # of connection points: 5
#     Node 25, Type 0, BuildingBlock: XOMCOT_clean_sbu_1, # of connection points: 5
#     Node 26, Type 0, BuildingBlock: XOMCOT_clean_sbu_1, # of connection points: 5
#     Node 27, Type 0, BuildingBlock: XOMCOT_clean_sbu_1, # of connection points: 5
#     Node 28, Type 0, BuildingBlock: XOMCOT_clean_sbu_1, # of connection points: 5
#     Node 29, Type 0, BuildingBlock: XOMCOT_clean_sbu_1, # of connection points: 5
#     Node 30, Type 0, BuildingBlock: XOMCOT_clean_sbu_1, # of connection points: 5
#     Node 31, Type 0, BuildingBlock: XOMCOT_clean_sbu_1, # of connection points: 5
#     Node 32, Type 0, BuildingBlock: XOMCOT_clean_sbu_1, # of connection points: 5
#     Node 33, Type 0, BuildingBlock: XOMCOT_clean_sbu_1, # of connection points: 5
#     Node 34, Type 0, BuildingBlock: XOMCOT_clean_sbu_1, # of connection points: 5
#     Node 35, Type 0, BuildingBlock: XOMCOT_clean_sbu_1, # of connection points: 5
#     Node 36, Type 0, BuildingBlock: XOMCOT_clean_sbu_1, # of connection points: 5
#     Node 37, Type 0, BuildingBlock: XOMCOT_clean_sbu_1, # of connection points: 5
#     Node 38, Type 0, BuildingBlock: XOMCOT_clean_sbu_1, # of connection points: 5
#     Node 39, Type 0, BuildingBlock: XOMCOT_clean_sbu_1, # of connection points: 5
#     Node 40, Type 0, BuildingBlock: XOMCOT_clean_sbu_1, # of connection points: 5
#     Node 41, Type 0, BuildingBlock: XOMCOT_clean_sbu_1, # of connection points: 5
#     Node 42, Type 0, BuildingBlock: XOMCOT_clean_sbu_1, # of connection points: 5
#     Node 43, Type 0, BuildingBlock: XOMCOT_clean_sbu_1, # of connection points: 5
#     Node 44, Type 0, BuildingBlock: XOMCOT_clean_sbu_1, # of connection points: 5
#     Node 45, Type 0, BuildingBlock: XOMCOT_clean_sbu_1, # of connection points: 5
#     Node 46, Type 0, BuildingBlock: XOMCOT_clean_sbu_1, # of connection points: 5
#     Node 47, Type 0, BuildingBlock: XOMCOT_clean_sbu_1, # of connection points: 5
#     Edge 48, Type (0, 0), BuildingBlock: ZUJKAS_clean_linker_0, # of connection points: 2
#     Edge 49, Type (0, 0), BuildingBlock: ZUJKAS_clean_linker_0, # of connection points: 2
#     Edge 50, Type (0, 0), BuildingBlock: ZUJKAS_clean_linker_0, # of connection points: 2
#     Edge 51, Type (0, 0), BuildingBlock: ZUJKAS_clean_linker_0, # of connection points: 2
#     Edge 52, Type (0, 0), BuildingBlock: ZUJKAS_clean_linker_0, # of connection points: 2
#     Edge 53, Type (0, 0), BuildingBlock: ZUJKAS_clean_linker_0, # of connection points: 2
#     Edge 54, Type (0, 0), BuildingBlock: ZUJKAS_clean_linker_0, # of connection points: 2
#     Edge 55, Type (0, 0), BuildingBlock: ZUJKAS_clean_linker_0, # of connection points: 2
#     Edge 56, Type (0, 0), BuildingBlock: ZUJKAS_clean_linker_0, # of connection points: 2
#     Edge 57, Type (0, 0), BuildingBlock: ZUJKAS_clean_linker_0, # of connection points: 2
#     Edge 58, Type (0, 0), BuildingBlock: ZUJKAS_clean_linker_0, # of connection points: 2
#     Edge 59, Type (0, 0), BuildingBlock: ZUJKAS_clean_linker_0, # of connection points: 2
#     Edge 60, Type (0, 0), BuildingBlock: ZUJKAS_clean_linker_0, # of connection points: 2
#     Edge 61, Type (0, 0), BuildingBlock: ZUJKAS_clean_linker_0, # of connection points: 2
#     Edge 62, Type (0, 0), BuildingBlock: ZUJKAS_clean_linker_0, # of connection points: 2
#     Edge 63, Type (0, 0), BuildingBlock: ZUJKAS_clean_linker_0, # of connection points: 2
#     Edge 64, Type (0, 0), BuildingBlock: ZUJKAS_clean_linker_0, # of connection points: 2
#     Edge 65, Type (0, 0), BuildingBlock: ZUJKAS_clean_linker_0, # of connection points: 2
#     Edge 66, Type (0, 0), BuildingBlock: ZUJKAS_clean_linker_0, # of connection points: 2
#     Edge 67, Type (0, 0), BuildingBlock: ZUJKAS_clean_linker_0, # of connection points: 2
#     Edge 68, Type (0, 0), BuildingBlock: ZUJKAS_clean_linker_0, # of connection points: 2
#     Edge 69, Type (0, 0), BuildingBlock: ZUJKAS_clean_linker_0, # of connection points: 2
#     Edge 70, Type (0, 0), BuildingBlock: ZUJKAS_clean_linker_0, # of connection points: 2
#     Edge 71, Type (0, 0), BuildingBlock: ZUJKAS_clean_linker_0, # of connection points: 2
#     Edge 72, Type (0, 0), BuildingBlock: ZUJKAS_clean_linker_0, # of connection points: 2
#     Edge 73, Type (0, 0), BuildingBlock: ZUJKAS_clean_linker_0, # of connection points: 2
#     Edge 74, Type (0, 0), BuildingBlock: ZUJKAS_clean_linker_0, # of connection points: 2
#     Edge 75, Type (0, 0), BuildingBlock: ZUJKAS_clean_linker_0, # of connection points: 2
#     Edge 76, Type (0, 0), BuildingBlock: ZUJKAS_clean_linker_0, # of connection points: 2
#     Edge 77, Type (0, 0), BuildingBlock: ZUJKAS_clean_linker_0, # of connection points: 2
#     Edge 78, Type (0, 0), BuildingBlock: ZUJKAS_clean_linker_0, # of connection points: 2
#     Edge 79, Type (0, 0), BuildingBlock: ZUJKAS_clean_linker_0, # of connection points: 2
#     Edge 80, Type (0, 0), BuildingBlock: ZUJKAS_clean_linker_0, # of connection points: 2
#     Edge 81, Type (0, 0), BuildingBlock: ZUJKAS_clean_linker_0, # of connection points: 2
#     Edge 82, Type (0, 0), BuildingBlock: ZUJKAS_clean_linker_0, # of connection points: 2
#     Edge 83, Type (0, 0), BuildingBlock: ZUJKAS_clean_linker_0, # of connection points: 2
#     Edge 84, Type (0, 0), BuildingBlock: ZUJKAS_clean_linker_0, # of connection points: 2
#     Edge 85, Type (0, 0), BuildingBlock: ZUJKAS_clean_linker_0, # of connection points: 2
#     Edge 86, Type (0, 0), BuildingBlock: ZUJKAS_clean_linker_0, # of connection points: 2
#     Edge 87, Type (0, 0), BuildingBlock: ZUJKAS_clean_linker_0, # of connection points: 2
#     Edge 88, Type (0, 0), BuildingBlock: ZUJKAS_clean_linker_0, # of connection points: 2
#     Edge 89, Type (0, 0), BuildingBlock: ZUJKAS_clean_linker_0, # of connection points: 2
#     Edge 90, Type (0, 0), BuildingBlock: ZUJKAS_clean_linker_0, # of connection points: 2
#     Edge 91, Type (0, 0), BuildingBlock: ZUJKAS_clean_linker_0, # of connection points: 2
#     Edge 92, Type (0, 0), BuildingBlock: ZUJKAS_clean_linker_0, # of connection points: 2
#     Edge 93, Type (0, 0), BuildingBlock: ZUJKAS_clean_linker_0, # of connection points: 2
#     Edge 94, Type (0, 0), BuildingBlock: ZUJKAS_clean_linker_0, # of connection points: 2
#     Edge 95, Type (0, 0), BuildingBlock: ZUJKAS_clean_linker_0, # of connection points: 2
#     Edge 96, Type (0, 0), BuildingBlock: ZUJKAS_clean_linker_0, # of connection points: 2
#     Edge 97, Type (0, 0), BuildingBlock: ZUJKAS_clean_linker_0, # of connection points: 2
#     Edge 98, Type (0, 0), BuildingBlock: ZUJKAS_clean_linker_0, # of connection points: 2
#     Edge 99, Type (0, 0), BuildingBlock: ZUJKAS_clean_linker_0, # of connection points: 2
#     Edge 100, Type (0, 0), BuildingBlock: ZUJKAS_clean_linker_0, # of connection points: 2
#     Edge 101, Type (0, 0), BuildingBlock: ZUJKAS_clean_linker_0, # of connection points: 2
#     Edge 102, Type (0, 0), BuildingBlock: ZUJKAS_clean_linker_0, # of connection points: 2
#     Edge 103, Type (0, 0), BuildingBlock: ZUJKAS_clean_linker_0, # of connection points: 2
#     Edge 104, Type (0, 0), BuildingBlock: ZUJKAS_clean_linker_0, # of connection points: 2
#     Edge 105, Type (0, 0), BuildingBlock: ZUJKAS_clean_linker_0, # of connection points: 2
#     Edge 106, Type (0, 0), BuildingBlock: ZUJKAS_clean_linker_0, # of connection points: 2
#     Edge 107, Type (0, 0), BuildingBlock: ZUJKAS_clean_linker_0, # of connection points: 2
#     Edge 108, Type (0, 0), BuildingBlock: ZUJKAS_clean_linker_0, # of connection points: 2
#     Edge 109, Type (0, 0), BuildingBlock: ZUJKAS_clean_linker_0, # of connection points: 2
#     Edge 110, Type (0, 0), BuildingBlock: ZUJKAS_clean_linker_0, # of connection points: 2
#     Edge 111, Type (0, 0), BuildingBlock: ZUJKAS_clean_linker_0, # of connection points: 2
#     Edge 112, Type (0, 0), BuildingBlock: ZUJKAS_clean_linker_0, # of connection points: 2
#     Edge 113, Type (0, 0), BuildingBlock: ZUJKAS_clean_linker_0, # of connection points: 2
#     Edge 114, Type (0, 0), BuildingBlock: ZUJKAS_clean_linker_0, # of connection points: 2
#     Edge 115, Type (0, 0), BuildingBlock: ZUJKAS_clean_linker_0, # of connection points: 2
#     Edge 116, Type (0, 0), BuildingBlock: ZUJKAS_clean_linker_0, # of connection points: 2
#     Edge 117, Type (0, 0), BuildingBlock: ZUJKAS_clean_linker_0, # of connection points: 2
#     Edge 118, Type (0, 0), BuildingBlock: ZUJKAS_clean_linker_0, # of connection points: 2
#     Edge 119, Type (0, 0), BuildingBlock: ZUJKAS_clean_linker_0, # of connection points: 2
#     Edge 120, Type (0, 0), BuildingBlock: ZUJKAS_clean_linker_0, # of connection points: 2
#     Edge 121, Type (0, 0), BuildingBlock: ZUJKAS_clean_linker_0, # of connection points: 2
#     Edge 122, Type (0, 0), BuildingBlock: ZUJKAS_clean_linker_0, # of connection points: 2
#     Edge 123, Type (0, 0), BuildingBlock: ZUJKAS_clean_linker_0, # of connection points: 2
#     Edge 124, Type (0, 0), BuildingBlock: ZUJKAS_clean_linker_0, # of connection points: 2
#     Edge 125, Type (0, 0), BuildingBlock: ZUJKAS_clean_linker_0, # of connection points: 2
#     Edge 126, Type (0, 0), BuildingBlock: ZUJKAS_clean_linker_0, # of connection points: 2
#     Edge 127, Type (0, 0), BuildingBlock: ZUJKAS_clean_linker_0, # of connection points: 2
#     Edge 128, Type (0, 0), BuildingBlock: ZUJKAS_clean_linker_0, # of connection points: 2
#     Edge 129, Type (0, 0), BuildingBlock: ZUJKAS_clean_linker_0, # of connection points: 2
#     Edge 130, Type (0, 0), BuildingBlock: ZUJKAS_clean_linker_0, # of connection points: 2
#     Edge 131, Type (0, 0), BuildingBlock: ZUJKAS_clean_linker_0, # of connection points: 2
#     Edge 132, Type (0, 0), BuildingBlock: ZUJKAS_clean_linker_0, # of connection points: 2
#     Edge 133, Type (0, 0), BuildingBlock: ZUJKAS_clean_linker_0, # of connection points: 2
#     Edge 134, Type (0, 0), BuildingBlock: ZUJKAS_clean_linker_0, # of connection points: 2
#     Edge 135, Type (0, 0), BuildingBlock: ZUJKAS_clean_linker_0, # of connection points: 2
#     Edge 136, Type (0, 0), BuildingBlock: ZUJKAS_clean_linker_0, # of connection points: 2
#     Edge 137, Type (0, 0), BuildingBlock: ZUJKAS_clean_linker_0, # of connection points: 2
#     Edge 138, Type (0, 0), BuildingBlock: ZUJKAS_clean_linker_0, # of connection points: 2
#     Edge 139, Type (0, 0), BuildingBlock: ZUJKAS_clean_linker_0, # of connection points: 2
#     Edge 140, Type (0, 0), BuildingBlock: ZUJKAS_clean_linker_0, # of connection points: 2
#     Edge 141, Type (0, 0), BuildingBlock: ZUJKAS_clean_linker_0, # of connection points: 2
#     Edge 142, Type (0, 0), BuildingBlock: ZUJKAS_clean_linker_0, # of connection points: 2
#     Edge 143, Type (0, 0), BuildingBlock: ZUJKAS_clean_linker_0, # of connection points: 2
#     Edge 144, Type (0, 0), BuildingBlock: ZUJKAS_clean_linker_0, # of connection points: 2
#     Edge 145, Type (0, 0), BuildingBlock: ZUJKAS_clean_linker_0, # of connection points: 2
#     Edge 146, Type (0, 0), BuildingBlock: ZUJKAS_clean_linker_0, # of connection points: 2
#     Edge 147, Type (0, 0), BuildingBlock: ZUJKAS_clean_linker_0, # of connection points: 2
#     Edge 148, Type (0, 0), BuildingBlock: ZUJKAS_clean_linker_0, # of connection points: 2
#     Edge 149, Type (0, 0), BuildingBlock: ZUJKAS_clean_linker_0, # of connection points: 2
#     Edge 150, Type (0, 0), BuildingBlock: ZUJKAS_clean_linker_0, # of connection points: 2
#     Edge 151, Type (0, 0), BuildingBlock: ZUJKAS_clean_linker_0, # of connection points: 2
#     Edge 152, Type (0, 0), BuildingBlock: ZUJKAS_clean_linker_0, # of connection points: 2
#     Edge 153, Type (0, 0), BuildingBlock: ZUJKAS_clean_linker_0, # of connection points: 2
#     Edge 154, Type (0, 0), BuildingBlock: ZUJKAS_clean_linker_0, # of connection points: 2
#     Edge 155, Type (0, 0), BuildingBlock: ZUJKAS_clean_linker_0, # of connection points: 2
#     Edge 156, Type (0, 0), BuildingBlock: ZUJKAS_clean_linker_0, # of connection points: 2
#     Edge 157, Type (0, 0), BuildingBlock: ZUJKAS_clean_linker_0, # of connection points: 2
#     Edge 158, Type (0, 0), BuildingBlock: ZUJKAS_clean_linker_0, # of connection points: 2
#     Edge 159, Type (0, 0), BuildingBlock: ZUJKAS_clean_linker_0, # of connection points: 2
#     Edge 160, Type (0, 0), BuildingBlock: ZUJKAS_clean_linker_0, # of connection points: 2
#     Edge 161, Type (0, 0), BuildingBlock: ZUJKAS_clean_linker_0, # of connection points: 2
#     Edge 162, Type (0, 0), BuildingBlock: ZUJKAS_clean_linker_0, # of connection points: 2
#     Edge 163, Type (0, 0), BuildingBlock: ZUJKAS_clean_linker_0, # of connection points: 2
#     Edge 164, Type (0, 0), BuildingBlock: ZUJKAS_clean_linker_0, # of connection points: 2
#     Edge 165, Type (0, 0), BuildingBlock: ZUJKAS_clean_linker_0, # of connection points: 2
#     Edge 166, Type (0, 0), BuildingBlock: ZUJKAS_clean_linker_0, # of connection points: 2
#     Edge 167, Type (0, 0), BuildingBlock: ZUJKAS_clean_linker_0, # of connection points: 2
# Relax obj value: 0.455
# Max RMSD: 0.268
# Mean RMSD: 0.268
data_MOF--net-fcq--node1-XOMCOT_clean_sbu_1--edge1-ZUJKAS_clean_linker_0
_symmetry_space_group_name_H-M    P1
_symmetry_Int_Tables_number       1
_symmetry_cell_setting            triclinic
loop_
_symmetry_equiv_pos_as_xyz
'x, y, z'
_cell_length_a     83.129618
_cell_length_b     83.159068
_cell_length_c     83.141178
_cell_angle_alpha  90.001161
_cell_angle_beta   89.986114
_cell_angle_gamma 89.992475
loop_
_atom_site_label
_atom_site_type_symbol
_atom_site_fract_x
_atom_site_fract_y
_atom_site_fract_z
_atom_type_partial_charge
C0 C 0.18641 0.224 0.41291 0.0
C1 C 0.19891 0.23078 0.42135 0.0
N2 N 0.19404 0.23328 0.43659 0.0
N3 N 0.1737 0.22196 0.42278 0.0
C4 C 0.17851 0.22836 0.43695 0.0
H5 H 0.18686 0.22 0.40054 0.0
Co6 Co 0.15493 0.21084 0.4167 0.0
C7 C 0.15806 0.19751 0.45163 0.0
O8 O 0.17328 0.20024 0.45476 0.0
N9 N 0.13642 0.19983 0.41047 0.0
C10 C 0.11831 0.18034 0.40854 0.0
C11 C 0.13265 0.18479 0.41527 0.0
C12 C 0.12434 0.20417 0.40047 0.0
N13 N 0.11308 0.19251 0.39926 0.0
O14 O 0.14199 0.22839 0.4235 0.0
H15 H 0.14001 0.17736 0.42301 0.0
H16 H 0.12379 0.2156 0.39427 0.0
O17 O 0.15212 0.20123 0.43797 0.0
C18 C 0.14195 0.2406 0.41431 0.0
O19 O 0.15163 0.24075 0.40181 0.0
N20 N 0.16741 0.19376 0.40888 0.0
C21 C 0.18558 0.16991 0.39394 0.0
C22 C 0.18663 0.17241 0.41059 0.0
C23 C 0.17751 0.18445 0.4178 0.0
C24 C 0.16627 0.19155 0.39265 0.0
C25 C 0.17514 0.17956 0.38492 0.0
H26 H 0.17896 0.1864 0.43042 0.0
H27 H 0.15849 0.19927 0.38564 0.0
H28 H 0.17098 0.22893 0.44754 0.0
H29 H 0.21101 0.23262 0.4169 0.0
H30 H 0.11238 0.16884 0.40999 0.0
H31 H 0.19449 0.16513 0.418 0.0
H32 H 0.17414 0.17811 0.37202 0.0
C33 C 0.47236 0.56631 0.84219 0.0
C34 C 0.47712 0.55324 0.83318 0.0
N35 N 0.47323 0.556 0.81768 0.0
N36 N 0.46547 0.57728 0.83245 0.0
C37 C 0.4665 0.5708 0.81755 0.0
H38 H 0.473 0.56735 0.85514 0.0
Co39 Co 0.45458 0.59586 0.83928 0.0
C40 C 0.4309 0.59505 0.8115 0.0
O41 O 0.41918 0.58858 0.81987 0.0
N42 N 0.44412 0.61483 0.84589 0.0
C43 C 0.42675 0.63499 0.84847 0.0
C44 C 0.4294 0.62027 0.84164 0.0
C45 C 0.45005 0.62644 0.85567 0.0
N46 N 0.43973 0.63888 0.85724 0.0
O47 O 0.47184 0.60881 0.83167 0.0
H48 H 0.42077 0.61398 0.83439 0.0
H49 H 0.46171 0.62585 0.86143 0.0
O50 O 0.44444 0.59808 0.81811 0.0
C51 C 0.48437 0.60895 0.84043 0.0
O52 O 0.485 0.59938 0.85299 0.0
N53 N 0.43776 0.58291 0.84806 0.0
C54 C 0.41282 0.56541 0.86198 0.0
C55 C 0.4203 0.55989 0.84798 0.0
C56 C 0.43284 0.56874 0.84127 0.0
C57 C 0.43157 0.58746 0.86263 0.0
C58 C 0.4187 0.57918 0.86953 0.0
H59 H 0.43787 0.56459 0.83006 0.0
H60 H 0.43641 0.59769 0.86899 0.0
H61 H 0.46168 0.57643 0.80687 0.0
H62 H 0.48209 0.54215 0.83785 0.0
H63 H 0.4159 0.64212 0.84746 0.0
H64 H 0.41609 0.54912 0.84196 0.0
H65 H 0.41346 0.58344 0.88068 0.0
C66 C 0.81786 0.26796 0.41207 0.0
C67 C 0.80557 0.26241 0.42172 0.0
N68 N 0.80765 0.26835 0.43667 0.0
N69 N 0.82771 0.27736 0.42085 0.0
C70 C 0.82138 0.27705 0.43586 0.0
H71 H 0.8189 0.26622 0.39922 0.0
Co72 Co 0.84376 0.29078 0.41234 0.0
C73 C 0.8416 0.3145 0.44046 0.0
O74 O 0.83193 0.32481 0.43349 0.0
N75 N 0.86009 0.30439 0.40409 0.0
C76 C 0.87454 0.32642 0.39937 0.0
C77 C 0.86083 0.32049 0.40626 0.0
C78 C 0.87345 0.30092 0.3954 0.0
N79 N 0.88249 0.31411 0.39259 0.0
O80 O 0.85982 0.27582 0.41892 0.0
H81 H 0.85182 0.3277 0.4121 0.0
H82 H 0.8767 0.28901 0.39134 0.0
O83 O 0.84624 0.3018 0.43313 0.0
C84 C 0.86194 0.26558 0.40774 0.0
O85 O 0.85259 0.26637 0.39501 0.0
N86 N 0.82772 0.30463 0.40414 0.0
C87 C 0.80614 0.32543 0.38913 0.0
C88 C 0.8032 0.31977 0.40478 0.0
C89 C 0.81391 0.309 0.41189 0.0
C90 C 0.82966 0.30847 0.38828 0.0
C91 C 0.81923 0.31912 0.38064 0.0
H92 H 0.81147 0.3049 0.42395 0.0
H93 H 0.83962 0.30354 0.38153 0.0
H94 H 0.82612 0.28391 0.44582 0.0
H95 H 0.79525 0.25557 0.4177 0.0
H96 H 0.87825 0.3389 0.39908 0.0
H97 H 0.79312 0.3241 0.41179 0.0
H98 H 0.82154 0.32254 0.36829 0.0
C99 C 0.53256 0.93909 0.83858 0.0
C100 C 0.52611 0.95174 0.83011 0.0
N101 N 0.52161 0.94638 0.81551 0.0
N102 N 0.53242 0.92576 0.82934 0.0
C103 C 0.52499 0.93046 0.81563 0.0
H104 H 0.53767 0.93981 0.8505 0.0
Co105 Co 0.54196 0.90606 0.83521 0.0
C106 C 0.55197 0.90748 0.79958 0.0
O107 O 0.55207 0.92315 0.79761 0.0
N108 N 0.55131 0.88666 0.84125 0.0
C109 C 0.56819 0.86602 0.84195 0.0
C110 C 0.56536 0.88089 0.83552 0.0
C111 C 0.54594 0.87518 0.85145 0.0
N112 N 0.55596 0.8624 0.85191 0.0
O113 O 0.52257 0.89499 0.83048 0.0
H114 H 0.57309 0.88706 0.82708 0.0
H115 H 0.5348 0.87604 0.85814 0.0
O116 O 0.54875 0.90143 0.8133 0.0
C117 C 0.51057 0.89597 0.83988 0.0
O118 O 0.51115 0.90604 0.85205 0.0
N119 N 0.56122 0.91665 0.84082 0.0
C120 C 0.58908 0.93052 0.85346 0.0
C121 C 0.58757 0.92774 0.83691 0.0
C122 C 0.57359 0.92079 0.83084 0.0
C123 C 0.56256 0.91906 0.857 0.0
C124 C 0.57634 0.92612 0.86358 0.0
H125 H 0.57317 0.91852 0.81819 0.0
H126 H 0.55282 0.91544 0.86483 0.0
H127 H 0.5227 0.9225 0.80559 0.0
H128 H 0.52585 0.96417 0.834 0.0
H129 H 0.57858 0.85851 0.83966 0.0
H130 H 0.59705 0.93113 0.82864 0.0
H131 H 0.57705 0.928 0.87645 0.0
C132 C 0.18851 0.78284 0.08831 0.0
C133 C 0.20068 0.77606 0.07939 0.0
N134 N 0.19526 0.77366 0.06434 0.0
N135 N 0.17544 0.78508 0.07892 0.0
C136 C 0.17977 0.77862 0.06458 0.0
H137 H 0.18943 0.78614 0.10082 0.0
Co138 Co 0.15581 0.79534 0.0847 0.0
C139 C 0.16049 0.80753 0.0508 0.0
O140 O 0.17597 0.81023 0.05258 0.0
N141 N 0.13643 0.80512 0.09043 0.0
C142 C 0.1143 0.82005 0.08973 0.0
C143 C 0.12849 0.81661 0.08213 0.0
C144 C 0.12687 0.80194 0.10323 0.0
N145 N 0.11323 0.8108 0.10295 0.0
O146 O 0.14438 0.77606 0.08022 0.0
H147 H 0.13261 0.82223 0.07117 0.0
H148 H 0.1297 0.79307 0.11233 0.0
O149 O 0.15226 0.80198 0.06251 0.0
C150 C 0.14571 0.76492 0.0906 0.0
O151 O 0.15578 0.76689 0.10262 0.0
N152 N 0.16675 0.81439 0.09042 0.0
C153 C 0.18448 0.84027 0.10247 0.0
C154 C 0.17631 0.84152 0.08775 0.0
C155 C 0.16721 0.82857 0.08212 0.0
C156 C 0.17322 0.81361 0.10545 0.0
C157 C 0.18239 0.82626 0.1116 0.0
H158 H 0.1605 0.83023 0.0712 0.0
H159 H 0.17136 0.80297 0.11269 0.0
H160 H 0.17187 0.77792 0.05428 0.0
H161 H 0.21286 0.7739 0.08347 0.0
H162 H 0.10549 0.82886 0.08593 0.0
H163 H 0.1772 0.85224 0.08042 0.0
H164 H 0.18784 0.82502 0.12337 0.0
C165 C 0.03763 0.56145 0.1601 0.0
C166 C 0.03132 0.54802 0.16733 0.0
N167 N 0.02601 0.5521 0.18212 0.0
N168 N 0.0366 0.57403 0.17026 0.0
C169 C 0.02862 0.56816 0.18318 0.0
H170 H 0.04331 0.56184 0.1484 0.0
Co171 Co 0.0461 0.59415 0.16614 0.0
C172 C 0.05604 0.58954 0.2018 0.0
O173 O 0.05417 0.57391 0.20304 0.0
N174 N 0.05542 0.61398 0.16163 0.0
C175 C 0.07393 0.63311 0.15966 0.0
C176 C 0.06961 0.61928 0.16751 0.0
C177 C 0.05131 0.62481 0.15021 0.0
N178 N 0.06242 0.63655 0.14886 0.0
O179 O 0.02673 0.60482 0.17174 0.0
H180 H 0.07695 0.61286 0.17611 0.0
H181 H 0.04103 0.6235 0.14233 0.0
O182 O 0.05345 0.59672 0.18845 0.0
C183 C 0.01582 0.60457 0.16105 0.0
O184 O 0.01788 0.59543 0.14832 0.0
N185 N 0.06518 0.5841 0.15936 0.0
C186 C 0.09314 0.57153 0.14562 0.0
C187 C 0.08944 0.56879 0.16189 0.0
C188 C 0.07544 0.57521 0.16854 0.0
C189 C 0.06829 0.58648 0.14343 0.0
C190 C 0.08228 0.5805 0.13635 0.0
H191 H 0.07289 0.57276 0.18091 0.0
H192 H 0.05988 0.59326 0.13618 0.0
H193 H 0.02579 0.57534 0.19365 0.0
H194 H 0.03131 0.53604 0.16227 0.0
H195 H 0.08507 0.63969 0.16112 0.0
H196 H 0.09712 0.56146 0.16943 0.0
H197 H 0.08454 0.58296 0.12377 0.0
C198 C 0.81892 0.72134 0.08683 0.0
C199 C 0.8064 0.72639 0.07726 0.0
N200 N 0.80936 0.72173 0.06202 0.0
N201 N 0.82982 0.71355 0.07771 0.0
C202 C 0.82379 0.71421 0.06259 0.0
H203 H 0.81958 0.7224 0.09978 0.0
Co204 Co 0.84721 0.7019 0.08612 0.0
C205 C 0.8477 0.67727 0.05891 0.0
O206 O 0.84103 0.66558 0.06714 0.0
N207 N 0.8648 0.6905 0.09466 0.0
C208 C 0.88072 0.67076 0.10311 0.0
C209 C 0.86775 0.67454 0.09374 0.0
C210 C 0.87638 0.69619 0.10463 0.0
N211 N 0.88609 0.68433 0.10999 0.0
O212 O 0.86178 0.7182 0.07891 0.0
H213 H 0.86043 0.66584 0.08767 0.0
H214 H 0.8772 0.70858 0.1085 0.0
O215 O 0.85027 0.69098 0.06539 0.0
C216 C 0.86162 0.73144 0.08658 0.0
O217 O 0.85129 0.73335 0.09838 0.0
N218 N 0.83262 0.68634 0.09434 0.0
C219 C 0.81268 0.66304 0.10794 0.0
C220 C 0.80954 0.66909 0.09253 0.0
C221 C 0.81951 0.6809 0.08604 0.0
C222 C 0.83479 0.68173 0.10998 0.0
C223 C 0.82527 0.66973 0.11686 0.0
H224 H 0.8171 0.68503 0.07397 0.0
H225 H 0.84421 0.68711 0.11714 0.0
H226 H 0.82941 0.70852 0.05234 0.0
H227 H 0.79546 0.73207 0.08144 0.0
H228 H 0.88559 0.65884 0.1051 0.0
H229 H 0.79978 0.66435 0.08531 0.0
H230 H 0.82769 0.66577 0.12903 0.0
C231 C 0.97186 0.92994 0.16029 0.0
C232 C 0.97656 0.94302 0.16932 0.0
N233 N 0.97317 0.94002 0.1849 0.0
N234 N 0.9655 0.91871 0.17007 0.0
C235 C 0.96686 0.92503 0.18503 0.0
H236 H 0.97199 0.92915 0.1473 0.0
Co237 Co 0.95405 0.90048 0.16307 0.0
C238 C 0.93295 0.90045 0.19307 0.0
O239 O 0.92075 0.90803 0.18656 0.0
N240 N 0.94282 0.88202 0.15617 0.0
C241 C 0.92329 0.86422 0.15223 0.0
C242 C 0.92809 0.87721 0.16108 0.0
C243 C 0.94676 0.87156 0.14429 0.0
N244 N 0.93494 0.86073 0.14156 0.0
O245 O 0.97187 0.88716 0.16872 0.0
H246 H 0.92074 0.8831 0.16991 0.0
H247 H 0.95765 0.87243 0.13722 0.0
O248 O 0.94549 0.8971 0.18483 0.0
C249 C 0.98313 0.88719 0.15835 0.0
O250 O 0.98157 0.89631 0.14554 0.0
N251 N 0.93682 0.914 0.15605 0.0
C252 C 0.91225 0.93311 0.14333 0.0
C253 C 0.9197 0.93723 0.15787 0.0
C254 C 0.93213 0.92771 0.16386 0.0
C255 C 0.93054 0.91068 0.14121 0.0
C256 C 0.91796 0.91978 0.13484 0.0
H257 H 0.93748 0.93111 0.17517 0.0
H258 H 0.9353 0.90096 0.13405 0.0
H259 H 0.96236 0.91921 0.19574 0.0
H260 H 0.98099 0.95431 0.1646 0.0
H261 H 0.91188 0.85804 0.15329 0.0
H262 H 0.91577 0.94758 0.16474 0.0
H263 H 0.91297 0.9166 0.12324 0.0
C264 C 0.40772 0.18596 0.22216 0.0
C265 C 0.41611 0.19976 0.22579 0.0
N266 N 0.43173 0.19737 0.22214 0.0
N267 N 0.41796 0.17493 0.21614 0.0
C268 C 0.43257 0.18209 0.21665 0.0
H269 H 0.39482 0.1844 0.22287 0.0
Co270 Co 0.4115 0.15576 0.20624 0.0
C271 C 0.43993 0.15568 0.18302 0.0
O272 O 0.43214 0.16179 0.17074 0.0
N273 N 0.40514 0.13634 0.1967 0.0
C274 C 0.4026 0.11573 0.17991 0.0
C275 C 0.40927 0.13061 0.18206 0.0
C276 C 0.39561 0.12479 0.20308 0.0
N277 N 0.39405 0.11206 0.19312 0.0
O278 O 0.41926 0.14377 0.22417 0.0
H279 H 0.4163 0.13684 0.17319 0.0
H280 H 0.39 0.12563 0.2148 0.0
O281 O 0.43281 0.15313 0.19639 0.0
C282 C 0.41063 0.14389 0.23679 0.0
O283 O 0.39779 0.1531 0.23715 0.0
N284 N 0.40262 0.16772 0.18881 0.0
C285 C 0.38848 0.18353 0.16279 0.0
C286 C 0.40294 0.18909 0.1694 0.0
C287 C 0.40961 0.18126 0.18263 0.0
C288 C 0.38768 0.16324 0.18355 0.0
C289 C 0.3805 0.17081 0.17037 0.0
H290 H 0.42094 0.18561 0.18721 0.0
H291 H 0.38129 0.15356 0.18939 0.0
H292 H 0.4434 0.17677 0.2118 0.0
H293 H 0.41098 0.21091 0.23012 0.0
H294 H 0.40355 0.10834 0.16923 0.0
H295 H 0.40918 0.1993 0.16426 0.0
H296 H 0.36904 0.16649 0.16592 0.0
C297 C 0.43453 0.33876 0.03197 0.0
C298 C 0.44769 0.33009 0.0269 0.0
N299 N 0.44514 0.31441 0.03019 0.0
N300 N 0.42365 0.32866 0.03843 0.0
C301 C 0.4303 0.31388 0.03688 0.0
H302 H 0.43325 0.3517 0.03162 0.0
Co303 Co 0.40492 0.33535 0.04903 0.0
C304 C 0.40286 0.30488 0.06936 0.0
O305 O 0.40927 0.31113 0.08234 0.0
N306 N 0.38589 0.34215 0.05929 0.0
C307 C 0.36549 0.34473 0.07641 0.0
C308 C 0.37955 0.33677 0.07326 0.0
C309 C 0.37551 0.35371 0.05436 0.0
N310 N 0.36295 0.35538 0.06453 0.0
O311 O 0.39274 0.33036 0.03021 0.0
H312 H 0.38483 0.32794 0.08107 0.0
H313 H 0.37709 0.36077 0.04355 0.0
O314 O 0.40078 0.31334 0.05669 0.0
C315 C 0.39293 0.34143 0.01965 0.0
O316 O 0.40122 0.35455 0.02266 0.0
N317 N 0.41742 0.34159 0.06717 0.0
C318 C 0.43597 0.35361 0.09248 0.0
C319 C 0.43961 0.33874 0.08547 0.0
C320 C 0.43047 0.33316 0.07257 0.0
C321 C 0.41438 0.35656 0.07326 0.0
C322 C 0.42337 0.36271 0.08605 0.0
H323 H 0.43371 0.32177 0.0673 0.0
H324 H 0.40508 0.364 0.06808 0.0
H325 H 0.42488 0.30307 0.04163 0.0
H326 H 0.45847 0.33511 0.02163 0.0
H327 H 0.3579 0.34314 0.08688 0.0
H328 H 0.44965 0.33161 0.08972 0.0
H329 H 0.42049 0.37448 0.09084 0.0
C330 C 0.58012 0.3244 0.23224 0.0
C331 C 0.56909 0.31227 0.23404 0.0
N332 N 0.55917 0.31245 0.22124 0.0
N333 N 0.5772 0.33231 0.2184 0.0
C334 C 0.5643 0.32477 0.21192 0.0
H335 H 0.59008 0.32687 0.24021 0.0
Co336 Co 0.59124 0.34771 0.21028 0.0
C337 C 0.57011 0.37091 0.19146 0.0
O338 O 0.58208 0.37906 0.18521 0.0
N339 N 0.60639 0.36272 0.20282 0.0
C340 C 0.62999 0.37218 0.19438 0.0
C341 C 0.62065 0.3587 0.19611 0.0
C342 C 0.60764 0.37875 0.20554 0.0
N343 N 0.62175 0.38477 0.20025 0.0
O344 O 0.5881 0.36056 0.22902 0.0
H345 H 0.62435 0.34665 0.19303 0.0
H346 H 0.59844 0.38588 0.21139 0.0
O347 O 0.57288 0.35878 0.20051 0.0
C348 C 0.59871 0.36074 0.24002 0.0
O349 O 0.61141 0.35144 0.23856 0.0
N350 N 0.59458 0.33479 0.19197 0.0
C351 C 0.60277 0.31469 0.1663 0.0
C352 C 0.59292 0.32817 0.16393 0.0
C353 C 0.58909 0.33812 0.17685 0.0
C354 C 0.60386 0.32155 0.19463 0.0
C355 C 0.60823 0.31141 0.18196 0.0
H356 H 0.58183 0.34849 0.1744 0.0
H357 H 0.60828 0.31913 0.20663 0.0
H358 H 0.55939 0.3276 0.2002 0.0
H359 H 0.56858 0.30375 0.24387 0.0
H360 H 0.64183 0.37276 0.18898 0.0
H361 H 0.58808 0.33102 0.15219 0.0
H362 H 0.61602 0.30127 0.1844 0.0
C363 C 0.56677 0.15877 0.02763 0.0
C364 C 0.55466 0.16913 0.02329 0.0
N365 N 0.55824 0.18391 0.02894 0.0
N366 N 0.57808 0.16688 0.03591 0.0
C367 C 0.57257 0.1822 0.0365 0.0
H368 H 0.56698 0.14593 0.02556 0.0
Co369 Co 0.59534 0.15662 0.046 0.0
C370 C 0.60571 0.18032 0.07111 0.0
O371 O 0.60594 0.16926 0.08233 0.0
N372 N 0.61296 0.14559 0.05609 0.0
C373 C 0.62858 0.1325 0.07366 0.0
C374 C 0.61381 0.13929 0.07114 0.0
C375 C 0.62753 0.14191 0.04963 0.0
N376 N 0.63711 0.13412 0.06012 0.0
O377 O 0.6092 0.16282 0.02881 0.0
H378 H 0.60449 0.13974 0.08016 0.0
H379 H 0.63125 0.1449 0.03758 0.0
O380 O 0.60129 0.17673 0.05684 0.0
C381 C 0.60843 0.15535 0.01549 0.0
O382 O 0.59738 0.14422 0.0136 0.0
N383 N 0.58121 0.15008 0.06226 0.0
C384 C 0.563 0.13802 0.08765 0.0
C385 C 0.56387 0.15467 0.08473 0.0
C386 C 0.573 0.16045 0.07193 0.0
C387 C 0.5787 0.13393 0.06346 0.0
C388 C 0.57008 0.12758 0.0764 0.0
H389 H 0.57368 0.17328 0.07 0.0
H390 H 0.58449 0.12588 0.05503 0.0
H391 H 0.57866 0.19179 0.04281 0.0
H392 H 0.54366 0.1658 0.01719 0.0
H393 H 0.6328 0.12682 0.08459 0.0
H394 H 0.55771 0.16324 0.09235 0.0
H395 H 0.56956 0.11466 0.07782 0.0
C396 C 0.40997 0.81808 0.27276 0.0
C397 C 0.41989 0.80545 0.2686 0.0
N398 N 0.4332 0.80614 0.27783 0.0
N399 N 0.41704 0.82681 0.28444 0.0
C400 C 0.43118 0.81925 0.2872 0.0
H401 H 0.39803 0.82022 0.26809 0.0
Co402 Co 0.40792 0.84354 0.29645 0.0
C403 C 0.43573 0.86306 0.30549 0.0
O404 O 0.42819 0.87587 0.30012 0.0
N405 N 0.39889 0.86011 0.30897 0.0
C406 C 0.39482 0.87592 0.33014 0.0
C407 C 0.40243 0.86241 0.32467 0.0
C408 C 0.38882 0.87236 0.30524 0.0
N409 N 0.38635 0.88224 0.3179 0.0
O410 O 0.41055 0.85783 0.27874 0.0
H411 H 0.41049 0.855 0.33167 0.0
H412 H 0.38382 0.87442 0.29343 0.0
O413 O 0.42901 0.84928 0.30469 0.0
C414 C 0.39812 0.85767 0.26981 0.0
O415 O 0.38608 0.84825 0.27387 0.0
N416 N 0.40397 0.8292 0.31298 0.0
C417 C 0.39295 0.80878 0.33693 0.0
C418 C 0.40941 0.81243 0.33568 0.0
C419 C 0.41473 0.82276 0.32355 0.0
C420 C 0.38807 0.82539 0.31372 0.0
C421 C 0.38225 0.8153 0.32571 0.0
H422 H 0.42736 0.82574 0.32285 0.0
H423 H 0.37984 0.83051 0.30504 0.0
H424 H 0.43964 0.82293 0.29631 0.0
H425 H 0.4171 0.79604 0.26006 0.0
H426 H 0.39558 0.88082 0.34218 0.0
H427 H 0.41801 0.80762 0.34421 0.0
H428 H 0.36952 0.81256 0.32614 0.0
C429 C 0.06162 0.34239 0.97102 0.0
C430 C 0.0498 0.33196 0.97601 0.0
N431 N 0.05408 0.31689 0.97175 0.0
N432 N 0.07335 0.33401 0.96363 0.0
C433 C 0.06854 0.3185 0.96443 0.0
H434 H 0.06131 0.35536 0.97193 0.0
Co435 Co 0.09044 0.34343 0.95251 0.0
C436 C 0.09406 0.31779 0.92669 0.0
O437 O 0.08877 0.32681 0.9149 0.0
N438 N 0.10782 0.35301 0.9414 0.0
C439 C 0.12416 0.36175 0.92204 0.0
C440 C 0.10952 0.35502 0.92533 0.0
C441 C 0.12159 0.35914 0.94764 0.0
N442 N 0.13169 0.36429 0.93606 0.0
O443 O 0.10504 0.33627 0.96877 0.0
H444 H 0.1005 0.35249 0.9164 0.0
H445 H 0.12428 0.35973 0.96034 0.0
O446 O 0.09461 0.32325 0.94105 0.0
C447 C 0.10439 0.34351 0.98224 0.0
O448 O 0.09352 0.35478 0.98433 0.0
N449 N 0.07567 0.3514 0.93726 0.0
C450 C 0.05412 0.36573 0.91594 0.0
C451 C 0.05307 0.34926 0.91948 0.0
C452 C 0.06381 0.34237 0.93038 0.0
C453 C 0.07604 0.36765 0.93489 0.0
C454 C 0.06564 0.375 0.92397 0.0
H455 H 0.06277 0.3297 0.93308 0.0
H456 H 0.08467 0.37494 0.94134 0.0
H457 H 0.07521 0.30865 0.95919 0.0
H458 H 0.03851 0.33538 0.9815 0.0
H459 H 0.12882 0.36493 0.9103 0.0
H460 H 0.04421 0.34167 0.91367 0.0
H461 H 0.0665 0.38785 0.92197 0.0
C462 C 0.58533 0.68029 0.27797 0.0
C463 C 0.57596 0.69373 0.27596 0.0
N464 N 0.56097 0.69038 0.28116 0.0
N465 N 0.57635 0.66844 0.28437 0.0
C466 C 0.56154 0.67492 0.28625 0.0
H467 H 0.59799 0.67923 0.27516 0.0
Co468 Co 0.58504 0.64851 0.28929 0.0
C469 C 0.56227 0.63231 0.31087 0.0
O470 O 0.57447 0.62734 0.31962 0.0
N471 N 0.59426 0.62813 0.29364 0.0
C472 C 0.59743 0.60153 0.29252 0.0
C473 C 0.58769 0.61417 0.28844 0.0
C474 C 0.60808 0.6235 0.30094 0.0
N475 N 0.61023 0.60742 0.3004 0.0
O476 O 0.57814 0.64043 0.26912 0.0
H477 H 0.57629 0.61316 0.28228 0.0
H478 H 0.61657 0.63156 0.30651 0.0
O479 O 0.5647 0.64125 0.29861 0.0
C480 C 0.58826 0.64091 0.2577 0.0
O481 O 0.60167 0.649 0.2598 0.0
N482 N 0.5924 0.65719 0.30885 0.0
C483 C 0.60522 0.67301 0.33547 0.0
C484 C 0.58879 0.66946 0.33472 0.0
C485 C 0.58252 0.66204 0.32108 0.0
C486 C 0.60827 0.66134 0.30903 0.0
C487 C 0.61501 0.66909 0.32233 0.0
H488 H 0.56964 0.66092 0.32019 0.0
H489 H 0.61568 0.65882 0.29864 0.0
H490 H 0.55138 0.66845 0.29118 0.0
H491 H 0.58 0.70521 0.27135 0.0
H492 H 0.59503 0.58892 0.29034 0.0
H493 H 0.58069 0.67319 0.34422 0.0
H494 H 0.62765 0.67224 0.32224 0.0
C495 C 0.93556 0.15924 0.96309 0.0
C496 C 0.94948 0.16743 0.96654 0.0
N497 N 0.94578 0.183 0.96879 0.0
N498 N 0.92306 0.16963 0.96258 0.0
C499 C 0.92966 0.18389 0.96695 0.0
H500 H 0.93486 0.14645 0.96121 0.0
Co501 Co 0.90122 0.16535 0.95751 0.0
C502 C 0.90727 0.19589 0.93961 0.0
O503 O 0.92142 0.19081 0.93469 0.0
N504 N 0.87975 0.16118 0.95322 0.0
C505 C 0.85327 0.16401 0.95207 0.0
C506 C 0.8675 0.1715 0.95572 0.0
C507 C 0.87271 0.14745 0.94819 0.0
N508 N 0.85653 0.14887 0.94726 0.0
O509 O 0.895 0.17352 0.97784 0.0
H510 H 0.86881 0.18362 0.96023 0.0
H511 H 0.87937 0.13669 0.94517 0.0
O512 O 0.89852 0.18686 0.94844 0.0
C513 C 0.89513 0.16361 0.98944 0.0
O514 O 0.90195 0.14951 0.98728 0.0
N515 N 0.90682 0.15637 0.93735 0.0
C516 C 0.91941 0.14281 0.90943 0.0
C517 C 0.90985 0.1567 0.90865 0.0
C518 C 0.90321 0.163 0.92274 0.0
C519 C 0.91362 0.14149 0.93791 0.0
C520 C 0.92033 0.1346 0.92415 0.0
H521 H 0.89553 0.1734 0.92182 0.0
H522 H 0.9142 0.13509 0.94921 0.0
H523 H 0.92287 0.19492 0.96809 0.0
H524 H 0.96144 0.16232 0.96725 0.0
H525 H 0.84143 0.1693 0.95317 0.0
H526 H 0.90815 0.16315 0.89747 0.0
H527 H 0.92664 0.12326 0.92516 0.0
C528 C 0.22602 0.41105 0.17772 0.0
C529 C 0.2321 0.41977 0.19042 0.0
N530 N 0.22873 0.43544 0.18798 0.0
N531 N 0.21868 0.42113 0.16737 0.0
C532 C 0.22089 0.43595 0.17375 0.0
H533 H 0.22604 0.39809 0.17657 0.0
Co534 Co 0.2057 0.41462 0.15011 0.0
C535 C 0.18367 0.44384 0.15264 0.0
O536 O 0.17222 0.43646 0.16059 0.0
N537 N 0.19289 0.40817 0.13241 0.0
C538 C 0.17255 0.40568 0.11519 0.0
C539 C 0.17744 0.41227 0.12946 0.0
C540 C 0.19698 0.39867 0.11979 0.0
N541 N 0.18485 0.39717 0.10908 0.0
O542 O 0.22215 0.42113 0.13554 0.0
H543 H 0.16985 0.41922 0.13726 0.0
H544 H 0.2086 0.39304 0.11833 0.0
O545 O 0.19639 0.43631 0.14836 0.0
C546 C 0.23245 0.41004 0.13339 0.0
O547 O 0.23086 0.39659 0.14155 0.0
N548 N 0.19001 0.40683 0.16484 0.0
C549 C 0.16658 0.39391 0.18508 0.0
C550 C 0.17442 0.40826 0.18909 0.0
C551 C 0.18633 0.41434 0.179 0.0
C552 C 0.18374 0.39194 0.16174 0.0
C553 C 0.17177 0.38538 0.17153 0.0
H554 H 0.19187 0.42561 0.1822 0.0
H555 H 0.18778 0.38512 0.15144 0.0
H556 H 0.2157 0.44679 0.16879 0.0
H557 H 0.23797 0.41487 0.20095 0.0
H558 H 0.16071 0.40674 0.10987 0.0
H559 H 0.17116 0.41492 0.1998 0.0
H560 H 0.16632 0.37401 0.16827 0.0
C561 C 0.2154 0.58788 0.30951 0.0
C562 C 0.22113 0.57993 0.2962 0.0
N563 N 0.22676 0.56546 0.30084 0.0
N564 N 0.21709 0.57843 0.32258 0.0
C565 C 0.22479 0.5652 0.31701 0.0
H566 H 0.20968 0.59953 0.30938 0.0
Co567 Co 0.20882 0.58237 0.34337 0.0
C568 C 0.19717 0.54827 0.3368 0.0
O569 O 0.19551 0.55015 0.32119 0.0
N570 N 0.20081 0.58641 0.36383 0.0
C571 C 0.18635 0.58493 0.3862 0.0
C572 C 0.18908 0.57815 0.37145 0.0
C573 C 0.20479 0.5984 0.37405 0.0
N574 N 0.19622 0.59765 0.38785 0.0
O575 O 0.22883 0.57647 0.35265 0.0
H576 H 0.18247 0.56815 0.36646 0.0
H577 H 0.21365 0.60755 0.37137 0.0
O578 O 0.20183 0.56003 0.3455 0.0
C579 C 0.23989 0.58698 0.35166 0.0
O580 O 0.23728 0.59996 0.34303 0.0
N581 N 0.18919 0.58955 0.3348 0.0
C582 C 0.16219 0.60492 0.32189 0.0
C583 C 0.16219 0.58826 0.32479 0.0
C584 C 0.17562 0.58089 0.3316 0.0
C585 C 0.1891 0.60584 0.333 0.0
C586 C 0.17577 0.61378 0.32655 0.0
H587 H 0.17477 0.56833 0.33434 0.0
H588 H 0.19965 0.61268 0.33635 0.0
H589 H 0.22791 0.55509 0.32457 0.0
H590 H 0.22011 0.58408 0.2839 0.0
H591 H 0.17728 0.58124 0.39478 0.0
H592 H 0.15208 0.58075 0.32151 0.0
H593 H 0.17625 0.6267 0.32512 0.0
C594 C 0.84392 0.53184 0.93732 0.0
C595 C 0.83628 0.52599 0.95076 0.0
N596 N 0.82067 0.52356 0.94719 0.0
N597 N 0.83318 0.53351 0.92525 0.0
C598 C 0.81937 0.52746 0.93144 0.0
H599 H 0.85652 0.53481 0.93666 0.0
Co600 Co 0.83677 0.5426 0.90461 0.0
C601 C 0.80376 0.55548 0.91233 0.0
O602 O 0.80759 0.55891 0.92729 0.0
N603 N 0.84046 0.55116 0.88424 0.0
C604 C 0.83789 0.56453 0.86128 0.0
C605 C 0.8312 0.5617 0.87605 0.0
C606 C 0.85289 0.54797 0.87426 0.0
N607 N 0.85149 0.55583 0.86012 0.0
O608 O 0.83145 0.52262 0.89493 0.0
H609 H 0.82036 0.56729 0.88049 0.0
H610 H 0.86269 0.53995 0.87724 0.0
O611 O 0.81423 0.54919 0.90301 0.0
C612 C 0.84382 0.5137 0.89383 0.0
O613 O 0.8571 0.51839 0.90101 0.0
N614 N 0.8435 0.56229 0.91361 0.0
C615 C 0.85775 0.58983 0.92646 0.0
C616 C 0.84232 0.5905 0.91969 0.0
C617 C 0.83552 0.57666 0.91305 0.0
C618 C 0.85907 0.56186 0.91874 0.0
C619 C 0.8663 0.57535 0.92562 0.0
H620 H 0.82404 0.57781 0.90722 0.0
H621 H 0.86599 0.55095 0.91737 0.0
H622 H 0.8083 0.52666 0.9247 0.0
H623 H 0.84182 0.52407 0.96237 0.0
H624 H 0.83333 0.57272 0.85225 0.0
H625 H 0.83543 0.60156 0.91976 0.0
H626 H 0.87848 0.57449 0.93015 0.0
C627 C 0.77288 0.90867 0.31427 0.0
C628 C 0.76771 0.91808 0.30162 0.0
N629 N 0.77234 0.93337 0.30438 0.0
N630 N 0.78076 0.91799 0.32494 0.0
C631 C 0.77987 0.93301 0.31876 0.0
H632 H 0.77179 0.89575 0.31521 0.0
Co633 Co 0.79251 0.91071 0.34272 0.0
C634 C 0.81478 0.94005 0.3413 0.0
O635 O 0.82594 0.93382 0.33208 0.0
N636 N 0.80422 0.90377 0.36085 0.0
C637 C 0.82413 0.90093 0.37847 0.0
C638 C 0.81968 0.90762 0.36411 0.0
C639 C 0.79964 0.89438 0.37335 0.0
N640 N 0.81153 0.89264 0.38428 0.0
O641 O 0.77567 0.91779 0.35651 0.0
H642 H 0.82747 0.91454 0.35642 0.0
H643 H 0.78785 0.88905 0.37459 0.0
O644 O 0.80248 0.93187 0.34549 0.0
C645 C 0.76491 0.90715 0.35864 0.0
O646 O 0.76625 0.8934 0.35095 0.0
N647 N 0.80867 0.90235 0.3288 0.0
C648 C 0.83376 0.88885 0.31108 0.0
C649 C 0.82647 0.90322 0.3061 0.0
C650 C 0.81367 0.90957 0.31491 0.0
C651 C 0.81418 0.88728 0.33244 0.0
C652 C 0.82699 0.88048 0.324 0.0
H653 H 0.80849 0.92079 0.31099 0.0
H654 H 0.809 0.88059 0.3423 0.0
H655 H 0.7853 0.94344 0.32427 0.0
H656 H 0.76191 0.91381 0.29077 0.0
H657 H 0.83583 0.90184 0.3841 0.0
H658 H 0.83083 0.9097 0.29567 0.0
H659 H 0.83188 0.86907 0.32795 0.0
C660 C 0.66232 0.46733 0.44259 0.0
C661 C 0.67092 0.47218 0.45591 0.0
N662 N 0.68646 0.47339 0.45168 0.0
N663 N 0.67243 0.46516 0.43002 0.0
C664 C 0.68696 0.46964 0.43592 0.0
H665 H 0.64948 0.46552 0.44232 0.0
Co666 Co 0.66785 0.45823 0.40867 0.0
C667 C 0.69899 0.44132 0.41536 0.0
O668 O 0.69433 0.43652 0.42969 0.0
N669 N 0.66347 0.45185 0.38755 0.0
C670 C 0.66593 0.44181 0.36294 0.0
C671 C 0.67339 0.44392 0.37742 0.0
C672 C 0.6499 0.45432 0.37889 0.0
N673 N 0.65117 0.44839 0.36378 0.0
O674 O 0.67531 0.4782 0.40065 0.0
H675 H 0.68526 0.43953 0.38024 0.0
H676 H 0.63936 0.46036 0.38358 0.0
O677 O 0.68956 0.44972 0.40665 0.0
C678 C 0.66596 0.49015 0.40243 0.0
O679 O 0.65286 0.48835 0.41109 0.0
N680 N 0.65933 0.43851 0.41595 0.0
C681 C 0.6438 0.41083 0.42697 0.0
C682 C 0.65841 0.40976 0.4186 0.0
C683 C 0.66576 0.4237 0.41281 0.0
C684 C 0.64434 0.43958 0.42247 0.0
C685 C 0.63649 0.42597 0.42839 0.0
H686 H 0.6765 0.42241 0.40567 0.0
H687 H 0.63831 0.45108 0.42292 0.0
H688 H 0.69789 0.47 0.42888 0.0
H689 H 0.66622 0.47403 0.46791 0.0
H690 H 0.67081 0.43537 0.35273 0.0
H691 H 0.66435 0.39831 0.41681 0.0
H692 H 0.62481 0.42729 0.43401 0.0
C693 C 0.27954 0.59134 0.68446 0.0
C694 C 0.27453 0.58284 0.69777 0.0
N695 N 0.27631 0.56702 0.69471 0.0
N696 N 0.28462 0.58095 0.6731 0.0
C697 C 0.28211 0.56622 0.67955 0.0
H698 H 0.28045 0.60428 0.68351 0.0
Co699 Co 0.29585 0.58669 0.65438 0.0
C700 C 0.31583 0.55601 0.65508 0.0
O701 O 0.32851 0.56253 0.6618 0.0
N702 N 0.30671 0.59228 0.63537 0.0
C703 C 0.32367 0.59286 0.6147 0.0
C704 C 0.32018 0.58566 0.62909 0.0
C705 C 0.30245 0.60376 0.62464 0.0
N706 N 0.31252 0.60421 0.61193 0.0
O707 O 0.27759 0.5814 0.64174 0.0
H708 H 0.32738 0.57643 0.63457 0.0
H709 H 0.2922 0.61166 0.62612 0.0
O710 O 0.30344 0.56447 0.65173 0.0
C711 C 0.26711 0.59255 0.64164 0.0
O712 O 0.26944 0.6052 0.65082 0.0
N713 N 0.31359 0.59357 0.66708 0.0
C714 C 0.33812 0.60701 0.68573 0.0
C715 C 0.33076 0.59253 0.69029 0.0
C716 C 0.3183 0.58622 0.68101 0.0
C717 C 0.31998 0.60819 0.6631 0.0
C718 C 0.33247 0.61494 0.67203 0.0
H719 H 0.31278 0.57513 0.68489 0.0
H720 H 0.31523 0.61498 0.65312 0.0
H721 H 0.28574 0.55511 0.67385 0.0
H722 H 0.2706 0.58794 0.70909 0.0
H723 H 0.33392 0.59033 0.60707 0.0
H724 H 0.33467 0.58601 0.70086 0.0
H725 H 0.33737 0.62646 0.66845 0.0
C726 C 0.84305 0.45972 0.56758 0.0
C727 C 0.83387 0.46667 0.55567 0.0
N728 N 0.81906 0.46935 0.56159 0.0
N729 N 0.83402 0.45775 0.58094 0.0
C730 C 0.81965 0.4644 0.57705 0.0
H731 H 0.8554 0.45594 0.56629 0.0
Co732 Co 0.84047 0.44758 0.60028 0.0
C733 C 0.80699 0.4343 0.59548 0.0
O734 O 0.80843 0.43305 0.57978 0.0
N735 N 0.84701 0.43784 0.61927 0.0
C736 C 0.85004 0.42007 0.63894 0.0
C737 C 0.84121 0.42406 0.62561 0.0
C738 C 0.8593 0.44209 0.62903 0.0
N739 N 0.86141 0.43139 0.64106 0.0
O740 O 0.83474 0.46621 0.61203 0.0
H741 H 0.83148 0.41704 0.62065 0.0
H742 H 0.86692 0.45244 0.627 0.0
O743 O 0.81878 0.4393 0.60394 0.0
C744 C 0.84481 0.47765 0.61098 0.0
O745 O 0.8571 0.47612 0.60115 0.0
N746 N 0.84759 0.42931 0.58901 0.0
C747 C 0.86322 0.40417 0.57296 0.0
C748 C 0.84715 0.40266 0.57803 0.0
C749 C 0.83974 0.41513 0.58643 0.0
C750 C 0.86341 0.43072 0.58498 0.0
C751 C 0.87147 0.41835 0.57696 0.0
H752 H 0.8279 0.41296 0.59106 0.0
H753 H 0.86984 0.44161 0.58805 0.0
H754 H 0.8095 0.46498 0.58518 0.0
H755 H 0.83751 0.46865 0.54333 0.0
H756 H 0.84838 0.40954 0.64642 0.0
H757 H 0.84012 0.39204 0.5754 0.0
H758 H 0.88402 0.41999 0.57395 0.0
C759 C 0.1723 0.01369 0.57654 0.0
C760 C 0.18423 0.00937 0.56591 0.0
N761 N 0.19304 0.02254 0.56237 0.0
N762 N 0.17356 0.02948 0.57981 0.0
C763 C 0.18632 0.03456 0.57106 0.0
H764 H 0.16291 0.00594 0.58113 0.0
Co765 Co 0.15885 0.04131 0.59178 0.0
C766 C 0.17816 0.06742 0.60777 0.0
O767 O 0.16561 0.07666 0.61032 0.0
N768 N 0.14331 0.05304 0.60383 0.0
C769 C 0.12096 0.06628 0.61042 0.0
C770 C 0.13014 0.06062 0.59799 0.0
C771 C 0.14167 0.05426 0.62003 0.0
N772 N 0.12814 0.06222 0.62431 0.0
O773 O 0.16176 0.02693 0.60941 0.0
H774 H 0.12697 0.06186 0.58551 0.0
H775 H 0.1501 0.04918 0.62853 0.0
O776 O 0.17655 0.0541 0.60028 0.0
C777 C 0.15019 0.01778 0.6134 0.0
O778 O 0.13654 0.01852 0.6055 0.0
N779 N 0.15561 0.05468 0.57397 0.0
C780 C 0.14455 0.07341 0.54871 0.0
C781 C 0.1573 0.07874 0.55829 0.0
C782 C 0.1627 0.06917 0.57093 0.0
C783 C 0.14427 0.04866 0.56374 0.0
C784 C 0.13823 0.05804 0.5512 0.0
H785 H 0.17234 0.07367 0.57825 0.0
H786 H 0.13907 0.03698 0.56612 0.0
H787 H 0.1903 0.04693 0.57079 0.0
H788 H 0.18577 0.99757 0.56064 0.0
H789 H 0.10984 0.07295 0.60928 0.0
H790 H 0.1626 0.0905 0.55642 0.0
H791 H 0.12849 0.05353 0.54382 0.0
C792 C 0.67727 0.73496 0.91613 0.0
C793 C 0.68895 0.73875 0.92718 0.0
N794 N 0.68857 0.72777 0.93911 0.0
N795 N 0.66938 0.7217 0.92102 0.0
C796 C 0.67653 0.71757 0.93506 0.0
H797 H 0.67533 0.74096 0.90478 0.0
Co798 Co 0.65473 0.71069 0.90813 0.0
C799 C 0.63723 0.68746 0.92947 0.0
O800 O 0.63178 0.67908 0.91727 0.0
N801 N 0.64 0.69973 0.89426 0.0
C802 C 0.62898 0.68211 0.8772 0.0
C803 C 0.64276 0.68646 0.88512 0.0
C804 C 0.62427 0.70317 0.89139 0.0
N805 N 0.61748 0.69268 0.88109 0.0
O806 O 0.63912 0.72701 0.91194 0.0
H807 H 0.65375 0.67962 0.88462 0.0
H808 H 0.61762 0.7127 0.89721 0.0
O809 O 0.64639 0.69957 0.92709 0.0
C810 C 0.63814 0.7389 0.90241 0.0
O811 O 0.64805 0.73975 0.89013 0.0
N812 N 0.67062 0.69527 0.90425 0.0
C813 C 0.69339 0.6729 0.89454 0.0
C814 C 0.68588 0.67144 0.90953 0.0
C815 C 0.67448 0.68279 0.9142 0.0
C816 C 0.67875 0.69753 0.89017 0.0
C817 C 0.68996 0.6862 0.88485 0.0
H818 H 0.66883 0.68137 0.92577 0.0
H819 H 0.67584 0.70775 0.88266 0.0
H820 H 0.67338 0.70692 0.94182 0.0
H821 H 0.69764 0.74835 0.92594 0.0
H822 H 0.62736 0.6717 0.86955 0.0
H823 H 0.68854 0.66139 0.91738 0.0
H824 H 0.69577 0.68774 0.87329 0.0
C825 C 0.98104 0.06817 0.33492 0.0
C826 C 0.98475 0.05637 0.32399 0.0
N827 N 0.9749 0.05788 0.31119 0.0
N828 N 0.96899 0.07729 0.32912 0.0
C829 C 0.9654 0.07067 0.31465 0.0
H830 H 0.98634 0.06954 0.3467 0.0
Co831 Co 0.95915 0.09336 0.34137 0.0
C832 C 0.93605 0.11053 0.31972 0.0
O833 O 0.92778 0.1163 0.33185 0.0
N834 N 0.94942 0.10961 0.35467 0.0
C835 C 0.93384 0.1221 0.37271 0.0
C836 C 0.93615 0.10826 0.36413 0.0
C837 C 0.95462 0.12484 0.35761 0.0
N838 N 0.94548 0.13243 0.36865 0.0
O839 O 0.97643 0.10759 0.33651 0.0
H840 H 0.92798 0.09822 0.36452 0.0
H841 H 0.96484 0.13042 0.35185 0.0
O842 O 0.94812 0.10135 0.32223 0.0
C843 C 0.98837 0.10777 0.34604 0.0
O844 O 0.98829 0.0981 0.35854 0.0
N845 N 0.94287 0.07877 0.34645 0.0
C846 C 0.91815 0.05934 0.35826 0.0
C847 C 0.91834 0.06441 0.34208 0.0
C848 C 0.9307 0.07425 0.33646 0.0
C849 C 0.94409 0.07233 0.36146 0.0
C850 C 0.9316 0.0631 0.36783 0.0
H851 H 0.93036 0.07818 0.3241 0.0
H852 H 0.9542 0.07556 0.369 0.0
H853 H 0.95574 0.07485 0.30702 0.0
H854 H 0.99353 0.04692 0.32573 0.0
H855 H 0.92407 0.12461 0.38096 0.0
H856 H 0.90905 0.06095 0.33367 0.0
H857 H 0.93239 0.05956 0.38031 0.0
C858 C 0.31297 0.78245 0.90979 0.0
C859 C 0.30016 0.77582 0.9179 0.0
N860 N 0.30528 0.7711 0.93249 0.0
N861 N 0.32605 0.78242 0.91941 0.0
C862 C 0.3211 0.77481 0.93292 0.0
H863 H 0.31249 0.78797 0.89802 0.0
Co864 Co 0.34555 0.79273 0.91431 0.0
C865 C 0.34247 0.80393 0.95 0.0
O866 O 0.32733 0.80066 0.95304 0.0
N867 N 0.36482 0.80286 0.90897 0.0
C868 C 0.3841 0.82127 0.90798 0.0
C869 C 0.36946 0.81742 0.91443 0.0
C870 C 0.37667 0.79824 0.89882 0.0
N871 N 0.38863 0.80923 0.89817 0.0
O872 O 0.35731 0.77419 0.92056 0.0
H873 H 0.3624 0.82502 0.92229 0.0
H874 H 0.37647 0.78717 0.89198 0.0
O875 O 0.34841 0.8012 0.93609 0.0
C876 C 0.35709 0.76199 0.91138 0.0
O877 O 0.34759 0.76207 0.89875 0.0
N878 N 0.33431 0.81103 0.90731 0.0
C879 C 0.31962 0.83835 0.89451 0.0
C880 C 0.31699 0.8338 0.91057 0.0
C881 C 0.32441 0.82008 0.91672 0.0
C882 C 0.33653 0.81487 0.89151 0.0
C883 C 0.32942 0.82858 0.88489 0.0
H884 H 0.32188 0.81665 0.9289 0.0
H885 H 0.34406 0.80734 0.88403 0.0
H886 H 0.32868 0.77287 0.94331 0.0
H887 H 0.28776 0.77575 0.91394 0.0
H888 H 0.39065 0.83237 0.90982 0.0
H889 H 0.30899 0.84058 0.9183 0.0
H890 H 0.33171 0.83153 0.87241 0.0
C891 C 0.03342 0.43746 0.33911 0.0
C892 C 0.02692 0.44983 0.33029 0.0
N893 N 0.02344 0.44431 0.31547 0.0
N894 N 0.03439 0.42413 0.3299 0.0
C895 C 0.0275 0.42854 0.3158 0.0
H896 H 0.03763 0.43842 0.35135 0.0
Co897 Co 0.04428 0.40448 0.3358 0.0
C898 C 0.05702 0.40942 0.30195 0.0
O899 O 0.05827 0.42514 0.30315 0.0
N900 N 0.05386 0.38524 0.3419 0.0
C901 C 0.07184 0.3657 0.34446 0.0
C902 C 0.067 0.37842 0.3352 0.0
C903 C 0.05087 0.37638 0.3552 0.0
N904 N 0.06173 0.36445 0.35702 0.0
O905 O 0.02544 0.39307 0.32994 0.0
H906 H 0.07334 0.38293 0.3248 0.0
H907 H 0.04156 0.37922 0.36385 0.0
O908 O 0.0522 0.40114 0.31395 0.0
C909 C 0.01367 0.39387 0.33963 0.0
O910 O 0.01469 0.40353 0.3521 0.0
N911 N 0.06285 0.41526 0.34286 0.0
C912 C 0.0889 0.42987 0.3583 0.0
C913 C 0.08995 0.42508 0.34213 0.0
C914 C 0.07696 0.41749 0.33476 0.0
C915 C 0.06188 0.41907 0.35878 0.0
C916 C 0.07467 0.42652 0.36672 0.0
H917 H 0.07868 0.4131 0.32276 0.0
H918 H 0.05101 0.41628 0.36537 0.0
H919 H 0.02616 0.4205 0.30566 0.0
H920 H 0.0258 0.46218 0.33424 0.0
H921 H 0.08237 0.35828 0.34249 0.0
H922 H 0.10067 0.4273 0.33508 0.0
H923 H 0.07342 0.42954 0.37932 0.0
C924 C 0.67548 0.2723 0.58391 0.0
C925 C 0.688 0.26665 0.57464 0.0
N926 N 0.68584 0.27174 0.55939 0.0
N927 N 0.66543 0.28095 0.5746 0.0
C928 C 0.67188 0.2801 0.55966 0.0
H929 H 0.67428 0.27102 0.5968 0.0
Co930 Co 0.64836 0.29345 0.58252 0.0
C931 C 0.64934 0.31773 0.55524 0.0
O932 O 0.65559 0.3292 0.56412 0.0
N933 N 0.63081 0.30566 0.5907 0.0
C934 C 0.61298 0.32496 0.59597 0.0
C935 C 0.62531 0.32029 0.58615 0.0
C936 C 0.62124 0.30165 0.60332 0.0
N937 N 0.61045 0.31328 0.60681 0.0
O938 O 0.63346 0.27742 0.57569 0.0
H939 H 0.62974 0.32754 0.5765 0.0
H940 H 0.62255 0.29074 0.61026 0.0
O941 O 0.64613 0.304 0.56141 0.0
C942 C 0.63139 0.26679 0.58649 0.0
O943 O 0.64023 0.26749 0.59958 0.0
N944 N 0.66334 0.30871 0.5906 0.0
C945 C 0.68425 0.33117 0.60425 0.0
C946 C 0.68733 0.32471 0.58899 0.0
C947 C 0.6769 0.3133 0.5825 0.0
C948 C 0.6611 0.31373 0.6061 0.0
C949 C 0.67122 0.32518 0.61306 0.0
H950 H 0.67937 0.30884 0.57058 0.0
H951 H 0.65136 0.30896 0.61322 0.0
H952 H 0.66695 0.28624 0.54932 0.0
H953 H 0.69842 0.2602 0.57905 0.0
H954 H 0.60633 0.33613 0.59519 0.0
H955 H 0.69763 0.32856 0.582 0.0
H956 H 0.66863 0.32953 0.62506 0.0
C957 C 0.52321 0.06789 0.65988 0.0
C958 C 0.51743 0.05583 0.66967 0.0
N959 N 0.52262 0.05862 0.68476 0.0
N960 N 0.53193 0.07829 0.66875 0.0
C961 C 0.5312 0.07238 0.68392 0.0
H962 H 0.52161 0.06876 0.647 0.0
Co963 Co 0.54323 0.09613 0.66064 0.0
C964 C 0.56832 0.09535 0.68706 0.0
O965 O 0.57945 0.08857 0.67815 0.0
N966 N 0.55395 0.11443 0.65267 0.0
C967 C 0.57144 0.13421 0.64838 0.0
C968 C 0.56877 0.12005 0.65633 0.0
C969 C 0.54797 0.12536 0.64216 0.0
N970 N 0.55838 0.13754 0.6395 0.0
O971 O 0.52689 0.11005 0.66878 0.0
H972 H 0.57739 0.11436 0.66406 0.0
H973 H 0.53615 0.12453 0.63677 0.0
O974 O 0.55452 0.09862 0.68115 0.0
C975 C 0.51349 0.11026 0.66142 0.0
O976 O 0.51131 0.10055 0.64915 0.0
N977 N 0.55916 0.08216 0.65159 0.0
C978 C 0.58373 0.06365 0.63822 0.0
C979 C 0.57609 0.05871 0.65234 0.0
C980 C 0.56374 0.06806 0.65878 0.0
C981 C 0.56541 0.08606 0.63685 0.0
C982 C 0.57809 0.07727 0.6302 0.0
H983 H 0.55877 0.06443 0.67018 0.0
H984 H 0.56085 0.09622 0.63019 0.0
H985 H 0.53725 0.07772 0.69412 0.0
H986 H 0.51061 0.04541 0.66588 0.0
H987 H 0.58227 0.14143 0.64887 0.0
H988 H 0.5801 0.04808 0.65872 0.0
H989 H 0.58345 0.08108 0.61895 0.0
C990 C 0.31934 0.21944 0.58599 0.0
C991 C 0.30738 0.2266 0.57707 0.0
N992 N 0.31141 0.22548 0.56147 0.0
N993 N 0.33079 0.21345 0.57611 0.0
C994 C 0.32584 0.21805 0.56125 0.0
H995 H 0.31954 0.2188 0.59894 0.0
Co996 Co 0.34958 0.20206 0.58267 0.0
C997 C 0.34396 0.18726 0.55021 0.0
O998 O 0.32854 0.18502 0.55299 0.0
N999 N 0.36807 0.19138 0.5894 0.0
C1000 C 0.38869 0.17454 0.59143 0.0
C1001 C 0.3761 0.17937 0.58195 0.0
C1002 C 0.37616 0.19379 0.6033 0.0
N1003 N 0.38871 0.18361 0.60483 0.0
O1004 O 0.36241 0.22011 0.57723 0.0
H1005 H 0.37298 0.17416 0.57048 0.0
H1006 H 0.37268 0.20256 0.61227 0.0
O1007 O 0.35283 0.19374 0.56094 0.0
C1008 C 0.36251 0.23121 0.58772 0.0
O1009 O 0.35295 0.22994 0.60024 0.0
N1010 N 0.33727 0.18414 0.58935 0.0
C1011 C 0.31849 0.15948 0.60235 0.0
C1012 C 0.32805 0.15676 0.58872 0.0
C1013 C 0.33765 0.16912 0.58267 0.0
C1014 C 0.32935 0.18644 0.60352 0.0
C1015 C 0.31962 0.17443 0.61006 0.0
H1016 H 0.34543 0.16637 0.57269 0.0
H1017 H 0.33081 0.19759 0.60999 0.0
H1018 H 0.33262 0.21615 0.55033 0.0
H1019 H 0.29632 0.23172 0.58165 0.0
H1020 H 0.39721 0.16508 0.58869 0.0
H1021 H 0.32792 0.14529 0.58256 0.0
H1022 H 0.31311 0.1768 0.62109 0.0
C1023 C 0.47633 0.43047 0.66555 0.0
C1024 C 0.48096 0.44213 0.67628 0.0
N1025 N 0.47348 0.4394 0.69041 0.0
N1026 N 0.46607 0.42024 0.67281 0.0
C1027 C 0.46454 0.42601 0.68797 0.0
H1028 H 0.47955 0.42997 0.65296 0.0
Co1029 Co 0.455 0.40421 0.66161 0.0
C1030 C 0.42813 0.39525 0.68414 0.0
O1031 O 0.4172 0.39612 0.67282 0.0
N1032 N 0.44386 0.38794 0.64967 0.0
C1033 C 0.42526 0.37452 0.63567 0.0
C1034 C 0.42906 0.38882 0.64283 0.0
C1035 C 0.44891 0.37286 0.64591 0.0
N1036 N 0.43775 0.36456 0.63758 0.0
O1037 O 0.4707 0.38868 0.66815 0.0
H1038 H 0.42105 0.39902 0.64322 0.0
H1039 H 0.46037 0.36783 0.64937 0.0
O1040 O 0.44278 0.3987 0.68103 0.0
C1041 C 0.48423 0.38868 0.66101 0.0
O1042 O 0.48695 0.39939 0.64974 0.0
N1043 N 0.44045 0.41992 0.65472 0.0
C1044 C 0.41848 0.44125 0.64146 0.0
C1045 C 0.41938 0.43923 0.65817 0.0
C1046 C 0.4306 0.42855 0.66462 0.0
C1047 C 0.44093 0.42312 0.63863 0.0
C1048 C 0.42966 0.4334 0.63163 0.0
H1049 H 0.43115 0.42703 0.6775 0.0
H1050 H 0.44948 0.41685 0.63108 0.0
H1051 H 0.45655 0.42089 0.69687 0.0
H1052 H 0.48852 0.45237 0.67357 0.0
H1053 H 0.41413 0.37159 0.62956 0.0
H1054 H 0.41114 0.44544 0.66613 0.0
H1055 H 0.42952 0.43503 0.6187 0.0
C1056 C 0.91698 0.67751 0.73066 0.0
C1057 C 0.92864 0.68835 0.7349 0.0
N1058 N 0.94026 0.68804 0.72361 0.0
N1059 N 0.92119 0.67023 0.71683 0.0
C1060 C 0.93542 0.67696 0.71269 0.0
H1061 H 0.90586 0.67538 0.73705 0.0
Co1062 Co 0.9076 0.65562 0.70702 0.0
C1063 C 0.92803 0.63607 0.68459 0.0
O1064 O 0.91577 0.63283 0.67517 0.0
N1065 N 0.89282 0.64103 0.69797 0.0
C1066 C 0.86933 0.63086 0.69005 0.0
C1067 C 0.87784 0.64469 0.69278 0.0
C1068 C 0.89291 0.62473 0.6986 0.0
N1069 N 0.8788 0.61834 0.69375 0.0
O1070 O 0.91033 0.64136 0.72462 0.0
H1071 H 0.8728 0.65656 0.69181 0.0
H1072 H 0.90292 0.6177 0.70307 0.0
O1073 O 0.92603 0.64505 0.69692 0.0
C1074 C 0.89981 0.6402 0.73561 0.0
O1075 O 0.88694 0.64937 0.735 0.0
N1076 N 0.90484 0.67014 0.68975 0.0
C1077 C 0.89662 0.69062 0.66453 0.0
C1078 C 0.91071 0.68145 0.66386 0.0
C1079 C 0.91475 0.67148 0.67669 0.0
C1080 C 0.89204 0.68028 0.69131 0.0
C1081 C 0.88742 0.69031 0.67865 0.0
H1082 H 0.92596 0.66512 0.67594 0.0
H1083 H 0.88494 0.68001 0.70222 0.0
H1084 H 0.94196 0.67397 0.70185 0.0
H1085 H 0.92826 0.6963 0.74519 0.0
H1086 H 0.85704 0.63007 0.68582 0.0
H1087 H 0.91845 0.68175 0.65338 0.0
H1088 H 0.87678 0.69774 0.67988 0.0
C1089 C 0.9276 0.83589 0.51856 0.0
C1090 C 0.93934 0.82492 0.51457 0.0
N1091 N 0.93893 0.81285 0.52538 0.0
N1092 N 0.91975 0.83074 0.53175 0.0
C1093 C 0.92683 0.81661 0.53556 0.0
H1094 H 0.92552 0.84734 0.51274 0.0
Co1095 Co 0.90518 0.84318 0.54322 0.0
C1096 C 0.89184 0.82188 0.56868 0.0
O1097 O 0.89179 0.83378 0.57903 0.0
N1098 N 0.89025 0.85648 0.55483 0.0
C1099 C 0.87914 0.8729 0.573 0.0
C1100 C 0.89295 0.86538 0.56828 0.0
C1101 C 0.8744 0.85907 0.55172 0.0
N1102 N 0.86753 0.86898 0.56257 0.0
O1103 O 0.88943 0.83922 0.52715 0.0
H1104 H 0.9039 0.8658 0.57517 0.0
H1105 H 0.86774 0.85343 0.5421 0.0
O1106 O 0.89732 0.82405 0.55448 0.0
C1107 C 0.88769 0.84999 0.51645 0.0
O1108 O 0.89674 0.86293 0.51716 0.0
N1109 N 0.92141 0.84747 0.55816 0.0
C1110 C 0.94225 0.85872 0.58177 0.0
C1111 C 0.93753 0.84248 0.58142 0.0
C1112 C 0.92707 0.83709 0.56952 0.0
C1113 C 0.92788 0.86247 0.55674 0.0
C1114 C 0.93792 0.86857 0.56874 0.0
H1115 H 0.92333 0.8247 0.56977 0.0
H1116 H 0.9239 0.87026 0.54711 0.0
H1117 H 0.92359 0.80948 0.54594 0.0
H1118 H 0.94811 0.82626 0.50504 0.0
H1119 H 0.87766 0.8805 0.58347 0.0
H1120 H 0.94154 0.83402 0.59045 0.0
H1121 H 0.94143 0.88108 0.56817 0.0
C1122 C 0.09394 0.80802 0.71299 0.0
C1123 C 0.08515 0.79548 0.71917 0.0
N1124 N 0.0701 0.8007 0.72205 0.0
N1125 N 0.08445 0.82112 0.71159 0.0
C1126 C 0.07024 0.81645 0.71803 0.0
H1127 H 0.10634 0.80733 0.70925 0.0
Co1128 Co 0.09019 0.84073 0.70173 0.0
C1129 C 0.05579 0.83699 0.68988 0.0
O1130 O 0.0563 0.82134 0.68774 0.0
N1131 N 0.09613 0.85999 0.69225 0.0
C1132 C 0.09837 0.8802 0.67498 0.0
C1133 C 0.09006 0.86645 0.67863 0.0
C1134 C 0.10794 0.87017 0.69683 0.0
N1135 N 0.10956 0.88248 0.6864 0.0
O1136 O 0.08482 0.85203 0.72081 0.0
H1137 H 0.0803 0.86149 0.67165 0.0
H1138 H 0.11538 0.86841 0.70737 0.0
O1139 O 0.06826 0.84454 0.69465 0.0
C1140 C 0.09327 0.8508 0.73346 0.0
O1141 O 0.10533 0.84058 0.73373 0.0
N1142 N 0.09638 0.82993 0.68271 0.0
C1143 C 0.10967 0.81436 0.65606 0.0
C1144 C 0.09398 0.82048 0.65553 0.0
C1145 C 0.08764 0.82838 0.66887 0.0
C1146 C 0.11201 0.82496 0.68305 0.0
C1147 C 0.11882 0.81687 0.66999 0.0
H1148 H 0.0759 0.83356 0.6676 0.0
H1149 H 0.11922 0.82722 0.69364 0.0
H1150 H 0.05991 0.82427 0.71914 0.0
H1151 H 0.08926 0.78318 0.72036 0.0
H1152 H 0.0963 0.88804 0.66478 0.0
H1153 H 0.08652 0.81897 0.64495 0.0
H1154 H 0.13114 0.81269 0.67075 0.0
C1155 C 0.07335 0.6715 0.51518 0.0
C1156 C 0.06224 0.6833 0.51213 0.0
N1157 N 0.06184 0.69339 0.52481 0.0
N1158 N 0.0801 0.67412 0.52966 0.0
C1159 C 0.0728 0.68752 0.53532 0.0
H1160 H 0.07589 0.66129 0.50756 0.0
Co1161 Co 0.09436 0.65973 0.53896 0.0
C1162 C 0.11558 0.67971 0.56054 0.0
O1163 O 0.11925 0.66761 0.57001 0.0
N1164 N 0.10847 0.64434 0.54759 0.0
C1165 C 0.11756 0.62052 0.55571 0.0
C1166 C 0.10411 0.62957 0.55278 0.0
C1167 C 0.12476 0.64375 0.54706 0.0
N1168 N 0.13054 0.62944 0.55211 0.0
O1169 O 0.10844 0.66203 0.52105 0.0
H1170 H 0.09196 0.6252 0.55381 0.0
H1171 H 0.13223 0.65348 0.5427 0.0
O1172 O 0.10578 0.67765 0.54888 0.0
C1173 C 0.10905 0.65136 0.51014 0.0
O1174 O 0.09937 0.6389 0.51102 0.0
N1175 N 0.08007 0.65724 0.55649 0.0
C1176 C 0.05886 0.64922 0.58131 0.0
C1177 C 0.06976 0.66195 0.58305 0.0
C1178 C 0.08013 0.66588 0.57047 0.0
C1179 C 0.06867 0.64571 0.55409 0.0
C1180 C 0.05812 0.6413 0.56642 0.0
H1181 H 0.08789 0.67604 0.57217 0.0
H1182 H 0.06826 0.6394 0.54272 0.0
H1183 H 0.07522 0.69263 0.54704 0.0
H1184 H 0.05449 0.68391 0.50169 0.0
H1185 H 0.11779 0.6083 0.5602 0.0
H1186 H 0.0702 0.66897 0.59402 0.0
H1187 H 0.04977 0.63151 0.5644 0.0
C1188 C 0.91305 0.31389 0.77029 0.0
C1189 C 0.92249 0.3016 0.76434 0.0
N1190 N 0.93794 0.30477 0.76808 0.0
N1191 N 0.92251 0.32474 0.77775 0.0
C1192 C 0.93761 0.31904 0.77581 0.0
H1193 H 0.90004 0.31427 0.77027 0.0
Co1194 Co 0.91571 0.34128 0.79152 0.0
C1195 C 0.94833 0.33875 0.81119 0.0
O1196 O 0.95458 0.32459 0.81432 0.0
N1197 N 0.9093 0.35754 0.80556 0.0
C1198 C 0.90572 0.37093 0.82835 0.0
C1199 C 0.91228 0.3575 0.82153 0.0
C1200 C 0.90071 0.37109 0.80297 0.0
N1201 N 0.89845 0.37952 0.81672 0.0
O1202 O 0.92524 0.35703 0.77785 0.0
H1203 H 0.91846 0.34802 0.82794 0.0
H1204 H 0.8962 0.37467 0.79129 0.0
O1205 O 0.9353 0.3397 0.80333 0.0
C1206 C 0.91836 0.35892 0.76434 0.0
O1207 O 0.90612 0.34966 0.76057 0.0
N1208 N 0.90563 0.32611 0.80464 0.0
C1209 C 0.88941 0.3064 0.82616 0.0
C1210 C 0.90558 0.30343 0.82231 0.0
C1211 C 0.9135 0.31347 0.81148 0.0
C1212 C 0.88961 0.32845 0.80732 0.0
C1213 C 0.8813 0.31889 0.81833 0.0
H1214 H 0.926 0.31122 0.80879 0.0
H1215 H 0.88341 0.33822 0.80138 0.0
H1216 H 0.94817 0.3248 0.7807 0.0
H1217 H 0.91819 0.2906 0.75886 0.0
H1218 H 0.90583 0.37388 0.84104 0.0
H1219 H 0.91222 0.29385 0.82812 0.0
H1220 H 0.86877 0.32138 0.82088 0.0
C1221 C 0.56531 0.83496 0.46529 0.0
C1222 C 0.55229 0.82564 0.46948 0.0
N1223 N 0.55633 0.81005 0.46761 0.0
N1224 N 0.57751 0.82533 0.46077 0.0
C1225 C 0.57175 0.81022 0.46237 0.0
H1226 H 0.56582 0.84796 0.46533 0.0
Co1227 Co 0.59748 0.8327 0.45388 0.0
C1228 C 0.60857 0.8092 0.42991 0.0
O1229 O 0.61264 0.82132 0.4206 0.0
N1230 N 0.61809 0.84025 0.44775 0.0
C1231 C 0.64478 0.83943 0.44599 0.0
C1232 C 0.63122 0.83076 0.4491 0.0
C1233 C 0.62426 0.85499 0.44442 0.0
N1234 N 0.64054 0.8548 0.44313 0.0
O1235 O 0.60708 0.82517 0.4731 0.0
H1236 H 0.63106 0.81825 0.45264 0.0
H1237 H 0.61715 0.86578 0.44373 0.0
O1238 O 0.60206 0.81193 0.4436 0.0
C1239 C 0.60627 0.83469 0.48499 0.0
O1240 O 0.59698 0.84743 0.48389 0.0
N1241 N 0.58744 0.8408 0.43513 0.0
C1242 C 0.56963 0.85372 0.40972 0.0
C1243 C 0.57049 0.83708 0.41205 0.0
C1244 C 0.57904 0.83091 0.42503 0.0
C1245 C 0.586 0.85708 0.43358 0.0
C1246 C 0.57733 0.86383 0.42081 0.0
H1247 H 0.57829 0.81815 0.42726 0.0
H1248 H 0.59084 0.86489 0.44273 0.0
H1249 H 0.57874 0.79955 0.45981 0.0
H1250 H 0.54063 0.83007 0.4732 0.0
H1251 H 0.65684 0.83458 0.44604 0.0
H1252 H 0.56392 0.82887 0.40435 0.0
H1253 H 0.57635 0.87678 0.41983 0.0
C1254 C 0.09046 0.18033 0.78368 0.0
C1255 C 0.08187 0.19332 0.778 0.0
N1256 N 0.06613 0.19067 0.78084 0.0
N1257 N 0.08019 0.16954 0.79005 0.0
C1258 C 0.06544 0.17611 0.78802 0.0
H1259 H 0.10339 0.17891 0.78343 0.0
Co1260 Co 0.08618 0.15018 0.79963 0.0
C1261 C 0.05987 0.14382 0.8225 0.0
O1262 O 0.07085 0.1413 0.83361 0.0
N1263 N 0.09236 0.13003 0.80847 0.0
C1264 C 0.09095 0.10376 0.81362 0.0
C1265 C 0.08232 0.11736 0.81036 0.0
C1266 C 0.10722 0.12339 0.80977 0.0
N1267 N 0.10667 0.10749 0.81311 0.0
O1268 O 0.08064 0.13902 0.78046 0.0
H1269 H 0.06951 0.1175 0.80822 0.0
H1270 H 0.11823 0.12958 0.80675 0.0
O1271 O 0.06424 0.14737 0.80817 0.0
C1272 C 0.09333 0.13669 0.77222 0.0
O1273 O 0.10687 0.14307 0.7773 0.0
N1274 N 0.09278 0.16176 0.81818 0.0
C1275 C 0.10431 0.18131 0.84291 0.0
C1276 C 0.08835 0.18258 0.83776 0.0
C1277 C 0.08286 0.17281 0.8253 0.0
C1278 C 0.10856 0.16095 0.82268 0.0
C1279 C 0.11448 0.17029 0.83533 0.0
H1280 H 0.07068 0.17447 0.82113 0.0
H1281 H 0.11691 0.15375 0.81596 0.0
H1282 H 0.05438 0.17042 0.7918 0.0
H1283 H 0.08687 0.20407 0.77263 0.0
H1284 H 0.08596 0.0919 0.81555 0.0
H1285 H 0.08028 0.19129 0.84311 0.0
H1286 H 0.12708 0.16953 0.83859 0.0
C1287 C 0.43829 0.65456 0.46266 0.0
C1288 C 0.45237 0.66096 0.46852 0.0
N1289 N 0.44926 0.67576 0.47439 0.0
N1290 N 0.42636 0.66537 0.4645 0.0
C1291 C 0.4332 0.67769 0.47258 0.0
H1292 H 0.43708 0.64325 0.45635 0.0
Co1293 Co 0.40601 0.66352 0.455 0.0
C1294 C 0.41154 0.70014 0.44844 0.0
O1295 O 0.42721 0.70165 0.44979 0.0
N1296 N 0.3857 0.66131 0.44577 0.0
C1297 C 0.3648 0.66386 0.42939 0.0
C1298 C 0.37947 0.67008 0.43362 0.0
C1299 C 0.37472 0.64967 0.44857 0.0
N1300 N 0.36185 0.65096 0.43873 0.0
O1301 O 0.39609 0.66775 0.47504 0.0
H1302 H 0.38558 0.67982 0.42756 0.0
H1303 H 0.37644 0.64008 0.4572 0.0
O1304 O 0.40476 0.68647 0.4502 0.0
C1305 C 0.39558 0.65657 0.48542 0.0
O1306 O 0.40301 0.64295 0.48238 0.0
N1307 N 0.41553 0.65865 0.43496 0.0
C1308 C 0.42922 0.64914 0.40569 0.0
C1309 C 0.4344 0.66314 0.41362 0.0
C1310 C 0.42735 0.66771 0.42813 0.0
C1311 C 0.4107 0.64471 0.42777 0.0
C1312 C 0.41707 0.63995 0.41298 0.0
H1313 H 0.43202 0.67808 0.4342 0.0
H1314 H 0.40186 0.63713 0.43353 0.0
H1315 H 0.42673 0.68842 0.47601 0.0
H1316 H 0.46414 0.6555 0.46755 0.0
H1317 H 0.35736 0.66787 0.41949 0.0
H1318 H 0.44424 0.67033 0.40904 0.0
H1319 H 0.41252 0.62908 0.40746 0.0
C1320 C 0.72932 0.91491 0.676 0.0
C1321 C 0.73384 0.92515 0.68817 0.0
N1322 N 0.72357 0.93767 0.68837 0.0
N1323 N 0.71626 0.92092 0.66853 0.0
C1324 C 0.71312 0.9349 0.67624 0.0
H1325 H 0.73459 0.9033 0.67348 0.0
Co1326 Co 0.70375 0.90916 0.65422 0.0
C1327 C 0.67898 0.93225 0.64156 0.0
O1328 O 0.66846 0.92085 0.63885 0.0
N1329 N 0.69105 0.8963 0.63975 0.0
C1330 C 0.67212 0.87977 0.63026 0.0
C1331 C 0.67666 0.88926 0.64287 0.0
C1332 C 0.69483 0.89069 0.62487 0.0
N1333 N 0.68365 0.88047 0.61896 0.0
O1334 O 0.71893 0.91329 0.63767 0.0
H1335 H 0.66939 0.8911 0.65346 0.0
H1336 H 0.70567 0.89372 0.61846 0.0
O1337 O 0.69261 0.92888 0.64779 0.0
C1338 C 0.7298 0.90272 0.63579 0.0
O1339 O 0.72968 0.88996 0.64512 0.0
N1340 N 0.68974 0.90462 0.67101 0.0
C1341 C 0.66771 0.89264 0.69312 0.0
C1342 C 0.6674 0.90894 0.68855 0.0
C1343 C 0.67849 0.9147 0.67738 0.0
C1344 C 0.69148 0.88937 0.67671 0.0
C1345 C 0.68035 0.88297 0.68748 0.0
H1346 H 0.67773 0.9271 0.67368 0.0
H1347 H 0.70084 0.88175 0.67183 0.0
H1348 H 0.70266 0.94229 0.6739 0.0
H1349 H 0.74352 0.92319 0.69666 0.0
H1350 H 0.661 0.87308 0.62944 0.0
H1351 H 0.65844 0.91714 0.69324 0.0
H1352 H 0.68126 0.87039 0.69065 0.0
C1353 C 0.7236 0.08636 0.81711 0.0
C1354 C 0.72647 0.07662 0.80409 0.0
N1355 N 0.71886 0.06253 0.80651 0.0
N1356 N 0.71428 0.07847 0.82777 0.0
C1357 C 0.71161 0.06392 0.821 0.0
H1358 H 0.72735 0.09874 0.81833 0.0
Co1359 Co 0.70518 0.08869 0.84545 0.0
C1360 C 0.68261 0.06501 0.86037 0.0
O1361 O 0.67286 0.07642 0.86524 0.0
N1362 N 0.69606 0.09988 0.86339 0.0
C1363 C 0.68018 0.11526 0.87868 0.0
C1364 C 0.68228 0.10866 0.86376 0.0
C1365 C 0.70205 0.10148 0.87852 0.0
N1366 N 0.69262 0.11079 0.88784 0.0
O1367 O 0.72339 0.08303 0.85803 0.0
H1368 H 0.67369 0.10987 0.85414 0.0
H1369 H 0.71302 0.09596 0.88277 0.0
O1370 O 0.69517 0.06854 0.85224 0.0
C1371 C 0.73542 0.09241 0.8573 0.0
O1372 O 0.73451 0.10527 0.84817 0.0
N1373 N 0.68806 0.09467 0.8323 0.0
C1374 C 0.66425 0.10706 0.81256 0.0
C1375 C 0.66398 0.09084 0.81701 0.0
C1376 C 0.67613 0.08479 0.82687 0.0
C1377 C 0.68907 0.1102 0.8271 0.0
C1378 C 0.67702 0.11679 0.81749 0.0
H1379 H 0.676 0.07217 0.82982 0.0
H1380 H 0.69904 0.11762 0.83097 0.0
H1381 H 0.70369 0.05491 0.82603 0.0
H1382 H 0.73327 0.07983 0.79346 0.0
H1383 H 0.67019 0.12264 0.88261 0.0
H1384 H 0.65449 0.08294 0.81285 0.0
H1385 H 0.67773 0.12928 0.81383 0.0
C1386 C 0.34007 0.03871 0.43246 0.0
C1387 C 0.33217 0.03369 0.44609 0.0
N1388 N 0.31678 0.03043 0.44222 0.0
N1389 N 0.3297 0.03895 0.41996 0.0
C1390 C 0.31581 0.03312 0.4262 0.0
H1391 H 0.35248 0.04245 0.43197 0.0
Co1392 Co 0.33374 0.04692 0.39901 0.0
C1393 C 0.30128 0.06181 0.40664 0.0
O1394 O 0.30432 0.06454 0.42192 0.0
N1395 N 0.33785 0.05458 0.37844 0.0
C1396 C 0.33693 0.06866 0.35581 0.0
C1397 C 0.32969 0.06606 0.37037 0.0
C1398 C 0.35016 0.05053 0.36861 0.0
N1399 N 0.34981 0.0589 0.35467 0.0
O1400 O 0.32585 0.02764 0.38994 0.0
H1401 H 0.31945 0.07265 0.37491 0.0
H1402 H 0.35928 0.0418 0.37175 0.0
O1403 O 0.31203 0.05558 0.39764 0.0
C1404 C 0.33512 0.01554 0.39071 0.0
O1405 O 0.34841 0.01663 0.39921 0.0
N1406 N 0.34279 0.0658 0.40733 0.0
C1407 C 0.36055 0.09109 0.4205 0.0
C1408 C 0.34419 0.09302 0.41661 0.0
C1409 C 0.33566 0.08039 0.40961 0.0
C1410 C 0.35893 0.06414 0.40966 0.0
C1411 C 0.36804 0.07657 0.41628 0.0
H1412 H 0.32345 0.0826 0.40605 0.0
H1413 H 0.36468 0.05285 0.40669 0.0
H1414 H 0.30494 0.03159 0.41923 0.0
H1415 H 0.33718 0.03342 0.4581 0.0
H1416 H 0.33342 0.07764 0.34706 0.0
H1417 H 0.33774 0.10398 0.41936 0.0
H1418 H 0.38075 0.07464 0.41835 0.0
C1419 C 0.28404 0.4105 0.81553 0.0
C1420 C 0.28119 0.41966 0.80207 0.0
N1421 N 0.28284 0.43532 0.80601 0.0
N1422 N 0.28758 0.42024 0.82795 0.0
C1423 C 0.28669 0.4353 0.82185 0.0
H1424 H 0.2838 0.39751 0.8162 0.0
Co1425 Co 0.29281 0.41271 0.84834 0.0
C1426 C 0.31484 0.43652 0.86236 0.0
O1427 O 0.32394 0.42465 0.86751 0.0
N1428 N 0.29745 0.4049 0.86926 0.0
C1429 C 0.29769 0.40498 0.89603 0.0
C1430 C 0.29379 0.41351 0.88255 0.0
C1431 C 0.30326 0.39084 0.87517 0.0
N1432 N 0.30363 0.39061 0.89148 0.0
O1433 O 0.27283 0.42019 0.85638 0.0
H1434 H 0.28879 0.42551 0.88248 0.0
H1435 H 0.30693 0.38085 0.86778 0.0
O1436 O 0.30225 0.43347 0.85407 0.0
C1437 C 0.26047 0.41131 0.85524 0.0
O1438 O 0.2613 0.39817 0.84651 0.0
N1439 N 0.31234 0.40483 0.83982 0.0
C1440 C 0.33857 0.39174 0.8235 0.0
C1441 C 0.33733 0.40835 0.82577 0.0
C1442 C 0.32387 0.41469 0.83345 0.0
C1443 C 0.31309 0.38865 0.83717 0.0
C1444 C 0.32619 0.38181 0.8291 0.0
H1445 H 0.32244 0.42757 0.83346 0.0
H1446 H 0.3031 0.3811 0.84068 0.0
H1447 H 0.28878 0.44601 0.82893 0.0
H1448 H 0.27848 0.41502 0.79023 0.0
H1449 H 0.29653 0.40934 0.90822 0.0
H1450 H 0.34622 0.41645 0.82075 0.0
H1451 H 0.32643 0.36897 0.82688 0.0
C1452 C 0.15721 0.97223 0.9302 0.0
C1453 C 0.16555 0.97759 0.94347 0.0
N1454 N 0.18116 0.97357 0.94165 0.0
N1455 N 0.16747 0.96469 0.92017 0.0
C1456 C 0.18205 0.9661 0.92727 0.0
H1457 H 0.14432 0.97276 0.9285 0.0
Co1458 Co 0.16119 0.95209 0.90263 0.0
C1459 C 0.18947 0.92892 0.90622 0.0
O1460 O 0.18147 0.9178 0.91405 0.0
N1461 N 0.15494 0.93965 0.88471 0.0
C1462 C 0.15244 0.91967 0.86708 0.0
C1463 C 0.15907 0.92427 0.88142 0.0
C1464 C 0.14536 0.94397 0.87225 0.0
N1465 N 0.14385 0.93206 0.86133 0.0
O1466 O 0.16902 0.96828 0.88846 0.0
H1467 H 0.16605 0.91652 0.88903 0.0
H1468 H 0.13961 0.95558 0.87112 0.0
O1469 O 0.18251 0.94186 0.9017 0.0
C1470 C 0.15847 0.97908 0.88606 0.0
O1471 O 0.14457 0.97782 0.89352 0.0
N1472 N 0.15207 0.93679 0.91692 0.0
C1473 C 0.13597 0.91575 0.93763 0.0
C1474 C 0.15112 0.92197 0.94168 0.0
C1475 C 0.15877 0.93273 0.93137 0.0
C1476 C 0.13682 0.93176 0.91338 0.0
C1477 C 0.12868 0.92101 0.92339 0.0
H1478 H 0.1704 0.9373 0.93483 0.0
H1479 H 0.13075 0.93617 0.90277 0.0
H1480 H 0.19287 0.96046 0.92277 0.0
H1481 H 0.1604 0.98325 0.954 0.0
H1482 H 0.15347 0.90795 0.86149 0.0
H1483 H 0.15728 0.91828 0.95254 0.0
H1484 H 0.11675 0.91698 0.92006 0.0
C1485 C 0.77674 0.08782 0.18178 0.0
C1486 C 0.77127 0.07775 0.19371 0.0
N1487 N 0.77574 0.06259 0.19007 0.0
N1488 N 0.7846 0.07911 0.1706 0.0
C1489 C 0.78361 0.06373 0.17588 0.0
H1490 H 0.77575 0.10079 0.18162 0.0
Co1491 Co 0.796 0.08811 0.15339 0.0
C1492 C 0.82089 0.06131 0.15105 0.0
O1493 O 0.8325 0.06941 0.15802 0.0
N1494 N 0.80708 0.09723 0.13582 0.0
C1495 C 0.82587 0.10372 0.11792 0.0
C1496 C 0.82285 0.09593 0.13207 0.0
C1497 C 0.80085 0.10637 0.12384 0.0
N1498 N 0.81205 0.11023 0.11275 0.0
O1499 O 0.77959 0.08136 0.13886 0.0
H1500 H 0.83192 0.09032 0.1393 0.0
H1501 H 0.78838 0.11002 0.12317 0.0
O1502 O 0.80692 0.06753 0.14928 0.0
C1503 C 0.76625 0.08885 0.139 0.0
O1504 O 0.7639 0.10015 0.14978 0.0
N1505 N 0.81183 0.09573 0.16796 0.0
C1506 C 0.83608 0.10788 0.18748 0.0
C1507 C 0.8298 0.09256 0.1903 0.0
C1508 C 0.8174 0.08682 0.18061 0.0
C1509 C 0.81673 0.11133 0.16621 0.0
C1510 C 0.82915 0.11757 0.17565 0.0
H1511 H 0.81307 0.07476 0.18267 0.0
H1512 H 0.81132 0.11892 0.15714 0.0
H1513 H 0.78915 0.05365 0.1698 0.0
H1514 H 0.7653 0.08144 0.20467 0.0
H1515 H 0.83745 0.10496 0.11207 0.0
H1516 H 0.83474 0.08494 0.19966 0.0
H1517 H 0.83348 0.12967 0.17355 0.0
C1518 C 0.32983 0.98866 0.06951 0.0
C1519 C 0.31839 0.99174 0.05799 0.0
N1520 N 0.30772 0.97954 0.05799 0.0
N1521 N 0.32644 0.9746 0.07677 0.0
C1522 C 0.31278 0.96937 0.06962 0.0
H1523 H 0.34033 0.9959 0.07205 0.0
Co1524 Co 0.34051 0.9651 0.09121 0.0
C1525 C 0.32201 0.93798 0.10596 0.0
O1526 O 0.33485 0.92877 0.10644 0.0
N1527 N 0.35546 0.95622 0.10585 0.0
C1528 C 0.37878 0.95017 0.11758 0.0
C1529 C 0.3715 0.95477 0.10354 0.0
C1530 C 0.35346 0.95296 0.1217 0.0
N1531 N 0.36741 0.94901 0.129 0.0
O1532 O 0.33551 0.98109 0.10679 0.0
H1533 H 0.37791 0.95765 0.09268 0.0
H1534 H 0.34206 0.95397 0.1279 0.0
O1535 O 0.32296 0.95212 0.09999 0.0
C1536 C 0.34632 0.99147 0.10976 0.0
O1537 O 0.35955 0.99138 0.10111 0.0
N1538 N 0.34583 0.94967 0.07541 0.0
C1539 C 0.35781 0.92672 0.05403 0.0
C1540 C 0.34226 0.92529 0.06047 0.0
C1541 C 0.33645 0.93694 0.07101 0.0
C1542 C 0.35988 0.95247 0.06744 0.0
C1543 C 0.36641 0.94091 0.05713 0.0
H1544 H 0.32437 0.93556 0.07543 0.0
H1545 H 0.36634 0.96355 0.06951 0.0
H1546 H 0.3071 0.95798 0.07231 0.0
H1547 H 0.31814 0.00203 0.05003 0.0
H1548 H 0.39149 0.94789 0.11927 0.0
H1549 H 0.33455 0.91523 0.05746 0.0
H1550 H 0.3782 0.94297 0.05204 0.0
C1551 C 0.66162 0.52294 0.06453 0.0
C1552 C 0.67162 0.51721 0.05268 0.0
N1553 N 0.68674 0.52221 0.0558 0.0
N1554 N 0.6703 0.53148 0.07519 0.0
C1555 C 0.68563 0.53059 0.06972 0.0
H1556 H 0.64868 0.5216 0.06496 0.0
Co1557 Co 0.66105 0.54348 0.09185 0.0
C1558 C 0.68801 0.56809 0.09392 0.0
O1559 O 0.68018 0.57935 0.08612 0.0
N1560 N 0.65159 0.5551 0.10884 0.0
C1561 C 0.6428 0.57472 0.12472 0.0
C1562 C 0.65288 0.57093 0.1123 0.0
C1563 C 0.64067 0.5495 0.11957 0.0
N1564 N 0.6351 0.56128 0.12923 0.0
O1565 O 0.66711 0.52733 0.10695 0.0
H1566 H 0.65984 0.57959 0.10577 0.0
H1567 H 0.63634 0.53724 0.11984 0.0
O1568 O 0.68167 0.55427 0.0962 0.0
C1569 C 0.65852 0.51469 0.10717 0.0
O1570 O 0.64691 0.51315 0.09657 0.0
N1571 N 0.6539 0.55903 0.07664 0.0
C1572 C 0.64226 0.58302 0.05637 0.0
C1573 C 0.6573 0.57601 0.05353 0.0
C1574 C 0.66284 0.56389 0.06371 0.0
C1575 C 0.63845 0.56446 0.0783 0.0
C1576 C 0.63259 0.57688 0.06866 0.0
H1577 H 0.67479 0.55926 0.06175 0.0
H1578 H 0.63067 0.55951 0.08745 0.0
H1579 H 0.69555 0.53697 0.07518 0.0
H1580 H 0.66787 0.51031 0.04232 0.0
H1581 H 0.64101 0.58655 0.12988 0.0
H1582 H 0.66501 0.58033 0.04395 0.0
H1583 H 0.62065 0.58165 0.07079 0.0
H1584 H 0.03934 0.34516 0.37068 0.0
H1585 H 0.04466 0.32365 0.39046 0.0
H1586 H 0.0944 0.33838 0.3927 0.0
H1587 H 0.08907 0.35956 0.37318 0.0
H1588 H 0.06571 0.29918 0.3839 0.0
H1589 H 0.08555 0.32886 0.43951 0.0
H1590 H 0.07361 0.33915 0.42452 0.0
H1591 H 0.09522 0.3382 0.42268 0.0
C1592 C 0.05124 0.344 0.37586 0.0
C1593 C 0.06385 0.35385 0.37046 0.0
C1594 C 0.05428 0.33177 0.38709 0.0
C1595 C 0.06987 0.32958 0.39329 0.0
C1596 C 0.08219 0.34007 0.38848 0.0
H1597 H 0.1434 0.2708 0.40218 0.0
H1598 H 0.12206 0.29095 0.40183 0.0
C1599 C 0.0792 0.35205 0.37718 0.0
C1600 C 0.07431 0.315 0.40254 0.0
H1601 H 0.10032 0.30387 0.43227 0.0
C1602 C 0.07268 0.30003 0.39489 0.0
C1603 C 0.0833 0.31604 0.41696 0.0
C1604 C 0.08435 0.33144 0.42645 0.0
C1605 C 0.08148 0.28662 0.40013 0.0
C1606 C 0.09209 0.2883 0.41329 0.0
C1607 C 0.09229 0.3027 0.42205 0.0
C1608 C 0.1053 0.2767 0.41572 0.0
C1609 C 0.08071 0.2712 0.39061 0.0
C1610 C 0.10301 0.2622 0.42401 0.0
C1611 C 0.1153 0.25066 0.42436 0.0
C1612 C 0.12989 0.25348 0.41623 0.0
C1613 C 0.13228 0.26828 0.40849 0.0
C1614 C 0.12013 0.27981 0.40831 0.0
H1615 H 0.07089 0.27136 0.38155 0.0
H1616 H 0.09232 0.26928 0.3843 0.0
H1617 H 0.07882 0.26085 0.39883 0.0
H1618 H 0.09158 0.25962 0.42972 0.0
H1619 H 0.1131 0.23929 0.43031 0.0
H1620 H 0.51539 0.60717 0.85004 0.0
H1621 H 0.53492 0.62905 0.85123 0.0
H1622 H 0.50105 0.66088 0.82824 0.0
H1623 H 0.48134 0.63883 0.82682 0.0
H1624 H 0.54669 0.65251 0.82429 0.0
H1625 H 0.51304 0.67873 0.87609 0.0
H1626 H 0.51068 0.65775 0.87104 0.0
H1627 H 0.50272 0.67288 0.85792 0.0
C1628 C 0.51221 0.61872 0.84491 0.0
C1629 C 0.49687 0.62133 0.83838 0.0
C1630 C 0.52337 0.63119 0.84558 0.0
C1631 C 0.51934 0.64654 0.83992 0.0
C1632 C 0.50432 0.64907 0.83266 0.0
H1633 H 0.60145 0.71137 0.86009 0.0
H1634 H 0.57489 0.70526 0.84822 0.0
C1635 C 0.49315 0.63647 0.83179 0.0
C1636 C 0.53058 0.6599 0.84312 0.0
H1637 H 0.54029 0.68598 0.87328 0.0
C1638 C 0.54513 0.66032 0.83462 0.0
C1639 C 0.52844 0.66997 0.85665 0.0
C1640 C 0.5129 0.66994 0.86603 0.0
C1641 C 0.55811 0.66961 0.8401 0.0
C1642 C 0.55643 0.67855 0.85447 0.0
C1643 C 0.54146 0.67915 0.86223 0.0
C1644 C 0.57077 0.68437 0.86318 0.0
C1645 C 0.57399 0.66868 0.83137 0.0
C1646 C 0.57687 0.67494 0.87577 0.0
C1647 C 0.5919 0.67834 0.88236 0.0
C1648 C 0.60093 0.69135 0.87663 0.0
C1649 C 0.59445 0.70142 0.86474 0.0
C1650 C 0.57942 0.69791 0.85797 0.0
H1651 H 0.57327 0.66121 0.82031 0.0
H1652 H 0.57799 0.68095 0.82797 0.0
H1653 H 0.58329 0.66349 0.83944 0.0
H1654 H 0.5704 0.66439 0.87985 0.0
H1655 H 0.59687 0.6704 0.89141 0.0
H1656 H 0.88023 0.25469 0.43317 0.0
H1657 H 0.90291 0.2356 0.43181 0.0
H1658 H 0.89807 0.23365 0.3802 0.0
H1659 H 0.87561 0.25227 0.38145 0.0
H1660 H 0.8994 0.20413 0.41788 0.0
H1661 H 0.94711 0.23848 0.38692 0.0
H1662 H 0.93086 0.24804 0.39779 0.0
H1663 H 0.92781 0.24097 0.37756 0.0
C1664 C 0.88417 0.25027 0.42157 0.0
C1665 C 0.87604 0.2548 0.40745 0.0
C1666 C 0.89713 0.23948 0.42079 0.0
C1667 C 0.90234 0.23349 0.40586 0.0
C1668 C 0.8945 0.2384 0.3918 0.0
H1669 H 0.93933 0.15934 0.35199 0.0
H1670 H 0.93321 0.18568 0.36388 0.0
C1671 C 0.88149 0.24889 0.39258 0.0
C1672 C 0.91445 0.2205 0.40471 0.0
H1673 H 0.94741 0.20951 0.3828 0.0
C1674 C 0.91021 0.20533 0.41066 0.0
C1675 C 0.92846 0.22216 0.39521 0.0
C1676 C 0.93393 0.23834 0.38913 0.0
C1677 C 0.91871 0.19149 0.40609 0.0
C1678 C 0.93214 0.19299 0.39566 0.0
C1679 C 0.93711 0.20836 0.39074 0.0
C1680 C 0.93964 0.17865 0.38814 0.0
C1681 C 0.91236 0.17531 0.41138 0.0
C1682 C 0.94618 0.16633 0.39764 0.0
C1683 C 0.94942 0.1513 0.39086 0.0
C1684 C 0.94665 0.14858 0.37445 0.0
C1685 C 0.94173 0.16135 0.36464 0.0
C1686 C 0.93821 0.17632 0.37145 0.0
H1687 H 0.90019 0.17618 0.41682 0.0
H1688 H 0.91175 0.16686 0.40105 0.0
H1689 H 0.92056 0.17011 0.42053 0.0
H1690 H 0.94773 0.16798 0.41047 0.0
H1691 H 0.95312 0.14147 0.39857 0.0
H1692 H 0.39048 0.80129 0.86665 0.0
H1693 H 0.41291 0.80796 0.84848 0.0
H1694 H 0.44037 0.82515 0.88903 0.0
H1695 H 0.41819 0.81842 0.90696 0.0
H1696 H 0.4222 0.83893 0.84489 0.0
H1697 H 0.47524 0.8038 0.86303 0.0
H1698 H 0.45501 0.79771 0.86821 0.0
H1699 H 0.46574 0.81196 0.88056 0.0
C1700 C 0.40159 0.80589 0.87165 0.0
C1701 C 0.40268 0.80944 0.88813 0.0
C1702 C 0.41434 0.80975 0.8613 0.0
C1703 C 0.4284 0.81689 0.8674 0.0
C1704 C 0.42984 0.8193 0.88405 0.0
H1705 H 0.48115 0.89756 0.85416 0.0
H1706 H 0.46085 0.87639 0.85553 0.0
C1707 C 0.41712 0.81561 0.89429 0.0
C1708 C 0.44035 0.82455 0.85659 0.0
H1709 H 0.48068 0.83161 0.85411 0.0
C1710 C 0.435 0.83698 0.84648 0.0
C1711 C 0.45706 0.82188 0.85837 0.0
C1712 C 0.46355 0.80797 0.86801 0.0
C1713 C 0.44588 0.84789 0.83961 0.0
C1714 C 0.46244 0.84641 0.84311 0.0
C1715 C 0.46793 0.83294 0.85169 0.0
C1716 C 0.47382 0.85979 0.84022 0.0
C1717 C 0.43948 0.86144 0.82939 0.0
C1718 C 0.48783 0.8575 0.83111 0.0
C1719 C 0.49945 0.86966 0.83024 0.0
C1720 C 0.49735 0.88415 0.83874 0.0
C1721 C 0.48309 0.88655 0.84746 0.0
C1722 C 0.47143 0.8745 0.84817 0.0
H1723 H 0.42807 0.85796 0.82338 0.0
H1724 H 0.43694 0.87197 0.83718 0.0
H1725 H 0.44835 0.8651 0.82009 0.0
H1726 H 0.48997 0.84618 0.82503 0.0
H1727 H 0.51039 0.8674 0.82353 0.0
H1728 H 0.11658 0.76218 0.07532 0.0
H1729 H 0.09621 0.74122 0.07979 0.0
H1730 H 0.12915 0.71587 0.11079 0.0
H1731 H 0.14939 0.73671 0.10657 0.0
H1732 H 0.09671 0.70522 0.07699 0.0
H1733 H 0.08915 0.72802 0.13918 0.0
H1734 H 0.09862 0.73969 0.12348 0.0
H1735 H 0.10975 0.7243 0.13383 0.0
C1736 C 0.11957 0.75195 0.08281 0.0
C1737 C 0.1345 0.75115 0.09076 0.0
C1738 C 0.10792 0.74003 0.08537 0.0
C1739 C 0.11112 0.72721 0.09585 0.0
C1740 C 0.12639 0.72584 0.10287 0.0
H1741 H 0.08413 0.63717 0.12525 0.0
H1742 H 0.09102 0.66041 0.10862 0.0
C1743 C 0.13795 0.73774 0.10043 0.0
C1744 C 0.09834 0.71578 0.10059 0.0
H1745 H 0.07964 0.70132 0.13406 0.0
C1746 C 0.09268 0.70451 0.08938 0.0
C1747 C 0.09278 0.71516 0.11664 0.0
C1748 C 0.09775 0.72754 0.12896 0.0
C1749 C 0.08261 0.6918 0.0942 0.0
C1750 C 0.07836 0.6903 0.11062 0.0
C1751 C 0.08295 0.70238 0.12148 0.0
C1752 C 0.07152 0.67529 0.1174 0.0
C1753 C 0.07705 0.67982 0.08179 0.0
C1754 C 0.05806 0.67576 0.12767 0.0
C1755 C 0.05414 0.6624 0.13716 0.0
C1756 C 0.06374 0.64856 0.1366 0.0
C1757 C 0.07652 0.64774 0.12564 0.0
C1758 C 0.08036 0.66097 0.11609 0.0
H1759 H 0.07589 0.68557 0.06978 0.0
H1760 H 0.0861 0.67006 0.08074 0.0
H1761 H 0.06532 0.67439 0.08515 0.0
H1762 H 0.0512 0.68675 0.12903 0.0
H1763 H 0.04437 0.66324 0.14575 0.0
H1764 H 0.89 0.66525 0.13552 0.0
H1765 H 0.91479 0.66132 0.15051 0.0
H1766 H 0.93658 0.70094 0.12497 0.0
H1767 H 0.91147 0.70466 0.10965 0.0
H1768 H 0.9532 0.67458 0.12081 0.0
H1769 H 0.94208 0.67889 0.18565 0.0
H1770 H 0.9263 0.66702 0.17709 0.0
H1771 H 0.92858 0.68778 0.17111 0.0
C1772 C 0.89991 0.67347 0.13354 0.0
C1773 C 0.89899 0.68514 0.12141 0.0
C1774 C 0.91405 0.67136 0.14225 0.0
C1775 C 0.92758 0.68094 0.13904 0.0
C1776 C 0.92625 0.69351 0.12777 0.0
H1777 H 0.01403 0.63264 0.17833 0.0
H1778 H 0.99452 0.6545 0.17453 0.0
C1779 C 0.91196 0.69567 0.11906 0.0
C1780 C 0.94351 0.67537 0.14488 0.0
H1781 H 0.96052 0.65669 0.17726 0.0
C1782 C 0.95504 0.67118 0.13327 0.0
C1783 C 0.9462 0.67113 0.16115 0.0
C1784 C 0.93516 0.67665 0.17444 0.0
C1785 C 0.96814 0.66133 0.13718 0.0
C1786 C 0.96954 0.65527 0.15301 0.0
C1787 C 0.95913 0.66094 0.16501 0.0
C1788 C 0.98053 0.64175 0.15669 0.0
C1789 C 0.97989 0.65682 0.1241 0.0
C1790 C 0.97863 0.62713 0.14848 0.0
C1791 C 0.98968 0.61471 0.15059 0.0
C1792 C 0.00274 0.61658 0.16112 0.0
C1793 C 0.00405 0.63084 0.17016 0.0
C1794 C 0.99299 0.64336 0.16794 0.0
H1795 H 0.98051 0.66629 0.11469 0.0
H1796 H 0.99215 0.65485 0.12903 0.0
H1797 H 0.97582 0.64554 0.11824 0.0
H1798 H 0.96882 0.62549 0.14006 0.0
H1799 H 0.98827 0.60381 0.14358 0.0
H1800 H 0.90838 0.85271 0.12504 0.0
H1801 H 0.90491 0.82976 0.1073 0.0
H1802 H 0.95544 0.81863 0.11151 0.0
H1803 H 0.95885 0.84165 0.12992 0.0
H1804 H 0.91802 0.8197 0.07845 0.0
H1805 H 0.93399 0.77786 0.12848 0.0
H1806 H 0.93069 0.79898 0.1321 0.0
H1807 H 0.94867 0.7924 0.12211 0.0
C1808 C 0.91879 0.84543 0.12216 0.0
C1809 C 0.93381 0.84872 0.12915 0.0
C1810 C 0.91683 0.83239 0.11187 0.0
C1811 C 0.92984 0.82229 0.10827 0.0
C1812 C 0.94517 0.82611 0.11435 0.0
H1813 H 0.89318 0.72767 0.07783 0.0
H1814 H 0.91413 0.74862 0.07804 0.0
C1815 C 0.94714 0.83929 0.12474 0.0
C1816 C 0.92647 0.80712 0.09947 0.0
H1817 H 0.91913 0.76746 0.10715 0.0
C1818 C 0.91873 0.80816 0.08448 0.0
C1819 C 0.92749 0.792 0.10726 0.0
C1820 C 0.93559 0.79011 0.1234 0.0
C1821 C 0.91056 0.79492 0.07793 0.0
C1822 C 0.91015 0.78032 0.0866 0.0
C1823 C 0.91943 0.77873 0.10059 0.0
C1824 C 0.89765 0.76802 0.08346 0.0
C1825 C 0.90146 0.79696 0.06239 0.0
C1826 C 0.8815 0.77204 0.0863 0.0
C1827 C 0.86969 0.76016 0.08649 0.0
C1828 C 0.87374 0.74403 0.08362 0.0
C1829 C 0.88975 0.74007 0.07988 0.0
C1830 C 0.9017 0.75198 0.08002 0.0
H1831 H 0.907 0.80642 0.05476 0.0
H1832 H 0.90102 0.78551 0.05552 0.0
H1833 H 0.88893 0.8007 0.06511 0.0
H1834 H 0.87816 0.78427 0.0893 0.0
H1835 H 0.85744 0.7635 0.08944 0.0
H1836 H 0.98708 0.86058 0.17768 0.0
H1837 H 0.01014 0.84197 0.17782 0.0
H1838 H 0.03398 0.8714 0.14237 0.0
H1839 H 0.01128 0.88984 0.14219 0.0
H1840 H 0.02143 0.82467 0.15111 0.0
H1841 H 0.06975 0.86319 0.17498 0.0
H1842 H 0.04869 0.86767 0.17803 0.0
H1843 H 0.05866 0.87364 0.15973 0.0
C1844 C 0.9974 0.86319 0.17016 0.0
C1845 C 0.99739 0.87666 0.15992 0.0
C1846 C 0.01052 0.85256 0.17024 0.0
C1847 C 0.02389 0.85546 0.16032 0.0
C1848 C 0.02398 0.86911 0.15041 0.0
H1849 H 0.08188 0.81369 0.09587 0.0
H1850 H 0.06017 0.81967 0.11454 0.0
C1851 C 0.0109 0.87958 0.15022 0.0
C1852 C 0.03723 0.8437 0.15883 0.0
H1853 H 0.07805 0.84301 0.15516 0.0
C1854 C 0.03384 0.82844 0.15247 0.0
C1855 C 0.05343 0.84839 0.161 0.0
C1856 C 0.05784 0.86406 0.16899 0.0
C1857 C 0.0462 0.81858 0.14649 0.0
C1858 C 0.06224 0.8243 0.14663 0.0
C1859 C 0.06575 0.83869 0.15475 0.0
C1860 C 0.07483 0.81741 0.13597 0.0
C1861 C 0.04182 0.80252 0.13932 0.0
C1862 C 0.09039 0.81403 0.14171 0.0
C1863 C 0.10294 0.81071 0.13091 0.0
C1864 C 0.10012 0.81103 0.11425 0.0
C1865 C 0.08439 0.81351 0.10865 0.0
C1866 C 0.07191 0.81671 0.11936 0.0
H1867 H 0.03155 0.79706 0.14589 0.0
H1868 H 0.03799 0.80425 0.12665 0.0
H1869 H 0.05213 0.79402 0.13957 0.0
H1870 H 0.09297 0.81467 0.15446 0.0
H1871 H 0.115 0.80893 0.13549 0.0
H1872 H 0.39889 0.14528 0.26715 0.0
H1873 H 0.39892 0.12403 0.28723 0.0
H1874 H 0.42783 0.09426 0.25606 0.0
H1875 H 0.42772 0.11565 0.23566 0.0
H1876 H 0.40111 0.07877 0.26613 0.0
H1877 H 0.43031 0.10534 0.31904 0.0
H1878 H 0.41604 0.11946 0.31122 0.0
H1879 H 0.43301 0.11348 0.29906 0.0
C1880 C 0.40559 0.13438 0.2647 0.0
C1881 C 0.41327 0.13212 0.24984 0.0
C1882 C 0.40574 0.12226 0.27627 0.0
C1883 C 0.4136 0.10762 0.27329 0.0
C1884 C 0.42185 0.10554 0.25869 0.0
H1885 H 0.38198 0.05337 0.35689 0.0
H1886 H 0.40208 0.05897 0.33601 0.0
C1887 C 0.42182 0.11777 0.24708 0.0
C1888 C 0.41106 0.09405 0.28458 0.0
H1889 H 0.40723 0.08744 0.32481 0.0
C1890 C 0.40292 0.08037 0.27895 0.0
C1891 C 0.41387 0.09574 0.30126 0.0
C1892 C 0.42397 0.10923 0.30794 0.0
C1893 C 0.39575 0.0695 0.28969 0.0
C1894 C 0.39638 0.07268 0.30641 0.0
C1895 C 0.40633 0.08514 0.312 0.0
C1896 C 0.38462 0.06557 0.31785 0.0
C1897 C 0.38683 0.05522 0.28295 0.0
C1898 C 0.36812 0.06695 0.3145 0.0
C1899 C 0.35671 0.06363 0.3263 0.0
C1900 C 0.36149 0.05914 0.34187 0.0
C1901 C 0.37794 0.05675 0.34499 0.0
C1902 C 0.38943 0.06001 0.33308 0.0
H1903 H 0.39322 0.05035 0.27227 0.0
H1904 H 0.38547 0.04548 0.29198 0.0
H1905 H 0.37472 0.05909 0.27888 0.0
H1906 H 0.36401 0.07163 0.30306 0.0
H1907 H 0.34412 0.06536 0.32347 0.0
H1908 H 0.37449 0.3161 0.00876 0.0
H1909 H 0.35875 0.31497 0.98371 0.0
H1910 H 0.37414 0.36311 0.97203 0.0
H1911 H 0.38998 0.36418 0.99648 0.0
H1912 H 0.33387 0.33285 0.97379 0.0
H1913 H 0.38284 0.34082 0.93025 0.0
H1914 H 0.38662 0.33548 0.95096 0.0
H1915 H 0.38444 0.35628 0.94515 0.0
C1916 C 0.37463 0.32634 0.00071 0.0
C1917 C 0.38359 0.34018 0.00455 0.0
C1918 C 0.36566 0.32567 0.98643 0.0
C1919 C 0.36561 0.33879 0.97576 0.0
C1920 C 0.37442 0.35262 0.97974 0.0
H1921 H 0.29858 0.3878 0.92371 0.0
H1922 H 0.31236 0.37022 0.94212 0.0
C1923 C 0.38338 0.35326 0.99386 0.0
C1924 C 0.3556 0.33888 0.96098 0.0
H1925 H 0.35685 0.35267 0.92244 0.0
C1926 C 0.33891 0.33676 0.96241 0.0
C1927 C 0.36212 0.34329 0.94589 0.0
C1928 C 0.38002 0.34388 0.94295 0.0
C1929 C 0.32851 0.34071 0.94968 0.0
C1930 C 0.33495 0.34756 0.93545 0.0
C1931 C 0.35173 0.34787 0.93343 0.0
C1932 C 0.32486 0.35661 0.92373 0.0
C1933 C 0.31072 0.33791 0.9519 0.0
C1934 C 0.3274 0.35526 0.90705 0.0
C1935 C 0.32001 0.36599 0.89634 0.0
C1936 C 0.30982 0.37825 0.90209 0.0
C1937 C 0.3066 0.37889 0.91871 0.0
C1938 C 0.31423 0.36845 0.92936 0.0
H1939 H 0.30859 0.32662 0.95872 0.0
H1940 H 0.30553 0.34789 0.95909 0.0
H1941 H 0.30429 0.33713 0.94022 0.0
H1942 H 0.33561 0.3463 0.90235 0.0
H1943 H 0.32285 0.36503 0.88369 0.0
H1944 H 0.61707 0.36147 0.26709 0.0
H1945 H 0.61654 0.38137 0.28859 0.0
H1946 H 0.5774 0.40607 0.26517 0.0
H1947 H 0.57789 0.38612 0.2434 0.0
H1948 H 0.6022 0.42653 0.27431 0.0
H1949 H 0.58458 0.38806 0.32528 0.0
H1950 H 0.60061 0.37888 0.31414 0.0
H1951 H 0.58143 0.38218 0.30459 0.0
C1952 C 0.60821 0.371 0.26657 0.0
C1953 C 0.59749 0.37218 0.25358 0.0
C1954 C 0.60784 0.38232 0.27894 0.0
C1955 C 0.59673 0.39503 0.27863 0.0
C1956 C 0.58593 0.39624 0.26572 0.0
H1957 H 0.61877 0.44561 0.36729 0.0
H1958 H 0.59973 0.4379 0.34607 0.0
C1959 C 0.58622 0.38482 0.25334 0.0
C1960 C 0.59747 0.40753 0.2913 0.0
H1961 H 0.60184 0.41087 0.33186 0.0
C1962 C 0.60169 0.42328 0.28693 0.0
C1963 C 0.59624 0.40351 0.30776 0.0
C1964 C 0.59027 0.38727 0.31321 0.0
C1965 C 0.60648 0.43454 0.29858 0.0
C1966 C 0.60747 0.42973 0.31491 0.0
C1967 C 0.60143 0.41458 0.31936 0.0
C1968 C 0.61736 0.43861 0.32689 0.0
C1969 C 0.61106 0.45122 0.29314 0.0
C1970 C 0.63341 0.44224 0.32312 0.0
C1971 C 0.64414 0.44683 0.33512 0.0
C1972 C 0.63922 0.44754 0.35127 0.0
C1973 C 0.62289 0.44517 0.35495 0.0
C1974 C 0.61204 0.44069 0.34283 0.0
H1975 H 0.60302 0.45528 0.28328 0.0
H1976 H 0.61045 0.46007 0.30312 0.0
H1977 H 0.62349 0.45101 0.28826 0.0
H1978 H 0.63805 0.44036 0.3111 0.0
H1979 H 0.65658 0.44887 0.33189 0.0
H1980 H 0.70795 0.13678 0.89896 0.0
H1981 H 0.70341 0.14906 0.92548 0.0
H1982 H 0.67541 0.10767 0.93952 0.0
H1983 H 0.68021 0.09552 0.91317 0.0
H1984 H 0.67306 0.15683 0.93249 0.0
H1985 H 0.6961 0.11917 0.98189 0.0
H1986 H 0.70376 0.1176 0.96159 0.0
H1987 H 0.68582 0.10691 0.96745 0.0
C1988 C 0.7016 0.13004 0.90812 0.0
C1989 C 0.69461 0.11518 0.90432 0.0
C1990 C 0.69893 0.13704 0.92318 0.0
C1991 C 0.68919 0.12924 0.93457 0.0
C1992 C 0.68332 0.11376 0.93116 0.0
H1993 H 0.60763 0.14591 0.98425 0.0
H1994 H 0.63024 0.14422 0.96559 0.0
C1995 C 0.68602 0.10679 0.91612 0.0
C1996 C 0.68221 0.13832 0.94823 0.0
H1997 H 0.67071 0.1335 0.98732 0.0
C1998 C 0.673 0.15204 0.94463 0.0
C1999 C 0.6822 0.13224 0.96411 0.0
C2000 C 0.69266 0.11826 0.969 0.0
C2001 C 0.66254 0.15875 0.95601 0.0
C2002 C 0.66123 0.15152 0.9713 0.0
C2003 C 0.67162 0.13889 0.97548 0.0
C2004 C 0.64742 0.15495 0.98192 0.0
C2005 C 0.65218 0.17287 0.9513 0.0
C2006 C 0.64958 0.16187 0.99714 0.0
C2007 C 0.63657 0.16309 0.00777 0.0
C2008 C 0.62138 0.15696 0.00345 0.0
C2009 C 0.61919 0.15065 0.98794 0.0
C2010 C 0.63208 0.14972 0.97726 0.0
H2011 H 0.6576 0.17975 0.94121 0.0
H2012 H 0.64024 0.16841 0.94734 0.0
H2013 H 0.65031 0.18109 0.96167 0.0
H2014 H 0.66138 0.1659 0.00093 0.0
H2015 H 0.63862 0.16804 0.01965 0.0
H2016 H 0.34694 0.9314 0.14707 0.0
H2017 H 0.35297 0.91878 0.17304 0.0
H2018 H 0.39954 0.94159 0.17344 0.0
H2019 H 0.39354 0.95432 0.14758 0.0
H2020 H 0.38209 0.89798 0.17503 0.0
H2021 H 0.38099 0.9471 0.22058 0.0
H2022 H 0.36967 0.9482 0.20204 0.0
H2023 H 0.39106 0.95096 0.20178 0.0
C2024 C 0.35826 0.93407 0.15293 0.0
C2025 C 0.36983 0.94371 0.14528 0.0
C2026 C 0.36172 0.92683 0.16769 0.0
C2027 C 0.37667 0.92933 0.17512 0.0
C2028 C 0.38788 0.93965 0.16795 0.0
H2029 H 0.41925 0.88075 0.25896 0.0
H2030 H 0.41548 0.89882 0.23581 0.0
C2031 C 0.3845 0.94679 0.15314 0.0
C2032 C 0.38129 0.9196 0.18923 0.0
H2033 H 0.38917 0.92136 0.22949 0.0
C2034 C 0.38364 0.90307 0.18694 0.0
C2035 C 0.3836 0.92641 0.20462 0.0
C2036 C 0.38114 0.94413 0.20755 0.0
C2037 C 0.38801 0.89305 0.19974 0.0
C2038 C 0.38973 0.89971 0.21529 0.0
C2039 C 0.38783 0.91634 0.21753 0.0
C2040 C 0.39211 0.88929 0.22948 0.0
C2041 C 0.39073 0.8754 0.19652 0.0
C2042 C 0.38013 0.8782 0.23361 0.0
C2043 C 0.38225 0.86792 0.24664 0.0
C2044 C 0.39636 0.86858 0.25592 0.0
C2045 C 0.4083 0.87989 0.25194 0.0
C2046 C 0.40615 0.89024 0.23881 0.0
H2047 H 0.39357 0.87312 0.18366 0.0
H2048 H 0.4007 0.87061 0.20402 0.0
H2049 H 0.37963 0.86863 0.19952 0.0
H2050 H 0.3691 0.87749 0.22671 0.0
H2051 H 0.37275 0.85946 0.24942 0.0
H2052 H 0.19764 0.3677 0.10337 0.0
H2053 H 0.19303 0.35104 0.07928 0.0
H2054 H 0.16624 0.38992 0.05775 0.0
H2055 H 0.17087 0.40638 0.08152 0.0
H2056 H 0.16267 0.34204 0.06946 0.0
H2057 H 0.19245 0.37407 0.01978 0.0
H2058 H 0.19792 0.37728 0.04059 0.0
H2059 H 0.18127 0.38805 0.03179 0.0
C2060 C 0.19118 0.37275 0.09325 0.0
C2061 C 0.18451 0.38825 0.09427 0.0
C2062 C 0.18853 0.36326 0.07955 0.0
C2063 C 0.17949 0.36931 0.06661 0.0
C2064 C 0.17356 0.38509 0.06738 0.0
H2065 H 0.10187 0.35011 0.01401 0.0
H2066 H 0.12336 0.35058 0.03388 0.0
C2067 C 0.17604 0.39444 0.08105 0.0
C2068 C 0.17406 0.35879 0.05327 0.0
H2069 H 0.16689 0.36064 0.01293 0.0
C2070 C 0.16404 0.34574 0.05702 0.0
C2071 C 0.17608 0.36331 0.03699 0.0
C2072 C 0.18768 0.37634 0.03206 0.0
C2073 C 0.1545 0.33843 0.04517 0.0
C2074 C 0.15487 0.34449 0.02929 0.0
C2075 C 0.16636 0.35616 0.02518 0.0
C2076 C 0.14163 0.34132 0.01778 0.0
C2077 C 0.14335 0.32496 0.04997 0.0
C2078 C 0.1447 0.33589 0.00207 0.0
C2079 C 0.13232 0.33557 0.99062 0.0
C2080 C 0.11682 0.34102 0.99468 0.0
C2081 C 0.11369 0.34584 0.01055 0.0
C2082 C 0.12595 0.34597 0.02196 0.0
H2083 H 0.14857 0.31779 0.05996 0.0
H2084 H 0.13182 0.33012 0.0543 0.0
H2085 H 0.14078 0.31683 0.03968 0.0
H2086 H 0.15677 0.33245 0.99854 0.0
H2087 H 0.13509 0.33193 0.97842 0.0
H2088 H 0.56669 0.61615 0.25402 0.0
H2089 H 0.56857 0.59397 0.2347 0.0
H2090 H 0.60856 0.61755 0.21156 0.0
H2091 H 0.60709 0.63946 0.23099 0.0
H2092 H 0.56756 0.59131 0.20143 0.0
H2093 H 0.62733 0.57392 0.22414 0.0
H2094 H 0.61422 0.58742 0.23501 0.0
H2095 H 0.62708 0.59491 0.21923 0.0
C2096 C 0.57577 0.6167 0.2447 0.0
C2097 C 0.58698 0.6294 0.24423 0.0
C2098 C 0.57684 0.60399 0.23372 0.0
C2099 C 0.58906 0.60388 0.2221 0.0
C2100 C 0.59938 0.61717 0.22082 0.0
H2101 H 0.61055 0.58163 0.13306 0.0
H2102 H 0.59469 0.58511 0.15731 0.0
C2103 C 0.59843 0.62976 0.23183 0.0
C2104 C 0.59147 0.58991 0.21135 0.0
H2105 H 0.62185 0.56713 0.19612 0.0
C2106 C 0.57929 0.58568 0.20048 0.0
C2107 C 0.60647 0.58193 0.21061 0.0
C2108 C 0.61943 0.58464 0.22302 0.0
C2109 C 0.58247 0.57521 0.18762 0.0
C2110 C 0.5983 0.56931 0.1854 0.0
C2111 C 0.60978 0.57188 0.19752 0.0
C2112 C 0.60426 0.56408 0.16941 0.0
C2113 C 0.56907 0.57127 0.17606 0.0
C2114 C 0.61475 0.55087 0.16783 0.0
C2115 C 0.62402 0.54901 0.15387 0.0
C2116 C 0.62301 0.56044 0.1415 0.0
C2117 C 0.61154 0.57275 0.14253 0.0
C2118 C 0.60229 0.57458 0.15634 0.0
H2119 H 0.55756 0.56965 0.18266 0.0
H2120 H 0.56739 0.58147 0.16761 0.0
H2121 H 0.57164 0.5602 0.16905 0.0
H2122 H 0.61658 0.5427 0.17781 0.0
H2123 H 0.63288 0.53948 0.15328 0.0
H2124 H 0.89507 0.14689 0.01752 0.0
H2125 H 0.87424 0.14716 0.03819 0.0
H2126 H 0.84995 0.18584 0.01363 0.0
H2127 H 0.87084 0.18569 0.99279 0.0
H2128 H 0.86079 0.17296 0.05858 0.0
H2129 H 0.81757 0.14676 0.01446 0.0
H2130 H 0.83895 0.14654 0.01073 0.0
H2131 H 0.82803 0.16509 0.00958 0.0
C2132 C 0.8855 0.1557 0.01668 0.0
C2133 C 0.88453 0.16616 0.00346 0.0
C2134 C 0.87361 0.15585 0.0285 0.0
C2135 C 0.86048 0.16638 0.02729 0.0
C2136 C 0.85994 0.17754 0.01466 0.0
H2137 H 0.8011 0.14076 0.11086 0.0
H2138 H 0.8069 0.15943 0.08856 0.0
C2139 C 0.87194 0.17749 0.00285 0.0
C2140 C 0.84689 0.16436 0.03858 0.0
H2141 H 0.81142 0.14398 0.04181 0.0
C2142 C 0.84969 0.16712 0.05496 0.0
C2143 C 0.83247 0.15677 0.03369 0.0
C2144 C 0.82896 0.15353 0.01618 0.0
C2145 C 0.8392 0.16111 0.06673 0.0
C2146 C 0.82548 0.15224 0.06189 0.0
C2147 C 0.82189 0.15086 0.04545 0.0
C2148 C 0.81742 0.14115 0.07327 0.0
C2149 C 0.84377 0.16288 0.08421 0.0
C2150 C 0.82032 0.12463 0.07153 0.0
C2151 C 0.817 0.11412 0.08412 0.0
C2152 C 0.81056 0.1199 0.09858 0.0
C2153 C 0.80597 0.13611 0.09972 0.0
C2154 C 0.80941 0.14674 0.08708 0.0
H2155 H 0.85547 0.16913 0.08581 0.0
H2156 H 0.83439 0.16991 0.09059 0.0
H2157 H 0.84456 0.15087 0.09001 0.0
H2158 H 0.82648 0.12004 0.06099 0.0
H2159 H 0.82061 0.10164 0.08309 0.0
H2160 H 0.36372 0.38683 0.05582 0.0
H2161 H 0.34151 0.4063 0.05886 0.0
H2162 H 0.31029 0.36797 0.07461 0.0
H2163 H 0.33224 0.34873 0.07156 0.0
H2164 H 0.29566 0.39183 0.05288 0.0
H2165 H 0.32727 0.41813 0.10597 0.0
H2166 H 0.33732 0.41692 0.08679 0.0
H2167 H 0.33337 0.3989 0.09796 0.0
C2168 C 0.35197 0.38261 0.05954 0.0
C2169 C 0.34965 0.36637 0.06364 0.0
C2170 C 0.33937 0.3937 0.06136 0.0
C2171 C 0.32433 0.38856 0.06709 0.0
C2172 C 0.3218 0.37218 0.07015 0.0
H2173 H 0.24616 0.38525 0.1176 0.0
H2174 H 0.26744 0.38613 0.09757 0.0
C2175 C 0.33434 0.36121 0.0685 0.0
C2176 C 0.31147 0.39997 0.07171 0.0
H2177 H 0.29922 0.42051 0.10506 0.0
C2178 C 0.29654 0.39868 0.06395 0.0
C2179 C 0.31266 0.40903 0.08608 0.0
C2180 C 0.32847 0.41091 0.09478 0.0
C2181 C 0.28248 0.4046 0.07116 0.0
C2182 C 0.28343 0.41177 0.08653 0.0
C2183 C 0.29856 0.41491 0.09329 0.0
C2184 C 0.26929 0.41208 0.09732 0.0
C2185 C 0.26654 0.40184 0.06298 0.0
C2186 C 0.26334 0.42644 0.10394 0.0
C2187 C 0.25096 0.42598 0.11543 0.0
C2188 C 0.24481 0.41112 0.1207 0.0
C2189 C 0.25076 0.39687 0.1139 0.0
C2190 C 0.2628 0.39736 0.10231 0.0
H2191 H 0.26796 0.40153 0.04969 0.0
H2192 H 0.26161 0.39006 0.06685 0.0
H2193 H 0.25774 0.41136 0.06621 0.0
H2194 H 0.26839 0.43791 0.10038 0.0
H2195 H 0.24656 0.43713 0.12053 0.0
H2196 H 0.33143 0.65798 0.4303 0.0
H2197 H 0.31091 0.63903 0.42135 0.0
H2198 H 0.34243 0.5994 0.43267 0.0
H2199 H 0.36319 0.61849 0.44142 0.0
H2200 H 0.33186 0.59849 0.40177 0.0
H2201 H 0.27974 0.60771 0.44167 0.0
H2202 H 0.28724 0.62668 0.43471 0.0
H2203 H 0.2998 0.61409 0.44712 0.0
C2204 C 0.33384 0.64522 0.4312 0.0
C2205 C 0.34891 0.63971 0.43646 0.0
C2206 C 0.32204 0.63438 0.42626 0.0
C2207 C 0.32504 0.61777 0.42653 0.0
C2208 C 0.33981 0.61216 0.43253 0.0
H2209 H 0.24429 0.56873 0.37877 0.0
H2210 H 0.26631 0.57113 0.3983 0.0
C2211 C 0.35162 0.62306 0.43759 0.0
C2212 C 0.31367 0.60676 0.41832 0.0
H2213 H 0.27347 0.59987 0.41394 0.0
C2214 C 0.31914 0.59839 0.40471 0.0
C2215 C 0.29712 0.60635 0.42226 0.0
C2216 C 0.29068 0.61406 0.43736 0.0
C2217 C 0.30831 0.591 0.39409 0.0
C2218 C 0.29162 0.59221 0.39708 0.0
C2219 C 0.28627 0.59916 0.41151 0.0
C2220 C 0.27959 0.58869 0.38443 0.0
C2221 C 0.31479 0.58263 0.37936 0.0
C2222 C 0.27988 0.59761 0.37011 0.0
C2223 C 0.26735 0.59635 0.35904 0.0
C2224 C 0.25426 0.58612 0.36206 0.0
C2225 C 0.25431 0.5766 0.37605 0.0
C2226 C 0.26683 0.578 0.38724 0.0
H2227 H 0.32704 0.57776 0.38159 0.0
H2228 H 0.30679 0.57265 0.37552 0.0
H2229 H 0.31568 0.59142 0.36935 0.0
H2230 H 0.28942 0.60619 0.36785 0.0
H2231 H 0.26763 0.60386 0.34839 0.0
H2232 H 0.90459 0.40234 0.83881 0.0
H2233 H 0.88771 0.42532 0.84563 0.0
H2234 H 0.8552 0.41324 0.80711 0.0
H2235 H 0.87205 0.38979 0.80031 0.0
H2236 H 0.86998 0.45075 0.81535 0.0
H2237 H 0.83619 0.41623 0.86158 0.0
H2238 H 0.85735 0.41187 0.85988 0.0
H2239 H 0.84413 0.40705 0.84351 0.0
C2240 C 0.89387 0.40455 0.83174 0.0
C2241 C 0.88951 0.39414 0.81917 0.0
C2242 C 0.8843 0.41771 0.83562 0.0
C2243 C 0.87019 0.42079 0.82697 0.0
C2244 C 0.86606 0.41093 0.81392 0.0
H2245 H 0.81859 0.49821 0.87889 0.0
H2246 H 0.82044 0.4761 0.85921 0.0
C2247 C 0.87571 0.39765 0.81001 0.0
C2248 C 0.85979 0.43411 0.83235 0.0
H2249 H 0.83758 0.44478 0.86515 0.0
C2250 C 0.86239 0.44944 0.82588 0.0
C2251 C 0.84986 0.4323 0.84602 0.0
C2252 C 0.84657 0.41596 0.85316 0.0
C2253 C 0.85652 0.4632 0.8337 0.0
C2254 C 0.84809 0.46147 0.84837 0.0
C2255 C 0.84408 0.44606 0.85391 0.0
C2256 C 0.84644 0.47509 0.85965 0.0
C2257 C 0.86038 0.47954 0.82687 0.0
C2258 C 0.86039 0.48145 0.86663 0.0
C2259 C 0.85937 0.4937 0.87797 0.0
C2260 C 0.84436 0.49998 0.88254 0.0
C2261 C 0.83031 0.49358 0.8756 0.0
C2262 C 0.83134 0.48105 0.86433 0.0
H2263 H 0.86225 0.47895 0.81365 0.0
H2264 H 0.85062 0.48828 0.82951 0.0
H2265 H 0.87165 0.48406 0.83242 0.0
H2266 H 0.87213 0.47679 0.86339 0.0
H2267 H 0.87045 0.49839 0.88297 0.0
H2268 H 0.63291 0.88525 0.43289 0.0
H2269 H 0.65168 0.90601 0.42399 0.0
H2270 H 0.69154 0.87477 0.43524 0.0
H2271 H 0.6733 0.85483 0.44541 0.0
H2272 H 0.70005 0.90423 0.44083 0.0
H2273 H 0.6705 0.9025 0.38052 0.0
H2274 H 0.65871 0.90978 0.39705 0.0
H2275 H 0.66459 0.88896 0.39632 0.0
C2276 C 0.64565 0.88287 0.43378 0.0
C2277 C 0.65139 0.86794 0.43942 0.0
C2278 C 0.65641 0.89476 0.42851 0.0
C2279 C 0.67305 0.89178 0.42838 0.0
C2280 C 0.67877 0.87739 0.43503 0.0
H2281 H 0.74927 0.8836 0.37459 0.0
H2282 H 0.72708 0.88629 0.39353 0.0
C2283 C 0.66815 0.86574 0.44062 0.0
C2284 C 0.68472 0.90244 0.41997 0.0
H2285 H 0.69656 0.91223 0.38186 0.0
C2286 C 0.69908 0.90645 0.42801 0.0
C2287 C 0.68347 0.90553 0.40323 0.0
C2288 C 0.66856 0.90143 0.3937 0.0
C2289 C 0.71274 0.91152 0.41948 0.0
C2290 C 0.71186 0.91301 0.40262 0.0
C2291 C 0.69705 0.91103 0.39485 0.0
C2292 C 0.72647 0.91227 0.3926 0.0
C2293 C 0.72846 0.91368 0.42824 0.0
C2294 C 0.73356 0.92607 0.38599 0.0
C2295 C 0.74646 0.92457 0.37518 0.0
C2296 C 0.75205 0.90925 0.37068 0.0
C2297 C 0.74507 0.89555 0.37764 0.0
C2298 C 0.73247 0.89706 0.38855 0.0
H2299 H 0.72663 0.91525 0.44139 0.0
H2300 H 0.73608 0.90288 0.42629 0.0
H2301 H 0.73508 0.92425 0.42344 0.0
H2302 H 0.72896 0.93789 0.38894 0.0
H2303 H 0.7517 0.93531 0.36999 0.0
H2304 H 0.65157 0.51918 0.4067 0.0
H2305 H 0.6498 0.541 0.38708 0.0
H2306 H 0.68221 0.5156 0.35559 0.0
H2307 H 0.6842 0.49369 0.37524 0.0
H2308 H 0.68037 0.55779 0.36268 0.0
H2309 H 0.62932 0.52113 0.33917 0.0
H2310 H 0.63314 0.52148 0.36052 0.0
H2311 H 0.64718 0.51185 0.34731 0.0
C2312 C 0.6587 0.51844 0.39582 0.0
C2313 C 0.66788 0.50468 0.39242 0.0
C2314 C 0.65773 0.53094 0.38468 0.0
C2315 C 0.66586 0.52982 0.36996 0.0
C2316 C 0.67598 0.51667 0.36698 0.0
H2317 H 0.62404 0.5805 0.28882 0.0
H2318 H 0.64178 0.56217 0.30351 0.0
C2319 C 0.67707 0.50419 0.37821 0.0
C2320 C 0.66154 0.541 0.35691 0.0
H2321 H 0.63202 0.54737 0.32928 0.0
C2322 C 0.66997 0.55549 0.35515 0.0
C2323 C 0.64809 0.53779 0.34707 0.0
C2324 C 0.63885 0.52222 0.34847 0.0
C2325 C 0.66485 0.5672 0.34408 0.0
C2326 C 0.65075 0.56441 0.33493 0.0
C2327 C 0.64282 0.54955 0.33626 0.0
C2328 C 0.64306 0.577 0.32489 0.0
C2329 C 0.67452 0.58245 0.34238 0.0
C2330 C 0.63825 0.59165 0.33181 0.0
C2331 C 0.62826 0.60219 0.32334 0.0
C2332 C 0.62265 0.59808 0.30796 0.0
C2333 C 0.6281 0.58383 0.30074 0.0
C2334 C 0.63827 0.57341 0.3091 0.0
H2335 H 0.68739 0.58033 0.34531 0.0
H2336 H 0.67368 0.58742 0.33001 0.0
H2337 H 0.66987 0.59156 0.35095 0.0
H2338 H 0.64139 0.59451 0.34412 0.0
H2339 H 0.62407 0.61303 0.32922 0.0
H2340 H 0.26407 0.57503 0.61379 0.0
H2341 H 0.24286 0.57785 0.59331 0.0
H2342 H 0.21908 0.61324 0.62283 0.0
H2343 H 0.24006 0.61059 0.64317 0.0
H2344 H 0.19962 0.58522 0.60839 0.0
H2345 H 0.23594 0.62225 0.56587 0.0
H2346 H 0.24447 0.60441 0.57483 0.0
H2347 H 0.24058 0.62169 0.58709 0.0
C2348 C 0.25418 0.58323 0.61597 0.0
C2349 C 0.25368 0.5926 0.63006 0.0
C2350 C 0.2422 0.58491 0.60424 0.0
C2351 C 0.22957 0.59587 0.60657 0.0
C2352 C 0.22882 0.6048 0.62083 0.0
H2353 H 0.15477 0.64795 0.56331 0.0
H2354 H 0.18085 0.63821 0.57311 0.0
C2355 C 0.24079 0.60324 0.63243 0.0
C2356 C 0.21694 0.59827 0.59435 0.0
H2357 H 0.2081 0.62026 0.56081 0.0
C2358 C 0.20148 0.59257 0.59777 0.0
C2359 C 0.21952 0.60803 0.58069 0.0
C2360 C 0.23599 0.61454 0.57678 0.0
C2361 C 0.18829 0.59695 0.58826 0.0
C2362 C 0.19072 0.60714 0.57482 0.0
C2363 C 0.20633 0.61238 0.57105 0.0
C2364 C 0.17691 0.61359 0.56565 0.0
C2365 C 0.17171 0.59141 0.59324 0.0
C2366 C 0.16649 0.60314 0.55748 0.0
C2367 C 0.15159 0.60865 0.55207 0.0
C2368 C 0.14699 0.62472 0.55452 0.0
C2369 C 0.15807 0.63552 0.56128 0.0
C2370 C 0.17293 0.62996 0.56687 0.0
H2371 H 0.17163 0.58619 0.60554 0.0
H2372 H 0.16303 0.60155 0.59289 0.0
H2373 H 0.16746 0.58203 0.58475 0.0
H2374 H 0.16949 0.59053 0.55615 0.0
H2375 H 0.14334 0.60018 0.54662 0.0
H2376 H 0.89726 0.59449 0.68183 0.0
H2377 H 0.88775 0.5678 0.67354 0.0
H2378 H 0.84114 0.57803 0.69396 0.0
H2379 H 0.85052 0.60483 0.70182 0.0
H2380 H 0.87283 0.54065 0.68753 0.0
H2381 H 0.83166 0.57348 0.64605 0.0
H2382 H 0.84742 0.58353 0.65702 0.0
H2383 H 0.8292 0.57768 0.66708 0.0
C2384 C 0.88514 0.59082 0.6849 0.0
C2385 C 0.8745 0.60171 0.69215 0.0
C2386 C 0.8797 0.57563 0.68017 0.0
C2387 C 0.86362 0.57114 0.6828 0.0
C2388 C 0.85347 0.58143 0.69148 0.0
H2389 H 0.82873 0.47998 0.63967 0.0
H2390 H 0.83062 0.50203 0.65931 0.0
C2391 C 0.85882 0.59668 0.69597 0.0
C2392 C 0.85708 0.5567 0.6747 0.0
H2393 H 0.83273 0.54549 0.64357 0.0
C2394 C 0.86384 0.54162 0.67813 0.0
C2395 C 0.84539 0.55808 0.66236 0.0
C2396 C 0.83805 0.57405 0.65777 0.0
C2397 C 0.85968 0.52798 0.66908 0.0
C2398 C 0.84851 0.52955 0.65639 0.0
C2399 C 0.84119 0.54442 0.65344 0.0
C2400 C 0.84623 0.51663 0.64448 0.0
C2401 C 0.8679 0.51217 0.67247 0.0
C2402 C 0.85406 0.51784 0.62962 0.0
C2403 C 0.85307 0.50537 0.61849 0.0
C2404 C 0.84408 0.49152 0.62198 0.0
C2405 C 0.83566 0.49058 0.63664 0.0
C2406 C 0.83681 0.50307 0.64789 0.0
H2407 H 0.87652 0.513 0.68264 0.0
H2408 H 0.85874 0.50289 0.67536 0.0
H2409 H 0.87448 0.50807 0.66159 0.0
H2410 H 0.86133 0.5283 0.62681 0.0
H2411 H 0.85962 0.50643 0.60728 0.0
H2412 H 0.13404 0.02093 0.6414 0.0
H2413 H 0.13325 0.00166 0.6637 0.0
H2414 H 0.16725 0.97148 0.63851 0.0
H2415 H 0.16879 0.99132 0.61684 0.0
H2416 H 0.12131 0.97428 0.66093 0.0
H2417 H 0.18284 0.9635 0.68241 0.0
H2418 H 0.17793 0.98066 0.67004 0.0
H2419 H 0.18275 0.9615 0.66099 0.0
C2420 C 0.14169 0.01038 0.64098 0.0
C2421 C 0.15146 0.00744 0.62757 0.0
C2422 C 0.14128 0.99941 0.65369 0.0
C2423 C 0.15033 0.98513 0.65297 0.0
C2424 C 0.16057 0.98259 0.63972 0.0
H2425 H 0.13016 0.89094 0.6633 0.0
H2426 H 0.14334 0.91713 0.66069 0.0
C2427 C 0.16131 0.9938 0.62722 0.0
C2428 C 0.14692 0.97177 0.66434 0.0
H2429 H 0.16456 0.93996 0.68349 0.0
C2430 C 0.13079 0.96715 0.66636 0.0
C2431 C 0.1592 0.96239 0.67155 0.0
C2432 C 0.17661 0.96743 0.67126 0.0
C2433 C 0.1267 0.95276 0.67408 0.0
C2434 C 0.13907 0.94266 0.67986 0.0
C2435 C 0.15513 0.94774 0.67895 0.0
C2436 C 0.13547 0.92577 0.68393 0.0
C2437 C 0.10924 0.94779 0.67483 0.0
C2438 C 0.12739 0.92176 0.69821 0.0
C2439 C 0.12002 0.90669 0.69976 0.0
C2440 C 0.12053 0.89571 0.68695 0.0
C2441 C 0.12973 0.89929 0.67329 0.0
C2442 C 0.13727 0.91418 0.67184 0.0
H2443 H 0.1011 0.95697 0.66953 0.0
H2444 H 0.1075 0.93628 0.6683 0.0
H2445 H 0.10567 0.94582 0.68754 0.0
H2446 H 0.12577 0.93066 0.70759 0.0
H2447 H 0.1128 0.90413 0.7103 0.0
H2448 H 0.63739 0.76905 0.89002 0.0
H2449 H 0.61519 0.78821 0.89081 0.0
H2450 H 0.58715 0.75502 0.91915 0.0
H2451 H 0.60957 0.73573 0.9186 0.0
H2452 H 0.57168 0.76726 0.89036 0.0
H2453 H 0.59626 0.81621 0.92777 0.0
H2454 H 0.61093 0.80895 0.91368 0.0
H2455 H 0.6034 0.79569 0.92907 0.0
C2456 C 0.6266 0.7659 0.89662 0.0
C2457 C 0.62519 0.75091 0.90422 0.0
C2458 C 0.61398 0.7769 0.89718 0.0
C2459 C 0.59964 0.7731 0.90523 0.0
C2460 C 0.59821 0.75822 0.91305 0.0
H2461 H 0.54572 0.85951 0.88274 0.0
H2462 H 0.54931 0.83571 0.89999 0.0
C2463 C 0.611 0.74726 0.91272 0.0
C2464 C 0.58586 0.78426 0.90384 0.0
H2465 H 0.57846 0.82444 0.90587 0.0
C2466 C 0.57279 0.77968 0.8942 0.0
C2467 C 0.58701 0.80031 0.90925 0.0
C2468 C 0.60008 0.80555 0.92068 0.0
C2469 C 0.56209 0.79122 0.8881 0.0
C2470 C 0.5648 0.80767 0.89151 0.0
C2471 C 0.5765 0.81188 0.90295 0.0
C2472 C 0.55857 0.8206 0.8809 0.0
C2473 C 0.5487 0.78578 0.87716 0.0
C2474 C 0.56216 0.81989 0.86442 0.0
C2475 C 0.56018 0.83336 0.8547 0.0
C2476 C 0.55467 0.84791 0.86124 0.0
C2477 C 0.54992 0.84838 0.87744 0.0
C2478 C 0.55199 0.83483 0.88727 0.0
H2479 H 0.54374 0.77408 0.8813 0.0
H2480 H 0.5388 0.79473 0.87661 0.0
H2481 H 0.55353 0.78392 0.86485 0.0
H2482 H 0.56766 0.80927 0.85924 0.0
H2483 H 0.56378 0.83268 0.8422 0.0
H2484 H 0.01727 0.10808 0.36117 0.0
H2485 H 0.03724 0.12952 0.36119 0.0
H2486 H 0.00863 0.15661 0.32746 0.0
H2487 H 0.98839 0.13506 0.32739 0.0
H2488 H 0.05487 0.14496 0.33481 0.0
H2489 H 0.01369 0.18597 0.36836 0.0
H2490 H 0.00978 0.16466 0.36725 0.0
H2491 H 0.00711 0.17699 0.34977 0.0
C2492 C 0.01527 0.1185 0.35361 0.0
C2493 C 0.0012 0.11995 0.3444 0.0
C2494 C 0.02673 0.13071 0.35358 0.0
C2495 C 0.02433 0.14468 0.34443 0.0
C2496 C 0.01062 0.14595 0.33468 0.0
H2497 H 0.10949 0.2033 0.36866 0.0
H2498 H 0.08663 0.19727 0.35075 0.0
C2499 C 0.99913 0.13362 0.33461 0.0
C2500 C 0.03584 0.1581 0.34635 0.0
H2501 H 0.04128 0.19158 0.36941 0.0
C2502 C 0.0519 0.1555 0.3419 0.0
C2503 C 0.03181 0.17183 0.35555 0.0
C2504 C 0.01469 0.17514 0.36059 0.0
C2505 C 0.06429 0.16533 0.34779 0.0
C2506 C 0.06041 0.17816 0.35829 0.0
C2507 C 0.04418 0.18175 0.36135 0.0
C2508 C 0.07274 0.18511 0.36912 0.0
C2509 C 0.0815 0.1609 0.34409 0.0
C2510 C 0.07209 0.18105 0.38548 0.0
C2511 C 0.08497 0.18449 0.39558 0.0
C2512 C 0.09877 0.19213 0.38958 0.0
C2513 C 0.09895 0.19741 0.37352 0.0
C2514 C 0.08598 0.19387 0.3633 0.0
H2515 H 0.08242 0.1499 0.33657 0.0
H2516 H 0.08738 0.17093 0.33754 0.0
H2517 H 0.08828 0.15888 0.35542 0.0
H2518 H 0.062 0.17431 0.39024 0.0
H2519 H 0.0845 0.18049 0.40797 0.0
H2520 H 0.43258 0.66885 0.84816 0.0
H2521 H 0.42769 0.69157 0.86595 0.0
H2522 H 0.4444 0.66361 0.90637 0.0
H2523 H 0.44919 0.64063 0.88831 0.0
H2524 H 0.41418 0.67389 0.91057 0.0
H2525 H 0.44996 0.72597 0.89132 0.0
H2526 H 0.44134 0.71671 0.8739 0.0
H2527 H 0.45551 0.70562 0.88605 0.0
C2528 C 0.43576 0.66779 0.86075 0.0
C2529 C 0.44114 0.65307 0.86694 0.0
C2530 C 0.43312 0.68082 0.87091 0.0
C2531 C 0.43583 0.6794 0.88752 0.0
C2532 C 0.44239 0.66503 0.89358 0.0
H2533 H 0.38525 0.76275 0.92846 0.0
H2534 H 0.40667 0.74243 0.92831 0.0
C2535 C 0.44517 0.65196 0.8833 0.0
C2536 C 0.42868 0.69161 0.89837 0.0
H2537 H 0.42193 0.73203 0.89987 0.0
C2538 C 0.41627 0.68663 0.9087 0.0
C2539 C 0.43151 0.70825 0.89623 0.0
C2540 C 0.44545 0.7144 0.88639 0.0
C2541 C 0.40545 0.69775 0.9153 0.0
C2542 C 0.40701 0.71418 0.91132 0.0
C2543 C 0.42055 0.71936 0.90265 0.0
C2544 C 0.3935 0.72557 0.9135 0.0
C2545 C 0.39182 0.6917 0.92563 0.0
C2546 C 0.37901 0.72276 0.90532 0.0
C2547 C 0.36688 0.73434 0.90525 0.0
C2548 C 0.36898 0.74895 0.91342 0.0
C2549 C 0.38324 0.75152 0.92218 0.0
C2550 C 0.39549 0.73997 0.92208 0.0
H2551 H 0.3953 0.68054 0.93211 0.0
H2552 H 0.38803 0.70089 0.93455 0.0
H2553 H 0.38137 0.68881 0.91785 0.0
H2554 H 0.37736 0.71188 0.89834 0.0
H2555 H 0.35605 0.73204 0.89838 0.0
H2556 H 0.90779 0.332 0.40135 0.0
H2557 H 0.93172 0.33773 0.38534 0.0
H2558 H 0.91517 0.30505 0.34861 0.0
H2559 H 0.89099 0.29922 0.36484 0.0
H2560 H 0.9564 0.31619 0.37002 0.0
H2561 H 0.91831 0.35192 0.32785 0.0
H2562 H 0.91108 0.34679 0.34767 0.0
H2563 H 0.91301 0.33145 0.33265 0.0
C2564 C 0.90938 0.32586 0.38998 0.0
C2565 C 0.89753 0.31534 0.3842 0.0
C2566 C 0.92307 0.32905 0.38089 0.0
C2567 C 0.92511 0.32191 0.36577 0.0
C2568 C 0.91374 0.31071 0.36026 0.0
H2569 H 0.01232 0.36554 0.32283 0.0
H2570 H 0.99111 0.34501 0.32442 0.0
C2571 C 0.90003 0.30734 0.36951 0.0
C2572 C 0.93838 0.32775 0.3555 0.0
H2573 H 0.94592 0.35771 0.32849 0.0
C2574 C 0.95423 0.32482 0.36048 0.0
C2575 C 0.93542 0.33906 0.34315 0.0
C2576 C 0.91857 0.3426 0.33743 0.0
C2577 C 0.96708 0.33393 0.3544 0.0
C2578 C 0.96389 0.34623 0.34312 0.0
C2579 C 0.94826 0.34821 0.33712 0.0
C2580 C 0.97579 0.35905 0.34007 0.0
C2581 C 0.98374 0.33139 0.36114 0.0
C2582 C 0.97391 0.37382 0.34798 0.0
C2583 C 0.98596 0.38544 0.34721 0.0
C2584 C 5e-05 0.38256 0.33836 0.0
C2585 C 0.00154 0.3681 0.32968 0.0
C2586 C 0.9895 0.35636 0.33061 0.0
H2587 H 0.98416 0.32139 0.36999 0.0
H2588 H 0.99224 0.32866 0.35122 0.0
H2589 H 0.98796 0.34257 0.36711 0.0
H2590 H 0.9634 0.37607 0.35535 0.0
H2591 H 0.98444 0.39649 0.35395 0.0
H2592 H 0.5494 0.13801 0.6082 0.0
H2593 H 0.55278 0.16094 0.58964 0.0
H2594 H 0.56751 0.19073 0.62949 0.0
H2595 H 0.56416 0.16801 0.64779 0.0
H2596 H 0.548 0.20698 0.60555 0.0
H2597 H 0.60035 0.17355 0.57996 0.0
H2598 H 0.58073 0.1644 0.57967 0.0
H2599 H 0.59097 0.16716 0.59845 0.0
C2600 C 0.55284 0.14964 0.61294 0.0
C2601 C 0.55665 0.15135 0.62932 0.0
C2602 C 0.55488 0.16265 0.60238 0.0
C2603 C 0.56059 0.17746 0.60818 0.0
C2604 C 0.56309 0.17942 0.62475 0.0
H2605 H 0.61501 0.25447 0.61158 0.0
H2606 H 0.59403 0.2341 0.61123 0.0
C2607 C 0.56122 0.16647 0.63519 0.0
C2608 C 0.56615 0.19044 0.59731 0.0
H2609 H 0.60019 0.20148 0.57716 0.0
C2610 C 0.5591 0.2057 0.59881 0.0
C2611 C 0.5806 0.18875 0.58843 0.0
C2612 C 0.58872 0.17263 0.58648 0.0
C2613 C 0.56697 0.2195 0.59312 0.0
C2614 C 0.5823 0.21796 0.58593 0.0
C2615 C 0.58844 0.20259 0.58274 0.0
C2616 C 0.59358 0.23171 0.58532 0.0
C2617 C 0.55945 0.23574 0.59599 0.0
C2618 C 0.60038 0.23709 0.57081 0.0
C2619 C 0.61242 0.24895 0.57097 0.0
C2620 C 0.61805 0.25512 0.58568 0.0
C2621 C 0.61103 0.24981 0.60008 0.0
C2622 C 0.5989 0.23829 0.59989 0.0
H2623 H 0.54612 0.23488 0.59635 0.0
H2624 H 0.56357 0.24046 0.60777 0.0
H2625 H 0.563 0.24445 0.5865 0.0
H2626 H 0.59657 0.23196 0.55946 0.0
H2627 H 0.61767 0.25288 0.55972 0.0
H2628 H 0.40313 0.20754 0.6217 0.0
H2629 H 0.42485 0.20421 0.6417 0.0
H2630 H 0.42072 0.15268 0.63729 0.0
H2631 H 0.39928 0.15599 0.61754 0.0
H2632 H 0.42519 0.16536 0.67038 0.0
H2633 H 0.4699 0.18737 0.62536 0.0
H2634 H 0.45258 0.1994 0.63042 0.0
H2635 H 0.45006 0.18128 0.61899 0.0
C2636 C 0.40671 0.19556 0.62533 0.0
C2637 C 0.39973 0.18199 0.61803 0.0
C2638 C 0.4191 0.19367 0.63665 0.0
C2639 C 0.42441 0.17819 0.64088 0.0
C2640 C 0.41677 0.16472 0.63422 0.0
H2641 H 0.48135 0.10656 0.6587 0.0
H2642 H 0.46085 0.12746 0.66018 0.0
C2643 C 0.40462 0.1666 0.62288 0.0
C2644 C 0.4389 0.17545 0.65084 0.0
H2645 H 0.47915 0.16985 0.64536 0.0
C2646 C 0.43711 0.16687 0.66527 0.0
C2647 C 0.45445 0.17761 0.64428 0.0
C2648 C 0.45702 0.1869 0.62891 0.0
C2649 C 0.45019 0.15882 0.67225 0.0
C2650 C 0.46528 0.15919 0.66444 0.0
C2651 C 0.46751 0.16947 0.65125 0.0
C2652 C 0.47737 0.14638 0.66708 0.0
C2653 C 0.44748 0.14891 0.68718 0.0
C2654 C 0.49347 0.15002 0.67066 0.0
C2655 C 0.50524 0.13796 0.66997 0.0
C2656 C 0.50105 0.12226 0.66527 0.0
C2657 C 0.48486 0.11856 0.66236 0.0
C2658 C 0.47313 0.13048 0.66335 0.0
H2659 H 0.43794 0.15433 0.69483 0.0
H2660 H 0.44341 0.13669 0.68367 0.0
H2661 H 0.45869 0.14775 0.69435 0.0
H2662 H 0.49701 0.16228 0.67331 0.0
H2663 H 0.5177 0.14112 0.6721 0.0
H2664 H 0.39159 0.2314 0.57209 0.0
H2665 H 0.41324 0.25137 0.5753 0.0
H2666 H 0.38242 0.27975 0.60584 0.0
H2667 H 0.36094 0.25997 0.60287 0.0
H2668 H 0.40561 0.29457 0.57589 0.0
H2669 H 0.43158 0.25947 0.62668 0.0
H2670 H 0.42367 0.2499 0.60882 0.0
H2671 H 0.41017 0.25839 0.62333 0.0
C2672 C 0.38936 0.24209 0.57919 0.0
C2673 C 0.37462 0.24415 0.58729 0.0
C2674 C 0.40172 0.2534 0.58104 0.0
C2675 C 0.39935 0.26691 0.59085 0.0
C2676 C 0.38441 0.26935 0.59825 0.0
H2677 H 0.41687 0.34166 0.64572 0.0
H2678 H 0.41368 0.31549 0.63266 0.0
C2679 C 0.37217 0.25805 0.59655 0.0
C2680 C 0.41253 0.27816 0.59462 0.0
H2681 H 0.43702 0.28753 0.62614 0.0
C2682 C 0.41305 0.29289 0.58647 0.0
C2683 C 0.42211 0.27582 0.60845 0.0
C2684 C 0.42201 0.26003 0.61737 0.0
C2685 C 0.4218 0.3059 0.59271 0.0
C2686 C 0.43007 0.30404 0.60747 0.0
C2687 C 0.43074 0.28886 0.61478 0.0
C2688 C 0.43442 0.31827 0.61717 0.0
C2689 C 0.42082 0.32201 0.58442 0.0
C2690 C 0.44752 0.32817 0.61319 0.0
C2691 C 0.44945 0.34306 0.62086 0.0
C2692 C 0.43817 0.34817 0.63236 0.0
C2693 C 0.42568 0.33783 0.63692 0.0
C2694 C 0.42389 0.32295 0.62948 0.0
H2695 H 0.41407 0.32138 0.5729 0.0
H2696 H 0.41479 0.33084 0.59242 0.0
H2697 H 0.43312 0.32655 0.58191 0.0
H2698 H 0.45572 0.32473 0.60367 0.0
H2699 H 0.45904 0.35103 0.61712 0.0
H2700 H 0.47897 0.35753 0.67069 0.0
H2701 H 0.49874 0.33549 0.67059 0.0
H2702 H 0.53609 0.36915 0.65789 0.0
H2703 H 0.51646 0.39096 0.65744 0.0
H2704 H 0.51797 0.32994 0.64019 0.0
H2705 H 0.55575 0.33889 0.69417 0.0
H2706 H 0.53491 0.34512 0.69314 0.0
H2707 H 0.55039 0.35734 0.68426 0.0
C2708 C 0.49147 0.36024 0.66821 0.0
C2709 C 0.4962 0.37591 0.66391 0.0
C2710 C 0.50271 0.34766 0.66819 0.0
C2711 C 0.51887 0.35076 0.66439 0.0
C2712 C 0.52372 0.36656 0.66108 0.0
H2713 H 0.60315 0.33901 0.62475 0.0
H2714 H 0.58018 0.34202 0.64264 0.0
C2715 C 0.51248 0.37899 0.66072 0.0
C2716 C 0.53046 0.33759 0.66148 0.0
H2717 H 0.56913 0.3277 0.67073 0.0
C2718 C 0.52896 0.32887 0.64713 0.0
C2719 C 0.54467 0.3362 0.67066 0.0
C2720 C 0.54651 0.34477 0.68652 0.0
C2721 C 0.54211 0.32047 0.64064 0.0
C2722 C 0.55698 0.3206 0.64897 0.0
C2723 C 0.55778 0.32767 0.6643 0.0
C2724 C 0.57231 0.31729 0.64044 0.0
C2725 C 0.54048 0.31309 0.62413 0.0
C2726 C 0.57593 0.3022 0.6337 0.0
C2727 C 0.58915 0.3005 0.6233 0.0
C2728 C 0.59877 0.31389 0.61955 0.0
C2729 C 0.59574 0.3286 0.62725 0.0
C2730 C 0.58269 0.33027 0.63757 0.0
H2731 H 0.5284 0.31517 0.6188 0.0
H2732 H 0.54968 0.31815 0.61588 0.0
H2733 H 0.54247 0.29992 0.62491 0.0
H2734 H 0.56822 0.29196 0.63594 0.0
H2735 H 0.59131 0.28904 0.61751 0.0
H2736 H 0.88363 0.63885 0.76399 0.0
H2737 H 0.88563 0.61823 0.78477 0.0
H2738 H 0.92185 0.59345 0.7571 0.0
H2739 H 0.91999 0.6142 0.73616 0.0
H2740 H 0.89578 0.57375 0.76786 0.0
H2741 H 0.9218 0.60885 0.81775 0.0
H2742 H 0.90585 0.61972 0.80809 0.0
H2743 H 0.92376 0.61481 0.79692 0.0
C2744 C 0.89214 0.62912 0.76238 0.0
C2745 C 0.90167 0.62815 0.74849 0.0
C2746 C 0.89337 0.61742 0.77431 0.0
C2747 C 0.9041 0.6045 0.77257 0.0
C2748 C 0.91367 0.60346 0.75873 0.0
H2749 H 0.88404 0.55338 0.86104 0.0
H2750 H 0.9025 0.55905 0.83869 0.0
C2751 C 0.91258 0.61531 0.74683 0.0
C2752 C 0.90403 0.59159 0.78476 0.0
H2753 H 0.90318 0.58745 0.82544 0.0
C2754 C 0.89789 0.57649 0.78044 0.0
C2755 C 0.90731 0.59493 0.80108 0.0
C2756 C 0.91523 0.61041 0.80622 0.0
C2757 C 0.89296 0.56548 0.79224 0.0
C2758 C 0.89392 0.56994 0.80865 0.0
C2759 C 0.9021 0.5841 0.81287 0.0
C2760 C 0.88361 0.56234 0.82106 0.0
C2761 C 0.88584 0.54966 0.78698 0.0
C2762 C 0.86693 0.56184 0.8185 0.0
C2763 C 0.85648 0.55861 0.83116 0.0
C2764 C 0.86243 0.55599 0.84673 0.0
C2765 C 0.87915 0.55532 0.84914 0.0
C2766 C 0.88969 0.55857 0.83639 0.0
H2767 H 0.89232 0.54496 0.77628 0.0
H2768 H 0.88632 0.54052 0.79671 0.0
H2769 H 0.87311 0.55152 0.78342 0.0
H2770 H 0.86185 0.56513 0.80696 0.0
H2771 H 0.84366 0.55895 0.82892 0.0
H2772 H 0.82416 0.90257 0.41214 0.0
H2773 H 0.82769 0.8867 0.43654 0.0
H2774 H 0.80215 0.84715 0.41475 0.0
H2775 H 0.79859 0.86324 0.39003 0.0
H2776 H 0.80459 0.86922 0.45748 0.0
H2777 H 0.84905 0.83039 0.42546 0.0
H2778 H 0.84325 0.84952 0.41701 0.0
H2779 H 0.82909 0.83326 0.41746 0.0
C2780 C 0.8191 0.89058 0.41264 0.0
C2781 C 0.81128 0.88402 0.39923 0.0
C2782 C 0.82102 0.88157 0.42659 0.0
C2783 C 0.81527 0.86574 0.42738 0.0
C2784 C 0.80671 0.85934 0.41431 0.0
H2785 H 0.86999 0.82344 0.50789 0.0
H2786 H 0.84821 0.82221 0.48784 0.0
C2787 C 0.80462 0.86851 0.40029 0.0
C2788 C 0.81998 0.85593 0.44143 0.0
H2789 H 0.85206 0.83332 0.45338 0.0
C2790 C 0.81453 0.86082 0.45664 0.0
C2791 C 0.83287 0.84487 0.4403 0.0
C2792 C 0.839 0.83911 0.42422 0.0
C2793 C 0.82288 0.85645 0.47062 0.0
C2794 C 0.83703 0.84716 0.46924 0.0
C2795 C 0.84124 0.84056 0.45431 0.0
C2796 C 0.84937 0.84752 0.482 0.0
C2797 C 0.81738 0.86301 0.48661 0.0
C2798 C 0.85733 0.86207 0.48504 0.0
C2799 C 0.86982 0.86276 0.49615 0.0
C2800 C 0.87458 0.84892 0.50454 0.0
C2801 C 0.86654 0.83431 0.50158 0.0
C2802 C 0.8541 0.83358 0.49022 0.0
H2803 H 0.80423 0.8654 0.4866 0.0
H2804 H 0.82028 0.85454 0.49652 0.0
H2805 H 0.82366 0.87455 0.489 0.0
H2806 H 0.85401 0.87289 0.47858 0.0
H2807 H 0.8757 0.8742 0.49819 0.0
H2808 H 0.15359 0.92081 0.83284 0.0
H2809 H 0.13672 0.91531 0.80949 0.0
H2810 H 0.09603 0.93654 0.83376 0.0
H2811 H 0.11317 0.94216 0.8573 0.0
H2812 H 0.09112 0.90481 0.82372 0.0
H2813 H 0.11511 0.94049 0.77328 0.0
H2814 H 0.1312 0.93142 0.78441 0.0
H2815 H 0.11839 0.94601 0.79407 0.0
C2816 C 0.14116 0.92471 0.83297 0.0
C2817 C 0.13461 0.93185 0.84677 0.0
C2818 C 0.13155 0.92171 0.8196 0.0
C2819 C 0.11516 0.92571 0.81979 0.0
C2820 C 0.10871 0.93356 0.83331 0.0
H2821 H 0.07702 0.8794 0.73304 0.0
H2822 H 0.07652 0.89988 0.75426 0.0
C2823 C 0.11846 0.93679 0.84668 0.0
C2824 C 0.10471 0.9192 0.80695 0.0
H2825 H 0.10502 0.91354 0.76636 0.0
C2826 C 0.0937 0.90709 0.81113 0.0
C2827 C 0.10783 0.92234 0.79054 0.0
C2828 C 0.11866 0.93591 0.78533 0.0
C2829 C 0.08727 0.89681 0.79941 0.0
C2830 C 0.09211 0.89866 0.78322 0.0
C2831 C 0.10154 0.91195 0.77884 0.0
C2832 C 0.09 0.88561 0.77132 0.0
C2833 C 0.07618 0.88343 0.80455 0.0
C2834 C 0.09765 0.87079 0.77396 0.0
C2835 C 0.09813 0.85919 0.76185 0.0
C2836 C 0.09091 0.86217 0.7469 0.0
C2837 C 0.08261 0.87673 0.7445 0.0
C2838 C 0.08231 0.88844 0.75658 0.0
H2839 H 0.06936 0.88679 0.81555 0.0
H2840 H 0.06753 0.8803 0.79486 0.0
H2841 H 0.08342 0.87258 0.8074 0.0
H2842 H 0.10396 0.8685 0.78513 0.0
H2843 H 0.1046 0.84809 0.76404 0.0
H2844 H 0.13555 0.67091 0.50868 0.0
H2845 H 0.15642 0.67123 0.48777 0.0
H2846 H 0.13074 0.6345 0.46168 0.0
H2847 H 0.10997 0.63407 0.48239 0.0
H2848 H 0.17555 0.64456 0.47856 0.0
H2849 H 0.14135 0.66816 0.42686 0.0
H2850 H 0.13501 0.67116 0.44745 0.0
H2851 H 0.13025 0.65274 0.43709 0.0
C2852 C 0.13426 0.66308 0.49835 0.0
C2853 C 0.12111 0.65246 0.49714 0.0
C2854 C 0.14619 0.66328 0.48646 0.0
C2855 C 0.14496 0.65309 0.47307 0.0
C2856 C 0.13172 0.64271 0.47175 0.0
H2857 H 0.19227 0.59032 0.41901 0.0
H2858 H 0.18519 0.60889 0.44045 0.0
C2859 C 0.11992 0.64238 0.48366 0.0
C2860 C 0.158 0.65205 0.461 0.0
H2861 H 0.16291 0.64928 0.42046 0.0
C2862 C 0.17301 0.64605 0.46585 0.0
C2863 C 0.15493 0.65448 0.44448 0.0
C2864 C 0.13956 0.66217 0.43867 0.0
C2865 C 0.18424 0.64058 0.45448 0.0
C2866 C 0.18015 0.64088 0.43795 0.0
C2867 C 0.166 0.64875 0.43312 0.0
C2868 C 0.1883 0.63039 0.42603 0.0
C2869 C 0.19997 0.63373 0.46034 0.0
C2870 C 0.19265 0.6362 0.41076 0.0
C2871 C 0.19656 0.62546 0.39836 0.0
C2872 C 0.19592 0.6088 0.40106 0.0
C2873 C 0.19271 0.60311 0.41662 0.0
C2874 C 0.18888 0.61377 0.42895 0.0
H2875 H 0.20431 0.64044 0.47105 0.0
H2876 H 0.19813 0.62104 0.46406 0.0
H2877 H 0.20939 0.63413 0.45087 0.0
H2878 H 0.19212 0.64896 0.40819 0.0
H2879 H 0.1989 0.63012 0.38643 0.0
H2880 H 0.87815 0.4056 0.65068 0.0
H2881 H 0.8965 0.40394 0.6735 0.0
H2882 H 0.89088 0.45482 0.68195 0.0
H2883 H 0.87233 0.4565 0.6588 0.0
H2884 H 0.92631 0.42221 0.68195 0.0
H2885 H 0.87446 0.43079 0.72379 0.0
H2886 H 0.87105 0.42539 0.70305 0.0
H2887 H 0.87824 0.44511 0.70795 0.0
C2888 C 0.88098 0.41646 0.65728 0.0
C2889 C 0.87374 0.43113 0.65316 0.0
C2890 C 0.89154 0.41554 0.67023 0.0
C2891 C 0.89498 0.42923 0.67944 0.0
C2892 C 0.88834 0.44412 0.67497 0.0
H2893 H 0.92389 0.39031 0.77227 0.0
H2894 H 0.92385 0.4132 0.75347 0.0
C2895 C 0.87784 0.44508 0.66178 0.0
C2896 C 0.90416 0.42703 0.69452 0.0
H2897 H 0.89691 0.41692 0.73357 0.0
C2898 C 0.92012 0.42162 0.69343 0.0
C2899 C 0.89614 0.42645 0.70951 0.0
C2900 C 0.87902 0.43222 0.7113 0.0
C2901 C 0.9276 0.41398 0.70649 0.0
C2902 C 0.91877 0.4115 0.7208 0.0
C2903 C 0.90362 0.41875 0.72253 0.0
C2904 C 0.92295 0.39837 0.73209 0.0
C2905 C 0.94439 0.40748 0.70444 0.0
C2906 C 0.92277 0.38252 0.72628 0.0
C2907 C 0.92247 0.36959 0.73692 0.0
C2908 C 0.92259 0.37225 0.75355 0.0
C2909 C 0.92403 0.38802 0.75944 0.0
C2910 C 0.92398 0.40106 0.74875 0.0
H2911 H 0.95151 0.4152 0.69617 0.0
H2912 H 0.95075 0.40663 0.71617 0.0
H2913 H 0.94376 0.39528 0.69906 0.0
H2914 H 0.92158 0.38014 0.71353 0.0
H2915 H 0.92125 0.35752 0.73215 0.0
H2916 H 0.60437 0.84858 0.5144 0.0
H2917 H 0.6262 0.85207 0.5337 0.0
H2918 H 0.65743 0.82311 0.50408 0.0
H2919 H 0.63543 0.81926 0.48475 0.0
H2920 H 0.66116 0.81815 0.53833 0.0
H2921 H 0.66408 0.88222 0.52151 0.0
H2922 H 0.64379 0.87638 0.52598 0.0
H2923 H 0.65412 0.86732 0.50922 0.0
C2924 C 0.61578 0.84268 0.51214 0.0
C2925 C 0.61826 0.83382 0.49801 0.0
C2926 C 0.62826 0.84476 0.5231 0.0
C2927 C 0.64351 0.83823 0.52003 0.0
C2928 C 0.64577 0.82839 0.50653 0.0
H2929 H 0.70035 0.88802 0.5917 0.0
H2930 H 0.69781 0.87503 0.56544 0.0
C2931 C 0.63318 0.82615 0.49557 0.0
C2932 C 0.65702 0.84257 0.53072 0.0
H2933 H 0.67271 0.87576 0.54869 0.0
C2934 C 0.66407 0.8307 0.54039 0.0
C2935 C 0.66145 0.85883 0.53285 0.0
C2936 C 0.6556 0.87189 0.52169 0.0
C2937 C 0.67388 0.83496 0.55346 0.0
C2938 C 0.6761 0.85145 0.55717 0.0
C2939 C 0.67075 0.86311 0.5462 0.0
C2940 C 0.68084 0.85697 0.57348 0.0
C2941 C 0.68116 0.82174 0.56352 0.0
C2942 C 0.6725 0.85096 0.58686 0.0
C2943 C 0.6741 0.85819 0.60187 0.0
C2944 C 0.68376 0.87192 0.60386 0.0
C2945 C 0.69278 0.87749 0.59065 0.0
C2946 C 0.69133 0.87007 0.5756 0.0
H2947 H 0.6852 0.81167 0.55572 0.0
H2948 H 0.69157 0.82608 0.57068 0.0
H2949 H 0.6719 0.81686 0.57179 0.0
H2950 H 0.66394 0.84124 0.58559 0.0
H2951 H 0.66729 0.85326 0.61179 0.0
H2952 H 0.06809 0.12747 0.7529 0.0
H2953 H 0.06961 0.11045 0.72868 0.0
H2954 H 0.12061 0.10449 0.73608 0.0
H2955 H 0.11925 0.1214 0.75992 0.0
H2956 H 0.09029 0.11808 0.70161 0.0
H2957 H 0.10418 0.0582 0.72724 0.0
H2958 H 0.0948 0.07406 0.73879 0.0
H2959 H 0.1162 0.07409 0.73558 0.0
C2960 C 0.07955 0.12236 0.7494 0.0
C2961 C 0.09357 0.12587 0.75817 0.0
C2962 C 0.0804 0.11265 0.73564 0.0
C2963 C 0.09518 0.10605 0.73078 0.0
C2964 C 0.10904 0.10923 0.7398 0.0
H2965 H 0.14591 0.06663 0.65135 0.0
H2966 H 0.13596 0.07554 0.67767 0.0
C2967 C 0.10826 0.11905 0.75332 0.0
C2968 C 0.09677 0.0972 0.71544 0.0
H2969 H 0.11156 0.06234 0.69954 0.0
C2970 C 0.09458 0.10577 0.70109 0.0
C2971 C 0.10251 0.0812 0.71489 0.0
C2972 C 0.10443 0.07128 0.72995 0.0
C2973 C 0.09887 0.09907 0.68621 0.0
C2974 C 0.10522 0.08329 0.68571 0.0
C2975 C 0.10678 0.07447 0.7 0.0
C2976 C 0.11096 0.07613 0.67047 0.0
C2977 C 0.09737 0.10924 0.67124 0.0
C2978 C 0.10013 0.07303 0.65795 0.0
C2979 C 0.10576 0.06795 0.64298 0.0
C2980 C 0.12233 0.06583 0.64024 0.0
C2981 C 0.13309 0.06813 0.65308 0.0
C2982 C 0.12743 0.07325 0.66809 0.0
H2983 H 0.09523 0.12212 0.67411 0.0
H2984 H 0.10841 0.1083 0.66378 0.0
H2985 H 0.08708 0.10486 0.66395 0.0
H2986 H 0.08734 0.07489 0.65966 0.0
H2987 H 0.09711 0.06588 0.63347 0.0
H2988 H 0.30993 0.63654 0.61321 0.0
H2989 H 0.31721 0.65522 0.5914 0.0
H2990 H 0.32355 0.61493 0.55929 0.0
H2991 H 0.3164 0.5965 0.58097 0.0
H2992 H 0.34773 0.65296 0.57881 0.0
H2993 H 0.30388 0.64817 0.52935 0.0
H2994 H 0.29894 0.64279 0.54984 0.0
H2995 H 0.30889 0.62859 0.53683 0.0
C2996 C 0.31225 0.63185 0.60128 0.0
C2997 C 0.3127 0.61518 0.59865 0.0
C2998 C 0.31643 0.64246 0.58888 0.0
C2999 C 0.32075 0.63648 0.57367 0.0
C3000 C 0.31991 0.61988 0.57079 0.0
H3001 H 0.39529 0.63723 0.51179 0.0
H3002 H 0.37621 0.63773 0.53409 0.0
C3003 C 0.31597 0.60933 0.58318 0.0
C3004 C 0.32916 0.64674 0.56179 0.0
H3005 H 0.33214 0.65203 0.52123 0.0
C3006 C 0.34406 0.65329 0.56629 0.0
C3007 C 0.32434 0.64735 0.5455 0.0
C3008 C 0.30804 0.64149 0.54015 0.0
C3009 C 0.35499 0.65876 0.55468 0.0
C3010 C 0.3509 0.65755 0.53824 0.0
C3011 C 0.33534 0.65271 0.53386 0.0
C3012 C 0.3633 0.65866 0.52556 0.0
C3013 C 0.37124 0.6648 0.56 0.0
C3014 C 0.36232 0.67028 0.51339 0.0
C3015 C 0.37331 0.67008 0.50063 0.0
C3016 C 0.38521 0.65805 0.49975 0.0
C3017 C 0.38629 0.64665 0.51215 0.0
C3018 C 0.37545 0.64697 0.52494 0.0
H3019 H 0.37078 0.66962 0.57246 0.0
H3020 H 0.37995 0.65468 0.55983 0.0
H3021 H 0.37575 0.67434 0.55181 0.0
H3022 H 0.35291 0.67928 0.51362 0.0
H3023 H 0.37211 0.67896 0.49118 0.0
H3024 H 0.8487 0.88026 0.53848 0.0
H3025 H 0.82193 0.89284 0.54174 0.0
H3026 H 0.82301 0.88144 0.59236 0.0
H3027 H 0.8495 0.86924 0.58916 0.0
H3028 H 0.79197 0.88047 0.55525 0.0
H3029 H 0.81623 0.93076 0.59104 0.0
H3030 H 0.82868 0.91867 0.5779 0.0
H3031 H 0.82411 0.91192 0.59799 0.0
C3032 C 0.84299 0.88031 0.55019 0.0
C3033 C 0.85109 0.87405 0.56365 0.0
C3034 C 0.82786 0.88755 0.55206 0.0
C3035 C 0.82081 0.88849 0.56738 0.0
C3036 C 0.82851 0.88129 0.58054 0.0
H3037 H 0.74628 0.87792 0.62257 0.0
H3038 H 0.76519 0.87878 0.60032 0.0
C3039 C 0.84355 0.87425 0.57871 0.0
C3040 C 0.80539 0.89683 0.5702 0.0
H3041 H 0.78903 0.92178 0.59824 0.0
C3042 C 0.79123 0.88993 0.5642 0.0
C3043 C 0.80442 0.90955 0.58145 0.0
C3044 C 0.8192 0.91827 0.58732 0.0
C3045 C 0.77626 0.89388 0.57093 0.0
C3046 C 0.77567 0.90466 0.58408 0.0
C3047 C 0.78952 0.91325 0.58837 0.0
C3048 C 0.76229 0.90426 0.59577 0.0
C3049 C 0.76138 0.88558 0.56476 0.0
C3050 C 0.75454 0.91839 0.60083 0.0
C3051 C 0.74368 0.91793 0.61371 0.0
C3052 C 0.74077 0.90342 0.62189 0.0
C3053 C 0.74838 0.88931 0.61662 0.0
C3054 C 0.759 0.88974 0.60369 0.0
H3055 H 0.76234 0.88331 0.55163 0.0
H3056 H 0.76009 0.87377 0.57083 0.0
H3057 H 0.7504 0.89282 0.56714 0.0
H3058 H 0.75717 0.92977 0.59505 0.0
H3059 H 0.73793 0.92898 0.61753 0.0
H3060 H 0.82671 0.15454 0.93544 0.0
H3061 H 0.80763 0.13498 0.92535 0.0
H3062 H 0.84098 0.09663 0.93564 0.0
H3063 H 0.86029 0.11628 0.94618 0.0
H3064 H 0.82881 0.09552 0.90468 0.0
H3065 H 0.77888 0.10221 0.94766 0.0
H3066 H 0.78565 0.12163 0.94121 0.0
H3067 H 0.79912 0.10871 0.95224 0.0
C3068 C 0.82995 0.14196 0.93599 0.0
C3069 C 0.84507 0.13705 0.94176 0.0
C3070 C 0.81895 0.13074 0.93022 0.0
C3071 C 0.82273 0.11431 0.9301 0.0
C3072 C 0.83777 0.10925 0.93583 0.0
H3073 H 0.7385 0.07217 0.8832 0.0
H3074 H 0.76122 0.07081 0.90202 0.0
C3075 C 0.84883 0.12052 0.94172 0.0
C3076 C 0.81139 0.10297 0.92239 0.0
H3077 H 0.77107 0.09621 0.91975 0.0
C3078 C 0.81626 0.09519 0.90823 0.0
C3079 C 0.79511 0.10209 0.92724 0.0
C3080 C 0.78944 0.10897 0.94304 0.0
C3081 C 0.8049 0.08834 0.8978 0.0
C3082 C 0.78836 0.08962 0.90156 0.0
C3083 C 0.78374 0.09553 0.91668 0.0
C3084 C 0.7758 0.08802 0.88904 0.0
C3085 C 0.81066 0.08068 0.8824 0.0
C3086 C 0.77652 0.09807 0.8755 0.0
C3087 C 0.76361 0.09896 0.86487 0.0
C3088 C 0.74965 0.08987 0.86759 0.0
C3089 C 0.74914 0.07929 0.88078 0.0
C3090 C 0.7621 0.07847 0.89152 0.0
H3091 H 0.82254 0.07483 0.88417 0.0
H3092 H 0.80197 0.07159 0.87789 0.0
H3093 H 0.81218 0.09013 0.8731 0.0
H3094 H 0.78676 0.10589 0.87356 0.0
H3095 H 0.76439 0.10719 0.8548 0.0
H3096 H 0.34771 0.98567 0.39411 0.0
H3097 H 0.34801 0.96419 0.37409 0.0
H3098 H 0.31817 0.99269 0.34267 0.0
H3099 H 0.31766 0.01431 0.36282 0.0
H3100 H 0.31985 0.94786 0.35512 0.0
H3101 H 0.36459 0.98367 0.3202 0.0
H3102 H 0.36176 0.98742 0.34139 0.0
H3103 H 0.34624 0.99275 0.32742 0.0
C3104 C 0.34091 0.98723 0.38311 0.0
C3105 C 0.33273 0.00165 0.37999 0.0
C3106 C 0.34105 0.97495 0.37171 0.0
C3107 C 0.33317 0.97695 0.35694 0.0
C3108 C 0.32428 0.99098 0.35405 0.0
H3109 H 0.35858 0.88928 0.30218 0.0
H3110 H 0.34209 0.91367 0.3058 0.0
C3111 C 0.32397 0.00324 0.36558 0.0
C3112 C 0.33594 0.9649 0.34423 0.0
H3113 H 0.36411 0.95573 0.31589 0.0
C3114 C 0.32907 0.94962 0.34606 0.0
C3115 C 0.34797 0.96739 0.33248 0.0
C3116 C 0.35564 0.98367 0.33013 0.0
C3117 C 0.33506 0.93636 0.33752 0.0
C3118 C 0.34824 0.93856 0.32698 0.0
C3119 C 0.35397 0.95414 0.32395 0.0
C3120 C 0.35864 0.92485 0.3225 0.0
C3121 C 0.32841 0.91986 0.34105 0.0
C3122 C 0.37353 0.92339 0.33025 0.0
C3123 C 0.38281 0.90964 0.32824 0.0
C3124 C 0.37744 0.89704 0.31839 0.0
C3125 C 0.36293 0.89884 0.30987 0.0
C3126 C 0.35352 0.91268 0.31197 0.0
H3127 H 0.31836 0.92021 0.34986 0.0
H3128 H 0.32393 0.91432 0.32976 0.0
H3129 H 0.33806 0.912 0.34589 0.0
H3130 H 0.3777 0.93266 0.33841 0.0
H3131 H 0.3941 0.90873 0.33466 0.0
H3132 H 0.15926 0.35193 0.92546 0.0
H3133 H 0.18411 0.36689 0.92081 0.0
H3134 H 0.1635 0.40838 0.94421 0.0
H3135 H 0.13855 0.39311 0.949 0.0
H3136 H 0.17182 0.41342 0.91235 0.0
H3137 H 0.22305 0.38564 0.94401 0.0
H3138 H 0.21053 0.37055 0.93504 0.0
H3139 H 0.20249 0.38319 0.95071 0.0
C3140 C 0.16041 0.36399 0.93026 0.0
C3141 C 0.14724 0.37142 0.93766 0.0
C3142 C 0.17458 0.37252 0.92768 0.0
C3143 C 0.17573 0.38871 0.93232 0.0
C3144 C 0.16292 0.39584 0.94075 0.0
H3145 H 0.25953 0.43001 0.88234 0.0
H3146 H 0.23899 0.42944 0.90345 0.0
C3147 C 0.14876 0.38716 0.94353 0.0
C3148 C 0.18874 0.39862 0.92531 0.0
H3149 H 0.2289 0.39678 0.91723 0.0
C3150 C 0.18438 0.41022 0.91382 0.0
C3151 C 0.20512 0.39456 0.9273 0.0
C3152 C 0.21058 0.38291 0.94007 0.0
C3153 C 0.19577 0.41649 0.90308 0.0
C3154 C 0.2118 0.41101 0.90393 0.0
C3155 C 0.2165 0.4008 0.91651 0.0
C3156 C 0.2231 0.41348 0.89048 0.0
C3157 C 0.19042 0.42805 0.89019 0.0
C3158 C 0.22075 0.40491 0.87614 0.0
C3159 C 0.23255 0.40496 0.86419 0.0
C3160 C 0.24682 0.41371 0.86635 0.0
C3161 C 0.24867 0.42312 0.88032 0.0
C3162 C 0.23698 0.42282 0.89241 0.0
H3163 H 0.17902 0.43418 0.89352 0.0
H3164 H 0.19982 0.43727 0.8879 0.0
H3165 H 0.18839 0.42133 0.87884 0.0
H3166 H 0.21013 0.39753 0.87453 0.0
H3167 H 0.23076 0.39763 0.85357 0.0
H3168 H 0.1871 0.99129 0.87459 0.0
H3169 H 0.19047 0.01496 0.85696 0.0
H3170 H 0.13894 0.01995 0.85402 0.0
H3171 H 0.13548 0.99678 0.87152 0.0
H3172 H 0.16568 0.02221 0.82216 0.0
H3173 H 0.16863 0.06299 0.87503 0.0
H3174 H 0.17809 0.04341 0.87474 0.0
H3175 H 0.15672 0.04503 0.87732 0.0
C3176 C 0.17654 0.99739 0.87001 0.0
C3177 C 0.16103 0.99235 0.87457 0.0
C3178 C 0.17849 0.01082 0.85996 0.0
C3179 C 0.16493 0.01911 0.85427 0.0
C3180 C 0.14952 0.01367 0.85833 0.0
H3181 H 0.10625 0.07551 0.80699 0.0
H3182 H 0.12683 0.05613 0.81373 0.0
C3183 C 0.14758 0.00048 0.86841 0.0
C3184 C 0.16617 0.03422 0.84508 0.0
H3185 H 0.15671 0.07353 0.85116 0.0
C3186 C 0.16437 0.03362 0.82834 0.0
C3187 C 0.1648 0.04909 0.85313 0.0
C3188 C 0.16726 0.05031 0.87106 0.0
C3189 C 0.15936 0.04724 0.81971 0.0
C3190 C 0.15549 0.0615 0.8282 0.0
C3191 C 0.15939 0.06258 0.8446 0.0
C3192 C 0.1444 0.07379 0.82144 0.0
C3193 C 0.15731 0.04585 0.80174 0.0
C3194 C 0.14715 0.09033 0.82369 0.0
C3195 C 0.13502 0.10154 0.82031 0.0
C3196 C 0.11991 0.09638 0.81469 0.0
C3197 C 0.11757 0.07993 0.81163 0.0
C3198 C 0.12956 0.06879 0.81512 0.0
H3199 H 0.16715 0.03848 0.7965 0.0
H3200 H 0.14583 0.03958 0.79907 0.0
H3201 H 0.15723 0.05781 0.7958 0.0
H3202 H 0.15842 0.09449 0.82872 0.0
H3203 H 0.13719 0.11412 0.82283 0.0
H3204 H 0.73423 0.09466 0.14023 0.0
H3205 H 0.71546 0.09575 0.1177 0.0
H3206 H 0.75305 0.08051 0.08534 0.0
H3207 H 0.77198 0.07918 0.10804 0.0
H3208 H 0.73711 0.11023 0.07705 0.0
H3209 H 0.69338 0.06162 0.08873 0.0
H3210 H 0.69805 0.07271 0.10666 0.0
H3211 H 0.71362 0.06138 0.09673 0.0
C3212 C 0.73841 0.09115 0.12839 0.0
C3213 C 0.75452 0.08682 0.12586 0.0
C3214 C 0.72766 0.09168 0.11554 0.0
C3215 C 0.73284 0.08804 0.0999 0.0
C3216 C 0.74881 0.08318 0.09737 0.0
H3217 H 0.64752 0.10894 0.04272 0.0
H3218 H 0.67402 0.09594 0.0456 0.0
C3219 C 0.75955 0.08238 0.11033 0.0
C3220 C 0.72189 0.09138 0.08628 0.0
H3221 H 0.68285 0.08551 0.07541 0.0
C3222 C 0.72541 0.1045 0.07626 0.0
C3223 C 0.70679 0.08371 0.08502 0.0
C3224 C 0.70279 0.06895 0.09475 0.0
C3225 C 0.71352 0.1113 0.06639 0.0
C3226 C 0.69778 0.10487 0.06674 0.0
C3227 C 0.69487 0.09059 0.07527 0.0
C3228 C 0.68366 0.11432 0.06134 0.0
C3229 C 0.71764 0.12591 0.05648 0.0
C3230 C 0.68048 0.12911 0.06884 0.0
C3231 C 0.66545 0.13636 0.06727 0.0
C3232 C 0.6534 0.12902 0.05809 0.0
C3233 C 0.65685 0.11486 0.04961 0.0
C3234 C 0.6719 0.10746 0.05131 0.0
H3235 H 0.73038 0.1255 0.05247 0.0
H3236 H 0.70974 0.12695 0.04576 0.0
H3237 H 0.71611 0.13686 0.06397 0.0
H3238 H 0.68915 0.13442 0.07699 0.0
H3239 H 0.6628 0.14713 0.0741 0.0
H3240 H 0.4031 0.08215 0.18562 0.0
H3241 H 0.3854 0.0591 0.18212 0.0
H3242 H 0.34571 0.08645 0.20143 0.0
H3243 H 0.36362 0.10985 0.20467 0.0
H3244 H 0.36392 0.04014 0.19987 0.0
H3245 H 0.33231 0.07864 0.15476 0.0
H3246 H 0.35085 0.08521 0.16386 0.0
H3247 H 0.33266 0.08476 0.17551 0.0
C3248 C 0.39069 0.08309 0.18949 0.0
C3249 C 0.3846 0.09777 0.19511 0.0
C3250 C 0.38059 0.06991 0.18759 0.0
C3251 C 0.36416 0.07115 0.19121 0.0
C3252 C 0.35831 0.08533 0.19833 0.0
H3253 H 0.31922 0.00023 0.12655 0.0
H3254 H 0.31793 0.01768 0.15048 0.0
C3255 C 0.36853 0.09861 0.20029 0.0
C3256 C 0.35333 0.05847 0.18492 0.0
H3257 H 0.33199 0.05096 0.15068 0.0
C3258 C 0.35637 0.04249 0.18949 0.0
C3259 C 0.34334 0.06153 0.17145 0.0
C3260 C 0.33955 0.07842 0.166 0.0
C3261 C 0.35146 0.02962 0.17976 0.0
C3262 C 0.34335 0.03288 0.16521 0.0
C3263 C 0.33835 0.0486 0.16182 0.0
C3264 C 0.34367 0.02125 0.15179 0.0
C3265 C 0.35629 0.01275 0.18431 0.0
C3266 C 0.3585 0.01783 0.14453 0.0
C3267 C 0.35924 0.00831 0.13079 0.0
C3268 C 0.34515 0.00187 0.12408 0.0
C3269 C 0.33026 0.00509 0.13148 0.0
C3270 C 0.3295 0.01493 0.14515 0.0
H3271 H 0.35763 0.01152 0.19755 0.0
H3272 H 0.34732 0.00386 0.17997 0.0
H3273 H 0.36806 0.0099 0.17869 0.0
H3274 H 0.36953 0.02287 0.14931 0.0
H3275 H 0.3709 0.00592 0.12548 0.0
H3276 H 0.65058 0.39725 0.20785 0.0
H3277 H 0.66063 0.42383 0.20003 0.0
H3278 H 0.61398 0.43541 0.18034 0.0
H3279 H 0.60385 0.40919 0.18893 0.0
H3280 H 0.66383 0.4313 0.17052 0.0
H3281 H 0.62562 0.47843 0.19701 0.0
H3282 H 0.62549 0.45805 0.2045 0.0
H3283 H 0.6131 0.46368 0.18758 0.0
C3284 C 0.64239 0.40578 0.20239 0.0
C3285 C 0.62649 0.4013 0.19895 0.0
C3286 C 0.6481 0.42093 0.19792 0.0
C3287 C 0.63808 0.43174 0.18965 0.0
C3288 C 0.62188 0.42756 0.18709 0.0
H3289 H 0.65013 0.48329 0.10614 0.0
H3290 H 0.64867 0.46442 0.12858 0.0
C3291 C 0.61608 0.41253 0.19191 0.0
C3292 C 0.64514 0.44584 0.18122 0.0
H3293 H 0.63736 0.48473 0.17056 0.0
C3294 C 0.65828 0.4431 0.17093 0.0
C3295 C 0.63815 0.46136 0.18179 0.0
C3296 C 0.62493 0.46557 0.19348 0.0
C3297 C 0.66371 0.45499 0.1603 0.0
C3298 C 0.65562 0.46989 0.15972 0.0
C3299 C 0.64339 0.47317 0.17089 0.0
C3300 C 0.65809 0.48113 0.14617 0.0
C3301 C 0.6776 0.45125 0.14923 0.0
C3302 C 0.66399 0.49675 0.14865 0.0
C3303 C 0.66502 0.50753 0.13574 0.0
C3304 C 0.65983 0.50288 0.12032 0.0
C3305 C 0.65424 0.48715 0.11789 0.0
C3306 C 0.65344 0.47637 0.13068 0.0
H3307 H 0.68544 0.44169 0.1543 0.0
H3308 H 0.67284 0.44691 0.13754 0.0
H3309 H 0.68499 0.46214 0.14695 0.0
H3310 H 0.66751 0.50064 0.16057 0.0
H3311 H 0.66918 0.51968 0.13795 0.0
H3312 H 0.29153 0.05904 0.37527 0.0
H3313 H 0.26829 0.072 0.36263 0.0
H3314 H 0.2541 0.09133 0.40863 0.0
H3315 H 0.27711 0.07839 0.42137 0.0
H3316 H 0.22811 0.07948 0.38914 0.0
H3317 H 0.26884 0.12133 0.35603 0.0
H3318 H 0.27125 0.09998 0.35343 0.0
H3319 H 0.27621 0.10907 0.37235 0.0
C3320 C 0.28337 0.06593 0.38272 0.0
C3321 C 0.28632 0.06795 0.39929 0.0
C3322 C 0.27011 0.0733 0.37546 0.0
C3323 C 0.25964 0.08277 0.38467 0.0
C3324 C 0.26208 0.08406 0.40132 0.0
H3325 H 0.21733 0.16454 0.39894 0.0
H3326 H 0.23327 0.14184 0.38968 0.0
C3327 C 0.27528 0.07671 0.40858 0.0
C3328 C 0.24689 0.0926 0.37716 0.0
H3329 H 0.24216 0.1293 0.35955 0.0
C3330 C 0.23098 0.09014 0.38219 0.0
C3331 C 0.25075 0.10634 0.36791 0.0
C3332 C 0.26767 0.10947 0.36209 0.0
C3333 C 0.21922 0.10201 0.37991 0.0
C3334 C 0.22357 0.11659 0.37228 0.0
C3335 C 0.23894 0.11813 0.36546 0.0
C3336 C 0.21427 0.13146 0.3752 0.0
C3337 C 0.20278 0.0996 0.38723 0.0
C3338 C 0.19842 0.13343 0.36972 0.0
C3339 C 0.18916 0.14641 0.37521 0.0
C3340 C 0.1957 0.15747 0.38623 0.0
C3341 C 0.21188 0.15599 0.39076 0.0
C3342 C 0.22105 0.14312 0.38532 0.0
H3343 H 0.20167 0.08782 0.39345 0.0
H3344 H 0.20019 0.1093 0.39603 0.0
H3345 H 0.1935 0.10016 0.37766 0.0
H3346 H 0.19305 0.12466 0.36173 0.0
H3347 H 0.17672 0.14734 0.37147 0.0
H3348 H 0.29766 0.46416 0.85678 0.0
H3349 H 0.30649 0.4919 0.86165 0.0
H3350 H 0.3519 0.47424 0.87953 0.0
H3351 H 0.34307 0.44672 0.87521 0.0
H3352 H 0.33975 0.49896 0.89802 0.0
H3353 H 0.33864 0.51453 0.83271 0.0
H3354 H 0.32015 0.50802 0.84181 0.0
H3355 H 0.33648 0.49407 0.83956 0.0
C3356 C 0.30949 0.46624 0.86182 0.0
C3357 C 0.31973 0.45327 0.8655 0.0
C3358 C 0.31451 0.48207 0.86456 0.0
C3359 C 0.3299 0.48511 0.8708 0.0
C3360 C 0.33994 0.47215 0.87478 0.0
H3361 H 0.41156 0.53505 0.87359 0.0
H3362 H 0.38734 0.51939 0.87954 0.0
C3363 C 0.3349 0.45641 0.87221 0.0
C3364 C 0.33631 0.50161 0.87246 0.0
H3365 H 0.35265 0.53169 0.84987 0.0
C3366 C 0.34221 0.50637 0.88757 0.0
C3367 C 0.33934 0.51135 0.85882 0.0
C3368 C 0.33343 0.50679 0.84227 0.0
C3369 C 0.35235 0.51973 0.88911 0.0
C3370 C 0.35661 0.52849 0.87523 0.0
C3371 C 0.34934 0.52483 0.86047 0.0
C3372 C 0.37086 0.53903 0.87498 0.0
C3373 C 0.35931 0.52375 0.90536 0.0
C3374 C 0.36955 0.55529 0.87069 0.0
C3375 C 0.3834 0.56428 0.86751 0.0
C3376 C 0.39861 0.55696 0.86822 0.0
C3377 C 0.39992 0.54089 0.8731 0.0
C3378 C 0.38614 0.53202 0.87656 0.0
H3379 H 0.35143 0.51941 0.91524 0.0
H3380 H 0.37119 0.51779 0.90662 0.0
H3381 H 0.3611 0.53693 0.90668 0.0
H3382 H 0.35783 0.56079 0.86918 0.0
H3383 H 0.38221 0.57665 0.86358 0.0
H3384 H 0.71227 0.44876 0.3861 0.0
H3385 H 0.73419 0.43452 0.37251 0.0
H3386 H 0.74139 0.40535 0.41478 0.0
H3387 H 0.71946 0.41928 0.42838 0.0
H3388 H 0.77048 0.41706 0.39848 0.0
H3389 H 0.7264 0.38662 0.35807 0.0
H3390 H 0.72662 0.40824 0.35933 0.0
H3391 H 0.71993 0.39661 0.37622 0.0
C3392 C 0.7186 0.43938 0.39255 0.0
C3393 C 0.71388 0.43484 0.40818 0.0
C3394 C 0.73112 0.43132 0.38476 0.0
C3395 C 0.73916 0.41877 0.39258 0.0
C3396 C 0.73522 0.41499 0.40855 0.0
H3397 H 0.77366 0.33017 0.39197 0.0
H3398 H 0.75907 0.35492 0.38639 0.0
C3399 C 0.72268 0.42296 0.4163 0.0
C3400 C 0.75083 0.40849 0.38407 0.0
H3401 H 0.75179 0.37476 0.36079 0.0
C3402 C 0.76664 0.40807 0.38983 0.0
C3403 C 0.74566 0.39693 0.37273 0.0
C3404 C 0.72873 0.39698 0.36617 0.0
C3405 C 0.77697 0.39535 0.3859 0.0
C3406 C 0.77129 0.38292 0.37572 0.0
C3407 C 0.75605 0.3843 0.3686 0.0
C3408 C 0.77932 0.36707 0.37537 0.0
C3409 C 0.79323 0.39455 0.39398 0.0
C3410 C 0.79529 0.36538 0.37026 0.0
C3411 C 0.80381 0.35134 0.37383 0.0
C3412 C 0.79636 0.33871 0.38233 0.0
C3413 C 0.77988 0.33984 0.38586 0.0
C3414 C 0.77146 0.35392 0.38247 0.0
H3415 H 0.79494 0.40431 0.40294 0.0
H3416 H 0.79478 0.38282 0.40018 0.0
H3417 H 0.80283 0.39567 0.38478 0.0
H3418 H 0.80146 0.37526 0.36443 0.0
H3419 H 0.81649 0.35087 0.37088 0.0
H3420 H 0.69939 0.03785 0.85178 0.0
H3421 H 0.69065 0.00984 0.85472 0.0
H3422 H 0.64705 0.02581 0.87785 0.0
H3423 H 0.6557 0.05366 0.87523 0.0
H3424 H 0.66107 0.99799 0.89223 0.0
H3425 H 0.65465 0.99247 0.82566 0.0
H3426 H 0.67405 0.99805 0.83338 0.0
H3427 H 0.65742 0.01168 0.83532 0.0
C3428 C 0.688 0.03538 0.8576 0.0
C3429 C 0.67813 0.04801 0.86306 0.0
C3430 C 0.68304 0.01938 0.85927 0.0
C3431 C 0.66813 0.01579 0.86634 0.0
C3432 C 0.65862 0.02833 0.87238 0.0
H3433 H 0.59021 0.95529 0.87491 0.0
H3434 H 0.61324 0.97248 0.88081 0.0
C3435 C 0.66355 0.04426 0.87078 0.0
C3436 C 0.66156 0.99926 0.86635 0.0
H3437 H 0.64381 0.97202 0.8414 0.0
C3438 C 0.65756 0.99211 0.88112 0.0
C3439 C 0.65714 0.99155 0.85184 0.0
C3440 C 0.66092 0.99879 0.83562 0.0
C3441 C 0.64845 0.97791 0.88177 0.0
C3442 C 0.64296 0.97092 0.86728 0.0
C3443 C 0.64799 0.97742 0.85252 0.0
C3444 C 0.63023 0.95844 0.8669 0.0
C3445 C 0.6444 0.97081 0.89796 0.0
C3446 C 0.63214 0.94465 0.85735 0.0
C3447 C 0.61892 0.93491 0.85382 0.0
C3448 C 0.60355 0.93881 0.85975 0.0
C3449 C 0.60192 0.95191 0.87028 0.0
C3450 C 0.61512 0.9617 0.87374 0.0
H3451 H 0.65405 0.97338 0.90685 0.0
H3452 H 0.63315 0.97637 0.90251 0.0
H3453 H 0.64263 0.9576 0.89722 0.0
H3454 H 0.64367 0.94193 0.85192 0.0
H3455 H 0.62056 0.92472 0.84586 0.0
H3456 H 0.21377 0.83656 0.11684 0.0
H3457 H 0.2338 0.85721 0.12238 0.0
H3458 H 0.20119 0.8937 0.10522 0.0
H3459 H 0.18089 0.87307 0.09982 0.0
H3460 H 0.23051 0.89395 0.08993 0.0
H3461 H 0.23968 0.89259 0.1558 0.0
H3462 H 0.24047 0.87291 0.14698 0.0
H3463 H 0.22203 0.88423 0.14627 0.0
C3464 C 0.21063 0.84901 0.1147 0.0
C3465 C 0.19573 0.85312 0.1078 0.0
C3466 C 0.22211 0.86083 0.11791 0.0
C3467 C 0.21893 0.87702 0.11439 0.0
C3468 C 0.20385 0.88127 0.1081 0.0
H3469 H 0.29245 0.95233 0.10317 0.0
H3470 H 0.2661 0.93981 0.10711 0.0
C3471 C 0.19232 0.86945 0.1049 0.0
C3472 C 0.23208 0.88901 0.1153 0.0
H3473 H 0.26147 0.90354 0.14002 0.0
C3474 C 0.23709 0.89634 0.10095 0.0
C3475 C 0.24065 0.89205 0.12967 0.0
C3476 C 0.23534 0.88515 0.14559 0.0
C3477 C 0.251 0.90586 0.10036 0.0
C3478 C 0.25997 0.90835 0.11461 0.0
C3479 C 0.25458 0.90159 0.12912 0.0
C3480 C 0.27569 0.91672 0.1143 0.0
C3481 C 0.25649 0.91238 0.08432 0.0
C3482 C 0.28978 0.90809 0.11771 0.0
C3483 C 0.30484 0.9152 0.11556 0.0
C3484 C 0.30609 0.93111 0.10997 0.0
C3485 C 0.29192 0.94001 0.10736 0.0
C3486 C 0.27685 0.93287 0.10955 0.0
H3487 H 0.24995 0.90678 0.07411 0.0
H3488 H 0.25428 0.92553 0.08392 0.0
H3489 H 0.26958 0.91034 0.08262 0.0
H3490 H 0.28913 0.89562 0.12144 0.0
H3491 H 0.31549 0.90805 0.11782 0.0
H3492 H 0.16333 0.46544 0.16587 0.0
H3493 H 0.15456 0.49094 0.15449 0.0
H3494 H 0.18775 0.48516 0.11505 0.0
H3495 H 0.1968 0.45936 0.12653 0.0
H3496 H 0.18291 0.51953 0.13174 0.0
H3497 H 0.12853 0.48848 0.1093 0.0
H3498 H 0.13379 0.48269 0.12944 0.0
H3499 H 0.14728 0.47813 0.11314 0.0
C3500 C 0.16898 0.46966 0.15491 0.0
C3501 C 0.1806 0.46034 0.14698 0.0
C3502 C 0.16397 0.48424 0.14844 0.0
C3503 C 0.17038 0.48974 0.13386 0.0
C3504 C 0.18268 0.48101 0.12631 0.0
H3505 H 0.09683 0.55908 0.11516 0.0
H3506 H 0.11937 0.54331 0.10504 0.0
C3507 C 0.18783 0.46635 0.13289 0.0
C3508 C 0.16295 0.50396 0.12634 0.0
H3509 H 0.12532 0.51643 0.11654 0.0
C3510 C 0.17047 0.51895 0.12786 0.0
C3511 C 0.14695 0.50312 0.12072 0.0
C3512 C 0.1387 0.48721 0.11788 0.0
C3513 C 0.16168 0.53323 0.12581 0.0
C3514 C 0.14492 0.53232 0.12279 0.0
C3515 C 0.13806 0.51731 0.11916 0.0
C3516 C 0.13375 0.54574 0.12661 0.0
C3517 C 0.17027 0.54908 0.12768 0.0
C3518 C 0.13457 0.55307 0.14182 0.0
C3519 C 0.12186 0.56241 0.1475 0.0
C3520 C 0.1078 0.56429 0.13831 0.0
C3521 C 0.10745 0.55794 0.12261 0.0
C3522 C 0.12035 0.54884 0.11679 0.0
H3523 H 0.18237 0.54848 0.12203 0.0
H3524 H 0.16343 0.55915 0.12219 0.0
H3525 H 0.17211 0.55161 0.14066 0.0
H3526 H 0.1445 0.55062 0.14988 0.0
H3527 H 0.12276 0.56749 0.15946 0.0
H3528 H 0.71204 0.54788 0.10456 0.0
H3529 H 0.73789 0.55589 0.11676 0.0
H3530 H 0.72402 0.60573 0.113 0.0
H3531 H 0.69867 0.59799 0.10084 0.0
H3532 H 0.7607 0.57732 0.10111 0.0
H3533 H 0.74136 0.60179 0.15954 0.0
H3534 H 0.72981 0.58689 0.14866 0.0
H3535 H 0.72788 0.60794 0.14385 0.0
C3536 C 0.71453 0.56052 0.10651 0.0
C3537 C 0.70341 0.57232 0.10166 0.0
C3538 C 0.72921 0.56504 0.11351 0.0
C3539 C 0.73266 0.58137 0.1161 0.0
C3540 C 0.72143 0.59305 0.11148 0.0
H3541 H 0.78012 0.66024 0.10807 0.0
H3542 H 0.76428 0.63657 0.11526 0.0
C3543 C 0.707 0.5886 0.10432 0.0
C3544 C 0.74854 0.5869 0.12184 0.0
H3545 H 0.76312 0.61673 0.14582 0.0
C3546 C 0.76163 0.58538 0.11132 0.0
C3547 C 0.74975 0.59723 0.13528 0.0
C3548 C 0.73647 0.59842 0.14757 0.0
C3549 C 0.77492 0.59572 0.11255 0.0
C3550 C 0.77497 0.60769 0.12464 0.0
C3551 C 0.76293 0.60766 0.13644 0.0
C3552 C 0.78478 0.62236 0.12273 0.0
C3553 C 0.78785 0.59508 0.09983 0.0
C3554 C 0.80149 0.62228 0.12496 0.0
C3555 C 0.81058 0.63586 0.12086 0.0
C3556 C 0.80303 0.64955 0.11437 0.0
C3557 C 0.78623 0.64978 0.11288 0.0
C3558 C 0.77719 0.63633 0.11708 0.0
H3559 H 0.78611 0.5849 0.09135 0.0
H3560 H 0.7879 0.60647 0.09286 0.0
H3561 H 0.79981 0.5938 0.10561 0.0
H3562 H 0.80752 0.6116 0.12934 0.0
H3563 H 0.82355 0.63538 0.12206 0.0
H3564 H 0.91026 0.96571 0.14174 0.0
H3565 H 0.88703 0.98187 0.13397 0.0
H3566 H 0.86039 0.93878 0.12285 0.0
H3567 H 0.88369 0.9224 0.13085 0.0
H3568 H 0.86759 0.98202 0.10362 0.0
H3569 H 0.83405 0.96335 0.15872 0.0
H3570 H 0.85553 0.96043 0.15753 0.0
H3571 H 0.84238 0.94851 0.14529 0.0
C3572 C 0.89949 0.95966 0.13758 0.0
C3573 C 0.89869 0.94282 0.13709 0.0
C3574 C 0.88629 0.96889 0.13301 0.0
C3575 C 0.87202 0.96148 0.12792 0.0
C3576 C 0.87131 0.94468 0.1268 0.0
H3577 H 0.79999 0.03733 0.14174 0.0
H3578 H 0.80725 0.01073 0.13082 0.0
C3579 C 0.88461 0.93538 0.13131 0.0
C3580 C 0.85775 0.97171 0.12525 0.0
H3581 H 0.82751 0.98833 0.14737 0.0
C3582 C 0.85838 0.98307 0.11281 0.0
C3583 C 0.84558 0.97286 0.13708 0.0
C3584 C 0.84421 0.96068 0.15046 0.0
C3585 C 0.84844 0.99667 0.11306 0.0
C3586 C 0.83794 0.999 0.12622 0.0
C3587 C 0.83572 0.98656 0.13739 0.0
C3588 C 0.83287 0.01534 0.13098 0.0
C3589 C 0.85034 0.00917 0.10007 0.0
C3590 C 0.84487 0.02651 0.13489 0.0
C3591 C 0.84084 0.04139 0.14131 0.0
C3592 C 0.82468 0.04551 0.14396 0.0
C3593 C 0.81255 0.03445 0.13979 0.0
C3594 C 0.81665 0.01934 0.13351 0.0
H3595 H 0.85354 0.00347 0.08842 0.0
H3596 H 0.83916 0.01632 0.09852 0.0
H3597 H 0.86027 0.01746 0.10337 0.0
H3598 H 0.85747 0.0235 0.13345 0.0
H3599 H 0.85047 0.04964 0.14428 0.0
H3600 H 0.35771 0.19377 0.15646 0.0
H3601 H 0.34862 0.20905 0.13283 0.0
H3602 H 0.3962 0.2053 0.11236 0.0
H3603 H 0.40509 0.1899 0.13553 0.0
H3604 H 0.36032 0.23763 0.12594 0.0
H3605 H 0.37005 0.20055 0.0724 0.0
H3606 H 0.36836 0.1918 0.09224 0.0
H3607 H 0.38757 0.19871 0.08478 0.0
C3608 C 0.36603 0.19585 0.14665 0.0
C3609 C 0.38215 0.19088 0.14787 0.0
C3610 C 0.36083 0.20453 0.13317 0.0
C3611 C 0.37163 0.20809 0.12065 0.0
C3612 C 0.38748 0.20233 0.12157 0.0
H3613 H 0.41653 0.279 0.08311 0.0
H3614 H 0.40314 0.25403 0.09088 0.0
C3615 C 0.39266 0.19378 0.13498 0.0
C3616 C 0.36769 0.22023 0.10819 0.0
H3617 H 0.37873 0.2295 0.06978 0.0
C3618 C 0.36356 0.23572 0.11345 0.0
C3619 C 0.37164 0.21779 0.09181 0.0
C3620 C 0.37446 0.20123 0.085 0.0
C3621 C 0.36563 0.24909 0.1034 0.0
C3622 C 0.37203 0.24681 0.08782 0.0
C3623 C 0.37406 0.2312 0.08184 0.0
C3624 C 0.38043 0.26017 0.07977 0.0
C3625 C 0.36285 0.26572 0.1101 0.0
C3626 C 0.37219 0.27154 0.07041 0.0
C3627 C 0.37996 0.28575 0.06571 0.0
C3628 C 0.39586 0.28873 0.07064 0.0
C3629 C 0.40428 0.2769 0.07918 0.0
C3630 C 0.39666 0.26267 0.08357 0.0
H3631 H 0.35598 0.26542 0.12156 0.0
H3632 H 0.37463 0.2716 0.11238 0.0
H3633 H 0.3562 0.2732 0.10127 0.0
H3634 H 0.3596 0.26983 0.06753 0.0
H3635 H 0.37321 0.29487 0.0593 0.0
H3636 H 0.5433 0.35219 0.19568 0.0
H3637 H 0.51761 0.35475 0.18167 0.0
H3638 H 0.53372 0.39899 0.15992 0.0
H3639 H 0.55964 0.3963 0.17349 0.0
H3640 H 0.49317 0.37784 0.17908 0.0
H3641 H 0.52607 0.36969 0.12136 0.0
H3642 H 0.53546 0.3665 0.14063 0.0
H3643 H 0.53255 0.38657 0.13315 0.0
C3644 C 0.54134 0.36256 0.18807 0.0
C3645 C 0.55367 0.37382 0.18536 0.0
C3646 C 0.52661 0.36405 0.18013 0.0
C3647 C 0.52394 0.37686 0.16948 0.0
C3648 C 0.53571 0.38881 0.1678 0.0
H3649 H 0.44978 0.38326 0.09527 0.0
H3650 H 0.46922 0.39197 0.11568 0.0
C3651 C 0.5505 0.38726 0.17559 0.0
C3652 C 0.50954 0.3768 0.15902 0.0
H3653 H 0.49808 0.37282 0.11981 0.0
C3654 C 0.49421 0.37689 0.16611 0.0
C3655 C 0.51098 0.37547 0.1421 0.0
C3656 C 0.52713 0.3744 0.13383 0.0
C3657 C 0.48025 0.37545 0.1567 0.0
C3658 C 0.48176 0.37381 0.13986 0.0
C3659 C 0.49703 0.37425 0.13274 0.0
C3660 C 0.46793 0.36992 0.12942 0.0
C3661 C 0.46402 0.37544 0.16479 0.0
C3662 C 0.4607 0.35474 0.13057 0.0
C3663 C 0.44978 0.34968 0.11887 0.0
C3664 C 0.44588 0.35977 0.10589 0.0
C3665 C 0.4525 0.3753 0.10522 0.0
C3666 C 0.46358 0.38029 0.11684 0.0
H3667 H 0.4646 0.38074 0.17704 0.0
H3668 H 0.45511 0.38224 0.15753 0.0
H3669 H 0.45969 0.36287 0.1659 0.0
H3670 H 0.46413 0.34647 0.14003 0.0
H3671 H 0.44474 0.3377 0.1197 0.0
H3672 H 0.6018 0.20789 0.05311 0.0
H3673 H 0.60639 0.23569 0.06201 0.0
H3674 H 0.62276 0.21817 0.10802 0.0
H3675 H 0.61838 0.19069 0.09932 0.0
H3676 H 0.59102 0.24997 0.08733 0.0
H3677 H 0.65622 0.25203 0.09847 0.0
H3678 H 0.64709 0.2368 0.08594 0.0
H3679 H 0.64793 0.2343 0.10748 0.0
C3680 C 0.6066 0.21 0.06503 0.0
C3681 C 0.6096 0.19709 0.07555 0.0
C3682 C 0.60927 0.22586 0.07006 0.0
C3683 C 0.61524 0.22898 0.08555 0.0
C3684 C 0.6186 0.21606 0.09585 0.0
H3685 H 0.60602 0.2819 0.16639 0.0
H3686 H 0.61131 0.26429 0.14353 0.0
C3687 C 0.61588 0.20032 0.0909 0.0
C3688 C 0.61612 0.24554 0.09205 0.0
H3689 H 0.63953 0.26842 0.11679 0.0
C3690 C 0.60177 0.25435 0.09328 0.0
C3691 C 0.63018 0.25134 0.09967 0.0
C3692 C 0.64625 0.24317 0.09765 0.0
C3693 C 0.60072 0.26782 0.10339 0.0
C3694 C 0.61433 0.27246 0.11242 0.0
C3695 C 0.62906 0.26463 0.10999 0.0
C3696 C 0.61277 0.28356 0.12615 0.0
C3697 C 0.58477 0.27623 0.10543 0.0
C3698 C 0.61217 0.30023 0.12389 0.0
C3699 C 0.60938 0.3104 0.13699 0.0
C3700 C 0.60698 0.30403 0.15254 0.0
C3701 C 0.60801 0.28729 0.1547 0.0
C3702 C 0.61094 0.27718 0.14164 0.0
H3703 H 0.5754 0.27138 0.09723 0.0
H3704 H 0.58056 0.27487 0.11804 0.0
H3705 H 0.58622 0.28928 0.10305 0.0
H3706 H 0.61362 0.30532 0.11198 0.0
H3707 H 0.60901 0.32324 0.13491 0.0
H3708 H 0.46192 0.16737 0.16224 0.0
H3709 H 0.48653 0.15421 0.15325 0.0
H3710 H 0.47914 0.11616 0.18771 0.0
H3711 H 0.45437 0.12952 0.19704 0.0
H3712 H 0.51489 0.13022 0.18022 0.0
H3713 H 0.47826 0.10794 0.12937 0.0
H3714 H 0.47412 0.12857 0.13431 0.0
H3715 H 0.46974 0.11305 0.14873 0.0
C3716 C 0.46572 0.15641 0.16818 0.0
C3717 C 0.45621 0.14936 0.18019 0.0
C3718 C 0.47976 0.14893 0.16306 0.0
C3719 C 0.48446 0.13417 0.16972 0.0
C3720 C 0.47564 0.12757 0.18248 0.0
H3721 H 0.54638 0.10946 0.09167 0.0
H3722 H 0.53117 0.10083 0.11514 0.0
C3723 C 0.46157 0.13521 0.18778 0.0
C3724 C 0.49749 0.12524 0.16171 0.0
H3725 H 0.50623 0.11332 0.12368 0.0
C3726 C 0.51308 0.12595 0.16803 0.0
C3727 C 0.49502 0.11905 0.14611 0.0
C3728 C 0.47834 0.11692 0.13927 0.0
C3729 C 0.52646 0.12254 0.15827 0.0
C3730 C 0.52403 0.11916 0.14172 0.0
C3731 C 0.50832 0.11628 0.1362 0.0
C3732 C 0.53673 0.12191 0.12942 0.0
C3733 C 0.543 0.12336 0.16565 0.0
C3734 C 0.54553 0.13632 0.12972 0.0
C3735 C 0.5547 0.14102 0.11652 0.0
C3736 C 0.55482 0.13179 0.10234 0.0
C3737 C 0.54666 0.11695 0.1023 0.0
C3738 C 0.53786 0.11199 0.11576 0.0
H3739 H 0.5429 0.11772 0.17777 0.0
H3740 H 0.55216 0.11721 0.15812 0.0
H3741 H 0.5465 0.13613 0.16731 0.0
H3742 H 0.54458 0.14454 0.13977 0.0
H3743 H 0.56126 0.15224 0.11732 0.0
H3744 H 0.42243 0.72952 0.43886 0.0
H3745 H 0.4071 0.75055 0.42563 0.0
H3746 H 0.36337 0.72346 0.43243 0.0
H3747 H 0.37867 0.70233 0.44607 0.0
H3748 H 0.36956 0.73 0.4009 0.0
H3749 H 0.37509 0.78607 0.43542 0.0
H3750 H 0.39428 0.77628 0.43476 0.0
H3751 H 0.37759 0.7665 0.44459 0.0
C3752 C 0.4095 0.72817 0.43796 0.0
C3753 C 0.40184 0.71402 0.44308 0.0
C3754 C 0.40069 0.74032 0.43054 0.0
C3755 C 0.38406 0.73863 0.42816 0.0
C3756 C 0.37618 0.72502 0.43422 0.0
H3757 H 0.36715 0.81397 0.35662 0.0
H3758 H 0.35794 0.79696 0.37896 0.0
C3759 C 0.38499 0.71288 0.44182 0.0
C3760 C 0.37597 0.74954 0.41673 0.0
H3761 H 0.37732 0.78893 0.4057 0.0
C3762 C 0.37062 0.74294 0.40214 0.0
C3763 C 0.37689 0.76642 0.41844 0.0
C3764 C 0.38111 0.77419 0.43426 0.0
C3765 C 0.36854 0.75266 0.38856 0.0
C3766 C 0.37206 0.76923 0.38968 0.0
C3767 C 0.37503 0.77612 0.40479 0.0
C3768 C 0.3761 0.77871 0.37525 0.0
C3769 C 0.36393 0.74493 0.37281 0.0
C3770 C 0.38943 0.7741 0.36595 0.0
C3771 C 0.39479 0.78379 0.3534 0.0
C3772 C 0.3869 0.79828 0.34991 0.0
C3773 C 0.37336 0.80277 0.35903 0.0
C3774 C 0.36808 0.7931 0.37173 0.0
H3775 H 0.3562 0.73421 0.37484 0.0
H3776 H 0.35746 0.75352 0.36489 0.0
H3777 H 0.37497 0.74085 0.36652 0.0
H3778 H 0.39601 0.7632 0.36874 0.0
H3779 H 0.40517 0.78002 0.34648 0.0
H3780 H 0.94785 0.347 0.84242 0.0
H3781 H 0.96483 0.36702 0.85547 0.0
H3782 H 0.98266 0.38225 0.80913 0.0
H3783 H 0.96531 0.36216 0.79602 0.0
H3784 H 0.00578 0.37011 0.82806 0.0
H3785 H 0.97254 0.41428 0.86399 0.0
H3786 H 0.96322 0.39503 0.86655 0.0
H3787 H 0.96362 0.40422 0.84688 0.0
C3788 C 0.95493 0.35508 0.83504 0.0
C3789 C 0.9555 0.35311 0.81835 0.0
C3790 C 0.96448 0.36667 0.84245 0.0
C3791 C 0.97492 0.37629 0.83328 0.0
C3792 C 0.97454 0.37512 0.81641 0.0
H3793 H 0.06196 0.38698 0.89201 0.0
H3794 H 0.04448 0.39667 0.87027 0.0
C3795 C 0.96475 0.36363 0.80896 0.0
C3796 C 0.98863 0.38404 0.84158 0.0
H3797 H 0.99646 0.40194 0.8776 0.0
C3798 C 0.00398 0.37769 0.83852 0.0
C3799 C 0.98633 0.39409 0.85508 0.0
C3800 C 0.97053 0.40242 0.85817 0.0
C3801 C 0.01635 0.37903 0.84989 0.0
C3802 C 0.01328 0.3872 0.86449 0.0
C3803 C 0.99868 0.39544 0.8665 0.0
C3804 C 0.02334 0.38415 0.87883 0.0
C3805 C 0.03189 0.37007 0.84703 0.0
C3806 C 0.01707 0.37441 0.89109 0.0
C3807 C 0.02694 0.3689 0.90346 0.0
C3808 C 0.0433 0.37307 0.90383 0.0
C3809 C 0.04938 0.38359 0.89203 0.0
C3810 C 0.03946 0.38909 0.87959 0.0
H3811 H 0.03189 0.36345 0.83542 0.0
H3812 H 0.04207 0.37868 0.84693 0.0
H3813 H 0.03402 0.36132 0.85689 0.0
H3814 H 0.00466 0.37043 0.89069 0.0
H3815 H 0.02186 0.36106 0.91254 0.0
H3816 H 0.60174 0.78097 0.44562 0.0
H3817 H 0.60588 0.75353 0.43557 0.0
H3818 H 0.62549 0.77263 0.3915 0.0
H3819 H 0.62163 0.79987 0.40142 0.0
H3820 H 0.59198 0.74099 0.40833 0.0
H3821 H 0.65809 0.738 0.40267 0.0
H3822 H 0.64806 0.75301 0.41478 0.0
H3823 H 0.65013 0.75576 0.39339 0.0
C3824 C 0.6071 0.77929 0.43387 0.0
C3825 C 0.61138 0.79259 0.42432 0.0
C3826 C 0.60951 0.76363 0.42818 0.0
C3827 C 0.61635 0.76107 0.41296 0.0
C3828 C 0.62067 0.77433 0.40349 0.0
H3829 H 0.62198 0.70099 0.33405 0.0
H3830 H 0.62696 0.71966 0.3562 0.0
C3831 C 0.61828 0.78991 0.40912 0.0
C3832 C 0.61747 0.74472 0.40605 0.0
H3833 H 0.64291 0.72018 0.38519 0.0
C3834 C 0.60315 0.73617 0.40362 0.0
C3835 C 0.6321 0.73851 0.39998 0.0
C3836 C 0.64798 0.74674 0.40299 0.0
C3837 C 0.60282 0.72229 0.39406 0.0
C3838 C 0.61731 0.71663 0.38709 0.0
C3839 C 0.63182 0.72456 0.39049 0.0
C3840 C 0.61724 0.70396 0.37457 0.0
C3841 C 0.58674 0.71458 0.39052 0.0
C3842 C 0.61089 0.68864 0.37769 0.0
C3843 C 0.60781 0.67807 0.365 0.0
C3844 C 0.61143 0.68254 0.3491 0.0
C3845 C 0.61916 0.69725 0.34621 0.0
C3846 C 0.62198 0.70792 0.35885 0.0
H3847 H 0.5765 0.72225 0.39438 0.0
H3848 H 0.58546 0.71209 0.37746 0.0
H3849 H 0.58587 0.70299 0.39708 0.0
H3850 H 0.60754 0.6852 0.3898 0.0
H3851 H 0.602 0.66668 0.3675 0.0
H3852 H 0.95008 0.13147 0.91069 0.0
H3853 H 0.96876 0.12779 0.88858 0.0
H3854 H 0.93157 0.1402 0.85464 0.0
H3855 H 0.91248 0.14377 0.87689 0.0
H3856 H 0.969 0.1088 0.86022 0.0
H3857 H 0.96655 0.17462 0.84726 0.0
H3858 H 0.95803 0.1663 0.8654 0.0
H3859 H 0.94814 0.16329 0.84646 0.0
C3860 C 0.94563 0.13297 0.89854 0.0
C3861 C 0.92975 0.13803 0.89563 0.0
C3862 C 0.9564 0.13093 0.88588 0.0
C3863 C 0.95162 0.13396 0.87001 0.0
C3864 C 0.93556 0.13809 0.86686 0.0
H3865 H 0.03334 0.14854 0.80323 0.0
H3866 H 0.00496 0.14461 0.81066 0.0
C3867 C 0.92469 0.14013 0.87959 0.0
C3868 C 0.96407 0.13406 0.85727 0.0
H3869 H 0.98812 0.16012 0.83654 0.0
C3870 C 0.97294 0.11993 0.85467 0.0
C3871 C 0.96913 0.14858 0.84994 0.0
C3872 C 0.96007 0.16412 0.85238 0.0
C3873 C 0.98741 0.12021 0.84601 0.0
C3874 C 0.99322 0.13501 0.84001 0.0
C3875 C 0.98363 0.14882 0.84128 0.0
C3876 C 0.01018 0.13689 0.83495 0.0
C3877 C 0.9968 0.1048 0.84413 0.0
C3878 C 0.02238 0.13419 0.84625 0.0
C3879 C 0.03845 0.13651 0.84214 0.0
C3880 C 0.0427 0.14164 0.8266 0.0
C3881 C 0.03045 0.14451 0.81527 0.0
C3882 C 0.01426 0.14224 0.81946 0.0
H3883 H 0.98872 0.09416 0.84435 0.0
H3884 H 0.00377 0.10473 0.83273 0.0
H3885 H 0.00537 0.10362 0.8543 0.0
H3886 H 0.01946 0.13047 0.8584 0.0
H3887 H 0.04753 0.13428 0.85121 0.0
H3888 H 0.06597 0.42293 0.27347 0.0
H3889 H 0.07969 0.40984 0.25109 0.0
H3890 H 0.07663 0.3642 0.27553 0.0
H3891 H 0.06257 0.37715 0.29793 0.0
H3892 H 0.10838 0.37441 0.26656 0.0
H3893 H 0.06637 0.37764 0.21523 0.0
H3894 H 0.06694 0.39611 0.22641 0.0
H3895 H 0.05972 0.37806 0.23595 0.0
C3896 C 0.06793 0.41006 0.27399 0.0
C3897 C 0.06342 0.40114 0.28759 0.0
C3898 C 0.07564 0.40256 0.26112 0.0
C3899 C 0.07901 0.38604 0.26162 0.0
C3900 C 0.074 0.37695 0.27489 0.0
H3901 H 0.15989 0.36344 0.19617 0.0
H3902 H 0.13712 0.35532 0.21329 0.0
C3903 C 0.06606 0.38441 0.2877 0.0
C3904 C 0.08969 0.37907 0.24926 0.0
H3905 H 0.09496 0.3793 0.20865 0.0
C3906 C 0.10537 0.37486 0.25387 0.0
C3907 C 0.08561 0.37948 0.2328 0.0
C3908 C 0.06868 0.3829 0.2273 0.0
C3909 C 0.11759 0.37305 0.24237 0.0
C3910 C 0.11386 0.37534 0.22594 0.0
C3911 C 0.09779 0.37768 0.22129 0.0
C3912 C 0.1266 0.37912 0.21416 0.0
C3913 C 0.13465 0.3704 0.24797 0.0
C3914 C 0.12792 0.39501 0.20873 0.0
C3915 C 0.14077 0.39963 0.19909 0.0
C3916 C 0.1526 0.38844 0.19463 0.0
C3917 C 0.15096 0.37231 0.1995 0.0
C3918 C 0.13803 0.36768 0.20928 0.0
H3919 H 0.13558 0.36968 0.26128 0.0
H3920 H 0.13933 0.35901 0.24281 0.0
H3921 H 0.14248 0.38033 0.24367 0.0
H3922 H 0.11922 0.40401 0.21239 0.0
H3923 H 0.14154 0.41205 0.19522 0.0
H3924 H 0.13005 0.59686 0.32271 0.0
H3925 H 0.1096 0.60466 0.30338 0.0
H3926 H 0.14191 0.63978 0.28306 0.0
H3927 H 0.16312 0.63079 0.30112 0.0
H3928 H 0.09296 0.6293 0.293 0.0
H3929 H 0.1365 0.61164 0.24511 0.0
H3930 H 0.14086 0.60881 0.2661 0.0
H3931 H 0.14243 0.62848 0.25716 0.0
C3932 C 0.13295 0.60614 0.31406 0.0
C3933 C 0.14857 0.61259 0.31306 0.0
C3934 C 0.12109 0.61082 0.30317 0.0
C3935 C 0.12443 0.62235 0.29131 0.0
C3936 C 0.13928 0.63037 0.29167 0.0
H3937 H 0.06706 0.62069 0.2024 0.0
H3938 H 0.08161 0.63391 0.22432 0.0
C3939 C 0.15135 0.62535 0.30223 0.0
C3940 C 0.11317 0.62417 0.27757 0.0
H3941 H 0.11006 0.616 0.23743 0.0
C3942 C 0.09675 0.6267 0.2808 0.0
C3943 C 0.11811 0.6208 0.26157 0.0
C3944 C 0.13539 0.61716 0.25723 0.0
C3945 C 0.08509 0.62479 0.26873 0.0
C3946 C 0.09002 0.62049 0.25309 0.0
C3947 C 0.10643 0.61936 0.2495 0.0
C3948 C 0.07862 0.61422 0.24103 0.0
C3949 C 0.06754 0.62655 0.27292 0.0
C3950 C 0.07206 0.59886 0.24328 0.0
C3951 C 0.06417 0.59109 0.23068 0.0
C3952 C 0.06263 0.59861 0.21561 0.0
C3953 C 0.0683 0.61445 0.21374 0.0
C3954 C 0.07647 0.6221 0.22629 0.0
H3955 H 0.06583 0.63374 0.28405 0.0
H3956 H 0.06085 0.63233 0.26291 0.0
H3957 H 0.06229 0.61444 0.27492 0.0
H3958 H 0.07384 0.59249 0.25451 0.0
H3959 H 0.05977 0.57898 0.2326 0.0
H3960 H 0.8675 0.69534 0.03944 0.0
H3961 H 0.87557 0.68916 0.01159 0.0
H3962 H 0.84633 0.64636 0.01272 0.0
H3963 H 0.83837 0.65225 0.04023 0.0
H3964 H 0.89026 0.65662 0.00057 0.0
H3965 H 0.83305 0.67344 0.9711 0.0
H3966 H 0.83966 0.68218 0.9899 0.0
H3967 H 0.83013 0.66276 0.98966 0.0
C3968 C 0.86275 0.68467 0.03367 0.0
C3969 C 0.85231 0.67426 0.04202 0.0
C3970 C 0.86739 0.68117 0.01783 0.0
C3971 C 0.86141 0.6674 0.01016 0.0
C3972 C 0.85094 0.65713 0.01844 0.0
H3973 H 0.8721 0.58985 0.95578 0.0
H3974 H 0.87812 0.613 0.97255 0.0
C3975 C 0.84645 0.6605 0.03419 0.0
C3976 C 0.86613 0.663 0.99363 0.0
H3977 H 0.8479 0.65156 0.95889 0.0
C3978 C 0.88125 0.65597 0.99115 0.0
C3979 C 0.85453 0.66254 0.98126 0.0
C3980 C 0.83847 0.67079 0.98302 0.0
C3981 C 0.88434 0.64679 0.97731 0.0
C3982 C 0.87183 0.64435 0.96601 0.0
C3983 C 0.85747 0.65313 0.96762 0.0
C3984 C 0.87194 0.63074 0.95445 0.0
C3985 C 0.90066 0.63912 0.9754 0.0
C3986 C 0.86651 0.63285 0.93859 0.0
C3987 C 0.8627 0.61952 0.92906 0.0
C3988 C 0.86437 0.60387 0.93521 0.0
C3989 C 0.87088 0.60176 0.95065 0.0
C3990 C 0.87448 0.61505 0.96022 0.0
H3991 H 0.91022 0.64728 0.97994 0.0
H3992 H 0.90118 0.62797 0.98271 0.0
H3993 H 0.90327 0.63608 0.96266 0.0
H3994 H 0.86438 0.64481 0.93389 0.0
H3995 H 0.85787 0.62147 0.91712 0.0
H3996 H 0.94294 0.87127 0.20459 0.0
H3997 H 0.93416 0.85859 0.22992 0.0
H3998 H 0.90948 0.90228 0.24308 0.0
H3999 H 0.91786 0.91477 0.21788 0.0
H4000 H 0.92899 0.88136 0.26951 0.0
H4001 H 0.88165 0.85162 0.23252 0.0
H4002 H 0.90254 0.85172 0.22655 0.0
H4003 H 0.89081 0.86974 0.22489 0.0
C4004 C 0.93605 0.87826 0.21316 0.0
C4005 C 0.93092 0.89392 0.20934 0.0
C4006 C 0.93106 0.87102 0.22755 0.0
C4007 C 0.9212 0.87954 0.23826 0.0
C4008 C 0.91716 0.89557 0.23495 0.0
H4009 H 0.85952 0.90689 0.3024 0.0
H4010 H 0.88357 0.89831 0.28823 0.0
C4011 C 0.92188 0.90266 0.22056 0.0
C4012 C 0.91288 0.87161 0.25174 0.0
H4013 H 0.87495 0.85824 0.25931 0.0
C4014 C 0.91744 0.87565 0.26744 0.0
C4015 C 0.898 0.86387 0.24903 0.0
C4016 C 0.89288 0.85887 0.23236 0.0
C4017 C 0.90658 0.87399 0.28024 0.0
C4018 C 0.89071 0.86873 0.27702 0.0
C4019 C 0.88702 0.86254 0.26176 0.0
C4020 C 0.87713 0.87305 0.2877 0.0
C4021 C 0.91181 0.87904 0.29685 0.0
C4022 C 0.86521 0.8618 0.29181 0.0
C4023 C 0.85116 0.8668 0.29966 0.0
C4024 C 0.84876 0.88315 0.3033 0.0
C4025 C 0.86089 0.89426 0.29951 0.0
C4026 C 0.87484 0.88929 0.29173 0.0
H4027 H 0.92457 0.87568 0.29894 0.0
H4028 H 0.91096 0.89232 0.2979 0.0
H4029 H 0.90423 0.87346 0.30634 0.0
H4030 H 0.86659 0.84926 0.28856 0.0
H4031 H 0.84198 0.85797 0.3024 0.0
H4032 H 0.6425 0.37958 0.41596 0.0
H4033 H 0.63536 0.35562 0.43154 0.0
H4034 H 0.62267 0.38573 0.47185 0.0
H4035 H 0.62976 0.4095 0.45653 0.0
H4036 H 0.65146 0.3472 0.45746 0.0
H4037 H 0.58819 0.35249 0.4755 0.0
H4038 H 0.59634 0.36378 0.4588 0.0
H4039 H 0.5978 0.37141 0.47909 0.0
C4040 C 0.6379 0.38109 0.42805 0.0
C4041 C 0.63684 0.39647 0.43504 0.0
C4042 C 0.63368 0.36738 0.43687 0.0
C4043 C 0.62823 0.36884 0.45279 0.0
C4044 C 0.62633 0.38425 0.45943 0.0
H4045 H 0.64733 0.34737 0.5418 0.0
H4046 H 0.63918 0.35432 0.51461 0.0
C4047 C 0.63051 0.3979 0.45065 0.0
C4048 C 0.62736 0.35463 0.46355 0.0
H4049 H 0.60672 0.34156 0.49651 0.0
C4050 C 0.64139 0.34543 0.46557 0.0
C4051 C 0.61418 0.3521 0.47403 0.0
C4052 C 0.59824 0.36038 0.47158 0.0
C4053 C 0.64335 0.33544 0.47901 0.0
C4054 C 0.631 0.33471 0.49062 0.0
C4055 C 0.61625 0.34231 0.48762 0.0
C4056 C 0.63471 0.32979 0.50725 0.0
C4057 C 0.65925 0.32712 0.48167 0.0
C4058 C 0.63484 0.31362 0.51206 0.0
C4059 C 0.63951 0.30955 0.52776 0.0
C4060 C 0.64423 0.32161 0.53867 0.0
C4061 C 0.64391 0.33775 0.5337 0.0
C4062 C 0.63914 0.34178 0.5182 0.0
H4063 H 0.66699 0.32746 0.47077 0.0
H4064 H 0.66576 0.33309 0.49169 0.0
H4065 H 0.65724 0.3144 0.48516 0.0
H4066 H 0.63153 0.30423 0.50367 0.0
H4067 H 0.63964 0.297 0.53127 0.0
H4068 H 0.44988 0.61394 0.79198 0.0
H4069 H 0.44233 0.62562 0.76581 0.0
H4070 H 0.39649 0.60153 0.7684 0.0
H4071 H 0.4038 0.58982 0.79415 0.0
H4072 H 0.42475 0.60299 0.7362 0.0
H4073 H 0.39326 0.65586 0.76187 0.0
H4074 H 0.41103 0.64709 0.77092 0.0
H4075 H 0.39174 0.63769 0.77353 0.0
C4076 C 0.43827 0.61103 0.78685 0.0
C4077 C 0.42739 0.60102 0.79516 0.0
C4078 C 0.43399 0.61775 0.77199 0.0
C4079 C 0.41882 0.61453 0.76541 0.0
C4080 C 0.4082 0.60423 0.77345 0.0
H4081 H 0.34048 0.60835 0.71837 0.0
H4082 H 0.36376 0.61622 0.73425 0.0
C4083 C 0.41243 0.59752 0.78816 0.0
C4084 C 0.41344 0.62158 0.75011 0.0
H4085 H 0.38207 0.64463 0.7375 0.0
C4086 C 0.41592 0.6126 0.73609 0.0
C4087 C 0.40208 0.63418 0.75015 0.0
C4088 C 0.39941 0.64439 0.76489 0.0
C4089 C 0.40566 0.61435 0.72281 0.0
C4090 C 0.39279 0.62548 0.72374 0.0
C4091 C 0.39185 0.63602 0.73689 0.0
C4092 C 0.37823 0.62333 0.71378 0.0
C4093 C 0.40744 0.60295 0.7088 0.0
C4094 C 0.37849 0.62511 0.69701 0.0
C4095 C 0.36521 0.62032 0.68783 0.0
C4096 C 0.35151 0.61376 0.69535 0.0
C4097 C 0.35099 0.61297 0.71221 0.0
C4098 C 0.36422 0.61767 0.72131 0.0
H4099 H 0.41767 0.59449 0.7104 0.0
H4100 H 0.39625 0.59583 0.70723 0.0
H4101 H 0.4095 0.6099 0.69761 0.0
H4102 H 0.38912 0.62964 0.691 0.0
H4103 H 0.36593 0.6211 0.67485 0.0
H4104 H 0.85746 0.37148 0.57295 0.0
H4105 H 0.86392 0.35279 0.55165 0.0
H4106 H 0.8945 0.38836 0.52941 0.0
H4107 H 0.88643 0.40785 0.54952 0.0
H4108 H 0.8752 0.38015 0.50902 0.0
H4109 H 0.89532 0.32288 0.5343 0.0
H4110 H 0.87733 0.32807 0.54487 0.0
H4111 H 0.89482 0.34091 0.5464 0.0
C4112 C 0.86555 0.37543 0.56355 0.0
C4113 C 0.8708 0.39151 0.56271 0.0
C4114 C 0.86967 0.36445 0.55154 0.0
C4115 C 0.87974 0.36905 0.53878 0.0
C4116 C 0.8866 0.3845 0.53903 0.0
H4117 H 0.87136 0.30669 0.45239 0.0
H4118 H 0.88438 0.31854 0.47621 0.0
C4119 C 0.88202 0.39567 0.55071 0.0
C4120 C 0.88006 0.35929 0.52377 0.0
H4121 H 0.8771 0.32057 0.5103 0.0
C4122 C 0.87621 0.36715 0.50931 0.0
C4123 C 0.88163 0.34231 0.52376 0.0
C4124 C 0.8877 0.33316 0.53819 0.0
C4125 C 0.8723 0.35852 0.49544 0.0
C4126 C 0.87162 0.34156 0.49615 0.0
C4127 C 0.87709 0.33361 0.50998 0.0
C4128 C 0.86351 0.33236 0.48329 0.0
C4129 C 0.86812 0.3677 0.48035 0.0
C4130 C 0.84731 0.33566 0.47993 0.0
C4131 C 0.83997 0.32913 0.46638 0.0
C4132 C 0.84861 0.31891 0.45611 0.0
C4133 C 0.86445 0.31454 0.46016 0.0
C4134 C 0.8719 0.3213 0.4737 0.0
H4135 H 0.87437 0.37951 0.47999 0.0
H4136 H 0.87136 0.3608 0.46938 0.0
H4137 H 0.85498 0.37006 0.48014 0.0
H4138 H 0.84053 0.3439 0.48743 0.0
H4139 H 0.82769 0.33251 0.46365 0.0
H4140 H 0.11465 0.08648 0.54944 0.0
H4141 H 0.10448 0.10843 0.53235 0.0
H4142 H 0.14849 0.10713 0.50485 0.0
H4143 H 0.15872 0.08554 0.52205 0.0
H4144 H 0.12199 0.13832 0.53019 0.0
H4145 H 0.11234 0.1113 0.47033 0.0
H4146 H 0.11162 0.09972 0.48875 0.0
H4147 H 0.13063 0.10422 0.47939 0.0
C4148 C 0.12188 0.09065 0.53943 0.0
C4149 C 0.13737 0.08439 0.53687 0.0
C4150 C 0.1161 0.10313 0.52975 0.0
C4151 C 0.12564 0.10918 0.51722 0.0
C4152 C 0.14081 0.10237 0.51425 0.0
H4153 H 0.16762 0.18539 0.48053 0.0
H4154 H 0.15302 0.16677 0.49767 0.0
C4155 C 0.14668 0.09013 0.52407 0.0
C4156 C 0.12116 0.12401 0.50858 0.0
H4157 H 0.12217 0.13904 0.47054 0.0
C4158 C 0.12143 0.13853 0.51715 0.0
C4159 C 0.12 0.12428 0.49165 0.0
C4160 C 0.11844 0.10901 0.482 0.0
C4161 C 0.12274 0.15328 0.50908 0.0
C4162 C 0.12402 0.15332 0.49213 0.0
C4163 C 0.12151 0.13898 0.48357 0.0
C4164 C 0.13123 0.16702 0.48338 0.0
C4165 C 0.12391 0.16853 0.5188 0.0
C4166 C 0.12382 0.17344 0.46966 0.0
C4167 C 0.13223 0.1841 0.45973 0.0
C4168 C 0.14828 0.18822 0.46321 0.0
C4169 C 0.15532 0.18241 0.47742 0.0
C4170 C 0.1469 0.17188 0.48736 0.0
H4171 H 0.11654 0.16764 0.52992 0.0
H4172 H 0.13659 0.17041 0.52252 0.0
H4173 H 0.1199 0.17915 0.51177 0.0
H4174 H 0.11178 0.16975 0.46632 0.0
H4175 H 0.12634 0.18861 0.44903 0.0
H4176 H 0.77912 0.57008 0.92834 0.0
H4177 H 0.75688 0.58511 0.91656 0.0
H4178 H 0.77193 0.57068 0.86907 0.0
H4179 H 0.79405 0.55519 0.88077 0.0
H4180 H 0.77084 0.60476 0.87483 0.0
H4181 H 0.71409 0.57504 0.89271 0.0
H4182 H 0.72828 0.57618 0.90897 0.0
H4183 H 0.73305 0.56443 0.89142 0.0
C4184 C 0.77749 0.56973 0.91542 0.0
C4185 C 0.7886 0.56177 0.90548 0.0
C4186 C 0.7647 0.57824 0.9087 0.0
C4187 C 0.76277 0.57896 0.89195 0.0
C4188 C 0.77321 0.57021 0.88203 0.0
H4189 H 0.68923 0.65217 0.8696 0.0
H4190 H 0.70584 0.62844 0.86328 0.0
C4191 C 0.7859 0.56147 0.88876 0.0
C4192 C 0.75151 0.59085 0.88509 0.0
H4193 H 0.71297 0.60412 0.88935 0.0
C4194 C 0.75807 0.60443 0.8775 0.0
C4195 C 0.73486 0.5903 0.8884 0.0
C4196 C 0.72711 0.57561 0.89568 0.0
C4197 C 0.7487 0.61816 0.87474 0.0
C4198 C 0.73247 0.61822 0.87973 0.0
C4199 C 0.7255 0.60406 0.8857 0.0
C4200 C 0.72353 0.6334 0.8817 0.0
C4201 C 0.75644 0.63289 0.86755 0.0
C4202 C 0.72811 0.64396 0.89404 0.0
C4203 C 0.7186 0.65723 0.89779 0.0
C4204 C 0.70449 0.66025 0.88909 0.0
C4205 C 0.70021 0.65009 0.87629 0.0
C4206 C 0.70962 0.63659 0.87271 0.0
H4207 H 0.76726 0.62972 0.86038 0.0
H4208 H 0.74781 0.63948 0.85976 0.0
H4209 H 0.76023 0.64108 0.87739 0.0
H4210 H 0.73869 0.64151 0.90125 0.0
H4211 H 0.72198 0.66489 0.90777 0.0
H4212 H 0.81003 0.94847 0.37266 0.0
H4213 H 0.82188 0.97193 0.3863 0.0
H4214 H 0.83887 0.98976 0.34066 0.0
H4215 H 0.82761 0.96623 0.32713 0.0
H4216 H 0.86104 0.97683 0.37252 0.0
H4217 H 0.81848 0.02806 0.37741 0.0
H4218 H 0.81219 0.00729 0.37918 0.0
H4219 H 0.817 0.01547 0.35981 0.0
C4220 C 0.8158 0.95773 0.36553 0.0
C4221 C 0.81805 0.95562 0.3489 0.0
C4222 C 0.82252 0.97107 0.37332 0.0
C4223 C 0.8311 0.98254 0.36442 0.0
C4224 C 0.8321 0.98108 0.34765 0.0
H4225 H 0.88664 0.05952 0.34767 0.0
H4226 H 0.86527 0.04144 0.35516 0.0
C4227 C 0.82576 0.96764 0.33996 0.0
C4228 C 0.84189 0.99411 0.37234 0.0
H4229 H 0.84649 0.03437 0.37794 0.0
C4230 C 0.85793 0.9894 0.3742 0.0
C4231 C 0.83756 0.01032 0.37451 0.0
C4232 C 0.82034 0.01568 0.37274 0.0
C4233 C 0.87019 0.00078 0.37613 0.0
C4234 C 0.86608 0.01734 0.37703 0.0
C4235 C 0.84971 0.02176 0.3771 0.0
C4236 C 0.87836 0.03013 0.37466 0.0
C4237 C 0.88739 0.99491 0.37537 0.0
C4238 C 0.89274 0.03045 0.38348 0.0
C4239 C 0.90563 0.03998 0.37837 0.0
C4240 C 0.9041 0.05015 0.36485 0.0
C4241 C 0.8889 0.05122 0.35741 0.0
C4242 C 0.87635 0.04112 0.36202 0.0
H4243 H 0.88824 0.98214 0.37152 0.0
H4244 H 0.89456 0.00224 0.36683 0.0
H4245 H 0.89292 0.99579 0.38748 0.0
H4246 H 0.89435 0.02269 0.3938 0.0
H4247 H 0.91689 0.03875 0.38474 0.0
H4248 H 0.30594 0.84214 0.86466 0.0
H4249 H 0.28866 0.86417 0.85576 0.0
H4250 H 0.29674 0.88858 0.90086 0.0
H4251 H 0.31476 0.86726 0.9093 0.0
H4252 H 0.26187 0.86893 0.86902 0.0
H4253 H 0.29268 0.92684 0.87331 0.0
H4254 H 0.30378 0.90817 0.87256 0.0
H4255 H 0.29702 0.91632 0.89156 0.0
C4256 C 0.30456 0.85252 0.8724 0.0
C4257 C 0.31147 0.8528 0.88785 0.0
C4258 C 0.29464 0.86512 0.8673 0.0
C4259 C 0.29141 0.87816 0.87755 0.0
C4260 C 0.29927 0.87894 0.89249 0.0
H4261 H 0.20958 0.90634 0.91828 0.0
H4262 H 0.23466 0.89672 0.90662 0.0
C4263 C 0.30932 0.8665 0.89749 0.0
C4264 C 0.2775 0.88895 0.8745 0.0
H4265 H 0.26419 0.92666 0.88387 0.0
C4266 C 0.26251 0.88169 0.87163 0.0
C4267 C 0.27814 0.90571 0.87749 0.0
C4268 C 0.29385 0.91467 0.87869 0.0
C4269 C 0.24818 0.89023 0.8738 0.0
C4270 C 0.24886 0.90628 0.8793 0.0
C4271 C 0.26374 0.91417 0.88012 0.0
C4272 C 0.23466 0.91373 0.88692 0.0
C4273 C 0.23239 0.88161 0.87144 0.0
C4274 C 0.22682 0.92701 0.88011 0.0
C4275 C 0.21242 0.93265 0.88686 0.0
C4276 C 0.2058 0.92501 0.90045 0.0
C4277 C 0.21426 0.91234 0.90769 0.0
C4278 C 0.22857 0.9068 0.90103 0.0
H4279 H 0.23355 0.87177 0.86249 0.0
H4280 H 0.22859 0.87618 0.88303 0.0
H4281 H 0.22283 0.89003 0.86741 0.0
H4282 H 0.23147 0.93257 0.86928 0.0
H4283 H 0.20613 0.94246 0.88102 0.0
H4284 H 0.12138 0.42594 0.35384 0.0
H4285 H 0.14235 0.44505 0.36066 0.0
H4286 H 0.10816 0.47313 0.38782 0.0
H4287 H 0.08677 0.45473 0.37992 0.0
H4288 H 0.12052 0.49074 0.36641 0.0
H4289 H 0.1715 0.46004 0.3949 0.0
H4290 H 0.16606 0.44879 0.37739 0.0
H4291 H 0.15186 0.45081 0.39372 0.0
C4292 C 0.11831 0.43608 0.36141 0.0
C4293 C 0.10226 0.43905 0.36588 0.0
C4294 C 0.13046 0.44684 0.36566 0.0
C4295 C 0.12691 0.46056 0.37484 0.0
C4296 C 0.1112 0.46263 0.38073 0.0
H4297 H 0.1961 0.54127 0.36906 0.0
H4298 H 0.18026 0.52004 0.382 0.0
C4299 C 0.09897 0.45203 0.37623 0.0
C4300 C 0.1385 0.47414 0.37512 0.0
H4301 H 0.17878 0.48232 0.37619 0.0
C4302 C 0.13317 0.48899 0.3691 0.0
C4303 C 0.15503 0.47209 0.37874 0.0
C4304 C 0.16135 0.45709 0.38672 0.0
C4305 C 0.14403 0.5012 0.36517 0.0
C4306 C 0.16066 0.49839 0.36701 0.0
C4307 C 0.16599 0.48422 0.37442 0.0
C4308 C 0.17243 0.5094 0.35963 0.0
C4309 C 0.13771 0.51671 0.35816 0.0
C4310 C 0.17365 0.50998 0.34282 0.0
C4311 C 0.18252 0.5221 0.33539 0.0
C4312 C 0.1903 0.53388 0.34466 0.0
C4313 C 0.19002 0.53254 0.36156 0.0
C4314 C 0.18107 0.52039 0.369 0.0
H4315 H 0.1248 0.51857 0.36111 0.0
H4316 H 0.14471 0.52716 0.36266 0.0
H4317 H 0.13893 0.51634 0.34487 0.0
H4318 H 0.16708 0.50148 0.33544 0.0
H4319 H 0.18262 0.52266 0.32237 0.0
H4320 H 0.77805 0.42799 0.58164 0.0
H4321 H 0.75477 0.41517 0.59404 0.0
H4322 H 0.77947 0.41375 0.63963 0.0
H4323 H 0.80288 0.4268 0.62732 0.0
H4324 H 0.76836 0.38369 0.6282 0.0
H4325 H 0.7197 0.42875 0.62649 0.0
H4326 H 0.73071 0.42833 0.60793 0.0
H4327 H 0.74078 0.43417 0.6262 0.0
C4328 C 0.77845 0.42522 0.59437 0.0
C4329 C 0.79235 0.42823 0.60346 0.0
C4330 C 0.76507 0.41806 0.60148 0.0
C4331 C 0.76534 0.41374 0.6178 0.0
C4332 C 0.77899 0.41719 0.62707 0.0
H4333 H 0.69602 0.33511 0.63496 0.0
H4334 H 0.71397 0.35653 0.64457 0.0
C4335 C 0.79235 0.42457 0.61999 0.0
C4336 C 0.75226 0.40355 0.62417 0.0
H4337 H 0.71142 0.40069 0.62297 0.0
C4338 C 0.75587 0.38745 0.62768 0.0
C4339 C 0.73606 0.4086 0.62368 0.0
C4340 C 0.73159 0.42597 0.62104 0.0
C4341 C 0.74367 0.37584 0.62861 0.0
C4342 C 0.72751 0.38063 0.62619 0.0
C4343 C 0.72384 0.39704 0.62463 0.0
C4344 C 0.71506 0.36879 0.62163 0.0
C4345 C 0.74828 0.35838 0.63047 0.0
C4346 C 0.70936 0.36895 0.60577 0.0
C4347 C 0.69912 0.35689 0.60032 0.0
C4348 C 0.69438 0.34438 0.61061 0.0
C4349 C 0.69953 0.34458 0.62674 0.0
C4350 C 0.70983 0.35674 0.63222 0.0
H4351 H 0.76152 0.35664 0.63092 0.0
H4352 H 0.74305 0.35358 0.64176 0.0
H4353 H 0.74339 0.35121 0.62031 0.0
H4354 H 0.71325 0.37815 0.5974 0.0
H4355 H 0.69505 0.35729 0.58795 0.0
H4356 H 0.6972 0.9596 0.64577 0.0
H4357 H 0.68898 0.98749 0.64049 0.0
H4358 H 0.64259 0.97073 0.6244 0.0
H4359 H 0.65069 0.9431 0.62928 0.0
H4360 H 0.65588 0.99484 0.60461 0.0
H4361 H 0.65727 0.01167 0.66961 0.0
H4362 H 0.67535 0.00395 0.66056 0.0
H4363 H 0.65834 0.99095 0.66327 0.0
C4364 C 0.68528 0.96189 0.64103 0.0
C4365 C 0.67455 0.94913 0.63806 0.0
C4366 C 0.68061 0.97782 0.63805 0.0
C4367 C 0.66514 0.98116 0.63216 0.0
C4368 C 0.65462 0.96841 0.62887 0.0
H4369 H 0.58456 0.0335 0.62598 0.0
H4370 H 0.60852 0.01712 0.62092 0.0
C4371 C 0.65925 0.95259 0.63177 0.0
C4372 C 0.65914 0.99781 0.63015 0.0
H4373 H 0.64318 0.02852 0.65216 0.0
C4374 C 0.65348 0.00246 0.61493 0.0
C4375 C 0.65621 0.00782 0.6436 0.0
C4376 C 0.66202 0.00342 0.66022 0.0
C4377 C 0.64367 0.01605 0.61308 0.0
C4378 C 0.63939 0.02508 0.62679 0.0
C4379 C 0.64644 0.02145 0.64169 0.0
C4380 C 0.62543 0.03608 0.62669 0.0
C4381 C 0.63717 0.0201 0.59665 0.0
C4382 C 0.62703 0.0522 0.6314 0.0
C4383 C 0.61333 0.06159 0.6341 0.0
C4384 C 0.59794 0.05484 0.63244 0.0
C4385 C 0.59635 0.03892 0.62717 0.0
C4386 C 0.61001 0.02964 0.62421 0.0
H4387 H 0.64536 0.01576 0.58701 0.0
H4388 H 0.62536 0.01409 0.59501 0.0
H4389 H 0.63541 0.03326 0.59527 0.0
H4390 H 0.63883 0.05728 0.6336 0.0
H4391 H 0.61473 0.07383 0.63837 0.0
H4392 H 0.20696 0.05206 0.60324 0.0
H4393 H 0.23394 0.06295 0.60765 0.0
H4394 H 0.21322 0.10727 0.62492 0.0
H4395 H 0.1863 0.0964 0.62092 0.0
H4396 H 0.24599 0.0884 0.59236 0.0
H4397 H 0.24827 0.10042 0.65758 0.0
H4398 H 0.23316 0.08762 0.64866 0.0
H4399 H 0.23064 0.10915 0.64878 0.0
C4400 C 0.20815 0.06403 0.60824 0.0
C4401 C 0.19447 0.07339 0.61167 0.0
C4402 C 0.22358 0.07021 0.61079 0.0
C4403 C 0.22561 0.08583 0.61687 0.0
C4404 C 0.21197 0.09503 0.62065 0.0
H4405 H 0.28791 0.16423 0.61325 0.0
H4406 H 0.26761 0.1439 0.61915 0.0
C4407 C 0.19656 0.08885 0.61818 0.0
C4408 C 0.24181 0.09328 0.61745 0.0
H4409 H 0.26621 0.11648 0.64096 0.0
C4410 C 0.25062 0.09421 0.60308 0.0
C4411 C 0.24786 0.10079 0.63147 0.0
C4412 C 0.23955 0.09929 0.64752 0.0
C4413 C 0.26471 0.10341 0.60205 0.0
C4414 C 0.2702 0.11176 0.61581 0.0
C4415 C 0.2619 0.11012 0.63042 0.0
C4416 C 0.28335 0.12368 0.61469 0.0
C4417 C 0.27305 0.10496 0.58598 0.0
C4418 C 0.29908 0.119 0.61076 0.0
C4419 C 0.31077 0.13062 0.6074 0.0
C4420 C 0.3069 0.1471 0.60797 0.0
C4421 C 0.29135 0.15168 0.61282 0.0
C4422 C 0.27971 0.14007 0.61616 0.0
H4423 H 0.26591 0.09962 0.57604 0.0
H4424 H 0.27538 0.1178 0.58314 0.0
H4425 H 0.28482 0.09868 0.58648 0.0
H4426 H 0.30216 0.10638 0.60979 0.0
H4427 H 0.32273 0.1267 0.60403 0.0
H4428 H 0.39585 0.43174 0.61981 0.0
H4429 H 0.37193 0.44694 0.6112 0.0
H4430 H 0.38807 0.4877 0.63892 0.0
H4431 H 0.41167 0.47251 0.64775 0.0
H4432 H 0.34956 0.45971 0.6353 0.0
H4433 H 0.37274 0.50707 0.5949 0.0
H4434 H 0.38285 0.488 0.59773 0.0
H4435 H 0.38555 0.50403 0.61202 0.0
C4436 C 0.3944 0.44408 0.62371 0.0
C4437 C 0.40549 0.45104 0.63441 0.0
C4438 C 0.38079 0.4527 0.6188 0.0
C4439 C 0.3784 0.46848 0.62425 0.0
C4440 C 0.38989 0.47564 0.63435 0.0
H4441 H 0.32878 0.5306 0.67039 0.0
H4442 H 0.33771 0.5055 0.65819 0.0
C4443 C 0.40328 0.46696 0.63947 0.0
C4444 C 0.36307 0.47699 0.62147 0.0
H4445 H 0.35013 0.51466 0.61215 0.0
C4446 C 0.34939 0.47149 0.62969 0.0
C4447 C 0.36272 0.49214 0.61384 0.0
C4448 C 0.37672 0.49809 0.60397 0.0
C4449 C 0.33628 0.48174 0.63241 0.0
C4450 C 0.33703 0.49777 0.62685 0.0
C4451 C 0.34965 0.50242 0.61663 0.0
C4452 C 0.32768 0.51069 0.6347 0.0
C4453 C 0.32238 0.47582 0.64244 0.0
C4454 C 0.31872 0.52178 0.62566 0.0
C4455 C 0.3134 0.53611 0.63275 0.0
C4456 C 0.31741 0.5396 0.64879 0.0
C4457 C 0.32551 0.52808 0.65803 0.0
C4458 C 0.3305 0.5137 0.65108 0.0
H4459 H 0.3204 0.46274 0.64055 0.0
H4460 H 0.32518 0.47768 0.65535 0.0
H4461 H 0.31113 0.48241 0.63953 0.0
H4462 H 0.31667 0.51978 0.61295 0.0
H4463 H 0.30734 0.54498 0.62536 0.0
H4464 H 0.86685 0.69307 0.65067 0.0
H4465 H 0.85921 0.70952 0.62736 0.0
H4466 H 0.90788 0.72734 0.62422 0.0
H4467 H 0.91555 0.71076 0.64708 0.0
H4468 H 0.8585 0.74025 0.62415 0.0
H4469 H 0.90003 0.71855 0.57795 0.0
H4470 H 0.89651 0.7074 0.59627 0.0
H4471 H 0.91183 0.72279 0.59543 0.0
C4472 C 0.87589 0.70046 0.64489 0.0
C4473 C 0.89181 0.70062 0.65061 0.0
C4474 C 0.87155 0.70972 0.63151 0.0
C4475 C 0.88307 0.7193 0.6237 0.0
C4476 C 0.89891 0.71954 0.62957 0.0
H4477 H 0.88693 0.81216 0.59942 0.0
H4478 H 0.88022 0.78549 0.60897 0.0
C4479 C 0.90327 0.7102 0.64277 0.0
C4480 C 0.87846 0.73056 0.61065 0.0
H4481 H 0.89475 0.74811 0.57741 0.0
C4482 C 0.86611 0.74167 0.61364 0.0
C4483 C 0.88775 0.73211 0.59647 0.0
C4484 C 0.89961 0.7194 0.59128 0.0
C4485 C 0.86435 0.75542 0.60406 0.0
C4486 C 0.87563 0.7584 0.59166 0.0
C4487 C 0.88646 0.7462 0.5873 0.0
C4488 C 0.87832 0.77483 0.58525 0.0
C4489 C 0.85092 0.76701 0.60789 0.0
C4490 C 0.8802 0.77771 0.5687 0.0
C4491 C 0.8845 0.79304 0.56316 0.0
C4492 C 0.88694 0.8057 0.57412 0.0
C4493 C 0.88494 0.80276 0.59063 0.0
C4494 C 0.88087 0.7875 0.59612 0.0
H4495 H 0.83994 0.76037 0.61164 0.0
H4496 H 0.85455 0.77476 0.61814 0.0
H4497 H 0.8479 0.77475 0.59744 0.0
H4498 H 0.87855 0.76806 0.5601 0.0
H4499 H 0.88598 0.79496 0.55036 0.0
H4500 H 0.02689 0.82529 0.67965 0.0
H4501 H 0.00533 0.8404 0.66662 0.0
H4502 H 0.03111 0.88465 0.67462 0.0
H4503 H 0.05275 0.8697 0.68781 0.0
H4504 H 0.98651 0.87325 0.67586 0.0
H4505 H 0.02869 0.87351 0.6236 0.0
H4506 H 0.03112 0.8588 0.63937 0.0
H4507 H 0.03533 0.87957 0.64333 0.0
C4508 C 0.02785 0.83826 0.67895 0.0
C4509 C 0.04167 0.84625 0.68443 0.0
C4510 C 0.01546 0.84688 0.67165 0.0
C4511 C 0.01674 0.86358 0.66968 0.0
C4512 C 0.02996 0.87176 0.67613 0.0
H4513 H 0.96445 0.88354 0.58276 0.0
H4514 H 0.98002 0.8926 0.60583 0.0
C4515 C 0.04233 0.86316 0.68354 0.0
C4516 C 0.00565 0.87163 0.65849 0.0
H4517 H 0.00138 0.87676 0.61821 0.0
C4518 C 0.98976 0.87452 0.66329 0.0
C4519 C 0.0101 0.87373 0.64225 0.0
C4520 C 0.02722 0.87129 0.6367 0.0
C4521 C 0.97783 0.87806 0.65189 0.0
C4522 C 0.98186 0.87784 0.63532 0.0
C4523 C 0.99812 0.87672 0.63083 0.0
C4524 C 0.96962 0.87552 0.62252 0.0
C4525 C 0.96099 0.8814 0.65775 0.0
C4526 C 0.95812 0.86328 0.62425 0.0
C4527 C 0.94878 0.85847 0.61123 0.0
C4528 C 0.95115 0.86524 0.5959 0.0
C4529 C 0.96219 0.87798 0.59431 0.0
C4530 C 0.97119 0.88317 0.60753 0.0
H4531 H 0.96134 0.8889 0.6688 0.0
H4532 H 0.95362 0.88767 0.64854 0.0
H4533 H 0.95507 0.86989 0.66102 0.0
H4534 H 0.95691 0.85674 0.63543 0.0
H4535 H 0.93999 0.84907 0.6132 0.0
H4536 H 0.10699 0.82062 0.62379 0.0
H4537 H 0.11314 0.80222 0.6016 0.0
H4538 H 0.13244 0.76792 0.63537 0.0
H4539 H 0.12635 0.78618 0.65757 0.0
H4540 H 0.14962 0.76996 0.60497 0.0
H4541 H 0.0833 0.76257 0.59805 0.0
H4542 H 0.09121 0.78261 0.59635 0.0
H4543 H 0.09203 0.77235 0.61533 0.0
C4544 C 0.11274 0.80924 0.62645 0.0
C4545 C 0.11595 0.80471 0.64244 0.0
C4546 C 0.11629 0.79879 0.61377 0.0
C4547 C 0.12298 0.78363 0.61691 0.0
C4548 C 0.12727 0.77958 0.63272 0.0
H4549 H 0.13392 0.68888 0.58619 0.0
H4550 H 0.13808 0.71607 0.59624 0.0
C4551 C 0.1238 0.79003 0.64539 0.0
C4552 C 0.12376 0.77118 0.60424 0.0
H4553 H 0.09978 0.74524 0.58342 0.0
C4554 C 0.13876 0.76469 0.60002 0.0
C4555 C 0.10955 0.76443 0.59774 0.0
C4556 C 0.09307 0.77072 0.60211 0.0
C4557 C 0.13989 0.75118 0.58995 0.0
C4558 C 0.12563 0.74381 0.58431 0.0
C4559 C 0.11071 0.7509 0.58776 0.0
C4560 C 0.12558 0.72774 0.57659 0.0
C4561 C 0.15632 0.74477 0.58571 0.0
C4562 C 0.11717 0.72519 0.56217 0.0
C4563 C 0.11455 0.70959 0.5565 0.0
C4564 C 0.12023 0.69624 0.56522 0.0
C4565 C 0.12935 0.69888 0.5792 0.0
C4566 C 0.13191 0.71447 0.58488 0.0
H4567 H 0.16541 0.75457 0.58557 0.0
H4568 H 0.16009 0.73591 0.59496 0.0
H4569 H 0.15631 0.73873 0.5738 0.0
H4570 H 0.11207 0.73526 0.55565 0.0
H4571 H 0.10753 0.70798 0.54565 0.0
H4572 H 0.0272 0.64002 0.58009 0.0
H4573 H 0.00942 0.63375 0.60266 0.0
H4574 H 0.04833 0.6419 0.6359 0.0
H4575 H 0.06641 0.64776 0.61338 0.0
H4576 H 0.01644 0.60949 0.63236 0.0
H4577 H 0.00814 0.67482 0.64529 0.0
H4578 H 0.0135 0.66801 0.62537 0.0
H4579 H 0.02794 0.66688 0.64132 0.0
C4580 C 0.0321 0.64018 0.59215 0.0
C4581 C 0.04822 0.64452 0.59491 0.0
C4582 C 0.02191 0.63663 0.60503 0.0
C4583 C 0.02762 0.63741 0.62087 0.0
C4584 C 0.04376 0.64129 0.62372 0.0
H4585 H 0.9567 0.64528 0.69812 0.0
H4586 H 0.98349 0.64296 0.68613 0.0
C4587 C 0.05399 0.64477 0.61084 0.0
C4588 C 0.01626 0.63529 0.63435 0.0
H4589 H 0.99107 0.65674 0.65851 0.0
C4590 C 0.01103 0.61977 0.63831 0.0
C4591 C 0.00951 0.64872 0.64223 0.0
C4592 C 0.01497 0.66561 0.63842 0.0
C4593 C 0.99858 0.61738 0.64948 0.0
C4594 C 0.9909 0.63091 0.65641 0.0
C4595 C 0.99689 0.64637 0.65317 0.0
C4596 C 0.97546 0.62961 0.66528 0.0
C4597 C 0.99362 0.60041 0.65352 0.0
C4598 C 0.9621 0.62259 0.65772 0.0
C4599 C 0.94681 0.62386 0.66453 0.0
C4600 C 0.94452 0.63239 0.67895 0.0
C4601 C 0.95803 0.63868 0.68696 0.0
C4602 C 0.97337 0.63736 0.68014 0.0
H4603 H 0.00403 0.59207 0.65267 0.0
H4604 H 0.98843 0.59959 0.66581 0.0
H4605 H 0.98445 0.59631 0.64474 0.0
H4606 H 0.9633 0.6169 0.64607 0.0
H4607 H 0.93669 0.61883 0.65806 0.0
H4608 H 0.88854 0.27392 0.82974 0.0
H4609 H 0.88097 0.25912 0.8539 0.0
H4610 H 0.86557 0.3033 0.87637 0.0
H4611 H 0.87329 0.31822 0.85212 0.0
H4612 H 0.8887 0.28813 0.89337 0.0
H4613 H 0.84169 0.24407 0.87847 0.0
H4614 H 0.85682 0.24387 0.86311 0.0
H4615 H 0.84516 0.26186 0.86645 0.0
C4616 C 0.8831 0.28039 0.83966 0.0
C4617 C 0.88161 0.29718 0.83917 0.0
C4618 C 0.8786 0.27192 0.8534 0.0
C4619 C 0.87253 0.28009 0.86689 0.0
C4620 C 0.87005 0.29676 0.86603 0.0
H4621 H 0.87684 0.20801 0.94357 0.0
H4622 H 0.86516 0.2315 0.93019 0.0
C4623 C 0.87444 0.30525 0.85219 0.0
C4624 C 0.87194 0.27158 0.88249 0.0
H4625 H 0.86238 0.2348 0.89774 0.0
C4626 C 0.8825 0.27671 0.89461 0.0
C4627 C 0.8636 0.2569 0.88434 0.0
C4628 C 0.85104 0.25147 0.87244 0.0
C4629 C 0.88645 0.26662 0.90751 0.0
C4630 C 0.87983 0.25098 0.90807 0.0
C4631 C 0.86775 0.24667 0.89709 0.0
C4632 C 0.88716 0.23817 0.918 0.0
C4633 C 0.89842 0.27243 0.91983 0.0
C4634 C 0.90339 0.23419 0.91561 0.0
C4635 C 0.91008 0.22081 0.92316 0.0
C4636 C 0.90061 0.21103 0.93315 0.0
C4637 C 0.88446 0.21531 0.93595 0.0
C4638 C 0.87776 0.22873 0.92834 0.0
H4639 H 0.89746 0.28565 0.92153 0.0
H4640 H 0.89664 0.26641 0.93162 0.0
H4641 H 0.91079 0.26981 0.91552 0.0
H4642 H 0.91076 0.24105 0.90734 0.0
H4643 H 0.92253 0.21785 0.92072 0.0
H4644 H 0.447 0.8895 0.32129 0.0
H4645 H 0.47151 0.89159 0.33742 0.0
H4646 H 0.48404 0.84285 0.32471 0.0
H4647 H 0.45919 0.84047 0.30922 0.0
H4648 H 0.48643 0.84701 0.35566 0.0
H4649 H 0.51767 0.89798 0.32607 0.0
H4650 H 0.49782 0.90301 0.33284 0.0
H4651 H 0.50041 0.88825 0.31722 0.0
C4652 C 0.45512 0.87932 0.32176 0.0
C4653 C 0.45121 0.86482 0.314 0.0
C4654 C 0.46919 0.88057 0.33089 0.0
C4655 C 0.47981 0.86748 0.33206 0.0
C4656 C 0.47607 0.85313 0.32396 0.0
H4657 H 0.56881 0.8442 0.37839 0.0
H4658 H 0.54781 0.85021 0.35865 0.0
C4659 C 0.46186 0.85177 0.31511 0.0
C4660 C 0.4941 0.86814 0.34276 0.0
H4661 H 0.52867 0.88893 0.35102 0.0
C4662 C 0.49567 0.85616 0.35456 0.0
C4663 C 0.50615 0.88014 0.3414 0.0
C4664 C 0.50553 0.89298 0.3286 0.0
C4665 C 0.50891 0.85577 0.36494 0.0
C4666 C 0.52089 0.86772 0.36359 0.0
C4667 C 0.51935 0.87985 0.352 0.0
C4668 C 0.5353 0.86713 0.37392 0.0
C4669 C 0.51018 0.84246 0.37723 0.0
C4670 C 0.53547 0.87518 0.38874 0.0
C4671 C 0.54744 0.87175 0.40007 0.0
C4672 C 0.55929 0.86015 0.3967 0.0
C4673 C 0.55972 0.85307 0.38135 0.0
C4674 C 0.54782 0.85654 0.37005 0.0
H4675 H 0.49918 0.83489 0.37766 0.0
H4676 H 0.52059 0.83465 0.37425 0.0
H4677 H 0.51233 0.8476 0.38937 0.0
H4678 H 0.5258 0.88331 0.39193 0.0
H4679 H 0.54675 0.87729 0.41184 0.0
H4680 H 0.09481 0.3032 0.89747 0.0
H4681 H 0.10495 0.27662 0.89086 0.0
H4682 H 0.11721 0.2685 0.9406 0.0
H4683 H 0.10689 0.29537 0.94748 0.0
H4684 H 0.13762 0.26381 0.89736 0.0
H4685 H 0.08784 0.22954 0.92658 0.0
H4686 H 0.08528 0.25055 0.92177 0.0
H4687 H 0.09871 0.24472 0.9376 0.0
C4688 C 0.09963 0.29584 0.90708 0.0
C4689 C 0.09999 0.30142 0.92303 0.0
C4690 C 0.10551 0.28066 0.90325 0.0
C4691 C 0.11186 0.27065 0.91523 0.0
C4692 C 0.1123 0.27607 0.9312 0.0
H4693 H 0.11739 0.17419 0.87227 0.0
H4694 H 0.12496 0.19351 0.8935 0.0
C4695 C 0.1064 0.29139 0.93509 0.0
C4696 C 0.11736 0.25443 0.91052 0.0
H4697 H 0.10205 0.21671 0.90583 0.0
C4698 C 0.13022 0.25331 0.89964 0.0
C4699 C 0.10787 0.2407 0.91372 0.0
C4700 C 0.09412 0.24128 0.92555 0.0
C4701 C 0.13263 0.23936 0.89048 0.0
C4702 C 0.12178 0.22641 0.89217 0.0
C4703 C 0.11025 0.22676 0.90449 0.0
C4704 C 0.11963 0.21454 0.87912 0.0
C4705 C 0.14592 0.2391 0.87814 0.0
C4706 C 0.11414 0.22002 0.86413 0.0
C4707 C 0.10958 0.20913 0.85227 0.0
C4708 C 0.11054 0.19255 0.85512 0.0
C4709 C 0.11663 0.18697 0.86987 0.0
C4710 C 0.12096 0.19794 0.88192 0.0
H4711 H 0.1562 0.24671 0.88201 0.0
H4712 H 0.15028 0.22666 0.87598 0.0
H4713 H 0.1413 0.24402 0.86662 0.0
H4714 H 0.11271 0.23277 0.86185 0.0
H4715 H 0.10496 0.21365 0.84095 0.0
H4716 H 0.55276 0.63223 0.34187 0.0
H4717 H 0.5256 0.62932 0.35229 0.0
H4718 H 0.50754 0.62314 0.30397 0.0
H4719 H 0.53486 0.62728 0.2934 0.0
H4720 H 0.48803 0.64081 0.31854 0.0
H4721 H 0.49927 0.59133 0.36035 0.0
H4722 H 0.51342 0.60672 0.36533 0.0
H4723 H 0.51415 0.59729 0.34573 0.0
C4724 C 0.54302 0.63007 0.33348 0.0
C4725 C 0.54585 0.62979 0.31687 0.0
C4726 C 0.52749 0.62821 0.33945 0.0
C4727 C 0.51452 0.62536 0.32899 0.0
C4728 C 0.51735 0.62509 0.31231 0.0
H4729 H 0.434 0.61811 0.39476 0.0
H4730 H 0.44977 0.60949 0.37176 0.0
C4731 C 0.53291 0.62746 0.30628 0.0
C4732 C 0.498 0.62404 0.33567 0.0
H4733 H 0.47866 0.61092 0.36925 0.0
C4734 C 0.48582 0.63392 0.32939 0.0
C4735 C 0.49463 0.61448 0.34935 0.0
C4736 C 0.50605 0.60172 0.35538 0.0
C4737 C 0.47111 0.63583 0.33746 0.0
C4738 C 0.46892 0.62839 0.35263 0.0
C4739 C 0.48037 0.61713 0.35791 0.0
C4740 C 0.45621 0.63356 0.36416 0.0
C4741 C 0.45827 0.64603 0.32969 0.0
C4742 C 0.45389 0.65 0.36728 0.0
C4743 C 0.44422 0.65502 0.38003 0.0
C4744 C 0.43722 0.64374 0.39053 0.0
C4745 C 0.439 0.62726 0.38699 0.0
C4746 C 0.44822 0.62226 0.37385 0.0
H4747 H 0.45814 0.64405 0.31647 0.0
H4748 H 0.44612 0.64333 0.33452 0.0
H4749 H 0.46104 0.65893 0.3317 0.0
H4750 H 0.46021 0.65907 0.36041 0.0
H4751 H 0.44279 0.66781 0.38197 0.0
H4752 H 0.55859 0.91551 0.76849 0.0
H4753 H 0.57454 0.90004 0.74934 0.0
H4754 H 0.57705 0.86059 0.78289 0.0
H4755 H 0.56057 0.87573 0.80194 0.0
H4756 H 0.60714 0.87677 0.77392 0.0
H4757 H 0.57155 0.85793 0.72101 0.0
H4758 H 0.56646 0.87768 0.7282 0.0
H4759 H 0.56289 0.86049 0.74083 0.0
C4760 C 0.56212 0.90338 0.77164 0.0
C4761 C 0.55872 0.89704 0.78691 0.0
C4762 C 0.57109 0.89448 0.76061 0.0
C4763 C 0.57688 0.87917 0.76473 0.0
C4764 C 0.57255 0.87233 0.77949 0.0
H4765 H 0.66928 0.86792 0.71535 0.0
H4766 H 0.64742 0.85729 0.7318 0.0
C4767 C 0.56329 0.88111 0.79041 0.0
C4768 C 0.59003 0.87225 0.75508 0.0
H4769 H 0.59959 0.86443 0.71608 0.0
C4770 C 0.60561 0.87352 0.76137 0.0
C4771 C 0.58782 0.86792 0.73886 0.0
C4772 C 0.57125 0.86576 0.73184 0.0
C4773 C 0.61911 0.87276 0.75132 0.0
C4774 C 0.61684 0.87004 0.73464 0.0
C4775 C 0.60131 0.86671 0.72881 0.0
C4776 C 0.62957 0.87398 0.72282 0.0
C4777 C 0.63538 0.87663 0.75842 0.0
C4778 C 0.62657 0.88615 0.71153 0.0
C4779 C 0.63883 0.89182 0.70167 0.0
C4780 C 0.65455 0.88574 0.7031 0.0
C4781 C 0.65738 0.873 0.71392 0.0
C4782 C 0.64492 0.86701 0.72351 0.0
H4783 H 0.63452 0.8809 0.77106 0.0
H4784 H 0.64298 0.86566 0.75835 0.0
H4785 H 0.64154 0.88605 0.75125 0.0
H4786 H 0.61479 0.89167 0.71067 0.0
H4787 H 0.63593 0.90113 0.69304 0.0
H4788 H 0.59487 0.08739 0.70418 0.0
H4789 H 0.60406 0.09905 0.72938 0.0
H4790 H 0.56152 0.12861 0.73172 0.0
H4791 H 0.55204 0.11689 0.70622 0.0
H4792 H 0.60497 0.13841 0.7333 0.0
H4793 H 0.57141 0.10107 0.77756 0.0
H4794 H 0.57629 0.09197 0.75848 0.0
H4795 H 0.56234 0.10842 0.75919 0.0
C4796 C 0.58735 0.09627 0.71005 0.0
C4797 C 0.57278 0.10129 0.70316 0.0
C4798 C 0.59263 0.10292 0.72444 0.0
C4799 C 0.58349 0.11472 0.73224 0.0
C4800 C 0.5687 0.11951 0.72576 0.0
H4801 H 0.63905 0.12618 0.82101 0.0
H4802 H 0.61663 0.13477 0.80354 0.0
C4803 C 0.56331 0.11277 0.71128 0.0
C4804 C 0.59021 0.12202 0.74688 0.0
H4805 H 0.59718 0.1109 0.78564 0.0
C4806 C 0.60287 0.13299 0.74498 0.0
C4807 C 0.58729 0.11505 0.76207 0.0
C4808 C 0.57353 0.10352 0.76459 0.0
C4809 C 0.61397 0.13552 0.75739 0.0
C4810 C 0.61234 0.12672 0.77182 0.0
C4811 C 0.59845 0.11752 0.77447 0.0
C4812 C 0.6264 0.12362 0.78215 0.0
C4813 C 0.62822 0.14633 0.75443 0.0
C4814 C 0.63912 0.11448 0.77585 0.0
C4815 C 0.65163 0.10941 0.78575 0.0
C4816 C 0.65164 0.11351 0.80206 0.0
C4817 C 0.63919 0.12302 0.80837 0.0
C4818 C 0.62649 0.12793 0.79846 0.0
H4819 H 0.62521 0.15596 0.74566 0.0
H4820 H 0.63247 0.15192 0.76579 0.0
H4821 H 0.63822 0.13911 0.74931 0.0
H4822 H 0.63906 0.11075 0.76336 0.0
H4823 H 0.66113 0.102 0.78076 0.0
H4824 H 0.38459 0.08652 0.4429 0.0
H4825 H 0.3932 0.10546 0.4634 0.0
H4826 H 0.36364 0.14228 0.442 0.0
H4827 H 0.35629 0.12401 0.4204 0.0
H4828 H 0.38828 0.1555 0.45856 0.0
H4829 H 0.3579 0.10874 0.49592 0.0
H4830 H 0.37608 0.10257 0.48611 0.0
H4831 H 0.35857 0.10743 0.47434 0.0
C4832 C 0.38043 0.09882 0.44201 0.0
C4833 C 0.36908 0.10347 0.4303 0.0
C4834 C 0.38528 0.10961 0.45393 0.0
C4835 C 0.37841 0.12499 0.45468 0.0
C4836 C 0.3688 0.13032 0.44188 0.0
H4837 H 0.32854 0.17395 0.5246 0.0
H4838 H 0.34064 0.16027 0.50166 0.0
C4839 C 0.36435 0.11971 0.42968 0.0
C4840 C 0.37848 0.13434 0.46985 0.0
H4841 H 0.36267 0.1335 0.50774 0.0
C4842 C 0.383 0.15063 0.46944 0.0
C4843 C 0.37145 0.12796 0.48404 0.0
C4844 C 0.3656 0.11078 0.48518 0.0
C4845 C 0.37976 0.16091 0.48247 0.0
C4846 C 0.37198 0.15463 0.49619 0.0
C4847 C 0.36857 0.13818 0.49708 0.0
C4848 C 0.36519 0.16501 0.50888 0.0
C4849 C 0.38364 0.17857 0.48115 0.0
C4850 C 0.37505 0.17249 0.52031 0.0
C4851 C 0.36815 0.18039 0.53347 0.0
C4852 C 0.35131 0.18072 0.53542 0.0
C4853 C 0.34153 0.17379 0.52354 0.0
C4854 C 0.34842 0.16601 0.51041 0.0
H4855 H 0.38892 0.18171 0.46928 0.0
H4856 H 0.37257 0.18581 0.48301 0.0
H4857 H 0.39233 0.18195 0.4907 0.0
H4858 H 0.38802 0.17168 0.51939 0.0
H4859 H 0.37601 0.18572 0.54238 0.0
H4860 H 0.37084 0.39426 0.82862 0.0
H4861 H 0.39225 0.38909 0.80896 0.0
H4862 H 0.3569 0.37135 0.77534 0.0
H4863 H 0.3357 0.37572 0.79527 0.0
H4864 H 0.38498 0.35546 0.77203 0.0
H4865 H 0.39644 0.42146 0.77362 0.0
H4866 H 0.39999 0.41104 0.79217 0.0
H4867 H 0.37989 0.4124 0.78427 0.0
C4868 C 0.3678 0.3888 0.81719 0.0
C4869 C 0.3517 0.38544 0.81335 0.0
C4870 C 0.37997 0.386 0.80592 0.0
C4871 C 0.37611 0.38032 0.79049 0.0
C4872 C 0.36017 0.37583 0.78713 0.0
H4873 H 0.39902 0.38364 0.69353 0.0
H4874 H 0.38992 0.37768 0.7207 0.0
C4875 C 0.34806 0.37829 0.79851 0.0
C4876 C 0.38807 0.38066 0.77724 0.0
H4877 H 0.40966 0.40664 0.75383 0.0
C4878 C 0.39059 0.3666 0.7682 0.0
C4879 C 0.39544 0.39521 0.77223 0.0
C4880 C 0.39275 0.41092 0.78097 0.0
C4881 C 0.39958 0.36688 0.75391 0.0
C4882 C 0.40616 0.38159 0.74852 0.0
C4883 C 0.4046 0.39539 0.75806 0.0
C4884 C 0.4126 0.38354 0.73204 0.0
C4885 C 0.40149 0.35156 0.7444 0.0
C4886 C 0.42835 0.38903 0.72941 0.0
C4887 C 0.43363 0.39251 0.71379 0.0
C4888 C 0.42312 0.39083 0.70063 0.0
C4889 C 0.40743 0.38513 0.70337 0.0
C4890 C 0.40224 0.38154 0.7189 0.0
H4891 H 0.4004 0.3408 0.75225 0.0
H4892 H 0.39186 0.3509 0.73519 0.0
H4893 H 0.4133 0.3512 0.73815 0.0
H4894 H 0.43645 0.39084 0.73945 0.0
H4895 H 0.4458 0.39683 0.71208 0.0
H4896 H 0.1193 0.88896 0.92808 0.0
H4897 H 0.11126 0.8662 0.94484 0.0
H4898 H 0.12851 0.89126 0.98691 0.0
H4899 H 0.13551 0.91431 0.97047 0.0
H4900 H 0.13191 0.84864 0.95885 0.0
H4901 H 0.09171 0.86908 0.00675 0.0
H4902 H 0.09485 0.88093 0.98881 0.0
H4903 H 0.10797 0.88313 0.006 0.0
C4904 C 0.12075 0.88988 0.94099 0.0
C4905 C 0.12832 0.90334 0.94792 0.0
C4906 C 0.1162 0.87682 0.95055 0.0
C4907 C 0.11915 0.87699 0.96718 0.0
C4908 C 0.12568 0.8909 0.9742 0.0
H4909 H 0.17365 0.8223 0.02465 0.0
H4910 H 0.15945 0.83489 0.00238 0.0
C4911 C 0.13003 0.90399 0.96471 0.0
C4912 C 0.11853 0.86194 0.97673 0.0
H4913 H 0.11308 0.84959 0.01542 0.0
C4914 C 0.12727 0.84863 0.97104 0.0
C4915 C 0.11209 0.86151 0.99248 0.0
C4916 C 0.10097 0.8744 0.99872 0.0
C4917 C 0.13152 0.83599 0.98133 0.0
C4918 C 0.12731 0.83695 0.99776 0.0
C4919 C 0.11678 0.84911 0.00291 0.0
C4920 C 0.13574 0.82727 0.01009 0.0
C4921 C 0.14125 0.82221 0.97468 0.0
C4922 C 0.12715 0.81888 0.02193 0.0
C4923 C 0.13527 0.81179 0.03483 0.0
C4924 C 0.1521 0.81314 0.03618 0.0
C4925 C 0.1607 0.82102 0.02398 0.0
C4926 C 0.15259 0.8281 0.01113 0.0
H4927 H 0.1378 0.81967 0.96202 0.0
H4928 H 0.15419 0.82552 0.97472 0.0
H4929 H 0.13964 0.8111 0.98191 0.0
H4930 H 0.11414 0.81822 0.02143 0.0
H4931 H 0.12828 0.80573 0.04401 0.0
H4932 H 0.86724 0.10169 0.18071 0.0
H4933 H 0.89046 0.10624 0.19843 0.0
H4934 H 0.85949 0.12981 0.23277 0.0
H4935 H 0.83635 0.12548 0.21492 0.0
H4936 H 0.89149 0.14377 0.22957 0.0
H4937 H 0.89169 0.07735 0.23887 0.0
H4938 H 0.8938 0.0844 0.21855 0.0
H4939 H 0.87523 0.08756 0.22911 0.0
C4940 C 0.86557 0.10822 0.19186 0.0
C4941 C 0.85018 0.11325 0.19661 0.0
C4942 C 0.87876 0.11075 0.20196 0.0
C4943 C 0.8766 0.11815 0.21697 0.0
C4944 C 0.86136 0.1241 0.22121 0.0
H4945 H 0.91045 0.12878 0.31046 0.0
H4946 H 0.89971 0.13218 0.28347 0.0
C4947 C 0.84819 0.12162 0.21109 0.0
C4948 C 0.88955 0.11795 0.22913 0.0
H4949 H 0.90856 0.09267 0.25524 0.0
C4950 C 0.89546 0.1326 0.23504 0.0
C4951 C 0.89475 0.10334 0.23614 0.0
C4952 C 0.88852 0.08724 0.23047 0.0
C4953 C 0.90594 0.13305 0.24826 0.0
C4954 C 0.91031 0.11849 0.2559 0.0
C4955 C 0.90518 0.10382 0.24936 0.0
C4956 C 0.91829 0.11815 0.27181 0.0
C4957 C 0.91195 0.14911 0.25415 0.0
C4958 C 0.93224 0.10897 0.27428 0.0
C4959 C 0.93837 0.10685 0.28981 0.0
C4960 C 0.93051 0.11374 0.30312 0.0
C4961 C 0.91681 0.12329 0.3005 0.0
C4962 C 0.91073 0.12541 0.28502 0.0
H4963 H 0.91254 0.15798 0.24416 0.0
H4964 H 0.90348 0.15387 0.2633 0.0
H4965 H 0.92405 0.14806 0.2597 0.0
H4966 H 0.93816 0.10312 0.26425 0.0
H4967 H 0.949 0.09951 0.29139 0.0
H4968 H 0.37891 0.92871 0.02831 0.0
H4969 H 0.3882 0.90677 0.01116 0.0
H4970 H 0.36081 0.87301 0.0395 0.0
H4971 H 0.35293 0.89441 0.05762 0.0
H4972 H 0.3868 0.85897 0.02921 0.0
H4973 H 0.35854 0.89115 0.97754 0.0
H4974 H 0.3753 0.90108 0.98674 0.0
H4975 H 0.35686 0.89851 0.99781 0.0
C4976 C 0.37518 0.91658 0.03117 0.0
C4977 C 0.36469 0.91347 0.04412 0.0
C4978 C 0.38036 0.90405 0.02119 0.0
C4979 C 0.37473 0.88832 0.02366 0.0
C4980 C 0.36518 0.88507 0.03718 0.0
H4981 H 0.33315 0.81319 0.98008 0.0
H4982 H 0.3471 0.83175 0.99801 0.0
C4983 C 0.36039 0.89744 0.04738 0.0
C4984 C 0.37716 0.8754 0.01159 0.0
H4985 H 0.36538 0.86438 0.97383 0.0
C4986 C 0.38245 0.86025 0.01698 0.0
C4987 C 0.37155 0.87706 0.99556 0.0
C4988 C 0.36514 0.89276 0.98904 0.0
C4989 C 0.38089 0.84652 0.0073 0.0
C4990 C 0.37424 0.8481 0.9918 0.0
C4991 C 0.3705 0.86337 0.9858 0.0
C4992 C 0.36809 0.83414 0.98283 0.0
C4993 C 0.38532 0.83027 0.01398 0.0
C4994 C 0.37556 0.82904 0.96863 0.0
C4995 C 0.36771 0.81824 0.95843 0.0
C4996 C 0.35204 0.81289 0.96202 0.0
C4997 C 0.34509 0.81727 0.97679 0.0
C4998 C 0.35308 0.82778 0.98712 0.0
H4999 H 0.39326 0.8313 0.02468 0.0
H5000 H 0.37419 0.82384 0.01759 0.0
H5001 H 0.39145 0.8229 0.00467 0.0
H5002 H 0.38714 0.83391 0.96515 0.0
H5003 H 0.37365 0.81467 0.94743 0.0
H5004 H 0.62035 0.66087 0.93835 0.0
H5005 H 0.61685 0.65004 0.96522 0.0
H5006 H 0.64269 0.69038 0.98515 0.0
H5007 H 0.64665 0.70121 0.95802 0.0
H5008 H 0.65455 0.66302 0.99574 0.0
H5009 H 0.58891 0.65968 0.00304 0.0
H5010 H 0.59427 0.65075 0.98419 0.0
H5011 H 0.59816 0.67184 0.98759 0.0
C5012 C 0.6251 0.66763 0.94842 0.0
C5013 C 0.63387 0.68187 0.94601 0.0
C5014 C 0.62288 0.6615 0.96385 0.0
C5015 C 0.62916 0.66958 0.97727 0.0
C5016 C 0.63757 0.68405 0.97498 0.0
H5017 H 0.63314 0.61247 0.06744 0.0
H5018 H 0.62807 0.63678 0.05128 0.0
C5019 C 0.63987 0.69018 0.95947 0.0
C5020 C 0.62877 0.66158 0.99319 0.0
H5021 H 0.60444 0.63811 0.01651 0.0
C5022 C 0.64352 0.65805 0.00062 0.0
C5023 C 0.61438 0.65524 -0.00025 0.0
C5024 C 0.59805 0.65976 0.99329 0.0
C5025 C 0.64439 0.64702 0.01332 0.0
C5026 C 0.63022 0.63929 0.01855 0.0
C5027 C 0.61531 0.64393 0.01224 0.0
C5028 C 0.63116 0.62468 0.02847 0.0
C5029 C 0.66058 0.64271 0.0203 0.0
C5030 C 0.63426 0.60995 0.02087 0.0
C5031 C 0.63729 0.59622 0.02998 0.0
C5032 C 0.63707 0.59701 0.04682 0.0
C5033 C 0.63321 0.61161 0.05444 0.0
C5034 C 0.63035 0.62544 0.04529 0.0
H5035 H 0.67014 0.6512 0.01643 0.0
H5036 H 0.65996 0.64267 0.03364 0.0
H5037 H 0.66397 0.63041 0.01636 0.0
H5038 H 0.63492 0.60923 0.00788 0.0
H5039 H 0.64017 0.58507 0.0239 0.0
H5040 H 0.19211 0.22071 0.46664 0.0
H5041 H 0.21239 0.22215 0.48761 0.0
H5042 H 0.24009 0.2551 0.45861 0.0
H5043 H 0.22015 0.25275 0.43704 0.0
H5044 H 0.25922 0.23419 0.46973 0.0
H5045 H 0.22227 0.2534 0.52133 0.0
H5046 H 0.21435 0.23519 0.51306 0.0
H5047 H 0.21447 0.25331 0.50111 0.0
C5048 C 0.20234 0.22846 0.46478 0.0
C5049 C 0.2045 0.23655 0.45009 0.0
C5050 C 0.21396 0.2294 0.47691 0.0
C5051 C 0.22776 0.23896 0.47494 0.0
C5052 C 0.2296 0.24761 0.46051 0.0
H5053 H 0.29205 0.2513 0.55765 0.0
H5054 H 0.27289 0.25602 0.53572 0.0
C5055 C 0.21816 0.24634 0.4482 0.0
C5056 C 0.24078 0.23896 0.48734 0.0
H5057 H 0.24766 0.24105 0.5278 0.0
C5058 C 0.25669 0.23595 0.48241 0.0
C5059 C 0.23769 0.24146 0.50392 0.0
C5060 C 0.22129 0.2462 0.51012 0.0
C5061 C 0.26941 0.23499 0.49352 0.0
C5062 C 0.26611 0.23637 0.51019 0.0
C5063 C 0.25028 0.23978 0.51509 0.0
C5064 C 0.27875 0.23415 0.5228 0.0
C5065 C 0.28627 0.23281 0.48712 0.0
C5066 C 0.28859 0.22039 0.5229 0.0
C5067 C 0.29985 0.21797 0.53518 0.0
C5068 C 0.30116 0.22897 0.54793 0.0
C5069 C 0.29131 0.24269 0.54792 0.0
C5070 C 0.28032 0.24533 0.53542 0.0
H5071 H 0.28745 0.23785 0.4748 0.0
H5072 H 0.29532 0.2387 0.49498 0.0
H5073 H 0.28905 0.21978 0.48639 0.0
H5074 H 0.28729 0.21124 0.51374 0.0
H5075 H 0.30704 0.20711 0.5351 0.0
H5076 H 0.45274 0.55403 0.79231 0.0
H5077 H 0.4525 0.53359 0.77122 0.0
H5078 H 0.49425 0.51119 0.79232 0.0
H5079 H 0.49451 0.53162 0.81355 0.0
H5080 H 0.47458 0.5256 0.74861 0.0
H5081 H 0.46361 0.47342 0.78861 0.0
H5082 H 0.46152 0.49393 0.79538 0.0
H5083 H 0.48111 0.48482 0.79407 0.0
C5084 C 0.462 0.54489 0.79239 0.0
C5085 C 0.47366 0.54448 0.80466 0.0
C5086 C 0.46177 0.53312 0.78037 0.0
C5087 C 0.47316 0.52065 0.78034 0.0
C5088 C 0.48506 0.52043 0.79232 0.0
H5089 H 0.49747 0.45946 0.69956 0.0
H5090 H 0.49696 0.47893 0.72153 0.0
C5091 C 0.48525 0.53216 0.80441 0.0
C5092 C 0.47271 0.50808 0.76759 0.0
H5093 H 0.47038 0.46747 0.7614 0.0
C5094 C 0.47361 0.5129 0.75142 0.0
C5095 C 0.47115 0.4915 0.77121 0.0
C5096 C 0.46913 0.48558 0.78825 0.0
C5097 C 0.47338 0.50162 0.73884 0.0
C5098 C 0.47254 0.48501 0.7425 0.0
C5099 C 0.47123 0.48019 0.75862 0.0
C5100 C 0.47311 0.47252 0.7297 0.0
C5101 C 0.47383 0.50761 0.72171 0.0
C5102 C 0.46011 0.46199 0.72735 0.0
C5103 C 0.46036 0.45079 0.71475 0.0
C5104 C 0.47367 0.44987 0.70429 0.0
C5105 C 0.4869 0.46005 0.70713 0.0
C5106 C 0.48663 0.47121 0.7197 0.0
H5107 H 0.4701 0.52041 0.72085 0.0
H5108 H 0.4863 0.50665 0.71705 0.0
H5109 H 0.46588 0.5003 0.71386 0.0
H5110 H 0.44958 0.46273 0.735 0.0
H5111 H 0.44992 0.44325 0.71289 0.0
H5112 H 0.70837 0.24858 0.55472 0.0
H5113 H 0.72918 0.24791 0.53391 0.0
H5114 H 0.71058 0.2919 0.51376 0.0
H5115 H 0.68979 0.2927 0.53452 0.0
H5116 H 0.71785 0.26945 0.49047 0.0
H5117 H 0.76902 0.27651 0.53263 0.0
H5118 H 0.75617 0.25982 0.53739 0.0
H5119 H 0.74842 0.27998 0.53856 0.0
C5120 C 0.70872 0.25814 0.5459 0.0
C5121 C 0.69739 0.27071 0.54639 0.0
C5122 C 0.72067 0.25777 0.53402 0.0
C5123 C 0.72166 0.27002 0.52243 0.0
C5124 C 0.71011 0.28234 0.5226 0.0
H5125 H 0.80338 0.29081 0.46014 0.0
H5126 H 0.7826 0.2911 0.48089 0.0
C5127 C 0.69813 0.28272 0.53446 0.0
C5128 C 0.73469 0.26996 0.51012 0.0
H5129 H 0.77558 0.27004 0.50556 0.0
C5130 C 0.73047 0.2696 0.49377 0.0
C5131 C 0.75118 0.27046 0.5144 0.0
C5132 C 0.75651 0.27188 0.53169 0.0
C5133 C 0.74225 0.26938 0.48162 0.0
C5134 C 0.75874 0.2692 0.48592 0.0
C5135 C 0.76296 0.26992 0.50226 0.0
C5136 C 0.77178 0.26859 0.47362 0.0
C5137 C 0.73693 0.26965 0.46427 0.0
C5138 C 0.77291 0.25564 0.46283 0.0
C5139 C 0.78488 0.25538 0.45096 0.0
C5140 C 0.79608 0.26801 0.44969 0.0
C5141 C 0.79517 0.28075 0.46083 0.0
C5142 C 0.78319 0.281 0.47268 0.0
H5143 H 0.72438 0.27409 0.46303 0.0
H5144 H 0.74495 0.27739 0.45691 0.0
H5145 H 0.73741 0.25727 0.45933 0.0
H5146 H 0.7645 0.24572 0.46356 0.0
H5147 H 0.78535 0.24529 0.44276 0.0
H5148 H 0.54558 0.05137 0.70658 0.0
H5149 H 0.5437 0.03178 0.72849 0.0
H5150 H 0.49414 0.02265 0.71598 0.0
H5151 H 0.49635 0.04164 0.69353 0.0
H5152 H 0.52741 0.0298 0.75447 0.0
H5153 H 0.5096 0.97778 0.71711 0.0
H5154 H 0.5159 0.9966 0.70842 0.0
H5155 H 0.49549 0.99395 0.71528 0.0
C5156 C 0.53429 0.04519 0.70857 0.0
C5157 C 0.52113 0.04794 0.69833 0.0
C5158 C 0.53321 0.03396 0.72106 0.0
C5159 C 0.51888 0.02536 0.72374 0.0
C5160 C 0.50552 0.02861 0.71387 0.0
H5161 H 0.5051 0.97447 0.81531 0.0
H5162 H 0.50292 0.99349 0.79292 0.0
C5163 C 0.50672 0.03958 0.70114 0.0
C5164 C 0.51794 0.01322 0.73697 0.0
H5165 H 0.50727 0.97442 0.74545 0.0
C5166 C 0.52306 0.01767 0.75245 0.0
C5167 C 0.51256 0.99724 0.73438 0.0
C5168 C 0.50825 0.99106 0.71786 0.0
C5169 C 0.52293 0.00672 0.76534 0.0
C5170 C 0.51678 0.99099 0.76293 0.0
C5171 C 0.51172 0.98652 0.74744 0.0
C5172 C 0.51629 0.97876 0.77608 0.0
C5173 C 0.53001 0.01201 0.7812 0.0
C5174 C 0.52341 0.96359 0.77383 0.0
C5175 C 0.52418 0.9525 0.78647 0.0
C5176 C 0.51808 0.95641 0.80176 0.0
C5177 C 0.51016 0.97122 0.80375 0.0
C5178 C 0.50908 0.98218 0.791 0.0
H5179 H 0.53854 0.02218 0.77962 0.0
H5180 H 0.5202 0.01618 0.78923 0.0
H5181 H 0.53649 0.002 0.78722 0.0
H5182 H 0.52892 0.96051 0.76242 0.0
H5183 H 0.5303 0.94122 0.78444 0.0
H5184 H 0.22142 0.75426 0.06323 0.0
H5185 H 0.23997 0.75084 0.04059 0.0
H5186 H 0.21009 0.78163 0.01144 0.0
H5187 H 0.19139 0.78481 0.03391 0.0
H5188 H 0.22171 0.75668 0.99404 0.0
H5189 H 0.27147 0.78547 0.02787 0.0
H5190 H 0.26352 0.76794 0.03761 0.0
H5191 H 0.25101 0.78542 0.03507 0.0
C5192 C 0.21875 0.76017 0.05195 0.0
C5193 C 0.20498 0.76989 0.05044 0.0
C5194 C 0.2294 0.75829 0.03903 0.0
C5195 C 0.22667 0.76631 0.02441 0.0
C5196 C 0.21253 0.77538 0.02262 0.0
H5197 H 0.29601 0.79435 0.95264 0.0
H5198 H 0.27696 0.79207 0.97502 0.0
C5199 C 0.20178 0.77713 0.03547 0.0
C5200 C 0.2388 0.7658 0.01121 0.0
H5201 H 0.27795 0.77478 0.00234 0.0
C5202 C 0.23402 0.76059 0.99586 0.0
C5203 C 0.25482 0.77117 0.01349 0.0
C5204 C 0.2605 0.77797 0.02935 0.0
C5205 C 0.24479 0.76058 0.98278 0.0
C5206 C 0.2609 0.76556 0.98518 0.0
C5207 C 0.26567 0.77075 0.00054 0.0
C5208 C 0.27275 0.76658 0.97177 0.0
C5209 C 0.23863 0.75579 0.9664 0.0
C5210 C 0.27695 0.75298 0.96258 0.0
C5211 C 0.2879 0.75433 0.94979 0.0
C5212 C 0.29498 0.76921 0.94622 0.0
C5213 C 0.29096 0.7827 0.9555 0.0
C5214 C 0.28001 0.7814 0.96818 0.0
H5215 H 0.22528 0.75622 0.96579 0.0
H5216 H 0.24358 0.76376 0.9569 0.0
H5217 H 0.24246 0.74329 0.96375 0.0
H5218 H 0.27175 0.74135 0.96528 0.0
H5219 H 0.29079 0.74385 0.94263 0.0
H5220 H 0.00753 0.47281 0.31517 0.0
H5221 H 0.00444 0.49112 0.29234 0.0
H5222 H 0.02788 0.45668 0.26147 0.0
H5223 H 0.03111 0.43838 0.2842 0.0
H5224 H 0.02949 0.50428 0.27462 0.0
H5225 H 0.98876 0.46966 0.23479 0.0
H5226 H 0.99141 0.46484 0.2558 0.0
H5227 H 0.00611 0.45855 0.24123 0.0
C5228 C 0.01188 0.46904 0.30349 0.0
C5229 C 0.01958 0.45408 0.30159 0.0
C5230 C 0.01007 0.47952 0.29044 0.0
C5231 C 0.01579 0.47525 0.27514 0.0
C5232 C 0.02306 0.46013 0.27307 0.0
H5233 H 0.03343 0.52024 0.18419 0.0
H5234 H 0.02936 0.5025 0.20698 0.0
C5235 C 0.02487 0.44963 0.28612 0.0
C5236 C 0.0152 0.48702 0.26165 0.0
H5237 H 0.00206 0.49222 0.22304 0.0
C5238 C 0.02332 0.50173 0.26341 0.0
C5239 C 0.00721 0.48368 0.247 0.0
C5240 C 0.99775 0.46839 0.24459 0.0
C5241 C 0.02416 0.51293 0.25075 0.0
C5242 C 0.01636 0.50948 0.236 0.0
C5243 C 0.00799 0.49489 0.23435 0.0
C5244 C 0.01766 0.52035 0.22182 0.0
C5245 C 0.03396 0.52803 0.25305 0.0
C5246 C 0.01206 0.53629 0.22233 0.0
C5247 C 0.01429 0.5466 0.20915 0.0
C5248 C 0.0221 0.54115 0.19513 0.0
C5249 C 0.02716 0.52497 0.19455 0.0
C5250 C 0.02493 0.51473 0.20768 0.0
H5251 H 0.04207 0.52717 0.26363 0.0
H5252 H 0.04134 0.53061 0.24222 0.0
H5253 H 0.02573 0.53836 0.255 0.0
H5254 H 0.00608 0.54082 0.23299 0.0
H5255 H 0.01003 0.55886 0.21002 0.0
H5256 H 0.69586 0.70105 0.95685 0.0
H5257 H 0.71629 0.69882 0.97793 0.0
H5258 H 0.72796 0.74896 0.97213 0.0
H5259 H 0.70734 0.7515 0.95147 0.0
H5260 H 0.75522 0.72587 0.97124 0.0
H5261 H 0.71515 0.71954 0.02455 0.0
H5262 H 0.71106 0.70694 0.00741 0.0
H5263 H 0.70831 0.72827 0.00586 0.0
C5264 C 0.70253 0.7117 0.9602 0.0
C5265 C 0.69991 0.72646 0.95228 0.0
C5266 C 0.71428 0.71036 0.97223 0.0
C5267 C 0.72364 0.72373 0.97657 0.0
C5268 C 0.72093 0.73848 0.96889 0.0
H5269 H 0.78568 0.7436 0.05719 0.0
H5270 H 0.76529 0.74337 0.03599 0.0
C5271 C 0.70914 0.73987 0.95699 0.0
C5272 C 0.73655 0.7224 0.98883 0.0
H5273 H 0.7431 0.71852 0.0292 0.0
C5274 C 0.75261 0.72417 0.98391 0.0
C5275 C 0.73306 0.7203 0.00533 0.0
C5276 C 0.71598 0.71874 0.01123 0.0
C5277 C 0.7653 0.72399 0.99509 0.0
C5278 C 0.76183 0.72192 0.01162 0.0
C5279 C 0.74575 0.72006 0.01651 0.0
C5280 C 0.77463 0.7222 0.02411 0.0
C5281 C 0.78228 0.72647 0.98917 0.0
C5282 C 0.78671 0.71041 0.02445 0.0
C5283 C 0.7984 0.7105 0.0366 0.0
C5284 C 0.79817 0.72234 0.04871 0.0
C5285 C 0.78614 0.73423 0.04817 0.0
C5286 C 0.77448 0.73413 0.03604 0.0
H5287 H 0.78257 0.73139 0.97675 0.0
H5288 H 0.78895 0.73477 0.99723 0.0
H5289 H 0.78867 0.71475 0.98912 0.0
H5290 H 0.78691 0.70092 0.01553 0.0
H5291 H 0.80726 0.70097 0.03677 0.0
H5292 H 0.94911 0.05182 0.29178 0.0
H5293 H 0.94763 0.03196 0.26999 0.0
H5294 H 0.99733 0.01951 0.27787 0.0
H5295 H 0.999 0.03936 0.29936 0.0
H5296 H 0.96621 0.0284 0.24116 0.0
H5297 H 0.97349 0.97613 0.28191 0.0
H5298 H 0.96835 0.99596 0.28912 0.0
H5299 H 0.98885 0.99114 0.28419 0.0
C5300 C 0.95978 0.045 0.28876 0.0
C5301 C 0.97412 0.04709 0.29754 0.0
C5302 C 0.95889 0.03359 0.27635 0.0
C5303 C 0.97227 0.024 0.27253 0.0
C5304 C 0.98673 0.02647 0.28086 0.0
H5305 H 0.99279 0.96593 0.18815 0.0
H5306 H 0.99188 0.98641 0.20927 0.0
C5307 C 0.98764 0.03785 0.29319 0.0
C5308 C 0.97127 0.01131 0.25993 0.0
H5309 H 0.97612 0.97094 0.25387 0.0
C5310 C 0.96828 0.01582 0.24394 0.0
C5311 C 0.97373 0.99486 0.26359 0.0
C5312 C 0.97613 0.98916 0.28065 0.0
C5313 C 0.96818 0.00439 0.23145 0.0
C5314 C 0.9714 0.98803 0.23501 0.0
C5315 C 0.97388 0.98348 0.25108 0.0
C5316 C 0.97218 0.97544 0.22227 0.0
C5317 C 0.96448 0.00991 0.21457 0.0
C5318 C 0.96181 0.96213 0.22281 0.0
C5319 C 0.96236 0.95035 0.21078 0.0
C5320 C 0.97338 0.95154 0.19796 0.0
C5321 C 0.98402 0.96472 0.19769 0.0
C5322 C 0.98346 0.97649 0.20973 0.0
H5323 H 0.95802 0.02161 0.21452 0.0
H5324 H 0.97591 0.01149 0.20786 0.0
H5325 H 0.95705 0.00089 0.20809 0.0
H5326 H 0.95304 0.96101 0.23239 0.0
H5327 H 0.9538 0.94056 0.21133 0.0
H5328 H 0.46382 0.19268 0.22569 0.0
H5329 H 0.4851 0.213 0.22361 0.0
H5330 H 0.44938 0.2494 0.21415 0.0
H5331 H 0.42815 0.22927 0.21645 0.0
H5332 H 0.49386 0.23229 0.19872 0.0
H5333 H 0.47429 0.27009 0.25009 0.0
H5334 H 0.46628 0.25025 0.24656 0.0
H5335 H 0.45885 0.26719 0.23531 0.0
C5336 C 0.46053 0.20503 0.22325 0.0
C5337 C 0.44427 0.20937 0.22148 0.0
C5338 C 0.47268 0.21664 0.22205 0.0
C5339 C 0.46884 0.23282 0.21901 0.0
C5340 C 0.45264 0.23712 0.21697 0.0
H5341 H 0.5301 0.31841 0.20771 0.0
H5342 H 0.50762 0.29925 0.20504 0.0
C5343 C 0.44049 0.22557 0.21831 0.0
C5344 C 0.48178 0.24513 0.21772 0.0
H5345 H 0.49502 0.28068 0.23361 0.0
C5346 C 0.49411 0.24286 0.20636 0.0
C5347 C 0.48212 0.25897 0.22767 0.0
C5348 C 0.46977 0.26173 0.2407 0.0
C5349 C 0.50671 0.25401 0.20471 0.0
C5350 C 0.50703 0.26777 0.21469 0.0
C5351 C 0.49462 0.2702 0.22585 0.0
C5352 C 0.52085 0.27905 0.21475 0.0
C5353 C 0.51965 0.25103 0.19235 0.0
C5354 C 0.53568 0.274 0.22098 0.0
C5355 C 0.54835 0.28489 0.22266 0.0
C5356 C 0.54651 0.30105 0.21805 0.0
C5357 C 0.53184 0.306 0.21126 0.0
C5358 C 0.51903 0.29511 0.20979 0.0
H5359 H 0.51589 0.24194 0.1833 0.0
H5360 H 0.52285 0.26236 0.18604 0.0
H5361 H 0.53062 0.24652 0.19848 0.0
H5362 H 0.53729 0.26171 0.22501 0.0
H5363 H 0.55957 0.28071 0.22776 0.0
H5364 H 0.47776 0.31672 0.02775 0.0
H5365 H 0.49713 0.29478 0.0268 0.0
H5366 H 0.45853 0.26032 0.02945 0.0
H5367 H 0.4389 0.28221 0.03008 0.0
H5368 H 0.48445 0.25464 0.05144 0.0
H5369 H 0.50607 0.26376 0.9889 0.0
H5370 H 0.50632 0.28148 0.00127 0.0
H5371 H 0.48746 0.27223 0.99622 0.0
C5372 C 0.47325 0.30453 0.02783 0.0
C5373 C 0.45663 0.30136 0.02892 0.0
C5374 C 0.48442 0.29196 0.02734 0.0
C5375 C 0.47928 0.27591 0.0279 0.0
C5376 C 0.46276 0.27263 0.02899 0.0
H5377 H 0.53492 0.19039 0.00704 0.0
H5378 H 0.516 0.2128 0.0073 0.0
C5379 C 0.45154 0.2852 0.0294 0.0
C5380 C 0.49121 0.26259 0.02775 0.0
H5381 H 0.52069 0.24526 0.00495 0.0
C5382 C 0.49236 0.25255 0.04127 0.0
C5383 C 0.50141 0.25981 0.01442 0.0
C5384 C 0.50022 0.26978 0.9993 0.0
C5385 C 0.50358 0.23991 0.0419 0.0
C5386 C 0.51409 0.23737 0.02872 0.0
C5387 C 0.51278 0.24731 0.01512 0.0
C5388 C 0.52604 0.22404 0.0285 0.0
C5389 C 0.50384 0.22917 0.05653 0.0
C5390 C 0.53825 0.22303 0.04014 0.0
C5391 C 0.54906 0.21009 0.04012 0.0
C5392 C 0.54793 0.19792 0.02839 0.0
C5393 C 0.536 0.19932 0.01645 0.0
C5394 C 0.52521 0.21221 0.01651 0.0
H5395 H 0.49254 0.23015 0.0636 0.0
H5396 H 0.50561 0.21639 0.05306 0.0
H5397 H 0.51396 0.23277 0.06444 0.0
H5398 H 0.53937 0.2322 0.04932 0.0
H5399 H 0.55801 0.20945 0.04954 0.0
H5400 H 0.5355 0.69024 0.30172 0.0
H5401 H 0.51319 0.70956 0.30242 0.0
H5402 H 0.53359 0.7346 0.26184 0.0
H5403 H 0.55577 0.71543 0.26105 0.0
H5404 H 0.52469 0.75507 0.2866 0.0
H5405 H 0.47515 0.71288 0.27127 0.0
H5406 H 0.48721 0.70718 0.28827 0.0
H5407 H 0.49608 0.70775 0.26857 0.0
C5408 C 0.53511 0.69974 0.29282 0.0
C5409 C 0.54745 0.70128 0.28133 0.0
C5410 C 0.52236 0.71078 0.29324 0.0
C5411 C 0.52165 0.72345 0.28208 0.0
C5412 C 0.53391 0.72495 0.27059 0.0
H5413 H 0.4433 0.78597 0.25421 0.0
H5414 H 0.46483 0.76595 0.25591 0.0
C5415 C 0.54662 0.71399 0.27019 0.0
C5416 C 0.50837 0.73541 0.28241 0.0
H5417 H 0.46781 0.73968 0.27729 0.0
C5418 C 0.51224 0.7517 0.28462 0.0
C5419 C 0.49215 0.73101 0.27968 0.0
C5420 C 0.48734 0.71378 0.27668 0.0
C5421 C 0.50038 0.76372 0.28409 0.0
C5422 C 0.48415 0.75931 0.28148 0.0
C5423 C 0.48025 0.74302 0.27934 0.0
C5424 C 0.47109 0.77147 0.28055 0.0
C5425 C 0.50537 0.78108 0.2859 0.0
C5426 C 0.46735 0.78111 0.29388 0.0
C5427 C 0.45503 0.79253 0.29296 0.0
C5428 C 0.4461 0.79451 0.27869 0.0
C5429 C 0.44982 0.78471 0.2654 0.0
C5430 C 0.46216 0.77329 0.26634 0.0
H5431 H 0.5185 0.78271 0.28403 0.0
H5432 H 0.49881 0.78885 0.27724 0.0
H5433 H 0.50242 0.78523 0.29824 0.0
H5434 H 0.47386 0.77968 0.30508 0.0
H5435 H 0.45232 0.79955 0.30357 0.0
H5436 H 0.02925 0.31154 0.99234 0.0
H5437 H 0.01118 0.28838 0.99274 0.0
H5438 H 0.03832 0.26636 0.95448 0.0
H5439 H 0.05621 0.28963 0.9536 0.0
H5440 H 0.99294 0.27658 0.96402 0.0
H5441 H 0.03406 0.23123 0.99108 0.0
H5442 H 0.03714 0.25262 0.99344 0.0
H5443 H 0.04188 0.24303 0.9747 0.0
C5444 C 0.03141 0.30184 0.98396 0.0
C5445 C 0.04423 0.30259 0.9729 0.0
C5446 C 0.02109 0.28856 0.98428 0.0
C5447 C 0.02348 0.27565 0.97371 0.0
C5448 C 0.03641 0.27614 0.96287 0.0
H5449 H 0.97567 0.18502 0.95615 0.0
H5450 H 0.99409 0.20782 0.95761 0.0
C5451 C 0.04668 0.28947 0.96246 0.0
C5452 C 0.01205 0.26198 0.97358 0.0
H5453 H 0.00874 0.22199 0.98216 0.0
C5454 C 0.99633 0.26464 0.96805 0.0
C5455 C 0.0166 0.24645 0.9787 0.0
C5456 C 0.0333 0.24307 0.98493 0.0
C5457 C 0.98507 0.25206 0.96721 0.0
C5458 C 0.98953 0.23651 0.97256 0.0
C5459 C 0.00528 0.23391 0.97814 0.0
C5460 C 0.97824 0.22263 0.97201 0.0
C5461 C 0.96872 0.25548 0.9601 0.0
C5462 C 0.96324 0.22321 0.97982 0.0
C5463 C 0.95261 0.21018 0.97889 0.0
C5464 C 0.95691 0.1962 0.97042 0.0
C5465 C 0.97208 0.19551 0.96297 0.0
C5466 C 0.9826 0.20859 0.96373 0.0
H5467 H 0.96888 0.26642 0.95242 0.0
H5468 H 0.96439 0.2452 0.95275 0.0
H5469 H 0.95998 0.25758 0.96997 0.0
H5470 H 0.95977 0.23372 0.98667 0.0
H5471 H 0.94108 0.21097 0.98489 0.0
H5472 H 0.22826 0.43344 0.22055 0.0
H5473 H 0.22943 0.45566 0.23974 0.0
H5474 H 0.23438 0.48929 0.20056 0.0
H5475 H 0.23292 0.46707 0.18127 0.0
H5476 H 0.25198 0.47769 0.24641 0.0
H5477 H 0.19719 0.50873 0.22454 0.0
H5478 H 0.20256 0.48873 0.21809 0.0
H5479 H 0.21199 0.50601 0.20909 0.0
C5480 C 0.22976 0.44554 0.216 0.0
C5481 C 0.23047 0.44847 0.19934 0.0
C5482 C 0.23034 0.45826 0.22701 0.0
C5483 C 0.23168 0.47422 0.22164 0.0
C5484 C 0.23288 0.47715 0.20502 0.0
H5485 H 0.2374 0.5668 0.26998 0.0
H5486 H 0.23957 0.54442 0.25102 0.0
C5487 C 0.23214 0.46443 0.194 0.0
C5488 C 0.2319 0.48771 0.23345 0.0
H5489 H 0.2131 0.52285 0.24363 0.0
C5490 C 0.24344 0.48753 0.24581 0.0
C5491 C 0.22068 0.50053 0.23279 0.0
C5492 C 0.2073 0.50097 0.22052 0.0
C5493 C 0.24424 0.49992 0.25731 0.0
C5494 C 0.23319 0.51282 0.25647 0.0
C5495 C 0.22165 0.51301 0.24415 0.0
C5496 C 0.23319 0.52615 0.26838 0.0
C5497 C 0.25704 0.49927 0.27015 0.0
C5498 C 0.22907 0.5233 0.2845 0.0
C5499 C 0.2277 0.53609 0.29537 0.0
C5500 C 0.23038 0.55205 0.29033 0.0
C5501 C 0.23506 0.55475 0.27427 0.0
C5502 C 0.23635 0.54195 0.26341 0.0
H5503 H 0.26668 0.4905 0.26714 0.0
H5504 H 0.26256 0.5113 0.27193 0.0
H5505 H 0.25148 0.49555 0.2817 0.0
H5506 H 0.22634 0.51122 0.28855 0.0
H5507 H 0.22383 0.53348 0.30751 0.0
H5508 H 0.68675 0.51646 0.02356 0.0
H5509 H 0.7099 0.51486 0.00576 0.0
H5510 H 0.74151 0.52426 0.04576 0.0
H5511 H 0.71837 0.52524 0.06391 0.0
H5512 H 0.73184 0.53814 0.99886 0.0
H5513 H 0.76262 0.48522 0.02542 0.0
H5514 H 0.74213 0.49047 0.03035 0.0
H5515 H 0.75861 0.50105 0.03955 0.0
C5516 C 0.69859 0.51786 0.02875 0.0
C5517 C 0.70059 0.52083 0.04531 0.0
C5518 C 0.71186 0.51708 0.01846 0.0
C5519 C 0.72749 0.51921 0.02442 0.0
C5520 C 0.7296 0.52224 0.04091 0.0
H5521 H 0.82108 0.52763 0.97972 0.0
H5522 H 0.7984 0.52571 0.99811 0.0
C5523 C 0.7163 0.52298 0.05126 0.0
C5524 C 0.74143 0.51883 0.01321 0.0
H5525 H 0.77699 0.49969 0.0054 0.0
C5526 C 0.74166 0.52967 0.00024 0.0
C5527 C 0.75427 0.50778 0.01501 0.0
C5528 C 0.75438 0.49536 0.02824 0.0
C5529 C 0.75446 0.52993 0.9892 0.0
C5530 C 0.76729 0.51891 0.99104 0.0
C5531 C 0.76711 0.50809 0.004 0.0
C5532 C 0.78124 0.51878 0.97987 0.0
C5533 C 0.75434 0.54226 0.97588 0.0
C5534 C 0.77926 0.51502 0.96353 0.0
C5535 C 0.7923 0.51593 0.9529 0.0
C5536 C 0.80763 0.52066 0.95839 0.0
C5537 C 0.80962 0.52379 0.97494 0.0
C5538 C 0.79659 0.52281 0.98554 0.0
H5539 H 0.74551 0.55202 0.97819 0.0
H5540 H 0.76644 0.54769 0.97434 0.0
H5541 H 0.75101 0.5363 0.96441 0.0
H5542 H 0.76756 0.51156 0.95896 0.0
H5543 H 0.79028 0.51313 0.94037 0.0
H5544 H 0.79605 0.03703 0.19189 0.0
H5545 H 0.79466 0.01463 0.2109 0.0
H5546 H 0.75105 0.03426 0.23098 0.0
H5547 H 0.75241 0.05673 0.21205 0.0
H5548 H 0.77259 0.02611 0.2542 0.0
H5549 H 0.76554 0.97552 0.21134 0.0
H5550 H 0.78279 0.98787 0.20737 0.0
H5551 H 0.76294 0.99624 0.20542 0.0
C5552 C 0.78599 0.03643 0.20012 0.0
C5553 C 0.7743 0.04867 0.20039 0.0
C5554 C 0.78521 0.02359 0.21101 0.0
C5555 C 0.77264 0.02263 0.22227 0.0
C5556 C 0.76086 0.03472 0.22241 0.0
H5557 H 0.74968 0.93913 0.28163 0.0
H5558 H 0.74938 0.96116 0.26201 0.0
C5559 C 0.76166 0.04758 0.21159 0.0
C5560 C 0.77211 0.00945 0.23438 0.0
H5561 H 0.77088 0.96858 0.23858 0.0
C5562 C 0.77214 0.01353 0.25078 0.0
C5563 C 0.77137 0.99303 0.22994 0.0
C5564 C 0.7705 0.98786 0.21257 0.0
C5565 C 0.77163 0.00169 0.26283 0.0
C5566 C 0.7714 0.98525 0.2584 0.0
C5567 C 0.77116 0.98117 0.242 0.0
C5568 C 0.77141 0.9721 0.27056 0.0
C5569 C 0.77107 0.00696 0.28019 0.0
C5570 C 0.78392 0.97082 0.28182 0.0
C5571 C 0.78404 0.95833 0.29309 0.0
C5572 C 0.77175 0.94668 0.29322 0.0
C5573 C 0.75931 0.94788 0.28183 0.0
C5574 C 0.75914 0.96047 0.27062 0.0
H5575 H 0.76656 0.01948 0.28139 0.0
H5576 H 0.76326 0.99891 0.28745 0.0
H5577 H 0.78339 0.00656 0.2853 0.0
H5578 H 0.79377 0.97934 0.28174 0.0
H5579 H 0.79404 0.95755 0.30139 0.0
H5580 H 0.71332 0.45533 0.45211 0.0
H5581 H 0.73527 0.45658 0.47161 0.0
H5582 H 0.71258 0.49737 0.4944 0.0
H5583 H 0.69 0.49528 0.47547 0.0
H5584 H 0.75707 0.47621 0.47838 0.0
H5585 H 0.71966 0.47156 0.53318 0.0
H5586 H 0.71135 0.46906 0.51335 0.0
H5587 H 0.7144 0.4889 0.52156 0.0
C5588 C 0.71307 0.46457 0.46129 0.0
C5589 C 0.69998 0.47518 0.46237 0.0
C5590 C 0.72562 0.46529 0.47247 0.0
C5591 C 0.72553 0.47685 0.48483 0.0
C5592 C 0.71273 0.48793 0.48544 0.0
H5593 H 0.81601 0.49159 0.53808 0.0
H5594 H 0.79296 0.49518 0.52001 0.0
C5595 C 0.69992 0.48689 0.47452 0.0
C5596 C 0.73891 0.47724 0.49685 0.0
H5597 H 0.74717 0.47818 0.53713 0.0
C5598 C 0.75485 0.47656 0.49124 0.0
C5599 C 0.73617 0.47741 0.51369 0.0
C5600 C 0.71947 0.47659 0.5208 0.0
C5601 C 0.76801 0.47588 0.50184 0.0
C5602 C 0.7653 0.47687 0.51866 0.0
C5603 C 0.74937 0.47767 0.52428 0.0
C5604 C 0.7787 0.47612 0.53066 0.0
C5605 C 0.78457 0.47336 0.4948 0.0
C5606 C 0.778 0.4651 0.54347 0.0
C5607 C 0.79088 0.46356 0.55419 0.0
C5608 C 0.8049 0.47279 0.55218 0.0
C5609 C 0.80539 0.48424 0.53977 0.0
C5610 C 0.7923 0.48612 0.52932 0.0
H5611 H 0.78395 0.46772 0.4827 0.0
H5612 H 0.79061 0.48517 0.49341 0.0
H5613 H 0.79208 0.46559 0.50265 0.0
H5614 H 0.76768 0.45728 0.54492 0.0
H5615 H 0.79019 0.45457 0.56357 0.0
H5616 H 0.28218 0.56831 0.72675 0.0
H5617 H 0.28268 0.54581 0.74562 0.0
H5618 H 0.26871 0.51349 0.70752 0.0
H5619 H 0.26854 0.536 0.68849 0.0
H5620 H 0.26029 0.52532 0.75591 0.0
H5621 H 0.30789 0.49091 0.72431 0.0
H5622 H 0.3029 0.51134 0.71901 0.0
H5623 H 0.29075 0.49492 0.71186 0.0
C5624 C 0.27905 0.55645 0.72241 0.0
C5625 C 0.27535 0.55394 0.70609 0.0
C5626 C 0.27942 0.54356 0.73321 0.0
C5627 C 0.27607 0.52786 0.72797 0.0
C5628 C 0.27182 0.52539 0.71179 0.0
H5629 H 0.26748 0.43629 0.77709 0.0
H5630 H 0.26589 0.45891 0.75852 0.0
C5631 C 0.27162 0.53827 0.70093 0.0
C5632 C 0.27697 0.51417 0.7395 0.0
H5633 H 0.29473 0.47762 0.74596 0.0
C5634 C 0.26789 0.51494 0.75375 0.0
C5635 C 0.28696 0.50062 0.73676 0.0
C5636 C 0.2978 0.49943 0.72224 0.0
C5637 C 0.26833 0.50247 0.76516 0.0
C5638 C 0.27812 0.48888 0.76228 0.0
C5639 C 0.28719 0.48806 0.74808 0.0
C5640 C 0.27899 0.47531 0.77382 0.0
C5641 C 0.25817 0.50373 0.78014 0.0
C5642 C 0.28696 0.47702 0.7886 0.0
C5643 C 0.28811 0.46399 0.79924 0.0
C5644 C 0.28127 0.44899 0.79532 0.0
C5645 C 0.27314 0.44748 0.78051 0.0
C5646 C 0.27212 0.46045 0.76986 0.0
H5647 H 0.24947 0.51386 0.77948 0.0
H5648 H 0.25142 0.49238 0.78214 0.0
H5649 H 0.2661 0.50566 0.7907 0.0
H5650 H 0.29248 0.48837 0.7918 0.0
H5651 H 0.29464 0.46566 0.81037 0.0
H5652 H 0.20343 0.04931 0.54646 0.0
H5653 H 0.2242 0.05066 0.52568 0.0
H5654 H 0.23255 -0.00025 0.5305 0.0
H5655 H 0.21206 0.99828 0.55147 0.0
H5656 H 0.25741 0.04162 0.5269 0.0
H5657 H 0.22332 0.00602 0.48189 0.0
H5658 H 0.21394 0.0149 0.49936 0.0
H5659 H 0.22522 0.99656 0.50123 0.0
C5660 C 0.20977 0.03841 0.54329 0.0
C5661 C 0.20588 0.02364 0.55065 0.0
C5662 C 0.22161 0.0392 0.53131 0.0
C5663 C 0.22971 0.02526 0.52632 0.0
C5664 C 0.22619 0.0106 0.53389 0.0
H5665 H 0.31846 0.01684 0.47184 0.0
H5666 H 0.29711 0.01567 0.49206 0.0
C5667 C 0.21442 0.0098 0.5459 0.0
C5668 C 0.24193 0.02598 0.51328 0.0
H5669 H 0.25069 0.01155 0.47578 0.0
C5670 C 0.25593 0.03509 0.5157 0.0
C5671 C 0.23987 0.01765 0.49857 0.0
C5672 C 0.22472 0.00834 0.49498 0.0
C5673 C 0.26811 0.03576 0.50398 0.0
C5674 C 0.26634 0.02691 0.48953 0.0
C5675 C 0.25214 0.01815 0.48693 0.0
C5676 C 0.27905 0.02672 0.47692 0.0
C5677 C 0.2827 0.0461 0.50709 0.0
C5678 C 0.27585 0.03269 0.46146 0.0
C5679 C 0.28804 0.03333 0.44984 0.0
C5680 C 0.3037 0.02793 0.45343 0.0
C5681 C 0.30665 0.02133 0.46874 0.0
C5682 C 0.29446 0.02071 0.48034 0.0
H5683 H 0.28037 0.05521 0.51659 0.0
H5684 H 0.29277 0.03837 0.51118 0.0
H5685 H 0.28656 0.05241 0.49596 0.0
H5686 H 0.26403 0.03731 0.45852 0.0
H5687 H 0.28531 0.03864 0.43828 0.0
H5688 H 0.06906 0.77229 0.73799 0.0
H5689 H 0.04667 0.75319 0.73844 0.0
H5690 H 0.01736 0.78681 0.71199 0.0
H5691 H 0.03954 0.80599 0.71167 0.0
H5692 H 0.00037 0.77178 0.7355 0.0
H5693 H 0.03388 0.72691 0.69927 0.0
H5694 H 0.04404 0.73248 0.71748 0.0
H5695 H 0.04087 0.74727 0.70201 0.0
C5696 C 0.05781 0.77566 0.73238 0.0
C5697 C 0.05621 0.79061 0.72463 0.0
C5698 C 0.04505 0.76469 0.73255 0.0
C5699 C 0.0305 0.76838 0.72482 0.0
C5700 C 0.02854 0.78364 0.71789 0.0
H5701 H 0.95598 0.69915 0.69715 0.0
H5702 H 0.97801 0.71884 0.69673 0.0
C5703 C 0.04124 0.79465 0.71781 0.0
C5704 C 0.01743 0.75627 0.72369 0.0
H5705 H 0.00894 0.7183 0.71041 0.0
C5706 C 0.00223 0.76011 0.72997 0.0
C5707 C 0.01976 0.74117 0.71614 0.0
C5708 C 0.03546 0.73674 0.70818 0.0
C5709 C 0.98945 0.74909 0.72933 0.0
C5710 C 0.99203 0.7337 0.72251 0.0
C5711 C 0.00706 0.73003 0.7158 0.0
C5712 C 0.97934 0.72116 0.72263 0.0
C5713 C 0.97325 0.75409 0.73582 0.0
C5714 C 0.97322 0.71556 0.73729 0.0
C5715 C 0.96076 0.70433 0.73755 0.0
C5716 C 0.95418 0.69837 0.72315 0.0
C5717 C 0.96082 0.70346 0.70844 0.0
C5718 C 0.97332 0.71476 0.70819 0.0
H5719 H 0.97204 0.76739 0.73632 0.0
H5720 H 0.96334 0.74917 0.72834 0.0
H5721 H 0.97185 0.74938 0.74823 0.0
H5722 H 0.97799 0.71998 0.74858 0.0
H5723 H 0.95618 0.70038 0.74908 0.0
H5724 H 0.04818 0.71134 0.50139 0.0
H5725 H 0.02716 0.73153 0.50449 0.0
H5726 H 0.02911 0.72592 0.556 0.0
H5727 H 0.0501 0.70537 0.55298 0.0
H5728 H 0.99674 0.72539 0.51997 0.0
H5729 H 0.03081 0.77564 0.54828 0.0
H5730 H 0.04066 0.75962 0.53739 0.0
H5731 H 0.03289 0.75602 0.55719 0.0
C5732 C 0.04419 0.71437 0.5134 0.0
C5733 C 0.05075 0.70659 0.52692 0.0
C5734 C 0.03221 0.72598 0.51515 0.0
C5735 C 0.02659 0.73023 0.53046 0.0
C5736 C 0.03342 0.72293 0.54407 0.0
H5737 H 0.94842 0.7978 0.55284 0.0
H5738 H 0.96904 0.7769 0.55536 0.0
C5739 C 0.04544 0.71122 0.54233 0.0
C5740 C 0.01299 0.74167 0.53188 0.0
H5741 H 0.00316 0.77985 0.54347 0.0
C5742 C 0.99811 0.73726 0.5252 0.0
C5743 C 0.0148 0.75711 0.53878 0.0
C5744 C 0.03065 0.76252 0.54575 0.0
C5745 C 0.98509 0.74799 0.52496 0.0
C5746 C 0.98705 0.76359 0.53139 0.0
C5747 C 0.00174 0.76786 0.53854 0.0
C5748 C 0.97426 0.7759 0.52991 0.0
C5749 C 0.96933 0.74265 0.51774 0.0
C5750 C 0.97038 0.78222 0.51476 0.0
C5751 C 0.9586 0.79412 0.51325 0.0
C5752 C 0.95043 0.79993 0.52688 0.0
C5753 C 0.95427 0.79344 0.54206 0.0
C5754 C 0.96615 0.78159 0.54356 0.0
H5755 H 0.9687 0.72937 0.51642 0.0
H5756 H 0.95907 0.74673 0.52526 0.0
H5757 H 0.96796 0.74811 0.50563 0.0
H5758 H 0.97661 0.77807 0.50409 0.0
H5759 H 0.95588 0.79878 0.50141 0.0
H5760 H 0.03871 0.19376 0.7982 0.0
H5761 H 0.01683 0.21284 0.7936 0.0
H5762 H 0.04164 0.23134 0.75196 0.0
H5763 H 0.06373 0.21244 0.75671 0.0
H5764 H 0.03088 0.25522 0.77008 0.0
H5765 H 0.98116 0.21193 0.76119 0.0
H5766 H 0.99124 0.20886 0.78001 0.0
H5767 H 0.00198 0.2058 0.76144 0.0
C5768 C 0.03939 0.20172 0.78792 0.0
C5769 C 0.05292 0.20151 0.77776 0.0
C5770 C 0.02684 0.2126 0.78527 0.0
C5771 C 0.02738 0.22334 0.77223 0.0
C5772 C 0.04088 0.22314 0.76205 0.0
H5773 H 0.94345 0.28188 0.74546 0.0
H5774 H 0.96564 0.26238 0.74497 0.0
C5775 C 0.05352 0.21236 0.76479 0.0
C5776 C 0.0143 0.23531 0.7697 0.0
H5777 H 0.97352 0.23928 0.76622 0.0
C5778 C 0.01836 0.2517 0.76907 0.0
C5779 C 0.99795 0.23077 0.76811 0.0
C5780 C 0.99283 0.21338 0.76755 0.0
C5781 C 0.00653 0.26365 0.76743 0.0
C5782 C 0.99011 0.25916 0.7668 0.0
C5783 C 0.98608 0.24276 0.76688 0.0
C5784 C 0.97693 0.27129 0.76667 0.0
C5785 C 0.0118 0.28098 0.76626 0.0
C5786 C 0.97578 0.28267 0.77908 0.0
C5787 C 0.96324 0.29384 0.77929 0.0
C5788 C 0.95137 0.29378 0.76722 0.0
C5789 C 0.95241 0.28226 0.75488 0.0
C5790 C 0.96509 0.27113 0.7546 0.0
H5791 H 0.02428 0.28197 0.76157 0.0
H5792 H 0.00369 0.28802 0.75833 0.0
H5793 H 0.01161 0.28645 0.77843 0.0
H5794 H 0.98442 0.28273 0.78882 0.0
H5795 H 0.96258 0.3022 0.78924 0.0
H5796 H 0.47957 0.6778 0.4623 0.0
H5797 H 0.49766 0.70072 0.46373 0.0
H5798 H 0.46344 0.72618 0.49318 0.0
H5799 H 0.4452 0.70301 0.4921 0.0
H5800 H 0.48847 0.73225 0.45237 0.0
H5801 H 0.50768 0.73244 0.51649 0.0
H5802 H 0.49959 0.71474 0.50683 0.0
H5803 H 0.48644 0.73085 0.5126 0.0
C5804 C 0.47598 0.68801 0.4695 0.0
C5805 C 0.46086 0.68844 0.47716 0.0
C5806 C 0.48634 0.70121 0.47016 0.0
C5807 C 0.48194 0.71512 0.4786 0.0
C5808 C 0.46715 0.71548 0.48674 0.0
H5809 H 0.53026 0.80793 0.48722 0.0
H5810 H 0.51189 0.78515 0.48997 0.0
C5811 C 0.4567 0.70226 0.48603 0.0
C5812 C 0.49243 0.72955 0.4778 0.0
H5813 H 0.5171 0.75366 0.50013 0.0
C5814 C 0.49474 0.73694 0.4628 0.0
C5815 C 0.50046 0.73571 0.49146 0.0
C5816 C 0.49857 0.72802 0.50778 0.0
C5817 C 0.50489 0.75032 0.46107 0.0
C5818 C 0.51329 0.75624 0.47464 0.0
C5819 C 0.51075 0.74904 0.48972 0.0
C5820 C 0.5248 0.76986 0.47335 0.0
C5821 C 0.50633 0.75815 0.44475 0.0
C5822 C 0.53836 0.76874 0.46333 0.0
C5823 C 0.54883 0.7818 0.46163 0.0
C5824 C 0.54602 0.79625 0.46998 0.0
C5825 C 0.53266 0.79713 0.48037 0.0
C5826 C 0.52219 0.78407 0.48206 0.0
H5827 H 0.49594 0.75513 0.4369 0.0
H5828 H 0.50713 0.77143 0.44584 0.0
H5829 H 0.51741 0.75377 0.43873 0.0
H5830 H 0.54079 0.75779 0.45672 0.0
H5831 H 0.55891 0.78067 0.45347 0.0
H5832 H 0.7139 0.9685 0.68434 0.0
H5833 H 0.71222 0.98942 0.70513 0.0
H5834 H 0.72806 0.95521 0.74077 0.0
H5835 H 0.73019 0.93454 0.72003 0.0
H5836 H 0.69467 0.99188 0.73203 0.0
H5837 H 0.75917 0.99095 0.7488 0.0
H5838 H 0.75163 0.98076 0.73121 0.0
H5839 H 0.74989 0.97159 0.75077 0.0
C5840 C 0.71709 0.96553 0.69661 0.0
C5841 C 0.72246 0.94999 0.70051 0.0
C5842 C 0.71612 0.97745 0.70847 0.0
C5843 C 0.72039 0.97401 0.72447 0.0
C5844 C 0.72525 0.95834 0.72845 0.0
H5845 H 0.71689 0.0307 0.81323 0.0
H5846 H 0.71607 0.0085 0.79366 0.0
C5847 C 0.72644 0.94651 0.71658 0.0
C5848 C 0.71957 0.98671 0.73705 0.0
H5849 H 0.74173 0.00572 0.76602 0.0
C5850 C 0.70498 0.99493 0.73941 0.0
C5851 C 0.73305 0.99075 0.74669 0.0
C5852 C 0.74935 0.98317 0.74415 0.0
C5853 C 0.70349 0.00694 0.75122 0.0
C5854 C 0.71689 0.01077 0.76092 0.0
C5855 C 0.73143 0.00256 0.75866 0.0
C5856 C 0.71639 0.02402 0.77279 0.0
C5857 C 0.68763 0.01548 0.75331 0.0
C5858 C 0.71684 0.04 0.76748 0.0
C5859 C 0.71747 0.0526 0.77856 0.0
C5860 C 0.71758 0.04947 0.79518 0.0
C5861 C 0.71675 0.03344 0.8005 0.0
C5862 C 0.71632 0.02079 0.78936 0.0
H5863 H 0.67774 0.00944 0.74664 0.0
H5864 H 0.68437 0.01612 0.76625 0.0
H5865 H 0.68874 0.02799 0.74879 0.0
H5866 H 0.71698 0.04271 0.75473 0.0
H5867 H 0.71785 0.06482 0.7741 0.0
H5868 H 0.30632 0.98984 0.02715 0.0
H5869 H 0.28395 0.9868 0.00836 0.0
H5870 H 0.2571 0.96079 0.04426 0.0
H5871 H 0.27954 0.96386 0.0633 0.0
H5872 H 0.26679 0.95428 0.99941 0.0
H5873 H 0.22931 0.00212 0.02776 0.0
H5874 H 0.25095 0.00189 0.02982 0.0
H5875 H 0.23901 0.98737 0.04036 0.0
C5876 C 0.29564 0.98356 0.03113 0.0
C5877 C 0.29463 0.97726 0.04681 0.0
C5878 C 0.28292 0.98172 0.02032 0.0
C5879 C 0.26888 0.97366 0.02497 0.0
C5880 C 0.26785 0.9671 0.04049 0.0
H5881 H 0.17734 0.96993 0.97378 0.0
H5882 H 0.19851 0.96882 0.99415 0.0
C5883 C 0.28067 0.96882 0.05132 0.0
C5884 C 0.25523 0.97259 0.01357 0.0
H5885 H 0.2194 0.99024 0.00416 0.0
C5886 C 0.25635 0.96203 0.00047 0.0
C5887 C 0.24165 0.98266 0.01508 0.0
C5888 C 0.24003 0.99423 0.02896 0.0
C5889 C 0.2442 0.96134 0.98872 0.0
C5890 C 0.23085 0.97191 0.98985 0.0
C5891 C 0.22964 0.98222 0.0032 0.0
C5892 C 0.21805 0.97256 0.97734 0.0
C5893 C 0.24571 0.94911 0.97539 0.0
C5894 C 0.22189 0.97534 0.9611 0.0
C5895 C 0.20978 0.97586 0.94941 0.0
C5896 C 0.19356 0.97399 0.95377 0.0
C5897 C 0.1897 0.97165 0.97007 0.0
C5898 C 0.20181 0.97091 0.98172 0.0
H5899 H 0.25339 0.93881 0.97907 0.0
H5900 H 0.23376 0.94441 0.97172 0.0
H5901 H 0.25145 0.95485 0.9648 0.0
H5902 H 0.23426 0.97718 0.95745 0.0
H5903 H 0.21307 0.97782 0.93697 0.0
loop_
_geom_bond_atom_site_label_1
_geom_bond_atom_site_label_2
_geom_bond_distance
_geom_bond_site_symmetry_2
_ccdc_geom_bond_type
C0 C1 1.351 . S
C0 N3 1.368 . S
C0 H5 0.931 . S
C1 C0 1.351 . S
C1 N2 1.373 . S
C1 H29 0.930 . S
N2 C1 1.373 . S
N2 C4 1.340 . S
N3 C0 1.368 . S
N3 C4 1.321 . S
N3 Co6 2.135 . S
C4 N2 1.340 . S
C4 N3 1.321 . S
C4 H28 0.930 . S
H5 C0 0.931 . S
Co6 N3 2.135 . S
Co6 N9 2.121 . S
Co6 O14 2.055 . S
Co6 O17 2.039 . S
Co6 N20 2.140 . S
C7 O8 1.227 . S
C7 O17 1.265 . S
O8 C7 1.227 . S
N9 Co6 2.121 . S
N9 C11 1.375 . S
N9 C12 1.313 . S
C10 C11 1.338 . S
C10 N13 1.377 . S
C10 H30 0.930 . S
C11 N9 1.375 . S
C11 C10 1.338 . S
C11 H15 0.931 . S
C12 N9 1.313 . S
C12 N13 1.344 . S
C12 H16 0.930 . S
N13 C10 1.377 . S
N13 C12 1.344 . S
O14 Co6 2.055 . S
O14 C18 1.253 . S
H15 C11 0.931 . S
H16 C12 0.930 . S
O17 Co6 2.039 . S
O17 C7 1.265 . S
C18 O14 1.253 . S
C18 O19 1.227 . S
O19 C18 1.227 . S
N20 Co6 2.140 . S
N20 C23 1.346 . S
N20 C24 1.345 . S
C21 C22 1.387 . S
C21 C25 1.391 . S
C22 C21 1.387 . S
C22 C23 1.369 . S
C22 H31 0.929 . S
C23 N20 1.346 . S
C23 C22 1.369 . S
C23 H26 0.928 . S
C24 N20 1.345 . S
C24 C25 1.371 . S
C24 H27 0.931 . S
C25 C21 1.391 . S
C25 C24 1.371 . S
C25 H32 0.930 . S
H26 C23 0.928 . S
H27 C24 0.931 . S
H28 C4 0.930 . S
H29 C1 0.930 . S
H30 C10 0.930 . S
H31 C22 0.929 . S
H32 C25 0.930 . S
C33 C34 1.351 . S
C33 N36 1.368 . S
C33 H38 0.931 . S
C34 C33 1.351 . S
C34 N35 1.373 . S
C34 H62 0.930 . S
N35 C34 1.373 . S
N35 C37 1.340 . S
N36 C33 1.368 . S
N36 C37 1.321 . S
N36 Co39 2.135 . S
C37 N35 1.340 . S
C37 N36 1.321 . S
C37 H61 0.930 . S
H38 C33 0.931 . S
Co39 N36 2.135 . S
Co39 N42 2.121 . S
Co39 O47 2.055 . S
Co39 O50 2.039 . S
Co39 N53 2.140 . S
C40 O41 1.227 . S
C40 O50 1.265 . S
O41 C40 1.227 . S
N42 Co39 2.121 . S
N42 C44 1.375 . S
N42 C45 1.313 . S
C43 C44 1.338 . S
C43 N46 1.377 . S
C43 H63 0.930 . S
C44 N42 1.375 . S
C44 C43 1.338 . S
C44 H48 0.931 . S
C45 N42 1.313 . S
C45 N46 1.344 . S
C45 H49 0.930 . S
N46 C43 1.377 . S
N46 C45 1.344 . S
O47 Co39 2.055 . S
O47 C51 1.253 . S
H48 C44 0.931 . S
H49 C45 0.930 . S
O50 Co39 2.039 . S
O50 C40 1.265 . S
C51 O47 1.253 . S
C51 O52 1.227 . S
O52 C51 1.227 . S
N53 Co39 2.140 . S
N53 C56 1.346 . S
N53 C57 1.345 . S
C54 C55 1.387 . S
C54 C58 1.391 . S
C55 C54 1.387 . S
C55 C56 1.369 . S
C55 H64 0.929 . S
C56 N53 1.346 . S
C56 C55 1.369 . S
C56 H59 0.928 . S
C57 N53 1.345 . S
C57 C58 1.371 . S
C57 H60 0.931 . S
C58 C54 1.391 . S
C58 C57 1.371 . S
C58 H65 0.930 . S
H59 C56 0.928 . S
H60 C57 0.931 . S
H61 C37 0.930 . S
H62 C34 0.930 . S
H63 C43 0.930 . S
H64 C55 0.929 . S
H65 C58 0.930 . S
C66 C67 1.351 . S
C66 N69 1.368 . S
C66 H71 0.931 . S
C67 C66 1.351 . S
C67 N68 1.373 . S
C67 H95 0.930 . S
N68 C67 1.373 . S
N68 C70 1.340 . S
N69 C66 1.368 . S
N69 C70 1.321 . S
N69 Co72 2.135 . S
C70 N68 1.340 . S
C70 N69 1.321 . S
C70 H94 0.930 . S
H71 C66 0.931 . S
Co72 N69 2.135 . S
Co72 N75 2.121 . S
Co72 O80 2.055 . S
Co72 O83 2.039 . S
Co72 N86 2.140 . S
C73 O74 1.227 . S
C73 O83 1.265 . S
O74 C73 1.227 . S
N75 Co72 2.121 . S
N75 C77 1.375 . S
N75 C78 1.313 . S
C76 C77 1.338 . S
C76 N79 1.377 . S
C76 H96 0.930 . S
C77 N75 1.375 . S
C77 C76 1.338 . S
C77 H81 0.931 . S
C78 N75 1.313 . S
C78 N79 1.344 . S
C78 H82 0.930 . S
N79 C76 1.377 . S
N79 C78 1.344 . S
O80 Co72 2.055 . S
O80 C84 1.253 . S
H81 C77 0.931 . S
H82 C78 0.930 . S
O83 Co72 2.039 . S
O83 C73 1.265 . S
C84 O80 1.253 . S
C84 O85 1.227 . S
O85 C84 1.227 . S
N86 Co72 2.140 . S
N86 C89 1.346 . S
N86 C90 1.345 . S
C87 C88 1.387 . S
C87 C91 1.391 . S
C88 C87 1.387 . S
C88 C89 1.369 . S
C88 H97 0.929 . S
C89 N86 1.346 . S
C89 C88 1.369 . S
C89 H92 0.928 . S
C90 N86 1.345 . S
C90 C91 1.371 . S
C90 H93 0.931 . S
C91 C87 1.391 . S
C91 C90 1.371 . S
C91 H98 0.930 . S
H92 C89 0.928 . S
H93 C90 0.931 . S
H94 C70 0.930 . S
H95 C67 0.930 . S
H96 C76 0.930 . S
H97 C88 0.929 . S
H98 C91 0.930 . S
C99 C100 1.351 . S
C99 N102 1.368 . S
C99 H104 0.931 . S
C100 C99 1.351 . S
C100 N101 1.373 . S
C100 H128 0.930 . S
N101 C100 1.373 . S
N101 C103 1.340 . S
N102 C99 1.368 . S
N102 C103 1.321 . S
N102 Co105 2.135 . S
C103 N101 1.340 . S
C103 N102 1.321 . S
C103 H127 0.930 . S
H104 C99 0.931 . S
Co105 N102 2.135 . S
Co105 N108 2.121 . S
Co105 O113 2.055 . S
Co105 O116 2.039 . S
Co105 N119 2.140 . S
C106 O107 1.227 . S
C106 O116 1.265 . S
O107 C106 1.227 . S
N108 Co105 2.121 . S
N108 C110 1.375 . S
N108 C111 1.313 . S
C109 C110 1.338 . S
C109 N112 1.377 . S
C109 H129 0.930 . S
C110 N108 1.375 . S
C110 C109 1.338 . S
C110 H114 0.931 . S
C111 N108 1.313 . S
C111 N112 1.344 . S
C111 H115 0.930 . S
N112 C109 1.377 . S
N112 C111 1.344 . S
O113 Co105 2.055 . S
O113 C117 1.253 . S
H114 C110 0.931 . S
H115 C111 0.930 . S
O116 Co105 2.039 . S
O116 C106 1.265 . S
C117 O113 1.253 . S
C117 O118 1.227 . S
O118 C117 1.227 . S
N119 Co105 2.140 . S
N119 C122 1.346 . S
N119 C123 1.345 . S
C120 C121 1.387 . S
C120 C124 1.391 . S
C121 C120 1.387 . S
C121 C122 1.369 . S
C121 H130 0.929 . S
C122 N119 1.346 . S
C122 C121 1.369 . S
C122 H125 0.928 . S
C123 N119 1.345 . S
C123 C124 1.371 . S
C123 H126 0.931 . S
C124 C120 1.391 . S
C124 C123 1.371 . S
C124 H131 0.930 . S
H125 C122 0.928 . S
H126 C123 0.931 . S
H127 C103 0.930 . S
H128 C100 0.930 . S
H129 C109 0.930 . S
H130 C121 0.929 . S
H131 C124 0.930 . S
C132 C133 1.351 . S
C132 N135 1.368 . S
C132 H137 0.931 . S
C133 C132 1.351 . S
C133 N134 1.373 . S
C133 H161 0.930 . S
N134 C133 1.373 . S
N134 C136 1.340 . S
N135 C132 1.368 . S
N135 C136 1.321 . S
N135 Co138 2.135 . S
C136 N134 1.340 . S
C136 N135 1.321 . S
C136 H160 0.930 . S
H137 C132 0.931 . S
Co138 N135 2.135 . S
Co138 N141 2.121 . S
Co138 O146 2.055 . S
Co138 O149 2.039 . S
Co138 N152 2.140 . S
C139 O140 1.227 . S
C139 O149 1.265 . S
O140 C139 1.227 . S
N141 Co138 2.121 . S
N141 C143 1.375 . S
N141 C144 1.313 . S
C142 C143 1.338 . S
C142 N145 1.377 . S
C142 H162 0.930 . S
C143 N141 1.375 . S
C143 C142 1.338 . S
C143 H147 0.931 . S
C144 N141 1.313 . S
C144 N145 1.344 . S
C144 H148 0.930 . S
N145 C142 1.377 . S
N145 C144 1.344 . S
O146 Co138 2.055 . S
O146 C150 1.253 . S
H147 C143 0.931 . S
H148 C144 0.930 . S
O149 Co138 2.039 . S
O149 C139 1.265 . S
C150 O146 1.253 . S
C150 O151 1.227 . S
O151 C150 1.227 . S
N152 Co138 2.140 . S
N152 C155 1.346 . S
N152 C156 1.345 . S
C153 C154 1.387 . S
C153 C157 1.391 . S
C154 C153 1.387 . S
C154 C155 1.369 . S
C154 H163 0.929 . S
C155 N152 1.346 . S
C155 C154 1.369 . S
C155 H158 0.928 . S
C156 N152 1.345 . S
C156 C157 1.371 . S
C156 H159 0.931 . S
C157 C153 1.391 . S
C157 C156 1.371 . S
C157 H164 0.930 . S
H158 C155 0.928 . S
H159 C156 0.931 . S
H160 C136 0.930 . S
H161 C133 0.930 . S
H162 C142 0.930 . S
H163 C154 0.929 . S
H164 C157 0.930 . S
C165 C166 1.351 . S
C165 N168 1.368 . S
C165 H170 0.931 . S
C166 C165 1.351 . S
C166 N167 1.373 . S
C166 H194 0.930 . S
N167 C166 1.373 . S
N167 C169 1.340 . S
N168 C165 1.368 . S
N168 C169 1.321 . S
N168 Co171 2.135 . S
C169 N167 1.340 . S
C169 N168 1.321 . S
C169 H193 0.930 . S
H170 C165 0.931 . S
Co171 N168 2.135 . S
Co171 N174 2.121 . S
Co171 O179 2.055 . S
Co171 O182 2.039 . S
Co171 N185 2.140 . S
C172 O173 1.227 . S
C172 O182 1.265 . S
O173 C172 1.227 . S
N174 Co171 2.121 . S
N174 C176 1.375 . S
N174 C177 1.313 . S
C175 C176 1.338 . S
C175 N178 1.377 . S
C175 H195 0.930 . S
C176 N174 1.375 . S
C176 C175 1.338 . S
C176 H180 0.931 . S
C177 N174 1.313 . S
C177 N178 1.344 . S
C177 H181 0.930 . S
N178 C175 1.377 . S
N178 C177 1.344 . S
O179 Co171 2.055 . S
O179 C183 1.253 . S
H180 C176 0.931 . S
H181 C177 0.930 . S
O182 Co171 2.039 . S
O182 C172 1.265 . S
C183 O179 1.253 . S
C183 O184 1.227 . S
O184 C183 1.227 . S
N185 Co171 2.140 . S
N185 C188 1.346 . S
N185 C189 1.345 . S
C186 C187 1.387 . S
C186 C190 1.391 . S
C187 C186 1.387 . S
C187 C188 1.369 . S
C187 H196 0.929 . S
C188 N185 1.346 . S
C188 C187 1.369 . S
C188 H191 0.928 . S
C189 N185 1.345 . S
C189 C190 1.371 . S
C189 H192 0.931 . S
C190 C186 1.391 . S
C190 C189 1.371 . S
C190 H197 0.930 . S
H191 C188 0.928 . S
H192 C189 0.931 . S
H193 C169 0.930 . S
H194 C166 0.930 . S
H195 C175 0.930 . S
H196 C187 0.929 . S
H197 C190 0.930 . S
C198 C199 1.351 . S
C198 N201 1.368 . S
C198 H203 0.931 . S
C199 C198 1.351 . S
C199 N200 1.373 . S
C199 H227 0.930 . S
N200 C199 1.373 . S
N200 C202 1.340 . S
N201 C198 1.368 . S
N201 C202 1.321 . S
N201 Co204 2.135 . S
C202 N200 1.340 . S
C202 N201 1.321 . S
C202 H226 0.930 . S
H203 C198 0.931 . S
Co204 N201 2.135 . S
Co204 N207 2.121 . S
Co204 O212 2.055 . S
Co204 O215 2.039 . S
Co204 N218 2.140 . S
C205 O206 1.227 . S
C205 O215 1.265 . S
O206 C205 1.227 . S
N207 Co204 2.121 . S
N207 C209 1.375 . S
N207 C210 1.313 . S
C208 C209 1.338 . S
C208 N211 1.377 . S
C208 H228 0.930 . S
C209 N207 1.375 . S
C209 C208 1.338 . S
C209 H213 0.931 . S
C210 N207 1.313 . S
C210 N211 1.344 . S
C210 H214 0.930 . S
N211 C208 1.377 . S
N211 C210 1.344 . S
O212 Co204 2.055 . S
O212 C216 1.253 . S
H213 C209 0.931 . S
H214 C210 0.930 . S
O215 Co204 2.039 . S
O215 C205 1.265 . S
C216 O212 1.253 . S
C216 O217 1.227 . S
O217 C216 1.227 . S
N218 Co204 2.140 . S
N218 C221 1.346 . S
N218 C222 1.345 . S
C219 C220 1.387 . S
C219 C223 1.391 . S
C220 C219 1.387 . S
C220 C221 1.369 . S
C220 H229 0.929 . S
C221 N218 1.346 . S
C221 C220 1.369 . S
C221 H224 0.928 . S
C222 N218 1.345 . S
C222 C223 1.371 . S
C222 H225 0.931 . S
C223 C219 1.391 . S
C223 C222 1.371 . S
C223 H230 0.930 . S
H224 C221 0.928 . S
H225 C222 0.931 . S
H226 C202 0.930 . S
H227 C199 0.930 . S
H228 C208 0.930 . S
H229 C220 0.929 . S
H230 C223 0.930 . S
C231 C232 1.351 . S
C231 N234 1.368 . S
C231 H236 0.931 . S
C232 C231 1.351 . S
C232 N233 1.373 . S
C232 H260 0.930 . S
N233 C232 1.373 . S
N233 C235 1.340 . S
N234 C231 1.368 . S
N234 C235 1.321 . S
N234 Co237 2.135 . S
C235 N233 1.340 . S
C235 N234 1.321 . S
C235 H259 0.930 . S
H236 C231 0.931 . S
Co237 N234 2.135 . S
Co237 N240 2.121 . S
Co237 O245 2.055 . S
Co237 O248 2.039 . S
Co237 N251 2.140 . S
C238 O239 1.227 . S
C238 O248 1.265 . S
O239 C238 1.227 . S
N240 Co237 2.121 . S
N240 C242 1.375 . S
N240 C243 1.313 . S
C241 C242 1.338 . S
C241 N244 1.377 . S
C241 H261 0.930 . S
C242 N240 1.375 . S
C242 C241 1.338 . S
C242 H246 0.931 . S
C243 N240 1.313 . S
C243 N244 1.344 . S
C243 H247 0.930 . S
N244 C241 1.377 . S
N244 C243 1.344 . S
O245 Co237 2.055 . S
O245 C249 1.253 . S
H246 C242 0.931 . S
H247 C243 0.930 . S
O248 Co237 2.039 . S
O248 C238 1.265 . S
C249 O245 1.253 . S
C249 O250 1.227 . S
O250 C249 1.227 . S
N251 Co237 2.140 . S
N251 C254 1.346 . S
N251 C255 1.345 . S
C252 C253 1.387 . S
C252 C256 1.391 . S
C253 C252 1.387 . S
C253 C254 1.369 . S
C253 H262 0.929 . S
C254 N251 1.346 . S
C254 C253 1.369 . S
C254 H257 0.928 . S
C255 N251 1.345 . S
C255 C256 1.371 . S
C255 H258 0.931 . S
C256 C252 1.391 . S
C256 C255 1.371 . S
C256 H263 0.930 . S
H257 C254 0.928 . S
H258 C255 0.931 . S
H259 C235 0.930 . S
H260 C232 0.930 . S
H261 C241 0.930 . S
H262 C253 0.929 . S
H263 C256 0.930 . S
C264 C265 1.351 . S
C264 N267 1.368 . S
C264 H269 0.931 . S
C265 C264 1.351 . S
C265 N266 1.373 . S
C265 H293 0.930 . S
N266 C265 1.373 . S
N266 C268 1.340 . S
N267 C264 1.368 . S
N267 C268 1.321 . S
N267 Co270 2.135 . S
C268 N266 1.340 . S
C268 N267 1.321 . S
C268 H292 0.930 . S
H269 C264 0.931 . S
Co270 N267 2.135 . S
Co270 N273 2.121 . S
Co270 O278 2.055 . S
Co270 O281 2.039 . S
Co270 N284 2.140 . S
C271 O272 1.227 . S
C271 O281 1.265 . S
O272 C271 1.227 . S
N273 Co270 2.121 . S
N273 C275 1.375 . S
N273 C276 1.313 . S
C274 C275 1.338 . S
C274 N277 1.377 . S
C274 H294 0.930 . S
C275 N273 1.375 . S
C275 C274 1.338 . S
C275 H279 0.931 . S
C276 N273 1.313 . S
C276 N277 1.344 . S
C276 H280 0.930 . S
N277 C274 1.377 . S
N277 C276 1.344 . S
O278 Co270 2.055 . S
O278 C282 1.253 . S
H279 C275 0.931 . S
H280 C276 0.930 . S
O281 Co270 2.039 . S
O281 C271 1.265 . S
C282 O278 1.253 . S
C282 O283 1.227 . S
O283 C282 1.227 . S
N284 Co270 2.140 . S
N284 C287 1.346 . S
N284 C288 1.345 . S
C285 C286 1.387 . S
C285 C289 1.391 . S
C286 C285 1.387 . S
C286 C287 1.369 . S
C286 H295 0.929 . S
C287 N284 1.346 . S
C287 C286 1.369 . S
C287 H290 0.928 . S
C288 N284 1.345 . S
C288 C289 1.371 . S
C288 H291 0.931 . S
C289 C285 1.391 . S
C289 C288 1.371 . S
C289 H296 0.930 . S
H290 C287 0.928 . S
H291 C288 0.931 . S
H292 C268 0.930 . S
H293 C265 0.930 . S
H294 C274 0.930 . S
H295 C286 0.929 . S
H296 C289 0.930 . S
C297 C298 1.351 . S
C297 N300 1.368 . S
C297 H302 0.931 . S
C298 C297 1.351 . S
C298 N299 1.373 . S
C298 H326 0.930 . S
N299 C298 1.373 . S
N299 C301 1.340 . S
N300 C297 1.368 . S
N300 C301 1.321 . S
N300 Co303 2.135 . S
C301 N299 1.340 . S
C301 N300 1.321 . S
C301 H325 0.930 . S
H302 C297 0.931 . S
Co303 N300 2.135 . S
Co303 N306 2.121 . S
Co303 O311 2.055 . S
Co303 O314 2.039 . S
Co303 N317 2.140 . S
C304 O305 1.227 . S
C304 O314 1.265 . S
O305 C304 1.227 . S
N306 Co303 2.121 . S
N306 C308 1.375 . S
N306 C309 1.313 . S
C307 C308 1.338 . S
C307 N310 1.377 . S
C307 H327 0.930 . S
C308 N306 1.375 . S
C308 C307 1.338 . S
C308 H312 0.931 . S
C309 N306 1.313 . S
C309 N310 1.344 . S
C309 H313 0.930 . S
N310 C307 1.377 . S
N310 C309 1.344 . S
O311 Co303 2.055 . S
O311 C315 1.253 . S
H312 C308 0.931 . S
H313 C309 0.930 . S
O314 Co303 2.039 . S
O314 C304 1.265 . S
C315 O311 1.253 . S
C315 O316 1.227 . S
O316 C315 1.227 . S
N317 Co303 2.140 . S
N317 C320 1.346 . S
N317 C321 1.345 . S
C318 C319 1.387 . S
C318 C322 1.391 . S
C319 C318 1.387 . S
C319 C320 1.369 . S
C319 H328 0.929 . S
C320 N317 1.346 . S
C320 C319 1.369 . S
C320 H323 0.928 . S
C321 N317 1.345 . S
C321 C322 1.371 . S
C321 H324 0.931 . S
C322 C318 1.391 . S
C322 C321 1.371 . S
C322 H329 0.930 . S
H323 C320 0.928 . S
H324 C321 0.931 . S
H325 C301 0.930 . S
H326 C298 0.930 . S
H327 C307 0.930 . S
H328 C319 0.929 . S
H329 C322 0.930 . S
C330 C331 1.351 . S
C330 N333 1.368 . S
C330 H335 0.931 . S
C331 C330 1.351 . S
C331 N332 1.373 . S
C331 H359 0.930 . S
N332 C331 1.373 . S
N332 C334 1.340 . S
N333 C330 1.368 . S
N333 C334 1.321 . S
N333 Co336 2.135 . S
C334 N332 1.340 . S
C334 N333 1.321 . S
C334 H358 0.930 . S
H335 C330 0.931 . S
Co336 N333 2.135 . S
Co336 N339 2.121 . S
Co336 O344 2.055 . S
Co336 O347 2.039 . S
Co336 N350 2.140 . S
C337 O338 1.227 . S
C337 O347 1.265 . S
O338 C337 1.227 . S
N339 Co336 2.121 . S
N339 C341 1.375 . S
N339 C342 1.313 . S
C340 C341 1.338 . S
C340 N343 1.377 . S
C340 H360 0.930 . S
C341 N339 1.375 . S
C341 C340 1.338 . S
C341 H345 0.931 . S
C342 N339 1.313 . S
C342 N343 1.344 . S
C342 H346 0.930 . S
N343 C340 1.377 . S
N343 C342 1.344 . S
O344 Co336 2.055 . S
O344 C348 1.253 . S
H345 C341 0.931 . S
H346 C342 0.930 . S
O347 Co336 2.039 . S
O347 C337 1.265 . S
C348 O344 1.253 . S
C348 O349 1.227 . S
O349 C348 1.227 . S
N350 Co336 2.140 . S
N350 C353 1.346 . S
N350 C354 1.345 . S
C351 C352 1.387 . S
C351 C355 1.391 . S
C352 C351 1.387 . S
C352 C353 1.369 . S
C352 H361 0.929 . S
C353 N350 1.346 . S
C353 C352 1.369 . S
C353 H356 0.928 . S
C354 N350 1.345 . S
C354 C355 1.371 . S
C354 H357 0.931 . S
C355 C351 1.391 . S
C355 C354 1.371 . S
C355 H362 0.930 . S
H356 C353 0.928 . S
H357 C354 0.931 . S
H358 C334 0.930 . S
H359 C331 0.930 . S
H360 C340 0.930 . S
H361 C352 0.929 . S
H362 C355 0.930 . S
C363 C364 1.351 . S
C363 N366 1.368 . S
C363 H368 0.931 . S
C364 C363 1.351 . S
C364 N365 1.373 . S
C364 H392 0.930 . S
N365 C364 1.373 . S
N365 C367 1.340 . S
N366 C363 1.368 . S
N366 C367 1.321 . S
N366 Co369 2.135 . S
C367 N365 1.340 . S
C367 N366 1.321 . S
C367 H391 0.930 . S
H368 C363 0.931 . S
Co369 N366 2.135 . S
Co369 N372 2.121 . S
Co369 O377 2.055 . S
Co369 O380 2.039 . S
Co369 N383 2.140 . S
C370 O371 1.227 . S
C370 O380 1.265 . S
O371 C370 1.227 . S
N372 Co369 2.121 . S
N372 C374 1.375 . S
N372 C375 1.313 . S
C373 C374 1.338 . S
C373 N376 1.377 . S
C373 H393 0.930 . S
C374 N372 1.375 . S
C374 C373 1.338 . S
C374 H378 0.931 . S
C375 N372 1.313 . S
C375 N376 1.344 . S
C375 H379 0.930 . S
N376 C373 1.377 . S
N376 C375 1.344 . S
O377 Co369 2.055 . S
O377 C381 1.253 . S
H378 C374 0.931 . S
H379 C375 0.930 . S
O380 Co369 2.039 . S
O380 C370 1.265 . S
C381 O377 1.253 . S
C381 O382 1.227 . S
O382 C381 1.227 . S
N383 Co369 2.140 . S
N383 C386 1.346 . S
N383 C387 1.345 . S
C384 C385 1.387 . S
C384 C388 1.391 . S
C385 C384 1.387 . S
C385 C386 1.369 . S
C385 H394 0.929 . S
C386 N383 1.346 . S
C386 C385 1.369 . S
C386 H389 0.928 . S
C387 N383 1.345 . S
C387 C388 1.371 . S
C387 H390 0.931 . S
C388 C384 1.391 . S
C388 C387 1.371 . S
C388 H395 0.930 . S
H389 C386 0.928 . S
H390 C387 0.931 . S
H391 C367 0.930 . S
H392 C364 0.930 . S
H393 C373 0.930 . S
H394 C385 0.929 . S
H395 C388 0.930 . S
C396 C397 1.351 . S
C396 N399 1.368 . S
C396 H401 0.931 . S
C397 C396 1.351 . S
C397 N398 1.373 . S
C397 H425 0.930 . S
N398 C397 1.373 . S
N398 C400 1.340 . S
N399 C396 1.368 . S
N399 C400 1.321 . S
N399 Co402 2.135 . S
C400 N398 1.340 . S
C400 N399 1.321 . S
C400 H424 0.930 . S
H401 C396 0.931 . S
Co402 N399 2.135 . S
Co402 N405 2.121 . S
Co402 O410 2.055 . S
Co402 O413 2.039 . S
Co402 N416 2.140 . S
C403 O404 1.227 . S
C403 O413 1.265 . S
O404 C403 1.227 . S
N405 Co402 2.121 . S
N405 C407 1.375 . S
N405 C408 1.313 . S
C406 C407 1.338 . S
C406 N409 1.377 . S
C406 H426 0.930 . S
C407 N405 1.375 . S
C407 C406 1.338 . S
C407 H411 0.931 . S
C408 N405 1.313 . S
C408 N409 1.344 . S
C408 H412 0.930 . S
N409 C406 1.377 . S
N409 C408 1.344 . S
O410 Co402 2.055 . S
O410 C414 1.253 . S
H411 C407 0.931 . S
H412 C408 0.930 . S
O413 Co402 2.039 . S
O413 C403 1.265 . S
C414 O410 1.253 . S
C414 O415 1.227 . S
O415 C414 1.227 . S
N416 Co402 2.140 . S
N416 C419 1.346 . S
N416 C420 1.345 . S
C417 C418 1.387 . S
C417 C421 1.391 . S
C418 C417 1.387 . S
C418 C419 1.369 . S
C418 H427 0.929 . S
C419 N416 1.346 . S
C419 C418 1.369 . S
C419 H422 0.928 . S
C420 N416 1.345 . S
C420 C421 1.371 . S
C420 H423 0.931 . S
C421 C417 1.391 . S
C421 C420 1.371 . S
C421 H428 0.930 . S
H422 C419 0.928 . S
H423 C420 0.931 . S
H424 C400 0.930 . S
H425 C397 0.930 . S
H426 C406 0.930 . S
H427 C418 0.929 . S
H428 C421 0.930 . S
C429 C430 1.351 . S
C429 N432 1.368 . S
C429 H434 0.931 . S
C430 C429 1.351 . S
C430 N431 1.373 . S
C430 H458 0.930 . S
N431 C430 1.373 . S
N431 C433 1.340 . S
N432 C429 1.368 . S
N432 C433 1.321 . S
N432 Co435 2.135 . S
C433 N431 1.340 . S
C433 N432 1.321 . S
C433 H457 0.930 . S
H434 C429 0.931 . S
Co435 N432 2.135 . S
Co435 N438 2.121 . S
Co435 O443 2.055 . S
Co435 O446 2.039 . S
Co435 N449 2.140 . S
C436 O437 1.227 . S
C436 O446 1.265 . S
O437 C436 1.227 . S
N438 Co435 2.121 . S
N438 C440 1.375 . S
N438 C441 1.313 . S
C439 C440 1.338 . S
C439 N442 1.377 . S
C439 H459 0.930 . S
C440 N438 1.375 . S
C440 C439 1.338 . S
C440 H444 0.931 . S
C441 N438 1.313 . S
C441 N442 1.344 . S
C441 H445 0.930 . S
N442 C439 1.377 . S
N442 C441 1.344 . S
O443 Co435 2.055 . S
O443 C447 1.253 . S
H444 C440 0.931 . S
H445 C441 0.930 . S
O446 Co435 2.039 . S
O446 C436 1.265 . S
C447 O443 1.253 . S
C447 O448 1.227 . S
O448 C447 1.227 . S
N449 Co435 2.140 . S
N449 C452 1.346 . S
N449 C453 1.345 . S
C450 C451 1.387 . S
C450 C454 1.391 . S
C451 C450 1.387 . S
C451 C452 1.369 . S
C451 H460 0.929 . S
C452 N449 1.346 . S
C452 C451 1.369 . S
C452 H455 0.928 . S
C453 N449 1.345 . S
C453 C454 1.371 . S
C453 H456 0.931 . S
C454 C450 1.391 . S
C454 C453 1.371 . S
C454 H461 0.930 . S
H455 C452 0.928 . S
H456 C453 0.931 . S
H457 C433 0.930 . S
H458 C430 0.930 . S
H459 C439 0.930 . S
H460 C451 0.929 . S
H461 C454 0.930 . S
C462 C463 1.351 . S
C462 N465 1.368 . S
C462 H467 0.931 . S
C463 C462 1.351 . S
C463 N464 1.373 . S
C463 H491 0.930 . S
N464 C463 1.373 . S
N464 C466 1.340 . S
N465 C462 1.368 . S
N465 C466 1.321 . S
N465 Co468 2.135 . S
C466 N464 1.340 . S
C466 N465 1.321 . S
C466 H490 0.930 . S
H467 C462 0.931 . S
Co468 N465 2.135 . S
Co468 N471 2.121 . S
Co468 O476 2.055 . S
Co468 O479 2.039 . S
Co468 N482 2.140 . S
C469 O470 1.227 . S
C469 O479 1.265 . S
O470 C469 1.227 . S
N471 Co468 2.121 . S
N471 C473 1.375 . S
N471 C474 1.313 . S
C472 C473 1.338 . S
C472 N475 1.377 . S
C472 H492 0.930 . S
C473 N471 1.375 . S
C473 C472 1.338 . S
C473 H477 0.931 . S
C474 N471 1.313 . S
C474 N475 1.344 . S
C474 H478 0.930 . S
N475 C472 1.377 . S
N475 C474 1.344 . S
O476 Co468 2.055 . S
O476 C480 1.253 . S
H477 C473 0.931 . S
H478 C474 0.930 . S
O479 Co468 2.039 . S
O479 C469 1.265 . S
C480 O476 1.253 . S
C480 O481 1.227 . S
O481 C480 1.227 . S
N482 Co468 2.140 . S
N482 C485 1.346 . S
N482 C486 1.345 . S
C483 C484 1.387 . S
C483 C487 1.391 . S
C484 C483 1.387 . S
C484 C485 1.369 . S
C484 H493 0.929 . S
C485 N482 1.346 . S
C485 C484 1.369 . S
C485 H488 0.928 . S
C486 N482 1.345 . S
C486 C487 1.371 . S
C486 H489 0.931 . S
C487 C483 1.391 . S
C487 C486 1.371 . S
C487 H494 0.930 . S
H488 C485 0.928 . S
H489 C486 0.931 . S
H490 C466 0.930 . S
H491 C463 0.930 . S
H492 C472 0.930 . S
H493 C484 0.929 . S
H494 C487 0.930 . S
C495 C496 1.351 . S
C495 N498 1.368 . S
C495 H500 0.931 . S
C496 C495 1.351 . S
C496 N497 1.373 . S
C496 H524 0.930 . S
N497 C496 1.373 . S
N497 C499 1.340 . S
N498 C495 1.368 . S
N498 C499 1.321 . S
N498 Co501 2.135 . S
C499 N497 1.340 . S
C499 N498 1.321 . S
C499 H523 0.930 . S
H500 C495 0.931 . S
Co501 N498 2.135 . S
Co501 N504 2.121 . S
Co501 O509 2.055 . S
Co501 O512 2.039 . S
Co501 N515 2.140 . S
C502 O503 1.227 . S
C502 O512 1.265 . S
O503 C502 1.227 . S
N504 Co501 2.121 . S
N504 C506 1.375 . S
N504 C507 1.313 . S
C505 C506 1.338 . S
C505 N508 1.377 . S
C505 H525 0.930 . S
C506 N504 1.375 . S
C506 C505 1.338 . S
C506 H510 0.931 . S
C507 N504 1.313 . S
C507 N508 1.344 . S
C507 H511 0.930 . S
N508 C505 1.377 . S
N508 C507 1.344 . S
O509 Co501 2.055 . S
O509 C513 1.253 . S
H510 C506 0.931 . S
H511 C507 0.930 . S
O512 Co501 2.039 . S
O512 C502 1.265 . S
C513 O509 1.253 . S
C513 O514 1.227 . S
O514 C513 1.227 . S
N515 Co501 2.140 . S
N515 C518 1.346 . S
N515 C519 1.345 . S
C516 C517 1.387 . S
C516 C520 1.391 . S
C517 C516 1.387 . S
C517 C518 1.369 . S
C517 H526 0.929 . S
C518 N515 1.346 . S
C518 C517 1.369 . S
C518 H521 0.928 . S
C519 N515 1.345 . S
C519 C520 1.371 . S
C519 H522 0.931 . S
C520 C516 1.391 . S
C520 C519 1.371 . S
C520 H527 0.930 . S
H521 C518 0.928 . S
H522 C519 0.931 . S
H523 C499 0.930 . S
H524 C496 0.930 . S
H525 C505 0.930 . S
H526 C517 0.929 . S
H527 C520 0.930 . S
C528 C529 1.351 . S
C528 N531 1.368 . S
C528 H533 0.931 . S
C529 C528 1.351 . S
C529 N530 1.373 . S
C529 H557 0.930 . S
N530 C529 1.373 . S
N530 C532 1.340 . S
N531 C528 1.368 . S
N531 C532 1.321 . S
N531 Co534 2.135 . S
C532 N530 1.340 . S
C532 N531 1.321 . S
C532 H556 0.930 . S
H533 C528 0.931 . S
Co534 N531 2.135 . S
Co534 N537 2.121 . S
Co534 O542 2.055 . S
Co534 O545 2.039 . S
Co534 N548 2.140 . S
C535 O536 1.227 . S
C535 O545 1.265 . S
O536 C535 1.227 . S
N537 Co534 2.121 . S
N537 C539 1.375 . S
N537 C540 1.313 . S
C538 C539 1.338 . S
C538 N541 1.377 . S
C538 H558 0.930 . S
C539 N537 1.375 . S
C539 C538 1.338 . S
C539 H543 0.931 . S
C540 N537 1.313 . S
C540 N541 1.344 . S
C540 H544 0.930 . S
N541 C538 1.377 . S
N541 C540 1.344 . S
O542 Co534 2.055 . S
O542 C546 1.253 . S
H543 C539 0.931 . S
H544 C540 0.930 . S
O545 Co534 2.039 . S
O545 C535 1.265 . S
C546 O542 1.253 . S
C546 O547 1.227 . S
O547 C546 1.227 . S
N548 Co534 2.140 . S
N548 C551 1.346 . S
N548 C552 1.345 . S
C549 C550 1.387 . S
C549 C553 1.391 . S
C550 C549 1.387 . S
C550 C551 1.369 . S
C550 H559 0.929 . S
C551 N548 1.346 . S
C551 C550 1.369 . S
C551 H554 0.928 . S
C552 N548 1.345 . S
C552 C553 1.371 . S
C552 H555 0.931 . S
C553 C549 1.391 . S
C553 C552 1.371 . S
C553 H560 0.930 . S
H554 C551 0.928 . S
H555 C552 0.931 . S
H556 C532 0.930 . S
H557 C529 0.930 . S
H558 C538 0.930 . S
H559 C550 0.929 . S
H560 C553 0.930 . S
C561 C562 1.351 . S
C561 N564 1.368 . S
C561 H566 0.931 . S
C562 C561 1.351 . S
C562 N563 1.373 . S
C562 H590 0.930 . S
N563 C562 1.373 . S
N563 C565 1.340 . S
N564 C561 1.368 . S
N564 C565 1.321 . S
N564 Co567 2.135 . S
C565 N563 1.340 . S
C565 N564 1.321 . S
C565 H589 0.930 . S
H566 C561 0.931 . S
Co567 N564 2.135 . S
Co567 N570 2.121 . S
Co567 O575 2.055 . S
Co567 O578 2.039 . S
Co567 N581 2.140 . S
C568 O569 1.227 . S
C568 O578 1.265 . S
O569 C568 1.227 . S
N570 Co567 2.121 . S
N570 C572 1.375 . S
N570 C573 1.313 . S
C571 C572 1.338 . S
C571 N574 1.377 . S
C571 H591 0.930 . S
C572 N570 1.375 . S
C572 C571 1.338 . S
C572 H576 0.931 . S
C573 N570 1.313 . S
C573 N574 1.344 . S
C573 H577 0.930 . S
N574 C571 1.377 . S
N574 C573 1.344 . S
O575 Co567 2.055 . S
O575 C579 1.253 . S
H576 C572 0.931 . S
H577 C573 0.930 . S
O578 Co567 2.039 . S
O578 C568 1.265 . S
C579 O575 1.253 . S
C579 O580 1.227 . S
O580 C579 1.227 . S
N581 Co567 2.140 . S
N581 C584 1.346 . S
N581 C585 1.345 . S
C582 C583 1.387 . S
C582 C586 1.391 . S
C583 C582 1.387 . S
C583 C584 1.369 . S
C583 H592 0.929 . S
C584 N581 1.346 . S
C584 C583 1.369 . S
C584 H587 0.928 . S
C585 N581 1.345 . S
C585 C586 1.371 . S
C585 H588 0.931 . S
C586 C582 1.391 . S
C586 C585 1.371 . S
C586 H593 0.930 . S
H587 C584 0.928 . S
H588 C585 0.931 . S
H589 C565 0.930 . S
H590 C562 0.930 . S
H591 C571 0.930 . S
H592 C583 0.929 . S
H593 C586 0.930 . S
C594 C595 1.351 . S
C594 N597 1.368 . S
C594 H599 0.931 . S
C595 C594 1.351 . S
C595 N596 1.373 . S
C595 H623 0.930 . S
N596 C595 1.373 . S
N596 C598 1.340 . S
N597 C594 1.368 . S
N597 C598 1.321 . S
N597 Co600 2.135 . S
C598 N596 1.340 . S
C598 N597 1.321 . S
C598 H622 0.930 . S
H599 C594 0.931 . S
Co600 N597 2.135 . S
Co600 N603 2.121 . S
Co600 O608 2.055 . S
Co600 O611 2.039 . S
Co600 N614 2.140 . S
C601 O602 1.227 . S
C601 O611 1.265 . S
O602 C601 1.227 . S
N603 Co600 2.121 . S
N603 C605 1.375 . S
N603 C606 1.313 . S
C604 C605 1.338 . S
C604 N607 1.377 . S
C604 H624 0.930 . S
C605 N603 1.375 . S
C605 C604 1.338 . S
C605 H609 0.931 . S
C606 N603 1.313 . S
C606 N607 1.344 . S
C606 H610 0.930 . S
N607 C604 1.377 . S
N607 C606 1.344 . S
O608 Co600 2.055 . S
O608 C612 1.253 . S
H609 C605 0.931 . S
H610 C606 0.930 . S
O611 Co600 2.039 . S
O611 C601 1.265 . S
C612 O608 1.253 . S
C612 O613 1.227 . S
O613 C612 1.227 . S
N614 Co600 2.140 . S
N614 C617 1.346 . S
N614 C618 1.345 . S
C615 C616 1.387 . S
C615 C619 1.391 . S
C616 C615 1.387 . S
C616 C617 1.369 . S
C616 H625 0.929 . S
C617 N614 1.346 . S
C617 C616 1.369 . S
C617 H620 0.928 . S
C618 N614 1.345 . S
C618 C619 1.371 . S
C618 H621 0.931 . S
C619 C615 1.391 . S
C619 C618 1.371 . S
C619 H626 0.930 . S
H620 C617 0.928 . S
H621 C618 0.931 . S
H622 C598 0.930 . S
H623 C595 0.930 . S
H624 C604 0.930 . S
H625 C616 0.929 . S
H626 C619 0.930 . S
C627 C628 1.351 . S
C627 N630 1.368 . S
C627 H632 0.931 . S
C628 C627 1.351 . S
C628 N629 1.373 . S
C628 H656 0.930 . S
N629 C628 1.373 . S
N629 C631 1.340 . S
N630 C627 1.368 . S
N630 C631 1.321 . S
N630 Co633 2.135 . S
C631 N629 1.340 . S
C631 N630 1.321 . S
C631 H655 0.930 . S
H632 C627 0.931 . S
Co633 N630 2.135 . S
Co633 N636 2.121 . S
Co633 O641 2.055 . S
Co633 O644 2.039 . S
Co633 N647 2.140 . S
C634 O635 1.227 . S
C634 O644 1.265 . S
O635 C634 1.227 . S
N636 Co633 2.121 . S
N636 C638 1.375 . S
N636 C639 1.313 . S
C637 C638 1.338 . S
C637 N640 1.377 . S
C637 H657 0.930 . S
C638 N636 1.375 . S
C638 C637 1.338 . S
C638 H642 0.931 . S
C639 N636 1.313 . S
C639 N640 1.344 . S
C639 H643 0.930 . S
N640 C637 1.377 . S
N640 C639 1.344 . S
O641 Co633 2.055 . S
O641 C645 1.253 . S
H642 C638 0.931 . S
H643 C639 0.930 . S
O644 Co633 2.039 . S
O644 C634 1.265 . S
C645 O641 1.253 . S
C645 O646 1.227 . S
O646 C645 1.227 . S
N647 Co633 2.140 . S
N647 C650 1.346 . S
N647 C651 1.345 . S
C648 C649 1.387 . S
C648 C652 1.391 . S
C649 C648 1.387 . S
C649 C650 1.369 . S
C649 H658 0.929 . S
C650 N647 1.346 . S
C650 C649 1.369 . S
C650 H653 0.928 . S
C651 N647 1.345 . S
C651 C652 1.371 . S
C651 H654 0.931 . S
C652 C648 1.391 . S
C652 C651 1.371 . S
C652 H659 0.930 . S
H653 C650 0.928 . S
H654 C651 0.931 . S
H655 C631 0.930 . S
H656 C628 0.930 . S
H657 C637 0.930 . S
H658 C649 0.929 . S
H659 C652 0.930 . S
C660 C661 1.351 . S
C660 N663 1.368 . S
C660 H665 0.931 . S
C661 C660 1.351 . S
C661 N662 1.373 . S
C661 H689 0.930 . S
N662 C661 1.373 . S
N662 C664 1.340 . S
N663 C660 1.368 . S
N663 C664 1.321 . S
N663 Co666 2.135 . S
C664 N662 1.340 . S
C664 N663 1.321 . S
C664 H688 0.930 . S
H665 C660 0.931 . S
Co666 N663 2.135 . S
Co666 N669 2.121 . S
Co666 O674 2.055 . S
Co666 O677 2.039 . S
Co666 N680 2.140 . S
C667 O668 1.227 . S
C667 O677 1.265 . S
O668 C667 1.227 . S
N669 Co666 2.121 . S
N669 C671 1.375 . S
N669 C672 1.313 . S
C670 C671 1.338 . S
C670 N673 1.377 . S
C670 H690 0.930 . S
C671 N669 1.375 . S
C671 C670 1.338 . S
C671 H675 0.931 . S
C672 N669 1.313 . S
C672 N673 1.344 . S
C672 H676 0.930 . S
N673 C670 1.377 . S
N673 C672 1.344 . S
O674 Co666 2.055 . S
O674 C678 1.253 . S
H675 C671 0.931 . S
H676 C672 0.930 . S
O677 Co666 2.039 . S
O677 C667 1.265 . S
C678 O674 1.253 . S
C678 O679 1.227 . S
O679 C678 1.227 . S
N680 Co666 2.140 . S
N680 C683 1.346 . S
N680 C684 1.345 . S
C681 C682 1.387 . S
C681 C685 1.391 . S
C682 C681 1.387 . S
C682 C683 1.369 . S
C682 H691 0.929 . S
C683 N680 1.346 . S
C683 C682 1.369 . S
C683 H686 0.928 . S
C684 N680 1.345 . S
C684 C685 1.371 . S
C684 H687 0.931 . S
C685 C681 1.391 . S
C685 C684 1.371 . S
C685 H692 0.930 . S
H686 C683 0.928 . S
H687 C684 0.931 . S
H688 C664 0.930 . S
H689 C661 0.930 . S
H690 C670 0.930 . S
H691 C682 0.929 . S
H692 C685 0.930 . S
C693 C694 1.351 . S
C693 N696 1.368 . S
C693 H698 0.931 . S
C694 C693 1.351 . S
C694 N695 1.373 . S
C694 H722 0.930 . S
N695 C694 1.373 . S
N695 C697 1.340 . S
N696 C693 1.368 . S
N696 C697 1.321 . S
N696 Co699 2.135 . S
C697 N695 1.340 . S
C697 N696 1.321 . S
C697 H721 0.930 . S
H698 C693 0.931 . S
Co699 N696 2.135 . S
Co699 N702 2.121 . S
Co699 O707 2.055 . S
Co699 O710 2.039 . S
Co699 N713 2.140 . S
C700 O701 1.227 . S
C700 O710 1.265 . S
O701 C700 1.227 . S
N702 Co699 2.121 . S
N702 C704 1.375 . S
N702 C705 1.313 . S
C703 C704 1.338 . S
C703 N706 1.377 . S
C703 H723 0.930 . S
C704 N702 1.375 . S
C704 C703 1.338 . S
C704 H708 0.931 . S
C705 N702 1.313 . S
C705 N706 1.344 . S
C705 H709 0.930 . S
N706 C703 1.377 . S
N706 C705 1.344 . S
O707 Co699 2.055 . S
O707 C711 1.253 . S
H708 C704 0.931 . S
H709 C705 0.930 . S
O710 Co699 2.039 . S
O710 C700 1.265 . S
C711 O707 1.253 . S
C711 O712 1.227 . S
O712 C711 1.227 . S
N713 Co699 2.140 . S
N713 C716 1.346 . S
N713 C717 1.345 . S
C714 C715 1.387 . S
C714 C718 1.391 . S
C715 C714 1.387 . S
C715 C716 1.369 . S
C715 H724 0.929 . S
C716 N713 1.346 . S
C716 C715 1.369 . S
C716 H719 0.928 . S
C717 N713 1.345 . S
C717 C718 1.371 . S
C717 H720 0.931 . S
C718 C714 1.391 . S
C718 C717 1.371 . S
C718 H725 0.930 . S
H719 C716 0.928 . S
H720 C717 0.931 . S
H721 C697 0.930 . S
H722 C694 0.930 . S
H723 C703 0.930 . S
H724 C715 0.929 . S
H725 C718 0.930 . S
C726 C727 1.351 . S
C726 N729 1.368 . S
C726 H731 0.931 . S
C727 C726 1.351 . S
C727 N728 1.373 . S
C727 H755 0.930 . S
N728 C727 1.373 . S
N728 C730 1.340 . S
N729 C726 1.368 . S
N729 C730 1.321 . S
N729 Co732 2.135 . S
C730 N728 1.340 . S
C730 N729 1.321 . S
C730 H754 0.930 . S
H731 C726 0.931 . S
Co732 N729 2.135 . S
Co732 N735 2.121 . S
Co732 O740 2.055 . S
Co732 O743 2.039 . S
Co732 N746 2.140 . S
C733 O734 1.227 . S
C733 O743 1.265 . S
O734 C733 1.227 . S
N735 Co732 2.121 . S
N735 C737 1.375 . S
N735 C738 1.313 . S
C736 C737 1.338 . S
C736 N739 1.377 . S
C736 H756 0.930 . S
C737 N735 1.375 . S
C737 C736 1.338 . S
C737 H741 0.931 . S
C738 N735 1.313 . S
C738 N739 1.344 . S
C738 H742 0.930 . S
N739 C736 1.377 . S
N739 C738 1.344 . S
O740 Co732 2.055 . S
O740 C744 1.253 . S
H741 C737 0.931 . S
H742 C738 0.930 . S
O743 Co732 2.039 . S
O743 C733 1.265 . S
C744 O740 1.253 . S
C744 O745 1.227 . S
O745 C744 1.227 . S
N746 Co732 2.140 . S
N746 C749 1.346 . S
N746 C750 1.345 . S
C747 C748 1.387 . S
C747 C751 1.391 . S
C748 C747 1.387 . S
C748 C749 1.369 . S
C748 H757 0.929 . S
C749 N746 1.346 . S
C749 C748 1.369 . S
C749 H752 0.928 . S
C750 N746 1.345 . S
C750 C751 1.371 . S
C750 H753 0.931 . S
C751 C747 1.391 . S
C751 C750 1.371 . S
C751 H758 0.930 . S
H752 C749 0.928 . S
H753 C750 0.931 . S
H754 C730 0.930 . S
H755 C727 0.930 . S
H756 C736 0.930 . S
H757 C748 0.929 . S
H758 C751 0.930 . S
C759 C760 1.351 . S
C759 N762 1.368 . S
C759 H764 0.931 . S
C760 C759 1.351 . S
C760 N761 1.373 . S
C760 H788 0.930 . S
N761 C760 1.373 . S
N761 C763 1.340 . S
N762 C759 1.368 . S
N762 C763 1.321 . S
N762 Co765 2.135 . S
C763 N761 1.340 . S
C763 N762 1.321 . S
C763 H787 0.930 . S
H764 C759 0.931 . S
Co765 N762 2.135 . S
Co765 N768 2.121 . S
Co765 O773 2.055 . S
Co765 O776 2.039 . S
Co765 N779 2.140 . S
C766 O767 1.227 . S
C766 O776 1.265 . S
O767 C766 1.227 . S
N768 Co765 2.121 . S
N768 C770 1.375 . S
N768 C771 1.313 . S
C769 C770 1.338 . S
C769 N772 1.377 . S
C769 H789 0.930 . S
C770 N768 1.375 . S
C770 C769 1.338 . S
C770 H774 0.931 . S
C771 N768 1.313 . S
C771 N772 1.344 . S
C771 H775 0.930 . S
N772 C769 1.377 . S
N772 C771 1.344 . S
O773 Co765 2.055 . S
O773 C777 1.253 . S
H774 C770 0.931 . S
H775 C771 0.930 . S
O776 Co765 2.039 . S
O776 C766 1.265 . S
C777 O773 1.253 . S
C777 O778 1.227 . S
O778 C777 1.227 . S
N779 Co765 2.140 . S
N779 C782 1.346 . S
N779 C783 1.345 . S
C780 C781 1.387 . S
C780 C784 1.391 . S
C781 C780 1.387 . S
C781 C782 1.369 . S
C781 H790 0.929 . S
C782 N779 1.346 . S
C782 C781 1.369 . S
C782 H785 0.928 . S
C783 N779 1.345 . S
C783 C784 1.371 . S
C783 H786 0.931 . S
C784 C780 1.391 . S
C784 C783 1.371 . S
C784 H791 0.930 . S
H785 C782 0.928 . S
H786 C783 0.931 . S
H787 C763 0.930 . S
H788 C760 0.930 . S
H789 C769 0.930 . S
H790 C781 0.929 . S
H791 C784 0.930 . S
C792 C793 1.351 . S
C792 N795 1.368 . S
C792 H797 0.931 . S
C793 C792 1.351 . S
C793 N794 1.373 . S
C793 H821 0.930 . S
N794 C793 1.373 . S
N794 C796 1.340 . S
N795 C792 1.368 . S
N795 C796 1.321 . S
N795 Co798 2.135 . S
C796 N794 1.340 . S
C796 N795 1.321 . S
C796 H820 0.930 . S
H797 C792 0.931 . S
Co798 N795 2.135 . S
Co798 N801 2.121 . S
Co798 O806 2.055 . S
Co798 O809 2.039 . S
Co798 N812 2.140 . S
C799 O800 1.227 . S
C799 O809 1.265 . S
O800 C799 1.227 . S
N801 Co798 2.121 . S
N801 C803 1.375 . S
N801 C804 1.313 . S
C802 C803 1.338 . S
C802 N805 1.377 . S
C802 H822 0.930 . S
C803 N801 1.375 . S
C803 C802 1.338 . S
C803 H807 0.931 . S
C804 N801 1.313 . S
C804 N805 1.344 . S
C804 H808 0.930 . S
N805 C802 1.377 . S
N805 C804 1.344 . S
O806 Co798 2.055 . S
O806 C810 1.253 . S
H807 C803 0.931 . S
H808 C804 0.930 . S
O809 Co798 2.039 . S
O809 C799 1.265 . S
C810 O806 1.253 . S
C810 O811 1.227 . S
O811 C810 1.227 . S
N812 Co798 2.140 . S
N812 C815 1.346 . S
N812 C816 1.345 . S
C813 C814 1.387 . S
C813 C817 1.391 . S
C814 C813 1.387 . S
C814 C815 1.369 . S
C814 H823 0.929 . S
C815 N812 1.346 . S
C815 C814 1.369 . S
C815 H818 0.928 . S
C816 N812 1.345 . S
C816 C817 1.371 . S
C816 H819 0.931 . S
C817 C813 1.391 . S
C817 C816 1.371 . S
C817 H824 0.930 . S
H818 C815 0.928 . S
H819 C816 0.931 . S
H820 C796 0.930 . S
H821 C793 0.930 . S
H822 C802 0.930 . S
H823 C814 0.929 . S
H824 C817 0.930 . S
C825 C826 1.351 . S
C825 N828 1.368 . S
C825 H830 0.931 . S
C826 C825 1.351 . S
C826 N827 1.373 . S
C826 H854 0.930 . S
N827 C826 1.373 . S
N827 C829 1.340 . S
N828 C825 1.368 . S
N828 C829 1.321 . S
N828 Co831 2.135 . S
C829 N827 1.340 . S
C829 N828 1.321 . S
C829 H853 0.930 . S
H830 C825 0.931 . S
Co831 N828 2.135 . S
Co831 N834 2.121 . S
Co831 O839 2.055 . S
Co831 O842 2.039 . S
Co831 N845 2.140 . S
C832 O833 1.227 . S
C832 O842 1.265 . S
O833 C832 1.227 . S
N834 Co831 2.121 . S
N834 C836 1.375 . S
N834 C837 1.313 . S
C835 C836 1.338 . S
C835 N838 1.377 . S
C835 H855 0.930 . S
C836 N834 1.375 . S
C836 C835 1.338 . S
C836 H840 0.931 . S
C837 N834 1.313 . S
C837 N838 1.344 . S
C837 H841 0.930 . S
N838 C835 1.377 . S
N838 C837 1.344 . S
O839 Co831 2.055 . S
O839 C843 1.253 . S
H840 C836 0.931 . S
H841 C837 0.930 . S
O842 Co831 2.039 . S
O842 C832 1.265 . S
C843 O839 1.253 . S
C843 O844 1.227 . S
O844 C843 1.227 . S
N845 Co831 2.140 . S
N845 C848 1.346 . S
N845 C849 1.345 . S
C846 C847 1.387 . S
C846 C850 1.391 . S
C847 C846 1.387 . S
C847 C848 1.369 . S
C847 H856 0.929 . S
C848 N845 1.346 . S
C848 C847 1.369 . S
C848 H851 0.928 . S
C849 N845 1.345 . S
C849 C850 1.371 . S
C849 H852 0.931 . S
C850 C846 1.391 . S
C850 C849 1.371 . S
C850 H857 0.930 . S
H851 C848 0.928 . S
H852 C849 0.931 . S
H853 C829 0.930 . S
H854 C826 0.930 . S
H855 C835 0.930 . S
H856 C847 0.929 . S
H857 C850 0.930 . S
C858 C859 1.351 . S
C858 N861 1.368 . S
C858 H863 0.931 . S
C859 C858 1.351 . S
C859 N860 1.373 . S
C859 H887 0.930 . S
N860 C859 1.373 . S
N860 C862 1.340 . S
N861 C858 1.368 . S
N861 C862 1.321 . S
N861 Co864 2.135 . S
C862 N860 1.340 . S
C862 N861 1.321 . S
C862 H886 0.930 . S
H863 C858 0.931 . S
Co864 N861 2.135 . S
Co864 N867 2.121 . S
Co864 O872 2.055 . S
Co864 O875 2.039 . S
Co864 N878 2.140 . S
C865 O866 1.227 . S
C865 O875 1.265 . S
O866 C865 1.227 . S
N867 Co864 2.121 . S
N867 C869 1.375 . S
N867 C870 1.313 . S
C868 C869 1.338 . S
C868 N871 1.377 . S
C868 H888 0.930 . S
C869 N867 1.375 . S
C869 C868 1.338 . S
C869 H873 0.931 . S
C870 N867 1.313 . S
C870 N871 1.344 . S
C870 H874 0.930 . S
N871 C868 1.377 . S
N871 C870 1.344 . S
O872 Co864 2.055 . S
O872 C876 1.253 . S
H873 C869 0.931 . S
H874 C870 0.930 . S
O875 Co864 2.039 . S
O875 C865 1.265 . S
C876 O872 1.253 . S
C876 O877 1.227 . S
O877 C876 1.227 . S
N878 Co864 2.140 . S
N878 C881 1.346 . S
N878 C882 1.345 . S
C879 C880 1.387 . S
C879 C883 1.391 . S
C880 C879 1.387 . S
C880 C881 1.369 . S
C880 H889 0.929 . S
C881 N878 1.346 . S
C881 C880 1.369 . S
C881 H884 0.928 . S
C882 N878 1.345 . S
C882 C883 1.371 . S
C882 H885 0.931 . S
C883 C879 1.391 . S
C883 C882 1.371 . S
C883 H890 0.930 . S
H884 C881 0.928 . S
H885 C882 0.931 . S
H886 C862 0.930 . S
H887 C859 0.930 . S
H888 C868 0.930 . S
H889 C880 0.929 . S
H890 C883 0.930 . S
C891 C892 1.351 . S
C891 N894 1.368 . S
C891 H896 0.931 . S
C892 C891 1.351 . S
C892 N893 1.373 . S
C892 H920 0.930 . S
N893 C892 1.373 . S
N893 C895 1.340 . S
N894 C891 1.368 . S
N894 C895 1.321 . S
N894 Co897 2.135 . S
C895 N893 1.340 . S
C895 N894 1.321 . S
C895 H919 0.930 . S
H896 C891 0.931 . S
Co897 N894 2.135 . S
Co897 N900 2.121 . S
Co897 O905 2.055 . S
Co897 O908 2.039 . S
Co897 N911 2.140 . S
C898 O899 1.227 . S
C898 O908 1.265 . S
O899 C898 1.227 . S
N900 Co897 2.121 . S
N900 C902 1.375 . S
N900 C903 1.313 . S
C901 C902 1.338 . S
C901 N904 1.377 . S
C901 H921 0.930 . S
C902 N900 1.375 . S
C902 C901 1.338 . S
C902 H906 0.931 . S
C903 N900 1.313 . S
C903 N904 1.344 . S
C903 H907 0.930 . S
N904 C901 1.377 . S
N904 C903 1.344 . S
O905 Co897 2.055 . S
O905 C909 1.253 . S
H906 C902 0.931 . S
H907 C903 0.930 . S
O908 Co897 2.039 . S
O908 C898 1.265 . S
C909 O905 1.253 . S
C909 O910 1.227 . S
O910 C909 1.227 . S
N911 Co897 2.140 . S
N911 C914 1.346 . S
N911 C915 1.345 . S
C912 C913 1.387 . S
C912 C916 1.391 . S
C913 C912 1.387 . S
C913 C914 1.369 . S
C913 H922 0.929 . S
C914 N911 1.346 . S
C914 C913 1.369 . S
C914 H917 0.928 . S
C915 N911 1.345 . S
C915 C916 1.371 . S
C915 H918 0.931 . S
C916 C912 1.391 . S
C916 C915 1.371 . S
C916 H923 0.930 . S
H917 C914 0.928 . S
H918 C915 0.931 . S
H919 C895 0.930 . S
H920 C892 0.930 . S
H921 C901 0.930 . S
H922 C913 0.929 . S
H923 C916 0.930 . S
C924 C925 1.351 . S
C924 N927 1.368 . S
C924 H929 0.931 . S
C925 C924 1.351 . S
C925 N926 1.373 . S
C925 H953 0.930 . S
N926 C925 1.373 . S
N926 C928 1.340 . S
N927 C924 1.368 . S
N927 C928 1.321 . S
N927 Co930 2.135 . S
C928 N926 1.340 . S
C928 N927 1.321 . S
C928 H952 0.930 . S
H929 C924 0.931 . S
Co930 N927 2.135 . S
Co930 N933 2.121 . S
Co930 O938 2.055 . S
Co930 O941 2.039 . S
Co930 N944 2.140 . S
C931 O932 1.227 . S
C931 O941 1.265 . S
O932 C931 1.227 . S
N933 Co930 2.121 . S
N933 C935 1.375 . S
N933 C936 1.313 . S
C934 C935 1.338 . S
C934 N937 1.377 . S
C934 H954 0.930 . S
C935 N933 1.375 . S
C935 C934 1.338 . S
C935 H939 0.931 . S
C936 N933 1.313 . S
C936 N937 1.344 . S
C936 H940 0.930 . S
N937 C934 1.377 . S
N937 C936 1.344 . S
O938 Co930 2.055 . S
O938 C942 1.253 . S
H939 C935 0.931 . S
H940 C936 0.930 . S
O941 Co930 2.039 . S
O941 C931 1.265 . S
C942 O938 1.253 . S
C942 O943 1.227 . S
O943 C942 1.227 . S
N944 Co930 2.140 . S
N944 C947 1.346 . S
N944 C948 1.345 . S
C945 C946 1.387 . S
C945 C949 1.391 . S
C946 C945 1.387 . S
C946 C947 1.369 . S
C946 H955 0.929 . S
C947 N944 1.346 . S
C947 C946 1.369 . S
C947 H950 0.928 . S
C948 N944 1.345 . S
C948 C949 1.371 . S
C948 H951 0.931 . S
C949 C945 1.391 . S
C949 C948 1.371 . S
C949 H956 0.930 . S
H950 C947 0.928 . S
H951 C948 0.931 . S
H952 C928 0.930 . S
H953 C925 0.930 . S
H954 C934 0.930 . S
H955 C946 0.929 . S
H956 C949 0.930 . S
C957 C958 1.351 . S
C957 N960 1.368 . S
C957 H962 0.931 . S
C958 C957 1.351 . S
C958 N959 1.373 . S
C958 H986 0.930 . S
N959 C958 1.373 . S
N959 C961 1.340 . S
N960 C957 1.368 . S
N960 C961 1.321 . S
N960 Co963 2.135 . S
C961 N959 1.340 . S
C961 N960 1.321 . S
C961 H985 0.930 . S
H962 C957 0.931 . S
Co963 N960 2.135 . S
Co963 N966 2.121 . S
Co963 O971 2.055 . S
Co963 O974 2.039 . S
Co963 N977 2.140 . S
C964 O965 1.227 . S
C964 O974 1.265 . S
O965 C964 1.227 . S
N966 Co963 2.121 . S
N966 C968 1.375 . S
N966 C969 1.313 . S
C967 C968 1.338 . S
C967 N970 1.377 . S
C967 H987 0.930 . S
C968 N966 1.375 . S
C968 C967 1.338 . S
C968 H972 0.931 . S
C969 N966 1.313 . S
C969 N970 1.344 . S
C969 H973 0.930 . S
N970 C967 1.377 . S
N970 C969 1.344 . S
O971 Co963 2.055 . S
O971 C975 1.253 . S
H972 C968 0.931 . S
H973 C969 0.930 . S
O974 Co963 2.039 . S
O974 C964 1.265 . S
C975 O971 1.253 . S
C975 O976 1.227 . S
O976 C975 1.227 . S
N977 Co963 2.140 . S
N977 C980 1.346 . S
N977 C981 1.345 . S
C978 C979 1.387 . S
C978 C982 1.391 . S
C979 C978 1.387 . S
C979 C980 1.369 . S
C979 H988 0.929 . S
C980 N977 1.346 . S
C980 C979 1.369 . S
C980 H983 0.928 . S
C981 N977 1.345 . S
C981 C982 1.371 . S
C981 H984 0.931 . S
C982 C978 1.391 . S
C982 C981 1.371 . S
C982 H989 0.930 . S
H983 C980 0.928 . S
H984 C981 0.931 . S
H985 C961 0.930 . S
H986 C958 0.930 . S
H987 C967 0.930 . S
H988 C979 0.929 . S
H989 C982 0.930 . S
C990 C991 1.351 . S
C990 N993 1.368 . S
C990 H995 0.931 . S
C991 C990 1.351 . S
C991 N992 1.373 . S
C991 H1019 0.930 . S
N992 C991 1.373 . S
N992 C994 1.340 . S
N993 C990 1.368 . S
N993 C994 1.321 . S
N993 Co996 2.135 . S
C994 N992 1.340 . S
C994 N993 1.321 . S
C994 H1018 0.930 . S
H995 C990 0.931 . S
Co996 N993 2.135 . S
Co996 N999 2.121 . S
Co996 O1004 2.055 . S
Co996 O1007 2.039 . S
Co996 N1010 2.140 . S
C997 O998 1.227 . S
C997 O1007 1.265 . S
O998 C997 1.227 . S
N999 Co996 2.121 . S
N999 C1001 1.375 . S
N999 C1002 1.313 . S
C1000 C1001 1.338 . S
C1000 N1003 1.377 . S
C1000 H1020 0.930 . S
C1001 N999 1.375 . S
C1001 C1000 1.338 . S
C1001 H1005 0.931 . S
C1002 N999 1.313 . S
C1002 N1003 1.344 . S
C1002 H1006 0.930 . S
N1003 C1000 1.377 . S
N1003 C1002 1.344 . S
O1004 Co996 2.055 . S
O1004 C1008 1.253 . S
H1005 C1001 0.931 . S
H1006 C1002 0.930 . S
O1007 Co996 2.039 . S
O1007 C997 1.265 . S
C1008 O1004 1.253 . S
C1008 O1009 1.227 . S
O1009 C1008 1.227 . S
N1010 Co996 2.140 . S
N1010 C1013 1.346 . S
N1010 C1014 1.345 . S
C1011 C1012 1.387 . S
C1011 C1015 1.391 . S
C1012 C1011 1.387 . S
C1012 C1013 1.369 . S
C1012 H1021 0.929 . S
C1013 N1010 1.346 . S
C1013 C1012 1.369 . S
C1013 H1016 0.928 . S
C1014 N1010 1.345 . S
C1014 C1015 1.371 . S
C1014 H1017 0.931 . S
C1015 C1011 1.391 . S
C1015 C1014 1.371 . S
C1015 H1022 0.930 . S
H1016 C1013 0.928 . S
H1017 C1014 0.931 . S
H1018 C994 0.930 . S
H1019 C991 0.930 . S
H1020 C1000 0.930 . S
H1021 C1012 0.929 . S
H1022 C1015 0.930 . S
C1023 C1024 1.351 . S
C1023 N1026 1.368 . S
C1023 H1028 0.931 . S
C1024 C1023 1.351 . S
C1024 N1025 1.373 . S
C1024 H1052 0.930 . S
N1025 C1024 1.373 . S
N1025 C1027 1.340 . S
N1026 C1023 1.368 . S
N1026 C1027 1.321 . S
N1026 Co1029 2.135 . S
C1027 N1025 1.340 . S
C1027 N1026 1.321 . S
C1027 H1051 0.930 . S
H1028 C1023 0.931 . S
Co1029 N1026 2.135 . S
Co1029 N1032 2.121 . S
Co1029 O1037 2.055 . S
Co1029 O1040 2.039 . S
Co1029 N1043 2.140 . S
C1030 O1031 1.227 . S
C1030 O1040 1.265 . S
O1031 C1030 1.227 . S
N1032 Co1029 2.121 . S
N1032 C1034 1.375 . S
N1032 C1035 1.313 . S
C1033 C1034 1.338 . S
C1033 N1036 1.377 . S
C1033 H1053 0.930 . S
C1034 N1032 1.375 . S
C1034 C1033 1.338 . S
C1034 H1038 0.931 . S
C1035 N1032 1.313 . S
C1035 N1036 1.344 . S
C1035 H1039 0.930 . S
N1036 C1033 1.377 . S
N1036 C1035 1.344 . S
O1037 Co1029 2.055 . S
O1037 C1041 1.253 . S
H1038 C1034 0.931 . S
H1039 C1035 0.930 . S
O1040 Co1029 2.039 . S
O1040 C1030 1.265 . S
C1041 O1037 1.253 . S
C1041 O1042 1.227 . S
O1042 C1041 1.227 . S
N1043 Co1029 2.140 . S
N1043 C1046 1.346 . S
N1043 C1047 1.345 . S
C1044 C1045 1.387 . S
C1044 C1048 1.391 . S
C1045 C1044 1.387 . S
C1045 C1046 1.369 . S
C1045 H1054 0.929 . S
C1046 N1043 1.346 . S
C1046 C1045 1.369 . S
C1046 H1049 0.928 . S
C1047 N1043 1.345 . S
C1047 C1048 1.371 . S
C1047 H1050 0.931 . S
C1048 C1044 1.391 . S
C1048 C1047 1.371 . S
C1048 H1055 0.930 . S
H1049 C1046 0.928 . S
H1050 C1047 0.931 . S
H1051 C1027 0.930 . S
H1052 C1024 0.930 . S
H1053 C1033 0.930 . S
H1054 C1045 0.929 . S
H1055 C1048 0.930 . S
C1056 C1057 1.351 . S
C1056 N1059 1.368 . S
C1056 H1061 0.931 . S
C1057 C1056 1.351 . S
C1057 N1058 1.373 . S
C1057 H1085 0.930 . S
N1058 C1057 1.373 . S
N1058 C1060 1.340 . S
N1059 C1056 1.368 . S
N1059 C1060 1.321 . S
N1059 Co1062 2.135 . S
C1060 N1058 1.340 . S
C1060 N1059 1.321 . S
C1060 H1084 0.930 . S
H1061 C1056 0.931 . S
Co1062 N1059 2.135 . S
Co1062 N1065 2.121 . S
Co1062 O1070 2.055 . S
Co1062 O1073 2.039 . S
Co1062 N1076 2.140 . S
C1063 O1064 1.227 . S
C1063 O1073 1.265 . S
O1064 C1063 1.227 . S
N1065 Co1062 2.121 . S
N1065 C1067 1.375 . S
N1065 C1068 1.313 . S
C1066 C1067 1.338 . S
C1066 N1069 1.377 . S
C1066 H1086 0.930 . S
C1067 N1065 1.375 . S
C1067 C1066 1.338 . S
C1067 H1071 0.931 . S
C1068 N1065 1.313 . S
C1068 N1069 1.344 . S
C1068 H1072 0.930 . S
N1069 C1066 1.377 . S
N1069 C1068 1.344 . S
O1070 Co1062 2.055 . S
O1070 C1074 1.253 . S
H1071 C1067 0.931 . S
H1072 C1068 0.930 . S
O1073 Co1062 2.039 . S
O1073 C1063 1.265 . S
C1074 O1070 1.253 . S
C1074 O1075 1.227 . S
O1075 C1074 1.227 . S
N1076 Co1062 2.140 . S
N1076 C1079 1.346 . S
N1076 C1080 1.345 . S
C1077 C1078 1.387 . S
C1077 C1081 1.391 . S
C1078 C1077 1.387 . S
C1078 C1079 1.369 . S
C1078 H1087 0.929 . S
C1079 N1076 1.346 . S
C1079 C1078 1.369 . S
C1079 H1082 0.928 . S
C1080 N1076 1.345 . S
C1080 C1081 1.371 . S
C1080 H1083 0.931 . S
C1081 C1077 1.391 . S
C1081 C1080 1.371 . S
C1081 H1088 0.930 . S
H1082 C1079 0.928 . S
H1083 C1080 0.931 . S
H1084 C1060 0.930 . S
H1085 C1057 0.930 . S
H1086 C1066 0.930 . S
H1087 C1078 0.929 . S
H1088 C1081 0.930 . S
C1089 C1090 1.351 . S
C1089 N1092 1.368 . S
C1089 H1094 0.931 . S
C1090 C1089 1.351 . S
C1090 N1091 1.373 . S
C1090 H1118 0.930 . S
N1091 C1090 1.373 . S
N1091 C1093 1.340 . S
N1092 C1089 1.368 . S
N1092 C1093 1.321 . S
N1092 Co1095 2.135 . S
C1093 N1091 1.340 . S
C1093 N1092 1.321 . S
C1093 H1117 0.930 . S
H1094 C1089 0.931 . S
Co1095 N1092 2.135 . S
Co1095 N1098 2.121 . S
Co1095 O1103 2.055 . S
Co1095 O1106 2.039 . S
Co1095 N1109 2.140 . S
C1096 O1097 1.227 . S
C1096 O1106 1.265 . S
O1097 C1096 1.227 . S
N1098 Co1095 2.121 . S
N1098 C1100 1.375 . S
N1098 C1101 1.313 . S
C1099 C1100 1.338 . S
C1099 N1102 1.377 . S
C1099 H1119 0.930 . S
C1100 N1098 1.375 . S
C1100 C1099 1.338 . S
C1100 H1104 0.931 . S
C1101 N1098 1.313 . S
C1101 N1102 1.344 . S
C1101 H1105 0.930 . S
N1102 C1099 1.377 . S
N1102 C1101 1.344 . S
O1103 Co1095 2.055 . S
O1103 C1107 1.253 . S
H1104 C1100 0.931 . S
H1105 C1101 0.930 . S
O1106 Co1095 2.039 . S
O1106 C1096 1.265 . S
C1107 O1103 1.253 . S
C1107 O1108 1.227 . S
O1108 C1107 1.227 . S
N1109 Co1095 2.140 . S
N1109 C1112 1.346 . S
N1109 C1113 1.345 . S
C1110 C1111 1.387 . S
C1110 C1114 1.391 . S
C1111 C1110 1.387 . S
C1111 C1112 1.369 . S
C1111 H1120 0.929 . S
C1112 N1109 1.346 . S
C1112 C1111 1.369 . S
C1112 H1115 0.928 . S
C1113 N1109 1.345 . S
C1113 C1114 1.371 . S
C1113 H1116 0.931 . S
C1114 C1110 1.391 . S
C1114 C1113 1.371 . S
C1114 H1121 0.930 . S
H1115 C1112 0.928 . S
H1116 C1113 0.931 . S
H1117 C1093 0.930 . S
H1118 C1090 0.930 . S
H1119 C1099 0.930 . S
H1120 C1111 0.929 . S
H1121 C1114 0.930 . S
C1122 C1123 1.351 . S
C1122 N1125 1.368 . S
C1122 H1127 0.931 . S
C1123 C1122 1.351 . S
C1123 N1124 1.373 . S
C1123 H1151 0.930 . S
N1124 C1123 1.373 . S
N1124 C1126 1.340 . S
N1125 C1122 1.368 . S
N1125 C1126 1.321 . S
N1125 Co1128 2.135 . S
C1126 N1124 1.340 . S
C1126 N1125 1.321 . S
C1126 H1150 0.930 . S
H1127 C1122 0.931 . S
Co1128 N1125 2.135 . S
Co1128 N1131 2.121 . S
Co1128 O1136 2.055 . S
Co1128 O1139 2.039 . S
Co1128 N1142 2.140 . S
C1129 O1130 1.227 . S
C1129 O1139 1.265 . S
O1130 C1129 1.227 . S
N1131 Co1128 2.121 . S
N1131 C1133 1.375 . S
N1131 C1134 1.313 . S
C1132 C1133 1.338 . S
C1132 N1135 1.377 . S
C1132 H1152 0.930 . S
C1133 N1131 1.375 . S
C1133 C1132 1.338 . S
C1133 H1137 0.931 . S
C1134 N1131 1.313 . S
C1134 N1135 1.344 . S
C1134 H1138 0.930 . S
N1135 C1132 1.377 . S
N1135 C1134 1.344 . S
O1136 Co1128 2.055 . S
O1136 C1140 1.253 . S
H1137 C1133 0.931 . S
H1138 C1134 0.930 . S
O1139 Co1128 2.039 . S
O1139 C1129 1.265 . S
C1140 O1136 1.253 . S
C1140 O1141 1.227 . S
O1141 C1140 1.227 . S
N1142 Co1128 2.140 . S
N1142 C1145 1.346 . S
N1142 C1146 1.345 . S
C1143 C1144 1.387 . S
C1143 C1147 1.391 . S
C1144 C1143 1.387 . S
C1144 C1145 1.369 . S
C1144 H1153 0.929 . S
C1145 N1142 1.346 . S
C1145 C1144 1.369 . S
C1145 H1148 0.928 . S
C1146 N1142 1.345 . S
C1146 C1147 1.371 . S
C1146 H1149 0.931 . S
C1147 C1143 1.391 . S
C1147 C1146 1.371 . S
C1147 H1154 0.930 . S
H1148 C1145 0.928 . S
H1149 C1146 0.931 . S
H1150 C1126 0.930 . S
H1151 C1123 0.930 . S
H1152 C1132 0.930 . S
H1153 C1144 0.929 . S
H1154 C1147 0.930 . S
C1155 C1156 1.351 . S
C1155 N1158 1.368 . S
C1155 H1160 0.931 . S
C1156 C1155 1.351 . S
C1156 N1157 1.373 . S
C1156 H1184 0.930 . S
N1157 C1156 1.373 . S
N1157 C1159 1.340 . S
N1158 C1155 1.368 . S
N1158 C1159 1.321 . S
N1158 Co1161 2.135 . S
C1159 N1157 1.340 . S
C1159 N1158 1.321 . S
C1159 H1183 0.930 . S
H1160 C1155 0.931 . S
Co1161 N1158 2.135 . S
Co1161 N1164 2.121 . S
Co1161 O1169 2.055 . S
Co1161 O1172 2.039 . S
Co1161 N1175 2.140 . S
C1162 O1163 1.227 . S
C1162 O1172 1.265 . S
O1163 C1162 1.227 . S
N1164 Co1161 2.121 . S
N1164 C1166 1.375 . S
N1164 C1167 1.313 . S
C1165 C1166 1.338 . S
C1165 N1168 1.377 . S
C1165 H1185 0.930 . S
C1166 N1164 1.375 . S
C1166 C1165 1.338 . S
C1166 H1170 0.931 . S
C1167 N1164 1.313 . S
C1167 N1168 1.344 . S
C1167 H1171 0.930 . S
N1168 C1165 1.377 . S
N1168 C1167 1.344 . S
O1169 Co1161 2.055 . S
O1169 C1173 1.253 . S
H1170 C1166 0.931 . S
H1171 C1167 0.930 . S
O1172 Co1161 2.039 . S
O1172 C1162 1.265 . S
C1173 O1169 1.253 . S
C1173 O1174 1.227 . S
O1174 C1173 1.227 . S
N1175 Co1161 2.140 . S
N1175 C1178 1.346 . S
N1175 C1179 1.345 . S
C1176 C1177 1.387 . S
C1176 C1180 1.391 . S
C1177 C1176 1.387 . S
C1177 C1178 1.369 . S
C1177 H1186 0.929 . S
C1178 N1175 1.346 . S
C1178 C1177 1.369 . S
C1178 H1181 0.928 . S
C1179 N1175 1.345 . S
C1179 C1180 1.371 . S
C1179 H1182 0.931 . S
C1180 C1176 1.391 . S
C1180 C1179 1.371 . S
C1180 H1187 0.930 . S
H1181 C1178 0.928 . S
H1182 C1179 0.931 . S
H1183 C1159 0.930 . S
H1184 C1156 0.930 . S
H1185 C1165 0.930 . S
H1186 C1177 0.929 . S
H1187 C1180 0.930 . S
C1188 C1189 1.351 . S
C1188 N1191 1.368 . S
C1188 H1193 0.931 . S
C1189 C1188 1.351 . S
C1189 N1190 1.373 . S
C1189 H1217 0.930 . S
N1190 C1189 1.373 . S
N1190 C1192 1.340 . S
N1191 C1188 1.368 . S
N1191 C1192 1.321 . S
N1191 Co1194 2.135 . S
C1192 N1190 1.340 . S
C1192 N1191 1.321 . S
C1192 H1216 0.930 . S
H1193 C1188 0.931 . S
Co1194 N1191 2.135 . S
Co1194 N1197 2.121 . S
Co1194 O1202 2.055 . S
Co1194 O1205 2.039 . S
Co1194 N1208 2.140 . S
C1195 O1196 1.227 . S
C1195 O1205 1.265 . S
O1196 C1195 1.227 . S
N1197 Co1194 2.121 . S
N1197 C1199 1.375 . S
N1197 C1200 1.313 . S
C1198 C1199 1.338 . S
C1198 N1201 1.377 . S
C1198 H1218 0.930 . S
C1199 N1197 1.375 . S
C1199 C1198 1.338 . S
C1199 H1203 0.931 . S
C1200 N1197 1.313 . S
C1200 N1201 1.344 . S
C1200 H1204 0.930 . S
N1201 C1198 1.377 . S
N1201 C1200 1.344 . S
O1202 Co1194 2.055 . S
O1202 C1206 1.253 . S
H1203 C1199 0.931 . S
H1204 C1200 0.930 . S
O1205 Co1194 2.039 . S
O1205 C1195 1.265 . S
C1206 O1202 1.253 . S
C1206 O1207 1.227 . S
O1207 C1206 1.227 . S
N1208 Co1194 2.140 . S
N1208 C1211 1.346 . S
N1208 C1212 1.345 . S
C1209 C1210 1.387 . S
C1209 C1213 1.391 . S
C1210 C1209 1.387 . S
C1210 C1211 1.369 . S
C1210 H1219 0.929 . S
C1211 N1208 1.346 . S
C1211 C1210 1.369 . S
C1211 H1214 0.928 . S
C1212 N1208 1.345 . S
C1212 C1213 1.371 . S
C1212 H1215 0.931 . S
C1213 C1209 1.391 . S
C1213 C1212 1.371 . S
C1213 H1220 0.930 . S
H1214 C1211 0.928 . S
H1215 C1212 0.931 . S
H1216 C1192 0.930 . S
H1217 C1189 0.930 . S
H1218 C1198 0.930 . S
H1219 C1210 0.929 . S
H1220 C1213 0.930 . S
C1221 C1222 1.351 . S
C1221 N1224 1.368 . S
C1221 H1226 0.931 . S
C1222 C1221 1.351 . S
C1222 N1223 1.373 . S
C1222 H1250 0.930 . S
N1223 C1222 1.373 . S
N1223 C1225 1.340 . S
N1224 C1221 1.368 . S
N1224 C1225 1.321 . S
N1224 Co1227 2.135 . S
C1225 N1223 1.340 . S
C1225 N1224 1.321 . S
C1225 H1249 0.930 . S
H1226 C1221 0.931 . S
Co1227 N1224 2.135 . S
Co1227 N1230 2.121 . S
Co1227 O1235 2.055 . S
Co1227 O1238 2.039 . S
Co1227 N1241 2.140 . S
C1228 O1229 1.227 . S
C1228 O1238 1.265 . S
O1229 C1228 1.227 . S
N1230 Co1227 2.121 . S
N1230 C1232 1.375 . S
N1230 C1233 1.313 . S
C1231 C1232 1.338 . S
C1231 N1234 1.377 . S
C1231 H1251 0.930 . S
C1232 N1230 1.375 . S
C1232 C1231 1.338 . S
C1232 H1236 0.931 . S
C1233 N1230 1.313 . S
C1233 N1234 1.344 . S
C1233 H1237 0.930 . S
N1234 C1231 1.377 . S
N1234 C1233 1.344 . S
O1235 Co1227 2.055 . S
O1235 C1239 1.253 . S
H1236 C1232 0.931 . S
H1237 C1233 0.930 . S
O1238 Co1227 2.039 . S
O1238 C1228 1.265 . S
C1239 O1235 1.253 . S
C1239 O1240 1.227 . S
O1240 C1239 1.227 . S
N1241 Co1227 2.140 . S
N1241 C1244 1.346 . S
N1241 C1245 1.345 . S
C1242 C1243 1.387 . S
C1242 C1246 1.391 . S
C1243 C1242 1.387 . S
C1243 C1244 1.369 . S
C1243 H1252 0.929 . S
C1244 N1241 1.346 . S
C1244 C1243 1.369 . S
C1244 H1247 0.928 . S
C1245 N1241 1.345 . S
C1245 C1246 1.371 . S
C1245 H1248 0.931 . S
C1246 C1242 1.391 . S
C1246 C1245 1.371 . S
C1246 H1253 0.930 . S
H1247 C1244 0.928 . S
H1248 C1245 0.931 . S
H1249 C1225 0.930 . S
H1250 C1222 0.930 . S
H1251 C1231 0.930 . S
H1252 C1243 0.929 . S
H1253 C1246 0.930 . S
C1254 C1255 1.351 . S
C1254 N1257 1.368 . S
C1254 H1259 0.931 . S
C1255 C1254 1.351 . S
C1255 N1256 1.373 . S
C1255 H1283 0.930 . S
N1256 C1255 1.373 . S
N1256 C1258 1.340 . S
N1257 C1254 1.368 . S
N1257 C1258 1.321 . S
N1257 Co1260 2.135 . S
C1258 N1256 1.340 . S
C1258 N1257 1.321 . S
C1258 H1282 0.930 . S
H1259 C1254 0.931 . S
Co1260 N1257 2.135 . S
Co1260 N1263 2.121 . S
Co1260 O1268 2.055 . S
Co1260 O1271 2.039 . S
Co1260 N1274 2.140 . S
C1261 O1262 1.227 . S
C1261 O1271 1.265 . S
O1262 C1261 1.227 . S
N1263 Co1260 2.121 . S
N1263 C1265 1.375 . S
N1263 C1266 1.313 . S
C1264 C1265 1.338 . S
C1264 N1267 1.377 . S
C1264 H1284 0.930 . S
C1265 N1263 1.375 . S
C1265 C1264 1.338 . S
C1265 H1269 0.931 . S
C1266 N1263 1.313 . S
C1266 N1267 1.344 . S
C1266 H1270 0.930 . S
N1267 C1264 1.377 . S
N1267 C1266 1.344 . S
O1268 Co1260 2.055 . S
O1268 C1272 1.253 . S
H1269 C1265 0.931 . S
H1270 C1266 0.930 . S
O1271 Co1260 2.039 . S
O1271 C1261 1.265 . S
C1272 O1268 1.253 . S
C1272 O1273 1.227 . S
O1273 C1272 1.227 . S
N1274 Co1260 2.140 . S
N1274 C1277 1.346 . S
N1274 C1278 1.345 . S
C1275 C1276 1.387 . S
C1275 C1279 1.391 . S
C1276 C1275 1.387 . S
C1276 C1277 1.369 . S
C1276 H1285 0.929 . S
C1277 N1274 1.346 . S
C1277 C1276 1.369 . S
C1277 H1280 0.928 . S
C1278 N1274 1.345 . S
C1278 C1279 1.371 . S
C1278 H1281 0.931 . S
C1279 C1275 1.391 . S
C1279 C1278 1.371 . S
C1279 H1286 0.930 . S
H1280 C1277 0.928 . S
H1281 C1278 0.931 . S
H1282 C1258 0.930 . S
H1283 C1255 0.930 . S
H1284 C1264 0.930 . S
H1285 C1276 0.929 . S
H1286 C1279 0.930 . S
C1287 C1288 1.351 . S
C1287 N1290 1.368 . S
C1287 H1292 0.931 . S
C1288 C1287 1.351 . S
C1288 N1289 1.373 . S
C1288 H1316 0.930 . S
N1289 C1288 1.373 . S
N1289 C1291 1.340 . S
N1290 C1287 1.368 . S
N1290 C1291 1.321 . S
N1290 Co1293 2.135 . S
C1291 N1289 1.340 . S
C1291 N1290 1.321 . S
C1291 H1315 0.930 . S
H1292 C1287 0.931 . S
Co1293 N1290 2.135 . S
Co1293 N1296 2.121 . S
Co1293 O1301 2.055 . S
Co1293 O1304 2.039 . S
Co1293 N1307 2.140 . S
C1294 O1295 1.227 . S
C1294 O1304 1.265 . S
O1295 C1294 1.227 . S
N1296 Co1293 2.121 . S
N1296 C1298 1.375 . S
N1296 C1299 1.313 . S
C1297 C1298 1.338 . S
C1297 N1300 1.377 . S
C1297 H1317 0.930 . S
C1298 N1296 1.375 . S
C1298 C1297 1.338 . S
C1298 H1302 0.931 . S
C1299 N1296 1.313 . S
C1299 N1300 1.344 . S
C1299 H1303 0.930 . S
N1300 C1297 1.377 . S
N1300 C1299 1.344 . S
O1301 Co1293 2.055 . S
O1301 C1305 1.253 . S
H1302 C1298 0.931 . S
H1303 C1299 0.930 . S
O1304 Co1293 2.039 . S
O1304 C1294 1.265 . S
C1305 O1301 1.253 . S
C1305 O1306 1.227 . S
O1306 C1305 1.227 . S
N1307 Co1293 2.140 . S
N1307 C1310 1.346 . S
N1307 C1311 1.345 . S
C1308 C1309 1.387 . S
C1308 C1312 1.391 . S
C1309 C1308 1.387 . S
C1309 C1310 1.369 . S
C1309 H1318 0.929 . S
C1310 N1307 1.346 . S
C1310 C1309 1.369 . S
C1310 H1313 0.928 . S
C1311 N1307 1.345 . S
C1311 C1312 1.371 . S
C1311 H1314 0.931 . S
C1312 C1308 1.391 . S
C1312 C1311 1.371 . S
C1312 H1319 0.930 . S
H1313 C1310 0.928 . S
H1314 C1311 0.931 . S
H1315 C1291 0.930 . S
H1316 C1288 0.930 . S
H1317 C1297 0.930 . S
H1318 C1309 0.929 . S
H1319 C1312 0.930 . S
C1320 C1321 1.351 . S
C1320 N1323 1.368 . S
C1320 H1325 0.931 . S
C1321 C1320 1.351 . S
C1321 N1322 1.373 . S
C1321 H1349 0.930 . S
N1322 C1321 1.373 . S
N1322 C1324 1.340 . S
N1323 C1320 1.368 . S
N1323 C1324 1.321 . S
N1323 Co1326 2.135 . S
C1324 N1322 1.340 . S
C1324 N1323 1.321 . S
C1324 H1348 0.930 . S
H1325 C1320 0.931 . S
Co1326 N1323 2.135 . S
Co1326 N1329 2.121 . S
Co1326 O1334 2.055 . S
Co1326 O1337 2.039 . S
Co1326 N1340 2.140 . S
C1327 O1328 1.227 . S
C1327 O1337 1.265 . S
O1328 C1327 1.227 . S
N1329 Co1326 2.121 . S
N1329 C1331 1.375 . S
N1329 C1332 1.313 . S
C1330 C1331 1.338 . S
C1330 N1333 1.377 . S
C1330 H1350 0.930 . S
C1331 N1329 1.375 . S
C1331 C1330 1.338 . S
C1331 H1335 0.931 . S
C1332 N1329 1.313 . S
C1332 N1333 1.344 . S
C1332 H1336 0.930 . S
N1333 C1330 1.377 . S
N1333 C1332 1.344 . S
O1334 Co1326 2.055 . S
O1334 C1338 1.253 . S
H1335 C1331 0.931 . S
H1336 C1332 0.930 . S
O1337 Co1326 2.039 . S
O1337 C1327 1.265 . S
C1338 O1334 1.253 . S
C1338 O1339 1.227 . S
O1339 C1338 1.227 . S
N1340 Co1326 2.140 . S
N1340 C1343 1.346 . S
N1340 C1344 1.345 . S
C1341 C1342 1.387 . S
C1341 C1345 1.391 . S
C1342 C1341 1.387 . S
C1342 C1343 1.369 . S
C1342 H1351 0.929 . S
C1343 N1340 1.346 . S
C1343 C1342 1.369 . S
C1343 H1346 0.928 . S
C1344 N1340 1.345 . S
C1344 C1345 1.371 . S
C1344 H1347 0.931 . S
C1345 C1341 1.391 . S
C1345 C1344 1.371 . S
C1345 H1352 0.930 . S
H1346 C1343 0.928 . S
H1347 C1344 0.931 . S
H1348 C1324 0.930 . S
H1349 C1321 0.930 . S
H1350 C1330 0.930 . S
H1351 C1342 0.929 . S
H1352 C1345 0.930 . S
C1353 C1354 1.351 . S
C1353 N1356 1.368 . S
C1353 H1358 0.931 . S
C1354 C1353 1.351 . S
C1354 N1355 1.373 . S
C1354 H1382 0.930 . S
N1355 C1354 1.373 . S
N1355 C1357 1.340 . S
N1356 C1353 1.368 . S
N1356 C1357 1.321 . S
N1356 Co1359 2.135 . S
C1357 N1355 1.340 . S
C1357 N1356 1.321 . S
C1357 H1381 0.930 . S
H1358 C1353 0.931 . S
Co1359 N1356 2.135 . S
Co1359 N1362 2.121 . S
Co1359 O1367 2.055 . S
Co1359 O1370 2.039 . S
Co1359 N1373 2.140 . S
C1360 O1361 1.227 . S
C1360 O1370 1.265 . S
O1361 C1360 1.227 . S
N1362 Co1359 2.121 . S
N1362 C1364 1.375 . S
N1362 C1365 1.313 . S
C1363 C1364 1.338 . S
C1363 N1366 1.377 . S
C1363 H1383 0.930 . S
C1364 N1362 1.375 . S
C1364 C1363 1.338 . S
C1364 H1368 0.931 . S
C1365 N1362 1.313 . S
C1365 N1366 1.344 . S
C1365 H1369 0.930 . S
N1366 C1363 1.377 . S
N1366 C1365 1.344 . S
O1367 Co1359 2.055 . S
O1367 C1371 1.253 . S
H1368 C1364 0.931 . S
H1369 C1365 0.930 . S
O1370 Co1359 2.039 . S
O1370 C1360 1.265 . S
C1371 O1367 1.253 . S
C1371 O1372 1.227 . S
O1372 C1371 1.227 . S
N1373 Co1359 2.140 . S
N1373 C1376 1.346 . S
N1373 C1377 1.345 . S
C1374 C1375 1.387 . S
C1374 C1378 1.391 . S
C1375 C1374 1.387 . S
C1375 C1376 1.369 . S
C1375 H1384 0.929 . S
C1376 N1373 1.346 . S
C1376 C1375 1.369 . S
C1376 H1379 0.928 . S
C1377 N1373 1.345 . S
C1377 C1378 1.371 . S
C1377 H1380 0.931 . S
C1378 C1374 1.391 . S
C1378 C1377 1.371 . S
C1378 H1385 0.930 . S
H1379 C1376 0.928 . S
H1380 C1377 0.931 . S
H1381 C1357 0.930 . S
H1382 C1354 0.930 . S
H1383 C1363 0.930 . S
H1384 C1375 0.929 . S
H1385 C1378 0.930 . S
C1386 C1387 1.351 . S
C1386 N1389 1.368 . S
C1386 H1391 0.931 . S
C1387 C1386 1.351 . S
C1387 N1388 1.373 . S
C1387 H1415 0.930 . S
N1388 C1387 1.373 . S
N1388 C1390 1.340 . S
N1389 C1386 1.368 . S
N1389 C1390 1.321 . S
N1389 Co1392 2.135 . S
C1390 N1388 1.340 . S
C1390 N1389 1.321 . S
C1390 H1414 0.930 . S
H1391 C1386 0.931 . S
Co1392 N1389 2.135 . S
Co1392 N1395 2.121 . S
Co1392 O1400 2.055 . S
Co1392 O1403 2.039 . S
Co1392 N1406 2.140 . S
C1393 O1394 1.227 . S
C1393 O1403 1.265 . S
O1394 C1393 1.227 . S
N1395 Co1392 2.121 . S
N1395 C1397 1.375 . S
N1395 C1398 1.313 . S
C1396 C1397 1.338 . S
C1396 N1399 1.377 . S
C1396 H1416 0.930 . S
C1397 N1395 1.375 . S
C1397 C1396 1.338 . S
C1397 H1401 0.931 . S
C1398 N1395 1.313 . S
C1398 N1399 1.344 . S
C1398 H1402 0.930 . S
N1399 C1396 1.377 . S
N1399 C1398 1.344 . S
O1400 Co1392 2.055 . S
O1400 C1404 1.253 . S
H1401 C1397 0.931 . S
H1402 C1398 0.930 . S
O1403 Co1392 2.039 . S
O1403 C1393 1.265 . S
C1404 O1400 1.253 . S
C1404 O1405 1.227 . S
O1405 C1404 1.227 . S
N1406 Co1392 2.140 . S
N1406 C1409 1.346 . S
N1406 C1410 1.345 . S
C1407 C1408 1.387 . S
C1407 C1411 1.391 . S
C1408 C1407 1.387 . S
C1408 C1409 1.369 . S
C1408 H1417 0.929 . S
C1409 N1406 1.346 . S
C1409 C1408 1.369 . S
C1409 H1412 0.928 . S
C1410 N1406 1.345 . S
C1410 C1411 1.371 . S
C1410 H1413 0.931 . S
C1411 C1407 1.391 . S
C1411 C1410 1.371 . S
C1411 H1418 0.930 . S
H1412 C1409 0.928 . S
H1413 C1410 0.931 . S
H1414 C1390 0.930 . S
H1415 C1387 0.930 . S
H1416 C1396 0.930 . S
H1417 C1408 0.929 . S
H1418 C1411 0.930 . S
C1419 C1420 1.351 . S
C1419 N1422 1.368 . S
C1419 H1424 0.931 . S
C1420 C1419 1.351 . S
C1420 N1421 1.373 . S
C1420 H1448 0.930 . S
N1421 C1420 1.373 . S
N1421 C1423 1.340 . S
N1422 C1419 1.368 . S
N1422 C1423 1.321 . S
N1422 Co1425 2.135 . S
C1423 N1421 1.340 . S
C1423 N1422 1.321 . S
C1423 H1447 0.930 . S
H1424 C1419 0.931 . S
Co1425 N1422 2.135 . S
Co1425 N1428 2.121 . S
Co1425 O1433 2.055 . S
Co1425 O1436 2.039 . S
Co1425 N1439 2.140 . S
C1426 O1427 1.227 . S
C1426 O1436 1.265 . S
O1427 C1426 1.227 . S
N1428 Co1425 2.121 . S
N1428 C1430 1.375 . S
N1428 C1431 1.313 . S
C1429 C1430 1.338 . S
C1429 N1432 1.377 . S
C1429 H1449 0.930 . S
C1430 N1428 1.375 . S
C1430 C1429 1.338 . S
C1430 H1434 0.931 . S
C1431 N1428 1.313 . S
C1431 N1432 1.344 . S
C1431 H1435 0.930 . S
N1432 C1429 1.377 . S
N1432 C1431 1.344 . S
O1433 Co1425 2.055 . S
O1433 C1437 1.253 . S
H1434 C1430 0.931 . S
H1435 C1431 0.930 . S
O1436 Co1425 2.039 . S
O1436 C1426 1.265 . S
C1437 O1433 1.253 . S
C1437 O1438 1.227 . S
O1438 C1437 1.227 . S
N1439 Co1425 2.140 . S
N1439 C1442 1.346 . S
N1439 C1443 1.345 . S
C1440 C1441 1.387 . S
C1440 C1444 1.391 . S
C1441 C1440 1.387 . S
C1441 C1442 1.369 . S
C1441 H1450 0.929 . S
C1442 N1439 1.346 . S
C1442 C1441 1.369 . S
C1442 H1445 0.928 . S
C1443 N1439 1.345 . S
C1443 C1444 1.371 . S
C1443 H1446 0.931 . S
C1444 C1440 1.391 . S
C1444 C1443 1.371 . S
C1444 H1451 0.930 . S
H1445 C1442 0.928 . S
H1446 C1443 0.931 . S
H1447 C1423 0.930 . S
H1448 C1420 0.930 . S
H1449 C1429 0.930 . S
H1450 C1441 0.929 . S
H1451 C1444 0.930 . S
C1452 C1453 1.351 . S
C1452 N1455 1.368 . S
C1452 H1457 0.931 . S
C1453 C1452 1.351 . S
C1453 N1454 1.373 . S
C1453 H1481 0.930 . S
N1454 C1453 1.373 . S
N1454 C1456 1.340 . S
N1455 C1452 1.368 . S
N1455 C1456 1.321 . S
N1455 Co1458 2.135 . S
C1456 N1454 1.340 . S
C1456 N1455 1.321 . S
C1456 H1480 0.930 . S
H1457 C1452 0.931 . S
Co1458 N1455 2.135 . S
Co1458 N1461 2.121 . S
Co1458 O1466 2.055 . S
Co1458 O1469 2.039 . S
Co1458 N1472 2.140 . S
C1459 O1460 1.227 . S
C1459 O1469 1.265 . S
O1460 C1459 1.227 . S
N1461 Co1458 2.121 . S
N1461 C1463 1.375 . S
N1461 C1464 1.313 . S
C1462 C1463 1.338 . S
C1462 N1465 1.377 . S
C1462 H1482 0.930 . S
C1463 N1461 1.375 . S
C1463 C1462 1.338 . S
C1463 H1467 0.931 . S
C1464 N1461 1.313 . S
C1464 N1465 1.344 . S
C1464 H1468 0.930 . S
N1465 C1462 1.377 . S
N1465 C1464 1.344 . S
O1466 Co1458 2.055 . S
O1466 C1470 1.253 . S
H1467 C1463 0.931 . S
H1468 C1464 0.930 . S
O1469 Co1458 2.039 . S
O1469 C1459 1.265 . S
C1470 O1466 1.253 . S
C1470 O1471 1.227 . S
O1471 C1470 1.227 . S
N1472 Co1458 2.140 . S
N1472 C1475 1.346 . S
N1472 C1476 1.345 . S
C1473 C1474 1.387 . S
C1473 C1477 1.391 . S
C1474 C1473 1.387 . S
C1474 C1475 1.369 . S
C1474 H1483 0.929 . S
C1475 N1472 1.346 . S
C1475 C1474 1.369 . S
C1475 H1478 0.928 . S
C1476 N1472 1.345 . S
C1476 C1477 1.371 . S
C1476 H1479 0.931 . S
C1477 C1473 1.391 . S
C1477 C1476 1.371 . S
C1477 H1484 0.930 . S
H1478 C1475 0.928 . S
H1479 C1476 0.931 . S
H1480 C1456 0.930 . S
H1481 C1453 0.930 . S
H1482 C1462 0.930 . S
H1483 C1474 0.929 . S
H1484 C1477 0.930 . S
C1485 C1486 1.351 . S
C1485 N1488 1.368 . S
C1485 H1490 0.931 . S
C1486 C1485 1.351 . S
C1486 N1487 1.373 . S
C1486 H1514 0.930 . S
N1487 C1486 1.373 . S
N1487 C1489 1.340 . S
N1488 C1485 1.368 . S
N1488 C1489 1.321 . S
N1488 Co1491 2.135 . S
C1489 N1487 1.340 . S
C1489 N1488 1.321 . S
C1489 H1513 0.930 . S
H1490 C1485 0.931 . S
Co1491 N1488 2.135 . S
Co1491 N1494 2.121 . S
Co1491 O1499 2.055 . S
Co1491 O1502 2.039 . S
Co1491 N1505 2.140 . S
C1492 O1493 1.227 . S
C1492 O1502 1.265 . S
O1493 C1492 1.227 . S
N1494 Co1491 2.121 . S
N1494 C1496 1.375 . S
N1494 C1497 1.313 . S
C1495 C1496 1.338 . S
C1495 N1498 1.377 . S
C1495 H1515 0.930 . S
C1496 N1494 1.375 . S
C1496 C1495 1.338 . S
C1496 H1500 0.931 . S
C1497 N1494 1.313 . S
C1497 N1498 1.344 . S
C1497 H1501 0.930 . S
N1498 C1495 1.377 . S
N1498 C1497 1.344 . S
O1499 Co1491 2.055 . S
O1499 C1503 1.253 . S
H1500 C1496 0.931 . S
H1501 C1497 0.930 . S
O1502 Co1491 2.039 . S
O1502 C1492 1.265 . S
C1503 O1499 1.253 . S
C1503 O1504 1.227 . S
O1504 C1503 1.227 . S
N1505 Co1491 2.140 . S
N1505 C1508 1.346 . S
N1505 C1509 1.345 . S
C1506 C1507 1.387 . S
C1506 C1510 1.391 . S
C1507 C1506 1.387 . S
C1507 C1508 1.369 . S
C1507 H1516 0.929 . S
C1508 N1505 1.346 . S
C1508 C1507 1.369 . S
C1508 H1511 0.928 . S
C1509 N1505 1.345 . S
C1509 C1510 1.371 . S
C1509 H1512 0.931 . S
C1510 C1506 1.391 . S
C1510 C1509 1.371 . S
C1510 H1517 0.930 . S
H1511 C1508 0.928 . S
H1512 C1509 0.931 . S
H1513 C1489 0.930 . S
H1514 C1486 0.930 . S
H1515 C1495 0.930 . S
H1516 C1507 0.929 . S
H1517 C1510 0.930 . S
C1518 C1519 1.351 . S
C1518 N1521 1.368 . S
C1518 H1523 0.931 . S
C1519 C1518 1.351 . S
C1519 N1520 1.373 . S
C1519 H1547 0.930 . S
N1520 C1519 1.373 . S
N1520 C1522 1.340 . S
N1521 C1518 1.368 . S
N1521 C1522 1.321 . S
N1521 Co1524 2.135 . S
C1522 N1520 1.340 . S
C1522 N1521 1.321 . S
C1522 H1546 0.930 . S
H1523 C1518 0.931 . S
Co1524 N1521 2.135 . S
Co1524 N1527 2.121 . S
Co1524 O1532 2.055 . S
Co1524 O1535 2.039 . S
Co1524 N1538 2.140 . S
C1525 O1526 1.227 . S
C1525 O1535 1.265 . S
O1526 C1525 1.227 . S
N1527 Co1524 2.121 . S
N1527 C1529 1.375 . S
N1527 C1530 1.313 . S
C1528 C1529 1.338 . S
C1528 N1531 1.377 . S
C1528 H1548 0.930 . S
C1529 N1527 1.375 . S
C1529 C1528 1.338 . S
C1529 H1533 0.931 . S
C1530 N1527 1.313 . S
C1530 N1531 1.344 . S
C1530 H1534 0.930 . S
N1531 C1528 1.377 . S
N1531 C1530 1.344 . S
O1532 Co1524 2.055 . S
O1532 C1536 1.253 . S
H1533 C1529 0.931 . S
H1534 C1530 0.930 . S
O1535 Co1524 2.039 . S
O1535 C1525 1.265 . S
C1536 O1532 1.253 . S
C1536 O1537 1.227 . S
O1537 C1536 1.227 . S
N1538 Co1524 2.140 . S
N1538 C1541 1.346 . S
N1538 C1542 1.345 . S
C1539 C1540 1.387 . S
C1539 C1543 1.391 . S
C1540 C1539 1.387 . S
C1540 C1541 1.369 . S
C1540 H1549 0.929 . S
C1541 N1538 1.346 . S
C1541 C1540 1.369 . S
C1541 H1544 0.928 . S
C1542 N1538 1.345 . S
C1542 C1543 1.371 . S
C1542 H1545 0.931 . S
C1543 C1539 1.391 . S
C1543 C1542 1.371 . S
C1543 H1550 0.930 . S
H1544 C1541 0.928 . S
H1545 C1542 0.931 . S
H1546 C1522 0.930 . S
H1547 C1519 0.930 . S
H1548 C1528 0.930 . S
H1549 C1540 0.929 . S
H1550 C1543 0.930 . S
C1551 C1552 1.351 . S
C1551 N1554 1.368 . S
C1551 H1556 0.931 . S
C1552 C1551 1.351 . S
C1552 N1553 1.373 . S
C1552 H1580 0.930 . S
N1553 C1552 1.373 . S
N1553 C1555 1.340 . S
N1554 C1551 1.368 . S
N1554 C1555 1.321 . S
N1554 Co1557 2.135 . S
C1555 N1553 1.340 . S
C1555 N1554 1.321 . S
C1555 H1579 0.930 . S
H1556 C1551 0.931 . S
Co1557 N1554 2.135 . S
Co1557 N1560 2.121 . S
Co1557 O1565 2.055 . S
Co1557 O1568 2.039 . S
Co1557 N1571 2.140 . S
C1558 O1559 1.227 . S
C1558 O1568 1.265 . S
O1559 C1558 1.227 . S
N1560 Co1557 2.121 . S
N1560 C1562 1.375 . S
N1560 C1563 1.313 . S
C1561 C1562 1.338 . S
C1561 N1564 1.377 . S
C1561 H1581 0.930 . S
C1562 N1560 1.375 . S
C1562 C1561 1.338 . S
C1562 H1566 0.931 . S
C1563 N1560 1.313 . S
C1563 N1564 1.344 . S
C1563 H1567 0.930 . S
N1564 C1561 1.377 . S
N1564 C1563 1.344 . S
O1565 Co1557 2.055 . S
O1565 C1569 1.253 . S
H1566 C1562 0.931 . S
H1567 C1563 0.930 . S
O1568 Co1557 2.039 . S
O1568 C1558 1.265 . S
C1569 O1565 1.253 . S
C1569 O1570 1.227 . S
O1570 C1569 1.227 . S
N1571 Co1557 2.140 . S
N1571 C1574 1.346 . S
N1571 C1575 1.345 . S
C1572 C1573 1.387 . S
C1572 C1576 1.391 . S
C1573 C1572 1.387 . S
C1573 C1574 1.369 . S
C1573 H1582 0.929 . S
C1574 N1571 1.346 . S
C1574 C1573 1.369 . S
C1574 H1577 0.928 . S
C1575 N1571 1.345 . S
C1575 C1576 1.371 . S
C1575 H1578 0.931 . S
C1576 C1572 1.391 . S
C1576 C1575 1.371 . S
C1576 H1583 0.930 . S
H1577 C1574 0.928 . S
H1578 C1575 0.931 . S
H1579 C1555 0.930 . S
H1580 C1552 0.930 . S
H1581 C1561 0.930 . S
H1582 C1573 0.929 . S
H1583 C1576 0.930 . S
H1584 C1592 0.929 . S
H1585 C1594 0.930 . S
H1586 C1596 0.930 . S
H1587 C1599 0.929 . S
H1588 C1602 0.930 . S
H1589 C1604 0.960 . S
H1590 C1604 0.960 . S
H1591 C1604 0.960 . S
C1592 H1584 0.929 . S
C1592 C1593 1.377 . S
C1592 C1594 1.384 . S
C1593 C1592 1.377 . S
C1593 C1599 1.390 . S
C1594 H1585 0.930 . S
C1594 C1592 1.384 . S
C1594 C1595 1.372 . S
C1595 C1594 1.372 . S
C1595 C1596 1.400 . S
C1595 C1600 1.490 . S
C1596 H1586 0.930 . S
C1596 C1595 1.400 . S
C1596 C1599 1.386 . S
H1597 C1613 0.930 . S
H1598 C1614 0.931 . S
C1599 H1587 0.929 . S
C1599 C1593 1.390 . S
C1599 C1596 1.386 . S
C1600 C1595 1.490 . S
C1600 C1602 1.395 . S
C1600 C1603 1.403 . S
H1601 C1607 0.930 . S
C1602 H1588 0.930 . S
C1602 C1600 1.395 . S
C1602 C1605 1.403 . S
C1603 C1600 1.403 . S
C1603 C1604 1.524 . S
C1603 C1607 1.400 . S
C1604 H1589 0.960 . S
C1604 H1590 0.960 . S
C1604 H1591 0.960 . S
C1604 C1603 1.524 . S
C1605 C1602 1.403 . S
C1605 C1606 1.392 . S
C1605 C1609 1.495 . S
C1606 C1605 1.392 . S
C1606 C1607 1.385 . S
C1606 C1608 1.478 . S
C1607 H1601 0.930 . S
C1607 C1603 1.400 . S
C1607 C1606 1.385 . S
C1608 C1606 1.478 . S
C1608 C1610 1.381 . S
C1608 C1614 1.383 . S
C1609 C1605 1.495 . S
C1609 H1615 0.959 . S
C1609 H1616 0.961 . S
C1609 H1617 0.960 . S
C1610 C1608 1.381 . S
C1610 C1611 1.394 . S
C1610 H1618 0.930 . S
C1611 C1610 1.394 . S
C1611 C1612 1.383 . S
C1611 H1619 0.929 . S
C1612 C1611 1.383 . S
C1612 C1613 1.377 . S
C1613 H1597 0.930 . S
C1613 C1612 1.377 . S
C1613 C1614 1.379 . S
C1614 H1598 0.931 . S
C1614 C1608 1.383 . S
C1614 C1613 1.379 . S
H1615 C1609 0.959 . S
H1616 C1609 0.961 . S
H1617 C1609 0.960 . S
H1618 C1610 0.930 . S
H1619 C1611 0.929 . S
H1620 C1628 0.929 . S
H1621 C1630 0.930 . S
H1622 C1632 0.930 . S
H1623 C1635 0.929 . S
H1624 C1638 0.930 . S
H1625 C1640 0.960 . S
H1626 C1640 0.960 . S
H1627 C1640 0.960 . S
C1628 H1620 0.929 . S
C1628 C1629 1.377 . S
C1628 C1630 1.384 . S
C1629 C1628 1.377 . S
C1629 C1635 1.390 . S
C1630 H1621 0.930 . S
C1630 C1628 1.384 . S
C1630 C1631 1.372 . S
C1631 C1630 1.372 . S
C1631 C1632 1.400 . S
C1631 C1636 1.490 . S
C1632 H1622 0.930 . S
C1632 C1631 1.400 . S
C1632 C1635 1.386 . S
H1633 C1649 0.930 . S
H1634 C1650 0.931 . S
C1635 H1623 0.929 . S
C1635 C1629 1.390 . S
C1635 C1632 1.386 . S
C1636 C1631 1.490 . S
C1636 C1638 1.395 . S
C1636 C1639 1.403 . S
H1637 C1643 0.930 . S
C1638 H1624 0.930 . S
C1638 C1636 1.395 . S
C1638 C1641 1.403 . S
C1639 C1636 1.403 . S
C1639 C1640 1.524 . S
C1639 C1643 1.400 . S
C1640 H1625 0.960 . S
C1640 H1626 0.960 . S
C1640 H1627 0.960 . S
C1640 C1639 1.524 . S
C1641 C1638 1.403 . S
C1641 C1642 1.392 . S
C1641 C1645 1.495 . S
C1642 C1641 1.392 . S
C1642 C1643 1.385 . S
C1642 C1644 1.478 . S
C1643 H1637 0.930 . S
C1643 C1639 1.400 . S
C1643 C1642 1.385 . S
C1644 C1642 1.478 . S
C1644 C1646 1.381 . S
C1644 C1650 1.383 . S
C1645 C1641 1.495 . S
C1645 H1651 0.959 . S
C1645 H1652 0.961 . S
C1645 H1653 0.960 . S
C1646 C1644 1.381 . S
C1646 C1647 1.394 . S
C1646 H1654 0.930 . S
C1647 C1646 1.394 . S
C1647 C1648 1.383 . S
C1647 H1655 0.929 . S
C1648 C1647 1.383 . S
C1648 C1649 1.377 . S
C1649 H1633 0.930 . S
C1649 C1648 1.377 . S
C1649 C1650 1.379 . S
C1650 H1634 0.931 . S
C1650 C1644 1.383 . S
C1650 C1649 1.379 . S
H1651 C1645 0.959 . S
H1652 C1645 0.961 . S
H1653 C1645 0.960 . S
H1654 C1646 0.930 . S
H1655 C1647 0.929 . S
H1656 C1664 0.929 . S
H1657 C1666 0.930 . S
H1658 C1668 0.930 . S
H1659 C1671 0.929 . S
H1660 C1674 0.930 . S
H1661 C1676 0.960 . S
H1662 C1676 0.960 . S
H1663 C1676 0.960 . S
C1664 H1656 0.929 . S
C1664 C1665 1.377 . S
C1664 C1666 1.384 . S
C1665 C1664 1.377 . S
C1665 C1671 1.390 . S
C1666 H1657 0.930 . S
C1666 C1664 1.384 . S
C1666 C1667 1.372 . S
C1667 C1666 1.372 . S
C1667 C1668 1.400 . S
C1667 C1672 1.490 . S
C1668 H1658 0.930 . S
C1668 C1667 1.400 . S
C1668 C1671 1.386 . S
H1669 C1685 0.930 . S
H1670 C1686 0.931 . S
C1671 H1659 0.929 . S
C1671 C1665 1.390 . S
C1671 C1668 1.386 . S
C1672 C1667 1.490 . S
C1672 C1674 1.395 . S
C1672 C1675 1.403 . S
H1673 C1679 0.930 . S
C1674 H1660 0.930 . S
C1674 C1672 1.395 . S
C1674 C1677 1.403 . S
C1675 C1672 1.403 . S
C1675 C1676 1.524 . S
C1675 C1679 1.400 . S
C1676 H1661 0.960 . S
C1676 H1662 0.960 . S
C1676 H1663 0.960 . S
C1676 C1675 1.524 . S
C1677 C1674 1.403 . S
C1677 C1678 1.392 . S
C1677 C1681 1.495 . S
C1678 C1677 1.392 . S
C1678 C1679 1.385 . S
C1678 C1680 1.478 . S
C1679 H1673 0.930 . S
C1679 C1675 1.400 . S
C1679 C1678 1.385 . S
C1680 C1678 1.478 . S
C1680 C1682 1.381 . S
C1680 C1686 1.383 . S
C1681 C1677 1.495 . S
C1681 H1687 0.959 . S
C1681 H1688 0.961 . S
C1681 H1689 0.960 . S
C1682 C1680 1.381 . S
C1682 C1683 1.394 . S
C1682 H1690 0.930 . S
C1683 C1682 1.394 . S
C1683 C1684 1.383 . S
C1683 H1691 0.929 . S
C1684 C1683 1.383 . S
C1684 C1685 1.377 . S
C1685 H1669 0.930 . S
C1685 C1684 1.377 . S
C1685 C1686 1.379 . S
C1686 H1670 0.931 . S
C1686 C1680 1.383 . S
C1686 C1685 1.379 . S
H1687 C1681 0.959 . S
H1688 C1681 0.961 . S
H1689 C1681 0.960 . S
H1690 C1682 0.930 . S
H1691 C1683 0.929 . S
H1692 C1700 0.929 . S
H1693 C1702 0.930 . S
H1694 C1704 0.930 . S
H1695 C1707 0.929 . S
H1696 C1710 0.930 . S
H1697 C1712 0.960 . S
H1698 C1712 0.960 . S
H1699 C1712 0.960 . S
C1700 H1692 0.929 . S
C1700 C1701 1.377 . S
C1700 C1702 1.384 . S
C1701 C1700 1.377 . S
C1701 C1707 1.390 . S
C1702 H1693 0.930 . S
C1702 C1700 1.384 . S
C1702 C1703 1.372 . S
C1703 C1702 1.372 . S
C1703 C1704 1.400 . S
C1703 C1708 1.490 . S
C1704 H1694 0.930 . S
C1704 C1703 1.400 . S
C1704 C1707 1.386 . S
H1705 C1721 0.930 . S
H1706 C1722 0.931 . S
C1707 H1695 0.929 . S
C1707 C1701 1.390 . S
C1707 C1704 1.386 . S
C1708 C1703 1.490 . S
C1708 C1710 1.395 . S
C1708 C1711 1.403 . S
H1709 C1715 0.930 . S
C1710 H1696 0.930 . S
C1710 C1708 1.395 . S
C1710 C1713 1.403 . S
C1711 C1708 1.403 . S
C1711 C1712 1.524 . S
C1711 C1715 1.400 . S
C1712 H1697 0.960 . S
C1712 H1698 0.960 . S
C1712 H1699 0.960 . S
C1712 C1711 1.524 . S
C1713 C1710 1.403 . S
C1713 C1714 1.392 . S
C1713 C1717 1.495 . S
C1714 C1713 1.392 . S
C1714 C1715 1.385 . S
C1714 C1716 1.478 . S
C1715 H1709 0.930 . S
C1715 C1711 1.400 . S
C1715 C1714 1.385 . S
C1716 C1714 1.478 . S
C1716 C1718 1.381 . S
C1716 C1722 1.383 . S
C1717 C1713 1.495 . S
C1717 H1723 0.959 . S
C1717 H1724 0.961 . S
C1717 H1725 0.960 . S
C1718 C1716 1.381 . S
C1718 C1719 1.394 . S
C1718 H1726 0.930 . S
C1719 C1718 1.394 . S
C1719 C1720 1.383 . S
C1719 H1727 0.929 . S
C1720 C1719 1.383 . S
C1720 C1721 1.377 . S
C1721 H1705 0.930 . S
C1721 C1720 1.377 . S
C1721 C1722 1.379 . S
C1722 H1706 0.931 . S
C1722 C1716 1.383 . S
C1722 C1721 1.379 . S
H1723 C1717 0.959 . S
H1724 C1717 0.961 . S
H1725 C1717 0.960 . S
H1726 C1718 0.930 . S
H1727 C1719 0.929 . S
H1728 C1736 0.929 . S
H1729 C1738 0.930 . S
H1730 C1740 0.930 . S
H1731 C1743 0.929 . S
H1732 C1746 0.930 . S
H1733 C1748 0.960 . S
H1734 C1748 0.960 . S
H1735 C1748 0.960 . S
C1736 H1728 0.929 . S
C1736 C1737 1.377 . S
C1736 C1738 1.384 . S
C1737 C1736 1.377 . S
C1737 C1743 1.390 . S
C1738 H1729 0.930 . S
C1738 C1736 1.384 . S
C1738 C1739 1.372 . S
C1739 C1738 1.372 . S
C1739 C1740 1.400 . S
C1739 C1744 1.490 . S
C1740 H1730 0.930 . S
C1740 C1739 1.400 . S
C1740 C1743 1.386 . S
H1741 C1757 0.930 . S
H1742 C1758 0.931 . S
C1743 H1731 0.929 . S
C1743 C1737 1.390 . S
C1743 C1740 1.386 . S
C1744 C1739 1.490 . S
C1744 C1746 1.395 . S
C1744 C1747 1.403 . S
H1745 C1751 0.930 . S
C1746 H1732 0.930 . S
C1746 C1744 1.395 . S
C1746 C1749 1.403 . S
C1747 C1744 1.403 . S
C1747 C1748 1.524 . S
C1747 C1751 1.400 . S
C1748 H1733 0.960 . S
C1748 H1734 0.960 . S
C1748 H1735 0.960 . S
C1748 C1747 1.524 . S
C1749 C1746 1.403 . S
C1749 C1750 1.392 . S
C1749 C1753 1.495 . S
C1750 C1749 1.392 . S
C1750 C1751 1.385 . S
C1750 C1752 1.478 . S
C1751 H1745 0.930 . S
C1751 C1747 1.400 . S
C1751 C1750 1.385 . S
C1752 C1750 1.478 . S
C1752 C1754 1.381 . S
C1752 C1758 1.383 . S
C1753 C1749 1.495 . S
C1753 H1759 0.959 . S
C1753 H1760 0.961 . S
C1753 H1761 0.960 . S
C1754 C1752 1.381 . S
C1754 C1755 1.394 . S
C1754 H1762 0.930 . S
C1755 C1754 1.394 . S
C1755 C1756 1.383 . S
C1755 H1763 0.929 . S
C1756 C1755 1.383 . S
C1756 C1757 1.377 . S
C1757 H1741 0.930 . S
C1757 C1756 1.377 . S
C1757 C1758 1.379 . S
C1758 H1742 0.931 . S
C1758 C1752 1.383 . S
C1758 C1757 1.379 . S
H1759 C1753 0.959 . S
H1760 C1753 0.961 . S
H1761 C1753 0.960 . S
H1762 C1754 0.930 . S
H1763 C1755 0.929 . S
H1764 C1772 0.929 . S
H1765 C1774 0.930 . S
H1766 C1776 0.930 . S
H1767 C1779 0.929 . S
H1768 C1782 0.930 . S
H1769 C1784 0.960 . S
H1770 C1784 0.960 . S
H1771 C1784 0.960 . S
C1772 H1764 0.929 . S
C1772 C1773 1.377 . S
C1772 C1774 1.384 . S
C1773 C1772 1.377 . S
C1773 C1779 1.390 . S
C1774 H1765 0.930 . S
C1774 C1772 1.384 . S
C1774 C1775 1.372 . S
C1775 C1774 1.372 . S
C1775 C1776 1.400 . S
C1775 C1780 1.490 . S
C1776 H1766 0.930 . S
C1776 C1775 1.400 . S
C1776 C1779 1.386 . S
H1777 C1793 0.930 . S
H1778 C1794 0.931 . S
C1779 H1767 0.929 . S
C1779 C1773 1.390 . S
C1779 C1776 1.386 . S
C1780 C1775 1.490 . S
C1780 C1782 1.395 . S
C1780 C1783 1.403 . S
H1781 C1787 0.930 . S
C1782 H1768 0.930 . S
C1782 C1780 1.395 . S
C1782 C1785 1.403 . S
C1783 C1780 1.403 . S
C1783 C1784 1.524 . S
C1783 C1787 1.400 . S
C1784 H1769 0.960 . S
C1784 H1770 0.960 . S
C1784 H1771 0.960 . S
C1784 C1783 1.524 . S
C1785 C1782 1.403 . S
C1785 C1786 1.392 . S
C1785 C1789 1.495 . S
C1786 C1785 1.392 . S
C1786 C1787 1.385 . S
C1786 C1788 1.478 . S
C1787 H1781 0.930 . S
C1787 C1783 1.400 . S
C1787 C1786 1.385 . S
C1788 C1786 1.478 . S
C1788 C1790 1.381 . S
C1788 C1794 1.383 1_655 S
C1789 C1785 1.495 . S
C1789 H1795 0.959 . S
C1789 H1796 0.961 . S
C1789 H1797 0.960 . S
C1790 C1788 1.381 . S
C1790 C1791 1.394 1_655 S
C1790 H1798 0.930 . S
C1791 C1790 1.394 1_455 S
C1791 C1792 1.383 . S
C1791 H1799 0.929 . S
C1792 C1791 1.383 . S
C1792 C1793 1.377 . S
C1793 H1777 0.930 . S
C1793 C1792 1.377 . S
C1793 C1794 1.379 . S
C1794 H1778 0.931 . S
C1794 C1788 1.383 1_455 S
C1794 C1793 1.379 . S
H1795 C1789 0.959 . S
H1796 C1789 0.961 . S
H1797 C1789 0.960 . S
H1798 C1790 0.930 . S
H1799 C1791 0.929 . S
H1800 C1808 0.929 . S
H1801 C1810 0.930 . S
H1802 C1812 0.930 . S
H1803 C1815 0.929 . S
H1804 C1818 0.930 . S
H1805 C1820 0.960 . S
H1806 C1820 0.960 . S
H1807 C1820 0.960 . S
C1808 H1800 0.929 . S
C1808 C1809 1.377 . S
C1808 C1810 1.384 . S
C1809 C1808 1.377 . S
C1809 C1815 1.390 . S
C1810 H1801 0.930 . S
C1810 C1808 1.384 . S
C1810 C1811 1.372 . S
C1811 C1810 1.372 . S
C1811 C1812 1.400 . S
C1811 C1816 1.490 . S
C1812 H1802 0.930 . S
C1812 C1811 1.400 . S
C1812 C1815 1.386 . S
H1813 C1829 0.930 . S
H1814 C1830 0.931 . S
C1815 H1803 0.929 . S
C1815 C1809 1.390 . S
C1815 C1812 1.386 . S
C1816 C1811 1.490 . S
C1816 C1818 1.395 . S
C1816 C1819 1.403 . S
H1817 C1823 0.930 . S
C1818 H1804 0.930 . S
C1818 C1816 1.395 . S
C1818 C1821 1.403 . S
C1819 C1816 1.403 . S
C1819 C1820 1.524 . S
C1819 C1823 1.400 . S
C1820 H1805 0.960 . S
C1820 H1806 0.960 . S
C1820 H1807 0.960 . S
C1820 C1819 1.524 . S
C1821 C1818 1.403 . S
C1821 C1822 1.392 . S
C1821 C1825 1.495 . S
C1822 C1821 1.392 . S
C1822 C1823 1.385 . S
C1822 C1824 1.478 . S
C1823 H1817 0.930 . S
C1823 C1819 1.400 . S
C1823 C1822 1.385 . S
C1824 C1822 1.478 . S
C1824 C1826 1.381 . S
C1824 C1830 1.383 . S
C1825 C1821 1.495 . S
C1825 H1831 0.959 . S
C1825 H1832 0.961 . S
C1825 H1833 0.960 . S
C1826 C1824 1.381 . S
C1826 C1827 1.394 . S
C1826 H1834 0.930 . S
C1827 C1826 1.394 . S
C1827 C1828 1.383 . S
C1827 H1835 0.929 . S
C1828 C1827 1.383 . S
C1828 C1829 1.377 . S
C1829 H1813 0.930 . S
C1829 C1828 1.377 . S
C1829 C1830 1.379 . S
C1830 H1814 0.931 . S
C1830 C1824 1.383 . S
C1830 C1829 1.379 . S
H1831 C1825 0.959 . S
H1832 C1825 0.961 . S
H1833 C1825 0.960 . S
H1834 C1826 0.930 . S
H1835 C1827 0.929 . S
H1836 C1844 0.929 . S
H1837 C1846 0.921 1_455 S
H1838 C1848 0.930 . S
H1839 C1851 0.929 . S
H1840 C1854 0.930 . S
H1841 C1856 0.960 . S
H1842 C1856 0.960 . S
H1843 C1856 0.960 . S
C1844 H1836 0.929 . S
C1844 C1845 1.377 . S
C1844 C1846 1.397 . S
C1845 C1844 1.377 . S
C1845 C1851 1.390 . S
C1846 H1837 0.921 1_655 S
C1846 C1844 1.397 . S
C1846 C1847 1.367 1_655 S
C1847 C1846 1.367 1_455 S
C1847 C1848 1.400 1_455 S
C1847 C1852 1.490 . S
C1848 H1838 0.930 . S
C1848 C1847 1.400 1_655 S
C1848 C1851 1.386 . S
H1849 C1865 0.930 . S
H1850 C1866 0.931 . S
C1851 H1839 0.929 . S
C1851 C1845 1.390 . S
C1851 C1848 1.386 . S
C1852 C1847 1.490 . S
C1852 C1854 1.395 . S
C1852 C1855 1.403 . S
H1853 C1859 0.930 . S
C1854 H1840 0.930 . S
C1854 C1852 1.395 . S
C1854 C1857 1.403 . S
C1855 C1852 1.403 . S
C1855 C1856 1.524 . S
C1855 C1859 1.400 . S
C1856 H1841 0.960 . S
C1856 H1842 0.960 . S
C1856 H1843 0.960 . S
C1856 C1855 1.524 . S
C1857 C1854 1.403 . S
C1857 C1858 1.392 . S
C1857 C1861 1.495 . S
C1858 C1857 1.392 . S
C1858 C1859 1.385 . S
C1858 C1860 1.478 . S
C1859 H1853 0.930 . S
C1859 C1855 1.400 . S
C1859 C1858 1.385 . S
C1860 C1858 1.478 . S
C1860 C1862 1.381 . S
C1860 C1866 1.383 . S
C1861 C1857 1.495 . S
C1861 H1867 0.959 . S
C1861 H1868 0.961 . S
C1861 H1869 0.960 . S
C1862 C1860 1.381 . S
C1862 C1863 1.394 . S
C1862 H1870 0.930 . S
C1863 C1862 1.394 . S
C1863 C1864 1.383 . S
C1863 H1871 0.929 . S
C1864 C1863 1.383 . S
C1864 C1865 1.377 . S
C1865 H1849 0.930 . S
C1865 C1864 1.377 . S
C1865 C1866 1.379 . S
C1866 H1850 0.931 . S
C1866 C1860 1.383 . S
C1866 C1865 1.379 . S
H1867 C1861 0.959 . S
H1868 C1861 0.961 . S
H1869 C1861 0.960 . S
H1870 C1862 0.930 . S
H1871 C1863 0.929 . S
H1872 C1880 0.929 . S
H1873 C1882 0.930 . S
H1874 C1884 0.930 . S
H1875 C1887 0.929 . S
H1876 C1890 0.930 . S
H1877 C1892 0.960 . S
H1878 C1892 0.960 . S
H1879 C1892 0.960 . S
C1880 H1872 0.929 . S
C1880 C1881 1.377 . S
C1880 C1882 1.384 . S
C1881 C1880 1.377 . S
C1881 C1887 1.390 . S
C1882 H1873 0.930 . S
C1882 C1880 1.384 . S
C1882 C1883 1.372 . S
C1883 C1882 1.372 . S
C1883 C1884 1.400 . S
C1883 C1888 1.490 . S
C1884 H1874 0.930 . S
C1884 C1883 1.400 . S
C1884 C1887 1.386 . S
H1885 C1901 0.930 . S
H1886 C1902 0.931 . S
C1887 H1875 0.929 . S
C1887 C1881 1.390 . S
C1887 C1884 1.386 . S
C1888 C1883 1.490 . S
C1888 C1890 1.395 . S
C1888 C1891 1.403 . S
H1889 C1895 0.930 . S
C1890 H1876 0.930 . S
C1890 C1888 1.395 . S
C1890 C1893 1.403 . S
C1891 C1888 1.403 . S
C1891 C1892 1.524 . S
C1891 C1895 1.400 . S
C1892 H1877 0.960 . S
C1892 H1878 0.960 . S
C1892 H1879 0.960 . S
C1892 C1891 1.524 . S
C1893 C1890 1.403 . S
C1893 C1894 1.392 . S
C1893 C1897 1.495 . S
C1894 C1893 1.392 . S
C1894 C1895 1.385 . S
C1894 C1896 1.478 . S
C1895 H1889 0.930 . S
C1895 C1891 1.400 . S
C1895 C1894 1.385 . S
C1896 C1894 1.478 . S
C1896 C1898 1.381 . S
C1896 C1902 1.383 . S
C1897 C1893 1.495 . S
C1897 H1903 0.959 . S
C1897 H1904 0.961 . S
C1897 H1905 0.960 . S
C1898 C1896 1.381 . S
C1898 C1899 1.394 . S
C1898 H1906 0.930 . S
C1899 C1898 1.394 . S
C1899 C1900 1.383 . S
C1899 H1907 0.929 . S
C1900 C1899 1.383 . S
C1900 C1901 1.377 . S
C1901 H1885 0.930 . S
C1901 C1900 1.377 . S
C1901 C1902 1.379 . S
C1902 H1886 0.931 . S
C1902 C1896 1.383 . S
C1902 C1901 1.379 . S
H1903 C1897 0.959 . S
H1904 C1897 0.961 . S
H1905 C1897 0.960 . S
H1906 C1898 0.930 . S
H1907 C1899 0.929 . S
H1908 C1916 0.929 . S
H1909 C1918 0.930 . S
H1910 C1920 0.930 . S
H1911 C1923 0.929 . S
H1912 C1926 0.930 . S
H1913 C1928 0.960 . S
H1914 C1928 0.960 . S
H1915 C1928 0.960 . S
C1916 H1908 0.929 . S
C1916 C1917 1.377 . S
C1916 C1918 1.384 1_554 S
C1917 C1916 1.377 . S
C1917 C1923 1.390 . S
C1918 H1909 0.930 . S
C1918 C1916 1.384 1_556 S
C1918 C1919 1.372 . S
C1919 C1918 1.372 . S
C1919 C1920 1.400 1_556 S
C1919 C1924 1.490 . S
C1920 H1910 0.930 . S
C1920 C1919 1.400 1_554 S
C1920 C1923 1.386 . S
H1921 C1937 0.930 . S
H1922 C1938 0.931 . S
C1923 H1911 0.929 . S
C1923 C1917 1.390 . S
C1923 C1920 1.386 . S
C1924 C1919 1.490 . S
C1924 C1926 1.395 . S
C1924 C1927 1.403 . S
H1925 C1931 0.930 . S
C1926 H1912 0.930 . S
C1926 C1924 1.395 . S
C1926 C1929 1.403 . S
C1927 C1924 1.403 . S
C1927 C1928 1.524 . S
C1927 C1931 1.400 . S
C1928 H1913 0.960 . S
C1928 H1914 0.960 . S
C1928 H1915 0.960 . S
C1928 C1927 1.524 . S
C1929 C1926 1.403 . S
C1929 C1930 1.392 . S
C1929 C1933 1.495 . S
C1930 C1929 1.392 . S
C1930 C1931 1.385 . S
C1930 C1932 1.478 . S
C1931 H1925 0.930 . S
C1931 C1927 1.400 . S
C1931 C1930 1.385 . S
C1932 C1930 1.478 . S
C1932 C1934 1.381 . S
C1932 C1938 1.383 . S
C1933 C1929 1.495 . S
C1933 H1939 0.959 . S
C1933 H1940 0.961 . S
C1933 H1941 0.960 . S
C1934 C1932 1.381 . S
C1934 C1935 1.394 . S
C1934 H1942 0.930 . S
C1935 C1934 1.394 . S
C1935 C1936 1.383 . S
C1935 H1943 0.929 . S
C1936 C1935 1.383 . S
C1936 C1937 1.377 . S
C1937 H1921 0.930 . S
C1937 C1936 1.377 . S
C1937 C1938 1.379 . S
C1938 H1922 0.931 . S
C1938 C1932 1.383 . S
C1938 C1937 1.379 . S
H1939 C1933 0.959 . S
H1940 C1933 0.961 . S
H1941 C1933 0.960 . S
H1942 C1934 0.930 . S
H1943 C1935 0.929 . S
H1944 C1952 0.929 . S
H1945 C1954 0.930 . S
H1946 C1956 0.930 . S
H1947 C1959 0.929 . S
H1948 C1962 0.930 . S
H1949 C1964 0.960 . S
H1950 C1964 0.960 . S
H1951 C1964 0.960 . S
C1952 H1944 0.929 . S
C1952 C1953 1.377 . S
C1952 C1954 1.384 . S
C1953 C1952 1.377 . S
C1953 C1959 1.390 . S
C1954 H1945 0.930 . S
C1954 C1952 1.384 . S
C1954 C1955 1.372 . S
C1955 C1954 1.372 . S
C1955 C1956 1.400 . S
C1955 C1960 1.490 . S
C1956 H1946 0.930 . S
C1956 C1955 1.400 . S
C1956 C1959 1.386 . S
H1957 C1973 0.930 . S
H1958 C1974 0.931 . S
C1959 H1947 0.929 . S
C1959 C1953 1.390 . S
C1959 C1956 1.386 . S
C1960 C1955 1.490 . S
C1960 C1962 1.395 . S
C1960 C1963 1.403 . S
H1961 C1967 0.930 . S
C1962 H1948 0.930 . S
C1962 C1960 1.395 . S
C1962 C1965 1.403 . S
C1963 C1960 1.403 . S
C1963 C1964 1.524 . S
C1963 C1967 1.400 . S
C1964 H1949 0.960 . S
C1964 H1950 0.960 . S
C1964 H1951 0.960 . S
C1964 C1963 1.524 . S
C1965 C1962 1.403 . S
C1965 C1966 1.392 . S
C1965 C1969 1.495 . S
C1966 C1965 1.392 . S
C1966 C1967 1.385 . S
C1966 C1968 1.478 . S
C1967 H1961 0.930 . S
C1967 C1963 1.400 . S
C1967 C1966 1.385 . S
C1968 C1966 1.478 . S
C1968 C1970 1.381 . S
C1968 C1974 1.383 . S
C1969 C1965 1.495 . S
C1969 H1975 0.959 . S
C1969 H1976 0.961 . S
C1969 H1977 0.960 . S
C1970 C1968 1.381 . S
C1970 C1971 1.394 . S
C1970 H1978 0.930 . S
C1971 C1970 1.394 . S
C1971 C1972 1.383 . S
C1971 H1979 0.929 . S
C1972 C1971 1.383 . S
C1972 C1973 1.377 . S
C1973 H1957 0.930 . S
C1973 C1972 1.377 . S
C1973 C1974 1.379 . S
C1974 H1958 0.931 . S
C1974 C1968 1.383 . S
C1974 C1973 1.379 . S
H1975 C1969 0.959 . S
H1976 C1969 0.961 . S
H1977 C1969 0.960 . S
H1978 C1970 0.930 . S
H1979 C1971 0.929 . S
H1980 C1988 0.929 . S
H1981 C1990 0.930 . S
H1982 C1992 0.930 . S
H1983 C1995 0.929 . S
H1984 C1998 0.930 . S
H1985 C2000 0.960 . S
H1986 C2000 0.960 . S
H1987 C2000 0.960 . S
C1988 H1980 0.929 . S
C1988 C1989 1.377 . S
C1988 C1990 1.384 . S
C1989 C1988 1.377 . S
C1989 C1995 1.390 . S
C1990 H1981 0.930 . S
C1990 C1988 1.384 . S
C1990 C1991 1.372 . S
C1991 C1990 1.372 . S
C1991 C1992 1.400 . S
C1991 C1996 1.490 . S
C1992 H1982 0.930 . S
C1992 C1991 1.400 . S
C1992 C1995 1.386 . S
H1993 C2009 0.930 . S
H1994 C2010 0.953 . S
C1995 H1983 0.929 . S
C1995 C1989 1.390 . S
C1995 C1992 1.386 . S
C1996 C1991 1.490 . S
C1996 C1998 1.395 . S
C1996 C1999 1.403 . S
H1997 C2003 0.930 . S
C1998 H1984 0.930 . S
C1998 C1996 1.395 . S
C1998 C2001 1.403 . S
C1999 C1996 1.403 . S
C1999 C2000 1.524 . S
C1999 C2003 1.400 . S
C2000 H1985 0.960 . S
C2000 H1986 0.960 . S
C2000 H1987 0.960 . S
C2000 C1999 1.524 . S
C2001 C1998 1.403 . S
C2001 C2002 1.392 . S
C2001 C2005 1.495 . S
C2002 C2001 1.392 . S
C2002 C2003 1.385 . S
C2002 C2004 1.478 . S
C2003 H1997 0.930 . S
C2003 C1999 1.400 . S
C2003 C2002 1.385 . S
C2004 C2002 1.478 . S
C2004 C2006 1.381 1_556 S
C2004 C2010 1.394 . S
C2005 C2001 1.495 . S
C2005 H2011 0.959 . S
C2005 H2012 0.961 . S
C2005 H2013 0.960 . S
C2006 C2004 1.381 1_554 S
C2006 C2007 1.394 . S
C2006 H2014 0.930 . S
C2007 C2006 1.394 . S
C2007 C2008 1.383 . S
C2007 H2015 0.929 . S
C2008 C2007 1.383 . S
C2008 C2009 1.377 . S
C2009 H1993 0.930 . S
C2009 C2008 1.377 . S
C2009 C2010 1.347 1_554 S
C2010 H1994 0.953 . S
C2010 C2004 1.394 . S
C2010 C2009 1.347 1_556 S
H2011 C2005 0.959 . S
H2012 C2005 0.961 . S
H2013 C2005 0.960 . S
H2014 C2006 0.930 . S
H2015 C2007 0.929 . S
H2016 C2024 0.929 . S
H2017 C2026 0.930 . S
H2018 C2028 0.930 . S
H2019 C2031 0.929 . S
H2020 C2034 0.930 . S
H2021 C2036 0.960 . S
H2022 C2036 0.960 . S
H2023 C2036 0.960 . S
C2024 H2016 0.929 . S
C2024 C2025 1.377 . S
C2024 C2026 1.384 . S
C2025 C2024 1.377 . S
C2025 C2031 1.390 . S
C2026 H2017 0.930 . S
C2026 C2024 1.384 . S
C2026 C2027 1.372 . S
C2027 C2026 1.372 . S
C2027 C2028 1.400 . S
C2027 C2032 1.490 . S
C2028 H2018 0.930 . S
C2028 C2027 1.400 . S
C2028 C2031 1.386 . S
H2029 C2045 0.930 . S
H2030 C2046 0.931 . S
C2031 H2019 0.929 . S
C2031 C2025 1.390 . S
C2031 C2028 1.386 . S
C2032 C2027 1.490 . S
C2032 C2034 1.395 . S
C2032 C2035 1.403 . S
H2033 C2039 0.930 . S
C2034 H2020 0.930 . S
C2034 C2032 1.395 . S
C2034 C2037 1.403 . S
C2035 C2032 1.403 . S
C2035 C2036 1.524 . S
C2035 C2039 1.400 . S
C2036 H2021 0.960 . S
C2036 H2022 0.960 . S
C2036 H2023 0.960 . S
C2036 C2035 1.524 . S
C2037 C2034 1.403 . S
C2037 C2038 1.392 . S
C2037 C2041 1.495 . S
C2038 C2037 1.392 . S
C2038 C2039 1.385 . S
C2038 C2040 1.478 . S
C2039 H2033 0.930 . S
C2039 C2035 1.400 . S
C2039 C2038 1.385 . S
C2040 C2038 1.478 . S
C2040 C2042 1.381 . S
C2040 C2046 1.383 . S
C2041 C2037 1.495 . S
C2041 H2047 0.959 . S
C2041 H2048 0.961 . S
C2041 H2049 0.960 . S
C2042 C2040 1.381 . S
C2042 C2043 1.394 . S
C2042 H2050 0.930 . S
C2043 C2042 1.394 . S
C2043 C2044 1.383 . S
C2043 H2051 0.929 . S
C2044 C2043 1.383 . S
C2044 C2045 1.377 . S
C2045 H2029 0.930 . S
C2045 C2044 1.377 . S
C2045 C2046 1.379 . S
C2046 H2030 0.931 . S
C2046 C2040 1.383 . S
C2046 C2045 1.379 . S
H2047 C2041 0.959 . S
H2048 C2041 0.961 . S
H2049 C2041 0.960 . S
H2050 C2042 0.930 . S
H2051 C2043 0.929 . S
H2052 C2060 0.929 . S
H2053 C2062 0.930 . S
H2054 C2064 0.930 . S
H2055 C2067 0.929 . S
H2056 C2070 0.930 . S
H2057 C2072 0.960 . S
H2058 C2072 0.960 . S
H2059 C2072 0.960 . S
C2060 H2052 0.929 . S
C2060 C2061 1.377 . S
C2060 C2062 1.384 . S
C2061 C2060 1.377 . S
C2061 C2067 1.390 . S
C2062 H2053 0.930 . S
C2062 C2060 1.384 . S
C2062 C2063 1.372 . S
C2063 C2062 1.372 . S
C2063 C2064 1.400 . S
C2063 C2068 1.490 . S
C2064 H2054 0.930 . S
C2064 C2063 1.400 . S
C2064 C2067 1.386 . S
H2065 C2081 0.930 . S
H2066 C2082 0.931 1_554 S
C2067 H2055 0.929 . S
C2067 C2061 1.390 . S
C2067 C2064 1.386 . S
C2068 C2063 1.490 . S
C2068 C2070 1.395 . S
C2068 C2071 1.403 . S
H2069 C2075 0.930 . S
C2070 H2056 0.930 . S
C2070 C2068 1.395 . S
C2070 C2073 1.403 . S
C2071 C2068 1.403 . S
C2071 C2072 1.524 . S
C2071 C2075 1.400 . S
C2072 H2057 0.960 . S
C2072 H2058 0.960 . S
C2072 H2059 0.960 . S
C2072 C2071 1.524 . S
C2073 C2070 1.403 . S
C2073 C2074 1.392 . S
C2073 C2077 1.495 . S
C2074 C2073 1.392 . S
C2074 C2075 1.385 . S
C2074 C2076 1.478 . S
C2075 H2069 0.930 . S
C2075 C2071 1.400 . S
C2075 C2074 1.385 . S
C2076 C2074 1.478 . S
C2076 C2078 1.353 1_554 S
C2076 C2082 1.383 1_554 S
C2077 C2073 1.495 . S
C2077 H2083 0.959 . S
C2077 H2084 0.961 . S
C2077 H2085 0.960 . S
C2078 C2076 1.353 1_556 S
C2078 C2079 1.458 . S
C2078 H2086 0.898 1_556 S
C2079 C2078 1.458 . S
C2079 C2080 1.383 . S
C2079 H2087 0.929 . S
C2080 C2079 1.383 . S
C2080 C2081 1.377 . S
C2081 H2065 0.930 . S
C2081 C2080 1.377 . S
C2081 C2082 1.379 . S
C2082 H2066 0.931 1_556 S
C2082 C2076 1.383 1_556 S
C2082 C2081 1.379 . S
H2083 C2077 0.959 . S
H2084 C2077 0.961 . S
H2085 C2077 0.960 . S
H2086 C2078 0.898 1_554 S
H2087 C2079 0.929 . S
H2088 C2096 0.929 . S
H2089 C2098 0.930 . S
H2090 C2100 0.930 . S
H2091 C2103 0.929 . S
H2092 C2106 0.930 . S
H2093 C2108 0.960 . S
H2094 C2108 0.960 . S
H2095 C2108 0.960 . S
C2096 H2088 0.929 . S
C2096 C2097 1.377 . S
C2096 C2098 1.384 . S
C2097 C2096 1.377 . S
C2097 C2103 1.390 . S
C2098 H2089 0.930 . S
C2098 C2096 1.384 . S
C2098 C2099 1.372 . S
C2099 C2098 1.372 . S
C2099 C2100 1.400 . S
C2099 C2104 1.490 . S
C2100 H2090 0.930 . S
C2100 C2099 1.400 . S
C2100 C2103 1.386 . S
H2101 C2117 0.930 . S
H2102 C2118 0.931 . S
C2103 H2091 0.929 . S
C2103 C2097 1.390 . S
C2103 C2100 1.386 . S
C2104 C2099 1.490 . S
C2104 C2106 1.395 . S
C2104 C2107 1.403 . S
H2105 C2111 0.930 . S
C2106 H2092 0.930 . S
C2106 C2104 1.395 . S
C2106 C2109 1.403 . S
C2107 C2104 1.403 . S
C2107 C2108 1.524 . S
C2107 C2111 1.400 . S
C2108 H2093 0.960 . S
C2108 H2094 0.960 . S
C2108 H2095 0.960 . S
C2108 C2107 1.524 . S
C2109 C2106 1.403 . S
C2109 C2110 1.392 . S
C2109 C2113 1.495 . S
C2110 C2109 1.392 . S
C2110 C2111 1.385 . S
C2110 C2112 1.478 . S
C2111 H2105 0.930 . S
C2111 C2107 1.400 . S
C2111 C2110 1.385 . S
C2112 C2110 1.478 . S
C2112 C2114 1.381 . S
C2112 C2118 1.383 . S
C2113 C2109 1.495 . S
C2113 H2119 0.959 . S
C2113 H2120 0.961 . S
C2113 H2121 0.960 . S
C2114 C2112 1.381 . S
C2114 C2115 1.394 . S
C2114 H2122 0.930 . S
C2115 C2114 1.394 . S
C2115 C2116 1.383 . S
C2115 H2123 0.929 . S
C2116 C2115 1.383 . S
C2116 C2117 1.377 . S
C2117 H2101 0.930 . S
C2117 C2116 1.377 . S
C2117 C2118 1.379 . S
C2118 H2102 0.931 . S
C2118 C2112 1.383 . S
C2118 C2117 1.379 . S
H2119 C2113 0.959 . S
H2120 C2113 0.961 . S
H2121 C2113 0.960 . S
H2122 C2114 0.930 . S
H2123 C2115 0.929 . S
H2124 C2132 0.929 . S
H2125 C2134 0.930 1_554 S
H2126 C2136 0.930 1_554 S
H2127 C2139 0.929 . S
H2128 C2142 0.930 . S
H2129 C2144 0.960 . S
H2130 C2144 0.960 1_556 S
H2131 C2144 0.960 . S
C2132 H2124 0.929 . S
C2132 C2133 1.377 . S
C2132 C2134 1.384 . S
C2133 C2132 1.377 . S
C2133 C2139 1.390 . S
C2134 H2125 0.930 1_556 S
C2134 C2132 1.384 . S
C2134 C2135 1.372 1_556 S
C2135 C2134 1.372 1_554 S
C2135 C2136 1.400 1_554 S
C2135 C2140 1.490 . S
C2136 H2126 0.930 1_556 S
C2136 C2135 1.400 1_556 S
C2136 C2139 1.386 . S
H2137 C2153 0.930 . S
H2138 C2154 0.931 . S
C2139 H2127 0.929 . S
C2139 C2133 1.390 . S
C2139 C2136 1.386 . S
C2140 C2135 1.490 . S
C2140 C2142 1.395 . S
C2140 C2143 1.403 . S
H2141 C2147 0.930 . S
C2142 H2128 0.930 . S
C2142 C2140 1.395 . S
C2142 C2145 1.403 . S
C2143 C2140 1.403 . S
C2143 C2144 1.524 . S
C2143 C2147 1.400 . S
C2144 H2129 0.960 . S
C2144 H2130 0.960 1_554 S
C2144 H2131 0.960 . S
C2144 C2143 1.524 . S
C2145 C2142 1.403 . S
C2145 C2146 1.392 . S
C2145 C2149 1.495 . S
C2146 C2145 1.392 . S
C2146 C2147 1.385 . S
C2146 C2148 1.478 . S
C2147 H2141 0.930 . S
C2147 C2143 1.400 . S
C2147 C2146 1.385 . S
C2148 C2146 1.478 . S
C2148 C2150 1.381 . S
C2148 C2154 1.383 . S
C2149 C2145 1.495 . S
C2149 H2155 0.959 . S
C2149 H2156 0.961 . S
C2149 H2157 0.960 . S
C2150 C2148 1.381 . S
C2150 C2151 1.394 . S
C2150 H2158 0.930 . S
C2151 C2150 1.394 . S
C2151 C2152 1.383 . S
C2151 H2159 0.929 . S
C2152 C2151 1.383 . S
C2152 C2153 1.377 . S
C2153 H2137 0.930 . S
C2153 C2152 1.377 . S
C2153 C2154 1.379 . S
C2154 H2138 0.931 . S
C2154 C2148 1.383 . S
C2154 C2153 1.379 . S
H2155 C2149 0.959 . S
H2156 C2149 0.961 . S
H2157 C2149 0.960 . S
H2158 C2150 0.930 . S
H2159 C2151 0.929 . S
H2160 C2168 0.929 . S
H2161 C2170 0.930 . S
H2162 C2172 0.930 . S
H2163 C2175 0.929 . S
H2164 C2178 0.930 . S
H2165 C2180 0.960 . S
H2166 C2180 0.960 . S
H2167 C2180 0.960 . S
C2168 H2160 0.929 . S
C2168 C2169 1.377 . S
C2168 C2170 1.384 . S
C2169 C2168 1.377 . S
C2169 C2175 1.390 . S
C2170 H2161 0.930 . S
C2170 C2168 1.384 . S
C2170 C2171 1.372 . S
C2171 C2170 1.372 . S
C2171 C2172 1.400 . S
C2171 C2176 1.490 . S
C2172 H2162 0.930 . S
C2172 C2171 1.400 . S
C2172 C2175 1.386 . S
H2173 C2189 0.930 . S
H2174 C2190 0.931 . S
C2175 H2163 0.929 . S
C2175 C2169 1.390 . S
C2175 C2172 1.386 . S
C2176 C2171 1.490 . S
C2176 C2178 1.395 . S
C2176 C2179 1.403 . S
H2177 C2183 0.930 . S
C2178 H2164 0.930 . S
C2178 C2176 1.395 . S
C2178 C2181 1.403 . S
C2179 C2176 1.403 . S
C2179 C2180 1.524 . S
C2179 C2183 1.400 . S
C2180 H2165 0.960 . S
C2180 H2166 0.960 . S
C2180 H2167 0.960 . S
C2180 C2179 1.524 . S
C2181 C2178 1.403 . S
C2181 C2182 1.392 . S
C2181 C2185 1.495 . S
C2182 C2181 1.392 . S
C2182 C2183 1.385 . S
C2182 C2184 1.478 . S
C2183 H2177 0.930 . S
C2183 C2179 1.400 . S
C2183 C2182 1.385 . S
C2184 C2182 1.478 . S
C2184 C2186 1.381 . S
C2184 C2190 1.383 . S
C2185 C2181 1.495 . S
C2185 H2191 0.959 . S
C2185 H2192 0.961 . S
C2185 H2193 0.960 . S
C2186 C2184 1.381 . S
C2186 C2187 1.394 . S
C2186 H2194 0.930 . S
C2187 C2186 1.394 . S
C2187 C2188 1.383 . S
C2187 H2195 0.929 . S
C2188 C2187 1.383 . S
C2188 C2189 1.377 . S
C2189 H2173 0.930 . S
C2189 C2188 1.377 . S
C2189 C2190 1.379 . S
C2190 H2174 0.931 . S
C2190 C2184 1.383 . S
C2190 C2189 1.379 . S
H2191 C2185 0.959 . S
H2192 C2185 0.961 . S
H2193 C2185 0.960 . S
H2194 C2186 0.930 . S
H2195 C2187 0.929 . S
H2196 C2204 0.929 . S
H2197 C2206 0.930 . S
H2198 C2208 0.930 . S
H2199 C2211 0.929 . S
H2200 C2214 0.930 . S
H2201 C2216 0.960 . S
H2202 C2216 0.960 . S
H2203 C2216 0.960 . S
C2204 H2196 0.929 . S
C2204 C2205 1.377 . S
C2204 C2206 1.384 . S
C2205 C2204 1.377 . S
C2205 C2211 1.390 . S
C2206 H2197 0.930 . S
C2206 C2204 1.384 . S
C2206 C2207 1.372 . S
C2207 C2206 1.372 . S
C2207 C2208 1.400 . S
C2207 C2212 1.490 . S
C2208 H2198 0.930 . S
C2208 C2207 1.400 . S
C2208 C2211 1.386 . S
H2209 C2225 0.930 . S
H2210 C2226 0.931 . S
C2211 H2199 0.929 . S
C2211 C2205 1.390 . S
C2211 C2208 1.386 . S
C2212 C2207 1.490 . S
C2212 C2214 1.395 . S
C2212 C2215 1.403 . S
H2213 C2219 0.930 . S
C2214 H2200 0.930 . S
C2214 C2212 1.395 . S
C2214 C2217 1.403 . S
C2215 C2212 1.403 . S
C2215 C2216 1.524 . S
C2215 C2219 1.400 . S
C2216 H2201 0.960 . S
C2216 H2202 0.960 . S
C2216 H2203 0.960 . S
C2216 C2215 1.524 . S
C2217 C2214 1.403 . S
C2217 C2218 1.392 . S
C2217 C2221 1.495 . S
C2218 C2217 1.392 . S
C2218 C2219 1.385 . S
C2218 C2220 1.478 . S
C2219 H2213 0.930 . S
C2219 C2215 1.400 . S
C2219 C2218 1.385 . S
C2220 C2218 1.478 . S
C2220 C2222 1.381 . S
C2220 C2226 1.383 . S
C2221 C2217 1.495 . S
C2221 H2227 0.959 . S
C2221 H2228 0.961 . S
C2221 H2229 0.960 . S
C2222 C2220 1.381 . S
C2222 C2223 1.394 . S
C2222 H2230 0.930 . S
C2223 C2222 1.394 . S
C2223 C2224 1.383 . S
C2223 H2231 0.929 . S
C2224 C2223 1.383 . S
C2224 C2225 1.377 . S
C2225 H2209 0.930 . S
C2225 C2224 1.377 . S
C2225 C2226 1.379 . S
C2226 H2210 0.931 . S
C2226 C2220 1.383 . S
C2226 C2225 1.379 . S
H2227 C2221 0.959 . S
H2228 C2221 0.961 . S
H2229 C2221 0.960 . S
H2230 C2222 0.930 . S
H2231 C2223 0.929 . S
H2232 C2240 0.929 . S
H2233 C2242 0.930 . S
H2234 C2244 0.930 . S
H2235 C2247 0.929 . S
H2236 C2250 0.930 . S
H2237 C2252 0.960 . S
H2238 C2252 0.960 . S
H2239 C2252 0.960 . S
C2240 H2232 0.929 . S
C2240 C2241 1.377 . S
C2240 C2242 1.384 . S
C2241 C2240 1.377 . S
C2241 C2247 1.390 . S
C2242 H2233 0.930 . S
C2242 C2240 1.384 . S
C2242 C2243 1.372 . S
C2243 C2242 1.372 . S
C2243 C2244 1.400 . S
C2243 C2248 1.490 . S
C2244 H2234 0.930 . S
C2244 C2243 1.400 . S
C2244 C2247 1.386 . S
H2245 C2261 0.930 . S
H2246 C2262 0.931 . S
C2247 H2235 0.929 . S
C2247 C2241 1.390 . S
C2247 C2244 1.386 . S
C2248 C2243 1.490 . S
C2248 C2250 1.395 . S
C2248 C2251 1.403 . S
H2249 C2255 0.930 . S
C2250 H2236 0.930 . S
C2250 C2248 1.395 . S
C2250 C2253 1.403 . S
C2251 C2248 1.403 . S
C2251 C2252 1.524 . S
C2251 C2255 1.400 . S
C2252 H2237 0.960 . S
C2252 H2238 0.960 . S
C2252 H2239 0.960 . S
C2252 C2251 1.524 . S
C2253 C2250 1.403 . S
C2253 C2254 1.392 . S
C2253 C2257 1.495 . S
C2254 C2253 1.392 . S
C2254 C2255 1.385 . S
C2254 C2256 1.478 . S
C2255 H2249 0.930 . S
C2255 C2251 1.400 . S
C2255 C2254 1.385 . S
C2256 C2254 1.478 . S
C2256 C2258 1.381 . S
C2256 C2262 1.383 . S
C2257 C2253 1.495 . S
C2257 H2263 0.959 . S
C2257 H2264 0.961 . S
C2257 H2265 0.960 . S
C2258 C2256 1.381 . S
C2258 C2259 1.394 . S
C2258 H2266 0.930 . S
C2259 C2258 1.394 . S
C2259 C2260 1.383 . S
C2259 H2267 0.929 . S
C2260 C2259 1.383 . S
C2260 C2261 1.377 . S
C2261 H2245 0.930 . S
C2261 C2260 1.377 . S
C2261 C2262 1.379 . S
C2262 H2246 0.931 . S
C2262 C2256 1.383 . S
C2262 C2261 1.379 . S
H2263 C2257 0.959 . S
H2264 C2257 0.961 . S
H2265 C2257 0.960 . S
H2266 C2258 0.930 . S
H2267 C2259 0.929 . S
H2268 C2276 0.929 . S
H2269 C2278 0.930 . S
H2270 C2280 0.930 . S
H2271 C2283 0.929 . S
H2272 C2286 0.930 . S
H2273 C2288 0.960 . S
H2274 C2288 0.960 . S
H2275 C2288 0.960 . S
C2276 H2268 0.929 . S
C2276 C2277 1.377 . S
C2276 C2278 1.384 . S
C2277 C2276 1.377 . S
C2277 C2283 1.390 . S
C2278 H2269 0.930 . S
C2278 C2276 1.384 . S
C2278 C2279 1.372 . S
C2279 C2278 1.372 . S
C2279 C2280 1.400 . S
C2279 C2284 1.490 . S
C2280 H2270 0.930 . S
C2280 C2279 1.400 . S
C2280 C2283 1.386 . S
H2281 C2297 0.930 . S
H2282 C2298 0.931 . S
C2283 H2271 0.929 . S
C2283 C2277 1.390 . S
C2283 C2280 1.386 . S
C2284 C2279 1.490 . S
C2284 C2286 1.395 . S
C2284 C2287 1.403 . S
H2285 C2291 0.930 . S
C2286 H2272 0.930 . S
C2286 C2284 1.395 . S
C2286 C2289 1.403 . S
C2287 C2284 1.403 . S
C2287 C2288 1.524 . S
C2287 C2291 1.400 . S
C2288 H2273 0.960 . S
C2288 H2274 0.960 . S
C2288 H2275 0.960 . S
C2288 C2287 1.524 . S
C2289 C2286 1.403 . S
C2289 C2290 1.392 . S
C2289 C2293 1.495 . S
C2290 C2289 1.392 . S
C2290 C2291 1.385 . S
C2290 C2292 1.478 . S
C2291 H2285 0.930 . S
C2291 C2287 1.400 . S
C2291 C2290 1.385 . S
C2292 C2290 1.478 . S
C2292 C2294 1.381 . S
C2292 C2298 1.383 . S
C2293 C2289 1.495 . S
C2293 H2299 0.959 . S
C2293 H2300 0.961 . S
C2293 H2301 0.960 . S
C2294 C2292 1.381 . S
C2294 C2295 1.394 . S
C2294 H2302 0.930 . S
C2295 C2294 1.394 . S
C2295 C2296 1.383 . S
C2295 H2303 0.929 . S
C2296 C2295 1.383 . S
C2296 C2297 1.377 . S
C2297 H2281 0.930 . S
C2297 C2296 1.377 . S
C2297 C2298 1.379 . S
C2298 H2282 0.931 . S
C2298 C2292 1.383 . S
C2298 C2297 1.379 . S
H2299 C2293 0.959 . S
H2300 C2293 0.961 . S
H2301 C2293 0.960 . S
H2302 C2294 0.930 . S
H2303 C2295 0.929 . S
H2304 C2312 0.929 . S
H2305 C2314 0.930 . S
H2306 C2316 0.930 . S
H2307 C2319 0.929 . S
H2308 C2322 0.930 . S
H2309 C2324 0.960 . S
H2310 C2324 0.960 . S
H2311 C2324 0.960 . S
C2312 H2304 0.929 . S
C2312 C2313 1.377 . S
C2312 C2314 1.384 . S
C2313 C2312 1.377 . S
C2313 C2319 1.390 . S
C2314 H2305 0.930 . S
C2314 C2312 1.384 . S
C2314 C2315 1.372 . S
C2315 C2314 1.372 . S
C2315 C2316 1.400 . S
C2315 C2320 1.490 . S
C2316 H2306 0.930 . S
C2316 C2315 1.400 . S
C2316 C2319 1.386 . S
H2317 C2333 0.930 . S
H2318 C2334 0.931 . S
C2319 H2307 0.929 . S
C2319 C2313 1.390 . S
C2319 C2316 1.386 . S
C2320 C2315 1.490 . S
C2320 C2322 1.395 . S
C2320 C2323 1.403 . S
H2321 C2327 0.930 . S
C2322 H2308 0.930 . S
C2322 C2320 1.395 . S
C2322 C2325 1.403 . S
C2323 C2320 1.403 . S
C2323 C2324 1.524 . S
C2323 C2327 1.400 . S
C2324 H2309 0.960 . S
C2324 H2310 0.960 . S
C2324 H2311 0.960 . S
C2324 C2323 1.524 . S
C2325 C2322 1.403 . S
C2325 C2326 1.392 . S
C2325 C2329 1.495 . S
C2326 C2325 1.392 . S
C2326 C2327 1.385 . S
C2326 C2328 1.478 . S
C2327 H2321 0.930 . S
C2327 C2323 1.400 . S
C2327 C2326 1.385 . S
C2328 C2326 1.478 . S
C2328 C2330 1.381 . S
C2328 C2334 1.383 . S
C2329 C2325 1.495 . S
C2329 H2335 0.959 . S
C2329 H2336 0.961 . S
C2329 H2337 0.960 . S
C2330 C2328 1.381 . S
C2330 C2331 1.394 . S
C2330 H2338 0.930 . S
C2331 C2330 1.394 . S
C2331 C2332 1.383 . S
C2331 H2339 0.929 . S
C2332 C2331 1.383 . S
C2332 C2333 1.377 . S
C2333 H2317 0.930 . S
C2333 C2332 1.377 . S
C2333 C2334 1.379 . S
C2334 H2318 0.931 . S
C2334 C2328 1.383 . S
C2334 C2333 1.379 . S
H2335 C2329 0.959 . S
H2336 C2329 0.961 . S
H2337 C2329 0.960 . S
H2338 C2330 0.930 . S
H2339 C2331 0.929 . S
H2340 C2348 0.929 . S
H2341 C2350 0.930 . S
H2342 C2352 0.930 . S
H2343 C2355 0.929 . S
H2344 C2358 0.930 . S
H2345 C2360 0.960 . S
H2346 C2360 0.960 . S
H2347 C2360 0.960 . S
C2348 H2340 0.929 . S
C2348 C2349 1.377 . S
C2348 C2350 1.384 . S
C2349 C2348 1.377 . S
C2349 C2355 1.390 . S
C2350 H2341 0.930 . S
C2350 C2348 1.384 . S
C2350 C2351 1.372 . S
C2351 C2350 1.372 . S
C2351 C2352 1.400 . S
C2351 C2356 1.490 . S
C2352 H2342 0.930 . S
C2352 C2351 1.400 . S
C2352 C2355 1.386 . S
H2353 C2369 0.930 . S
H2354 C2370 0.931 . S
C2355 H2343 0.929 . S
C2355 C2349 1.390 . S
C2355 C2352 1.386 . S
C2356 C2351 1.490 . S
C2356 C2358 1.395 . S
C2356 C2359 1.403 . S
H2357 C2363 0.930 . S
C2358 H2344 0.930 . S
C2358 C2356 1.395 . S
C2358 C2361 1.403 . S
C2359 C2356 1.403 . S
C2359 C2360 1.524 . S
C2359 C2363 1.400 . S
C2360 H2345 0.960 . S
C2360 H2346 0.960 . S
C2360 H2347 0.960 . S
C2360 C2359 1.524 . S
C2361 C2358 1.403 . S
C2361 C2362 1.392 . S
C2361 C2365 1.495 . S
C2362 C2361 1.392 . S
C2362 C2363 1.385 . S
C2362 C2364 1.478 . S
C2363 H2357 0.930 . S
C2363 C2359 1.400 . S
C2363 C2362 1.385 . S
C2364 C2362 1.478 . S
C2364 C2366 1.381 . S
C2364 C2370 1.383 . S
C2365 C2361 1.495 . S
C2365 H2371 0.959 . S
C2365 H2372 0.961 . S
C2365 H2373 0.960 . S
C2366 C2364 1.381 . S
C2366 C2367 1.394 . S
C2366 H2374 0.930 . S
C2367 C2366 1.394 . S
C2367 C2368 1.383 . S
C2367 H2375 0.929 . S
C2368 C2367 1.383 . S
C2368 C2369 1.377 . S
C2369 H2353 0.930 . S
C2369 C2368 1.377 . S
C2369 C2370 1.379 . S
C2370 H2354 0.931 . S
C2370 C2364 1.383 . S
C2370 C2369 1.379 . S
H2371 C2365 0.959 . S
H2372 C2365 0.961 . S
H2373 C2365 0.960 . S
H2374 C2366 0.930 . S
H2375 C2367 0.929 . S
H2376 C2384 0.929 . S
H2377 C2386 0.930 . S
H2378 C2388 0.930 . S
H2379 C2391 0.929 . S
H2380 C2394 0.930 . S
H2381 C2396 0.960 . S
H2382 C2396 0.960 . S
H2383 C2396 0.960 . S
C2384 H2376 0.929 . S
C2384 C2385 1.377 . S
C2384 C2386 1.384 . S
C2385 C2384 1.377 . S
C2385 C2391 1.390 . S
C2386 H2377 0.930 . S
C2386 C2384 1.384 . S
C2386 C2387 1.372 . S
C2387 C2386 1.372 . S
C2387 C2388 1.400 . S
C2387 C2392 1.490 . S
C2388 H2378 0.930 . S
C2388 C2387 1.400 . S
C2388 C2391 1.386 . S
H2389 C2405 0.930 . S
H2390 C2406 0.931 . S
C2391 H2379 0.929 . S
C2391 C2385 1.390 . S
C2391 C2388 1.386 . S
C2392 C2387 1.490 . S
C2392 C2394 1.395 . S
C2392 C2395 1.403 . S
H2393 C2399 0.930 . S
C2394 H2380 0.930 . S
C2394 C2392 1.395 . S
C2394 C2397 1.403 . S
C2395 C2392 1.403 . S
C2395 C2396 1.524 . S
C2395 C2399 1.400 . S
C2396 H2381 0.960 . S
C2396 H2382 0.960 . S
C2396 H2383 0.960 . S
C2396 C2395 1.524 . S
C2397 C2394 1.403 . S
C2397 C2398 1.392 . S
C2397 C2401 1.495 . S
C2398 C2397 1.392 . S
C2398 C2399 1.385 . S
C2398 C2400 1.478 . S
C2399 H2393 0.930 . S
C2399 C2395 1.400 . S
C2399 C2398 1.385 . S
C2400 C2398 1.478 . S
C2400 C2402 1.381 . S
C2400 C2406 1.383 . S
C2401 C2397 1.495 . S
C2401 H2407 0.959 . S
C2401 H2408 0.961 . S
C2401 H2409 0.960 . S
C2402 C2400 1.381 . S
C2402 C2403 1.394 . S
C2402 H2410 0.930 . S
C2403 C2402 1.394 . S
C2403 C2404 1.383 . S
C2403 H2411 0.929 . S
C2404 C2403 1.383 . S
C2404 C2405 1.377 . S
C2405 H2389 0.930 . S
C2405 C2404 1.377 . S
C2405 C2406 1.379 . S
C2406 H2390 0.931 . S
C2406 C2400 1.383 . S
C2406 C2405 1.379 . S
H2407 C2401 0.959 . S
H2408 C2401 0.961 . S
H2409 C2401 0.960 . S
H2410 C2402 0.930 . S
H2411 C2403 0.929 . S
H2412 C2420 0.929 . S
H2413 C2422 0.930 . S
H2414 C2424 0.930 . S
H2415 C2427 0.929 . S
H2416 C2430 0.930 . S
H2417 C2432 0.960 . S
H2418 C2432 0.960 . S
H2419 C2432 0.960 . S
C2420 H2412 0.929 . S
C2420 C2421 1.377 . S
C2420 C2422 1.384 . S
C2421 C2420 1.377 . S
C2421 C2427 1.390 . S
C2422 H2413 0.930 . S
C2422 C2420 1.384 . S
C2422 C2423 1.372 1_545 S
C2423 C2422 1.372 1_565 S
C2423 C2424 1.400 . S
C2423 C2428 1.490 . S
C2424 H2414 0.930 . S
C2424 C2423 1.400 . S
C2424 C2427 1.386 1_565 S
H2425 C2441 0.930 . S
H2426 C2442 0.931 . S
C2427 H2415 0.929 . S
C2427 C2421 1.390 . S
C2427 C2424 1.386 1_545 S
C2428 C2423 1.490 . S
C2428 C2430 1.395 . S
C2428 C2431 1.403 . S
H2429 C2435 0.930 . S
C2430 H2416 0.930 . S
C2430 C2428 1.395 . S
C2430 C2433 1.403 . S
C2431 C2428 1.403 . S
C2431 C2432 1.524 . S
C2431 C2435 1.400 . S
C2432 H2417 0.960 . S
C2432 H2418 0.960 . S
C2432 H2419 0.960 . S
C2432 C2431 1.524 . S
C2433 C2430 1.403 . S
C2433 C2434 1.392 . S
C2433 C2437 1.495 . S
C2434 C2433 1.392 . S
C2434 C2435 1.385 . S
C2434 C2436 1.478 . S
C2435 H2429 0.930 . S
C2435 C2431 1.400 . S
C2435 C2434 1.385 . S
C2436 C2434 1.478 . S
C2436 C2438 1.381 . S
C2436 C2442 1.383 . S
C2437 C2433 1.495 . S
C2437 H2443 0.959 . S
C2437 H2444 0.961 . S
C2437 H2445 0.960 . S
C2438 C2436 1.381 . S
C2438 C2439 1.394 . S
C2438 H2446 0.930 . S
C2439 C2438 1.394 . S
C2439 C2440 1.383 . S
C2439 H2447 0.929 . S
C2440 C2439 1.383 . S
C2440 C2441 1.377 . S
C2441 H2425 0.930 . S
C2441 C2440 1.377 . S
C2441 C2442 1.379 . S
C2442 H2426 0.931 . S
C2442 C2436 1.383 . S
C2442 C2441 1.379 . S
H2443 C2437 0.959 . S
H2444 C2437 0.961 . S
H2445 C2437 0.960 . S
H2446 C2438 0.930 . S
H2447 C2439 0.929 . S
H2448 C2456 0.929 . S
H2449 C2458 0.930 . S
H2450 C2460 0.930 . S
H2451 C2463 0.929 . S
H2452 C2466 0.930 . S
H2453 C2468 0.960 . S
H2454 C2468 0.960 . S
H2455 C2468 0.960 . S
C2456 H2448 0.929 . S
C2456 C2457 1.377 . S
C2456 C2458 1.384 . S
C2457 C2456 1.377 . S
C2457 C2463 1.390 . S
C2458 H2449 0.930 . S
C2458 C2456 1.384 . S
C2458 C2459 1.372 . S
C2459 C2458 1.372 . S
C2459 C2460 1.400 . S
C2459 C2464 1.490 . S
C2460 H2450 0.930 . S
C2460 C2459 1.400 . S
C2460 C2463 1.386 . S
H2461 C2477 0.930 . S
H2462 C2478 0.931 . S
C2463 H2451 0.929 . S
C2463 C2457 1.390 . S
C2463 C2460 1.386 . S
C2464 C2459 1.490 . S
C2464 C2466 1.395 . S
C2464 C2467 1.403 . S
H2465 C2471 0.930 . S
C2466 H2452 0.930 . S
C2466 C2464 1.395 . S
C2466 C2469 1.403 . S
C2467 C2464 1.403 . S
C2467 C2468 1.524 . S
C2467 C2471 1.400 . S
C2468 H2453 0.960 . S
C2468 H2454 0.960 . S
C2468 H2455 0.960 . S
C2468 C2467 1.524 . S
C2469 C2466 1.403 . S
C2469 C2470 1.392 . S
C2469 C2473 1.495 . S
C2470 C2469 1.392 . S
C2470 C2471 1.385 . S
C2470 C2472 1.478 . S
C2471 H2465 0.930 . S
C2471 C2467 1.400 . S
C2471 C2470 1.385 . S
C2472 C2470 1.478 . S
C2472 C2474 1.381 . S
C2472 C2478 1.383 . S
C2473 C2469 1.495 . S
C2473 H2479 0.959 . S
C2473 H2480 0.961 . S
C2473 H2481 0.960 . S
C2474 C2472 1.381 . S
C2474 C2475 1.394 . S
C2474 H2482 0.930 . S
C2475 C2474 1.394 . S
C2475 C2476 1.383 . S
C2475 H2483 0.929 . S
C2476 C2475 1.383 . S
C2476 C2477 1.377 . S
C2477 H2461 0.930 . S
C2477 C2476 1.377 . S
C2477 C2478 1.379 . S
C2478 H2462 0.931 . S
C2478 C2472 1.383 . S
C2478 C2477 1.379 . S
H2479 C2473 0.959 . S
H2480 C2473 0.961 . S
H2481 C2473 0.960 . S
H2482 C2474 0.930 . S
H2483 C2475 0.929 . S
H2484 C2492 0.929 . S
H2485 C2494 0.911 1_455 S
H2486 C2496 0.930 . S
H2487 C2499 0.929 . S
H2488 C2502 0.930 . S
H2489 C2504 0.960 . S
H2490 C2504 0.960 1_655 S
H2491 C2504 0.971 . S
C2492 H2484 0.929 . S
C2492 C2493 1.377 . S
C2492 C2494 1.414 . S
C2493 C2492 1.377 . S
C2493 C2499 1.390 . S
C2494 H2485 0.911 1_655 S
C2494 C2492 1.414 . S
C2494 C2495 1.362 1_655 S
C2495 C2494 1.362 1_455 S
C2495 C2496 1.400 1_455 S
C2495 C2500 1.490 . S
C2496 H2486 0.930 . S
C2496 C2495 1.400 1_655 S
C2496 C2499 1.386 . S
H2497 C2513 0.930 . S
H2498 C2514 0.931 . S
C2499 H2487 0.929 . S
C2499 C2493 1.390 . S
C2499 C2496 1.386 . S
C2500 C2495 1.490 . S
C2500 C2502 1.395 . S
C2500 C2503 1.403 . S
H2501 C2507 0.930 . S
C2502 H2488 0.930 . S
C2502 C2500 1.395 . S
C2502 C2505 1.403 . S
C2503 C2500 1.403 . S
C2503 C2504 1.524 . S
C2503 C2507 1.400 . S
C2504 H2489 0.960 . S
C2504 H2490 0.960 1_455 S
C2504 H2491 0.971 . S
C2504 C2503 1.524 . S
C2505 C2502 1.403 . S
C2505 C2506 1.392 . S
C2505 C2509 1.495 . S
C2506 C2505 1.392 . S
C2506 C2507 1.385 . S
C2506 C2508 1.478 . S
C2507 H2501 0.930 . S
C2507 C2503 1.400 . S
C2507 C2506 1.385 . S
C2508 C2506 1.478 . S
C2508 C2510 1.381 . S
C2508 C2514 1.383 . S
C2509 C2505 1.495 . S
C2509 H2515 0.959 . S
C2509 H2516 0.961 . S
C2509 H2517 0.960 . S
C2510 C2508 1.381 . S
C2510 C2511 1.394 . S
C2510 H2518 0.930 . S
C2511 C2510 1.394 . S
C2511 C2512 1.383 . S
C2511 H2519 0.929 . S
C2512 C2511 1.383 . S
C2512 C2513 1.377 . S
C2513 H2497 0.930 . S
C2513 C2512 1.377 . S
C2513 C2514 1.379 . S
C2514 H2498 0.931 . S
C2514 C2508 1.383 . S
C2514 C2513 1.379 . S
H2515 C2509 0.959 . S
H2516 C2509 0.961 . S
H2517 C2509 0.960 . S
H2518 C2510 0.930 . S
H2519 C2511 0.929 . S
H2520 C2528 0.929 . S
H2521 C2530 0.930 . S
H2522 C2532 0.930 . S
H2523 C2535 0.929 . S
H2524 C2538 0.930 . S
H2525 C2540 0.960 . S
H2526 C2540 0.960 . S
H2527 C2540 0.960 . S
C2528 H2520 0.929 . S
C2528 C2529 1.377 . S
C2528 C2530 1.384 . S
C2529 C2528 1.377 . S
C2529 C2535 1.390 . S
C2530 H2521 0.930 . S
C2530 C2528 1.384 . S
C2530 C2531 1.372 . S
C2531 C2530 1.372 . S
C2531 C2532 1.400 . S
C2531 C2536 1.490 . S
C2532 H2522 0.930 . S
C2532 C2531 1.400 . S
C2532 C2535 1.386 . S
H2533 C2549 0.930 . S
H2534 C2550 0.931 . S
C2535 H2523 0.929 . S
C2535 C2529 1.390 . S
C2535 C2532 1.386 . S
C2536 C2531 1.490 . S
C2536 C2538 1.395 . S
C2536 C2539 1.403 . S
H2537 C2543 0.930 . S
C2538 H2524 0.930 . S
C2538 C2536 1.395 . S
C2538 C2541 1.403 . S
C2539 C2536 1.403 . S
C2539 C2540 1.524 . S
C2539 C2543 1.400 . S
C2540 H2525 0.960 . S
C2540 H2526 0.960 . S
C2540 H2527 0.960 . S
C2540 C2539 1.524 . S
C2541 C2538 1.403 . S
C2541 C2542 1.392 . S
C2541 C2545 1.495 . S
C2542 C2541 1.392 . S
C2542 C2543 1.385 . S
C2542 C2544 1.478 . S
C2543 H2537 0.930 . S
C2543 C2539 1.400 . S
C2543 C2542 1.385 . S
C2544 C2542 1.478 . S
C2544 C2546 1.381 . S
C2544 C2550 1.383 . S
C2545 C2541 1.495 . S
C2545 H2551 0.959 . S
C2545 H2552 0.961 . S
C2545 H2553 0.960 . S
C2546 C2544 1.381 . S
C2546 C2547 1.394 . S
C2546 H2554 0.930 . S
C2547 C2546 1.394 . S
C2547 C2548 1.383 . S
C2547 H2555 0.929 . S
C2548 C2547 1.383 . S
C2548 C2549 1.377 . S
C2549 H2533 0.930 . S
C2549 C2548 1.377 . S
C2549 C2550 1.379 . S
C2550 H2534 0.931 . S
C2550 C2544 1.383 . S
C2550 C2549 1.379 . S
H2551 C2545 0.959 . S
H2552 C2545 0.961 . S
H2553 C2545 0.960 . S
H2554 C2546 0.930 . S
H2555 C2547 0.929 . S
H2556 C2564 0.929 . S
H2557 C2566 0.930 . S
H2558 C2568 0.930 . S
H2559 C2571 0.929 . S
H2560 C2574 0.930 . S
H2561 C2576 0.960 . S
H2562 C2576 0.960 . S
H2563 C2576 0.960 . S
C2564 H2556 0.929 . S
C2564 C2565 1.377 . S
C2564 C2566 1.384 . S
C2565 C2564 1.377 . S
C2565 C2571 1.390 . S
C2566 H2557 0.930 . S
C2566 C2564 1.384 . S
C2566 C2567 1.372 . S
C2567 C2566 1.372 . S
C2567 C2568 1.400 . S
C2567 C2572 1.490 . S
C2568 H2558 0.930 . S
C2568 C2567 1.400 . S
C2568 C2571 1.386 . S
H2569 C2585 0.930 . S
H2570 C2586 0.931 1_655 S
C2571 H2559 0.929 . S
C2571 C2565 1.390 . S
C2571 C2568 1.386 . S
C2572 C2567 1.490 . S
C2572 C2574 1.395 . S
C2572 C2575 1.403 . S
H2573 C2579 0.930 . S
C2574 H2560 0.930 . S
C2574 C2572 1.395 . S
C2574 C2577 1.403 . S
C2575 C2572 1.403 . S
C2575 C2576 1.524 . S
C2575 C2579 1.400 . S
C2576 H2561 0.960 . S
C2576 H2562 0.960 . S
C2576 H2563 0.960 . S
C2576 C2575 1.524 . S
C2577 C2574 1.403 . S
C2577 C2578 1.392 . S
C2577 C2581 1.495 . S
C2578 C2577 1.392 . S
C2578 C2579 1.385 . S
C2578 C2580 1.478 . S
C2579 H2573 0.930 . S
C2579 C2575 1.400 . S
C2579 C2578 1.385 . S
C2580 C2578 1.478 . S
C2580 C2582 1.381 1_655 S
C2580 C2586 1.383 1_655 S
C2581 C2577 1.495 . S
C2581 H2587 0.959 . S
C2581 H2588 0.961 1_655 S
C2581 H2589 0.943 1_655 S
C2582 C2580 1.381 1_455 S
C2582 C2583 1.394 . S
C2582 H2590 0.930 . S
C2583 C2582 1.394 . S
C2583 C2584 1.383 . S
C2583 H2591 0.929 . S
C2584 C2583 1.383 . S
C2584 C2585 1.377 . S
C2585 H2569 0.930 . S
C2585 C2584 1.377 . S
C2585 C2586 1.379 . S
C2586 H2570 0.931 1_455 S
C2586 C2580 1.383 1_455 S
C2586 C2585 1.379 . S
H2587 C2581 0.959 . S
H2588 C2581 0.961 1_455 S
H2589 C2581 0.943 1_455 S
H2590 C2582 0.930 . S
H2591 C2583 0.929 . S
H2592 C2600 0.929 . S
H2593 C2602 0.930 . S
H2594 C2604 0.930 . S
H2595 C2607 0.929 . S
H2596 C2610 0.930 . S
H2597 C2612 0.960 . S
H2598 C2612 0.960 . S
H2599 C2612 0.960 . S
C2600 H2592 0.929 . S
C2600 C2601 1.377 . S
C2600 C2602 1.384 . S
C2601 C2600 1.377 . S
C2601 C2607 1.390 . S
C2602 H2593 0.930 . S
C2602 C2600 1.384 . S
C2602 C2603 1.372 . S
C2603 C2602 1.372 . S
C2603 C2604 1.400 . S
C2603 C2608 1.490 . S
C2604 H2594 0.930 . S
C2604 C2603 1.400 . S
C2604 C2607 1.386 . S
H2605 C2621 0.930 . S
H2606 C2622 0.931 . S
C2607 H2595 0.929 . S
C2607 C2601 1.390 . S
C2607 C2604 1.386 . S
C2608 C2603 1.490 . S
C2608 C2610 1.395 . S
C2608 C2611 1.403 . S
H2609 C2615 0.930 . S
C2610 H2596 0.930 . S
C2610 C2608 1.395 . S
C2610 C2613 1.403 . S
C2611 C2608 1.403 . S
C2611 C2612 1.524 . S
C2611 C2615 1.400 . S
C2612 H2597 0.960 . S
C2612 H2598 0.960 . S
C2612 H2599 0.960 . S
C2612 C2611 1.524 . S
C2613 C2610 1.403 . S
C2613 C2614 1.392 . S
C2613 C2617 1.495 . S
C2614 C2613 1.392 . S
C2614 C2615 1.385 . S
C2614 C2616 1.478 . S
C2615 H2609 0.930 . S
C2615 C2611 1.400 . S
C2615 C2614 1.385 . S
C2616 C2614 1.478 . S
C2616 C2618 1.381 . S
C2616 C2622 1.383 . S
C2617 C2613 1.495 . S
C2617 H2623 0.959 . S
C2617 H2624 0.961 . S
C2617 H2625 0.960 . S
C2618 C2616 1.381 . S
C2618 C2619 1.394 . S
C2618 H2626 0.930 . S
C2619 C2618 1.394 . S
C2619 C2620 1.383 . S
C2619 H2627 0.929 . S
C2620 C2619 1.383 . S
C2620 C2621 1.377 . S
C2621 H2605 0.930 . S
C2621 C2620 1.377 . S
C2621 C2622 1.379 . S
C2622 H2606 0.931 . S
C2622 C2616 1.383 . S
C2622 C2621 1.379 . S
H2623 C2617 0.959 . S
H2624 C2617 0.961 . S
H2625 C2617 0.960 . S
H2626 C2618 0.930 . S
H2627 C2619 0.929 . S
H2628 C2636 0.929 . S
H2629 C2638 0.930 . S
H2630 C2640 0.930 . S
H2631 C2643 0.929 . S
H2632 C2646 0.930 . S
H2633 C2648 0.960 . S
H2634 C2648 0.960 . S
H2635 C2648 0.960 . S
C2636 H2628 0.929 . S
C2636 C2637 1.377 . S
C2636 C2638 1.384 . S
C2637 C2636 1.377 . S
C2637 C2643 1.390 . S
C2638 H2629 0.930 . S
C2638 C2636 1.384 . S
C2638 C2639 1.372 . S
C2639 C2638 1.372 . S
C2639 C2640 1.400 . S
C2639 C2644 1.490 . S
C2640 H2630 0.930 . S
C2640 C2639 1.400 . S
C2640 C2643 1.386 . S
H2641 C2657 0.930 . S
H2642 C2658 0.931 . S
C2643 H2631 0.929 . S
C2643 C2637 1.390 . S
C2643 C2640 1.386 . S
C2644 C2639 1.490 . S
C2644 C2646 1.395 . S
C2644 C2647 1.403 . S
H2645 C2651 0.930 . S
C2646 H2632 0.930 . S
C2646 C2644 1.395 . S
C2646 C2649 1.403 . S
C2647 C2644 1.403 . S
C2647 C2648 1.524 . S
C2647 C2651 1.400 . S
C2648 H2633 0.960 . S
C2648 H2634 0.960 . S
C2648 H2635 0.960 . S
C2648 C2647 1.524 . S
C2649 C2646 1.403 . S
C2649 C2650 1.392 . S
C2649 C2653 1.495 . S
C2650 C2649 1.392 . S
C2650 C2651 1.385 . S
C2650 C2652 1.478 . S
C2651 H2645 0.930 . S
C2651 C2647 1.400 . S
C2651 C2650 1.385 . S
C2652 C2650 1.478 . S
C2652 C2654 1.381 . S
C2652 C2658 1.383 . S
C2653 C2649 1.495 . S
C2653 H2659 0.959 . S
C2653 H2660 0.961 . S
C2653 H2661 0.960 . S
C2654 C2652 1.381 . S
C2654 C2655 1.394 . S
C2654 H2662 0.930 . S
C2655 C2654 1.394 . S
C2655 C2656 1.383 . S
C2655 H2663 0.929 . S
C2656 C2655 1.383 . S
C2656 C2657 1.377 . S
C2657 H2641 0.930 . S
C2657 C2656 1.377 . S
C2657 C2658 1.379 . S
C2658 H2642 0.931 . S
C2658 C2652 1.383 . S
C2658 C2657 1.379 . S
H2659 C2653 0.959 . S
H2660 C2653 0.961 . S
H2661 C2653 0.960 . S
H2662 C2654 0.930 . S
H2663 C2655 0.929 . S
H2664 C2672 0.929 . S
H2665 C2674 0.930 . S
H2666 C2676 0.930 . S
H2667 C2679 0.929 . S
H2668 C2682 0.930 . S
H2669 C2684 0.960 . S
H2670 C2684 0.960 . S
H2671 C2684 0.960 . S
C2672 H2664 0.929 . S
C2672 C2673 1.377 . S
C2672 C2674 1.384 . S
C2673 C2672 1.377 . S
C2673 C2679 1.390 . S
C2674 H2665 0.930 . S
C2674 C2672 1.384 . S
C2674 C2675 1.372 . S
C2675 C2674 1.372 . S
C2675 C2676 1.400 . S
C2675 C2680 1.490 . S
C2676 H2666 0.930 . S
C2676 C2675 1.400 . S
C2676 C2679 1.386 . S
H2677 C2693 0.930 . S
H2678 C2694 0.931 . S
C2679 H2667 0.929 . S
C2679 C2673 1.390 . S
C2679 C2676 1.386 . S
C2680 C2675 1.490 . S
C2680 C2682 1.395 . S
C2680 C2683 1.403 . S
H2681 C2687 0.930 . S
C2682 H2668 0.930 . S
C2682 C2680 1.395 . S
C2682 C2685 1.403 . S
C2683 C2680 1.403 . S
C2683 C2684 1.524 . S
C2683 C2687 1.400 . S
C2684 H2669 0.960 . S
C2684 H2670 0.960 . S
C2684 H2671 0.960 . S
C2684 C2683 1.524 . S
C2685 C2682 1.403 . S
C2685 C2686 1.392 . S
C2685 C2689 1.495 . S
C2686 C2685 1.392 . S
C2686 C2687 1.385 . S
C2686 C2688 1.478 . S
C2687 H2681 0.930 . S
C2687 C2683 1.400 . S
C2687 C2686 1.385 . S
C2688 C2686 1.478 . S
C2688 C2690 1.381 . S
C2688 C2694 1.383 . S
C2689 C2685 1.495 . S
C2689 H2695 0.959 . S
C2689 H2696 0.961 . S
C2689 H2697 0.960 . S
C2690 C2688 1.381 . S
C2690 C2691 1.394 . S
C2690 H2698 0.930 . S
C2691 C2690 1.394 . S
C2691 C2692 1.383 . S
C2691 H2699 0.929 . S
C2692 C2691 1.383 . S
C2692 C2693 1.377 . S
C2693 H2677 0.930 . S
C2693 C2692 1.377 . S
C2693 C2694 1.379 . S
C2694 H2678 0.931 . S
C2694 C2688 1.383 . S
C2694 C2693 1.379 . S
H2695 C2689 0.959 . S
H2696 C2689 0.961 . S
H2697 C2689 0.960 . S
H2698 C2690 0.930 . S
H2699 C2691 0.929 . S
H2700 C2708 0.929 . S
H2701 C2710 0.930 . S
H2702 C2712 0.930 . S
H2703 C2715 0.929 . S
H2704 C2718 0.930 . S
H2705 C2720 0.960 . S
H2706 C2720 0.960 . S
H2707 C2720 0.960 . S
C2708 H2700 0.929 . S
C2708 C2709 1.377 . S
C2708 C2710 1.384 . S
C2709 C2708 1.377 . S
C2709 C2715 1.390 . S
C2710 H2701 0.930 . S
C2710 C2708 1.384 . S
C2710 C2711 1.372 . S
C2711 C2710 1.372 . S
C2711 C2712 1.400 . S
C2711 C2716 1.490 . S
C2712 H2702 0.930 . S
C2712 C2711 1.400 . S
C2712 C2715 1.386 . S
H2713 C2729 0.930 . S
H2714 C2730 0.931 . S
C2715 H2703 0.929 . S
C2715 C2709 1.390 . S
C2715 C2712 1.386 . S
C2716 C2711 1.490 . S
C2716 C2718 1.395 . S
C2716 C2719 1.403 . S
H2717 C2723 0.930 . S
C2718 H2704 0.930 . S
C2718 C2716 1.395 . S
C2718 C2721 1.403 . S
C2719 C2716 1.403 . S
C2719 C2720 1.524 . S
C2719 C2723 1.400 . S
C2720 H2705 0.960 . S
C2720 H2706 0.960 . S
C2720 H2707 0.960 . S
C2720 C2719 1.524 . S
C2721 C2718 1.403 . S
C2721 C2722 1.392 . S
C2721 C2725 1.495 . S
C2722 C2721 1.392 . S
C2722 C2723 1.385 . S
C2722 C2724 1.478 . S
C2723 H2717 0.930 . S
C2723 C2719 1.400 . S
C2723 C2722 1.385 . S
C2724 C2722 1.478 . S
C2724 C2726 1.381 . S
C2724 C2730 1.383 . S
C2725 C2721 1.495 . S
C2725 H2731 0.959 . S
C2725 H2732 0.961 . S
C2725 H2733 0.960 . S
C2726 C2724 1.381 . S
C2726 C2727 1.394 . S
C2726 H2734 0.930 . S
C2727 C2726 1.394 . S
C2727 C2728 1.383 . S
C2727 H2735 0.929 . S
C2728 C2727 1.383 . S
C2728 C2729 1.377 . S
C2729 H2713 0.930 . S
C2729 C2728 1.377 . S
C2729 C2730 1.379 . S
C2730 H2714 0.931 . S
C2730 C2724 1.383 . S
C2730 C2729 1.379 . S
H2731 C2725 0.959 . S
H2732 C2725 0.961 . S
H2733 C2725 0.960 . S
H2734 C2726 0.930 . S
H2735 C2727 0.929 . S
H2736 C2744 0.929 . S
H2737 C2746 0.930 . S
H2738 C2748 0.930 . S
H2739 C2751 0.929 . S
H2740 C2754 0.930 . S
H2741 C2756 0.960 . S
H2742 C2756 0.960 . S
H2743 C2756 0.960 . S
C2744 H2736 0.929 . S
C2744 C2745 1.377 . S
C2744 C2746 1.384 . S
C2745 C2744 1.377 . S
C2745 C2751 1.390 . S
C2746 H2737 0.930 . S
C2746 C2744 1.384 . S
C2746 C2747 1.372 . S
C2747 C2746 1.372 . S
C2747 C2748 1.400 . S
C2747 C2752 1.490 . S
C2748 H2738 0.930 . S
C2748 C2747 1.400 . S
C2748 C2751 1.386 . S
H2749 C2765 0.930 . S
H2750 C2766 0.931 . S
C2751 H2739 0.929 . S
C2751 C2745 1.390 . S
C2751 C2748 1.386 . S
C2752 C2747 1.490 . S
C2752 C2754 1.395 . S
C2752 C2755 1.403 . S
H2753 C2759 0.930 . S
C2754 H2740 0.930 . S
C2754 C2752 1.395 . S
C2754 C2757 1.403 . S
C2755 C2752 1.403 . S
C2755 C2756 1.524 . S
C2755 C2759 1.400 . S
C2756 H2741 0.960 . S
C2756 H2742 0.960 . S
C2756 H2743 0.960 . S
C2756 C2755 1.524 . S
C2757 C2754 1.403 . S
C2757 C2758 1.392 . S
C2757 C2761 1.495 . S
C2758 C2757 1.392 . S
C2758 C2759 1.385 . S
C2758 C2760 1.478 . S
C2759 H2753 0.930 . S
C2759 C2755 1.400 . S
C2759 C2758 1.385 . S
C2760 C2758 1.478 . S
C2760 C2762 1.381 . S
C2760 C2766 1.383 . S
C2761 C2757 1.495 . S
C2761 H2767 0.959 . S
C2761 H2768 0.961 . S
C2761 H2769 0.960 . S
C2762 C2760 1.381 . S
C2762 C2763 1.394 . S
C2762 H2770 0.930 . S
C2763 C2762 1.394 . S
C2763 C2764 1.383 . S
C2763 H2771 0.929 . S
C2764 C2763 1.383 . S
C2764 C2765 1.377 . S
C2765 H2749 0.930 . S
C2765 C2764 1.377 . S
C2765 C2766 1.379 . S
C2766 H2750 0.931 . S
C2766 C2760 1.383 . S
C2766 C2765 1.379 . S
H2767 C2761 0.959 . S
H2768 C2761 0.961 . S
H2769 C2761 0.960 . S
H2770 C2762 0.930 . S
H2771 C2763 0.929 . S
H2772 C2780 0.929 . S
H2773 C2782 0.930 . S
H2774 C2784 0.930 . S
H2775 C2787 0.929 . S
H2776 C2790 0.930 . S
H2777 C2792 0.960 . S
H2778 C2792 0.960 . S
H2779 C2792 0.960 . S
C2780 H2772 0.929 . S
C2780 C2781 1.377 . S
C2780 C2782 1.384 . S
C2781 C2780 1.377 . S
C2781 C2787 1.390 . S
C2782 H2773 0.930 . S
C2782 C2780 1.384 . S
C2782 C2783 1.372 . S
C2783 C2782 1.372 . S
C2783 C2784 1.400 . S
C2783 C2788 1.490 . S
C2784 H2774 0.930 . S
C2784 C2783 1.400 . S
C2784 C2787 1.386 . S
H2785 C2801 0.930 . S
H2786 C2802 0.931 . S
C2787 H2775 0.929 . S
C2787 C2781 1.390 . S
C2787 C2784 1.386 . S
C2788 C2783 1.490 . S
C2788 C2790 1.395 . S
C2788 C2791 1.403 . S
H2789 C2795 0.930 . S
C2790 H2776 0.930 . S
C2790 C2788 1.395 . S
C2790 C2793 1.403 . S
C2791 C2788 1.403 . S
C2791 C2792 1.524 . S
C2791 C2795 1.400 . S
C2792 H2777 0.960 . S
C2792 H2778 0.960 . S
C2792 H2779 0.960 . S
C2792 C2791 1.524 . S
C2793 C2790 1.403 . S
C2793 C2794 1.392 . S
C2793 C2797 1.495 . S
C2794 C2793 1.392 . S
C2794 C2795 1.385 . S
C2794 C2796 1.478 . S
C2795 H2789 0.930 . S
C2795 C2791 1.400 . S
C2795 C2794 1.385 . S
C2796 C2794 1.478 . S
C2796 C2798 1.381 . S
C2796 C2802 1.383 . S
C2797 C2793 1.495 . S
C2797 H2803 0.959 . S
C2797 H2804 0.961 . S
C2797 H2805 0.960 . S
C2798 C2796 1.381 . S
C2798 C2799 1.394 . S
C2798 H2806 0.930 . S
C2799 C2798 1.394 . S
C2799 C2800 1.383 . S
C2799 H2807 0.929 . S
C2800 C2799 1.383 . S
C2800 C2801 1.377 . S
C2801 H2785 0.930 . S
C2801 C2800 1.377 . S
C2801 C2802 1.379 . S
C2802 H2786 0.931 . S
C2802 C2796 1.383 . S
C2802 C2801 1.379 . S
H2803 C2797 0.959 . S
H2804 C2797 0.961 . S
H2805 C2797 0.960 . S
H2806 C2798 0.930 . S
H2807 C2799 0.929 . S
H2808 C2816 0.929 . S
H2809 C2818 0.930 . S
H2810 C2820 0.930 . S
H2811 C2823 0.929 . S
H2812 C2826 0.930 . S
H2813 C2828 0.960 . S
H2814 C2828 0.960 . S
H2815 C2828 0.960 . S
C2816 H2808 0.929 . S
C2816 C2817 1.377 . S
C2816 C2818 1.384 . S
C2817 C2816 1.377 . S
C2817 C2823 1.390 . S
C2818 H2809 0.930 . S
C2818 C2816 1.384 . S
C2818 C2819 1.372 . S
C2819 C2818 1.372 . S
C2819 C2820 1.400 . S
C2819 C2824 1.490 . S
C2820 H2810 0.930 . S
C2820 C2819 1.400 . S
C2820 C2823 1.386 . S
H2821 C2837 0.930 . S
H2822 C2838 0.931 . S
C2823 H2811 0.929 . S
C2823 C2817 1.390 . S
C2823 C2820 1.386 . S
C2824 C2819 1.490 . S
C2824 C2826 1.395 . S
C2824 C2827 1.403 . S
H2825 C2831 0.930 . S
C2826 H2812 0.930 . S
C2826 C2824 1.395 . S
C2826 C2829 1.403 . S
C2827 C2824 1.403 . S
C2827 C2828 1.524 . S
C2827 C2831 1.400 . S
C2828 H2813 0.960 . S
C2828 H2814 0.960 . S
C2828 H2815 0.960 . S
C2828 C2827 1.524 . S
C2829 C2826 1.403 . S
C2829 C2830 1.392 . S
C2829 C2833 1.495 . S
C2830 C2829 1.392 . S
C2830 C2831 1.385 . S
C2830 C2832 1.478 . S
C2831 H2825 0.930 . S
C2831 C2827 1.400 . S
C2831 C2830 1.385 . S
C2832 C2830 1.478 . S
C2832 C2834 1.381 . S
C2832 C2838 1.383 . S
C2833 C2829 1.495 . S
C2833 H2839 0.959 . S
C2833 H2840 0.961 . S
C2833 H2841 0.960 . S
C2834 C2832 1.381 . S
C2834 C2835 1.394 . S
C2834 H2842 0.930 . S
C2835 C2834 1.394 . S
C2835 C2836 1.383 . S
C2835 H2843 0.929 . S
C2836 C2835 1.383 . S
C2836 C2837 1.377 . S
C2837 H2821 0.930 . S
C2837 C2836 1.377 . S
C2837 C2838 1.379 . S
C2838 H2822 0.931 . S
C2838 C2832 1.383 . S
C2838 C2837 1.379 . S
H2839 C2833 0.959 . S
H2840 C2833 0.961 . S
H2841 C2833 0.960 . S
H2842 C2834 0.930 . S
H2843 C2835 0.929 . S
H2844 C2852 0.929 . S
H2845 C2854 0.930 . S
H2846 C2856 0.930 . S
H2847 C2859 0.929 . S
H2848 C2862 0.930 . S
H2849 C2864 0.960 . S
H2850 C2864 0.960 . S
H2851 C2864 0.960 . S
C2852 H2844 0.929 . S
C2852 C2853 1.377 . S
C2852 C2854 1.384 . S
C2853 C2852 1.377 . S
C2853 C2859 1.390 . S
C2854 H2845 0.930 . S
C2854 C2852 1.384 . S
C2854 C2855 1.372 . S
C2855 C2854 1.372 . S
C2855 C2856 1.400 . S
C2855 C2860 1.490 . S
C2856 H2846 0.930 . S
C2856 C2855 1.400 . S
C2856 C2859 1.386 . S
H2857 C2873 0.930 . S
H2858 C2874 0.931 . S
C2859 H2847 0.929 . S
C2859 C2853 1.390 . S
C2859 C2856 1.386 . S
C2860 C2855 1.490 . S
C2860 C2862 1.395 . S
C2860 C2863 1.403 . S
H2861 C2867 0.930 . S
C2862 H2848 0.930 . S
C2862 C2860 1.395 . S
C2862 C2865 1.403 . S
C2863 C2860 1.403 . S
C2863 C2864 1.524 . S
C2863 C2867 1.400 . S
C2864 H2849 0.960 . S
C2864 H2850 0.960 . S
C2864 H2851 0.960 . S
C2864 C2863 1.524 . S
C2865 C2862 1.403 . S
C2865 C2866 1.392 . S
C2865 C2869 1.495 . S
C2866 C2865 1.392 . S
C2866 C2867 1.385 . S
C2866 C2868 1.478 . S
C2867 H2861 0.930 . S
C2867 C2863 1.400 . S
C2867 C2866 1.385 . S
C2868 C2866 1.478 . S
C2868 C2870 1.381 . S
C2868 C2874 1.383 . S
C2869 C2865 1.495 . S
C2869 H2875 0.959 . S
C2869 H2876 0.961 . S
C2869 H2877 0.960 . S
C2870 C2868 1.381 . S
C2870 C2871 1.394 . S
C2870 H2878 0.930 . S
C2871 C2870 1.394 . S
C2871 C2872 1.383 . S
C2871 H2879 0.929 . S
C2872 C2871 1.383 . S
C2872 C2873 1.377 . S
C2873 H2857 0.930 . S
C2873 C2872 1.377 . S
C2873 C2874 1.379 . S
C2874 H2858 0.931 . S
C2874 C2868 1.383 . S
C2874 C2873 1.379 . S
H2875 C2869 0.959 . S
H2876 C2869 0.961 . S
H2877 C2869 0.960 . S
H2878 C2870 0.930 . S
H2879 C2871 0.929 . S
H2880 C2888 0.929 . S
H2881 C2890 0.930 . S
H2882 C2892 0.930 . S
H2883 C2895 0.929 . S
H2884 C2898 0.930 . S
H2885 C2900 0.960 . S
H2886 C2900 0.960 . S
H2887 C2900 0.960 . S
C2888 H2880 0.929 . S
C2888 C2889 1.377 . S
C2888 C2890 1.384 . S
C2889 C2888 1.377 . S
C2889 C2895 1.390 . S
C2890 H2881 0.930 . S
C2890 C2888 1.384 . S
C2890 C2891 1.372 . S
C2891 C2890 1.372 . S
C2891 C2892 1.400 . S
C2891 C2896 1.490 . S
C2892 H2882 0.930 . S
C2892 C2891 1.400 . S
C2892 C2895 1.386 . S
H2893 C2909 0.930 . S
H2894 C2910 0.931 . S
C2895 H2883 0.929 . S
C2895 C2889 1.390 . S
C2895 C2892 1.386 . S
C2896 C2891 1.490 . S
C2896 C2898 1.395 . S
C2896 C2899 1.403 . S
H2897 C2903 0.930 . S
C2898 H2884 0.930 . S
C2898 C2896 1.395 . S
C2898 C2901 1.403 . S
C2899 C2896 1.403 . S
C2899 C2900 1.524 . S
C2899 C2903 1.400 . S
C2900 H2885 0.960 . S
C2900 H2886 0.960 . S
C2900 H2887 0.960 . S
C2900 C2899 1.524 . S
C2901 C2898 1.403 . S
C2901 C2902 1.392 . S
C2901 C2905 1.495 . S
C2902 C2901 1.392 . S
C2902 C2903 1.385 . S
C2902 C2904 1.478 . S
C2903 H2897 0.930 . S
C2903 C2899 1.400 . S
C2903 C2902 1.385 . S
C2904 C2902 1.478 . S
C2904 C2906 1.381 . S
C2904 C2910 1.383 . S
C2905 C2901 1.495 . S
C2905 H2911 0.959 . S
C2905 H2912 0.961 . S
C2905 H2913 0.960 . S
C2906 C2904 1.381 . S
C2906 C2907 1.394 . S
C2906 H2914 0.930 . S
C2907 C2906 1.394 . S
C2907 C2908 1.383 . S
C2907 H2915 0.929 . S
C2908 C2907 1.383 . S
C2908 C2909 1.377 . S
C2909 H2893 0.930 . S
C2909 C2908 1.377 . S
C2909 C2910 1.379 . S
C2910 H2894 0.931 . S
C2910 C2904 1.383 . S
C2910 C2909 1.379 . S
H2911 C2905 0.959 . S
H2912 C2905 0.961 . S
H2913 C2905 0.960 . S
H2914 C2906 0.930 . S
H2915 C2907 0.929 . S
H2916 C2924 0.929 . S
H2917 C2926 0.930 . S
H2918 C2928 0.930 . S
H2919 C2931 0.929 . S
H2920 C2934 0.930 . S
H2921 C2936 0.960 . S
H2922 C2936 0.960 . S
H2923 C2936 0.960 . S
C2924 H2916 0.929 . S
C2924 C2925 1.377 . S
C2924 C2926 1.384 . S
C2925 C2924 1.377 . S
C2925 C2931 1.390 . S
C2926 H2917 0.930 . S
C2926 C2924 1.384 . S
C2926 C2927 1.372 . S
C2927 C2926 1.372 . S
C2927 C2928 1.400 . S
C2927 C2932 1.490 . S
C2928 H2918 0.930 . S
C2928 C2927 1.400 . S
C2928 C2931 1.386 . S
H2929 C2945 0.930 . S
H2930 C2946 0.931 . S
C2931 H2919 0.929 . S
C2931 C2925 1.390 . S
C2931 C2928 1.386 . S
C2932 C2927 1.490 . S
C2932 C2934 1.395 . S
C2932 C2935 1.403 . S
H2933 C2939 0.930 . S
C2934 H2920 0.930 . S
C2934 C2932 1.395 . S
C2934 C2937 1.403 . S
C2935 C2932 1.403 . S
C2935 C2936 1.524 . S
C2935 C2939 1.400 . S
C2936 H2921 0.960 . S
C2936 H2922 0.960 . S
C2936 H2923 0.960 . S
C2936 C2935 1.524 . S
C2937 C2934 1.403 . S
C2937 C2938 1.392 . S
C2937 C2941 1.495 . S
C2938 C2937 1.392 . S
C2938 C2939 1.385 . S
C2938 C2940 1.478 . S
C2939 H2933 0.930 . S
C2939 C2935 1.400 . S
C2939 C2938 1.385 . S
C2940 C2938 1.478 . S
C2940 C2942 1.381 . S
C2940 C2946 1.383 . S
C2941 C2937 1.495 . S
C2941 H2947 0.959 . S
C2941 H2948 0.961 . S
C2941 H2949 0.960 . S
C2942 C2940 1.381 . S
C2942 C2943 1.394 . S
C2942 H2950 0.930 . S
C2943 C2942 1.394 . S
C2943 C2944 1.383 . S
C2943 H2951 0.929 . S
C2944 C2943 1.383 . S
C2944 C2945 1.377 . S
C2945 H2929 0.930 . S
C2945 C2944 1.377 . S
C2945 C2946 1.379 . S
C2946 H2930 0.931 . S
C2946 C2940 1.383 . S
C2946 C2945 1.379 . S
H2947 C2941 0.959 . S
H2948 C2941 0.961 . S
H2949 C2941 0.960 . S
H2950 C2942 0.930 . S
H2951 C2943 0.929 . S
H2952 C2960 0.929 . S
H2953 C2962 0.930 . S
H2954 C2964 0.930 . S
H2955 C2967 0.929 . S
H2956 C2970 0.930 . S
H2957 C2972 0.960 . S
H2958 C2972 0.960 . S
H2959 C2972 0.960 . S
C2960 H2952 0.929 . S
C2960 C2961 1.377 . S
C2960 C2962 1.384 . S
C2961 C2960 1.377 . S
C2961 C2967 1.390 . S
C2962 H2953 0.930 . S
C2962 C2960 1.384 . S
C2962 C2963 1.372 . S
C2963 C2962 1.372 . S
C2963 C2964 1.400 . S
C2963 C2968 1.490 . S
C2964 H2954 0.930 . S
C2964 C2963 1.400 . S
C2964 C2967 1.386 . S
H2965 C2981 0.930 . S
H2966 C2982 0.931 . S
C2967 H2955 0.929 . S
C2967 C2961 1.390 . S
C2967 C2964 1.386 . S
C2968 C2963 1.490 . S
C2968 C2970 1.395 . S
C2968 C2971 1.403 . S
H2969 C2975 0.930 . S
C2970 H2956 0.930 . S
C2970 C2968 1.395 . S
C2970 C2973 1.403 . S
C2971 C2968 1.403 . S
C2971 C2972 1.524 . S
C2971 C2975 1.400 . S
C2972 H2957 0.960 . S
C2972 H2958 0.960 . S
C2972 H2959 0.960 . S
C2972 C2971 1.524 . S
C2973 C2970 1.403 . S
C2973 C2974 1.392 . S
C2973 C2977 1.495 . S
C2974 C2973 1.392 . S
C2974 C2975 1.385 . S
C2974 C2976 1.478 . S
C2975 H2969 0.930 . S
C2975 C2971 1.400 . S
C2975 C2974 1.385 . S
C2976 C2974 1.478 . S
C2976 C2978 1.381 . S
C2976 C2982 1.383 . S
C2977 C2973 1.495 . S
C2977 H2983 0.959 . S
C2977 H2984 0.961 . S
C2977 H2985 0.960 . S
C2978 C2976 1.381 . S
C2978 C2979 1.394 . S
C2978 H2986 0.930 . S
C2979 C2978 1.394 . S
C2979 C2980 1.383 . S
C2979 H2987 0.929 . S
C2980 C2979 1.383 . S
C2980 C2981 1.377 . S
C2981 H2965 0.930 . S
C2981 C2980 1.377 . S
C2981 C2982 1.379 . S
C2982 H2966 0.931 . S
C2982 C2976 1.383 . S
C2982 C2981 1.379 . S
H2983 C2977 0.959 . S
H2984 C2977 0.961 . S
H2985 C2977 0.960 . S
H2986 C2978 0.930 . S
H2987 C2979 0.929 . S
H2988 C2996 0.929 . S
H2989 C2998 0.930 . S
H2990 C3000 0.930 . S
H2991 C3003 0.929 . S
H2992 C3006 0.930 . S
H2993 C3008 0.960 . S
H2994 C3008 0.960 . S
H2995 C3008 0.960 . S
C2996 H2988 0.929 . S
C2996 C2997 1.377 . S
C2996 C2998 1.384 . S
C2997 C2996 1.377 . S
C2997 C3003 1.390 . S
C2998 H2989 0.930 . S
C2998 C2996 1.384 . S
C2998 C2999 1.372 . S
C2999 C2998 1.372 . S
C2999 C3000 1.400 . S
C2999 C3004 1.490 . S
C3000 H2990 0.930 . S
C3000 C2999 1.400 . S
C3000 C3003 1.386 . S
H3001 C3017 0.930 . S
H3002 C3018 0.931 . S
C3003 H2991 0.929 . S
C3003 C2997 1.390 . S
C3003 C3000 1.386 . S
C3004 C2999 1.490 . S
C3004 C3006 1.395 . S
C3004 C3007 1.403 . S
H3005 C3011 0.930 . S
C3006 H2992 0.930 . S
C3006 C3004 1.395 . S
C3006 C3009 1.403 . S
C3007 C3004 1.403 . S
C3007 C3008 1.524 . S
C3007 C3011 1.400 . S
C3008 H2993 0.960 . S
C3008 H2994 0.960 . S
C3008 H2995 0.960 . S
C3008 C3007 1.524 . S
C3009 C3006 1.403 . S
C3009 C3010 1.392 . S
C3009 C3013 1.495 . S
C3010 C3009 1.392 . S
C3010 C3011 1.385 . S
C3010 C3012 1.478 . S
C3011 H3005 0.930 . S
C3011 C3007 1.400 . S
C3011 C3010 1.385 . S
C3012 C3010 1.478 . S
C3012 C3014 1.381 . S
C3012 C3018 1.383 . S
C3013 C3009 1.495 . S
C3013 H3019 0.959 . S
C3013 H3020 0.961 . S
C3013 H3021 0.960 . S
C3014 C3012 1.381 . S
C3014 C3015 1.394 . S
C3014 H3022 0.930 . S
C3015 C3014 1.394 . S
C3015 C3016 1.383 . S
C3015 H3023 0.929 . S
C3016 C3015 1.383 . S
C3016 C3017 1.377 . S
C3017 H3001 0.930 . S
C3017 C3016 1.377 . S
C3017 C3018 1.379 . S
C3018 H3002 0.931 . S
C3018 C3012 1.383 . S
C3018 C3017 1.379 . S
H3019 C3013 0.959 . S
H3020 C3013 0.961 . S
H3021 C3013 0.960 . S
H3022 C3014 0.930 . S
H3023 C3015 0.929 . S
H3024 C3032 0.929 . S
H3025 C3034 0.930 . S
H3026 C3036 0.930 . S
H3027 C3039 0.929 . S
H3028 C3042 0.930 . S
H3029 C3044 0.960 . S
H3030 C3044 0.960 . S
H3031 C3044 0.960 . S
C3032 H3024 0.929 . S
C3032 C3033 1.377 . S
C3032 C3034 1.384 . S
C3033 C3032 1.377 . S
C3033 C3039 1.390 . S
C3034 H3025 0.930 . S
C3034 C3032 1.384 . S
C3034 C3035 1.372 . S
C3035 C3034 1.372 . S
C3035 C3036 1.400 . S
C3035 C3040 1.490 . S
C3036 H3026 0.930 . S
C3036 C3035 1.400 . S
C3036 C3039 1.386 . S
H3037 C3053 0.930 . S
H3038 C3054 0.931 . S
C3039 H3027 0.929 . S
C3039 C3033 1.390 . S
C3039 C3036 1.386 . S
C3040 C3035 1.490 . S
C3040 C3042 1.395 . S
C3040 C3043 1.403 . S
H3041 C3047 0.930 . S
C3042 H3028 0.930 . S
C3042 C3040 1.395 . S
C3042 C3045 1.403 . S
C3043 C3040 1.403 . S
C3043 C3044 1.524 . S
C3043 C3047 1.400 . S
C3044 H3029 0.960 . S
C3044 H3030 0.960 . S
C3044 H3031 0.960 . S
C3044 C3043 1.524 . S
C3045 C3042 1.403 . S
C3045 C3046 1.392 . S
C3045 C3049 1.495 . S
C3046 C3045 1.392 . S
C3046 C3047 1.385 . S
C3046 C3048 1.478 . S
C3047 H3041 0.930 . S
C3047 C3043 1.400 . S
C3047 C3046 1.385 . S
C3048 C3046 1.478 . S
C3048 C3050 1.381 . S
C3048 C3054 1.383 . S
C3049 C3045 1.495 . S
C3049 H3055 0.959 . S
C3049 H3056 0.961 . S
C3049 H3057 0.960 . S
C3050 C3048 1.381 . S
C3050 C3051 1.394 . S
C3050 H3058 0.930 . S
C3051 C3050 1.394 . S
C3051 C3052 1.383 . S
C3051 H3059 0.929 . S
C3052 C3051 1.383 . S
C3052 C3053 1.377 . S
C3053 H3037 0.930 . S
C3053 C3052 1.377 . S
C3053 C3054 1.379 . S
C3054 H3038 0.931 . S
C3054 C3048 1.383 . S
C3054 C3053 1.379 . S
H3055 C3049 0.959 . S
H3056 C3049 0.961 . S
H3057 C3049 0.960 . S
H3058 C3050 0.930 . S
H3059 C3051 0.929 . S
H3060 C3068 0.929 . S
H3061 C3070 0.930 . S
H3062 C3072 0.930 . S
H3063 C3075 0.929 . S
H3064 C3078 0.930 . S
H3065 C3080 0.960 . S
H3066 C3080 0.960 . S
H3067 C3080 0.960 . S
C3068 H3060 0.929 . S
C3068 C3069 1.377 . S
C3068 C3070 1.384 . S
C3069 C3068 1.377 . S
C3069 C3075 1.390 . S
C3070 H3061 0.930 . S
C3070 C3068 1.384 . S
C3070 C3071 1.372 . S
C3071 C3070 1.372 . S
C3071 C3072 1.400 . S
C3071 C3076 1.490 . S
C3072 H3062 0.930 . S
C3072 C3071 1.400 . S
C3072 C3075 1.386 . S
H3073 C3089 0.930 . S
H3074 C3090 0.931 . S
C3075 H3063 0.929 . S
C3075 C3069 1.390 . S
C3075 C3072 1.386 . S
C3076 C3071 1.490 . S
C3076 C3078 1.395 . S
C3076 C3079 1.403 . S
H3077 C3083 0.930 . S
C3078 H3064 0.930 . S
C3078 C3076 1.395 . S
C3078 C3081 1.403 . S
C3079 C3076 1.403 . S
C3079 C3080 1.524 . S
C3079 C3083 1.400 . S
C3080 H3065 0.960 . S
C3080 H3066 0.960 . S
C3080 H3067 0.960 . S
C3080 C3079 1.524 . S
C3081 C3078 1.403 . S
C3081 C3082 1.392 . S
C3081 C3085 1.495 . S
C3082 C3081 1.392 . S
C3082 C3083 1.385 . S
C3082 C3084 1.478 . S
C3083 H3077 0.930 . S
C3083 C3079 1.400 . S
C3083 C3082 1.385 . S
C3084 C3082 1.478 . S
C3084 C3086 1.381 . S
C3084 C3090 1.383 . S
C3085 C3081 1.495 . S
C3085 H3091 0.959 . S
C3085 H3092 0.961 . S
C3085 H3093 0.960 . S
C3086 C3084 1.381 . S
C3086 C3087 1.394 . S
C3086 H3094 0.930 . S
C3087 C3086 1.394 . S
C3087 C3088 1.383 . S
C3087 H3095 0.929 . S
C3088 C3087 1.383 . S
C3088 C3089 1.377 . S
C3089 H3073 0.930 . S
C3089 C3088 1.377 . S
C3089 C3090 1.379 . S
C3090 H3074 0.931 . S
C3090 C3084 1.383 . S
C3090 C3089 1.379 . S
H3091 C3085 0.959 . S
H3092 C3085 0.961 . S
H3093 C3085 0.960 . S
H3094 C3086 0.930 . S
H3095 C3087 0.929 . S
H3096 C3104 0.929 . S
H3097 C3106 0.897 1_565 S
H3098 C3108 0.930 . S
H3099 C3111 0.929 . S
H3100 C3114 0.930 . S
H3101 C3116 0.960 . S
H3102 C3116 0.953 1_545 S
H3103 C3116 0.984 . S
C3104 H3096 0.929 . S
C3104 C3105 1.377 . S
C3104 C3106 1.439 . S
C3105 C3104 1.377 . S
C3105 C3111 1.390 . S
C3106 H3097 0.897 1_545 S
C3106 C3104 1.439 . S
C3106 C3107 1.352 1_545 S
C3107 C3106 1.352 1_565 S
C3107 C3108 1.400 1_565 S
C3107 C3112 1.490 . S
C3108 H3098 0.930 . S
C3108 C3107 1.400 1_545 S
C3108 C3111 1.386 . S
H3109 C3125 0.930 . S
H3110 C3126 0.931 . S
C3111 H3099 0.929 . S
C3111 C3105 1.390 . S
C3111 C3108 1.386 . S
C3112 C3107 1.490 . S
C3112 C3114 1.395 . S
C3112 C3115 1.403 . S
H3113 C3119 0.930 . S
C3114 H3100 0.930 . S
C3114 C3112 1.395 . S
C3114 C3117 1.403 . S
C3115 C3112 1.403 . S
C3115 C3116 1.524 . S
C3115 C3119 1.400 . S
C3116 H3101 0.960 . S
C3116 H3102 0.953 1_565 S
C3116 H3103 0.984 . S
C3116 C3115 1.524 . S
C3117 C3114 1.403 . S
C3117 C3118 1.392 . S
C3117 C3121 1.495 . S
C3118 C3117 1.392 . S
C3118 C3119 1.385 . S
C3118 C3120 1.478 . S
C3119 H3113 0.930 . S
C3119 C3115 1.400 . S
C3119 C3118 1.385 . S
C3120 C3118 1.478 . S
C3120 C3122 1.381 . S
C3120 C3126 1.383 . S
C3121 C3117 1.495 . S
C3121 H3127 0.959 . S
C3121 H3128 0.961 . S
C3121 H3129 0.960 . S
C3122 C3120 1.381 . S
C3122 C3123 1.394 . S
C3122 H3130 0.930 . S
C3123 C3122 1.394 . S
C3123 C3124 1.383 . S
C3123 H3131 0.929 . S
C3124 C3123 1.383 . S
C3124 C3125 1.377 . S
C3125 H3109 0.930 . S
C3125 C3124 1.377 . S
C3125 C3126 1.379 . S
C3126 H3110 0.931 . S
C3126 C3120 1.383 . S
C3126 C3125 1.379 . S
H3127 C3121 0.959 . S
H3128 C3121 0.961 . S
H3129 C3121 0.960 . S
H3130 C3122 0.930 . S
H3131 C3123 0.929 . S
H3132 C3140 0.929 . S
H3133 C3142 0.930 . S
H3134 C3144 0.930 . S
H3135 C3147 0.929 . S
H3136 C3150 0.930 . S
H3137 C3152 0.960 . S
H3138 C3152 0.960 . S
H3139 C3152 0.960 . S
C3140 H3132 0.929 . S
C3140 C3141 1.377 . S
C3140 C3142 1.384 . S
C3141 C3140 1.377 . S
C3141 C3147 1.390 . S
C3142 H3133 0.930 . S
C3142 C3140 1.384 . S
C3142 C3143 1.372 . S
C3143 C3142 1.372 . S
C3143 C3144 1.400 . S
C3143 C3148 1.490 . S
C3144 H3134 0.930 . S
C3144 C3143 1.400 . S
C3144 C3147 1.386 . S
H3145 C3161 0.930 . S
H3146 C3162 0.931 . S
C3147 H3135 0.929 . S
C3147 C3141 1.390 . S
C3147 C3144 1.386 . S
C3148 C3143 1.490 . S
C3148 C3150 1.395 . S
C3148 C3151 1.403 . S
H3149 C3155 0.930 . S
C3150 H3136 0.930 . S
C3150 C3148 1.395 . S
C3150 C3153 1.403 . S
C3151 C3148 1.403 . S
C3151 C3152 1.524 . S
C3151 C3155 1.400 . S
C3152 H3137 0.960 . S
C3152 H3138 0.960 . S
C3152 H3139 0.960 . S
C3152 C3151 1.524 . S
C3153 C3150 1.403 . S
C3153 C3154 1.392 . S
C3153 C3157 1.495 . S
C3154 C3153 1.392 . S
C3154 C3155 1.385 . S
C3154 C3156 1.478 . S
C3155 H3149 0.930 . S
C3155 C3151 1.400 . S
C3155 C3154 1.385 . S
C3156 C3154 1.478 . S
C3156 C3158 1.381 . S
C3156 C3162 1.383 . S
C3157 C3153 1.495 . S
C3157 H3163 0.959 . S
C3157 H3164 0.961 . S
C3157 H3165 0.960 . S
C3158 C3156 1.381 . S
C3158 C3159 1.394 . S
C3158 H3166 0.930 . S
C3159 C3158 1.394 . S
C3159 C3160 1.383 . S
C3159 H3167 0.929 . S
C3160 C3159 1.383 . S
C3160 C3161 1.377 . S
C3161 H3145 0.930 . S
C3161 C3160 1.377 . S
C3161 C3162 1.379 . S
C3162 H3146 0.931 . S
C3162 C3156 1.383 . S
C3162 C3161 1.379 . S
H3163 C3157 0.959 . S
H3164 C3157 0.961 . S
H3165 C3157 0.960 . S
H3166 C3158 0.930 . S
H3167 C3159 0.929 . S
H3168 C3176 0.929 . S
H3169 C3178 0.930 . S
H3170 C3180 0.930 . S
H3171 C3183 0.929 . S
H3172 C3186 0.930 . S
H3173 C3188 0.960 . S
H3174 C3188 0.960 . S
H3175 C3188 0.960 . S
C3176 H3168 0.929 . S
C3176 C3177 1.377 . S
C3176 C3178 1.384 1_565 S
C3177 C3176 1.377 . S
C3177 C3183 1.390 . S
C3178 H3169 0.930 . S
C3178 C3176 1.384 1_545 S
C3178 C3179 1.372 . S
C3179 C3178 1.372 . S
C3179 C3180 1.400 1_545 S
C3179 C3184 1.490 . S
C3180 H3170 0.930 . S
C3180 C3179 1.400 1_565 S
C3180 C3183 1.386 . S
H3181 C3197 0.930 . S
H3182 C3198 0.931 . S
C3183 H3171 0.929 . S
C3183 C3177 1.390 . S
C3183 C3180 1.386 . S
C3184 C3179 1.490 . S
C3184 C3186 1.395 . S
C3184 C3187 1.403 . S
H3185 C3191 0.930 . S
C3186 H3172 0.930 . S
C3186 C3184 1.395 . S
C3186 C3189 1.403 . S
C3187 C3184 1.403 . S
C3187 C3188 1.524 . S
C3187 C3191 1.400 . S
C3188 H3173 0.960 . S
C3188 H3174 0.960 . S
C3188 H3175 0.960 . S
C3188 C3187 1.524 . S
C3189 C3186 1.403 . S
C3189 C3190 1.392 . S
C3189 C3193 1.495 . S
C3190 C3189 1.392 . S
C3190 C3191 1.385 . S
C3190 C3192 1.478 . S
C3191 H3185 0.930 . S
C3191 C3187 1.400 . S
C3191 C3190 1.385 . S
C3192 C3190 1.478 . S
C3192 C3194 1.381 . S
C3192 C3198 1.383 . S
C3193 C3189 1.495 . S
C3193 H3199 0.959 . S
C3193 H3200 0.961 . S
C3193 H3201 0.960 . S
C3194 C3192 1.381 . S
C3194 C3195 1.394 . S
C3194 H3202 0.930 . S
C3195 C3194 1.394 . S
C3195 C3196 1.383 . S
C3195 H3203 0.929 . S
C3196 C3195 1.383 . S
C3196 C3197 1.377 . S
C3197 H3181 0.930 . S
C3197 C3196 1.377 . S
C3197 C3198 1.379 . S
C3198 H3182 0.931 . S
C3198 C3192 1.383 . S
C3198 C3197 1.379 . S
H3199 C3193 0.959 . S
H3200 C3193 0.961 . S
H3201 C3193 0.960 . S
H3202 C3194 0.930 . S
H3203 C3195 0.929 . S
H3204 C3212 0.929 . S
H3205 C3214 0.930 . S
H3206 C3216 0.930 . S
H3207 C3219 0.929 . S
H3208 C3222 0.930 . S
H3209 C3224 0.960 . S
H3210 C3224 0.960 . S
H3211 C3224 0.960 . S
C3212 H3204 0.929 . S
C3212 C3213 1.377 . S
C3212 C3214 1.384 . S
C3213 C3212 1.377 . S
C3213 C3219 1.390 . S
C3214 H3205 0.930 . S
C3214 C3212 1.384 . S
C3214 C3215 1.372 . S
C3215 C3214 1.372 . S
C3215 C3216 1.400 . S
C3215 C3220 1.490 . S
C3216 H3206 0.930 . S
C3216 C3215 1.400 . S
C3216 C3219 1.386 . S
H3217 C3233 0.930 . S
H3218 C3234 0.931 . S
C3219 H3207 0.929 . S
C3219 C3213 1.390 . S
C3219 C3216 1.386 . S
C3220 C3215 1.490 . S
C3220 C3222 1.395 . S
C3220 C3223 1.403 . S
H3221 C3227 0.930 . S
C3222 H3208 0.930 . S
C3222 C3220 1.395 . S
C3222 C3225 1.403 . S
C3223 C3220 1.403 . S
C3223 C3224 1.524 . S
C3223 C3227 1.400 . S
C3224 H3209 0.960 . S
C3224 H3210 0.960 . S
C3224 H3211 0.960 . S
C3224 C3223 1.524 . S
C3225 C3222 1.403 . S
C3225 C3226 1.392 . S
C3225 C3229 1.495 . S
C3226 C3225 1.392 . S
C3226 C3227 1.385 . S
C3226 C3228 1.478 . S
C3227 H3221 0.930 . S
C3227 C3223 1.400 . S
C3227 C3226 1.385 . S
C3228 C3226 1.478 . S
C3228 C3230 1.381 . S
C3228 C3234 1.383 . S
C3229 C3225 1.495 . S
C3229 H3235 0.959 . S
C3229 H3236 0.961 . S
C3229 H3237 0.960 . S
C3230 C3228 1.381 . S
C3230 C3231 1.394 . S
C3230 H3238 0.930 . S
C3231 C3230 1.394 . S
C3231 C3232 1.383 . S
C3231 H3239 0.929 . S
C3232 C3231 1.383 . S
C3232 C3233 1.377 . S
C3233 H3217 0.930 . S
C3233 C3232 1.377 . S
C3233 C3234 1.379 . S
C3234 H3218 0.931 . S
C3234 C3228 1.383 . S
C3234 C3233 1.379 . S
H3235 C3229 0.959 . S
H3236 C3229 0.961 . S
H3237 C3229 0.960 . S
H3238 C3230 0.930 . S
H3239 C3231 0.929 . S
H3240 C3248 0.929 . S
H3241 C3250 0.930 . S
H3242 C3252 0.930 . S
H3243 C3255 0.929 . S
H3244 C3258 0.930 . S
H3245 C3260 0.960 . S
H3246 C3260 0.960 . S
H3247 C3260 0.960 . S
C3248 H3240 0.929 . S
C3248 C3249 1.377 . S
C3248 C3250 1.384 . S
C3249 C3248 1.377 . S
C3249 C3255 1.390 . S
C3250 H3241 0.930 . S
C3250 C3248 1.384 . S
C3250 C3251 1.372 . S
C3251 C3250 1.372 . S
C3251 C3252 1.400 . S
C3251 C3256 1.490 . S
C3252 H3242 0.930 . S
C3252 C3251 1.400 . S
C3252 C3255 1.386 . S
H3253 C3269 0.930 . S
H3254 C3270 0.968 . S
C3255 H3243 0.929 . S
C3255 C3249 1.390 . S
C3255 C3252 1.386 . S
C3256 C3251 1.490 . S
C3256 C3258 1.395 . S
C3256 C3259 1.403 . S
H3257 C3263 0.930 . S
C3258 H3244 0.930 . S
C3258 C3256 1.395 . S
C3258 C3261 1.403 . S
C3259 C3256 1.403 . S
C3259 C3260 1.524 . S
C3259 C3263 1.400 . S
C3260 H3245 0.960 . S
C3260 H3246 0.960 . S
C3260 H3247 0.960 . S
C3260 C3259 1.524 . S
C3261 C3258 1.403 . S
C3261 C3262 1.392 . S
C3261 C3265 1.495 . S
C3262 C3261 1.392 . S
C3262 C3263 1.385 . S
C3262 C3264 1.478 . S
C3263 H3257 0.930 . S
C3263 C3259 1.400 . S
C3263 C3262 1.385 . S
C3264 C3262 1.478 . S
C3264 C3266 1.381 1_545 S
C3264 C3270 1.390 . S
C3265 C3261 1.495 . S
C3265 H3271 0.959 . S
C3265 H3272 0.968 . S
C3265 H3273 0.960 1_545 S
C3266 C3264 1.381 1_565 S
C3266 C3267 1.394 . S
C3266 H3274 0.930 . S
C3267 C3266 1.394 . S
C3267 C3268 1.383 . S
C3267 H3275 0.929 . S
C3268 C3267 1.383 . S
C3268 C3269 1.377 . S
C3269 H3253 0.930 . S
C3269 C3268 1.377 . S
C3269 C3270 1.337 1_565 S
C3270 H3254 0.968 . S
C3270 C3264 1.390 . S
C3270 C3269 1.337 1_545 S
H3271 C3265 0.959 . S
H3272 C3265 0.968 . S
H3273 C3265 0.960 1_565 S
H3274 C3266 0.930 . S
H3275 C3267 0.929 . S
H3276 C3284 0.929 . S
H3277 C3286 0.930 . S
H3278 C3288 0.930 . S
H3279 C3291 0.929 . S
H3280 C3294 0.930 . S
H3281 C3296 0.960 . S
H3282 C3296 0.960 . S
H3283 C3296 0.960 . S
C3284 H3276 0.929 . S
C3284 C3285 1.377 . S
C3284 C3286 1.384 . S
C3285 C3284 1.377 . S
C3285 C3291 1.390 . S
C3286 H3277 0.930 . S
C3286 C3284 1.384 . S
C3286 C3287 1.372 . S
C3287 C3286 1.372 . S
C3287 C3288 1.400 . S
C3287 C3292 1.490 . S
C3288 H3278 0.930 . S
C3288 C3287 1.400 . S
C3288 C3291 1.386 . S
H3289 C3305 0.930 . S
H3290 C3306 0.931 . S
C3291 H3279 0.929 . S
C3291 C3285 1.390 . S
C3291 C3288 1.386 . S
C3292 C3287 1.490 . S
C3292 C3294 1.395 . S
C3292 C3295 1.403 . S
H3293 C3299 0.930 . S
C3294 H3280 0.930 . S
C3294 C3292 1.395 . S
C3294 C3297 1.403 . S
C3295 C3292 1.403 . S
C3295 C3296 1.524 . S
C3295 C3299 1.400 . S
C3296 H3281 0.960 . S
C3296 H3282 0.960 . S
C3296 H3283 0.960 . S
C3296 C3295 1.524 . S
C3297 C3294 1.403 . S
C3297 C3298 1.392 . S
C3297 C3301 1.495 . S
C3298 C3297 1.392 . S
C3298 C3299 1.385 . S
C3298 C3300 1.478 . S
C3299 H3293 0.930 . S
C3299 C3295 1.400 . S
C3299 C3298 1.385 . S
C3300 C3298 1.478 . S
C3300 C3302 1.381 . S
C3300 C3306 1.383 . S
C3301 C3297 1.495 . S
C3301 H3307 0.959 . S
C3301 H3308 0.961 . S
C3301 H3309 0.960 . S
C3302 C3300 1.381 . S
C3302 C3303 1.394 . S
C3302 H3310 0.930 . S
C3303 C3302 1.394 . S
C3303 C3304 1.383 . S
C3303 H3311 0.929 . S
C3304 C3303 1.383 . S
C3304 C3305 1.377 . S
C3305 H3289 0.930 . S
C3305 C3304 1.377 . S
C3305 C3306 1.379 . S
C3306 H3290 0.931 . S
C3306 C3300 1.383 . S
C3306 C3305 1.379 . S
H3307 C3301 0.959 . S
H3308 C3301 0.961 . S
H3309 C3301 0.960 . S
H3310 C3302 0.930 . S
H3311 C3303 0.929 . S
H3312 C3320 0.929 . S
H3313 C3322 0.930 . S
H3314 C3324 0.930 . S
H3315 C3327 0.929 . S
H3316 C3330 0.930 . S
H3317 C3332 0.960 . S
H3318 C3332 0.960 . S
H3319 C3332 0.960 . S
C3320 H3312 0.929 . S
C3320 C3321 1.377 . S
C3320 C3322 1.384 . S
C3321 C3320 1.377 . S
C3321 C3327 1.390 . S
C3322 H3313 0.930 . S
C3322 C3320 1.384 . S
C3322 C3323 1.372 . S
C3323 C3322 1.372 . S
C3323 C3324 1.400 . S
C3323 C3328 1.490 . S
C3324 H3314 0.930 . S
C3324 C3323 1.400 . S
C3324 C3327 1.386 . S
H3325 C3341 0.930 . S
H3326 C3342 0.931 . S
C3327 H3315 0.929 . S
C3327 C3321 1.390 . S
C3327 C3324 1.386 . S
C3328 C3323 1.490 . S
C3328 C3330 1.395 . S
C3328 C3331 1.403 . S
H3329 C3335 0.930 . S
C3330 H3316 0.930 . S
C3330 C3328 1.395 . S
C3330 C3333 1.403 . S
C3331 C3328 1.403 . S
C3331 C3332 1.524 . S
C3331 C3335 1.400 . S
C3332 H3317 0.960 . S
C3332 H3318 0.960 . S
C3332 H3319 0.960 . S
C3332 C3331 1.524 . S
C3333 C3330 1.403 . S
C3333 C3334 1.392 . S
C3333 C3337 1.495 . S
C3334 C3333 1.392 . S
C3334 C3335 1.385 . S
C3334 C3336 1.478 . S
C3335 H3329 0.930 . S
C3335 C3331 1.400 . S
C3335 C3334 1.385 . S
C3336 C3334 1.478 . S
C3336 C3338 1.381 . S
C3336 C3342 1.383 . S
C3337 C3333 1.495 . S
C3337 H3343 0.959 . S
C3337 H3344 0.961 . S
C3337 H3345 0.960 . S
C3338 C3336 1.381 . S
C3338 C3339 1.394 . S
C3338 H3346 0.930 . S
C3339 C3338 1.394 . S
C3339 C3340 1.383 . S
C3339 H3347 0.929 . S
C3340 C3339 1.383 . S
C3340 C3341 1.377 . S
C3341 H3325 0.930 . S
C3341 C3340 1.377 . S
C3341 C3342 1.379 . S
C3342 H3326 0.931 . S
C3342 C3336 1.383 . S
C3342 C3341 1.379 . S
H3343 C3337 0.959 . S
H3344 C3337 0.961 . S
H3345 C3337 0.960 . S
H3346 C3338 0.930 . S
H3347 C3339 0.929 . S
H3348 C3356 0.929 . S
H3349 C3358 0.930 . S
H3350 C3360 0.930 . S
H3351 C3363 0.929 . S
H3352 C3366 0.930 . S
H3353 C3368 0.960 . S
H3354 C3368 0.960 . S
H3355 C3368 0.960 . S
C3356 H3348 0.929 . S
C3356 C3357 1.377 . S
C3356 C3358 1.384 . S
C3357 C3356 1.377 . S
C3357 C3363 1.390 . S
C3358 H3349 0.930 . S
C3358 C3356 1.384 . S
C3358 C3359 1.372 . S
C3359 C3358 1.372 . S
C3359 C3360 1.400 . S
C3359 C3364 1.490 . S
C3360 H3350 0.930 . S
C3360 C3359 1.400 . S
C3360 C3363 1.386 . S
H3361 C3377 0.930 . S
H3362 C3378 0.931 . S
C3363 H3351 0.929 . S
C3363 C3357 1.390 . S
C3363 C3360 1.386 . S
C3364 C3359 1.490 . S
C3364 C3366 1.395 . S
C3364 C3367 1.403 . S
H3365 C3371 0.930 . S
C3366 H3352 0.930 . S
C3366 C3364 1.395 . S
C3366 C3369 1.403 . S
C3367 C3364 1.403 . S
C3367 C3368 1.524 . S
C3367 C3371 1.400 . S
C3368 H3353 0.960 . S
C3368 H3354 0.960 . S
C3368 H3355 0.960 . S
C3368 C3367 1.524 . S
C3369 C3366 1.403 . S
C3369 C3370 1.392 . S
C3369 C3373 1.495 . S
C3370 C3369 1.392 . S
C3370 C3371 1.385 . S
C3370 C3372 1.478 . S
C3371 H3365 0.930 . S
C3371 C3367 1.400 . S
C3371 C3370 1.385 . S
C3372 C3370 1.478 . S
C3372 C3374 1.381 . S
C3372 C3378 1.383 . S
C3373 C3369 1.495 . S
C3373 H3379 0.959 . S
C3373 H3380 0.961 . S
C3373 H3381 0.960 . S
C3374 C3372 1.381 . S
C3374 C3375 1.394 . S
C3374 H3382 0.930 . S
C3375 C3374 1.394 . S
C3375 C3376 1.383 . S
C3375 H3383 0.929 . S
C3376 C3375 1.383 . S
C3376 C3377 1.377 . S
C3377 H3361 0.930 . S
C3377 C3376 1.377 . S
C3377 C3378 1.379 . S
C3378 H3362 0.931 . S
C3378 C3372 1.383 . S
C3378 C3377 1.379 . S
H3379 C3373 0.959 . S
H3380 C3373 0.961 . S
H3381 C3373 0.960 . S
H3382 C3374 0.930 . S
H3383 C3375 0.929 . S
H3384 C3392 0.929 . S
H3385 C3394 0.930 . S
H3386 C3396 0.930 . S
H3387 C3399 0.929 . S
H3388 C3402 0.930 . S
H3389 C3404 0.960 . S
H3390 C3404 0.960 . S
H3391 C3404 0.960 . S
C3392 H3384 0.929 . S
C3392 C3393 1.377 . S
C3392 C3394 1.384 . S
C3393 C3392 1.377 . S
C3393 C3399 1.390 . S
C3394 H3385 0.930 . S
C3394 C3392 1.384 . S
C3394 C3395 1.372 . S
C3395 C3394 1.372 . S
C3395 C3396 1.400 . S
C3395 C3400 1.490 . S
C3396 H3386 0.930 . S
C3396 C3395 1.400 . S
C3396 C3399 1.386 . S
H3397 C3413 0.930 . S
H3398 C3414 0.931 . S
C3399 H3387 0.929 . S
C3399 C3393 1.390 . S
C3399 C3396 1.386 . S
C3400 C3395 1.490 . S
C3400 C3402 1.395 . S
C3400 C3403 1.403 . S
H3401 C3407 0.930 . S
C3402 H3388 0.930 . S
C3402 C3400 1.395 . S
C3402 C3405 1.403 . S
C3403 C3400 1.403 . S
C3403 C3404 1.524 . S
C3403 C3407 1.400 . S
C3404 H3389 0.960 . S
C3404 H3390 0.960 . S
C3404 H3391 0.960 . S
C3404 C3403 1.524 . S
C3405 C3402 1.403 . S
C3405 C3406 1.392 . S
C3405 C3409 1.495 . S
C3406 C3405 1.392 . S
C3406 C3407 1.385 . S
C3406 C3408 1.478 . S
C3407 H3401 0.930 . S
C3407 C3403 1.400 . S
C3407 C3406 1.385 . S
C3408 C3406 1.478 . S
C3408 C3410 1.381 . S
C3408 C3414 1.383 . S
C3409 C3405 1.495 . S
C3409 H3415 0.959 . S
C3409 H3416 0.961 . S
C3409 H3417 0.960 . S
C3410 C3408 1.381 . S
C3410 C3411 1.394 . S
C3410 H3418 0.930 . S
C3411 C3410 1.394 . S
C3411 C3412 1.383 . S
C3411 H3419 0.929 . S
C3412 C3411 1.383 . S
C3412 C3413 1.377 . S
C3413 H3397 0.930 . S
C3413 C3412 1.377 . S
C3413 C3414 1.379 . S
C3414 H3398 0.931 . S
C3414 C3408 1.383 . S
C3414 C3413 1.379 . S
H3415 C3409 0.959 . S
H3416 C3409 0.961 . S
H3417 C3409 0.960 . S
H3418 C3410 0.930 . S
H3419 C3411 0.929 . S
H3420 C3428 0.929 . S
H3421 C3430 0.930 . S
H3422 C3432 0.930 . S
H3423 C3435 0.929 . S
H3424 C3438 0.930 . S
H3425 C3440 0.960 . S
H3426 C3440 0.960 . S
H3427 C3440 0.960 . S
C3428 H3420 0.929 . S
C3428 C3429 1.377 . S
C3428 C3430 1.384 . S
C3429 C3428 1.377 . S
C3429 C3435 1.390 . S
C3430 H3421 0.930 . S
C3430 C3428 1.384 . S
C3430 C3431 1.372 . S
C3431 C3430 1.372 . S
C3431 C3432 1.400 . S
C3431 C3436 1.552 . S
C3432 H3422 0.930 . S
C3432 C3431 1.400 . S
C3432 C3435 1.386 . S
H3433 C3449 0.930 . S
H3434 C3450 0.931 . S
C3435 H3423 0.929 . S
C3435 C3429 1.390 . S
C3435 C3432 1.386 . S
C3436 C3431 1.552 . S
C3436 C3438 1.336 1_545 S
C3436 C3439 1.401 . S
H3437 C3443 0.930 . S
C3438 H3424 0.930 . S
C3438 C3436 1.336 1_565 S
C3438 C3441 1.403 . S
C3439 C3436 1.401 . S
C3439 C3440 1.521 . S
C3439 C3443 1.403 1_545 S
C3440 H3425 0.960 . S
C3440 H3426 0.960 . S
C3440 H3427 0.960 . S
C3440 C3439 1.521 . S
C3441 C3438 1.403 . S
C3441 C3442 1.392 . S
C3441 C3445 1.495 . S
C3442 C3441 1.392 . S
C3442 C3443 1.385 . S
C3442 C3444 1.478 . S
C3443 H3437 0.930 . S
C3443 C3439 1.403 1_565 S
C3443 C3442 1.385 . S
C3444 C3442 1.478 . S
C3444 C3446 1.381 . S
C3444 C3450 1.383 . S
C3445 C3441 1.495 . S
C3445 H3451 0.959 . S
C3445 H3452 0.961 . S
C3445 H3453 0.960 . S
C3446 C3444 1.381 . S
C3446 C3447 1.394 . S
C3446 H3454 0.930 . S
C3447 C3446 1.394 . S
C3447 C3448 1.383 . S
C3447 H3455 0.929 . S
C3448 C3447 1.383 . S
C3448 C3449 1.377 . S
C3449 H3433 0.930 . S
C3449 C3448 1.377 . S
C3449 C3450 1.379 . S
C3450 H3434 0.931 . S
C3450 C3444 1.383 . S
C3450 C3449 1.379 . S
H3451 C3445 0.959 . S
H3452 C3445 0.961 . S
H3453 C3445 0.960 . S
H3454 C3446 0.930 . S
H3455 C3447 0.929 . S
H3456 C3464 0.929 . S
H3457 C3466 0.930 . S
H3458 C3468 0.930 . S
H3459 C3471 0.929 . S
H3460 C3474 0.930 . S
H3461 C3476 0.960 . S
H3462 C3476 0.960 . S
H3463 C3476 0.960 . S
C3464 H3456 0.929 . S
C3464 C3465 1.377 . S
C3464 C3466 1.384 . S
C3465 C3464 1.377 . S
C3465 C3471 1.390 . S
C3466 H3457 0.930 . S
C3466 C3464 1.384 . S
C3466 C3467 1.372 . S
C3467 C3466 1.372 . S
C3467 C3468 1.400 . S
C3467 C3472 1.490 . S
C3468 H3458 0.930 . S
C3468 C3467 1.400 . S
C3468 C3471 1.386 . S
H3469 C3485 0.930 . S
H3470 C3486 0.931 . S
C3471 H3459 0.929 . S
C3471 C3465 1.390 . S
C3471 C3468 1.386 . S
C3472 C3467 1.490 . S
C3472 C3474 1.395 . S
C3472 C3475 1.403 . S
H3473 C3479 0.930 . S
C3474 H3460 0.930 . S
C3474 C3472 1.395 . S
C3474 C3477 1.403 . S
C3475 C3472 1.403 . S
C3475 C3476 1.524 . S
C3475 C3479 1.400 . S
C3476 H3461 0.960 . S
C3476 H3462 0.960 . S
C3476 H3463 0.960 . S
C3476 C3475 1.524 . S
C3477 C3474 1.403 . S
C3477 C3478 1.392 . S
C3477 C3481 1.495 . S
C3478 C3477 1.392 . S
C3478 C3479 1.385 . S
C3478 C3480 1.478 . S
C3479 H3473 0.930 . S
C3479 C3475 1.400 . S
C3479 C3478 1.385 . S
C3480 C3478 1.478 . S
C3480 C3482 1.381 . S
C3480 C3486 1.383 . S
C3481 C3477 1.495 . S
C3481 H3487 0.959 . S
C3481 H3488 0.961 . S
C3481 H3489 0.960 . S
C3482 C3480 1.381 . S
C3482 C3483 1.394 . S
C3482 H3490 0.930 . S
C3483 C3482 1.394 . S
C3483 C3484 1.383 . S
C3483 H3491 0.929 . S
C3484 C3483 1.383 . S
C3484 C3485 1.377 . S
C3485 H3469 0.930 . S
C3485 C3484 1.377 . S
C3485 C3486 1.379 . S
C3486 H3470 0.931 . S
C3486 C3480 1.383 . S
C3486 C3485 1.379 . S
H3487 C3481 0.959 . S
H3488 C3481 0.961 . S
H3489 C3481 0.960 . S
H3490 C3482 0.930 . S
H3491 C3483 0.929 . S
H3492 C3500 0.929 . S
H3493 C3502 0.930 . S
H3494 C3504 0.930 . S
H3495 C3507 0.929 . S
H3496 C3510 0.930 . S
H3497 C3512 0.960 . S
H3498 C3512 0.960 . S
H3499 C3512 0.960 . S
C3500 H3492 0.929 . S
C3500 C3501 1.377 . S
C3500 C3502 1.384 . S
C3501 C3500 1.377 . S
C3501 C3507 1.390 . S
C3502 H3493 0.930 . S
C3502 C3500 1.384 . S
C3502 C3503 1.372 . S
C3503 C3502 1.372 . S
C3503 C3504 1.400 . S
C3503 C3508 1.490 . S
C3504 H3494 0.930 . S
C3504 C3503 1.400 . S
C3504 C3507 1.386 . S
H3505 C3521 0.930 . S
H3506 C3522 0.931 . S
C3507 H3495 0.929 . S
C3507 C3501 1.390 . S
C3507 C3504 1.386 . S
C3508 C3503 1.490 . S
C3508 C3510 1.395 . S
C3508 C3511 1.403 . S
H3509 C3515 0.930 . S
C3510 H3496 0.930 . S
C3510 C3508 1.395 . S
C3510 C3513 1.403 . S
C3511 C3508 1.403 . S
C3511 C3512 1.524 . S
C3511 C3515 1.400 . S
C3512 H3497 0.960 . S
C3512 H3498 0.960 . S
C3512 H3499 0.960 . S
C3512 C3511 1.524 . S
C3513 C3510 1.403 . S
C3513 C3514 1.392 . S
C3513 C3517 1.495 . S
C3514 C3513 1.392 . S
C3514 C3515 1.385 . S
C3514 C3516 1.478 . S
C3515 H3509 0.930 . S
C3515 C3511 1.400 . S
C3515 C3514 1.385 . S
C3516 C3514 1.478 . S
C3516 C3518 1.381 . S
C3516 C3522 1.383 . S
C3517 C3513 1.495 . S
C3517 H3523 0.959 . S
C3517 H3524 0.961 . S
C3517 H3525 0.960 . S
C3518 C3516 1.381 . S
C3518 C3519 1.394 . S
C3518 H3526 0.930 . S
C3519 C3518 1.394 . S
C3519 C3520 1.383 . S
C3519 H3527 0.929 . S
C3520 C3519 1.383 . S
C3520 C3521 1.377 . S
C3521 H3505 0.930 . S
C3521 C3520 1.377 . S
C3521 C3522 1.379 . S
C3522 H3506 0.931 . S
C3522 C3516 1.383 . S
C3522 C3521 1.379 . S
H3523 C3517 0.959 . S
H3524 C3517 0.961 . S
H3525 C3517 0.960 . S
H3526 C3518 0.930 . S
H3527 C3519 0.929 . S
H3528 C3536 0.929 . S
H3529 C3538 0.930 . S
H3530 C3540 0.930 . S
H3531 C3543 0.929 . S
H3532 C3546 0.930 . S
H3533 C3548 0.960 . S
H3534 C3548 0.960 . S
H3535 C3548 0.960 . S
C3536 H3528 0.929 . S
C3536 C3537 1.377 . S
C3536 C3538 1.384 . S
C3537 C3536 1.377 . S
C3537 C3543 1.390 . S
C3538 H3529 0.930 . S
C3538 C3536 1.384 . S
C3538 C3539 1.372 . S
C3539 C3538 1.372 . S
C3539 C3540 1.400 . S
C3539 C3544 1.490 . S
C3540 H3530 0.930 . S
C3540 C3539 1.400 . S
C3540 C3543 1.386 . S
H3541 C3557 0.930 . S
H3542 C3558 0.931 . S
C3543 H3531 0.929 . S
C3543 C3537 1.390 . S
C3543 C3540 1.386 . S
C3544 C3539 1.490 . S
C3544 C3546 1.395 . S
C3544 C3547 1.403 . S
H3545 C3551 0.930 . S
C3546 H3532 0.930 . S
C3546 C3544 1.395 . S
C3546 C3549 1.403 . S
C3547 C3544 1.403 . S
C3547 C3548 1.524 . S
C3547 C3551 1.400 . S
C3548 H3533 0.960 . S
C3548 H3534 0.960 . S
C3548 H3535 0.960 . S
C3548 C3547 1.524 . S
C3549 C3546 1.403 . S
C3549 C3550 1.392 . S
C3549 C3553 1.495 . S
C3550 C3549 1.392 . S
C3550 C3551 1.385 . S
C3550 C3552 1.478 . S
C3551 H3545 0.930 . S
C3551 C3547 1.400 . S
C3551 C3550 1.385 . S
C3552 C3550 1.478 . S
C3552 C3554 1.381 . S
C3552 C3558 1.383 . S
C3553 C3549 1.495 . S
C3553 H3559 0.959 . S
C3553 H3560 0.961 . S
C3553 H3561 0.960 . S
C3554 C3552 1.381 . S
C3554 C3555 1.394 . S
C3554 H3562 0.930 . S
C3555 C3554 1.394 . S
C3555 C3556 1.383 . S
C3555 H3563 0.929 . S
C3556 C3555 1.383 . S
C3556 C3557 1.377 . S
C3557 H3541 0.930 . S
C3557 C3556 1.377 . S
C3557 C3558 1.379 . S
C3558 H3542 0.931 . S
C3558 C3552 1.383 . S
C3558 C3557 1.379 . S
H3559 C3553 0.959 . S
H3560 C3553 0.961 . S
H3561 C3553 0.960 . S
H3562 C3554 0.930 . S
H3563 C3555 0.929 . S
H3564 C3572 0.929 . S
H3565 C3574 0.930 . S
H3566 C3576 0.930 . S
H3567 C3579 0.929 . S
H3568 C3582 0.930 . S
H3569 C3584 0.960 . S
H3570 C3584 0.960 . S
H3571 C3584 0.960 . S
C3572 H3564 0.929 . S
C3572 C3573 1.377 . S
C3572 C3574 1.384 . S
C3573 C3572 1.377 . S
C3573 C3579 1.390 . S
C3574 H3565 0.930 . S
C3574 C3572 1.384 . S
C3574 C3575 1.372 . S
C3575 C3574 1.372 . S
C3575 C3576 1.400 . S
C3575 C3580 1.490 . S
C3576 H3566 0.930 . S
C3576 C3575 1.400 . S
C3576 C3579 1.386 . S
H3577 C3593 0.930 . S
H3578 C3594 0.931 . S
C3579 H3567 0.929 . S
C3579 C3573 1.390 . S
C3579 C3576 1.386 . S
C3580 C3575 1.490 . S
C3580 C3582 1.395 . S
C3580 C3583 1.403 . S
H3581 C3587 0.930 . S
C3582 H3568 0.930 . S
C3582 C3580 1.395 . S
C3582 C3585 1.363 1_565 S
C3583 C3580 1.403 . S
C3583 C3584 1.524 . S
C3583 C3587 1.400 . S
C3584 H3569 0.960 . S
C3584 H3570 0.960 . S
C3584 H3571 0.960 . S
C3584 C3583 1.524 . S
C3585 C3582 1.363 1_545 S
C3585 C3586 1.400 . S
C3585 C3589 1.528 . S
C3586 C3585 1.400 . S
C3586 C3587 1.385 1_545 S
C3586 C3588 1.478 . S
C3587 H3581 0.930 . S
C3587 C3583 1.400 . S
C3587 C3586 1.385 1_565 S
C3588 C3586 1.478 . S
C3588 C3590 1.381 . S
C3588 C3594 1.383 . S
C3589 C3585 1.528 . S
C3589 H3595 0.959 . S
C3589 H3596 0.961 . S
C3589 H3597 0.960 . S
C3590 C3588 1.381 . S
C3590 C3591 1.394 . S
C3590 H3598 0.930 . S
C3591 C3590 1.394 . S
C3591 C3592 1.383 . S
C3591 H3599 0.929 . S
C3592 C3591 1.383 . S
C3592 C3593 1.377 . S
C3593 H3577 0.930 . S
C3593 C3592 1.377 . S
C3593 C3594 1.379 . S
C3594 H3578 0.931 . S
C3594 C3588 1.383 . S
C3594 C3593 1.379 . S
H3595 C3589 0.959 . S
H3596 C3589 0.961 . S
H3597 C3589 0.960 . S
H3598 C3590 0.930 . S
H3599 C3591 0.929 . S
H3600 C3608 0.929 . S
H3601 C3610 0.930 . S
H3602 C3612 0.930 . S
H3603 C3615 0.929 . S
H3604 C3618 0.930 . S
H3605 C3620 0.960 . S
H3606 C3620 0.960 . S
H3607 C3620 0.960 . S
C3608 H3600 0.929 . S
C3608 C3609 1.377 . S
C3608 C3610 1.384 . S
C3609 C3608 1.377 . S
C3609 C3615 1.390 . S
C3610 H3601 0.930 . S
C3610 C3608 1.384 . S
C3610 C3611 1.372 . S
C3611 C3610 1.372 . S
C3611 C3612 1.400 . S
C3611 C3616 1.490 . S
C3612 H3602 0.930 . S
C3612 C3611 1.400 . S
C3612 C3615 1.386 . S
H3613 C3629 0.930 . S
H3614 C3630 0.931 . S
C3615 H3603 0.929 . S
C3615 C3609 1.390 . S
C3615 C3612 1.386 . S
C3616 C3611 1.490 . S
C3616 C3618 1.395 . S
C3616 C3619 1.403 . S
H3617 C3623 0.930 . S
C3618 H3604 0.930 . S
C3618 C3616 1.395 . S
C3618 C3621 1.403 . S
C3619 C3616 1.403 . S
C3619 C3620 1.524 . S
C3619 C3623 1.400 . S
C3620 H3605 0.960 . S
C3620 H3606 0.960 . S
C3620 H3607 0.960 . S
C3620 C3619 1.524 . S
C3621 C3618 1.403 . S
C3621 C3622 1.392 . S
C3621 C3625 1.495 . S
C3622 C3621 1.392 . S
C3622 C3623 1.385 . S
C3622 C3624 1.478 . S
C3623 H3617 0.930 . S
C3623 C3619 1.400 . S
C3623 C3622 1.385 . S
C3624 C3622 1.478 . S
C3624 C3626 1.381 . S
C3624 C3630 1.383 . S
C3625 C3621 1.495 . S
C3625 H3631 0.959 . S
C3625 H3632 0.961 . S
C3625 H3633 0.960 . S
C3626 C3624 1.381 . S
C3626 C3627 1.394 . S
C3626 H3634 0.930 . S
C3627 C3626 1.394 . S
C3627 C3628 1.383 . S
C3627 H3635 0.929 . S
C3628 C3627 1.383 . S
C3628 C3629 1.377 . S
C3629 H3613 0.930 . S
C3629 C3628 1.377 . S
C3629 C3630 1.379 . S
C3630 H3614 0.931 . S
C3630 C3624 1.383 . S
C3630 C3629 1.379 . S
H3631 C3625 0.959 . S
H3632 C3625 0.961 . S
H3633 C3625 0.960 . S
H3634 C3626 0.930 . S
H3635 C3627 0.929 . S
H3636 C3644 0.929 . S
H3637 C3646 0.930 . S
H3638 C3648 0.930 . S
H3639 C3651 0.929 . S
H3640 C3654 0.930 . S
H3641 C3656 0.960 . S
H3642 C3656 0.960 . S
H3643 C3656 0.960 . S
C3644 H3636 0.929 . S
C3644 C3645 1.377 . S
C3644 C3646 1.384 . S
C3645 C3644 1.377 . S
C3645 C3651 1.390 . S
C3646 H3637 0.930 . S
C3646 C3644 1.384 . S
C3646 C3647 1.372 . S
C3647 C3646 1.372 . S
C3647 C3648 1.400 . S
C3647 C3652 1.490 . S
C3648 H3638 0.930 . S
C3648 C3647 1.400 . S
C3648 C3651 1.386 . S
H3649 C3665 0.930 . S
H3650 C3666 0.931 . S
C3651 H3639 0.929 . S
C3651 C3645 1.390 . S
C3651 C3648 1.386 . S
C3652 C3647 1.490 . S
C3652 C3654 1.395 . S
C3652 C3655 1.403 . S
H3653 C3659 0.930 . S
C3654 H3640 0.930 . S
C3654 C3652 1.395 . S
C3654 C3657 1.403 . S
C3655 C3652 1.403 . S
C3655 C3656 1.524 . S
C3655 C3659 1.400 . S
C3656 H3641 0.960 . S
C3656 H3642 0.960 . S
C3656 H3643 0.960 . S
C3656 C3655 1.524 . S
C3657 C3654 1.403 . S
C3657 C3658 1.392 . S
C3657 C3661 1.495 . S
C3658 C3657 1.392 . S
C3658 C3659 1.385 . S
C3658 C3660 1.478 . S
C3659 H3653 0.930 . S
C3659 C3655 1.400 . S
C3659 C3658 1.385 . S
C3660 C3658 1.478 . S
C3660 C3662 1.381 . S
C3660 C3666 1.383 . S
C3661 C3657 1.495 . S
C3661 H3667 0.959 . S
C3661 H3668 0.961 . S
C3661 H3669 0.960 . S
C3662 C3660 1.381 . S
C3662 C3663 1.394 . S
C3662 H3670 0.930 . S
C3663 C3662 1.394 . S
C3663 C3664 1.383 . S
C3663 H3671 0.929 . S
C3664 C3663 1.383 . S
C3664 C3665 1.377 . S
C3665 H3649 0.930 . S
C3665 C3664 1.377 . S
C3665 C3666 1.379 . S
C3666 H3650 0.931 . S
C3666 C3660 1.383 . S
C3666 C3665 1.379 . S
H3667 C3661 0.959 . S
H3668 C3661 0.961 . S
H3669 C3661 0.960 . S
H3670 C3662 0.930 . S
H3671 C3663 0.929 . S
H3672 C3680 0.929 . S
H3673 C3682 0.930 . S
H3674 C3684 0.930 . S
H3675 C3687 0.929 . S
H3676 C3690 0.930 . S
H3677 C3692 0.960 . S
H3678 C3692 0.960 . S
H3679 C3692 0.960 . S
C3680 H3672 0.929 . S
C3680 C3681 1.377 . S
C3680 C3682 1.384 . S
C3681 C3680 1.377 . S
C3681 C3687 1.390 . S
C3682 H3673 0.930 . S
C3682 C3680 1.384 . S
C3682 C3683 1.372 . S
C3683 C3682 1.372 . S
C3683 C3684 1.400 . S
C3683 C3688 1.490 . S
C3684 H3674 0.930 . S
C3684 C3683 1.400 . S
C3684 C3687 1.386 . S
H3685 C3701 0.930 . S
H3686 C3702 0.931 . S
C3687 H3675 0.929 . S
C3687 C3681 1.390 . S
C3687 C3684 1.386 . S
C3688 C3683 1.490 . S
C3688 C3690 1.395 . S
C3688 C3691 1.403 . S
H3689 C3695 0.930 . S
C3690 H3676 0.930 . S
C3690 C3688 1.395 . S
C3690 C3693 1.403 . S
C3691 C3688 1.403 . S
C3691 C3692 1.524 . S
C3691 C3695 1.400 . S
C3692 H3677 0.960 . S
C3692 H3678 0.960 . S
C3692 H3679 0.960 . S
C3692 C3691 1.524 . S
C3693 C3690 1.403 . S
C3693 C3694 1.392 . S
C3693 C3697 1.495 . S
C3694 C3693 1.392 . S
C3694 C3695 1.385 . S
C3694 C3696 1.478 . S
C3695 H3689 0.930 . S
C3695 C3691 1.400 . S
C3695 C3694 1.385 . S
C3696 C3694 1.478 . S
C3696 C3698 1.381 . S
C3696 C3702 1.383 . S
C3697 C3693 1.495 . S
C3697 H3703 0.959 . S
C3697 H3704 0.961 . S
C3697 H3705 0.960 . S
C3698 C3696 1.381 . S
C3698 C3699 1.394 . S
C3698 H3706 0.930 . S
C3699 C3698 1.394 . S
C3699 C3700 1.383 . S
C3699 H3707 0.929 . S
C3700 C3699 1.383 . S
C3700 C3701 1.377 . S
C3701 H3685 0.930 . S
C3701 C3700 1.377 . S
C3701 C3702 1.379 . S
C3702 H3686 0.931 . S
C3702 C3696 1.383 . S
C3702 C3701 1.379 . S
H3703 C3697 0.959 . S
H3704 C3697 0.961 . S
H3705 C3697 0.960 . S
H3706 C3698 0.930 . S
H3707 C3699 0.929 . S
H3708 C3716 0.929 . S
H3709 C3718 0.930 . S
H3710 C3720 0.930 . S
H3711 C3723 0.929 . S
H3712 C3726 0.930 . S
H3713 C3728 0.960 . S
H3714 C3728 0.960 . S
H3715 C3728 0.960 . S
C3716 H3708 0.929 . S
C3716 C3717 1.377 . S
C3716 C3718 1.384 . S
C3717 C3716 1.377 . S
C3717 C3723 1.390 . S
C3718 H3709 0.930 . S
C3718 C3716 1.384 . S
C3718 C3719 1.372 . S
C3719 C3718 1.372 . S
C3719 C3720 1.400 . S
C3719 C3724 1.490 . S
C3720 H3710 0.930 . S
C3720 C3719 1.400 . S
C3720 C3723 1.386 . S
H3721 C3737 0.930 . S
H3722 C3738 0.931 . S
C3723 H3711 0.929 . S
C3723 C3717 1.390 . S
C3723 C3720 1.386 . S
C3724 C3719 1.490 . S
C3724 C3726 1.395 . S
C3724 C3727 1.403 . S
H3725 C3731 0.930 . S
C3726 H3712 0.930 . S
C3726 C3724 1.395 . S
C3726 C3729 1.403 . S
C3727 C3724 1.403 . S
C3727 C3728 1.524 . S
C3727 C3731 1.400 . S
C3728 H3713 0.960 . S
C3728 H3714 0.960 . S
C3728 H3715 0.960 . S
C3728 C3727 1.524 . S
C3729 C3726 1.403 . S
C3729 C3730 1.392 . S
C3729 C3733 1.495 . S
C3730 C3729 1.392 . S
C3730 C3731 1.385 . S
C3730 C3732 1.478 . S
C3731 H3725 0.930 . S
C3731 C3727 1.400 . S
C3731 C3730 1.385 . S
C3732 C3730 1.478 . S
C3732 C3734 1.381 . S
C3732 C3738 1.383 . S
C3733 C3729 1.495 . S
C3733 H3739 0.959 . S
C3733 H3740 0.961 . S
C3733 H3741 0.960 . S
C3734 C3732 1.381 . S
C3734 C3735 1.394 . S
C3734 H3742 0.930 . S
C3735 C3734 1.394 . S
C3735 C3736 1.383 . S
C3735 H3743 0.929 . S
C3736 C3735 1.383 . S
C3736 C3737 1.377 . S
C3737 H3721 0.930 . S
C3737 C3736 1.377 . S
C3737 C3738 1.379 . S
C3738 H3722 0.931 . S
C3738 C3732 1.383 . S
C3738 C3737 1.379 . S
H3739 C3733 0.959 . S
H3740 C3733 0.961 . S
H3741 C3733 0.960 . S
H3742 C3734 0.930 . S
H3743 C3735 0.929 . S
H3744 C3752 0.929 . S
H3745 C3754 0.930 . S
H3746 C3756 0.930 . S
H3747 C3759 0.929 . S
H3748 C3762 0.930 . S
H3749 C3764 0.960 . S
H3750 C3764 0.960 . S
H3751 C3764 0.960 . S
C3752 H3744 0.929 . S
C3752 C3753 1.377 . S
C3752 C3754 1.384 . S
C3753 C3752 1.377 . S
C3753 C3759 1.390 . S
C3754 H3745 0.930 . S
C3754 C3752 1.384 . S
C3754 C3755 1.372 . S
C3755 C3754 1.372 . S
C3755 C3756 1.400 . S
C3755 C3760 1.490 . S
C3756 H3746 0.930 . S
C3756 C3755 1.400 . S
C3756 C3759 1.386 . S
H3757 C3773 0.930 . S
H3758 C3774 0.931 . S
C3759 H3747 0.929 . S
C3759 C3753 1.390 . S
C3759 C3756 1.386 . S
C3760 C3755 1.490 . S
C3760 C3762 1.395 . S
C3760 C3763 1.403 . S
H3761 C3767 0.930 . S
C3762 H3748 0.930 . S
C3762 C3760 1.395 . S
C3762 C3765 1.403 . S
C3763 C3760 1.403 . S
C3763 C3764 1.524 . S
C3763 C3767 1.400 . S
C3764 H3749 0.960 . S
C3764 H3750 0.960 . S
C3764 H3751 0.960 . S
C3764 C3763 1.524 . S
C3765 C3762 1.403 . S
C3765 C3766 1.392 . S
C3765 C3769 1.495 . S
C3766 C3765 1.392 . S
C3766 C3767 1.385 . S
C3766 C3768 1.478 . S
C3767 H3761 0.930 . S
C3767 C3763 1.400 . S
C3767 C3766 1.385 . S
C3768 C3766 1.478 . S
C3768 C3770 1.381 . S
C3768 C3774 1.383 . S
C3769 C3765 1.495 . S
C3769 H3775 0.959 . S
C3769 H3776 0.961 . S
C3769 H3777 0.960 . S
C3770 C3768 1.381 . S
C3770 C3771 1.394 . S
C3770 H3778 0.930 . S
C3771 C3770 1.394 . S
C3771 C3772 1.383 . S
C3771 H3779 0.929 . S
C3772 C3771 1.383 . S
C3772 C3773 1.377 . S
C3773 H3757 0.930 . S
C3773 C3772 1.377 . S
C3773 C3774 1.379 . S
C3774 H3758 0.931 . S
C3774 C3768 1.383 . S
C3774 C3773 1.379 . S
H3775 C3769 0.959 . S
H3776 C3769 0.961 . S
H3777 C3769 0.960 . S
H3778 C3770 0.930 . S
H3779 C3771 0.929 . S
H3780 C3788 0.929 . S
H3781 C3790 0.930 . S
H3782 C3792 0.930 . S
H3783 C3795 0.929 . S
H3784 C3798 0.905 1_655 S
H3785 C3800 0.960 1_455 S
H3786 C3800 0.960 . S
H3787 C3800 0.960 . S
C3788 H3780 0.929 . S
C3788 C3789 1.377 . S
C3788 C3790 1.384 . S
C3789 C3788 1.377 . S
C3789 C3795 1.390 . S
C3790 H3781 0.930 . S
C3790 C3788 1.384 . S
C3790 C3791 1.372 . S
C3791 C3790 1.372 . S
C3791 C3792 1.400 . S
C3791 C3796 1.490 . S
C3792 H3782 0.930 . S
C3792 C3791 1.400 . S
C3792 C3795 1.386 . S
H3793 C3809 0.930 . S
H3794 C3810 0.931 . S
C3795 H3783 0.929 . S
C3795 C3789 1.390 . S
C3795 C3792 1.386 . S
C3796 C3791 1.490 . S
C3796 C3798 1.395 1_655 S
C3796 C3799 1.403 1_655 S
H3797 C3803 0.930 . S
C3798 H3784 0.905 1_455 S
C3798 C3796 1.395 1_455 S
C3798 C3801 1.403 . S
C3799 C3796 1.403 1_455 S
C3799 C3800 1.524 1_455 S
C3799 C3803 1.400 . S
C3800 H3785 0.960 1_655 S
C3800 H3786 0.960 . S
C3800 H3787 0.960 . S
C3800 C3799 1.524 1_655 S
C3801 C3798 1.403 . S
C3801 C3802 1.392 . S
C3801 C3805 1.495 . S
C3802 C3801 1.392 . S
C3802 C3803 1.385 . S
C3802 C3804 1.478 . S
C3803 H3797 0.930 . S
C3803 C3799 1.400 . S
C3803 C3802 1.385 . S
C3804 C3802 1.478 . S
C3804 C3806 1.381 . S
C3804 C3810 1.383 . S
C3805 C3801 1.495 . S
C3805 H3811 0.959 . S
C3805 H3812 0.961 . S
C3805 H3813 0.960 . S
C3806 C3804 1.381 . S
C3806 C3807 1.394 . S
C3806 H3814 0.930 . S
C3807 C3806 1.394 . S
C3807 C3808 1.383 . S
C3807 H3815 0.929 . S
C3808 C3807 1.383 . S
C3808 C3809 1.377 . S
C3809 H3793 0.930 . S
C3809 C3808 1.377 . S
C3809 C3810 1.379 . S
C3810 H3794 0.931 . S
C3810 C3804 1.383 . S
C3810 C3809 1.379 . S
H3811 C3805 0.959 . S
H3812 C3805 0.961 . S
H3813 C3805 0.960 . S
H3814 C3806 0.930 . S
H3815 C3807 0.929 . S
H3816 C3824 0.929 . S
H3817 C3826 0.930 . S
H3818 C3828 0.930 . S
H3819 C3831 0.929 . S
H3820 C3834 0.930 . S
H3821 C3836 0.960 . S
H3822 C3836 0.960 . S
H3823 C3836 0.960 . S
C3824 H3816 0.929 . S
C3824 C3825 1.377 . S
C3824 C3826 1.384 . S
C3825 C3824 1.377 . S
C3825 C3831 1.390 . S
C3826 H3817 0.930 . S
C3826 C3824 1.384 . S
C3826 C3827 1.372 . S
C3827 C3826 1.372 . S
C3827 C3828 1.400 . S
C3827 C3832 1.490 . S
C3828 H3818 0.930 . S
C3828 C3827 1.400 . S
C3828 C3831 1.386 . S
H3829 C3845 0.930 . S
H3830 C3846 0.931 . S
C3831 H3819 0.929 . S
C3831 C3825 1.390 . S
C3831 C3828 1.386 . S
C3832 C3827 1.490 . S
C3832 C3834 1.395 . S
C3832 C3835 1.403 . S
H3833 C3839 0.930 . S
C3834 H3820 0.930 . S
C3834 C3832 1.395 . S
C3834 C3837 1.403 . S
C3835 C3832 1.403 . S
C3835 C3836 1.524 . S
C3835 C3839 1.400 . S
C3836 H3821 0.960 . S
C3836 H3822 0.960 . S
C3836 H3823 0.960 . S
C3836 C3835 1.524 . S
C3837 C3834 1.403 . S
C3837 C3838 1.392 . S
C3837 C3841 1.495 . S
C3838 C3837 1.392 . S
C3838 C3839 1.385 . S
C3838 C3840 1.478 . S
C3839 H3833 0.930 . S
C3839 C3835 1.400 . S
C3839 C3838 1.385 . S
C3840 C3838 1.478 . S
C3840 C3842 1.381 . S
C3840 C3846 1.383 . S
C3841 C3837 1.495 . S
C3841 H3847 0.959 . S
C3841 H3848 0.961 . S
C3841 H3849 0.960 . S
C3842 C3840 1.381 . S
C3842 C3843 1.394 . S
C3842 H3850 0.930 . S
C3843 C3842 1.394 . S
C3843 C3844 1.383 . S
C3843 H3851 0.929 . S
C3844 C3843 1.383 . S
C3844 C3845 1.377 . S
C3845 H3829 0.930 . S
C3845 C3844 1.377 . S
C3845 C3846 1.379 . S
C3846 H3830 0.931 . S
C3846 C3840 1.383 . S
C3846 C3845 1.379 . S
H3847 C3841 0.959 . S
H3848 C3841 0.961 . S
H3849 C3841 0.960 . S
H3850 C3842 0.930 . S
H3851 C3843 0.929 . S
H3852 C3860 0.929 . S
H3853 C3862 0.930 . S
H3854 C3864 0.930 . S
H3855 C3867 0.929 . S
H3856 C3870 0.930 . S
H3857 C3872 0.960 . S
H3858 C3872 0.960 . S
H3859 C3872 0.960 . S
C3860 H3852 0.929 . S
C3860 C3861 1.377 . S
C3860 C3862 1.384 . S
C3861 C3860 1.377 . S
C3861 C3867 1.390 . S
C3862 H3853 0.930 . S
C3862 C3860 1.384 . S
C3862 C3863 1.372 . S
C3863 C3862 1.372 . S
C3863 C3864 1.400 . S
C3863 C3868 1.490 . S
C3864 H3854 0.930 . S
C3864 C3863 1.400 . S
C3864 C3867 1.386 . S
H3865 C3881 0.930 . S
H3866 C3882 0.931 . S
C3867 H3855 0.929 . S
C3867 C3861 1.390 . S
C3867 C3864 1.386 . S
C3868 C3863 1.490 . S
C3868 C3870 1.395 . S
C3868 C3871 1.403 . S
H3869 C3875 0.930 . S
C3870 H3856 0.930 . S
C3870 C3868 1.395 . S
C3870 C3873 1.403 . S
C3871 C3868 1.403 . S
C3871 C3872 1.524 . S
C3871 C3875 1.400 . S
C3872 H3857 0.960 . S
C3872 H3858 0.960 . S
C3872 H3859 0.960 . S
C3872 C3871 1.524 . S
C3873 C3870 1.403 . S
C3873 C3874 1.392 1_655 S
C3873 C3877 1.495 1_655 S
C3874 C3873 1.392 1_455 S
C3874 C3875 1.385 1_455 S
C3874 C3876 1.478 . S
C3875 H3869 0.930 . S
C3875 C3871 1.400 . S
C3875 C3874 1.385 1_655 S
C3876 C3874 1.478 . S
C3876 C3878 1.381 . S
C3876 C3882 1.383 . S
C3877 C3873 1.495 1_455 S
C3877 H3883 0.959 . S
C3877 H3884 0.961 . S
C3877 H3885 0.960 . S
C3878 C3876 1.381 . S
C3878 C3879 1.394 . S
C3878 H3886 0.930 . S
C3879 C3878 1.394 . S
C3879 C3880 1.383 . S
C3879 H3887 0.929 . S
C3880 C3879 1.383 . S
C3880 C3881 1.377 . S
C3881 H3865 0.930 . S
C3881 C3880 1.377 . S
C3881 C3882 1.379 . S
C3882 H3866 0.931 . S
C3882 C3876 1.383 . S
C3882 C3881 1.379 . S
H3883 C3877 0.959 . S
H3884 C3877 0.961 . S
H3885 C3877 0.960 . S
H3886 C3878 0.930 . S
H3887 C3879 0.929 . S
H3888 C3896 0.929 . S
H3889 C3898 0.930 . S
H3890 C3900 0.930 . S
H3891 C3903 0.929 . S
H3892 C3906 0.930 . S
H3893 C3908 0.960 . S
H3894 C3908 0.960 . S
H3895 C3908 0.960 . S
C3896 H3888 0.929 . S
C3896 C3897 1.377 . S
C3896 C3898 1.384 . S
C3897 C3896 1.377 . S
C3897 C3903 1.390 . S
C3898 H3889 0.930 . S
C3898 C3896 1.384 . S
C3898 C3899 1.372 . S
C3899 C3898 1.372 . S
C3899 C3900 1.400 . S
C3899 C3904 1.490 . S
C3900 H3890 0.930 . S
C3900 C3899 1.400 . S
C3900 C3903 1.386 . S
H3901 C3917 0.930 . S
H3902 C3918 0.931 . S
C3903 H3891 0.929 . S
C3903 C3897 1.390 . S
C3903 C3900 1.386 . S
C3904 C3899 1.490 . S
C3904 C3906 1.395 . S
C3904 C3907 1.403 . S
H3905 C3911 0.930 . S
C3906 H3892 0.930 . S
C3906 C3904 1.395 . S
C3906 C3909 1.403 . S
C3907 C3904 1.403 . S
C3907 C3908 1.524 . S
C3907 C3911 1.400 . S
C3908 H3893 0.960 . S
C3908 H3894 0.960 . S
C3908 H3895 0.960 . S
C3908 C3907 1.524 . S
C3909 C3906 1.403 . S
C3909 C3910 1.392 . S
C3909 C3913 1.495 . S
C3910 C3909 1.392 . S
C3910 C3911 1.385 . S
C3910 C3912 1.478 . S
C3911 H3905 0.930 . S
C3911 C3907 1.400 . S
C3911 C3910 1.385 . S
C3912 C3910 1.478 . S
C3912 C3914 1.381 . S
C3912 C3918 1.383 . S
C3913 C3909 1.495 . S
C3913 H3919 0.959 . S
C3913 H3920 0.961 . S
C3913 H3921 0.960 . S
C3914 C3912 1.381 . S
C3914 C3915 1.394 . S
C3914 H3922 0.930 . S
C3915 C3914 1.394 . S
C3915 C3916 1.383 . S
C3915 H3923 0.929 . S
C3916 C3915 1.383 . S
C3916 C3917 1.377 . S
C3917 H3901 0.930 . S
C3917 C3916 1.377 . S
C3917 C3918 1.379 . S
C3918 H3902 0.931 . S
C3918 C3912 1.383 . S
C3918 C3917 1.379 . S
H3919 C3913 0.959 . S
H3920 C3913 0.961 . S
H3921 C3913 0.960 . S
H3922 C3914 0.930 . S
H3923 C3915 0.929 . S
H3924 C3932 0.929 . S
H3925 C3934 0.930 . S
H3926 C3936 0.930 . S
H3927 C3939 0.929 . S
H3928 C3942 0.930 . S
H3929 C3944 0.960 . S
H3930 C3944 0.960 . S
H3931 C3944 0.960 . S
C3932 H3924 0.929 . S
C3932 C3933 1.377 . S
C3932 C3934 1.384 . S
C3933 C3932 1.377 . S
C3933 C3939 1.390 . S
C3934 H3925 0.930 . S
C3934 C3932 1.384 . S
C3934 C3935 1.372 . S
C3935 C3934 1.372 . S
C3935 C3936 1.400 . S
C3935 C3940 1.490 . S
C3936 H3926 0.930 . S
C3936 C3935 1.400 . S
C3936 C3939 1.386 . S
H3937 C3953 0.930 . S
H3938 C3954 0.931 . S
C3939 H3927 0.929 . S
C3939 C3933 1.390 . S
C3939 C3936 1.386 . S
C3940 C3935 1.490 . S
C3940 C3942 1.395 . S
C3940 C3943 1.403 . S
H3941 C3947 0.930 . S
C3942 H3928 0.930 . S
C3942 C3940 1.395 . S
C3942 C3945 1.403 . S
C3943 C3940 1.403 . S
C3943 C3944 1.524 . S
C3943 C3947 1.400 . S
C3944 H3929 0.960 . S
C3944 H3930 0.960 . S
C3944 H3931 0.960 . S
C3944 C3943 1.524 . S
C3945 C3942 1.403 . S
C3945 C3946 1.392 . S
C3945 C3949 1.495 . S
C3946 C3945 1.392 . S
C3946 C3947 1.385 . S
C3946 C3948 1.478 . S
C3947 H3941 0.930 . S
C3947 C3943 1.400 . S
C3947 C3946 1.385 . S
C3948 C3946 1.478 . S
C3948 C3950 1.381 . S
C3948 C3954 1.383 . S
C3949 C3945 1.495 . S
C3949 H3955 0.959 . S
C3949 H3956 0.961 . S
C3949 H3957 0.960 . S
C3950 C3948 1.381 . S
C3950 C3951 1.394 . S
C3950 H3958 0.930 . S
C3951 C3950 1.394 . S
C3951 C3952 1.383 . S
C3951 H3959 0.929 . S
C3952 C3951 1.383 . S
C3952 C3953 1.377 . S
C3953 H3937 0.930 . S
C3953 C3952 1.377 . S
C3953 C3954 1.379 . S
C3954 H3938 0.931 . S
C3954 C3948 1.383 . S
C3954 C3953 1.379 . S
H3955 C3949 0.959 . S
H3956 C3949 0.961 . S
H3957 C3949 0.960 . S
H3958 C3950 0.930 . S
H3959 C3951 0.929 . S
H3960 C3968 0.929 . S
H3961 C3970 0.930 . S
H3962 C3972 0.930 . S
H3963 C3975 0.929 . S
H3964 C3978 0.930 . S
H3965 C3980 0.957 1_556 S
H3966 C3980 0.960 . S
H3967 C3980 0.965 . S
C3968 H3960 0.929 . S
C3968 C3969 1.377 . S
C3968 C3970 1.384 . S
C3969 C3968 1.377 . S
C3969 C3975 1.390 . S
C3970 H3961 0.930 . S
C3970 C3968 1.384 . S
C3970 C3971 1.372 . S
C3971 C3970 1.372 . S
C3971 C3972 1.400 . S
C3971 C3976 1.490 . S
C3972 H3962 0.930 . S
C3972 C3971 1.400 . S
C3972 C3975 1.386 . S
H3973 C3989 0.930 . S
H3974 C3990 0.931 . S
C3975 H3963 0.929 . S
C3975 C3969 1.390 . S
C3975 C3972 1.386 . S
C3976 C3971 1.490 . S
C3976 C3978 1.395 1_554 S
C3976 C3979 1.403 1_554 S
H3977 C3983 0.930 . S
C3978 H3964 0.930 . S
C3978 C3976 1.395 1_556 S
C3978 C3981 1.403 . S
C3979 C3976 1.403 1_556 S
C3979 C3980 1.522 1_556 S
C3979 C3983 1.400 . S
C3980 H3965 0.957 1_554 S
C3980 H3966 0.960 . S
C3980 H3967 0.965 . S
C3980 C3979 1.522 1_554 S
C3981 C3978 1.403 . S
C3981 C3982 1.392 . S
C3981 C3985 1.495 . S
C3982 C3981 1.392 . S
C3982 C3983 1.385 . S
C3982 C3984 1.478 . S
C3983 H3977 0.930 . S
C3983 C3979 1.400 . S
C3983 C3982 1.385 . S
C3984 C3982 1.478 . S
C3984 C3986 1.381 . S
C3984 C3990 1.383 . S
C3985 C3981 1.495 . S
C3985 H3991 0.959 . S
C3985 H3992 0.961 . S
C3985 H3993 0.960 . S
C3986 C3984 1.381 . S
C3986 C3987 1.394 . S
C3986 H3994 0.930 . S
C3987 C3986 1.394 . S
C3987 C3988 1.383 . S
C3987 H3995 0.929 . S
C3988 C3987 1.383 . S
C3988 C3989 1.377 . S
C3989 H3973 0.930 . S
C3989 C3988 1.377 . S
C3989 C3990 1.379 . S
C3990 H3974 0.931 . S
C3990 C3984 1.383 . S
C3990 C3989 1.379 . S
H3991 C3985 0.959 . S
H3992 C3985 0.961 . S
H3993 C3985 0.960 . S
H3994 C3986 0.930 . S
H3995 C3987 0.929 . S
H3996 C4004 0.929 . S
H3997 C4006 0.930 . S
H3998 C4008 0.930 . S
H3999 C4011 0.929 . S
H4000 C4014 0.930 . S
H4001 C4016 0.960 . S
H4002 C4016 0.960 . S
H4003 C4016 0.960 . S
C4004 H3996 0.929 . S
C4004 C4005 1.377 . S
C4004 C4006 1.384 . S
C4005 C4004 1.377 . S
C4005 C4011 1.390 . S
C4006 H3997 0.930 . S
C4006 C4004 1.384 . S
C4006 C4007 1.372 . S
C4007 C4006 1.372 . S
C4007 C4008 1.400 . S
C4007 C4012 1.490 . S
C4008 H3998 0.930 . S
C4008 C4007 1.400 . S
C4008 C4011 1.386 . S
H4009 C4025 0.930 . S
H4010 C4026 0.931 . S
C4011 H3999 0.929 . S
C4011 C4005 1.390 . S
C4011 C4008 1.386 . S
C4012 C4007 1.490 . S
C4012 C4014 1.395 . S
C4012 C4015 1.403 . S
H4013 C4019 0.930 . S
C4014 H4000 0.930 . S
C4014 C4012 1.395 . S
C4014 C4017 1.403 . S
C4015 C4012 1.403 . S
C4015 C4016 1.524 . S
C4015 C4019 1.400 . S
C4016 H4001 0.960 . S
C4016 H4002 0.960 . S
C4016 H4003 0.960 . S
C4016 C4015 1.524 . S
C4017 C4014 1.403 . S
C4017 C4018 1.392 . S
C4017 C4021 1.495 . S
C4018 C4017 1.392 . S
C4018 C4019 1.385 . S
C4018 C4020 1.478 . S
C4019 H4013 0.930 . S
C4019 C4015 1.400 . S
C4019 C4018 1.385 . S
C4020 C4018 1.478 . S
C4020 C4022 1.381 . S
C4020 C4026 1.383 . S
C4021 C4017 1.495 . S
C4021 H4027 0.959 . S
C4021 H4028 0.961 . S
C4021 H4029 0.960 . S
C4022 C4020 1.381 . S
C4022 C4023 1.394 . S
C4022 H4030 0.930 . S
C4023 C4022 1.394 . S
C4023 C4024 1.383 . S
C4023 H4031 0.929 . S
C4024 C4023 1.383 . S
C4024 C4025 1.377 . S
C4025 H4009 0.930 . S
C4025 C4024 1.377 . S
C4025 C4026 1.379 . S
C4026 H4010 0.931 . S
C4026 C4020 1.383 . S
C4026 C4025 1.379 . S
H4027 C4021 0.959 . S
H4028 C4021 0.961 . S
H4029 C4021 0.960 . S
H4030 C4022 0.930 . S
H4031 C4023 0.929 . S
H4032 C4040 0.929 . S
H4033 C4042 0.930 . S
H4034 C4044 0.930 . S
H4035 C4047 0.929 . S
H4036 C4050 0.930 . S
H4037 C4052 0.960 . S
H4038 C4052 0.960 . S
H4039 C4052 0.960 . S
C4040 H4032 0.929 . S
C4040 C4041 1.377 . S
C4040 C4042 1.384 . S
C4041 C4040 1.377 . S
C4041 C4047 1.390 . S
C4042 H4033 0.930 . S
C4042 C4040 1.384 . S
C4042 C4043 1.372 . S
C4043 C4042 1.372 . S
C4043 C4044 1.400 . S
C4043 C4048 1.490 . S
C4044 H4034 0.930 . S
C4044 C4043 1.400 . S
C4044 C4047 1.386 . S
H4045 C4061 0.930 . S
H4046 C4062 0.931 . S
C4047 H4035 0.929 . S
C4047 C4041 1.390 . S
C4047 C4044 1.386 . S
C4048 C4043 1.490 . S
C4048 C4050 1.395 . S
C4048 C4051 1.403 . S
H4049 C4055 0.930 . S
C4050 H4036 0.930 . S
C4050 C4048 1.395 . S
C4050 C4053 1.403 . S
C4051 C4048 1.403 . S
C4051 C4052 1.524 . S
C4051 C4055 1.400 . S
C4052 H4037 0.960 . S
C4052 H4038 0.960 . S
C4052 H4039 0.960 . S
C4052 C4051 1.524 . S
C4053 C4050 1.403 . S
C4053 C4054 1.392 . S
C4053 C4057 1.495 . S
C4054 C4053 1.392 . S
C4054 C4055 1.385 . S
C4054 C4056 1.478 . S
C4055 H4049 0.930 . S
C4055 C4051 1.400 . S
C4055 C4054 1.385 . S
C4056 C4054 1.478 . S
C4056 C4058 1.381 . S
C4056 C4062 1.383 . S
C4057 C4053 1.495 . S
C4057 H4063 0.959 . S
C4057 H4064 0.961 . S
C4057 H4065 0.960 . S
C4058 C4056 1.381 . S
C4058 C4059 1.394 . S
C4058 H4066 0.930 . S
C4059 C4058 1.394 . S
C4059 C4060 1.383 . S
C4059 H4067 0.929 . S
C4060 C4059 1.383 . S
C4060 C4061 1.377 . S
C4061 H4045 0.930 . S
C4061 C4060 1.377 . S
C4061 C4062 1.379 . S
C4062 H4046 0.931 . S
C4062 C4056 1.383 . S
C4062 C4061 1.379 . S
H4063 C4057 0.959 . S
H4064 C4057 0.961 . S
H4065 C4057 0.960 . S
H4066 C4058 0.930 . S
H4067 C4059 0.929 . S
H4068 C4076 0.929 . S
H4069 C4078 0.930 . S
H4070 C4080 0.930 . S
H4071 C4083 0.929 . S
H4072 C4086 0.930 . S
H4073 C4088 0.960 . S
H4074 C4088 0.960 . S
H4075 C4088 0.960 . S
C4076 H4068 0.929 . S
C4076 C4077 1.377 . S
C4076 C4078 1.384 . S
C4077 C4076 1.377 . S
C4077 C4083 1.390 . S
C4078 H4069 0.930 . S
C4078 C4076 1.384 . S
C4078 C4079 1.372 . S
C4079 C4078 1.372 . S
C4079 C4080 1.400 . S
C4079 C4084 1.490 . S
C4080 H4070 0.930 . S
C4080 C4079 1.400 . S
C4080 C4083 1.386 . S
H4081 C4097 0.930 . S
H4082 C4098 0.931 . S
C4083 H4071 0.929 . S
C4083 C4077 1.390 . S
C4083 C4080 1.386 . S
C4084 C4079 1.490 . S
C4084 C4086 1.395 . S
C4084 C4087 1.403 . S
H4085 C4091 0.930 . S
C4086 H4072 0.930 . S
C4086 C4084 1.395 . S
C4086 C4089 1.403 . S
C4087 C4084 1.403 . S
C4087 C4088 1.524 . S
C4087 C4091 1.400 . S
C4088 H4073 0.960 . S
C4088 H4074 0.960 . S
C4088 H4075 0.960 . S
C4088 C4087 1.524 . S
C4089 C4086 1.403 . S
C4089 C4090 1.392 . S
C4089 C4093 1.495 . S
C4090 C4089 1.392 . S
C4090 C4091 1.385 . S
C4090 C4092 1.478 . S
C4091 H4085 0.930 . S
C4091 C4087 1.400 . S
C4091 C4090 1.385 . S
C4092 C4090 1.478 . S
C4092 C4094 1.381 . S
C4092 C4098 1.383 . S
C4093 C4089 1.495 . S
C4093 H4099 0.959 . S
C4093 H4100 0.961 . S
C4093 H4101 0.960 . S
C4094 C4092 1.381 . S
C4094 C4095 1.394 . S
C4094 H4102 0.930 . S
C4095 C4094 1.394 . S
C4095 C4096 1.383 . S
C4095 H4103 0.929 . S
C4096 C4095 1.383 . S
C4096 C4097 1.377 . S
C4097 H4081 0.930 . S
C4097 C4096 1.377 . S
C4097 C4098 1.379 . S
C4098 H4082 0.931 . S
C4098 C4092 1.383 . S
C4098 C4097 1.379 . S
H4099 C4093 0.959 . S
H4100 C4093 0.961 . S
H4101 C4093 0.960 . S
H4102 C4094 0.930 . S
H4103 C4095 0.929 . S
H4104 C4112 0.929 . S
H4105 C4114 0.930 . S
H4106 C4116 0.930 . S
H4107 C4119 0.929 . S
H4108 C4122 0.930 . S
H4109 C4124 0.960 . S
H4110 C4124 0.960 . S
H4111 C4124 0.960 . S
C4112 H4104 0.929 . S
C4112 C4113 1.377 . S
C4112 C4114 1.384 . S
C4113 C4112 1.377 . S
C4113 C4119 1.390 . S
C4114 H4105 0.930 . S
C4114 C4112 1.384 . S
C4114 C4115 1.372 . S
C4115 C4114 1.372 . S
C4115 C4116 1.400 . S
C4115 C4120 1.490 . S
C4116 H4106 0.930 . S
C4116 C4115 1.400 . S
C4116 C4119 1.386 . S
H4117 C4133 0.930 . S
H4118 C4134 0.931 . S
C4119 H4107 0.929 . S
C4119 C4113 1.390 . S
C4119 C4116 1.386 . S
C4120 C4115 1.490 . S
C4120 C4122 1.395 . S
C4120 C4123 1.403 . S
H4121 C4127 0.930 . S
C4122 H4108 0.930 . S
C4122 C4120 1.395 . S
C4122 C4125 1.403 . S
C4123 C4120 1.403 . S
C4123 C4124 1.524 . S
C4123 C4127 1.400 . S
C4124 H4109 0.960 . S
C4124 H4110 0.960 . S
C4124 H4111 0.960 . S
C4124 C4123 1.524 . S
C4125 C4122 1.403 . S
C4125 C4126 1.392 . S
C4125 C4129 1.495 . S
C4126 C4125 1.392 . S
C4126 C4127 1.385 . S
C4126 C4128 1.478 . S
C4127 H4121 0.930 . S
C4127 C4123 1.400 . S
C4127 C4126 1.385 . S
C4128 C4126 1.478 . S
C4128 C4130 1.381 . S
C4128 C4134 1.383 . S
C4129 C4125 1.495 . S
C4129 H4135 0.959 . S
C4129 H4136 0.961 . S
C4129 H4137 0.960 . S
C4130 C4128 1.381 . S
C4130 C4131 1.394 . S
C4130 H4138 0.930 . S
C4131 C4130 1.394 . S
C4131 C4132 1.383 . S
C4131 H4139 0.929 . S
C4132 C4131 1.383 . S
C4132 C4133 1.377 . S
C4133 H4117 0.930 . S
C4133 C4132 1.377 . S
C4133 C4134 1.379 . S
C4134 H4118 0.931 . S
C4134 C4128 1.383 . S
C4134 C4133 1.379 . S
H4135 C4129 0.959 . S
H4136 C4129 0.961 . S
H4137 C4129 0.960 . S
H4138 C4130 0.930 . S
H4139 C4131 0.929 . S
H4140 C4148 0.929 . S
H4141 C4150 0.930 . S
H4142 C4152 0.930 . S
H4143 C4155 0.929 . S
H4144 C4158 0.930 . S
H4145 C4160 0.960 . S
H4146 C4160 0.960 . S
H4147 C4160 0.960 . S
C4148 H4140 0.929 . S
C4148 C4149 1.377 . S
C4148 C4150 1.384 . S
C4149 C4148 1.377 . S
C4149 C4155 1.390 . S
C4150 H4141 0.930 . S
C4150 C4148 1.384 . S
C4150 C4151 1.372 . S
C4151 C4150 1.372 . S
C4151 C4152 1.400 . S
C4151 C4156 1.490 . S
C4152 H4142 0.930 . S
C4152 C4151 1.400 . S
C4152 C4155 1.386 . S
H4153 C4169 0.930 . S
H4154 C4170 0.931 . S
C4155 H4143 0.929 . S
C4155 C4149 1.390 . S
C4155 C4152 1.386 . S
C4156 C4151 1.490 . S
C4156 C4158 1.395 . S
C4156 C4159 1.403 . S
H4157 C4163 0.930 . S
C4158 H4144 0.930 . S
C4158 C4156 1.395 . S
C4158 C4161 1.403 . S
C4159 C4156 1.403 . S
C4159 C4160 1.524 . S
C4159 C4163 1.400 . S
C4160 H4145 0.960 . S
C4160 H4146 0.960 . S
C4160 H4147 0.960 . S
C4160 C4159 1.524 . S
C4161 C4158 1.403 . S
C4161 C4162 1.392 . S
C4161 C4165 1.495 . S
C4162 C4161 1.392 . S
C4162 C4163 1.385 . S
C4162 C4164 1.478 . S
C4163 H4157 0.930 . S
C4163 C4159 1.400 . S
C4163 C4162 1.385 . S
C4164 C4162 1.478 . S
C4164 C4166 1.381 . S
C4164 C4170 1.383 . S
C4165 C4161 1.495 . S
C4165 H4171 0.959 . S
C4165 H4172 0.961 . S
C4165 H4173 0.960 . S
C4166 C4164 1.381 . S
C4166 C4167 1.394 . S
C4166 H4174 0.930 . S
C4167 C4166 1.394 . S
C4167 C4168 1.383 . S
C4167 H4175 0.929 . S
C4168 C4167 1.383 . S
C4168 C4169 1.377 . S
C4169 H4153 0.930 . S
C4169 C4168 1.377 . S
C4169 C4170 1.379 . S
C4170 H4154 0.931 . S
C4170 C4164 1.383 . S
C4170 C4169 1.379 . S
H4171 C4165 0.959 . S
H4172 C4165 0.961 . S
H4173 C4165 0.960 . S
H4174 C4166 0.930 . S
H4175 C4167 0.929 . S
H4176 C4184 0.929 . S
H4177 C4186 0.930 . S
H4178 C4188 0.930 . S
H4179 C4191 0.929 . S
H4180 C4194 0.930 . S
H4181 C4196 0.960 . S
H4182 C4196 0.960 . S
H4183 C4196 0.960 . S
C4184 H4176 0.929 . S
C4184 C4185 1.377 . S
C4184 C4186 1.384 . S
C4185 C4184 1.377 . S
C4185 C4191 1.390 . S
C4186 H4177 0.930 . S
C4186 C4184 1.384 . S
C4186 C4187 1.372 . S
C4187 C4186 1.372 . S
C4187 C4188 1.400 . S
C4187 C4192 1.490 . S
C4188 H4178 0.930 . S
C4188 C4187 1.400 . S
C4188 C4191 1.386 . S
H4189 C4205 0.930 . S
H4190 C4206 0.931 . S
C4191 H4179 0.929 . S
C4191 C4185 1.390 . S
C4191 C4188 1.386 . S
C4192 C4187 1.490 . S
C4192 C4194 1.395 . S
C4192 C4195 1.403 . S
H4193 C4199 0.930 . S
C4194 H4180 0.930 . S
C4194 C4192 1.395 . S
C4194 C4197 1.403 . S
C4195 C4192 1.403 . S
C4195 C4196 1.524 . S
C4195 C4199 1.400 . S
C4196 H4181 0.960 . S
C4196 H4182 0.960 . S
C4196 H4183 0.960 . S
C4196 C4195 1.524 . S
C4197 C4194 1.403 . S
C4197 C4198 1.392 . S
C4197 C4201 1.495 . S
C4198 C4197 1.392 . S
C4198 C4199 1.385 . S
C4198 C4200 1.478 . S
C4199 H4193 0.930 . S
C4199 C4195 1.400 . S
C4199 C4198 1.385 . S
C4200 C4198 1.478 . S
C4200 C4202 1.381 . S
C4200 C4206 1.383 . S
C4201 C4197 1.495 . S
C4201 H4207 0.959 . S
C4201 H4208 0.961 . S
C4201 H4209 0.960 . S
C4202 C4200 1.381 . S
C4202 C4203 1.394 . S
C4202 H4210 0.930 . S
C4203 C4202 1.394 . S
C4203 C4204 1.383 . S
C4203 H4211 0.929 . S
C4204 C4203 1.383 . S
C4204 C4205 1.377 . S
C4205 H4189 0.930 . S
C4205 C4204 1.377 . S
C4205 C4206 1.379 . S
C4206 H4190 0.931 . S
C4206 C4200 1.383 . S
C4206 C4205 1.379 . S
H4207 C4201 0.959 . S
H4208 C4201 0.961 . S
H4209 C4201 0.960 . S
H4210 C4202 0.930 . S
H4211 C4203 0.929 . S
H4212 C4220 0.929 . S
H4213 C4222 0.930 . S
H4214 C4224 0.930 . S
H4215 C4227 0.929 . S
H4216 C4230 0.930 . S
H4217 C4232 0.960 . S
H4218 C4232 0.960 . S
H4219 C4232 0.960 . S
C4220 H4212 0.929 . S
C4220 C4221 1.377 . S
C4220 C4222 1.384 . S
C4221 C4220 1.377 . S
C4221 C4227 1.390 . S
C4222 H4213 0.930 . S
C4222 C4220 1.384 . S
C4222 C4223 1.372 . S
C4223 C4222 1.372 . S
C4223 C4224 1.400 . S
C4223 C4228 1.490 . S
C4224 H4214 0.930 . S
C4224 C4223 1.400 . S
C4224 C4227 1.386 . S
H4225 C4241 0.930 . S
H4226 C4242 0.931 . S
C4227 H4215 0.929 . S
C4227 C4221 1.390 . S
C4227 C4224 1.386 . S
C4228 C4223 1.490 . S
C4228 C4230 1.395 . S
C4228 C4231 1.403 1_565 S
H4229 C4235 0.930 . S
C4230 H4216 0.930 . S
C4230 C4228 1.395 . S
C4230 C4233 1.403 1_565 S
C4231 C4228 1.403 1_545 S
C4231 C4232 1.524 . S
C4231 C4235 1.400 . S
C4232 H4217 0.960 . S
C4232 H4218 0.960 . S
C4232 H4219 0.960 . S
C4232 C4231 1.524 . S
C4233 C4230 1.403 1_545 S
C4233 C4234 1.392 . S
C4233 C4237 1.495 . S
C4234 C4233 1.392 . S
C4234 C4235 1.385 . S
C4234 C4236 1.478 . S
C4235 H4229 0.930 . S
C4235 C4231 1.400 . S
C4235 C4234 1.385 . S
C4236 C4234 1.478 . S
C4236 C4238 1.381 . S
C4236 C4242 1.383 . S
C4237 C4233 1.495 . S
C4237 H4243 0.959 1_545 S
C4237 H4244 0.961 . S
C4237 H4245 0.960 . S
C4238 C4236 1.381 . S
C4238 C4239 1.394 . S
C4238 H4246 0.930 . S
C4239 C4238 1.394 . S
C4239 C4240 1.383 . S
C4239 H4247 0.929 . S
C4240 C4239 1.383 . S
C4240 C4241 1.377 . S
C4241 H4225 0.930 . S
C4241 C4240 1.377 . S
C4241 C4242 1.379 . S
C4242 H4226 0.931 . S
C4242 C4236 1.383 . S
C4242 C4241 1.379 . S
H4243 C4237 0.959 1_565 S
H4244 C4237 0.961 . S
H4245 C4237 0.960 . S
H4246 C4238 0.930 . S
H4247 C4239 0.929 . S
H4248 C4256 0.929 . S
H4249 C4258 0.930 . S
H4250 C4260 0.930 . S
H4251 C4263 0.929 . S
H4252 C4266 0.930 . S
H4253 C4268 0.960 . S
H4254 C4268 0.960 . S
H4255 C4268 0.960 . S
C4256 H4248 0.929 . S
C4256 C4257 1.377 . S
C4256 C4258 1.384 . S
C4257 C4256 1.377 . S
C4257 C4263 1.390 . S
C4258 H4249 0.930 . S
C4258 C4256 1.384 . S
C4258 C4259 1.372 . S
C4259 C4258 1.372 . S
C4259 C4260 1.400 . S
C4259 C4264 1.490 . S
C4260 H4250 0.930 . S
C4260 C4259 1.400 . S
C4260 C4263 1.386 . S
H4261 C4277 0.930 . S
H4262 C4278 0.931 . S
C4263 H4251 0.929 . S
C4263 C4257 1.390 . S
C4263 C4260 1.386 . S
C4264 C4259 1.490 . S
C4264 C4266 1.395 . S
C4264 C4267 1.403 . S
H4265 C4271 0.930 . S
C4266 H4252 0.930 . S
C4266 C4264 1.395 . S
C4266 C4269 1.403 . S
C4267 C4264 1.403 . S
C4267 C4268 1.524 . S
C4267 C4271 1.400 . S
C4268 H4253 0.960 . S
C4268 H4254 0.960 . S
C4268 H4255 0.960 . S
C4268 C4267 1.524 . S
C4269 C4266 1.403 . S
C4269 C4270 1.392 . S
C4269 C4273 1.495 . S
C4270 C4269 1.392 . S
C4270 C4271 1.385 . S
C4270 C4272 1.478 . S
C4271 H4265 0.930 . S
C4271 C4267 1.400 . S
C4271 C4270 1.385 . S
C4272 C4270 1.478 . S
C4272 C4274 1.381 . S
C4272 C4278 1.383 . S
C4273 C4269 1.495 . S
C4273 H4279 0.959 . S
C4273 H4280 0.961 . S
C4273 H4281 0.960 . S
C4274 C4272 1.381 . S
C4274 C4275 1.394 . S
C4274 H4282 0.930 . S
C4275 C4274 1.394 . S
C4275 C4276 1.383 . S
C4275 H4283 0.929 . S
C4276 C4275 1.383 . S
C4276 C4277 1.377 . S
C4277 H4261 0.930 . S
C4277 C4276 1.377 . S
C4277 C4278 1.379 . S
C4278 H4262 0.931 . S
C4278 C4272 1.383 . S
C4278 C4277 1.379 . S
H4279 C4273 0.959 . S
H4280 C4273 0.961 . S
H4281 C4273 0.960 . S
H4282 C4274 0.930 . S
H4283 C4275 0.929 . S
H4284 C4292 0.929 . S
H4285 C4294 0.930 . S
H4286 C4296 0.930 . S
H4287 C4299 0.929 . S
H4288 C4302 0.930 . S
H4289 C4304 0.960 . S
H4290 C4304 0.960 . S
H4291 C4304 0.960 . S
C4292 H4284 0.929 . S
C4292 C4293 1.377 . S
C4292 C4294 1.384 . S
C4293 C4292 1.377 . S
C4293 C4299 1.390 . S
C4294 H4285 0.930 . S
C4294 C4292 1.384 . S
C4294 C4295 1.372 . S
C4295 C4294 1.372 . S
C4295 C4296 1.400 . S
C4295 C4300 1.490 . S
C4296 H4286 0.930 . S
C4296 C4295 1.400 . S
C4296 C4299 1.386 . S
H4297 C4313 0.930 . S
H4298 C4314 0.931 . S
C4299 H4287 0.929 . S
C4299 C4293 1.390 . S
C4299 C4296 1.386 . S
C4300 C4295 1.490 . S
C4300 C4302 1.395 . S
C4300 C4303 1.403 . S
H4301 C4307 0.930 . S
C4302 H4288 0.930 . S
C4302 C4300 1.395 . S
C4302 C4305 1.403 . S
C4303 C4300 1.403 . S
C4303 C4304 1.524 . S
C4303 C4307 1.400 . S
C4304 H4289 0.960 . S
C4304 H4290 0.960 . S
C4304 H4291 0.960 . S
C4304 C4303 1.524 . S
C4305 C4302 1.403 . S
C4305 C4306 1.392 . S
C4305 C4309 1.495 . S
C4306 C4305 1.392 . S
C4306 C4307 1.385 . S
C4306 C4308 1.478 . S
C4307 H4301 0.930 . S
C4307 C4303 1.400 . S
C4307 C4306 1.385 . S
C4308 C4306 1.478 . S
C4308 C4310 1.381 . S
C4308 C4314 1.383 . S
C4309 C4305 1.495 . S
C4309 H4315 0.959 . S
C4309 H4316 0.961 . S
C4309 H4317 0.960 . S
C4310 C4308 1.381 . S
C4310 C4311 1.394 . S
C4310 H4318 0.930 . S
C4311 C4310 1.394 . S
C4311 C4312 1.383 . S
C4311 H4319 0.929 . S
C4312 C4311 1.383 . S
C4312 C4313 1.377 . S
C4313 H4297 0.930 . S
C4313 C4312 1.377 . S
C4313 C4314 1.379 . S
C4314 H4298 0.931 . S
C4314 C4308 1.383 . S
C4314 C4313 1.379 . S
H4315 C4309 0.959 . S
H4316 C4309 0.961 . S
H4317 C4309 0.960 . S
H4318 C4310 0.930 . S
H4319 C4311 0.929 . S
H4320 C4328 0.929 . S
H4321 C4330 0.930 . S
H4322 C4332 0.930 . S
H4323 C4335 0.929 . S
H4324 C4338 0.930 . S
H4325 C4340 0.960 . S
H4326 C4340 0.960 . S
H4327 C4340 0.960 . S
C4328 H4320 0.929 . S
C4328 C4329 1.377 . S
C4328 C4330 1.384 . S
C4329 C4328 1.377 . S
C4329 C4335 1.390 . S
C4330 H4321 0.930 . S
C4330 C4328 1.384 . S
C4330 C4331 1.372 . S
C4331 C4330 1.372 . S
C4331 C4332 1.400 . S
C4331 C4336 1.490 . S
C4332 H4322 0.930 . S
C4332 C4331 1.400 . S
C4332 C4335 1.386 . S
H4333 C4349 0.930 . S
H4334 C4350 0.931 . S
C4335 H4323 0.929 . S
C4335 C4329 1.390 . S
C4335 C4332 1.386 . S
C4336 C4331 1.490 . S
C4336 C4338 1.395 . S
C4336 C4339 1.403 . S
H4337 C4343 0.930 . S
C4338 H4324 0.930 . S
C4338 C4336 1.395 . S
C4338 C4341 1.403 . S
C4339 C4336 1.403 . S
C4339 C4340 1.524 . S
C4339 C4343 1.400 . S
C4340 H4325 0.960 . S
C4340 H4326 0.960 . S
C4340 H4327 0.960 . S
C4340 C4339 1.524 . S
C4341 C4338 1.403 . S
C4341 C4342 1.392 . S
C4341 C4345 1.495 . S
C4342 C4341 1.392 . S
C4342 C4343 1.385 . S
C4342 C4344 1.478 . S
C4343 H4337 0.930 . S
C4343 C4339 1.400 . S
C4343 C4342 1.385 . S
C4344 C4342 1.478 . S
C4344 C4346 1.381 . S
C4344 C4350 1.383 . S
C4345 C4341 1.495 . S
C4345 H4351 0.959 . S
C4345 H4352 0.961 . S
C4345 H4353 0.960 . S
C4346 C4344 1.381 . S
C4346 C4347 1.394 . S
C4346 H4354 0.930 . S
C4347 C4346 1.394 . S
C4347 C4348 1.383 . S
C4347 H4355 0.929 . S
C4348 C4347 1.383 . S
C4348 C4349 1.377 . S
C4349 H4333 0.930 . S
C4349 C4348 1.377 . S
C4349 C4350 1.379 . S
C4350 H4334 0.931 . S
C4350 C4344 1.383 . S
C4350 C4349 1.379 . S
H4351 C4345 0.959 . S
H4352 C4345 0.961 . S
H4353 C4345 0.960 . S
H4354 C4346 0.930 . S
H4355 C4347 0.929 . S
H4356 C4364 0.929 . S
H4357 C4366 0.930 . S
H4358 C4368 0.930 . S
H4359 C4371 0.929 . S
H4360 C4374 0.930 . S
H4361 C4376 0.960 . S
H4362 C4376 0.960 . S
H4363 C4376 0.960 . S
C4364 H4356 0.929 . S
C4364 C4365 1.377 . S
C4364 C4366 1.384 . S
C4365 C4364 1.377 . S
C4365 C4371 1.390 . S
C4366 H4357 0.930 . S
C4366 C4364 1.384 . S
C4366 C4367 1.372 . S
C4367 C4366 1.372 . S
C4367 C4368 1.400 . S
C4367 C4372 1.549 . S
C4368 H4358 0.930 . S
C4368 C4367 1.400 . S
C4368 C4371 1.386 . S
H4369 C4385 0.930 . S
H4370 C4386 0.931 . S
C4371 H4359 0.929 . S
C4371 C4365 1.390 . S
C4371 C4368 1.386 . S
C4372 C4367 1.549 . S
C4372 C4374 1.341 1_565 S
C4372 C4375 1.398 1_565 S
H4373 C4379 0.930 . S
C4374 H4360 0.930 . S
C4374 C4372 1.341 1_545 S
C4374 C4377 1.403 . S
C4375 C4372 1.398 1_545 S
C4375 C4376 1.498 1_545 S
C4375 C4379 1.431 . S
C4376 H4361 0.960 . S
C4376 H4362 0.960 . S
C4376 H4363 0.960 . S
C4376 C4375 1.498 1_565 S
C4377 C4374 1.403 . S
C4377 C4378 1.392 . S
C4377 C4381 1.495 . S
C4378 C4377 1.392 . S
C4378 C4379 1.385 . S
C4378 C4380 1.478 . S
C4379 H4373 0.930 . S
C4379 C4375 1.431 . S
C4379 C4378 1.385 . S
C4380 C4378 1.478 . S
C4380 C4382 1.381 . S
C4380 C4386 1.383 . S
C4381 C4377 1.495 . S
C4381 H4387 0.959 . S
C4381 H4388 0.961 . S
C4381 H4389 0.960 . S
C4382 C4380 1.381 . S
C4382 C4383 1.394 . S
C4382 H4390 0.930 . S
C4383 C4382 1.394 . S
C4383 C4384 1.383 . S
C4383 H4391 0.929 . S
C4384 C4383 1.383 . S
C4384 C4385 1.377 . S
C4385 H4369 0.930 . S
C4385 C4384 1.377 . S
C4385 C4386 1.379 . S
C4386 H4370 0.931 . S
C4386 C4380 1.383 . S
C4386 C4385 1.379 . S
H4387 C4381 0.959 . S
H4388 C4381 0.961 . S
H4389 C4381 0.960 . S
H4390 C4382 0.930 . S
H4391 C4383 0.929 . S
H4392 C4400 0.929 . S
H4393 C4402 0.930 . S
H4394 C4404 0.930 . S
H4395 C4407 0.929 . S
H4396 C4410 0.930 . S
H4397 C4412 0.960 . S
H4398 C4412 0.960 . S
H4399 C4412 0.960 . S
C4400 H4392 0.929 . S
C4400 C4401 1.377 . S
C4400 C4402 1.384 . S
C4401 C4400 1.377 . S
C4401 C4407 1.390 . S
C4402 H4393 0.930 . S
C4402 C4400 1.384 . S
C4402 C4403 1.372 . S
C4403 C4402 1.372 . S
C4403 C4404 1.400 . S
C4403 C4408 1.490 . S
C4404 H4394 0.930 . S
C4404 C4403 1.400 . S
C4404 C4407 1.386 . S
H4405 C4421 0.930 . S
H4406 C4422 0.931 . S
C4407 H4395 0.929 . S
C4407 C4401 1.390 . S
C4407 C4404 1.386 . S
C4408 C4403 1.490 . S
C4408 C4410 1.395 . S
C4408 C4411 1.403 . S
H4409 C4415 0.930 . S
C4410 H4396 0.930 . S
C4410 C4408 1.395 . S
C4410 C4413 1.403 . S
C4411 C4408 1.403 . S
C4411 C4412 1.524 . S
C4411 C4415 1.400 . S
C4412 H4397 0.960 . S
C4412 H4398 0.960 . S
C4412 H4399 0.960 . S
C4412 C4411 1.524 . S
C4413 C4410 1.403 . S
C4413 C4414 1.392 . S
C4413 C4417 1.495 . S
C4414 C4413 1.392 . S
C4414 C4415 1.385 . S
C4414 C4416 1.478 . S
C4415 H4409 0.930 . S
C4415 C4411 1.400 . S
C4415 C4414 1.385 . S
C4416 C4414 1.478 . S
C4416 C4418 1.381 . S
C4416 C4422 1.383 . S
C4417 C4413 1.495 . S
C4417 H4423 0.959 . S
C4417 H4424 0.961 . S
C4417 H4425 0.960 . S
C4418 C4416 1.381 . S
C4418 C4419 1.394 . S
C4418 H4426 0.930 . S
C4419 C4418 1.394 . S
C4419 C4420 1.383 . S
C4419 H4427 0.929 . S
C4420 C4419 1.383 . S
C4420 C4421 1.377 . S
C4421 H4405 0.930 . S
C4421 C4420 1.377 . S
C4421 C4422 1.379 . S
C4422 H4406 0.931 . S
C4422 C4416 1.383 . S
C4422 C4421 1.379 . S
H4423 C4417 0.959 . S
H4424 C4417 0.961 . S
H4425 C4417 0.960 . S
H4426 C4418 0.930 . S
H4427 C4419 0.929 . S
H4428 C4436 0.929 . S
H4429 C4438 0.930 . S
H4430 C4440 0.930 . S
H4431 C4443 0.929 . S
H4432 C4446 0.930 . S
H4433 C4448 0.960 . S
H4434 C4448 0.960 . S
H4435 C4448 0.960 . S
C4436 H4428 0.929 . S
C4436 C4437 1.377 . S
C4436 C4438 1.384 . S
C4437 C4436 1.377 . S
C4437 C4443 1.390 . S
C4438 H4429 0.930 . S
C4438 C4436 1.384 . S
C4438 C4439 1.372 . S
C4439 C4438 1.372 . S
C4439 C4440 1.400 . S
C4439 C4444 1.490 . S
C4440 H4430 0.930 . S
C4440 C4439 1.400 . S
C4440 C4443 1.386 . S
H4441 C4457 0.930 . S
H4442 C4458 0.931 . S
C4443 H4431 0.929 . S
C4443 C4437 1.390 . S
C4443 C4440 1.386 . S
C4444 C4439 1.490 . S
C4444 C4446 1.395 . S
C4444 C4447 1.403 . S
H4445 C4451 0.930 . S
C4446 H4432 0.930 . S
C4446 C4444 1.395 . S
C4446 C4449 1.403 . S
C4447 C4444 1.403 . S
C4447 C4448 1.524 . S
C4447 C4451 1.400 . S
C4448 H4433 0.960 . S
C4448 H4434 0.960 . S
C4448 H4435 0.960 . S
C4448 C4447 1.524 . S
C4449 C4446 1.403 . S
C4449 C4450 1.392 . S
C4449 C4453 1.495 . S
C4450 C4449 1.392 . S
C4450 C4451 1.385 . S
C4450 C4452 1.478 . S
C4451 H4445 0.930 . S
C4451 C4447 1.400 . S
C4451 C4450 1.385 . S
C4452 C4450 1.478 . S
C4452 C4454 1.381 . S
C4452 C4458 1.383 . S
C4453 C4449 1.495 . S
C4453 H4459 0.959 . S
C4453 H4460 0.961 . S
C4453 H4461 0.960 . S
C4454 C4452 1.381 . S
C4454 C4455 1.394 . S
C4454 H4462 0.930 . S
C4455 C4454 1.394 . S
C4455 C4456 1.383 . S
C4455 H4463 0.929 . S
C4456 C4455 1.383 . S
C4456 C4457 1.377 . S
C4457 H4441 0.930 . S
C4457 C4456 1.377 . S
C4457 C4458 1.379 . S
C4458 H4442 0.931 . S
C4458 C4452 1.383 . S
C4458 C4457 1.379 . S
H4459 C4453 0.959 . S
H4460 C4453 0.961 . S
H4461 C4453 0.960 . S
H4462 C4454 0.930 . S
H4463 C4455 0.929 . S
H4464 C4472 0.929 . S
H4465 C4474 0.930 . S
H4466 C4476 0.930 . S
H4467 C4479 0.929 . S
H4468 C4482 0.930 . S
H4469 C4484 0.960 . S
H4470 C4484 0.960 . S
H4471 C4484 0.960 . S
C4472 H4464 0.929 . S
C4472 C4473 1.377 . S
C4472 C4474 1.384 . S
C4473 C4472 1.377 . S
C4473 C4479 1.390 . S
C4474 H4465 0.930 . S
C4474 C4472 1.384 . S
C4474 C4475 1.372 . S
C4475 C4474 1.372 . S
C4475 C4476 1.400 . S
C4475 C4480 1.490 . S
C4476 H4466 0.930 . S
C4476 C4475 1.400 . S
C4476 C4479 1.386 . S
H4477 C4493 0.930 . S
H4478 C4494 0.931 . S
C4479 H4467 0.929 . S
C4479 C4473 1.390 . S
C4479 C4476 1.386 . S
C4480 C4475 1.490 . S
C4480 C4482 1.395 . S
C4480 C4483 1.403 . S
H4481 C4487 0.930 . S
C4482 H4468 0.930 . S
C4482 C4480 1.395 . S
C4482 C4485 1.403 . S
C4483 C4480 1.403 . S
C4483 C4484 1.524 . S
C4483 C4487 1.400 . S
C4484 H4469 0.960 . S
C4484 H4470 0.960 . S
C4484 H4471 0.960 . S
C4484 C4483 1.524 . S
C4485 C4482 1.403 . S
C4485 C4486 1.392 . S
C4485 C4489 1.495 . S
C4486 C4485 1.392 . S
C4486 C4487 1.385 . S
C4486 C4488 1.478 . S
C4487 H4481 0.930 . S
C4487 C4483 1.400 . S
C4487 C4486 1.385 . S
C4488 C4486 1.478 . S
C4488 C4490 1.381 . S
C4488 C4494 1.383 . S
C4489 C4485 1.495 . S
C4489 H4495 0.959 . S
C4489 H4496 0.961 . S
C4489 H4497 0.960 . S
C4490 C4488 1.381 . S
C4490 C4491 1.394 . S
C4490 H4498 0.930 . S
C4491 C4490 1.394 . S
C4491 C4492 1.383 . S
C4491 H4499 0.929 . S
C4492 C4491 1.383 . S
C4492 C4493 1.377 . S
C4493 H4477 0.930 . S
C4493 C4492 1.377 . S
C4493 C4494 1.379 . S
C4494 H4478 0.931 . S
C4494 C4488 1.383 . S
C4494 C4493 1.379 . S
H4495 C4489 0.959 . S
H4496 C4489 0.961 . S
H4497 C4489 0.960 . S
H4498 C4490 0.930 . S
H4499 C4491 0.929 . S
H4500 C4508 0.929 . S
H4501 C4510 0.930 . S
H4502 C4512 0.930 . S
H4503 C4515 0.929 . S
H4504 C4518 0.930 . S
H4505 C4520 0.960 . S
H4506 C4520 0.960 . S
H4507 C4520 0.960 . S
C4508 H4500 0.929 . S
C4508 C4509 1.377 . S
C4508 C4510 1.384 . S
C4509 C4508 1.377 . S
C4509 C4515 1.390 . S
C4510 H4501 0.930 . S
C4510 C4508 1.384 . S
C4510 C4511 1.372 . S
C4511 C4510 1.372 . S
C4511 C4512 1.400 . S
C4511 C4516 1.490 . S
C4512 H4502 0.930 . S
C4512 C4511 1.400 . S
C4512 C4515 1.386 . S
H4513 C4529 0.930 . S
H4514 C4530 0.931 . S
C4515 H4503 0.929 . S
C4515 C4509 1.390 . S
C4515 C4512 1.386 . S
C4516 C4511 1.490 . S
C4516 C4518 1.395 1_455 S
C4516 C4519 1.405 . S
H4517 C4523 0.930 . S
C4518 H4504 0.930 . S
C4518 C4516 1.395 1_655 S
C4518 C4521 1.403 . S
C4519 C4516 1.405 . S
C4519 C4520 1.559 . S
C4519 C4523 1.361 1_455 S
C4520 H4505 0.960 . S
C4520 H4506 0.960 . S
C4520 H4507 0.960 . S
C4520 C4519 1.559 . S
C4521 C4518 1.403 . S
C4521 C4522 1.392 . S
C4521 C4525 1.495 . S
C4522 C4521 1.392 . S
C4522 C4523 1.385 . S
C4522 C4524 1.478 . S
C4523 H4517 0.930 . S
C4523 C4519 1.361 1_655 S
C4523 C4522 1.385 . S
C4524 C4522 1.478 . S
C4524 C4526 1.381 . S
C4524 C4530 1.383 . S
C4525 C4521 1.495 . S
C4525 H4531 0.959 . S
C4525 H4532 0.961 . S
C4525 H4533 0.960 . S
C4526 C4524 1.381 . S
C4526 C4527 1.394 . S
C4526 H4534 0.930 . S
C4527 C4526 1.394 . S
C4527 C4528 1.383 . S
C4527 H4535 0.929 . S
C4528 C4527 1.383 . S
C4528 C4529 1.377 . S
C4529 H4513 0.930 . S
C4529 C4528 1.377 . S
C4529 C4530 1.379 . S
C4530 H4514 0.931 . S
C4530 C4524 1.383 . S
C4530 C4529 1.379 . S
H4531 C4525 0.959 . S
H4532 C4525 0.961 . S
H4533 C4525 0.960 . S
H4534 C4526 0.930 . S
H4535 C4527 0.929 . S
H4536 C4544 0.929 . S
H4537 C4546 0.930 . S
H4538 C4548 0.930 . S
H4539 C4551 0.929 . S
H4540 C4554 0.930 . S
H4541 C4556 0.960 . S
H4542 C4556 0.960 . S
H4543 C4556 0.960 . S
C4544 H4536 0.929 . S
C4544 C4545 1.377 . S
C4544 C4546 1.384 . S
C4545 C4544 1.377 . S
C4545 C4551 1.390 . S
C4546 H4537 0.930 . S
C4546 C4544 1.384 . S
C4546 C4547 1.372 . S
C4547 C4546 1.372 . S
C4547 C4548 1.400 . S
C4547 C4552 1.490 . S
C4548 H4538 0.930 . S
C4548 C4547 1.400 . S
C4548 C4551 1.386 . S
H4549 C4565 0.930 . S
H4550 C4566 0.931 . S
C4551 H4539 0.929 . S
C4551 C4545 1.390 . S
C4551 C4548 1.386 . S
C4552 C4547 1.490 . S
C4552 C4554 1.395 . S
C4552 C4555 1.403 . S
H4553 C4559 0.930 . S
C4554 H4540 0.930 . S
C4554 C4552 1.395 . S
C4554 C4557 1.403 . S
C4555 C4552 1.403 . S
C4555 C4556 1.524 . S
C4555 C4559 1.400 . S
C4556 H4541 0.960 . S
C4556 H4542 0.960 . S
C4556 H4543 0.960 . S
C4556 C4555 1.524 . S
C4557 C4554 1.403 . S
C4557 C4558 1.392 . S
C4557 C4561 1.495 . S
C4558 C4557 1.392 . S
C4558 C4559 1.385 . S
C4558 C4560 1.478 . S
C4559 H4553 0.930 . S
C4559 C4555 1.400 . S
C4559 C4558 1.385 . S
C4560 C4558 1.478 . S
C4560 C4562 1.381 . S
C4560 C4566 1.383 . S
C4561 C4557 1.495 . S
C4561 H4567 0.959 . S
C4561 H4568 0.961 . S
C4561 H4569 0.960 . S
C4562 C4560 1.381 . S
C4562 C4563 1.394 . S
C4562 H4570 0.930 . S
C4563 C4562 1.394 . S
C4563 C4564 1.383 . S
C4563 H4571 0.929 . S
C4564 C4563 1.383 . S
C4564 C4565 1.377 . S
C4565 H4549 0.930 . S
C4565 C4564 1.377 . S
C4565 C4566 1.379 . S
C4566 H4550 0.931 . S
C4566 C4560 1.383 . S
C4566 C4565 1.379 . S
H4567 C4561 0.959 . S
H4568 C4561 0.961 . S
H4569 C4561 0.960 . S
H4570 C4562 0.930 . S
H4571 C4563 0.929 . S
H4572 C4580 0.929 . S
H4573 C4582 0.930 . S
H4574 C4584 0.930 . S
H4575 C4587 0.929 . S
H4576 C4590 0.930 . S
H4577 C4592 0.960 . S
H4578 C4592 0.960 . S
H4579 C4592 0.960 . S
C4580 H4572 0.929 . S
C4580 C4581 1.377 . S
C4580 C4582 1.384 . S
C4581 C4580 1.377 . S
C4581 C4587 1.390 . S
C4582 H4573 0.930 . S
C4582 C4580 1.384 . S
C4582 C4583 1.372 . S
C4583 C4582 1.372 . S
C4583 C4584 1.400 . S
C4583 C4588 1.490 . S
C4584 H4574 0.930 . S
C4584 C4583 1.400 . S
C4584 C4587 1.386 . S
H4585 C4601 0.930 . S
H4586 C4602 0.931 . S
C4587 H4575 0.929 . S
C4587 C4581 1.390 . S
C4587 C4584 1.386 . S
C4588 C4583 1.490 . S
C4588 C4590 1.395 . S
C4588 C4591 1.403 . S
H4589 C4595 0.930 1_655 S
C4590 H4576 0.930 . S
C4590 C4588 1.395 . S
C4590 C4593 1.403 . S
C4591 C4588 1.403 . S
C4591 C4592 1.524 . S
C4591 C4595 1.400 . S
C4592 H4577 0.960 . S
C4592 H4578 0.960 . S
C4592 H4579 0.960 . S
C4592 C4591 1.524 . S
C4593 C4590 1.403 . S
C4593 C4594 1.392 1_455 S
C4593 C4597 1.495 . S
C4594 C4593 1.392 1_655 S
C4594 C4595 1.385 1_655 S
C4594 C4596 1.478 . S
C4595 H4589 0.930 1_455 S
C4595 C4591 1.400 . S
C4595 C4594 1.385 1_455 S
C4596 C4594 1.478 . S
C4596 C4598 1.381 . S
C4596 C4602 1.383 . S
C4597 C4593 1.495 . S
C4597 H4603 0.959 . S
C4597 H4604 0.961 . S
C4597 H4605 0.960 1_455 S
C4598 C4596 1.381 . S
C4598 C4599 1.394 . S
C4598 H4606 0.930 . S
C4599 C4598 1.394 . S
C4599 C4600 1.383 . S
C4599 H4607 0.929 . S
C4600 C4599 1.383 . S
C4600 C4601 1.377 . S
C4601 H4585 0.930 . S
C4601 C4600 1.377 . S
C4601 C4602 1.379 . S
C4602 H4586 0.931 . S
C4602 C4596 1.383 . S
C4602 C4601 1.379 . S
H4603 C4597 0.959 . S
H4604 C4597 0.961 . S
H4605 C4597 0.960 1_655 S
H4606 C4598 0.930 . S
H4607 C4599 0.929 . S
H4608 C4616 0.929 . S
H4609 C4618 0.930 . S
H4610 C4620 0.930 . S
H4611 C4623 0.929 . S
H4612 C4626 0.930 . S
H4613 C4628 0.960 . S
H4614 C4628 0.960 . S
H4615 C4628 0.960 . S
C4616 H4608 0.929 . S
C4616 C4617 1.377 . S
C4616 C4618 1.384 . S
C4617 C4616 1.377 . S
C4617 C4623 1.390 . S
C4618 H4609 0.930 . S
C4618 C4616 1.384 . S
C4618 C4619 1.372 . S
C4619 C4618 1.372 . S
C4619 C4620 1.400 . S
C4619 C4624 1.490 . S
C4620 H4610 0.930 . S
C4620 C4619 1.400 . S
C4620 C4623 1.386 . S
H4621 C4637 0.930 . S
H4622 C4638 0.931 . S
C4623 H4611 0.929 . S
C4623 C4617 1.390 . S
C4623 C4620 1.386 . S
C4624 C4619 1.490 . S
C4624 C4626 1.395 . S
C4624 C4627 1.403 . S
H4625 C4631 0.930 . S
C4626 H4612 0.930 . S
C4626 C4624 1.395 . S
C4626 C4629 1.403 . S
C4627 C4624 1.403 . S
C4627 C4628 1.524 . S
C4627 C4631 1.400 . S
C4628 H4613 0.960 . S
C4628 H4614 0.960 . S
C4628 H4615 0.960 . S
C4628 C4627 1.524 . S
C4629 C4626 1.403 . S
C4629 C4630 1.392 . S
C4629 C4633 1.495 . S
C4630 C4629 1.392 . S
C4630 C4631 1.385 . S
C4630 C4632 1.478 . S
C4631 H4625 0.930 . S
C4631 C4627 1.400 . S
C4631 C4630 1.385 . S
C4632 C4630 1.478 . S
C4632 C4634 1.381 . S
C4632 C4638 1.383 . S
C4633 C4629 1.495 . S
C4633 H4639 0.959 . S
C4633 H4640 0.961 . S
C4633 H4641 0.960 . S
C4634 C4632 1.381 . S
C4634 C4635 1.394 . S
C4634 H4642 0.930 . S
C4635 C4634 1.394 . S
C4635 C4636 1.383 . S
C4635 H4643 0.929 . S
C4636 C4635 1.383 . S
C4636 C4637 1.377 . S
C4637 H4621 0.930 . S
C4637 C4636 1.377 . S
C4637 C4638 1.379 . S
C4638 H4622 0.931 . S
C4638 C4632 1.383 . S
C4638 C4637 1.379 . S
H4639 C4633 0.959 . S
H4640 C4633 0.961 . S
H4641 C4633 0.960 . S
H4642 C4634 0.930 . S
H4643 C4635 0.929 . S
H4644 C4652 0.929 . S
H4645 C4654 0.930 . S
H4646 C4656 0.930 . S
H4647 C4659 0.929 . S
H4648 C4662 0.930 . S
H4649 C4664 0.960 . S
H4650 C4664 0.960 . S
H4651 C4664 0.960 . S
C4652 H4644 0.929 . S
C4652 C4653 1.377 . S
C4652 C4654 1.384 . S
C4653 C4652 1.377 . S
C4653 C4659 1.390 . S
C4654 H4645 0.930 . S
C4654 C4652 1.384 . S
C4654 C4655 1.372 . S
C4655 C4654 1.372 . S
C4655 C4656 1.400 . S
C4655 C4660 1.490 . S
C4656 H4646 0.930 . S
C4656 C4655 1.400 . S
C4656 C4659 1.386 . S
H4657 C4673 0.930 . S
H4658 C4674 0.931 . S
C4659 H4647 0.929 . S
C4659 C4653 1.390 . S
C4659 C4656 1.386 . S
C4660 C4655 1.490 . S
C4660 C4662 1.395 . S
C4660 C4663 1.403 . S
H4661 C4667 0.930 . S
C4662 H4648 0.930 . S
C4662 C4660 1.395 . S
C4662 C4665 1.403 . S
C4663 C4660 1.403 . S
C4663 C4664 1.524 . S
C4663 C4667 1.400 . S
C4664 H4649 0.960 . S
C4664 H4650 0.960 . S
C4664 H4651 0.960 . S
C4664 C4663 1.524 . S
C4665 C4662 1.403 . S
C4665 C4666 1.392 . S
C4665 C4669 1.495 . S
C4666 C4665 1.392 . S
C4666 C4667 1.385 . S
C4666 C4668 1.478 . S
C4667 H4661 0.930 . S
C4667 C4663 1.400 . S
C4667 C4666 1.385 . S
C4668 C4666 1.478 . S
C4668 C4670 1.381 . S
C4668 C4674 1.383 . S
C4669 C4665 1.495 . S
C4669 H4675 0.959 . S
C4669 H4676 0.961 . S
C4669 H4677 0.960 . S
C4670 C4668 1.381 . S
C4670 C4671 1.394 . S
C4670 H4678 0.930 . S
C4671 C4670 1.394 . S
C4671 C4672 1.383 . S
C4671 H4679 0.929 . S
C4672 C4671 1.383 . S
C4672 C4673 1.377 . S
C4673 H4657 0.930 . S
C4673 C4672 1.377 . S
C4673 C4674 1.379 . S
C4674 H4658 0.931 . S
C4674 C4668 1.383 . S
C4674 C4673 1.379 . S
H4675 C4669 0.959 . S
H4676 C4669 0.961 . S
H4677 C4669 0.960 . S
H4678 C4670 0.930 . S
H4679 C4671 0.929 . S
H4680 C4688 0.929 . S
H4681 C4690 0.930 . S
H4682 C4692 0.930 . S
H4683 C4695 0.929 . S
H4684 C4698 0.930 . S
H4685 C4700 0.960 . S
H4686 C4700 0.960 . S
H4687 C4700 0.960 . S
C4688 H4680 0.929 . S
C4688 C4689 1.377 . S
C4688 C4690 1.384 . S
C4689 C4688 1.377 . S
C4689 C4695 1.390 . S
C4690 H4681 0.930 . S
C4690 C4688 1.384 . S
C4690 C4691 1.372 . S
C4691 C4690 1.372 . S
C4691 C4692 1.400 . S
C4691 C4696 1.490 . S
C4692 H4682 0.930 . S
C4692 C4691 1.400 . S
C4692 C4695 1.386 . S
H4693 C4709 0.930 . S
H4694 C4710 0.931 . S
C4695 H4683 0.929 . S
C4695 C4689 1.390 . S
C4695 C4692 1.386 . S
C4696 C4691 1.490 . S
C4696 C4698 1.395 . S
C4696 C4699 1.403 . S
H4697 C4703 0.930 . S
C4698 H4684 0.930 . S
C4698 C4696 1.395 . S
C4698 C4701 1.403 . S
C4699 C4696 1.403 . S
C4699 C4700 1.524 . S
C4699 C4703 1.400 . S
C4700 H4685 0.960 . S
C4700 H4686 0.960 . S
C4700 H4687 0.960 . S
C4700 C4699 1.524 . S
C4701 C4698 1.403 . S
C4701 C4702 1.392 . S
C4701 C4705 1.495 . S
C4702 C4701 1.392 . S
C4702 C4703 1.385 . S
C4702 C4704 1.478 . S
C4703 H4697 0.930 . S
C4703 C4699 1.400 . S
C4703 C4702 1.385 . S
C4704 C4702 1.478 . S
C4704 C4706 1.381 . S
C4704 C4710 1.383 . S
C4705 C4701 1.495 . S
C4705 H4711 0.959 . S
C4705 H4712 0.961 . S
C4705 H4713 0.960 . S
C4706 C4704 1.381 . S
C4706 C4707 1.394 . S
C4706 H4714 0.930 . S
C4707 C4706 1.394 . S
C4707 C4708 1.383 . S
C4707 H4715 0.929 . S
C4708 C4707 1.383 . S
C4708 C4709 1.377 . S
C4709 H4693 0.930 . S
C4709 C4708 1.377 . S
C4709 C4710 1.379 . S
C4710 H4694 0.931 . S
C4710 C4704 1.383 . S
C4710 C4709 1.379 . S
H4711 C4705 0.959 . S
H4712 C4705 0.961 . S
H4713 C4705 0.960 . S
H4714 C4706 0.930 . S
H4715 C4707 0.929 . S
H4716 C4724 0.929 . S
H4717 C4726 0.930 . S
H4718 C4728 0.930 . S
H4719 C4731 0.929 . S
H4720 C4734 0.930 . S
H4721 C4736 0.960 . S
H4722 C4736 0.960 . S
H4723 C4736 0.960 . S
C4724 H4716 0.929 . S
C4724 C4725 1.377 . S
C4724 C4726 1.384 . S
C4725 C4724 1.377 . S
C4725 C4731 1.390 . S
C4726 H4717 0.930 . S
C4726 C4724 1.384 . S
C4726 C4727 1.372 . S
C4727 C4726 1.372 . S
C4727 C4728 1.400 . S
C4727 C4732 1.490 . S
C4728 H4718 0.930 . S
C4728 C4727 1.400 . S
C4728 C4731 1.386 . S
H4729 C4745 0.930 . S
H4730 C4746 0.931 . S
C4731 H4719 0.929 . S
C4731 C4725 1.390 . S
C4731 C4728 1.386 . S
C4732 C4727 1.490 . S
C4732 C4734 1.395 . S
C4732 C4735 1.403 . S
H4733 C4739 0.930 . S
C4734 H4720 0.930 . S
C4734 C4732 1.395 . S
C4734 C4737 1.403 . S
C4735 C4732 1.403 . S
C4735 C4736 1.524 . S
C4735 C4739 1.400 . S
C4736 H4721 0.960 . S
C4736 H4722 0.960 . S
C4736 H4723 0.960 . S
C4736 C4735 1.524 . S
C4737 C4734 1.403 . S
C4737 C4738 1.392 . S
C4737 C4741 1.495 . S
C4738 C4737 1.392 . S
C4738 C4739 1.385 . S
C4738 C4740 1.478 . S
C4739 H4733 0.930 . S
C4739 C4735 1.400 . S
C4739 C4738 1.385 . S
C4740 C4738 1.478 . S
C4740 C4742 1.381 . S
C4740 C4746 1.383 . S
C4741 C4737 1.495 . S
C4741 H4747 0.959 . S
C4741 H4748 0.961 . S
C4741 H4749 0.960 . S
C4742 C4740 1.381 . S
C4742 C4743 1.394 . S
C4742 H4750 0.930 . S
C4743 C4742 1.394 . S
C4743 C4744 1.383 . S
C4743 H4751 0.929 . S
C4744 C4743 1.383 . S
C4744 C4745 1.377 . S
C4745 H4729 0.930 . S
C4745 C4744 1.377 . S
C4745 C4746 1.379 . S
C4746 H4730 0.931 . S
C4746 C4740 1.383 . S
C4746 C4745 1.379 . S
H4747 C4741 0.959 . S
H4748 C4741 0.961 . S
H4749 C4741 0.960 . S
H4750 C4742 0.930 . S
H4751 C4743 0.929 . S
H4752 C4760 0.929 . S
H4753 C4762 0.930 . S
H4754 C4764 0.930 . S
H4755 C4767 0.929 . S
H4756 C4770 0.930 . S
H4757 C4772 0.960 . S
H4758 C4772 0.960 . S
H4759 C4772 0.960 . S
C4760 H4752 0.929 . S
C4760 C4761 1.377 . S
C4760 C4762 1.384 . S
C4761 C4760 1.377 . S
C4761 C4767 1.390 . S
C4762 H4753 0.930 . S
C4762 C4760 1.384 . S
C4762 C4763 1.372 . S
C4763 C4762 1.372 . S
C4763 C4764 1.400 . S
C4763 C4768 1.490 . S
C4764 H4754 0.930 . S
C4764 C4763 1.400 . S
C4764 C4767 1.386 . S
H4765 C4781 0.930 . S
H4766 C4782 0.931 . S
C4767 H4755 0.929 . S
C4767 C4761 1.390 . S
C4767 C4764 1.386 . S
C4768 C4763 1.490 . S
C4768 C4770 1.395 . S
C4768 C4771 1.403 . S
H4769 C4775 0.930 . S
C4770 H4756 0.930 . S
C4770 C4768 1.395 . S
C4770 C4773 1.403 . S
C4771 C4768 1.403 . S
C4771 C4772 1.524 . S
C4771 C4775 1.400 . S
C4772 H4757 0.960 . S
C4772 H4758 0.960 . S
C4772 H4759 0.960 . S
C4772 C4771 1.524 . S
C4773 C4770 1.403 . S
C4773 C4774 1.392 . S
C4773 C4777 1.495 . S
C4774 C4773 1.392 . S
C4774 C4775 1.385 . S
C4774 C4776 1.478 . S
C4775 H4769 0.930 . S
C4775 C4771 1.400 . S
C4775 C4774 1.385 . S
C4776 C4774 1.478 . S
C4776 C4778 1.381 . S
C4776 C4782 1.383 . S
C4777 C4773 1.495 . S
C4777 H4783 0.959 . S
C4777 H4784 0.961 . S
C4777 H4785 0.960 . S
C4778 C4776 1.381 . S
C4778 C4779 1.394 . S
C4778 H4786 0.930 . S
C4779 C4778 1.394 . S
C4779 C4780 1.383 . S
C4779 H4787 0.929 . S
C4780 C4779 1.383 . S
C4780 C4781 1.377 . S
C4781 H4765 0.930 . S
C4781 C4780 1.377 . S
C4781 C4782 1.379 . S
C4782 H4766 0.931 . S
C4782 C4776 1.383 . S
C4782 C4781 1.379 . S
H4783 C4777 0.959 . S
H4784 C4777 0.961 . S
H4785 C4777 0.960 . S
H4786 C4778 0.930 . S
H4787 C4779 0.929 . S
H4788 C4796 0.929 . S
H4789 C4798 0.930 . S
H4790 C4800 0.930 . S
H4791 C4803 0.929 . S
H4792 C4806 0.930 . S
H4793 C4808 0.960 . S
H4794 C4808 0.960 . S
H4795 C4808 0.960 . S
C4796 H4788 0.929 . S
C4796 C4797 1.377 . S
C4796 C4798 1.384 . S
C4797 C4796 1.377 . S
C4797 C4803 1.390 . S
C4798 H4789 0.930 . S
C4798 C4796 1.384 . S
C4798 C4799 1.372 . S
C4799 C4798 1.372 . S
C4799 C4800 1.400 . S
C4799 C4804 1.490 . S
C4800 H4790 0.930 . S
C4800 C4799 1.400 . S
C4800 C4803 1.386 . S
H4801 C4817 0.930 . S
H4802 C4818 0.931 . S
C4803 H4791 0.929 . S
C4803 C4797 1.390 . S
C4803 C4800 1.386 . S
C4804 C4799 1.490 . S
C4804 C4806 1.395 . S
C4804 C4807 1.403 . S
H4805 C4811 0.930 . S
C4806 H4792 0.930 . S
C4806 C4804 1.395 . S
C4806 C4809 1.403 . S
C4807 C4804 1.403 . S
C4807 C4808 1.524 . S
C4807 C4811 1.400 . S
C4808 H4793 0.960 . S
C4808 H4794 0.960 . S
C4808 H4795 0.960 . S
C4808 C4807 1.524 . S
C4809 C4806 1.403 . S
C4809 C4810 1.392 . S
C4809 C4813 1.495 . S
C4810 C4809 1.392 . S
C4810 C4811 1.385 . S
C4810 C4812 1.478 . S
C4811 H4805 0.930 . S
C4811 C4807 1.400 . S
C4811 C4810 1.385 . S
C4812 C4810 1.478 . S
C4812 C4814 1.381 . S
C4812 C4818 1.383 . S
C4813 C4809 1.495 . S
C4813 H4819 0.959 . S
C4813 H4820 0.961 . S
C4813 H4821 0.960 . S
C4814 C4812 1.381 . S
C4814 C4815 1.394 . S
C4814 H4822 0.930 . S
C4815 C4814 1.394 . S
C4815 C4816 1.383 . S
C4815 H4823 0.929 . S
C4816 C4815 1.383 . S
C4816 C4817 1.377 . S
C4817 H4801 0.930 . S
C4817 C4816 1.377 . S
C4817 C4818 1.379 . S
C4818 H4802 0.931 . S
C4818 C4812 1.383 . S
C4818 C4817 1.379 . S
H4819 C4813 0.959 . S
H4820 C4813 0.961 . S
H4821 C4813 0.960 . S
H4822 C4814 0.930 . S
H4823 C4815 0.929 . S
H4824 C4832 0.929 . S
H4825 C4834 0.930 . S
H4826 C4836 0.930 . S
H4827 C4839 0.929 . S
H4828 C4842 0.930 . S
H4829 C4844 0.960 . S
H4830 C4844 0.960 . S
H4831 C4844 0.960 . S
C4832 H4824 0.929 . S
C4832 C4833 1.377 . S
C4832 C4834 1.384 . S
C4833 C4832 1.377 . S
C4833 C4839 1.390 . S
C4834 H4825 0.930 . S
C4834 C4832 1.384 . S
C4834 C4835 1.372 . S
C4835 C4834 1.372 . S
C4835 C4836 1.400 . S
C4835 C4840 1.490 . S
C4836 H4826 0.930 . S
C4836 C4835 1.400 . S
C4836 C4839 1.386 . S
H4837 C4853 0.930 . S
H4838 C4854 0.931 . S
C4839 H4827 0.929 . S
C4839 C4833 1.390 . S
C4839 C4836 1.386 . S
C4840 C4835 1.490 . S
C4840 C4842 1.395 . S
C4840 C4843 1.403 . S
H4841 C4847 0.930 . S
C4842 H4828 0.930 . S
C4842 C4840 1.395 . S
C4842 C4845 1.403 . S
C4843 C4840 1.403 . S
C4843 C4844 1.524 . S
C4843 C4847 1.400 . S
C4844 H4829 0.960 . S
C4844 H4830 0.960 . S
C4844 H4831 0.960 . S
C4844 C4843 1.524 . S
C4845 C4842 1.403 . S
C4845 C4846 1.392 . S
C4845 C4849 1.495 . S
C4846 C4845 1.392 . S
C4846 C4847 1.385 . S
C4846 C4848 1.478 . S
C4847 H4841 0.930 . S
C4847 C4843 1.400 . S
C4847 C4846 1.385 . S
C4848 C4846 1.478 . S
C4848 C4850 1.381 . S
C4848 C4854 1.383 . S
C4849 C4845 1.495 . S
C4849 H4855 0.959 . S
C4849 H4856 0.961 . S
C4849 H4857 0.960 . S
C4850 C4848 1.381 . S
C4850 C4851 1.394 . S
C4850 H4858 0.930 . S
C4851 C4850 1.394 . S
C4851 C4852 1.383 . S
C4851 H4859 0.929 . S
C4852 C4851 1.383 . S
C4852 C4853 1.377 . S
C4853 H4837 0.930 . S
C4853 C4852 1.377 . S
C4853 C4854 1.379 . S
C4854 H4838 0.931 . S
C4854 C4848 1.383 . S
C4854 C4853 1.379 . S
H4855 C4849 0.959 . S
H4856 C4849 0.961 . S
H4857 C4849 0.960 . S
H4858 C4850 0.930 . S
H4859 C4851 0.929 . S
H4860 C4868 0.929 . S
H4861 C4870 0.930 . S
H4862 C4872 0.930 . S
H4863 C4875 0.929 . S
H4864 C4878 0.930 . S
H4865 C4880 0.960 . S
H4866 C4880 0.960 . S
H4867 C4880 0.960 . S
C4868 H4860 0.929 . S
C4868 C4869 1.377 . S
C4868 C4870 1.384 . S
C4869 C4868 1.377 . S
C4869 C4875 1.390 . S
C4870 H4861 0.930 . S
C4870 C4868 1.384 . S
C4870 C4871 1.372 . S
C4871 C4870 1.372 . S
C4871 C4872 1.400 . S
C4871 C4876 1.490 . S
C4872 H4862 0.930 . S
C4872 C4871 1.400 . S
C4872 C4875 1.386 . S
H4873 C4889 0.930 . S
H4874 C4890 0.931 . S
C4875 H4863 0.929 . S
C4875 C4869 1.390 . S
C4875 C4872 1.386 . S
C4876 C4871 1.490 . S
C4876 C4878 1.395 . S
C4876 C4879 1.403 . S
H4877 C4883 0.930 . S
C4878 H4864 0.930 . S
C4878 C4876 1.395 . S
C4878 C4881 1.403 . S
C4879 C4876 1.403 . S
C4879 C4880 1.524 . S
C4879 C4883 1.400 . S
C4880 H4865 0.960 . S
C4880 H4866 0.960 . S
C4880 H4867 0.960 . S
C4880 C4879 1.524 . S
C4881 C4878 1.403 . S
C4881 C4882 1.392 . S
C4881 C4885 1.495 . S
C4882 C4881 1.392 . S
C4882 C4883 1.385 . S
C4882 C4884 1.478 . S
C4883 H4877 0.930 . S
C4883 C4879 1.400 . S
C4883 C4882 1.385 . S
C4884 C4882 1.478 . S
C4884 C4886 1.381 . S
C4884 C4890 1.383 . S
C4885 C4881 1.495 . S
C4885 H4891 0.959 . S
C4885 H4892 0.961 . S
C4885 H4893 0.960 . S
C4886 C4884 1.381 . S
C4886 C4887 1.394 . S
C4886 H4894 0.930 . S
C4887 C4886 1.394 . S
C4887 C4888 1.383 . S
C4887 H4895 0.929 . S
C4888 C4887 1.383 . S
C4888 C4889 1.377 . S
C4889 H4873 0.930 . S
C4889 C4888 1.377 . S
C4889 C4890 1.379 . S
C4890 H4874 0.931 . S
C4890 C4884 1.383 . S
C4890 C4889 1.379 . S
H4891 C4885 0.959 . S
H4892 C4885 0.961 . S
H4893 C4885 0.960 . S
H4894 C4886 0.930 . S
H4895 C4887 0.929 . S
H4896 C4904 0.929 . S
H4897 C4906 0.930 . S
H4898 C4908 0.930 . S
H4899 C4911 0.929 . S
H4900 C4914 0.930 . S
H4901 C4916 0.967 1_554 S
H4902 C4916 0.960 . S
H4903 C4916 0.960 . S
C4904 H4896 0.929 . S
C4904 C4905 1.377 . S
C4904 C4906 1.384 . S
C4905 C4904 1.377 . S
C4905 C4911 1.390 . S
C4906 H4897 0.930 . S
C4906 C4904 1.384 . S
C4906 C4907 1.372 . S
C4907 C4906 1.372 . S
C4907 C4908 1.400 . S
C4907 C4912 1.490 . S
C4908 H4898 0.930 . S
C4908 C4907 1.400 . S
C4908 C4911 1.386 . S
H4909 C4925 0.930 . S
H4910 C4926 0.931 . S
C4911 H4899 0.929 . S
C4911 C4905 1.390 . S
C4911 C4908 1.386 . S
C4912 C4907 1.490 . S
C4912 C4914 1.395 . S
C4912 C4915 1.403 . S
H4913 C4919 0.984 . S
C4914 H4900 0.930 . S
C4914 C4912 1.395 . S
C4914 C4917 1.403 . S
C4915 C4912 1.403 . S
C4915 C4916 1.524 . S
C4915 C4919 1.351 1_556 S
C4916 H4901 0.967 1_556 S
C4916 H4902 0.960 . S
C4916 H4903 0.960 . S
C4916 C4915 1.524 . S
C4917 C4914 1.403 . S
C4917 C4918 1.384 1_556 S
C4917 C4921 1.495 . S
C4918 C4917 1.384 1_554 S
C4918 C4919 1.384 . S
C4918 C4920 1.486 . S
C4919 H4913 0.984 . S
C4919 C4915 1.351 1_554 S
C4919 C4918 1.384 . S
C4920 C4918 1.486 . S
C4920 C4922 1.381 . S
C4920 C4926 1.383 . S
C4921 C4917 1.495 . S
C4921 H4927 0.959 . S
C4921 H4928 0.961 . S
C4921 H4929 0.960 . S
C4922 C4920 1.381 . S
C4922 C4923 1.394 . S
C4922 H4930 0.930 . S
C4923 C4922 1.394 . S
C4923 C4924 1.383 . S
C4923 H4931 0.929 . S
C4924 C4923 1.383 . S
C4924 C4925 1.377 . S
C4925 H4909 0.930 . S
C4925 C4924 1.377 . S
C4925 C4926 1.379 . S
C4926 H4910 0.931 . S
C4926 C4920 1.383 . S
C4926 C4925 1.379 . S
H4927 C4921 0.959 . S
H4928 C4921 0.961 . S
H4929 C4921 0.960 . S
H4930 C4922 0.930 . S
H4931 C4923 0.929 . S
H4932 C4940 0.929 . S
H4933 C4942 0.930 . S
H4934 C4944 0.930 . S
H4935 C4947 0.929 . S
H4936 C4950 0.930 . S
H4937 C4952 0.960 . S
H4938 C4952 0.960 . S
H4939 C4952 0.960 . S
C4940 H4932 0.929 . S
C4940 C4941 1.377 . S
C4940 C4942 1.384 . S
C4941 C4940 1.377 . S
C4941 C4947 1.390 . S
C4942 H4933 0.930 . S
C4942 C4940 1.384 . S
C4942 C4943 1.372 . S
C4943 C4942 1.372 . S
C4943 C4944 1.400 . S
C4943 C4948 1.490 . S
C4944 H4934 0.930 . S
C4944 C4943 1.400 . S
C4944 C4947 1.386 . S
H4945 C4961 0.930 . S
H4946 C4962 0.931 . S
C4947 H4935 0.929 . S
C4947 C4941 1.390 . S
C4947 C4944 1.386 . S
C4948 C4943 1.490 . S
C4948 C4950 1.395 . S
C4948 C4951 1.403 . S
H4949 C4955 0.930 . S
C4950 H4936 0.930 . S
C4950 C4948 1.395 . S
C4950 C4953 1.403 . S
C4951 C4948 1.403 . S
C4951 C4952 1.524 . S
C4951 C4955 1.400 . S
C4952 H4937 0.960 . S
C4952 H4938 0.960 . S
C4952 H4939 0.960 . S
C4952 C4951 1.524 . S
C4953 C4950 1.403 . S
C4953 C4954 1.392 . S
C4953 C4957 1.495 . S
C4954 C4953 1.392 . S
C4954 C4955 1.385 . S
C4954 C4956 1.478 . S
C4955 H4949 0.930 . S
C4955 C4951 1.400 . S
C4955 C4954 1.385 . S
C4956 C4954 1.478 . S
C4956 C4958 1.381 . S
C4956 C4962 1.383 . S
C4957 C4953 1.495 . S
C4957 H4963 0.959 . S
C4957 H4964 0.961 . S
C4957 H4965 0.960 . S
C4958 C4956 1.381 . S
C4958 C4959 1.394 . S
C4958 H4966 0.930 . S
C4959 C4958 1.394 . S
C4959 C4960 1.383 . S
C4959 H4967 0.929 . S
C4960 C4959 1.383 . S
C4960 C4961 1.377 . S
C4961 H4945 0.930 . S
C4961 C4960 1.377 . S
C4961 C4962 1.379 . S
C4962 H4946 0.931 . S
C4962 C4956 1.383 . S
C4962 C4961 1.379 . S
H4963 C4957 0.959 . S
H4964 C4957 0.961 . S
H4965 C4957 0.960 . S
H4966 C4958 0.930 . S
H4967 C4959 0.929 . S
H4968 C4976 0.929 . S
H4969 C4978 0.930 . S
H4970 C4980 0.930 . S
H4971 C4983 0.929 . S
H4972 C4986 0.930 . S
H4973 C4988 1.013 . S
H4974 C4988 0.960 . S
H4975 C4988 0.960 . S
C4976 H4968 0.929 . S
C4976 C4977 1.377 . S
C4976 C4978 1.384 . S
C4977 C4976 1.377 . S
C4977 C4983 1.390 . S
C4978 H4969 0.930 . S
C4978 C4976 1.384 . S
C4978 C4979 1.372 . S
C4979 C4978 1.372 . S
C4979 C4980 1.400 . S
C4979 C4984 1.490 . S
C4980 H4970 0.930 . S
C4980 C4979 1.400 . S
C4980 C4983 1.386 . S
H4981 C4997 0.930 . S
H4982 C4998 0.931 . S
C4983 H4971 0.929 . S
C4983 C4977 1.390 . S
C4983 C4980 1.386 . S
C4984 C4979 1.490 . S
C4984 C4986 1.395 . S
C4984 C4987 1.403 . S
H4985 C4991 0.967 . S
C4986 H4972 0.930 . S
C4986 C4984 1.395 . S
C4986 C4989 1.403 . S
C4987 C4984 1.403 . S
C4987 C4988 1.524 . S
C4987 C4991 1.365 1_554 S
C4988 H4973 1.013 . S
C4988 H4974 0.960 . S
C4988 H4975 0.960 . S
C4988 C4987 1.524 . S
C4989 C4986 1.403 . S
C4989 C4990 1.360 1_554 S
C4989 C4993 1.495 . S
C4990 C4989 1.360 1_556 S
C4990 C4991 1.385 . S
C4990 C4992 1.511 . S
C4991 H4985 0.967 . S
C4991 C4987 1.365 1_556 S
C4991 C4990 1.385 . S
C4992 C4990 1.511 . S
C4992 C4994 1.381 . S
C4992 C4998 1.383 . S
C4993 C4989 1.495 . S
C4993 H4999 0.959 . S
C4993 H5000 0.961 . S
C4993 H5001 0.960 . S
C4994 C4992 1.381 . S
C4994 C4995 1.394 . S
C4994 H5002 0.930 . S
C4995 C4994 1.394 . S
C4995 C4996 1.383 . S
C4995 H5003 0.929 . S
C4996 C4995 1.383 . S
C4996 C4997 1.377 . S
C4997 H4981 0.930 . S
C4997 C4996 1.377 . S
C4997 C4998 1.379 . S
C4998 H4982 0.931 . S
C4998 C4992 1.383 . S
C4998 C4997 1.379 . S
H4999 C4993 0.959 . S
H5000 C4993 0.961 . S
H5001 C4993 0.960 . S
H5002 C4994 0.930 . S
H5003 C4995 0.929 . S
H5004 C5012 0.929 . S
H5005 C5014 0.930 . S
H5006 C5016 0.930 . S
H5007 C5019 0.929 . S
H5008 C5022 0.930 . S
H5009 C5024 0.960 . S
H5010 C5024 0.960 . S
H5011 C5024 0.960 . S
C5012 H5004 0.929 . S
C5012 C5013 1.377 . S
C5012 C5014 1.384 . S
C5013 C5012 1.377 . S
C5013 C5019 1.390 . S
C5014 H5005 0.930 . S
C5014 C5012 1.384 . S
C5014 C5015 1.372 . S
C5015 C5014 1.372 . S
C5015 C5016 1.400 . S
C5015 C5020 1.490 . S
C5016 H5006 0.930 . S
C5016 C5015 1.400 . S
C5016 C5019 1.386 . S
H5017 C5033 0.930 . S
H5018 C5034 0.931 . S
C5019 H5007 0.929 . S
C5019 C5013 1.390 . S
C5019 C5016 1.386 . S
C5020 C5015 1.490 . S
C5020 C5022 1.395 . S
C5020 C5023 1.403 1_556 S
H5021 C5027 0.930 . S
C5022 H5008 0.930 . S
C5022 C5020 1.395 . S
C5022 C5025 1.403 1_556 S
C5023 C5020 1.403 1_554 S
C5023 C5024 1.524 . S
C5023 C5027 1.400 . S
C5024 H5009 0.960 . S
C5024 H5010 0.960 . S
C5024 H5011 0.960 . S
C5024 C5023 1.524 . S
C5025 C5022 1.403 1_554 S
C5025 C5026 1.392 . S
C5025 C5029 1.495 . S
C5026 C5025 1.392 . S
C5026 C5027 1.385 . S
C5026 C5028 1.478 . S
C5027 H5021 0.930 . S
C5027 C5023 1.400 . S
C5027 C5026 1.385 . S
C5028 C5026 1.478 . S
C5028 C5030 1.381 . S
C5028 C5034 1.383 . S
C5029 C5025 1.495 . S
C5029 H5035 0.959 . S
C5029 H5036 0.961 . S
C5029 H5037 0.960 . S
C5030 C5028 1.381 . S
C5030 C5031 1.394 . S
C5030 H5038 0.930 . S
C5031 C5030 1.394 . S
C5031 C5032 1.383 . S
C5031 H5039 0.929 . S
C5032 C5031 1.383 . S
C5032 C5033 1.377 . S
C5033 H5017 0.930 . S
C5033 C5032 1.377 . S
C5033 C5034 1.379 . S
C5034 H5018 0.931 . S
C5034 C5028 1.383 . S
C5034 C5033 1.379 . S
H5035 C5029 0.959 . S
H5036 C5029 0.961 . S
H5037 C5029 0.960 . S
H5038 C5030 0.930 . S
H5039 C5031 0.929 . S
H5040 C5048 0.929 . S
H5041 C5050 0.930 . S
H5042 C5052 0.930 . S
H5043 C5055 0.929 . S
H5044 C5058 0.930 . S
H5045 C5060 0.960 . S
H5046 C5060 0.960 . S
H5047 C5060 0.960 . S
C5048 H5040 0.929 . S
C5048 C5049 1.377 . S
C5048 C5050 1.384 . S
C5049 C5048 1.377 . S
C5049 C5055 1.390 . S
C5050 H5041 0.930 . S
C5050 C5048 1.384 . S
C5050 C5051 1.372 . S
C5051 C5050 1.372 . S
C5051 C5052 1.400 . S
C5051 C5056 1.490 . S
C5052 H5042 0.930 . S
C5052 C5051 1.400 . S
C5052 C5055 1.386 . S
H5053 C5069 0.930 . S
H5054 C5070 0.931 . S
C5055 H5043 0.929 . S
C5055 C5049 1.390 . S
C5055 C5052 1.386 . S
C5056 C5051 1.490 . S
C5056 C5058 1.395 . S
C5056 C5059 1.403 . S
H5057 C5063 0.930 . S
C5058 H5044 0.930 . S
C5058 C5056 1.395 . S
C5058 C5061 1.403 . S
C5059 C5056 1.403 . S
C5059 C5060 1.524 . S
C5059 C5063 1.400 . S
C5060 H5045 0.960 . S
C5060 H5046 0.960 . S
C5060 H5047 0.960 . S
C5060 C5059 1.524 . S
C5061 C5058 1.403 . S
C5061 C5062 1.392 . S
C5061 C5065 1.495 . S
C5062 C5061 1.392 . S
C5062 C5063 1.385 . S
C5062 C5064 1.478 . S
C5063 H5057 0.930 . S
C5063 C5059 1.400 . S
C5063 C5062 1.385 . S
C5064 C5062 1.478 . S
C5064 C5066 1.381 . S
C5064 C5070 1.383 . S
C5065 C5061 1.495 . S
C5065 H5071 0.959 . S
C5065 H5072 0.961 . S
C5065 H5073 0.960 . S
C5066 C5064 1.381 . S
C5066 C5067 1.394 . S
C5066 H5074 0.930 . S
C5067 C5066 1.394 . S
C5067 C5068 1.383 . S
C5067 H5075 0.929 . S
C5068 C5067 1.383 . S
C5068 C5069 1.377 . S
C5069 H5053 0.930 . S
C5069 C5068 1.377 . S
C5069 C5070 1.379 . S
C5070 H5054 0.931 . S
C5070 C5064 1.383 . S
C5070 C5069 1.379 . S
H5071 C5065 0.959 . S
H5072 C5065 0.961 . S
H5073 C5065 0.960 . S
H5074 C5066 0.930 . S
H5075 C5067 0.929 . S
H5076 C5084 0.929 . S
H5077 C5086 0.930 . S
H5078 C5088 0.930 . S
H5079 C5091 0.929 . S
H5080 C5094 0.930 . S
H5081 C5096 0.960 . S
H5082 C5096 0.960 . S
H5083 C5096 0.960 . S
C5084 H5076 0.929 . S
C5084 C5085 1.377 . S
C5084 C5086 1.384 . S
C5085 C5084 1.377 . S
C5085 C5091 1.390 . S
C5086 H5077 0.930 . S
C5086 C5084 1.384 . S
C5086 C5087 1.372 . S
C5087 C5086 1.372 . S
C5087 C5088 1.400 . S
C5087 C5092 1.490 . S
C5088 H5078 0.930 . S
C5088 C5087 1.400 . S
C5088 C5091 1.386 . S
H5089 C5105 0.930 . S
H5090 C5106 0.931 . S
C5091 H5079 0.929 . S
C5091 C5085 1.390 . S
C5091 C5088 1.386 . S
C5092 C5087 1.490 . S
C5092 C5094 1.395 . S
C5092 C5095 1.403 . S
H5093 C5099 0.930 . S
C5094 H5080 0.930 . S
C5094 C5092 1.395 . S
C5094 C5097 1.403 . S
C5095 C5092 1.403 . S
C5095 C5096 1.524 . S
C5095 C5099 1.400 . S
C5096 H5081 0.960 . S
C5096 H5082 0.960 . S
C5096 H5083 0.960 . S
C5096 C5095 1.524 . S
C5097 C5094 1.403 . S
C5097 C5098 1.392 . S
C5097 C5101 1.495 . S
C5098 C5097 1.392 . S
C5098 C5099 1.385 . S
C5098 C5100 1.478 . S
C5099 H5093 0.930 . S
C5099 C5095 1.400 . S
C5099 C5098 1.385 . S
C5100 C5098 1.478 . S
C5100 C5102 1.381 . S
C5100 C5106 1.383 . S
C5101 C5097 1.495 . S
C5101 H5107 0.959 . S
C5101 H5108 0.961 . S
C5101 H5109 0.960 . S
C5102 C5100 1.381 . S
C5102 C5103 1.394 . S
C5102 H5110 0.930 . S
C5103 C5102 1.394 . S
C5103 C5104 1.383 . S
C5103 H5111 0.929 . S
C5104 C5103 1.383 . S
C5104 C5105 1.377 . S
C5105 H5089 0.930 . S
C5105 C5104 1.377 . S
C5105 C5106 1.379 . S
C5106 H5090 0.931 . S
C5106 C5100 1.383 . S
C5106 C5105 1.379 . S
H5107 C5101 0.959 . S
H5108 C5101 0.961 . S
H5109 C5101 0.960 . S
H5110 C5102 0.930 . S
H5111 C5103 0.929 . S
H5112 C5120 0.929 . S
H5113 C5122 0.930 . S
H5114 C5124 0.930 . S
H5115 C5127 0.929 . S
H5116 C5130 0.930 . S
H5117 C5132 0.960 . S
H5118 C5132 0.960 . S
H5119 C5132 0.960 . S
C5120 H5112 0.929 . S
C5120 C5121 1.377 . S
C5120 C5122 1.384 . S
C5121 C5120 1.377 . S
C5121 C5127 1.390 . S
C5122 H5113 0.930 . S
C5122 C5120 1.384 . S
C5122 C5123 1.372 . S
C5123 C5122 1.372 . S
C5123 C5124 1.400 . S
C5123 C5128 1.490 . S
C5124 H5114 0.930 . S
C5124 C5123 1.400 . S
C5124 C5127 1.386 . S
H5125 C5141 0.930 . S
H5126 C5142 0.931 . S
C5127 H5115 0.929 . S
C5127 C5121 1.390 . S
C5127 C5124 1.386 . S
C5128 C5123 1.490 . S
C5128 C5130 1.395 . S
C5128 C5131 1.403 . S
H5129 C5135 0.930 . S
C5130 H5116 0.930 . S
C5130 C5128 1.395 . S
C5130 C5133 1.403 . S
C5131 C5128 1.403 . S
C5131 C5132 1.524 . S
C5131 C5135 1.400 . S
C5132 H5117 0.960 . S
C5132 H5118 0.960 . S
C5132 H5119 0.960 . S
C5132 C5131 1.524 . S
C5133 C5130 1.403 . S
C5133 C5134 1.392 . S
C5133 C5137 1.495 . S
C5134 C5133 1.392 . S
C5134 C5135 1.385 . S
C5134 C5136 1.478 . S
C5135 H5129 0.930 . S
C5135 C5131 1.400 . S
C5135 C5134 1.385 . S
C5136 C5134 1.478 . S
C5136 C5138 1.381 . S
C5136 C5142 1.383 . S
C5137 C5133 1.495 . S
C5137 H5143 0.959 . S
C5137 H5144 0.961 . S
C5137 H5145 0.960 . S
C5138 C5136 1.381 . S
C5138 C5139 1.394 . S
C5138 H5146 0.930 . S
C5139 C5138 1.394 . S
C5139 C5140 1.383 . S
C5139 H5147 0.929 . S
C5140 C5139 1.383 . S
C5140 C5141 1.377 . S
C5141 H5125 0.930 . S
C5141 C5140 1.377 . S
C5141 C5142 1.379 . S
C5142 H5126 0.931 . S
C5142 C5136 1.383 . S
C5142 C5141 1.379 . S
H5143 C5137 0.959 . S
H5144 C5137 0.961 . S
H5145 C5137 0.960 . S
H5146 C5138 0.930 . S
H5147 C5139 0.929 . S
H5148 C5156 0.929 . S
H5149 C5158 0.930 . S
H5150 C5160 0.930 . S
H5151 C5163 0.929 . S
H5152 C5166 0.930 . S
H5153 C5168 0.960 . S
H5154 C5168 0.971 . S
H5155 C5168 0.960 1_545 S
C5156 H5148 0.929 . S
C5156 C5157 1.377 . S
C5156 C5158 1.384 . S
C5157 C5156 1.377 . S
C5157 C5163 1.390 . S
C5158 H5149 0.930 . S
C5158 C5156 1.384 . S
C5158 C5159 1.372 . S
C5159 C5158 1.372 . S
C5159 C5160 1.400 . S
C5159 C5164 1.490 . S
C5160 H5150 0.930 . S
C5160 C5159 1.400 . S
C5160 C5163 1.386 . S
H5161 C5177 0.930 . S
H5162 C5178 0.931 . S
C5163 H5151 0.929 . S
C5163 C5157 1.390 . S
C5163 C5160 1.386 . S
C5164 C5159 1.490 . S
C5164 C5166 1.395 . S
C5164 C5167 1.385 1_545 S
H5165 C5171 0.930 . S
C5166 H5152 0.930 . S
C5166 C5164 1.395 . S
C5166 C5169 1.403 . S
C5167 C5164 1.385 1_565 S
C5167 C5168 1.526 . S
C5167 C5171 1.416 . S
C5168 H5153 0.960 . S
C5168 H5154 0.971 . S
C5168 H5155 0.960 1_565 S
C5168 C5167 1.526 . S
C5169 C5166 1.403 . S
C5169 C5170 1.392 1_545 S
C5169 C5173 1.495 . S
C5170 C5169 1.392 1_565 S
C5170 C5171 1.385 . S
C5170 C5172 1.478 . S
C5171 H5165 0.930 . S
C5171 C5167 1.416 . S
C5171 C5170 1.385 . S
C5172 C5170 1.478 . S
C5172 C5174 1.381 . S
C5172 C5178 1.383 . S
C5173 C5169 1.495 . S
C5173 H5179 0.959 . S
C5173 H5180 0.961 . S
C5173 H5181 0.960 1_545 S
C5174 C5172 1.381 . S
C5174 C5175 1.394 . S
C5174 H5182 0.930 . S
C5175 C5174 1.394 . S
C5175 C5176 1.383 . S
C5175 H5183 0.929 . S
C5176 C5175 1.383 . S
C5176 C5177 1.377 . S
C5177 H5161 0.930 . S
C5177 C5176 1.377 . S
C5177 C5178 1.379 . S
C5178 H5162 0.931 . S
C5178 C5172 1.383 . S
C5178 C5177 1.379 . S
H5179 C5173 0.959 . S
H5180 C5173 0.961 . S
H5181 C5173 0.960 1_565 S
H5182 C5174 0.930 . S
H5183 C5175 0.929 . S
H5184 C5192 0.929 . S
H5185 C5194 0.930 . S
H5186 C5196 0.930 . S
H5187 C5199 0.929 . S
H5188 C5202 0.930 . S
H5189 C5204 0.960 . S
H5190 C5204 0.960 . S
H5191 C5204 0.960 . S
C5192 H5184 0.929 . S
C5192 C5193 1.377 . S
C5192 C5194 1.384 . S
C5193 C5192 1.377 . S
C5193 C5199 1.390 . S
C5194 H5185 0.930 . S
C5194 C5192 1.384 . S
C5194 C5195 1.372 . S
C5195 C5194 1.372 . S
C5195 C5196 1.400 . S
C5195 C5200 1.490 . S
C5196 H5186 0.930 . S
C5196 C5195 1.400 . S
C5196 C5199 1.386 . S
H5197 C5213 0.930 . S
H5198 C5214 0.931 . S
C5199 H5187 0.929 . S
C5199 C5193 1.390 . S
C5199 C5196 1.386 . S
C5200 C5195 1.490 . S
C5200 C5202 1.395 1_554 S
C5200 C5203 1.403 . S
H5201 C5207 0.930 . S
C5202 H5188 0.930 . S
C5202 C5200 1.395 1_556 S
C5202 C5205 1.403 . S
C5203 C5200 1.403 . S
C5203 C5204 1.524 . S
C5203 C5207 1.400 . S
C5204 H5189 0.960 . S
C5204 H5190 0.960 . S
C5204 H5191 0.960 . S
C5204 C5203 1.524 . S
C5205 C5202 1.403 . S
C5205 C5206 1.392 . S
C5205 C5209 1.495 . S
C5206 C5205 1.392 . S
C5206 C5207 1.385 1_556 S
C5206 C5208 1.478 . S
C5207 H5201 0.930 . S
C5207 C5203 1.400 . S
C5207 C5206 1.385 1_554 S
C5208 C5206 1.478 . S
C5208 C5210 1.381 . S
C5208 C5214 1.383 . S
C5209 C5205 1.495 . S
C5209 H5215 0.959 . S
C5209 H5216 0.961 . S
C5209 H5217 0.960 . S
C5210 C5208 1.381 . S
C5210 C5211 1.394 . S
C5210 H5218 0.930 . S
C5211 C5210 1.394 . S
C5211 C5212 1.383 . S
C5211 H5219 0.929 . S
C5212 C5211 1.383 . S
C5212 C5213 1.377 . S
C5213 H5197 0.930 . S
C5213 C5212 1.377 . S
C5213 C5214 1.379 . S
C5214 H5198 0.931 . S
C5214 C5208 1.383 . S
C5214 C5213 1.379 . S
H5215 C5209 0.959 . S
H5216 C5209 0.961 . S
H5217 C5209 0.960 . S
H5218 C5210 0.930 . S
H5219 C5211 0.929 . S
H5220 C5228 0.929 . S
H5221 C5230 0.930 . S
H5222 C5232 0.930 . S
H5223 C5235 0.929 . S
H5224 C5238 0.930 . S
H5225 C5240 0.960 . S
H5226 C5240 0.960 . S
H5227 C5240 0.960 . S
C5228 H5220 0.929 . S
C5228 C5229 1.377 . S
C5228 C5230 1.384 . S
C5229 C5228 1.377 . S
C5229 C5235 1.390 . S
C5230 H5221 0.930 . S
C5230 C5228 1.384 . S
C5230 C5231 1.372 . S
C5231 C5230 1.372 . S
C5231 C5232 1.400 . S
C5231 C5236 1.490 . S
C5232 H5222 0.930 . S
C5232 C5231 1.400 . S
C5232 C5235 1.386 . S
H5233 C5249 0.930 . S
H5234 C5250 0.931 . S
C5235 H5223 0.929 . S
C5235 C5229 1.390 . S
C5235 C5232 1.386 . S
C5236 C5231 1.490 . S
C5236 C5238 1.395 . S
C5236 C5239 1.403 . S
H5237 C5243 0.930 . S
C5238 H5224 0.930 . S
C5238 C5236 1.395 . S
C5238 C5241 1.403 . S
C5239 C5236 1.403 . S
C5239 C5240 1.524 . S
C5239 C5243 1.400 . S
C5240 H5225 0.960 . S
C5240 H5226 0.960 . S
C5240 H5227 0.960 . S
C5240 C5239 1.524 . S
C5241 C5238 1.403 . S
C5241 C5242 1.392 . S
C5241 C5245 1.495 . S
C5242 C5241 1.392 . S
C5242 C5243 1.385 . S
C5242 C5244 1.478 . S
C5243 H5237 0.930 . S
C5243 C5239 1.400 . S
C5243 C5242 1.385 . S
C5244 C5242 1.478 . S
C5244 C5246 1.381 . S
C5244 C5250 1.383 . S
C5245 C5241 1.495 . S
C5245 H5251 0.959 . S
C5245 H5252 0.961 . S
C5245 H5253 0.960 . S
C5246 C5244 1.381 . S
C5246 C5247 1.394 . S
C5246 H5254 0.930 . S
C5247 C5246 1.394 . S
C5247 C5248 1.383 . S
C5247 H5255 0.929 . S
C5248 C5247 1.383 . S
C5248 C5249 1.377 . S
C5249 H5233 0.930 . S
C5249 C5248 1.377 . S
C5249 C5250 1.379 . S
C5250 H5234 0.931 . S
C5250 C5244 1.383 . S
C5250 C5249 1.379 . S
H5251 C5245 0.959 . S
H5252 C5245 0.961 . S
H5253 C5245 0.960 . S
H5254 C5246 0.930 . S
H5255 C5247 0.929 . S
H5256 C5264 0.929 . S
H5257 C5266 0.930 . S
H5258 C5268 0.930 . S
H5259 C5271 0.929 . S
H5260 C5274 0.930 . S
H5261 C5276 0.960 . S
H5262 C5276 0.960 . S
H5263 C5276 0.960 . S
C5264 H5256 0.929 . S
C5264 C5265 1.377 . S
C5264 C5266 1.384 . S
C5265 C5264 1.377 . S
C5265 C5271 1.390 . S
C5266 H5257 0.930 . S
C5266 C5264 1.384 . S
C5266 C5267 1.372 . S
C5267 C5266 1.372 . S
C5267 C5268 1.400 . S
C5267 C5272 1.490 . S
C5268 H5258 0.930 . S
C5268 C5267 1.400 . S
C5268 C5271 1.386 . S
H5269 C5285 0.930 . S
H5270 C5286 0.931 . S
C5271 H5259 0.929 . S
C5271 C5265 1.390 . S
C5271 C5268 1.386 . S
C5272 C5267 1.490 . S
C5272 C5274 1.395 . S
C5272 C5275 1.403 1_556 S
H5273 C5279 0.930 . S
C5274 H5260 0.930 . S
C5274 C5272 1.395 . S
C5274 C5277 1.403 . S
C5275 C5272 1.403 1_554 S
C5275 C5276 1.524 . S
C5275 C5279 1.400 . S
C5276 H5261 0.960 . S
C5276 H5262 0.960 . S
C5276 H5263 0.960 . S
C5276 C5275 1.524 . S
C5277 C5274 1.403 . S
C5277 C5278 1.392 1_556 S
C5277 C5281 1.495 . S
C5278 C5277 1.392 1_554 S
C5278 C5279 1.385 . S
C5278 C5280 1.478 . S
C5279 H5273 0.930 . S
C5279 C5275 1.400 . S
C5279 C5278 1.385 . S
C5280 C5278 1.478 . S
C5280 C5282 1.381 . S
C5280 C5286 1.383 . S
C5281 C5277 1.495 . S
C5281 H5287 0.959 . S
C5281 H5288 0.961 . S
C5281 H5289 0.960 . S
C5282 C5280 1.381 . S
C5282 C5283 1.394 . S
C5282 H5290 0.930 . S
C5283 C5282 1.394 . S
C5283 C5284 1.383 . S
C5283 H5291 0.929 . S
C5284 C5283 1.383 . S
C5284 C5285 1.377 . S
C5285 H5269 0.930 . S
C5285 C5284 1.377 . S
C5285 C5286 1.379 . S
C5286 H5270 0.931 . S
C5286 C5280 1.383 . S
C5286 C5285 1.379 . S
H5287 C5281 0.959 . S
H5288 C5281 0.961 . S
H5289 C5281 0.960 . S
H5290 C5282 0.930 . S
H5291 C5283 0.929 . S
H5292 C5300 0.929 . S
H5293 C5302 0.930 . S
H5294 C5304 0.930 . S
H5295 C5307 0.929 . S
H5296 C5310 0.930 . S
H5297 C5312 0.960 . S
H5298 C5312 0.962 . S
H5299 C5312 0.960 1_545 S
C5300 H5292 0.929 . S
C5300 C5301 1.377 . S
C5300 C5302 1.384 . S
C5301 C5300 1.377 . S
C5301 C5307 1.390 . S
C5302 H5293 0.930 . S
C5302 C5300 1.384 . S
C5302 C5303 1.372 . S
C5303 C5302 1.372 . S
C5303 C5304 1.400 . S
C5303 C5308 1.490 . S
C5304 H5294 0.930 . S
C5304 C5303 1.400 . S
C5304 C5307 1.386 . S
H5305 C5321 0.930 . S
H5306 C5322 0.931 . S
C5307 H5295 0.929 . S
C5307 C5301 1.390 . S
C5307 C5304 1.386 . S
C5308 C5303 1.490 . S
C5308 C5310 1.395 . S
C5308 C5311 1.402 . S
H5309 C5315 0.930 . S
C5310 H5296 0.930 . S
C5310 C5308 1.395 . S
C5310 C5313 1.441 . S
C5311 C5308 1.402 . S
C5311 C5312 1.524 1_545 S
C5311 C5315 1.400 1_545 S
C5312 H5297 0.960 . S
C5312 H5298 0.962 . S
C5312 H5299 0.960 1_565 S
C5312 C5311 1.524 1_565 S
C5313 C5310 1.441 . S
C5313 C5314 1.354 1_545 S
C5313 C5317 1.499 . S
C5314 C5313 1.354 1_565 S
C5314 C5315 1.385 . S
C5314 C5316 1.478 . S
C5315 H5309 0.930 . S
C5315 C5311 1.400 1_565 S
C5315 C5314 1.385 . S
C5316 C5314 1.478 . S
C5316 C5318 1.381 . S
C5316 C5322 1.383 . S
C5317 C5313 1.499 . S
C5317 H5323 0.959 . S
C5317 H5324 0.964 . S
C5317 H5325 0.960 1_545 S
C5318 C5316 1.381 . S
C5318 C5319 1.394 . S
C5318 H5326 0.930 . S
C5319 C5318 1.394 . S
C5319 C5320 1.383 . S
C5319 H5327 0.929 . S
C5320 C5319 1.383 . S
C5320 C5321 1.377 . S
C5321 H5305 0.930 . S
C5321 C5320 1.377 . S
C5321 C5322 1.379 . S
C5322 H5306 0.931 . S
C5322 C5316 1.383 . S
C5322 C5321 1.379 . S
H5323 C5317 0.959 . S
H5324 C5317 0.964 . S
H5325 C5317 0.960 1_565 S
H5326 C5318 0.930 . S
H5327 C5319 0.929 . S
H5328 C5336 0.929 . S
H5329 C5338 0.930 . S
H5330 C5340 0.930 . S
H5331 C5343 0.929 . S
H5332 C5346 0.930 . S
H5333 C5348 0.960 . S
H5334 C5348 0.960 . S
H5335 C5348 0.960 . S
C5336 H5328 0.929 . S
C5336 C5337 1.377 . S
C5336 C5338 1.384 . S
C5337 C5336 1.377 . S
C5337 C5343 1.390 . S
C5338 H5329 0.930 . S
C5338 C5336 1.384 . S
C5338 C5339 1.372 . S
C5339 C5338 1.372 . S
C5339 C5340 1.400 . S
C5339 C5344 1.490 . S
C5340 H5330 0.930 . S
C5340 C5339 1.400 . S
C5340 C5343 1.386 . S
H5341 C5357 0.930 . S
H5342 C5358 0.931 . S
C5343 H5331 0.929 . S
C5343 C5337 1.390 . S
C5343 C5340 1.386 . S
C5344 C5339 1.490 . S
C5344 C5346 1.395 . S
C5344 C5347 1.403 . S
H5345 C5351 0.930 . S
C5346 H5332 0.930 . S
C5346 C5344 1.395 . S
C5346 C5349 1.403 . S
C5347 C5344 1.403 . S
C5347 C5348 1.524 . S
C5347 C5351 1.400 . S
C5348 H5333 0.960 . S
C5348 H5334 0.960 . S
C5348 H5335 0.960 . S
C5348 C5347 1.524 . S
C5349 C5346 1.403 . S
C5349 C5350 1.392 . S
C5349 C5353 1.495 . S
C5350 C5349 1.392 . S
C5350 C5351 1.385 . S
C5350 C5352 1.478 . S
C5351 H5345 0.930 . S
C5351 C5347 1.400 . S
C5351 C5350 1.385 . S
C5352 C5350 1.478 . S
C5352 C5354 1.381 . S
C5352 C5358 1.383 . S
C5353 C5349 1.495 . S
C5353 H5359 0.959 . S
C5353 H5360 0.961 . S
C5353 H5361 0.960 . S
C5354 C5352 1.381 . S
C5354 C5355 1.394 . S
C5354 H5362 0.930 . S
C5355 C5354 1.394 . S
C5355 C5356 1.383 . S
C5355 H5363 0.929 . S
C5356 C5355 1.383 . S
C5356 C5357 1.377 . S
C5357 H5341 0.930 . S
C5357 C5356 1.377 . S
C5357 C5358 1.379 . S
C5358 H5342 0.931 . S
C5358 C5352 1.383 . S
C5358 C5357 1.379 . S
H5359 C5353 0.959 . S
H5360 C5353 0.961 . S
H5361 C5353 0.960 . S
H5362 C5354 0.930 . S
H5363 C5355 0.929 . S
H5364 C5372 0.929 . S
H5365 C5374 0.930 . S
H5366 C5376 0.930 . S
H5367 C5379 0.929 . S
H5368 C5382 0.930 . S
H5369 C5384 0.960 . S
H5370 C5384 0.960 . S
H5371 C5384 0.960 . S
C5372 H5364 0.929 . S
C5372 C5373 1.377 . S
C5372 C5374 1.384 . S
C5373 C5372 1.377 . S
C5373 C5379 1.390 . S
C5374 H5365 0.930 . S
C5374 C5372 1.384 . S
C5374 C5375 1.372 . S
C5375 C5374 1.372 . S
C5375 C5376 1.400 . S
C5375 C5380 1.490 . S
C5376 H5366 0.930 . S
C5376 C5375 1.400 . S
C5376 C5379 1.386 . S
H5377 C5393 0.930 . S
H5378 C5394 0.931 . S
C5379 H5367 0.929 . S
C5379 C5373 1.390 . S
C5379 C5376 1.386 . S
C5380 C5375 1.490 . S
C5380 C5382 1.395 . S
C5380 C5383 1.403 . S
H5381 C5387 0.930 . S
C5382 H5368 0.930 . S
C5382 C5380 1.395 . S
C5382 C5385 1.403 . S
C5383 C5380 1.403 . S
C5383 C5384 1.524 . S
C5383 C5387 1.400 . S
C5384 H5369 0.960 . S
C5384 H5370 0.960 . S
C5384 H5371 0.960 . S
C5384 C5383 1.524 . S
C5385 C5382 1.403 . S
C5385 C5386 1.392 . S
C5385 C5389 1.495 . S
C5386 C5385 1.392 . S
C5386 C5387 1.385 . S
C5386 C5388 1.478 . S
C5387 H5381 0.930 . S
C5387 C5383 1.400 . S
C5387 C5386 1.385 . S
C5388 C5386 1.478 . S
C5388 C5390 1.381 . S
C5388 C5394 1.383 . S
C5389 C5385 1.495 . S
C5389 H5395 0.959 . S
C5389 H5396 0.961 . S
C5389 H5397 0.960 . S
C5390 C5388 1.381 . S
C5390 C5391 1.394 . S
C5390 H5398 0.930 . S
C5391 C5390 1.394 . S
C5391 C5392 1.383 . S
C5391 H5399 0.929 . S
C5392 C5391 1.383 . S
C5392 C5393 1.377 . S
C5393 H5377 0.930 . S
C5393 C5392 1.377 . S
C5393 C5394 1.379 . S
C5394 H5378 0.931 . S
C5394 C5388 1.383 . S
C5394 C5393 1.379 . S
H5395 C5389 0.959 . S
H5396 C5389 0.961 . S
H5397 C5389 0.960 . S
H5398 C5390 0.930 . S
H5399 C5391 0.929 . S
H5400 C5408 0.929 . S
H5401 C5410 0.930 . S
H5402 C5412 0.930 . S
H5403 C5415 0.929 . S
H5404 C5418 0.930 . S
H5405 C5420 0.960 . S
H5406 C5420 0.960 . S
H5407 C5420 0.960 . S
C5408 H5400 0.929 . S
C5408 C5409 1.377 . S
C5408 C5410 1.384 . S
C5409 C5408 1.377 . S
C5409 C5415 1.390 . S
C5410 H5401 0.930 . S
C5410 C5408 1.384 . S
C5410 C5411 1.372 . S
C5411 C5410 1.372 . S
C5411 C5412 1.400 . S
C5411 C5416 1.490 . S
C5412 H5402 0.930 . S
C5412 C5411 1.400 . S
C5412 C5415 1.386 . S
H5413 C5429 0.930 . S
H5414 C5430 0.931 . S
C5415 H5403 0.929 . S
C5415 C5409 1.390 . S
C5415 C5412 1.386 . S
C5416 C5411 1.490 . S
C5416 C5418 1.395 . S
C5416 C5419 1.403 . S
H5417 C5423 0.930 . S
C5418 H5404 0.930 . S
C5418 C5416 1.395 . S
C5418 C5421 1.403 . S
C5419 C5416 1.403 . S
C5419 C5420 1.524 . S
C5419 C5423 1.400 . S
C5420 H5405 0.960 . S
C5420 H5406 0.960 . S
C5420 H5407 0.960 . S
C5420 C5419 1.524 . S
C5421 C5418 1.403 . S
C5421 C5422 1.392 . S
C5421 C5425 1.495 . S
C5422 C5421 1.392 . S
C5422 C5423 1.385 . S
C5422 C5424 1.478 . S
C5423 H5417 0.930 . S
C5423 C5419 1.400 . S
C5423 C5422 1.385 . S
C5424 C5422 1.478 . S
C5424 C5426 1.381 . S
C5424 C5430 1.383 . S
C5425 C5421 1.495 . S
C5425 H5431 0.959 . S
C5425 H5432 0.961 . S
C5425 H5433 0.960 . S
C5426 C5424 1.381 . S
C5426 C5427 1.394 . S
C5426 H5434 0.930 . S
C5427 C5426 1.394 . S
C5427 C5428 1.383 . S
C5427 H5435 0.929 . S
C5428 C5427 1.383 . S
C5428 C5429 1.377 . S
C5429 H5413 0.930 . S
C5429 C5428 1.377 . S
C5429 C5430 1.379 . S
C5430 H5414 0.931 . S
C5430 C5424 1.383 . S
C5430 C5429 1.379 . S
H5431 C5425 0.959 . S
H5432 C5425 0.961 . S
H5433 C5425 0.960 . S
H5434 C5426 0.930 . S
H5435 C5427 0.929 . S
H5436 C5444 0.929 . S
H5437 C5446 0.930 . S
H5438 C5448 0.930 . S
H5439 C5451 0.929 . S
H5440 C5454 0.930 . S
H5441 C5456 0.960 . S
H5442 C5456 0.960 . S
H5443 C5456 0.960 . S
C5444 H5436 0.929 . S
C5444 C5445 1.377 . S
C5444 C5446 1.384 . S
C5445 C5444 1.377 . S
C5445 C5451 1.390 . S
C5446 H5437 0.930 . S
C5446 C5444 1.384 . S
C5446 C5447 1.372 . S
C5447 C5446 1.372 . S
C5447 C5448 1.400 . S
C5447 C5452 1.490 . S
C5448 H5438 0.930 . S
C5448 C5447 1.400 . S
C5448 C5451 1.386 . S
H5449 C5465 0.930 . S
H5450 C5466 0.931 . S
C5451 H5439 0.929 . S
C5451 C5445 1.390 . S
C5451 C5448 1.386 . S
C5452 C5447 1.490 . S
C5452 C5454 1.395 1_455 S
C5452 C5455 1.403 . S
H5453 C5459 0.930 . S
C5454 H5440 0.930 . S
C5454 C5452 1.395 1_655 S
C5454 C5457 1.403 . S
C5455 C5452 1.403 . S
C5455 C5456 1.524 . S
C5455 C5459 1.400 1_455 S
C5456 H5441 0.960 . S
C5456 H5442 0.960 . S
C5456 H5443 0.960 . S
C5456 C5455 1.524 . S
C5457 C5454 1.403 . S
C5457 C5458 1.392 . S
C5457 C5461 1.495 . S
C5458 C5457 1.392 . S
C5458 C5459 1.385 . S
C5458 C5460 1.478 . S
C5459 H5453 0.930 . S
C5459 C5455 1.400 1_655 S
C5459 C5458 1.385 . S
C5460 C5458 1.478 . S
C5460 C5462 1.381 . S
C5460 C5466 1.383 . S
C5461 C5457 1.495 . S
C5461 H5467 0.959 . S
C5461 H5468 0.961 . S
C5461 H5469 0.960 . S
C5462 C5460 1.381 . S
C5462 C5463 1.394 . S
C5462 H5470 0.930 . S
C5463 C5462 1.394 . S
C5463 C5464 1.383 . S
C5463 H5471 0.929 . S
C5464 C5463 1.383 . S
C5464 C5465 1.377 . S
C5465 H5449 0.930 . S
C5465 C5464 1.377 . S
C5465 C5466 1.379 . S
C5466 H5450 0.931 . S
C5466 C5460 1.383 . S
C5466 C5465 1.379 . S
H5467 C5461 0.959 . S
H5468 C5461 0.961 . S
H5469 C5461 0.960 . S
H5470 C5462 0.930 . S
H5471 C5463 0.929 . S
H5472 C5480 0.929 . S
H5473 C5482 0.930 . S
H5474 C5484 0.930 . S
H5475 C5487 0.929 . S
H5476 C5490 0.930 . S
H5477 C5492 0.960 . S
H5478 C5492 0.960 . S
H5479 C5492 0.960 . S
C5480 H5472 0.929 . S
C5480 C5481 1.377 . S
C5480 C5482 1.384 . S
C5481 C5480 1.377 . S
C5481 C5487 1.390 . S
C5482 H5473 0.930 . S
C5482 C5480 1.384 . S
C5482 C5483 1.372 . S
C5483 C5482 1.372 . S
C5483 C5484 1.400 . S
C5483 C5488 1.490 . S
C5484 H5474 0.930 . S
C5484 C5483 1.400 . S
C5484 C5487 1.386 . S
H5485 C5501 0.930 . S
H5486 C5502 0.931 . S
C5487 H5475 0.929 . S
C5487 C5481 1.390 . S
C5487 C5484 1.386 . S
C5488 C5483 1.490 . S
C5488 C5490 1.395 . S
C5488 C5491 1.403 . S
H5489 C5495 0.930 . S
C5490 H5476 0.930 . S
C5490 C5488 1.395 . S
C5490 C5493 1.403 . S
C5491 C5488 1.403 . S
C5491 C5492 1.524 . S
C5491 C5495 1.400 . S
C5492 H5477 0.960 . S
C5492 H5478 0.960 . S
C5492 H5479 0.960 . S
C5492 C5491 1.524 . S
C5493 C5490 1.403 . S
C5493 C5494 1.392 . S
C5493 C5497 1.495 . S
C5494 C5493 1.392 . S
C5494 C5495 1.385 . S
C5494 C5496 1.478 . S
C5495 H5489 0.930 . S
C5495 C5491 1.400 . S
C5495 C5494 1.385 . S
C5496 C5494 1.478 . S
C5496 C5498 1.381 . S
C5496 C5502 1.383 . S
C5497 C5493 1.495 . S
C5497 H5503 0.959 . S
C5497 H5504 0.961 . S
C5497 H5505 0.960 . S
C5498 C5496 1.381 . S
C5498 C5499 1.394 . S
C5498 H5506 0.930 . S
C5499 C5498 1.394 . S
C5499 C5500 1.383 . S
C5499 H5507 0.929 . S
C5500 C5499 1.383 . S
C5500 C5501 1.377 . S
C5501 H5485 0.930 . S
C5501 C5500 1.377 . S
C5501 C5502 1.379 . S
C5502 H5486 0.931 . S
C5502 C5496 1.383 . S
C5502 C5501 1.379 . S
H5503 C5497 0.959 . S
H5504 C5497 0.961 . S
H5505 C5497 0.960 . S
H5506 C5498 0.930 . S
H5507 C5499 0.929 . S
H5508 C5516 0.929 . S
H5509 C5518 0.930 . S
H5510 C5520 0.930 . S
H5511 C5523 0.929 . S
H5512 C5526 0.932 . S
H5513 C5528 0.960 . S
H5514 C5528 0.960 . S
H5515 C5528 0.960 . S
C5516 H5508 0.929 . S
C5516 C5517 1.377 . S
C5516 C5518 1.384 . S
C5517 C5516 1.377 . S
C5517 C5523 1.390 . S
C5518 H5509 0.930 . S
C5518 C5516 1.384 . S
C5518 C5519 1.372 . S
C5519 C5518 1.372 . S
C5519 C5520 1.400 . S
C5519 C5524 1.490 . S
C5520 H5510 0.930 . S
C5520 C5519 1.400 . S
C5520 C5523 1.386 . S
H5521 C5537 0.930 . S
H5522 C5538 0.931 . S
C5523 H5511 0.929 . S
C5523 C5517 1.390 . S
C5523 C5520 1.386 . S
C5524 C5519 1.490 . S
C5524 C5526 1.409 . S
C5524 C5527 1.403 . S
H5525 C5531 0.930 . S
C5526 H5512 0.932 . S
C5526 C5524 1.409 . S
C5526 C5529 1.388 1_554 S
C5527 C5524 1.403 . S
C5527 C5528 1.524 . S
C5527 C5531 1.400 1_554 S
C5528 H5513 0.960 . S
C5528 H5514 0.960 . S
C5528 H5515 0.960 . S
C5528 C5527 1.524 . S
C5529 C5526 1.388 1_556 S
C5529 C5530 1.392 . S
C5529 C5533 1.495 . S
C5530 C5529 1.392 . S
C5530 C5531 1.385 . S
C5530 C5532 1.478 . S
C5531 H5525 0.930 . S
C5531 C5527 1.400 1_556 S
C5531 C5530 1.385 . S
C5532 C5530 1.478 . S
C5532 C5534 1.381 . S
C5532 C5538 1.383 . S
C5533 C5529 1.495 . S
C5533 H5539 0.959 . S
C5533 H5540 0.961 . S
C5533 H5541 0.960 . S
C5534 C5532 1.381 . S
C5534 C5535 1.394 . S
C5534 H5542 0.930 . S
C5535 C5534 1.394 . S
C5535 C5536 1.383 . S
C5535 H5543 0.929 . S
C5536 C5535 1.383 . S
C5536 C5537 1.377 . S
C5537 H5521 0.930 . S
C5537 C5536 1.377 . S
C5537 C5538 1.379 . S
C5538 H5522 0.931 . S
C5538 C5532 1.383 . S
C5538 C5537 1.379 . S
H5539 C5533 0.959 . S
H5540 C5533 0.961 . S
H5541 C5533 0.960 . S
H5542 C5534 0.930 . S
H5543 C5535 0.929 . S
H5544 C5552 0.929 . S
H5545 C5554 0.930 . S
H5546 C5556 0.930 . S
H5547 C5559 0.929 . S
H5548 C5562 0.930 . S
H5549 C5564 0.960 . S
H5550 C5564 0.960 . S
H5551 C5564 0.960 . S
C5552 H5544 0.929 . S
C5552 C5553 1.377 . S
C5552 C5554 1.384 . S
C5553 C5552 1.377 . S
C5553 C5559 1.390 . S
C5554 H5545 0.930 . S
C5554 C5552 1.384 . S
C5554 C5555 1.372 . S
C5555 C5554 1.372 . S
C5555 C5556 1.400 . S
C5555 C5560 1.490 . S
C5556 H5546 0.930 . S
C5556 C5555 1.400 . S
C5556 C5559 1.386 . S
H5557 C5573 0.930 . S
H5558 C5574 0.931 . S
C5559 H5547 0.929 . S
C5559 C5553 1.390 . S
C5559 C5556 1.386 . S
C5560 C5555 1.490 . S
C5560 C5562 1.395 . S
C5560 C5563 1.403 1_545 S
H5561 C5567 0.930 . S
C5562 H5548 0.930 . S
C5562 C5560 1.395 . S
C5562 C5565 1.403 . S
C5563 C5560 1.403 1_565 S
C5563 C5564 1.524 . S
C5563 C5567 1.400 . S
C5564 H5549 0.960 . S
C5564 H5550 0.960 . S
C5564 H5551 0.960 . S
C5564 C5563 1.524 . S
C5565 C5562 1.403 . S
C5565 C5566 1.392 1_545 S
C5565 C5569 1.495 . S
C5566 C5565 1.392 1_565 S
C5566 C5567 1.385 . S
C5566 C5568 1.478 . S
C5567 H5561 0.930 . S
C5567 C5563 1.400 . S
C5567 C5566 1.385 . S
C5568 C5566 1.478 . S
C5568 C5570 1.381 . S
C5568 C5574 1.383 . S
C5569 C5565 1.495 . S
C5569 H5575 0.959 . S
C5569 H5576 0.961 . S
C5569 H5577 0.960 . S
C5570 C5568 1.381 . S
C5570 C5571 1.394 . S
C5570 H5578 0.930 . S
C5571 C5570 1.394 . S
C5571 C5572 1.383 . S
C5571 H5579 0.929 . S
C5572 C5571 1.383 . S
C5572 C5573 1.377 . S
C5573 H5557 0.930 . S
C5573 C5572 1.377 . S
C5573 C5574 1.379 . S
C5574 H5558 0.931 . S
C5574 C5568 1.383 . S
C5574 C5573 1.379 . S
H5575 C5569 0.959 . S
H5576 C5569 0.961 . S
H5577 C5569 0.960 . S
H5578 C5570 0.930 . S
H5579 C5571 0.929 . S
H5580 C5588 0.929 . S
H5581 C5590 0.930 . S
H5582 C5592 0.930 . S
H5583 C5595 0.929 . S
H5584 C5598 0.930 . S
H5585 C5600 0.960 . S
H5586 C5600 0.960 . S
H5587 C5600 0.960 . S
C5588 H5580 0.929 . S
C5588 C5589 1.377 . S
C5588 C5590 1.384 . S
C5589 C5588 1.377 . S
C5589 C5595 1.390 . S
C5590 H5581 0.930 . S
C5590 C5588 1.384 . S
C5590 C5591 1.372 . S
C5591 C5590 1.372 . S
C5591 C5592 1.400 . S
C5591 C5596 1.490 . S
C5592 H5582 0.930 . S
C5592 C5591 1.400 . S
C5592 C5595 1.386 . S
H5593 C5609 0.930 . S
H5594 C5610 0.931 . S
C5595 H5583 0.929 . S
C5595 C5589 1.390 . S
C5595 C5592 1.386 . S
C5596 C5591 1.490 . S
C5596 C5598 1.395 . S
C5596 C5599 1.403 . S
H5597 C5603 0.930 . S
C5598 H5584 0.930 . S
C5598 C5596 1.395 . S
C5598 C5601 1.403 . S
C5599 C5596 1.403 . S
C5599 C5600 1.524 . S
C5599 C5603 1.400 . S
C5600 H5585 0.960 . S
C5600 H5586 0.960 . S
C5600 H5587 0.960 . S
C5600 C5599 1.524 . S
C5601 C5598 1.403 . S
C5601 C5602 1.392 . S
C5601 C5605 1.495 . S
C5602 C5601 1.392 . S
C5602 C5603 1.385 . S
C5602 C5604 1.478 . S
C5603 H5597 0.930 . S
C5603 C5599 1.400 . S
C5603 C5602 1.385 . S
C5604 C5602 1.478 . S
C5604 C5606 1.381 . S
C5604 C5610 1.383 . S
C5605 C5601 1.495 . S
C5605 H5611 0.959 . S
C5605 H5612 0.961 . S
C5605 H5613 0.960 . S
C5606 C5604 1.381 . S
C5606 C5607 1.394 . S
C5606 H5614 0.930 . S
C5607 C5606 1.394 . S
C5607 C5608 1.383 . S
C5607 H5615 0.929 . S
C5608 C5607 1.383 . S
C5608 C5609 1.377 . S
C5609 H5593 0.930 . S
C5609 C5608 1.377 . S
C5609 C5610 1.379 . S
C5610 H5594 0.931 . S
C5610 C5604 1.383 . S
C5610 C5609 1.379 . S
H5611 C5605 0.959 . S
H5612 C5605 0.961 . S
H5613 C5605 0.960 . S
H5614 C5606 0.930 . S
H5615 C5607 0.929 . S
H5616 C5624 0.929 . S
H5617 C5626 0.930 . S
H5618 C5628 0.930 . S
H5619 C5631 0.929 . S
H5620 C5634 0.930 . S
H5621 C5636 0.960 . S
H5622 C5636 0.960 . S
H5623 C5636 0.960 . S
C5624 H5616 0.929 . S
C5624 C5625 1.377 . S
C5624 C5626 1.384 . S
C5625 C5624 1.377 . S
C5625 C5631 1.390 . S
C5626 H5617 0.930 . S
C5626 C5624 1.384 . S
C5626 C5627 1.372 . S
C5627 C5626 1.372 . S
C5627 C5628 1.400 . S
C5627 C5632 1.490 . S
C5628 H5618 0.930 . S
C5628 C5627 1.400 . S
C5628 C5631 1.386 . S
H5629 C5645 0.930 . S
H5630 C5646 0.931 . S
C5631 H5619 0.929 . S
C5631 C5625 1.390 . S
C5631 C5628 1.386 . S
C5632 C5627 1.490 . S
C5632 C5634 1.395 . S
C5632 C5635 1.403 . S
H5633 C5639 0.930 . S
C5634 H5620 0.930 . S
C5634 C5632 1.395 . S
C5634 C5637 1.403 . S
C5635 C5632 1.403 . S
C5635 C5636 1.524 . S
C5635 C5639 1.400 . S
C5636 H5621 0.960 . S
C5636 H5622 0.960 . S
C5636 H5623 0.960 . S
C5636 C5635 1.524 . S
C5637 C5634 1.403 . S
C5637 C5638 1.392 . S
C5637 C5641 1.495 . S
C5638 C5637 1.392 . S
C5638 C5639 1.385 . S
C5638 C5640 1.478 . S
C5639 H5633 0.930 . S
C5639 C5635 1.400 . S
C5639 C5638 1.385 . S
C5640 C5638 1.478 . S
C5640 C5642 1.381 . S
C5640 C5646 1.383 . S
C5641 C5637 1.495 . S
C5641 H5647 0.959 . S
C5641 H5648 0.961 . S
C5641 H5649 0.960 . S
C5642 C5640 1.381 . S
C5642 C5643 1.394 . S
C5642 H5650 0.930 . S
C5643 C5642 1.394 . S
C5643 C5644 1.383 . S
C5643 H5651 0.929 . S
C5644 C5643 1.383 . S
C5644 C5645 1.377 . S
C5645 H5629 0.930 . S
C5645 C5644 1.377 . S
C5645 C5646 1.379 . S
C5646 H5630 0.931 . S
C5646 C5640 1.383 . S
C5646 C5645 1.379 . S
H5647 C5641 0.959 . S
H5648 C5641 0.961 . S
H5649 C5641 0.960 . S
H5650 C5642 0.930 . S
H5651 C5643 0.929 . S
H5652 C5660 0.929 . S
H5653 C5662 0.930 . S
H5654 C5664 0.930 . S
H5655 C5667 0.929 . S
H5656 C5670 0.930 . S
H5657 C5672 0.960 . S
H5658 C5672 0.960 . S
H5659 C5672 0.960 . S
C5660 H5652 0.929 . S
C5660 C5661 1.377 . S
C5660 C5662 1.384 . S
C5661 C5660 1.377 . S
C5661 C5667 1.390 . S
C5662 H5653 0.930 . S
C5662 C5660 1.384 . S
C5662 C5663 1.372 . S
C5663 C5662 1.372 . S
C5663 C5664 1.400 . S
C5663 C5668 1.490 . S
C5664 H5654 0.930 . S
C5664 C5663 1.400 . S
C5664 C5667 1.386 . S
H5665 C5681 0.930 . S
H5666 C5682 0.931 . S
C5667 H5655 0.929 . S
C5667 C5661 1.390 . S
C5667 C5664 1.386 . S
C5668 C5663 1.490 . S
C5668 C5670 1.395 . S
C5668 C5671 1.403 . S
H5669 C5675 0.930 . S
C5670 H5656 0.930 . S
C5670 C5668 1.395 . S
C5670 C5673 1.403 . S
C5671 C5668 1.403 . S
C5671 C5672 1.524 . S
C5671 C5675 1.400 . S
C5672 H5657 0.960 . S
C5672 H5658 0.960 . S
C5672 H5659 0.960 . S
C5672 C5671 1.524 . S
C5673 C5670 1.403 . S
C5673 C5674 1.392 . S
C5673 C5677 1.495 . S
C5674 C5673 1.392 . S
C5674 C5675 1.385 . S
C5674 C5676 1.478 . S
C5675 H5669 0.930 . S
C5675 C5671 1.400 . S
C5675 C5674 1.385 . S
C5676 C5674 1.478 . S
C5676 C5678 1.381 . S
C5676 C5682 1.383 . S
C5677 C5673 1.495 . S
C5677 H5683 0.959 . S
C5677 H5684 0.961 . S
C5677 H5685 0.960 . S
C5678 C5676 1.381 . S
C5678 C5679 1.394 . S
C5678 H5686 0.930 . S
C5679 C5678 1.394 . S
C5679 C5680 1.383 . S
C5679 H5687 0.929 . S
C5680 C5679 1.383 . S
C5680 C5681 1.377 . S
C5681 H5665 0.930 . S
C5681 C5680 1.377 . S
C5681 C5682 1.379 . S
C5682 H5666 0.931 . S
C5682 C5676 1.383 . S
C5682 C5681 1.379 . S
H5683 C5677 0.959 . S
H5684 C5677 0.961 . S
H5685 C5677 0.960 . S
H5686 C5678 0.930 . S
H5687 C5679 0.929 . S
H5688 C5696 0.929 . S
H5689 C5698 0.930 . S
H5690 C5700 0.930 . S
H5691 C5703 0.929 . S
H5692 C5706 0.930 . S
H5693 C5708 0.960 . S
H5694 C5708 0.960 . S
H5695 C5708 0.960 . S
C5696 H5688 0.929 . S
C5696 C5697 1.377 . S
C5696 C5698 1.384 . S
C5697 C5696 1.377 . S
C5697 C5703 1.390 . S
C5698 H5689 0.930 . S
C5698 C5696 1.384 . S
C5698 C5699 1.372 . S
C5699 C5698 1.372 . S
C5699 C5700 1.400 . S
C5699 C5704 1.490 . S
C5700 H5690 0.930 . S
C5700 C5699 1.400 . S
C5700 C5703 1.386 . S
H5701 C5717 0.930 . S
H5702 C5718 0.931 . S
C5703 H5691 0.929 . S
C5703 C5697 1.390 . S
C5703 C5700 1.386 . S
C5704 C5699 1.490 . S
C5704 C5706 1.395 1_455 S
C5704 C5707 1.403 . S
H5705 C5711 0.930 . S
C5706 H5692 0.930 . S
C5706 C5704 1.395 1_655 S
C5706 C5709 1.403 . S
C5707 C5704 1.403 . S
C5707 C5708 1.524 . S
C5707 C5711 1.400 . S
C5708 H5693 0.960 . S
C5708 H5694 0.960 . S
C5708 H5695 0.960 . S
C5708 C5707 1.524 . S
C5709 C5706 1.403 . S
C5709 C5710 1.392 . S
C5709 C5713 1.495 . S
C5710 C5709 1.392 . S
C5710 C5711 1.385 1_655 S
C5710 C5712 1.478 . S
C5711 H5705 0.930 . S
C5711 C5707 1.400 . S
C5711 C5710 1.385 1_455 S
C5712 C5710 1.478 . S
C5712 C5714 1.381 . S
C5712 C5718 1.383 . S
C5713 C5709 1.495 . S
C5713 H5719 0.959 . S
C5713 H5720 0.961 . S
C5713 H5721 0.960 . S
C5714 C5712 1.381 . S
C5714 C5715 1.394 . S
C5714 H5722 0.930 . S
C5715 C5714 1.394 . S
C5715 C5716 1.383 . S
C5715 H5723 0.929 . S
C5716 C5715 1.383 . S
C5716 C5717 1.377 . S
C5717 H5701 0.930 . S
C5717 C5716 1.377 . S
C5717 C5718 1.379 . S
C5718 H5702 0.931 . S
C5718 C5712 1.383 . S
C5718 C5717 1.379 . S
H5719 C5713 0.959 . S
H5720 C5713 0.961 . S
H5721 C5713 0.960 . S
H5722 C5714 0.930 . S
H5723 C5715 0.929 . S
H5724 C5732 0.929 . S
H5725 C5734 0.930 . S
H5726 C5736 0.930 . S
H5727 C5739 0.929 . S
H5728 C5742 0.930 . S
H5729 C5744 0.960 . S
H5730 C5744 0.960 . S
H5731 C5744 0.960 . S
C5732 H5724 0.929 . S
C5732 C5733 1.377 . S
C5732 C5734 1.384 . S
C5733 C5732 1.377 . S
C5733 C5739 1.390 . S
C5734 H5725 0.930 . S
C5734 C5732 1.384 . S
C5734 C5735 1.372 . S
C5735 C5734 1.372 . S
C5735 C5736 1.400 . S
C5735 C5740 1.490 . S
C5736 H5726 0.930 . S
C5736 C5735 1.400 . S
C5736 C5739 1.386 . S
H5737 C5753 0.930 . S
H5738 C5754 0.931 . S
C5739 H5727 0.929 . S
C5739 C5733 1.390 . S
C5739 C5736 1.386 . S
C5740 C5735 1.490 . S
C5740 C5742 1.395 . S
C5740 C5743 1.403 . S
H5741 C5747 0.930 . S
C5742 H5728 0.930 . S
C5742 C5740 1.395 . S
C5742 C5745 1.403 1_455 S
C5743 C5740 1.403 . S
C5743 C5744 1.524 . S
C5743 C5747 1.400 1_455 S
C5744 H5729 0.960 . S
C5744 H5730 0.960 . S
C5744 H5731 0.960 . S
C5744 C5743 1.524 . S
C5745 C5742 1.403 1_655 S
C5745 C5746 1.392 . S
C5745 C5749 1.495 . S
C5746 C5745 1.392 . S
C5746 C5747 1.385 . S
C5746 C5748 1.478 . S
C5747 H5741 0.930 . S
C5747 C5743 1.400 1_655 S
C5747 C5746 1.385 . S
C5748 C5746 1.478 . S
C5748 C5750 1.381 . S
C5748 C5754 1.383 . S
C5749 C5745 1.495 . S
C5749 H5755 0.959 . S
C5749 H5756 0.961 . S
C5749 H5757 0.960 . S
C5750 C5748 1.381 . S
C5750 C5751 1.394 . S
C5750 H5758 0.930 . S
C5751 C5750 1.394 . S
C5751 C5752 1.383 . S
C5751 H5759 0.929 . S
C5752 C5751 1.383 . S
C5752 C5753 1.377 . S
C5753 H5737 0.930 . S
C5753 C5752 1.377 . S
C5753 C5754 1.379 . S
C5754 H5738 0.931 . S
C5754 C5748 1.383 . S
C5754 C5753 1.379 . S
H5755 C5749 0.959 . S
H5756 C5749 0.961 . S
H5757 C5749 0.960 . S
H5758 C5750 0.930 . S
H5759 C5751 0.929 . S
H5760 C5768 0.929 . S
H5761 C5770 0.930 . S
H5762 C5772 0.930 . S
H5763 C5775 0.929 . S
H5764 C5778 0.930 . S
H5765 C5780 0.960 . S
H5766 C5780 0.960 . S
H5767 C5780 0.960 . S
C5768 H5760 0.929 . S
C5768 C5769 1.377 . S
C5768 C5770 1.384 . S
C5769 C5768 1.377 . S
C5769 C5775 1.390 . S
C5770 H5761 0.930 . S
C5770 C5768 1.384 . S
C5770 C5771 1.372 . S
C5771 C5770 1.372 . S
C5771 C5772 1.400 . S
C5771 C5776 1.490 . S
C5772 H5762 0.930 . S
C5772 C5771 1.400 . S
C5772 C5775 1.386 . S
H5773 C5789 0.930 . S
H5774 C5790 0.931 . S
C5775 H5763 0.929 . S
C5775 C5769 1.390 . S
C5775 C5772 1.386 . S
C5776 C5771 1.490 . S
C5776 C5778 1.395 . S
C5776 C5779 1.403 1_455 S
H5777 C5783 0.930 . S
C5778 H5764 0.930 . S
C5778 C5776 1.395 . S
C5778 C5781 1.403 . S
C5779 C5776 1.403 1_655 S
C5779 C5780 1.524 . S
C5779 C5783 1.400 . S
C5780 H5765 0.960 . S
C5780 H5766 0.960 . S
C5780 H5767 0.960 . S
C5780 C5779 1.524 . S
C5781 C5778 1.403 . S
C5781 C5782 1.392 1_455 S
C5781 C5785 1.495 . S
C5782 C5781 1.392 1_655 S
C5782 C5783 1.385 . S
C5782 C5784 1.478 . S
C5783 H5777 0.930 . S
C5783 C5779 1.400 . S
C5783 C5782 1.385 . S
C5784 C5782 1.478 . S
C5784 C5786 1.381 . S
C5784 C5790 1.383 . S
C5785 C5781 1.495 . S
C5785 H5791 0.959 . S
C5785 H5792 0.961 . S
C5785 H5793 0.960 . S
C5786 C5784 1.381 . S
C5786 C5787 1.394 . S
C5786 H5794 0.930 . S
C5787 C5786 1.394 . S
C5787 C5788 1.383 . S
C5787 H5795 0.929 . S
C5788 C5787 1.383 . S
C5788 C5789 1.377 . S
C5789 H5773 0.930 . S
C5789 C5788 1.377 . S
C5789 C5790 1.379 . S
C5790 H5774 0.931 . S
C5790 C5784 1.383 . S
C5790 C5789 1.379 . S
H5791 C5785 0.959 . S
H5792 C5785 0.961 . S
H5793 C5785 0.960 . S
H5794 C5786 0.930 . S
H5795 C5787 0.929 . S
H5796 C5804 0.929 . S
H5797 C5806 0.930 . S
H5798 C5808 0.930 . S
H5799 C5811 0.929 . S
H5800 C5814 0.930 . S
H5801 C5816 0.960 . S
H5802 C5816 0.960 . S
H5803 C5816 0.960 . S
C5804 H5796 0.929 . S
C5804 C5805 1.377 . S
C5804 C5806 1.384 . S
C5805 C5804 1.377 . S
C5805 C5811 1.390 . S
C5806 H5797 0.930 . S
C5806 C5804 1.384 . S
C5806 C5807 1.372 . S
C5807 C5806 1.372 . S
C5807 C5808 1.400 . S
C5807 C5812 1.490 . S
C5808 H5798 0.930 . S
C5808 C5807 1.400 . S
C5808 C5811 1.386 . S
H5809 C5825 0.930 . S
H5810 C5826 0.931 . S
C5811 H5799 0.929 . S
C5811 C5805 1.390 . S
C5811 C5808 1.386 . S
C5812 C5807 1.490 . S
C5812 C5814 1.395 . S
C5812 C5815 1.403 . S
H5813 C5819 0.930 . S
C5814 H5800 0.930 . S
C5814 C5812 1.395 . S
C5814 C5817 1.403 . S
C5815 C5812 1.403 . S
C5815 C5816 1.524 . S
C5815 C5819 1.400 . S
C5816 H5801 0.960 . S
C5816 H5802 0.960 . S
C5816 H5803 0.960 . S
C5816 C5815 1.524 . S
C5817 C5814 1.403 . S
C5817 C5818 1.392 . S
C5817 C5821 1.495 . S
C5818 C5817 1.392 . S
C5818 C5819 1.385 . S
C5818 C5820 1.478 . S
C5819 H5813 0.930 . S
C5819 C5815 1.400 . S
C5819 C5818 1.385 . S
C5820 C5818 1.478 . S
C5820 C5822 1.381 . S
C5820 C5826 1.383 . S
C5821 C5817 1.495 . S
C5821 H5827 0.959 . S
C5821 H5828 0.961 . S
C5821 H5829 0.960 . S
C5822 C5820 1.381 . S
C5822 C5823 1.394 . S
C5822 H5830 0.930 . S
C5823 C5822 1.394 . S
C5823 C5824 1.383 . S
C5823 H5831 0.929 . S
C5824 C5823 1.383 . S
C5824 C5825 1.377 . S
C5825 H5809 0.930 . S
C5825 C5824 1.377 . S
C5825 C5826 1.379 . S
C5826 H5810 0.931 . S
C5826 C5820 1.383 . S
C5826 C5825 1.379 . S
H5827 C5821 0.959 . S
H5828 C5821 0.961 . S
H5829 C5821 0.960 . S
H5830 C5822 0.930 . S
H5831 C5823 0.929 . S
H5832 C5840 0.929 . S
H5833 C5842 0.930 . S
H5834 C5844 0.930 . S
H5835 C5847 0.929 . S
H5836 C5850 0.930 . S
H5837 C5852 0.960 . S
H5838 C5852 0.960 . S
H5839 C5852 0.960 . S
C5840 H5832 0.929 . S
C5840 C5841 1.377 . S
C5840 C5842 1.384 . S
C5841 C5840 1.377 . S
C5841 C5847 1.390 . S
C5842 H5833 0.930 . S
C5842 C5840 1.384 . S
C5842 C5843 1.372 . S
C5843 C5842 1.372 . S
C5843 C5844 1.400 . S
C5843 C5848 1.490 . S
C5844 H5834 0.930 . S
C5844 C5843 1.400 . S
C5844 C5847 1.386 . S
H5845 C5861 0.930 . S
H5846 C5862 0.931 . S
C5847 H5835 0.929 . S
C5847 C5841 1.390 . S
C5847 C5844 1.386 . S
C5848 C5843 1.490 . S
C5848 C5850 1.395 . S
C5848 C5851 1.403 . S
H5849 C5855 0.930 . S
C5850 H5836 0.930 . S
C5850 C5848 1.395 . S
C5850 C5853 1.403 1_565 S
C5851 C5848 1.403 . S
C5851 C5852 1.524 . S
C5851 C5855 1.400 1_565 S
C5852 H5837 0.960 . S
C5852 H5838 0.960 . S
C5852 H5839 0.960 . S
C5852 C5851 1.524 . S
C5853 C5850 1.403 1_545 S
C5853 C5854 1.392 . S
C5853 C5857 1.495 . S
C5854 C5853 1.392 . S
C5854 C5855 1.385 . S
C5854 C5856 1.478 . S
C5855 H5849 0.930 . S
C5855 C5851 1.400 1_545 S
C5855 C5854 1.385 . S
C5856 C5854 1.478 . S
C5856 C5858 1.381 . S
C5856 C5862 1.383 . S
C5857 C5853 1.495 . S
C5857 H5863 0.959 . S
C5857 H5864 0.961 . S
C5857 H5865 0.960 . S
C5858 C5856 1.381 . S
C5858 C5859 1.394 . S
C5858 H5866 0.930 . S
C5859 C5858 1.394 . S
C5859 C5860 1.383 . S
C5859 H5867 0.929 . S
C5860 C5859 1.383 . S
C5860 C5861 1.377 . S
C5861 H5845 0.930 . S
C5861 C5860 1.377 . S
C5861 C5862 1.379 . S
C5862 H5846 0.931 . S
C5862 C5856 1.383 . S
C5862 C5861 1.379 . S
H5863 C5857 0.959 . S
H5864 C5857 0.961 . S
H5865 C5857 0.960 . S
H5866 C5858 0.930 . S
H5867 C5859 0.929 . S
H5868 C5876 0.929 . S
H5869 C5878 0.930 . S
H5870 C5880 0.930 . S
H5871 C5883 0.929 . S
H5872 C5886 0.929 . S
H5873 C5888 0.960 . S
H5874 C5888 0.960 . S
H5875 C5888 0.960 . S
C5876 H5868 0.929 . S
C5876 C5877 1.377 . S
C5876 C5878 1.384 . S
C5877 C5876 1.377 . S
C5877 C5883 1.390 . S
C5878 H5869 0.930 . S
C5878 C5876 1.384 . S
C5878 C5879 1.372 . S
C5879 C5878 1.372 . S
C5879 C5880 1.400 . S
C5879 C5884 1.490 . S
C5880 H5870 0.930 . S
C5880 C5879 1.400 . S
C5880 C5883 1.386 . S
H5881 C5897 0.930 . S
H5882 C5898 0.931 . S
C5883 H5871 0.929 . S
C5883 C5877 1.390 . S
C5883 C5880 1.386 . S
C5884 C5879 1.490 . S
C5884 C5886 1.338 1_554 S
C5884 C5887 1.403 . S
H5885 C5891 0.930 . S
C5886 H5872 0.929 . S
C5886 C5884 1.338 1_556 S
C5886 C5889 1.463 . S
C5887 C5884 1.403 . S
C5887 C5888 1.524 . S
C5887 C5891 1.400 1_554 S
C5888 H5873 0.960 . S
C5888 H5874 0.960 . S
C5888 H5875 0.960 . S
C5888 C5887 1.524 . S
C5889 C5886 1.463 . S
C5889 C5890 1.392 . S
C5889 C5893 1.495 . S
C5890 C5889 1.392 . S
C5890 C5891 1.385 . S
C5890 C5892 1.478 . S
C5891 H5885 0.930 . S
C5891 C5887 1.400 1_556 S
C5891 C5890 1.385 . S
C5892 C5890 1.478 . S
C5892 C5894 1.381 . S
C5892 C5898 1.383 . S
C5893 C5889 1.495 . S
C5893 H5899 0.959 . S
C5893 H5900 0.961 . S
C5893 H5901 0.960 . S
C5894 C5892 1.381 . S
C5894 C5895 1.394 . S
C5894 H5902 0.930 . S
C5895 C5894 1.394 . S
C5895 C5896 1.383 . S
C5895 H5903 0.929 . S
C5896 C5895 1.383 . S
C5896 C5897 1.377 . S
C5897 H5881 0.930 . S
C5897 C5896 1.377 . S
C5897 C5898 1.379 . S
C5898 H5882 0.931 . S
C5898 C5892 1.383 . S
C5898 C5897 1.379 . S
H5899 C5893 0.959 . S
H5900 C5893 0.961 . S
H5901 C5893 0.960 . S
H5902 C5894 0.930 . S
H5903 C5895 0.929 . S
C1593 N904 1.189 . S
C1612 C18 1.212 . S
C1629 C51 1.220 . S
C1648 N805 1.183 . S
C1665 C84 1.222 . S
C1684 N838 1.167 . S
C1701 N871 1.186 . S
C1720 C117 1.226 . S
C1737 C150 1.220 . S
C1756 N178 1.212 . S
C1773 N211 1.185 . S
C1792 C183 1.214 . S
C1809 N244 1.175 . S
C1828 C216 1.226 . S
C1845 C249 1.223 . S
C1864 N145 1.201 . S
C1881 C282 1.222 . S
C1900 N1399 1.167 . S
C1917 C315 1.223 . S
C1936 N1432 1.208 . S
C1953 C348 1.221 . S
C1972 N673 1.175 . S
C1989 N1366 1.185 . S
C2008 C381 1.226 . S
C2025 N1531 1.180 . S
C2044 C414 1.220 . S
C2061 N541 1.187 . S
C2080 C447 1.225 . S
C2097 C480 1.220 . S
C2116 N1564 1.210 . S
C2133 C513 1.220 . S
C2152 N1498 1.169 . S
C2169 N310 1.184 . S
C2188 C546 1.219 . S
C2205 N1300 1.179 . S
C2224 C579 1.221 . S
C2241 N1201 1.175 . S
C2260 C612 1.216 . S
C2277 N1234 1.183 . S
C2296 C645 1.219 . S
C2313 C678 1.221 . S
C2332 N475 1.200 . S
C2349 C711 1.222 . S
C2368 N1168 1.175 . S
C2385 N1069 1.177 . S
C2404 C744 1.213 . S
C2421 C777 1.221 . S
C2440 N1135 1.148 . S
C2457 C810 1.222 . S
C2476 N112 1.159 . S
C2493 C843 1.220 . S
C2512 N13 1.181 . S
C2529 N46 1.176 . S
C2548 C876 1.224 . S
C2565 N79 1.177 . S
C2584 C909 1.213 . S
C2601 N970 1.183 . S
C2620 C942 1.220 . S
C2637 N1003 1.183 . S
C2656 C975 1.226 . S
C2673 C1008 1.221 . S
C2692 N1036 1.197 . S
C2709 C1041 1.222 . S
C2728 N937 1.162 . S
C2745 C1074 1.222 . S
C2764 N607 1.167 . S
C2781 N640 1.176 . S
C2800 C1107 1.214 . S
C2817 N1465 1.177 . S
C2836 C1140 1.223 . S
C2853 C1173 1.223 . S
C2872 N574 1.178 . S
C2889 N739 1.177 . S
C2908 C1206 1.225 . S
C2925 C1239 1.222 . S
C2944 N1333 1.211 . S
C2961 C1272 1.223 . S
C2980 N772 1.155 . S
C2997 N706 1.189 . S
C3016 C1305 1.221 . S
C3033 N1102 1.185 . S
C3052 C1338 1.217 . S
C3069 N508 1.177 . S
C3088 C1371 1.223 . S
C3105 C1404 1.220 . S
C3124 N409 1.180 . S
C3141 N442 1.176 . S
C3160 C1437 1.224 . S
C3177 C1470 1.223 . S
C3196 N1267 1.210 . S
C3213 C1503 1.222 . S
C3232 N376 1.169 . S
C3249 N277 1.176 . S
C3268 C1536 1.215 . S
C3285 N343 1.187 . S
C3304 C1569 1.225 . S
C3321 C1393 0.396 . S
C3340 C21 0.478 . S
C3357 C1426 0.364 . S
C3376 C54 0.562 . S
C3393 C667 0.397 . S
C3412 C87 0.457 . S
C3429 C1360 0.360 . S
C3448 C120 0.538 . S
C3465 C153 0.485 . S
C3484 C1525 0.300 . S
C3501 C535 0.361 . S
C3520 C186 0.502 . S
C3537 C1558 0.395 . S
C3556 C219 0.410 . S
C3573 C252 0.455 . S
C3592 C1492 0.446 . S
C3609 C285 0.491 . S
C3628 C304 0.345 . S
C3645 C337 0.360 . S
C3664 C318 0.520 . S
C3681 C370 0.384 . S
C3700 C351 0.392 . S
C3717 C271 0.365 . S
C3736 C384 0.466 . S
C3753 C1294 0.365 . S
C3772 C417 0.460 . S
C3789 C1195 0.382 . S
C3808 C450 0.397 . S
C3825 C1228 0.394 . S
C3844 C483 0.408 . S
C3861 C516 0.456 . S
C3880 C1261 0.461 . S
C3897 C898 0.369 . S
C3916 C549 0.435 . S
C3933 C582 0.455 . S
C3952 C172 0.413 . S
C3969 C205 0.373 . S
C3988 C615 0.564 . S
C4005 C238 0.391 . S
C4024 C648 0.519 . S
C4041 C681 0.477 . S
C4060 C931 0.303 . S
C4077 C40 0.395 . S
C4096 C714 0.492 . S
C4113 C747 0.475 . S
C4132 C73 0.309 . S
C4149 C780 0.488 . S
C4168 C7 0.404 . S
C4185 C601 0.361 . S
C4204 C813 0.493 . S
C4221 C634 0.394 . S
C4240 C846 0.485 . S
C4257 C879 0.492 . S
C4276 C1459 0.356 . S
C4293 C912 0.471 . S
C4312 C568 0.321 . S
C4329 C733 0.366 . S
C4348 C945 0.449 . S
C4365 C1327 0.360 . S
C4384 C978 0.548 . S
C4401 C766 0.394 . S
C4420 C1011 0.407 . S
C4437 C1044 0.488 . S
C4456 C700 0.402 . S
C4473 C1077 0.481 . S
C4492 C1096 0.447 . S
C4509 C1129 0.360 . S
C4528 C1110 0.509 . S
C4545 C1143 0.458 . S
C4564 C1162 0.462 . S
C4581 C1176 0.465 . S
C4600 C1063 0.472 . S
C4617 C1209 0.475 . S
C4636 C502 0.303 . S
C4653 C403 0.396 . S
C4672 C1242 0.421 . S
C4689 C436 0.364 . S
C4708 C1275 0.559 . S
C4725 C469 0.367 . S
C4744 C1308 0.457 . S
C4761 C106 0.366 . S
C4780 C1341 0.451 . S
C4797 C964 0.359 . S
C4816 C1374 0.524 . S
C4833 C1407 0.473 . S
C4852 C997 0.463 . S
C4869 C1440 0.462 . S
C4888 C1030 0.471 . S
C4905 C1473 0.491 . S
C4924 C139 0.369 . S
C4941 C1506 0.455 . S
C4960 C832 0.444 . S
C4977 C1539 0.480 . S
C4996 C865 0.444 . S
C5013 C799 0.395 . S
C5032 C1572 0.408 . S
C5049 N2 0.947 . S
C5068 N992 0.958 . S
C5085 N35 0.942 . S
C5104 N1025 0.933 . S
C5121 N926 0.941 . S
C5140 N68 0.928 . S
C5157 N959 0.942 . S
C5176 N101 0.933 . S
C5193 N134 0.941 . S
C5212 N860 0.927 . S
C5229 N893 0.943 . S
C5248 N167 0.958 . S
C5265 N794 0.947 . S
C5284 N200 0.957 . S
C5301 N827 0.942 . S
C5320 N233 0.935 . S
C5337 N266 0.944 . S
C5356 N332 0.940 . S
C5373 N299 0.941 . S
C5392 N365 0.944 . S
C5409 N464 0.946 . S
C5428 N398 0.957 . S
C5445 N431 0.944 . S
C5464 N497 0.957 . S
C5481 N530 0.945 . S
C5500 N563 0.952 . S
C5517 N1553 0.942 . S
C5536 N596 0.957 . S
C5553 N1487 0.947 . S
C5572 N629 0.958 . S
C5589 N662 0.943 . S
C5608 N728 0.932 . S
C5625 N695 0.945 . S
C5644 N1421 0.950 . S
C5661 N761 0.942 . S
C5680 N1388 0.934 . S
C5697 N1124 0.941 . S
C5716 N1058 0.927 . S
C5733 N1157 0.946 . S
C5752 N1091 0.949 . S
C5769 N1256 0.947 . S
C5788 N1190 0.957 . S
C5805 N1289 0.941 . S
C5824 N1223 0.941 . S
C5841 N1322 0.946 . S
C5860 N1355 0.949 . S
C5877 N1520 0.943 . S
C5896 N1454 0.958 . S
