# Generated by pormake.
# Topology fau, (4)-cn, num edge types: 1
# Building blocks:
#     Node 0, Type 0, BuildingBlock: CEKHIL_clean_sbu_0, # of connection points: 4
#     Node 1, Type 0, BuildingBlock: CEKHIL_clean_sbu_0, # of connection points: 4
#     Node 2, Type 0, BuildingBlock: CEKHIL_clean_sbu_0, # of connection points: 4
#     Node 3, Type 0, BuildingBlock: CEKHIL_clean_sbu_0, # of connection points: 4
#     Node 4, Type 0, BuildingBlock: CEKHIL_clean_sbu_0, # of connection points: 4
#     Node 5, Type 0, BuildingBlock: CEKHIL_clean_sbu_0, # of connection points: 4
#     Node 6, Type 0, BuildingBlock: CEKHIL_clean_sbu_0, # of connection points: 4
#     Node 7, Type 0, BuildingBlock: CEKHIL_clean_sbu_0, # of connection points: 4
#     Node 8, Type 0, BuildingBlock: CEKHIL_clean_sbu_0, # of connection points: 4
#     Node 9, Type 0, BuildingBlock: CEKHIL_clean_sbu_0, # of connection points: 4
#     Node 10, Type 0, BuildingBlock: CEKHIL_clean_sbu_0, # of connection points: 4
#     Node 11, Type 0, BuildingBlock: CEKHIL_clean_sbu_0, # of connection points: 4
#     Node 12, Type 0, BuildingBlock: CEKHIL_clean_sbu_0, # of connection points: 4
#     Node 13, Type 0, BuildingBlock: CEKHIL_clean_sbu_0, # of connection points: 4
#     Node 14, Type 0, BuildingBlock: CEKHIL_clean_sbu_0, # of connection points: 4
#     Node 15, Type 0, BuildingBlock: CEKHIL_clean_sbu_0, # of connection points: 4
#     Node 16, Type 0, BuildingBlock: CEKHIL_clean_sbu_0, # of connection points: 4
#     Node 17, Type 0, BuildingBlock: CEKHIL_clean_sbu_0, # of connection points: 4
#     Node 18, Type 0, BuildingBlock: CEKHIL_clean_sbu_0, # of connection points: 4
#     Node 19, Type 0, BuildingBlock: CEKHIL_clean_sbu_0, # of connection points: 4
#     Node 20, Type 0, BuildingBlock: CEKHIL_clean_sbu_0, # of connection points: 4
#     Node 21, Type 0, BuildingBlock: CEKHIL_clean_sbu_0, # of connection points: 4
#     Node 22, Type 0, BuildingBlock: CEKHIL_clean_sbu_0, # of connection points: 4
#     Node 23, Type 0, BuildingBlock: CEKHIL_clean_sbu_0, # of connection points: 4
#     Node 24, Type 0, BuildingBlock: CEKHIL_clean_sbu_0, # of connection points: 4
#     Node 25, Type 0, BuildingBlock: CEKHIL_clean_sbu_0, # of connection points: 4
#     Node 26, Type 0, BuildingBlock: CEKHIL_clean_sbu_0, # of connection points: 4
#     Node 27, Type 0, BuildingBlock: CEKHIL_clean_sbu_0, # of connection points: 4
#     Node 28, Type 0, BuildingBlock: CEKHIL_clean_sbu_0, # of connection points: 4
#     Node 29, Type 0, BuildingBlock: CEKHIL_clean_sbu_0, # of connection points: 4
#     Node 30, Type 0, BuildingBlock: CEKHIL_clean_sbu_0, # of connection points: 4
#     Node 31, Type 0, BuildingBlock: CEKHIL_clean_sbu_0, # of connection points: 4
#     Node 32, Type 0, BuildingBlock: CEKHIL_clean_sbu_0, # of connection points: 4
#     Node 33, Type 0, BuildingBlock: CEKHIL_clean_sbu_0, # of connection points: 4
#     Node 34, Type 0, BuildingBlock: CEKHIL_clean_sbu_0, # of connection points: 4
#     Node 35, Type 0, BuildingBlock: CEKHIL_clean_sbu_0, # of connection points: 4
#     Node 36, Type 0, BuildingBlock: CEKHIL_clean_sbu_0, # of connection points: 4
#     Node 37, Type 0, BuildingBlock: CEKHIL_clean_sbu_0, # of connection points: 4
#     Node 38, Type 0, BuildingBlock: CEKHIL_clean_sbu_0, # of connection points: 4
#     Node 39, Type 0, BuildingBlock: CEKHIL_clean_sbu_0, # of connection points: 4
#     Node 40, Type 0, BuildingBlock: CEKHIL_clean_sbu_0, # of connection points: 4
#     Node 41, Type 0, BuildingBlock: CEKHIL_clean_sbu_0, # of connection points: 4
#     Node 42, Type 0, BuildingBlock: CEKHIL_clean_sbu_0, # of connection points: 4
#     Node 43, Type 0, BuildingBlock: CEKHIL_clean_sbu_0, # of connection points: 4
#     Node 44, Type 0, BuildingBlock: CEKHIL_clean_sbu_0, # of connection points: 4
#     Node 45, Type 0, BuildingBlock: CEKHIL_clean_sbu_0, # of connection points: 4
#     Node 46, Type 0, BuildingBlock: CEKHIL_clean_sbu_0, # of connection points: 4
#     Node 47, Type 0, BuildingBlock: CEKHIL_clean_sbu_0, # of connection points: 4
#     Node 48, Type 0, BuildingBlock: CEKHIL_clean_sbu_0, # of connection points: 4
#     Node 49, Type 0, BuildingBlock: CEKHIL_clean_sbu_0, # of connection points: 4
#     Node 50, Type 0, BuildingBlock: CEKHIL_clean_sbu_0, # of connection points: 4
#     Node 51, Type 0, BuildingBlock: CEKHIL_clean_sbu_0, # of connection points: 4
#     Node 52, Type 0, BuildingBlock: CEKHIL_clean_sbu_0, # of connection points: 4
#     Node 53, Type 0, BuildingBlock: CEKHIL_clean_sbu_0, # of connection points: 4
#     Node 54, Type 0, BuildingBlock: CEKHIL_clean_sbu_0, # of connection points: 4
#     Node 55, Type 0, BuildingBlock: CEKHIL_clean_sbu_0, # of connection points: 4
#     Node 56, Type 0, BuildingBlock: CEKHIL_clean_sbu_0, # of connection points: 4
#     Node 57, Type 0, BuildingBlock: CEKHIL_clean_sbu_0, # of connection points: 4
#     Node 58, Type 0, BuildingBlock: CEKHIL_clean_sbu_0, # of connection points: 4
#     Node 59, Type 0, BuildingBlock: CEKHIL_clean_sbu_0, # of connection points: 4
#     Node 60, Type 0, BuildingBlock: CEKHIL_clean_sbu_0, # of connection points: 4
#     Node 61, Type 0, BuildingBlock: CEKHIL_clean_sbu_0, # of connection points: 4
#     Node 62, Type 0, BuildingBlock: CEKHIL_clean_sbu_0, # of connection points: 4
#     Node 63, Type 0, BuildingBlock: CEKHIL_clean_sbu_0, # of connection points: 4
#     Node 64, Type 0, BuildingBlock: CEKHIL_clean_sbu_0, # of connection points: 4
#     Node 65, Type 0, BuildingBlock: CEKHIL_clean_sbu_0, # of connection points: 4
#     Node 66, Type 0, BuildingBlock: CEKHIL_clean_sbu_0, # of connection points: 4
#     Node 67, Type 0, BuildingBlock: CEKHIL_clean_sbu_0, # of connection points: 4
#     Node 68, Type 0, BuildingBlock: CEKHIL_clean_sbu_0, # of connection points: 4
#     Node 69, Type 0, BuildingBlock: CEKHIL_clean_sbu_0, # of connection points: 4
#     Node 70, Type 0, BuildingBlock: CEKHIL_clean_sbu_0, # of connection points: 4
#     Node 71, Type 0, BuildingBlock: CEKHIL_clean_sbu_0, # of connection points: 4
#     Node 72, Type 0, BuildingBlock: CEKHIL_clean_sbu_0, # of connection points: 4
#     Node 73, Type 0, BuildingBlock: CEKHIL_clean_sbu_0, # of connection points: 4
#     Node 74, Type 0, BuildingBlock: CEKHIL_clean_sbu_0, # of connection points: 4
#     Node 75, Type 0, BuildingBlock: CEKHIL_clean_sbu_0, # of connection points: 4
#     Node 76, Type 0, BuildingBlock: CEKHIL_clean_sbu_0, # of connection points: 4
#     Node 77, Type 0, BuildingBlock: CEKHIL_clean_sbu_0, # of connection points: 4
#     Node 78, Type 0, BuildingBlock: CEKHIL_clean_sbu_0, # of connection points: 4
#     Node 79, Type 0, BuildingBlock: CEKHIL_clean_sbu_0, # of connection points: 4
#     Node 80, Type 0, BuildingBlock: CEKHIL_clean_sbu_0, # of connection points: 4
#     Node 81, Type 0, BuildingBlock: CEKHIL_clean_sbu_0, # of connection points: 4
#     Node 82, Type 0, BuildingBlock: CEKHIL_clean_sbu_0, # of connection points: 4
#     Node 83, Type 0, BuildingBlock: CEKHIL_clean_sbu_0, # of connection points: 4
#     Node 84, Type 0, BuildingBlock: CEKHIL_clean_sbu_0, # of connection points: 4
#     Node 85, Type 0, BuildingBlock: CEKHIL_clean_sbu_0, # of connection points: 4
#     Node 86, Type 0, BuildingBlock: CEKHIL_clean_sbu_0, # of connection points: 4
#     Node 87, Type 0, BuildingBlock: CEKHIL_clean_sbu_0, # of connection points: 4
#     Node 88, Type 0, BuildingBlock: CEKHIL_clean_sbu_0, # of connection points: 4
#     Node 89, Type 0, BuildingBlock: CEKHIL_clean_sbu_0, # of connection points: 4
#     Node 90, Type 0, BuildingBlock: CEKHIL_clean_sbu_0, # of connection points: 4
#     Node 91, Type 0, BuildingBlock: CEKHIL_clean_sbu_0, # of connection points: 4
#     Node 92, Type 0, BuildingBlock: CEKHIL_clean_sbu_0, # of connection points: 4
#     Node 93, Type 0, BuildingBlock: CEKHIL_clean_sbu_0, # of connection points: 4
#     Node 94, Type 0, BuildingBlock: CEKHIL_clean_sbu_0, # of connection points: 4
#     Node 95, Type 0, BuildingBlock: CEKHIL_clean_sbu_0, # of connection points: 4
#     Node 96, Type 0, BuildingBlock: CEKHIL_clean_sbu_0, # of connection points: 4
#     Node 97, Type 0, BuildingBlock: CEKHIL_clean_sbu_0, # of connection points: 4
#     Node 98, Type 0, BuildingBlock: CEKHIL_clean_sbu_0, # of connection points: 4
#     Node 99, Type 0, BuildingBlock: CEKHIL_clean_sbu_0, # of connection points: 4
#     Node 100, Type 0, BuildingBlock: CEKHIL_clean_sbu_0, # of connection points: 4
#     Node 101, Type 0, BuildingBlock: CEKHIL_clean_sbu_0, # of connection points: 4
#     Node 102, Type 0, BuildingBlock: CEKHIL_clean_sbu_0, # of connection points: 4
#     Node 103, Type 0, BuildingBlock: CEKHIL_clean_sbu_0, # of connection points: 4
#     Node 104, Type 0, BuildingBlock: CEKHIL_clean_sbu_0, # of connection points: 4
#     Node 105, Type 0, BuildingBlock: CEKHIL_clean_sbu_0, # of connection points: 4
#     Node 106, Type 0, BuildingBlock: CEKHIL_clean_sbu_0, # of connection points: 4
#     Node 107, Type 0, BuildingBlock: CEKHIL_clean_sbu_0, # of connection points: 4
#     Node 108, Type 0, BuildingBlock: CEKHIL_clean_sbu_0, # of connection points: 4
#     Node 109, Type 0, BuildingBlock: CEKHIL_clean_sbu_0, # of connection points: 4
#     Node 110, Type 0, BuildingBlock: CEKHIL_clean_sbu_0, # of connection points: 4
#     Node 111, Type 0, BuildingBlock: CEKHIL_clean_sbu_0, # of connection points: 4
#     Node 112, Type 0, BuildingBlock: CEKHIL_clean_sbu_0, # of connection points: 4
#     Node 113, Type 0, BuildingBlock: CEKHIL_clean_sbu_0, # of connection points: 4
#     Node 114, Type 0, BuildingBlock: CEKHIL_clean_sbu_0, # of connection points: 4
#     Node 115, Type 0, BuildingBlock: CEKHIL_clean_sbu_0, # of connection points: 4
#     Node 116, Type 0, BuildingBlock: CEKHIL_clean_sbu_0, # of connection points: 4
#     Node 117, Type 0, BuildingBlock: CEKHIL_clean_sbu_0, # of connection points: 4
#     Node 118, Type 0, BuildingBlock: CEKHIL_clean_sbu_0, # of connection points: 4
#     Node 119, Type 0, BuildingBlock: CEKHIL_clean_sbu_0, # of connection points: 4
#     Node 120, Type 0, BuildingBlock: CEKHIL_clean_sbu_0, # of connection points: 4
#     Node 121, Type 0, BuildingBlock: CEKHIL_clean_sbu_0, # of connection points: 4
#     Node 122, Type 0, BuildingBlock: CEKHIL_clean_sbu_0, # of connection points: 4
#     Node 123, Type 0, BuildingBlock: CEKHIL_clean_sbu_0, # of connection points: 4
#     Node 124, Type 0, BuildingBlock: CEKHIL_clean_sbu_0, # of connection points: 4
#     Node 125, Type 0, BuildingBlock: CEKHIL_clean_sbu_0, # of connection points: 4
#     Node 126, Type 0, BuildingBlock: CEKHIL_clean_sbu_0, # of connection points: 4
#     Node 127, Type 0, BuildingBlock: CEKHIL_clean_sbu_0, # of connection points: 4
#     Node 128, Type 0, BuildingBlock: CEKHIL_clean_sbu_0, # of connection points: 4
#     Node 129, Type 0, BuildingBlock: CEKHIL_clean_sbu_0, # of connection points: 4
#     Node 130, Type 0, BuildingBlock: CEKHIL_clean_sbu_0, # of connection points: 4
#     Node 131, Type 0, BuildingBlock: CEKHIL_clean_sbu_0, # of connection points: 4
#     Node 132, Type 0, BuildingBlock: CEKHIL_clean_sbu_0, # of connection points: 4
#     Node 133, Type 0, BuildingBlock: CEKHIL_clean_sbu_0, # of connection points: 4
#     Node 134, Type 0, BuildingBlock: CEKHIL_clean_sbu_0, # of connection points: 4
#     Node 135, Type 0, BuildingBlock: CEKHIL_clean_sbu_0, # of connection points: 4
#     Node 136, Type 0, BuildingBlock: CEKHIL_clean_sbu_0, # of connection points: 4
#     Node 137, Type 0, BuildingBlock: CEKHIL_clean_sbu_0, # of connection points: 4
#     Node 138, Type 0, BuildingBlock: CEKHIL_clean_sbu_0, # of connection points: 4
#     Node 139, Type 0, BuildingBlock: CEKHIL_clean_sbu_0, # of connection points: 4
#     Node 140, Type 0, BuildingBlock: CEKHIL_clean_sbu_0, # of connection points: 4
#     Node 141, Type 0, BuildingBlock: CEKHIL_clean_sbu_0, # of connection points: 4
#     Node 142, Type 0, BuildingBlock: CEKHIL_clean_sbu_0, # of connection points: 4
#     Node 143, Type 0, BuildingBlock: CEKHIL_clean_sbu_0, # of connection points: 4
#     Node 144, Type 0, BuildingBlock: CEKHIL_clean_sbu_0, # of connection points: 4
#     Node 145, Type 0, BuildingBlock: CEKHIL_clean_sbu_0, # of connection points: 4
#     Node 146, Type 0, BuildingBlock: CEKHIL_clean_sbu_0, # of connection points: 4
#     Node 147, Type 0, BuildingBlock: CEKHIL_clean_sbu_0, # of connection points: 4
#     Node 148, Type 0, BuildingBlock: CEKHIL_clean_sbu_0, # of connection points: 4
#     Node 149, Type 0, BuildingBlock: CEKHIL_clean_sbu_0, # of connection points: 4
#     Node 150, Type 0, BuildingBlock: CEKHIL_clean_sbu_0, # of connection points: 4
#     Node 151, Type 0, BuildingBlock: CEKHIL_clean_sbu_0, # of connection points: 4
#     Node 152, Type 0, BuildingBlock: CEKHIL_clean_sbu_0, # of connection points: 4
#     Node 153, Type 0, BuildingBlock: CEKHIL_clean_sbu_0, # of connection points: 4
#     Node 154, Type 0, BuildingBlock: CEKHIL_clean_sbu_0, # of connection points: 4
#     Node 155, Type 0, BuildingBlock: CEKHIL_clean_sbu_0, # of connection points: 4
#     Node 156, Type 0, BuildingBlock: CEKHIL_clean_sbu_0, # of connection points: 4
#     Node 157, Type 0, BuildingBlock: CEKHIL_clean_sbu_0, # of connection points: 4
#     Node 158, Type 0, BuildingBlock: CEKHIL_clean_sbu_0, # of connection points: 4
#     Node 159, Type 0, BuildingBlock: CEKHIL_clean_sbu_0, # of connection points: 4
#     Node 160, Type 0, BuildingBlock: CEKHIL_clean_sbu_0, # of connection points: 4
#     Node 161, Type 0, BuildingBlock: CEKHIL_clean_sbu_0, # of connection points: 4
#     Node 162, Type 0, BuildingBlock: CEKHIL_clean_sbu_0, # of connection points: 4
#     Node 163, Type 0, BuildingBlock: CEKHIL_clean_sbu_0, # of connection points: 4
#     Node 164, Type 0, BuildingBlock: CEKHIL_clean_sbu_0, # of connection points: 4
#     Node 165, Type 0, BuildingBlock: CEKHIL_clean_sbu_0, # of connection points: 4
#     Node 166, Type 0, BuildingBlock: CEKHIL_clean_sbu_0, # of connection points: 4
#     Node 167, Type 0, BuildingBlock: CEKHIL_clean_sbu_0, # of connection points: 4
#     Node 168, Type 0, BuildingBlock: CEKHIL_clean_sbu_0, # of connection points: 4
#     Node 169, Type 0, BuildingBlock: CEKHIL_clean_sbu_0, # of connection points: 4
#     Node 170, Type 0, BuildingBlock: CEKHIL_clean_sbu_0, # of connection points: 4
#     Node 171, Type 0, BuildingBlock: CEKHIL_clean_sbu_0, # of connection points: 4
#     Node 172, Type 0, BuildingBlock: CEKHIL_clean_sbu_0, # of connection points: 4
#     Node 173, Type 0, BuildingBlock: CEKHIL_clean_sbu_0, # of connection points: 4
#     Node 174, Type 0, BuildingBlock: CEKHIL_clean_sbu_0, # of connection points: 4
#     Node 175, Type 0, BuildingBlock: CEKHIL_clean_sbu_0, # of connection points: 4
#     Node 176, Type 0, BuildingBlock: CEKHIL_clean_sbu_0, # of connection points: 4
#     Node 177, Type 0, BuildingBlock: CEKHIL_clean_sbu_0, # of connection points: 4
#     Node 178, Type 0, BuildingBlock: CEKHIL_clean_sbu_0, # of connection points: 4
#     Node 179, Type 0, BuildingBlock: CEKHIL_clean_sbu_0, # of connection points: 4
#     Node 180, Type 0, BuildingBlock: CEKHIL_clean_sbu_0, # of connection points: 4
#     Node 181, Type 0, BuildingBlock: CEKHIL_clean_sbu_0, # of connection points: 4
#     Node 182, Type 0, BuildingBlock: CEKHIL_clean_sbu_0, # of connection points: 4
#     Node 183, Type 0, BuildingBlock: CEKHIL_clean_sbu_0, # of connection points: 4
#     Node 184, Type 0, BuildingBlock: CEKHIL_clean_sbu_0, # of connection points: 4
#     Node 185, Type 0, BuildingBlock: CEKHIL_clean_sbu_0, # of connection points: 4
#     Node 186, Type 0, BuildingBlock: CEKHIL_clean_sbu_0, # of connection points: 4
#     Node 187, Type 0, BuildingBlock: CEKHIL_clean_sbu_0, # of connection points: 4
#     Node 188, Type 0, BuildingBlock: CEKHIL_clean_sbu_0, # of connection points: 4
#     Node 189, Type 0, BuildingBlock: CEKHIL_clean_sbu_0, # of connection points: 4
#     Node 190, Type 0, BuildingBlock: CEKHIL_clean_sbu_0, # of connection points: 4
#     Node 191, Type 0, BuildingBlock: CEKHIL_clean_sbu_0, # of connection points: 4
#     Edge 192, Type (0, 0), None
#     Edge 193, Type (0, 0), None
#     Edge 194, Type (0, 0), None
#     Edge 195, Type (0, 0), None
#     Edge 196, Type (0, 0), None
#     Edge 197, Type (0, 0), None
#     Edge 198, Type (0, 0), None
#     Edge 199, Type (0, 0), None
#     Edge 200, Type (0, 0), None
#     Edge 201, Type (0, 0), None
#     Edge 202, Type (0, 0), None
#     Edge 203, Type (0, 0), None
#     Edge 204, Type (0, 0), None
#     Edge 205, Type (0, 0), None
#     Edge 206, Type (0, 0), None
#     Edge 207, Type (0, 0), None
#     Edge 208, Type (0, 0), None
#     Edge 209, Type (0, 0), None
#     Edge 210, Type (0, 0), None
#     Edge 211, Type (0, 0), None
#     Edge 212, Type (0, 0), None
#     Edge 213, Type (0, 0), None
#     Edge 214, Type (0, 0), None
#     Edge 215, Type (0, 0), None
#     Edge 216, Type (0, 0), None
#     Edge 217, Type (0, 0), None
#     Edge 218, Type (0, 0), None
#     Edge 219, Type (0, 0), None
#     Edge 220, Type (0, 0), None
#     Edge 221, Type (0, 0), None
#     Edge 222, Type (0, 0), None
#     Edge 223, Type (0, 0), None
#     Edge 224, Type (0, 0), None
#     Edge 225, Type (0, 0), None
#     Edge 226, Type (0, 0), None
#     Edge 227, Type (0, 0), None
#     Edge 228, Type (0, 0), None
#     Edge 229, Type (0, 0), None
#     Edge 230, Type (0, 0), None
#     Edge 231, Type (0, 0), None
#     Edge 232, Type (0, 0), None
#     Edge 233, Type (0, 0), None
#     Edge 234, Type (0, 0), None
#     Edge 235, Type (0, 0), None
#     Edge 236, Type (0, 0), None
#     Edge 237, Type (0, 0), None
#     Edge 238, Type (0, 0), None
#     Edge 239, Type (0, 0), None
#     Edge 240, Type (0, 0), None
#     Edge 241, Type (0, 0), None
#     Edge 242, Type (0, 0), None
#     Edge 243, Type (0, 0), None
#     Edge 244, Type (0, 0), None
#     Edge 245, Type (0, 0), None
#     Edge 246, Type (0, 0), None
#     Edge 247, Type (0, 0), None
#     Edge 248, Type (0, 0), None
#     Edge 249, Type (0, 0), None
#     Edge 250, Type (0, 0), None
#     Edge 251, Type (0, 0), None
#     Edge 252, Type (0, 0), None
#     Edge 253, Type (0, 0), None
#     Edge 254, Type (0, 0), None
#     Edge 255, Type (0, 0), None
#     Edge 256, Type (0, 0), None
#     Edge 257, Type (0, 0), None
#     Edge 258, Type (0, 0), None
#     Edge 259, Type (0, 0), None
#     Edge 260, Type (0, 0), None
#     Edge 261, Type (0, 0), None
#     Edge 262, Type (0, 0), None
#     Edge 263, Type (0, 0), None
#     Edge 264, Type (0, 0), None
#     Edge 265, Type (0, 0), None
#     Edge 266, Type (0, 0), None
#     Edge 267, Type (0, 0), None
#     Edge 268, Type (0, 0), None
#     Edge 269, Type (0, 0), None
#     Edge 270, Type (0, 0), None
#     Edge 271, Type (0, 0), None
#     Edge 272, Type (0, 0), None
#     Edge 273, Type (0, 0), None
#     Edge 274, Type (0, 0), None
#     Edge 275, Type (0, 0), None
#     Edge 276, Type (0, 0), None
#     Edge 277, Type (0, 0), None
#     Edge 278, Type (0, 0), None
#     Edge 279, Type (0, 0), None
#     Edge 280, Type (0, 0), None
#     Edge 281, Type (0, 0), None
#     Edge 282, Type (0, 0), None
#     Edge 283, Type (0, 0), None
#     Edge 284, Type (0, 0), None
#     Edge 285, Type (0, 0), None
#     Edge 286, Type (0, 0), None
#     Edge 287, Type (0, 0), None
#     Edge 288, Type (0, 0), None
#     Edge 289, Type (0, 0), None
#     Edge 290, Type (0, 0), None
#     Edge 291, Type (0, 0), None
#     Edge 292, Type (0, 0), None
#     Edge 293, Type (0, 0), None
#     Edge 294, Type (0, 0), None
#     Edge 295, Type (0, 0), None
#     Edge 296, Type (0, 0), None
#     Edge 297, Type (0, 0), None
#     Edge 298, Type (0, 0), None
#     Edge 299, Type (0, 0), None
#     Edge 300, Type (0, 0), None
#     Edge 301, Type (0, 0), None
#     Edge 302, Type (0, 0), None
#     Edge 303, Type (0, 0), None
#     Edge 304, Type (0, 0), None
#     Edge 305, Type (0, 0), None
#     Edge 306, Type (0, 0), None
#     Edge 307, Type (0, 0), None
#     Edge 308, Type (0, 0), None
#     Edge 309, Type (0, 0), None
#     Edge 310, Type (0, 0), None
#     Edge 311, Type (0, 0), None
#     Edge 312, Type (0, 0), None
#     Edge 313, Type (0, 0), None
#     Edge 314, Type (0, 0), None
#     Edge 315, Type (0, 0), None
#     Edge 316, Type (0, 0), None
#     Edge 317, Type (0, 0), None
#     Edge 318, Type (0, 0), None
#     Edge 319, Type (0, 0), None
#     Edge 320, Type (0, 0), None
#     Edge 321, Type (0, 0), None
#     Edge 322, Type (0, 0), None
#     Edge 323, Type (0, 0), None
#     Edge 324, Type (0, 0), None
#     Edge 325, Type (0, 0), None
#     Edge 326, Type (0, 0), None
#     Edge 327, Type (0, 0), None
#     Edge 328, Type (0, 0), None
#     Edge 329, Type (0, 0), None
#     Edge 330, Type (0, 0), None
#     Edge 331, Type (0, 0), None
#     Edge 332, Type (0, 0), None
#     Edge 333, Type (0, 0), None
#     Edge 334, Type (0, 0), None
#     Edge 335, Type (0, 0), None
#     Edge 336, Type (0, 0), None
#     Edge 337, Type (0, 0), None
#     Edge 338, Type (0, 0), None
#     Edge 339, Type (0, 0), None
#     Edge 340, Type (0, 0), None
#     Edge 341, Type (0, 0), None
#     Edge 342, Type (0, 0), None
#     Edge 343, Type (0, 0), None
#     Edge 344, Type (0, 0), None
#     Edge 345, Type (0, 0), None
#     Edge 346, Type (0, 0), None
#     Edge 347, Type (0, 0), None
#     Edge 348, Type (0, 0), None
#     Edge 349, Type (0, 0), None
#     Edge 350, Type (0, 0), None
#     Edge 351, Type (0, 0), None
#     Edge 352, Type (0, 0), None
#     Edge 353, Type (0, 0), None
#     Edge 354, Type (0, 0), None
#     Edge 355, Type (0, 0), None
#     Edge 356, Type (0, 0), None
#     Edge 357, Type (0, 0), None
#     Edge 358, Type (0, 0), None
#     Edge 359, Type (0, 0), None
#     Edge 360, Type (0, 0), None
#     Edge 361, Type (0, 0), None
#     Edge 362, Type (0, 0), None
#     Edge 363, Type (0, 0), None
#     Edge 364, Type (0, 0), None
#     Edge 365, Type (0, 0), None
#     Edge 366, Type (0, 0), None
#     Edge 367, Type (0, 0), None
#     Edge 368, Type (0, 0), None
#     Edge 369, Type (0, 0), None
#     Edge 370, Type (0, 0), None
#     Edge 371, Type (0, 0), None
#     Edge 372, Type (0, 0), None
#     Edge 373, Type (0, 0), None
#     Edge 374, Type (0, 0), None
#     Edge 375, Type (0, 0), None
#     Edge 376, Type (0, 0), None
#     Edge 377, Type (0, 0), None
#     Edge 378, Type (0, 0), None
#     Edge 379, Type (0, 0), None
#     Edge 380, Type (0, 0), None
#     Edge 381, Type (0, 0), None
#     Edge 382, Type (0, 0), None
#     Edge 383, Type (0, 0), None
#     Edge 384, Type (0, 0), None
#     Edge 385, Type (0, 0), None
#     Edge 386, Type (0, 0), None
#     Edge 387, Type (0, 0), None
#     Edge 388, Type (0, 0), None
#     Edge 389, Type (0, 0), None
#     Edge 390, Type (0, 0), None
#     Edge 391, Type (0, 0), None
#     Edge 392, Type (0, 0), None
#     Edge 393, Type (0, 0), None
#     Edge 394, Type (0, 0), None
#     Edge 395, Type (0, 0), None
#     Edge 396, Type (0, 0), None
#     Edge 397, Type (0, 0), None
#     Edge 398, Type (0, 0), None
#     Edge 399, Type (0, 0), None
#     Edge 400, Type (0, 0), None
#     Edge 401, Type (0, 0), None
#     Edge 402, Type (0, 0), None
#     Edge 403, Type (0, 0), None
#     Edge 404, Type (0, 0), None
#     Edge 405, Type (0, 0), None
#     Edge 406, Type (0, 0), None
#     Edge 407, Type (0, 0), None
#     Edge 408, Type (0, 0), None
#     Edge 409, Type (0, 0), None
#     Edge 410, Type (0, 0), None
#     Edge 411, Type (0, 0), None
#     Edge 412, Type (0, 0), None
#     Edge 413, Type (0, 0), None
#     Edge 414, Type (0, 0), None
#     Edge 415, Type (0, 0), None
#     Edge 416, Type (0, 0), None
#     Edge 417, Type (0, 0), None
#     Edge 418, Type (0, 0), None
#     Edge 419, Type (0, 0), None
#     Edge 420, Type (0, 0), None
#     Edge 421, Type (0, 0), None
#     Edge 422, Type (0, 0), None
#     Edge 423, Type (0, 0), None
#     Edge 424, Type (0, 0), None
#     Edge 425, Type (0, 0), None
#     Edge 426, Type (0, 0), None
#     Edge 427, Type (0, 0), None
#     Edge 428, Type (0, 0), None
#     Edge 429, Type (0, 0), None
#     Edge 430, Type (0, 0), None
#     Edge 431, Type (0, 0), None
#     Edge 432, Type (0, 0), None
#     Edge 433, Type (0, 0), None
#     Edge 434, Type (0, 0), None
#     Edge 435, Type (0, 0), None
#     Edge 436, Type (0, 0), None
#     Edge 437, Type (0, 0), None
#     Edge 438, Type (0, 0), None
#     Edge 439, Type (0, 0), None
#     Edge 440, Type (0, 0), None
#     Edge 441, Type (0, 0), None
#     Edge 442, Type (0, 0), None
#     Edge 443, Type (0, 0), None
#     Edge 444, Type (0, 0), None
#     Edge 445, Type (0, 0), None
#     Edge 446, Type (0, 0), None
#     Edge 447, Type (0, 0), None
#     Edge 448, Type (0, 0), None
#     Edge 449, Type (0, 0), None
#     Edge 450, Type (0, 0), None
#     Edge 451, Type (0, 0), None
#     Edge 452, Type (0, 0), None
#     Edge 453, Type (0, 0), None
#     Edge 454, Type (0, 0), None
#     Edge 455, Type (0, 0), None
#     Edge 456, Type (0, 0), None
#     Edge 457, Type (0, 0), None
#     Edge 458, Type (0, 0), None
#     Edge 459, Type (0, 0), None
#     Edge 460, Type (0, 0), None
#     Edge 461, Type (0, 0), None
#     Edge 462, Type (0, 0), None
#     Edge 463, Type (0, 0), None
#     Edge 464, Type (0, 0), None
#     Edge 465, Type (0, 0), None
#     Edge 466, Type (0, 0), None
#     Edge 467, Type (0, 0), None
#     Edge 468, Type (0, 0), None
#     Edge 469, Type (0, 0), None
#     Edge 470, Type (0, 0), None
#     Edge 471, Type (0, 0), None
#     Edge 472, Type (0, 0), None
#     Edge 473, Type (0, 0), None
#     Edge 474, Type (0, 0), None
#     Edge 475, Type (0, 0), None
#     Edge 476, Type (0, 0), None
#     Edge 477, Type (0, 0), None
#     Edge 478, Type (0, 0), None
#     Edge 479, Type (0, 0), None
#     Edge 480, Type (0, 0), None
#     Edge 481, Type (0, 0), None
#     Edge 482, Type (0, 0), None
#     Edge 483, Type (0, 0), None
#     Edge 484, Type (0, 0), None
#     Edge 485, Type (0, 0), None
#     Edge 486, Type (0, 0), None
#     Edge 487, Type (0, 0), None
#     Edge 488, Type (0, 0), None
#     Edge 489, Type (0, 0), None
#     Edge 490, Type (0, 0), None
#     Edge 491, Type (0, 0), None
#     Edge 492, Type (0, 0), None
#     Edge 493, Type (0, 0), None
#     Edge 494, Type (0, 0), None
#     Edge 495, Type (0, 0), None
#     Edge 496, Type (0, 0), None
#     Edge 497, Type (0, 0), None
#     Edge 498, Type (0, 0), None
#     Edge 499, Type (0, 0), None
#     Edge 500, Type (0, 0), None
#     Edge 501, Type (0, 0), None
#     Edge 502, Type (0, 0), None
#     Edge 503, Type (0, 0), None
#     Edge 504, Type (0, 0), None
#     Edge 505, Type (0, 0), None
#     Edge 506, Type (0, 0), None
#     Edge 507, Type (0, 0), None
#     Edge 508, Type (0, 0), None
#     Edge 509, Type (0, 0), None
#     Edge 510, Type (0, 0), None
#     Edge 511, Type (0, 0), None
#     Edge 512, Type (0, 0), None
#     Edge 513, Type (0, 0), None
#     Edge 514, Type (0, 0), None
#     Edge 515, Type (0, 0), None
#     Edge 516, Type (0, 0), None
#     Edge 517, Type (0, 0), None
#     Edge 518, Type (0, 0), None
#     Edge 519, Type (0, 0), None
#     Edge 520, Type (0, 0), None
#     Edge 521, Type (0, 0), None
#     Edge 522, Type (0, 0), None
#     Edge 523, Type (0, 0), None
#     Edge 524, Type (0, 0), None
#     Edge 525, Type (0, 0), None
#     Edge 526, Type (0, 0), None
#     Edge 527, Type (0, 0), None
#     Edge 528, Type (0, 0), None
#     Edge 529, Type (0, 0), None
#     Edge 530, Type (0, 0), None
#     Edge 531, Type (0, 0), None
#     Edge 532, Type (0, 0), None
#     Edge 533, Type (0, 0), None
#     Edge 534, Type (0, 0), None
#     Edge 535, Type (0, 0), None
#     Edge 536, Type (0, 0), None
#     Edge 537, Type (0, 0), None
#     Edge 538, Type (0, 0), None
#     Edge 539, Type (0, 0), None
#     Edge 540, Type (0, 0), None
#     Edge 541, Type (0, 0), None
#     Edge 542, Type (0, 0), None
#     Edge 543, Type (0, 0), None
#     Edge 544, Type (0, 0), None
#     Edge 545, Type (0, 0), None
#     Edge 546, Type (0, 0), None
#     Edge 547, Type (0, 0), None
#     Edge 548, Type (0, 0), None
#     Edge 549, Type (0, 0), None
#     Edge 550, Type (0, 0), None
#     Edge 551, Type (0, 0), None
#     Edge 552, Type (0, 0), None
#     Edge 553, Type (0, 0), None
#     Edge 554, Type (0, 0), None
#     Edge 555, Type (0, 0), None
#     Edge 556, Type (0, 0), None
#     Edge 557, Type (0, 0), None
#     Edge 558, Type (0, 0), None
#     Edge 559, Type (0, 0), None
#     Edge 560, Type (0, 0), None
#     Edge 561, Type (0, 0), None
#     Edge 562, Type (0, 0), None
#     Edge 563, Type (0, 0), None
#     Edge 564, Type (0, 0), None
#     Edge 565, Type (0, 0), None
#     Edge 566, Type (0, 0), None
#     Edge 567, Type (0, 0), None
#     Edge 568, Type (0, 0), None
#     Edge 569, Type (0, 0), None
#     Edge 570, Type (0, 0), None
#     Edge 571, Type (0, 0), None
#     Edge 572, Type (0, 0), None
#     Edge 573, Type (0, 0), None
#     Edge 574, Type (0, 0), None
#     Edge 575, Type (0, 0), None
# Relax obj value: 0.089
# Max RMSD: 0.073
# Mean RMSD: 0.073
data_MOF--net-fau--node1-CEKHIL_clean_sbu_0--edge1-none
_symmetry_space_group_name_H-M    P1
_symmetry_Int_Tables_number       1
_symmetry_cell_setting            triclinic
loop_
_symmetry_equiv_pos_as_xyz
'x, y, z'
_cell_length_a     52.034497
_cell_length_b     52.034497
_cell_length_c     52.034497
_cell_angle_alpha  90.0
_cell_angle_beta   90.0
_cell_angle_gamma 90.000001
loop_
_atom_site_label
_atom_site_type_symbol
_atom_site_fract_x
_atom_site_fract_y
_atom_site_fract_z
_atom_type_partial_charge
Co0 Co 0.04856 0.14335 0.46728 0.0
O1 O 0.06941 0.16612 0.4879 0.0
O2 O 0.0693 0.16533 0.44537 0.0
C3 C 0.01308 0.14957 0.49289 0.0
O4 O 0.03105 0.12191 0.43899 0.0
Co5 Co 0.01682 0.09695 0.48798 0.0
O6 O 0.99764 0.10098 0.45537 0.0
C7 C 0.0743 0.09436 0.48133 0.0
C8 C 0.07833 0.17519 0.46647 0.0
C9 C 1.01128 0.10732 0.43617 0.0
O10 O 0.07607 0.11558 0.46852 0.0
O11 O 0.05358 0.08697 0.49248 0.0
O12 O 0.01766 0.16598 0.47453 0.0
O13 O 0.02891 0.13093 0.49412 0.0
Co14 Co 0.88016 0.29856 0.71728 0.0
O15 O 0.8574 0.31941 0.7379 0.0
O16 O 0.85818 0.3193 0.69537 0.0
C17 C 0.87395 0.26308 0.74289 0.0
O18 O 0.90161 0.28105 0.68899 0.0
Co19 Co 0.92656 0.26681 0.73798 0.0
O20 O 0.92251 0.24763 0.70538 0.0
C21 C 0.92917 0.32429 0.73131 0.0
C22 C 0.84833 0.32833 0.71647 0.0
C23 C 0.91619 0.26127 0.68617 0.0
O24 O 0.90794 0.32607 0.71851 0.0
O25 O 0.93656 0.30357 0.74245 0.0
O26 O 0.85753 0.26767 0.72454 0.0
O27 O 0.89258 0.27891 0.74412 0.0
Co28 Co 0.72496 0.13016 0.96728 0.0
O29 O 0.7041 0.1074 0.9879 0.0
O30 O 0.70421 0.10818 0.94537 0.0
C31 C 0.76043 0.12394 0.99289 0.0
O32 O 0.74246 0.1516 0.93899 0.0
Co33 Co 0.75671 0.17656 0.98797 0.0
O34 O 0.77588 0.17251 0.95537 0.0
C35 C 0.69923 0.17917 0.98131 0.0
C36 C 0.69518 0.09833 0.96647 0.0
C37 C 0.76224 0.16618 0.93617 0.0
O38 O 0.69745 0.15794 0.96851 0.0
O39 O 0.71995 0.18656 0.99245 0.0
O40 O 0.75585 0.10753 0.97454 0.0
O41 O 0.7446 0.14258 0.99412 0.0
Co42 Co 0.89336 0.97496 0.21728 0.0
O43 O 0.91612 0.95411 0.2379 0.0
O44 O 0.91533 0.95421 0.19537 0.0
C45 C 0.89956 1.01044 0.24289 0.0
O46 O 0.87191 0.99246 0.18899 0.0
Co47 Co 0.84695 1.0067 0.23797 0.0
O48 O 0.85098 0.02586 0.20537 0.0
C49 C 0.84436 0.94921 0.23134 0.0
C50 C 0.92519 0.94519 0.21647 0.0
C51 C 0.85732 0.01222 0.18617 0.0
O52 O 0.86558 0.94744 0.21852 0.0
O53 O 0.83697 0.96993 0.24248 0.0
O54 O 0.91598 1.00585 0.22453 0.0
O55 O 0.88093 0.9946 0.24412 0.0
Co56 Co 0.04855 0.13016 0.80624 0.0
O57 O 0.0694 0.10739 0.78562 0.0
O58 O 0.0693 0.10818 0.82814 0.0
C59 C 0.01307 0.12395 0.78063 0.0
O60 O 0.03106 0.1516 0.83453 0.0
Co61 Co 0.01681 0.17656 0.78554 0.0
O62 O 0.99765 0.17254 0.81815 0.0
C63 C 0.0743 0.17915 0.79218 0.0
C64 C 0.07833 0.09832 0.80705 0.0
C65 C 1.01129 0.16619 0.83735 0.0
O66 O 0.07607 0.15793 0.805 0.0
O67 O 0.05358 0.18654 0.78104 0.0
O68 O 0.01766 0.10753 0.79898 0.0
O69 O 0.02891 0.14258 0.7794 0.0
Co70 Co 0.89335 0.29856 0.05624 0.0
O71 O 0.91611 0.31941 0.03562 0.0
O72 O 0.91533 0.3193 0.07815 0.0
C73 C 0.89956 0.26308 0.03063 0.0
O74 O 0.87191 0.28105 0.08453 0.0
Co75 Co 0.84695 0.26681 0.03554 0.0
O76 O 0.85099 0.24764 0.06815 0.0
C77 C 0.84435 0.32429 0.0422 0.0
C78 C 0.92519 0.32833 0.05705 0.0
C79 C 0.85733 0.26128 0.08735 0.0
O80 O 0.86557 0.32607 0.05501 0.0
O81 O 0.83696 0.30357 0.03106 0.0
O82 O 0.91599 0.26767 0.04898 0.0
O83 O 0.88093 0.27891 0.0294 0.0
Co84 Co 0.72496 0.14335 0.30624 0.0
O85 O 0.7041 0.16611 0.28562 0.0
O86 O 0.70421 0.16533 0.32815 0.0
C87 C 0.76043 0.14957 0.28062 0.0
O88 O 0.74246 0.12191 0.33452 0.0
Co89 Co 0.75671 0.09696 0.28554 0.0
O90 O 0.77588 0.101 0.31814 0.0
C91 C 0.69923 0.09435 0.29221 0.0
C92 C 0.69518 0.17519 0.30705 0.0
C93 C 0.76224 0.10733 0.33734 0.0
O94 O 0.69745 0.11557 0.30501 0.0
O95 O 0.71995 0.08695 0.28106 0.0
O96 O 0.75585 0.16599 0.29898 0.0
O97 O 0.7446 0.13093 0.27939 0.0
Co98 Co 0.88016 0.97496 0.55624 0.0
O99 O 0.85739 0.95411 0.53562 0.0
O100 O 0.85818 0.95421 0.57815 0.0
C101 C 0.87395 1.01044 0.53063 0.0
O102 O 0.90161 0.99246 0.58453 0.0
Co103 Co 0.92656 1.0067 0.53554 0.0
O104 O 0.92254 0.02587 0.56815 0.0
C105 C 0.92915 0.94921 0.54218 0.0
C106 C 0.84832 0.94519 0.55705 0.0
C107 C 0.91619 0.01223 0.58735 0.0
O108 O 0.90794 0.94744 0.555 0.0
O109 O 0.93654 0.96994 0.53103 0.0
O110 O 0.85753 1.00585 0.54899 0.0
O111 O 0.89258 0.9946 0.5294 0.0
Co112 Co 0.46728 0.04855 0.14335 0.0
O113 O 0.48789 0.06941 0.16612 0.0
O114 O 0.44537 0.0693 0.16533 0.0
C115 C 0.49289 0.01308 0.14957 0.0
O116 O 0.43899 0.03105 0.12191 0.0
Co117 Co 0.48798 0.01681 0.09695 0.0
O118 O 0.45537 0.99764 0.10098 0.0
C119 C 0.48133 0.0743 0.09436 0.0
C120 C 0.46646 0.07833 0.17519 0.0
C121 C 0.43617 1.01128 0.10732 0.0
O122 O 0.46851 0.07607 0.11558 0.0
O123 O 0.49248 0.05358 0.08697 0.0
O124 O 0.47453 0.01766 0.16598 0.0
O125 O 0.49412 0.02891 0.13093 0.0
Co126 Co 0.97496 0.71728 0.39335 0.0
O127 O 0.9541 0.73789 0.41612 0.0
O128 O 0.95421 0.69537 0.41533 0.0
C129 C 1.01043 0.74289 0.39957 0.0
O130 O 0.99246 0.68899 0.37191 0.0
Co131 Co 1.00671 0.73797 0.34696 0.0
O132 O 0.02588 0.70537 0.351 0.0
C133 C 0.94923 0.73131 0.34435 0.0
C134 C 0.94518 0.71646 0.42519 0.0
C135 C 0.01224 0.68617 0.35733 0.0
O136 O 0.94744 0.71851 0.36557 0.0
O137 O 0.96995 0.74245 0.33696 0.0
O138 O 1.00585 0.72453 0.41599 0.0
O139 O 0.9946 0.74412 0.38093 0.0
Co140 Co 0.30624 0.22496 0.64335 0.0
O141 O 0.28562 0.20411 0.66612 0.0
O142 O 0.32814 0.20421 0.66533 0.0
C143 C 0.28063 0.26044 0.64956 0.0
O144 O 0.33453 0.24245 0.6219 0.0
Co145 Co 0.28554 0.2567 0.59695 0.0
O146 O 0.31814 0.27587 0.60099 0.0
C147 C 0.29218 0.19921 0.59436 0.0
C148 C 0.30705 0.19518 0.67519 0.0
C149 C 0.33735 0.26223 0.60732 0.0
O150 O 0.305 0.19744 0.61558 0.0
O151 O 0.28104 0.21993 0.58697 0.0
O152 O 0.29898 0.25585 0.66598 0.0
O153 O 0.2794 0.2446 0.63093 0.0
Co154 Co 0.79856 0.55624 0.89336 0.0
O155 O 0.8194 0.53562 0.91612 0.0
O156 O 0.8193 0.57815 0.91533 0.0
C157 C 0.76307 0.53063 0.89957 0.0
O158 O 0.78106 0.58453 0.87191 0.0
Co159 Co 0.76682 0.53554 0.84695 0.0
O160 O 0.74765 0.56815 0.85098 0.0
C161 C 0.8243 0.54218 0.84437 0.0
C162 C 0.82833 0.55705 0.92519 0.0
C163 C 0.76129 0.58735 0.85732 0.0
O164 O 0.82607 0.555 0.86558 0.0
O165 O 0.80358 0.53103 0.83697 0.0
O166 O 0.76766 0.54899 0.91599 0.0
O167 O 0.77891 0.5294 0.88093 0.0
Co168 Co 0.46727 0.22496 0.13016 0.0
O169 O 0.48789 0.20411 0.1074 0.0
O170 O 0.44537 0.20421 0.10818 0.0
C171 C 0.49288 0.26044 0.12395 0.0
O172 O 0.43898 0.24246 0.1516 0.0
Co173 Co 0.48796 0.25671 0.17656 0.0
O174 O 0.45536 0.27587 0.17253 0.0
C175 C 0.48131 0.19922 0.17916 0.0
C176 C 0.46646 0.19518 0.09832 0.0
C177 C 0.43616 0.26223 0.16619 0.0
O178 O 0.4685 0.19745 0.15794 0.0
O179 O 0.49245 0.21995 0.18655 0.0
O180 O 0.47453 0.25585 0.10753 0.0
O181 O 0.49411 0.2446 0.14258 0.0
Co182 Co 0.79855 0.71728 0.38016 0.0
O183 O 0.8194 0.7379 0.3574 0.0
O184 O 0.8193 0.69537 0.35818 0.0
C185 C 0.76307 0.74288 0.37395 0.0
O186 O 0.78106 0.68899 0.40161 0.0
Co187 Co 0.76682 0.73797 0.42656 0.0
O188 O 0.74765 0.70537 0.42254 0.0
C189 C 0.8243 0.73134 0.42915 0.0
C190 C 0.82833 0.71647 0.34832 0.0
C191 C 0.76129 0.68616 0.4162 0.0
O192 O 0.82607 0.71852 0.40794 0.0
O193 O 0.80358 0.74248 0.43654 0.0
O194 O 0.76766 0.72453 0.35753 0.0
O195 O 0.77891 0.74412 0.39258 0.0
Co196 Co 0.30624 0.04856 0.63016 0.0
O197 O 0.28562 0.06941 0.60739 0.0
O198 O 0.32815 0.0693 0.60818 0.0
C199 C 0.28063 0.01308 0.62395 0.0
O200 O 0.33452 0.03106 0.65161 0.0
Co201 Co 0.28554 0.01681 0.67656 0.0
O202 O 0.31814 0.99764 0.67252 0.0
C203 C 0.29218 0.0743 0.67915 0.0
C204 C 0.30705 0.07833 0.59832 0.0
C205 C 0.33734 1.01128 0.66619 0.0
O206 O 0.305 0.07607 0.65794 0.0
O207 O 0.28104 0.05357 0.68655 0.0
O208 O 0.29898 0.01766 0.60753 0.0
O209 O 0.27939 0.02891 0.64258 0.0
Co210 Co 0.97496 0.55624 0.88016 0.0
O211 O 0.95411 0.53562 0.85739 0.0
O212 O 0.95421 0.57815 0.85818 0.0
C213 C 1.01043 0.53062 0.87394 0.0
O214 O 0.99246 0.58452 0.90161 0.0
Co215 Co 1.0067 0.53554 0.92656 0.0
O216 O 0.02587 0.56814 0.92253 0.0
C217 C 0.94921 0.54218 0.92915 0.0
C218 C 0.94518 0.55705 0.84832 0.0
C219 C 0.01223 0.58734 0.91619 0.0
O220 O 0.94744 0.555 0.90794 0.0
O221 O 0.96994 0.53103 0.93654 0.0
O222 O 1.00585 0.54898 0.85753 0.0
O223 O 0.9946 0.52939 0.89258 0.0
Co224 Co 0.14336 0.46728 0.04856 0.0
O225 O 0.16612 0.4879 0.0694 0.0
O226 O 0.16533 0.44537 0.0693 0.0
C227 C 0.14957 0.49288 0.01307 0.0
O228 O 0.12191 0.43899 0.03106 0.0
Co229 Co 0.09695 0.48797 0.01682 0.0
O230 O 0.10098 0.45537 0.99765 0.0
C231 C 0.09436 0.48133 0.0743 0.0
C232 C 0.17519 0.46647 0.07833 0.0
C233 C 0.10732 0.43617 1.01129 0.0
O234 O 0.11558 0.46852 0.07607 0.0
O235 O 0.08697 0.49248 0.05358 0.0
O236 O 0.16598 0.47453 0.01766 0.0
O237 O 0.13093 0.49412 0.02891 0.0
Co238 Co 0.64335 0.30623 0.22496 0.0
O239 O 0.66612 0.28562 0.20411 0.0
O240 O 0.66533 0.32814 0.20421 0.0
C241 C 0.64957 0.28063 0.26044 0.0
O242 O 0.62191 0.33452 0.24246 0.0
Co243 Co 0.59695 0.28554 0.2567 0.0
O244 O 0.60099 0.31814 0.27588 0.0
C245 C 0.59436 0.29218 0.19922 0.0
C246 C 0.67519 0.30705 0.19519 0.0
C247 C 0.60732 0.33734 0.26223 0.0
O248 O 0.61558 0.305 0.19744 0.0
O249 O 0.58697 0.28104 0.21994 0.0
O250 O 0.66599 0.29898 0.25585 0.0
O251 O 0.63093 0.27939 0.2446 0.0
Co252 Co 0.71728 0.89336 0.47496 0.0
O253 O 0.73789 0.91612 0.45411 0.0
O254 O 0.69537 0.91533 0.45421 0.0
C255 C 0.74288 0.89957 0.51044 0.0
O256 O 0.68899 0.87191 0.49246 0.0
Co257 Co 0.73797 0.84695 0.5067 0.0
O258 O 0.70537 0.85098 0.52586 0.0
C259 C 0.73134 0.84437 0.44921 0.0
C260 C 0.71646 0.92519 0.44518 0.0
C261 C 0.68616 0.85732 0.51223 0.0
O262 O 0.71851 0.86558 0.44744 0.0
O263 O 0.74248 0.83698 0.46994 0.0
O264 O 0.72453 0.91599 0.50585 0.0
O265 O 0.74412 0.88093 0.4946 0.0
Co266 Co 0.13016 0.96727 0.72496 0.0
O267 O 0.1074 0.98789 0.7041 0.0
O268 O 0.10818 0.94537 0.70421 0.0
C269 C 0.12395 0.99288 0.76044 0.0
O270 O 0.1516 0.93898 0.74246 0.0
Co271 Co 0.17656 0.98797 0.7567 0.0
O272 O 0.17253 0.95537 0.77587 0.0
C273 C 0.17916 0.98131 0.69922 0.0
C274 C 0.09833 0.96646 0.69518 0.0
C275 C 0.16619 0.93616 0.76223 0.0
O276 O 0.15794 0.9685 0.69745 0.0
O277 O 0.18655 0.99246 0.71995 0.0
O278 O 0.10753 0.97453 0.75585 0.0
O279 O 0.14258 0.99412 0.7446 0.0
Co280 Co 0.55623 0.38016 0.47496 0.0
O281 O 0.53562 0.35739 0.45411 0.0
O282 O 0.57814 0.35818 0.45421 0.0
C283 C 0.53062 0.37394 0.51044 0.0
O284 O 0.58452 0.4016 0.49246 0.0
Co285 Co 0.53554 0.42656 0.5067 0.0
O286 O 0.56814 0.42253 0.52587 0.0
C287 C 0.54218 0.42915 0.44922 0.0
C288 C 0.55705 0.34832 0.44518 0.0
C289 C 0.58735 0.41619 0.51223 0.0
O290 O 0.555 0.40794 0.44744 0.0
O291 O 0.53104 0.43654 0.46994 0.0
O292 O 0.54898 0.35753 0.50585 0.0
O293 O 0.52939 0.39258 0.4946 0.0
Co294 Co 0.13016 0.80624 0.04855 0.0
O295 O 0.1074 0.78562 0.06941 0.0
O296 O 0.10819 0.82814 0.0693 0.0
C297 C 0.12395 0.78063 0.01308 0.0
O298 O 0.1516 0.83453 0.03105 0.0
Co299 Co 0.17656 0.78554 0.01681 0.0
O300 O 0.17253 0.81815 0.99764 0.0
C301 C 0.17917 0.7922 0.07429 0.0
C302 C 0.09833 0.80705 0.07833 0.0
C303 C 0.16619 0.83735 1.01128 0.0
O304 O 0.15794 0.80501 0.07607 0.0
O305 O 0.18656 0.78106 0.05357 0.0
O306 O 0.10753 0.79898 0.01766 0.0
O307 O 0.14259 0.7794 0.02891 0.0
Co308 Co 0.71728 0.88016 0.29855 0.0
O309 O 0.73789 0.85739 0.3194 0.0
O310 O 0.69537 0.85818 0.3193 0.0
C311 C 0.74288 0.87395 0.26307 0.0
O312 O 0.68899 0.9016 0.28106 0.0
Co313 Co 0.73797 0.92656 0.26681 0.0
O314 O 0.70537 0.92254 0.24765 0.0
C315 C 0.73133 0.92915 0.3243 0.0
C316 C 0.71646 0.84832 0.32833 0.0
C317 C 0.68616 0.91619 0.26129 0.0
O318 O 0.71851 0.90794 0.32607 0.0
O319 O 0.74248 0.93654 0.30357 0.0
O320 O 0.72453 0.85753 0.26766 0.0
O321 O 0.74412 0.89258 0.27891 0.0
Co322 Co 0.05624 0.39335 0.79855 0.0
O323 O 0.03562 0.41611 0.81941 0.0
O324 O 0.07814 0.41533 0.8193 0.0
C325 C 0.03062 0.39957 0.76308 0.0
O326 O 0.08452 0.37191 0.78105 0.0
Co327 Co 0.03554 0.34696 0.7668 0.0
O328 O 0.06814 0.351 0.74763 0.0
C329 C 0.04221 0.34434 0.82428 0.0
C330 C 0.05705 0.42518 0.82833 0.0
C331 C 0.08735 0.35733 0.76127 0.0
O332 O 0.05501 0.36557 0.82606 0.0
O333 O 0.03106 0.33695 0.80356 0.0
O334 O 0.04898 0.41599 0.76766 0.0
O335 O 0.02939 0.38093 0.77891 0.0
Co336 Co 0.97496 0.88016 0.55623 0.0
O337 O 0.95411 0.8574 0.53562 0.0
O338 O 0.95422 0.85818 0.57814 0.0
C339 C 1.01044 0.87395 0.53062 0.0
O340 O 0.99246 0.90161 0.58452 0.0
Co341 Co 1.00669 0.92656 0.53552 0.0
O342 O 0.02586 0.92255 0.56813 0.0
C343 C 0.94921 0.92914 0.54217 0.0
C344 C 0.94519 0.84832 0.55705 0.0
C345 C 0.01223 0.9162 0.58733 0.0
O346 O 0.94744 0.90794 0.555 0.0
O347 O 0.96993 0.93653 0.53101 0.0
O348 O 1.00585 0.85753 0.54898 0.0
O349 O 0.9946 0.89258 0.52939 0.0
Co350 Co 0.14335 0.72496 0.30623 0.0
O351 O 0.16611 0.7041 0.28562 0.0
O352 O 0.16533 0.70421 0.32814 0.0
C353 C 0.14957 0.76043 0.28062 0.0
O354 O 0.12191 0.74246 0.33452 0.0
Co355 Co 0.09696 0.75671 0.28554 0.0
O356 O 0.101 0.77588 0.31814 0.0
C357 C 0.09435 0.69922 0.2922 0.0
C358 C 0.17518 0.69518 0.30705 0.0
C359 C 0.10733 0.76224 0.33734 0.0
O360 O 0.11557 0.69745 0.30501 0.0
O361 O 0.08695 0.71995 0.28106 0.0
O362 O 0.16599 0.75585 0.29898 0.0
O363 O 0.13093 0.7446 0.27939 0.0
Co364 Co 0.29855 0.89335 0.05623 0.0
O365 O 0.31941 0.91611 0.03561 0.0
O366 O 0.3193 0.91533 0.07814 0.0
C367 C 0.26308 0.89957 0.03062 0.0
O368 O 0.28105 0.87191 0.08452 0.0
Co369 Co 0.2668 0.84696 0.03554 0.0
O370 O 0.24763 0.851 0.06814 0.0
C371 C 0.32429 0.84434 0.0422 0.0
C372 C 0.32833 0.92518 0.05704 0.0
C373 C 0.26127 0.85733 0.08734 0.0
O374 O 0.32607 0.86557 0.055 0.0
O375 O 0.30356 0.83695 0.03106 0.0
O376 O 0.26767 0.91599 0.04897 0.0
O377 O 0.27891 0.88093 0.02939 0.0
Co378 Co 0.13016 0.04856 0.80623 0.0
O379 O 0.10739 0.0694 0.78562 0.0
O380 O 0.10818 0.0693 0.82814 0.0
C381 C 0.12395 0.01308 0.78062 0.0
O382 O 0.15161 0.03106 0.83452 0.0
Co383 Co 0.17656 0.01682 0.78554 0.0
O384 O 0.17252 0.99764 0.81814 0.0
C385 C 0.17915 0.0743 0.79218 0.0
C386 C 0.09832 0.07833 0.80705 0.0
C387 C 0.16619 1.01129 0.83734 0.0
O388 O 0.15793 0.07607 0.80499 0.0
O389 O 0.18654 0.05358 0.78104 0.0
O390 O 0.10753 0.01766 0.79898 0.0
O391 O 0.14258 0.02891 0.77939 0.0
Co392 Co 0.97496 0.89336 0.21728 0.0
O393 O 0.95411 0.91612 0.2379 0.0
O394 O 0.95421 0.91533 0.19537 0.0
C395 C 1.01044 0.89956 0.24288 0.0
O396 O 0.99246 0.87191 0.18898 0.0
Co397 Co 1.0067 0.84695 0.23797 0.0
O398 O 0.02587 0.85098 0.20536 0.0
C399 C 0.94922 0.84436 0.23133 0.0
C400 C 0.94519 0.92519 0.21647 0.0
C401 C 0.01223 0.85732 0.18616 0.0
O402 O 0.94744 0.86558 0.21851 0.0
O403 O 0.96994 0.83697 0.24248 0.0
O404 O 1.00585 0.91598 0.22453 0.0
O405 O 0.9946 0.88093 0.24412 0.0
Co406 Co 0.13016 0.72496 0.96728 0.0
O407 O 0.1074 0.7041 0.9879 0.0
O408 O 0.10818 0.70421 0.94537 0.0
C409 C 0.12395 0.76043 0.99289 0.0
O410 O 0.1516 0.74246 0.93899 0.0
Co411 Co 0.17656 0.75671 0.98797 0.0
O412 O 0.17251 0.77588 0.95537 0.0
C413 C 0.17917 0.69922 0.98131 0.0
C414 C 0.09833 0.69518 0.96647 0.0
C415 C 0.16619 0.76223 0.93617 0.0
O416 O 0.15794 0.69744 0.96851 0.0
O417 O 0.18656 0.71995 0.99245 0.0
O418 O 0.10753 0.75585 0.97453 0.0
O419 O 0.14258 0.7446 0.99412 0.0
Co420 Co 0.29855 0.88016 0.71728 0.0
O421 O 0.31941 0.8574 0.73789 0.0
O422 O 0.3193 0.85818 0.69537 0.0
C423 C 0.26308 0.87394 0.74289 0.0
O424 O 0.28105 0.90161 0.68899 0.0
Co425 Co 0.26681 0.92656 0.73798 0.0
O426 O 0.24763 0.92251 0.70538 0.0
C427 C 0.32429 0.92917 0.73131 0.0
C428 C 0.32833 0.84833 0.71646 0.0
C429 C 0.26127 0.91619 0.68617 0.0
O430 O 0.32607 0.90794 0.71851 0.0
O431 O 0.30356 0.93656 0.74245 0.0
O432 O 0.26767 0.85753 0.72454 0.0
O433 O 0.27891 0.89258 0.74412 0.0
Co434 Co 0.14335 0.04855 0.46727 0.0
O435 O 0.16612 0.06941 0.48789 0.0
O436 O 0.16533 0.0693 0.44536 0.0
C437 C 0.14957 0.01307 0.49288 0.0
O438 O 0.12191 0.03105 0.43899 0.0
Co439 Co 0.09695 0.01683 0.48799 0.0
O440 O 0.10095 0.99766 0.45538 0.0
C441 C 0.09437 0.0743 0.48135 0.0
C442 C 0.17519 0.07833 0.46646 0.0
C443 C 0.1073 1.01129 0.43617 0.0
O444 O 0.11557 0.07607 0.46851 0.0
O445 O 0.08699 0.05359 0.49251 0.0
O446 O 0.16599 0.01766 0.47453 0.0
O447 O 0.13093 0.02891 0.49412 0.0
Co448 Co 0.55623 0.97496 0.88016 0.0
O449 O 0.53562 0.95411 0.8574 0.0
O450 O 0.57815 0.95421 0.85819 0.0
C451 C 0.53062 1.01044 0.87395 0.0
O452 O 0.58452 0.99246 0.90161 0.0
Co453 Co 0.53554 1.0067 0.92656 0.0
O454 O 0.56813 0.02587 0.92253 0.0
C455 C 0.54218 0.94922 0.92915 0.0
C456 C 0.55705 0.94519 0.84833 0.0
C457 C 0.58734 0.01223 0.9162 0.0
O458 O 0.555 0.94744 0.90794 0.0
O459 O 0.53104 0.96994 0.93655 0.0
O460 O 0.54898 1.00585 0.85753 0.0
O461 O 0.52939 0.9946 0.89258 0.0
Co462 Co 0.04856 0.30624 0.63016 0.0
O463 O 0.06941 0.28562 0.6074 0.0
O464 O 0.0693 0.32815 0.60818 0.0
C465 C 0.01308 0.28062 0.62395 0.0
O466 O 0.03105 0.33453 0.6516 0.0
Co467 Co 0.01681 0.28554 0.67656 0.0
O468 O 0.99763 0.31814 0.67251 0.0
C469 C 0.07429 0.29221 0.67917 0.0
C470 C 0.07833 0.30705 0.59833 0.0
C471 C 1.01128 0.33735 0.66618 0.0
O472 O 0.07607 0.30501 0.65794 0.0
O473 O 0.05356 0.28106 0.68656 0.0
O474 O 0.01767 0.29898 0.60753 0.0
O475 O 0.02891 0.27939 0.64258 0.0
Co476 Co 0.71728 0.79856 0.38016 0.0
O477 O 0.73789 0.81941 0.35739 0.0
O478 O 0.69537 0.8193 0.35818 0.0
C479 C 0.74289 0.76308 0.37395 0.0
O480 O 0.68899 0.78105 0.40161 0.0
Co481 Co 0.73799 0.76683 0.42656 0.0
O482 O 0.70538 0.74766 0.42255 0.0
C483 C 0.73135 0.82431 0.42914 0.0
C484 C 0.71646 0.82833 0.34832 0.0
C485 C 0.68618 0.76129 0.41621 0.0
O486 O 0.71851 0.82607 0.40794 0.0
O487 O 0.74251 0.80359 0.43653 0.0
O488 O 0.72453 0.76766 0.35753 0.0
O489 O 0.74412 0.77891 0.39258 0.0
Co490 Co 0.22496 0.46728 0.13016 0.0
O491 O 0.20411 0.4879 0.10739 0.0
O492 O 0.20421 0.44537 0.10818 0.0
C493 C 0.26044 0.49288 0.12395 0.0
O494 O 0.24246 0.43899 0.1516 0.0
Co495 Co 0.2567 0.48797 0.17656 0.0
O496 O 0.27587 0.45537 0.17254 0.0
C497 C 0.19921 0.48134 0.17915 0.0
C498 C 0.19519 0.46647 0.09832 0.0
C499 C 0.26223 0.43616 0.16619 0.0
O500 O 0.19744 0.46852 0.15793 0.0
O501 O 0.21994 0.49248 0.18654 0.0
O502 O 0.25585 0.47453 0.10753 0.0
O503 O 0.24461 0.49412 0.14258 0.0
Co504 Co 0.55624 0.79855 0.89336 0.0
O505 O 0.53562 0.81941 0.91612 0.0
O506 O 0.57815 0.8193 0.91533 0.0
C507 C 0.53063 0.76307 0.89957 0.0
O508 O 0.58453 0.78105 0.87191 0.0
Co509 Co 0.53555 0.76681 0.84695 0.0
O510 O 0.56815 0.74764 0.85099 0.0
C511 C 0.5422 0.82429 0.84435 0.0
C512 C 0.55705 0.82833 0.92519 0.0
C513 C 0.58735 0.76128 0.85733 0.0
O514 O 0.55501 0.82607 0.86557 0.0
O515 O 0.53106 0.80357 0.83696 0.0
O516 O 0.54898 0.76766 0.91599 0.0
O517 O 0.5294 0.77891 0.88093 0.0
Co518 Co 0.22496 0.30624 0.64335 0.0
O519 O 0.20411 0.28562 0.66612 0.0
O520 O 0.20422 0.32814 0.66533 0.0
C521 C 0.26044 0.28063 0.64957 0.0
O522 O 0.24246 0.33452 0.62191 0.0
Co523 Co 0.2567 0.28554 0.59695 0.0
O524 O 0.27587 0.31814 0.60097 0.0
C525 C 0.19921 0.29218 0.59436 0.0
C526 C 0.19519 0.30705 0.67519 0.0
C527 C 0.26223 0.33735 0.60732 0.0
O528 O 0.19744 0.305 0.61558 0.0
O529 O 0.21994 0.28103 0.58697 0.0
O530 O 0.25585 0.29898 0.66598 0.0
O531 O 0.2446 0.27939 0.63093 0.0
Co532 Co 0.71728 0.97496 0.39335 0.0
O533 O 0.73789 0.95411 0.41612 0.0
O534 O 0.69537 0.95422 0.41533 0.0
C535 C 0.74289 1.01044 0.39957 0.0
O536 O 0.68899 0.99246 0.3719 0.0
Co537 Co 0.73799 1.00669 0.34695 0.0
O538 O 0.70539 0.02586 0.35096 0.0
C539 C 0.73135 0.94921 0.34437 0.0
C540 C 0.71646 0.94519 0.42519 0.0
C541 C 0.68618 0.01223 0.35731 0.0
O542 O 0.71851 0.94745 0.36557 0.0
O543 O 0.74251 0.96993 0.33698 0.0
O544 O 0.72453 1.00585 0.41599 0.0
O545 O 0.74412 0.9946 0.38093 0.0
Co546 Co 0.04856 0.46728 0.14336 0.0
O547 O 0.06941 0.48789 0.16612 0.0
O548 O 0.0693 0.44537 0.16533 0.0
C549 C 0.01308 0.49289 0.14957 0.0
O550 O 0.03105 0.43899 0.12191 0.0
Co551 Co 0.01682 0.48799 0.09695 0.0
O552 O 0.99765 0.45539 0.10097 0.0
C553 C 0.0743 0.48135 0.09437 0.0
C554 C 0.07833 0.46646 0.17519 0.0
C555 C 1.01128 0.43618 0.10731 0.0
O556 O 0.07607 0.46851 0.11558 0.0
O557 O 0.05359 0.49251 0.08699 0.0
O558 O 0.01766 0.47453 0.16599 0.0
O559 O 0.02891 0.49412 0.13094 0.0
Co560 Co 0.88016 0.55624 0.97496 0.0
O561 O 0.85739 0.53562 0.95411 0.0
O562 O 0.85818 0.57814 0.95422 0.0
C563 C 0.87395 0.53063 1.01044 0.0
O564 O 0.90161 0.58452 0.99246 0.0
Co565 Co 0.92656 0.53552 1.00669 0.0
O566 O 0.92257 0.56813 0.02585 0.0
C567 C 0.92914 0.54216 0.94921 0.0
C568 C 0.84832 0.55705 0.94519 0.0
C569 C 0.91621 0.58734 0.01222 0.0
O570 O 0.90794 0.555 0.94745 0.0
O571 O 0.93652 0.531 0.96992 0.0
O572 O 0.85753 0.54898 1.00585 0.0
O573 O 0.89258 0.52939 0.9946 0.0
Co574 Co 0.38016 0.71728 0.79856 0.0
O575 O 0.35739 0.7379 0.81941 0.0
O576 O 0.35818 0.69537 0.8193 0.0
C577 C 0.37395 0.74289 0.76308 0.0
O578 O 0.40161 0.68899 0.78105 0.0
Co579 Co 0.42656 0.73798 0.76681 0.0
O580 O 0.42252 0.70537 0.74764 0.0
C581 C 0.42915 0.73133 0.8243 0.0
C582 C 0.34832 0.71647 0.82833 0.0
C583 C 0.41619 0.68617 0.76128 0.0
O584 O 0.40794 0.71852 0.82607 0.0
O585 O 0.43655 0.74247 0.80357 0.0
O586 O 0.35753 0.72453 0.76766 0.0
O587 O 0.39258 0.74412 0.77891 0.0
Co588 Co 0.30624 0.13016 0.54855 0.0
O589 O 0.28562 0.10739 0.5694 0.0
O590 O 0.32815 0.10818 0.5693 0.0
C591 C 0.28063 0.12395 0.51307 0.0
O592 O 0.33453 0.1516 0.53105 0.0
Co593 Co 0.28552 0.17656 0.51683 0.0
O594 O 0.31814 0.17257 0.49766 0.0
C595 C 0.29216 0.17914 0.5743 0.0
C596 C 0.30705 0.09832 0.57833 0.0
C597 C 0.33734 0.16621 0.51129 0.0
O598 O 0.305 0.15794 0.57607 0.0
O599 O 0.281 0.18652 0.55359 0.0
O600 O 0.29898 0.10753 0.51766 0.0
O601 O 0.27939 0.14258 0.52891 0.0
Co602 Co 0.89335 0.05624 0.29856 0.0
O603 O 0.91611 0.03562 0.31941 0.0
O604 O 0.91533 0.07814 0.3193 0.0
C605 C 0.89957 0.03063 0.26308 0.0
O606 O 0.87191 0.08453 0.28105 0.0
Co607 Co 0.84695 0.03554 0.26681 0.0
O608 O 0.851 0.06814 0.24764 0.0
C609 C 0.84435 0.0422 0.32429 0.0
C610 C 0.92519 0.05705 0.32833 0.0
C611 C 0.85733 0.08735 0.26128 0.0
O612 O 0.86557 0.05501 0.32607 0.0
O613 O 0.83696 0.03106 0.30356 0.0
O614 O 0.91598 0.04898 0.26766 0.0
O615 O 0.88093 0.02939 0.27891 0.0
Co616 Co 0.46728 0.64335 0.54856 0.0
O617 O 0.4879 0.66612 0.56941 0.0
O618 O 0.44537 0.66533 0.5693 0.0
C619 C 0.49289 0.64957 0.51308 0.0
O620 O 0.43899 0.62191 0.53105 0.0
Co621 Co 0.48798 0.59696 0.51681 0.0
O622 O 0.45538 0.60099 0.49764 0.0
C623 C 0.48133 0.59436 0.5743 0.0
C624 C 0.46647 0.67519 0.57833 0.0
C625 C 0.43617 0.60732 0.51128 0.0
O626 O 0.46852 0.61558 0.57607 0.0
O627 O 0.49247 0.58697 0.55357 0.0
O628 O 0.47454 0.66599 0.51766 0.0
O629 O 0.49412 0.63093 0.52891 0.0
Co630 Co 0.89335 0.21728 0.97496 0.0
O631 O 0.91611 0.2379 0.9541 0.0
O632 O 0.91533 0.19537 0.95421 0.0
C633 C 0.89957 0.24289 1.01043 0.0
O634 O 0.87191 0.18899 0.99246 0.0
Co635 Co 0.84696 0.23797 1.00671 0.0
O636 O 0.851 0.20537 0.02588 0.0
C637 C 0.84435 0.23131 0.94923 0.0
C638 C 0.92518 0.21647 0.94518 0.0
C639 C 0.85733 0.18617 0.01224 0.0
O640 O 0.86557 0.21851 0.94745 0.0
O641 O 0.83695 0.24245 0.96995 0.0
O642 O 0.91598 0.22454 1.00585 0.0
O643 O 0.88093 0.24412 0.9946 0.0
Co644 Co 0.30624 0.14336 0.72496 0.0
O645 O 0.28562 0.16612 0.70411 0.0
O646 O 0.32815 0.16533 0.70422 0.0
C647 C 0.28063 0.14957 0.76044 0.0
O648 O 0.33453 0.12191 0.74246 0.0
Co649 Co 0.28553 0.09695 0.75669 0.0
O650 O 0.31814 0.10095 0.77585 0.0
C651 C 0.29217 0.09437 0.69921 0.0
C652 C 0.30705 0.17519 0.69519 0.0
C653 C 0.33734 0.10731 0.76222 0.0
O654 O 0.305 0.11558 0.69745 0.0
O655 O 0.281 0.08699 0.71993 0.0
O656 O 0.29898 0.16599 0.75585 0.0
O657 O 0.2794 0.13093 0.74461 0.0
Co658 Co 0.96728 0.63016 0.22496 0.0
O659 O 0.98789 0.6074 0.2041 0.0
O660 O 0.94537 0.60819 0.20421 0.0
C661 C 0.99289 0.62394 0.26044 0.0
O662 O 0.93899 0.6516 0.24246 0.0
Co663 Co 0.98797 0.67656 0.25671 0.0
O664 O 0.95537 0.67251 0.27589 0.0
C665 C 0.98131 0.67917 0.19923 0.0
C666 C 0.96647 0.59833 0.19518 0.0
C667 C 0.93617 0.66618 0.26224 0.0
O668 O 0.96851 0.65794 0.19745 0.0
O669 O 0.99245 0.68656 0.21996 0.0
O670 O 0.97454 0.60753 0.25585 0.0
O671 O 0.99412 0.64258 0.24461 0.0
Co672 Co 0.04856 0.64336 0.96728 0.0
O673 O 0.06941 0.66612 0.9879 0.0
O674 O 0.0693 0.66534 0.94537 0.0
C675 C 0.01308 0.64957 0.99289 0.0
O676 O 0.03105 0.62192 0.93899 0.0
Co677 Co 0.01678 0.59696 0.98794 0.0
O678 O 0.99756 0.60113 0.95539 0.0
C679 C 0.07428 0.59434 0.98129 0.0
C680 C 0.07833 0.67519 0.96647 0.0
C681 C 1.01121 0.60742 0.93618 0.0
O682 O 0.07607 0.61558 0.96851 0.0
O683 O 0.05354 0.58693 0.99239 0.0
O684 O 0.01767 0.66599 0.97454 0.0
O685 O 0.02891 0.63093 0.99412 0.0
Co686 Co 0.88016 0.79855 0.21728 0.0
O687 O 0.85739 0.81941 0.23789 0.0
O688 O 0.85818 0.8193 0.19536 0.0
C689 C 0.87394 0.76308 0.24289 0.0
O690 O 0.90161 0.78105 0.18899 0.0
Co691 Co 0.92656 0.76683 0.23799 0.0
O692 O 0.92255 0.74765 0.20539 0.0
C693 C 0.92914 0.8243 0.23135 0.0
C694 C 0.84832 0.82833 0.21646 0.0
C695 C 0.91621 0.76128 0.18618 0.0
O696 O 0.90794 0.82607 0.21851 0.0
O697 O 0.93653 0.80359 0.24251 0.0
O698 O 0.85753 0.76766 0.22453 0.0
O699 O 0.89258 0.77891 0.24412 0.0
Co700 Co 0.72496 0.63016 0.46727 0.0
O701 O 0.7041 0.6074 0.4879 0.0
O702 O 0.70421 0.60818 0.44537 0.0
C703 C 0.76043 0.62394 0.4929 0.0
O704 O 0.74247 0.65159 0.43898 0.0
Co705 Co 0.75674 0.67655 0.48794 0.0
O706 O 0.77597 0.67236 0.45538 0.0
C707 C 0.69925 0.67919 0.48126 0.0
C708 C 0.69518 0.59833 0.46647 0.0
C709 C 0.7623 0.66608 0.43618 0.0
O710 O 0.69745 0.65794 0.4685 0.0
O711 O 0.71999 0.6866 0.49237 0.0
O712 O 0.75584 0.60752 0.47454 0.0
O713 O 0.7446 0.64259 0.49412 0.0
Co714 Co 0.89335 0.47496 0.71727 0.0
O715 O 0.91611 0.45411 0.73789 0.0
O716 O 0.91533 0.45421 0.69537 0.0
C717 C 0.89956 0.51044 0.74288 0.0
O718 O 0.87191 0.49246 0.68898 0.0
Co719 Co 0.84695 0.50671 0.73797 0.0
O720 O 0.85098 0.52587 0.70536 0.0
C721 C 0.84435 0.44923 0.73131 0.0
C722 C 0.92519 0.44518 0.71646 0.0
C723 C 0.85732 0.51223 0.68616 0.0
O724 O 0.86557 0.44745 0.7185 0.0
O725 O 0.83696 0.46995 0.74246 0.0
O726 O 0.91598 0.50585 0.72453 0.0
O727 O 0.88093 0.49461 0.74412 0.0
Co728 Co 0.04856 0.63015 0.30624 0.0
O729 O 0.06941 0.6074 0.28562 0.0
O730 O 0.0693 0.60817 0.32815 0.0
C731 C 0.01308 0.62394 0.28062 0.0
O732 O 0.03105 0.65159 0.33453 0.0
Co733 Co 0.01679 0.67655 0.28556 0.0
O734 O 0.99757 0.6724 0.31812 0.0
C735 C 0.07428 0.67916 0.29221 0.0
C736 C 0.07833 0.59832 0.30705 0.0
C737 C 1.01122 0.6661 0.33733 0.0
O738 O 0.07607 0.65794 0.30501 0.0
O739 O 0.05355 0.68656 0.28109 0.0
O740 O 0.01767 0.60752 0.29898 0.0
O741 O 0.02891 0.64258 0.2794 0.0
Co742 Co 0.89336 0.79856 0.55624 0.0
O743 O 0.91612 0.81941 0.53562 0.0
O744 O 0.91533 0.8193 0.57815 0.0
C745 C 0.89957 0.76307 0.53063 0.0
O746 O 0.87191 0.78106 0.58453 0.0
Co747 Co 0.84695 0.76682 0.53554 0.0
O748 O 0.85098 0.74765 0.56815 0.0
C749 C 0.84436 0.8243 0.54218 0.0
C750 C 0.92519 0.82833 0.55705 0.0
C751 C 0.85732 0.76129 0.58735 0.0
O752 O 0.86558 0.82607 0.555 0.0
O753 O 0.83697 0.80358 0.53103 0.0
O754 O 0.91598 0.76766 0.54898 0.0
O755 O 0.88093 0.77891 0.5294 0.0
Co756 Co 0.72496 0.64336 0.80624 0.0
O757 O 0.7041 0.66611 0.78562 0.0
O758 O 0.70421 0.66533 0.82814 0.0
C759 C 0.76043 0.64957 0.78062 0.0
O760 O 0.74247 0.62192 0.83453 0.0
Co761 Co 0.75674 0.59696 0.78558 0.0
O762 O 0.77597 0.60115 0.81813 0.0
C763 C 0.69925 0.59432 0.79225 0.0
C764 C 0.69518 0.67518 0.80704 0.0
C765 C 0.76231 0.60743 0.83734 0.0
O766 O 0.69745 0.61557 0.80501 0.0
O767 O 0.71999 0.58691 0.78115 0.0
O768 O 0.75584 0.66599 0.79897 0.0
O769 O 0.74461 0.63092 0.7794 0.0
Co770 Co 0.88016 0.47496 0.05624 0.0
O771 O 0.8574 0.45411 0.03562 0.0
O772 O 0.85818 0.45421 0.07815 0.0
C773 C 0.87395 0.51044 0.03063 0.0
O774 O 0.9016 0.49246 0.08453 0.0
Co775 Co 0.92656 0.50671 0.03555 0.0
O776 O 0.92251 0.52588 0.06815 0.0
C777 C 0.92917 0.44923 0.04221 0.0
C778 C 0.84833 0.44518 0.05705 0.0
C779 C 0.91618 0.51224 0.08735 0.0
O780 O 0.90794 0.44745 0.05501 0.0
O781 O 0.93656 0.46995 0.03107 0.0
O782 O 0.85753 0.50585 0.04898 0.0
O783 O 0.89258 0.4946 0.0294 0.0
Co784 Co 0.46727 0.54855 0.64335 0.0
O785 O 0.48789 0.56941 0.66611 0.0
O786 O 0.44537 0.5693 0.66533 0.0
C787 C 0.49288 0.51307 0.64957 0.0
O788 O 0.43899 0.53105 0.62191 0.0
Co789 Co 0.48799 0.51682 0.59695 0.0
O790 O 0.45538 0.49766 0.60095 0.0
C791 C 0.48135 0.5743 0.59437 0.0
C792 C 0.46646 0.57833 0.67519 0.0
C793 C 0.43617 0.51129 0.6073 0.0
O794 O 0.46851 0.57607 0.61557 0.0
O795 O 0.49251 0.55359 0.58699 0.0
O796 O 0.47453 0.51766 0.66599 0.0
O797 O 0.49412 0.52891 0.63093 0.0
Co798 Co 0.97496 0.21727 0.89336 0.0
O799 O 0.9541 0.23789 0.91611 0.0
O800 O 0.95421 0.19537 0.91534 0.0
C801 C 1.01043 0.24289 0.89957 0.0
O802 O 0.99247 0.18898 0.87193 0.0
Co803 Co 1.00674 0.23793 0.84697 0.0
O804 O 0.02597 0.20538 0.85115 0.0
C805 C 0.94925 0.23126 0.84433 0.0
C806 C 0.94518 0.21647 0.92519 0.0
C807 C 0.0123 0.18617 0.85743 0.0
O808 O 0.94745 0.2185 0.86557 0.0
O809 O 0.96999 0.24236 0.83692 0.0
O810 O 1.00584 0.22454 0.916 0.0
O811 O 0.9946 0.24411 0.88093 0.0
Co812 Co 0.30623 0.72496 0.14335 0.0
O813 O 0.28562 0.70411 0.16612 0.0
O814 O 0.32814 0.70421 0.16533 0.0
C815 C 0.28063 0.76044 0.14957 0.0
O816 O 0.33452 0.74246 0.1219 0.0
Co817 Co 0.28554 0.7567 0.09695 0.0
O818 O 0.31814 0.77587 0.10099 0.0
C819 C 0.29218 0.69922 0.09436 0.0
C820 C 0.30705 0.69518 0.17519 0.0
C821 C 0.33734 0.76223 0.10732 0.0
O822 O 0.305 0.69744 0.11558 0.0
O823 O 0.28104 0.71994 0.08697 0.0
O824 O 0.29898 0.75585 0.16599 0.0
O825 O 0.27939 0.7446 0.13093 0.0
Co826 Co 0.79856 0.05624 0.39336 0.0
O827 O 0.81941 0.03562 0.41612 0.0
O828 O 0.8193 0.07815 0.41534 0.0
C829 C 0.76308 0.03063 0.39957 0.0
O830 O 0.78105 0.08453 0.37192 0.0
Co831 Co 0.76679 0.03556 0.34696 0.0
O832 O 0.74757 0.06812 0.35111 0.0
C833 C 0.82428 0.04221 0.34435 0.0
C834 C 0.82833 0.05705 0.42519 0.0
C835 C 0.76122 0.08733 0.35741 0.0
O836 O 0.82607 0.05501 0.36558 0.0
O837 O 0.80355 0.03109 0.33695 0.0
O838 O 0.76767 0.04898 0.41599 0.0
O839 O 0.77891 0.0294 0.38093 0.0
Co840 Co 0.46728 0.72496 0.63016 0.0
O841 O 0.4879 0.7041 0.6074 0.0
O842 O 0.44537 0.70421 0.60818 0.0
C843 C 0.49289 0.76043 0.62394 0.0
O844 O 0.43899 0.74246 0.6516 0.0
Co845 Co 0.48797 0.75671 0.67656 0.0
O846 O 0.45537 0.77588 0.67251 0.0
C847 C 0.4813 0.69923 0.67917 0.0
C848 C 0.46647 0.69518 0.59833 0.0
C849 C 0.43617 0.76224 0.66618 0.0
O850 O 0.46851 0.69745 0.65794 0.0
O851 O 0.49244 0.71995 0.68656 0.0
O852 O 0.47454 0.75585 0.60753 0.0
O853 O 0.49412 0.7446 0.64258 0.0
Co854 Co 0.79855 0.21727 0.88016 0.0
O855 O 0.81941 0.23789 0.8574 0.0
O856 O 0.8193 0.19536 0.85818 0.0
C857 C 0.76308 0.24288 0.87395 0.0
O858 O 0.78105 0.18898 0.90159 0.0
Co859 Co 0.76679 0.23795 0.92656 0.0
O860 O 0.74757 0.20539 0.92241 0.0
C861 C 0.82428 0.23131 0.92916 0.0
C862 C 0.82833 0.21646 0.84833 0.0
C863 C 0.76122 0.18618 0.91611 0.0
O864 O 0.82606 0.2185 0.90794 0.0
O865 O 0.80355 0.24243 0.93656 0.0
O866 O 0.76767 0.22453 0.85752 0.0
O867 O 0.77891 0.24411 0.89259 0.0
Co868 Co 0.30624 0.54856 0.13016 0.0
O869 O 0.28562 0.56941 0.10739 0.0
O870 O 0.32815 0.5693 0.10818 0.0
C871 C 0.28063 0.51308 0.12394 0.0
O872 O 0.33452 0.53106 0.15161 0.0
Co873 Co 0.28554 0.51681 0.17656 0.0
O874 O 0.31814 0.49764 0.17252 0.0
C875 C 0.29218 0.5743 0.17915 0.0
C876 C 0.30705 0.57833 0.09832 0.0
C877 C 0.33734 0.51129 0.16619 0.0
O878 O 0.305 0.57607 0.15793 0.0
O879 O 0.28104 0.55357 0.18654 0.0
O880 O 0.29898 0.51766 0.10753 0.0
O881 O 0.27939 0.52891 0.14258 0.0
Co882 Co 0.97496 0.05624 0.38015 0.0
O883 O 0.9541 0.03562 0.3574 0.0
O884 O 0.95421 0.07814 0.35818 0.0
C885 C 1.01043 0.03062 0.37394 0.0
O886 O 0.99246 0.08453 0.4016 0.0
Co887 Co 1.00673 0.03557 0.42655 0.0
O888 O 0.02596 0.06813 0.42238 0.0
C889 C 0.94924 0.04222 0.42917 0.0
C890 C 0.94518 0.05705 0.34832 0.0
C891 C 0.0123 0.08733 0.41609 0.0
O892 O 0.94744 0.055 0.40794 0.0
O893 O 0.96998 0.03112 0.43658 0.0
O894 O 1.00584 0.04897 0.35752 0.0
O895 O 0.9946 0.0294 0.39258 0.0
Co896 Co 0.14335 0.96728 0.54855 0.0
O897 O 0.16612 0.98789 0.56941 0.0
O898 O 0.16533 0.94537 0.5693 0.0
C899 C 0.14957 0.99289 0.51308 0.0
O900 O 0.12191 0.93899 0.53105 0.0
Co901 Co 0.09696 0.98797 0.5168 0.0
O902 O 0.101 0.95537 0.49763 0.0
C903 C 0.09435 0.98131 0.57428 0.0
C904 C 0.17519 0.96646 0.57833 0.0
C905 C 0.10733 0.93617 0.51128 0.0
O906 O 0.11557 0.96851 0.57607 0.0
O907 O 0.08696 0.99245 0.55356 0.0
O908 O 0.16599 0.97453 0.51766 0.0
O909 O 0.13093 0.99412 0.52891 0.0
Co910 Co 0.64335 0.80624 0.72496 0.0
O911 O 0.66611 0.78562 0.7041 0.0
O912 O 0.66533 0.82815 0.70421 0.0
C913 C 0.64957 0.78062 0.76043 0.0
O914 O 0.62191 0.83452 0.74246 0.0
Co915 Co 0.59696 0.78554 0.75671 0.0
O916 O 0.601 0.81814 0.77588 0.0
C917 C 0.59435 0.7922 0.69923 0.0
C918 C 0.67518 0.80705 0.69518 0.0
C919 C 0.60733 0.83734 0.76224 0.0
O920 O 0.61557 0.80501 0.69745 0.0
O921 O 0.58695 0.78106 0.71995 0.0
O922 O 0.66599 0.79898 0.75585 0.0
O923 O 0.63093 0.77939 0.7446 0.0
Co924 Co 0.71728 0.39336 0.97496 0.0
O925 O 0.73789 0.41612 0.95411 0.0
O926 O 0.69537 0.41533 0.95421 0.0
C927 C 0.74289 0.39957 1.01044 0.0
O928 O 0.68899 0.37191 0.99246 0.0
Co929 Co 0.73798 0.34696 1.0067 0.0
O930 O 0.70538 0.35099 0.02588 0.0
C931 C 0.73133 0.34436 0.94922 0.0
C932 C 0.71646 0.42519 0.94519 0.0
C933 C 0.68617 0.35732 0.01223 0.0
O934 O 0.71852 0.36558 0.94744 0.0
O935 O 0.74247 0.33697 0.96994 0.0
O936 O 0.72453 0.41599 1.00585 0.0
O937 O 0.74412 0.38093 0.9946 0.0
Co938 Co 0.13016 0.46728 0.22496 0.0
O939 O 0.1074 0.48789 0.20411 0.0
O940 O 0.10818 0.44536 0.20421 0.0
C941 C 0.12395 0.49288 0.26044 0.0
O942 O 0.15161 0.43899 0.24246 0.0
Co943 Co 0.17656 0.48799 0.25668 0.0
O944 O 0.17257 0.45538 0.27585 0.0
C945 C 0.17914 0.48135 0.19921 0.0
C946 C 0.09833 0.46646 0.19518 0.0
C947 C 0.16621 0.43617 0.26222 0.0
O948 O 0.15794 0.46851 0.19744 0.0
O949 O 0.18652 0.49252 0.21992 0.0
O950 O 0.10753 0.47453 0.25585 0.0
O951 O 0.14258 0.49412 0.2446 0.0
Co952 Co 0.55624 0.88016 0.97496 0.0
O953 O 0.53562 0.8574 0.95411 0.0
O954 O 0.57815 0.85818 0.95421 0.0
C955 C 0.53063 0.87395 1.01044 0.0
O956 O 0.58453 0.9016 0.99246 0.0
Co957 Co 0.53553 0.92656 1.00669 0.0
O958 O 0.56814 0.92256 0.02585 0.0
C959 C 0.54216 0.92914 0.94921 0.0
C960 C 0.55705 0.84832 0.94518 0.0
C961 C 0.58734 0.9162 0.01222 0.0
O962 O 0.555 0.90794 0.94745 0.0
O963 O 0.531 0.93652 0.96993 0.0
O964 O 0.54898 0.85753 1.00585 0.0
O965 O 0.52939 0.89258 0.9946 0.0
Co966 Co 0.13016 0.30624 0.54855 0.0
O967 O 0.1074 0.28562 0.56941 0.0
O968 O 0.10818 0.32815 0.5693 0.0
C969 C 0.12395 0.28063 0.51307 0.0
O970 O 0.15161 0.33452 0.53105 0.0
Co971 Co 0.17656 0.28552 0.51683 0.0
O972 O 0.17257 0.31814 0.49766 0.0
C973 C 0.17914 0.29216 0.5743 0.0
C974 C 0.09833 0.30705 0.57833 0.0
C975 C 0.16621 0.33734 0.51129 0.0
O976 O 0.15794 0.305 0.57607 0.0
O977 O 0.18652 0.281 0.55359 0.0
O978 O 0.10753 0.29898 0.51766 0.0
O979 O 0.14258 0.27939 0.52891 0.0
Co980 Co 0.71728 0.38016 0.79856 0.0
O981 O 0.73789 0.35739 0.81941 0.0
O982 O 0.69537 0.35818 0.8193 0.0
C983 C 0.74289 0.37395 0.76308 0.0
O984 O 0.68899 0.40161 0.78106 0.0
Co985 Co 0.73798 0.42656 0.76682 0.0
O986 O 0.70538 0.42252 0.74764 0.0
C987 C 0.73133 0.42915 0.8243 0.0
C988 C 0.71646 0.34832 0.82833 0.0
C989 C 0.68617 0.41619 0.76128 0.0
O990 O 0.71852 0.40794 0.82607 0.0
O991 O 0.74248 0.43654 0.80358 0.0
O992 O 0.72453 0.35753 0.76766 0.0
O993 O 0.74412 0.39258 0.77891 0.0
Co994 Co 0.05624 0.89335 0.29855 0.0
O995 O 0.03562 0.91611 0.31941 0.0
O996 O 0.07814 0.91533 0.3193 0.0
C997 C 0.03063 0.89957 0.26308 0.0
O998 O 0.08453 0.87191 0.28105 0.0
Co999 Co 0.03554 0.84695 0.2668 0.0
O1000 O 0.06814 0.851 0.24763 0.0
C1001 C 0.0422 0.84435 0.32429 0.0
C1002 C 0.05705 0.92518 0.32833 0.0
C1003 C 0.08735 0.85733 0.26128 0.0
O1004 O 0.055 0.86557 0.32607 0.0
O1005 O 0.03106 0.83696 0.30356 0.0
O1006 O 0.04898 0.91598 0.26766 0.0
O1007 O 0.02939 0.88093 0.27891 0.0
Co1008 Co 0.97496 0.38016 0.05624 0.0
O1009 O 0.9541 0.3574 0.03562 0.0
O1010 O 0.95421 0.35818 0.07815 0.0
C1011 C 1.01043 0.37394 0.03062 0.0
O1012 O 0.99247 0.4016 0.08452 0.0
Co1013 Co 1.00672 0.42655 0.03556 0.0
O1014 O 0.02595 0.42239 0.06811 0.0
C1015 C 0.94923 0.42916 0.04221 0.0
C1016 C 0.94518 0.34833 0.05705 0.0
C1017 C 0.0123 0.4161 0.08732 0.0
O1018 O 0.94745 0.40794 0.05501 0.0
O1019 O 0.96997 0.43657 0.03109 0.0
O1020 O 1.00584 0.35752 0.04897 0.0
O1021 O 0.9946 0.39258 0.02939 0.0
Co1022 Co 0.14335 0.22496 0.80624 0.0
O1023 O 0.16612 0.20411 0.78562 0.0
O1024 O 0.16533 0.20422 0.82815 0.0
C1025 C 0.14957 0.26044 0.78063 0.0
O1026 O 0.1219 0.24246 0.83452 0.0
Co1027 Co 0.09695 0.25669 0.78552 0.0
O1028 O 0.10096 0.27586 0.81812 0.0
C1029 C 0.09437 0.19921 0.79217 0.0
C1030 C 0.17519 0.19519 0.80705 0.0
C1031 C 0.10731 0.26223 0.83733 0.0
O1032 O 0.11557 0.19744 0.805 0.0
O1033 O 0.08699 0.21992 0.781 0.0
O1034 O 0.16599 0.25585 0.79898 0.0
O1035 O 0.13094 0.2446 0.77939 0.0
Co1036 Co 0.29856 0.39336 0.55624 0.0
O1037 O 0.31941 0.41611 0.53562 0.0
O1038 O 0.3193 0.41533 0.57814 0.0
C1039 C 0.26309 0.39957 0.53062 0.0
O1040 O 0.28104 0.37192 0.58453 0.0
Co1041 Co 0.26677 0.34696 0.53557 0.0
O1042 O 0.24755 0.35114 0.56813 0.0
C1043 C 0.32426 0.34433 0.54225 0.0
C1044 C 0.32833 0.42518 0.55704 0.0
C1045 C 0.26121 0.35742 0.58733 0.0
O1046 O 0.32606 0.36557 0.55501 0.0
O1047 O 0.30352 0.33692 0.53114 0.0
O1048 O 0.26767 0.41599 0.54897 0.0
O1049 O 0.27891 0.38093 0.5294 0.0
Co1050 Co 0.13016 0.54855 0.30624 0.0
O1051 O 0.1074 0.56941 0.28562 0.0
O1052 O 0.10818 0.5693 0.32815 0.0
C1053 C 0.12395 0.51308 0.28063 0.0
O1054 O 0.15161 0.53105 0.33453 0.0
Co1055 Co 0.17656 0.51681 0.28554 0.0
O1056 O 0.17252 0.49763 0.31814 0.0
C1057 C 0.17917 0.57429 0.29221 0.0
C1058 C 0.09833 0.57833 0.30705 0.0
C1059 C 0.16619 0.51128 0.33735 0.0
O1060 O 0.15794 0.57607 0.30501 0.0
O1061 O 0.18656 0.55356 0.28106 0.0
O1062 O 0.10753 0.51766 0.29898 0.0
O1063 O 0.14258 0.52891 0.27939 0.0
Co1064 Co 0.97496 0.39336 0.71727 0.0
O1065 O 0.9541 0.41612 0.73789 0.0
O1066 O 0.95421 0.41534 0.69537 0.0
C1067 C 1.01043 0.39957 0.74289 0.0
O1068 O 0.99247 0.37192 0.68899 0.0
Co1069 Co 1.00672 0.34696 0.73795 0.0
O1070 O 0.02594 0.35111 0.70539 0.0
C1071 C 0.94923 0.34435 0.7313 0.0
C1072 C 0.94518 0.42519 0.71646 0.0
C1073 C 0.01229 0.35741 0.68618 0.0
O1074 O 0.94745 0.36558 0.7185 0.0
O1075 O 0.96997 0.33695 0.74242 0.0
O1076 O 1.00585 0.41599 0.72454 0.0
O1077 O 0.9946 0.38093 0.74411 0.0
Co1078 Co 0.13016 0.22496 0.46728 0.0
O1079 O 0.10739 0.20411 0.4879 0.0
O1080 O 0.10818 0.20421 0.44537 0.0
C1081 C 0.12395 0.26044 0.49289 0.0
O1082 O 0.15161 0.24245 0.43899 0.0
Co1083 Co 0.17656 0.2567 0.48797 0.0
O1084 O 0.17252 0.27587 0.45537 0.0
C1085 C 0.17915 0.19921 0.48133 0.0
C1086 C 0.09832 0.19518 0.46647 0.0
C1087 C 0.16619 0.26223 0.43617 0.0
O1088 O 0.15793 0.19744 0.46852 0.0
O1089 O 0.18654 0.21994 0.49247 0.0
O1090 O 0.10753 0.25585 0.47453 0.0
O1091 O 0.14258 0.2446 0.49412 0.0
Co1092 Co 0.29855 0.38016 0.21728 0.0
O1093 O 0.31941 0.35741 0.2379 0.0
O1094 O 0.3193 0.35818 0.19537 0.0
C1095 C 0.26308 0.37394 0.2429 0.0
O1096 O 0.28104 0.40159 0.18898 0.0
Co1097 Co 0.26677 0.42655 0.23794 0.0
O1098 O 0.24754 0.42237 0.20538 0.0
C1099 C 0.32426 0.42919 0.23126 0.0
C1100 C 0.32833 0.34833 0.21647 0.0
C1101 C 0.26121 0.41609 0.18618 0.0
O1102 O 0.32606 0.40794 0.2185 0.0
O1103 O 0.30352 0.4366 0.24236 0.0
O1104 O 0.26767 0.35752 0.22455 0.0
O1105 O 0.27891 0.39259 0.24412 0.0
Co1106 Co 0.14335 0.54855 0.96727 0.0
O1107 O 0.16611 0.56941 0.98789 0.0
O1108 O 0.16533 0.5693 0.94536 0.0
C1109 C 0.14957 0.51308 0.99289 0.0
O1110 O 0.12191 0.53105 0.93899 0.0
Co1111 Co 0.09695 0.51681 0.98798 0.0
O1112 O 0.10097 0.49765 0.95538 0.0
C1113 C 0.09436 0.57429 0.98132 0.0
C1114 C 0.17519 0.57833 0.96646 0.0
C1115 C 0.10731 0.51128 0.93617 0.0
O1116 O 0.11557 0.57606 0.9685 0.0
O1117 O 0.08697 0.55357 0.99248 0.0
O1118 O 0.16599 0.51766 0.97453 0.0
O1119 O 0.13093 0.52891 0.99412 0.0
Co1120 Co 0.55624 0.47496 0.38016 0.0
O1121 O 0.53562 0.45411 0.3574 0.0
O1122 O 0.57815 0.45421 0.35819 0.0
C1123 C 0.53063 0.51044 0.37395 0.0
O1124 O 0.58452 0.49246 0.40161 0.0
Co1125 Co 0.53552 0.50669 0.42657 0.0
O1126 O 0.56813 0.52586 0.42256 0.0
C1127 C 0.54217 0.44921 0.42914 0.0
C1128 C 0.55705 0.44519 0.34833 0.0
C1129 C 0.58734 0.51223 0.41621 0.0
O1130 O 0.555 0.44745 0.40794 0.0
O1131 O 0.531 0.46993 0.43653 0.0
O1132 O 0.54898 0.50585 0.35753 0.0
O1133 O 0.52939 0.4946 0.39258 0.0
Co1134 Co 0.04856 0.80624 0.13015 0.0
O1135 O 0.06942 0.78562 0.1074 0.0
O1136 O 0.0693 0.82814 0.10818 0.0
C1137 C 0.01309 0.78062 0.12394 0.0
O1138 O 0.03105 0.83453 0.15159 0.0
Co1139 Co 0.01677 0.78558 0.17655 0.0
O1140 O 0.99755 0.81813 0.17236 0.0
C1141 C 0.07426 0.79225 0.17918 0.0
C1142 C 0.07834 0.80705 0.09833 0.0
C1143 C 1.01121 0.83734 0.16608 0.0
O1144 O 0.07607 0.80502 0.15794 0.0
O1145 O 0.05352 0.78115 0.18659 0.0
O1146 O 0.01767 0.79897 0.10752 0.0
O1147 O 0.02891 0.7794 0.14259 0.0
Co1148 Co 0.71728 0.29855 0.88016 0.0
O1149 O 0.73789 0.31941 0.85739 0.0
O1150 O 0.69537 0.3193 0.85818 0.0
C1151 C 0.74289 0.26308 0.87394 0.0
O1152 O 0.68899 0.28105 0.90161 0.0
Co1153 Co 0.73799 0.26682 0.92656 0.0
O1154 O 0.70539 0.24765 0.92255 0.0
C1155 C 0.73135 0.3243 0.92914 0.0
C1156 C 0.71646 0.32833 0.84832 0.0
C1157 C 0.68618 0.26128 0.9162 0.0
O1158 O 0.71851 0.32607 0.90794 0.0
O1159 O 0.74251 0.30359 0.93653 0.0
O1160 O 0.72453 0.26766 0.85753 0.0
O1161 O 0.74413 0.27891 0.89258 0.0
Co1162 Co 0.22496 0.96727 0.63015 0.0
O1163 O 0.2041 0.98789 0.6074 0.0
O1164 O 0.20421 0.94537 0.60818 0.0
C1165 C 0.26043 0.99289 0.62394 0.0
O1166 O 0.24247 0.93899 0.65159 0.0
Co1167 Co 0.25672 0.98796 0.67655 0.0
O1168 O 0.27594 0.95539 0.67241 0.0
C1169 C 0.19923 0.98131 0.67916 0.0
C1170 C 0.19518 0.96646 0.59832 0.0
C1171 C 0.26229 0.93618 0.66611 0.0
O1172 O 0.19745 0.9685 0.65794 0.0
O1173 O 0.21996 0.99243 0.68656 0.0
O1174 O 0.25585 0.97454 0.60752 0.0
O1175 O 0.2446 0.99412 0.64258 0.0
Co1176 Co 0.55624 0.29856 0.39335 0.0
O1177 O 0.53562 0.31941 0.41611 0.0
O1178 O 0.57814 0.3193 0.41533 0.0
C1179 C 0.53062 0.26308 0.39957 0.0
O1180 O 0.58453 0.28105 0.37191 0.0
Co1181 Co 0.53554 0.2668 0.34696 0.0
O1182 O 0.56814 0.24763 0.35101 0.0
C1183 C 0.54221 0.32429 0.34435 0.0
C1184 C 0.55705 0.32833 0.42519 0.0
C1185 C 0.58735 0.26127 0.35733 0.0
O1186 O 0.55501 0.32607 0.36557 0.0
O1187 O 0.53107 0.30356 0.33695 0.0
O1188 O 0.54898 0.26767 0.41599 0.0
O1189 O 0.52939 0.27891 0.38093 0.0
Co1190 Co 0.22496 0.80624 0.14336 0.0
O1191 O 0.2041 0.78562 0.16611 0.0
O1192 O 0.20421 0.82815 0.16533 0.0
C1193 C 0.26043 0.78062 0.14957 0.0
O1194 O 0.24247 0.83453 0.12192 0.0
Co1195 Co 0.25672 0.78556 0.09696 0.0
O1196 O 0.27594 0.81812 0.1011 0.0
C1197 C 0.19923 0.79221 0.09435 0.0
C1198 C 0.19518 0.80705 0.17519 0.0
C1199 C 0.26229 0.83733 0.1074 0.0
O1200 O 0.19745 0.80501 0.11557 0.0
O1201 O 0.21997 0.78109 0.08695 0.0
O1202 O 0.25585 0.79898 0.16599 0.0
O1203 O 0.2446 0.7794 0.13093 0.0
Co1204 Co 0.71728 0.47496 0.89336 0.0
O1205 O 0.73789 0.45411 0.91612 0.0
O1206 O 0.69537 0.45421 0.91533 0.0
C1207 C 0.74289 0.51044 0.89957 0.0
O1208 O 0.68899 0.49246 0.87191 0.0
Co1209 Co 0.73799 0.50669 0.84695 0.0
O1210 O 0.70538 0.52586 0.85096 0.0
C1211 C 0.73135 0.44921 0.84437 0.0
C1212 C 0.71646 0.44518 0.92519 0.0
C1213 C 0.68618 0.51222 0.85731 0.0
O1214 O 0.71851 0.44744 0.86558 0.0
O1215 O 0.74251 0.46993 0.83699 0.0
O1216 O 0.72453 0.50585 0.91599 0.0
O1217 O 0.74412 0.4946 0.88094 0.0
Co1218 Co 0.04856 0.96728 0.64336 0.0
O1219 O 0.06941 0.98789 0.66612 0.0
O1220 O 0.0693 0.94537 0.66533 0.0
C1221 C 0.01308 0.99289 0.64957 0.0
O1222 O 0.03105 0.93899 0.62192 0.0
Co1223 Co 0.01679 0.98796 0.59696 0.0
O1224 O 0.99756 0.9554 0.60112 0.0
C1225 C 0.07428 0.9813 0.59435 0.0
C1226 C 0.07833 0.96646 0.67519 0.0
C1227 C 1.01122 0.93619 0.60741 0.0
O1228 O 0.07607 0.96851 0.61557 0.0
O1229 O 0.05355 0.99242 0.58695 0.0
O1230 O 0.01767 0.97454 0.66599 0.0
O1231 O 0.02891 0.99412 0.63093 0.0
Co1232 Co 0.88016 0.05624 0.47496 0.0
O1233 O 0.8574 0.03562 0.45411 0.0
O1234 O 0.85818 0.07815 0.45422 0.0
C1235 C 0.87394 0.03062 0.51044 0.0
O1236 O 0.9016 0.08452 0.49247 0.0
Co1237 Co 0.92656 0.03553 0.5067 0.0
O1238 O 0.92254 0.06813 0.52587 0.0
C1239 C 0.92916 0.04219 0.44922 0.0
C1240 C 0.84833 0.05705 0.44518 0.0
C1241 C 0.9162 0.08734 0.51223 0.0
O1242 O 0.90794 0.05501 0.44745 0.0
O1243 O 0.93654 0.03103 0.46994 0.0
O1244 O 0.85753 0.04898 0.50585 0.0
O1245 O 0.89258 0.02939 0.4946 0.0
Co1246 Co 0.38016 0.21728 0.29856 0.0
O1247 O 0.3574 0.23789 0.31941 0.0
O1248 O 0.35819 0.19537 0.3193 0.0
C1249 C 0.37395 0.24289 0.26308 0.0
O1250 O 0.40161 0.18899 0.28105 0.0
Co1251 Co 0.42656 0.23797 0.26681 0.0
O1252 O 0.42251 0.20538 0.24763 0.0
C1253 C 0.42917 0.23131 0.32429 0.0
C1254 C 0.34833 0.21646 0.32833 0.0
C1255 C 0.41619 0.18617 0.26127 0.0
O1256 O 0.40794 0.21851 0.32607 0.0
O1257 O 0.43656 0.24245 0.30356 0.0
O1258 O 0.35753 0.22454 0.26767 0.0
O1259 O 0.39258 0.24412 0.27891 0.0
Co1260 Co 0.30623 0.63016 0.04855 0.0
O1261 O 0.28562 0.60739 0.0694 0.0
O1262 O 0.32814 0.60818 0.0693 0.0
C1263 C 0.28062 0.62394 0.01307 0.0
O1264 O 0.33452 0.65161 0.03105 0.0
Co1265 Co 0.28552 0.67656 0.01682 0.0
O1266 O 0.31813 0.67255 0.99765 0.0
C1267 C 0.29217 0.67914 0.0743 0.0
C1268 C 0.30705 0.59832 0.07833 0.0
C1269 C 0.33733 0.66621 1.01128 0.0
O1270 O 0.305 0.65794 0.07607 0.0
O1271 O 0.281 0.68653 0.05358 0.0
O1272 O 0.29898 0.60753 0.01766 0.0
O1273 O 0.27939 0.64258 0.02891 0.0
Co1274 Co 0.89335 0.55624 0.79856 0.0
O1275 O 0.91612 0.53562 0.81941 0.0
O1276 O 0.91533 0.57815 0.8193 0.0
C1277 C 0.89957 0.53063 0.76308 0.0
O1278 O 0.8719 0.58452 0.78105 0.0
Co1279 Co 0.84695 0.53552 0.76683 0.0
O1280 O 0.85096 0.56813 0.74766 0.0
C1281 C 0.84437 0.54216 0.82431 0.0
C1282 C 0.92519 0.55705 0.82833 0.0
C1283 C 0.85731 0.58734 0.76129 0.0
O1284 O 0.86558 0.555 0.82607 0.0
O1285 O 0.83699 0.531 0.80359 0.0
O1286 O 0.91598 0.54898 0.76766 0.0
O1287 O 0.88093 0.52939 0.77891 0.0
Co1288 Co 0.46728 0.14336 0.04856 0.0
O1289 O 0.48789 0.16612 0.06941 0.0
O1290 O 0.44537 0.16533 0.0693 0.0
C1291 C 0.49289 0.14957 0.01308 0.0
O1292 O 0.43899 0.12191 0.03105 0.0
Co1293 Co 0.48799 0.09695 0.01682 0.0
O1294 O 0.45538 0.10096 0.99766 0.0
C1295 C 0.48135 0.09437 0.0743 0.0
C1296 C 0.46646 0.17519 0.07833 0.0
C1297 C 0.43617 0.10731 1.01129 0.0
O1298 O 0.46851 0.11558 0.07607 0.0
O1299 O 0.49251 0.08699 0.05359 0.0
O1300 O 0.47453 0.16599 0.01766 0.0
O1301 O 0.49412 0.13093 0.02891 0.0
Co1302 Co 0.89336 0.71728 0.47496 0.0
O1303 O 0.91612 0.73789 0.45411 0.0
O1304 O 0.91533 0.69537 0.45421 0.0
C1305 C 0.89957 0.74289 0.51044 0.0
O1306 O 0.87191 0.68899 0.49246 0.0
Co1307 Co 0.84695 0.73799 0.50669 0.0
O1308 O 0.85096 0.70538 0.52586 0.0
C1309 C 0.84437 0.73135 0.44921 0.0
C1310 C 0.92519 0.71646 0.44518 0.0
C1311 C 0.85731 0.68618 0.51223 0.0
O1312 O 0.86558 0.71851 0.44744 0.0
O1313 O 0.83699 0.74251 0.46993 0.0
O1314 O 0.91599 0.72453 0.50585 0.0
O1315 O 0.88094 0.74412 0.4946 0.0
Co1316 Co 0.30624 0.64335 0.22496 0.0
O1317 O 0.28562 0.66612 0.20411 0.0
O1318 O 0.32815 0.66533 0.20421 0.0
C1319 C 0.28062 0.64957 0.26044 0.0
O1320 O 0.33452 0.62191 0.24246 0.0
Co1321 Co 0.28552 0.59695 0.25669 0.0
O1322 O 0.31813 0.60096 0.27586 0.0
C1323 C 0.29217 0.59437 0.19921 0.0
C1324 C 0.30705 0.67519 0.19518 0.0
C1325 C 0.33734 0.60731 0.26223 0.0
O1326 O 0.305 0.61558 0.19744 0.0
O1327 O 0.281 0.58699 0.21993 0.0
O1328 O 0.29898 0.66599 0.25585 0.0
O1329 O 0.27939 0.63093 0.2446 0.0
Co1330 Co 0.96728 0.13016 0.72496 0.0
O1331 O 0.9879 0.1074 0.70411 0.0
O1332 O 0.94537 0.10819 0.70421 0.0
C1333 C 0.99289 0.12395 0.76044 0.0
O1334 O 0.93899 0.15161 0.74246 0.0
Co1335 Co 0.98797 0.17656 0.75671 0.0
O1336 O 0.95537 0.17252 0.77588 0.0
C1337 C 0.98131 0.17917 0.69923 0.0
C1338 C 0.96647 0.09833 0.69518 0.0
C1339 C 0.93617 0.16619 0.76224 0.0
O1340 O 0.96851 0.15794 0.69745 0.0
O1341 O 0.99245 0.18656 0.71995 0.0
O1342 O 0.97453 0.10753 0.75585 0.0
O1343 O 0.99412 0.14258 0.7446 0.0
Co1344 Co 0.54855 0.14335 0.96728 0.0
O1345 O 0.56941 0.16611 0.98789 0.0
O1346 O 0.5693 0.16533 0.94537 0.0
C1347 C 0.51308 0.14957 0.99289 0.0
O1348 O 0.53105 0.12191 0.93899 0.0
Co1349 Co 0.51681 0.09696 0.98797 0.0
O1350 O 0.49764 0.10099 0.95536 0.0
C1351 C 0.57429 0.09435 0.98131 0.0
C1352 C 0.57833 0.17519 0.96646 0.0
C1353 C 0.51128 0.10733 0.93616 0.0
O1354 O 0.57607 0.11557 0.96851 0.0
O1355 O 0.55356 0.08696 0.99245 0.0
O1356 O 0.51766 0.16599 0.97453 0.0
O1357 O 0.52891 0.13093 0.99412 0.0
Co1358 Co 0.38015 0.29856 0.21727 0.0
O1359 O 0.3574 0.31941 0.2379 0.0
O1360 O 0.35818 0.3193 0.19537 0.0
C1361 C 0.37394 0.26309 0.24289 0.0
O1362 O 0.40159 0.28105 0.18898 0.0
Co1363 Co 0.42655 0.26677 0.23793 0.0
O1364 O 0.42236 0.24755 0.20538 0.0
C1365 C 0.42919 0.32426 0.23126 0.0
C1366 C 0.34833 0.32834 0.21647 0.0
C1367 C 0.41608 0.26121 0.18617 0.0
O1368 O 0.40794 0.32606 0.2185 0.0
O1369 O 0.4366 0.30352 0.24236 0.0
O1370 O 0.35752 0.26767 0.22454 0.0
O1371 O 0.39259 0.27891 0.24411 0.0
Co1372 Co 0.22496 0.13016 0.46727 0.0
O1373 O 0.20411 0.10739 0.48789 0.0
O1374 O 0.20421 0.10818 0.44536 0.0
C1375 C 0.26044 0.12394 0.49288 0.0
O1376 O 0.24246 0.15161 0.43899 0.0
Co1377 Co 0.25669 0.17656 0.48799 0.0
O1378 O 0.27586 0.17255 0.45538 0.0
C1379 C 0.19921 0.17914 0.48135 0.0
C1380 C 0.19518 0.09832 0.46646 0.0
C1381 C 0.26223 0.1662 0.43617 0.0
O1382 O 0.19744 0.15794 0.46851 0.0
O1383 O 0.21993 0.18653 0.49251 0.0
O1384 O 0.25585 0.10753 0.47453 0.0
O1385 O 0.2446 0.14258 0.49412 0.0
Co1386 Co 0.39336 0.97496 0.71727 0.0
O1387 O 0.41611 0.9541 0.73789 0.0
O1388 O 0.41534 0.95421 0.69537 0.0
C1389 C 0.39957 1.01043 0.74289 0.0
O1390 O 0.37192 0.99247 0.68899 0.0
Co1391 Co 0.34696 1.00672 0.73796 0.0
O1392 O 0.35111 0.02594 0.7054 0.0
C1393 C 0.34435 0.94923 0.7313 0.0
C1394 C 0.42519 0.94518 0.71646 0.0
C1395 C 0.35741 0.0123 0.68619 0.0
O1396 O 0.36558 0.94745 0.7185 0.0
O1397 O 0.33695 0.96997 0.74242 0.0
O1398 O 0.416 1.00584 0.72454 0.0
O1399 O 0.38093 0.9946 0.74412 0.0
Co1400 Co 0.54855 0.13016 0.30624 0.0
O1401 O 0.56941 0.1074 0.28562 0.0
O1402 O 0.5693 0.10819 0.32815 0.0
C1403 C 0.51308 0.12395 0.28062 0.0
O1404 O 0.53105 0.15161 0.33452 0.0
Co1405 Co 0.51681 0.17656 0.28554 0.0
O1406 O 0.49763 0.17251 0.31814 0.0
C1407 C 0.57429 0.17917 0.29221 0.0
C1408 C 0.57833 0.09833 0.30705 0.0
C1409 C 0.51127 0.16619 0.33734 0.0
O1410 O 0.57607 0.15794 0.30501 0.0
O1411 O 0.55356 0.18656 0.28106 0.0
O1412 O 0.51766 0.10753 0.29898 0.0
O1413 O 0.52891 0.14258 0.27939 0.0
Co1414 Co 0.39336 0.29855 0.55624 0.0
O1415 O 0.41611 0.31942 0.53562 0.0
O1416 O 0.41533 0.3193 0.57815 0.0
C1417 C 0.39957 0.26309 0.53062 0.0
O1418 O 0.37192 0.28104 0.58453 0.0
Co1419 Co 0.34696 0.26678 0.53556 0.0
O1420 O 0.35112 0.24756 0.56812 0.0
C1421 C 0.34434 0.32427 0.54223 0.0
C1422 C 0.42518 0.32833 0.55705 0.0
C1423 C 0.35741 0.26121 0.58733 0.0
O1424 O 0.36557 0.32606 0.55502 0.0
O1425 O 0.33693 0.30354 0.53111 0.0
O1426 O 0.416 0.26767 0.54897 0.0
O1427 O 0.38093 0.27891 0.5294 0.0
Co1428 Co 0.22496 0.14336 0.80624 0.0
O1429 O 0.20411 0.16612 0.78562 0.0
O1430 O 0.20421 0.16533 0.82815 0.0
C1431 C 0.26044 0.14957 0.78063 0.0
O1432 O 0.24246 0.12191 0.83452 0.0
Co1433 Co 0.25669 0.09695 0.78552 0.0
O1434 O 0.27586 0.10096 0.81813 0.0
C1435 C 0.19921 0.09437 0.79216 0.0
C1436 C 0.19518 0.17519 0.80705 0.0
C1437 C 0.26222 0.10731 0.83734 0.0
O1438 O 0.19744 0.11558 0.805 0.0
O1439 O 0.21992 0.08699 0.781 0.0
O1440 O 0.25585 0.16599 0.79899 0.0
O1441 O 0.2446 0.13094 0.77939 0.0
Co1442 Co 0.38015 0.97496 0.05623 0.0
O1443 O 0.3574 0.9541 0.03561 0.0
O1444 O 0.35818 0.95421 0.07814 0.0
C1445 C 0.37394 1.01043 0.03062 0.0
O1446 O 0.40159 0.99246 0.08452 0.0
Co1447 Co 0.42655 1.00673 0.03557 0.0
O1448 O 0.42237 0.02596 0.06813 0.0
C1449 C 0.42917 0.94924 0.04222 0.0
C1450 C 0.34832 0.94518 0.05704 0.0
C1451 C 0.41609 0.0123 0.08733 0.0
O1452 O 0.40794 0.94744 0.055 0.0
O1453 O 0.43658 0.96998 0.03112 0.0
O1454 O 0.35752 1.00584 0.04897 0.0
O1455 O 0.39258 0.9946 0.02939 0.0
Co1456 Co 0.96727 0.04856 0.64336 0.0
O1457 O 0.98789 0.06942 0.66611 0.0
O1458 O 0.94537 0.0693 0.66534 0.0
C1459 C 0.9929 0.01309 0.64958 0.0
O1460 O 0.93899 0.03105 0.62193 0.0
Co1461 Co 0.98794 0.01677 0.59697 0.0
O1462 O 0.95538 0.99755 0.60115 0.0
C1463 C 0.98126 0.07426 0.59433 0.0
C1464 C 0.96647 0.07834 0.67519 0.0
C1465 C 0.93618 1.01121 0.60743 0.0
O1466 O 0.9685 0.07606 0.61558 0.0
O1467 O 0.99237 0.05352 0.58692 0.0
O1468 O 0.97454 0.01767 0.666 0.0
O1469 O 0.99412 0.02891 0.63093 0.0
Co1470 Co 0.47496 0.71728 0.89335 0.0
O1471 O 0.45411 0.73789 0.91612 0.0
O1472 O 0.45422 0.69537 0.91533 0.0
C1473 C 0.51044 0.74289 0.89957 0.0
O1474 O 0.49246 0.68899 0.8719 0.0
Co1475 Co 0.50669 0.73799 0.84695 0.0
O1476 O 0.52586 0.70539 0.85096 0.0
C1477 C 0.44921 0.73135 0.84437 0.0
C1478 C 0.44519 0.71646 0.92519 0.0
C1479 C 0.51223 0.68618 0.8573 0.0
O1480 O 0.44745 0.71851 0.86557 0.0
O1481 O 0.46993 0.74251 0.83699 0.0
O1482 O 0.50585 0.72453 0.91598 0.0
O1483 O 0.4946 0.74412 0.88093 0.0
Co1484 Co 0.80624 0.22496 0.14336 0.0
O1485 O 0.78562 0.2041 0.16611 0.0
O1486 O 0.82815 0.20421 0.16533 0.0
C1487 C 0.78062 0.26043 0.14957 0.0
O1488 O 0.83453 0.24247 0.12192 0.0
Co1489 Co 0.78558 0.25674 0.09696 0.0
O1490 O 0.81814 0.27596 0.10114 0.0
C1491 C 0.79225 0.19925 0.09433 0.0
C1492 C 0.80705 0.19518 0.17519 0.0
C1493 C 0.83734 0.2623 0.10743 0.0
O1494 O 0.80502 0.19745 0.11557 0.0
O1495 O 0.78114 0.21999 0.08692 0.0
O1496 O 0.79897 0.25584 0.16599 0.0
O1497 O 0.7794 0.24461 0.13093 0.0
Co1498 Co 0.29856 0.55624 0.39335 0.0
O1499 O 0.31941 0.53562 0.41611 0.0
O1500 O 0.3193 0.57815 0.41533 0.0
C1501 C 0.26308 0.53062 0.39957 0.0
O1502 O 0.28105 0.58453 0.37191 0.0
Co1503 Co 0.2668 0.53554 0.34696 0.0
O1504 O 0.24763 0.56814 0.351 0.0
C1505 C 0.32428 0.54221 0.34434 0.0
C1506 C 0.32833 0.55705 0.42518 0.0
C1507 C 0.26127 0.58735 0.35733 0.0
O1508 O 0.32607 0.55501 0.36557 0.0
O1509 O 0.30356 0.53107 0.33695 0.0
O1510 O 0.26767 0.54898 0.41599 0.0
O1511 O 0.27891 0.52939 0.38093 0.0
Co1512 Co 0.96727 0.22496 0.63016 0.0
O1513 O 0.98789 0.2041 0.6074 0.0
O1514 O 0.94537 0.20421 0.60818 0.0
C1515 C 0.99289 0.26043 0.62394 0.0
O1516 O 0.93899 0.24247 0.6516 0.0
Co1517 Co 0.98796 0.25672 0.67655 0.0
O1518 O 0.9554 0.27594 0.67241 0.0
C1519 C 0.98131 0.19923 0.67916 0.0
C1520 C 0.96646 0.19518 0.59833 0.0
C1521 C 0.93619 0.26229 0.66611 0.0
O1522 O 0.9685 0.19745 0.65794 0.0
O1523 O 0.99243 0.21996 0.68656 0.0
O1524 O 0.97454 0.25585 0.60752 0.0
O1525 O 0.99412 0.2446 0.64258 0.0
Co1526 Co 0.29856 0.71728 0.88016 0.0
O1527 O 0.31941 0.7379 0.8574 0.0
O1528 O 0.3193 0.69537 0.85818 0.0
C1529 C 0.26308 0.74289 0.87394 0.0
O1530 O 0.28105 0.68899 0.9016 0.0
Co1531 Co 0.26681 0.73797 0.92656 0.0
O1532 O 0.24763 0.70537 0.92251 0.0
C1533 C 0.32429 0.73131 0.92917 0.0
C1534 C 0.32833 0.71647 0.84833 0.0
C1535 C 0.26128 0.68617 0.91618 0.0
O1536 O 0.32607 0.71851 0.90794 0.0
O1537 O 0.30356 0.74245 0.93656 0.0
O1538 O 0.26767 0.72454 0.85753 0.0
O1539 O 0.27891 0.74412 0.89258 0.0
Co1540 Co 0.80624 0.04856 0.13016 0.0
O1541 O 0.78562 0.06942 0.1074 0.0
O1542 O 0.82815 0.0693 0.10818 0.0
C1543 C 0.78062 0.01309 0.12394 0.0
O1544 O 0.83453 0.03104 0.15159 0.0
Co1545 Co 0.78558 0.01677 0.17655 0.0
O1546 O 0.81813 0.99755 0.17237 0.0
C1547 C 0.79225 0.07426 0.17919 0.0
C1548 C 0.80705 0.07833 0.09833 0.0
C1549 C 0.83734 1.01121 0.16609 0.0
O1550 O 0.80502 0.07606 0.15794 0.0
O1551 O 0.78115 0.05352 0.1866 0.0
O1552 O 0.79897 0.01767 0.10752 0.0
O1553 O 0.7794 0.02891 0.14259 0.0
Co1554 Co 0.47496 0.55624 0.38016 0.0
O1555 O 0.45411 0.53562 0.3574 0.0
O1556 O 0.45422 0.57815 0.35818 0.0
C1557 C 0.51044 0.53063 0.37395 0.0
O1558 O 0.49246 0.58453 0.4016 0.0
Co1559 Co 0.50671 0.53554 0.42656 0.0
O1560 O 0.52588 0.56815 0.42252 0.0
C1561 C 0.44923 0.54221 0.42916 0.0
C1562 C 0.44518 0.55705 0.34833 0.0
C1563 C 0.51223 0.58735 0.41619 0.0
O1564 O 0.44745 0.55501 0.40794 0.0
O1565 O 0.46995 0.53106 0.43655 0.0
O1566 O 0.50585 0.54898 0.35753 0.0
O1567 O 0.4946 0.5294 0.39258 0.0
Co1568 Co 0.64336 0.46727 0.54856 0.0
O1569 O 0.66612 0.4879 0.56941 0.0
O1570 O 0.66534 0.44537 0.5693 0.0
C1571 C 0.64957 0.49289 0.51309 0.0
O1572 O 0.62192 0.43898 0.53105 0.0
Co1573 Co 0.59696 0.48794 0.51678 0.0
O1574 O 0.60114 0.45538 0.49756 0.0
C1575 C 0.59434 0.48129 0.57428 0.0
C1576 C 0.67519 0.46647 0.57833 0.0
C1577 C 0.60742 0.43618 0.51122 0.0
O1578 O 0.61558 0.46851 0.57607 0.0
O1579 O 0.58693 0.49239 0.55354 0.0
O1580 O 0.66599 0.47454 0.51767 0.0
O1581 O 0.63093 0.49412 0.52891 0.0
Co1582 Co 0.14336 0.30624 0.72496 0.0
O1583 O 0.16612 0.28562 0.7041 0.0
O1584 O 0.16534 0.32815 0.70421 0.0
C1585 C 0.14957 0.28062 0.76043 0.0
O1586 O 0.12192 0.33453 0.74247 0.0
Co1587 Co 0.09696 0.28556 0.75672 0.0
O1588 O 0.10111 0.31812 0.77594 0.0
C1589 C 0.09435 0.29221 0.69923 0.0
C1590 C 0.17519 0.30705 0.69518 0.0
C1591 C 0.10741 0.33733 0.76229 0.0
O1592 O 0.11558 0.30501 0.69745 0.0
O1593 O 0.08695 0.28109 0.71997 0.0
O1594 O 0.16599 0.29898 0.75585 0.0
O1595 O 0.13093 0.2794 0.7446 0.0
Co1596 Co 0.21727 0.89336 0.97495 0.0
O1597 O 0.23789 0.91611 0.9541 0.0
O1598 O 0.19537 0.91533 0.95421 0.0
C1599 C 0.24289 0.89957 1.01042 0.0
O1600 O 0.18898 0.87192 0.99246 0.0
Co1601 Co 0.23793 0.84697 1.00674 0.0
O1602 O 0.20538 0.85115 0.02596 0.0
C1603 C 0.23126 0.84433 0.94925 0.0
C1604 C 0.21646 0.92519 0.94518 0.0
C1605 C 0.18617 0.85743 0.0123 0.0
O1606 O 0.2185 0.86557 0.94745 0.0
O1607 O 0.24237 0.83692 0.96999 0.0
O1608 O 0.22454 0.91599 1.00584 0.0
O1609 O 0.24411 0.88093 0.9946 0.0
Co1610 Co 0.63015 0.96727 0.22496 0.0
O1611 O 0.6074 0.98789 0.2041 0.0
O1612 O 0.60818 0.94537 0.20421 0.0
C1613 C 0.62394 0.99289 0.26043 0.0
O1614 O 0.65159 0.93898 0.24247 0.0
Co1615 Co 0.67655 0.98794 0.25674 0.0
O1616 O 0.67236 0.95538 0.27597 0.0
C1617 C 0.67919 0.98126 0.19925 0.0
C1618 C 0.59833 0.96646 0.19518 0.0
C1619 C 0.66608 0.93618 0.26231 0.0
O1620 O 0.65794 0.9685 0.19745 0.0
O1621 O 0.6866 0.99237 0.21999 0.0
O1622 O 0.60752 0.97454 0.25584 0.0
O1623 O 0.64259 0.99411 0.24461 0.0
Co1624 Co 0.05624 0.38016 0.97496 0.0
O1625 O 0.03562 0.3574 0.9541 0.0
O1626 O 0.07815 0.35818 0.95421 0.0
C1627 C 0.03062 0.37394 1.01043 0.0
O1628 O 0.08453 0.40159 0.99247 0.0
Co1629 Co 0.03558 0.42655 1.00674 0.0
O1630 O 0.06813 0.42237 0.02597 0.0
C1631 C 0.04225 0.42919 0.94925 0.0
C1632 C 0.05705 0.34833 0.94518 0.0
C1633 C 0.08734 0.41609 0.0123 0.0
O1634 O 0.05501 0.40794 0.94745 0.0
O1635 O 0.03115 0.4366 0.96999 0.0
O1636 O 0.04897 0.35752 1.00584 0.0
O1637 O 0.0294 0.39259 0.9946 0.0
Co1638 Co 0.63016 0.80624 0.54856 0.0
O1639 O 0.6074 0.78562 0.56941 0.0
O1640 O 0.60818 0.82815 0.5693 0.0
C1641 C 0.62394 0.78062 0.51309 0.0
O1642 O 0.65159 0.83453 0.53105 0.0
Co1643 Co 0.67655 0.78558 0.51677 0.0
O1644 O 0.67236 0.81813 0.49755 0.0
C1645 C 0.67919 0.79225 0.57426 0.0
C1646 C 0.59833 0.80705 0.57833 0.0
C1647 C 0.66609 0.83734 0.51121 0.0
O1648 O 0.65794 0.80502 0.57606 0.0
O1649 O 0.6866 0.78115 0.55352 0.0
O1650 O 0.60752 0.79897 0.51767 0.0
O1651 O 0.64259 0.7794 0.52891 0.0
Co1652 Co 0.21727 0.88016 0.79856 0.0
O1653 O 0.23789 0.8574 0.81941 0.0
O1654 O 0.19537 0.85818 0.8193 0.0
C1655 C 0.24289 0.87394 0.76309 0.0
O1656 O 0.18898 0.90159 0.78105 0.0
Co1657 Co 0.23794 0.92655 0.76677 0.0
O1658 O 0.20538 0.92237 0.74755 0.0
C1659 C 0.23126 0.92919 0.82426 0.0
C1660 C 0.21646 0.84833 0.82833 0.0
C1661 C 0.18617 0.91609 0.76121 0.0
O1662 O 0.2185 0.90794 0.82606 0.0
O1663 O 0.24237 0.93659 0.80352 0.0
O1664 O 0.22454 0.85752 0.76767 0.0
O1665 O 0.24411 0.89259 0.77891 0.0
Co1666 Co 0.55624 0.39336 0.29856 0.0
O1667 O 0.53562 0.41612 0.31941 0.0
O1668 O 0.57815 0.41534 0.3193 0.0
C1669 C 0.53062 0.39957 0.26308 0.0
O1670 O 0.58453 0.37192 0.28104 0.0
Co1671 Co 0.53556 0.34696 0.26679 0.0
O1672 O 0.56812 0.35111 0.24757 0.0
C1673 C 0.54221 0.34435 0.32428 0.0
C1674 C 0.55705 0.42519 0.32833 0.0
C1675 C 0.58733 0.35741 0.26122 0.0
O1676 O 0.55501 0.36558 0.32607 0.0
O1677 O 0.53109 0.33695 0.30355 0.0
O1678 O 0.54897 0.416 0.26767 0.0
O1679 O 0.5294 0.38093 0.27891 0.0
Co1680 Co 0.47496 0.88016 0.05624 0.0
O1681 O 0.4541 0.8574 0.03562 0.0
O1682 O 0.45421 0.85818 0.07815 0.0
C1683 C 0.51044 0.87394 0.03063 0.0
O1684 O 0.49247 0.9016 0.08453 0.0
Co1685 Co 0.5067 0.92656 0.03553 0.0
O1686 O 0.52587 0.92254 0.06814 0.0
C1687 C 0.44922 0.92916 0.04219 0.0
C1688 C 0.44518 0.84833 0.05705 0.0
C1689 C 0.51223 0.9162 0.08734 0.0
O1690 O 0.44745 0.90794 0.05501 0.0
O1691 O 0.46994 0.93654 0.03103 0.0
O1692 O 0.50585 0.85753 0.04898 0.0
O1693 O 0.4946 0.89258 0.02939 0.0
Co1694 Co 0.64336 0.72496 0.80624 0.0
O1695 O 0.66611 0.7041 0.78562 0.0
O1696 O 0.66534 0.70421 0.82814 0.0
C1697 C 0.64957 0.76043 0.78062 0.0
O1698 O 0.62193 0.74247 0.83453 0.0
Co1699 Co 0.59697 0.75674 0.78558 0.0
O1700 O 0.60115 0.77597 0.81814 0.0
C1701 C 0.59433 0.69925 0.79225 0.0
C1702 C 0.67519 0.69518 0.80705 0.0
C1703 C 0.60743 0.7623 0.83734 0.0
O1704 O 0.61557 0.69745 0.80501 0.0
O1705 O 0.58692 0.71999 0.78115 0.0
O1706 O 0.66599 0.75584 0.79897 0.0
O1707 O 0.63093 0.7446 0.7794 0.0
Co1708 Co 0.79855 0.89336 0.55624 0.0
O1709 O 0.8194 0.91612 0.53562 0.0
O1710 O 0.8193 0.91533 0.57815 0.0
C1711 C 0.76308 0.89957 0.53063 0.0
O1712 O 0.78105 0.87191 0.58452 0.0
Co1713 Co 0.76682 0.84695 0.53552 0.0
O1714 O 0.74766 0.85096 0.56813 0.0
C1715 C 0.8243 0.84437 0.54217 0.0
C1716 C 0.82833 0.92519 0.55705 0.0
C1717 C 0.76129 0.85731 0.58734 0.0
O1718 O 0.82607 0.86558 0.555 0.0
O1719 O 0.80359 0.83699 0.53101 0.0
O1720 O 0.76766 0.91599 0.54898 0.0
O1721 O 0.77891 0.88094 0.52939 0.0
Co1722 Co 0.63015 0.04856 0.30624 0.0
O1723 O 0.6074 0.06941 0.28562 0.0
O1724 O 0.60818 0.0693 0.32815 0.0
C1725 C 0.62394 0.01309 0.28062 0.0
O1726 O 0.65159 0.03105 0.33452 0.0
Co1727 Co 0.67655 0.01679 0.28555 0.0
O1728 O 0.67239 0.99756 0.31811 0.0
C1729 C 0.67916 0.07428 0.29221 0.0
C1730 C 0.59832 0.07834 0.30705 0.0
C1731 C 0.6661 1.01121 0.33732 0.0
O1732 O 0.65794 0.07607 0.30501 0.0
O1733 O 0.68657 0.05354 0.28109 0.0
O1734 O 0.60752 0.01767 0.29897 0.0
O1735 O 0.64258 0.02891 0.27939 0.0
Co1736 Co 0.47496 0.89335 0.71728 0.0
O1737 O 0.4541 0.91611 0.7379 0.0
O1738 O 0.45421 0.91533 0.69537 0.0
C1739 C 0.51043 0.89957 0.74289 0.0
O1740 O 0.49246 0.87191 0.68899 0.0
Co1741 Co 0.50671 0.84695 0.73797 0.0
O1742 O 0.52588 0.851 0.70537 0.0
C1743 C 0.44923 0.84434 0.73131 0.0
C1744 C 0.44518 0.92518 0.71647 0.0
C1745 C 0.51224 0.85733 0.68617 0.0
O1746 O 0.44745 0.86557 0.71851 0.0
O1747 O 0.46995 0.83695 0.74245 0.0
O1748 O 0.50585 0.91599 0.72454 0.0
O1749 O 0.4946 0.88093 0.74412 0.0
Co1750 Co 0.63016 0.72496 0.46728 0.0
O1751 O 0.6074 0.7041 0.48789 0.0
O1752 O 0.60818 0.70422 0.44537 0.0
C1753 C 0.62394 0.76043 0.4929 0.0
O1754 O 0.65159 0.74247 0.43899 0.0
Co1755 Co 0.67655 0.75673 0.48796 0.0
O1756 O 0.67238 0.77596 0.4554 0.0
C1757 C 0.67918 0.69925 0.48128 0.0
C1758 C 0.59833 0.69518 0.46646 0.0
C1759 C 0.6661 0.76231 0.43619 0.0
O1760 O 0.65794 0.69745 0.4685 0.0
O1761 O 0.68658 0.71998 0.4924 0.0
O1762 O 0.60752 0.75584 0.47454 0.0
O1763 O 0.64258 0.7446 0.49412 0.0
Co1764 Co 0.79856 0.88016 0.21728 0.0
O1765 O 0.81941 0.85739 0.23789 0.0
O1766 O 0.8193 0.85818 0.19536 0.0
C1767 C 0.76308 0.87394 0.24289 0.0
O1768 O 0.78105 0.90161 0.18899 0.0
Co1769 Co 0.76683 0.92656 0.23799 0.0
O1770 O 0.74766 0.92255 0.20539 0.0
C1771 C 0.82431 0.92914 0.23135 0.0
C1772 C 0.82833 0.84832 0.21646 0.0
C1773 C 0.76129 0.91621 0.18618 0.0
O1774 O 0.82607 0.90794 0.21851 0.0
O1775 O 0.80359 0.93652 0.24251 0.0
O1776 O 0.76766 0.85753 0.22453 0.0
O1777 O 0.77891 0.89258 0.24412 0.0
Co1778 Co 0.64336 0.04856 0.96728 0.0
O1779 O 0.66611 0.06941 0.9879 0.0
O1780 O 0.66534 0.0693 0.94537 0.0
C1781 C 0.64957 0.01308 0.9929 0.0
O1782 O 0.62192 0.03104 0.93899 0.0
Co1783 Co 0.59696 0.01679 0.98796 0.0
O1784 O 0.60111 0.99757 0.9554 0.0
C1785 C 0.59435 0.07428 0.98131 0.0
C1786 C 0.67519 0.07833 0.96647 0.0
C1787 C 0.60741 1.01122 0.93619 0.0
O1788 O 0.61558 0.07607 0.96851 0.0
O1789 O 0.58695 0.05355 0.99243 0.0
O1790 O 0.66599 0.01767 0.97454 0.0
O1791 O 0.63093 0.02891 0.99412 0.0
Co1792 Co 0.05624 0.97496 0.38015 0.0
O1793 O 0.03562 0.9541 0.3574 0.0
O1794 O 0.07814 0.95421 0.35818 0.0
C1795 C 0.03062 1.01042 0.37394 0.0
O1796 O 0.08453 0.99247 0.40159 0.0
Co1797 Co 0.03557 1.00674 0.42654 0.0
O1798 O 0.06812 0.02597 0.42235 0.0
C1799 C 0.04225 0.94925 0.42919 0.0
C1800 C 0.05705 0.94518 0.34832 0.0
C1801 C 0.08733 0.01231 0.41608 0.0
O1802 O 0.05501 0.94745 0.40794 0.0
O1803 O 0.03115 0.96999 0.4366 0.0
O1804 O 0.04897 1.00584 0.35752 0.0
O1805 O 0.02939 0.9946 0.39258 0.0
Co1806 Co 0.54855 0.30624 0.13016 0.0
O1807 O 0.56941 0.28562 0.1074 0.0
O1808 O 0.5693 0.32815 0.10819 0.0
C1809 C 0.51308 0.28062 0.12395 0.0
O1810 O 0.53105 0.33452 0.15161 0.0
Co1811 Co 0.51682 0.28552 0.17656 0.0
O1812 O 0.49766 0.31813 0.17256 0.0
C1813 C 0.5743 0.29216 0.17914 0.0
C1814 C 0.57833 0.30705 0.09833 0.0
C1815 C 0.51129 0.33734 0.16621 0.0
O1816 O 0.57607 0.305 0.15794 0.0
O1817 O 0.55359 0.281 0.18653 0.0
O1818 O 0.51766 0.29898 0.10753 0.0
O1819 O 0.52891 0.27939 0.14258 0.0
Co1820 Co 0.21727 0.79855 0.88016 0.0
O1821 O 0.23789 0.81941 0.8574 0.0
O1822 O 0.19537 0.8193 0.85818 0.0
C1823 C 0.24289 0.76308 0.87394 0.0
O1824 O 0.18898 0.78104 0.90159 0.0
Co1825 Co 0.23795 0.76678 0.92655 0.0
O1826 O 0.20539 0.74756 0.9224 0.0
C1827 C 0.23128 0.82427 0.92918 0.0
C1828 C 0.21646 0.82833 0.84833 0.0
C1829 C 0.18618 0.76121 0.9161 0.0
O1830 O 0.21849 0.82606 0.90794 0.0
O1831 O 0.2424 0.80354 0.93658 0.0
O1832 O 0.22454 0.76767 0.85752 0.0
O1833 O 0.24411 0.77891 0.89258 0.0
Co1834 Co 0.72496 0.46728 0.63016 0.0
O1835 O 0.7041 0.4879 0.6074 0.0
O1836 O 0.70421 0.44537 0.60818 0.0
C1837 C 0.76043 0.49289 0.62395 0.0
O1838 O 0.74246 0.43899 0.6516 0.0
Co1839 Co 0.75671 0.48797 0.67656 0.0
O1840 O 0.77588 0.45537 0.67251 0.0
C1841 C 0.69923 0.48131 0.67917 0.0
C1842 C 0.69518 0.46647 0.59833 0.0
C1843 C 0.76224 0.43617 0.66618 0.0
O1844 O 0.69745 0.46851 0.65794 0.0
O1845 O 0.71995 0.49245 0.68656 0.0
O1846 O 0.75585 0.47454 0.60753 0.0
O1847 O 0.7446 0.49412 0.64258 0.0
Co1848 Co 0.05624 0.79855 0.39336 0.0
O1849 O 0.03562 0.81941 0.41611 0.0
O1850 O 0.07815 0.8193 0.41533 0.0
C1851 C 0.03062 0.76308 0.39957 0.0
O1852 O 0.08453 0.78105 0.37192 0.0
Co1853 Co 0.03555 0.76679 0.34696 0.0
O1854 O 0.06812 0.74757 0.3511 0.0
C1855 C 0.04221 0.82428 0.34435 0.0
C1856 C 0.05705 0.82833 0.42519 0.0
C1857 C 0.08733 0.76122 0.3574 0.0
O1858 O 0.05501 0.82606 0.36557 0.0
O1859 O 0.03108 0.80355 0.33695 0.0
O1860 O 0.04898 0.76767 0.41599 0.0
O1861 O 0.0294 0.77891 0.38093 0.0
Co1862 Co 0.72496 0.30623 0.14336 0.0
O1863 O 0.7041 0.28562 0.16612 0.0
O1864 O 0.70421 0.32814 0.16533 0.0
C1865 C 0.76043 0.28062 0.14957 0.0
O1866 O 0.74246 0.33452 0.12191 0.0
Co1867 Co 0.75671 0.28554 0.09696 0.0
O1868 O 0.77588 0.31814 0.10101 0.0
C1869 C 0.69923 0.29221 0.09435 0.0
C1870 C 0.69518 0.30705 0.17519 0.0
C1871 C 0.76224 0.33734 0.10733 0.0
O1872 O 0.69744 0.305 0.11557 0.0
O1873 O 0.71995 0.28107 0.08696 0.0
O1874 O 0.75585 0.29897 0.16599 0.0
O1875 O 0.7446 0.27939 0.13093 0.0
Co1876 Co 0.21727 0.97496 0.89336 0.0
O1877 O 0.23789 0.9541 0.91611 0.0
O1878 O 0.19537 0.95422 0.91533 0.0
C1879 C 0.2429 1.01043 0.89957 0.0
O1880 O 0.18899 0.99248 0.87192 0.0
Co1881 Co 0.23795 1.00673 0.84696 0.0
O1882 O 0.20539 0.02595 0.85112 0.0
C1883 C 0.23128 0.94925 0.84434 0.0
C1884 C 0.21646 0.94518 0.92518 0.0
C1885 C 0.18618 0.0123 0.85741 0.0
O1886 O 0.21849 0.94745 0.86557 0.0
O1887 O 0.2424 0.96998 0.83693 0.0
O1888 O 0.22454 1.00584 0.91599 0.0
O1889 O 0.24412 0.9946 0.88093 0.0
Co1890 Co 0.54855 0.46727 0.64335 0.0
O1891 O 0.56941 0.48789 0.66611 0.0
O1892 O 0.5693 0.44536 0.66533 0.0
C1893 C 0.51308 0.49289 0.64957 0.0
O1894 O 0.53105 0.43899 0.62191 0.0
Co1895 Co 0.51681 0.48798 0.59695 0.0
O1896 O 0.49765 0.45538 0.60097 0.0
C1897 C 0.57429 0.48132 0.59436 0.0
C1898 C 0.57833 0.46646 0.67519 0.0
C1899 C 0.51128 0.43617 0.60732 0.0
O1900 O 0.57606 0.4685 0.61557 0.0
O1901 O 0.55357 0.49248 0.58697 0.0
O1902 O 0.51766 0.47453 0.66599 0.0
O1903 O 0.52891 0.49412 0.63093 0.0
Co1904 Co 0.38016 0.55624 0.47496 0.0
O1905 O 0.3574 0.53562 0.4541 0.0
O1906 O 0.35818 0.57815 0.45421 0.0
C1907 C 0.37394 0.53062 0.51043 0.0
O1908 O 0.40159 0.58453 0.49247 0.0
Co1909 Co 0.42655 0.53556 0.50672 0.0
O1910 O 0.4224 0.56812 0.52594 0.0
C1911 C 0.42916 0.54221 0.44923 0.0
C1912 C 0.34833 0.55705 0.44518 0.0
C1913 C 0.41611 0.58733 0.51229 0.0
O1914 O 0.40794 0.55501 0.44745 0.0
O1915 O 0.43657 0.53109 0.46996 0.0
O1916 O 0.35752 0.54897 0.50584 0.0
O1917 O 0.39258 0.5294 0.4946 0.0
Co1918 Co 0.88015 0.71727 0.29856 0.0
O1919 O 0.85739 0.73789 0.31941 0.0
O1920 O 0.85817 0.69537 0.3193 0.0
C1921 C 0.87394 0.74289 0.26308 0.0
O1922 O 0.90159 0.68899 0.28105 0.0
Co1923 Co 0.92655 0.73795 0.26679 0.0
O1924 O 0.9224 0.70539 0.24757 0.0
C1925 C 0.92916 0.7313 0.32428 0.0
C1926 C 0.84832 0.71647 0.32833 0.0
C1927 C 0.9161 0.68618 0.26122 0.0
O1928 O 0.90793 0.7185 0.32607 0.0
O1929 O 0.93656 0.74242 0.30355 0.0
O1930 O 0.85752 0.72454 0.26767 0.0
O1931 O 0.89258 0.74411 0.27891 0.0
Co1932 Co 0.80624 0.13016 0.04856 0.0
O1933 O 0.78562 0.1074 0.06942 0.0
O1934 O 0.82815 0.10818 0.0693 0.0
C1935 C 0.78062 0.12394 0.01309 0.0
O1936 O 0.83453 0.15159 0.03104 0.0
Co1937 Co 0.78556 0.17655 0.01678 0.0
O1938 O 0.81812 0.1724 0.99756 0.0
C1939 C 0.79223 0.17918 0.07427 0.0
C1940 C 0.80705 0.09833 0.07834 0.0
C1941 C 0.83733 0.1661 1.01122 0.0
O1942 O 0.80502 0.15794 0.07606 0.0
O1943 O 0.78111 0.18658 0.05354 0.0
O1944 O 0.79897 0.10752 0.01767 0.0
O1945 O 0.7794 0.14258 0.02891 0.0
Co1946 Co 0.39336 0.05624 0.79856 0.0
O1947 O 0.41611 0.03562 0.81941 0.0
O1948 O 0.41534 0.07814 0.8193 0.0
C1949 C 0.39958 0.03062 0.76309 0.0
O1950 O 0.37192 0.08453 0.78105 0.0
Co1951 Co 0.34697 0.03558 0.76677 0.0
O1952 O 0.35117 0.06813 0.74754 0.0
C1953 C 0.34433 0.04225 0.82426 0.0
C1954 C 0.42519 0.05705 0.82833 0.0
C1955 C 0.35743 0.08733 0.7612 0.0
O1956 O 0.36557 0.05501 0.82606 0.0
O1957 O 0.33691 0.03116 0.80352 0.0
O1958 O 0.41599 0.04897 0.76767 0.0
O1959 O 0.38093 0.0294 0.77891 0.0
Co1960 Co 0.96727 0.64336 0.04856 0.0
O1961 O 0.98789 0.66611 0.06941 0.0
O1962 O 0.94537 0.66533 0.0693 0.0
C1963 C 0.9929 0.64957 0.01309 0.0
O1964 O 0.93899 0.62192 0.03105 0.0
Co1965 Co 0.98794 0.59697 0.01677 0.0
O1966 O 0.95539 0.60116 0.99754 0.0
C1967 C 0.98126 0.59433 0.07426 0.0
C1968 C 0.96646 0.67519 0.07833 0.0
C1969 C 0.93618 0.60743 1.01121 0.0
O1970 O 0.9685 0.61557 0.07607 0.0
O1971 O 0.99236 0.58691 0.05352 0.0
O1972 O 0.97454 0.66599 0.01767 0.0
O1973 O 0.99412 0.63093 0.02891 0.0
Co1974 Co 0.39336 0.21727 0.47496 0.0
O1975 O 0.41611 0.23789 0.4541 0.0
O1976 O 0.41534 0.19537 0.45421 0.0
C1977 C 0.39958 0.2429 0.51042 0.0
O1978 O 0.37192 0.18899 0.49247 0.0
Co1979 Co 0.34697 0.23794 0.50674 0.0
O1980 O 0.35116 0.20539 0.52597 0.0
C1981 C 0.34433 0.23126 0.44925 0.0
C1982 C 0.42519 0.21646 0.44518 0.0
C1983 C 0.35743 0.18618 0.51231 0.0
O1984 O 0.36557 0.2185 0.44745 0.0
O1985 O 0.33691 0.24236 0.46999 0.0
O1986 O 0.41599 0.22454 0.50584 0.0
O1987 O 0.38093 0.24412 0.4946 0.0
Co1988 Co 0.80624 0.14336 0.22496 0.0
O1989 O 0.78562 0.16611 0.2041 0.0
O1990 O 0.82815 0.16533 0.20421 0.0
C1991 C 0.78062 0.14957 0.26043 0.0
O1992 O 0.83453 0.12192 0.24247 0.0
Co1993 Co 0.78556 0.09696 0.25673 0.0
O1994 O 0.81812 0.10112 0.27595 0.0
C1995 C 0.79223 0.09434 0.19925 0.0
C1996 C 0.80705 0.17518 0.19518 0.0
C1997 C 0.83733 0.10741 0.2623 0.0
O1998 O 0.80502 0.11557 0.19745 0.0
O1999 O 0.78111 0.08693 0.21998 0.0
O2000 O 0.79897 0.16599 0.25584 0.0
O2001 O 0.7794 0.13093 0.2446 0.0
Co2002 Co 0.46727 0.63015 0.72496 0.0
O2003 O 0.48789 0.6074 0.7041 0.0
O2004 O 0.44537 0.60818 0.70421 0.0
C2005 C 0.49289 0.62394 0.76043 0.0
O2006 O 0.43899 0.65159 0.74247 0.0
Co2007 Co 0.48795 0.67655 0.75672 0.0
O2008 O 0.45539 0.6724 0.77595 0.0
C2009 C 0.4813 0.67916 0.69923 0.0
C2010 C 0.46646 0.59832 0.69518 0.0
C2011 C 0.43619 0.6661 0.7623 0.0
O2012 O 0.4685 0.65794 0.69745 0.0
O2013 O 0.49242 0.68656 0.71996 0.0
O2014 O 0.47454 0.60752 0.75584 0.0
O2015 O 0.49412 0.64258 0.7446 0.0
Co2016 Co 0.54856 0.64336 0.46727 0.0
O2017 O 0.56941 0.66611 0.48789 0.0
O2018 O 0.5693 0.66533 0.44537 0.0
C2019 C 0.51308 0.64957 0.49289 0.0
O2020 O 0.53105 0.62192 0.43898 0.0
Co2021 Co 0.51677 0.59697 0.48794 0.0
O2022 O 0.49755 0.60114 0.45538 0.0
C2023 C 0.57426 0.59433 0.48127 0.0
C2024 C 0.57834 0.67519 0.46646 0.0
C2025 C 0.51121 0.60743 0.43617 0.0
O2026 O 0.57606 0.61557 0.4685 0.0
O2027 O 0.55352 0.58692 0.49237 0.0
O2028 O 0.51767 0.66599 0.47454 0.0
O2029 O 0.52891 0.63093 0.49411 0.0
Co2030 Co 0.38015 0.79856 0.71727 0.0
O2031 O 0.3574 0.81941 0.73789 0.0
O2032 O 0.35818 0.8193 0.69537 0.0
C2033 C 0.37394 0.76308 0.74289 0.0
O2034 O 0.40159 0.78105 0.68898 0.0
Co2035 Co 0.42655 0.76679 0.73795 0.0
O2036 O 0.4224 0.74757 0.70539 0.0
C2037 C 0.42916 0.82428 0.7313 0.0
C2038 C 0.34832 0.82833 0.71646 0.0
C2039 C 0.4161 0.76122 0.68618 0.0
O2040 O 0.40794 0.82606 0.7185 0.0
O2041 O 0.43656 0.80354 0.74242 0.0
O2042 O 0.35752 0.76767 0.72454 0.0
O2043 O 0.39258 0.77891 0.74411 0.0
Co2044 Co 0.22496 0.63015 0.96727 0.0
O2045 O 0.2041 0.6074 0.98789 0.0
O2046 O 0.20421 0.60818 0.94536 0.0
C2047 C 0.26043 0.62394 0.99289 0.0
O2048 O 0.24247 0.65159 0.93898 0.0
Co2049 Co 0.25672 0.67655 0.98795 0.0
O2050 O 0.27594 0.6724 0.95539 0.0
C2051 C 0.19923 0.67916 0.9813 0.0
C2052 C 0.19518 0.59832 0.96646 0.0
C2053 C 0.26229 0.66611 0.93618 0.0
O2054 O 0.19745 0.65794 0.9685 0.0
O2055 O 0.21996 0.68656 0.99242 0.0
O2056 O 0.25585 0.60752 0.97453 0.0
O2057 O 0.2446 0.64258 0.99411 0.0
Co2058 Co 0.39336 0.47496 0.21727 0.0
O2059 O 0.41611 0.4541 0.23789 0.0
O2060 O 0.41533 0.45421 0.19536 0.0
C2061 C 0.39957 0.51043 0.24289 0.0
O2062 O 0.37192 0.49247 0.18898 0.0
Co2063 Co 0.34696 0.50673 0.23795 0.0
O2064 O 0.35112 0.52595 0.20539 0.0
C2065 C 0.34433 0.44925 0.23128 0.0
C2066 C 0.42518 0.44518 0.21646 0.0
C2067 C 0.35741 0.5123 0.18618 0.0
O2068 O 0.36557 0.44746 0.21849 0.0
O2069 O 0.33693 0.46998 0.2424 0.0
O2070 O 0.41599 0.50584 0.22454 0.0
O2071 O 0.38093 0.4946 0.24411 0.0
Co2072 Co 0.54856 0.63016 0.80624 0.0
O2073 O 0.56942 0.6074 0.78562 0.0
O2074 O 0.5693 0.60818 0.82815 0.0
C2075 C 0.51309 0.62394 0.78062 0.0
O2076 O 0.53104 0.65159 0.83452 0.0
Co2077 Co 0.51678 0.67655 0.78556 0.0
O2078 O 0.49756 0.67238 0.81811 0.0
C2079 C 0.57427 0.67918 0.79223 0.0
C2080 C 0.57834 0.59833 0.80705 0.0
C2081 C 0.51121 0.6661 0.83732 0.0
O2082 O 0.57606 0.65794 0.80502 0.0
O2083 O 0.55354 0.68658 0.78112 0.0
O2084 O 0.51767 0.60752 0.79897 0.0
O2085 O 0.52891 0.64258 0.77939 0.0
Co2086 Co 0.39336 0.79855 0.05624 0.0
O2087 O 0.41612 0.81941 0.03562 0.0
O2088 O 0.41534 0.8193 0.07815 0.0
C2089 C 0.39957 0.76308 0.03062 0.0
O2090 O 0.37192 0.78104 0.08453 0.0
Co2091 Co 0.34696 0.76679 0.03556 0.0
O2092 O 0.35111 0.74757 0.06812 0.0
C2093 C 0.34435 0.82428 0.04221 0.0
C2094 C 0.42519 0.82833 0.05705 0.0
C2095 C 0.35741 0.76122 0.08733 0.0
O2096 O 0.36557 0.82606 0.05501 0.0
O2097 O 0.33695 0.80355 0.03109 0.0
O2098 O 0.41599 0.76767 0.04897 0.0
O2099 O 0.38093 0.77891 0.0294 0.0
Co2100 Co 0.22496 0.64336 0.30624 0.0
O2101 O 0.2041 0.66612 0.28562 0.0
O2102 O 0.20421 0.66534 0.32815 0.0
C2103 C 0.26043 0.64957 0.28063 0.0
O2104 O 0.24246 0.62192 0.33453 0.0
Co2105 Co 0.25672 0.59696 0.28556 0.0
O2106 O 0.27594 0.60111 0.31812 0.0
C2107 C 0.19923 0.59435 0.29221 0.0
C2108 C 0.19518 0.67519 0.30705 0.0
C2109 C 0.26229 0.60741 0.33733 0.0
O2110 O 0.19745 0.61558 0.30501 0.0
O2111 O 0.21997 0.58695 0.28109 0.0
O2112 O 0.25585 0.66599 0.29898 0.0
O2113 O 0.2446 0.63093 0.2794 0.0
Co2114 Co 0.38016 0.47496 0.55624 0.0
O2115 O 0.3574 0.4541 0.53562 0.0
O2116 O 0.35818 0.45421 0.57814 0.0
C2117 C 0.37394 0.51043 0.53061 0.0
O2118 O 0.40159 0.49247 0.58453 0.0
Co2119 Co 0.42655 0.50674 0.53557 0.0
O2120 O 0.42235 0.52597 0.56813 0.0
C2121 C 0.42919 0.44925 0.54225 0.0
C2122 C 0.34833 0.44518 0.55704 0.0
C2123 C 0.41608 0.51231 0.58733 0.0
O2124 O 0.40794 0.44745 0.55501 0.0
O2125 O 0.4366 0.46999 0.53115 0.0
O2126 O 0.35752 0.50584 0.54897 0.0
O2127 O 0.39259 0.4946 0.52939 0.0
Co2128 Co 0.96727 0.54856 0.14336 0.0
O2129 O 0.98789 0.56942 0.16611 0.0
O2130 O 0.94537 0.5693 0.16534 0.0
C2131 C 0.99289 0.51308 0.14958 0.0
O2132 O 0.93898 0.53104 0.12193 0.0
Co2133 Co 0.98795 0.51678 0.09697 0.0
O2134 O 0.95539 0.49756 0.10112 0.0
C2135 C 0.98128 0.57427 0.09434 0.0
C2136 C 0.96646 0.57834 0.17519 0.0
C2137 C 0.93618 0.51122 0.10742 0.0
O2138 O 0.96849 0.57606 0.11557 0.0
O2139 O 0.9924 0.55354 0.08694 0.0
O2140 O 0.97454 0.51767 0.166 0.0
O2141 O 0.99411 0.52891 0.13093 0.0
Co2142 Co 0.47496 0.21727 0.39336 0.0
O2143 O 0.4541 0.23789 0.41611 0.0
O2144 O 0.45421 0.19537 0.41533 0.0
C2145 C 0.51043 0.24289 0.39957 0.0
O2146 O 0.49247 0.18899 0.37192 0.0
Co2147 Co 0.50672 0.23796 0.34696 0.0
O2148 O 0.52594 0.20539 0.35111 0.0
C2149 C 0.44924 0.23131 0.34435 0.0
C2150 C 0.44518 0.21646 0.42519 0.0
C2151 C 0.51229 0.18618 0.35741 0.0
O2152 O 0.44745 0.2185 0.36557 0.0
O2153 O 0.46997 0.24243 0.33695 0.0
O2154 O 0.50585 0.22454 0.41599 0.0
O2155 O 0.4946 0.24412 0.38093 0.0
Co2156 Co 0.80624 0.72496 0.64336 0.0
O2157 O 0.78562 0.7041 0.66611 0.0
O2158 O 0.82815 0.70421 0.66533 0.0
C2159 C 0.78062 0.76043 0.64957 0.0
O2160 O 0.83453 0.74247 0.62192 0.0
Co2161 Co 0.78558 0.75674 0.59697 0.0
O2162 O 0.81813 0.77597 0.60115 0.0
C2163 C 0.79225 0.69925 0.59433 0.0
C2164 C 0.80705 0.69518 0.67518 0.0
C2165 C 0.83734 0.76231 0.60743 0.0
O2166 O 0.80502 0.69745 0.61557 0.0
O2167 O 0.78115 0.71999 0.58692 0.0
O2168 O 0.79897 0.75584 0.666 0.0
O2169 O 0.7794 0.74461 0.63093 0.0
Co2170 Co 0.29856 0.05624 0.89336 0.0
O2171 O 0.31942 0.03562 0.91611 0.0
O2172 O 0.3193 0.07815 0.91533 0.0
C2173 C 0.26309 0.03062 0.89957 0.0
O2174 O 0.28104 0.08453 0.87192 0.0
Co2175 Co 0.26678 0.03556 0.84696 0.0
O2176 O 0.24755 0.06811 0.85113 0.0
C2177 C 0.32427 0.04224 0.84433 0.0
C2178 C 0.32834 0.05705 0.92518 0.0
C2179 C 0.26121 0.08732 0.85742 0.0
O2180 O 0.32606 0.05502 0.86557 0.0
O2181 O 0.30353 0.03112 0.83693 0.0
O2182 O 0.26767 0.04897 0.91599 0.0
O2183 O 0.27891 0.02939 0.88093 0.0
Co2184 Co 0.96728 0.72496 0.13016 0.0
O2185 O 0.98789 0.7041 0.1074 0.0
O2186 O 0.94537 0.70421 0.10818 0.0
C2187 C 0.9929 0.76043 0.12394 0.0
O2188 O 0.93899 0.74247 0.1516 0.0
Co2189 Co 0.98796 0.75672 0.17655 0.0
O2190 O 0.9554 0.77595 0.17239 0.0
C2191 C 0.9813 0.69924 0.17917 0.0
C2192 C 0.96646 0.69518 0.09833 0.0
C2193 C 0.93619 0.7623 0.1661 0.0
O2194 O 0.96851 0.69745 0.15794 0.0
O2195 O 0.99242 0.71997 0.18657 0.0
O2196 O 0.97454 0.75584 0.10752 0.0
O2197 O 0.99412 0.7446 0.14258 0.0
Co2198 Co 0.29856 0.21727 0.38015 0.0
O2199 O 0.31942 0.23789 0.3574 0.0
O2200 O 0.3193 0.19537 0.35818 0.0
C2201 C 0.26309 0.24289 0.37394 0.0
O2202 O 0.28104 0.18899 0.40159 0.0
Co2203 Co 0.26678 0.23795 0.42655 0.0
O2204 O 0.24755 0.20539 0.42238 0.0
C2205 C 0.32427 0.23128 0.42918 0.0
C2206 C 0.32834 0.21646 0.34833 0.0
C2207 C 0.26121 0.18619 0.41609 0.0
O2208 O 0.32606 0.21849 0.40794 0.0
O2209 O 0.30353 0.24239 0.43658 0.0
O2210 O 0.26767 0.22454 0.35752 0.0
O2211 O 0.27891 0.24412 0.39258 0.0
Co2212 Co 0.80624 0.54856 0.63015 0.0
O2213 O 0.78562 0.56942 0.6074 0.0
O2214 O 0.82815 0.5693 0.60818 0.0
C2215 C 0.78062 0.51309 0.62394 0.0
O2216 O 0.83453 0.53105 0.65159 0.0
Co2217 Co 0.78558 0.51677 0.67655 0.0
O2218 O 0.81813 0.49755 0.67237 0.0
C2219 C 0.79225 0.57426 0.67918 0.0
C2220 C 0.80705 0.57834 0.59833 0.0
C2221 C 0.83734 0.51121 0.66609 0.0
O2222 O 0.80502 0.57606 0.65794 0.0
O2223 O 0.78115 0.55352 0.68659 0.0
O2224 O 0.79897 0.51767 0.60752 0.0
O2225 O 0.7794 0.52891 0.64259 0.0
Co2226 Co 0.47496 0.05624 0.88016 0.0
O2227 O 0.4541 0.03562 0.8574 0.0
O2228 O 0.45421 0.07815 0.85818 0.0
C2229 C 0.51043 0.03062 0.87394 0.0
O2230 O 0.49247 0.08453 0.90159 0.0
Co2231 Co 0.50674 0.03558 0.92655 0.0
O2232 O 0.52596 0.06814 0.92237 0.0
C2233 C 0.44925 0.04225 0.92919 0.0
C2234 C 0.44518 0.05705 0.84833 0.0
C2235 C 0.5123 0.08734 0.91609 0.0
O2236 O 0.44745 0.05501 0.90794 0.0
O2237 O 0.46999 0.03115 0.9366 0.0
O2238 O 0.50585 0.04897 0.85752 0.0
O2239 O 0.49461 0.0294 0.89259 0.0
Co2240 Co 0.64336 0.96727 0.04856 0.0
O2241 O 0.66611 0.98789 0.06942 0.0
O2242 O 0.66533 0.94537 0.0693 0.0
C2243 C 0.64957 0.9929 0.01309 0.0
O2244 O 0.62192 0.93898 0.03105 0.0
Co2245 Co 0.59697 0.98794 0.01677 0.0
O2246 O 0.60116 0.95538 0.99754 0.0
C2247 C 0.59433 0.98126 0.07426 0.0
C2248 C 0.67519 0.96646 0.07834 0.0
C2249 C 0.60743 0.93618 1.01121 0.0
O2250 O 0.61557 0.9685 0.07606 0.0
O2251 O 0.58691 0.99236 0.05352 0.0
O2252 O 0.66599 0.97454 0.01767 0.0
O2253 O 0.63093 0.99412 0.02891 0.0
Co2254 Co 0.14336 0.80624 0.22496 0.0
O2255 O 0.16611 0.78562 0.2041 0.0
O2256 O 0.16534 0.82815 0.20421 0.0
C2257 C 0.14957 0.78062 0.26043 0.0
O2258 O 0.12192 0.83453 0.24247 0.0
Co2259 Co 0.09696 0.78556 0.25673 0.0
O2260 O 0.10112 0.81812 0.27595 0.0
C2261 C 0.09434 0.79223 0.19924 0.0
C2262 C 0.17519 0.80705 0.19518 0.0
C2263 C 0.10741 0.83733 0.2623 0.0
O2264 O 0.11557 0.80502 0.19745 0.0
O2265 O 0.08694 0.78111 0.21997 0.0
O2266 O 0.16599 0.79897 0.25584 0.0
O2267 O 0.13093 0.7794 0.2446 0.0
Co2268 Co 0.21727 0.39336 0.47496 0.0
O2269 O 0.23789 0.41611 0.4541 0.0
O2270 O 0.19537 0.41533 0.45421 0.0
C2271 C 0.2429 0.39957 0.51042 0.0
O2272 O 0.18899 0.37192 0.49247 0.0
Co2273 Co 0.23794 0.34697 0.50674 0.0
O2274 O 0.20539 0.35116 0.52597 0.0
C2275 C 0.23126 0.34432 0.44925 0.0
C2276 C 0.21646 0.42518 0.44518 0.0
C2277 C 0.18618 0.35743 0.51231 0.0
O2278 O 0.2185 0.36557 0.44745 0.0
O2279 O 0.24236 0.33691 0.46999 0.0
O2280 O 0.22454 0.41599 0.50584 0.0
O2281 O 0.24412 0.38093 0.4946 0.0
Co2282 Co 0.63015 0.46727 0.72496 0.0
O2283 O 0.6074 0.48789 0.7041 0.0
O2284 O 0.60818 0.44537 0.70421 0.0
C2285 C 0.62394 0.49289 0.76043 0.0
O2286 O 0.65159 0.43899 0.74247 0.0
Co2287 Co 0.67655 0.48796 0.75672 0.0
O2288 O 0.6724 0.4554 0.77595 0.0
C2289 C 0.67916 0.4813 0.69924 0.0
C2290 C 0.59832 0.46646 0.69518 0.0
C2291 C 0.6661 0.43619 0.7623 0.0
O2292 O 0.65794 0.4685 0.69745 0.0
O2293 O 0.68656 0.49242 0.71997 0.0
O2294 O 0.60752 0.47454 0.75584 0.0
O2295 O 0.64258 0.49412 0.7446 0.0
Co2296 Co 0.05624 0.88016 0.47496 0.0
O2297 O 0.03562 0.8574 0.4541 0.0
O2298 O 0.07815 0.85818 0.45421 0.0
C2299 C 0.03062 0.87394 0.51043 0.0
O2300 O 0.08453 0.90159 0.49247 0.0
Co2301 Co 0.03556 0.92655 0.50673 0.0
O2302 O 0.06813 0.9224 0.52595 0.0
C2303 C 0.04223 0.92918 0.44924 0.0
C2304 C 0.05705 0.84833 0.44518 0.0
C2305 C 0.08733 0.9161 0.5123 0.0
O2306 O 0.05502 0.90794 0.44745 0.0
O2307 O 0.03111 0.93658 0.46998 0.0
O2308 O 0.04898 0.85752 0.50584 0.0
O2309 O 0.0294 0.89258 0.4946 0.0
Co2310 Co 0.63015 0.30624 0.04856 0.0
O2311 O 0.6074 0.28562 0.06941 0.0
O2312 O 0.60818 0.32815 0.0693 0.0
C2313 C 0.62394 0.28062 0.01308 0.0
O2314 O 0.65159 0.33453 0.03105 0.0
Co2315 Co 0.67655 0.28556 0.01679 0.0
O2316 O 0.6724 0.31812 0.99757 0.0
C2317 C 0.67916 0.29221 0.07428 0.0
C2318 C 0.59832 0.30705 0.07833 0.0
C2319 C 0.6661 0.33733 1.01122 0.0
O2320 O 0.65794 0.30501 0.07607 0.0
O2321 O 0.68656 0.28109 0.05355 0.0
O2322 O 0.60752 0.29898 0.01767 0.0
O2323 O 0.64258 0.2794 0.02891 0.0
Co2324 Co 0.21727 0.38016 0.29856 0.0
O2325 O 0.23789 0.3574 0.31942 0.0
O2326 O 0.19537 0.35818 0.3193 0.0
C2327 C 0.2429 0.37394 0.26309 0.0
O2328 O 0.18899 0.40159 0.28105 0.0
Co2329 Co 0.23794 0.42655 0.26677 0.0
O2330 O 0.20539 0.42235 0.24754 0.0
C2331 C 0.23126 0.42919 0.32426 0.0
C2332 C 0.21646 0.34833 0.32834 0.0
C2333 C 0.18618 0.41608 0.26121 0.0
O2334 O 0.2185 0.40794 0.32607 0.0
O2335 O 0.24236 0.4366 0.30352 0.0
O2336 O 0.22454 0.35752 0.26767 0.0
O2337 O 0.24412 0.39259 0.27891 0.0
Co2338 Co 0.55624 0.89336 0.79856 0.0
O2339 O 0.53562 0.91612 0.81941 0.0
O2340 O 0.57815 0.91534 0.8193 0.0
C2341 C 0.53062 0.89957 0.76308 0.0
O2342 O 0.58453 0.87192 0.78105 0.0
Co2343 Co 0.53556 0.84696 0.7668 0.0
O2344 O 0.56812 0.85111 0.74757 0.0
C2345 C 0.54221 0.84435 0.82428 0.0
C2346 C 0.55705 0.92519 0.82833 0.0
C2347 C 0.58733 0.85741 0.76122 0.0
O2348 O 0.55501 0.86558 0.82607 0.0
O2349 O 0.53109 0.83695 0.80355 0.0
O2350 O 0.54898 0.91599 0.76767 0.0
O2351 O 0.5294 0.88093 0.77891 0.0
Co2352 Co 0.47496 0.38016 0.55624 0.0
O2353 O 0.4541 0.3574 0.53562 0.0
O2354 O 0.45421 0.35818 0.57815 0.0
C2355 C 0.51043 0.37394 0.53062 0.0
O2356 O 0.49247 0.40159 0.58453 0.0
Co2357 Co 0.50673 0.42655 0.53556 0.0
O2358 O 0.52596 0.42238 0.56812 0.0
C2359 C 0.44925 0.42918 0.54224 0.0
C2360 C 0.44518 0.34833 0.55705 0.0
C2361 C 0.5123 0.4161 0.58733 0.0
O2362 O 0.44745 0.40794 0.55502 0.0
O2363 O 0.46998 0.43658 0.53112 0.0
O2364 O 0.50584 0.35752 0.54898 0.0
O2365 O 0.4946 0.39258 0.5294 0.0
Co2366 Co 0.64336 0.22496 0.30624 0.0
O2367 O 0.66612 0.2041 0.28562 0.0
O2368 O 0.66534 0.20421 0.32815 0.0
C2369 C 0.64957 0.26043 0.28063 0.0
O2370 O 0.62192 0.24247 0.33453 0.0
Co2371 Co 0.59696 0.25672 0.28556 0.0
O2372 O 0.60111 0.27594 0.31813 0.0
C2373 C 0.59435 0.19924 0.29221 0.0
C2374 C 0.67519 0.19518 0.30705 0.0
C2375 C 0.60741 0.26229 0.33733 0.0
O2376 O 0.61558 0.19745 0.30501 0.0
O2377 O 0.58695 0.21997 0.28109 0.0
O2378 O 0.66599 0.25585 0.29898 0.0
O2379 O 0.63093 0.2446 0.2794 0.0
Co2380 Co 0.79855 0.39336 0.05624 0.0
O2381 O 0.81941 0.41612 0.03562 0.0
O2382 O 0.8193 0.41534 0.07815 0.0
C2383 C 0.76308 0.39957 0.03063 0.0
O2384 O 0.78105 0.37192 0.08453 0.0
Co2385 Co 0.76679 0.34696 0.03556 0.0
O2386 O 0.74757 0.3511 0.06812 0.0
C2387 C 0.82428 0.34435 0.04221 0.0
C2388 C 0.82833 0.42519 0.05705 0.0
C2389 C 0.76122 0.3574 0.08733 0.0
O2390 O 0.82607 0.36558 0.05501 0.0
O2391 O 0.80355 0.33695 0.03109 0.0
O2392 O 0.76767 0.41599 0.04898 0.0
O2393 O 0.77891 0.38093 0.0294 0.0
Co2394 Co 0.63016 0.54855 0.80624 0.0
O2395 O 0.6074 0.56942 0.78562 0.0
O2396 O 0.60818 0.5693 0.82815 0.0
C2397 C 0.62394 0.51309 0.78062 0.0
O2398 O 0.65159 0.53104 0.83453 0.0
Co2399 Co 0.67655 0.51678 0.78556 0.0
O2400 O 0.67238 0.49755 0.81812 0.0
C2401 C 0.67918 0.57426 0.79224 0.0
C2402 C 0.59833 0.57834 0.80705 0.0
C2403 C 0.6661 0.51121 0.83733 0.0
O2404 O 0.65795 0.57606 0.80502 0.0
O2405 O 0.68658 0.55353 0.78112 0.0
O2406 O 0.60752 0.51767 0.79897 0.0
O2407 O 0.64258 0.52891 0.7794 0.0
Co2408 Co 0.47496 0.39336 0.21727 0.0
O2409 O 0.45409 0.41611 0.23789 0.0
O2410 O 0.45421 0.41533 0.19537 0.0
C2411 C 0.51042 0.39958 0.2429 0.0
O2412 O 0.49247 0.37192 0.18899 0.0
Co2413 Co 0.50673 0.34697 0.23796 0.0
O2414 O 0.52596 0.35113 0.2054 0.0
C2415 C 0.44925 0.34433 0.23128 0.0
C2416 C 0.44518 0.42518 0.21646 0.0
C2417 C 0.5123 0.35741 0.18619 0.0
O2418 O 0.44745 0.36557 0.2185 0.0
O2419 O 0.46998 0.33693 0.2424 0.0
O2420 O 0.50584 0.41599 0.22454 0.0
O2421 O 0.4946 0.38093 0.24412 0.0
Co2422 Co 0.63015 0.22496 0.96728 0.0
O2423 O 0.6074 0.2041 0.98789 0.0
O2424 O 0.60818 0.20421 0.94537 0.0
C2425 C 0.62394 0.26043 0.9929 0.0
O2426 O 0.6516 0.24247 0.93899 0.0
Co2427 Co 0.67655 0.25673 0.98796 0.0
O2428 O 0.67239 0.27595 0.9554 0.0
C2429 C 0.67916 0.19924 0.9813 0.0
C2430 C 0.59832 0.19518 0.96646 0.0
C2431 C 0.6661 0.2623 0.93619 0.0
O2432 O 0.65794 0.19745 0.96851 0.0
O2433 O 0.68657 0.21997 0.99242 0.0
O2434 O 0.60752 0.25585 0.97454 0.0
O2435 O 0.64258 0.2446 0.99412 0.0
Co2436 Co 0.79856 0.38015 0.71727 0.0
O2437 O 0.81941 0.3574 0.73789 0.0
O2438 O 0.8193 0.35818 0.69537 0.0
C2439 C 0.76308 0.37394 0.74289 0.0
O2440 O 0.78105 0.40159 0.68899 0.0
Co2441 Co 0.76679 0.42655 0.73795 0.0
O2442 O 0.74757 0.42241 0.70539 0.0
C2443 C 0.82428 0.42916 0.73131 0.0
C2444 C 0.82833 0.34832 0.71646 0.0
C2445 C 0.76122 0.41611 0.68618 0.0
O2446 O 0.82607 0.40794 0.7185 0.0
O2447 O 0.80355 0.43656 0.74243 0.0
O2448 O 0.76767 0.35752 0.72454 0.0
O2449 O 0.77891 0.39258 0.74411 0.0
Co2450 Co 0.64336 0.54855 0.46728 0.0
O2451 O 0.66611 0.56942 0.4879 0.0
O2452 O 0.66533 0.5693 0.44537 0.0
C2453 C 0.64957 0.51309 0.4929 0.0
O2454 O 0.62192 0.53104 0.43899 0.0
Co2455 Co 0.59696 0.51678 0.48796 0.0
O2456 O 0.60113 0.49755 0.4554 0.0
C2457 C 0.59433 0.57427 0.48128 0.0
C2458 C 0.67518 0.57834 0.46647 0.0
C2459 C 0.60742 0.51121 0.43619 0.0
O2460 O 0.61557 0.57606 0.4685 0.0
O2461 O 0.58693 0.55353 0.4924 0.0
O2462 O 0.66599 0.51767 0.47455 0.0
O2463 O 0.63093 0.52891 0.49412 0.0
Co2464 Co 0.05624 0.47496 0.88015 0.0
O2465 O 0.03562 0.4541 0.8574 0.0
O2466 O 0.07815 0.45421 0.85818 0.0
C2467 C 0.03062 0.51043 0.87394 0.0
O2468 O 0.08453 0.49247 0.90159 0.0
Co2469 Co 0.03556 0.50673 0.92655 0.0
O2470 O 0.06812 0.52596 0.92238 0.0
C2471 C 0.04223 0.44924 0.92918 0.0
C2472 C 0.05705 0.44518 0.84833 0.0
C2473 C 0.08733 0.5123 0.91609 0.0
O2474 O 0.05502 0.44745 0.90794 0.0
O2475 O 0.03112 0.46998 0.93658 0.0
O2476 O 0.04897 0.50584 0.85752 0.0
O2477 O 0.0294 0.4946 0.89258 0.0
Co2478 Co 0.54855 0.80624 0.63016 0.0
O2479 O 0.56941 0.78562 0.6074 0.0
O2480 O 0.5693 0.82815 0.60818 0.0
C2481 C 0.51308 0.78062 0.62394 0.0
O2482 O 0.53105 0.83453 0.65159 0.0
Co2483 Co 0.51679 0.78556 0.67655 0.0
O2484 O 0.49757 0.81812 0.67241 0.0
C2485 C 0.57428 0.79221 0.67916 0.0
C2486 C 0.57833 0.80705 0.59833 0.0
C2487 C 0.51122 0.83733 0.66611 0.0
O2488 O 0.57606 0.80501 0.65794 0.0
O2489 O 0.55355 0.78109 0.68657 0.0
O2490 O 0.51767 0.79897 0.60752 0.0
O2491 O 0.52891 0.7794 0.64258 0.0
Co2492 Co 0.21727 0.29855 0.38016 0.0
O2493 O 0.23789 0.31942 0.35741 0.0
O2494 O 0.19537 0.3193 0.35818 0.0
C2495 C 0.2429 0.26309 0.37394 0.0
O2496 O 0.18899 0.28104 0.40159 0.0
Co2497 Co 0.23795 0.26678 0.42655 0.0
O2498 O 0.20539 0.24756 0.42239 0.0
C2499 C 0.23128 0.32426 0.42918 0.0
C2500 C 0.21646 0.32833 0.34833 0.0
C2501 C 0.18618 0.26121 0.4161 0.0
O2502 O 0.21849 0.32606 0.40794 0.0
O2503 O 0.2424 0.30353 0.43658 0.0
O2504 O 0.22454 0.26767 0.35752 0.0
O2505 O 0.24412 0.27891 0.39258 0.0
Co2506 Co 0.72496 0.96728 0.13016 0.0
O2507 O 0.7041 0.98789 0.10741 0.0
O2508 O 0.70421 0.94537 0.10818 0.0
C2509 C 0.76042 0.9929 0.12394 0.0
O2510 O 0.74247 0.93899 0.15159 0.0
Co2511 Co 0.75673 0.98796 0.17655 0.0
O2512 O 0.77596 0.9554 0.17238 0.0
C2513 C 0.69925 0.98128 0.17918 0.0
C2514 C 0.69518 0.96646 0.09833 0.0
C2515 C 0.76231 0.93619 0.1661 0.0
O2516 O 0.69745 0.9685 0.15795 0.0
O2517 O 0.71998 0.9924 0.18658 0.0
O2518 O 0.75584 0.97454 0.10752 0.0
O2519 O 0.7446 0.99412 0.14258 0.0
Co2520 Co 0.05624 0.29856 0.89336 0.0
O2521 O 0.03562 0.31941 0.91611 0.0
O2522 O 0.07815 0.3193 0.91533 0.0
C2523 C 0.03061 0.26309 0.89958 0.0
O2524 O 0.08452 0.28104 0.87192 0.0
Co2525 Co 0.03555 0.26679 0.84696 0.0
O2526 O 0.06811 0.24756 0.85112 0.0
C2527 C 0.04221 0.32428 0.84435 0.0
C2528 C 0.05705 0.32833 0.92519 0.0
C2529 C 0.08732 0.26121 0.85741 0.0
O2530 O 0.05501 0.32606 0.86557 0.0
O2531 O 0.03109 0.30354 0.83694 0.0
O2532 O 0.04897 0.26767 0.91599 0.0
O2533 O 0.02939 0.27891 0.88093 0.0
Co2534 Co 0.72496 0.80624 0.64336 0.0
O2535 O 0.70409 0.78562 0.66611 0.0
O2536 O 0.70421 0.82815 0.66534 0.0
C2537 C 0.76042 0.78061 0.64958 0.0
O2538 O 0.74247 0.83453 0.62192 0.0
Co2539 Co 0.75673 0.78556 0.59697 0.0
O2540 O 0.77596 0.81812 0.60114 0.0
C2541 C 0.69925 0.79224 0.59434 0.0
C2542 C 0.69518 0.80705 0.67519 0.0
C2543 C 0.7623 0.83732 0.60742 0.0
O2544 O 0.69745 0.80502 0.61557 0.0
O2545 O 0.71998 0.78112 0.58693 0.0
O2546 O 0.75584 0.79897 0.666 0.0
O2547 O 0.7446 0.77939 0.63093 0.0
Co2548 Co 0.21727 0.47496 0.39336 0.0
O2549 O 0.23789 0.4541 0.41611 0.0
O2550 O 0.19537 0.45421 0.41533 0.0
C2551 C 0.24289 0.51043 0.39957 0.0
O2552 O 0.18898 0.49247 0.37192 0.0
Co2553 Co 0.23795 0.50673 0.34696 0.0
O2554 O 0.20539 0.52595 0.35112 0.0
C2555 C 0.23128 0.44925 0.34434 0.0
C2556 C 0.21646 0.44518 0.42518 0.0
C2557 C 0.18618 0.5123 0.35741 0.0
O2558 O 0.21849 0.44745 0.36557 0.0
O2559 O 0.2424 0.46998 0.33694 0.0
O2560 O 0.22454 0.50584 0.41599 0.0
O2561 O 0.24412 0.4946 0.38093 0.0
Co2562 Co 0.54855 0.96727 0.14336 0.0
O2563 O 0.56941 0.98789 0.16611 0.0
O2564 O 0.5693 0.94537 0.16533 0.0
C2565 C 0.51308 0.99289 0.14957 0.0
O2566 O 0.53104 0.93898 0.12192 0.0
Co2567 Co 0.51678 0.98795 0.09696 0.0
O2568 O 0.49756 0.95539 0.10113 0.0
C2569 C 0.57427 0.98128 0.09433 0.0
C2570 C 0.57833 0.96646 0.17518 0.0
C2571 C 0.51121 0.93618 0.10742 0.0
O2572 O 0.57606 0.96849 0.11557 0.0
O2573 O 0.55353 0.99239 0.08693 0.0
O2574 O 0.51767 0.97454 0.16599 0.0
O2575 O 0.52891 0.99411 0.13093 0.0
Co2576 Co 0.38016 0.05624 0.97496 0.0
O2577 O 0.3574 0.03562 0.9541 0.0
O2578 O 0.35818 0.07815 0.95421 0.0
C2579 C 0.37394 0.03062 1.01042 0.0
O2580 O 0.40159 0.08453 0.99247 0.0
Co2581 Co 0.42655 0.03556 1.00673 0.0
O2582 O 0.42238 0.06812 0.02596 0.0
C2583 C 0.42918 0.04224 0.94925 0.0
C2584 C 0.34833 0.05705 0.94518 0.0
C2585 C 0.4161 0.08733 0.0123 0.0
O2586 O 0.40794 0.05502 0.94745 0.0
O2587 O 0.43658 0.03112 0.96998 0.0
O2588 O 0.35752 0.04897 1.00584 0.0
O2589 O 0.39258 0.0294 0.9946 0.0
Co2590 Co 0.88016 0.21727 0.79856 0.0
O2591 O 0.8574 0.23789 0.81942 0.0
O2592 O 0.85818 0.19536 0.8193 0.0
C2593 C 0.87394 0.24289 0.76309 0.0
O2594 O 0.90159 0.18898 0.78104 0.0
Co2595 Co 0.92655 0.23795 0.76679 0.0
O2596 O 0.9224 0.20539 0.74756 0.0
C2597 C 0.92918 0.23128 0.82427 0.0
C2598 C 0.84833 0.21646 0.82834 0.0
C2599 C 0.9161 0.18618 0.76122 0.0
O2600 O 0.90794 0.21849 0.82606 0.0
O2601 O 0.93658 0.2424 0.80354 0.0
O2602 O 0.85752 0.22454 0.76767 0.0
O2603 O 0.89258 0.24412 0.77891 0.0
Co2604 Co 0.80624 0.63016 0.54855 0.0
O2605 O 0.78562 0.60741 0.56942 0.0
O2606 O 0.82815 0.60818 0.5693 0.0
C2607 C 0.78061 0.62394 0.51309 0.0
O2608 O 0.83452 0.65159 0.53104 0.0
Co2609 Co 0.78556 0.67655 0.51678 0.0
O2610 O 0.81812 0.67238 0.49755 0.0
C2611 C 0.79224 0.67918 0.57427 0.0
C2612 C 0.80705 0.59833 0.57833 0.0
C2613 C 0.83732 0.6661 0.51121 0.0
O2614 O 0.80502 0.65795 0.57606 0.0
O2615 O 0.78112 0.68659 0.55353 0.0
O2616 O 0.79897 0.60752 0.51767 0.0
O2617 O 0.77939 0.64258 0.52891 0.0
Co2618 Co 0.39336 0.55624 0.29856 0.0
O2619 O 0.41612 0.53562 0.31941 0.0
O2620 O 0.41534 0.57815 0.3193 0.0
C2621 C 0.39958 0.53062 0.26309 0.0
O2622 O 0.37192 0.58452 0.28104 0.0
Co2623 Co 0.34697 0.53556 0.26679 0.0
O2624 O 0.35113 0.56811 0.24756 0.0
C2625 C 0.34435 0.54221 0.32428 0.0
C2626 C 0.42519 0.55705 0.32833 0.0
C2627 C 0.35741 0.58732 0.26121 0.0
O2628 O 0.36558 0.55501 0.32607 0.0
O2629 O 0.33694 0.5311 0.30354 0.0
O2630 O 0.41599 0.54897 0.26767 0.0
O2631 O 0.38093 0.52939 0.27891 0.0
Co2632 Co 0.96727 0.14336 0.54856 0.0
O2633 O 0.98789 0.16611 0.56941 0.0
O2634 O 0.94536 0.16533 0.5693 0.0
C2635 C 0.99289 0.14957 0.51308 0.0
O2636 O 0.93898 0.12192 0.53104 0.0
Co2637 Co 0.98795 0.09696 0.51678 0.0
O2638 O 0.95539 0.10113 0.49756 0.0
C2639 C 0.98128 0.09434 0.57427 0.0
C2640 C 0.96646 0.17519 0.57833 0.0
C2641 C 0.93618 0.10741 0.51121 0.0
O2642 O 0.96849 0.11557 0.57606 0.0
O2643 O 0.9924 0.08693 0.55354 0.0
O2644 O 0.97454 0.16599 0.51767 0.0
O2645 O 0.99411 0.13093 0.52891 0.0
Co2646 Co 0.39336 0.71727 0.97496 0.0
O2647 O 0.41612 0.73789 0.9541 0.0
O2648 O 0.41534 0.69536 0.95421 0.0
C2649 C 0.39958 0.74289 1.01043 0.0
O2650 O 0.37192 0.68899 0.99247 0.0
Co2651 Co 0.34697 0.73796 1.00672 0.0
O2652 O 0.35113 0.7054 0.02595 0.0
C2653 C 0.34435 0.7313 0.94923 0.0
C2654 C 0.42519 0.71646 0.94518 0.0
C2655 C 0.35741 0.68619 0.0123 0.0
O2656 O 0.36558 0.7185 0.94745 0.0
O2657 O 0.33695 0.74242 0.96997 0.0
O2658 O 0.41599 0.72454 1.00585 0.0
O2659 O 0.38094 0.74412 0.9946 0.0
Co2660 Co 0.80624 0.64336 0.72496 0.0
O2661 O 0.78562 0.66611 0.7041 0.0
O2662 O 0.82815 0.66533 0.70421 0.0
C2663 C 0.78061 0.64957 0.76042 0.0
O2664 O 0.83452 0.62192 0.74247 0.0
Co2665 Co 0.78556 0.59696 0.75673 0.0
O2666 O 0.81811 0.60113 0.77596 0.0
C2667 C 0.79223 0.59433 0.69924 0.0
C2668 C 0.80705 0.67518 0.69518 0.0
C2669 C 0.83732 0.60742 0.7623 0.0
O2670 O 0.80502 0.61557 0.69745 0.0
O2671 O 0.78112 0.58693 0.71998 0.0
O2672 O 0.79897 0.66599 0.75584 0.0
O2673 O 0.77939 0.63093 0.7446 0.0
Co2674 Co 0.46727 0.13015 0.22496 0.0
O2675 O 0.48789 0.1074 0.2041 0.0
O2676 O 0.44537 0.10818 0.20421 0.0
C2677 C 0.49289 0.12394 0.26043 0.0
O2678 O 0.43899 0.15159 0.24246 0.0
Co2679 Co 0.48796 0.17655 0.25672 0.0
O2680 O 0.45539 0.17241 0.27594 0.0
C2681 C 0.48131 0.17916 0.19923 0.0
C2682 C 0.46646 0.09832 0.19518 0.0
C2683 C 0.43618 0.16611 0.26229 0.0
O2684 O 0.4685 0.15794 0.19744 0.0
O2685 O 0.49243 0.18656 0.21996 0.0
O2686 O 0.47454 0.10752 0.25585 0.0
O2687 O 0.49412 0.14258 0.2446 0.0
loop_
_geom_bond_atom_site_label_1
_geom_bond_atom_site_label_2
_geom_bond_distance
_geom_bond_site_symmetry_2
_ccdc_geom_bond_type
Co0 O1 2.216 . S
Co0 O2 2.091 . S
Co0 O4 2.004 . S
Co0 O10 2.021 . S
Co0 O12 2.137 . S
Co0 O13 2.244 . S
O1 Co0 2.216 . S
O1 C8 1.247 . S
O2 Co0 2.091 . S
O2 C8 1.261 . S
C3 O12 1.247 . S
C3 O13 1.272 . S
O4 Co0 2.004 . S
O4 C9 1.259 . S
Co5 O6 2.061 . S
Co5 O11 2.052 . S
Co5 O13 2.135 . S
O6 Co5 2.061 . S
O6 C9 1.235 . S
C7 O10 1.238 . S
C7 O11 1.241 . S
C8 O1 1.247 . S
C8 O2 1.261 . S
C9 O4 1.259 . S
C9 O6 1.235 . S
O10 Co0 2.021 . S
O10 C7 1.238 . S
O11 Co5 2.052 . S
O11 C7 1.241 . S
O12 Co0 2.137 . S
O12 C3 1.247 . S
O13 Co0 2.244 . S
O13 C3 1.272 . S
O13 Co5 2.135 . S
Co14 O15 2.216 . S
Co14 O16 2.091 . S
Co14 O18 2.004 . S
Co14 O24 2.021 . S
Co14 O26 2.137 . S
Co14 O27 2.244 . S
O15 Co14 2.216 . S
O15 C22 1.247 . S
O16 Co14 2.091 . S
O16 C22 1.261 . S
C17 O26 1.247 . S
C17 O27 1.272 . S
O18 Co14 2.004 . S
O18 C23 1.259 . S
Co19 O20 2.061 . S
Co19 O25 2.052 . S
Co19 O27 2.135 . S
O20 Co19 2.061 . S
O20 C23 1.235 . S
C21 O24 1.238 . S
C21 O25 1.241 . S
C22 O15 1.247 . S
C22 O16 1.261 . S
C23 O18 1.259 . S
C23 O20 1.235 . S
O24 Co14 2.021 . S
O24 C21 1.238 . S
O25 Co19 2.052 . S
O25 C21 1.241 . S
O26 Co14 2.137 . S
O26 C17 1.247 . S
O27 Co14 2.244 . S
O27 C17 1.272 . S
O27 Co19 2.135 . S
Co28 O29 2.216 . S
Co28 O30 2.091 . S
Co28 O32 2.004 . S
Co28 O38 2.021 . S
Co28 O40 2.137 . S
Co28 O41 2.244 . S
O29 Co28 2.216 . S
O29 C36 1.247 . S
O30 Co28 2.091 . S
O30 C36 1.261 . S
C31 O40 1.247 . S
C31 O41 1.272 . S
O32 Co28 2.004 . S
O32 C37 1.259 . S
Co33 O34 2.061 . S
Co33 O39 2.052 . S
Co33 O41 2.135 . S
O34 Co33 2.061 . S
O34 C37 1.235 . S
C35 O38 1.238 . S
C35 O39 1.241 . S
C36 O29 1.247 . S
C36 O30 1.261 . S
C37 O32 1.259 . S
C37 O34 1.235 . S
O38 Co28 2.021 . S
O38 C35 1.238 . S
O39 Co33 2.052 . S
O39 C35 1.241 . S
O40 Co28 2.137 . S
O40 C31 1.247 . S
O41 Co28 2.244 . S
O41 C31 1.272 . S
O41 Co33 2.135 . S
Co42 O43 2.216 . S
Co42 O44 2.091 . S
Co42 O46 2.004 . S
Co42 O52 2.021 . S
Co42 O54 2.137 . S
Co42 O55 2.244 . S
O43 Co42 2.216 . S
O43 C50 1.247 . S
O44 Co42 2.091 . S
O44 C50 1.261 . S
C45 O54 1.247 . S
C45 O55 1.272 . S
O46 Co42 2.004 . S
O46 C51 1.259 . S
Co47 O48 2.061 . S
Co47 O53 2.052 . S
Co47 O55 2.135 . S
O48 Co47 2.061 . S
O48 C51 1.235 . S
C49 O52 1.238 . S
C49 O53 1.241 . S
C50 O43 1.247 . S
C50 O44 1.261 . S
C51 O46 1.259 . S
C51 O48 1.235 . S
O52 Co42 2.021 . S
O52 C49 1.238 . S
O53 Co47 2.052 . S
O53 C49 1.241 . S
O54 Co42 2.137 . S
O54 C45 1.247 . S
O55 Co42 2.244 . S
O55 C45 1.272 . S
O55 Co47 2.135 . S
Co56 O57 2.216 . S
Co56 O58 2.091 . S
Co56 O60 2.004 . S
Co56 O66 2.021 . S
Co56 O68 2.137 . S
Co56 O69 2.244 . S
O57 Co56 2.216 . S
O57 C64 1.247 . S
O58 Co56 2.091 . S
O58 C64 1.261 . S
C59 O68 1.247 . S
C59 O69 1.272 . S
O60 Co56 2.004 . S
O60 C65 1.259 . S
Co61 O62 2.061 . S
Co61 O67 2.052 . S
Co61 O69 2.135 . S
O62 Co61 2.061 . S
O62 C65 1.235 . S
C63 O66 1.238 . S
C63 O67 1.241 . S
C64 O57 1.247 . S
C64 O58 1.261 . S
C65 O60 1.259 . S
C65 O62 1.235 . S
O66 Co56 2.021 . S
O66 C63 1.238 . S
O67 Co61 2.052 . S
O67 C63 1.241 . S
O68 Co56 2.137 . S
O68 C59 1.247 . S
O69 Co56 2.244 . S
O69 C59 1.272 . S
O69 Co61 2.135 . S
Co70 O71 2.216 . S
Co70 O72 2.091 . S
Co70 O74 2.004 . S
Co70 O80 2.021 . S
Co70 O82 2.137 . S
Co70 O83 2.244 . S
O71 Co70 2.216 . S
O71 C78 1.247 . S
O72 Co70 2.091 . S
O72 C78 1.261 . S
C73 O82 1.247 . S
C73 O83 1.272 . S
O74 Co70 2.004 . S
O74 C79 1.259 . S
Co75 O76 2.061 . S
Co75 O81 2.052 . S
Co75 O83 2.135 . S
O76 Co75 2.061 . S
O76 C79 1.235 . S
C77 O80 1.238 . S
C77 O81 1.241 . S
C78 O71 1.247 . S
C78 O72 1.261 . S
C79 O74 1.259 . S
C79 O76 1.235 . S
O80 Co70 2.021 . S
O80 C77 1.238 . S
O81 Co75 2.052 . S
O81 C77 1.241 . S
O82 Co70 2.137 . S
O82 C73 1.247 . S
O83 Co70 2.244 . S
O83 C73 1.272 . S
O83 Co75 2.135 . S
Co84 O85 2.216 . S
Co84 O86 2.091 . S
Co84 O88 2.004 . S
Co84 O94 2.021 . S
Co84 O96 2.137 . S
Co84 O97 2.244 . S
O85 Co84 2.216 . S
O85 C92 1.247 . S
O86 Co84 2.091 . S
O86 C92 1.261 . S
C87 O96 1.247 . S
C87 O97 1.272 . S
O88 Co84 2.004 . S
O88 C93 1.259 . S
Co89 O90 2.061 . S
Co89 O95 2.052 . S
Co89 O97 2.135 . S
O90 Co89 2.061 . S
O90 C93 1.235 . S
C91 O94 1.238 . S
C91 O95 1.241 . S
C92 O85 1.247 . S
C92 O86 1.261 . S
C93 O88 1.259 . S
C93 O90 1.235 . S
O94 Co84 2.021 . S
O94 C91 1.238 . S
O95 Co89 2.052 . S
O95 C91 1.241 . S
O96 Co84 2.137 . S
O96 C87 1.247 . S
O97 Co84 2.244 . S
O97 C87 1.272 . S
O97 Co89 2.135 . S
Co98 O99 2.216 . S
Co98 O100 2.091 . S
Co98 O102 2.004 . S
Co98 O108 2.021 . S
Co98 O110 2.137 . S
Co98 O111 2.244 . S
O99 Co98 2.216 . S
O99 C106 1.247 . S
O100 Co98 2.091 . S
O100 C106 1.261 . S
C101 O110 1.247 . S
C101 O111 1.272 . S
O102 Co98 2.004 . S
O102 C107 1.259 . S
Co103 O104 2.061 . S
Co103 O109 2.052 . S
Co103 O111 2.135 . S
O104 Co103 2.061 . S
O104 C107 1.235 . S
C105 O108 1.238 . S
C105 O109 1.241 . S
C106 O99 1.247 . S
C106 O100 1.261 . S
C107 O102 1.259 . S
C107 O104 1.235 . S
O108 Co98 2.021 . S
O108 C105 1.238 . S
O109 Co103 2.052 . S
O109 C105 1.241 . S
O110 Co98 2.137 . S
O110 C101 1.247 . S
O111 Co98 2.244 . S
O111 C101 1.272 . S
O111 Co103 2.135 . S
Co112 O113 2.216 . S
Co112 O114 2.091 . S
Co112 O116 2.004 . S
Co112 O122 2.021 . S
Co112 O124 2.137 . S
Co112 O125 2.244 . S
O113 Co112 2.216 . S
O113 C120 1.247 . S
O114 Co112 2.091 . S
O114 C120 1.261 . S
C115 O124 1.247 . S
C115 O125 1.272 . S
O116 Co112 2.004 . S
O116 C121 1.259 . S
Co117 O118 2.061 . S
Co117 O123 2.052 . S
Co117 O125 2.135 . S
O118 Co117 2.061 . S
O118 C121 1.235 . S
C119 O122 1.238 . S
C119 O123 1.241 . S
C120 O113 1.247 . S
C120 O114 1.261 . S
C121 O116 1.259 . S
C121 O118 1.235 . S
O122 Co112 2.021 . S
O122 C119 1.238 . S
O123 Co117 2.052 . S
O123 C119 1.241 . S
O124 Co112 2.137 . S
O124 C115 1.247 . S
O125 Co112 2.244 . S
O125 C115 1.272 . S
O125 Co117 2.135 . S
Co126 O127 2.216 . S
Co126 O128 2.091 . S
Co126 O130 2.004 . S
Co126 O136 2.021 . S
Co126 O138 2.137 . S
Co126 O139 2.244 . S
O127 Co126 2.216 . S
O127 C134 1.247 . S
O128 Co126 2.091 . S
O128 C134 1.261 . S
C129 O138 1.247 . S
C129 O139 1.272 . S
O130 Co126 2.004 . S
O130 C135 1.259 . S
Co131 O132 2.061 . S
Co131 O137 2.052 . S
Co131 O139 2.135 . S
O132 Co131 2.061 . S
O132 C135 1.235 . S
C133 O136 1.238 . S
C133 O137 1.241 . S
C134 O127 1.247 . S
C134 O128 1.261 . S
C135 O130 1.259 . S
C135 O132 1.235 . S
O136 Co126 2.021 . S
O136 C133 1.238 . S
O137 Co131 2.052 . S
O137 C133 1.241 . S
O138 Co126 2.137 . S
O138 C129 1.247 . S
O139 Co126 2.244 . S
O139 C129 1.272 . S
O139 Co131 2.135 . S
Co140 O141 2.216 . S
Co140 O142 2.091 . S
Co140 O144 2.004 . S
Co140 O150 2.021 . S
Co140 O152 2.137 . S
Co140 O153 2.244 . S
O141 Co140 2.216 . S
O141 C148 1.247 . S
O142 Co140 2.091 . S
O142 C148 1.261 . S
C143 O152 1.247 . S
C143 O153 1.272 . S
O144 Co140 2.004 . S
O144 C149 1.259 . S
Co145 O146 2.061 . S
Co145 O151 2.052 . S
Co145 O153 2.135 . S
O146 Co145 2.061 . S
O146 C149 1.235 . S
C147 O150 1.238 . S
C147 O151 1.241 . S
C148 O141 1.247 . S
C148 O142 1.261 . S
C149 O144 1.259 . S
C149 O146 1.235 . S
O150 Co140 2.021 . S
O150 C147 1.238 . S
O151 Co145 2.052 . S
O151 C147 1.241 . S
O152 Co140 2.137 . S
O152 C143 1.247 . S
O153 Co140 2.244 . S
O153 C143 1.272 . S
O153 Co145 2.135 . S
Co154 O155 2.216 . S
Co154 O156 2.091 . S
Co154 O158 2.004 . S
Co154 O164 2.021 . S
Co154 O166 2.137 . S
Co154 O167 2.244 . S
O155 Co154 2.216 . S
O155 C162 1.247 . S
O156 Co154 2.091 . S
O156 C162 1.261 . S
C157 O166 1.247 . S
C157 O167 1.272 . S
O158 Co154 2.004 . S
O158 C163 1.259 . S
Co159 O160 2.061 . S
Co159 O165 2.052 . S
Co159 O167 2.135 . S
O160 Co159 2.061 . S
O160 C163 1.235 . S
C161 O164 1.238 . S
C161 O165 1.241 . S
C162 O155 1.247 . S
C162 O156 1.261 . S
C163 O158 1.259 . S
C163 O160 1.235 . S
O164 Co154 2.021 . S
O164 C161 1.238 . S
O165 Co159 2.052 . S
O165 C161 1.241 . S
O166 Co154 2.137 . S
O166 C157 1.247 . S
O167 Co154 2.244 . S
O167 C157 1.272 . S
O167 Co159 2.135 . S
Co168 O169 2.216 . S
Co168 O170 2.091 . S
Co168 O172 2.004 . S
Co168 O178 2.021 . S
Co168 O180 2.137 . S
Co168 O181 2.244 . S
O169 Co168 2.216 . S
O169 C176 1.247 . S
O170 Co168 2.091 . S
O170 C176 1.261 . S
C171 O180 1.247 . S
C171 O181 1.272 . S
O172 Co168 2.004 . S
O172 C177 1.259 . S
Co173 O174 2.061 . S
Co173 O179 2.052 . S
Co173 O181 2.135 . S
O174 Co173 2.061 . S
O174 C177 1.235 . S
C175 O178 1.238 . S
C175 O179 1.241 . S
C176 O169 1.247 . S
C176 O170 1.261 . S
C177 O172 1.259 . S
C177 O174 1.235 . S
O178 Co168 2.021 . S
O178 C175 1.238 . S
O179 Co173 2.052 . S
O179 C175 1.241 . S
O180 Co168 2.137 . S
O180 C171 1.247 . S
O181 Co168 2.244 . S
O181 C171 1.272 . S
O181 Co173 2.135 . S
Co182 O183 2.216 . S
Co182 O184 2.091 . S
Co182 O186 2.004 . S
Co182 O192 2.021 . S
Co182 O194 2.137 . S
Co182 O195 2.244 . S
O183 Co182 2.216 . S
O183 C190 1.247 . S
O184 Co182 2.091 . S
O184 C190 1.261 . S
C185 O194 1.247 . S
C185 O195 1.272 . S
O186 Co182 2.004 . S
O186 C191 1.259 . S
Co187 O188 2.061 . S
Co187 O193 2.052 . S
Co187 O195 2.135 . S
O188 Co187 2.061 . S
O188 C191 1.235 . S
C189 O192 1.238 . S
C189 O193 1.241 . S
C190 O183 1.247 . S
C190 O184 1.261 . S
C191 O186 1.259 . S
C191 O188 1.235 . S
O192 Co182 2.021 . S
O192 C189 1.238 . S
O193 Co187 2.052 . S
O193 C189 1.241 . S
O194 Co182 2.137 . S
O194 C185 1.247 . S
O195 Co182 2.244 . S
O195 C185 1.272 . S
O195 Co187 2.135 . S
Co196 O197 2.216 . S
Co196 O198 2.091 . S
Co196 O200 2.004 . S
Co196 O206 2.021 . S
Co196 O208 2.137 . S
Co196 O209 2.244 . S
O197 Co196 2.216 . S
O197 C204 1.247 . S
O198 Co196 2.091 . S
O198 C204 1.261 . S
C199 O208 1.247 . S
C199 O209 1.272 . S
O200 Co196 2.004 . S
O200 C205 1.259 . S
Co201 O202 2.061 . S
Co201 O207 2.052 . S
Co201 O209 2.135 . S
O202 Co201 2.061 . S
O202 C205 1.235 . S
C203 O206 1.238 . S
C203 O207 1.241 . S
C204 O197 1.247 . S
C204 O198 1.261 . S
C205 O200 1.259 . S
C205 O202 1.235 . S
O206 Co196 2.021 . S
O206 C203 1.238 . S
O207 Co201 2.052 . S
O207 C203 1.241 . S
O208 Co196 2.137 . S
O208 C199 1.247 . S
O209 Co196 2.244 . S
O209 C199 1.272 . S
O209 Co201 2.135 . S
Co210 O211 2.216 . S
Co210 O212 2.091 . S
Co210 O214 2.004 . S
Co210 O220 2.021 . S
Co210 O222 2.137 . S
Co210 O223 2.244 . S
O211 Co210 2.216 . S
O211 C218 1.247 . S
O212 Co210 2.091 . S
O212 C218 1.261 . S
C213 O222 1.247 . S
C213 O223 1.272 . S
O214 Co210 2.004 . S
O214 C219 1.259 . S
Co215 O216 2.061 . S
Co215 O221 2.052 . S
Co215 O223 2.135 . S
O216 Co215 2.061 . S
O216 C219 1.235 . S
C217 O220 1.238 . S
C217 O221 1.241 . S
C218 O211 1.247 . S
C218 O212 1.261 . S
C219 O214 1.259 . S
C219 O216 1.235 . S
O220 Co210 2.021 . S
O220 C217 1.238 . S
O221 Co215 2.052 . S
O221 C217 1.241 . S
O222 Co210 2.137 . S
O222 C213 1.247 . S
O223 Co210 2.244 . S
O223 C213 1.272 . S
O223 Co215 2.135 . S
Co224 O225 2.216 . S
Co224 O226 2.091 . S
Co224 O228 2.004 . S
Co224 O234 2.021 . S
Co224 O236 2.137 . S
Co224 O237 2.244 . S
O225 Co224 2.216 . S
O225 C232 1.247 . S
O226 Co224 2.091 . S
O226 C232 1.261 . S
C227 O236 1.247 . S
C227 O237 1.272 . S
O228 Co224 2.004 . S
O228 C233 1.259 . S
Co229 O230 2.061 . S
Co229 O235 2.052 . S
Co229 O237 2.135 . S
O230 Co229 2.061 . S
O230 C233 1.235 . S
C231 O234 1.238 . S
C231 O235 1.241 . S
C232 O225 1.247 . S
C232 O226 1.261 . S
C233 O228 1.259 . S
C233 O230 1.235 . S
O234 Co224 2.021 . S
O234 C231 1.238 . S
O235 Co229 2.052 . S
O235 C231 1.241 . S
O236 Co224 2.137 . S
O236 C227 1.247 . S
O237 Co224 2.244 . S
O237 C227 1.272 . S
O237 Co229 2.135 . S
Co238 O239 2.216 . S
Co238 O240 2.091 . S
Co238 O242 2.004 . S
Co238 O248 2.021 . S
Co238 O250 2.137 . S
Co238 O251 2.244 . S
O239 Co238 2.216 . S
O239 C246 1.247 . S
O240 Co238 2.091 . S
O240 C246 1.261 . S
C241 O250 1.247 . S
C241 O251 1.272 . S
O242 Co238 2.004 . S
O242 C247 1.259 . S
Co243 O244 2.061 . S
Co243 O249 2.052 . S
Co243 O251 2.135 . S
O244 Co243 2.061 . S
O244 C247 1.235 . S
C245 O248 1.238 . S
C245 O249 1.241 . S
C246 O239 1.247 . S
C246 O240 1.261 . S
C247 O242 1.259 . S
C247 O244 1.235 . S
O248 Co238 2.021 . S
O248 C245 1.238 . S
O249 Co243 2.052 . S
O249 C245 1.241 . S
O250 Co238 2.137 . S
O250 C241 1.247 . S
O251 Co238 2.244 . S
O251 C241 1.272 . S
O251 Co243 2.135 . S
Co252 O253 2.216 . S
Co252 O254 2.091 . S
Co252 O256 2.004 . S
Co252 O262 2.021 . S
Co252 O264 2.137 . S
Co252 O265 2.244 . S
O253 Co252 2.216 . S
O253 C260 1.247 . S
O254 Co252 2.091 . S
O254 C260 1.261 . S
C255 O264 1.247 . S
C255 O265 1.272 . S
O256 Co252 2.004 . S
O256 C261 1.259 . S
Co257 O258 2.061 . S
Co257 O263 2.052 . S
Co257 O265 2.135 . S
O258 Co257 2.061 . S
O258 C261 1.235 . S
C259 O262 1.238 . S
C259 O263 1.241 . S
C260 O253 1.247 . S
C260 O254 1.261 . S
C261 O256 1.259 . S
C261 O258 1.235 . S
O262 Co252 2.021 . S
O262 C259 1.238 . S
O263 Co257 2.052 . S
O263 C259 1.241 . S
O264 Co252 2.137 . S
O264 C255 1.247 . S
O265 Co252 2.244 . S
O265 C255 1.272 . S
O265 Co257 2.135 . S
Co266 O267 2.216 . S
Co266 O268 2.091 . S
Co266 O270 2.004 . S
Co266 O276 2.021 . S
Co266 O278 2.137 . S
Co266 O279 2.244 . S
O267 Co266 2.216 . S
O267 C274 1.247 . S
O268 Co266 2.091 . S
O268 C274 1.261 . S
C269 O278 1.247 . S
C269 O279 1.272 . S
O270 Co266 2.004 . S
O270 C275 1.259 . S
Co271 O272 2.061 . S
Co271 O277 2.052 . S
Co271 O279 2.135 . S
O272 Co271 2.061 . S
O272 C275 1.235 . S
C273 O276 1.238 . S
C273 O277 1.241 . S
C274 O267 1.247 . S
C274 O268 1.261 . S
C275 O270 1.259 . S
C275 O272 1.235 . S
O276 Co266 2.021 . S
O276 C273 1.238 . S
O277 Co271 2.052 . S
O277 C273 1.241 . S
O278 Co266 2.137 . S
O278 C269 1.247 . S
O279 Co266 2.244 . S
O279 C269 1.272 . S
O279 Co271 2.135 . S
Co280 O281 2.216 . S
Co280 O282 2.091 . S
Co280 O284 2.004 . S
Co280 O290 2.021 . S
Co280 O292 2.137 . S
Co280 O293 2.244 . S
O281 Co280 2.216 . S
O281 C288 1.247 . S
O282 Co280 2.091 . S
O282 C288 1.261 . S
C283 O292 1.247 . S
C283 O293 1.272 . S
O284 Co280 2.004 . S
O284 C289 1.259 . S
Co285 O286 2.061 . S
Co285 O291 2.052 . S
Co285 O293 2.135 . S
O286 Co285 2.061 . S
O286 C289 1.235 . S
C287 O290 1.238 . S
C287 O291 1.241 . S
C288 O281 1.247 . S
C288 O282 1.261 . S
C289 O284 1.259 . S
C289 O286 1.235 . S
O290 Co280 2.021 . S
O290 C287 1.238 . S
O291 Co285 2.052 . S
O291 C287 1.241 . S
O292 Co280 2.137 . S
O292 C283 1.247 . S
O293 Co280 2.244 . S
O293 C283 1.272 . S
O293 Co285 2.135 . S
Co294 O295 2.216 . S
Co294 O296 2.091 . S
Co294 O298 2.004 . S
Co294 O304 2.021 . S
Co294 O306 2.137 . S
Co294 O307 2.244 . S
O295 Co294 2.216 . S
O295 C302 1.247 . S
O296 Co294 2.091 . S
O296 C302 1.261 . S
C297 O306 1.247 . S
C297 O307 1.272 . S
O298 Co294 2.004 . S
O298 C303 1.259 . S
Co299 O300 2.061 . S
Co299 O305 2.052 . S
Co299 O307 2.135 . S
O300 Co299 2.061 . S
O300 C303 1.235 . S
C301 O304 1.238 . S
C301 O305 1.241 . S
C302 O295 1.247 . S
C302 O296 1.261 . S
C303 O298 1.259 . S
C303 O300 1.235 . S
O304 Co294 2.021 . S
O304 C301 1.238 . S
O305 Co299 2.052 . S
O305 C301 1.241 . S
O306 Co294 2.137 . S
O306 C297 1.247 . S
O307 Co294 2.244 . S
O307 C297 1.272 . S
O307 Co299 2.135 . S
Co308 O309 2.216 . S
Co308 O310 2.091 . S
Co308 O312 2.004 . S
Co308 O318 2.021 . S
Co308 O320 2.137 . S
Co308 O321 2.244 . S
O309 Co308 2.216 . S
O309 C316 1.247 . S
O310 Co308 2.091 . S
O310 C316 1.261 . S
C311 O320 1.247 . S
C311 O321 1.272 . S
O312 Co308 2.004 . S
O312 C317 1.259 . S
Co313 O314 2.061 . S
Co313 O319 2.052 . S
Co313 O321 2.135 . S
O314 Co313 2.061 . S
O314 C317 1.235 . S
C315 O318 1.238 . S
C315 O319 1.241 . S
C316 O309 1.247 . S
C316 O310 1.261 . S
C317 O312 1.259 . S
C317 O314 1.235 . S
O318 Co308 2.021 . S
O318 C315 1.238 . S
O319 Co313 2.052 . S
O319 C315 1.241 . S
O320 Co308 2.137 . S
O320 C311 1.247 . S
O321 Co308 2.244 . S
O321 C311 1.272 . S
O321 Co313 2.135 . S
Co322 O323 2.216 . S
Co322 O324 2.091 . S
Co322 O326 2.004 . S
Co322 O332 2.021 . S
Co322 O334 2.137 . S
Co322 O335 2.244 . S
O323 Co322 2.216 . S
O323 C330 1.247 . S
O324 Co322 2.091 . S
O324 C330 1.261 . S
C325 O334 1.247 . S
C325 O335 1.272 . S
O326 Co322 2.004 . S
O326 C331 1.259 . S
Co327 O328 2.061 . S
Co327 O333 2.052 . S
Co327 O335 2.135 . S
O328 Co327 2.061 . S
O328 C331 1.235 . S
C329 O332 1.238 . S
C329 O333 1.241 . S
C330 O323 1.247 . S
C330 O324 1.261 . S
C331 O326 1.259 . S
C331 O328 1.235 . S
O332 Co322 2.021 . S
O332 C329 1.238 . S
O333 Co327 2.052 . S
O333 C329 1.241 . S
O334 Co322 2.137 . S
O334 C325 1.247 . S
O335 Co322 2.244 . S
O335 C325 1.272 . S
O335 Co327 2.135 . S
Co336 O337 2.216 . S
Co336 O338 2.091 . S
Co336 O340 2.004 . S
Co336 O346 2.021 . S
Co336 O348 2.137 . S
Co336 O349 2.244 . S
O337 Co336 2.216 . S
O337 C344 1.247 . S
O338 Co336 2.091 . S
O338 C344 1.261 . S
C339 O348 1.247 . S
C339 O349 1.272 . S
O340 Co336 2.004 . S
O340 C345 1.259 . S
Co341 O342 2.061 . S
Co341 O347 2.052 . S
Co341 O349 2.135 . S
O342 Co341 2.061 . S
O342 C345 1.235 . S
C343 O346 1.238 . S
C343 O347 1.241 . S
C344 O337 1.247 . S
C344 O338 1.261 . S
C345 O340 1.259 . S
C345 O342 1.235 . S
O346 Co336 2.021 . S
O346 C343 1.238 . S
O347 Co341 2.052 . S
O347 C343 1.241 . S
O348 Co336 2.137 . S
O348 C339 1.247 . S
O349 Co336 2.244 . S
O349 C339 1.272 . S
O349 Co341 2.135 . S
Co350 O351 2.216 . S
Co350 O352 2.091 . S
Co350 O354 2.004 . S
Co350 O360 2.021 . S
Co350 O362 2.137 . S
Co350 O363 2.244 . S
O351 Co350 2.216 . S
O351 C358 1.247 . S
O352 Co350 2.091 . S
O352 C358 1.261 . S
C353 O362 1.247 . S
C353 O363 1.272 . S
O354 Co350 2.004 . S
O354 C359 1.259 . S
Co355 O356 2.061 . S
Co355 O361 2.052 . S
Co355 O363 2.135 . S
O356 Co355 2.061 . S
O356 C359 1.235 . S
C357 O360 1.238 . S
C357 O361 1.241 . S
C358 O351 1.247 . S
C358 O352 1.261 . S
C359 O354 1.259 . S
C359 O356 1.235 . S
O360 Co350 2.021 . S
O360 C357 1.238 . S
O361 Co355 2.052 . S
O361 C357 1.241 . S
O362 Co350 2.137 . S
O362 C353 1.247 . S
O363 Co350 2.244 . S
O363 C353 1.272 . S
O363 Co355 2.135 . S
Co364 O365 2.216 . S
Co364 O366 2.091 . S
Co364 O368 2.004 . S
Co364 O374 2.021 . S
Co364 O376 2.137 . S
Co364 O377 2.244 . S
O365 Co364 2.216 . S
O365 C372 1.247 . S
O366 Co364 2.091 . S
O366 C372 1.261 . S
C367 O376 1.247 . S
C367 O377 1.272 . S
O368 Co364 2.004 . S
O368 C373 1.259 . S
Co369 O370 2.061 . S
Co369 O375 2.052 . S
Co369 O377 2.135 . S
O370 Co369 2.061 . S
O370 C373 1.235 . S
C371 O374 1.238 . S
C371 O375 1.241 . S
C372 O365 1.247 . S
C372 O366 1.261 . S
C373 O368 1.259 . S
C373 O370 1.235 . S
O374 Co364 2.021 . S
O374 C371 1.238 . S
O375 Co369 2.052 . S
O375 C371 1.241 . S
O376 Co364 2.137 . S
O376 C367 1.247 . S
O377 Co364 2.244 . S
O377 C367 1.272 . S
O377 Co369 2.135 . S
Co378 O379 2.216 . S
Co378 O380 2.091 . S
Co378 O382 2.004 . S
Co378 O388 2.021 . S
Co378 O390 2.137 . S
Co378 O391 2.244 . S
O379 Co378 2.216 . S
O379 C386 1.247 . S
O380 Co378 2.091 . S
O380 C386 1.261 . S
C381 O390 1.247 . S
C381 O391 1.272 . S
O382 Co378 2.004 . S
O382 C387 1.259 . S
Co383 O384 2.061 . S
Co383 O389 2.052 . S
Co383 O391 2.135 . S
O384 Co383 2.061 . S
O384 C387 1.235 . S
C385 O388 1.238 . S
C385 O389 1.241 . S
C386 O379 1.247 . S
C386 O380 1.261 . S
C387 O382 1.259 . S
C387 O384 1.235 . S
O388 Co378 2.021 . S
O388 C385 1.238 . S
O389 Co383 2.052 . S
O389 C385 1.241 . S
O390 Co378 2.137 . S
O390 C381 1.247 . S
O391 Co378 2.244 . S
O391 C381 1.272 . S
O391 Co383 2.135 . S
Co392 O393 2.216 . S
Co392 O394 2.091 . S
Co392 O396 2.004 . S
Co392 O402 2.021 . S
Co392 O404 2.137 . S
Co392 O405 2.244 . S
O393 Co392 2.216 . S
O393 C400 1.247 . S
O394 Co392 2.091 . S
O394 C400 1.261 . S
C395 O404 1.247 . S
C395 O405 1.272 . S
O396 Co392 2.004 . S
O396 C401 1.259 . S
Co397 O398 2.061 . S
Co397 O403 2.052 . S
Co397 O405 2.135 . S
O398 Co397 2.061 . S
O398 C401 1.235 . S
C399 O402 1.238 . S
C399 O403 1.241 . S
C400 O393 1.247 . S
C400 O394 1.261 . S
C401 O396 1.259 . S
C401 O398 1.235 . S
O402 Co392 2.021 . S
O402 C399 1.238 . S
O403 Co397 2.052 . S
O403 C399 1.241 . S
O404 Co392 2.137 . S
O404 C395 1.247 . S
O405 Co392 2.244 . S
O405 C395 1.272 . S
O405 Co397 2.135 . S
Co406 O407 2.216 . S
Co406 O408 2.091 . S
Co406 O410 2.004 . S
Co406 O416 2.021 . S
Co406 O418 2.137 . S
Co406 O419 2.244 . S
O407 Co406 2.216 . S
O407 C414 1.247 . S
O408 Co406 2.091 . S
O408 C414 1.261 . S
C409 O418 1.247 . S
C409 O419 1.272 . S
O410 Co406 2.004 . S
O410 C415 1.259 . S
Co411 O412 2.061 . S
Co411 O417 2.052 . S
Co411 O419 2.135 . S
O412 Co411 2.061 . S
O412 C415 1.235 . S
C413 O416 1.238 . S
C413 O417 1.241 . S
C414 O407 1.247 . S
C414 O408 1.261 . S
C415 O410 1.259 . S
C415 O412 1.235 . S
O416 Co406 2.021 . S
O416 C413 1.238 . S
O417 Co411 2.052 . S
O417 C413 1.241 . S
O418 Co406 2.137 . S
O418 C409 1.247 . S
O419 Co406 2.244 . S
O419 C409 1.272 . S
O419 Co411 2.135 . S
Co420 O421 2.216 . S
Co420 O422 2.091 . S
Co420 O424 2.004 . S
Co420 O430 2.021 . S
Co420 O432 2.137 . S
Co420 O433 2.244 . S
O421 Co420 2.216 . S
O421 C428 1.247 . S
O422 Co420 2.091 . S
O422 C428 1.261 . S
C423 O432 1.247 . S
C423 O433 1.272 . S
O424 Co420 2.004 . S
O424 C429 1.259 . S
Co425 O426 2.061 . S
Co425 O431 2.052 . S
Co425 O433 2.135 . S
O426 Co425 2.061 . S
O426 C429 1.235 . S
C427 O430 1.238 . S
C427 O431 1.241 . S
C428 O421 1.247 . S
C428 O422 1.261 . S
C429 O424 1.259 . S
C429 O426 1.235 . S
O430 Co420 2.021 . S
O430 C427 1.238 . S
O431 Co425 2.052 . S
O431 C427 1.241 . S
O432 Co420 2.137 . S
O432 C423 1.247 . S
O433 Co420 2.244 . S
O433 C423 1.272 . S
O433 Co425 2.135 . S
Co434 O435 2.216 . S
Co434 O436 2.091 . S
Co434 O438 2.004 . S
Co434 O444 2.021 . S
Co434 O446 2.137 . S
Co434 O447 2.244 . S
O435 Co434 2.216 . S
O435 C442 1.247 . S
O436 Co434 2.091 . S
O436 C442 1.261 . S
C437 O446 1.247 . S
C437 O447 1.272 . S
O438 Co434 2.004 . S
O438 C443 1.259 . S
Co439 O440 2.061 . S
Co439 O445 2.052 . S
Co439 O447 2.135 . S
O440 Co439 2.061 . S
O440 C443 1.235 . S
C441 O444 1.238 . S
C441 O445 1.241 . S
C442 O435 1.247 . S
C442 O436 1.261 . S
C443 O438 1.259 . S
C443 O440 1.235 . S
O444 Co434 2.021 . S
O444 C441 1.238 . S
O445 Co439 2.052 . S
O445 C441 1.241 . S
O446 Co434 2.137 . S
O446 C437 1.247 . S
O447 Co434 2.244 . S
O447 C437 1.272 . S
O447 Co439 2.135 . S
Co448 O449 2.216 . S
Co448 O450 2.091 . S
Co448 O452 2.004 . S
Co448 O458 2.021 . S
Co448 O460 2.137 . S
Co448 O461 2.244 . S
O449 Co448 2.216 . S
O449 C456 1.247 . S
O450 Co448 2.091 . S
O450 C456 1.261 . S
C451 O460 1.247 . S
C451 O461 1.272 . S
O452 Co448 2.004 . S
O452 C457 1.259 . S
Co453 O454 2.061 . S
Co453 O459 2.052 . S
Co453 O461 2.135 . S
O454 Co453 2.061 . S
O454 C457 1.235 . S
C455 O458 1.238 . S
C455 O459 1.241 . S
C456 O449 1.247 . S
C456 O450 1.261 . S
C457 O452 1.259 . S
C457 O454 1.235 . S
O458 Co448 2.021 . S
O458 C455 1.238 . S
O459 Co453 2.052 . S
O459 C455 1.241 . S
O460 Co448 2.137 . S
O460 C451 1.247 . S
O461 Co448 2.244 . S
O461 C451 1.272 . S
O461 Co453 2.135 . S
Co462 O463 2.216 . S
Co462 O464 2.091 . S
Co462 O466 2.004 . S
Co462 O472 2.021 . S
Co462 O474 2.137 . S
Co462 O475 2.244 . S
O463 Co462 2.216 . S
O463 C470 1.247 . S
O464 Co462 2.091 . S
O464 C470 1.261 . S
C465 O474 1.247 . S
C465 O475 1.272 . S
O466 Co462 2.004 . S
O466 C471 1.259 . S
Co467 O468 2.061 . S
Co467 O473 2.052 . S
Co467 O475 2.135 . S
O468 Co467 2.061 . S
O468 C471 1.235 . S
C469 O472 1.238 . S
C469 O473 1.241 . S
C470 O463 1.247 . S
C470 O464 1.261 . S
C471 O466 1.259 . S
C471 O468 1.235 . S
O472 Co462 2.021 . S
O472 C469 1.238 . S
O473 Co467 2.052 . S
O473 C469 1.241 . S
O474 Co462 2.137 . S
O474 C465 1.247 . S
O475 Co462 2.244 . S
O475 C465 1.272 . S
O475 Co467 2.135 . S
Co476 O477 2.216 . S
Co476 O478 2.091 . S
Co476 O480 2.004 . S
Co476 O486 2.021 . S
Co476 O488 2.137 . S
Co476 O489 2.244 . S
O477 Co476 2.216 . S
O477 C484 1.247 . S
O478 Co476 2.091 . S
O478 C484 1.261 . S
C479 O488 1.247 . S
C479 O489 1.272 . S
O480 Co476 2.004 . S
O480 C485 1.259 . S
Co481 O482 2.061 . S
Co481 O487 2.052 . S
Co481 O489 2.135 . S
O482 Co481 2.061 . S
O482 C485 1.235 . S
C483 O486 1.238 . S
C483 O487 1.241 . S
C484 O477 1.247 . S
C484 O478 1.261 . S
C485 O480 1.259 . S
C485 O482 1.235 . S
O486 Co476 2.021 . S
O486 C483 1.238 . S
O487 Co481 2.052 . S
O487 C483 1.241 . S
O488 Co476 2.137 . S
O488 C479 1.247 . S
O489 Co476 2.244 . S
O489 C479 1.272 . S
O489 Co481 2.135 . S
Co490 O491 2.216 . S
Co490 O492 2.091 . S
Co490 O494 2.004 . S
Co490 O500 2.021 . S
Co490 O502 2.137 . S
Co490 O503 2.244 . S
O491 Co490 2.216 . S
O491 C498 1.247 . S
O492 Co490 2.091 . S
O492 C498 1.261 . S
C493 O502 1.247 . S
C493 O503 1.272 . S
O494 Co490 2.004 . S
O494 C499 1.259 . S
Co495 O496 2.061 . S
Co495 O501 2.052 . S
Co495 O503 2.135 . S
O496 Co495 2.061 . S
O496 C499 1.235 . S
C497 O500 1.238 . S
C497 O501 1.241 . S
C498 O491 1.247 . S
C498 O492 1.261 . S
C499 O494 1.259 . S
C499 O496 1.235 . S
O500 Co490 2.021 . S
O500 C497 1.238 . S
O501 Co495 2.052 . S
O501 C497 1.241 . S
O502 Co490 2.137 . S
O502 C493 1.247 . S
O503 Co490 2.244 . S
O503 C493 1.272 . S
O503 Co495 2.135 . S
Co504 O505 2.216 . S
Co504 O506 2.091 . S
Co504 O508 2.004 . S
Co504 O514 2.021 . S
Co504 O516 2.137 . S
Co504 O517 2.244 . S
O505 Co504 2.216 . S
O505 C512 1.247 . S
O506 Co504 2.091 . S
O506 C512 1.261 . S
C507 O516 1.247 . S
C507 O517 1.272 . S
O508 Co504 2.004 . S
O508 C513 1.259 . S
Co509 O510 2.061 . S
Co509 O515 2.052 . S
Co509 O517 2.135 . S
O510 Co509 2.061 . S
O510 C513 1.235 . S
C511 O514 1.238 . S
C511 O515 1.241 . S
C512 O505 1.247 . S
C512 O506 1.261 . S
C513 O508 1.259 . S
C513 O510 1.235 . S
O514 Co504 2.021 . S
O514 C511 1.238 . S
O515 Co509 2.052 . S
O515 C511 1.241 . S
O516 Co504 2.137 . S
O516 C507 1.247 . S
O517 Co504 2.244 . S
O517 C507 1.272 . S
O517 Co509 2.135 . S
Co518 O519 2.216 . S
Co518 O520 2.091 . S
Co518 O522 2.004 . S
Co518 O528 2.021 . S
Co518 O530 2.137 . S
Co518 O531 2.244 . S
O519 Co518 2.216 . S
O519 C526 1.247 . S
O520 Co518 2.091 . S
O520 C526 1.261 . S
C521 O530 1.247 . S
C521 O531 1.272 . S
O522 Co518 2.004 . S
O522 C527 1.259 . S
Co523 O524 2.061 . S
Co523 O529 2.052 . S
Co523 O531 2.135 . S
O524 Co523 2.061 . S
O524 C527 1.235 . S
C525 O528 1.238 . S
C525 O529 1.241 . S
C526 O519 1.247 . S
C526 O520 1.261 . S
C527 O522 1.259 . S
C527 O524 1.235 . S
O528 Co518 2.021 . S
O528 C525 1.238 . S
O529 Co523 2.052 . S
O529 C525 1.241 . S
O530 Co518 2.137 . S
O530 C521 1.247 . S
O531 Co518 2.244 . S
O531 C521 1.272 . S
O531 Co523 2.135 . S
Co532 O533 2.216 . S
Co532 O534 2.091 . S
Co532 O536 2.004 . S
Co532 O542 2.021 . S
Co532 O544 2.137 . S
Co532 O545 2.244 . S
O533 Co532 2.216 . S
O533 C540 1.247 . S
O534 Co532 2.091 . S
O534 C540 1.261 . S
C535 O544 1.247 . S
C535 O545 1.272 . S
O536 Co532 2.004 . S
O536 C541 1.259 . S
Co537 O538 2.061 . S
Co537 O543 2.052 . S
Co537 O545 2.135 . S
O538 Co537 2.061 . S
O538 C541 1.235 . S
C539 O542 1.238 . S
C539 O543 1.241 . S
C540 O533 1.247 . S
C540 O534 1.261 . S
C541 O536 1.259 . S
C541 O538 1.235 . S
O542 Co532 2.021 . S
O542 C539 1.238 . S
O543 Co537 2.052 . S
O543 C539 1.241 . S
O544 Co532 2.137 . S
O544 C535 1.247 . S
O545 Co532 2.244 . S
O545 C535 1.272 . S
O545 Co537 2.135 . S
Co546 O547 2.216 . S
Co546 O548 2.091 . S
Co546 O550 2.004 . S
Co546 O556 2.021 . S
Co546 O558 2.137 . S
Co546 O559 2.244 . S
O547 Co546 2.216 . S
O547 C554 1.247 . S
O548 Co546 2.091 . S
O548 C554 1.261 . S
C549 O558 1.247 . S
C549 O559 1.272 . S
O550 Co546 2.004 . S
O550 C555 1.259 . S
Co551 O552 2.061 . S
Co551 O557 2.052 . S
Co551 O559 2.135 . S
O552 Co551 2.061 . S
O552 C555 1.235 . S
C553 O556 1.238 . S
C553 O557 1.241 . S
C554 O547 1.247 . S
C554 O548 1.261 . S
C555 O550 1.259 . S
C555 O552 1.235 . S
O556 Co546 2.021 . S
O556 C553 1.238 . S
O557 Co551 2.052 . S
O557 C553 1.241 . S
O558 Co546 2.137 . S
O558 C549 1.247 . S
O559 Co546 2.244 . S
O559 C549 1.272 . S
O559 Co551 2.135 . S
Co560 O561 2.216 . S
Co560 O562 2.091 . S
Co560 O564 2.004 . S
Co560 O570 2.021 . S
Co560 O572 2.137 . S
Co560 O573 2.244 . S
O561 Co560 2.216 . S
O561 C568 1.247 . S
O562 Co560 2.091 . S
O562 C568 1.261 . S
C563 O572 1.247 . S
C563 O573 1.272 . S
O564 Co560 2.004 . S
O564 C569 1.259 . S
Co565 O566 2.061 . S
Co565 O571 2.052 . S
Co565 O573 2.135 . S
O566 Co565 2.061 . S
O566 C569 1.235 . S
C567 O570 1.238 . S
C567 O571 1.241 . S
C568 O561 1.247 . S
C568 O562 1.261 . S
C569 O564 1.259 . S
C569 O566 1.235 . S
O570 Co560 2.021 . S
O570 C567 1.238 . S
O571 Co565 2.052 . S
O571 C567 1.241 . S
O572 Co560 2.137 . S
O572 C563 1.247 . S
O573 Co560 2.244 . S
O573 C563 1.272 . S
O573 Co565 2.135 . S
Co574 O575 2.216 . S
Co574 O576 2.091 . S
Co574 O578 2.004 . S
Co574 O584 2.021 . S
Co574 O586 2.137 . S
Co574 O587 2.244 . S
O575 Co574 2.216 . S
O575 C582 1.247 . S
O576 Co574 2.091 . S
O576 C582 1.261 . S
C577 O586 1.247 . S
C577 O587 1.272 . S
O578 Co574 2.004 . S
O578 C583 1.259 . S
Co579 O580 2.061 . S
Co579 O585 2.052 . S
Co579 O587 2.135 . S
O580 Co579 2.061 . S
O580 C583 1.235 . S
C581 O584 1.238 . S
C581 O585 1.241 . S
C582 O575 1.247 . S
C582 O576 1.261 . S
C583 O578 1.259 . S
C583 O580 1.235 . S
O584 Co574 2.021 . S
O584 C581 1.238 . S
O585 Co579 2.052 . S
O585 C581 1.241 . S
O586 Co574 2.137 . S
O586 C577 1.247 . S
O587 Co574 2.244 . S
O587 C577 1.272 . S
O587 Co579 2.135 . S
Co588 O589 2.216 . S
Co588 O590 2.091 . S
Co588 O592 2.004 . S
Co588 O598 2.021 . S
Co588 O600 2.137 . S
Co588 O601 2.244 . S
O589 Co588 2.216 . S
O589 C596 1.247 . S
O590 Co588 2.091 . S
O590 C596 1.261 . S
C591 O600 1.247 . S
C591 O601 1.272 . S
O592 Co588 2.004 . S
O592 C597 1.259 . S
Co593 O594 2.061 . S
Co593 O599 2.052 . S
Co593 O601 2.135 . S
O594 Co593 2.061 . S
O594 C597 1.235 . S
C595 O598 1.238 . S
C595 O599 1.241 . S
C596 O589 1.247 . S
C596 O590 1.261 . S
C597 O592 1.259 . S
C597 O594 1.235 . S
O598 Co588 2.021 . S
O598 C595 1.238 . S
O599 Co593 2.052 . S
O599 C595 1.241 . S
O600 Co588 2.137 . S
O600 C591 1.247 . S
O601 Co588 2.244 . S
O601 C591 1.272 . S
O601 Co593 2.135 . S
Co602 O603 2.216 . S
Co602 O604 2.091 . S
Co602 O606 2.004 . S
Co602 O612 2.021 . S
Co602 O614 2.137 . S
Co602 O615 2.244 . S
O603 Co602 2.216 . S
O603 C610 1.247 . S
O604 Co602 2.091 . S
O604 C610 1.261 . S
C605 O614 1.247 . S
C605 O615 1.272 . S
O606 Co602 2.004 . S
O606 C611 1.259 . S
Co607 O608 2.061 . S
Co607 O613 2.052 . S
Co607 O615 2.135 . S
O608 Co607 2.061 . S
O608 C611 1.235 . S
C609 O612 1.238 . S
C609 O613 1.241 . S
C610 O603 1.247 . S
C610 O604 1.261 . S
C611 O606 1.259 . S
C611 O608 1.235 . S
O612 Co602 2.021 . S
O612 C609 1.238 . S
O613 Co607 2.052 . S
O613 C609 1.241 . S
O614 Co602 2.137 . S
O614 C605 1.247 . S
O615 Co602 2.244 . S
O615 C605 1.272 . S
O615 Co607 2.135 . S
Co616 O617 2.216 . S
Co616 O618 2.091 . S
Co616 O620 2.004 . S
Co616 O626 2.021 . S
Co616 O628 2.137 . S
Co616 O629 2.244 . S
O617 Co616 2.216 . S
O617 C624 1.247 . S
O618 Co616 2.091 . S
O618 C624 1.261 . S
C619 O628 1.247 . S
C619 O629 1.272 . S
O620 Co616 2.004 . S
O620 C625 1.259 . S
Co621 O622 2.061 . S
Co621 O627 2.052 . S
Co621 O629 2.135 . S
O622 Co621 2.061 . S
O622 C625 1.235 . S
C623 O626 1.238 . S
C623 O627 1.241 . S
C624 O617 1.247 . S
C624 O618 1.261 . S
C625 O620 1.259 . S
C625 O622 1.235 . S
O626 Co616 2.021 . S
O626 C623 1.238 . S
O627 Co621 2.052 . S
O627 C623 1.241 . S
O628 Co616 2.137 . S
O628 C619 1.247 . S
O629 Co616 2.244 . S
O629 C619 1.272 . S
O629 Co621 2.135 . S
Co630 O631 2.216 . S
Co630 O632 2.091 . S
Co630 O634 2.004 . S
Co630 O640 2.021 . S
Co630 O642 2.137 . S
Co630 O643 2.244 . S
O631 Co630 2.216 . S
O631 C638 1.247 . S
O632 Co630 2.091 . S
O632 C638 1.261 . S
C633 O642 1.247 . S
C633 O643 1.272 . S
O634 Co630 2.004 . S
O634 C639 1.259 . S
Co635 O636 2.061 . S
Co635 O641 2.052 . S
Co635 O643 2.135 . S
O636 Co635 2.061 . S
O636 C639 1.235 . S
C637 O640 1.238 . S
C637 O641 1.241 . S
C638 O631 1.247 . S
C638 O632 1.261 . S
C639 O634 1.259 . S
C639 O636 1.235 . S
O640 Co630 2.021 . S
O640 C637 1.238 . S
O641 Co635 2.052 . S
O641 C637 1.241 . S
O642 Co630 2.137 . S
O642 C633 1.247 . S
O643 Co630 2.244 . S
O643 C633 1.272 . S
O643 Co635 2.135 . S
Co644 O645 2.216 . S
Co644 O646 2.091 . S
Co644 O648 2.004 . S
Co644 O654 2.021 . S
Co644 O656 2.137 . S
Co644 O657 2.244 . S
O645 Co644 2.216 . S
O645 C652 1.247 . S
O646 Co644 2.091 . S
O646 C652 1.261 . S
C647 O656 1.247 . S
C647 O657 1.272 . S
O648 Co644 2.004 . S
O648 C653 1.259 . S
Co649 O650 2.061 . S
Co649 O655 2.052 . S
Co649 O657 2.135 . S
O650 Co649 2.061 . S
O650 C653 1.235 . S
C651 O654 1.238 . S
C651 O655 1.241 . S
C652 O645 1.247 . S
C652 O646 1.261 . S
C653 O648 1.259 . S
C653 O650 1.235 . S
O654 Co644 2.021 . S
O654 C651 1.238 . S
O655 Co649 2.052 . S
O655 C651 1.241 . S
O656 Co644 2.137 . S
O656 C647 1.247 . S
O657 Co644 2.244 . S
O657 C647 1.272 . S
O657 Co649 2.135 . S
Co658 O659 2.216 . S
Co658 O660 2.091 . S
Co658 O662 2.004 . S
Co658 O668 2.021 . S
Co658 O670 2.137 . S
Co658 O671 2.244 . S
O659 Co658 2.216 . S
O659 C666 1.247 . S
O660 Co658 2.091 . S
O660 C666 1.261 . S
C661 O670 1.247 . S
C661 O671 1.272 . S
O662 Co658 2.004 . S
O662 C667 1.259 . S
Co663 O664 2.061 . S
Co663 O669 2.052 . S
Co663 O671 2.135 . S
O664 Co663 2.061 . S
O664 C667 1.235 . S
C665 O668 1.238 . S
C665 O669 1.241 . S
C666 O659 1.247 . S
C666 O660 1.261 . S
C667 O662 1.259 . S
C667 O664 1.235 . S
O668 Co658 2.021 . S
O668 C665 1.238 . S
O669 Co663 2.052 . S
O669 C665 1.241 . S
O670 Co658 2.137 . S
O670 C661 1.247 . S
O671 Co658 2.244 . S
O671 C661 1.272 . S
O671 Co663 2.135 . S
Co672 O673 2.216 . S
Co672 O674 2.091 . S
Co672 O676 2.004 . S
Co672 O682 2.021 . S
Co672 O684 2.137 . S
Co672 O685 2.244 . S
O673 Co672 2.216 . S
O673 C680 1.247 . S
O674 Co672 2.091 . S
O674 C680 1.261 . S
C675 O684 1.247 . S
C675 O685 1.272 . S
O676 Co672 2.004 . S
O676 C681 1.259 . S
Co677 O678 2.061 . S
Co677 O683 2.052 . S
Co677 O685 2.135 . S
O678 Co677 2.061 . S
O678 C681 1.235 . S
C679 O682 1.238 . S
C679 O683 1.241 . S
C680 O673 1.247 . S
C680 O674 1.261 . S
C681 O676 1.259 . S
C681 O678 1.235 . S
O682 Co672 2.021 . S
O682 C679 1.238 . S
O683 Co677 2.052 . S
O683 C679 1.241 . S
O684 Co672 2.137 . S
O684 C675 1.247 . S
O685 Co672 2.244 . S
O685 C675 1.272 . S
O685 Co677 2.135 . S
Co686 O687 2.216 . S
Co686 O688 2.091 . S
Co686 O690 2.004 . S
Co686 O696 2.021 . S
Co686 O698 2.137 . S
Co686 O699 2.244 . S
O687 Co686 2.216 . S
O687 C694 1.247 . S
O688 Co686 2.091 . S
O688 C694 1.261 . S
C689 O698 1.247 . S
C689 O699 1.272 . S
O690 Co686 2.004 . S
O690 C695 1.259 . S
Co691 O692 2.061 . S
Co691 O697 2.052 . S
Co691 O699 2.135 . S
O692 Co691 2.061 . S
O692 C695 1.235 . S
C693 O696 1.238 . S
C693 O697 1.241 . S
C694 O687 1.247 . S
C694 O688 1.261 . S
C695 O690 1.259 . S
C695 O692 1.235 . S
O696 Co686 2.021 . S
O696 C693 1.238 . S
O697 Co691 2.052 . S
O697 C693 1.241 . S
O698 Co686 2.137 . S
O698 C689 1.247 . S
O699 Co686 2.244 . S
O699 C689 1.272 . S
O699 Co691 2.135 . S
Co700 O701 2.216 . S
Co700 O702 2.091 . S
Co700 O704 2.004 . S
Co700 O710 2.021 . S
Co700 O712 2.137 . S
Co700 O713 2.244 . S
O701 Co700 2.216 . S
O701 C708 1.247 . S
O702 Co700 2.091 . S
O702 C708 1.261 . S
C703 O712 1.247 . S
C703 O713 1.272 . S
O704 Co700 2.004 . S
O704 C709 1.259 . S
Co705 O706 2.061 . S
Co705 O711 2.052 . S
Co705 O713 2.135 . S
O706 Co705 2.061 . S
O706 C709 1.235 . S
C707 O710 1.238 . S
C707 O711 1.241 . S
C708 O701 1.247 . S
C708 O702 1.261 . S
C709 O704 1.259 . S
C709 O706 1.235 . S
O710 Co700 2.021 . S
O710 C707 1.238 . S
O711 Co705 2.052 . S
O711 C707 1.241 . S
O712 Co700 2.137 . S
O712 C703 1.247 . S
O713 Co700 2.244 . S
O713 C703 1.272 . S
O713 Co705 2.135 . S
Co714 O715 2.216 . S
Co714 O716 2.091 . S
Co714 O718 2.004 . S
Co714 O724 2.021 . S
Co714 O726 2.137 . S
Co714 O727 2.244 . S
O715 Co714 2.216 . S
O715 C722 1.247 . S
O716 Co714 2.091 . S
O716 C722 1.261 . S
C717 O726 1.247 . S
C717 O727 1.272 . S
O718 Co714 2.004 . S
O718 C723 1.259 . S
Co719 O720 2.061 . S
Co719 O725 2.052 . S
Co719 O727 2.135 . S
O720 Co719 2.061 . S
O720 C723 1.235 . S
C721 O724 1.238 . S
C721 O725 1.241 . S
C722 O715 1.247 . S
C722 O716 1.261 . S
C723 O718 1.259 . S
C723 O720 1.235 . S
O724 Co714 2.021 . S
O724 C721 1.238 . S
O725 Co719 2.052 . S
O725 C721 1.241 . S
O726 Co714 2.137 . S
O726 C717 1.247 . S
O727 Co714 2.244 . S
O727 C717 1.272 . S
O727 Co719 2.135 . S
Co728 O729 2.216 . S
Co728 O730 2.091 . S
Co728 O732 2.004 . S
Co728 O738 2.021 . S
Co728 O740 2.137 . S
Co728 O741 2.244 . S
O729 Co728 2.216 . S
O729 C736 1.247 . S
O730 Co728 2.091 . S
O730 C736 1.261 . S
C731 O740 1.247 . S
C731 O741 1.272 . S
O732 Co728 2.004 . S
O732 C737 1.259 . S
Co733 O734 2.061 . S
Co733 O739 2.052 . S
Co733 O741 2.135 . S
O734 Co733 2.061 . S
O734 C737 1.235 . S
C735 O738 1.238 . S
C735 O739 1.241 . S
C736 O729 1.247 . S
C736 O730 1.261 . S
C737 O732 1.259 . S
C737 O734 1.235 . S
O738 Co728 2.021 . S
O738 C735 1.238 . S
O739 Co733 2.052 . S
O739 C735 1.241 . S
O740 Co728 2.137 . S
O740 C731 1.247 . S
O741 Co728 2.244 . S
O741 C731 1.272 . S
O741 Co733 2.135 . S
Co742 O743 2.216 . S
Co742 O744 2.091 . S
Co742 O746 2.004 . S
Co742 O752 2.021 . S
Co742 O754 2.137 . S
Co742 O755 2.244 . S
O743 Co742 2.216 . S
O743 C750 1.247 . S
O744 Co742 2.091 . S
O744 C750 1.261 . S
C745 O754 1.247 . S
C745 O755 1.272 . S
O746 Co742 2.004 . S
O746 C751 1.259 . S
Co747 O748 2.061 . S
Co747 O753 2.052 . S
Co747 O755 2.135 . S
O748 Co747 2.061 . S
O748 C751 1.235 . S
C749 O752 1.238 . S
C749 O753 1.241 . S
C750 O743 1.247 . S
C750 O744 1.261 . S
C751 O746 1.259 . S
C751 O748 1.235 . S
O752 Co742 2.021 . S
O752 C749 1.238 . S
O753 Co747 2.052 . S
O753 C749 1.241 . S
O754 Co742 2.137 . S
O754 C745 1.247 . S
O755 Co742 2.244 . S
O755 C745 1.272 . S
O755 Co747 2.135 . S
Co756 O757 2.216 . S
Co756 O758 2.091 . S
Co756 O760 2.004 . S
Co756 O766 2.021 . S
Co756 O768 2.137 . S
Co756 O769 2.244 . S
O757 Co756 2.216 . S
O757 C764 1.247 . S
O758 Co756 2.091 . S
O758 C764 1.261 . S
C759 O768 1.247 . S
C759 O769 1.272 . S
O760 Co756 2.004 . S
O760 C765 1.259 . S
Co761 O762 2.061 . S
Co761 O767 2.052 . S
Co761 O769 2.135 . S
O762 Co761 2.061 . S
O762 C765 1.235 . S
C763 O766 1.238 . S
C763 O767 1.241 . S
C764 O757 1.247 . S
C764 O758 1.261 . S
C765 O760 1.259 . S
C765 O762 1.235 . S
O766 Co756 2.021 . S
O766 C763 1.238 . S
O767 Co761 2.052 . S
O767 C763 1.241 . S
O768 Co756 2.137 . S
O768 C759 1.247 . S
O769 Co756 2.244 . S
O769 C759 1.272 . S
O769 Co761 2.135 . S
Co770 O771 2.216 . S
Co770 O772 2.091 . S
Co770 O774 2.004 . S
Co770 O780 2.021 . S
Co770 O782 2.137 . S
Co770 O783 2.244 . S
O771 Co770 2.216 . S
O771 C778 1.247 . S
O772 Co770 2.091 . S
O772 C778 1.261 . S
C773 O782 1.247 . S
C773 O783 1.272 . S
O774 Co770 2.004 . S
O774 C779 1.259 . S
Co775 O776 2.061 . S
Co775 O781 2.052 . S
Co775 O783 2.135 . S
O776 Co775 2.061 . S
O776 C779 1.235 . S
C777 O780 1.238 . S
C777 O781 1.241 . S
C778 O771 1.247 . S
C778 O772 1.261 . S
C779 O774 1.259 . S
C779 O776 1.235 . S
O780 Co770 2.021 . S
O780 C777 1.238 . S
O781 Co775 2.052 . S
O781 C777 1.241 . S
O782 Co770 2.137 . S
O782 C773 1.247 . S
O783 Co770 2.244 . S
O783 C773 1.272 . S
O783 Co775 2.135 . S
Co784 O785 2.216 . S
Co784 O786 2.091 . S
Co784 O788 2.004 . S
Co784 O794 2.021 . S
Co784 O796 2.137 . S
Co784 O797 2.244 . S
O785 Co784 2.216 . S
O785 C792 1.247 . S
O786 Co784 2.091 . S
O786 C792 1.261 . S
C787 O796 1.247 . S
C787 O797 1.272 . S
O788 Co784 2.004 . S
O788 C793 1.259 . S
Co789 O790 2.061 . S
Co789 O795 2.052 . S
Co789 O797 2.135 . S
O790 Co789 2.061 . S
O790 C793 1.235 . S
C791 O794 1.238 . S
C791 O795 1.241 . S
C792 O785 1.247 . S
C792 O786 1.261 . S
C793 O788 1.259 . S
C793 O790 1.235 . S
O794 Co784 2.021 . S
O794 C791 1.238 . S
O795 Co789 2.052 . S
O795 C791 1.241 . S
O796 Co784 2.137 . S
O796 C787 1.247 . S
O797 Co784 2.244 . S
O797 C787 1.272 . S
O797 Co789 2.135 . S
Co798 O799 2.216 . S
Co798 O800 2.091 . S
Co798 O802 2.004 . S
Co798 O808 2.021 . S
Co798 O810 2.137 . S
Co798 O811 2.244 . S
O799 Co798 2.216 . S
O799 C806 1.247 . S
O800 Co798 2.091 . S
O800 C806 1.261 . S
C801 O810 1.247 . S
C801 O811 1.272 . S
O802 Co798 2.004 . S
O802 C807 1.259 . S
Co803 O804 2.061 . S
Co803 O809 2.052 . S
Co803 O811 2.135 . S
O804 Co803 2.061 . S
O804 C807 1.235 . S
C805 O808 1.238 . S
C805 O809 1.241 . S
C806 O799 1.247 . S
C806 O800 1.261 . S
C807 O802 1.259 . S
C807 O804 1.235 . S
O808 Co798 2.021 . S
O808 C805 1.238 . S
O809 Co803 2.052 . S
O809 C805 1.241 . S
O810 Co798 2.137 . S
O810 C801 1.247 . S
O811 Co798 2.244 . S
O811 C801 1.272 . S
O811 Co803 2.135 . S
Co812 O813 2.216 . S
Co812 O814 2.091 . S
Co812 O816 2.004 . S
Co812 O822 2.021 . S
Co812 O824 2.137 . S
Co812 O825 2.244 . S
O813 Co812 2.216 . S
O813 C820 1.247 . S
O814 Co812 2.091 . S
O814 C820 1.261 . S
C815 O824 1.247 . S
C815 O825 1.272 . S
O816 Co812 2.004 . S
O816 C821 1.259 . S
Co817 O818 2.061 . S
Co817 O823 2.052 . S
Co817 O825 2.135 . S
O818 Co817 2.061 . S
O818 C821 1.235 . S
C819 O822 1.238 . S
C819 O823 1.241 . S
C820 O813 1.247 . S
C820 O814 1.261 . S
C821 O816 1.259 . S
C821 O818 1.235 . S
O822 Co812 2.021 . S
O822 C819 1.238 . S
O823 Co817 2.052 . S
O823 C819 1.241 . S
O824 Co812 2.137 . S
O824 C815 1.247 . S
O825 Co812 2.244 . S
O825 C815 1.272 . S
O825 Co817 2.135 . S
Co826 O827 2.216 . S
Co826 O828 2.091 . S
Co826 O830 2.004 . S
Co826 O836 2.021 . S
Co826 O838 2.137 . S
Co826 O839 2.244 . S
O827 Co826 2.216 . S
O827 C834 1.247 . S
O828 Co826 2.091 . S
O828 C834 1.261 . S
C829 O838 1.247 . S
C829 O839 1.272 . S
O830 Co826 2.004 . S
O830 C835 1.259 . S
Co831 O832 2.061 . S
Co831 O837 2.052 . S
Co831 O839 2.135 . S
O832 Co831 2.061 . S
O832 C835 1.235 . S
C833 O836 1.238 . S
C833 O837 1.241 . S
C834 O827 1.247 . S
C834 O828 1.261 . S
C835 O830 1.259 . S
C835 O832 1.235 . S
O836 Co826 2.021 . S
O836 C833 1.238 . S
O837 Co831 2.052 . S
O837 C833 1.241 . S
O838 Co826 2.137 . S
O838 C829 1.247 . S
O839 Co826 2.244 . S
O839 C829 1.272 . S
O839 Co831 2.135 . S
Co840 O841 2.216 . S
Co840 O842 2.091 . S
Co840 O844 2.004 . S
Co840 O850 2.021 . S
Co840 O852 2.137 . S
Co840 O853 2.244 . S
O841 Co840 2.216 . S
O841 C848 1.247 . S
O842 Co840 2.091 . S
O842 C848 1.261 . S
C843 O852 1.247 . S
C843 O853 1.272 . S
O844 Co840 2.004 . S
O844 C849 1.259 . S
Co845 O846 2.061 . S
Co845 O851 2.052 . S
Co845 O853 2.135 . S
O846 Co845 2.061 . S
O846 C849 1.235 . S
C847 O850 1.238 . S
C847 O851 1.241 . S
C848 O841 1.247 . S
C848 O842 1.261 . S
C849 O844 1.259 . S
C849 O846 1.235 . S
O850 Co840 2.021 . S
O850 C847 1.238 . S
O851 Co845 2.052 . S
O851 C847 1.241 . S
O852 Co840 2.137 . S
O852 C843 1.247 . S
O853 Co840 2.244 . S
O853 C843 1.272 . S
O853 Co845 2.135 . S
Co854 O855 2.216 . S
Co854 O856 2.091 . S
Co854 O858 2.004 . S
Co854 O864 2.021 . S
Co854 O866 2.137 . S
Co854 O867 2.244 . S
O855 Co854 2.216 . S
O855 C862 1.247 . S
O856 Co854 2.091 . S
O856 C862 1.261 . S
C857 O866 1.247 . S
C857 O867 1.272 . S
O858 Co854 2.004 . S
O858 C863 1.259 . S
Co859 O860 2.061 . S
Co859 O865 2.052 . S
Co859 O867 2.135 . S
O860 Co859 2.061 . S
O860 C863 1.235 . S
C861 O864 1.238 . S
C861 O865 1.241 . S
C862 O855 1.247 . S
C862 O856 1.261 . S
C863 O858 1.259 . S
C863 O860 1.235 . S
O864 Co854 2.021 . S
O864 C861 1.238 . S
O865 Co859 2.052 . S
O865 C861 1.241 . S
O866 Co854 2.137 . S
O866 C857 1.247 . S
O867 Co854 2.244 . S
O867 C857 1.272 . S
O867 Co859 2.135 . S
Co868 O869 2.216 . S
Co868 O870 2.091 . S
Co868 O872 2.004 . S
Co868 O878 2.021 . S
Co868 O880 2.137 . S
Co868 O881 2.244 . S
O869 Co868 2.216 . S
O869 C876 1.247 . S
O870 Co868 2.091 . S
O870 C876 1.261 . S
C871 O880 1.247 . S
C871 O881 1.272 . S
O872 Co868 2.004 . S
O872 C877 1.259 . S
Co873 O874 2.061 . S
Co873 O879 2.052 . S
Co873 O881 2.135 . S
O874 Co873 2.061 . S
O874 C877 1.235 . S
C875 O878 1.238 . S
C875 O879 1.241 . S
C876 O869 1.247 . S
C876 O870 1.261 . S
C877 O872 1.259 . S
C877 O874 1.235 . S
O878 Co868 2.021 . S
O878 C875 1.238 . S
O879 Co873 2.052 . S
O879 C875 1.241 . S
O880 Co868 2.137 . S
O880 C871 1.247 . S
O881 Co868 2.244 . S
O881 C871 1.272 . S
O881 Co873 2.135 . S
Co882 O883 2.216 . S
Co882 O884 2.091 . S
Co882 O886 2.004 . S
Co882 O892 2.021 . S
Co882 O894 2.137 . S
Co882 O895 2.244 . S
O883 Co882 2.216 . S
O883 C890 1.247 . S
O884 Co882 2.091 . S
O884 C890 1.261 . S
C885 O894 1.247 . S
C885 O895 1.272 . S
O886 Co882 2.004 . S
O886 C891 1.259 . S
Co887 O888 2.061 . S
Co887 O893 2.052 . S
Co887 O895 2.135 . S
O888 Co887 2.061 . S
O888 C891 1.235 . S
C889 O892 1.238 . S
C889 O893 1.241 . S
C890 O883 1.247 . S
C890 O884 1.261 . S
C891 O886 1.259 . S
C891 O888 1.235 . S
O892 Co882 2.021 . S
O892 C889 1.238 . S
O893 Co887 2.052 . S
O893 C889 1.241 . S
O894 Co882 2.137 . S
O894 C885 1.247 . S
O895 Co882 2.244 . S
O895 C885 1.272 . S
O895 Co887 2.135 . S
Co896 O897 2.216 . S
Co896 O898 2.091 . S
Co896 O900 2.004 . S
Co896 O906 2.021 . S
Co896 O908 2.137 . S
Co896 O909 2.244 . S
O897 Co896 2.216 . S
O897 C904 1.247 . S
O898 Co896 2.091 . S
O898 C904 1.261 . S
C899 O908 1.247 . S
C899 O909 1.272 . S
O900 Co896 2.004 . S
O900 C905 1.259 . S
Co901 O902 2.061 . S
Co901 O907 2.052 . S
Co901 O909 2.135 . S
O902 Co901 2.061 . S
O902 C905 1.235 . S
C903 O906 1.238 . S
C903 O907 1.241 . S
C904 O897 1.247 . S
C904 O898 1.261 . S
C905 O900 1.259 . S
C905 O902 1.235 . S
O906 Co896 2.021 . S
O906 C903 1.238 . S
O907 Co901 2.052 . S
O907 C903 1.241 . S
O908 Co896 2.137 . S
O908 C899 1.247 . S
O909 Co896 2.244 . S
O909 C899 1.272 . S
O909 Co901 2.135 . S
Co910 O911 2.216 . S
Co910 O912 2.091 . S
Co910 O914 2.004 . S
Co910 O920 2.021 . S
Co910 O922 2.137 . S
Co910 O923 2.244 . S
O911 Co910 2.216 . S
O911 C918 1.247 . S
O912 Co910 2.091 . S
O912 C918 1.261 . S
C913 O922 1.247 . S
C913 O923 1.272 . S
O914 Co910 2.004 . S
O914 C919 1.259 . S
Co915 O916 2.061 . S
Co915 O921 2.052 . S
Co915 O923 2.135 . S
O916 Co915 2.061 . S
O916 C919 1.235 . S
C917 O920 1.238 . S
C917 O921 1.241 . S
C918 O911 1.247 . S
C918 O912 1.261 . S
C919 O914 1.259 . S
C919 O916 1.235 . S
O920 Co910 2.021 . S
O920 C917 1.238 . S
O921 Co915 2.052 . S
O921 C917 1.241 . S
O922 Co910 2.137 . S
O922 C913 1.247 . S
O923 Co910 2.244 . S
O923 C913 1.272 . S
O923 Co915 2.135 . S
Co924 O925 2.216 . S
Co924 O926 2.091 . S
Co924 O928 2.004 . S
Co924 O934 2.021 . S
Co924 O936 2.137 . S
Co924 O937 2.244 . S
O925 Co924 2.216 . S
O925 C932 1.247 . S
O926 Co924 2.091 . S
O926 C932 1.261 . S
C927 O936 1.247 . S
C927 O937 1.272 . S
O928 Co924 2.004 . S
O928 C933 1.259 . S
Co929 O930 2.061 . S
Co929 O935 2.052 . S
Co929 O937 2.135 . S
O930 Co929 2.061 . S
O930 C933 1.235 . S
C931 O934 1.238 . S
C931 O935 1.241 . S
C932 O925 1.247 . S
C932 O926 1.261 . S
C933 O928 1.259 . S
C933 O930 1.235 . S
O934 Co924 2.021 . S
O934 C931 1.238 . S
O935 Co929 2.052 . S
O935 C931 1.241 . S
O936 Co924 2.137 . S
O936 C927 1.247 . S
O937 Co924 2.244 . S
O937 C927 1.272 . S
O937 Co929 2.135 . S
Co938 O939 2.216 . S
Co938 O940 2.091 . S
Co938 O942 2.004 . S
Co938 O948 2.021 . S
Co938 O950 2.137 . S
Co938 O951 2.244 . S
O939 Co938 2.216 . S
O939 C946 1.247 . S
O940 Co938 2.091 . S
O940 C946 1.261 . S
C941 O950 1.247 . S
C941 O951 1.272 . S
O942 Co938 2.004 . S
O942 C947 1.259 . S
Co943 O944 2.061 . S
Co943 O949 2.052 . S
Co943 O951 2.135 . S
O944 Co943 2.061 . S
O944 C947 1.235 . S
C945 O948 1.238 . S
C945 O949 1.241 . S
C946 O939 1.247 . S
C946 O940 1.261 . S
C947 O942 1.259 . S
C947 O944 1.235 . S
O948 Co938 2.021 . S
O948 C945 1.238 . S
O949 Co943 2.052 . S
O949 C945 1.241 . S
O950 Co938 2.137 . S
O950 C941 1.247 . S
O951 Co938 2.244 . S
O951 C941 1.272 . S
O951 Co943 2.135 . S
Co952 O953 2.216 . S
Co952 O954 2.091 . S
Co952 O956 2.004 . S
Co952 O962 2.021 . S
Co952 O964 2.137 . S
Co952 O965 2.244 . S
O953 Co952 2.216 . S
O953 C960 1.247 . S
O954 Co952 2.091 . S
O954 C960 1.261 . S
C955 O964 1.247 . S
C955 O965 1.272 . S
O956 Co952 2.004 . S
O956 C961 1.259 . S
Co957 O958 2.061 . S
Co957 O963 2.052 . S
Co957 O965 2.135 . S
O958 Co957 2.061 . S
O958 C961 1.235 . S
C959 O962 1.238 . S
C959 O963 1.241 . S
C960 O953 1.247 . S
C960 O954 1.261 . S
C961 O956 1.259 . S
C961 O958 1.235 . S
O962 Co952 2.021 . S
O962 C959 1.238 . S
O963 Co957 2.052 . S
O963 C959 1.241 . S
O964 Co952 2.137 . S
O964 C955 1.247 . S
O965 Co952 2.244 . S
O965 C955 1.272 . S
O965 Co957 2.135 . S
Co966 O967 2.216 . S
Co966 O968 2.091 . S
Co966 O970 2.004 . S
Co966 O976 2.021 . S
Co966 O978 2.137 . S
Co966 O979 2.244 . S
O967 Co966 2.216 . S
O967 C974 1.247 . S
O968 Co966 2.091 . S
O968 C974 1.261 . S
C969 O978 1.247 . S
C969 O979 1.272 . S
O970 Co966 2.004 . S
O970 C975 1.259 . S
Co971 O972 2.061 . S
Co971 O977 2.052 . S
Co971 O979 2.135 . S
O972 Co971 2.061 . S
O972 C975 1.235 . S
C973 O976 1.238 . S
C973 O977 1.241 . S
C974 O967 1.247 . S
C974 O968 1.261 . S
C975 O970 1.259 . S
C975 O972 1.235 . S
O976 Co966 2.021 . S
O976 C973 1.238 . S
O977 Co971 2.052 . S
O977 C973 1.241 . S
O978 Co966 2.137 . S
O978 C969 1.247 . S
O979 Co966 2.244 . S
O979 C969 1.272 . S
O979 Co971 2.135 . S
Co980 O981 2.216 . S
Co980 O982 2.091 . S
Co980 O984 2.004 . S
Co980 O990 2.021 . S
Co980 O992 2.137 . S
Co980 O993 2.244 . S
O981 Co980 2.216 . S
O981 C988 1.247 . S
O982 Co980 2.091 . S
O982 C988 1.261 . S
C983 O992 1.247 . S
C983 O993 1.272 . S
O984 Co980 2.004 . S
O984 C989 1.259 . S
Co985 O986 2.061 . S
Co985 O991 2.052 . S
Co985 O993 2.135 . S
O986 Co985 2.061 . S
O986 C989 1.235 . S
C987 O990 1.238 . S
C987 O991 1.241 . S
C988 O981 1.247 . S
C988 O982 1.261 . S
C989 O984 1.259 . S
C989 O986 1.235 . S
O990 Co980 2.021 . S
O990 C987 1.238 . S
O991 Co985 2.052 . S
O991 C987 1.241 . S
O992 Co980 2.137 . S
O992 C983 1.247 . S
O993 Co980 2.244 . S
O993 C983 1.272 . S
O993 Co985 2.135 . S
Co994 O995 2.216 . S
Co994 O996 2.091 . S
Co994 O998 2.004 . S
Co994 O1004 2.021 . S
Co994 O1006 2.137 . S
Co994 O1007 2.244 . S
O995 Co994 2.216 . S
O995 C1002 1.247 . S
O996 Co994 2.091 . S
O996 C1002 1.261 . S
C997 O1006 1.247 . S
C997 O1007 1.272 . S
O998 Co994 2.004 . S
O998 C1003 1.259 . S
Co999 O1000 2.061 . S
Co999 O1005 2.052 . S
Co999 O1007 2.135 . S
O1000 Co999 2.061 . S
O1000 C1003 1.235 . S
C1001 O1004 1.238 . S
C1001 O1005 1.241 . S
C1002 O995 1.247 . S
C1002 O996 1.261 . S
C1003 O998 1.259 . S
C1003 O1000 1.235 . S
O1004 Co994 2.021 . S
O1004 C1001 1.238 . S
O1005 Co999 2.052 . S
O1005 C1001 1.241 . S
O1006 Co994 2.137 . S
O1006 C997 1.247 . S
O1007 Co994 2.244 . S
O1007 C997 1.272 . S
O1007 Co999 2.135 . S
Co1008 O1009 2.216 . S
Co1008 O1010 2.091 . S
Co1008 O1012 2.004 . S
Co1008 O1018 2.021 . S
Co1008 O1020 2.137 . S
Co1008 O1021 2.244 . S
O1009 Co1008 2.216 . S
O1009 C1016 1.247 . S
O1010 Co1008 2.091 . S
O1010 C1016 1.261 . S
C1011 O1020 1.247 . S
C1011 O1021 1.272 . S
O1012 Co1008 2.004 . S
O1012 C1017 1.259 . S
Co1013 O1014 2.061 . S
Co1013 O1019 2.052 . S
Co1013 O1021 2.135 . S
O1014 Co1013 2.061 . S
O1014 C1017 1.235 . S
C1015 O1018 1.238 . S
C1015 O1019 1.241 . S
C1016 O1009 1.247 . S
C1016 O1010 1.261 . S
C1017 O1012 1.259 . S
C1017 O1014 1.235 . S
O1018 Co1008 2.021 . S
O1018 C1015 1.238 . S
O1019 Co1013 2.052 . S
O1019 C1015 1.241 . S
O1020 Co1008 2.137 . S
O1020 C1011 1.247 . S
O1021 Co1008 2.244 . S
O1021 C1011 1.272 . S
O1021 Co1013 2.135 . S
Co1022 O1023 2.216 . S
Co1022 O1024 2.091 . S
Co1022 O1026 2.004 . S
Co1022 O1032 2.021 . S
Co1022 O1034 2.137 . S
Co1022 O1035 2.244 . S
O1023 Co1022 2.216 . S
O1023 C1030 1.247 . S
O1024 Co1022 2.091 . S
O1024 C1030 1.261 . S
C1025 O1034 1.247 . S
C1025 O1035 1.272 . S
O1026 Co1022 2.004 . S
O1026 C1031 1.259 . S
Co1027 O1028 2.061 . S
Co1027 O1033 2.052 . S
Co1027 O1035 2.135 . S
O1028 Co1027 2.061 . S
O1028 C1031 1.235 . S
C1029 O1032 1.238 . S
C1029 O1033 1.241 . S
C1030 O1023 1.247 . S
C1030 O1024 1.261 . S
C1031 O1026 1.259 . S
C1031 O1028 1.235 . S
O1032 Co1022 2.021 . S
O1032 C1029 1.238 . S
O1033 Co1027 2.052 . S
O1033 C1029 1.241 . S
O1034 Co1022 2.137 . S
O1034 C1025 1.247 . S
O1035 Co1022 2.244 . S
O1035 C1025 1.272 . S
O1035 Co1027 2.135 . S
Co1036 O1037 2.216 . S
Co1036 O1038 2.091 . S
Co1036 O1040 2.004 . S
Co1036 O1046 2.021 . S
Co1036 O1048 2.137 . S
Co1036 O1049 2.244 . S
O1037 Co1036 2.216 . S
O1037 C1044 1.247 . S
O1038 Co1036 2.091 . S
O1038 C1044 1.261 . S
C1039 O1048 1.247 . S
C1039 O1049 1.272 . S
O1040 Co1036 2.004 . S
O1040 C1045 1.259 . S
Co1041 O1042 2.061 . S
Co1041 O1047 2.052 . S
Co1041 O1049 2.135 . S
O1042 Co1041 2.061 . S
O1042 C1045 1.235 . S
C1043 O1046 1.238 . S
C1043 O1047 1.241 . S
C1044 O1037 1.247 . S
C1044 O1038 1.261 . S
C1045 O1040 1.259 . S
C1045 O1042 1.235 . S
O1046 Co1036 2.021 . S
O1046 C1043 1.238 . S
O1047 Co1041 2.052 . S
O1047 C1043 1.241 . S
O1048 Co1036 2.137 . S
O1048 C1039 1.247 . S
O1049 Co1036 2.244 . S
O1049 C1039 1.272 . S
O1049 Co1041 2.135 . S
Co1050 O1051 2.216 . S
Co1050 O1052 2.091 . S
Co1050 O1054 2.004 . S
Co1050 O1060 2.021 . S
Co1050 O1062 2.137 . S
Co1050 O1063 2.244 . S
O1051 Co1050 2.216 . S
O1051 C1058 1.247 . S
O1052 Co1050 2.091 . S
O1052 C1058 1.261 . S
C1053 O1062 1.247 . S
C1053 O1063 1.272 . S
O1054 Co1050 2.004 . S
O1054 C1059 1.259 . S
Co1055 O1056 2.061 . S
Co1055 O1061 2.052 . S
Co1055 O1063 2.135 . S
O1056 Co1055 2.061 . S
O1056 C1059 1.235 . S
C1057 O1060 1.238 . S
C1057 O1061 1.241 . S
C1058 O1051 1.247 . S
C1058 O1052 1.261 . S
C1059 O1054 1.259 . S
C1059 O1056 1.235 . S
O1060 Co1050 2.021 . S
O1060 C1057 1.238 . S
O1061 Co1055 2.052 . S
O1061 C1057 1.241 . S
O1062 Co1050 2.137 . S
O1062 C1053 1.247 . S
O1063 Co1050 2.244 . S
O1063 C1053 1.272 . S
O1063 Co1055 2.135 . S
Co1064 O1065 2.216 . S
Co1064 O1066 2.091 . S
Co1064 O1068 2.004 . S
Co1064 O1074 2.021 . S
Co1064 O1076 2.137 . S
Co1064 O1077 2.244 . S
O1065 Co1064 2.216 . S
O1065 C1072 1.247 . S
O1066 Co1064 2.091 . S
O1066 C1072 1.261 . S
C1067 O1076 1.247 . S
C1067 O1077 1.272 . S
O1068 Co1064 2.004 . S
O1068 C1073 1.259 . S
Co1069 O1070 2.061 . S
Co1069 O1075 2.052 . S
Co1069 O1077 2.135 . S
O1070 Co1069 2.061 . S
O1070 C1073 1.235 . S
C1071 O1074 1.238 . S
C1071 O1075 1.241 . S
C1072 O1065 1.247 . S
C1072 O1066 1.261 . S
C1073 O1068 1.259 . S
C1073 O1070 1.235 . S
O1074 Co1064 2.021 . S
O1074 C1071 1.238 . S
O1075 Co1069 2.052 . S
O1075 C1071 1.241 . S
O1076 Co1064 2.137 . S
O1076 C1067 1.247 . S
O1077 Co1064 2.244 . S
O1077 C1067 1.272 . S
O1077 Co1069 2.135 . S
Co1078 O1079 2.216 . S
Co1078 O1080 2.091 . S
Co1078 O1082 2.004 . S
Co1078 O1088 2.021 . S
Co1078 O1090 2.137 . S
Co1078 O1091 2.244 . S
O1079 Co1078 2.216 . S
O1079 C1086 1.247 . S
O1080 Co1078 2.091 . S
O1080 C1086 1.261 . S
C1081 O1090 1.247 . S
C1081 O1091 1.272 . S
O1082 Co1078 2.004 . S
O1082 C1087 1.259 . S
Co1083 O1084 2.061 . S
Co1083 O1089 2.052 . S
Co1083 O1091 2.135 . S
O1084 Co1083 2.061 . S
O1084 C1087 1.235 . S
C1085 O1088 1.238 . S
C1085 O1089 1.241 . S
C1086 O1079 1.247 . S
C1086 O1080 1.261 . S
C1087 O1082 1.259 . S
C1087 O1084 1.235 . S
O1088 Co1078 2.021 . S
O1088 C1085 1.238 . S
O1089 Co1083 2.052 . S
O1089 C1085 1.241 . S
O1090 Co1078 2.137 . S
O1090 C1081 1.247 . S
O1091 Co1078 2.244 . S
O1091 C1081 1.272 . S
O1091 Co1083 2.135 . S
Co1092 O1093 2.216 . S
Co1092 O1094 2.091 . S
Co1092 O1096 2.004 . S
Co1092 O1102 2.021 . S
Co1092 O1104 2.137 . S
Co1092 O1105 2.244 . S
O1093 Co1092 2.216 . S
O1093 C1100 1.247 . S
O1094 Co1092 2.091 . S
O1094 C1100 1.261 . S
C1095 O1104 1.247 . S
C1095 O1105 1.272 . S
O1096 Co1092 2.004 . S
O1096 C1101 1.259 . S
Co1097 O1098 2.061 . S
Co1097 O1103 2.052 . S
Co1097 O1105 2.135 . S
O1098 Co1097 2.061 . S
O1098 C1101 1.235 . S
C1099 O1102 1.238 . S
C1099 O1103 1.241 . S
C1100 O1093 1.247 . S
C1100 O1094 1.261 . S
C1101 O1096 1.259 . S
C1101 O1098 1.235 . S
O1102 Co1092 2.021 . S
O1102 C1099 1.238 . S
O1103 Co1097 2.052 . S
O1103 C1099 1.241 . S
O1104 Co1092 2.137 . S
O1104 C1095 1.247 . S
O1105 Co1092 2.244 . S
O1105 C1095 1.272 . S
O1105 Co1097 2.135 . S
Co1106 O1107 2.216 . S
Co1106 O1108 2.091 . S
Co1106 O1110 2.004 . S
Co1106 O1116 2.021 . S
Co1106 O1118 2.137 . S
Co1106 O1119 2.244 . S
O1107 Co1106 2.216 . S
O1107 C1114 1.247 . S
O1108 Co1106 2.091 . S
O1108 C1114 1.261 . S
C1109 O1118 1.247 . S
C1109 O1119 1.272 . S
O1110 Co1106 2.004 . S
O1110 C1115 1.259 . S
Co1111 O1112 2.061 . S
Co1111 O1117 2.052 . S
Co1111 O1119 2.135 . S
O1112 Co1111 2.061 . S
O1112 C1115 1.235 . S
C1113 O1116 1.238 . S
C1113 O1117 1.241 . S
C1114 O1107 1.247 . S
C1114 O1108 1.261 . S
C1115 O1110 1.259 . S
C1115 O1112 1.235 . S
O1116 Co1106 2.021 . S
O1116 C1113 1.238 . S
O1117 Co1111 2.052 . S
O1117 C1113 1.241 . S
O1118 Co1106 2.137 . S
O1118 C1109 1.247 . S
O1119 Co1106 2.244 . S
O1119 C1109 1.272 . S
O1119 Co1111 2.135 . S
Co1120 O1121 2.216 . S
Co1120 O1122 2.091 . S
Co1120 O1124 2.004 . S
Co1120 O1130 2.021 . S
Co1120 O1132 2.137 . S
Co1120 O1133 2.244 . S
O1121 Co1120 2.216 . S
O1121 C1128 1.247 . S
O1122 Co1120 2.091 . S
O1122 C1128 1.261 . S
C1123 O1132 1.247 . S
C1123 O1133 1.272 . S
O1124 Co1120 2.004 . S
O1124 C1129 1.259 . S
Co1125 O1126 2.061 . S
Co1125 O1131 2.052 . S
Co1125 O1133 2.135 . S
O1126 Co1125 2.061 . S
O1126 C1129 1.235 . S
C1127 O1130 1.238 . S
C1127 O1131 1.241 . S
C1128 O1121 1.247 . S
C1128 O1122 1.261 . S
C1129 O1124 1.259 . S
C1129 O1126 1.235 . S
O1130 Co1120 2.021 . S
O1130 C1127 1.238 . S
O1131 Co1125 2.052 . S
O1131 C1127 1.241 . S
O1132 Co1120 2.137 . S
O1132 C1123 1.247 . S
O1133 Co1120 2.244 . S
O1133 C1123 1.272 . S
O1133 Co1125 2.135 . S
Co1134 O1135 2.216 . S
Co1134 O1136 2.091 . S
Co1134 O1138 2.004 . S
Co1134 O1144 2.021 . S
Co1134 O1146 2.137 . S
Co1134 O1147 2.244 . S
O1135 Co1134 2.216 . S
O1135 C1142 1.247 . S
O1136 Co1134 2.091 . S
O1136 C1142 1.261 . S
C1137 O1146 1.247 . S
C1137 O1147 1.272 . S
O1138 Co1134 2.004 . S
O1138 C1143 1.259 . S
Co1139 O1140 2.061 . S
Co1139 O1145 2.052 . S
Co1139 O1147 2.135 . S
O1140 Co1139 2.061 . S
O1140 C1143 1.235 . S
C1141 O1144 1.238 . S
C1141 O1145 1.241 . S
C1142 O1135 1.247 . S
C1142 O1136 1.261 . S
C1143 O1138 1.259 . S
C1143 O1140 1.235 . S
O1144 Co1134 2.021 . S
O1144 C1141 1.238 . S
O1145 Co1139 2.052 . S
O1145 C1141 1.241 . S
O1146 Co1134 2.137 . S
O1146 C1137 1.247 . S
O1147 Co1134 2.244 . S
O1147 C1137 1.272 . S
O1147 Co1139 2.135 . S
Co1148 O1149 2.216 . S
Co1148 O1150 2.091 . S
Co1148 O1152 2.004 . S
Co1148 O1158 2.021 . S
Co1148 O1160 2.137 . S
Co1148 O1161 2.244 . S
O1149 Co1148 2.216 . S
O1149 C1156 1.247 . S
O1150 Co1148 2.091 . S
O1150 C1156 1.261 . S
C1151 O1160 1.247 . S
C1151 O1161 1.272 . S
O1152 Co1148 2.004 . S
O1152 C1157 1.259 . S
Co1153 O1154 2.061 . S
Co1153 O1159 2.052 . S
Co1153 O1161 2.135 . S
O1154 Co1153 2.061 . S
O1154 C1157 1.235 . S
C1155 O1158 1.238 . S
C1155 O1159 1.241 . S
C1156 O1149 1.247 . S
C1156 O1150 1.261 . S
C1157 O1152 1.259 . S
C1157 O1154 1.235 . S
O1158 Co1148 2.021 . S
O1158 C1155 1.238 . S
O1159 Co1153 2.052 . S
O1159 C1155 1.241 . S
O1160 Co1148 2.137 . S
O1160 C1151 1.247 . S
O1161 Co1148 2.244 . S
O1161 C1151 1.272 . S
O1161 Co1153 2.135 . S
Co1162 O1163 2.216 . S
Co1162 O1164 2.091 . S
Co1162 O1166 2.004 . S
Co1162 O1172 2.021 . S
Co1162 O1174 2.137 . S
Co1162 O1175 2.244 . S
O1163 Co1162 2.216 . S
O1163 C1170 1.247 . S
O1164 Co1162 2.091 . S
O1164 C1170 1.261 . S
C1165 O1174 1.247 . S
C1165 O1175 1.272 . S
O1166 Co1162 2.004 . S
O1166 C1171 1.259 . S
Co1167 O1168 2.061 . S
Co1167 O1173 2.052 . S
Co1167 O1175 2.135 . S
O1168 Co1167 2.061 . S
O1168 C1171 1.235 . S
C1169 O1172 1.238 . S
C1169 O1173 1.241 . S
C1170 O1163 1.247 . S
C1170 O1164 1.261 . S
C1171 O1166 1.259 . S
C1171 O1168 1.235 . S
O1172 Co1162 2.021 . S
O1172 C1169 1.238 . S
O1173 Co1167 2.052 . S
O1173 C1169 1.241 . S
O1174 Co1162 2.137 . S
O1174 C1165 1.247 . S
O1175 Co1162 2.244 . S
O1175 C1165 1.272 . S
O1175 Co1167 2.135 . S
Co1176 O1177 2.216 . S
Co1176 O1178 2.091 . S
Co1176 O1180 2.004 . S
Co1176 O1186 2.021 . S
Co1176 O1188 2.137 . S
Co1176 O1189 2.244 . S
O1177 Co1176 2.216 . S
O1177 C1184 1.247 . S
O1178 Co1176 2.091 . S
O1178 C1184 1.261 . S
C1179 O1188 1.247 . S
C1179 O1189 1.272 . S
O1180 Co1176 2.004 . S
O1180 C1185 1.259 . S
Co1181 O1182 2.061 . S
Co1181 O1187 2.052 . S
Co1181 O1189 2.135 . S
O1182 Co1181 2.061 . S
O1182 C1185 1.235 . S
C1183 O1186 1.238 . S
C1183 O1187 1.241 . S
C1184 O1177 1.247 . S
C1184 O1178 1.261 . S
C1185 O1180 1.259 . S
C1185 O1182 1.235 . S
O1186 Co1176 2.021 . S
O1186 C1183 1.238 . S
O1187 Co1181 2.052 . S
O1187 C1183 1.241 . S
O1188 Co1176 2.137 . S
O1188 C1179 1.247 . S
O1189 Co1176 2.244 . S
O1189 C1179 1.272 . S
O1189 Co1181 2.135 . S
Co1190 O1191 2.216 . S
Co1190 O1192 2.091 . S
Co1190 O1194 2.004 . S
Co1190 O1200 2.021 . S
Co1190 O1202 2.137 . S
Co1190 O1203 2.244 . S
O1191 Co1190 2.216 . S
O1191 C1198 1.247 . S
O1192 Co1190 2.091 . S
O1192 C1198 1.261 . S
C1193 O1202 1.247 . S
C1193 O1203 1.272 . S
O1194 Co1190 2.004 . S
O1194 C1199 1.259 . S
Co1195 O1196 2.061 . S
Co1195 O1201 2.052 . S
Co1195 O1203 2.135 . S
O1196 Co1195 2.061 . S
O1196 C1199 1.235 . S
C1197 O1200 1.238 . S
C1197 O1201 1.241 . S
C1198 O1191 1.247 . S
C1198 O1192 1.261 . S
C1199 O1194 1.259 . S
C1199 O1196 1.235 . S
O1200 Co1190 2.021 . S
O1200 C1197 1.238 . S
O1201 Co1195 2.052 . S
O1201 C1197 1.241 . S
O1202 Co1190 2.137 . S
O1202 C1193 1.247 . S
O1203 Co1190 2.244 . S
O1203 C1193 1.272 . S
O1203 Co1195 2.135 . S
Co1204 O1205 2.216 . S
Co1204 O1206 2.091 . S
Co1204 O1208 2.004 . S
Co1204 O1214 2.021 . S
Co1204 O1216 2.137 . S
Co1204 O1217 2.244 . S
O1205 Co1204 2.216 . S
O1205 C1212 1.247 . S
O1206 Co1204 2.091 . S
O1206 C1212 1.261 . S
C1207 O1216 1.247 . S
C1207 O1217 1.272 . S
O1208 Co1204 2.004 . S
O1208 C1213 1.259 . S
Co1209 O1210 2.061 . S
Co1209 O1215 2.052 . S
Co1209 O1217 2.135 . S
O1210 Co1209 2.061 . S
O1210 C1213 1.235 . S
C1211 O1214 1.238 . S
C1211 O1215 1.241 . S
C1212 O1205 1.247 . S
C1212 O1206 1.261 . S
C1213 O1208 1.259 . S
C1213 O1210 1.235 . S
O1214 Co1204 2.021 . S
O1214 C1211 1.238 . S
O1215 Co1209 2.052 . S
O1215 C1211 1.241 . S
O1216 Co1204 2.137 . S
O1216 C1207 1.247 . S
O1217 Co1204 2.244 . S
O1217 C1207 1.272 . S
O1217 Co1209 2.135 . S
Co1218 O1219 2.216 . S
Co1218 O1220 2.091 . S
Co1218 O1222 2.004 . S
Co1218 O1228 2.021 . S
Co1218 O1230 2.137 . S
Co1218 O1231 2.244 . S
O1219 Co1218 2.216 . S
O1219 C1226 1.247 . S
O1220 Co1218 2.091 . S
O1220 C1226 1.261 . S
C1221 O1230 1.247 . S
C1221 O1231 1.272 . S
O1222 Co1218 2.004 . S
O1222 C1227 1.259 . S
Co1223 O1224 2.061 . S
Co1223 O1229 2.052 . S
Co1223 O1231 2.135 . S
O1224 Co1223 2.061 . S
O1224 C1227 1.235 . S
C1225 O1228 1.238 . S
C1225 O1229 1.241 . S
C1226 O1219 1.247 . S
C1226 O1220 1.261 . S
C1227 O1222 1.259 . S
C1227 O1224 1.235 . S
O1228 Co1218 2.021 . S
O1228 C1225 1.238 . S
O1229 Co1223 2.052 . S
O1229 C1225 1.241 . S
O1230 Co1218 2.137 . S
O1230 C1221 1.247 . S
O1231 Co1218 2.244 . S
O1231 C1221 1.272 . S
O1231 Co1223 2.135 . S
Co1232 O1233 2.216 . S
Co1232 O1234 2.091 . S
Co1232 O1236 2.004 . S
Co1232 O1242 2.021 . S
Co1232 O1244 2.137 . S
Co1232 O1245 2.244 . S
O1233 Co1232 2.216 . S
O1233 C1240 1.247 . S
O1234 Co1232 2.091 . S
O1234 C1240 1.261 . S
C1235 O1244 1.247 . S
C1235 O1245 1.272 . S
O1236 Co1232 2.004 . S
O1236 C1241 1.259 . S
Co1237 O1238 2.061 . S
Co1237 O1243 2.052 . S
Co1237 O1245 2.135 . S
O1238 Co1237 2.061 . S
O1238 C1241 1.235 . S
C1239 O1242 1.238 . S
C1239 O1243 1.241 . S
C1240 O1233 1.247 . S
C1240 O1234 1.261 . S
C1241 O1236 1.259 . S
C1241 O1238 1.235 . S
O1242 Co1232 2.021 . S
O1242 C1239 1.238 . S
O1243 Co1237 2.052 . S
O1243 C1239 1.241 . S
O1244 Co1232 2.137 . S
O1244 C1235 1.247 . S
O1245 Co1232 2.244 . S
O1245 C1235 1.272 . S
O1245 Co1237 2.135 . S
Co1246 O1247 2.216 . S
Co1246 O1248 2.091 . S
Co1246 O1250 2.004 . S
Co1246 O1256 2.021 . S
Co1246 O1258 2.137 . S
Co1246 O1259 2.244 . S
O1247 Co1246 2.216 . S
O1247 C1254 1.247 . S
O1248 Co1246 2.091 . S
O1248 C1254 1.261 . S
C1249 O1258 1.247 . S
C1249 O1259 1.272 . S
O1250 Co1246 2.004 . S
O1250 C1255 1.259 . S
Co1251 O1252 2.061 . S
Co1251 O1257 2.052 . S
Co1251 O1259 2.135 . S
O1252 Co1251 2.061 . S
O1252 C1255 1.235 . S
C1253 O1256 1.238 . S
C1253 O1257 1.241 . S
C1254 O1247 1.247 . S
C1254 O1248 1.261 . S
C1255 O1250 1.259 . S
C1255 O1252 1.235 . S
O1256 Co1246 2.021 . S
O1256 C1253 1.238 . S
O1257 Co1251 2.052 . S
O1257 C1253 1.241 . S
O1258 Co1246 2.137 . S
O1258 C1249 1.247 . S
O1259 Co1246 2.244 . S
O1259 C1249 1.272 . S
O1259 Co1251 2.135 . S
Co1260 O1261 2.216 . S
Co1260 O1262 2.091 . S
Co1260 O1264 2.004 . S
Co1260 O1270 2.021 . S
Co1260 O1272 2.137 . S
Co1260 O1273 2.244 . S
O1261 Co1260 2.216 . S
O1261 C1268 1.247 . S
O1262 Co1260 2.091 . S
O1262 C1268 1.261 . S
C1263 O1272 1.247 . S
C1263 O1273 1.272 . S
O1264 Co1260 2.004 . S
O1264 C1269 1.259 . S
Co1265 O1266 2.061 . S
Co1265 O1271 2.052 . S
Co1265 O1273 2.135 . S
O1266 Co1265 2.061 . S
O1266 C1269 1.235 . S
C1267 O1270 1.238 . S
C1267 O1271 1.241 . S
C1268 O1261 1.247 . S
C1268 O1262 1.261 . S
C1269 O1264 1.259 . S
C1269 O1266 1.235 . S
O1270 Co1260 2.021 . S
O1270 C1267 1.238 . S
O1271 Co1265 2.052 . S
O1271 C1267 1.241 . S
O1272 Co1260 2.137 . S
O1272 C1263 1.247 . S
O1273 Co1260 2.244 . S
O1273 C1263 1.272 . S
O1273 Co1265 2.135 . S
Co1274 O1275 2.216 . S
Co1274 O1276 2.091 . S
Co1274 O1278 2.004 . S
Co1274 O1284 2.021 . S
Co1274 O1286 2.137 . S
Co1274 O1287 2.244 . S
O1275 Co1274 2.216 . S
O1275 C1282 1.247 . S
O1276 Co1274 2.091 . S
O1276 C1282 1.261 . S
C1277 O1286 1.247 . S
C1277 O1287 1.272 . S
O1278 Co1274 2.004 . S
O1278 C1283 1.259 . S
Co1279 O1280 2.061 . S
Co1279 O1285 2.052 . S
Co1279 O1287 2.135 . S
O1280 Co1279 2.061 . S
O1280 C1283 1.235 . S
C1281 O1284 1.238 . S
C1281 O1285 1.241 . S
C1282 O1275 1.247 . S
C1282 O1276 1.261 . S
C1283 O1278 1.259 . S
C1283 O1280 1.235 . S
O1284 Co1274 2.021 . S
O1284 C1281 1.238 . S
O1285 Co1279 2.052 . S
O1285 C1281 1.241 . S
O1286 Co1274 2.137 . S
O1286 C1277 1.247 . S
O1287 Co1274 2.244 . S
O1287 C1277 1.272 . S
O1287 Co1279 2.135 . S
Co1288 O1289 2.216 . S
Co1288 O1290 2.091 . S
Co1288 O1292 2.004 . S
Co1288 O1298 2.021 . S
Co1288 O1300 2.137 . S
Co1288 O1301 2.244 . S
O1289 Co1288 2.216 . S
O1289 C1296 1.247 . S
O1290 Co1288 2.091 . S
O1290 C1296 1.261 . S
C1291 O1300 1.247 . S
C1291 O1301 1.272 . S
O1292 Co1288 2.004 . S
O1292 C1297 1.259 . S
Co1293 O1294 2.061 . S
Co1293 O1299 2.052 . S
Co1293 O1301 2.135 . S
O1294 Co1293 2.061 . S
O1294 C1297 1.235 . S
C1295 O1298 1.238 . S
C1295 O1299 1.241 . S
C1296 O1289 1.247 . S
C1296 O1290 1.261 . S
C1297 O1292 1.259 . S
C1297 O1294 1.235 . S
O1298 Co1288 2.021 . S
O1298 C1295 1.238 . S
O1299 Co1293 2.052 . S
O1299 C1295 1.241 . S
O1300 Co1288 2.137 . S
O1300 C1291 1.247 . S
O1301 Co1288 2.244 . S
O1301 C1291 1.272 . S
O1301 Co1293 2.135 . S
Co1302 O1303 2.216 . S
Co1302 O1304 2.091 . S
Co1302 O1306 2.004 . S
Co1302 O1312 2.021 . S
Co1302 O1314 2.137 . S
Co1302 O1315 2.244 . S
O1303 Co1302 2.216 . S
O1303 C1310 1.247 . S
O1304 Co1302 2.091 . S
O1304 C1310 1.261 . S
C1305 O1314 1.247 . S
C1305 O1315 1.272 . S
O1306 Co1302 2.004 . S
O1306 C1311 1.259 . S
Co1307 O1308 2.061 . S
Co1307 O1313 2.052 . S
Co1307 O1315 2.135 . S
O1308 Co1307 2.061 . S
O1308 C1311 1.235 . S
C1309 O1312 1.238 . S
C1309 O1313 1.241 . S
C1310 O1303 1.247 . S
C1310 O1304 1.261 . S
C1311 O1306 1.259 . S
C1311 O1308 1.235 . S
O1312 Co1302 2.021 . S
O1312 C1309 1.238 . S
O1313 Co1307 2.052 . S
O1313 C1309 1.241 . S
O1314 Co1302 2.137 . S
O1314 C1305 1.247 . S
O1315 Co1302 2.244 . S
O1315 C1305 1.272 . S
O1315 Co1307 2.135 . S
Co1316 O1317 2.216 . S
Co1316 O1318 2.091 . S
Co1316 O1320 2.004 . S
Co1316 O1326 2.021 . S
Co1316 O1328 2.137 . S
Co1316 O1329 2.244 . S
O1317 Co1316 2.216 . S
O1317 C1324 1.247 . S
O1318 Co1316 2.091 . S
O1318 C1324 1.261 . S
C1319 O1328 1.247 . S
C1319 O1329 1.272 . S
O1320 Co1316 2.004 . S
O1320 C1325 1.259 . S
Co1321 O1322 2.061 . S
Co1321 O1327 2.052 . S
Co1321 O1329 2.135 . S
O1322 Co1321 2.061 . S
O1322 C1325 1.235 . S
C1323 O1326 1.238 . S
C1323 O1327 1.241 . S
C1324 O1317 1.247 . S
C1324 O1318 1.261 . S
C1325 O1320 1.259 . S
C1325 O1322 1.235 . S
O1326 Co1316 2.021 . S
O1326 C1323 1.238 . S
O1327 Co1321 2.052 . S
O1327 C1323 1.241 . S
O1328 Co1316 2.137 . S
O1328 C1319 1.247 . S
O1329 Co1316 2.244 . S
O1329 C1319 1.272 . S
O1329 Co1321 2.135 . S
Co1330 O1331 2.216 . S
Co1330 O1332 2.091 . S
Co1330 O1334 2.004 . S
Co1330 O1340 2.021 . S
Co1330 O1342 2.137 . S
Co1330 O1343 2.244 . S
O1331 Co1330 2.216 . S
O1331 C1338 1.247 . S
O1332 Co1330 2.091 . S
O1332 C1338 1.261 . S
C1333 O1342 1.247 . S
C1333 O1343 1.272 . S
O1334 Co1330 2.004 . S
O1334 C1339 1.259 . S
Co1335 O1336 2.061 . S
Co1335 O1341 2.052 . S
Co1335 O1343 2.135 . S
O1336 Co1335 2.061 . S
O1336 C1339 1.235 . S
C1337 O1340 1.238 . S
C1337 O1341 1.241 . S
C1338 O1331 1.247 . S
C1338 O1332 1.261 . S
C1339 O1334 1.259 . S
C1339 O1336 1.235 . S
O1340 Co1330 2.021 . S
O1340 C1337 1.238 . S
O1341 Co1335 2.052 . S
O1341 C1337 1.241 . S
O1342 Co1330 2.137 . S
O1342 C1333 1.247 . S
O1343 Co1330 2.244 . S
O1343 C1333 1.272 . S
O1343 Co1335 2.135 . S
Co1344 O1345 2.216 . S
Co1344 O1346 2.091 . S
Co1344 O1348 2.004 . S
Co1344 O1354 2.021 . S
Co1344 O1356 2.137 . S
Co1344 O1357 2.244 . S
O1345 Co1344 2.216 . S
O1345 C1352 1.247 . S
O1346 Co1344 2.091 . S
O1346 C1352 1.261 . S
C1347 O1356 1.247 . S
C1347 O1357 1.272 . S
O1348 Co1344 2.004 . S
O1348 C1353 1.259 . S
Co1349 O1350 2.061 . S
Co1349 O1355 2.052 . S
Co1349 O1357 2.135 . S
O1350 Co1349 2.061 . S
O1350 C1353 1.235 . S
C1351 O1354 1.238 . S
C1351 O1355 1.241 . S
C1352 O1345 1.247 . S
C1352 O1346 1.261 . S
C1353 O1348 1.259 . S
C1353 O1350 1.235 . S
O1354 Co1344 2.021 . S
O1354 C1351 1.238 . S
O1355 Co1349 2.052 . S
O1355 C1351 1.241 . S
O1356 Co1344 2.137 . S
O1356 C1347 1.247 . S
O1357 Co1344 2.244 . S
O1357 C1347 1.272 . S
O1357 Co1349 2.135 . S
Co1358 O1359 2.216 . S
Co1358 O1360 2.091 . S
Co1358 O1362 2.004 . S
Co1358 O1368 2.021 . S
Co1358 O1370 2.137 . S
Co1358 O1371 2.244 . S
O1359 Co1358 2.216 . S
O1359 C1366 1.247 . S
O1360 Co1358 2.091 . S
O1360 C1366 1.261 . S
C1361 O1370 1.247 . S
C1361 O1371 1.272 . S
O1362 Co1358 2.004 . S
O1362 C1367 1.259 . S
Co1363 O1364 2.061 . S
Co1363 O1369 2.052 . S
Co1363 O1371 2.135 . S
O1364 Co1363 2.061 . S
O1364 C1367 1.235 . S
C1365 O1368 1.238 . S
C1365 O1369 1.241 . S
C1366 O1359 1.247 . S
C1366 O1360 1.261 . S
C1367 O1362 1.259 . S
C1367 O1364 1.235 . S
O1368 Co1358 2.021 . S
O1368 C1365 1.238 . S
O1369 Co1363 2.052 . S
O1369 C1365 1.241 . S
O1370 Co1358 2.137 . S
O1370 C1361 1.247 . S
O1371 Co1358 2.244 . S
O1371 C1361 1.272 . S
O1371 Co1363 2.135 . S
Co1372 O1373 2.216 . S
Co1372 O1374 2.091 . S
Co1372 O1376 2.004 . S
Co1372 O1382 2.021 . S
Co1372 O1384 2.137 . S
Co1372 O1385 2.244 . S
O1373 Co1372 2.216 . S
O1373 C1380 1.247 . S
O1374 Co1372 2.091 . S
O1374 C1380 1.261 . S
C1375 O1384 1.247 . S
C1375 O1385 1.272 . S
O1376 Co1372 2.004 . S
O1376 C1381 1.259 . S
Co1377 O1378 2.061 . S
Co1377 O1383 2.052 . S
Co1377 O1385 2.135 . S
O1378 Co1377 2.061 . S
O1378 C1381 1.235 . S
C1379 O1382 1.238 . S
C1379 O1383 1.241 . S
C1380 O1373 1.247 . S
C1380 O1374 1.261 . S
C1381 O1376 1.259 . S
C1381 O1378 1.235 . S
O1382 Co1372 2.021 . S
O1382 C1379 1.238 . S
O1383 Co1377 2.052 . S
O1383 C1379 1.241 . S
O1384 Co1372 2.137 . S
O1384 C1375 1.247 . S
O1385 Co1372 2.244 . S
O1385 C1375 1.272 . S
O1385 Co1377 2.135 . S
Co1386 O1387 2.216 . S
Co1386 O1388 2.091 . S
Co1386 O1390 2.004 . S
Co1386 O1396 2.021 . S
Co1386 O1398 2.137 . S
Co1386 O1399 2.244 . S
O1387 Co1386 2.216 . S
O1387 C1394 1.247 . S
O1388 Co1386 2.091 . S
O1388 C1394 1.261 . S
C1389 O1398 1.247 . S
C1389 O1399 1.272 . S
O1390 Co1386 2.004 . S
O1390 C1395 1.259 . S
Co1391 O1392 2.061 . S
Co1391 O1397 2.052 . S
Co1391 O1399 2.135 . S
O1392 Co1391 2.061 . S
O1392 C1395 1.235 . S
C1393 O1396 1.238 . S
C1393 O1397 1.241 . S
C1394 O1387 1.247 . S
C1394 O1388 1.261 . S
C1395 O1390 1.259 . S
C1395 O1392 1.235 . S
O1396 Co1386 2.021 . S
O1396 C1393 1.238 . S
O1397 Co1391 2.052 . S
O1397 C1393 1.241 . S
O1398 Co1386 2.137 . S
O1398 C1389 1.247 . S
O1399 Co1386 2.244 . S
O1399 C1389 1.272 . S
O1399 Co1391 2.135 . S
Co1400 O1401 2.216 . S
Co1400 O1402 2.091 . S
Co1400 O1404 2.004 . S
Co1400 O1410 2.021 . S
Co1400 O1412 2.137 . S
Co1400 O1413 2.244 . S
O1401 Co1400 2.216 . S
O1401 C1408 1.247 . S
O1402 Co1400 2.091 . S
O1402 C1408 1.261 . S
C1403 O1412 1.247 . S
C1403 O1413 1.272 . S
O1404 Co1400 2.004 . S
O1404 C1409 1.259 . S
Co1405 O1406 2.061 . S
Co1405 O1411 2.052 . S
Co1405 O1413 2.135 . S
O1406 Co1405 2.061 . S
O1406 C1409 1.235 . S
C1407 O1410 1.238 . S
C1407 O1411 1.241 . S
C1408 O1401 1.247 . S
C1408 O1402 1.261 . S
C1409 O1404 1.259 . S
C1409 O1406 1.235 . S
O1410 Co1400 2.021 . S
O1410 C1407 1.238 . S
O1411 Co1405 2.052 . S
O1411 C1407 1.241 . S
O1412 Co1400 2.137 . S
O1412 C1403 1.247 . S
O1413 Co1400 2.244 . S
O1413 C1403 1.272 . S
O1413 Co1405 2.135 . S
Co1414 O1415 2.216 . S
Co1414 O1416 2.091 . S
Co1414 O1418 2.004 . S
Co1414 O1424 2.021 . S
Co1414 O1426 2.137 . S
Co1414 O1427 2.244 . S
O1415 Co1414 2.216 . S
O1415 C1422 1.247 . S
O1416 Co1414 2.091 . S
O1416 C1422 1.261 . S
C1417 O1426 1.247 . S
C1417 O1427 1.272 . S
O1418 Co1414 2.004 . S
O1418 C1423 1.259 . S
Co1419 O1420 2.061 . S
Co1419 O1425 2.052 . S
Co1419 O1427 2.135 . S
O1420 Co1419 2.061 . S
O1420 C1423 1.235 . S
C1421 O1424 1.238 . S
C1421 O1425 1.241 . S
C1422 O1415 1.247 . S
C1422 O1416 1.261 . S
C1423 O1418 1.259 . S
C1423 O1420 1.235 . S
O1424 Co1414 2.021 . S
O1424 C1421 1.238 . S
O1425 Co1419 2.052 . S
O1425 C1421 1.241 . S
O1426 Co1414 2.137 . S
O1426 C1417 1.247 . S
O1427 Co1414 2.244 . S
O1427 C1417 1.272 . S
O1427 Co1419 2.135 . S
Co1428 O1429 2.216 . S
Co1428 O1430 2.091 . S
Co1428 O1432 2.004 . S
Co1428 O1438 2.021 . S
Co1428 O1440 2.137 . S
Co1428 O1441 2.244 . S
O1429 Co1428 2.216 . S
O1429 C1436 1.247 . S
O1430 Co1428 2.091 . S
O1430 C1436 1.261 . S
C1431 O1440 1.247 . S
C1431 O1441 1.272 . S
O1432 Co1428 2.004 . S
O1432 C1437 1.259 . S
Co1433 O1434 2.061 . S
Co1433 O1439 2.052 . S
Co1433 O1441 2.135 . S
O1434 Co1433 2.061 . S
O1434 C1437 1.235 . S
C1435 O1438 1.238 . S
C1435 O1439 1.241 . S
C1436 O1429 1.247 . S
C1436 O1430 1.261 . S
C1437 O1432 1.259 . S
C1437 O1434 1.235 . S
O1438 Co1428 2.021 . S
O1438 C1435 1.238 . S
O1439 Co1433 2.052 . S
O1439 C1435 1.241 . S
O1440 Co1428 2.137 . S
O1440 C1431 1.247 . S
O1441 Co1428 2.244 . S
O1441 C1431 1.272 . S
O1441 Co1433 2.135 . S
Co1442 O1443 2.216 . S
Co1442 O1444 2.091 . S
Co1442 O1446 2.004 . S
Co1442 O1452 2.021 . S
Co1442 O1454 2.137 . S
Co1442 O1455 2.244 . S
O1443 Co1442 2.216 . S
O1443 C1450 1.247 . S
O1444 Co1442 2.091 . S
O1444 C1450 1.261 . S
C1445 O1454 1.247 . S
C1445 O1455 1.272 . S
O1446 Co1442 2.004 . S
O1446 C1451 1.259 . S
Co1447 O1448 2.061 . S
Co1447 O1453 2.052 . S
Co1447 O1455 2.135 . S
O1448 Co1447 2.061 . S
O1448 C1451 1.235 . S
C1449 O1452 1.238 . S
C1449 O1453 1.241 . S
C1450 O1443 1.247 . S
C1450 O1444 1.261 . S
C1451 O1446 1.259 . S
C1451 O1448 1.235 . S
O1452 Co1442 2.021 . S
O1452 C1449 1.238 . S
O1453 Co1447 2.052 . S
O1453 C1449 1.241 . S
O1454 Co1442 2.137 . S
O1454 C1445 1.247 . S
O1455 Co1442 2.244 . S
O1455 C1445 1.272 . S
O1455 Co1447 2.135 . S
Co1456 O1457 2.216 . S
Co1456 O1458 2.091 . S
Co1456 O1460 2.004 . S
Co1456 O1466 2.021 . S
Co1456 O1468 2.137 . S
Co1456 O1469 2.244 . S
O1457 Co1456 2.216 . S
O1457 C1464 1.247 . S
O1458 Co1456 2.091 . S
O1458 C1464 1.261 . S
C1459 O1468 1.247 . S
C1459 O1469 1.272 . S
O1460 Co1456 2.004 . S
O1460 C1465 1.259 . S
Co1461 O1462 2.061 . S
Co1461 O1467 2.052 . S
Co1461 O1469 2.135 . S
O1462 Co1461 2.061 . S
O1462 C1465 1.235 . S
C1463 O1466 1.238 . S
C1463 O1467 1.241 . S
C1464 O1457 1.247 . S
C1464 O1458 1.261 . S
C1465 O1460 1.259 . S
C1465 O1462 1.235 . S
O1466 Co1456 2.021 . S
O1466 C1463 1.238 . S
O1467 Co1461 2.052 . S
O1467 C1463 1.241 . S
O1468 Co1456 2.137 . S
O1468 C1459 1.247 . S
O1469 Co1456 2.244 . S
O1469 C1459 1.272 . S
O1469 Co1461 2.135 . S
Co1470 O1471 2.216 . S
Co1470 O1472 2.091 . S
Co1470 O1474 2.004 . S
Co1470 O1480 2.021 . S
Co1470 O1482 2.137 . S
Co1470 O1483 2.244 . S
O1471 Co1470 2.216 . S
O1471 C1478 1.247 . S
O1472 Co1470 2.091 . S
O1472 C1478 1.261 . S
C1473 O1482 1.247 . S
C1473 O1483 1.272 . S
O1474 Co1470 2.004 . S
O1474 C1479 1.259 . S
Co1475 O1476 2.061 . S
Co1475 O1481 2.052 . S
Co1475 O1483 2.135 . S
O1476 Co1475 2.061 . S
O1476 C1479 1.235 . S
C1477 O1480 1.238 . S
C1477 O1481 1.241 . S
C1478 O1471 1.247 . S
C1478 O1472 1.261 . S
C1479 O1474 1.259 . S
C1479 O1476 1.235 . S
O1480 Co1470 2.021 . S
O1480 C1477 1.238 . S
O1481 Co1475 2.052 . S
O1481 C1477 1.241 . S
O1482 Co1470 2.137 . S
O1482 C1473 1.247 . S
O1483 Co1470 2.244 . S
O1483 C1473 1.272 . S
O1483 Co1475 2.135 . S
Co1484 O1485 2.216 . S
Co1484 O1486 2.091 . S
Co1484 O1488 2.004 . S
Co1484 O1494 2.021 . S
Co1484 O1496 2.137 . S
Co1484 O1497 2.244 . S
O1485 Co1484 2.216 . S
O1485 C1492 1.247 . S
O1486 Co1484 2.091 . S
O1486 C1492 1.261 . S
C1487 O1496 1.247 . S
C1487 O1497 1.272 . S
O1488 Co1484 2.004 . S
O1488 C1493 1.259 . S
Co1489 O1490 2.061 . S
Co1489 O1495 2.052 . S
Co1489 O1497 2.135 . S
O1490 Co1489 2.061 . S
O1490 C1493 1.235 . S
C1491 O1494 1.238 . S
C1491 O1495 1.241 . S
C1492 O1485 1.247 . S
C1492 O1486 1.261 . S
C1493 O1488 1.259 . S
C1493 O1490 1.235 . S
O1494 Co1484 2.021 . S
O1494 C1491 1.238 . S
O1495 Co1489 2.052 . S
O1495 C1491 1.241 . S
O1496 Co1484 2.137 . S
O1496 C1487 1.247 . S
O1497 Co1484 2.244 . S
O1497 C1487 1.272 . S
O1497 Co1489 2.135 . S
Co1498 O1499 2.216 . S
Co1498 O1500 2.091 . S
Co1498 O1502 2.004 . S
Co1498 O1508 2.021 . S
Co1498 O1510 2.137 . S
Co1498 O1511 2.244 . S
O1499 Co1498 2.216 . S
O1499 C1506 1.247 . S
O1500 Co1498 2.091 . S
O1500 C1506 1.261 . S
C1501 O1510 1.247 . S
C1501 O1511 1.272 . S
O1502 Co1498 2.004 . S
O1502 C1507 1.259 . S
Co1503 O1504 2.061 . S
Co1503 O1509 2.052 . S
Co1503 O1511 2.135 . S
O1504 Co1503 2.061 . S
O1504 C1507 1.235 . S
C1505 O1508 1.238 . S
C1505 O1509 1.241 . S
C1506 O1499 1.247 . S
C1506 O1500 1.261 . S
C1507 O1502 1.259 . S
C1507 O1504 1.235 . S
O1508 Co1498 2.021 . S
O1508 C1505 1.238 . S
O1509 Co1503 2.052 . S
O1509 C1505 1.241 . S
O1510 Co1498 2.137 . S
O1510 C1501 1.247 . S
O1511 Co1498 2.244 . S
O1511 C1501 1.272 . S
O1511 Co1503 2.135 . S
Co1512 O1513 2.216 . S
Co1512 O1514 2.091 . S
Co1512 O1516 2.004 . S
Co1512 O1522 2.021 . S
Co1512 O1524 2.137 . S
Co1512 O1525 2.244 . S
O1513 Co1512 2.216 . S
O1513 C1520 1.247 . S
O1514 Co1512 2.091 . S
O1514 C1520 1.261 . S
C1515 O1524 1.247 . S
C1515 O1525 1.272 . S
O1516 Co1512 2.004 . S
O1516 C1521 1.259 . S
Co1517 O1518 2.061 . S
Co1517 O1523 2.052 . S
Co1517 O1525 2.135 . S
O1518 Co1517 2.061 . S
O1518 C1521 1.235 . S
C1519 O1522 1.238 . S
C1519 O1523 1.241 . S
C1520 O1513 1.247 . S
C1520 O1514 1.261 . S
C1521 O1516 1.259 . S
C1521 O1518 1.235 . S
O1522 Co1512 2.021 . S
O1522 C1519 1.238 . S
O1523 Co1517 2.052 . S
O1523 C1519 1.241 . S
O1524 Co1512 2.137 . S
O1524 C1515 1.247 . S
O1525 Co1512 2.244 . S
O1525 C1515 1.272 . S
O1525 Co1517 2.135 . S
Co1526 O1527 2.216 . S
Co1526 O1528 2.091 . S
Co1526 O1530 2.004 . S
Co1526 O1536 2.021 . S
Co1526 O1538 2.137 . S
Co1526 O1539 2.244 . S
O1527 Co1526 2.216 . S
O1527 C1534 1.247 . S
O1528 Co1526 2.091 . S
O1528 C1534 1.261 . S
C1529 O1538 1.247 . S
C1529 O1539 1.272 . S
O1530 Co1526 2.004 . S
O1530 C1535 1.259 . S
Co1531 O1532 2.061 . S
Co1531 O1537 2.052 . S
Co1531 O1539 2.135 . S
O1532 Co1531 2.061 . S
O1532 C1535 1.235 . S
C1533 O1536 1.238 . S
C1533 O1537 1.241 . S
C1534 O1527 1.247 . S
C1534 O1528 1.261 . S
C1535 O1530 1.259 . S
C1535 O1532 1.235 . S
O1536 Co1526 2.021 . S
O1536 C1533 1.238 . S
O1537 Co1531 2.052 . S
O1537 C1533 1.241 . S
O1538 Co1526 2.137 . S
O1538 C1529 1.247 . S
O1539 Co1526 2.244 . S
O1539 C1529 1.272 . S
O1539 Co1531 2.135 . S
Co1540 O1541 2.216 . S
Co1540 O1542 2.091 . S
Co1540 O1544 2.004 . S
Co1540 O1550 2.021 . S
Co1540 O1552 2.137 . S
Co1540 O1553 2.244 . S
O1541 Co1540 2.216 . S
O1541 C1548 1.247 . S
O1542 Co1540 2.091 . S
O1542 C1548 1.261 . S
C1543 O1552 1.247 . S
C1543 O1553 1.272 . S
O1544 Co1540 2.004 . S
O1544 C1549 1.259 . S
Co1545 O1546 2.061 . S
Co1545 O1551 2.052 . S
Co1545 O1553 2.135 . S
O1546 Co1545 2.061 . S
O1546 C1549 1.235 . S
C1547 O1550 1.238 . S
C1547 O1551 1.241 . S
C1548 O1541 1.247 . S
C1548 O1542 1.261 . S
C1549 O1544 1.259 . S
C1549 O1546 1.235 . S
O1550 Co1540 2.021 . S
O1550 C1547 1.238 . S
O1551 Co1545 2.052 . S
O1551 C1547 1.241 . S
O1552 Co1540 2.137 . S
O1552 C1543 1.247 . S
O1553 Co1540 2.244 . S
O1553 C1543 1.272 . S
O1553 Co1545 2.135 . S
Co1554 O1555 2.216 . S
Co1554 O1556 2.091 . S
Co1554 O1558 2.004 . S
Co1554 O1564 2.021 . S
Co1554 O1566 2.137 . S
Co1554 O1567 2.244 . S
O1555 Co1554 2.216 . S
O1555 C1562 1.247 . S
O1556 Co1554 2.091 . S
O1556 C1562 1.261 . S
C1557 O1566 1.247 . S
C1557 O1567 1.272 . S
O1558 Co1554 2.004 . S
O1558 C1563 1.259 . S
Co1559 O1560 2.061 . S
Co1559 O1565 2.052 . S
Co1559 O1567 2.135 . S
O1560 Co1559 2.061 . S
O1560 C1563 1.235 . S
C1561 O1564 1.238 . S
C1561 O1565 1.241 . S
C1562 O1555 1.247 . S
C1562 O1556 1.261 . S
C1563 O1558 1.259 . S
C1563 O1560 1.235 . S
O1564 Co1554 2.021 . S
O1564 C1561 1.238 . S
O1565 Co1559 2.052 . S
O1565 C1561 1.241 . S
O1566 Co1554 2.137 . S
O1566 C1557 1.247 . S
O1567 Co1554 2.244 . S
O1567 C1557 1.272 . S
O1567 Co1559 2.135 . S
Co1568 O1569 2.216 . S
Co1568 O1570 2.091 . S
Co1568 O1572 2.004 . S
Co1568 O1578 2.021 . S
Co1568 O1580 2.137 . S
Co1568 O1581 2.244 . S
O1569 Co1568 2.216 . S
O1569 C1576 1.247 . S
O1570 Co1568 2.091 . S
O1570 C1576 1.261 . S
C1571 O1580 1.247 . S
C1571 O1581 1.272 . S
O1572 Co1568 2.004 . S
O1572 C1577 1.259 . S
Co1573 O1574 2.061 . S
Co1573 O1579 2.052 . S
Co1573 O1581 2.135 . S
O1574 Co1573 2.061 . S
O1574 C1577 1.235 . S
C1575 O1578 1.238 . S
C1575 O1579 1.241 . S
C1576 O1569 1.247 . S
C1576 O1570 1.261 . S
C1577 O1572 1.259 . S
C1577 O1574 1.235 . S
O1578 Co1568 2.021 . S
O1578 C1575 1.238 . S
O1579 Co1573 2.052 . S
O1579 C1575 1.241 . S
O1580 Co1568 2.137 . S
O1580 C1571 1.247 . S
O1581 Co1568 2.244 . S
O1581 C1571 1.272 . S
O1581 Co1573 2.135 . S
Co1582 O1583 2.216 . S
Co1582 O1584 2.091 . S
Co1582 O1586 2.004 . S
Co1582 O1592 2.021 . S
Co1582 O1594 2.137 . S
Co1582 O1595 2.244 . S
O1583 Co1582 2.216 . S
O1583 C1590 1.247 . S
O1584 Co1582 2.091 . S
O1584 C1590 1.261 . S
C1585 O1594 1.247 . S
C1585 O1595 1.272 . S
O1586 Co1582 2.004 . S
O1586 C1591 1.259 . S
Co1587 O1588 2.061 . S
Co1587 O1593 2.052 . S
Co1587 O1595 2.135 . S
O1588 Co1587 2.061 . S
O1588 C1591 1.235 . S
C1589 O1592 1.238 . S
C1589 O1593 1.241 . S
C1590 O1583 1.247 . S
C1590 O1584 1.261 . S
C1591 O1586 1.259 . S
C1591 O1588 1.235 . S
O1592 Co1582 2.021 . S
O1592 C1589 1.238 . S
O1593 Co1587 2.052 . S
O1593 C1589 1.241 . S
O1594 Co1582 2.137 . S
O1594 C1585 1.247 . S
O1595 Co1582 2.244 . S
O1595 C1585 1.272 . S
O1595 Co1587 2.135 . S
Co1596 O1597 2.216 . S
Co1596 O1598 2.091 . S
Co1596 O1600 2.004 . S
Co1596 O1606 2.021 . S
Co1596 O1608 2.137 . S
Co1596 O1609 2.244 . S
O1597 Co1596 2.216 . S
O1597 C1604 1.247 . S
O1598 Co1596 2.091 . S
O1598 C1604 1.261 . S
C1599 O1608 1.247 . S
C1599 O1609 1.272 . S
O1600 Co1596 2.004 . S
O1600 C1605 1.259 . S
Co1601 O1602 2.061 . S
Co1601 O1607 2.052 . S
Co1601 O1609 2.135 . S
O1602 Co1601 2.061 . S
O1602 C1605 1.235 . S
C1603 O1606 1.238 . S
C1603 O1607 1.241 . S
C1604 O1597 1.247 . S
C1604 O1598 1.261 . S
C1605 O1600 1.259 . S
C1605 O1602 1.235 . S
O1606 Co1596 2.021 . S
O1606 C1603 1.238 . S
O1607 Co1601 2.052 . S
O1607 C1603 1.241 . S
O1608 Co1596 2.137 . S
O1608 C1599 1.247 . S
O1609 Co1596 2.244 . S
O1609 C1599 1.272 . S
O1609 Co1601 2.135 . S
Co1610 O1611 2.216 . S
Co1610 O1612 2.091 . S
Co1610 O1614 2.004 . S
Co1610 O1620 2.021 . S
Co1610 O1622 2.137 . S
Co1610 O1623 2.244 . S
O1611 Co1610 2.216 . S
O1611 C1618 1.247 . S
O1612 Co1610 2.091 . S
O1612 C1618 1.261 . S
C1613 O1622 1.247 . S
C1613 O1623 1.272 . S
O1614 Co1610 2.004 . S
O1614 C1619 1.259 . S
Co1615 O1616 2.061 . S
Co1615 O1621 2.052 . S
Co1615 O1623 2.135 . S
O1616 Co1615 2.061 . S
O1616 C1619 1.235 . S
C1617 O1620 1.238 . S
C1617 O1621 1.241 . S
C1618 O1611 1.247 . S
C1618 O1612 1.261 . S
C1619 O1614 1.259 . S
C1619 O1616 1.235 . S
O1620 Co1610 2.021 . S
O1620 C1617 1.238 . S
O1621 Co1615 2.052 . S
O1621 C1617 1.241 . S
O1622 Co1610 2.137 . S
O1622 C1613 1.247 . S
O1623 Co1610 2.244 . S
O1623 C1613 1.272 . S
O1623 Co1615 2.135 . S
Co1624 O1625 2.216 . S
Co1624 O1626 2.091 . S
Co1624 O1628 2.004 . S
Co1624 O1634 2.021 . S
Co1624 O1636 2.137 . S
Co1624 O1637 2.244 . S
O1625 Co1624 2.216 . S
O1625 C1632 1.247 . S
O1626 Co1624 2.091 . S
O1626 C1632 1.261 . S
C1627 O1636 1.247 . S
C1627 O1637 1.272 . S
O1628 Co1624 2.004 . S
O1628 C1633 1.259 . S
Co1629 O1630 2.061 . S
Co1629 O1635 2.052 . S
Co1629 O1637 2.135 . S
O1630 Co1629 2.061 . S
O1630 C1633 1.235 . S
C1631 O1634 1.238 . S
C1631 O1635 1.241 . S
C1632 O1625 1.247 . S
C1632 O1626 1.261 . S
C1633 O1628 1.259 . S
C1633 O1630 1.235 . S
O1634 Co1624 2.021 . S
O1634 C1631 1.238 . S
O1635 Co1629 2.052 . S
O1635 C1631 1.241 . S
O1636 Co1624 2.137 . S
O1636 C1627 1.247 . S
O1637 Co1624 2.244 . S
O1637 C1627 1.272 . S
O1637 Co1629 2.135 . S
Co1638 O1639 2.216 . S
Co1638 O1640 2.091 . S
Co1638 O1642 2.004 . S
Co1638 O1648 2.021 . S
Co1638 O1650 2.137 . S
Co1638 O1651 2.244 . S
O1639 Co1638 2.216 . S
O1639 C1646 1.247 . S
O1640 Co1638 2.091 . S
O1640 C1646 1.261 . S
C1641 O1650 1.247 . S
C1641 O1651 1.272 . S
O1642 Co1638 2.004 . S
O1642 C1647 1.259 . S
Co1643 O1644 2.061 . S
Co1643 O1649 2.052 . S
Co1643 O1651 2.135 . S
O1644 Co1643 2.061 . S
O1644 C1647 1.235 . S
C1645 O1648 1.238 . S
C1645 O1649 1.241 . S
C1646 O1639 1.247 . S
C1646 O1640 1.261 . S
C1647 O1642 1.259 . S
C1647 O1644 1.235 . S
O1648 Co1638 2.021 . S
O1648 C1645 1.238 . S
O1649 Co1643 2.052 . S
O1649 C1645 1.241 . S
O1650 Co1638 2.137 . S
O1650 C1641 1.247 . S
O1651 Co1638 2.244 . S
O1651 C1641 1.272 . S
O1651 Co1643 2.135 . S
Co1652 O1653 2.216 . S
Co1652 O1654 2.091 . S
Co1652 O1656 2.004 . S
Co1652 O1662 2.021 . S
Co1652 O1664 2.137 . S
Co1652 O1665 2.244 . S
O1653 Co1652 2.216 . S
O1653 C1660 1.247 . S
O1654 Co1652 2.091 . S
O1654 C1660 1.261 . S
C1655 O1664 1.247 . S
C1655 O1665 1.272 . S
O1656 Co1652 2.004 . S
O1656 C1661 1.259 . S
Co1657 O1658 2.061 . S
Co1657 O1663 2.052 . S
Co1657 O1665 2.135 . S
O1658 Co1657 2.061 . S
O1658 C1661 1.235 . S
C1659 O1662 1.238 . S
C1659 O1663 1.241 . S
C1660 O1653 1.247 . S
C1660 O1654 1.261 . S
C1661 O1656 1.259 . S
C1661 O1658 1.235 . S
O1662 Co1652 2.021 . S
O1662 C1659 1.238 . S
O1663 Co1657 2.052 . S
O1663 C1659 1.241 . S
O1664 Co1652 2.137 . S
O1664 C1655 1.247 . S
O1665 Co1652 2.244 . S
O1665 C1655 1.272 . S
O1665 Co1657 2.135 . S
Co1666 O1667 2.216 . S
Co1666 O1668 2.091 . S
Co1666 O1670 2.004 . S
Co1666 O1676 2.021 . S
Co1666 O1678 2.137 . S
Co1666 O1679 2.244 . S
O1667 Co1666 2.216 . S
O1667 C1674 1.247 . S
O1668 Co1666 2.091 . S
O1668 C1674 1.261 . S
C1669 O1678 1.247 . S
C1669 O1679 1.272 . S
O1670 Co1666 2.004 . S
O1670 C1675 1.259 . S
Co1671 O1672 2.061 . S
Co1671 O1677 2.052 . S
Co1671 O1679 2.135 . S
O1672 Co1671 2.061 . S
O1672 C1675 1.235 . S
C1673 O1676 1.238 . S
C1673 O1677 1.241 . S
C1674 O1667 1.247 . S
C1674 O1668 1.261 . S
C1675 O1670 1.259 . S
C1675 O1672 1.235 . S
O1676 Co1666 2.021 . S
O1676 C1673 1.238 . S
O1677 Co1671 2.052 . S
O1677 C1673 1.241 . S
O1678 Co1666 2.137 . S
O1678 C1669 1.247 . S
O1679 Co1666 2.244 . S
O1679 C1669 1.272 . S
O1679 Co1671 2.135 . S
Co1680 O1681 2.216 . S
Co1680 O1682 2.091 . S
Co1680 O1684 2.004 . S
Co1680 O1690 2.021 . S
Co1680 O1692 2.137 . S
Co1680 O1693 2.244 . S
O1681 Co1680 2.216 . S
O1681 C1688 1.247 . S
O1682 Co1680 2.091 . S
O1682 C1688 1.261 . S
C1683 O1692 1.247 . S
C1683 O1693 1.272 . S
O1684 Co1680 2.004 . S
O1684 C1689 1.259 . S
Co1685 O1686 2.061 . S
Co1685 O1691 2.052 . S
Co1685 O1693 2.135 . S
O1686 Co1685 2.061 . S
O1686 C1689 1.235 . S
C1687 O1690 1.238 . S
C1687 O1691 1.241 . S
C1688 O1681 1.247 . S
C1688 O1682 1.261 . S
C1689 O1684 1.259 . S
C1689 O1686 1.235 . S
O1690 Co1680 2.021 . S
O1690 C1687 1.238 . S
O1691 Co1685 2.052 . S
O1691 C1687 1.241 . S
O1692 Co1680 2.137 . S
O1692 C1683 1.247 . S
O1693 Co1680 2.244 . S
O1693 C1683 1.272 . S
O1693 Co1685 2.135 . S
Co1694 O1695 2.216 . S
Co1694 O1696 2.091 . S
Co1694 O1698 2.004 . S
Co1694 O1704 2.021 . S
Co1694 O1706 2.137 . S
Co1694 O1707 2.244 . S
O1695 Co1694 2.216 . S
O1695 C1702 1.247 . S
O1696 Co1694 2.091 . S
O1696 C1702 1.261 . S
C1697 O1706 1.247 . S
C1697 O1707 1.272 . S
O1698 Co1694 2.004 . S
O1698 C1703 1.259 . S
Co1699 O1700 2.061 . S
Co1699 O1705 2.052 . S
Co1699 O1707 2.135 . S
O1700 Co1699 2.061 . S
O1700 C1703 1.235 . S
C1701 O1704 1.238 . S
C1701 O1705 1.241 . S
C1702 O1695 1.247 . S
C1702 O1696 1.261 . S
C1703 O1698 1.259 . S
C1703 O1700 1.235 . S
O1704 Co1694 2.021 . S
O1704 C1701 1.238 . S
O1705 Co1699 2.052 . S
O1705 C1701 1.241 . S
O1706 Co1694 2.137 . S
O1706 C1697 1.247 . S
O1707 Co1694 2.244 . S
O1707 C1697 1.272 . S
O1707 Co1699 2.135 . S
Co1708 O1709 2.216 . S
Co1708 O1710 2.091 . S
Co1708 O1712 2.004 . S
Co1708 O1718 2.021 . S
Co1708 O1720 2.137 . S
Co1708 O1721 2.244 . S
O1709 Co1708 2.216 . S
O1709 C1716 1.247 . S
O1710 Co1708 2.091 . S
O1710 C1716 1.261 . S
C1711 O1720 1.247 . S
C1711 O1721 1.272 . S
O1712 Co1708 2.004 . S
O1712 C1717 1.259 . S
Co1713 O1714 2.061 . S
Co1713 O1719 2.052 . S
Co1713 O1721 2.135 . S
O1714 Co1713 2.061 . S
O1714 C1717 1.235 . S
C1715 O1718 1.238 . S
C1715 O1719 1.241 . S
C1716 O1709 1.247 . S
C1716 O1710 1.261 . S
C1717 O1712 1.259 . S
C1717 O1714 1.235 . S
O1718 Co1708 2.021 . S
O1718 C1715 1.238 . S
O1719 Co1713 2.052 . S
O1719 C1715 1.241 . S
O1720 Co1708 2.137 . S
O1720 C1711 1.247 . S
O1721 Co1708 2.244 . S
O1721 C1711 1.272 . S
O1721 Co1713 2.135 . S
Co1722 O1723 2.216 . S
Co1722 O1724 2.091 . S
Co1722 O1726 2.004 . S
Co1722 O1732 2.021 . S
Co1722 O1734 2.137 . S
Co1722 O1735 2.244 . S
O1723 Co1722 2.216 . S
O1723 C1730 1.247 . S
O1724 Co1722 2.091 . S
O1724 C1730 1.261 . S
C1725 O1734 1.247 . S
C1725 O1735 1.272 . S
O1726 Co1722 2.004 . S
O1726 C1731 1.259 . S
Co1727 O1728 2.061 . S
Co1727 O1733 2.052 . S
Co1727 O1735 2.135 . S
O1728 Co1727 2.061 . S
O1728 C1731 1.235 . S
C1729 O1732 1.238 . S
C1729 O1733 1.241 . S
C1730 O1723 1.247 . S
C1730 O1724 1.261 . S
C1731 O1726 1.259 . S
C1731 O1728 1.235 . S
O1732 Co1722 2.021 . S
O1732 C1729 1.238 . S
O1733 Co1727 2.052 . S
O1733 C1729 1.241 . S
O1734 Co1722 2.137 . S
O1734 C1725 1.247 . S
O1735 Co1722 2.244 . S
O1735 C1725 1.272 . S
O1735 Co1727 2.135 . S
Co1736 O1737 2.216 . S
Co1736 O1738 2.091 . S
Co1736 O1740 2.004 . S
Co1736 O1746 2.021 . S
Co1736 O1748 2.137 . S
Co1736 O1749 2.244 . S
O1737 Co1736 2.216 . S
O1737 C1744 1.247 . S
O1738 Co1736 2.091 . S
O1738 C1744 1.261 . S
C1739 O1748 1.247 . S
C1739 O1749 1.272 . S
O1740 Co1736 2.004 . S
O1740 C1745 1.259 . S
Co1741 O1742 2.061 . S
Co1741 O1747 2.052 . S
Co1741 O1749 2.135 . S
O1742 Co1741 2.061 . S
O1742 C1745 1.235 . S
C1743 O1746 1.238 . S
C1743 O1747 1.241 . S
C1744 O1737 1.247 . S
C1744 O1738 1.261 . S
C1745 O1740 1.259 . S
C1745 O1742 1.235 . S
O1746 Co1736 2.021 . S
O1746 C1743 1.238 . S
O1747 Co1741 2.052 . S
O1747 C1743 1.241 . S
O1748 Co1736 2.137 . S
O1748 C1739 1.247 . S
O1749 Co1736 2.244 . S
O1749 C1739 1.272 . S
O1749 Co1741 2.135 . S
Co1750 O1751 2.216 . S
Co1750 O1752 2.091 . S
Co1750 O1754 2.004 . S
Co1750 O1760 2.021 . S
Co1750 O1762 2.137 . S
Co1750 O1763 2.244 . S
O1751 Co1750 2.216 . S
O1751 C1758 1.247 . S
O1752 Co1750 2.091 . S
O1752 C1758 1.261 . S
C1753 O1762 1.247 . S
C1753 O1763 1.272 . S
O1754 Co1750 2.004 . S
O1754 C1759 1.259 . S
Co1755 O1756 2.061 . S
Co1755 O1761 2.052 . S
Co1755 O1763 2.135 . S
O1756 Co1755 2.061 . S
O1756 C1759 1.235 . S
C1757 O1760 1.238 . S
C1757 O1761 1.241 . S
C1758 O1751 1.247 . S
C1758 O1752 1.261 . S
C1759 O1754 1.259 . S
C1759 O1756 1.235 . S
O1760 Co1750 2.021 . S
O1760 C1757 1.238 . S
O1761 Co1755 2.052 . S
O1761 C1757 1.241 . S
O1762 Co1750 2.137 . S
O1762 C1753 1.247 . S
O1763 Co1750 2.244 . S
O1763 C1753 1.272 . S
O1763 Co1755 2.135 . S
Co1764 O1765 2.216 . S
Co1764 O1766 2.091 . S
Co1764 O1768 2.004 . S
Co1764 O1774 2.021 . S
Co1764 O1776 2.137 . S
Co1764 O1777 2.244 . S
O1765 Co1764 2.216 . S
O1765 C1772 1.247 . S
O1766 Co1764 2.091 . S
O1766 C1772 1.261 . S
C1767 O1776 1.247 . S
C1767 O1777 1.272 . S
O1768 Co1764 2.004 . S
O1768 C1773 1.259 . S
Co1769 O1770 2.061 . S
Co1769 O1775 2.052 . S
Co1769 O1777 2.135 . S
O1770 Co1769 2.061 . S
O1770 C1773 1.235 . S
C1771 O1774 1.238 . S
C1771 O1775 1.241 . S
C1772 O1765 1.247 . S
C1772 O1766 1.261 . S
C1773 O1768 1.259 . S
C1773 O1770 1.235 . S
O1774 Co1764 2.021 . S
O1774 C1771 1.238 . S
O1775 Co1769 2.052 . S
O1775 C1771 1.241 . S
O1776 Co1764 2.137 . S
O1776 C1767 1.247 . S
O1777 Co1764 2.244 . S
O1777 C1767 1.272 . S
O1777 Co1769 2.135 . S
Co1778 O1779 2.216 . S
Co1778 O1780 2.091 . S
Co1778 O1782 2.004 . S
Co1778 O1788 2.021 . S
Co1778 O1790 2.137 . S
Co1778 O1791 2.244 . S
O1779 Co1778 2.216 . S
O1779 C1786 1.247 . S
O1780 Co1778 2.091 . S
O1780 C1786 1.261 . S
C1781 O1790 1.247 . S
C1781 O1791 1.272 . S
O1782 Co1778 2.004 . S
O1782 C1787 1.259 . S
Co1783 O1784 2.061 . S
Co1783 O1789 2.052 . S
Co1783 O1791 2.135 . S
O1784 Co1783 2.061 . S
O1784 C1787 1.235 . S
C1785 O1788 1.238 . S
C1785 O1789 1.241 . S
C1786 O1779 1.247 . S
C1786 O1780 1.261 . S
C1787 O1782 1.259 . S
C1787 O1784 1.235 . S
O1788 Co1778 2.021 . S
O1788 C1785 1.238 . S
O1789 Co1783 2.052 . S
O1789 C1785 1.241 . S
O1790 Co1778 2.137 . S
O1790 C1781 1.247 . S
O1791 Co1778 2.244 . S
O1791 C1781 1.272 . S
O1791 Co1783 2.135 . S
Co1792 O1793 2.216 . S
Co1792 O1794 2.091 . S
Co1792 O1796 2.004 . S
Co1792 O1802 2.021 . S
Co1792 O1804 2.137 . S
Co1792 O1805 2.244 . S
O1793 Co1792 2.216 . S
O1793 C1800 1.247 . S
O1794 Co1792 2.091 . S
O1794 C1800 1.261 . S
C1795 O1804 1.247 . S
C1795 O1805 1.272 . S
O1796 Co1792 2.004 . S
O1796 C1801 1.259 . S
Co1797 O1798 2.061 . S
Co1797 O1803 2.052 . S
Co1797 O1805 2.135 . S
O1798 Co1797 2.061 . S
O1798 C1801 1.235 . S
C1799 O1802 1.238 . S
C1799 O1803 1.241 . S
C1800 O1793 1.247 . S
C1800 O1794 1.261 . S
C1801 O1796 1.259 . S
C1801 O1798 1.235 . S
O1802 Co1792 2.021 . S
O1802 C1799 1.238 . S
O1803 Co1797 2.052 . S
O1803 C1799 1.241 . S
O1804 Co1792 2.137 . S
O1804 C1795 1.247 . S
O1805 Co1792 2.244 . S
O1805 C1795 1.272 . S
O1805 Co1797 2.135 . S
Co1806 O1807 2.216 . S
Co1806 O1808 2.091 . S
Co1806 O1810 2.004 . S
Co1806 O1816 2.021 . S
Co1806 O1818 2.137 . S
Co1806 O1819 2.244 . S
O1807 Co1806 2.216 . S
O1807 C1814 1.247 . S
O1808 Co1806 2.091 . S
O1808 C1814 1.261 . S
C1809 O1818 1.247 . S
C1809 O1819 1.272 . S
O1810 Co1806 2.004 . S
O1810 C1815 1.259 . S
Co1811 O1812 2.061 . S
Co1811 O1817 2.052 . S
Co1811 O1819 2.135 . S
O1812 Co1811 2.061 . S
O1812 C1815 1.235 . S
C1813 O1816 1.238 . S
C1813 O1817 1.241 . S
C1814 O1807 1.247 . S
C1814 O1808 1.261 . S
C1815 O1810 1.259 . S
C1815 O1812 1.235 . S
O1816 Co1806 2.021 . S
O1816 C1813 1.238 . S
O1817 Co1811 2.052 . S
O1817 C1813 1.241 . S
O1818 Co1806 2.137 . S
O1818 C1809 1.247 . S
O1819 Co1806 2.244 . S
O1819 C1809 1.272 . S
O1819 Co1811 2.135 . S
Co1820 O1821 2.216 . S
Co1820 O1822 2.091 . S
Co1820 O1824 2.004 . S
Co1820 O1830 2.021 . S
Co1820 O1832 2.137 . S
Co1820 O1833 2.244 . S
O1821 Co1820 2.216 . S
O1821 C1828 1.247 . S
O1822 Co1820 2.091 . S
O1822 C1828 1.261 . S
C1823 O1832 1.247 . S
C1823 O1833 1.272 . S
O1824 Co1820 2.004 . S
O1824 C1829 1.259 . S
Co1825 O1826 2.061 . S
Co1825 O1831 2.052 . S
Co1825 O1833 2.135 . S
O1826 Co1825 2.061 . S
O1826 C1829 1.235 . S
C1827 O1830 1.238 . S
C1827 O1831 1.241 . S
C1828 O1821 1.247 . S
C1828 O1822 1.261 . S
C1829 O1824 1.259 . S
C1829 O1826 1.235 . S
O1830 Co1820 2.021 . S
O1830 C1827 1.238 . S
O1831 Co1825 2.052 . S
O1831 C1827 1.241 . S
O1832 Co1820 2.137 . S
O1832 C1823 1.247 . S
O1833 Co1820 2.244 . S
O1833 C1823 1.272 . S
O1833 Co1825 2.135 . S
Co1834 O1835 2.216 . S
Co1834 O1836 2.091 . S
Co1834 O1838 2.004 . S
Co1834 O1844 2.021 . S
Co1834 O1846 2.137 . S
Co1834 O1847 2.244 . S
O1835 Co1834 2.216 . S
O1835 C1842 1.247 . S
O1836 Co1834 2.091 . S
O1836 C1842 1.261 . S
C1837 O1846 1.247 . S
C1837 O1847 1.272 . S
O1838 Co1834 2.004 . S
O1838 C1843 1.259 . S
Co1839 O1840 2.061 . S
Co1839 O1845 2.052 . S
Co1839 O1847 2.135 . S
O1840 Co1839 2.061 . S
O1840 C1843 1.235 . S
C1841 O1844 1.238 . S
C1841 O1845 1.241 . S
C1842 O1835 1.247 . S
C1842 O1836 1.261 . S
C1843 O1838 1.259 . S
C1843 O1840 1.235 . S
O1844 Co1834 2.021 . S
O1844 C1841 1.238 . S
O1845 Co1839 2.052 . S
O1845 C1841 1.241 . S
O1846 Co1834 2.137 . S
O1846 C1837 1.247 . S
O1847 Co1834 2.244 . S
O1847 C1837 1.272 . S
O1847 Co1839 2.135 . S
Co1848 O1849 2.216 . S
Co1848 O1850 2.091 . S
Co1848 O1852 2.004 . S
Co1848 O1858 2.021 . S
Co1848 O1860 2.137 . S
Co1848 O1861 2.244 . S
O1849 Co1848 2.216 . S
O1849 C1856 1.247 . S
O1850 Co1848 2.091 . S
O1850 C1856 1.261 . S
C1851 O1860 1.247 . S
C1851 O1861 1.272 . S
O1852 Co1848 2.004 . S
O1852 C1857 1.259 . S
Co1853 O1854 2.061 . S
Co1853 O1859 2.052 . S
Co1853 O1861 2.135 . S
O1854 Co1853 2.061 . S
O1854 C1857 1.235 . S
C1855 O1858 1.238 . S
C1855 O1859 1.241 . S
C1856 O1849 1.247 . S
C1856 O1850 1.261 . S
C1857 O1852 1.259 . S
C1857 O1854 1.235 . S
O1858 Co1848 2.021 . S
O1858 C1855 1.238 . S
O1859 Co1853 2.052 . S
O1859 C1855 1.241 . S
O1860 Co1848 2.137 . S
O1860 C1851 1.247 . S
O1861 Co1848 2.244 . S
O1861 C1851 1.272 . S
O1861 Co1853 2.135 . S
Co1862 O1863 2.216 . S
Co1862 O1864 2.091 . S
Co1862 O1866 2.004 . S
Co1862 O1872 2.021 . S
Co1862 O1874 2.137 . S
Co1862 O1875 2.244 . S
O1863 Co1862 2.216 . S
O1863 C1870 1.247 . S
O1864 Co1862 2.091 . S
O1864 C1870 1.261 . S
C1865 O1874 1.247 . S
C1865 O1875 1.272 . S
O1866 Co1862 2.004 . S
O1866 C1871 1.259 . S
Co1867 O1868 2.061 . S
Co1867 O1873 2.052 . S
Co1867 O1875 2.135 . S
O1868 Co1867 2.061 . S
O1868 C1871 1.235 . S
C1869 O1872 1.238 . S
C1869 O1873 1.241 . S
C1870 O1863 1.247 . S
C1870 O1864 1.261 . S
C1871 O1866 1.259 . S
C1871 O1868 1.235 . S
O1872 Co1862 2.021 . S
O1872 C1869 1.238 . S
O1873 Co1867 2.052 . S
O1873 C1869 1.241 . S
O1874 Co1862 2.137 . S
O1874 C1865 1.247 . S
O1875 Co1862 2.244 . S
O1875 C1865 1.272 . S
O1875 Co1867 2.135 . S
Co1876 O1877 2.216 . S
Co1876 O1878 2.091 . S
Co1876 O1880 2.004 . S
Co1876 O1886 2.021 . S
Co1876 O1888 2.137 . S
Co1876 O1889 2.244 . S
O1877 Co1876 2.216 . S
O1877 C1884 1.247 . S
O1878 Co1876 2.091 . S
O1878 C1884 1.261 . S
C1879 O1888 1.247 . S
C1879 O1889 1.272 . S
O1880 Co1876 2.004 . S
O1880 C1885 1.259 . S
Co1881 O1882 2.061 . S
Co1881 O1887 2.052 . S
Co1881 O1889 2.135 . S
O1882 Co1881 2.061 . S
O1882 C1885 1.235 . S
C1883 O1886 1.238 . S
C1883 O1887 1.241 . S
C1884 O1877 1.247 . S
C1884 O1878 1.261 . S
C1885 O1880 1.259 . S
C1885 O1882 1.235 . S
O1886 Co1876 2.021 . S
O1886 C1883 1.238 . S
O1887 Co1881 2.052 . S
O1887 C1883 1.241 . S
O1888 Co1876 2.137 . S
O1888 C1879 1.247 . S
O1889 Co1876 2.244 . S
O1889 C1879 1.272 . S
O1889 Co1881 2.135 . S
Co1890 O1891 2.216 . S
Co1890 O1892 2.091 . S
Co1890 O1894 2.004 . S
Co1890 O1900 2.021 . S
Co1890 O1902 2.137 . S
Co1890 O1903 2.244 . S
O1891 Co1890 2.216 . S
O1891 C1898 1.247 . S
O1892 Co1890 2.091 . S
O1892 C1898 1.261 . S
C1893 O1902 1.247 . S
C1893 O1903 1.272 . S
O1894 Co1890 2.004 . S
O1894 C1899 1.259 . S
Co1895 O1896 2.061 . S
Co1895 O1901 2.052 . S
Co1895 O1903 2.135 . S
O1896 Co1895 2.061 . S
O1896 C1899 1.235 . S
C1897 O1900 1.238 . S
C1897 O1901 1.241 . S
C1898 O1891 1.247 . S
C1898 O1892 1.261 . S
C1899 O1894 1.259 . S
C1899 O1896 1.235 . S
O1900 Co1890 2.021 . S
O1900 C1897 1.238 . S
O1901 Co1895 2.052 . S
O1901 C1897 1.241 . S
O1902 Co1890 2.137 . S
O1902 C1893 1.247 . S
O1903 Co1890 2.244 . S
O1903 C1893 1.272 . S
O1903 Co1895 2.135 . S
Co1904 O1905 2.216 . S
Co1904 O1906 2.091 . S
Co1904 O1908 2.004 . S
Co1904 O1914 2.021 . S
Co1904 O1916 2.137 . S
Co1904 O1917 2.244 . S
O1905 Co1904 2.216 . S
O1905 C1912 1.247 . S
O1906 Co1904 2.091 . S
O1906 C1912 1.261 . S
C1907 O1916 1.247 . S
C1907 O1917 1.272 . S
O1908 Co1904 2.004 . S
O1908 C1913 1.259 . S
Co1909 O1910 2.061 . S
Co1909 O1915 2.052 . S
Co1909 O1917 2.135 . S
O1910 Co1909 2.061 . S
O1910 C1913 1.235 . S
C1911 O1914 1.238 . S
C1911 O1915 1.241 . S
C1912 O1905 1.247 . S
C1912 O1906 1.261 . S
C1913 O1908 1.259 . S
C1913 O1910 1.235 . S
O1914 Co1904 2.021 . S
O1914 C1911 1.238 . S
O1915 Co1909 2.052 . S
O1915 C1911 1.241 . S
O1916 Co1904 2.137 . S
O1916 C1907 1.247 . S
O1917 Co1904 2.244 . S
O1917 C1907 1.272 . S
O1917 Co1909 2.135 . S
Co1918 O1919 2.216 . S
Co1918 O1920 2.091 . S
Co1918 O1922 2.004 . S
Co1918 O1928 2.021 . S
Co1918 O1930 2.137 . S
Co1918 O1931 2.244 . S
O1919 Co1918 2.216 . S
O1919 C1926 1.247 . S
O1920 Co1918 2.091 . S
O1920 C1926 1.261 . S
C1921 O1930 1.247 . S
C1921 O1931 1.272 . S
O1922 Co1918 2.004 . S
O1922 C1927 1.259 . S
Co1923 O1924 2.061 . S
Co1923 O1929 2.052 . S
Co1923 O1931 2.135 . S
O1924 Co1923 2.061 . S
O1924 C1927 1.235 . S
C1925 O1928 1.238 . S
C1925 O1929 1.241 . S
C1926 O1919 1.247 . S
C1926 O1920 1.261 . S
C1927 O1922 1.259 . S
C1927 O1924 1.235 . S
O1928 Co1918 2.021 . S
O1928 C1925 1.238 . S
O1929 Co1923 2.052 . S
O1929 C1925 1.241 . S
O1930 Co1918 2.137 . S
O1930 C1921 1.247 . S
O1931 Co1918 2.244 . S
O1931 C1921 1.272 . S
O1931 Co1923 2.135 . S
Co1932 O1933 2.216 . S
Co1932 O1934 2.091 . S
Co1932 O1936 2.004 . S
Co1932 O1942 2.021 . S
Co1932 O1944 2.137 . S
Co1932 O1945 2.244 . S
O1933 Co1932 2.216 . S
O1933 C1940 1.247 . S
O1934 Co1932 2.091 . S
O1934 C1940 1.261 . S
C1935 O1944 1.247 . S
C1935 O1945 1.272 . S
O1936 Co1932 2.004 . S
O1936 C1941 1.259 . S
Co1937 O1938 2.061 . S
Co1937 O1943 2.052 . S
Co1937 O1945 2.135 . S
O1938 Co1937 2.061 . S
O1938 C1941 1.235 . S
C1939 O1942 1.238 . S
C1939 O1943 1.241 . S
C1940 O1933 1.247 . S
C1940 O1934 1.261 . S
C1941 O1936 1.259 . S
C1941 O1938 1.235 . S
O1942 Co1932 2.021 . S
O1942 C1939 1.238 . S
O1943 Co1937 2.052 . S
O1943 C1939 1.241 . S
O1944 Co1932 2.137 . S
O1944 C1935 1.247 . S
O1945 Co1932 2.244 . S
O1945 C1935 1.272 . S
O1945 Co1937 2.135 . S
Co1946 O1947 2.216 . S
Co1946 O1948 2.091 . S
Co1946 O1950 2.004 . S
Co1946 O1956 2.021 . S
Co1946 O1958 2.137 . S
Co1946 O1959 2.244 . S
O1947 Co1946 2.216 . S
O1947 C1954 1.247 . S
O1948 Co1946 2.091 . S
O1948 C1954 1.261 . S
C1949 O1958 1.247 . S
C1949 O1959 1.272 . S
O1950 Co1946 2.004 . S
O1950 C1955 1.259 . S
Co1951 O1952 2.061 . S
Co1951 O1957 2.052 . S
Co1951 O1959 2.135 . S
O1952 Co1951 2.061 . S
O1952 C1955 1.235 . S
C1953 O1956 1.238 . S
C1953 O1957 1.241 . S
C1954 O1947 1.247 . S
C1954 O1948 1.261 . S
C1955 O1950 1.259 . S
C1955 O1952 1.235 . S
O1956 Co1946 2.021 . S
O1956 C1953 1.238 . S
O1957 Co1951 2.052 . S
O1957 C1953 1.241 . S
O1958 Co1946 2.137 . S
O1958 C1949 1.247 . S
O1959 Co1946 2.244 . S
O1959 C1949 1.272 . S
O1959 Co1951 2.135 . S
Co1960 O1961 2.216 . S
Co1960 O1962 2.091 . S
Co1960 O1964 2.004 . S
Co1960 O1970 2.021 . S
Co1960 O1972 2.137 . S
Co1960 O1973 2.244 . S
O1961 Co1960 2.216 . S
O1961 C1968 1.247 . S
O1962 Co1960 2.091 . S
O1962 C1968 1.261 . S
C1963 O1972 1.247 . S
C1963 O1973 1.272 . S
O1964 Co1960 2.004 . S
O1964 C1969 1.259 . S
Co1965 O1966 2.061 . S
Co1965 O1971 2.052 . S
Co1965 O1973 2.135 . S
O1966 Co1965 2.061 . S
O1966 C1969 1.235 . S
C1967 O1970 1.238 . S
C1967 O1971 1.241 . S
C1968 O1961 1.247 . S
C1968 O1962 1.261 . S
C1969 O1964 1.259 . S
C1969 O1966 1.235 . S
O1970 Co1960 2.021 . S
O1970 C1967 1.238 . S
O1971 Co1965 2.052 . S
O1971 C1967 1.241 . S
O1972 Co1960 2.137 . S
O1972 C1963 1.247 . S
O1973 Co1960 2.244 . S
O1973 C1963 1.272 . S
O1973 Co1965 2.135 . S
Co1974 O1975 2.216 . S
Co1974 O1976 2.091 . S
Co1974 O1978 2.004 . S
Co1974 O1984 2.021 . S
Co1974 O1986 2.137 . S
Co1974 O1987 2.244 . S
O1975 Co1974 2.216 . S
O1975 C1982 1.247 . S
O1976 Co1974 2.091 . S
O1976 C1982 1.261 . S
C1977 O1986 1.247 . S
C1977 O1987 1.272 . S
O1978 Co1974 2.004 . S
O1978 C1983 1.259 . S
Co1979 O1980 2.061 . S
Co1979 O1985 2.052 . S
Co1979 O1987 2.135 . S
O1980 Co1979 2.061 . S
O1980 C1983 1.235 . S
C1981 O1984 1.238 . S
C1981 O1985 1.241 . S
C1982 O1975 1.247 . S
C1982 O1976 1.261 . S
C1983 O1978 1.259 . S
C1983 O1980 1.235 . S
O1984 Co1974 2.021 . S
O1984 C1981 1.238 . S
O1985 Co1979 2.052 . S
O1985 C1981 1.241 . S
O1986 Co1974 2.137 . S
O1986 C1977 1.247 . S
O1987 Co1974 2.244 . S
O1987 C1977 1.272 . S
O1987 Co1979 2.135 . S
Co1988 O1989 2.216 . S
Co1988 O1990 2.091 . S
Co1988 O1992 2.004 . S
Co1988 O1998 2.021 . S
Co1988 O2000 2.137 . S
Co1988 O2001 2.244 . S
O1989 Co1988 2.216 . S
O1989 C1996 1.247 . S
O1990 Co1988 2.091 . S
O1990 C1996 1.261 . S
C1991 O2000 1.247 . S
C1991 O2001 1.272 . S
O1992 Co1988 2.004 . S
O1992 C1997 1.259 . S
Co1993 O1994 2.061 . S
Co1993 O1999 2.052 . S
Co1993 O2001 2.135 . S
O1994 Co1993 2.061 . S
O1994 C1997 1.235 . S
C1995 O1998 1.238 . S
C1995 O1999 1.241 . S
C1996 O1989 1.247 . S
C1996 O1990 1.261 . S
C1997 O1992 1.259 . S
C1997 O1994 1.235 . S
O1998 Co1988 2.021 . S
O1998 C1995 1.238 . S
O1999 Co1993 2.052 . S
O1999 C1995 1.241 . S
O2000 Co1988 2.137 . S
O2000 C1991 1.247 . S
O2001 Co1988 2.244 . S
O2001 C1991 1.272 . S
O2001 Co1993 2.135 . S
Co2002 O2003 2.216 . S
Co2002 O2004 2.091 . S
Co2002 O2006 2.004 . S
Co2002 O2012 2.021 . S
Co2002 O2014 2.137 . S
Co2002 O2015 2.244 . S
O2003 Co2002 2.216 . S
O2003 C2010 1.247 . S
O2004 Co2002 2.091 . S
O2004 C2010 1.261 . S
C2005 O2014 1.247 . S
C2005 O2015 1.272 . S
O2006 Co2002 2.004 . S
O2006 C2011 1.259 . S
Co2007 O2008 2.061 . S
Co2007 O2013 2.052 . S
Co2007 O2015 2.135 . S
O2008 Co2007 2.061 . S
O2008 C2011 1.235 . S
C2009 O2012 1.238 . S
C2009 O2013 1.241 . S
C2010 O2003 1.247 . S
C2010 O2004 1.261 . S
C2011 O2006 1.259 . S
C2011 O2008 1.235 . S
O2012 Co2002 2.021 . S
O2012 C2009 1.238 . S
O2013 Co2007 2.052 . S
O2013 C2009 1.241 . S
O2014 Co2002 2.137 . S
O2014 C2005 1.247 . S
O2015 Co2002 2.244 . S
O2015 C2005 1.272 . S
O2015 Co2007 2.135 . S
Co2016 O2017 2.216 . S
Co2016 O2018 2.091 . S
Co2016 O2020 2.004 . S
Co2016 O2026 2.021 . S
Co2016 O2028 2.137 . S
Co2016 O2029 2.244 . S
O2017 Co2016 2.216 . S
O2017 C2024 1.247 . S
O2018 Co2016 2.091 . S
O2018 C2024 1.261 . S
C2019 O2028 1.247 . S
C2019 O2029 1.272 . S
O2020 Co2016 2.004 . S
O2020 C2025 1.259 . S
Co2021 O2022 2.061 . S
Co2021 O2027 2.052 . S
Co2021 O2029 2.135 . S
O2022 Co2021 2.061 . S
O2022 C2025 1.235 . S
C2023 O2026 1.238 . S
C2023 O2027 1.241 . S
C2024 O2017 1.247 . S
C2024 O2018 1.261 . S
C2025 O2020 1.259 . S
C2025 O2022 1.235 . S
O2026 Co2016 2.021 . S
O2026 C2023 1.238 . S
O2027 Co2021 2.052 . S
O2027 C2023 1.241 . S
O2028 Co2016 2.137 . S
O2028 C2019 1.247 . S
O2029 Co2016 2.244 . S
O2029 C2019 1.272 . S
O2029 Co2021 2.135 . S
Co2030 O2031 2.216 . S
Co2030 O2032 2.091 . S
Co2030 O2034 2.004 . S
Co2030 O2040 2.021 . S
Co2030 O2042 2.137 . S
Co2030 O2043 2.244 . S
O2031 Co2030 2.216 . S
O2031 C2038 1.247 . S
O2032 Co2030 2.091 . S
O2032 C2038 1.261 . S
C2033 O2042 1.247 . S
C2033 O2043 1.272 . S
O2034 Co2030 2.004 . S
O2034 C2039 1.259 . S
Co2035 O2036 2.061 . S
Co2035 O2041 2.052 . S
Co2035 O2043 2.135 . S
O2036 Co2035 2.061 . S
O2036 C2039 1.235 . S
C2037 O2040 1.238 . S
C2037 O2041 1.241 . S
C2038 O2031 1.247 . S
C2038 O2032 1.261 . S
C2039 O2034 1.259 . S
C2039 O2036 1.235 . S
O2040 Co2030 2.021 . S
O2040 C2037 1.238 . S
O2041 Co2035 2.052 . S
O2041 C2037 1.241 . S
O2042 Co2030 2.137 . S
O2042 C2033 1.247 . S
O2043 Co2030 2.244 . S
O2043 C2033 1.272 . S
O2043 Co2035 2.135 . S
Co2044 O2045 2.216 . S
Co2044 O2046 2.091 . S
Co2044 O2048 2.004 . S
Co2044 O2054 2.021 . S
Co2044 O2056 2.137 . S
Co2044 O2057 2.244 . S
O2045 Co2044 2.216 . S
O2045 C2052 1.247 . S
O2046 Co2044 2.091 . S
O2046 C2052 1.261 . S
C2047 O2056 1.247 . S
C2047 O2057 1.272 . S
O2048 Co2044 2.004 . S
O2048 C2053 1.259 . S
Co2049 O2050 2.061 . S
Co2049 O2055 2.052 . S
Co2049 O2057 2.135 . S
O2050 Co2049 2.061 . S
O2050 C2053 1.235 . S
C2051 O2054 1.238 . S
C2051 O2055 1.241 . S
C2052 O2045 1.247 . S
C2052 O2046 1.261 . S
C2053 O2048 1.259 . S
C2053 O2050 1.235 . S
O2054 Co2044 2.021 . S
O2054 C2051 1.238 . S
O2055 Co2049 2.052 . S
O2055 C2051 1.241 . S
O2056 Co2044 2.137 . S
O2056 C2047 1.247 . S
O2057 Co2044 2.244 . S
O2057 C2047 1.272 . S
O2057 Co2049 2.135 . S
Co2058 O2059 2.216 . S
Co2058 O2060 2.091 . S
Co2058 O2062 2.004 . S
Co2058 O2068 2.021 . S
Co2058 O2070 2.137 . S
Co2058 O2071 2.244 . S
O2059 Co2058 2.216 . S
O2059 C2066 1.247 . S
O2060 Co2058 2.091 . S
O2060 C2066 1.261 . S
C2061 O2070 1.247 . S
C2061 O2071 1.272 . S
O2062 Co2058 2.004 . S
O2062 C2067 1.259 . S
Co2063 O2064 2.061 . S
Co2063 O2069 2.052 . S
Co2063 O2071 2.135 . S
O2064 Co2063 2.061 . S
O2064 C2067 1.235 . S
C2065 O2068 1.238 . S
C2065 O2069 1.241 . S
C2066 O2059 1.247 . S
C2066 O2060 1.261 . S
C2067 O2062 1.259 . S
C2067 O2064 1.235 . S
O2068 Co2058 2.021 . S
O2068 C2065 1.238 . S
O2069 Co2063 2.052 . S
O2069 C2065 1.241 . S
O2070 Co2058 2.137 . S
O2070 C2061 1.247 . S
O2071 Co2058 2.244 . S
O2071 C2061 1.272 . S
O2071 Co2063 2.135 . S
Co2072 O2073 2.216 . S
Co2072 O2074 2.091 . S
Co2072 O2076 2.004 . S
Co2072 O2082 2.021 . S
Co2072 O2084 2.137 . S
Co2072 O2085 2.244 . S
O2073 Co2072 2.216 . S
O2073 C2080 1.247 . S
O2074 Co2072 2.091 . S
O2074 C2080 1.261 . S
C2075 O2084 1.247 . S
C2075 O2085 1.272 . S
O2076 Co2072 2.004 . S
O2076 C2081 1.259 . S
Co2077 O2078 2.061 . S
Co2077 O2083 2.052 . S
Co2077 O2085 2.135 . S
O2078 Co2077 2.061 . S
O2078 C2081 1.235 . S
C2079 O2082 1.238 . S
C2079 O2083 1.241 . S
C2080 O2073 1.247 . S
C2080 O2074 1.261 . S
C2081 O2076 1.259 . S
C2081 O2078 1.235 . S
O2082 Co2072 2.021 . S
O2082 C2079 1.238 . S
O2083 Co2077 2.052 . S
O2083 C2079 1.241 . S
O2084 Co2072 2.137 . S
O2084 C2075 1.247 . S
O2085 Co2072 2.244 . S
O2085 C2075 1.272 . S
O2085 Co2077 2.135 . S
Co2086 O2087 2.216 . S
Co2086 O2088 2.091 . S
Co2086 O2090 2.004 . S
Co2086 O2096 2.021 . S
Co2086 O2098 2.137 . S
Co2086 O2099 2.244 . S
O2087 Co2086 2.216 . S
O2087 C2094 1.247 . S
O2088 Co2086 2.091 . S
O2088 C2094 1.261 . S
C2089 O2098 1.247 . S
C2089 O2099 1.272 . S
O2090 Co2086 2.004 . S
O2090 C2095 1.259 . S
Co2091 O2092 2.061 . S
Co2091 O2097 2.052 . S
Co2091 O2099 2.135 . S
O2092 Co2091 2.061 . S
O2092 C2095 1.235 . S
C2093 O2096 1.238 . S
C2093 O2097 1.241 . S
C2094 O2087 1.247 . S
C2094 O2088 1.261 . S
C2095 O2090 1.259 . S
C2095 O2092 1.235 . S
O2096 Co2086 2.021 . S
O2096 C2093 1.238 . S
O2097 Co2091 2.052 . S
O2097 C2093 1.241 . S
O2098 Co2086 2.137 . S
O2098 C2089 1.247 . S
O2099 Co2086 2.244 . S
O2099 C2089 1.272 . S
O2099 Co2091 2.135 . S
Co2100 O2101 2.216 . S
Co2100 O2102 2.091 . S
Co2100 O2104 2.004 . S
Co2100 O2110 2.021 . S
Co2100 O2112 2.137 . S
Co2100 O2113 2.244 . S
O2101 Co2100 2.216 . S
O2101 C2108 1.247 . S
O2102 Co2100 2.091 . S
O2102 C2108 1.261 . S
C2103 O2112 1.247 . S
C2103 O2113 1.272 . S
O2104 Co2100 2.004 . S
O2104 C2109 1.259 . S
Co2105 O2106 2.061 . S
Co2105 O2111 2.052 . S
Co2105 O2113 2.135 . S
O2106 Co2105 2.061 . S
O2106 C2109 1.235 . S
C2107 O2110 1.238 . S
C2107 O2111 1.241 . S
C2108 O2101 1.247 . S
C2108 O2102 1.261 . S
C2109 O2104 1.259 . S
C2109 O2106 1.235 . S
O2110 Co2100 2.021 . S
O2110 C2107 1.238 . S
O2111 Co2105 2.052 . S
O2111 C2107 1.241 . S
O2112 Co2100 2.137 . S
O2112 C2103 1.247 . S
O2113 Co2100 2.244 . S
O2113 C2103 1.272 . S
O2113 Co2105 2.135 . S
Co2114 O2115 2.216 . S
Co2114 O2116 2.091 . S
Co2114 O2118 2.004 . S
Co2114 O2124 2.021 . S
Co2114 O2126 2.137 . S
Co2114 O2127 2.244 . S
O2115 Co2114 2.216 . S
O2115 C2122 1.247 . S
O2116 Co2114 2.091 . S
O2116 C2122 1.261 . S
C2117 O2126 1.247 . S
C2117 O2127 1.272 . S
O2118 Co2114 2.004 . S
O2118 C2123 1.259 . S
Co2119 O2120 2.061 . S
Co2119 O2125 2.052 . S
Co2119 O2127 2.135 . S
O2120 Co2119 2.061 . S
O2120 C2123 1.235 . S
C2121 O2124 1.238 . S
C2121 O2125 1.241 . S
C2122 O2115 1.247 . S
C2122 O2116 1.261 . S
C2123 O2118 1.259 . S
C2123 O2120 1.235 . S
O2124 Co2114 2.021 . S
O2124 C2121 1.238 . S
O2125 Co2119 2.052 . S
O2125 C2121 1.241 . S
O2126 Co2114 2.137 . S
O2126 C2117 1.247 . S
O2127 Co2114 2.244 . S
O2127 C2117 1.272 . S
O2127 Co2119 2.135 . S
Co2128 O2129 2.216 . S
Co2128 O2130 2.091 . S
Co2128 O2132 2.004 . S
Co2128 O2138 2.021 . S
Co2128 O2140 2.137 . S
Co2128 O2141 2.244 . S
O2129 Co2128 2.216 . S
O2129 C2136 1.247 . S
O2130 Co2128 2.091 . S
O2130 C2136 1.261 . S
C2131 O2140 1.247 . S
C2131 O2141 1.272 . S
O2132 Co2128 2.004 . S
O2132 C2137 1.259 . S
Co2133 O2134 2.061 . S
Co2133 O2139 2.052 . S
Co2133 O2141 2.135 . S
O2134 Co2133 2.061 . S
O2134 C2137 1.235 . S
C2135 O2138 1.238 . S
C2135 O2139 1.241 . S
C2136 O2129 1.247 . S
C2136 O2130 1.261 . S
C2137 O2132 1.259 . S
C2137 O2134 1.235 . S
O2138 Co2128 2.021 . S
O2138 C2135 1.238 . S
O2139 Co2133 2.052 . S
O2139 C2135 1.241 . S
O2140 Co2128 2.137 . S
O2140 C2131 1.247 . S
O2141 Co2128 2.244 . S
O2141 C2131 1.272 . S
O2141 Co2133 2.135 . S
Co2142 O2143 2.216 . S
Co2142 O2144 2.091 . S
Co2142 O2146 2.004 . S
Co2142 O2152 2.021 . S
Co2142 O2154 2.137 . S
Co2142 O2155 2.244 . S
O2143 Co2142 2.216 . S
O2143 C2150 1.247 . S
O2144 Co2142 2.091 . S
O2144 C2150 1.261 . S
C2145 O2154 1.247 . S
C2145 O2155 1.272 . S
O2146 Co2142 2.004 . S
O2146 C2151 1.259 . S
Co2147 O2148 2.061 . S
Co2147 O2153 2.052 . S
Co2147 O2155 2.135 . S
O2148 Co2147 2.061 . S
O2148 C2151 1.235 . S
C2149 O2152 1.238 . S
C2149 O2153 1.241 . S
C2150 O2143 1.247 . S
C2150 O2144 1.261 . S
C2151 O2146 1.259 . S
C2151 O2148 1.235 . S
O2152 Co2142 2.021 . S
O2152 C2149 1.238 . S
O2153 Co2147 2.052 . S
O2153 C2149 1.241 . S
O2154 Co2142 2.137 . S
O2154 C2145 1.247 . S
O2155 Co2142 2.244 . S
O2155 C2145 1.272 . S
O2155 Co2147 2.135 . S
Co2156 O2157 2.216 . S
Co2156 O2158 2.091 . S
Co2156 O2160 2.004 . S
Co2156 O2166 2.021 . S
Co2156 O2168 2.137 . S
Co2156 O2169 2.244 . S
O2157 Co2156 2.216 . S
O2157 C2164 1.247 . S
O2158 Co2156 2.091 . S
O2158 C2164 1.261 . S
C2159 O2168 1.247 . S
C2159 O2169 1.272 . S
O2160 Co2156 2.004 . S
O2160 C2165 1.259 . S
Co2161 O2162 2.061 . S
Co2161 O2167 2.052 . S
Co2161 O2169 2.135 . S
O2162 Co2161 2.061 . S
O2162 C2165 1.235 . S
C2163 O2166 1.238 . S
C2163 O2167 1.241 . S
C2164 O2157 1.247 . S
C2164 O2158 1.261 . S
C2165 O2160 1.259 . S
C2165 O2162 1.235 . S
O2166 Co2156 2.021 . S
O2166 C2163 1.238 . S
O2167 Co2161 2.052 . S
O2167 C2163 1.241 . S
O2168 Co2156 2.137 . S
O2168 C2159 1.247 . S
O2169 Co2156 2.244 . S
O2169 C2159 1.272 . S
O2169 Co2161 2.135 . S
Co2170 O2171 2.216 . S
Co2170 O2172 2.091 . S
Co2170 O2174 2.004 . S
Co2170 O2180 2.021 . S
Co2170 O2182 2.137 . S
Co2170 O2183 2.244 . S
O2171 Co2170 2.216 . S
O2171 C2178 1.247 . S
O2172 Co2170 2.091 . S
O2172 C2178 1.261 . S
C2173 O2182 1.247 . S
C2173 O2183 1.272 . S
O2174 Co2170 2.004 . S
O2174 C2179 1.259 . S
Co2175 O2176 2.061 . S
Co2175 O2181 2.052 . S
Co2175 O2183 2.135 . S
O2176 Co2175 2.061 . S
O2176 C2179 1.235 . S
C2177 O2180 1.238 . S
C2177 O2181 1.241 . S
C2178 O2171 1.247 . S
C2178 O2172 1.261 . S
C2179 O2174 1.259 . S
C2179 O2176 1.235 . S
O2180 Co2170 2.021 . S
O2180 C2177 1.238 . S
O2181 Co2175 2.052 . S
O2181 C2177 1.241 . S
O2182 Co2170 2.137 . S
O2182 C2173 1.247 . S
O2183 Co2170 2.244 . S
O2183 C2173 1.272 . S
O2183 Co2175 2.135 . S
Co2184 O2185 2.216 . S
Co2184 O2186 2.091 . S
Co2184 O2188 2.004 . S
Co2184 O2194 2.021 . S
Co2184 O2196 2.137 . S
Co2184 O2197 2.244 . S
O2185 Co2184 2.216 . S
O2185 C2192 1.247 . S
O2186 Co2184 2.091 . S
O2186 C2192 1.261 . S
C2187 O2196 1.247 . S
C2187 O2197 1.272 . S
O2188 Co2184 2.004 . S
O2188 C2193 1.259 . S
Co2189 O2190 2.061 . S
Co2189 O2195 2.052 . S
Co2189 O2197 2.135 . S
O2190 Co2189 2.061 . S
O2190 C2193 1.235 . S
C2191 O2194 1.238 . S
C2191 O2195 1.241 . S
C2192 O2185 1.247 . S
C2192 O2186 1.261 . S
C2193 O2188 1.259 . S
C2193 O2190 1.235 . S
O2194 Co2184 2.021 . S
O2194 C2191 1.238 . S
O2195 Co2189 2.052 . S
O2195 C2191 1.241 . S
O2196 Co2184 2.137 . S
O2196 C2187 1.247 . S
O2197 Co2184 2.244 . S
O2197 C2187 1.272 . S
O2197 Co2189 2.135 . S
Co2198 O2199 2.216 . S
Co2198 O2200 2.091 . S
Co2198 O2202 2.004 . S
Co2198 O2208 2.021 . S
Co2198 O2210 2.137 . S
Co2198 O2211 2.244 . S
O2199 Co2198 2.216 . S
O2199 C2206 1.247 . S
O2200 Co2198 2.091 . S
O2200 C2206 1.261 . S
C2201 O2210 1.247 . S
C2201 O2211 1.272 . S
O2202 Co2198 2.004 . S
O2202 C2207 1.259 . S
Co2203 O2204 2.061 . S
Co2203 O2209 2.052 . S
Co2203 O2211 2.135 . S
O2204 Co2203 2.061 . S
O2204 C2207 1.235 . S
C2205 O2208 1.238 . S
C2205 O2209 1.241 . S
C2206 O2199 1.247 . S
C2206 O2200 1.261 . S
C2207 O2202 1.259 . S
C2207 O2204 1.235 . S
O2208 Co2198 2.021 . S
O2208 C2205 1.238 . S
O2209 Co2203 2.052 . S
O2209 C2205 1.241 . S
O2210 Co2198 2.137 . S
O2210 C2201 1.247 . S
O2211 Co2198 2.244 . S
O2211 C2201 1.272 . S
O2211 Co2203 2.135 . S
Co2212 O2213 2.216 . S
Co2212 O2214 2.091 . S
Co2212 O2216 2.004 . S
Co2212 O2222 2.021 . S
Co2212 O2224 2.137 . S
Co2212 O2225 2.244 . S
O2213 Co2212 2.216 . S
O2213 C2220 1.247 . S
O2214 Co2212 2.091 . S
O2214 C2220 1.261 . S
C2215 O2224 1.247 . S
C2215 O2225 1.272 . S
O2216 Co2212 2.004 . S
O2216 C2221 1.259 . S
Co2217 O2218 2.061 . S
Co2217 O2223 2.052 . S
Co2217 O2225 2.135 . S
O2218 Co2217 2.061 . S
O2218 C2221 1.235 . S
C2219 O2222 1.238 . S
C2219 O2223 1.241 . S
C2220 O2213 1.247 . S
C2220 O2214 1.261 . S
C2221 O2216 1.259 . S
C2221 O2218 1.235 . S
O2222 Co2212 2.021 . S
O2222 C2219 1.238 . S
O2223 Co2217 2.052 . S
O2223 C2219 1.241 . S
O2224 Co2212 2.137 . S
O2224 C2215 1.247 . S
O2225 Co2212 2.244 . S
O2225 C2215 1.272 . S
O2225 Co2217 2.135 . S
Co2226 O2227 2.216 . S
Co2226 O2228 2.091 . S
Co2226 O2230 2.004 . S
Co2226 O2236 2.021 . S
Co2226 O2238 2.137 . S
Co2226 O2239 2.244 . S
O2227 Co2226 2.216 . S
O2227 C2234 1.247 . S
O2228 Co2226 2.091 . S
O2228 C2234 1.261 . S
C2229 O2238 1.247 . S
C2229 O2239 1.272 . S
O2230 Co2226 2.004 . S
O2230 C2235 1.259 . S
Co2231 O2232 2.061 . S
Co2231 O2237 2.052 . S
Co2231 O2239 2.135 . S
O2232 Co2231 2.061 . S
O2232 C2235 1.235 . S
C2233 O2236 1.238 . S
C2233 O2237 1.241 . S
C2234 O2227 1.247 . S
C2234 O2228 1.261 . S
C2235 O2230 1.259 . S
C2235 O2232 1.235 . S
O2236 Co2226 2.021 . S
O2236 C2233 1.238 . S
O2237 Co2231 2.052 . S
O2237 C2233 1.241 . S
O2238 Co2226 2.137 . S
O2238 C2229 1.247 . S
O2239 Co2226 2.244 . S
O2239 C2229 1.272 . S
O2239 Co2231 2.135 . S
Co2240 O2241 2.216 . S
Co2240 O2242 2.091 . S
Co2240 O2244 2.004 . S
Co2240 O2250 2.021 . S
Co2240 O2252 2.137 . S
Co2240 O2253 2.244 . S
O2241 Co2240 2.216 . S
O2241 C2248 1.247 . S
O2242 Co2240 2.091 . S
O2242 C2248 1.261 . S
C2243 O2252 1.247 . S
C2243 O2253 1.272 . S
O2244 Co2240 2.004 . S
O2244 C2249 1.259 . S
Co2245 O2246 2.061 . S
Co2245 O2251 2.052 . S
Co2245 O2253 2.135 . S
O2246 Co2245 2.061 . S
O2246 C2249 1.235 . S
C2247 O2250 1.238 . S
C2247 O2251 1.241 . S
C2248 O2241 1.247 . S
C2248 O2242 1.261 . S
C2249 O2244 1.259 . S
C2249 O2246 1.235 . S
O2250 Co2240 2.021 . S
O2250 C2247 1.238 . S
O2251 Co2245 2.052 . S
O2251 C2247 1.241 . S
O2252 Co2240 2.137 . S
O2252 C2243 1.247 . S
O2253 Co2240 2.244 . S
O2253 C2243 1.272 . S
O2253 Co2245 2.135 . S
Co2254 O2255 2.216 . S
Co2254 O2256 2.091 . S
Co2254 O2258 2.004 . S
Co2254 O2264 2.021 . S
Co2254 O2266 2.137 . S
Co2254 O2267 2.244 . S
O2255 Co2254 2.216 . S
O2255 C2262 1.247 . S
O2256 Co2254 2.091 . S
O2256 C2262 1.261 . S
C2257 O2266 1.247 . S
C2257 O2267 1.272 . S
O2258 Co2254 2.004 . S
O2258 C2263 1.259 . S
Co2259 O2260 2.061 . S
Co2259 O2265 2.052 . S
Co2259 O2267 2.135 . S
O2260 Co2259 2.061 . S
O2260 C2263 1.235 . S
C2261 O2264 1.238 . S
C2261 O2265 1.241 . S
C2262 O2255 1.247 . S
C2262 O2256 1.261 . S
C2263 O2258 1.259 . S
C2263 O2260 1.235 . S
O2264 Co2254 2.021 . S
O2264 C2261 1.238 . S
O2265 Co2259 2.052 . S
O2265 C2261 1.241 . S
O2266 Co2254 2.137 . S
O2266 C2257 1.247 . S
O2267 Co2254 2.244 . S
O2267 C2257 1.272 . S
O2267 Co2259 2.135 . S
Co2268 O2269 2.216 . S
Co2268 O2270 2.091 . S
Co2268 O2272 2.004 . S
Co2268 O2278 2.021 . S
Co2268 O2280 2.137 . S
Co2268 O2281 2.244 . S
O2269 Co2268 2.216 . S
O2269 C2276 1.247 . S
O2270 Co2268 2.091 . S
O2270 C2276 1.261 . S
C2271 O2280 1.247 . S
C2271 O2281 1.272 . S
O2272 Co2268 2.004 . S
O2272 C2277 1.259 . S
Co2273 O2274 2.061 . S
Co2273 O2279 2.052 . S
Co2273 O2281 2.135 . S
O2274 Co2273 2.061 . S
O2274 C2277 1.235 . S
C2275 O2278 1.238 . S
C2275 O2279 1.241 . S
C2276 O2269 1.247 . S
C2276 O2270 1.261 . S
C2277 O2272 1.259 . S
C2277 O2274 1.235 . S
O2278 Co2268 2.021 . S
O2278 C2275 1.238 . S
O2279 Co2273 2.052 . S
O2279 C2275 1.241 . S
O2280 Co2268 2.137 . S
O2280 C2271 1.247 . S
O2281 Co2268 2.244 . S
O2281 C2271 1.272 . S
O2281 Co2273 2.135 . S
Co2282 O2283 2.216 . S
Co2282 O2284 2.091 . S
Co2282 O2286 2.004 . S
Co2282 O2292 2.021 . S
Co2282 O2294 2.137 . S
Co2282 O2295 2.244 . S
O2283 Co2282 2.216 . S
O2283 C2290 1.247 . S
O2284 Co2282 2.091 . S
O2284 C2290 1.261 . S
C2285 O2294 1.247 . S
C2285 O2295 1.272 . S
O2286 Co2282 2.004 . S
O2286 C2291 1.259 . S
Co2287 O2288 2.061 . S
Co2287 O2293 2.052 . S
Co2287 O2295 2.135 . S
O2288 Co2287 2.061 . S
O2288 C2291 1.235 . S
C2289 O2292 1.238 . S
C2289 O2293 1.241 . S
C2290 O2283 1.247 . S
C2290 O2284 1.261 . S
C2291 O2286 1.259 . S
C2291 O2288 1.235 . S
O2292 Co2282 2.021 . S
O2292 C2289 1.238 . S
O2293 Co2287 2.052 . S
O2293 C2289 1.241 . S
O2294 Co2282 2.137 . S
O2294 C2285 1.247 . S
O2295 Co2282 2.244 . S
O2295 C2285 1.272 . S
O2295 Co2287 2.135 . S
Co2296 O2297 2.216 . S
Co2296 O2298 2.091 . S
Co2296 O2300 2.004 . S
Co2296 O2306 2.021 . S
Co2296 O2308 2.137 . S
Co2296 O2309 2.244 . S
O2297 Co2296 2.216 . S
O2297 C2304 1.247 . S
O2298 Co2296 2.091 . S
O2298 C2304 1.261 . S
C2299 O2308 1.247 . S
C2299 O2309 1.272 . S
O2300 Co2296 2.004 . S
O2300 C2305 1.259 . S
Co2301 O2302 2.061 . S
Co2301 O2307 2.052 . S
Co2301 O2309 2.135 . S
O2302 Co2301 2.061 . S
O2302 C2305 1.235 . S
C2303 O2306 1.238 . S
C2303 O2307 1.241 . S
C2304 O2297 1.247 . S
C2304 O2298 1.261 . S
C2305 O2300 1.259 . S
C2305 O2302 1.235 . S
O2306 Co2296 2.021 . S
O2306 C2303 1.238 . S
O2307 Co2301 2.052 . S
O2307 C2303 1.241 . S
O2308 Co2296 2.137 . S
O2308 C2299 1.247 . S
O2309 Co2296 2.244 . S
O2309 C2299 1.272 . S
O2309 Co2301 2.135 . S
Co2310 O2311 2.216 . S
Co2310 O2312 2.091 . S
Co2310 O2314 2.004 . S
Co2310 O2320 2.021 . S
Co2310 O2322 2.137 . S
Co2310 O2323 2.244 . S
O2311 Co2310 2.216 . S
O2311 C2318 1.247 . S
O2312 Co2310 2.091 . S
O2312 C2318 1.261 . S
C2313 O2322 1.247 . S
C2313 O2323 1.272 . S
O2314 Co2310 2.004 . S
O2314 C2319 1.259 . S
Co2315 O2316 2.061 . S
Co2315 O2321 2.052 . S
Co2315 O2323 2.135 . S
O2316 Co2315 2.061 . S
O2316 C2319 1.235 . S
C2317 O2320 1.238 . S
C2317 O2321 1.241 . S
C2318 O2311 1.247 . S
C2318 O2312 1.261 . S
C2319 O2314 1.259 . S
C2319 O2316 1.235 . S
O2320 Co2310 2.021 . S
O2320 C2317 1.238 . S
O2321 Co2315 2.052 . S
O2321 C2317 1.241 . S
O2322 Co2310 2.137 . S
O2322 C2313 1.247 . S
O2323 Co2310 2.244 . S
O2323 C2313 1.272 . S
O2323 Co2315 2.135 . S
Co2324 O2325 2.216 . S
Co2324 O2326 2.091 . S
Co2324 O2328 2.004 . S
Co2324 O2334 2.021 . S
Co2324 O2336 2.137 . S
Co2324 O2337 2.244 . S
O2325 Co2324 2.216 . S
O2325 C2332 1.247 . S
O2326 Co2324 2.091 . S
O2326 C2332 1.261 . S
C2327 O2336 1.247 . S
C2327 O2337 1.272 . S
O2328 Co2324 2.004 . S
O2328 C2333 1.259 . S
Co2329 O2330 2.061 . S
Co2329 O2335 2.052 . S
Co2329 O2337 2.135 . S
O2330 Co2329 2.061 . S
O2330 C2333 1.235 . S
C2331 O2334 1.238 . S
C2331 O2335 1.241 . S
C2332 O2325 1.247 . S
C2332 O2326 1.261 . S
C2333 O2328 1.259 . S
C2333 O2330 1.235 . S
O2334 Co2324 2.021 . S
O2334 C2331 1.238 . S
O2335 Co2329 2.052 . S
O2335 C2331 1.241 . S
O2336 Co2324 2.137 . S
O2336 C2327 1.247 . S
O2337 Co2324 2.244 . S
O2337 C2327 1.272 . S
O2337 Co2329 2.135 . S
Co2338 O2339 2.216 . S
Co2338 O2340 2.091 . S
Co2338 O2342 2.004 . S
Co2338 O2348 2.021 . S
Co2338 O2350 2.137 . S
Co2338 O2351 2.244 . S
O2339 Co2338 2.216 . S
O2339 C2346 1.247 . S
O2340 Co2338 2.091 . S
O2340 C2346 1.261 . S
C2341 O2350 1.247 . S
C2341 O2351 1.272 . S
O2342 Co2338 2.004 . S
O2342 C2347 1.259 . S
Co2343 O2344 2.061 . S
Co2343 O2349 2.052 . S
Co2343 O2351 2.135 . S
O2344 Co2343 2.061 . S
O2344 C2347 1.235 . S
C2345 O2348 1.238 . S
C2345 O2349 1.241 . S
C2346 O2339 1.247 . S
C2346 O2340 1.261 . S
C2347 O2342 1.259 . S
C2347 O2344 1.235 . S
O2348 Co2338 2.021 . S
O2348 C2345 1.238 . S
O2349 Co2343 2.052 . S
O2349 C2345 1.241 . S
O2350 Co2338 2.137 . S
O2350 C2341 1.247 . S
O2351 Co2338 2.244 . S
O2351 C2341 1.272 . S
O2351 Co2343 2.135 . S
Co2352 O2353 2.216 . S
Co2352 O2354 2.091 . S
Co2352 O2356 2.004 . S
Co2352 O2362 2.021 . S
Co2352 O2364 2.137 . S
Co2352 O2365 2.244 . S
O2353 Co2352 2.216 . S
O2353 C2360 1.247 . S
O2354 Co2352 2.091 . S
O2354 C2360 1.261 . S
C2355 O2364 1.247 . S
C2355 O2365 1.272 . S
O2356 Co2352 2.004 . S
O2356 C2361 1.259 . S
Co2357 O2358 2.061 . S
Co2357 O2363 2.052 . S
Co2357 O2365 2.135 . S
O2358 Co2357 2.061 . S
O2358 C2361 1.235 . S
C2359 O2362 1.238 . S
C2359 O2363 1.241 . S
C2360 O2353 1.247 . S
C2360 O2354 1.261 . S
C2361 O2356 1.259 . S
C2361 O2358 1.235 . S
O2362 Co2352 2.021 . S
O2362 C2359 1.238 . S
O2363 Co2357 2.052 . S
O2363 C2359 1.241 . S
O2364 Co2352 2.137 . S
O2364 C2355 1.247 . S
O2365 Co2352 2.244 . S
O2365 C2355 1.272 . S
O2365 Co2357 2.135 . S
Co2366 O2367 2.216 . S
Co2366 O2368 2.091 . S
Co2366 O2370 2.004 . S
Co2366 O2376 2.021 . S
Co2366 O2378 2.137 . S
Co2366 O2379 2.244 . S
O2367 Co2366 2.216 . S
O2367 C2374 1.247 . S
O2368 Co2366 2.091 . S
O2368 C2374 1.261 . S
C2369 O2378 1.247 . S
C2369 O2379 1.272 . S
O2370 Co2366 2.004 . S
O2370 C2375 1.259 . S
Co2371 O2372 2.061 . S
Co2371 O2377 2.052 . S
Co2371 O2379 2.135 . S
O2372 Co2371 2.061 . S
O2372 C2375 1.235 . S
C2373 O2376 1.238 . S
C2373 O2377 1.241 . S
C2374 O2367 1.247 . S
C2374 O2368 1.261 . S
C2375 O2370 1.259 . S
C2375 O2372 1.235 . S
O2376 Co2366 2.021 . S
O2376 C2373 1.238 . S
O2377 Co2371 2.052 . S
O2377 C2373 1.241 . S
O2378 Co2366 2.137 . S
O2378 C2369 1.247 . S
O2379 Co2366 2.244 . S
O2379 C2369 1.272 . S
O2379 Co2371 2.135 . S
Co2380 O2381 2.216 . S
Co2380 O2382 2.091 . S
Co2380 O2384 2.004 . S
Co2380 O2390 2.021 . S
Co2380 O2392 2.137 . S
Co2380 O2393 2.244 . S
O2381 Co2380 2.216 . S
O2381 C2388 1.247 . S
O2382 Co2380 2.091 . S
O2382 C2388 1.261 . S
C2383 O2392 1.247 . S
C2383 O2393 1.272 . S
O2384 Co2380 2.004 . S
O2384 C2389 1.259 . S
Co2385 O2386 2.061 . S
Co2385 O2391 2.052 . S
Co2385 O2393 2.135 . S
O2386 Co2385 2.061 . S
O2386 C2389 1.235 . S
C2387 O2390 1.238 . S
C2387 O2391 1.241 . S
C2388 O2381 1.247 . S
C2388 O2382 1.261 . S
C2389 O2384 1.259 . S
C2389 O2386 1.235 . S
O2390 Co2380 2.021 . S
O2390 C2387 1.238 . S
O2391 Co2385 2.052 . S
O2391 C2387 1.241 . S
O2392 Co2380 2.137 . S
O2392 C2383 1.247 . S
O2393 Co2380 2.244 . S
O2393 C2383 1.272 . S
O2393 Co2385 2.135 . S
Co2394 O2395 2.216 . S
Co2394 O2396 2.091 . S
Co2394 O2398 2.004 . S
Co2394 O2404 2.021 . S
Co2394 O2406 2.137 . S
Co2394 O2407 2.244 . S
O2395 Co2394 2.216 . S
O2395 C2402 1.247 . S
O2396 Co2394 2.091 . S
O2396 C2402 1.261 . S
C2397 O2406 1.247 . S
C2397 O2407 1.272 . S
O2398 Co2394 2.004 . S
O2398 C2403 1.259 . S
Co2399 O2400 2.061 . S
Co2399 O2405 2.052 . S
Co2399 O2407 2.135 . S
O2400 Co2399 2.061 . S
O2400 C2403 1.235 . S
C2401 O2404 1.238 . S
C2401 O2405 1.241 . S
C2402 O2395 1.247 . S
C2402 O2396 1.261 . S
C2403 O2398 1.259 . S
C2403 O2400 1.235 . S
O2404 Co2394 2.021 . S
O2404 C2401 1.238 . S
O2405 Co2399 2.052 . S
O2405 C2401 1.241 . S
O2406 Co2394 2.137 . S
O2406 C2397 1.247 . S
O2407 Co2394 2.244 . S
O2407 C2397 1.272 . S
O2407 Co2399 2.135 . S
Co2408 O2409 2.216 . S
Co2408 O2410 2.091 . S
Co2408 O2412 2.004 . S
Co2408 O2418 2.021 . S
Co2408 O2420 2.137 . S
Co2408 O2421 2.244 . S
O2409 Co2408 2.216 . S
O2409 C2416 1.247 . S
O2410 Co2408 2.091 . S
O2410 C2416 1.261 . S
C2411 O2420 1.247 . S
C2411 O2421 1.272 . S
O2412 Co2408 2.004 . S
O2412 C2417 1.259 . S
Co2413 O2414 2.061 . S
Co2413 O2419 2.052 . S
Co2413 O2421 2.135 . S
O2414 Co2413 2.061 . S
O2414 C2417 1.235 . S
C2415 O2418 1.238 . S
C2415 O2419 1.241 . S
C2416 O2409 1.247 . S
C2416 O2410 1.261 . S
C2417 O2412 1.259 . S
C2417 O2414 1.235 . S
O2418 Co2408 2.021 . S
O2418 C2415 1.238 . S
O2419 Co2413 2.052 . S
O2419 C2415 1.241 . S
O2420 Co2408 2.137 . S
O2420 C2411 1.247 . S
O2421 Co2408 2.244 . S
O2421 C2411 1.272 . S
O2421 Co2413 2.135 . S
Co2422 O2423 2.216 . S
Co2422 O2424 2.091 . S
Co2422 O2426 2.004 . S
Co2422 O2432 2.021 . S
Co2422 O2434 2.137 . S
Co2422 O2435 2.244 . S
O2423 Co2422 2.216 . S
O2423 C2430 1.247 . S
O2424 Co2422 2.091 . S
O2424 C2430 1.261 . S
C2425 O2434 1.247 . S
C2425 O2435 1.272 . S
O2426 Co2422 2.004 . S
O2426 C2431 1.259 . S
Co2427 O2428 2.061 . S
Co2427 O2433 2.052 . S
Co2427 O2435 2.135 . S
O2428 Co2427 2.061 . S
O2428 C2431 1.235 . S
C2429 O2432 1.238 . S
C2429 O2433 1.241 . S
C2430 O2423 1.247 . S
C2430 O2424 1.261 . S
C2431 O2426 1.259 . S
C2431 O2428 1.235 . S
O2432 Co2422 2.021 . S
O2432 C2429 1.238 . S
O2433 Co2427 2.052 . S
O2433 C2429 1.241 . S
O2434 Co2422 2.137 . S
O2434 C2425 1.247 . S
O2435 Co2422 2.244 . S
O2435 C2425 1.272 . S
O2435 Co2427 2.135 . S
Co2436 O2437 2.216 . S
Co2436 O2438 2.091 . S
Co2436 O2440 2.004 . S
Co2436 O2446 2.021 . S
Co2436 O2448 2.137 . S
Co2436 O2449 2.244 . S
O2437 Co2436 2.216 . S
O2437 C2444 1.247 . S
O2438 Co2436 2.091 . S
O2438 C2444 1.261 . S
C2439 O2448 1.247 . S
C2439 O2449 1.272 . S
O2440 Co2436 2.004 . S
O2440 C2445 1.259 . S
Co2441 O2442 2.061 . S
Co2441 O2447 2.052 . S
Co2441 O2449 2.135 . S
O2442 Co2441 2.061 . S
O2442 C2445 1.235 . S
C2443 O2446 1.238 . S
C2443 O2447 1.241 . S
C2444 O2437 1.247 . S
C2444 O2438 1.261 . S
C2445 O2440 1.259 . S
C2445 O2442 1.235 . S
O2446 Co2436 2.021 . S
O2446 C2443 1.238 . S
O2447 Co2441 2.052 . S
O2447 C2443 1.241 . S
O2448 Co2436 2.137 . S
O2448 C2439 1.247 . S
O2449 Co2436 2.244 . S
O2449 C2439 1.272 . S
O2449 Co2441 2.135 . S
Co2450 O2451 2.216 . S
Co2450 O2452 2.091 . S
Co2450 O2454 2.004 . S
Co2450 O2460 2.021 . S
Co2450 O2462 2.137 . S
Co2450 O2463 2.244 . S
O2451 Co2450 2.216 . S
O2451 C2458 1.247 . S
O2452 Co2450 2.091 . S
O2452 C2458 1.261 . S
C2453 O2462 1.247 . S
C2453 O2463 1.272 . S
O2454 Co2450 2.004 . S
O2454 C2459 1.259 . S
Co2455 O2456 2.061 . S
Co2455 O2461 2.052 . S
Co2455 O2463 2.135 . S
O2456 Co2455 2.061 . S
O2456 C2459 1.235 . S
C2457 O2460 1.238 . S
C2457 O2461 1.241 . S
C2458 O2451 1.247 . S
C2458 O2452 1.261 . S
C2459 O2454 1.259 . S
C2459 O2456 1.235 . S
O2460 Co2450 2.021 . S
O2460 C2457 1.238 . S
O2461 Co2455 2.052 . S
O2461 C2457 1.241 . S
O2462 Co2450 2.137 . S
O2462 C2453 1.247 . S
O2463 Co2450 2.244 . S
O2463 C2453 1.272 . S
O2463 Co2455 2.135 . S
Co2464 O2465 2.216 . S
Co2464 O2466 2.091 . S
Co2464 O2468 2.004 . S
Co2464 O2474 2.021 . S
Co2464 O2476 2.137 . S
Co2464 O2477 2.244 . S
O2465 Co2464 2.216 . S
O2465 C2472 1.247 . S
O2466 Co2464 2.091 . S
O2466 C2472 1.261 . S
C2467 O2476 1.247 . S
C2467 O2477 1.272 . S
O2468 Co2464 2.004 . S
O2468 C2473 1.259 . S
Co2469 O2470 2.061 . S
Co2469 O2475 2.052 . S
Co2469 O2477 2.135 . S
O2470 Co2469 2.061 . S
O2470 C2473 1.235 . S
C2471 O2474 1.238 . S
C2471 O2475 1.241 . S
C2472 O2465 1.247 . S
C2472 O2466 1.261 . S
C2473 O2468 1.259 . S
C2473 O2470 1.235 . S
O2474 Co2464 2.021 . S
O2474 C2471 1.238 . S
O2475 Co2469 2.052 . S
O2475 C2471 1.241 . S
O2476 Co2464 2.137 . S
O2476 C2467 1.247 . S
O2477 Co2464 2.244 . S
O2477 C2467 1.272 . S
O2477 Co2469 2.135 . S
Co2478 O2479 2.216 . S
Co2478 O2480 2.091 . S
Co2478 O2482 2.004 . S
Co2478 O2488 2.021 . S
Co2478 O2490 2.137 . S
Co2478 O2491 2.244 . S
O2479 Co2478 2.216 . S
O2479 C2486 1.247 . S
O2480 Co2478 2.091 . S
O2480 C2486 1.261 . S
C2481 O2490 1.247 . S
C2481 O2491 1.272 . S
O2482 Co2478 2.004 . S
O2482 C2487 1.259 . S
Co2483 O2484 2.061 . S
Co2483 O2489 2.052 . S
Co2483 O2491 2.135 . S
O2484 Co2483 2.061 . S
O2484 C2487 1.235 . S
C2485 O2488 1.238 . S
C2485 O2489 1.241 . S
C2486 O2479 1.247 . S
C2486 O2480 1.261 . S
C2487 O2482 1.259 . S
C2487 O2484 1.235 . S
O2488 Co2478 2.021 . S
O2488 C2485 1.238 . S
O2489 Co2483 2.052 . S
O2489 C2485 1.241 . S
O2490 Co2478 2.137 . S
O2490 C2481 1.247 . S
O2491 Co2478 2.244 . S
O2491 C2481 1.272 . S
O2491 Co2483 2.135 . S
Co2492 O2493 2.216 . S
Co2492 O2494 2.091 . S
Co2492 O2496 2.004 . S
Co2492 O2502 2.021 . S
Co2492 O2504 2.137 . S
Co2492 O2505 2.244 . S
O2493 Co2492 2.216 . S
O2493 C2500 1.247 . S
O2494 Co2492 2.091 . S
O2494 C2500 1.261 . S
C2495 O2504 1.247 . S
C2495 O2505 1.272 . S
O2496 Co2492 2.004 . S
O2496 C2501 1.259 . S
Co2497 O2498 2.061 . S
Co2497 O2503 2.052 . S
Co2497 O2505 2.135 . S
O2498 Co2497 2.061 . S
O2498 C2501 1.235 . S
C2499 O2502 1.238 . S
C2499 O2503 1.241 . S
C2500 O2493 1.247 . S
C2500 O2494 1.261 . S
C2501 O2496 1.259 . S
C2501 O2498 1.235 . S
O2502 Co2492 2.021 . S
O2502 C2499 1.238 . S
O2503 Co2497 2.052 . S
O2503 C2499 1.241 . S
O2504 Co2492 2.137 . S
O2504 C2495 1.247 . S
O2505 Co2492 2.244 . S
O2505 C2495 1.272 . S
O2505 Co2497 2.135 . S
Co2506 O2507 2.216 . S
Co2506 O2508 2.091 . S
Co2506 O2510 2.004 . S
Co2506 O2516 2.021 . S
Co2506 O2518 2.137 . S
Co2506 O2519 2.244 . S
O2507 Co2506 2.216 . S
O2507 C2514 1.247 . S
O2508 Co2506 2.091 . S
O2508 C2514 1.261 . S
C2509 O2518 1.247 . S
C2509 O2519 1.272 . S
O2510 Co2506 2.004 . S
O2510 C2515 1.259 . S
Co2511 O2512 2.061 . S
Co2511 O2517 2.052 . S
Co2511 O2519 2.135 . S
O2512 Co2511 2.061 . S
O2512 C2515 1.235 . S
C2513 O2516 1.238 . S
C2513 O2517 1.241 . S
C2514 O2507 1.247 . S
C2514 O2508 1.261 . S
C2515 O2510 1.259 . S
C2515 O2512 1.235 . S
O2516 Co2506 2.021 . S
O2516 C2513 1.238 . S
O2517 Co2511 2.052 . S
O2517 C2513 1.241 . S
O2518 Co2506 2.137 . S
O2518 C2509 1.247 . S
O2519 Co2506 2.244 . S
O2519 C2509 1.272 . S
O2519 Co2511 2.135 . S
Co2520 O2521 2.216 . S
Co2520 O2522 2.091 . S
Co2520 O2524 2.004 . S
Co2520 O2530 2.021 . S
Co2520 O2532 2.137 . S
Co2520 O2533 2.244 . S
O2521 Co2520 2.216 . S
O2521 C2528 1.247 . S
O2522 Co2520 2.091 . S
O2522 C2528 1.261 . S
C2523 O2532 1.247 . S
C2523 O2533 1.272 . S
O2524 Co2520 2.004 . S
O2524 C2529 1.259 . S
Co2525 O2526 2.061 . S
Co2525 O2531 2.052 . S
Co2525 O2533 2.135 . S
O2526 Co2525 2.061 . S
O2526 C2529 1.235 . S
C2527 O2530 1.238 . S
C2527 O2531 1.241 . S
C2528 O2521 1.247 . S
C2528 O2522 1.261 . S
C2529 O2524 1.259 . S
C2529 O2526 1.235 . S
O2530 Co2520 2.021 . S
O2530 C2527 1.238 . S
O2531 Co2525 2.052 . S
O2531 C2527 1.241 . S
O2532 Co2520 2.137 . S
O2532 C2523 1.247 . S
O2533 Co2520 2.244 . S
O2533 C2523 1.272 . S
O2533 Co2525 2.135 . S
Co2534 O2535 2.216 . S
Co2534 O2536 2.091 . S
Co2534 O2538 2.004 . S
Co2534 O2544 2.021 . S
Co2534 O2546 2.137 . S
Co2534 O2547 2.244 . S
O2535 Co2534 2.216 . S
O2535 C2542 1.247 . S
O2536 Co2534 2.091 . S
O2536 C2542 1.261 . S
C2537 O2546 1.247 . S
C2537 O2547 1.272 . S
O2538 Co2534 2.004 . S
O2538 C2543 1.259 . S
Co2539 O2540 2.061 . S
Co2539 O2545 2.052 . S
Co2539 O2547 2.135 . S
O2540 Co2539 2.061 . S
O2540 C2543 1.235 . S
C2541 O2544 1.238 . S
C2541 O2545 1.241 . S
C2542 O2535 1.247 . S
C2542 O2536 1.261 . S
C2543 O2538 1.259 . S
C2543 O2540 1.235 . S
O2544 Co2534 2.021 . S
O2544 C2541 1.238 . S
O2545 Co2539 2.052 . S
O2545 C2541 1.241 . S
O2546 Co2534 2.137 . S
O2546 C2537 1.247 . S
O2547 Co2534 2.244 . S
O2547 C2537 1.272 . S
O2547 Co2539 2.135 . S
Co2548 O2549 2.216 . S
Co2548 O2550 2.091 . S
Co2548 O2552 2.004 . S
Co2548 O2558 2.021 . S
Co2548 O2560 2.137 . S
Co2548 O2561 2.244 . S
O2549 Co2548 2.216 . S
O2549 C2556 1.247 . S
O2550 Co2548 2.091 . S
O2550 C2556 1.261 . S
C2551 O2560 1.247 . S
C2551 O2561 1.272 . S
O2552 Co2548 2.004 . S
O2552 C2557 1.259 . S
Co2553 O2554 2.061 . S
Co2553 O2559 2.052 . S
Co2553 O2561 2.135 . S
O2554 Co2553 2.061 . S
O2554 C2557 1.235 . S
C2555 O2558 1.238 . S
C2555 O2559 1.241 . S
C2556 O2549 1.247 . S
C2556 O2550 1.261 . S
C2557 O2552 1.259 . S
C2557 O2554 1.235 . S
O2558 Co2548 2.021 . S
O2558 C2555 1.238 . S
O2559 Co2553 2.052 . S
O2559 C2555 1.241 . S
O2560 Co2548 2.137 . S
O2560 C2551 1.247 . S
O2561 Co2548 2.244 . S
O2561 C2551 1.272 . S
O2561 Co2553 2.135 . S
Co2562 O2563 2.216 . S
Co2562 O2564 2.091 . S
Co2562 O2566 2.004 . S
Co2562 O2572 2.021 . S
Co2562 O2574 2.137 . S
Co2562 O2575 2.244 . S
O2563 Co2562 2.216 . S
O2563 C2570 1.247 . S
O2564 Co2562 2.091 . S
O2564 C2570 1.261 . S
C2565 O2574 1.247 . S
C2565 O2575 1.272 . S
O2566 Co2562 2.004 . S
O2566 C2571 1.259 . S
Co2567 O2568 2.061 . S
Co2567 O2573 2.052 . S
Co2567 O2575 2.135 . S
O2568 Co2567 2.061 . S
O2568 C2571 1.235 . S
C2569 O2572 1.238 . S
C2569 O2573 1.241 . S
C2570 O2563 1.247 . S
C2570 O2564 1.261 . S
C2571 O2566 1.259 . S
C2571 O2568 1.235 . S
O2572 Co2562 2.021 . S
O2572 C2569 1.238 . S
O2573 Co2567 2.052 . S
O2573 C2569 1.241 . S
O2574 Co2562 2.137 . S
O2574 C2565 1.247 . S
O2575 Co2562 2.244 . S
O2575 C2565 1.272 . S
O2575 Co2567 2.135 . S
Co2576 O2577 2.216 . S
Co2576 O2578 2.091 . S
Co2576 O2580 2.004 . S
Co2576 O2586 2.021 . S
Co2576 O2588 2.137 . S
Co2576 O2589 2.244 . S
O2577 Co2576 2.216 . S
O2577 C2584 1.247 . S
O2578 Co2576 2.091 . S
O2578 C2584 1.261 . S
C2579 O2588 1.247 . S
C2579 O2589 1.272 . S
O2580 Co2576 2.004 . S
O2580 C2585 1.259 . S
Co2581 O2582 2.061 . S
Co2581 O2587 2.052 . S
Co2581 O2589 2.135 . S
O2582 Co2581 2.061 . S
O2582 C2585 1.235 . S
C2583 O2586 1.238 . S
C2583 O2587 1.241 . S
C2584 O2577 1.247 . S
C2584 O2578 1.261 . S
C2585 O2580 1.259 . S
C2585 O2582 1.235 . S
O2586 Co2576 2.021 . S
O2586 C2583 1.238 . S
O2587 Co2581 2.052 . S
O2587 C2583 1.241 . S
O2588 Co2576 2.137 . S
O2588 C2579 1.247 . S
O2589 Co2576 2.244 . S
O2589 C2579 1.272 . S
O2589 Co2581 2.135 . S
Co2590 O2591 2.216 . S
Co2590 O2592 2.091 . S
Co2590 O2594 2.004 . S
Co2590 O2600 2.021 . S
Co2590 O2602 2.137 . S
Co2590 O2603 2.244 . S
O2591 Co2590 2.216 . S
O2591 C2598 1.247 . S
O2592 Co2590 2.091 . S
O2592 C2598 1.261 . S
C2593 O2602 1.247 . S
C2593 O2603 1.272 . S
O2594 Co2590 2.004 . S
O2594 C2599 1.259 . S
Co2595 O2596 2.061 . S
Co2595 O2601 2.052 . S
Co2595 O2603 2.135 . S
O2596 Co2595 2.061 . S
O2596 C2599 1.235 . S
C2597 O2600 1.238 . S
C2597 O2601 1.241 . S
C2598 O2591 1.247 . S
C2598 O2592 1.261 . S
C2599 O2594 1.259 . S
C2599 O2596 1.235 . S
O2600 Co2590 2.021 . S
O2600 C2597 1.238 . S
O2601 Co2595 2.052 . S
O2601 C2597 1.241 . S
O2602 Co2590 2.137 . S
O2602 C2593 1.247 . S
O2603 Co2590 2.244 . S
O2603 C2593 1.272 . S
O2603 Co2595 2.135 . S
Co2604 O2605 2.216 . S
Co2604 O2606 2.091 . S
Co2604 O2608 2.004 . S
Co2604 O2614 2.021 . S
Co2604 O2616 2.137 . S
Co2604 O2617 2.244 . S
O2605 Co2604 2.216 . S
O2605 C2612 1.247 . S
O2606 Co2604 2.091 . S
O2606 C2612 1.261 . S
C2607 O2616 1.247 . S
C2607 O2617 1.272 . S
O2608 Co2604 2.004 . S
O2608 C2613 1.259 . S
Co2609 O2610 2.061 . S
Co2609 O2615 2.052 . S
Co2609 O2617 2.135 . S
O2610 Co2609 2.061 . S
O2610 C2613 1.235 . S
C2611 O2614 1.238 . S
C2611 O2615 1.241 . S
C2612 O2605 1.247 . S
C2612 O2606 1.261 . S
C2613 O2608 1.259 . S
C2613 O2610 1.235 . S
O2614 Co2604 2.021 . S
O2614 C2611 1.238 . S
O2615 Co2609 2.052 . S
O2615 C2611 1.241 . S
O2616 Co2604 2.137 . S
O2616 C2607 1.247 . S
O2617 Co2604 2.244 . S
O2617 C2607 1.272 . S
O2617 Co2609 2.135 . S
Co2618 O2619 2.216 . S
Co2618 O2620 2.091 . S
Co2618 O2622 2.004 . S
Co2618 O2628 2.021 . S
Co2618 O2630 2.137 . S
Co2618 O2631 2.244 . S
O2619 Co2618 2.216 . S
O2619 C2626 1.247 . S
O2620 Co2618 2.091 . S
O2620 C2626 1.261 . S
C2621 O2630 1.247 . S
C2621 O2631 1.272 . S
O2622 Co2618 2.004 . S
O2622 C2627 1.259 . S
Co2623 O2624 2.061 . S
Co2623 O2629 2.052 . S
Co2623 O2631 2.135 . S
O2624 Co2623 2.061 . S
O2624 C2627 1.235 . S
C2625 O2628 1.238 . S
C2625 O2629 1.241 . S
C2626 O2619 1.247 . S
C2626 O2620 1.261 . S
C2627 O2622 1.259 . S
C2627 O2624 1.235 . S
O2628 Co2618 2.021 . S
O2628 C2625 1.238 . S
O2629 Co2623 2.052 . S
O2629 C2625 1.241 . S
O2630 Co2618 2.137 . S
O2630 C2621 1.247 . S
O2631 Co2618 2.244 . S
O2631 C2621 1.272 . S
O2631 Co2623 2.135 . S
Co2632 O2633 2.216 . S
Co2632 O2634 2.091 . S
Co2632 O2636 2.004 . S
Co2632 O2642 2.021 . S
Co2632 O2644 2.137 . S
Co2632 O2645 2.244 . S
O2633 Co2632 2.216 . S
O2633 C2640 1.247 . S
O2634 Co2632 2.091 . S
O2634 C2640 1.261 . S
C2635 O2644 1.247 . S
C2635 O2645 1.272 . S
O2636 Co2632 2.004 . S
O2636 C2641 1.259 . S
Co2637 O2638 2.061 . S
Co2637 O2643 2.052 . S
Co2637 O2645 2.135 . S
O2638 Co2637 2.061 . S
O2638 C2641 1.235 . S
C2639 O2642 1.238 . S
C2639 O2643 1.241 . S
C2640 O2633 1.247 . S
C2640 O2634 1.261 . S
C2641 O2636 1.259 . S
C2641 O2638 1.235 . S
O2642 Co2632 2.021 . S
O2642 C2639 1.238 . S
O2643 Co2637 2.052 . S
O2643 C2639 1.241 . S
O2644 Co2632 2.137 . S
O2644 C2635 1.247 . S
O2645 Co2632 2.244 . S
O2645 C2635 1.272 . S
O2645 Co2637 2.135 . S
Co2646 O2647 2.216 . S
Co2646 O2648 2.091 . S
Co2646 O2650 2.004 . S
Co2646 O2656 2.021 . S
Co2646 O2658 2.137 . S
Co2646 O2659 2.244 . S
O2647 Co2646 2.216 . S
O2647 C2654 1.247 . S
O2648 Co2646 2.091 . S
O2648 C2654 1.261 . S
C2649 O2658 1.247 . S
C2649 O2659 1.272 . S
O2650 Co2646 2.004 . S
O2650 C2655 1.259 . S
Co2651 O2652 2.061 . S
Co2651 O2657 2.052 . S
Co2651 O2659 2.135 . S
O2652 Co2651 2.061 . S
O2652 C2655 1.235 . S
C2653 O2656 1.238 . S
C2653 O2657 1.241 . S
C2654 O2647 1.247 . S
C2654 O2648 1.261 . S
C2655 O2650 1.259 . S
C2655 O2652 1.235 . S
O2656 Co2646 2.021 . S
O2656 C2653 1.238 . S
O2657 Co2651 2.052 . S
O2657 C2653 1.241 . S
O2658 Co2646 2.137 . S
O2658 C2649 1.247 . S
O2659 Co2646 2.244 . S
O2659 C2649 1.272 . S
O2659 Co2651 2.135 . S
Co2660 O2661 2.216 . S
Co2660 O2662 2.091 . S
Co2660 O2664 2.004 . S
Co2660 O2670 2.021 . S
Co2660 O2672 2.137 . S
Co2660 O2673 2.244 . S
O2661 Co2660 2.216 . S
O2661 C2668 1.247 . S
O2662 Co2660 2.091 . S
O2662 C2668 1.261 . S
C2663 O2672 1.247 . S
C2663 O2673 1.272 . S
O2664 Co2660 2.004 . S
O2664 C2669 1.259 . S
Co2665 O2666 2.061 . S
Co2665 O2671 2.052 . S
Co2665 O2673 2.135 . S
O2666 Co2665 2.061 . S
O2666 C2669 1.235 . S
C2667 O2670 1.238 . S
C2667 O2671 1.241 . S
C2668 O2661 1.247 . S
C2668 O2662 1.261 . S
C2669 O2664 1.259 . S
C2669 O2666 1.235 . S
O2670 Co2660 2.021 . S
O2670 C2667 1.238 . S
O2671 Co2665 2.052 . S
O2671 C2667 1.241 . S
O2672 Co2660 2.137 . S
O2672 C2663 1.247 . S
O2673 Co2660 2.244 . S
O2673 C2663 1.272 . S
O2673 Co2665 2.135 . S
Co2674 O2675 2.216 . S
Co2674 O2676 2.091 . S
Co2674 O2678 2.004 . S
Co2674 O2684 2.021 . S
Co2674 O2686 2.137 . S
Co2674 O2687 2.244 . S
O2675 Co2674 2.216 . S
O2675 C2682 1.247 . S
O2676 Co2674 2.091 . S
O2676 C2682 1.261 . S
C2677 O2686 1.247 . S
C2677 O2687 1.272 . S
O2678 Co2674 2.004 . S
O2678 C2683 1.259 . S
Co2679 O2680 2.061 . S
Co2679 O2685 2.052 . S
Co2679 O2687 2.135 . S
O2680 Co2679 2.061 . S
O2680 C2683 1.235 . S
C2681 O2684 1.238 . S
C2681 O2685 1.241 . S
C2682 O2675 1.247 . S
C2682 O2676 1.261 . S
C2683 O2678 1.259 . S
C2683 O2680 1.235 . S
O2684 Co2674 2.021 . S
O2684 C2681 1.238 . S
O2685 Co2679 2.052 . S
O2685 C2681 1.241 . S
O2686 Co2674 2.137 . S
O2686 C2677 1.247 . S
O2687 Co2674 2.244 . S
O2687 C2677 1.272 . S
O2687 Co2679 2.135 . S
C1086 C8 1.331 . S
C2444 C22 1.331 . S
C1786 C36 1.331 . S
C400 C50 1.331 . S
C64 C386 1.331 . S
C1016 C78 1.331 . S
C2374 C92 1.331 . S
C1716 C106 1.331 . S
C2682 C120 1.331 . S
C1310 C134 1.331 . S
C148 C652 1.331 . S
C568 C162 1.331 . S
C1296 C176 1.331 . S
C190 C1926 1.331 . S
C596 C204 1.331 . S
C218 C1282 1.331 . S
C498 C232 1.331 . S
C246 C1870 1.331 . S
C260 C540 1.331 . S
C1226 C274 1.331 . S
C288 C1184 1.331 . S
C1142 C302 1.331 . S
C316 C484 1.331 . S
C2472 C330 1.331 . S
C344 C750 1.331 . S
C358 C2108 1.331 . S
C1450 C372 1.331 . S
C414 C680 1.331 . S
C428 C2038 1.331 . S
C1380 C442 1.331 . S
C456 C2346 1.331 . S
C974 C470 1.331 . S
C960 C512 1.331 . S
C526 C1590 1.331 . S
C946 C554 1.331 . S
C1534 C582 1.331 . S
C890 C610 1.331 . S
C624 C848 1.331 . S
C638 C806 1.331 . S
C2136 C666 1.331 . S
C1772 C694 1.331 . S
C2458 C708 1.331 . S
C1072 C722 1.331 . S
C1058 C736 1.331 . S
C1702 C764 1.331 . S
C2388 C778 1.331 . S
C792 C2010 1.331 . S
C1324 C820 1.331 . S
C1240 C834 1.331 . S
C862 C2598 1.331 . S
C876 C1268 1.331 . S
C1170 C904 1.331 . S
C918 C2542 1.331 . S
C932 C1212 1.331 . S
C988 C1156 1.331 . S
C1800 C1002 1.331 . S
C1436 C1030 1.331 . S
C1044 C2122 1.331 . S
C1100 C1366 1.331 . S
C1114 C2052 1.331 . S
C1674 C1128 1.331 . S
C1198 C2262 1.331 . S
C2206 C1254 1.331 . S
C1464 C1338 1.331 . S
C1352 C2430 1.331 . S
C1744 C1394 1.331 . S
C1730 C1408 1.331 . S
C1422 C2360 1.331 . S
C1478 C2654 1.331 . S
C1492 C1996 1.331 . S
C1912 C1506 1.331 . S
C2640 C1520 1.331 . S
C1940 C1548 1.331 . S
C2626 C1562 1.331 . S
C1842 C1576 1.331 . S
C1604 C1884 1.331 . S
C2570 C1618 1.331 . S
C2528 C1632 1.331 . S
C1646 C2486 1.331 . S
C1660 C1828 1.331 . S
C1688 C2094 1.331 . S
C2024 C1758 1.331 . S
C2318 C1814 1.331 . S
C2304 C1856 1.331 . S
C2290 C1898 1.331 . S
C2234 C1954 1.331 . S
C1968 C2192 1.331 . S
C2150 C1982 1.331 . S
C2416 C2066 1.331 . S
C2402 C2080 1.331 . S
C2164 C2668 1.331 . S
C2178 C2584 1.331 . S
C2612 C2220 1.331 . S
C2248 C2514 1.331 . S
C2556 C2276 1.331 . S
C2500 C2332 1.331 . S
C441 C7 1.445 . S
C21 C1071 1.445 . S
C2429 C35 1.445 . S
C1771 C49 1.445 . S
C63 C1029 1.445 . S
C2387 C77 1.445 . S
C91 C1729 1.445 . S
C105 C343 1.445 . S
C119 C1295 1.445 . S
C133 C1925 1.445 . S
C147 C595 1.445 . S
C1281 C161 1.445 . S
C175 C2681 1.445 . S
C1309 C189 1.445 . S
C203 C651 1.445 . S
C567 C217 1.445 . S
C231 C553 1.445 . S
C245 C1813 1.445 . S
C483 C259 1.445 . S
C1169 C273 1.445 . S
C287 C1127 1.445 . S
C301 C1197 1.445 . S
C315 C539 1.445 . S
C2527 C329 1.445 . S
C735 C357 1.445 . S
C371 C2093 1.445 . S
C1435 C385 1.445 . S
C399 C693 1.445 . S
C2051 C413 1.445 . S
C427 C1393 1.445 . S
C455 C959 1.445 . S
C469 C1589 1.445 . S
C497 C945 1.445 . S
C2345 C511 1.445 . S
C525 C973 1.445 . S
C1477 C581 1.445 . S
C833 C609 1.445 . S
C623 C791 1.445 . S
C861 C637 1.445 . S
C665 C2191 1.445 . S
C679 C1113 1.445 . S
C707 C1757 1.445 . S
C2443 C721 1.445 . S
C749 C1715 1.445 . S
C2401 C763 1.445 . S
C777 C1015 1.445 . S
C2597 C805 1.445 . S
C819 C1267 1.445 . S
C2009 C847 1.445 . S
C1323 C875 1.445 . S
C889 C1239 1.445 . S
C903 C1225 1.445 . S
C2485 C917 1.445 . S
C1155 C931 1.445 . S
C1211 C987 1.445 . S
C1001 C1855 1.445 . S
C1043 C1421 1.445 . S
C1057 C2107 1.445 . S
C1379 C1085 1.445 . S
C1099 C2065 1.445 . S
C2261 C1141 1.445 . S
C1673 C1183 1.445 . S
C2149 C1253 1.445 . S
C1519 C1337 1.445 . S
C1351 C1785 1.445 . S
C1365 C2415 1.445 . S
C2373 C1407 1.445 . S
C1687 C1449 1.445 . S
C1463 C2639 1.445 . S
C1491 C1939 1.445 . S
C2625 C1505 1.445 . S
C2653 C1533 1.445 . S
C1547 C1995 1.445 . S
C1561 C1911 1.445 . S
C1897 C1575 1.445 . S
C1827 C1603 1.445 . S
C1617 C2513 1.445 . S
C1631 C2471 1.445 . S
C2541 C1645 1.445 . S
C1883 C1659 1.445 . S
C2079 C1701 1.445 . S
C1743 C2037 1.445 . S
C1799 C2303 1.445 . S
C1841 C2289 1.445 . S
C1869 C2317 1.445 . S
C1953 C2177 1.445 . S
C1967 C2135 1.445 . S
C1981 C2205 1.445 . S
C2457 C2023 1.445 . S
C2359 C2121 1.445 . S
C2163 C2611 1.445 . S
C2219 C2667 1.445 . S
C2583 C2233 1.445 . S
C2569 C2247 1.445 . S
C2499 C2275 1.445 . S
C2555 C2331 1.445 . S
C2635 C3 1.504 1_655 S
C17 C2593 1.504 . S
C31 C1935 1.504 1_556 S
C605 C45 1.504 1_545 S
C59 C1333 1.504 1_455 S
C633 C73 1.504 1_556 S
C1991 C87 1.504 . S
C101 C1235 1.504 1_565 S
C115 C2565 1.504 1_545 S
C1851 C129 1.504 1_455 S
C143 C521 1.504 . S
C157 C1207 1.504 . S
C1809 C171 1.504 . S
C185 C479 1.504 . S
C1165 C199 1.504 1_565 S
C213 C2467 1.504 1_655 S
C227 C1109 1.504 1_554 S
C2369 C241 1.504 . S
C1711 C255 1.504 . S
C381 C269 1.504 1_545 S
C283 C2355 1.504 . S
C297 C409 1.504 1_554 S
C311 C1767 1.504 . S
C1067 C325 1.504 1_655 S
C339 C2299 1.504 1_655 S
C353 C2257 1.504 . S
C367 C1599 1.504 1_554 S
C395 C997 1.504 1_655 S
C1655 C423 1.504 . S
C437 C899 1.504 1_545 S
C2229 C451 1.504 1_545 S
C1515 C465 1.504 1_655 S
C493 C871 1.504 . S
C1473 C507 1.504 . S
C535 C829 1.504 1_565 S
C2131 C549 1.504 1_655 S
C773 C563 1.504 1_554 S
C577 C2033 1.504 . S
C1375 C591 1.504 . S
C2019 C619 1.504 . S
C1431 C647 1.504 . S
C661 C731 1.504 1_655 S
C1963 C675 1.504 1_654 S
C1921 C689 1.504 . S
C703 C2607 1.504 . S
C717 C1277 1.504 . S
C1305 C745 1.504 . S
C759 C2663 1.504 . S
C787 C1893 1.504 . S
C801 C2523 1.504 1_655 S
C1193 C815 1.504 . S
C843 C2481 1.504 . S
C1151 C857 1.504 . S
C1795 C885 1.504 1_465 S
C1697 C913 1.504 . S
C2383 C927 1.504 1_554 S
C941 C1053 1.504 . S
C955 C1683 1.504 1_556 S
C969 C1081 1.504 . S
C2439 C983 1.504 . S
C1011 C1627 1.504 1_654 S
C1585 C1025 1.504 . S
C1039 C2271 1.504 . S
C1095 C2327 1.504 . S
C1557 C1123 1.504 . S
C1137 C2187 1.504 1_455 S
C1179 C2145 1.504 . S
C1221 C1459 1.504 1_465 S
C1361 C1249 1.504 . S
C2047 C1263 1.504 1_556 S
C1291 C1347 1.504 1_554 S
C1319 C2103 1.504 . S
C1949 C1389 1.504 1_545 S
C2677 C1403 1.504 . S
C1977 C1417 1.504 . S
C2579 C1445 1.504 1_546 S
C1865 C1487 1.504 . S
C1501 C2551 1.504 . S
C1823 C1529 1.504 . S
C1543 C2509 1.504 1_545 S
C1571 C2453 1.504 . S
C1613 C1725 1.504 1_565 S
C1641 C1753 1.504 . S
C1669 C2411 1.504 . S
C1739 C2341 1.504 . S
C1781 C2243 1.504 1_546 S
C1837 C2215 1.504 . S
C1879 C2173 1.504 1_565 S
C2117 C1907 1.504 . S
C2075 C2005 1.504 . S
C2621 C2061 1.504 . S
C2649 C2089 1.504 1_556 S
C2537 C2159 1.504 . S
C2201 C2495 1.504 . S
C2285 C2397 1.504 . S
C2425 C2313 1.504 1_556 S
C891 C9 1.440 1_655 S
C23 C1521 1.440 . S
C863 C37 1.440 . S
C1549 C51 1.440 1_545 S
C65 C807 1.440 1_455 S
C1493 C79 1.440 . S
C835 C93 1.440 . S
C107 C1465 1.440 1_565 S
C1451 C121 1.440 1_565 S
C737 C135 1.440 1_455 S
C149 C1423 1.440 . S
C163 C765 1.440 . S
C1367 C177 1.440 . S
C709 C191 1.440 . S
C1395 C205 1.440 1_565 S
C219 C681 1.440 1_655 S
C1633 C233 1.440 1_556 S
C1675 C247 1.440 . S
C261 C1647 1.440 . S
C1661 C275 1.440 . S
C289 C1577 1.440 . S
C1605 C303 1.440 1_556 S
C1619 C317 1.440 . S
C331 C1591 1.440 . S
C1227 C345 1.440 1_455 S
C359 C1857 1.440 . S
C1199 C373 1.440 . S
C387 C1885 1.440 1_545 S
C401 C1143 1.440 1_655 S
C1829 C415 1.440 . S
C429 C1171 1.440 . S
C443 C1801 1.440 1_545 S
C1787 C457 1.440 1_545 S
C1073 C471 1.440 1_655 S
C485 C1759 1.440 . S
C1101 C499 1.440 . S
C513 C1703 1.440 . S
C1045 C527 1.440 . S
C1731 C541 1.440 1_545 S
C555 C1017 1.440 1_455 S
C1969 C569 1.440 1_554 S
C583 C2011 1.440 . S
C1983 C597 1.440 . S
C1997 C611 1.440 . S
C1913 C625 1.440 . S
C639 C1941 1.440 1_556 S
C653 C1955 1.440 . S
C1927 C667 1.440 . S
C2193 C695 1.440 . S
C2221 C723 1.440 . S
C751 C2165 1.440 . S
C2137 C779 1.440 . S
C793 C2123 1.440 . S
C821 C2095 1.440 . S
C2039 C849 1.440 . S
C877 C2067 1.440 . S
C905 C2305 1.440 . S
C2347 C919 1.440 . S
C933 C2319 1.440 1_556 S
C2333 C947 1.440 . S
C2249 C961 1.440 1_554 S
C975 C2277 1.440 . S
C989 C2291 1.440 . S
C2263 C1003 1.440 . S
C2529 C1031 1.440 . S
C2557 C1059 1.440 . S
C2501 C1087 1.440 . S
C2473 C1115 1.440 . S
C1129 C2459 1.440 . S
C2431 C1157 1.440 . S
C2375 C1185 1.440 . S
C2403 C1213 1.440 . S
C1241 C2641 1.440 . S
C2683 C1255 1.440 . S
C1269 C2655 1.440 1_554 S
C2669 C1283 1.440 . S
C1297 C2585 1.440 1_554 S
C1311 C2613 1.440 . S
C2627 C1325 1.440 . S
C2599 C1339 1.440 . S
C2235 C1353 1.440 . S
C1381 C2207 1.440 . S
C2151 C1409 1.440 . S
C1437 C2179 1.440 . S
C1479 C2081 1.440 . S
C1507 C2109 1.440 . S
C2053 C1535 1.440 . S
C1563 C2025 1.440 . S
C2571 C1689 1.440 . S
C2543 C1717 1.440 . S
C2487 C1745 1.440 . S
C2515 C1773 1.440 . S
C2417 C1815 1.440 . S
C1843 C2445 1.440 . S
C1871 C2389 1.440 . S
C2361 C1899 1.440 . S
