# Generated by pormake.
# Topology wme, (6)-cn, num edge types: 1
# Building blocks:
#     Node 0, Type 0, BuildingBlock: KUMBOL_clean_sbu_1, # of connection points: 6
#     Node 1, Type 0, BuildingBlock: KUMBOL_clean_sbu_1, # of connection points: 6
#     Node 2, Type 0, BuildingBlock: KUMBOL_clean_sbu_1, # of connection points: 6
#     Node 3, Type 0, BuildingBlock: KUMBOL_clean_sbu_1, # of connection points: 6
#     Node 4, Type 0, BuildingBlock: KUMBOL_clean_sbu_1, # of connection points: 6
#     Node 5, Type 0, BuildingBlock: KUMBOL_clean_sbu_1, # of connection points: 6
#     Node 6, Type 0, BuildingBlock: KUMBOL_clean_sbu_1, # of connection points: 6
#     Node 7, Type 0, BuildingBlock: KUMBOL_clean_sbu_1, # of connection points: 6
#     Node 8, Type 0, BuildingBlock: KUMBOL_clean_sbu_1, # of connection points: 6
#     Node 9, Type 0, BuildingBlock: KUMBOL_clean_sbu_1, # of connection points: 6
#     Node 10, Type 0, BuildingBlock: KUMBOL_clean_sbu_1, # of connection points: 6
#     Node 11, Type 0, BuildingBlock: KUMBOL_clean_sbu_1, # of connection points: 6
#     Edge 12, Type (0, 0), BuildingBlock: XIVTED_clean_linker_0, # of connection points: 2
#     Edge 13, Type (0, 0), BuildingBlock: XIVTED_clean_linker_0, # of connection points: 2
#     Edge 14, Type (0, 0), BuildingBlock: XIVTED_clean_linker_0, # of connection points: 2
#     Edge 15, Type (0, 0), BuildingBlock: XIVTED_clean_linker_0, # of connection points: 2
#     Edge 16, Type (0, 0), BuildingBlock: XIVTED_clean_linker_0, # of connection points: 2
#     Edge 17, Type (0, 0), BuildingBlock: XIVTED_clean_linker_0, # of connection points: 2
#     Edge 18, Type (0, 0), BuildingBlock: XIVTED_clean_linker_0, # of connection points: 2
#     Edge 19, Type (0, 0), BuildingBlock: XIVTED_clean_linker_0, # of connection points: 2
#     Edge 20, Type (0, 0), BuildingBlock: XIVTED_clean_linker_0, # of connection points: 2
#     Edge 21, Type (0, 0), BuildingBlock: XIVTED_clean_linker_0, # of connection points: 2
#     Edge 22, Type (0, 0), BuildingBlock: XIVTED_clean_linker_0, # of connection points: 2
#     Edge 23, Type (0, 0), BuildingBlock: XIVTED_clean_linker_0, # of connection points: 2
#     Edge 24, Type (0, 0), BuildingBlock: XIVTED_clean_linker_0, # of connection points: 2
#     Edge 25, Type (0, 0), BuildingBlock: XIVTED_clean_linker_0, # of connection points: 2
#     Edge 26, Type (0, 0), BuildingBlock: XIVTED_clean_linker_0, # of connection points: 2
#     Edge 27, Type (0, 0), BuildingBlock: XIVTED_clean_linker_0, # of connection points: 2
#     Edge 28, Type (0, 0), BuildingBlock: XIVTED_clean_linker_0, # of connection points: 2
#     Edge 29, Type (0, 0), BuildingBlock: XIVTED_clean_linker_0, # of connection points: 2
#     Edge 30, Type (0, 0), BuildingBlock: XIVTED_clean_linker_0, # of connection points: 2
#     Edge 31, Type (0, 0), BuildingBlock: XIVTED_clean_linker_0, # of connection points: 2
#     Edge 32, Type (0, 0), BuildingBlock: XIVTED_clean_linker_0, # of connection points: 2
#     Edge 33, Type (0, 0), BuildingBlock: XIVTED_clean_linker_0, # of connection points: 2
#     Edge 34, Type (0, 0), BuildingBlock: XIVTED_clean_linker_0, # of connection points: 2
#     Edge 35, Type (0, 0), BuildingBlock: XIVTED_clean_linker_0, # of connection points: 2
#     Edge 36, Type (0, 0), BuildingBlock: XIVTED_clean_linker_0, # of connection points: 2
#     Edge 37, Type (0, 0), BuildingBlock: XIVTED_clean_linker_0, # of connection points: 2
#     Edge 38, Type (0, 0), BuildingBlock: XIVTED_clean_linker_0, # of connection points: 2
#     Edge 39, Type (0, 0), BuildingBlock: XIVTED_clean_linker_0, # of connection points: 2
#     Edge 40, Type (0, 0), BuildingBlock: XIVTED_clean_linker_0, # of connection points: 2
#     Edge 41, Type (0, 0), BuildingBlock: XIVTED_clean_linker_0, # of connection points: 2
#     Edge 42, Type (0, 0), BuildingBlock: XIVTED_clean_linker_0, # of connection points: 2
#     Edge 43, Type (0, 0), BuildingBlock: XIVTED_clean_linker_0, # of connection points: 2
#     Edge 44, Type (0, 0), BuildingBlock: XIVTED_clean_linker_0, # of connection points: 2
#     Edge 45, Type (0, 0), BuildingBlock: XIVTED_clean_linker_0, # of connection points: 2
#     Edge 46, Type (0, 0), BuildingBlock: XIVTED_clean_linker_0, # of connection points: 2
#     Edge 47, Type (0, 0), BuildingBlock: XIVTED_clean_linker_0, # of connection points: 2
# Relax obj value: 0.061
# Max RMSD: 0.170
# Mean RMSD: 0.170
data_MOF--net-wme--node1-KUMBOL_clean_sbu_1--edge1-XIVTED_clean_linker_0
_symmetry_space_group_name_H-M    P1
_symmetry_Int_Tables_number       1
_symmetry_cell_setting            triclinic
loop_
_symmetry_equiv_pos_as_xyz
'x, y, z'
_cell_length_a     39.659742
_cell_length_b     39.577282
_cell_length_c     53.632416
_cell_angle_alpha  90.042731
_cell_angle_beta   89.998436
_cell_angle_gamma 119.98612
loop_
_atom_site_label
_atom_site_type_symbol
_atom_site_fract_x
_atom_site_fract_y
_atom_site_fract_z
_atom_type_partial_charge
C0 C 0.1167 0.34186 0.07431 0.0
C1 C 0.06301 0.32441 0.1029 0.0
C2 C 0.10292 0.33826 0.09859 0.0
C3 C 0.03734 0.31432 0.08262 0.0
C4 C 0.09088 0.33126 0.05393 0.0
C5 C 0.05122 0.31771 0.05822 0.0
N6 N 0.1551 0.35448 0.07066 0.0
C7 C 0.16966 0.35716 0.04724 0.0
C8 C 0.10562 0.33413 0.02982 0.0
C9 C 0.14515 0.34705 0.02648 0.0
Gd10 Gd 0.23068 0.30516 0.1393 0.0
Gd11 Gd 0.19396 0.37249 0.10646 0.0
N12 N 0.12831 0.34731 0.11793 0.0
C13 C 0.04999 0.32104 0.1275 0.0
C14 C 0.11592 0.34577 0.14187 0.0
C15 C 0.07664 0.33204 0.14703 0.0
H16 H 0.13598 0.35607 0.15713 0.0
H17 H 0.06704 0.33056 0.1661 0.0
H18 H 0.2883 0.31219 0.09088 0.0
H19 H 0.20033 0.36784 0.04449 0.0
H20 H 0.35823 0.34291 0.08167 0.0
H21 H 0.01959 0.31053 0.13158 0.0
H22 H 1.00663 0.30369 0.08562 0.0
H23 H 0.22312 0.31182 0.201 0.0
H24 H 0.0867 0.32627 0.01368 0.0
H25 H 0.1568 0.34939 1.0079 0.0
H26 H 0.41974 0.39277 0.1608 0.0
H27 H 0.03098 0.30954 0.04278 0.0
H28 H 0.33803 0.37175 0.23177 0.0
H29 H 0.26664 0.34003 0.23736 0.0
N30 N 0.26931 0.32931 0.1751 0.0
C31 C 0.30831 0.34535 0.1717 0.0
C32 C 0.2542 0.32667 0.19833 0.0
C33 C 0.31903 0.35979 0.21574 0.0
C34 C 0.27878 0.34206 0.21897 0.0
C35 C 0.33428 0.36145 0.19192 0.0
H36 H 0.39492 0.39131 0.20306 0.0
N37 N 0.29645 0.33067 0.12858 0.0
C38 C 0.3223 0.34613 0.14777 0.0
C39 C 0.37564 0.36268 0.1194 0.0
C40 C 0.36264 0.36306 0.14361 0.0
C41 C 0.30883 0.32799 0.10536 0.0
C42 C 0.34856 0.34458 0.10027 0.0
O43 O 0.15345 0.30733 0.10222 0.0
O44 O 0.16643 0.28484 0.13815 0.0
O45 O 0.22641 0.24956 0.12762 0.0
O46 O 0.21824 0.2608 0.16651 0.0
O47 O 0.20583 0.37942 0.14881 0.0
O48 O 0.1889 0.31713 0.15989 0.0
O49 O 0.26935 0.37164 0.14157 0.0
O50 O 0.25682 0.38954 0.10387 0.0
O51 O 0.19922 0.42652 0.12209 0.0
O52 O 0.20634 0.42068 0.08208 0.0
O53 O 0.21855 0.2965 0.0979 0.0
O54 O 0.23092 0.35602 0.08177 0.0
C55 C 0.14492 0.27916 0.11826 0.0
C56 C 0.19681 0.35234 0.166 0.0
C57 C 0.21097 0.19766 0.15862 0.0
C58 C 0.20162 0.13299 0.15034 0.0
C59 C 0.19427 0.15095 0.19238 0.0
C60 C 0.20293 0.18766 0.18398 0.0
C61 C 0.19362 0.12375 0.1757 0.0
C62 C 0.2102 0.17 0.14167 0.0
C63 C 0.21849 0.23642 0.15044 0.0
C64 C 0.38863 0.37952 0.16368 0.0
C65 C 0.3745 0.37866 0.18776 0.0
H66 H 0.40641 0.37542 0.11542 0.0
C67 C 0.27922 0.39694 0.1233 0.0
C68 C 0.22805 0.32129 0.07929 0.0
C69 C 0.21499 0.48273 0.09512 0.0
C70 C 0.20261 0.53692 0.10017 0.0
C71 C 0.25397 0.54321 0.07253 0.0
C72 C 0.24502 0.50528 0.07828 0.0
C73 C 0.23282 0.5589 0.08329 0.0
C74 C 0.19389 0.49877 0.10631 0.0
C75 C 0.20535 0.44224 0.10002 0.0
H76 H 0.18806 0.14356 0.21191 0.0
H77 H 0.20307 0.20815 0.19743 0.0
H78 H 0.18698 0.09534 0.18259 0.0
H79 H 0.21627 0.17711 0.12207 0.0
H80 H 0.27708 0.56034 0.05945 0.0
H81 H 0.26155 0.4935 0.0695 0.0
H82 H 0.2397 0.58816 0.0782 0.0
H83 H 0.1702 0.48138 0.11902 0.0
C84 C 0.78386 0.1116 0.57664 0.0
C85 C 0.74308 0.06162 0.60643 0.0
C86 C 0.77087 0.10076 0.60101 0.0
C87 C 0.72969 0.03356 0.58733 0.0
C88 C 0.77035 0.08353 0.55741 0.0
C89 C 0.74334 0.04446 0.56291 0.0
N90 N 0.81018 0.14958 0.57183 0.0
C91 C 0.82373 0.16164 0.54824 0.0
C92 C 0.7844 0.0956 0.53319 0.0
C93 C 0.81115 0.13483 0.52859 0.0
Gd94 Gd 0.93208 0.22779 0.63866 0.0
Gd95 Gd 0.82826 0.1925 0.60567 0.0
N96 N 0.78485 0.1285 0.61926 0.0
C97 C 0.72896 0.05193 0.6308 0.0
C98 C 0.76907 0.11954 0.64262 0.0
C99 C 0.74158 0.08113 0.64887 0.0
H100 H 0.7763 0.14179 0.65644 0.0
H101 H 0.72969 0.0742 0.66754 0.0
H102 H 0.98487 0.28459 0.59038 0.0
H103 H 0.84378 0.19205 0.54445 0.0
H104 H 0.02393 0.35446 0.58062 0.0
H105 H 0.70755 0.02224 0.6357 0.0
H106 H 0.7085 1.00337 0.59122 0.0
H107 H 0.91788 0.22132 0.70026 0.0
H108 H 0.77466 0.07491 0.5179 0.0
H109 H 0.82192 0.14447 0.50989 0.0
H110 H 0.03393 0.41763 0.65889 0.0
H111 H 0.73261 0.02249 0.54838 0.0
H112 H 0.97283 0.337 0.73028 0.0
H113 H 0.93311 0.26555 0.73631 0.0
N114 N 0.94679 0.26716 0.67415 0.0
C115 C 0.96986 0.30619 0.67052 0.0
C116 C 0.9342 0.25242 0.69742 0.0
C117 C 0.96588 0.31769 0.7144 0.0
C118 C 0.94332 0.2774 0.71788 0.0
C119 C 0.97961 0.33257 0.69053 0.0
H120 H 0.01025 0.39353 0.70122 0.0
N121 N 0.97297 0.29349 0.62758 0.0
C122 C 0.98316 0.31976 0.64654 0.0
C123 C 0.02051 0.37267 0.61794 0.0
C124 C 1.00669 0.36011 0.64213 0.0
C125 C 0.98884 0.30544 0.60449 0.0
C126 C 0.01205 0.34515 0.59914 0.0
O127 O 0.85432 0.15342 0.60057 0.0
O128 O 0.88835 0.16333 0.63695 0.0
O129 O 0.98319 0.22322 0.62695 0.0
O130 O 0.96397 0.21534 0.66584 0.0
O131 O 0.83358 0.20358 0.64813 0.0
O132 O 0.87811 0.18532 0.65901 0.0
O133 O 0.90413 0.26615 0.64194 0.0
O134 O 0.87352 0.25576 0.6043 0.0
O135 O 0.77876 0.1986 0.61808 0.0
O136 O 0.79417 0.20345 0.57857 0.0
O137 O 0.92833 0.21692 0.59709 0.0
O138 O 0.8818 0.23056 0.58147 0.0
C139 C 0.87179 0.14275 0.61686 0.0
C140 C 0.85024 0.19239 0.66506 0.0
C141 C 0.01939 0.2074 0.658 0.0
C142 C 0.07698 0.20155 0.65052 0.0
C143 C 0.04695 0.18737 0.69148 0.0
C144 C 0.01904 0.19599 0.6829 0.0
C145 C 0.07576 0.19018 0.67546 0.0
C146 C 0.04845 0.20986 0.64162 0.0
C147 C 0.98847 0.2154 0.64978 0.0
C148 C 0.01603 0.38652 0.66197 0.0
C149 C 1.00259 0.37279 0.6861 0.0
H150 H 0.03862 0.40342 0.61377 0.0
C151 C 0.88967 0.27746 0.62389 0.0
C152 C 0.91346 0.22755 0.57881 0.0
C153 C 0.73786 0.20975 0.58875 0.0
C154 C 0.67253 0.20005 0.59557 0.0
C155 C 0.71136 0.23843 0.5604 0.0
C156 C 0.74146 0.23197 0.56748 0.0
C157 C 0.6772 0.22271 0.57434 0.0
C158 C 0.70305 0.19354 0.60285 0.0
C159 C 0.77028 0.20304 0.59531 0.0
H160 H 0.04627 0.1785 0.71064 0.0
H161 H 0.99696 0.19346 0.69587 0.0
H162 H 0.09728 0.18337 0.68255 0.0
H163 H 0.04917 0.21847 0.62236 0.0
H164 H 0.71449 0.25565 0.54399 0.0
H165 H 0.76773 0.24454 0.55632 0.0
H166 H 0.65409 0.22795 0.5684 0.0
H167 H 0.69964 0.17595 0.61916 0.0
C168 C 0.68054 0.78167 0.07521 0.0
C169 C 0.70092 0.74822 0.10416 0.0
C170 C 0.68471 0.77227 0.09956 0.0
C171 C 0.71297 0.73403 0.08407 0.0
C172 C 0.69273 0.76756 0.055 0.0
C173 C 0.7089 0.74367 0.05957 0.0
N174 N 0.66525 0.8052 0.07131 0.0
C175 C 0.66085 0.81539 0.04776 0.0
C176 C 0.68853 0.77809 0.03077 0.0
C177 C 0.67246 0.80208 0.02714 0.0
Gd178 Gd 0.70822 0.92991 0.14235 0.0
Gd179 Gd 0.64606 0.82558 0.10683 0.0
N180 N 0.67362 0.78722 0.1187 0.0
C181 C 0.70455 0.7391 0.12884 0.0
C182 C 0.67545 0.7768 0.1427 0.0
C183 C 0.69143 0.75318 0.14815 0.0
H184 H 0.66389 0.78557 0.15779 0.0
H185 H 0.69314 0.74543 0.16728 0.0
H186 H 0.67743 0.96399 0.09477 0.0
H187 H 0.64741 0.83297 0.04486 0.0
H188 H 0.64672 1.00405 0.08916 0.0
H189 H 0.71685 0.72074 0.13314 0.0
H190 H 0.72552 0.71558 0.08729 0.0
H191 H 0.7075 0.91413 0.20376 0.0
H192 H 0.6975 0.7678 0.01476 0.0
H193 H 0.66879 0.81011 1.00848 0.0
H194 H 0.62354 0.03127 0.17257 0.0
H195 H 0.7184 0.73255 0.04427 0.0
H196 H 0.6568 0.97432 0.24018 0.0
H197 H 0.68653 0.93233 0.2424 0.0
N198 N 0.68781 0.9436 0.17999 0.0
C199 C 0.67178 0.96689 0.17829 0.0
C200 C 0.69326 0.93125 0.20259 0.0
C201 C 0.6654 0.9659 0.22316 0.0
C202 C 0.68202 0.94206 0.2245 0.0
C203 C 0.66004 0.97859 0.19989 0.0
H204 H 0.63402 0.01163 0.21402 0.0
N205 N 0.67627 0.96519 0.13421 0.0
C206 C 0.66612 0.97827 0.1548 0.0
C207 C 0.64142 0.01071 0.12858 0.0
C208 C 0.64823 1.00123 0.15249 0.0
C209 C 0.6697 0.9744 0.11092 0.0
C210 C 0.65208 0.9971 0.10773 0.0
O211 O 0.71144 0.85314 0.10495 0.0
O212 O 0.73124 0.88785 0.14159 0.0
O213 O 0.76046 0.98322 0.12895 0.0
O214 O 0.75385 0.96507 0.16811 0.0
O215 O 0.63656 0.82865 0.14906 0.0
O216 O 0.69705 0.87576 0.16215 0.0
O217 O 0.64184 0.90153 0.14326 0.0
O218 O 0.6308 0.87245 0.10566 0.0
O219 O 0.59206 0.77557 0.12159 0.0
O220 O 0.59847 0.7905 0.08193 0.0
O221 O 0.71973 0.92865 0.10126 0.0
O222 O 0.66459 0.87941 0.08165 0.0
C223 C 0.73815 0.87227 0.12194 0.0
C224 C 0.66187 0.84746 0.16708 0.0
C225 C 0.81201 0.02517 0.15875 0.0
C226 C 0.87926 0.07503 0.1507 0.0
C227 C 0.85096 0.07016 0.19158 0.0
C228 C 0.81595 0.03885 0.18338 0.0
C229 C 0.8825 0.08807 0.17539 0.0
C230 C 0.84377 0.04366 0.14221 0.0
C231 C 0.77521 0.99048 0.15139 0.0
C232 C 0.63714 0.01346 0.174 0.0
C233 C 0.64306 1.00222 0.19762 0.0
H234 H 0.62764 0.02819 0.12603 0.0
C235 C 0.61767 0.88147 0.12524 0.0
C236 C 0.69764 0.91371 0.08142 0.0
C237 C 0.53628 0.73647 0.09382 0.0
C238 C 0.48102 0.67034 0.09847 0.0
C239 C 0.47633 0.71657 0.07099 0.0
C240 C 0.51443 0.74478 0.07687 0.0
C241 C 0.45973 0.67956 0.08165 0.0
C242 C 0.51937 0.69904 0.10477 0.0
C243 C 0.57683 0.76675 0.09935 0.0
H244 H 0.85378 0.08035 0.21061 0.0
H245 H 0.79193 0.02513 0.19641 0.0
H246 H 0.9097 0.1121 0.18219 0.0
H247 H 0.84131 0.03312 0.12326 0.0
H248 H 0.45973 0.72327 0.05789 0.0
H249 H 0.52684 0.77313 0.06806 0.0
H250 H 0.43032 0.6578 0.07647 0.0
H251 H 0.53615 0.69201 0.11754 0.0
C252 C 0.90491 0.67967 0.57673 0.0
C253 C 0.95736 0.69735 0.60637 0.0
C254 C 0.91731 0.68106 0.60115 0.0
C255 C 0.98457 0.71272 0.58687 0.0
C256 C 0.93213 0.69496 0.5571 0.0
C257 C 0.972 0.71149 0.56231 0.0
N258 N 0.86624 0.66436 0.57228 0.0
C259 C 0.8527 0.66282 0.54868 0.0
C260 C 0.91848 0.69348 0.53282 0.0
C261 C 0.87859 0.67729 0.5286 0.0
Gd262 Gd 0.78808 0.70795 0.63955 0.0
Gd263 Gd 0.82496 0.64091 0.60693 0.0
N264 N 0.89029 0.66669 0.61976 0.0
C265 C 0.96889 0.69738 0.63101 0.0
C266 C 0.90135 0.66423 0.6435 0.0
C267 C 0.9407 0.68023 0.64957 0.0
H268 H 0.88024 0.64898 0.65782 0.0
H269 H 0.94922 0.67878 0.66854 0.0
H270 H 0.7346 0.70959 0.59085 0.0
H271 H 0.82186 0.65002 0.54528 0.0
H272 H 0.66556 0.67957 0.57924 0.0
H273 H 0.99935 0.70968 0.63578 0.0
H274 H 0.01542 0.72546 0.59058 0.0
H275 H 0.79066 0.6968 0.70109 0.0
H276 H 0.93848 0.70482 0.51723 0.0
H277 H 0.86776 0.67593 0.50989 0.0
H278 H 0.59749 0.61914 0.65487 0.0
H279 H 0.99335 0.72342 0.54747 0.0
H280 H 0.67345 0.63402 0.72794 0.0
H281 H 0.74434 0.6656 0.73582 0.0
N282 N 0.74657 0.68136 0.67389 0.0
C283 C 0.70787 0.66556 0.66928 0.0
C284 C 0.75984 0.68216 0.69744 0.0
C285 C 0.69369 0.64738 0.71264 0.0
C286 C 0.73366 0.66503 0.71716 0.0
C287 C 0.68032 0.64764 0.6885 0.0
H288 H 0.61886 0.61654 0.69754 0.0
N289 N 0.72327 0.68438 0.62695 0.0
C290 C 0.69586 0.66681 0.64509 0.0
C291 C 0.64496 0.65401 0.61546 0.0
C292 C 0.65592 0.65053 0.6397 0.0
C293 C 0.71288 0.69094 0.60403 0.0
C294 C 0.67363 0.675 0.59769 0.0
O295 O 0.86105 0.70616 0.60101 0.0
O296 O 0.85258 0.72904 0.63824 0.0
O297 O 0.79397 0.76411 0.62833 0.0
O298 O 0.79859 0.75124 0.66749 0.0
O299 O 0.81425 0.63494 0.64943 0.0
O300 O 0.83055 0.69726 0.66049 0.0
O301 O 0.75091 0.64162 0.64326 0.0
O302 O 0.7613 0.62116 0.60569 0.0
O303 O 0.82173 0.58686 0.62046 0.0
O304 O 0.8136 0.59462 0.58091 0.0
O305 O 0.79856 0.71476 0.59793 0.0
O306 O 0.78561 0.65449 0.58273 0.0
C307 C 0.87352 0.73293 0.61836 0.0
C308 C 0.82412 0.66247 0.66649 0.0
C309 C 0.80646 0.81477 0.6594 0.0
C310 C 0.81919 0.88043 0.65046 0.0
C311 C 0.81664 0.85972 0.6933 0.0
C312 C 0.80904 0.82322 0.68505 0.0
C313 C 0.82171 0.8882 0.67613 0.0
C314 C 0.81157 0.84366 0.642 0.0
C315 C 0.79978 0.77627 0.65138 0.0
C316 C 0.62832 0.63202 0.65871 0.0
C317 C 0.64049 0.63063 0.68304 0.0
H318 H 0.61457 0.64189 0.61055 0.0
C319 C 0.73957 0.6158 0.62523 0.0
C320 C 0.78803 0.68889 0.57985 0.0
C321 C 0.80803 0.53287 0.59198 0.0
C322 C 0.82057 0.47892 0.59773 0.0
C323 C 0.77424 0.47454 0.56649 0.0
C324 C 0.78145 0.51168 0.57295 0.0
C325 C 0.79373 0.45827 0.57873 0.0
C326 C 0.82753 0.51627 0.60456 0.0
C327 C 0.81523 0.57228 0.59804 0.0
H328 H 0.81861 0.86595 0.71307 0.0
H329 H 0.80533 0.80165 0.69884 0.0
H330 H 0.82747 0.91643 0.68287 0.0
H331 H 0.80971 0.83771 0.62216 0.0
H332 H 0.7537 0.45844 0.55179 0.0
H333 H 0.76609 0.52382 0.5631 0.0
H334 H 0.7882 0.42961 0.57316 0.0
H335 H 0.84852 0.53253 0.61906 0.0
C336 C 0.23746 0.89732 0.07527 0.0
C337 C 0.27504 0.94974 0.10448 0.0
C338 C 0.24863 0.91 0.09964 0.0
C339 C 0.28935 0.97646 0.08465 0.0
C340 C 0.25217 0.92396 0.05529 0.0
C341 C 0.27808 0.96358 0.06012 0.0
N342 N 0.21172 0.85895 0.07117 0.0
C343 C 0.1998 0.84512 0.0476 0.0
C344 C 0.24018 0.90998 0.03103 0.0
C345 C 0.2139 0.87039 0.02718 0.0
Gd346 Gd 0.08841 0.78841 0.13943 0.0
Gd347 Gd 0.19063 0.81849 0.10626 0.0
N348 N 0.23367 0.88351 0.11853 0.0
C349 C 0.28673 0.96141 0.12909 0.0
C350 C 0.24706 0.89445 0.1423 0.0
C351 C 0.27312 0.93353 0.14801 0.0
H352 H 0.23891 0.87335 0.15694 0.0
H353 H 0.2831 0.94202 0.16698 0.0
H354 H 0.03798 0.72839 0.09169 0.0
H355 H 0.1799 0.81444 0.04448 0.0
H356 H 0.99604 0.65813 0.0843 0.0
H357 H 0.307 0.99164 0.13358 0.0
H358 H 0.3094 0.00713 0.08808 0.0
H359 H 0.10098 0.79997 0.20099 0.0
H360 H 0.25099 0.9295 0.01516 0.0
H361 H 0.20457 0.8593 1.00849 0.0
H362 H 0.97832 0.60132 0.16569 0.0
H363 H 0.28955 0.98452 0.04501 0.0
H364 H 0.03987 0.68711 0.235 0.0
H365 H 0.0825 0.75866 0.23875 0.0
N366 N 0.07037 0.75222 0.17635 0.0
C367 C 0.04604 0.71315 0.17389 0.0
C368 C 0.08302 0.76874 0.19923 0.0
C369 C 0.04807 0.7051 0.21842 0.0
C370 C 0.07223 0.74546 0.22061 0.0
C371 C 0.03453 0.68845 0.19487 0.0
H372 H 1.00118 0.62859 0.20758 0.0
N373 N 0.04541 0.72234 0.13026 0.0
C374 C 0.03309 0.69775 0.15019 0.0
C375 C 0.99558 0.64289 0.1229 0.0
C376 C 1.00835 0.65728 0.14698 0.0
C377 C 0.03123 0.70872 0.10702 0.0
C378 C 1.00668 0.66882 0.10289 0.0
O379 O 0.16701 0.85949 0.10051 0.0
O380 O 0.1365 0.85138 0.13784 0.0
O381 O 0.04231 0.79743 0.12498 0.0
O382 O 0.05711 0.80625 0.16426 0.0
O383 O 0.1854 0.80727 0.14883 0.0
O384 O 0.14318 0.82835 0.15969 0.0
O385 O 0.11144 0.74559 0.14243 0.0
O386 O 0.14167 0.7571 0.10491 0.0
O387 O 0.23841 0.81103 0.11976 0.0
O388 O 0.22129 0.80014 0.08113 0.0
O389 O 0.09163 0.79812 0.09776 0.0
O390 O 0.13688 0.78304 0.08168 0.0
C391 C 0.15118 0.87124 0.11727 0.0
C392 C 0.16892 0.81843 0.16592 0.0
C393 C 0.99282 0.78852 0.15313 0.0
C394 C 0.93287 0.79092 0.15039 0.0
C395 C 0.93468 0.7397 0.17422 0.0
C396 C 0.97388 0.75506 0.1681 0.0
C397 C 0.91415 0.75738 0.16531 0.0
C398 C 0.9723 0.80653 0.14443 0.0
C399 C 0.03412 0.80588 0.14683 0.0
C400 C 0.99714 0.63253 0.16782 0.0
C401 C 0.01015 0.64807 0.19169 0.0
H402 H 0.9766 0.61197 0.11963 0.0
C403 C 0.12719 0.73535 0.12456 0.0
C404 C 0.10625 0.78783 0.07916 0.0
C405 C 0.28856 0.82815 0.09004 0.0
C406 C 0.35698 0.84749 0.0957 0.0
C407 C 0.33804 0.87635 0.06259 0.0
C408 C 0.2992 0.85399 0.06972 0.0
C409 C 0.36681 0.87318 0.07549 0.0
C410 C 0.31776 0.8249 0.10301 0.0
C411 C 0.24726 0.80452 0.09758 0.0
H412 H 0.92019 0.71408 0.18593 0.0
H413 H 0.98938 0.74101 0.17515 0.0
H414 H 0.88379 0.74522 0.17031 0.0
H415 H 0.98691 0.83252 0.13296 0.0
H416 H 0.34585 0.89601 0.04688 0.0
H417 H 0.27758 0.85682 0.05913 0.0
H418 H 0.39682 0.89045 0.06949 0.0
H419 H 0.31005 0.80485 0.11854 0.0
C420 C 0.33717 0.22873 0.57711 0.0
C421 C 0.31954 0.26357 0.60681 0.0
C422 C 0.33592 0.23985 0.60155 0.0
C423 C 0.30406 0.27538 0.58735 0.0
C424 C 0.32173 0.2406 0.55752 0.0
C425 C 0.3052 0.26398 0.56278 0.0
N426 N 0.35231 0.20516 0.57262 0.0
C427 C 0.35365 0.19301 0.54903 0.0
C428 C 0.32298 0.22825 0.53324 0.0
C429 C 0.33908 0.20441 0.52898 0.0
Gd430 Gd 0.30787 0.08338 0.63959 0.0
Gd431 Gd 0.37611 0.18757 0.60721 0.0
N432 N 0.35028 0.22713 0.62015 0.0
C433 C 0.3194 0.27496 0.63148 0.0
C434 C 0.35256 0.24048 0.64393 0.0
C435 C 0.33649 0.26381 0.65004 0.0
H436 H 0.36769 0.23446 0.65827 0.0
H437 H 0.3378 0.27366 0.66903 0.0
H438 H 0.30494 0.02682 0.59145 0.0
H439 H 0.36635 0.17482 0.54561 0.0
H440 H 0.33281 0.98547 0.58053 0.0
H441 H 0.30701 0.29308 0.63629 0.0
H442 H 0.29124 0.29346 0.59109 0.0
H443 H 0.31767 0.09691 0.7012 0.0
H444 H 0.31153 0.23687 0.51767 0.0
H445 H 0.34026 0.1948 0.51027 0.0
H446 H 0.39097 0.97638 0.65684 0.0
H447 H 0.29313 0.27334 0.54797 0.0
H448 H 0.37752 0.04 0.7292 0.0
H449 H 0.34743 0.08094 0.7364 0.0
N450 N 0.33273 0.06737 0.67438 0.0
C451 C 0.34767 0.04357 0.67014 0.0
C452 C 0.33179 0.08011 0.69784 0.0
C453 C 0.36487 0.04732 0.71369 0.0
C454 C 0.34806 0.07056 0.71783 0.0
C455 C 0.3646 0.03329 0.68965 0.0
H456 H 0.39391 1.0013 0.6993 0.0
N457 N 0.32977 0.04042 0.62766 0.0
C458 C 0.34636 0.0299 0.64606 0.0
C459 C 0.35761 0.98996 0.61696 0.0
C460 C 0.36138 1.00496 0.64109 0.0
C461 C 0.32292 0.02306 0.60483 0.0
C462 C 0.33761 0.99846 0.59889 0.0
O463 O 0.31088 0.15844 0.6011 0.0
O464 O 0.28831 0.12808 0.63851 0.0
O465 O 0.25103 0.03424 0.62777 0.0
O466 O 0.26387 0.05144 0.66699 0.0
O467 O 0.38231 0.18277 0.64967 0.0
O468 O 0.32001 0.13714 0.66069 0.0
O469 O 0.37385 0.11079 0.64364 0.0
O470 O 0.39638 0.14391 0.60687 0.0
O471 O 0.4296 0.23925 0.62038 0.0
O472 O 0.42233 0.22203 0.58108 0.0
O473 O 0.3025 0.08765 0.59784 0.0
O474 O 0.36316 0.13448 0.58315 0.0
C475 C 0.28432 0.14491 0.61855 0.0
C476 C 0.35499 0.16496 0.66677 0.0
C477 C 0.1993 0.99832 0.65882 0.0
C478 C 0.13546 0.94179 0.6509 0.0
C479 C 0.15086 0.97197 0.69183 0.0
C480 C 0.18789 0.99922 0.68355 0.0
C481 C 0.12481 0.94337 0.67565 0.0
C482 C 0.17272 0.96955 0.64232 0.0
C483 C 0.23853 0.02841 0.65074 0.0
C484 C 0.37897 0.99524 0.66038 0.0
C485 C 0.38057 0.00935 0.68458 0.0
H486 H 0.36878 0.97072 0.61236 0.0
C487 C 0.40116 0.12761 0.62666 0.0
C488 C 0.32906 0.10223 0.58017 0.0
C489 C 0.48339 0.27941 0.59188 0.0
C490 C 0.53692 0.34611 0.5978 0.0
C491 C 0.54091 0.30503 0.56565 0.0
C492 C 0.50421 0.2747 0.57231 0.0
C493 C 0.55713 0.34054 0.57823 0.0
C494 C 0.5 0.3153 0.60483 0.0
C495 C 0.4443 0.24677 0.59801 0.0
H496 H 0.14235 0.97299 0.71086 0.0
H497 H 0.20751 0.02123 0.69657 0.0
H498 H 0.09614 0.92227 0.68247 0.0
H499 H 0.18095 0.96844 0.6232 0.0
H500 H 0.5567 0.3011 0.55052 0.0
H501 H 0.49212 0.24741 0.56215 0.0
H502 H 0.58545 0.36398 0.57252 0.0
H503 H 0.48406 0.31954 0.61976 0.0
C504 C 0.68369 0.90177 0.44096 0.0
C505 C 0.69869 0.9539 0.41145 0.0
C506 C 0.68505 0.91413 0.41649 0.0
C507 C 0.71064 0.9808 0.43118 0.0
C508 C 0.69606 0.92883 0.46078 0.0
C509 C 0.70926 0.9683 0.45576 0.0
N510 N 0.67116 0.86348 0.44532 0.0
C511 C 0.67026 0.85025 0.46896 0.0
C512 C 0.695 0.91545 0.48508 0.0
C513 C 0.68215 0.87601 0.48916 0.0
Gd514 Gd 0.70891 0.77839 0.37773 0.0
Gd515 Gd 0.64715 0.82221 0.41067 0.0
N516 N 0.67339 0.88742 0.39767 0.0
C517 C 0.69966 0.9655 0.38671 0.0
C518 C 0.67259 0.89847 0.37367 0.0
C519 C 0.68637 0.93762 0.36778 0.0
H520 H 0.66024 0.87744 0.35895 0.0
H521 H 0.68595 0.94614 0.34866 0.0
H522 H 0.68781 0.71748 0.42657 0.0
H523 H 0.65919 0.81962 0.47241 0.0
H524 H 0.65469 0.64681 0.4342 0.0
H525 H 0.70995 0.99576 0.38209 0.0
H526 H 0.72099 0.01139 0.42762 0.0
H527 H 0.70771 0.78992 0.31594 0.0
H528 H 0.70408 0.93531 0.5008 0.0
H529 H 0.68103 0.86536 0.5079 0.0
H530 H 0.61718 0.59034 0.35258 0.0
H531 H 0.71866 0.98945 0.47077 0.0
H532 H 0.64815 0.6764 0.28273 0.0
H533 H 0.68189 0.74826 0.2785 0.0
N534 N 0.68637 0.74217 0.34101 0.0
C535 C 0.6687 0.70279 0.3438 0.0
C536 C 0.69168 0.75863 0.31798 0.0
C537 C 0.65885 0.69456 0.29923 0.0
C538 C 0.67773 0.73511 0.29675 0.0
C539 C 0.6543 0.67791 0.32292 0.0
H540 H 0.62453 0.61776 0.31048 0.0
N541 N 0.67719 0.71191 0.38768 0.0
C542 C 0.66438 0.68724 0.36772 0.0
C543 C 0.64185 0.63193 0.39536 0.0
C544 C 0.64581 0.64652 0.37111 0.0
C545 C 0.67494 0.69793 0.41118 0.0
C546 C 0.65677 0.65777 0.41545 0.0
O547 O 0.71259 0.85929 0.41321 0.0
O548 O 0.73491 0.84432 0.37741 0.0
O549 O 0.76015 0.7785 0.39258 0.0
O550 O 0.75265 0.78014 0.3528 0.0
O551 O 0.63907 0.80917 0.36852 0.0
O552 O 0.6998 0.82146 0.35608 0.0
O553 O 0.64233 0.74147 0.37589 0.0
O554 O 0.62768 0.75888 0.41273 0.0
O555 O 0.59256 0.81955 0.39831 0.0
O556 O 0.60367 0.8141 0.43758 0.0
O557 O 0.71886 0.79273 0.41878 0.0
O558 O 0.66092 0.78339 0.43534 0.0
C559 C 0.73943 0.86799 0.39614 0.0
C560 C 0.6652 0.81626 0.35091 0.0
C561 C 0.81672 0.81384 0.36813 0.0
C562 C 0.88592 0.8387 0.37473 0.0
C563 C 0.86412 0.87903 0.35425 0.0
C564 C 0.82563 0.84894 0.35627 0.0
C565 C 0.89417 0.87406 0.36354 0.0
C566 C 0.84708 0.80858 0.37714 0.0
C567 C 0.77594 0.78258 0.37065 0.0
C568 C 0.6316 0.62171 0.35031 0.0
C569 C 0.63578 0.63734 0.32631 0.0
H570 H 0.62775 0.60082 0.39875 0.0
C571 C 0.61678 0.73662 0.39309 0.0
C572 C 0.69504 0.78519 0.43766 0.0
C573 C 0.54302 0.81215 0.42925 0.0
C574 C 0.48504 0.81761 0.42212 0.0
C575 C 0.49714 0.79937 0.46295 0.0
C576 C 0.5312 0.80169 0.45414 0.0
C577 C 0.4742 0.80723 0.4471 0.0
C578 C 0.51979 0.82036 0.41314 0.0
C579 C 0.58062 0.81623 0.42131 0.0
H580 H 0.8707 0.90606 0.34516 0.0
H581 H 0.80276 0.85277 0.34827 0.0
H582 H 0.924 0.89742 0.36138 0.0
H583 H 0.84059 0.78122 0.38579 0.0
H584 H 0.48854 0.79156 0.48219 0.0
H585 H 0.54847 0.79552 0.46703 0.0
H586 H 0.44787 0.8054 0.45443 0.0
H587 H 0.52855 0.82876 0.39396 0.0
C588 C 0.77955 0.66327 0.94345 0.0
C589 C 0.73294 0.66746 0.91615 0.0
C590 C 0.76401 0.66026 0.91989 0.0
C591 C 0.71772 0.67776 0.93652 0.0
C592 C 0.76381 0.67289 0.96405 0.0
C593 C 0.73306 0.68039 0.96043 0.0
N594 N 0.80905 0.65544 0.94637 0.0
C595 C 0.82244 0.65454 0.96971 0.0
C596 C 0.77884 0.67386 0.98778 0.0
C597 C 0.80804 0.66432 0.99063 0.0
Gd598 Gd 0.93477 0.70954 0.87891 0.0
Gd599 Gd 0.82884 0.63636 0.91005 0.0
N600 N 0.77963 0.65071 0.9005 0.0
C601 C 0.71825 0.66431 0.892 0.0
C602 C 0.76439 0.64604 0.87707 0.0
C603 C 0.73399 0.65343 0.87239 0.0
H604 H 0.77553 0.63652 0.86195 0.0
H605 H 0.72248 0.65038 0.85371 0.0
H606 H 0.98591 0.70436 0.92806 0.0
H607 H 0.84332 0.64505 0.97262 0.0
H608 H 0.02679 0.67552 0.93749 0.0
H609 H 0.69461 0.66991 0.88833 0.0
H610 H 0.69394 0.68351 0.93402 0.0
H611 H 0.92063 0.7017 0.81743 0.0
H612 H 0.76745 0.681 1.00407 0.0
H613 H 0.81899 0.66377 0.00902 0.0
H614 H 0.03991 0.62536 0.85884 0.0
H615 H 0.7207 0.68789 0.97603 0.0
H616 H 0.9773 0.64273 0.78747 0.0
H617 H 0.9366 0.67332 0.78139 0.0
N618 N 0.94955 0.68491 0.8436 0.0
C619 C 0.97368 0.6702 0.84723 0.0
C620 C 0.93726 0.68729 0.8203 0.0
C621 C 0.96999 0.65478 0.80335 0.0
C622 C 0.94685 0.67184 0.79984 0.0
C623 C 0.98399 0.65408 0.82722 0.0
H624 H 0.0159 0.62512 0.81652 0.0
N625 N 0.97649 0.68593 0.89028 0.0
C626 C 0.98728 0.67043 0.87125 0.0
C627 C 0.02513 0.65562 0.89987 0.0
C628 C 0.01149 0.65442 0.87564 0.0
C629 C 0.99144 0.68903 0.91359 0.0
C630 C 0.01543 0.67341 0.91885 0.0
O631 O 0.83949 0.69572 0.89833 0.0
O632 O 0.90598 0.73675 0.90171 0.0
O633 O 0.99336 0.75938 0.88288 0.0
O634 O 0.9552 0.75761 0.85257 0.0
O635 O 0.83687 0.63271 0.86787 0.0
O636 O 0.88048 0.69691 0.85829 0.0
O637 O 0.90753 0.64326 0.87435 0.0
O638 O 0.88085 0.62922 0.91237 0.0
O639 O 0.78367 0.58001 0.8952 0.0
O640 O 0.80044 0.58561 0.93377 0.0
O641 O 0.93245 0.71732 0.92036 0.0
O642 O 0.88165 0.65941 0.93649 0.0
C643 C 0.87011 0.73061 0.90122 0.0
C644 C 0.85269 0.66197 0.85177 0.0
C645 C 0.01965 0.81536 0.855 0.0
C646 C 0.07626 0.87949 0.86272 0.0
C647 C 0.04957 0.86117 0.82093 0.0
C648 C 0.02096 0.82491 0.8297 0.0
C649 C 0.07706 0.88829 0.8373 0.0
C650 C 0.04747 0.84287 0.87163 0.0
C651 C 0.98884 0.77693 0.86373 0.0
C652 C 0.02145 0.63793 0.85577 0.0
C653 C 1.0078 0.6378 0.83164 0.0
H654 H 0.04377 0.64361 0.90402 0.0
C655 C 0.89262 0.61872 0.89291 0.0
C656 C 0.91402 0.69365 0.93905 0.0
C657 C 0.73354 0.54551 0.92528 0.0
C658 C 0.66449 0.49788 0.91966 0.0
C659 C 0.68558 0.54123 0.95542 0.0
C660 C 0.724 0.55823 0.94737 0.0
C661 C 0.65598 0.51136 0.94164 0.0
C662 C 0.70344 0.51482 0.91151 0.0
C663 C 0.77481 0.56398 0.9172 0.0
H664 H 0.05046 0.86829 0.80138 0.0
H665 H 0.99994 0.80422 0.81663 0.0
H666 H 0.09902 0.91637 0.83013 0.0
H667 H 0.04671 0.83596 0.89126 0.0
H668 H 0.67876 0.55116 0.97249 0.0
H669 H 0.7462 0.5812 0.95868 0.0
H670 H 0.62629 0.49827 0.94837 0.0
H671 H 0.7102 0.50432 0.89464 0.0
C672 C 0.11236 0.79105 0.44096 0.0
C673 C 0.05912 0.75922 0.41138 0.0
C674 C 0.09938 0.78122 0.41646 0.0
C675 C 0.03228 0.74743 0.43109 0.0
C676 C 0.08543 0.77927 0.46076 0.0
C677 C 0.04539 0.75738 0.45569 0.0
N678 N 0.15128 0.81248 0.44539 0.0
C679 C 0.16526 0.82281 0.4691 0.0
C680 C 0.09955 0.78985 0.48512 0.0
C681 C 0.13963 0.81171 0.48929 0.0
Gd682 Gd 0.23931 0.93339 0.37884 0.0
Gd683 Gd 0.19156 0.82682 0.41049 0.0
N684 N 0.12603 0.79341 0.39764 0.0
C685 C 0.04698 0.74938 0.38664 0.0
C686 C 0.11429 0.78198 0.37367 0.0
C687 C 0.0747 0.76052 0.36775 0.0
H688 H 0.135 0.78818 0.35904 0.0
H689 H 0.06561 0.75199 0.34865 0.0
H690 H 0.29851 0.97466 0.42812 0.0
H691 H 0.19622 0.83871 0.47257 0.0
H692 H 0.36873 0.01065 0.437 0.0
H693 H 0.01633 0.73255 0.38198 0.0
H694 H 1.00128 0.73047 0.4275 0.0
H695 H 0.23006 0.92316 0.31688 0.0
H696 H 0.07978 0.78119 0.50083 0.0
H697 H 0.15081 0.81972 0.50808 0.0
H698 H 0.42799 0.02659 0.3566 0.0
H699 H 0.02429 0.74798 0.47068 0.0
H700 H 0.34433 0.97418 0.28542 0.0
H701 H 0.27274 0.93842 0.28007 0.0
N702 N 0.27683 0.94762 0.34268 0.0
C703 C 0.31605 0.96819 0.34605 0.0
C704 C 0.26116 0.93746 0.31939 0.0
C705 C 0.32568 0.967 0.30164 0.0
C706 C 0.28529 0.94668 0.29853 0.0
C707 C 0.34156 0.97827 0.32558 0.0
H708 H 0.40202 0.00716 0.31411 0.0
N709 N 0.30539 0.96766 0.38965 0.0
C710 C 0.33075 0.97887 0.37016 0.0
C711 C 0.38498 0.01112 0.39861 0.0
C712 C 0.37128 1.00033 0.3742 0.0
C713 C 0.31854 0.98002 0.41322 0.0
C714 C 0.35846 1.00132 0.41817 0.0
O715 O 0.15928 0.86028 0.41335 0.0
O716 O 0.17367 0.89454 0.37665 0.0
O717 O 0.23909 0.98395 0.39458 0.0
O718 O 0.23809 0.97654 0.3546 0.0
O719 O 0.20473 0.83187 0.36826 0.0
O720 O 0.19632 0.88296 0.35595 0.0
O721 O 0.27445 0.90189 0.37699 0.0
O722 O 0.25583 0.86648 0.41301 0.0
O723 O 0.19032 0.77456 0.39587 0.0
O724 O 0.19116 0.78378 0.43567 0.0
O725 O 0.22509 0.92755 0.41994 0.0
O726 O 0.23278 0.87745 0.43596 0.0
C727 C 0.14983 0.87614 0.39525 0.0
C728 C 0.19926 0.85215 0.35068 0.0
C729 C 0.20348 1.00541 0.37088 0.0
C730 C 0.1794 0.05065 0.37648 0.0
C731 C 0.13639 0.98536 0.36071 0.0
C732 C 0.16659 0.97702 0.36222 0.0
C733 C 0.14265 0.02194 0.36791 0.0
C734 C 0.2099 0.04239 0.37785 0.0
C735 C 0.23514 0.99646 0.37291 0.0
C736 C 0.39676 0.01028 0.35383 0.0
C737 C 0.38196 0.99923 0.32961 0.0
H738 H 0.41592 0.02765 0.4025 0.0
C739 C 0.27871 0.87994 0.39363 0.0
C740 C 0.23304 0.91094 0.43849 0.0
C741 C 0.20702 0.736 0.42207 0.0
C742 C 0.20416 0.67323 0.41686 0.0
C743 C 0.25427 0.72367 0.44279 0.0
C744 C 0.23908 0.74815 0.43808 0.0
C745 C 0.23702 0.68646 0.43222 0.0
C746 C 0.18936 0.69821 0.41169 0.0
C747 C 0.18892 0.7603 0.41797 0.0
H748 H 0.10808 0.96344 0.35392 0.0
H749 H 0.16113 0.94846 0.35656 0.0
H750 H 0.11896 0.02805 0.36649 0.0
H751 H 0.23832 0.06448 0.38448 0.0
H752 H 0.27906 0.73329 0.45508 0.0
H753 H 0.25208 0.77631 0.4472 0.0
H754 H 0.24863 0.66752 0.4366 0.0
H755 H 0.16367 0.68792 0.40009 0.0
C756 C 0.33055 0.10663 0.94 0.0
C757 C 0.31459 0.05557 0.90945 0.0
C758 C 0.33082 0.09546 0.91542 0.0
C759 C 0.29766 0.02733 0.9283 0.0
C760 C 0.31366 0.07837 0.95897 0.0
C761 C 0.29727 0.0387 0.95298 0.0
N762 N 0.34588 0.14516 0.94522 0.0
C763 C 0.34583 0.15756 0.96896 0.0
C764 C 0.31355 0.09084 0.9834 0.0
C765 C 0.32972 0.13061 0.98841 0.0
Gd766 Gd 0.30957 0.22899 0.87823 0.0
Gd767 Gd 0.37368 0.18832 0.91181 0.0
N768 N 0.34697 0.12348 0.89744 0.0
C769 C 0.3163 0.04519 0.88476 0.0
C770 C 0.35116 0.11347 0.87373 0.0
C771 C 0.33515 0.07431 0.86692 0.0
H772 H 0.36791 0.1352 0.86003 0.0
H773 H 0.33803 0.06666 0.84797 0.0
H774 H 0.31175 0.2852 0.92638 0.0
H775 H 0.35875 0.18831 0.97298 0.0
H776 H 0.34045 0.35492 0.93605 0.0
H777 H 0.30413 0.01489 0.87943 0.0
H778 H 0.28501 0.9966 0.924 0.0
H779 H 0.31912 0.22281 0.81677 0.0
H780 H 0.30102 0.07001 0.99851 0.0
H781 H 0.32988 0.14052 1.00724 0.0
H782 H 0.39451 0.41861 0.85816 0.0
H783 H 0.28419 0.01656 0.96731 0.0
H784 H 0.37867 0.33856 0.787 0.0
H785 H 0.34836 0.26722 0.7809 0.0
N786 N 0.33481 0.26848 0.84291 0.0
C787 C 0.35006 0.30742 0.84658 0.0
C788 C 0.33344 0.25388 0.81967 0.0
C789 C 0.36631 0.31918 0.80282 0.0
C790 C 0.34938 0.27895 0.7993 0.0
C791 C 0.3666 0.33389 0.82663 0.0
H792 H 0.39584 0.39483 0.81599 0.0
N793 N 0.33367 0.29452 0.88943 0.0
C794 C 0.34958 0.32083 0.87051 0.0
C795 C 0.36288 0.37344 0.89894 0.0
C796 C 0.36521 0.36107 0.87488 0.0
C797 C 0.32867 0.3062 0.91236 0.0
C798 C 0.34394 0.34581 0.91766 0.0
O799 O 0.30831 0.15457 0.91727 0.0
O800 O 0.28822 0.16419 0.87946 0.0
O801 O 0.25347 0.22315 0.88967 0.0
O802 O 0.2661 0.21804 0.85054 0.0
O803 O 0.38226 0.20039 0.86947 0.0
O804 O 0.32084 0.18605 0.85818 0.0
O805 O 0.37594 0.26702 0.87517 0.0
O806 O 0.39363 0.25191 0.91198 0.0
O807 O 0.42801 0.18973 0.90089 0.0
O808 O 0.41654 0.19706 0.93974 0.0
O809 O 0.30256 0.21952 0.91997 0.0
O810 O 0.36134 0.22907 0.93583 0.0
C811 C 0.28208 0.14321 0.89966 0.0
C812 C 0.35565 0.1928 0.85215 0.0
C813 C 0.2027 0.21007 0.85848 0.0
C814 C 0.13678 0.19665 0.86697 0.0
C815 C 0.15814 0.19929 0.82429 0.0
C816 C 0.19456 0.20734 0.83278 0.0
C817 C 0.12939 0.19395 0.84126 0.0
C818 C 0.17353 0.20471 0.8757 0.0
C819 C 0.24117 0.21697 0.86665 0.0
C820 C 0.38216 0.38757 0.8551 0.0
C821 C 0.38285 0.37403 0.83106 0.0
H822 H 0.37453 0.4041 0.90307 0.0
C823 C 0.40264 0.27321 0.89192 0.0
C824 C 0.32778 0.2286 0.9383 0.0
C825 C 0.47724 0.19803 0.9321 0.0
C826 C 0.53562 0.19301 0.92505 0.0
C827 C 0.52352 0.21193 0.96571 0.0
C828 C 0.4892 0.20905 0.9569 0.0
C829 C 0.54658 0.20405 0.94995 0.0
C830 C 0.50058 0.18971 0.91609 0.0
C831 C 0.43977 0.19417 0.92395 0.0
H832 H 0.15218 0.19718 0.80448 0.0
H833 H 0.21632 0.21121 0.81911 0.0
H834 H 0.10121 0.18782 0.83431 0.0
H835 H 0.17921 0.20667 0.89557 0.0
H836 H 0.53229 0.2203 0.98488 0.0
H837 H 0.4719 0.21538 0.96967 0.0
H838 H 0.57317 0.20646 0.95729 0.0
H839 H 0.4918 0.18101 0.89694 0.0
C840 C 0.22762 0.32814 0.44041 0.0
C841 C 0.26314 0.31149 0.41066 0.0
C842 C 0.2396 0.32802 0.41603 0.0
C843 C 0.27425 0.29511 0.42996 0.0
C844 C 0.23878 0.31176 0.45983 0.0
C845 C 0.26221 0.29535 0.45448 0.0
N846 N 0.20411 0.34328 0.445 0.0
C847 C 0.19133 0.34368 0.46857 0.0
C848 C 0.2258 0.31207 0.48406 0.0
C849 C 0.20201 0.32815 0.48844 0.0
Gd850 Gd 0.08561 0.30664 0.37767 0.0
Gd851 Gd 0.18939 0.37039 0.41082 0.0
N852 N 0.22788 0.34359 0.39759 0.0
C853 C 0.27506 0.3121 0.38605 0.0
C854 C 0.24173 0.34655 0.3739 0.0
C855 C 0.26468 0.33012 0.36767 0.0
H856 H 0.23645 0.3625 0.35977 0.0
H857 H 0.27495 0.332 0.34875 0.0
H858 H 0.03065 0.30439 0.42649 0.0
H859 H 0.17353 0.35672 0.47219 0.0
H860 H 0.99248 0.33511 0.43887 0.0
H861 H 0.29302 0.29959 0.38116 0.0
H862 H 0.29228 0.28229 0.42614 0.0
H863 H 0.1003 0.32009 0.31631 0.0
H864 H 0.23393 0.29995 0.49949 0.0
H865 H 0.192 0.32872 0.50713 0.0
H866 H 0.98715 0.39945 0.36444 0.0
H867 H 0.27108 0.28263 0.46916 0.0
H868 H 0.04788 0.38564 0.29082 0.0
H869 H 0.0862 0.35313 0.28219 0.0
N870 N 0.07212 0.33546 0.34393 0.0
C871 C 0.04985 0.35189 0.34895 0.0
C872 C 0.08459 0.33515 0.32029 0.0
C873 C 0.05437 0.37152 0.30586 0.0
C874 C 0.07612 0.35334 0.30092 0.0
C875 C 0.04077 0.3708 0.33008 0.0
H876 H 0.01128 0.40307 0.32171 0.0
N877 N 0.04578 0.33151 0.39098 0.0
C878 C 0.03659 0.35015 0.3732 0.0
C879 C 0.99858 0.36253 0.40318 0.0
C880 C 0.01332 0.36679 0.37896 0.0
C881 C 0.02838 0.32409 0.41378 0.0
C882 C 1.00548 0.34038 0.42051 0.0
O883 O 0.15865 0.30472 0.41477 0.0
O884 O 0.12698 0.2829 0.37745 0.0
O885 O 0.03457 0.2509 0.38874 0.0
O886 O 0.05068 0.26503 0.34945 0.0
O887 O 0.18582 0.37827 0.3684 0.0
O888 O 0.13827 0.31697 0.35626 0.0
O889 O 0.11647 0.37313 0.37477 0.0
O890 O 0.14784 0.39325 0.41228 0.0
O891 O 0.24215 0.42463 0.39928 0.0
O892 O 0.22492 0.41296 0.43842 0.0
O893 O 0.08942 0.29848 0.41913 0.0
O894 O 0.13669 0.35818 0.43475 0.0
C895 C 0.14569 0.27933 0.39656 0.0
C896 C 0.16766 0.35153 0.35091 0.0
C897 C 0.99299 0.20309 0.35713 0.0
C898 C 0.94332 0.13527 0.36393 0.0
C899 C 0.94916 0.16527 0.32353 0.0
C900 C 0.98005 0.20009 0.33239 0.0
C901 C 0.93096 0.13298 0.33916 0.0
C902 C 0.97424 0.17052 0.37307 0.0
C903 C 0.02659 0.2401 0.36549 0.0
C904 C 1.00478 0.38628 0.3603 0.0
C905 C 0.01844 0.38826 0.33594 0.0
H906 H 0.98058 0.37487 0.40836 0.0
C907 C 0.1311 0.39869 0.39294 0.0
C908 C 0.10438 0.32412 0.43735 0.0
C909 C 0.28439 0.47349 0.43043 0.0
C910 C 0.34804 0.53127 0.4232 0.0
C911 C 0.31774 0.5196 0.46404 0.0
C912 C 0.28587 0.48549 0.4553 0.0
C913 C 0.34856 0.54237 0.44815 0.0
C914 C 0.3159 0.49649 0.41431 0.0
C915 C 0.25043 0.43621 0.42236 0.0
H916 H 0.93948 0.1632 0.30444 0.0
H917 H 0.99388 0.22473 0.3198 0.0
H918 H 0.90725 0.10596 0.33186 0.0
H919 H 0.98412 0.17223 0.39212 0.0
H920 H 0.31859 0.52842 0.48324 0.0
H921 H 0.26237 0.46838 0.46816 0.0
H922 H 0.37312 0.56878 0.45541 0.0
H923 H 0.31543 0.48759 0.39513 0.0
C924 C 0.90596 0.23299 0.93976 0.0
C925 C 0.95694 0.27165 0.91004 0.0
C926 C 0.91754 0.24484 0.91535 0.0
C927 C 0.98457 0.28497 0.92935 0.0
C928 C 0.93353 0.24669 0.95926 0.0
C929 C 0.97291 0.27246 0.95388 0.0
N930 N 0.86765 0.20819 0.94445 0.0
C931 C 0.85478 0.1965 0.96819 0.0
C932 C 0.92062 0.2343 0.98363 0.0
C933 C 0.88104 0.2092 0.98811 0.0
Gd934 Gd 0.7867 0.08406 0.87527 0.0
Gd935 Gd 0.82573 0.18832 0.91005 0.0
N936 N 0.89016 0.23099 0.89695 0.0
C937 C 0.96729 0.2851 0.88558 0.0
C938 C 0.8998 0.24619 0.87346 0.0
C939 C 0.93847 0.27284 0.86732 0.0
H940 H 0.87795 0.23906 0.85943 0.0
H941 H 0.94593 0.28428 0.84856 0.0
H942 H 0.72313 0.04574 0.92345 0.0
H943 H 0.82414 0.178 0.97183 0.0
H944 H 0.65273 1.00583 0.92978 0.0
H945 H 0.9972 0.30582 0.88076 0.0
H946 H 0.01497 0.30539 0.92556 0.0
H947 H 0.79976 0.09906 0.81381 0.0
H948 H 0.94089 0.24422 0.99911 0.0
H949 H 0.87069 0.19987 1.00692 0.0
H950 H 0.5999 0.98208 0.84707 0.0
H951 H 0.99452 0.28326 0.96861 0.0
H952 H 0.68799 0.04044 0.77865 0.0
H953 H 0.75961 0.08185 0.77567 0.0
N954 N 0.75139 0.07001 0.83808 0.0
C955 C 0.71218 0.04658 0.84017 0.0
C956 C 0.76851 0.08236 0.81532 0.0
C957 C 0.70548 0.04847 0.79546 0.0
C958 C 0.74586 0.07201 0.79369 0.0
C959 C 0.68813 0.03539 0.81886 0.0
H960 H 0.62874 1.00288 0.80539 0.0
N961 N 0.71971 0.04719 0.88412 0.0
C962 C 0.69589 0.03459 0.86379 0.0
C963 C 0.6396 1.00108 0.89055 0.0
C964 C 0.65516 0.01144 0.86652 0.0
C965 C 0.70461 0.03667 0.9075 0.0
C966 C 0.66446 0.01376 0.91111 0.0
O967 O 0.86474 0.16214 0.91335 0.0
O968 O 0.85173 0.12664 0.87709 0.0
O969 O 0.78643 0.03078 0.88794 0.0
O970 O 0.79874 0.05038 0.84911 0.0
O971 O 0.81418 0.18388 0.86761 0.0
O972 O 0.8302 0.13812 0.85553 0.0
O973 O 0.74805 0.11188 0.87331 0.0
O974 O 0.76367 0.14103 0.91105 0.0
O975 O 0.81922 0.23706 0.89634 0.0
O976 O 0.81239 0.22209 0.93604 0.0
O977 O 0.79895 0.08605 0.91644 0.0
O978 O 0.79084 0.13452 0.93524 0.0
C979 C 0.87325 0.14295 0.89698 0.0
C980 C 0.82408 0.16684 0.85016 0.0
C981 C 0.79923 0.99106 0.85798 0.0
C982 C 0.81429 0.93961 0.86693 0.0
C983 C 0.80266 0.95169 0.82432 0.0
C984 C 0.79655 0.98158 0.8325 0.0
C985 C 0.81161 0.93091 0.84139 0.0
C986 C 0.8078 0.96962 0.87536 0.0
C987 C 0.79499 0.02462 0.86551 0.0
C988 C 0.63123 0.99992 0.8453 0.0
C989 C 0.64765 0.01182 0.82156 0.0
H990 H 0.60847 0.98344 0.89343 0.0
C991 C 0.74187 0.13074 0.89123 0.0
C992 C 0.7912 0.10102 0.93603 0.0
C993 C 0.80452 0.27692 0.92435 0.0
C994 C 0.81668 0.34348 0.91907 0.0
C995 C 0.76718 0.2992 0.94806 0.0
C996 C 0.77577 0.27007 0.94207 0.0
C997 C 0.78758 0.3357 0.93675 0.0
C998 C 0.82485 0.31375 0.91257 0.0
C999 C 0.81299 0.2454 0.91874 0.0
H1000 H 0.80068 0.94477 0.80466 0.0
H1001 H 0.78994 0.99749 0.81876 0.0
H1002 H 0.81645 0.90784 0.83467 0.0
H1003 H 0.81016 0.97663 0.89505 0.0
H1004 H 0.74492 0.29362 0.96174 0.0
H1005 H 0.75977 0.24202 0.95126 0.0
H1006 H 0.78102 0.35822 0.94208 0.0
H1007 H 0.84756 0.3196 0.89915 0.0
H1008 H 0.13103 0.90783 0.08212 0.0
H1009 H 0.25878 0.1154 0.14599 0.0
H1010 H 0.19438 0.92719 0.15086 0.0
H1011 H 0.14341 0.0813 0.11984 0.0
H1012 H 0.24995 0.05255 0.13191 0.0
H1013 H 0.14787 0.97708 0.08242 0.0
C1014 C 0.14883 0.92687 0.09705 0.0
C1015 C 0.16135 0.91226 0.11657 0.0
C1016 C 0.22709 0.0594 0.12853 0.0
C1017 C 0.18185 0.9906 0.1164 0.0
C1018 C 0.23227 0.09526 0.13627 0.0
C1019 C 0.20181 0.10327 0.13394 0.0
C1020 C 0.19123 0.03151 0.11842 0.0
C1021 C 0.16762 0.07608 0.12169 0.0
C1022 C 0.15841 0.96605 0.09716 0.0
C1023 C 0.1842 0.93758 0.13556 0.0
N1024 N 0.16292 0.0409 0.11465 0.0
N1025 N 0.19403 0.97566 0.1349 0.0
H1026 H 0.26344 0.17307 0.65799 0.0
H1027 H 0.07322 0.1535 0.61247 0.0
H1028 H 0.24058 0.14721 0.57963 0.0
H1029 H 0.15336 0.25436 0.65503 0.0
H1030 H 0.12806 0.14507 0.59903 0.0
H1031 H 0.21645 0.19588 0.65856 0.0
C1032 C 0.24819 0.17188 0.64095 0.0
C1033 C 0.25539 0.15788 0.61881 0.0
C1034 C 0.13369 0.16988 0.61052 0.0
C1035 C 0.20146 0.18351 0.61939 0.0
C1036 C 0.10257 0.17486 0.61801 0.0
C1037 C 0.10903 0.20464 0.63487 0.0
C1038 C 0.17087 0.19433 0.62055 0.0
C1039 C 0.14737 0.23107 0.64202 0.0
C1040 C 0.2218 0.1853 0.64121 0.0
C1041 C 0.23543 0.15763 0.5971 0.0
N1042 N 0.17673 0.22469 0.63538 0.0
N1043 N 0.20862 0.16958 0.59799 0.0
H1044 H 0.89854 0.13314 0.11679 0.0
H1045 H 0.11828 0.21336 0.14646 0.0
H1046 H 0.94038 0.06265 0.15097 0.0
H1047 H 0.08391 0.26174 0.08609 0.0
H1048 H 0.05301 0.15664 0.14676 0.0
H1049 H 0.96501 0.17884 0.10254 0.0
C1050 C 0.92152 0.12654 0.12035 0.0
C1051 C 0.91428 0.09423 0.13492 0.0
C1052 C 0.05978 0.17955 0.13331 0.0
C1053 C 0.99011 0.14671 0.11971 0.0
C1054 C 0.09705 0.21214 0.13324 0.0
C1055 C 0.10637 0.2431 0.11676 0.0
C1056 C 0.03127 0.17806 0.11709 0.0
C1057 C 0.07776 0.23932 0.0997 0.0
C1058 C 0.95944 0.15271 0.11243 0.0
C1059 C 0.94499 0.08724 0.13964 0.0
N1060 N 0.04123 0.20777 0.10063 0.0
N1061 N 0.98174 0.11369 0.13249 0.0
H1062 H 0.88514 0.93478 0.62698 0.0
H1063 H 0.81481 0.08312 0.64242 0.0
H1064 H 0.76394 0.89786 0.63748 0.0
H1065 H 0.9082 0.11065 0.5909 0.0
H1066 H 0.79721 0.01461 0.64117 0.0
H1067 H 0.89637 0.99837 0.61207 0.0
C1068 C 0.86066 0.93958 0.62507 0.0
C1069 C 0.82358 0.91137 0.63334 0.0
C1070 C 0.82125 0.03543 0.62983 0.0
C1071 C 0.83633 0.9838 0.61748 0.0
C1072 C 0.83116 0.07441 0.63055 0.0
C1073 C 0.86223 0.10194 0.61633 0.0
C1074 C 0.84378 0.02421 0.61563 0.0
C1075 C 0.88372 0.0898 0.60192 0.0
C1076 C 0.86708 0.97583 0.61677 0.0
C1077 C 0.79287 0.919 0.63113 0.0
N1078 N 0.8745 0.05169 0.60222 0.0
N1079 N 0.80007 0.95485 0.62393 0.0
H1080 H 0.94546 0.86346 0.1619 0.0
H1081 H 0.76 0.83655 0.08672 0.0
H1082 H 0.87096 0.76066 0.1189 0.0
H1083 H 0.7972 0.89955 0.15637 0.0
H1084 H 0.81263 0.82178 0.08996 0.0
H1085 H 0.90321 0.8904 0.15114 0.0
C1086 C 0.92055 0.84696 0.14986 0.0
C1087 C 0.9111 0.80971 0.14147 0.0
C1088 C 0.80939 0.83913 0.10438 0.0
C1089 C 0.86342 0.84017 0.12899 0.0
C1090 C 0.77917 0.84734 0.1027 0.0
C1091 C 0.77316 0.86803 0.12182 0.0
C1092 C 0.83453 0.85271 0.12495 0.0
C1093 C 0.80015 0.88274 0.14147 0.0
C1094 C 0.89652 0.86219 0.14383 0.0
C1095 C 0.87872 0.78931 0.12591 0.0
N1096 N 0.82958 0.87458 0.14262 0.0
N1097 N 0.85589 0.80477 0.1202 0.0
H1098 H 0.92301 0.75216 0.65729 0.0
H1099 H 0.0904 0.94588 0.61373 0.0
H1100 H 0.91832 0.77881 0.57987 0.0
H1101 H 0.11352 0.8656 0.65412 0.0
H1102 H 0.02776 0.89059 0.59986 0.0
H1103 H 0.99265 0.79963 0.65773 0.0
C1104 C 0.93671 0.76837 0.64045 0.0
C1105 C 0.91514 0.76216 0.61861 0.0
C1106 C 0.04734 0.88506 0.61094 0.0
C1107 C 0.99437 0.81653 0.61903 0.0
C1108 C 0.08305 0.91644 0.61868 0.0
C1109 C 0.10681 0.90996 0.63505 0.0
C1110 C 0.03547 0.84761 0.62025 0.0
C1111 C 0.09581 0.87153 0.64149 0.0
C1112 C 0.9764 0.79499 0.64061 0.0
C1113 C 0.93426 0.78324 0.59709 0.0
N1114 N 0.06041 0.84185 0.63462 0.0
N1115 N 0.9729 0.81029 0.59793 0.0
H1116 H 0.10196 0.86686 0.4342 0.0
H1117 H 0.91207 0.79561 0.35107 0.0
H1118 H 0.10481 0.86334 0.35388 0.0
H1119 H 0.93484 0.87142 0.4142 0.0
H1120 H 0.97531 0.79944 0.35779 0.0
H1121 H 0.0332 0.84928 0.43216 0.0
C1122 C 0.0881 0.86253 0.41616 0.0
C1123 C 0.10911 0.86729 0.39413 0.0
C1124 C 0.96598 0.81455 0.37042 0.0
C1125 C 0.03071 0.846 0.39179 0.0
C1126 C 0.92997 0.81209 0.36676 0.0
C1127 C 0.91863 0.83326 0.38215 0.0
C1128 C 0.99028 0.83791 0.38977 0.0
C1129 C 0.94279 0.85466 0.40205 0.0
C1130 C 0.049 0.85236 0.41505 0.0
C1131 C 0.08978 0.86078 0.37124 0.0
N1132 N 0.97771 0.8566 0.40529 0.0
N1133 N 0.0515 0.85024 0.37064 0.0
H1134 H 0.15246 0.90097 0.86475 0.0
H1135 H 0.23193 0.10096 0.93723 0.0
H1136 H 0.06842 0.92775 0.8959 0.0
H1137 H 0.26409 0.09175 0.86181 0.0
H1138 H 0.18135 0.03108 0.93586 0.0
H1139 H 0.205 0.96399 0.87983 0.0
C1140 C 0.14521 0.91953 0.87564 0.0
C1141 C 0.10629 0.90947 0.87906 0.0
C1142 C 0.19978 0.04456 0.91978 0.0
C1143 C 0.16581 0.98136 0.89584 0.0
C1144 C 0.22832 0.08414 0.92048 0.0
C1145 C 0.25148 0.10192 0.89942 0.0
C1146 C 0.19594 0.02275 0.89826 0.0
C1147 C 0.24625 0.07916 0.87823 0.0
C1148 C 0.17505 0.95544 0.88402 0.0
C1149 C 0.0982 0.93459 0.89305 0.0
N1150 N 0.21927 0.04064 0.87828 0.0
N1151 N 0.12784 0.96993 0.90063 0.0
H1152 H 0.1552 0.2412 0.43595 0.0
H1153 H 0.22342 0.11946 0.35224 0.0
H1154 H 0.16359 0.25046 0.35579 0.0
H1155 H 0.14782 0.06878 0.41562 0.0
H1156 H 0.22281 0.18063 0.35938 0.0
H1157 H 0.17286 0.18984 0.43406 0.0
C1158 C 0.16087 0.23245 0.41801 0.0
C1159 C 0.15708 0.24923 0.39593 0.0
C1160 C 0.20701 0.15628 0.37196 0.0
C1161 C 0.17827 0.19192 0.39376 0.0
C1162 C 0.20753 0.12167 0.368 0.0
C1163 C 0.18542 0.08934 0.38331 0.0
C1164 C 0.18472 0.15845 0.39157 0.0
C1165 C 0.16505 0.09325 0.40341 0.0
C1166 C 0.17102 0.2034 0.41697 0.0
C1167 C 0.16528 0.23746 0.37316 0.0
N1168 N 0.16502 0.12722 0.40694 0.0
N1169 N 0.17555 0.20948 0.37265 0.0
H1170 H 0.08236 0.13027 0.89012 0.0
H1171 H 0.9329 0.19828 0.87046 0.0
H1172 H 0.11825 0.25144 0.87936 0.0
H1173 H 0.90463 0.1061 0.92326 0.0
H1174 H 1.0013 0.21596 0.87246 0.0
H1175 H 0.01787 0.11809 0.90352 0.0
C1176 C 0.07712 0.15456 0.8917 0.0
C1177 C 0.10537 0.19191 0.88378 0.0
C1178 C 0.98028 0.19204 0.8838 0.0
C1179 C 0.0319 0.17802 0.89781 0.0
C1180 C 0.94135 0.18201 0.8826 0.0
C1181 C 0.91363 0.15124 0.89695 0.0
C1182 C 0.99129 0.17002 0.89871 0.0
C1183 C 0.92555 0.13015 0.91197 0.0
C1184 C 0.04034 0.14757 0.8991 0.0
C1185 C 0.09713 0.22232 0.88549 0.0
N1186 N 0.96363 0.13952 0.91219 0.0
N1187 N 0.06081 0.21456 0.89177 0.0
H1188 H 0.95611 0.07443 0.36239 0.0
H1189 H 0.76145 0.92439 0.43255 0.0
H1190 H 0.88481 0.11427 0.39783 0.0
H1191 H 0.79637 0.9031 0.3608 0.0
H1192 H 0.81667 0.99126 0.43142 0.0
H1193 H 0.90992 0.00768 0.37576 0.0
C1194 C 0.93147 0.06922 0.37385 0.0
C1195 C 0.92403 0.09954 0.3791 0.0
C1196 C 0.81248 0.97145 0.41624 0.0
C1197 C 0.87099 0.02371 0.39383 0.0
C1198 C 0.78078 0.93342 0.41667 0.0
C1199 C 0.77413 0.90771 0.39669 0.0
C1200 C 0.83854 0.98327 0.39619 0.0
C1201 C 0.80078 0.92112 0.37692 0.0
C1202 C 0.90502 0.03124 0.3812 0.0
C1203 C 0.89148 0.09147 0.39365 0.0
N1204 N 0.8319 0.95781 0.37724 0.0
N1205 N 0.86566 0.05403 0.40028 0.0
H1206 H 0.92456 0.80881 0.90702 0.0
H1207 H 0.76377 0.87312 0.89101 0.0
H1208 H 0.80127 0.7306 0.89816 0.0
H1209 H 0.88605 0.95154 0.87895 0.0
H1210 H 0.77868 0.82373 0.90631 0.0
H1211 H 0.91241 0.86393 0.90715 0.0
C1212 C 0.89489 0.803 0.90557 0.0
C1213 C 0.86376 0.76459 0.90291 0.0
C1214 C 0.80242 0.85209 0.90095 0.0
C1215 C 0.84972 0.8275 0.90342 0.0
C1216 C 0.7939 0.88038 0.89256 0.0
C1217 C 0.82379 0.91629 0.88391 0.0
C1218 C 0.84108 0.85971 0.90035 0.0
C1219 C 0.86233 0.92415 0.8857 0.0
C1220 C 0.88801 0.83449 0.90571 0.0
C1221 C 0.82606 0.75915 0.90092 0.0
N1222 N 0.86991 0.89584 0.89338 0.0
N1223 N 0.82014 0.79006 0.90119 0.0
H1224 H 0.11597 0.68936 0.08471 0.0
H1225 H 0.20969 0.57466 0.14444 0.0
H1226 H 0.13668 0.69587 0.16394 0.0
H1227 H 0.14481 0.54031 0.07577 0.0
H1228 H 0.18189 0.61676 0.15388 0.0
H1229 H 0.12532 0.6333 0.08224 0.0
C1230 C 0.12181 0.67843 0.10173 0.0
C1231 C 0.12563 0.69727 0.12457 0.0
C1232 C 0.1729 0.59914 0.13711 0.0
C1233 C 0.13711 0.63309 0.12183 0.0
C1234 C 0.18857 0.57504 0.13181 0.0
C1235 C 0.17917 0.55392 0.10941 0.0
C1236 C 0.14833 0.60249 0.1196 0.0
C1237 C 0.15247 0.55597 0.09331 0.0
C1238 C 0.12711 0.6463 0.10032 0.0
C1239 C 0.13331 0.68193 0.14601 0.0
N1240 N 0.13843 0.58023 0.09855 0.0
N1241 N 0.13956 0.65105 0.14407 0.0
H1242 H 0.61278 0.1243 0.59686 0.0
H1243 H 0.46409 0.191 0.64547 0.0
H1244 H 0.64665 0.23955 0.62359 0.0
H1245 H 0.42685 0.07708 0.61494 0.0
H1246 H 0.5316 0.20505 0.64448 0.0
H1247 H 0.54556 0.10204 0.61038 0.0
C1248 C 0.60624 0.14453 0.60634 0.0
C1249 C 0.63519 0.18371 0.60933 0.0
C1250 C 0.50873 0.17663 0.63845 0.0
C1251 C 0.55849 0.15892 0.62423 0.0
C1252 C 0.47021 0.16857 0.6392 0.0
C1253 C 0.4401 0.13266 0.63069 0.0
C1254 C 0.51731 0.14874 0.62873 0.0
C1255 C 0.44939 0.10484 0.6221 0.0
C1256 C 0.56786 0.13198 0.61381 0.0
C1257 C 0.62515 0.20905 0.62115 0.0
N1258 N 0.48727 0.11356 0.62113 0.0
N1259 N 0.58767 0.19634 0.62795 0.0
H1260 H 0.4807 0.60923 0.07559 0.0
H1261 H 0.31519 0.44616 0.16291 0.0
H1262 H 0.43783 0.63914 0.14081 0.0
H1263 H 0.32736 0.43252 0.08426 0.0
H1264 H 0.37204 0.51274 0.16071 0.0
H1265 H 0.43747 0.5399 0.08481 0.0
C1266 C 0.46301 0.60105 0.0923 0.0
C1267 C 0.46297 0.6297 0.10762 0.0
C1268 C 0.36253 0.49483 0.14408 0.0
C1269 C 0.41282 0.55065 0.11799 0.0
C1270 C 0.33037 0.45689 0.14536 0.0
C1271 C 0.31658 0.43412 0.12369 0.0
C1272 C 0.38137 0.50942 0.1211 0.0
C1273 C 0.33693 0.44935 0.10134 0.0
C1274 C 0.4381 0.56158 0.09743 0.0
C1275 C 0.43893 0.61775 0.12877 0.0
N1276 N 0.36821 0.48597 0.10062 0.0
N1277 N 0.4145 0.57903 0.13327 0.0
H1278 H 0.80237 0.43324 0.63935 0.0
H1279 H 0.91106 0.32962 0.58641 0.0
H1280 H 0.88571 0.482 0.57966 0.0
H1281 H 0.87178 0.31105 0.66268 0.0
H1282 H 0.90346 0.38707 0.58463 0.0
H1283 H 0.82854 0.39031 0.65013 0.0
C1284 C 0.82711 0.43581 0.62913 0.0
C1285 C 0.8423 0.46131 0.60879 0.0
C1286 C 0.89719 0.37102 0.60196 0.0
C1287 C 0.87137 0.41172 0.62033 0.0
C1288 C 0.90149 0.33821 0.60295 0.0
C1289 C 0.89199 0.31576 0.62471 0.0
C1290 C 0.88221 0.38092 0.62268 0.0
C1291 C 0.87961 0.32791 0.64563 0.0
C1292 C 0.84189 0.41123 0.63517 0.0
C1293 C 0.87358 0.46294 0.59564 0.0
N1294 N 0.87425 0.35932 0.64396 0.0
N1295 N 0.88668 0.43806 0.60137 0.0
H1296 H 0.55999 0.83007 0.0952 0.0
H1297 H 0.40645 0.89353 0.13223 0.0
H1298 H 0.58124 0.91025 0.1556 0.0
H1299 H 0.3802 0.79528 0.08511 0.0
H1300 H 0.46816 0.89736 0.14413 0.0
H1301 H 0.4927 0.81465 0.09359 0.0
C1302 C 0.55037 0.84422 0.10833 0.0
C1303 C 0.57637 0.87146 0.12555 0.0
C1304 C 0.44852 0.87439 0.13166 0.0
C1305 C 0.49889 0.85454 0.12348 0.0
C1306 C 0.41328 0.87206 0.12504 0.0
C1307 C 0.38835 0.84384 0.10789 0.0
C1308 C 0.45905 0.8488 0.12059 0.0
C1309 C 0.39858 0.81715 0.09861 0.0
C1310 C 0.51178 0.83536 0.10741 0.0
C1311 C 0.56219 0.88908 0.142 0.0
N1312 N 0.43339 0.8206 0.10481 0.0
N1313 N 0.52445 0.8807 0.14034 0.0
H1314 H 0.68666 0.58615 0.5881 0.0
H1315 H 0.58294 0.37256 0.63934 0.0
H1316 H 0.70669 0.56352 0.66362 0.0
H1317 H 0.53383 0.40883 0.58075 0.0
H1318 H 0.62633 0.44145 0.65052 0.0
H1319 H 0.62892 0.52133 0.58617 0.0
C1320 C 0.67834 0.56761 0.60444 0.0
C1321 C 0.70126 0.57995 0.62603 0.0
C1322 C 0.60523 0.43429 0.63573 0.0
C1323 C 0.63581 0.50527 0.62381 0.0
C1324 C 0.58037 0.39505 0.62947 0.0
C1325 C 0.55463 0.38526 0.6093 0.0
C1326 C 0.60478 0.46371 0.62129 0.0
C1327 C 0.55305 0.41533 0.59659 0.0
C1328 C 0.64538 0.53064 0.60338 0.0
C1329 C 0.68946 0.55495 0.6467 0.0
N1330 N 0.5782 0.4532 0.60252 0.0
N1331 N 0.6579 0.51833 0.64494 0.0
H1332 H 0.27777 0.817 0.41261 0.0
H1333 H 0.49904 0.88662 0.40073 0.0
H1334 H 0.34981 0.91898 0.3687 0.0
H1335 H 0.41073 0.7661 0.40965 0.0
H1336 H 0.44832 0.90148 0.38731 0.0
H1337 H 0.32868 0.80004 0.41209 0.0
C1338 C 0.30448 0.83586 0.40288 0.0
C1339 C 0.30972 0.86971 0.39118 0.0
C1340 C 0.44033 0.87162 0.39147 0.0
C1341 C 0.36878 0.8506 0.39021 0.0
C1342 C 0.46923 0.8631 0.39891 0.0
C1343 C 0.45883 0.82511 0.40637 0.0
C1344 C 0.40106 0.84194 0.39196 0.0
C1345 C 0.41982 0.79575 0.4041 0.0
C1346 C 0.3335 0.82603 0.40232 0.0
C1347 C 0.34475 0.89288 0.37829 0.0
N1348 N 0.39233 0.8049 0.39759 0.0
N1349 N 0.3734 0.88328 0.3785 0.0
H1350 H 0.64869 0.42267 0.91642 0.0
H1351 H 0.43122 0.34266 0.86597 0.0
H1352 H 0.6051 0.49852 0.89474 0.0
H1353 H 0.46694 0.27709 0.91231 0.0
H1354 H 0.49863 0.39747 0.86648 0.0
H1355 H 0.58626 0.36613 0.90412 0.0
C1356 C 0.62637 0.42737 0.90826 0.0
C1357 C 0.63189 0.46509 0.90638 0.0
C1358 C 0.49162 0.37082 0.87627 0.0
C1359 C 0.56041 0.40092 0.89279 0.0
C1360 C 0.4532 0.33958 0.87596 0.0
C1361 C 0.44331 0.30549 0.88942 0.0
C1362 C 0.52032 0.36743 0.88964 0.0
C1363 C 0.47311 0.30301 0.90195 0.0
C1364 C 0.59066 0.3952 0.90151 0.0
C1365 C 0.60184 0.46976 0.89626 0.0
N1366 N 0.51012 0.3335 0.9018 0.0
N1367 N 0.56722 0.43802 0.89 0.0
H1368 H 0.13682 0.61219 0.43428 0.0
H1369 H 0.15549 0.45085 0.35445 0.0
H1370 H 0.22764 0.64161 0.38023 0.0
H1371 H 0.10815 0.43111 0.42876 0.0
H1372 H 0.16686 0.51802 0.35626 0.0
H1373 H 0.11073 0.5427 0.42474 0.0
C1374 C 0.15061 0.60394 0.41996 0.0
C1375 C 0.18429 0.63237 0.40796 0.0
C1376 C 0.15329 0.49867 0.37194 0.0
C1377 C 0.15489 0.55341 0.39702 0.0
C1378 C 0.14656 0.46042 0.37084 0.0
C1379 C 0.13108 0.43582 0.39155 0.0
C1380 C 0.14361 0.51182 0.39369 0.0
C1381 C 0.1204 0.44949 0.4125 0.0
C1382 C 0.13593 0.56442 0.41464 0.0
C1383 C 0.20153 0.62038 0.38979 0.0
N1384 N 0.12691 0.48661 0.41308 0.0
N1385 N 0.18673 0.58173 0.38491 0.0
H1386 H 0.6735 0.09498 0.86342 0.0
H1387 H 0.60987 0.24513 0.91277 0.0
H1388 H 0.73668 0.18669 0.91692 0.0
H1389 H 0.52257 0.12432 0.90326 0.0
H1390 H 0.65953 0.23018 0.89861 0.0
H1391 H 0.62014 0.11024 0.86481 0.0
C1392 C 0.67645 0.11854 0.87516 0.0
C1393 C 0.70977 0.13972 0.89005 0.0
C1394 C 0.62937 0.20707 0.89902 0.0
C1395 C 0.64994 0.15801 0.891 0.0
C1396 C 0.60103 0.21565 0.90688 0.0
C1397 C 0.56219 0.18588 0.90929 0.0
C1398 C 0.61897 0.1684 0.8935 0.0
C1399 C 0.55225 0.14806 0.90156 0.0
C1400 C 0.64607 0.12717 0.87593 0.0
C1401 C 0.71193 0.16985 0.90498 0.0
N1402 N 0.58065 0.14016 0.89433 0.0
N1403 N 0.68274 0.17823 0.90492 0.0
H1404 H 0.40282 0.51685 0.40203 0.0
H1405 H 0.55545 0.73707 0.41452 0.0
H1406 H 0.37099 0.60559 0.41026 0.0
H1407 H 0.58348 0.66628 0.36734 0.0
H1408 H 0.48758 0.68657 0.41378 0.0
H1409 H 0.46822 0.56736 0.38818 0.0
C1410 C 0.40915 0.54669 0.39998 0.0
C1411 C 0.38172 0.55729 0.40737 0.0
C1412 C 0.50837 0.68204 0.40333 0.0
C1413 C 0.45613 0.61483 0.39244 0.0
C1414 C 0.5473 0.71092 0.40383 0.0
C1415 C 0.57534 0.70596 0.39104 0.0
C1416 C 0.49707 0.64708 0.39051 0.0
C1417 C 0.56284 0.67122 0.37755 0.0
C1418 C 0.44645 0.57546 0.39227 0.0
C1419 C 0.39143 0.59635 0.4048 0.0
N1420 N 0.52457 0.64263 0.37799 0.0
N1421 N 0.42799 0.62375 0.39804 0.0
H1422 H 0.8953 0.58068 0.93381 0.0
H1423 H 0.81018 0.37305 0.87404 0.0
H1424 H 0.88528 0.56944 0.85377 0.0
H1425 H 0.87302 0.40576 0.9435 0.0
H1426 H 0.83656 0.44282 0.86432 0.0
H1427 H 0.88517 0.51511 0.93668 0.0
C1428 C 0.89135 0.56445 0.91673 0.0
C1429 C 0.89102 0.58053 0.8935 0.0
C1430 C 0.84542 0.43467 0.88133 0.0
C1431 C 0.87892 0.50458 0.89671 0.0
C1432 C 0.83058 0.39499 0.88679 0.0
C1433 C 0.83974 0.38388 0.90953 0.0
C1434 C 0.86883 0.46305 0.89901 0.0
C1435 C 0.86551 0.41322 0.92573 0.0
C1436 C 0.88572 0.52695 0.91839 0.0
C1437 C 0.88583 0.55807 0.87203 0.0
N1438 N 0.87865 0.45131 0.92034 0.0
N1439 N 0.8793 0.52081 0.87415 0.0
H1440 H 0.2024 0.42051 0.32357 0.0
H1441 H 0.14229 0.30007 0.19712 0.0
H1442 H 0.16101 0.2972 0.31765 0.0
H1443 H 0.23801 0.41845 0.19542 0.0
H1444 H 0.13951 0.3041 0.24223 0.0
H1445 H 0.21049 0.42576 0.27764 0.0
C1446 C 0.1958 0.39482 0.31274 0.0
C1447 C 0.18057 0.35829 0.32444 0.0
C1448 C 0.161 0.32941 0.23208 0.0
C1449 C 0.18857 0.36387 0.27232 0.0
C1450 C 0.16239 0.32726 0.20626 0.0
C1451 C 0.19067 0.35886 0.19249 0.0
C1452 C 0.18784 0.36357 0.24455 0.0
C1453 C 0.2157 0.39347 0.20538 0.0
C1454 C 0.20011 0.39778 0.2866 0.0
C1455 C 0.17228 0.32588 0.3095 0.0
N1456 N 0.21394 0.39489 0.23084 0.0
N1457 N 0.17579 0.32935 0.28437 0.0
H1458 H 0.85156 0.14038 0.69705 0.0
H1459 H 0.78496 0.19571 0.82229 0.0
H1460 H 0.82268 0.23187 0.69396 0.0
H1461 H 0.87565 0.1661 0.81756 0.0
H1462 H 0.78735 0.2029 0.77631 0.0
H1463 H 0.84546 0.13889 0.74222 0.0
C1464 C 0.84327 0.1598 0.70587 0.0
C1465 C 0.8381 0.18664 0.69168 0.0
C1466 C 0.80699 0.19536 0.78553 0.0
C1467 C 0.83115 0.18512 0.74379 0.0
C1468 C 0.80588 0.1916 0.8117 0.0
C1469 C 0.82981 0.17981 0.82372 0.0
C1470 C 0.83176 0.18672 0.77155 0.0
C1471 C 0.85626 0.17466 0.80909 0.0
C1472 C 0.84012 0.15914 0.73172 0.0
C1473 C 0.82692 0.21074 0.70422 0.0
N1474 N 0.85601 0.17744 0.7839 0.0
N1475 N 0.82404 0.20963 0.72969 0.0
H1476 H 0.59667 0.82856 0.19535 0.0
H1477 H 0.59673 0.77575 0.32429 0.0
H1478 H 0.70984 0.83846 0.19864 0.0
H1479 H 0.71649 0.86686 0.31727 0.0
H1480 H 0.589 0.7785 0.2787 0.0
H1481 H 0.59108 0.81936 0.24111 0.0
C1482 C 0.61966 0.82749 0.20558 0.0
C1483 C 0.6536 0.83388 0.19326 0.0
C1484 C 0.61662 0.79838 0.28734 0.0
C1485 C 0.64786 0.82437 0.24515 0.0
C1486 C 0.621 0.79696 0.31328 0.0
C1487 C 0.65727 0.82117 0.32452 0.0
C1488 C 0.64888 0.82397 0.27278 0.0
C1489 C 0.68809 0.84751 0.30935 0.0
C1490 C 0.6166 0.82253 0.23161 0.0
C1491 C 0.6832 0.8336 0.20744 0.0
N1492 N 0.68335 0.84779 0.28429 0.0
N1493 N 0.67988 0.82953 0.23259 0.0
H1494 H 0.78852 0.59425 0.69447 0.0
H1495 H 0.85459 0.71644 0.82046 0.0
H1496 H 0.87271 0.71701 0.69936 0.0
H1497 H 0.82495 0.59573 0.82211 0.0
H1498 H 0.8477 0.71273 0.77535 0.0
H1499 H 0.79164 0.58975 0.74041 0.0
C1500 C 0.80813 0.61997 0.70508 0.0
C1501 C 0.83006 0.65614 0.69309 0.0
C1502 C 0.84243 0.68688 0.7855 0.0
C1503 C 0.83284 0.65142 0.74524 0.0
C1504 C 0.84605 0.68888 0.81133 0.0
C1505 C 0.84081 0.65647 0.82511 0.0
C1506 C 0.83301 0.65207 0.77303 0.0
C1507 C 0.82928 0.6214 0.81218 0.0
C1508 C 0.80965 0.61745 0.73123 0.0
C1509 C 0.85484 0.68861 0.70776 0.0
N1510 N 0.82599 0.62013 0.78674 0.0
N1511 N 0.85508 0.68558 0.73293 0.0
H1512 H 0.17392 0.87505 0.19629 0.0
H1513 H 0.23037 0.81413 0.32376 0.0
H1514 H 0.19145 0.77594 0.19611 0.0
H1515 H 0.15362 0.86145 0.31712 0.0
H1516 H 0.22673 0.80465 0.27795 0.0
H1517 H 0.18072 0.87891 0.24135 0.0
C1518 C 0.17986 0.85438 0.20574 0.0
C1519 C 0.18168 0.82483 0.1924 0.0
C1520 C 0.21044 0.81667 0.28672 0.0
C1521 C 0.18939 0.82906 0.24445 0.0
C1522 C 0.21227 0.82182 0.31279 0.0
C1523 C 0.19272 0.83912 0.32423 0.0
C1524 C 0.1893 0.82936 0.27223 0.0
C1525 C 0.16975 0.84865 0.30913 0.0
C1526 C 0.18342 0.85643 0.23155 0.0
C1527 C 0.18991 0.79919 0.20571 0.0
N1528 N 0.16918 0.84421 0.28405 0.0
N1529 N 0.19323 0.80169 0.23116 0.0
H1530 H 0.30219 0.13982 0.82071 0.0
H1531 H 0.42321 0.1964 0.69464 0.0
H1532 H 0.42216 0.23179 0.82283 0.0
H1533 H 0.30125 0.16015 0.69991 0.0
H1534 H 0.42818 0.20387 0.7406 0.0
H1535 H 0.30607 0.13721 0.77558 0.0
C1536 C 0.32967 0.15911 0.81167 0.0
C1537 C 0.3618 0.18635 0.8256 0.0
C1538 C 0.40056 0.19474 0.73151 0.0
C1539 C 0.36637 0.18364 0.77346 0.0
C1540 C 0.39777 0.19076 0.70534 0.0
C1541 C 0.36165 0.17715 0.69343 0.0
C1542 C 0.3669 0.18451 0.74564 0.0
C1543 C 0.32957 0.17014 0.70823 0.0
C1544 C 0.33176 0.15782 0.78582 0.0
C1545 C 0.39676 0.2103 0.81278 0.0
N1546 N 0.33284 0.17328 0.73341 0.0
N1547 N 0.39811 0.20862 0.78731 0.0
H1548 H 0.26043 0.18796 0.96363 0.0
H1549 H 0.28721 0.36819 0.04659 0.0
H1550 H 0.36924 0.29641 0.96551 0.0
H1551 H 0.19921 0.24867 0.06006 0.0
H1552 H 0.3147 0.34559 0.01351 0.0
H1553 H 0.23567 0.21184 0.99689 0.0
C1554 C 0.27943 0.21655 0.97152 0.0
C1555 C 0.31712 0.23996 0.96211 0.0
C1556 C 0.28918 0.32445 0.02362 0.0
C1557 C 0.28833 0.26846 0.99959 0.0
C1558 C 0.27311 0.33739 0.04218 0.0
C1559 C 0.24067 0.31029 0.05599 0.0
C1560 C 0.27229 0.28425 0.01867 0.0
C1561 C 0.22414 0.27062 0.04987 0.0
C1562 C 0.26518 0.23038 0.99036 0.0
C1563 C 0.34031 0.27712 0.97269 0.0
N1564 N 0.24005 0.2589 0.03178 0.0
N1565 N 0.32536 0.2905 0.99064 0.0
H1566 H 0.07409 0.25507 0.46134 0.0
H1567 H 0.92885 0.28922 0.54756 0.0
H1568 H 0.08161 0.3673 0.4659 0.0
H1569 H 0.9531 0.19547 0.55798 0.0
H1570 H 0.97861 0.31576 0.51431 0.0
H1571 H 0.02575 0.2312 0.49467 0.0
C1572 C 0.06608 0.27495 0.4698 0.0
C1573 C 0.08222 0.31333 0.46109 0.0
C1574 C 0.97269 0.2892 0.52378 0.0
C1575 C 0.02543 0.2857 0.49874 0.0
C1576 C 0.94385 0.27369 0.54241 0.0
C1577 C 0.93661 0.23989 0.5554 0.0
C1578 C 0.99387 0.27037 0.51793 0.0
C1579 C 0.95762 0.22149 0.54841 0.0
C1580 C 0.0382 0.26123 0.4887 0.0
C1581 C 0.07041 0.33773 0.47248 0.0
N1582 N 0.98512 0.2369 0.53026 0.0
N1583 N 0.04226 0.32335 0.49051 0.0
H1584 H 0.67371 0.89682 0.03173 0.0
H1585 H 0.77493 0.11615 0.9842 0.0
H1586 H 0.74889 0.99214 0.08032 0.0
H1587 H 0.77531 0.02555 0.93937 0.0
H1588 H 0.75074 0.07025 0.01956 0.0
H1589 H 0.69571 0.94306 0.99659 0.0
C1590 C 0.69461 0.92715 0.03515 0.0
C1591 C 0.70955 0.94011 0.05918 0.0
C1592 C 0.75615 0.06074 1.00182 0.0
C1593 C 0.73356 0.99338 0.01929 0.0
C1594 C 0.77023 0.08701 0.98169 0.0
C1595 C 0.77778 0.07527 0.95862 0.0
C1596 C 0.74823 0.02213 0.99858 0.0
C1597 C 0.77036 0.0365 0.95665 0.0
C1598 C 0.70706 0.95355 0.0151 0.0
C1599 C 0.7366 0.98027 0.06224 0.0
N1600 N 0.75563 0.01138 0.97614 0.0
N1601 N 0.74732 1.00537 0.04271 0.0
H1602 H 0.82798 0.75698 0.55503 0.0
H1603 H 0.64849 0.72788 0.47146 0.0
H1604 H 0.72131 0.64648 0.55206 0.0
H1605 H 0.7678 0.81426 0.4562 0.0
H1606 H 0.67131 0.70139 0.505 0.0
H1607 H 0.804 0.78115 0.52151 0.0
C1608 C 0.79977 0.73752 0.54686 0.0
C1609 C 0.77684 0.69953 0.55604 0.0
C1610 C 0.69234 0.72634 0.49438 0.0
C1611 C 0.74831 0.72757 0.51828 0.0
C1612 C 0.67931 0.74184 0.47557 0.0
C1613 C 0.7063 0.77342 0.46111 0.0
C1614 C 0.73252 0.74308 0.49897 0.0
C1615 C 0.74598 0.7899 0.46688 0.0
C1616 C 0.78592 0.75142 0.52788 0.0
C1617 C 0.7402 0.67569 0.54509 0.0
N1618 N 0.75781 0.77462 0.48527 0.0
N1619 N 0.72676 0.69028 0.52699 0.0
H1620 H 0.94524 0.76318 0.96254 0.0
H1621 H 0.09134 0.72786 0.04649 0.0
H1622 H 0.93537 0.64999 0.96782 0.0
H1623 H 0.06586 0.82022 0.05993 0.0
H1624 H 0.04121 0.70228 0.01346 0.0
H1625 H 0.99433 0.78698 0.99553 0.0
C1626 C 0.95276 0.74307 0.97119 0.0
C1627 C 0.93572 0.70442 0.96285 0.0
C1628 C 0.04693 0.72831 0.02357 0.0
C1629 C 0.9934 0.73191 0.99983 0.0
C1630 C 0.07594 0.74327 0.04207 0.0
C1631 C 0.08288 0.77632 0.05587 0.0
C1632 C 0.02529 0.74696 0.01868 0.0
C1633 C 0.06151 0.7947 0.04975 0.0
C1634 C 0.98109 0.75675 0.98981 0.0
C1635 C 0.94714 0.67974 0.97423 0.0
N1636 N 0.03381 0.77982 0.0317 0.0
N1637 N 0.97575 0.69406 0.99193 0.0
H1638 H 0.19958 0.94955 0.45854 0.0
H1639 H 0.37322 0.07892 0.55321 0.0
H1640 H 0.29283 0.92556 0.47141 0.0
H1641 H 0.26105 0.07132 0.55488 0.0
H1642 H 0.3491 0.02879 0.52006 0.0
H1643 H 0.22507 0.99827 0.49159 0.0
C1644 C 0.22505 0.95396 0.46877 0.0
C1645 C 0.24383 0.9331 0.46235 0.0
C1646 C 0.33001 0.03852 0.5275 0.0
C1647 C 0.27423 0.99025 0.49999 0.0
C1648 C 0.34399 0.06761 0.54605 0.0
C1649 C 0.3192 0.07959 0.55657 0.0
C1650 C 0.29125 0.02192 0.51919 0.0
C1651 C 0.28119 0.06311 0.54718 0.0
C1652 C 0.23981 0.98209 0.48755 0.0
C1653 C 0.27704 0.94047 0.47608 0.0
N1654 N 0.26849 0.03532 0.52911 0.0
N1655 N 0.29153 0.96885 0.49406 0.0
loop_
_geom_bond_atom_site_label_1
_geom_bond_atom_site_label_2
_geom_bond_distance
_geom_bond_site_symmetry_2
_ccdc_geom_bond_type
C0 C2 1.422 . S
C0 C4 1.415 . S
C0 N6 1.369 . S
C1 C2 1.421 . S
C1 C3 1.412 1_455 S
C1 C13 1.422 . S
C2 C0 1.422 . S
C2 C1 1.421 . S
C2 N12 1.359 . S
C3 C1 1.412 1_655 S
C3 C5 1.325 1_655 S
C3 H22 0.940 . S
C4 C0 1.415 . S
C4 C5 1.437 . S
C4 C8 1.413 . S
C5 C3 1.325 1_455 S
C5 C4 1.437 . S
C5 H27 0.929 1_455 S
N6 C0 1.369 . S
N6 C7 1.338 . S
N6 Gd11 2.622 . S
C7 N6 1.338 . S
C7 C9 1.378 . S
C7 H19 0.929 . S
C8 C4 1.413 . S
C8 C9 1.348 . S
C8 H24 0.931 . S
C9 C7 1.378 . S
C9 C8 1.348 . S
C9 H25 0.930 1_554 S
Gd10 N30 2.622 . S
Gd10 N37 2.570 . S
Gd10 O44 2.353 . S
Gd10 O45 2.468 . S
Gd10 O46 2.427 . S
Gd10 O48 2.388 . S
Gd10 O49 2.386 . S
Gd10 O53 2.307 . S
Gd10 C63 2.805 . S
Gd11 N6 2.622 . S
Gd11 N12 2.570 . S
Gd11 O43 2.386 . S
Gd11 O47 2.307 . S
Gd11 O50 2.353 . S
Gd11 O51 2.468 . S
Gd11 O52 2.427 . S
Gd11 O54 2.388 . S
Gd11 C75 2.805 . S
N12 C2 1.359 . S
N12 Gd11 2.570 . S
N12 C14 1.343 . S
C13 C1 1.422 . S
C13 C15 1.321 . S
C13 H21 0.931 1_455 S
C14 N12 1.343 . S
C14 C15 1.390 . S
C14 H16 0.931 . S
C15 C13 1.321 . S
C15 C14 1.390 . S
C15 H17 0.930 . S
H16 C14 0.931 . S
H17 C15 0.930 . S
H18 C41 0.931 . S
H19 C7 0.929 . S
H20 C42 0.930 . S
H21 C13 0.931 1_655 S
H22 C3 0.940 . S
H23 C32 0.929 . S
H24 C8 0.931 . S
H25 C9 0.930 1_556 S
H26 C64 0.930 . S
H27 C5 0.929 1_655 S
H28 C33 0.931 . S
H29 C34 0.930 . S
N30 Gd10 2.622 . S
N30 C31 1.369 . S
N30 C32 1.338 . S
C31 N30 1.369 . S
C31 C35 1.415 . S
C31 C38 1.422 . S
C32 H23 0.929 . S
C32 N30 1.338 . S
C32 C34 1.378 . S
C33 H28 0.931 . S
C33 C34 1.348 . S
C33 C35 1.413 . S
C34 H29 0.930 . S
C34 C32 1.378 . S
C34 C33 1.348 . S
C35 C31 1.415 . S
C35 C33 1.413 . S
C35 C65 1.437 . S
H36 C65 0.929 . S
N37 Gd10 2.570 . S
N37 C38 1.359 . S
N37 C41 1.343 . S
C38 C31 1.422 . S
C38 N37 1.359 . S
C38 C40 1.421 . S
C39 C40 1.422 . S
C39 C42 1.321 . S
C39 H66 0.931 . S
C40 C38 1.421 . S
C40 C39 1.422 . S
C40 C64 1.417 . S
C41 H18 0.931 . S
C41 N37 1.343 . S
C41 C42 1.390 . S
C42 H20 0.930 . S
C42 C39 1.321 . S
C42 C41 1.390 . S
O43 Gd11 2.386 . S
O43 C55 1.265 . S
O44 Gd10 2.353 . S
O44 C55 1.242 . S
O45 Gd10 2.468 . S
O45 C63 1.263 . S
O46 Gd10 2.427 . S
O46 C63 1.252 . S
O47 Gd11 2.307 . S
O47 C56 1.261 . S
O48 Gd10 2.388 . S
O48 C56 1.252 . S
O49 Gd10 2.386 . S
O49 C67 1.265 . S
O50 Gd11 2.353 . S
O50 C67 1.242 . S
O51 Gd11 2.468 . S
O51 C75 1.263 . S
O52 Gd11 2.427 . S
O52 C75 1.252 . S
O53 Gd10 2.307 . S
O53 C68 1.261 . S
O54 Gd11 2.388 . S
O54 C68 1.252 . S
C55 O43 1.265 . S
C55 O44 1.242 . S
C56 O47 1.261 . S
C56 O48 1.252 . S
C57 C60 1.394 . S
C57 C62 1.370 . S
C57 C63 1.500 . S
C58 C61 1.383 . S
C58 C62 1.395 . S
C59 C60 1.396 . S
C59 C61 1.365 . S
C59 H76 0.929 . S
C60 C57 1.394 . S
C60 C59 1.396 . S
C60 H77 0.930 . S
C61 C58 1.383 . S
C61 C59 1.365 . S
C61 H78 0.931 . S
C62 C57 1.370 . S
C62 C58 1.395 . S
C62 H79 0.930 . S
C63 Gd10 2.805 . S
C63 O45 1.263 . S
C63 O46 1.252 . S
C63 C57 1.500 . S
C64 H26 0.930 . S
C64 C40 1.417 . S
C64 C65 1.329 . S
C65 C35 1.437 . S
C65 H36 0.929 . S
C65 C64 1.329 . S
H66 C39 0.931 . S
C67 O49 1.265 . S
C67 O50 1.242 . S
C68 O53 1.261 . S
C68 O54 1.252 . S
C69 C72 1.394 . S
C69 C74 1.370 . S
C69 C75 1.500 . S
C70 C73 1.383 . S
C70 C74 1.395 . S
C71 C72 1.396 . S
C71 C73 1.365 . S
C71 H80 0.929 . S
C72 C69 1.394 . S
C72 C71 1.396 . S
C72 H81 0.930 . S
C73 C70 1.383 . S
C73 C71 1.365 . S
C73 H82 0.931 . S
C74 C69 1.370 . S
C74 C70 1.395 . S
C74 H83 0.930 . S
C75 Gd11 2.805 . S
C75 O51 1.263 . S
C75 O52 1.252 . S
C75 C69 1.500 . S
H76 C59 0.929 . S
H77 C60 0.930 . S
H78 C61 0.931 . S
H79 C62 0.930 . S
H80 C71 0.929 . S
H81 C72 0.930 . S
H82 C73 0.931 . S
H83 C74 0.930 . S
C84 C86 1.422 . S
C84 C88 1.415 . S
C84 N90 1.369 . S
C85 C86 1.421 . S
C85 C87 1.411 1_545 S
C85 C97 1.422 . S
C86 C84 1.422 . S
C86 C85 1.421 . S
C86 N96 1.359 . S
C87 C85 1.411 1_565 S
C87 C89 1.327 1_565 S
C87 H106 0.938 . S
C88 C84 1.415 . S
C88 C89 1.437 . S
C88 C92 1.413 . S
C89 C87 1.327 1_545 S
C89 C88 1.437 . S
C89 H111 0.929 1_545 S
N90 C84 1.369 . S
N90 C91 1.338 . S
N90 Gd95 2.622 . S
C91 N90 1.338 . S
C91 C93 1.378 . S
C91 H103 0.929 . S
C92 C88 1.413 . S
C92 C93 1.348 . S
C92 H108 0.931 . S
C93 C91 1.378 . S
C93 C92 1.348 . S
C93 H109 0.930 . S
Gd94 N114 2.622 . S
Gd94 N121 2.570 . S
Gd94 O128 2.353 . S
Gd94 O129 2.468 . S
Gd94 O130 2.427 . S
Gd94 O132 2.388 . S
Gd94 O133 2.386 . S
Gd94 O137 2.307 . S
Gd94 C147 2.805 . S
Gd95 N90 2.622 . S
Gd95 N96 2.570 . S
Gd95 O127 2.386 . S
Gd95 O131 2.307 . S
Gd95 O134 2.353 . S
Gd95 O135 2.468 . S
Gd95 O136 2.427 . S
Gd95 O138 2.388 . S
Gd95 C159 2.805 . S
N96 C86 1.359 . S
N96 Gd95 2.570 . S
N96 C98 1.343 . S
C97 C85 1.422 . S
C97 C99 1.321 . S
C97 H105 0.931 1_545 S
C98 N96 1.343 . S
C98 C99 1.390 . S
C98 H100 0.931 . S
C99 C97 1.321 . S
C99 C98 1.390 . S
C99 H101 0.930 . S
H100 C98 0.931 . S
H101 C99 0.930 . S
H102 C125 0.931 . S
H103 C91 0.929 . S
H104 C126 0.934 . S
H105 C97 0.931 1_565 S
H106 C87 0.938 . S
H107 C116 0.929 . S
H108 C92 0.931 . S
H109 C93 0.930 . S
H110 C148 0.930 . S
H111 C89 0.929 1_565 S
H112 C117 0.931 . S
H113 C118 0.930 . S
N114 Gd94 2.622 . S
N114 C115 1.369 . S
N114 C116 1.338 . S
C115 N114 1.369 . S
C115 C119 1.415 . S
C115 C122 1.422 . S
C116 H107 0.929 . S
C116 N114 1.338 . S
C116 C118 1.378 . S
C117 H112 0.931 . S
C117 C118 1.348 . S
C117 C119 1.413 . S
C118 H113 0.930 . S
C118 C116 1.378 . S
C118 C117 1.348 . S
C119 C115 1.415 . S
C119 C117 1.413 . S
C119 C149 1.437 . S
H120 C149 0.929 1_455 S
N121 Gd94 2.570 . S
N121 C122 1.359 . S
N121 C125 1.343 . S
C122 C115 1.422 . S
C122 N121 1.359 . S
C122 C124 1.422 . S
C123 C124 1.421 1_455 S
C123 C126 1.320 . S
C123 H150 0.931 . S
C124 C122 1.422 . S
C124 C123 1.421 1_655 S
C124 C148 1.418 1_655 S
C125 H102 0.931 . S
C125 N121 1.343 . S
C125 C126 1.388 1_655 S
C126 H104 0.934 . S
C126 C123 1.320 . S
C126 C125 1.388 1_455 S
O127 Gd95 2.386 . S
O127 C139 1.265 . S
O128 Gd94 2.353 . S
O128 C139 1.242 . S
O129 Gd94 2.468 . S
O129 C147 1.263 . S
O130 Gd94 2.427 . S
O130 C147 1.252 . S
O131 Gd95 2.307 . S
O131 C140 1.261 . S
O132 Gd94 2.388 . S
O132 C140 1.252 . S
O133 Gd94 2.386 . S
O133 C151 1.265 . S
O134 Gd95 2.353 . S
O134 C151 1.242 . S
O135 Gd95 2.468 . S
O135 C159 1.263 . S
O136 Gd95 2.427 . S
O136 C159 1.252 . S
O137 Gd94 2.307 . S
O137 C152 1.261 . S
O138 Gd95 2.388 . S
O138 C152 1.252 . S
C139 O127 1.265 . S
C139 O128 1.242 . S
C140 O131 1.261 . S
C140 O132 1.252 . S
C141 C144 1.394 . S
C141 C146 1.370 . S
C141 C147 1.500 1_455 S
C142 C145 1.383 . S
C142 C146 1.395 . S
C143 C144 1.396 . S
C143 C145 1.365 . S
C143 H160 0.929 . S
C144 C141 1.394 . S
C144 C143 1.396 . S
C144 H161 0.930 . S
C145 C142 1.383 . S
C145 C143 1.365 . S
C145 H162 0.931 . S
C146 C141 1.370 . S
C146 C142 1.395 . S
C146 H163 0.930 . S
C147 Gd94 2.805 . S
C147 O129 1.263 . S
C147 O130 1.252 . S
C147 C141 1.500 1_655 S
C148 H110 0.930 . S
C148 C124 1.418 1_455 S
C148 C149 1.329 1_455 S
C149 C119 1.437 . S
C149 H120 0.929 1_655 S
C149 C148 1.329 1_655 S
H150 C123 0.931 . S
C151 O133 1.265 . S
C151 O134 1.242 . S
C152 O137 1.261 . S
C152 O138 1.252 . S
C153 C156 1.394 . S
C153 C158 1.370 . S
C153 C159 1.500 . S
C154 C157 1.383 . S
C154 C158 1.395 . S
C155 C156 1.396 . S
C155 C157 1.365 . S
C155 H164 0.929 . S
C156 C153 1.394 . S
C156 C155 1.396 . S
C156 H165 0.930 . S
C157 C154 1.383 . S
C157 C155 1.365 . S
C157 H166 0.931 . S
C158 C153 1.370 . S
C158 C154 1.395 . S
C158 H167 0.930 . S
C159 Gd95 2.805 . S
C159 O135 1.263 . S
C159 O136 1.252 . S
C159 C153 1.500 . S
H160 C143 0.929 . S
H161 C144 0.930 . S
H162 C145 0.931 . S
H163 C146 0.930 . S
H164 C155 0.929 . S
H165 C156 0.930 . S
H166 C157 0.931 . S
H167 C158 0.930 . S
C168 C170 1.422 . S
C168 C172 1.415 . S
C168 N174 1.369 . S
C169 C170 1.421 . S
C169 C171 1.417 . S
C169 C181 1.422 . S
C170 C168 1.422 . S
C170 C169 1.421 . S
C170 N180 1.359 . S
C171 C169 1.417 . S
C171 C173 1.329 . S
C171 H190 0.930 . S
C172 C168 1.415 . S
C172 C173 1.437 . S
C172 C176 1.413 . S
C173 C171 1.329 . S
C173 C172 1.437 . S
C173 H195 0.929 . S
N174 C168 1.369 . S
N174 C175 1.338 . S
N174 Gd179 2.622 . S
C175 N174 1.338 . S
C175 C177 1.378 . S
C175 H187 0.929 . S
C176 C172 1.413 . S
C176 C177 1.348 . S
C176 H192 0.931 . S
C177 C175 1.378 . S
C177 C176 1.348 . S
C177 H193 0.930 1_554 S
Gd178 N198 2.622 . S
Gd178 N205 2.570 . S
Gd178 O212 2.353 . S
Gd178 O213 2.468 . S
Gd178 O214 2.427 . S
Gd178 O216 2.388 . S
Gd178 O217 2.386 . S
Gd178 O221 2.307 . S
Gd178 C231 2.805 . S
Gd179 N174 2.622 . S
Gd179 N180 2.570 . S
Gd179 O211 2.386 . S
Gd179 O215 2.307 . S
Gd179 O218 2.353 . S
Gd179 O219 2.468 . S
Gd179 O220 2.427 . S
Gd179 O222 2.388 . S
Gd179 C243 2.805 . S
N180 C170 1.359 . S
N180 Gd179 2.570 . S
N180 C182 1.343 . S
C181 C169 1.422 . S
C181 C183 1.321 . S
C181 H189 0.931 . S
C182 N180 1.343 . S
C182 C183 1.390 . S
C182 H184 0.931 . S
C183 C181 1.321 . S
C183 C182 1.390 . S
C183 H185 0.930 . S
H184 C182 0.931 . S
H185 C183 0.930 . S
H186 C209 0.931 . S
H187 C175 0.929 . S
H188 C210 0.937 . S
H189 C181 0.931 . S
H190 C171 0.930 . S
H191 C200 0.929 . S
H192 C176 0.931 . S
H193 C177 0.930 1_556 S
H194 C232 0.930 . S
H195 C173 0.929 . S
H196 C201 0.931 . S
H197 C202 0.930 . S
N198 Gd178 2.622 . S
N198 C199 1.369 . S
N198 C200 1.338 . S
C199 N198 1.369 . S
C199 C203 1.415 . S
C199 C206 1.422 . S
C200 H191 0.929 . S
C200 N198 1.338 . S
C200 C202 1.378 . S
C201 H196 0.931 . S
C201 C202 1.348 . S
C201 C203 1.413 . S
C202 H197 0.930 . S
C202 C200 1.378 . S
C202 C201 1.348 . S
C203 C199 1.415 . S
C203 C201 1.413 . S
C203 C233 1.437 . S
H204 C233 0.929 1_545 S
N205 Gd178 2.570 . S
N205 C206 1.359 . S
N205 C209 1.343 . S
C206 C199 1.422 . S
C206 N205 1.359 . S
C206 C208 1.428 . S
C207 C208 1.419 1_545 S
C207 C210 1.333 . S
C207 H234 0.931 . S
C208 C206 1.428 . S
C208 C207 1.419 1_565 S
C208 C232 1.413 1_565 S
C209 H186 0.931 . S
C209 N205 1.343 . S
C209 C210 1.372 1_565 S
C210 H188 0.937 . S
C210 C207 1.333 . S
C210 C209 1.372 1_545 S
O211 Gd179 2.386 . S
O211 C223 1.265 . S
O212 Gd178 2.353 . S
O212 C223 1.242 . S
O213 Gd178 2.468 . S
O213 C231 1.263 . S
O214 Gd178 2.427 . S
O214 C231 1.252 . S
O215 Gd179 2.307 . S
O215 C224 1.261 . S
O216 Gd178 2.388 . S
O216 C224 1.252 . S
O217 Gd178 2.386 . S
O217 C235 1.265 . S
O218 Gd179 2.353 . S
O218 C235 1.242 . S
O219 Gd179 2.468 . S
O219 C243 1.263 . S
O220 Gd179 2.427 . S
O220 C243 1.252 . S
O221 Gd178 2.307 . S
O221 C236 1.261 . S
O222 Gd179 2.388 . S
O222 C236 1.252 . S
C223 O211 1.265 . S
C223 O212 1.242 . S
C224 O215 1.261 . S
C224 O216 1.252 . S
C225 C228 1.394 . S
C225 C230 1.370 . S
C225 C231 1.500 1_545 S
C226 C229 1.383 . S
C226 C230 1.395 . S
C227 C228 1.396 . S
C227 C229 1.365 . S
C227 H244 0.929 . S
C228 C225 1.394 . S
C228 C227 1.396 . S
C228 H245 0.930 . S
C229 C226 1.383 . S
C229 C227 1.365 . S
C229 H246 0.931 . S
C230 C225 1.370 . S
C230 C226 1.395 . S
C230 H247 0.930 . S
C231 Gd178 2.805 . S
C231 O213 1.263 . S
C231 O214 1.252 . S
C231 C225 1.500 1_565 S
C232 H194 0.930 . S
C232 C208 1.413 1_545 S
C232 C233 1.329 1_545 S
C233 C203 1.437 . S
C233 H204 0.929 1_565 S
C233 C232 1.329 1_565 S
H234 C207 0.931 . S
C235 O217 1.265 . S
C235 O218 1.242 . S
C236 O221 1.261 . S
C236 O222 1.252 . S
C237 C240 1.394 . S
C237 C242 1.370 . S
C237 C243 1.500 . S
C238 C241 1.383 . S
C238 C242 1.395 . S
C239 C240 1.396 . S
C239 C241 1.365 . S
C239 H248 0.929 . S
C240 C237 1.394 . S
C240 C239 1.396 . S
C240 H249 0.930 . S
C241 C238 1.383 . S
C241 C239 1.365 . S
C241 H250 0.931 . S
C242 C237 1.370 . S
C242 C238 1.395 . S
C242 H251 0.930 . S
C243 Gd179 2.805 . S
C243 O219 1.263 . S
C243 O220 1.252 . S
C243 C237 1.500 . S
H244 C227 0.929 . S
H245 C228 0.930 . S
H246 C229 0.931 . S
H247 C230 0.930 . S
H248 C239 0.929 . S
H249 C240 0.930 . S
H250 C241 0.931 . S
H251 C242 0.930 . S
C252 C254 1.422 . S
C252 C256 1.415 . S
C252 N258 1.369 . S
C253 C254 1.421 . S
C253 C255 1.412 1_655 S
C253 C265 1.422 . S
C254 C252 1.422 . S
C254 C253 1.421 . S
C254 N264 1.359 . S
C255 C253 1.412 1_455 S
C255 C257 1.325 1_455 S
C255 H274 0.940 . S
C256 C252 1.415 . S
C256 C257 1.437 . S
C256 C260 1.413 . S
C257 C255 1.325 1_655 S
C257 C256 1.437 . S
C257 H279 0.929 1_655 S
N258 C252 1.369 . S
N258 C259 1.338 . S
N258 Gd263 2.622 . S
C259 N258 1.338 . S
C259 C261 1.378 . S
C259 H271 0.929 . S
C260 C256 1.413 . S
C260 C261 1.348 . S
C260 H276 0.931 . S
C261 C259 1.378 . S
C261 C260 1.348 . S
C261 H277 0.930 . S
Gd262 N282 2.622 . S
Gd262 N289 2.570 . S
Gd262 O296 2.353 . S
Gd262 O297 2.468 . S
Gd262 O298 2.427 . S
Gd262 O300 2.388 . S
Gd262 O301 2.386 . S
Gd262 O305 2.307 . S
Gd262 C315 2.805 . S
Gd263 N258 2.622 . S
Gd263 N264 2.570 . S
Gd263 O295 2.386 . S
Gd263 O299 2.307 . S
Gd263 O302 2.353 . S
Gd263 O303 2.468 . S
Gd263 O304 2.427 . S
Gd263 O306 2.388 . S
Gd263 C327 2.805 . S
N264 C254 1.359 . S
N264 Gd263 2.570 . S
N264 C266 1.343 . S
C265 C253 1.422 . S
C265 C267 1.321 . S
C265 H273 0.931 1_655 S
C266 N264 1.343 . S
C266 C267 1.390 . S
C266 H268 0.931 . S
C267 C265 1.321 . S
C267 C266 1.390 . S
C267 H269 0.930 . S
H268 C266 0.931 . S
H269 C267 0.930 . S
H270 C293 0.931 . S
H271 C259 0.929 . S
H272 C294 0.930 . S
H273 C265 0.931 1_455 S
H274 C255 0.940 . S
H275 C284 0.929 . S
H276 C260 0.931 . S
H277 C261 0.930 . S
H278 C316 0.930 . S
H279 C257 0.929 1_455 S
H280 C285 0.931 . S
H281 C286 0.930 . S
N282 Gd262 2.622 . S
N282 C283 1.369 . S
N282 C284 1.338 . S
C283 N282 1.369 . S
C283 C287 1.415 . S
C283 C290 1.422 . S
C284 H275 0.929 . S
C284 N282 1.338 . S
C284 C286 1.378 . S
C285 H280 0.931 . S
C285 C286 1.348 . S
C285 C287 1.413 . S
C286 H281 0.930 . S
C286 C284 1.378 . S
C286 C285 1.348 . S
C287 C283 1.415 . S
C287 C285 1.413 . S
C287 C317 1.437 . S
H288 C317 0.929 . S
N289 Gd262 2.570 . S
N289 C290 1.359 . S
N289 C293 1.343 . S
C290 C283 1.422 . S
C290 N289 1.359 . S
C290 C292 1.421 . S
C291 C292 1.422 . S
C291 C294 1.321 . S
C291 H318 0.931 . S
C292 C290 1.421 . S
C292 C291 1.422 . S
C292 C316 1.417 . S
C293 H270 0.931 . S
C293 N289 1.343 . S
C293 C294 1.390 . S
C294 H272 0.930 . S
C294 C291 1.321 . S
C294 C293 1.390 . S
O295 Gd263 2.386 . S
O295 C307 1.265 . S
O296 Gd262 2.353 . S
O296 C307 1.242 . S
O297 Gd262 2.468 . S
O297 C315 1.263 . S
O298 Gd262 2.427 . S
O298 C315 1.252 . S
O299 Gd263 2.307 . S
O299 C308 1.261 . S
O300 Gd262 2.388 . S
O300 C308 1.252 . S
O301 Gd262 2.386 . S
O301 C319 1.265 . S
O302 Gd263 2.353 . S
O302 C319 1.242 . S
O303 Gd263 2.468 . S
O303 C327 1.263 . S
O304 Gd263 2.427 . S
O304 C327 1.252 . S
O305 Gd262 2.307 . S
O305 C320 1.261 . S
O306 Gd263 2.388 . S
O306 C320 1.252 . S
C307 O295 1.265 . S
C307 O296 1.242 . S
C308 O299 1.261 . S
C308 O300 1.252 . S
C309 C312 1.394 . S
C309 C314 1.370 . S
C309 C315 1.500 . S
C310 C313 1.383 . S
C310 C314 1.395 . S
C311 C312 1.396 . S
C311 C313 1.365 . S
C311 H328 0.929 . S
C312 C309 1.394 . S
C312 C311 1.396 . S
C312 H329 0.930 . S
C313 C310 1.383 . S
C313 C311 1.365 . S
C313 H330 0.931 . S
C314 C309 1.370 . S
C314 C310 1.395 . S
C314 H331 0.930 . S
C315 Gd262 2.805 . S
C315 O297 1.263 . S
C315 O298 1.252 . S
C315 C309 1.500 . S
C316 H278 0.930 . S
C316 C292 1.417 . S
C316 C317 1.329 . S
C317 C287 1.437 . S
C317 H288 0.929 . S
C317 C316 1.329 . S
H318 C291 0.931 . S
C319 O301 1.265 . S
C319 O302 1.242 . S
C320 O305 1.261 . S
C320 O306 1.252 . S
C321 C324 1.394 . S
C321 C326 1.370 . S
C321 C327 1.500 . S
C322 C325 1.383 . S
C322 C326 1.395 . S
C323 C324 1.396 . S
C323 C325 1.365 . S
C323 H332 0.929 . S
C324 C321 1.394 . S
C324 C323 1.396 . S
C324 H333 0.930 . S
C325 C322 1.383 . S
C325 C323 1.365 . S
C325 H334 0.931 . S
C326 C321 1.370 . S
C326 C322 1.395 . S
C326 H335 0.930 . S
C327 Gd263 2.805 . S
C327 O303 1.263 . S
C327 O304 1.252 . S
C327 C321 1.500 . S
H328 C311 0.929 . S
H329 C312 0.930 . S
H330 C313 0.931 . S
H331 C314 0.930 . S
H332 C323 0.929 . S
H333 C324 0.930 . S
H334 C325 0.931 . S
H335 C326 0.930 . S
C336 C338 1.422 . S
C336 C340 1.415 . S
C336 N342 1.369 . S
C337 C338 1.421 . S
C337 C339 1.411 1_565 S
C337 C349 1.422 . S
C338 C336 1.422 . S
C338 C337 1.421 . S
C338 N348 1.359 . S
C339 C337 1.411 1_545 S
C339 C341 1.327 1_545 S
C339 H358 0.938 . S
C340 C336 1.415 . S
C340 C341 1.437 . S
C340 C344 1.413 . S
C341 C339 1.327 1_565 S
C341 C340 1.437 . S
C341 H363 0.929 1_565 S
N342 C336 1.369 . S
N342 C343 1.338 . S
N342 Gd347 2.622 . S
C343 N342 1.338 . S
C343 C345 1.378 . S
C343 H355 0.929 . S
C344 C340 1.413 . S
C344 C345 1.348 . S
C344 H360 0.931 . S
C345 C343 1.378 . S
C345 C344 1.348 . S
C345 H361 0.930 1_554 S
Gd346 N366 2.622 . S
Gd346 N373 2.570 . S
Gd346 O380 2.353 . S
Gd346 O381 2.468 . S
Gd346 O382 2.427 . S
Gd346 O384 2.388 . S
Gd346 O385 2.386 . S
Gd346 O389 2.307 . S
Gd346 C399 2.805 . S
Gd347 N342 2.622 . S
Gd347 N348 2.570 . S
Gd347 O379 2.386 . S
Gd347 O383 2.307 . S
Gd347 O386 2.353 . S
Gd347 O387 2.468 . S
Gd347 O388 2.427 . S
Gd347 O390 2.388 . S
Gd347 C411 2.805 . S
N348 C338 1.359 . S
N348 Gd347 2.570 . S
N348 C350 1.343 . S
C349 C337 1.422 . S
C349 C351 1.321 . S
C349 H357 0.931 1_565 S
C350 N348 1.343 . S
C350 C351 1.390 . S
C350 H352 0.931 . S
C351 C349 1.321 . S
C351 C350 1.390 . S
C351 H353 0.930 . S
H352 C350 0.931 . S
H353 C351 0.930 . S
H354 C377 0.931 . S
H355 C343 0.929 . S
H356 C378 0.934 . S
H357 C349 0.931 1_545 S
H358 C339 0.938 . S
H359 C368 0.929 . S
H360 C344 0.931 . S
H361 C345 0.930 1_556 S
H362 C400 0.930 . S
H363 C341 0.929 1_545 S
H364 C369 0.931 . S
H365 C370 0.930 . S
N366 Gd346 2.622 . S
N366 C367 1.369 . S
N366 C368 1.338 . S
C367 N366 1.369 . S
C367 C371 1.415 . S
C367 C374 1.422 . S
C368 H359 0.929 . S
C368 N366 1.338 . S
C368 C370 1.378 . S
C369 H364 0.931 . S
C369 C370 1.348 . S
C369 C371 1.413 . S
C370 H365 0.930 . S
C370 C368 1.378 . S
C370 C369 1.348 . S
C371 C367 1.415 . S
C371 C369 1.413 . S
C371 C401 1.437 . S
H372 C401 0.929 1_655 S
N373 Gd346 2.570 . S
N373 C374 1.359 . S
N373 C377 1.343 . S
C374 C367 1.422 . S
C374 N373 1.359 . S
C374 C376 1.422 . S
C375 C376 1.421 1_655 S
C375 C378 1.320 . S
C375 H402 0.931 . S
C376 C374 1.422 . S
C376 C375 1.421 1_455 S
C376 C400 1.418 1_455 S
C377 H354 0.931 . S
C377 N373 1.343 . S
C377 C378 1.388 1_455 S
C378 H356 0.934 . S
C378 C375 1.320 . S
C378 C377 1.388 1_655 S
O379 Gd347 2.386 . S
O379 C391 1.265 . S
O380 Gd346 2.353 . S
O380 C391 1.242 . S
O381 Gd346 2.468 . S
O381 C399 1.263 . S
O382 Gd346 2.427 . S
O382 C399 1.252 . S
O383 Gd347 2.307 . S
O383 C392 1.261 . S
O384 Gd346 2.388 . S
O384 C392 1.252 . S
O385 Gd346 2.386 . S
O385 C403 1.265 . S
O386 Gd347 2.353 . S
O386 C403 1.242 . S
O387 Gd347 2.468 . S
O387 C411 1.263 . S
O388 Gd347 2.427 . S
O388 C411 1.252 . S
O389 Gd346 2.307 . S
O389 C404 1.261 . S
O390 Gd347 2.388 . S
O390 C404 1.252 . S
C391 O379 1.265 . S
C391 O380 1.242 . S
C392 O383 1.261 . S
C392 O384 1.252 . S
C393 C396 1.394 . S
C393 C398 1.370 . S
C393 C399 1.500 1_655 S
C394 C397 1.383 . S
C394 C398 1.395 . S
C395 C396 1.396 . S
C395 C397 1.365 . S
C395 H412 0.929 . S
C396 C393 1.394 . S
C396 C395 1.396 . S
C396 H413 0.930 . S
C397 C394 1.383 . S
C397 C395 1.365 . S
C397 H414 0.931 . S
C398 C393 1.370 . S
C398 C394 1.395 . S
C398 H415 0.930 . S
C399 Gd346 2.805 . S
C399 O381 1.263 . S
C399 O382 1.252 . S
C399 C393 1.500 1_455 S
C400 H362 0.930 . S
C400 C376 1.418 1_655 S
C400 C401 1.329 1_655 S
C401 C371 1.437 . S
C401 H372 0.929 1_455 S
C401 C400 1.329 1_455 S
H402 C375 0.931 . S
C403 O385 1.265 . S
C403 O386 1.242 . S
C404 O389 1.261 . S
C404 O390 1.252 . S
C405 C408 1.394 . S
C405 C410 1.370 . S
C405 C411 1.500 . S
C406 C409 1.383 . S
C406 C410 1.395 . S
C407 C408 1.396 . S
C407 C409 1.365 . S
C407 H416 0.929 . S
C408 C405 1.394 . S
C408 C407 1.396 . S
C408 H417 0.930 . S
C409 C406 1.383 . S
C409 C407 1.365 . S
C409 H418 0.931 . S
C410 C405 1.370 . S
C410 C406 1.395 . S
C410 H419 0.930 . S
C411 Gd347 2.805 . S
C411 O387 1.263 . S
C411 O388 1.252 . S
C411 C405 1.500 . S
H412 C395 0.929 . S
H413 C396 0.930 . S
H414 C397 0.931 . S
H415 C398 0.930 . S
H416 C407 0.929 . S
H417 C408 0.930 . S
H418 C409 0.931 . S
H419 C410 0.930 . S
C420 C422 1.422 . S
C420 C424 1.415 . S
C420 N426 1.369 . S
C421 C422 1.421 . S
C421 C423 1.417 . S
C421 C433 1.422 . S
C422 C420 1.422 . S
C422 C421 1.421 . S
C422 N432 1.359 . S
C423 C421 1.417 . S
C423 C425 1.329 . S
C423 H442 0.930 . S
C424 C420 1.415 . S
C424 C425 1.437 . S
C424 C428 1.413 . S
C425 C423 1.329 . S
C425 C424 1.437 . S
C425 H447 0.929 . S
N426 C420 1.369 . S
N426 C427 1.338 . S
N426 Gd431 2.622 . S
C427 N426 1.338 . S
C427 C429 1.378 . S
C427 H439 0.929 . S
C428 C424 1.413 . S
C428 C429 1.348 . S
C428 H444 0.931 . S
C429 C427 1.378 . S
C429 C428 1.348 . S
C429 H445 0.930 . S
Gd430 N450 2.622 . S
Gd430 N457 2.570 . S
Gd430 O464 2.353 . S
Gd430 O465 2.468 . S
Gd430 O466 2.427 . S
Gd430 O468 2.388 . S
Gd430 O469 2.386 . S
Gd430 O473 2.307 . S
Gd430 C483 2.805 . S
Gd431 N426 2.622 . S
Gd431 N432 2.570 . S
Gd431 O463 2.386 . S
Gd431 O467 2.307 . S
Gd431 O470 2.353 . S
Gd431 O471 2.468 . S
Gd431 O472 2.427 . S
Gd431 O474 2.388 . S
Gd431 C495 2.805 . S
N432 C422 1.359 . S
N432 Gd431 2.570 . S
N432 C434 1.343 . S
C433 C421 1.422 . S
C433 C435 1.321 . S
C433 H441 0.931 . S
C434 N432 1.343 . S
C434 C435 1.390 . S
C434 H436 0.931 . S
C435 C433 1.321 . S
C435 C434 1.390 . S
C435 H437 0.930 . S
H436 C434 0.931 . S
H437 C435 0.930 . S
H438 C461 0.931 . S
H439 C427 0.929 . S
H440 C462 0.937 . S
H441 C433 0.931 . S
H442 C423 0.930 . S
H443 C452 0.929 . S
H444 C428 0.931 . S
H445 C429 0.930 . S
H446 C484 0.930 . S
H447 C425 0.929 . S
H448 C453 0.931 . S
H449 C454 0.930 . S
N450 Gd430 2.622 . S
N450 C451 1.369 . S
N450 C452 1.338 . S
C451 N450 1.369 . S
C451 C455 1.415 . S
C451 C458 1.422 . S
C452 H443 0.929 . S
C452 N450 1.338 . S
C452 C454 1.378 . S
C453 H448 0.931 . S
C453 C454 1.348 . S
C453 C455 1.413 . S
C454 H449 0.930 . S
C454 C452 1.378 . S
C454 C453 1.348 . S
C455 C451 1.415 . S
C455 C453 1.413 . S
C455 C485 1.437 . S
H456 C485 0.929 1_565 S
N457 Gd430 2.570 . S
N457 C458 1.359 . S
N457 C461 1.343 . S
C458 C451 1.422 . S
C458 N457 1.359 . S
C458 C460 1.428 . S
C459 C460 1.419 1_565 S
C459 C462 1.333 . S
C459 H486 0.931 . S
C460 C458 1.428 . S
C460 C459 1.419 1_545 S
C460 C484 1.413 1_545 S
C461 H438 0.931 . S
C461 N457 1.343 . S
C461 C462 1.372 1_545 S
C462 H440 0.937 . S
C462 C459 1.333 . S
C462 C461 1.372 1_565 S
O463 Gd431 2.386 . S
O463 C475 1.265 . S
O464 Gd430 2.353 . S
O464 C475 1.242 . S
O465 Gd430 2.468 . S
O465 C483 1.263 . S
O466 Gd430 2.427 . S
O466 C483 1.252 . S
O467 Gd431 2.307 . S
O467 C476 1.261 . S
O468 Gd430 2.388 . S
O468 C476 1.252 . S
O469 Gd430 2.386 . S
O469 C487 1.265 . S
O470 Gd431 2.353 . S
O470 C487 1.242 . S
O471 Gd431 2.468 . S
O471 C495 1.263 . S
O472 Gd431 2.427 . S
O472 C495 1.252 . S
O473 Gd430 2.307 . S
O473 C488 1.261 . S
O474 Gd431 2.388 . S
O474 C488 1.252 . S
C475 O463 1.265 . S
C475 O464 1.242 . S
C476 O467 1.261 . S
C476 O468 1.252 . S
C477 C480 1.394 . S
C477 C482 1.370 . S
C477 C483 1.500 1_565 S
C478 C481 1.383 . S
C478 C482 1.395 . S
C479 C480 1.396 . S
C479 C481 1.365 . S
C479 H496 0.929 . S
C480 C477 1.394 . S
C480 C479 1.396 . S
C480 H497 0.930 . S
C481 C478 1.383 . S
C481 C479 1.365 . S
C481 H498 0.931 . S
C482 C477 1.370 . S
C482 C478 1.395 . S
C482 H499 0.930 . S
C483 Gd430 2.805 . S
C483 O465 1.263 . S
C483 O466 1.252 . S
C483 C477 1.500 1_545 S
C484 H446 0.930 . S
C484 C460 1.413 1_565 S
C484 C485 1.329 1_565 S
C485 C455 1.437 . S
C485 H456 0.929 1_545 S
C485 C484 1.329 1_545 S
H486 C459 0.931 . S
C487 O469 1.265 . S
C487 O470 1.242 . S
C488 O473 1.261 . S
C488 O474 1.252 . S
C489 C492 1.394 . S
C489 C494 1.370 . S
C489 C495 1.500 . S
C490 C493 1.383 . S
C490 C494 1.395 . S
C491 C492 1.396 . S
C491 C493 1.365 . S
C491 H500 0.929 . S
C492 C489 1.394 . S
C492 C491 1.396 . S
C492 H501 0.930 . S
C493 C490 1.383 . S
C493 C491 1.365 . S
C493 H502 0.931 . S
C494 C489 1.370 . S
C494 C490 1.395 . S
C494 H503 0.930 . S
C495 Gd431 2.805 . S
C495 O471 1.263 . S
C495 O472 1.252 . S
C495 C489 1.500 . S
H496 C479 0.929 . S
H497 C480 0.930 . S
H498 C481 0.931 . S
H499 C482 0.930 . S
H500 C491 0.929 . S
H501 C492 0.930 . S
H502 C493 0.931 . S
H503 C494 0.930 . S
C504 C506 1.422 . S
C504 C508 1.415 . S
C504 N510 1.369 . S
C505 C506 1.421 . S
C505 C507 1.412 1_565 S
C505 C517 1.422 . S
C506 C504 1.422 . S
C506 C505 1.421 . S
C506 N516 1.359 . S
C507 C505 1.412 1_545 S
C507 C509 1.325 1_545 S
C507 H526 0.940 . S
C508 C504 1.415 . S
C508 C509 1.437 . S
C508 C512 1.413 . S
C509 C507 1.325 1_565 S
C509 C508 1.437 . S
C509 H531 0.929 1_565 S
N510 C504 1.369 . S
N510 C511 1.338 . S
N510 Gd515 2.622 . S
C511 N510 1.338 . S
C511 C513 1.378 . S
C511 H523 0.929 . S
C512 C508 1.413 . S
C512 C513 1.348 . S
C512 H528 0.931 . S
C513 C511 1.378 . S
C513 C512 1.348 . S
C513 H529 0.930 . S
Gd514 N534 2.622 . S
Gd514 N541 2.570 . S
Gd514 O548 2.353 . S
Gd514 O549 2.468 . S
Gd514 O550 2.427 . S
Gd514 O552 2.388 . S
Gd514 O553 2.386 . S
Gd514 O557 2.307 . S
Gd514 C567 2.805 . S
Gd515 N510 2.622 . S
Gd515 N516 2.570 . S
Gd515 O547 2.386 . S
Gd515 O551 2.307 . S
Gd515 O554 2.353 . S
Gd515 O555 2.468 . S
Gd515 O556 2.427 . S
Gd515 O558 2.388 . S
Gd515 C579 2.805 . S
N516 C506 1.359 . S
N516 Gd515 2.570 . S
N516 C518 1.343 . S
C517 C505 1.422 . S
C517 C519 1.321 . S
C517 H525 0.931 1_565 S
C518 N516 1.343 . S
C518 C519 1.390 . S
C518 H520 0.931 . S
C519 C517 1.321 . S
C519 C518 1.390 . S
C519 H521 0.930 . S
H520 C518 0.931 . S
H521 C519 0.930 . S
H522 C545 0.931 . S
H523 C511 0.929 . S
H524 C546 0.930 . S
H525 C517 0.931 1_545 S
H526 C507 0.940 . S
H527 C536 0.929 . S
H528 C512 0.931 . S
H529 C513 0.930 . S
H530 C568 0.930 . S
H531 C509 0.929 1_545 S
H532 C537 0.931 . S
H533 C538 0.930 . S
N534 Gd514 2.622 . S
N534 C535 1.369 . S
N534 C536 1.338 . S
C535 N534 1.369 . S
C535 C539 1.415 . S
C535 C542 1.422 . S
C536 H527 0.929 . S
C536 N534 1.338 . S
C536 C538 1.378 . S
C537 H532 0.931 . S
C537 C538 1.348 . S
C537 C539 1.413 . S
C538 H533 0.930 . S
C538 C536 1.378 . S
C538 C537 1.348 . S
C539 C535 1.415 . S
C539 C537 1.413 . S
C539 C569 1.437 . S
H540 C569 0.929 . S
N541 Gd514 2.570 . S
N541 C542 1.359 . S
N541 C545 1.343 . S
C542 C535 1.422 . S
C542 N541 1.359 . S
C542 C544 1.421 . S
C543 C544 1.422 . S
C543 C546 1.321 . S
C543 H570 0.931 . S
C544 C542 1.421 . S
C544 C543 1.422 . S
C544 C568 1.417 . S
C545 H522 0.931 . S
C545 N541 1.343 . S
C545 C546 1.390 . S
C546 H524 0.930 . S
C546 C543 1.321 . S
C546 C545 1.390 . S
O547 Gd515 2.386 . S
O547 C559 1.265 . S
O548 Gd514 2.353 . S
O548 C559 1.242 . S
O549 Gd514 2.468 . S
O549 C567 1.263 . S
O550 Gd514 2.427 . S
O550 C567 1.252 . S
O551 Gd515 2.307 . S
O551 C560 1.261 . S
O552 Gd514 2.388 . S
O552 C560 1.252 . S
O553 Gd514 2.386 . S
O553 C571 1.265 . S
O554 Gd515 2.353 . S
O554 C571 1.242 . S
O555 Gd515 2.468 . S
O555 C579 1.263 . S
O556 Gd515 2.427 . S
O556 C579 1.252 . S
O557 Gd514 2.307 . S
O557 C572 1.261 . S
O558 Gd515 2.388 . S
O558 C572 1.252 . S
C559 O547 1.265 . S
C559 O548 1.242 . S
C560 O551 1.261 . S
C560 O552 1.252 . S
C561 C564 1.394 . S
C561 C566 1.370 . S
C561 C567 1.500 . S
C562 C565 1.383 . S
C562 C566 1.395 . S
C563 C564 1.396 . S
C563 C565 1.365 . S
C563 H580 0.929 . S
C564 C561 1.394 . S
C564 C563 1.396 . S
C564 H581 0.930 . S
C565 C562 1.383 . S
C565 C563 1.365 . S
C565 H582 0.931 . S
C566 C561 1.370 . S
C566 C562 1.395 . S
C566 H583 0.930 . S
C567 Gd514 2.805 . S
C567 O549 1.263 . S
C567 O550 1.252 . S
C567 C561 1.500 . S
C568 H530 0.930 . S
C568 C544 1.417 . S
C568 C569 1.329 . S
C569 C539 1.437 . S
C569 H540 0.929 . S
C569 C568 1.329 . S
H570 C543 0.931 . S
C571 O553 1.265 . S
C571 O554 1.242 . S
C572 O557 1.261 . S
C572 O558 1.252 . S
C573 C576 1.394 . S
C573 C578 1.370 . S
C573 C579 1.500 . S
C574 C577 1.383 . S
C574 C578 1.395 . S
C575 C576 1.396 . S
C575 C577 1.365 . S
C575 H584 0.929 . S
C576 C573 1.394 . S
C576 C575 1.396 . S
C576 H585 0.930 . S
C577 C574 1.383 . S
C577 C575 1.365 . S
C577 H586 0.931 . S
C578 C573 1.370 . S
C578 C574 1.395 . S
C578 H587 0.930 . S
C579 Gd515 2.805 . S
C579 O555 1.263 . S
C579 O556 1.252 . S
C579 C573 1.500 . S
H580 C563 0.929 . S
H581 C564 0.930 . S
H582 C565 0.931 . S
H583 C566 0.930 . S
H584 C575 0.929 . S
H585 C576 0.930 . S
H586 C577 0.931 . S
H587 C578 0.930 . S
C588 C590 1.422 . S
C588 C592 1.415 . S
C588 N594 1.369 . S
C589 C590 1.421 . S
C589 C591 1.417 . S
C589 C601 1.422 . S
C590 C588 1.422 . S
C590 C589 1.421 . S
C590 N600 1.359 . S
C591 C589 1.417 . S
C591 C593 1.329 . S
C591 H610 0.930 . S
C592 C588 1.415 . S
C592 C593 1.437 . S
C592 C596 1.413 . S
C593 C591 1.329 . S
C593 C592 1.437 . S
C593 H615 0.929 . S
N594 C588 1.369 . S
N594 C595 1.338 . S
N594 Gd599 2.622 . S
C595 N594 1.338 . S
C595 C597 1.378 . S
C595 H607 0.929 . S
C596 C592 1.413 . S
C596 C597 1.348 . S
C596 H612 0.931 . S
C597 C595 1.378 . S
C597 C596 1.348 . S
C597 H613 0.930 1_556 S
Gd598 N618 2.622 . S
Gd598 N625 2.570 . S
Gd598 O632 2.353 . S
Gd598 O633 2.468 . S
Gd598 O634 2.427 . S
Gd598 O636 2.388 . S
Gd598 O637 2.386 . S
Gd598 O641 2.307 . S
Gd598 C651 2.805 . S
Gd599 N594 2.622 . S
Gd599 N600 2.570 . S
Gd599 O631 2.386 . S
Gd599 O635 2.307 . S
Gd599 O638 2.353 . S
Gd599 O639 2.468 . S
Gd599 O640 2.427 . S
Gd599 O642 2.388 . S
Gd599 C663 2.805 . S
N600 C590 1.359 . S
N600 Gd599 2.570 . S
N600 C602 1.343 . S
C601 C589 1.422 . S
C601 C603 1.321 . S
C601 H609 0.931 . S
C602 N600 1.343 . S
C602 C603 1.390 . S
C602 H604 0.931 . S
C603 C601 1.321 . S
C603 C602 1.390 . S
C603 H605 0.930 . S
H604 C602 0.931 . S
H605 C603 0.930 . S
H606 C629 0.931 . S
H607 C595 0.929 . S
H608 C630 0.937 . S
H609 C601 0.931 . S
H610 C591 0.930 . S
H611 C620 0.929 . S
H612 C596 0.931 . S
H613 C597 0.930 1_554 S
H614 C652 0.930 . S
H615 C593 0.929 . S
H616 C621 0.931 . S
H617 C622 0.930 . S
N618 Gd598 2.622 . S
N618 C619 1.369 . S
N618 C620 1.338 . S
C619 N618 1.369 . S
C619 C623 1.415 . S
C619 C626 1.422 . S
C620 H611 0.929 . S
C620 N618 1.338 . S
C620 C622 1.378 . S
C621 H616 0.931 . S
C621 C622 1.348 . S
C621 C623 1.413 . S
C622 H617 0.930 . S
C622 C620 1.378 . S
C622 C621 1.348 . S
C623 C619 1.415 . S
C623 C621 1.413 . S
C623 C653 1.437 . S
H624 C653 0.929 1_455 S
N625 Gd598 2.570 . S
N625 C626 1.359 . S
N625 C629 1.343 . S
C626 C619 1.422 . S
C626 N625 1.359 . S
C626 C628 1.428 . S
C627 C628 1.419 1_455 S
C627 C630 1.333 . S
C627 H654 0.931 . S
C628 C626 1.428 . S
C628 C627 1.419 1_655 S
C628 C652 1.413 1_655 S
C629 H606 0.931 . S
C629 N625 1.343 . S
C629 C630 1.372 1_655 S
C630 H608 0.937 . S
C630 C627 1.333 . S
C630 C629 1.372 1_455 S
O631 Gd599 2.386 . S
O631 C643 1.265 . S
O632 Gd598 2.353 . S
O632 C643 1.242 . S
O633 Gd598 2.468 . S
O633 C651 1.263 . S
O634 Gd598 2.427 . S
O634 C651 1.252 . S
O635 Gd599 2.307 . S
O635 C644 1.261 . S
O636 Gd598 2.388 . S
O636 C644 1.252 . S
O637 Gd598 2.386 . S
O637 C655 1.265 . S
O638 Gd599 2.353 . S
O638 C655 1.242 . S
O639 Gd599 2.468 . S
O639 C663 1.263 . S
O640 Gd599 2.427 . S
O640 C663 1.252 . S
O641 Gd598 2.307 . S
O641 C656 1.261 . S
O642 Gd599 2.388 . S
O642 C656 1.252 . S
C643 O631 1.265 . S
C643 O632 1.242 . S
C644 O635 1.261 . S
C644 O636 1.252 . S
C645 C648 1.394 . S
C645 C650 1.370 . S
C645 C651 1.500 1_455 S
C646 C649 1.383 . S
C646 C650 1.395 . S
C647 C648 1.396 . S
C647 C649 1.365 . S
C647 H664 0.929 . S
C648 C645 1.394 . S
C648 C647 1.396 . S
C648 H665 0.930 . S
C649 C646 1.383 . S
C649 C647 1.365 . S
C649 H666 0.931 . S
C650 C645 1.370 . S
C650 C646 1.395 . S
C650 H667 0.930 . S
C651 Gd598 2.805 . S
C651 O633 1.263 . S
C651 O634 1.252 . S
C651 C645 1.500 1_655 S
C652 H614 0.930 . S
C652 C628 1.413 1_455 S
C652 C653 1.329 1_455 S
C653 C623 1.437 . S
C653 H624 0.929 1_655 S
C653 C652 1.329 1_655 S
H654 C627 0.931 . S
C655 O637 1.265 . S
C655 O638 1.242 . S
C656 O641 1.261 . S
C656 O642 1.252 . S
C657 C660 1.394 . S
C657 C662 1.370 . S
C657 C663 1.500 . S
C658 C661 1.383 . S
C658 C662 1.395 . S
C659 C660 1.396 . S
C659 C661 1.365 . S
C659 H668 0.929 . S
C660 C657 1.394 . S
C660 C659 1.396 . S
C660 H669 0.930 . S
C661 C658 1.383 . S
C661 C659 1.365 . S
C661 H670 0.931 . S
C662 C657 1.370 . S
C662 C658 1.395 . S
C662 H671 0.930 . S
C663 Gd599 2.805 . S
C663 O639 1.263 . S
C663 O640 1.252 . S
C663 C657 1.500 . S
H664 C647 0.929 . S
H665 C648 0.930 . S
H666 C649 0.931 . S
H667 C650 0.930 . S
H668 C659 0.929 . S
H669 C660 0.930 . S
H670 C661 0.931 . S
H671 C662 0.930 . S
C672 C674 1.422 . S
C672 C676 1.415 . S
C672 N678 1.369 . S
C673 C674 1.421 . S
C673 C675 1.411 1_455 S
C673 C685 1.422 . S
C674 C672 1.422 . S
C674 C673 1.421 . S
C674 N684 1.359 . S
C675 C673 1.411 1_655 S
C675 C677 1.327 1_655 S
C675 H694 0.938 . S
C676 C672 1.415 . S
C676 C677 1.437 . S
C676 C680 1.413 . S
C677 C675 1.327 1_455 S
C677 C676 1.437 . S
C677 H699 0.929 1_455 S
N678 C672 1.369 . S
N678 C679 1.338 . S
N678 Gd683 2.622 . S
C679 N678 1.338 . S
C679 C681 1.378 . S
C679 H691 0.929 . S
C680 C676 1.413 . S
C680 C681 1.348 . S
C680 H696 0.931 . S
C681 C679 1.378 . S
C681 C680 1.348 . S
C681 H697 0.930 . S
Gd682 N702 2.622 . S
Gd682 N709 2.570 . S
Gd682 O716 2.353 . S
Gd682 O717 2.468 . S
Gd682 O718 2.427 . S
Gd682 O720 2.388 . S
Gd682 O721 2.386 . S
Gd682 O725 2.307 . S
Gd682 C735 2.805 . S
Gd683 N678 2.622 . S
Gd683 N684 2.570 . S
Gd683 O715 2.386 . S
Gd683 O719 2.307 . S
Gd683 O722 2.353 . S
Gd683 O723 2.468 . S
Gd683 O724 2.427 . S
Gd683 O726 2.388 . S
Gd683 C747 2.805 . S
N684 C674 1.359 . S
N684 Gd683 2.570 . S
N684 C686 1.343 . S
C685 C673 1.422 . S
C685 C687 1.321 . S
C685 H693 0.931 1_455 S
C686 N684 1.343 . S
C686 C687 1.390 . S
C686 H688 0.931 . S
C687 C685 1.321 . S
C687 C686 1.390 . S
C687 H689 0.930 . S
H688 C686 0.931 . S
H689 C687 0.930 . S
H690 C713 0.931 . S
H691 C679 0.929 . S
H692 C714 0.934 . S
H693 C685 0.931 1_655 S
H694 C675 0.938 . S
H695 C704 0.929 . S
H696 C680 0.931 . S
H697 C681 0.930 . S
H698 C736 0.930 . S
H699 C677 0.929 1_655 S
H700 C705 0.931 . S
H701 C706 0.930 . S
N702 Gd682 2.622 . S
N702 C703 1.369 . S
N702 C704 1.338 . S
C703 N702 1.369 . S
C703 C707 1.415 . S
C703 C710 1.422 . S
C704 H695 0.929 . S
C704 N702 1.338 . S
C704 C706 1.378 . S
C705 H700 0.931 . S
C705 C706 1.348 . S
C705 C707 1.413 . S
C706 H701 0.930 . S
C706 C704 1.378 . S
C706 C705 1.348 . S
C707 C703 1.415 . S
C707 C705 1.413 . S
C707 C737 1.437 . S
H708 C737 0.929 1_545 S
N709 Gd682 2.570 . S
N709 C710 1.359 . S
N709 C713 1.343 . S
C710 C703 1.422 . S
C710 N709 1.359 . S
C710 C712 1.422 . S
C711 C712 1.421 1_545 S
C711 C714 1.320 . S
C711 H738 0.931 . S
C712 C710 1.422 . S
C712 C711 1.421 1_565 S
C712 C736 1.418 1_565 S
C713 H690 0.931 . S
C713 N709 1.343 . S
C713 C714 1.388 1_565 S
C714 H692 0.934 . S
C714 C711 1.320 . S
C714 C713 1.388 1_545 S
O715 Gd683 2.386 . S
O715 C727 1.265 . S
O716 Gd682 2.353 . S
O716 C727 1.242 . S
O717 Gd682 2.468 . S
O717 C735 1.263 . S
O718 Gd682 2.427 . S
O718 C735 1.252 . S
O719 Gd683 2.307 . S
O719 C728 1.261 . S
O720 Gd682 2.388 . S
O720 C728 1.252 . S
O721 Gd682 2.386 . S
O721 C739 1.265 . S
O722 Gd683 2.353 . S
O722 C739 1.242 . S
O723 Gd683 2.468 . S
O723 C747 1.263 . S
O724 Gd683 2.427 . S
O724 C747 1.252 . S
O725 Gd682 2.307 . S
O725 C740 1.261 . S
O726 Gd683 2.388 . S
O726 C740 1.252 . S
C727 O715 1.265 . S
C727 O716 1.242 . S
C728 O719 1.261 . S
C728 O720 1.252 . S
C729 C732 1.394 . S
C729 C734 1.370 . S
C729 C735 1.500 1_545 S
C730 C733 1.383 . S
C730 C734 1.395 . S
C731 C732 1.396 . S
C731 C733 1.365 . S
C731 H748 0.929 . S
C732 C729 1.394 . S
C732 C731 1.396 . S
C732 H749 0.930 . S
C733 C730 1.383 . S
C733 C731 1.365 . S
C733 H750 0.931 . S
C734 C729 1.370 . S
C734 C730 1.395 . S
C734 H751 0.930 . S
C735 Gd682 2.805 . S
C735 O717 1.263 . S
C735 O718 1.252 . S
C735 C729 1.500 1_565 S
C736 H698 0.930 . S
C736 C712 1.418 1_545 S
C736 C737 1.329 1_545 S
C737 C707 1.437 . S
C737 H708 0.929 1_565 S
C737 C736 1.329 1_565 S
H738 C711 0.931 . S
C739 O721 1.265 . S
C739 O722 1.242 . S
C740 O725 1.261 . S
C740 O726 1.252 . S
C741 C744 1.394 . S
C741 C746 1.370 . S
C741 C747 1.500 . S
C742 C745 1.383 . S
C742 C746 1.395 . S
C743 C744 1.396 . S
C743 C745 1.365 . S
C743 H752 0.929 . S
C744 C741 1.394 . S
C744 C743 1.396 . S
C744 H753 0.930 . S
C745 C742 1.383 . S
C745 C743 1.365 . S
C745 H754 0.931 . S
C746 C741 1.370 . S
C746 C742 1.395 . S
C746 H755 0.930 . S
C747 Gd683 2.805 . S
C747 O723 1.263 . S
C747 O724 1.252 . S
C747 C741 1.500 . S
H748 C731 0.929 . S
H749 C732 0.930 . S
H750 C733 0.931 . S
H751 C734 0.930 . S
H752 C743 0.929 . S
H753 C744 0.930 . S
H754 C745 0.931 . S
H755 C746 0.930 . S
C756 C758 1.422 . S
C756 C760 1.415 . S
C756 N762 1.369 . S
C757 C758 1.421 . S
C757 C759 1.412 1_545 S
C757 C769 1.422 . S
C758 C756 1.422 . S
C758 C757 1.421 . S
C758 N768 1.359 . S
C759 C757 1.412 1_565 S
C759 C761 1.325 1_565 S
C759 H778 0.940 . S
C760 C756 1.415 . S
C760 C761 1.437 . S
C760 C764 1.413 . S
C761 C759 1.325 1_545 S
C761 C760 1.437 . S
C761 H783 0.929 1_545 S
N762 C756 1.369 . S
N762 C763 1.338 . S
N762 Gd767 2.622 . S
C763 N762 1.338 . S
C763 C765 1.378 . S
C763 H775 0.929 . S
C764 C760 1.413 . S
C764 C765 1.348 . S
C764 H780 0.931 . S
C765 C763 1.378 . S
C765 C764 1.348 . S
C765 H781 0.930 1_556 S
Gd766 N786 2.622 . S
Gd766 N793 2.570 . S
Gd766 O800 2.353 . S
Gd766 O801 2.468 . S
Gd766 O802 2.427 . S
Gd766 O804 2.388 . S
Gd766 O805 2.386 . S
Gd766 O809 2.307 . S
Gd766 C819 2.805 . S
Gd767 N762 2.622 . S
Gd767 N768 2.570 . S
Gd767 O799 2.386 . S
Gd767 O803 2.307 . S
Gd767 O806 2.353 . S
Gd767 O807 2.468 . S
Gd767 O808 2.427 . S
Gd767 O810 2.388 . S
Gd767 C831 2.805 . S
N768 C758 1.359 . S
N768 Gd767 2.570 . S
N768 C770 1.343 . S
C769 C757 1.422 . S
C769 C771 1.321 . S
C769 H777 0.931 1_545 S
C770 N768 1.343 . S
C770 C771 1.390 . S
C770 H772 0.931 . S
C771 C769 1.321 . S
C771 C770 1.390 . S
C771 H773 0.930 . S
H772 C770 0.931 . S
H773 C771 0.930 . S
H774 C797 0.931 . S
H775 C763 0.929 . S
H776 C798 0.930 . S
H777 C769 0.931 1_565 S
H778 C759 0.940 . S
H779 C788 0.929 . S
H780 C764 0.931 . S
H781 C765 0.930 1_554 S
H782 C820 0.930 . S
H783 C761 0.929 1_565 S
H784 C789 0.931 . S
H785 C790 0.930 . S
N786 Gd766 2.622 . S
N786 C787 1.369 . S
N786 C788 1.338 . S
C787 N786 1.369 . S
C787 C791 1.415 . S
C787 C794 1.422 . S
C788 H779 0.929 . S
C788 N786 1.338 . S
C788 C790 1.378 . S
C789 H784 0.931 . S
C789 C790 1.348 . S
C789 C791 1.413 . S
C790 H785 0.930 . S
C790 C788 1.378 . S
C790 C789 1.348 . S
C791 C787 1.415 . S
C791 C789 1.413 . S
C791 C821 1.437 . S
H792 C821 0.929 . S
N793 Gd766 2.570 . S
N793 C794 1.359 . S
N793 C797 1.343 . S
C794 C787 1.422 . S
C794 N793 1.359 . S
C794 C796 1.421 . S
C795 C796 1.422 . S
C795 C798 1.321 . S
C795 H822 0.931 . S
C796 C794 1.421 . S
C796 C795 1.422 . S
C796 C820 1.417 . S
C797 H774 0.931 . S
C797 N793 1.343 . S
C797 C798 1.390 . S
C798 H776 0.930 . S
C798 C795 1.321 . S
C798 C797 1.390 . S
O799 Gd767 2.386 . S
O799 C811 1.265 . S
O800 Gd766 2.353 . S
O800 C811 1.242 . S
O801 Gd766 2.468 . S
O801 C819 1.263 . S
O802 Gd766 2.427 . S
O802 C819 1.252 . S
O803 Gd767 2.307 . S
O803 C812 1.261 . S
O804 Gd766 2.388 . S
O804 C812 1.252 . S
O805 Gd766 2.386 . S
O805 C823 1.265 . S
O806 Gd767 2.353 . S
O806 C823 1.242 . S
O807 Gd767 2.468 . S
O807 C831 1.263 . S
O808 Gd767 2.427 . S
O808 C831 1.252 . S
O809 Gd766 2.307 . S
O809 C824 1.261 . S
O810 Gd767 2.388 . S
O810 C824 1.252 . S
C811 O799 1.265 . S
C811 O800 1.242 . S
C812 O803 1.261 . S
C812 O804 1.252 . S
C813 C816 1.394 . S
C813 C818 1.370 . S
C813 C819 1.500 . S
C814 C817 1.383 . S
C814 C818 1.395 . S
C815 C816 1.396 . S
C815 C817 1.365 . S
C815 H832 0.929 . S
C816 C813 1.394 . S
C816 C815 1.396 . S
C816 H833 0.930 . S
C817 C814 1.383 . S
C817 C815 1.365 . S
C817 H834 0.931 . S
C818 C813 1.370 . S
C818 C814 1.395 . S
C818 H835 0.930 . S
C819 Gd766 2.805 . S
C819 O801 1.263 . S
C819 O802 1.252 . S
C819 C813 1.500 . S
C820 H782 0.930 . S
C820 C796 1.417 . S
C820 C821 1.329 . S
C821 C791 1.437 . S
C821 H792 0.929 . S
C821 C820 1.329 . S
H822 C795 0.931 . S
C823 O805 1.265 . S
C823 O806 1.242 . S
C824 O809 1.261 . S
C824 O810 1.252 . S
C825 C828 1.394 . S
C825 C830 1.370 . S
C825 C831 1.500 . S
C826 C829 1.383 . S
C826 C830 1.395 . S
C827 C828 1.396 . S
C827 C829 1.365 . S
C827 H836 0.929 . S
C828 C825 1.394 . S
C828 C827 1.396 . S
C828 H837 0.930 . S
C829 C826 1.383 . S
C829 C827 1.365 . S
C829 H838 0.931 . S
C830 C825 1.370 . S
C830 C826 1.395 . S
C830 H839 0.930 . S
C831 Gd767 2.805 . S
C831 O807 1.263 . S
C831 O808 1.252 . S
C831 C825 1.500 . S
H832 C815 0.929 . S
H833 C816 0.930 . S
H834 C817 0.931 . S
H835 C818 0.930 . S
H836 C827 0.929 . S
H837 C828 0.930 . S
H838 C829 0.931 . S
H839 C830 0.930 . S
C840 C842 1.422 . S
C840 C844 1.415 . S
C840 N846 1.369 . S
C841 C842 1.421 . S
C841 C843 1.417 . S
C841 C853 1.422 . S
C842 C840 1.422 . S
C842 C841 1.421 . S
C842 N852 1.359 . S
C843 C841 1.417 . S
C843 C845 1.329 . S
C843 H862 0.930 . S
C844 C840 1.415 . S
C844 C845 1.437 . S
C844 C848 1.413 . S
C845 C843 1.329 . S
C845 C844 1.437 . S
C845 H867 0.929 . S
N846 C840 1.369 . S
N846 C847 1.338 . S
N846 Gd851 2.622 . S
C847 N846 1.338 . S
C847 C849 1.378 . S
C847 H859 0.929 . S
C848 C844 1.413 . S
C848 C849 1.348 . S
C848 H864 0.931 . S
C849 C847 1.378 . S
C849 C848 1.348 . S
C849 H865 0.930 . S
Gd850 N870 2.622 . S
Gd850 N877 2.570 . S
Gd850 O884 2.353 . S
Gd850 O885 2.468 . S
Gd850 O886 2.427 . S
Gd850 O888 2.388 . S
Gd850 O889 2.386 . S
Gd850 O893 2.307 . S
Gd850 C903 2.805 . S
Gd851 N846 2.622 . S
Gd851 N852 2.570 . S
Gd851 O883 2.386 . S
Gd851 O887 2.307 . S
Gd851 O890 2.353 . S
Gd851 O891 2.468 . S
Gd851 O892 2.427 . S
Gd851 O894 2.388 . S
Gd851 C915 2.805 . S
N852 C842 1.359 . S
N852 Gd851 2.570 . S
N852 C854 1.343 . S
C853 C841 1.422 . S
C853 C855 1.321 . S
C853 H861 0.931 . S
C854 N852 1.343 . S
C854 C855 1.390 . S
C854 H856 0.931 . S
C855 C853 1.321 . S
C855 C854 1.390 . S
C855 H857 0.930 . S
H856 C854 0.931 . S
H857 C855 0.930 . S
H858 C881 0.931 . S
H859 C847 0.929 . S
H860 C882 0.937 . S
H861 C853 0.931 . S
H862 C843 0.930 . S
H863 C872 0.929 . S
H864 C848 0.931 . S
H865 C849 0.930 . S
H866 C904 0.930 . S
H867 C845 0.929 . S
H868 C873 0.931 . S
H869 C874 0.930 . S
N870 Gd850 2.622 . S
N870 C871 1.369 . S
N870 C872 1.338 . S
C871 N870 1.369 . S
C871 C875 1.415 . S
C871 C878 1.422 . S
C872 H863 0.929 . S
C872 N870 1.338 . S
C872 C874 1.378 . S
C873 H868 0.931 . S
C873 C874 1.348 . S
C873 C875 1.413 . S
C874 H869 0.930 . S
C874 C872 1.378 . S
C874 C873 1.348 . S
C875 C871 1.415 . S
C875 C873 1.413 . S
C875 C905 1.437 . S
H876 C905 0.929 1_655 S
N877 Gd850 2.570 . S
N877 C878 1.359 . S
N877 C881 1.343 . S
C878 C871 1.422 . S
C878 N877 1.359 . S
C878 C880 1.428 . S
C879 C880 1.419 1_655 S
C879 C882 1.333 . S
C879 H906 0.931 . S
C880 C878 1.428 . S
C880 C879 1.419 1_455 S
C880 C904 1.413 1_455 S
C881 H858 0.931 . S
C881 N877 1.343 . S
C881 C882 1.372 1_455 S
C882 H860 0.937 . S
C882 C879 1.333 . S
C882 C881 1.372 1_655 S
O883 Gd851 2.386 . S
O883 C895 1.265 . S
O884 Gd850 2.353 . S
O884 C895 1.242 . S
O885 Gd850 2.468 . S
O885 C903 1.263 . S
O886 Gd850 2.427 . S
O886 C903 1.252 . S
O887 Gd851 2.307 . S
O887 C896 1.261 . S
O888 Gd850 2.388 . S
O888 C896 1.252 . S
O889 Gd850 2.386 . S
O889 C907 1.265 . S
O890 Gd851 2.353 . S
O890 C907 1.242 . S
O891 Gd851 2.468 . S
O891 C915 1.263 . S
O892 Gd851 2.427 . S
O892 C915 1.252 . S
O893 Gd850 2.307 . S
O893 C908 1.261 . S
O894 Gd851 2.388 . S
O894 C908 1.252 . S
C895 O883 1.265 . S
C895 O884 1.242 . S
C896 O887 1.261 . S
C896 O888 1.252 . S
C897 C900 1.394 . S
C897 C902 1.370 . S
C897 C903 1.500 1_655 S
C898 C901 1.383 . S
C898 C902 1.395 . S
C899 C900 1.396 . S
C899 C901 1.365 . S
C899 H916 0.929 . S
C900 C897 1.394 . S
C900 C899 1.396 . S
C900 H917 0.930 . S
C901 C898 1.383 . S
C901 C899 1.365 . S
C901 H918 0.931 . S
C902 C897 1.370 . S
C902 C898 1.395 . S
C902 H919 0.930 . S
C903 Gd850 2.805 . S
C903 O885 1.263 . S
C903 O886 1.252 . S
C903 C897 1.500 1_455 S
C904 H866 0.930 . S
C904 C880 1.413 1_655 S
C904 C905 1.329 1_655 S
C905 C875 1.437 . S
C905 H876 0.929 1_455 S
C905 C904 1.329 1_455 S
H906 C879 0.931 . S
C907 O889 1.265 . S
C907 O890 1.242 . S
C908 O893 1.261 . S
C908 O894 1.252 . S
C909 C912 1.394 . S
C909 C914 1.370 . S
C909 C915 1.500 . S
C910 C913 1.383 . S
C910 C914 1.395 . S
C911 C912 1.396 . S
C911 C913 1.365 . S
C911 H920 0.929 . S
C912 C909 1.394 . S
C912 C911 1.396 . S
C912 H921 0.930 . S
C913 C910 1.383 . S
C913 C911 1.365 . S
C913 H922 0.931 . S
C914 C909 1.370 . S
C914 C910 1.395 . S
C914 H923 0.930 . S
C915 Gd851 2.805 . S
C915 O891 1.263 . S
C915 O892 1.252 . S
C915 C909 1.500 . S
H916 C899 0.929 . S
H917 C900 0.930 . S
H918 C901 0.931 . S
H919 C902 0.930 . S
H920 C911 0.929 . S
H921 C912 0.930 . S
H922 C913 0.931 . S
H923 C914 0.930 . S
C924 C926 1.422 . S
C924 C928 1.415 . S
C924 N930 1.369 . S
C925 C926 1.421 . S
C925 C927 1.411 1_655 S
C925 C937 1.422 . S
C926 C924 1.422 . S
C926 C925 1.421 . S
C926 N936 1.359 . S
C927 C925 1.411 1_455 S
C927 C929 1.327 1_455 S
C927 H946 0.938 . S
C928 C924 1.415 . S
C928 C929 1.437 . S
C928 C932 1.413 . S
C929 C927 1.327 1_655 S
C929 C928 1.437 . S
C929 H951 0.929 1_655 S
N930 C924 1.369 . S
N930 C931 1.338 . S
N930 Gd935 2.622 . S
C931 N930 1.338 . S
C931 C933 1.378 . S
C931 H943 0.929 . S
C932 C928 1.413 . S
C932 C933 1.348 . S
C932 H948 0.931 . S
C933 C931 1.378 . S
C933 C932 1.348 . S
C933 H949 0.930 1_556 S
Gd934 N954 2.622 . S
Gd934 N961 2.570 . S
Gd934 O968 2.353 . S
Gd934 O969 2.468 . S
Gd934 O970 2.427 . S
Gd934 O972 2.388 . S
Gd934 O973 2.386 . S
Gd934 O977 2.307 . S
Gd934 C987 2.805 . S
Gd935 N930 2.622 . S
Gd935 N936 2.570 . S
Gd935 O967 2.386 . S
Gd935 O971 2.307 . S
Gd935 O974 2.353 . S
Gd935 O975 2.468 . S
Gd935 O976 2.427 . S
Gd935 O978 2.388 . S
Gd935 C999 2.805 . S
N936 C926 1.359 . S
N936 Gd935 2.570 . S
N936 C938 1.343 . S
C937 C925 1.422 . S
C937 C939 1.321 . S
C937 H945 0.931 1_655 S
C938 N936 1.343 . S
C938 C939 1.390 . S
C938 H940 0.931 . S
C939 C937 1.321 . S
C939 C938 1.390 . S
C939 H941 0.930 . S
H940 C938 0.931 . S
H941 C939 0.930 . S
H942 C965 0.931 . S
H943 C931 0.929 . S
H944 C966 0.934 . S
H945 C937 0.931 1_455 S
H946 C927 0.938 . S
H947 C956 0.929 . S
H948 C932 0.931 . S
H949 C933 0.930 1_554 S
H950 C988 0.930 . S
H951 C929 0.929 1_455 S
H952 C957 0.931 . S
H953 C958 0.930 . S
N954 Gd934 2.622 . S
N954 C955 1.369 . S
N954 C956 1.338 . S
C955 N954 1.369 . S
C955 C959 1.415 . S
C955 C962 1.422 . S
C956 H947 0.929 . S
C956 N954 1.338 . S
C956 C958 1.378 . S
C957 H952 0.931 . S
C957 C958 1.348 . S
C957 C959 1.413 . S
C958 H953 0.930 . S
C958 C956 1.378 . S
C958 C957 1.348 . S
C959 C955 1.415 . S
C959 C957 1.413 . S
C959 C989 1.437 . S
H960 C989 0.929 1_565 S
N961 Gd934 2.570 . S
N961 C962 1.359 . S
N961 C965 1.343 . S
C962 C955 1.422 . S
C962 N961 1.359 . S
C962 C964 1.422 . S
C963 C964 1.421 1_565 S
C963 C966 1.320 . S
C963 H990 0.931 . S
C964 C962 1.422 . S
C964 C963 1.421 1_545 S
C964 C988 1.418 1_545 S
C965 H942 0.931 . S
C965 N961 1.343 . S
C965 C966 1.388 1_545 S
C966 H944 0.934 . S
C966 C963 1.320 . S
C966 C965 1.388 1_565 S
O967 Gd935 2.386 . S
O967 C979 1.265 . S
O968 Gd934 2.353 . S
O968 C979 1.242 . S
O969 Gd934 2.468 . S
O969 C987 1.263 . S
O970 Gd934 2.427 . S
O970 C987 1.252 . S
O971 Gd935 2.307 . S
O971 C980 1.261 . S
O972 Gd934 2.388 . S
O972 C980 1.252 . S
O973 Gd934 2.386 . S
O973 C991 1.265 . S
O974 Gd935 2.353 . S
O974 C991 1.242 . S
O975 Gd935 2.468 . S
O975 C999 1.263 . S
O976 Gd935 2.427 . S
O976 C999 1.252 . S
O977 Gd934 2.307 . S
O977 C992 1.261 . S
O978 Gd935 2.388 . S
O978 C992 1.252 . S
C979 O967 1.265 . S
C979 O968 1.242 . S
C980 O971 1.261 . S
C980 O972 1.252 . S
C981 C984 1.394 . S
C981 C986 1.370 . S
C981 C987 1.500 1_565 S
C982 C985 1.383 . S
C982 C986 1.395 . S
C983 C984 1.396 . S
C983 C985 1.365 . S
C983 H1000 0.929 . S
C984 C981 1.394 . S
C984 C983 1.396 . S
C984 H1001 0.930 . S
C985 C982 1.383 . S
C985 C983 1.365 . S
C985 H1002 0.931 . S
C986 C981 1.370 . S
C986 C982 1.395 . S
C986 H1003 0.930 . S
C987 Gd934 2.805 . S
C987 O969 1.263 . S
C987 O970 1.252 . S
C987 C981 1.500 1_545 S
C988 H950 0.930 . S
C988 C964 1.418 1_565 S
C988 C989 1.329 1_565 S
C989 C959 1.437 . S
C989 H960 0.929 1_545 S
C989 C988 1.329 1_545 S
H990 C963 0.931 . S
C991 O973 1.265 . S
C991 O974 1.242 . S
C992 O977 1.261 . S
C992 O978 1.252 . S
C993 C996 1.394 . S
C993 C998 1.370 . S
C993 C999 1.500 . S
C994 C997 1.383 . S
C994 C998 1.395 . S
C995 C996 1.396 . S
C995 C997 1.365 . S
C995 H1004 0.929 . S
C996 C993 1.394 . S
C996 C995 1.396 . S
C996 H1005 0.930 . S
C997 C994 1.383 . S
C997 C995 1.365 . S
C997 H1006 0.931 . S
C998 C993 1.370 . S
C998 C994 1.395 . S
C998 H1007 0.930 . S
C999 Gd935 2.805 . S
C999 O975 1.263 . S
C999 O976 1.252 . S
C999 C993 1.500 . S
H1000 C983 0.929 . S
H1001 C984 0.930 . S
H1002 C985 0.931 . S
H1003 C986 0.930 . S
H1004 C995 0.929 . S
H1005 C996 0.930 . S
H1006 C997 0.931 . S
H1007 C998 0.930 . S
H1008 C1014 0.930 . S
H1009 C1018 0.930 . S
H1010 C1023 0.929 . S
H1011 C1021 0.929 . S
H1012 C1016 0.929 . S
H1013 C1022 0.929 . S
C1014 H1008 0.930 . S
C1014 C1015 1.367 . S
C1014 C1022 1.378 . S
C1015 C1014 1.367 . S
C1015 C1023 1.433 . S
C1016 H1012 0.929 . S
C1016 C1018 1.378 . S
C1016 C1020 1.350 . S
C1017 C1020 1.463 1_565 S
C1017 C1022 1.350 . S
C1017 N1025 1.427 . S
C1018 H1009 0.930 . S
C1018 C1016 1.378 . S
C1018 C1019 1.367 . S
C1019 C1018 1.367 . S
C1019 C1021 1.433 . S
C1020 C1016 1.350 . S
C1020 C1017 1.463 1_545 S
C1020 N1024 1.427 . S
C1021 H1011 0.929 . S
C1021 C1019 1.433 . S
C1021 N1024 1.384 . S
C1022 H1013 0.929 . S
C1022 C1014 1.378 . S
C1022 C1017 1.350 . S
C1023 H1010 0.929 . S
C1023 C1015 1.433 . S
C1023 N1025 1.384 . S
N1024 C1020 1.427 . S
N1024 C1021 1.384 . S
N1025 C1017 1.427 . S
N1025 C1023 1.384 . S
H1026 C1032 0.930 . S
H1027 C1036 0.930 . S
H1028 C1041 0.929 . S
H1029 C1039 0.929 . S
H1030 C1034 0.929 . S
H1031 C1040 0.929 . S
C1032 H1026 0.930 . S
C1032 C1033 1.367 . S
C1032 C1040 1.378 . S
C1033 C1032 1.367 . S
C1033 C1041 1.433 . S
C1034 H1030 0.929 . S
C1034 C1036 1.378 . S
C1034 C1038 1.350 . S
C1035 C1038 1.463 . S
C1035 C1040 1.350 . S
C1035 N1043 1.427 . S
C1036 H1027 0.930 . S
C1036 C1034 1.378 . S
C1036 C1037 1.367 . S
C1037 C1036 1.367 . S
C1037 C1039 1.433 . S
C1038 C1034 1.350 . S
C1038 C1035 1.463 . S
C1038 N1042 1.427 . S
C1039 H1029 0.929 . S
C1039 C1037 1.433 . S
C1039 N1042 1.384 . S
C1040 H1031 0.929 . S
C1040 C1032 1.378 . S
C1040 C1035 1.350 . S
C1041 H1028 0.929 . S
C1041 C1033 1.433 . S
C1041 N1043 1.384 . S
N1042 C1038 1.427 . S
N1042 C1039 1.384 . S
N1043 C1035 1.427 . S
N1043 C1041 1.384 . S
H1044 C1050 0.930 . S
H1045 C1054 0.930 . S
H1046 C1059 0.929 . S
H1047 C1057 0.929 . S
H1048 C1052 0.929 . S
H1049 C1058 0.929 . S
C1050 H1044 0.930 . S
C1050 C1051 1.367 . S
C1050 C1058 1.378 . S
C1051 C1050 1.367 . S
C1051 C1059 1.433 . S
C1052 H1048 0.929 . S
C1052 C1054 1.378 . S
C1052 C1056 1.350 . S
C1053 C1056 1.463 1_655 S
C1053 C1058 1.350 . S
C1053 N1061 1.427 . S
C1054 H1045 0.930 . S
C1054 C1052 1.378 . S
C1054 C1055 1.367 . S
C1055 C1054 1.367 . S
C1055 C1057 1.433 . S
C1056 C1052 1.350 . S
C1056 C1053 1.463 1_455 S
C1056 N1060 1.427 . S
C1057 H1047 0.929 . S
C1057 C1055 1.433 . S
C1057 N1060 1.384 . S
C1058 H1049 0.929 . S
C1058 C1050 1.378 . S
C1058 C1053 1.350 . S
C1059 H1046 0.929 . S
C1059 C1051 1.433 . S
C1059 N1061 1.384 . S
N1060 C1056 1.427 . S
N1060 C1057 1.384 . S
N1061 C1053 1.427 . S
N1061 C1059 1.384 . S
H1062 C1068 0.930 . S
H1063 C1072 0.930 . S
H1064 C1077 0.929 . S
H1065 C1075 0.929 . S
H1066 C1070 0.929 1_565 S
H1067 C1076 0.929 . S
C1068 H1062 0.930 . S
C1068 C1069 1.367 . S
C1068 C1076 1.378 . S
C1069 C1068 1.367 . S
C1069 C1077 1.433 . S
C1070 H1066 0.929 1_545 S
C1070 C1072 1.378 . S
C1070 C1074 1.350 . S
C1071 C1074 1.463 1_565 S
C1071 C1076 1.350 . S
C1071 N1079 1.427 . S
C1072 H1063 0.930 . S
C1072 C1070 1.378 . S
C1072 C1073 1.367 . S
C1073 C1072 1.367 . S
C1073 C1075 1.433 . S
C1074 C1070 1.350 . S
C1074 C1071 1.463 1_545 S
C1074 N1078 1.427 . S
C1075 H1065 0.929 . S
C1075 C1073 1.433 . S
C1075 N1078 1.384 . S
C1076 H1067 0.929 . S
C1076 C1068 1.378 . S
C1076 C1071 1.350 . S
C1077 H1064 0.929 . S
C1077 C1069 1.433 . S
C1077 N1079 1.384 . S
N1078 C1074 1.427 . S
N1078 C1075 1.384 . S
N1079 C1071 1.427 . S
N1079 C1077 1.384 . S
H1080 C1086 0.930 . S
H1081 C1090 0.930 . S
H1082 C1095 0.929 . S
H1083 C1093 0.929 . S
H1084 C1088 0.929 . S
H1085 C1094 0.929 . S
C1086 H1080 0.930 . S
C1086 C1087 1.367 . S
C1086 C1094 1.378 . S
C1087 C1086 1.367 . S
C1087 C1095 1.433 . S
C1088 H1084 0.929 . S
C1088 C1090 1.378 . S
C1088 C1092 1.350 . S
C1089 C1092 1.463 . S
C1089 C1094 1.350 . S
C1089 N1097 1.427 . S
C1090 H1081 0.930 . S
C1090 C1088 1.378 . S
C1090 C1091 1.367 . S
C1091 C1090 1.367 . S
C1091 C1093 1.433 . S
C1092 C1088 1.350 . S
C1092 C1089 1.463 . S
C1092 N1096 1.427 . S
C1093 H1083 0.929 . S
C1093 C1091 1.433 . S
C1093 N1096 1.384 . S
C1094 H1085 0.929 . S
C1094 C1086 1.378 . S
C1094 C1089 1.350 . S
C1095 H1082 0.929 . S
C1095 C1087 1.433 . S
C1095 N1097 1.384 . S
N1096 C1092 1.427 . S
N1096 C1093 1.384 . S
N1097 C1089 1.427 . S
N1097 C1095 1.384 . S
H1098 C1104 0.930 . S
H1099 C1108 0.930 . S
H1100 C1113 0.929 . S
H1101 C1111 0.929 . S
H1102 C1106 0.929 . S
H1103 C1112 0.929 . S
C1104 H1098 0.930 . S
C1104 C1105 1.367 . S
C1104 C1112 1.378 . S
C1105 C1104 1.367 . S
C1105 C1113 1.433 . S
C1106 H1102 0.929 . S
C1106 C1108 1.378 . S
C1106 C1110 1.350 . S
C1107 C1110 1.463 1_655 S
C1107 C1112 1.350 . S
C1107 N1115 1.427 . S
C1108 H1099 0.930 . S
C1108 C1106 1.378 . S
C1108 C1109 1.367 . S
C1109 C1108 1.367 . S
C1109 C1111 1.433 . S
C1110 C1106 1.350 . S
C1110 C1107 1.463 1_455 S
C1110 N1114 1.427 . S
C1111 H1101 0.929 . S
C1111 C1109 1.433 . S
C1111 N1114 1.384 . S
C1112 H1103 0.929 . S
C1112 C1104 1.378 . S
C1112 C1107 1.350 . S
C1113 H1100 0.929 . S
C1113 C1105 1.433 . S
C1113 N1115 1.384 . S
N1114 C1110 1.427 . S
N1114 C1111 1.384 . S
N1115 C1107 1.427 . S
N1115 C1113 1.384 . S
H1116 C1122 0.930 . S
H1117 C1126 0.930 . S
H1118 C1131 0.929 . S
H1119 C1129 0.929 . S
H1120 C1124 0.929 . S
H1121 C1130 0.929 . S
C1122 H1116 0.930 . S
C1122 C1123 1.367 . S
C1122 C1130 1.378 . S
C1123 C1122 1.367 . S
C1123 C1131 1.433 . S
C1124 H1120 0.929 . S
C1124 C1126 1.378 . S
C1124 C1128 1.350 . S
C1125 C1128 1.463 1_455 S
C1125 C1130 1.350 . S
C1125 N1133 1.427 . S
C1126 H1117 0.930 . S
C1126 C1124 1.378 . S
C1126 C1127 1.367 . S
C1127 C1126 1.367 . S
C1127 C1129 1.433 . S
C1128 C1124 1.350 . S
C1128 C1125 1.463 1_655 S
C1128 N1132 1.427 . S
C1129 H1119 0.929 . S
C1129 C1127 1.433 . S
C1129 N1132 1.384 . S
C1130 H1121 0.929 . S
C1130 C1122 1.378 . S
C1130 C1125 1.350 . S
C1131 H1118 0.929 . S
C1131 C1123 1.433 . S
C1131 N1133 1.384 . S
N1132 C1128 1.427 . S
N1132 C1129 1.384 . S
N1133 C1125 1.427 . S
N1133 C1131 1.384 . S
H1134 C1140 0.930 . S
H1135 C1144 0.930 . S
H1136 C1149 0.929 . S
H1137 C1147 0.929 . S
H1138 C1142 0.929 . S
H1139 C1148 0.929 . S
C1140 H1134 0.930 . S
C1140 C1141 1.367 . S
C1140 C1148 1.378 . S
C1141 C1140 1.367 . S
C1141 C1149 1.433 . S
C1142 H1138 0.929 . S
C1142 C1144 1.378 . S
C1142 C1146 1.350 . S
C1143 C1146 1.463 1_565 S
C1143 C1148 1.350 . S
C1143 N1151 1.427 . S
C1144 H1135 0.930 . S
C1144 C1142 1.378 . S
C1144 C1145 1.367 . S
C1145 C1144 1.367 . S
C1145 C1147 1.433 . S
C1146 C1142 1.350 . S
C1146 C1143 1.463 1_545 S
C1146 N1150 1.427 . S
C1147 H1137 0.929 . S
C1147 C1145 1.433 . S
C1147 N1150 1.384 . S
C1148 H1139 0.929 . S
C1148 C1140 1.378 . S
C1148 C1143 1.350 . S
C1149 H1136 0.929 . S
C1149 C1141 1.433 . S
C1149 N1151 1.384 . S
N1150 C1146 1.427 . S
N1150 C1147 1.384 . S
N1151 C1143 1.427 . S
N1151 C1149 1.384 . S
H1152 C1158 0.930 . S
H1153 C1162 0.930 . S
H1154 C1167 0.929 . S
H1155 C1165 0.929 . S
H1156 C1160 0.929 . S
H1157 C1166 0.929 . S
C1158 H1152 0.930 . S
C1158 C1159 1.367 . S
C1158 C1166 1.378 . S
C1159 C1158 1.367 . S
C1159 C1167 1.433 . S
C1160 H1156 0.929 . S
C1160 C1162 1.378 . S
C1160 C1164 1.350 . S
C1161 C1164 1.463 . S
C1161 C1166 1.350 . S
C1161 N1169 1.427 . S
C1162 H1153 0.930 . S
C1162 C1160 1.378 . S
C1162 C1163 1.367 . S
C1163 C1162 1.367 . S
C1163 C1165 1.433 . S
C1164 C1160 1.350 . S
C1164 C1161 1.463 . S
C1164 N1168 1.427 . S
C1165 H1155 0.929 . S
C1165 C1163 1.433 . S
C1165 N1168 1.384 . S
C1166 H1157 0.929 . S
C1166 C1158 1.378 . S
C1166 C1161 1.350 . S
C1167 H1154 0.929 . S
C1167 C1159 1.433 . S
C1167 N1169 1.384 . S
N1168 C1164 1.427 . S
N1168 C1165 1.384 . S
N1169 C1161 1.427 . S
N1169 C1167 1.384 . S
H1170 C1176 0.930 . S
H1171 C1180 0.930 . S
H1172 C1185 0.929 . S
H1173 C1183 0.929 . S
H1174 C1178 0.929 1_455 S
H1175 C1184 0.929 . S
C1176 H1170 0.930 . S
C1176 C1177 1.367 . S
C1176 C1184 1.378 . S
C1177 C1176 1.367 . S
C1177 C1185 1.433 . S
C1178 H1174 0.929 1_655 S
C1178 C1180 1.378 . S
C1178 C1182 1.350 . S
C1179 C1182 1.463 1_455 S
C1179 C1184 1.350 . S
C1179 N1187 1.427 . S
C1180 H1171 0.930 . S
C1180 C1178 1.378 . S
C1180 C1181 1.367 . S
C1181 C1180 1.367 . S
C1181 C1183 1.433 . S
C1182 C1178 1.350 . S
C1182 C1179 1.463 1_655 S
C1182 N1186 1.427 . S
C1183 H1173 0.929 . S
C1183 C1181 1.433 . S
C1183 N1186 1.384 . S
C1184 H1175 0.929 . S
C1184 C1176 1.378 . S
C1184 C1179 1.350 . S
C1185 H1172 0.929 . S
C1185 C1177 1.433 . S
C1185 N1187 1.384 . S
N1186 C1182 1.427 . S
N1186 C1183 1.384 . S
N1187 C1179 1.427 . S
N1187 C1185 1.384 . S
H1188 C1194 0.930 . S
H1189 C1198 0.930 . S
H1190 C1203 0.929 . S
H1191 C1201 0.929 . S
H1192 C1196 0.927 1_545 S
H1193 C1202 0.929 . S
C1194 H1188 0.930 . S
C1194 C1195 1.367 . S
C1194 C1202 1.378 . S
C1195 C1194 1.367 . S
C1195 C1203 1.433 . S
C1196 H1192 0.927 1_565 S
C1196 C1198 1.378 . S
C1196 C1200 1.350 . S
C1197 C1200 1.463 1_545 S
C1197 C1202 1.350 . S
C1197 N1205 1.427 . S
C1198 H1189 0.930 . S
C1198 C1196 1.378 . S
C1198 C1199 1.367 . S
C1199 C1198 1.367 . S
C1199 C1201 1.433 . S
C1200 C1196 1.350 . S
C1200 C1197 1.463 1_565 S
C1200 N1204 1.427 . S
C1201 H1191 0.929 . S
C1201 C1199 1.433 . S
C1201 N1204 1.384 . S
C1202 H1193 0.929 . S
C1202 C1194 1.378 . S
C1202 C1197 1.350 . S
C1203 H1190 0.929 . S
C1203 C1195 1.433 . S
C1203 N1205 1.384 . S
N1204 C1200 1.427 . S
N1204 C1201 1.384 . S
N1205 C1197 1.427 . S
N1205 C1203 1.384 . S
H1206 C1212 0.930 . S
H1207 C1216 0.930 . S
H1208 C1221 0.929 . S
H1209 C1219 0.929 . S
H1210 C1214 0.929 . S
H1211 C1220 0.929 . S
C1212 H1206 0.930 . S
C1212 C1213 1.367 . S
C1212 C1220 1.378 . S
C1213 C1212 1.367 . S
C1213 C1221 1.433 . S
C1214 H1210 0.929 . S
C1214 C1216 1.378 . S
C1214 C1218 1.350 . S
C1215 C1218 1.463 . S
C1215 C1220 1.350 . S
C1215 N1223 1.427 . S
C1216 H1207 0.930 . S
C1216 C1214 1.378 . S
C1216 C1217 1.367 . S
C1217 C1216 1.367 . S
C1217 C1219 1.433 . S
C1218 C1214 1.350 . S
C1218 C1215 1.463 . S
C1218 N1222 1.427 . S
C1219 H1209 0.929 . S
C1219 C1217 1.433 . S
C1219 N1222 1.384 . S
C1220 H1211 0.929 . S
C1220 C1212 1.378 . S
C1220 C1215 1.350 . S
C1221 H1208 0.929 . S
C1221 C1213 1.433 . S
C1221 N1223 1.384 . S
N1222 C1218 1.427 . S
N1222 C1219 1.384 . S
N1223 C1215 1.427 . S
N1223 C1221 1.384 . S
H1224 C1230 0.930 . S
H1225 C1234 0.930 . S
H1226 C1239 0.929 . S
H1227 C1237 0.929 . S
H1228 C1232 0.929 . S
H1229 C1238 0.929 . S
C1230 H1224 0.930 . S
C1230 C1231 1.367 . S
C1230 C1238 1.378 . S
C1231 C1230 1.367 . S
C1231 C1239 1.433 . S
C1232 H1228 0.929 . S
C1232 C1234 1.378 . S
C1232 C1236 1.350 . S
C1233 C1236 1.463 . S
C1233 C1238 1.350 . S
C1233 N1241 1.427 . S
C1234 H1225 0.930 . S
C1234 C1232 1.378 . S
C1234 C1235 1.367 . S
C1235 C1234 1.367 . S
C1235 C1237 1.433 . S
C1236 C1232 1.350 . S
C1236 C1233 1.463 . S
C1236 N1240 1.427 . S
C1237 H1227 0.929 . S
C1237 C1235 1.433 . S
C1237 N1240 1.384 . S
C1238 H1229 0.929 . S
C1238 C1230 1.378 . S
C1238 C1233 1.350 . S
C1239 H1226 0.929 . S
C1239 C1231 1.433 . S
C1239 N1241 1.384 . S
N1240 C1236 1.427 . S
N1240 C1237 1.384 . S
N1241 C1233 1.427 . S
N1241 C1239 1.384 . S
H1242 C1248 0.930 . S
H1243 C1252 0.930 . S
H1244 C1257 0.929 . S
H1245 C1255 0.929 . S
H1246 C1250 0.929 . S
H1247 C1256 0.929 . S
C1248 H1242 0.930 . S
C1248 C1249 1.367 . S
C1248 C1256 1.378 . S
C1249 C1248 1.367 . S
C1249 C1257 1.433 . S
C1250 H1246 0.929 . S
C1250 C1252 1.378 . S
C1250 C1254 1.350 . S
C1251 C1254 1.463 . S
C1251 C1256 1.350 . S
C1251 N1259 1.427 . S
C1252 H1243 0.930 . S
C1252 C1250 1.378 . S
C1252 C1253 1.367 . S
C1253 C1252 1.367 . S
C1253 C1255 1.433 . S
C1254 C1250 1.350 . S
C1254 C1251 1.463 . S
C1254 N1258 1.427 . S
C1255 H1245 0.929 . S
C1255 C1253 1.433 . S
C1255 N1258 1.384 . S
C1256 H1247 0.929 . S
C1256 C1248 1.378 . S
C1256 C1251 1.350 . S
C1257 H1244 0.929 . S
C1257 C1249 1.433 . S
C1257 N1259 1.384 . S
N1258 C1254 1.427 . S
N1258 C1255 1.384 . S
N1259 C1251 1.427 . S
N1259 C1257 1.384 . S
H1260 C1266 0.930 . S
H1261 C1270 0.930 . S
H1262 C1275 0.929 . S
H1263 C1273 0.929 . S
H1264 C1268 0.929 . S
H1265 C1274 0.929 . S
C1266 H1260 0.930 . S
C1266 C1267 1.367 . S
C1266 C1274 1.378 . S
C1267 C1266 1.367 . S
C1267 C1275 1.433 . S
C1268 H1264 0.929 . S
C1268 C1270 1.378 . S
C1268 C1272 1.350 . S
C1269 C1272 1.463 . S
C1269 C1274 1.350 . S
C1269 N1277 1.427 . S
C1270 H1261 0.930 . S
C1270 C1268 1.378 . S
C1270 C1271 1.367 . S
C1271 C1270 1.367 . S
C1271 C1273 1.433 . S
C1272 C1268 1.350 . S
C1272 C1269 1.463 . S
C1272 N1276 1.427 . S
C1273 H1263 0.929 . S
C1273 C1271 1.433 . S
C1273 N1276 1.384 . S
C1274 H1265 0.929 . S
C1274 C1266 1.378 . S
C1274 C1269 1.350 . S
C1275 H1262 0.929 . S
C1275 C1267 1.433 . S
C1275 N1277 1.384 . S
N1276 C1272 1.427 . S
N1276 C1273 1.384 . S
N1277 C1269 1.427 . S
N1277 C1275 1.384 . S
H1278 C1284 0.930 . S
H1279 C1288 0.930 . S
H1280 C1293 0.929 . S
H1281 C1291 0.929 . S
H1282 C1286 0.929 . S
H1283 C1292 0.929 . S
C1284 H1278 0.930 . S
C1284 C1285 1.367 . S
C1284 C1292 1.378 . S
C1285 C1284 1.367 . S
C1285 C1293 1.433 . S
C1286 H1282 0.929 . S
C1286 C1288 1.378 . S
C1286 C1290 1.350 . S
C1287 C1290 1.463 . S
C1287 C1292 1.350 . S
C1287 N1295 1.427 . S
C1288 H1279 0.930 . S
C1288 C1286 1.378 . S
C1288 C1289 1.367 . S
C1289 C1288 1.367 . S
C1289 C1291 1.433 . S
C1290 C1286 1.350 . S
C1290 C1287 1.463 . S
C1290 N1294 1.427 . S
C1291 H1281 0.929 . S
C1291 C1289 1.433 . S
C1291 N1294 1.384 . S
C1292 H1283 0.929 . S
C1292 C1284 1.378 . S
C1292 C1287 1.350 . S
C1293 H1280 0.929 . S
C1293 C1285 1.433 . S
C1293 N1295 1.384 . S
N1294 C1290 1.427 . S
N1294 C1291 1.384 . S
N1295 C1287 1.427 . S
N1295 C1293 1.384 . S
H1296 C1302 0.930 . S
H1297 C1306 0.930 . S
H1298 C1311 0.929 . S
H1299 C1309 0.929 . S
H1300 C1304 0.929 . S
H1301 C1310 0.929 . S
C1302 H1296 0.930 . S
C1302 C1303 1.367 . S
C1302 C1310 1.378 . S
C1303 C1302 1.367 . S
C1303 C1311 1.433 . S
C1304 H1300 0.929 . S
C1304 C1306 1.378 . S
C1304 C1308 1.350 . S
C1305 C1308 1.463 . S
C1305 C1310 1.350 . S
C1305 N1313 1.427 . S
C1306 H1297 0.930 . S
C1306 C1304 1.378 . S
C1306 C1307 1.367 . S
C1307 C1306 1.367 . S
C1307 C1309 1.433 . S
C1308 C1304 1.350 . S
C1308 C1305 1.463 . S
C1308 N1312 1.427 . S
C1309 H1299 0.929 . S
C1309 C1307 1.433 . S
C1309 N1312 1.384 . S
C1310 H1301 0.929 . S
C1310 C1302 1.378 . S
C1310 C1305 1.350 . S
C1311 H1298 0.929 . S
C1311 C1303 1.433 . S
C1311 N1313 1.384 . S
N1312 C1308 1.427 . S
N1312 C1309 1.384 . S
N1313 C1305 1.427 . S
N1313 C1311 1.384 . S
H1314 C1320 0.930 . S
H1315 C1324 0.930 . S
H1316 C1329 0.929 . S
H1317 C1327 0.929 . S
H1318 C1322 0.929 . S
H1319 C1328 0.929 . S
C1320 H1314 0.930 . S
C1320 C1321 1.367 . S
C1320 C1328 1.378 . S
C1321 C1320 1.367 . S
C1321 C1329 1.433 . S
C1322 H1318 0.929 . S
C1322 C1324 1.378 . S
C1322 C1326 1.350 . S
C1323 C1326 1.463 . S
C1323 C1328 1.350 . S
C1323 N1331 1.427 . S
C1324 H1315 0.930 . S
C1324 C1322 1.378 . S
C1324 C1325 1.367 . S
C1325 C1324 1.367 . S
C1325 C1327 1.433 . S
C1326 C1322 1.350 . S
C1326 C1323 1.463 . S
C1326 N1330 1.427 . S
C1327 H1317 0.929 . S
C1327 C1325 1.433 . S
C1327 N1330 1.384 . S
C1328 H1319 0.929 . S
C1328 C1320 1.378 . S
C1328 C1323 1.350 . S
C1329 H1316 0.929 . S
C1329 C1321 1.433 . S
C1329 N1331 1.384 . S
N1330 C1326 1.427 . S
N1330 C1327 1.384 . S
N1331 C1323 1.427 . S
N1331 C1329 1.384 . S
H1332 C1338 0.930 . S
H1333 C1342 0.930 . S
H1334 C1347 0.929 . S
H1335 C1345 0.929 . S
H1336 C1340 0.929 . S
H1337 C1346 0.929 . S
C1338 H1332 0.930 . S
C1338 C1339 1.367 . S
C1338 C1346 1.378 . S
C1339 C1338 1.367 . S
C1339 C1347 1.433 . S
C1340 H1336 0.929 . S
C1340 C1342 1.378 . S
C1340 C1344 1.350 . S
C1341 C1344 1.463 . S
C1341 C1346 1.350 . S
C1341 N1349 1.427 . S
C1342 H1333 0.930 . S
C1342 C1340 1.378 . S
C1342 C1343 1.367 . S
C1343 C1342 1.367 . S
C1343 C1345 1.433 . S
C1344 C1340 1.350 . S
C1344 C1341 1.463 . S
C1344 N1348 1.427 . S
C1345 H1335 0.929 . S
C1345 C1343 1.433 . S
C1345 N1348 1.384 . S
C1346 H1337 0.929 . S
C1346 C1338 1.378 . S
C1346 C1341 1.350 . S
C1347 H1334 0.929 . S
C1347 C1339 1.433 . S
C1347 N1349 1.384 . S
N1348 C1344 1.427 . S
N1348 C1345 1.384 . S
N1349 C1341 1.427 . S
N1349 C1347 1.384 . S
H1350 C1356 0.930 . S
H1351 C1360 0.930 . S
H1352 C1365 0.929 . S
H1353 C1363 0.929 . S
H1354 C1358 0.929 . S
H1355 C1364 0.929 . S
C1356 H1350 0.930 . S
C1356 C1357 1.367 . S
C1356 C1364 1.378 . S
C1357 C1356 1.367 . S
C1357 C1365 1.433 . S
C1358 H1354 0.929 . S
C1358 C1360 1.378 . S
C1358 C1362 1.350 . S
C1359 C1362 1.463 . S
C1359 C1364 1.350 . S
C1359 N1367 1.427 . S
C1360 H1351 0.930 . S
C1360 C1358 1.378 . S
C1360 C1361 1.367 . S
C1361 C1360 1.367 . S
C1361 C1363 1.433 . S
C1362 C1358 1.350 . S
C1362 C1359 1.463 . S
C1362 N1366 1.427 . S
C1363 H1353 0.929 . S
C1363 C1361 1.433 . S
C1363 N1366 1.384 . S
C1364 H1355 0.929 . S
C1364 C1356 1.378 . S
C1364 C1359 1.350 . S
C1365 H1352 0.929 . S
C1365 C1357 1.433 . S
C1365 N1367 1.384 . S
N1366 C1362 1.427 . S
N1366 C1363 1.384 . S
N1367 C1359 1.427 . S
N1367 C1365 1.384 . S
H1368 C1374 0.930 . S
H1369 C1378 0.930 . S
H1370 C1383 0.929 . S
H1371 C1381 0.929 . S
H1372 C1376 0.929 . S
H1373 C1382 0.929 . S
C1374 H1368 0.930 . S
C1374 C1375 1.367 . S
C1374 C1382 1.378 . S
C1375 C1374 1.367 . S
C1375 C1383 1.433 . S
C1376 H1372 0.929 . S
C1376 C1378 1.378 . S
C1376 C1380 1.350 . S
C1377 C1380 1.463 . S
C1377 C1382 1.350 . S
C1377 N1385 1.427 . S
C1378 H1369 0.930 . S
C1378 C1376 1.378 . S
C1378 C1379 1.367 . S
C1379 C1378 1.367 . S
C1379 C1381 1.433 . S
C1380 C1376 1.350 . S
C1380 C1377 1.463 . S
C1380 N1384 1.427 . S
C1381 H1371 0.929 . S
C1381 C1379 1.433 . S
C1381 N1384 1.384 . S
C1382 H1373 0.929 . S
C1382 C1374 1.378 . S
C1382 C1377 1.350 . S
C1383 H1370 0.929 . S
C1383 C1375 1.433 . S
C1383 N1385 1.384 . S
N1384 C1380 1.427 . S
N1384 C1381 1.384 . S
N1385 C1377 1.427 . S
N1385 C1383 1.384 . S
H1386 C1392 0.930 . S
H1387 C1396 0.930 . S
H1388 C1401 0.929 . S
H1389 C1399 0.929 . S
H1390 C1394 0.929 . S
H1391 C1400 0.929 . S
C1392 H1386 0.930 . S
C1392 C1393 1.367 . S
C1392 C1400 1.378 . S
C1393 C1392 1.367 . S
C1393 C1401 1.433 . S
C1394 H1390 0.929 . S
C1394 C1396 1.378 . S
C1394 C1398 1.350 . S
C1395 C1398 1.463 . S
C1395 C1400 1.350 . S
C1395 N1403 1.427 . S
C1396 H1387 0.930 . S
C1396 C1394 1.378 . S
C1396 C1397 1.367 . S
C1397 C1396 1.367 . S
C1397 C1399 1.433 . S
C1398 C1394 1.350 . S
C1398 C1395 1.463 . S
C1398 N1402 1.427 . S
C1399 H1389 0.929 . S
C1399 C1397 1.433 . S
C1399 N1402 1.384 . S
C1400 H1391 0.929 . S
C1400 C1392 1.378 . S
C1400 C1395 1.350 . S
C1401 H1388 0.929 . S
C1401 C1393 1.433 . S
C1401 N1403 1.384 . S
N1402 C1398 1.427 . S
N1402 C1399 1.384 . S
N1403 C1395 1.427 . S
N1403 C1401 1.384 . S
H1404 C1410 0.930 . S
H1405 C1414 0.930 . S
H1406 C1419 0.929 . S
H1407 C1417 0.929 . S
H1408 C1412 0.929 . S
H1409 C1418 0.929 . S
C1410 H1404 0.930 . S
C1410 C1411 1.367 . S
C1410 C1418 1.378 . S
C1411 C1410 1.367 . S
C1411 C1419 1.433 . S
C1412 H1408 0.929 . S
C1412 C1414 1.378 . S
C1412 C1416 1.350 . S
C1413 C1416 1.463 . S
C1413 C1418 1.350 . S
C1413 N1421 1.427 . S
C1414 H1405 0.930 . S
C1414 C1412 1.378 . S
C1414 C1415 1.367 . S
C1415 C1414 1.367 . S
C1415 C1417 1.433 . S
C1416 C1412 1.350 . S
C1416 C1413 1.463 . S
C1416 N1420 1.427 . S
C1417 H1407 0.929 . S
C1417 C1415 1.433 . S
C1417 N1420 1.384 . S
C1418 H1409 0.929 . S
C1418 C1410 1.378 . S
C1418 C1413 1.350 . S
C1419 H1406 0.929 . S
C1419 C1411 1.433 . S
C1419 N1421 1.384 . S
N1420 C1416 1.427 . S
N1420 C1417 1.384 . S
N1421 C1413 1.427 . S
N1421 C1419 1.384 . S
H1422 C1428 0.930 . S
H1423 C1432 0.930 . S
H1424 C1437 0.929 . S
H1425 C1435 0.929 . S
H1426 C1430 0.929 . S
H1427 C1436 0.929 . S
C1428 H1422 0.930 . S
C1428 C1429 1.367 . S
C1428 C1436 1.378 . S
C1429 C1428 1.367 . S
C1429 C1437 1.433 . S
C1430 H1426 0.929 . S
C1430 C1432 1.378 . S
C1430 C1434 1.350 . S
C1431 C1434 1.463 . S
C1431 C1436 1.350 . S
C1431 N1439 1.427 . S
C1432 H1423 0.930 . S
C1432 C1430 1.378 . S
C1432 C1433 1.367 . S
C1433 C1432 1.367 . S
C1433 C1435 1.433 . S
C1434 C1430 1.350 . S
C1434 C1431 1.463 . S
C1434 N1438 1.427 . S
C1435 H1425 0.929 . S
C1435 C1433 1.433 . S
C1435 N1438 1.384 . S
C1436 H1427 0.929 . S
C1436 C1428 1.378 . S
C1436 C1431 1.350 . S
C1437 H1424 0.929 . S
C1437 C1429 1.433 . S
C1437 N1439 1.384 . S
N1438 C1434 1.427 . S
N1438 C1435 1.384 . S
N1439 C1431 1.427 . S
N1439 C1437 1.384 . S
H1440 C1446 0.930 . S
H1441 C1450 0.930 . S
H1442 C1455 0.929 . S
H1443 C1453 0.929 . S
H1444 C1448 0.929 . S
H1445 C1454 0.929 . S
C1446 H1440 0.930 . S
C1446 C1447 1.367 . S
C1446 C1454 1.378 . S
C1447 C1446 1.367 . S
C1447 C1455 1.433 . S
C1448 H1444 0.929 . S
C1448 C1450 1.378 . S
C1448 C1452 1.350 . S
C1449 C1452 1.463 . S
C1449 C1454 1.350 . S
C1449 N1457 1.427 . S
C1450 H1441 0.930 . S
C1450 C1448 1.378 . S
C1450 C1451 1.367 . S
C1451 C1450 1.367 . S
C1451 C1453 1.433 . S
C1452 C1448 1.350 . S
C1452 C1449 1.463 . S
C1452 N1456 1.427 . S
C1453 H1443 0.929 . S
C1453 C1451 1.433 . S
C1453 N1456 1.384 . S
C1454 H1445 0.929 . S
C1454 C1446 1.378 . S
C1454 C1449 1.350 . S
C1455 H1442 0.929 . S
C1455 C1447 1.433 . S
C1455 N1457 1.384 . S
N1456 C1452 1.427 . S
N1456 C1453 1.384 . S
N1457 C1449 1.427 . S
N1457 C1455 1.384 . S
H1458 C1464 0.930 . S
H1459 C1468 0.930 . S
H1460 C1473 0.929 . S
H1461 C1471 0.929 . S
H1462 C1466 0.929 . S
H1463 C1472 0.929 . S
C1464 H1458 0.930 . S
C1464 C1465 1.367 . S
C1464 C1472 1.378 . S
C1465 C1464 1.367 . S
C1465 C1473 1.433 . S
C1466 H1462 0.929 . S
C1466 C1468 1.378 . S
C1466 C1470 1.350 . S
C1467 C1470 1.463 . S
C1467 C1472 1.350 . S
C1467 N1475 1.427 . S
C1468 H1459 0.930 . S
C1468 C1466 1.378 . S
C1468 C1469 1.367 . S
C1469 C1468 1.367 . S
C1469 C1471 1.433 . S
C1470 C1466 1.350 . S
C1470 C1467 1.463 . S
C1470 N1474 1.427 . S
C1471 H1461 0.929 . S
C1471 C1469 1.433 . S
C1471 N1474 1.384 . S
C1472 H1463 0.929 . S
C1472 C1464 1.378 . S
C1472 C1467 1.350 . S
C1473 H1460 0.929 . S
C1473 C1465 1.433 . S
C1473 N1475 1.384 . S
N1474 C1470 1.427 . S
N1474 C1471 1.384 . S
N1475 C1467 1.427 . S
N1475 C1473 1.384 . S
H1476 C1482 0.930 . S
H1477 C1486 0.930 . S
H1478 C1491 0.929 . S
H1479 C1489 0.929 . S
H1480 C1484 0.929 . S
H1481 C1490 0.929 . S
C1482 H1476 0.930 . S
C1482 C1483 1.367 . S
C1482 C1490 1.378 . S
C1483 C1482 1.367 . S
C1483 C1491 1.433 . S
C1484 H1480 0.929 . S
C1484 C1486 1.378 . S
C1484 C1488 1.350 . S
C1485 C1488 1.463 . S
C1485 C1490 1.350 . S
C1485 N1493 1.427 . S
C1486 H1477 0.930 . S
C1486 C1484 1.378 . S
C1486 C1487 1.367 . S
C1487 C1486 1.367 . S
C1487 C1489 1.433 . S
C1488 C1484 1.350 . S
C1488 C1485 1.463 . S
C1488 N1492 1.427 . S
C1489 H1479 0.929 . S
C1489 C1487 1.433 . S
C1489 N1492 1.384 . S
C1490 H1481 0.929 . S
C1490 C1482 1.378 . S
C1490 C1485 1.350 . S
C1491 H1478 0.929 . S
C1491 C1483 1.433 . S
C1491 N1493 1.384 . S
N1492 C1488 1.427 . S
N1492 C1489 1.384 . S
N1493 C1485 1.427 . S
N1493 C1491 1.384 . S
H1494 C1500 0.930 . S
H1495 C1504 0.930 . S
H1496 C1509 0.929 . S
H1497 C1507 0.929 . S
H1498 C1502 0.929 . S
H1499 C1508 0.929 . S
C1500 H1494 0.930 . S
C1500 C1501 1.367 . S
C1500 C1508 1.378 . S
C1501 C1500 1.367 . S
C1501 C1509 1.433 . S
C1502 H1498 0.929 . S
C1502 C1504 1.378 . S
C1502 C1506 1.350 . S
C1503 C1506 1.463 . S
C1503 C1508 1.350 . S
C1503 N1511 1.427 . S
C1504 H1495 0.930 . S
C1504 C1502 1.378 . S
C1504 C1505 1.367 . S
C1505 C1504 1.367 . S
C1505 C1507 1.433 . S
C1506 C1502 1.350 . S
C1506 C1503 1.463 . S
C1506 N1510 1.427 . S
C1507 H1497 0.929 . S
C1507 C1505 1.433 . S
C1507 N1510 1.384 . S
C1508 H1499 0.929 . S
C1508 C1500 1.378 . S
C1508 C1503 1.350 . S
C1509 H1496 0.929 . S
C1509 C1501 1.433 . S
C1509 N1511 1.384 . S
N1510 C1506 1.427 . S
N1510 C1507 1.384 . S
N1511 C1503 1.427 . S
N1511 C1509 1.384 . S
H1512 C1518 0.930 . S
H1513 C1522 0.930 . S
H1514 C1527 0.929 . S
H1515 C1525 0.929 . S
H1516 C1520 0.929 . S
H1517 C1526 0.929 . S
C1518 H1512 0.930 . S
C1518 C1519 1.367 . S
C1518 C1526 1.378 . S
C1519 C1518 1.367 . S
C1519 C1527 1.433 . S
C1520 H1516 0.929 . S
C1520 C1522 1.378 . S
C1520 C1524 1.350 . S
C1521 C1524 1.463 . S
C1521 C1526 1.350 . S
C1521 N1529 1.427 . S
C1522 H1513 0.930 . S
C1522 C1520 1.378 . S
C1522 C1523 1.367 . S
C1523 C1522 1.367 . S
C1523 C1525 1.433 . S
C1524 C1520 1.350 . S
C1524 C1521 1.463 . S
C1524 N1528 1.427 . S
C1525 H1515 0.929 . S
C1525 C1523 1.433 . S
C1525 N1528 1.384 . S
C1526 H1517 0.929 . S
C1526 C1518 1.378 . S
C1526 C1521 1.350 . S
C1527 H1514 0.929 . S
C1527 C1519 1.433 . S
C1527 N1529 1.384 . S
N1528 C1524 1.427 . S
N1528 C1525 1.384 . S
N1529 C1521 1.427 . S
N1529 C1527 1.384 . S
H1530 C1536 0.930 . S
H1531 C1540 0.930 . S
H1532 C1545 0.929 . S
H1533 C1543 0.929 . S
H1534 C1538 0.929 . S
H1535 C1544 0.929 . S
C1536 H1530 0.930 . S
C1536 C1537 1.367 . S
C1536 C1544 1.378 . S
C1537 C1536 1.367 . S
C1537 C1545 1.433 . S
C1538 H1534 0.929 . S
C1538 C1540 1.378 . S
C1538 C1542 1.350 . S
C1539 C1542 1.463 . S
C1539 C1544 1.350 . S
C1539 N1547 1.427 . S
C1540 H1531 0.930 . S
C1540 C1538 1.378 . S
C1540 C1541 1.367 . S
C1541 C1540 1.367 . S
C1541 C1543 1.433 . S
C1542 C1538 1.350 . S
C1542 C1539 1.463 . S
C1542 N1546 1.427 . S
C1543 H1533 0.929 . S
C1543 C1541 1.433 . S
C1543 N1546 1.384 . S
C1544 H1535 0.929 . S
C1544 C1536 1.378 . S
C1544 C1539 1.350 . S
C1545 H1532 0.929 . S
C1545 C1537 1.433 . S
C1545 N1547 1.384 . S
N1546 C1542 1.427 . S
N1546 C1543 1.384 . S
N1547 C1539 1.427 . S
N1547 C1545 1.384 . S
H1548 C1554 0.930 . S
H1549 C1558 0.930 . S
H1550 C1563 0.929 . S
H1551 C1561 0.929 . S
H1552 C1556 0.929 1_556 S
H1553 C1562 0.929 1_554 S
C1554 H1548 0.930 . S
C1554 C1555 1.367 . S
C1554 C1562 1.378 . S
C1555 C1554 1.367 . S
C1555 C1563 1.433 . S
C1556 H1552 0.929 1_554 S
C1556 C1558 1.378 . S
C1556 C1560 1.350 . S
C1557 C1560 1.463 1_556 S
C1557 C1562 1.350 . S
C1557 N1565 1.427 . S
C1558 H1549 0.930 . S
C1558 C1556 1.378 . S
C1558 C1559 1.367 . S
C1559 C1558 1.367 . S
C1559 C1561 1.433 . S
C1560 C1556 1.350 . S
C1560 C1557 1.463 1_554 S
C1560 N1564 1.427 . S
C1561 H1551 0.929 . S
C1561 C1559 1.433 . S
C1561 N1564 1.384 . S
C1562 H1553 0.929 1_556 S
C1562 C1554 1.378 . S
C1562 C1557 1.350 . S
C1563 H1550 0.929 . S
C1563 C1555 1.433 . S
C1563 N1565 1.384 . S
N1564 C1560 1.427 . S
N1564 C1561 1.384 . S
N1565 C1557 1.427 . S
N1565 C1563 1.384 . S
H1566 C1572 0.930 . S
H1567 C1576 0.930 . S
H1568 C1581 0.929 . S
H1569 C1579 0.929 . S
H1570 C1574 0.929 . S
H1571 C1580 0.929 . S
C1572 H1566 0.930 . S
C1572 C1573 1.367 . S
C1572 C1580 1.378 . S
C1573 C1572 1.367 . S
C1573 C1581 1.433 . S
C1574 H1570 0.929 . S
C1574 C1576 1.378 . S
C1574 C1578 1.350 . S
C1575 C1578 1.463 1_455 S
C1575 C1580 1.350 . S
C1575 N1583 1.427 . S
C1576 H1567 0.930 . S
C1576 C1574 1.378 . S
C1576 C1577 1.367 . S
C1577 C1576 1.367 . S
C1577 C1579 1.433 . S
C1578 C1574 1.350 . S
C1578 C1575 1.463 1_655 S
C1578 N1582 1.427 . S
C1579 H1569 0.929 . S
C1579 C1577 1.433 . S
C1579 N1582 1.384 . S
C1580 H1571 0.929 . S
C1580 C1572 1.378 . S
C1580 C1575 1.350 . S
C1581 H1568 0.929 . S
C1581 C1573 1.433 . S
C1581 N1583 1.384 . S
N1582 C1578 1.427 . S
N1582 C1579 1.384 . S
N1583 C1575 1.427 . S
N1583 C1581 1.384 . S
H1584 C1590 0.930 . S
H1585 C1594 0.930 . S
H1586 C1599 0.929 . S
H1587 C1597 0.929 . S
H1588 C1592 0.969 . S
H1589 C1598 0.969 . S
C1590 H1584 0.930 . S
C1590 C1591 1.367 . S
C1590 C1598 1.352 1_554 S
C1591 C1590 1.367 . S
C1591 C1599 1.433 . S
C1592 H1588 0.969 . S
C1592 C1594 1.352 1_554 S
C1592 C1596 1.336 1_554 S
C1593 C1596 1.463 1_564 S
C1593 C1598 1.336 1_554 S
C1593 N1601 1.427 . S
C1594 H1585 0.930 . S
C1594 C1592 1.352 1_556 S
C1594 C1595 1.367 . S
C1595 C1594 1.367 . S
C1595 C1597 1.433 . S
C1596 C1592 1.336 1_556 S
C1596 C1593 1.463 1_546 S
C1596 N1600 1.427 . S
C1597 H1587 0.929 . S
C1597 C1595 1.433 . S
C1597 N1600 1.384 . S
C1598 H1589 0.969 . S
C1598 C1590 1.352 1_556 S
C1598 C1593 1.336 1_556 S
C1599 H1586 0.929 . S
C1599 C1591 1.433 . S
C1599 N1601 1.384 . S
N1600 C1596 1.427 . S
N1600 C1597 1.384 . S
N1601 C1593 1.427 . S
N1601 C1599 1.384 . S
H1602 C1608 0.930 . S
H1603 C1612 0.930 . S
H1604 C1617 0.929 . S
H1605 C1615 0.929 . S
H1606 C1610 0.929 . S
H1607 C1616 0.929 . S
C1608 H1602 0.930 . S
C1608 C1609 1.367 . S
C1608 C1616 1.378 . S
C1609 C1608 1.367 . S
C1609 C1617 1.433 . S
C1610 H1606 0.929 . S
C1610 C1612 1.378 . S
C1610 C1614 1.350 . S
C1611 C1614 1.463 . S
C1611 C1616 1.350 . S
C1611 N1619 1.427 . S
C1612 H1603 0.930 . S
C1612 C1610 1.378 . S
C1612 C1613 1.367 . S
C1613 C1612 1.367 . S
C1613 C1615 1.433 . S
C1614 C1610 1.350 . S
C1614 C1611 1.463 . S
C1614 N1618 1.427 . S
C1615 H1605 0.929 . S
C1615 C1613 1.433 . S
C1615 N1618 1.384 . S
C1616 H1607 0.929 . S
C1616 C1608 1.378 . S
C1616 C1611 1.350 . S
C1617 H1604 0.929 . S
C1617 C1609 1.433 . S
C1617 N1619 1.384 . S
N1618 C1614 1.427 . S
N1618 C1615 1.384 . S
N1619 C1611 1.427 . S
N1619 C1617 1.384 . S
H1620 C1626 0.930 . S
H1621 C1630 0.930 . S
H1622 C1635 0.929 . S
H1623 C1633 0.929 . S
H1624 C1628 0.929 1_556 S
H1625 C1634 0.929 1_554 S
C1626 H1620 0.930 . S
C1626 C1627 1.367 . S
C1626 C1634 1.378 . S
C1627 C1626 1.367 . S
C1627 C1635 1.433 . S
C1628 H1624 0.929 1_554 S
C1628 C1630 1.378 . S
C1628 C1632 1.350 . S
C1629 C1632 1.463 1_656 S
C1629 C1634 1.350 . S
C1629 N1637 1.427 . S
C1630 H1621 0.930 . S
C1630 C1628 1.378 . S
C1630 C1631 1.367 . S
C1631 C1630 1.367 . S
C1631 C1633 1.433 . S
C1632 C1628 1.350 . S
C1632 C1629 1.463 1_454 S
C1632 N1636 1.427 . S
C1633 H1623 0.929 . S
C1633 C1631 1.433 . S
C1633 N1636 1.384 . S
C1634 H1625 0.929 1_556 S
C1634 C1626 1.378 . S
C1634 C1629 1.350 . S
C1635 H1622 0.929 . S
C1635 C1627 1.433 . S
C1635 N1637 1.384 . S
N1636 C1632 1.427 . S
N1636 C1633 1.384 . S
N1637 C1629 1.427 . S
N1637 C1635 1.384 . S
H1638 C1644 0.930 . S
H1639 C1648 0.930 . S
H1640 C1653 0.929 . S
H1641 C1651 0.929 . S
H1642 C1646 0.929 1_565 S
H1643 C1652 0.929 1_545 S
C1644 H1638 0.930 . S
C1644 C1645 1.367 . S
C1644 C1652 1.378 . S
C1645 C1644 1.367 . S
C1645 C1653 1.433 . S
C1646 H1642 0.929 1_545 S
C1646 C1648 1.378 . S
C1646 C1650 1.350 . S
C1647 C1650 1.463 1_565 S
C1647 C1652 1.350 . S
C1647 N1655 1.427 . S
C1648 H1639 0.930 . S
C1648 C1646 1.378 . S
C1648 C1649 1.367 . S
C1649 C1648 1.367 . S
C1649 C1651 1.433 . S
C1650 C1646 1.350 . S
C1650 C1647 1.463 1_545 S
C1650 N1654 1.427 . S
C1651 H1641 0.929 . S
C1651 C1649 1.433 . S
C1651 N1654 1.384 . S
C1652 H1643 0.929 1_565 S
C1652 C1644 1.378 . S
C1652 C1647 1.350 . S
C1653 H1640 0.929 . S
C1653 C1645 1.433 . S
C1653 N1655 1.384 . S
N1654 C1650 1.427 . S
N1654 C1651 1.384 . S
N1655 C1647 1.427 . S
N1655 C1653 1.384 . S
C1015 C391 1.361 . S
C1019 C58 1.196 . S
C1033 C475 1.362 . S
C1037 C142 1.212 . S
C1051 C226 1.210 . S
C1055 C55 1.363 . S
C1069 C310 1.202 . S
C1073 C139 1.359 . S
C1087 C394 1.187 . S
C1091 C223 1.358 . S
C1105 C307 1.361 . S
C1109 C478 1.211 . S
C1123 C727 1.358 . S
C1127 C562 1.188 . S
C1141 C646 1.195 . S
C1145 C811 1.361 . S
C1159 C895 1.358 . S
C1163 C730 1.187 . S
C1177 C814 1.202 . S
C1181 C979 1.359 . S
C1195 C898 1.194 . S
C1199 C559 1.358 . S
C1213 C643 1.362 . S
C1217 C982 1.203 . S
C1231 C403 1.441 . S
C1235 C70 1.301 . S
C1249 C154 1.279 . S
C1253 C487 1.435 . S
C1267 C238 1.275 . S
C1271 C67 1.436 . S
C1285 C322 1.301 . S
C1289 C151 1.442 . S
C1303 C235 1.440 . S
C1307 C406 1.301 . S
C1321 C319 1.443 . S
C1325 C490 1.301 . S
C1339 C739 1.438 . S
C1343 C574 1.297 . S
C1357 C658 1.279 . S
C1361 C823 1.440 . S
C1375 C742 1.276 . S
C1379 C907 1.435 . S
C1393 C991 1.441 . S
C1397 C826 1.282 . S
C1411 C910 1.295 . S
C1415 C571 1.437 . S
C1429 C655 1.441 . S
C1433 C994 1.301 . S
C1447 C896 1.824 . S
C1451 C56 1.816 . S
C1465 C140 1.811 . S
C1469 C980 1.823 . S
C1483 C224 1.810 . S
C1487 C560 1.812 . S
C1501 C308 1.824 . S
C1505 C644 1.813 . S
C1519 C392 1.812 . S
C1523 C728 1.823 . S
C1537 C812 1.812 . S
C1541 C476 1.823 . S
C1555 C824 1.952 . S
C1559 C68 1.948 . S
C1573 C908 1.952 . S
C1577 C152 1.947 . S
C1591 C236 1.950 . S
C1595 C992 1.951 . S
C1609 C320 1.952 . S
C1613 C572 1.947 . S
C1627 C656 1.952 . S
C1631 C404 1.948 . S
C1645 C740 1.948 . S
C1649 C488 1.945 . S
