# Generated by pormake.
# Topology snp, (6)-cn, num edge types: 1
# Building blocks:
#     Node 0, Type 0, BuildingBlock: VOLQOD_clean_sbu_1, # of connection points: 6
#     Node 1, Type 0, BuildingBlock: VOLQOD_clean_sbu_1, # of connection points: 6
#     Node 2, Type 0, BuildingBlock: VOLQOD_clean_sbu_1, # of connection points: 6
#     Node 3, Type 0, BuildingBlock: VOLQOD_clean_sbu_1, # of connection points: 6
#     Edge 4, Type (0, 0), BuildingBlock: XUDNAN_clean_linker_2, # of connection points: 2
#     Edge 5, Type (0, 0), BuildingBlock: XUDNAN_clean_linker_2, # of connection points: 2
#     Edge 6, Type (0, 0), BuildingBlock: XUDNAN_clean_linker_2, # of connection points: 2
#     Edge 7, Type (0, 0), BuildingBlock: XUDNAN_clean_linker_2, # of connection points: 2
#     Edge 8, Type (0, 0), BuildingBlock: XUDNAN_clean_linker_2, # of connection points: 2
#     Edge 9, Type (0, 0), BuildingBlock: XUDNAN_clean_linker_2, # of connection points: 2
#     Edge 10, Type (0, 0), BuildingBlock: XUDNAN_clean_linker_2, # of connection points: 2
#     Edge 11, Type (0, 0), BuildingBlock: XUDNAN_clean_linker_2, # of connection points: 2
#     Edge 12, Type (0, 0), BuildingBlock: XUDNAN_clean_linker_2, # of connection points: 2
#     Edge 13, Type (0, 0), BuildingBlock: XUDNAN_clean_linker_2, # of connection points: 2
#     Edge 14, Type (0, 0), BuildingBlock: XUDNAN_clean_linker_2, # of connection points: 2
#     Edge 15, Type (0, 0), BuildingBlock: XUDNAN_clean_linker_2, # of connection points: 2
# Relax obj value: 0.790
# Max RMSD: 0.301
# Mean RMSD: 0.301
data_MOF--net-snp--node1-VOLQOD_clean_sbu_1--edge1-XUDNAN_clean_linker_2
_symmetry_space_group_name_H-M    P1
_symmetry_Int_Tables_number       1
_symmetry_cell_setting            triclinic
loop_
_symmetry_equiv_pos_as_xyz
'x, y, z'
_cell_length_a     29.794562
_cell_length_b     29.562145
_cell_length_c     24.667101
_cell_angle_alpha  90.188792
_cell_angle_beta   89.536403
_cell_angle_gamma 102.79531
loop_
_atom_site_label
_atom_site_type_symbol
_atom_site_fract_x
_atom_site_fract_y
_atom_site_fract_z
_atom_type_partial_charge
O0 O 0.15769 0.07971 0.92991 0.0
Zn1 Zn 0.19447 0.03657 0.95639 0.0
O2 O 0.25421 0.07335 0.97146 0.0
Zn3 Zn 0.29502 0.06135 0.91473 0.0
Zn4 Zn 0.25681 0.13969 0.96639 0.0
Zn5 Zn 0.271 0.06024 0.04486 0.0
O6 O 0.34957 0.04936 0.95208 0.0
O7 O 0.33513 0.04864 0.04148 0.0
O8 O 0.19399 -0.00679 0.89443 0.0
O9 O 0.26529 0.01026 0.86225 0.0
O10 O 0.31589 0.11815 0.86823 0.0
O11 O 0.31124 0.17446 0.92541 0.0
O12 O 0.25638 0.16867 0.03886 0.0
O13 O 0.16603 -0.00183 0.02069 0.0
O14 O 0.26962 0.11474 0.0949 0.0
O15 O 0.22454 0.00652 0.07808 0.0
C16 C 0.16448 0.12234 0.91654 0.0
C17 C 0.36153 0.04595 0.00114 0.0
C18 C 0.32363 0.16114 0.87984 0.0
C19 C 0.22379 0.98719 0.85969 0.0
C20 C 0.26234 0.15503 0.08647 0.0
C21 C 0.18324 0.98786 0.0649 0.0
O22 O 0.20184 0.151 0.92721 0.0
O23 O 0.01046 0.15379 0.56915 0.0
Zn24 Zn -0.00075 0.2144 0.54652 0.0
O25 O 0.0572 0.25514 0.53216 0.0
Zn26 Zn 0.0723 0.29106 0.59832 0.0
Zn27 Zn 0.10017 0.21653 0.51797 0.0
Zn28 Zn 0.05144 0.28936 0.46689 0.0
O29 O 0.07758 0.35811 0.57794 0.0
O30 O 0.06209 0.3554 0.48903 0.0
O31 O 0.96448 0.23565 0.60651 0.0
O32 O 0.02213 0.27223 0.65758 0.0
O33 O 0.13413 0.28263 0.62625 0.0
O34 O 0.14843 0.22562 0.5742 0.0
O35 O 0.13322 0.23204 0.44814 0.0
O36 O 0.9599 0.20373 0.48041 0.0
O37 O 0.1005 0.28459 0.41103 0.0
O38 O -0.01048 0.26509 0.42956 0.0
C39 C 0.02903 0.13133 0.5351 0.0
C40 C 0.07298 0.37784 0.53298 0.0
C41 C 0.15945 0.25471 0.61261 0.0
C42 C 0.97949 0.25347 0.65156 0.0
C43 C 0.13009 0.25944 0.40959 0.0
C44 C 0.95882 0.22814 0.43828 0.0
O45 O 0.06487 0.15147 0.50922 0.0
O46 O 0.87343 0.01846 0.08717 0.0
Zn47 Zn 0.81795 0.03143 0.05313 0.0
O48 O 0.77951 0.97166 0.03909 0.0
Zn49 Zn 0.75054 0.97525 0.97118 0.0
Zn50 Zn 0.81712 0.92683 0.03399 0.0
Zn51 Zn 0.7396 0.96046 0.10194 0.0
O52 O 0.68823 0.98289 0.98953 0.0
O53 O 0.67743 0.96947 0.07846 0.0
O54 O 0.83562 0.0699 0.98535 0.0
O55 O 0.7827 0.03225 0.92875 0.0
O56 O 0.74987 0.91843 0.9248 0.0
O57 O 0.80505 0.8909 0.96423 0.0
O58 O 0.80126 0.88037 0.09404 0.0
O59 O 0.79079 0.06818 0.10693 0.0
O60 O 0.73791 0.89592 0.13127 0.0
O61 O 0.76252 0.0092 0.16122 0.0
C62 C 0.89926 0.00026 0.05714 0.0
C63 C 0.66359 0.98011 0.03235 0.0
C64 C 0.77622 0.88982 0.92616 0.0
C65 C 0.81632 0.06607 0.93918 0.0
C66 C 0.76678 0.86995 0.12621 0.0
C67 C 0.77727 0.0527 0.15361 0.0
O68 O 0.88255 0.96265 0.03204 0.0
O69 O 0.92086 0.86444 0.45931 0.0
Zn70 Zn 0.9676 0.8269 0.46935 0.0
O71 O 0.93363 0.76377 0.48258 0.0
Zn72 Zn 0.95221 0.74343 0.55244 0.0
Zn73 Zn 0.86682 0.75793 0.48602 0.0
Zn74 Zn 0.94668 0.72649 0.42212 0.0
O75 O 0.97737 0.68642 0.5413 0.0
O76 O 0.97935 0.68005 0.45104 0.0
O77 O 0.0127 0.8519 0.52912 0.0
O78 O 0.00343 0.79164 0.58482 0.0
O79 O 0.90111 0.73523 0.6088 0.0
O80 O 0.8417 0.74636 0.56127 0.0
O81 O 0.8323 0.71111 0.43426 0.0
O82 O 0.00405 0.83471 0.39947 0.0
O83 O 0.88868 0.69686 0.38261 0.0
O84 O -0.01322 0.76419 0.36417 0.0
C85 C 0.87723 0.85679 0.45489 0.0
C86 C -0.01143 0.66743 0.49825 0.0
C87 C 0.8593 0.73872 0.60617 0.0
C88 C 0.02342 0.83284 0.57192 0.0
C89 C 0.84592 0.69337 0.39187 0.0
C90 C 0.00721 0.80674 0.36115 0.0
O91 O 0.85114 0.81728 0.46317 0.0
H92 H 0.94826 0.98482 0.96762 0.0
H93 H 0.93964 0.08802 0.09078 0.0
H94 H -0.00454 0.14627 0.03926 0.0
H95 H 0.06669 0.01853 0.9505 0.0
H96 H 0.06427 0.00424 0.87925 0.0
H97 H 0.01981 0.97499 0.92408 0.0
H98 H 0.9627 -0.00142 0.85971 0.0
H99 H 0.0056 0.03535 0.81788 0.0
H100 H 0.96115 0.0583 0.85083 0.0
H101 H 0.0594 0.18861 0.98443 0.0
H102 H 0.13805 0.20119 0.94826 0.0
H103 H 0.09909 0.07874 0.84881 0.0
C104 C 0.95802 0.01966 0.98388 0.0
C105 C 0.93935 0.03193 0.03297 0.0
C106 C 0.9535 0.0778 0.05308 0.0
C107 C -0.01561 0.11139 0.02356 0.0
C108 C 0.00046 0.09863 0.97394 0.0
C109 C -0.01158 0.0536 0.95482 0.0
C110 C 0.01575 0.0467 0.90503 0.0
C111 C 0.04329 0.00901 0.91538 0.0
C112 C -0.0155 0.03414 0.85543 0.0
C113 C 0.04672 0.0947 0.90027 0.0
C114 C 0.03672 0.12445 0.94004 0.0
C115 C 0.06726 0.16611 0.95273 0.0
C116 C 0.1118 0.1737 0.93103 0.0
C117 C 0.12423 0.13889 0.89877 0.0
C118 C 0.08955 0.10484 0.8747 0.0
H119 H 0.83827 0.907 0.52354 0.0
H120 H 0.87938 0.89669 0.35696 0.0
H121 H 0.91397 0.97964 0.35532 0.0
H122 H 0.83751 0.04641 0.51579 0.0
H123 H 0.85864 0.05094 0.58425 0.0
H124 H 0.81573 0.0008 0.56371 0.0
H125 H 0.86893 0.94955 0.59886 0.0
H126 H 0.91361 -0.00131 0.61539 0.0
H127 H 0.92559 0.95533 0.56931 0.0
H128 H 0.97692 0.04002 0.38584 0.0
H129 H 0.03578 0.09746 0.43293 0.0
H130 H 0.95438 0.07374 0.58108 0.0
C131 C 0.85029 0.92362 0.48544 0.0
C132 C 0.85811 0.89635 0.44113 0.0
C133 C 0.87383 0.91768 0.39144 0.0
C134 C 0.89419 0.96487 0.39048 0.0
C135 C 0.8954 0.98971 0.43873 0.0
C136 C 0.87088 0.97096 0.48457 0.0
C137 C 0.88518 0.00155 0.5338 0.0
C138 C 0.84701 0.02642 0.55032 0.0
C139 C 0.89917 0.97462 0.58205 0.0
C140 C 0.92615 0.03535 0.5104 0.0
C141 C 0.93121 0.02825 0.45554 0.0
C142 C 0.97151 0.04853 0.42773 0.0
C143 C 0.00548 0.08005 0.45532 0.0
C144 C -0.00082 0.09048 0.51049 0.0
C145 C 0.95947 0.06707 0.53851 0.0
H146 H 0.57965 0.94861 0.08313 0.0
H147 H 0.65571 0.05462 0.97513 0.0
H148 H 0.58828 0.08879 0.96732 0.0
H149 H 0.47717 0.92966 0.01012 0.0
H150 H 0.43882 0.92051 0.0679 0.0
H151 H 0.495 0.90786 0.0727 0.0
H152 H 0.51311 0.96288 0.15551 0.0
H153 H 0.45688 0.97578 0.15086 0.0
H154 H 0.50762 0.02219 0.14964 0.0
H155 H 0.51402 0.10663 0.96185 0.0
H156 H 0.43166 0.10589 0.9556 0.0
H157 H 0.39957 0.98905 0.06611 0.0
C158 C 0.58193 0.9794 0.05864 0.0
C159 C 0.62242 -0.00099 0.02949 0.0
C160 C 0.62458 0.03886 0.99715 0.0
C161 C 0.58675 0.05888 0.993 0.0
C162 C 0.54704 0.03851 0.02132 0.0
C163 C 0.54391 -0.00042 0.05328 0.0
C164 C 0.49517 0.98209 0.07418 0.0
C165 C 0.47539 0.93208 0.05506 0.0
C166 C 0.49309 0.98599 0.13624 0.0
C167 C 0.47144 0.0163 0.04708 0.0
C168 C 0.50256 0.04895 0.01775 0.0
C169 C 0.48925 0.08188 0.98529 0.0
C170 C 0.44256 0.08097 0.9817 0.0
C171 C 0.40997 0.04745 0.01045 0.0
C172 C 0.42434 0.01535 0.0446 0.0
H173 H 0.04171 0.43446 0.60423 0.0
H174 H 0.11828 0.43316 0.45436 0.0
H175 H 0.11761 0.51523 0.43916 0.0
H176 H 0.96602 0.48983 0.55547 0.0
H177 H 0.9599 0.52526 0.61351 0.0
H178 H 0.97802 0.47181 0.6226 0.0
H179 H 0.05168 0.5152 0.67157 0.0
H180 H 0.03338 0.569 0.66357 0.0
H181 H 0.08922 0.56394 0.63905 0.0
H182 H 0.09322 0.58732 0.42817 0.0
H183 H 0.04995 0.64901 0.42445 0.0
H184 H -0.01205 0.60596 0.58109 0.0
C185 C 0.06015 0.4524 0.56974 0.0
C186 C 0.08039 0.42826 0.53062 0.0
C187 C 0.1028 0.45163 0.48472 0.0
C188 C 0.10288 0.4982 0.47601 0.0
C189 C 0.08039 0.52066 0.51366 0.0
C190 C 0.05988 0.4989 0.56008 0.0
C191 C 0.0315 0.52835 0.58902 0.0
C192 C -0.01911 0.50225 0.59546 0.0
C193 C 0.05273 0.54513 0.64407 0.0
C194 C 0.03646 0.56812 0.54939 0.0
C195 C 0.06575 0.56345 0.50699 0.0
C196 C 0.07133 0.59229 0.46186 0.0
C197 C 0.04615 0.62677 0.45978 0.0
C198 C 0.01579 0.632 0.50255 0.0
C199 C 0.01162 0.60301 0.5484 0.0
H200 H 0.17903 0.19473 0.38332 0.0
H201 H 0.14466 0.32099 0.32442 0.0
H202 H 0.18658 0.31389 0.23894 0.0
H203 H 0.29371 0.20951 0.31594 0.0
H204 H 0.2843 0.14836 0.30128 0.0
H205 H 0.25894 0.16792 0.36107 0.0
H206 H 0.17824 0.12302 0.33038 0.0
H207 H 0.20325 0.10342 0.2707 0.0
H208 H 0.15773 0.13427 0.2643 0.0
H209 H 0.22398 0.28808 0.15676 0.0
H210 H 0.24947 0.2438 0.08238 0.0
H211 H 0.2572 0.13301 0.1947 0.0
C212 C 0.18137 0.22171 0.35316 0.0
C213 C 0.15897 0.25872 0.36073 0.0
C214 C 0.16182 0.29252 0.31959 0.0
C215 C 0.18575 0.28888 0.27109 0.0
C216 C 0.20658 0.25131 0.26455 0.0
C217 C 0.20456 0.2183 0.30452 0.0
C218 C 0.22485 0.17836 0.2853 0.0
C219 C 0.26802 0.17592 0.31783 0.0
C220 C 0.18887 0.13207 0.2878 0.0
C221 C 0.23709 0.19315 0.22747 0.0
C222 C 0.22722 0.23579 0.21665 0.0
C223 C 0.23247 0.25503 0.16496 0.0
C224 C 0.24691 0.22948 0.12293 0.0
C225 C 0.2554 0.18485 0.13268 0.0
C226 C 0.25164 0.16722 0.18603 0.0
H227 H -0.00077 0.23888 0.7579 0.0
H228 H 0.8867 0.24321 0.64919 0.0
H229 H 0.8312 0.20441 0.71792 0.0
H230 H 0.9608 0.13245 0.79784 0.0
H231 H 0.97446 0.13694 0.86874 0.0
H232 H 0.00791 0.17734 0.82183 0.0
H233 H -0.00897 0.24749 0.8727 0.0
H234 H 0.96166 0.20825 0.92393 0.0
H235 H 0.9327 0.24841 0.8918 0.0
H236 H 0.79031 0.14975 0.78701 0.0
H237 H 0.76516 0.091 0.85815 0.0
H238 H 0.90282 0.12219 0.92509 0.0
C239 C 0.9628 0.23413 0.74991 0.0
C240 C 0.94729 0.24442 0.69837 0.0
C241 C 0.89935 0.23586 0.68852 0.0
C242 C 0.86749 0.21381 0.72738 0.0
C243 C 0.88395 0.20114 0.77641 0.0
C244 C 0.93036 0.21216 0.78859 0.0
C245 C 0.93932 0.18915 0.84106 0.0
C246 C 0.97271 0.15711 0.83158 0.0
C247 C 0.95722 0.22551 0.88499 0.0
C248 C 0.89129 0.16158 0.85487 0.0
C249 C 0.85982 0.16945 0.81721 0.0
C250 C 0.81433 0.14433 0.81769 0.0
C251 C 0.80047 0.11065 0.85794 0.0
C252 C 0.83187 0.10231 0.89746 0.0
C253 C 0.8778 0.12853 0.89609 0.0
H254 H 0.86825 0.69126 0.28506 0.0
H255 H 0.7518 0.68043 0.39425 0.0
H256 H 0.70869 0.70915 0.32255 0.0
H257 H 0.87237 0.79249 0.24791 0.0
H258 H 0.88763 0.7902 0.17724 0.0
H259 H 0.90159 0.74902 0.22345 0.0
H260 H 0.85672 0.68041 0.16658 0.0
H261 H 0.84393 0.72134 0.1182 0.0
H262 H 0.79792 0.67843 0.14803 0.0
H263 H 0.69119 0.76531 0.25676 0.0
H264 H 0.69609 0.8327 0.1965 0.0
H265 H 0.82485 0.81045 0.13037 0.0
C266 C 0.83256 0.69185 0.29271 0.0
C267 C 0.81378 0.68453 0.34555 0.0
C268 C 0.7671 0.68612 0.35416 0.0
C269 C 0.74233 0.7027 0.31354 0.0
C270 C 0.76439 0.71643 0.26428 0.0
C271 C 0.80805 0.70958 0.2529 0.0
C272 C 0.82812 0.73581 0.20241 0.0
C273 C 0.87512 0.76881 0.21352 0.0
C274 C 0.83186 0.70197 0.15605 0.0
C275 C 0.79133 0.76234 0.19083 0.0
C276 C 0.75414 0.74964 0.22571 0.0
C277 C 0.71925 0.77429 0.22786 0.0
C278 C 0.72258 0.81292 0.19389 0.0
C279 C 0.76086 0.8269 0.15864 0.0
C280 C 0.79485 0.80036 0.15633 0.0
H281 H 0.02695 0.83161 0.68239 0.0
H282 H 0.10368 0.89124 0.54003 0.0
H283 H 0.16813 0.93009 0.59852 0.0
H284 H 0.06004 0.93401 0.76383 0.0
H285 H 0.06168 0.90245 0.82588 0.0
H286 H 0.02377 0.87692 0.77223 0.0
H287 H 0.06071 0.80534 0.77238 0.0
H288 H 0.09932 0.83104 0.82549 0.0
H289 H 0.12204 0.81336 0.7629 0.0
H290 H 0.22438 0.96192 0.67321 0.0
H291 H 0.26211 -0.00489 0.75779 0.0
H292 H 0.14606 0.91831 0.85102 0.0
C293 C 0.05749 0.85264 0.66361 0.0
C294 C 0.06075 0.85815 0.60679 0.0
C295 C 0.10068 0.88669 0.58356 0.0
C296 C 0.13752 0.90849 0.6164 0.0
C297 C 0.13348 0.90196 0.67237 0.0
C298 C 0.09402 0.87553 0.69583 0.0
C299 C 0.09653 0.8773 0.75711 0.0
C300 C 0.05826 0.89897 0.78115 0.0
C301 C 0.09454 0.82887 0.78085 0.0
C302 C 0.14362 0.90878 0.76454 0.0
C303 C 0.1648 0.92195 0.71526 0.0
C304 C 0.20815 0.95178 0.71203 0.0
C305 C 0.22954 0.97012 0.76034 0.0
C306 C 0.20716 0.95916 0.81103 0.0
C307 C 0.16423 0.92708 0.81294 0.0
H308 H 0.84496 0.84727 0.89547 0.0
H309 H 0.70667 0.85858 0.85385 0.0
H310 H 0.70848 0.80772 0.77446 0.0
H311 H 0.88764 0.85843 0.76485 0.0
H312 H 0.92542 0.81896 0.77232 0.0
H313 H 0.90999 0.84901 0.83056 0.0
H314 H 0.87986 0.77032 0.87908 0.0
H315 H 0.89496 0.73998 0.82055 0.0
H316 H 0.83689 0.72612 0.84678 0.0
H317 H 0.7285 0.76358 0.6946 0.0
H318 H 0.76722 0.73607 0.61652 0.0
H319 H 0.89331 0.75489 0.70907 0.0
C320 C 0.81453 0.83798 0.87054 0.0
C321 C 0.77541 0.85638 0.8812 0.0
C322 C 0.73688 0.84464 0.84661 0.0
C323 C 0.73749 0.81552 0.80167 0.0
C324 C 0.77692 0.79853 0.79183 0.0
C325 C 0.81484 0.80953 0.82519 0.0
C326 C 0.855 0.79176 0.80212 0.0
C327 C 0.89694 0.83192 0.79184 0.0
C328 C 0.86739 0.75484 0.83936 0.0
C329 C 0.8343 0.77045 0.74956 0.0
C330 C 0.7889 0.77379 0.74499 0.0
C331 C 0.76377 0.76011 0.69808 0.0
C332 C 0.78609 0.74445 0.6539 0.0
C333 C 0.83328 0.74304 0.65667 0.0
C334 C 0.857 0.75455 0.70597 0.0
H335 H 0.18199 0.98833 0.17611 0.0
H336 H 0.11869 0.91101 0.03639 0.0
H337 H 0.06975 0.85388 0.09726 0.0
H338 H 0.18105 0.89121 0.2656 0.0
H339 H 0.16594 0.92044 0.32499 0.0
H340 H 0.19816 0.95351 0.27065 0.0
H341 H 0.13649 0.00265 0.2632 0.0
H342 H 0.10413 0.96986 0.31757 0.0
H343 H 0.07713 0.97393 0.2532 0.0
H344 H 0.02867 0.80449 0.17345 0.0
H345 H -0.0078 0.77103 0.25893 0.0
H346 H 0.07755 0.88395 0.34906 0.0
C347 C 0.15818 0.95903 0.15847 0.0
C348 C 0.15449 0.95359 0.10161 0.0
C349 C 0.12213 0.91559 0.07987 0.0
C350 C 0.09435 0.88292 0.1141 0.0
C351 C 0.09875 0.88925 0.17 0.0
C352 C 0.12934 0.92674 0.19207 0.0
C353 C 0.125 0.92721 0.25338 0.0
C354 C 0.17023 0.92282 0.28022 0.0
C355 C 0.10977 0.971 0.27297 0.0
C356 C 0.08742 0.88396 0.26235 0.0
C357 C 0.07325 0.86222 0.21377 0.0
C358 C 0.0394 0.82129 0.21172 0.0
C359 C 0.01906 0.8024 0.26051 0.0
C360 C 0.03203 0.82483 0.31065 0.0
C361 C 0.06684 0.86607 0.31136 0.0
H362 H 0.18496 0.29002 0.71338 0.0
H363 H 0.23178 0.22046 0.57606 0.0
H364 H 0.29955 0.21163 0.62732 0.0
H365 H 0.3069 0.34353 0.77048 0.0
H366 H 0.28508 0.33288 0.8387 0.0
H367 H 0.24878 0.34764 0.78647 0.0
H368 H 0.18683 0.27285 0.80737 0.0
H369 H 0.22245 0.25874 0.85982 0.0
H370 H 0.20308 0.21759 0.80624 0.0
H371 H 0.3469 0.18981 0.69779 0.0
H372 H 0.36533 0.15357 0.78195 0.0
H373 H 0.2944 0.24124 0.875 0.0
C374 C 0.21054 0.27465 0.69356 0.0
C375 C 0.20307 0.25581 0.64101 0.0
C376 C 0.23662 0.23491 0.61656 0.0
C377 C 0.27567 0.23031 0.64511 0.0
C378 C 0.28112 0.24723 0.69794 0.0
C379 C 0.24967 0.26948 0.72186 0.0
C380 C 0.25855 0.27652 0.78192 0.0
C381 C 0.27587 0.32823 0.79515 0.0
C382 C 0.21521 0.2551 0.81573 0.0
C383 C 0.29654 0.25039 0.78892 0.0
C384 C 0.31037 0.23533 0.73963 0.0
C385 C 0.3378 0.20273 0.73651 0.0
C386 C 0.34827 0.18229 0.78456 0.0
C387 C 0.33137 0.19472 0.83484 0.0
C388 C 0.30873 0.23191 0.83719 0.0
H389 H 0.80381 0.03453 0.25544 0.0
H390 H 0.77826 0.14515 0.15364 0.0
H391 H 0.81417 0.20291 0.22193 0.0
H392 H 0.79403 0.08787 0.39213 0.0
H393 H 0.84269 0.06737 0.41692 0.0
H394 H 0.8058 0.03442 0.36649 0.0
H395 H 0.87645 0.0366 0.3051 0.0
H396 H 0.91411 0.07171 0.35298 0.0
H397 H 0.91187 0.09166 0.28468 0.0
H398 H 0.86536 0.24899 0.29278 0.0
H399 H 0.92278 0.279 0.36372 0.0
H400 H 0.9153 0.13832 0.41882 0.0
C401 C 0.80355 0.07068 0.24891 0.0
C402 C 0.78746 0.08531 0.1998 0.0
C403 C 0.78989 0.1332 0.19139 0.0
C404 C 0.81025 0.16627 0.22996 0.0
C405 C 0.82806 0.15093 0.27679 0.0
C406 C 0.82432 0.10418 0.28673 0.0
C407 C 0.85242 0.09704 0.33549 0.0
C408 C 0.82187 0.07008 0.38042 0.0
C409 C 0.89095 0.07275 0.3185 0.0
C410 C 0.87201 0.14685 0.35197 0.0
C411 C 0.8579 0.17754 0.3174 0.0
C412 C 0.87568 0.2253 0.32099 0.0
C413 C 0.90846 0.24205 0.36113 0.0
C414 C 0.92283 0.21113 0.39738 0.0
C415 C 0.90397 0.16298 0.39276 0.0
loop_
_geom_bond_atom_site_label_1
_geom_bond_atom_site_label_2
_geom_bond_distance
_geom_bond_site_symmetry_2
_ccdc_geom_bond_type
O0 Zn1 1.953 1_545 S
O0 C16 1.225 1_556 S
Zn1 O0 1.953 1_565 S
Zn1 O2 1.949 1_566 S
Zn1 O8 1.919 . S
Zn1 O13 1.924 1_556 S
O2 Zn1 1.949 1_544 S
O2 Zn3 1.923 1_554 S
O2 Zn4 1.950 . S
O2 Zn5 1.945 . S
Zn3 O2 1.923 1_556 S
Zn3 O6 1.933 . S
Zn3 O9 1.941 . S
Zn3 O10 1.965 . S
Zn4 O2 1.950 . S
Zn4 O11 1.938 1_554 S
Zn4 O12 1.906 . S
Zn4 O22 1.953 . S
Zn5 O2 1.945 . S
Zn5 O7 1.932 . S
Zn5 O14 1.977 . S
Zn5 O15 1.910 1_545 S
O6 Zn3 1.933 . S
O6 C17 1.226 1_556 S
O7 Zn5 1.932 . S
O7 C17 1.307 . S
O8 Zn1 1.919 . S
O8 C19 1.253 . S
O9 Zn3 1.941 . S
O9 C19 1.283 1_545 S
O10 Zn3 1.965 . S
O10 C18 1.303 . S
O11 Zn4 1.938 1_556 S
O11 C18 1.247 . S
O12 Zn4 1.906 . S
O12 C20 1.304 . S
O13 Zn1 1.924 1_554 S
O13 C21 1.311 . S
O14 Zn5 1.977 . S
O14 C20 1.272 . S
O15 Zn5 1.910 1_565 S
O15 C21 1.231 . S
C16 O0 1.225 1_554 S
C16 O22 1.298 . S
C17 O6 1.226 1_554 S
C17 O7 1.307 . S
C18 O10 1.303 . S
C18 O11 1.247 . S
C19 O8 1.253 . S
C19 O9 1.283 1_565 S
C20 O12 1.304 . S
C20 O14 1.272 . S
C21 O13 1.311 . S
C21 O15 1.231 . S
O22 Zn4 1.953 . S
O22 C16 1.298 . S
O23 Zn24 1.953 1_455 S
O23 C39 1.225 . S
Zn24 O23 1.953 1_655 S
Zn24 O25 1.949 1_655 S
Zn24 O31 1.919 . S
Zn24 O36 1.924 . S
O25 Zn24 1.949 1_455 S
O25 Zn26 1.923 . S
O25 Zn27 1.950 . S
O25 Zn28 1.945 . S
Zn26 O25 1.923 . S
Zn26 O29 1.933 . S
Zn26 O32 1.941 . S
Zn26 O33 1.965 . S
Zn27 O25 1.950 . S
Zn27 O34 1.938 . S
Zn27 O35 1.906 . S
Zn27 O45 1.953 . S
Zn28 O25 1.945 . S
Zn28 O30 1.932 . S
Zn28 O37 1.977 . S
Zn28 O38 1.910 1_455 S
O29 Zn26 1.933 . S
O29 C40 1.226 . S
O30 Zn28 1.932 . S
O30 C40 1.307 . S
O31 Zn24 1.919 . S
O31 C42 1.253 . S
O32 Zn26 1.941 . S
O32 C42 1.283 1_455 S
O33 Zn26 1.965 . S
O33 C41 1.303 . S
O34 Zn27 1.938 . S
O34 C41 1.247 . S
O35 Zn27 1.906 . S
O35 C43 1.304 . S
O36 Zn24 1.924 . S
O36 C44 1.311 . S
O37 Zn28 1.977 . S
O37 C43 1.272 . S
O38 Zn28 1.910 1_655 S
O38 C44 1.231 . S
C39 O23 1.225 . S
C39 O45 1.298 . S
C40 O29 1.226 . S
C40 O30 1.307 . S
C41 O33 1.303 . S
C41 O34 1.247 . S
C42 O31 1.253 . S
C42 O32 1.283 1_655 S
C43 O35 1.304 . S
C43 O37 1.272 . S
C44 O36 1.311 . S
C44 O38 1.231 . S
O45 Zn27 1.953 . S
O45 C39 1.298 . S
O46 Zn47 1.953 . S
O46 C62 1.225 1_556 S
Zn47 O46 1.953 . S
Zn47 O48 1.948 1_556 S
Zn47 O54 1.919 . S
Zn47 O59 1.924 1_556 S
O48 Zn47 1.948 1_554 S
O48 Zn49 1.923 1_544 S
O48 Zn50 1.951 1_545 S
O48 Zn51 1.944 . S
Zn49 O48 1.923 1_566 S
Zn49 O52 1.933 . S
Zn49 O55 1.941 1_565 S
Zn49 O56 1.965 . S
Zn50 O48 1.951 1_565 S
Zn50 O57 1.938 1_554 S
Zn50 O58 1.906 . S
Zn50 O68 1.953 . S
Zn51 O48 1.944 . S
Zn51 O53 1.932 . S
Zn51 O60 1.977 1_545 S
Zn51 O61 1.910 . S
O52 Zn49 1.933 . S
O52 C63 1.226 1_556 S
O53 Zn51 1.932 . S
O53 C63 1.307 1_545 S
O54 Zn47 1.919 . S
O54 C65 1.253 . S
O55 Zn49 1.941 1_545 S
O55 C65 1.283 . S
O56 Zn49 1.965 . S
O56 C64 1.303 . S
O57 Zn50 1.938 1_556 S
O57 C64 1.247 . S
O58 Zn50 1.906 . S
O58 C66 1.304 . S
O59 Zn47 1.924 1_554 S
O59 C67 1.311 . S
O60 Zn51 1.977 1_565 S
O60 C66 1.272 . S
O61 Zn51 1.910 . S
O61 C67 1.231 . S
C62 O46 1.225 1_554 S
C62 O68 1.298 1_545 S
C63 O52 1.226 1_554 S
C63 O53 1.307 1_565 S
C64 O56 1.303 . S
C64 O57 1.247 . S
C65 O54 1.253 . S
C65 O55 1.283 . S
C66 O58 1.304 . S
C66 O60 1.272 . S
C67 O59 1.311 . S
C67 O61 1.231 . S
O68 Zn50 1.953 . S
O68 C62 1.298 1_565 S
O69 Zn70 1.953 . S
O69 C85 1.225 . S
Zn70 O69 1.953 . S
Zn70 O71 1.948 . S
Zn70 O77 1.919 . S
Zn70 O82 1.924 . S
O71 Zn70 1.948 . S
O71 Zn72 1.923 1_455 S
O71 Zn73 1.951 1_455 S
O71 Zn74 1.944 . S
Zn72 O71 1.923 1_655 S
Zn72 O75 1.933 . S
Zn72 O78 1.941 1_655 S
Zn72 O79 1.965 . S
Zn73 O71 1.951 1_655 S
Zn73 O80 1.938 . S
Zn73 O81 1.906 . S
Zn73 O91 1.953 . S
Zn74 O71 1.944 . S
Zn74 O76 1.932 . S
Zn74 O83 1.977 1_455 S
Zn74 O84 1.910 . S
O75 Zn72 1.933 . S
O75 C86 1.226 . S
O76 Zn74 1.932 . S
O76 C86 1.307 1_455 S
O77 Zn70 1.919 . S
O77 C88 1.253 . S
O78 Zn72 1.941 1_455 S
O78 C88 1.283 . S
O79 Zn72 1.965 . S
O79 C87 1.303 . S
O80 Zn73 1.938 . S
O80 C87 1.247 . S
O81 Zn73 1.906 . S
O81 C89 1.304 . S
O82 Zn70 1.924 . S
O82 C90 1.311 . S
O83 Zn74 1.977 1_655 S
O83 C89 1.272 . S
O84 Zn74 1.910 . S
O84 C90 1.231 . S
C85 O69 1.225 . S
C85 O91 1.298 1_455 S
C86 O75 1.226 . S
C86 O76 1.307 1_655 S
C87 O79 1.303 . S
C87 O80 1.247 . S
C88 O77 1.253 . S
C88 O78 1.283 . S
C89 O81 1.304 . S
C89 O83 1.272 . S
C90 O82 1.311 . S
C90 O84 1.231 . S
O91 Zn73 1.953 . S
O91 C85 1.298 1_655 S
H92 C104 0.936 . S
H93 C106 0.930 . S
H94 C107 0.930 . S
H95 C111 0.959 . S
H96 C111 0.959 . S
H97 C111 0.961 . S
H98 C112 0.960 1_655 S
H99 C112 0.961 . S
H100 C112 0.959 . S
H101 C115 0.929 . S
H102 C116 0.931 . S
H103 C118 0.930 . S
C104 H92 0.936 . S
C104 C105 1.397 1_556 S
C104 C109 1.396 1_565 S
C105 C104 1.397 1_554 S
C105 C106 1.375 1_565 S
C106 H93 0.930 . S
C106 C105 1.375 1_545 S
C106 C107 1.388 . S
C107 H94 0.930 . S
C107 C106 1.388 . S
C107 C108 1.380 1_655 S
C108 C107 1.380 1_455 S
C108 C109 1.390 1_454 S
C108 C114 1.480 . S
C109 C104 1.396 1_545 S
C109 C108 1.390 1_656 S
C109 C110 1.516 1_655 S
C110 C109 1.516 1_455 S
C110 C111 1.502 1_545 S
C110 C112 1.561 . S
C110 C113 1.526 . S
C111 H95 0.959 . S
C111 H96 0.959 . S
C111 H97 0.961 . S
C111 C110 1.502 1_565 S
C112 H98 0.960 1_455 S
C112 H99 0.961 . S
C112 H100 0.959 . S
C112 C110 1.561 . S
C113 C110 1.526 . S
C113 C114 1.396 1_556 S
C113 C118 1.390 . S
C114 C108 1.480 . S
C114 C113 1.396 1_554 S
C114 C115 1.399 . S
C115 H101 0.929 . S
C115 C114 1.399 . S
C115 C116 1.385 . S
C116 H102 0.931 . S
C116 C115 1.385 . S
C116 C117 1.389 . S
C117 C116 1.389 . S
C117 C118 1.387 1_554 S
C118 H103 0.930 . S
C118 C113 1.390 . S
C118 C117 1.387 1_556 S
H119 C131 0.930 . S
H120 C133 0.930 . S
H121 C134 0.930 . S
H122 C138 0.959 . S
H123 C138 0.959 . S
H124 C138 0.961 . S
H125 C139 0.960 1_565 S
H126 C139 0.961 . S
H127 C139 0.959 . S
H128 C142 0.929 . S
H129 C143 0.931 . S
H130 C145 0.930 . S
C131 H119 0.930 . S
C131 C132 1.399 . S
C131 C136 1.399 1_655 S
C132 C131 1.399 . S
C132 C133 1.376 1_655 S
C133 H120 0.930 . S
C133 C132 1.376 1_455 S
C133 C134 1.388 . S
C134 H121 0.930 . S
C134 C133 1.388 . S
C134 C135 1.381 1_565 S
C135 C134 1.381 1_545 S
C135 C136 1.391 1_545 S
C135 C141 1.478 . S
C136 C131 1.399 1_455 S
C136 C135 1.391 1_565 S
C136 C137 1.516 1_565 S
C137 C136 1.516 1_545 S
C137 C138 1.502 1_455 S
C137 C139 1.561 . S
C137 C140 1.526 . S
C138 H122 0.959 . S
C138 H123 0.959 . S
C138 H124 0.961 . S
C138 C137 1.502 1_655 S
C139 H125 0.960 1_545 S
C139 H126 0.961 . S
C139 H127 0.959 . S
C139 C137 1.561 . S
C140 C137 1.526 . S
C140 C141 1.396 . S
C140 C145 1.390 . S
C141 C135 1.478 . S
C141 C140 1.396 . S
C141 C142 1.399 . S
C142 H128 0.929 . S
C142 C141 1.399 . S
C142 C143 1.385 . S
C143 H129 0.931 . S
C143 C142 1.385 . S
C143 C144 1.389 . S
C144 C143 1.389 . S
C144 C145 1.387 . S
C145 H130 0.930 . S
C145 C140 1.390 . S
C145 C144 1.387 . S
H146 C158 0.930 1_565 S
H147 C160 0.930 . S
H148 C161 0.930 . S
H149 C165 0.959 . S
H150 C165 0.959 . S
H151 C165 0.961 . S
H152 C166 0.960 . S
H153 C166 0.961 . S
H154 C166 0.959 . S
H155 C169 0.929 . S
H156 C170 0.931 . S
H157 C172 0.930 . S
C158 H146 0.930 1_545 S
C158 C159 1.386 1_554 S
C158 C163 1.399 . S
C159 C158 1.386 1_556 S
C159 C160 1.392 . S
C160 H147 0.930 . S
C160 C159 1.392 . S
C160 C161 1.388 . S
C161 H148 0.930 . S
C161 C160 1.388 . S
C161 C162 1.390 . S
C162 C161 1.390 . S
C162 C163 1.394 1_556 S
C162 C168 1.465 . S
C163 C158 1.399 . S
C163 C162 1.394 1_554 S
C163 C164 1.516 . S
C164 C163 1.516 . S
C164 C165 1.502 1_545 S
C164 C166 1.561 . S
C164 C167 1.526 . S
C165 H149 0.959 . S
C165 H150 0.959 . S
C165 H151 0.961 . S
C165 C164 1.502 1_565 S
C166 H152 0.960 . S
C166 H153 0.961 . S
C166 H154 0.959 . S
C166 C164 1.561 . S
C167 C164 1.526 . S
C167 C168 1.396 1_554 S
C167 C172 1.390 . S
C168 C162 1.465 . S
C168 C167 1.396 1_556 S
C168 C169 1.399 . S
C169 H155 0.929 . S
C169 C168 1.399 . S
C169 C170 1.385 . S
C170 H156 0.931 . S
C170 C169 1.385 . S
C170 C171 1.389 . S
C171 C170 1.389 . S
C171 C172 1.387 1_556 S
C172 H157 0.930 . S
C172 C167 1.390 . S
C172 C171 1.387 1_554 S
H173 C185 0.930 . S
H174 C187 0.930 . S
H175 C188 0.930 . S
H176 C192 0.959 . S
H177 C192 0.959 . S
H178 C192 0.961 . S
H179 C193 0.960 . S
H180 C193 0.961 . S
H181 C193 0.959 . S
H182 C196 0.929 . S
H183 C197 0.931 . S
H184 C199 0.930 . S
C185 H173 0.930 . S
C185 C186 1.399 . S
C185 C190 1.399 . S
C186 C185 1.399 . S
C186 C187 1.376 . S
C187 H174 0.930 . S
C187 C186 1.376 . S
C187 C188 1.388 . S
C188 H175 0.930 . S
C188 C187 1.388 . S
C188 C189 1.390 . S
C189 C188 1.390 . S
C189 C190 1.394 . S
C189 C195 1.465 . S
C190 C185 1.399 . S
C190 C189 1.394 . S
C190 C191 1.516 . S
C191 C190 1.516 . S
C191 C192 1.502 1_455 S
C191 C193 1.561 . S
C191 C194 1.526 . S
C192 H176 0.959 . S
C192 H177 0.959 . S
C192 H178 0.961 . S
C192 C191 1.502 1_655 S
C193 H179 0.960 . S
C193 H180 0.961 . S
C193 H181 0.959 . S
C193 C191 1.561 . S
C194 C191 1.526 . S
C194 C195 1.396 . S
C194 C199 1.390 1_455 S
C195 C189 1.465 . S
C195 C194 1.396 . S
C195 C196 1.399 . S
C196 H182 0.929 . S
C196 C195 1.399 . S
C196 C197 1.385 . S
C197 H183 0.931 . S
C197 C196 1.385 . S
C197 C198 1.389 . S
C198 C197 1.389 . S
C198 C199 1.387 1_455 S
C199 H184 0.930 . S
C199 C194 1.390 1_655 S
C199 C198 1.387 1_655 S
H200 C212 0.930 . S
H201 C214 0.930 . S
H202 C215 0.930 . S
H203 C219 0.959 . S
H204 C219 0.959 . S
H205 C219 0.961 . S
H206 C220 0.960 . S
H207 C220 0.961 . S
H208 C220 0.959 . S
H209 C223 0.929 . S
H210 C224 0.931 . S
H211 C226 0.930 . S
C212 H200 0.930 . S
C212 C213 1.399 . S
C212 C217 1.399 . S
C213 C212 1.399 . S
C213 C214 1.376 . S
C214 H201 0.930 . S
C214 C213 1.376 . S
C214 C215 1.388 . S
C215 H202 0.930 . S
C215 C214 1.388 . S
C215 C216 1.390 . S
C216 C215 1.390 . S
C216 C217 1.394 . S
C216 C222 1.465 . S
C217 C212 1.399 . S
C217 C216 1.394 . S
C217 C218 1.516 . S
C218 C217 1.516 . S
C218 C219 1.502 . S
C218 C220 1.561 . S
C218 C221 1.526 . S
C219 H203 0.959 . S
C219 H204 0.959 . S
C219 H205 0.961 . S
C219 C218 1.502 . S
C220 H206 0.960 . S
C220 H207 0.961 . S
C220 H208 0.959 . S
C220 C218 1.561 . S
C221 C218 1.526 . S
C221 C222 1.396 . S
C221 C226 1.390 . S
C222 C216 1.465 . S
C222 C221 1.396 . S
C222 C223 1.399 . S
C223 H209 0.929 . S
C223 C222 1.399 . S
C223 C224 1.385 . S
C224 H210 0.931 . S
C224 C223 1.385 . S
C224 C225 1.389 . S
C225 C224 1.389 . S
C225 C226 1.387 . S
C226 H211 0.930 . S
C226 C221 1.390 . S
C226 C225 1.387 . S
H227 C239 0.930 . S
H228 C241 0.930 . S
H229 C242 0.930 . S
H230 C246 0.959 . S
H231 C246 0.959 . S
H232 C246 0.961 . S
H233 C247 0.960 . S
H234 C247 0.961 . S
H235 C247 0.959 . S
H236 C250 0.929 . S
H237 C251 0.931 . S
H238 C253 0.930 . S
C239 H227 0.930 . S
C239 C240 1.399 . S
C239 C244 1.399 . S
C240 C239 1.399 . S
C240 C241 1.376 . S
C241 H228 0.930 . S
C241 C240 1.376 . S
C241 C242 1.388 . S
C242 H229 0.930 . S
C242 C241 1.388 . S
C242 C243 1.390 . S
C243 C242 1.390 . S
C243 C244 1.394 . S
C243 C249 1.465 . S
C244 C239 1.399 . S
C244 C243 1.394 . S
C244 C245 1.516 . S
C245 C244 1.516 . S
C245 C246 1.502 . S
C245 C247 1.561 . S
C245 C248 1.526 . S
C246 H230 0.959 . S
C246 H231 0.959 . S
C246 H232 0.961 . S
C246 C245 1.502 . S
C247 H233 0.960 . S
C247 H234 0.961 . S
C247 H235 0.959 . S
C247 C245 1.561 . S
C248 C245 1.526 . S
C248 C249 1.396 . S
C248 C253 1.390 . S
C249 C243 1.465 . S
C249 C248 1.396 . S
C249 C250 1.399 . S
C250 H236 0.929 . S
C250 C249 1.399 . S
C250 C251 1.385 . S
C251 H237 0.931 . S
C251 C250 1.385 . S
C251 C252 1.389 . S
C252 C251 1.389 . S
C252 C253 1.387 . S
C253 H238 0.930 . S
C253 C248 1.390 . S
C253 C252 1.387 . S
H254 C266 0.930 . S
H255 C268 0.930 . S
H256 C269 0.930 . S
H257 C273 0.959 . S
H258 C273 0.959 . S
H259 C273 0.961 . S
H260 C274 0.960 . S
H261 C274 0.961 . S
H262 C274 0.959 . S
H263 C277 0.929 . S
H264 C278 0.931 . S
H265 C280 0.930 . S
C266 H254 0.930 . S
C266 C267 1.399 . S
C266 C271 1.399 . S
C267 C266 1.399 . S
C267 C268 1.376 . S
C268 H255 0.930 . S
C268 C267 1.376 . S
C268 C269 1.388 . S
C269 H256 0.930 . S
C269 C268 1.388 . S
C269 C270 1.390 . S
C270 C269 1.390 . S
C270 C271 1.394 . S
C270 C276 1.465 . S
C271 C266 1.399 . S
C271 C270 1.394 . S
C271 C272 1.516 . S
C272 C271 1.516 . S
C272 C273 1.502 . S
C272 C274 1.561 . S
C272 C275 1.526 . S
C273 H257 0.959 . S
C273 H258 0.959 . S
C273 H259 0.961 . S
C273 C272 1.502 . S
C274 H260 0.960 . S
C274 H261 0.961 . S
C274 H262 0.959 . S
C274 C272 1.561 . S
C275 C272 1.526 . S
C275 C276 1.396 . S
C275 C280 1.390 . S
C276 C270 1.465 . S
C276 C275 1.396 . S
C276 C277 1.399 . S
C277 H263 0.929 . S
C277 C276 1.399 . S
C277 C278 1.385 . S
C278 H264 0.931 . S
C278 C277 1.385 . S
C278 C279 1.389 . S
C279 C278 1.389 . S
C279 C280 1.387 . S
C280 H265 0.930 . S
C280 C275 1.390 . S
C280 C279 1.387 . S
H281 C293 0.930 . S
H282 C295 0.930 . S
H283 C296 0.930 . S
H284 C300 0.959 . S
H285 C300 0.959 . S
H286 C300 0.961 . S
H287 C301 0.960 . S
H288 C301 0.961 . S
H289 C301 0.959 . S
H290 C304 0.929 . S
H291 C305 0.931 . S
H292 C307 0.930 . S
C293 H281 0.930 . S
C293 C294 1.399 . S
C293 C298 1.399 . S
C294 C293 1.399 . S
C294 C295 1.376 . S
C295 H282 0.930 . S
C295 C294 1.376 . S
C295 C296 1.388 . S
C296 H283 0.930 . S
C296 C295 1.388 . S
C296 C297 1.390 . S
C297 C296 1.390 . S
C297 C298 1.394 . S
C297 C303 1.465 . S
C298 C293 1.399 . S
C298 C297 1.394 . S
C298 C299 1.516 . S
C299 C298 1.516 . S
C299 C300 1.502 . S
C299 C301 1.561 . S
C299 C302 1.526 . S
C300 H284 0.959 . S
C300 H285 0.959 . S
C300 H286 0.961 . S
C300 C299 1.502 . S
C301 H287 0.960 . S
C301 H288 0.961 . S
C301 H289 0.959 . S
C301 C299 1.561 . S
C302 C299 1.526 . S
C302 C303 1.396 . S
C302 C307 1.390 . S
C303 C297 1.465 . S
C303 C302 1.396 . S
C303 C304 1.399 . S
C304 H290 0.929 . S
C304 C303 1.399 . S
C304 C305 1.385 . S
C305 H291 0.931 . S
C305 C304 1.385 . S
C305 C306 1.389 . S
C306 C305 1.389 . S
C306 C307 1.387 . S
C307 H292 0.930 . S
C307 C302 1.390 . S
C307 C306 1.387 . S
H308 C320 0.930 . S
H309 C322 0.930 . S
H310 C323 0.930 . S
H311 C327 0.959 . S
H312 C327 0.959 . S
H313 C327 0.961 . S
H314 C328 0.960 . S
H315 C328 0.961 . S
H316 C328 0.959 . S
H317 C331 0.929 . S
H318 C332 0.931 . S
H319 C334 0.930 . S
C320 H308 0.930 . S
C320 C321 1.399 . S
C320 C325 1.399 . S
C321 C320 1.399 . S
C321 C322 1.376 . S
C322 H309 0.930 . S
C322 C321 1.376 . S
C322 C323 1.388 . S
C323 H310 0.930 . S
C323 C322 1.388 . S
C323 C324 1.390 . S
C324 C323 1.390 . S
C324 C325 1.394 . S
C324 C330 1.465 . S
C325 C320 1.399 . S
C325 C324 1.394 . S
C325 C326 1.516 . S
C326 C325 1.516 . S
C326 C327 1.502 . S
C326 C328 1.561 . S
C326 C329 1.526 . S
C327 H311 0.959 . S
C327 H312 0.959 . S
C327 H313 0.961 . S
C327 C326 1.502 . S
C328 H314 0.960 . S
C328 H315 0.961 . S
C328 H316 0.959 . S
C328 C326 1.561 . S
C329 C326 1.526 . S
C329 C330 1.396 . S
C329 C334 1.390 . S
C330 C324 1.465 . S
C330 C329 1.396 . S
C330 C331 1.399 . S
C331 H317 0.929 . S
C331 C330 1.399 . S
C331 C332 1.385 . S
C332 H318 0.931 . S
C332 C331 1.385 . S
C332 C333 1.389 . S
C333 C332 1.389 . S
C333 C334 1.387 . S
C334 H319 0.930 . S
C334 C329 1.390 . S
C334 C333 1.387 . S
H335 C347 0.930 . S
H336 C349 0.930 . S
H337 C350 0.930 . S
H338 C354 0.959 . S
H339 C354 0.959 . S
H340 C354 0.947 1_545 S
H341 C355 0.980 . S
H342 C355 0.961 . S
H343 C355 0.959 . S
H344 C358 0.929 . S
H345 C359 0.931 . S
H346 C361 0.930 . S
C347 H335 0.930 . S
C347 C348 1.399 . S
C347 C352 1.399 . S
C348 C347 1.399 . S
C348 C349 1.376 . S
C349 H336 0.930 . S
C349 C348 1.376 . S
C349 C350 1.388 . S
C350 H337 0.930 . S
C350 C349 1.388 . S
C350 C351 1.390 . S
C351 C350 1.390 . S
C351 C352 1.394 . S
C351 C357 1.465 . S
C352 C347 1.399 . S
C352 C351 1.394 . S
C352 C353 1.516 . S
C353 C352 1.516 . S
C353 C354 1.502 . S
C353 C355 1.561 . S
C353 C356 1.526 . S
C354 H338 0.959 . S
C354 H339 0.959 . S
C354 H340 0.947 1_565 S
C354 C353 1.502 . S
C355 H341 0.980 . S
C355 H342 0.961 . S
C355 H343 0.959 . S
C355 C353 1.561 . S
C356 C353 1.526 . S
C356 C357 1.396 . S
C356 C361 1.390 . S
C357 C351 1.465 . S
C357 C356 1.396 . S
C357 C358 1.399 . S
C358 H344 0.929 . S
C358 C357 1.399 . S
C358 C359 1.385 . S
C359 H345 0.931 . S
C359 C358 1.385 . S
C359 C360 1.389 . S
C360 C359 1.389 . S
C360 C361 1.387 . S
C361 H346 0.930 . S
C361 C356 1.390 . S
C361 C360 1.387 . S
H362 C374 0.930 . S
H363 C376 0.930 . S
H364 C377 0.930 . S
H365 C381 0.959 . S
H366 C381 0.959 . S
H367 C381 0.961 . S
H368 C382 0.960 . S
H369 C382 0.961 . S
H370 C382 0.959 . S
H371 C385 0.929 . S
H372 C386 0.931 . S
H373 C388 0.930 . S
C374 H362 0.930 . S
C374 C375 1.399 . S
C374 C379 1.399 . S
C375 C374 1.399 . S
C375 C376 1.376 . S
C376 H363 0.930 . S
C376 C375 1.376 . S
C376 C377 1.388 . S
C377 H364 0.930 . S
C377 C376 1.388 . S
C377 C378 1.390 . S
C378 C377 1.390 . S
C378 C379 1.394 . S
C378 C384 1.465 . S
C379 C374 1.399 . S
C379 C378 1.394 . S
C379 C380 1.516 . S
C380 C379 1.516 . S
C380 C381 1.502 . S
C380 C382 1.561 . S
C380 C383 1.526 . S
C381 H365 0.959 . S
C381 H366 0.959 . S
C381 H367 0.961 . S
C381 C380 1.502 . S
C382 H368 0.960 . S
C382 H369 0.961 . S
C382 H370 0.959 . S
C382 C380 1.561 . S
C383 C380 1.526 . S
C383 C384 1.396 . S
C383 C388 1.390 . S
C384 C378 1.465 . S
C384 C383 1.396 . S
C384 C385 1.399 . S
C385 H371 0.929 . S
C385 C384 1.399 . S
C385 C386 1.385 . S
C386 H372 0.931 . S
C386 C385 1.385 . S
C386 C387 1.389 . S
C387 C386 1.389 . S
C387 C388 1.387 . S
C388 H373 0.930 . S
C388 C383 1.390 . S
C388 C387 1.387 . S
H389 C401 0.930 . S
H390 C403 0.930 . S
H391 C404 0.930 . S
H392 C408 0.959 . S
H393 C408 0.959 . S
H394 C408 0.961 . S
H395 C409 0.960 . S
H396 C409 0.961 . S
H397 C409 0.959 . S
H398 C412 0.929 . S
H399 C413 0.931 . S
H400 C415 0.930 . S
C401 H389 0.930 . S
C401 C402 1.399 . S
C401 C406 1.399 . S
C402 C401 1.399 . S
C402 C403 1.376 . S
C403 H390 0.930 . S
C403 C402 1.376 . S
C403 C404 1.388 . S
C404 H391 0.930 . S
C404 C403 1.388 . S
C404 C405 1.390 . S
C405 C404 1.390 . S
C405 C406 1.394 . S
C405 C411 1.465 . S
C406 C401 1.399 . S
C406 C405 1.394 . S
C406 C407 1.516 . S
C407 C406 1.516 . S
C407 C408 1.502 . S
C407 C409 1.561 . S
C407 C410 1.526 . S
C408 H392 0.959 . S
C408 H393 0.959 . S
C408 H394 0.961 . S
C408 C407 1.502 . S
C409 H395 0.960 . S
C409 H396 0.961 . S
C409 H397 0.959 . S
C409 C407 1.561 . S
C410 C407 1.526 . S
C410 C411 1.396 . S
C410 C415 1.390 . S
C411 C405 1.465 . S
C411 C410 1.396 . S
C411 C412 1.399 . S
C412 H398 0.929 . S
C412 C411 1.399 . S
C412 C413 1.385 . S
C413 H399 0.931 . S
C413 C412 1.385 . S
C413 C414 1.389 . S
C414 C413 1.389 . S
C414 C415 1.387 . S
C415 H400 0.930 . S
C415 C410 1.390 . S
C415 C414 1.387 . S
C105 C62 0.383 1_565 S
C117 C16 0.451 . S
C132 C85 0.382 1_655 S
C144 C39 0.453 . S
C159 C63 0.799 1_546 S
C171 C17 0.823 1_556 S
C186 C40 0.839 . S
C198 C86 0.803 1_455 S
C213 C43 1.490 . S
C225 C20 1.494 . S
C240 C42 1.580 . S
C252 C65 1.591 . S
C267 C89 1.572 . S
C279 C66 1.579 . S
C294 C88 1.651 . S
C306 C19 1.652 . S
C321 C64 1.127 . S
C333 C87 1.126 . S
C348 C21 1.172 . S
C360 C90 1.149 . S
C375 C41 1.124 . S
C387 C18 1.125 . S
C402 C67 1.169 . S
C414 C44 1.145 . S
