# Generated by pormake.
# Topology uoj, (4)-cn, num edge types: 1
# Building blocks:
#     Node 0, Type 0, BuildingBlock: ESEHIV_clean_sbu_0, # of connection points: 4
#     Node 1, Type 0, BuildingBlock: ESEHIV_clean_sbu_0, # of connection points: 4
#     Node 2, Type 0, BuildingBlock: ESEHIV_clean_sbu_0, # of connection points: 4
#     Node 3, Type 0, BuildingBlock: ESEHIV_clean_sbu_0, # of connection points: 4
#     Node 4, Type 0, BuildingBlock: ESEHIV_clean_sbu_0, # of connection points: 4
#     Node 5, Type 0, BuildingBlock: ESEHIV_clean_sbu_0, # of connection points: 4
#     Node 6, Type 0, BuildingBlock: ESEHIV_clean_sbu_0, # of connection points: 4
#     Node 7, Type 0, BuildingBlock: ESEHIV_clean_sbu_0, # of connection points: 4
#     Edge 8, Type (0, 0), BuildingBlock: TEMPAE_clean_linker_10, # of connection points: 2
#     Edge 9, Type (0, 0), BuildingBlock: TEMPAE_clean_linker_10, # of connection points: 2
#     Edge 10, Type (0, 0), BuildingBlock: TEMPAE_clean_linker_10, # of connection points: 2
#     Edge 11, Type (0, 0), BuildingBlock: TEMPAE_clean_linker_10, # of connection points: 2
#     Edge 12, Type (0, 0), BuildingBlock: TEMPAE_clean_linker_10, # of connection points: 2
#     Edge 13, Type (0, 0), BuildingBlock: TEMPAE_clean_linker_10, # of connection points: 2
#     Edge 14, Type (0, 0), BuildingBlock: TEMPAE_clean_linker_10, # of connection points: 2
#     Edge 15, Type (0, 0), BuildingBlock: TEMPAE_clean_linker_10, # of connection points: 2
#     Edge 16, Type (0, 0), BuildingBlock: TEMPAE_clean_linker_10, # of connection points: 2
#     Edge 17, Type (0, 0), BuildingBlock: TEMPAE_clean_linker_10, # of connection points: 2
#     Edge 18, Type (0, 0), BuildingBlock: TEMPAE_clean_linker_10, # of connection points: 2
#     Edge 19, Type (0, 0), BuildingBlock: TEMPAE_clean_linker_10, # of connection points: 2
#     Edge 20, Type (0, 0), BuildingBlock: TEMPAE_clean_linker_10, # of connection points: 2
#     Edge 21, Type (0, 0), BuildingBlock: TEMPAE_clean_linker_10, # of connection points: 2
#     Edge 22, Type (0, 0), BuildingBlock: TEMPAE_clean_linker_10, # of connection points: 2
#     Edge 23, Type (0, 0), BuildingBlock: TEMPAE_clean_linker_10, # of connection points: 2
# Relax obj value: 0.035
# Max RMSD: 0.223
# Mean RMSD: 0.223
data_MOF--net-uoj--node1-ESEHIV_clean_sbu_0--edge1-TEMPAE_clean_linker_10
_symmetry_space_group_name_H-M    P1
_symmetry_Int_Tables_number       1
_symmetry_cell_setting            triclinic
loop_
_symmetry_equiv_pos_as_xyz
'x, y, z'
_cell_length_a     35.241763
_cell_length_b     35.238072
_cell_length_c     45.498446
_cell_angle_alpha  90.088117
_cell_angle_beta   89.95394
_cell_angle_gamma 90.132947
loop_
_atom_site_label
_atom_site_type_symbol
_atom_site_fract_x
_atom_site_fract_y
_atom_site_fract_z
_atom_type_partial_charge
Cu0 Cu 0.03607 0.30535 0.43199 0.0
N1 N 0.98755 0.28414 0.4314 0.0
N2 N 0.93628 0.25025 0.44383 0.0
C3 C 0.97292 0.25835 0.45011 0.0
C4 C 0.92774 0.27175 0.4202 0.0
C5 C 0.95942 0.29256 0.41259 0.0
O6 O 0.06655 0.27679 0.4599 0.0
C7 C 0.05924 0.38149 0.44345 0.0
O8 O 0.09335 0.36899 0.43706 0.0
H9 H 0.98859 0.24646 0.46834 0.0
H10 H 0.96178 0.31264 0.39472 0.0
N11 N 0.05729 0.30136 0.3944 0.0
N12 N 0.08573 0.31551 0.3518 0.0
C13 C 0.06929 0.32935 0.37644 0.0
C14 C 0.06592 0.2688 0.38051 0.0
C15 C 0.0835 0.27739 0.35429 0.0
C16 C 0.10239 0.27343 0.45761 0.0
O17 O 0.12023 0.29131 0.43637 0.0
H18 H 0.0671 0.35919 0.38173 0.0
H19 H 0.06047 0.24076 0.3892 0.0
O20 O 0.0314 0.35844 0.44324 0.0
H21 H 0.90062 0.27224 0.40906 0.0
H22 H 0.09399 0.25709 0.33838 0.0
Cu23 Cu 0.30465 0.99474 0.60283 0.0
N24 N 0.28625 0.04418 0.59942 0.0
N25 N 0.25506 0.0956 0.58382 0.0
C26 C 0.25927 0.05756 0.58122 0.0
C27 C 0.28033 0.10627 0.60458 0.0
C28 C 0.29944 0.07457 0.61412 0.0
O29 O 0.2754 0.95993 0.57851 0.0
C30 C 0.37428 1.01568 0.57484 0.0
O31 O 0.3531 0.03733 0.5581 0.0
H32 H 0.24324 0.03976 0.56634 0.0
H33 H 0.32204 0.07374 0.63017 0.0
N34 N 0.29971 0.97902 0.64172 0.0
N35 N 0.3134 0.95326 0.68529 0.0
C36 C 0.32683 0.96328 0.65858 0.0
C37 C 0.26809 0.97917 0.65827 0.0
C38 C 0.27641 0.96323 0.68517 0.0
C39 C 0.27222 0.96231 0.55071 0.0
O40 O 0.29067 0.98913 0.53663 0.0
H41 H 0.35554 0.95829 0.65106 0.0
H42 H 0.24082 0.98968 0.6511 0.0
O43 O 0.35857 0.9944 0.5939 0.0
H44 H 0.28563 0.13509 0.61174 0.0
H45 H 0.25678 0.95933 0.70323 0.0
Cu46 Cu 0.99666 0.73338 0.42351 0.0
N47 N 0.04623 0.75186 0.42688 0.0
N48 N 0.09785 0.78375 0.44159 0.0
C49 C 0.05989 0.77933 0.44465 0.0
C50 C 0.1082 0.75821 0.42093 0.0
C51 C 0.07637 0.73868 0.41194 0.0
O52 O 0.96175 0.76299 0.44746 0.0
C53 C 1.01667 0.66421 0.45244 0.0
O54 O 0.03852 0.68558 0.46902 0.0
H55 H 0.0425 0.79518 0.45991 0.0
H56 H 0.07522 0.71617 0.39577 0.0
N57 N 0.98143 0.7373 0.38439 0.0
N58 N 0.95635 0.72252 0.34069 0.0
C59 C 0.964 0.71037 0.36823 0.0
C60 C 0.98512 0.76748 0.36658 0.0
C61 C 0.96963 0.75849 0.33961 0.0
C62 C 0.96465 0.7669 0.47518 0.0
O63 O 0.992 0.74925 0.48916 0.0
H64 H 0.95647 0.68268 0.37672 0.0
H65 H 0.99813 0.79413 0.37282 0.0
O66 O 0.99582 0.67967 0.43305 0.0
H67 H 0.13671 0.75404 0.4127 0.0
H68 H 0.96859 0.77692 0.32062 0.0
Cu69 Cu 0.73098 0.03699 0.60364 0.0
N70 N 0.75317 0.98897 0.60156 0.0
N71 N 0.78692 0.93865 0.5869 0.0
C72 C 0.77895 0.97569 0.58219 0.0
C73 C 0.76549 0.9285 0.61023 0.0
C74 C 0.74479 0.95953 0.61918 0.0
O75 O 0.75981 0.07294 0.58016 0.0
C76 C 0.65634 0.06078 0.58931 0.0
O77 O 0.66909 0.09475 0.59611 0.0
H78 H 0.79093 0.99256 0.56463 0.0
H79 H 0.72471 0.96058 0.63715 0.0
N80 N 0.73204 0.05342 0.64274 0.0
N81 N 0.71569 0.07813 0.68629 0.0
C82 C 0.70343 0.06683 0.65949 0.0
C83 C 0.76328 0.05592 0.65957 0.0
C84 C 0.75335 0.07116 0.68638 0.0
C85 C 0.76213 0.07119 0.55229 0.0
O86 O 0.74343 0.04448 0.53821 0.0
H87 H 0.67445 0.06927 0.65194 0.0
H88 H 0.79144 0.04772 0.6526 0.0
O89 O 0.67881 0.03264 0.59039 0.0
H90 H 0.76492 0.90067 0.62025 0.0
H91 H 0.77245 0.07673 0.70451 0.0
Cu92 Cu 0.49228 0.80554 0.92875 0.0
N93 N 0.54163 0.78671 0.93155 0.0
N94 N 0.59317 0.75548 0.94687 0.0
C95 C 0.55528 0.76021 0.95004 0.0
C96 C 0.60347 0.77991 0.92542 0.0
C97 C 0.57168 0.79906 0.91607 0.0
O98 O 0.45777 0.77641 0.95338 0.0
C99 C 0.51438 0.875 0.95656 0.0
O100 O 0.53651 0.85367 0.97281 0.0
H101 H 0.53777 0.7449 0.96556 0.0
H102 H 0.57061 0.82113 0.89959 0.0
N103 N 0.47563 0.8008 0.89006 0.0
N104 N 0.4501 0.81537 0.84647 0.0
C105 C 0.46232 0.82871 0.87273 0.0
C106 C 0.47195 0.76868 0.87438 0.0
C107 C 0.45625 0.77752 0.84752 0.0
C108 C 0.46031 0.77344 0.98117 0.0
O109 O 0.48716 0.79207 0.99512 0.0
H110 H 0.46142 0.85813 0.8795 0.0
H111 H 0.47931 0.7407 0.88226 0.0
O112 O 0.49244 0.85943 0.93787 0.0
H113 H 0.63212 0.78464 0.91766 0.0
H114 H 0.44882 0.75731 0.83054 0.0
Cu115 Cu 0.80399 0.53843 0.09944 0.0
N116 N 0.78297 0.48983 0.10037 0.0
N117 N 0.74907 0.43839 0.08831 0.0
C118 C 0.75705 0.475 0.08184 0.0
C119 C 0.77081 0.43007 0.11186 0.0
C120 C 0.79162 0.46185 0.11925 0.0
O121 O 0.7751 0.56848 0.07146 0.0
C122 C 0.88042 0.56151 0.08934 0.0
O123 O 0.86824 0.59515 0.0974 0.0
H124 H 0.74497 0.49052 0.06361 0.0
H125 H 0.81185 0.46439 0.13701 0.0
N126 N 0.80023 0.56007 0.13692 0.0
N127 N 0.81531 0.58706 0.17996 0.0
C128 C 0.82844 0.56915 0.15568 0.0
C129 C 0.76816 0.57214 0.14986 0.0
C130 C 0.77731 0.58881 0.17634 0.0
C131 C 0.77259 0.60447 0.07296 0.0
O132 O 0.79157 0.62274 0.09341 0.0
H133 H 0.858 0.56301 0.15146 0.0
H134 H 0.74018 0.56996 0.14024 0.0
O135 O 0.85705 0.53396 0.08802 0.0
H136 H 0.77145 0.40303 0.1231 0.0
H137 H 0.75756 0.60245 0.19117 0.0
Cu138 Cu 0.53595 0.232 0.92907 0.0
N139 N 0.48787 0.25411 0.93087 0.0
N140 N 0.43747 0.28794 0.94521 0.0
C141 C 0.47447 0.27999 0.95011 0.0
C142 C 0.42746 0.26637 0.92191 0.0
C143 C 0.45855 0.24562 0.91315 0.0
O144 O 0.57168 0.26101 0.95264 0.0
C145 C 0.55973 0.15708 0.94221 0.0
O146 O 0.59329 0.1696 0.9341 0.0
H147 H 0.49123 0.29208 0.9677 0.0
H148 H 0.45971 0.22544 0.89523 0.0
N149 N 0.55278 0.23293 0.89009 0.0
N150 N 0.57606 0.21569 0.84624 0.0
C151 C 0.56306 0.2037 0.87266 0.0
C152 C 0.55917 0.26439 0.87417 0.0
C153 C 0.57349 0.25393 0.84719 0.0
C154 C 0.56987 0.26349 0.9805 0.0
O155 O 0.54314 0.24485 0.99459 0.0
H156 H 0.56126 0.1743 0.87929 0.0
H157 H 0.55457 0.29302 0.88199 0.0
O158 O 0.53177 0.17983 0.94239 0.0
H159 H 0.3997 0.26574 0.91177 0.0
H160 H 0.58262 0.27318 0.83007 0.0
Cu161 Cu 0.2321 0.49769 0.10842 0.0
N162 N 0.2508 0.54722 0.10541 0.0
N163 N 0.28277 0.59888 0.09092 0.0
C164 C 0.27812 0.56098 0.08756 0.0
C165 C 0.25754 0.60909 0.11183 0.0
C166 C 0.23796 0.57724 0.12069 0.0
O167 O 0.26165 0.46292 0.08432 0.0
C168 C 0.16302 0.51849 0.07965 0.0
O169 O 0.18445 0.54081 0.06352 0.0
H170 H 0.29367 0.54372 0.07203 0.0
H171 H 0.21564 0.576 0.13699 0.0
N172 N 0.2359 0.48198 0.14742 0.0
N173 N 0.22066 0.45713 0.19113 0.0
C174 C 0.20836 0.46599 0.16383 0.0
C175 C 0.26669 0.48344 0.16478 0.0
C176 C 0.25742 0.46815 0.19173 0.0
C177 C 0.26548 0.46584 0.0566 0.0
O178 O 0.24776 0.49318 0.04267 0.0
H179 H 0.17985 0.46115 0.15583 0.0
H180 H 0.29406 0.49446 0.15814 0.0
O181 O 0.17841 0.49709 0.09871 0.0
H182 H 0.2536 0.63752 0.12031 0.0
H183 H 0.27663 0.46465 0.21006 0.0
C184 C 0.21081 0.44256 0.24385 0.0
C185 C 0.19952 0.43868 0.21439 0.0
C186 C 0.19146 0.42366 0.26656 0.0
C187 C 0.15983 0.40042 0.25978 0.0
C188 C 0.14775 0.39696 0.23022 0.0
C189 C 0.16777 0.416 0.20792 0.0
C190 C 0.20525 0.42813 0.2978 0.0
C191 C 0.11411 0.37252 0.22207 0.0
C192 C 0.13435 0.32104 0.31285 0.0
C193 C 0.10394 0.33679 0.32858 0.0
C194 C 0.15272 0.34143 0.29047 0.0
C195 C 0.14034 0.37853 0.28346 0.0
C196 C 0.10958 0.39461 0.29917 0.0
C197 C 0.09183 0.3736 0.32159 0.0
C198 C 0.18563 0.32336 0.27446 0.0
C199 C 0.09535 0.43396 0.29222 0.0
H200 H 0.2348 0.46047 0.24925 0.0
H201 H 0.15895 0.41233 0.18532 0.0
H202 H 0.18194 0.43871 0.31199 0.0
H203 H 0.21401 0.40013 0.30659 0.0
H204 H 0.22966 0.44801 0.29952 0.0
H205 H 0.10708 0.37439 0.19832 0.0
H206 H 0.12014 0.34245 0.22751 0.0
H207 H 0.08884 0.38109 0.23502 0.0
H208 H 0.14434 0.29292 0.31841 0.0
H209 H 0.06813 0.38582 0.3334 0.0
H210 H 0.21152 0.34096 0.27728 0.0
H211 H 0.17954 0.32194 0.25057 0.0
H212 H 0.19169 0.29423 0.28247 0.0
H213 H 0.11856 0.45495 0.29513 0.0
H214 H 0.0711 0.44236 0.3064 0.0
H215 H 0.08626 0.43539 0.2689 0.0
C216 C 0.3729 0.94069 0.7123 0.0
C217 C 0.33385 0.93448 0.70856 0.0
C218 C 0.39318 0.92233 0.73473 0.0
C219 C 0.37404 0.89685 0.75372 0.0
C220 C 0.33465 0.89043 0.75002 0.0
C221 C 0.31503 0.90943 0.72759 0.0
C222 C 0.43506 0.93029 0.73816 0.0
C223 C 0.31326 0.86317 0.76957 0.0
C224 C 0.43061 0.82155 0.79435 0.0
C225 C 0.43235 0.83655 0.82295 0.0
C226 C 0.41207 0.841 0.77159 0.0
C227 C 0.39516 0.87664 0.77736 0.0
C228 C 0.39749 0.89242 0.80593 0.0
C229 C 0.41582 0.87216 0.82836 0.0
C230 C 0.41011 0.82313 0.74143 0.0
C231 C 0.38006 0.93049 0.81293 0.0
H232 H 0.3875 0.96034 0.6979 0.0
H233 H 0.28502 0.90408 0.72457 0.0
H234 H 0.44084 0.94151 0.76052 0.0
H235 H 0.4514 0.9036 0.73575 0.0
H236 H 0.44567 0.95109 0.72175 0.0
H237 H 0.28267 0.86136 0.76384 0.0
H238 H 0.3258 0.83441 0.76778 0.0
H239 H 0.3158 0.87215 0.79287 0.0
H240 H 0.44376 0.79451 0.78962 0.0
H241 H 0.41643 0.88403 0.85029 0.0
H242 H 0.42281 0.84245 0.72488 0.0
H243 H 0.38004 0.81856 0.73512 0.0
H244 H 0.42511 0.79546 0.74042 0.0
H245 H 0.39099 0.95237 0.79757 0.0
H246 H 0.38607 0.93978 0.8358 0.0
H247 H 0.34885 0.92903 0.80992 0.0
C248 C 0.93936 0.66202 0.31623 0.0
C249 C 0.93735 0.70177 0.31754 0.0
C250 C 0.92071 0.64153 0.29395 0.0
C251 C 0.89935 0.66122 0.2725 0.0
C252 C 0.89732 0.70133 0.27364 0.0
C253 C 0.91637 0.72107 0.29607 0.0
C254 C 0.92381 0.59881 0.29339 0.0
C255 C 0.87463 0.7234 0.25134 0.0
C256 C 0.87512 0.61458 0.1993 0.0
C257 C 0.8372 0.60358 0.20367 0.0
C258 C 0.89596 0.63257 0.22169 0.0
C259 C 0.87849 0.63997 0.24914 0.0
C260 C 0.84052 0.62828 0.25392 0.0
C261 C 0.82043 0.61017 0.23121 0.0
C262 C 0.93643 0.64446 0.21573 0.0
C263 C 0.82084 0.63557 0.28288 0.0
H264 H 0.95591 0.6469 0.33245 0.0
H265 H 0.91421 0.75169 0.29711 0.0
H266 H 0.89519 0.58587 0.29533 0.0
H267 H 0.93591 0.58938 0.27208 0.0
H268 H 0.94189 0.58779 0.31144 0.0
H269 H 0.87636 0.75453 0.255 0.0
H270 H 0.88497 0.71705 0.22883 0.0
H271 H 0.84439 0.71466 0.25233 0.0
H272 H 0.88832 0.61011 0.17809 0.0
H273 H 0.79144 0.60124 0.23505 0.0
H274 H 0.95552 0.63286 0.23287 0.0
H275 H 0.93875 0.67584 0.2167 0.0
H276 H 0.94659 0.63474 0.19386 0.0
H277 H 0.83732 0.62285 0.30113 0.0
H278 H 0.79159 0.62377 0.28338 0.0
H279 H 0.81934 0.66656 0.28705 0.0
C280 C 0.60841 0.15752 0.82854 0.0
C281 C 0.59214 0.19309 0.82275 0.0
C282 C 0.62654 0.13663 0.80624 0.0
C283 C 0.62869 0.15168 0.77744 0.0
C284 C 0.61135 0.18697 0.77123 0.0
C285 C 0.59322 0.20711 0.79388 0.0
C286 C 0.6445 0.09902 0.81375 0.0
C287 C 0.61293 0.20403 0.74083 0.0
C288 C 0.71107 0.12188 0.72863 0.0
C289 C 0.69381 0.09595 0.70936 0.0
C290 C 0.69025 0.13993 0.75092 0.0
C291 C 0.65111 0.13181 0.75423 0.0
C292 C 0.63349 0.10547 0.73501 0.0
C293 C 0.65501 0.08797 0.71274 0.0
C294 C 0.7101 0.16811 0.77072 0.0
C295 C 0.59191 0.09583 0.73796 0.0
H296 H 0.60811 0.14646 0.85072 0.0
H297 H 0.58013 0.23412 0.78897 0.0
H298 H 0.63483 0.07676 0.79818 0.0
H299 H 0.67578 0.10127 0.81157 0.0
H300 H 0.63767 0.08978 0.83649 0.0
H301 H 0.59644 0.23078 0.73924 0.0
H302 H 0.64284 0.21013 0.73482 0.0
H303 H 0.60173 0.18359 0.7244 0.0
H304 H 0.74083 0.12872 0.72591 0.0
H305 H 0.64155 0.06769 0.69817 0.0
H306 H 0.70711 0.15934 0.79401 0.0
H307 H 0.69668 0.19642 0.76854 0.0
H308 H 0.74079 0.17088 0.76553 0.0
H309 H 0.58601 0.0848 0.76033 0.0
H310 H 0.58259 0.07432 0.72159 0.0
H311 H 0.57455 0.12178 0.73507 0.0
C312 C 0.21791 0.10929 0.53885 0.0
C313 C 0.23058 0.12017 0.56689 0.0
C314 C 0.19564 0.13373 0.52166 0.0
C315 C 0.18594 0.17007 0.53262 0.0
C316 C 0.19802 0.18099 0.56107 0.0
C317 C 0.22002 0.1559 0.57786 0.0
C318 C 0.18318 0.12095 0.49147 0.0
C319 C 0.18829 0.21948 0.57357 0.0
C320 C 0.16342 0.24704 0.47685 0.0
C321 C 0.12364 0.24796 0.47765 0.0
C322 C 0.18399 0.22209 0.4948 0.0
C323 C 0.16434 0.19719 0.51392 0.0
C324 C 0.12419 0.19811 0.51501 0.0
C325 C 0.10432 0.22358 0.49695 0.0
C326 C 0.2268 0.22223 0.49317 0.0
C327 C 0.1022 0.17186 0.53498 0.0
H328 H 0.22616 0.08204 0.52995 0.0
H329 H 0.229 0.16439 0.59964 0.0
H330 H 0.15194 0.12352 0.48933 0.0
H331 H 0.19613 0.13952 0.47452 0.0
H332 H 0.19136 0.09112 0.48677 0.0
H333 H 0.19899 0.22328 0.59635 0.0
H334 H 0.20068 0.24206 0.55953 0.0
H335 H 0.15709 0.22355 0.57362 0.0
H336 H 0.17862 0.26581 0.46208 0.0
H337 H 0.07358 0.22395 0.49765 0.0
H338 H 0.23711 0.19389 0.48618 0.0
H339 H 0.23894 0.22803 0.51522 0.0
H340 H 0.23781 0.24381 0.47755 0.0
H341 H 0.10848 0.14191 0.52924 0.0
H342 H 0.07107 0.17634 0.53345 0.0
H343 H 0.1111 0.1762 0.55812 0.0
C344 C 0.22635 0.90774 0.54977 0.0
C345 C 0.24663 0.93593 0.5346 0.0
C346 C 0.20155 0.88301 0.53494 0.0
C347 C 0.19683 0.88648 0.50416 0.0
C348 C 0.21717 0.91486 0.48871 0.0
C349 C 0.24181 0.93922 0.5041 0.0
C350 C 0.18042 0.85311 0.55222 0.0
C351 C 0.21296 0.91945 0.45588 0.0
C352 C 0.16094 0.80069 0.46152 0.0
C353 C 0.12247 0.8095 0.45743 0.0
C354 C 0.18538 0.82545 0.47664 0.0
C355 C 0.1711 0.85997 0.48806 0.0
C356 C 0.13229 0.86904 0.48414 0.0
C357 C 0.10846 0.84371 0.46891 0.0
C358 C 0.22651 0.81459 0.48047 0.0
C359 C 0.11598 0.90561 0.49595 0.0
H360 H 0.22978 0.90496 0.57334 0.0
H361 H 0.25724 0.96093 0.49217 0.0
H362 H 0.14939 0.85672 0.54927 0.0
H363 H 0.18781 0.82447 0.54387 0.0
H364 H 0.18697 0.85433 0.57608 0.0
H365 H 0.23043 0.94318 0.44716 0.0
H366 H 0.22148 0.89287 0.44458 0.0
H367 H 0.18281 0.92475 0.45027 0.0
H368 H 0.17195 0.77409 0.45323 0.0
H369 H 0.07894 0.85101 0.4656 0.0
H370 H 0.23355 0.81306 0.5042 0.0
H371 H 0.2451 0.8366 0.47061 0.0
H372 H 0.23322 0.7868 0.47016 0.0
H373 H 0.12024 0.90719 0.52007 0.0
H374 H 0.08518 0.90837 0.49124 0.0
H375 H 0.13106 0.93017 0.48611 0.0
C376 C 0.80535 0.87537 0.56832 0.0
C377 C 0.81217 0.91456 0.57023 0.0
C378 C 0.82983 0.8514 0.55257 0.0
C379 C 0.8621 0.86688 0.5384 0.0
C380 C 0.86908 0.90644 0.54007 0.0
C381 C 0.84399 0.9298 0.55589 0.0
C382 C 0.82114 0.80944 0.55112 0.0
C383 C 0.90328 0.92402 0.52539 0.0
C384 C 0.94377 0.79979 0.52137 0.0
C385 C 0.93826 0.7923 0.49137 0.0
C386 C 0.91943 0.82425 0.53685 0.0
C387 C 0.88866 0.84154 0.52206 0.0
C388 C 0.88289 0.83407 0.49179 0.0
C389 C 0.90778 0.80964 0.47681 0.0
C390 C 0.92662 0.83156 0.56908 0.0
C391 C 0.85031 0.85178 0.47526 0.0
H392 H 0.78053 0.86342 0.57888 0.0
H393 H 0.84969 0.95994 0.55749 0.0
H394 H 0.8182 0.80036 0.52787 0.0
H395 H 0.84495 0.79307 0.56071 0.0
H396 H 0.79468 0.80194 0.56307 0.0
H397 H 0.90445 0.95529 0.52844 0.0
H398 H 0.92963 0.91148 0.53447 0.0
H399 H 0.90291 0.91773 0.50149 0.0
H400 H 0.96729 0.78668 0.53281 0.0
H401 H 0.90325 0.80407 0.45364 0.0
H402 H 0.90174 0.82231 0.58221 0.0
H403 H 0.93044 0.86242 0.57299 0.0
H404 H 0.95215 0.81646 0.57726 0.0
H405 H 0.82298 0.84334 0.48549 0.0
H406 H 0.84984 0.84328 0.45174 0.0
H407 H 0.85222 0.88317 0.47656 0.0
C408 C 0.79464 0.09258 0.50608 0.0
C409 C 0.78703 0.09805 0.53607 0.0
C410 C 0.81906 0.11715 0.49071 0.0
C411 C 0.83607 0.14814 0.50559 0.0
C412 C 0.82823 0.15402 0.53579 0.0
C413 C 0.80396 0.12885 0.55067 0.0
C414 C 0.82686 0.10978 0.45857 0.0
C415 C 0.84555 0.1869 0.5524 0.0
C416 C 0.92571 0.19268 0.47382 0.0
C417 C 0.91125 0.22466 0.45934 0.0
C418 C 0.90158 0.16745 0.48882 0.0
C419 C 0.86203 0.17448 0.48957 0.0
C420 C 0.84728 0.2068 0.47512 0.0
C421 C 0.87202 0.23138 0.46013 0.0
C422 C 0.91841 0.13316 0.50375 0.0
C423 C 0.80536 0.21554 0.47564 0.0
H424 H 0.78184 0.0688 0.49462 0.0
H425 H 0.79821 0.13339 0.57382 0.0
H426 H 0.81826 0.13471 0.44531 0.0
H427 H 0.85773 0.10563 0.45506 0.0
H428 H 0.81154 0.08437 0.45022 0.0
H429 H 0.83622 0.18782 0.57572 0.0
H430 H 0.87695 0.18487 0.55182 0.0
H431 H 0.83769 0.21406 0.54173 0.0
H432 H 0.95588 0.18703 0.47301 0.0
H433 H 0.86068 0.25629 0.44939 0.0
H434 H 0.9056 0.10687 0.49464 0.0
H435 H 0.91177 0.13381 0.52758 0.0
H436 H 0.94969 0.13163 0.50101 0.0
H437 H 0.78914 0.19159 0.46593 0.0
H438 H 0.79841 0.24182 0.46333 0.0
H439 H 0.79556 0.21888 0.49868 0.0
C440 C 0.34246 0.60958 0.06332 0.0
C441 C 0.30841 0.62357 0.07507 0.0
C442 C 0.36767 0.63347 0.04805 0.0
C443 C 0.35863 0.67232 0.04436 0.0
C444 C 0.32427 0.6866 0.05607 0.0
C445 C 0.29964 0.6621 0.07123 0.0
C446 C 0.40406 0.61716 0.03595 0.0
C447 C 0.31344 0.72777 0.05248 0.0
C448 C 0.43776 0.74299 0.02791 0.0
C449 C 0.43409 0.74788 0.99744 0.0
C450 C 0.41357 0.71834 0.04342 0.0
C451 C 0.38495 0.69808 0.02814 0.0
C452 C 0.38108 0.7029 0.9974 0.0
C453 C 0.40567 0.72769 0.98244 0.0
C454 C 0.41859 0.71401 0.0762 0.0
C455 C 0.35092 0.68188 0.98029 0.0
H456 H 0.34972 0.58002 0.06643 0.0
H457 H 0.27317 0.6731 0.07975 0.0
H458 H 0.40532 0.62148 1.01182 0.0
H459 H 0.42876 0.63222 0.04563 0.0
H460 H 0.40687 0.58635 0.04057 0.0
H461 H 0.28582 0.73448 0.06304 0.0
H462 H 0.33562 0.74628 0.06223 0.0
H463 H 0.31158 0.73493 0.02878 0.0
H464 H 0.45966 0.75834 0.03971 0.0
H465 H 0.40259 0.73118 0.9589 0.0
H466 H 0.42393 0.68382 0.08169 0.0
H467 H 0.39218 0.72252 0.08773 0.0
H468 H 0.44246 0.73142 0.08479 0.0
H469 H 0.35452 0.65083 0.9831 0.0
H470 H 0.3518 0.68853 0.95644 0.0
H471 H 0.32241 0.68928 0.98889 0.0
C472 C 0.74662 0.66527 0.05296 0.0
C473 C 0.74687 0.62545 0.05294 0.0
C474 C 0.72147 0.68563 0.03502 0.0
C475 C 0.69569 0.66575 0.01673 0.0
C476 C 0.69595 0.62556 0.01643 0.0
C477 C 0.72163 0.60589 0.03445 0.0
C478 C 0.72232 0.72848 0.03581 0.0
C479 C 0.66878 0.60334 0.99735 0.0
C480 C 0.60781 0.71975 0.99232 0.0
C481 C 0.61797 0.73131 0.96385 0.0
C482 C 0.63248 0.69774 1.00952 0.0
C483 C 0.66832 0.68715 0.99811 0.0
C484 C 0.67852 0.69812 0.96925 0.0
C485 C 0.65321 0.7199 0.95247 0.0
C486 C 0.62048 0.68649 0.04017 0.0
C487 C 0.71646 0.68741 0.95625 0.0
H488 H 0.76606 0.68065 0.0671 0.0
H489 H 0.72148 0.57513 0.03436 0.0
H490 H 0.72761 0.73979 1.01343 0.0
H491 H 0.69438 0.73947 0.04311 0.0
H492 H 0.74455 0.73966 0.05082 0.0
H493 H 0.67285 0.5722 0.9994 0.0
H494 H 0.63911 0.61025 1.00349 0.0
H495 H 0.67253 0.61143 0.97398 0.0
H496 H 0.58096 0.72867 1.00154 0.0
H497 H 0.66113 0.72802 0.93037 0.0
H498 H 0.6398 0.69969 0.05651 0.0
H499 H 0.62262 0.65529 0.04287 0.0
H500 H 0.59094 0.69531 0.04526 0.0
H501 H 0.73965 0.6999 0.96965 0.0
H502 H 0.71971 0.69732 0.93322 0.0
H503 H 0.72007 0.65615 0.95672 0.0
C504 C 0.73013 0.37398 0.07235 0.0
C505 C 0.72339 0.41321 0.073 0.0
C506 C 0.7055 0.34911 0.0575 0.0
C507 C 0.67313 0.36373 0.04304 0.0
C508 C 0.66606 0.40329 0.04368 0.0
C509 C 0.69133 0.42753 0.05855 0.0
C510 C 0.71427 0.30718 0.05711 0.0
C511 C 0.63171 0.41998 0.02874 0.0
C512 C 0.6275 0.30535 0.98206 0.0
C513 C 0.59671 0.28847 0.99669 0.0
C514 C 0.65267 0.3297 0.99691 0.0
C515 C 0.64681 0.33766 0.02709 0.0
C516 C 0.61583 0.32069 0.042 0.0
C517 C 0.59126 0.2962 0.02666 0.0
C518 C 0.68551 0.34697 0.98026 0.0
C519 C 0.60849 0.32862 0.07412 0.0
H520 H 0.7551 0.36273 0.08308 0.0
H521 H 0.68566 0.45771 0.05925 0.0
H522 H 0.69034 0.291 0.06683 0.0
H523 H 0.71765 0.29727 0.0341 0.0
H524 H 0.74055 0.30033 0.06946 0.0
H525 H 0.63012 0.45128 0.03143 0.0
H526 H 0.63235 0.41326 1.00491 0.0
H527 H 0.60546 0.40715 0.03788 0.0
H528 H 0.63202 0.29952 0.95893 0.0
H529 H 0.5675 0.28344 0.03814 0.0
H530 H 0.71268 0.33919 0.99096 0.0
H531 H 0.68345 0.37837 0.98077 0.0
H532 H 0.68644 0.33753 0.95697 0.0
H533 H 0.63345 0.32012 0.08739 0.0
H534 H 0.58312 0.31329 0.0825 0.0
H535 H 0.60429 0.3595 0.07757 0.0
C536 C 0.37408 0.30653 0.96346 0.0
C537 C 0.41328 0.3133 0.96171 0.0
C538 C 0.35003 0.33106 0.97909 0.0
C539 C 0.36546 0.36333 0.99333 0.0
C540 C 0.40503 0.37029 0.99181 0.0
C541 C 0.42846 0.34514 0.97609 0.0
C542 C 0.30807 0.32241 0.98039 0.0
C543 C 0.42257 0.40448 1.00656 0.0
C544 C 0.29839 0.44503 1.0104 0.0
C545 C 0.29085 0.43946 0.04038 0.0
C546 C 0.32285 0.42069 0.9949 0.0
C547 C 0.34009 0.38987 1.00967 0.0
C548 C 0.33256 0.38403 0.0399 0.0
C549 C 0.30814 0.40892 0.0549 0.0
C550 C 0.33023 0.42796 0.9627 0.0
C551 C 0.3502 0.35139 0.05641 0.0
H552 H 0.36216 0.28169 0.95286 0.0
H553 H 0.45862 0.35081 0.97462 0.0
H554 H 0.2989 0.31938 1.0036 0.0
H555 H 0.29176 0.34628 0.97082 0.0
H556 H 0.30059 0.296 0.96834 0.0
H557 H 0.45383 0.40568 1.00354 0.0
H558 H 0.41001 0.43083 0.99751 0.0
H559 H 0.41625 0.40406 0.03045 0.0
H560 H 0.28533 0.4686 0.99899 0.0
H561 H 0.30253 0.40433 0.07805 0.0
H562 H 0.32102 0.4031 0.94951 0.0
H563 H 0.3611 0.43179 0.95887 0.0
H564 H 0.31515 0.45351 0.95455 0.0
H565 H 0.34179 0.32409 0.04608 0.0
H566 H 0.34162 0.35085 0.0799 0.0
H567 H 0.38159 0.35329 0.05519 0.0
C568 C 0.03725 0.60462 0.47789 0.0
C569 C 1.01933 0.62226 0.45403 0.0
C570 C 0.04249 0.56509 0.47849 0.0
C571 C 0.03013 0.54274 0.45441 0.0
C572 C 1.01133 0.56031 0.43055 0.0
C573 C 1.00588 0.59977 0.43077 0.0
C574 C 0.062 0.54733 0.50458 0.0
C575 C 0.99815 0.53762 0.40427 0.0
C576 C 0.07982 0.44919 0.4388 0.0
C577 C 0.05269 0.42262 0.44811 0.0
C578 C 0.07298 0.48833 0.44104 0.0
C579 C 0.03844 0.50129 0.45339 0.0
C580 C 1.01142 0.47461 0.46367 0.0
C581 C 1.01871 0.43558 0.46065 0.0
C582 C 0.10229 0.51581 0.42941 0.0
C583 C 0.97458 0.48729 0.47745 0.0
H584 H 0.04754 0.62177 0.49602 0.0
H585 H 0.99216 0.61315 0.41217 0.0
H586 H 0.04457 0.52369 0.51341 0.0
H587 H 0.0896 0.53517 0.49763 0.0
H588 H 0.06726 0.56815 0.52249 0.0
H589 H 0.983 0.55538 0.3879 0.0
H590 H 0.02292 0.52426 0.39334 0.0
H591 H 0.97895 0.51439 0.41139 0.0
H592 H 0.10604 0.43943 0.42891 0.0
H593 H 0.99769 0.4152 0.46804 0.0
H594 H 0.11105 0.53584 0.44698 0.0
H595 H 0.08986 0.53292 0.41138 0.0
H596 H 0.12796 0.50119 0.42091 0.0
H597 H 0.9803 0.50735 0.49575 0.0
H598 H 0.95767 0.46308 0.48605 0.0
H599 H 0.95725 0.50262 0.46097 0.0
C600 C 0.58861 0.08158 0.59237 0.0
C601 C 0.61541 0.05457 0.58344 0.0
C602 C 0.54953 0.07468 0.58931 0.0
C603 C 0.53694 0.04022 0.5765 0.0
C604 C 0.56391 1.01343 0.56647 0.0
C605 C 0.60281 1.02076 0.57031 0.0
C606 C 0.52171 0.10375 0.60069 0.0
C607 C 0.55166 0.97668 0.55221 0.0
C608 C 0.43821 1.00599 0.5975 0.0
C609 C 0.41623 1.0192 0.57395 0.0
C610 C 0.47756 1.01222 0.59839 0.0
C611 C 0.49556 0.03155 0.57492 0.0
C612 C 0.47374 0.04376 0.55058 0.0
C613 C 0.43429 0.03774 0.55051 0.0
C614 C 0.49968 0.99915 0.62492 0.0
C615 C 0.49198 0.06383 0.52489 0.0
H616 H 0.5981 0.10767 0.6027 0.0
H617 H 0.62339 0.99985 0.5632 0.0
H618 H 0.50197 0.11234 0.58294 0.0
H619 H 0.50432 0.09114 0.61854 0.0
H620 H 0.53607 0.12954 0.60935 0.0
H621 H 0.57611 0.96014 0.54367 0.0
H622 H 0.53614 0.95896 0.56838 0.0
H623 H 0.5319 0.98248 0.53378 0.0
H624 H 0.4245 0.99182 0.61579 0.0
H625 H 0.41753 0.04787 0.53217 0.0
H626 H 0.51273 0.02399 0.63606 0.0
H627 H 0.52309 0.98013 0.61804 0.0
H628 H 0.48159 0.98384 0.64105 0.0
H629 H 0.50388 0.09143 0.53223 0.0
H630 H 0.47155 0.06917 0.50679 0.0
H631 H 0.5159 0.04674 0.51618 0.0
C632 C 0.57991 0.08925 0.93805 0.0
C633 C 0.55357 0.11613 0.94802 0.0
C634 C 0.57298 0.05019 0.94111 0.0
C635 C 0.53918 0.03765 0.95495 0.0
C636 C 0.5131 0.06468 0.96599 0.0
C637 C 0.52044 0.10358 0.96215 0.0
C638 C 0.60127 0.02231 0.92867 0.0
C639 C 0.47709 0.05249 0.98133 0.0
C640 C 0.5036 0.93914 0.93456 0.0
C641 C 0.518 0.91695 0.95756 0.0
C642 C 0.50984 0.9785 0.93369 0.0
C643 C 0.53044 0.99628 0.95663 0.0
C644 C 0.54387 0.97426 0.98045 0.0
C645 C 0.53777 0.93481 0.98051 0.0
C646 C 0.49541 1.00085 0.90771 0.0
C647 C 0.56534 0.99226 1.00558 0.0
H648 H 0.60545 0.09869 0.92694 0.0
H649 H 0.50005 0.12421 0.97005 0.0
H650 H 0.61079 1.00247 0.94605 0.0
H651 H 0.5876 1.00505 0.91121 0.0
H652 H 0.62659 0.03662 0.9192 0.0
H653 H 0.46111 0.07695 0.99047 0.0
H654 H 0.45847 0.03712 0.96565 0.0
H655 H 0.48378 0.03259 0.99947 0.0
H656 H 0.48846 0.9256 0.91665 0.0
H657 H 0.54882 0.91789 0.99844 0.0
H658 H 0.51968 1.01381 0.89581 0.0
H659 H 0.47695 0.02435 0.91531 0.0
H660 H 0.47909 0.98294 0.89205 0.0
H661 H 0.59257 1.0041 0.99744 0.0
H662 H 0.57155 0.97169 0.02341 0.0
H663 H 0.54881 1.01618 1.01492 0.0
C664 C 0.10355 0.54073 0.05485 0.0
C665 C 0.12106 0.5212 0.07799 0.0
C666 C 0.06403 0.54608 0.05435 0.0
C667 C 0.04155 0.53209 0.07779 0.0
C668 C 0.05897 0.5116 0.10086 0.0
C669 C 0.09843 0.50616 0.10056 0.0
C670 C 0.04644 0.56749 0.0291 0.0
C671 C 0.03612 0.49659 0.12644 0.0
C672 C 0.94822 0.58111 0.09529 0.0
C673 C 0.92152 0.55493 0.08463 0.0
C674 C 0.98732 0.57418 0.09291 0.0
C675 C 1.00013 0.54053 0.07907 0.0
C676 C 0.97335 0.51448 0.0675 0.0
C677 C 0.93435 0.52182 0.07066 0.0
C678 C 1.01491 0.60243 0.10593 0.0
C679 C 0.98588 0.4786 0.05218 0.0
H680 H 0.12079 0.55226 0.03724 0.0
H681 H 0.11169 0.49115 0.11861 0.0
H682 H 0.02274 0.55083 0.01949 0.0
H683 H 0.03439 0.59462 0.0372 0.0
H684 H 0.06733 0.5739 1.01148 0.0
H685 H 0.05373 0.48008 0.14209 0.0
H686 H 0.02293 0.52059 0.13848 0.0
H687 H 1.01277 0.47815 0.1184 0.0
H688 H 0.93857 0.60663 0.10631 0.0
H689 H 0.91388 0.50153 0.06224 0.0
H690 H 0.03499 0.61243 0.08882 0.0
H691 H 0.03193 0.58856 0.12337 0.0
H692 H 1.00038 0.62747 0.11559 0.0
H693 H 1.00599 0.48553 0.03418 0.0
H694 H 0.96161 0.46244 0.04284 0.0
H695 H 1.00112 0.46007 0.0679 0.0
loop_
_geom_bond_atom_site_label_1
_geom_bond_atom_site_label_2
_geom_bond_distance
_geom_bond_site_symmetry_2
_ccdc_geom_bond_type
Cu0 N1 2.013 . S
Cu0 O6 1.974 . S
Cu0 N11 1.985 . S
Cu0 O20 1.959 . S
N1 Cu0 2.013 . S
N1 C3 1.265 . S
N1 C5 1.370 1_455 S
N2 C3 1.358 1_655 S
N2 C4 1.400 . S
C3 N1 1.265 . S
C3 N2 1.358 1_455 S
C3 H9 0.930 . S
C4 N2 1.400 . S
C4 C5 1.351 . S
C4 H21 0.930 . S
C5 N1 1.370 1_655 S
C5 C4 1.351 . S
C5 H10 0.930 . S
O6 Cu0 1.974 . S
O6 C16 1.282 . S
C7 O8 1.261 . S
C7 O20 1.251 . S
O8 C7 1.261 . S
H9 C3 0.930 . S
H10 C5 0.930 . S
N11 Cu0 1.985 . S
N11 C13 1.335 . S
N11 C14 1.390 . S
N12 C13 1.345 . S
N12 C15 1.336 . S
C13 N11 1.335 . S
C13 N12 1.345 . S
C13 H18 0.930 . S
C14 N11 1.390 . S
C14 C15 1.346 . S
C14 H19 0.930 . S
C15 N12 1.336 . S
C15 C14 1.346 . S
C15 H22 0.929 . S
C16 O6 1.282 . S
C16 O17 1.216 . S
O17 C16 1.216 . S
H18 C13 0.930 . S
H19 C14 0.930 . S
O20 Cu0 1.959 . S
O20 C7 1.251 . S
H21 C4 0.930 . S
H22 C15 0.929 . S
Cu23 N24 2.013 . S
Cu23 O29 1.974 . S
Cu23 N34 1.985 . S
Cu23 O43 1.959 . S
N24 Cu23 2.013 . S
N24 C26 1.265 . S
N24 C28 1.370 1_565 S
N25 C26 1.358 1_545 S
N25 C27 1.400 . S
C26 N24 1.265 . S
C26 N25 1.358 1_565 S
C26 H32 0.930 . S
C27 N25 1.400 . S
C27 C28 1.351 . S
C27 H44 0.930 . S
C28 N24 1.370 1_545 S
C28 C27 1.351 . S
C28 H33 0.930 . S
O29 Cu23 1.974 . S
O29 C39 1.282 . S
C30 O31 1.261 . S
C30 O43 1.251 . S
O31 C30 1.261 . S
H32 C26 0.930 . S
H33 C28 0.930 . S
N34 Cu23 1.985 . S
N34 C36 1.335 . S
N34 C37 1.390 . S
N35 C36 1.345 . S
N35 C38 1.336 . S
C36 N34 1.335 . S
C36 N35 1.345 . S
C36 H41 0.930 . S
C37 N34 1.390 . S
C37 C38 1.346 . S
C37 H42 0.930 . S
C38 N35 1.336 . S
C38 C37 1.346 . S
C38 H45 0.929 . S
C39 O29 1.282 . S
C39 O40 1.216 . S
O40 C39 1.216 . S
H41 C36 0.930 . S
H42 C37 0.930 . S
O43 Cu23 1.959 . S
O43 C30 1.251 . S
H44 C27 0.930 . S
H45 C38 0.929 . S
Cu46 N47 2.013 . S
Cu46 O52 1.974 . S
Cu46 N57 1.985 . S
Cu46 O66 1.959 . S
N47 Cu46 2.013 . S
N47 C49 1.265 . S
N47 C51 1.371 1_655 S
N48 C49 1.358 1_455 S
N48 C50 1.400 . S
C49 N47 1.265 . S
C49 N48 1.358 1_655 S
C49 H55 0.930 . S
C50 N48 1.400 . S
C50 C51 1.351 . S
C50 H67 0.930 . S
C51 N47 1.371 1_455 S
C51 C50 1.351 . S
C51 H56 0.930 . S
O52 Cu46 1.974 . S
O52 C62 1.282 . S
C53 O54 1.261 . S
C53 O66 1.251 . S
O54 C53 1.261 . S
H55 C49 0.930 . S
H56 C51 0.930 . S
N57 Cu46 1.985 . S
N57 C59 1.335 . S
N57 C60 1.390 . S
N58 C59 1.345 . S
N58 C61 1.336 . S
C59 N57 1.335 . S
C59 N58 1.345 . S
C59 H64 0.930 . S
C60 N57 1.390 . S
C60 C61 1.346 . S
C60 H65 0.930 . S
C61 N58 1.336 . S
C61 C60 1.346 . S
C61 H68 0.929 . S
C62 O52 1.282 . S
C62 O63 1.216 . S
O63 C62 1.216 . S
H64 C59 0.930 . S
H65 C60 0.930 . S
O66 Cu46 1.959 . S
O66 C53 1.251 . S
H67 C50 0.930 . S
H68 C61 0.929 . S
Cu69 N70 2.013 . S
Cu69 O75 1.974 . S
Cu69 N80 1.985 . S
Cu69 O89 1.959 . S
N70 Cu69 2.013 . S
N70 C72 1.265 . S
N70 C74 1.371 1_545 S
N71 C72 1.358 1_565 S
N71 C73 1.400 . S
C72 N70 1.265 . S
C72 N71 1.358 1_545 S
C72 H78 0.930 . S
C73 N71 1.400 . S
C73 C74 1.351 . S
C73 H90 0.930 . S
C74 N70 1.371 1_565 S
C74 C73 1.351 . S
C74 H79 0.930 . S
O75 Cu69 1.974 . S
O75 C85 1.282 . S
C76 O77 1.261 . S
C76 O89 1.251 . S
O77 C76 1.261 . S
H78 C72 0.930 . S
H79 C74 0.930 . S
N80 Cu69 1.985 . S
N80 C82 1.335 . S
N80 C83 1.390 . S
N81 C82 1.345 . S
N81 C84 1.336 . S
C82 N80 1.335 . S
C82 N81 1.345 . S
C82 H87 0.930 . S
C83 N80 1.390 . S
C83 C84 1.346 . S
C83 H88 0.930 . S
C84 N81 1.336 . S
C84 C83 1.346 . S
C84 H91 0.929 . S
C85 O75 1.282 . S
C85 O86 1.216 . S
O86 C85 1.216 . S
H87 C82 0.930 . S
H88 C83 0.930 . S
O89 Cu69 1.959 . S
O89 C76 1.251 . S
H90 C73 0.930 . S
H91 C84 0.929 . S
Cu92 N93 1.999 . S
Cu92 O98 1.974 . S
Cu92 N103 1.985 . S
Cu92 O112 1.959 . S
N93 Cu92 1.999 . S
N93 C95 1.263 . S
N93 C97 1.389 . S
N94 C95 1.358 . S
N94 C96 1.400 . S
C95 N93 1.263 . S
C95 N94 1.358 . S
C95 H101 0.930 . S
C96 N94 1.400 . S
C96 C97 1.351 . S
C96 H113 0.930 . S
C97 N93 1.389 . S
C97 C96 1.351 . S
C97 H102 0.930 . S
O98 Cu92 1.974 . S
O98 C108 1.282 . S
C99 O100 1.261 . S
C99 O112 1.251 . S
O100 C99 1.261 . S
H101 C95 0.930 . S
H102 C97 0.930 . S
N103 Cu92 1.985 . S
N103 C105 1.335 . S
N103 C106 1.390 . S
N104 C105 1.345 . S
N104 C107 1.336 . S
C105 N103 1.335 . S
C105 N104 1.345 . S
C105 H110 0.930 . S
C106 N103 1.390 . S
C106 C107 1.346 . S
C106 H111 0.930 . S
C107 N104 1.336 . S
C107 C106 1.346 . S
C107 H114 0.929 . S
C108 O98 1.282 . S
C108 O109 1.216 . S
O109 C108 1.216 . S
H110 C105 0.930 . S
H111 C106 0.930 . S
O112 Cu92 1.959 . S
O112 C99 1.251 . S
H113 C96 0.930 . S
H114 C107 0.929 . S
Cu115 N116 1.999 . S
Cu115 O121 1.974 . S
Cu115 N126 1.985 . S
Cu115 O135 1.959 . S
N116 Cu115 1.999 . S
N116 C118 1.263 . S
N116 C120 1.389 . S
N117 C118 1.358 . S
N117 C119 1.400 . S
C118 N116 1.263 . S
C118 N117 1.358 . S
C118 H124 0.930 . S
C119 N117 1.400 . S
C119 C120 1.351 . S
C119 H136 0.930 . S
C120 N116 1.389 . S
C120 C119 1.351 . S
C120 H125 0.930 . S
O121 Cu115 1.974 . S
O121 C131 1.282 . S
C122 O123 1.261 . S
C122 O135 1.251 . S
O123 C122 1.261 . S
H124 C118 0.930 . S
H125 C120 0.930 . S
N126 Cu115 1.985 . S
N126 C128 1.335 . S
N126 C129 1.390 . S
N127 C128 1.345 . S
N127 C130 1.336 . S
C128 N126 1.335 . S
C128 N127 1.345 . S
C128 H133 0.930 . S
C129 N126 1.390 . S
C129 C130 1.346 . S
C129 H134 0.930 . S
C130 N127 1.336 . S
C130 C129 1.346 . S
C130 H137 0.929 . S
C131 O121 1.282 . S
C131 O132 1.216 . S
O132 C131 1.216 . S
H133 C128 0.930 . S
H134 C129 0.930 . S
O135 Cu115 1.959 . S
O135 C122 1.251 . S
H136 C119 0.930 . S
H137 C130 0.929 . S
Cu138 N139 1.999 . S
Cu138 O144 1.974 . S
Cu138 N149 1.985 . S
Cu138 O158 1.959 . S
N139 Cu138 1.999 . S
N139 C141 1.263 . S
N139 C143 1.389 . S
N140 C141 1.358 . S
N140 C142 1.400 . S
C141 N139 1.263 . S
C141 N140 1.358 . S
C141 H147 0.930 . S
C142 N140 1.400 . S
C142 C143 1.351 . S
C142 H159 0.930 . S
C143 N139 1.389 . S
C143 C142 1.351 . S
C143 H148 0.930 . S
O144 Cu138 1.974 . S
O144 C154 1.282 . S
C145 O146 1.261 . S
C145 O158 1.251 . S
O146 C145 1.261 . S
H147 C141 0.930 . S
H148 C143 0.930 . S
N149 Cu138 1.985 . S
N149 C151 1.335 . S
N149 C152 1.390 . S
N150 C151 1.345 . S
N150 C153 1.336 . S
C151 N149 1.335 . S
C151 N150 1.345 . S
C151 H156 0.930 . S
C152 N149 1.390 . S
C152 C153 1.346 . S
C152 H157 0.930 . S
C153 N150 1.336 . S
C153 C152 1.346 . S
C153 H160 0.929 . S
C154 O144 1.282 . S
C154 O155 1.216 . S
O155 C154 1.216 . S
H156 C151 0.930 . S
H157 C152 0.930 . S
O158 Cu138 1.959 . S
O158 C145 1.251 . S
H159 C142 0.930 . S
H160 C153 0.929 . S
Cu161 N162 1.999 . S
Cu161 O167 1.974 . S
Cu161 N172 1.985 . S
Cu161 O181 1.959 . S
N162 Cu161 1.999 . S
N162 C164 1.263 . S
N162 C166 1.389 . S
N163 C164 1.358 . S
N163 C165 1.400 . S
C164 N162 1.263 . S
C164 N163 1.358 . S
C164 H170 0.930 . S
C165 N163 1.400 . S
C165 C166 1.351 . S
C165 H182 0.930 . S
C166 N162 1.389 . S
C166 C165 1.351 . S
C166 H171 0.930 . S
O167 Cu161 1.974 . S
O167 C177 1.282 . S
C168 O169 1.261 . S
C168 O181 1.251 . S
O169 C168 1.261 . S
H170 C164 0.930 . S
H171 C166 0.930 . S
N172 Cu161 1.985 . S
N172 C174 1.335 . S
N172 C175 1.390 . S
N173 C174 1.345 . S
N173 C176 1.336 . S
C174 N172 1.335 . S
C174 N173 1.345 . S
C174 H179 0.930 . S
C175 N172 1.390 . S
C175 C176 1.346 . S
C175 H180 0.930 . S
C176 N173 1.336 . S
C176 C175 1.346 . S
C176 H183 0.929 . S
C177 O167 1.282 . S
C177 O178 1.216 . S
O178 C177 1.216 . S
H179 C174 0.930 . S
H180 C175 0.930 . S
O181 Cu161 1.959 . S
O181 C168 1.251 . S
H182 C165 0.930 . S
H183 C176 0.929 . S
C184 C185 1.391 . S
C184 C186 1.394 . S
C184 H200 0.931 . S
C185 C184 1.391 . S
C185 C189 1.376 . S
C186 C184 1.394 . S
C186 C187 1.369 . S
C186 C190 1.531 . S
C187 C186 1.369 . S
C187 C188 1.410 . S
C187 C195 1.503 . S
C188 C187 1.410 . S
C188 C189 1.392 . S
C188 C191 1.511 . S
C189 C185 1.376 . S
C189 C188 1.392 . S
C189 H201 0.929 . S
C190 C186 1.531 . S
C190 H202 0.960 . S
C190 H203 0.962 . S
C190 H204 0.960 . S
C191 C188 1.511 . S
C191 H205 0.961 . S
C191 H206 0.961 . S
C191 H207 0.961 . S
C192 C193 1.370 . S
C192 C194 1.363 . S
C192 H208 0.931 . S
C193 C192 1.370 . S
C193 C197 1.408 . S
C194 C192 1.363 . S
C194 C195 1.370 . S
C194 C198 1.524 . S
C195 C187 1.503 . S
C195 C194 1.370 . S
C195 C196 1.403 . S
C196 C195 1.403 . S
C196 C197 1.404 . S
C196 C199 1.539 . S
C197 C193 1.408 . S
C197 C196 1.404 . S
C197 H209 0.930 . S
C198 C194 1.524 . S
C198 H210 0.956 . S
C198 H211 0.961 . S
C198 H212 0.961 . S
C199 C196 1.539 . S
C199 H213 0.958 . S
C199 H214 0.961 . S
C199 H215 0.960 . S
H200 C184 0.931 . S
H201 C189 0.929 . S
H202 C190 0.960 . S
H203 C190 0.962 . S
H204 C190 0.960 . S
H205 C191 0.961 . S
H206 C191 0.961 . S
H207 C191 0.961 . S
H208 C192 0.931 . S
H209 C197 0.930 . S
H210 C198 0.956 . S
H211 C198 0.961 . S
H212 C198 0.961 . S
H213 C199 0.958 . S
H214 C199 0.961 . S
H215 C199 0.960 . S
C216 C217 1.391 . S
C216 C218 1.394 . S
C216 H232 0.931 . S
C217 C216 1.391 . S
C217 C221 1.376 . S
C218 C216 1.394 . S
C218 C219 1.369 . S
C218 C222 1.531 . S
C219 C218 1.369 . S
C219 C220 1.410 . S
C219 C227 1.503 . S
C220 C219 1.410 . S
C220 C221 1.392 . S
C220 C223 1.511 . S
C221 C217 1.376 . S
C221 C220 1.392 . S
C221 H233 0.929 . S
C222 C218 1.531 . S
C222 H234 0.960 . S
C222 H235 0.962 . S
C222 H236 0.960 . S
C223 C220 1.511 . S
C223 H237 0.961 . S
C223 H238 0.961 . S
C223 H239 0.961 . S
C224 C225 1.370 . S
C224 C226 1.363 . S
C224 H240 0.931 . S
C225 C224 1.370 . S
C225 C229 1.408 . S
C226 C224 1.363 . S
C226 C227 1.370 . S
C226 C230 1.524 . S
C227 C219 1.503 . S
C227 C226 1.370 . S
C227 C228 1.403 . S
C228 C227 1.403 . S
C228 C229 1.404 . S
C228 C231 1.539 . S
C229 C225 1.408 . S
C229 C228 1.404 . S
C229 H241 0.930 . S
C230 C226 1.524 . S
C230 H242 0.956 . S
C230 H243 0.961 . S
C230 H244 0.961 . S
C231 C228 1.539 . S
C231 H245 0.958 . S
C231 H246 0.961 . S
C231 H247 0.960 . S
H232 C216 0.931 . S
H233 C221 0.929 . S
H234 C222 0.960 . S
H235 C222 0.962 . S
H236 C222 0.960 . S
H237 C223 0.961 . S
H238 C223 0.961 . S
H239 C223 0.961 . S
H240 C224 0.931 . S
H241 C229 0.930 . S
H242 C230 0.956 . S
H243 C230 0.961 . S
H244 C230 0.961 . S
H245 C231 0.958 . S
H246 C231 0.961 . S
H247 C231 0.960 . S
C248 C249 1.391 . S
C248 C250 1.394 . S
C248 H264 0.931 . S
C249 C248 1.391 . S
C249 C253 1.376 . S
C250 C248 1.394 . S
C250 C251 1.369 . S
C250 C254 1.531 . S
C251 C250 1.369 . S
C251 C252 1.410 . S
C251 C259 1.503 . S
C252 C251 1.410 . S
C252 C253 1.392 . S
C252 C255 1.511 . S
C253 C249 1.376 . S
C253 C252 1.392 . S
C253 H265 0.929 . S
C254 C250 1.531 . S
C254 H266 0.960 . S
C254 H267 0.962 . S
C254 H268 0.960 . S
C255 C252 1.511 . S
C255 H269 0.961 . S
C255 H270 0.961 . S
C255 H271 0.961 . S
C256 C257 1.370 . S
C256 C258 1.363 . S
C256 H272 0.931 . S
C257 C256 1.370 . S
C257 C261 1.408 . S
C258 C256 1.363 . S
C258 C259 1.370 . S
C258 C262 1.524 . S
C259 C251 1.503 . S
C259 C258 1.370 . S
C259 C260 1.403 . S
C260 C259 1.403 . S
C260 C261 1.404 . S
C260 C263 1.539 . S
C261 C257 1.408 . S
C261 C260 1.404 . S
C261 H273 0.930 . S
C262 C258 1.524 . S
C262 H274 0.956 . S
C262 H275 0.961 . S
C262 H276 0.961 . S
C263 C260 1.539 . S
C263 H277 0.958 . S
C263 H278 0.961 . S
C263 H279 0.960 . S
H264 C248 0.931 . S
H265 C253 0.929 . S
H266 C254 0.960 . S
H267 C254 0.962 . S
H268 C254 0.960 . S
H269 C255 0.961 . S
H270 C255 0.961 . S
H271 C255 0.961 . S
H272 C256 0.931 . S
H273 C261 0.930 . S
H274 C262 0.956 . S
H275 C262 0.961 . S
H276 C262 0.961 . S
H277 C263 0.958 . S
H278 C263 0.961 . S
H279 C263 0.960 . S
C280 C281 1.391 . S
C280 C282 1.394 . S
C280 H296 0.931 . S
C281 C280 1.391 . S
C281 C285 1.376 . S
C282 C280 1.394 . S
C282 C283 1.369 . S
C282 C286 1.531 . S
C283 C282 1.369 . S
C283 C284 1.410 . S
C283 C291 1.503 . S
C284 C283 1.410 . S
C284 C285 1.392 . S
C284 C287 1.511 . S
C285 C281 1.376 . S
C285 C284 1.392 . S
C285 H297 0.929 . S
C286 C282 1.531 . S
C286 H298 0.960 . S
C286 H299 0.962 . S
C286 H300 0.960 . S
C287 C284 1.511 . S
C287 H301 0.961 . S
C287 H302 0.961 . S
C287 H303 0.961 . S
C288 C289 1.370 . S
C288 C290 1.363 . S
C288 H304 0.931 . S
C289 C288 1.370 . S
C289 C293 1.408 . S
C290 C288 1.363 . S
C290 C291 1.370 . S
C290 C294 1.524 . S
C291 C283 1.503 . S
C291 C290 1.370 . S
C291 C292 1.403 . S
C292 C291 1.403 . S
C292 C293 1.404 . S
C292 C295 1.539 . S
C293 C289 1.408 . S
C293 C292 1.404 . S
C293 H305 0.930 . S
C294 C290 1.524 . S
C294 H306 0.956 . S
C294 H307 0.961 . S
C294 H308 0.961 . S
C295 C292 1.539 . S
C295 H309 0.958 . S
C295 H310 0.961 . S
C295 H311 0.960 . S
H296 C280 0.931 . S
H297 C285 0.929 . S
H298 C286 0.960 . S
H299 C286 0.962 . S
H300 C286 0.960 . S
H301 C287 0.961 . S
H302 C287 0.961 . S
H303 C287 0.961 . S
H304 C288 0.931 . S
H305 C293 0.930 . S
H306 C294 0.956 . S
H307 C294 0.961 . S
H308 C294 0.961 . S
H309 C295 0.958 . S
H310 C295 0.961 . S
H311 C295 0.960 . S
C312 C313 1.391 . S
C312 C314 1.394 . S
C312 H328 0.931 . S
C313 C312 1.391 . S
C313 C317 1.376 . S
C314 C312 1.394 . S
C314 C315 1.369 . S
C314 C318 1.531 . S
C315 C314 1.369 . S
C315 C316 1.410 . S
C315 C323 1.503 . S
C316 C315 1.410 . S
C316 C317 1.392 . S
C316 C319 1.511 . S
C317 C313 1.376 . S
C317 C316 1.392 . S
C317 H329 0.929 . S
C318 C314 1.531 . S
C318 H330 0.960 . S
C318 H331 0.962 . S
C318 H332 0.960 . S
C319 C316 1.511 . S
C319 H333 0.961 . S
C319 H334 0.961 . S
C319 H335 0.961 . S
C320 C321 1.370 . S
C320 C322 1.363 . S
C320 H336 0.931 . S
C321 C320 1.370 . S
C321 C325 1.408 . S
C322 C320 1.363 . S
C322 C323 1.370 . S
C322 C326 1.524 . S
C323 C315 1.503 . S
C323 C322 1.370 . S
C323 C324 1.403 . S
C324 C323 1.403 . S
C324 C325 1.404 . S
C324 C327 1.539 . S
C325 C321 1.408 . S
C325 C324 1.404 . S
C325 H337 0.930 . S
C326 C322 1.524 . S
C326 H338 0.956 . S
C326 H339 0.961 . S
C326 H340 0.961 . S
C327 C324 1.539 . S
C327 H341 0.958 . S
C327 H342 0.961 . S
C327 H343 0.960 . S
H328 C312 0.931 . S
H329 C317 0.929 . S
H330 C318 0.960 . S
H331 C318 0.962 . S
H332 C318 0.960 . S
H333 C319 0.961 . S
H334 C319 0.961 . S
H335 C319 0.961 . S
H336 C320 0.931 . S
H337 C325 0.930 . S
H338 C326 0.956 . S
H339 C326 0.961 . S
H340 C326 0.961 . S
H341 C327 0.958 . S
H342 C327 0.961 . S
H343 C327 0.960 . S
C344 C345 1.391 . S
C344 C346 1.394 . S
C344 H360 0.931 . S
C345 C344 1.391 . S
C345 C349 1.376 . S
C346 C344 1.394 . S
C346 C347 1.369 . S
C346 C350 1.531 . S
C347 C346 1.369 . S
C347 C348 1.410 . S
C347 C355 1.503 . S
C348 C347 1.410 . S
C348 C349 1.392 . S
C348 C351 1.511 . S
C349 C345 1.376 . S
C349 C348 1.392 . S
C349 H361 0.929 . S
C350 C346 1.531 . S
C350 H362 0.960 . S
C350 H363 0.962 . S
C350 H364 0.960 . S
C351 C348 1.511 . S
C351 H365 0.961 . S
C351 H366 0.961 . S
C351 H367 0.961 . S
C352 C353 1.370 . S
C352 C354 1.363 . S
C352 H368 0.931 . S
C353 C352 1.370 . S
C353 C357 1.408 . S
C354 C352 1.363 . S
C354 C355 1.370 . S
C354 C358 1.524 . S
C355 C347 1.503 . S
C355 C354 1.370 . S
C355 C356 1.403 . S
C356 C355 1.403 . S
C356 C357 1.404 . S
C356 C359 1.539 . S
C357 C353 1.408 . S
C357 C356 1.404 . S
C357 H369 0.930 . S
C358 C354 1.524 . S
C358 H370 0.956 . S
C358 H371 0.961 . S
C358 H372 0.961 . S
C359 C356 1.539 . S
C359 H373 0.958 . S
C359 H374 0.961 . S
C359 H375 0.960 . S
H360 C344 0.931 . S
H361 C349 0.929 . S
H362 C350 0.960 . S
H363 C350 0.962 . S
H364 C350 0.960 . S
H365 C351 0.961 . S
H366 C351 0.961 . S
H367 C351 0.961 . S
H368 C352 0.931 . S
H369 C357 0.930 . S
H370 C358 0.956 . S
H371 C358 0.961 . S
H372 C358 0.961 . S
H373 C359 0.958 . S
H374 C359 0.961 . S
H375 C359 0.960 . S
C376 C377 1.391 . S
C376 C378 1.394 . S
C376 H392 0.931 . S
C377 C376 1.391 . S
C377 C381 1.376 . S
C378 C376 1.394 . S
C378 C379 1.369 . S
C378 C382 1.531 . S
C379 C378 1.369 . S
C379 C380 1.410 . S
C379 C387 1.503 . S
C380 C379 1.410 . S
C380 C381 1.392 . S
C380 C383 1.511 . S
C381 C377 1.376 . S
C381 C380 1.392 . S
C381 H393 0.929 . S
C382 C378 1.531 . S
C382 H394 0.960 . S
C382 H395 0.962 . S
C382 H396 0.960 . S
C383 C380 1.511 . S
C383 H397 0.961 . S
C383 H398 0.961 . S
C383 H399 0.961 . S
C384 C385 1.370 . S
C384 C386 1.363 . S
C384 H400 0.931 . S
C385 C384 1.370 . S
C385 C389 1.408 . S
C386 C384 1.363 . S
C386 C387 1.370 . S
C386 C390 1.524 . S
C387 C379 1.503 . S
C387 C386 1.370 . S
C387 C388 1.403 . S
C388 C387 1.403 . S
C388 C389 1.404 . S
C388 C391 1.539 . S
C389 C385 1.408 . S
C389 C388 1.404 . S
C389 H401 0.930 . S
C390 C386 1.524 . S
C390 H402 0.956 . S
C390 H403 0.961 . S
C390 H404 0.961 . S
C391 C388 1.539 . S
C391 H405 0.958 . S
C391 H406 0.961 . S
C391 H407 0.960 . S
H392 C376 0.931 . S
H393 C381 0.929 . S
H394 C382 0.960 . S
H395 C382 0.962 . S
H396 C382 0.960 . S
H397 C383 0.961 . S
H398 C383 0.961 . S
H399 C383 0.961 . S
H400 C384 0.931 . S
H401 C389 0.930 . S
H402 C390 0.956 . S
H403 C390 0.961 . S
H404 C390 0.961 . S
H405 C391 0.958 . S
H406 C391 0.961 . S
H407 C391 0.960 . S
C408 C409 1.391 . S
C408 C410 1.394 . S
C408 H424 0.931 . S
C409 C408 1.391 . S
C409 C413 1.376 . S
C410 C408 1.394 . S
C410 C411 1.369 . S
C410 C414 1.531 . S
C411 C410 1.369 . S
C411 C412 1.410 . S
C411 C419 1.503 . S
C412 C411 1.410 . S
C412 C413 1.392 . S
C412 C415 1.511 . S
C413 C409 1.376 . S
C413 C412 1.392 . S
C413 H425 0.929 . S
C414 C410 1.531 . S
C414 H426 0.960 . S
C414 H427 0.962 . S
C414 H428 0.960 . S
C415 C412 1.511 . S
C415 H429 0.961 . S
C415 H430 0.961 . S
C415 H431 0.961 . S
C416 C417 1.370 . S
C416 C418 1.363 . S
C416 H432 0.931 . S
C417 C416 1.370 . S
C417 C421 1.408 . S
C418 C416 1.363 . S
C418 C419 1.370 . S
C418 C422 1.524 . S
C419 C411 1.503 . S
C419 C418 1.370 . S
C419 C420 1.403 . S
C420 C419 1.403 . S
C420 C421 1.404 . S
C420 C423 1.539 . S
C421 C417 1.408 . S
C421 C420 1.404 . S
C421 H433 0.930 . S
C422 C418 1.524 . S
C422 H434 0.956 . S
C422 H435 0.961 . S
C422 H436 0.961 . S
C423 C420 1.539 . S
C423 H437 0.958 . S
C423 H438 0.961 . S
C423 H439 0.960 . S
H424 C408 0.931 . S
H425 C413 0.929 . S
H426 C414 0.960 . S
H427 C414 0.962 . S
H428 C414 0.960 . S
H429 C415 0.961 . S
H430 C415 0.961 . S
H431 C415 0.961 . S
H432 C416 0.931 . S
H433 C421 0.930 . S
H434 C422 0.956 . S
H435 C422 0.961 . S
H436 C422 0.961 . S
H437 C423 0.958 . S
H438 C423 0.961 . S
H439 C423 0.960 . S
C440 C441 1.391 1_556 S
C440 C442 1.394 . S
C440 H456 0.931 . S
C441 C440 1.391 1_554 S
C441 C445 1.376 1_554 S
C442 C440 1.394 . S
C442 C443 1.369 . S
C442 C446 1.531 . S
C443 C442 1.369 . S
C443 C444 1.410 . S
C443 C451 1.503 . S
C444 C443 1.410 . S
C444 C445 1.392 . S
C444 C447 1.511 . S
C445 C441 1.376 1_556 S
C445 C444 1.392 . S
C445 H457 0.929 1_556 S
C446 C442 1.531 . S
C446 H458 0.960 . S
C446 H459 0.962 . S
C446 H460 0.960 . S
C447 C444 1.511 . S
C447 H461 0.961 . S
C447 H462 0.961 . S
C447 H463 0.961 . S
C448 C449 1.370 . S
C448 C450 1.363 . S
C448 H464 0.931 . S
C449 C448 1.370 . S
C449 C453 1.408 . S
C450 C448 1.363 . S
C450 C451 1.370 . S
C450 C454 1.524 1_556 S
C451 C443 1.503 . S
C451 C450 1.370 . S
C451 C452 1.403 . S
C452 C451 1.403 . S
C452 C453 1.404 . S
C452 C455 1.539 . S
C453 C449 1.408 . S
C453 C452 1.404 . S
C453 H465 0.930 . S
C454 C450 1.524 1_554 S
C454 H466 0.956 . S
C454 H467 0.961 . S
C454 H468 0.961 . S
C455 C452 1.539 . S
C455 H469 0.958 . S
C455 H470 0.961 . S
C455 H471 0.960 . S
H456 C440 0.931 . S
H457 C445 0.929 1_554 S
H458 C446 0.960 . S
H459 C446 0.962 . S
H460 C446 0.960 . S
H461 C447 0.961 . S
H462 C447 0.961 . S
H463 C447 0.961 . S
H464 C448 0.931 . S
H465 C453 0.930 . S
H466 C454 0.956 . S
H467 C454 0.961 . S
H468 C454 0.961 . S
H469 C455 0.958 . S
H470 C455 0.961 . S
H471 C455 0.960 . S
C472 C473 1.391 . S
C472 C474 1.394 . S
C472 H488 0.931 . S
C473 C472 1.391 . S
C473 C477 1.376 . S
C474 C472 1.394 . S
C474 C475 1.369 . S
C474 C478 1.531 . S
C475 C474 1.369 . S
C475 C476 1.410 . S
C475 C483 1.503 . S
C476 C475 1.410 . S
C476 C477 1.392 . S
C476 C479 1.511 . S
C477 C473 1.376 . S
C477 C476 1.392 . S
C477 H489 0.929 . S
C478 C474 1.531 . S
C478 H490 0.960 1_554 S
C478 H491 0.962 . S
C478 H492 0.951 1_554 S
C479 C476 1.511 . S
C479 H493 0.961 . S
C479 H494 0.961 . S
C479 H495 0.961 . S
C480 C481 1.370 1_554 S
C480 C482 1.363 . S
C480 H496 0.931 . S
C481 C480 1.370 1_556 S
C481 C485 1.408 . S
C482 C480 1.363 . S
C482 C483 1.370 . S
C482 C486 1.524 . S
C483 C475 1.503 . S
C483 C482 1.370 . S
C483 C484 1.403 1_554 S
C484 C483 1.403 1_556 S
C484 C485 1.404 . S
C484 C487 1.539 . S
C485 C481 1.408 . S
C485 C484 1.404 . S
C485 H497 0.930 . S
C486 C482 1.524 . S
C486 H498 0.956 . S
C486 H499 0.961 . S
C486 H500 0.961 . S
C487 C484 1.539 . S
C487 H501 0.958 . S
C487 H502 0.961 . S
C487 H503 0.960 . S
H488 C472 0.931 . S
H489 C477 0.929 . S
H490 C478 0.960 1_556 S
H491 C478 0.962 . S
H492 C478 0.951 1_556 S
H493 C479 0.961 . S
H494 C479 0.961 . S
H495 C479 0.961 . S
H496 C480 0.931 . S
H497 C485 0.930 . S
H498 C486 0.956 . S
H499 C486 0.961 . S
H500 C486 0.961 . S
H501 C487 0.958 . S
H502 C487 0.961 . S
H503 C487 0.960 . S
C504 C505 1.388 1_556 S
C504 C506 1.398 . S
C504 H520 0.929 1_556 S
C505 C504 1.388 1_554 S
C505 C509 1.376 . S
C506 C504 1.398 . S
C506 C507 1.369 . S
C506 C510 1.531 . S
C507 C506 1.369 . S
C507 C508 1.410 . S
C507 C515 1.503 . S
C508 C507 1.410 . S
C508 C509 1.392 1_556 S
C508 C511 1.511 . S
C509 C505 1.376 . S
C509 C508 1.392 1_554 S
C509 H521 0.929 . S
C510 C506 1.531 . S
C510 H522 0.960 . S
C510 H523 0.962 . S
C510 H524 0.960 . S
C511 C508 1.511 . S
C511 H525 0.961 . S
C511 H526 0.961 . S
C511 H527 0.961 1_556 S
C512 C513 1.370 . S
C512 C514 1.363 . S
C512 H528 0.931 . S
C513 C512 1.370 . S
C513 C517 1.408 . S
C514 C512 1.363 . S
C514 C515 1.370 . S
C514 C518 1.524 . S
C515 C507 1.503 . S
C515 C514 1.370 . S
C515 C516 1.403 . S
C516 C515 1.403 . S
C516 C517 1.404 . S
C516 C519 1.539 1_556 S
C517 C513 1.408 . S
C517 C516 1.404 . S
C517 H529 0.930 . S
C518 C514 1.524 . S
C518 H530 0.956 . S
C518 H531 0.961 . S
C518 H532 0.961 . S
C519 C516 1.539 1_554 S
C519 H533 0.958 . S
C519 H534 0.961 . S
C519 H535 0.960 . S
H520 C504 0.929 1_554 S
H521 C509 0.929 . S
H522 C510 0.960 . S
H523 C510 0.962 . S
H524 C510 0.960 . S
H525 C511 0.961 . S
H526 C511 0.961 . S
H527 C511 0.961 1_554 S
H528 C512 0.931 . S
H529 C517 0.930 . S
H530 C518 0.956 . S
H531 C518 0.961 . S
H532 C518 0.961 . S
H533 C519 0.958 . S
H534 C519 0.961 . S
H535 C519 0.960 . S
C536 C537 1.391 . S
C536 C538 1.394 1_556 S
C536 H552 0.931 . S
C537 C536 1.391 . S
C537 C541 1.376 1_556 S
C538 C536 1.394 1_554 S
C538 C539 1.369 . S
C538 C542 1.531 . S
C539 C538 1.369 . S
C539 C540 1.410 . S
C539 C547 1.503 . S
C540 C539 1.410 . S
C540 C541 1.392 . S
C540 C543 1.511 . S
C541 C537 1.376 1_554 S
C541 C540 1.392 . S
C541 H553 0.929 . S
C542 C538 1.531 . S
C542 H554 0.960 . S
C542 H555 0.962 1_554 S
C542 H556 0.960 . S
C543 C540 1.511 . S
C543 H557 0.961 . S
C543 H558 0.961 . S
C543 H559 0.961 . S
C544 C545 1.370 . S
C544 C546 1.363 . S
C544 H560 0.931 . S
C545 C544 1.370 . S
C545 C549 1.408 . S
C546 C544 1.363 . S
C546 C547 1.370 . S
C546 C550 1.524 1_554 S
C547 C539 1.503 . S
C547 C546 1.370 . S
C547 C548 1.403 . S
C548 C547 1.403 . S
C548 C549 1.404 . S
C548 C551 1.539 . S
C549 C545 1.408 . S
C549 C548 1.404 . S
C549 H561 0.930 . S
C550 C546 1.524 1_556 S
C550 H562 0.956 . S
C550 H563 0.961 . S
C550 H564 0.961 . S
C551 C548 1.539 . S
C551 H565 0.958 . S
C551 H566 0.961 . S
C551 H567 0.960 . S
H552 C536 0.931 . S
H553 C541 0.929 . S
H554 C542 0.960 . S
H555 C542 0.962 1_556 S
H556 C542 0.960 . S
H557 C543 0.961 . S
H558 C543 0.961 . S
H559 C543 0.961 . S
H560 C544 0.931 . S
H561 C549 0.930 . S
H562 C550 0.956 . S
H563 C550 0.961 . S
H564 C550 0.961 . S
H565 C551 0.958 . S
H566 C551 0.961 . S
H567 C551 0.960 . S
C568 C569 1.391 1_455 S
C568 C570 1.394 . S
C568 H584 0.931 . S
C569 C568 1.391 1_655 S
C569 C573 1.376 . S
C570 C568 1.394 . S
C570 C571 1.369 1_455 S
C570 C574 1.531 . S
C571 C570 1.369 1_655 S
C571 C572 1.410 . S
C571 C579 1.503 . S
C572 C571 1.410 . S
C572 C573 1.392 . S
C572 C575 1.511 . S
C573 C569 1.376 . S
C573 C572 1.392 . S
C573 H585 0.929 . S
C574 C570 1.531 . S
C574 H586 0.960 . S
C574 H587 0.962 . S
C574 H588 0.960 . S
C575 C572 1.511 . S
C575 H589 0.961 . S
C575 H590 0.961 . S
C575 H591 0.961 . S
C576 C577 1.370 . S
C576 C578 1.363 . S
C576 H592 0.931 . S
C577 C576 1.370 . S
C577 C581 1.408 1_455 S
C578 C576 1.363 . S
C578 C579 1.370 1_455 S
C578 C582 1.524 . S
C579 C571 1.503 . S
C579 C578 1.370 1_655 S
C579 C580 1.403 . S
C580 C579 1.403 . S
C580 C581 1.404 . S
C580 C583 1.539 . S
C581 C577 1.408 1_655 S
C581 C580 1.404 . S
C581 H593 0.930 . S
C582 C578 1.524 . S
C582 H594 0.956 . S
C582 H595 0.961 . S
C582 H596 0.961 . S
C583 C580 1.539 . S
C583 H597 0.958 . S
C583 H598 0.961 . S
C583 H599 0.960 . S
H584 C568 0.931 . S
H585 C573 0.929 . S
H586 C574 0.960 . S
H587 C574 0.962 . S
H588 C574 0.960 . S
H589 C575 0.961 . S
H590 C575 0.961 . S
H591 C575 0.961 . S
H592 C576 0.931 . S
H593 C581 0.930 . S
H594 C582 0.956 . S
H595 C582 0.961 . S
H596 C582 0.961 . S
H597 C583 0.958 . S
H598 C583 0.961 . S
H599 C583 0.960 . S
C600 C601 1.391 . S
C600 C602 1.394 . S
C600 H616 0.931 . S
C601 C600 1.391 . S
C601 C605 1.376 1_545 S
C602 C600 1.394 . S
C602 C603 1.372 . S
C602 C606 1.531 . S
C603 C602 1.372 . S
C603 C604 1.407 1_545 S
C603 C611 1.503 1_545 S
C604 C603 1.407 1_565 S
C604 C605 1.392 . S
C604 C607 1.511 . S
C605 C601 1.376 1_565 S
C605 C604 1.392 . S
C605 H617 0.929 . S
C606 C602 1.531 . S
C606 H618 0.960 . S
C606 H619 0.962 . S
C606 H620 0.960 . S
C607 C604 1.511 . S
C607 H621 0.961 . S
C607 H622 0.961 . S
C607 H623 0.961 . S
C608 C609 1.370 1_545 S
C608 C610 1.363 . S
C608 H624 0.931 . S
C609 C608 1.370 1_565 S
C609 C613 1.408 . S
C610 C608 1.363 . S
C610 C611 1.370 1_545 S
C610 C614 1.524 . S
C611 C603 1.503 1_565 S
C611 C610 1.370 1_565 S
C611 C612 1.403 . S
C612 C611 1.403 . S
C612 C613 1.404 . S
C612 C615 1.539 . S
C613 C609 1.408 . S
C613 C612 1.404 . S
C613 H625 0.930 . S
C614 C610 1.524 . S
C614 H626 0.956 . S
C614 H627 0.961 . S
C614 H628 0.961 . S
C615 C612 1.539 . S
C615 H629 0.958 . S
C615 H630 0.961 . S
C615 H631 0.960 . S
H616 C600 0.931 . S
H617 C605 0.929 . S
H618 C606 0.960 . S
H619 C606 0.962 . S
H620 C606 0.960 . S
H621 C607 0.961 . S
H622 C607 0.961 . S
H623 C607 0.961 . S
H624 C608 0.931 . S
H625 C613 0.930 . S
H626 C614 0.956 . S
H627 C614 0.961 . S
H628 C614 0.961 . S
H629 C615 0.958 . S
H630 C615 0.961 . S
H631 C615 0.960 . S
C632 C633 1.391 . S
C632 C634 1.394 . S
C632 H648 0.931 . S
C633 C632 1.391 . S
C633 C637 1.376 . S
C634 C632 1.394 . S
C634 C635 1.369 . S
C634 C638 1.531 . S
C635 C634 1.369 . S
C635 C636 1.410 . S
C635 C643 1.503 1_545 S
C636 C635 1.410 . S
C636 C637 1.392 . S
C636 C639 1.511 . S
C637 C633 1.376 . S
C637 C636 1.392 . S
C637 H649 0.929 . S
C638 C634 1.531 . S
C638 H650 0.960 1_545 S
C638 H651 0.962 . S
C638 H652 0.960 . S
C639 C636 1.511 . S
C639 H653 0.961 . S
C639 H654 0.961 . S
C639 H655 0.961 . S
C640 C641 1.370 . S
C640 C642 1.363 . S
C640 H656 0.931 . S
C641 C640 1.370 . S
C641 C645 1.408 . S
C642 C640 1.363 . S
C642 C643 1.370 . S
C642 C646 1.524 . S
C643 C635 1.503 1_565 S
C643 C642 1.370 . S
C643 C644 1.403 . S
C644 C643 1.403 . S
C644 C645 1.404 . S
C644 C647 1.539 . S
C645 C641 1.408 . S
C645 C644 1.404 . S
C645 H657 0.930 . S
C646 C642 1.524 . S
C646 H658 0.956 . S
C646 H659 0.938 1_565 S
C646 H660 0.961 . S
C647 C644 1.539 . S
C647 H661 0.958 . S
C647 H662 0.961 . S
C647 H663 0.960 1_565 S
H648 C632 0.931 . S
H649 C637 0.929 . S
H650 C638 0.960 1_565 S
H651 C638 0.962 . S
H652 C638 0.960 . S
H653 C639 0.961 . S
H654 C639 0.961 . S
H655 C639 0.961 . S
H656 C640 0.931 . S
H657 C645 0.930 . S
H658 C646 0.956 . S
H659 C646 0.938 1_545 S
H660 C646 0.961 . S
H661 C647 0.958 . S
H662 C647 0.961 . S
H663 C647 0.960 1_545 S
C664 C665 1.391 . S
C664 C666 1.394 . S
C664 H680 0.931 . S
C665 C664 1.391 . S
C665 C669 1.376 . S
C666 C664 1.394 . S
C666 C667 1.369 . S
C666 C670 1.531 . S
C667 C666 1.369 . S
C667 C668 1.410 . S
C667 C675 1.503 1_455 S
C668 C667 1.410 . S
C668 C669 1.392 . S
C668 C671 1.511 . S
C669 C665 1.376 . S
C669 C668 1.392 . S
C669 H681 0.929 . S
C670 C666 1.531 . S
C670 H682 0.960 1_455 S
C670 H683 0.962 . S
C670 H684 0.960 . S
C671 C668 1.511 . S
C671 H685 0.961 . S
C671 H686 0.961 1_455 S
C671 H687 0.961 . S
C672 C673 1.370 . S
C672 C674 1.363 . S
C672 H688 0.931 . S
C673 C672 1.370 . S
C673 C677 1.408 . S
C674 C672 1.363 . S
C674 C675 1.370 . S
C674 C678 1.524 . S
C675 C667 1.503 1_655 S
C675 C674 1.370 . S
C675 C676 1.403 . S
C676 C675 1.403 . S
C676 C677 1.404 . S
C676 C679 1.539 . S
C677 C673 1.408 . S
C677 C676 1.404 . S
C677 H689 0.930 . S
C678 C674 1.524 . S
C678 H690 0.956 1_655 S
C678 H691 0.961 1_655 S
C678 H692 0.961 . S
C679 C676 1.539 . S
C679 H693 0.958 . S
C679 H694 0.961 . S
C679 H695 0.960 . S
H680 C664 0.931 . S
H681 C669 0.929 . S
H682 C670 0.960 1_655 S
H683 C670 0.962 . S
H684 C670 0.960 . S
H685 C671 0.961 . S
H686 C671 0.961 1_655 S
H687 C671 0.961 . S
H688 C672 0.931 . S
H689 C677 0.930 . S
H690 C678 0.956 1_455 S
H691 C678 0.961 1_455 S
H692 C678 0.961 . S
H693 C679 0.958 . S
H694 C679 0.961 . S
H695 C679 0.960 . S
C185 N173 1.759 . S
C193 N12 1.758 . S
C217 N35 1.733 . S
C225 N104 1.763 . S
C249 N58 1.769 . S
C257 N127 1.742 . S
C281 N150 1.767 . S
C289 N81 1.758 . S
C313 N25 1.640 . S
C321 C16 1.719 . S
C345 C39 1.717 . S
C353 N48 1.625 . S
C377 N71 1.666 . S
C385 C62 1.721 . S
C409 C85 1.696 . S
C417 N2 1.638 . S
C441 N163 1.661 . S
C449 C108 1.713 . S
C473 C131 1.703 . S
C481 N94 1.622 . S
C505 N117 1.591 . S
C513 C154 1.707 . S
C537 N140 1.659 . S
C545 C177 1.715 . S
C569 C53 1.809 . S
C577 C7 1.833 . S
C601 C76 1.819 . S
C609 C30 1.823 . S
C633 C145 1.820 . S
C641 C99 1.823 . S
C665 C168 1.809 . S
C673 C122 1.833 . S
