# Generated by pormake.
# Topology fst, (5)-cn, num edge types: 1
# Building blocks:
#     Node 0, Type 0, BuildingBlock: BEQFEK_clean_sbu_0, # of connection points: 5
#     Node 1, Type 0, BuildingBlock: BEQFEK_clean_sbu_0, # of connection points: 5
#     Node 2, Type 0, BuildingBlock: BEQFEK_clean_sbu_0, # of connection points: 5
#     Node 3, Type 0, BuildingBlock: BEQFEK_clean_sbu_0, # of connection points: 5
#     Node 4, Type 0, BuildingBlock: BEQFEK_clean_sbu_0, # of connection points: 5
#     Node 5, Type 0, BuildingBlock: BEQFEK_clean_sbu_0, # of connection points: 5
#     Node 6, Type 0, BuildingBlock: BEQFEK_clean_sbu_0, # of connection points: 5
#     Node 7, Type 0, BuildingBlock: BEQFEK_clean_sbu_0, # of connection points: 5
#     Node 8, Type 0, BuildingBlock: BEQFEK_clean_sbu_0, # of connection points: 5
#     Node 9, Type 0, BuildingBlock: BEQFEK_clean_sbu_0, # of connection points: 5
#     Node 10, Type 0, BuildingBlock: BEQFEK_clean_sbu_0, # of connection points: 5
#     Node 11, Type 0, BuildingBlock: BEQFEK_clean_sbu_0, # of connection points: 5
#     Edge 12, Type (0, 0), BuildingBlock: MIFKUJ_clean_linker_0, # of connection points: 2
#     Edge 13, Type (0, 0), BuildingBlock: MIFKUJ_clean_linker_0, # of connection points: 2
#     Edge 14, Type (0, 0), BuildingBlock: MIFKUJ_clean_linker_0, # of connection points: 2
#     Edge 15, Type (0, 0), BuildingBlock: MIFKUJ_clean_linker_0, # of connection points: 2
#     Edge 16, Type (0, 0), BuildingBlock: MIFKUJ_clean_linker_0, # of connection points: 2
#     Edge 17, Type (0, 0), BuildingBlock: MIFKUJ_clean_linker_0, # of connection points: 2
#     Edge 18, Type (0, 0), BuildingBlock: MIFKUJ_clean_linker_0, # of connection points: 2
#     Edge 19, Type (0, 0), BuildingBlock: MIFKUJ_clean_linker_0, # of connection points: 2
#     Edge 20, Type (0, 0), BuildingBlock: MIFKUJ_clean_linker_0, # of connection points: 2
#     Edge 21, Type (0, 0), BuildingBlock: MIFKUJ_clean_linker_0, # of connection points: 2
#     Edge 22, Type (0, 0), BuildingBlock: MIFKUJ_clean_linker_0, # of connection points: 2
#     Edge 23, Type (0, 0), BuildingBlock: MIFKUJ_clean_linker_0, # of connection points: 2
#     Edge 24, Type (0, 0), BuildingBlock: MIFKUJ_clean_linker_0, # of connection points: 2
#     Edge 25, Type (0, 0), BuildingBlock: MIFKUJ_clean_linker_0, # of connection points: 2
#     Edge 26, Type (0, 0), BuildingBlock: MIFKUJ_clean_linker_0, # of connection points: 2
#     Edge 27, Type (0, 0), BuildingBlock: MIFKUJ_clean_linker_0, # of connection points: 2
#     Edge 28, Type (0, 0), BuildingBlock: MIFKUJ_clean_linker_0, # of connection points: 2
#     Edge 29, Type (0, 0), BuildingBlock: MIFKUJ_clean_linker_0, # of connection points: 2
#     Edge 30, Type (0, 0), BuildingBlock: MIFKUJ_clean_linker_0, # of connection points: 2
#     Edge 31, Type (0, 0), BuildingBlock: MIFKUJ_clean_linker_0, # of connection points: 2
#     Edge 32, Type (0, 0), BuildingBlock: MIFKUJ_clean_linker_0, # of connection points: 2
#     Edge 33, Type (0, 0), BuildingBlock: MIFKUJ_clean_linker_0, # of connection points: 2
#     Edge 34, Type (0, 0), BuildingBlock: MIFKUJ_clean_linker_0, # of connection points: 2
#     Edge 35, Type (0, 0), BuildingBlock: MIFKUJ_clean_linker_0, # of connection points: 2
#     Edge 36, Type (0, 0), BuildingBlock: MIFKUJ_clean_linker_0, # of connection points: 2
#     Edge 37, Type (0, 0), BuildingBlock: MIFKUJ_clean_linker_0, # of connection points: 2
#     Edge 38, Type (0, 0), BuildingBlock: MIFKUJ_clean_linker_0, # of connection points: 2
#     Edge 39, Type (0, 0), BuildingBlock: MIFKUJ_clean_linker_0, # of connection points: 2
#     Edge 40, Type (0, 0), BuildingBlock: MIFKUJ_clean_linker_0, # of connection points: 2
#     Edge 41, Type (0, 0), BuildingBlock: MIFKUJ_clean_linker_0, # of connection points: 2
# Relax obj value: 0.025
# Max RMSD: 0.072
# Mean RMSD: 0.072
data_MOF--net-fst--node1-BEQFEK_clean_sbu_0--edge1-MIFKUJ_clean_linker_0
_symmetry_space_group_name_H-M    P1
_symmetry_Int_Tables_number       1
_symmetry_cell_setting            triclinic
loop_
_symmetry_equiv_pos_as_xyz
'x, y, z'
_cell_length_a     96.269772
_cell_length_b     96.26269
_cell_length_c     24.015462
_cell_angle_alpha  89.995668
_cell_angle_beta   90.009932
_cell_angle_gamma 119.99508
loop_
_atom_site_label
_atom_site_type_symbol
_atom_site_fract_x
_atom_site_fract_y
_atom_site_fract_z
_atom_type_partial_charge
Co0 Co 0.11282 0.45625 0.22903 0.0
Co1 Co 0.11499 0.45843 0.09815 0.0
C2 C 0.08439 0.43581 0.15468 0.0
O3 O 0.09101 0.44075 0.20206 0.0
O4 O 0.09227 0.44133 0.1096 0.0
C5 C 0.10262 0.44241 0.33883 0.0
O6 O 0.0895 0.43188 0.31308 0.0
C7 C 0.11434 0.45091 0.97814 0.0
C8 C 0.13188 0.4748 0.94521 0.0
C9 C 0.1216 0.45908 0.92915 0.0
N10 N 0.1201 0.46139 0.0207 0.0
N11 N 0.13054 0.47563 0.00063 0.0
C12 C 0.10285 0.43338 0.98549 0.0
H13 H 0.10394 0.42953 0.02808 0.0
H14 H 0.10511 0.42626 0.95417 0.0
H15 H 0.09042 0.43107 0.98016 0.0
C16 C 0.1396 0.44984 0.2121 0.0
N17 N 0.12828 0.45284 0.19218 0.0
N18 N 0.12924 0.45369 0.13749 0.0
C19 C 0.14129 0.45135 0.12083 0.0
C20 C 0.14825 0.44881 0.16759 0.0
C21 C 0.14171 0.44763 0.27259 0.0
H22 H 0.13003 0.43855 0.29046 0.0
H23 H 0.15058 0.44365 0.27935 0.0
H24 H 0.14565 0.45911 0.29488 0.0
O25 O 0.11694 0.47834 0.21577 0.0
O26 O 0.11774 0.47922 0.12351 0.0
H27 H 0.15776 0.45189 0.05772 0.0
H28 H 0.13707 0.44339 0.03622 0.0
C29 C 0.14681 0.45286 0.0617 0.0
H30 H 0.14943 0.46466 0.04502 0.0
H31 H 0.13677 0.48595 0.02487 0.0
O32 O 0.11391 0.45359 0.31095 0.0
C33 C 0.11844 0.48576 0.17027 0.0
Co34 Co 0.65699 0.1141 0.25118 0.0
Co35 Co 0.65709 0.11471 0.12037 0.0
C36 C 0.64969 0.08497 0.18194 0.0
O37 O 0.6513 0.09214 0.22812 0.0
O38 O 0.65179 0.09224 0.13561 0.0
C39 C 0.66695 0.10902 0.35863 0.0
O40 O 0.67262 0.10126 0.3303 0.0
C41 C 0.66278 0.1136 0.99793 0.0
C42 C 0.65682 0.13182 0.96925 0.0
C43 C 0.66147 0.12118 0.9504 0.0
N44 N 0.65908 0.11962 0.04258 0.0
N45 N 0.65559 0.13051 0.02488 0.0
C46 C 0.66662 0.10036 0.00067 0.0
H47 H 0.6619 0.09333 0.03938 0.0
H48 H 0.67984 0.10563 0.00041 0.0
H49 H 0.66156 0.0923 0.96412 0.0
C50 C 0.68979 0.14166 0.23278 0.0
N51 N 0.67573 0.12962 0.21381 0.0
N52 N 0.67594 0.12967 0.159 0.0
C53 C 0.69023 0.14168 0.14131 0.0
C54 C 0.69948 0.14969 0.1875 0.0
C55 C 0.69392 0.14507 0.29321 0.0
H56 H 0.68427 0.14602 0.31505 0.0
H57 H 0.69467 0.13493 0.31179 0.0
H58 H 0.70556 0.15619 0.29976 0.0
O59 O 0.63868 0.11748 0.23587 0.0
O60 O 0.63869 0.11714 0.14368 0.0
H61 H 0.68612 0.14979 0.06359 0.0
H62 H 0.70685 0.15605 0.07587 0.0
C63 C 0.69439 0.14607 0.08136 0.0
H64 H 0.69275 0.13542 0.05793 0.0
H65 H 0.65218 0.13697 0.05093 0.0
O66 O 0.66019 0.11558 0.33282 0.0
C67 C 0.63268 0.11823 0.18951 0.0
Co68 Co 0.54411 0.6569 0.23171 0.0
Co69 Co 0.54255 0.65736 0.10075 0.0
C70 C 0.56582 0.65058 0.1581 0.0
O71 O 0.56113 0.6526 0.20544 0.0
O72 O 0.55953 0.65173 0.1129 0.0
C73 C 0.55871 0.66939 0.33943 0.0
O74 O 0.57096 0.6803 0.31086 0.0
C75 C 0.5494 0.66176 0.97936 0.0
C76 C 0.52886 0.66399 0.94972 0.0
C77 C 0.54262 0.66417 0.93195 0.0
N78 N 0.54009 0.66032 0.02329 0.0
N79 N 0.52776 0.6615 0.00507 0.0
C80 C 0.56486 0.66168 0.98356 0.0
H81 H 0.57185 0.66906 0.01967 0.0
H82 H 0.5721 0.66636 0.94503 0.0
H83 H 0.56222 0.64921 0.9909 0.0
C84 C 0.54744 0.68925 0.21622 0.0
N85 N 0.54623 0.67554 0.19657 0.0
N86 N 0.54669 0.67609 0.14171 0.0
C87 C 0.54874 0.69037 0.12499 0.0
C88 C 0.54912 0.69908 0.17149 0.0
C89 C 0.54549 0.69228 0.27603 0.0
H90 H 0.53796 0.6808 0.29818 0.0
H91 H 0.55747 0.69872 0.29605 0.0
H92 H 0.53992 0.69993 0.27963 0.0
O93 O 0.52271 0.63814 0.21579 0.0
O94 O 0.52175 0.63881 0.12363 0.0
H95 H 0.53904 0.69152 0.04624 0.0
H96 H 0.55763 0.70924 0.06342 0.0
C97 C 0.55096 0.69594 0.06577 0.0
H98 H 0.55764 0.69125 0.04226 0.0
H99 H 0.51867 0.6608 0.03066 0.0
O100 O 0.54627 0.65892 0.31403 0.0
C101 C 0.51538 0.6324 0.17003 0.0
Co102 Co 0.88711 0.54324 0.2448 0.0
Co103 Co 0.88551 0.54346 0.11403 0.0
C104 C 0.9155 0.56586 0.17287 0.0
O105 O 0.90861 0.55996 0.21922 0.0
O106 O 0.90803 0.56083 0.12679 0.0
C107 C 0.89059 0.55795 0.35221 0.0
O108 O 0.89441 0.57092 0.32299 0.0
C109 C 0.88651 0.55057 0.99264 0.0
C110 C 0.86451 0.52874 0.96509 0.0
C111 C 0.87712 0.54309 0.94605 0.0
N112 N 0.87965 0.54101 0.03708 0.0
N113 N 0.86659 0.52797 0.02009 0.0
C114 C 0.90111 0.56685 0.9958 0.0
H115 H 0.91195 0.5656 0.99332 0.0
H116 H 0.9014 0.5726 0.03617 0.0
H117 H 0.90139 0.57459 0.96104 0.0
C118 C 0.85864 0.54743 0.23179 0.0
N119 N 0.87092 0.54609 0.21089 0.0
N120 N 0.87082 0.54705 0.1562 0.0
C121 C 0.8587 0.54943 0.14074 0.0
C122 C 0.85053 0.54964 0.18801 0.0
C123 C 0.85394 0.54526 0.29193 0.0
H124 H 0.85698 0.53673 0.31185 0.0
H125 H 0.86059 0.557 0.31345 0.0
H126 H 0.8409 0.54074 0.29675 0.0
O127 O 0.8841 0.52189 0.22687 0.0
O128 O 0.88351 0.52254 0.13466 0.0
H129 H 0.84828 0.54028 0.06104 0.0
H130 H 0.84838 0.55839 0.08064 0.0
C131 C 0.85535 0.55205 0.082 0.0
H132 H 0.86676 0.55924 0.0591 0.0
H133 H 0.85899 0.51857 0.04633 0.0
O134 O 0.88684 0.54492 0.32708 0.0
C135 C 0.88301 0.51536 0.17979 0.0
Co136 Co 0.34393 0.88739 0.24504 0.0
Co137 Co 0.344 0.88675 0.11454 0.0
C138 C 0.35116 0.91644 0.17341 0.0
O139 O 0.34965 0.90934 0.21971 0.0
O140 O 0.349 0.90911 0.12725 0.0
C141 C 0.33967 0.89691 0.35488 0.0
O142 O 0.34223 0.91014 0.33004 0.0
C143 C 0.33855 0.888 0.9935 0.0
C144 C 0.34143 0.86779 0.96435 0.0
C145 C 0.33818 0.87952 0.94606 0.0
N146 N 0.34186 0.88149 0.03751 0.0
N147 N 0.34361 0.86948 0.01969 0.0
C148 C 0.3347 0.90121 0.99805 0.0
H149 H 0.32949 0.90092 0.03953 0.0
H150 H 0.32617 0.90015 0.96499 0.0
H151 H 0.34593 0.91291 0.99352 0.0
C152 C 0.31166 0.85908 0.22626 0.0
N153 N 0.32545 0.87159 0.20758 0.0
N154 N 0.3251 0.87193 0.1529 0.0
C155 C 0.31085 0.85995 0.13498 0.0
C156 C 0.30188 0.85124 0.1808 0.0
C157 C 0.30868 0.85403 0.28606 0.0
H158 H 0.31996 0.85605 0.30578 0.0
H159 H 0.3046 0.86144 0.30838 0.0
H160 H 0.29946 0.84119 0.29037 0.0
O161 O 0.36231 0.88406 0.2314 0.0
O162 O 0.36249 0.88452 0.13913 0.0
H163 H 0.31102 0.85096 0.05376 0.0
H164 H 0.29245 0.85026 0.07145 0.0
C165 C 0.30569 0.85739 0.07527 0.0
H166 H 0.30998 0.86911 0.05453 0.0
H167 H 0.34619 0.86234 0.04553 0.0
O168 O 0.33985 0.88586 0.32644 0.0
C169 C 0.36843 0.88343 0.18517 0.0
Co170 Co 0.45709 0.34384 0.2309 0.0
Co171 Co 0.45894 0.34516 0.09985 0.0
C172 C 0.43598 0.35189 0.16026 0.0
O173 O 0.44119 0.34996 0.20671 0.0
O174 O 0.44145 0.35006 0.11415 0.0
C175 C 0.44199 0.33634 0.33924 0.0
O176 O 0.42976 0.33557 0.31221 0.0
C177 C 0.45144 0.33801 0.97949 0.0
C178 C 0.47593 0.3478 0.9457 0.0
C179 C 0.45993 0.34019 0.93006 0.0
N180 N 0.46203 0.34406 0.02173 0.0
N181 N 0.47662 0.34992 0.00109 0.0
C182 C 0.43367 0.32955 0.9877 0.0
H183 H 0.4306 0.32535 0.0314 0.0
H184 H 0.42761 0.31922 0.95879 0.0
H185 H 0.42929 0.33804 0.97921 0.0
C186 C 0.45172 0.31125 0.20922 0.0
N187 N 0.45412 0.32553 0.19127 0.0
N188 N 0.45499 0.32599 0.13653 0.0
C189 C 0.45335 0.31202 0.11791 0.0
C190 C 0.45121 0.3022 0.16338 0.0
C191 C 0.44953 0.30631 0.26916 0.0
H192 H 0.44007 0.30822 0.28766 0.0
H193 H 0.44601 0.29352 0.27433 0.0
H194 H 0.46085 0.31397 0.2921 0.0
O195 O 0.47901 0.36227 0.2184 0.0
O196 O 0.47941 0.3634 0.1262 0.0
H197 H 0.46623 0.31896 0.04086 0.0
H198 H 0.45593 0.29768 0.05334 0.0
C199 C 0.45518 0.30873 0.05823 0.0
H200 H 0.4448 0.30748 0.03407 0.0
H201 H 0.48707 0.3553 0.02495 0.0
O202 O 0.45465 0.3395 0.31253 0.0
C203 C 0.4861 0.36885 0.17305 0.0
Co204 Co 0.54495 0.88585 0.10369 0.0
Co205 Co 0.54416 0.88304 0.23439 0.0
C206 C 0.56666 0.91374 0.17804 0.0
O207 O 0.56139 0.90738 0.13049 0.0
O208 O 0.56116 0.90571 0.22287 0.0
C209 C 0.5599 0.89177 0.9955 0.0
O210 O 0.57333 0.89818 0.0241 0.0
C211 C 0.55145 0.88451 0.35542 0.0
C212 C 0.53012 0.86228 0.38442 0.0
C213 C 0.54433 0.87527 0.40249 0.0
N214 N 0.54187 0.87721 0.31142 0.0
N215 N 0.52908 0.86403 0.32929 0.0
C216 C 0.56733 0.8996 0.3517 0.0
H217 H 0.57359 0.89955 0.31297 0.0
H218 H 0.57495 0.90098 0.38834 0.0
H219 H 0.56534 0.90999 0.34988 0.0
C220 C 0.55009 0.85794 0.11458 0.0
N221 N 0.54804 0.86967 0.13669 0.0
N222 N 0.54835 0.86887 0.1914 0.0
C223 C 0.55096 0.85682 0.20578 0.0
C224 C 0.55209 0.84946 0.15759 0.0
C225 C 0.55043 0.85518 0.05338 0.0
H226 H 0.54023 0.85539 0.0327 0.0
H227 H 0.56171 0.86502 0.03567 0.0
H228 H 0.54997 0.84367 0.04434 0.0
O229 O 0.52332 0.88237 0.12132 0.0
O230 O 0.52324 0.88081 0.21341 0.0
H231 H 0.53877 0.84536 0.28084 0.0
H232 H 0.55604 0.84347 0.26769 0.0
C233 C 0.5512 0.85172 0.26454 0.0
H234 H 0.55851 0.86241 0.29085 0.0
H235 H 0.51967 0.85614 0.30362 0.0
O236 O 0.54659 0.88568 0.02128 0.0
C237 C 0.51638 0.88071 0.16798 0.0
Co238 Co 0.66119 0.5473 0.13445 0.0
Co239 Co 0.65966 0.54359 0.26466 0.0
C240 C 0.65327 0.56752 0.20894 0.0
O241 O 0.65609 0.56365 0.16137 0.0
O242 O 0.65392 0.56061 0.25336 0.0
C243 C 0.65835 0.55606 0.02348 0.0
O244 O 0.6484 0.55984 0.04727 0.0
C245 C 0.66459 0.5504 0.38522 0.0
C246 C 0.66033 0.52708 0.41743 0.0
C247 C 0.66407 0.54235 0.43391 0.0
N248 N 0.66127 0.5403 0.34213 0.0
N249 N 0.65868 0.52638 0.36174 0.0
C250 C 0.66897 0.56757 0.37899 0.0
H251 H 0.67518 0.57237 0.33869 0.0
H252 H 0.67679 0.57494 0.41374 0.0
H253 H 0.65786 0.56836 0.37912 0.0
C254 C 0.69355 0.55186 0.1537 0.0
N255 N 0.67937 0.54952 0.17244 0.0
N256 N 0.679 0.54838 0.22709 0.0
C257 C 0.69301 0.54998 0.24493 0.0
C258 C 0.70269 0.55219 0.19894 0.0
C259 C 0.6982 0.55388 0.09351 0.0
H260 H 0.69043 0.54248 0.07115 0.0
H261 H 0.69617 0.56326 0.0749 0.0
H262 H 0.71096 0.55733 0.08783 0.0
O263 O 0.64241 0.52545 0.14534 0.0
O264 O 0.64176 0.5231 0.23728 0.0
H265 H 0.68786 0.53555 0.31784 0.0
H266 H 0.70875 0.55015 0.31019 0.0
C267 C 0.69641 0.54797 0.3043 0.0
H268 H 0.69459 0.55633 0.33101 0.0
H269 H 0.65581 0.51638 0.33699 0.0
O270 O 0.66535 0.55046 0.0532 0.0
C271 C 0.6361 0.51739 0.18947 0.0
Co272 Co 0.11538 0.66052 0.11667 0.0
Co273 Co 0.11628 0.65962 0.24667 0.0
C274 C 0.08654 0.65311 0.18921 0.0
O275 O 0.09359 0.6551 0.14253 0.0
O276 O 0.09388 0.65463 0.23496 0.0
C277 C 0.10422 0.6582 0.00516 0.0
O278 O 0.0903 0.64809 0.02746 0.0
C279 C 0.11496 0.66419 0.36805 0.0
C280 C 0.1355 0.66171 0.39602 0.0
C281 C 0.12352 0.66449 0.41506 0.0
N282 N 0.12162 0.66136 0.32347 0.0
N283 N 0.13384 0.65984 0.34055 0.0
C284 C 0.1015 0.6677 0.36453 0.0
H285 H 0.10191 0.67348 0.32412 0.0
H286 H 0.10212 0.67563 0.39916 0.0
H287 H 0.08992 0.65627 0.36707 0.0
C288 C 0.14376 0.69262 0.1364 0.0
N289 N 0.13133 0.67873 0.15464 0.0
N290 N 0.13111 0.67876 0.20935 0.0
C291 C 0.14312 0.69293 0.2278 0.0
C292 C 0.15168 0.70218 0.18222 0.0
C293 C 0.14866 0.69594 0.07652 0.0
H294 H 0.14646 0.68475 0.05561 0.0
H295 H 0.14132 0.70031 0.05539 0.0
H296 H 0.16153 0.70509 0.07219 0.0
O297 O 0.11856 0.64196 0.12798 0.0
O298 O 0.11836 0.6412 0.22022 0.0
H299 H 0.15243 0.69238 0.30804 0.0
H300 H 0.15296 0.71099 0.29244 0.0
C301 C 0.14587 0.69776 0.28782 0.0
H302 H 0.13421 0.69329 0.30925 0.0
H303 H 0.14113 0.65764 0.31414 0.0
O304 O 0.1166 0.66494 0.03594 0.0
C305 C 0.11928 0.63553 0.17338 0.0
Co306 Co 0.45589 0.11632 0.11375 0.0
Co307 Co 0.45677 0.11737 0.24374 0.0
C308 C 0.43396 0.08756 0.18537 0.0
O309 O 0.43937 0.09461 0.13892 0.0
O310 O 0.43943 0.0949 0.23139 0.0
C311 C 0.44921 0.10525 0.00209 0.0
O312 O 0.4472 0.09194 0.02469 0.0
C313 C 0.4505 0.1155 0.36495 0.0
C314 C 0.47237 0.13736 0.39324 0.0
C315 C 0.45817 0.12447 0.41196 0.0
N316 N 0.45981 0.12283 0.32051 0.0
N317 N 0.47287 0.13582 0.3378 0.0
C318 C 0.43425 0.10085 0.36147 0.0
H319 H 0.42812 0.10116 0.32275 0.0
H320 H 0.42679 0.09992 0.39804 0.0
H321 H 0.43562 0.09007 0.35993 0.0
C322 C 0.4514 0.14432 0.13057 0.0
N323 N 0.45319 0.1322 0.15011 0.0
N324 N 0.45275 0.13219 0.20482 0.0
C325 C 0.45034 0.14415 0.22192 0.0
C326 C 0.44952 0.15233 0.1755 0.0
C327 C 0.45264 0.14874 0.07027 0.0
H328 H 0.46241 0.14758 0.05043 0.0
H329 H 0.44123 0.14033 0.0491 0.0
H330 H 0.45503 0.16119 0.06458 0.0
O331 O 0.47755 0.11943 0.12753 0.0
O332 O 0.47742 0.11942 0.21979 0.0
H333 H 0.46012 0.15441 0.30126 0.0
H334 H 0.44173 0.15413 0.28464 0.0
C335 C 0.44818 0.1473 0.28143 0.0
H336 H 0.44131 0.13581 0.30418 0.0
H337 H 0.48209 0.14371 0.31153 0.0
O338 O 0.4531 0.11738 0.03284 0.0
C339 C 0.48435 0.12021 0.17381 0.0
Co340 Co 0.34008 0.45644 0.09898 0.0
Co341 Co 0.33965 0.45682 0.22975 0.0
C342 C 0.34705 0.43444 0.16929 0.0
O343 O 0.34562 0.44004 0.1229 0.0
O344 O 0.3448 0.43958 0.21544 0.0
C345 C 0.33062 0.44139 0.99144 0.0
O346 O 0.32562 0.42802 0.01964 0.0
C347 C 0.33684 0.45139 0.35272 0.0
C348 C 0.33422 0.47199 0.37887 0.0
C349 C 0.33488 0.45887 0.39926 0.0
N350 N 0.33706 0.45964 0.30709 0.0
N351 N 0.33559 0.47197 0.32324 0.0
C352 C 0.33994 0.43764 0.35154 0.0
H353 H 0.34929 0.43994 0.32017 0.0
H354 H 0.32878 0.42658 0.33929 0.0
H355 H 0.34403 0.43579 0.39263 0.0
C356 C 0.30737 0.4515 0.11603 0.0
N357 N 0.32134 0.45339 0.13549 0.0
N358 N 0.32086 0.45281 0.19025 0.0
C359 C 0.30638 0.45014 0.2073 0.0
C360 C 0.29742 0.4494 0.16095 0.0
C361 C 0.30411 0.45278 0.05586 0.0
H362 H 0.31507 0.46242 0.03567 0.0
H363 H 0.30082 0.44129 0.03476 0.0
H364 H 0.29418 0.45537 0.05064 0.0
O365 O 0.35842 0.478 0.11465 0.0
O366 O 0.35826 0.47763 0.2069 0.0
H367 H 0.30471 0.45922 0.28668 0.0
H368 H 0.28756 0.44021 0.26902 0.0
C369 C 0.30084 0.44747 0.26659 0.0
H370 H 0.30609 0.44121 0.28959 0.0
H371 H 0.33558 0.48042 0.29608 0.0
O372 O 0.33693 0.45468 0.01734 0.0
C373 C 0.3644 0.48468 0.16109 0.0
Co374 Co 0.88443 0.34004 0.10189 0.0
Co375 Co 0.8848 0.34088 0.23273 0.0
C376 C 0.91378 0.34692 0.16946 0.0
O377 O 0.90636 0.34517 0.12373 0.0
O378 O 0.90693 0.34545 0.2163 0.0
C379 C 0.88901 0.32958 0.99489 0.0
O380 O 0.89722 0.32443 0.02322 0.0
C381 C 0.88781 0.33801 0.35583 0.0
C382 C 0.86597 0.33816 0.38338 0.0
C383 C 0.87901 0.33722 0.40297 0.0
N384 N 0.88011 0.33912 0.31066 0.0
N385 N 0.86714 0.33929 0.32767 0.0
C386 C 0.90376 0.33889 0.3537 0.0
H387 H 0.91117 0.34705 0.3199 0.0
H388 H 0.90192 0.32676 0.34484 0.0
H389 H 0.91032 0.34329 0.39364 0.0
C390 C 0.85648 0.30777 0.12326 0.0
N391 N 0.86887 0.3218 0.14087 0.0
N392 N 0.86931 0.32189 0.19566 0.0
C393 C 0.85732 0.30777 0.21461 0.0
C394 C 0.84873 0.29842 0.16945 0.0
C395 C 0.85159 0.30392 0.06357 0.0
H396 H 0.85272 0.31466 0.04223 0.0
H397 H 0.85973 0.30051 0.04267 0.0
H398 H 0.83907 0.29388 0.05961 0.0
O399 O 0.88171 0.35878 0.11648 0.0
O400 O 0.88284 0.35952 0.20865 0.0
H401 H 0.84754 0.30811 0.29408 0.0
H402 H 0.8475 0.28976 0.27927 0.0
C403 C 0.85446 0.303 0.27467 0.0
H404 H 0.86605 0.30769 0.29683 0.0
H405 H 0.85907 0.34019 0.30102 0.0
O406 O 0.88238 0.33628 0.02058 0.0
C407 C 0.88158 0.36528 0.16248 0.0
H408 H 0.12554 0.62196 0.0834 0.0
H409 H 0.12742 0.59755 0.08184 0.0
H410 H 0.11809 0.59161 0.25849 0.0
H411 H 0.11666 0.61619 0.26074 0.0
H412 H 0.1408 0.58506 0.23314 0.0
H413 H 0.08844 0.56989 0.15975 0.0
H414 H 0.06943 0.57184 0.09585 0.0
H415 H 0.09184 0.56302 0.95631 0.0
H416 H 0.11111 0.56121 0.01937 0.0
H417 H 0.11605 0.50221 0.2596 0.0
H418 H 0.11805 0.52855 0.25904 0.0
H419 H 0.12783 0.53271 0.08264 0.0
H420 H 0.12551 0.5063 0.08255 0.0
H421 H 0.10593 0.54066 0.10536 0.0
H422 H 0.15752 0.55449 0.1797 0.0
H423 H 0.17638 0.55242 0.24401 0.0
H424 H 0.15535 0.56359 0.38213 0.0
H425 H 0.13622 0.56551 0.31872 0.0
C426 C 0.12393 0.61548 0.12195 0.0
C427 C 0.12085 0.62098 0.17213 0.0
C428 C 0.12496 0.60149 0.12096 0.0
C429 C 0.12265 0.5926 0.16992 0.0
C430 C 0.1199 0.59825 0.22019 0.0
C431 C 0.11903 0.6123 0.22134 0.0
C432 C 0.12282 0.57725 0.16889 0.0
C433 C 0.13306 0.57528 0.2056 0.0
C434 C 0.11298 0.56462 0.1321 0.0
C435 C 0.10131 0.56557 0.09422 0.0
C436 C 0.08937 0.56847 0.11541 0.0
C437 C 0.07854 0.56954 0.07935 0.0
C438 C 0.07945 0.5676 0.02204 0.0
C439 C 0.09116 0.56454 0.0007 0.0
C440 C 0.10203 0.56348 0.03658 0.0
C441 C 0.11875 0.50878 0.22076 0.0
C442 C 0.12058 0.50211 0.17112 0.0
C443 C 0.11996 0.52388 0.22054 0.0
C444 C 0.12323 0.53268 0.17085 0.0
C445 C 0.12527 0.52614 0.12144 0.0
C446 C 0.12397 0.51103 0.12154 0.0
C447 C 0.12387 0.54842 0.16979 0.0
C448 C 0.11375 0.55045 0.13272 0.0
C449 C 0.1338 0.56108 0.20631 0.0
C450 C 0.14534 0.56 0.2445 0.0
C451 C 0.15684 0.55639 0.22383 0.0
C452 C 0.1676 0.55526 0.26012 0.0
C453 C 0.16704 0.55784 0.31713 0.0
C454 C 0.15576 0.56159 0.33796 0.0
C455 C 0.14497 0.56271 0.30186 0.0
H456 H 0.17538 0.55696 0.34516 0.0
H457 H 0.07106 0.56843 0.99419 0.0
H458 H 0.61481 0.11857 0.27794 0.0
H459 H 0.59028 0.12021 0.27484 0.0
H460 H 0.59321 0.12331 0.09565 0.0
H461 H 0.6178 0.12186 0.09825 0.0
H462 H 0.58499 0.1442 0.13862 0.0
H463 H 0.56786 0.08834 0.15731 0.0
H464 H 0.56696 0.06456 0.19955 0.0
H465 H 0.54985 0.07351 0.35287 0.0
H466 H 0.55086 0.0975 0.31176 0.0
H467 H 0.50354 0.12289 0.08507 0.0
H468 H 0.52948 0.12395 0.08773 0.0
H469 H 0.5273 0.12158 0.26709 0.0
H470 H 0.50143 0.12044 0.26498 0.0
H471 H 0.53525 0.10051 0.22333 0.0
H472 H 0.55207 0.15639 0.2027 0.0
H473 H 0.55275 0.17987 0.15872 0.0
H474 H 0.5701 0.17046 0.00682 0.0
H475 H 0.56931 0.14677 0.04968 0.0
C476 C 0.6103 0.11969 0.23787 0.0
C477 C 0.61823 0.11997 0.18834 0.0
C478 C 0.59625 0.12057 0.23617 0.0
C479 C 0.58983 0.12169 0.18495 0.0
C480 C 0.59794 0.12242 0.13559 0.0
C481 C 0.61197 0.12152 0.13722 0.0
C482 C 0.57444 0.1217 0.18266 0.0
C483 C 0.57406 0.13456 0.15658 0.0
C484 C 0.56025 0.10924 0.20682 0.0
C485 C 0.5596 0.09481 0.23164 0.0
C486 C 0.56403 0.08531 0.20018 0.0
C487 C 0.56348 0.07178 0.22389 0.0
C488 C 0.5584 0.06755 0.27891 0.0
C489 C 0.55381 0.07682 0.31029 0.0
C490 C 0.55436 0.09038 0.28679 0.0
C491 C 0.50862 0.12268 0.12511 0.0
C492 C 0.50038 0.12156 0.1748 0.0
C493 C 0.52347 0.12334 0.12655 0.0
C494 C 0.53034 0.12292 0.17765 0.0
C495 C 0.5222 0.1219 0.22723 0.0
C496 C 0.50741 0.12129 0.22587 0.0
C497 C 0.54581 0.12306 0.17962 0.0
C498 C 0.54618 0.11018 0.20551 0.0
C499 C 0.55995 0.13546 0.15505 0.0
C500 C 0.56047 0.14971 0.12923 0.0
C501 C 0.5559 0.15925 0.15977 0.0
C502 C 0.55633 0.17261 0.13507 0.0
C503 C 0.56142 0.17663 0.07996 0.0
C504 C 0.56614 0.16731 0.04948 0.0
C505 C 0.56571 0.15393 0.07397 0.0
H506 H 0.56175 0.18698 0.06092 0.0
H507 H 0.55797 0.05707 0.29719 0.0
H508 H 0.38132 0.50351 0.0724 0.0
H509 H 0.40649 0.52915 0.07496 0.0
H510 H 0.40587 0.52774 0.25447 0.0
H511 H 0.38085 0.50211 0.25248 0.0
H512 H 0.41476 0.55835 0.12072 0.0
H513 H 0.44435 0.5425 0.30055 0.0
H514 H 0.44331 0.51855 0.34216 0.0
H515 H 0.42832 0.49397 0.18542 0.0
H516 H 0.42952 0.51784 0.14267 0.0
H517 H 0.49782 0.61504 0.2603 0.0
H518 H 0.47149 0.59067 0.26007 0.0
H519 H 0.47037 0.59212 0.08068 0.0
H520 H 0.4965 0.61656 0.08044 0.0
H521 H 0.46208 0.56163 0.21582 0.0
H522 H 0.43203 0.57726 0.03642 0.0
H523 H 0.43289 0.6011 0.99466 0.0
H524 H 0.44875 0.62613 0.15035 0.0
H525 H 0.44778 0.60239 0.19323 0.0
C526 C 0.38649 0.50868 0.11246 0.0
C527 C 0.37911 0.50068 0.16222 0.0
C528 C 0.40085 0.52336 0.11381 0.0
C529 C 0.40814 0.53023 0.16486 0.0
C530 C 0.40057 0.52252 0.2146 0.0
C531 C 0.38623 0.50787 0.21333 0.0
C532 C 0.42384 0.5453 0.16619 0.0
C533 C 0.42517 0.55904 0.14091 0.0
C534 C 0.4373 0.54624 0.19363 0.0
C535 C 0.43686 0.53191 0.21861 0.0
C536 C 0.4409 0.53201 0.27491 0.0
C537 C 0.44028 0.51845 0.2987 0.0
C538 C 0.4357 0.50473 0.2665 0.0
C539 C 0.43181 0.50458 0.21037 0.0
C540 C 0.43245 0.51812 0.18636 0.0
C541 C 0.49194 0.61023 0.22079 0.0
C542 C 0.49928 0.6178 0.1704 0.0
C543 C 0.47691 0.59627 0.22075 0.0
C544 C 0.46889 0.58966 0.17042 0.0
C545 C 0.4762 0.59715 0.12008 0.0
C546 C 0.4912 0.61111 0.12005 0.0
C547 C 0.45303 0.57474 0.17034 0.0
C548 C 0.45167 0.56099 0.19579 0.0
C549 C 0.43955 0.5738 0.143 0.0
C550 C 0.43998 0.58809 0.11784 0.0
C551 C 0.43564 0.58783 0.06179 0.0
C552 C 0.43616 0.60133 0.03792 0.0
C553 C 0.44093 0.61514 0.06978 0.0
C554 C 0.44513 0.61545 0.12565 0.0
C555 C 0.44462 0.60198 0.14973 0.0
H556 H 0.44133 0.62558 0.05121 0.0
H557 H 0.43519 0.49423 0.28501 0.0
H558 H 0.87597 0.37981 0.07388 0.0
H559 H 0.87459 0.4045 0.07475 0.0
H560 H 0.88324 0.40888 0.25187 0.0
H561 H 0.88424 0.38407 0.25169 0.0
H562 H 0.86062 0.41576 0.2267 0.0
H563 H 0.91328 0.43112 0.15647 0.0
H564 H 0.93261 0.4296 0.09297 0.0
H565 H 0.91152 0.44032 0.9539 0.0
H566 H 0.89192 0.4417 0.01651 0.0
H567 H 0.88551 0.49793 0.26542 0.0
H568 H 0.88382 0.4718 0.26013 0.0
H569 H 0.87508 0.47005 0.08337 0.0
H570 H 0.8771 0.49635 0.08801 0.0
H571 H 0.89661 0.46134 0.10491 0.0
H572 H 0.84468 0.44725 0.17672 0.0
H573 H 0.82561 0.44894 0.24103 0.0
H574 H 0.84554 0.436 0.37798 0.0
H575 H 0.86488 0.43444 0.31459 0.0
C576 C 0.87753 0.386 0.11305 0.0
C577 C 0.8803 0.37999 0.16266 0.0
C578 C 0.8768 0.40015 0.11344 0.0
C579 C 0.87903 0.40867 0.16327 0.0
C580 C 0.88149 0.40253 0.21294 0.0
C581 C 0.88211 0.38835 0.21268 0.0
C582 C 0.87902 0.42409 0.16384 0.0
C583 C 0.8686 0.42578 0.20047 0.0
C584 C 0.88917 0.43705 0.12871 0.0
C585 C 0.90103 0.43635 0.0911 0.0
C586 C 0.9127 0.43304 0.1123 0.0
C587 C 0.92371 0.43222 0.07647 0.0
C588 C 0.92327 0.43482 0.01942 0.0
C589 C 0.91183 0.43829 0.99809 0.0
C590 C 0.90078 0.43911 0.03373 0.0
C591 C 0.88314 0.49197 0.22544 0.0
C592 C 0.88143 0.49925 0.17716 0.0
C593 C 0.88211 0.47698 0.22252 0.0
C594 C 0.87913 0.46887 0.17144 0.0
C595 C 0.87738 0.47608 0.12322 0.0
C596 C 0.87851 0.49111 0.12601 0.0
C597 C 0.87827 0.45306 0.16805 0.0
C598 C 0.88855 0.45129 0.13091 0.0
C599 C 0.86801 0.44005 0.20281 0.0
C600 C 0.85631 0.44086 0.24095 0.0
C601 C 0.84506 0.44487 0.22061 0.0
C602 C 0.8342 0.44579 0.25689 0.0
C603 C 0.83438 0.44261 0.31358 0.0
C604 C 0.84541 0.43847 0.33407 0.0
C605 C 0.85632 0.43755 0.29797 0.0
H606 H 0.82597 0.44334 0.3416 0.0
H607 H 0.9318 0.43417 0.99175 0.0
H608 H 0.38497 0.88107 0.27434 0.0
H609 H 0.40933 0.87912 0.27236 0.0
H610 H 0.40914 0.88016 0.0928 0.0
H611 H 0.38468 0.88184 0.09425 0.0
H612 H 0.41626 0.85818 0.12966 0.0
H613 H 0.43397 0.91356 0.16718 0.0
H614 H 0.43461 0.93621 0.21741 0.0
H615 H 0.44884 0.92232 0.36722 0.0
H616 H 0.44808 0.89944 0.31804 0.0
H617 H 0.49777 0.88009 0.08038 0.0
H618 H 0.47186 0.87898 0.0847 0.0
H619 H 0.47265 0.87685 0.26399 0.0
H620 H 0.49858 0.87809 0.26024 0.0
H621 H 0.46497 0.89881 0.22884 0.0
H622 H 0.4481 0.84375 0.18894 0.0
H623 H 0.44774 0.82148 0.13705 0.0
H624 H 0.43229 0.83519 0.98972 0.0
H625 H 0.43277 0.8577 0.04055 0.0
C626 C 0.39006 0.88082 0.2344 0.0
C627 C 0.3829 0.88171 0.18447 0.0
C628 C 0.40402 0.87976 0.23335 0.0
C629 C 0.41116 0.8797 0.18242 0.0
C630 C 0.40385 0.88021 0.13256 0.0
C631 C 0.38989 0.88124 0.13353 0.0
C632 C 0.42641 0.87937 0.18096 0.0
C633 C 0.42696 0.86716 0.15085 0.0
C634 C 0.44029 0.89092 0.20944 0.0
C635 C 0.4408 0.90469 0.23908 0.0
C636 C 0.43711 0.91526 0.21095 0.0
C637 C 0.43752 0.92816 0.23921 0.0
C638 C 0.44171 0.93068 0.29551 0.0
C639 C 0.44556 0.92034 0.32363 0.0
C640 C 0.44516 0.90741 0.29558 0.0
C641 C 0.4924 0.87928 0.12074 0.0
C642 C 0.50029 0.8792 0.16996 0.0
C643 C 0.47755 0.87859 0.12311 0.0
C644 C 0.47028 0.87773 0.17467 0.0
C645 C 0.47805 0.87752 0.22378 0.0
C646 C 0.49287 0.87818 0.22149 0.0
C647 C 0.45483 0.87761 0.17758 0.0
C648 C 0.45425 0.88978 0.20787 0.0
C649 C 0.44096 0.86606 0.14904 0.0
C650 C 0.44062 0.85251 0.11843 0.0
C651 C 0.44475 0.8421 0.14536 0.0
C652 C 0.4445 0.82941 0.11616 0.0
C653 C 0.44004 0.82694 0.06009 0.0
C654 C 0.43577 0.83713 0.03314 0.0
C655 C 0.43601 0.84984 0.06214 0.0
H656 H 0.43985 0.81712 0.03755 0.0
H657 H 0.44202 0.94067 0.31732 0.0
H658 H 0.61943 0.50136 0.09581 0.0
H659 H 0.59474 0.47532 0.09123 0.0
H660 H 0.59517 0.47105 0.26994 0.0
H661 H 0.61991 0.49686 0.27494 0.0
H662 H 0.58711 0.44299 0.22054 0.0
H663 H 0.57116 0.48292 0.20762 0.0
H664 H 0.57143 0.50676 0.16869 0.0
H665 H 0.55607 0.48326 0.01023 0.0
H666 H 0.55592 0.45935 0.04805 0.0
H667 H 0.50495 0.384 0.26405 0.0
H668 H 0.53124 0.40846 0.26489 0.0
H669 H 0.5301 0.41093 0.08575 0.0
H670 H 0.50387 0.38663 0.08439 0.0
H671 H 0.53878 0.4396 0.13334 0.0
H672 H 0.5538 0.39915 0.14806 0.0
H673 H 0.55344 0.37538 0.18799 0.0
H674 H 0.57031 0.39982 0.34427 0.0
H675 H 0.57055 0.42368 0.30548 0.0
C676 C 0.61433 0.49484 0.13412 0.0
C677 C 0.62161 0.50127 0.18577 0.0
C678 C 0.60019 0.47998 0.13144 0.0
C679 C 0.59301 0.47134 0.18034 0.0
C680 C 0.60049 0.47751 0.23171 0.0
C681 C 0.61462 0.49233 0.23445 0.0
C682 C 0.57748 0.45608 0.17834 0.0
C683 C 0.57649 0.44227 0.20199 0.0
C684 C 0.56371 0.45509 0.15325 0.0
C685 C 0.5637 0.46942 0.1305 0.0
C686 C 0.56796 0.48289 0.16435 0.0
C687 C 0.56807 0.4964 0.14251 0.0
C688 C 0.56381 0.49654 0.08698 0.0
C689 C 0.55939 0.48315 0.05322 0.0
C690 C 0.55928 0.4696 0.07484 0.0
C691 C 0.51032 0.3897 0.22481 0.0
C692 C 0.50227 0.38334 0.17418 0.0
C693 C 0.52537 0.40365 0.22535 0.0
C694 C 0.53266 0.41145 0.17532 0.0
C695 C 0.52469 0.4051 0.12481 0.0
C696 C 0.50969 0.39117 0.12418 0.0
C697 C 0.54839 0.4265 0.17556 0.0
C698 C 0.5494 0.44028 0.15168 0.0
C699 C 0.56215 0.42746 0.2006 0.0
C700 C 0.56204 0.41315 0.22402 0.0
C701 C 0.5573 0.39941 0.19108 0.0
C702 C 0.55714 0.38593 0.21348 0.0
C703 C 0.56181 0.38607 0.26868 0.0
C704 C 0.56668 0.39972 0.30155 0.0
C705 C 0.56684 0.41323 0.27936 0.0
H706 H 0.56168 0.37562 0.28594 0.0
H707 H 0.5639 0.50702 0.07014 0.0
H708 H 0.28789 0.46707 0.22067 0.0
H709 H 0.26143 0.46476 0.22183 0.0
H710 H 0.24452 0.4265 0.10107 0.0
H711 H 0.27116 0.42891 0.09965 0.0
H712 H 0.23453 0.44731 0.07575 0.0
H713 H 0.23428 0.41841 0.23774 0.0
H714 H 0.24479 0.41418 0.32583 0.0
H715 H 0.24235 0.45343 0.40051 0.0
H716 H 0.23206 0.45808 0.31256 0.0
H717 H 0.15302 0.42682 0.11254 0.0
H718 H 0.1774 0.42469 0.112 0.0
H719 H 0.19986 0.4644 0.22684 0.0
H720 H 0.17553 0.46655 0.22717 0.0
H721 H 0.20576 0.44025 0.25427 0.0
H722 H 0.20785 0.47018 0.09031 0.0
H723 H 0.19736 0.47448 0.00225 0.0
H724 H 0.19629 0.43299 0.93146 0.0
H725 H 0.20651 0.42828 0.01952 0.0
C726 C 0.27848 0.45809 0.19471 0.0
C727 C 0.28145 0.44806 0.16044 0.0
C728 C 0.26338 0.45678 0.19538 0.0
C729 C 0.25091 0.44527 0.16225 0.0
C730 C 0.25395 0.43542 0.12713 0.0
C731 C 0.26913 0.43679 0.12628 0.0
C732 C 0.23478 0.44369 0.1642 0.0
C733 C 0.2281 0.44547 0.11463 0.0
C734 C 0.22652 0.44156 0.21511 0.0
C735 C 0.23251 0.43867 0.26837 0.0
C736 C 0.23608 0.42621 0.27283 0.0
C737 C 0.24199 0.42373 0.32275 0.0
C738 C 0.24427 0.43355 0.3687 0.0
C739 C 0.24059 0.44584 0.36487 0.0
C740 C 0.2347 0.44839 0.315 0.0
C741 C 0.16319 0.43503 0.13767 0.0
C742 C 0.16252 0.44689 0.16967 0.0
C743 C 0.17706 0.43382 0.13739 0.0
C744 C 0.19048 0.4445 0.16897 0.0
C745 C 0.18963 0.45603 0.20225 0.0
C746 C 0.17577 0.45725 0.20245 0.0
C747 C 0.20564 0.44406 0.16598 0.0
C748 C 0.21213 0.44192 0.21535 0.0
C749 C 0.21371 0.44583 0.11492 0.0
C750 C 0.20778 0.44878 0.0617 0.0
C751 C 0.20526 0.4619 0.05611 0.0
C752 C 0.19938 0.46442 0.00619 0.0
C753 C 0.19612 0.45399 0.96133 0.0
C754 C 0.19879 0.44105 0.96627 0.0
C755 C 0.20463 0.43845 0.01617 0.0
H756 H 0.19157 0.45596 0.92271 0.0
H757 H 0.24886 0.43162 0.40732 0.0
H758 H 0.82149 0.29046 0.22675 0.0
H759 H 0.79684 0.26439 0.23012 0.0
H760 H 0.81797 0.24479 0.11915 0.0
H761 H 0.84257 0.2711 0.11478 0.0
H762 H 0.78806 0.23469 0.08988 0.0
H763 H 0.81441 0.23703 0.26112 0.0
H764 H 0.82813 0.24898 0.34975 0.0
H765 H 0.78597 0.24857 0.41041 0.0
H766 H 0.77208 0.23685 0.32176 0.0
H767 H 0.72698 0.15376 0.14045 0.0
H768 H 0.75329 0.17839 0.13827 0.0
H769 H 0.73408 0.2029 0.23385 0.0
H770 H 0.70778 0.17834 0.23555 0.0
H771 H 0.76393 0.20939 0.27119 0.0
H772 H 0.73831 0.20817 0.09707 0.0
H773 H 0.72474 0.19591 0.00852 0.0
H774 H 0.76607 0.19373 0.95383 0.0
H775 H 0.77979 0.20572 0.04254 0.0
C776 C 0.82086 0.28054 0.20334 0.0
C777 C 0.83388 0.28266 0.17085 0.0
C778 C 0.80681 0.26566 0.20536 0.0
C779 C 0.80565 0.25253 0.17572 0.0
C780 C 0.81862 0.25472 0.14252 0.0
C781 C 0.83263 0.2697 0.14005 0.0
C782 C 0.79083 0.23661 0.1791 0.0
C783 C 0.78295 0.22903 0.12952 0.0
C784 C 0.78399 0.22933 0.23085 0.0
C785 C 0.79224 0.23617 0.28458 0.0
C786 C 0.8081 0.23957 0.29322 0.0
C787 C 0.8159 0.2463 0.34348 0.0
C788 C 0.80794 0.24956 0.38564 0.0
C789 C 0.79213 0.24605 0.37769 0.0
C790 C 0.78428 0.23935 0.32746 0.0
C791 C 0.72846 0.16444 0.16093 0.0
C792 C 0.71546 0.16427 0.18808 0.0
C793 C 0.74343 0.17845 0.15973 0.0
C794 C 0.74558 0.19248 0.1856 0.0
C795 C 0.73267 0.19219 0.21379 0.0
C796 C 0.7177 0.1782 0.21477 0.0
C797 C 0.76117 0.20762 0.18209 0.0
C798 C 0.76916 0.21502 0.23162 0.0
C799 C 0.76816 0.21469 0.13035 0.0
C800 C 0.76001 0.20769 0.07668 0.0
C801 C 0.74446 0.20497 0.06634 0.0
C802 C 0.73674 0.19808 0.0161 0.0
C803 C 0.74452 0.19401 0.97563 0.0
C804 C 0.76005 0.19686 0.98526 0.0
C805 C 0.7678 0.20371 0.0355 0.0
H806 H 0.73852 0.18867 0.93676 0.0
H807 H 0.81401 0.25478 0.42451 0.0
H808 H 0.53005 0.70749 0.11495 0.0
H809 H 0.53182 0.73372 0.11257 0.0
H810 H 0.57174 0.75227 0.22697 0.0
H811 H 0.56964 0.72577 0.23048 0.0
H812 H 0.55268 0.76347 0.25323 0.0
H813 H 0.57713 0.75993 0.08521 0.0
H814 H 0.57907 0.74757 0.99782 0.0
H815 H 0.53852 0.74934 0.93185 0.0
H816 H 0.53616 0.76146 0.01926 0.0
H817 H 0.57603 0.84506 0.19792 0.0
H818 H 0.57696 0.82002 0.19901 0.0
H819 H 0.53221 0.79619 0.109 0.0
H820 H 0.53109 0.82111 0.10903 0.0
H821 H 0.5557 0.78879 0.07016 0.0
H822 H 0.53117 0.79153 0.24232 0.0
H823 H 0.53032 0.80464 0.32943 0.0
H824 H 0.57287 0.80528 0.38699 0.0
H825 H 0.57414 0.79245 0.29966 0.0
C826 C 0.5392 0.71719 0.13951 0.0
C827 C 0.54984 0.71476 0.17237 0.0
C828 C 0.54024 0.73217 0.13805 0.0
C829 C 0.55216 0.74509 0.16858 0.0
C830 C 0.56251 0.74252 0.20281 0.0
C831 C 0.56132 0.72743 0.20482 0.0
C832 C 0.55384 0.76125 0.16426 0.0
C833 C 0.5536 0.7691 0.21322 0.0
C834 C 0.55487 0.76857 0.11201 0.0
C835 C 0.5564 0.7615 0.059 0.0
C836 C 0.56857 0.7576 0.05221 0.0
C837 C 0.56974 0.75063 0.00266 0.0
C838 C 0.55891 0.74764 0.95935 0.0
C839 C 0.5469 0.75165 0.96546 0.0
C840 C 0.54564 0.75858 0.01498 0.0
C841 C 0.56646 0.83446 0.17824 0.0
C842 C 0.55345 0.83488 0.15368 0.0
C843 C 0.56701 0.82023 0.17877 0.0
C844 C 0.55459 0.80626 0.15444 0.0
C845 C 0.54191 0.80686 0.12789 0.0
C846 C 0.54129 0.82105 0.12785 0.0
C847 C 0.55438 0.79083 0.15897 0.0
C848 C 0.5549 0.78315 0.11007 0.0
C849 C 0.55379 0.78376 0.21123 0.0
C850 C 0.55285 0.79119 0.2642 0.0
C851 C 0.54041 0.79458 0.27336 0.0
C852 C 0.53985 0.80195 0.32279 0.0
C853 C 0.55156 0.80583 0.36366 0.0
C854 C 0.56382 0.80229 0.35525 0.0
C855 C 0.56447 0.79497 0.30579 0.0
H856 H 0.5511 0.81154 0.4019 0.0
H857 H 0.55983 0.74224 0.92103 0.0
H858 H 0.73012 0.57316 0.25334 0.0
H859 H 0.7558 0.57351 0.2535 0.0
H860 H 0.73601 0.53309 0.1412 0.0
H861 H 0.71026 0.53251 0.14222 0.0
H862 H 0.75202 0.52885 0.22426 0.0
H863 H 0.76192 0.57087 0.09526 0.0
H864 H 0.76312 0.59581 0.06362 0.0
H865 H 0.79717 0.62223 0.19238 0.0
H866 H 0.796 0.59738 0.22531 0.0
H867 H 0.82303 0.53191 0.12953 0.0
H868 H 0.79833 0.53328 0.13395 0.0
H869 H 0.81987 0.57077 0.2573 0.0
H870 H 0.84472 0.56949 0.25257 0.0
H871 H 0.80348 0.57712 0.17307 0.0
H872 H 0.79406 0.53476 0.29942 0.0
H873 H 0.79302 0.50969 0.32842 0.0
H874 H 0.75801 0.48375 0.2017 0.0
H875 H 0.75903 0.50873 0.17133 0.0
C876 C 0.73132 0.56437 0.22886 0.0
C877 C 0.71832 0.55281 0.19781 0.0
C878 C 0.74597 0.56463 0.22865 0.0
C879 C 0.74785 0.5534 0.19701 0.0
C880 C 0.73483 0.54186 0.1659 0.0
C881 C 0.72019 0.5416 0.1662 0.0
C882 C 0.76329 0.55345 0.19697 0.0
C883 C 0.76323 0.53936 0.21245 0.0
C884 C 0.77799 0.56727 0.18287 0.0
C885 C 0.77873 0.58223 0.16313 0.0
C886 C 0.76955 0.58197 0.11714 0.0
C887 C 0.77025 0.5961 0.09891 0.0
C888 C 0.78018 0.61059 0.12608 0.0
C889 C 0.78946 0.61099 0.17144 0.0
C890 C 0.7888 0.59689 0.18988 0.0
C891 C 0.82251 0.54051 0.15725 0.0
C892 C 0.83571 0.55062 0.19065 0.0
C893 C 0.8084 0.54122 0.15999 0.0
C894 C 0.80726 0.55206 0.19622 0.0
C895 C 0.82053 0.56232 0.22914 0.0
C896 C 0.83463 0.56153 0.22667 0.0
C897 C 0.79213 0.5525 0.19984 0.0
C898 C 0.79225 0.56666 0.18512 0.0
C899 C 0.77747 0.53872 0.21436 0.0
C900 C 0.77673 0.52365 0.23278 0.0
C901 C 0.78623 0.52373 0.27744 0.0
C902 C 0.78563 0.50953 0.29417 0.0
C903 C 0.77548 0.49514 0.26684 0.0
C904 C 0.76588 0.49491 0.22279 0.0
C905 C 0.76646 0.50908 0.20583 0.0
H906 H 0.77503 0.48416 0.27986 0.0
H907 H 0.78071 0.62152 0.11189 0.0
H908 H 0.15924 0.72818 0.11639 0.0
H909 H 0.18457 0.75371 0.11383 0.0
H910 H 0.20256 0.73771 0.24941 0.0
H911 H 0.17782 0.71182 0.249 0.0
H912 H 0.19988 0.77733 0.18043 0.0
H913 H 0.24198 0.75259 0.24083 0.0
H914 H 0.24324 0.72776 0.22991 0.0
H915 H 0.21338 0.71537 0.08458 0.0
H916 H 0.21212 0.74022 0.09418 0.0
H917 H 0.27613 0.84309 0.2489 0.0
H918 H 0.25041 0.81797 0.24926 0.0
H919 H 0.2661 0.80096 0.10984 0.0
H920 H 0.2922 0.8254 0.11264 0.0
H921 H 0.25167 0.77791 0.17503 0.0
H922 H 0.2386 0.81567 0.09857 0.0
H923 H 0.23725 0.84057 0.09427 0.0
H924 H 0.20901 0.82712 0.24375 0.0
H925 H 0.21037 0.80224 0.24936 0.0
C926 C 0.1687 0.73008 0.14512 0.0
C927 C 0.16661 0.71799 0.18264 0.0
C928 C 0.1831 0.74473 0.14406 0.0
C929 C 0.19561 0.74759 0.18088 0.0
C930 C 0.19326 0.7357 0.21974 0.0
C931 C 0.17901 0.72097 0.22005 0.0
C932 C 0.21118 0.76287 0.17813 0.0
C933 C 0.21121 0.77746 0.17918 0.0
C934 C 0.22599 0.76309 0.17511 0.0
C935 C 0.22684 0.7482 0.1686 0.0
C936 C 0.23574 0.7446 0.20642 0.0
C937 C 0.23644 0.73051 0.20048 0.0
C938 C 0.22835 0.71997 0.15669 0.0
C939 C 0.21959 0.72352 0.1186 0.0
C940 C 0.21887 0.73759 0.12431 0.0
C941 C 0.27411 0.83389 0.21881 0.0
C942 C 0.28612 0.83624 0.18051 0.0
C943 C 0.25933 0.81962 0.21849 0.0
C944 C 0.25614 0.80763 0.17888 0.0
C945 C 0.26819 0.81001 0.14073 0.0
C946 C 0.28305 0.82409 0.14186 0.0
C947 C 0.24042 0.79244 0.1777 0.0
C948 C 0.24037 0.77783 0.17615 0.0
C949 C 0.2256 0.79223 0.17793 0.0
C950 C 0.22472 0.80717 0.17466 0.0
C951 C 0.2322 0.81808 0.13074 0.0
C952 C 0.23141 0.83218 0.12803 0.0
C953 C 0.22308 0.83544 0.16879 0.0
C954 C 0.21548 0.82459 0.21226 0.0
C955 C 0.21624 0.81048 0.21519 0.0
H956 H 0.22249 0.84637 0.16662 0.0
H957 H 0.2289 0.70906 0.1522 0.0
H958 H 0.42907 0.15801 0.11376 0.0
H959 H 0.4275 0.18268 0.11105 0.0
H960 H 0.46555 0.20424 0.2325 0.0
H961 H 0.46713 0.17965 0.23514 0.0
H962 H 0.44173 0.21037 0.25621 0.0
H963 H 0.47285 0.21306 0.09511 0.0
H964 H 0.47793 0.20309 0.00728 0.0
H965 H 0.43709 0.20243 0.93247 0.0
H966 H 0.43161 0.21216 0.02022 0.0
H967 H 0.4693 0.29293 0.22211 0.0
H968 H 0.46705 0.26644 0.22338 0.0
H969 H 0.42817 0.24918 0.10507 0.0
H970 H 0.43035 0.27573 0.10416 0.0
H971 H 0.45007 0.23983 0.07845 0.0
H972 H 0.4199 0.23874 0.23775 0.0
H973 H 0.41496 0.24893 0.32529 0.0
H974 H 0.45391 0.24669 0.40341 0.0
H975 H 0.45926 0.23672 0.31599 0.0
C976 C 0.4371 0.16806 0.13969 0.0
C977 C 0.44824 0.167 0.17456 0.0
C978 C 0.43619 0.18211 0.13819 0.0
C979 C 0.44651 0.19534 0.17126 0.0
C980 C 0.45744 0.19416 0.20679 0.0
C981 C 0.45833 0.18013 0.20832 0.0
C982 C 0.44618 0.21057 0.16823 0.0
C983 C 0.44369 0.21689 0.21745 0.0
C984 C 0.44833 0.21885 0.11737 0.0
C985 C 0.45172 0.21317 0.06441 0.0
C986 C 0.46488 0.21067 0.06006 0.0
C987 C 0.46784 0.20508 0.01028 0.0
C988 C 0.45781 0.20209 0.96437 0.0
C989 C 0.44483 0.20473 0.9681 0.0
C990 C 0.44179 0.21029 0.01784 0.0
C991 C 0.4602 0.28342 0.19676 0.0
C992 C 0.4499 0.28624 0.1634 0.0
C993 C 0.45893 0.26834 0.19744 0.0
C994 C 0.44731 0.2558 0.16481 0.0
C995 C 0.43719 0.25869 0.13062 0.0
C996 C 0.43844 0.2738 0.1301 0.0
C997 C 0.44583 0.23972 0.16654 0.0
C998 C 0.44797 0.23325 0.11713 0.0
C999 C 0.44335 0.23129 0.21722 0.0
C1000 C 0.44006 0.2371 0.27014 0.0
C1001 C 0.42749 0.24052 0.27346 0.0
C1002 C 0.4246 0.24625 0.32308 0.0
C1003 C 0.43413 0.24849 0.36984 0.0
C1004 C 0.44655 0.24496 0.36713 0.0
C1005 C 0.4495 0.23926 0.31756 0.0
H1006 H 0.43186 0.25291 0.4082 0.0
H1007 H 0.46012 0.19776 0.92586 0.0
H1008 H 0.12913 0.46009 0.40363 0.0
H1009 H 0.1312 0.45911 0.50485 0.0
H1010 H 0.08163 0.42171 0.51358 0.0
H1011 H 0.07941 0.42264 0.41233 0.0
H1012 H 0.08879 0.44559 0.58904 0.0
H1013 H 0.11053 0.41258 0.53413 0.0
H1014 H 0.12824 0.40566 0.48162 0.0
H1015 H 0.16961 0.44562 0.5549 0.0
H1016 H 0.15215 0.45293 0.60727 0.0
H1017 H 0.09377 0.43593 0.87896 0.0
H1018 H 0.08963 0.42901 0.78018 0.0
H1019 H 0.13923 0.46355 0.74726 0.0
H1020 H 0.14363 0.46998 0.84624 0.0
H1021 H 0.13008 0.43774 0.68446 0.0
H1022 H 0.10917 0.47267 0.72972 0.0
H1023 H 0.0921 0.48077 0.78061 0.0
H1024 H 0.04991 0.43837 0.72382 0.0
H1025 H 0.06675 0.42991 0.67315 0.0
C1026 C 0.11867 0.4516 0.42701 0.0
C1027 C 0.10409 0.44146 0.39991 0.0
C1028 C 0.11991 0.451 0.48485 0.0
C1029 C 0.1066 0.44024 0.51669 0.0
C1030 C 0.09205 0.43007 0.48976 0.0
C1031 C 0.09082 0.4306 0.43188 0.0
C1032 C 0.10774 0.44011 0.57827 0.0
C1033 C 0.09761 0.44356 0.61 0.0
C1034 C 0.11948 0.43779 0.60546 0.0
C1035 C 0.13002 0.43338 0.57431 0.0
C1036 C 0.1234 0.41997 0.53875 0.0
C1037 C 0.1334 0.41596 0.50905 0.0
C1038 C 0.15004 0.42522 0.51483 0.0
C1039 C 0.15672 0.43847 0.55044 0.0
C1040 C 0.14677 0.44254 0.58019 0.0
C1041 C 0.10393 0.44165 0.85116 0.0
C1042 C 0.11909 0.45337 0.87071 0.0
C1043 C 0.10148 0.43786 0.79443 0.0
C1044 C 0.11407 0.44591 0.75615 0.0
C1045 C 0.12934 0.45717 0.77592 0.0
C1046 C 0.1318 0.46089 0.83252 0.0
C1047 C 0.11126 0.44343 0.6952 0.0
C1048 C 0.12111 0.43954 0.66355 0.0
C1049 C 0.09935 0.44547 0.66796 0.0
C1050 C 0.08922 0.45057 0.69822 0.0
C1051 C 0.09625 0.46501 0.72844 0.0
C1052 C 0.08663 0.46968 0.75718 0.0
C1053 C 0.06994 0.46007 0.75559 0.0
C1054 C 0.06284 0.44579 0.72511 0.0
C1055 C 0.07242 0.44105 0.69636 0.0
H1056 H 0.0625 0.4637 0.77786 0.0
H1057 H 0.15776 0.4221 0.49179 0.0
H1058 H 0.68467 0.10085 0.42635 0.0
H1059 H 0.68678 0.10284 0.52801 0.0
H1060 H 0.65416 0.12134 0.53087 0.0
H1061 H 0.6524 0.11985 0.42966 0.0
H1062 H 0.67803 0.13804 0.59808 0.0
H1063 H 0.64265 0.08134 0.56403 0.0
H1064 H 0.63529 0.0549 0.52432 0.0
H1065 H 0.67473 0.05549 0.61004 0.0
H1066 H 0.68244 0.08203 0.64971 0.0
H1067 H 0.64482 0.12338 0.86358 0.0
H1068 H 0.64882 0.12108 0.76461 0.0
H1069 H 0.68665 0.11095 0.8025 0.0
H1070 H 0.68296 0.11359 0.9022 0.0
H1071 H 0.66478 0.0909 0.7173 0.0
H1072 H 0.6977 0.14662 0.76044 0.0
H1073 H 0.7037 0.17249 0.80162 0.0
H1074 H 0.66759 0.17331 0.69896 0.0
H1075 H 0.6612 0.14731 0.65775 0.0
C1076 C 0.67797 0.10535 0.44872 0.0
C1077 C 0.66835 0.11017 0.41998 0.0
C1078 C 0.67913 0.10642 0.50682 0.0
C1079 C 0.67049 0.11208 0.53718 0.0
C1080 C 0.66097 0.11697 0.5084 0.0
C1081 C 0.65994 0.11608 0.45047 0.0
C1082 C 0.67128 0.11306 0.59891 0.0
C1083 C 0.67504 0.12769 0.62404 0.0
C1084 C 0.66789 0.09971 0.63298 0.0
C1085 C 0.66323 0.08374 0.60928 0.0
C1086 C 0.64982 0.07588 0.57405 0.0
C1087 C 0.64558 0.06087 0.55162 0.0
C1088 C 0.65457 0.05354 0.5645 0.0
C1089 C 0.6678 0.06119 0.6 0.0
C1090 C 0.67211 0.07621 0.62249 0.0
C1091 C 0.65397 0.1206 0.85104 0.0
C1092 C 0.66345 0.11849 0.89091 0.0
C1093 C 0.65622 0.11928 0.79444 0.0
C1094 C 0.6681 0.11597 0.77633 0.0
C1095 C 0.67737 0.11345 0.81582 0.0
C1096 C 0.67514 0.11482 0.87279 0.0
C1097 C 0.67099 0.11571 0.71592 0.0
C1098 C 0.668 0.10127 0.69118 0.0
C1099 C 0.67496 0.1292 0.68203 0.0
C1100 C 0.67891 0.14496 0.70623 0.0
C1101 C 0.69097 0.15226 0.74689 0.0
C1102 C 0.69445 0.16696 0.77021 0.0
C1103 C 0.68602 0.17453 0.75298 0.0
C1104 C 0.67411 0.16743 0.71227 0.0
C1105 C 0.67057 0.15273 0.68886 0.0
H1106 H 0.68872 0.18591 0.7711 0.0
H1107 H 0.65126 0.04192 0.5471 0.0
H1108 H 0.57226 0.69506 0.40968 0.0
H1109 H 0.57185 0.69462 0.51157 0.0
H1110 H 0.54689 0.64281 0.50867 0.0
H1111 H 0.54626 0.64332 0.40701 0.0
H1112 H 0.53389 0.65015 0.58153 0.0
H1113 H 0.58913 0.66878 0.54627 0.0
H1114 H 0.616 0.6858 0.5059 0.0
H1115 H 0.61956 0.72705 0.5882 0.0
H1116 H 0.5926 0.71032 0.6285 0.0
H1117 H 0.55065 0.64507 0.87244 0.0
H1118 H 0.5562 0.64657 0.77195 0.0
H1119 H 0.55222 0.68913 0.76004 0.0
H1120 H 0.54616 0.68738 0.85994 0.0
H1121 H 0.58103 0.68575 0.69806 0.0
H1122 H 0.52259 0.66444 0.72259 0.0
H1123 H 0.49674 0.64525 0.76579 0.0
H1124 H 0.50148 0.60589 0.70472 0.0
H1125 H 0.52751 0.62491 0.66191 0.0
C1126 C 0.56676 0.68361 0.43103 0.0
C1127 C 0.55927 0.66923 0.40075 0.0
C1128 C 0.56664 0.68334 0.4893 0.0
C1129 C 0.55959 0.66867 0.51834 0.0
C1130 C 0.55236 0.6543 0.48765 0.0
C1131 C 0.55203 0.65458 0.42953 0.0
C1132 C 0.55902 0.66822 0.58046 0.0
C1133 C 0.54434 0.65781 0.60657 0.0
C1134 C 0.57254 0.6782 0.61403 0.0
C1135 C 0.58878 0.68831 0.59 0.0
C1136 C 0.59559 0.6815 0.55546 0.0
C1137 C 0.61085 0.69109 0.53263 0.0
C1138 C 0.61947 0.7075 0.54437 0.0
C1139 C 0.61286 0.71434 0.57909 0.0
C1140 C 0.5976 0.70481 0.60199 0.0
C1141 C 0.5513 0.65491 0.84846 0.0
C1142 C 0.54809 0.66618 0.87364 0.0
C1143 C 0.55443 0.65574 0.79127 0.0
C1144 C 0.55467 0.668 0.75894 0.0
C1145 C 0.55218 0.67966 0.78454 0.0
C1146 C 0.54868 0.67862 0.84136 0.0
C1147 C 0.55603 0.66785 0.69768 0.0
C1148 C 0.57077 0.6781 0.67221 0.0
C1149 C 0.54274 0.65744 0.66461 0.0
C1150 C 0.52704 0.64607 0.68971 0.0
C1151 C 0.51818 0.6517 0.71888 0.0
C1152 C 0.50349 0.64086 0.74317 0.0
C1153 C 0.49749 0.62436 0.73816 0.0
C1154 C 0.50616 0.61867 0.70867 0.0
C1155 C 0.52087 0.62947 0.68438 0.0
H1156 H 0.48612 0.61598 0.75699 0.0
H1157 H 0.63127 0.71491 0.52665 0.0
H1158 H 0.8912 0.53646 0.42456 0.0
H1159 H 0.88988 0.53656 0.526 0.0
H1160 H 0.88727 0.58001 0.52059 0.0
H1161 H 0.88925 0.58032 0.41885 0.0
H1162 H 0.90527 0.58168 0.60424 0.0
H1163 H 0.85328 0.54245 0.54002 0.0
H1164 H 0.83361 0.51889 0.48656 0.0
H1165 H 0.84767 0.48904 0.57454 0.0
H1166 H 0.86759 0.51247 0.628 0.0
H1167 H 0.85424 0.54005 0.87368 0.0
H1168 H 0.85701 0.54566 0.77387 0.0
H1169 H 0.90774 0.56249 0.78508 0.0
H1170 H 0.90502 0.55723 0.88543 0.0
H1171 H 0.86439 0.53202 0.69803 0.0
H1172 H 0.92784 0.58848 0.67933 0.0
H1173 H 0.94531 0.61317 0.7321 0.0
H1174 H 0.90403 0.6107 0.81035 0.0
H1175 H 0.88631 0.58613 0.75751 0.0
C1176 C 0.89039 0.54607 0.44495 0.0
C1177 C 0.89019 0.55831 0.41372 0.0
C1178 C 0.88959 0.54609 0.50299 0.0
C1179 C 0.88815 0.55812 0.53101 0.0
C1180 C 0.88834 0.57058 0.49996 0.0
C1181 C 0.88941 0.57071 0.44182 0.0
C1182 C 0.88603 0.55741 0.59249 0.0
C1183 C 0.89632 0.57084 0.6248 0.0
C1184 C 0.8741 0.5434 0.61937 0.0
C1185 C 0.86201 0.52924 0.5877 0.0
C1186 C 0.85224 0.53088 0.54774 0.0
C1187 C 0.84104 0.51754 0.51746 0.0
C1188 C 0.83941 0.50248 0.52708 0.0
C1189 C 0.84895 0.50072 0.56711 0.0
C1190 C 0.86018 0.51401 0.59745 0.0
C1191 C 0.86603 0.54523 0.85495 0.0
C1192 C 0.87944 0.54838 0.88733 0.0
C1193 C 0.8676 0.54838 0.7979 0.0
C1194 C 0.88259 0.55457 0.77179 0.0
C1195 C 0.8961 0.55803 0.80433 0.0
C1196 C 0.89455 0.55506 0.86172 0.0
C1197 C 0.88377 0.55623 0.71011 0.0
C1198 C 0.87331 0.54292 0.67766 0.0
C1199 C 0.89521 0.57051 0.68323 0.0
C1200 C 0.90577 0.58537 0.71485 0.0
C1201 C 0.92249 0.59324 0.70765 0.0
C1202 C 0.93244 0.60721 0.73759 0.0
C1203 C 0.92579 0.61347 0.77469 0.0
C1204 C 0.90917 0.6058 0.78178 0.0
C1205 C 0.89917 0.59184 0.75189 0.0
H1206 H 0.93351 0.62428 0.79785 0.0
H1207 H 0.83074 0.49218 0.50357 0.0
H1208 H 0.3233 0.8565 0.86784 0.0
H1209 H 0.32144 0.86007 0.76801 0.0
H1210 H 0.34513 0.91133 0.79071 0.0
H1211 H 0.3473 0.90788 0.89076 0.0
H1212 H 0.31909 0.89887 0.71208 0.0
H1213 H 0.36709 0.89683 0.75161 0.0
H1214 H 0.38252 0.88525 0.79273 0.0
H1215 H 0.35507 0.84215 0.69774 0.0
H1216 H 0.33929 0.85339 0.65668 0.0
H1217 H 0.34484 0.92017 0.43073 0.0
H1218 H 0.34244 0.91753 0.53193 0.0
H1219 H 0.32634 0.86701 0.51778 0.0
H1220 H 0.32916 0.86967 0.41667 0.0
H1221 H 0.34852 0.8799 0.59358 0.0
H1222 H 0.30059 0.88151 0.55274 0.0
H1223 H 0.28451 0.89246 0.5123 0.0
H1224 H 0.31084 0.93546 0.60882 0.0
H1225 H 0.32723 0.92485 0.6493 0.0
C1226 C 0.32793 0.86853 0.85173 0.0
C1227 C 0.33532 0.8819 0.88726 0.0
C1228 C 0.32683 0.87054 0.79475 0.0
C1229 C 0.33325 0.88596 0.7721 0.0
C1230 C 0.34002 0.89933 0.80761 0.0
C1231 C 0.34115 0.89732 0.86483 0.0
C1232 C 0.334 0.88808 0.71099 0.0
C1233 C 0.32567 0.89492 0.68603 0.0
C1234 C 0.34234 0.88261 0.67725 0.0
C1235 C 0.35191 0.87589 0.70148 0.0
C1236 C 0.36426 0.88483 0.73982 0.0
C1237 C 0.37308 0.87834 0.76306 0.0
C1238 C 0.36975 0.86296 0.74796 0.0
C1239 C 0.35762 0.85405 0.70945 0.0
C1240 C 0.34874 0.86048 0.68615 0.0
C1241 C 0.34066 0.90847 0.44914 0.0
C1242 C 0.33726 0.89514 0.41577 0.0
C1243 C 0.33921 0.90696 0.50701 0.0
C1244 C 0.33406 0.89204 0.53248 0.0
C1245 C 0.33036 0.87865 0.49906 0.0
C1246 C 0.33197 0.88018 0.44129 0.0
C1247 C 0.3334 0.89051 0.59402 0.0
C1248 C 0.34186 0.88383 0.61929 0.0
C1249 C 0.3251 0.89605 0.62782 0.0
C1250 C 0.31524 0.90245 0.60363 0.0
C1251 C 0.30304 0.89336 0.56501 0.0
C1252 C 0.29385 0.89949 0.54214 0.0
C1253 C 0.29668 0.91466 0.55787 0.0
C1254 C 0.30868 0.92372 0.59662 0.0
C1255 C 0.31791 0.91764 0.61958 0.0
H1256 H 0.28956 0.91939 0.54012 0.0
H1257 H 0.3766 0.85795 0.766 0.0
H1258 H 0.46398 0.33455 0.40656 0.0
H1259 H 0.4631 0.33168 0.50781 0.0
H1260 H 0.41738 0.32976 0.51164 0.0
H1261 H 0.4182 0.33274 0.41031 0.0
H1262 H 0.43824 0.35065 0.58825 0.0
H1263 H 0.41937 0.29618 0.53383 0.0
H1264 H 0.42018 0.27437 0.48272 0.0
H1265 H 0.46483 0.28635 0.56154 0.0
H1266 H 0.46444 0.30839 0.61247 0.0
H1267 H 0.43289 0.33791 0.8798 0.0
H1268 H 0.42563 0.33312 0.78148 0.0
H1269 H 0.46787 0.3297 0.74841 0.0
H1270 H 0.47463 0.33345 0.8469 0.0
H1271 H 0.4447 0.30894 0.68682 0.0
H1272 H 0.46621 0.36514 0.72876 0.0
H1273 H 0.46731 0.38818 0.77788 0.0
H1274 H 0.41984 0.37422 0.72064 0.0
H1275 H 0.41839 0.35098 0.67172 0.0
C1276 C 0.45369 0.33343 0.42885 0.0
C1277 C 0.44117 0.33391 0.40033 0.0
C1278 C 0.45316 0.3317 0.48673 0.0
C1279 C 0.4401 0.33036 0.51723 0.0
C1280 C 0.42755 0.33073 0.48888 0.0
C1281 C 0.42803 0.3324 0.43095 0.0
C1282 C 0.43995 0.32931 0.57893 0.0
C1283 C 0.43932 0.34134 0.6099 0.0
C1284 C 0.44172 0.31737 0.60705 0.0
C1285 C 0.44192 0.30402 0.57672 0.0
C1286 C 0.42942 0.29424 0.53998 0.0
C1287 C 0.4298 0.28183 0.51107 0.0
C1288 C 0.44256 0.279 0.51882 0.0
C1289 C 0.45496 0.28856 0.55556 0.0
C1290 C 0.45465 0.301 0.58451 0.0
C1291 C 0.44034 0.33558 0.85218 0.0
C1292 C 0.45427 0.33589 0.87168 0.0
C1293 C 0.43631 0.33311 0.79556 0.0
C1294 C 0.44632 0.33128 0.75721 0.0
C1295 C 0.45992 0.33107 0.77698 0.0
C1296 C 0.46384 0.33334 0.83342 0.0
C1297 C 0.44331 0.33048 0.69618 0.0
C1298 C 0.44335 0.3181 0.66527 0.0
C1299 C 0.44124 0.34225 0.66796 0.0
C1300 C 0.44212 0.35623 0.69719 0.0
C1301 C 0.45597 0.36693 0.727 0.0
C1302 C 0.45666 0.38003 0.75474 0.0
C1303 C 0.44363 0.38263 0.75253 0.0
C1304 C 0.42991 0.37217 0.72242 0.0
C1305 C 0.42914 0.35903 0.69467 0.0
H1306 H 0.4442 0.39278 0.77403 0.0
H1307 H 0.44283 0.26938 0.49648 0.0
H1308 H 0.5547 0.90276 0.4628 0.0
H1309 H 0.56007 0.90618 0.56301 0.0
H1310 H 0.55166 0.85778 0.57348 0.0
H1311 H 0.54547 0.85415 0.47399 0.0
H1312 H 0.53661 0.86122 0.65118 0.0
H1313 H 0.59039 0.89315 0.58859 0.0
H1314 H 0.61284 0.91421 0.53461 0.0
H1315 H 0.6059 0.95028 0.61372 0.0
H1316 H 0.58326 0.92942 0.66764 0.0
H1317 H 0.58468 0.896 0.92827 0.0
H1318 H 0.58449 0.89357 0.82673 0.0
H1319 H 0.53577 0.88432 0.82232 0.0
H1320 H 0.53569 0.88609 0.92365 0.0
H1321 H 0.58148 0.90867 0.74247 0.0
H1322 H 0.51458 0.8587 0.72204 0.0
H1323 H 0.49421 0.83582 0.7765 0.0
H1324 H 0.53137 0.83235 0.86322 0.0
H1325 H 0.55194 0.85504 0.80873 0.0
C1326 C 0.55433 0.893 0.48648 0.0
C1327 C 0.54981 0.87824 0.46088 0.0
C1328 C 0.55743 0.89496 0.54375 0.0
C1329 C 0.55644 0.88229 0.57608 0.0
C1330 C 0.55245 0.86772 0.54976 0.0
C1331 C 0.54899 0.86566 0.49289 0.0
C1332 C 0.55837 0.88375 0.63775 0.0
C1333 C 0.54649 0.87159 0.67093 0.0
C1334 C 0.57139 0.89709 0.66403 0.0
C1335 C 0.58504 0.9097 0.63183 0.0
C1336 C 0.59358 0.90556 0.5942 0.0
C1337 C 0.60635 0.91747 0.56365 0.0
C1338 C 0.61077 0.93357 0.57064 0.0
C1339 C 0.60245 0.9378 0.60831 0.0
C1340 C 0.58966 0.92594 0.63893 0.0
C1341 C 0.57393 0.89345 0.90559 0.0
C1342 C 0.56014 0.89107 0.93398 0.0
C1343 C 0.57386 0.89212 0.84753 0.0
C1344 C 0.56003 0.88849 0.81682 0.0
C1345 C 0.54645 0.88672 0.84509 0.0
C1346 C 0.54644 0.88779 0.90307 0.0
C1347 C 0.55961 0.88626 0.7554 0.0
C1348 C 0.5717 0.89828 0.72244 0.0
C1349 C 0.54711 0.8725 0.72922 0.0
C1350 C 0.5348 0.85867 0.76162 0.0
C1351 C 0.5184 0.853 0.75253 0.0
C1352 C 0.50682 0.84008 0.78344 0.0
C1353 C 0.5115 0.83267 0.8234 0.0
C1354 C 0.52776 0.83813 0.83238 0.0
C1355 C 0.53939 0.85103 0.80153 0.0
H1356 H 0.50251 0.82268 0.84734 0.0
H1357 H 0.62066 0.94277 0.54695 0.0
H1358 H 0.64646 0.56901 0.94935 0.0
H1359 H 0.64944 0.5705 0.84817 0.0
H1360 H 0.67856 0.54809 0.85825 0.0
H1361 H 0.67594 0.54689 0.95965 0.0
H1362 H 0.69056 0.57174 0.78293 0.0
H1363 H 0.63865 0.52644 0.8246 0.0
H1364 H 0.61167 0.51267 0.86665 0.0
H1365 H 0.59897 0.54296 0.77468 0.0
H1366 H 0.62597 0.55707 0.73262 0.0
H1367 H 0.67907 0.53575 0.51647 0.0
H1368 H 0.68022 0.54228 0.61539 0.0
H1369 H 0.65437 0.56729 0.58263 0.0
H1370 H 0.65305 0.56065 0.48353 0.0
H1371 H 0.64119 0.54525 0.6677 0.0
H1372 H 0.69279 0.5885 0.61803 0.0
H1373 H 0.71965 0.6013 0.57528 0.0
H1374 H 0.73289 0.57388 0.68128 0.0
H1375 H 0.70601 0.56072 0.72413 0.0
C1376 C 0.65358 0.56448 0.9301 0.0
C1377 C 0.66084 0.5577 0.9625 0.0
C1378 C 0.65524 0.56531 0.87222 0.0
C1379 C 0.66402 0.55918 0.84556 0.0
C1380 C 0.67171 0.55286 0.87793 0.0
C1381 C 0.67014 0.55213 0.93587 0.0
C1382 C 0.66472 0.55879 0.78388 0.0
C1383 C 0.67977 0.56584 0.75774 0.0
C1384 C 0.65064 0.55143 0.75091 0.0
C1385 C 0.63438 0.54293 0.77596 0.0
C1386 C 0.63014 0.53025 0.81368 0.0
C1387 C 0.61484 0.52237 0.83745 0.0
C1388 C 0.60363 0.52697 0.82348 0.0
C1389 C 0.60768 0.53943 0.78555 0.0
C1390 C 0.62298 0.54737 0.7617 0.0
C1391 C 0.67385 0.54286 0.53028 0.0
C1392 C 0.66619 0.54791 0.49226 0.0
C1393 C 0.67458 0.54664 0.58669 0.0
C1394 C 0.66753 0.55542 0.60622 0.0
C1395 C 0.66001 0.56064 0.56825 0.0
C1396 C 0.65941 0.55698 0.51161 0.0
C1397 C 0.66702 0.55804 0.6668 0.0
C1398 C 0.65199 0.55135 0.69279 0.0
C1399 C 0.68111 0.56561 0.69956 0.0
C1400 C 0.69732 0.57353 0.674 0.0
C1401 C 0.70138 0.5851 0.63193 0.0
C1402 C 0.71662 0.59244 0.60773 0.0
C1403 C 0.72796 0.58839 0.62548 0.0
C1404 C 0.72409 0.577 0.66755 0.0
C1405 C 0.70885 0.56961 0.69186 0.0
H1406 H 0.73976 0.59408 0.60669 0.0
H1407 H 0.59179 0.52085 0.84193 0.0
H1408 H 0.09496 0.65351 0.47051 0.0
H1409 H 0.09125 0.65515 0.57056 0.0
H1410 H 0.14258 0.68162 0.59327 0.0
H1411 H 0.14635 0.68007 0.49336 0.0
H1412 H 0.12866 0.65666 0.6622 0.0
H1413 H 0.12014 0.69978 0.60811 0.0
H1414 H 0.10772 0.71271 0.55521 0.0
H1415 H 0.06161 0.67912 0.62268 0.0
H1416 H 0.07372 0.66584 0.6754 0.0
H1417 H 0.13154 0.67641 0.94512 0.0
H1418 H 0.13405 0.67962 0.8441 0.0
H1419 H 0.08278 0.64989 0.82676 0.0
H1420 H 0.0801 0.64662 0.92796 0.0
H1421 H 0.09608 0.67669 0.75548 0.0
H1422 H 0.10443 0.63317 0.80666 0.0
H1423 H 0.11672 0.62011 0.85957 0.0
H1424 H 0.16314 0.65448 0.7964 0.0
H1425 H 0.15114 0.66789 0.74373 0.0
C1426 C 0.10544 0.66011 0.49654 0.0
C1427 C 0.12096 0.66687 0.47407 0.0
C1428 C 0.1033 0.66097 0.55377 0.0
C1429 C 0.11664 0.6686 0.58926 0.0
C1430 C 0.13212 0.67568 0.5666 0.0
C1431 C 0.13426 0.67479 0.50958 0.0
C1432 C 0.11456 0.66815 0.65044 0.0
C1433 C 0.12175 0.66129 0.68259 0.0
C1434 C 0.10513 0.67373 0.67684 0.0
C1435 C 0.09782 0.68171 0.64527 0.0
C1436 C 0.10733 0.69506 0.6113 0.0
C1437 C 0.10035 0.70247 0.58142 0.0
C1438 C 0.08388 0.69671 0.58546 0.0
C1439 C 0.07436 0.68356 0.61952 0.0
C1440 C 0.08128 0.67609 0.64946 0.0
C1441 C 0.12077 0.67065 0.91993 0.0
C1442 C 0.10563 0.6611 0.94448 0.0
C1443 C 0.12223 0.6725 0.86225 0.0
C1444 C 0.10861 0.66485 0.82811 0.0
C1445 C 0.09342 0.65587 0.85252 0.0
C1446 C 0.09194 0.65395 0.91027 0.0
C1447 C 0.11037 0.66542 0.76688 0.0
C1448 C 0.10305 0.67218 0.73485 0.0
C1449 C 0.11967 0.65973 0.74037 0.0
C1450 C 0.12691 0.65163 0.77172 0.0
C1451 C 0.11727 0.63802 0.80441 0.0
C1452 C 0.12418 0.63054 0.8343 0.0
C1453 C 0.1407 0.63649 0.83147 0.0
C1454 C 0.15035 0.6499 0.79862 0.0
C1455 C 0.1435 0.65744 0.76871 0.0
H1456 H 0.14603 0.63068 0.85462 0.0
H1457 H 0.0785 0.70247 0.5623 0.0
H1458 H 0.44494 0.09585 0.46759 0.0
H1459 H 0.44021 0.09167 0.56789 0.0
H1460 H 0.45614 0.14197 0.58929 0.0
H1461 H 0.46116 0.14621 0.48926 0.0
H1462 H 0.47114 0.13319 0.65841 0.0
H1463 H 0.41612 0.11205 0.60588 0.0
H1464 H 0.39127 0.09472 0.55381 0.0
H1465 H 0.38995 0.05284 0.62198 0.0
H1466 H 0.41493 0.06992 0.67389 0.0
H1467 H 0.45282 0.13105 0.94274 0.0
H1468 H 0.45131 0.13321 0.84189 0.0
H1469 H 0.44013 0.08412 0.82308 0.0
H1470 H 0.44147 0.08177 0.92416 0.0
H1471 H 0.42195 0.09185 0.75332 0.0
H1472 H 0.47743 0.1131 0.80252 0.0
H1473 H 0.50228 0.13045 0.85461 0.0
H1474 H 0.50251 0.17232 0.79163 0.0
H1475 H 0.47752 0.1552 0.73976 0.0
C1476 C 0.44699 0.1059 0.49355 0.0
C1477 C 0.45324 0.12132 0.4708 0.0
C1478 C 0.44432 0.10351 0.55086 0.0
C1479 C 0.4477 0.11649 0.58607 0.0
C1480 C 0.45346 0.13179 0.56294 0.0
C1481 C 0.45629 0.1342 0.50588 0.0
C1482 C 0.44657 0.11446 0.64738 0.0
C1483 C 0.46027 0.12433 0.67913 0.0
C1484 C 0.43256 0.10257 0.67433 0.0
C1485 C 0.41749 0.09227 0.64338 0.0
C1486 C 0.41061 0.09914 0.60944 0.0
C1487 C 0.39648 0.08936 0.58001 0.0
C1488 C 0.38906 0.07269 0.58447 0.0
C1489 C 0.39573 0.06576 0.61851 0.0
C1490 C 0.40986 0.07548 0.648 0.0
C1491 C 0.44995 0.12067 0.91726 0.0
C1492 C 0.44744 0.10628 0.94138 0.0
C1493 C 0.44909 0.12193 0.85965 0.0
C1494 C 0.44579 0.10888 0.82513 0.0
C1495 C 0.44271 0.09432 0.84912 0.0
C1496 C 0.44357 0.09304 0.90681 0.0
C1497 C 0.44643 0.11072 0.7639 0.0
C1498 C 0.43272 0.10077 0.73233 0.0
C1499 C 0.46042 0.12255 0.73691 0.0
C1500 C 0.47552 0.13287 0.7677 0.0
C1501 C 0.48271 0.12601 0.80011 0.0
C1502 C 0.49683 0.1358 0.82954 0.0
C1503 C 0.50394 0.15248 0.82654 0.0
C1504 C 0.49697 0.1594 0.79397 0.0
C1505 C 0.48284 0.14966 0.76451 0.0
H1506 H 0.51487 0.16004 0.84936 0.0
H1507 H 0.37813 0.06513 0.56165 0.0
H1508 H 0.31863 0.41532 0.92192 0.0
H1509 H 0.3171 0.41523 0.8201 0.0
H1510 H 0.33816 0.4667 0.82057 0.0
H1511 H 0.3395 0.46688 0.92194 0.0
H1512 H 0.31339 0.45309 0.75024 0.0
H1513 H 0.36031 0.44874 0.79008 0.0
H1514 H 0.37493 0.43636 0.83183 0.0
H1515 H 0.34504 0.3927 0.7426 0.0
H1516 H 0.3301 0.40477 0.70087 0.0
H1517 H 0.34631 0.47952 0.48604 0.0
H1518 H 0.34319 0.47327 0.58527 0.0
H1519 H 0.31781 0.4227 0.54758 0.0
H1520 H 0.32052 0.42888 0.4477 0.0
H1521 H 0.34125 0.43181 0.63437 0.0
H1522 H 0.29635 0.43771 0.58648 0.0
H1523 H 0.28254 0.45078 0.54372 0.0
H1524 H 0.30916 0.49206 0.64791 0.0
H1525 H 0.32332 0.47934 0.69072 0.0
C1526 C 0.32288 0.42661 0.90032 0.0
C1527 C 0.32925 0.44112 0.93003 0.0
C1528 C 0.32206 0.42654 0.84215 0.0
C1529 C 0.32766 0.44098 0.81274 0.0
C1530 C 0.33376 0.45542 0.84241 0.0
C1531 C 0.33457 0.4555 0.90041 0.0
C1532 C 0.32734 0.44124 0.75101 0.0
C1533 C 0.31955 0.44851 0.72496 0.0
C1534 C 0.33498 0.43483 0.71793 0.0
C1535 C 0.34397 0.42758 0.7429 0.0
C1536 C 0.35677 0.43645 0.77974 0.0
C1537 C 0.36513 0.4295 0.80332 0.0
C1538 C 0.36088 0.41373 0.79002 0.0
C1539 C 0.3483 0.4049 0.75296 0.0
C1540 C 0.33988 0.41179 0.72931 0.0
C1541 C 0.34013 0.46706 0.49877 0.0
C1542 C 0.33391 0.4547 0.459 0.0
C1543 C 0.33835 0.46351 0.55547 0.0
C1544 C 0.3302 0.44753 0.57365 0.0
C1545 C 0.32423 0.43511 0.53423 0.0
C1546 C 0.32593 0.43866 0.47723 0.0
C1547 C 0.32767 0.44404 0.63399 0.0
C1548 C 0.33488 0.43615 0.6597 0.0
C1549 C 0.31955 0.44993 0.66688 0.0
C1550 C 0.31098 0.4576 0.64153 0.0
C1551 C 0.29935 0.44962 0.59999 0.0
C1552 C 0.29145 0.45697 0.57579 0.0
C1553 C 0.29499 0.47226 0.59302 0.0
C1554 C 0.30643 0.48022 0.63459 0.0
C1555 C 0.31439 0.47294 0.65889 0.0
H1556 H 0.28886 0.47792 0.57423 0.0
H1557 H 0.36737 0.40837 0.80832 0.0
H1558 H 0.90244 0.31682 0.92588 0.0
H1559 H 0.90147 0.31569 0.824 0.0
H1560 H 0.87255 0.33839 0.82343 0.0
H1561 H 0.87322 0.33932 0.92487 0.0
H1562 H 0.86116 0.31422 0.75113 0.0
H1563 H 0.91294 0.35951 0.79674 0.0
H1564 H 0.93956 0.37293 0.84155 0.0
H1565 H 0.95254 0.34248 0.75204 0.0
H1566 H 0.92589 0.32872 0.70728 0.0
H1567 H 0.87167 0.35012 0.4903 0.0
H1568 H 0.8743 0.34632 0.58935 0.0
H1569 H 0.8956 0.31733 0.55048 0.0
H1570 H 0.89251 0.32062 0.45076 0.0
H1571 H 0.91131 0.34113 0.63997 0.0
H1572 H 0.85974 0.29789 0.58683 0.0
H1573 H 0.83325 0.28569 0.5414 0.0
H1574 H 0.81998 0.31349 0.64527 0.0
H1575 H 0.8465 0.32606 0.69074 0.0
C1576 C 0.89581 0.32149 0.90404 0.0
C1577 C 0.88797 0.32823 0.93348 0.0
C1578 C 0.89532 0.32089 0.84583 0.0
C1579 C 0.88708 0.32711 0.8161 0.0
C1580 C 0.87897 0.33352 0.8455 0.0
C1581 C 0.87942 0.33409 0.90354 0.0
C1582 C 0.88698 0.32723 0.75435 0.0
C1583 C 0.87213 0.32017 0.72691 0.0
C1584 C 0.9013 0.33462 0.72261 0.0
C1585 C 0.91736 0.34296 0.74919 0.0
C1586 C 0.92142 0.35559 0.78695 0.0
C1587 C 0.93652 0.36327 0.81228 0.0
C1588 C 0.94771 0.35852 0.79978 0.0
C1589 C 0.94385 0.34612 0.76177 0.0
C1590 C 0.92875 0.33838 0.7364 0.0
C1591 C 0.87702 0.34301 0.50269 0.0
C1592 C 0.88212 0.3359 0.46258 0.0
C1593 C 0.87852 0.34088 0.55929 0.0
C1594 C 0.88511 0.33153 0.57707 0.0
C1595 C 0.89061 0.3247 0.5374 0.0
C1596 C 0.88898 0.32673 0.48046 0.0
C1597 C 0.8855 0.32846 0.63724 0.0
C1598 C 0.90037 0.33496 0.66428 0.0
C1599 C 0.8712 0.32065 0.66878 0.0
C1600 C 0.85516 0.313 0.64192 0.0
C1601 C 0.85122 0.30149 0.5997 0.0
C1602 C 0.83619 0.2945 0.57398 0.0
C1603 C 0.82495 0.29883 0.59037 0.0
C1604 C 0.8287 0.31015 0.63261 0.0
C1605 C 0.84373 0.3172 0.65841 0.0
H1606 H 0.81332 0.2934 0.57041 0.0
H1607 H 0.9594 0.36448 0.81944 0.0
H1608 H 0.06304 0.42591 0.24054 0.0
H1609 H 0.03435 0.40728 0.23758 0.0
H1610 H 0.03746 0.39965 0.06204 0.0
H1611 H 0.06636 0.41879 0.06431 0.0
H1612 H 0.01308 0.40394 0.08105 0.0
H1613 H 0.03091 0.37036 0.16121 0.0
H1614 H 0.04598 0.36289 0.22595 0.0
H1615 H 0.02037 0.36756 0.36436 0.0
H1616 H 0.0053 0.37528 0.30054 0.0
H1617 H 0.93074 0.34568 0.08031 0.0
H1618 H 0.9597 0.35677 0.07363 0.0
H1619 H 0.9649 0.37096 0.24623 0.0
H1620 H 0.93587 0.3595 0.2537 0.0
H1621 H 0.98515 0.3604 0.21978 0.0
H1622 H 0.9703 0.39752 0.13921 0.0
H1623 H 0.95525 0.40494 0.07414 0.0
H1624 H 0.9754 0.39301 0.93524 0.0
H1625 H 0.99047 0.38538 0.99958 0.0
C1626 C 0.05772 0.42018 0.20129 0.0
C1627 C 0.06704 0.42382 0.15266 0.0
C1628 C 0.04126 0.40942 0.19976 0.0
C1629 C 0.03375 0.4018 0.14983 0.0
C1630 C 0.04301 0.40532 0.10114 0.0
C1631 C 0.05952 0.41625 0.1025 0.0
C1632 C 0.0161 0.39088 0.14839 0.0
C1633 C 0.00701 0.39419 0.1106 0.0
C1634 C 0.00811 0.3783 0.1875 0.0
C1635 C 0.01704 0.37349 0.22605 0.0
C1636 C 0.02856 0.36989 0.20548 0.0
C1637 C 0.03709 0.3656 0.24202 0.0
C1638 C 0.03415 0.36478 0.29924 0.0
C1639 C 0.02264 0.3682 0.32002 0.0
C1640 C 0.01408 0.37251 0.28367 0.0
C1641 C 0.93801 0.35098 0.11709 0.0
C1642 C 0.93101 0.35188 0.16741 0.0
C1643 C 0.95458 0.35735 0.11312 0.0
C1644 C 0.9645 0.365 0.15908 0.0
C1645 C 0.95747 0.36517 0.21015 0.0
C1646 C 0.94087 0.35863 0.21434 0.0
C1647 C 0.98222 0.3737 0.15327 0.0
C1648 C 0.99128 0.36998 0.1897 0.0
C1649 C 0.9902 0.38587 0.1128 0.0
C1650 C 0.98139 0.39075 0.07417 0.0
C1651 C 0.97146 0.39642 0.09479 0.0
C1652 C 0.96294 0.40067 0.05806 0.0
C1653 C 0.96434 0.39942 0.0006 0.0
C1654 C 0.97432 0.39397 0.97976 0.0
C1655 C 0.98287 0.3897 0.01632 0.0
H1656 H 0.95771 0.40269 0.97223 0.0
H1657 H 0.04078 0.36147 0.32746 0.0
H1658 H 0.5776 0.93286 0.27082 0.0
H1659 H 0.59478 0.96202 0.27371 0.0
H1660 H 0.59972 0.96313 0.09504 0.0
H1661 H 0.58267 0.934 0.09164 0.0
H1662 H 0.62803 0.98456 0.14652 0.0
H1663 H 0.5726 0.97042 0.15009 0.0
H1664 H 0.54478 0.95643 0.18493 0.0
H1665 H 0.56101 0.97917 0.34419 0.0
H1666 H 0.58898 0.99312 0.31049 0.0
H1667 H 0.64551 0.06519 0.09322 0.0
H1668 H 0.63452 0.03611 0.09529 0.0
H1669 H 0.63067 0.0364 0.27414 0.0
H1670 H 0.64162 0.06534 0.27268 0.0
H1671 H 0.60268 0.01427 0.22459 0.0
H1672 H 0.65835 0.02989 0.21742 0.0
H1673 H 0.6859 0.04398 0.18021 0.0
H1674 H 0.66906 0.01885 0.02508 0.0
H1675 H 0.64135 0.00477 0.0611 0.0
C1676 C 0.58252 0.93926 0.23219 0.0
C1677 C 0.57858 0.9311 0.18093 0.0
C1678 C 0.59231 0.95593 0.23392 0.0
C1679 C 0.59833 0.96474 0.18449 0.0
C1680 C 0.59516 0.95656 0.13363 0.0
C1681 C 0.58534 0.9399 0.1318 0.0
C1682 C 0.60691 0.98251 0.18531 0.0
C1683 C 0.62247 0.99108 0.16317 0.0
C1684 C 0.5997 0.99099 0.20763 0.0
C1685 C 0.58289 0.98266 0.22798 0.0
C1686 C 0.57025 0.97233 0.19269 0.0
C1687 C 0.55446 0.96442 0.2122 0.0
C1688 C 0.55114 0.96687 0.2668 0.0
C1689 C 0.5636 0.97726 0.30195 0.0
C1690 C 0.57943 0.98517 0.28266 0.0
C1691 C 0.6425 0.0591 0.13305 0.0
C1692 C 0.64437 0.06761 0.18273 0.0
C1693 C 0.63628 0.04249 0.13416 0.0
C1694 C 0.63181 0.03412 0.18491 0.0
C1695 C 0.63402 0.04263 0.23456 0.0
C1696 C 0.64032 0.0592 0.23356 0.0
C1697 C 0.62387 0.01638 0.18614 0.0
C1698 C 0.60834 0.00779 0.20838 0.0
C1699 C 0.63109 0.00794 0.16359 0.0
C1700 C 0.64774 0.01639 0.14177 0.0
C1701 C 0.66049 0.02747 0.17519 0.0
C1702 C 0.67614 0.03544 0.15435 0.0
C1703 C 0.67922 0.03234 0.10026 0.0
C1704 C 0.66665 0.02125 0.06695 0.0
C1705 C 0.65097 0.01326 0.08757 0.0
H1706 H 0.69135 0.03851 0.08422 0.0
H1707 H 0.5389 0.96075 0.28182 0.0
H1708 H 0.63003 0.56675 0.27543 0.0
H1709 H 0.61747 0.58332 0.26659 0.0
H1710 H 0.65209 0.61185 0.14056 0.0
H1711 H 0.66383 0.59449 0.14647 0.0
H1712 H 0.62314 0.61127 0.27957 0.0
H1713 H 0.63655 0.62497 0.04349 0.0
H1714 H 0.6412 0.61284 0.96018 0.0
H1715 H 0.61522 0.5662 0.03529 0.0
H1716 H 0.61018 0.57801 0.11863 0.0
H1717 H 0.5937 0.6629 0.21641 0.0
H1718 H 0.61182 0.652 0.22261 0.0
H1719 H 0.58168 0.61437 0.10745 0.0
H1720 H 0.5645 0.6262 0.09756 0.0
H1721 H 0.60907 0.62012 0.08923 0.0
H1722 H 0.57998 0.61065 0.25974 0.0
H1723 H 0.57019 0.61789 0.3436 0.0
H1724 H 0.6186 0.647 0.40141 0.0
H1725 H 0.62868 0.64008 0.3175 0.0
C1726 C 0.63505 0.5767 0.2464 0.0
C1727 C 0.64775 0.57928 0.2112 0.0
C1728 C 0.62788 0.58618 0.24131 0.0
C1729 C 0.63353 0.59862 0.20178 0.0
C1730 C 0.64712 0.602 0.16995 0.0
C1731 C 0.65393 0.59219 0.17371 0.0
C1732 C 0.62469 0.60743 0.19194 0.0
C1733 C 0.62009 0.61321 0.23791 0.0
C1734 C 0.6203 0.60967 0.1377 0.0
C1735 C 0.62316 0.60242 0.08754 0.0
C1736 C 0.63179 0.61212 0.04213 0.0
C1737 C 0.63449 0.6053 0.99492 0.0
C1738 C 0.62855 0.58877 0.99252 0.0
C1739 C 0.61985 0.57901 0.03727 0.0
C1740 C 0.61707 0.58576 0.08451 0.0
C1741 C 0.59122 0.65251 0.1916 0.0
C1742 C 0.57776 0.64533 0.15662 0.0
C1743 C 0.60144 0.64616 0.19562 0.0
C1744 C 0.59789 0.63201 0.16697 0.0
C1745 C 0.58474 0.62525 0.1302 0.0
C1746 C 0.57489 0.63198 0.12454 0.0
C1747 C 0.60735 0.62382 0.1769 0.0
C1748 C 0.61214 0.61822 0.13091 0.0
C1749 C 0.61111 0.62095 0.23128 0.0
C1750 C 0.60509 0.62498 0.28209 0.0
C1751 C 0.58853 0.61866 0.29022 0.0
C1752 C 0.58294 0.6227 0.33775 0.0
C1753 C 0.59377 0.63294 0.37773 0.0
C1754 C 0.61023 0.63909 0.37036 0.0
C1755 C 0.61589 0.63511 0.32285 0.0
H1756 H 0.58942 0.63607 0.41447 0.0
H1757 H 0.63063 0.58352 0.95588 0.0
H1758 H 0.06759 0.65049 0.10038 0.0
H1759 H 0.03855 0.6388 0.09911 0.0
H1760 H 0.03698 0.63197 0.277 0.0
H1761 H 0.06611 0.64351 0.27868 0.0
H1762 H 0.01613 0.60488 0.22393 0.0
H1763 H 0.02921 0.65976 0.22025 0.0
H1764 H 0.04271 0.6877 0.18672 0.0
H1765 H 0.0205 0.67173 0.02658 0.0
H1766 H 0.00703 0.64365 0.05891 0.0
H1767 H 0.93482 0.57882 0.26356 0.0
H1768 H 0.96377 0.59649 0.26518 0.0
H1769 H 0.96464 0.59839 0.08578 0.0
H1770 H 0.93545 0.58055 0.08347 0.0
H1771 H 0.98564 0.62854 0.13913 0.0
H1772 H 0.97362 0.57377 0.14165 0.0
H1773 H 0.96004 0.54581 0.17499 0.0
H1774 H 0.98057 0.56183 0.33735 0.0
H1775 H 0.99409 0.58993 0.30517 0.0
C1776 C 0.06113 0.64669 0.13943 0.0
C1777 C 0.0692 0.64783 0.18962 0.0
C1778 C 0.04451 0.64009 0.13862 0.0
C1779 C 0.0356 0.63457 0.18797 0.0
C1780 C 0.04364 0.63616 0.23842 0.0
C1781 C 0.0603 0.6428 0.23932 0.0
C1782 C 0.01781 0.62597 0.18618 0.0
C1783 C 0.00948 0.61018 0.20629 0.0
C1784 C 0.00915 0.6327 0.16148 0.0
C1785 C 0.01723 0.64957 0.14187 0.0
C1786 C 0.02731 0.66218 0.17773 0.0
C1787 C 0.03494 0.67805 0.15897 0.0
C1788 C 0.0325 0.68148 0.10451 0.0
C1789 C 0.0224 0.66905 0.06874 0.0
C1790 C 0.01475 0.65315 0.08728 0.0
C1791 C 0.94107 0.58308 0.22428 0.0
C1792 C 0.9328 0.57807 0.17329 0.0
C1793 C 0.95764 0.59321 0.22539 0.0
C1794 C 0.96634 0.59856 0.17563 0.0
C1795 C 0.95811 0.59433 0.12463 0.0
C1796 C 0.94145 0.5841 0.12342 0.0
C1797 C 0.98409 0.60759 0.17732 0.0
C1798 C 0.99237 0.62335 0.15699 0.0
C1799 C 0.99277 0.60086 0.20173 0.0
C1800 C 0.98473 0.58397 0.22115 0.0
C1801 C 0.97513 0.57134 0.1846 0.0
C1802 C 0.96746 0.55546 0.20326 0.0
C1803 C 0.96941 0.55204 0.2583 0.0
C1804 C 0.97906 0.5645 0.29475 0.0
C1805 C 0.98674 0.5804 0.27631 0.0
H1806 H 0.96346 0.53974 0.27267 0.0
H1807 H 0.03841 0.69378 0.09007 0.0
H1808 H 0.3534 0.93549 0.0848 0.0
H1809 H 0.36397 0.96448 0.08529 0.0
H1810 H 0.37159 0.96562 0.26265 0.0
H1811 H 0.3608 0.93672 0.2628 0.0
H1812 H 0.36086 0.98543 0.2357 0.0
H1813 H 0.4022 0.97511 0.16991 0.0
H1814 H 0.41372 0.96293 0.10846 0.0
H1815 H 0.40647 0.98574 0.96661 0.0
H1816 H 0.39471 0.99789 0.02719 0.0
H1817 H 0.42318 0.06667 0.27374 0.0
H1818 H 0.4057 0.03754 0.27022 0.0
H1819 H 0.39989 0.04015 0.09307 0.0
H1820 H 0.41752 0.06915 0.09597 0.0
H1821 H 0.40811 0.01842 0.11599 0.0
H1822 H 0.36888 0.03084 0.18517 0.0
H1823 H 0.35801 0.04321 0.24857 0.0
H1824 H 0.36193 0.01685 0.38604 0.0
H1825 H 0.37303 0.00447 0.32359 0.0
C1826 C 0.35719 0.94188 0.12399 0.0
C1827 C 0.35636 0.93377 0.17369 0.0
C1828 C 0.36326 0.95846 0.12419 0.0
C1829 C 0.36879 0.96726 0.17391 0.0
C1830 C 0.3674 0.95909 0.2238 0.0
C1831 C 0.36125 0.94254 0.22373 0.0
C1832 C 0.37686 0.98504 0.17383 0.0
C1833 C 0.37125 0.99266 0.2098 0.0
C1834 C 0.39027 0.99448 0.13938 0.0
C1835 C 0.39742 0.98726 0.10297 0.0
C1836 C 0.40296 0.97744 0.12556 0.0
C1837 C 0.40955 0.97055 0.0909 0.0
C1838 C 0.41078 0.97352 0.03364 0.0
C1839 C 0.40548 0.98342 0.01095 0.0
C1840 C 0.39886 0.99032 0.04542 0.0
C1841 C 0.41799 0.06107 0.23417 0.0
C1842 C 0.42186 0.07024 0.18509 0.0
C1843 C 0.40794 0.04441 0.23225 0.0
C1844 C 0.40144 0.03665 0.18136 0.0
C1845 C 0.40481 0.04586 0.13275 0.0
C1846 C 0.41489 0.06246 0.13455 0.0
C1847 C 0.39214 0.01888 0.17792 0.0
C1848 C 0.39759 0.01123 0.14143 0.0
C1849 C 0.37867 0.00947 0.21214 0.0
C1850 C 0.37191 0.01683 0.24975 0.0
C1851 C 0.36753 0.02777 0.22899 0.0
C1852 C 0.36131 0.03477 0.26475 0.0
C1853 C 0.35931 0.03085 0.32131 0.0
C1854 C 0.36349 0.01989 0.34222 0.0
C1855 C 0.36973 0.01286 0.30664 0.0
H1856 H 0.35449 0.03628 0.34893 0.0
H1857 H 0.41588 0.96818 0.00688 0.0
H1858 H 0.35428 0.42157 0.2591 0.0
H1859 H 0.36666 0.40475 0.25774 0.0
H1860 H 0.36521 0.40396 0.07823 0.0
H1861 H 0.35268 0.42061 0.07905 0.0
H1862 H 0.35829 0.3749 0.12049 0.0
H1863 H 0.39888 0.43008 0.14299 0.0
H1864 H 0.41175 0.45686 0.18656 0.0
H1865 H 0.41585 0.43668 0.34091 0.0
H1866 H 0.40279 0.40972 0.29845 0.0
H1867 H 0.42198 0.35796 0.07076 0.0
H1868 H 0.40414 0.36926 0.07277 0.0
H1869 H 0.40524 0.36954 0.25231 0.0
H1870 H 0.42305 0.35839 0.25089 0.0
H1871 H 0.41178 0.39832 0.21015 0.0
H1872 H 0.37198 0.3429 0.18402 0.0
H1873 H 0.3595 0.31651 0.13775 0.0
H1874 H 0.35461 0.33761 0.98683 0.0
H1875 H 0.36727 0.36418 0.032 0.0
C1876 C 0.35638 0.41766 0.21932 0.0
C1877 C 0.35267 0.42264 0.16918 0.0
C1878 C 0.3635 0.40807 0.21863 0.0
C1879 C 0.36709 0.40334 0.16784 0.0
C1880 C 0.3626 0.40753 0.11786 0.0
C1881 C 0.35549 0.41711 0.11848 0.0
C1882 C 0.37647 0.39495 0.16666 0.0
C1883 C 0.37005 0.38006 0.13966 0.0
C1884 C 0.39174 0.40164 0.19213 0.0
C1885 C 0.3997 0.41786 0.2177 0.0
C1886 C 0.40241 0.43133 0.18635 0.0
C1887 C 0.40976 0.44655 0.21081 0.0
C1888 C 0.41457 0.44846 0.26651 0.0
C1889 C 0.41209 0.43517 0.2978 0.0
C1890 C 0.40472 0.41992 0.27355 0.0
C1891 C 0.41829 0.36026 0.11068 0.0
C1892 C 0.42403 0.35733 0.16063 0.0
C1893 C 0.40805 0.36667 0.11175 0.0
C1894 C 0.40336 0.37021 0.16273 0.0
C1895 C 0.40875 0.36693 0.21254 0.0
C1896 C 0.41891 0.36051 0.21156 0.0
C1897 C 0.39356 0.37816 0.16445 0.0
C1898 C 0.39998 0.39307 0.1913 0.0
C1899 C 0.37837 0.37153 0.13845 0.0
C1900 C 0.37072 0.35556 0.11124 0.0
C1901 C 0.36837 0.34194 0.14082 0.0
C1902 C 0.36124 0.32694 0.11482 0.0
C1903 C 0.3563 0.32539 0.05934 0.0
C1904 C 0.35845 0.33883 0.02978 0.0
C1905 C 0.36559 0.35386 0.05558 0.0
H1906 H 0.35078 0.31377 0.03928 0.0
H1907 H 0.42025 0.46025 0.28538 0.0
loop_
_geom_bond_atom_site_label_1
_geom_bond_atom_site_label_2
_geom_bond_distance
_geom_bond_site_symmetry_2
_ccdc_geom_bond_type
Co0 O3 1.970 . S
Co0 N17 1.989 . S
Co0 O25 1.967 . S
Co0 O32 1.920 . S
Co1 O4 1.966 . S
Co1 N10 2.022 . S
Co1 N18 1.993 . S
Co1 O26 1.941 . S
C2 O3 1.258 . S
C2 O4 1.263 . S
O3 Co0 1.970 . S
O3 C2 1.258 . S
O4 Co1 1.966 . S
O4 C2 1.263 . S
C5 O6 1.235 . S
C5 O32 1.289 . S
O6 C5 1.235 . S
C7 C9 1.400 . S
C7 N10 1.351 1_556 S
C7 C12 1.501 . S
C8 C9 1.387 . S
C8 N11 1.341 . S
C9 C7 1.400 . S
C9 C8 1.387 . S
N10 Co1 2.022 . S
N10 C7 1.351 1_554 S
N10 N11 1.365 1_554 S
N11 C8 1.341 . S
N11 N10 1.365 1_556 S
N11 H31 0.862 . S
C12 C7 1.501 . S
C12 H13 0.961 1_556 S
C12 H14 0.961 . S
C12 H15 0.960 . S
H13 C12 0.961 1_554 S
H14 C12 0.961 . S
H15 C12 0.960 . S
C16 N17 1.342 . S
C16 C20 1.401 . S
C16 C21 1.499 . S
N17 Co0 1.989 . S
N17 C16 1.342 . S
N17 N18 1.388 . S
N18 Co1 1.993 . S
N18 N17 1.388 . S
N18 C19 1.346 . S
C19 N18 1.346 . S
C19 C20 1.396 . S
C19 C29 1.510 . S
C20 C16 1.401 . S
C20 C19 1.396 . S
C21 C16 1.499 . S
C21 H22 0.959 . S
C21 H23 0.960 . S
C21 H24 0.961 . S
H22 C21 0.959 . S
H23 C21 0.960 . S
H24 C21 0.961 . S
O25 Co0 1.967 . S
O25 C33 1.258 . S
O26 Co1 1.941 . S
O26 C33 1.266 . S
H27 C29 0.959 . S
H28 C29 0.961 . S
C29 C19 1.510 . S
C29 H27 0.959 . S
C29 H28 0.961 . S
C29 H30 0.960 . S
H30 C29 0.960 . S
H31 N11 0.862 . S
O32 Co0 1.920 . S
O32 C5 1.289 . S
C33 O25 1.258 . S
C33 O26 1.266 . S
Co34 O37 1.970 . S
Co34 N51 1.989 . S
Co34 O59 1.967 . S
Co34 O66 1.920 . S
Co35 O38 1.966 . S
Co35 N44 2.022 . S
Co35 N52 1.993 . S
Co35 O60 1.941 . S
C36 O37 1.258 . S
C36 O38 1.263 . S
O37 Co34 1.970 . S
O37 C36 1.258 . S
O38 Co35 1.966 . S
O38 C36 1.263 . S
C39 O40 1.235 . S
C39 O66 1.289 . S
O40 C39 1.235 . S
C41 C43 1.400 . S
C41 N44 1.351 1_556 S
C41 C46 1.501 . S
C42 C43 1.387 . S
C42 N45 1.341 . S
C43 C41 1.400 . S
C43 C42 1.387 . S
N44 Co35 2.022 . S
N44 C41 1.351 1_554 S
N44 N45 1.365 1_554 S
N45 C42 1.341 . S
N45 N44 1.365 1_556 S
N45 H65 0.862 . S
C46 C41 1.501 . S
C46 H47 0.961 1_556 S
C46 H48 0.961 . S
C46 H49 0.960 . S
H47 C46 0.961 1_554 S
H48 C46 0.961 . S
H49 C46 0.960 . S
C50 N51 1.342 . S
C50 C54 1.401 . S
C50 C55 1.499 . S
N51 Co34 1.989 . S
N51 C50 1.342 . S
N51 N52 1.388 . S
N52 Co35 1.993 . S
N52 N51 1.388 . S
N52 C53 1.346 . S
C53 N52 1.346 . S
C53 C54 1.396 . S
C53 C63 1.510 . S
C54 C50 1.401 . S
C54 C53 1.396 . S
C55 C50 1.499 . S
C55 H56 0.959 . S
C55 H57 0.960 . S
C55 H58 0.961 . S
H56 C55 0.959 . S
H57 C55 0.960 . S
H58 C55 0.961 . S
O59 Co34 1.967 . S
O59 C67 1.258 . S
O60 Co35 1.941 . S
O60 C67 1.266 . S
H61 C63 0.959 . S
H62 C63 0.961 . S
C63 C53 1.510 . S
C63 H61 0.959 . S
C63 H62 0.961 . S
C63 H64 0.960 . S
H64 C63 0.960 . S
H65 N45 0.862 . S
O66 Co34 1.920 . S
O66 C39 1.289 . S
C67 O59 1.258 . S
C67 O60 1.266 . S
Co68 O71 1.970 . S
Co68 N85 1.989 . S
Co68 O93 1.967 . S
Co68 O100 1.920 . S
Co69 O72 1.966 . S
Co69 N78 2.022 . S
Co69 N86 1.993 . S
Co69 O94 1.941 . S
C70 O71 1.258 . S
C70 O72 1.263 . S
O71 Co68 1.970 . S
O71 C70 1.258 . S
O72 Co69 1.966 . S
O72 C70 1.263 . S
C73 O74 1.235 . S
C73 O100 1.289 . S
O74 C73 1.235 . S
C75 C77 1.400 . S
C75 N78 1.351 1_556 S
C75 C80 1.501 . S
C76 C77 1.387 . S
C76 N79 1.341 . S
C77 C75 1.400 . S
C77 C76 1.387 . S
N78 Co69 2.022 . S
N78 C75 1.351 1_554 S
N78 N79 1.365 1_554 S
N79 C76 1.341 . S
N79 N78 1.365 1_556 S
N79 H99 0.862 . S
C80 C75 1.501 . S
C80 H81 0.961 1_556 S
C80 H82 0.961 . S
C80 H83 0.960 . S
H81 C80 0.961 1_554 S
H82 C80 0.961 . S
H83 C80 0.960 . S
C84 N85 1.342 . S
C84 C88 1.401 . S
C84 C89 1.499 . S
N85 Co68 1.989 . S
N85 C84 1.342 . S
N85 N86 1.388 . S
N86 Co69 1.993 . S
N86 N85 1.388 . S
N86 C87 1.346 . S
C87 N86 1.346 . S
C87 C88 1.396 . S
C87 C97 1.510 . S
C88 C84 1.401 . S
C88 C87 1.396 . S
C89 C84 1.499 . S
C89 H90 0.959 . S
C89 H91 0.960 . S
C89 H92 0.961 . S
H90 C89 0.959 . S
H91 C89 0.960 . S
H92 C89 0.961 . S
O93 Co68 1.967 . S
O93 C101 1.258 . S
O94 Co69 1.941 . S
O94 C101 1.266 . S
H95 C97 0.959 . S
H96 C97 0.961 . S
C97 C87 1.510 . S
C97 H95 0.959 . S
C97 H96 0.961 . S
C97 H98 0.960 . S
H98 C97 0.960 . S
H99 N79 0.862 . S
O100 Co68 1.920 . S
O100 C73 1.289 . S
C101 O93 1.258 . S
C101 O94 1.266 . S
Co102 O105 1.970 . S
Co102 N119 1.989 . S
Co102 O127 1.967 . S
Co102 O134 1.920 . S
Co103 O106 1.966 . S
Co103 N112 2.022 . S
Co103 N120 1.993 . S
Co103 O128 1.941 . S
C104 O105 1.258 . S
C104 O106 1.263 . S
O105 Co102 1.970 . S
O105 C104 1.258 . S
O106 Co103 1.966 . S
O106 C104 1.263 . S
C107 O108 1.235 . S
C107 O134 1.289 . S
O108 C107 1.235 . S
C109 C111 1.400 . S
C109 N112 1.351 1_556 S
C109 C114 1.501 . S
C110 C111 1.387 . S
C110 N113 1.341 . S
C111 C109 1.400 . S
C111 C110 1.387 . S
N112 Co103 2.022 . S
N112 C109 1.351 1_554 S
N112 N113 1.365 1_554 S
N113 C110 1.341 . S
N113 N112 1.365 1_556 S
N113 H133 0.862 . S
C114 C109 1.501 . S
C114 H115 0.961 1_556 S
C114 H116 0.961 . S
C114 H117 0.960 . S
H115 C114 0.961 1_554 S
H116 C114 0.961 . S
H117 C114 0.960 . S
C118 N119 1.342 . S
C118 C122 1.401 . S
C118 C123 1.499 . S
N119 Co102 1.989 . S
N119 C118 1.342 . S
N119 N120 1.388 . S
N120 Co103 1.993 . S
N120 N119 1.388 . S
N120 C121 1.346 . S
C121 N120 1.346 . S
C121 C122 1.396 . S
C121 C131 1.510 . S
C122 C118 1.401 . S
C122 C121 1.396 . S
C123 C118 1.499 . S
C123 H124 0.959 . S
C123 H125 0.960 . S
C123 H126 0.961 . S
H124 C123 0.959 . S
H125 C123 0.960 . S
H126 C123 0.961 . S
O127 Co102 1.967 . S
O127 C135 1.258 . S
O128 Co103 1.941 . S
O128 C135 1.266 . S
H129 C131 0.959 . S
H130 C131 0.961 . S
C131 C121 1.510 . S
C131 H129 0.959 . S
C131 H130 0.961 . S
C131 H132 0.960 . S
H132 C131 0.960 . S
H133 N113 0.862 . S
O134 Co102 1.920 . S
O134 C107 1.289 . S
C135 O127 1.258 . S
C135 O128 1.266 . S
Co136 O139 1.970 . S
Co136 N153 1.989 . S
Co136 O161 1.967 . S
Co136 O168 1.920 . S
Co137 O140 1.966 . S
Co137 N146 2.022 . S
Co137 N154 1.993 . S
Co137 O162 1.941 . S
C138 O139 1.258 . S
C138 O140 1.263 . S
O139 Co136 1.970 . S
O139 C138 1.258 . S
O140 Co137 1.966 . S
O140 C138 1.263 . S
C141 O142 1.235 . S
C141 O168 1.289 . S
O142 C141 1.235 . S
C143 C145 1.400 . S
C143 N146 1.351 1_556 S
C143 C148 1.501 . S
C144 C145 1.387 . S
C144 N147 1.341 . S
C145 C143 1.400 . S
C145 C144 1.387 . S
N146 Co137 2.022 . S
N146 C143 1.351 1_554 S
N146 N147 1.365 1_554 S
N147 C144 1.341 . S
N147 N146 1.365 1_556 S
N147 H167 0.862 . S
C148 C143 1.501 . S
C148 H149 0.961 1_556 S
C148 H150 0.961 . S
C148 H151 0.960 . S
H149 C148 0.961 1_554 S
H150 C148 0.961 . S
H151 C148 0.960 . S
C152 N153 1.342 . S
C152 C156 1.401 . S
C152 C157 1.499 . S
N153 Co136 1.989 . S
N153 C152 1.342 . S
N153 N154 1.388 . S
N154 Co137 1.993 . S
N154 N153 1.388 . S
N154 C155 1.346 . S
C155 N154 1.346 . S
C155 C156 1.396 . S
C155 C165 1.510 . S
C156 C152 1.401 . S
C156 C155 1.396 . S
C157 C152 1.499 . S
C157 H158 0.959 . S
C157 H159 0.960 . S
C157 H160 0.961 . S
H158 C157 0.959 . S
H159 C157 0.960 . S
H160 C157 0.961 . S
O161 Co136 1.967 . S
O161 C169 1.258 . S
O162 Co137 1.941 . S
O162 C169 1.266 . S
H163 C165 0.959 . S
H164 C165 0.961 . S
C165 C155 1.510 . S
C165 H163 0.959 . S
C165 H164 0.961 . S
C165 H166 0.960 . S
H166 C165 0.960 . S
H167 N147 0.862 . S
O168 Co136 1.920 . S
O168 C141 1.289 . S
C169 O161 1.258 . S
C169 O162 1.266 . S
Co170 O173 1.970 . S
Co170 N187 1.989 . S
Co170 O195 1.967 . S
Co170 O202 1.920 . S
Co171 O174 1.966 . S
Co171 N180 2.022 . S
Co171 N188 1.993 . S
Co171 O196 1.941 . S
C172 O173 1.258 . S
C172 O174 1.263 . S
O173 Co170 1.970 . S
O173 C172 1.258 . S
O174 Co171 1.966 . S
O174 C172 1.263 . S
C175 O176 1.235 . S
C175 O202 1.289 . S
O176 C175 1.235 . S
C177 C179 1.400 . S
C177 N180 1.351 1_556 S
C177 C182 1.501 . S
C178 C179 1.387 . S
C178 N181 1.341 . S
C179 C177 1.400 . S
C179 C178 1.387 . S
N180 Co171 2.022 . S
N180 C177 1.351 1_554 S
N180 N181 1.365 1_554 S
N181 C178 1.341 . S
N181 N180 1.365 1_556 S
N181 H201 0.862 . S
C182 C177 1.501 . S
C182 H183 0.961 1_556 S
C182 H184 0.961 . S
C182 H185 0.960 . S
H183 C182 0.961 1_554 S
H184 C182 0.961 . S
H185 C182 0.960 . S
C186 N187 1.342 . S
C186 C190 1.401 . S
C186 C191 1.499 . S
N187 Co170 1.989 . S
N187 C186 1.342 . S
N187 N188 1.388 . S
N188 Co171 1.993 . S
N188 N187 1.388 . S
N188 C189 1.346 . S
C189 N188 1.346 . S
C189 C190 1.396 . S
C189 C199 1.510 . S
C190 C186 1.401 . S
C190 C189 1.396 . S
C191 C186 1.499 . S
C191 H192 0.959 . S
C191 H193 0.960 . S
C191 H194 0.961 . S
H192 C191 0.959 . S
H193 C191 0.960 . S
H194 C191 0.961 . S
O195 Co170 1.967 . S
O195 C203 1.258 . S
O196 Co171 1.941 . S
O196 C203 1.266 . S
H197 C199 0.959 . S
H198 C199 0.961 . S
C199 C189 1.510 . S
C199 H197 0.959 . S
C199 H198 0.961 . S
C199 H200 0.960 . S
H200 C199 0.960 . S
H201 N181 0.862 . S
O202 Co170 1.920 . S
O202 C175 1.289 . S
C203 O195 1.258 . S
C203 O196 1.266 . S
Co204 O207 1.970 . S
Co204 N221 1.989 . S
Co204 O229 1.967 . S
Co204 O236 1.920 . S
Co205 O208 1.966 . S
Co205 N214 2.022 . S
Co205 N222 1.993 . S
Co205 O230 1.941 . S
C206 O207 1.258 . S
C206 O208 1.263 . S
O207 Co204 1.970 . S
O207 C206 1.258 . S
O208 Co205 1.966 . S
O208 C206 1.263 . S
C209 O210 1.235 . S
C209 O236 1.289 . S
O210 C209 1.235 . S
C211 C213 1.400 . S
C211 N214 1.351 . S
C211 C216 1.501 . S
C212 C213 1.387 . S
C212 N215 1.341 . S
C213 C211 1.400 . S
C213 C212 1.387 . S
N214 Co205 2.022 . S
N214 C211 1.351 . S
N214 N215 1.365 . S
N215 C212 1.341 . S
N215 N214 1.365 . S
N215 H235 0.862 . S
C216 C211 1.501 . S
C216 H217 0.961 . S
C216 H218 0.961 . S
C216 H219 0.960 . S
H217 C216 0.961 . S
H218 C216 0.961 . S
H219 C216 0.960 . S
C220 N221 1.342 . S
C220 C224 1.401 . S
C220 C225 1.499 . S
N221 Co204 1.989 . S
N221 C220 1.342 . S
N221 N222 1.388 . S
N222 Co205 1.993 . S
N222 N221 1.388 . S
N222 C223 1.346 . S
C223 N222 1.346 . S
C223 C224 1.396 . S
C223 C233 1.510 . S
C224 C220 1.401 . S
C224 C223 1.396 . S
C225 C220 1.499 . S
C225 H226 0.959 . S
C225 H227 0.960 . S
C225 H228 0.961 . S
H226 C225 0.959 . S
H227 C225 0.960 . S
H228 C225 0.961 . S
O229 Co204 1.967 . S
O229 C237 1.258 . S
O230 Co205 1.941 . S
O230 C237 1.266 . S
H231 C233 0.959 . S
H232 C233 0.961 . S
C233 C223 1.510 . S
C233 H231 0.959 . S
C233 H232 0.961 . S
C233 H234 0.960 . S
H234 C233 0.960 . S
H235 N215 0.862 . S
O236 Co204 1.920 . S
O236 C209 1.289 . S
C237 O229 1.258 . S
C237 O230 1.266 . S
Co238 O241 1.970 . S
Co238 N255 1.989 . S
Co238 O263 1.967 . S
Co238 O270 1.920 . S
Co239 O242 1.966 . S
Co239 N248 2.022 . S
Co239 N256 1.993 . S
Co239 O264 1.941 . S
C240 O241 1.258 . S
C240 O242 1.263 . S
O241 Co238 1.970 . S
O241 C240 1.258 . S
O242 Co239 1.966 . S
O242 C240 1.263 . S
C243 O244 1.235 . S
C243 O270 1.289 . S
O244 C243 1.235 . S
C245 C247 1.400 . S
C245 N248 1.351 . S
C245 C250 1.501 . S
C246 C247 1.387 . S
C246 N249 1.341 . S
C247 C245 1.400 . S
C247 C246 1.387 . S
N248 Co239 2.022 . S
N248 C245 1.351 . S
N248 N249 1.365 . S
N249 C246 1.341 . S
N249 N248 1.365 . S
N249 H269 0.862 . S
C250 C245 1.501 . S
C250 H251 0.961 . S
C250 H252 0.961 . S
C250 H253 0.960 . S
H251 C250 0.961 . S
H252 C250 0.961 . S
H253 C250 0.960 . S
C254 N255 1.342 . S
C254 C258 1.401 . S
C254 C259 1.499 . S
N255 Co238 1.989 . S
N255 C254 1.342 . S
N255 N256 1.388 . S
N256 Co239 1.993 . S
N256 N255 1.388 . S
N256 C257 1.346 . S
C257 N256 1.346 . S
C257 C258 1.396 . S
C257 C267 1.510 . S
C258 C254 1.401 . S
C258 C257 1.396 . S
C259 C254 1.499 . S
C259 H260 0.959 . S
C259 H261 0.960 . S
C259 H262 0.961 . S
H260 C259 0.959 . S
H261 C259 0.960 . S
H262 C259 0.961 . S
O263 Co238 1.967 . S
O263 C271 1.258 . S
O264 Co239 1.941 . S
O264 C271 1.266 . S
H265 C267 0.959 . S
H266 C267 0.961 . S
C267 C257 1.510 . S
C267 H265 0.959 . S
C267 H266 0.961 . S
C267 H268 0.960 . S
H268 C267 0.960 . S
H269 N249 0.862 . S
O270 Co238 1.920 . S
O270 C243 1.289 . S
C271 O263 1.258 . S
C271 O264 1.266 . S
Co272 O275 1.970 . S
Co272 N289 1.989 . S
Co272 O297 1.967 . S
Co272 O304 1.920 . S
Co273 O276 1.966 . S
Co273 N282 2.022 . S
Co273 N290 1.993 . S
Co273 O298 1.941 . S
C274 O275 1.258 . S
C274 O276 1.263 . S
O275 Co272 1.970 . S
O275 C274 1.258 . S
O276 Co273 1.966 . S
O276 C274 1.263 . S
C277 O278 1.235 . S
C277 O304 1.289 . S
O278 C277 1.235 . S
C279 C281 1.400 . S
C279 N282 1.351 . S
C279 C284 1.501 . S
C280 C281 1.387 . S
C280 N283 1.341 . S
C281 C279 1.400 . S
C281 C280 1.387 . S
N282 Co273 2.022 . S
N282 C279 1.351 . S
N282 N283 1.365 . S
N283 C280 1.341 . S
N283 N282 1.365 . S
N283 H303 0.862 . S
C284 C279 1.501 . S
C284 H285 0.961 . S
C284 H286 0.961 . S
C284 H287 0.960 . S
H285 C284 0.961 . S
H286 C284 0.961 . S
H287 C284 0.960 . S
C288 N289 1.342 . S
C288 C292 1.401 . S
C288 C293 1.499 . S
N289 Co272 1.989 . S
N289 C288 1.342 . S
N289 N290 1.388 . S
N290 Co273 1.993 . S
N290 N289 1.388 . S
N290 C291 1.346 . S
C291 N290 1.346 . S
C291 C292 1.396 . S
C291 C301 1.510 . S
C292 C288 1.401 . S
C292 C291 1.396 . S
C293 C288 1.499 . S
C293 H294 0.959 . S
C293 H295 0.960 . S
C293 H296 0.961 . S
H294 C293 0.959 . S
H295 C293 0.960 . S
H296 C293 0.961 . S
O297 Co272 1.967 . S
O297 C305 1.258 . S
O298 Co273 1.941 . S
O298 C305 1.266 . S
H299 C301 0.959 . S
H300 C301 0.961 . S
C301 C291 1.510 . S
C301 H299 0.959 . S
C301 H300 0.961 . S
C301 H302 0.960 . S
H302 C301 0.960 . S
H303 N283 0.862 . S
O304 Co272 1.920 . S
O304 C277 1.289 . S
C305 O297 1.258 . S
C305 O298 1.266 . S
Co306 O309 1.970 . S
Co306 N323 1.989 . S
Co306 O331 1.967 . S
Co306 O338 1.920 . S
Co307 O310 1.966 . S
Co307 N316 2.022 . S
Co307 N324 1.993 . S
Co307 O332 1.941 . S
C308 O309 1.258 . S
C308 O310 1.263 . S
O309 Co306 1.970 . S
O309 C308 1.258 . S
O310 Co307 1.966 . S
O310 C308 1.263 . S
C311 O312 1.235 . S
C311 O338 1.289 . S
O312 C311 1.235 . S
C313 C315 1.400 . S
C313 N316 1.351 . S
C313 C318 1.501 . S
C314 C315 1.387 . S
C314 N317 1.341 . S
C315 C313 1.400 . S
C315 C314 1.387 . S
N316 Co307 2.022 . S
N316 C313 1.351 . S
N316 N317 1.365 . S
N317 C314 1.341 . S
N317 N316 1.365 . S
N317 H337 0.862 . S
C318 C313 1.501 . S
C318 H319 0.961 . S
C318 H320 0.961 . S
C318 H321 0.960 . S
H319 C318 0.961 . S
H320 C318 0.961 . S
H321 C318 0.960 . S
C322 N323 1.342 . S
C322 C326 1.401 . S
C322 C327 1.499 . S
N323 Co306 1.989 . S
N323 C322 1.342 . S
N323 N324 1.388 . S
N324 Co307 1.993 . S
N324 N323 1.388 . S
N324 C325 1.346 . S
C325 N324 1.346 . S
C325 C326 1.396 . S
C325 C335 1.510 . S
C326 C322 1.401 . S
C326 C325 1.396 . S
C327 C322 1.499 . S
C327 H328 0.959 . S
C327 H329 0.960 . S
C327 H330 0.961 . S
H328 C327 0.959 . S
H329 C327 0.960 . S
H330 C327 0.961 . S
O331 Co306 1.967 . S
O331 C339 1.258 . S
O332 Co307 1.941 . S
O332 C339 1.266 . S
H333 C335 0.959 . S
H334 C335 0.961 . S
C335 C325 1.510 . S
C335 H333 0.959 . S
C335 H334 0.961 . S
C335 H336 0.960 . S
H336 C335 0.960 . S
H337 N317 0.862 . S
O338 Co306 1.920 . S
O338 C311 1.289 . S
C339 O331 1.258 . S
C339 O332 1.266 . S
Co340 O343 1.970 . S
Co340 N357 1.989 . S
Co340 O365 1.967 . S
Co340 O372 1.920 . S
Co341 O344 1.966 . S
Co341 N350 2.022 . S
Co341 N358 1.993 . S
Co341 O366 1.941 . S
C342 O343 1.258 . S
C342 O344 1.263 . S
O343 Co340 1.970 . S
O343 C342 1.258 . S
O344 Co341 1.966 . S
O344 C342 1.263 . S
C345 O346 1.235 . S
C345 O372 1.289 . S
O346 C345 1.235 . S
C347 C349 1.400 . S
C347 N350 1.351 . S
C347 C352 1.501 . S
C348 C349 1.387 . S
C348 N351 1.341 . S
C349 C347 1.400 . S
C349 C348 1.387 . S
N350 Co341 2.022 . S
N350 C347 1.351 . S
N350 N351 1.365 . S
N351 C348 1.341 . S
N351 N350 1.365 . S
N351 H371 0.862 . S
C352 C347 1.501 . S
C352 H353 0.961 . S
C352 H354 0.961 . S
C352 H355 0.960 . S
H353 C352 0.961 . S
H354 C352 0.961 . S
H355 C352 0.960 . S
C356 N357 1.342 . S
C356 C360 1.401 . S
C356 C361 1.499 . S
N357 Co340 1.989 . S
N357 C356 1.342 . S
N357 N358 1.388 . S
N358 Co341 1.993 . S
N358 N357 1.388 . S
N358 C359 1.346 . S
C359 N358 1.346 . S
C359 C360 1.396 . S
C359 C369 1.510 . S
C360 C356 1.401 . S
C360 C359 1.396 . S
C361 C356 1.499 . S
C361 H362 0.959 . S
C361 H363 0.960 . S
C361 H364 0.961 . S
H362 C361 0.959 . S
H363 C361 0.960 . S
H364 C361 0.961 . S
O365 Co340 1.967 . S
O365 C373 1.258 . S
O366 Co341 1.941 . S
O366 C373 1.266 . S
H367 C369 0.959 . S
H368 C369 0.961 . S
C369 C359 1.510 . S
C369 H367 0.959 . S
C369 H368 0.961 . S
C369 H370 0.960 . S
H370 C369 0.960 . S
H371 N351 0.862 . S
O372 Co340 1.920 . S
O372 C345 1.289 . S
C373 O365 1.258 . S
C373 O366 1.266 . S
Co374 O377 1.970 . S
Co374 N391 1.989 . S
Co374 O399 1.967 . S
Co374 O406 1.920 . S
Co375 O378 1.966 . S
Co375 N384 2.022 . S
Co375 N392 1.993 . S
Co375 O400 1.941 . S
C376 O377 1.258 . S
C376 O378 1.263 . S
O377 Co374 1.970 . S
O377 C376 1.258 . S
O378 Co375 1.966 . S
O378 C376 1.263 . S
C379 O380 1.235 . S
C379 O406 1.289 . S
O380 C379 1.235 . S
C381 C383 1.400 . S
C381 N384 1.351 . S
C381 C386 1.501 . S
C382 C383 1.387 . S
C382 N385 1.341 . S
C383 C381 1.400 . S
C383 C382 1.387 . S
N384 Co375 2.022 . S
N384 C381 1.351 . S
N384 N385 1.365 . S
N385 C382 1.341 . S
N385 N384 1.365 . S
N385 H405 0.862 . S
C386 C381 1.501 . S
C386 H387 0.961 . S
C386 H388 0.961 . S
C386 H389 0.960 . S
H387 C386 0.961 . S
H388 C386 0.961 . S
H389 C386 0.960 . S
C390 N391 1.342 . S
C390 C394 1.401 . S
C390 C395 1.499 . S
N391 Co374 1.989 . S
N391 C390 1.342 . S
N391 N392 1.388 . S
N392 Co375 1.993 . S
N392 N391 1.388 . S
N392 C393 1.346 . S
C393 N392 1.346 . S
C393 C394 1.396 . S
C393 C403 1.510 . S
C394 C390 1.401 . S
C394 C393 1.396 . S
C395 C390 1.499 . S
C395 H396 0.959 . S
C395 H397 0.960 . S
C395 H398 0.961 . S
H396 C395 0.959 . S
H397 C395 0.960 . S
H398 C395 0.961 . S
O399 Co374 1.967 . S
O399 C407 1.258 . S
O400 Co375 1.941 . S
O400 C407 1.266 . S
H401 C403 0.959 . S
H402 C403 0.961 . S
C403 C393 1.510 . S
C403 H401 0.959 . S
C403 H402 0.961 . S
C403 H404 0.960 . S
H404 C403 0.960 . S
H405 N385 0.862 . S
O406 Co374 1.920 . S
O406 C379 1.289 . S
C407 O399 1.258 . S
C407 O400 1.266 . S
H408 C426 0.951 . S
H409 C428 0.951 . S
H410 C430 0.950 . S
H411 C431 0.950 . S
H412 C433 0.950 . S
H413 C436 0.950 . S
H414 C437 0.950 1_556 S
H415 C439 0.950 1_556 S
H416 C440 0.950 . S
H417 C441 0.951 . S
H418 C443 0.951 . S
H419 C445 0.950 . S
H420 C446 0.950 . S
H421 C448 0.950 . S
H422 C451 0.950 . S
H423 C452 0.950 . S
H424 C454 0.950 . S
H425 C455 0.950 . S
C426 H408 0.951 . S
C426 C427 1.366 . S
C426 C428 1.388 . S
C427 C426 1.366 . S
C427 C431 1.385 . S
C428 H409 0.951 . S
C428 C426 1.388 . S
C428 C429 1.366 . S
C429 C428 1.366 . S
C429 C430 1.414 . S
C429 C432 1.499 . S
C430 H410 0.950 . S
C430 C429 1.414 . S
C430 C431 1.374 . S
C431 H411 0.950 . S
C431 C427 1.385 . S
C431 C430 1.374 . S
C432 C429 1.499 . S
C432 C433 1.373 . S
C432 C434 1.389 . S
C433 H412 0.950 . S
C433 C432 1.373 . S
C433 C449 1.377 . S
C434 C432 1.389 . S
C434 C435 1.524 . S
C434 C448 1.377 . S
C435 C434 1.524 . S
C435 C436 1.397 . S
C435 C440 1.363 . S
C436 H413 0.950 . S
C436 C435 1.397 . S
C436 C437 1.334 . S
C437 H414 0.950 1_554 S
C437 C436 1.334 . S
C437 C438 1.287 1_554 S
C438 C437 1.287 1_556 S
C438 C439 1.524 1_556 S
C438 H457 0.913 . S
C439 H415 0.950 1_554 S
C439 C438 1.524 1_554 S
C439 C440 1.415 . S
C440 H416 0.950 . S
C440 C435 1.363 . S
C440 C439 1.415 . S
C441 H417 0.951 . S
C441 C442 1.366 . S
C441 C443 1.388 . S
C442 C441 1.366 . S
C442 C446 1.385 . S
C443 H418 0.951 . S
C443 C441 1.388 . S
C443 C444 1.366 . S
C444 C443 1.366 . S
C444 C445 1.414 . S
C444 C447 1.499 . S
C445 H419 0.950 . S
C445 C444 1.414 . S
C445 C446 1.374 . S
C446 H420 0.950 . S
C446 C442 1.385 . S
C446 C445 1.374 . S
C447 C444 1.499 . S
C447 C448 1.373 . S
C447 C449 1.389 . S
C448 H421 0.950 . S
C448 C434 1.377 . S
C448 C447 1.373 . S
C449 C433 1.377 . S
C449 C447 1.389 . S
C449 C450 1.524 . S
C450 C449 1.524 . S
C450 C451 1.397 . S
C450 C455 1.363 . S
C451 H422 0.950 . S
C451 C450 1.397 . S
C451 C452 1.334 . S
C452 H423 0.950 . S
C452 C451 1.334 . S
C452 C453 1.287 . S
C453 C452 1.287 . S
C453 C454 1.524 . S
C453 H456 0.999 . S
C454 H424 0.950 . S
C454 C453 1.524 . S
C454 C455 1.415 . S
C455 H425 0.950 . S
C455 C450 1.363 . S
C455 C454 1.415 . S
H456 C453 0.999 . S
H457 C438 0.913 . S
H458 C476 0.951 . S
H459 C478 0.951 . S
H460 C480 0.950 . S
H461 C481 0.950 . S
H462 C483 0.950 . S
H463 C486 0.950 . S
H464 C487 0.950 . S
H465 C489 0.950 . S
H466 C490 0.950 . S
H467 C491 0.951 . S
H468 C493 0.951 . S
H469 C495 0.950 . S
H470 C496 0.950 . S
H471 C498 0.950 . S
H472 C501 0.950 . S
H473 C502 0.950 . S
H474 C504 0.950 . S
H475 C505 0.950 . S
C476 H458 0.951 . S
C476 C477 1.366 . S
C476 C478 1.388 . S
C477 C476 1.366 . S
C477 C481 1.385 . S
C478 H459 0.951 . S
C478 C476 1.388 . S
C478 C479 1.366 . S
C479 C478 1.366 . S
C479 C480 1.414 . S
C479 C482 1.499 . S
C480 H460 0.950 . S
C480 C479 1.414 . S
C480 C481 1.374 . S
C481 H461 0.950 . S
C481 C477 1.385 . S
C481 C480 1.374 . S
C482 C479 1.499 . S
C482 C483 1.373 . S
C482 C484 1.389 . S
C483 H462 0.950 . S
C483 C482 1.373 . S
C483 C499 1.377 . S
C484 C482 1.389 . S
C484 C485 1.524 . S
C484 C498 1.377 . S
C485 C484 1.524 . S
C485 C486 1.397 . S
C485 C490 1.363 . S
C486 H463 0.950 . S
C486 C485 1.397 . S
C486 C487 1.334 . S
C487 H464 0.950 . S
C487 C486 1.334 . S
C487 C488 1.287 . S
C488 C487 1.287 . S
C488 C489 1.524 . S
C488 H507 0.913 . S
C489 H465 0.950 . S
C489 C488 1.524 . S
C489 C490 1.415 . S
C490 H466 0.950 . S
C490 C485 1.363 . S
C490 C489 1.415 . S
C491 H467 0.951 . S
C491 C492 1.366 . S
C491 C493 1.388 . S
C492 C491 1.366 . S
C492 C496 1.385 . S
C493 H468 0.951 . S
C493 C491 1.388 . S
C493 C494 1.366 . S
C494 C493 1.366 . S
C494 C495 1.414 . S
C494 C497 1.499 . S
C495 H469 0.950 . S
C495 C494 1.414 . S
C495 C496 1.374 . S
C496 H470 0.950 . S
C496 C492 1.385 . S
C496 C495 1.374 . S
C497 C494 1.499 . S
C497 C498 1.373 . S
C497 C499 1.389 . S
C498 H471 0.950 . S
C498 C484 1.377 . S
C498 C497 1.373 . S
C499 C483 1.377 . S
C499 C497 1.389 . S
C499 C500 1.524 . S
C500 C499 1.524 . S
C500 C501 1.397 . S
C500 C505 1.363 . S
C501 H472 0.950 . S
C501 C500 1.397 . S
C501 C502 1.334 . S
C502 H473 0.950 . S
C502 C501 1.334 . S
C502 C503 1.287 . S
C503 C502 1.287 . S
C503 C504 1.524 . S
C503 H506 0.999 . S
C504 H474 0.950 . S
C504 C503 1.524 . S
C504 C505 1.415 . S
C505 H475 0.950 . S
C505 C500 1.363 . S
C505 C504 1.415 . S
H506 C503 0.999 . S
H507 C488 0.913 . S
H508 C526 0.951 . S
H509 C528 0.951 . S
H510 C530 0.950 . S
H511 C531 0.950 . S
H512 C533 0.950 . S
H513 C536 0.950 . S
H514 C537 0.950 . S
H515 C539 0.950 . S
H516 C540 0.950 . S
H517 C541 0.951 . S
H518 C543 0.951 . S
H519 C545 0.950 . S
H520 C546 0.950 . S
H521 C548 0.950 . S
H522 C551 0.950 . S
H523 C552 0.950 1_556 S
H524 C554 0.950 . S
H525 C555 0.950 . S
C526 H508 0.951 . S
C526 C527 1.366 . S
C526 C528 1.388 . S
C527 C526 1.366 . S
C527 C531 1.385 . S
C528 H509 0.951 . S
C528 C526 1.388 . S
C528 C529 1.366 . S
C529 C528 1.366 . S
C529 C530 1.414 . S
C529 C532 1.499 . S
C530 H510 0.950 . S
C530 C529 1.414 . S
C530 C531 1.374 . S
C531 H511 0.950 . S
C531 C527 1.385 . S
C531 C530 1.374 . S
C532 C529 1.499 . S
C532 C533 1.373 . S
C532 C534 1.389 . S
C533 H512 0.950 . S
C533 C532 1.373 . S
C533 C549 1.377 . S
C534 C532 1.389 . S
C534 C535 1.524 . S
C534 C548 1.377 . S
C535 C534 1.524 . S
C535 C536 1.397 . S
C535 C540 1.363 . S
C536 H513 0.950 . S
C536 C535 1.397 . S
C536 C537 1.334 . S
C537 H514 0.950 . S
C537 C536 1.334 . S
C537 C538 1.287 . S
C538 C537 1.287 . S
C538 C539 1.524 . S
C538 H557 0.913 . S
C539 H515 0.950 . S
C539 C538 1.524 . S
C539 C540 1.415 . S
C540 H516 0.950 . S
C540 C535 1.363 . S
C540 C539 1.415 . S
C541 H517 0.951 . S
C541 C542 1.366 . S
C541 C543 1.388 . S
C542 C541 1.366 . S
C542 C546 1.385 . S
C543 H518 0.951 . S
C543 C541 1.388 . S
C543 C544 1.366 . S
C544 C543 1.366 . S
C544 C545 1.414 . S
C544 C547 1.499 . S
C545 H519 0.950 . S
C545 C544 1.414 . S
C545 C546 1.374 . S
C546 H520 0.950 . S
C546 C542 1.385 . S
C546 C545 1.374 . S
C547 C544 1.499 . S
C547 C548 1.373 . S
C547 C549 1.389 . S
C548 H521 0.950 . S
C548 C534 1.377 . S
C548 C547 1.373 . S
C549 C533 1.377 . S
C549 C547 1.389 . S
C549 C550 1.524 . S
C550 C549 1.524 . S
C550 C551 1.397 . S
C550 C555 1.363 . S
C551 H522 0.950 . S
C551 C550 1.397 . S
C551 C552 1.334 . S
C552 H523 0.950 1_554 S
C552 C551 1.334 . S
C552 C553 1.287 . S
C553 C552 1.287 . S
C553 C554 1.524 . S
C553 H556 0.999 1_554 S
C554 H524 0.950 . S
C554 C553 1.524 . S
C554 C555 1.415 . S
C555 H525 0.950 . S
C555 C550 1.363 . S
C555 C554 1.415 . S
H556 C553 0.999 1_556 S
H557 C538 0.913 . S
H558 C576 0.951 . S
H559 C578 0.951 . S
H560 C580 0.950 . S
H561 C581 0.950 . S
H562 C583 0.950 . S
H563 C586 0.950 . S
H564 C587 0.950 1_556 S
H565 C589 0.950 . S
H566 C590 0.950 . S
H567 C591 0.951 . S
H568 C593 0.951 . S
H569 C595 0.950 . S
H570 C596 0.950 . S
H571 C598 0.950 . S
H572 C601 0.950 . S
H573 C602 0.950 . S
H574 C604 0.950 . S
H575 C605 0.950 . S
C576 H558 0.951 . S
C576 C577 1.366 . S
C576 C578 1.388 . S
C577 C576 1.366 . S
C577 C581 1.385 . S
C578 H559 0.951 . S
C578 C576 1.388 . S
C578 C579 1.366 . S
C579 C578 1.366 . S
C579 C580 1.414 . S
C579 C582 1.499 . S
C580 H560 0.950 . S
C580 C579 1.414 . S
C580 C581 1.374 . S
C581 H561 0.950 . S
C581 C577 1.385 . S
C581 C580 1.374 . S
C582 C579 1.499 . S
C582 C583 1.373 . S
C582 C584 1.389 . S
C583 H562 0.950 . S
C583 C582 1.373 . S
C583 C599 1.377 . S
C584 C582 1.389 . S
C584 C585 1.524 . S
C584 C598 1.377 . S
C585 C584 1.524 . S
C585 C586 1.397 . S
C585 C590 1.363 . S
C586 H563 0.950 . S
C586 C585 1.397 . S
C586 C587 1.334 . S
C587 H564 0.950 1_554 S
C587 C586 1.334 . S
C587 C588 1.287 1_554 S
C588 C587 1.287 1_556 S
C588 C589 1.524 1_556 S
C588 H607 0.913 . S
C589 H565 0.950 . S
C589 C588 1.524 1_554 S
C589 C590 1.415 . S
C590 H566 0.950 . S
C590 C585 1.363 . S
C590 C589 1.415 . S
C591 H567 0.951 . S
C591 C592 1.366 . S
C591 C593 1.388 . S
C592 C591 1.366 . S
C592 C596 1.385 . S
C593 H568 0.951 . S
C593 C591 1.388 . S
C593 C594 1.366 . S
C594 C593 1.366 . S
C594 C595 1.414 . S
C594 C597 1.499 . S
C595 H569 0.950 . S
C595 C594 1.414 . S
C595 C596 1.374 . S
C596 H570 0.950 . S
C596 C592 1.385 . S
C596 C595 1.374 . S
C597 C594 1.499 . S
C597 C598 1.373 . S
C597 C599 1.389 . S
C598 H571 0.950 . S
C598 C584 1.377 . S
C598 C597 1.373 . S
C599 C583 1.377 . S
C599 C597 1.389 . S
C599 C600 1.524 . S
C600 C599 1.524 . S
C600 C601 1.397 . S
C600 C605 1.363 . S
C601 H572 0.950 . S
C601 C600 1.397 . S
C601 C602 1.334 . S
C602 H573 0.950 . S
C602 C601 1.334 . S
C602 C603 1.287 . S
C603 C602 1.287 . S
C603 C604 1.524 . S
C603 H606 0.999 . S
C604 H574 0.950 . S
C604 C603 1.524 . S
C604 C605 1.415 . S
C605 H575 0.950 . S
C605 C600 1.363 . S
C605 C604 1.415 . S
H606 C603 0.999 . S
H607 C588 0.913 . S
H608 C626 0.951 . S
H609 C628 0.951 . S
H610 C630 0.950 . S
H611 C631 0.950 . S
H612 C633 0.950 . S
H613 C636 0.950 . S
H614 C637 0.950 . S
H615 C639 0.950 . S
H616 C640 0.950 . S
H617 C641 0.951 . S
H618 C643 0.951 . S
H619 C645 0.950 . S
H620 C646 0.950 . S
H621 C648 0.950 . S
H622 C651 0.950 . S
H623 C652 0.950 . S
H624 C654 0.950 . S
H625 C655 0.950 . S
C626 H608 0.951 . S
C626 C627 1.366 . S
C626 C628 1.388 . S
C627 C626 1.366 . S
C627 C631 1.385 . S
C628 H609 0.951 . S
C628 C626 1.388 . S
C628 C629 1.366 . S
C629 C628 1.366 . S
C629 C630 1.414 . S
C629 C632 1.499 . S
C630 H610 0.950 . S
C630 C629 1.414 . S
C630 C631 1.374 . S
C631 H611 0.950 . S
C631 C627 1.385 . S
C631 C630 1.374 . S
C632 C629 1.499 . S
C632 C633 1.373 . S
C632 C634 1.389 . S
C633 H612 0.950 . S
C633 C632 1.373 . S
C633 C649 1.377 . S
C634 C632 1.389 . S
C634 C635 1.524 . S
C634 C648 1.377 . S
C635 C634 1.524 . S
C635 C636 1.397 . S
C635 C640 1.363 . S
C636 H613 0.950 . S
C636 C635 1.397 . S
C636 C637 1.334 . S
C637 H614 0.950 . S
C637 C636 1.334 . S
C637 C638 1.287 . S
C638 C637 1.287 . S
C638 C639 1.524 . S
C638 H657 0.913 . S
C639 H615 0.950 . S
C639 C638 1.524 . S
C639 C640 1.415 . S
C640 H616 0.950 . S
C640 C635 1.363 . S
C640 C639 1.415 . S
C641 H617 0.951 . S
C641 C642 1.366 . S
C641 C643 1.388 . S
C642 C641 1.366 . S
C642 C646 1.385 . S
C643 H618 0.951 . S
C643 C641 1.388 . S
C643 C644 1.366 . S
C644 C643 1.366 . S
C644 C645 1.414 . S
C644 C647 1.499 . S
C645 H619 0.950 . S
C645 C644 1.414 . S
C645 C646 1.374 . S
C646 H620 0.950 . S
C646 C642 1.385 . S
C646 C645 1.374 . S
C647 C644 1.499 . S
C647 C648 1.373 . S
C647 C649 1.389 . S
C648 H621 0.950 . S
C648 C634 1.377 . S
C648 C647 1.373 . S
C649 C633 1.377 . S
C649 C647 1.389 . S
C649 C650 1.524 . S
C650 C649 1.524 . S
C650 C651 1.397 . S
C650 C655 1.363 . S
C651 H622 0.950 . S
C651 C650 1.397 . S
C651 C652 1.334 . S
C652 H623 0.950 . S
C652 C651 1.334 . S
C652 C653 1.287 . S
C653 C652 1.287 . S
C653 C654 1.524 . S
C653 H656 0.999 . S
C654 H624 0.950 . S
C654 C653 1.524 . S
C654 C655 1.415 . S
C655 H625 0.950 . S
C655 C650 1.363 . S
C655 C654 1.415 . S
H656 C653 0.999 . S
H657 C638 0.913 . S
H658 C676 0.951 . S
H659 C678 0.951 . S
H660 C680 0.950 . S
H661 C681 0.950 . S
H662 C683 0.950 . S
H663 C686 0.950 . S
H664 C687 0.950 . S
H665 C689 0.950 . S
H666 C690 0.950 . S
H667 C691 0.951 . S
H668 C693 0.951 . S
H669 C695 0.950 . S
H670 C696 0.950 . S
H671 C698 0.950 . S
H672 C701 0.950 . S
H673 C702 0.950 . S
H674 C704 0.950 . S
H675 C705 0.950 . S
C676 H658 0.951 . S
C676 C677 1.366 . S
C676 C678 1.388 . S
C677 C676 1.366 . S
C677 C681 1.385 . S
C678 H659 0.951 . S
C678 C676 1.388 . S
C678 C679 1.366 . S
C679 C678 1.366 . S
C679 C680 1.414 . S
C679 C682 1.499 . S
C680 H660 0.950 . S
C680 C679 1.414 . S
C680 C681 1.374 . S
C681 H661 0.950 . S
C681 C677 1.385 . S
C681 C680 1.374 . S
C682 C679 1.499 . S
C682 C683 1.373 . S
C682 C684 1.389 . S
C683 H662 0.950 . S
C683 C682 1.373 . S
C683 C699 1.377 . S
C684 C682 1.389 . S
C684 C685 1.524 . S
C684 C698 1.377 . S
C685 C684 1.524 . S
C685 C686 1.397 . S
C685 C690 1.363 . S
C686 H663 0.950 . S
C686 C685 1.397 . S
C686 C687 1.334 . S
C687 H664 0.950 . S
C687 C686 1.334 . S
C687 C688 1.287 . S
C688 C687 1.287 . S
C688 C689 1.524 . S
C688 H707 0.913 . S
C689 H665 0.950 . S
C689 C688 1.524 . S
C689 C690 1.415 . S
C690 H666 0.950 . S
C690 C685 1.363 . S
C690 C689 1.415 . S
C691 H667 0.951 . S
C691 C692 1.366 . S
C691 C693 1.388 . S
C692 C691 1.366 . S
C692 C696 1.385 . S
C693 H668 0.951 . S
C693 C691 1.388 . S
C693 C694 1.366 . S
C694 C693 1.366 . S
C694 C695 1.414 . S
C694 C697 1.499 . S
C695 H669 0.950 . S
C695 C694 1.414 . S
C695 C696 1.374 . S
C696 H670 0.950 . S
C696 C692 1.385 . S
C696 C695 1.374 . S
C697 C694 1.499 . S
C697 C698 1.373 . S
C697 C699 1.389 . S
C698 H671 0.950 . S
C698 C684 1.377 . S
C698 C697 1.373 . S
C699 C683 1.377 . S
C699 C697 1.389 . S
C699 C700 1.524 . S
C700 C699 1.524 . S
C700 C701 1.397 . S
C700 C705 1.363 . S
C701 H672 0.950 . S
C701 C700 1.397 . S
C701 C702 1.334 . S
C702 H673 0.950 . S
C702 C701 1.334 . S
C702 C703 1.287 . S
C703 C702 1.287 . S
C703 C704 1.524 . S
C703 H706 0.999 . S
C704 H674 0.950 . S
C704 C703 1.524 . S
C704 C705 1.415 . S
C705 H675 0.950 . S
C705 C700 1.363 . S
C705 C704 1.415 . S
H706 C703 0.999 . S
H707 C688 0.913 . S
H708 C726 0.951 . S
H709 C728 0.951 . S
H710 C730 0.950 . S
H711 C731 0.950 . S
H712 C733 0.950 . S
H713 C736 0.950 . S
H714 C737 0.950 . S
H715 C739 0.950 . S
H716 C740 0.950 . S
H717 C741 0.951 . S
H718 C743 0.951 . S
H719 C745 0.950 . S
H720 C746 0.950 . S
H721 C748 0.950 . S
H722 C751 0.950 . S
H723 C752 0.950 . S
H724 C754 0.950 . S
H725 C755 0.950 . S
C726 H708 0.951 . S
C726 C727 1.366 . S
C726 C728 1.388 . S
C727 C726 1.366 . S
C727 C731 1.385 . S
C728 H709 0.951 . S
C728 C726 1.388 . S
C728 C729 1.366 . S
C729 C728 1.366 . S
C729 C730 1.414 . S
C729 C732 1.499 . S
C730 H710 0.950 . S
C730 C729 1.414 . S
C730 C731 1.374 . S
C731 H711 0.950 . S
C731 C727 1.385 . S
C731 C730 1.374 . S
C732 C729 1.499 . S
C732 C733 1.373 . S
C732 C734 1.389 . S
C733 H712 0.950 . S
C733 C732 1.373 . S
C733 C749 1.377 . S
C734 C732 1.389 . S
C734 C735 1.524 . S
C734 C748 1.377 . S
C735 C734 1.524 . S
C735 C736 1.397 . S
C735 C740 1.363 . S
C736 H713 0.950 . S
C736 C735 1.397 . S
C736 C737 1.334 . S
C737 H714 0.950 . S
C737 C736 1.334 . S
C737 C738 1.287 . S
C738 C737 1.287 . S
C738 C739 1.524 . S
C738 H757 0.913 . S
C739 H715 0.950 . S
C739 C738 1.524 . S
C739 C740 1.415 . S
C740 H716 0.950 . S
C740 C735 1.363 . S
C740 C739 1.415 . S
C741 H717 0.951 . S
C741 C742 1.366 . S
C741 C743 1.388 . S
C742 C741 1.366 . S
C742 C746 1.385 . S
C743 H718 0.951 . S
C743 C741 1.388 . S
C743 C744 1.366 . S
C744 C743 1.366 . S
C744 C745 1.414 . S
C744 C747 1.499 . S
C745 H719 0.950 . S
C745 C744 1.414 . S
C745 C746 1.374 . S
C746 H720 0.950 . S
C746 C742 1.385 . S
C746 C745 1.374 . S
C747 C744 1.499 . S
C747 C748 1.373 . S
C747 C749 1.389 . S
C748 H721 0.950 . S
C748 C734 1.377 . S
C748 C747 1.373 . S
C749 C733 1.377 . S
C749 C747 1.389 . S
C749 C750 1.524 . S
C750 C749 1.524 . S
C750 C751 1.397 . S
C750 C755 1.363 . S
C751 H722 0.950 . S
C751 C750 1.397 . S
C751 C752 1.334 . S
C752 H723 0.950 . S
C752 C751 1.334 . S
C752 C753 1.287 . S
C753 C752 1.287 . S
C753 C754 1.524 1_554 S
C753 H756 0.999 1_554 S
C754 H724 0.950 . S
C754 C753 1.524 1_556 S
C754 C755 1.415 1_556 S
C755 H725 0.950 . S
C755 C750 1.363 . S
C755 C754 1.415 1_554 S
H756 C753 0.999 1_556 S
H757 C738 0.913 . S
H758 C776 0.951 . S
H759 C778 0.951 . S
H760 C780 0.950 . S
H761 C781 0.950 . S
H762 C783 0.950 . S
H763 C786 0.950 . S
H764 C787 0.950 . S
H765 C789 0.950 . S
H766 C790 0.950 . S
H767 C791 0.951 . S
H768 C793 0.951 . S
H769 C795 0.950 . S
H770 C796 0.950 . S
H771 C798 0.950 . S
H772 C801 0.950 . S
H773 C802 0.950 . S
H774 C804 0.950 . S
H775 C805 0.950 . S
C776 H758 0.951 . S
C776 C777 1.366 . S
C776 C778 1.388 . S
C777 C776 1.366 . S
C777 C781 1.385 . S
C778 H759 0.951 . S
C778 C776 1.388 . S
C778 C779 1.366 . S
C779 C778 1.366 . S
C779 C780 1.414 . S
C779 C782 1.499 . S
C780 H760 0.950 . S
C780 C779 1.414 . S
C780 C781 1.374 . S
C781 H761 0.950 . S
C781 C777 1.385 . S
C781 C780 1.374 . S
C782 C779 1.499 . S
C782 C783 1.373 . S
C782 C784 1.389 . S
C783 H762 0.950 . S
C783 C782 1.373 . S
C783 C799 1.377 . S
C784 C782 1.389 . S
C784 C785 1.524 . S
C784 C798 1.377 . S
C785 C784 1.524 . S
C785 C786 1.397 . S
C785 C790 1.363 . S
C786 H763 0.950 . S
C786 C785 1.397 . S
C786 C787 1.334 . S
C787 H764 0.950 . S
C787 C786 1.334 . S
C787 C788 1.287 . S
C788 C787 1.287 . S
C788 C789 1.524 . S
C788 H807 0.913 . S
C789 H765 0.950 . S
C789 C788 1.524 . S
C789 C790 1.415 . S
C790 H766 0.950 . S
C790 C785 1.363 . S
C790 C789 1.415 . S
C791 H767 0.951 . S
C791 C792 1.366 . S
C791 C793 1.388 . S
C792 C791 1.366 . S
C792 C796 1.385 . S
C793 H768 0.951 . S
C793 C791 1.388 . S
C793 C794 1.366 . S
C794 C793 1.366 . S
C794 C795 1.414 . S
C794 C797 1.499 . S
C795 H769 0.950 . S
C795 C794 1.414 . S
C795 C796 1.374 . S
C796 H770 0.950 . S
C796 C792 1.385 . S
C796 C795 1.374 . S
C797 C794 1.499 . S
C797 C798 1.373 . S
C797 C799 1.389 . S
C798 H771 0.950 . S
C798 C784 1.377 . S
C798 C797 1.373 . S
C799 C783 1.377 . S
C799 C797 1.389 . S
C799 C800 1.524 . S
C800 C799 1.524 . S
C800 C801 1.397 . S
C800 C805 1.363 . S
C801 H772 0.950 . S
C801 C800 1.397 . S
C801 C802 1.334 1_554 S
C802 H773 0.950 . S
C802 C801 1.334 1_556 S
C802 C803 1.287 . S
C803 C802 1.287 . S
C803 C804 1.524 . S
C803 H806 0.999 . S
C804 H774 0.950 . S
C804 C803 1.524 . S
C804 C805 1.415 1_556 S
C805 H775 0.950 . S
C805 C800 1.363 . S
C805 C804 1.415 1_554 S
H806 C803 0.999 . S
H807 C788 0.913 . S
H808 C826 0.951 . S
H809 C828 0.951 . S
H810 C830 0.950 . S
H811 C831 0.950 . S
H812 C833 0.950 . S
H813 C836 0.950 . S
H814 C837 0.950 . S
H815 C839 0.950 . S
H816 C840 0.950 . S
H817 C841 0.951 . S
H818 C843 0.951 . S
H819 C845 0.950 . S
H820 C846 0.950 . S
H821 C848 0.950 . S
H822 C851 0.950 . S
H823 C852 0.950 . S
H824 C854 0.950 . S
H825 C855 0.950 . S
C826 H808 0.951 . S
C826 C827 1.366 . S
C826 C828 1.388 . S
C827 C826 1.366 . S
C827 C831 1.385 . S
C828 H809 0.951 . S
C828 C826 1.388 . S
C828 C829 1.366 . S
C829 C828 1.366 . S
C829 C830 1.414 . S
C829 C832 1.499 . S
C830 H810 0.950 . S
C830 C829 1.414 . S
C830 C831 1.374 . S
C831 H811 0.950 . S
C831 C827 1.385 . S
C831 C830 1.374 . S
C832 C829 1.499 . S
C832 C833 1.373 . S
C832 C834 1.389 . S
C833 H812 0.950 . S
C833 C832 1.373 . S
C833 C849 1.377 . S
C834 C832 1.389 . S
C834 C835 1.524 . S
C834 C848 1.377 . S
C835 C834 1.524 . S
C835 C836 1.397 . S
C835 C840 1.363 . S
C836 H813 0.950 . S
C836 C835 1.397 . S
C836 C837 1.334 1_554 S
C837 H814 0.950 . S
C837 C836 1.334 1_556 S
C837 C838 1.287 . S
C838 C837 1.287 . S
C838 C839 1.524 . S
C838 H857 0.913 . S
C839 H815 0.950 . S
C839 C838 1.524 . S
C839 C840 1.415 1_556 S
C840 H816 0.950 . S
C840 C835 1.363 . S
C840 C839 1.415 1_554 S
C841 H817 0.951 . S
C841 C842 1.366 . S
C841 C843 1.388 . S
C842 C841 1.366 . S
C842 C846 1.385 . S
C843 H818 0.951 . S
C843 C841 1.388 . S
C843 C844 1.366 . S
C844 C843 1.366 . S
C844 C845 1.414 . S
C844 C847 1.499 . S
C845 H819 0.950 . S
C845 C844 1.414 . S
C845 C846 1.374 . S
C846 H820 0.950 . S
C846 C842 1.385 . S
C846 C845 1.374 . S
C847 C844 1.499 . S
C847 C848 1.373 . S
C847 C849 1.389 . S
C848 H821 0.950 . S
C848 C834 1.377 . S
C848 C847 1.373 . S
C849 C833 1.377 . S
C849 C847 1.389 . S
C849 C850 1.524 . S
C850 C849 1.524 . S
C850 C851 1.397 . S
C850 C855 1.363 . S
C851 H822 0.950 . S
C851 C850 1.397 . S
C851 C852 1.334 . S
C852 H823 0.950 . S
C852 C851 1.334 . S
C852 C853 1.287 . S
C853 C852 1.287 . S
C853 C854 1.524 . S
C853 H856 0.999 . S
C854 H824 0.950 . S
C854 C853 1.524 . S
C854 C855 1.415 . S
C855 H825 0.950 . S
C855 C850 1.363 . S
C855 C854 1.415 . S
H856 C853 0.999 . S
H857 C838 0.913 . S
H858 C876 0.951 . S
H859 C878 0.951 . S
H860 C880 0.950 . S
H861 C881 0.950 . S
H862 C883 0.950 . S
H863 C886 0.950 . S
H864 C887 0.951 1_556 S
H865 C889 0.950 . S
H866 C890 0.950 . S
H867 C891 0.951 . S
H868 C893 0.951 . S
H869 C895 0.950 . S
H870 C896 0.950 . S
H871 C898 0.950 . S
H872 C901 0.950 . S
H873 C902 0.950 . S
H874 C904 0.950 . S
H875 C905 0.950 . S
C876 H858 0.951 . S
C876 C877 1.366 . S
C876 C878 1.388 . S
C877 C876 1.366 . S
C877 C881 1.385 . S
C878 H859 0.951 . S
C878 C876 1.388 . S
C878 C879 1.366 . S
C879 C878 1.366 . S
C879 C880 1.414 . S
C879 C882 1.499 . S
C880 H860 0.950 . S
C880 C879 1.414 . S
C880 C881 1.374 . S
C881 H861 0.950 . S
C881 C877 1.385 . S
C881 C880 1.374 . S
C882 C879 1.499 . S
C882 C883 1.373 . S
C882 C884 1.389 . S
C883 H862 0.950 . S
C883 C882 1.373 . S
C883 C899 1.377 . S
C884 C882 1.389 . S
C884 C885 1.524 . S
C884 C898 1.377 . S
C885 C884 1.524 . S
C885 C886 1.397 . S
C885 C890 1.363 . S
C886 H863 0.950 . S
C886 C885 1.397 . S
C886 C887 1.334 . S
C887 H864 0.951 1_554 S
C887 C886 1.334 . S
C887 C888 1.287 . S
C888 C887 1.287 . S
C888 C889 1.524 . S
C888 H907 0.913 1_554 S
C889 H865 0.950 . S
C889 C888 1.524 . S
C889 C890 1.415 . S
C890 H866 0.950 . S
C890 C885 1.363 . S
C890 C889 1.415 . S
C891 H867 0.951 . S
C891 C892 1.366 . S
C891 C893 1.388 . S
C892 C891 1.366 . S
C892 C896 1.385 . S
C893 H868 0.951 . S
C893 C891 1.388 . S
C893 C894 1.366 . S
C894 C893 1.366 . S
C894 C895 1.414 . S
C894 C897 1.499 . S
C895 H869 0.950 . S
C895 C894 1.414 . S
C895 C896 1.374 . S
C896 H870 0.950 . S
C896 C892 1.385 . S
C896 C895 1.374 . S
C897 C894 1.499 . S
C897 C898 1.373 . S
C897 C899 1.389 . S
C898 H871 0.950 . S
C898 C884 1.377 . S
C898 C897 1.373 . S
C899 C883 1.377 . S
C899 C897 1.389 . S
C899 C900 1.524 . S
C900 C899 1.524 . S
C900 C901 1.397 . S
C900 C905 1.363 . S
C901 H872 0.950 . S
C901 C900 1.397 . S
C901 C902 1.334 . S
C902 H873 0.950 . S
C902 C901 1.334 . S
C902 C903 1.287 . S
C903 C902 1.287 . S
C903 C904 1.524 . S
C903 H906 0.999 . S
C904 H874 0.950 . S
C904 C903 1.524 . S
C904 C905 1.415 . S
C905 H875 0.950 . S
C905 C900 1.363 . S
C905 C904 1.415 . S
H906 C903 0.999 . S
H907 C888 0.913 1_556 S
H908 C926 0.951 . S
H909 C928 0.951 . S
H910 C930 0.950 . S
H911 C931 0.950 . S
H912 C933 0.950 . S
H913 C936 0.950 . S
H914 C937 0.950 . S
H915 C939 0.950 1_556 S
H916 C940 0.950 . S
H917 C941 0.951 . S
H918 C943 0.951 . S
H919 C945 0.950 . S
H920 C946 0.950 . S
H921 C948 0.950 . S
H922 C951 0.950 . S
H923 C952 0.950 . S
H924 C954 0.950 . S
H925 C955 0.950 . S
C926 H908 0.951 . S
C926 C927 1.366 . S
C926 C928 1.388 . S
C927 C926 1.366 . S
C927 C931 1.385 . S
C928 H909 0.951 . S
C928 C926 1.388 . S
C928 C929 1.366 . S
C929 C928 1.366 . S
C929 C930 1.414 . S
C929 C932 1.499 . S
C930 H910 0.950 . S
C930 C929 1.414 . S
C930 C931 1.374 . S
C931 H911 0.950 . S
C931 C927 1.385 . S
C931 C930 1.374 . S
C932 C929 1.499 . S
C932 C933 1.373 . S
C932 C934 1.389 . S
C933 H912 0.950 . S
C933 C932 1.373 . S
C933 C949 1.377 . S
C934 C932 1.389 . S
C934 C935 1.524 . S
C934 C948 1.377 . S
C935 C934 1.524 . S
C935 C936 1.397 . S
C935 C940 1.363 . S
C936 H913 0.950 . S
C936 C935 1.397 . S
C936 C937 1.334 . S
C937 H914 0.950 . S
C937 C936 1.334 . S
C937 C938 1.287 . S
C938 C937 1.287 . S
C938 C939 1.524 . S
C938 H957 0.913 . S
C939 H915 0.950 1_554 S
C939 C938 1.524 . S
C939 C940 1.415 . S
C940 H916 0.950 . S
C940 C935 1.363 . S
C940 C939 1.415 . S
C941 H917 0.951 . S
C941 C942 1.366 . S
C941 C943 1.388 . S
C942 C941 1.366 . S
C942 C946 1.385 . S
C943 H918 0.951 . S
C943 C941 1.388 . S
C943 C944 1.366 . S
C944 C943 1.366 . S
C944 C945 1.414 . S
C944 C947 1.499 . S
C945 H919 0.950 . S
C945 C944 1.414 . S
C945 C946 1.374 . S
C946 H920 0.950 . S
C946 C942 1.385 . S
C946 C945 1.374 . S
C947 C944 1.499 . S
C947 C948 1.373 . S
C947 C949 1.389 . S
C948 H921 0.950 . S
C948 C934 1.377 . S
C948 C947 1.373 . S
C949 C933 1.377 . S
C949 C947 1.389 . S
C949 C950 1.524 . S
C950 C949 1.524 . S
C950 C951 1.397 . S
C950 C955 1.363 . S
C951 H922 0.950 . S
C951 C950 1.397 . S
C951 C952 1.334 . S
C952 H923 0.950 . S
C952 C951 1.334 . S
C952 C953 1.287 . S
C953 C952 1.287 . S
C953 C954 1.524 . S
C953 H956 0.999 . S
C954 H924 0.950 . S
C954 C953 1.524 . S
C954 C955 1.415 . S
C955 H925 0.950 . S
C955 C950 1.363 . S
C955 C954 1.415 . S
H956 C953 0.999 . S
H957 C938 0.913 . S
H958 C976 0.951 . S
H959 C978 0.951 . S
H960 C980 0.950 . S
H961 C981 0.950 . S
H962 C983 0.950 . S
H963 C986 0.950 . S
H964 C987 0.950 . S
H965 C989 0.950 . S
H966 C990 0.950 . S
H967 C991 0.951 . S
H968 C993 0.951 . S
H969 C995 0.950 . S
H970 C996 0.950 . S
H971 C998 0.950 . S
H972 C1001 0.950 . S
H973 C1002 0.950 . S
H974 C1004 0.950 . S
H975 C1005 0.950 . S
C976 H958 0.951 . S
C976 C977 1.366 . S
C976 C978 1.388 . S
C977 C976 1.366 . S
C977 C981 1.385 . S
C978 H959 0.951 . S
C978 C976 1.388 . S
C978 C979 1.366 . S
C979 C978 1.366 . S
C979 C980 1.414 . S
C979 C982 1.499 . S
C980 H960 0.950 . S
C980 C979 1.414 . S
C980 C981 1.374 . S
C981 H961 0.950 . S
C981 C977 1.385 . S
C981 C980 1.374 . S
C982 C979 1.499 . S
C982 C983 1.373 . S
C982 C984 1.389 . S
C983 H962 0.950 . S
C983 C982 1.373 . S
C983 C999 1.377 . S
C984 C982 1.389 . S
C984 C985 1.524 . S
C984 C998 1.377 . S
C985 C984 1.524 . S
C985 C986 1.397 . S
C985 C990 1.363 . S
C986 H963 0.950 . S
C986 C985 1.397 . S
C986 C987 1.334 . S
C987 H964 0.950 . S
C987 C986 1.334 . S
C987 C988 1.287 1_554 S
C988 C987 1.287 1_556 S
C988 C989 1.524 . S
C988 H1007 0.913 . S
C989 H965 0.950 . S
C989 C988 1.524 . S
C989 C990 1.415 1_556 S
C990 H966 0.950 . S
C990 C985 1.363 . S
C990 C989 1.415 1_554 S
C991 H967 0.951 . S
C991 C992 1.366 . S
C991 C993 1.388 . S
C992 C991 1.366 . S
C992 C996 1.385 . S
C993 H968 0.951 . S
C993 C991 1.388 . S
C993 C994 1.366 . S
C994 C993 1.366 . S
C994 C995 1.414 . S
C994 C997 1.499 . S
C995 H969 0.950 . S
C995 C994 1.414 . S
C995 C996 1.374 . S
C996 H970 0.950 . S
C996 C992 1.385 . S
C996 C995 1.374 . S
C997 C994 1.499 . S
C997 C998 1.373 . S
C997 C999 1.389 . S
C998 H971 0.950 . S
C998 C984 1.377 . S
C998 C997 1.373 . S
C999 C983 1.377 . S
C999 C997 1.389 . S
C999 C1000 1.524 . S
C1000 C999 1.524 . S
C1000 C1001 1.397 . S
C1000 C1005 1.363 . S
C1001 H972 0.950 . S
C1001 C1000 1.397 . S
C1001 C1002 1.334 . S
C1002 H973 0.950 . S
C1002 C1001 1.334 . S
C1002 C1003 1.287 . S
C1003 C1002 1.287 . S
C1003 C1004 1.524 . S
C1003 H1006 0.999 . S
C1004 H974 0.950 . S
C1004 C1003 1.524 . S
C1004 C1005 1.415 . S
C1005 H975 0.950 . S
C1005 C1000 1.363 . S
C1005 C1004 1.415 . S
H1006 C1003 0.999 . S
H1007 C988 0.913 . S
H1008 C1026 0.951 . S
H1009 C1028 0.951 . S
H1010 C1030 0.950 . S
H1011 C1031 0.950 . S
H1012 C1033 0.950 . S
H1013 C1036 0.950 . S
H1014 C1037 0.950 . S
H1015 C1039 0.950 . S
H1016 C1040 0.950 . S
H1017 C1041 0.951 . S
H1018 C1043 0.951 . S
H1019 C1045 0.950 . S
H1020 C1046 0.950 . S
H1021 C1048 0.950 . S
H1022 C1051 0.950 . S
H1023 C1052 0.950 . S
H1024 C1054 0.950 . S
H1025 C1055 0.950 . S
C1026 H1008 0.951 . S
C1026 C1027 1.366 . S
C1026 C1028 1.388 . S
C1027 C1026 1.366 . S
C1027 C1031 1.385 . S
C1028 H1009 0.951 . S
C1028 C1026 1.388 . S
C1028 C1029 1.366 . S
C1029 C1028 1.366 . S
C1029 C1030 1.414 . S
C1029 C1032 1.499 . S
C1030 H1010 0.950 . S
C1030 C1029 1.414 . S
C1030 C1031 1.374 . S
C1031 H1011 0.950 . S
C1031 C1027 1.385 . S
C1031 C1030 1.374 . S
C1032 C1029 1.499 . S
C1032 C1033 1.373 . S
C1032 C1034 1.389 . S
C1033 H1012 0.950 . S
C1033 C1032 1.373 . S
C1033 C1049 1.377 . S
C1034 C1032 1.389 . S
C1034 C1035 1.524 . S
C1034 C1048 1.377 . S
C1035 C1034 1.524 . S
C1035 C1036 1.397 . S
C1035 C1040 1.363 . S
C1036 H1013 0.950 . S
C1036 C1035 1.397 . S
C1036 C1037 1.334 . S
C1037 H1014 0.950 . S
C1037 C1036 1.334 . S
C1037 C1038 1.287 . S
C1038 C1037 1.287 . S
C1038 C1039 1.524 . S
C1038 H1057 0.913 . S
C1039 H1015 0.950 . S
C1039 C1038 1.524 . S
C1039 C1040 1.415 . S
C1040 H1016 0.950 . S
C1040 C1035 1.363 . S
C1040 C1039 1.415 . S
C1041 H1017 0.951 . S
C1041 C1042 1.366 . S
C1041 C1043 1.388 . S
C1042 C1041 1.366 . S
C1042 C1046 1.385 . S
C1043 H1018 0.951 . S
C1043 C1041 1.388 . S
C1043 C1044 1.366 . S
C1044 C1043 1.366 . S
C1044 C1045 1.414 . S
C1044 C1047 1.499 . S
C1045 H1019 0.950 . S
C1045 C1044 1.414 . S
C1045 C1046 1.374 . S
C1046 H1020 0.950 . S
C1046 C1042 1.385 . S
C1046 C1045 1.374 . S
C1047 C1044 1.499 . S
C1047 C1048 1.373 . S
C1047 C1049 1.389 . S
C1048 H1021 0.950 . S
C1048 C1034 1.377 . S
C1048 C1047 1.373 . S
C1049 C1033 1.377 . S
C1049 C1047 1.389 . S
C1049 C1050 1.524 . S
C1050 C1049 1.524 . S
C1050 C1051 1.397 . S
C1050 C1055 1.363 . S
C1051 H1022 0.950 . S
C1051 C1050 1.397 . S
C1051 C1052 1.334 . S
C1052 H1023 0.950 . S
C1052 C1051 1.334 . S
C1052 C1053 1.287 . S
C1053 C1052 1.287 . S
C1053 C1054 1.524 . S
C1053 H1056 0.999 . S
C1054 H1024 0.950 . S
C1054 C1053 1.524 . S
C1054 C1055 1.415 . S
C1055 H1025 0.950 . S
C1055 C1050 1.363 . S
C1055 C1054 1.415 . S
H1056 C1053 0.999 . S
H1057 C1038 0.913 . S
H1058 C1076 0.951 . S
H1059 C1078 0.951 . S
H1060 C1080 0.950 . S
H1061 C1081 0.950 . S
H1062 C1083 0.950 . S
H1063 C1086 0.950 . S
H1064 C1087 0.950 . S
H1065 C1089 0.950 . S
H1066 C1090 0.950 . S
H1067 C1091 0.951 . S
H1068 C1093 0.951 . S
H1069 C1095 0.950 . S
H1070 C1096 0.950 . S
H1071 C1098 0.950 . S
H1072 C1101 0.950 . S
H1073 C1102 0.950 . S
H1074 C1104 0.950 . S
H1075 C1105 0.950 . S
C1076 H1058 0.951 . S
C1076 C1077 1.366 . S
C1076 C1078 1.388 . S
C1077 C1076 1.366 . S
C1077 C1081 1.385 . S
C1078 H1059 0.951 . S
C1078 C1076 1.388 . S
C1078 C1079 1.366 . S
C1079 C1078 1.366 . S
C1079 C1080 1.414 . S
C1079 C1082 1.499 . S
C1080 H1060 0.950 . S
C1080 C1079 1.414 . S
C1080 C1081 1.374 . S
C1081 H1061 0.950 . S
C1081 C1077 1.385 . S
C1081 C1080 1.374 . S
C1082 C1079 1.499 . S
C1082 C1083 1.373 . S
C1082 C1084 1.389 . S
C1083 H1062 0.950 . S
C1083 C1082 1.373 . S
C1083 C1099 1.377 . S
C1084 C1082 1.389 . S
C1084 C1085 1.524 . S
C1084 C1098 1.377 . S
C1085 C1084 1.524 . S
C1085 C1086 1.397 . S
C1085 C1090 1.363 . S
C1086 H1063 0.950 . S
C1086 C1085 1.397 . S
C1086 C1087 1.334 . S
C1087 H1064 0.950 . S
C1087 C1086 1.334 . S
C1087 C1088 1.287 . S
C1088 C1087 1.287 . S
C1088 C1089 1.524 . S
C1088 H1107 0.913 . S
C1089 H1065 0.950 . S
C1089 C1088 1.524 . S
C1089 C1090 1.415 . S
C1090 H1066 0.950 . S
C1090 C1085 1.363 . S
C1090 C1089 1.415 . S
C1091 H1067 0.951 . S
C1091 C1092 1.366 . S
C1091 C1093 1.388 . S
C1092 C1091 1.366 . S
C1092 C1096 1.385 . S
C1093 H1068 0.951 . S
C1093 C1091 1.388 . S
C1093 C1094 1.366 . S
C1094 C1093 1.366 . S
C1094 C1095 1.414 . S
C1094 C1097 1.499 . S
C1095 H1069 0.950 . S
C1095 C1094 1.414 . S
C1095 C1096 1.374 . S
C1096 H1070 0.950 . S
C1096 C1092 1.385 . S
C1096 C1095 1.374 . S
C1097 C1094 1.499 . S
C1097 C1098 1.373 . S
C1097 C1099 1.389 . S
C1098 H1071 0.950 . S
C1098 C1084 1.377 . S
C1098 C1097 1.373 . S
C1099 C1083 1.377 . S
C1099 C1097 1.389 . S
C1099 C1100 1.524 . S
C1100 C1099 1.524 . S
C1100 C1101 1.397 . S
C1100 C1105 1.363 . S
C1101 H1072 0.950 . S
C1101 C1100 1.397 . S
C1101 C1102 1.334 . S
C1102 H1073 0.950 . S
C1102 C1101 1.334 . S
C1102 C1103 1.287 . S
C1103 C1102 1.287 . S
C1103 C1104 1.524 . S
C1103 H1106 0.999 . S
C1104 H1074 0.950 . S
C1104 C1103 1.524 . S
C1104 C1105 1.415 . S
C1105 H1075 0.950 . S
C1105 C1100 1.363 . S
C1105 C1104 1.415 . S
H1106 C1103 0.999 . S
H1107 C1088 0.913 . S
H1108 C1126 0.951 . S
H1109 C1128 0.951 . S
H1110 C1130 0.950 . S
H1111 C1131 0.950 . S
H1112 C1133 0.950 . S
H1113 C1136 0.950 . S
H1114 C1137 0.950 . S
H1115 C1139 0.950 . S
H1116 C1140 0.950 . S
H1117 C1141 0.951 . S
H1118 C1143 0.951 . S
H1119 C1145 0.950 . S
H1120 C1146 0.950 . S
H1121 C1148 0.950 . S
H1122 C1151 0.950 . S
H1123 C1152 0.950 . S
H1124 C1154 0.950 . S
H1125 C1155 0.950 . S
C1126 H1108 0.951 . S
C1126 C1127 1.366 . S
C1126 C1128 1.388 . S
C1127 C1126 1.366 . S
C1127 C1131 1.385 . S
C1128 H1109 0.951 . S
C1128 C1126 1.388 . S
C1128 C1129 1.366 . S
C1129 C1128 1.366 . S
C1129 C1130 1.414 . S
C1129 C1132 1.499 . S
C1130 H1110 0.950 . S
C1130 C1129 1.414 . S
C1130 C1131 1.374 . S
C1131 H1111 0.950 . S
C1131 C1127 1.385 . S
C1131 C1130 1.374 . S
C1132 C1129 1.499 . S
C1132 C1133 1.373 . S
C1132 C1134 1.389 . S
C1133 H1112 0.950 . S
C1133 C1132 1.373 . S
C1133 C1149 1.377 . S
C1134 C1132 1.389 . S
C1134 C1135 1.524 . S
C1134 C1148 1.377 . S
C1135 C1134 1.524 . S
C1135 C1136 1.397 . S
C1135 C1140 1.363 . S
C1136 H1113 0.950 . S
C1136 C1135 1.397 . S
C1136 C1137 1.334 . S
C1137 H1114 0.950 . S
C1137 C1136 1.334 . S
C1137 C1138 1.287 . S
C1138 C1137 1.287 . S
C1138 C1139 1.524 . S
C1138 H1157 0.913 . S
C1139 H1115 0.950 . S
C1139 C1138 1.524 . S
C1139 C1140 1.415 . S
C1140 H1116 0.950 . S
C1140 C1135 1.363 . S
C1140 C1139 1.415 . S
C1141 H1117 0.951 . S
C1141 C1142 1.366 . S
C1141 C1143 1.388 . S
C1142 C1141 1.366 . S
C1142 C1146 1.385 . S
C1143 H1118 0.951 . S
C1143 C1141 1.388 . S
C1143 C1144 1.366 . S
C1144 C1143 1.366 . S
C1144 C1145 1.414 . S
C1144 C1147 1.499 . S
C1145 H1119 0.950 . S
C1145 C1144 1.414 . S
C1145 C1146 1.374 . S
C1146 H1120 0.950 . S
C1146 C1142 1.385 . S
C1146 C1145 1.374 . S
C1147 C1144 1.499 . S
C1147 C1148 1.373 . S
C1147 C1149 1.389 . S
C1148 H1121 0.950 . S
C1148 C1134 1.377 . S
C1148 C1147 1.373 . S
C1149 C1133 1.377 . S
C1149 C1147 1.389 . S
C1149 C1150 1.524 . S
C1150 C1149 1.524 . S
C1150 C1151 1.397 . S
C1150 C1155 1.363 . S
C1151 H1122 0.950 . S
C1151 C1150 1.397 . S
C1151 C1152 1.334 . S
C1152 H1123 0.950 . S
C1152 C1151 1.334 . S
C1152 C1153 1.287 . S
C1153 C1152 1.287 . S
C1153 C1154 1.524 . S
C1153 H1156 0.999 . S
C1154 H1124 0.950 . S
C1154 C1153 1.524 . S
C1154 C1155 1.415 . S
C1155 H1125 0.950 . S
C1155 C1150 1.363 . S
C1155 C1154 1.415 . S
H1156 C1153 0.999 . S
H1157 C1138 0.913 . S
H1158 C1176 0.951 . S
H1159 C1178 0.951 . S
H1160 C1180 0.950 . S
H1161 C1181 0.950 . S
H1162 C1183 0.950 . S
H1163 C1186 0.950 . S
H1164 C1187 0.950 . S
H1165 C1189 0.950 . S
H1166 C1190 0.950 . S
H1167 C1191 0.951 . S
H1168 C1193 0.951 . S
H1169 C1195 0.950 . S
H1170 C1196 0.950 . S
H1171 C1198 0.950 . S
H1172 C1201 0.950 . S
H1173 C1202 0.950 . S
H1174 C1204 0.950 . S
H1175 C1205 0.950 . S
C1176 H1158 0.951 . S
C1176 C1177 1.366 . S
C1176 C1178 1.388 . S
C1177 C1176 1.366 . S
C1177 C1181 1.385 . S
C1178 H1159 0.951 . S
C1178 C1176 1.388 . S
C1178 C1179 1.366 . S
C1179 C1178 1.366 . S
C1179 C1180 1.414 . S
C1179 C1182 1.499 . S
C1180 H1160 0.950 . S
C1180 C1179 1.414 . S
C1180 C1181 1.374 . S
C1181 H1161 0.950 . S
C1181 C1177 1.385 . S
C1181 C1180 1.374 . S
C1182 C1179 1.499 . S
C1182 C1183 1.373 . S
C1182 C1184 1.389 . S
C1183 H1162 0.950 . S
C1183 C1182 1.373 . S
C1183 C1199 1.377 . S
C1184 C1182 1.389 . S
C1184 C1185 1.524 . S
C1184 C1198 1.377 . S
C1185 C1184 1.524 . S
C1185 C1186 1.397 . S
C1185 C1190 1.363 . S
C1186 H1163 0.950 . S
C1186 C1185 1.397 . S
C1186 C1187 1.334 . S
C1187 H1164 0.950 . S
C1187 C1186 1.334 . S
C1187 C1188 1.287 . S
C1188 C1187 1.287 . S
C1188 C1189 1.524 . S
C1188 H1207 0.913 . S
C1189 H1165 0.950 . S
C1189 C1188 1.524 . S
C1189 C1190 1.415 . S
C1190 H1166 0.950 . S
C1190 C1185 1.363 . S
C1190 C1189 1.415 . S
C1191 H1167 0.951 . S
C1191 C1192 1.366 . S
C1191 C1193 1.388 . S
C1192 C1191 1.366 . S
C1192 C1196 1.385 . S
C1193 H1168 0.951 . S
C1193 C1191 1.388 . S
C1193 C1194 1.366 . S
C1194 C1193 1.366 . S
C1194 C1195 1.414 . S
C1194 C1197 1.499 . S
C1195 H1169 0.950 . S
C1195 C1194 1.414 . S
C1195 C1196 1.374 . S
C1196 H1170 0.950 . S
C1196 C1192 1.385 . S
C1196 C1195 1.374 . S
C1197 C1194 1.499 . S
C1197 C1198 1.373 . S
C1197 C1199 1.389 . S
C1198 H1171 0.950 . S
C1198 C1184 1.377 . S
C1198 C1197 1.373 . S
C1199 C1183 1.377 . S
C1199 C1197 1.389 . S
C1199 C1200 1.524 . S
C1200 C1199 1.524 . S
C1200 C1201 1.397 . S
C1200 C1205 1.363 . S
C1201 H1172 0.950 . S
C1201 C1200 1.397 . S
C1201 C1202 1.334 . S
C1202 H1173 0.950 . S
C1202 C1201 1.334 . S
C1202 C1203 1.287 . S
C1203 C1202 1.287 . S
C1203 C1204 1.524 . S
C1203 H1206 0.999 . S
C1204 H1174 0.950 . S
C1204 C1203 1.524 . S
C1204 C1205 1.415 . S
C1205 H1175 0.950 . S
C1205 C1200 1.363 . S
C1205 C1204 1.415 . S
H1206 C1203 0.999 . S
H1207 C1188 0.913 . S
H1208 C1226 0.951 . S
H1209 C1228 0.951 . S
H1210 C1230 0.950 . S
H1211 C1231 0.950 . S
H1212 C1233 0.950 . S
H1213 C1236 0.950 . S
H1214 C1237 0.950 . S
H1215 C1239 0.950 . S
H1216 C1240 0.950 . S
H1217 C1241 0.951 . S
H1218 C1243 0.951 . S
H1219 C1245 0.950 . S
H1220 C1246 0.950 . S
H1221 C1248 0.950 . S
H1222 C1251 0.950 . S
H1223 C1252 0.950 . S
H1224 C1254 0.950 . S
H1225 C1255 0.950 . S
C1226 H1208 0.951 . S
C1226 C1227 1.366 . S
C1226 C1228 1.388 . S
C1227 C1226 1.366 . S
C1227 C1231 1.385 . S
C1228 H1209 0.951 . S
C1228 C1226 1.388 . S
C1228 C1229 1.366 . S
C1229 C1228 1.366 . S
C1229 C1230 1.414 . S
C1229 C1232 1.499 . S
C1230 H1210 0.950 . S
C1230 C1229 1.414 . S
C1230 C1231 1.374 . S
C1231 H1211 0.950 . S
C1231 C1227 1.385 . S
C1231 C1230 1.374 . S
C1232 C1229 1.499 . S
C1232 C1233 1.373 . S
C1232 C1234 1.389 . S
C1233 H1212 0.950 . S
C1233 C1232 1.373 . S
C1233 C1249 1.377 . S
C1234 C1232 1.389 . S
C1234 C1235 1.524 . S
C1234 C1248 1.377 . S
C1235 C1234 1.524 . S
C1235 C1236 1.397 . S
C1235 C1240 1.363 . S
C1236 H1213 0.950 . S
C1236 C1235 1.397 . S
C1236 C1237 1.334 . S
C1237 H1214 0.950 . S
C1237 C1236 1.334 . S
C1237 C1238 1.287 . S
C1238 C1237 1.287 . S
C1238 C1239 1.524 . S
C1238 H1257 0.913 . S
C1239 H1215 0.950 . S
C1239 C1238 1.524 . S
C1239 C1240 1.415 . S
C1240 H1216 0.950 . S
C1240 C1235 1.363 . S
C1240 C1239 1.415 . S
C1241 H1217 0.951 . S
C1241 C1242 1.366 . S
C1241 C1243 1.388 . S
C1242 C1241 1.366 . S
C1242 C1246 1.385 . S
C1243 H1218 0.951 . S
C1243 C1241 1.388 . S
C1243 C1244 1.366 . S
C1244 C1243 1.366 . S
C1244 C1245 1.414 . S
C1244 C1247 1.499 . S
C1245 H1219 0.950 . S
C1245 C1244 1.414 . S
C1245 C1246 1.374 . S
C1246 H1220 0.950 . S
C1246 C1242 1.385 . S
C1246 C1245 1.374 . S
C1247 C1244 1.499 . S
C1247 C1248 1.373 . S
C1247 C1249 1.389 . S
C1248 H1221 0.950 . S
C1248 C1234 1.377 . S
C1248 C1247 1.373 . S
C1249 C1233 1.377 . S
C1249 C1247 1.389 . S
C1249 C1250 1.524 . S
C1250 C1249 1.524 . S
C1250 C1251 1.397 . S
C1250 C1255 1.363 . S
C1251 H1222 0.950 . S
C1251 C1250 1.397 . S
C1251 C1252 1.334 . S
C1252 H1223 0.950 . S
C1252 C1251 1.334 . S
C1252 C1253 1.287 . S
C1253 C1252 1.287 . S
C1253 C1254 1.524 . S
C1253 H1256 0.999 . S
C1254 H1224 0.950 . S
C1254 C1253 1.524 . S
C1254 C1255 1.415 . S
C1255 H1225 0.950 . S
C1255 C1250 1.363 . S
C1255 C1254 1.415 . S
H1256 C1253 0.999 . S
H1257 C1238 0.913 . S
H1258 C1276 0.951 . S
H1259 C1278 0.951 . S
H1260 C1280 0.950 . S
H1261 C1281 0.950 . S
H1262 C1283 0.950 . S
H1263 C1286 0.950 . S
H1264 C1287 0.950 . S
H1265 C1289 0.950 . S
H1266 C1290 0.950 . S
H1267 C1291 0.951 . S
H1268 C1293 0.951 . S
H1269 C1295 0.950 . S
H1270 C1296 0.950 . S
H1271 C1298 0.950 . S
H1272 C1301 0.950 . S
H1273 C1302 0.950 . S
H1274 C1304 0.950 . S
H1275 C1305 0.950 . S
C1276 H1258 0.951 . S
C1276 C1277 1.366 . S
C1276 C1278 1.388 . S
C1277 C1276 1.366 . S
C1277 C1281 1.385 . S
C1278 H1259 0.951 . S
C1278 C1276 1.388 . S
C1278 C1279 1.366 . S
C1279 C1278 1.366 . S
C1279 C1280 1.414 . S
C1279 C1282 1.499 . S
C1280 H1260 0.950 . S
C1280 C1279 1.414 . S
C1280 C1281 1.374 . S
C1281 H1261 0.950 . S
C1281 C1277 1.385 . S
C1281 C1280 1.374 . S
C1282 C1279 1.499 . S
C1282 C1283 1.373 . S
C1282 C1284 1.389 . S
C1283 H1262 0.950 . S
C1283 C1282 1.373 . S
C1283 C1299 1.377 . S
C1284 C1282 1.389 . S
C1284 C1285 1.524 . S
C1284 C1298 1.377 . S
C1285 C1284 1.524 . S
C1285 C1286 1.397 . S
C1285 C1290 1.363 . S
C1286 H1263 0.950 . S
C1286 C1285 1.397 . S
C1286 C1287 1.334 . S
C1287 H1264 0.950 . S
C1287 C1286 1.334 . S
C1287 C1288 1.287 . S
C1288 C1287 1.287 . S
C1288 C1289 1.524 . S
C1288 H1307 0.913 . S
C1289 H1265 0.950 . S
C1289 C1288 1.524 . S
C1289 C1290 1.415 . S
C1290 H1266 0.950 . S
C1290 C1285 1.363 . S
C1290 C1289 1.415 . S
C1291 H1267 0.951 . S
C1291 C1292 1.366 . S
C1291 C1293 1.388 . S
C1292 C1291 1.366 . S
C1292 C1296 1.385 . S
C1293 H1268 0.951 . S
C1293 C1291 1.388 . S
C1293 C1294 1.366 . S
C1294 C1293 1.366 . S
C1294 C1295 1.414 . S
C1294 C1297 1.499 . S
C1295 H1269 0.950 . S
C1295 C1294 1.414 . S
C1295 C1296 1.374 . S
C1296 H1270 0.950 . S
C1296 C1292 1.385 . S
C1296 C1295 1.374 . S
C1297 C1294 1.499 . S
C1297 C1298 1.373 . S
C1297 C1299 1.389 . S
C1298 H1271 0.950 . S
C1298 C1284 1.377 . S
C1298 C1297 1.373 . S
C1299 C1283 1.377 . S
C1299 C1297 1.389 . S
C1299 C1300 1.524 . S
C1300 C1299 1.524 . S
C1300 C1301 1.397 . S
C1300 C1305 1.363 . S
C1301 H1272 0.950 . S
C1301 C1300 1.397 . S
C1301 C1302 1.334 . S
C1302 H1273 0.950 . S
C1302 C1301 1.334 . S
C1302 C1303 1.287 . S
C1303 C1302 1.287 . S
C1303 C1304 1.524 . S
C1303 H1306 0.999 . S
C1304 H1274 0.950 . S
C1304 C1303 1.524 . S
C1304 C1305 1.415 . S
C1305 H1275 0.950 . S
C1305 C1300 1.363 . S
C1305 C1304 1.415 . S
H1306 C1303 0.999 . S
H1307 C1288 0.913 . S
H1308 C1326 0.951 . S
H1309 C1328 0.951 . S
H1310 C1330 0.950 . S
H1311 C1331 0.950 . S
H1312 C1333 0.950 . S
H1313 C1336 0.950 . S
H1314 C1337 0.950 . S
H1315 C1339 0.950 . S
H1316 C1340 0.950 . S
H1317 C1341 0.951 . S
H1318 C1343 0.951 . S
H1319 C1345 0.950 . S
H1320 C1346 0.950 . S
H1321 C1348 0.950 . S
H1322 C1351 0.950 . S
H1323 C1352 0.950 . S
H1324 C1354 0.950 . S
H1325 C1355 0.950 . S
C1326 H1308 0.951 . S
C1326 C1327 1.366 . S
C1326 C1328 1.388 . S
C1327 C1326 1.366 . S
C1327 C1331 1.385 . S
C1328 H1309 0.951 . S
C1328 C1326 1.388 . S
C1328 C1329 1.366 . S
C1329 C1328 1.366 . S
C1329 C1330 1.414 . S
C1329 C1332 1.499 . S
C1330 H1310 0.950 . S
C1330 C1329 1.414 . S
C1330 C1331 1.374 . S
C1331 H1311 0.950 . S
C1331 C1327 1.385 . S
C1331 C1330 1.374 . S
C1332 C1329 1.499 . S
C1332 C1333 1.373 . S
C1332 C1334 1.389 . S
C1333 H1312 0.950 . S
C1333 C1332 1.373 . S
C1333 C1349 1.377 . S
C1334 C1332 1.389 . S
C1334 C1335 1.524 . S
C1334 C1348 1.377 . S
C1335 C1334 1.524 . S
C1335 C1336 1.397 . S
C1335 C1340 1.363 . S
C1336 H1313 0.950 . S
C1336 C1335 1.397 . S
C1336 C1337 1.334 . S
C1337 H1314 0.950 . S
C1337 C1336 1.334 . S
C1337 C1338 1.287 . S
C1338 C1337 1.287 . S
C1338 C1339 1.524 . S
C1338 H1357 0.913 . S
C1339 H1315 0.950 . S
C1339 C1338 1.524 . S
C1339 C1340 1.415 . S
C1340 H1316 0.950 . S
C1340 C1335 1.363 . S
C1340 C1339 1.415 . S
C1341 H1317 0.951 . S
C1341 C1342 1.366 . S
C1341 C1343 1.388 . S
C1342 C1341 1.366 . S
C1342 C1346 1.385 . S
C1343 H1318 0.951 . S
C1343 C1341 1.388 . S
C1343 C1344 1.366 . S
C1344 C1343 1.366 . S
C1344 C1345 1.414 . S
C1344 C1347 1.499 . S
C1345 H1319 0.950 . S
C1345 C1344 1.414 . S
C1345 C1346 1.374 . S
C1346 H1320 0.950 . S
C1346 C1342 1.385 . S
C1346 C1345 1.374 . S
C1347 C1344 1.499 . S
C1347 C1348 1.373 . S
C1347 C1349 1.389 . S
C1348 H1321 0.950 . S
C1348 C1334 1.377 . S
C1348 C1347 1.373 . S
C1349 C1333 1.377 . S
C1349 C1347 1.389 . S
C1349 C1350 1.524 . S
C1350 C1349 1.524 . S
C1350 C1351 1.397 . S
C1350 C1355 1.363 . S
C1351 H1322 0.950 . S
C1351 C1350 1.397 . S
C1351 C1352 1.334 . S
C1352 H1323 0.950 . S
C1352 C1351 1.334 . S
C1352 C1353 1.287 . S
C1353 C1352 1.287 . S
C1353 C1354 1.524 . S
C1353 H1356 0.999 . S
C1354 H1324 0.950 . S
C1354 C1353 1.524 . S
C1354 C1355 1.415 . S
C1355 H1325 0.950 . S
C1355 C1350 1.363 . S
C1355 C1354 1.415 . S
H1356 C1353 0.999 . S
H1357 C1338 0.913 . S
H1358 C1376 0.951 . S
H1359 C1378 0.951 . S
H1360 C1380 0.950 . S
H1361 C1381 0.950 . S
H1362 C1383 0.950 . S
H1363 C1386 0.950 . S
H1364 C1387 0.950 . S
H1365 C1389 0.950 . S
H1366 C1390 0.950 . S
H1367 C1391 0.951 . S
H1368 C1393 0.951 . S
H1369 C1395 0.950 . S
H1370 C1396 0.950 . S
H1371 C1398 0.950 . S
H1372 C1401 0.950 . S
H1373 C1402 0.950 . S
H1374 C1404 0.950 . S
H1375 C1405 0.950 . S
C1376 H1358 0.951 . S
C1376 C1377 1.366 . S
C1376 C1378 1.388 . S
C1377 C1376 1.366 . S
C1377 C1381 1.385 . S
C1378 H1359 0.951 . S
C1378 C1376 1.388 . S
C1378 C1379 1.366 . S
C1379 C1378 1.366 . S
C1379 C1380 1.414 . S
C1379 C1382 1.499 . S
C1380 H1360 0.950 . S
C1380 C1379 1.414 . S
C1380 C1381 1.374 . S
C1381 H1361 0.950 . S
C1381 C1377 1.385 . S
C1381 C1380 1.374 . S
C1382 C1379 1.499 . S
C1382 C1383 1.373 . S
C1382 C1384 1.389 . S
C1383 H1362 0.950 . S
C1383 C1382 1.373 . S
C1383 C1399 1.377 . S
C1384 C1382 1.389 . S
C1384 C1385 1.524 . S
C1384 C1398 1.377 . S
C1385 C1384 1.524 . S
C1385 C1386 1.397 . S
C1385 C1390 1.363 . S
C1386 H1363 0.950 . S
C1386 C1385 1.397 . S
C1386 C1387 1.334 . S
C1387 H1364 0.950 . S
C1387 C1386 1.334 . S
C1387 C1388 1.287 . S
C1388 C1387 1.287 . S
C1388 C1389 1.524 . S
C1388 H1407 0.913 . S
C1389 H1365 0.950 . S
C1389 C1388 1.524 . S
C1389 C1390 1.415 . S
C1390 H1366 0.950 . S
C1390 C1385 1.363 . S
C1390 C1389 1.415 . S
C1391 H1367 0.951 . S
C1391 C1392 1.366 . S
C1391 C1393 1.388 . S
C1392 C1391 1.366 . S
C1392 C1396 1.385 . S
C1393 H1368 0.951 . S
C1393 C1391 1.388 . S
C1393 C1394 1.366 . S
C1394 C1393 1.366 . S
C1394 C1395 1.414 . S
C1394 C1397 1.499 . S
C1395 H1369 0.950 . S
C1395 C1394 1.414 . S
C1395 C1396 1.374 . S
C1396 H1370 0.950 . S
C1396 C1392 1.385 . S
C1396 C1395 1.374 . S
C1397 C1394 1.499 . S
C1397 C1398 1.373 . S
C1397 C1399 1.389 . S
C1398 H1371 0.950 . S
C1398 C1384 1.377 . S
C1398 C1397 1.373 . S
C1399 C1383 1.377 . S
C1399 C1397 1.389 . S
C1399 C1400 1.524 . S
C1400 C1399 1.524 . S
C1400 C1401 1.397 . S
C1400 C1405 1.363 . S
C1401 H1372 0.950 . S
C1401 C1400 1.397 . S
C1401 C1402 1.334 . S
C1402 H1373 0.950 . S
C1402 C1401 1.334 . S
C1402 C1403 1.287 . S
C1403 C1402 1.287 . S
C1403 C1404 1.524 . S
C1403 H1406 0.999 . S
C1404 H1374 0.950 . S
C1404 C1403 1.524 . S
C1404 C1405 1.415 . S
C1405 H1375 0.950 . S
C1405 C1400 1.363 . S
C1405 C1404 1.415 . S
H1406 C1403 0.999 . S
H1407 C1388 0.913 . S
H1408 C1426 0.951 . S
H1409 C1428 0.951 . S
H1410 C1430 0.950 . S
H1411 C1431 0.950 . S
H1412 C1433 0.950 . S
H1413 C1436 0.950 . S
H1414 C1437 0.950 . S
H1415 C1439 0.950 . S
H1416 C1440 0.950 . S
H1417 C1441 0.951 . S
H1418 C1443 0.951 . S
H1419 C1445 0.950 . S
H1420 C1446 0.950 . S
H1421 C1448 0.950 . S
H1422 C1451 0.950 . S
H1423 C1452 0.950 . S
H1424 C1454 0.950 . S
H1425 C1455 0.950 . S
C1426 H1408 0.951 . S
C1426 C1427 1.366 . S
C1426 C1428 1.388 . S
C1427 C1426 1.366 . S
C1427 C1431 1.385 . S
C1428 H1409 0.951 . S
C1428 C1426 1.388 . S
C1428 C1429 1.366 . S
C1429 C1428 1.366 . S
C1429 C1430 1.414 . S
C1429 C1432 1.499 . S
C1430 H1410 0.950 . S
C1430 C1429 1.414 . S
C1430 C1431 1.374 . S
C1431 H1411 0.950 . S
C1431 C1427 1.385 . S
C1431 C1430 1.374 . S
C1432 C1429 1.499 . S
C1432 C1433 1.373 . S
C1432 C1434 1.389 . S
C1433 H1412 0.950 . S
C1433 C1432 1.373 . S
C1433 C1449 1.377 . S
C1434 C1432 1.389 . S
C1434 C1435 1.524 . S
C1434 C1448 1.377 . S
C1435 C1434 1.524 . S
C1435 C1436 1.397 . S
C1435 C1440 1.363 . S
C1436 H1413 0.950 . S
C1436 C1435 1.397 . S
C1436 C1437 1.334 . S
C1437 H1414 0.950 . S
C1437 C1436 1.334 . S
C1437 C1438 1.287 . S
C1438 C1437 1.287 . S
C1438 C1439 1.524 . S
C1438 H1457 0.913 . S
C1439 H1415 0.950 . S
C1439 C1438 1.524 . S
C1439 C1440 1.415 . S
C1440 H1416 0.950 . S
C1440 C1435 1.363 . S
C1440 C1439 1.415 . S
C1441 H1417 0.951 . S
C1441 C1442 1.366 . S
C1441 C1443 1.388 . S
C1442 C1441 1.366 . S
C1442 C1446 1.385 . S
C1443 H1418 0.951 . S
C1443 C1441 1.388 . S
C1443 C1444 1.366 . S
C1444 C1443 1.366 . S
C1444 C1445 1.414 . S
C1444 C1447 1.499 . S
C1445 H1419 0.950 . S
C1445 C1444 1.414 . S
C1445 C1446 1.374 . S
C1446 H1420 0.950 . S
C1446 C1442 1.385 . S
C1446 C1445 1.374 . S
C1447 C1444 1.499 . S
C1447 C1448 1.373 . S
C1447 C1449 1.389 . S
C1448 H1421 0.950 . S
C1448 C1434 1.377 . S
C1448 C1447 1.373 . S
C1449 C1433 1.377 . S
C1449 C1447 1.389 . S
C1449 C1450 1.524 . S
C1450 C1449 1.524 . S
C1450 C1451 1.397 . S
C1450 C1455 1.363 . S
C1451 H1422 0.950 . S
C1451 C1450 1.397 . S
C1451 C1452 1.334 . S
C1452 H1423 0.950 . S
C1452 C1451 1.334 . S
C1452 C1453 1.287 . S
C1453 C1452 1.287 . S
C1453 C1454 1.524 . S
C1453 H1456 0.999 . S
C1454 H1424 0.950 . S
C1454 C1453 1.524 . S
C1454 C1455 1.415 . S
C1455 H1425 0.950 . S
C1455 C1450 1.363 . S
C1455 C1454 1.415 . S
H1456 C1453 0.999 . S
H1457 C1438 0.913 . S
H1458 C1476 0.951 . S
H1459 C1478 0.951 . S
H1460 C1480 0.950 . S
H1461 C1481 0.950 . S
H1462 C1483 0.950 . S
H1463 C1486 0.950 . S
H1464 C1487 0.950 . S
H1465 C1489 0.950 . S
H1466 C1490 0.950 . S
H1467 C1491 0.951 . S
H1468 C1493 0.951 . S
H1469 C1495 0.950 . S
H1470 C1496 0.950 . S
H1471 C1498 0.950 . S
H1472 C1501 0.950 . S
H1473 C1502 0.950 . S
H1474 C1504 0.950 . S
H1475 C1505 0.950 . S
C1476 H1458 0.951 . S
C1476 C1477 1.366 . S
C1476 C1478 1.388 . S
C1477 C1476 1.366 . S
C1477 C1481 1.385 . S
C1478 H1459 0.951 . S
C1478 C1476 1.388 . S
C1478 C1479 1.366 . S
C1479 C1478 1.366 . S
C1479 C1480 1.414 . S
C1479 C1482 1.499 . S
C1480 H1460 0.950 . S
C1480 C1479 1.414 . S
C1480 C1481 1.374 . S
C1481 H1461 0.950 . S
C1481 C1477 1.385 . S
C1481 C1480 1.374 . S
C1482 C1479 1.499 . S
C1482 C1483 1.373 . S
C1482 C1484 1.389 . S
C1483 H1462 0.950 . S
C1483 C1482 1.373 . S
C1483 C1499 1.377 . S
C1484 C1482 1.389 . S
C1484 C1485 1.524 . S
C1484 C1498 1.377 . S
C1485 C1484 1.524 . S
C1485 C1486 1.397 . S
C1485 C1490 1.363 . S
C1486 H1463 0.950 . S
C1486 C1485 1.397 . S
C1486 C1487 1.334 . S
C1487 H1464 0.950 . S
C1487 C1486 1.334 . S
C1487 C1488 1.287 . S
C1488 C1487 1.287 . S
C1488 C1489 1.524 . S
C1488 H1507 0.913 . S
C1489 H1465 0.950 . S
C1489 C1488 1.524 . S
C1489 C1490 1.415 . S
C1490 H1466 0.950 . S
C1490 C1485 1.363 . S
C1490 C1489 1.415 . S
C1491 H1467 0.951 . S
C1491 C1492 1.366 . S
C1491 C1493 1.388 . S
C1492 C1491 1.366 . S
C1492 C1496 1.385 . S
C1493 H1468 0.951 . S
C1493 C1491 1.388 . S
C1493 C1494 1.366 . S
C1494 C1493 1.366 . S
C1494 C1495 1.414 . S
C1494 C1497 1.499 . S
C1495 H1469 0.950 . S
C1495 C1494 1.414 . S
C1495 C1496 1.374 . S
C1496 H1470 0.950 . S
C1496 C1492 1.385 . S
C1496 C1495 1.374 . S
C1497 C1494 1.499 . S
C1497 C1498 1.373 . S
C1497 C1499 1.389 . S
C1498 H1471 0.950 . S
C1498 C1484 1.377 . S
C1498 C1497 1.373 . S
C1499 C1483 1.377 . S
C1499 C1497 1.389 . S
C1499 C1500 1.524 . S
C1500 C1499 1.524 . S
C1500 C1501 1.397 . S
C1500 C1505 1.363 . S
C1501 H1472 0.950 . S
C1501 C1500 1.397 . S
C1501 C1502 1.334 . S
C1502 H1473 0.950 . S
C1502 C1501 1.334 . S
C1502 C1503 1.287 . S
C1503 C1502 1.287 . S
C1503 C1504 1.524 . S
C1503 H1506 0.999 . S
C1504 H1474 0.950 . S
C1504 C1503 1.524 . S
C1504 C1505 1.415 . S
C1505 H1475 0.950 . S
C1505 C1500 1.363 . S
C1505 C1504 1.415 . S
H1506 C1503 0.999 . S
H1507 C1488 0.913 . S
H1508 C1526 0.951 . S
H1509 C1528 0.951 . S
H1510 C1530 0.950 . S
H1511 C1531 0.950 . S
H1512 C1533 0.950 . S
H1513 C1536 0.950 . S
H1514 C1537 0.950 . S
H1515 C1539 0.950 . S
H1516 C1540 0.950 . S
H1517 C1541 0.951 . S
H1518 C1543 0.951 . S
H1519 C1545 0.950 . S
H1520 C1546 0.950 . S
H1521 C1548 0.950 . S
H1522 C1551 0.950 . S
H1523 C1552 0.950 . S
H1524 C1554 0.950 . S
H1525 C1555 0.950 . S
C1526 H1508 0.951 . S
C1526 C1527 1.366 . S
C1526 C1528 1.388 . S
C1527 C1526 1.366 . S
C1527 C1531 1.385 . S
C1528 H1509 0.951 . S
C1528 C1526 1.388 . S
C1528 C1529 1.366 . S
C1529 C1528 1.366 . S
C1529 C1530 1.414 . S
C1529 C1532 1.499 . S
C1530 H1510 0.950 . S
C1530 C1529 1.414 . S
C1530 C1531 1.374 . S
C1531 H1511 0.950 . S
C1531 C1527 1.385 . S
C1531 C1530 1.374 . S
C1532 C1529 1.499 . S
C1532 C1533 1.373 . S
C1532 C1534 1.389 . S
C1533 H1512 0.950 . S
C1533 C1532 1.373 . S
C1533 C1549 1.377 . S
C1534 C1532 1.389 . S
C1534 C1535 1.524 . S
C1534 C1548 1.377 . S
C1535 C1534 1.524 . S
C1535 C1536 1.397 . S
C1535 C1540 1.363 . S
C1536 H1513 0.950 . S
C1536 C1535 1.397 . S
C1536 C1537 1.334 . S
C1537 H1514 0.950 . S
C1537 C1536 1.334 . S
C1537 C1538 1.287 . S
C1538 C1537 1.287 . S
C1538 C1539 1.524 . S
C1538 H1557 0.913 . S
C1539 H1515 0.950 . S
C1539 C1538 1.524 . S
C1539 C1540 1.415 . S
C1540 H1516 0.950 . S
C1540 C1535 1.363 . S
C1540 C1539 1.415 . S
C1541 H1517 0.951 . S
C1541 C1542 1.366 . S
C1541 C1543 1.388 . S
C1542 C1541 1.366 . S
C1542 C1546 1.385 . S
C1543 H1518 0.951 . S
C1543 C1541 1.388 . S
C1543 C1544 1.366 . S
C1544 C1543 1.366 . S
C1544 C1545 1.414 . S
C1544 C1547 1.499 . S
C1545 H1519 0.950 . S
C1545 C1544 1.414 . S
C1545 C1546 1.374 . S
C1546 H1520 0.950 . S
C1546 C1542 1.385 . S
C1546 C1545 1.374 . S
C1547 C1544 1.499 . S
C1547 C1548 1.373 . S
C1547 C1549 1.389 . S
C1548 H1521 0.950 . S
C1548 C1534 1.377 . S
C1548 C1547 1.373 . S
C1549 C1533 1.377 . S
C1549 C1547 1.389 . S
C1549 C1550 1.524 . S
C1550 C1549 1.524 . S
C1550 C1551 1.397 . S
C1550 C1555 1.363 . S
C1551 H1522 0.950 . S
C1551 C1550 1.397 . S
C1551 C1552 1.334 . S
C1552 H1523 0.950 . S
C1552 C1551 1.334 . S
C1552 C1553 1.287 . S
C1553 C1552 1.287 . S
C1553 C1554 1.524 . S
C1553 H1556 0.999 . S
C1554 H1524 0.950 . S
C1554 C1553 1.524 . S
C1554 C1555 1.415 . S
C1555 H1525 0.950 . S
C1555 C1550 1.363 . S
C1555 C1554 1.415 . S
H1556 C1553 0.999 . S
H1557 C1538 0.913 . S
H1558 C1576 0.951 . S
H1559 C1578 0.951 . S
H1560 C1580 0.950 . S
H1561 C1581 0.950 . S
H1562 C1583 0.950 . S
H1563 C1586 0.950 . S
H1564 C1587 0.950 . S
H1565 C1589 0.950 . S
H1566 C1590 0.950 . S
H1567 C1591 0.951 . S
H1568 C1593 0.951 . S
H1569 C1595 0.950 . S
H1570 C1596 0.950 . S
H1571 C1598 0.950 . S
H1572 C1601 0.950 . S
H1573 C1602 0.950 . S
H1574 C1604 0.950 . S
H1575 C1605 0.950 . S
C1576 H1558 0.951 . S
C1576 C1577 1.366 . S
C1576 C1578 1.388 . S
C1577 C1576 1.366 . S
C1577 C1581 1.385 . S
C1578 H1559 0.951 . S
C1578 C1576 1.388 . S
C1578 C1579 1.366 . S
C1579 C1578 1.366 . S
C1579 C1580 1.414 . S
C1579 C1582 1.499 . S
C1580 H1560 0.950 . S
C1580 C1579 1.414 . S
C1580 C1581 1.374 . S
C1581 H1561 0.950 . S
C1581 C1577 1.385 . S
C1581 C1580 1.374 . S
C1582 C1579 1.499 . S
C1582 C1583 1.373 . S
C1582 C1584 1.389 . S
C1583 H1562 0.950 . S
C1583 C1582 1.373 . S
C1583 C1599 1.377 . S
C1584 C1582 1.389 . S
C1584 C1585 1.524 . S
C1584 C1598 1.377 . S
C1585 C1584 1.524 . S
C1585 C1586 1.397 . S
C1585 C1590 1.363 . S
C1586 H1563 0.950 . S
C1586 C1585 1.397 . S
C1586 C1587 1.334 . S
C1587 H1564 0.950 . S
C1587 C1586 1.334 . S
C1587 C1588 1.287 . S
C1588 C1587 1.287 . S
C1588 C1589 1.524 . S
C1588 H1607 0.913 . S
C1589 H1565 0.950 . S
C1589 C1588 1.524 . S
C1589 C1590 1.415 . S
C1590 H1566 0.950 . S
C1590 C1585 1.363 . S
C1590 C1589 1.415 . S
C1591 H1567 0.951 . S
C1591 C1592 1.366 . S
C1591 C1593 1.388 . S
C1592 C1591 1.366 . S
C1592 C1596 1.385 . S
C1593 H1568 0.951 . S
C1593 C1591 1.388 . S
C1593 C1594 1.366 . S
C1594 C1593 1.366 . S
C1594 C1595 1.414 . S
C1594 C1597 1.499 . S
C1595 H1569 0.950 . S
C1595 C1594 1.414 . S
C1595 C1596 1.374 . S
C1596 H1570 0.950 . S
C1596 C1592 1.385 . S
C1596 C1595 1.374 . S
C1597 C1594 1.499 . S
C1597 C1598 1.373 . S
C1597 C1599 1.389 . S
C1598 H1571 0.950 . S
C1598 C1584 1.377 . S
C1598 C1597 1.373 . S
C1599 C1583 1.377 . S
C1599 C1597 1.389 . S
C1599 C1600 1.524 . S
C1600 C1599 1.524 . S
C1600 C1601 1.397 . S
C1600 C1605 1.363 . S
C1601 H1572 0.950 . S
C1601 C1600 1.397 . S
C1601 C1602 1.334 . S
C1602 H1573 0.950 . S
C1602 C1601 1.334 . S
C1602 C1603 1.287 . S
C1603 C1602 1.287 . S
C1603 C1604 1.524 . S
C1603 H1606 0.999 . S
C1604 H1574 0.950 . S
C1604 C1603 1.524 . S
C1604 C1605 1.415 . S
C1605 H1575 0.950 . S
C1605 C1600 1.363 . S
C1605 C1604 1.415 . S
H1606 C1603 0.999 . S
H1607 C1588 0.913 . S
H1608 C1626 0.951 . S
H1609 C1628 0.951 . S
H1610 C1630 0.950 . S
H1611 C1631 0.950 . S
H1612 C1633 0.950 . S
H1613 C1636 0.950 . S
H1614 C1637 0.950 . S
H1615 C1639 0.950 . S
H1616 C1640 0.950 . S
H1617 C1641 0.951 . S
H1618 C1643 0.951 . S
H1619 C1645 0.950 . S
H1620 C1646 0.950 . S
H1621 C1648 0.950 . S
H1622 C1651 0.950 . S
H1623 C1652 0.950 1_556 S
H1624 C1654 0.950 . S
H1625 C1655 0.950 . S
C1626 H1608 0.951 . S
C1626 C1627 1.366 . S
C1626 C1628 1.388 . S
C1627 C1626 1.366 . S
C1627 C1631 1.385 . S
C1628 H1609 0.951 . S
C1628 C1626 1.388 . S
C1628 C1629 1.366 . S
C1629 C1628 1.366 . S
C1629 C1630 1.414 . S
C1629 C1632 1.499 . S
C1630 H1610 0.950 . S
C1630 C1629 1.414 . S
C1630 C1631 1.374 . S
C1631 H1611 0.950 . S
C1631 C1627 1.385 . S
C1631 C1630 1.374 . S
C1632 C1629 1.499 . S
C1632 C1633 1.373 . S
C1632 C1634 1.389 . S
C1633 H1612 0.950 . S
C1633 C1632 1.373 . S
C1633 C1649 1.377 1_455 S
C1634 C1632 1.389 . S
C1634 C1635 1.524 . S
C1634 C1648 1.377 1_455 S
C1635 C1634 1.524 . S
C1635 C1636 1.397 . S
C1635 C1640 1.363 . S
C1636 H1613 0.950 . S
C1636 C1635 1.397 . S
C1636 C1637 1.334 . S
C1637 H1614 0.950 . S
C1637 C1636 1.334 . S
C1637 C1638 1.287 . S
C1638 C1637 1.287 . S
C1638 C1639 1.524 . S
C1638 H1657 0.913 . S
C1639 H1615 0.950 . S
C1639 C1638 1.524 . S
C1639 C1640 1.415 . S
C1640 H1616 0.950 . S
C1640 C1635 1.363 . S
C1640 C1639 1.415 . S
C1641 H1617 0.951 . S
C1641 C1642 1.366 . S
C1641 C1643 1.388 . S
C1642 C1641 1.366 . S
C1642 C1646 1.385 . S
C1643 H1618 0.951 . S
C1643 C1641 1.388 . S
C1643 C1644 1.366 . S
C1644 C1643 1.366 . S
C1644 C1645 1.414 . S
C1644 C1647 1.499 . S
C1645 H1619 0.950 . S
C1645 C1644 1.414 . S
C1645 C1646 1.374 . S
C1646 H1620 0.950 . S
C1646 C1642 1.385 . S
C1646 C1645 1.374 . S
C1647 C1644 1.499 . S
C1647 C1648 1.373 . S
C1647 C1649 1.389 . S
C1648 H1621 0.950 . S
C1648 C1634 1.377 1_655 S
C1648 C1647 1.373 . S
C1649 C1633 1.377 1_655 S
C1649 C1647 1.389 . S
C1649 C1650 1.524 . S
C1650 C1649 1.524 . S
C1650 C1651 1.397 . S
C1650 C1655 1.363 . S
C1651 H1622 0.950 . S
C1651 C1650 1.397 . S
C1651 C1652 1.334 . S
C1652 H1623 0.950 1_554 S
C1652 C1651 1.334 . S
C1652 C1653 1.287 1_554 S
C1653 C1652 1.287 1_556 S
C1653 C1654 1.524 . S
C1653 H1656 0.999 . S
C1654 H1624 0.950 . S
C1654 C1653 1.524 . S
C1654 C1655 1.415 1_556 S
C1655 H1625 0.950 . S
C1655 C1650 1.363 . S
C1655 C1654 1.415 1_554 S
H1656 C1653 0.999 . S
H1657 C1638 0.913 . S
H1658 C1676 0.951 . S
H1659 C1678 0.951 . S
H1660 C1680 0.950 . S
H1661 C1681 0.950 . S
H1662 C1683 0.950 . S
H1663 C1686 0.950 . S
H1664 C1687 0.950 . S
H1665 C1689 0.950 . S
H1666 C1690 0.950 . S
H1667 C1691 0.951 . S
H1668 C1693 0.951 . S
H1669 C1695 0.950 . S
H1670 C1696 0.950 . S
H1671 C1698 0.950 . S
H1672 C1701 0.950 . S
H1673 C1702 0.950 . S
H1674 C1704 0.950 . S
H1675 C1705 0.950 . S
C1676 H1658 0.951 . S
C1676 C1677 1.366 . S
C1676 C1678 1.388 . S
C1677 C1676 1.366 . S
C1677 C1681 1.385 . S
C1678 H1659 0.951 . S
C1678 C1676 1.388 . S
C1678 C1679 1.366 . S
C1679 C1678 1.366 . S
C1679 C1680 1.414 . S
C1679 C1682 1.499 . S
C1680 H1660 0.950 . S
C1680 C1679 1.414 . S
C1680 C1681 1.374 . S
C1681 H1661 0.950 . S
C1681 C1677 1.385 . S
C1681 C1680 1.374 . S
C1682 C1679 1.499 . S
C1682 C1683 1.373 . S
C1682 C1684 1.389 . S
C1683 H1662 0.950 . S
C1683 C1682 1.373 . S
C1683 C1699 1.377 1_565 S
C1684 C1682 1.389 . S
C1684 C1685 1.524 . S
C1684 C1698 1.377 1_565 S
C1685 C1684 1.524 . S
C1685 C1686 1.397 . S
C1685 C1690 1.363 . S
C1686 H1663 0.950 . S
C1686 C1685 1.397 . S
C1686 C1687 1.334 . S
C1687 H1664 0.950 . S
C1687 C1686 1.334 . S
C1687 C1688 1.287 . S
C1688 C1687 1.287 . S
C1688 C1689 1.524 . S
C1688 H1707 0.913 . S
C1689 H1665 0.950 . S
C1689 C1688 1.524 . S
C1689 C1690 1.415 . S
C1690 H1666 0.950 . S
C1690 C1685 1.363 . S
C1690 C1689 1.415 . S
C1691 H1667 0.951 . S
C1691 C1692 1.366 . S
C1691 C1693 1.388 . S
C1692 C1691 1.366 . S
C1692 C1696 1.385 . S
C1693 H1668 0.951 . S
C1693 C1691 1.388 . S
C1693 C1694 1.366 . S
C1694 C1693 1.366 . S
C1694 C1695 1.414 . S
C1694 C1697 1.499 . S
C1695 H1669 0.950 . S
C1695 C1694 1.414 . S
C1695 C1696 1.374 . S
C1696 H1670 0.950 . S
C1696 C1692 1.385 . S
C1696 C1695 1.374 . S
C1697 C1694 1.499 . S
C1697 C1698 1.373 . S
C1697 C1699 1.389 . S
C1698 H1671 0.950 . S
C1698 C1684 1.377 1_545 S
C1698 C1697 1.373 . S
C1699 C1683 1.377 1_545 S
C1699 C1697 1.389 . S
C1699 C1700 1.524 . S
C1700 C1699 1.524 . S
C1700 C1701 1.397 . S
C1700 C1705 1.363 . S
C1701 H1672 0.950 . S
C1701 C1700 1.397 . S
C1701 C1702 1.334 . S
C1702 H1673 0.950 . S
C1702 C1701 1.334 . S
C1702 C1703 1.287 . S
C1703 C1702 1.287 . S
C1703 C1704 1.524 . S
C1703 H1706 0.999 . S
C1704 H1674 0.950 . S
C1704 C1703 1.524 . S
C1704 C1705 1.415 . S
C1705 H1675 0.950 . S
C1705 C1700 1.363 . S
C1705 C1704 1.415 . S
H1706 C1703 0.999 . S
H1707 C1688 0.913 . S
H1708 C1726 0.951 . S
H1709 C1728 0.951 . S
H1710 C1730 0.950 . S
H1711 C1731 0.950 . S
H1712 C1733 0.950 . S
H1713 C1736 0.950 . S
H1714 C1737 0.950 1_556 S
H1715 C1739 0.950 . S
H1716 C1740 0.950 . S
H1717 C1741 0.951 . S
H1718 C1743 0.951 . S
H1719 C1745 0.950 . S
H1720 C1746 0.950 . S
H1721 C1748 0.950 . S
H1722 C1751 0.950 . S
H1723 C1752 0.950 . S
H1724 C1754 0.950 . S
H1725 C1755 0.950 . S
C1726 H1708 0.951 . S
C1726 C1727 1.366 . S
C1726 C1728 1.388 . S
C1727 C1726 1.366 . S
C1727 C1731 1.385 . S
C1728 H1709 0.951 . S
C1728 C1726 1.388 . S
C1728 C1729 1.366 . S
C1729 C1728 1.366 . S
C1729 C1730 1.414 . S
C1729 C1732 1.499 . S
C1730 H1710 0.950 . S
C1730 C1729 1.414 . S
C1730 C1731 1.374 . S
C1731 H1711 0.950 . S
C1731 C1727 1.385 . S
C1731 C1730 1.374 . S
C1732 C1729 1.499 . S
C1732 C1733 1.373 . S
C1732 C1734 1.389 . S
C1733 H1712 0.950 . S
C1733 C1732 1.373 . S
C1733 C1749 1.377 . S
C1734 C1732 1.389 . S
C1734 C1735 1.524 . S
C1734 C1748 1.377 . S
C1735 C1734 1.524 . S
C1735 C1736 1.397 . S
C1735 C1740 1.363 . S
C1736 H1713 0.950 . S
C1736 C1735 1.397 . S
C1736 C1737 1.334 . S
C1737 H1714 0.950 1_554 S
C1737 C1736 1.334 . S
C1737 C1738 1.289 . S
C1738 C1737 1.289 . S
C1738 C1739 1.528 . S
C1738 H1757 0.907 1_554 S
C1739 H1715 0.950 . S
C1739 C1738 1.528 . S
C1739 C1740 1.415 . S
C1740 H1716 0.950 . S
C1740 C1735 1.363 . S
C1740 C1739 1.415 . S
C1741 H1717 0.951 . S
C1741 C1742 1.366 . S
C1741 C1743 1.388 . S
C1742 C1741 1.366 . S
C1742 C1746 1.385 . S
C1743 H1718 0.951 . S
C1743 C1741 1.388 . S
C1743 C1744 1.366 . S
C1744 C1743 1.366 . S
C1744 C1745 1.414 . S
C1744 C1747 1.499 . S
C1745 H1719 0.950 . S
C1745 C1744 1.414 . S
C1745 C1746 1.374 . S
C1746 H1720 0.950 . S
C1746 C1742 1.385 . S
C1746 C1745 1.374 . S
C1747 C1744 1.499 . S
C1747 C1748 1.373 . S
C1747 C1749 1.389 . S
C1748 H1721 0.950 . S
C1748 C1734 1.377 . S
C1748 C1747 1.373 . S
C1749 C1733 1.377 . S
C1749 C1747 1.389 . S
C1749 C1750 1.524 . S
C1750 C1749 1.524 . S
C1750 C1751 1.397 . S
C1750 C1755 1.363 . S
C1751 H1722 0.950 . S
C1751 C1750 1.397 . S
C1751 C1752 1.334 . S
C1752 H1723 0.950 . S
C1752 C1751 1.334 . S
C1752 C1753 1.287 . S
C1753 C1752 1.287 . S
C1753 C1754 1.524 . S
C1753 H1756 0.999 . S
C1754 H1724 0.950 . S
C1754 C1753 1.524 . S
C1754 C1755 1.415 . S
C1755 H1725 0.950 . S
C1755 C1750 1.363 . S
C1755 C1754 1.415 . S
H1756 C1753 0.999 . S
H1757 C1738 0.907 1_556 S
H1758 C1776 0.951 . S
H1759 C1778 0.951 . S
H1760 C1780 0.950 . S
H1761 C1781 0.950 . S
H1762 C1783 0.950 . S
H1763 C1786 0.950 . S
H1764 C1787 0.950 . S
H1765 C1789 0.950 . S
H1766 C1790 0.950 . S
H1767 C1791 0.951 . S
H1768 C1793 0.951 . S
H1769 C1795 0.950 . S
H1770 C1796 0.950 . S
H1771 C1798 0.950 . S
H1772 C1801 0.950 . S
H1773 C1802 0.950 . S
H1774 C1804 0.950 . S
H1775 C1805 0.950 . S
C1776 H1758 0.951 . S
C1776 C1777 1.366 . S
C1776 C1778 1.388 . S
C1777 C1776 1.366 . S
C1777 C1781 1.385 . S
C1778 H1759 0.951 . S
C1778 C1776 1.388 . S
C1778 C1779 1.366 . S
C1779 C1778 1.366 . S
C1779 C1780 1.414 . S
C1779 C1782 1.499 . S
C1780 H1760 0.950 . S
C1780 C1779 1.414 . S
C1780 C1781 1.374 . S
C1781 H1761 0.950 . S
C1781 C1777 1.385 . S
C1781 C1780 1.374 . S
C1782 C1779 1.499 . S
C1782 C1783 1.373 . S
C1782 C1784 1.389 . S
C1783 H1762 0.950 . S
C1783 C1782 1.373 . S
C1783 C1799 1.377 1_455 S
C1784 C1782 1.389 . S
C1784 C1785 1.524 . S
C1784 C1798 1.377 1_455 S
C1785 C1784 1.524 . S
C1785 C1786 1.397 . S
C1785 C1790 1.363 . S
C1786 H1763 0.950 . S
C1786 C1785 1.397 . S
C1786 C1787 1.334 . S
C1787 H1764 0.950 . S
C1787 C1786 1.334 . S
C1787 C1788 1.287 . S
C1788 C1787 1.287 . S
C1788 C1789 1.524 . S
C1788 H1807 0.913 . S
C1789 H1765 0.950 . S
C1789 C1788 1.524 . S
C1789 C1790 1.415 . S
C1790 H1766 0.950 . S
C1790 C1785 1.363 . S
C1790 C1789 1.415 . S
C1791 H1767 0.951 . S
C1791 C1792 1.366 . S
C1791 C1793 1.388 . S
C1792 C1791 1.366 . S
C1792 C1796 1.385 . S
C1793 H1768 0.951 . S
C1793 C1791 1.388 . S
C1793 C1794 1.366 . S
C1794 C1793 1.366 . S
C1794 C1795 1.414 . S
C1794 C1797 1.499 . S
C1795 H1769 0.950 . S
C1795 C1794 1.414 . S
C1795 C1796 1.374 . S
C1796 H1770 0.950 . S
C1796 C1792 1.385 . S
C1796 C1795 1.374 . S
C1797 C1794 1.499 . S
C1797 C1798 1.373 . S
C1797 C1799 1.389 . S
C1798 H1771 0.950 . S
C1798 C1784 1.377 1_655 S
C1798 C1797 1.373 . S
C1799 C1783 1.377 1_655 S
C1799 C1797 1.389 . S
C1799 C1800 1.524 . S
C1800 C1799 1.524 . S
C1800 C1801 1.397 . S
C1800 C1805 1.363 . S
C1801 H1772 0.950 . S
C1801 C1800 1.397 . S
C1801 C1802 1.334 . S
C1802 H1773 0.950 . S
C1802 C1801 1.334 . S
C1802 C1803 1.287 . S
C1803 C1802 1.287 . S
C1803 C1804 1.524 . S
C1803 H1806 0.999 . S
C1804 H1774 0.950 . S
C1804 C1803 1.524 . S
C1804 C1805 1.415 . S
C1805 H1775 0.950 . S
C1805 C1800 1.363 . S
C1805 C1804 1.415 . S
H1806 C1803 0.999 . S
H1807 C1788 0.913 . S
H1808 C1826 0.951 . S
H1809 C1828 0.951 . S
H1810 C1830 0.950 . S
H1811 C1831 0.950 . S
H1812 C1833 0.950 . S
H1813 C1836 0.950 . S
H1814 C1837 0.950 . S
H1815 C1839 0.950 . S
H1816 C1840 0.986 . S
H1817 C1841 0.951 . S
H1818 C1843 0.951 . S
H1819 C1845 0.950 . S
H1820 C1846 0.950 . S
H1821 C1848 0.950 . S
H1822 C1851 0.950 . S
H1823 C1852 0.950 . S
H1824 C1854 0.950 . S
H1825 C1855 0.987 . S
C1826 H1808 0.951 . S
C1826 C1827 1.366 . S
C1826 C1828 1.388 . S
C1827 C1826 1.366 . S
C1827 C1831 1.385 . S
C1828 H1809 0.951 . S
C1828 C1826 1.388 . S
C1828 C1829 1.366 . S
C1829 C1828 1.366 . S
C1829 C1830 1.414 . S
C1829 C1832 1.499 . S
C1830 H1810 0.950 . S
C1830 C1829 1.414 . S
C1830 C1831 1.374 . S
C1831 H1811 0.950 . S
C1831 C1827 1.385 . S
C1831 C1830 1.374 . S
C1832 C1829 1.499 . S
C1832 C1833 1.373 . S
C1832 C1834 1.389 . S
C1833 H1812 0.950 . S
C1833 C1832 1.373 . S
C1833 C1849 1.377 1_565 S
C1834 C1832 1.389 . S
C1834 C1835 1.524 . S
C1834 C1848 1.377 1_565 S
C1835 C1834 1.524 . S
C1835 C1836 1.397 . S
C1835 C1840 1.363 . S
C1836 H1813 0.950 . S
C1836 C1835 1.397 . S
C1836 C1837 1.334 . S
C1837 H1814 0.950 . S
C1837 C1836 1.334 . S
C1837 C1838 1.287 1_554 S
C1838 C1837 1.287 1_556 S
C1838 C1839 1.524 . S
C1838 H1857 0.913 . S
C1839 H1815 0.950 . S
C1839 C1838 1.524 . S
C1839 C1840 1.415 1_556 S
C1840 H1816 0.986 . S
C1840 C1835 1.363 . S
C1840 C1839 1.415 1_554 S
C1841 H1817 0.951 . S
C1841 C1842 1.366 . S
C1841 C1843 1.388 . S
C1842 C1841 1.366 . S
C1842 C1846 1.385 . S
C1843 H1818 0.951 . S
C1843 C1841 1.388 . S
C1843 C1844 1.366 . S
C1844 C1843 1.366 . S
C1844 C1845 1.414 . S
C1844 C1847 1.499 . S
C1845 H1819 0.950 . S
C1845 C1844 1.414 . S
C1845 C1846 1.374 . S
C1846 H1820 0.950 . S
C1846 C1842 1.385 . S
C1846 C1845 1.374 . S
C1847 C1844 1.499 . S
C1847 C1848 1.373 . S
C1847 C1849 1.389 . S
C1848 H1821 0.950 . S
C1848 C1834 1.377 1_545 S
C1848 C1847 1.373 . S
C1849 C1833 1.377 1_545 S
C1849 C1847 1.389 . S
C1849 C1850 1.524 . S
C1850 C1849 1.524 . S
C1850 C1851 1.397 . S
C1850 C1855 1.363 . S
C1851 H1822 0.950 . S
C1851 C1850 1.397 . S
C1851 C1852 1.334 . S
C1852 H1823 0.950 . S
C1852 C1851 1.334 . S
C1852 C1853 1.287 . S
C1853 C1852 1.287 . S
C1853 C1854 1.524 . S
C1853 H1856 0.999 . S
C1854 H1824 0.950 . S
C1854 C1853 1.524 . S
C1854 C1855 1.415 . S
C1855 H1825 0.987 . S
C1855 C1850 1.363 . S
C1855 C1854 1.415 . S
H1856 C1853 0.999 . S
H1857 C1838 0.913 . S
H1858 C1876 0.951 . S
H1859 C1878 0.951 . S
H1860 C1880 0.950 . S
H1861 C1881 0.950 . S
H1862 C1883 0.950 . S
H1863 C1886 0.950 . S
H1864 C1887 0.950 . S
H1865 C1889 0.950 . S
H1866 C1890 0.950 . S
H1867 C1891 0.951 . S
H1868 C1893 0.951 . S
H1869 C1895 0.950 . S
H1870 C1896 0.950 . S
H1871 C1898 0.950 . S
H1872 C1901 0.950 . S
H1873 C1902 0.950 . S
H1874 C1904 0.950 . S
H1875 C1905 0.950 . S
C1876 H1858 0.951 . S
C1876 C1877 1.366 . S
C1876 C1878 1.388 . S
C1877 C1876 1.366 . S
C1877 C1881 1.385 . S
C1878 H1859 0.951 . S
C1878 C1876 1.388 . S
C1878 C1879 1.366 . S
C1879 C1878 1.366 . S
C1879 C1880 1.414 . S
C1879 C1882 1.499 . S
C1880 H1860 0.950 . S
C1880 C1879 1.414 . S
C1880 C1881 1.374 . S
C1881 H1861 0.950 . S
C1881 C1877 1.385 . S
C1881 C1880 1.374 . S
C1882 C1879 1.499 . S
C1882 C1883 1.373 . S
C1882 C1884 1.389 . S
C1883 H1862 0.950 . S
C1883 C1882 1.373 . S
C1883 C1899 1.377 . S
C1884 C1882 1.389 . S
C1884 C1885 1.524 . S
C1884 C1898 1.377 . S
C1885 C1884 1.524 . S
C1885 C1886 1.397 . S
C1885 C1890 1.363 . S
C1886 H1863 0.950 . S
C1886 C1885 1.397 . S
C1886 C1887 1.334 . S
C1887 H1864 0.950 . S
C1887 C1886 1.334 . S
C1887 C1888 1.287 . S
C1888 C1887 1.287 . S
C1888 C1889 1.524 . S
C1888 H1907 0.913 . S
C1889 H1865 0.950 . S
C1889 C1888 1.524 . S
C1889 C1890 1.415 . S
C1890 H1866 0.950 . S
C1890 C1885 1.363 . S
C1890 C1889 1.415 . S
C1891 H1867 0.951 . S
C1891 C1892 1.366 . S
C1891 C1893 1.388 . S
C1892 C1891 1.366 . S
C1892 C1896 1.385 . S
C1893 H1868 0.951 . S
C1893 C1891 1.388 . S
C1893 C1894 1.366 . S
C1894 C1893 1.366 . S
C1894 C1895 1.414 . S
C1894 C1897 1.499 . S
C1895 H1869 0.950 . S
C1895 C1894 1.414 . S
C1895 C1896 1.374 . S
C1896 H1870 0.950 . S
C1896 C1892 1.385 . S
C1896 C1895 1.374 . S
C1897 C1894 1.499 . S
C1897 C1898 1.373 . S
C1897 C1899 1.389 . S
C1898 H1871 0.950 . S
C1898 C1884 1.377 . S
C1898 C1897 1.373 . S
C1899 C1883 1.377 . S
C1899 C1897 1.389 . S
C1899 C1900 1.524 . S
C1900 C1899 1.524 . S
C1900 C1901 1.397 . S
C1900 C1905 1.363 . S
C1901 H1872 0.950 . S
C1901 C1900 1.397 . S
C1901 C1902 1.334 . S
C1902 H1873 0.950 . S
C1902 C1901 1.334 . S
C1902 C1903 1.287 . S
C1903 C1902 1.287 . S
C1903 C1904 1.524 . S
C1903 H1906 0.999 . S
C1904 H1874 0.950 . S
C1904 C1903 1.524 . S
C1904 C1905 1.415 . S
C1905 H1875 0.950 . S
C1905 C1900 1.363 . S
C1905 C1904 1.415 . S
H1906 C1903 0.999 . S
H1907 C1888 0.913 . S
C427 C305 1.493 . S
C442 C33 1.493 . S
C477 C67 1.493 . S
C492 C339 1.493 . S
C527 C373 1.493 . S
C542 C101 1.493 . S
C577 C407 1.493 . S
C592 C135 1.493 . S
C627 C169 1.493 . S
C642 C237 1.493 . S
C677 C271 1.493 . S
C692 C203 1.492 . S
C727 C360 1.474 . S
C742 C20 1.474 . S
C777 C394 1.474 . S
C792 C54 1.474 . S
C827 C88 1.474 . S
C842 C224 1.474 . S
C877 C258 1.474 . S
C892 C122 1.474 . S
C927 C292 1.474 . S
C942 C156 1.474 . S
C977 C326 1.474 . S
C992 C190 1.474 . S
C1027 C5 1.482 . S
C1042 C9 1.391 . S
C1077 C39 1.482 . S
C1092 C43 1.392 . S
C1127 C73 1.482 . S
C1142 C77 1.392 . S
C1177 C107 1.481 . S
C1192 C111 1.390 . S
C1227 C145 1.392 . S
C1242 C141 1.482 . S
C1277 C175 1.482 . S
C1292 C179 1.391 . S
C1327 C213 1.390 . S
C1342 C209 1.481 1_556 S
C1377 C243 1.481 1_556 S
C1392 C247 1.390 . S
C1427 C281 1.390 . S
C1442 C277 1.481 1_556 S
C1477 C315 1.390 . S
C1492 C311 1.481 1_556 S
C1527 C345 1.481 1_556 S
C1542 C349 1.391 . S
C1577 C379 1.482 1_556 S
C1592 C383 1.391 . S
C1627 C2 1.475 . S
C1642 C376 1.475 . S
C1677 C206 1.475 . S
C1692 C36 1.475 . S
C1727 C240 1.475 . S
C1742 C70 1.475 . S
C1777 C274 1.474 . S
C1792 C104 1.475 . S
C1827 C138 1.475 . S
C1842 C308 1.474 . S
C1877 C342 1.475 . S
C1892 C172 1.474 . S
