# Generated by pormake.
# Topology noz, (5)-cn, num edge types: 1
# Building blocks:
#     Node 0, Type 0, BuildingBlock: BEQFEK_clean_sbu_0, # of connection points: 5
#     Node 1, Type 0, BuildingBlock: BEQFEK_clean_sbu_0, # of connection points: 5
#     Node 2, Type 0, BuildingBlock: BEQFEK_clean_sbu_0, # of connection points: 5
#     Node 3, Type 0, BuildingBlock: BEQFEK_clean_sbu_0, # of connection points: 5
#     Node 4, Type 0, BuildingBlock: BEQFEK_clean_sbu_0, # of connection points: 5
#     Node 5, Type 0, BuildingBlock: BEQFEK_clean_sbu_0, # of connection points: 5
#     Node 6, Type 0, BuildingBlock: BEQFEK_clean_sbu_0, # of connection points: 5
#     Node 7, Type 0, BuildingBlock: BEQFEK_clean_sbu_0, # of connection points: 5
#     Edge 8, Type (0, 0), BuildingBlock: TEMPAE_clean_linker_10, # of connection points: 2
#     Edge 9, Type (0, 0), BuildingBlock: TEMPAE_clean_linker_10, # of connection points: 2
#     Edge 10, Type (0, 0), BuildingBlock: TEMPAE_clean_linker_10, # of connection points: 2
#     Edge 11, Type (0, 0), BuildingBlock: TEMPAE_clean_linker_10, # of connection points: 2
#     Edge 12, Type (0, 0), BuildingBlock: TEMPAE_clean_linker_10, # of connection points: 2
#     Edge 13, Type (0, 0), BuildingBlock: TEMPAE_clean_linker_10, # of connection points: 2
#     Edge 14, Type (0, 0), BuildingBlock: TEMPAE_clean_linker_10, # of connection points: 2
#     Edge 15, Type (0, 0), BuildingBlock: TEMPAE_clean_linker_10, # of connection points: 2
#     Edge 16, Type (0, 0), BuildingBlock: TEMPAE_clean_linker_10, # of connection points: 2
#     Edge 17, Type (0, 0), BuildingBlock: TEMPAE_clean_linker_10, # of connection points: 2
#     Edge 18, Type (0, 0), BuildingBlock: TEMPAE_clean_linker_10, # of connection points: 2
#     Edge 19, Type (0, 0), BuildingBlock: TEMPAE_clean_linker_10, # of connection points: 2
#     Edge 20, Type (0, 0), BuildingBlock: TEMPAE_clean_linker_10, # of connection points: 2
#     Edge 21, Type (0, 0), BuildingBlock: TEMPAE_clean_linker_10, # of connection points: 2
#     Edge 22, Type (0, 0), BuildingBlock: TEMPAE_clean_linker_10, # of connection points: 2
#     Edge 23, Type (0, 0), BuildingBlock: TEMPAE_clean_linker_10, # of connection points: 2
#     Edge 24, Type (0, 0), BuildingBlock: TEMPAE_clean_linker_10, # of connection points: 2
#     Edge 25, Type (0, 0), BuildingBlock: TEMPAE_clean_linker_10, # of connection points: 2
#     Edge 26, Type (0, 0), BuildingBlock: TEMPAE_clean_linker_10, # of connection points: 2
#     Edge 27, Type (0, 0), BuildingBlock: TEMPAE_clean_linker_10, # of connection points: 2
# Relax obj value: 0.089
# Max RMSD: 0.172
# Mean RMSD: 0.118
data_MOF--net-noz--node1-BEQFEK_clean_sbu_0--edge1-TEMPAE_clean_linker_10
_symmetry_space_group_name_H-M    P1
_symmetry_Int_Tables_number       1
_symmetry_cell_setting            triclinic
loop_
_symmetry_equiv_pos_as_xyz
'x, y, z'
_cell_length_a     24.766303
_cell_length_b     43.950543
_cell_length_c     43.70886
_cell_angle_alpha  88.795238
_cell_angle_beta   95.942008
_cell_angle_gamma 82.900324
loop_
_atom_site_label
_atom_site_type_symbol
_atom_site_fract_x
_atom_site_fract_y
_atom_site_fract_z
_atom_type_partial_charge
Co0 Co 0.11895 0.36486 0.37496 0.0
Co1 Co 0.03011 0.34681 0.41607 0.0
C2 C 0.14377 0.31573 0.42637 0.0
O3 O 0.15794 0.3326 0.40523 0.0
O4 O 0.09444 0.31768 0.43274 0.0
C5 C 0.1952 0.34954 0.33117 0.0
O6 O 0.19107 0.32154 0.34099 0.0
C7 C 0.95063 0.31452 0.44607 0.0
C8 C 0.88511 0.35298 0.44946 0.0
C9 C 0.89859 0.32172 0.45507 0.0
N10 N 0.96683 0.34042 0.43531 0.0
N11 N 0.92784 0.36335 0.43788 0.0
C12 C 0.98219 0.28335 0.44487 0.0
H13 H 0.00997 0.28297 0.42647 0.0
H14 H 0.95409 0.26569 0.44083 0.0
H15 H 0.00739 0.27778 0.46723 0.0
C16 C 0.03051 0.35389 0.32578 0.0
N17 N 0.05203 0.35313 0.35553 0.0
N18 N 0.01585 0.34462 0.37294 0.0
C19 C 0.97066 0.33944 0.35487 0.0
C20 C 0.97834 0.34517 0.3245 0.0
C21 C 0.0573 0.36535 0.29944 0.0
H22 H 0.07548 0.38647 0.30585 0.0
H23 H 0.09079 0.34768 0.29422 0.0
H24 H 0.02775 0.37015 0.2785 0.0
O25 O 0.10464 0.40328 0.39768 0.0
O26 O 0.04262 0.38896 0.42641 0.0
H27 H 0.89934 0.35028 0.37814 0.0
H28 H 0.89059 0.32417 0.34728 0.0
C29 C 0.91968 0.33065 0.36636 0.0
H30 H 0.93034 0.31094 0.383 0.0
H31 H 0.92969 0.38597 0.43073 0.0
O32 O 0.16808 0.37202 0.34288 0.0
C33 C 0.07183 0.40881 0.41805 0.0
Co34 Co 0.49482 0.63412 0.87707 0.0
Co35 Co 0.59383 0.64735 0.92432 0.0
C36 C 0.48643 0.68757 0.91863 0.0
O37 O 0.46676 0.67125 0.89764 0.0
O38 O 0.53563 0.68129 0.93081 0.0
C39 C 0.41322 0.65184 0.82769 0.0
O40 O 0.42802 0.67886 0.83421 0.0
C41 C 0.68237 0.68017 0.95355 0.0
C42 C 0.7316 0.64295 0.98264 0.0
C43 C 0.72838 0.67396 0.97504 0.0
N44 N 0.65993 0.65402 0.94884 0.0
N45 N 0.68981 0.63188 0.9662 0.0
C46 C 0.65815 0.71058 0.93894 0.0
H47 H 0.6154 0.71002 0.92899 0.0
H48 H 0.682 0.71619 0.91991 0.0
H49 H 0.65977 0.72888 0.95602 0.0
C50 C 0.58065 0.63411 0.83423 0.0
N51 N 0.5635 0.63793 0.86234 0.0
N52 N 0.60514 0.64296 0.88203 0.0
C53 C 0.6504 0.64193 0.86715 0.0
C54 C 0.63646 0.63636 0.83627 0.0
C55 C 0.54352 0.6293 0.80594 0.0
H56 H 0.52424 0.60814 0.80918 0.0
H57 H 0.51056 0.64889 0.80245 0.0
H58 H 0.56513 0.62781 0.78497 0.0
O59 O 0.5011 0.5993 0.90758 0.0
O60 O 0.57036 0.60935 0.94078 0.0
H61 H 0.71294 0.62833 0.90417 0.0
H62 H 0.73889 0.63516 0.86801 0.0
C63 C 0.70671 0.64308 0.88291 0.0
H64 H 0.71094 0.66697 0.88948 0.0
H65 H 0.68109 0.60928 0.96724 0.0
O66 O 0.43783 0.62824 0.84288 0.0
C67 C 0.53299 0.59287 0.93232 0.0
Co68 Co 0.05274 0.65774 0.56347 0.0
Co69 Co 0.97866 0.62211 0.60171 0.0
C70 C 0.93355 0.67749 0.56022 0.0
O71 O 0.98074 0.68229 0.55379 0.0
O72 O 0.92715 0.65491 0.57767 0.0
C73 C 0.10625 0.70802 0.54602 0.0
O74 O 0.06862 0.7236 0.5606 0.0
C75 C 0.90347 0.61981 0.64861 0.0
C76 C 0.9122 0.57055 0.66189 0.0
C77 C 0.88607 0.59901 0.66855 0.0
N78 N 0.93823 0.60443 0.631 0.0
N79 N 0.94284 0.57492 0.63879 0.0
C80 C 0.89148 0.65404 0.64812 0.0
H81 H 0.92582 0.66463 0.63967 0.0
H82 H 0.88435 0.66226 0.67138 0.0
H83 H 0.854 0.66128 0.63219 0.0
C84 C 0.11659 0.65771 0.62481 0.0
N85 N 0.07197 0.65203 0.60651 0.0
N86 N 0.04103 0.63714 0.62268 0.0
C87 C 0.06533 0.63265 0.65182 0.0
C88 C 0.11403 0.64552 0.65411 0.0
C89 C 0.1608 0.67449 0.61429 0.0
H90 H 0.17738 0.66301 0.59428 0.0
H91 H 0.1431 0.69821 0.60697 0.0
H92 H 0.19449 0.67596 0.63274 0.0
O93 O 0.05142 0.61749 0.54391 0.0
O94 O 1.00386 0.59054 0.5727 0.0
H95 H 0.03755 0.59099 0.66615 0.0
H96 H 0.07604 0.60879 0.69647 0.0
C97 C 0.04568 0.61325 0.67588 0.0
H98 H 1.00693 0.62501 0.68295 0.0
H99 H 0.96807 0.55789 0.62895 0.0
O100 O 0.10728 0.67914 0.54443 0.0
C101 C 0.03186 0.59284 0.55004 0.0
Co102 Co 0.50492 0.36517 0.11716 0.0
Co103 Co 0.59095 0.34204 0.07207 0.0
C104 C 0.49183 0.31198 0.07352 0.0
O105 O 0.47538 0.33107 0.09325 0.0
O106 O 0.53827 0.31236 0.06351 0.0
C107 C 0.40878 0.37156 0.14892 0.0
O108 O 0.38463 0.3678 0.12129 0.0
C109 C 0.67502 0.31213 0.03435 0.0
C110 C 0.72152 0.35122 0.02784 0.0
C111 C 0.71957 0.3208 0.02087 0.0
N112 N 0.65238 0.33634 0.04895 0.0
N113 N 0.68026 0.35959 0.04479 0.0
C114 C 0.65235 0.28214 0.03204 0.0
H115 H 0.60718 0.28591 0.03103 0.0
H116 H 0.66835 0.26757 0.05284 0.0
H117 H 0.66406 0.26995 0.01129 0.0
C118 C 0.60652 0.35578 0.16137 0.0
N119 N 0.57956 0.35366 0.13319 0.0
N120 N 0.6148 0.34272 0.11438 0.0
C121 C 0.665 0.33714 0.12998 0.0
C122 C 0.66171 0.34551 0.16021 0.0
C123 C 0.58045 0.36978 0.18801 0.0
H124 H 0.552 0.39057 0.17997 0.0
H125 H 0.55614 0.35313 0.19784 0.0
H126 H 0.61146 0.37593 0.20623 0.0
O127 O 0.4978 0.40286 0.08967 0.0
O128 O 0.5554 0.3828 0.05783 0.0
H129 H 0.73144 0.34232 0.1036 0.0
H130 H 0.74754 0.3136 0.13431 0.0
C131 C 0.71527 0.32389 0.11624 0.0
H132 H 0.70505 0.30602 0.09986 0.0
H133 H 0.67109 0.38127 0.05364 0.0
O134 O 0.46021 0.37231 0.15231 0.0
C135 C 0.52177 0.40484 0.06537 0.0
Co136 Co 0.60848 0.85674 0.3773 0.0
Co137 Co 0.519 0.84534 0.42121 0.0
C138 C 0.63088 0.81029 0.43059 0.0
O139 O 0.64554 0.82353 0.40708 0.0
O140 O 0.58293 0.81653 0.43874 0.0
C141 C 0.70658 0.86194 0.34742 0.0
O142 O 0.73078 0.86059 0.37571 0.0
C143 C 0.43895 0.81578 0.45337 0.0
C144 C 0.37673 0.8556 0.45797 0.0
C145 C 0.38801 0.82421 0.46339 0.0
N146 N 0.45659 0.84109 0.44221 0.0
N147 N 0.41964 0.86486 0.44555 0.0
C148 C 0.46773 0.78402 0.45135 0.0
H149 H 0.49554 0.78321 0.43296 0.0
H150 H 0.43775 0.76741 0.44684 0.0
H151 H 0.49254 0.77728 0.47362 0.0
C152 C 0.51634 0.84674 0.33059 0.0
N153 N 0.53904 0.84688 0.36002 0.0
N154 N 0.50247 0.84112 0.37847 0.0
C155 C 0.45553 0.83715 0.36138 0.0
C156 C 0.46263 0.84069 0.33057 0.0
C157 C 0.54401 0.85511 0.30333 0.0
H158 H 0.55875 0.87777 0.30673 0.0
H159 H 0.58026 0.83795 0.30151 0.0
H160 H 0.51614 0.85597 0.28167 0.0
O161 O 0.59982 0.89638 0.3994 0.0
O162 O 0.53466 0.88721 0.42848 0.0
H163 H 0.38731 0.85215 0.38592 0.0
H164 H 0.37232 0.82594 0.3559 0.0
C165 C 0.40379 0.83145 0.37419 0.0
H166 H 0.41255 0.81196 0.39115 0.0
H167 H 0.42281 0.88727 0.43825 0.0
O168 O 0.65525 0.86088 0.34315 0.0
C169 C 0.56698 0.9048 0.41915 0.0
Co170 Co 1.00234 0.13093 0.87379 0.0
Co171 Co 0.09967 0.14696 0.92118 0.0
C172 C 0.99198 0.18633 0.91314 0.0
O173 O 0.97331 0.16896 0.89281 0.0
O174 O 0.04091 0.18084 0.92588 0.0
C175 C 0.9274 0.14741 0.82133 0.0
O176 O 0.94756 0.17347 0.82559 0.0
C177 C 0.18667 0.17988 0.95353 0.0
C178 C 0.24183 0.14071 0.97619 0.0
C179 C 0.23522 0.17241 0.97279 0.0
N180 N 0.16608 0.15372 0.94579 0.0
N181 N 0.19946 0.13047 0.95945 0.0
C182 C 0.15924 0.21137 0.94373 0.0
H183 H 0.11498 0.21136 0.93732 0.0
H184 H 0.17717 0.21941 0.92325 0.0
H185 H 0.16555 0.2277 0.9624 0.0
C186 C 0.0898 0.12978 0.83186 0.0
N187 N 0.07154 0.13428 0.85963 0.0
N188 N 0.11177 0.14158 0.87912 0.0
C189 C 0.15675 0.14215 0.86424 0.0
C190 C 0.14433 0.13473 0.83378 0.0
C191 C 0.05685 0.11869 0.80465 0.0
H192 H 0.02977 0.10242 0.81231 0.0
H193 H 0.03101 0.13858 0.79241 0.0
H194 H 0.08365 0.10721 0.78837 0.0
O195 O 0.00777 0.09736 0.9054 0.0
O196 O 0.07541 0.10936 0.93867 0.0
H197 H 0.22848 0.13228 0.8962 0.0
H198 H 0.23926 0.15308 0.86163 0.0
C199 C 0.21013 0.15039 0.87883 0.0
H200 H 0.20283 0.17225 0.89081 0.0
H201 H 0.193 0.10754 0.95756 0.0
O202 O 0.94617 0.12453 0.83928 0.0
C203 C 0.03871 0.09227 0.93064 0.0
Co204 Co 0.56495 0.15626 0.55775 0.0
Co205 Co 0.48621 0.12501 0.59692 0.0
C206 C 0.44574 0.17832 0.55221 0.0
O207 O 0.49345 0.18007 0.54464 0.0
O208 O 0.43712 0.15862 0.57234 0.0
C209 C 0.62003 0.20518 0.53959 0.0
O210 O 0.58209 0.22124 0.55356 0.0
C211 C 0.4146 0.12442 0.64654 0.0
C212 C 0.40625 0.0752 0.65182 0.0
C213 C 0.39033 0.10367 0.66346 0.0
N214 N 0.4438 0.10884 0.62626 0.0
N215 N 0.43854 0.07943 0.62953 0.0
C216 C 0.40836 0.15864 0.6484 0.0
H217 H 0.41857 0.16946 0.627 0.0
H218 H 0.43695 0.16518 0.66766 0.0
H219 H 0.36598 0.16755 0.65269 0.0
C220 C 0.62728 0.15744 0.61939 0.0
N221 N 0.58194 0.15256 0.60123 0.0
N222 N 0.54985 0.13882 0.6177 0.0
C223 C 0.5743 0.1341 0.64681 0.0
C224 C 0.62408 0.14583 0.64885 0.0
C225 C 0.6733 0.17238 0.60845 0.0
H226 H 0.68928 0.15967 0.58895 0.0
H227 H 0.65764 0.19615 0.60025 0.0
H228 H 0.70706 0.1736 0.62693 0.0
O229 O 0.56388 0.11541 0.5404 0.0
O230 O 0.50978 0.09205 0.56833 0.0
H231 H 0.5388 0.09452 0.6605 0.0
H232 H 0.58723 0.10722 0.68968 0.0
C233 C 0.55432 0.11493 0.67096 0.0
H234 H 0.52036 0.12862 0.68108 0.0
H235 H 0.45697 0.06224 0.61652 0.0
O236 O 0.62083 0.17628 0.53863 0.0
C237 C 0.5406 0.09213 0.54663 0.0
Co238 Co 0.99301 0.8693 0.11882 0.0
Co239 Co 0.0823 0.84453 0.0759 0.0
C240 C 0.98077 0.81658 0.07429 0.0
O241 O 0.96345 0.83602 0.0935 0.0
O242 O 0.02849 0.81598 0.06571 0.0
C243 C 0.9335 0.85361 0.16726 0.0
O244 O 0.95394 0.82624 0.15932 0.0
C245 C 0.16894 0.81368 0.04012 0.0
C246 C 0.21759 0.85216 0.03543 0.0
C247 C 0.21512 0.8219 0.02796 0.0
N248 N 0.14588 0.83799 0.05446 0.0
N249 N 0.17513 0.86086 0.0514 0.0
C250 C 0.1453 0.78405 0.0368 0.0
H251 H 0.16081 0.76881 0.05719 0.0
H252 H 0.15695 0.77239 0.01574 0.0
H253 H 0.10013 0.78816 0.0357 0.0
C254 C 0.09195 0.85798 0.16521 0.0
N255 N 0.06646 0.85632 0.13656 0.0
N256 N 0.10259 0.84461 0.11857 0.0
C257 C 0.15168 0.83801 0.13516 0.0
C258 C 0.14686 0.84653 0.16516 0.0
C259 C 0.06537 0.8727 0.19134 0.0
H260 H 0.03518 0.89255 0.18263 0.0
H261 H 0.04333 0.85577 0.20252 0.0
H262 H 0.09615 0.8804 0.2088 0.0
O263 O 0.99052 0.90709 0.0917 0.0
O264 O 0.04996 0.88576 0.06152 0.0
H265 H 0.22074 0.84196 0.11049 0.0
H266 H 0.23319 0.81312 0.14116 0.0
C267 C 0.20253 0.82391 0.12252 0.0
H268 H 0.19241 0.80628 0.10584 0.0
H269 H 0.166 0.88252 0.06028 0.0
O270 O 0.94476 0.87701 0.15267 0.0
C271 C 0.01699 0.90847 0.06827 0.0
C272 C 0.25734 0.32962 0.29242 0.0
C273 C 0.22847 0.35464 0.30558 0.0
C274 C 0.28738 0.33383 0.26747 0.0
C275 C 0.28872 0.36382 0.2553 0.0
C276 C 0.2603 0.38923 0.26871 0.0
C277 C 0.23049 0.38435 0.29368 0.0
C278 C 0.3171 0.30611 0.25382 0.0
C279 C 0.26078 0.42155 0.25642 0.0
C280 C 0.40353 0.37399 0.2059 0.0
C281 C 0.37727 0.37213 0.17607 0.0
C282 C 0.3749 0.37214 0.23189 0.0
C283 C 0.31868 0.36832 0.22799 0.0
C284 C 0.2916 0.36733 0.19793 0.0
C285 C 0.32118 0.36926 0.17237 0.0
C286 C 0.4052 0.37342 0.26354 0.0
C287 C 0.23168 0.36333 0.19277 0.0
H288 H 0.25611 0.30658 0.30144 0.0
H289 H 0.20831 0.40383 0.30366 0.0
H290 H 0.30065 0.30438 0.22942 0.0
H291 H 0.36121 0.30855 0.25416 0.0
H292 H 0.3131 0.28442 0.26641 0.0
H293 H 0.23814 0.43891 0.27005 0.0
H294 H 0.30353 0.42671 0.25655 0.0
H295 H 0.242 0.42383 0.23218 0.0
H296 H 0.44682 0.37628 0.20903 0.0
H297 H 0.30044 0.36787 0.14945 0.0
H298 H 0.40602 0.35121 0.27624 0.0
H299 H 0.38369 0.3914 0.27692 0.0
H300 H 0.448 0.37824 0.26263 0.0
H301 H 0.22523 0.34077 0.20267 0.0
H302 H 0.21601 0.36456 0.16796 0.0
H303 H 0.20704 0.38125 0.20473 0.0
C304 C 0.35157 0.67377 0.78164 0.0
C305 C 0.36918 0.64912 0.80266 0.0
C306 C 0.30953 0.67191 0.75792 0.0
C307 C 0.28386 0.6449 0.7554 0.0
C308 C 0.30121 0.61996 0.77663 0.0
C309 C 0.34401 0.62227 0.79989 0.0
C310 C 0.29279 0.69883 0.73544 0.0
C311 C 0.27434 0.59093 0.77487 0.0
C312 C 0.14368 0.65418 0.7093 0.0
C313 C 0.15666 0.64357 0.68067 0.0
C314 C 0.18443 0.65377 0.73423 0.0
C315 C 0.23939 0.64278 0.73019 0.0
C316 C 0.25232 0.63129 0.70146 0.0
C317 C 0.21062 0.63154 0.67713 0.0
C318 C 0.16892 0.66581 0.76464 0.0
C319 C 0.31041 0.61959 0.69613 0.0
H320 H 0.37101 0.69454 0.78353 0.0
H321 H 0.35723 0.60321 0.81618 0.0
H322 H 0.29771 0.69145 0.71165 0.0
H323 H 0.24894 0.70745 0.73619 0.0
H324 H 0.31729 0.71803 0.74038 0.0
H325 H 0.29196 0.57385 0.79346 0.0
H326 H 0.22981 0.5964 0.77653 0.0
H327 H 0.27905 0.58034 0.75233 0.0
H328 H 0.1018 0.66335 0.71198 0.0
H329 H 0.22033 0.62277 0.65508 0.0
H330 H 0.18813 0.68689 0.76976 0.0
H331 H 0.18449 0.64868 0.78349 0.0
H332 H 0.12392 0.67131 0.76468 0.0
H333 H 0.33627 0.63844 0.69899 0.0
H334 H 0.31326 0.61045 0.67276 0.0
H335 H 0.32772 0.6012 0.71342 0.0
C336 C 0.86528 0.59187 0.72266 0.0
C337 C 0.85007 0.60536 0.69323 0.0
C338 C 0.83176 0.59767 0.74645 0.0
C339 C 0.78109 0.61669 0.74036 0.0
C340 C 0.76533 0.63011 0.7105 0.0
C341 C 0.80032 0.62451 0.68736 0.0
C342 C 0.85062 0.58348 0.77812 0.0
C343 C 0.71107 0.64989 0.70287 0.0
C344 C 0.6721 0.60575 0.79336 0.0
C345 C 0.67352 0.63144 0.81174 0.0
C346 C 0.70621 0.60096 0.76974 0.0
C347 C 0.74395 0.62188 0.765 0.0
C348 C 0.74635 0.64756 0.78394 0.0
C349 C 0.71065 0.6522 0.80688 0.0
C350 C 0.70172 0.57356 0.74979 0.0
C351 C 0.78679 0.67002 0.78007 0.0
H352 H 0.90391 0.57714 0.72719 0.0
H353 H 0.78819 0.63454 0.66443 0.0
H354 H 0.85083 0.60162 0.7954 0.0
H355 H 0.82175 0.56768 0.78459 0.0
H356 H 0.89225 0.57047 0.77942 0.0
H357 H 0.70494 0.65862 0.67856 0.0
H358 H 0.6772 0.6365 0.70701 0.0
H359 H 0.70822 0.66975 0.71811 0.0
H360 H 0.64425 0.5893 0.79753 0.0
H361 H 0.7117 0.67212 0.82105 0.0
H362 H 0.74101 0.55814 0.75242 0.0
H363 H 0.69349 0.58119 0.7252 0.0
H364 H 0.66868 0.56023 0.75563 0.0
H365 H 0.82902 0.65774 0.78242 0.0
H366 H 0.78452 0.6883 0.79723 0.0
H367 H 0.77904 0.68096 0.75667 0.0
C368 C 0.7088 0.33238 0.21313 0.0
C369 C 0.70803 0.3468 0.18422 0.0
C370 C 0.75398 0.33237 0.23544 0.0
C371 C 0.79899 0.34743 0.22866 0.0
C372 C 0.79784 0.36243 0.19958 0.0
C373 C 0.75241 0.36184 0.17768 0.0
C374 C 0.75382 0.31598 0.26612 0.0
C375 C 0.84455 0.37912 0.19162 0.0
C376 C 0.89146 0.37059 0.29674 0.0
C377 C 0.93575 0.34734 0.29808 0.0
C378 C 0.84721 0.37128 0.27384 0.0
C379 C 0.84702 0.34782 0.25212 0.0
C380 C 0.89233 0.32454 0.25314 0.0
C381 C 0.93647 0.32469 0.27611 0.0
C382 C 0.80018 0.39673 0.27328 0.0
C383 C 0.89343 0.29901 0.23056 0.0
H384 H 0.6745 0.32063 0.21803 0.0
H385 H 0.75142 0.37329 0.15538 0.0
H386 H 0.78951 0.29789 0.26996 0.0
H387 H 0.75782 0.33233 0.28497 0.0
H388 H 0.71587 0.30521 0.26769 0.0
H389 H 0.83709 0.38981 0.16805 0.0
H390 H 0.85103 0.39731 0.20833 0.0
H391 H 0.88296 0.36297 0.19327 0.0
H392 H 0.89113 0.38795 0.31402 0.0
H393 H 0.97067 0.30658 0.27755 0.0
H394 H 0.76227 0.38701 0.27752 0.0
H395 H 0.79262 0.40852 0.25026 0.0
H396 H 0.8079 0.414 0.29088 0.0
H397 H 0.85876 0.28571 0.23305 0.0
H398 H 0.93219 0.28308 0.23402 0.0
H399 H 0.88821 0.30869 0.20664 0.0
C400 C 0.79611 0.86279 0.32539 0.0
C401 C 0.739 0.86358 0.32074 0.0
C402 C 0.82755 0.86297 0.3004 0.0
C403 C 0.80137 0.86403 0.26993 0.0
C404 C 0.74364 0.86556 0.26507 0.0
C405 C 0.71319 0.86528 0.29048 0.0
C406 C 0.88899 0.86128 0.30661 0.0
C407 C 0.71409 0.86676 0.23298 0.0
C408 C 0.88042 0.88564 0.2039 0.0
C409 C 0.89903 0.85673 0.1932 0.0
C410 C 0.84844 0.88845 0.22877 0.0
C411 C 0.83464 0.86173 0.24325 0.0
C412 C 0.85308 0.83254 0.23242 0.0
C413 C 0.885 0.8304 0.20763 0.0
C414 C 0.82967 0.91998 0.23968 0.0
C415 C 0.83927 0.80346 0.24712 0.0
H416 H 0.8165 0.86154 0.34863 0.0
H417 H 0.6691 0.86605 0.28659 0.0
H418 H 0.90863 0.83961 0.29781 0.0
H419 H 0.90363 0.88046 0.29426 0.0
H420 H 0.90286 0.86219 0.33154 0.0
H421 H 0.6689 0.86954 0.23306 0.0
H422 H 0.72536 0.88608 0.21925 0.0
H423 H 0.72671 0.84534 0.22119 0.0
H424 H 0.89111 0.90611 0.19297 0.0
H425 H 0.89901 0.80794 0.19957 0.0
H426 H 0.84582 0.92193 0.2641 0.0
H427 H 0.78436 0.92363 0.23851 0.0
H428 H 0.8433 0.93849 0.22579 0.0
H429 H 0.85554 0.80178 0.2718 0.0
H430 H 0.85631 0.78255 0.23579 0.0
H431 H 0.79421 0.80394 0.24599 0.0
C432 C 0.65543 0.15432 0.70386 0.0
C433 C 0.66714 0.14301 0.67527 0.0
C434 C 0.69677 0.15332 0.72859 0.0
C435 C 0.75096 0.14076 0.72447 0.0
C436 C 0.76242 0.12837 0.69585 0.0
C437 C 0.72023 0.12946 0.67167 0.0
C438 C 0.68279 0.16649 0.75882 0.0
C439 C 0.81957 0.11479 0.69048 0.0
C440 C 0.86759 0.16941 0.77454 0.0
C441 C 0.88294 0.14517 0.79632 0.0
C442 C 0.82481 0.16819 0.75108 0.0
C443 C 0.79628 0.14217 0.74942 0.0
C444 C 0.81154 0.11758 0.77129 0.0
C445 C 0.85488 0.1193 0.79441 0.0
C446 C 0.81018 0.19477 0.72802 0.0
C447 C 0.78187 0.08955 0.77035 0.0
H448 H 0.61419 0.16459 0.70663 0.0
H449 H 0.72889 0.1201 0.64969 0.0
H450 H 0.69705 0.14948 0.77796 0.0
H451 H 0.70423 0.18691 0.76342 0.0
H452 H 0.63813 0.17339 0.75896 0.0
H453 H 0.82113 0.10487 0.66738 0.0
H454 H 0.8473 0.1328 0.69261 0.0
H455 H 0.8356 0.09658 0.70821 0.0
H456 H 0.88911 0.18945 0.77575 0.0
H457 H 0.86633 0.10052 0.81122 0.0
H458 H 0.76692 0.20466 0.72874 0.0
H459 H 0.81416 0.18663 0.7044 0.0
H460 H 0.83659 0.21322 0.73239 0.0
H461 H 0.73772 0.09636 0.77225 0.0
H462 H 0.79843 0.07251 0.78918 0.0
H463 H 0.78508 0.07836 0.74799 0.0
C464 C 0.16594 0.14667 0.78062 0.0
C465 C 0.18123 0.13129 0.80917 0.0
C466 C 0.19989 0.14308 0.75678 0.0
C467 C 0.25005 0.12342 0.76159 0.0
C468 C 0.26564 0.10788 0.79049 0.0
C469 C 0.23102 0.11206 0.81396 0.0
C470 C 0.18202 0.16023 0.72642 0.0
C471 C 0.31851 0.08652 0.79647 0.0
C472 C 0.31296 0.09067 0.69164 0.0
C473 C 0.35412 0.10938 0.68837 0.0
C474 C 0.27874 0.09504 0.71528 0.0
C475 C 0.28582 0.1187 0.73625 0.0
C476 C 0.32747 0.13757 0.73321 0.0
C477 C 0.36146 0.13247 0.70952 0.0
C478 C 0.23511 0.07425 0.71789 0.0
C479 C 0.33644 0.16299 0.75516 0.0
H480 H 0.12744 0.16162 0.77702 0.0
H481 H 0.24241 0.09988 0.83596 0.0
H482 H 0.21354 0.17473 0.72083 0.0
H483 H 0.17783 0.14373 0.70772 0.0
H484 H 0.14237 0.1751 0.7266 0.0
H485 H 0.32503 0.07656 0.82034 0.0
H486 H 0.31845 0.0675 0.78017 0.0
H487 H 0.35363 0.09895 0.79249 0.0
H488 H 0.30727 0.07262 0.67553 0.0
H489 H 0.39455 0.14617 0.70816 0.0
H490 H 0.19419 0.08804 0.71609 0.0
H491 H 0.24157 0.06213 0.74075 0.0
H492 H 0.23497 0.05689 0.69978 0.0
H493 H 0.29806 0.17895 0.75526 0.0
H494 H 0.36935 0.17629 0.74906 0.0
H495 H 0.34748 0.15324 0.77892 0.0
C496 C 0.19184 0.8322 0.2182 0.0
C497 C 0.19214 0.84738 0.18979 0.0
C498 C 0.23668 0.83126 0.24086 0.0
C499 C 0.28223 0.84628 0.23497 0.0
C500 C 0.28192 0.86224 0.20648 0.0
C501 C 0.23693 0.86245 0.18417 0.0
C502 C 0.23575 0.81383 0.27089 0.0
C503 C 0.32915 0.87901 0.19953 0.0
C504 C 0.37509 0.86669 0.30406 0.0
C505 C 0.41911 0.84335 0.30461 0.0
C506 C 0.33063 0.86819 0.28123 0.0
C507 C 0.33006 0.84554 0.25868 0.0
C508 C 0.37506 0.82217 0.25891 0.0
C509 C 0.41939 0.82147 0.28186 0.0
C510 C 0.28395 0.89374 0.28149 0.0
C511 C 0.37573 0.79752 0.23537 0.0
H512 H 0.15713 0.82047 0.22235 0.0
H513 H 0.23669 0.87444 0.16221 0.0
H514 H 0.27097 0.79541 0.2742 0.0
H515 H 0.24006 0.82939 0.2904 0.0
H516 H 0.19737 0.80331 0.27181 0.0
H517 H 0.32202 0.89078 0.17646 0.0
H518 H 0.33605 0.89633 0.21715 0.0
H519 H 0.36722 0.86265 0.20056 0.0
H520 H 0.37525 0.88356 0.32181 0.0
H521 H 0.4535 0.80336 0.28261 0.0
H522 H 0.2457 0.88401 0.28495 0.0
H523 H 0.27697 0.90653 0.25898 0.0
H524 H 0.29171 0.91016 0.29994 0.0
H525 H 0.34047 0.78447 0.23703 0.0
H526 H 0.41404 0.7812 0.23851 0.0
H527 H 0.37126 0.80806 0.21181 0.0
C528 C 0.04567 0.53649 0.54159 0.0
C529 C 0.04086 0.56667 0.52976 0.0
C530 C 0.05403 0.51153 0.52237 0.0
C531 C 0.05574 0.51698 0.49043 0.0
C532 C 0.05071 0.54745 0.47838 0.0
C533 C 0.04418 0.57194 0.4983 0.0
C534 C 0.06062 0.47934 0.5362 0.0
C535 C 0.05054 0.5542 0.44435 0.0
C536 C 0.11495 0.45152 0.44344 0.0
C537 C 0.06783 0.4384 0.43337 0.0
C538 C 0.11173 0.47737 0.46189 0.0
C539 C 0.05998 0.49077 0.46949 0.0
C540 C 0.01208 0.47841 0.45798 0.0
C541 C 0.01671 0.45204 0.4405 0.0
C542 C 0.16379 0.48945 0.47438 0.0
C543 C 0.956 0.49257 0.46472 0.0
H544 H 0.04358 0.53241 0.56597 0.0
H545 H 0.04002 0.59531 0.48907 0.0
H546 H 0.02572 0.46739 0.52711 0.0
H547 H 0.09847 0.46606 0.52957 0.0
H548 H 0.06258 0.47905 0.56172 0.0
H549 H 0.04718 0.57918 0.43875 0.0
H550 H 0.08849 0.54276 0.43604 0.0
H551 H 0.01562 0.54483 0.43146 0.0
H552 H 0.15452 0.44066 0.43821 0.0
H553 H 0.98025 0.44187 0.43256 0.0
H554 H 0.16892 0.48694 0.49988 0.0
H555 H 0.16154 0.51426 0.46842 0.0
H556 H 0.20052 0.47716 0.46542 0.0
H557 H 0.95223 0.49001 0.48968 0.0
H558 H 0.92271 0.48178 0.45182 0.0
H559 H 0.95008 0.5175 0.45871 0.0
C560 C 0.4802 0.55028 0.94632 0.0
C561 C 0.52536 0.56646 0.95245 0.0
C562 C 0.47258 0.52543 0.96548 0.0
C563 C 0.51125 0.51642 0.99122 0.0
C564 C 0.55622 0.53306 0.9979 0.0
C565 C 0.56266 0.55787 0.9785 0.0
C566 C 0.42404 0.50829 0.95769 0.0
C567 C 0.5987 0.52399 0.02494 0.0
C568 C 0.485 0.46064 0.05442 0.0
C569 C 0.51357 0.43324 0.04556 0.0
C570 C 0.48209 0.4879 0.03641 0.0
C571 C 0.50851 0.48759 0.00912 0.0
C572 C 0.53568 0.45978 0.99962 0.0
C573 C 0.53767 0.43305 0.01781 0.0
C574 C 0.45232 0.51716 0.04705 0.0
C575 C 0.56455 0.45839 0.97074 0.0
H576 H 0.4508 0.55692 0.92646 0.0
H577 H 0.59754 0.57029 0.98359 0.0
H578 H 0.43834 0.48486 0.95052 0.0
H579 H 0.40197 0.50577 0.97825 0.0
H580 H 0.39488 0.51999 0.9388 0.0
H581 H 0.62896 0.54061 0.0283 0.0
H582 H 0.57874 0.52219 0.04637 0.0
H583 H 0.62099 0.50107 0.02131 0.0
H584 H 0.46617 0.461 0.07573 0.0
H585 H 0.55946 0.412 0.01047 0.0
H586 H 0.42291 0.5284 0.02807 0.0
H587 H 0.48209 0.53341 0.0536 0.0
H588 H 0.42978 0.51308 0.06714 0.0
H589 H 0.53586 0.46773 0.95062 0.0
H590 H 0.5818 0.43464 0.96589 0.0
H591 H 0.59844 0.47277 0.9731 0.0
C592 C 0.54928 0.03548 0.53931 0.0
C593 C 0.548 0.06528 0.52707 0.0
C594 C 0.5566 0.01001 0.5206 0.0
C595 C 0.5608 0.01462 0.48877 0.0
C596 C 0.55932 0.04472 0.47634 0.0
C597 C 0.55377 0.06965 0.49575 0.0
C598 C 0.55929 0.97818 0.53482 0.0
C599 C 0.56176 0.05068 0.44238 0.0
C600 C 0.61492 0.94647 0.44344 0.0
C601 C 0.56622 0.93516 0.43283 0.0
C602 C 0.61396 0.97266 0.46143 0.0
C603 C 0.56303 0.98811 0.46816 0.0
C604 C 0.51374 0.97762 0.45595 0.0
C605 C 0.516 0.95104 0.43882 0.0
C606 C 0.66734 0.98286 0.47452 0.0
C607 C 0.45856 0.99392 0.46178 0.0
H608 H 0.54529 0.03209 0.56358 0.0
H609 H 0.55232 0.09275 0.4862 0.0
H610 H 0.52328 0.96733 0.52536 0.0
H611 H 0.59637 0.96359 0.52892 0.0
H612 H 0.56006 0.97839 0.56027 0.0
H613 H 0.56165 0.07541 0.43653 0.0
H614 H 0.59909 0.03769 0.43485 0.0
H615 H 0.52605 0.04251 0.42903 0.0
H616 H 0.65374 0.93389 0.43914 0.0
H617 H 0.47832 0.94224 0.43053 0.0
H618 H 0.67146 0.98027 0.5 0.0
H619 H 0.66798 0.00749 0.46872 0.0
H620 H 0.70326 0.96937 0.46588 0.0
H621 H 0.45335 0.99191 0.48662 0.0
H622 H 0.42426 0.98432 0.44848 0.0
H623 H 0.45581 0.01872 0.45561 0.0
C624 C 0.98211 0.96434 0.05558 0.0
C625 C 0.01238 0.93677 0.04845 0.0
C626 C 0.98132 0.99122 0.03725 0.0
C627 C 0.01161 0.99037 0.01139 0.0
C628 C 0.04121 0.96247 1.00382 0.0
C629 C 0.04107 0.93615 0.02229 0.0
C630 C 0.94901 0.0206 0.04583 0.0
C631 C 0.07421 0.96049 0.97652 0.0
C632 C 0.98669 0.0496 0.94534 0.0
C633 C 0.03035 0.06683 0.95187 0.0
C634 C 0.97828 0.02563 0.96538 0.0
C635 C 0.01454 0.01858 0.99251 0.0
C636 C 0.05781 0.03637 0.99963 0.0
C637 C 0.06516 0.06026 0.97927 0.0
C638 C 0.93168 0.00719 0.95699 0.0
C639 C 0.09768 0.02942 0.0282 0.0
H640 H 0.95982 0.96505 0.07568 0.0
H641 H 0.06446 0.91502 0.0163 0.0
H642 H 0.9772 0.03778 0.05206 0.0
H643 H 0.9204 0.03041 0.02585 0.0
H644 H 0.9252 0.01712 0.06552 0.0
H645 H 0.09404 0.93683 0.97342 0.0
H646 H 0.04754 0.96829 0.95514 0.0
H647 H 0.10655 0.97586 0.97952 0.0
H648 H 0.95916 0.05467 0.92443 0.0
H649 H 0.09879 0.07353 0.98469 0.0
H650 H 0.90752 0.00522 0.97679 0.0
H651 H 0.94827 0.98359 0.95139 0.0
H652 H 0.90386 0.01751 0.93688 0.0
H653 H 0.07534 0.02803 0.0488 0.0
H654 H 0.12611 0.047 0.0318 0.0
H655 H 0.12225 0.00678 0.02631 0.0
C656 C 0.17616 0.26566 0.45466 0.0
C657 C 0.18628 0.29491 0.44529 0.0
C658 C 0.21666 0.24582 0.47268 0.0
C659 C 0.26748 0.25606 0.4826 0.0
C660 C 0.2771 0.28599 0.4739 0.0
C661 C 0.23679 0.30481 0.45483 0.0
C662 C 0.20562 0.21369 0.48044 0.0
C663 C 0.32993 0.29819 0.48479 0.0
C664 C 0.35773 0.21358 0.55006 0.0
C665 C 0.39915 0.19768 0.53495 0.0
C666 C 0.31454 0.23284 0.53336 0.0
C667 C 0.31175 0.23509 0.50079 0.0
C668 C 0.35263 0.2181 0.48549 0.0
C669 C 0.39639 0.20011 0.50281 0.0
C670 C 0.27288 0.25144 0.55058 0.0
C671 C 0.35025 0.21893 0.4508 0.0
H672 H 0.13704 0.25804 0.44723 0.0
H673 H 0.24427 0.32764 0.44797 0.0
H674 H 0.23634 0.19679 0.47116 0.0
H675 H 0.20976 0.20967 0.50574 0.0
H676 H 0.16409 0.20925 0.47088 0.0
H677 H 0.32913 0.32278 0.4781 0.0
H678 H 0.3381 0.29549 0.51021 0.0
H679 H 0.36458 0.28484 0.47491 0.0
H680 H 0.36011 0.21169 0.57495 0.0
H681 H 0.42817 0.18744 0.49114 0.0
H682 H 0.23116 0.24609 0.54281 0.0
H683 H 0.27337 0.27625 0.54551 0.0
H684 H 0.28083 0.2471 0.57587 0.0
H685 H 0.30979 0.21355 0.44052 0.0
H686 H 0.38269 0.2024 0.44244 0.0
H687 H 0.35508 0.24228 0.44231 0.0
C688 C 0.46751 0.72822 0.95687 0.0
C689 C 0.44925 0.71198 0.93133 0.0
C690 C 0.43062 0.74808 0.97177 0.0
C691 C 0.37425 0.75167 0.9609 0.0
C692 C 0.35601 0.73655 0.93426 0.0
C693 C 0.39373 0.717 0.91973 0.0
C694 C 0.45163 0.76418 0.99991 0.0
C695 C 0.29621 0.73987 0.92193 0.0
C696 C 0.2712 0.77237 0.01793 0.0
C697 C 0.25486 0.80353 0.01053 0.0
C698 C 0.31012 0.75523 1.00193 0.0
C699 C 0.3338 0.76977 0.97833 0.0
C700 C 0.31812 0.80135 0.9711 0.0
C701 C 0.27885 0.81786 0.98734 0.0
C702 C 0.32596 0.72157 0.01032 0.0
C703 C 0.34269 0.81765 0.9462 0.0
H704 H 0.51034 0.72463 0.96591 0.0
H705 H 0.37916 0.70473 0.8999 0.0
H706 H 0.43686 0.78909 0.9977 0.0
H707 H 0.43556 0.75503 0.02053 0.0
H708 H 0.49705 0.7611 1.0038 0.0
H709 H 0.28924 0.72821 0.89983 0.0
H710 H 0.27253 0.7299 0.93897 0.0
H711 H 0.2797 0.76447 0.91836 0.0
H712 H 0.25452 0.76147 0.03665 0.0
H713 H 0.26663 0.84204 0.98174 0.0
H714 H 0.37051 0.717 0.01771 0.0
H715 H 0.3175 0.70767 0.98988 0.0
H716 H 0.30349 0.71371 0.02912 0.0
H717 H 0.38786 0.81527 0.95129 0.0
H718 H 0.32682 0.84245 0.94383 0.0
H719 H 0.33361 0.80696 0.92379 0.0
C720 C 0.16165 0.75165 0.54522 0.0
C721 C 0.14946 0.72348 0.53373 0.0
C722 C 0.20308 0.76645 0.53412 0.0
C723 C 0.23213 0.75307 0.51049 0.0
C724 C 0.22002 0.72461 0.49881 0.0
C725 C 0.17917 0.70997 0.51083 0.0
C726 C 0.21552 0.79652 0.54755 0.0
C727 C 0.24936 0.70998 0.47318 0.0
C728 C 0.29448 0.80926 0.46217 0.0
C729 C 0.34956 0.80441 0.47427 0.0
C730 C 0.25624 0.79188 0.47302 0.0
C731 C 0.27335 0.76969 0.49711 0.0
C732 C 0.32917 0.76447 0.50922 0.0
C733 C 0.36684 0.78177 0.4974 0.0
C734 C 0.19736 0.79765 0.45903 0.0
C735 C 0.34868 0.7414 0.53531 0.0
H736 H 0.13922 0.76198 0.5632 0.0
H737 H 0.16975 0.6882 0.50186 0.0
H738 H 0.25972 0.79514 0.55574 0.0
H739 H 0.20621 0.81512 0.52954 0.0
H740 H 0.19148 0.8029 0.56707 0.0
H741 H 0.23594 0.68745 0.46713 0.0
H742 H 0.24172 0.72541 0.45235 0.0
H743 H 0.29418 0.7066 0.47989 0.0
H744 H 0.28132 0.82669 0.4441 0.0
H745 H 0.40938 0.77835 0.50698 0.0
H746 H 0.17098 0.80692 0.47655 0.0
H747 H 0.18303 0.77581 0.45142 0.0
H748 H 0.1916 0.81416 0.43901 0.0
H749 H 0.32853 0.74841 0.55603 0.0
H750 H 0.39374 0.7392 0.54126 0.0
H751 H 0.33705 0.71854 0.5292 0.0
C752 C 0.28224 0.22009 0.97352 0.0
C753 C 0.27244 0.19288 0.98811 0.0
C754 C 0.31758 0.2393 0.98809 0.0
C755 C 0.34478 0.2308 0.01771 0.0
C756 C 0.33585 0.20309 0.03233 0.0
C757 C 0.29983 0.1845 0.01736 0.0
C758 C 0.32607 0.26864 0.97169 0.0
C759 C 0.36446 0.19304 0.06376 0.0
C760 C 0.47419 0.26659 0.0418 0.0
C761 C 0.45499 0.29004 0.06076 0.0
C762 C 0.439 0.24684 0.02808 0.0
C763 C 0.38307 0.25073 0.0332 0.0
C764 C 0.36356 0.27403 0.05266 0.0
C765 C 0.39976 0.29329 0.06632 0.0
C766 C 0.46156 0.22205 0.00777 0.0
C767 C 0.30415 0.27904 0.05855 0.0
H768 H 0.26332 0.22616 0.95044 0.0
H769 H 0.2928 0.16339 0.02871 0.0
H770 H 0.316 0.28852 0.98623 0.0
H771 H 0.36969 0.26804 0.9677 0.0
H772 H 0.30053 0.27247 0.94918 0.0
H773 H 0.35328 0.17078 0.07193 0.0
H774 H 0.40946 0.19079 0.0632 0.0
H775 H 0.35391 0.21065 0.08072 0.0
H776 H 0.51678 0.26375 0.03746 0.0
H777 H 0.38438 0.31137 0.08082 0.0
H778 H 0.44097 0.22588 0.98399 0.0
H779 H 0.45309 0.1993 0.01619 0.0
H780 H 0.50639 0.22136 0.00698 0.0
H781 H 0.27799 0.28493 0.03654 0.0
H782 H 0.29569 0.29771 0.07479 0.0
H783 H 0.29196 0.25763 0.06811 0.0
C784 C 0.83734 0.68442 0.53519 0.0
C785 C 0.88522 0.69711 0.54483 0.0
C786 C 0.79376 0.70178 0.51697 0.0
C787 C 0.79758 0.73281 0.50908 0.0
C788 C 0.84489 0.7461 0.52 0.0
C789 C 0.88853 0.72793 0.53731 0.0
C790 C 0.74467 0.68656 0.50509 0.0
C791 C 0.84987 0.77935 0.51293 0.0
C792 C 0.71593 0.77249 0.43769 0.0
C793 C 0.67157 0.78882 0.45015 0.0
C794 C 0.75623 0.75332 0.45648 0.0
C795 C 0.75296 0.75121 0.48862 0.0
C796 C 0.70808 0.76753 0.50128 0.0
C797 C 0.66752 0.78578 0.48183 0.0
C798 C 0.80265 0.73561 0.44197 0.0
C799 C 0.70389 0.76658 0.53551 0.0
H800 H 0.83501 0.66047 0.54065 0.0
H801 H 0.92549 0.73779 0.54485 0.0
H802 H 0.7066 0.69957 0.51171 0.0
H803 H 0.74111 0.68664 0.47957 0.0
H804 H 0.74739 0.66249 0.51396 0.0
H805 H 0.88734 0.78678 0.52521 0.0
H806 H 0.85106 0.78304 0.48784 0.0
H807 H 0.81363 0.79424 0.51948 0.0
H808 H 0.71904 0.77466 0.4132 0.0
H809 H 0.63358 0.79861 0.49163 0.0
H810 H 0.80626 0.71092 0.44879 0.0
H811 H 0.84186 0.74393 0.45035 0.0
H812 H 0.79702 0.73794 0.41644 0.0
H813 H 0.70484 0.74256 0.54404 0.0
H814 H 0.66588 0.78016 0.54163 0.0
H815 H 0.73961 0.77577 0.54775 0.0
C816 C 0.7803 0.31669 0.9788 0.0
C817 C 0.75865 0.30253 1.00301 0.0
C818 C 0.81922 0.3003 0.96226 0.0
C819 C 0.83691 0.26905 0.97023 0.0
C820 C 0.81541 0.25468 0.99477 0.0
C821 C 0.77685 0.2717 0.01106 0.0
C822 C 0.84151 0.31641 0.93635 0.0
C823 C 0.83345 0.22136 1.00398 0.0
C824 C 0.89832 0.21491 0.91325 0.0
C825 C 0.95394 0.21107 0.92467 0.0
C826 C 0.86 0.23467 0.92715 0.0
C827 C 0.87777 0.25116 0.95293 0.0
C828 C 0.93419 0.24885 0.96343 0.0
C829 C 0.97166 0.22878 0.94919 0.0
C830 C 0.80014 0.23661 0.91527 0.0
C831 C 0.95468 0.26644 0.99064 0.0
H832 H 0.76663 0.34065 0.97273 0.0
H833 H 0.76198 0.26099 0.03053 0.0
H834 H 0.88663 0.31527 0.94097 0.0
H835 H 0.83282 0.30469 0.91449 0.0
H836 H 0.82367 0.34087 0.93318 0.0
H837 H 0.81205 0.21351 0.02324 0.0
H838 H 0.82546 0.20674 0.98403 0.0
H839 H 0.87816 0.21777 0.01106 0.0
H840 H 0.88419 0.2015 0.89419 0.0
H841 H 0.01456 0.22612 0.95806 0.0
H842 H 0.78202 0.26091 0.91122 0.0
H843 H 0.77764 0.22646 0.93279 0.0
H844 H 0.79356 0.2243 0.89352 0.0
H845 H 0.93813 0.29107 0.98765 0.0
H846 H 1.00008 0.26443 0.99403 0.0
H847 H 0.94007 0.25758 0.01185 0.0
C848 C 0.87947 0.27921 0.48961 0.0
C849 C 0.8615 0.30103 0.46579 0.0
C850 C 0.84259 0.26156 0.5017 0.0
C851 C 0.78696 0.26562 0.48921 0.0
C852 C 0.76932 0.28681 0.4643 0.0
C853 C 0.80672 0.30456 0.45316 0.0
C854 C 0.86261 0.23955 0.52862 0.0
C855 C 0.71062 0.29134 0.44992 0.0
C856 C 0.69418 0.20583 0.50503 0.0
C857 C 0.66356 0.2202 0.52713 0.0
C858 C 0.73509 0.22014 0.4927 0.0
C859 C 0.74623 0.24918 0.50323 0.0
C860 C 0.71638 0.26341 0.52613 0.0
C861 C 0.67498 0.24887 0.53757 0.0
C862 C 0.76538 0.20458 0.46788 0.0
C863 C 0.72775 0.29415 0.5383 0.0
H864 H 0.92176 0.27684 0.49959 0.0
H865 H 0.79307 0.32137 0.43458 0.0
H866 H 0.84252 0.24738 0.54912 0.0
H867 H 0.85134 0.21639 0.52358 0.0
H868 H 0.90767 0.23773 0.53442 0.0
H869 H 0.70465 0.30687 0.42914 0.0
H870 H 0.6973 0.26894 0.44339 0.0
H871 H 0.68357 0.30124 0.46686 0.0
H872 H 0.68536 0.18365 0.49689 0.0
H873 H 0.65185 0.25988 0.55494 0.0
H874 H 0.81014 0.20206 0.47472 0.0
H875 H 0.75729 0.21896 0.44634 0.0
H876 H 0.75312 0.18154 0.46299 0.0
H877 H 0.77183 0.29343 0.54651 0.0
H878 H 0.70337 0.30113 0.55752 0.0
H879 H 0.71803 0.31202 0.51957 0.0
C880 C 0.77745 0.7209 0.97332 0.0
C881 C 0.76514 0.69518 0.9895 0.0
C882 C 0.81195 0.74088 0.98732 0.0
C883 C 0.83589 0.73457 0.018 0.0
C884 C 0.82459 0.70831 0.03425 0.0
C885 C 0.78933 0.68901 0.01984 0.0
C886 C 0.82299 0.76868 0.96922 0.0
C887 C 0.84986 0.70055 0.06685 0.0
C888 C 0.96461 0.77024 0.04382 0.0
C889 C 0.94399 0.79496 0.06084 0.0
C890 C 0.93 0.75025 0.03002 0.0
C891 C 0.87323 0.75526 0.033 0.0
C892 C 0.85215 0.78006 0.05026 0.0
C893 C 0.88781 0.79949 0.06413 0.0
C894 C 0.95418 0.72381 0.01217 0.0
C895 C 0.79179 0.78631 0.05373 0.0
H896 H 0.76123 0.72524 0.94952 0.0
H897 H 0.78039 0.66909 0.03251 0.0
H898 H 0.81195 0.78979 0.98186 0.0
H899 H 0.86727 0.76723 0.96653 0.0
H900 H 0.79966 0.77097 0.94599 0.0
H901 H 0.83741 0.67907 0.07618 0.0
H902 H 0.89514 0.6979 0.06778 0.0
H903 H 0.8377 0.71954 0.08204 0.0
H904 H 0.00797 0.76643 0.04127 0.0
H905 H 0.8714 0.81859 0.0771 0.0
H906 H 0.93571 0.72595 0.98787 0.0
H907 H 0.94458 0.70182 0.02188 0.0
H908 H 0.9993 0.72272 0.01253 0.0
H909 H 0.76814 0.79042 0.03072 0.0
H910 H 0.7819 0.80652 0.06792 0.0
H911 H 0.77787 0.76602 0.06456 0.0
loop_
_geom_bond_atom_site_label_1
_geom_bond_atom_site_label_2
_geom_bond_distance
_geom_bond_site_symmetry_2
_ccdc_geom_bond_type
Co0 O3 1.970 . S
Co0 N17 1.989 . S
Co0 O25 1.967 . S
Co0 O32 1.920 . S
Co1 O4 1.966 . S
Co1 N10 2.022 1_455 S
Co1 N18 1.993 1_455 S
Co1 O26 1.941 . S
C2 O3 1.258 . S
C2 O4 1.263 . S
O3 Co0 1.970 . S
O3 C2 1.258 . S
O4 Co1 1.966 . S
O4 C2 1.263 . S
C5 O6 1.235 . S
C5 O32 1.289 . S
O6 C5 1.235 . S
C7 C9 1.400 . S
C7 N10 1.351 . S
C7 C12 1.501 . S
C8 C9 1.387 . S
C8 N11 1.341 . S
C9 C7 1.400 . S
C9 C8 1.387 . S
N10 Co1 2.022 1_655 S
N10 C7 1.351 . S
N10 N11 1.365 . S
N11 C8 1.341 . S
N11 N10 1.365 . S
N11 H31 0.862 . S
C12 C7 1.501 . S
C12 H13 0.961 1_655 S
C12 H14 0.961 . S
C12 H15 0.960 . S
H13 C12 0.961 1_455 S
H14 C12 0.961 . S
H15 C12 0.960 . S
C16 N17 1.342 1_655 S
C16 C20 1.401 . S
C16 C21 1.499 1_655 S
N17 Co0 1.989 . S
N17 C16 1.342 1_455 S
N17 N18 1.388 1_455 S
N18 Co1 1.993 1_655 S
N18 N17 1.388 1_655 S
N18 C19 1.346 . S
C19 N18 1.346 . S
C19 C20 1.396 . S
C19 C29 1.510 . S
C20 C16 1.401 . S
C20 C19 1.396 . S
C21 C16 1.499 1_455 S
C21 H22 0.959 . S
C21 H23 0.960 . S
C21 H24 0.961 . S
H22 C21 0.959 . S
H23 C21 0.960 . S
H24 C21 0.961 . S
O25 Co0 1.967 . S
O25 C33 1.258 . S
O26 Co1 1.941 . S
O26 C33 1.266 . S
H27 C29 0.959 . S
H28 C29 0.961 . S
C29 C19 1.510 . S
C29 H27 0.959 . S
C29 H28 0.961 . S
C29 H30 0.960 . S
H30 C29 0.960 . S
H31 N11 0.862 . S
O32 Co0 1.920 . S
O32 C5 1.289 . S
C33 O25 1.258 . S
C33 O26 1.266 . S
Co34 O37 1.970 . S
Co34 N51 1.989 . S
Co34 O59 1.967 . S
Co34 O66 1.920 . S
Co35 O38 1.966 . S
Co35 N44 2.022 . S
Co35 N52 1.993 . S
Co35 O60 1.941 . S
C36 O37 1.258 . S
C36 O38 1.263 . S
O37 Co34 1.970 . S
O37 C36 1.258 . S
O38 Co35 1.966 . S
O38 C36 1.263 . S
C39 O40 1.235 . S
C39 O66 1.289 . S
O40 C39 1.235 . S
C41 C43 1.400 . S
C41 N44 1.351 . S
C41 C46 1.501 . S
C42 C43 1.387 . S
C42 N45 1.341 . S
C43 C41 1.400 . S
C43 C42 1.387 . S
N44 Co35 2.022 . S
N44 C41 1.351 . S
N44 N45 1.365 . S
N45 C42 1.341 . S
N45 N44 1.365 . S
N45 H65 0.862 . S
C46 C41 1.501 . S
C46 H47 0.961 . S
C46 H48 0.961 . S
C46 H49 0.960 . S
H47 C46 0.961 . S
H48 C46 0.961 . S
H49 C46 0.960 . S
C50 N51 1.342 . S
C50 C54 1.401 . S
C50 C55 1.499 . S
N51 Co34 1.989 . S
N51 C50 1.342 . S
N51 N52 1.388 . S
N52 Co35 1.993 . S
N52 N51 1.388 . S
N52 C53 1.346 . S
C53 N52 1.346 . S
C53 C54 1.396 . S
C53 C63 1.510 . S
C54 C50 1.401 . S
C54 C53 1.396 . S
C55 C50 1.499 . S
C55 H56 0.959 . S
C55 H57 0.960 . S
C55 H58 0.961 . S
H56 C55 0.959 . S
H57 C55 0.960 . S
H58 C55 0.961 . S
O59 Co34 1.967 . S
O59 C67 1.258 . S
O60 Co35 1.941 . S
O60 C67 1.266 . S
H61 C63 0.959 . S
H62 C63 0.961 . S
C63 C53 1.510 . S
C63 H61 0.959 . S
C63 H62 0.961 . S
C63 H64 0.960 . S
H64 C63 0.960 . S
H65 N45 0.862 . S
O66 Co34 1.920 . S
O66 C39 1.289 . S
C67 O59 1.258 . S
C67 O60 1.266 . S
Co68 O71 1.970 1_455 S
Co68 N85 1.989 . S
Co68 O93 1.967 . S
Co68 O100 1.920 . S
Co69 O72 1.966 . S
Co69 N78 2.022 . S
Co69 N86 1.993 1_655 S
Co69 O94 1.941 . S
C70 O71 1.258 . S
C70 O72 1.263 . S
O71 Co68 1.970 1_655 S
O71 C70 1.258 . S
O72 Co69 1.966 . S
O72 C70 1.263 . S
C73 O74 1.235 . S
C73 O100 1.289 . S
O74 C73 1.235 . S
C75 C77 1.400 . S
C75 N78 1.351 . S
C75 C80 1.501 . S
C76 C77 1.387 . S
C76 N79 1.341 . S
C77 C75 1.400 . S
C77 C76 1.387 . S
N78 Co69 2.022 . S
N78 C75 1.351 . S
N78 N79 1.365 . S
N79 C76 1.341 . S
N79 N78 1.365 . S
N79 H99 0.862 . S
C80 C75 1.501 . S
C80 H81 0.961 . S
C80 H82 0.961 . S
C80 H83 0.960 . S
H81 C80 0.961 . S
H82 C80 0.961 . S
H83 C80 0.960 . S
C84 N85 1.342 . S
C84 C88 1.401 . S
C84 C89 1.499 . S
N85 Co68 1.989 . S
N85 C84 1.342 . S
N85 N86 1.388 . S
N86 Co69 1.993 1_455 S
N86 N85 1.388 . S
N86 C87 1.346 . S
C87 N86 1.346 . S
C87 C88 1.396 . S
C87 C97 1.510 . S
C88 C84 1.401 . S
C88 C87 1.396 . S
C89 C84 1.499 . S
C89 H90 0.959 . S
C89 H91 0.960 . S
C89 H92 0.961 . S
H90 C89 0.959 . S
H91 C89 0.960 . S
H92 C89 0.961 . S
O93 Co68 1.967 . S
O93 C101 1.258 . S
O94 Co69 1.941 . S
O94 C101 1.266 1_655 S
H95 C97 0.959 . S
H96 C97 0.961 . S
C97 C87 1.510 . S
C97 H95 0.959 . S
C97 H96 0.961 . S
C97 H98 0.960 . S
H98 C97 0.960 . S
H99 N79 0.862 . S
O100 Co68 1.920 . S
O100 C73 1.289 . S
C101 O93 1.258 . S
C101 O94 1.266 1_455 S
Co102 O105 1.970 . S
Co102 N119 1.989 . S
Co102 O127 1.967 . S
Co102 O134 1.920 . S
Co103 O106 1.966 . S
Co103 N112 2.022 . S
Co103 N120 1.993 . S
Co103 O128 1.941 . S
C104 O105 1.258 . S
C104 O106 1.263 . S
O105 Co102 1.970 . S
O105 C104 1.258 . S
O106 Co103 1.966 . S
O106 C104 1.263 . S
C107 O108 1.235 . S
C107 O134 1.289 . S
O108 C107 1.235 . S
C109 C111 1.400 . S
C109 N112 1.351 . S
C109 C114 1.501 . S
C110 C111 1.387 . S
C110 N113 1.341 . S
C111 C109 1.400 . S
C111 C110 1.387 . S
N112 Co103 2.022 . S
N112 C109 1.351 . S
N112 N113 1.365 . S
N113 C110 1.341 . S
N113 N112 1.365 . S
N113 H133 0.862 . S
C114 C109 1.501 . S
C114 H115 0.961 . S
C114 H116 0.961 . S
C114 H117 0.960 . S
H115 C114 0.961 . S
H116 C114 0.961 . S
H117 C114 0.960 . S
C118 N119 1.342 . S
C118 C122 1.401 . S
C118 C123 1.499 . S
N119 Co102 1.989 . S
N119 C118 1.342 . S
N119 N120 1.388 . S
N120 Co103 1.993 . S
N120 N119 1.388 . S
N120 C121 1.346 . S
C121 N120 1.346 . S
C121 C122 1.396 . S
C121 C131 1.510 . S
C122 C118 1.401 . S
C122 C121 1.396 . S
C123 C118 1.499 . S
C123 H124 0.959 . S
C123 H125 0.960 . S
C123 H126 0.961 . S
H124 C123 0.959 . S
H125 C123 0.960 . S
H126 C123 0.961 . S
O127 Co102 1.967 . S
O127 C135 1.258 . S
O128 Co103 1.941 . S
O128 C135 1.266 . S
H129 C131 0.959 . S
H130 C131 0.961 . S
C131 C121 1.510 . S
C131 H129 0.959 . S
C131 H130 0.961 . S
C131 H132 0.960 . S
H132 C131 0.960 . S
H133 N113 0.862 . S
O134 Co102 1.920 . S
O134 C107 1.289 . S
C135 O127 1.258 . S
C135 O128 1.266 . S
Co136 O139 1.970 . S
Co136 N153 1.989 . S
Co136 O161 1.967 . S
Co136 O168 1.920 . S
Co137 O140 1.966 . S
Co137 N146 2.022 . S
Co137 N154 1.993 . S
Co137 O162 1.941 . S
C138 O139 1.258 . S
C138 O140 1.263 . S
O139 Co136 1.970 . S
O139 C138 1.258 . S
O140 Co137 1.966 . S
O140 C138 1.263 . S
C141 O142 1.235 . S
C141 O168 1.289 . S
O142 C141 1.235 . S
C143 C145 1.400 . S
C143 N146 1.351 . S
C143 C148 1.501 . S
C144 C145 1.387 . S
C144 N147 1.341 . S
C145 C143 1.400 . S
C145 C144 1.387 . S
N146 Co137 2.022 . S
N146 C143 1.351 . S
N146 N147 1.365 . S
N147 C144 1.341 . S
N147 N146 1.365 . S
N147 H167 0.862 . S
C148 C143 1.501 . S
C148 H149 0.961 . S
C148 H150 0.961 . S
C148 H151 0.960 . S
H149 C148 0.961 . S
H150 C148 0.961 . S
H151 C148 0.960 . S
C152 N153 1.342 . S
C152 C156 1.401 . S
C152 C157 1.499 . S
N153 Co136 1.989 . S
N153 C152 1.342 . S
N153 N154 1.388 . S
N154 Co137 1.993 . S
N154 N153 1.388 . S
N154 C155 1.346 . S
C155 N154 1.346 . S
C155 C156 1.396 . S
C155 C165 1.510 . S
C156 C152 1.401 . S
C156 C155 1.396 . S
C157 C152 1.499 . S
C157 H158 0.959 . S
C157 H159 0.960 . S
C157 H160 0.961 . S
H158 C157 0.959 . S
H159 C157 0.960 . S
H160 C157 0.961 . S
O161 Co136 1.967 . S
O161 C169 1.258 . S
O162 Co137 1.941 . S
O162 C169 1.266 . S
H163 C165 0.959 . S
H164 C165 0.961 . S
C165 C155 1.510 . S
C165 H163 0.959 . S
C165 H164 0.961 . S
C165 H166 0.960 . S
H166 C165 0.960 . S
H167 N147 0.862 . S
O168 Co136 1.920 . S
O168 C141 1.289 . S
C169 O161 1.258 . S
C169 O162 1.266 . S
Co170 O173 1.970 . S
Co170 N187 1.989 1_655 S
Co170 O195 1.967 1_655 S
Co170 O202 1.920 . S
Co171 O174 1.966 . S
Co171 N180 2.022 . S
Co171 N188 1.993 . S
Co171 O196 1.941 . S
C172 O173 1.258 . S
C172 O174 1.263 1_655 S
O173 Co170 1.970 . S
O173 C172 1.258 . S
O174 Co171 1.966 . S
O174 C172 1.263 1_455 S
C175 O176 1.235 . S
C175 O202 1.289 . S
O176 C175 1.235 . S
C177 C179 1.400 . S
C177 N180 1.351 . S
C177 C182 1.501 . S
C178 C179 1.387 . S
C178 N181 1.341 . S
C179 C177 1.400 . S
C179 C178 1.387 . S
N180 Co171 2.022 . S
N180 C177 1.351 . S
N180 N181 1.365 . S
N181 C178 1.341 . S
N181 N180 1.365 . S
N181 H201 0.862 . S
C182 C177 1.501 . S
C182 H183 0.961 . S
C182 H184 0.961 . S
C182 H185 0.960 . S
H183 C182 0.961 . S
H184 C182 0.961 . S
H185 C182 0.960 . S
C186 N187 1.342 . S
C186 C190 1.401 . S
C186 C191 1.499 . S
N187 Co170 1.989 1_455 S
N187 C186 1.342 . S
N187 N188 1.388 . S
N188 Co171 1.993 . S
N188 N187 1.388 . S
N188 C189 1.346 . S
C189 N188 1.346 . S
C189 C190 1.396 . S
C189 C199 1.510 . S
C190 C186 1.401 . S
C190 C189 1.396 . S
C191 C186 1.499 . S
C191 H192 0.959 . S
C191 H193 0.960 . S
C191 H194 0.961 . S
H192 C191 0.959 . S
H193 C191 0.960 . S
H194 C191 0.961 . S
O195 Co170 1.967 1_455 S
O195 C203 1.258 . S
O196 Co171 1.941 . S
O196 C203 1.266 . S
H197 C199 0.959 . S
H198 C199 0.961 . S
C199 C189 1.510 . S
C199 H197 0.959 . S
C199 H198 0.961 . S
C199 H200 0.960 . S
H200 C199 0.960 . S
H201 N181 0.862 . S
O202 Co170 1.920 . S
O202 C175 1.289 . S
C203 O195 1.258 . S
C203 O196 1.266 . S
Co204 O207 1.970 . S
Co204 N221 1.989 . S
Co204 O229 1.967 . S
Co204 O236 1.920 . S
Co205 O208 1.966 . S
Co205 N214 2.022 . S
Co205 N222 1.993 . S
Co205 O230 1.941 . S
C206 O207 1.258 . S
C206 O208 1.263 . S
O207 Co204 1.970 . S
O207 C206 1.258 . S
O208 Co205 1.966 . S
O208 C206 1.263 . S
C209 O210 1.235 . S
C209 O236 1.289 . S
O210 C209 1.235 . S
C211 C213 1.400 . S
C211 N214 1.351 . S
C211 C216 1.501 . S
C212 C213 1.387 . S
C212 N215 1.341 . S
C213 C211 1.400 . S
C213 C212 1.387 . S
N214 Co205 2.022 . S
N214 C211 1.351 . S
N214 N215 1.365 . S
N215 C212 1.341 . S
N215 N214 1.365 . S
N215 H235 0.862 . S
C216 C211 1.501 . S
C216 H217 0.961 . S
C216 H218 0.961 . S
C216 H219 0.960 . S
H217 C216 0.961 . S
H218 C216 0.961 . S
H219 C216 0.960 . S
C220 N221 1.342 . S
C220 C224 1.401 . S
C220 C225 1.499 . S
N221 Co204 1.989 . S
N221 C220 1.342 . S
N221 N222 1.388 . S
N222 Co205 1.993 . S
N222 N221 1.388 . S
N222 C223 1.346 . S
C223 N222 1.346 . S
C223 C224 1.396 . S
C223 C233 1.510 . S
C224 C220 1.401 . S
C224 C223 1.396 . S
C225 C220 1.499 . S
C225 H226 0.959 . S
C225 H227 0.960 . S
C225 H228 0.961 . S
H226 C225 0.959 . S
H227 C225 0.960 . S
H228 C225 0.961 . S
O229 Co204 1.967 . S
O229 C237 1.258 . S
O230 Co205 1.941 . S
O230 C237 1.266 . S
H231 C233 0.959 . S
H232 C233 0.961 . S
C233 C223 1.510 . S
C233 H231 0.959 . S
C233 H232 0.961 . S
C233 H234 0.960 . S
H234 C233 0.960 . S
H235 N215 0.862 . S
O236 Co204 1.920 . S
O236 C209 1.289 . S
C237 O229 1.258 . S
C237 O230 1.266 . S
Co238 O241 1.975 . S
Co238 N255 1.980 1_655 S
Co238 O263 1.965 . S
Co238 O270 1.927 . S
Co239 O242 1.966 . S
Co239 N248 2.022 . S
Co239 N256 1.993 . S
Co239 O264 1.941 . S
C240 O241 1.258 . S
C240 O242 1.263 1_655 S
O241 Co238 1.975 . S
O241 C240 1.258 . S
O242 Co239 1.966 . S
O242 C240 1.263 1_455 S
C243 O244 1.235 . S
C243 O270 1.289 . S
O244 C243 1.235 . S
C245 C247 1.400 . S
C245 N248 1.351 . S
C245 C250 1.501 . S
C246 C247 1.387 . S
C246 N249 1.341 . S
C247 C245 1.400 . S
C247 C246 1.387 . S
N248 Co239 2.022 . S
N248 C245 1.351 . S
N248 N249 1.365 . S
N249 C246 1.341 . S
N249 N248 1.365 . S
N249 H269 0.862 . S
C250 C245 1.501 . S
C250 H251 0.961 . S
C250 H252 0.961 . S
C250 H253 0.960 . S
H251 C250 0.961 . S
H252 C250 0.961 . S
H253 C250 0.960 . S
C254 N255 1.342 . S
C254 C258 1.401 . S
C254 C259 1.499 . S
N255 Co238 1.980 1_455 S
N255 C254 1.342 . S
N255 N256 1.388 . S
N256 Co239 1.993 . S
N256 N255 1.388 . S
N256 C257 1.346 . S
C257 N256 1.346 . S
C257 C258 1.396 . S
C257 C267 1.510 . S
C258 C254 1.401 . S
C258 C257 1.396 . S
C259 C254 1.499 . S
C259 H260 0.959 . S
C259 H261 0.960 . S
C259 H262 0.961 . S
H260 C259 0.959 . S
H261 C259 0.960 . S
H262 C259 0.961 . S
O263 Co238 1.965 . S
O263 C271 1.258 1_655 S
O264 Co239 1.941 . S
O264 C271 1.266 . S
H265 C267 0.959 . S
H266 C267 0.961 . S
C267 C257 1.510 . S
C267 H265 0.959 . S
C267 H266 0.961 . S
C267 H268 0.960 . S
H268 C267 0.960 . S
H269 N249 0.862 . S
O270 Co238 1.927 . S
O270 C243 1.289 . S
C271 O263 1.258 1_455 S
C271 O264 1.266 . S
C272 C273 1.391 . S
C272 C274 1.394 . S
C272 H288 0.931 . S
C273 C272 1.391 . S
C273 C277 1.376 . S
C274 C272 1.394 . S
C274 C275 1.369 . S
C274 C278 1.531 . S
C275 C274 1.369 . S
C275 C276 1.410 . S
C275 C283 1.503 . S
C276 C275 1.410 . S
C276 C277 1.392 . S
C276 C279 1.511 . S
C277 C273 1.376 . S
C277 C276 1.392 . S
C277 H289 0.929 . S
C278 C274 1.531 . S
C278 H290 0.960 . S
C278 H291 0.962 . S
C278 H292 0.960 . S
C279 C276 1.511 . S
C279 H293 0.961 . S
C279 H294 0.961 . S
C279 H295 0.961 . S
C280 C281 1.370 . S
C280 C282 1.363 . S
C280 H296 0.931 . S
C281 C280 1.370 . S
C281 C285 1.408 . S
C282 C280 1.363 . S
C282 C283 1.370 . S
C282 C286 1.524 . S
C283 C275 1.503 . S
C283 C282 1.370 . S
C283 C284 1.403 . S
C284 C283 1.403 . S
C284 C285 1.404 . S
C284 C287 1.539 . S
C285 C281 1.408 . S
C285 C284 1.404 . S
C285 H297 0.930 . S
C286 C282 1.524 . S
C286 H298 0.956 . S
C286 H299 0.961 . S
C286 H300 0.961 . S
C287 C284 1.539 . S
C287 H301 0.958 . S
C287 H302 0.961 . S
C287 H303 0.960 . S
H288 C272 0.931 . S
H289 C277 0.929 . S
H290 C278 0.960 . S
H291 C278 0.962 . S
H292 C278 0.960 . S
H293 C279 0.961 . S
H294 C279 0.961 . S
H295 C279 0.961 . S
H296 C280 0.931 . S
H297 C285 0.930 . S
H298 C286 0.956 . S
H299 C286 0.961 . S
H300 C286 0.961 . S
H301 C287 0.958 . S
H302 C287 0.961 . S
H303 C287 0.960 . S
C304 C305 1.391 . S
C304 C306 1.394 . S
C304 H320 0.931 . S
C305 C304 1.391 . S
C305 C309 1.376 . S
C306 C304 1.394 . S
C306 C307 1.369 . S
C306 C310 1.531 . S
C307 C306 1.369 . S
C307 C308 1.410 . S
C307 C315 1.503 . S
C308 C307 1.410 . S
C308 C309 1.392 . S
C308 C311 1.511 . S
C309 C305 1.376 . S
C309 C308 1.392 . S
C309 H321 0.929 . S
C310 C306 1.531 . S
C310 H322 0.960 . S
C310 H323 0.962 . S
C310 H324 0.960 . S
C311 C308 1.511 . S
C311 H325 0.961 . S
C311 H326 0.961 . S
C311 H327 0.961 . S
C312 C313 1.370 . S
C312 C314 1.363 . S
C312 H328 0.931 . S
C313 C312 1.370 . S
C313 C317 1.408 . S
C314 C312 1.363 . S
C314 C315 1.370 . S
C314 C318 1.524 . S
C315 C307 1.503 . S
C315 C314 1.370 . S
C315 C316 1.403 . S
C316 C315 1.403 . S
C316 C317 1.404 . S
C316 C319 1.539 . S
C317 C313 1.408 . S
C317 C316 1.404 . S
C317 H329 0.930 . S
C318 C314 1.524 . S
C318 H330 0.956 . S
C318 H331 0.961 . S
C318 H332 0.961 . S
C319 C316 1.539 . S
C319 H333 0.958 . S
C319 H334 0.961 . S
C319 H335 0.960 . S
H320 C304 0.931 . S
H321 C309 0.929 . S
H322 C310 0.960 . S
H323 C310 0.962 . S
H324 C310 0.960 . S
H325 C311 0.961 . S
H326 C311 0.961 . S
H327 C311 0.961 . S
H328 C312 0.931 . S
H329 C317 0.930 . S
H330 C318 0.956 . S
H331 C318 0.961 . S
H332 C318 0.961 . S
H333 C319 0.958 . S
H334 C319 0.961 . S
H335 C319 0.960 . S
C336 C337 1.391 . S
C336 C338 1.394 . S
C336 H352 0.931 . S
C337 C336 1.391 . S
C337 C341 1.376 . S
C338 C336 1.394 . S
C338 C339 1.369 . S
C338 C342 1.531 . S
C339 C338 1.369 . S
C339 C340 1.410 . S
C339 C347 1.503 . S
C340 C339 1.410 . S
C340 C341 1.392 . S
C340 C343 1.511 . S
C341 C337 1.376 . S
C341 C340 1.392 . S
C341 H353 0.929 . S
C342 C338 1.531 . S
C342 H354 0.960 . S
C342 H355 0.962 . S
C342 H356 0.960 . S
C343 C340 1.511 . S
C343 H357 0.961 . S
C343 H358 0.961 . S
C343 H359 0.961 . S
C344 C345 1.370 . S
C344 C346 1.363 . S
C344 H360 0.931 . S
C345 C344 1.370 . S
C345 C349 1.408 . S
C346 C344 1.363 . S
C346 C347 1.370 . S
C346 C350 1.524 . S
C347 C339 1.503 . S
C347 C346 1.370 . S
C347 C348 1.403 . S
C348 C347 1.403 . S
C348 C349 1.404 . S
C348 C351 1.539 . S
C349 C345 1.408 . S
C349 C348 1.404 . S
C349 H361 0.930 . S
C350 C346 1.524 . S
C350 H362 0.956 . S
C350 H363 0.961 . S
C350 H364 0.961 . S
C351 C348 1.539 . S
C351 H365 0.958 . S
C351 H366 0.961 . S
C351 H367 0.960 . S
H352 C336 0.931 . S
H353 C341 0.929 . S
H354 C342 0.960 . S
H355 C342 0.962 . S
H356 C342 0.960 . S
H357 C343 0.961 . S
H358 C343 0.961 . S
H359 C343 0.961 . S
H360 C344 0.931 . S
H361 C349 0.930 . S
H362 C350 0.956 . S
H363 C350 0.961 . S
H364 C350 0.961 . S
H365 C351 0.958 . S
H366 C351 0.961 . S
H367 C351 0.960 . S
C368 C369 1.391 . S
C368 C370 1.394 . S
C368 H384 0.931 . S
C369 C368 1.391 . S
C369 C373 1.376 . S
C370 C368 1.394 . S
C370 C371 1.369 . S
C370 C374 1.531 . S
C371 C370 1.369 . S
C371 C372 1.410 . S
C371 C379 1.503 . S
C372 C371 1.410 . S
C372 C373 1.392 . S
C372 C375 1.511 . S
C373 C369 1.376 . S
C373 C372 1.392 . S
C373 H385 0.929 . S
C374 C370 1.531 . S
C374 H386 0.960 . S
C374 H387 0.962 . S
C374 H388 0.960 . S
C375 C372 1.511 . S
C375 H389 0.961 . S
C375 H390 0.961 . S
C375 H391 0.961 . S
C376 C377 1.370 . S
C376 C378 1.363 . S
C376 H392 0.931 . S
C377 C376 1.370 . S
C377 C381 1.408 . S
C378 C376 1.363 . S
C378 C379 1.370 . S
C378 C382 1.524 . S
C379 C371 1.503 . S
C379 C378 1.370 . S
C379 C380 1.403 . S
C380 C379 1.403 . S
C380 C381 1.404 . S
C380 C383 1.539 . S
C381 C377 1.408 . S
C381 C380 1.404 . S
C381 H393 0.930 . S
C382 C378 1.524 . S
C382 H394 0.956 . S
C382 H395 0.961 . S
C382 H396 0.961 . S
C383 C380 1.539 . S
C383 H397 0.958 . S
C383 H398 0.961 . S
C383 H399 0.960 . S
H384 C368 0.931 . S
H385 C373 0.929 . S
H386 C374 0.960 . S
H387 C374 0.962 . S
H388 C374 0.960 . S
H389 C375 0.961 . S
H390 C375 0.961 . S
H391 C375 0.961 . S
H392 C376 0.931 . S
H393 C381 0.930 . S
H394 C382 0.956 . S
H395 C382 0.961 . S
H396 C382 0.961 . S
H397 C383 0.958 . S
H398 C383 0.961 . S
H399 C383 0.960 . S
C400 C401 1.391 . S
C400 C402 1.394 . S
C400 H416 0.931 . S
C401 C400 1.391 . S
C401 C405 1.376 . S
C402 C400 1.394 . S
C402 C403 1.369 . S
C402 C406 1.531 . S
C403 C402 1.369 . S
C403 C404 1.410 . S
C403 C411 1.503 . S
C404 C403 1.410 . S
C404 C405 1.392 . S
C404 C407 1.511 . S
C405 C401 1.376 . S
C405 C404 1.392 . S
C405 H417 0.929 . S
C406 C402 1.531 . S
C406 H418 0.960 . S
C406 H419 0.962 . S
C406 H420 0.960 . S
C407 C404 1.511 . S
C407 H421 0.961 . S
C407 H422 0.961 . S
C407 H423 0.961 . S
C408 C409 1.370 . S
C408 C410 1.363 . S
C408 H424 0.931 . S
C409 C408 1.370 . S
C409 C413 1.408 . S
C410 C408 1.363 . S
C410 C411 1.370 . S
C410 C414 1.524 . S
C411 C403 1.503 . S
C411 C410 1.370 . S
C411 C412 1.403 . S
C412 C411 1.403 . S
C412 C413 1.404 . S
C412 C415 1.539 . S
C413 C409 1.408 . S
C413 C412 1.404 . S
C413 H425 0.930 . S
C414 C410 1.524 . S
C414 H426 0.956 . S
C414 H427 0.961 . S
C414 H428 0.961 . S
C415 C412 1.539 . S
C415 H429 0.958 . S
C415 H430 0.961 . S
C415 H431 0.960 . S
H416 C400 0.931 . S
H417 C405 0.929 . S
H418 C406 0.960 . S
H419 C406 0.962 . S
H420 C406 0.960 . S
H421 C407 0.961 . S
H422 C407 0.961 . S
H423 C407 0.961 . S
H424 C408 0.931 . S
H425 C413 0.930 . S
H426 C414 0.956 . S
H427 C414 0.961 . S
H428 C414 0.961 . S
H429 C415 0.958 . S
H430 C415 0.961 . S
H431 C415 0.960 . S
C432 C433 1.391 . S
C432 C434 1.394 . S
C432 H448 0.931 . S
C433 C432 1.391 . S
C433 C437 1.376 . S
C434 C432 1.394 . S
C434 C435 1.369 . S
C434 C438 1.531 . S
C435 C434 1.369 . S
C435 C436 1.410 . S
C435 C443 1.503 . S
C436 C435 1.410 . S
C436 C437 1.392 . S
C436 C439 1.511 . S
C437 C433 1.376 . S
C437 C436 1.392 . S
C437 H449 0.929 . S
C438 C434 1.531 . S
C438 H450 0.960 . S
C438 H451 0.962 . S
C438 H452 0.960 . S
C439 C436 1.511 . S
C439 H453 0.961 . S
C439 H454 0.961 . S
C439 H455 0.961 . S
C440 C441 1.370 . S
C440 C442 1.363 . S
C440 H456 0.931 . S
C441 C440 1.370 . S
C441 C445 1.408 . S
C442 C440 1.363 . S
C442 C443 1.370 . S
C442 C446 1.524 . S
C443 C435 1.503 . S
C443 C442 1.370 . S
C443 C444 1.403 . S
C444 C443 1.403 . S
C444 C445 1.404 . S
C444 C447 1.539 . S
C445 C441 1.408 . S
C445 C444 1.404 . S
C445 H457 0.930 . S
C446 C442 1.524 . S
C446 H458 0.956 . S
C446 H459 0.961 . S
C446 H460 0.961 . S
C447 C444 1.539 . S
C447 H461 0.958 . S
C447 H462 0.961 . S
C447 H463 0.960 . S
H448 C432 0.931 . S
H449 C437 0.929 . S
H450 C438 0.960 . S
H451 C438 0.962 . S
H452 C438 0.960 . S
H453 C439 0.961 . S
H454 C439 0.961 . S
H455 C439 0.961 . S
H456 C440 0.931 . S
H457 C445 0.930 . S
H458 C446 0.956 . S
H459 C446 0.961 . S
H460 C446 0.961 . S
H461 C447 0.958 . S
H462 C447 0.961 . S
H463 C447 0.960 . S
C464 C465 1.391 . S
C464 C466 1.394 . S
C464 H480 0.931 . S
C465 C464 1.391 . S
C465 C469 1.376 . S
C466 C464 1.394 . S
C466 C467 1.369 . S
C466 C470 1.531 . S
C467 C466 1.369 . S
C467 C468 1.410 . S
C467 C475 1.503 . S
C468 C467 1.410 . S
C468 C469 1.392 . S
C468 C471 1.511 . S
C469 C465 1.376 . S
C469 C468 1.392 . S
C469 H481 0.929 . S
C470 C466 1.531 . S
C470 H482 0.960 . S
C470 H483 0.962 . S
C470 H484 0.960 . S
C471 C468 1.511 . S
C471 H485 0.961 . S
C471 H486 0.961 . S
C471 H487 0.961 . S
C472 C473 1.370 . S
C472 C474 1.363 . S
C472 H488 0.931 . S
C473 C472 1.370 . S
C473 C477 1.408 . S
C474 C472 1.363 . S
C474 C475 1.370 . S
C474 C478 1.524 . S
C475 C467 1.503 . S
C475 C474 1.370 . S
C475 C476 1.403 . S
C476 C475 1.403 . S
C476 C477 1.404 . S
C476 C479 1.539 . S
C477 C473 1.408 . S
C477 C476 1.404 . S
C477 H489 0.930 . S
C478 C474 1.524 . S
C478 H490 0.956 . S
C478 H491 0.961 . S
C478 H492 0.961 . S
C479 C476 1.539 . S
C479 H493 0.958 . S
C479 H494 0.961 . S
C479 H495 0.960 . S
H480 C464 0.931 . S
H481 C469 0.929 . S
H482 C470 0.960 . S
H483 C470 0.962 . S
H484 C470 0.960 . S
H485 C471 0.961 . S
H486 C471 0.961 . S
H487 C471 0.961 . S
H488 C472 0.931 . S
H489 C477 0.930 . S
H490 C478 0.956 . S
H491 C478 0.961 . S
H492 C478 0.961 . S
H493 C479 0.958 . S
H494 C479 0.961 . S
H495 C479 0.960 . S
C496 C497 1.391 . S
C496 C498 1.394 . S
C496 H512 0.931 . S
C497 C496 1.391 . S
C497 C501 1.376 . S
C498 C496 1.394 . S
C498 C499 1.369 . S
C498 C502 1.531 . S
C499 C498 1.369 . S
C499 C500 1.410 . S
C499 C507 1.503 . S
C500 C499 1.410 . S
C500 C501 1.392 . S
C500 C503 1.511 . S
C501 C497 1.376 . S
C501 C500 1.392 . S
C501 H513 0.929 . S
C502 C498 1.531 . S
C502 H514 0.960 . S
C502 H515 0.962 . S
C502 H516 0.960 . S
C503 C500 1.511 . S
C503 H517 0.961 . S
C503 H518 0.961 . S
C503 H519 0.961 . S
C504 C505 1.370 . S
C504 C506 1.363 . S
C504 H520 0.931 . S
C505 C504 1.370 . S
C505 C509 1.408 . S
C506 C504 1.363 . S
C506 C507 1.370 . S
C506 C510 1.524 . S
C507 C499 1.503 . S
C507 C506 1.370 . S
C507 C508 1.403 . S
C508 C507 1.403 . S
C508 C509 1.404 . S
C508 C511 1.539 . S
C509 C505 1.408 . S
C509 C508 1.404 . S
C509 H521 0.930 . S
C510 C506 1.524 . S
C510 H522 0.956 . S
C510 H523 0.961 . S
C510 H524 0.961 . S
C511 C508 1.539 . S
C511 H525 0.958 . S
C511 H526 0.961 . S
C511 H527 0.960 . S
H512 C496 0.931 . S
H513 C501 0.929 . S
H514 C502 0.960 . S
H515 C502 0.962 . S
H516 C502 0.960 . S
H517 C503 0.961 . S
H518 C503 0.961 . S
H519 C503 0.961 . S
H520 C504 0.931 . S
H521 C509 0.930 . S
H522 C510 0.956 . S
H523 C510 0.961 . S
H524 C510 0.961 . S
H525 C511 0.958 . S
H526 C511 0.961 . S
H527 C511 0.960 . S
C528 C529 1.391 . S
C528 C530 1.394 . S
C528 H544 0.931 . S
C529 C528 1.391 . S
C529 C533 1.376 1_455 S
C530 C528 1.394 . S
C530 C531 1.369 . S
C530 C534 1.531 . S
C531 C530 1.369 . S
C531 C532 1.410 1_455 S
C531 C539 1.503 . S
C532 C531 1.410 1_655 S
C532 C533 1.392 . S
C532 C535 1.511 . S
C533 C529 1.376 1_655 S
C533 C532 1.392 . S
C533 H545 0.929 . S
C534 C530 1.531 . S
C534 H546 0.960 . S
C534 H547 0.962 . S
C534 H548 0.960 . S
C535 C532 1.511 . S
C535 H549 0.961 . S
C535 H550 0.961 . S
C535 H551 0.961 . S
C536 C537 1.370 . S
C536 C538 1.363 . S
C536 H552 0.931 . S
C537 C536 1.370 . S
C537 C541 1.408 . S
C538 C536 1.363 . S
C538 C539 1.370 . S
C538 C542 1.524 . S
C539 C531 1.503 . S
C539 C538 1.370 . S
C539 C540 1.403 . S
C540 C539 1.403 . S
C540 C541 1.404 . S
C540 C543 1.539 1_455 S
C541 C537 1.408 . S
C541 C540 1.404 . S
C541 H553 0.930 1_455 S
C542 C538 1.524 . S
C542 H554 0.956 . S
C542 H555 0.961 . S
C542 H556 0.961 . S
C543 C540 1.539 1_655 S
C543 H557 0.958 . S
C543 H558 0.961 . S
C543 H559 0.960 . S
H544 C528 0.931 . S
H545 C533 0.929 . S
H546 C534 0.960 . S
H547 C534 0.962 . S
H548 C534 0.960 . S
H549 C535 0.961 . S
H550 C535 0.961 . S
H551 C535 0.961 . S
H552 C536 0.931 . S
H553 C541 0.930 1_655 S
H554 C542 0.956 . S
H555 C542 0.961 . S
H556 C542 0.961 . S
H557 C543 0.958 . S
H558 C543 0.961 . S
H559 C543 0.960 . S
C560 C561 1.391 . S
C560 C562 1.394 . S
C560 H576 0.931 . S
C561 C560 1.391 . S
C561 C565 1.376 . S
C562 C560 1.394 . S
C562 C563 1.369 . S
C562 C566 1.531 . S
C563 C562 1.369 . S
C563 C564 1.410 . S
C563 C571 1.505 1_556 S
C564 C563 1.410 . S
C564 C565 1.392 . S
C564 C567 1.511 1_556 S
C565 C561 1.376 . S
C565 C564 1.392 . S
C565 H577 0.929 . S
C566 C562 1.531 . S
C566 H578 0.960 . S
C566 H579 0.962 . S
C566 H580 0.960 . S
C567 C564 1.511 1_554 S
C567 H581 0.961 . S
C567 H582 0.961 . S
C567 H583 0.961 . S
C568 C569 1.370 . S
C568 C570 1.363 . S
C568 H584 0.931 . S
C569 C568 1.370 . S
C569 C573 1.408 . S
C570 C568 1.363 . S
C570 C571 1.369 . S
C570 C574 1.524 . S
C571 C563 1.505 1_554 S
C571 C570 1.369 . S
C571 C572 1.403 . S
C572 C571 1.403 . S
C572 C573 1.404 . S
C572 C575 1.539 1_554 S
C573 C569 1.408 . S
C573 C572 1.404 . S
C573 H585 0.930 . S
C574 C570 1.524 . S
C574 H586 0.956 1_554 S
C574 H587 0.961 . S
C574 H588 0.961 . S
C575 C572 1.539 1_556 S
C575 H589 0.958 . S
C575 H590 0.952 1_556 S
C575 H591 0.960 . S
H576 C560 0.931 . S
H577 C565 0.929 . S
H578 C566 0.960 . S
H579 C566 0.962 . S
H580 C566 0.960 . S
H581 C567 0.961 . S
H582 C567 0.961 . S
H583 C567 0.961 . S
H584 C568 0.931 . S
H585 C573 0.930 . S
H586 C574 0.956 1_556 S
H587 C574 0.961 . S
H588 C574 0.961 . S
H589 C575 0.958 . S
H590 C575 0.952 1_554 S
H591 C575 0.960 . S
C592 C593 1.391 . S
C592 C594 1.394 . S
C592 H608 0.931 . S
C593 C592 1.391 . S
C593 C597 1.376 . S
C594 C592 1.394 . S
C594 C595 1.369 . S
C594 C598 1.531 1_545 S
C595 C594 1.369 . S
C595 C596 1.410 . S
C595 C603 1.503 1_545 S
C596 C595 1.410 . S
C596 C597 1.392 . S
C596 C599 1.511 . S
C597 C593 1.376 . S
C597 C596 1.392 . S
C597 H609 0.929 . S
C598 C594 1.531 1_565 S
C598 H610 0.960 . S
C598 H611 0.962 . S
C598 H612 0.960 . S
C599 C596 1.511 . S
C599 H613 0.961 . S
C599 H614 0.961 . S
C599 H615 0.961 . S
C600 C601 1.370 . S
C600 C602 1.363 . S
C600 H616 0.931 . S
C601 C600 1.370 . S
C601 C605 1.408 . S
C602 C600 1.363 . S
C602 C603 1.370 . S
C602 C606 1.524 1_565 S
C603 C595 1.503 1_565 S
C603 C602 1.370 . S
C603 C604 1.403 . S
C604 C603 1.403 . S
C604 C605 1.404 . S
C604 C607 1.539 . S
C605 C601 1.408 . S
C605 C604 1.404 . S
C605 H617 0.930 . S
C606 C602 1.524 1_545 S
C606 H618 0.956 . S
C606 H619 0.961 . S
C606 H620 0.961 . S
C607 C604 1.539 . S
C607 H621 0.958 . S
C607 H622 0.961 . S
C607 H623 0.960 . S
H608 C592 0.931 . S
H609 C597 0.929 . S
H610 C598 0.960 . S
H611 C598 0.962 . S
H612 C598 0.960 . S
H613 C599 0.961 . S
H614 C599 0.961 . S
H615 C599 0.961 . S
H616 C600 0.931 . S
H617 C605 0.930 . S
H618 C606 0.956 . S
H619 C606 0.961 . S
H620 C606 0.961 . S
H621 C607 0.958 . S
H622 C607 0.961 . S
H623 C607 0.960 . S
C624 C625 1.391 1_655 S
C624 C626 1.394 . S
C624 H640 0.931 . S
C625 C624 1.391 1_455 S
C625 C629 1.376 . S
C626 C624 1.394 . S
C626 C627 1.369 1_655 S
C626 C630 1.528 1_564 S
C627 C626 1.369 1_455 S
C627 C628 1.410 . S
C627 C635 1.503 1_564 S
C628 C627 1.410 . S
C628 C629 1.392 . S
C628 C631 1.511 . S
C629 C625 1.376 . S
C629 C628 1.392 . S
C629 H641 0.929 . S
C630 C626 1.528 1_546 S
C630 H642 0.961 . S
C630 H643 0.958 1_545 S
C630 H644 0.953 1_556 S
C631 C628 1.511 . S
C631 H645 0.961 . S
C631 H646 0.961 1_554 S
C631 H647 0.972 . S
C632 C633 1.370 . S
C632 C634 1.363 . S
C632 H648 0.931 . S
C633 C632 1.370 . S
C633 C637 1.408 . S
C634 C632 1.363 . S
C634 C635 1.370 . S
C634 C638 1.524 1_545 S
C635 C627 1.503 1_546 S
C635 C634 1.370 . S
C635 C636 1.403 . S
C636 C635 1.403 . S
C636 C637 1.404 . S
C636 C639 1.539 1_556 S
C637 C633 1.408 . S
C637 C636 1.404 . S
C637 H649 0.930 . S
C638 C634 1.524 1_565 S
C638 H650 0.956 1_455 S
C638 H651 0.961 . S
C638 H652 0.961 . S
C639 C636 1.539 1_554 S
C639 H653 0.958 1_455 S
C639 H654 0.961 . S
C639 H655 0.960 . S
H640 C624 0.931 . S
H641 C629 0.929 . S
H642 C630 0.961 . S
H643 C630 0.958 1_565 S
H644 C630 0.953 1_554 S
H645 C631 0.961 . S
H646 C631 0.961 1_556 S
H647 C631 0.972 . S
H648 C632 0.931 . S
H649 C637 0.930 . S
H650 C638 0.956 1_655 S
H651 C638 0.961 . S
H652 C638 0.961 . S
H653 C639 0.958 1_655 S
H654 C639 0.961 . S
H655 C639 0.960 . S
C656 C657 1.391 . S
C656 C658 1.394 . S
C656 H672 0.931 . S
C657 C656 1.391 . S
C657 C661 1.376 . S
C658 C656 1.394 . S
C658 C659 1.369 . S
C658 C662 1.531 . S
C659 C658 1.369 . S
C659 C660 1.410 . S
C659 C667 1.503 . S
C660 C659 1.410 . S
C660 C661 1.392 . S
C660 C663 1.511 . S
C661 C657 1.376 . S
C661 C660 1.392 . S
C661 H673 0.929 . S
C662 C658 1.531 . S
C662 H674 0.960 . S
C662 H675 0.962 . S
C662 H676 0.960 . S
C663 C660 1.511 . S
C663 H677 0.961 . S
C663 H678 0.961 . S
C663 H679 0.961 . S
C664 C665 1.370 . S
C664 C666 1.363 . S
C664 H680 0.931 . S
C665 C664 1.370 . S
C665 C669 1.408 . S
C666 C664 1.363 . S
C666 C667 1.370 . S
C666 C670 1.524 . S
C667 C659 1.503 . S
C667 C666 1.370 . S
C667 C668 1.403 . S
C668 C667 1.403 . S
C668 C669 1.404 . S
C668 C671 1.539 . S
C669 C665 1.408 . S
C669 C668 1.404 . S
C669 H681 0.930 . S
C670 C666 1.524 . S
C670 H682 0.956 . S
C670 H683 0.961 . S
C670 H684 0.961 . S
C671 C668 1.539 . S
C671 H685 0.958 . S
C671 H686 0.961 . S
C671 H687 0.960 . S
H672 C656 0.931 . S
H673 C661 0.929 . S
H674 C662 0.960 . S
H675 C662 0.962 . S
H676 C662 0.960 . S
H677 C663 0.961 . S
H678 C663 0.961 . S
H679 C663 0.961 . S
H680 C664 0.931 . S
H681 C669 0.930 . S
H682 C670 0.956 . S
H683 C670 0.961 . S
H684 C670 0.961 . S
H685 C671 0.958 . S
H686 C671 0.961 . S
H687 C671 0.960 . S
C688 C689 1.391 . S
C688 C690 1.394 . S
C688 H704 0.931 . S
C689 C688 1.391 . S
C689 C693 1.376 . S
C690 C688 1.394 . S
C690 C691 1.369 . S
C690 C694 1.531 . S
C691 C690 1.369 . S
C691 C692 1.410 . S
C691 C699 1.503 . S
C692 C691 1.410 . S
C692 C693 1.392 . S
C692 C695 1.511 . S
C693 C689 1.376 . S
C693 C692 1.392 . S
C693 H705 0.929 . S
C694 C690 1.531 . S
C694 H706 0.960 . S
C694 H707 0.962 . S
C694 H708 0.960 . S
C695 C692 1.511 . S
C695 H709 0.961 . S
C695 H710 0.961 . S
C695 H711 0.961 . S
C696 C697 1.370 . S
C696 C698 1.363 . S
C696 H712 0.931 . S
C697 C696 1.370 . S
C697 C701 1.408 1_554 S
C698 C696 1.363 . S
C698 C699 1.370 1_554 S
C698 C702 1.524 . S
C699 C691 1.503 . S
C699 C698 1.370 1_556 S
C699 C700 1.403 . S
C700 C699 1.403 . S
C700 C701 1.404 . S
C700 C703 1.539 . S
C701 C697 1.408 1_556 S
C701 C700 1.404 . S
C701 H713 0.930 . S
C702 C698 1.524 . S
C702 H714 0.956 . S
C702 H715 0.961 . S
C702 H716 0.961 . S
C703 C700 1.539 . S
C703 H717 0.958 . S
C703 H718 0.961 . S
C703 H719 0.960 . S
H704 C688 0.931 . S
H705 C693 0.929 . S
H706 C694 0.960 . S
H707 C694 0.962 . S
H708 C694 0.960 . S
H709 C695 0.961 . S
H710 C695 0.961 . S
H711 C695 0.961 . S
H712 C696 0.931 . S
H713 C701 0.930 . S
H714 C702 0.956 . S
H715 C702 0.961 . S
H716 C702 0.961 . S
H717 C703 0.958 . S
H718 C703 0.961 . S
H719 C703 0.960 . S
C720 C721 1.391 . S
C720 C722 1.394 . S
C720 H736 0.931 . S
C721 C720 1.391 . S
C721 C725 1.376 . S
C722 C720 1.394 . S
C722 C723 1.369 . S
C722 C726 1.531 . S
C723 C722 1.369 . S
C723 C724 1.410 . S
C723 C731 1.503 . S
C724 C723 1.410 . S
C724 C725 1.392 . S
C724 C727 1.511 . S
C725 C721 1.376 . S
C725 C724 1.392 . S
C725 H737 0.929 . S
C726 C722 1.531 . S
C726 H738 0.960 . S
C726 H739 0.962 . S
C726 H740 0.960 . S
C727 C724 1.511 . S
C727 H741 0.961 . S
C727 H742 0.961 . S
C727 H743 0.961 . S
C728 C729 1.370 . S
C728 C730 1.363 . S
C728 H744 0.931 . S
C729 C728 1.370 . S
C729 C733 1.408 . S
C730 C728 1.363 . S
C730 C731 1.370 . S
C730 C734 1.524 . S
C731 C723 1.503 . S
C731 C730 1.370 . S
C731 C732 1.403 . S
C732 C731 1.403 . S
C732 C733 1.404 . S
C732 C735 1.539 . S
C733 C729 1.408 . S
C733 C732 1.404 . S
C733 H745 0.930 . S
C734 C730 1.524 . S
C734 H746 0.956 . S
C734 H747 0.961 . S
C734 H748 0.961 . S
C735 C732 1.539 . S
C735 H749 0.958 . S
C735 H750 0.961 . S
C735 H751 0.960 . S
H736 C720 0.931 . S
H737 C725 0.929 . S
H738 C726 0.960 . S
H739 C726 0.962 . S
H740 C726 0.960 . S
H741 C727 0.961 . S
H742 C727 0.961 . S
H743 C727 0.961 . S
H744 C728 0.931 . S
H745 C733 0.930 . S
H746 C734 0.956 . S
H747 C734 0.961 . S
H748 C734 0.961 . S
H749 C735 0.958 . S
H750 C735 0.961 . S
H751 C735 0.960 . S
C752 C753 1.391 . S
C752 C754 1.394 . S
C752 H768 0.931 . S
C753 C752 1.391 . S
C753 C757 1.376 1_556 S
C754 C752 1.394 . S
C754 C755 1.369 1_556 S
C754 C758 1.531 . S
C755 C754 1.369 1_554 S
C755 C756 1.410 . S
C755 C763 1.503 . S
C756 C755 1.410 . S
C756 C757 1.392 . S
C756 C759 1.511 . S
C757 C753 1.376 1_554 S
C757 C756 1.392 . S
C757 H769 0.929 . S
C758 C754 1.531 . S
C758 H770 0.960 . S
C758 H771 0.962 . S
C758 H772 0.960 . S
C759 C756 1.511 . S
C759 H773 0.961 . S
C759 H774 0.961 . S
C759 H775 0.961 . S
C760 C761 1.370 . S
C760 C762 1.363 . S
C760 H776 0.931 . S
C761 C760 1.370 . S
C761 C765 1.408 . S
C762 C760 1.363 . S
C762 C763 1.370 . S
C762 C766 1.524 . S
C763 C755 1.503 . S
C763 C762 1.370 . S
C763 C764 1.403 . S
C764 C763 1.403 . S
C764 C765 1.404 . S
C764 C767 1.539 . S
C765 C761 1.408 . S
C765 C764 1.404 . S
C765 H777 0.930 . S
C766 C762 1.524 . S
C766 H778 0.956 1_554 S
C766 H779 0.961 . S
C766 H780 0.961 . S
C767 C764 1.539 . S
C767 H781 0.958 . S
C767 H782 0.961 . S
C767 H783 0.960 . S
H768 C752 0.931 . S
H769 C757 0.929 . S
H770 C758 0.960 . S
H771 C758 0.962 . S
H772 C758 0.960 . S
H773 C759 0.961 . S
H774 C759 0.961 . S
H775 C759 0.961 . S
H776 C760 0.931 . S
H777 C765 0.930 . S
H778 C766 0.956 1_556 S
H779 C766 0.961 . S
H780 C766 0.961 . S
H781 C767 0.958 . S
H782 C767 0.961 . S
H783 C767 0.960 . S
C784 C785 1.391 . S
C784 C786 1.394 . S
C784 H800 0.931 . S
C785 C784 1.391 . S
C785 C789 1.376 . S
C786 C784 1.394 . S
C786 C787 1.369 . S
C786 C790 1.531 . S
C787 C786 1.369 . S
C787 C788 1.410 . S
C787 C795 1.503 . S
C788 C787 1.410 . S
C788 C789 1.392 . S
C788 C791 1.511 . S
C789 C785 1.376 . S
C789 C788 1.392 . S
C789 H801 0.929 . S
C790 C786 1.531 . S
C790 H802 0.960 . S
C790 H803 0.962 . S
C790 H804 0.960 . S
C791 C788 1.511 . S
C791 H805 0.961 . S
C791 H806 0.961 . S
C791 H807 0.961 . S
C792 C793 1.370 . S
C792 C794 1.363 . S
C792 H808 0.931 . S
C793 C792 1.370 . S
C793 C797 1.408 . S
C794 C792 1.363 . S
C794 C795 1.370 . S
C794 C798 1.524 . S
C795 C787 1.503 . S
C795 C794 1.370 . S
C795 C796 1.403 . S
C796 C795 1.403 . S
C796 C797 1.404 . S
C796 C799 1.539 . S
C797 C793 1.408 . S
C797 C796 1.404 . S
C797 H809 0.930 . S
C798 C794 1.524 . S
C798 H810 0.956 . S
C798 H811 0.961 . S
C798 H812 0.961 . S
C799 C796 1.539 . S
C799 H813 0.958 . S
C799 H814 0.961 . S
C799 H815 0.960 . S
H800 C784 0.931 . S
H801 C789 0.929 . S
H802 C790 0.960 . S
H803 C790 0.962 . S
H804 C790 0.960 . S
H805 C791 0.961 . S
H806 C791 0.961 . S
H807 C791 0.961 . S
H808 C792 0.931 . S
H809 C797 0.930 . S
H810 C798 0.956 . S
H811 C798 0.961 . S
H812 C798 0.961 . S
H813 C799 0.958 . S
H814 C799 0.961 . S
H815 C799 0.960 . S
C816 C817 1.391 1_556 S
C816 C818 1.394 . S
C816 H832 0.931 . S
C817 C816 1.391 1_554 S
C817 C821 1.376 . S
C818 C816 1.394 . S
C818 C819 1.369 . S
C818 C822 1.531 . S
C819 C818 1.369 . S
C819 C820 1.410 1_556 S
C819 C827 1.503 . S
C820 C819 1.410 1_554 S
C820 C821 1.392 . S
C820 C823 1.511 . S
C821 C817 1.376 . S
C821 C820 1.392 . S
C821 H833 0.929 . S
C822 C818 1.531 . S
C822 H834 0.960 . S
C822 H835 0.962 . S
C822 H836 0.960 . S
C823 C820 1.511 . S
C823 H837 0.961 . S
C823 H838 0.961 . S
C823 H839 0.961 . S
C824 C825 1.370 . S
C824 C826 1.363 . S
C824 H840 0.931 . S
C825 C824 1.370 . S
C825 C829 1.408 . S
C826 C824 1.363 . S
C826 C827 1.370 . S
C826 C830 1.524 . S
C827 C819 1.503 . S
C827 C826 1.370 . S
C827 C828 1.403 . S
C828 C827 1.403 . S
C828 C829 1.404 . S
C828 C831 1.539 . S
C829 C825 1.408 . S
C829 C828 1.404 . S
C829 H841 0.930 . S
C830 C826 1.524 . S
C830 H842 0.956 . S
C830 H843 0.961 . S
C830 H844 0.961 . S
C831 C828 1.539 . S
C831 H845 0.958 . S
C831 H846 0.961 . S
C831 H847 0.960 . S
H832 C816 0.931 . S
H833 C821 0.929 . S
H834 C822 0.960 . S
H835 C822 0.962 . S
H836 C822 0.960 . S
H837 C823 0.961 . S
H838 C823 0.961 . S
H839 C823 0.961 . S
H840 C824 0.931 . S
H841 C829 0.930 . S
H842 C830 0.956 . S
H843 C830 0.961 . S
H844 C830 0.961 . S
H845 C831 0.958 . S
H846 C831 0.961 . S
H847 C831 0.960 . S
C848 C849 1.391 . S
C848 C850 1.394 . S
C848 H864 0.931 . S
C849 C848 1.391 . S
C849 C853 1.376 . S
C850 C848 1.394 . S
C850 C851 1.369 . S
C850 C854 1.531 . S
C851 C850 1.369 . S
C851 C852 1.410 . S
C851 C859 1.503 . S
C852 C851 1.410 . S
C852 C853 1.392 . S
C852 C855 1.511 . S
C853 C849 1.376 . S
C853 C852 1.392 . S
C853 H865 0.929 . S
C854 C850 1.531 . S
C854 H866 0.960 . S
C854 H867 0.962 . S
C854 H868 0.960 . S
C855 C852 1.511 . S
C855 H869 0.961 . S
C855 H870 0.961 . S
C855 H871 0.961 . S
C856 C857 1.370 . S
C856 C858 1.363 . S
C856 H872 0.931 . S
C857 C856 1.370 . S
C857 C861 1.408 . S
C858 C856 1.363 . S
C858 C859 1.370 . S
C858 C862 1.524 . S
C859 C851 1.503 . S
C859 C858 1.370 . S
C859 C860 1.403 . S
C860 C859 1.403 . S
C860 C861 1.404 . S
C860 C863 1.539 . S
C861 C857 1.408 . S
C861 C860 1.404 . S
C861 H873 0.930 . S
C862 C858 1.524 . S
C862 H874 0.956 . S
C862 H875 0.961 . S
C862 H876 0.961 . S
C863 C860 1.539 . S
C863 H877 0.958 . S
C863 H878 0.961 . S
C863 H879 0.960 . S
H864 C848 0.931 . S
H865 C853 0.929 . S
H866 C854 0.960 . S
H867 C854 0.962 . S
H868 C854 0.960 . S
H869 C855 0.961 . S
H870 C855 0.961 . S
H871 C855 0.961 . S
H872 C856 0.931 . S
H873 C861 0.930 . S
H874 C862 0.956 . S
H875 C862 0.961 . S
H876 C862 0.961 . S
H877 C863 0.958 . S
H878 C863 0.961 . S
H879 C863 0.960 . S
C880 C881 1.391 . S
C880 C882 1.394 . S
C880 H896 0.931 . S
C881 C880 1.391 . S
C881 C885 1.376 1_556 S
C882 C880 1.394 . S
C882 C883 1.369 1_556 S
C882 C886 1.531 . S
C883 C882 1.369 1_554 S
C883 C884 1.410 . S
C883 C891 1.503 . S
C884 C883 1.410 . S
C884 C885 1.392 . S
C884 C887 1.511 . S
C885 C881 1.376 1_554 S
C885 C884 1.392 . S
C885 H897 0.929 . S
C886 C882 1.531 . S
C886 H898 0.960 . S
C886 H899 0.962 . S
C886 H900 0.960 . S
C887 C884 1.511 . S
C887 H901 0.961 . S
C887 H902 0.961 . S
C887 H903 0.961 . S
C888 C889 1.370 . S
C888 C890 1.363 . S
C888 H904 0.931 . S
C889 C888 1.370 . S
C889 C893 1.408 . S
C890 C888 1.363 . S
C890 C891 1.370 . S
C890 C894 1.524 . S
C891 C883 1.503 . S
C891 C890 1.370 . S
C891 C892 1.403 . S
C892 C891 1.403 . S
C892 C893 1.404 . S
C892 C895 1.539 . S
C893 C889 1.408 . S
C893 C892 1.404 . S
C893 H905 0.930 . S
C894 C890 1.524 . S
C894 H906 0.956 1_554 S
C894 H907 0.961 . S
C894 H908 0.961 . S
C895 C892 1.539 . S
C895 H909 0.958 . S
C895 H910 0.961 . S
C895 H911 0.960 . S
H896 C880 0.931 . S
H897 C885 0.929 . S
H898 C886 0.960 . S
H899 C886 0.962 . S
H900 C886 0.960 . S
H901 C887 0.961 . S
H902 C887 0.961 . S
H903 C887 0.961 . S
H904 C888 0.931 . S
H905 C893 0.930 . S
H906 C894 0.956 1_556 S
H907 C894 0.961 . S
H908 C894 0.961 . S
H909 C895 0.958 . S
H910 C895 0.961 . S
H911 C895 0.960 . S
C273 C5 1.683 . S
C281 C107 1.675 . S
C305 C39 1.502 . S
C313 C88 1.538 . S
C337 C77 1.529 . S
C345 C54 1.535 . S
C369 C122 1.340 . S
C377 C20 1.336 . S
C401 C141 1.675 . S
C409 C243 1.667 . S
C433 C224 1.535 . S
C441 C175 1.493 . S
C465 C190 1.534 . S
C473 C213 1.521 . S
C497 C258 1.337 . S
C505 C156 1.339 . S
C529 C101 1.669 . S
C537 C33 1.642 . S
C561 C67 1.485 . S
C569 C135 1.455 . S
C593 C237 1.669 . S
C601 C169 1.642 . S
C625 C271 1.474 . S
C633 C203 1.477 . S
C657 C2 1.960 . S
C665 C206 1.966 . S
C689 C36 1.196 . S
C697 C247 1.165 . S
C721 C73 1.350 . S
C729 C145 1.361 . S
C753 C179 1.612 . S
C761 C104 1.622 . S
C785 C70 1.965 . S
C793 C138 1.968 . S
C817 C111 1.130 . S
C825 C172 1.202 . S
C849 C9 1.318 . S
C857 C209 1.328 . S
C881 C43 1.612 . S
C889 C240 1.622 . S
