# Generated by pormake.
# Topology uou, (4)-cn, num edge types: 1
# Building blocks:
#     Node 0, Type 0, BuildingBlock: CEKHIL_clean_sbu_0, # of connection points: 4
#     Node 1, Type 0, BuildingBlock: CEKHIL_clean_sbu_0, # of connection points: 4
#     Node 2, Type 0, BuildingBlock: CEKHIL_clean_sbu_0, # of connection points: 4
#     Node 3, Type 0, BuildingBlock: CEKHIL_clean_sbu_0, # of connection points: 4
#     Node 4, Type 0, BuildingBlock: CEKHIL_clean_sbu_0, # of connection points: 4
#     Node 5, Type 0, BuildingBlock: CEKHIL_clean_sbu_0, # of connection points: 4
#     Node 6, Type 0, BuildingBlock: CEKHIL_clean_sbu_0, # of connection points: 4
#     Node 7, Type 0, BuildingBlock: CEKHIL_clean_sbu_0, # of connection points: 4
#     Node 8, Type 0, BuildingBlock: CEKHIL_clean_sbu_0, # of connection points: 4
#     Node 9, Type 0, BuildingBlock: CEKHIL_clean_sbu_0, # of connection points: 4
#     Node 10, Type 0, BuildingBlock: CEKHIL_clean_sbu_0, # of connection points: 4
#     Node 11, Type 0, BuildingBlock: CEKHIL_clean_sbu_0, # of connection points: 4
#     Node 12, Type 0, BuildingBlock: CEKHIL_clean_sbu_0, # of connection points: 4
#     Node 13, Type 0, BuildingBlock: CEKHIL_clean_sbu_0, # of connection points: 4
#     Node 14, Type 0, BuildingBlock: CEKHIL_clean_sbu_0, # of connection points: 4
#     Node 15, Type 0, BuildingBlock: CEKHIL_clean_sbu_0, # of connection points: 4
#     Edge 16, Type (0, 0), BuildingBlock: UVAHIK_clean_linker_0, # of connection points: 2
#     Edge 17, Type (0, 0), BuildingBlock: UVAHIK_clean_linker_0, # of connection points: 2
#     Edge 18, Type (0, 0), BuildingBlock: UVAHIK_clean_linker_0, # of connection points: 2
#     Edge 19, Type (0, 0), BuildingBlock: UVAHIK_clean_linker_0, # of connection points: 2
#     Edge 20, Type (0, 0), BuildingBlock: UVAHIK_clean_linker_0, # of connection points: 2
#     Edge 21, Type (0, 0), BuildingBlock: UVAHIK_clean_linker_0, # of connection points: 2
#     Edge 22, Type (0, 0), BuildingBlock: UVAHIK_clean_linker_0, # of connection points: 2
#     Edge 23, Type (0, 0), BuildingBlock: UVAHIK_clean_linker_0, # of connection points: 2
#     Edge 24, Type (0, 0), BuildingBlock: UVAHIK_clean_linker_0, # of connection points: 2
#     Edge 25, Type (0, 0), BuildingBlock: UVAHIK_clean_linker_0, # of connection points: 2
#     Edge 26, Type (0, 0), BuildingBlock: UVAHIK_clean_linker_0, # of connection points: 2
#     Edge 27, Type (0, 0), BuildingBlock: UVAHIK_clean_linker_0, # of connection points: 2
#     Edge 28, Type (0, 0), BuildingBlock: UVAHIK_clean_linker_0, # of connection points: 2
#     Edge 29, Type (0, 0), BuildingBlock: UVAHIK_clean_linker_0, # of connection points: 2
#     Edge 30, Type (0, 0), BuildingBlock: UVAHIK_clean_linker_0, # of connection points: 2
#     Edge 31, Type (0, 0), BuildingBlock: UVAHIK_clean_linker_0, # of connection points: 2
#     Edge 32, Type (0, 0), BuildingBlock: UVAHIK_clean_linker_0, # of connection points: 2
#     Edge 33, Type (0, 0), BuildingBlock: UVAHIK_clean_linker_0, # of connection points: 2
#     Edge 34, Type (0, 0), BuildingBlock: UVAHIK_clean_linker_0, # of connection points: 2
#     Edge 35, Type (0, 0), BuildingBlock: UVAHIK_clean_linker_0, # of connection points: 2
#     Edge 36, Type (0, 0), BuildingBlock: UVAHIK_clean_linker_0, # of connection points: 2
#     Edge 37, Type (0, 0), BuildingBlock: UVAHIK_clean_linker_0, # of connection points: 2
#     Edge 38, Type (0, 0), BuildingBlock: UVAHIK_clean_linker_0, # of connection points: 2
#     Edge 39, Type (0, 0), BuildingBlock: UVAHIK_clean_linker_0, # of connection points: 2
#     Edge 40, Type (0, 0), BuildingBlock: UVAHIK_clean_linker_0, # of connection points: 2
#     Edge 41, Type (0, 0), BuildingBlock: UVAHIK_clean_linker_0, # of connection points: 2
#     Edge 42, Type (0, 0), BuildingBlock: UVAHIK_clean_linker_0, # of connection points: 2
#     Edge 43, Type (0, 0), BuildingBlock: UVAHIK_clean_linker_0, # of connection points: 2
#     Edge 44, Type (0, 0), BuildingBlock: UVAHIK_clean_linker_0, # of connection points: 2
#     Edge 45, Type (0, 0), BuildingBlock: UVAHIK_clean_linker_0, # of connection points: 2
#     Edge 46, Type (0, 0), BuildingBlock: UVAHIK_clean_linker_0, # of connection points: 2
#     Edge 47, Type (0, 0), BuildingBlock: UVAHIK_clean_linker_0, # of connection points: 2
# Relax obj value: 0.038
# Max RMSD: 0.067
# Mean RMSD: 0.067
data_MOF--net-uou--node1-CEKHIL_clean_sbu_0--edge1-UVAHIK_clean_linker_0
_symmetry_space_group_name_H-M    P1
_symmetry_Int_Tables_number       1
_symmetry_cell_setting            triclinic
loop_
_symmetry_equiv_pos_as_xyz
'x, y, z'
_cell_length_a     48.650513
_cell_length_b     51.728117
_cell_length_c     69.298844
_cell_angle_alpha  89.994159
_cell_angle_beta   89.997788
_cell_angle_gamma 90.001796
loop_
_atom_site_label
_atom_site_type_symbol
_atom_site_fract_x
_atom_site_fract_y
_atom_site_fract_z
_atom_type_partial_charge
Co0 Co 0.07532 0.06857 0.11832 0.0
O1 O 0.09986 0.03938 0.1189 0.0
O2 O 0.10978 0.07721 0.10574 0.0
C3 C 0.06211 0.06662 0.14949 0.0
O4 O 0.05539 0.10333 0.11575 0.0
Co5 Co 0.01276 0.0604 0.12624 0.0
O6 O 0.01258 0.09864 0.12763 0.0
C7 C 0.03666 0.0436 0.0893 0.0
C8 C 0.11754 0.05378 0.10991 0.0
C9 C 0.03201 0.11271 0.12114 0.0
O10 O 0.05914 0.05574 0.09317 0.0
O11 O 0.01695 0.04118 0.1014 0.0
O12 O 0.08524 0.07761 0.14494 0.0
O13 O 0.04965 0.05502 0.13556 0.0
Co14 Co 0.43067 0.93109 0.11878 0.0
O15 O 0.40769 0.96136 0.11894 0.0
O16 O 0.39623 0.92402 0.1056 0.0
C17 C 0.44268 0.93243 0.15018 0.0
O18 O 0.44896 0.8955 0.11654 0.0
Co19 Co 0.49325 0.93655 0.12789 0.0
O20 O 0.49121 0.89842 0.12966 0.0
C21 C 0.47194 0.95333 0.09011 0.0
C22 C 0.38957 0.94778 0.10968 0.0
C23 C 0.47152 0.88516 0.12263 0.0
O24 O 0.44838 0.94314 0.09393 0.0
O25 O 0.49156 0.95455 0.10238 0.0
O26 O 0.41923 0.92249 0.14513 0.0
O27 O 0.45632 0.94351 0.13654 0.0
Co28 Co 0.5744 0.93064 0.37081 0.0
O29 O 0.59723 0.96105 0.3711 0.0
O30 O 0.60908 0.9233 0.38358 0.0
C31 C 0.56192 0.93327 0.3395 0.0
O32 O 0.5565 0.89478 0.37248 0.0
Co33 Co 0.51167 0.93515 0.36191 0.0
O34 O 0.51471 0.89727 0.35862 0.0
C35 C 0.53291 0.95102 0.40003 0.0
C36 C 0.61559 0.94721 0.3799 0.0
C37 C 0.53447 0.88419 0.36573 0.0
O38 O 0.55683 0.94172 0.39599 0.0
O39 O 0.51316 0.95195 0.38784 0.0
O40 O 0.58547 0.92316 0.34414 0.0
O41 O 0.54838 0.94352 0.35353 0.0
Co42 Co 0.92923 0.06852 0.36957 0.0
O43 O 0.90546 0.03873 0.36999 0.0
O44 O 0.8953 0.07657 0.38303 0.0
C45 C 0.9405 0.06629 0.33804 0.0
O46 O 0.94822 0.10384 0.37122 0.0
Co47 Co 0.99147 0.06231 0.3597 0.0
O48 O 0.98979 0.10039 0.35715 0.0
C49 C 0.97104 0.04671 0.39806 0.0
C50 C 0.88786 0.05294 0.37923 0.0
C51 C 0.97054 0.11391 0.36449 0.0
O52 O 0.94731 0.05666 0.39435 0.0
O53 O 0.99039 0.04529 0.38559 0.0
O54 O 0.9174 0.07679 0.34325 0.0
O55 O 0.95425 0.0553 0.35167 0.0
Co56 Co 0.92779 0.93157 0.87027 0.0
O57 O 0.90349 0.96095 0.86988 0.0
O58 O 0.89375 0.92342 0.88359 0.0
C59 C 0.93972 0.93283 0.83885 0.0
O60 O 0.94753 0.89672 0.87279 0.0
Co61 Co 0.99008 0.93923 0.86107 0.0
O62 O 0.98988 0.90096 0.86004 0.0
C63 C 0.96785 0.95657 0.89838 0.0
C64 C 0.88602 0.94683 0.8793 0.0
C65 C 0.97062 0.88711 0.86704 0.0
O66 O 0.94508 0.94467 0.89497 0.0
O67 O 0.98714 0.95867 0.88592 0.0
O68 O 0.91668 0.92214 0.844 0.0
O69 O 0.95287 0.94461 0.85239 0.0
Co70 Co 0.5732 0.07015 0.87048 0.0
O71 O 0.59636 0.04001 0.87017 0.0
O72 O 0.60761 0.07728 0.8837 0.0
C73 C 0.5612 0.06903 0.83907 0.0
O74 O 0.55466 0.10561 0.87289 0.0
Co75 Co 0.51066 0.0643 0.86136 0.0
O76 O 0.51234 0.10247 0.85989 0.0
C77 C 0.53212 0.04734 0.89904 0.0
C78 C 0.61439 0.05358 0.87951 0.0
C79 C 0.53195 0.11583 0.86694 0.0
O80 O 0.55558 0.05777 0.89527 0.0
O81 O 0.51252 0.04605 0.88676 0.0
O82 O 0.58458 0.07906 0.84418 0.0
O83 O 0.54764 0.05774 0.85266 0.0
Co84 Co 0.42958 0.07106 0.61844 0.0
O85 O 0.40688 0.04057 0.61801 0.0
O86 O 0.39489 0.07837 0.60568 0.0
C87 C 0.44203 0.06825 0.64974 0.0
O88 O 0.4473 0.10701 0.61693 0.0
Co89 Co 0.49231 0.06678 0.62736 0.0
O90 O 0.48907 0.10462 0.63083 0.0
C91 C 0.47122 0.05111 0.58916 0.0
C92 C 0.38846 0.05441 0.60927 0.0
C93 C 0.46925 0.11766 0.62375 0.0
O94 O 0.44723 0.06024 0.59323 0.0
O95 O 0.49096 0.0502 0.60135 0.0
O96 O 0.41844 0.07829 0.64513 0.0
O97 O 0.45564 0.05815 0.63569 0.0
Co98 Co 0.07397 0.93429 0.61907 0.0
O99 O 0.09799 0.96391 0.61884 0.0
O100 O 0.10831 0.92581 0.6063 0.0
C101 C 0.06146 0.93713 0.65036 0.0
O102 O 0.05478 0.89906 0.61731 0.0
Co103 Co 0.01143 0.94085 0.62779 0.0
O104 O 0.01278 0.9028 0.63068 0.0
C105 C 0.03339 0.95604 0.58974 0.0
C106 C 0.11579 0.94945 0.61001 0.0
C107 C 0.0322 0.88914 0.62373 0.0
O108 O 0.05691 0.94595 0.59387 0.0
O109 O 0.01365 0.95769 0.60189 0.0
O110 O 0.08467 0.92634 0.64572 0.0
O111 O 0.04837 0.94794 0.63635 0.0
Co112 Co 0.57445 0.56829 0.11825 0.0
O113 O 0.59863 0.53884 0.11839 0.0
O114 O 0.60834 0.57643 0.10476 0.0
C115 C 0.56296 0.56692 0.14974 0.0
O116 O 0.5548 0.6032 0.11597 0.0
Co117 Co 0.51226 0.56089 0.12778 0.0
O118 O 0.51289 0.59911 0.12946 0.0
C119 C 0.53365 0.54459 0.08992 0.0
C120 C 0.61604 0.55298 0.10892 0.0
C121 C 0.53201 0.61289 0.1222 0.0
O122 O 0.55687 0.55553 0.09359 0.0
O123 O 0.51422 0.54277 0.10231 0.0
O124 O 0.58596 0.57754 0.14444 0.0
O125 O 0.54954 0.55521 0.13627 0.0
Co126 Co 0.92912 0.43074 0.11895 0.0
O127 O 0.90588 0.46084 0.11907 0.0
O128 O 0.89458 0.42327 0.10603 0.0
C129 C 0.94161 0.43267 0.15026 0.0
O130 O 0.94765 0.39524 0.11679 0.0
Co131 Co 0.99178 0.43649 0.12769 0.0
O132 O 0.98992 0.39837 0.12987 0.0
C133 C 0.9696 0.45388 0.09032 0.0
C134 C 0.8878 0.44704 0.10997 0.0
C135 C 0.97022 0.38501 0.12295 0.0
O136 O 0.94645 0.44277 0.09396 0.0
O137 O 0.98914 0.45546 0.10264 0.0
O138 O 0.91818 0.4224 0.1455 0.0
O139 O 0.95491 0.44355 0.13638 0.0
Co140 Co 0.07274 0.43171 0.37092 0.0
O141 O 0.09643 0.46153 0.3712 0.0
O142 O 0.10691 0.42367 0.38409 0.0
C143 C 0.06099 0.43399 0.33951 0.0
O144 O 0.05374 0.39639 0.37262 0.0
Co145 Co 0.01036 0.43828 0.36162 0.0
O146 O 0.01175 0.40018 0.35924 0.0
C147 C 0.03157 0.45367 0.39978 0.0
C148 C 0.11421 0.44734 0.38027 0.0
C149 C 0.03113 0.38649 0.36624 0.0
O150 O 0.0551 0.44349 0.39586 0.0
O151 O 0.01203 0.45534 0.38747 0.0
O152 O 0.08419 0.42351 0.34452 0.0
O153 O 0.04747 0.445 0.35324 0.0
Co154 Co 0.42876 0.56798 0.36944 0.0
O155 O 0.40464 0.53855 0.36854 0.0
O156 O 0.39414 0.57597 0.38214 0.0
C157 C 0.44197 0.56688 0.33826 0.0
O158 O 0.44848 0.6028 0.37238 0.0
Co159 Co 0.49137 0.55988 0.36149 0.0
O160 O 0.49153 0.59815 0.36089 0.0
C161 C 0.46744 0.5424 0.39818 0.0
C162 C 0.38678 0.55249 0.37774 0.0
C163 C 0.47202 0.61218 0.36734 0.0
O164 O 0.44507 0.55479 0.39445 0.0
O165 O 0.48708 0.53999 0.38603 0.0
O166 O 0.41871 0.57751 0.34294 0.0
O167 O 0.45449 0.555 0.35204 0.0
Co168 Co 0.42984 0.43322 0.86953 0.0
O169 O 0.40635 0.46312 0.86919 0.0
O170 O 0.39568 0.42588 0.883 0.0
C171 C 0.44149 0.43409 0.83806 0.0
O172 O 0.44883 0.39801 0.87205 0.0
Co173 Co 0.49221 0.43964 0.8601 0.0
O174 O 0.49087 0.40143 0.85864 0.0
C175 C 0.47085 0.45683 0.89774 0.0
C176 C 0.38861 0.44947 0.87874 0.0
C177 C 0.47151 0.38797 0.86592 0.0
O178 O 0.44757 0.44597 0.89414 0.0
O179 O 0.49031 0.45831 0.88535 0.0
O180 O 0.41826 0.42392 0.84335 0.0
O181 O 0.45506 0.44569 0.8515 0.0
Co182 Co 0.07478 0.56993 0.8712 0.0
O183 O 0.09889 0.54041 0.8712 0.0
O184 O 0.10897 0.57831 0.8842 0.0
C185 C 0.06253 0.56764 0.83986 0.0
O186 O 0.05539 0.60501 0.87323 0.0
Co187 Co 0.01235 0.56299 0.86224 0.0
O188 O 0.01333 0.60114 0.85996 0.0
C189 C 0.03451 0.54643 0.89984 0.0
C190 C 0.11654 0.55474 0.88028 0.0
C191 C 0.03269 0.61485 0.86696 0.0
O192 O 0.05759 0.55767 0.89617 0.0
O193 O 0.01505 0.54453 0.8875 0.0
O194 O 0.08566 0.57844 0.84468 0.0
O195 O 0.04942 0.55649 0.85371 0.0
Co196 Co 0.93106 0.57077 0.6194 0.0
O197 O 0.90802 0.54055 0.61956 0.0
O198 O 0.89665 0.57786 0.60615 0.0
C199 C 0.94296 0.56947 0.6508 0.0
O200 O 0.94949 0.60633 0.61718 0.0
Co201 Co 0.99359 0.56502 0.62857 0.0
O202 O 0.99171 0.60316 0.63032 0.0
C203 C 0.97228 0.54821 0.59083 0.0
C204 C 0.88996 0.55411 0.61025 0.0
C205 C 0.9721 0.61655 0.6233 0.0
O206 O 0.94879 0.5586 0.5946 0.0
O207 O 0.99186 0.54691 0.60312 0.0
O208 O 0.91955 0.57945 0.64571 0.0
O209 O 0.9566 0.55832 0.6372 0.0
Co210 Co 0.5758 0.43338 0.61846 0.0
O211 O 0.60054 0.4624 0.61908 0.0
O212 O 0.61015 0.42462 0.60573 0.0
C213 C 0.56278 0.43511 0.64966 0.0
O214 O 0.55551 0.39882 0.61583 0.0
Co215 Co 0.51337 0.44225 0.62655 0.0
O216 O 0.5127 0.404 0.62761 0.0
C217 C 0.53725 0.45889 0.58959 0.0
C218 C 0.61807 0.44798 0.60998 0.0
C219 C 0.53196 0.38971 0.62112 0.0
O220 O 0.55958 0.44646 0.59338 0.0
O221 O 0.51767 0.46158 0.60176 0.0
O222 O 0.58582 0.42404 0.64499 0.0
O223 O 0.55038 0.44699 0.63583 0.0
C224 C 0.33937 0.94311 0.10172 0.0
C225 C 0.36237 0.95895 0.1049 0.0
C226 C 0.3132 0.95406 0.09934 0.0
C227 C 0.27527 0.01518 0.10978 0.0
H228 H 0.2181 0.98308 0.07908 0.0
C229 C 0.16719 0.06079 0.10124 0.0
C230 C 0.14538 0.04387 0.10537 0.0
C231 C 0.19392 0.05122 0.0987 0.0
C232 C 0.2339 0.99225 0.08771 0.0
H233 H 0.37632 0.99864 0.10693 0.0
H234 H 0.33122 0.0177 0.10198 0.0
H235 H 0.26445 0.9649 0.07888 0.0
H236 H 0.13425 0.0036 0.10924 0.0
H237 H 0.18066 0.98696 0.10448 0.0
H238 H 0.24469 0.04261 0.11848 0.0
C239 C 0.33294 0.99683 0.10207 0.0
C240 C 0.26045 0.98175 0.0877 0.0
C241 C 0.35892 0.9859 0.10476 0.0
C242 C 0.15064 0.01716 0.10615 0.0
C243 C 0.1772 0.00759 0.10331 0.0
C244 C 0.24886 0.02584 0.10958 0.0
C245 C 0.30955 0.98111 0.09982 0.0
C246 C 0.28149 0.9929 0.09891 0.0
C247 C 0.19923 0.02452 0.09989 0.0
C248 C 0.22779 0.01434 0.09873 0.0
H249 H 0.3414 0.92226 0.10185 0.0
H250 H 0.29575 0.94123 0.09785 0.0
H251 H 0.29059 0.02407 0.11896 0.0
H252 H 0.16379 0.08147 0.10057 0.0
H253 H 0.2105 0.06472 0.09596 0.0
C254 C 0.64654 0.98514 0.38492 0.0
C255 C 0.64292 0.95821 0.38457 0.0
C256 C 0.67263 0.9959 0.38755 0.0
C257 C 0.74518 0.98023 0.40146 0.0
H258 H 0.76098 0.04163 0.37131 0.0
C259 C 0.85509 0.01606 0.38328 0.0
C260 C 0.86023 0.04279 0.38413 0.0
C261 C 0.82857 0.00636 0.38615 0.0
C262 C 0.75681 0.0247 0.38004 0.0
H263 H 0.66375 0.92139 0.38717 0.0
H264 H 0.70954 0.94006 0.39107 0.0
H265 H 0.71502 0.02325 0.37075 0.0
H266 H 0.84167 0.08026 0.38916 0.0
H267 H 0.7951 0.06331 0.39387 0.0
H268 H 0.78758 0.98128 0.41 0.0
C269 C 0.69215 0.953 0.38978 0.0
C270 C 0.73036 0.01413 0.37978 0.0
C271 C 0.66589 0.94223 0.38746 0.0
C272 C 0.83837 0.05958 0.38844 0.0
C273 C 0.8117 0.04989 0.39102 0.0
C274 C 0.77178 0.99065 0.40151 0.0
C275 C 0.69596 0.98003 0.38953 0.0
C276 C 0.72411 0.99167 0.39044 0.0
C277 C 0.80647 0.02319 0.38967 0.0
C278 C 0.7779 0.01295 0.39072 0.0
H279 H 0.62919 0.998 0.38296 0.0
H280 H 0.67446 0.01676 0.38781 0.0
H281 H 0.74117 0.96322 0.41012 0.0
H282 H 0.87151 0.0026 0.38004 0.0
H283 H 0.82519 0.98574 0.38487 0.0
C284 C 0.85322 0.98366 0.88315 0.0
C285 C 0.85834 0.95694 0.88407 0.0
C286 C 0.82672 0.99339 0.88603 0.0
C287 C 0.75501 0.97536 0.8799 0.0
H288 H 0.7396 0.03665 0.91026 0.0
C289 C 0.64505 0.0155 0.88453 0.0
C290 C 0.6416 0.04245 0.8843 0.0
C291 C 0.67102 0.00458 0.88724 0.0
C292 C 0.74355 0.01969 0.90153 0.0
H293 H 0.83977 0.91949 0.88918 0.0
H294 H 0.79319 0.9365 0.89385 0.0
H295 H 0.7859 0.01833 0.91017 0.0
H296 H 0.66258 0.07915 0.88725 0.0
H297 H 0.70824 0.06018 0.89128 0.0
H298 H 0.7133 0.97715 0.87049 0.0
C299 C 0.80981 0.94989 0.89098 0.0
C300 C 0.77007 0.00912 0.90159 0.0
C301 C 0.83647 0.94017 0.88841 0.0
C302 C 0.66461 0.0583 0.88743 0.0
C303 C 0.69078 0.04736 0.88983 0.0
C304 C 0.72864 0.98609 0.87962 0.0
C305 C 0.80462 0.9766 0.88961 0.0
C306 C 0.77611 0.9869 0.8907 0.0
C307 C 0.69443 0.0203 0.88943 0.0
C308 C 0.72248 0.00848 0.89038 0.0
H309 H 0.86965 0.99711 0.87989 0.0
H310 H 0.82336 0.01402 0.88472 0.0
H311 H 0.75914 0.95849 0.8711 0.0
H312 H 0.62764 0.00276 0.8824 0.0
H313 H 0.67272 0.98371 0.88741 0.0
C314 C 0.14885 0.98613 0.60607 0.0
C315 C 0.14357 0.95942 0.60532 0.0
C316 C 0.17543 0.99568 0.60323 0.0
C317 C 0.24715 0.97711 0.60941 0.0
H318 H 0.26292 0.03831 0.57904 0.0
C319 C 0.3575 0.01646 0.6043 0.0
C320 C 0.36114 0.04339 0.6046 0.0
C321 C 0.33141 0.00571 0.6017 0.0
C322 C 0.25888 0.02138 0.58776 0.0
H323 H 0.16198 0.92181 0.60054 0.0
H324 H 0.20866 0.93851 0.59588 0.0
H325 H 0.21646 0.02038 0.57927 0.0
H326 H 0.34033 0.08022 0.60193 0.0
H327 H 0.29453 0.06156 0.59807 0.0
H328 H 0.28898 0.97852 0.61864 0.0
C329 C 0.19211 0.95203 0.59862 0.0
C330 C 0.23225 0.01103 0.5878 0.0
C331 C 0.16538 0.94249 0.60119 0.0
C332 C 0.33818 0.05938 0.60168 0.0
C333 C 0.31192 0.04861 0.59938 0.0
C334 C 0.27364 0.98761 0.60958 0.0
C335 C 0.19747 0.97873 0.59983 0.0
C336 C 0.22607 0.98885 0.5987 0.0
C337 C 0.30809 0.02159 0.59969 0.0
C338 C 0.27993 0.00997 0.59882 0.0
H339 H 0.13247 0.99969 0.60917 0.0
H340 H 0.17891 0.0163 0.6044 0.0
H341 H 0.24295 0.96027 0.61821 0.0
H342 H 0.37485 0.00361 0.60629 0.0
H343 H 0.32955 0.98485 0.60149 0.0
C344 C 0.83762 0.44206 0.10204 0.0
C345 C 0.86056 0.45802 0.10509 0.0
C346 C 0.81144 0.45288 0.09944 0.0
C347 C 0.77332 0.51417 0.10891 0.0
H348 H 0.71644 0.48133 0.07837 0.0
C349 C 0.66549 0.55965 0.09963 0.0
C350 C 0.64367 0.54287 0.10405 0.0
C351 C 0.69216 0.54997 0.09707 0.0
C352 C 0.73216 0.49071 0.08695 0.0
H353 H 0.87439 0.49778 0.10665 0.0
H354 H 0.82928 0.51661 0.1013 0.0
H355 H 0.7628 0.46314 0.07864 0.0
H356 H 0.63243 0.5027 0.10834 0.0
H357 H 0.67876 0.48585 0.10356 0.0
H358 H 0.74267 0.54179 0.1171 0.0
C359 C 0.83105 0.49576 0.10168 0.0
C360 C 0.75872 0.48021 0.08721 0.0
C361 C 0.85703 0.48495 0.10459 0.0
C362 C 0.64883 0.51615 0.10502 0.0
C363 C 0.67534 0.50646 0.10217 0.0
C364 C 0.74692 0.52482 0.10844 0.0
C365 C 0.80771 0.47992 0.09955 0.0
C366 C 0.77964 0.49165 0.09837 0.0
C367 C 0.69741 0.52328 0.09855 0.0
C368 C 0.72596 0.51307 0.09763 0.0
H369 H 0.83971 0.42121 0.10242 0.0
H370 H 0.79403 0.43998 0.09804 0.0
H371 H 0.78855 0.52328 0.11805 0.0
H372 H 0.66215 0.58033 0.09881 0.0
H373 H 0.70875 0.56338 0.09416 0.0
C374 C 0.33661 0.55806 0.38569 0.0
C375 C 0.35929 0.54185 0.3824 0.0
C376 C 0.31026 0.54752 0.3882 0.0
C377 C 0.27122 0.48684 0.37822 0.0
H378 H 0.21527 0.5192 0.40988 0.0
C379 C 0.16396 0.44087 0.38879 0.0
C380 C 0.14187 0.45758 0.38493 0.0
C381 C 0.19064 0.45068 0.391 0.0
C382 C 0.23072 0.50996 0.40098 0.0
H383 H 0.37247 0.50194 0.38028 0.0
H384 H 0.32713 0.48361 0.38547 0.0
H385 H 0.26168 0.53729 0.40918 0.0
H386 H 0.13019 0.49775 0.38131 0.0
H387 H 0.17656 0.51483 0.38547 0.0
H388 H 0.24029 0.45944 0.37017 0.0
C389 C 0.3292 0.50445 0.38534 0.0
C390 C 0.2573 0.52041 0.40048 0.0
C391 C 0.35533 0.51496 0.38252 0.0
C392 C 0.1468 0.48435 0.3842 0.0
C393 C 0.17334 0.49417 0.38669 0.0
C394 C 0.24481 0.47624 0.37894 0.0
C395 C 0.30612 0.52053 0.38775 0.0
C396 C 0.27792 0.5091 0.38897 0.0
C397 C 0.19566 0.47743 0.3897 0.0
C398 C 0.22419 0.48778 0.39019 0.0
H399 H 0.33905 0.57887 0.3856 0.0
H400 H 0.29305 0.56061 0.38984 0.0
H401 H 0.28618 0.47785 0.3688 0.0
H402 H 0.16082 0.42015 0.38941 0.0
H403 H 0.20743 0.43733 0.39345 0.0
C404 C 0.14944 0.51801 0.88431 0.0
C405 C 0.14427 0.54474 0.88501 0.0
C406 C 0.17601 0.5084 0.88708 0.0
C407 C 0.24748 0.5267 0.88013 0.0
H408 H 0.2639 0.46581 0.91069 0.0
C409 C 0.35776 0.48736 0.88392 0.0
C410 C 0.36141 0.46043 0.88374 0.0
C411 C 0.33177 0.49812 0.88687 0.0
C412 C 0.25966 0.48266 0.90191 0.0
H413 H 0.16279 0.58231 0.88968 0.0
H414 H 0.20947 0.5655 0.89418 0.0
H415 H 0.21748 0.48386 0.91095 0.0
H416 H 0.34078 0.42361 0.88702 0.0
H417 H 0.29506 0.44229 0.89145 0.0
H418 H 0.28901 0.52506 0.87032 0.0
C419 C 0.19284 0.55202 0.89155 0.0
C420 C 0.23307 0.49308 0.90217 0.0
C421 C 0.16613 0.56163 0.88907 0.0
C422 C 0.33859 0.44444 0.88716 0.0
C423 C 0.31239 0.45522 0.88978 0.0
C424 C 0.27391 0.51612 0.87966 0.0
C425 C 0.1981 0.52532 0.89035 0.0
C426 C 0.22668 0.51516 0.89121 0.0
C427 C 0.30854 0.48225 0.88933 0.0
C428 C 0.28043 0.49389 0.89049 0.0
H429 H 0.13301 0.50448 0.88127 0.0
H430 H 0.17943 0.48776 0.88592 0.0
H431 H 0.24308 0.54345 0.87127 0.0
H432 H 0.37503 0.50021 0.88158 0.0
H433 H 0.32992 0.51898 0.88698 0.0
C434 C 0.65122 0.48452 0.60611 0.0
C435 C 0.64593 0.45781 0.60538 0.0
C436 C 0.67779 0.49405 0.60328 0.0
C437 C 0.7494 0.47579 0.60971 0.0
H438 H 0.76508 0.53675 0.57904 0.0
C439 C 0.85941 0.51595 0.60523 0.0
C440 C 0.8628 0.54291 0.60539 0.0
C441 C 0.83347 0.50497 0.60246 0.0
C442 C 0.76106 0.51989 0.58785 0.0
H443 H 0.66429 0.42018 0.60069 0.0
H444 H 0.71104 0.43687 0.59609 0.0
H445 H 0.71877 0.51849 0.57909 0.0
H446 H 0.84178 0.57956 0.60227 0.0
H447 H 0.79619 0.5605 0.59813 0.0
H448 H 0.79107 0.47764 0.61923 0.0
C449 C 0.69447 0.45038 0.59877 0.0
C450 C 0.73453 0.50934 0.58777 0.0
C451 C 0.66772 0.44085 0.60131 0.0
C452 C 0.83979 0.5587 0.60214 0.0
C453 C 0.81366 0.5477 0.59968 0.0
C454 C 0.77579 0.4865 0.61 0.0
C455 C 0.69982 0.47709 0.59992 0.0
C456 C 0.72838 0.48726 0.59879 0.0
C457 C 0.81006 0.52065 0.60014 0.0
C458 C 0.78203 0.50879 0.59914 0.0
H459 H 0.63484 0.49811 0.60916 0.0
H460 H 0.68127 0.51468 0.60442 0.0
H461 H 0.7452 0.45903 0.61861 0.0
H462 H 0.87682 0.50325 0.60745 0.0
H463 H 0.8318 0.4841 0.60236 0.0
C464 C 0.93499 0.07618 0.30284 0.0
C465 C 0.95189 0.06915 0.31842 0.0
C466 C 0.94601 0.07834 0.28425 0.0
C467 C 0.00782 0.09192 0.2573 0.0
H468 H 0.98141 0.04372 0.21874 0.0
C469 C 0.06492 0.07622 0.18492 0.0
C470 C 0.04929 0.06939 0.16868 0.0
C471 C 0.05251 0.07801 0.20311 0.0
C472 C 0.98871 0.05778 0.22911 0.0
H473 H 0.9936 0.05938 0.32683 0.0
H474 H 0.01285 0.06405 0.29454 0.0
H475 H 0.9596 0.04508 0.25031 0.0
H476 H 0.00829 0.05999 0.15863 0.0
H477 H 0.9865 0.06456 0.18977 0.0
H478 H 0.03648 0.10521 0.23613 0.0
C479 C 0.99112 0.06762 0.29672 0.0
C480 C 0.97623 0.05839 0.24723 0.0
C481 C 0.98003 0.06485 0.31515 0.0
C482 C 0.02099 0.06506 0.17086 0.0
C483 C 0.0085 0.06745 0.18886 0.0
C484 C 0.01996 0.09175 0.23901 0.0
C485 C 0.97418 0.07415 0.28112 0.0
C486 C 0.98588 0.07525 0.2615 0.0
C487 C 0.0241 0.07351 0.20533 0.0
C488 C 0.01075 0.07446 0.2247 0.0
H489 H 0.91323 0.07958 0.30497 0.0
H490 H 0.93261 0.08333 0.27233 0.0
H491 H 0.01553 0.1051 0.26819 0.0
H492 H 0.08682 0.0796 0.18364 0.0
H493 H 0.06535 0.08236 0.21544 0.0
C494 C 0.43721 0.92327 0.18545 0.0
C495 C 0.45423 0.92932 0.16972 0.0
C496 C 0.4483 0.92126 0.20403 0.0
C497 C 0.51014 0.90739 0.23117 0.0
H498 H 0.48357 0.95658 0.26898 0.0
C499 C 0.56586 0.92393 0.30406 0.0
C500 C 0.54976 0.93073 0.32008 0.0
C501 C 0.55396 0.92213 0.2857 0.0
C502 C 0.49092 0.94228 0.25882 0.0
H503 H 0.49622 0.93727 0.16096 0.0
H504 H 0.51557 0.93291 0.19326 0.0
H505 H 0.46214 0.95465 0.23731 0.0
H506 H 0.50848 0.94024 0.32953 0.0
H507 H 0.48761 0.93572 0.2981 0.0
H508 H 0.53847 0.89443 0.2527 0.0
C509 C 0.4937 0.93001 0.19123 0.0
C510 C 0.47866 0.94132 0.24064 0.0
C511 C 0.48256 0.93263 0.17279 0.0
C512 C 0.52154 0.93514 0.31749 0.0
C513 C 0.50957 0.93279 0.29932 0.0
C514 C 0.52207 0.90793 0.24953 0.0
C515 C 0.47663 0.92463 0.20701 0.0
C516 C 0.48832 0.92405 0.22664 0.0
C517 C 0.52562 0.92664 0.28309 0.0
C518 C 0.51275 0.92553 0.26358 0.0
H519 H 0.4153 0.92064 0.18348 0.0
H520 H 0.43479 0.91713 0.21607 0.0
H521 H 0.51786 0.89389 0.22051 0.0
H522 H 0.5877 0.92049 0.30565 0.0
H523 H 0.56711 0.9177 0.27354 0.0
C524 C 0.02094 0.93982 0.67222 0.0
C525 C 0.04901 0.93454 0.66969 0.0
C526 C 0.00865 0.93715 0.69027 0.0
C527 C 0.01966 0.90973 0.73952 0.0
H528 H 0.9608 0.95728 0.75247 0.0
C529 C 0.97973 0.93357 0.81638 0.0
C530 C 0.95143 0.92985 0.81935 0.0
C531 C 0.99103 0.93123 0.79797 0.0
C532 C 0.977 0.94372 0.74892 0.0
H533 H 0.08637 0.92256 0.68413 0.0
H534 H 0.06528 0.91924 0.71604 0.0
H535 H 0.98277 0.96013 0.72101 0.0
H536 H 0.91274 0.92068 0.80544 0.0
H537 H 0.93252 0.91773 0.77287 0.0
H538 H 0.01467 0.89457 0.76816 0.0
C539 C 0.05245 0.92456 0.70391 0.0
C540 C 0.98958 0.9452 0.73086 0.0
C541 C 0.06465 0.92667 0.68566 0.0
C542 C 0.93462 0.92361 0.80354 0.0
C543 C 0.94587 0.92192 0.78499 0.0
C544 C 0.00745 0.90867 0.75777 0.0
C545 C 0.02424 0.92982 0.70645 0.0
C546 C 0.01104 0.92817 0.72584 0.0
C547 C 0.97415 0.92573 0.78212 0.0
C548 C 0.986 0.92562 0.76254 0.0
H549 H 0.00823 0.94578 0.66022 0.0
H550 H 0.98679 0.94072 0.69142 0.0
H551 H 0.03574 0.89599 0.73614 0.0
H552 H 0.99324 0.93836 0.82825 0.0
H553 H 0.01287 0.93446 0.79602 0.0
C554 C 0.43806 0.07749 0.6852 0.0
C555 C 0.45417 0.07074 0.66918 0.0
C556 C 0.44995 0.07929 0.70356 0.0
C557 C 0.51303 0.05928 0.73045 0.0
H558 H 0.48596 0.10763 0.76874 0.0
C559 C 0.56665 0.07837 0.80383 0.0
C560 C 0.54964 0.07222 0.81955 0.0
C561 C 0.55557 0.0804 0.78525 0.0
C562 C 0.49372 0.09414 0.75809 0.0
H563 H 0.49548 0.06129 0.65972 0.0
H564 H 0.51633 0.06582 0.69117 0.0
H565 H 0.46537 0.10703 0.73655 0.0
H566 H 0.50767 0.06417 0.82828 0.0
H567 H 0.48832 0.06858 0.79598 0.0
H568 H 0.54183 0.04698 0.75196 0.0
C569 C 0.49436 0.06872 0.68994 0.0
C570 C 0.48179 0.09357 0.73973 0.0
C571 C 0.4824 0.06636 0.67177 0.0
C572 C 0.52132 0.06887 0.81647 0.0
C573 C 0.51018 0.07152 0.79803 0.0
C574 C 0.52528 0.06027 0.74863 0.0
C575 C 0.4783 0.07483 0.70617 0.0
C576 C 0.49116 0.07598 0.72568 0.0
C577 C 0.52725 0.07697 0.78226 0.0
C578 C 0.51558 0.07753 0.76262 0.0
H579 H 0.41621 0.0809 0.68361 0.0
H580 H 0.43678 0.08369 0.71572 0.0
H581 H 0.52042 0.04499 0.72029 0.0
H582 H 0.58856 0.08103 0.80581 0.0
H583 H 0.56908 0.08458 0.77322 0.0
C584 C 0.52335 0.5659 0.17259 0.0
C585 C 0.55148 0.5702 0.16928 0.0
C586 C 0.51227 0.56898 0.19101 0.0
C587 C 0.52783 0.56062 0.24058 0.0
H588 H 0.46648 0.60622 0.25152 0.0
C589 C 0.48318 0.56673 0.31695 0.0
C590 C 0.45475 0.57022 0.31911 0.0
C591 C 0.4956 0.56953 0.29896 0.0
C592 C 0.48333 0.5931 0.24868 0.0
H593 H 0.59011 0.58104 0.18262 0.0
H594 H 0.57075 0.58532 0.2152 0.0
H595 H 0.48718 0.60609 0.21937 0.0
H596 H 0.41693 0.57946 0.30417 0.0
H597 H 0.4383 0.58289 0.27238 0.0
H598 H 0.52326 0.54627 0.26921 0.0
C599 C 0.55735 0.58008 0.20334 0.0
C600 C 0.49531 0.59326 0.23033 0.0
C601 C 0.56835 0.57762 0.18477 0.0
C602 C 0.43893 0.57672 0.3029 0.0
C603 C 0.45128 0.57889 0.28471 0.0
C604 C 0.51552 0.56001 0.25875 0.0
C605 C 0.52921 0.57581 0.20654 0.0
C606 C 0.51762 0.577 0.22618 0.0
C607 C 0.47982 0.57514 0.28249 0.0
C608 C 0.49308 0.57624 0.2631 0.0
H609 H 0.50982 0.56019 0.16096 0.0
H610 H 0.49056 0.56535 0.19323 0.0
H611 H 0.54476 0.54763 0.23755 0.0
H612 H 0.49602 0.562 0.32919 0.0
H613 H 0.51768 0.56726 0.29805 0.0
C614 C 0.06612 0.42419 0.30431 0.0
C615 C 0.04937 0.43118 0.31997 0.0
C616 C 0.05494 0.42207 0.28578 0.0
C617 C 0.99275 0.4089 0.25903 0.0
H618 H 0.02048 0.45601 0.22015 0.0
C619 C 0.93751 0.42392 0.18575 0.0
C620 C 0.95377 0.42998 0.16965 0.0
C621 C 0.94936 0.42238 0.20414 0.0
C622 C 0.01279 0.44227 0.23063 0.0
H623 H 0.00774 0.44089 0.3286 0.0
H624 H 0.98819 0.43633 0.29638 0.0
H625 H 0.04185 0.4549 0.25187 0.0
H626 H 0.99529 0.43818 0.16004 0.0
H627 H 0.01605 0.43402 0.19154 0.0
H628 H 0.96415 0.39566 0.23778 0.0
C629 C 0.00993 0.43275 0.29845 0.0
C630 C 0.02502 0.44179 0.24882 0.0
C631 C 0.02119 0.43547 0.31685 0.0
C632 C 0.98211 0.43372 0.17216 0.0
C633 C 0.99402 0.43158 0.19036 0.0
C634 C 0.98085 0.40894 0.24066 0.0
C635 C 0.02674 0.42629 0.28277 0.0
C636 C 0.01496 0.42528 0.26319 0.0
C637 C 0.9778 0.42636 0.20669 0.0
C638 C 0.9906 0.42577 0.22622 0.0
H639 H 0.08791 0.42079 0.30632 0.0
H640 H 0.06824 0.41711 0.2738 0.0
H641 H 0.98472 0.39599 0.26997 0.0
H642 H 0.91557 0.421 0.18421 0.0
H643 H 0.93609 0.41864 0.21637 0.0
C644 C 0.52168 0.43656 0.67106 0.0
C645 C 0.54993 0.432 0.66881 0.0
C646 C 0.50915 0.43373 0.68901 0.0
C647 C 0.52032 0.40786 0.73877 0.0
H648 H 0.46073 0.45505 0.75082 0.0
C649 C 0.48118 0.43415 0.81528 0.0
C650 C 0.45291 0.43064 0.81852 0.0
C651 C 0.49219 0.43113 0.79684 0.0
C652 C 0.47714 0.44158 0.74753 0.0
H653 H 0.58732 0.4209 0.68359 0.0
H654 H 0.56581 0.41738 0.71533 0.0
H655 H 0.48242 0.45689 0.71924 0.0
H656 H 0.41397 0.4212 0.80505 0.0
H657 H 0.43323 0.41705 0.77243 0.0
H658 H 0.51582 0.39386 0.76778 0.0
C659 C 0.55303 0.42225 0.70307 0.0
C660 C 0.48954 0.44247 0.72939 0.0
C661 C 0.56547 0.42449 0.68492 0.0
C662 C 0.43583 0.42399 0.80294 0.0
C663 C 0.44679 0.42161 0.78436 0.0
C664 C 0.50826 0.4074 0.75709 0.0
C665 C 0.52467 0.42698 0.70537 0.0
C666 C 0.51132 0.42563 0.72472 0.0
C667 C 0.47505 0.42516 0.78122 0.0
C668 C 0.4866 0.42426 0.76156 0.0
H669 H 0.50905 0.44214 0.65892 0.0
H670 H 0.48719 0.43681 0.68997 0.0
H671 H 0.53663 0.39426 0.73566 0.0
H672 H 0.49487 0.43924 0.82698 0.0
H673 H 0.51401 0.43419 0.79467 0.0
C674 C 0.02219 0.56521 0.81786 0.0
C675 C 0.05025 0.57036 0.8205 0.0
C676 C 0.0101 0.56775 0.79975 0.0
C677 C 0.02168 0.59433 0.75034 0.0
H678 H 0.9633 0.5462 0.73747 0.0
C679 C 0.98282 0.56948 0.67342 0.0
C680 C 0.95447 0.57263 0.67034 0.0
C681 C 0.99392 0.57212 0.69186 0.0
C682 C 0.97937 0.55991 0.741 0.0
H683 H 0.08781 0.58212 0.80621 0.0
H684 H 0.06707 0.58522 0.77417 0.0
H685 H 0.98485 0.54404 0.7691 0.0
H686 H 0.91547 0.58107 0.68408 0.0
H687 H 0.9349 0.58457 0.7167 0.0
H688 H 0.01696 0.60897 0.72153 0.0
C689 C 0.05409 0.58007 0.78626 0.0
C690 C 0.9917 0.55883 0.75915 0.0
C691 C 0.06609 0.57809 0.80458 0.0
C692 C 0.93739 0.57856 0.68607 0.0
C693 C 0.94844 0.58057 0.70465 0.0
C694 C 0.0097 0.595 0.732 0.0
C695 C 0.02591 0.57481 0.78361 0.0
C696 C 0.01297 0.57608 0.76413 0.0
C697 C 0.97679 0.57736 0.70763 0.0
C698 C 0.98843 0.57783 0.72726 0.0
H699 H 0.00933 0.55939 0.82983 0.0
H700 H 0.98824 0.56422 0.7985 0.0
H701 H 0.03763 0.60821 0.7537 0.0
H702 H 0.99652 0.56493 0.6616 0.0
H703 H 0.0158 0.56934 0.69391 0.0
C704 C 0.00299 0.15149 0.12816 0.0
C705 C 0.02665 0.14092 0.11954 0.0
C706 C 0.99693 0.17772 0.12639 0.0
C707 C 0.02818 0.2411 0.11582 0.0
H708 H 0.95185 0.26229 0.11201 0.0
C709 C 0.99522 0.34495 0.1327 0.0
C710 C 0.97453 0.35667 0.12155 0.0
C711 C 1.00115 0.31873 0.1307 0.0
C712 C 0.97329 0.25677 0.11282 0.0
H713 H 0.06264 0.14994 0.10235 0.0
H714 H 0.05186 0.19597 0.09906 0.0
H715 H 0.96355 0.21654 0.11078 0.0
H716 H 0.94337 0.34975 0.09981 0.0
H717 H 0.95399 0.30372 0.09609 0.0
H718 H 0.03797 0.28133 0.11755 0.0
C719 C 0.03812 0.18382 0.10736 0.0
C720 C 0.98001 0.23048 0.11236 0.0
C721 C 0.04429 0.15743 0.10922 0.0
C722 C 0.95938 0.34129 0.10865 0.0
C723 C 0.96548 0.31492 0.10653 0.0
C724 C 0.02148 0.26738 0.11617 0.0
C725 C 0.01424 0.19424 0.11585 0.0
C726 C 0.00748 0.22228 0.1143 0.0
C727 C 0.98673 0.30341 0.11737 0.0
C728 C 0.9939 0.27555 0.11513 0.0
H729 H 0.98903 0.13951 0.13643 0.0
H730 H 0.97877 0.1851 0.13355 0.0
H731 H 0.04952 0.23555 0.11741 0.0
H732 H 0.00704 0.3561 0.14302 0.0
H733 H 0.01705 0.31045 0.13972 0.0
C734 C 0.49834 0.84534 0.13046 0.0
C735 C 0.47583 0.85681 0.12101 0.0
C736 C 0.5039 0.81908 0.12835 0.0
C737 C 0.4729 0.75671 0.11493 0.0
H738 H 0.54928 0.73529 0.11275 0.0
C739 C 0.50523 0.65235 0.13108 0.0
C740 C 0.52684 0.64108 0.12054 0.0
C741 C 0.49899 0.6785 0.12905 0.0
C742 C 0.52784 0.74087 0.11308 0.0
H743 H 0.44114 0.84931 0.10218 0.0
H744 H 0.45101 0.80312 0.09838 0.0
H745 H 0.5379 0.7811 0.11234 0.0
H746 H 0.55907 0.64871 0.0997 0.0
H747 H 0.54793 0.69459 0.09595 0.0
H748 H 0.46283 0.71647 0.11545 0.0
C749 C 0.46427 0.81465 0.10751 0.0
C750 C 0.5213 0.76718 0.11309 0.0
C751 C 0.45862 0.84111 0.10967 0.0
C752 C 0.54237 0.6568 0.10809 0.0
C753 C 0.53598 0.68309 0.10596 0.0
C754 C 0.47944 0.73038 0.11484 0.0
C755 C 0.48721 0.80342 0.11666 0.0
C756 C 0.49379 0.77545 0.1145 0.0
C757 C 0.51403 0.6942 0.11632 0.0
C758 C 0.50703 0.72213 0.11437 0.0
H759 H 0.51188 0.85667 0.13953 0.0
H760 H 0.52126 0.811 0.13605 0.0
H761 H 0.45152 0.76235 0.11606 0.0
H762 H 0.49303 0.64095 0.14101 0.0
H763 H 0.48247 0.68648 0.13767 0.0
C764 C 0.45908 0.65709 0.37861 0.0
C765 C 0.47753 0.64034 0.36923 0.0
C766 C 0.46525 0.68347 0.38055 0.0
C767 C 0.52396 0.72983 0.37782 0.0
H768 H 0.46704 0.78071 0.36864 0.0
C769 C 0.54452 0.84074 0.38068 0.0
C770 C 0.53066 0.85579 0.36688 0.0
C771 C 0.53831 0.81439 0.38279 0.0
C772 C 0.48325 0.76675 0.37114 0.0
H773 H 0.51675 0.63854 0.35424 0.0
H774 H 0.52704 0.68404 0.3573 0.0
H775 H 0.45519 0.735 0.3691 0.0
H776 H 0.50057 0.85466 0.34377 0.0
H777 H 0.49044 0.80899 0.34705 0.0
H778 H 0.55222 0.76152 0.37899 0.0
C779 C 0.50816 0.67687 0.36362 0.0
C780 C 0.47635 0.74052 0.37168 0.0
C781 C 0.50208 0.65067 0.36173 0.0
C782 C 0.51133 0.84374 0.35477 0.0
C783 C 0.50532 0.81753 0.35676 0.0
C784 C 0.53088 0.75606 0.37718 0.0
C785 C 0.48997 0.69363 0.37314 0.0
C786 C 0.49671 0.72168 0.37463 0.0
C787 C 0.51827 0.80258 0.37104 0.0
C788 C 0.51071 0.77483 0.37342 0.0
H789 H 0.44002 0.64981 0.38459 0.0
H790 H 0.45081 0.69584 0.38804 0.0
H791 H 0.5401 0.71587 0.3805 0.0
H792 H 0.55944 0.84948 0.39027 0.0
H793 H 0.54866 0.80347 0.39396 0.0
C794 C 0.00358 0.34722 0.35799 0.0
C795 C 0.02642 0.35815 0.36742 0.0
C796 C 0.99782 0.32093 0.35961 0.0
C797 C 0.02874 0.25789 0.37131 0.0
H798 H 0.95235 0.23659 0.37411 0.0
C799 C 0.99606 0.15374 0.35476 0.0
C800 C 0.97511 0.14223 0.36581 0.0
C801 C 0.00207 0.17997 0.35665 0.0
C802 C 0.9738 0.24215 0.37358 0.0
H803 H 0.06143 0.34964 0.38571 0.0
H804 H 0.05121 0.30342 0.38864 0.0
H805 H 0.96391 0.28238 0.37508 0.0
H806 H 0.94364 0.14954 0.38726 0.0
H807 H 0.95435 0.19556 0.39074 0.0
H808 H 0.03866 0.21764 0.37004 0.0
C809 C 0.03785 0.3154 0.37991 0.0
C810 C 0.98043 0.26844 0.3739 0.0
C811 C 0.0437 0.34188 0.37825 0.0
C812 C 0.95985 0.15781 0.37851 0.0
C813 C 0.966 0.18418 0.38049 0.0
C814 C 0.02211 0.23158 0.37106 0.0
C815 C 0.01463 0.30469 0.37074 0.0
C816 C 0.00794 0.27667 0.37234 0.0
C817 C 0.98744 0.19549 0.36973 0.0
C818 C 0.99452 0.22339 0.37177 0.0
H819 H 0.98995 0.359 0.3493 0.0
H820 H 0.98022 0.31329 0.35192 0.0
H821 H 0.05011 0.26349 0.37003 0.0
H822 H 0.00801 0.14245 0.34462 0.0
H823 H 0.01816 0.18811 0.34772 0.0
C824 C 0.00676 0.65451 0.8574 0.0
C825 C 0.0279 0.64312 0.86833 0.0
C826 C 1.00069 0.68073 0.85925 0.0
C827 C 0.02899 0.74307 0.87603 0.0
H828 H 0.9527 0.76433 0.87209 0.0
C829 C 0.9992 0.84808 0.85993 0.0
C830 C 0.97587 0.85891 0.8688 0.0
C831 C 0.00518 0.82186 0.86186 0.0
C832 C 0.97406 0.75877 0.87349 0.0
H833 H 0.05959 0.65063 0.88958 0.0
H834 H 0.04871 0.69661 0.89305 0.0
H835 H 0.96417 0.71852 0.87232 0.0
H836 H 0.94033 0.85033 0.88658 0.0
H837 H 0.95097 0.8043 0.89013 0.0
H838 H 0.03884 0.78332 0.87751 0.0
C839 C 0.037 0.68516 0.88288 0.0
C840 C 0.98071 0.73247 0.87335 0.0
C841 C 0.04324 0.65881 0.88091 0.0
C842 C 0.95844 0.84265 0.87952 0.0
C843 C 0.96452 0.81626 0.88152 0.0
C844 C 0.02233 0.76937 0.87627 0.0
C845 C 0.01541 0.69637 0.8722 0.0
C846 C 0.0083 0.72428 0.87418 0.0
C847 C 0.98811 0.8056 0.87281 0.0
C848 C 0.99483 0.77758 0.87456 0.0
H849 H 0.99475 0.64313 0.84734 0.0
H850 H 0.98448 0.68876 0.85037 0.0
H851 H 0.05044 0.73755 0.87665 0.0
H852 H 0.01299 0.85986 0.85137 0.0
H853 H 0.0231 0.81428 0.85452 0.0
C854 C 0.49746 0.34809 0.85697 0.0
C855 C 0.47631 0.35975 0.86774 0.0
C856 C 0.50362 0.32196 0.85926 0.0
C857 C 0.47527 0.26009 0.87666 0.0
H858 H 0.55149 0.23857 0.87273 0.0
C859 C 0.50444 0.15543 0.85966 0.0
C860 C 0.5274 0.14413 0.8687 0.0
C861 C 0.49879 0.18167 0.8618 0.0
C862 C 0.53015 0.24422 0.87414 0.0
H863 H 0.44473 0.35282 0.88918 0.0
H864 H 0.45572 0.30695 0.89337 0.0
H865 H 0.54017 0.28445 0.87293 0.0
H866 H 0.56273 0.15194 0.88687 0.0
H867 H 0.55271 0.19809 0.8907 0.0
H868 H 0.46528 0.21988 0.87808 0.0
C869 C 0.46739 0.31814 0.88301 0.0
C870 C 0.5236 0.27055 0.87399 0.0
C871 C 0.46107 0.34441 0.88062 0.0
C872 C 0.5449 0.15999 0.87969 0.0
C873 C 0.53916 0.18643 0.88187 0.0
C874 C 0.48184 0.23378 0.8769 0.0
C875 C 0.48896 0.30667 0.87247 0.0
C876 C 0.49602 0.27881 0.87476 0.0
C877 C 0.51583 0.1975 0.87309 0.0
C878 C 0.5093 0.22549 0.87513 0.0
H879 H 0.50941 0.35919 0.8467 0.0
H880 H 0.51981 0.3137 0.85048 0.0
H881 H 0.45384 0.26568 0.87725 0.0
H882 H 0.49064 0.14399 0.85087 0.0
H883 H 0.48111 0.1896 0.85438 0.0
C884 C 0.49227 0.15813 0.63478 0.0
C885 C 0.47291 0.14608 0.6227 0.0
C886 C 0.49815 0.18437 0.63286 0.0
C887 C 0.47231 0.24589 0.61269 0.0
H888 H 0.54817 0.26689 0.62009 0.0
C889 C 0.50173 0.35147 0.62727 0.0
C890 C 0.52621 0.36157 0.61948 0.0
C891 C 0.49549 0.32527 0.62563 0.0
C892 C 0.52696 0.26139 0.61771 0.0
H893 H 0.44388 0.15244 0.59946 0.0
H894 H 0.45442 0.19851 0.59589 0.0
H895 H 0.53627 0.22121 0.62075 0.0
H896 H 0.56339 0.35172 0.60387 0.0
H897 H 0.55231 0.30571 0.60085 0.0
H898 H 0.46309 0.28609 0.60937 0.0
C899 C 0.46491 0.18756 0.60699 0.0
C900 C 0.52004 0.23517 0.61837 0.0
C901 C 0.45884 0.16117 0.60902 0.0
C902 C 0.5444 0.34461 0.61007 0.0
C903 C 0.53807 0.31824 0.60838 0.0
C904 C 0.47926 0.27212 0.61195 0.0
C905 C 0.48503 0.19936 0.61868 0.0
C906 C 0.49254 0.22711 0.6163 0.0
C907 C 0.51344 0.30829 0.6161 0.0
C908 C 0.50658 0.28025 0.61487 0.0
H909 H 0.50319 0.14719 0.64569 0.0
H910 H 0.5131 0.19291 0.64252 0.0
H911 H 0.45095 0.24044 0.61106 0.0
H912 H 0.48727 0.36379 0.63479 0.0
H913 H 0.47669 0.31826 0.63217 0.0
C914 C 0.04276 0.84521 0.60976 0.0
C915 C 0.02754 0.86084 0.62245 0.0
C916 C 0.0365 0.81886 0.60777 0.0
C917 C 0.98034 0.77147 0.61741 0.0
H918 H 0.03857 0.72074 0.61311 0.0
C919 C 0.95903 0.66092 0.61099 0.0
C920 C 0.97655 0.6449 0.62184 0.0
C921 C 0.96471 0.68742 0.60908 0.0
C922 C 0.02203 0.73466 0.61436 0.0
H923 H 0.99462 0.86076 0.64361 0.0
H924 H 0.98431 0.81511 0.64053 0.0
H925 H 0.05007 0.76652 0.61394 0.0
H926 H 0.01326 0.64454 0.63973 0.0
H927 H 0.02269 0.69022 0.63667 0.0
H928 H 0.95241 0.73951 0.61868 0.0
C929 C 1.00043 0.82319 0.63159 0.0
C930 C 0.02863 0.76096 0.6146 0.0
C931 C 0.00653 0.84941 0.63348 0.0
C932 C 0.99944 0.6561 0.63103 0.0
C933 C 0.00504 0.68238 0.62916 0.0
C934 C 0.97375 0.74515 0.61725 0.0
C935 C 0.01502 0.80761 0.61853 0.0
C936 C 0.00792 0.77971 0.61652 0.0
C937 C 0.988 0.69838 0.61799 0.0
C938 C 0.99457 0.7264 0.61614 0.0
H939 H 0.059 0.85343 0.60101 0.0
H940 H 0.04811 0.80746 0.59751 0.0
H941 H 0.96379 0.78539 0.6185 0.0
H942 H 0.94125 0.65295 0.60371 0.0
H943 H 0.95117 0.69921 0.60034 0.0
C944 C 0.95672 0.96028 0.93372 0.0
C945 C 0.97299 0.96741 0.91783 0.0
C946 C 0.96346 0.96886 0.95229 0.0
C947 C 0.00386 0.01811 0.97867 0.0
H948 H 0.00358 0.96741 0.01988 0.0
C949 C 0.04893 0.04021 0.0541 0.0
C950 C 0.03234 0.03278 0.06975 0.0
C951 C 0.04288 0.03157 0.03542 0.0
C952 C 0.00359 0.98183 0.00856 0.0
H953 H 0.00837 0.99009 0.9089 0.0
H954 H 0.02001 0.00487 0.9411 0.0
H955 H 0.98849 0.9549 0.98765 0.0
H956 H 0.99711 0.00951 0.07814 0.0
H957 H 0.98663 0.9947 0.0458 0.0
H958 H 0.01888 0.04507 -0.0004 0.0
C959 C 0.00208 0.9927 0.93928 0.0
C960 C 0.99482 0.9747 0.99013 0.0
C961 C 0.99547 0.98405 0.92081 0.0
C962 C 0.01025 0.0158 0.06642 0.0
C963 C 0.00432 0.00711 0.04786 0.0
C964 C 0.01261 0.02525 -0.00288 0.0
C965 C 0.98643 0.9849 0.95527 0.0
C966 C 0.99482 0.99276 0.97499 0.0
C967 C 0.02028 0.01517 0.03211 0.0
C968 C 0.01249 0.00721 0.01228 0.0
H969 H 0.93924 0.94753 0.93192 0.0
H970 H 0.95081 0.9628 0.96433 0.0
H971 H 0.00384 0.03253 0.96734 0.0
H972 H 0.06612 0.05323 0.05617 0.0
H973 H 0.05575 0.03786 0.02357 0.0
C974 C 0.50097 0.02636 0.92312 0.0
C975 C 0.52688 0.03687 0.91861 0.0
C976 C 0.49537 0.0171 0.94158 0.0
C977 C 0.51759 0.02269 0.99206 0.0
H978 H 0.4752 0.95975 -0.00141 0.0
C979 C 0.50325 0.97399 0.06598 0.0
C980 C 0.47728 0.96362 0.07049 0.0
C981 C 0.50891 0.98314 0.04749 0.0
C982 C 0.48675 0.97753 -0.003 0.0
H983 H 0.56736 0.04551 0.93009 0.0
H984 H 0.55756 0.02904 0.96243 0.0
H985 H 0.48698 0.97453 0.96622 0.0
H986 H 0.43678 0.95508 0.05902 0.0
H987 H 0.4467 0.97135 0.02664 0.0
H988 H 0.51736 0.02569 0.02285 0.0
C989 C 0.54151 0.02833 0.95161 0.0
C990 C 0.49357 0.98596 0.97846 0.0
C991 C 0.54716 0.03763 0.93306 0.0
C992 C 0.45701 0.96286 0.05604 0.0
C993 C 0.46273 0.97205 0.03746 0.0
C994 C 0.51077 0.01426 0.0106 0.0
C995 C 0.5155 0.01803 0.95606 0.0
C996 C 0.50904 0.00865 0.97579 0.0
C997 C 0.48879 0.98223 0.033 0.0
C998 C 0.4953 0.99157 0.01328 0.0
H999 H 0.48475 0.0255 0.91243 0.0
H1000 H 0.47501 0.00967 0.94461 0.0
H1001 H 0.52912 0.04047 0.99047 0.0
H1002 H 0.51945 0.97484 0.07667 0.0
H1003 H 0.52931 0.99049 0.04446 0.0
C1004 C 0.45593 0.03877 0.55563 0.0
C1005 C 0.47691 0.0413 0.56946 0.0
C1006 C 0.46183 0.02903 0.53722 0.0
C1007 C 0.5136 0.9901 0.51104 0.0
H1008 H 0.48205 0.02172 0.46544 0.0
C1009 C 0.54832 0.96354 0.43349 0.0
C1010 C 0.52731 0.96101 0.41969 0.0
C1011 C 0.5425 0.9734 0.45187 0.0
C1012 C 0.49084 0.01252 0.47805 0.0
H1013 H 0.52068 0.03604 0.57453 0.0
H1014 H 0.53078 0.0195 0.54265 0.0
H1015 H 0.47027 0.03854 0.49725 0.0
H1016 H 0.48356 0.96642 0.41464 0.0
H1017 H 0.47357 0.98315 0.44648 0.0
H1018 H 0.53416 0.96407 0.49184 0.0
C1019 C 0.50972 0.0245 0.54608 0.0
C1020 C 0.48402 0.02213 0.49627 0.0
C1021 C 0.50387 0.03415 0.56438 0.0
C1022 C 0.50039 0.9683 0.42477 0.0
C1023 C 0.49461 0.97807 0.44304 0.0
C1024 C 0.52041 0.98048 0.49283 0.0
C1025 C 0.48879 0.02165 0.53232 0.0
C1026 C 0.49536 0.01105 0.51296 0.0
C1027 C 0.51557 0.9809 0.45678 0.0
C1028 C 0.50907 0.99156 0.47613 0.0
H1029 H 0.43495 0.04406 0.55906 0.0
H1030 H 0.44522 0.0269 0.52694 0.0
H1031 H 0.52239 0.9809 0.52365 0.0
H1032 H 0.56927 0.95815 0.43006 0.0
H1033 H 0.55914 0.97553 0.46213 0.0
C1034 C 0.04886 0.96582 0.55578 0.0
C1035 C 0.02817 0.9658 0.56996 0.0
C1036 C 0.04325 0.97482 0.53712 0.0
C1037 C 0.9939 0.0153 0.50985 0.0
H1038 H 0.02039 0.97708 0.46549 0.0
C1039 C 0.95665 0.03688 0.43221 0.0
C1040 C 0.97692 0.03694 0.41775 0.0
C1041 C 0.96284 0.02805 0.45081 0.0
C1042 C 0.01305 0.98811 0.47773 0.0
H1043 H 0.98529 0.97516 0.57547 0.0
H1044 H 0.97566 0.99039 0.54317 0.0
H1045 H 0.0325 0.96263 0.49789 0.0
H1046 H 0.01966 0.02772 0.41163 0.0
H1047 H 0.03032 0.01272 0.44387 0.0
H1048 H 0.9744 0.04074 0.48971 0.0
C1049 C 0.9963 0.98392 0.54649 0.0
C1050 C 0.02006 0.97986 0.49629 0.0
C1051 C 1.00186 0.975 0.56504 0.0
C1052 C 0.00341 0.02786 0.42231 0.0
C1053 C 0.00956 0.01909 0.44082 0.0
C1054 C 0.98688 0.02354 0.4913 0.0
C1055 C 0.01688 0.98398 0.53231 0.0
C1056 C 0.01047 0.99331 0.51255 0.0
C1057 C 0.9894 0.01908 0.4553 0.0
C1058 C 0.99635 0.01002 0.47503 0.0
H1059 H 0.06935 0.95893 0.55907 0.0
H1060 H 0.05961 0.97483 0.52652 0.0
H1061 H 0.98651 0.0263 0.52209 0.0
H1062 H 0.93603 0.04367 0.4292 0.0
H1063 H 0.94677 0.02802 0.46163 0.0
C1064 C 0.50367 0.52136 0.06626 0.0
C1065 C 0.52837 0.53445 0.07026 0.0
C1066 C 0.49768 0.513 0.0476 0.0
C1067 C 0.52899 0.49775 0.00062 0.0
H1068 H 0.45488 0.5083 0.98147 0.0
C1069 C 0.50081 0.48053 0.92116 0.0
C1070 C 0.47612 0.46733 0.91729 0.0
C1071 C 0.5068 0.48922 0.93972 0.0
C1072 C 0.47557 0.50497 0.98668 0.0
H1073 H 0.56645 0.54847 0.05774 0.0
H1074 H 0.55584 0.53395 0.02504 0.0
H1075 H 0.46675 0.52219 0.01405 0.0
H1076 H 0.43805 0.45351 0.92996 0.0
H1077 H 0.44868 0.46859 0.96251 0.0
H1078 H 0.53781 0.4805 0.97327 0.0
C1079 C 0.54121 0.53006 0.03646 0.0
C1080 C 0.48239 0.51293 0.00533 0.0
C1081 C 0.54725 0.53845 0.05518 0.0
C1082 C 0.45725 0.46359 0.93241 0.0
C1083 C 0.46329 0.47232 0.95105 0.0
C1084 C 0.52218 0.48979 0.98197 0.0
C1085 C 0.5162 0.51751 0.03245 0.0
C1086 C 0.50916 0.50935 0.01253 0.0
C1087 C 0.4883 0.48495 0.95493 0.0
C1088 C 0.49539 0.49332 0.97479 0.0
H1089 H 0.48871 0.5177 0.07751 0.0
H1090 H 0.47849 0.50294 0.04507 0.0
H1091 H 0.54968 0.49439 0.00584 0.0
H1092 H 0.51575 0.48401 0.90987 0.0
H1093 H 0.52598 0.49934 0.94216 0.0
C1094 C 0.99848 0.47966 0.06756 0.0
C1095 C 0.97474 0.46477 0.07088 0.0
C1096 C 0.00462 0.48879 0.04916 0.0
C1097 C 0.97473 0.50253 0.0015 0.0
H1098 H 0.05045 0.49707 0.98432 0.0
C1099 C 0.00557 0.52107 0.92282 0.0
C1100 C 0.02934 0.53586 0.91938 0.0
C1101 C 0.99938 0.51227 0.94131 0.0
C1102 C 0.0293 0.499 0.98899 0.0
H1103 H 0.93842 0.44842 0.05743 0.0
H1104 H 0.94934 0.4643 0.02507 0.0
H1105 H 0.03788 0.48211 0.0165 0.0
H1106 H 0.06566 0.55241 0.93271 0.0
H1107 H 0.05467 0.53707 0.9652 0.0
H1108 H 0.96615 0.5194 0.97398 0.0
C1109 C 0.96308 0.46897 0.03686 0.0
C1110 C 0.02207 0.49042 0.00741 0.0
C1111 C 0.95686 0.45982 0.05538 0.0
C1112 C 0.04719 0.54107 0.93485 0.0
C1113 C 0.04093 0.53223 0.95344 0.0
C1114 C 0.98196 0.51111 0.98308 0.0
C1115 C 0.98724 0.48326 0.03354 0.0
C1116 C 0.99471 0.49211 0.01387 0.0
C1117 C 0.01675 0.51803 0.95688 0.0
C1118 C 0.00931 0.50938 0.97661 0.0
H1119 H 0.01258 0.48417 0.07918 0.0
H1120 H 0.02306 0.50022 0.04716 0.0
H1121 H 0.95358 0.50445 0.00617 0.0
H1122 H 0.99147 0.51638 0.91124 0.0
H1123 H 0.98093 0.50089 0.94339 0.0
C1124 C 0.00368 0.52793 0.56659 0.0
C1125 C 0.97752 0.53772 0.57127 0.0
C1126 C 0.00919 0.51847 0.54816 0.0
C1127 C 0.98557 0.52223 0.4979 0.0
H1128 H 0.02998 0.4605 0.49159 0.0
C1129 C 0.99991 0.47292 0.42431 0.0
C1130 C 0.02618 0.46351 0.41951 0.0
C1131 C 0.99428 0.48191 0.44283 0.0
C1132 C 0.01785 0.47794 0.49312 0.0
H1133 H 0.93652 0.54489 0.56016 0.0
H1134 H 0.94615 0.52808 0.5279 0.0
H1135 H 0.01851 0.47564 0.52394 0.0
H1136 H 0.06721 0.45634 0.43058 0.0
H1137 H 0.05736 0.47237 0.46304 0.0
H1138 H 0.98491 0.52455 0.46709 0.0
C1139 C 0.96246 0.52809 0.53854 0.0
C1140 C 0.01121 0.48658 0.51164 0.0
C1141 C 0.95691 0.53761 0.55704 0.0
C1142 C 0.04674 0.46339 0.43377 0.0
C1143 C 0.04107 0.47245 0.45239 0.0
C1144 C 0.9922 0.51359 0.47939 0.0
C1145 C 0.9887 0.51847 0.53391 0.0
C1146 C 0.99502 0.50885 0.51423 0.0
C1147 C 0.01475 0.48182 0.45709 0.0
C1148 C 0.00839 0.49134 0.47679 0.0
H1149 H 0.02015 0.52778 0.5771 0.0
H1150 H 0.02973 0.51159 0.54499 0.0
H1151 H 0.97346 0.53969 0.49941 0.0
H1152 H 0.98345 0.47319 0.41378 0.0
H1153 H 0.97368 0.48858 0.44606 0.0
C1154 C 0.54862 0.46114 0.55422 0.0
C1155 C 0.53283 0.46953 0.57001 0.0
C1156 C 0.54215 0.46935 0.53551 0.0
C1157 C 0.50345 0.51909 0.50828 0.0
H1158 H 0.50037 0.46671 0.46832 0.0
C1159 C 0.45598 0.53969 0.43351 0.0
C1160 C 0.47182 0.5315 0.41769 0.0
C1161 C 0.46244 0.53132 0.45218 0.0
C1162 C 0.5013 0.48159 0.4793 0.0
H1163 H 0.49878 0.49415 0.57861 0.0
H1164 H 0.4876 0.50825 0.54618 0.0
H1165 H 0.51609 0.45505 0.5006 0.0
H1166 H 0.50593 0.50703 0.40897 0.0
H1167 H 0.5171 0.49262 0.44134 0.0
H1168 H 0.48865 0.54563 0.48698 0.0
C1169 C 0.50494 0.49539 0.54817 0.0
C1170 C 0.51045 0.47494 0.49775 0.0
C1171 C 0.51126 0.48712 0.56677 0.0
C1172 C 0.49342 0.51391 0.42084 0.0
C1173 C 0.49973 0.50547 0.43941 0.0
C1174 C 0.49429 0.52574 0.48984 0.0
C1175 C 0.51997 0.48626 0.53228 0.0
C1176 C 0.51159 0.49362 0.51244 0.0
C1177 C 0.48468 0.51444 0.45533 0.0
C1178 C 0.49313 0.50706 0.47514 0.0
H1179 H 0.56539 0.44763 0.55622 0.0
H1180 H 0.55433 0.46226 0.52354 0.0
H1181 H 0.50439 0.53398 0.51925 0.0
H1182 H 0.43918 0.55318 0.43157 0.0
H1183 H 0.45024 0.53828 0.46418 0.0
loop_
_geom_bond_atom_site_label_1
_geom_bond_atom_site_label_2
_geom_bond_distance
_geom_bond_site_symmetry_2
_ccdc_geom_bond_type
Co0 O1 2.216 . S
Co0 O2 2.091 . S
Co0 O4 2.004 . S
Co0 O10 2.021 . S
Co0 O12 2.137 . S
Co0 O13 2.244 . S
O1 Co0 2.216 . S
O1 C8 1.247 . S
O2 Co0 2.091 . S
O2 C8 1.261 . S
C3 O12 1.247 . S
C3 O13 1.272 . S
O4 Co0 2.004 . S
O4 C9 1.259 . S
Co5 O6 2.061 1_655 S
Co5 O11 2.052 1_655 S
Co5 O13 2.135 1_655 S
O6 Co5 2.061 1_455 S
O6 C9 1.235 . S
C7 O10 1.238 . S
C7 O11 1.241 . S
C8 O1 1.247 . S
C8 O2 1.261 . S
C9 O4 1.259 . S
C9 O6 1.235 . S
O10 Co0 2.021 . S
O10 C7 1.238 . S
O11 Co5 2.052 1_455 S
O11 C7 1.241 . S
O12 Co0 2.137 . S
O12 C3 1.247 . S
O13 Co0 2.244 . S
O13 C3 1.272 . S
O13 Co5 2.135 1_455 S
Co14 O15 2.216 . S
Co14 O16 2.091 . S
Co14 O18 2.004 . S
Co14 O24 2.021 . S
Co14 O26 2.137 . S
Co14 O27 2.244 . S
O15 Co14 2.216 . S
O15 C22 1.247 . S
O16 Co14 2.091 . S
O16 C22 1.261 . S
C17 O26 1.247 . S
C17 O27 1.272 . S
O18 Co14 2.004 . S
O18 C23 1.259 . S
Co19 O20 2.061 . S
Co19 O25 2.052 . S
Co19 O27 2.135 . S
O20 Co19 2.061 . S
O20 C23 1.235 . S
C21 O24 1.238 . S
C21 O25 1.241 . S
C22 O15 1.247 . S
C22 O16 1.261 . S
C23 O18 1.259 . S
C23 O20 1.235 . S
O24 Co14 2.021 . S
O24 C21 1.238 . S
O25 Co19 2.052 . S
O25 C21 1.241 . S
O26 Co14 2.137 . S
O26 C17 1.247 . S
O27 Co14 2.244 . S
O27 C17 1.272 . S
O27 Co19 2.135 . S
Co28 O29 2.216 . S
Co28 O30 2.091 . S
Co28 O32 2.004 . S
Co28 O38 2.021 . S
Co28 O40 2.137 . S
Co28 O41 2.244 . S
O29 Co28 2.216 . S
O29 C36 1.247 . S
O30 Co28 2.091 . S
O30 C36 1.261 . S
C31 O40 1.247 . S
C31 O41 1.272 . S
O32 Co28 2.004 . S
O32 C37 1.259 . S
Co33 O34 2.061 . S
Co33 O39 2.052 . S
Co33 O41 2.135 . S
O34 Co33 2.061 . S
O34 C37 1.235 . S
C35 O38 1.238 . S
C35 O39 1.241 . S
C36 O29 1.247 . S
C36 O30 1.261 . S
C37 O32 1.259 . S
C37 O34 1.235 . S
O38 Co28 2.021 . S
O38 C35 1.238 . S
O39 Co33 2.052 . S
O39 C35 1.241 . S
O40 Co28 2.137 . S
O40 C31 1.247 . S
O41 Co28 2.244 . S
O41 C31 1.272 . S
O41 Co33 2.135 . S
Co42 O43 2.216 . S
Co42 O44 2.091 . S
Co42 O46 2.004 . S
Co42 O52 2.021 . S
Co42 O54 2.137 . S
Co42 O55 2.244 . S
O43 Co42 2.216 . S
O43 C50 1.247 . S
O44 Co42 2.091 . S
O44 C50 1.261 . S
C45 O54 1.247 . S
C45 O55 1.272 . S
O46 Co42 2.004 . S
O46 C51 1.259 . S
Co47 O48 2.061 1_455 S
Co47 O53 2.052 1_455 S
Co47 O55 2.135 1_455 S
O48 Co47 2.061 1_655 S
O48 C51 1.235 . S
C49 O52 1.238 . S
C49 O53 1.241 . S
C50 O43 1.247 . S
C50 O44 1.261 . S
C51 O46 1.259 . S
C51 O48 1.235 . S
O52 Co42 2.021 . S
O52 C49 1.238 . S
O53 Co47 2.052 1_655 S
O53 C49 1.241 . S
O54 Co42 2.137 . S
O54 C45 1.247 . S
O55 Co42 2.244 . S
O55 C45 1.272 . S
O55 Co47 2.135 1_655 S
Co56 O57 2.216 . S
Co56 O58 2.091 . S
Co56 O60 2.004 . S
Co56 O66 2.021 . S
Co56 O68 2.137 . S
Co56 O69 2.244 . S
O57 Co56 2.216 . S
O57 C64 1.247 . S
O58 Co56 2.091 . S
O58 C64 1.261 . S
C59 O68 1.247 . S
C59 O69 1.272 . S
O60 Co56 2.004 . S
O60 C65 1.259 . S
Co61 O62 2.061 1_455 S
Co61 O67 2.052 1_455 S
Co61 O69 2.135 1_455 S
O62 Co61 2.061 1_655 S
O62 C65 1.235 . S
C63 O66 1.238 . S
C63 O67 1.241 . S
C64 O57 1.247 . S
C64 O58 1.261 . S
C65 O60 1.259 . S
C65 O62 1.235 . S
O66 Co56 2.021 . S
O66 C63 1.238 . S
O67 Co61 2.052 1_655 S
O67 C63 1.241 . S
O68 Co56 2.137 . S
O68 C59 1.247 . S
O69 Co56 2.244 . S
O69 C59 1.272 . S
O69 Co61 2.135 1_655 S
Co70 O71 2.216 . S
Co70 O72 2.091 . S
Co70 O74 2.004 . S
Co70 O80 2.021 . S
Co70 O82 2.137 . S
Co70 O83 2.244 . S
O71 Co70 2.216 . S
O71 C78 1.247 . S
O72 Co70 2.091 . S
O72 C78 1.261 . S
C73 O82 1.247 . S
C73 O83 1.272 . S
O74 Co70 2.004 . S
O74 C79 1.259 . S
Co75 O76 2.061 . S
Co75 O81 2.052 . S
Co75 O83 2.135 . S
O76 Co75 2.061 . S
O76 C79 1.235 . S
C77 O80 1.238 . S
C77 O81 1.241 . S
C78 O71 1.247 . S
C78 O72 1.261 . S
C79 O74 1.259 . S
C79 O76 1.235 . S
O80 Co70 2.021 . S
O80 C77 1.238 . S
O81 Co75 2.052 . S
O81 C77 1.241 . S
O82 Co70 2.137 . S
O82 C73 1.247 . S
O83 Co70 2.244 . S
O83 C73 1.272 . S
O83 Co75 2.135 . S
Co84 O85 2.216 . S
Co84 O86 2.091 . S
Co84 O88 2.004 . S
Co84 O94 2.021 . S
Co84 O96 2.137 . S
Co84 O97 2.244 . S
O85 Co84 2.216 . S
O85 C92 1.247 . S
O86 Co84 2.091 . S
O86 C92 1.261 . S
C87 O96 1.247 . S
C87 O97 1.272 . S
O88 Co84 2.004 . S
O88 C93 1.259 . S
Co89 O90 2.061 . S
Co89 O95 2.052 . S
Co89 O97 2.135 . S
O90 Co89 2.061 . S
O90 C93 1.235 . S
C91 O94 1.238 . S
C91 O95 1.241 . S
C92 O85 1.247 . S
C92 O86 1.261 . S
C93 O88 1.259 . S
C93 O90 1.235 . S
O94 Co84 2.021 . S
O94 C91 1.238 . S
O95 Co89 2.052 . S
O95 C91 1.241 . S
O96 Co84 2.137 . S
O96 C87 1.247 . S
O97 Co84 2.244 . S
O97 C87 1.272 . S
O97 Co89 2.135 . S
Co98 O99 2.216 . S
Co98 O100 2.091 . S
Co98 O102 2.004 . S
Co98 O108 2.021 . S
Co98 O110 2.137 . S
Co98 O111 2.244 . S
O99 Co98 2.216 . S
O99 C106 1.247 . S
O100 Co98 2.091 . S
O100 C106 1.261 . S
C101 O110 1.247 . S
C101 O111 1.272 . S
O102 Co98 2.004 . S
O102 C107 1.259 . S
Co103 O104 2.061 1_655 S
Co103 O109 2.052 1_655 S
Co103 O111 2.135 1_655 S
O104 Co103 2.061 1_455 S
O104 C107 1.235 . S
C105 O108 1.238 . S
C105 O109 1.241 . S
C106 O99 1.247 . S
C106 O100 1.261 . S
C107 O102 1.259 . S
C107 O104 1.235 . S
O108 Co98 2.021 . S
O108 C105 1.238 . S
O109 Co103 2.052 1_455 S
O109 C105 1.241 . S
O110 Co98 2.137 . S
O110 C101 1.247 . S
O111 Co98 2.244 . S
O111 C101 1.272 . S
O111 Co103 2.135 1_455 S
Co112 O113 2.216 . S
Co112 O114 2.091 . S
Co112 O116 2.004 . S
Co112 O122 2.021 . S
Co112 O124 2.137 . S
Co112 O125 2.244 . S
O113 Co112 2.216 . S
O113 C120 1.247 . S
O114 Co112 2.091 . S
O114 C120 1.261 . S
C115 O124 1.247 . S
C115 O125 1.272 . S
O116 Co112 2.004 . S
O116 C121 1.259 . S
Co117 O118 2.061 . S
Co117 O123 2.052 . S
Co117 O125 2.135 . S
O118 Co117 2.061 . S
O118 C121 1.235 . S
C119 O122 1.238 . S
C119 O123 1.241 . S
C120 O113 1.247 . S
C120 O114 1.261 . S
C121 O116 1.259 . S
C121 O118 1.235 . S
O122 Co112 2.021 . S
O122 C119 1.238 . S
O123 Co117 2.052 . S
O123 C119 1.241 . S
O124 Co112 2.137 . S
O124 C115 1.247 . S
O125 Co112 2.244 . S
O125 C115 1.272 . S
O125 Co117 2.135 . S
Co126 O127 2.216 . S
Co126 O128 2.091 . S
Co126 O130 2.004 . S
Co126 O136 2.021 . S
Co126 O138 2.137 . S
Co126 O139 2.244 . S
O127 Co126 2.216 . S
O127 C134 1.247 . S
O128 Co126 2.091 . S
O128 C134 1.261 . S
C129 O138 1.247 . S
C129 O139 1.272 . S
O130 Co126 2.004 . S
O130 C135 1.259 . S
Co131 O132 2.061 1_455 S
Co131 O137 2.052 1_455 S
Co131 O139 2.135 1_455 S
O132 Co131 2.061 1_655 S
O132 C135 1.235 . S
C133 O136 1.238 . S
C133 O137 1.241 . S
C134 O127 1.247 . S
C134 O128 1.261 . S
C135 O130 1.259 . S
C135 O132 1.235 . S
O136 Co126 2.021 . S
O136 C133 1.238 . S
O137 Co131 2.052 1_655 S
O137 C133 1.241 . S
O138 Co126 2.137 . S
O138 C129 1.247 . S
O139 Co126 2.244 . S
O139 C129 1.272 . S
O139 Co131 2.135 1_655 S
Co140 O141 2.216 . S
Co140 O142 2.091 . S
Co140 O144 2.004 . S
Co140 O150 2.021 . S
Co140 O152 2.137 . S
Co140 O153 2.244 . S
O141 Co140 2.216 . S
O141 C148 1.247 . S
O142 Co140 2.091 . S
O142 C148 1.261 . S
C143 O152 1.247 . S
C143 O153 1.272 . S
O144 Co140 2.004 . S
O144 C149 1.259 . S
Co145 O146 2.061 1_655 S
Co145 O151 2.052 1_655 S
Co145 O153 2.135 1_655 S
O146 Co145 2.061 1_455 S
O146 C149 1.235 . S
C147 O150 1.238 . S
C147 O151 1.241 . S
C148 O141 1.247 . S
C148 O142 1.261 . S
C149 O144 1.259 . S
C149 O146 1.235 . S
O150 Co140 2.021 . S
O150 C147 1.238 . S
O151 Co145 2.052 1_455 S
O151 C147 1.241 . S
O152 Co140 2.137 . S
O152 C143 1.247 . S
O153 Co140 2.244 . S
O153 C143 1.272 . S
O153 Co145 2.135 1_455 S
Co154 O155 2.216 . S
Co154 O156 2.091 . S
Co154 O158 2.004 . S
Co154 O164 2.021 . S
Co154 O166 2.137 . S
Co154 O167 2.244 . S
O155 Co154 2.216 . S
O155 C162 1.247 . S
O156 Co154 2.091 . S
O156 C162 1.261 . S
C157 O166 1.247 . S
C157 O167 1.272 . S
O158 Co154 2.004 . S
O158 C163 1.259 . S
Co159 O160 2.061 . S
Co159 O165 2.052 . S
Co159 O167 2.135 . S
O160 Co159 2.061 . S
O160 C163 1.235 . S
C161 O164 1.238 . S
C161 O165 1.241 . S
C162 O155 1.247 . S
C162 O156 1.261 . S
C163 O158 1.259 . S
C163 O160 1.235 . S
O164 Co154 2.021 . S
O164 C161 1.238 . S
O165 Co159 2.052 . S
O165 C161 1.241 . S
O166 Co154 2.137 . S
O166 C157 1.247 . S
O167 Co154 2.244 . S
O167 C157 1.272 . S
O167 Co159 2.135 . S
Co168 O169 2.216 . S
Co168 O170 2.091 . S
Co168 O172 2.004 . S
Co168 O178 2.021 . S
Co168 O180 2.137 . S
Co168 O181 2.244 . S
O169 Co168 2.216 . S
O169 C176 1.247 . S
O170 Co168 2.091 . S
O170 C176 1.261 . S
C171 O180 1.247 . S
C171 O181 1.272 . S
O172 Co168 2.004 . S
O172 C177 1.259 . S
Co173 O174 2.061 . S
Co173 O179 2.052 . S
Co173 O181 2.135 . S
O174 Co173 2.061 . S
O174 C177 1.235 . S
C175 O178 1.238 . S
C175 O179 1.241 . S
C176 O169 1.247 . S
C176 O170 1.261 . S
C177 O172 1.259 . S
C177 O174 1.235 . S
O178 Co168 2.021 . S
O178 C175 1.238 . S
O179 Co173 2.052 . S
O179 C175 1.241 . S
O180 Co168 2.137 . S
O180 C171 1.247 . S
O181 Co168 2.244 . S
O181 C171 1.272 . S
O181 Co173 2.135 . S
Co182 O183 2.216 . S
Co182 O184 2.091 . S
Co182 O186 2.004 . S
Co182 O192 2.021 . S
Co182 O194 2.137 . S
Co182 O195 2.244 . S
O183 Co182 2.216 . S
O183 C190 1.247 . S
O184 Co182 2.091 . S
O184 C190 1.261 . S
C185 O194 1.247 . S
C185 O195 1.272 . S
O186 Co182 2.004 . S
O186 C191 1.259 . S
Co187 O188 2.061 1_655 S
Co187 O193 2.052 1_655 S
Co187 O195 2.135 1_655 S
O188 Co187 2.061 1_455 S
O188 C191 1.235 . S
C189 O192 1.238 . S
C189 O193 1.241 . S
C190 O183 1.247 . S
C190 O184 1.261 . S
C191 O186 1.259 . S
C191 O188 1.235 . S
O192 Co182 2.021 . S
O192 C189 1.238 . S
O193 Co187 2.052 1_455 S
O193 C189 1.241 . S
O194 Co182 2.137 . S
O194 C185 1.247 . S
O195 Co182 2.244 . S
O195 C185 1.272 . S
O195 Co187 2.135 1_455 S
Co196 O197 2.216 . S
Co196 O198 2.091 . S
Co196 O200 2.004 . S
Co196 O206 2.021 . S
Co196 O208 2.137 . S
Co196 O209 2.244 . S
O197 Co196 2.216 . S
O197 C204 1.247 . S
O198 Co196 2.091 . S
O198 C204 1.261 . S
C199 O208 1.247 . S
C199 O209 1.272 . S
O200 Co196 2.004 . S
O200 C205 1.259 . S
Co201 O202 2.061 1_455 S
Co201 O207 2.052 1_455 S
Co201 O209 2.135 1_455 S
O202 Co201 2.061 1_655 S
O202 C205 1.235 . S
C203 O206 1.238 . S
C203 O207 1.241 . S
C204 O197 1.247 . S
C204 O198 1.261 . S
C205 O200 1.259 . S
C205 O202 1.235 . S
O206 Co196 2.021 . S
O206 C203 1.238 . S
O207 Co201 2.052 1_655 S
O207 C203 1.241 . S
O208 Co196 2.137 . S
O208 C199 1.247 . S
O209 Co196 2.244 . S
O209 C199 1.272 . S
O209 Co201 2.135 1_655 S
Co210 O211 2.216 . S
Co210 O212 2.091 . S
Co210 O214 2.004 . S
Co210 O220 2.021 . S
Co210 O222 2.137 . S
Co210 O223 2.244 . S
O211 Co210 2.216 . S
O211 C218 1.247 . S
O212 Co210 2.091 . S
O212 C218 1.261 . S
C213 O222 1.247 . S
C213 O223 1.272 . S
O214 Co210 2.004 . S
O214 C219 1.259 . S
Co215 O216 2.061 . S
Co215 O221 2.052 . S
Co215 O223 2.135 . S
O216 Co215 2.061 . S
O216 C219 1.235 . S
C217 O220 1.238 . S
C217 O221 1.241 . S
C218 O211 1.247 . S
C218 O212 1.261 . S
C219 O214 1.259 . S
C219 O216 1.235 . S
O220 Co210 2.021 . S
O220 C217 1.238 . S
O221 Co215 2.052 . S
O221 C217 1.241 . S
O222 Co210 2.137 . S
O222 C213 1.247 . S
O223 Co210 2.244 . S
O223 C213 1.272 . S
O223 Co215 2.135 . S
C224 C225 1.349 . S
C224 C226 1.327 . S
C224 H249 0.950 . S
C225 C224 1.349 . S
C225 C241 1.349 . S
C226 C224 1.327 . S
C226 C245 1.429 . S
C226 H250 0.950 . S
C227 C244 1.574 . S
C227 C246 1.368 1_545 S
C227 H251 0.949 . S
H228 C232 0.949 . S
C229 C230 1.349 . S
C229 C231 1.327 . S
C229 H252 0.950 . S
C230 C229 1.349 . S
C230 C242 1.349 . S
C231 C229 1.327 . S
C231 C247 1.429 . S
C231 H253 0.950 . S
C232 H228 0.949 . S
C232 C240 1.574 . S
C232 C248 1.368 1_565 S
H233 C241 0.950 . S
H234 C239 0.950 1_545 S
H235 C240 0.949 . S
H236 C242 0.950 . S
H237 C243 0.950 1_565 S
H238 C244 0.949 . S
C239 H234 0.950 1_565 S
C239 C241 1.327 . S
C239 C245 1.429 . S
C240 C232 1.574 . S
C240 H235 0.949 . S
C240 C246 1.368 . S
C241 C225 1.349 . S
C241 H233 0.950 . S
C241 C239 1.327 . S
C242 C230 1.349 . S
C242 H236 0.950 . S
C242 C243 1.327 . S
C243 H237 0.950 1_545 S
C243 C242 1.327 . S
C243 C247 1.429 . S
C244 C227 1.574 . S
C244 H238 0.949 . S
C244 C248 1.368 . S
C245 C226 1.429 . S
C245 C239 1.429 . S
C245 C246 1.523 . S
C246 C227 1.368 1_565 S
C246 C240 1.368 . S
C246 C245 1.523 . S
C247 C231 1.429 . S
C247 C243 1.429 . S
C247 C248 1.523 . S
C248 C232 1.368 1_545 S
C248 C244 1.368 . S
C248 C247 1.523 . S
H249 C224 0.950 . S
H250 C226 0.950 . S
H251 C227 0.949 . S
H252 C229 0.950 . S
H253 C231 0.950 . S
C254 C255 1.349 . S
C254 C256 1.327 . S
C254 H279 0.950 . S
C255 C254 1.349 . S
C255 C271 1.349 . S
C256 C254 1.327 . S
C256 C275 1.429 . S
C256 H280 0.950 1_565 S
C257 C274 1.574 . S
C257 C276 1.368 . S
C257 H281 0.949 . S
H258 C262 0.949 . S
C259 C260 1.349 . S
C259 C261 1.327 . S
C259 H282 0.950 . S
C260 C259 1.349 . S
C260 C272 1.349 . S
C261 C259 1.327 . S
C261 C277 1.429 . S
C261 H283 0.950 1_545 S
C262 H258 0.949 . S
C262 C270 1.574 . S
C262 C278 1.368 . S
H263 C271 0.950 . S
H264 C269 0.950 . S
H265 C270 0.949 . S
H266 C272 0.950 . S
H267 C273 0.950 . S
H268 C274 0.949 . S
C269 H264 0.950 . S
C269 C271 1.327 . S
C269 C275 1.429 . S
C270 C262 1.574 . S
C270 H265 0.949 . S
C270 C276 1.368 1_545 S
C271 C255 1.349 . S
C271 H263 0.950 . S
C271 C269 1.327 . S
C272 C260 1.349 . S
C272 H266 0.950 . S
C272 C273 1.327 . S
C273 H267 0.950 . S
C273 C272 1.327 . S
C273 C277 1.429 . S
C274 C257 1.574 . S
C274 H268 0.949 . S
C274 C278 1.368 1_565 S
C275 C256 1.429 . S
C275 C269 1.429 . S
C275 C276 1.523 . S
C276 C257 1.368 . S
C276 C270 1.368 1_565 S
C276 C275 1.523 . S
C277 C261 1.429 . S
C277 C273 1.429 . S
C277 C278 1.523 . S
C278 C262 1.368 . S
C278 C274 1.368 1_545 S
C278 C277 1.523 . S
H279 C254 0.950 . S
H280 C256 0.950 1_545 S
H281 C257 0.949 . S
H282 C259 0.950 . S
H283 C261 0.950 1_565 S
C284 C285 1.349 . S
C284 C286 1.327 . S
C284 H309 0.950 . S
C285 C284 1.349 . S
C285 C301 1.349 . S
C286 C284 1.327 . S
C286 C305 1.429 . S
C286 H310 0.950 1_565 S
C287 C304 1.574 . S
C287 C306 1.368 . S
C287 H311 0.949 . S
H288 C292 0.949 . S
C289 C290 1.349 . S
C289 C291 1.327 . S
C289 H312 0.950 . S
C290 C289 1.349 . S
C290 C302 1.349 . S
C291 C289 1.327 . S
C291 C307 1.429 . S
C291 H313 0.950 1_545 S
C292 H288 0.949 . S
C292 C300 1.574 . S
C292 C308 1.368 . S
H293 C301 0.950 . S
H294 C299 0.950 . S
H295 C300 0.949 . S
H296 C302 0.950 . S
H297 C303 0.950 . S
H298 C304 0.949 . S
C299 H294 0.950 . S
C299 C301 1.327 . S
C299 C305 1.429 . S
C300 C292 1.574 . S
C300 H295 0.949 . S
C300 C306 1.368 1_545 S
C301 C285 1.349 . S
C301 H293 0.950 . S
C301 C299 1.327 . S
C302 C290 1.349 . S
C302 H296 0.950 . S
C302 C303 1.327 . S
C303 H297 0.950 . S
C303 C302 1.327 . S
C303 C307 1.429 . S
C304 C287 1.574 . S
C304 H298 0.949 . S
C304 C308 1.368 1_565 S
C305 C286 1.429 . S
C305 C299 1.429 . S
C305 C306 1.523 . S
C306 C287 1.368 . S
C306 C300 1.368 1_565 S
C306 C305 1.523 . S
C307 C291 1.429 . S
C307 C303 1.429 . S
C307 C308 1.523 . S
C308 C292 1.368 . S
C308 C304 1.368 1_545 S
C308 C307 1.523 . S
H309 C284 0.950 . S
H310 C286 0.950 1_545 S
H311 C287 0.949 . S
H312 C289 0.950 . S
H313 C291 0.950 1_565 S
C314 C315 1.349 . S
C314 C316 1.327 . S
C314 H339 0.950 . S
C315 C314 1.349 . S
C315 C331 1.349 . S
C316 C314 1.327 . S
C316 C335 1.429 . S
C316 H340 0.950 1_565 S
C317 C334 1.574 . S
C317 C336 1.368 . S
C317 H341 0.949 . S
H318 C322 0.949 . S
C319 C320 1.349 . S
C319 C321 1.327 . S
C319 H342 0.950 . S
C320 C319 1.349 . S
C320 C332 1.349 . S
C321 C319 1.327 . S
C321 C337 1.429 . S
C321 H343 0.950 1_545 S
C322 H318 0.949 . S
C322 C330 1.574 . S
C322 C338 1.368 . S
H323 C331 0.950 . S
H324 C329 0.950 . S
H325 C330 0.949 . S
H326 C332 0.950 . S
H327 C333 0.950 . S
H328 C334 0.949 . S
C329 H324 0.950 . S
C329 C331 1.327 . S
C329 C335 1.429 . S
C330 C322 1.574 . S
C330 H325 0.949 . S
C330 C336 1.368 1_545 S
C331 C315 1.349 . S
C331 H323 0.950 . S
C331 C329 1.327 . S
C332 C320 1.349 . S
C332 H326 0.950 . S
C332 C333 1.327 . S
C333 H327 0.950 . S
C333 C332 1.327 . S
C333 C337 1.429 . S
C334 C317 1.574 . S
C334 H328 0.949 . S
C334 C338 1.368 1_565 S
C335 C316 1.429 . S
C335 C329 1.429 . S
C335 C336 1.523 . S
C336 C317 1.368 . S
C336 C330 1.368 1_565 S
C336 C335 1.523 . S
C337 C321 1.429 . S
C337 C333 1.429 . S
C337 C338 1.523 . S
C338 C322 1.368 . S
C338 C334 1.368 1_545 S
C338 C337 1.523 . S
H339 C314 0.950 . S
H340 C316 0.950 1_545 S
H341 C317 0.949 . S
H342 C319 0.950 . S
H343 C321 0.950 1_565 S
C344 C345 1.349 . S
C344 C346 1.327 . S
C344 H369 0.950 . S
C345 C344 1.349 . S
C345 C361 1.349 . S
C346 C344 1.327 . S
C346 C365 1.429 . S
C346 H370 0.950 . S
C347 C364 1.574 . S
C347 C366 1.368 . S
C347 H371 0.949 . S
H348 C352 0.949 . S
C349 C350 1.349 . S
C349 C351 1.327 . S
C349 H372 0.950 . S
C350 C349 1.349 . S
C350 C362 1.349 . S
C351 C349 1.327 . S
C351 C367 1.429 . S
C351 H373 0.950 . S
C352 H348 0.949 . S
C352 C360 1.574 . S
C352 C368 1.368 . S
H353 C361 0.950 . S
H354 C359 0.950 . S
H355 C360 0.949 . S
H356 C362 0.950 . S
H357 C363 0.950 . S
H358 C364 0.949 . S
C359 H354 0.950 . S
C359 C361 1.327 . S
C359 C365 1.429 . S
C360 C352 1.574 . S
C360 H355 0.949 . S
C360 C366 1.368 . S
C361 C345 1.349 . S
C361 H353 0.950 . S
C361 C359 1.327 . S
C362 C350 1.349 . S
C362 H356 0.950 . S
C362 C363 1.327 . S
C363 H357 0.950 . S
C363 C362 1.327 . S
C363 C367 1.429 . S
C364 C347 1.574 . S
C364 H358 0.949 . S
C364 C368 1.368 . S
C365 C346 1.429 . S
C365 C359 1.429 . S
C365 C366 1.523 . S
C366 C347 1.368 . S
C366 C360 1.368 . S
C366 C365 1.523 . S
C367 C351 1.429 . S
C367 C363 1.429 . S
C367 C368 1.523 . S
C368 C352 1.368 . S
C368 C364 1.368 . S
C368 C367 1.523 . S
H369 C344 0.950 . S
H370 C346 0.950 . S
H371 C347 0.949 . S
H372 C349 0.950 . S
H373 C351 0.950 . S
C374 C375 1.349 . S
C374 C376 1.327 . S
C374 H399 0.950 . S
C375 C374 1.349 . S
C375 C391 1.349 . S
C376 C374 1.327 . S
C376 C395 1.429 . S
C376 H400 0.950 . S
C377 C394 1.574 . S
C377 C396 1.368 . S
C377 H401 0.949 . S
H378 C382 0.949 . S
C379 C380 1.349 . S
C379 C381 1.327 . S
C379 H402 0.950 . S
C380 C379 1.349 . S
C380 C392 1.349 . S
C381 C379 1.327 . S
C381 C397 1.429 . S
C381 H403 0.950 . S
C382 H378 0.949 . S
C382 C390 1.574 . S
C382 C398 1.368 . S
H383 C391 0.950 . S
H384 C389 0.950 . S
H385 C390 0.949 . S
H386 C392 0.950 . S
H387 C393 0.950 . S
H388 C394 0.949 . S
C389 H384 0.950 . S
C389 C391 1.327 . S
C389 C395 1.429 . S
C390 C382 1.574 . S
C390 H385 0.949 . S
C390 C396 1.368 . S
C391 C375 1.349 . S
C391 H383 0.950 . S
C391 C389 1.327 . S
C392 C380 1.349 . S
C392 H386 0.950 . S
C392 C393 1.327 . S
C393 H387 0.950 . S
C393 C392 1.327 . S
C393 C397 1.429 . S
C394 C377 1.574 . S
C394 H388 0.949 . S
C394 C398 1.368 . S
C395 C376 1.429 . S
C395 C389 1.429 . S
C395 C396 1.523 . S
C396 C377 1.368 . S
C396 C390 1.368 . S
C396 C395 1.523 . S
C397 C381 1.429 . S
C397 C393 1.429 . S
C397 C398 1.523 . S
C398 C382 1.368 . S
C398 C394 1.368 . S
C398 C397 1.523 . S
H399 C374 0.950 . S
H400 C376 0.950 . S
H401 C377 0.949 . S
H402 C379 0.950 . S
H403 C381 0.950 . S
C404 C405 1.349 . S
C404 C406 1.327 . S
C404 H429 0.950 . S
C405 C404 1.349 . S
C405 C421 1.349 . S
C406 C404 1.327 . S
C406 C425 1.429 . S
C406 H430 0.950 . S
C407 C424 1.574 . S
C407 C426 1.368 . S
C407 H431 0.949 . S
H408 C412 0.949 . S
C409 C410 1.349 . S
C409 C411 1.327 . S
C409 H432 0.950 . S
C410 C409 1.349 . S
C410 C422 1.349 . S
C411 C409 1.327 . S
C411 C427 1.429 . S
C411 H433 0.950 . S
C412 H408 0.949 . S
C412 C420 1.574 . S
C412 C428 1.368 . S
H413 C421 0.950 . S
H414 C419 0.950 . S
H415 C420 0.949 . S
H416 C422 0.950 . S
H417 C423 0.950 . S
H418 C424 0.949 . S
C419 H414 0.950 . S
C419 C421 1.327 . S
C419 C425 1.429 . S
C420 C412 1.574 . S
C420 H415 0.949 . S
C420 C426 1.368 . S
C421 C405 1.349 . S
C421 H413 0.950 . S
C421 C419 1.327 . S
C422 C410 1.349 . S
C422 H416 0.950 . S
C422 C423 1.327 . S
C423 H417 0.950 . S
C423 C422 1.327 . S
C423 C427 1.429 . S
C424 C407 1.574 . S
C424 H418 0.949 . S
C424 C428 1.368 . S
C425 C406 1.429 . S
C425 C419 1.429 . S
C425 C426 1.523 . S
C426 C407 1.368 . S
C426 C420 1.368 . S
C426 C425 1.523 . S
C427 C411 1.429 . S
C427 C423 1.429 . S
C427 C428 1.523 . S
C428 C412 1.368 . S
C428 C424 1.368 . S
C428 C427 1.523 . S
H429 C404 0.950 . S
H430 C406 0.950 . S
H431 C407 0.949 . S
H432 C409 0.950 . S
H433 C411 0.950 . S
C434 C435 1.349 . S
C434 C436 1.327 . S
C434 H459 0.950 . S
C435 C434 1.349 . S
C435 C451 1.349 . S
C436 C434 1.327 . S
C436 C455 1.429 . S
C436 H460 0.950 . S
C437 C454 1.574 . S
C437 C456 1.368 . S
C437 H461 0.949 . S
H438 C442 0.949 . S
C439 C440 1.349 . S
C439 C441 1.327 . S
C439 H462 0.950 . S
C440 C439 1.349 . S
C440 C452 1.349 . S
C441 C439 1.327 . S
C441 C457 1.429 . S
C441 H463 0.950 . S
C442 H438 0.949 . S
C442 C450 1.574 . S
C442 C458 1.368 . S
H443 C451 0.950 . S
H444 C449 0.950 . S
H445 C450 0.949 . S
H446 C452 0.950 . S
H447 C453 0.950 . S
H448 C454 0.949 . S
C449 H444 0.950 . S
C449 C451 1.327 . S
C449 C455 1.429 . S
C450 C442 1.574 . S
C450 H445 0.949 . S
C450 C456 1.368 . S
C451 C435 1.349 . S
C451 H443 0.950 . S
C451 C449 1.327 . S
C452 C440 1.349 . S
C452 H446 0.950 . S
C452 C453 1.327 . S
C453 H447 0.950 . S
C453 C452 1.327 . S
C453 C457 1.429 . S
C454 C437 1.574 . S
C454 H448 0.949 . S
C454 C458 1.368 . S
C455 C436 1.429 . S
C455 C449 1.429 . S
C455 C456 1.523 . S
C456 C437 1.368 . S
C456 C450 1.368 . S
C456 C455 1.523 . S
C457 C441 1.429 . S
C457 C453 1.429 . S
C457 C458 1.523 . S
C458 C442 1.368 . S
C458 C454 1.368 . S
C458 C457 1.523 . S
H459 C434 0.950 . S
H460 C436 0.950 . S
H461 C437 0.949 . S
H462 C439 0.950 . S
H463 C441 0.950 . S
C464 C465 1.349 . S
C464 C466 1.327 . S
C464 H489 0.950 . S
C465 C464 1.349 . S
C465 C481 1.349 . S
C466 C464 1.327 . S
C466 C485 1.429 . S
C466 H490 0.950 . S
C467 C484 1.574 . S
C467 C486 1.368 1_455 S
C467 H491 0.949 . S
H468 C472 0.949 . S
C469 C470 1.349 . S
C469 C471 1.327 . S
C469 H492 0.950 . S
C470 C469 1.349 . S
C470 C482 1.349 . S
C471 C469 1.327 . S
C471 C487 1.429 . S
C471 H493 0.950 . S
C472 H468 0.949 . S
C472 C480 1.574 . S
C472 C488 1.368 1_655 S
H473 C481 0.950 . S
H474 C479 0.950 1_455 S
H475 C480 0.949 . S
H476 C482 0.950 . S
H477 C483 0.950 1_655 S
H478 C484 0.949 . S
C479 H474 0.950 1_655 S
C479 C481 1.327 . S
C479 C485 1.429 . S
C480 C472 1.574 . S
C480 H475 0.949 . S
C480 C486 1.368 . S
C481 C465 1.349 . S
C481 H473 0.950 . S
C481 C479 1.327 . S
C482 C470 1.349 . S
C482 H476 0.950 . S
C482 C483 1.327 . S
C483 H477 0.950 1_455 S
C483 C482 1.327 . S
C483 C487 1.429 . S
C484 C467 1.574 . S
C484 H478 0.949 . S
C484 C488 1.368 . S
C485 C466 1.429 . S
C485 C479 1.429 . S
C485 C486 1.523 . S
C486 C467 1.368 1_655 S
C486 C480 1.368 . S
C486 C485 1.523 . S
C487 C471 1.429 . S
C487 C483 1.429 . S
C487 C488 1.523 . S
C488 C472 1.368 1_455 S
C488 C484 1.368 . S
C488 C487 1.523 . S
H489 C464 0.950 . S
H490 C466 0.950 . S
H491 C467 0.949 . S
H492 C469 0.950 . S
H493 C471 0.950 . S
C494 C495 1.349 . S
C494 C496 1.327 . S
C494 H519 0.950 . S
C495 C494 1.349 . S
C495 C511 1.349 . S
C496 C494 1.327 . S
C496 C515 1.429 . S
C496 H520 0.950 . S
C497 C514 1.574 . S
C497 C516 1.368 . S
C497 H521 0.949 . S
H498 C502 0.949 . S
C499 C500 1.349 . S
C499 C501 1.327 . S
C499 H522 0.950 . S
C500 C499 1.349 . S
C500 C512 1.349 . S
C501 C499 1.327 . S
C501 C517 1.429 . S
C501 H523 0.950 . S
C502 H498 0.949 . S
C502 C510 1.574 . S
C502 C518 1.368 . S
H503 C511 0.950 . S
H504 C509 0.950 . S
H505 C510 0.949 . S
H506 C512 0.950 . S
H507 C513 0.950 . S
H508 C514 0.949 . S
C509 H504 0.950 . S
C509 C511 1.327 . S
C509 C515 1.429 . S
C510 C502 1.574 . S
C510 H505 0.949 . S
C510 C516 1.368 . S
C511 C495 1.349 . S
C511 H503 0.950 . S
C511 C509 1.327 . S
C512 C500 1.349 . S
C512 H506 0.950 . S
C512 C513 1.327 . S
C513 H507 0.950 . S
C513 C512 1.327 . S
C513 C517 1.429 . S
C514 C497 1.574 . S
C514 H508 0.949 . S
C514 C518 1.368 . S
C515 C496 1.429 . S
C515 C509 1.429 . S
C515 C516 1.523 . S
C516 C497 1.368 . S
C516 C510 1.368 . S
C516 C515 1.523 . S
C517 C501 1.429 . S
C517 C513 1.429 . S
C517 C518 1.523 . S
C518 C502 1.368 . S
C518 C514 1.368 . S
C518 C517 1.523 . S
H519 C494 0.950 . S
H520 C496 0.950 . S
H521 C497 0.949 . S
H522 C499 0.950 . S
H523 C501 0.950 . S
C524 C525 1.349 . S
C524 C526 1.327 . S
C524 H549 0.950 . S
C525 C524 1.349 . S
C525 C541 1.349 . S
C526 C524 1.327 . S
C526 C545 1.429 . S
C526 H550 0.950 1_455 S
C527 C544 1.574 . S
C527 C546 1.368 . S
C527 H551 0.949 . S
H528 C532 0.949 . S
C529 C530 1.349 . S
C529 C531 1.327 . S
C529 H552 0.950 . S
C530 C529 1.349 . S
C530 C542 1.349 . S
C531 C529 1.327 . S
C531 C547 1.429 . S
C531 H553 0.950 1_655 S
C532 H528 0.949 . S
C532 C540 1.574 . S
C532 C548 1.368 . S
H533 C541 0.950 . S
H534 C539 0.950 . S
H535 C540 0.949 . S
H536 C542 0.950 . S
H537 C543 0.950 . S
H538 C544 0.949 . S
C539 H534 0.950 . S
C539 C541 1.327 . S
C539 C545 1.429 . S
C540 C532 1.574 . S
C540 H535 0.949 . S
C540 C546 1.368 1_655 S
C541 C525 1.349 . S
C541 H533 0.950 . S
C541 C539 1.327 . S
C542 C530 1.349 . S
C542 H536 0.950 . S
C542 C543 1.327 . S
C543 H537 0.950 . S
C543 C542 1.327 . S
C543 C547 1.429 . S
C544 C527 1.574 . S
C544 H538 0.949 . S
C544 C548 1.368 1_455 S
C545 C526 1.429 . S
C545 C539 1.429 . S
C545 C546 1.523 . S
C546 C527 1.368 . S
C546 C540 1.368 1_455 S
C546 C545 1.523 . S
C547 C531 1.429 . S
C547 C543 1.429 . S
C547 C548 1.523 . S
C548 C532 1.368 . S
C548 C544 1.368 1_655 S
C548 C547 1.523 . S
H549 C524 0.950 . S
H550 C526 0.950 1_655 S
H551 C527 0.949 . S
H552 C529 0.950 . S
H553 C531 0.950 1_455 S
C554 C555 1.349 . S
C554 C556 1.327 . S
C554 H579 0.950 . S
C555 C554 1.349 . S
C555 C571 1.349 . S
C556 C554 1.327 . S
C556 C575 1.429 . S
C556 H580 0.950 . S
C557 C574 1.574 . S
C557 C576 1.368 . S
C557 H581 0.949 . S
H558 C562 0.949 . S
C559 C560 1.349 . S
C559 C561 1.327 . S
C559 H582 0.950 . S
C560 C559 1.349 . S
C560 C572 1.349 . S
C561 C559 1.327 . S
C561 C577 1.429 . S
C561 H583 0.950 . S
C562 H558 0.949 . S
C562 C570 1.574 . S
C562 C578 1.368 . S
H563 C571 0.950 . S
H564 C569 0.950 . S
H565 C570 0.949 . S
H566 C572 0.950 . S
H567 C573 0.950 . S
H568 C574 0.949 . S
C569 H564 0.950 . S
C569 C571 1.327 . S
C569 C575 1.429 . S
C570 C562 1.574 . S
C570 H565 0.949 . S
C570 C576 1.368 . S
C571 C555 1.349 . S
C571 H563 0.950 . S
C571 C569 1.327 . S
C572 C560 1.349 . S
C572 H566 0.950 . S
C572 C573 1.327 . S
C573 H567 0.950 . S
C573 C572 1.327 . S
C573 C577 1.429 . S
C574 C557 1.574 . S
C574 H568 0.949 . S
C574 C578 1.368 . S
C575 C556 1.429 . S
C575 C569 1.429 . S
C575 C576 1.523 . S
C576 C557 1.368 . S
C576 C570 1.368 . S
C576 C575 1.523 . S
C577 C561 1.429 . S
C577 C573 1.429 . S
C577 C578 1.523 . S
C578 C562 1.368 . S
C578 C574 1.368 . S
C578 C577 1.523 . S
H579 C554 0.950 . S
H580 C556 0.950 . S
H581 C557 0.949 . S
H582 C559 0.950 . S
H583 C561 0.950 . S
C584 C585 1.349 . S
C584 C586 1.327 . S
C584 H609 0.950 . S
C585 C584 1.349 . S
C585 C601 1.349 . S
C586 C584 1.327 . S
C586 C605 1.429 . S
C586 H610 0.950 . S
C587 C604 1.574 . S
C587 C606 1.368 . S
C587 H611 0.949 . S
H588 C592 0.949 . S
C589 C590 1.349 . S
C589 C591 1.327 . S
C589 H612 0.950 . S
C590 C589 1.349 . S
C590 C602 1.349 . S
C591 C589 1.327 . S
C591 C607 1.429 . S
C591 H613 0.950 . S
C592 H588 0.949 . S
C592 C600 1.574 . S
C592 C608 1.368 . S
H593 C601 0.950 . S
H594 C599 0.950 . S
H595 C600 0.949 . S
H596 C602 0.950 . S
H597 C603 0.950 . S
H598 C604 0.949 . S
C599 H594 0.950 . S
C599 C601 1.327 . S
C599 C605 1.429 . S
C600 C592 1.574 . S
C600 H595 0.949 . S
C600 C606 1.368 . S
C601 C585 1.349 . S
C601 H593 0.950 . S
C601 C599 1.327 . S
C602 C590 1.349 . S
C602 H596 0.950 . S
C602 C603 1.327 . S
C603 H597 0.950 . S
C603 C602 1.327 . S
C603 C607 1.429 . S
C604 C587 1.574 . S
C604 H598 0.949 . S
C604 C608 1.368 . S
C605 C586 1.429 . S
C605 C599 1.429 . S
C605 C606 1.523 . S
C606 C587 1.368 . S
C606 C600 1.368 . S
C606 C605 1.523 . S
C607 C591 1.429 . S
C607 C603 1.429 . S
C607 C608 1.523 . S
C608 C592 1.368 . S
C608 C604 1.368 . S
C608 C607 1.523 . S
H609 C584 0.950 . S
H610 C586 0.950 . S
H611 C587 0.949 . S
H612 C589 0.950 . S
H613 C591 0.950 . S
C614 C615 1.349 . S
C614 C616 1.327 . S
C614 H639 0.950 . S
C615 C614 1.349 . S
C615 C631 1.349 . S
C616 C614 1.327 . S
C616 C635 1.429 . S
C616 H640 0.950 . S
C617 C634 1.574 . S
C617 C636 1.368 1_655 S
C617 H641 0.949 . S
H618 C622 0.949 . S
C619 C620 1.349 . S
C619 C621 1.327 . S
C619 H642 0.950 . S
C620 C619 1.349 . S
C620 C632 1.349 . S
C621 C619 1.327 . S
C621 C637 1.429 . S
C621 H643 0.950 . S
C622 H618 0.949 . S
C622 C630 1.574 . S
C622 C638 1.368 1_455 S
H623 C631 0.950 . S
H624 C629 0.950 1_655 S
H625 C630 0.949 . S
H626 C632 0.950 . S
H627 C633 0.950 1_455 S
H628 C634 0.949 . S
C629 H624 0.950 1_455 S
C629 C631 1.327 . S
C629 C635 1.429 . S
C630 C622 1.574 . S
C630 H625 0.949 . S
C630 C636 1.368 . S
C631 C615 1.349 . S
C631 H623 0.950 . S
C631 C629 1.327 . S
C632 C620 1.349 . S
C632 H626 0.950 . S
C632 C633 1.327 . S
C633 H627 0.950 1_655 S
C633 C632 1.327 . S
C633 C637 1.429 . S
C634 C617 1.574 . S
C634 H628 0.949 . S
C634 C638 1.368 . S
C635 C616 1.429 . S
C635 C629 1.429 . S
C635 C636 1.523 . S
C636 C617 1.368 1_455 S
C636 C630 1.368 . S
C636 C635 1.523 . S
C637 C621 1.429 . S
C637 C633 1.429 . S
C637 C638 1.523 . S
C638 C622 1.368 1_655 S
C638 C634 1.368 . S
C638 C637 1.523 . S
H639 C614 0.950 . S
H640 C616 0.950 . S
H641 C617 0.949 . S
H642 C619 0.950 . S
H643 C621 0.950 . S
C644 C645 1.349 . S
C644 C646 1.327 . S
C644 H669 0.950 . S
C645 C644 1.349 . S
C645 C661 1.349 . S
C646 C644 1.327 . S
C646 C665 1.429 . S
C646 H670 0.950 . S
C647 C664 1.574 . S
C647 C666 1.368 . S
C647 H671 0.949 . S
H648 C652 0.949 . S
C649 C650 1.349 . S
C649 C651 1.327 . S
C649 H672 0.950 . S
C650 C649 1.349 . S
C650 C662 1.349 . S
C651 C649 1.327 . S
C651 C667 1.429 . S
C651 H673 0.950 . S
C652 H648 0.949 . S
C652 C660 1.574 . S
C652 C668 1.368 . S
H653 C661 0.950 . S
H654 C659 0.950 . S
H655 C660 0.949 . S
H656 C662 0.950 . S
H657 C663 0.950 . S
H658 C664 0.949 . S
C659 H654 0.950 . S
C659 C661 1.327 . S
C659 C665 1.429 . S
C660 C652 1.574 . S
C660 H655 0.949 . S
C660 C666 1.368 . S
C661 C645 1.349 . S
C661 H653 0.950 . S
C661 C659 1.327 . S
C662 C650 1.349 . S
C662 H656 0.950 . S
C662 C663 1.327 . S
C663 H657 0.950 . S
C663 C662 1.327 . S
C663 C667 1.429 . S
C664 C647 1.574 . S
C664 H658 0.949 . S
C664 C668 1.368 . S
C665 C646 1.429 . S
C665 C659 1.429 . S
C665 C666 1.523 . S
C666 C647 1.368 . S
C666 C660 1.368 . S
C666 C665 1.523 . S
C667 C651 1.429 . S
C667 C663 1.429 . S
C667 C668 1.523 . S
C668 C652 1.368 . S
C668 C664 1.368 . S
C668 C667 1.523 . S
H669 C644 0.950 . S
H670 C646 0.950 . S
H671 C647 0.949 . S
H672 C649 0.950 . S
H673 C651 0.950 . S
C674 C675 1.349 . S
C674 C676 1.327 . S
C674 H699 0.950 . S
C675 C674 1.349 . S
C675 C691 1.349 . S
C676 C674 1.327 . S
C676 C695 1.429 . S
C676 H700 0.950 1_455 S
C677 C694 1.574 . S
C677 C696 1.368 . S
C677 H701 0.949 . S
H678 C682 0.949 . S
C679 C680 1.349 . S
C679 C681 1.327 . S
C679 H702 0.950 . S
C680 C679 1.349 . S
C680 C692 1.349 . S
C681 C679 1.327 . S
C681 C697 1.429 . S
C681 H703 0.950 1_655 S
C682 H678 0.949 . S
C682 C690 1.574 . S
C682 C698 1.368 . S
H683 C691 0.950 . S
H684 C689 0.950 . S
H685 C690 0.949 . S
H686 C692 0.950 . S
H687 C693 0.950 . S
H688 C694 0.949 . S
C689 H684 0.950 . S
C689 C691 1.327 . S
C689 C695 1.429 . S
C690 C682 1.574 . S
C690 H685 0.949 . S
C690 C696 1.368 1_655 S
C691 C675 1.349 . S
C691 H683 0.950 . S
C691 C689 1.327 . S
C692 C680 1.349 . S
C692 H686 0.950 . S
C692 C693 1.327 . S
C693 H687 0.950 . S
C693 C692 1.327 . S
C693 C697 1.429 . S
C694 C677 1.574 . S
C694 H688 0.949 . S
C694 C698 1.368 1_455 S
C695 C676 1.429 . S
C695 C689 1.429 . S
C695 C696 1.523 . S
C696 C677 1.368 . S
C696 C690 1.368 1_455 S
C696 C695 1.523 . S
C697 C681 1.429 . S
C697 C693 1.429 . S
C697 C698 1.523 . S
C698 C682 1.368 . S
C698 C694 1.368 1_655 S
C698 C697 1.523 . S
H699 C674 0.950 . S
H700 C676 0.950 1_655 S
H701 C677 0.949 . S
H702 C679 0.950 . S
H703 C681 0.950 1_455 S
C704 C705 1.349 . S
C704 C706 1.327 . S
C704 H729 0.950 . S
C705 C704 1.349 . S
C705 C721 1.349 . S
C706 C704 1.327 . S
C706 C725 1.429 . S
C706 H730 0.950 1_455 S
C707 C724 1.574 . S
C707 C726 1.368 . S
C707 H731 0.949 . S
H708 C712 0.949 . S
C709 C710 1.349 . S
C709 C711 1.327 . S
C709 H732 0.950 . S
C710 C709 1.349 . S
C710 C722 1.349 . S
C711 C709 1.327 . S
C711 C727 1.429 . S
C711 H733 0.950 1_655 S
C712 H708 0.949 . S
C712 C720 1.574 . S
C712 C728 1.368 . S
H713 C721 0.950 . S
H714 C719 0.950 . S
H715 C720 0.949 . S
H716 C722 0.950 . S
H717 C723 0.950 . S
H718 C724 0.949 . S
C719 H714 0.950 . S
C719 C721 1.327 . S
C719 C725 1.429 . S
C720 C712 1.574 . S
C720 H715 0.949 . S
C720 C726 1.368 1_655 S
C721 C705 1.349 . S
C721 H713 0.950 . S
C721 C719 1.327 . S
C722 C710 1.349 . S
C722 H716 0.950 . S
C722 C723 1.327 . S
C723 H717 0.950 . S
C723 C722 1.327 . S
C723 C727 1.429 . S
C724 C707 1.574 . S
C724 H718 0.949 . S
C724 C728 1.368 1_455 S
C725 C706 1.429 . S
C725 C719 1.429 . S
C725 C726 1.523 . S
C726 C707 1.368 . S
C726 C720 1.368 1_455 S
C726 C725 1.523 . S
C727 C711 1.429 . S
C727 C723 1.429 . S
C727 C728 1.523 . S
C728 C712 1.368 . S
C728 C724 1.368 1_655 S
C728 C727 1.523 . S
H729 C704 0.950 . S
H730 C706 0.950 1_655 S
H731 C707 0.949 . S
H732 C709 0.950 . S
H733 C711 0.950 1_455 S
C734 C735 1.349 . S
C734 C736 1.327 . S
C734 H759 0.950 . S
C735 C734 1.349 . S
C735 C751 1.349 . S
C736 C734 1.327 . S
C736 C755 1.429 . S
C736 H760 0.950 . S
C737 C754 1.574 . S
C737 C756 1.368 . S
C737 H761 0.949 . S
H738 C742 0.949 . S
C739 C740 1.349 . S
C739 C741 1.327 . S
C739 H762 0.950 . S
C740 C739 1.349 . S
C740 C752 1.349 . S
C741 C739 1.327 . S
C741 C757 1.429 . S
C741 H763 0.950 . S
C742 H738 0.949 . S
C742 C750 1.574 . S
C742 C758 1.368 . S
H743 C751 0.950 . S
H744 C749 0.950 . S
H745 C750 0.949 . S
H746 C752 0.950 . S
H747 C753 0.950 . S
H748 C754 0.949 . S
C749 H744 0.950 . S
C749 C751 1.327 . S
C749 C755 1.429 . S
C750 C742 1.574 . S
C750 H745 0.949 . S
C750 C756 1.368 . S
C751 C735 1.349 . S
C751 H743 0.950 . S
C751 C749 1.327 . S
C752 C740 1.349 . S
C752 H746 0.950 . S
C752 C753 1.327 . S
C753 H747 0.950 . S
C753 C752 1.327 . S
C753 C757 1.429 . S
C754 C737 1.574 . S
C754 H748 0.949 . S
C754 C758 1.368 . S
C755 C736 1.429 . S
C755 C749 1.429 . S
C755 C756 1.523 . S
C756 C737 1.368 . S
C756 C750 1.368 . S
C756 C755 1.523 . S
C757 C741 1.429 . S
C757 C753 1.429 . S
C757 C758 1.523 . S
C758 C742 1.368 . S
C758 C754 1.368 . S
C758 C757 1.523 . S
H759 C734 0.950 . S
H760 C736 0.950 . S
H761 C737 0.949 . S
H762 C739 0.950 . S
H763 C741 0.950 . S
C764 C765 1.349 . S
C764 C766 1.327 . S
C764 H789 0.950 . S
C765 C764 1.349 . S
C765 C781 1.349 . S
C766 C764 1.327 . S
C766 C785 1.429 . S
C766 H790 0.950 . S
C767 C784 1.574 . S
C767 C786 1.368 . S
C767 H791 0.949 . S
H768 C772 0.949 . S
C769 C770 1.349 . S
C769 C771 1.327 . S
C769 H792 0.950 . S
C770 C769 1.349 . S
C770 C782 1.349 . S
C771 C769 1.327 . S
C771 C787 1.429 . S
C771 H793 0.950 . S
C772 H768 0.949 . S
C772 C780 1.574 . S
C772 C788 1.368 . S
H773 C781 0.950 . S
H774 C779 0.950 . S
H775 C780 0.949 . S
H776 C782 0.950 . S
H777 C783 0.950 . S
H778 C784 0.949 . S
C779 H774 0.950 . S
C779 C781 1.327 . S
C779 C785 1.429 . S
C780 C772 1.574 . S
C780 H775 0.949 . S
C780 C786 1.368 . S
C781 C765 1.349 . S
C781 H773 0.950 . S
C781 C779 1.327 . S
C782 C770 1.349 . S
C782 H776 0.950 . S
C782 C783 1.327 . S
C783 H777 0.950 . S
C783 C782 1.327 . S
C783 C787 1.429 . S
C784 C767 1.574 . S
C784 H778 0.949 . S
C784 C788 1.368 . S
C785 C766 1.429 . S
C785 C779 1.429 . S
C785 C786 1.523 . S
C786 C767 1.368 . S
C786 C780 1.368 . S
C786 C785 1.523 . S
C787 C771 1.429 . S
C787 C783 1.429 . S
C787 C788 1.523 . S
C788 C772 1.368 . S
C788 C784 1.368 . S
C788 C787 1.523 . S
H789 C764 0.950 . S
H790 C766 0.950 . S
H791 C767 0.949 . S
H792 C769 0.950 . S
H793 C771 0.950 . S
C794 C795 1.349 . S
C794 C796 1.327 . S
C794 H819 0.950 . S
C795 C794 1.349 . S
C795 C811 1.349 . S
C796 C794 1.327 . S
C796 C815 1.429 . S
C796 H820 0.950 1_455 S
C797 C814 1.574 . S
C797 C816 1.368 . S
C797 H821 0.949 . S
H798 C802 0.949 . S
C799 C800 1.349 . S
C799 C801 1.327 . S
C799 H822 0.950 . S
C800 C799 1.349 . S
C800 C812 1.349 . S
C801 C799 1.327 . S
C801 C817 1.429 . S
C801 H823 0.950 1_655 S
C802 H798 0.949 . S
C802 C810 1.574 . S
C802 C818 1.368 . S
H803 C811 0.950 . S
H804 C809 0.950 . S
H805 C810 0.949 . S
H806 C812 0.950 . S
H807 C813 0.950 . S
H808 C814 0.949 . S
C809 H804 0.950 . S
C809 C811 1.327 . S
C809 C815 1.429 . S
C810 C802 1.574 . S
C810 H805 0.949 . S
C810 C816 1.368 1_655 S
C811 C795 1.349 . S
C811 H803 0.950 . S
C811 C809 1.327 . S
C812 C800 1.349 . S
C812 H806 0.950 . S
C812 C813 1.327 . S
C813 H807 0.950 . S
C813 C812 1.327 . S
C813 C817 1.429 . S
C814 C797 1.574 . S
C814 H808 0.949 . S
C814 C818 1.368 1_455 S
C815 C796 1.429 . S
C815 C809 1.429 . S
C815 C816 1.523 . S
C816 C797 1.368 . S
C816 C810 1.368 1_455 S
C816 C815 1.523 . S
C817 C801 1.429 . S
C817 C813 1.429 . S
C817 C818 1.523 . S
C818 C802 1.368 . S
C818 C814 1.368 1_655 S
C818 C817 1.523 . S
H819 C794 0.950 . S
H820 C796 0.950 1_655 S
H821 C797 0.949 . S
H822 C799 0.950 . S
H823 C801 0.950 1_455 S
C824 C825 1.349 . S
C824 C826 1.327 . S
C824 H849 0.950 . S
C825 C824 1.349 . S
C825 C841 1.349 . S
C826 C824 1.327 . S
C826 C845 1.429 . S
C826 H850 0.950 1_455 S
C827 C844 1.574 . S
C827 C846 1.368 . S
C827 H851 0.949 . S
H828 C832 0.949 . S
C829 C830 1.349 . S
C829 C831 1.327 . S
C829 H852 0.950 . S
C830 C829 1.349 . S
C830 C842 1.349 . S
C831 C829 1.327 . S
C831 C847 1.429 . S
C831 H853 0.950 1_655 S
C832 H828 0.949 . S
C832 C840 1.574 . S
C832 C848 1.368 . S
H833 C841 0.950 . S
H834 C839 0.950 . S
H835 C840 0.949 . S
H836 C842 0.950 . S
H837 C843 0.950 . S
H838 C844 0.949 . S
C839 H834 0.950 . S
C839 C841 1.327 . S
C839 C845 1.429 . S
C840 C832 1.574 . S
C840 H835 0.949 . S
C840 C846 1.368 1_655 S
C841 C825 1.349 . S
C841 H833 0.950 . S
C841 C839 1.327 . S
C842 C830 1.349 . S
C842 H836 0.950 . S
C842 C843 1.327 . S
C843 H837 0.950 . S
C843 C842 1.327 . S
C843 C847 1.429 . S
C844 C827 1.574 . S
C844 H838 0.949 . S
C844 C848 1.368 1_455 S
C845 C826 1.429 . S
C845 C839 1.429 . S
C845 C846 1.523 . S
C846 C827 1.368 . S
C846 C840 1.368 1_455 S
C846 C845 1.523 . S
C847 C831 1.429 . S
C847 C843 1.429 . S
C847 C848 1.523 . S
C848 C832 1.368 . S
C848 C844 1.368 1_655 S
C848 C847 1.523 . S
H849 C824 0.950 . S
H850 C826 0.950 1_655 S
H851 C827 0.949 . S
H852 C829 0.950 . S
H853 C831 0.950 1_455 S
C854 C855 1.349 . S
C854 C856 1.327 . S
C854 H879 0.950 . S
C855 C854 1.349 . S
C855 C871 1.349 . S
C856 C854 1.327 . S
C856 C875 1.429 . S
C856 H880 0.950 . S
C857 C874 1.574 . S
C857 C876 1.368 . S
C857 H881 0.949 . S
H858 C862 0.949 . S
C859 C860 1.349 . S
C859 C861 1.327 . S
C859 H882 0.950 . S
C860 C859 1.349 . S
C860 C872 1.349 . S
C861 C859 1.327 . S
C861 C877 1.429 . S
C861 H883 0.950 . S
C862 H858 0.949 . S
C862 C870 1.574 . S
C862 C878 1.368 . S
H863 C871 0.950 . S
H864 C869 0.950 . S
H865 C870 0.949 . S
H866 C872 0.950 . S
H867 C873 0.950 . S
H868 C874 0.949 . S
C869 H864 0.950 . S
C869 C871 1.327 . S
C869 C875 1.429 . S
C870 C862 1.574 . S
C870 H865 0.949 . S
C870 C876 1.368 . S
C871 C855 1.349 . S
C871 H863 0.950 . S
C871 C869 1.327 . S
C872 C860 1.349 . S
C872 H866 0.950 . S
C872 C873 1.327 . S
C873 H867 0.950 . S
C873 C872 1.327 . S
C873 C877 1.429 . S
C874 C857 1.574 . S
C874 H868 0.949 . S
C874 C878 1.368 . S
C875 C856 1.429 . S
C875 C869 1.429 . S
C875 C876 1.523 . S
C876 C857 1.368 . S
C876 C870 1.368 . S
C876 C875 1.523 . S
C877 C861 1.429 . S
C877 C873 1.429 . S
C877 C878 1.523 . S
C878 C862 1.368 . S
C878 C874 1.368 . S
C878 C877 1.523 . S
H879 C854 0.950 . S
H880 C856 0.950 . S
H881 C857 0.949 . S
H882 C859 0.950 . S
H883 C861 0.950 . S
C884 C885 1.349 . S
C884 C886 1.327 . S
C884 H909 0.950 . S
C885 C884 1.349 . S
C885 C901 1.349 . S
C886 C884 1.327 . S
C886 C905 1.429 . S
C886 H910 0.950 . S
C887 C904 1.574 . S
C887 C906 1.368 . S
C887 H911 0.949 . S
H888 C892 0.949 . S
C889 C890 1.349 . S
C889 C891 1.327 . S
C889 H912 0.950 . S
C890 C889 1.349 . S
C890 C902 1.349 . S
C891 C889 1.327 . S
C891 C907 1.429 . S
C891 H913 0.950 . S
C892 H888 0.949 . S
C892 C900 1.574 . S
C892 C908 1.368 . S
H893 C901 0.950 . S
H894 C899 0.950 . S
H895 C900 0.949 . S
H896 C902 0.950 . S
H897 C903 0.950 . S
H898 C904 0.949 . S
C899 H894 0.950 . S
C899 C901 1.327 . S
C899 C905 1.429 . S
C900 C892 1.574 . S
C900 H895 0.949 . S
C900 C906 1.368 . S
C901 C885 1.349 . S
C901 H893 0.950 . S
C901 C899 1.327 . S
C902 C890 1.349 . S
C902 H896 0.950 . S
C902 C903 1.327 . S
C903 H897 0.950 . S
C903 C902 1.327 . S
C903 C907 1.429 . S
C904 C887 1.574 . S
C904 H898 0.949 . S
C904 C908 1.368 . S
C905 C886 1.429 . S
C905 C899 1.429 . S
C905 C906 1.523 . S
C906 C887 1.368 . S
C906 C900 1.368 . S
C906 C905 1.523 . S
C907 C891 1.429 . S
C907 C903 1.429 . S
C907 C908 1.523 . S
C908 C892 1.368 . S
C908 C904 1.368 . S
C908 C907 1.523 . S
H909 C884 0.950 . S
H910 C886 0.950 . S
H911 C887 0.949 . S
H912 C889 0.950 . S
H913 C891 0.950 . S
C914 C915 1.349 . S
C914 C916 1.327 . S
C914 H939 0.950 . S
C915 C914 1.349 . S
C915 C931 1.349 . S
C916 C914 1.327 . S
C916 C935 1.429 . S
C916 H940 0.950 . S
C917 C934 1.574 . S
C917 C936 1.368 1_655 S
C917 H941 0.949 . S
H918 C922 0.949 . S
C919 C920 1.349 . S
C919 C921 1.327 . S
C919 H942 0.950 . S
C920 C919 1.349 . S
C920 C932 1.349 . S
C921 C919 1.327 . S
C921 C937 1.429 . S
C921 H943 0.950 . S
C922 H918 0.949 . S
C922 C930 1.574 . S
C922 C938 1.368 1_455 S
H923 C931 0.950 . S
H924 C929 0.950 1_655 S
H925 C930 0.949 . S
H926 C932 0.950 . S
H927 C933 0.950 1_455 S
H928 C934 0.949 . S
C929 H924 0.950 1_455 S
C929 C931 1.327 . S
C929 C935 1.429 . S
C930 C922 1.574 . S
C930 H925 0.949 . S
C930 C936 1.368 . S
C931 C915 1.349 . S
C931 H923 0.950 . S
C931 C929 1.327 . S
C932 C920 1.349 . S
C932 H926 0.950 . S
C932 C933 1.327 . S
C933 H927 0.950 1_655 S
C933 C932 1.327 . S
C933 C937 1.429 . S
C934 C917 1.574 . S
C934 H928 0.949 . S
C934 C938 1.368 . S
C935 C916 1.429 . S
C935 C929 1.429 . S
C935 C936 1.523 . S
C936 C917 1.368 1_455 S
C936 C930 1.368 . S
C936 C935 1.523 . S
C937 C921 1.429 . S
C937 C933 1.429 . S
C937 C938 1.523 . S
C938 C922 1.368 1_655 S
C938 C934 1.368 . S
C938 C937 1.523 . S
H939 C914 0.950 . S
H940 C916 0.950 . S
H941 C917 0.949 . S
H942 C919 0.950 . S
H943 C921 0.950 . S
C944 C945 1.349 . S
C944 C946 1.327 . S
C944 H969 0.950 . S
C945 C944 1.349 . S
C945 C961 1.349 . S
C946 C944 1.327 . S
C946 C965 1.429 . S
C946 H970 0.950 . S
C947 C964 1.574 1_556 S
C947 C966 1.368 1_545 S
C947 H971 0.949 . S
H948 C952 0.949 . S
C949 C950 1.349 . S
C949 C951 1.327 . S
C949 H972 0.950 . S
C950 C949 1.349 . S
C950 C962 1.349 . S
C951 C949 1.327 . S
C951 C967 1.429 . S
C951 H973 0.950 . S
C952 H948 0.949 . S
C952 C960 1.574 1_554 S
C952 C968 1.368 1_565 S
H953 C961 0.950 . S
H954 C959 0.950 1_545 S
H955 C960 0.949 . S
H956 C962 0.950 . S
H957 C963 0.950 1_565 S
H958 C964 0.949 . S
C959 H954 0.950 1_565 S
C959 C961 1.327 . S
C959 C965 1.429 . S
C960 C952 1.574 1_556 S
C960 H955 0.949 . S
C960 C966 1.368 1_455 S
C961 C945 1.349 . S
C961 H953 0.950 . S
C961 C959 1.327 . S
C962 C950 1.349 . S
C962 H956 0.950 . S
C962 C963 1.327 . S
C963 H957 0.950 1_545 S
C963 C962 1.327 . S
C963 C967 1.429 . S
C964 C947 1.574 1_554 S
C964 H958 0.949 . S
C964 C968 1.368 1_655 S
C965 C946 1.429 . S
C965 C959 1.429 . S
C965 C966 1.523 . S
C966 C947 1.368 1_565 S
C966 C960 1.368 1_655 S
C966 C965 1.523 . S
C967 C951 1.429 . S
C967 C963 1.429 . S
C967 C968 1.523 . S
C968 C952 1.368 1_545 S
C968 C964 1.368 1_455 S
C968 C967 1.523 . S
H969 C944 0.950 . S
H970 C946 0.950 . S
H971 C947 0.949 . S
H972 C949 0.950 . S
H973 C951 0.950 . S
C974 C975 1.349 . S
C974 C976 1.327 . S
C974 H999 0.950 . S
C975 C974 1.349 . S
C975 C991 1.349 . S
C976 C974 1.327 . S
C976 C995 1.429 . S
C976 H1000 0.950 . S
C977 C994 1.574 1_556 S
C977 C996 1.368 1_565 S
C977 H1001 0.949 . S
H978 C982 0.949 . S
C979 C980 1.349 . S
C979 C981 1.327 . S
C979 H1002 0.950 . S
C980 C979 1.349 . S
C980 C992 1.349 . S
C981 C979 1.327 . S
C981 C997 1.429 . S
C981 H1003 0.950 . S
C982 H978 0.949 . S
C982 C990 1.574 1_554 S
C982 C998 1.368 1_545 S
H983 C991 0.950 . S
H984 C989 0.950 1_565 S
H985 C990 0.949 . S
H986 C992 0.950 . S
H987 C993 0.950 1_545 S
H988 C994 0.949 . S
C989 H984 0.950 1_545 S
C989 C991 1.327 . S
C989 C995 1.429 . S
C990 C982 1.574 1_556 S
C990 H985 0.949 . S
C990 C996 1.368 . S
C991 C975 1.349 . S
C991 H983 0.950 . S
C991 C989 1.327 . S
C992 C980 1.349 . S
C992 H986 0.950 . S
C992 C993 1.327 . S
C993 H987 0.950 1_565 S
C993 C992 1.327 . S
C993 C997 1.429 . S
C994 C977 1.574 1_554 S
C994 H988 0.949 . S
C994 C998 1.368 . S
C995 C976 1.429 . S
C995 C989 1.429 . S
C995 C996 1.523 . S
C996 C977 1.368 1_545 S
C996 C990 1.368 . S
C996 C995 1.523 . S
C997 C981 1.429 . S
C997 C993 1.429 . S
C997 C998 1.523 . S
C998 C982 1.368 1_565 S
C998 C994 1.368 . S
C998 C997 1.523 . S
H999 C974 0.950 . S
H1000 C976 0.950 . S
H1001 C977 0.949 . S
H1002 C979 0.950 . S
H1003 C981 0.950 . S
C1004 C1005 1.349 . S
C1004 C1006 1.327 . S
C1004 H1029 0.950 . S
C1005 C1004 1.349 . S
C1005 C1021 1.349 . S
C1006 C1004 1.327 . S
C1006 C1025 1.429 . S
C1006 H1030 0.950 1_545 S
C1007 C1024 1.574 . S
C1007 C1026 1.368 . S
C1007 H1031 0.949 . S
H1008 C1012 0.949 . S
C1009 C1010 1.349 . S
C1009 C1011 1.327 . S
C1009 H1032 0.950 . S
C1010 C1009 1.349 . S
C1010 C1022 1.349 . S
C1011 C1009 1.327 . S
C1011 C1027 1.429 . S
C1011 H1033 0.950 1_565 S
C1012 H1008 0.949 . S
C1012 C1020 1.574 . S
C1012 C1028 1.368 . S
H1013 C1021 0.950 . S
H1014 C1019 0.950 . S
H1015 C1020 0.949 . S
H1016 C1022 0.950 . S
H1017 C1023 0.950 . S
H1018 C1024 0.949 . S
C1019 H1014 0.950 . S
C1019 C1021 1.327 . S
C1019 C1025 1.429 . S
C1020 C1012 1.574 . S
C1020 H1015 0.949 . S
C1020 C1026 1.368 1_565 S
C1021 C1005 1.349 . S
C1021 H1013 0.950 . S
C1021 C1019 1.327 . S
C1022 C1010 1.349 . S
C1022 H1016 0.950 . S
C1022 C1023 1.327 . S
C1023 H1017 0.950 . S
C1023 C1022 1.327 . S
C1023 C1027 1.429 . S
C1024 C1007 1.574 . S
C1024 H1018 0.949 . S
C1024 C1028 1.368 1_545 S
C1025 C1006 1.429 . S
C1025 C1019 1.429 . S
C1025 C1026 1.523 . S
C1026 C1007 1.368 . S
C1026 C1020 1.368 1_545 S
C1026 C1025 1.523 . S
C1027 C1011 1.429 . S
C1027 C1023 1.429 . S
C1027 C1028 1.523 . S
C1028 C1012 1.368 . S
C1028 C1024 1.368 1_565 S
C1028 C1027 1.523 . S
H1029 C1004 0.950 . S
H1030 C1006 0.950 1_565 S
H1031 C1007 0.949 . S
H1032 C1009 0.950 . S
H1033 C1011 0.950 1_545 S
C1034 C1035 1.349 . S
C1034 C1036 1.327 . S
C1034 H1059 0.950 . S
C1035 C1034 1.349 . S
C1035 C1051 1.349 . S
C1036 C1034 1.327 . S
C1036 C1055 1.429 . S
C1036 H1060 0.950 1_565 S
C1037 C1054 1.574 . S
C1037 C1056 1.368 1_655 S
C1037 H1061 0.949 . S
H1038 C1042 0.949 . S
C1039 C1040 1.349 . S
C1039 C1041 1.327 . S
C1039 H1062 0.950 . S
C1040 C1039 1.349 . S
C1040 C1052 1.349 . S
C1041 C1039 1.327 . S
C1041 C1057 1.429 . S
C1041 H1063 0.950 1_545 S
C1042 H1038 0.949 . S
C1042 C1050 1.574 . S
C1042 C1058 1.368 1_455 S
H1043 C1051 0.950 . S
H1044 C1049 0.950 1_655 S
H1045 C1050 0.949 . S
H1046 C1052 0.950 . S
H1047 C1053 0.950 1_455 S
H1048 C1054 0.949 . S
C1049 H1044 0.950 1_455 S
C1049 C1051 1.327 . S
C1049 C1055 1.429 . S
C1050 C1042 1.574 . S
C1050 H1045 0.949 . S
C1050 C1056 1.368 1_545 S
C1051 C1035 1.349 . S
C1051 H1043 0.950 . S
C1051 C1049 1.327 . S
C1052 C1040 1.349 . S
C1052 H1046 0.950 . S
C1052 C1053 1.327 . S
C1053 H1047 0.950 1_655 S
C1053 C1052 1.327 . S
C1053 C1057 1.429 . S
C1054 C1037 1.574 . S
C1054 H1048 0.949 . S
C1054 C1058 1.368 1_565 S
C1055 C1036 1.429 . S
C1055 C1049 1.429 . S
C1055 C1056 1.523 . S
C1056 C1037 1.368 1_455 S
C1056 C1050 1.368 1_565 S
C1056 C1055 1.523 . S
C1057 C1041 1.429 . S
C1057 C1053 1.429 . S
C1057 C1058 1.523 . S
C1058 C1042 1.368 1_655 S
C1058 C1054 1.368 1_545 S
C1058 C1057 1.523 . S
H1059 C1034 0.950 . S
H1060 C1036 0.950 1_545 S
H1061 C1037 0.949 . S
H1062 C1039 0.950 . S
H1063 C1041 0.950 1_565 S
C1064 C1065 1.349 . S
C1064 C1066 1.327 . S
C1064 H1089 0.950 . S
C1065 C1064 1.349 . S
C1065 C1081 1.349 . S
C1066 C1064 1.327 . S
C1066 C1085 1.429 . S
C1066 H1090 0.950 . S
C1067 C1084 1.574 1_554 S
C1067 C1086 1.368 . S
C1067 H1091 0.949 . S
H1068 C1072 0.949 . S
C1069 C1070 1.349 . S
C1069 C1071 1.327 . S
C1069 H1092 0.950 . S
C1070 C1069 1.349 . S
C1070 C1082 1.349 . S
C1071 C1069 1.327 . S
C1071 C1087 1.429 . S
C1071 H1093 0.950 . S
C1072 H1068 0.949 . S
C1072 C1080 1.574 1_556 S
C1072 C1088 1.368 . S
H1073 C1081 0.950 . S
H1074 C1079 0.950 . S
H1075 C1080 0.949 . S
H1076 C1082 0.950 . S
H1077 C1083 0.950 . S
H1078 C1084 0.949 . S
C1079 H1074 0.950 . S
C1079 C1081 1.327 . S
C1079 C1085 1.429 . S
C1080 C1072 1.574 1_554 S
C1080 H1075 0.949 . S
C1080 C1086 1.368 . S
C1081 C1065 1.349 . S
C1081 H1073 0.950 . S
C1081 C1079 1.327 . S
C1082 C1070 1.349 . S
C1082 H1076 0.950 . S
C1082 C1083 1.327 . S
C1083 H1077 0.950 . S
C1083 C1082 1.327 . S
C1083 C1087 1.429 . S
C1084 C1067 1.574 1_556 S
C1084 H1078 0.949 . S
C1084 C1088 1.368 . S
C1085 C1066 1.429 . S
C1085 C1079 1.429 . S
C1085 C1086 1.523 . S
C1086 C1067 1.368 . S
C1086 C1080 1.368 . S
C1086 C1085 1.523 . S
C1087 C1071 1.429 . S
C1087 C1083 1.429 . S
C1087 C1088 1.523 . S
C1088 C1072 1.368 . S
C1088 C1084 1.368 . S
C1088 C1087 1.523 . S
H1089 C1064 0.950 . S
H1090 C1066 0.950 . S
H1091 C1067 0.949 . S
H1092 C1069 0.950 . S
H1093 C1071 0.950 . S
C1094 C1095 1.349 . S
C1094 C1096 1.327 . S
C1094 H1119 0.950 . S
C1095 C1094 1.349 . S
C1095 C1111 1.349 . S
C1096 C1094 1.327 . S
C1096 C1115 1.429 . S
C1096 H1120 0.950 . S
C1097 C1114 1.574 1_554 S
C1097 C1116 1.368 . S
C1097 H1121 0.949 . S
H1098 C1102 0.949 . S
C1099 C1100 1.349 . S
C1099 C1101 1.327 . S
C1099 H1122 0.950 . S
C1100 C1099 1.349 . S
C1100 C1112 1.349 . S
C1101 C1099 1.327 . S
C1101 C1117 1.429 . S
C1101 H1123 0.950 . S
C1102 H1098 0.949 . S
C1102 C1110 1.574 1_556 S
C1102 C1118 1.368 . S
H1103 C1111 0.950 . S
H1104 C1109 0.950 . S
H1105 C1110 0.949 . S
H1106 C1112 0.950 . S
H1107 C1113 0.950 . S
H1108 C1114 0.949 . S
C1109 H1104 0.950 . S
C1109 C1111 1.327 . S
C1109 C1115 1.429 . S
C1110 C1102 1.574 1_554 S
C1110 H1105 0.949 . S
C1110 C1116 1.368 1_455 S
C1111 C1095 1.349 . S
C1111 H1103 0.950 . S
C1111 C1109 1.327 . S
C1112 C1100 1.349 . S
C1112 H1106 0.950 . S
C1112 C1113 1.327 . S
C1113 H1107 0.950 . S
C1113 C1112 1.327 . S
C1113 C1117 1.429 . S
C1114 C1097 1.574 1_556 S
C1114 H1108 0.949 . S
C1114 C1118 1.368 1_655 S
C1115 C1096 1.429 . S
C1115 C1109 1.429 . S
C1115 C1116 1.523 . S
C1116 C1097 1.368 . S
C1116 C1110 1.368 1_655 S
C1116 C1115 1.523 . S
C1117 C1101 1.429 . S
C1117 C1113 1.429 . S
C1117 C1118 1.523 . S
C1118 C1102 1.368 . S
C1118 C1114 1.368 1_455 S
C1118 C1117 1.523 . S
H1119 C1094 0.950 . S
H1120 C1096 0.950 . S
H1121 C1097 0.949 . S
H1122 C1099 0.950 . S
H1123 C1101 0.950 . S
C1124 C1125 1.349 . S
C1124 C1126 1.327 . S
C1124 H1149 0.950 . S
C1125 C1124 1.349 . S
C1125 C1141 1.349 . S
C1126 C1124 1.327 . S
C1126 C1145 1.429 . S
C1126 H1150 0.950 1_655 S
C1127 C1144 1.574 . S
C1127 C1146 1.368 . S
C1127 H1151 0.949 . S
H1128 C1132 0.949 . S
C1129 C1130 1.349 . S
C1129 C1131 1.327 . S
C1129 H1152 0.950 . S
C1130 C1129 1.349 . S
C1130 C1142 1.349 . S
C1131 C1129 1.327 . S
C1131 C1147 1.429 . S
C1131 H1153 0.950 1_455 S
C1132 H1128 0.949 . S
C1132 C1140 1.574 . S
C1132 C1148 1.368 . S
H1133 C1141 0.950 . S
H1134 C1139 0.950 . S
H1135 C1140 0.949 . S
H1136 C1142 0.950 . S
H1137 C1143 0.950 . S
H1138 C1144 0.949 . S
C1139 H1134 0.950 . S
C1139 C1141 1.327 . S
C1139 C1145 1.429 . S
C1140 C1132 1.574 . S
C1140 H1135 0.949 . S
C1140 C1146 1.368 1_455 S
C1141 C1125 1.349 . S
C1141 H1133 0.950 . S
C1141 C1139 1.327 . S
C1142 C1130 1.349 . S
C1142 H1136 0.950 . S
C1142 C1143 1.327 . S
C1143 H1137 0.950 . S
C1143 C1142 1.327 . S
C1143 C1147 1.429 . S
C1144 C1127 1.574 . S
C1144 H1138 0.949 . S
C1144 C1148 1.368 1_655 S
C1145 C1126 1.429 . S
C1145 C1139 1.429 . S
C1145 C1146 1.523 . S
C1146 C1127 1.368 . S
C1146 C1140 1.368 1_655 S
C1146 C1145 1.523 . S
C1147 C1131 1.429 . S
C1147 C1143 1.429 . S
C1147 C1148 1.523 . S
C1148 C1132 1.368 . S
C1148 C1144 1.368 1_455 S
C1148 C1147 1.523 . S
H1149 C1124 0.950 . S
H1150 C1126 0.950 1_455 S
H1151 C1127 0.949 . S
H1152 C1129 0.950 . S
H1153 C1131 0.950 1_655 S
C1154 C1155 1.349 . S
C1154 C1156 1.327 . S
C1154 H1179 0.950 . S
C1155 C1154 1.349 . S
C1155 C1171 1.349 . S
C1156 C1154 1.327 . S
C1156 C1175 1.429 . S
C1156 H1180 0.950 . S
C1157 C1174 1.574 . S
C1157 C1176 1.368 . S
C1157 H1181 0.949 . S
H1158 C1162 0.949 . S
C1159 C1160 1.349 . S
C1159 C1161 1.327 . S
C1159 H1182 0.950 . S
C1160 C1159 1.349 . S
C1160 C1172 1.349 . S
C1161 C1159 1.327 . S
C1161 C1177 1.429 . S
C1161 H1183 0.950 . S
C1162 H1158 0.949 . S
C1162 C1170 1.574 . S
C1162 C1178 1.368 . S
H1163 C1171 0.950 . S
H1164 C1169 0.950 . S
H1165 C1170 0.949 . S
H1166 C1172 0.950 . S
H1167 C1173 0.950 . S
H1168 C1174 0.949 . S
C1169 H1164 0.950 . S
C1169 C1171 1.327 . S
C1169 C1175 1.429 . S
C1170 C1162 1.574 . S
C1170 H1165 0.949 . S
C1170 C1176 1.368 . S
C1171 C1155 1.349 . S
C1171 H1163 0.950 . S
C1171 C1169 1.327 . S
C1172 C1160 1.349 . S
C1172 H1166 0.950 . S
C1172 C1173 1.327 . S
C1173 H1167 0.950 . S
C1173 C1172 1.327 . S
C1173 C1177 1.429 . S
C1174 C1157 1.574 . S
C1174 H1168 0.949 . S
C1174 C1178 1.368 . S
C1175 C1156 1.429 . S
C1175 C1169 1.429 . S
C1175 C1176 1.523 . S
C1176 C1157 1.368 . S
C1176 C1170 1.368 . S
C1176 C1175 1.523 . S
C1177 C1161 1.429 . S
C1177 C1173 1.429 . S
C1177 C1178 1.523 . S
C1178 C1162 1.368 . S
C1178 C1174 1.368 . S
C1178 C1177 1.523 . S
H1179 C1154 0.950 . S
H1180 C1156 0.950 . S
H1181 C1157 0.949 . S
H1182 C1159 0.950 . S
H1183 C1161 0.950 . S
C225 C22 1.502 . S
C230 C8 1.502 . S
C255 C36 1.502 . S
C260 C50 1.502 . S
C285 C64 1.502 . S
C290 C78 1.502 . S
C315 C106 1.502 . S
C320 C92 1.502 . S
C345 C134 1.502 . S
C350 C120 1.502 . S
C375 C162 1.502 . S
C380 C148 1.502 . S
C405 C190 1.502 . S
C410 C176 1.502 . S
C435 C218 1.502 . S
C440 C204 1.502 . S
C465 C45 1.365 . S
C470 C3 1.365 . S
C495 C17 1.365 . S
C500 C31 1.365 . S
C525 C101 1.365 . S
C530 C59 1.365 . S
C555 C87 1.365 . S
C560 C73 1.365 . S
C585 C115 1.365 . S
C590 C157 1.365 . S
C615 C143 1.365 . S
C620 C129 1.365 . S
C645 C213 1.365 . S
C650 C171 1.365 . S
C675 C185 1.365 . S
C680 C199 1.365 . S
C705 C9 1.483 . S
C710 C135 1.483 . S
C735 C23 1.483 . S
C740 C121 1.483 . S
C765 C163 1.483 . S
C770 C37 1.483 . S
C795 C149 1.483 . S
C800 C51 1.483 . S
C825 C191 1.483 . S
C830 C65 1.483 . S
C855 C177 1.483 . S
C860 C79 1.483 . S
C885 C93 1.483 . S
C890 C219 1.483 . S
C915 C107 1.483 . S
C920 C205 1.483 . S
C945 C63 1.293 . S
C950 C7 1.293 . S
C975 C77 1.293 . S
C980 C21 1.293 . S
C1005 C91 1.293 . S
C1010 C35 1.293 . S
C1035 C105 1.293 . S
C1040 C49 1.293 . S
C1065 C119 1.293 . S
C1070 C175 1.293 . S
C1095 C133 1.293 . S
C1100 C189 1.293 . S
C1125 C203 1.293 . S
C1130 C147 1.293 . S
C1155 C217 1.293 . S
C1160 C161 1.293 . S
