# Generated by pormake.
# Topology wme, (6)-cn, num edge types: 1
# Building blocks:
#     Node 0, Type 0, BuildingBlock: KUMJIN_clean_sbu_0, # of connection points: 6
#     Node 1, Type 0, BuildingBlock: KUMJIN_clean_sbu_0, # of connection points: 6
#     Node 2, Type 0, BuildingBlock: KUMJIN_clean_sbu_0, # of connection points: 6
#     Node 3, Type 0, BuildingBlock: KUMJIN_clean_sbu_0, # of connection points: 6
#     Node 4, Type 0, BuildingBlock: KUMJIN_clean_sbu_0, # of connection points: 6
#     Node 5, Type 0, BuildingBlock: KUMJIN_clean_sbu_0, # of connection points: 6
#     Node 6, Type 0, BuildingBlock: KUMJIN_clean_sbu_0, # of connection points: 6
#     Node 7, Type 0, BuildingBlock: KUMJIN_clean_sbu_0, # of connection points: 6
#     Node 8, Type 0, BuildingBlock: KUMJIN_clean_sbu_0, # of connection points: 6
#     Node 9, Type 0, BuildingBlock: KUMJIN_clean_sbu_0, # of connection points: 6
#     Node 10, Type 0, BuildingBlock: KUMJIN_clean_sbu_0, # of connection points: 6
#     Node 11, Type 0, BuildingBlock: KUMJIN_clean_sbu_0, # of connection points: 6
#     Edge 12, Type (0, 0), BuildingBlock: ZUJKAS_clean_linker_0, # of connection points: 2
#     Edge 13, Type (0, 0), BuildingBlock: ZUJKAS_clean_linker_0, # of connection points: 2
#     Edge 14, Type (0, 0), BuildingBlock: ZUJKAS_clean_linker_0, # of connection points: 2
#     Edge 15, Type (0, 0), BuildingBlock: ZUJKAS_clean_linker_0, # of connection points: 2
#     Edge 16, Type (0, 0), BuildingBlock: ZUJKAS_clean_linker_0, # of connection points: 2
#     Edge 17, Type (0, 0), BuildingBlock: ZUJKAS_clean_linker_0, # of connection points: 2
#     Edge 18, Type (0, 0), BuildingBlock: ZUJKAS_clean_linker_0, # of connection points: 2
#     Edge 19, Type (0, 0), BuildingBlock: ZUJKAS_clean_linker_0, # of connection points: 2
#     Edge 20, Type (0, 0), BuildingBlock: ZUJKAS_clean_linker_0, # of connection points: 2
#     Edge 21, Type (0, 0), BuildingBlock: ZUJKAS_clean_linker_0, # of connection points: 2
#     Edge 22, Type (0, 0), BuildingBlock: ZUJKAS_clean_linker_0, # of connection points: 2
#     Edge 23, Type (0, 0), BuildingBlock: ZUJKAS_clean_linker_0, # of connection points: 2
#     Edge 24, Type (0, 0), BuildingBlock: ZUJKAS_clean_linker_0, # of connection points: 2
#     Edge 25, Type (0, 0), BuildingBlock: ZUJKAS_clean_linker_0, # of connection points: 2
#     Edge 26, Type (0, 0), BuildingBlock: ZUJKAS_clean_linker_0, # of connection points: 2
#     Edge 27, Type (0, 0), BuildingBlock: ZUJKAS_clean_linker_0, # of connection points: 2
#     Edge 28, Type (0, 0), BuildingBlock: ZUJKAS_clean_linker_0, # of connection points: 2
#     Edge 29, Type (0, 0), BuildingBlock: ZUJKAS_clean_linker_0, # of connection points: 2
#     Edge 30, Type (0, 0), BuildingBlock: ZUJKAS_clean_linker_0, # of connection points: 2
#     Edge 31, Type (0, 0), BuildingBlock: ZUJKAS_clean_linker_0, # of connection points: 2
#     Edge 32, Type (0, 0), BuildingBlock: ZUJKAS_clean_linker_0, # of connection points: 2
#     Edge 33, Type (0, 0), BuildingBlock: ZUJKAS_clean_linker_0, # of connection points: 2
#     Edge 34, Type (0, 0), BuildingBlock: ZUJKAS_clean_linker_0, # of connection points: 2
#     Edge 35, Type (0, 0), BuildingBlock: ZUJKAS_clean_linker_0, # of connection points: 2
#     Edge 36, Type (0, 0), BuildingBlock: ZUJKAS_clean_linker_0, # of connection points: 2
#     Edge 37, Type (0, 0), BuildingBlock: ZUJKAS_clean_linker_0, # of connection points: 2
#     Edge 38, Type (0, 0), BuildingBlock: ZUJKAS_clean_linker_0, # of connection points: 2
#     Edge 39, Type (0, 0), BuildingBlock: ZUJKAS_clean_linker_0, # of connection points: 2
#     Edge 40, Type (0, 0), BuildingBlock: ZUJKAS_clean_linker_0, # of connection points: 2
#     Edge 41, Type (0, 0), BuildingBlock: ZUJKAS_clean_linker_0, # of connection points: 2
#     Edge 42, Type (0, 0), BuildingBlock: ZUJKAS_clean_linker_0, # of connection points: 2
#     Edge 43, Type (0, 0), BuildingBlock: ZUJKAS_clean_linker_0, # of connection points: 2
#     Edge 44, Type (0, 0), BuildingBlock: ZUJKAS_clean_linker_0, # of connection points: 2
#     Edge 45, Type (0, 0), BuildingBlock: ZUJKAS_clean_linker_0, # of connection points: 2
#     Edge 46, Type (0, 0), BuildingBlock: ZUJKAS_clean_linker_0, # of connection points: 2
#     Edge 47, Type (0, 0), BuildingBlock: ZUJKAS_clean_linker_0, # of connection points: 2
# Relax obj value: 0.096
# Max RMSD: 0.203
# Mean RMSD: 0.203
data_MOF--net-wme--node1-KUMJIN_clean_sbu_0--edge1-ZUJKAS_clean_linker_0
_symmetry_space_group_name_H-M    P1
_symmetry_Int_Tables_number       1
_symmetry_cell_setting            triclinic
loop_
_symmetry_equiv_pos_as_xyz
'x, y, z'
_cell_length_a     47.101944
_cell_length_b     47.038445
_cell_length_c     71.132617
_cell_angle_alpha  90.084265
_cell_angle_beta   89.903211
_cell_angle_gamma 119.94939
loop_
_atom_site_label
_atom_site_type_symbol
_atom_site_fract_x
_atom_site_fract_y
_atom_site_fract_z
_atom_type_partial_charge
Eu0 Eu 0.20057 0.36256 0.11416 0.0
C1 C 0.30763 0.35926 0.16503 0.0
C2 C 0.35859 0.39176 0.14821 0.0
C3 C 0.35861 0.38983 0.18236 0.0
C4 C 0.32429 0.37094 0.14827 0.0
C5 C 0.32463 0.36811 0.18227 0.0
C6 C 0.37556 0.40166 0.16536 0.0
C7 C 0.2735 0.33184 0.19792 0.0
N8 N 0.27486 0.33833 0.16442 0.0
C9 C 0.25777 0.32374 0.18046 0.0
C10 C 0.30703 0.3544 0.19886 0.0
Eu11 Eu 0.24942 0.32774 0.13457 0.0
N12 N 0.30714 0.36082 0.13197 0.0
C13 C 0.32312 0.36859 0.11509 0.0
C14 C 0.37488 0.40137 0.13093 0.0
C15 C 0.35711 0.38931 0.1143 0.0
H16 H 0.23178 0.30659 0.17985 0.0
H17 H 0.36953 0.39609 0.10086 0.0
H18 H 0.40187 0.41789 0.16561 0.0
H19 H 0.25974 0.32082 0.21064 0.0
H20 H 0.30975 0.35969 0.10211 0.0
H21 H 0.08115 0.30413 0.14896 0.0
H22 H 0.40119 0.41745 0.13027 0.0
H23 H 0.21598 0.3825 0.06868 0.0
H24 H 0.14132 0.33654 0.14693 0.0
H25 H 0.18704 0.36669 0.03814 0.0
H26 H 0.37208 0.39716 0.19547 0.0
H27 H 0.0482 0.28043 0.12017 0.0
H28 H 0.0464 0.27426 0.08508 0.0
H29 H 0.31917 0.36063 0.21239 0.0
H30 H 0.07543 0.2908 0.05477 0.0
N31 N 0.1428 0.33049 0.11736 0.0
C32 C 0.12737 0.32625 0.13426 0.0
C33 C 0.07468 0.29445 0.11922 0.0
C34 C 0.09052 0.30021 0.10184 0.0
C35 C 0.09319 0.30792 0.13547 0.0
C36 C 0.12504 0.31892 0.10134 0.0
H37 H 0.12784 0.32584 0.0371 0.0
N38 N 0.17402 0.34951 0.08451 0.0
C39 C 0.17389 0.35555 0.05101 0.0
C40 C 0.14126 0.32842 0.08433 0.0
C41 C 0.19018 0.36446 0.06829 0.0
C42 C 0.14052 0.33237 0.05048 0.0
C43 C 0.12357 0.31918 0.0673 0.0
O44 O 0.21348 0.41158 0.10408 0.0
O45 O 0.24971 0.37251 0.12385 0.0
O46 O 0.2497 0.36406 0.15516 0.0
O47 O 0.20116 0.36271 0.14679 0.0
O48 O 0.2491 0.39659 0.09985 0.0
O49 O 0.18542 0.39319 0.12956 0.0
O50 O 0.23417 0.27772 0.14368 0.0
O51 O 0.20017 0.31796 0.12502 0.0
O52 O 0.20414 0.32876 0.09217 0.0
O53 O 0.25056 0.32758 0.10268 0.0
O54 O 0.20099 0.2943 0.14928 0.0
O55 O 0.26538 0.29798 0.11922 0.0
C56 C 0.26784 0.39298 0.1116 0.0
C57 C 0.17466 0.42814 0.11072 0.0
C58 C 0.1592 0.47064 0.10826 0.0
C59 C 0.1804 0.45987 0.11516 0.0
C60 C 0.13207 0.44907 0.09729 0.0
C61 C 0.14737 0.40731 0.09975 0.0
C62 C 0.1262 0.41765 0.09315 0.0
C63 C 0.22476 0.36846 0.15911 0.0
C64 C 0.19714 0.41672 0.11716 0.0
C65 C 0.08941 0.2985 0.0677 0.0
C66 C 0.07289 0.2891 0.08496 0.0
C67 C 0.1823 0.29786 0.13748 0.0
C68 C 0.26897 0.2566 0.13616 0.0
C69 C 0.25451 0.2224 0.13404 0.0
C70 C 0.27182 0.20621 0.13894 0.0
C71 C 0.30382 0.22492 0.14609 0.0
C72 C 0.30078 0.27472 0.14342 0.0
C73 C 0.31808 0.25887 0.14834 0.0
C74 C 0.22812 0.32196 0.08981 0.0
C75 C 0.25059 0.27288 0.13052 0.0
H76 H 0.20152 0.47625 0.12355 0.0
H77 H 0.11522 0.45651 0.09199 0.0
H78 H 0.14246 0.38307 0.0962 0.0
H79 H 0.10522 0.40126 0.0847 0.0
H80 H 0.22997 0.20851 0.1283 0.0
H81 H 0.31767 0.21324 0.15021 0.0
H82 H 0.31222 0.30104 0.14521 0.0
H83 H 0.34264 0.27295 0.15395 0.0
Eu84 Eu 0.85323 0.1935 0.61166 0.0
C85 C 0.96056 0.29839 0.66525 0.0
C86 C 0.98194 0.35016 0.64884 0.0
C87 C 0.98139 0.34914 0.683 0.0
C88 C 0.9672 0.31567 0.64859 0.0
C89 C 0.96809 0.31496 0.68265 0.0
C90 C 0.98833 0.36672 0.66612 0.0
C91 C 0.9511 0.26306 0.69798 0.0
N92 N 0.94799 0.26546 0.66441 0.0
C93 C 0.94424 0.24778 0.68037 0.0
C94 C 0.96274 0.29674 0.69914 0.0
Eu95 Eu 0.93523 0.24105 0.63421 0.0
N96 N 0.9608 0.29894 0.63214 0.0
C97 C 0.97049 0.31541 0.61545 0.0
C98 C 0.99064 0.36704 0.63172 0.0
C99 C 0.98517 0.3496 0.61497 0.0
H100 H 0.93502 0.22169 0.67957 0.0
H101 H 0.99221 0.36246 0.60167 0.0
H102 H 0.99929 0.39317 0.66658 0.0
H103 H 0.94732 0.24883 0.71063 0.0
H104 H 0.9664 0.30232 0.60237 0.0
H105 H 0.78981 0.07316 0.64552 0.0
H106 H 1.00221 0.39355 0.6313 0.0
H107 H 0.85194 0.21019 0.56613 0.0
H108 H 0.81795 0.13341 0.64393 0.0
H109 H 0.83984 0.18181 0.53539 0.0
H110 H 0.98708 0.36229 0.69623 0.0
H111 H 0.7815 0.04068 0.6166 0.0
H112 H 0.78697 0.03956 0.58153 0.0
H113 H 0.96812 0.30854 0.7128 0.0
H114 H 0.80134 0.06931 0.55143 0.0
N115 N 0.82662 0.13551 0.61445 0.0
C116 C 0.81465 0.11972 0.63118 0.0
C117 C 0.79398 0.06722 0.61581 0.0
C118 C 0.80474 0.08342 0.59857 0.0
C119 C 0.79855 0.08546 0.63215 0.0
C120 C 0.82087 0.11802 0.59833 0.0
H121 H 0.82053 0.12233 0.53406 0.0
N122 N 0.84153 0.16763 0.5818 0.0
C123 C 0.83696 0.16829 0.54822 0.0
C124 C 0.82902 0.13468 0.58145 0.0
C125 C 0.8438 0.18428 0.56561 0.0
C126 C 0.8262 0.13475 0.54753 0.0
C127 C 0.82121 0.11732 0.56429 0.0
O128 O 0.81836 0.20746 0.60093 0.0
O129 O 0.89191 0.24199 0.62237 0.0
O130 O 0.89802 0.24094 0.65398 0.0
O131 O 0.85139 0.19294 0.64427 0.0
O132 O 0.86898 0.24287 0.59796 0.0
O133 O 0.8063 0.1777 0.62587 0.0
O134 O 0.96694 0.22221 0.64333 0.0
O135 O 0.89642 0.19236 0.62347 0.0
O136 O 0.89195 0.1978 0.59045 0.0
O137 O 0.93914 0.24315 0.60238 0.0
O138 O 0.91839 0.19207 0.64861 0.0
O139 O 0.98355 0.25916 0.62152 0.0
C140 C 0.89066 0.26087 0.61025 0.0
C141 C 0.76245 0.1681 0.60573 0.0
C142 C 0.70303 0.14677 0.60584 0.0
C143 C 0.73466 0.16819 0.61317 0.0
C144 C 0.7 0.12563 0.59096 0.0
C145 C 0.75834 0.1466 0.59096 0.0
C146 C 0.72739 0.12554 0.58367 0.0
C147 C 0.86842 0.21587 0.65714 0.0
C148 C 0.79568 0.19019 0.61325 0.0
C149 C 0.80713 0.08304 0.56447 0.0
C150 C 0.79888 0.0661 0.58159 0.0
C151 C 0.89737 0.17397 0.63607 0.0
C152 C 1.02383 0.25691 0.64039 0.0
C153 C 0.04351 0.24257 0.6377 0.0
C154 C 0.07453 0.25608 0.64624 0.0
C155 C 0.0856 0.28439 0.6574 0.0
C156 C 0.03528 0.28512 0.65153 0.0
C157 C 0.06611 0.2988 0.65996 0.0
C158 C 0.92307 0.2215 0.58897 0.0
C159 C 0.99088 0.24114 0.63214 0.0
H160 H 0.73765 0.18465 0.62463 0.0
H161 H 0.67641 0.1095 0.58462 0.0
H162 H 0.77905 0.14623 0.58489 0.0
H163 H 0.72467 0.10925 0.57218 0.0
H164 H 0.03434 0.22047 0.62928 0.0
H165 H 0.10949 0.29562 0.664 0.0
H166 H 1.02035 0.29637 0.6538 0.0
H167 H 0.07489 0.3206 0.66855 0.0
Eu168 Eu 0.67712 0.8461 0.11156 0.0
C169 C 0.68333 0.95471 0.16665 0.0
C170 C 0.64983 0.9744 0.1523 0.0
C171 C 0.65567 0.97581 0.18629 0.0
C172 C 0.67006 0.96031 0.15076 0.0
C173 C 0.6768 0.96293 0.18459 0.0
C174 C 0.64219 0.98152 0.17017 0.0
C175 C 0.71438 0.94736 0.19766 0.0
N176 N 0.70373 0.94239 0.1645 0.0
C177 C 0.71997 0.93944 0.17961 0.0
C178 C 0.69234 0.95872 0.20022 0.0
Eu179 Eu 0.71141 0.9287 0.13359 0.0
N180 N 0.67813 0.95336 0.13373 0.0
C181 C 0.6685 0.96189 0.11762 0.0
C182 C 0.63855 0.98168 0.13583 0.0
C183 C 0.64828 0.97575 0.11841 0.0
H184 H 0.73684 0.93043 0.17782 0.0
H185 H 0.64015 0.98177 0.10557 0.0
H186 H 0.62647 0.99209 0.17164 0.0
H187 H 0.72711 0.94471 0.20959 0.0
H188 H 0.67566 0.95735 0.10406 0.0
H189 H 0.73609 0.78293 0.14302 0.0
H190 H 0.62294 0.99248 0.13641 0.0
H191 H 0.65983 0.84871 0.0661 0.0
H192 H 0.70361 0.81078 0.14267 0.0
H193 H 0.67657 0.8389 0.03486 0.0
H194 H 0.65015 0.98205 0.19996 0.0
H195 H 0.75944 0.77568 0.11348 0.0
H196 H 0.76565 0.78294 0.07845 0.0
H197 H 0.68803 0.96481 0.21424 0.0
H198 H 0.74996 0.7988 0.04898 0.0
N199 N 0.70912 0.82016 0.11324 0.0
C200 C 0.7137 0.80795 0.12965 0.0
C201 C 0.74533 0.78812 0.11323 0.0
C202 C 0.73943 0.79948 0.09633 0.0
C203 C 0.73208 0.79205 0.12992 0.0
C204 C 0.72061 0.81523 0.09677 0.0
H205 H 0.71635 0.81923 0.03256 0.0
N206 N 0.69108 0.83627 0.08114 0.0
C207 C 0.68677 0.83477 0.0475 0.0
C208 C 0.71166 0.82396 0.0802 0.0
C209 C 0.67729 0.84022 0.06516 0.0
C210 C 0.70933 0.8238 0.04626 0.0
C211 C 0.72147 0.81748 0.06273 0.0
O212 O 0.62833 0.81046 0.10117 0.0
O213 O 0.66649 0.8841 0.12286 0.0
O214 O 0.67681 0.8917 0.15441 0.0
O215 O 0.67801 0.84499 0.14417 0.0
O216 O 0.64168 0.86016 0.09876 0.0
O217 O 0.64744 0.79861 0.12559 0.0
O218 O 0.76297 0.96215 0.14023 0.0
O219 O 0.72118 0.8899 0.12272 0.0
O220 O 0.71228 0.88572 0.09099 0.0
O221 O 0.70734 0.9297 0.10182 0.0
O222 O 0.74619 0.91377 0.14675 0.0
O223 O 0.73904 0.97598 0.11923 0.0
C224 C 0.64511 0.88157 0.11121 0.0
C225 C 0.61251 0.75455 0.10554 0.0
C226 C 0.57354 0.69512 0.10469 0.0
C227 C 0.5841 0.72663 0.11249 0.0
C228 C 0.59184 0.69245 0.08979 0.0
C229 C 0.63011 0.75069 0.09082 0.0
C230 C 0.61986 0.71992 0.08303 0.0
C231 C 0.67273 0.86215 0.15728 0.0
C232 C 0.62376 0.78777 0.11331 0.0
C233 C 0.74188 0.80365 0.06226 0.0
C234 C 0.75078 0.79458 0.07904 0.0
C235 C 0.74194 0.89177 0.13454 0.0
C236 C 0.78291 0.0187 0.13635 0.0
C237 C 0.81713 0.03851 0.13416 0.0
C238 C 0.83405 0.07015 0.14222 0.0
C239 C 0.816 0.0817 0.15222 0.0
C240 C 0.76556 0.03079 0.14642 0.0
C241 C 0.78206 0.06219 0.15422 0.0
C242 C 0.7158 0.91535 0.08871 0.0
C243 C 0.76586 0.98502 0.12879 0.0
H244 H 0.57051 0.72946 0.12393 0.0
H245 H 0.58421 0.6691 0.08302 0.0
H246 H 0.65161 0.77153 0.08514 0.0
H247 H 0.63356 0.7174 0.07154 0.0
H248 H 0.83061 0.02899 0.12661 0.0
H249 H 0.82813 0.10601 0.15838 0.0
H250 H 0.73932 1.0159 0.14833 0.0
H251 H 0.76852 0.07141 0.16196 0.0
Eu252 Eu 0.85052 0.6727 0.6132 0.0
C253 C 0.74464 0.67525 0.66656 0.0
C254 C 0.69268 0.64145 0.65103 0.0
C255 C 0.69499 0.64503 0.68514 0.0
C256 C 0.7269 0.66263 0.65025 0.0
C257 C 0.72886 0.66703 0.6842 0.0
C258 C 0.67692 0.63225 0.66858 0.0
C259 C 0.78089 0.70435 0.69857 0.0
N260 N 0.77726 0.69645 0.66513 0.0
C261 C 0.79537 0.71181 0.68074 0.0
C262 C 0.74754 0.6816 0.70034 0.0
Eu263 Eu 0.80075 0.70603 0.63469 0.0
N264 N 0.74292 0.67209 0.63356 0.0
C265 C 0.72578 0.66311 0.61708 0.0
C266 C 0.67525 0.63072 0.63416 0.0
C267 C 0.69184 0.64199 0.61711 0.0
H268 H 0.82124 0.72914 0.67952 0.0
H269 H 0.67853 0.63428 0.60398 0.0
H270 H 0.6507 0.61578 0.66947 0.0
H271 H 0.79549 0.71602 0.71093 0.0
H272 H 0.73817 0.67134 0.60377 0.0
H273 H 0.97307 0.733 0.64383 0.0
H274 H 0.64897 0.61432 0.63415 0.0
H275 H 0.82991 0.65311 0.56799 0.0
H276 H 0.91277 0.70026 0.64386 0.0
H277 H 0.85579 0.66837 0.53657 0.0
H278 H 0.68245 0.6382 0.69857 0.0
H279 H 1.00299 0.75608 0.61404 0.0
H280 H 1.00116 0.76097 0.57897 0.0
H281 H 0.73636 0.67587 0.71416 0.0
H282 H 0.96909 0.74375 0.5497 0.0
N283 N 0.90835 0.70521 0.61445 0.0
C284 C 0.92546 0.71017 0.63076 0.0
C285 C 0.97647 0.74173 0.61398 0.0
C286 C 0.95888 0.73526 0.59718 0.0
C287 C 0.95969 0.72869 0.6308 0.0
C288 C 0.92438 0.7163 0.59786 0.0
H289 H 0.91494 0.70869 0.53373 0.0
N290 N 0.87366 0.6856 0.58262 0.0
C291 C 0.87028 0.67942 0.54906 0.0
C292 C 0.90641 0.7065 0.58141 0.0
C293 C 0.85572 0.67079 0.56684 0.0
C294 C 0.90364 0.7023 0.54751 0.0
C295 C 0.92232 0.71555 0.56381 0.0
O296 O 0.83743 0.62352 0.60339 0.0
O297 O 0.80175 0.66183 0.62409 0.0
O298 O 0.80351 0.67142 0.65532 0.0
O299 O 0.85208 0.67352 0.6458 0.0
O300 O 0.8013 0.63666 0.60026 0.0
O301 O 0.86882 0.64378 0.62756 0.0
O302 O 0.81472 0.75614 0.64308 0.0
O303 O 0.84993 0.71642 0.62469 0.0
O304 O 0.84612 0.70746 0.59235 0.0
O305 O 0.79709 0.70252 0.60287 0.0
O306 O 0.84949 0.74137 0.64849 0.0
O307 O 0.78449 0.73461 0.61846 0.0
C308 C 0.78314 0.64026 0.6125 0.0
C309 C 0.87783 0.60832 0.60791 0.0
C310 C 0.89733 0.56865 0.60672 0.0
C311 C 0.87624 0.57913 0.61434 0.0
C312 C 0.91958 0.5878 0.59252 0.0
C313 C 0.90046 0.62674 0.59386 0.0
C314 C 0.92115 0.61658 0.58625 0.0
C315 C 0.82912 0.66779 0.65864 0.0
C316 C 0.85586 0.61958 0.61557 0.0
C317 C 0.95646 0.73623 0.56308 0.0
C318 C 0.97472 0.74601 0.57975 0.0
C319 C 0.86797 0.73737 0.63672 0.0
C320 C 0.77893 0.7756 0.6346 0.0
C321 C 0.79274 0.80974 0.63252 0.0
C322 C 0.77425 0.82505 0.63662 0.0
C323 C 0.7418 0.8056 0.64299 0.0
C324 C 0.74666 0.75673 0.64111 0.0
C325 C 0.72823 0.77174 0.64527 0.0
C326 C 0.8201 0.71102 0.58991 0.0
C327 C 0.79836 0.76007 0.62956 0.0
H328 H 0.85888 0.56487 0.62526 0.0
H329 H 0.9355 0.58025 0.58593 0.0
H330 H 0.90196 0.64888 0.58861 0.0
H331 H 0.93831 0.63095 0.57529 0.0
H332 H 0.81765 0.82425 0.62739 0.0
H333 H 0.72705 0.81664 0.64646 0.0
H334 H 0.73569 0.73046 0.64287 0.0
H335 H 0.70331 0.75708 0.65027 0.0
Eu336 Eu 0.19471 0.84273 0.1141 0.0
C337 C 0.0789 0.73128 0.16178 0.0
C338 C 0.07112 0.68165 0.14689 0.0
C339 C 0.05831 0.68113 0.18003 0.0
C340 C 0.08119 0.71535 0.14609 0.0
C341 C 0.06621 0.71408 0.17875 0.0
C342 C 0.06084 0.66494 0.16411 0.0
C343 C 0.06551 0.76172 0.19089 0.0
N344 N 0.08614 0.76284 0.15989 0.0
C345 C 0.07799 0.77763 0.17371 0.0
C346 C 0.06029 0.73005 0.19358 0.0
Eu347 Eu 0.10893 0.78927 0.13098 0.0
N348 N 0.0904 0.73211 0.12965 0.0
C349 C 0.08679 0.71577 0.11314 0.0
C350 C 0.07013 0.66544 0.13019 0.0
C351 C 0.07729 0.68243 0.11318 0.0
H352 H 0.08201 0.80212 0.17172 0.0
H353 H 0.07563 0.66992 0.1001 0.0
H354 H 0.05346 0.63917 0.16506 0.0
H355 H 0.06 0.77392 0.20203 0.0
H356 H 0.09234 0.72852 0.09989 0.0
H357 H 0.24956 0.95977 0.15155 0.0
H358 H 0.06266 0.6396 0.13018 0.0
H359 H 0.19989 0.82977 0.06822 0.0
H360 H 0.22292 0.89979 0.14837 0.0
H361 H 0.21415 0.86077 0.03831 0.0
H362 H 0.04899 0.66762 0.19303 0.0
H363 H 0.26128 0.9945 0.1233 0.0
H364 H 0.25995 0.9985 0.08818 0.0
H365 H 0.05048 0.7177 0.20685 0.0
H366 H 0.24954 0.97144 0.05732 0.0
N367 N 0.21857 0.90009 0.11858 0.0
C368 C 0.22764 0.91447 0.13589 0.0
C369 C 0.2494 0.96809 0.12181 0.0
C370 C 0.24121 0.95334 0.10405 0.0
C371 C 0.2429 0.94857 0.13777 0.0
C372 C 0.22594 0.91885 0.10286 0.0
H373 H 0.23289 0.92016 0.03858 0.0
N374 N 0.2088 0.87089 0.08496 0.0
C375 C 0.21586 0.87311 0.05147 0.0
C376 C 0.22043 0.9037 0.0855 0.0
C377 C 0.2079 0.85568 0.06838 0.0
C378 C 0.2263 0.9066 0.05168 0.0
C379 C 0.22949 0.92249 0.06886 0.0
O380 O 0.23356 0.83402 0.10367 0.0
O381 O 0.15703 0.79244 0.12359 0.0
O382 O 0.14044 0.79685 0.15634 0.0
O383 O 0.19173 0.84042 0.1466 0.0
O384 O 0.18445 0.79542 0.10006 0.0
O385 O 0.2394 0.85788 0.13045 0.0
O386 O 0.07445 0.8077 0.1319 0.0
O387 O 0.14807 0.83956 0.12294 0.0
O388 O 0.1577 0.83919 0.09184 0.0
O389 O 0.11521 0.78751 0.09952 0.0
O390 O 0.11855 0.83659 0.14532 0.0
O391 O 0.06306 0.76542 0.11498 0.0
C392 C 0.16268 0.77566 0.11181 0.0
C393 C 0.28768 0.87313 0.11289 0.0
C394 C 0.34673 0.89262 0.11406 0.0
C395 C 0.31399 0.86839 0.11817 0.0
C396 C 0.35251 0.92113 0.10445 0.0
C397 C 0.29445 0.90172 0.10316 0.0
C398 C 0.32657 0.92552 0.09899 0.0
C399 C 0.17103 0.82035 0.15967 0.0
C400 C 0.2533 0.84884 0.11772 0.0
C401 C 0.24273 0.95662 0.06995 0.0
C402 C 0.2487 0.97203 0.08753 0.0
C403 C 0.14273 0.85635 0.1348 0.0
C404 C 1.01874 0.76854 0.12879 0.0
C405 C 0.99888 0.78251 0.12515 0.0
C406 C 0.96715 0.76888 0.13303 0.0
C407 C 0.95591 0.74098 0.1446 0.0
C408 C 1.00671 0.74061 0.14019 0.0
C409 C 0.97546 0.72695 0.14802 0.0
C410 C 0.12976 0.81222 0.08766 0.0
C411 C 0.05256 0.78442 0.1215 0.0
H412 H 0.30908 0.84634 0.12566 0.0
H413 H 0.37723 0.93994 0.10088 0.0
H414 H 0.27492 0.90572 0.09876 0.0
H415 H 0.33137 0.94748 0.09148 0.0
H416 H 1.00826 0.80394 0.11619 0.0
H417 H 0.93217 0.7302 0.15136 0.0
H418 H 1.02158 0.72956 0.14321 0.0
H419 H 0.96647 0.70558 0.15698 0.0
Eu420 Eu 0.37585 0.18944 0.61196 0.0
C421 C 0.36864 0.0842 0.66788 0.0
C422 C 0.39684 0.05983 0.65202 0.0
C423 C 0.39866 0.06417 0.68611 0.0
C424 C 0.37781 0.07533 0.65141 0.0
C425 C 0.37852 0.0783 0.68544 0.0
C426 C 0.40778 0.05492 0.66943 0.0
C427 C 0.34615 0.09884 0.70037 0.0
N428 N 0.34906 0.09763 0.66673 0.0
C429 C 0.33677 0.10394 0.68261 0.0
C430 C 0.36738 0.08626 0.7018 0.0
Eu431 Eu 0.337 0.10867 0.63621 0.0
N432 N 0.36687 0.08047 0.63484 0.0
C433 C 0.37205 0.06855 0.61846 0.0
C434 C 0.40359 0.049 0.63516 0.0
C435 C 0.39078 0.05301 0.61834 0.0
H436 H 0.32065 0.11402 0.68157 0.0
H437 H 0.39543 0.04427 0.60526 0.0
H438 H 0.42275 0.04342 0.67016 0.0
H439 H 0.33712 0.10474 0.71292 0.0
H440 H 0.36252 0.07167 0.60534 0.0
H441 H 0.3314 0.26618 0.64265 0.0
H442 H 0.41804 0.0369 0.63503 0.0
H443 H 0.39332 0.18501 0.56691 0.0
H444 H 0.35295 0.22821 0.64288 0.0
H445 H 0.38166 0.19902 0.53547 0.0
H446 H 0.40676 0.0597 0.69946 0.0
H447 H 0.31703 0.28189 0.61252 0.0
H448 H 0.30963 0.27423 0.57771 0.0
H449 H 0.37456 0.08228 0.71557 0.0
H450 H 0.3215 0.2542 0.54845 0.0
N451 N 0.34867 0.22033 0.61327 0.0
C452 C 0.34559 0.23372 0.62967 0.0
C453 C 0.32492 0.26386 0.61264 0.0
C454 C 0.32772 0.24987 0.59591 0.0
C455 C 0.33347 0.25543 0.62963 0.0
C456 C 0.34048 0.22841 0.59663 0.0
H457 H 0.34871 0.22643 0.53253 0.0
N458 N 0.36454 0.2013 0.58142 0.0
C459 C 0.37173 0.20418 0.54791 0.0
C460 C 0.34793 0.21787 0.58019 0.0
C461 C 0.3781 0.19609 0.5657 0.0
C462 C 0.35301 0.21952 0.54631 0.0
C463 C 0.3418 0.22756 0.56258 0.0
O464 O 0.42624 0.21998 0.602 0.0
O465 O 0.38262 0.14939 0.62373 0.0
O466 O 0.37619 0.14613 0.65498 0.0
O467 O 0.37649 0.19312 0.64446 0.0
O468 O 0.40603 0.16924 0.59869 0.0
O469 O 0.40889 0.23723 0.6249 0.0
O470 O 0.28751 0.07759 0.64723 0.0
O471 O 0.33008 0.14888 0.62446 0.0
O472 O 0.33967 0.15095 0.59134 0.0
O473 O 0.3339 0.10267 0.60443 0.0
O474 O 0.30709 0.12907 0.64975 0.0
O475 O 0.30411 0.06118 0.62334 0.0
C476 C 0.40142 0.1481 0.61155 0.0
C477 C 0.44745 0.27733 0.6041 0.0
C478 C 0.49033 0.33513 0.60227 0.0
C479 C 0.47574 0.30454 0.61163 0.0
C480 C 0.47588 0.33831 0.58574 0.0
C481 C 0.43375 0.28139 0.58753 0.0
C482 C 0.44771 0.31165 0.5785 0.0
C483 C 0.38173 0.17621 0.65764 0.0
C484 C 0.43272 0.24458 0.61308 0.0
C485 C 0.32662 0.24673 0.56183 0.0
C486 C 0.3199 0.25816 0.57848 0.0
C487 C 0.3115 0.15008 0.63685 0.0
C488 C 0.26404 0.02041 0.64305 0.0
C489 C 0.23024 0.99947 0.64011 0.0
C490 C 0.21401 0.96756 0.64778 0.0
C491 C 0.23235 0.95696 0.65825 0.0
C492 C 0.28175 1.0093 0.65354 0.0
C493 C 0.26593 0.97769 0.66106 0.0
C494 C 0.33015 0.11917 0.59052 0.0
C495 C 0.2804 0.05386 0.63531 0.0
H496 H 0.48678 0.30175 0.62433 0.0
H497 H 0.48649 0.36156 0.57839 0.0
H498 H 0.4125 0.2611 0.58133 0.0
H499 H 0.43684 0.31435 0.56572 0.0
H500 H 0.21655 1.00826 0.63216 0.0
H501 H 0.2208 0.93246 0.66412 0.0
H502 H 0.30773 0.02505 0.65592 0.0
H503 H 0.27975 0.96921 0.6691 0.0
Eu504 Eu 0.67876 0.84054 0.4024 0.0
C505 C 0.68538 0.73964 0.34733 0.0
C506 C 0.65357 0.68694 0.3626 0.0
C507 C 0.65652 0.69009 0.32848 0.0
C508 C 0.67363 0.72134 0.36359 0.0
C509 C 0.67751 0.72419 0.32959 0.0
C510 C 0.64453 0.6715 0.34496 0.0
C511 C 0.71356 0.77696 0.3155 0.0
N512 N 0.70562 0.77249 0.3489 0.0
C513 C 0.72052 0.79117 0.33339 0.0
C514 C 0.69161 0.74339 0.31355 0.0
Eu515 Eu 0.71518 0.79496 0.37956 0.0
N516 N 0.68305 0.737 0.38039 0.0
C517 C 0.67529 0.71949 0.39673 0.0
C518 C 0.6439 0.66903 0.37937 0.0
C519 C 0.65522 0.68535 0.3965 0.0
H520 H 0.73729 0.81717 0.33476 0.0
H521 H 0.64841 0.67168 0.40953 0.0
H522 H 0.6289 0.64513 0.34391 0.0
H523 H 0.72511 0.79194 0.30323 0.0
H524 H 0.68373 0.73182 0.41007 0.0
H525 H 0.73045 0.9603 0.36853 0.0
H526 H 0.62838 0.64258 0.37922 0.0
H527 H 0.6613 0.82311 0.44783 0.0
H528 H 0.7026 0.90022 0.37001 0.0
H529 H 0.67576 0.85139 0.47861 0.0
H530 H 0.64995 0.67779 0.31497 0.0
H531 H 0.75062 0.9931 0.39759 0.0
H532 H 0.75648 0.99469 0.43271 0.0
H533 H 0.68624 0.73246 0.29966 0.0
H534 H 0.74309 0.96496 0.46274 0.0
N535 N 0.70869 0.89851 0.39959 0.0
C536 C 0.71194 0.91402 0.38283 0.0
C537 C 0.73917 0.96664 0.39832 0.0
C538 C 0.7348 0.95069 0.41556 0.0
C539 C 0.72763 0.94821 0.3819 0.0
C540 C 0.71915 0.91612 0.41576 0.0
H541 H 0.71273 0.91149 0.48004 0.0
N542 N 0.69204 0.86631 0.43226 0.0
C543 C 0.68609 0.86519 0.46582 0.0
C544 C 0.7111 0.89943 0.43266 0.0
C545 C 0.67804 0.84926 0.44841 0.0
C546 C 0.70711 0.89907 0.46656 0.0
C547 C 0.71901 0.91678 0.44983 0.0
O548 O 0.62959 0.82498 0.41325 0.0
O549 O 0.67003 0.79253 0.39133 0.0
O550 O 0.67828 0.79472 0.35952 0.0
O551 O 0.67823 0.84184 0.36982 0.0
O552 O 0.64668 0.79105 0.41614 0.0
O553 O 0.64637 0.85483 0.38833 0.0
O554 O 0.76618 0.81404 0.37127 0.0
O555 O 0.72374 0.843 0.39076 0.0
O556 O 0.71371 0.83701 0.42342 0.0
O557 O 0.71606 0.7919 0.41141 0.0
O558 O 0.74717 0.84477 0.36586 0.0
O559 O 0.74462 0.77617 0.39251 0.0
C560 C 0.6504 0.7734 0.40358 0.0
C561 C 0.61071 0.86251 0.40847 0.0
C562 C 0.56782 0.87731 0.41113 0.0
C563 C 0.57977 0.85777 0.40312 0.0
C564 C 0.58745 0.90191 0.4241 0.0
C565 C 0.62956 0.88722 0.42148 0.0
C566 C 0.61812 0.90685 0.42916 0.0
C567 C 0.67302 0.81942 0.35676 0.0
C568 C 0.62325 0.84153 0.40092 0.0
C569 C 0.73663 0.95121 0.4497 0.0
C570 C 0.74421 0.96813 0.4326 0.0
C571 C 0.74312 0.86214 0.37846 0.0
C572 C 0.78794 0.7788 0.37421 0.0
C573 C 0.82122 0.79122 0.37849 0.0
C574 C 0.83903 0.77764 0.3702 0.0
C575 C 0.82259 0.75116 0.35762 0.0
C576 C 0.77211 0.75235 0.36176 0.0
C577 C 0.78941 0.7386 0.35354 0.0
C578 C 0.72146 0.81352 0.42484 0.0
C579 C 0.77053 0.79453 0.38236 0.0
H580 H 0.56485 0.83861 0.39318 0.0
H581 H 0.57905 0.91747 0.4303 0.0
H582 H 0.65306 0.89125 0.42586 0.0
H583 H 0.633 0.92584 0.43918 0.0
H584 H 0.83309 0.81143 0.38833 0.0
H585 H 0.83544 0.74045 0.35061 0.0
H586 H 0.74653 0.74254 0.35829 0.0
H587 H 0.77714 0.71833 0.34381 0.0
Eu588 Eu 0.85476 0.67013 0.90281 0.0
C589 C 0.96232 0.67342 0.84809 0.0
C590 C 0.98193 0.64025 0.86301 0.0
C591 C 0.98233 0.64423 0.82893 0.0
C592 C 0.96825 0.6609 0.8642 0.0
C593 C 0.96969 0.66561 0.83026 0.0
C594 C 0.98844 0.63157 0.84528 0.0
C595 C 0.95316 0.702 0.81646 0.0
N596 N 0.95014 0.69402 0.84989 0.0
C597 C 0.94637 0.7091 0.83445 0.0
C598 C 0.96459 0.67992 0.81433 0.0
Eu599 Eu 0.93706 0.70313 0.8807 0.0
N600 N 0.96169 0.6698 0.88108 0.0
C601 C 0.9702 0.6606 0.89737 0.0
C602 C 0.98919 0.62943 0.87967 0.0
C603 C 0.98364 0.63998 0.89692 0.0
H604 H 0.93724 0.72595 0.8359 0.0
H605 H 0.98956 0.63211 0.9099 0.0
H606 H 0.9987 0.61552 0.84407 0.0
H607 H 0.94945 0.71346 0.80425 0.0
H608 H 0.96585 0.66832 0.9108 0.0
H609 H 0.79058 0.72859 0.87218 0.0
H610 H 0.99957 0.61342 0.87936 0.0
H611 H 0.85894 0.65331 0.94823 0.0
H612 H 0.81895 0.69652 0.87215 0.0
H613 H 0.84974 0.67004 0.97959 0.0
H614 H 0.98795 0.63775 0.81536 0.0
H615 H 0.7838 0.75195 0.90191 0.0
H616 H 0.79154 0.75799 0.93689 0.0
H617 H 0.96985 0.67447 0.80038 0.0
H618 H 0.80821 0.74252 0.96615 0.0
N619 N 0.82876 0.70207 0.90151 0.0
C620 C 0.81618 0.70654 0.88523 0.0
C621 C 0.79632 0.73789 0.90198 0.0
C622 C 0.80804 0.73205 0.91874 0.0
C623 C 0.80002 0.72468 0.88518 0.0
C624 C 0.82398 0.71342 0.91808 0.0
H625 H 0.82951 0.70936 0.98223 0.0
N626 N 0.84558 0.6841 0.93339 0.0
C627 C 0.8451 0.68004 0.96703 0.0
C628 C 0.83308 0.70452 0.93453 0.0
C629 C 0.8502 0.67057 0.94929 0.0
C630 C 0.83381 0.70235 0.96846 0.0
C631 C 0.82691 0.71429 0.9521 0.0
O632 O 0.81879 0.62148 0.91321 0.0
O633 O 0.8925 0.65892 0.89193 0.0
O634 O 0.89956 0.66751 0.86057 0.0
O635 O 0.85346 0.67021 0.87018 0.0
O636 O 0.86817 0.63438 0.91598 0.0
O637 O 0.80759 0.64072 0.88856 0.0
O638 O 0.97086 0.75437 0.87357 0.0
O639 O 0.89845 0.7136 0.89097 0.0
O640 O 0.89461 0.70624 0.92292 0.0
O641 O 0.93783 0.69985 0.91249 0.0
O642 O 0.92281 0.73794 0.86686 0.0
O643 O 0.98392 0.73091 0.89534 0.0
C644 C 0.8897 0.63757 0.90369 0.0
C645 C 0.76326 0.60626 0.90846 0.0
C646 C 0.70385 0.56798 0.90864 0.0
C647 C 0.73543 0.57831 0.90115 0.0
C648 C 0.70094 0.58615 0.92354 0.0
C649 C 0.7593 0.62373 0.92323 0.0
C650 C 0.7284 0.61378 0.93067 0.0
C651 C 0.87035 0.66398 0.85733 0.0
C652 C 0.79642 0.61712 0.90092 0.0
C653 C 0.81285 0.73449 0.95279 0.0
C654 C 0.80335 0.74329 0.93614 0.0
C655 C 0.90071 0.73417 0.87886 0.0
C656 C 0.02711 0.77458 0.87845 0.0
C657 C 0.04697 0.8085 0.88161 0.0
C658 C 0.07926 0.82577 0.87454 0.0
C659 C 0.09117 0.80827 0.86425 0.0
C660 C 0.0395 0.75773 0.86817 0.0
C661 C 0.07143 0.77456 0.86115 0.0
C662 C 0.92402 0.70941 0.92532 0.0
C663 C 0.99322 0.7575 0.88546 0.0
H664 H 0.73839 0.56485 0.88967 0.0
H665 H 0.67744 0.57865 0.93004 0.0
H666 H 0.78015 0.64488 0.9292 0.0
H667 H 0.72575 0.62737 0.94218 0.0
H668 H 0.03727 0.8213 0.88969 0.0
H669 H 0.11559 0.8207 0.85829 0.0
H670 H 1.02445 0.73167 0.8655 0.0
H671 H 0.08087 0.76147 0.85314 0.0
Eu672 Eu 0.20235 0.84791 0.40237 0.0
C673 C 0.30703 0.95395 0.34758 0.0
C674 C 0.3595 0.97407 0.36289 0.0
C675 C 0.35648 0.97345 0.32877 0.0
C676 C 0.3252 0.96029 0.36385 0.0
C677 C 0.32248 0.96081 0.32984 0.0
C678 C 0.37497 0.9801 0.34527 0.0
C679 C 0.2699 0.94394 0.31558 0.0
N680 N 0.27428 0.94187 0.34911 0.0
C681 C 0.25574 0.93775 0.33348 0.0
C682 C 0.30338 0.95524 0.31373 0.0
Eu683 Eu 0.2517 0.92975 0.37983 0.0
N684 N 0.3095 0.95412 0.38064 0.0
C685 C 0.32691 0.96296 0.39702 0.0
C686 C 0.37732 0.98199 0.37966 0.0
C687 C 0.36096 0.97664 0.3968 0.0
H688 H 0.2298 0.92877 0.33472 0.0
H689 H 0.37455 0.98301 0.40985 0.0
H690 H 0.40126 0.99039 0.34426 0.0
H691 H 0.25496 0.93987 0.30322 0.0
H692 H 0.31464 0.95889 0.41038 0.0
H693 H 0.08195 0.78519 0.369 0.0
H694 H 0.40372 0.99281 0.37951 0.0
H695 H 0.21981 0.84928 0.44809 0.0
H696 H 0.14215 0.81278 0.37038 0.0
H697 H 0.19177 0.83869 0.47887 0.0
H698 H 0.36878 0.97867 0.31528 0.0
H699 H 0.04999 0.77816 0.39795 0.0
H700 H 0.04938 0.78539 0.43292 0.0
H701 H 0.31429 0.96006 0.29984 0.0
H702 H 0.07943 0.80053 0.46291 0.0
N703 N 0.14461 0.82242 0.39975 0.0
C704 C 0.12862 0.8101 0.38313 0.0
C705 C 0.07649 0.79058 0.39864 0.0
C706 C 0.09291 0.8019 0.41577 0.0
C707 C 0.09443 0.79436 0.38228 0.0
C708 C 0.12743 0.81754 0.41591 0.0
H709 H 0.13246 0.81979 0.48021 0.0
N710 N 0.17709 0.83792 0.43235 0.0
C711 C 0.17815 0.8352 0.46602 0.0
C712 C 0.14426 0.82594 0.43275 0.0
C713 C 0.19393 0.84112 0.4486 0.0
C714 C 0.1447 0.82468 0.46671 0.0
C715 C 0.12715 0.81914 0.44995 0.0
O716 O 0.21458 0.81206 0.41356 0.0
O717 O 0.25126 0.88556 0.39166 0.0
O718 O 0.25067 0.89208 0.36011 0.0
O719 O 0.20214 0.84584 0.36975 0.0
O720 O 0.25117 0.86206 0.41609 0.0
O721 O 0.18558 0.80065 0.38831 0.0
O722 O 0.23347 0.96269 0.37216 0.0
O723 O 0.20268 0.89162 0.39041 0.0
O724 O 0.20695 0.88781 0.4228 0.0
O725 O 0.25531 0.93215 0.41168 0.0
O726 O 0.20291 0.91432 0.36553 0.0
O727 O 0.27155 0.97796 0.39313 0.0
C728 C 0.26964 0.88335 0.40374 0.0
C729 C 0.17456 0.75642 0.40854 0.0
C730 C 0.15284 0.69686 0.4086 0.0
C731 C 0.17466 0.72846 0.40135 0.0
C732 C 0.13123 0.69403 0.42315 0.0
C733 C 0.15259 0.75257 0.42295 0.0
C734 C 0.13109 0.72163 0.43016 0.0
C735 C 0.22546 0.86252 0.35702 0.0
C736 C 0.19729 0.78957 0.40114 0.0
C737 C 0.09297 0.80557 0.44985 0.0
C738 C 0.07586 0.79691 0.43278 0.0
C739 C 0.18455 0.89302 0.37787 0.0
C740 C 0.26948 0.01939 0.37519 0.0
C741 C 0.25538 0.03932 0.37794 0.0
C742 C 0.26913 0.0705 0.36947 0.0
C743 C 0.29748 0.08148 0.35837 0.0
C744 C 0.29768 0.03078 0.36407 0.0
C745 C 0.31163 0.06176 0.35577 0.0
C746 C 0.23268 0.91774 0.42485 0.0
C747 C 0.25345 0.98621 0.38326 0.0
H748 H 0.19149 0.73134 0.39014 0.0
H749 H 0.11477 0.67049 0.42946 0.0
H750 H 0.15223 0.77349 0.4288 0.0
H751 H 0.11443 0.71905 0.44139 0.0
H752 H 0.23326 0.03021 0.3863 0.0
H753 H 0.3089 0.10546 0.35184 0.0
H754 H 0.30872 1.01567 0.36172 0.0
H755 H 0.33343 0.07049 0.3472 0.0
Eu756 Eu 0.37559 0.19499 0.90318 0.0
C757 C 0.36968 0.29213 0.8451 0.0
C758 C 0.40135 0.3462 0.85885 0.0
C759 C 0.39925 0.33974 0.82488 0.0
C760 C 0.38117 0.31195 0.86081 0.0
C761 C 0.37826 0.30579 0.82693 0.0
C762 C 0.41076 0.35992 0.84081 0.0
C763 C 0.34344 0.25155 0.81418 0.0
N764 N 0.34946 0.25946 0.84759 0.0
C765 C 0.33545 0.23921 0.83248 0.0
C766 C 0.36516 0.28495 0.81138 0.0
Eu767 Eu 0.33981 0.23987 0.87897 0.0
N768 N 0.37165 0.29789 0.87801 0.0
C769 C 0.37951 0.31693 0.89378 0.0
C770 C 0.41093 0.36568 0.87505 0.0
C771 C 0.39957 0.351 0.89258 0.0
H772 H 0.31893 0.21331 0.8345 0.0
H773 H 0.40641 0.36588 0.90518 0.0
H774 H 0.42648 0.38614 0.83903 0.0
H775 H 0.33296 0.23528 0.80226 0.0
H776 H 0.37117 0.30594 0.90743 0.0
H777 H 0.32316 0.07181 0.87384 0.0
H778 H 0.42653 0.39207 0.87416 0.0
H779 H 0.39266 0.21777 0.94821 0.0
H780 H 0.35157 0.13206 0.87319 0.0
H781 H 0.37832 0.19284 0.97986 0.0
H782 H 0.40631 0.35069 0.81104 0.0
H783 H 0.30234 0.04225 0.90388 0.0
H784 H 0.29679 0.04464 0.93888 0.0
H785 H 0.3713 0.29445 0.79718 0.0
H786 H 0.31078 0.07768 0.96777 0.0
N787 N 0.34531 0.13693 0.90244 0.0
C788 C 0.34207 0.11963 0.88638 0.0
C789 C 0.31433 0.06879 0.90365 0.0
C790 C 0.31894 0.08666 0.92022 0.0
C791 C 0.32611 0.08537 0.88668 0.0
C792 C 0.33493 0.12119 0.91917 0.0
H793 H 0.34158 0.13296 0.98322 0.0
N794 N 0.36273 0.17273 0.93393 0.0
C795 C 0.36824 0.17763 0.9675 0.0
C796 C 0.34352 0.13974 0.93544 0.0
C797 C 0.37632 0.19165 0.94958 0.0
C798 C 0.34734 0.14385 0.96933 0.0
C799 C 0.33545 0.12434 0.9532 0.0
O800 O 0.42376 0.20773 0.91455 0.0
O801 O 0.38476 0.24251 0.89117 0.0
O802 O 0.37724 0.23872 0.85988 0.0
O803 O 0.37495 0.19084 0.87066 0.0
O804 O 0.4094 0.24538 0.91562 0.0
O805 O 0.40777 0.1811 0.88845 0.0
O806 O 0.28911 0.22177 0.87031 0.0
O807 O 0.33079 0.19228 0.89118 0.0
O808 O 0.34007 0.20001 0.92326 0.0
O809 O 0.34173 0.24647 0.91066 0.0
O810 O 0.3068 0.18919 0.86637 0.0
O811 O 0.31017 0.25799 0.89247 0.0
C812 C 0.40519 0.26233 0.90286 0.0
C813 C 0.44124 0.1694 0.90791 0.0
C814 C 0.47996 0.14891 0.90687 0.0
C815 C 0.47087 0.17216 0.90137 0.0
C816 C 0.45926 0.12329 0.91901 0.0
C817 C 0.42155 0.14392 0.92031 0.0
C818 C 0.43041 0.12098 0.92575 0.0
C819 C 0.38115 0.2131 0.85735 0.0
C820 C 0.43016 0.19222 0.9015 0.0
C821 C 0.3174 0.08996 0.95427 0.0
C822 C 0.30944 0.07115 0.93782 0.0
C823 C 0.31095 0.17247 0.87928 0.0
C824 C 0.2673 0.2569 0.87449 0.0
C825 C 0.23329 0.24272 0.87732 0.0
C826 C 0.21608 0.25759 0.86992 0.0
C827 C 0.23372 0.28709 0.8598 0.0
C828 C 0.28426 0.28617 0.8643 0.0
C829 C 0.2675 0.3012 0.85705 0.0
C830 C 0.3348 0.22522 0.9245 0.0
C831 C 0.28451 0.24047 0.88197 0.0
H832 H 0.48645 0.19187 0.89188 0.0
H833 H 0.46576 0.1053 0.92356 0.0
H834 H 0.39929 0.14171 0.92583 0.0
H835 H 0.41485 0.10136 0.93527 0.0
H836 H 0.22019 0.2198 0.88497 0.0
H837 H 0.22146 0.29948 0.85414 0.0
H838 H 0.31039 0.29734 0.86194 0.0
H839 H 0.28073 0.32388 0.84924 0.0
Eu840 Eu 0.19845 0.3706 0.40399 0.0
C841 C 0.09406 0.36028 0.34575 0.0
C842 C 0.06895 0.38897 0.36018 0.0
C843 C 0.07332 0.38821 0.32616 0.0
C844 C 0.08488 0.37042 0.36171 0.0
C845 C 0.0879 0.36857 0.32776 0.0
C846 C 0.06385 0.39839 0.34234 0.0
C847 C 0.10905 0.33564 0.31432 0.0
N848 N 0.10797 0.34125 0.34781 0.0
C849 C 0.11461 0.32804 0.33245 0.0
C850 C 0.09599 0.35631 0.31195 0.0
Eu851 Eu 0.11894 0.33145 0.3789 0.0
N852 N 0.0901 0.3608 0.3787 0.0
C853 C 0.07792 0.36697 0.39466 0.0
C854 C 0.05787 0.39674 0.37659 0.0
C855 C 0.06203 0.38534 0.39389 0.0
H856 H 0.12505 0.31234 0.33414 0.0
H857 H 0.05311 0.39079 0.40665 0.0
H858 H 0.05199 0.41295 0.34091 0.0
H859 H 0.11493 0.32565 0.30218 0.0
H860 H 0.08111 0.35856 0.40815 0.0
H861 H 0.27742 0.32545 0.37813 0.0
H862 H 0.04544 0.41086 0.37603 0.0
H863 H 0.18609 0.38594 0.44855 0.0
H864 H 0.23946 0.34704 0.37559 0.0
H865 H 0.19753 0.37516 0.48079 0.0
H866 H 0.06864 0.39508 0.31247 0.0
H867 H 0.29048 0.31192 0.40937 0.0
H868 H 0.28053 0.30641 0.44407 0.0
H869 H 0.0917 0.36214 0.29788 0.0
H870 H 0.2576 0.31862 0.47199 0.0
N871 N 0.22944 0.34373 0.40492 0.0
C872 C 0.24408 0.34014 0.38922 0.0
C873 C 0.27277 0.32012 0.40821 0.0
C874 C 0.25764 0.3237 0.42424 0.0
C875 C 0.26574 0.32808 0.3906 0.0
C876 C 0.23627 0.33636 0.42216 0.0
H877 H 0.22694 0.34455 0.48582 0.0
N878 N 0.20691 0.35984 0.43544 0.0
C879 C 0.20501 0.36613 0.46886 0.0
C880 C 0.2241 0.34404 0.43789 0.0
C881 C 0.19855 0.37216 0.45057 0.0
C882 C 0.22147 0.34872 0.47164 0.0
C883 C 0.23198 0.33817 0.45607 0.0
O884 O 0.22948 0.42079 0.41411 0.0
O885 O 0.15915 0.37751 0.39135 0.0
O886 O 0.15661 0.37027 0.36015 0.0
O887 O 0.20377 0.37172 0.37146 0.0
O888 O 0.17851 0.40174 0.41626 0.0
O889 O 0.24675 0.40274 0.39146 0.0
O890 O 0.08929 0.28068 0.3695 0.0
O891 O 0.15896 0.32475 0.39113 0.0
O892 O 0.15898 0.3322 0.42336 0.0
O893 O 0.1132 0.33154 0.41061 0.0
O894 O 0.14006 0.30185 0.36573 0.0
O895 O 0.07123 0.29905 0.39168 0.0
C896 C 0.15775 0.39681 0.40315 0.0
C897 C 0.28654 0.44001 0.41279 0.0
C898 C 0.34605 0.47738 0.41327 0.0
C899 C 0.31534 0.46486 0.40422 0.0
C900 C 0.34725 0.46451 0.43092 0.0
C901 C 0.2887 0.42808 0.43048 0.0
C902 C 0.31883 0.44009 0.43939 0.0
C903 C 0.18701 0.3765 0.35792 0.0
C904 C 0.25431 0.42652 0.4034 0.0
C905 C 0.25143 0.32348 0.45814 0.0
C906 C 0.26449 0.31653 0.44225 0.0
C907 C 0.16082 0.30643 0.37879 0.0
C908 C 0.03206 0.2563 0.37252 0.0
C909 C 1.01285 0.22227 0.37539 0.0
C910 C 0.98148 0.20426 0.36726 0.0
C911 C 0.96972 0.22107 0.35628 0.0
C912 C 1.01992 0.27251 0.36149 0.0
C913 C 0.98884 0.25491 0.35344 0.0
C914 C 0.12797 0.32525 0.42446 0.0
C915 C 0.06499 0.27427 0.38077 0.0
H916 H 0.31384 0.47428 0.39059 0.0
H917 H 0.37015 0.47392 0.43848 0.0
H918 H 0.26709 0.40973 0.43758 0.0
H919 H 0.3201 0.43069 0.45306 0.0
H920 H 1.02262 0.20981 0.38369 0.0
H921 H 0.94554 0.20815 0.35005 0.0
H922 H 0.03446 0.29868 0.3591 0.0
H923 H 0.9795 0.26754 0.34498 0.0
Eu924 Eu 0.85354 0.18799 0.90102 0.0
C925 C 0.74674 0.07885 0.84825 0.0
C926 C 0.6945 0.06095 0.86348 0.0
C927 C 0.69733 0.05889 0.82942 0.0
C928 C 0.72872 0.07404 0.86445 0.0
C929 C 0.73122 0.07093 0.83054 0.0
C930 C 0.679 0.0539 0.84586 0.0
C931 C 0.78352 0.08577 0.81646 0.0
N932 N 0.7794 0.09049 0.84984 0.0
C933 C 0.79775 0.09312 0.83433 0.0
C934 C 0.75015 0.0749 0.81452 0.0
Eu935 Eu 0.80223 0.10458 0.88045 0.0
N936 N 0.74446 0.08109 0.88123 0.0
C937 C 0.72709 0.07361 0.89763 0.0
C938 C 0.67681 0.05478 0.88024 0.0
C939 C 0.69316 0.06078 0.8974 0.0
H940 H 0.82361 0.10177 0.83561 0.0
H941 H 0.67967 0.05569 0.91047 0.0
H942 H 0.65279 0.04409 0.84482 0.0
H943 H 0.79832 0.08861 0.80418 0.0
H944 H 0.73934 0.0783 0.91099 0.0
H945 H 0.97169 0.24788 0.86485 0.0
H946 H 0.65053 0.04488 0.8801 0.0
H947 H 0.83939 0.18933 0.94706 0.0
H948 H 0.91177 0.22099 0.8676 0.0
H949 H 0.86933 0.20048 0.97721 0.0
H950 H 0.68499 0.05287 0.81594 0.0
H951 H 1.00546 0.25615 0.89307 0.0
H952 H 1.00833 0.25047 0.92804 0.0
H953 H 0.73917 0.0692 0.80066 0.0
H954 H 0.9803 0.23686 0.95869 0.0
N955 N 0.91104 0.2126 0.89704 0.0
C956 C 0.92598 0.22398 0.88005 0.0
C957 C 0.97903 0.24386 0.89437 0.0
C958 C 0.96374 0.23345 0.91188 0.0
C959 C 0.96007 0.2394 0.87842 0.0
C960 C 0.92927 0.21807 0.91281 0.0
H961 H 0.92853 0.21872 0.97719 0.0
N962 N 0.88089 0.19951 0.93038 0.0
C963 C 0.88205 0.20335 0.96405 0.0
C964 C 0.91361 0.21091 0.93003 0.0
C965 C 0.86522 0.19716 0.94701 0.0
C966 C 0.91544 0.2135 0.96398 0.0
C967 C 0.93182 0.21822 0.94683 0.0
O968 O 0.84518 0.22631 0.91277 0.0
O969 O 0.80397 0.15022 0.89118 0.0
O970 O 0.8037 0.14112 0.8597 0.0
O971 O 0.85283 0.18759 0.86837 0.0
O972 O 0.80535 0.17607 0.91494 0.0
O973 O 0.86722 0.2331 0.88535 0.0
O974 O 0.81862 0.06971 0.87366 0.0
O975 O 0.85189 0.14288 0.89025 0.0
O976 O 0.84823 0.1487 0.92218 0.0
O977 O 0.79857 0.10488 0.91222 0.0
O978 O 0.85062 0.11773 0.86619 0.0
O979 O 0.78245 0.05793 0.89549 0.0
C980 C 0.78625 0.15409 0.90308 0.0
C981 C 0.88374 0.28074 0.90373 0.0
C982 C 0.9041 0.34001 0.90274 0.0
C983 C 0.87947 0.30742 0.89864 0.0
C984 C 0.93261 0.3453 0.9121 0.0
C985 C 0.91227 0.28695 0.91329 0.0
C986 C 0.93653 0.31895 0.91739 0.0
C987 C 0.8292 0.1702 0.85594 0.0
C988 C 0.85907 0.24656 0.89879 0.0
C989 C 0.96592 0.23139 0.94595 0.0
C990 C 0.98188 0.23914 0.9285 0.0
C991 C 0.86954 0.13993 0.87795 0.0
C992 C 0.78126 1.01369 0.87868 0.0
C993 C 0.79495 0.99325 0.88092 0.0
C994 C 0.77907 0.96112 0.87352 0.0
C995 C 0.74906 0.94976 0.86408 0.0
C996 C 0.7514 1.00183 0.86918 0.0
C997 C 0.73537 0.96995 0.862 0.0
C998 C 0.8217 0.11962 0.92504 0.0
C999 C 0.79905 0.04772 0.88564 0.0
H1000 H 0.85745 0.30292 0.89131 0.0
H1001 H 0.95173 0.36992 0.91562 0.0
H1002 H 0.91586 0.26706 0.91759 0.0
H1003 H 0.95846 0.32336 0.92475 0.0
H1004 H 0.81829 1.00263 0.88802 0.0
H1005 H 0.736 0.92509 0.85843 0.0
H1006 H 0.74059 1.01723 0.86724 0.0
H1007 H 0.71228 0.96089 0.8547 0.0
H1008 H 0.15507 0.89689 0.16435 0.0
H1009 H 0.17283 0.95551 0.16385 0.0
H1010 H 0.17236 0.95383 0.10317 0.0
H1011 H 0.15349 0.89484 0.10375 0.0
H1012 H 0.22794 1.0039 0.15105 0.0
H1013 H 0.12641 1.00451 0.1123 0.0
H1014 H 0.12365 0.96724 0.12107 0.0
H1015 H 0.14472 0.98503 0.09935 0.0
C1016 C 0.15869 0.90912 0.15093 0.0
C1017 C 0.15415 0.89179 0.13409 0.0
C1018 C 0.16876 0.94256 0.15063 0.0
C1019 C 0.17389 0.95927 0.13348 0.0
C1020 C 0.16807 0.94155 0.11661 0.0
H1021 H 0.29992 0.17184 0.12481 0.0
H1022 H 0.27597 0.1123 0.12267 0.0
C1023 C 0.15791 0.90799 0.11692 0.0
C1024 C 0.18731 0.99549 0.13344 0.0
H1025 H 0.17454 0.0565 0.11696 0.0
C1026 C 0.21618 1.01532 0.14359 0.0
C1027 C 0.17182 1.01055 0.12396 0.0
C1028 C 0.13976 0.99072 0.11372 0.0
C1029 C 0.23013 0.04956 0.14439 0.0
C1030 C 0.21526 0.06473 0.13441 0.0
C1031 C 0.18618 0.04495 0.12443 0.0
C1032 C 0.22916 0.10099 0.13458 0.0
C1033 C 0.26027 0.06904 0.15632 0.0
C1034 C 0.21045 0.11461 0.14126 0.0
C1035 C 0.22402 0.14872 0.14235 0.0
C1036 C 0.25664 0.16995 0.13678 0.0
C1037 C 0.27497 0.15621 0.12957 0.0
C1038 C 0.26131 0.12215 0.12837 0.0
H1039 H 0.26302 0.0534 0.16703 0.0
H1040 H 0.28232 0.07958 0.14719 0.0
H1041 H 0.2595 0.08951 0.16364 0.0
H1042 H 0.18555 0.09883 0.14607 0.0
H1043 H 0.20927 0.15846 0.14804 0.0
H1044 H 0.28289 0.15687 0.60481 0.0
H1045 H 0.23991 0.17196 0.60304 0.0
H1046 H 0.24618 0.18742 0.66303 0.0
H1047 H 0.28833 0.17158 0.66484 0.0
H1048 H 0.18204 0.14659 0.64994 0.0
H1049 H 0.24257 0.25948 0.60574 0.0
H1050 H 0.25345 0.22812 0.60286 0.0
H1051 H 0.26469 0.25245 0.62401 0.0
C1052 C 0.27556 0.16426 0.61751 0.0
C1053 C 0.28935 0.16372 0.63492 0.0
C1054 C 0.25103 0.17289 0.61651 0.0
C1055 C 0.24009 0.18137 0.63288 0.0
C1056 C 0.25429 0.18122 0.65019 0.0
H1057 H 0.10938 0.24455 0.67291 0.0
H1058 H 0.14578 0.22198 0.66831 0.0
C1059 C 0.27846 0.1723 0.65121 0.0
C1060 C 0.21241 0.18826 0.63242 0.0
H1061 H 0.19113 0.24443 0.618 0.0
C1062 C 0.18392 0.16781 0.64278 0.0
C1063 C 0.21462 0.21582 0.62304 0.0
C1064 C 0.24543 0.24032 0.61319 0.0
C1065 C 0.15817 0.17469 0.64438 0.0
C1066 C 0.16103 0.20288 0.6355 0.0
C1067 C 0.18884 0.2226 0.62459 0.0
C1068 C 0.13678 0.21391 0.63843 0.0
C1069 C 0.12824 0.15194 0.6557 0.0
C1070 C 0.11991 0.21726 0.62312 0.0
C1071 C 0.09916 0.2303 0.6257 0.0
C1072 C 0.0953 0.24071 0.6436 0.0
C1073 C 0.11204 0.23704 0.65892 0.0
C1074 C 0.13254 0.22376 0.65636 0.0
H1075 H 0.12568 0.12725 0.65718 0.0
H1076 H 0.13044 0.16231 0.67 0.0
H1077 H 0.10566 0.14927 0.64913 0.0
H1078 H 0.12313 0.21017 0.60913 0.0
H1079 H 0.08686 0.2331 0.61358 0.0
H1080 H 0.87767 0.10522 0.16997 0.0
H1081 H 0.93668 0.14227 0.16725 0.0
H1082 H 0.93209 0.12029 0.10808 0.0
H1083 H 0.87281 0.08248 0.11084 0.0
H1084 H 0.98568 0.12333 0.12413 0.0
H1085 H 0.97926 0.23301 0.1455 0.0
H1086 H 0.96159 0.20134 0.16294 0.0
H1087 H 0.94314 0.1945 0.13999 0.0
C1088 C 0.88916 0.10833 0.15635 0.0
C1089 C 0.8704 0.09118 0.14057 0.0
C1090 C 0.92295 0.12967 0.15479 0.0
C1091 C 0.93886 0.13492 0.13735 0.0
C1092 C 0.92042 0.11697 0.12167 0.0
H1093 H 0.14574 0.26748 0.1061 0.0
H1094 H 0.0869 0.22674 0.10486 0.0
C1095 C 0.88653 0.09528 0.12326 0.0
C1096 C 0.97465 0.15909 0.13564 0.0
H1097 H 0.03242 0.23824 0.14601 0.0
C1098 C 0.99586 0.14859 0.12866 0.0
C1099 C 0.98809 0.1922 0.14142 0.0
C1100 C 0.96679 0.20603 0.14769 0.0
C1101 C 0.03007 0.16986 0.12803 0.0
C1102 C 0.04347 0.20258 0.13444 0.0
C1103 C 1.02223 0.21319 0.14109 0.0
C1104 C 0.07946 0.22608 0.13495 0.0
C1105 C 0.05169 0.15682 0.12113 0.0
C1106 C 0.09487 0.23949 0.1522 0.0
C1107 C 0.12828 0.26282 0.15288 0.0
C1108 C 0.14683 0.2739 0.13629 0.0
C1109 C 0.13173 0.25996 0.11904 0.0
C1110 C 0.09825 0.23637 0.11837 0.0
H1111 H 0.03841 0.12958 0.12061 0.0
H1112 H 0.0604 0.16617 0.10673 0.0
H1113 H 0.07351 0.16533 0.13031 0.0
H1114 H 0.08098 0.23194 0.16518 0.0
H1115 H 0.13954 0.27272 0.16638 0.0
H1116 H 0.83475 0.87408 0.6479 0.0
H1117 H 0.85672 0.93348 0.64604 0.0
H1118 H 0.76862 0.91709 0.61809 0.0
H1119 H 0.7463 0.85778 0.62027 0.0
H1120 H 0.87085 0.97621 0.61746 0.0
H1121 H 0.77231 0.97418 0.66115 0.0
H1122 H 0.77749 0.93888 0.6587 0.0
H1123 H 0.75708 0.94875 0.64064 0.0
C1124 C 0.82016 0.88316 0.64125 0.0
C1125 C 0.78861 0.86119 0.63444 0.0
C1126 C 0.83271 0.91713 0.64023 0.0
C1127 C 0.81406 0.92987 0.6323 0.0
C1128 C 0.78311 0.90796 0.62478 0.0
H1129 H 0.89168 0.13819 0.60437 0.0
H1130 H 0.87275 0.0792 0.60258 0.0
C1131 C 0.77041 0.87402 0.62599 0.0
C1132 C 0.82677 0.96596 0.63219 0.0
H1133 H 0.80893 0.02466 0.64654 0.0
C1134 C 0.85734 0.98682 0.62384 0.0
C1135 C 0.80938 0.97995 0.64072 0.0
C1136 C 0.77741 0.95934 0.65097 0.0
C1137 C 0.87089 0.02113 0.62374 0.0
C1138 C 0.85307 0.035 0.63185 0.0
C1139 C 0.82253 1.01411 0.64019 0.0
C1140 C 0.86598 0.0711 0.63264 0.0
C1141 C 0.90457 0.04218 0.61543 0.0
C1142 C 0.86812 0.08625 0.65004 0.0
C1143 C 0.87827 0.11967 0.65099 0.0
C1144 C 0.88597 0.13857 0.63456 0.0
C1145 C 0.88497 0.12386 0.61719 0.0
C1146 C 0.8747 0.09029 0.61621 0.0
H1147 H 0.91845 0.02883 0.61472 0.0
H1148 H 0.90212 0.0492 0.6009 0.0
H1149 H 0.91899 0.06496 0.62376 0.0
H1150 H 0.86174 0.07213 0.66292 0.0
H1151 H 0.87954 0.13066 0.66459 0.0
H1152 H 0.90002 0.73755 0.12949 0.0
H1153 H 0.86523 0.76193 0.12705 0.0
H1154 H 0.95075 0.85845 0.12527 0.0
H1155 H 0.98584 0.83437 0.12919 0.0
H1156 H 0.90882 0.85977 0.14785 0.0
H1157 H 0.84048 0.79736 0.08369 0.0
H1158 H 0.83598 0.76773 0.10096 0.0
H1159 H 0.87591 0.79525 0.09127 0.0
C1160 C 0.91162 0.76401 0.12872 0.0
C1161 C 0.94598 0.78386 0.12969 0.0
C1162 C 0.89155 0.77794 0.12693 0.0
C1163 C 0.90519 0.8121 0.12555 0.0
C1164 C 0.93949 0.83202 0.12615 0.0
H1165 H 0.77249 0.88959 0.10224 0.0
H1166 H 0.81491 0.87402 0.09917 0.0
C1167 C 0.95963 0.81811 0.12822 0.0
C1168 C 0.88362 0.827 0.12481 0.0
H1169 H 0.81577 0.82067 0.10341 0.0
C1170 C 0.88866 0.85137 0.13799 0.0
C1171 C 0.85769 0.81687 0.11169 0.0
C1172 C 0.85246 0.79315 0.09598 0.0
C1173 C 0.86784 0.86475 0.13896 0.0
C1174 C 0.84025 0.85255 0.1269 0.0
C1175 C 0.83618 0.82941 0.11309 0.0
C1176 C 0.81494 0.86276 0.12871 0.0
C1177 C 0.87617 0.89226 0.15273 0.0
C1178 C 0.80038 0.86134 0.14623 0.0
C1179 C 0.77663 0.87076 0.14801 0.0
C1180 C 0.76575 0.88031 0.13217 0.0
C1181 C 0.77995 0.88154 0.11459 0.0
C1182 C 0.80429 0.8728 0.11287 0.0
H1183 H 0.903 0.90665 0.15532 0.0
H1184 H 0.86792 0.90924 0.14763 0.0
H1185 H 0.86412 0.88175 0.1664 0.0
H1186 H 0.80712 0.85265 0.15858 0.0
H1187 H 0.76621 0.8699 0.16173 0.0
H1188 H 0.91048 0.75985 0.66568 0.0
H1189 H 0.96918 0.80026 0.66483 0.0
H1190 H 0.96386 0.8089 0.60474 0.0
H1191 H 0.90488 0.76839 0.60562 0.0
H1192 H 1.01826 0.79502 0.64409 0.0
H1193 H 1.01087 0.90522 0.62356 0.0
H1194 H 0.97615 0.86871 0.63292 0.0
H1195 H 0.98884 0.86939 0.60905 0.0
C1196 C 0.92194 0.77033 0.6523 0.0
C1197 C 0.90355 0.76039 0.63565 0.0
C1198 C 0.95539 0.79344 0.65182 0.0
C1199 C 0.97092 0.80775 0.63475 0.0
C1200 C 0.95235 0.79847 0.61811 0.0
H1201 H 0.17766 0.9565 0.61556 0.0
H1202 H 0.11905 0.9176 0.61109 0.0
C1203 C 0.91883 0.77505 0.61857 0.0
C1204 C 1.00676 0.83147 0.63451 0.0
H1205 H 0.06369 0.91219 0.62742 0.0
C1206 C 0.02818 0.82057 0.64031 0.0
C1207 C 1.01976 0.86481 0.62951 0.0
C1208 C 0.99782 0.87797 0.62352 0.0
C1209 C 0.06216 0.84204 0.64136 0.0
C1210 C 0.07512 0.8757 0.63709 0.0
C1211 C 0.05379 0.88647 0.6308 0.0
C1212 C 0.11049 0.90017 0.63982 0.0
C1213 C 0.08384 0.82828 0.64687 0.0
C1214 C 0.12506 0.90401 0.65755 0.0
C1215 C 0.15845 0.92611 0.66012 0.0
C1216 C 0.17809 0.94525 0.64508 0.0
C1217 C 0.16324 0.94223 0.62746 0.0
C1218 C 0.12976 0.91991 0.62487 0.0
H1219 H 0.07201 0.80163 0.6437 0.0
H1220 H 0.1078 0.84113 0.63948 0.0
H1221 H 0.0884 0.83141 0.66224 0.0
H1222 H 0.11056 0.88985 0.66946 0.0
H1223 H 0.16888 0.92831 0.67397 0.0
H1224 H 0.14032 0.8716 0.34976 0.0
H1225 H 0.0823 0.85534 0.35149 0.0
H1226 H 0.09224 0.87661 0.41095 0.0
H1227 H 0.15017 0.89146 0.40931 0.0
H1228 H 0.03764 0.82284 0.40529 0.0
H1229 H 0.04269 0.9121 0.35348 0.0
H1230 H 0.05717 0.88712 0.34293 0.0
H1231 H 0.07922 0.91362 0.36239 0.0
C1232 C 0.13 0.87268 0.36318 0.0
C1233 C 0.14937 0.88208 0.37945 0.0
C1234 C 0.09695 0.86379 0.36415 0.0
C1235 C 0.08289 0.86548 0.38127 0.0
C1236 C 0.10244 0.87524 0.39755 0.0
H1237 H 0.88632 0.84214 0.37607 0.0
H1238 H 0.94477 0.86446 0.38162 0.0
C1239 C 0.13546 0.88357 0.39664 0.0
C1240 C 0.04758 0.856 0.38213 0.0
H1241 H 0.98909 0.86572 0.35947 0.0
C1242 C 0.02711 0.83235 0.39531 0.0
C1243 C 0.03374 0.86925 0.36967 0.0
C1244 C 0.05448 0.8972 0.3565 0.0
C1245 C 0.99312 0.82027 0.39564 0.0
C1246 C 0.97897 0.83158 0.38212 0.0
C1247 C 0.99966 0.85646 0.36961 0.0
C1248 C 0.94284 0.81754 0.38033 0.0
C1249 C 0.97287 0.79571 0.41059 0.0
C1250 C 0.92201 0.78366 0.3778 0.0
C1251 C 0.88837 0.7707 0.375 0.0
C1252 C 0.8747 0.79135 0.37426 0.0
C1253 C 0.89565 0.8253 0.37685 0.0
C1254 C 0.92926 0.8382 0.37987 0.0
H1255 H 0.98778 0.79849 0.42328 0.0
H1256 H 0.95158 0.7983 0.41484 0.0
H1257 H 0.96365 0.77054 0.40506 0.0
H1258 H 0.93183 0.7672 0.37758 0.0
H1259 H 0.87312 0.74441 0.37332 0.0
H1260 H 0.06141 0.87334 0.87407 0.0
H1261 H 0.09672 0.93261 0.87808 0.0
H1262 H 0.18039 0.91959 0.88524 0.0
H1263 H 0.14516 0.86031 0.88211 0.0
H1264 H 0.17988 0.96334 0.91055 0.0
H1265 H 0.15892 0.99403 0.83844 0.0
H1266 H 0.12265 0.97157 0.85245 0.0
H1267 H 0.146 0.95254 0.84556 0.0
C1268 C 0.08725 0.88299 0.87674 0.0
C1269 C 0.1004 0.8619 0.87759 0.0
C1270 C 0.1075 0.917 0.87879 0.0
C1271 C 0.14137 0.93071 0.88158 0.0
C1272 C 0.15439 0.90968 0.88294 0.0
H1273 H 0.29293 0.12488 0.85321 0.0
H1274 H 0.25187 0.06695 0.85597 0.0
C1275 C 0.1342 0.87573 0.88097 0.0
C1276 C 0.16356 0.9669 0.88293 0.0
H1277 H 0.19288 0.03815 0.85814 0.0
C1278 C 0.18293 0.97981 0.89907 0.0
C1279 C 0.16723 0.98836 0.86804 0.0
C1280 C 0.14782 0.97601 0.85007 0.0
C1281 C 0.2067 1.01327 0.90052 0.0
C1282 C 0.21114 0.03488 0.88539 0.0
C1283 C 0.19043 0.02194 0.86962 0.0
C1284 C 0.23808 0.0702 0.8847 0.0
C1285 C 0.22699 0.02427 0.91818 0.0
C1286 C 0.24507 0.09197 0.89993 0.0
C1287 C 0.27025 0.12486 0.89867 0.0
C1288 C 0.28785 0.13706 0.88185 0.0
C1289 C 0.28014 0.11587 0.86645 0.0
C1290 C 0.25629 0.08274 0.86801 0.0
H1291 H 0.22882 1.00389 0.92485 0.0
H1292 H 0.25196 0.04445 0.91534 0.0
H1293 H 0.21522 0.03293 0.92846 0.0
H1294 H 0.23075 0.08386 0.91271 0.0
H1295 H 0.27499 0.14108 0.91054 0.0
H1296 H 0.16752 0.27736 0.41073 0.0
H1297 H 0.18374 0.23513 0.41231 0.0
H1298 H 0.20056 0.24324 0.35244 0.0
H1299 H 0.18395 0.28489 0.35084 0.0
H1300 H 0.15999 0.17827 0.36511 0.0
H1301 H 0.27311 0.24033 0.40887 0.0
H1302 H 0.23998 0.24798 0.41362 0.0
H1303 H 0.26298 0.26252 0.39209 0.0
C1304 C 0.17548 0.27064 0.39803 0.0
C1305 C 0.17512 0.28481 0.38071 0.0
C1306 C 0.18473 0.24651 0.39892 0.0
C1307 C 0.19381 0.23622 0.38251 0.0
C1308 C 0.19385 0.25082 0.3653 0.0
H1309 H 0.25829 0.10577 0.34273 0.0
H1310 H 0.23617 0.1426 0.34715 0.0
C1311 C 0.18447 0.27469 0.3644 0.0
C1312 C 0.20123 0.20884 0.38281 0.0
H1313 H 0.25771 0.18818 0.39748 0.0
C1314 C 0.18121 0.18035 0.37234 0.0
C1315 C 0.22882 0.21134 0.39225 0.0
C1316 C 0.25262 0.24215 0.4024 0.0
C1317 C 0.18842 0.15478 0.37078 0.0
C1318 C 0.21656 0.15785 0.37979 0.0
C1319 C 0.23595 0.18574 0.39074 0.0
C1320 C 0.22773 0.13361 0.37701 0.0
C1321 C 0.166 0.12478 0.35939 0.0
C1322 C 0.23073 0.11656 0.39237 0.0
C1323 C 0.24348 0.09551 0.38989 0.0
C1324 C 0.25399 0.09153 0.37204 0.0
C1325 C 0.2507 0.10849 0.35668 0.0
C1326 C 0.23771 0.12928 0.35915 0.0
H1327 H 0.14131 0.12205 0.35776 0.0
H1328 H 0.1766 0.12706 0.34516 0.0
H1329 H 0.16336 0.10222 0.36602 0.0
H1330 H 0.22349 0.1198 0.40631 0.0
H1331 H 0.24596 0.08305 0.40203 0.0
H1332 H 0.17067 0.25199 0.84397 0.0
H1333 H 0.1117 0.22887 0.84828 0.0
H1334 H 0.11998 0.20471 0.90569 0.0
H1335 H 0.1793 0.22855 0.90162 0.0
H1336 H 0.06417 0.16429 0.85884 0.0
H1337 H 0.07047 0.25599 0.91061 0.0
H1338 H 0.10536 0.26282 0.89663 0.0
H1339 H 0.09306 0.23571 0.91651 0.0
C1340 C 0.16007 0.24208 0.85759 0.0
C1341 C 0.17988 0.24243 0.87249 0.0
C1342 C 0.12627 0.22866 0.86 0.0
C1343 C 0.11141 0.21545 0.87738 0.0
C1344 C 0.13094 0.21525 0.89224 0.0
H1345 H 0.90529 0.144 0.90926 0.0
H1346 H 0.9633 0.15881 0.91039 0.0
C1347 C 0.16483 0.22859 0.88982 0.0
C1348 C 0.07543 0.20162 0.87969 0.0
H1349 H 1.01803 0.21321 0.90239 0.0
C1350 C 0.05408 0.17505 0.86833 0.0
C1351 C 0.06217 0.21524 0.89232 0.0
C1352 C 0.08385 0.24416 0.90465 0.0
C1353 C 1.01997 0.16215 0.86898 0.0
C1354 C 1.00675 0.1768 0.88093 0.0
C1355 C 0.02803 0.20241 0.89291 0.0
C1356 C 0.97136 0.1672 0.88042 0.0
C1357 C 0.99849 0.13258 0.85701 0.0
C1358 C 0.95654 0.16738 0.86331 0.0
C1359 C 0.92351 0.1587 0.86267 0.0
C1360 C 0.90483 0.15089 0.87921 0.0
C1361 C 0.91946 0.15073 0.89638 0.0
C1362 C 0.9525 0.15899 0.89699 0.0
H1363 H 1.01025 0.11749 0.85446 0.0
H1364 H 0.97422 0.11683 0.86366 0.0
H1365 H 0.9947 0.1409 0.84313 0.0
H1366 H 0.97061 0.17454 0.8504 0.0
H1367 H 0.91264 0.15865 0.84924 0.0
H1368 H 0.97313 0.16925 0.39971 0.0
H1369 H 0.93778 0.11017 0.40464 0.0
H1370 H 0.90703 0.09868 0.34672 0.0
H1371 H 0.9431 0.15732 0.34151 0.0
H1372 H 0.87227 0.07492 0.40157 0.0
H1373 H 0.92641 0.02466 0.35211 0.0
H1374 H 0.94737 0.06728 0.35904 0.0
H1375 H 0.91713 0.05296 0.34063 0.0
C1376 C 0.95936 0.15405 0.38792 0.0
C1377 C 0.961 0.16811 0.3702 0.0
C1378 C 0.93902 0.12028 0.39079 0.0
C1379 C 0.9201 0.0998 0.37598 0.0
C1380 C 0.92192 0.11375 0.35827 0.0
H1381 H 0.76514 0.90809 0.35123 0.0
H1382 H 0.80797 0.96571 0.35348 0.0
C1383 C 0.94222 0.14744 0.35538 0.0
C1384 C 0.89658 0.06437 0.3793 0.0
H1385 H 0.87074 0.98783 0.36158 0.0
C1386 C 0.87226 0.05577 0.39304 0.0
C1387 C 0.89667 0.03931 0.36834 0.0
C1388 C 0.92353 0.04648 0.35435 0.0
C1389 C 0.84689 0.02318 0.3954 0.0
C1390 C 0.84558 0.99826 0.3835 0.0
C1391 C 0.87106 1.00678 0.37044 0.0
C1392 C 0.81743 0.96382 0.38311 0.0
C1393 C 0.82129 1.01728 0.40996 0.0
C1394 C 0.80821 0.94321 0.39898 0.0
C1395 C 0.78264 0.91051 0.39785 0.0
C1396 C 0.76676 0.89751 0.38065 0.0
C1397 C 0.77658 0.91775 0.36472 0.0
C1398 C 0.80117 0.95064 0.366 0.0
H1399 H 0.83331 0.02748 0.42369 0.0
H1400 H 0.80848 0.03075 0.40589 0.0
H1401 H 0.803 0.99128 0.41195 0.0
H1402 H 0.82106 0.95228 0.41218 0.0
H1403 H 0.77616 0.89505 0.41021 0.0
H1404 H 0.87998 0.75672 0.85018 0.0
H1405 H 0.86123 0.79686 0.85147 0.0
H1406 H 0.87651 0.8055 0.91146 0.0
H1407 H 0.89544 0.76532 0.91014 0.0
H1408 H 0.80722 0.79108 0.87261 0.0
H1409 H 0.92407 0.90187 0.89302 0.0
H1410 H 0.92265 0.8656 0.88342 0.0
H1411 H 0.91114 0.86609 0.90743 0.0
C1412 C 0.87923 0.76717 0.86363 0.0
C1413 C 0.88817 0.75728 0.88014 0.0
C1414 C 0.86862 0.79013 0.86436 0.0
C1415 C 0.8676 0.80436 0.88153 0.0
C1416 C 0.87743 0.79517 0.89801 0.0
H1417 H 0.80737 0.95065 0.90459 0.0
H1418 H 0.82846 0.91252 0.90763 0.0
C1419 C 0.88779 0.77191 0.89731 0.0
C1420 C 0.85503 0.82779 0.8821 0.0
H1421 H 0.87748 0.90799 0.89026 0.0
C1422 C 0.82254 0.81658 0.87659 0.0
C1423 C 0.87496 0.86107 0.88734 0.0
C1424 C 0.91023 0.87461 0.89302 0.0
C1425 C 0.8094 0.83762 0.87619 0.0
C1426 C 0.82963 0.87123 0.88076 0.0
C1427 C 0.86198 0.88233 0.88666 0.0
C1428 C 0.81792 0.89531 0.87886 0.0
C1429 C 0.77374 0.82337 0.87111 0.0
C1430 C 0.80578 0.89909 0.86158 0.0
C1431 C 0.79359 0.92066 0.85986 0.0
C1432 C 0.79367 0.93944 0.8753 0.0
C1433 C 0.80699 0.93661 0.89242 0.0
C1434 C 0.81897 0.91474 0.89418 0.0
H1435 H 0.7595 0.79665 0.87414 0.0
H1436 H 0.76246 0.83571 0.87891 0.0
H1437 H 0.77168 0.82666 0.85583 0.0
H1438 H 0.80566 0.88526 0.84937 0.0
H1439 H 0.78419 0.92276 0.84636 0.0
H1440 H 0.15664 0.74363 0.14535 0.0
H1441 H 0.15781 0.6922 0.1496 0.0
H1442 H 0.16227 0.68329 0.08947 0.0
H1443 H 0.16125 0.73431 0.08522 0.0
H1444 H 0.11722 0.62614 0.13485 0.0
H1445 H 0.24492 0.68365 0.10883 0.0
H1446 H 0.22627 0.70738 0.11612 0.0
H1447 H 0.21827 0.68909 0.09309 0.0
C1448 C 0.15731 0.7303 0.13309 0.0
C1449 C 0.15866 0.74276 0.11493 0.0
C1450 C 0.15813 0.70107 0.13552 0.0
C1451 C 0.16081 0.68426 0.11985 0.0
C1452 C 0.16087 0.69615 0.10176 0.0
H1453 H 0.16108 0.5143 0.08263 0.0
H1454 H 0.16354 0.56672 0.08846 0.0
C1455 C 0.16011 0.72519 0.09935 0.0
C1456 C 0.16465 0.65489 0.12205 0.0
H1457 H 0.2146 0.62481 0.10915 0.0
C1458 C 0.13875 0.62594 0.1296 0.0
C1459 C 0.19287 0.65471 0.1153 0.0
C1460 C 0.22231 0.68546 0.10805 0.0
C1461 C 0.13956 0.59637 0.12948 0.0
C1462 C 0.16703 0.59589 0.12175 0.0
C1463 C 0.19351 0.62517 0.11502 0.0
C1464 C 0.16734 0.56475 0.11866 0.0
C1465 C 0.11036 0.56545 0.1367 0.0
C1466 C 0.16957 0.54658 0.1337 0.0
C1467 C 0.1685 0.51659 0.13036 0.0
C1468 C 0.16486 0.50424 0.11196 0.0
C1469 C 0.16367 0.52307 0.09696 0.0
C1470 C 0.16506 0.55302 0.10027 0.0
H1471 H 0.08969 0.56931 0.14061 0.0
H1472 H 0.10179 0.54584 0.12588 0.0
H1473 H 0.11761 0.55668 0.1493 0.0
H1474 H 0.17172 0.55539 0.14799 0.0
H1475 H 0.16929 0.50251 0.14218 0.0
H1476 H 0.64191 0.09369 0.6115 0.0
H1477 H 0.59083 0.09365 0.61701 0.0
H1478 H 0.64453 0.19895 0.62288 0.0
H1479 H 0.69581 0.19937 0.61619 0.0
H1480 H 0.56365 0.11189 0.64371 0.0
H1481 H 0.58443 0.18881 0.5804 0.0
H1482 H 0.61035 0.17204 0.58614 0.0
H1483 H 0.61554 0.20816 0.59801 0.0
C1484 C 0.64296 0.11694 0.61391 0.0
C1485 C 0.67301 0.14664 0.61286 0.0
C1486 C 0.61365 0.11682 0.61726 0.0
C1487 C 0.61356 0.14635 0.61982 0.0
C1488 C 0.64377 0.17588 0.62036 0.0
H1489 H 0.43274 0.15176 0.64479 0.0
H1490 H 0.48323 0.1495 0.64852 0.0
C1491 C 0.6732 0.17606 0.61679 0.0
C1492 C 0.58169 0.14601 0.6206 0.0
H1493 H 0.53668 0.17409 0.59785 0.0
C1494 C 0.55777 0.12558 0.63372 0.0
C1495 C 0.57369 0.1634 0.60738 0.0
C1496 C 0.59719 0.18408 0.59206 0.0
C1497 C 0.52614 0.12184 0.63385 0.0
C1498 C 0.51837 0.13959 0.62076 0.0
C1499 C 0.5425 0.16041 0.60789 0.0
C1500 C 0.48527 0.13648 0.61951 0.0
C1501 C 0.50107 0.098 0.64752 0.0
C1502 C 0.46921 0.12969 0.60206 0.0
C1503 C 0.44069 0.13151 0.59987 0.0
C1504 C 0.42713 0.1395 0.61516 0.0
C1505 C 0.44214 0.1447 0.63287 0.0
C1506 C 0.47108 0.14339 0.63501 0.0
H1507 H 0.50767 0.07974 0.65263 0.0
H1508 H 0.49975 0.11167 0.6599 0.0
H1509 H 0.47641 0.08469 0.64101 0.0
H1510 H 0.4795 0.12422 0.58988 0.0
H1511 H 0.42978 0.12777 0.58604 0.0
H1512 H 0.51412 0.68825 0.11576 0.0
H1513 H 0.46313 0.63725 0.1226 0.0
H1514 H 0.51274 0.58216 0.11385 0.0
H1515 H 0.56387 0.6328 0.10839 0.0
H1516 H 0.42853 0.58968 0.10031 0.0
H1517 H 0.46176 0.53491 0.15851 0.0
H1518 H 0.48804 0.57684 0.15122 0.0
H1519 H 0.4896 0.54371 0.13934 0.0
C1520 C 0.51443 0.6654 0.11589 0.0
C1521 C 0.54326 0.66486 0.11131 0.0
C1522 C 0.4851 0.6361 0.11964 0.0
C1523 C 0.48384 0.60553 0.11896 0.0
C1524 C 0.51286 0.60516 0.11498 0.0
H1525 H 0.31282 0.42507 0.08454 0.0
H1526 H 0.36568 0.47555 0.08763 0.0
C1527 C 0.54216 0.63434 0.11149 0.0
C1528 C 0.45186 0.57397 0.12053 0.0
H1529 H 0.41522 0.49686 0.13971 0.0
C1530 C 0.42561 0.56963 0.10916 0.0
C1531 C 0.44741 0.54765 0.13227 0.0
C1532 C 0.47313 0.55118 0.14617 0.0
C1533 C 0.39585 0.53969 0.10863 0.0
C1534 C 0.39237 0.51258 0.11921 0.0
C1535 C 0.41801 0.51725 0.13122 0.0
C1536 C 0.36239 0.47938 0.1178 0.0
C1537 C 0.36829 0.53767 0.09682 0.0
C1538 C 0.34387 0.46316 0.13386 0.0
C1539 C 0.3139 0.43368 0.13214 0.0
C1540 C 0.30204 0.41985 0.11432 0.0
C1541 C 0.32139 0.4352 0.09843 0.0
C1542 C 0.35144 0.46428 0.10018 0.0
H1543 H 0.37071 0.56223 0.09492 0.0
H1544 H 0.36908 0.52814 0.08267 0.0
H1545 H 0.34403 0.52108 0.10325 0.0
H1546 H 0.35186 0.47402 0.14765 0.0
H1547 H 0.29933 0.4227 0.14461 0.0
H1548 H 0.94888 0.55788 0.61184 0.0
H1549 H 0.94705 0.50569 0.61628 0.0
H1550 H 0.84181 0.45669 0.6212 0.0
H1551 H 0.84329 0.50881 0.61551 0.0
H1552 H 0.92762 0.45998 0.64227 0.0
H1553 H 0.85047 0.40555 0.57893 0.0
H1554 H 0.86791 0.44829 0.58485 0.0
H1555 H 0.83154 0.41775 0.59664 0.0
C1556 C 0.92523 0.53602 0.61374 0.0
C1557 C 0.89614 0.53758 0.61278 0.0
C1558 C 0.92427 0.50612 0.61648 0.0
C1559 C 0.89425 0.4769 0.61854 0.0
C1560 C 0.86527 0.47866 0.61904 0.0
H1561 H 0.88844 0.28975 0.64342 0.0
H1562 H 0.8901 0.34232 0.64704 0.0
C1563 C 0.86617 0.50863 0.61606 0.0
C1564 C 0.89364 0.44481 0.61917 0.0
H1565 H 0.8639 0.37145 0.59631 0.0
C1566 C 0.91363 0.44057 0.63224 0.0
C1567 C 0.87579 0.41955 0.60593 0.0
C1568 C 0.85547 0.42303 0.59068 0.0
C1569 C 0.91663 0.41221 0.63226 0.0
C1570 C 0.89846 0.38679 0.61914 0.0
C1571 C 0.87797 0.39081 0.60635 0.0
C1572 C 0.90089 0.35628 0.61774 0.0
C1573 C 0.94025 0.4105 0.64588 0.0
C1574 C 0.90626 0.34616 0.60011 0.0
C1575 C 0.90455 0.31577 0.59798 0.0
C1576 C 0.89827 0.29506 0.61349 0.0
C1577 C 0.89422 0.30558 0.6313 0.0
C1578 C 0.89524 0.33578 0.63337 0.0
H1579 H 0.95929 0.43532 0.6506 0.0
H1580 H 0.92663 0.39647 0.6585 0.0
H1581 H 0.9526 0.39804 0.63949 0.0
H1582 H 0.91078 0.36137 0.5878 0.0
H1583 H 0.90737 0.30806 0.58408 0.0
H1584 H 0.60941 0.89066 0.08485 0.0
H1585 H 0.56003 0.8946 0.08924 0.0
H1586 H 0.56991 0.89183 0.14937 0.0
H1587 H 0.61913 0.88701 0.14495 0.0
H1588 H 0.50711 0.84866 0.13735 0.0
H1589 H 0.54837 0.97038 0.10562 0.0
H1590 H 0.55461 0.94384 0.09015 0.0
H1591 H 0.57653 0.95659 0.11206 0.0
C1592 C 0.60142 0.89156 0.09902 0.0
C1593 C 0.61856 0.88926 0.11454 0.0
C1594 C 0.57322 0.89393 0.10153 0.0
C1595 C 0.56135 0.89402 0.11965 0.0
C1596 C 0.57864 0.89204 0.13525 0.0
H1597 H 0.40205 0.93686 0.13245 0.0
H1598 H 0.45302 0.93572 0.13636 0.0
C1599 C 0.60698 0.88964 0.13273 0.0
C1600 C 0.5299 0.8942 0.12202 0.0
H1601 H 0.49039 0.93527 0.10878 0.0
C1602 C 0.50355 0.8678 0.1313 0.0
C1603 C 0.52517 0.91927 0.11431 0.0
C1604 C 0.55277 0.94928 0.10514 0.0
C1605 C 0.47247 0.86528 0.13252 0.0
C1606 C 0.46733 0.88951 0.12394 0.0
C1607 C 0.49401 0.91641 0.1152 0.0
C1608 C 0.43473 0.88781 0.12377 0.0
C1609 C 0.44556 0.83679 0.14311 0.0
C1610 C 0.4069 0.86089 0.1158 0.0
C1611 C 0.37745 0.86137 0.11373 0.0
C1612 C 0.37542 0.88898 0.11932 0.0
C1613 C 0.40287 0.91527 0.12793 0.0
C1614 C 0.43209 0.91468 0.13014 0.0
H1615 H 0.45566 0.8265 0.15346 0.0
H1616 H 0.42959 0.84417 0.15064 0.0
H1617 H 0.43024 0.81702 0.13301 0.0
H1618 H 0.40834 0.84013 0.11038 0.0
H1619 H 0.35689 0.84097 0.10681 0.0
H1620 H 0.75372 0.61355 0.64638 0.0
H1621 H 0.70112 0.56286 0.65113 0.0
H1622 H 0.68466 0.55481 0.59128 0.0
H1623 H 0.73713 0.60531 0.58649 0.0
H1624 H 0.62641 0.53966 0.61796 0.0
H1625 H 0.69424 0.47264 0.63118 0.0
H1626 H 0.70639 0.51053 0.64349 0.0
H1627 H 0.71282 0.51114 0.61863 0.0
C1628 C 0.73845 0.60147 0.63431 0.0
C1629 C 0.74928 0.61355 0.61606 0.0
C1630 C 0.70853 0.57241 0.63703 0.0
C1631 C 0.6891 0.55503 0.62154 0.0
C1632 C 0.69924 0.5679 0.60342 0.0
H1633 H 0.54737 0.36891 0.58311 0.0
H1634 H 0.59516 0.42158 0.59151 0.0
C1635 C 0.72918 0.5967 0.60069 0.0
C1636 C 0.65972 0.52202 0.62377 0.0
H1637 H 0.63712 0.44099 0.62782 0.0
C1638 C 0.62858 0.5181 0.62052 0.0
C1639 C 0.66275 0.49396 0.62693 0.0
C1640 C 0.69577 0.49694 0.63021 0.0
C1641 C 0.6005 0.48671 0.61979 0.0
C1642 C 0.60372 0.4586 0.62226 0.0
C1643 C 0.63471 0.46259 0.6261 0.0
C1644 C 0.57597 0.42508 0.61851 0.0
C1645 C 0.56774 0.48357 0.6154 0.0
C1646 C 0.54972 0.40907 0.63118 0.0
C1647 C 0.52246 0.37861 0.62649 0.0
C1648 C 0.52104 0.36403 0.60899 0.0
C1649 C 0.54792 0.3796 0.5967 0.0
C1650 C 0.57517 0.40969 0.60147 0.0
H1651 H 0.56959 0.50776 0.61296 0.0
H1652 H 0.55704 0.46806 0.60272 0.0
H1653 H 0.55062 0.47127 0.62728 0.0
H1654 H 0.54995 0.42053 0.64444 0.0
H1655 H 0.5019 0.36725 0.6361 0.0
H1656 H 0.31382 0.8923 0.43042 0.0
H1657 H 0.36521 0.89181 0.42648 0.0
H1658 H 0.35242 0.88649 0.36634 0.0
H1659 H 0.30069 0.88661 0.37024 0.0
H1660 H 0.36381 0.83512 0.40571 0.0
H1661 H 0.45266 0.95806 0.37659 0.0
H1662 H 0.42025 0.95279 0.39233 0.0
H1663 H 0.41059 0.93722 0.3688 0.0
C1664 C 0.3224 0.89187 0.41634 0.0
C1665 C 0.30347 0.88995 0.40065 0.0
C1666 C 0.35169 0.89151 0.4141 0.0
C1667 C 0.36268 0.88919 0.39614 0.0
C1668 C 0.34457 0.88867 0.38033 0.0
H1669 H 0.54158 0.87592 0.3764 0.0
H1670 H 0.48996 0.87547 0.36982 0.0
C1671 C 0.31509 0.88892 0.38257 0.0
C1672 C 0.39114 0.88392 0.39434 0.0
H1673 H 0.47289 0.92263 0.38399 0.0
C1674 C 0.38758 0.8541 0.40074 0.0
C1675 C 0.42197 0.90854 0.38765 0.0
C1676 C 0.42694 0.94107 0.38092 0.0
C1677 C 0.4143 0.84866 0.40127 0.0
C1678 C 0.4456 0.87395 0.39558 0.0
C1679 C 0.44887 0.90323 0.38833 0.0
C1680 C 0.47561 0.87177 0.39904 0.0
C1681 C 0.40888 0.81605 0.40825 0.0
C1682 C 0.48451 0.86959 0.41757 0.0
C1683 C 0.51374 0.86988 0.4213 0.0
C1684 C 0.53485 0.87239 0.4066 0.0
C1685 C 0.52557 0.87359 0.38797 0.0
C1686 C 0.49627 0.87359 0.38423 0.0
H1687 H 0.38298 0.79639 0.40641 0.0
H1688 H 0.425 0.80877 0.40079 0.0
H1689 H 0.41465 0.818 0.42348 0.0
H1690 H 0.46926 0.86864 0.42924 0.0
H1691 H 0.52028 0.86895 0.43579 0.0
H1692 H 0.69729 0.50872 0.89764 0.0
H1693 H 0.6466 0.45784 0.89032 0.0
H1694 H 0.59143 0.50759 0.89815 0.0
H1695 H 0.6419 0.5587 0.90418 0.0
H1696 H 0.5988 0.42405 0.91287 0.0
H1697 H 0.54544 0.45573 0.85319 0.0
H1698 H 0.58721 0.4821 0.86066 0.0
H1699 H 0.55402 0.48409 0.87208 0.0
C1700 C 0.67451 0.50911 0.8972 0.0
C1701 C 0.67384 0.53792 0.9017 0.0
C1702 C 0.64541 0.47986 0.89316 0.0
C1703 C 0.61494 0.47868 0.89348 0.0
C1704 C 0.61444 0.50772 0.89732 0.0
H1705 H 0.43456 0.31035 0.92861 0.0
H1706 H 0.48432 0.36359 0.92467 0.0
C1707 C 0.64346 0.53696 0.90113 0.0
C1708 C 0.58357 0.44669 0.89191 0.0
H1709 H 0.50709 0.40936 0.87208 0.0
C1710 C 0.57901 0.42082 0.90371 0.0
C1711 C 0.55761 0.44191 0.87981 0.0
C1712 C 0.56148 0.46736 0.86558 0.0
C1713 C 0.54912 0.39109 0.90433 0.0
C1714 C 0.52238 0.3873 0.89332 0.0
C1715 C 0.52726 0.41249 0.88086 0.0
C1716 C 0.48928 0.35747 0.8949 0.0
C1717 C 0.54665 0.36395 0.91676 0.0
C1718 C 0.47405 0.33726 0.87922 0.0
C1719 C 0.44506 0.30701 0.88141 0.0
C1720 C 0.43083 0.29667 0.8993 0.0
C1721 C 0.44504 0.31779 0.91469 0.0
C1722 C 0.47365 0.34806 0.91246 0.0
H1723 H 0.57111 0.36656 0.91932 0.0
H1724 H 0.53631 0.36508 0.93058 0.0
H1725 H 0.53048 0.33944 0.91045 0.0
H1726 H 0.48544 0.34409 0.86548 0.0
H1727 H 0.43492 0.29101 0.86935 0.0
H1728 H 0.10001 0.63534 0.40315 0.0
H1729 H 0.1003 0.58435 0.39766 0.0
H1730 H 0.20546 0.6386 0.39184 0.0
H1731 H 0.20559 0.68975 0.39856 0.0
H1732 H 0.11889 0.55751 0.37082 0.0
H1733 H 0.19555 0.57828 0.43417 0.0
H1734 H 0.17859 0.60407 0.4285 0.0
H1735 H 0.21484 0.60965 0.41667 0.0
C1736 C 0.12331 0.63654 0.4008 0.0
C1737 C 0.15288 0.66673 0.40184 0.0
C1738 C 0.12337 0.60727 0.39745 0.0
C1739 C 0.15296 0.60737 0.39485 0.0
C1740 C 0.18235 0.6377 0.39437 0.0
H1741 H 0.16083 0.42749 0.3697 0.0
H1742 H 0.15771 0.47763 0.36581 0.0
C1743 C 0.18236 0.66706 0.39796 0.0
C1744 C 0.15284 0.57558 0.39397 0.0
H1745 H 0.18148 0.53083 0.4165 0.0
C1746 C 0.13266 0.55169 0.38077 0.0
C1747 C 0.17036 0.56766 0.40714 0.0
C1748 C 0.1908 0.59109 0.42254 0.0
C1749 C 0.12928 0.52016 0.38051 0.0
C1750 C 0.14714 0.51248 0.39355 0.0
C1751 C 0.16773 0.53659 0.4065 0.0
C1752 C 0.14424 0.47943 0.39476 0.0
C1753 C 0.10572 0.49508 0.36674 0.0
C1754 C 0.13735 0.46331 0.4122 0.0
C1755 C 0.1397 0.43507 0.41448 0.0
C1756 C 0.1483 0.42183 0.39929 0.0
C1757 C 0.15339 0.43672 0.38155 0.0
C1758 C 0.15158 0.46544 0.37932 0.0
H1759 H 0.08748 0.50161 0.36153 0.0
H1760 H 0.11959 0.49385 0.35445 0.0
H1761 H 0.09243 0.47036 0.37323 0.0
H1762 H 0.13152 0.47341 0.42433 0.0
H1763 H 0.13596 0.4242 0.42833 0.0
H1764 H 0.75277 0.14675 0.86999 0.0
H1765 H 0.6989 0.14238 0.86651 0.0
H1766 H 0.69052 0.14448 0.92684 0.0
H1767 H 0.74356 0.14746 0.93031 0.0
H1768 H 0.63327 0.10112 0.91172 0.0
H1769 H 0.68353 0.21892 0.87299 0.0
H1770 H 0.69056 0.18875 0.86178 0.0
H1771 H 0.70944 0.20575 0.88407 0.0
C1772 C 0.73904 0.14544 0.88248 0.0
C1773 C 0.75211 0.14689 0.90045 0.0
C1774 C 0.70846 0.14352 0.88048 0.0
C1775 C 0.69082 0.14381 0.8964 0.0
C1776 C 0.70357 0.14431 0.91432 0.0
H1777 H 0.54265 0.19992 0.91132 0.0
H1778 H 0.59361 0.19835 0.90684 0.0
C1779 C 0.73389 0.146 0.91631 0.0
C1780 C 0.65951 0.14442 0.89472 0.0
H1781 H 0.62633 0.18974 0.87807 0.0
C1782 C 0.63173 0.1204 0.90427 0.0
C1783 C 0.65754 0.16989 0.88525 0.0
C1784 C 0.68689 0.19749 0.87558 0.0
C1785 C 0.60235 0.12132 0.90485 0.0
C1786 C 0.60015 0.14644 0.89509 0.0
C1787 C 0.62783 0.17031 0.88539 0.0
C1788 C 0.56976 0.14899 0.89554 0.0
C1789 C 0.57442 0.09607 0.91661 0.0
C1790 C 0.53951 0.12247 0.88988 0.0
C1791 C 0.51048 0.12326 0.89261 0.0
C1792 C 0.51107 0.15089 0.90064 0.0
C1793 C 0.54151 0.17841 0.905 0.0
C1794 C 0.5706 0.17744 0.90251 0.0
H1795 H 0.58303 0.08473 0.9272 0.0
H1796 H 0.56151 0.10709 0.92407 0.0
H1797 H 0.55658 0.0762 0.90734 0.0
H1798 H 0.53821 0.10066 0.88392 0.0
H1799 H 0.48735 0.10179 0.88901 0.0
H1800 H 0.35517 0.53338 0.39568 0.0
H1801 H 0.40738 0.58173 0.3871 0.0
H1802 H 0.45899 0.53236 0.40513 0.0
H1803 H 0.40708 0.48369 0.41283 0.0
H1804 H 0.45334 0.61834 0.41108 0.0
H1805 H 0.50986 0.57524 0.35869 0.0
H1806 H 0.4671 0.55138 0.36502 0.0
H1807 H 0.49796 0.5498 0.37921 0.0
C1808 C 0.37755 0.53243 0.39722 0.0
C1809 C 0.37687 0.5047 0.40511 0.0
C1810 C 0.40746 0.5602 0.39242 0.0
C1811 C 0.43731 0.56078 0.3953 0.0
C1812 C 0.43647 0.53251 0.40235 0.0
H1813 H 0.6181 0.72712 0.4299 0.0
H1814 H 0.56739 0.67464 0.42603 0.0
C1815 C 0.40667 0.50476 0.40703 0.0
C1816 C 0.46926 0.59191 0.39323 0.0
H1817 H 0.54732 0.62427 0.37603 0.0
C1818 C 0.47366 0.61966 0.40315 0.0
C1819 C 0.4959 0.59404 0.38275 0.0
C1820 C 0.49235 0.56609 0.37066 0.0
C1821 C 0.50408 0.64879 0.40358 0.0
C1822 C 0.53128 0.65012 0.39422 0.0
C1823 C 0.52665 0.62302 0.38353 0.0
C1824 C 0.56466 0.6793 0.39592 0.0
C1825 C 0.5068 0.67789 0.41416 0.0
C1826 C 0.58108 0.69846 0.38013 0.0
C1827 C 0.61039 0.72839 0.38231 0.0
C1828 C 0.62381 0.73934 0.4003 0.0
C1829 C 0.60829 0.71919 0.41589 0.0
C1830 C 0.57924 0.68933 0.41369 0.0
H1831 H 0.48256 0.67627 0.41572 0.0
H1832 H 0.51646 0.67853 0.42847 0.0
H1833 H 0.52376 0.70127 0.40696 0.0
H1834 H 0.5704 0.69111 0.36625 0.0
H1835 H 0.62152 0.74362 0.37008 0.0
H1836 H 0.89585 0.61127 0.87025 0.0
H1837 H 0.90114 0.56224 0.86632 0.0
H1838 H 0.90298 0.55307 0.92657 0.0
H1839 H 0.89888 0.60254 0.93047 0.0
H1840 H 0.94664 0.54021 0.90996 0.0
H1841 H 0.82611 0.46963 0.87445 0.0
H1842 H 0.85471 0.50694 0.86276 0.0
H1843 H 0.83921 0.50872 0.88559 0.0
C1844 C 0.8982 0.59923 0.88261 0.0
C1845 C 0.89749 0.61103 0.90069 0.0
C1846 C 0.90067 0.57086 0.88037 0.0
C1847 C 0.90178 0.55343 0.89616 0.0
C1848 C 0.90206 0.5659 0.91416 0.0
H1849 H 0.85298 0.35056 0.91059 0.0
H1850 H 0.85241 0.40231 0.90731 0.0
C1851 C 0.89974 0.59421 0.91638 0.0
C1852 C 0.90185 0.52182 0.89427 0.0
H1853 H 0.8567 0.44271 0.87844 0.0
C1854 C 0.92705 0.51896 0.90297 0.0
C1855 C 0.87601 0.49383 0.88542 0.0
C1856 C 0.84729 0.49468 0.87666 0.0
C1857 C 0.92705 0.48904 0.90323 0.0
C1858 C 0.90154 0.46118 0.89409 0.0
C1859 C 0.8764 0.46405 0.88529 0.0
C1860 C 0.90014 0.42871 0.8941 0.0
C1861 C 0.9538 0.48736 0.91397 0.0
C1862 C 0.92642 0.42576 0.88703 0.0
C1863 C 0.92684 0.39638 0.88901 0.0
C1864 C 0.90073 0.36899 0.8978 0.0
C1865 C 0.87338 0.37118 0.9037 0.0
C1866 C 0.87312 0.4008 0.90189 0.0
H1867 H 0.96576 0.50764 0.92434 0.0
H1868 H 0.94405 0.46368 0.92155 0.0
H1869 H 0.97289 0.48956 0.90397 0.0
H1870 H 0.9471 0.44652 0.88043 0.0
H1871 H 0.94808 0.39531 0.88411 0.0
H1872 H 0.17364 0.41042 0.3321 0.0
H1873 H 0.18414 0.41375 0.29836 0.0
H1874 H 0.23914 0.36377 0.30571 0.0
H1875 H 0.22821 0.35992 0.33972 0.0
H1876 H 0.24083 0.43975 0.27602 0.0
H1877 H 0.16469 0.30428 0.26922 0.0
H1878 H 0.16594 0.32576 0.29051 0.0
H1879 H 0.1989 0.31837 0.28498 0.0
C1880 C 0.1886 0.40075 0.32661 0.0
C1881 C 0.20006 0.38483 0.33855 0.0
C1882 C 0.19453 0.40264 0.3073 0.0
C1883 C 0.21192 0.38852 0.29945 0.0
C1884 C 0.22521 0.37439 0.31145 0.0
H1885 H 0.27478 0.40128 0.18372 0.0
H1886 H 0.27122 0.40778 0.21751 0.0
C1887 C 0.21935 0.37258 0.3309 0.0
C1888 C 0.21429 0.38714 0.27864 0.0
H1889 H 0.18958 0.33401 0.24143 0.0
C1890 C 0.22975 0.41664 0.26845 0.0
C1891 C 0.1992 0.35697 0.26875 0.0
C1892 C 0.18097 0.3245 0.27886 0.0
C1893 C 0.23092 0.41677 0.24869 0.0
C1894 C 0.21643 0.3866 0.23884 0.0
C1895 C 0.20066 0.35711 0.249 0.0
C1896 C 0.2184 0.38503 0.21803 0.0
C1897 C 0.24722 0.4492 0.23848 0.0
C1898 C 0.18984 0.37009 0.20698 0.0
C1899 C 0.19178 0.36633 0.18752 0.0
C1900 C 0.22232 0.37702 0.17888 0.0
C1901 C 0.25086 0.3928 0.18994 0.0
C1902 C 0.24891 0.39668 0.20928 0.0
H1903 H 0.24946 0.46947 0.24756 0.0
H1904 H 0.27225 0.45516 0.23417 0.0
H1905 H 0.23335 0.44804 0.22562 0.0
H1906 H 0.16601 0.36076 0.21348 0.0
H1907 H 0.16937 0.35372 0.17943 0.0
H1908 H 0.8275 0.15883 0.67593 0.0
H1909 H 0.81651 0.15265 0.70988 0.0
H1910 H 0.87344 0.25767 0.7167 0.0
H1911 H 0.88391 0.26401 0.68296 0.0
H1912 H 0.86537 0.1729 0.73734 0.0
H1913 H 0.79178 0.23389 0.74806 0.0
H1914 H 0.79728 0.22046 0.72522 0.0
H1915 H 0.82896 0.25827 0.7351 0.0
C1916 C 0.83677 0.1806 0.68459 0.0
C1917 C 0.85647 0.21188 0.67676 0.0
C1918 C 0.83075 0.17705 0.70401 0.0
C1919 C 0.84394 0.20472 0.71583 0.0
C1920 C 0.86248 0.236 0.70787 0.0
H1921 H 0.88523 0.21043 0.83602 0.0
H1922 H 0.88943 0.22088 0.802 0.0
C1923 C 0.86856 0.23955 0.68856 0.0
C1924 C 0.84068 0.20099 0.7366 0.0
H1925 H 0.81423 0.2237 0.77558 0.0
C1926 C 0.85402 0.18385 0.74569 0.0
C1927 C 0.8258 0.21521 0.74749 0.0
C1928 C 0.80985 0.23274 0.73849 0.0
C1929 C 0.85332 0.18097 0.76538 0.0
C1930 C 0.83934 0.19604 0.77629 0.0
C1931 C 0.82546 0.21267 0.7672 0.0
C1932 C 0.83713 0.19298 0.79709 0.0
C1933 C 0.86703 0.16132 0.77436 0.0
C1934 C 0.80636 0.17504 0.80567 0.0
C1935 C 0.80392 0.16927 0.825 0.0
C1936 C 0.83222 0.18144 0.83622 0.0
C1937 C 0.86301 0.20092 0.82779 0.0
C1938 C 0.86544 0.20659 0.80834 0.0
H1939 H 0.87091 0.14597 0.76393 0.0
H1940 H 0.89099 0.17833 0.78092 0.0
H1941 H 0.85038 0.14512 0.78556 0.0
H1942 H 0.78421 0.16443 0.79728 0.0
H1943 H 0.7798 0.15429 0.83108 0.0
H1944 H 0.62775 0.8629 0.18073 0.0
H1945 H 0.62188 0.85189 0.21452 0.0
H1946 H 0.69905 0.82777 0.21217 0.0
H1947 H 0.70309 0.83641 0.17804 0.0
H1948 H 0.65745 0.79044 0.23624 0.0
H1949 H 0.67983 0.91499 0.25207 0.0
H1950 H 0.64325 0.89241 0.23847 0.0
H1951 H 0.68236 0.90222 0.22859 0.0
C1952 C 0.64286 0.85445 0.18741 0.0
C1953 C 0.66568 0.85022 0.17683 0.0
C1954 C 0.63993 0.84873 0.20679 0.0
C1955 C 0.66085 0.84017 0.21616 0.0
C1956 C 0.68275 0.8346 0.20539 0.0
H1957 H 0.70612 0.87421 0.33541 0.0
H1958 H 0.70207 0.87825 0.3013 0.0
C1959 C 0.68496 0.83933 0.18587 0.0
C1960 C 0.66035 0.83756 0.23713 0.0
H1961 H 0.66254 0.87764 0.27773 0.0
C1962 C 0.65878 0.80964 0.24529 0.0
C1963 C 0.66261 0.86278 0.2491 0.0
C1964 C 0.66746 0.89491 0.24161 0.0
C1965 C 0.6595 0.80622 0.2649 0.0
C1966 C 0.66019 0.83074 0.27689 0.0
C1967 C 0.66163 0.8586 0.2687 0.0
C1968 C 0.66101 0.82887 0.29787 0.0
C1969 C 0.66084 0.7769 0.27236 0.0
C1970 C 0.63868 0.80032 0.30761 0.0
C1971 C 0.64169 0.79775 0.32701 0.0
C1972 C 0.66596 0.82428 0.33724 0.0
C1973 C 0.68682 0.85365 0.32785 0.0
C1974 C 0.68457 0.85583 0.30832 0.0
H1975 H 0.67147 0.76732 0.26185 0.0
H1976 H 0.67571 0.78307 0.28534 0.0
H1977 H 0.63563 0.75689 0.27552 0.0
H1978 H 0.61939 0.77963 0.30016 0.0
H1979 H 0.62546 0.77478 0.334 0.0
H1980 H 0.88587 0.68309 0.67756 0.0
H1981 H 0.89147 0.67694 0.71146 0.0
H1982 H 0.7866 0.63027 0.71793 0.0
H1983 H 0.7808 0.63567 0.68432 0.0
H1984 H 0.87142 0.70463 0.73985 0.0
H1985 H 0.80853 0.56943 0.74754 0.0
H1986 H 0.82259 0.58969 0.72511 0.0
H1987 H 0.78475 0.58344 0.73503 0.0
C1988 C 0.86401 0.67071 0.68615 0.0
C1989 C 0.83292 0.65981 0.67827 0.0
C1990 C 0.86724 0.66746 0.70552 0.0
C1991 C 0.83942 0.65286 0.71721 0.0
C1992 C 0.80836 0.64103 0.70919 0.0
H1993 H 0.83167 0.68251 0.8381 0.0
H1994 H 0.82196 0.6784 0.80398 0.0
C1995 C 0.80513 0.64432 0.68995 0.0
C1996 C 0.84268 0.65199 0.73795 0.0
H1997 H 0.81771 0.60035 0.77578 0.0
C1998 C 0.85987 0.68183 0.7477 0.0
C1999 C 0.82766 0.62221 0.74817 0.0
C2000 C 0.8101 0.58935 0.73843 0.0
C2001 C 0.86198 0.68272 0.76742 0.0
C2002 C 0.84601 0.653 0.77768 0.0
C2003 C 0.82938 0.62313 0.76791 0.0
C2004 C 0.84824 0.6524 0.79848 0.0
C2005 C 0.88174 0.71541 0.77713 0.0
C2006 C 0.86483 0.63783 0.80674 0.0
C2007 C 0.87009 0.63988 0.82611 0.0
C2008 C 0.85877 0.65646 0.83767 0.0
C2009 C 0.84045 0.66939 0.82957 0.0
C2010 C 0.83527 0.66741 0.81007 0.0
H2011 H 0.89803 0.73501 0.76717 0.0
H2012 H 0.86483 0.72268 0.78357 0.0
H2013 H 0.89697 0.71379 0.78851 0.0
H2014 H 0.87492 0.62602 0.7981 0.0
H2015 H 0.88424 0.62959 0.83195 0.0
H2016 H 0.13369 0.81017 0.19066 0.0
H2017 H 0.14902 0.81427 0.22346 0.0
H2018 H 0.24902 0.84771 0.20722 0.0
H2019 H 0.23322 0.84285 0.17381 0.0
H2020 H 0.17899 0.78068 0.24154 0.0
H2021 H 0.25359 0.91697 0.24615 0.0
H2022 H 0.22471 0.89655 0.22734 0.0
H2023 H 0.26291 0.89682 0.2276 0.0
C2024 C 0.15873 0.81773 0.19392 0.0
C2025 C 0.18189 0.82526 0.17956 0.0
C2026 C 0.1676 0.82041 0.21276 0.0
C2027 C 0.20008 0.8311 0.21782 0.0
C2028 C 0.22377 0.8395 0.20361 0.0
H2029 H 0.27465 0.87529 0.33258 0.0
H2030 H 0.27024 0.86426 0.29888 0.0
C2031 C 0.21475 0.83675 0.18456 0.0
C2032 C 0.20831 0.83302 0.23808 0.0
H2033 H 0.24438 0.88729 0.27414 0.0
C2034 C 0.19365 0.80394 0.24867 0.0
C2035 C 0.22734 0.86338 0.24732 0.0
C2036 C 0.24299 0.89534 0.23664 0.0
C2037 C 0.19704 0.80443 0.26831 0.0
C2038 C 0.21497 0.8349 0.27767 0.0
C2039 C 0.23053 0.86392 0.26698 0.0
C2040 C 0.21724 0.83759 0.29852 0.0
C2041 C 0.18137 0.77228 0.2788 0.0
C2042 C 0.18887 0.82564 0.30971 0.0
C2043 C 0.19132 0.83163 0.32913 0.0
C2044 C 0.2222 0.85012 0.33757 0.0
C2045 C 0.25049 0.86091 0.32647 0.0
C2046 C 0.24803 0.85474 0.30717 0.0
H2047 H 0.17797 0.75175 0.26956 0.0
H2048 H 0.19631 0.77337 0.29114 0.0
H2049 H 0.15683 0.7667 0.28388 0.0
H2050 H 0.16481 0.81302 0.30332 0.0
H2051 H 0.16914 0.82354 0.33726 0.0
H2052 H 0.34855 0.15733 0.83651 0.0
H2053 H 0.35182 0.15272 0.80237 0.0
H2054 H 0.43254 0.25235 0.80024 0.0
H2055 H 0.4274 0.25758 0.83409 0.0
H2056 H 0.394 0.24641 0.77461 0.0
H2057 H 0.40792 0.13694 0.76851 0.0
H2058 H 0.37117 0.12734 0.78099 0.0
H2059 H 0.41051 0.15623 0.79083 0.0
C2060 C 0.36757 0.17782 0.82876 0.0
C2061 C 0.38816 0.20758 0.83791 0.0
C2062 C 0.36951 0.17522 0.80921 0.0
C2063 C 0.39287 0.20198 0.79856 0.0
C2064 C 0.41432 0.23127 0.80798 0.0
H2065 H 0.42674 0.17563 0.68097 0.0
H2066 H 0.43174 0.18554 0.71488 0.0
C2067 C 0.41169 0.23417 0.82738 0.0
C2068 C 0.39354 0.20055 0.77755 0.0
H2069 H 0.39241 0.15375 0.74048 0.0
C2070 C 0.39415 0.22632 0.76719 0.0
C2071 C 0.39399 0.17459 0.76767 0.0
C2072 C 0.39623 0.14745 0.7776 0.0
C2073 C 0.39522 0.22692 0.74742 0.0
C2074 C 0.39386 0.20009 0.73753 0.0
C2075 C 0.39326 0.17433 0.7479 0.0
C2076 C 0.39336 0.19813 0.71653 0.0
C2077 C 0.39881 0.2569 0.73751 0.0
C2078 C 0.37076 0.20268 0.70586 0.0
C2079 C 0.36894 0.19839 0.6863 0.0
C2080 C 0.38887 0.18835 0.67714 0.0
C2081 C 0.4116 0.18407 0.68769 0.0
C2082 C 0.41414 0.18932 0.70712 0.0
H2083 H 0.41108 0.27898 0.74665 0.0
H2084 H 0.41318 0.26199 0.72433 0.0
H2085 H 0.37414 0.25298 0.73405 0.0
H2086 H 0.35354 0.20821 0.71268 0.0
H2087 H 0.35045 0.20073 0.67853 0.0
H2088 H 0.31216 0.18695 0.95666 0.0
H2089 H 0.2893 0.19801 0.98506 0.0
H2090 H 0.30255 0.28725 0.9601 0.0
H2091 H 0.3257 0.27701 0.93215 0.0
H2092 H 0.32082 0.25825 0.00876 0.0
H2093 H 0.20439 0.23656 0.97661 0.0
H2094 H 0.22898 0.22072 0.96656 0.0
H2095 H 0.24067 0.26306 0.96338 0.0
C2096 C 0.31049 0.20906 0.95729 0.0
C2097 C 0.32108 0.23111 0.94206 0.0
C2098 C 0.29722 0.21525 0.97348 0.0
C2099 C 0.29377 0.24324 0.97458 0.0
C2100 C 0.30442 0.26522 0.95947 0.0
H2101 H 0.23251 0.34346 0.05339 0.0
H2102 H 0.24629 0.32202 0.02541 0.0
C2103 C 0.31786 0.25928 0.94346 0.0
C2104 C 0.28003 0.25049 0.99162 0.0
H2105 H 0.21812 0.2633 1.00638 0.0
C2106 C 0.29814 0.25892 0.00835 0.0
C2107 C 0.25067 0.25182 0.99097 0.0
C2108 C 0.22983 0.24231 0.97348 0.0
C2109 C 0.28828 0.26964 0.02427 0.0
C2110 C 0.25892 0.27112 0.02363 0.0
C2111 C 0.24057 0.26221 1.00693 0.0
C2112 C 0.24717 0.28216 0.0401 0.0
C2113 C 0.31022 0.28061 0.04134 0.0
C2114 C 0.24168 0.26619 0.0575 0.0
C2115 C 0.23388 0.27845 0.0734 0.0
C2116 C 0.23062 0.30651 0.07222 0.0
C2117 C 0.23419 0.32145 0.05464 0.0
C2118 C 0.24237 0.30934 0.03869 0.0
H2119 H 0.33568 0.28696 0.03773 0.0
H2120 H 0.31094 0.30227 0.04808 0.0
H2121 H 0.30068 0.26034 0.05174 0.0
H2122 H 0.24422 0.24465 0.05891 0.0
H2123 H 0.23109 0.26635 0.08678 0.0
H2124 H 0.06589 0.31276 0.43175 0.0
H2125 H 0.03341 0.29042 0.46004 0.0
H2126 H 0.11207 0.28255 0.48562 0.0
H2127 H 0.14509 0.30466 0.4569 0.0
H2128 H 1.01402 0.22816 0.4783 0.0
H2129 H 0.08937 0.33646 0.5239 0.0
H2130 H 0.09184 0.33887 0.49857 0.0
H2131 H 0.11031 0.31926 0.51115 0.0
C2132 C 0.07661 0.3064 0.44329 0.0
C2133 C 0.10857 0.31113 0.44202 0.0
C2134 C 0.05778 0.29348 0.45952 0.0
C2135 C 0.07032 0.28508 0.47503 0.0
C2136 C 0.10203 0.2893 0.47388 0.0
H2137 H 0.98425 0.23027 0.5873 0.0
H2138 H 1.01943 0.24206 0.55975 0.0
C2139 C 0.12095 0.30207 0.45748 0.0
C2140 C 0.04981 0.27215 0.49229 0.0
H2141 H 0.04191 0.293 0.53722 0.0
C2142 C 1.02022 0.24217 0.49126 0.0
C2143 C 0.05788 0.29045 0.50916 0.0
C2144 C 0.08895 0.32317 0.51089 0.0
C2145 C 0.99845 0.23004 0.50661 0.0
C2146 C 1.00598 0.24884 0.52334 0.0
C2147 C 0.03596 0.27854 0.52445 0.0
C2148 C 0.98319 0.23857 0.5398 0.0
C2149 C 0.96781 0.19699 0.50479 0.0
C2150 C 0.95077 0.23227 0.53791 0.0
C2151 C 0.9304 0.22509 0.55372 0.0
C2152 C 0.94219 0.22453 0.57175 0.0
C2153 C 0.97442 0.23045 0.57358 0.0
C2154 C 0.99461 0.23725 0.55782 0.0
H2155 H 0.97079 0.18154 0.49402 0.0
H2156 H 0.96116 0.18357 0.51837 0.0
H2157 H 0.94723 0.20051 0.50031 0.0
H2158 H 0.94156 0.2341 0.5243 0.0
H2159 H 0.90619 0.22179 0.55191 0.0
H2160 H 0.75226 0.90624 0.06128 0.0
H2161 H 0.77913 0.9416 0.03386 0.0
H2162 H 0.7369 1.00149 0.04873 0.0
H2163 H 0.71094 0.96724 0.07598 0.0
H2164 H 0.75669 0.95756 1.00322 0.0
H2165 H 0.83128 0.07096 0.04371 0.0
H2166 H 0.81012 0.03111 0.05473 0.0
H2167 H 0.7889 0.05331 0.04989 0.0
C2168 C 0.74869 0.92692 0.05863 0.0
C2169 C 0.72977 0.93409 0.07101 0.0
C2170 C 0.76417 0.94721 0.04301 0.0
C2171 C 0.76101 0.97499 0.03954 0.0
C2172 C 0.74089 0.9811 0.05144 0.0
H2173 H 0.7639 0.0724 0.93952 0.0
H2174 H 0.75454 0.03843 0.96702 0.0
C2175 C 0.72574 0.96116 0.067 0.0
C2176 C 0.77749 0.99722 0.02322 0.0
H2177 H 0.8209 0.07847 0.01119 0.0
C2178 C 0.77122 0.98394 1.00501 0.0
C2179 C 0.79726 0.03171 0.02541 0.0
C2180 C 0.80759 0.04754 0.04452 0.0
C2181 C 0.78212 1.00423 0.98902 0.0
C2182 C 0.79904 0.03884 0.99122 0.0
C2183 C 0.80738 0.05204 0.00941 0.0
C2184 C 0.80559 0.06136 0.97497 0.0
C2185 C 0.77494 0.98828 0.96987 0.0
C2186 C 0.83732 0.0872 0.97076 0.0
C2187 C 0.84281 0.10733 0.95495 0.0
C2188 C 0.81661 0.10187 0.94314 0.0
C2189 C 0.78482 0.07699 0.94801 0.0
C2190 C 0.77938 0.05725 0.96373 0.0
H2191 H 0.77311 0.96382 0.97048 0.0
H2192 H 0.75103 0.98457 0.96483 0.0
H2193 H 0.79414 1.00371 0.9595 0.0
H2194 H 0.85792 0.09127 0.97941 0.0
H2195 H 0.86757 0.12633 0.95164 0.0
H2196 H 0.7671 0.71634 0.57984 0.0
H2197 H 0.75846 0.73907 0.55127 0.0
H2198 H 0.85248 0.75903 0.53023 0.0
H2199 H 0.86193 0.73668 0.55932 0.0
H2200 H 0.80369 0.80679 0.53581 0.0
H2201 H 0.78039 0.70298 0.48834 0.0
H2202 H 0.77522 0.69772 0.51351 0.0
H2203 H 0.81557 0.71971 0.50364 0.0
C2204 C 0.78615 0.72545 0.56925 0.0
C2205 C 0.81521 0.72428 0.57194 0.0
C2206 C 0.78107 0.73855 0.55287 0.0
C2207 C 0.8047 0.75063 0.5386 0.0
C2208 C 0.83379 0.74958 0.54105 0.0
H2209 H 0.77531 0.80714 0.42639 0.0
H2210 H 0.79932 0.79607 0.45389 0.0
C2211 C 0.83909 0.73664 0.55764 0.0
C2212 C 0.79824 0.76418 0.52131 0.0
H2213 H 0.77269 0.74475 0.47583 0.0
C2214 C 0.79729 0.79349 0.5226 0.0
C2215 C 0.7899 0.74678 0.50413 0.0
C2216 C 0.79011 0.71495 0.50215 0.0
C2217 C 0.78787 0.8057 0.50722 0.0
C2218 C 0.77814 0.78756 0.49022 0.0
C2219 C 0.77998 0.75867 0.48883 0.0
C2220 C 0.76529 0.79752 0.47382 0.0
C2221 C 0.78877 0.83805 0.50935 0.0
C2222 C 0.73826 0.80242 0.47574 0.0
C2223 C 0.72478 0.80925 0.45998 0.0
C2224 C 0.73771 0.81077 0.44198 0.0
C2225 C 0.76488 0.8062 0.44011 0.0
C2226 C 0.7786 0.79981 0.45583 0.0
H2227 H 0.80664 0.85359 0.52029 0.0
H2228 H 0.79534 0.8519 0.49592 0.0
H2229 H 0.76423 0.83342 0.51381 0.0
H2230 H 0.72678 0.79976 0.48931 0.0
H2231 H 0.70324 0.81153 0.46179 0.0
H2232 H 0.97706 0.70628 0.93753 0.0
H2233 H 1.01098 0.73205 0.96485 0.0
H2234 H 0.94948 0.7721 0.98044 0.0
H2235 H 0.9145 0.74548 0.95289 0.0
H2236 H 0.04733 0.79664 0.97361 0.0
H2237 H 0.95426 0.73007 0.02927 0.0
H2238 H 0.94733 0.71726 1.005 0.0
H2239 H 0.94428 0.75215 0.01242 0.0
C2240 C 0.97039 0.72035 0.94673 0.0
C2241 C 0.94288 0.72371 0.94293 0.0
C2242 C 0.99004 0.73526 0.9624 0.0
C2243 C 0.98294 0.75406 0.97479 0.0
C2244 C 0.9553 0.75737 0.97123 0.0
H2245 H 0.13347 0.86027 0.06372 0.0
H2246 H 0.09863 0.85187 0.03606 0.0
C2247 C 0.93531 0.74215 0.95548 0.0
C2248 C 1.00493 0.7698 0.99126 0.0
H2249 H 1.00799 0.76625 0.03914 0.0
C2250 C 0.03869 0.79037 0.98797 0.0
C2251 C 0.9937 0.76156 0.01 0.0
C2252 C 0.95799 0.73888 0.0145 0.0
C2253 C 0.06159 0.80152 1.00276 0.0
C2254 C 0.05044 0.79242 0.02145 0.0
C2255 C 1.01655 0.77327 0.02481 0.0
C2256 C 0.07333 0.79877 0.03744 0.0
C2257 C 0.09763 0.82132 0.99816 0.0
C2258 C 0.07104 0.77193 0.04731 0.0
C2259 C 0.09058 0.77667 0.063 0.0
C2260 C 0.11313 0.80844 0.06935 0.0
C2261 C 0.11652 0.83551 0.05909 0.0
C2262 C 0.09658 0.83071 0.04331 0.0
H2263 H 0.1024 0.82122 0.98287 0.0
H2264 H 0.10716 0.84713 1.00261 0.0
H2265 H 0.11154 0.81167 1.00585 0.0
H2266 H 0.05365 0.74709 0.043 0.0
H2267 H 0.08747 0.7552 0.07042 0.0
H2268 H 0.1917 0.90171 0.45584 0.0
H2269 H 0.20153 0.934 0.48481 0.0
H2270 H 0.29415 1.00885 0.4627 0.0
H2271 H 0.28517 0.97696 0.43423 0.0
H2272 H 0.26183 0.96014 0.50993 0.0
H2273 H 0.24275 0.05728 0.47853 0.0
H2274 H 0.22605 1.01685 0.46831 0.0
H2275 H 0.26862 0.04663 0.46524 0.0
C2276 C 0.2143 0.92483 0.45724 0.0
C2277 C 0.2377 0.9364 0.44267 0.0
C2278 C 0.21979 0.94336 0.47375 0.0
C2279 C 0.24843 0.97401 0.4758 0.0
C2280 C 0.2717 0.9855 0.46133 0.0
H2281 H 0.35068 0.13348 0.55375 0.0
H2282 H 0.32758 0.0976 0.52639 0.0
C2283 C 0.26646 0.96701 0.44502 0.0
C2284 C 0.25496 0.99413 0.49311 0.0
H2285 H 0.26863 0.06885 0.50847 0.0
C2286 C 0.26281 0.98367 0.50976 0.0
C2287 C 0.25665 0.02501 0.49274 0.0
C2288 C 0.24783 0.03713 0.4753 0.0
C2289 C 0.27358 1.00382 0.52584 0.0
C2290 C 0.2757 0.03499 0.52542 0.0
C2291 C 0.26705 0.04505 0.50885 0.0
C2292 C 0.28793 0.05793 0.54179 0.0
C2293 C 0.28412 0.99213 0.54279 0.0
C2294 C 0.27281 0.04824 0.55947 0.0
C2295 C 0.28603 0.06885 0.5751 0.0
C2296 C 0.31422 0.09993 0.57334 0.0
C2297 C 0.32848 0.11025 0.5555 0.0
C2298 C 0.31544 0.08948 0.53987 0.0
H2299 H 0.28952 0.97236 0.53909 0.0
H2300 H 0.30624 1.01259 0.54941 0.0
H2301 H 0.26404 0.98209 0.55332 0.0
H2302 H 0.25108 0.02446 0.56129 0.0
H2303 H 0.27442 0.06026 0.58868 0.0
loop_
_geom_bond_atom_site_label_1
_geom_bond_atom_site_label_2
_geom_bond_distance
_geom_bond_site_symmetry_2
_ccdc_geom_bond_type
Eu0 N31 2.657 . S
Eu0 N38 2.609 . S
Eu0 O44 2.558 . S
Eu0 O45 2.612 . S
Eu0 O47 2.339 . S
Eu0 O48 2.563 . S
Eu0 O49 2.419 . S
Eu0 O51 2.380 . S
Eu0 O52 2.432 . S
Eu0 C64 2.848 . S
C1 C4 1.429 . S
C1 C5 1.411 . S
C1 N8 1.377 . S
C2 C4 1.420 . S
C2 C6 1.423 . S
C2 C14 1.392 . S
C3 C5 1.420 . S
C3 C6 1.351 . S
C3 H26 0.931 . S
C4 C1 1.429 . S
C4 C2 1.420 . S
C4 N12 1.362 . S
C5 C1 1.411 . S
C5 C3 1.420 . S
C5 C10 1.395 . S
C6 C2 1.423 . S
C6 C3 1.351 . S
C6 H18 0.930 . S
C7 C9 1.400 . S
C7 C10 1.386 . S
C7 H19 0.930 . S
N8 C1 1.377 . S
N8 C9 1.321 . S
N8 Eu11 2.609 . S
C9 C7 1.400 . S
C9 N8 1.321 . S
C9 H16 0.930 . S
C10 C5 1.395 . S
C10 C7 1.386 . S
C10 H29 0.930 . S
Eu11 N8 2.609 . S
Eu11 N12 2.657 . S
Eu11 O45 2.380 . S
Eu11 O46 2.432 . S
Eu11 O50 2.558 . S
Eu11 O51 2.612 . S
Eu11 O53 2.339 . S
Eu11 O54 2.563 . S
Eu11 O55 2.419 . S
Eu11 C75 2.848 . S
N12 C4 1.362 . S
N12 Eu11 2.657 . S
N12 C13 1.334 . S
C13 N12 1.334 . S
C13 C15 1.413 . S
C13 H20 0.929 . S
C14 C2 1.392 . S
C14 C15 1.367 . S
C14 H22 0.930 . S
C15 C13 1.413 . S
C15 C14 1.367 . S
C15 H17 0.930 . S
H16 C9 0.930 . S
H17 C15 0.930 . S
H18 C6 0.930 . S
H19 C7 0.930 . S
H20 C13 0.929 . S
H21 C35 0.930 . S
H22 C14 0.930 . S
H23 C41 0.930 . S
H24 C32 0.929 . S
H25 C39 0.930 . S
H26 C3 0.931 . S
H27 C33 0.930 . S
H28 C66 0.930 . S
H29 C10 0.930 . S
H30 C65 0.931 . S
N31 Eu0 2.657 . S
N31 C32 1.334 . S
N31 C36 1.362 . S
C32 H24 0.929 . S
C32 N31 1.334 . S
C32 C35 1.413 . S
C33 H27 0.930 . S
C33 C34 1.392 . S
C33 C35 1.367 . S
C34 C33 1.392 . S
C34 C36 1.420 . S
C34 C66 1.423 . S
C35 H21 0.930 . S
C35 C32 1.413 . S
C35 C33 1.367 . S
C36 N31 1.362 . S
C36 C34 1.420 . S
C36 C40 1.429 . S
H37 C42 0.930 . S
N38 Eu0 2.609 . S
N38 C40 1.377 . S
N38 C41 1.321 . S
C39 H25 0.930 . S
C39 C41 1.400 . S
C39 C42 1.386 . S
C40 C36 1.429 . S
C40 N38 1.377 . S
C40 C43 1.411 . S
C41 H23 0.930 . S
C41 N38 1.321 . S
C41 C39 1.400 . S
C42 H37 0.930 . S
C42 C39 1.386 . S
C42 C43 1.395 . S
C43 C40 1.411 . S
C43 C42 1.395 . S
C43 C65 1.420 . S
O44 Eu0 2.558 . S
O44 C64 1.257 . S
O45 Eu0 2.612 . S
O45 Eu11 2.380 . S
O45 C56 1.276 . S
O46 Eu11 2.432 . S
O46 C63 1.264 . S
O47 Eu0 2.339 . S
O47 C63 1.254 . S
O48 Eu0 2.563 . S
O48 C56 1.235 . S
O49 Eu0 2.419 . S
O49 C64 1.249 . S
O50 Eu11 2.558 . S
O50 C75 1.257 . S
O51 Eu0 2.380 . S
O51 Eu11 2.612 . S
O51 C67 1.276 . S
O52 Eu0 2.432 . S
O52 C74 1.264 . S
O53 Eu11 2.339 . S
O53 C74 1.254 . S
O54 Eu11 2.563 . S
O54 C67 1.235 . S
O55 Eu11 2.419 . S
O55 C75 1.249 . S
C56 O45 1.276 . S
C56 O48 1.235 . S
C57 C59 1.393 . S
C57 C61 1.395 . S
C57 C64 1.492 . S
C58 C59 1.392 . S
C58 C60 1.386 . S
C59 C57 1.393 . S
C59 C58 1.392 . S
C59 H76 0.930 . S
C60 C58 1.386 . S
C60 C62 1.395 . S
C60 H77 0.930 . S
C61 C57 1.395 . S
C61 C62 1.379 . S
C61 H78 0.930 . S
C62 C60 1.395 . S
C62 C61 1.379 . S
C62 H79 0.930 . S
C63 O46 1.264 . S
C63 O47 1.254 . S
C64 Eu0 2.848 . S
C64 O44 1.257 . S
C64 O49 1.249 . S
C64 C57 1.492 . S
C65 H30 0.931 . S
C65 C43 1.420 . S
C65 C66 1.351 . S
C66 H28 0.930 . S
C66 C34 1.423 . S
C66 C65 1.351 . S
C67 O51 1.276 . S
C67 O54 1.235 . S
C68 C69 1.393 . S
C68 C72 1.395 . S
C68 C75 1.492 . S
C69 C68 1.393 . S
C69 C70 1.392 . S
C69 H80 0.930 . S
C70 C69 1.392 . S
C70 C71 1.386 . S
C71 C70 1.386 . S
C71 C73 1.395 . S
C71 H81 0.930 . S
C72 C68 1.395 . S
C72 C73 1.379 . S
C72 H82 0.930 . S
C73 C71 1.395 . S
C73 C72 1.379 . S
C73 H83 0.930 . S
C74 O52 1.264 . S
C74 O53 1.254 . S
C75 Eu11 2.848 . S
C75 O50 1.257 . S
C75 O55 1.249 . S
C75 C68 1.492 . S
H76 C59 0.930 . S
H77 C60 0.930 . S
H78 C61 0.930 . S
H79 C62 0.930 . S
H80 C69 0.930 . S
H81 C71 0.930 . S
H82 C72 0.930 . S
H83 C73 0.930 . S
Eu84 N115 2.657 . S
Eu84 N122 2.609 . S
Eu84 O128 2.558 . S
Eu84 O129 2.612 . S
Eu84 O131 2.339 . S
Eu84 O132 2.563 . S
Eu84 O133 2.419 . S
Eu84 O135 2.380 . S
Eu84 O136 2.432 . S
Eu84 C148 2.848 . S
C85 C88 1.429 . S
C85 C89 1.411 . S
C85 N92 1.377 . S
C86 C88 1.420 . S
C86 C90 1.423 . S
C86 C98 1.392 . S
C87 C89 1.420 . S
C87 C90 1.351 . S
C87 H110 0.931 . S
C88 C85 1.429 . S
C88 C86 1.420 . S
C88 N96 1.362 . S
C89 C85 1.411 . S
C89 C87 1.420 . S
C89 C94 1.395 . S
C90 C86 1.423 . S
C90 C87 1.351 . S
C90 H102 0.930 . S
C91 C93 1.400 . S
C91 C94 1.386 . S
C91 H103 0.930 . S
N92 C85 1.377 . S
N92 C93 1.321 . S
N92 Eu95 2.609 . S
C93 C91 1.400 . S
C93 N92 1.321 . S
C93 H100 0.930 . S
C94 C89 1.395 . S
C94 C91 1.386 . S
C94 H113 0.930 . S
Eu95 N92 2.609 . S
Eu95 N96 2.657 . S
Eu95 O129 2.380 . S
Eu95 O130 2.432 . S
Eu95 O134 2.558 . S
Eu95 O135 2.612 . S
Eu95 O137 2.339 . S
Eu95 O138 2.563 . S
Eu95 O139 2.419 . S
Eu95 C159 2.848 . S
N96 C88 1.362 . S
N96 Eu95 2.657 . S
N96 C97 1.334 . S
C97 N96 1.334 . S
C97 C99 1.413 . S
C97 H104 0.929 . S
C98 C86 1.392 . S
C98 C99 1.367 . S
C98 H106 0.930 . S
C99 C97 1.413 . S
C99 C98 1.367 . S
C99 H101 0.930 . S
H100 C93 0.930 . S
H101 C99 0.930 . S
H102 C90 0.930 . S
H103 C91 0.930 . S
H104 C97 0.929 . S
H105 C119 0.930 . S
H106 C98 0.930 . S
H107 C125 0.930 . S
H108 C116 0.929 . S
H109 C123 0.930 . S
H110 C87 0.931 . S
H111 C117 0.930 . S
H112 C150 0.930 . S
H113 C94 0.930 . S
H114 C149 0.931 . S
N115 Eu84 2.657 . S
N115 C116 1.334 . S
N115 C120 1.362 . S
C116 H108 0.929 . S
C116 N115 1.334 . S
C116 C119 1.413 . S
C117 H111 0.930 . S
C117 C118 1.392 . S
C117 C119 1.367 . S
C118 C117 1.392 . S
C118 C120 1.420 . S
C118 C150 1.423 . S
C119 H105 0.930 . S
C119 C116 1.413 . S
C119 C117 1.367 . S
C120 N115 1.362 . S
C120 C118 1.420 . S
C120 C124 1.429 . S
H121 C126 0.930 . S
N122 Eu84 2.609 . S
N122 C124 1.377 . S
N122 C125 1.321 . S
C123 H109 0.930 . S
C123 C125 1.400 . S
C123 C126 1.386 . S
C124 C120 1.429 . S
C124 N122 1.377 . S
C124 C127 1.411 . S
C125 H107 0.930 . S
C125 N122 1.321 . S
C125 C123 1.400 . S
C126 H121 0.930 . S
C126 C123 1.386 . S
C126 C127 1.395 . S
C127 C124 1.411 . S
C127 C126 1.395 . S
C127 C149 1.420 . S
O128 Eu84 2.558 . S
O128 C148 1.257 . S
O129 Eu84 2.612 . S
O129 Eu95 2.380 . S
O129 C140 1.276 . S
O130 Eu95 2.432 . S
O130 C147 1.264 . S
O131 Eu84 2.339 . S
O131 C147 1.254 . S
O132 Eu84 2.563 . S
O132 C140 1.235 . S
O133 Eu84 2.419 . S
O133 C148 1.249 . S
O134 Eu95 2.558 . S
O134 C159 1.257 . S
O135 Eu84 2.380 . S
O135 Eu95 2.612 . S
O135 C151 1.276 . S
O136 Eu84 2.432 . S
O136 C158 1.264 . S
O137 Eu95 2.339 . S
O137 C158 1.254 . S
O138 Eu95 2.563 . S
O138 C151 1.235 . S
O139 Eu95 2.419 . S
O139 C159 1.249 . S
C140 O129 1.276 . S
C140 O132 1.235 . S
C141 C143 1.393 . S
C141 C145 1.395 . S
C141 C148 1.492 . S
C142 C143 1.392 . S
C142 C144 1.386 . S
C143 C141 1.393 . S
C143 C142 1.392 . S
C143 H160 0.930 . S
C144 C142 1.386 . S
C144 C146 1.395 . S
C144 H161 0.930 . S
C145 C141 1.395 . S
C145 C146 1.379 . S
C145 H162 0.930 . S
C146 C144 1.395 . S
C146 C145 1.379 . S
C146 H163 0.930 . S
C147 O130 1.264 . S
C147 O131 1.254 . S
C148 Eu84 2.848 . S
C148 O128 1.257 . S
C148 O133 1.249 . S
C148 C141 1.492 . S
C149 H114 0.931 . S
C149 C127 1.420 . S
C149 C150 1.351 . S
C150 H112 0.930 . S
C150 C118 1.423 . S
C150 C149 1.351 . S
C151 O135 1.276 . S
C151 O138 1.235 . S
C152 C153 1.393 . S
C152 C156 1.395 . S
C152 C159 1.492 . S
C153 C152 1.393 . S
C153 C154 1.392 1_655 S
C153 H164 0.930 . S
C154 C153 1.392 1_455 S
C154 C155 1.386 . S
C155 C154 1.386 . S
C155 C157 1.395 . S
C155 H165 0.930 . S
C156 C152 1.395 . S
C156 C157 1.379 1_655 S
C156 H166 0.930 . S
C157 C155 1.395 . S
C157 C156 1.379 1_455 S
C157 H167 0.930 . S
C158 O136 1.264 . S
C158 O137 1.254 . S
C159 Eu95 2.848 . S
C159 O134 1.257 . S
C159 O139 1.249 . S
C159 C152 1.492 . S
H160 C143 0.930 . S
H161 C144 0.930 . S
H162 C145 0.930 . S
H163 C146 0.930 . S
H164 C153 0.930 . S
H165 C155 0.930 . S
H166 C156 0.930 . S
H167 C157 0.930 . S
Eu168 N199 2.657 . S
Eu168 N206 2.609 . S
Eu168 O212 2.558 . S
Eu168 O213 2.612 . S
Eu168 O215 2.339 . S
Eu168 O216 2.563 . S
Eu168 O217 2.419 . S
Eu168 O219 2.380 . S
Eu168 O220 2.432 . S
Eu168 C232 2.848 . S
C169 C172 1.429 . S
C169 C173 1.411 . S
C169 N176 1.377 . S
C170 C172 1.420 . S
C170 C174 1.423 . S
C170 C182 1.392 . S
C171 C173 1.420 . S
C171 C174 1.351 . S
C171 H194 0.931 . S
C172 C169 1.429 . S
C172 C170 1.420 . S
C172 N180 1.362 . S
C173 C169 1.411 . S
C173 C171 1.420 . S
C173 C178 1.395 . S
C174 C170 1.423 . S
C174 C171 1.351 . S
C174 H186 0.930 . S
C175 C177 1.400 . S
C175 C178 1.386 . S
C175 H187 0.930 . S
N176 C169 1.377 . S
N176 C177 1.321 . S
N176 Eu179 2.609 . S
C177 C175 1.400 . S
C177 N176 1.321 . S
C177 H184 0.930 . S
C178 C173 1.395 . S
C178 C175 1.386 . S
C178 H197 0.930 . S
Eu179 N176 2.609 . S
Eu179 N180 2.657 . S
Eu179 O213 2.380 . S
Eu179 O214 2.432 . S
Eu179 O218 2.558 . S
Eu179 O219 2.612 . S
Eu179 O221 2.339 . S
Eu179 O222 2.563 . S
Eu179 O223 2.419 . S
Eu179 C243 2.848 . S
N180 C172 1.362 . S
N180 Eu179 2.657 . S
N180 C181 1.334 . S
C181 N180 1.334 . S
C181 C183 1.413 . S
C181 H188 0.929 . S
C182 C170 1.392 . S
C182 C183 1.367 . S
C182 H190 0.930 . S
C183 C181 1.413 . S
C183 C182 1.367 . S
C183 H185 0.930 . S
H184 C177 0.930 . S
H185 C183 0.930 . S
H186 C174 0.930 . S
H187 C175 0.930 . S
H188 C181 0.929 . S
H189 C203 0.930 . S
H190 C182 0.930 . S
H191 C209 0.930 . S
H192 C200 0.929 . S
H193 C207 0.930 . S
H194 C171 0.931 . S
H195 C201 0.930 . S
H196 C234 0.930 . S
H197 C178 0.930 . S
H198 C233 0.931 . S
N199 Eu168 2.657 . S
N199 C200 1.334 . S
N199 C204 1.362 . S
C200 H192 0.929 . S
C200 N199 1.334 . S
C200 C203 1.413 . S
C201 H195 0.930 . S
C201 C202 1.392 . S
C201 C203 1.367 . S
C202 C201 1.392 . S
C202 C204 1.420 . S
C202 C234 1.423 . S
C203 H189 0.930 . S
C203 C200 1.413 . S
C203 C201 1.367 . S
C204 N199 1.362 . S
C204 C202 1.420 . S
C204 C208 1.429 . S
H205 C210 0.930 . S
N206 Eu168 2.609 . S
N206 C208 1.377 . S
N206 C209 1.321 . S
C207 H193 0.930 . S
C207 C209 1.400 . S
C207 C210 1.386 . S
C208 C204 1.429 . S
C208 N206 1.377 . S
C208 C211 1.411 . S
C209 H191 0.930 . S
C209 N206 1.321 . S
C209 C207 1.400 . S
C210 H205 0.930 . S
C210 C207 1.386 . S
C210 C211 1.395 . S
C211 C208 1.411 . S
C211 C210 1.395 . S
C211 C233 1.420 . S
O212 Eu168 2.558 . S
O212 C232 1.257 . S
O213 Eu168 2.612 . S
O213 Eu179 2.380 . S
O213 C224 1.276 . S
O214 Eu179 2.432 . S
O214 C231 1.264 . S
O215 Eu168 2.339 . S
O215 C231 1.254 . S
O216 Eu168 2.563 . S
O216 C224 1.235 . S
O217 Eu168 2.419 . S
O217 C232 1.249 . S
O218 Eu179 2.558 . S
O218 C243 1.257 . S
O219 Eu168 2.380 . S
O219 Eu179 2.612 . S
O219 C235 1.276 . S
O220 Eu168 2.432 . S
O220 C242 1.264 . S
O221 Eu179 2.339 . S
O221 C242 1.254 . S
O222 Eu179 2.563 . S
O222 C235 1.235 . S
O223 Eu179 2.419 . S
O223 C243 1.249 . S
C224 O213 1.276 . S
C224 O216 1.235 . S
C225 C227 1.393 . S
C225 C229 1.395 . S
C225 C232 1.492 . S
C226 C227 1.392 . S
C226 C228 1.386 . S
C227 C225 1.393 . S
C227 C226 1.392 . S
C227 H244 0.930 . S
C228 C226 1.386 . S
C228 C230 1.395 . S
C228 H245 0.930 . S
C229 C225 1.395 . S
C229 C230 1.379 . S
C229 H246 0.930 . S
C230 C228 1.395 . S
C230 C229 1.379 . S
C230 H247 0.930 . S
C231 O214 1.264 . S
C231 O215 1.254 . S
C232 Eu168 2.848 . S
C232 O212 1.257 . S
C232 O217 1.249 . S
C232 C225 1.492 . S
C233 H198 0.931 . S
C233 C211 1.420 . S
C233 C234 1.351 . S
C234 H196 0.930 . S
C234 C202 1.423 . S
C234 C233 1.351 . S
C235 O219 1.276 . S
C235 O222 1.235 . S
C236 C237 1.393 . S
C236 C240 1.395 . S
C236 C243 1.492 . S
C237 C236 1.393 . S
C237 C238 1.392 1_565 S
C237 H248 0.930 . S
C238 C237 1.392 1_545 S
C238 C239 1.386 . S
C239 C238 1.386 . S
C239 C241 1.395 . S
C239 H249 0.930 . S
C240 C236 1.395 . S
C240 C241 1.379 1_565 S
C240 H250 0.930 . S
C241 C239 1.395 . S
C241 C240 1.379 1_545 S
C241 H251 0.930 . S
C242 O220 1.264 . S
C242 O221 1.254 . S
C243 Eu179 2.848 . S
C243 O218 1.257 . S
C243 O223 1.249 . S
C243 C236 1.492 . S
H244 C227 0.930 . S
H245 C228 0.930 . S
H246 C229 0.930 . S
H247 C230 0.930 . S
H248 C237 0.930 . S
H249 C239 0.930 . S
H250 C240 0.930 . S
H251 C241 0.930 . S
Eu252 N283 2.657 . S
Eu252 N290 2.609 . S
Eu252 O296 2.558 . S
Eu252 O297 2.612 . S
Eu252 O299 2.339 . S
Eu252 O300 2.563 . S
Eu252 O301 2.419 . S
Eu252 O303 2.380 . S
Eu252 O304 2.432 . S
Eu252 C316 2.848 . S
C253 C256 1.429 . S
C253 C257 1.411 . S
C253 N260 1.377 . S
C254 C256 1.420 . S
C254 C258 1.423 . S
C254 C266 1.392 . S
C255 C257 1.420 . S
C255 C258 1.351 . S
C255 H278 0.931 . S
C256 C253 1.429 . S
C256 C254 1.420 . S
C256 N264 1.362 . S
C257 C253 1.411 . S
C257 C255 1.420 . S
C257 C262 1.395 . S
C258 C254 1.423 . S
C258 C255 1.351 . S
C258 H270 0.930 . S
C259 C261 1.400 . S
C259 C262 1.386 . S
C259 H271 0.930 . S
N260 C253 1.377 . S
N260 C261 1.321 . S
N260 Eu263 2.609 . S
C261 C259 1.400 . S
C261 N260 1.321 . S
C261 H268 0.930 . S
C262 C257 1.395 . S
C262 C259 1.386 . S
C262 H281 0.930 . S
Eu263 N260 2.609 . S
Eu263 N264 2.657 . S
Eu263 O297 2.380 . S
Eu263 O298 2.432 . S
Eu263 O302 2.558 . S
Eu263 O303 2.612 . S
Eu263 O305 2.339 . S
Eu263 O306 2.563 . S
Eu263 O307 2.419 . S
Eu263 C327 2.848 . S
N264 C256 1.362 . S
N264 Eu263 2.657 . S
N264 C265 1.334 . S
C265 N264 1.334 . S
C265 C267 1.413 . S
C265 H272 0.929 . S
C266 C254 1.392 . S
C266 C267 1.367 . S
C266 H274 0.930 . S
C267 C265 1.413 . S
C267 C266 1.367 . S
C267 H269 0.930 . S
H268 C261 0.930 . S
H269 C267 0.930 . S
H270 C258 0.930 . S
H271 C259 0.930 . S
H272 C265 0.929 . S
H273 C287 0.930 . S
H274 C266 0.930 . S
H275 C293 0.930 . S
H276 C284 0.929 . S
H277 C291 0.930 . S
H278 C255 0.931 . S
H279 C285 0.930 . S
H280 C318 0.930 . S
H281 C262 0.930 . S
H282 C317 0.931 . S
N283 Eu252 2.657 . S
N283 C284 1.334 . S
N283 C288 1.362 . S
C284 H276 0.929 . S
C284 N283 1.334 . S
C284 C287 1.413 . S
C285 H279 0.930 . S
C285 C286 1.392 . S
C285 C287 1.367 . S
C286 C285 1.392 . S
C286 C288 1.420 . S
C286 C318 1.423 . S
C287 H273 0.930 . S
C287 C284 1.413 . S
C287 C285 1.367 . S
C288 N283 1.362 . S
C288 C286 1.420 . S
C288 C292 1.429 . S
H289 C294 0.930 . S
N290 Eu252 2.609 . S
N290 C292 1.377 . S
N290 C293 1.321 . S
C291 H277 0.930 . S
C291 C293 1.400 . S
C291 C294 1.386 . S
C292 C288 1.429 . S
C292 N290 1.377 . S
C292 C295 1.411 . S
C293 H275 0.930 . S
C293 N290 1.321 . S
C293 C291 1.400 . S
C294 H289 0.930 . S
C294 C291 1.386 . S
C294 C295 1.395 . S
C295 C292 1.411 . S
C295 C294 1.395 . S
C295 C317 1.420 . S
O296 Eu252 2.558 . S
O296 C316 1.257 . S
O297 Eu252 2.612 . S
O297 Eu263 2.380 . S
O297 C308 1.276 . S
O298 Eu263 2.432 . S
O298 C315 1.264 . S
O299 Eu252 2.339 . S
O299 C315 1.254 . S
O300 Eu252 2.563 . S
O300 C308 1.235 . S
O301 Eu252 2.419 . S
O301 C316 1.249 . S
O302 Eu263 2.558 . S
O302 C327 1.257 . S
O303 Eu252 2.380 . S
O303 Eu263 2.612 . S
O303 C319 1.276 . S
O304 Eu252 2.432 . S
O304 C326 1.264 . S
O305 Eu263 2.339 . S
O305 C326 1.254 . S
O306 Eu263 2.563 . S
O306 C319 1.235 . S
O307 Eu263 2.419 . S
O307 C327 1.249 . S
C308 O297 1.276 . S
C308 O300 1.235 . S
C309 C311 1.393 . S
C309 C313 1.395 . S
C309 C316 1.492 . S
C310 C311 1.392 . S
C310 C312 1.386 . S
C311 C309 1.393 . S
C311 C310 1.392 . S
C311 H328 0.930 . S
C312 C310 1.386 . S
C312 C314 1.395 . S
C312 H329 0.930 . S
C313 C309 1.395 . S
C313 C314 1.379 . S
C313 H330 0.930 . S
C314 C312 1.395 . S
C314 C313 1.379 . S
C314 H331 0.930 . S
C315 O298 1.264 . S
C315 O299 1.254 . S
C316 Eu252 2.848 . S
C316 O296 1.257 . S
C316 O301 1.249 . S
C316 C309 1.492 . S
C317 H282 0.931 . S
C317 C295 1.420 . S
C317 C318 1.351 . S
C318 H280 0.930 . S
C318 C286 1.423 . S
C318 C317 1.351 . S
C319 O303 1.276 . S
C319 O306 1.235 . S
C320 C321 1.393 . S
C320 C324 1.395 . S
C320 C327 1.492 . S
C321 C320 1.393 . S
C321 C322 1.392 . S
C321 H332 0.930 . S
C322 C321 1.392 . S
C322 C323 1.386 . S
C323 C322 1.386 . S
C323 C325 1.395 . S
C323 H333 0.930 . S
C324 C320 1.395 . S
C324 C325 1.379 . S
C324 H334 0.930 . S
C325 C323 1.395 . S
C325 C324 1.379 . S
C325 H335 0.930 . S
C326 O304 1.264 . S
C326 O305 1.254 . S
C327 Eu263 2.848 . S
C327 O302 1.257 . S
C327 O307 1.249 . S
C327 C320 1.492 . S
H328 C311 0.930 . S
H329 C312 0.930 . S
H330 C313 0.930 . S
H331 C314 0.930 . S
H332 C321 0.930 . S
H333 C323 0.930 . S
H334 C324 0.930 . S
H335 C325 0.930 . S
Eu336 N367 2.657 . S
Eu336 N374 2.609 . S
Eu336 O380 2.558 . S
Eu336 O381 2.612 . S
Eu336 O383 2.339 . S
Eu336 O384 2.563 . S
Eu336 O385 2.419 . S
Eu336 O387 2.380 . S
Eu336 O388 2.432 . S
Eu336 C400 2.848 . S
C337 C340 1.429 . S
C337 C341 1.411 . S
C337 N344 1.377 . S
C338 C340 1.420 . S
C338 C342 1.423 . S
C338 C350 1.392 . S
C339 C341 1.420 . S
C339 C342 1.351 . S
C339 H362 0.931 . S
C340 C337 1.429 . S
C340 C338 1.420 . S
C340 N348 1.362 . S
C341 C337 1.411 . S
C341 C339 1.420 . S
C341 C346 1.395 . S
C342 C338 1.423 . S
C342 C339 1.351 . S
C342 H354 0.930 . S
C343 C345 1.400 . S
C343 C346 1.386 . S
C343 H355 0.930 . S
N344 C337 1.377 . S
N344 C345 1.321 . S
N344 Eu347 2.609 . S
C345 C343 1.400 . S
C345 N344 1.321 . S
C345 H352 0.930 . S
C346 C341 1.395 . S
C346 C343 1.386 . S
C346 H365 0.930 . S
Eu347 N344 2.609 . S
Eu347 N348 2.657 . S
Eu347 O381 2.380 . S
Eu347 O382 2.432 . S
Eu347 O386 2.558 . S
Eu347 O387 2.612 . S
Eu347 O389 2.339 . S
Eu347 O390 2.563 . S
Eu347 O391 2.419 . S
Eu347 C411 2.848 . S
N348 C340 1.362 . S
N348 Eu347 2.657 . S
N348 C349 1.334 . S
C349 N348 1.334 . S
C349 C351 1.413 . S
C349 H356 0.929 . S
C350 C338 1.392 . S
C350 C351 1.367 . S
C350 H358 0.930 . S
C351 C349 1.413 . S
C351 C350 1.367 . S
C351 H353 0.930 . S
H352 C345 0.930 . S
H353 C351 0.930 . S
H354 C342 0.930 . S
H355 C343 0.930 . S
H356 C349 0.929 . S
H357 C371 0.930 . S
H358 C350 0.930 . S
H359 C377 0.930 . S
H360 C368 0.929 . S
H361 C375 0.930 . S
H362 C339 0.931 . S
H363 C369 0.930 . S
H364 C402 0.930 . S
H365 C346 0.930 . S
H366 C401 0.931 . S
N367 Eu336 2.657 . S
N367 C368 1.334 . S
N367 C372 1.362 . S
C368 H360 0.929 . S
C368 N367 1.334 . S
C368 C371 1.413 . S
C369 H363 0.930 . S
C369 C370 1.392 . S
C369 C371 1.367 . S
C370 C369 1.392 . S
C370 C372 1.420 . S
C370 C402 1.423 . S
C371 H357 0.930 . S
C371 C368 1.413 . S
C371 C369 1.367 . S
C372 N367 1.362 . S
C372 C370 1.420 . S
C372 C376 1.429 . S
H373 C378 0.930 . S
N374 Eu336 2.609 . S
N374 C376 1.377 . S
N374 C377 1.321 . S
C375 H361 0.930 . S
C375 C377 1.400 . S
C375 C378 1.386 . S
C376 C372 1.429 . S
C376 N374 1.377 . S
C376 C379 1.411 . S
C377 H359 0.930 . S
C377 N374 1.321 . S
C377 C375 1.400 . S
C378 H373 0.930 . S
C378 C375 1.386 . S
C378 C379 1.395 . S
C379 C376 1.411 . S
C379 C378 1.395 . S
C379 C401 1.420 . S
O380 Eu336 2.558 . S
O380 C400 1.257 . S
O381 Eu336 2.612 . S
O381 Eu347 2.380 . S
O381 C392 1.276 . S
O382 Eu347 2.432 . S
O382 C399 1.264 . S
O383 Eu336 2.339 . S
O383 C399 1.254 . S
O384 Eu336 2.563 . S
O384 C392 1.235 . S
O385 Eu336 2.419 . S
O385 C400 1.249 . S
O386 Eu347 2.558 . S
O386 C411 1.257 . S
O387 Eu336 2.380 . S
O387 Eu347 2.612 . S
O387 C403 1.276 . S
O388 Eu336 2.432 . S
O388 C410 1.264 . S
O389 Eu347 2.339 . S
O389 C410 1.254 . S
O390 Eu347 2.563 . S
O390 C403 1.235 . S
O391 Eu347 2.419 . S
O391 C411 1.249 . S
C392 O381 1.276 . S
C392 O384 1.235 . S
C393 C395 1.393 . S
C393 C397 1.395 . S
C393 C400 1.492 . S
C394 C395 1.392 . S
C394 C396 1.386 . S
C395 C393 1.393 . S
C395 C394 1.392 . S
C395 H412 0.930 . S
C396 C394 1.386 . S
C396 C398 1.395 . S
C396 H413 0.930 . S
C397 C393 1.395 . S
C397 C398 1.379 . S
C397 H414 0.930 . S
C398 C396 1.395 . S
C398 C397 1.379 . S
C398 H415 0.930 . S
C399 O382 1.264 . S
C399 O383 1.254 . S
C400 Eu336 2.848 . S
C400 O380 1.257 . S
C400 O385 1.249 . S
C400 C393 1.492 . S
C401 H366 0.931 . S
C401 C379 1.420 . S
C401 C402 1.351 . S
C402 H364 0.930 . S
C402 C370 1.423 . S
C402 C401 1.351 . S
C403 O387 1.276 . S
C403 O390 1.235 . S
C404 C405 1.393 . S
C404 C408 1.395 . S
C404 C411 1.492 . S
C405 C404 1.393 . S
C405 C406 1.392 1_455 S
C405 H416 0.930 . S
C406 C405 1.392 1_655 S
C406 C407 1.386 . S
C407 C406 1.386 . S
C407 C409 1.395 . S
C407 H417 0.930 . S
C408 C404 1.395 . S
C408 C409 1.379 1_455 S
C408 H418 0.930 . S
C409 C407 1.395 . S
C409 C408 1.379 1_655 S
C409 H419 0.930 . S
C410 O388 1.264 . S
C410 O389 1.254 . S
C411 Eu347 2.848 . S
C411 O386 1.257 . S
C411 O391 1.249 . S
C411 C404 1.492 . S
H412 C395 0.930 . S
H413 C396 0.930 . S
H414 C397 0.930 . S
H415 C398 0.930 . S
H416 C405 0.930 . S
H417 C407 0.930 . S
H418 C408 0.930 . S
H419 C409 0.930 . S
Eu420 N451 2.657 . S
Eu420 N458 2.609 . S
Eu420 O464 2.558 . S
Eu420 O465 2.612 . S
Eu420 O467 2.339 . S
Eu420 O468 2.563 . S
Eu420 O469 2.419 . S
Eu420 O471 2.380 . S
Eu420 O472 2.432 . S
Eu420 C484 2.848 . S
C421 C424 1.429 . S
C421 C425 1.411 . S
C421 N428 1.377 . S
C422 C424 1.420 . S
C422 C426 1.423 . S
C422 C434 1.392 . S
C423 C425 1.420 . S
C423 C426 1.351 . S
C423 H446 0.931 . S
C424 C421 1.429 . S
C424 C422 1.420 . S
C424 N432 1.362 . S
C425 C421 1.411 . S
C425 C423 1.420 . S
C425 C430 1.395 . S
C426 C422 1.423 . S
C426 C423 1.351 . S
C426 H438 0.930 . S
C427 C429 1.400 . S
C427 C430 1.386 . S
C427 H439 0.930 . S
N428 C421 1.377 . S
N428 C429 1.321 . S
N428 Eu431 2.609 . S
C429 C427 1.400 . S
C429 N428 1.321 . S
C429 H436 0.930 . S
C430 C425 1.395 . S
C430 C427 1.386 . S
C430 H449 0.930 . S
Eu431 N428 2.609 . S
Eu431 N432 2.657 . S
Eu431 O465 2.380 . S
Eu431 O466 2.432 . S
Eu431 O470 2.558 . S
Eu431 O471 2.612 . S
Eu431 O473 2.339 . S
Eu431 O474 2.563 . S
Eu431 O475 2.419 . S
Eu431 C495 2.848 . S
N432 C424 1.362 . S
N432 Eu431 2.657 . S
N432 C433 1.334 . S
C433 N432 1.334 . S
C433 C435 1.413 . S
C433 H440 0.929 . S
C434 C422 1.392 . S
C434 C435 1.367 . S
C434 H442 0.930 . S
C435 C433 1.413 . S
C435 C434 1.367 . S
C435 H437 0.930 . S
H436 C429 0.930 . S
H437 C435 0.930 . S
H438 C426 0.930 . S
H439 C427 0.930 . S
H440 C433 0.929 . S
H441 C455 0.930 . S
H442 C434 0.930 . S
H443 C461 0.930 . S
H444 C452 0.929 . S
H445 C459 0.930 . S
H446 C423 0.931 . S
H447 C453 0.930 . S
H448 C486 0.930 . S
H449 C430 0.930 . S
H450 C485 0.931 . S
N451 Eu420 2.657 . S
N451 C452 1.334 . S
N451 C456 1.362 . S
C452 H444 0.929 . S
C452 N451 1.334 . S
C452 C455 1.413 . S
C453 H447 0.930 . S
C453 C454 1.392 . S
C453 C455 1.367 . S
C454 C453 1.392 . S
C454 C456 1.420 . S
C454 C486 1.423 . S
C455 H441 0.930 . S
C455 C452 1.413 . S
C455 C453 1.367 . S
C456 N451 1.362 . S
C456 C454 1.420 . S
C456 C460 1.429 . S
H457 C462 0.930 . S
N458 Eu420 2.609 . S
N458 C460 1.377 . S
N458 C461 1.321 . S
C459 H445 0.930 . S
C459 C461 1.400 . S
C459 C462 1.386 . S
C460 C456 1.429 . S
C460 N458 1.377 . S
C460 C463 1.411 . S
C461 H443 0.930 . S
C461 N458 1.321 . S
C461 C459 1.400 . S
C462 H457 0.930 . S
C462 C459 1.386 . S
C462 C463 1.395 . S
C463 C460 1.411 . S
C463 C462 1.395 . S
C463 C485 1.420 . S
O464 Eu420 2.558 . S
O464 C484 1.257 . S
O465 Eu420 2.612 . S
O465 Eu431 2.380 . S
O465 C476 1.276 . S
O466 Eu431 2.432 . S
O466 C483 1.264 . S
O467 Eu420 2.339 . S
O467 C483 1.254 . S
O468 Eu420 2.563 . S
O468 C476 1.235 . S
O469 Eu420 2.419 . S
O469 C484 1.249 . S
O470 Eu431 2.558 . S
O470 C495 1.257 . S
O471 Eu420 2.380 . S
O471 Eu431 2.612 . S
O471 C487 1.276 . S
O472 Eu420 2.432 . S
O472 C494 1.264 . S
O473 Eu431 2.339 . S
O473 C494 1.254 . S
O474 Eu431 2.563 . S
O474 C487 1.235 . S
O475 Eu431 2.419 . S
O475 C495 1.249 . S
C476 O465 1.276 . S
C476 O468 1.235 . S
C477 C479 1.393 . S
C477 C481 1.395 . S
C477 C484 1.492 . S
C478 C479 1.392 . S
C478 C480 1.386 . S
C479 C477 1.393 . S
C479 C478 1.392 . S
C479 H496 0.930 . S
C480 C478 1.386 . S
C480 C482 1.395 . S
C480 H497 0.930 . S
C481 C477 1.395 . S
C481 C482 1.379 . S
C481 H498 0.930 . S
C482 C480 1.395 . S
C482 C481 1.379 . S
C482 H499 0.930 . S
C483 O466 1.264 . S
C483 O467 1.254 . S
C484 Eu420 2.848 . S
C484 O464 1.257 . S
C484 O469 1.249 . S
C484 C477 1.492 . S
C485 H450 0.931 . S
C485 C463 1.420 . S
C485 C486 1.351 . S
C486 H448 0.930 . S
C486 C454 1.423 . S
C486 C485 1.351 . S
C487 O471 1.276 . S
C487 O474 1.235 . S
C488 C489 1.393 . S
C488 C492 1.395 . S
C488 C495 1.492 . S
C489 C488 1.393 . S
C489 C490 1.392 1_545 S
C489 H500 0.930 . S
C490 C489 1.392 1_565 S
C490 C491 1.386 . S
C491 C490 1.386 . S
C491 C493 1.395 . S
C491 H501 0.930 . S
C492 C488 1.395 . S
C492 C493 1.379 1_545 S
C492 H502 0.930 . S
C493 C491 1.395 . S
C493 C492 1.379 1_565 S
C493 H503 0.930 . S
C494 O472 1.264 . S
C494 O473 1.254 . S
C495 Eu431 2.848 . S
C495 O470 1.257 . S
C495 O475 1.249 . S
C495 C488 1.492 . S
H496 C479 0.930 . S
H497 C480 0.930 . S
H498 C481 0.930 . S
H499 C482 0.930 . S
H500 C489 0.930 . S
H501 C491 0.930 . S
H502 C492 0.930 . S
H503 C493 0.930 . S
Eu504 N535 2.657 . S
Eu504 N542 2.609 . S
Eu504 O548 2.558 . S
Eu504 O549 2.612 . S
Eu504 O551 2.339 . S
Eu504 O552 2.563 . S
Eu504 O553 2.419 . S
Eu504 O555 2.380 . S
Eu504 O556 2.432 . S
Eu504 C568 2.848 . S
C505 C508 1.429 . S
C505 C509 1.411 . S
C505 N512 1.377 . S
C506 C508 1.420 . S
C506 C510 1.423 . S
C506 C518 1.392 . S
C507 C509 1.420 . S
C507 C510 1.351 . S
C507 H530 0.931 . S
C508 C505 1.429 . S
C508 C506 1.420 . S
C508 N516 1.362 . S
C509 C505 1.411 . S
C509 C507 1.420 . S
C509 C514 1.395 . S
C510 C506 1.423 . S
C510 C507 1.351 . S
C510 H522 0.930 . S
C511 C513 1.400 . S
C511 C514 1.386 . S
C511 H523 0.930 . S
N512 C505 1.377 . S
N512 C513 1.321 . S
N512 Eu515 2.609 . S
C513 C511 1.400 . S
C513 N512 1.321 . S
C513 H520 0.930 . S
C514 C509 1.395 . S
C514 C511 1.386 . S
C514 H533 0.930 . S
Eu515 N512 2.609 . S
Eu515 N516 2.657 . S
Eu515 O549 2.380 . S
Eu515 O550 2.432 . S
Eu515 O554 2.558 . S
Eu515 O555 2.612 . S
Eu515 O557 2.339 . S
Eu515 O558 2.563 . S
Eu515 O559 2.419 . S
Eu515 C579 2.848 . S
N516 C508 1.362 . S
N516 Eu515 2.657 . S
N516 C517 1.334 . S
C517 N516 1.334 . S
C517 C519 1.413 . S
C517 H524 0.929 . S
C518 C506 1.392 . S
C518 C519 1.367 . S
C518 H526 0.930 . S
C519 C517 1.413 . S
C519 C518 1.367 . S
C519 H521 0.930 . S
H520 C513 0.930 . S
H521 C519 0.930 . S
H522 C510 0.930 . S
H523 C511 0.930 . S
H524 C517 0.929 . S
H525 C539 0.930 . S
H526 C518 0.930 . S
H527 C545 0.930 . S
H528 C536 0.929 . S
H529 C543 0.930 . S
H530 C507 0.931 . S
H531 C537 0.930 . S
H532 C570 0.930 . S
H533 C514 0.930 . S
H534 C569 0.931 . S
N535 Eu504 2.657 . S
N535 C536 1.334 . S
N535 C540 1.362 . S
C536 H528 0.929 . S
C536 N535 1.334 . S
C536 C539 1.413 . S
C537 H531 0.930 . S
C537 C538 1.392 . S
C537 C539 1.367 . S
C538 C537 1.392 . S
C538 C540 1.420 . S
C538 C570 1.423 . S
C539 H525 0.930 . S
C539 C536 1.413 . S
C539 C537 1.367 . S
C540 N535 1.362 . S
C540 C538 1.420 . S
C540 C544 1.429 . S
H541 C546 0.930 . S
N542 Eu504 2.609 . S
N542 C544 1.377 . S
N542 C545 1.321 . S
C543 H529 0.930 . S
C543 C545 1.400 . S
C543 C546 1.386 . S
C544 C540 1.429 . S
C544 N542 1.377 . S
C544 C547 1.411 . S
C545 H527 0.930 . S
C545 N542 1.321 . S
C545 C543 1.400 . S
C546 H541 0.930 . S
C546 C543 1.386 . S
C546 C547 1.395 . S
C547 C544 1.411 . S
C547 C546 1.395 . S
C547 C569 1.420 . S
O548 Eu504 2.558 . S
O548 C568 1.257 . S
O549 Eu504 2.612 . S
O549 Eu515 2.380 . S
O549 C560 1.276 . S
O550 Eu515 2.432 . S
O550 C567 1.264 . S
O551 Eu504 2.339 . S
O551 C567 1.254 . S
O552 Eu504 2.563 . S
O552 C560 1.235 . S
O553 Eu504 2.419 . S
O553 C568 1.249 . S
O554 Eu515 2.558 . S
O554 C579 1.257 . S
O555 Eu504 2.380 . S
O555 Eu515 2.612 . S
O555 C571 1.276 . S
O556 Eu504 2.432 . S
O556 C578 1.264 . S
O557 Eu515 2.339 . S
O557 C578 1.254 . S
O558 Eu515 2.563 . S
O558 C571 1.235 . S
O559 Eu515 2.419 . S
O559 C579 1.249 . S
C560 O549 1.276 . S
C560 O552 1.235 . S
C561 C563 1.393 . S
C561 C565 1.395 . S
C561 C568 1.492 . S
C562 C563 1.392 . S
C562 C564 1.386 . S
C563 C561 1.393 . S
C563 C562 1.392 . S
C563 H580 0.930 . S
C564 C562 1.386 . S
C564 C566 1.395 . S
C564 H581 0.930 . S
C565 C561 1.395 . S
C565 C566 1.379 . S
C565 H582 0.930 . S
C566 C564 1.395 . S
C566 C565 1.379 . S
C566 H583 0.930 . S
C567 O550 1.264 . S
C567 O551 1.254 . S
C568 Eu504 2.848 . S
C568 O548 1.257 . S
C568 O553 1.249 . S
C568 C561 1.492 . S
C569 H534 0.931 . S
C569 C547 1.420 . S
C569 C570 1.351 . S
C570 H532 0.930 . S
C570 C538 1.423 . S
C570 C569 1.351 . S
C571 O555 1.276 . S
C571 O558 1.235 . S
C572 C573 1.393 . S
C572 C576 1.395 . S
C572 C579 1.492 . S
C573 C572 1.393 . S
C573 C574 1.392 . S
C573 H584 0.930 . S
C574 C573 1.392 . S
C574 C575 1.386 . S
C575 C574 1.386 . S
C575 C577 1.395 . S
C575 H585 0.930 . S
C576 C572 1.395 . S
C576 C577 1.379 . S
C576 H586 0.930 . S
C577 C575 1.395 . S
C577 C576 1.379 . S
C577 H587 0.930 . S
C578 O556 1.264 . S
C578 O557 1.254 . S
C579 Eu515 2.848 . S
C579 O554 1.257 . S
C579 O559 1.249 . S
C579 C572 1.492 . S
H580 C563 0.930 . S
H581 C564 0.930 . S
H582 C565 0.930 . S
H583 C566 0.930 . S
H584 C573 0.930 . S
H585 C575 0.930 . S
H586 C576 0.930 . S
H587 C577 0.930 . S
Eu588 N619 2.657 . S
Eu588 N626 2.609 . S
Eu588 O632 2.558 . S
Eu588 O633 2.612 . S
Eu588 O635 2.339 . S
Eu588 O636 2.563 . S
Eu588 O637 2.419 . S
Eu588 O639 2.380 . S
Eu588 O640 2.432 . S
Eu588 C652 2.848 . S
C589 C592 1.429 . S
C589 C593 1.411 . S
C589 N596 1.377 . S
C590 C592 1.420 . S
C590 C594 1.423 . S
C590 C602 1.392 . S
C591 C593 1.420 . S
C591 C594 1.351 . S
C591 H614 0.931 . S
C592 C589 1.429 . S
C592 C590 1.420 . S
C592 N600 1.362 . S
C593 C589 1.411 . S
C593 C591 1.420 . S
C593 C598 1.395 . S
C594 C590 1.423 . S
C594 C591 1.351 . S
C594 H606 0.930 . S
C595 C597 1.400 . S
C595 C598 1.386 . S
C595 H607 0.930 . S
N596 C589 1.377 . S
N596 C597 1.321 . S
N596 Eu599 2.609 . S
C597 C595 1.400 . S
C597 N596 1.321 . S
C597 H604 0.930 . S
C598 C593 1.395 . S
C598 C595 1.386 . S
C598 H617 0.930 . S
Eu599 N596 2.609 . S
Eu599 N600 2.657 . S
Eu599 O633 2.380 . S
Eu599 O634 2.432 . S
Eu599 O638 2.558 . S
Eu599 O639 2.612 . S
Eu599 O641 2.339 . S
Eu599 O642 2.563 . S
Eu599 O643 2.419 . S
Eu599 C663 2.848 . S
N600 C592 1.362 . S
N600 Eu599 2.657 . S
N600 C601 1.334 . S
C601 N600 1.334 . S
C601 C603 1.413 . S
C601 H608 0.929 . S
C602 C590 1.392 . S
C602 C603 1.367 . S
C602 H610 0.930 . S
C603 C601 1.413 . S
C603 C602 1.367 . S
C603 H605 0.930 . S
H604 C597 0.930 . S
H605 C603 0.930 . S
H606 C594 0.930 . S
H607 C595 0.930 . S
H608 C601 0.929 . S
H609 C623 0.930 . S
H610 C602 0.930 . S
H611 C629 0.930 . S
H612 C620 0.929 . S
H613 C627 0.930 . S
H614 C591 0.931 . S
H615 C621 0.930 . S
H616 C654 0.930 . S
H617 C598 0.930 . S
H618 C653 0.931 . S
N619 Eu588 2.657 . S
N619 C620 1.334 . S
N619 C624 1.362 . S
C620 H612 0.929 . S
C620 N619 1.334 . S
C620 C623 1.413 . S
C621 H615 0.930 . S
C621 C622 1.392 . S
C621 C623 1.367 . S
C622 C621 1.392 . S
C622 C624 1.420 . S
C622 C654 1.423 . S
C623 H609 0.930 . S
C623 C620 1.413 . S
C623 C621 1.367 . S
C624 N619 1.362 . S
C624 C622 1.420 . S
C624 C628 1.429 . S
H625 C630 0.930 . S
N626 Eu588 2.609 . S
N626 C628 1.377 . S
N626 C629 1.321 . S
C627 H613 0.930 . S
C627 C629 1.400 . S
C627 C630 1.386 . S
C628 C624 1.429 . S
C628 N626 1.377 . S
C628 C631 1.411 . S
C629 H611 0.930 . S
C629 N626 1.321 . S
C629 C627 1.400 . S
C630 H625 0.930 . S
C630 C627 1.386 . S
C630 C631 1.395 . S
C631 C628 1.411 . S
C631 C630 1.395 . S
C631 C653 1.420 . S
O632 Eu588 2.558 . S
O632 C652 1.257 . S
O633 Eu588 2.612 . S
O633 Eu599 2.380 . S
O633 C644 1.276 . S
O634 Eu599 2.432 . S
O634 C651 1.264 . S
O635 Eu588 2.339 . S
O635 C651 1.254 . S
O636 Eu588 2.563 . S
O636 C644 1.235 . S
O637 Eu588 2.419 . S
O637 C652 1.249 . S
O638 Eu599 2.558 . S
O638 C663 1.257 . S
O639 Eu588 2.380 . S
O639 Eu599 2.612 . S
O639 C655 1.276 . S
O640 Eu588 2.432 . S
O640 C662 1.264 . S
O641 Eu599 2.339 . S
O641 C662 1.254 . S
O642 Eu599 2.563 . S
O642 C655 1.235 . S
O643 Eu599 2.419 . S
O643 C663 1.249 . S
C644 O633 1.276 . S
C644 O636 1.235 . S
C645 C647 1.393 . S
C645 C649 1.395 . S
C645 C652 1.492 . S
C646 C647 1.392 . S
C646 C648 1.386 . S
C647 C645 1.393 . S
C647 C646 1.392 . S
C647 H664 0.930 . S
C648 C646 1.386 . S
C648 C650 1.395 . S
C648 H665 0.930 . S
C649 C645 1.395 . S
C649 C650 1.379 . S
C649 H666 0.930 . S
C650 C648 1.395 . S
C650 C649 1.379 . S
C650 H667 0.930 . S
C651 O634 1.264 . S
C651 O635 1.254 . S
C652 Eu588 2.848 . S
C652 O632 1.257 . S
C652 O637 1.249 . S
C652 C645 1.492 . S
C653 H618 0.931 . S
C653 C631 1.420 . S
C653 C654 1.351 . S
C654 H616 0.930 . S
C654 C622 1.423 . S
C654 C653 1.351 . S
C655 O639 1.276 . S
C655 O642 1.235 . S
C656 C657 1.393 . S
C656 C660 1.395 . S
C656 C663 1.492 . S
C657 C656 1.393 . S
C657 C658 1.392 1_655 S
C657 H668 0.930 . S
C658 C657 1.392 1_455 S
C658 C659 1.386 . S
C659 C658 1.386 . S
C659 C661 1.395 . S
C659 H669 0.930 . S
C660 C656 1.395 . S
C660 C661 1.379 1_655 S
C660 H670 0.930 . S
C661 C659 1.395 . S
C661 C660 1.379 1_455 S
C661 H671 0.930 . S
C662 O640 1.264 . S
C662 O641 1.254 . S
C663 Eu599 2.848 . S
C663 O638 1.257 . S
C663 O643 1.249 . S
C663 C656 1.492 . S
H664 C647 0.930 . S
H665 C648 0.930 . S
H666 C649 0.930 . S
H667 C650 0.930 . S
H668 C657 0.930 . S
H669 C659 0.930 . S
H670 C660 0.930 . S
H671 C661 0.930 . S
Eu672 N703 2.657 . S
Eu672 N710 2.609 . S
Eu672 O716 2.558 . S
Eu672 O717 2.612 . S
Eu672 O719 2.339 . S
Eu672 O720 2.563 . S
Eu672 O721 2.419 . S
Eu672 O723 2.380 . S
Eu672 O724 2.432 . S
Eu672 C736 2.848 . S
C673 C676 1.429 . S
C673 C677 1.411 . S
C673 N680 1.377 . S
C674 C676 1.420 . S
C674 C678 1.423 . S
C674 C686 1.392 . S
C675 C677 1.420 . S
C675 C678 1.351 . S
C675 H698 0.931 . S
C676 C673 1.429 . S
C676 C674 1.420 . S
C676 N684 1.362 . S
C677 C673 1.411 . S
C677 C675 1.420 . S
C677 C682 1.395 . S
C678 C674 1.423 . S
C678 C675 1.351 . S
C678 H690 0.930 . S
C679 C681 1.400 . S
C679 C682 1.386 . S
C679 H691 0.930 . S
N680 C673 1.377 . S
N680 C681 1.321 . S
N680 Eu683 2.609 . S
C681 C679 1.400 . S
C681 N680 1.321 . S
C681 H688 0.930 . S
C682 C677 1.395 . S
C682 C679 1.386 . S
C682 H701 0.930 . S
Eu683 N680 2.609 . S
Eu683 N684 2.657 . S
Eu683 O717 2.380 . S
Eu683 O718 2.432 . S
Eu683 O722 2.558 . S
Eu683 O723 2.612 . S
Eu683 O725 2.339 . S
Eu683 O726 2.563 . S
Eu683 O727 2.419 . S
Eu683 C747 2.848 . S
N684 C676 1.362 . S
N684 Eu683 2.657 . S
N684 C685 1.334 . S
C685 N684 1.334 . S
C685 C687 1.413 . S
C685 H692 0.929 . S
C686 C674 1.392 . S
C686 C687 1.367 . S
C686 H694 0.930 . S
C687 C685 1.413 . S
C687 C686 1.367 . S
C687 H689 0.930 . S
H688 C681 0.930 . S
H689 C687 0.930 . S
H690 C678 0.930 . S
H691 C679 0.930 . S
H692 C685 0.929 . S
H693 C707 0.930 . S
H694 C686 0.930 . S
H695 C713 0.930 . S
H696 C704 0.929 . S
H697 C711 0.930 . S
H698 C675 0.931 . S
H699 C705 0.930 . S
H700 C738 0.930 . S
H701 C682 0.930 . S
H702 C737 0.931 . S
N703 Eu672 2.657 . S
N703 C704 1.334 . S
N703 C708 1.362 . S
C704 H696 0.929 . S
C704 N703 1.334 . S
C704 C707 1.413 . S
C705 H699 0.930 . S
C705 C706 1.392 . S
C705 C707 1.367 . S
C706 C705 1.392 . S
C706 C708 1.420 . S
C706 C738 1.423 . S
C707 H693 0.930 . S
C707 C704 1.413 . S
C707 C705 1.367 . S
C708 N703 1.362 . S
C708 C706 1.420 . S
C708 C712 1.429 . S
H709 C714 0.930 . S
N710 Eu672 2.609 . S
N710 C712 1.377 . S
N710 C713 1.321 . S
C711 H697 0.930 . S
C711 C713 1.400 . S
C711 C714 1.386 . S
C712 C708 1.429 . S
C712 N710 1.377 . S
C712 C715 1.411 . S
C713 H695 0.930 . S
C713 N710 1.321 . S
C713 C711 1.400 . S
C714 H709 0.930 . S
C714 C711 1.386 . S
C714 C715 1.395 . S
C715 C712 1.411 . S
C715 C714 1.395 . S
C715 C737 1.420 . S
O716 Eu672 2.558 . S
O716 C736 1.257 . S
O717 Eu672 2.612 . S
O717 Eu683 2.380 . S
O717 C728 1.276 . S
O718 Eu683 2.432 . S
O718 C735 1.264 . S
O719 Eu672 2.339 . S
O719 C735 1.254 . S
O720 Eu672 2.563 . S
O720 C728 1.235 . S
O721 Eu672 2.419 . S
O721 C736 1.249 . S
O722 Eu683 2.558 . S
O722 C747 1.257 . S
O723 Eu672 2.380 . S
O723 Eu683 2.612 . S
O723 C739 1.276 . S
O724 Eu672 2.432 . S
O724 C746 1.264 . S
O725 Eu683 2.339 . S
O725 C746 1.254 . S
O726 Eu683 2.563 . S
O726 C739 1.235 . S
O727 Eu683 2.419 . S
O727 C747 1.249 . S
C728 O717 1.276 . S
C728 O720 1.235 . S
C729 C731 1.393 . S
C729 C733 1.395 . S
C729 C736 1.492 . S
C730 C731 1.392 . S
C730 C732 1.386 . S
C731 C729 1.393 . S
C731 C730 1.392 . S
C731 H748 0.930 . S
C732 C730 1.386 . S
C732 C734 1.395 . S
C732 H749 0.930 . S
C733 C729 1.395 . S
C733 C734 1.379 . S
C733 H750 0.930 . S
C734 C732 1.395 . S
C734 C733 1.379 . S
C734 H751 0.930 . S
C735 O718 1.264 . S
C735 O719 1.254 . S
C736 Eu672 2.848 . S
C736 O716 1.257 . S
C736 O721 1.249 . S
C736 C729 1.492 . S
C737 H702 0.931 . S
C737 C715 1.420 . S
C737 C738 1.351 . S
C738 H700 0.930 . S
C738 C706 1.423 . S
C738 C737 1.351 . S
C739 O723 1.276 . S
C739 O726 1.235 . S
C740 C741 1.393 . S
C740 C744 1.395 . S
C740 C747 1.492 . S
C741 C740 1.393 . S
C741 C742 1.392 1_565 S
C741 H752 0.930 . S
C742 C741 1.392 1_545 S
C742 C743 1.386 . S
C743 C742 1.386 . S
C743 C745 1.395 . S
C743 H753 0.930 . S
C744 C740 1.395 . S
C744 C745 1.379 1_565 S
C744 H754 0.930 . S
C745 C743 1.395 . S
C745 C744 1.379 1_545 S
C745 H755 0.930 . S
C746 O724 1.264 . S
C746 O725 1.254 . S
C747 Eu683 2.848 . S
C747 O722 1.257 . S
C747 O727 1.249 . S
C747 C740 1.492 . S
H748 C731 0.930 . S
H749 C732 0.930 . S
H750 C733 0.930 . S
H751 C734 0.930 . S
H752 C741 0.930 . S
H753 C743 0.930 . S
H754 C744 0.930 . S
H755 C745 0.930 . S
Eu756 N787 2.657 . S
Eu756 N794 2.609 . S
Eu756 O800 2.558 . S
Eu756 O801 2.612 . S
Eu756 O803 2.339 . S
Eu756 O804 2.563 . S
Eu756 O805 2.419 . S
Eu756 O807 2.380 . S
Eu756 O808 2.432 . S
Eu756 C820 2.848 . S
C757 C760 1.429 . S
C757 C761 1.411 . S
C757 N764 1.377 . S
C758 C760 1.420 . S
C758 C762 1.423 . S
C758 C770 1.392 . S
C759 C761 1.420 . S
C759 C762 1.351 . S
C759 H782 0.931 . S
C760 C757 1.429 . S
C760 C758 1.420 . S
C760 N768 1.362 . S
C761 C757 1.411 . S
C761 C759 1.420 . S
C761 C766 1.395 . S
C762 C758 1.423 . S
C762 C759 1.351 . S
C762 H774 0.930 . S
C763 C765 1.400 . S
C763 C766 1.386 . S
C763 H775 0.930 . S
N764 C757 1.377 . S
N764 C765 1.321 . S
N764 Eu767 2.609 . S
C765 C763 1.400 . S
C765 N764 1.321 . S
C765 H772 0.930 . S
C766 C761 1.395 . S
C766 C763 1.386 . S
C766 H785 0.930 . S
Eu767 N764 2.609 . S
Eu767 N768 2.657 . S
Eu767 O801 2.380 . S
Eu767 O802 2.432 . S
Eu767 O806 2.558 . S
Eu767 O807 2.612 . S
Eu767 O809 2.339 . S
Eu767 O810 2.563 . S
Eu767 O811 2.419 . S
Eu767 C831 2.848 . S
N768 C760 1.362 . S
N768 Eu767 2.657 . S
N768 C769 1.334 . S
C769 N768 1.334 . S
C769 C771 1.413 . S
C769 H776 0.929 . S
C770 C758 1.392 . S
C770 C771 1.367 . S
C770 H778 0.930 . S
C771 C769 1.413 . S
C771 C770 1.367 . S
C771 H773 0.930 . S
H772 C765 0.930 . S
H773 C771 0.930 . S
H774 C762 0.930 . S
H775 C763 0.930 . S
H776 C769 0.929 . S
H777 C791 0.930 . S
H778 C770 0.930 . S
H779 C797 0.930 . S
H780 C788 0.929 . S
H781 C795 0.930 . S
H782 C759 0.931 . S
H783 C789 0.930 . S
H784 C822 0.930 . S
H785 C766 0.930 . S
H786 C821 0.931 . S
N787 Eu756 2.657 . S
N787 C788 1.334 . S
N787 C792 1.362 . S
C788 H780 0.929 . S
C788 N787 1.334 . S
C788 C791 1.413 . S
C789 H783 0.930 . S
C789 C790 1.392 . S
C789 C791 1.367 . S
C790 C789 1.392 . S
C790 C792 1.420 . S
C790 C822 1.423 . S
C791 H777 0.930 . S
C791 C788 1.413 . S
C791 C789 1.367 . S
C792 N787 1.362 . S
C792 C790 1.420 . S
C792 C796 1.429 . S
H793 C798 0.930 . S
N794 Eu756 2.609 . S
N794 C796 1.377 . S
N794 C797 1.321 . S
C795 H781 0.930 . S
C795 C797 1.400 . S
C795 C798 1.386 . S
C796 C792 1.429 . S
C796 N794 1.377 . S
C796 C799 1.411 . S
C797 H779 0.930 . S
C797 N794 1.321 . S
C797 C795 1.400 . S
C798 H793 0.930 . S
C798 C795 1.386 . S
C798 C799 1.395 . S
C799 C796 1.411 . S
C799 C798 1.395 . S
C799 C821 1.420 . S
O800 Eu756 2.558 . S
O800 C820 1.257 . S
O801 Eu756 2.612 . S
O801 Eu767 2.380 . S
O801 C812 1.276 . S
O802 Eu767 2.432 . S
O802 C819 1.264 . S
O803 Eu756 2.339 . S
O803 C819 1.254 . S
O804 Eu756 2.563 . S
O804 C812 1.235 . S
O805 Eu756 2.419 . S
O805 C820 1.249 . S
O806 Eu767 2.558 . S
O806 C831 1.257 . S
O807 Eu756 2.380 . S
O807 Eu767 2.612 . S
O807 C823 1.276 . S
O808 Eu756 2.432 . S
O808 C830 1.264 . S
O809 Eu767 2.339 . S
O809 C830 1.254 . S
O810 Eu767 2.563 . S
O810 C823 1.235 . S
O811 Eu767 2.419 . S
O811 C831 1.249 . S
C812 O801 1.276 . S
C812 O804 1.235 . S
C813 C815 1.393 . S
C813 C817 1.395 . S
C813 C820 1.492 . S
C814 C815 1.392 . S
C814 C816 1.386 . S
C815 C813 1.393 . S
C815 C814 1.392 . S
C815 H832 0.930 . S
C816 C814 1.386 . S
C816 C818 1.395 . S
C816 H833 0.930 . S
C817 C813 1.395 . S
C817 C818 1.379 . S
C817 H834 0.930 . S
C818 C816 1.395 . S
C818 C817 1.379 . S
C818 H835 0.930 . S
C819 O802 1.264 . S
C819 O803 1.254 . S
C820 Eu756 2.848 . S
C820 O800 1.257 . S
C820 O805 1.249 . S
C820 C813 1.492 . S
C821 H786 0.931 . S
C821 C799 1.420 . S
C821 C822 1.351 . S
C822 H784 0.930 . S
C822 C790 1.423 . S
C822 C821 1.351 . S
C823 O807 1.276 . S
C823 O810 1.235 . S
C824 C825 1.393 . S
C824 C828 1.395 . S
C824 C831 1.492 . S
C825 C824 1.393 . S
C825 C826 1.392 . S
C825 H836 0.930 . S
C826 C825 1.392 . S
C826 C827 1.386 . S
C827 C826 1.386 . S
C827 C829 1.395 . S
C827 H837 0.930 . S
C828 C824 1.395 . S
C828 C829 1.379 . S
C828 H838 0.930 . S
C829 C827 1.395 . S
C829 C828 1.379 . S
C829 H839 0.930 . S
C830 O808 1.264 . S
C830 O809 1.254 . S
C831 Eu767 2.848 . S
C831 O806 1.257 . S
C831 O811 1.249 . S
C831 C824 1.492 . S
H832 C815 0.930 . S
H833 C816 0.930 . S
H834 C817 0.930 . S
H835 C818 0.930 . S
H836 C825 0.930 . S
H837 C827 0.930 . S
H838 C828 0.930 . S
H839 C829 0.930 . S
Eu840 N871 2.657 . S
Eu840 N878 2.609 . S
Eu840 O884 2.558 . S
Eu840 O885 2.612 . S
Eu840 O887 2.339 . S
Eu840 O888 2.563 . S
Eu840 O889 2.419 . S
Eu840 O891 2.380 . S
Eu840 O892 2.432 . S
Eu840 C904 2.848 . S
C841 C844 1.429 . S
C841 C845 1.411 . S
C841 N848 1.377 . S
C842 C844 1.420 . S
C842 C846 1.423 . S
C842 C854 1.392 . S
C843 C845 1.420 . S
C843 C846 1.351 . S
C843 H866 0.931 . S
C844 C841 1.429 . S
C844 C842 1.420 . S
C844 N852 1.362 . S
C845 C841 1.411 . S
C845 C843 1.420 . S
C845 C850 1.395 . S
C846 C842 1.423 . S
C846 C843 1.351 . S
C846 H858 0.930 . S
C847 C849 1.400 . S
C847 C850 1.386 . S
C847 H859 0.930 . S
N848 C841 1.377 . S
N848 C849 1.321 . S
N848 Eu851 2.609 . S
C849 C847 1.400 . S
C849 N848 1.321 . S
C849 H856 0.930 . S
C850 C845 1.395 . S
C850 C847 1.386 . S
C850 H869 0.930 . S
Eu851 N848 2.609 . S
Eu851 N852 2.657 . S
Eu851 O885 2.380 . S
Eu851 O886 2.432 . S
Eu851 O890 2.558 . S
Eu851 O891 2.612 . S
Eu851 O893 2.339 . S
Eu851 O894 2.563 . S
Eu851 O895 2.419 . S
Eu851 C915 2.848 . S
N852 C844 1.362 . S
N852 Eu851 2.657 . S
N852 C853 1.334 . S
C853 N852 1.334 . S
C853 C855 1.413 . S
C853 H860 0.929 . S
C854 C842 1.392 . S
C854 C855 1.367 . S
C854 H862 0.930 . S
C855 C853 1.413 . S
C855 C854 1.367 . S
C855 H857 0.930 . S
H856 C849 0.930 . S
H857 C855 0.930 . S
H858 C846 0.930 . S
H859 C847 0.930 . S
H860 C853 0.929 . S
H861 C875 0.930 . S
H862 C854 0.930 . S
H863 C881 0.930 . S
H864 C872 0.929 . S
H865 C879 0.930 . S
H866 C843 0.931 . S
H867 C873 0.930 . S
H868 C906 0.930 . S
H869 C850 0.930 . S
H870 C905 0.931 . S
N871 Eu840 2.657 . S
N871 C872 1.334 . S
N871 C876 1.362 . S
C872 H864 0.929 . S
C872 N871 1.334 . S
C872 C875 1.413 . S
C873 H867 0.930 . S
C873 C874 1.392 . S
C873 C875 1.367 . S
C874 C873 1.392 . S
C874 C876 1.420 . S
C874 C906 1.423 . S
C875 H861 0.930 . S
C875 C872 1.413 . S
C875 C873 1.367 . S
C876 N871 1.362 . S
C876 C874 1.420 . S
C876 C880 1.429 . S
H877 C882 0.930 . S
N878 Eu840 2.609 . S
N878 C880 1.377 . S
N878 C881 1.321 . S
C879 H865 0.930 . S
C879 C881 1.400 . S
C879 C882 1.386 . S
C880 C876 1.429 . S
C880 N878 1.377 . S
C880 C883 1.411 . S
C881 H863 0.930 . S
C881 N878 1.321 . S
C881 C879 1.400 . S
C882 H877 0.930 . S
C882 C879 1.386 . S
C882 C883 1.395 . S
C883 C880 1.411 . S
C883 C882 1.395 . S
C883 C905 1.420 . S
O884 Eu840 2.558 . S
O884 C904 1.257 . S
O885 Eu840 2.612 . S
O885 Eu851 2.380 . S
O885 C896 1.276 . S
O886 Eu851 2.432 . S
O886 C903 1.264 . S
O887 Eu840 2.339 . S
O887 C903 1.254 . S
O888 Eu840 2.563 . S
O888 C896 1.235 . S
O889 Eu840 2.419 . S
O889 C904 1.249 . S
O890 Eu851 2.558 . S
O890 C915 1.257 . S
O891 Eu840 2.380 . S
O891 Eu851 2.612 . S
O891 C907 1.276 . S
O892 Eu840 2.432 . S
O892 C914 1.264 . S
O893 Eu851 2.339 . S
O893 C914 1.254 . S
O894 Eu851 2.563 . S
O894 C907 1.235 . S
O895 Eu851 2.419 . S
O895 C915 1.249 . S
C896 O885 1.276 . S
C896 O888 1.235 . S
C897 C899 1.393 . S
C897 C901 1.395 . S
C897 C904 1.492 . S
C898 C899 1.392 . S
C898 C900 1.386 . S
C899 C897 1.393 . S
C899 C898 1.392 . S
C899 H916 0.930 . S
C900 C898 1.386 . S
C900 C902 1.395 . S
C900 H917 0.930 . S
C901 C897 1.395 . S
C901 C902 1.379 . S
C901 H918 0.930 . S
C902 C900 1.395 . S
C902 C901 1.379 . S
C902 H919 0.930 . S
C903 O886 1.264 . S
C903 O887 1.254 . S
C904 Eu840 2.848 . S
C904 O884 1.257 . S
C904 O889 1.249 . S
C904 C897 1.492 . S
C905 H870 0.931 . S
C905 C883 1.420 . S
C905 C906 1.351 . S
C906 H868 0.930 . S
C906 C874 1.423 . S
C906 C905 1.351 . S
C907 O891 1.276 . S
C907 O894 1.235 . S
C908 C909 1.393 . S
C908 C912 1.395 . S
C908 C915 1.492 . S
C909 C908 1.393 . S
C909 C910 1.392 1_455 S
C909 H920 0.930 . S
C910 C909 1.392 1_655 S
C910 C911 1.386 . S
C911 C910 1.386 . S
C911 C913 1.395 . S
C911 H921 0.930 . S
C912 C908 1.395 . S
C912 C913 1.379 1_455 S
C912 H922 0.930 . S
C913 C911 1.395 . S
C913 C912 1.379 1_655 S
C913 H923 0.930 . S
C914 O892 1.264 . S
C914 O893 1.254 . S
C915 Eu851 2.848 . S
C915 O890 1.257 . S
C915 O895 1.249 . S
C915 C908 1.492 . S
H916 C899 0.930 . S
H917 C900 0.930 . S
H918 C901 0.930 . S
H919 C902 0.930 . S
H920 C909 0.930 . S
H921 C911 0.930 . S
H922 C912 0.930 . S
H923 C913 0.930 . S
Eu924 N955 2.657 . S
Eu924 N962 2.609 . S
Eu924 O968 2.558 . S
Eu924 O969 2.612 . S
Eu924 O971 2.339 . S
Eu924 O972 2.563 . S
Eu924 O973 2.419 . S
Eu924 O975 2.380 . S
Eu924 O976 2.432 . S
Eu924 C988 2.848 . S
C925 C928 1.429 . S
C925 C929 1.411 . S
C925 N932 1.377 . S
C926 C928 1.420 . S
C926 C930 1.423 . S
C926 C938 1.392 . S
C927 C929 1.420 . S
C927 C930 1.351 . S
C927 H950 0.931 . S
C928 C925 1.429 . S
C928 C926 1.420 . S
C928 N936 1.362 . S
C929 C925 1.411 . S
C929 C927 1.420 . S
C929 C934 1.395 . S
C930 C926 1.423 . S
C930 C927 1.351 . S
C930 H942 0.930 . S
C931 C933 1.400 . S
C931 C934 1.386 . S
C931 H943 0.930 . S
N932 C925 1.377 . S
N932 C933 1.321 . S
N932 Eu935 2.609 . S
C933 C931 1.400 . S
C933 N932 1.321 . S
C933 H940 0.930 . S
C934 C929 1.395 . S
C934 C931 1.386 . S
C934 H953 0.930 . S
Eu935 N932 2.609 . S
Eu935 N936 2.657 . S
Eu935 O969 2.380 . S
Eu935 O970 2.432 . S
Eu935 O974 2.558 . S
Eu935 O975 2.612 . S
Eu935 O977 2.339 . S
Eu935 O978 2.563 . S
Eu935 O979 2.419 . S
Eu935 C999 2.848 . S
N936 C928 1.362 . S
N936 Eu935 2.657 . S
N936 C937 1.334 . S
C937 N936 1.334 . S
C937 C939 1.413 . S
C937 H944 0.929 . S
C938 C926 1.392 . S
C938 C939 1.367 . S
C938 H946 0.930 . S
C939 C937 1.413 . S
C939 C938 1.367 . S
C939 H941 0.930 . S
H940 C933 0.930 . S
H941 C939 0.930 . S
H942 C930 0.930 . S
H943 C931 0.930 . S
H944 C937 0.929 . S
H945 C959 0.930 . S
H946 C938 0.930 . S
H947 C965 0.930 . S
H948 C956 0.929 . S
H949 C963 0.930 . S
H950 C927 0.931 . S
H951 C957 0.930 . S
H952 C990 0.930 . S
H953 C934 0.930 . S
H954 C989 0.931 . S
N955 Eu924 2.657 . S
N955 C956 1.334 . S
N955 C960 1.362 . S
C956 H948 0.929 . S
C956 N955 1.334 . S
C956 C959 1.413 . S
C957 H951 0.930 . S
C957 C958 1.392 . S
C957 C959 1.367 . S
C958 C957 1.392 . S
C958 C960 1.420 . S
C958 C990 1.423 . S
C959 H945 0.930 . S
C959 C956 1.413 . S
C959 C957 1.367 . S
C960 N955 1.362 . S
C960 C958 1.420 . S
C960 C964 1.429 . S
H961 C966 0.930 . S
N962 Eu924 2.609 . S
N962 C964 1.377 . S
N962 C965 1.321 . S
C963 H949 0.930 . S
C963 C965 1.400 . S
C963 C966 1.386 . S
C964 C960 1.429 . S
C964 N962 1.377 . S
C964 C967 1.411 . S
C965 H947 0.930 . S
C965 N962 1.321 . S
C965 C963 1.400 . S
C966 H961 0.930 . S
C966 C963 1.386 . S
C966 C967 1.395 . S
C967 C964 1.411 . S
C967 C966 1.395 . S
C967 C989 1.420 . S
O968 Eu924 2.558 . S
O968 C988 1.257 . S
O969 Eu924 2.612 . S
O969 Eu935 2.380 . S
O969 C980 1.276 . S
O970 Eu935 2.432 . S
O970 C987 1.264 . S
O971 Eu924 2.339 . S
O971 C987 1.254 . S
O972 Eu924 2.563 . S
O972 C980 1.235 . S
O973 Eu924 2.419 . S
O973 C988 1.249 . S
O974 Eu935 2.558 . S
O974 C999 1.257 . S
O975 Eu924 2.380 . S
O975 Eu935 2.612 . S
O975 C991 1.276 . S
O976 Eu924 2.432 . S
O976 C998 1.264 . S
O977 Eu935 2.339 . S
O977 C998 1.254 . S
O978 Eu935 2.563 . S
O978 C991 1.235 . S
O979 Eu935 2.419 . S
O979 C999 1.249 . S
C980 O969 1.276 . S
C980 O972 1.235 . S
C981 C983 1.393 . S
C981 C985 1.395 . S
C981 C988 1.492 . S
C982 C983 1.392 . S
C982 C984 1.386 . S
C983 C981 1.393 . S
C983 C982 1.392 . S
C983 H1000 0.930 . S
C984 C982 1.386 . S
C984 C986 1.395 . S
C984 H1001 0.930 . S
C985 C981 1.395 . S
C985 C986 1.379 . S
C985 H1002 0.930 . S
C986 C984 1.395 . S
C986 C985 1.379 . S
C986 H1003 0.930 . S
C987 O970 1.264 . S
C987 O971 1.254 . S
C988 Eu924 2.848 . S
C988 O968 1.257 . S
C988 O973 1.249 . S
C988 C981 1.492 . S
C989 H954 0.931 . S
C989 C967 1.420 . S
C989 C990 1.351 . S
C990 H952 0.930 . S
C990 C958 1.423 . S
C990 C989 1.351 . S
C991 O975 1.276 . S
C991 O978 1.235 . S
C992 C993 1.393 . S
C992 C996 1.395 . S
C992 C999 1.492 . S
C993 C992 1.393 . S
C993 C994 1.392 1_545 S
C993 H1004 0.930 . S
C994 C993 1.392 1_565 S
C994 C995 1.386 . S
C995 C994 1.386 . S
C995 C997 1.395 . S
C995 H1005 0.930 . S
C996 C992 1.395 . S
C996 C997 1.379 1_545 S
C996 H1006 0.930 . S
C997 C995 1.395 . S
C997 C996 1.379 1_565 S
C997 H1007 0.930 . S
C998 O976 1.264 . S
C998 O977 1.254 . S
C999 Eu935 2.848 . S
C999 O974 1.257 . S
C999 O979 1.249 . S
C999 C992 1.492 . S
H1000 C983 0.930 . S
H1001 C984 0.930 . S
H1002 C985 0.930 . S
H1003 C986 0.930 . S
H1004 C993 0.930 . S
H1005 C995 0.930 . S
H1006 C996 0.930 . S
H1007 C997 0.930 . S
H1008 C1016 0.929 . S
H1009 C1018 0.930 . S
H1010 C1020 0.930 . S
H1011 C1023 0.929 . S
H1012 C1026 0.930 1_565 S
H1013 C1028 0.960 1_545 S
H1014 C1028 0.960 . S
H1015 C1028 0.960 . S
C1016 H1008 0.929 . S
C1016 C1017 1.377 . S
C1016 C1018 1.384 . S
C1017 C1016 1.377 . S
C1017 C1023 1.390 . S
C1018 H1009 0.930 . S
C1018 C1016 1.384 . S
C1018 C1019 1.372 . S
C1019 C1018 1.372 . S
C1019 C1020 1.400 . S
C1019 C1024 1.490 . S
C1020 H1010 0.930 . S
C1020 C1019 1.400 . S
C1020 C1023 1.386 . S
H1021 C1037 0.930 . S
H1022 C1038 0.931 . S
C1023 H1011 0.929 . S
C1023 C1017 1.390 . S
C1023 C1020 1.386 . S
C1024 C1019 1.490 . S
C1024 C1026 1.395 1_565 S
C1024 C1027 1.403 1_565 S
H1025 C1031 0.930 . S
C1026 H1012 0.930 1_545 S
C1026 C1024 1.395 1_545 S
C1026 C1029 1.403 . S
C1027 C1024 1.403 1_545 S
C1027 C1028 1.524 1_545 S
C1027 C1031 1.400 . S
C1028 H1013 0.960 1_565 S
C1028 H1014 0.960 . S
C1028 H1015 0.960 . S
C1028 C1027 1.524 1_565 S
C1029 C1026 1.403 . S
C1029 C1030 1.392 . S
C1029 C1033 1.495 . S
C1030 C1029 1.392 . S
C1030 C1031 1.385 . S
C1030 C1032 1.478 . S
C1031 H1025 0.930 . S
C1031 C1027 1.400 . S
C1031 C1030 1.385 . S
C1032 C1030 1.478 . S
C1032 C1034 1.381 . S
C1032 C1038 1.383 . S
C1033 C1029 1.495 . S
C1033 H1039 0.959 . S
C1033 H1040 0.961 . S
C1033 H1041 0.960 . S
C1034 C1032 1.381 . S
C1034 C1035 1.394 . S
C1034 H1042 0.930 . S
C1035 C1034 1.394 . S
C1035 C1036 1.383 . S
C1035 H1043 0.929 . S
C1036 C1035 1.383 . S
C1036 C1037 1.377 . S
C1037 H1021 0.930 . S
C1037 C1036 1.377 . S
C1037 C1038 1.379 . S
C1038 H1022 0.931 . S
C1038 C1032 1.383 . S
C1038 C1037 1.379 . S
H1039 C1033 0.959 . S
H1040 C1033 0.961 . S
H1041 C1033 0.960 . S
H1042 C1034 0.930 . S
H1043 C1035 0.929 . S
H1044 C1052 0.929 . S
H1045 C1054 0.930 . S
H1046 C1056 0.930 . S
H1047 C1059 0.929 . S
H1048 C1062 0.930 . S
H1049 C1064 0.960 . S
H1050 C1064 0.960 . S
H1051 C1064 0.960 . S
C1052 H1044 0.929 . S
C1052 C1053 1.377 . S
C1052 C1054 1.384 . S
C1053 C1052 1.377 . S
C1053 C1059 1.390 . S
C1054 H1045 0.930 . S
C1054 C1052 1.384 . S
C1054 C1055 1.372 . S
C1055 C1054 1.372 . S
C1055 C1056 1.400 . S
C1055 C1060 1.490 . S
C1056 H1046 0.930 . S
C1056 C1055 1.400 . S
C1056 C1059 1.386 . S
H1057 C1073 0.930 . S
H1058 C1074 0.931 . S
C1059 H1047 0.929 . S
C1059 C1053 1.390 . S
C1059 C1056 1.386 . S
C1060 C1055 1.490 . S
C1060 C1062 1.395 . S
C1060 C1063 1.403 . S
H1061 C1067 0.930 . S
C1062 H1048 0.930 . S
C1062 C1060 1.395 . S
C1062 C1065 1.403 . S
C1063 C1060 1.403 . S
C1063 C1064 1.524 . S
C1063 C1067 1.400 . S
C1064 H1049 0.960 . S
C1064 H1050 0.960 . S
C1064 H1051 0.960 . S
C1064 C1063 1.524 . S
C1065 C1062 1.403 . S
C1065 C1066 1.392 . S
C1065 C1069 1.495 . S
C1066 C1065 1.392 . S
C1066 C1067 1.385 . S
C1066 C1068 1.478 . S
C1067 H1061 0.930 . S
C1067 C1063 1.400 . S
C1067 C1066 1.385 . S
C1068 C1066 1.478 . S
C1068 C1070 1.381 . S
C1068 C1074 1.383 . S
C1069 C1065 1.495 . S
C1069 H1075 0.959 . S
C1069 H1076 0.961 . S
C1069 H1077 0.960 . S
C1070 C1068 1.381 . S
C1070 C1071 1.394 . S
C1070 H1078 0.930 . S
C1071 C1070 1.394 . S
C1071 C1072 1.383 . S
C1071 H1079 0.929 . S
C1072 C1071 1.383 . S
C1072 C1073 1.377 . S
C1073 H1057 0.930 . S
C1073 C1072 1.377 . S
C1073 C1074 1.379 . S
C1074 H1058 0.931 . S
C1074 C1068 1.383 . S
C1074 C1073 1.379 . S
H1075 C1069 0.959 . S
H1076 C1069 0.961 . S
H1077 C1069 0.960 . S
H1078 C1070 0.930 . S
H1079 C1071 0.929 . S
H1080 C1088 0.929 . S
H1081 C1090 0.930 . S
H1082 C1092 0.930 . S
H1083 C1095 0.929 . S
H1084 C1098 0.930 . S
H1085 C1100 0.960 . S
H1086 C1100 0.960 . S
H1087 C1100 0.960 . S
C1088 H1080 0.929 . S
C1088 C1089 1.377 . S
C1088 C1090 1.384 . S
C1089 C1088 1.377 . S
C1089 C1095 1.390 . S
C1090 H1081 0.930 . S
C1090 C1088 1.384 . S
C1090 C1091 1.372 . S
C1091 C1090 1.372 . S
C1091 C1092 1.400 . S
C1091 C1096 1.490 . S
C1092 H1082 0.930 . S
C1092 C1091 1.400 . S
C1092 C1095 1.386 . S
H1093 C1109 0.930 . S
H1094 C1110 0.931 . S
C1095 H1083 0.929 . S
C1095 C1089 1.390 . S
C1095 C1092 1.386 . S
C1096 C1091 1.490 . S
C1096 C1098 1.395 . S
C1096 C1099 1.403 . S
H1097 C1103 0.930 . S
C1098 H1084 0.930 . S
C1098 C1096 1.395 . S
C1098 C1101 1.403 1_655 S
C1099 C1096 1.403 . S
C1099 C1100 1.524 . S
C1099 C1103 1.400 . S
C1100 H1085 0.960 . S
C1100 H1086 0.960 . S
C1100 H1087 0.960 . S
C1100 C1099 1.524 . S
C1101 C1098 1.403 1_455 S
C1101 C1102 1.392 . S
C1101 C1105 1.495 . S
C1102 C1101 1.392 . S
C1102 C1103 1.385 1_455 S
C1102 C1104 1.478 . S
C1103 H1097 0.930 . S
C1103 C1099 1.400 . S
C1103 C1102 1.385 1_655 S
C1104 C1102 1.478 . S
C1104 C1106 1.381 . S
C1104 C1110 1.383 . S
C1105 C1101 1.495 . S
C1105 H1111 0.959 . S
C1105 H1112 0.961 . S
C1105 H1113 0.960 . S
C1106 C1104 1.381 . S
C1106 C1107 1.394 . S
C1106 H1114 0.930 . S
C1107 C1106 1.394 . S
C1107 C1108 1.383 . S
C1107 H1115 0.929 . S
C1108 C1107 1.383 . S
C1108 C1109 1.377 . S
C1109 H1093 0.930 . S
C1109 C1108 1.377 . S
C1109 C1110 1.379 . S
C1110 H1094 0.931 . S
C1110 C1104 1.383 . S
C1110 C1109 1.379 . S
H1111 C1105 0.959 . S
H1112 C1105 0.961 . S
H1113 C1105 0.960 . S
H1114 C1106 0.930 . S
H1115 C1107 0.929 . S
H1116 C1124 0.929 . S
H1117 C1126 0.930 . S
H1118 C1128 0.930 . S
H1119 C1131 0.929 . S
H1120 C1134 0.930 . S
H1121 C1136 0.960 . S
H1122 C1136 0.960 . S
H1123 C1136 0.960 . S
C1124 H1116 0.929 . S
C1124 C1125 1.377 . S
C1124 C1126 1.384 . S
C1125 C1124 1.377 . S
C1125 C1131 1.390 . S
C1126 H1117 0.930 . S
C1126 C1124 1.384 . S
C1126 C1127 1.372 . S
C1127 C1126 1.372 . S
C1127 C1128 1.400 . S
C1127 C1132 1.490 . S
C1128 H1118 0.930 . S
C1128 C1127 1.400 . S
C1128 C1131 1.386 . S
H1129 C1145 0.930 . S
H1130 C1146 0.931 . S
C1131 H1119 0.929 . S
C1131 C1125 1.390 . S
C1131 C1128 1.386 . S
C1132 C1127 1.490 . S
C1132 C1134 1.395 . S
C1132 C1135 1.403 . S
H1133 C1139 0.930 . S
C1134 H1120 0.930 . S
C1134 C1132 1.395 . S
C1134 C1137 1.403 1_565 S
C1135 C1132 1.403 . S
C1135 C1136 1.524 . S
C1135 C1139 1.400 . S
C1136 H1121 0.960 . S
C1136 H1122 0.960 . S
C1136 H1123 0.960 . S
C1136 C1135 1.524 . S
C1137 C1134 1.403 1_545 S
C1137 C1138 1.392 . S
C1137 C1141 1.495 . S
C1138 C1137 1.392 . S
C1138 C1139 1.385 1_545 S
C1138 C1140 1.478 . S
C1139 H1133 0.930 . S
C1139 C1135 1.400 . S
C1139 C1138 1.385 1_565 S
C1140 C1138 1.478 . S
C1140 C1142 1.381 . S
C1140 C1146 1.383 . S
C1141 C1137 1.495 . S
C1141 H1147 0.959 . S
C1141 H1148 0.961 . S
C1141 H1149 0.960 . S
C1142 C1140 1.381 . S
C1142 C1143 1.394 . S
C1142 H1150 0.930 . S
C1143 C1142 1.394 . S
C1143 C1144 1.383 . S
C1143 H1151 0.929 . S
C1144 C1143 1.383 . S
C1144 C1145 1.377 . S
C1145 H1129 0.930 . S
C1145 C1144 1.377 . S
C1145 C1146 1.379 . S
C1146 H1130 0.931 . S
C1146 C1140 1.383 . S
C1146 C1145 1.379 . S
H1147 C1141 0.959 . S
H1148 C1141 0.961 . S
H1149 C1141 0.960 . S
H1150 C1142 0.930 . S
H1151 C1143 0.929 . S
H1152 C1160 0.929 . S
H1153 C1162 0.930 . S
H1154 C1164 0.930 . S
H1155 C1167 0.929 . S
H1156 C1170 0.930 . S
H1157 C1172 0.960 . S
H1158 C1172 0.960 . S
H1159 C1172 0.960 . S
C1160 H1152 0.929 . S
C1160 C1161 1.377 . S
C1160 C1162 1.384 . S
C1161 C1160 1.377 . S
C1161 C1167 1.390 . S
C1162 H1153 0.930 . S
C1162 C1160 1.384 . S
C1162 C1163 1.372 . S
C1163 C1162 1.372 . S
C1163 C1164 1.400 . S
C1163 C1168 1.490 . S
C1164 H1154 0.930 . S
C1164 C1163 1.400 . S
C1164 C1167 1.386 . S
H1165 C1181 0.930 . S
H1166 C1182 0.931 . S
C1167 H1155 0.929 . S
C1167 C1161 1.390 . S
C1167 C1164 1.386 . S
C1168 C1163 1.490 . S
C1168 C1170 1.395 . S
C1168 C1171 1.403 . S
H1169 C1175 0.930 . S
C1170 H1156 0.930 . S
C1170 C1168 1.395 . S
C1170 C1173 1.403 . S
C1171 C1168 1.403 . S
C1171 C1172 1.524 . S
C1171 C1175 1.400 . S
C1172 H1157 0.960 . S
C1172 H1158 0.960 . S
C1172 H1159 0.960 . S
C1172 C1171 1.524 . S
C1173 C1170 1.403 . S
C1173 C1174 1.392 . S
C1173 C1177 1.495 . S
C1174 C1173 1.392 . S
C1174 C1175 1.385 . S
C1174 C1176 1.478 . S
C1175 H1169 0.930 . S
C1175 C1171 1.400 . S
C1175 C1174 1.385 . S
C1176 C1174 1.478 . S
C1176 C1178 1.381 . S
C1176 C1182 1.383 . S
C1177 C1173 1.495 . S
C1177 H1183 0.959 . S
C1177 H1184 0.961 . S
C1177 H1185 0.960 . S
C1178 C1176 1.381 . S
C1178 C1179 1.394 . S
C1178 H1186 0.930 . S
C1179 C1178 1.394 . S
C1179 C1180 1.383 . S
C1179 H1187 0.929 . S
C1180 C1179 1.383 . S
C1180 C1181 1.377 . S
C1181 H1165 0.930 . S
C1181 C1180 1.377 . S
C1181 C1182 1.379 . S
C1182 H1166 0.931 . S
C1182 C1176 1.383 . S
C1182 C1181 1.379 . S
H1183 C1177 0.959 . S
H1184 C1177 0.961 . S
H1185 C1177 0.960 . S
H1186 C1178 0.930 . S
H1187 C1179 0.929 . S
H1188 C1196 0.929 . S
H1189 C1198 0.930 . S
H1190 C1200 0.930 . S
H1191 C1203 0.929 . S
H1192 C1206 0.930 . S
H1193 C1208 0.960 . S
H1194 C1208 0.960 . S
H1195 C1208 0.960 . S
C1196 H1188 0.929 . S
C1196 C1197 1.377 . S
C1196 C1198 1.384 . S
C1197 C1196 1.377 . S
C1197 C1203 1.390 . S
C1198 H1189 0.930 . S
C1198 C1196 1.384 . S
C1198 C1199 1.372 . S
C1199 C1198 1.372 . S
C1199 C1200 1.400 . S
C1199 C1204 1.490 . S
C1200 H1190 0.930 . S
C1200 C1199 1.400 . S
C1200 C1203 1.386 . S
H1201 C1217 0.930 . S
H1202 C1218 0.931 . S
C1203 H1191 0.929 . S
C1203 C1197 1.390 . S
C1203 C1200 1.386 . S
C1204 C1199 1.490 . S
C1204 C1206 1.395 1_655 S
C1204 C1207 1.403 . S
H1205 C1211 0.930 . S
C1206 H1192 0.930 . S
C1206 C1204 1.395 1_455 S
C1206 C1209 1.403 . S
C1207 C1204 1.403 . S
C1207 C1208 1.524 . S
C1207 C1211 1.400 1_655 S
C1208 H1193 0.960 . S
C1208 H1194 0.960 . S
C1208 H1195 0.960 . S
C1208 C1207 1.524 . S
C1209 C1206 1.403 . S
C1209 C1210 1.392 . S
C1209 C1213 1.495 . S
C1210 C1209 1.392 . S
C1210 C1211 1.385 . S
C1210 C1212 1.478 . S
C1211 H1205 0.930 . S
C1211 C1207 1.400 1_455 S
C1211 C1210 1.385 . S
C1212 C1210 1.478 . S
C1212 C1214 1.381 . S
C1212 C1218 1.383 . S
C1213 C1209 1.495 . S
C1213 H1219 0.959 . S
C1213 H1220 0.961 . S
C1213 H1221 0.960 . S
C1214 C1212 1.381 . S
C1214 C1215 1.394 . S
C1214 H1222 0.930 . S
C1215 C1214 1.394 . S
C1215 C1216 1.383 . S
C1215 H1223 0.929 . S
C1216 C1215 1.383 . S
C1216 C1217 1.377 . S
C1217 H1201 0.930 . S
C1217 C1216 1.377 . S
C1217 C1218 1.379 . S
C1218 H1202 0.931 . S
C1218 C1212 1.383 . S
C1218 C1217 1.379 . S
H1219 C1213 0.959 . S
H1220 C1213 0.961 . S
H1221 C1213 0.960 . S
H1222 C1214 0.930 . S
H1223 C1215 0.929 . S
H1224 C1232 0.929 . S
H1225 C1234 0.930 . S
H1226 C1236 0.930 . S
H1227 C1239 0.929 . S
H1228 C1242 0.930 . S
H1229 C1244 0.960 . S
H1230 C1244 0.960 . S
H1231 C1244 0.960 . S
C1232 H1224 0.929 . S
C1232 C1233 1.377 . S
C1232 C1234 1.384 . S
C1233 C1232 1.377 . S
C1233 C1239 1.390 . S
C1234 H1225 0.930 . S
C1234 C1232 1.384 . S
C1234 C1235 1.372 . S
C1235 C1234 1.372 . S
C1235 C1236 1.400 . S
C1235 C1240 1.490 . S
C1236 H1226 0.930 . S
C1236 C1235 1.400 . S
C1236 C1239 1.386 . S
H1237 C1253 0.930 . S
H1238 C1254 0.931 . S
C1239 H1227 0.929 . S
C1239 C1233 1.390 . S
C1239 C1236 1.386 . S
C1240 C1235 1.490 . S
C1240 C1242 1.395 1_455 S
C1240 C1243 1.403 1_455 S
H1241 C1247 0.930 . S
C1242 H1228 0.930 . S
C1242 C1240 1.395 1_655 S
C1242 C1245 1.403 . S
C1243 C1240 1.403 1_655 S
C1243 C1244 1.524 1_655 S
C1243 C1247 1.400 . S
C1244 H1229 0.960 . S
C1244 H1230 0.960 . S
C1244 H1231 0.960 . S
C1244 C1243 1.524 1_455 S
C1245 C1242 1.403 . S
C1245 C1246 1.392 . S
C1245 C1249 1.495 . S
C1246 C1245 1.392 . S
C1246 C1247 1.385 . S
C1246 C1248 1.478 . S
C1247 H1241 0.930 . S
C1247 C1243 1.400 . S
C1247 C1246 1.385 . S
C1248 C1246 1.478 . S
C1248 C1250 1.381 . S
C1248 C1254 1.383 . S
C1249 C1245 1.495 . S
C1249 H1255 0.959 . S
C1249 H1256 0.961 . S
C1249 H1257 0.960 . S
C1250 C1248 1.381 . S
C1250 C1251 1.394 . S
C1250 H1258 0.930 . S
C1251 C1250 1.394 . S
C1251 C1252 1.383 . S
C1251 H1259 0.929 . S
C1252 C1251 1.383 . S
C1252 C1253 1.377 . S
C1253 H1237 0.930 . S
C1253 C1252 1.377 . S
C1253 C1254 1.379 . S
C1254 H1238 0.931 . S
C1254 C1248 1.383 . S
C1254 C1253 1.379 . S
H1255 C1249 0.959 . S
H1256 C1249 0.961 . S
H1257 C1249 0.960 . S
H1258 C1250 0.930 . S
H1259 C1251 0.929 . S
H1260 C1268 0.929 . S
H1261 C1270 0.930 . S
H1262 C1272 0.930 . S
H1263 C1275 0.929 . S
H1264 C1278 0.930 . S
H1265 C1280 0.960 . S
H1266 C1280 0.960 . S
H1267 C1280 0.960 . S
C1268 H1260 0.929 . S
C1268 C1269 1.377 . S
C1268 C1270 1.384 . S
C1269 C1268 1.377 . S
C1269 C1275 1.390 . S
C1270 H1261 0.930 . S
C1270 C1268 1.384 . S
C1270 C1271 1.372 . S
C1271 C1270 1.372 . S
C1271 C1272 1.400 . S
C1271 C1276 1.490 . S
C1272 H1262 0.930 . S
C1272 C1271 1.400 . S
C1272 C1275 1.386 . S
H1273 C1289 0.930 . S
H1274 C1290 0.931 . S
C1275 H1263 0.929 . S
C1275 C1269 1.390 . S
C1275 C1272 1.386 . S
C1276 C1271 1.490 . S
C1276 C1278 1.395 . S
C1276 C1279 1.403 . S
H1277 C1283 0.930 . S
C1278 H1264 0.930 . S
C1278 C1276 1.395 . S
C1278 C1281 1.403 . S
C1279 C1276 1.403 . S
C1279 C1280 1.524 . S
C1279 C1283 1.400 1_565 S
C1280 H1265 0.960 . S
C1280 H1266 0.960 . S
C1280 H1267 0.960 . S
C1280 C1279 1.524 . S
C1281 C1278 1.403 . S
C1281 C1282 1.392 1_565 S
C1281 C1285 1.495 . S
C1282 C1281 1.392 1_545 S
C1282 C1283 1.385 . S
C1282 C1284 1.478 . S
C1283 H1277 0.930 . S
C1283 C1279 1.400 1_545 S
C1283 C1282 1.385 . S
C1284 C1282 1.478 . S
C1284 C1286 1.381 . S
C1284 C1290 1.383 . S
C1285 C1281 1.495 . S
C1285 H1291 0.959 . S
C1285 H1292 0.961 . S
C1285 H1293 0.960 1_565 S
C1286 C1284 1.381 . S
C1286 C1287 1.394 . S
C1286 H1294 0.930 . S
C1287 C1286 1.394 . S
C1287 C1288 1.383 . S
C1287 H1295 0.929 . S
C1288 C1287 1.383 . S
C1288 C1289 1.377 . S
C1289 H1273 0.930 . S
C1289 C1288 1.377 . S
C1289 C1290 1.379 . S
C1290 H1274 0.931 . S
C1290 C1284 1.383 . S
C1290 C1289 1.379 . S
H1291 C1285 0.959 . S
H1292 C1285 0.961 . S
H1293 C1285 0.960 1_545 S
H1294 C1286 0.930 . S
H1295 C1287 0.929 . S
H1296 C1304 0.929 . S
H1297 C1306 0.930 . S
H1298 C1308 0.930 . S
H1299 C1311 0.929 . S
H1300 C1314 0.930 . S
H1301 C1316 0.960 . S
H1302 C1316 0.960 . S
H1303 C1316 0.960 . S
C1304 H1296 0.929 . S
C1304 C1305 1.377 . S
C1304 C1306 1.384 . S
C1305 C1304 1.377 . S
C1305 C1311 1.390 . S
C1306 H1297 0.930 . S
C1306 C1304 1.384 . S
C1306 C1307 1.372 . S
C1307 C1306 1.372 . S
C1307 C1308 1.400 . S
C1307 C1312 1.490 . S
C1308 H1298 0.930 . S
C1308 C1307 1.400 . S
C1308 C1311 1.386 . S
H1309 C1325 0.930 . S
H1310 C1326 0.931 . S
C1311 H1299 0.929 . S
C1311 C1305 1.390 . S
C1311 C1308 1.386 . S
C1312 C1307 1.490 . S
C1312 C1314 1.395 . S
C1312 C1315 1.403 . S
H1313 C1319 0.930 . S
C1314 H1300 0.930 . S
C1314 C1312 1.395 . S
C1314 C1317 1.403 . S
C1315 C1312 1.403 . S
C1315 C1316 1.524 . S
C1315 C1319 1.400 . S
C1316 H1301 0.960 . S
C1316 H1302 0.960 . S
C1316 H1303 0.960 . S
C1316 C1315 1.524 . S
C1317 C1314 1.403 . S
C1317 C1318 1.392 . S
C1317 C1321 1.495 . S
C1318 C1317 1.392 . S
C1318 C1319 1.385 . S
C1318 C1320 1.478 . S
C1319 H1313 0.930 . S
C1319 C1315 1.400 . S
C1319 C1318 1.385 . S
C1320 C1318 1.478 . S
C1320 C1322 1.381 . S
C1320 C1326 1.383 . S
C1321 C1317 1.495 . S
C1321 H1327 0.959 . S
C1321 H1328 0.961 . S
C1321 H1329 0.960 . S
C1322 C1320 1.381 . S
C1322 C1323 1.394 . S
C1322 H1330 0.930 . S
C1323 C1322 1.394 . S
C1323 C1324 1.383 . S
C1323 H1331 0.929 . S
C1324 C1323 1.383 . S
C1324 C1325 1.377 . S
C1325 H1309 0.930 . S
C1325 C1324 1.377 . S
C1325 C1326 1.379 . S
C1326 H1310 0.931 . S
C1326 C1320 1.383 . S
C1326 C1325 1.379 . S
H1327 C1321 0.959 . S
H1328 C1321 0.961 . S
H1329 C1321 0.960 . S
H1330 C1322 0.930 . S
H1331 C1323 0.929 . S
H1332 C1340 0.929 . S
H1333 C1342 0.930 . S
H1334 C1344 0.930 . S
H1335 C1347 0.929 . S
H1336 C1350 0.930 . S
H1337 C1352 0.960 . S
H1338 C1352 0.960 . S
H1339 C1352 0.960 . S
C1340 H1332 0.929 . S
C1340 C1341 1.377 . S
C1340 C1342 1.384 . S
C1341 C1340 1.377 . S
C1341 C1347 1.390 . S
C1342 H1333 0.930 . S
C1342 C1340 1.384 . S
C1342 C1343 1.372 . S
C1343 C1342 1.372 . S
C1343 C1344 1.400 . S
C1343 C1348 1.490 . S
C1344 H1334 0.930 . S
C1344 C1343 1.400 . S
C1344 C1347 1.386 . S
H1345 C1361 0.930 . S
H1346 C1362 0.931 . S
C1347 H1335 0.929 . S
C1347 C1341 1.390 . S
C1347 C1344 1.386 . S
C1348 C1343 1.490 . S
C1348 C1350 1.395 . S
C1348 C1351 1.403 . S
H1349 C1355 0.930 . S
C1350 H1336 0.930 . S
C1350 C1348 1.395 . S
C1350 C1353 1.403 1_455 S
C1351 C1348 1.403 . S
C1351 C1352 1.524 . S
C1351 C1355 1.400 . S
C1352 H1337 0.960 . S
C1352 H1338 0.960 . S
C1352 H1339 0.960 . S
C1352 C1351 1.524 . S
C1353 C1350 1.403 1_655 S
C1353 C1354 1.392 . S
C1353 C1357 1.495 . S
C1354 C1353 1.392 . S
C1354 C1355 1.385 1_655 S
C1354 C1356 1.478 . S
C1355 H1349 0.930 . S
C1355 C1351 1.400 . S
C1355 C1354 1.385 1_455 S
C1356 C1354 1.478 . S
C1356 C1358 1.381 . S
C1356 C1362 1.383 . S
C1357 C1353 1.495 . S
C1357 H1363 0.959 . S
C1357 H1364 0.961 . S
C1357 H1365 0.960 . S
C1358 C1356 1.381 . S
C1358 C1359 1.394 . S
C1358 H1366 0.930 . S
C1359 C1358 1.394 . S
C1359 C1360 1.383 . S
C1359 H1367 0.929 . S
C1360 C1359 1.383 . S
C1360 C1361 1.377 . S
C1361 H1345 0.930 . S
C1361 C1360 1.377 . S
C1361 C1362 1.379 . S
C1362 H1346 0.931 . S
C1362 C1356 1.383 . S
C1362 C1361 1.379 . S
H1363 C1357 0.959 . S
H1364 C1357 0.961 . S
H1365 C1357 0.960 . S
H1366 C1358 0.930 . S
H1367 C1359 0.929 . S
H1368 C1376 0.929 . S
H1369 C1378 0.930 . S
H1370 C1380 0.930 . S
H1371 C1383 0.929 . S
H1372 C1386 0.930 . S
H1373 C1388 0.960 . S
H1374 C1388 0.960 . S
H1375 C1388 0.960 . S
C1376 H1368 0.929 . S
C1376 C1377 1.377 . S
C1376 C1378 1.384 . S
C1377 C1376 1.377 . S
C1377 C1383 1.390 . S
C1378 H1369 0.930 . S
C1378 C1376 1.384 . S
C1378 C1379 1.372 . S
C1379 C1378 1.372 . S
C1379 C1380 1.400 . S
C1379 C1384 1.490 . S
C1380 H1370 0.930 . S
C1380 C1379 1.400 . S
C1380 C1383 1.386 . S
H1381 C1397 0.930 . S
H1382 C1398 0.931 . S
C1383 H1371 0.929 . S
C1383 C1377 1.390 . S
C1383 C1380 1.386 . S
C1384 C1379 1.490 . S
C1384 C1386 1.395 . S
C1384 C1387 1.403 . S
H1385 C1391 0.930 . S
C1386 H1372 0.930 . S
C1386 C1384 1.395 . S
C1386 C1389 1.403 . S
C1387 C1384 1.403 . S
C1387 C1388 1.524 . S
C1387 C1391 1.400 1_545 S
C1388 H1373 0.960 . S
C1388 H1374 0.960 . S
C1388 H1375 0.960 . S
C1388 C1387 1.524 . S
C1389 C1386 1.403 . S
C1389 C1390 1.392 1_545 S
C1389 C1393 1.495 . S
C1390 C1389 1.392 1_565 S
C1390 C1391 1.385 . S
C1390 C1392 1.478 . S
C1391 H1385 0.930 . S
C1391 C1387 1.400 1_565 S
C1391 C1390 1.385 . S
C1392 C1390 1.478 . S
C1392 C1394 1.381 . S
C1392 C1398 1.383 . S
C1393 C1389 1.495 . S
C1393 H1399 0.959 . S
C1393 H1400 0.961 . S
C1393 H1401 0.960 . S
C1394 C1392 1.381 . S
C1394 C1395 1.394 . S
C1394 H1402 0.930 . S
C1395 C1394 1.394 . S
C1395 C1396 1.383 . S
C1395 H1403 0.929 . S
C1396 C1395 1.383 . S
C1396 C1397 1.377 . S
C1397 H1381 0.930 . S
C1397 C1396 1.377 . S
C1397 C1398 1.379 . S
C1398 H1382 0.931 . S
C1398 C1392 1.383 . S
C1398 C1397 1.379 . S
H1399 C1393 0.959 . S
H1400 C1393 0.961 . S
H1401 C1393 0.960 . S
H1402 C1394 0.930 . S
H1403 C1395 0.929 . S
H1404 C1412 0.929 . S
H1405 C1414 0.930 . S
H1406 C1416 0.930 . S
H1407 C1419 0.929 . S
H1408 C1422 0.930 . S
H1409 C1424 0.960 . S
H1410 C1424 0.960 . S
H1411 C1424 0.960 . S
C1412 H1404 0.929 . S
C1412 C1413 1.377 . S
C1412 C1414 1.384 . S
C1413 C1412 1.377 . S
C1413 C1419 1.390 . S
C1414 H1405 0.930 . S
C1414 C1412 1.384 . S
C1414 C1415 1.372 . S
C1415 C1414 1.372 . S
C1415 C1416 1.400 . S
C1415 C1420 1.490 . S
C1416 H1406 0.930 . S
C1416 C1415 1.400 . S
C1416 C1419 1.386 . S
H1417 C1433 0.930 . S
H1418 C1434 0.931 . S
C1419 H1407 0.929 . S
C1419 C1413 1.390 . S
C1419 C1416 1.386 . S
C1420 C1415 1.490 . S
C1420 C1422 1.395 . S
C1420 C1423 1.403 . S
H1421 C1427 0.930 . S
C1422 H1408 0.930 . S
C1422 C1420 1.395 . S
C1422 C1425 1.403 . S
C1423 C1420 1.403 . S
C1423 C1424 1.524 . S
C1423 C1427 1.400 . S
C1424 H1409 0.960 . S
C1424 H1410 0.960 . S
C1424 H1411 0.960 . S
C1424 C1423 1.524 . S
C1425 C1422 1.403 . S
C1425 C1426 1.392 . S
C1425 C1429 1.495 . S
C1426 C1425 1.392 . S
C1426 C1427 1.385 . S
C1426 C1428 1.478 . S
C1427 H1421 0.930 . S
C1427 C1423 1.400 . S
C1427 C1426 1.385 . S
C1428 C1426 1.478 . S
C1428 C1430 1.381 . S
C1428 C1434 1.383 . S
C1429 C1425 1.495 . S
C1429 H1435 0.959 . S
C1429 H1436 0.961 . S
C1429 H1437 0.960 . S
C1430 C1428 1.381 . S
C1430 C1431 1.394 . S
C1430 H1438 0.930 . S
C1431 C1430 1.394 . S
C1431 C1432 1.383 . S
C1431 H1439 0.929 . S
C1432 C1431 1.383 . S
C1432 C1433 1.377 . S
C1433 H1417 0.930 . S
C1433 C1432 1.377 . S
C1433 C1434 1.379 . S
C1434 H1418 0.931 . S
C1434 C1428 1.383 . S
C1434 C1433 1.379 . S
H1435 C1429 0.959 . S
H1436 C1429 0.961 . S
H1437 C1429 0.960 . S
H1438 C1430 0.930 . S
H1439 C1431 0.929 . S
H1440 C1448 0.929 . S
H1441 C1450 0.930 . S
H1442 C1452 0.930 . S
H1443 C1455 0.929 . S
H1444 C1458 0.930 . S
H1445 C1460 0.960 . S
H1446 C1460 0.960 . S
H1447 C1460 0.960 . S
C1448 H1440 0.929 . S
C1448 C1449 1.377 . S
C1448 C1450 1.384 . S
C1449 C1448 1.377 . S
C1449 C1455 1.390 . S
C1450 H1441 0.930 . S
C1450 C1448 1.384 . S
C1450 C1451 1.372 . S
C1451 C1450 1.372 . S
C1451 C1452 1.400 . S
C1451 C1456 1.490 . S
C1452 H1442 0.930 . S
C1452 C1451 1.400 . S
C1452 C1455 1.386 . S
H1453 C1469 0.930 . S
H1454 C1470 0.931 . S
C1455 H1443 0.929 . S
C1455 C1449 1.390 . S
C1455 C1452 1.386 . S
C1456 C1451 1.490 . S
C1456 C1458 1.395 . S
C1456 C1459 1.403 . S
H1457 C1463 0.930 . S
C1458 H1444 0.930 . S
C1458 C1456 1.395 . S
C1458 C1461 1.403 . S
C1459 C1456 1.403 . S
C1459 C1460 1.524 . S
C1459 C1463 1.400 . S
C1460 H1445 0.960 . S
C1460 H1446 0.960 . S
C1460 H1447 0.960 . S
C1460 C1459 1.524 . S
C1461 C1458 1.403 . S
C1461 C1462 1.392 . S
C1461 C1465 1.495 . S
C1462 C1461 1.392 . S
C1462 C1463 1.385 . S
C1462 C1464 1.478 . S
C1463 H1457 0.930 . S
C1463 C1459 1.400 . S
C1463 C1462 1.385 . S
C1464 C1462 1.478 . S
C1464 C1466 1.381 . S
C1464 C1470 1.383 . S
C1465 C1461 1.495 . S
C1465 H1471 0.959 . S
C1465 H1472 0.961 . S
C1465 H1473 0.960 . S
C1466 C1464 1.381 . S
C1466 C1467 1.394 . S
C1466 H1474 0.930 . S
C1467 C1466 1.394 . S
C1467 C1468 1.383 . S
C1467 H1475 0.929 . S
C1468 C1467 1.383 . S
C1468 C1469 1.377 . S
C1469 H1453 0.930 . S
C1469 C1468 1.377 . S
C1469 C1470 1.379 . S
C1470 H1454 0.931 . S
C1470 C1464 1.383 . S
C1470 C1469 1.379 . S
H1471 C1465 0.959 . S
H1472 C1465 0.961 . S
H1473 C1465 0.960 . S
H1474 C1466 0.930 . S
H1475 C1467 0.929 . S
H1476 C1484 0.929 . S
H1477 C1486 0.930 . S
H1478 C1488 0.930 . S
H1479 C1491 0.929 . S
H1480 C1494 0.930 . S
H1481 C1496 0.960 . S
H1482 C1496 0.960 . S
H1483 C1496 0.960 . S
C1484 H1476 0.929 . S
C1484 C1485 1.377 . S
C1484 C1486 1.384 . S
C1485 C1484 1.377 . S
C1485 C1491 1.390 . S
C1486 H1477 0.930 . S
C1486 C1484 1.384 . S
C1486 C1487 1.372 . S
C1487 C1486 1.372 . S
C1487 C1488 1.400 . S
C1487 C1492 1.490 . S
C1488 H1478 0.930 . S
C1488 C1487 1.400 . S
C1488 C1491 1.386 . S
H1489 C1505 0.930 . S
H1490 C1506 0.931 . S
C1491 H1479 0.929 . S
C1491 C1485 1.390 . S
C1491 C1488 1.386 . S
C1492 C1487 1.490 . S
C1492 C1494 1.395 . S
C1492 C1495 1.403 . S
H1493 C1499 0.930 . S
C1494 H1480 0.930 . S
C1494 C1492 1.395 . S
C1494 C1497 1.403 . S
C1495 C1492 1.403 . S
C1495 C1496 1.524 . S
C1495 C1499 1.400 . S
C1496 H1481 0.960 . S
C1496 H1482 0.960 . S
C1496 H1483 0.960 . S
C1496 C1495 1.524 . S
C1497 C1494 1.403 . S
C1497 C1498 1.392 . S
C1497 C1501 1.495 . S
C1498 C1497 1.392 . S
C1498 C1499 1.385 . S
C1498 C1500 1.478 . S
C1499 H1493 0.930 . S
C1499 C1495 1.400 . S
C1499 C1498 1.385 . S
C1500 C1498 1.478 . S
C1500 C1502 1.381 . S
C1500 C1506 1.383 . S
C1501 C1497 1.495 . S
C1501 H1507 0.959 . S
C1501 H1508 0.961 . S
C1501 H1509 0.960 . S
C1502 C1500 1.381 . S
C1502 C1503 1.394 . S
C1502 H1510 0.930 . S
C1503 C1502 1.394 . S
C1503 C1504 1.383 . S
C1503 H1511 0.929 . S
C1504 C1503 1.383 . S
C1504 C1505 1.377 . S
C1505 H1489 0.930 . S
C1505 C1504 1.377 . S
C1505 C1506 1.379 . S
C1506 H1490 0.931 . S
C1506 C1500 1.383 . S
C1506 C1505 1.379 . S
H1507 C1501 0.959 . S
H1508 C1501 0.961 . S
H1509 C1501 0.960 . S
H1510 C1502 0.930 . S
H1511 C1503 0.929 . S
H1512 C1520 0.929 . S
H1513 C1522 0.930 . S
H1514 C1524 0.930 . S
H1515 C1527 0.929 . S
H1516 C1530 0.930 . S
H1517 C1532 0.960 . S
H1518 C1532 0.960 . S
H1519 C1532 0.960 . S
C1520 H1512 0.929 . S
C1520 C1521 1.377 . S
C1520 C1522 1.384 . S
C1521 C1520 1.377 . S
C1521 C1527 1.390 . S
C1522 H1513 0.930 . S
C1522 C1520 1.384 . S
C1522 C1523 1.372 . S
C1523 C1522 1.372 . S
C1523 C1524 1.400 . S
C1523 C1528 1.490 . S
C1524 H1514 0.930 . S
C1524 C1523 1.400 . S
C1524 C1527 1.386 . S
H1525 C1541 0.930 . S
H1526 C1542 0.931 . S
C1527 H1515 0.929 . S
C1527 C1521 1.390 . S
C1527 C1524 1.386 . S
C1528 C1523 1.490 . S
C1528 C1530 1.395 . S
C1528 C1531 1.403 . S
H1529 C1535 0.930 . S
C1530 H1516 0.930 . S
C1530 C1528 1.395 . S
C1530 C1533 1.403 . S
C1531 C1528 1.403 . S
C1531 C1532 1.524 . S
C1531 C1535 1.400 . S
C1532 H1517 0.960 . S
C1532 H1518 0.960 . S
C1532 H1519 0.960 . S
C1532 C1531 1.524 . S
C1533 C1530 1.403 . S
C1533 C1534 1.392 . S
C1533 C1537 1.495 . S
C1534 C1533 1.392 . S
C1534 C1535 1.385 . S
C1534 C1536 1.478 . S
C1535 H1529 0.930 . S
C1535 C1531 1.400 . S
C1535 C1534 1.385 . S
C1536 C1534 1.478 . S
C1536 C1538 1.381 . S
C1536 C1542 1.383 . S
C1537 C1533 1.495 . S
C1537 H1543 0.959 . S
C1537 H1544 0.961 . S
C1537 H1545 0.960 . S
C1538 C1536 1.381 . S
C1538 C1539 1.394 . S
C1538 H1546 0.930 . S
C1539 C1538 1.394 . S
C1539 C1540 1.383 . S
C1539 H1547 0.929 . S
C1540 C1539 1.383 . S
C1540 C1541 1.377 . S
C1541 H1525 0.930 . S
C1541 C1540 1.377 . S
C1541 C1542 1.379 . S
C1542 H1526 0.931 . S
C1542 C1536 1.383 . S
C1542 C1541 1.379 . S
H1543 C1537 0.959 . S
H1544 C1537 0.961 . S
H1545 C1537 0.960 . S
H1546 C1538 0.930 . S
H1547 C1539 0.929 . S
H1548 C1556 0.929 . S
H1549 C1558 0.930 . S
H1550 C1560 0.930 . S
H1551 C1563 0.929 . S
H1552 C1566 0.930 . S
H1553 C1568 0.960 . S
H1554 C1568 0.960 . S
H1555 C1568 0.960 . S
C1556 H1548 0.929 . S
C1556 C1557 1.377 . S
C1556 C1558 1.384 . S
C1557 C1556 1.377 . S
C1557 C1563 1.390 . S
C1558 H1549 0.930 . S
C1558 C1556 1.384 . S
C1558 C1559 1.372 . S
C1559 C1558 1.372 . S
C1559 C1560 1.400 . S
C1559 C1564 1.490 . S
C1560 H1550 0.930 . S
C1560 C1559 1.400 . S
C1560 C1563 1.386 . S
H1561 C1577 0.930 . S
H1562 C1578 0.931 . S
C1563 H1551 0.929 . S
C1563 C1557 1.390 . S
C1563 C1560 1.386 . S
C1564 C1559 1.490 . S
C1564 C1566 1.395 . S
C1564 C1567 1.403 . S
H1565 C1571 0.930 . S
C1566 H1552 0.930 . S
C1566 C1564 1.395 . S
C1566 C1569 1.403 . S
C1567 C1564 1.403 . S
C1567 C1568 1.524 . S
C1567 C1571 1.400 . S
C1568 H1553 0.960 . S
C1568 H1554 0.960 . S
C1568 H1555 0.960 . S
C1568 C1567 1.524 . S
C1569 C1566 1.403 . S
C1569 C1570 1.392 . S
C1569 C1573 1.495 . S
C1570 C1569 1.392 . S
C1570 C1571 1.385 . S
C1570 C1572 1.478 . S
C1571 H1565 0.930 . S
C1571 C1567 1.400 . S
C1571 C1570 1.385 . S
C1572 C1570 1.478 . S
C1572 C1574 1.381 . S
C1572 C1578 1.383 . S
C1573 C1569 1.495 . S
C1573 H1579 0.959 . S
C1573 H1580 0.961 . S
C1573 H1581 0.960 . S
C1574 C1572 1.381 . S
C1574 C1575 1.394 . S
C1574 H1582 0.930 . S
C1575 C1574 1.394 . S
C1575 C1576 1.383 . S
C1575 H1583 0.929 . S
C1576 C1575 1.383 . S
C1576 C1577 1.377 . S
C1577 H1561 0.930 . S
C1577 C1576 1.377 . S
C1577 C1578 1.379 . S
C1578 H1562 0.931 . S
C1578 C1572 1.383 . S
C1578 C1577 1.379 . S
H1579 C1573 0.959 . S
H1580 C1573 0.961 . S
H1581 C1573 0.960 . S
H1582 C1574 0.930 . S
H1583 C1575 0.929 . S
H1584 C1592 0.929 . S
H1585 C1594 0.930 . S
H1586 C1596 0.930 . S
H1587 C1599 0.929 . S
H1588 C1602 0.930 . S
H1589 C1604 0.960 . S
H1590 C1604 0.960 . S
H1591 C1604 0.960 . S
C1592 H1584 0.929 . S
C1592 C1593 1.377 . S
C1592 C1594 1.384 . S
C1593 C1592 1.377 . S
C1593 C1599 1.390 . S
C1594 H1585 0.930 . S
C1594 C1592 1.384 . S
C1594 C1595 1.372 . S
C1595 C1594 1.372 . S
C1595 C1596 1.400 . S
C1595 C1600 1.490 . S
C1596 H1586 0.930 . S
C1596 C1595 1.400 . S
C1596 C1599 1.386 . S
H1597 C1613 0.930 . S
H1598 C1614 0.931 . S
C1599 H1587 0.929 . S
C1599 C1593 1.390 . S
C1599 C1596 1.386 . S
C1600 C1595 1.490 . S
C1600 C1602 1.395 . S
C1600 C1603 1.403 . S
H1601 C1607 0.930 . S
C1602 H1588 0.930 . S
C1602 C1600 1.395 . S
C1602 C1605 1.403 . S
C1603 C1600 1.403 . S
C1603 C1604 1.524 . S
C1603 C1607 1.400 . S
C1604 H1589 0.960 . S
C1604 H1590 0.960 . S
C1604 H1591 0.960 . S
C1604 C1603 1.524 . S
C1605 C1602 1.403 . S
C1605 C1606 1.392 . S
C1605 C1609 1.495 . S
C1606 C1605 1.392 . S
C1606 C1607 1.385 . S
C1606 C1608 1.478 . S
C1607 H1601 0.930 . S
C1607 C1603 1.400 . S
C1607 C1606 1.385 . S
C1608 C1606 1.478 . S
C1608 C1610 1.381 . S
C1608 C1614 1.383 . S
C1609 C1605 1.495 . S
C1609 H1615 0.959 . S
C1609 H1616 0.961 . S
C1609 H1617 0.960 . S
C1610 C1608 1.381 . S
C1610 C1611 1.394 . S
C1610 H1618 0.930 . S
C1611 C1610 1.394 . S
C1611 C1612 1.383 . S
C1611 H1619 0.929 . S
C1612 C1611 1.383 . S
C1612 C1613 1.377 . S
C1613 H1597 0.930 . S
C1613 C1612 1.377 . S
C1613 C1614 1.379 . S
C1614 H1598 0.931 . S
C1614 C1608 1.383 . S
C1614 C1613 1.379 . S
H1615 C1609 0.959 . S
H1616 C1609 0.961 . S
H1617 C1609 0.960 . S
H1618 C1610 0.930 . S
H1619 C1611 0.929 . S
H1620 C1628 0.929 . S
H1621 C1630 0.930 . S
H1622 C1632 0.930 . S
H1623 C1635 0.929 . S
H1624 C1638 0.930 . S
H1625 C1640 0.960 . S
H1626 C1640 0.960 . S
H1627 C1640 0.960 . S
C1628 H1620 0.929 . S
C1628 C1629 1.377 . S
C1628 C1630 1.384 . S
C1629 C1628 1.377 . S
C1629 C1635 1.390 . S
C1630 H1621 0.930 . S
C1630 C1628 1.384 . S
C1630 C1631 1.372 . S
C1631 C1630 1.372 . S
C1631 C1632 1.400 . S
C1631 C1636 1.490 . S
C1632 H1622 0.930 . S
C1632 C1631 1.400 . S
C1632 C1635 1.386 . S
H1633 C1649 0.930 . S
H1634 C1650 0.931 . S
C1635 H1623 0.929 . S
C1635 C1629 1.390 . S
C1635 C1632 1.386 . S
C1636 C1631 1.490 . S
C1636 C1638 1.395 . S
C1636 C1639 1.403 . S
H1637 C1643 0.930 . S
C1638 H1624 0.930 . S
C1638 C1636 1.395 . S
C1638 C1641 1.403 . S
C1639 C1636 1.403 . S
C1639 C1640 1.524 . S
C1639 C1643 1.400 . S
C1640 H1625 0.960 . S
C1640 H1626 0.960 . S
C1640 H1627 0.960 . S
C1640 C1639 1.524 . S
C1641 C1638 1.403 . S
C1641 C1642 1.392 . S
C1641 C1645 1.495 . S
C1642 C1641 1.392 . S
C1642 C1643 1.385 . S
C1642 C1644 1.478 . S
C1643 H1637 0.930 . S
C1643 C1639 1.400 . S
C1643 C1642 1.385 . S
C1644 C1642 1.478 . S
C1644 C1646 1.381 . S
C1644 C1650 1.383 . S
C1645 C1641 1.495 . S
C1645 H1651 0.959 . S
C1645 H1652 0.961 . S
C1645 H1653 0.960 . S
C1646 C1644 1.381 . S
C1646 C1647 1.394 . S
C1646 H1654 0.930 . S
C1647 C1646 1.394 . S
C1647 C1648 1.383 . S
C1647 H1655 0.929 . S
C1648 C1647 1.383 . S
C1648 C1649 1.377 . S
C1649 H1633 0.930 . S
C1649 C1648 1.377 . S
C1649 C1650 1.379 . S
C1650 H1634 0.931 . S
C1650 C1644 1.383 . S
C1650 C1649 1.379 . S
H1651 C1645 0.959 . S
H1652 C1645 0.961 . S
H1653 C1645 0.960 . S
H1654 C1646 0.930 . S
H1655 C1647 0.929 . S
H1656 C1664 0.929 . S
H1657 C1666 0.930 . S
H1658 C1668 0.930 . S
H1659 C1671 0.929 . S
H1660 C1674 0.930 . S
H1661 C1676 0.960 . S
H1662 C1676 0.960 . S
H1663 C1676 0.960 . S
C1664 H1656 0.929 . S
C1664 C1665 1.377 . S
C1664 C1666 1.384 . S
C1665 C1664 1.377 . S
C1665 C1671 1.390 . S
C1666 H1657 0.930 . S
C1666 C1664 1.384 . S
C1666 C1667 1.372 . S
C1667 C1666 1.372 . S
C1667 C1668 1.400 . S
C1667 C1672 1.490 . S
C1668 H1658 0.930 . S
C1668 C1667 1.400 . S
C1668 C1671 1.386 . S
H1669 C1685 0.930 . S
H1670 C1686 0.931 . S
C1671 H1659 0.929 . S
C1671 C1665 1.390 . S
C1671 C1668 1.386 . S
C1672 C1667 1.490 . S
C1672 C1674 1.395 . S
C1672 C1675 1.403 . S
H1673 C1679 0.930 . S
C1674 H1660 0.930 . S
C1674 C1672 1.395 . S
C1674 C1677 1.403 . S
C1675 C1672 1.403 . S
C1675 C1676 1.524 . S
C1675 C1679 1.400 . S
C1676 H1661 0.960 . S
C1676 H1662 0.960 . S
C1676 H1663 0.960 . S
C1676 C1675 1.524 . S
C1677 C1674 1.403 . S
C1677 C1678 1.392 . S
C1677 C1681 1.495 . S
C1678 C1677 1.392 . S
C1678 C1679 1.385 . S
C1678 C1680 1.478 . S
C1679 H1673 0.930 . S
C1679 C1675 1.400 . S
C1679 C1678 1.385 . S
C1680 C1678 1.478 . S
C1680 C1682 1.381 . S
C1680 C1686 1.383 . S
C1681 C1677 1.495 . S
C1681 H1687 0.959 . S
C1681 H1688 0.961 . S
C1681 H1689 0.960 . S
C1682 C1680 1.381 . S
C1682 C1683 1.394 . S
C1682 H1690 0.930 . S
C1683 C1682 1.394 . S
C1683 C1684 1.383 . S
C1683 H1691 0.929 . S
C1684 C1683 1.383 . S
C1684 C1685 1.377 . S
C1685 H1669 0.930 . S
C1685 C1684 1.377 . S
C1685 C1686 1.379 . S
C1686 H1670 0.931 . S
C1686 C1680 1.383 . S
C1686 C1685 1.379 . S
H1687 C1681 0.959 . S
H1688 C1681 0.961 . S
H1689 C1681 0.960 . S
H1690 C1682 0.930 . S
H1691 C1683 0.929 . S
H1692 C1700 0.929 . S
H1693 C1702 0.930 . S
H1694 C1704 0.930 . S
H1695 C1707 0.929 . S
H1696 C1710 0.930 . S
H1697 C1712 0.960 . S
H1698 C1712 0.960 . S
H1699 C1712 0.960 . S
C1700 H1692 0.929 . S
C1700 C1701 1.377 . S
C1700 C1702 1.384 . S
C1701 C1700 1.377 . S
C1701 C1707 1.390 . S
C1702 H1693 0.930 . S
C1702 C1700 1.384 . S
C1702 C1703 1.372 . S
C1703 C1702 1.372 . S
C1703 C1704 1.400 . S
C1703 C1708 1.490 . S
C1704 H1694 0.930 . S
C1704 C1703 1.400 . S
C1704 C1707 1.386 . S
H1705 C1721 0.930 . S
H1706 C1722 0.931 . S
C1707 H1695 0.929 . S
C1707 C1701 1.390 . S
C1707 C1704 1.386 . S
C1708 C1703 1.490 . S
C1708 C1710 1.395 . S
C1708 C1711 1.403 . S
H1709 C1715 0.930 . S
C1710 H1696 0.930 . S
C1710 C1708 1.395 . S
C1710 C1713 1.403 . S
C1711 C1708 1.403 . S
C1711 C1712 1.524 . S
C1711 C1715 1.400 . S
C1712 H1697 0.960 . S
C1712 H1698 0.960 . S
C1712 H1699 0.960 . S
C1712 C1711 1.524 . S
C1713 C1710 1.403 . S
C1713 C1714 1.392 . S
C1713 C1717 1.495 . S
C1714 C1713 1.392 . S
C1714 C1715 1.385 . S
C1714 C1716 1.478 . S
C1715 H1709 0.930 . S
C1715 C1711 1.400 . S
C1715 C1714 1.385 . S
C1716 C1714 1.478 . S
C1716 C1718 1.381 . S
C1716 C1722 1.383 . S
C1717 C1713 1.495 . S
C1717 H1723 0.959 . S
C1717 H1724 0.961 . S
C1717 H1725 0.960 . S
C1718 C1716 1.381 . S
C1718 C1719 1.394 . S
C1718 H1726 0.930 . S
C1719 C1718 1.394 . S
C1719 C1720 1.383 . S
C1719 H1727 0.929 . S
C1720 C1719 1.383 . S
C1720 C1721 1.377 . S
C1721 H1705 0.930 . S
C1721 C1720 1.377 . S
C1721 C1722 1.379 . S
C1722 H1706 0.931 . S
C1722 C1716 1.383 . S
C1722 C1721 1.379 . S
H1723 C1717 0.959 . S
H1724 C1717 0.961 . S
H1725 C1717 0.960 . S
H1726 C1718 0.930 . S
H1727 C1719 0.929 . S
H1728 C1736 0.929 . S
H1729 C1738 0.930 . S
H1730 C1740 0.930 . S
H1731 C1743 0.929 . S
H1732 C1746 0.930 . S
H1733 C1748 0.960 . S
H1734 C1748 0.960 . S
H1735 C1748 0.960 . S
C1736 H1728 0.929 . S
C1736 C1737 1.377 . S
C1736 C1738 1.384 . S
C1737 C1736 1.377 . S
C1737 C1743 1.390 . S
C1738 H1729 0.930 . S
C1738 C1736 1.384 . S
C1738 C1739 1.372 . S
C1739 C1738 1.372 . S
C1739 C1740 1.400 . S
C1739 C1744 1.490 . S
C1740 H1730 0.930 . S
C1740 C1739 1.400 . S
C1740 C1743 1.386 . S
H1741 C1757 0.930 . S
H1742 C1758 0.931 . S
C1743 H1731 0.929 . S
C1743 C1737 1.390 . S
C1743 C1740 1.386 . S
C1744 C1739 1.490 . S
C1744 C1746 1.395 . S
C1744 C1747 1.403 . S
H1745 C1751 0.930 . S
C1746 H1732 0.930 . S
C1746 C1744 1.395 . S
C1746 C1749 1.403 . S
C1747 C1744 1.403 . S
C1747 C1748 1.524 . S
C1747 C1751 1.400 . S
C1748 H1733 0.960 . S
C1748 H1734 0.960 . S
C1748 H1735 0.960 . S
C1748 C1747 1.524 . S
C1749 C1746 1.403 . S
C1749 C1750 1.392 . S
C1749 C1753 1.495 . S
C1750 C1749 1.392 . S
C1750 C1751 1.385 . S
C1750 C1752 1.478 . S
C1751 H1745 0.930 . S
C1751 C1747 1.400 . S
C1751 C1750 1.385 . S
C1752 C1750 1.478 . S
C1752 C1754 1.381 . S
C1752 C1758 1.383 . S
C1753 C1749 1.495 . S
C1753 H1759 0.959 . S
C1753 H1760 0.961 . S
C1753 H1761 0.960 . S
C1754 C1752 1.381 . S
C1754 C1755 1.394 . S
C1754 H1762 0.930 . S
C1755 C1754 1.394 . S
C1755 C1756 1.383 . S
C1755 H1763 0.929 . S
C1756 C1755 1.383 . S
C1756 C1757 1.377 . S
C1757 H1741 0.930 . S
C1757 C1756 1.377 . S
C1757 C1758 1.379 . S
C1758 H1742 0.931 . S
C1758 C1752 1.383 . S
C1758 C1757 1.379 . S
H1759 C1753 0.959 . S
H1760 C1753 0.961 . S
H1761 C1753 0.960 . S
H1762 C1754 0.930 . S
H1763 C1755 0.929 . S
H1764 C1772 0.929 . S
H1765 C1774 0.930 . S
H1766 C1776 0.930 . S
H1767 C1779 0.929 . S
H1768 C1782 0.930 . S
H1769 C1784 0.960 . S
H1770 C1784 0.960 . S
H1771 C1784 0.960 . S
C1772 H1764 0.929 . S
C1772 C1773 1.377 . S
C1772 C1774 1.384 . S
C1773 C1772 1.377 . S
C1773 C1779 1.390 . S
C1774 H1765 0.930 . S
C1774 C1772 1.384 . S
C1774 C1775 1.372 . S
C1775 C1774 1.372 . S
C1775 C1776 1.400 . S
C1775 C1780 1.490 . S
C1776 H1766 0.930 . S
C1776 C1775 1.400 . S
C1776 C1779 1.386 . S
H1777 C1793 0.930 . S
H1778 C1794 0.931 . S
C1779 H1767 0.929 . S
C1779 C1773 1.390 . S
C1779 C1776 1.386 . S
C1780 C1775 1.490 . S
C1780 C1782 1.395 . S
C1780 C1783 1.403 . S
H1781 C1787 0.930 . S
C1782 H1768 0.930 . S
C1782 C1780 1.395 . S
C1782 C1785 1.403 . S
C1783 C1780 1.403 . S
C1783 C1784 1.524 . S
C1783 C1787 1.400 . S
C1784 H1769 0.960 . S
C1784 H1770 0.960 . S
C1784 H1771 0.960 . S
C1784 C1783 1.524 . S
C1785 C1782 1.403 . S
C1785 C1786 1.392 . S
C1785 C1789 1.495 . S
C1786 C1785 1.392 . S
C1786 C1787 1.385 . S
C1786 C1788 1.478 . S
C1787 H1781 0.930 . S
C1787 C1783 1.400 . S
C1787 C1786 1.385 . S
C1788 C1786 1.478 . S
C1788 C1790 1.381 . S
C1788 C1794 1.383 . S
C1789 C1785 1.495 . S
C1789 H1795 0.959 . S
C1789 H1796 0.961 . S
C1789 H1797 0.960 . S
C1790 C1788 1.381 . S
C1790 C1791 1.394 . S
C1790 H1798 0.930 . S
C1791 C1790 1.394 . S
C1791 C1792 1.383 . S
C1791 H1799 0.929 . S
C1792 C1791 1.383 . S
C1792 C1793 1.377 . S
C1793 H1777 0.930 . S
C1793 C1792 1.377 . S
C1793 C1794 1.379 . S
C1794 H1778 0.931 . S
C1794 C1788 1.383 . S
C1794 C1793 1.379 . S
H1795 C1789 0.959 . S
H1796 C1789 0.961 . S
H1797 C1789 0.960 . S
H1798 C1790 0.930 . S
H1799 C1791 0.929 . S
H1800 C1808 0.929 . S
H1801 C1810 0.930 . S
H1802 C1812 0.930 . S
H1803 C1815 0.929 . S
H1804 C1818 0.930 . S
H1805 C1820 0.960 . S
H1806 C1820 0.960 . S
H1807 C1820 0.960 . S
C1808 H1800 0.929 . S
C1808 C1809 1.377 . S
C1808 C1810 1.384 . S
C1809 C1808 1.377 . S
C1809 C1815 1.390 . S
C1810 H1801 0.930 . S
C1810 C1808 1.384 . S
C1810 C1811 1.372 . S
C1811 C1810 1.372 . S
C1811 C1812 1.400 . S
C1811 C1816 1.490 . S
C1812 H1802 0.930 . S
C1812 C1811 1.400 . S
C1812 C1815 1.386 . S
H1813 C1829 0.930 . S
H1814 C1830 0.931 . S
C1815 H1803 0.929 . S
C1815 C1809 1.390 . S
C1815 C1812 1.386 . S
C1816 C1811 1.490 . S
C1816 C1818 1.395 . S
C1816 C1819 1.403 . S
H1817 C1823 0.930 . S
C1818 H1804 0.930 . S
C1818 C1816 1.395 . S
C1818 C1821 1.403 . S
C1819 C1816 1.403 . S
C1819 C1820 1.524 . S
C1819 C1823 1.400 . S
C1820 H1805 0.960 . S
C1820 H1806 0.960 . S
C1820 H1807 0.960 . S
C1820 C1819 1.524 . S
C1821 C1818 1.403 . S
C1821 C1822 1.392 . S
C1821 C1825 1.495 . S
C1822 C1821 1.392 . S
C1822 C1823 1.385 . S
C1822 C1824 1.478 . S
C1823 H1817 0.930 . S
C1823 C1819 1.400 . S
C1823 C1822 1.385 . S
C1824 C1822 1.478 . S
C1824 C1826 1.381 . S
C1824 C1830 1.383 . S
C1825 C1821 1.495 . S
C1825 H1831 0.959 . S
C1825 H1832 0.961 . S
C1825 H1833 0.960 . S
C1826 C1824 1.381 . S
C1826 C1827 1.394 . S
C1826 H1834 0.930 . S
C1827 C1826 1.394 . S
C1827 C1828 1.383 . S
C1827 H1835 0.929 . S
C1828 C1827 1.383 . S
C1828 C1829 1.377 . S
C1829 H1813 0.930 . S
C1829 C1828 1.377 . S
C1829 C1830 1.379 . S
C1830 H1814 0.931 . S
C1830 C1824 1.383 . S
C1830 C1829 1.379 . S
H1831 C1825 0.959 . S
H1832 C1825 0.961 . S
H1833 C1825 0.960 . S
H1834 C1826 0.930 . S
H1835 C1827 0.929 . S
H1836 C1844 0.929 . S
H1837 C1846 0.930 . S
H1838 C1848 0.930 . S
H1839 C1851 0.929 . S
H1840 C1854 0.930 . S
H1841 C1856 0.960 . S
H1842 C1856 0.960 . S
H1843 C1856 0.960 . S
C1844 H1836 0.929 . S
C1844 C1845 1.377 . S
C1844 C1846 1.384 . S
C1845 C1844 1.377 . S
C1845 C1851 1.390 . S
C1846 H1837 0.930 . S
C1846 C1844 1.384 . S
C1846 C1847 1.372 . S
C1847 C1846 1.372 . S
C1847 C1848 1.400 . S
C1847 C1852 1.490 . S
C1848 H1838 0.930 . S
C1848 C1847 1.400 . S
C1848 C1851 1.386 . S
H1849 C1865 0.930 . S
H1850 C1866 0.931 . S
C1851 H1839 0.929 . S
C1851 C1845 1.390 . S
C1851 C1848 1.386 . S
C1852 C1847 1.490 . S
C1852 C1854 1.395 . S
C1852 C1855 1.403 . S
H1853 C1859 0.930 . S
C1854 H1840 0.930 . S
C1854 C1852 1.395 . S
C1854 C1857 1.403 . S
C1855 C1852 1.403 . S
C1855 C1856 1.524 . S
C1855 C1859 1.400 . S
C1856 H1841 0.960 . S
C1856 H1842 0.960 . S
C1856 H1843 0.960 . S
C1856 C1855 1.524 . S
C1857 C1854 1.403 . S
C1857 C1858 1.392 . S
C1857 C1861 1.495 . S
C1858 C1857 1.392 . S
C1858 C1859 1.385 . S
C1858 C1860 1.478 . S
C1859 H1853 0.930 . S
C1859 C1855 1.400 . S
C1859 C1858 1.385 . S
C1860 C1858 1.478 . S
C1860 C1862 1.381 . S
C1860 C1866 1.383 . S
C1861 C1857 1.495 . S
C1861 H1867 0.959 . S
C1861 H1868 0.961 . S
C1861 H1869 0.960 . S
C1862 C1860 1.381 . S
C1862 C1863 1.394 . S
C1862 H1870 0.930 . S
C1863 C1862 1.394 . S
C1863 C1864 1.383 . S
C1863 H1871 0.929 . S
C1864 C1863 1.383 . S
C1864 C1865 1.377 . S
C1865 H1849 0.930 . S
C1865 C1864 1.377 . S
C1865 C1866 1.379 . S
C1866 H1850 0.931 . S
C1866 C1860 1.383 . S
C1866 C1865 1.379 . S
H1867 C1861 0.959 . S
H1868 C1861 0.961 . S
H1869 C1861 0.960 . S
H1870 C1862 0.930 . S
H1871 C1863 0.929 . S
H1872 C1880 0.929 . S
H1873 C1882 0.930 . S
H1874 C1884 0.930 . S
H1875 C1887 0.929 . S
H1876 C1890 0.930 . S
H1877 C1892 0.960 . S
H1878 C1892 0.960 . S
H1879 C1892 0.960 . S
C1880 H1872 0.929 . S
C1880 C1881 1.377 . S
C1880 C1882 1.384 . S
C1881 C1880 1.377 . S
C1881 C1887 1.390 . S
C1882 H1873 0.930 . S
C1882 C1880 1.384 . S
C1882 C1883 1.372 . S
C1883 C1882 1.372 . S
C1883 C1884 1.400 . S
C1883 C1888 1.490 . S
C1884 H1874 0.930 . S
C1884 C1883 1.400 . S
C1884 C1887 1.386 . S
H1885 C1901 0.930 . S
H1886 C1902 0.931 . S
C1887 H1875 0.929 . S
C1887 C1881 1.390 . S
C1887 C1884 1.386 . S
C1888 C1883 1.490 . S
C1888 C1890 1.395 . S
C1888 C1891 1.403 . S
H1889 C1895 0.930 . S
C1890 H1876 0.930 . S
C1890 C1888 1.395 . S
C1890 C1893 1.403 . S
C1891 C1888 1.403 . S
C1891 C1892 1.524 . S
C1891 C1895 1.400 . S
C1892 H1877 0.960 . S
C1892 H1878 0.960 . S
C1892 H1879 0.960 . S
C1892 C1891 1.524 . S
C1893 C1890 1.403 . S
C1893 C1894 1.392 . S
C1893 C1897 1.495 . S
C1894 C1893 1.392 . S
C1894 C1895 1.385 . S
C1894 C1896 1.478 . S
C1895 H1889 0.930 . S
C1895 C1891 1.400 . S
C1895 C1894 1.385 . S
C1896 C1894 1.478 . S
C1896 C1898 1.381 . S
C1896 C1902 1.383 . S
C1897 C1893 1.495 . S
C1897 H1903 0.959 . S
C1897 H1904 0.961 . S
C1897 H1905 0.960 . S
C1898 C1896 1.381 . S
C1898 C1899 1.394 . S
C1898 H1906 0.930 . S
C1899 C1898 1.394 . S
C1899 C1900 1.383 . S
C1899 H1907 0.929 . S
C1900 C1899 1.383 . S
C1900 C1901 1.377 . S
C1901 H1885 0.930 . S
C1901 C1900 1.377 . S
C1901 C1902 1.379 . S
C1902 H1886 0.931 . S
C1902 C1896 1.383 . S
C1902 C1901 1.379 . S
H1903 C1897 0.959 . S
H1904 C1897 0.961 . S
H1905 C1897 0.960 . S
H1906 C1898 0.930 . S
H1907 C1899 0.929 . S
H1908 C1916 0.929 . S
H1909 C1918 0.930 . S
H1910 C1920 0.930 . S
H1911 C1923 0.929 . S
H1912 C1926 0.930 . S
H1913 C1928 0.960 . S
H1914 C1928 0.960 . S
H1915 C1928 0.960 . S
C1916 H1908 0.929 . S
C1916 C1917 1.377 . S
C1916 C1918 1.384 . S
C1917 C1916 1.377 . S
C1917 C1923 1.390 . S
C1918 H1909 0.930 . S
C1918 C1916 1.384 . S
C1918 C1919 1.372 . S
C1919 C1918 1.372 . S
C1919 C1920 1.400 . S
C1919 C1924 1.490 . S
C1920 H1910 0.930 . S
C1920 C1919 1.400 . S
C1920 C1923 1.386 . S
H1921 C1937 0.930 . S
H1922 C1938 0.931 . S
C1923 H1911 0.929 . S
C1923 C1917 1.390 . S
C1923 C1920 1.386 . S
C1924 C1919 1.490 . S
C1924 C1926 1.395 . S
C1924 C1927 1.403 . S
H1925 C1931 0.930 . S
C1926 H1912 0.930 . S
C1926 C1924 1.395 . S
C1926 C1929 1.403 . S
C1927 C1924 1.403 . S
C1927 C1928 1.524 . S
C1927 C1931 1.400 . S
C1928 H1913 0.960 . S
C1928 H1914 0.960 . S
C1928 H1915 0.960 . S
C1928 C1927 1.524 . S
C1929 C1926 1.403 . S
C1929 C1930 1.392 . S
C1929 C1933 1.495 . S
C1930 C1929 1.392 . S
C1930 C1931 1.385 . S
C1930 C1932 1.478 . S
C1931 H1925 0.930 . S
C1931 C1927 1.400 . S
C1931 C1930 1.385 . S
C1932 C1930 1.478 . S
C1932 C1934 1.381 . S
C1932 C1938 1.383 . S
C1933 C1929 1.495 . S
C1933 H1939 0.959 . S
C1933 H1940 0.961 . S
C1933 H1941 0.960 . S
C1934 C1932 1.381 . S
C1934 C1935 1.394 . S
C1934 H1942 0.930 . S
C1935 C1934 1.394 . S
C1935 C1936 1.383 . S
C1935 H1943 0.929 . S
C1936 C1935 1.383 . S
C1936 C1937 1.377 . S
C1937 H1921 0.930 . S
C1937 C1936 1.377 . S
C1937 C1938 1.379 . S
C1938 H1922 0.931 . S
C1938 C1932 1.383 . S
C1938 C1937 1.379 . S
H1939 C1933 0.959 . S
H1940 C1933 0.961 . S
H1941 C1933 0.960 . S
H1942 C1934 0.930 . S
H1943 C1935 0.929 . S
H1944 C1952 0.929 . S
H1945 C1954 0.930 . S
H1946 C1956 0.930 . S
H1947 C1959 0.929 . S
H1948 C1962 0.930 . S
H1949 C1964 0.960 . S
H1950 C1964 0.960 . S
H1951 C1964 0.960 . S
C1952 H1944 0.929 . S
C1952 C1953 1.377 . S
C1952 C1954 1.384 . S
C1953 C1952 1.377 . S
C1953 C1959 1.390 . S
C1954 H1945 0.930 . S
C1954 C1952 1.384 . S
C1954 C1955 1.372 . S
C1955 C1954 1.372 . S
C1955 C1956 1.400 . S
C1955 C1960 1.490 . S
C1956 H1946 0.930 . S
C1956 C1955 1.400 . S
C1956 C1959 1.386 . S
H1957 C1973 0.930 . S
H1958 C1974 0.931 . S
C1959 H1947 0.929 . S
C1959 C1953 1.390 . S
C1959 C1956 1.386 . S
C1960 C1955 1.490 . S
C1960 C1962 1.395 . S
C1960 C1963 1.403 . S
H1961 C1967 0.930 . S
C1962 H1948 0.930 . S
C1962 C1960 1.395 . S
C1962 C1965 1.403 . S
C1963 C1960 1.403 . S
C1963 C1964 1.524 . S
C1963 C1967 1.400 . S
C1964 H1949 0.960 . S
C1964 H1950 0.960 . S
C1964 H1951 0.960 . S
C1964 C1963 1.524 . S
C1965 C1962 1.403 . S
C1965 C1966 1.392 . S
C1965 C1969 1.495 . S
C1966 C1965 1.392 . S
C1966 C1967 1.385 . S
C1966 C1968 1.478 . S
C1967 H1961 0.930 . S
C1967 C1963 1.400 . S
C1967 C1966 1.385 . S
C1968 C1966 1.478 . S
C1968 C1970 1.381 . S
C1968 C1974 1.383 . S
C1969 C1965 1.495 . S
C1969 H1975 0.959 . S
C1969 H1976 0.961 . S
C1969 H1977 0.960 . S
C1970 C1968 1.381 . S
C1970 C1971 1.394 . S
C1970 H1978 0.930 . S
C1971 C1970 1.394 . S
C1971 C1972 1.383 . S
C1971 H1979 0.929 . S
C1972 C1971 1.383 . S
C1972 C1973 1.377 . S
C1973 H1957 0.930 . S
C1973 C1972 1.377 . S
C1973 C1974 1.379 . S
C1974 H1958 0.931 . S
C1974 C1968 1.383 . S
C1974 C1973 1.379 . S
H1975 C1969 0.959 . S
H1976 C1969 0.961 . S
H1977 C1969 0.960 . S
H1978 C1970 0.930 . S
H1979 C1971 0.929 . S
H1980 C1988 0.929 . S
H1981 C1990 0.930 . S
H1982 C1992 0.930 . S
H1983 C1995 0.929 . S
H1984 C1998 0.930 . S
H1985 C2000 0.960 . S
H1986 C2000 0.960 . S
H1987 C2000 0.960 . S
C1988 H1980 0.929 . S
C1988 C1989 1.377 . S
C1988 C1990 1.384 . S
C1989 C1988 1.377 . S
C1989 C1995 1.390 . S
C1990 H1981 0.930 . S
C1990 C1988 1.384 . S
C1990 C1991 1.372 . S
C1991 C1990 1.372 . S
C1991 C1992 1.400 . S
C1991 C1996 1.490 . S
C1992 H1982 0.930 . S
C1992 C1991 1.400 . S
C1992 C1995 1.386 . S
H1993 C2009 0.930 . S
H1994 C2010 0.931 . S
C1995 H1983 0.929 . S
C1995 C1989 1.390 . S
C1995 C1992 1.386 . S
C1996 C1991 1.490 . S
C1996 C1998 1.395 . S
C1996 C1999 1.403 . S
H1997 C2003 0.930 . S
C1998 H1984 0.930 . S
C1998 C1996 1.395 . S
C1998 C2001 1.403 . S
C1999 C1996 1.403 . S
C1999 C2000 1.524 . S
C1999 C2003 1.400 . S
C2000 H1985 0.960 . S
C2000 H1986 0.960 . S
C2000 H1987 0.960 . S
C2000 C1999 1.524 . S
C2001 C1998 1.403 . S
C2001 C2002 1.392 . S
C2001 C2005 1.495 . S
C2002 C2001 1.392 . S
C2002 C2003 1.385 . S
C2002 C2004 1.478 . S
C2003 H1997 0.930 . S
C2003 C1999 1.400 . S
C2003 C2002 1.385 . S
C2004 C2002 1.478 . S
C2004 C2006 1.381 . S
C2004 C2010 1.383 . S
C2005 C2001 1.495 . S
C2005 H2011 0.959 . S
C2005 H2012 0.961 . S
C2005 H2013 0.960 . S
C2006 C2004 1.381 . S
C2006 C2007 1.394 . S
C2006 H2014 0.930 . S
C2007 C2006 1.394 . S
C2007 C2008 1.383 . S
C2007 H2015 0.929 . S
C2008 C2007 1.383 . S
C2008 C2009 1.377 . S
C2009 H1993 0.930 . S
C2009 C2008 1.377 . S
C2009 C2010 1.379 . S
C2010 H1994 0.931 . S
C2010 C2004 1.383 . S
C2010 C2009 1.379 . S
H2011 C2005 0.959 . S
H2012 C2005 0.961 . S
H2013 C2005 0.960 . S
H2014 C2006 0.930 . S
H2015 C2007 0.929 . S
H2016 C2024 0.929 . S
H2017 C2026 0.930 . S
H2018 C2028 0.930 . S
H2019 C2031 0.929 . S
H2020 C2034 0.930 . S
H2021 C2036 0.960 . S
H2022 C2036 0.960 . S
H2023 C2036 0.960 . S
C2024 H2016 0.929 . S
C2024 C2025 1.377 . S
C2024 C2026 1.384 . S
C2025 C2024 1.377 . S
C2025 C2031 1.390 . S
C2026 H2017 0.930 . S
C2026 C2024 1.384 . S
C2026 C2027 1.372 . S
C2027 C2026 1.372 . S
C2027 C2028 1.400 . S
C2027 C2032 1.490 . S
C2028 H2018 0.930 . S
C2028 C2027 1.400 . S
C2028 C2031 1.386 . S
H2029 C2045 0.930 . S
H2030 C2046 0.931 . S
C2031 H2019 0.929 . S
C2031 C2025 1.390 . S
C2031 C2028 1.386 . S
C2032 C2027 1.490 . S
C2032 C2034 1.395 . S
C2032 C2035 1.403 . S
H2033 C2039 0.930 . S
C2034 H2020 0.930 . S
C2034 C2032 1.395 . S
C2034 C2037 1.403 . S
C2035 C2032 1.403 . S
C2035 C2036 1.524 . S
C2035 C2039 1.400 . S
C2036 H2021 0.960 . S
C2036 H2022 0.960 . S
C2036 H2023 0.960 . S
C2036 C2035 1.524 . S
C2037 C2034 1.403 . S
C2037 C2038 1.392 . S
C2037 C2041 1.495 . S
C2038 C2037 1.392 . S
C2038 C2039 1.385 . S
C2038 C2040 1.478 . S
C2039 H2033 0.930 . S
C2039 C2035 1.400 . S
C2039 C2038 1.385 . S
C2040 C2038 1.478 . S
C2040 C2042 1.381 . S
C2040 C2046 1.383 . S
C2041 C2037 1.495 . S
C2041 H2047 0.959 . S
C2041 H2048 0.961 . S
C2041 H2049 0.960 . S
C2042 C2040 1.381 . S
C2042 C2043 1.394 . S
C2042 H2050 0.930 . S
C2043 C2042 1.394 . S
C2043 C2044 1.383 . S
C2043 H2051 0.929 . S
C2044 C2043 1.383 . S
C2044 C2045 1.377 . S
C2045 H2029 0.930 . S
C2045 C2044 1.377 . S
C2045 C2046 1.379 . S
C2046 H2030 0.931 . S
C2046 C2040 1.383 . S
C2046 C2045 1.379 . S
H2047 C2041 0.959 . S
H2048 C2041 0.961 . S
H2049 C2041 0.960 . S
H2050 C2042 0.930 . S
H2051 C2043 0.929 . S
H2052 C2060 0.929 . S
H2053 C2062 0.930 . S
H2054 C2064 0.930 . S
H2055 C2067 0.929 . S
H2056 C2070 0.930 . S
H2057 C2072 0.960 . S
H2058 C2072 0.960 . S
H2059 C2072 0.960 . S
C2060 H2052 0.929 . S
C2060 C2061 1.377 . S
C2060 C2062 1.384 . S
C2061 C2060 1.377 . S
C2061 C2067 1.390 . S
C2062 H2053 0.930 . S
C2062 C2060 1.384 . S
C2062 C2063 1.372 . S
C2063 C2062 1.372 . S
C2063 C2064 1.400 . S
C2063 C2068 1.490 . S
C2064 H2054 0.930 . S
C2064 C2063 1.400 . S
C2064 C2067 1.386 . S
H2065 C2081 0.930 . S
H2066 C2082 0.931 . S
C2067 H2055 0.929 . S
C2067 C2061 1.390 . S
C2067 C2064 1.386 . S
C2068 C2063 1.490 . S
C2068 C2070 1.395 . S
C2068 C2071 1.403 . S
H2069 C2075 0.930 . S
C2070 H2056 0.930 . S
C2070 C2068 1.395 . S
C2070 C2073 1.403 . S
C2071 C2068 1.403 . S
C2071 C2072 1.524 . S
C2071 C2075 1.400 . S
C2072 H2057 0.960 . S
C2072 H2058 0.960 . S
C2072 H2059 0.960 . S
C2072 C2071 1.524 . S
C2073 C2070 1.403 . S
C2073 C2074 1.392 . S
C2073 C2077 1.495 . S
C2074 C2073 1.392 . S
C2074 C2075 1.385 . S
C2074 C2076 1.478 . S
C2075 H2069 0.930 . S
C2075 C2071 1.400 . S
C2075 C2074 1.385 . S
C2076 C2074 1.478 . S
C2076 C2078 1.381 . S
C2076 C2082 1.383 . S
C2077 C2073 1.495 . S
C2077 H2083 0.959 . S
C2077 H2084 0.961 . S
C2077 H2085 0.960 . S
C2078 C2076 1.381 . S
C2078 C2079 1.394 . S
C2078 H2086 0.930 . S
C2079 C2078 1.394 . S
C2079 C2080 1.383 . S
C2079 H2087 0.929 . S
C2080 C2079 1.383 . S
C2080 C2081 1.377 . S
C2081 H2065 0.930 . S
C2081 C2080 1.377 . S
C2081 C2082 1.379 . S
C2082 H2066 0.931 . S
C2082 C2076 1.383 . S
C2082 C2081 1.379 . S
H2083 C2077 0.959 . S
H2084 C2077 0.961 . S
H2085 C2077 0.960 . S
H2086 C2078 0.930 . S
H2087 C2079 0.929 . S
H2088 C2096 0.929 . S
H2089 C2098 0.930 . S
H2090 C2100 0.930 . S
H2091 C2103 0.929 . S
H2092 C2106 0.930 . S
H2093 C2108 0.960 . S
H2094 C2108 0.960 . S
H2095 C2108 0.960 . S
C2096 H2088 0.929 . S
C2096 C2097 1.377 . S
C2096 C2098 1.384 . S
C2097 C2096 1.377 . S
C2097 C2103 1.390 . S
C2098 H2089 0.930 . S
C2098 C2096 1.384 . S
C2098 C2099 1.372 . S
C2099 C2098 1.372 . S
C2099 C2100 1.400 . S
C2099 C2104 1.490 . S
C2100 H2090 0.930 . S
C2100 C2099 1.400 . S
C2100 C2103 1.386 . S
H2101 C2117 0.930 . S
H2102 C2118 0.931 . S
C2103 H2091 0.929 . S
C2103 C2097 1.390 . S
C2103 C2100 1.386 . S
C2104 C2099 1.490 . S
C2104 C2106 1.395 1_556 S
C2104 C2107 1.403 . S
H2105 C2111 0.928 1_556 S
C2106 H2092 0.930 . S
C2106 C2104 1.395 1_554 S
C2106 C2109 1.403 . S
C2107 C2104 1.403 . S
C2107 C2108 1.524 . S
C2107 C2111 1.380 1_556 S
C2108 H2093 0.960 . S
C2108 H2094 0.960 . S
C2108 H2095 0.960 . S
C2108 C2107 1.524 . S
C2109 C2106 1.403 . S
C2109 C2110 1.392 . S
C2109 C2113 1.495 . S
C2110 C2109 1.392 . S
C2110 C2111 1.407 . S
C2110 C2112 1.478 . S
C2111 H2105 0.928 1_554 S
C2111 C2107 1.380 1_554 S
C2111 C2110 1.407 . S
C2112 C2110 1.478 . S
C2112 C2114 1.381 . S
C2112 C2118 1.383 . S
C2113 C2109 1.495 . S
C2113 H2119 0.959 . S
C2113 H2120 0.961 . S
C2113 H2121 0.960 . S
C2114 C2112 1.381 . S
C2114 C2115 1.394 . S
C2114 H2122 0.930 . S
C2115 C2114 1.394 . S
C2115 C2116 1.383 . S
C2115 H2123 0.929 . S
C2116 C2115 1.383 . S
C2116 C2117 1.377 . S
C2117 H2101 0.930 . S
C2117 C2116 1.377 . S
C2117 C2118 1.379 . S
C2118 H2102 0.931 . S
C2118 C2112 1.383 . S
C2118 C2117 1.379 . S
H2119 C2113 0.959 . S
H2120 C2113 0.961 . S
H2121 C2113 0.960 . S
H2122 C2114 0.930 . S
H2123 C2115 0.929 . S
H2124 C2132 0.929 . S
H2125 C2134 0.930 . S
H2126 C2136 0.930 . S
H2127 C2139 0.929 . S
H2128 C2142 0.930 . S
H2129 C2144 0.960 . S
H2130 C2144 0.960 . S
H2131 C2144 0.960 . S
C2132 H2124 0.929 . S
C2132 C2133 1.377 . S
C2132 C2134 1.384 . S
C2133 C2132 1.377 . S
C2133 C2139 1.390 . S
C2134 H2125 0.930 . S
C2134 C2132 1.384 . S
C2134 C2135 1.372 . S
C2135 C2134 1.372 . S
C2135 C2136 1.400 . S
C2135 C2140 1.490 . S
C2136 H2126 0.930 . S
C2136 C2135 1.400 . S
C2136 C2139 1.386 . S
H2137 C2153 0.930 . S
H2138 C2154 0.931 . S
C2139 H2127 0.929 . S
C2139 C2133 1.390 . S
C2139 C2136 1.386 . S
C2140 C2135 1.490 . S
C2140 C2142 1.395 1_455 S
C2140 C2143 1.403 . S
H2141 C2147 0.930 . S
C2142 H2128 0.930 . S
C2142 C2140 1.395 1_655 S
C2142 C2145 1.403 . S
C2143 C2140 1.403 . S
C2143 C2144 1.524 . S
C2143 C2147 1.400 1_455 S
C2144 H2129 0.960 . S
C2144 H2130 0.960 . S
C2144 H2131 0.960 . S
C2144 C2143 1.524 . S
C2145 C2142 1.403 . S
C2145 C2146 1.392 . S
C2145 C2149 1.495 . S
C2146 C2145 1.392 . S
C2146 C2147 1.385 . S
C2146 C2148 1.478 . S
C2147 H2141 0.930 . S
C2147 C2143 1.400 1_655 S
C2147 C2146 1.385 . S
C2148 C2146 1.478 . S
C2148 C2150 1.381 . S
C2148 C2154 1.383 . S
C2149 C2145 1.495 . S
C2149 H2155 0.959 . S
C2149 H2156 0.961 . S
C2149 H2157 0.960 . S
C2150 C2148 1.381 . S
C2150 C2151 1.394 . S
C2150 H2158 0.930 . S
C2151 C2150 1.394 . S
C2151 C2152 1.383 . S
C2151 H2159 0.929 . S
C2152 C2151 1.383 . S
C2152 C2153 1.377 . S
C2153 H2137 0.930 . S
C2153 C2152 1.377 . S
C2153 C2154 1.379 . S
C2154 H2138 0.931 . S
C2154 C2148 1.383 . S
C2154 C2153 1.379 . S
H2155 C2149 0.959 . S
H2156 C2149 0.961 . S
H2157 C2149 0.960 . S
H2158 C2150 0.930 . S
H2159 C2151 0.929 . S
H2160 C2168 0.929 . S
H2161 C2170 0.930 . S
H2162 C2172 0.930 . S
H2163 C2175 0.929 . S
H2164 C2178 0.930 . S
H2165 C2180 0.960 . S
H2166 C2180 0.960 . S
H2167 C2180 0.960 . S
C2168 H2160 0.929 . S
C2168 C2169 1.377 . S
C2168 C2170 1.384 . S
C2169 C2168 1.377 . S
C2169 C2175 1.390 . S
C2170 H2161 0.930 . S
C2170 C2168 1.384 . S
C2170 C2171 1.372 . S
C2171 C2170 1.372 . S
C2171 C2172 1.400 . S
C2171 C2176 1.490 . S
C2172 H2162 0.930 . S
C2172 C2171 1.400 . S
C2172 C2175 1.386 . S
H2173 C2189 0.930 . S
H2174 C2190 0.931 . S
C2175 H2163 0.929 . S
C2175 C2169 1.390 . S
C2175 C2172 1.386 . S
C2176 C2171 1.490 . S
C2176 C2178 1.395 1_554 S
C2176 C2179 1.403 1_565 S
H2177 C2183 0.930 . S
C2178 H2164 0.930 . S
C2178 C2176 1.395 1_556 S
C2178 C2181 1.403 . S
C2179 C2176 1.403 1_545 S
C2179 C2180 1.524 . S
C2179 C2183 1.400 . S
C2180 H2165 0.960 . S
C2180 H2166 0.960 . S
C2180 H2167 0.960 . S
C2180 C2179 1.524 . S
C2181 C2178 1.403 . S
C2181 C2182 1.392 1_565 S
C2181 C2185 1.495 . S
C2182 C2181 1.392 1_545 S
C2182 C2183 1.385 1_556 S
C2182 C2184 1.478 . S
C2183 H2177 0.930 . S
C2183 C2179 1.400 . S
C2183 C2182 1.385 1_554 S
C2184 C2182 1.478 . S
C2184 C2186 1.381 . S
C2184 C2190 1.383 . S
C2185 C2181 1.495 . S
C2185 H2191 0.959 . S
C2185 H2192 0.961 . S
C2185 H2193 0.960 . S
C2186 C2184 1.381 . S
C2186 C2187 1.394 . S
C2186 H2194 0.930 . S
C2187 C2186 1.394 . S
C2187 C2188 1.383 . S
C2187 H2195 0.929 . S
C2188 C2187 1.383 . S
C2188 C2189 1.377 . S
C2189 H2173 0.930 . S
C2189 C2188 1.377 . S
C2189 C2190 1.379 . S
C2190 H2174 0.931 . S
C2190 C2184 1.383 . S
C2190 C2189 1.379 . S
H2191 C2185 0.959 . S
H2192 C2185 0.961 . S
H2193 C2185 0.960 . S
H2194 C2186 0.930 . S
H2195 C2187 0.929 . S
H2196 C2204 0.929 . S
H2197 C2206 0.930 . S
H2198 C2208 0.930 . S
H2199 C2211 0.929 . S
H2200 C2214 0.930 . S
H2201 C2216 0.960 . S
H2202 C2216 0.960 . S
H2203 C2216 0.960 . S
C2204 H2196 0.929 . S
C2204 C2205 1.377 . S
C2204 C2206 1.384 . S
C2205 C2204 1.377 . S
C2205 C2211 1.390 . S
C2206 H2197 0.930 . S
C2206 C2204 1.384 . S
C2206 C2207 1.372 . S
C2207 C2206 1.372 . S
C2207 C2208 1.400 . S
C2207 C2212 1.490 . S
C2208 H2198 0.930 . S
C2208 C2207 1.400 . S
C2208 C2211 1.386 . S
H2209 C2225 0.930 . S
H2210 C2226 0.931 . S
C2211 H2199 0.929 . S
C2211 C2205 1.390 . S
C2211 C2208 1.386 . S
C2212 C2207 1.490 . S
C2212 C2214 1.395 . S
C2212 C2215 1.403 . S
H2213 C2219 0.930 . S
C2214 H2200 0.930 . S
C2214 C2212 1.395 . S
C2214 C2217 1.403 . S
C2215 C2212 1.403 . S
C2215 C2216 1.524 . S
C2215 C2219 1.400 . S
C2216 H2201 0.960 . S
C2216 H2202 0.960 . S
C2216 H2203 0.960 . S
C2216 C2215 1.524 . S
C2217 C2214 1.403 . S
C2217 C2218 1.392 . S
C2217 C2221 1.495 . S
C2218 C2217 1.392 . S
C2218 C2219 1.385 . S
C2218 C2220 1.478 . S
C2219 H2213 0.930 . S
C2219 C2215 1.400 . S
C2219 C2218 1.385 . S
C2220 C2218 1.478 . S
C2220 C2222 1.381 . S
C2220 C2226 1.383 . S
C2221 C2217 1.495 . S
C2221 H2227 0.959 . S
C2221 H2228 0.961 . S
C2221 H2229 0.960 . S
C2222 C2220 1.381 . S
C2222 C2223 1.394 . S
C2222 H2230 0.930 . S
C2223 C2222 1.394 . S
C2223 C2224 1.383 . S
C2223 H2231 0.929 . S
C2224 C2223 1.383 . S
C2224 C2225 1.377 . S
C2225 H2209 0.930 . S
C2225 C2224 1.377 . S
C2225 C2226 1.379 . S
C2226 H2210 0.931 . S
C2226 C2220 1.383 . S
C2226 C2225 1.379 . S
H2227 C2221 0.959 . S
H2228 C2221 0.961 . S
H2229 C2221 0.960 . S
H2230 C2222 0.930 . S
H2231 C2223 0.929 . S
H2232 C2240 0.929 . S
H2233 C2242 0.930 . S
H2234 C2244 0.930 . S
H2235 C2247 0.929 . S
H2236 C2250 0.930 . S
H2237 C2252 0.960 . S
H2238 C2252 0.960 . S
H2239 C2252 0.960 . S
C2240 H2232 0.929 . S
C2240 C2241 1.377 . S
C2240 C2242 1.384 . S
C2241 C2240 1.377 . S
C2241 C2247 1.390 . S
C2242 H2233 0.930 . S
C2242 C2240 1.384 . S
C2242 C2243 1.372 . S
C2243 C2242 1.372 . S
C2243 C2244 1.400 . S
C2243 C2248 1.490 . S
C2244 H2234 0.930 . S
C2244 C2243 1.400 . S
C2244 C2247 1.386 . S
H2245 C2261 0.930 . S
H2246 C2262 0.931 . S
C2247 H2235 0.929 . S
C2247 C2241 1.390 . S
C2247 C2244 1.386 . S
C2248 C2243 1.490 . S
C2248 C2250 1.395 1_655 S
C2248 C2251 1.403 1_556 S
H2249 C2255 0.930 . S
C2250 H2236 0.930 . S
C2250 C2248 1.395 1_455 S
C2250 C2253 1.403 . S
C2251 C2248 1.403 1_554 S
C2251 C2252 1.524 . S
C2251 C2255 1.400 . S
C2252 H2237 0.960 . S
C2252 H2238 0.960 . S
C2252 H2239 0.960 . S
C2252 C2251 1.524 . S
C2253 C2250 1.403 . S
C2253 C2254 1.392 1_556 S
C2253 C2257 1.495 . S
C2254 C2253 1.392 1_554 S
C2254 C2255 1.385 1_455 S
C2254 C2256 1.478 . S
C2255 H2249 0.930 . S
C2255 C2251 1.400 . S
C2255 C2254 1.385 1_655 S
C2256 C2254 1.478 . S
C2256 C2258 1.381 . S
C2256 C2262 1.383 . S
C2257 C2253 1.495 . S
C2257 H2263 0.959 . S
C2257 H2264 0.961 . S
C2257 H2265 0.960 . S
C2258 C2256 1.381 . S
C2258 C2259 1.394 . S
C2258 H2266 0.930 . S
C2259 C2258 1.394 . S
C2259 C2260 1.383 . S
C2259 H2267 0.929 . S
C2260 C2259 1.383 . S
C2260 C2261 1.377 . S
C2261 H2245 0.930 . S
C2261 C2260 1.377 . S
C2261 C2262 1.379 . S
C2262 H2246 0.931 . S
C2262 C2256 1.383 . S
C2262 C2261 1.379 . S
H2263 C2257 0.959 . S
H2264 C2257 0.961 . S
H2265 C2257 0.960 . S
H2266 C2258 0.930 . S
H2267 C2259 0.929 . S
H2268 C2276 0.929 . S
H2269 C2278 0.930 . S
H2270 C2280 0.930 . S
H2271 C2283 0.929 . S
H2272 C2286 0.930 . S
H2273 C2288 0.960 . S
H2274 C2288 0.960 . S
H2275 C2288 0.960 . S
C2276 H2268 0.929 . S
C2276 C2277 1.377 . S
C2276 C2278 1.384 . S
C2277 C2276 1.377 . S
C2277 C2283 1.390 . S
C2278 H2269 0.930 . S
C2278 C2276 1.384 . S
C2278 C2279 1.372 . S
C2279 C2278 1.372 . S
C2279 C2280 1.400 . S
C2279 C2284 1.490 . S
C2280 H2270 0.930 . S
C2280 C2279 1.400 . S
C2280 C2283 1.386 . S
H2281 C2297 0.930 . S
H2282 C2298 0.931 . S
C2283 H2271 0.929 . S
C2283 C2277 1.390 . S
C2283 C2280 1.386 . S
C2284 C2279 1.490 . S
C2284 C2286 1.395 . S
C2284 C2287 1.403 1_565 S
H2285 C2291 0.930 . S
C2286 H2272 0.930 . S
C2286 C2284 1.395 . S
C2286 C2289 1.403 . S
C2287 C2284 1.403 1_545 S
C2287 C2288 1.524 . S
C2287 C2291 1.400 . S
C2288 H2273 0.960 . S
C2288 H2274 0.960 . S
C2288 H2275 0.960 . S
C2288 C2287 1.524 . S
C2289 C2286 1.403 . S
C2289 C2290 1.392 1_565 S
C2289 C2293 1.495 . S
C2290 C2289 1.392 1_545 S
C2290 C2291 1.385 . S
C2290 C2292 1.478 . S
C2291 H2285 0.930 . S
C2291 C2287 1.400 . S
C2291 C2290 1.385 . S
C2292 C2290 1.478 . S
C2292 C2294 1.381 . S
C2292 C2298 1.383 . S
C2293 C2289 1.495 . S
C2293 H2299 0.959 . S
C2293 H2300 0.961 . S
C2293 H2301 0.960 . S
C2294 C2292 1.381 . S
C2294 C2295 1.394 . S
C2294 H2302 0.930 . S
C2295 C2294 1.394 . S
C2295 C2296 1.383 . S
C2295 H2303 0.929 . S
C2296 C2295 1.383 . S
C2296 C2297 1.377 . S
C2297 H2281 0.930 . S
C2297 C2296 1.377 . S
C2297 C2298 1.379 . S
C2298 H2282 0.931 . S
C2298 C2292 1.383 . S
C2298 C2297 1.379 . S
H2299 C2293 0.959 . S
H2300 C2293 0.961 . S
H2301 C2293 0.960 . S
H2302 C2294 0.930 . S
H2303 C2295 0.929 . S
C1017 C403 1.316 . S
C1036 C70 1.173 . S
C1053 C487 1.325 . S
C1072 C154 1.237 . S
C1089 C238 1.215 . S
C1108 C67 1.303 . S
C1125 C322 1.215 . S
C1144 C151 1.311 . S
C1161 C406 1.230 . S
C1180 C235 1.294 . S
C1197 C319 1.312 . S
C1216 C490 1.197 . S
C1233 C739 1.317 . S
C1252 C574 1.262 . S
C1269 C658 1.230 . S
C1288 C823 1.347 . S
C1305 C907 1.325 . S
C1324 C742 1.238 . S
C1341 C826 1.216 . S
C1360 C991 1.293 . S
C1377 C910 1.236 . S
C1396 C571 1.327 . S
C1413 C655 1.313 . S
C1432 C994 1.178 . S
C1449 C392 1.410 . S
C1468 C58 1.315 . S
C1485 C142 1.308 . S
C1504 C476 1.442 . S
C1521 C226 1.327 . S
C1540 C56 1.377 . S
C1557 C310 1.311 . S
C1576 C140 1.432 . S
C1593 C224 1.404 . S
C1612 C394 1.359 . S
C1629 C308 1.413 . S
C1648 C478 1.293 . S
C1665 C728 1.411 . S
C1684 C562 1.320 . S
C1701 C646 1.327 . S
C1720 C812 1.376 . S
C1737 C730 1.307 . S
C1756 C896 1.442 . S
C1773 C980 1.416 . S
C1792 C814 1.274 . S
C1809 C898 1.327 . S
C1828 C560 1.377 . S
C1845 C644 1.416 . S
C1864 C982 1.273 . S
C1881 C903 1.906 . S
C1900 C63 1.930 . S
C1917 C147 1.911 . S
C1936 C987 1.881 . S
C1953 C231 1.908 . S
C1972 C567 1.926 . S
C1989 C315 1.914 . S
C2008 C651 1.882 . S
C2025 C399 1.904 . S
C2044 C735 1.916 . S
C2061 C819 1.905 . S
C2080 C483 1.906 . S
C2097 C830 2.034 . S
C2116 C74 2.004 . S
C2133 C914 2.025 . S
C2152 C158 2.047 . S
C2169 C242 2.031 . S
C2188 C998 2.020 . S
C2205 C326 2.026 . S
C2224 C578 2.041 . S
C2241 C662 2.027 . S
C2260 C410 2.038 . S
C2277 C746 2.033 . S
C2296 C494 2.009 . S
