# Generated by pormake.
# Topology sxb, (6)-cn, num edge types: 1
# Building blocks:
#     Node 0, Type 0, BuildingBlock: KUMJIN_clean_sbu_1, # of connection points: 6
#     Node 1, Type 0, BuildingBlock: KUMJIN_clean_sbu_1, # of connection points: 6
#     Node 2, Type 0, BuildingBlock: KUMJIN_clean_sbu_1, # of connection points: 6
#     Node 3, Type 0, BuildingBlock: KUMJIN_clean_sbu_1, # of connection points: 6
#     Edge 4, Type (0, 0), BuildingBlock: FUNLAD_clean_linker_0, # of connection points: 2
#     Edge 5, Type (0, 0), BuildingBlock: FUNLAD_clean_linker_0, # of connection points: 2
#     Edge 6, Type (0, 0), BuildingBlock: FUNLAD_clean_linker_0, # of connection points: 2
#     Edge 7, Type (0, 0), BuildingBlock: FUNLAD_clean_linker_0, # of connection points: 2
#     Edge 8, Type (0, 0), BuildingBlock: FUNLAD_clean_linker_0, # of connection points: 2
#     Edge 9, Type (0, 0), BuildingBlock: FUNLAD_clean_linker_0, # of connection points: 2
#     Edge 10, Type (0, 0), BuildingBlock: FUNLAD_clean_linker_0, # of connection points: 2
#     Edge 11, Type (0, 0), BuildingBlock: FUNLAD_clean_linker_0, # of connection points: 2
#     Edge 12, Type (0, 0), BuildingBlock: FUNLAD_clean_linker_0, # of connection points: 2
#     Edge 13, Type (0, 0), BuildingBlock: FUNLAD_clean_linker_0, # of connection points: 2
#     Edge 14, Type (0, 0), BuildingBlock: FUNLAD_clean_linker_0, # of connection points: 2
#     Edge 15, Type (0, 0), BuildingBlock: FUNLAD_clean_linker_0, # of connection points: 2
# Relax obj value: 0.011
# Max RMSD: 0.051
# Mean RMSD: 0.051
data_MOF--net-sxb--node1-KUMJIN_clean_sbu_1--edge1-FUNLAD_clean_linker_0
_symmetry_space_group_name_H-M    P1
_symmetry_Int_Tables_number       1
_symmetry_cell_setting            triclinic
loop_
_symmetry_equiv_pos_as_xyz
'x, y, z'
_cell_length_a     17.606108
_cell_length_b     51.720115
_cell_length_c     34.73737
_cell_angle_alpha  115.38298
_cell_angle_beta   90.059976
_cell_angle_gamma 90.085127
loop_
_atom_site_label
_atom_site_type_symbol
_atom_site_fract_x
_atom_site_fract_y
_atom_site_fract_z
_atom_type_partial_charge
Eu0 Eu 0.04428 0.96667 0.96719 0.0
C1 C 0.15549 0.09517 0.09586 0.0
N2 N 0.08858 0.0814 0.09338 0.0
C3 C 0.08254 0.10072 0.16951 0.0
C4 C 0.18945 0.11192 0.13563 0.0
C5 C 0.05066 0.08462 0.12936 0.0
C6 C 0.15256 0.11424 0.17267 0.0
C7 C 0.25742 0.10783 0.05999 0.0
C8 C 0.1892 0.09314 0.05853 0.0
C9 C 0.29214 0.12412 0.09951 0.0
C10 C 0.25832 0.12612 0.13721 0.0
Eu11 Eu 0.04043 0.05436 0.02424 0.0
N12 N 0.15556 0.07654 0.02066 0.0
C13 C 0.2885 0.10576 0.02166 0.0
C14 C 0.18321 0.07562 0.98337 0.0
C15 C 0.2508 0.08982 0.98324 0.0
H16 H 0.99524 0.0751 0.1271 0.0
H17 H 0.27365 0.08854 0.95357 0.0
H18 H 0.99181 0.95182 0.86767 0.0
H19 H 0.8948 0.94792 0.09163 0.0
H20 H 0.15362 0.06347 0.95377 0.0
H21 H 0.34092 0.11669 0.02145 0.0
H22 H 1.00478 0.95945 0.05849 0.0
H23 H 0.05273 0.10293 0.198 0.0
H24 H 0.34485 0.13542 0.10128 0.0
H25 H 0.28541 0.13899 0.16748 0.0
H26 H 0.87986 0.93194 0.82077 0.0
H27 H 0.17686 0.12688 0.20384 0.0
H28 H 0.77421 0.93238 0.05171 0.0
N29 N 0.94008 0.94911 0.92098 0.0
C30 C 0.87903 0.9406 0.93663 0.0
C31 C 0.87883 0.93439 0.85331 0.0
C32 C 0.81395 0.92936 0.91117 0.0
C33 C 0.94183 0.94568 0.87982 0.0
C34 C 0.81446 0.92633 0.8691 0.0
N35 N 0.94478 0.95467 0.00256 0.0
C36 C 0.95141 0.9547 0.04174 0.0
C37 C 0.81728 0.93595 0.99583 0.0
C38 C 0.88083 0.94402 0.97871 0.0
C39 C 0.82179 0.93833 0.03743 0.0
C40 C 0.88959 0.94728 0.06018 0.0
H41 H 0.76551 0.9178 0.84857 0.0
H42 H 0.69951 0.91349 0.9096 0.0
H43 H 0.70244 0.91918 0.98356 0.0
O44 O 0.07495 0.92633 0.97028 0.0
O45 O 0.94495 0.99353 0.96158 0.0
O46 O 0.93617 0.03004 0.02798 0.0
O47 O 0.0929 0.93136 0.91158 0.0
O48 O 0.08211 0.98936 0.03624 0.0
O49 O 1.00571 0.02913 0.0609 0.0
O50 O 0.98503 0.07567 0.98955 0.0
O51 O 0.15909 0.03509 0.01294 0.0
O52 O 0.16269 0.98512 0.98415 0.0
O53 O 0.98612 0.09609 0.05846 0.0
O54 O 0.03036 0.03129 0.95237 0.0
O55 O 0.09299 0.98758 0.92718 0.0
C56 C 0.90356 0.01092 0.99366 0.0
C57 C 0.12911 0.88535 0.90979 0.0
C58 C 0.17566 0.84147 0.9125 0.0
C59 C 0.1881 0.82971 0.86825 0.0
C60 C 0.1421 0.87298 0.86566 0.0
C61 C 0.1713 0.84536 0.84513 0.0
C62 C 0.14595 0.86946 0.93312 0.0
C63 C 0.05184 0.01161 0.06776 0.0
C64 C 0.09843 0.91477 0.93097 0.0
C65 C 0.75028 0.92191 0.92856 0.0
C66 C 0.75187 0.92526 0.97076 0.0
C67 C 0.1954 0.01051 -0.00042 0.0
C68 C 0.88871 0.10953 0.02348 0.0
C69 C 0.8115 0.14758 0.01947 0.0
C70 C 0.74572 0.13223 0.02003 0.0
C71 C 0.8227 0.09458 0.02413 0.0
C72 C 0.88293 0.1359 0.02118 0.0
C73 C 0.75147 0.10596 0.02242 0.0
C74 C 0.06643 0.00979 0.92237 0.0
C75 C 0.96455 0.09788 0.02383 0.0
H76 H 0.21206 0.80852 0.85149 0.0
H77 H 0.12963 0.88464 0.8469 0.0
H78 H 0.18136 0.83607 0.81112 0.0
H79 H 0.1356 0.87878 0.96713 0.0
H80 H 0.68983 0.14068 0.01913 0.0
H81 H 0.82634 0.07419 0.02578 0.0
H82 H 0.9344 0.14704 0.01989 0.0
H83 H 0.70052 0.09436 0.02292 0.0
Eu84 Eu 0.0521 0.05057 0.52146 0.0
C85 C 0.16151 0.9231 0.39667 0.0
N86 N 0.09291 0.93542 0.39773 0.0
C87 C 0.08639 0.91299 0.32148 0.0
C88 C 0.19576 0.90536 0.35752 0.0
C89 C 0.05453 0.93034 0.36104 0.0
C90 C 0.15743 0.90053 0.31968 0.0
C91 C 0.26893 0.91577 0.43482 0.0
C92 C 0.19775 0.92824 0.43489 0.0
C93 C 0.3033 0.89819 0.39586 0.0
C94 C 0.26684 0.89301 0.35734 0.0
Eu95 Eu 0.04439 0.9643 0.46593 0.0
N96 N 0.16425 0.94607 0.47214 0.0
C97 C 0.30358 0.92146 0.47394 0.0
C98 C 0.19616 0.95074 0.51035 0.0
C99 C 0.26674 0.93884 0.51185 0.0
H100 H 0.99865 0.93923 0.36232 0.0
H101 H 0.29252 0.94298 0.54224 0.0
H102 H 0.04726 0.0699 0.62671 0.0
H103 H 0.84678 0.06985 0.41817 0.0
H104 H 0.16739 0.96362 0.53965 0.0
H105 H 0.35835 0.91233 0.47523 0.0
H106 H 0.96837 0.05437 0.43606 0.0
H107 H 0.05589 0.90907 0.29242 0.0
H108 H 0.35808 0.88848 0.39518 0.0
H109 H 0.29406 0.87935 0.32756 0.0
H110 H 0.95982 0.09436 0.68704 0.0
H111 H 0.18186 0.88703 0.28896 0.0
H112 H 0.75028 0.09274 0.47421 0.0
N113 N 0.97289 0.07343 0.58101 0.0
C114 C 0.90596 0.0837 0.5737 0.0
C115 C 0.94386 0.09136 0.6553 0.0
C116 C 0.85455 0.09791 0.60725 0.0
C117 C 0.99295 0.0773 0.62104 0.0
C118 C 0.87427 0.10164 0.64838 0.0
N119 N 0.93847 0.06526 0.50035 0.0
C120 C 0.92552 0.06279 0.46022 0.0
C121 C 0.81866 0.0895 0.5238 0.0
C122 C 0.8882 0.07943 0.53229 0.0
C123 C 0.80308 0.08534 0.48204 0.0
C124 C 0.85718 0.07225 0.45025 0.0
H125 H 0.8363 0.11247 0.675 0.0
H126 H 0.74478 0.11862 0.62408 0.0
H127 H 0.71341 0.11128 0.55112 0.0
O128 O 0.09701 0.08159 0.4997 0.0
O129 O 0.94628 0.02699 0.52829 0.0
O130 O 0.9364 0.98747 0.4644 0.0
O131 O 0.10422 0.09053 0.56625 0.0
O132 O 0.07517 0.02667 0.45025 0.0
O133 O 0.99911 0.98649 0.42709 0.0
O134 O 1.00446 0.94001 0.50018 0.0
O135 O 0.15762 0.98482 0.46203 0.0
O136 O 0.16431 0.02893 0.52028 0.0
O137 O 0.98571 0.92337 0.43231 0.0
O138 O 0.0322 0.98851 0.53787 0.0
O139 O 0.10306 0.03011 0.56137 0.0
C140 C 0.9049 1.00792 0.49775 0.0
C141 C 0.09188 0.13028 0.54958 0.0
C142 C 0.1133 0.17589 0.54547 0.0
C143 C 0.05056 0.18741 0.57252 0.0
C144 C 0.0297 0.14238 0.57655 0.0
C145 C 1.00915 0.17072 0.58777 0.0
C146 C 0.13341 0.1471 0.53406 0.0
C147 C 0.03737 1.00585 0.41996 0.0
C148 C 0.11483 0.10039 0.5379 0.0
C149 C 0.7851 0.10774 0.59872 0.0
C150 C 0.76719 0.10352 0.55714 0.0
C151 C 0.19643 1.00685 0.48937 0.0
C152 C 0.89706 0.91063 0.47237 0.0
C153 C 0.81509 0.87705 0.48563 0.0
C154 C 0.75172 0.8935 0.48515 0.0
C155 C 0.8332 0.92666 0.47205 0.0
C156 C 0.88788 0.88589 0.47915 0.0
C157 C 0.7609 0.9181 0.47841 0.0
C158 C 0.07457 1.00836 0.56676 0.0
C159 C 0.97374 0.91973 0.46665 0.0
H160 H 0.03414 0.20953 0.58261 0.0
H161 H 0.99742 0.13011 0.58936 0.0
H162 H 0.9613 0.1799 0.60875 0.0
H163 H 0.18101 0.13766 0.51293 0.0
H164 H 0.69487 0.88717 0.48946 0.0
H165 H 0.83937 0.94575 0.46692 0.0
H166 H 0.93764 0.87385 0.48007 0.0
H167 H 0.71175 0.93056 0.47806 0.0
Eu168 Eu 0.50345 0.46704 0.9691 0.0
C169 C 0.66369 0.58095 0.06071 0.0
N170 N 0.60117 0.57169 0.07416 0.0
C171 C 0.65653 0.58565 0.14317 0.0
C172 C 0.72653 0.59225 0.08806 0.0
C173 C 0.59584 0.57433 0.11484 0.0
C174 C 0.72228 0.59453 0.12968 0.0
C175 C 0.73105 0.58687 0.00402 0.0
C176 C 0.66579 0.57815 0.01894 0.0
C177 C 0.79415 0.59771 0.03103 0.0
C178 C 0.79181 0.60048 0.07292 0.0
Eu179 Eu 0.50079 0.55451 0.02511 0.0
N180 N 0.60406 0.56734 0.99319 0.0
C181 C 0.73055 0.58491 0.96258 0.0
C182 C 0.60127 0.56764 0.95412 0.0
C183 C 0.66494 0.57569 0.93781 0.0
H184 H 0.54475 0.56762 0.12527 0.0
H185 H 0.6628 0.57535 0.90645 0.0
H186 H 0.55464 0.44512 0.86672 0.0
H187 H 0.26482 0.43341 0.03689 0.0
H188 H 0.54948 0.56271 0.93592 0.0
H189 H 0.77957 0.59136 0.94996 0.0
H190 H 0.386 0.45819 0.03812 0.0
H191 H 0.65261 0.58751 0.17534 0.0
H192 H 0.84484 0.60432 0.01994 0.0
H193 H 0.84089 0.60899 0.09337 0.0
H194 H 0.50051 0.41683 0.79514 0.0
H195 H 0.76941 0.6031 0.15163 0.0
H196 H 0.20024 0.4051 0.96817 0.0
N197 N 0.45857 0.4395 0.89931 0.0
C198 C 0.39111 0.42589 0.896 0.0
C199 C 0.46881 0.41943 0.82324 0.0
C200 C 0.35898 0.40887 0.8558 0.0
C201 C 0.4988 0.43581 0.8638 0.0
C202 C 0.39828 0.4061 0.8192 0.0
N203 N 0.38724 0.44498 0.9712 0.0
C204 C 0.35751 0.44606 0.00816 0.0
C205 C 0.28638 0.41365 0.93063 0.0
C206 C 0.35512 0.42825 0.93292 0.0
C207 C 0.25312 0.41596 0.96859 0.0
C208 C 0.28929 0.43199 0.00748 0.0
H209 H 0.37546 0.39323 0.78773 0.0
H210 H 0.26385 0.38174 0.82276 0.0
H211 H 0.20034 0.38592 0.88826 0.0
O212 O 0.55628 0.44661 0.00575 0.0
O213 O 0.38504 0.48641 0.97859 0.0
O214 O 0.3826 0.53632 0.0061 0.0
O215 O 0.55693 0.42497 0.93694 0.0
O216 O 0.51118 0.4912 0.041 0.0
O217 O 0.44664 0.5342 0.06461 0.0
O218 O 0.47199 0.59462 0.02071 0.0
O219 O 0.59937 0.52752 0.03131 0.0
O220 O 0.60925 0.49059 0.96537 0.0
O221 O 0.45093 0.59021 0.07964 0.0
O222 O 0.46826 0.53176 0.95498 0.0
O223 O 0.54211 0.49119 0.93139 0.0
C224 C 0.34936 0.51104 0.99078 0.0
C225 C 0.65289 0.41248 0.97378 0.0
C226 C 0.72945 0.37471 0.97909 0.0
C227 C 0.79543 0.39015 0.97916 0.0
C228 C 0.71911 0.42751 0.97377 0.0
C229 C 0.79011 0.41633 0.97646 0.0
C230 C 0.65824 0.38621 0.97643 0.0
C231 C 0.4684 0.51128 0.06905 0.0
C232 C 0.57726 0.42393 0.97228 0.0
C233 C 0.28955 0.3948 0.85337 0.0
C234 C 0.25341 0.39715 0.89067 0.0
C235 C 0.64131 0.51023 -0.00061 0.0
C236 C 0.41672 0.63601 0.08018 0.0
C237 C 0.37172 0.6797 0.07626 0.0
C238 C 0.35864 0.69185 0.12047 0.0
C239 C 0.4031 0.64879 0.12425 0.0
C240 C 0.40093 0.65159 0.05625 0.0
C241 C 0.37434 0.67651 0.14416 0.0
C242 C 0.50063 0.50971 0.924 0.0
C243 C 0.44714 0.60652 0.05974 0.0
H244 H 0.85117 0.38184 0.98078 0.0
H245 H 0.71583 0.44783 0.97186 0.0
H246 H 0.84122 0.42799 0.97644 0.0
H247 H 0.60658 0.375 0.97719 0.0
H248 H 0.33504 0.71314 0.13676 0.0
H249 H 0.41479 0.63737 0.14346 0.0
H250 H 0.41173 0.64196 0.02227 0.0
H251 H 0.36382 0.68611 0.17813 0.0
Eu252 Eu 0.50659 0.55758 0.52586 0.0
C253 C 0.68569 0.44766 0.44634 0.0
N254 N 0.62538 0.45513 0.42877 0.0
C255 C 0.69284 0.44182 0.36328 0.0
C256 C 0.75341 0.43772 0.42303 0.0
C257 C 0.62712 0.45187 0.38769 0.0
C258 C 0.75637 0.43484 0.38107 0.0
C259 C 0.74345 0.44433 0.50757 0.0
C260 C 0.68056 0.45106 0.48834 0.0
C261 C 0.81132 0.43482 0.48459 0.0
C262 C 0.81621 0.43144 0.44245 0.0
Eu263 Eu 0.5163 0.47019 0.47135 0.0
N264 N 0.61432 0.46064 0.5102 0.0
C265 C 0.73602 0.44695 0.54917 0.0
C266 C 0.60523 0.46106 0.54948 0.0
C267 C 0.66627 0.45493 0.56994 0.0
H268 H 0.57775 0.45712 0.37395 0.0
H269 H 0.65903 0.45581 0.60142 0.0
H270 H 0.54192 0.58094 0.63045 0.0
H271 H 0.27935 0.58677 0.44533 0.0
H272 H 0.55061 0.46511 0.56475 0.0
H273 H 0.78303 0.44201 0.56503 0.0
H274 H 0.40036 0.56406 0.45068 0.0
H275 H 0.69452 0.43948 0.3308 0.0
H276 H 0.86023 0.42974 0.49901 0.0
H277 H 0.86892 0.42401 0.42516 0.0
H278 H 0.47689 0.60863 0.69892 0.0
H279 H 0.80742 0.42727 0.36216 0.0
H280 H 0.20423 0.61426 0.51033 0.0
N281 N 0.45113 0.58477 0.59293 0.0
C282 C 0.38328 0.59716 0.5926 0.0
C283 C 0.44962 0.60535 0.66924 0.0
C284 C 0.34502 0.6138 0.63093 0.0
C285 C 0.4858 0.58933 0.63043 0.0
C286 C 0.3786 0.61744 0.66949 0.0
N287 N 0.39118 0.57768 0.51751 0.0
C288 C 0.36732 0.57589 0.47902 0.0
C289 C 0.28423 0.60739 0.55243 0.0
C290 C 0.35311 0.59397 0.55387 0.0
C291 C 0.25702 0.60433 0.51278 0.0
C292 C 0.29918 0.58877 0.47598 0.0
H293 H 0.35097 0.63004 0.69963 0.0
H294 H 0.24499 0.63938 0.6587 0.0
H295 H 0.19183 0.63378 0.58999 0.0
O296 O 0.56555 0.57831 0.49138 0.0
O297 O 0.39053 0.53592 0.50953 0.0
O298 O 0.39519 0.48612 0.48419 0.0
O299 O 0.55545 0.60043 0.55985 0.0
O300 O 0.52614 0.5334 0.45469 0.0
O301 O 0.46769 0.48893 0.42846 0.0
O302 O 0.48956 0.42948 0.47455 0.0
O303 O 0.61417 0.49917 0.46998 0.0
O304 O 0.61091 0.53598 0.53613 0.0
O305 O 0.47734 0.43331 0.41455 0.0
O306 O 0.46982 0.4922 0.53874 0.0
O307 O 0.53805 0.5342 0.56589 0.0
C308 C 0.35827 0.51052 0.49645 0.0
C309 C 0.65968 0.61258 0.52772 0.0
C310 C 0.74457 0.64786 0.52088 0.0
C311 C 0.80681 0.63361 0.52848 0.0
C312 C 0.72229 0.59883 0.53551 0.0
C313 C 0.79556 0.60931 0.53581 0.0
C314 C 0.67092 0.63707 0.52057 0.0
C315 C 0.49007 0.51196 0.4245 0.0
C316 C 0.58237 0.60129 0.52552 0.0
C317 C 0.27537 0.62663 0.62959 0.0
C318 C 0.24513 0.62347 0.59046 0.0
C319 C 0.64973 0.51752 0.50402 0.0
C320 C 0.44713 0.38673 0.41225 0.0
C321 C 0.4005 0.34241 0.41353 0.0
C322 C 0.40223 0.32925 0.36871 0.0
C323 C 0.44809 0.37298 0.36753 0.0
C324 C 0.42319 0.37133 0.4352 0.0
C325 C 0.42588 0.34444 0.34601 0.0
C326 C 0.49399 0.51544 0.57118 0.0
C327 C 0.47192 0.41693 0.43428 0.0
H328 H 0.86415 0.64145 0.5293 0.0
H329 H 0.71442 0.58003 0.54122 0.0
H330 H 0.84379 0.59856 0.54175 0.0
H331 H 0.6223 0.64738 0.51396 0.0
H332 H 0.38392 0.30727 0.35104 0.0
H333 H 0.46645 0.38425 0.3491 0.0
H334 H 0.4225 0.38175 0.46972 0.0
H335 H 0.42668 0.33407 0.31153 0.0
C336 C 0.36914 0.72589 0.06853 0.0
C337 C 0.35323 0.69639 0.05153 0.0
C338 C 0.34692 0.74218 0.04707 0.0
C339 C 0.30777 0.72938 0.00799 0.0
C340 C 0.29441 0.69971 0.99025 0.0
C341 C 0.3166 0.68341 0.01176 0.0
C342 C 0.28131 0.74601 0.98443 0.0
C343 C 0.26841 0.77453 0.00302 0.0
C344 C 0.24183 0.79123 0.97958 0.0
C345 C 0.25446 0.82095 -0.0023 0.0
C346 C 0.23175 0.83739 0.9765 0.0
C347 C 0.19528 0.82451 0.93669 0.0
H348 H 0.18929 0.75593 0.92594 0.0
C349 C 0.18034 0.79492 0.91922 0.0
C350 C 0.20311 0.77849 0.94036 0.0
H351 H 0.15066 0.7844 0.88911 0.0
H352 H 0.399 0.73647 0.09857 0.0
H353 H 0.36139 0.76468 0.06115 0.0
H354 H 0.2652 0.68916 0.95998 0.0
H355 H 0.30308 0.66079 -0.0022 0.0
H356 H 0.27108 0.73395 0.95055 0.0
H357 H 0.27856 0.78657 0.03692 0.0
H358 H 0.28339 0.83145 0.02807 0.0
H359 H 0.24463 0.86006 0.99081 0.0
C360 C 0.78672 0.34286 0.00968 0.0
C361 C 0.73446 0.3468 0.98201 0.0
C362 C 0.79 0.31686 0.01312 0.0
C363 C 0.7413 0.29401 0.98864 0.0
C364 C 0.68911 0.29805 0.96109 0.0
C365 C 0.68585 0.32401 0.95768 0.0
C366 C 0.74093 0.26605 0.99168 0.0
C367 C 0.79898 0.2564 0.00738 0.0
C368 C 0.79875 0.22841 0.01037 0.0
C369 C 0.85176 0.22423 0.03743 0.0
C370 C 0.85529 0.19824 0.04072 0.0
C371 C 0.80609 0.17555 0.01678 0.0
H372 H 0.70917 0.20743 0.96405 0.0
C373 C 0.75293 0.17964 0.98965 0.0
C374 C 0.74942 0.20567 0.98631 0.0
H375 H 0.71515 0.16245 0.97014 0.0
H376 H 0.824 0.36013 0.02951 0.0
H377 H 0.82952 0.31519 0.03577 0.0
H378 H 0.6507 0.28097 0.94191 0.0
H379 H 0.64547 0.32613 0.93567 0.0
H380 H 0.69045 0.25294 0.97999 0.0
H381 H 0.84947 0.26951 0.01901 0.0
H382 H 0.89068 0.24122 0.05629 0.0
H383 H 0.89639 0.196 0.06231 0.0
C384 C 0.12066 0.2141 0.51879 0.0
C385 C 0.1577 0.19414 0.52989 0.0
C386 C 0.16207 0.23203 0.50573 0.0
C387 C 0.24186 0.23052 0.50344 0.0
C388 C 0.27879 0.21015 0.51355 0.0
C389 C 0.23737 0.1923 0.52685 0.0
C390 C 0.28769 0.24876 0.48855 0.0
C391 C 0.26454 0.27462 0.49225 0.0
C392 C 0.30675 0.29225 0.47469 0.0
C393 C 0.2881 0.32136 0.48917 0.0
C394 C 0.3209 0.33803 0.47068 0.0
C395 C 0.37267 0.32589 0.4369 0.0
H396 H 0.37583 0.258 0.42895 0.0
C397 C 0.39323 0.29703 0.42333 0.0
C398 C 0.36061 0.28038 0.44182 0.0
H399 H 0.43352 0.28707 0.39764 0.0
H400 H 0.0593 0.21567 0.51967 0.0
H401 H 0.13108 0.2466 0.49662 0.0
H402 H 0.3401 0.20826 0.51163 0.0
H403 H 0.26799 0.1774 0.53547 0.0
H404 H 0.34313 0.24075 0.47519 0.0
H405 H 0.21225 0.2836 0.50924 0.0
H406 H 0.24658 0.33111 0.51426 0.0
H407 H 0.30322 0.3601 0.48165 0.0
C408 C 0.84759 0.82599 0.46981 0.0
C409 C 0.8051 0.85087 0.49301 0.0
C410 C 0.83746 0.80133 0.47644 0.0
C411 C 0.78416 0.80088 0.50642 0.0
C412 C 0.74257 0.8259 0.52993 0.0
C413 C 0.75267 0.85051 0.52328 0.0
C414 C 0.77093 0.77529 0.51509 0.0
C415 C 0.79377 0.74845 0.48938 0.0
C416 C 0.77987 0.72315 0.49855 0.0
C417 C 0.82723 0.69914 0.47953 0.0
C418 C 0.81605 0.67484 0.48688 0.0
C419 C 0.75648 0.67377 0.51309 0.0
H420 H 0.68028 0.73956 0.53873 0.0
C421 C 0.70825 0.6976 0.53163 0.0
C422 C 0.71966 0.72198 0.52446 0.0
H423 H 0.66191 0.69752 0.55206 0.0
H424 H 0.88822 0.82544 0.44609 0.0
H425 H 0.87234 0.78296 0.45824 0.0
H426 H 0.7017 0.82642 0.55356 0.0
H427 H 0.71988 0.86939 0.54228 0.0
H428 H 0.74041 0.77898 0.54411 0.0
H429 H 0.82514 0.74452 0.46058 0.0
H430 H 0.87346 0.69922 0.45901 0.0
H431 H 0.85351 0.6567 0.47151 0.0
C432 C 0.3241 0.98949 0.97279 0.0
C433 C 0.27956 0.01158 0.00245 0.0
C434 C 0.40367 0.99094 0.97514 0.0
C435 C 0.44049 0.01457 0.00736 0.0
C436 C 0.39556 0.03624 0.03747 0.0
C437 C 0.31629 0.03475 0.03507 0.0
C438 C 0.52499 0.01712 0.01189 0.0
C439 C 0.57452 1.00259 0.98032 0.0
C440 C 0.65892 1.00571 0.98505 0.0
C441 C 0.70374 0.9973 0.94819 0.0
C442 C 0.78301 0.99942 0.951 0.0
C443 C 0.81955 0.00959 0.99073 0.0
H444 H 0.66404 0.02195 0.05412 0.0
C445 C 0.77512 0.01807 0.02768 0.0
C446 C 0.69577 0.01602 0.02493 0.0
H447 H 0.80182 0.02575 0.05874 0.0
H448 H 0.29743 0.97119 0.94748 0.0
H449 H 0.43563 0.97329 0.95203 0.0
H450 H 0.42187 0.05446 0.0631 0.0
H451 H 0.2838 0.0515 0.05942 0.0
H452 H 0.5467 0.03276 0.04221 0.0
H453 H 0.55291 0.98872 0.94891 0.0
H454 H 0.67734 0.98912 0.91701 0.0
H455 H 0.81574 0.99303 0.922 0.0
C456 C 0.3248 0.02357 0.52237 0.0
C457 C 0.28069 1.00558 0.48731 0.0
C458 C 0.4042 0.02192 0.52099 0.0
C459 C 0.44172 1.00228 0.48424 0.0
C460 C 0.39729 0.98433 0.44927 0.0
C461 C 0.31796 0.98603 0.45066 0.0
C462 C 0.52632 0.9993 0.48089 0.0
C463 C 0.57614 0.01767 0.50905 0.0
C464 C 0.66036 0.01423 0.50508 0.0
C465 C 0.70535 0.02751 0.54186 0.0
C466 C 0.78454 0.02515 0.53963 0.0
C467 C 0.82087 0.0099 0.50037 0.0
H468 H 0.66483 0.98913 0.43635 0.0
C469 C 0.77612 0.99679 0.46345 0.0
C470 C 0.69684 0.99894 0.4657 0.0
H471 H 0.80244 0.98513 0.43262 0.0
H472 H 0.29798 0.03871 0.5513 0.0
H473 H 0.43505 0.03584 0.54917 0.0
H474 H 0.42405 0.96892 0.42053 0.0
H475 H 0.28592 0.97207 0.42286 0.0
H476 H 0.54811 0.98086 0.45372 0.0
H477 H 0.5555 0.03587 0.53685 0.0
H478 H 0.6791 0.03959 0.5726 0.0
H479 H 0.81724 0.03516 0.56875 0.0
C480 C 0.76919 0.50357 0.96494 0.0
C481 C 0.72534 0.51204 0.0021 0.0
C482 C 0.84853 0.50582 0.9673 0.0
C483 C 0.88602 0.5163 0.00701 0.0
C484 C 0.84179 0.52476 0.0441 0.0
C485 C 0.76249 0.52244 0.04167 0.0
C486 C 0.97049 0.5195 0.01124 0.0
C487 C 1.01957 0.50479 0.97948 0.0
C488 C 0.10416 0.50734 0.98352 0.0
C489 C 0.14875 0.48543 0.95359 0.0
C490 C 0.22808 0.48684 0.95567 0.0
C491 C 0.26517 0.5102 0.98777 0.0
H492 H 0.10962 0.54897 0.03809 0.0
C493 C 0.22095 0.53254 0.01718 0.0
C494 C 0.14135 0.53116 0.01515 0.0
H495 H 0.24788 0.55097 0.04213 0.0
H496 H 0.74201 0.49571 0.93398 0.0
H497 H 0.87974 0.49985 0.93795 0.0
H498 H 0.86869 0.53307 0.07516 0.0
H499 H 0.73024 0.52878 0.07082 0.0
H500 H 0.99258 0.53355 0.04245 0.0
H501 H 0.99742 0.48898 0.94942 0.0
H502 H 0.12214 0.46704 0.9284 0.0
H503 H 0.26033 0.46985 0.93159 0.0
C504 C 0.2297 0.53208 0.52242 0.0
C505 C 0.27393 0.50913 0.49446 0.0
C506 C 0.15025 0.5311 0.5197 0.0
C507 C 0.11286 0.50687 0.48911 0.0
C508 C 0.15728 0.4839 0.46128 0.0
C509 C 0.23672 0.48491 0.46408 0.0
C510 C 0.02828 0.50504 0.48425 0.0
C511 C 0.9794 0.52072 0.5155 0.0
C512 C 0.89483 0.51894 0.51103 0.0
C513 C 0.85032 0.52884 0.54815 0.0
C514 C 0.77095 0.52827 0.54578 0.0
C515 C 0.73392 0.51795 0.50616 0.0
H516 H 0.88932 0.50179 0.4419 0.0
C517 C 0.77805 0.50843 0.46896 0.0
C518 C 0.8576 0.50883 0.47128 0.0
H519 H 0.75104 0.50096 0.43803 0.0
H520 H 0.25638 0.5507 0.54686 0.0
H521 H 0.11883 0.54959 0.54123 0.0
H522 H 0.13042 0.46502 0.4372 0.0
H523 H 0.26905 0.46687 0.44191 0.0
H524 H 1.00592 0.4892 0.45426 0.0
H525 H 1.00174 0.53475 0.54667 0.0
H526 H 0.87707 0.53698 0.57924 0.0
H527 H 0.73852 0.53582 0.57505 0.0
C528 C 0.08835 0.02077 0.36543 0.0
C529 C 0.03401 1.00563 0.37729 0.0
C530 C 0.08392 0.02166 0.32588 0.0
C531 C 1.02494 1.00735 0.29723 0.0
C532 C 0.97026 0.99244 0.30928 0.0
C533 C 0.97489 0.99146 0.34881 0.0
C534 C 1.0172 1.0085 0.2554 0.0
C535 C 0.07673 0.01224 0.23395 0.0
C536 C 0.06914 0.0129 0.19183 0.0
C537 C 0.13032 1.00366 0.16329 0.0
C538 C 0.12484 1.00353 0.12309 0.0
C539 C 0.0586 0.01323 0.11104 0.0
H540 H 0.95561 0.03105 0.20159 0.0
C541 C 0.99796 0.02317 0.1399 0.0
C542 C 1.00311 0.02303 0.17996 0.0
H543 H 0.94594 0.03052 0.13119 0.0
H544 H 0.1342 0.03214 0.38686 0.0
H545 H 0.1258 0.03414 0.3184 0.0
H546 H 0.92375 0.98152 0.28804 0.0
H547 H 0.93125 0.9801 0.35739 0.0
H548 H 0.96109 1.00473 0.24095 0.0
H549 H 0.13386 0.0131 0.24627 0.0
H550 H 0.18207 0.99603 0.17182 0.0
H551 H 0.17245 0.99583 0.1014 0.0
C552 C 0.12229 0.99384 0.84933 0.0
C553 C 0.06592 1.00866 0.87922 0.0
C554 C 0.12011 0.99279 0.80837 0.0
C555 C 0.06064 1.0061 0.79658 0.0
C556 C 1.00389 0.02046 0.82629 0.0
C557 C 1.00696 0.02205 0.86733 0.0
C558 C 0.05403 1.00446 0.75314 0.0
C559 C 0.11429 1.00517 0.72985 0.0
C560 C 0.10495 1.00522 0.68747 0.0
C561 C 0.15417 0.02165 0.67511 0.0
C562 C 0.14419 0.02288 0.63597 0.0
C563 C 0.08566 1.00721 0.60817 0.0
H564 H 1.00959 0.9757 0.66748 0.0
C565 C 0.0379 0.99009 0.62006 0.0
C566 C 0.04726 0.98916 0.65933 0.0
H567 H 0.99259 0.97759 0.59925 0.0
H568 H 0.16811 0.98323 0.85768 0.0
H569 H 0.16382 0.98104 0.78574 0.0
H570 H 0.95719 0.03064 0.8178 0.0
H571 H 0.96206 0.0333 0.88948 0.0
H572 H 0.99707 1.00484 0.74126 0.0
H573 H 0.17104 1.00793 0.74339 0.0
H574 H 0.19943 0.034 0.69614 0.0
H575 H 0.18247 0.03599 0.62742 0.0
C576 C 0.42993 0.49722 0.35258 0.0
C577 C 0.48822 0.51144 0.38168 0.0
C578 C 0.42932 0.49695 0.31204 0.0
C579 C 0.48793 0.51039 0.29982 0.0
C580 C 0.54648 0.5242 0.32877 0.0
C581 C 0.54611 0.52509 0.36946 0.0
C582 C 0.49237 0.50903 0.25641 0.0
C583 C 0.43123 0.51037 0.23405 0.0
C584 C 0.43903 0.50983 0.19116 0.0
C585 C 0.39209 0.52708 0.17918 0.0
C586 C 0.40133 0.52768 0.1395 0.0
C587 C 0.45659 0.5105 0.11075 0.0
H588 H 0.52898 0.47818 0.16994 0.0
C589 C 0.50167 0.49252 0.12233 0.0
C590 C 0.49321 0.49227 0.16208 0.0
H591 H 0.54457 0.47887 0.10097 0.0
H592 H 0.38473 0.48651 0.36126 0.0
H593 H 0.38422 0.48562 0.29 0.0
H594 H 0.5926 0.53447 0.31992 0.0
H595 H 0.59225 0.53597 0.39104 0.0
H596 H 0.5488 0.50873 0.24352 0.0
H597 H 0.37521 0.51378 0.24848 0.0
H598 H 0.34944 0.5406 0.20094 0.0
H599 H 0.36524 0.54154 0.13134 0.0
C600 C 0.54081 0.52918 0.64554 0.0
C601 C 0.48428 0.51696 0.61435 0.0
C602 C 0.53354 0.52892 0.68546 0.0
C603 C 0.46945 0.5164 0.69494 0.0
C604 C 0.41211 0.5049 0.66409 0.0
C605 C 0.41979 0.50489 0.62403 0.0
C606 C 0.46017 0.51534 0.73679 0.0
C607 C 0.51944 0.51341 0.76002 0.0
C608 C 0.51111 0.51157 0.8014 0.0
C609 C 0.56944 0.49884 0.81485 0.0
C610 C 0.56517 0.49757 0.85417 0.0
C611 C 0.50268 0.50928 0.88115 0.0
H612 H 0.40329 0.53399 0.81979 0.0
C613 C 0.44436 0.52214 0.86789 0.0
C614 C 0.44838 0.52326 0.82841 0.0
H615 H 0.39592 0.53161 0.88827 0.0
H616 H 0.59153 0.53837 0.63878 0.0
H617 H 0.57795 0.53867 0.70883 0.0
H618 H 0.36186 0.49538 0.6707 0.0
H619 H 0.37529 0.4954 0.60056 0.0
H620 H 0.40264 0.51425 0.74724 0.0
H621 H 0.57653 0.51164 0.74729 0.0
H622 H 0.6188 0.48996 0.79496 0.0
H623 H 0.6119 0.48812 0.86393 0.0
loop_
_geom_bond_atom_site_label_1
_geom_bond_atom_site_label_2
_geom_bond_distance
_geom_bond_site_symmetry_2
_ccdc_geom_bond_type
Eu0 N29 2.600 . S
Eu0 N35 2.562 . S
Eu0 O44 2.462 1_655 S
Eu0 O45 2.373 . S
Eu0 O47 2.432 1_655 S
Eu0 O48 2.291 1_556 S
Eu0 O52 2.335 1_655 S
Eu0 O55 2.372 1_655 S
Eu0 C64 2.787 1_655 S
C1 N2 1.365 . S
C1 C4 1.405 . S
C1 C8 1.448 . S
N2 C1 1.365 . S
N2 C5 1.319 . S
N2 Eu11 2.600 . S
C3 C5 1.397 . S
C3 C6 1.367 . S
C3 H23 0.931 . S
C4 C1 1.405 . S
C4 C6 1.403 . S
C4 C10 1.439 . S
C5 N2 1.319 . S
C5 C3 1.397 . S
C5 H16 0.930 . S
C6 C3 1.367 . S
C6 C4 1.403 . S
C6 H27 0.929 . S
C7 C8 1.430 . S
C7 C9 1.387 . S
C7 C13 1.404 . S
C8 C1 1.448 . S
C8 C7 1.430 . S
C8 N12 1.351 . S
C9 C7 1.387 . S
C9 C10 1.374 . S
C9 H24 0.931 . S
C10 C4 1.439 . S
C10 C9 1.374 . S
C10 H25 0.931 . S
Eu11 N2 2.600 . S
Eu11 N12 2.562 . S
Eu11 O46 2.335 1_455 S
Eu11 O49 2.372 1_455 S
Eu11 O50 2.462 1_455 S
Eu11 O51 2.373 . S
Eu11 O53 2.432 1_455 S
Eu11 O54 2.291 1_554 S
Eu11 C75 2.787 1_455 S
N12 C8 1.351 . S
N12 Eu11 2.562 . S
N12 C14 1.325 1_554 S
C13 C7 1.404 . S
C13 C15 1.366 1_554 S
C13 H21 0.930 1_554 S
C14 N12 1.325 1_556 S
C14 C15 1.416 . S
C14 H20 0.929 . S
C15 C13 1.366 1_556 S
C15 C14 1.416 . S
C15 H17 0.930 . S
H16 C5 0.930 . S
H17 C15 0.930 . S
H18 C33 0.930 . S
H19 C40 0.930 . S
H20 C14 0.929 . S
H21 C13 0.930 1_556 S
H22 C36 0.929 . S
H23 C3 0.931 . S
H24 C9 0.931 . S
H25 C10 0.931 . S
H26 C31 0.931 . S
H27 C6 0.929 . S
H28 C39 0.930 1_554 S
N29 Eu0 2.600 . S
N29 C30 1.365 . S
N29 C33 1.319 . S
C30 N29 1.365 . S
C30 C32 1.405 . S
C30 C38 1.448 . S
C31 H26 0.931 . S
C31 C33 1.397 . S
C31 C34 1.367 . S
C32 C30 1.405 . S
C32 C34 1.403 . S
C32 C65 1.439 . S
C33 H18 0.930 . S
C33 N29 1.319 . S
C33 C31 1.397 . S
C34 C31 1.367 . S
C34 C32 1.403 . S
C34 H41 0.929 . S
N35 Eu0 2.562 . S
N35 C36 1.325 1_556 S
N35 C38 1.351 . S
C36 H22 0.929 . S
C36 N35 1.325 1_554 S
C36 C40 1.416 . S
C37 C38 1.430 . S
C37 C39 1.404 . S
C37 C66 1.387 . S
C38 C30 1.448 . S
C38 N35 1.351 . S
C38 C37 1.430 . S
C39 H28 0.930 1_556 S
C39 C37 1.404 . S
C39 C40 1.366 1_556 S
C40 H19 0.930 . S
C40 C36 1.416 . S
C40 C39 1.366 1_554 S
H41 C34 0.929 . S
H42 C65 0.931 . S
H43 C66 0.931 . S
O44 Eu0 2.462 1_455 S
O44 C64 1.252 . S
O45 Eu0 2.373 . S
O45 C56 1.249 1_565 S
O46 Eu11 2.335 1_655 S
O46 C56 1.264 1_554 S
O47 Eu0 2.432 1_455 S
O47 C64 1.268 . S
O48 Eu0 2.291 1_554 S
O48 C63 1.255 1_565 S
O49 Eu11 2.372 1_655 S
O49 C63 1.257 . S
O50 Eu11 2.462 1_655 S
O50 C75 1.252 . S
O51 Eu11 2.373 . S
O51 C67 1.249 1_545 S
O52 Eu0 2.335 1_455 S
O52 C67 1.264 1_556 S
O53 Eu11 2.432 1_655 S
O53 C75 1.268 . S
O54 Eu11 2.291 1_556 S
O54 C74 1.255 1_545 S
O55 Eu0 2.372 1_455 S
O55 C74 1.257 . S
C56 O45 1.249 1_545 S
C56 O46 1.264 1_556 S
C57 C60 1.382 . S
C57 C62 1.390 . S
C57 C64 1.506 . S
C58 C59 1.398 . S
C58 C62 1.392 . S
C59 C58 1.398 . S
C59 C61 1.372 . S
C59 H76 0.931 . S
C60 C57 1.382 . S
C60 C61 1.390 . S
C60 H77 0.931 . S
C61 C59 1.372 . S
C61 C60 1.390 . S
C61 H78 0.929 . S
C62 C57 1.390 . S
C62 C58 1.392 . S
C62 H79 0.930 1_556 S
C63 O48 1.255 1_545 S
C63 O49 1.257 . S
C64 Eu0 2.787 1_455 S
C64 O44 1.252 . S
C64 O47 1.268 . S
C64 C57 1.506 . S
C65 C32 1.439 . S
C65 H42 0.931 . S
C65 C66 1.374 . S
C66 C37 1.387 . S
C66 H43 0.931 . S
C66 C65 1.374 . S
C67 O51 1.249 1_565 S
C67 O52 1.264 1_554 S
C68 C71 1.382 . S
C68 C72 1.390 . S
C68 C75 1.506 . S
C69 C70 1.398 . S
C69 C72 1.392 . S
C70 C69 1.398 . S
C70 C73 1.372 . S
C70 H80 0.931 . S
C71 C68 1.382 . S
C71 C73 1.390 . S
C71 H81 0.931 . S
C72 C68 1.390 . S
C72 C69 1.392 . S
C72 H82 0.930 1_554 S
C73 C70 1.372 . S
C73 C71 1.390 . S
C73 H83 0.929 . S
C74 O54 1.255 1_565 S
C74 O55 1.257 . S
C75 Eu11 2.787 1_655 S
C75 O50 1.252 . S
C75 O53 1.268 . S
C75 C68 1.506 . S
H76 C59 0.931 . S
H77 C60 0.931 . S
H78 C61 0.929 . S
H79 C62 0.930 1_554 S
H80 C70 0.931 . S
H81 C71 0.931 . S
H82 C72 0.930 1_556 S
H83 C73 0.929 . S
Eu84 N113 2.600 . S
Eu84 N119 2.562 . S
Eu84 O128 2.462 1_655 S
Eu84 O129 2.373 . S
Eu84 O131 2.432 1_655 S
Eu84 O132 2.291 . S
Eu84 O136 2.335 1_655 S
Eu84 O139 2.372 1_655 S
Eu84 C148 2.787 1_655 S
C85 N86 1.365 . S
C85 C88 1.405 . S
C85 C92 1.448 . S
N86 C85 1.365 . S
N86 C89 1.319 . S
N86 Eu95 2.600 . S
C87 C89 1.397 . S
C87 C90 1.367 . S
C87 H107 0.931 . S
C88 C85 1.405 . S
C88 C90 1.403 . S
C88 C94 1.439 . S
C89 N86 1.319 . S
C89 C87 1.397 . S
C89 H100 0.930 . S
C90 C87 1.367 . S
C90 C88 1.403 . S
C90 H111 0.929 . S
C91 C92 1.430 . S
C91 C93 1.387 . S
C91 C97 1.404 . S
C92 C85 1.448 . S
C92 C91 1.430 . S
C92 N96 1.351 . S
C93 C91 1.387 . S
C93 C94 1.374 . S
C93 H108 0.931 . S
C94 C88 1.439 . S
C94 C93 1.374 . S
C94 H109 0.931 . S
Eu95 N86 2.600 . S
Eu95 N96 2.562 . S
Eu95 O130 2.335 1_455 S
Eu95 O133 2.372 1_455 S
Eu95 O134 2.462 1_455 S
Eu95 O135 2.373 . S
Eu95 O137 2.432 1_455 S
Eu95 O138 2.291 . S
Eu95 C159 2.787 1_455 S
N96 C92 1.351 . S
N96 Eu95 2.562 . S
N96 C98 1.325 . S
C97 C91 1.404 . S
C97 C99 1.366 . S
C97 H105 0.930 . S
C98 N96 1.325 . S
C98 C99 1.416 . S
C98 H104 0.929 . S
C99 C97 1.366 . S
C99 C98 1.416 . S
C99 H101 0.930 . S
H100 C89 0.930 . S
H101 C99 0.930 . S
H102 C117 0.930 . S
H103 C124 0.930 . S
H104 C98 0.929 . S
H105 C97 0.930 . S
H106 C120 0.929 . S
H107 C87 0.931 . S
H108 C93 0.931 . S
H109 C94 0.931 . S
H110 C115 0.931 . S
H111 C90 0.929 . S
H112 C123 0.930 . S
N113 Eu84 2.600 . S
N113 C114 1.365 . S
N113 C117 1.319 . S
C114 N113 1.365 . S
C114 C116 1.405 . S
C114 C122 1.448 . S
C115 H110 0.931 . S
C115 C117 1.397 . S
C115 C118 1.367 . S
C116 C114 1.405 . S
C116 C118 1.403 . S
C116 C149 1.439 . S
C117 H102 0.930 . S
C117 N113 1.319 . S
C117 C115 1.397 . S
C118 C115 1.367 . S
C118 C116 1.403 . S
C118 H125 0.929 . S
N119 Eu84 2.562 . S
N119 C120 1.325 . S
N119 C122 1.351 . S
C120 H106 0.929 . S
C120 N119 1.325 . S
C120 C124 1.416 . S
C121 C122 1.430 . S
C121 C123 1.404 . S
C121 C150 1.387 . S
C122 C114 1.448 . S
C122 N119 1.351 . S
C122 C121 1.430 . S
C123 H112 0.930 . S
C123 C121 1.404 . S
C123 C124 1.366 . S
C124 H103 0.930 . S
C124 C120 1.416 . S
C124 C123 1.366 . S
H125 C118 0.929 . S
H126 C149 0.931 . S
H127 C150 0.931 . S
O128 Eu84 2.462 1_455 S
O128 C148 1.252 . S
O129 Eu84 2.373 . S
O129 C140 1.249 1_545 S
O130 Eu95 2.335 1_655 S
O130 C140 1.264 . S
O131 Eu84 2.432 1_455 S
O131 C148 1.268 . S
O132 Eu84 2.291 . S
O132 C147 1.255 1_545 S
O133 Eu95 2.372 1_655 S
O133 C147 1.257 . S
O134 Eu95 2.462 1_655 S
O134 C159 1.252 . S
O135 Eu95 2.373 . S
O135 C151 1.249 1_565 S
O136 Eu84 2.335 1_455 S
O136 C151 1.264 . S
O137 Eu95 2.432 1_655 S
O137 C159 1.268 . S
O138 Eu95 2.291 . S
O138 C158 1.255 1_565 S
O139 Eu84 2.372 1_455 S
O139 C158 1.257 . S
C140 O129 1.249 1_565 S
C140 O130 1.264 . S
C141 C144 1.382 . S
C141 C146 1.390 . S
C141 C148 1.506 . S
C142 C143 1.398 . S
C142 C146 1.392 . S
C143 C142 1.398 . S
C143 C145 1.372 . S
C143 H160 0.931 . S
C144 C141 1.382 . S
C144 C145 1.390 . S
C144 H161 0.931 . S
C145 C143 1.372 . S
C145 C144 1.390 . S
C145 H162 0.929 . S
C146 C141 1.390 . S
C146 C142 1.392 . S
C146 H163 0.930 . S
C147 O132 1.255 1_565 S
C147 O133 1.257 . S
C148 Eu84 2.787 1_455 S
C148 O128 1.252 . S
C148 O131 1.268 . S
C148 C141 1.506 . S
C149 C116 1.439 . S
C149 H126 0.931 . S
C149 C150 1.374 . S
C150 C121 1.387 . S
C150 H127 0.931 . S
C150 C149 1.374 . S
C151 O135 1.249 1_545 S
C151 O136 1.264 . S
C152 C155 1.382 . S
C152 C156 1.390 . S
C152 C159 1.506 . S
C153 C154 1.398 . S
C153 C156 1.392 . S
C154 C153 1.398 . S
C154 C157 1.372 . S
C154 H164 0.931 . S
C155 C152 1.382 . S
C155 C157 1.390 . S
C155 H165 0.931 . S
C156 C152 1.390 . S
C156 C153 1.392 . S
C156 H166 0.930 . S
C157 C154 1.372 . S
C157 C155 1.390 . S
C157 H167 0.929 . S
C158 O138 1.255 1_545 S
C158 O139 1.257 . S
C159 Eu95 2.787 1_655 S
C159 O134 1.252 . S
C159 O137 1.268 . S
C159 C152 1.506 . S
H160 C143 0.931 . S
H161 C144 0.931 . S
H162 C145 0.929 . S
H163 C146 0.930 . S
H164 C154 0.931 . S
H165 C155 0.931 . S
H166 C156 0.930 . S
H167 C157 0.929 . S
Eu168 N197 2.600 . S
Eu168 N203 2.562 . S
Eu168 O212 2.462 . S
Eu168 O213 2.373 . S
Eu168 O215 2.432 . S
Eu168 O216 2.291 1_556 S
Eu168 O220 2.335 . S
Eu168 O223 2.372 . S
Eu168 C232 2.787 . S
C169 N170 1.365 . S
C169 C172 1.405 . S
C169 C176 1.448 . S
N170 C169 1.365 . S
N170 C173 1.319 . S
N170 Eu179 2.600 . S
C171 C173 1.397 . S
C171 C174 1.367 . S
C171 H191 0.931 . S
C172 C169 1.405 . S
C172 C174 1.403 . S
C172 C178 1.439 . S
C173 N170 1.319 . S
C173 C171 1.397 . S
C173 H184 0.930 . S
C174 C171 1.367 . S
C174 C172 1.403 . S
C174 H195 0.929 . S
C175 C176 1.430 . S
C175 C177 1.387 . S
C175 C181 1.404 . S
C176 C169 1.448 . S
C176 C175 1.430 . S
C176 N180 1.351 . S
C177 C175 1.387 . S
C177 C178 1.374 . S
C177 H192 0.931 . S
C178 C172 1.439 . S
C178 C177 1.374 . S
C178 H193 0.931 . S
Eu179 N170 2.600 . S
Eu179 N180 2.562 . S
Eu179 O214 2.335 . S
Eu179 O217 2.372 . S
Eu179 O218 2.462 . S
Eu179 O219 2.373 . S
Eu179 O221 2.432 . S
Eu179 O222 2.291 1_554 S
Eu179 C243 2.787 . S
N180 C176 1.351 . S
N180 Eu179 2.562 . S
N180 C182 1.325 1_554 S
C181 C175 1.404 . S
C181 C183 1.366 1_554 S
C181 H189 0.930 1_554 S
C182 N180 1.325 1_556 S
C182 C183 1.416 . S
C182 H188 0.929 . S
C183 C181 1.366 1_556 S
C183 C182 1.416 . S
C183 H185 0.930 . S
H184 C173 0.930 . S
H185 C183 0.930 . S
H186 C201 0.930 . S
H187 C208 0.930 . S
H188 C182 0.929 . S
H189 C181 0.930 1_556 S
H190 C204 0.929 . S
H191 C171 0.931 . S
H192 C177 0.931 . S
H193 C178 0.931 . S
H194 C199 0.931 . S
H195 C174 0.929 . S
H196 C207 0.930 1_554 S
N197 Eu168 2.600 . S
N197 C198 1.365 . S
N197 C201 1.319 . S
C198 N197 1.365 . S
C198 C200 1.405 . S
C198 C206 1.448 . S
C199 H194 0.931 . S
C199 C201 1.397 . S
C199 C202 1.367 . S
C200 C198 1.405 . S
C200 C202 1.403 . S
C200 C233 1.439 . S
C201 H186 0.930 . S
C201 N197 1.319 . S
C201 C199 1.397 . S
C202 C199 1.367 . S
C202 C200 1.403 . S
C202 H209 0.929 . S
N203 Eu168 2.562 . S
N203 C204 1.325 1_556 S
N203 C206 1.351 . S
C204 H190 0.929 . S
C204 N203 1.325 1_554 S
C204 C208 1.416 . S
C205 C206 1.430 . S
C205 C207 1.404 . S
C205 C234 1.387 . S
C206 C198 1.448 . S
C206 N203 1.351 . S
C206 C205 1.430 . S
C207 H196 0.930 1_556 S
C207 C205 1.404 . S
C207 C208 1.366 1_556 S
C208 H187 0.930 . S
C208 C204 1.416 . S
C208 C207 1.366 1_554 S
H209 C202 0.929 . S
H210 C233 0.931 . S
H211 C234 0.931 . S
O212 Eu168 2.462 . S
O212 C232 1.252 . S
O213 Eu168 2.373 . S
O213 C224 1.249 . S
O214 Eu179 2.335 . S
O214 C224 1.264 1_554 S
O215 Eu168 2.432 . S
O215 C232 1.268 . S
O216 Eu168 2.291 1_554 S
O216 C231 1.255 . S
O217 Eu179 2.372 . S
O217 C231 1.257 . S
O218 Eu179 2.462 . S
O218 C243 1.252 . S
O219 Eu179 2.373 . S
O219 C235 1.249 . S
O220 Eu168 2.335 . S
O220 C235 1.264 1_556 S
O221 Eu179 2.432 . S
O221 C243 1.268 . S
O222 Eu179 2.291 1_556 S
O222 C242 1.255 . S
O223 Eu168 2.372 . S
O223 C242 1.257 . S
C224 O213 1.249 . S
C224 O214 1.264 1_556 S
C225 C228 1.382 . S
C225 C230 1.390 . S
C225 C232 1.506 . S
C226 C227 1.398 . S
C226 C230 1.392 . S
C227 C226 1.398 . S
C227 C229 1.372 . S
C227 H244 0.931 . S
C228 C225 1.382 . S
C228 C229 1.390 . S
C228 H245 0.931 . S
C229 C227 1.372 . S
C229 C228 1.390 . S
C229 H246 0.929 . S
C230 C225 1.390 . S
C230 C226 1.392 . S
C230 H247 0.930 1_556 S
C231 O216 1.255 . S
C231 O217 1.257 . S
C232 Eu168 2.787 . S
C232 O212 1.252 . S
C232 O215 1.268 . S
C232 C225 1.506 . S
C233 C200 1.439 . S
C233 H210 0.931 . S
C233 C234 1.374 . S
C234 C205 1.387 . S
C234 H211 0.931 . S
C234 C233 1.374 . S
C235 O219 1.249 . S
C235 O220 1.264 1_554 S
C236 C239 1.382 . S
C236 C240 1.390 . S
C236 C243 1.506 . S
C237 C238 1.398 . S
C237 C240 1.392 . S
C238 C237 1.398 . S
C238 C241 1.372 . S
C238 H248 0.931 . S
C239 C236 1.382 . S
C239 C241 1.390 . S
C239 H249 0.931 . S
C240 C236 1.390 . S
C240 C237 1.392 . S
C240 H250 0.930 1_554 S
C241 C238 1.372 . S
C241 C239 1.390 . S
C241 H251 0.929 . S
C242 O222 1.255 . S
C242 O223 1.257 . S
C243 Eu179 2.787 . S
C243 O218 1.252 . S
C243 O221 1.268 . S
C243 C236 1.506 . S
H244 C227 0.931 . S
H245 C228 0.931 . S
H246 C229 0.929 . S
H247 C230 0.930 1_554 S
H248 C238 0.931 . S
H249 C239 0.931 . S
H250 C240 0.930 1_556 S
H251 C241 0.929 . S
Eu252 N281 2.600 . S
Eu252 N287 2.562 . S
Eu252 O296 2.462 . S
Eu252 O297 2.373 . S
Eu252 O299 2.432 . S
Eu252 O300 2.291 . S
Eu252 O304 2.335 . S
Eu252 O307 2.372 . S
Eu252 C316 2.787 . S
C253 N254 1.365 . S
C253 C256 1.405 . S
C253 C260 1.448 . S
N254 C253 1.365 . S
N254 C257 1.319 . S
N254 Eu263 2.600 . S
C255 C257 1.397 . S
C255 C258 1.367 . S
C255 H275 0.931 . S
C256 C253 1.405 . S
C256 C258 1.403 . S
C256 C262 1.439 . S
C257 N254 1.319 . S
C257 C255 1.397 . S
C257 H268 0.930 . S
C258 C255 1.367 . S
C258 C256 1.403 . S
C258 H279 0.929 . S
C259 C260 1.430 . S
C259 C261 1.387 . S
C259 C265 1.404 . S
C260 C253 1.448 . S
C260 C259 1.430 . S
C260 N264 1.351 . S
C261 C259 1.387 . S
C261 C262 1.374 . S
C261 H276 0.931 . S
C262 C256 1.439 . S
C262 C261 1.374 . S
C262 H277 0.931 . S
Eu263 N254 2.600 . S
Eu263 N264 2.562 . S
Eu263 O298 2.335 . S
Eu263 O301 2.372 . S
Eu263 O302 2.462 . S
Eu263 O303 2.373 . S
Eu263 O305 2.432 . S
Eu263 O306 2.291 . S
Eu263 C327 2.787 . S
N264 C260 1.351 . S
N264 Eu263 2.562 . S
N264 C266 1.325 . S
C265 C259 1.404 . S
C265 C267 1.366 . S
C265 H273 0.930 . S
C266 N264 1.325 . S
C266 C267 1.416 . S
C266 H272 0.929 . S
C267 C265 1.366 . S
C267 C266 1.416 . S
C267 H269 0.930 . S
H268 C257 0.930 . S
H269 C267 0.930 . S
H270 C285 0.930 . S
H271 C292 0.930 . S
H272 C266 0.929 . S
H273 C265 0.930 . S
H274 C288 0.929 . S
H275 C255 0.931 . S
H276 C261 0.931 . S
H277 C262 0.931 . S
H278 C283 0.931 . S
H279 C258 0.929 . S
H280 C291 0.930 . S
N281 Eu252 2.600 . S
N281 C282 1.365 . S
N281 C285 1.319 . S
C282 N281 1.365 . S
C282 C284 1.405 . S
C282 C290 1.448 . S
C283 H278 0.931 . S
C283 C285 1.397 . S
C283 C286 1.367 . S
C284 C282 1.405 . S
C284 C286 1.403 . S
C284 C317 1.439 . S
C285 H270 0.930 . S
C285 N281 1.319 . S
C285 C283 1.397 . S
C286 C283 1.367 . S
C286 C284 1.403 . S
C286 H293 0.929 . S
N287 Eu252 2.562 . S
N287 C288 1.325 . S
N287 C290 1.351 . S
C288 H274 0.929 . S
C288 N287 1.325 . S
C288 C292 1.416 . S
C289 C290 1.430 . S
C289 C291 1.404 . S
C289 C318 1.387 . S
C290 C282 1.448 . S
C290 N287 1.351 . S
C290 C289 1.430 . S
C291 H280 0.930 . S
C291 C289 1.404 . S
C291 C292 1.366 . S
C292 H271 0.930 . S
C292 C288 1.416 . S
C292 C291 1.366 . S
H293 C286 0.929 . S
H294 C317 0.931 . S
H295 C318 0.931 . S
O296 Eu252 2.462 . S
O296 C316 1.252 . S
O297 Eu252 2.373 . S
O297 C308 1.249 . S
O298 Eu263 2.335 . S
O298 C308 1.264 . S
O299 Eu252 2.432 . S
O299 C316 1.268 . S
O300 Eu252 2.291 . S
O300 C315 1.255 . S
O301 Eu263 2.372 . S
O301 C315 1.257 . S
O302 Eu263 2.462 . S
O302 C327 1.252 . S
O303 Eu263 2.373 . S
O303 C319 1.249 . S
O304 Eu252 2.335 . S
O304 C319 1.264 . S
O305 Eu263 2.432 . S
O305 C327 1.268 . S
O306 Eu263 2.291 . S
O306 C326 1.255 . S
O307 Eu252 2.372 . S
O307 C326 1.257 . S
C308 O297 1.249 . S
C308 O298 1.264 . S
C309 C312 1.382 . S
C309 C314 1.390 . S
C309 C316 1.506 . S
C310 C311 1.398 . S
C310 C314 1.392 . S
C311 C310 1.398 . S
C311 C313 1.372 . S
C311 H328 0.931 . S
C312 C309 1.382 . S
C312 C313 1.390 . S
C312 H329 0.931 . S
C313 C311 1.372 . S
C313 C312 1.390 . S
C313 H330 0.929 . S
C314 C309 1.390 . S
C314 C310 1.392 . S
C314 H331 0.930 . S
C315 O300 1.255 . S
C315 O301 1.257 . S
C316 Eu252 2.787 . S
C316 O296 1.252 . S
C316 O299 1.268 . S
C316 C309 1.506 . S
C317 C284 1.439 . S
C317 H294 0.931 . S
C317 C318 1.374 . S
C318 C289 1.387 . S
C318 H295 0.931 . S
C318 C317 1.374 . S
C319 O303 1.249 . S
C319 O304 1.264 . S
C320 C323 1.382 . S
C320 C324 1.390 . S
C320 C327 1.506 . S
C321 C322 1.398 . S
C321 C324 1.392 . S
C322 C321 1.398 . S
C322 C325 1.372 . S
C322 H332 0.931 . S
C323 C320 1.382 . S
C323 C325 1.390 . S
C323 H333 0.931 . S
C324 C320 1.390 . S
C324 C321 1.392 . S
C324 H334 0.930 . S
C325 C322 1.372 . S
C325 C323 1.390 . S
C325 H335 0.929 . S
C326 O306 1.255 . S
C326 O307 1.257 . S
C327 Eu263 2.787 . S
C327 O302 1.252 . S
C327 O305 1.268 . S
C327 C320 1.506 . S
H328 C311 0.931 . S
H329 C312 0.931 . S
H330 C313 0.929 . S
H331 C314 0.930 . S
H332 C322 0.931 . S
H333 C323 0.931 . S
H334 C324 0.930 . S
H335 C325 0.929 . S
C336 C337 1.383 . S
C336 C338 1.383 . S
C336 H352 0.951 . S
C337 C336 1.383 . S
C337 C341 1.384 1_556 S
C338 C336 1.383 . S
C338 C339 1.402 1_556 S
C338 H353 0.951 . S
C339 C338 1.402 1_554 S
C339 C340 1.375 . S
C339 C342 1.481 . S
C340 C339 1.375 . S
C340 C341 1.367 . S
C340 H354 0.951 . S
C341 C337 1.384 1_554 S
C341 C340 1.367 . S
C341 H355 0.950 . S
C342 C339 1.481 . S
C342 C343 1.297 1_554 S
C342 H356 0.950 . S
C343 C342 1.297 1_556 S
C343 C344 1.479 . S
C343 H357 0.950 . S
C344 C343 1.479 . S
C344 C345 1.375 . S
C344 C350 1.404 1_556 S
C345 C344 1.375 . S
C345 C346 1.369 . S
C345 H358 0.950 . S
C346 C345 1.369 . S
C346 C347 1.392 . S
C346 H359 0.951 . S
C347 C346 1.392 . S
C347 C349 1.384 1_556 S
H348 C350 0.949 . S
C349 C347 1.384 1_554 S
C349 C350 1.385 . S
C349 H351 0.950 . S
C350 C344 1.404 1_554 S
C350 H348 0.949 . S
C350 C349 1.385 . S
H351 C349 0.950 . S
H352 C336 0.951 . S
H353 C338 0.951 . S
H354 C340 0.951 . S
H355 C341 0.950 . S
H356 C342 0.950 . S
H357 C343 0.950 . S
H358 C345 0.950 . S
H359 C346 0.951 . S
C360 C361 1.386 . S
C360 C362 1.383 . S
C360 H376 0.951 . S
C361 C360 1.386 . S
C361 C365 1.383 1_554 S
C362 C360 1.383 . S
C362 C363 1.402 . S
C362 H377 0.951 . S
C363 C362 1.402 . S
C363 C364 1.375 1_554 S
C363 C366 1.477 . S
C364 C363 1.375 1_556 S
C364 C365 1.367 . S
C364 H378 0.951 . S
C365 C361 1.383 1_556 S
C365 C364 1.367 . S
C365 H379 0.950 . S
C366 C363 1.477 . S
C366 C367 1.304 . S
C366 H380 0.947 1_554 S
C367 C366 1.304 . S
C367 C368 1.479 . S
C367 H381 0.950 . S
C368 C367 1.479 . S
C368 C369 1.375 . S
C368 C374 1.404 1_554 S
C369 C368 1.375 . S
C369 C370 1.369 . S
C369 H382 0.950 . S
C370 C369 1.369 . S
C370 C371 1.392 . S
C370 H383 0.951 . S
C371 C370 1.392 . S
C371 C373 1.384 1_554 S
H372 C374 0.949 . S
C373 C371 1.384 1_556 S
C373 C374 1.385 . S
C373 H375 0.950 . S
C374 C368 1.404 1_556 S
C374 H372 0.949 . S
C374 C373 1.385 . S
H375 C373 0.950 . S
H376 C360 0.951 . S
H377 C362 0.951 . S
H378 C364 0.951 . S
H379 C365 0.950 . S
H380 C366 0.947 1_556 S
H381 C367 0.950 . S
H382 C369 0.950 . S
H383 C370 0.951 . S
C384 C385 1.386 . S
C384 C386 1.383 . S
C384 H400 0.951 . S
C385 C384 1.386 . S
C385 C389 1.383 . S
C386 C384 1.383 . S
C386 C387 1.402 . S
C386 H401 0.951 . S
C387 C386 1.402 . S
C387 C388 1.375 . S
C387 C390 1.481 . S
C388 C387 1.375 . S
C388 C389 1.367 . S
C388 H402 0.951 . S
C389 C385 1.383 . S
C389 C388 1.367 . S
C389 H403 0.950 . S
C390 C387 1.481 . S
C390 C391 1.297 . S
C390 H404 0.950 . S
C391 C390 1.297 . S
C391 C392 1.479 . S
C391 H405 0.950 . S
C392 C391 1.479 . S
C392 C393 1.375 . S
C392 C398 1.404 . S
C393 C392 1.375 . S
C393 C394 1.369 . S
C393 H406 0.950 . S
C394 C393 1.369 . S
C394 C395 1.392 . S
C394 H407 0.951 . S
C395 C394 1.392 . S
C395 C397 1.384 . S
H396 C398 0.949 . S
C397 C395 1.384 . S
C397 C398 1.385 . S
C397 H399 0.950 . S
C398 C392 1.404 . S
C398 H396 0.949 . S
C398 C397 1.385 . S
H399 C397 0.950 . S
H400 C384 0.951 . S
H401 C386 0.951 . S
H402 C388 0.951 . S
H403 C389 0.950 . S
H404 C390 0.950 . S
H405 C391 0.950 . S
H406 C393 0.950 . S
H407 C394 0.951 . S
C408 C409 1.386 . S
C408 C410 1.383 . S
C408 H424 0.951 . S
C409 C408 1.386 . S
C409 C413 1.383 . S
C410 C408 1.383 . S
C410 C411 1.402 . S
C410 H425 0.951 . S
C411 C410 1.402 . S
C411 C412 1.375 . S
C411 C414 1.481 . S
C412 C411 1.375 . S
C412 C413 1.367 . S
C412 H426 0.951 . S
C413 C409 1.383 . S
C413 C412 1.367 . S
C413 H427 0.950 . S
C414 C411 1.481 . S
C414 C415 1.297 . S
C414 H428 0.950 . S
C415 C414 1.297 . S
C415 C416 1.479 . S
C415 H429 0.950 . S
C416 C415 1.479 . S
C416 C417 1.375 . S
C416 C422 1.404 . S
C417 C416 1.375 . S
C417 C418 1.369 . S
C417 H430 0.950 . S
C418 C417 1.369 . S
C418 C419 1.392 . S
C418 H431 0.951 . S
C419 C418 1.392 . S
C419 C421 1.384 . S
H420 C422 0.949 . S
C421 C419 1.384 . S
C421 C422 1.385 . S
C421 H423 0.950 . S
C422 C416 1.404 . S
C422 H420 0.949 . S
C422 C421 1.385 . S
H423 C421 0.950 . S
H424 C408 0.951 . S
H425 C410 0.951 . S
H426 C412 0.951 . S
H427 C413 0.950 . S
H428 C414 0.950 . S
H429 C415 0.950 . S
H430 C417 0.950 . S
H431 C418 0.951 . S
C432 C433 1.378 1_566 S
C432 C434 1.383 . S
C432 H448 0.951 . S
C433 C432 1.378 1_544 S
C433 C437 1.394 . S
C434 C432 1.383 . S
C434 C435 1.402 1_565 S
C434 H449 0.951 . S
C435 C434 1.402 1_545 S
C435 C436 1.375 1_556 S
C435 C438 1.481 1_556 S
C436 C435 1.375 1_554 S
C436 C437 1.367 . S
C436 H450 0.951 . S
C437 C433 1.394 . S
C437 C436 1.367 . S
C437 H451 0.950 . S
C438 C435 1.481 1_554 S
C438 C439 1.297 1_544 S
C438 H452 0.950 . S
C439 C438 1.297 1_566 S
C439 C440 1.479 1_565 S
C439 H453 0.950 . S
C440 C439 1.479 1_545 S
C440 C441 1.375 1_545 S
C440 C446 1.404 1_556 S
C441 C440 1.375 1_565 S
C441 C442 1.369 . S
C441 H454 0.950 . S
C442 C441 1.369 . S
C442 C443 1.392 1_565 S
C442 H455 0.951 . S
C443 C442 1.392 1_545 S
C443 C445 1.384 1_556 S
H444 C446 0.949 . S
C445 C443 1.384 1_554 S
C445 C446 1.385 . S
C445 H447 0.950 . S
C446 C440 1.404 1_554 S
C446 H444 0.949 . S
C446 C445 1.385 . S
H447 C445 0.950 . S
H448 C432 0.951 . S
H449 C434 0.951 . S
H450 C436 0.951 . S
H451 C437 0.950 . S
H452 C438 0.950 . S
H453 C439 0.950 . S
H454 C441 0.950 . S
H455 C442 0.951 . S
C456 C457 1.386 . S
C456 C458 1.383 . S
C456 H472 0.951 . S
C457 C456 1.386 . S
C457 C461 1.383 1_545 S
C458 C456 1.383 . S
C458 C459 1.402 1_545 S
C458 H473 0.951 . S
C459 C458 1.402 1_565 S
C459 C460 1.375 . S
C459 C462 1.481 . S
C460 C459 1.375 . S
C460 C461 1.367 . S
C460 H474 0.951 . S
C461 C457 1.383 1_565 S
C461 C460 1.367 . S
C461 H475 0.950 . S
C462 C459 1.481 . S
C462 C463 1.297 . S
C462 H476 0.950 . S
C463 C462 1.297 . S
C463 C464 1.479 . S
C463 H477 0.950 . S
C464 C463 1.479 . S
C464 C465 1.375 1_565 S
C464 C470 1.404 . S
C465 C464 1.375 1_545 S
C465 C466 1.369 . S
C465 H478 0.950 . S
C466 C465 1.369 . S
C466 C467 1.392 1_545 S
C466 H479 0.951 . S
C467 C466 1.392 1_565 S
C467 C469 1.384 . S
H468 C470 0.949 . S
C469 C467 1.384 . S
C469 C470 1.385 . S
C469 H471 0.950 . S
C470 C464 1.404 . S
C470 H468 0.949 . S
C470 C469 1.385 . S
H471 C469 0.950 . S
H472 C456 0.951 . S
H473 C458 0.951 . S
H474 C460 0.951 . S
H475 C461 0.950 . S
H476 C462 0.950 . S
H477 C463 0.950 . S
H478 C465 0.950 . S
H479 C466 0.951 . S
C480 C481 1.386 1_556 S
C480 C482 1.383 . S
C480 H496 0.951 . S
C481 C480 1.386 1_554 S
C481 C485 1.383 . S
C482 C480 1.383 . S
C482 C483 1.402 1_556 S
C482 H497 0.951 . S
C483 C482 1.402 1_554 S
C483 C484 1.375 . S
C483 C486 1.481 . S
C484 C483 1.375 . S
C484 C485 1.367 . S
C484 H498 0.951 . S
C485 C481 1.383 . S
C485 C484 1.367 . S
C485 H499 0.950 . S
C486 C483 1.481 . S
C486 C487 1.297 1_654 S
C486 H500 0.950 . S
C487 C486 1.297 1_456 S
C487 C488 1.479 . S
C487 H501 0.950 . S
C488 C487 1.479 . S
C488 C489 1.375 . S
C488 C494 1.404 1_556 S
C489 C488 1.375 . S
C489 C490 1.369 . S
C489 H502 0.950 . S
C490 C489 1.369 . S
C490 C491 1.397 . S
C490 H503 0.951 . S
C491 C490 1.397 . S
C491 C493 1.380 1_556 S
H492 C494 0.949 . S
C493 C491 1.380 1_554 S
C493 C494 1.385 . S
C493 H495 0.950 . S
C494 C488 1.404 1_554 S
C494 H492 0.949 . S
C494 C493 1.385 . S
H495 C493 0.950 . S
H496 C480 0.951 . S
H497 C482 0.951 . S
H498 C484 0.951 . S
H499 C485 0.950 . S
H500 C486 0.950 . S
H501 C487 0.950 . S
H502 C489 0.950 . S
H503 C490 0.951 . S
C504 C505 1.386 . S
C504 C506 1.383 . S
C504 H520 0.951 . S
C505 C504 1.386 . S
C505 C509 1.383 . S
C506 C504 1.383 . S
C506 C507 1.402 . S
C506 H521 0.951 . S
C507 C506 1.402 . S
C507 C508 1.375 . S
C507 C510 1.481 . S
C508 C507 1.375 . S
C508 C509 1.367 . S
C508 H522 0.951 . S
C509 C505 1.383 . S
C509 C508 1.367 . S
C509 H523 0.950 . S
C510 C507 1.481 . S
C510 C511 1.297 1_455 S
C510 H524 0.950 . S
C511 C510 1.297 1_655 S
C511 C512 1.479 . S
C511 H525 0.950 . S
C512 C511 1.479 . S
C512 C513 1.375 . S
C512 C518 1.404 . S
C513 C512 1.375 . S
C513 C514 1.369 . S
C513 H526 0.950 . S
C514 C513 1.369 . S
C514 C515 1.392 . S
C514 H527 0.951 . S
C515 C514 1.392 . S
C515 C517 1.384 . S
H516 C518 0.949 . S
C517 C515 1.384 . S
C517 C518 1.385 . S
C517 H519 0.950 . S
C518 C512 1.404 . S
C518 H516 0.949 . S
C518 C517 1.385 . S
H519 C517 0.950 . S
H520 C504 0.951 . S
H521 C506 0.951 . S
H522 C508 0.951 . S
H523 C509 0.950 . S
H524 C510 0.950 . S
H525 C511 0.950 . S
H526 C513 0.950 . S
H527 C514 0.951 . S
C528 C529 1.390 1_465 S
C528 C530 1.383 . S
C528 H544 0.951 . S
C529 C528 1.390 1_645 S
C529 C533 1.394 . S
C530 C528 1.383 . S
C530 C531 1.402 1_455 S
C530 H545 0.951 . S
C531 C530 1.402 1_655 S
C531 C532 1.375 1_565 S
C531 C534 1.481 . S
C532 C531 1.375 1_545 S
C532 C533 1.367 . S
C532 H546 0.951 . S
C533 C529 1.394 . S
C533 C532 1.367 . S
C533 H547 0.950 . S
C534 C531 1.481 . S
C534 C535 1.297 1_655 S
C534 H548 0.962 . S
C535 C534 1.297 1_455 S
C535 C536 1.479 . S
C535 H549 0.950 . S
C536 C535 1.479 . S
C536 C537 1.375 . S
C536 C542 1.404 1_455 S
C537 C536 1.375 . S
C537 C538 1.369 . S
C537 H550 0.950 . S
C538 C537 1.369 . S
C538 C539 1.380 1_455 S
C538 H551 0.951 . S
C539 C538 1.380 1_655 S
C539 C541 1.397 . S
H540 C542 0.949 . S
C541 C539 1.397 . S
C541 C542 1.385 . S
C541 H543 0.950 . S
C542 C536 1.404 1_655 S
C542 H540 0.949 . S
C542 C541 1.385 . S
H543 C541 0.950 . S
H544 C528 0.951 . S
H545 C530 0.951 . S
H546 C532 0.951 . S
H547 C533 0.950 . S
H548 C534 0.962 . S
H549 C535 0.950 . S
H550 C537 0.950 . S
H551 C538 0.951 . S
C552 C553 1.384 1_455 S
C552 C554 1.383 . S
C552 H568 0.951 . S
C553 C552 1.384 1_655 S
C553 C557 1.383 1_545 S
C554 C552 1.383 . S
C554 C555 1.402 1_445 S
C554 H569 0.951 . S
C555 C554 1.402 1_665 S
C555 C556 1.375 . S
C555 C558 1.481 . S
C556 C555 1.375 . S
C556 C557 1.367 . S
C556 H570 0.951 . S
C557 C553 1.383 1_565 S
C557 C556 1.367 . S
C557 H571 0.950 . S
C558 C555 1.481 . S
C558 C559 1.297 1_655 S
C558 H572 0.950 . S
C559 C558 1.297 1_455 S
C559 C560 1.479 . S
C559 H573 0.950 . S
C560 C559 1.479 . S
C560 C561 1.375 1_565 S
C560 C566 1.404 1_455 S
C561 C560 1.375 1_545 S
C561 C562 1.369 . S
C561 H574 0.950 . S
C562 C561 1.369 . S
C562 C563 1.392 1_545 S
C562 H575 0.951 . S
C563 C562 1.392 1_565 S
C563 C565 1.384 1_455 S
H564 C566 0.949 . S
C565 C563 1.384 1_655 S
C565 C566 1.385 . S
C565 H567 0.950 . S
C566 C560 1.404 1_655 S
C566 H564 0.949 . S
C566 C565 1.385 . S
H567 C565 0.950 . S
H568 C552 0.951 . S
H569 C554 0.951 . S
H570 C556 0.951 . S
H571 C557 0.950 . S
H572 C558 0.950 . S
H573 C559 0.950 . S
H574 C561 0.950 . S
H575 C562 0.951 . S
C576 C577 1.386 . S
C576 C578 1.383 . S
C576 H592 0.951 . S
C577 C576 1.386 . S
C577 C581 1.383 . S
C578 C576 1.383 . S
C578 C579 1.402 . S
C578 H593 0.951 . S
C579 C578 1.402 . S
C579 C580 1.375 . S
C579 C582 1.481 . S
C580 C579 1.375 . S
C580 C581 1.367 . S
C580 H594 0.951 . S
C581 C577 1.383 . S
C581 C580 1.367 . S
C581 H595 0.950 . S
C582 C579 1.481 . S
C582 C583 1.297 . S
C582 H596 0.950 . S
C583 C582 1.297 . S
C583 C584 1.479 . S
C583 H597 0.950 . S
C584 C583 1.479 . S
C584 C585 1.375 . S
C584 C590 1.404 . S
C585 C584 1.375 . S
C585 C586 1.369 . S
C585 H598 0.950 . S
C586 C585 1.369 . S
C586 C587 1.392 . S
C586 H599 0.951 . S
C587 C586 1.392 . S
C587 C589 1.384 . S
H588 C590 0.949 . S
C589 C587 1.384 . S
C589 C590 1.385 . S
C589 H591 0.950 . S
C590 C584 1.404 . S
C590 H588 0.949 . S
C590 C589 1.385 . S
H591 C589 0.950 . S
H592 C576 0.951 . S
H593 C578 0.951 . S
H594 C580 0.951 . S
H595 C581 0.950 . S
H596 C582 0.950 . S
H597 C583 0.950 . S
H598 C585 0.950 . S
H599 C586 0.951 . S
C600 C601 1.386 . S
C600 C602 1.383 . S
C600 H616 0.951 . S
C601 C600 1.386 . S
C601 C605 1.383 . S
C602 C600 1.383 . S
C602 C603 1.402 . S
C602 H617 0.951 . S
C603 C602 1.402 . S
C603 C604 1.375 . S
C603 C606 1.481 . S
C604 C603 1.375 . S
C604 C605 1.367 . S
C604 H618 0.951 . S
C605 C601 1.383 . S
C605 C604 1.367 . S
C605 H619 0.950 . S
C606 C603 1.481 . S
C606 C607 1.297 . S
C606 H620 0.950 . S
C607 C606 1.297 . S
C607 C608 1.479 . S
C607 H621 0.950 . S
C608 C607 1.479 . S
C608 C609 1.375 . S
C608 C614 1.404 . S
C609 C608 1.375 . S
C609 C610 1.369 . S
C609 H622 0.950 . S
C610 C609 1.369 . S
C610 C611 1.392 . S
C610 H623 0.951 . S
C611 C610 1.392 . S
C611 C613 1.384 . S
H612 C614 0.949 . S
C613 C611 1.384 . S
C613 C614 1.385 . S
C613 H615 0.950 . S
C614 C608 1.404 . S
C614 H612 0.949 . S
C614 C613 1.385 . S
H615 C613 0.950 . S
H616 C600 0.951 . S
H617 C602 0.951 . S
H618 C604 0.951 . S
H619 C605 0.950 . S
H620 C606 0.950 . S
H621 C607 0.950 . S
H622 C609 0.950 . S
H623 C610 0.951 . S
C337 C237 1.382 1_556 S
C347 C58 1.324 . S
C361 C226 1.387 1_554 S
C371 C69 1.316 . S
C385 C142 1.341 . S
C395 C321 1.417 . S
C409 C153 1.434 . S
C419 C310 1.337 . S
C433 C67 1.938 1_545 S
C443 C56 1.922 . S
C457 C151 1.934 . S
C467 C140 1.932 . S
C481 C235 1.935 . S
C491 C224 1.930 . S
C505 C308 1.945 . S
C515 C319 1.932 . S
C529 C147 1.440 1_545 S
C539 C63 1.491 1_565 S
C553 C74 1.474 1_645 S
C563 C158 1.481 1_565 S
C577 C315 1.492 . S
C587 C231 1.438 . S
C601 C326 1.463 . S
C611 C242 1.464 . S
