# Generated by pormake.
# Topology wip, (6)-cn, num edge types: 1
# Building blocks:
#     Node 0, Type 0, BuildingBlock: CUKXOW_clean_sbu_0, # of connection points: 6
#     Node 1, Type 0, BuildingBlock: CUKXOW_clean_sbu_0, # of connection points: 6
#     Node 2, Type 0, BuildingBlock: CUKXOW_clean_sbu_0, # of connection points: 6
#     Node 3, Type 0, BuildingBlock: CUKXOW_clean_sbu_0, # of connection points: 6
#     Node 4, Type 0, BuildingBlock: CUKXOW_clean_sbu_0, # of connection points: 6
#     Node 5, Type 0, BuildingBlock: CUKXOW_clean_sbu_0, # of connection points: 6
#     Node 6, Type 0, BuildingBlock: CUKXOW_clean_sbu_0, # of connection points: 6
#     Node 7, Type 0, BuildingBlock: CUKXOW_clean_sbu_0, # of connection points: 6
#     Node 8, Type 0, BuildingBlock: CUKXOW_clean_sbu_0, # of connection points: 6
#     Node 9, Type 0, BuildingBlock: CUKXOW_clean_sbu_0, # of connection points: 6
#     Node 10, Type 0, BuildingBlock: CUKXOW_clean_sbu_0, # of connection points: 6
#     Node 11, Type 0, BuildingBlock: CUKXOW_clean_sbu_0, # of connection points: 6
#     Node 12, Type 0, BuildingBlock: CUKXOW_clean_sbu_0, # of connection points: 6
#     Node 13, Type 0, BuildingBlock: CUKXOW_clean_sbu_0, # of connection points: 6
#     Node 14, Type 0, BuildingBlock: CUKXOW_clean_sbu_0, # of connection points: 6
#     Node 15, Type 0, BuildingBlock: CUKXOW_clean_sbu_0, # of connection points: 6
#     Node 16, Type 0, BuildingBlock: CUKXOW_clean_sbu_0, # of connection points: 6
#     Node 17, Type 0, BuildingBlock: CUKXOW_clean_sbu_0, # of connection points: 6
#     Node 18, Type 0, BuildingBlock: CUKXOW_clean_sbu_0, # of connection points: 6
#     Node 19, Type 0, BuildingBlock: CUKXOW_clean_sbu_0, # of connection points: 6
#     Node 20, Type 0, BuildingBlock: CUKXOW_clean_sbu_0, # of connection points: 6
#     Node 21, Type 0, BuildingBlock: CUKXOW_clean_sbu_0, # of connection points: 6
#     Node 22, Type 0, BuildingBlock: CUKXOW_clean_sbu_0, # of connection points: 6
#     Node 23, Type 0, BuildingBlock: CUKXOW_clean_sbu_0, # of connection points: 6
#     Node 24, Type 0, BuildingBlock: CUKXOW_clean_sbu_0, # of connection points: 6
#     Node 25, Type 0, BuildingBlock: CUKXOW_clean_sbu_0, # of connection points: 6
#     Node 26, Type 0, BuildingBlock: CUKXOW_clean_sbu_0, # of connection points: 6
#     Node 27, Type 0, BuildingBlock: CUKXOW_clean_sbu_0, # of connection points: 6
#     Node 28, Type 0, BuildingBlock: CUKXOW_clean_sbu_0, # of connection points: 6
#     Node 29, Type 0, BuildingBlock: CUKXOW_clean_sbu_0, # of connection points: 6
#     Node 30, Type 0, BuildingBlock: CUKXOW_clean_sbu_0, # of connection points: 6
#     Node 31, Type 0, BuildingBlock: CUKXOW_clean_sbu_0, # of connection points: 6
#     Edge 32, Type (0, 0), None
#     Edge 33, Type (0, 0), None
#     Edge 34, Type (0, 0), None
#     Edge 35, Type (0, 0), None
#     Edge 36, Type (0, 0), None
#     Edge 37, Type (0, 0), None
#     Edge 38, Type (0, 0), None
#     Edge 39, Type (0, 0), None
#     Edge 40, Type (0, 0), None
#     Edge 41, Type (0, 0), None
#     Edge 42, Type (0, 0), None
#     Edge 43, Type (0, 0), None
#     Edge 44, Type (0, 0), None
#     Edge 45, Type (0, 0), None
#     Edge 46, Type (0, 0), None
#     Edge 47, Type (0, 0), None
#     Edge 48, Type (0, 0), None
#     Edge 49, Type (0, 0), None
#     Edge 50, Type (0, 0), None
#     Edge 51, Type (0, 0), None
#     Edge 52, Type (0, 0), None
#     Edge 53, Type (0, 0), None
#     Edge 54, Type (0, 0), None
#     Edge 55, Type (0, 0), None
#     Edge 56, Type (0, 0), None
#     Edge 57, Type (0, 0), None
#     Edge 58, Type (0, 0), None
#     Edge 59, Type (0, 0), None
#     Edge 60, Type (0, 0), None
#     Edge 61, Type (0, 0), None
#     Edge 62, Type (0, 0), None
#     Edge 63, Type (0, 0), None
#     Edge 64, Type (0, 0), None
#     Edge 65, Type (0, 0), None
#     Edge 66, Type (0, 0), None
#     Edge 67, Type (0, 0), None
#     Edge 68, Type (0, 0), None
#     Edge 69, Type (0, 0), None
#     Edge 70, Type (0, 0), None
#     Edge 71, Type (0, 0), None
#     Edge 72, Type (0, 0), None
#     Edge 73, Type (0, 0), None
#     Edge 74, Type (0, 0), None
#     Edge 75, Type (0, 0), None
#     Edge 76, Type (0, 0), None
#     Edge 77, Type (0, 0), None
#     Edge 78, Type (0, 0), None
#     Edge 79, Type (0, 0), None
#     Edge 80, Type (0, 0), None
#     Edge 81, Type (0, 0), None
#     Edge 82, Type (0, 0), None
#     Edge 83, Type (0, 0), None
#     Edge 84, Type (0, 0), None
#     Edge 85, Type (0, 0), None
#     Edge 86, Type (0, 0), None
#     Edge 87, Type (0, 0), None
#     Edge 88, Type (0, 0), None
#     Edge 89, Type (0, 0), None
#     Edge 90, Type (0, 0), None
#     Edge 91, Type (0, 0), None
#     Edge 92, Type (0, 0), None
#     Edge 93, Type (0, 0), None
#     Edge 94, Type (0, 0), None
#     Edge 95, Type (0, 0), None
#     Edge 96, Type (0, 0), None
#     Edge 97, Type (0, 0), None
#     Edge 98, Type (0, 0), None
#     Edge 99, Type (0, 0), None
#     Edge 100, Type (0, 0), None
#     Edge 101, Type (0, 0), None
#     Edge 102, Type (0, 0), None
#     Edge 103, Type (0, 0), None
#     Edge 104, Type (0, 0), None
#     Edge 105, Type (0, 0), None
#     Edge 106, Type (0, 0), None
#     Edge 107, Type (0, 0), None
#     Edge 108, Type (0, 0), None
#     Edge 109, Type (0, 0), None
#     Edge 110, Type (0, 0), None
#     Edge 111, Type (0, 0), None
#     Edge 112, Type (0, 0), None
#     Edge 113, Type (0, 0), None
#     Edge 114, Type (0, 0), None
#     Edge 115, Type (0, 0), None
#     Edge 116, Type (0, 0), None
#     Edge 117, Type (0, 0), None
#     Edge 118, Type (0, 0), None
#     Edge 119, Type (0, 0), None
#     Edge 120, Type (0, 0), None
#     Edge 121, Type (0, 0), None
#     Edge 122, Type (0, 0), None
#     Edge 123, Type (0, 0), None
#     Edge 124, Type (0, 0), None
#     Edge 125, Type (0, 0), None
#     Edge 126, Type (0, 0), None
#     Edge 127, Type (0, 0), None
# Relax obj value: 0.205
# Max RMSD: 0.203
# Mean RMSD: 0.194
data_MOF--net-wip--node1-CUKXOW_clean_sbu_0--edge1-none
_symmetry_space_group_name_H-M    P1
_symmetry_Int_Tables_number       1
_symmetry_cell_setting            triclinic
loop_
_symmetry_equiv_pos_as_xyz
'x, y, z'
_cell_length_a     26.881981
_cell_length_b     37.245833
_cell_length_c     12.353378
_cell_angle_alpha  85.046218
_cell_angle_beta   89.992955
_cell_angle_gamma 89.999604
loop_
_atom_site_label
_atom_site_type_symbol
_atom_site_fract_x
_atom_site_fract_y
_atom_site_fract_z
_atom_type_partial_charge
Tb0 Tb 0.08521 0.43359 0.25248 0.0
C1 C -0.01539 0.46659 0.21289 0.0
Tb2 Tb 0.00677 0.40258 0.08705 0.0
O3 O 0.11184 0.47358 0.12212 0.0
O4 O 0.07938 0.42654 0.08133 0.0
O5 O 0.01851 0.46012 0.2875 0.0
C6 C -0.03772 0.39024 0.90066 0.0
O7 O -0.00791 0.45822 0.1122 0.0
C8 C -0.02152 0.38835 0.29158 0.0
C9 C 0.07223 0.34858 0.22354 0.0
O10 O 0.94183 0.40634 0.97857 0.0
O11 O 0.00801 0.38206 0.92648 0.0
O12 O 0.95264 0.37939 0.20866 0.0
O13 O 0.01758 0.40366 0.25396 0.0
O14 O 0.04581 0.35345 0.13317 0.0
O15 O 0.09348 0.37489 0.27543 0.0
C16 C 0.12831 0.46025 0.42713 0.0
O17 O 0.13557 0.42806 0.39499 0.0
O18 O 0.0977 0.47668 0.35891 0.0
C19 C 0.094 0.45724 1.04258 0.0
Tb20 Tb 0.71549 0.79739 0.47043 0.0
C21 C 0.79322 0.83469 0.60132 0.0
Tb22 Tb 0.78398 0.7498 0.64956 0.0
O23 O 0.68326 0.8277 0.59772 0.0
O24 O 0.71254 0.77537 0.63402 0.0
O25 O 0.76913 0.83617 0.50785 0.0
C26 C 0.82835 0.72322 0.83925 0.0
O27 O 0.80078 0.80568 0.66926 0.0
C28 C 0.8183 0.7486 0.4445 0.0
C29 C 0.69521 0.72057 0.52794 0.0
O30 O 0.82097 0.7569 0.80606 0.0
O31 O 0.80893 0.70405 0.76616 0.0
O32 O 0.83751 0.73086 0.52968 0.0
O33 O 0.78405 0.76742 0.48226 0.0
O34 O 0.71654 0.71883 0.62567 0.0
O35 O 0.67094 0.74983 0.49584 0.0
C36 C 0.68076 0.81726 0.27148 0.0
O37 O 0.65522 0.81768 0.3607 0.0
O38 O 0.72546 0.80587 0.29488 0.0
C39 C 0.69439 0.80247 0.67464 0.0
Tb40 Tb 0.33475 0.49562 0.72045 0.0
C41 C 0.31831 0.56297 0.84418 0.0
Tb42 Tb 0.418 0.52182 0.88722 0.0
O43 O 0.2875 0.47501 0.86001 0.0
O44 O 0.364 0.48012 0.87698 0.0
O45 O 0.30726 0.54768 0.75404 0.0
C46 C 0.46514 0.53857 1.06991 0.0
O47 O 0.35393 0.55336 0.91351 0.0
C48 C 0.43566 0.54371 0.68018 0.0
C49 C 0.436 0.46186 0.75457 0.0
O50 O 0.41913 0.54532 1.04334 0.0
O51 O 0.48498 0.52071 0.99441 0.0
O52 O 0.46668 0.54701 0.75954 0.0
O53 O 0.39447 0.53419 0.72429 0.0
O54 O 0.42925 0.46717 0.85752 0.0
O55 O 0.40127 0.46908 0.68206 0.0
C56 C 0.29629 0.47166 0.5385 0.0
O57 O 0.30644 0.45211 0.62793 0.0
O58 O 0.3055 0.50518 0.55391 0.0
C59 C 0.32456 0.47294 0.92852 0.0
Tb60 Tb 0.63161 0.13651 0.99245 0.0
C61 C 0.56624 0.11458 0.1821 0.0
Tb62 Tb 0.60163 0.19571 0.15816 0.0
O63 O 0.6707 0.1023 0.12185 0.0
O64 O 0.65792 0.15673 0.13503 0.0
O65 O 0.5688 0.11316 1.07555 0.0
C66 C 0.59668 0.23556 0.33321 0.0
O67 O 0.57401 0.14425 0.23189 0.0
C68 C 0.57326 0.2105 0.95114 0.0
C69 C 0.68894 0.20597 1.00225 0.0
O70 O 0.56538 0.21071 0.30871 0.0
O71 O 0.63021 0.23828 0.25728 0.0
O72 O 0.57073 0.23294 1.02609 0.0
O73 O 0.58004 0.17981 1.00243 0.0
O74 O 0.67472 0.20915 0.10337 0.0
O75 O 0.67069 0.18329 0.93825 0.0
C76 C 0.66036 0.11041 0.80782 0.0
O77 O 0.68844 0.11518 0.89049 0.0
O78 O 0.61457 0.11833 0.83151 0.0
C79 C 0.67441 0.12852 0.18478 0.0
Tb80 Tb 0.08519 0.49544 0.71644 0.0
C81 C -0.01542 0.46245 0.75613 0.0
Tb82 Tb 0.00677 0.52646 0.88197 0.0
O83 O 0.11181 0.45543 0.84675 0.0
O84 O 0.07937 0.50248 0.8876 0.0
O85 O 0.01848 0.46891 0.6815 0.0
C86 C -0.03775 0.53879 1.06839 0.0
O87 O -0.00793 0.47083 0.85682 0.0
C88 C -0.02152 0.54069 0.67745 0.0
C89 C 0.07221 0.58046 0.74539 0.0
O90 O 0.94181 0.52269 0.99047 0.0
O91 O 0.00798 0.54698 1.04256 0.0
O92 O 0.95264 0.54965 0.76039 0.0
O93 O 0.01758 0.52539 0.71506 0.0
O94 O 0.04585 0.57558 0.83584 0.0
O95 O 0.09339 0.55414 0.69337 0.0
C96 C 0.12808 0.4688 0.54172 0.0
O97 O 0.13578 0.50088 0.57427 0.0
O98 O 0.09721 0.45243 0.6095 0.0
C99 C 0.094 0.47178 0.92632 0.0
Tb100 Tb 0.63155 0.7925 0.97659 0.0
C101 C 0.56624 0.81444 0.78683 0.0
Tb102 Tb 0.6016 0.7333 0.81085 0.0
O103 O 0.67068 0.82671 0.84726 0.0
O104 O 0.65787 0.77229 0.83398 0.0
O105 O 0.5688 0.8159 0.89338 0.0
C106 C 0.59665 0.69346 0.63582 0.0
O107 O 0.57399 0.78476 0.73709 0.0
C108 C 0.57321 0.71852 1.01787 0.0
C109 C 0.68891 0.72305 0.96667 0.0
O110 O 0.56534 0.7183 0.66035 0.0
O111 O 0.63019 0.69075 0.71171 0.0
O112 O 0.5707 0.69608 0.94293 0.0
O113 O 0.57998 0.7492 0.96658 0.0
O114 O 0.67469 0.71988 0.86558 0.0
O115 O 0.67064 0.74571 1.03072 0.0
C116 C 0.66032 0.8185 0.16125 0.0
O117 O 0.68841 0.81379 0.07854 0.0
O118 O 0.6145 0.81063 0.1376 0.0
C119 C 0.67438 0.80051 0.78427 0.0
Tb120 Tb 0.33476 0.43339 0.24864 0.0
C121 C 0.31831 0.36607 0.12476 0.0
Tb122 Tb 0.41799 0.40723 0.08177 0.0
O123 O 0.28749 0.45401 0.10912 0.0
O124 O 0.36401 0.44893 0.09212 0.0
O125 O 0.30726 0.38134 0.21495 0.0
C126 C 0.46515 0.39048 0.89908 0.0
O127 O 0.35391 0.37571 1.05542 0.0
C128 C 0.43568 0.38532 0.28879 0.0
C129 C 0.43599 0.46718 0.21443 0.0
O130 O 0.41914 0.38372 0.92568 0.0
O131 O 0.48498 0.40835 0.97455 0.0
O132 O 0.46669 0.38204 0.20941 0.0
O133 O 0.39447 0.39483 0.24471 0.0
O134 O 0.42924 0.46188 0.11148 0.0
O135 O 0.40127 0.45993 0.28698 0.0
C136 C 0.29642 0.45732 0.43064 0.0
O137 O 0.30645 0.4769 0.34119 0.0
O138 O 0.30557 0.4238 0.41525 0.0
C139 C 0.32456 0.45614 1.04064 0.0
Tb140 Tb 0.71552 0.13163 0.4986 0.0
C141 C 0.79323 0.09435 0.3676 0.0
Tb142 Tb 0.78397 0.17922 0.31935 0.0
O143 O 0.68328 0.10131 0.37135 0.0
O144 O 0.71252 0.15367 0.33505 0.0
O145 O 0.7692 0.09287 0.46115 0.0
C146 C 0.82832 0.20578 0.12964 0.0
O147 O 0.80074 0.12335 0.29959 0.0
C148 C 0.81833 0.18041 0.52436 0.0
C149 C 0.69522 0.20846 0.44107 0.0
O150 O 0.82093 0.1721 0.16283 0.0
O151 O 0.80892 0.22497 0.20272 0.0
O152 O 0.8375 0.19817 0.43917 0.0
O153 O 0.7841 0.16158 0.48663 0.0
O154 O 0.71653 0.21019 0.34331 0.0
O155 O 0.67097 0.1792 0.47324 0.0
C156 C 0.6808 0.11183 0.69755 0.0
O157 O 0.65531 0.11122 0.60834 0.0
O158 O 0.72547 0.12331 0.67418 0.0
C159 C 0.69433 0.12658 0.29448 0.0
Tb160 Tb 0.91317 0.52641 0.38198 0.0
C161 C 0.84746 0.58043 0.2462 0.0
Tb162 Tb 0.83464 0.49545 0.21644 0.0
O163 O -0.03275 0.54966 0.2604 0.0
O164 O 0.90221 0.5255 0.21499 0.0
O165 O 0.87399 0.57551 0.33626 0.0
C166 C 0.7914 0.46878 1.04195 0.0
O167 O 0.8261 0.55413 0.19421 0.0
C168 C 0.82612 0.47172 0.42647 0.0
C169 C 0.93528 0.46251 0.2555 0.0
O170 O 0.78435 0.50103 1.07383 0.0
O171 O 0.82187 0.45229 0.11038 0.0
O172 O 0.80817 0.45539 0.347 0.0
O173 O 0.84064 0.50239 0.38742 0.0
O174 O 0.9014 0.46909 0.18089 0.0
O175 O 0.92791 0.47081 0.35631 0.0
C176 C 0.95759 0.53865 0.56848 0.0
O177 O -0.0219 0.52262 0.4905 0.0
O178 O 0.91186 0.54685 0.54265 0.0
C179 C 0.9414 0.54072 0.17748 0.0
Tb180 Tb 0.136 0.17927 0.81977 0.0
C181 C 0.22456 0.20857 0.94192 0.0
Tb182 Tb 0.2044 0.13174 0.99923 0.0
O183 O 0.0827 0.19849 0.93951 0.0
O184 O 0.13543 0.16131 0.98695 0.0
O185 O 0.20332 0.2103 0.8441 0.0
C186 C 0.239 0.11179 0.19818 0.0
O187 O 0.24885 0.17935 0.97413 0.0
C188 C 0.2257 0.12678 0.79501 0.0
C189 C 0.12697 0.09434 0.86778 0.0
O190 O 0.26448 0.11113 0.10895 0.0
O191 O 0.19443 0.12348 0.17479 0.0
O192 O 0.23683 0.10152 0.87185 0.0
O193 O 0.20745 0.1538 0.83586 0.0
O194 O 0.15097 0.09287 0.96136 0.0
O195 O 0.11935 0.12337 0.7999 0.0
C196 C 0.09162 0.20585 0.6301 0.0
O197 O 0.09895 0.17217 0.66333 0.0
O198 O 0.11109 0.22502 0.70311 0.0
C199 C 0.10163 0.18054 1.02465 0.0
Tb200 Tb 0.50233 0.4073 0.58178 0.0
C201 C 0.48445 0.46736 0.71427 0.0
Tb202 Tb 0.58552 0.43338 0.74855 0.0
O203 O 0.45333 0.38249 0.70909 0.0
O204 O 0.52595 0.39459 0.74491 0.0
O205 O 0.49115 0.46198 0.61135 0.0
C206 C 0.62403 0.45735 0.93049 0.0
O207 O 0.51909 0.45999 0.7869 0.0
C208 C 0.59574 0.45607 0.54043 0.0
C209 C 0.60198 0.36606 0.62469 0.0
O210 O 0.61392 0.47688 0.84102 0.0
O211 O 0.61478 0.42384 0.91513 0.0
O212 O 0.63281 0.45398 0.60891 0.0
O213 O 0.55637 0.4489 0.59218 0.0
O214 O 0.61308 0.38135 0.7148 0.0
O215 O 0.56632 0.37567 0.55547 0.0
C216 C 0.45511 0.3905 0.39917 0.0
O217 O 0.50109 0.38368 0.4258 0.0
O218 O 0.43532 0.40841 0.47458 0.0
C219 C 0.48441 0.38559 0.78841 0.0
Tb220 Tb 0.31845 0.73327 0.3104 0.0
C221 C 0.23109 0.72306 0.46622 0.0
Tb222 Tb 0.28842 0.79251 0.47606 0.0
O223 O 0.34918 0.69601 0.4424 0.0
O224 O 0.34011 0.74921 0.46634 0.0
O225 O 0.24534 0.71987 0.36512 0.0
C226 C 0.25953 0.81866 0.6605 0.0
O227 O 0.24938 0.74572 0.53026 0.0
C228 C 0.24549 0.80034 0.2837 0.0
C229 C 0.35367 0.81445 0.28629 0.0
O230 O 0.23149 0.8138 0.57785 0.0
O231 O 0.30536 0.8108 0.6369 0.0
O232 O 0.24905 0.82659 0.34655 0.0
O233 O 0.26235 0.77229 0.33363 0.0
O234 O 0.35117 0.81589 0.39284 0.0
O235 O 0.34597 0.78475 0.23656 0.0
C236 C 0.32335 0.69336 0.13547 0.0
O237 O 0.3548 0.71809 0.16012 0.0
O238 O 0.28969 0.69082 0.21114 0.0
C239 C 0.3467 0.71845 0.51734 0.0
Tb240 Tb 0.91319 0.40261 0.58712 0.0
C241 C 0.84759 0.34855 0.72312 0.0
Tb242 Tb 0.83466 0.43353 0.75283 0.0
O243 O -0.03269 0.37939 0.70864 0.0
O244 O 0.90225 0.40351 0.75409 0.0
O245 O 0.87405 0.35349 0.63281 0.0
C246 C 0.79167 0.46017 0.92743 0.0
O247 O 0.82635 0.37483 0.77526 0.0
C248 C 0.82609 0.45726 0.5428 0.0
C249 C 0.93525 0.46653 0.71354 0.0
O250 O 0.7841 0.42805 0.89505 0.0
O251 O 0.82245 0.47658 0.85954 0.0
O252 O 0.80814 0.47359 0.62229 0.0
O253 O 0.84066 0.42661 0.58187 0.0
O254 O 0.90139 0.45996 0.78819 0.0
O255 O 0.92788 0.45821 0.61275 0.0
C256 C 0.95759 0.39038 0.40057 0.0
O257 O -0.02189 0.4064 0.47855 0.0
O258 O 0.91187 0.38218 0.42643 0.0
C259 C 0.94145 0.38832 0.79159 0.0
Tb260 Tb 0.31841 0.19577 0.65846 0.0
C261 C 0.23106 0.20598 0.5027 0.0
Tb262 Tb 0.28839 0.13653 0.49281 0.0
O263 O 0.34914 0.23303 0.52645 0.0
O264 O 0.34008 0.17983 0.50251 0.0
O265 O 0.2453 0.20917 0.60379 0.0
C266 C 0.25948 0.11048 0.30837 0.0
O267 O 0.24936 0.18333 0.43864 0.0
C268 C 0.24546 0.12868 0.68518 0.0
C269 C 0.35361 0.11458 0.68264 0.0
O270 O 0.23142 0.11529 0.39105 0.0
O271 O 0.30533 0.11825 0.33193 0.0
O272 O 0.24901 0.10245 0.62228 0.0
O273 O 0.26232 0.15674 0.63527 0.0
O274 O 0.35109 0.11311 0.57609 0.0
O275 O 0.34593 0.14429 0.73232 0.0
C276 C 0.3233 0.23568 0.83337 0.0
O277 O 0.35477 0.21096 0.8087 0.0
O278 O 0.28964 0.23821 0.75774 0.0
C279 C 0.34667 0.21059 0.45151 0.0
Tb280 Tb 0.50232 0.52172 0.38718 0.0
C281 C 0.48444 0.46168 0.25467 0.0
Tb282 Tb 0.58551 0.49567 0.22031 0.0
O283 O 0.45331 0.54653 0.25991 0.0
O284 O 0.52593 0.53445 0.22404 0.0
O285 O 0.49115 0.46704 0.3576 0.0
C286 C 0.62391 0.47171 1.03833 0.0
O287 O 0.51907 0.46906 0.18202 0.0
C288 C 0.59573 0.47291 0.42837 0.0
C289 C 0.60196 0.56297 0.34428 0.0
O290 O 0.61389 0.45216 0.12783 0.0
O291 O 0.61472 0.50524 1.05369 0.0
O292 O 0.63282 0.47508 0.35991 0.0
O293 O 0.55636 0.48011 0.37668 0.0
O294 O 0.61305 0.5477 0.25411 0.0
O295 O 0.56633 0.55331 0.41355 0.0
C296 C 0.4551 0.53852 0.5698 0.0
O297 O 0.50107 0.54536 0.54312 0.0
O298 O 0.43532 0.52059 0.49442 0.0
C299 C 0.48439 0.54345 0.18057 0.0
Tb300 Tb 0.13606 0.74975 0.14921 0.0
C301 C 0.22461 0.72046 1.027 0.0
Tb302 Tb 0.20444 0.79729 0.96967 0.0
O303 O 0.08276 0.73053 1.02951 0.0
O304 O 0.13546 0.76774 0.98204 0.0
O305 O 0.20338 0.71872 0.12483 0.0
C306 C 0.23905 0.81716 0.77073 0.0
O307 O 0.24891 0.74969 0.99482 0.0
C308 C 0.22581 0.80223 0.17382 0.0
C309 C 0.127 0.83468 0.10117 0.0
O310 O 0.26447 0.81801 0.85995 0.0
O311 O 0.19452 0.80539 0.79407 0.0
O312 O 0.23686 0.82752 0.09702 0.0
O313 O 0.20752 0.77522 0.13301 0.0
O314 O 0.15097 0.83614 1.00753 0.0
O315 O 0.11943 0.80566 0.16911 0.0
C316 C 0.09168 0.72318 0.3389 0.0
O317 O 0.09902 0.75686 0.30567 0.0
O318 O 0.11115 0.70401 0.26588 0.0
C319 C 0.10166 0.74849 0.94436 0.0
Tb320 Tb 0.58519 0.93357 0.7524 0.0
C321 C 0.48459 -0.03343 0.71284 0.0
Tb322 Tb 0.50675 0.90256 0.58696 0.0
O323 O 0.61182 -0.02644 0.62205 0.0
O324 O 0.57936 0.92652 0.58124 0.0
O325 O 0.51849 0.96009 0.78745 0.0
C326 C 0.46225 0.89024 0.40056 0.0
O327 O 0.49206 0.9582 0.61214 0.0
C328 C 0.47846 0.88833 0.79149 0.0
C329 C 0.57228 0.84857 0.72335 0.0
O330 O 0.4418 0.90633 0.47848 0.0
O331 O 0.50798 0.88205 0.42637 0.0
O332 O 0.45262 0.87938 0.70857 0.0
O333 O 0.51757 0.90363 0.75386 0.0
O334 O 0.54577 0.85343 0.6331 0.0
O335 O 0.59351 0.87488 0.77529 0.0
C336 C 0.6283 0.96023 0.92705 0.0
O337 O 0.63554 0.92803 0.89492 0.0
O338 O 0.59769 -0.02333 0.85881 0.0
C339 C 0.59398 0.95722 0.5425 0.0
Tb340 Tb 0.2155 0.29746 0.97034 0.0
C341 C 0.29323 0.33471 0.10135 0.0
Tb342 Tb 0.28395 0.24982 0.14951 0.0
O343 O 0.18325 0.32775 0.09765 0.0
O344 O 0.21253 0.27541 0.1339 0.0
O345 O 0.26917 0.33621 1.00784 0.0
C346 C 0.32822 0.22326 0.33928 0.0
O347 O 0.3008 0.30569 0.16922 0.0
C348 C 0.31822 0.24858 0.94453 0.0
C349 C 0.1951 0.22063 1.02791 0.0
O350 O 0.32082 0.25694 0.30612 0.0
O351 O 0.30894 0.20407 0.26607 0.0
O352 O 0.33748 0.23085 1.02967 0.0
O353 O 0.28402 0.26745 0.98223 0.0
O354 O 0.2165 0.21886 0.12558 0.0
O355 O 0.17093 0.2499 0.99552 0.0
C356 C 0.18082 0.31734 0.77137 0.0
O357 O 0.15527 0.31777 0.86057 0.0
O358 O 0.22552 0.30594 0.7948 0.0
C359 C 0.19437 0.30251 0.17455 0.0
Tb360 Tb 0.83472 -0.00436 0.2204 0.0
C361 C 0.81828 0.06297 0.34421 0.0
Tb362 Tb 0.91797 0.02181 0.38719 0.0
O363 O 0.78746 -0.02498 0.35997 0.0
O364 O 0.86397 -0.01988 0.37693 0.0
O365 O 0.80724 0.0477 0.25403 0.0
C366 C -0.03488 0.03856 0.56988 0.0
O367 O 0.85391 0.05335 0.41351 0.0
C368 C 0.93565 0.0437 0.18016 0.0
C369 C 0.93595 0.96185 0.25452 0.0
O370 O 0.91911 0.04531 0.54331 0.0
O371 O -0.01504 0.0207 0.49439 0.0
O372 O -0.03334 0.04699 0.25952 0.0
O373 O 0.89445 0.03419 0.22427 0.0
O374 O 0.92921 -0.03284 0.35748 0.0
O375 O 0.90122 -0.03091 0.18201 0.0
C376 C 0.79626 -0.02831 1.03844 0.0
O377 O 0.80638 0.95213 0.12787 0.0
O378 O 0.80549 0.0052 1.05384 0.0
C379 C 0.82452 -0.02706 0.42847 0.0
Tb380 Tb 0.13163 0.6365 0.49246 0.0
C381 C 0.06617 0.61461 0.68201 0.0
Tb382 Tb 0.10166 0.69571 0.65817 0.0
O383 O 0.17068 0.60229 0.6219 0.0
O384 O 0.15795 0.65673 0.63504 0.0
O385 O 0.06879 0.61316 0.57547 0.0
C386 C 0.09675 0.73549 0.83331 0.0
O387 O 0.07402 0.64425 0.73185 0.0
C388 C 0.07339 0.71052 0.45126 0.0
C389 C 0.18894 0.70597 0.50222 0.0
O390 O 0.06543 0.71065 0.80879 0.0
O391 O 0.13023 0.73829 0.75727 0.0
O392 O 0.0708 0.73298 0.52615 0.0
O393 O 0.08007 0.67981 0.50243 0.0
O394 O 0.17476 0.70912 0.60339 0.0
O395 O 0.17072 0.68328 0.43824 0.0
C396 C 0.16039 0.61038 0.30786 0.0
O397 O 0.18847 0.61516 0.39052 0.0
O398 O 0.1146 0.61832 0.33153 0.0
C399 C 0.17441 0.6285 0.68481 0.0
Tb400 Tb 0.58519 -0.00457 0.21637 0.0
C401 C 0.48458 0.96245 0.25604 0.0
Tb402 Tb 0.50678 0.02645 0.38192 0.0
O403 O 0.61181 0.95541 0.34667 0.0
O404 O 0.57937 0.00246 0.38752 0.0
O405 O 0.51848 -0.03108 0.18141 0.0
C406 C 0.46228 0.03879 0.56834 0.0
O407 O 0.49206 -0.02918 0.35673 0.0
C408 C 0.4785 0.0407 0.1774 0.0
C409 C 0.5723 0.08044 0.24549 0.0
O410 O 0.44182 0.0227 0.49042 0.0
O411 O 0.50802 0.04696 0.54252 0.0
O412 O 0.45266 0.04965 0.26034 0.0
O413 O 0.5176 0.02539 0.21501 0.0
O414 O 0.54586 0.07557 0.33584 0.0
O415 O 0.59343 0.05413 0.19339 0.0
C416 C 0.62807 -0.03121 1.04163 0.0
O417 O 0.63577 0.00088 1.07416 0.0
O418 O 0.59722 0.95241 0.10944 0.0
C419 C 0.59399 -0.02824 0.42625 0.0
Tb420 Tb 0.1316 0.29252 0.47655 0.0
C421 C 0.06617 0.31444 0.28697 0.0
Tb422 Tb 0.10163 0.23333 0.31083 0.0
O423 O 0.17067 0.32675 0.34716 0.0
O424 O 0.15792 0.27231 0.33393 0.0
O425 O 0.0688 0.3159 0.39351 0.0
C426 C 0.09672 0.19355 0.1357 0.0
O427 O 0.074 0.28479 0.23716 0.0
C428 C 0.07334 0.21851 0.51774 0.0
C429 C 0.1889 0.22305 0.46673 0.0
O430 O 0.06539 0.21838 0.16024 0.0
O431 O 0.1302 0.19075 0.21171 0.0
O432 O 0.07076 0.19606 0.44285 0.0
O433 O 0.08003 0.24922 0.46658 0.0
O434 O 0.17473 0.21992 0.36557 0.0
O435 O 0.17067 0.24574 0.53074 0.0
C436 C 0.16039 0.31856 0.66114 0.0
O437 O 0.18848 0.31382 0.57846 0.0
O438 O 0.11457 0.31071 0.63751 0.0
C439 C 0.17438 0.30054 0.28419 0.0
Tb440 Tb 0.83472 0.93339 0.74859 0.0
C441 C 0.81826 0.86607 0.62469 0.0
Tb442 Tb 0.91795 0.90722 0.58172 0.0
O443 O 0.78745 0.95401 0.60907 0.0
O444 O 0.86397 0.94893 0.59207 0.0
O445 O 0.80723 0.88133 0.71493 0.0
C446 C -0.03489 0.89047 0.39903 0.0
O447 O 0.85386 0.87571 0.55535 0.0
C448 C 0.93563 0.88531 0.78874 0.0
C449 C 0.93596 -0.03284 0.7144 0.0
O450 O 0.9191 0.88371 0.42562 0.0
O451 O -0.01506 0.90834 0.4745 0.0
O452 O -0.03336 0.88202 0.70935 0.0
O453 O 0.89443 0.89482 0.74466 0.0
O454 O 0.92922 0.96187 0.61144 0.0
O455 O 0.90124 0.95991 0.78694 0.0
C456 C 0.79639 0.95734 0.93058 0.0
O457 O 0.80644 -0.02309 0.84113 0.0
O458 O 0.80551 0.92382 0.91519 0.0
C459 C 0.82453 0.95614 0.54059 0.0
Tb460 Tb 0.21552 0.6316 0.99863 0.0
C461 C 0.29322 0.59433 0.86756 0.0
Tb462 Tb 0.28396 0.67922 0.81936 0.0
O463 O 0.18327 0.60129 0.87137 0.0
O464 O 0.21253 0.65365 0.83509 0.0
O465 O 0.26921 0.59286 0.96114 0.0
C466 C 0.32824 0.70578 0.62957 0.0
O467 O 0.30077 0.62335 0.79963 0.0
C468 C 0.31826 0.68046 1.02432 0.0
C469 C 0.19514 0.70843 0.94101 0.0
O470 O 0.32084 0.6721 0.66274 0.0
O471 O 0.30897 0.72497 0.70279 0.0
O472 O 0.33751 0.69819 0.93916 0.0
O473 O 0.28407 0.66158 0.98664 0.0
O474 O 0.21654 0.7102 0.84333 0.0
O475 O 0.17095 0.67916 0.97337 0.0
C476 C 0.18082 0.61179 0.19759 0.0
O477 O 0.15532 0.6112 0.10838 0.0
O478 O 0.22549 0.62326 0.1742 0.0
C479 C 0.19433 0.62656 0.7945 0.0
Tb480 Tb 0.4132 0.02643 0.88192 0.0
C481 C 0.34747 0.08047 0.74612 0.0
Tb482 Tb 0.33465 -0.0045 0.71634 0.0
O483 O 0.4673 0.04965 0.76035 0.0
O484 O 0.40223 0.02553 0.71494 0.0
O485 O 0.37408 0.07555 0.8362 0.0
C486 C 0.29145 -0.03118 0.54183 0.0
O487 O 0.32618 0.05419 0.6941 0.0
C488 C 0.32612 -0.02824 0.92637 0.0
C489 C 0.43526 0.96252 0.75545 0.0
O490 O 0.28432 0.00105 0.57379 0.0
O491 O 0.32198 0.95235 0.61017 0.0
O492 O 0.30814 0.95544 0.84689 0.0
O493 O 0.34066 0.00242 0.88732 0.0
O494 O 0.40139 -0.03089 0.68083 0.0
O495 O 0.4279 -0.02917 0.85626 0.0
C496 C 0.45761 0.03866 1.06843 0.0
O497 O 0.47812 0.02263 0.99045 0.0
O498 O 0.41189 0.04687 1.04259 0.0
C499 C 0.44144 0.04073 0.67742 0.0
Tb500 Tb 0.636 0.67928 0.3198 0.0
C501 C 0.72465 0.70855 0.44188 0.0
Tb502 Tb 0.70439 0.63172 0.49924 0.0
O503 O 0.5827 0.69851 0.43953 0.0
O504 O 0.63545 0.66131 0.48695 0.0
O505 O 0.7033 0.71034 0.34416 0.0
C506 C 0.73896 0.61175 0.69818 0.0
O507 O 0.74888 0.6793 0.4742 0.0
C508 C 0.72567 0.62677 0.29501 0.0
C509 C 0.62696 0.59435 0.36773 0.0
O510 O 0.76445 0.61109 0.60897 0.0
O511 O 0.6944 0.62344 0.67478 0.0
O512 O 0.73681 0.60151 0.37183 0.0
O513 O 0.70744 0.65379 0.33588 0.0
O514 O 0.65095 0.59286 0.46134 0.0
O515 O 0.61931 0.62339 0.29994 0.0
C516 C 0.59169 0.70585 0.13006 0.0
O517 O 0.59904 0.67216 0.16327 0.0
O518 O 0.61104 0.72503 0.20319 0.0
C519 C 0.6017 0.68059 0.52462 0.0
Tb520 Tb 0.0023 0.90728 0.08173 0.0
C521 C -0.0156 -0.03267 0.21422 0.0
Tb522 Tb 0.08548 0.93336 0.24851 0.0
O523 O 0.9533 0.88247 0.20904 0.0
O524 O 0.02591 0.89457 0.24487 0.0
O525 O -0.0089 0.96196 0.1113 0.0
C526 C 0.12398 0.95734 0.43045 0.0
O527 O 0.01904 0.95996 0.28685 0.0
C528 C 0.09571 0.95606 1.04039 0.0
C529 C 0.10199 0.86607 0.12459 0.0
O530 O 0.11387 -0.02313 0.34097 0.0
O531 O 0.11474 0.92383 0.41509 0.0
O532 O 0.13277 0.95397 0.10888 0.0
O533 O 0.05633 0.94889 0.09214 0.0
O534 O 0.11306 0.88134 0.21475 0.0
O535 O 0.06631 0.87567 1.05539 0.0
C536 C 0.95507 0.89048 0.89912 0.0
O537 O 0.00105 0.88365 0.92576 0.0
O538 O 0.93529 0.9084 0.97453 0.0
C539 C -0.01563 0.88557 0.28836 0.0
Tb540 Tb 0.81841 0.23327 0.81041 0.0
C541 C 0.73108 0.22306 0.96624 0.0
Tb542 Tb 0.78837 0.29252 0.97604 0.0
O543 O 0.84912 0.19598 0.94235 0.0
O544 O 0.84006 0.24922 0.96635 0.0
O545 O 0.74529 0.2199 0.86511 0.0
C546 C 0.75946 0.31869 0.16044 0.0
O547 O 0.74934 0.24573 1.03028 0.0
C548 C 0.7455 0.30036 0.78363 0.0
C549 C 0.85376 0.31442 0.78646 0.0
O550 O 0.73143 0.31381 0.07779 0.0
O551 O 0.80529 0.31084 0.13685 0.0
O552 O 0.74908 0.32661 0.84647 0.0
O553 O 0.76231 0.2723 0.8336 0.0
O554 O 0.85118 0.31586 0.893 0.0
O555 O 0.84597 0.28475 0.73665 0.0
C556 C 0.82328 0.19344 0.63537 0.0
O557 O 0.85475 0.21817 0.66004 0.0
O558 O 0.78968 0.19081 0.71116 0.0
C559 C 0.84657 0.21843 1.01723 0.0
Tb560 Tb 0.41317 0.90262 0.087 0.0
C561 C 0.34749 0.84858 0.2229 0.0
Tb562 Tb 0.33464 0.93356 0.25271 0.0
O563 O 0.46727 0.87939 0.20854 0.0
O564 O 0.40221 0.90352 0.25398 0.0
O565 O 0.37402 0.8535 0.13269 0.0
C566 C 0.29168 0.96021 0.4273 0.0
O567 O 0.32629 0.87485 0.27509 0.0
C568 C 0.32609 0.9573 1.04269 0.0
C569 C 0.43525 -0.03347 0.21345 0.0
O570 O 0.28409 0.92809 0.39494 0.0
O571 O 0.32246 -0.02338 0.3594 0.0
O572 O 0.30814 -0.02637 0.12218 0.0
O573 O 0.34065 0.92664 0.08174 0.0
O574 O 0.40138 0.95995 0.28808 0.0
O575 O 0.42788 0.95822 0.11264 0.0
C576 C 0.45757 0.89038 0.90047 0.0
O577 O 0.4781 0.9064 0.97845 0.0
O578 O 0.41184 0.88219 0.92632 0.0
C579 C 0.44141 0.88831 0.29148 0.0
Tb580 Tb 0.81839 0.69573 0.15848 0.0
C581 C 0.73108 0.70599 1.00265 0.0
Tb582 Tb 0.78833 0.6365 0.9928 0.0
O583 O 0.84913 0.73301 1.02654 0.0
O584 O 0.84006 0.67977 1.00253 0.0
O585 O 0.74529 0.70915 0.10376 0.0
C586 C 0.75943 0.61044 0.80838 0.0
O587 O 0.74934 0.68331 0.9386 0.0
C588 C 0.7454 0.62867 0.18515 0.0
C589 C 0.85358 0.61452 0.18255 0.0
O590 O 0.73137 0.61526 0.89104 0.0
O591 O 0.80528 0.61821 0.83194 0.0
O592 O 0.74894 0.60243 0.12228 0.0
O593 O 0.76226 0.65673 0.13524 0.0
O594 O 0.851 0.61303 0.07612 0.0
O595 O 0.84585 0.64424 0.23235 0.0
C596 C 0.82325 0.73557 0.33349 0.0
O597 O 0.85473 0.71086 0.3088 0.0
O598 O 0.78964 0.73819 0.25775 0.0
C599 C 0.84659 0.71056 0.95165 0.0
Tb600 Tb 0.00231 0.02172 0.88715 0.0
C601 C -0.01558 0.96168 0.75464 0.0
Tb602 Tb 0.08549 -0.00432 0.72028 0.0
O603 O 0.9533 0.04653 0.75989 0.0
O604 O 0.02592 0.03446 0.72401 0.0
O605 O -0.00889 -0.03295 0.85757 0.0
C606 C 0.12386 -0.02829 0.53829 0.0
O607 O 0.01904 -0.03093 0.68199 0.0
C608 C 0.0957 -0.0271 0.92833 0.0
C609 C 0.10198 0.06294 0.84434 0.0
O610 O 0.11386 0.95216 0.62779 0.0
O611 O 0.11468 0.00524 0.55364 0.0
O612 O 0.13279 -0.02493 0.85988 0.0
O613 O 0.05633 -0.01989 0.87664 0.0
O614 O 0.11305 0.0477 0.75412 0.0
O615 O 0.06632 0.05331 0.91355 0.0
C616 C 0.95508 0.03852 1.06977 0.0
O617 O 0.00106 0.04536 1.04311 0.0
O618 O 0.9353 0.02059 0.99439 0.0
C619 C -0.01563 0.04345 0.68055 0.0
Tb620 Tb 0.63607 0.24975 0.6492 0.0
C621 C 0.7247 0.22049 0.52705 0.0
Tb622 Tb 0.70441 0.29731 0.46962 0.0
O623 O 0.58277 0.2305 0.52952 0.0
O624 O 0.63546 0.26774 0.48205 0.0
O625 O 0.70338 0.21871 0.62481 0.0
C626 C 0.73899 0.3172 0.27066 0.0
O627 O 0.74892 0.24973 0.49466 0.0
C628 C 0.72581 0.30224 0.67376 0.0
C629 C 0.62701 0.33468 0.60125 0.0
O630 O 0.76442 0.31805 0.35987 0.0
O631 O 0.69446 0.30543 0.29404 0.0
O632 O 0.73686 0.32754 0.59696 0.0
O633 O 0.70752 0.27524 0.63295 0.0
O634 O 0.65095 0.33616 0.50756 0.0
O635 O 0.61941 0.30565 0.66911 0.0
C636 C 0.59176 0.22317 0.83895 0.0
O637 O 0.5991 0.25686 0.80574 0.0
O638 O 0.61112 0.204 0.76582 0.0
C639 C 0.60173 0.24843 0.44441 0.0
loop_
_geom_bond_atom_site_label_1
_geom_bond_atom_site_label_2
_geom_bond_distance
_geom_bond_site_symmetry_2
_ccdc_geom_bond_type
Tb0 O3 2.453 . S
Tb0 O4 2.596 . S
Tb0 O5 2.374 . S
Tb0 O13 2.343 . S
Tb0 O15 2.353 . S
Tb0 O17 2.427 . S
Tb0 O18 2.513 . S
C1 O5 1.243 1_655 S
C1 O7 1.267 . S
Tb2 O4 2.343 . S
Tb2 O7 2.353 1_455 S
Tb2 O10 2.427 1_454 S
Tb2 O11 2.513 1_554 S
Tb2 O12 2.453 1_455 S
Tb2 O13 2.596 . S
Tb2 O14 2.374 . S
O3 Tb0 2.453 . S
O3 C19 1.245 1_554 S
O4 Tb0 2.596 . S
O4 Tb2 2.343 . S
O4 C19 1.259 1_554 S
O5 Tb0 2.374 . S
O5 C1 1.243 1_455 S
C6 O10 1.275 1_455 S
C6 O11 1.246 . S
O7 C1 1.267 . S
O7 Tb2 2.353 1_655 S
C8 O12 1.245 1_455 S
C8 O13 1.259 . S
C9 O14 1.250 . S
C9 O15 1.263 . S
O10 Tb2 2.427 1_656 S
O10 C6 1.275 1_655 S
O11 Tb2 2.513 1_556 S
O11 C6 1.246 . S
O12 Tb2 2.453 1_655 S
O12 C8 1.245 1_655 S
O13 Tb0 2.343 . S
O13 Tb2 2.596 . S
O13 C8 1.259 . S
O14 Tb2 2.374 . S
O14 C9 1.250 . S
O15 Tb0 2.353 . S
O15 C9 1.263 . S
C16 O17 1.275 . S
C16 O18 1.246 . S
O17 Tb0 2.427 . S
O17 C16 1.275 . S
O18 Tb0 2.513 . S
O18 C16 1.246 . S
C19 O3 1.245 1_556 S
C19 O4 1.259 1_556 S
Tb20 O23 2.453 . S
Tb20 O24 2.596 . S
Tb20 O25 2.374 . S
Tb20 O33 2.343 . S
Tb20 O35 2.353 . S
Tb20 O37 2.427 . S
Tb20 O38 2.513 . S
C21 O25 1.251 . S
C21 O27 1.263 . S
Tb22 O24 2.343 . S
Tb22 O27 2.353 . S
Tb22 O30 2.427 . S
Tb22 O31 2.513 . S
Tb22 O32 2.453 . S
Tb22 O33 2.596 . S
Tb22 O34 2.374 . S
O23 Tb20 2.453 . S
O23 C39 1.245 . S
O24 Tb20 2.596 . S
O24 Tb22 2.343 . S
O24 C39 1.259 . S
O25 Tb20 2.374 . S
O25 C21 1.251 . S
C26 O30 1.275 . S
C26 O31 1.246 . S
O27 C21 1.263 . S
O27 Tb22 2.353 . S
C28 O32 1.245 . S
C28 O33 1.259 . S
C29 O34 1.250 . S
C29 O35 1.263 . S
O30 Tb22 2.427 . S
O30 C26 1.275 . S
O31 Tb22 2.513 . S
O31 C26 1.246 . S
O32 Tb22 2.453 . S
O32 C28 1.245 . S
O33 Tb20 2.343 . S
O33 Tb22 2.596 . S
O33 C28 1.259 . S
O34 Tb22 2.374 . S
O34 C29 1.250 . S
O35 Tb20 2.353 . S
O35 C29 1.263 . S
C36 O37 1.275 . S
C36 O38 1.246 . S
O37 Tb20 2.427 . S
O37 C36 1.275 . S
O38 Tb20 2.513 . S
O38 C36 1.246 . S
C39 O23 1.245 . S
C39 O24 1.259 . S
Tb40 O43 2.453 . S
Tb40 O44 2.596 . S
Tb40 O45 2.374 . S
Tb40 O53 2.343 . S
Tb40 O55 2.353 . S
Tb40 O57 2.427 . S
Tb40 O58 2.513 . S
C41 O45 1.251 . S
C41 O47 1.263 . S
Tb42 O44 2.343 . S
Tb42 O47 2.353 . S
Tb42 O50 2.427 . S
Tb42 O51 2.513 . S
Tb42 O52 2.453 . S
Tb42 O53 2.596 . S
Tb42 O54 2.374 . S
O43 Tb40 2.453 . S
O43 C59 1.245 . S
O44 Tb40 2.596 . S
O44 Tb42 2.343 . S
O44 C59 1.259 . S
O45 Tb40 2.374 . S
O45 C41 1.251 . S
C46 O50 1.275 . S
C46 O51 1.246 . S
O47 C41 1.263 . S
O47 Tb42 2.353 . S
C48 O52 1.245 . S
C48 O53 1.259 . S
C49 O54 1.250 . S
C49 O55 1.263 . S
O50 Tb42 2.427 . S
O50 C46 1.275 . S
O51 Tb42 2.513 . S
O51 C46 1.246 . S
O52 Tb42 2.453 . S
O52 C48 1.245 . S
O53 Tb40 2.343 . S
O53 Tb42 2.596 . S
O53 C48 1.259 . S
O54 Tb42 2.374 . S
O54 C49 1.250 . S
O55 Tb40 2.353 . S
O55 C49 1.263 . S
C56 O57 1.275 . S
C56 O58 1.246 . S
O57 Tb40 2.427 . S
O57 C56 1.275 . S
O58 Tb40 2.513 . S
O58 C56 1.246 . S
C59 O43 1.245 . S
C59 O44 1.259 . S
Tb60 O63 2.453 1_556 S
Tb60 O64 2.596 1_556 S
Tb60 O65 2.374 . S
Tb60 O73 2.343 . S
Tb60 O75 2.353 . S
Tb60 O77 2.427 . S
Tb60 O78 2.513 . S
C61 O65 1.251 1_554 S
C61 O67 1.263 . S
Tb62 O64 2.343 . S
Tb62 O67 2.353 . S
Tb62 O70 2.427 . S
Tb62 O71 2.513 . S
Tb62 O72 2.453 1_554 S
Tb62 O73 2.596 1_554 S
Tb62 O74 2.374 1_554 S
O63 Tb60 2.453 1_554 S
O63 C79 1.245 . S
O64 Tb60 2.596 1_554 S
O64 Tb62 2.343 . S
O64 C79 1.259 . S
O65 Tb60 2.374 . S
O65 C61 1.251 1_556 S
C66 O70 1.275 . S
C66 O71 1.246 . S
O67 C61 1.263 . S
O67 Tb62 2.353 . S
C68 O72 1.245 . S
C68 O73 1.259 . S
C69 O74 1.250 . S
C69 O75 1.263 . S
O70 Tb62 2.427 . S
O70 C66 1.275 . S
O71 Tb62 2.513 . S
O71 C66 1.246 . S
O72 Tb62 2.453 1_556 S
O72 C68 1.245 . S
O73 Tb60 2.343 . S
O73 Tb62 2.596 1_556 S
O73 C68 1.259 . S
O74 Tb62 2.374 1_556 S
O74 C69 1.250 . S
O75 Tb60 2.353 . S
O75 C69 1.263 . S
C76 O77 1.275 . S
C76 O78 1.246 . S
O77 Tb60 2.427 . S
O77 C76 1.275 . S
O78 Tb60 2.513 . S
O78 C76 1.246 . S
C79 O63 1.245 . S
C79 O64 1.259 . S
Tb80 O83 2.453 . S
Tb80 O84 2.596 . S
Tb80 O85 2.374 . S
Tb80 O93 2.343 . S
Tb80 O95 2.353 . S
Tb80 O97 2.427 . S
Tb80 O98 2.513 . S
C81 O85 1.241 1_655 S
C81 O87 1.268 . S
Tb82 O84 2.343 . S
Tb82 O87 2.353 1_455 S
Tb82 O90 2.427 1_455 S
Tb82 O91 2.513 . S
Tb82 O92 2.453 1_455 S
Tb82 O93 2.596 . S
Tb82 O94 2.374 . S
O83 Tb80 2.453 . S
O83 C99 1.245 . S
O84 Tb80 2.596 . S
O84 Tb82 2.343 . S
O84 C99 1.259 . S
O85 Tb80 2.374 . S
O85 C81 1.241 1_455 S
C86 O90 1.275 1_455 S
C86 O91 1.246 . S
O87 C81 1.268 . S
O87 Tb82 2.353 1_655 S
C88 O92 1.245 1_455 S
C88 O93 1.259 . S
C89 O94 1.250 . S
C89 O95 1.263 . S
O90 Tb82 2.427 1_655 S
O90 C86 1.275 1_655 S
O91 Tb82 2.513 . S
O91 C86 1.246 . S
O92 Tb82 2.453 1_655 S
O92 C88 1.245 1_655 S
O93 Tb80 2.343 . S
O93 Tb82 2.596 . S
O93 C88 1.259 . S
O94 Tb82 2.374 . S
O94 C89 1.250 . S
O95 Tb80 2.353 . S
O95 C89 1.263 . S
C96 O97 1.275 . S
C96 O98 1.246 . S
O97 Tb80 2.427 . S
O97 C96 1.275 . S
O98 Tb80 2.513 . S
O98 C96 1.246 . S
C99 O83 1.245 . S
C99 O84 1.259 . S
Tb100 O103 2.453 . S
Tb100 O104 2.596 . S
Tb100 O105 2.374 . S
Tb100 O113 2.343 . S
Tb100 O115 2.353 . S
Tb100 O117 2.427 1_556 S
Tb100 O118 2.513 1_556 S
C101 O105 1.251 . S
C101 O107 1.263 . S
Tb102 O104 2.343 . S
Tb102 O107 2.353 . S
Tb102 O110 2.427 . S
Tb102 O111 2.513 . S
Tb102 O112 2.453 . S
Tb102 O113 2.596 . S
Tb102 O114 2.374 . S
O103 Tb100 2.453 . S
O103 C119 1.245 . S
O104 Tb100 2.596 . S
O104 Tb102 2.343 . S
O104 C119 1.259 . S
O105 Tb100 2.374 . S
O105 C101 1.251 . S
C106 O110 1.275 . S
C106 O111 1.246 . S
O107 C101 1.263 . S
O107 Tb102 2.353 . S
C108 O112 1.245 . S
C108 O113 1.259 . S
C109 O114 1.250 . S
C109 O115 1.263 . S
O110 Tb102 2.427 . S
O110 C106 1.275 . S
O111 Tb102 2.513 . S
O111 C106 1.246 . S
O112 Tb102 2.453 . S
O112 C108 1.245 . S
O113 Tb100 2.343 . S
O113 Tb102 2.596 . S
O113 C108 1.259 . S
O114 Tb102 2.374 . S
O114 C109 1.250 . S
O115 Tb100 2.353 . S
O115 C109 1.263 . S
C116 O117 1.275 . S
C116 O118 1.246 . S
O117 Tb100 2.427 1_554 S
O117 C116 1.275 . S
O118 Tb100 2.513 1_554 S
O118 C116 1.246 . S
C119 O103 1.245 . S
C119 O104 1.259 . S
Tb120 O123 2.453 1_554 S
Tb120 O124 2.596 1_554 S
Tb120 O125 2.374 . S
Tb120 O133 2.343 . S
Tb120 O135 2.353 . S
Tb120 O137 2.427 . S
Tb120 O138 2.513 . S
C121 O125 1.251 . S
C121 O127 1.263 . S
Tb122 O124 2.343 1_554 S
Tb122 O127 2.353 . S
Tb122 O130 2.427 1_554 S
Tb122 O131 2.513 1_554 S
Tb122 O132 2.453 . S
Tb122 O133 2.596 . S
Tb122 O134 2.374 . S
O123 Tb120 2.453 1_556 S
O123 C139 1.245 . S
O124 Tb120 2.596 1_556 S
O124 Tb122 2.343 1_556 S
O124 C139 1.259 . S
O125 Tb120 2.374 . S
O125 C121 1.251 . S
C126 O130 1.275 . S
C126 O131 1.246 . S
O127 C121 1.263 . S
O127 Tb122 2.353 . S
C128 O132 1.245 . S
C128 O133 1.259 . S
C129 O134 1.250 . S
C129 O135 1.263 . S
O130 Tb122 2.427 1_556 S
O130 C126 1.275 . S
O131 Tb122 2.513 1_556 S
O131 C126 1.246 . S
O132 Tb122 2.453 . S
O132 C128 1.245 . S
O133 Tb120 2.343 . S
O133 Tb122 2.596 . S
O133 C128 1.259 . S
O134 Tb122 2.374 . S
O134 C129 1.250 . S
O135 Tb120 2.353 . S
O135 C129 1.263 . S
C136 O137 1.275 . S
C136 O138 1.246 . S
O137 Tb120 2.427 . S
O137 C136 1.275 . S
O138 Tb120 2.513 . S
O138 C136 1.246 . S
C139 O123 1.245 . S
C139 O124 1.259 . S
Tb140 O143 2.453 . S
Tb140 O144 2.596 . S
Tb140 O145 2.374 . S
Tb140 O153 2.343 . S
Tb140 O155 2.353 . S
Tb140 O157 2.427 . S
Tb140 O158 2.513 . S
C141 O145 1.251 . S
C141 O147 1.263 . S
Tb142 O144 2.343 . S
Tb142 O147 2.353 . S
Tb142 O150 2.427 . S
Tb142 O151 2.513 . S
Tb142 O152 2.453 . S
Tb142 O153 2.596 . S
Tb142 O154 2.374 . S
O143 Tb140 2.453 . S
O143 C159 1.245 . S
O144 Tb140 2.596 . S
O144 Tb142 2.343 . S
O144 C159 1.259 . S
O145 Tb140 2.374 . S
O145 C141 1.251 . S
C146 O150 1.275 . S
C146 O151 1.246 . S
O147 C141 1.263 . S
O147 Tb142 2.353 . S
C148 O152 1.245 . S
C148 O153 1.259 . S
C149 O154 1.250 . S
C149 O155 1.263 . S
O150 Tb142 2.427 . S
O150 C146 1.275 . S
O151 Tb142 2.513 . S
O151 C146 1.246 . S
O152 Tb142 2.453 . S
O152 C148 1.245 . S
O153 Tb140 2.343 . S
O153 Tb142 2.596 . S
O153 C148 1.259 . S
O154 Tb142 2.374 . S
O154 C149 1.250 . S
O155 Tb140 2.353 . S
O155 C149 1.263 . S
C156 O157 1.275 . S
C156 O158 1.246 . S
O157 Tb140 2.427 . S
O157 C156 1.275 . S
O158 Tb140 2.513 . S
O158 C156 1.246 . S
C159 O143 1.245 . S
C159 O144 1.259 . S
Tb160 O163 2.453 1_655 S
Tb160 O164 2.596 . S
Tb160 O165 2.374 . S
Tb160 O173 2.343 . S
Tb160 O175 2.353 1_655 S
Tb160 O177 2.427 1_655 S
Tb160 O178 2.513 . S
C161 O165 1.251 . S
C161 O167 1.263 . S
Tb162 O164 2.343 . S
Tb162 O167 2.353 . S
Tb162 O170 2.427 1_554 S
Tb162 O171 2.513 1_554 S
Tb162 O172 2.453 . S
Tb162 O173 2.596 . S
Tb162 O174 2.374 . S
O163 Tb160 2.453 1_455 S
O163 C179 1.245 1_455 S
O164 Tb160 2.596 . S
O164 Tb162 2.343 . S
O164 C179 1.259 . S
O165 Tb160 2.374 . S
O165 C161 1.251 . S
C166 O170 1.275 . S
C166 O171 1.246 . S
O167 C161 1.263 . S
O167 Tb162 2.353 . S
C168 O172 1.245 . S
C168 O173 1.259 . S
C169 O174 1.242 1_455 S
C169 O175 1.267 . S
O170 Tb162 2.427 1_556 S
O170 C166 1.275 . S
O171 Tb162 2.513 1_556 S
O171 C166 1.246 . S
O172 Tb162 2.453 . S
O172 C168 1.245 . S
O173 Tb160 2.343 . S
O173 Tb162 2.596 . S
O173 C168 1.259 . S
O174 Tb162 2.374 . S
O174 C169 1.242 1_655 S
O175 Tb160 2.353 1_455 S
O175 C169 1.267 . S
C176 O177 1.275 1_655 S
C176 O178 1.246 . S
O177 Tb160 2.427 1_455 S
O177 C176 1.275 1_455 S
O178 Tb160 2.513 . S
O178 C176 1.246 . S
C179 O163 1.245 1_655 S
C179 O164 1.259 . S
Tb180 O183 2.453 . S
Tb180 O184 2.596 . S
Tb180 O185 2.374 . S
Tb180 O193 2.343 . S
Tb180 O195 2.353 . S
Tb180 O197 2.427 . S
Tb180 O198 2.513 . S
C181 O185 1.251 . S
C181 O187 1.263 . S
Tb182 O184 2.343 . S
Tb182 O187 2.353 . S
Tb182 O190 2.427 1_556 S
Tb182 O191 2.513 1_556 S
Tb182 O192 2.453 . S
Tb182 O193 2.596 . S
Tb182 O194 2.374 . S
O183 Tb180 2.453 . S
O183 C199 1.245 . S
O184 Tb180 2.596 . S
O184 Tb182 2.343 . S
O184 C199 1.259 . S
O185 Tb180 2.374 . S
O185 C181 1.251 . S
C186 O190 1.275 . S
C186 O191 1.246 . S
O187 C181 1.263 . S
O187 Tb182 2.353 . S
C188 O192 1.245 . S
C188 O193 1.259 . S
C189 O194 1.250 . S
C189 O195 1.263 . S
O190 Tb182 2.427 1_554 S
O190 C186 1.275 . S
O191 Tb182 2.513 1_554 S
O191 C186 1.246 . S
O192 Tb182 2.453 . S
O192 C188 1.245 . S
O193 Tb180 2.343 . S
O193 Tb182 2.596 . S
O193 C188 1.259 . S
O194 Tb182 2.374 . S
O194 C189 1.250 . S
O195 Tb180 2.353 . S
O195 C189 1.263 . S
C196 O197 1.275 . S
C196 O198 1.246 . S
O197 Tb180 2.427 . S
O197 C196 1.275 . S
O198 Tb180 2.513 . S
O198 C196 1.246 . S
C199 O183 1.245 . S
C199 O184 1.259 . S
Tb200 O203 2.453 . S
Tb200 O204 2.596 . S
Tb200 O205 2.374 . S
Tb200 O213 2.343 . S
Tb200 O215 2.353 . S
Tb200 O217 2.427 . S
Tb200 O218 2.513 . S
C201 O205 1.251 . S
C201 O207 1.263 . S
Tb202 O204 2.343 . S
Tb202 O207 2.353 . S
Tb202 O210 2.427 . S
Tb202 O211 2.513 . S
Tb202 O212 2.453 . S
Tb202 O213 2.596 . S
Tb202 O214 2.374 . S
O203 Tb200 2.453 . S
O203 C219 1.245 . S
O204 Tb200 2.596 . S
O204 Tb202 2.343 . S
O204 C219 1.259 . S
O205 Tb200 2.374 . S
O205 C201 1.251 . S
C206 O210 1.275 . S
C206 O211 1.246 . S
O207 C201 1.263 . S
O207 Tb202 2.353 . S
C208 O212 1.245 . S
C208 O213 1.259 . S
C209 O214 1.250 . S
C209 O215 1.263 . S
O210 Tb202 2.427 . S
O210 C206 1.275 . S
O211 Tb202 2.513 . S
O211 C206 1.246 . S
O212 Tb202 2.453 . S
O212 C208 1.245 . S
O213 Tb200 2.343 . S
O213 Tb202 2.596 . S
O213 C208 1.259 . S
O214 Tb202 2.374 . S
O214 C209 1.250 . S
O215 Tb200 2.353 . S
O215 C209 1.263 . S
C216 O217 1.275 . S
C216 O218 1.246 . S
O217 Tb200 2.427 . S
O217 C216 1.275 . S
O218 Tb200 2.513 . S
O218 C216 1.246 . S
C219 O203 1.245 . S
C219 O204 1.259 . S
Tb220 O223 2.453 . S
Tb220 O224 2.596 . S
Tb220 O225 2.374 . S
Tb220 O233 2.343 . S
Tb220 O235 2.353 . S
Tb220 O237 2.427 . S
Tb220 O238 2.513 . S
C221 O225 1.251 . S
C221 O227 1.263 . S
Tb222 O224 2.343 . S
Tb222 O227 2.353 . S
Tb222 O230 2.427 . S
Tb222 O231 2.513 . S
Tb222 O232 2.453 . S
Tb222 O233 2.596 . S
Tb222 O234 2.374 . S
O223 Tb220 2.453 . S
O223 C239 1.245 . S
O224 Tb220 2.596 . S
O224 Tb222 2.343 . S
O224 C239 1.259 . S
O225 Tb220 2.374 . S
O225 C221 1.251 . S
C226 O230 1.275 . S
C226 O231 1.246 . S
O227 C221 1.263 . S
O227 Tb222 2.353 . S
C228 O232 1.245 . S
C228 O233 1.259 . S
C229 O234 1.250 . S
C229 O235 1.263 . S
O230 Tb222 2.427 . S
O230 C226 1.275 . S
O231 Tb222 2.513 . S
O231 C226 1.246 . S
O232 Tb222 2.453 . S
O232 C228 1.245 . S
O233 Tb220 2.343 . S
O233 Tb222 2.596 . S
O233 C228 1.259 . S
O234 Tb222 2.374 . S
O234 C229 1.250 . S
O235 Tb220 2.353 . S
O235 C229 1.263 . S
C236 O237 1.275 . S
C236 O238 1.246 . S
O237 Tb220 2.427 . S
O237 C236 1.275 . S
O238 Tb220 2.513 . S
O238 C236 1.246 . S
C239 O223 1.245 . S
C239 O224 1.259 . S
Tb240 O243 2.453 1_655 S
Tb240 O244 2.596 . S
Tb240 O245 2.374 . S
Tb240 O253 2.343 . S
Tb240 O255 2.353 1_655 S
Tb240 O257 2.427 1_655 S
Tb240 O258 2.513 . S
C241 O245 1.251 . S
C241 O247 1.263 . S
Tb242 O244 2.343 . S
Tb242 O247 2.353 . S
Tb242 O250 2.427 . S
Tb242 O251 2.513 . S
Tb242 O252 2.453 . S
Tb242 O253 2.596 . S
Tb242 O254 2.374 . S
O243 Tb240 2.453 1_455 S
O243 C259 1.245 1_455 S
O244 Tb240 2.596 . S
O244 Tb242 2.343 . S
O244 C259 1.259 . S
O245 Tb240 2.374 . S
O245 C241 1.251 . S
C246 O250 1.275 . S
C246 O251 1.246 . S
O247 C241 1.263 . S
O247 Tb242 2.353 . S
C248 O252 1.245 . S
C248 O253 1.259 . S
C249 O254 1.243 1_455 S
C249 O255 1.267 . S
O250 Tb242 2.427 . S
O250 C246 1.275 . S
O251 Tb242 2.513 . S
O251 C246 1.246 . S
O252 Tb242 2.453 . S
O252 C248 1.245 . S
O253 Tb240 2.343 . S
O253 Tb242 2.596 . S
O253 C248 1.259 . S
O254 Tb242 2.374 . S
O254 C249 1.243 1_655 S
O255 Tb240 2.353 1_455 S
O255 C249 1.267 . S
C256 O257 1.275 1_655 S
C256 O258 1.246 . S
O257 Tb240 2.427 1_455 S
O257 C256 1.275 1_455 S
O258 Tb240 2.513 . S
O258 C256 1.246 . S
C259 O243 1.245 1_655 S
C259 O244 1.259 . S
Tb260 O263 2.453 . S
Tb260 O264 2.596 . S
Tb260 O265 2.374 . S
Tb260 O273 2.343 . S
Tb260 O275 2.353 . S
Tb260 O277 2.427 . S
Tb260 O278 2.513 . S
C261 O265 1.251 . S
C261 O267 1.263 . S
Tb262 O264 2.343 . S
Tb262 O267 2.353 . S
Tb262 O270 2.427 . S
Tb262 O271 2.513 . S
Tb262 O272 2.453 . S
Tb262 O273 2.596 . S
Tb262 O274 2.374 . S
O263 Tb260 2.453 . S
O263 C279 1.245 . S
O264 Tb260 2.596 . S
O264 Tb262 2.343 . S
O264 C279 1.259 . S
O265 Tb260 2.374 . S
O265 C261 1.251 . S
C266 O270 1.275 . S
C266 O271 1.246 . S
O267 C261 1.263 . S
O267 Tb262 2.353 . S
C268 O272 1.245 . S
C268 O273 1.259 . S
C269 O274 1.250 . S
C269 O275 1.263 . S
O270 Tb262 2.427 . S
O270 C266 1.275 . S
O271 Tb262 2.513 . S
O271 C266 1.246 . S
O272 Tb262 2.453 . S
O272 C268 1.245 . S
O273 Tb260 2.343 . S
O273 Tb262 2.596 . S
O273 C268 1.259 . S
O274 Tb262 2.374 . S
O274 C269 1.250 . S
O275 Tb260 2.353 . S
O275 C269 1.263 . S
C276 O277 1.275 . S
C276 O278 1.246 . S
O277 Tb260 2.427 . S
O277 C276 1.275 . S
O278 Tb260 2.513 . S
O278 C276 1.246 . S
C279 O263 1.245 . S
C279 O264 1.259 . S
Tb280 O283 2.453 . S
Tb280 O284 2.596 . S
Tb280 O285 2.374 . S
Tb280 O293 2.343 . S
Tb280 O295 2.353 . S
Tb280 O297 2.427 . S
Tb280 O298 2.513 . S
C281 O285 1.251 . S
C281 O287 1.263 . S
Tb282 O284 2.343 . S
Tb282 O287 2.353 . S
Tb282 O290 2.427 . S
Tb282 O291 2.513 . S
Tb282 O292 2.453 . S
Tb282 O293 2.596 . S
Tb282 O294 2.374 . S
O283 Tb280 2.453 . S
O283 C299 1.245 . S
O284 Tb280 2.596 . S
O284 Tb282 2.343 . S
O284 C299 1.259 . S
O285 Tb280 2.374 . S
O285 C281 1.251 . S
C286 O290 1.275 1_556 S
C286 O291 1.246 1_556 S
O287 C281 1.263 . S
O287 Tb282 2.353 . S
C288 O292 1.245 . S
C288 O293 1.259 . S
C289 O294 1.250 . S
C289 O295 1.263 . S
O290 Tb282 2.427 . S
O290 C286 1.275 1_554 S
O291 Tb282 2.513 . S
O291 C286 1.246 1_554 S
O292 Tb282 2.453 . S
O292 C288 1.245 . S
O293 Tb280 2.343 . S
O293 Tb282 2.596 . S
O293 C288 1.259 . S
O294 Tb282 2.374 . S
O294 C289 1.250 . S
O295 Tb280 2.353 . S
O295 C289 1.263 . S
C296 O297 1.275 . S
C296 O298 1.246 . S
O297 Tb280 2.427 . S
O297 C296 1.275 . S
O298 Tb280 2.513 . S
O298 C296 1.246 . S
C299 O283 1.245 . S
C299 O284 1.259 . S
Tb300 O303 2.453 1_554 S
Tb300 O304 2.596 1_554 S
Tb300 O305 2.374 1_554 S
Tb300 O313 2.343 . S
Tb300 O315 2.353 . S
Tb300 O317 2.427 . S
Tb300 O318 2.513 . S
C301 O305 1.251 . S
C301 O307 1.263 . S
Tb302 O304 2.343 . S
Tb302 O307 2.353 . S
Tb302 O310 2.427 . S
Tb302 O311 2.513 . S
Tb302 O312 2.453 1_556 S
Tb302 O313 2.596 1_556 S
Tb302 O314 2.374 . S
O303 Tb300 2.453 1_556 S
O303 C319 1.245 . S
O304 Tb300 2.596 1_556 S
O304 Tb302 2.343 . S
O304 C319 1.259 . S
O305 Tb300 2.374 1_556 S
O305 C301 1.251 . S
C306 O310 1.275 . S
C306 O311 1.246 . S
O307 C301 1.263 . S
O307 Tb302 2.353 . S
C308 O312 1.245 . S
C308 O313 1.259 . S
C309 O314 1.250 . S
C309 O315 1.263 1_556 S
O310 Tb302 2.427 . S
O310 C306 1.275 . S
O311 Tb302 2.513 . S
O311 C306 1.246 . S
O312 Tb302 2.453 1_554 S
O312 C308 1.245 . S
O313 Tb300 2.343 . S
O313 Tb302 2.596 1_554 S
O313 C308 1.259 . S
O314 Tb302 2.374 . S
O314 C309 1.250 . S
O315 Tb300 2.353 . S
O315 C309 1.263 1_554 S
C316 O317 1.275 . S
C316 O318 1.246 . S
O317 Tb300 2.427 . S
O317 C316 1.275 . S
O318 Tb300 2.513 . S
O318 C316 1.246 . S
C319 O303 1.245 . S
C319 O304 1.259 . S
Tb320 O323 2.453 . S
Tb320 O324 2.596 . S
Tb320 O325 2.374 1_565 S
Tb320 O333 2.343 . S
Tb320 O335 2.353 . S
Tb320 O337 2.427 . S
Tb320 O338 2.513 1_565 S
C321 O325 1.251 . S
C321 O327 1.263 1_545 S
Tb322 O324 2.343 . S
Tb322 O327 2.353 . S
Tb322 O330 2.427 . S
Tb322 O331 2.513 . S
Tb322 O332 2.453 . S
Tb322 O333 2.596 . S
Tb322 O334 2.374 . S
O323 Tb320 2.453 . S
O323 C339 1.245 . S
O324 Tb320 2.596 . S
O324 Tb322 2.343 . S
O324 C339 1.259 . S
O325 Tb320 2.374 1_545 S
O325 C321 1.251 . S
C326 O330 1.275 . S
C326 O331 1.246 . S
O327 C321 1.263 1_565 S
O327 Tb322 2.353 . S
C328 O332 1.245 . S
C328 O333 1.259 . S
C329 O334 1.250 . S
C329 O335 1.263 . S
O330 Tb322 2.427 . S
O330 C326 1.275 . S
O331 Tb322 2.513 . S
O331 C326 1.246 . S
O332 Tb322 2.453 . S
O332 C328 1.245 . S
O333 Tb320 2.343 . S
O333 Tb322 2.596 . S
O333 C328 1.259 . S
O334 Tb322 2.374 . S
O334 C329 1.250 . S
O335 Tb320 2.353 . S
O335 C329 1.263 . S
C336 O337 1.275 . S
C336 O338 1.246 1_565 S
O337 Tb320 2.427 . S
O337 C336 1.275 . S
O338 Tb320 2.513 1_545 S
O338 C336 1.246 1_545 S
C339 O323 1.245 . S
C339 O324 1.259 . S
Tb340 O343 2.453 1_556 S
Tb340 O344 2.596 1_556 S
Tb340 O345 2.374 . S
Tb340 O353 2.343 . S
Tb340 O355 2.353 . S
Tb340 O357 2.427 . S
Tb340 O358 2.513 . S
C341 O345 1.251 . S
C341 O347 1.263 1_556 S
Tb342 O344 2.343 . S
Tb342 O347 2.353 . S
Tb342 O350 2.427 . S
Tb342 O351 2.513 . S
Tb342 O352 2.453 1_554 S
Tb342 O353 2.596 1_554 S
Tb342 O354 2.374 1_554 S
O343 Tb340 2.453 1_554 S
O343 C359 1.245 . S
O344 Tb340 2.596 1_554 S
O344 Tb342 2.343 . S
O344 C359 1.259 . S
O345 Tb340 2.374 . S
O345 C341 1.251 . S
C346 O350 1.275 . S
C346 O351 1.246 . S
O347 C341 1.263 1_554 S
O347 Tb342 2.353 . S
C348 O352 1.245 . S
C348 O353 1.259 . S
C349 O354 1.250 . S
C349 O355 1.263 . S
O350 Tb342 2.427 . S
O350 C346 1.275 . S
O351 Tb342 2.513 . S
O351 C346 1.246 . S
O352 Tb342 2.453 1_556 S
O352 C348 1.245 . S
O353 Tb340 2.343 . S
O353 Tb342 2.596 1_556 S
O353 C348 1.259 . S
O354 Tb342 2.374 1_556 S
O354 C349 1.250 . S
O355 Tb340 2.353 . S
O355 C349 1.263 . S
C356 O357 1.275 . S
C356 O358 1.246 . S
O357 Tb340 2.427 . S
O357 C356 1.275 . S
O358 Tb340 2.513 . S
O358 C356 1.246 . S
C359 O343 1.245 . S
C359 O344 1.259 . S
Tb360 O363 2.453 1_545 S
Tb360 O364 2.596 . S
Tb360 O365 2.374 . S
Tb360 O373 2.343 . S
Tb360 O375 2.353 1_545 S
Tb360 O377 2.427 1_545 S
Tb360 O378 2.513 . S
C361 O365 1.251 . S
C361 O367 1.263 . S
Tb362 O364 2.343 . S
Tb362 O367 2.353 . S
Tb362 O370 2.427 . S
Tb362 O371 2.513 1_655 S
Tb362 O372 2.453 . S
Tb362 O373 2.596 . S
Tb362 O374 2.374 1_655 S
O363 Tb360 2.453 1_565 S
O363 C379 1.245 1_565 S
O364 Tb360 2.596 . S
O364 Tb362 2.343 . S
O364 C379 1.259 . S
O365 Tb360 2.374 . S
O365 C361 1.251 . S
C366 O370 1.275 . S
C366 O371 1.246 1_655 S
O367 C361 1.263 . S
O367 Tb362 2.353 . S
C368 O372 1.245 . S
C368 O373 1.259 . S
C369 O374 1.250 1_665 S
C369 O375 1.263 . S
O370 Tb362 2.427 . S
O370 C366 1.275 . S
O371 Tb362 2.513 1_455 S
O371 C366 1.246 1_455 S
O372 Tb362 2.453 . S
O372 C368 1.245 . S
O373 Tb360 2.343 . S
O373 Tb362 2.596 . S
O373 C368 1.259 . S
O374 Tb362 2.374 1_455 S
O374 C369 1.250 1_445 S
O375 Tb360 2.353 1_565 S
O375 C369 1.263 . S
C376 O377 1.275 1_546 S
C376 O378 1.246 1_556 S
O377 Tb360 2.427 1_565 S
O377 C376 1.275 1_564 S
O378 Tb360 2.513 . S
O378 C376 1.246 1_554 S
C379 O363 1.245 1_545 S
C379 O364 1.259 . S
Tb380 O383 2.453 . S
Tb380 O384 2.596 . S
Tb380 O385 2.374 . S
Tb380 O393 2.343 . S
Tb380 O395 2.353 . S
Tb380 O397 2.427 . S
Tb380 O398 2.513 . S
C381 O385 1.251 . S
C381 O387 1.263 . S
Tb382 O384 2.343 . S
Tb382 O387 2.353 . S
Tb382 O390 2.427 . S
Tb382 O391 2.513 . S
Tb382 O392 2.453 . S
Tb382 O393 2.596 . S
Tb382 O394 2.374 . S
O383 Tb380 2.453 . S
O383 C399 1.245 . S
O384 Tb380 2.596 . S
O384 Tb382 2.343 . S
O384 C399 1.259 . S
O385 Tb380 2.374 . S
O385 C381 1.251 . S
C386 O390 1.275 . S
C386 O391 1.246 . S
O387 C381 1.263 . S
O387 Tb382 2.353 . S
C388 O392 1.245 . S
C388 O393 1.259 . S
C389 O394 1.250 . S
C389 O395 1.263 . S
O390 Tb382 2.427 . S
O390 C386 1.275 . S
O391 Tb382 2.513 . S
O391 C386 1.246 . S
O392 Tb382 2.453 . S
O392 C388 1.245 . S
O393 Tb380 2.343 . S
O393 Tb382 2.596 . S
O393 C388 1.259 . S
O394 Tb382 2.374 . S
O394 C389 1.250 . S
O395 Tb380 2.353 . S
O395 C389 1.263 . S
C396 O397 1.275 . S
C396 O398 1.246 . S
O397 Tb380 2.427 . S
O397 C396 1.275 . S
O398 Tb380 2.513 . S
O398 C396 1.246 . S
C399 O383 1.245 . S
C399 O384 1.259 . S
Tb400 O403 2.453 . S
Tb400 O404 2.596 . S
Tb400 O405 2.374 1_545 S
Tb400 O413 2.343 . S
Tb400 O415 2.353 . S
Tb400 O417 2.427 1_554 S
Tb400 O418 2.513 1_544 S
C401 O405 1.251 . S
C401 O407 1.263 1_565 S
Tb402 O404 2.343 . S
Tb402 O407 2.353 . S
Tb402 O410 2.427 . S
Tb402 O411 2.513 . S
Tb402 O412 2.453 . S
Tb402 O413 2.596 . S
Tb402 O414 2.374 . S
O403 Tb400 2.453 . S
O403 C419 1.245 . S
O404 Tb400 2.596 . S
O404 Tb402 2.343 . S
O404 C419 1.259 . S
O405 Tb400 2.374 1_565 S
O405 C401 1.251 . S
C406 O410 1.275 . S
C406 O411 1.246 . S
O407 C401 1.263 1_545 S
O407 Tb402 2.353 . S
C408 O412 1.245 . S
C408 O413 1.259 . S
C409 O414 1.250 . S
C409 O415 1.263 . S
O410 Tb402 2.427 . S
O410 C406 1.275 . S
O411 Tb402 2.513 . S
O411 C406 1.246 . S
O412 Tb402 2.453 . S
O412 C408 1.245 . S
O413 Tb400 2.343 . S
O413 Tb402 2.596 . S
O413 C408 1.259 . S
O414 Tb402 2.374 . S
O414 C409 1.250 . S
O415 Tb400 2.353 . S
O415 C409 1.263 . S
C416 O417 1.275 . S
C416 O418 1.246 1_545 S
O417 Tb400 2.427 1_556 S
O417 C416 1.275 . S
O418 Tb400 2.513 1_566 S
O418 C416 1.246 1_565 S
C419 O403 1.245 . S
C419 O404 1.259 . S
Tb420 O423 2.453 . S
Tb420 O424 2.596 . S
Tb420 O425 2.374 . S
Tb420 O433 2.343 . S
Tb420 O435 2.353 . S
Tb420 O437 2.427 . S
Tb420 O438 2.513 . S
C421 O425 1.251 . S
C421 O427 1.263 . S
Tb422 O424 2.343 . S
Tb422 O427 2.353 . S
Tb422 O430 2.427 . S
Tb422 O431 2.513 . S
Tb422 O432 2.453 . S
Tb422 O433 2.596 . S
Tb422 O434 2.374 . S
O423 Tb420 2.453 . S
O423 C439 1.245 . S
O424 Tb420 2.596 . S
O424 Tb422 2.343 . S
O424 C439 1.259 . S
O425 Tb420 2.374 . S
O425 C421 1.251 . S
C426 O430 1.275 . S
C426 O431 1.246 . S
O427 C421 1.263 . S
O427 Tb422 2.353 . S
C428 O432 1.245 . S
C428 O433 1.259 . S
C429 O434 1.250 . S
C429 O435 1.263 . S
O430 Tb422 2.427 . S
O430 C426 1.275 . S
O431 Tb422 2.513 . S
O431 C426 1.246 . S
O432 Tb422 2.453 . S
O432 C428 1.245 . S
O433 Tb420 2.343 . S
O433 Tb422 2.596 . S
O433 C428 1.259 . S
O434 Tb422 2.374 . S
O434 C429 1.250 . S
O435 Tb420 2.353 . S
O435 C429 1.263 . S
C436 O437 1.275 . S
C436 O438 1.246 . S
O437 Tb420 2.427 . S
O437 C436 1.275 . S
O438 Tb420 2.513 . S
O438 C436 1.246 . S
C439 O423 1.245 . S
C439 O424 1.259 . S
Tb440 O443 2.453 1_565 S
Tb440 O444 2.596 . S
Tb440 O445 2.374 . S
Tb440 O453 2.343 . S
Tb440 O455 2.353 1_565 S
Tb440 O457 2.427 1_565 S
Tb440 O458 2.513 . S
C441 O445 1.251 . S
C441 O447 1.263 . S
Tb442 O444 2.343 . S
Tb442 O447 2.353 . S
Tb442 O450 2.427 . S
Tb442 O451 2.513 1_655 S
Tb442 O452 2.453 . S
Tb442 O453 2.596 . S
Tb442 O454 2.374 1_655 S
O443 Tb440 2.453 1_545 S
O443 C459 1.245 1_545 S
O444 Tb440 2.596 . S
O444 Tb442 2.343 . S
O444 C459 1.259 . S
O445 Tb440 2.374 . S
O445 C441 1.251 . S
C446 O450 1.275 . S
C446 O451 1.246 1_655 S
O447 C441 1.263 . S
O447 Tb442 2.353 . S
C448 O452 1.245 . S
C448 O453 1.259 . S
C449 O454 1.250 1_645 S
C449 O455 1.263 . S
O450 Tb442 2.427 . S
O450 C446 1.275 . S
O451 Tb442 2.513 1_455 S
O451 C446 1.246 1_455 S
O452 Tb442 2.453 . S
O452 C448 1.245 . S
O453 Tb440 2.343 . S
O453 Tb442 2.596 . S
O453 C448 1.259 . S
O454 Tb442 2.374 1_455 S
O454 C449 1.250 1_465 S
O455 Tb440 2.353 1_545 S
O455 C449 1.263 . S
C456 O457 1.275 1_565 S
C456 O458 1.246 . S
O457 Tb440 2.427 1_545 S
O457 C456 1.275 1_545 S
O458 Tb440 2.513 . S
O458 C456 1.246 . S
C459 O443 1.245 1_565 S
C459 O444 1.259 . S
Tb460 O463 2.453 . S
Tb460 O464 2.596 . S
Tb460 O465 2.374 . S
Tb460 O473 2.343 . S
Tb460 O475 2.353 . S
Tb460 O477 2.427 1_556 S
Tb460 O478 2.513 1_556 S
C461 O465 1.251 . S
C461 O467 1.263 . S
Tb462 O464 2.343 . S
Tb462 O467 2.353 . S
Tb462 O470 2.427 . S
Tb462 O471 2.513 . S
Tb462 O472 2.453 . S
Tb462 O473 2.596 . S
Tb462 O474 2.374 . S
O463 Tb460 2.453 . S
O463 C479 1.245 . S
O464 Tb460 2.596 . S
O464 Tb462 2.343 . S
O464 C479 1.259 . S
O465 Tb460 2.374 . S
O465 C461 1.251 . S
C466 O470 1.275 . S
C466 O471 1.246 . S
O467 C461 1.263 . S
O467 Tb462 2.353 . S
C468 O472 1.245 . S
C468 O473 1.259 . S
C469 O474 1.250 . S
C469 O475 1.263 . S
O470 Tb462 2.427 . S
O470 C466 1.275 . S
O471 Tb462 2.513 . S
O471 C466 1.246 . S
O472 Tb462 2.453 . S
O472 C468 1.245 . S
O473 Tb460 2.343 . S
O473 Tb462 2.596 . S
O473 C468 1.259 . S
O474 Tb462 2.374 . S
O474 C469 1.250 . S
O475 Tb460 2.353 . S
O475 C469 1.263 . S
C476 O477 1.275 . S
C476 O478 1.246 . S
O477 Tb460 2.427 1_554 S
O477 C476 1.275 . S
O478 Tb460 2.513 1_554 S
O478 C476 1.246 . S
C479 O463 1.245 . S
C479 O464 1.259 . S
Tb480 O483 2.453 . S
Tb480 O484 2.596 . S
Tb480 O485 2.374 . S
Tb480 O493 2.343 . S
Tb480 O495 2.353 . S
Tb480 O497 2.427 . S
Tb480 O498 2.513 . S
C481 O485 1.251 . S
C481 O487 1.263 . S
Tb482 O484 2.343 . S
Tb482 O487 2.353 . S
Tb482 O490 2.427 . S
Tb482 O491 2.513 1_545 S
Tb482 O492 2.453 . S
Tb482 O493 2.596 . S
Tb482 O494 2.374 1_545 S
O483 Tb480 2.453 . S
O483 C499 1.245 . S
O484 Tb480 2.596 . S
O484 Tb482 2.343 . S
O484 C499 1.259 . S
O485 Tb480 2.374 . S
O485 C481 1.251 . S
C486 O490 1.275 . S
C486 O491 1.246 1_545 S
O487 C481 1.263 . S
O487 Tb482 2.353 . S
C488 O492 1.245 . S
C488 O493 1.259 . S
C489 O494 1.250 . S
C489 O495 1.263 1_565 S
O490 Tb482 2.427 . S
O490 C486 1.275 . S
O491 Tb482 2.513 1_565 S
O491 C486 1.246 1_565 S
O492 Tb482 2.453 . S
O492 C488 1.245 . S
O493 Tb480 2.343 . S
O493 Tb482 2.596 . S
O493 C488 1.259 . S
O494 Tb482 2.374 1_565 S
O494 C489 1.250 . S
O495 Tb480 2.353 . S
O495 C489 1.263 1_545 S
C496 O497 1.275 . S
C496 O498 1.246 . S
O497 Tb480 2.427 . S
O497 C496 1.275 . S
O498 Tb480 2.513 . S
O498 C496 1.246 . S
C499 O483 1.245 . S
C499 O484 1.259 . S
Tb500 O503 2.453 . S
Tb500 O504 2.596 . S
Tb500 O505 2.374 . S
Tb500 O513 2.343 . S
Tb500 O515 2.353 . S
Tb500 O517 2.427 . S
Tb500 O518 2.513 . S
C501 O505 1.251 . S
C501 O507 1.263 . S
Tb502 O504 2.343 . S
Tb502 O507 2.353 . S
Tb502 O510 2.427 . S
Tb502 O511 2.513 . S
Tb502 O512 2.453 . S
Tb502 O513 2.596 . S
Tb502 O514 2.374 . S
O503 Tb500 2.453 . S
O503 C519 1.245 . S
O504 Tb500 2.596 . S
O504 Tb502 2.343 . S
O504 C519 1.259 . S
O505 Tb500 2.374 . S
O505 C501 1.251 . S
C506 O510 1.275 . S
C506 O511 1.246 . S
O507 C501 1.263 . S
O507 Tb502 2.353 . S
C508 O512 1.245 . S
C508 O513 1.259 . S
C509 O514 1.250 . S
C509 O515 1.263 . S
O510 Tb502 2.427 . S
O510 C506 1.275 . S
O511 Tb502 2.513 . S
O511 C506 1.246 . S
O512 Tb502 2.453 . S
O512 C508 1.245 . S
O513 Tb500 2.343 . S
O513 Tb502 2.596 . S
O513 C508 1.259 . S
O514 Tb502 2.374 . S
O514 C509 1.250 . S
O515 Tb500 2.353 . S
O515 C509 1.263 . S
C516 O517 1.275 . S
C516 O518 1.246 . S
O517 Tb500 2.427 . S
O517 C516 1.275 . S
O518 Tb500 2.513 . S
O518 C516 1.246 . S
C519 O503 1.245 . S
C519 O504 1.259 . S
Tb520 O523 2.453 . S
Tb520 O524 2.596 . S
Tb520 O525 2.374 1_455 S
Tb520 O533 2.343 1_554 S
Tb520 O535 2.353 . S
Tb520 O537 2.427 1_554 S
Tb520 O538 2.513 1_454 S
C521 O525 1.251 1_445 S
C521 O527 1.263 . S
Tb522 O524 2.343 . S
Tb522 O527 2.353 1_565 S
Tb522 O530 2.427 1_565 S
Tb522 O531 2.513 . S
Tb522 O532 2.453 1_564 S
Tb522 O533 2.596 1_554 S
Tb522 O534 2.374 . S
O523 Tb520 2.453 . S
O523 C539 1.245 . S
O524 Tb520 2.596 . S
O524 Tb522 2.343 . S
O524 C539 1.259 . S
O525 Tb520 2.374 1_655 S
O525 C521 1.251 1_665 S
C526 O530 1.275 1_565 S
C526 O531 1.246 . S
O527 C521 1.263 . S
O527 Tb522 2.353 1_545 S
C528 O532 1.245 1_565 S
C528 O533 1.259 . S
C529 O534 1.250 . S
C529 O535 1.263 . S
O530 Tb522 2.427 1_545 S
O530 C526 1.275 1_545 S
O531 Tb522 2.513 . S
O531 C526 1.246 . S
O532 Tb522 2.453 1_546 S
O532 C528 1.245 1_545 S
O533 Tb520 2.343 1_556 S
O533 Tb522 2.596 1_556 S
O533 C528 1.259 . S
O534 Tb522 2.374 . S
O534 C529 1.250 . S
O535 Tb520 2.353 . S
O535 C529 1.263 . S
C536 O537 1.275 . S
C536 O538 1.246 1_455 S
O537 Tb520 2.427 1_556 S
O537 C536 1.275 . S
O538 Tb520 2.513 1_656 S
O538 C536 1.246 1_655 S
C539 O523 1.245 . S
C539 O524 1.259 . S
Tb540 O543 2.453 . S
Tb540 O544 2.596 . S
Tb540 O545 2.374 . S
Tb540 O553 2.343 . S
Tb540 O555 2.353 . S
Tb540 O557 2.427 . S
Tb540 O558 2.513 . S
C541 O545 1.251 . S
C541 O547 1.263 . S
Tb542 O544 2.343 . S
Tb542 O547 2.353 . S
Tb542 O550 2.427 1_556 S
Tb542 O551 2.513 1_556 S
Tb542 O552 2.453 . S
Tb542 O553 2.596 . S
Tb542 O554 2.374 . S
O543 Tb540 2.453 . S
O543 C559 1.245 . S
O544 Tb540 2.596 . S
O544 Tb542 2.343 . S
O544 C559 1.259 . S
O545 Tb540 2.374 . S
O545 C541 1.251 . S
C546 O550 1.275 . S
C546 O551 1.246 . S
O547 C541 1.263 . S
O547 Tb542 2.353 . S
C548 O552 1.245 . S
C548 O553 1.259 . S
C549 O554 1.250 . S
C549 O555 1.263 . S
O550 Tb542 2.427 1_554 S
O550 C546 1.275 . S
O551 Tb542 2.513 1_554 S
O551 C546 1.246 . S
O552 Tb542 2.453 . S
O552 C548 1.245 . S
O553 Tb540 2.343 . S
O553 Tb542 2.596 . S
O553 C548 1.259 . S
O554 Tb542 2.374 . S
O554 C549 1.250 . S
O555 Tb540 2.353 . S
O555 C549 1.263 . S
C556 O557 1.275 . S
C556 O558 1.246 . S
O557 Tb540 2.427 . S
O557 C556 1.275 . S
O558 Tb540 2.513 . S
O558 C556 1.246 . S
C559 O543 1.245 . S
C559 O544 1.259 . S
Tb560 O563 2.453 . S
Tb560 O564 2.596 . S
Tb560 O565 2.374 . S
Tb560 O573 2.343 . S
Tb560 O575 2.353 . S
Tb560 O577 2.427 1_554 S
Tb560 O578 2.513 1_554 S
C561 O565 1.251 . S
C561 O567 1.263 . S
Tb562 O564 2.343 . S
Tb562 O567 2.353 . S
Tb562 O570 2.427 . S
Tb562 O571 2.513 1_565 S
Tb562 O572 2.453 . S
Tb562 O573 2.596 . S
Tb562 O574 2.374 1_565 S
O563 Tb560 2.453 . S
O563 C579 1.245 . S
O564 Tb560 2.596 . S
O564 Tb562 2.343 . S
O564 C579 1.259 . S
O565 Tb560 2.374 . S
O565 C561 1.251 . S
C566 O570 1.275 . S
C566 O571 1.246 1_565 S
O567 C561 1.263 . S
O567 Tb562 2.353 . S
C568 O572 1.245 1_556 S
C568 O573 1.259 1_556 S
C569 O574 1.250 . S
C569 O575 1.263 1_545 S
O570 Tb562 2.427 . S
O570 C566 1.275 . S
O571 Tb562 2.513 1_545 S
O571 C566 1.246 1_545 S
O572 Tb562 2.453 . S
O572 C568 1.245 1_554 S
O573 Tb560 2.343 . S
O573 Tb562 2.596 . S
O573 C568 1.259 1_554 S
O574 Tb562 2.374 1_545 S
O574 C569 1.250 . S
O575 Tb560 2.353 . S
O575 C569 1.263 1_565 S
C576 O577 1.275 . S
C576 O578 1.246 . S
O577 Tb560 2.427 1_556 S
O577 C576 1.275 . S
O578 Tb560 2.513 1_556 S
O578 C576 1.246 . S
C579 O563 1.245 . S
C579 O564 1.259 . S
Tb580 O583 2.453 1_554 S
Tb580 O584 2.596 1_554 S
Tb580 O585 2.374 1_554 S
Tb580 O593 2.343 . S
Tb580 O595 2.353 . S
Tb580 O597 2.427 . S
Tb580 O598 2.513 . S
C581 O585 1.251 . S
C581 O587 1.263 . S
Tb582 O584 2.343 . S
Tb582 O587 2.353 . S
Tb582 O590 2.427 . S
Tb582 O591 2.513 . S
Tb582 O592 2.453 1_556 S
Tb582 O593 2.596 1_556 S
Tb582 O594 2.374 . S
O583 Tb580 2.453 1_556 S
O583 C599 1.245 . S
O584 Tb580 2.596 1_556 S
O584 Tb582 2.343 . S
O584 C599 1.259 . S
O585 Tb580 2.374 1_556 S
O585 C581 1.251 . S
C586 O590 1.275 . S
C586 O591 1.246 . S
O587 C581 1.263 . S
O587 Tb582 2.353 . S
C588 O592 1.245 . S
C588 O593 1.259 . S
C589 O594 1.250 1_554 S
C589 O595 1.263 . S
O590 Tb582 2.427 . S
O590 C586 1.275 . S
O591 Tb582 2.513 . S
O591 C586 1.246 . S
O592 Tb582 2.453 1_554 S
O592 C588 1.245 . S
O593 Tb580 2.343 . S
O593 Tb582 2.596 1_554 S
O593 C588 1.259 . S
O594 Tb582 2.374 . S
O594 C589 1.250 1_556 S
O595 Tb580 2.353 . S
O595 C589 1.263 . S
C596 O597 1.275 . S
C596 O598 1.246 . S
O597 Tb580 2.427 . S
O597 C596 1.275 . S
O598 Tb580 2.513 . S
O598 C596 1.246 . S
C599 O583 1.245 . S
C599 O584 1.259 . S
Tb600 O603 2.453 . S
Tb600 O604 2.596 . S
Tb600 O605 2.374 1_455 S
Tb600 O613 2.343 . S
Tb600 O615 2.353 . S
Tb600 O617 2.427 . S
Tb600 O618 2.513 1_455 S
C601 O605 1.251 1_465 S
C601 O607 1.263 . S
Tb602 O604 2.343 . S
Tb602 O607 2.353 1_545 S
Tb602 O610 2.427 1_545 S
Tb602 O611 2.513 . S
Tb602 O612 2.453 1_545 S
Tb602 O613 2.596 . S
Tb602 O614 2.374 . S
O603 Tb600 2.453 . S
O603 C619 1.245 . S
O604 Tb600 2.596 . S
O604 Tb602 2.343 . S
O604 C619 1.259 . S
O605 Tb600 2.374 1_655 S
O605 C601 1.251 1_645 S
C606 O610 1.275 1_545 S
C606 O611 1.246 . S
O607 C601 1.263 . S
O607 Tb602 2.353 1_565 S
C608 O612 1.245 1_545 S
C608 O613 1.259 . S
C609 O614 1.250 . S
C609 O615 1.263 . S
O610 Tb602 2.427 1_565 S
O610 C606 1.275 1_565 S
O611 Tb602 2.513 . S
O611 C606 1.246 . S
O612 Tb602 2.453 1_565 S
O612 C608 1.245 1_565 S
O613 Tb600 2.343 . S
O613 Tb602 2.596 . S
O613 C608 1.259 . S
O614 Tb602 2.374 . S
O614 C609 1.250 . S
O615 Tb600 2.353 . S
O615 C609 1.263 . S
C616 O617 1.275 . S
C616 O618 1.246 1_455 S
O617 Tb600 2.427 . S
O617 C616 1.275 . S
O618 Tb600 2.513 1_655 S
O618 C616 1.246 1_655 S
C619 O603 1.245 . S
C619 O604 1.259 . S
Tb620 O623 2.453 . S
Tb620 O624 2.596 . S
Tb620 O625 2.374 . S
Tb620 O633 2.343 . S
Tb620 O635 2.353 . S
Tb620 O637 2.427 . S
Tb620 O638 2.513 . S
C621 O625 1.251 . S
C621 O627 1.263 . S
Tb622 O624 2.343 . S
Tb622 O627 2.353 . S
Tb622 O630 2.427 . S
Tb622 O631 2.513 . S
Tb622 O632 2.453 . S
Tb622 O633 2.596 . S
Tb622 O634 2.374 . S
O623 Tb620 2.453 . S
O623 C639 1.245 . S
O624 Tb620 2.596 . S
O624 Tb622 2.343 . S
O624 C639 1.259 . S
O625 Tb620 2.374 . S
O625 C621 1.251 . S
C626 O630 1.275 . S
C626 O631 1.246 . S
O627 C621 1.263 . S
O627 Tb622 2.353 . S
C628 O632 1.245 . S
C628 O633 1.259 . S
C629 O634 1.250 . S
C629 O635 1.263 . S
O630 Tb622 2.427 . S
O630 C626 1.275 . S
O631 Tb622 2.513 . S
O631 C626 1.246 . S
O632 Tb622 2.453 . S
O632 C628 1.245 . S
O633 Tb620 2.343 . S
O633 Tb622 2.596 . S
O633 C628 1.259 . S
O634 Tb622 2.374 . S
O634 C629 1.250 . S
O635 Tb620 2.353 . S
O635 C629 1.263 . S
C636 O637 1.275 . S
C636 O638 1.246 . S
O637 Tb620 2.427 . S
O637 C636 1.275 . S
O638 Tb620 2.513 . S
O638 C636 1.246 . S
C639 O623 1.245 . S
C639 O624 1.259 . S
C16 C96 1.007 . S
C119 C39 1.170 . S
C59 C139 1.096 . S
C159 C79 1.169 . S
C166 C246 1.007 . S
C188 C268 1.170 . S
C288 C208 1.096 . S
C228 C308 1.170 . S
C416 C336 1.007 1_545 S
C359 C439 1.170 . S
C379 C459 1.096 1_545 S
C399 C479 1.170 . S
C486 C566 1.008 1_545 S
C588 C508 1.170 . S
C528 C608 1.096 1_565 S
C628 C548 1.170 . S
C421 C9 2.024 . S
C441 C21 1.640 . S
C461 C41 1.641 . S
C61 C409 2.022 . S
C89 C381 2.023 . S
C329 C101 2.024 . S
C121 C341 1.640 1_554 S
C141 C361 1.641 . S
C161 C589 2.023 . S
C609 C189 1.641 . S
C629 C209 1.640 . S
C229 C561 2.024 . S
C241 C549 2.024 . S
C269 C481 2.023 . S
C289 C509 1.641 . S
C309 C529 1.640 1_556 S
C169 C1 1.557 1_455 S
C29 C501 1.173 . S
C201 C49 1.868 . S
C69 C541 1.145 . S
C249 C81 1.557 1_455 S
C581 C109 1.145 . S
C129 C281 1.868 . S
C149 C621 1.173 . S
C349 C181 1.172 . S
C389 C221 1.145 . S
C261 C429 1.145 . S
C469 C301 1.172 . S
C489 C321 1.557 1_565 S
C521 C369 1.868 1_445 S
C569 C401 1.557 1_545 S
C449 C601 1.868 1_645 S
C6 C259 1.588 1_455 S
C596 C28 1.768 . S
C296 C48 1.708 . S
C68 C636 1.787 . S
C179 C86 1.588 1_654 S
C516 C108 1.788 1_554 S
C216 C128 1.708 . S
C556 C148 1.769 . S
C88 C176 1.588 1_455 S
C426 C199 1.769 1_554 S
C126 C219 1.708 . S
C239 C466 1.788 . S
C8 C256 1.588 1_455 S
C346 C279 1.787 . S
C299 C46 1.708 1_554 S
C319 C386 1.768 . S
C579 C326 1.588 . S
C276 C348 1.768 . S
C368 C616 1.708 1_654 S
C316 C388 1.787 . S
C406 C499 1.588 . S
C428 C196 1.788 . S
C536 C448 1.708 1_455 S
C236 C468 1.769 1_554 S
C496 C408 1.588 1_556 S
C519 C106 1.769 . S
C539 C446 1.708 1_455 S
C559 C146 1.788 1_556 S
C328 C576 1.588 . S
C26 C599 1.787 . S
C619 C366 1.708 1_455 S
C66 C639 1.768 . S
C99 C19 2.672 . S
C116 C36 1.798 . S
C56 C136 1.888 . S
C156 C76 1.798 . S
C248 C168 2.672 . S
C186 C266 1.797 . S
C206 C286 1.888 . S
C306 C226 1.798 . S
C339 C419 2.672 1_565 S
C436 C356 1.798 . S
C376 C456 1.888 1_545 S
C396 C476 1.798 . S
C568 C488 2.672 1_565 S
C586 C506 1.798 . S
C526 C606 1.888 1_565 S
C626 C546 1.798 . S
