# Generated by pormake.
# Topology wiu, (6)-cn, num edge types: 1
# Building blocks:
#     Node 0, Type 0, BuildingBlock: MIFKUJ_clean_sbu_0, # of connection points: 6
#     Node 1, Type 0, BuildingBlock: MIFKUJ_clean_sbu_0, # of connection points: 6
#     Node 2, Type 0, BuildingBlock: MIFKUJ_clean_sbu_0, # of connection points: 6
#     Node 3, Type 0, BuildingBlock: MIFKUJ_clean_sbu_0, # of connection points: 6
#     Node 4, Type 0, BuildingBlock: MIFKUJ_clean_sbu_0, # of connection points: 6
#     Node 5, Type 0, BuildingBlock: MIFKUJ_clean_sbu_0, # of connection points: 6
#     Node 6, Type 0, BuildingBlock: MIFKUJ_clean_sbu_0, # of connection points: 6
#     Node 7, Type 0, BuildingBlock: MIFKUJ_clean_sbu_0, # of connection points: 6
#     Node 8, Type 0, BuildingBlock: MIFKUJ_clean_sbu_0, # of connection points: 6
#     Node 9, Type 0, BuildingBlock: MIFKUJ_clean_sbu_0, # of connection points: 6
#     Node 10, Type 0, BuildingBlock: MIFKUJ_clean_sbu_0, # of connection points: 6
#     Node 11, Type 0, BuildingBlock: MIFKUJ_clean_sbu_0, # of connection points: 6
#     Node 12, Type 0, BuildingBlock: MIFKUJ_clean_sbu_0, # of connection points: 6
#     Node 13, Type 0, BuildingBlock: MIFKUJ_clean_sbu_0, # of connection points: 6
#     Node 14, Type 0, BuildingBlock: MIFKUJ_clean_sbu_0, # of connection points: 6
#     Node 15, Type 0, BuildingBlock: MIFKUJ_clean_sbu_0, # of connection points: 6
#     Edge 16, Type (0, 0), BuildingBlock: TEMPAE_clean_linker_10, # of connection points: 2
#     Edge 17, Type (0, 0), BuildingBlock: TEMPAE_clean_linker_10, # of connection points: 2
#     Edge 18, Type (0, 0), BuildingBlock: TEMPAE_clean_linker_10, # of connection points: 2
#     Edge 19, Type (0, 0), BuildingBlock: TEMPAE_clean_linker_10, # of connection points: 2
#     Edge 20, Type (0, 0), BuildingBlock: TEMPAE_clean_linker_10, # of connection points: 2
#     Edge 21, Type (0, 0), BuildingBlock: TEMPAE_clean_linker_10, # of connection points: 2
#     Edge 22, Type (0, 0), BuildingBlock: TEMPAE_clean_linker_10, # of connection points: 2
#     Edge 23, Type (0, 0), BuildingBlock: TEMPAE_clean_linker_10, # of connection points: 2
#     Edge 24, Type (0, 0), BuildingBlock: TEMPAE_clean_linker_10, # of connection points: 2
#     Edge 25, Type (0, 0), BuildingBlock: TEMPAE_clean_linker_10, # of connection points: 2
#     Edge 26, Type (0, 0), BuildingBlock: TEMPAE_clean_linker_10, # of connection points: 2
#     Edge 27, Type (0, 0), BuildingBlock: TEMPAE_clean_linker_10, # of connection points: 2
#     Edge 28, Type (0, 0), BuildingBlock: TEMPAE_clean_linker_10, # of connection points: 2
#     Edge 29, Type (0, 0), BuildingBlock: TEMPAE_clean_linker_10, # of connection points: 2
#     Edge 30, Type (0, 0), BuildingBlock: TEMPAE_clean_linker_10, # of connection points: 2
#     Edge 31, Type (0, 0), BuildingBlock: TEMPAE_clean_linker_10, # of connection points: 2
#     Edge 32, Type (0, 0), BuildingBlock: TEMPAE_clean_linker_10, # of connection points: 2
#     Edge 33, Type (0, 0), BuildingBlock: TEMPAE_clean_linker_10, # of connection points: 2
#     Edge 34, Type (0, 0), BuildingBlock: TEMPAE_clean_linker_10, # of connection points: 2
#     Edge 35, Type (0, 0), BuildingBlock: TEMPAE_clean_linker_10, # of connection points: 2
#     Edge 36, Type (0, 0), BuildingBlock: TEMPAE_clean_linker_10, # of connection points: 2
#     Edge 37, Type (0, 0), BuildingBlock: TEMPAE_clean_linker_10, # of connection points: 2
#     Edge 38, Type (0, 0), BuildingBlock: TEMPAE_clean_linker_10, # of connection points: 2
#     Edge 39, Type (0, 0), BuildingBlock: TEMPAE_clean_linker_10, # of connection points: 2
#     Edge 40, Type (0, 0), BuildingBlock: TEMPAE_clean_linker_10, # of connection points: 2
#     Edge 41, Type (0, 0), BuildingBlock: TEMPAE_clean_linker_10, # of connection points: 2
#     Edge 42, Type (0, 0), BuildingBlock: TEMPAE_clean_linker_10, # of connection points: 2
#     Edge 43, Type (0, 0), BuildingBlock: TEMPAE_clean_linker_10, # of connection points: 2
#     Edge 44, Type (0, 0), BuildingBlock: TEMPAE_clean_linker_10, # of connection points: 2
#     Edge 45, Type (0, 0), BuildingBlock: TEMPAE_clean_linker_10, # of connection points: 2
#     Edge 46, Type (0, 0), BuildingBlock: TEMPAE_clean_linker_10, # of connection points: 2
#     Edge 47, Type (0, 0), BuildingBlock: TEMPAE_clean_linker_10, # of connection points: 2
#     Edge 48, Type (0, 0), BuildingBlock: TEMPAE_clean_linker_10, # of connection points: 2
#     Edge 49, Type (0, 0), BuildingBlock: TEMPAE_clean_linker_10, # of connection points: 2
#     Edge 50, Type (0, 0), BuildingBlock: TEMPAE_clean_linker_10, # of connection points: 2
#     Edge 51, Type (0, 0), BuildingBlock: TEMPAE_clean_linker_10, # of connection points: 2
#     Edge 52, Type (0, 0), BuildingBlock: TEMPAE_clean_linker_10, # of connection points: 2
#     Edge 53, Type (0, 0), BuildingBlock: TEMPAE_clean_linker_10, # of connection points: 2
#     Edge 54, Type (0, 0), BuildingBlock: TEMPAE_clean_linker_10, # of connection points: 2
#     Edge 55, Type (0, 0), BuildingBlock: TEMPAE_clean_linker_10, # of connection points: 2
#     Edge 56, Type (0, 0), BuildingBlock: TEMPAE_clean_linker_10, # of connection points: 2
#     Edge 57, Type (0, 0), BuildingBlock: TEMPAE_clean_linker_10, # of connection points: 2
#     Edge 58, Type (0, 0), BuildingBlock: TEMPAE_clean_linker_10, # of connection points: 2
#     Edge 59, Type (0, 0), BuildingBlock: TEMPAE_clean_linker_10, # of connection points: 2
#     Edge 60, Type (0, 0), BuildingBlock: TEMPAE_clean_linker_10, # of connection points: 2
#     Edge 61, Type (0, 0), BuildingBlock: TEMPAE_clean_linker_10, # of connection points: 2
#     Edge 62, Type (0, 0), BuildingBlock: TEMPAE_clean_linker_10, # of connection points: 2
#     Edge 63, Type (0, 0), BuildingBlock: TEMPAE_clean_linker_10, # of connection points: 2
# Relax obj value: 0.182
# Max RMSD: 0.244
# Mean RMSD: 0.244
data_MOF--net-wiu--node1-MIFKUJ_clean_sbu_0--edge1-TEMPAE_clean_linker_10
_symmetry_space_group_name_H-M    P1
_symmetry_Int_Tables_number       1
_symmetry_cell_setting            triclinic
loop_
_symmetry_equiv_pos_as_xyz
'x, y, z'
_cell_length_a     31.370735
_cell_length_b     31.410261
_cell_length_c     68.9932
_cell_angle_alpha  90.160868
_cell_angle_beta   89.948228
_cell_angle_gamma 89.903818
loop_
_atom_site_label
_atom_site_type_symbol
_atom_site_fract_x
_atom_site_fract_y
_atom_site_fract_z
_atom_type_partial_charge
Zn0 Zn 0.30147 0.09522 0.04812 0.0
Zn1 Zn 0.28758 0.14591 0.10571 0.0
C2 C 0.26265 0.08987 0.01348 0.0
O3 O 0.2647 0.05131 0.02077 0.0
C4 C 0.3312 0.12082 0.14074 0.0
O5 O 0.35926 0.14867 0.13457 0.0
O6 O 0.34372 0.05104 0.04002 0.0
O7 O 0.33248 0.13646 0.06657 0.0
O8 O 0.34175 0.16876 0.09478 0.0
C9 C 0.38226 0.06249 0.03821 0.0
O10 O 0.393 0.10178 0.04246 0.0
O11 O 0.2786 0.12041 0.02322 0.0
C12 C 0.21726 0.2031 0.11815 0.0
O13 O 0.19884 0.17077 0.12679 0.0
O14 O 0.25182 0.19759 0.10897 0.0
O15 O 0.26837 0.10764 0.0849 0.0
O16 O 0.25086 0.06648 0.06117 0.0
O17 O 0.29753 0.11458 0.13087 0.0
C18 C 0.35306 0.16228 0.0773 0.0
C19 C 0.24277 0.0809 0.07791 0.0
Zn20 Zn 0.62437 0.55138 0.29808 0.0
Zn21 Zn 0.57627 0.5419 0.35553 0.0
C22 C 0.61646 0.50645 0.26527 0.0
O23 O 0.65626 0.50317 0.27095 0.0
C24 C 0.59506 0.56852 0.39434 0.0
O25 O 0.55555 0.55604 0.39702 0.0
O26 O 0.66855 0.58883 0.28659 0.0
O27 O 0.59554 0.58686 0.31967 0.0
O28 O 0.54573 0.58842 0.34145 0.0
C29 C 0.65371 0.62547 0.28287 0.0
O30 O 0.61367 0.63403 0.2868 0.0
O31 O 0.59056 0.52902 0.2752 0.0
C32 C 0.52442 0.4663 0.37025 0.0
O33 O 0.55725 0.44031 0.37093 0.0
O34 O 0.52927 0.5044 0.36463 0.0
O35 O 0.61365 0.51686 0.33546 0.0
O36 O 0.65071 0.49842 0.31033 0.0
O37 O 0.61124 0.56575 0.37751 0.0
C38 C 0.55835 0.59884 0.32462 0.0
C39 C 0.63812 0.4904 0.32739 0.0
Zn40 Zn 0.17925 0.86828 0.54607 0.0
Zn41 Zn 0.18569 0.82947 0.6062 0.0
C42 C 0.21804 0.864 0.51127 0.0
O43 O 0.21391 0.90454 0.5156 0.0
C44 C 0.14101 0.85097 0.64102 0.0
O45 O 0.11417 0.82293 0.63395 0.0
O46 O 0.13764 0.9072 0.53303 0.0
O47 O 0.14492 0.83382 0.56573 0.0
O48 O 0.13132 0.80812 0.59489 0.0
C49 C 0.10501 0.92485 0.54034 0.0
O50 O 0.0972 0.92097 0.55896 0.0
O51 O 0.20588 0.83623 0.52351 0.0
C52 C 0.25764 0.76784 0.61267 0.0
O53 O 0.28601 0.79784 0.60982 0.0
O54 O 0.21821 0.77634 0.61151 0.0
O55 O 0.20848 0.86526 0.5848 0.0
O56 O 0.22773 0.90022 0.5593 0.0
O57 O 0.17451 0.86024 0.63151 0.0
C58 C 0.12172 0.81186 0.57706 0.0
C59 C 0.23468 0.89024 0.57684 0.0
Zn60 Zn 0.84857 0.42504 0.79635 0.0
Zn61 Zn 0.89585 0.44598 0.85326 0.0
C62 C 0.84351 0.46249 0.76107 0.0
O63 O 0.80434 0.45904 0.76764 0.0
C64 C 0.87983 0.41392 0.89136 0.0
O65 O 0.92166 0.41276 0.8919 0.0
O66 O 0.80444 0.3822 0.78855 0.0
O67 O 0.89237 0.39279 0.81418 0.0
O68 O 0.92363 0.39419 0.84318 0.0
C69 C 0.81824 0.3451 0.78481 0.0
O70 O 0.85909 0.33719 0.78663 0.0
O71 O 0.87374 0.44774 0.77138 0.0
C72 C 0.94575 0.50959 0.8741 0.0
O73 O 0.91531 0.50779 0.88716 0.0
O74 O 0.94236 0.48802 0.85861 0.0
O75 O 0.85978 0.45995 0.83153 0.0
O76 O 0.81822 0.47681 0.80826 0.0
O77 O 0.86116 0.42861 0.87648 0.0
C78 C 0.91824 0.37689 0.82662 0.0
C79 C 0.83322 0.48576 0.82471 0.0
Zn80 Zn 0.69487 0.83177 0.89065 0.0
Zn81 Zn 0.67748 0.87163 0.94923 0.0
C82 C 0.65046 0.84669 0.85538 0.0
O83 O 0.64073 0.80642 0.85793 0.0
C84 C 0.72285 0.87228 0.98194 0.0
O85 O 0.71851 0.91189 0.97618 0.0
O86 O 0.73764 0.78593 0.88516 0.0
O87 O 0.70912 0.86863 0.91244 0.0
O88 O 0.72602 0.90645 0.93709 0.0
C89 C 0.75189 0.77839 0.86828 0.0
O90 O 0.74252 0.8047 0.85414 0.0
O91 O 0.67536 0.86491 0.86734 0.0
C92 C 0.60097 0.92491 0.95408 0.0
O93 O 0.59747 0.92613 0.93512 0.0
O94 O 0.63248 0.90648 0.9619 0.0
O95 O 0.64632 0.8318 0.93014 0.0
O96 O 0.6441 0.80259 0.90091 0.0
O97 O 0.70553 0.84277 0.97201 0.0
C98 C 0.7353 0.89365 0.92022 0.0
C99 C 0.62831 0.80742 0.91778 0.0
Zn100 Zn 0.39587 0.44193 0.64193 0.0
Zn101 Zn 0.34234 0.42208 0.69571 0.0
C102 C 0.37742 0.39113 0.60743 0.0
O103 O 0.41359 0.37203 0.61151 0.0
C104 C 0.34934 0.46649 0.72887 0.0
O105 O 0.30946 0.46923 0.72322 0.0
O106 O 0.43873 0.4874 0.63712 0.0
O107 O 0.35512 0.45667 0.66165 0.0
O108 O 0.31217 0.47446 0.68427 0.0
C109 C 0.44945 0.49505 0.61978 0.0
O110 O 0.42696 0.47854 0.6056 0.0
O111 O 0.36461 0.42152 0.61817 0.0
C112 C 0.32036 0.34956 0.71335 0.0
O113 O 0.36224 0.35002 0.71345 0.0
O114 O 0.30051 0.38124 0.70636 0.0
O115 O 0.37493 0.38434 0.67564 0.0
O116 O 0.42714 0.39509 0.65505 0.0
O117 O 0.37532 0.44429 0.71887 0.0
C118 C 0.32853 0.48296 0.66804 0.0
C119 C 0.41353 0.37797 0.67059 0.0
Zn120 Zn 0.78324 0.14926 0.39129 0.0
Zn121 Zn 0.80318 0.08954 0.44468 0.0
C122 C 0.83536 0.11729 0.35861 0.0
O123 O 0.86759 0.13149 0.3689 0.0
C124 C 0.75698 0.09928 0.47819 0.0
O125 O 0.75361 0.05888 0.47352 0.0
O126 O 0.74061 0.19597 0.38908 0.0
O127 O 0.76668 0.10601 0.41029 0.0
O128 O 0.75234 0.0589 0.43188 0.0
C129 C 0.72199 0.20325 0.37318 0.0
O130 O 0.72814 0.1774 0.35846 0.0
O131 O 0.79767 0.12183 0.36517 0.0
C132 C 0.87816 0.06669 0.46154 0.0
O133 O 0.88151 0.10805 0.4593 0.0
O134 O 0.844 0.04827 0.45636 0.0
O135 O 0.8389 0.12151 0.42386 0.0
O136 O 0.83335 0.17613 0.40451 0.0
O137 O 0.77882 0.12378 0.46735 0.0
C138 C 0.74236 0.07695 0.4161 0.0
C139 C 0.84772 0.16021 0.42016 0.0
Zn140 Zn 0.07972 0.54765 0.13751 0.0
Zn141 Zn 0.1215 0.55048 0.19627 0.0
C142 C 0.10081 0.5934 0.10335 0.0
O143 O 0.05965 0.60118 0.10386 0.0
C144 C 0.12501 0.50798 0.2301 0.0
O145 O 0.16363 0.50683 0.22272 0.0
O146 O 0.03521 0.51102 0.12576 0.0
O147 O 0.11438 0.52008 0.15787 0.0
O148 O 0.14845 0.49936 0.18331 0.0
C149 C 0.02077 0.47566 0.13166 0.0
O150 O 0.03866 0.45668 0.14652 0.0
O151 O 0.11732 0.57102 0.11669 0.0
C152 C 0.14888 0.61963 0.21568 0.0
O153 O 0.10868 0.61625 0.22076 0.0
O154 O 0.16468 0.59325 0.20374 0.0
O155 O 0.08051 0.58036 0.17829 0.0
O156 O 0.04796 0.59485 0.15095 0.0
O157 O 0.09593 0.52791 0.22104 0.0
C158 C 0.13732 0.4923 0.16598 0.0
C159 C 0.05366 0.60235 0.16888 0.0
Zn160 Zn 0.7996 0.59197 0.54953 0.0
Zn161 Zn 0.78923 0.64712 0.60451 0.0
C162 C 0.76243 0.59697 0.51475 0.0
O163 O 0.75967 0.55754 0.52092 0.0
C164 C 0.83442 0.63265 0.64029 0.0
O165 O 0.8385 0.67427 0.64 0.0
O166 O 0.83665 0.54624 0.53841 0.0
O167 O 0.83955 0.62116 0.56953 0.0
O168 O 0.83503 0.67488 0.58957 0.0
C169 C 0.87237 0.56103 0.53305 0.0
O170 O 0.88041 0.60171 0.53546 0.0
O171 O 0.77929 0.62482 0.52581 0.0
C172 C 0.71671 0.70013 0.62089 0.0
O173 O 0.693 0.66687 0.62494 0.0
O174 O 0.75288 0.6952 0.61301 0.0
O175 O 0.76588 0.60828 0.58519 0.0
O176 O 0.74633 0.56658 0.56205 0.0
O177 O 0.81414 0.61428 0.62672 0.0
C178 C 0.84939 0.65932 0.57384 0.0
C179 C 0.73899 0.58255 0.57856 0.0
Zn180 Zn 0.12812 0.04991 0.79856 0.0
Zn181 Zn 0.07907 0.03528 0.85479 0.0
C182 C 0.11766 0.01214 0.76393 0.0
O183 O 0.15862 0.0115 0.76778 0.0
C184 C 0.09851 0.0807 0.89016 0.0
O185 O 0.05798 0.09113 0.88932 0.0
O186 O 0.17292 0.08646 0.78698 0.0
O187 O 0.1007 0.08634 0.82034 0.0
O188 O 0.04893 0.0826 0.84134 0.0
C189 C 0.15917 0.12276 0.78205 0.0
O190 O 0.11906 0.13269 0.78495 0.0
O191 O 0.0921 0.02929 0.77603 0.0
C192 C 0.02773 0.95963 0.86923 0.0
O193 O 0.06147 0.93548 0.87181 0.0
O194 O 0.03189 -0.00271 0.86296 0.0
O195 O 0.11664 0.01265 0.83441 0.0
O196 O 0.15471 -0.00412 0.80943 0.0
O197 O 0.11413 0.0568 0.87708 0.0
C198 C 0.06271 0.09605 0.82516 0.0
C199 C 0.14141 0.9867 0.82622 0.0
Zn200 Zn 0.67743 0.37949 0.04704 0.0
Zn201 Zn 0.69185 0.3337 0.10507 0.0
C202 C 0.71268 0.38045 0.01164 0.0
O203 O 0.71012 0.4201 0.01766 0.0
C204 C 0.64829 0.35258 0.14038 0.0
O205 O 0.62221 0.32387 0.13327 0.0
O206 O 0.63415 0.42227 0.03826 0.0
O207 O 0.64425 0.34129 0.06593 0.0
O208 O 0.6372 0.31183 0.09485 0.0
C209 C 0.60083 0.4046 0.03159 0.0
O210 O 0.59887 0.36284 0.03119 0.0
O211 O 0.69973 0.35093 0.02276 0.0
C212 C 0.75708 0.27536 0.1194 0.0
O213 O 0.76916 0.3066 0.13084 0.0
O214 O 0.72755 0.28172 0.10724 0.0
O215 O 0.70959 0.37163 0.08405 0.0
O216 O 0.72917 0.40809 0.05924 0.0
O217 O 0.68165 0.36246 0.13089 0.0
C218 C 0.62377 0.31763 0.07767 0.0
C219 C 0.73656 0.39591 0.07637 0.0
Zn220 Zn 0.34084 0.91924 0.29907 0.0
Zn221 Zn 0.39502 0.94269 0.3532 0.0
C222 C 0.34696 0.96149 0.26536 0.0
O223 O 0.30686 0.96291 0.27079 0.0
C224 C 0.38091 0.89984 0.39001 0.0
O225 O 0.42004 0.88604 0.3875 0.0
O226 O 0.29913 0.87848 0.28842 0.0
O227 O 0.37169 0.88425 0.3204 0.0
O228 O 0.42434 0.89326 0.3407 0.0
C229 C 0.31787 0.84523 0.28231 0.0
O230 O 0.35963 0.84298 0.28339 0.0
O231 O 0.3737 0.94113 0.27573 0.0
C232 C 0.44943 0.00132 0.37376 0.0
O233 O 0.42423 -0.00674 0.38852 0.0
O234 O 0.44058 0.98577 0.35729 0.0
O235 O 0.35389 0.95922 0.33332 0.0
O236 O 0.31089 0.9719 0.30989 0.0
O237 O 0.36422 0.9247 0.37765 0.0
C238 C 0.41 0.87616 0.32528 0.0
C239 C 0.32719 0.984 0.32571 0.0
Zn240 Zn 0.18371 0.33048 0.39059 0.0
Zn241 Zn 0.17409 0.36834 0.45038 0.0
C242 C 0.14027 0.35457 0.35589 0.0
O243 O 0.11803 0.3204 0.36008 0.0
C244 C 0.21876 0.36869 0.48285 0.0
O245 O 0.21412 0.40807 0.47681 0.0
O246 O 0.21884 0.27938 0.38456 0.0
O247 O 0.20721 0.36638 0.41179 0.0
O248 O 0.22329 0.40092 0.43792 0.0
C249 C 0.2523 0.27594 0.37435 0.0
O250 O 0.26974 0.31005 0.3668 0.0
O251 O 0.17112 0.36509 0.36683 0.0
C252 C 0.09799 0.42076 0.45336 0.0
O253 O 0.09523 0.4174 0.43442 0.0
O254 O 0.12958 0.40502 0.46227 0.0
O255 O 0.14331 0.33374 0.42987 0.0
O256 O 0.12923 0.30678 0.40125 0.0
O257 O 0.20125 0.33875 0.47323 0.0
C258 C 0.23285 0.39053 0.42068 0.0
C259 C 0.11948 0.31136 0.41903 0.0
Zn260 Zn 0.89478 0.94599 0.14146 0.0
Zn261 Zn 0.84451 0.92474 0.1965 0.0
C262 C 0.8749 0.89282 0.10789 0.0
O263 O 0.91087 0.87369 0.11229 0.0
C264 C 0.85091 0.96378 0.23184 0.0
O265 O 0.80996 0.96227 0.22802 0.0
O266 O 0.93824 -0.00979 0.13545 0.0
O267 O 0.85525 0.96059 0.16204 0.0
O268 O 0.81193 0.97535 0.18498 0.0
C269 C 0.9501 -0.0039 0.11809 0.0
O270 O 0.92836 0.97846 0.10393 0.0
O271 O 0.86249 0.92424 0.11811 0.0
C272 C 0.80569 0.84463 0.20538 0.0
O273 O 0.83611 0.82956 0.1943 0.0
O274 O 0.80197 0.88445 0.20806 0.0
O275 O 0.87891 0.88786 0.17648 0.0
O276 O 0.92761 0.90025 0.15422 0.0
O277 O 0.87725 0.94848 0.21958 0.0
C278 C 0.8267 0.98483 0.16852 0.0
C279 C 0.91649 0.88185 0.16986 0.0
Zn280 Zn 0.28564 0.64644 0.88827 0.0
Zn281 Zn 0.30108 0.59553 0.94458 0.0
C282 C 0.33503 0.62057 0.8544 0.0
O283 O 0.36129 0.65024 0.86051 0.0
C284 C 0.26074 0.5915 0.97927 0.0
O285 O 0.26402 0.55209 0.973 0.0
O286 O 0.24488 0.69391 0.8845 0.0
O287 O 0.26846 0.60733 0.9087 0.0
O288 O 0.25033 0.56542 0.93177 0.0
C289 C 0.21513 0.69533 0.87218 0.0
O290 O 0.2078 0.66227 0.861 0.0
O291 O 0.30051 0.61421 0.86366 0.0
C292 C 0.37123 0.57172 0.9654 0.0
O293 O 0.36526 0.61152 0.97064 0.0
O294 O 0.34665 0.55506 0.9529 0.0
O295 O 0.33023 0.64022 0.92755 0.0
O296 O 0.33644 0.67461 0.89975 0.0
O297 O 0.27641 0.6211 0.96899 0.0
C298 C 0.24178 0.58154 0.91547 0.0
C299 C 0.34859 0.66808 0.91709 0.0
Zn300 Zn 0.57792 0.04219 0.63929 0.0
Zn301 Zn 0.61707 0.04931 0.69938 0.0
C302 C 0.6013 0.08671 0.60394 0.0
O303 O 0.57542 0.11573 0.61107 0.0
C304 C 0.62046 0.00467 0.73173 0.0
O305 O 0.65914 0.01198 0.72522 0.0
O306 O 0.52583 0.00713 0.63552 0.0
O307 O 0.61706 0.01776 0.65958 0.0
O308 O 0.65245 0.00363 0.68592 0.0
C309 C 0.52104 0.96984 0.6288 0.0
O310 O 0.55451 0.94765 0.62338 0.0
O311 O 0.60758 0.05257 0.61345 0.0
C312 C 0.66969 0.12599 0.70477 0.0
O313 O 0.67059 0.13003 0.68583 0.0
O314 O 0.6511 0.09444 0.71238 0.0
O315 O 0.58257 0.07787 0.67854 0.0
O316 O 0.55471 0.09669 0.65085 0.0
O317 O 0.58897 0.01871 0.72192 0.0
C318 C 0.64289 -0.00616 0.66857 0.0
C319 C 0.55984 0.10352 0.66888 0.0
C320 C 0.39161 0.21959 0.06022 0.0
C321 C 0.39269 0.18143 0.07058 0.0
C322 C 0.42895 0.24336 0.05753 0.0
C323 C 0.46777 0.22814 0.06535 0.0
C324 C 0.46922 0.18797 0.07463 0.0
C325 C 0.43139 0.16523 0.0773 0.0
C326 C 0.42626 0.28615 0.04769 0.0
C327 C 0.50992 0.17076 0.08331 0.0
C328 C 0.57556 0.27796 0.05537 0.0
C329 C 0.58182 0.30059 0.07261 0.0
C330 C 0.53748 0.2555 0.05226 0.0
C331 C 0.50525 0.25656 0.06665 0.0
C332 C 0.51062 0.28179 0.0835 0.0
C333 C 0.54904 0.30328 0.08631 0.0
C334 C 0.53284 0.22853 0.03427 0.0
C335 C 0.47662 0.28457 0.099 0.0
H336 H 0.36124 0.23203 0.0553 0.0
H337 H 0.43167 0.13579 0.08548 0.0
H338 H 0.43089 0.3118 0.05857 0.0
H339 H 0.45193 0.2894 0.03673 0.0
H340 H 0.39497 0.29113 0.0405 0.0
H341 H 0.50712 0.13655 0.08715 0.0
H342 H 0.537 0.17465 0.07312 0.0
H343 H 0.5176 0.18891 0.09668 0.0
H344 H 0.60126 0.27581 0.0449 0.0
H345 H 0.554 0.32134 0.09955 0.0
H346 H 0.50177 0.23484 0.02717 0.0
H347 H 0.53336 0.19436 0.03832 0.0
H348 H 0.55884 0.23439 0.02366 0.0
H349 H 0.44678 0.29754 0.09272 0.0
H350 H 0.4863 0.30516 0.11135 0.0
H351 H 0.46932 0.25238 0.10468 0.0
C352 C 0.5022 0.64056 0.30794 0.0
C353 C 0.54142 0.63937 0.31754 0.0
C354 C 0.47982 0.67909 0.30595 0.0
C355 C 0.49664 0.71669 0.31435 0.0
C356 C 0.53722 0.71573 0.32335 0.0
C357 C 0.55935 0.67707 0.32461 0.0
C358 C 0.43707 0.6791 0.29594 0.0
C359 C 0.55553 0.75456 0.33325 0.0
C360 C 0.45312 0.82752 0.30448 0.0
C361 C 0.42737 0.8339 0.32077 0.0
C362 C 0.47459 0.78865 0.3017 0.0
C363 C 0.47021 0.75592 0.31565 0.0
C364 C 0.44293 0.76198 0.33182 0.0
C365 C 0.42169 0.80093 0.33411 0.0
C366 C 0.50338 0.78321 0.28434 0.0
C367 C 0.43727 0.728 0.34706 0.0
H368 H 0.48812 0.61107 0.30286 0.0
H369 H 0.58919 0.67565 0.33253 0.0
H370 H 0.41142 0.68469 0.30673 0.0
H371 H 0.43543 0.70535 0.28523 0.0
H372 H 0.43064 0.64848 0.2884 0.0
H373 H 0.58918 0.74968 0.33775 0.0
H374 H 0.55392 0.78267 0.3236 0.0
H375 H 0.53636 0.76199 0.34637 0.0
H376 H 0.45756 0.85338 0.2943 0.0
H377 H 0.40169 0.80625 0.34673 0.0
H378 H 0.49595 0.753 0.27669 0.0
H379 H 0.53704 0.78125 0.28919 0.0
H380 H 0.50037 0.81002 0.27396 0.0
H381 H 0.42116 0.69995 0.3406 0.0
H382 H 0.41795 0.73932 0.35957 0.0
H383 H 0.46872 0.71717 0.35253 0.0
C384 C 0.08275 0.75669 0.55873 0.0
C385 C 0.08186 0.79317 0.57035 0.0
C386 C 0.04568 0.73253 0.55596 0.0
C387 C 0.00718 0.74594 0.56479 0.0
C388 C 0.00585 0.78442 0.57555 0.0
C389 C 0.04351 0.80736 0.57839 0.0
C390 C 0.04835 0.69129 0.54475 0.0
C391 C 0.96551 0.79961 0.58537 0.0
C392 C 0.89828 0.70111 0.55299 0.0
C393 C 0.89203 0.67426 0.56883 0.0
C394 C 0.93704 0.72282 0.55071 0.0
C395 C 0.96944 0.71772 0.56481 0.0
C396 C 0.9638 0.68874 0.58027 0.0
C397 C 0.92515 0.66705 0.58198 0.0
C398 C 0.94226 0.75332 0.53403 0.0
C399 C -0.00246 0.68236 0.59563 0.0
H400 H 0.11291 0.74561 0.55289 0.0
H401 H 0.04341 0.83542 0.5876 0.0
H402 H 0.04384 0.6641 0.55477 0.0
H403 H 0.02255 0.68967 0.53379 0.0
H404 H 0.07957 0.68738 0.53733 0.0
H405 H 0.96852 0.8327 0.59093 0.0
H406 H 0.93813 0.7982 0.57523 0.0
H407 H 0.95812 0.77842 0.59777 0.0
H408 H 0.87224 0.7067 0.54298 0.0
H409 H 0.91977 0.64623 0.59427 0.0
H410 H 0.97333 0.74804 0.52671 0.0
H411 H 0.94215 0.7865 0.53961 0.0
H412 H 0.91631 0.75003 0.52319 0.0
H413 H 0.02664 0.6686 0.58895 0.0
H414 H 0.98674 0.66082 0.6074 0.0
H415 H 0.00656 0.71334 0.60221 0.0
C416 C -0.00145 0.13708 0.81601 0.0
C417 C 0.04291 0.13544 0.81806 0.0
C418 C 0.97729 0.17618 0.81425 0.0
C419 C 0.0011 0.21439 0.81484 0.0
C420 C 0.0462 0.2127 0.81574 0.0
C421 C 0.06661 0.17312 0.81737 0.0
C422 C 0.9292 0.17665 0.81326 0.0
C423 C 0.07266 0.25274 0.81687 0.0
C424 C 0.94842 0.32107 0.80432 0.0
C425 C 0.93894 0.33532 0.82309 0.0
C426 C 0.96805 0.28131 0.80129 0.0
C427 C 0.97885 0.25577 0.81745 0.0
C428 C 0.96924 0.27008 0.83642 0.0
C429 C 0.94934 0.30956 0.83898 0.0
C430 C 0.9777 0.26682 0.78089 0.0
C431 C 0.97971 0.24367 0.85409 0.0
H432 H 0.98031 0.10784 0.81685 0.0
H433 H 0.10082 0.17192 0.81958 0.0
H434 H 0.91604 0.1893 0.82706 0.0
H435 H 0.91821 0.19795 0.80147 0.0
H436 H 0.91584 0.14435 0.8108 0.0
H437 H 0.10709 0.24619 0.81449 0.0
H438 H 0.06179 0.27638 0.80603 0.0
H439 H 0.06878 0.26736 0.83143 0.0
H440 H 0.94119 0.34126 0.79204 0.0
H441 H 0.94164 0.32016 0.85354 0.0
H442 H 0.96325 0.23514 0.7782 0.0
H443 H 0.01266 0.26329 0.77899 0.0
H444 H 0.96557 0.2895 0.76986 0.0
H445 H 0.96028 0.2142 0.854 0.0
H446 H 0.97335 0.26105 0.86784 0.0
H447 H 0.01372 0.23394 0.85388 0.0
C448 C 0.5659 0.79411 0.93976 0.0
C449 C 0.58654 0.78793 0.92192 0.0
C450 C 0.52508 0.77719 0.94304 0.0
C451 C 0.50489 0.75367 0.92813 0.0
C452 C 0.52555 0.74765 0.9101 0.0
C453 C 0.56609 0.76465 0.90727 0.0
C454 C 0.50369 0.78445 0.96237 0.0
C455 C 0.50461 0.72382 0.89357 0.0
C456 C 0.41923 0.67082 0.93327 0.0
C457 C 0.38518 0.69199 0.92445 0.0
C458 C 0.45799 0.69194 0.93637 0.0
C459 C 0.46196 0.73517 0.93083 0.0
C460 C 0.42604 0.75764 0.92382 0.0
C461 C 0.38813 0.7355 0.92045 0.0
C462 C 0.49582 0.66685 0.94359 0.0
C463 C 0.42875 0.80401 0.91823 0.0
H464 H 0.5814 0.81242 0.95107 0.0
H465 H 0.58151 0.7601 0.89335 0.0
H466 H 0.47084 0.79673 0.96031 0.0
H467 H 0.5011 0.75374 0.97018 0.0
H468 H 0.52162 0.80724 0.97161 0.0
H469 H 0.52564 0.72109 0.88066 0.0
H470 H 0.49561 0.6913 0.89826 0.0
H471 H 0.47494 0.74045 0.88916 0.0
H472 H 0.41673 0.63704 0.93626 0.0
H473 H 0.36129 0.75177 0.91386 0.0
H474 H 0.51388 0.68541 0.95453 0.0
H475 H 0.51771 0.66025 0.93128 0.0
H476 H 0.48614 0.63597 0.95005 0.0
H477 H 0.44299 0.82286 0.93019 0.0
H478 H 0.397 0.81762 0.91467 0.0
H479 H 0.44977 0.80757 0.90539 0.0
C480 C 0.50639 0.14443 0.68758 0.0
C481 C 0.54466 0.14358 0.67721 0.0
C482 C 0.48524 0.18313 0.69103 0.0
C483 C 0.50317 0.22137 0.68389 0.0
C484 C 0.54402 0.22074 0.67511 0.0
C485 C 0.56412 0.18161 0.67168 0.0
C486 C 0.44181 0.18243 0.70043 0.0
C487 C 0.56458 0.26093 0.66765 0.0
C488 C 0.43124 0.3041 0.6615 0.0
C489 C 0.43259 0.3367 0.67531 0.0
C490 C 0.45264 0.26568 0.6646 0.0
C491 C 0.47627 0.26 0.6819 0.0
C492 C 0.47645 0.29239 0.69623 0.0
C493 C 0.45427 0.33056 0.69278 0.0
C494 C 0.45141 0.2319 0.64896 0.0
C495 C 0.50095 0.28717 0.71489 0.0
H496 H 0.49142 0.11467 0.69167 0.0
H497 H 0.59381 0.18052 0.66361 0.0
H498 H 0.43755 0.20997 0.71035 0.0
H499 H 0.41696 0.1847 0.68904 0.0
H500 H 0.43651 0.15257 0.70868 0.0
H501 H 0.59831 0.25568 0.66332 0.0
H502 H 0.54672 0.27262 0.65484 0.0
H503 H 0.56344 0.2863 0.67885 0.0
H504 H 0.41413 0.30916 0.64803 0.0
H505 H 0.45499 0.35605 0.7034 0.0
H506 H 0.4414 0.20094 0.65516 0.0
H507 H 0.48377 0.22751 0.64275 0.0
H508 H 0.42924 0.24027 0.63701 0.0
H509 H 0.48785 0.25998 0.72319 0.0
H510 H 0.49945 0.31616 0.72413 0.0
H511 H 0.53486 0.27978 0.71174 0.0
C512 C 0.07499 0.26743 0.44117 0.0
C513 C 0.07792 0.29598 0.42571 0.0
C514 C 0.03674 0.2455 0.44473 0.0
C515 C 0.00094 0.25315 0.43271 0.0
C516 C 0.003 0.28499 0.41824 0.0
C517 C 0.04171 0.30566 0.41478 0.0
C518 C 0.03576 0.21181 0.46026 0.0
C519 C 0.96526 0.29501 0.40543 0.0
C520 C 0.92588 0.16536 0.41761 0.0
C521 C 0.88829 0.17774 0.42694 0.0
C522 C 0.96368 0.18821 0.42038 0.0
C523 C 0.96374 0.22397 0.43296 0.0
C524 C 0.92643 0.23466 0.44349 0.0
C525 C 0.88879 0.21155 0.44017 0.0
C526 C 0.00248 0.17626 0.40856 0.0
C527 C 0.92569 0.27187 0.45737 0.0
H528 H 0.10327 0.26005 0.44954 0.0
H529 H 0.0442 0.32822 0.40295 0.0
H530 H 0.00549 0.21332 0.46856 0.0
H531 H 0.03756 0.17987 0.45339 0.0
H532 H 0.06291 0.21503 0.47048 0.0
H533 H 0.97152 0.32232 0.39564 0.0
H534 H 0.95728 0.26679 0.39644 0.0
H535 H 0.93691 0.30256 0.41443 0.0
H536 H 0.92498 0.13948 0.40718 0.0
H537 H 0.85937 0.22102 0.44724 0.0
H538 H 0.03102 0.17399 0.41797 0.0
H539 H 0.00876 0.2014 0.39765 0.0
H540 H -0.00167 0.14549 0.40081 0.0
H541 H 0.95126 0.26818 0.46833 0.0
H542 H 0.89459 0.27495 0.46497 0.0
H543 H 0.93208 0.30186 0.44943 0.0
C544 C -0.01186 0.6432 0.17583 0.0
C545 C 0.03229 0.63907 0.1777 0.0
C546 C 0.96796 0.68208 0.1797 0.0
C547 C -0.00701 0.71785 0.18482 0.0
C548 C 0.03716 0.71268 0.18846 0.0
C549 C 0.05636 0.67299 0.18496 0.0
C550 C 0.92066 0.68583 0.17611 0.0
C551 C 0.06485 0.75001 0.194 0.0
C552 C 0.95955 0.81905 0.15961 0.0
C553 C 0.93809 0.84122 0.17436 0.0
C554 C 0.97785 0.77921 0.16303 0.0
C555 C 0.97529 0.76117 0.18179 0.0
C556 C 0.95464 0.78375 0.19692 0.0
C557 C 0.936 0.82356 0.19297 0.0
C558 C -0.001 0.75595 0.14636 0.0
C559 C 0.95121 0.76549 0.21706 0.0
H560 H 0.96972 0.61662 0.1703 0.0
H561 H 0.09065 0.6696 0.18626 0.0
H562 H 0.90541 0.70731 0.18686 0.0
H563 H 0.91529 0.69952 0.1615 0.0
H564 H 0.90473 0.65429 0.17671 0.0
H565 H 0.09688 0.73971 0.19903 0.0
H566 H 0.06902 0.77106 0.18124 0.0
H567 H 0.04943 0.76915 0.20559 0.0
H568 H 0.96101 0.83223 0.14512 0.0
H569 H 0.91969 0.84083 0.20442 0.0
H570 H 0.98239 0.72537 0.1436 0.0
H571 H 0.03257 0.74839 0.15005 0.0
H572 H -0.0013 0.77477 0.13275 0.0
H573 H 0.9282 0.73871 0.21698 0.0
H574 H 0.94009 0.78956 0.22776 0.0
H575 H 0.9824 0.75262 0.22187 0.0
C576 C 0.45701 0.04085 0.03182 0.0
C577 C 0.41341 0.0343 0.0288 0.0
C578 C 0.48733 0.01854 0.02089 0.0
C579 C 0.47345 -0.00999 0.0063 0.0
C580 C 0.42947 0.98153 0.00396 0.0
C581 C 0.39985 0.0036 0.01541 0.0
C582 C 0.53402 0.02748 0.02424 0.0
C583 C 0.41365 0.95087 0.98869 0.0
C584 C 0.54524 0.97857 0.96241 0.0
C585 C 0.56666 0.94072 0.96667 0.0
C586 C 0.51466 -0.00504 0.97528 0.0
C587 C 0.50463 0.97211 0.99237 0.0
C588 C 0.52508 0.93298 0.99631 0.0
C589 C 0.55633 0.91803 0.9835 0.0
C590 C 0.49377 0.03717 0.97083 0.0
C591 C 0.51492 0.90751 0.01427 0.0
H592 H 0.46741 0.06427 0.04237 0.0
H593 H 0.36605 -0.00145 0.01309 0.0
H594 H 0.55291 -0.00239 0.024 0.0
H595 H 0.54614 0.04813 0.01244 0.0
H596 H 0.53956 0.04392 0.03829 0.0
H597 H 0.37867 0.94575 0.9896 0.0
H598 H 0.42135 0.96338 0.97407 0.0
H599 H 0.42997 0.91968 0.99014 0.0
H600 H 0.55346 -0.00398 0.9494 0.0
H601 H 0.57269 0.88839 0.98664 0.0
H602 H 0.5007 0.06028 0.9826 0.0
H603 H 0.45866 0.03329 0.97016 0.0
H604 H 0.50498 0.05081 0.95689 0.0
H605 H 0.52777 0.92418 0.02719 0.0
H606 H 0.52897 0.87503 0.01369 0.0
H607 H 0.47995 0.90464 0.01628 0.0
C608 C 0.70561 0.64675 0.25765 0.0
C609 C 0.67988 0.65769 0.27345 0.0
C610 C 0.72664 0.67839 0.24709 0.0
C611 C 0.72283 0.72141 0.25306 0.0
C612 C 0.69859 0.73217 0.26966 0.0
C613 C 0.67653 0.70011 0.27943 0.0
C614 C 0.75155 0.66604 0.22918 0.0
C615 C 0.69486 0.77752 0.27679 0.0
C616 C 0.8061 0.79567 0.23297 0.0
C617 C 0.78336 0.81548 0.21812 0.0
C618 C 0.78628 0.76596 0.24499 0.0
C619 C 0.74319 0.75522 0.24153 0.0
C620 C 0.71997 0.77573 0.22661 0.0
C621 C 0.74041 0.80618 0.21511 0.0
C622 C 0.81147 0.74581 0.26121 0.0
C623 C 0.67415 0.76442 0.22236 0.0
H624 H 0.70758 0.61378 0.25302 0.0
H625 H 0.65655 0.70819 0.29175 0.0
H626 H 0.73809 0.68247 0.21634 0.0
H627 H 0.78519 0.67638 0.2306 0.0
H628 H 0.75103 0.63117 0.22646 0.0
H629 H 0.6817 0.77922 0.29173 0.0
H630 H 0.72638 0.79351 0.2766 0.0
H631 H 0.67336 0.7956 0.26705 0.0
H632 H 0.83945 0.80346 0.23514 0.0
H633 H 0.72334 0.82176 0.20344 0.0
H634 H 0.81538 0.71125 0.25839 0.0
H635 H 0.79401 0.74926 0.27512 0.0
H636 H 0.84359 0.76022 0.26283 0.0
H637 H 0.67238 0.73088 0.21731 0.0
H638 H 0.65995 0.78524 0.21108 0.0
H639 H 0.65457 0.76693 0.2357 0.0
C640 C 0.04657 0.9773 0.53453 0.0
C641 C 0.07426 0.94601 0.5274 0.0
C642 C 0.01669 -0.00322 0.5223 0.0
C643 C 0.01365 0.98356 0.50271 0.0
C644 C 0.04173 0.95216 0.49539 0.0
C645 C 0.07208 0.93408 0.50779 0.0
C646 C -0.01193 0.03123 0.53038 0.0
C647 C 0.03943 0.93741 0.47456 0.0
C648 C 0.90594 0.00432 0.47992 0.0
C649 C 0.91345 0.0428 0.47034 0.0
C650 C 0.93888 0.98373 0.48994 0.0
C651 C 0.98016 0.00195 0.49011 0.0
C652 C -0.01161 0.03943 0.47942 0.0
C653 C 0.95473 0.0597 0.46986 0.0
C654 C 0.92913 0.94345 0.50097 0.0
C655 C 0.03201 0.05964 0.47884 0.0
H656 H 0.04851 0.9868 0.54962 0.0
H657 H 0.09342 0.90975 0.50223 0.0
H658 H -0.01005 0.06013 0.5212 0.0
H659 H 0.95447 0.02024 0.53018 0.0
H660 H -0.00338 0.04006 0.54548 0.0
H661 H 0.06315 0.91211 0.47124 0.0
H662 H 0.00709 0.92502 0.47134 0.0
H663 H 0.0451 0.96469 0.4647 0.0
H664 H 0.874 -0.00879 0.48023 0.0
H665 H 0.96069 0.0892 0.46218 0.0
H666 H 0.93218 0.94953 0.51676 0.0
H667 H 0.95239 0.91814 0.49712 0.0
H668 H 0.89644 0.93151 0.49802 0.0
H669 H 0.03622 0.07972 0.49195 0.0
H670 H 0.03581 0.08031 0.4659 0.0
H671 H 0.05774 0.03539 0.47872 0.0
C672 C 0.8024 0.26953 0.77727 0.0
C673 C 0.7901 0.31236 0.77656 0.0
C674 C 0.77928 0.23833 0.76732 0.0
C675 C 0.74364 0.2506 0.75608 0.0
C676 C 0.72959 0.29345 0.75624 0.0
C677 C 0.75294 0.32393 0.76662 0.0
C678 C 0.79472 0.19279 0.76794 0.0
C679 C 0.69122 0.3074 0.74467 0.0
C680 C 0.72111 0.18488 0.71115 0.0
C681 C 0.68799 0.15875 0.71757 0.0
C682 C 0.73955 0.21492 0.72363 0.0
C683 C 0.72365 0.21948 0.74276 0.0
C684 C 0.68948 0.19385 0.74916 0.0
C685 C 0.67235 0.16343 0.73653 0.0
C686 C 0.77648 0.24137 0.71647 0.0
C687 C 0.67161 0.19792 0.76943 0.0
H688 H 0.83084 0.26049 0.78519 0.0
H689 H 0.74334 0.35708 0.76613 0.0
H690 H 0.76764 0.17031 0.76917 0.0
H691 H 0.81188 0.18533 0.75427 0.0
H692 H 0.81683 0.18723 0.78025 0.0
H693 H 0.68278 0.34127 0.74738 0.0
H694 H 0.69776 0.30323 0.72897 0.0
H695 H 0.66329 0.28728 0.74826 0.0
H696 H 0.73328 0.18113 0.69653 0.0
H697 H 0.64643 0.14343 0.7415 0.0
H698 H 0.80478 0.23594 0.72579 0.0
H699 H 0.76835 0.2757 0.71745 0.0
H700 H 0.7852 0.23374 0.70124 0.0
H701 H 0.6955 0.18641 0.78005 0.0
H702 H 0.64187 0.17921 0.77134 0.0
H703 H 0.66481 0.23174 0.77295 0.0
C704 C 0.25274 0.31178 0.72134 0.0
C705 C 0.29739 0.31275 0.72126 0.0
C706 C 0.2309 0.27757 0.72966 0.0
C707 C 0.2544 0.24421 0.73833 0.0
C708 C 0.29939 0.24409 0.7375 0.0
C709 C 0.3204 0.27837 0.72888 0.0
C710 C 0.18276 0.27774 0.72968 0.0
C711 C 0.32533 0.20837 0.74618 0.0
C712 C 0.19825 0.19047 0.77994 0.0
C713 C 0.18638 0.15195 0.77145 0.0
C714 C 0.22187 0.22021 0.76941 0.0
C715 C 0.23209 0.2115 0.74979 0.0
C716 C 0.22024 0.17225 0.74124 0.0
C717 C 0.19776 0.14258 0.75234 0.0
C718 C 0.2353 0.26115 0.77918 0.0
C719 C 0.22895 0.16223 0.72018 0.0
H720 H 0.23484 0.33798 0.71516 0.0
H721 H 0.35494 0.27856 0.7285 0.0
H722 H 0.17034 0.24611 0.72524 0.0
H723 H 0.17095 0.28427 0.74456 0.0
H724 H 0.16949 0.30231 0.71982 0.0
H725 H 0.36016 0.21314 0.74424 0.0
H726 H 0.31836 0.20579 0.76191 0.0
H727 H 0.31635 0.17765 0.73936 0.0
H728 H 0.18897 0.19728 0.79479 0.0
H729 H 0.18762 0.11274 0.74587 0.0
H730 H 0.21805 0.28837 0.77262 0.0
H731 H 0.26991 0.26664 0.77698 0.0
H732 H 0.22861 0.26094 0.795 0.0
H733 H 0.20261 0.1754 0.71128 0.0
H734 H 0.23027 0.12731 0.7176 0.0
H735 H 0.25914 0.1766 0.71502 0.0
C736 C 0.31366 0.77073 0.27038 0.0
C737 C 0.29359 0.80991 0.27385 0.0
C738 C 0.2915 0.73714 0.2617 0.0
C739 C 0.24862 0.74341 0.2561 0.0
C740 C 0.2279 0.78256 0.25997 0.0
C741 C 0.25065 0.81539 0.26893 0.0
C742 C 0.31448 0.69557 0.25808 0.0
C743 C 0.18199 0.79005 0.25428 0.0
C744 C 0.2027 0.67726 0.21539 0.0
C745 C 0.17616 0.64985 0.22575 0.0
C746 C 0.22711 0.70778 0.22517 0.0
C747 C 0.2255 0.70959 0.24567 0.0
C748 C 0.20008 0.68051 0.25615 0.0
C749 C 0.17504 0.65134 0.24598 0.0
C750 C 0.2535 0.7389 0.21362 0.0
C751 C 0.19911 0.68043 0.27803 0.0
H752 H 0.34679 0.76627 0.27436 0.0
H753 H 0.23506 0.84564 0.27167 0.0
H754 H 0.29355 0.66797 0.26118 0.0
H755 H 0.32388 0.6937 0.2426 0.0
H756 H 0.34377 0.69275 0.26703 0.0
H757 H 0.1704 0.82209 0.25869 0.0
H758 H 0.17851 0.78681 0.23834 0.0
H759 H 0.1612 0.76571 0.26105 0.0
H760 H 0.20319 0.67574 0.19968 0.0
H761 H 0.1548 0.62934 0.25383 0.0
H762 H 0.28718 0.73792 0.21849 0.0
H763 H 0.24162 0.77175 0.21617 0.0
H764 H 0.25246 0.73218 0.19782 0.0
H765 H 0.23189 0.67631 0.28377 0.0
H766 H 0.17868 0.65464 0.28391 0.0
H767 H 0.187 0.71142 0.28348 0.0
C768 C 0.04152 0.47503 0.45918 0.0
C769 C 0.06238 0.43773 0.46477 0.0
C770 C 0.00937 0.49256 0.47088 0.0
C771 C -0.00278 0.47133 0.48812 0.0
C772 C 0.01725 0.43275 0.4934 0.0
C773 C 0.04999 0.41661 0.48172 0.0
C774 C -0.01068 0.5344 0.46514 0.0
C775 C 0.00437 0.40873 0.51141 0.0
C776 C 0.9472 0.54184 0.52625 0.0
C777 C 0.90383 0.53417 0.52323 0.0
C778 C 0.97809 0.51995 0.51552 0.0
C779 C 0.96499 0.49072 0.50108 0.0
C780 C 0.92115 0.48183 0.49841 0.0
C781 C 0.89091 0.5035 0.50972 0.0
C782 C 0.02462 0.52917 0.51923 0.0
C783 C 0.90612 0.45107 0.48303 0.0
H784 H 0.0514 0.49121 0.44606 0.0
H785 H 0.06587 0.38727 0.48579 0.0
H786 H 0.95419 0.53101 0.46423 0.0
H787 H -0.00391 0.5588 0.47638 0.0
H788 H 0.00144 0.54613 0.45099 0.0
H789 H 0.02493 0.3805 0.51404 0.0
H790 H 0.00588 0.42988 0.5243 0.0
H791 H 0.97088 0.39785 0.50999 0.0
H792 H 0.95694 0.56542 0.53687 0.0
H793 H 0.85719 0.49803 0.50734 0.0
H794 H 0.03874 0.54488 0.50636 0.0
H795 H 0.0424 0.49906 0.5216 0.0
H796 H 0.02937 0.55014 0.53204 0.0
H797 H 0.91209 0.4649 0.46849 0.0
H798 H 0.87155 0.44402 0.48433 0.0
H799 H 0.9242 0.42075 0.48384 0.0
C800 C 0.52577 0.41058 0.02038 0.0
C801 C 0.56532 0.42995 0.02372 0.0
C802 C 0.49221 0.43319 0.01187 0.0
C803 C 0.49876 0.47593 0.00621 0.0
C804 C 0.53824 0.49606 0.01003 0.0
C805 C 0.57107 0.47284 0.01887 0.0
C806 C 0.45034 0.41075 0.00841 0.0
C807 C 0.54612 0.54176 0.00429 0.0
C808 C 0.43097 0.51959 0.96537 0.0
C809 C 0.40287 0.54594 0.97559 0.0
C810 C 0.46257 0.49657 0.9752 0.0
C811 C 0.46491 0.49922 0.99568 0.0
C812 C 0.43545 0.52472 0.00605 0.0
C813 C 0.40518 0.54842 0.9958 0.0
C814 C 0.49399 0.47018 0.96371 0.0
C815 C 0.43567 0.52672 0.02791 0.0
H816 H 0.52104 0.37751 0.02431 0.0
H817 H 0.6016 0.48792 0.02147 0.0
H818 H 0.42293 0.43198 0.01164 0.0
H819 H 0.44819 0.40135 0.99293 0.0
H820 H 0.44736 0.38154 0.01736 0.0
H821 H 0.57826 0.553 0.00868 0.0
H822 H 0.543 0.54509 0.98835 0.0
H823 H 0.52185 0.56285 0.01103 0.0
H824 H 0.429 0.51803 0.94969 0.0
H825 H 0.3828 0.56848 0.00362 0.0
H826 H 0.493 0.43658 0.96859 0.0
H827 H 0.52682 0.48203 0.9663 0.0
H828 H 0.48749 0.47111 0.94789 0.0
H829 H 0.43075 0.49435 0.03392 0.0
H830 H 0.41043 0.54809 0.03372 0.0
H831 H 0.46706 0.5381 0.03318 0.0
C832 C 0.23025 0.28105 0.1191 0.0
C833 C 0.20174 0.24694 0.12111 0.0
C834 C 0.21811 0.32258 0.12395 0.0
C835 C 0.17621 0.33027 0.13063 0.0
C836 C 0.14637 0.29651 0.1314 0.0
C837 C 0.15967 0.25496 0.12685 0.0
C838 C 0.25103 0.3576 0.12319 0.0
C839 C 0.101 0.30405 0.13785 0.0
C840 C 0.16474 0.41829 0.16763 0.0
C841 C 0.14826 0.45168 0.15646 0.0
C842 C 0.17339 0.37856 0.15935 0.0
C843 C 0.16561 0.3721 0.13937 0.0
C844 C 0.14919 0.40571 0.12794 0.0
C845 C 0.1407 0.44527 0.13665 0.0
C846 C 0.19089 0.34348 0.17205 0.0
C847 C 0.14125 0.40024 0.1065 0.0
H848 H 0.26288 0.27506 0.11465 0.0
H849 H 0.13743 0.22873 0.1281 0.0
H850 H 0.23793 0.38613 0.11585 0.0
H851 H 0.25972 0.36718 0.13817 0.0
H852 H 0.28051 0.34746 0.11552 0.0
H853 H 0.08081 0.27531 0.13597 0.0
H854 H 0.10056 0.31338 0.15338 0.0
H855 H 0.08675 0.33068 0.12952 0.0
H856 H 0.17037 0.42296 0.18299 0.0
H857 H 0.12812 0.47112 0.12798 0.0
H858 H 0.22244 0.33297 0.16653 0.0
H859 H 0.16939 0.31548 0.1716 0.0
H860 H 0.19458 0.35365 0.18739 0.0
H861 H 0.17216 0.40085 0.09869 0.0
H862 H 0.12079 0.42604 0.10062 0.0
H863 H 0.12598 0.36912 0.10341 0.0
C864 C 0.47261 0.41085 0.38197 0.0
C865 C 0.48131 0.45289 0.37648 0.0
C866 C 0.43158 0.39913 0.38825 0.0
C867 C 0.39882 0.43025 0.3891 0.0
C868 C 0.40737 0.47247 0.3833 0.0
C869 C 0.44835 0.48321 0.37707 0.0
C870 C 0.42334 0.35367 0.39416 0.0
C871 C 0.37353 0.50674 0.38416 0.0
C872 C 0.28231 0.39783 0.39236 0.0
C873 C 0.27439 0.40269 0.41224 0.0
C874 C 0.32282 0.4063 0.38459 0.0
C875 C 0.35612 0.4196 0.39705 0.0
C876 C 0.34811 0.42501 0.4171 0.0
C877 C 0.30731 0.41664 0.42442 0.0
C878 C 0.33002 0.40107 0.36307 0.0
C879 C 0.38273 0.43935 0.43084 0.0
H880 H 0.49782 0.38723 0.38146 0.0
H881 H 0.45461 0.51585 0.37289 0.0
H882 H 0.41208 0.35262 0.4094 0.0
H883 H 0.39772 0.33993 0.38501 0.0
H884 H 0.45224 0.33338 0.3928 0.0
H885 H 0.38443 0.53715 0.37765 0.0
H886 H 0.34432 0.49619 0.37649 0.0
H887 H 0.36462 0.51288 0.39948 0.0
H888 H 0.2568 0.38746 0.38289 0.0
H889 H 0.30149 0.42016 0.43984 0.0
H890 H 0.35455 0.37621 0.36046 0.0
H891 H 0.34225 0.43116 0.3568 0.0
H892 H 0.30043 0.39201 0.35526 0.0
H893 H 0.40939 0.41609 0.43063 0.0
H894 H 0.37108 0.44264 0.44598 0.0
H895 H 0.39581 0.47044 0.42612 0.0
C896 C 0.23966 0.69555 0.62477 0.0
C897 C 0.27059 0.72432 0.61816 0.0
C898 C 0.25097 0.65477 0.63098 0.0
C899 C 0.29427 0.64234 0.63054 0.0
C900 C 0.32551 0.67047 0.62315 0.0
C901 C 0.31331 0.7114 0.61714 0.0
C902 C 0.21673 0.62558 0.63873 0.0
C903 C 0.37183 0.65764 0.62204 0.0
C904 C 0.32016 0.56113 0.66897 0.0
C905 C 0.32067 0.52341 0.6582 0.0
C906 C 0.31417 0.60039 0.65985 0.0
C907 C 0.30688 0.60156 0.63961 0.0
C908 C 0.30793 0.56341 0.62861 0.0
C909 C 0.31555 0.52467 0.63806 0.0
C910 C 0.31474 0.64056 0.67195 0.0
C911 C 0.29901 0.56305 0.60712 0.0
H912 H 0.20651 0.7052 0.62557 0.0
H913 H 0.33722 0.73333 0.61183 0.0
H914 H 0.21868 0.59399 0.63155 0.0
H915 H 0.22164 0.62052 0.65448 0.0
H916 H 0.18418 0.63869 0.63654 0.0
H917 H 0.39192 0.68267 0.61531 0.0
H918 H 0.38411 0.651 0.63681 0.0
H919 H 0.37517 0.62787 0.61347 0.0
H920 H 0.32515 0.55994 0.68452 0.0
H921 H 0.31619 0.49523 0.62982 0.0
H922 H 0.28246 0.65502 0.67218 0.0
H923 H 0.33676 0.66422 0.66548 0.0
H924 H 0.32481 0.63446 0.68712 0.0
H925 H 0.26406 0.56502 0.60479 0.0
H926 H 0.31077 0.53337 0.60011 0.0
H927 H 0.31373 0.59078 0.59981 0.0
C928 C 0.01634 0.53855 0.86396 0.0
C929 C 0.98723 0.52916 0.87878 0.0
C930 C 0.05831 0.55071 0.86827 0.0
C931 C 0.07149 0.55288 0.88785 0.0
C932 C 0.04171 0.54509 0.90287 0.0
C933 C -0.00023 0.53373 0.89815 0.0
C934 C 0.08901 0.55923 0.85187 0.0
C935 C 0.0546 0.54706 0.92394 0.0
C936 C 0.18623 0.533 0.90248 0.0
C937 C 0.20042 0.57435 0.90616 0.0
C938 C 0.14496 0.52578 0.8954 0.0
C939 C 0.1169 0.56072 0.89277 0.0
C940 C 0.13151 0.60269 0.89621 0.0
C941 C 0.17346 0.60902 0.90261 0.0
C942 C 0.13094 0.48067 0.89134 0.0
C943 C 0.10248 0.64069 0.89375 0.0
H944 H 0.00663 0.53522 0.84895 0.0
H945 H 0.97747 0.52623 0.90965 0.0
H946 H 0.10581 0.58985 0.85422 0.0
H947 H 0.11359 0.53382 0.85142 0.0
H948 H 0.07273 0.5603 0.83758 0.0
H949 H 0.02753 0.54043 0.93387 0.0
H950 H 0.08021 0.52349 0.9268 0.0
H951 H 0.06761 0.57901 0.92739 0.0
H952 H 0.20735 0.50636 0.90529 0.0
H953 H 0.18453 0.64096 0.90581 0.0
H954 H 0.11783 0.47819 0.87646 0.0
H955 H 0.10516 0.47163 0.90154 0.0
H956 H 0.15752 0.45748 0.89283 0.0
H957 H 0.09245 0.64328 0.87839 0.0
H958 H 0.1181 0.67096 0.89809 0.0
H959 H 0.07316 0.6366 0.90257 0.0
C960 C 0.85535 0.55097 0.84222 0.0
C961 C 0.82263 0.52585 0.83456 0.0
C962 C 0.84696 0.59197 0.84934 0.0
C963 C 0.8046 0.60755 0.84917 0.0
C964 C 0.77108 0.58123 0.8424 0.0
C965 C 0.78067 0.54088 0.83478 0.0
C966 C 0.8836 0.61924 0.85619 0.0
C967 C 0.72534 0.59627 0.84247 0.0
C968 C 0.77386 0.70523 0.87849 0.0
C969 C 0.77123 0.73642 0.86398 0.0
C970 C 0.78574 0.66327 0.874 0.0
C971 C 0.79563 0.65243 0.85461 0.0
C972 C 0.79503 0.6842 0.84009 0.0
C973 C 0.78286 0.72584 0.84495 0.0
C974 C 0.78573 0.63014 0.88983 0.0
C975 C 0.806 0.67389 0.81927 0.0
H976 H 0.88789 0.53951 0.84159 0.0
H977 H 0.75546 0.52124 0.82882 0.0
H978 H 0.88531 0.64872 0.84741 0.0
H979 H 0.87842 0.62904 0.87147 0.0
H980 H 0.91472 0.60241 0.85517 0.0
H981 H 0.7027 0.57003 0.83925 0.0
H982 H 0.71696 0.61036 0.85674 0.0
H983 H 0.72114 0.62146 0.83139 0.0
H984 H 0.76499 0.71313 0.89325 0.0
H985 H 0.78114 0.74978 0.83369 0.0
H986 H 0.81718 0.61406 0.89054 0.0
H987 H 0.76166 0.60532 0.88653 0.0
H988 H 0.77844 0.64403 0.90429 0.0
H989 H 0.83874 0.66059 0.81843 0.0
H990 H 0.8041 0.70228 0.80974 0.0
H991 H 0.78394 0.64929 0.81358 0.0
C992 C 0.5141 0.53586 0.63003 0.0
C993 C 0.49217 0.51235 0.61588 0.0
C994 C 0.55648 0.54856 0.62698 0.0
C995 C 0.57714 0.53697 0.60951 0.0
C996 C 0.55533 0.51255 0.59541 0.0
C997 C 0.51295 0.50106 0.59866 0.0
C998 C 0.57898 0.57449 0.64231 0.0
C999 C 0.57688 0.49822 0.5769 0.0
C1000 C 0.66467 0.60061 0.58622 0.0
C1001 C 0.69955 0.57367 0.5889 0.0
C1002 C 0.62497 0.59048 0.59417 0.0
C1003 C 0.6205 0.55253 0.605 0.0
C1004 C 0.65658 0.52661 0.60874 0.0
C1005 C 0.69596 0.53754 0.60052 0.0
C1006 C 0.58722 0.61879 0.58984 0.0
C1007 C 0.65327 0.48664 0.62075 0.0
H1008 H 0.49818 0.54418 0.64347 0.0
H1009 H 0.49651 0.48197 0.5879 0.0
H1010 H 0.61011 0.55977 0.64595 0.0
H1011 H 0.58564 0.60684 0.63667 0.0
H1012 H 0.5598 0.57756 0.65579 0.0
H1013 H 0.55578 0.47818 0.56773 0.0
H1014 H 0.58692 0.52635 0.56835 0.0
H1015 H 0.60599 0.47963 0.58036 0.0
H1016 H 0.6681 0.62873 0.57727 0.0
H1017 H 0.72359 0.51731 0.60269 0.0
H1018 H 0.56953 0.62629 0.60336 0.0
H1019 H 0.56495 0.60185 0.58 0.0
H1020 H 0.59685 0.64911 0.58285 0.0
H1021 H 0.64524 0.49526 0.63593 0.0
H1022 H 0.6835 0.46814 0.6208 0.0
H1023 H 0.62735 0.46589 0.61525 0.0
C1024 C 0.66949 0.26234 0.37658 0.0
C1025 C 0.70826 0.2468 0.36948 0.0
C1026 C 0.65691 0.30438 0.37264 0.0
C1027 C 0.68432 0.33094 0.36171 0.0
C1028 C 0.72477 0.31584 0.35573 0.0
C1029 C 0.73601 0.27366 0.3595 0.0
C1030 C 0.61364 0.3196 0.37928 0.0
C1031 C 0.75555 0.34375 0.34473 0.0
C1032 C 0.64185 0.41213 0.3266 0.0
C1033 C 0.64857 0.45008 0.33672 0.0
C1034 C 0.65092 0.37295 0.3352 0.0
C1035 C 0.66891 0.37206 0.35401 0.0
C1036 C 0.67565 0.41052 0.36433 0.0
C1037 C 0.66428 0.44926 0.35567 0.0
C1038 C 0.64227 0.33253 0.32396 0.0
C1039 C 0.69555 0.41091 0.38425 0.0
H1040 H 0.6487 0.24139 0.3847 0.0
H1041 H 0.76658 0.26149 0.35459 0.0
H1042 H 0.61584 0.3518 0.38582 0.0
H1043 H 0.59208 0.32195 0.36659 0.0
H1044 H 0.59911 0.29764 0.39001 0.0
H1045 H 0.7873 0.3285 0.34294 0.0
H1046 H 0.74252 0.35075 0.33013 0.0
H1047 H 0.75974 0.37459 0.35237 0.0
H1048 H 0.62894 0.41315 0.31203 0.0
H1049 H 0.66898 0.47897 0.36342 0.0
H1050 H 0.62348 0.31006 0.33292 0.0
H1051 H 0.67286 0.31664 0.32028 0.0
H1052 H 0.6246 0.33865 0.31029 0.0
H1053 H 0.67257 0.398 0.39493 0.0
H1054 H 0.70461 0.44356 0.38891 0.0
H1055 H 0.72436 0.39038 0.3846 0.0
C1056 C 0.81514 0.39555 0.07527 0.0
C1057 C 0.7777 0.40434 0.08554 0.0
C1058 C 0.85505 0.40336 0.08356 0.0
C1059 C 0.85727 0.42192 0.10224 0.0
C1060 C 0.81934 0.43067 0.11272 0.0
C1061 C 0.77979 0.42092 0.10433 0.0
C1062 C 0.8948 0.39235 0.07222 0.0
C1063 C 0.82037 0.45223 0.1323 0.0
C1064 C 0.96329 0.42055 0.12879 0.0
C1065 C 0.98001 0.46027 0.12359 0.0
C1066 C 0.92313 0.40754 0.12201 0.0
C1067 C 0.8992 0.4352 0.11002 0.0
C1068 C 0.91592 0.4753 0.10478 0.0
C1069 C 0.95627 0.48709 0.11142 0.0
C1070 C 0.90626 0.36433 0.12765 0.0
C1071 C 0.89118 0.50591 0.09218 0.0
H1072 H 0.81313 0.3821 0.06081 0.0
H1073 H 0.75051 0.42769 0.11213 0.0
H1074 H 0.91273 0.42177 0.06877 0.0
H1075 H 0.91604 0.37188 0.08107 0.0
H1076 H 0.88748 0.3755 0.05844 0.0
H1077 H 0.78881 0.4515 0.13961 0.0
H1078 H 0.8443 0.43704 0.14188 0.0
H1079 H 0.82993 0.48598 0.13042 0.0
H1080 H 0.98149 0.39973 0.13818 0.0
H1081 H 0.96878 0.51797 0.10738 0.0
H1082 H 0.90012 0.34506 0.11444 0.0
H1083 H 0.87541 0.36785 0.13537 0.0
H1084 H 0.92874 0.34664 0.13711 0.0
H1085 H 0.88761 0.49237 0.07741 0.0
H1086 H 0.90709 0.53737 0.09095 0.0
H1087 H 0.85868 0.51086 0.09814 0.0
C1088 C 0.66336 0.75253 0.6341 0.0
C1089 C 0.70391 0.74374 0.62656 0.0
C1090 C 0.65245 0.79401 0.64003 0.0
C1091 C 0.68298 0.82706 0.63848 0.0
C1092 C 0.72367 0.81841 0.63063 0.0
C1093 C 0.73355 0.777 0.62472 0.0
C1094 C 0.60853 0.80244 0.64813 0.0
C1095 C 0.75733 0.85262 0.62902 0.0
C1096 C 0.64867 0.94286 0.64082 0.0
C1097 C 0.65675 0.95272 0.66029 0.0
C1098 C 0.65668 0.90189 0.6335 0.0
C1099 C 0.67348 0.87033 0.64597 0.0
C1100 C 0.68302 0.88052 0.66547 0.0
C1101 C 0.67454 0.92161 0.67239 0.0
C1102 C 0.64669 0.89223 0.61255 0.0
C1103 C 0.70153 0.84782 0.67912 0.0
H1104 H 0.64029 0.72705 0.63545 0.0
H1105 H 0.76509 0.77062 0.61897 0.0
H1106 H 0.61101 0.81536 0.66307 0.0
H1107 H 0.59213 0.82683 0.63922 0.0
H1108 H 0.58857 0.77326 0.64847 0.0
H1109 H 0.78634 0.84127 0.62132 0.0
H1110 H 0.74452 0.88069 0.62123 0.0
H1111 H 0.76671 0.86344 0.64373 0.0
H1112 H 0.63548 0.96702 0.63137 0.0
H1113 H 0.68078 0.92897 0.68749 0.0
H1114 H 0.62234 0.86671 0.61171 0.0
H1115 H 0.67562 0.88031 0.60502 0.0
H1116 H 0.63461 0.92059 0.60467 0.0
H1117 H 0.67879 0.82109 0.68089 0.0
H1118 H 0.70859 0.86136 0.69366 0.0
H1119 H 0.73138 0.83436 0.673 0.0
C1120 C 0.8088 0.92341 0.92217 0.0
C1121 C 0.7771 0.90292 0.91131 0.0
C1122 C 0.84992 0.929 0.91465 0.0
C1123 C 0.85947 0.91402 0.89577 0.0
C1124 C 0.82752 0.89364 0.88465 0.0
C1125 C 0.78669 0.88828 0.89258 0.0
C1126 C 0.88301 0.95141 0.92686 0.0
C1127 C 0.83654 0.87706 0.86449 0.0
C1128 C 0.94954 0.97223 0.87113 0.0
C1129 C 0.98441 0.94515 0.87455 0.0
C1130 C 0.90854 0.96166 0.87739 0.0
C1131 C 0.90197 0.92286 0.88723 0.0
C1132 C 0.93649 0.89432 0.88995 0.0
C1133 C 0.97751 0.90589 0.88363 0.0
C1134 C 0.87249 -0.00724 0.874 0.0
C1135 C 0.93041 0.85236 0.90017 0.0
H1136 H 0.80171 0.93453 0.93671 0.0
H1137 H 0.76237 0.87238 0.88414 0.0
H1138 H 0.91251 0.93198 0.92771 0.0
H1139 H 0.89161 0.98214 0.91999 0.0
H1140 H 0.87155 0.95791 0.94182 0.0
H1141 H 0.80704 0.8669 0.8569 0.0
H1142 H 0.85259 0.90167 0.8556 0.0
H1143 H 0.8584 0.84934 0.86541 0.0
H1144 H 0.95431 0.00245 0.86391 0.0
H1145 H 0.00421 0.8847 0.88619 0.0
H1146 H 0.86001 0.00435 0.88812 0.0
H1147 H 0.84583 0.97671 0.86637 0.0
H1148 H 0.88259 0.0207 0.86531 0.0
H1149 H 0.92394 0.85827 0.91576 0.0
H1150 H 0.95896 0.83155 0.89893 0.0
H1151 H 0.90249 0.83521 0.89415 0.0
C1152 C 0.83439 0.03585 0.14109 0.0
C1153 C 0.81331 0.02355 0.1581 0.0
C1154 C 0.82617 0.07537 0.13249 0.0
C1155 C 0.79563 0.10283 0.14099 0.0
C1156 C 0.77226 0.08941 0.15744 0.0
C1157 C 0.78157 0.04996 0.16588 0.0
C1158 C 0.85176 0.08851 0.11496 0.0
C1159 C 0.73827 0.11726 0.16646 0.0
C1160 C 0.8036 0.22265 0.1364 0.0
C1161 C 0.77148 0.23121 0.12288 0.0
C1162 C 0.81316 0.18066 0.14174 0.0
C1163 C 0.78969 0.14663 0.13351 0.0
C1164 C 0.75857 0.15492 0.11922 0.0
C1165 C 0.75013 0.19712 0.11393 0.0
C1166 C 0.84704 0.17282 0.15685 0.0
C1167 C 0.73308 0.1194 0.11005 0.0
H1168 H 0.8584 0.01526 0.13482 0.0
H1169 H 0.76473 0.04031 0.17887 0.0
H1170 H 0.83075 0.10211 0.10363 0.0
H1171 H 0.87475 0.11366 0.11921 0.0
H1172 H 0.86989 0.06143 0.10861 0.0
H1173 H 0.723 0.10207 0.17922 0.0
H1174 H 0.75226 0.14807 0.1711 0.0
H1175 H 0.71324 0.12443 0.15559 0.0
H1176 H 0.82042 0.2488 0.14323 0.0
H1177 H 0.72539 0.20339 0.10335 0.0
H1178 H 0.87041 0.149 0.15147 0.0
H1179 H 0.83216 0.15955 0.17012 0.0
H1180 H 0.86438 0.20238 0.16083 0.0
H1181 H 0.75474 0.09718 0.10231 0.0
H1182 H 0.70898 0.13142 0.09962 0.0
H1183 H 0.71644 0.10079 0.12142 0.0
C1184 C 0.6796 0.09934 0.39688 0.0
C1185 C 0.703 0.0666 0.40562 0.0
C1186 C 0.6394 0.09152 0.38885 0.0
C1187 C 0.62272 0.04977 0.38937 0.0
C1188 C 0.6477 0.01599 0.39688 0.0
C1189 C 0.68739 0.02497 0.40526 0.0
C1190 C 0.61374 0.12839 0.38104 0.0
C1191 C 0.63176 0.97067 0.3967 0.0
C1192 C 0.50413 0.03334 0.39553 0.0
C1193 C 0.49203 0.02003 0.37696 0.0
C1194 C 0.54641 0.04453 0.39951 0.0
C1195 C 0.57732 0.04222 0.38456 0.0
C1196 C 0.565 0.03072 0.36556 0.0
C1197 C 0.52233 0.02011 0.36194 0.0
C1198 C 0.55841 0.05703 0.41995 0.0
C1199 C 0.59695 0.02847 0.34919 0.0
H1200 H 0.6916 0.13159 0.39738 0.0
H1201 H 0.70596 -0.00039 0.41176 0.0
H1202 H 0.59975 0.12024 0.36676 0.0
H1203 H 0.58694 0.13542 0.39107 0.0
H1204 H 0.63327 0.15765 0.37946 0.0
H1205 H 0.65589 0.94788 0.40229 0.0
H1206 H 0.60255 0.96811 0.40571 0.0
H1207 H 0.62307 0.9612 0.38171 0.0
H1208 H 0.48088 0.03357 0.40716 0.0
H1209 H 0.51317 0.01015 0.34748 0.0
H1210 H 0.5749 0.08825 0.41994 0.0
H1211 H 0.5809 0.03323 0.42601 0.0
H1212 H 0.53025 0.05919 0.42968 0.0
H1213 H 0.60793 0.06103 0.34555 0.0
H1214 H 0.58326 0.01384 0.3359 0.0
H1215 H 0.62543 0.00986 0.35357 0.0
C1216 C 0.242 0.19747 0.37312 0.0
C1217 C 0.26779 0.23293 0.36923 0.0
C1218 C 0.25374 0.15671 0.3669 0.0
C1219 C 0.29258 0.15109 0.35682 0.0
C1220 C 0.31967 0.18637 0.35351 0.0
C1221 C 0.30677 0.22708 0.35965 0.0
C1222 C 0.22383 0.11991 0.37054 0.0
C1223 C 0.36145 0.18135 0.34287 0.0
C1224 C 0.33286 0.0376 0.35238 0.0
C1225 C 0.31779 0.0263 0.33396 0.0
C1226 C 0.32568 0.0785 0.35991 0.0
C1227 C 0.30315 0.10868 0.34867 0.0
C1228 C 0.28834 0.09756 0.32996 0.0
C1229 C 0.29561 0.05638 0.32288 0.0
C1230 C 0.34178 0.08929 0.37995 0.0
C1231 C 0.26404 0.12883 0.31753 0.0
H1232 H 0.21176 0.20167 0.38049 0.0
H1233 H 0.32689 0.25434 0.3567 0.0
H1234 H 0.21323 0.10613 0.35652 0.0
H1235 H 0.24059 0.09436 0.37858 0.0
H1236 H 0.19515 0.12959 0.37893 0.0
H1237 H 0.3808 0.21093 0.34327 0.0
H1238 H 0.38039 0.15501 0.34923 0.0
H1239 H 0.35516 0.17295 0.32751 0.0
H1240 H 0.35014 0.01443 0.36095 0.0
H1241 H 0.28426 0.04791 0.30854 0.0
H1242 H 0.31447 0.09658 0.38963 0.0
H1243 H 0.36208 0.11815 0.3794 0.0
H1244 H 0.36052 0.06288 0.38642 0.0
H1245 H 0.23205 0.13441 0.32393 0.0
H1246 H 0.25984 0.11711 0.30245 0.0
H1247 H 0.28066 0.15995 0.31705 0.0
C1248 C 0.02182 0.01957 0.12951 0.0
C1249 C -0.00732 0.01407 0.11426 0.0
C1250 C 0.06437 0.03045 0.12582 0.0
C1251 C 0.07769 0.03687 0.10648 0.0
C1252 C 0.04814 0.03266 0.09109 0.0
C1253 C 0.00599 0.02117 0.09517 0.0
C1254 C 0.09519 0.03408 0.14255 0.0
C1255 C 0.06138 0.03912 0.07024 0.0
C1256 C 0.17548 0.10123 0.09399 0.0
C1257 C 0.2035 0.06922 0.08795 0.0
C1258 C 0.13484 0.09106 0.10097 0.0
C1259 C 0.12254 0.0478 0.10207 0.0
C1260 C 0.15183 0.01526 0.09697 0.0
C1261 C 0.19193 0.02646 0.08965 0.0
C1262 C 0.10423 0.12657 0.106 0.0
C1263 C 0.14038 0.96874 0.0987 0.0
H1264 H 0.01185 0.01378 0.14431 0.0
H1265 H 0.98367 0.01681 0.08334 0.0
H1266 H 0.12367 0.0139 0.13988 0.0
H1267 H 0.10642 0.06742 0.14389 0.0
H1268 H 0.08057 0.02449 0.15654 0.0
H1269 H 0.0341 0.03643 0.06006 0.0
H1270 H 0.07616 0.07094 0.06846 0.0
H1271 H 0.08567 0.015 0.06614 0.0
H1272 H 0.18441 0.13427 0.09212 0.0
H1273 H 0.21402 0.00192 0.08494 0.0
H1274 H 0.09176 0.12229 0.12091 0.0
H1275 H 0.07653 0.12564 0.09601 0.0
H1276 H 0.11931 0.15846 0.10499 0.0
H1277 H 0.13371 0.96104 0.11409 0.0
H1278 H 0.1663 0.9475 0.09343 0.0
H1279 H 0.11101 0.96175 0.09035 0.0
C1280 C 0.13004 0.9095 0.82809 0.0
C1281 C 0.15107 0.94564 0.83492 0.0
C1282 C 0.13926 0.86939 0.83575 0.0
C1283 C 0.17082 0.8656 0.85029 0.0
C1284 C 0.19175 0.9024 0.85743 0.0
C1285 C 0.18129 0.94232 0.84969 0.0
C1286 C 0.11587 0.83095 0.828 0.0
C1287 C 0.22636 0.89955 0.87256 0.0
C1288 C 0.17194 0.76077 0.87737 0.0
C1289 C 0.20117 0.73761 0.86622 0.0
C1290 C 0.16242 0.80321 0.87269 0.0
C1291 C 0.18354 0.82263 0.85686 0.0
C1292 C 0.21439 0.79957 0.84613 0.0
C1293 C 0.22244 0.75707 0.85083 0.0
C1294 C 0.12961 0.82716 0.88448 0.0
C1295 C 0.2385 0.81954 0.82953 0.0
H1296 H 0.10644 0.91269 0.8167 0.0
H1297 H 0.1974 0.97073 0.8548 0.0
H1298 H 0.13877 0.80881 0.82096 0.0
H1299 H 0.10055 0.81349 0.8401 0.0
H1300 H 0.09099 0.83966 0.81727 0.0
H1301 H 0.23367 0.93115 0.87903 0.0
H1302 H 0.21728 0.87734 0.88433 0.0
H1303 H 0.25587 0.88697 0.86575 0.0
H1304 H 0.1567 0.74571 0.88967 0.0
H1305 H 0.24621 0.7392 0.84276 0.0
H1306 H 0.102 0.83544 0.87517 0.0
H1307 H 0.14324 0.8575 0.88992 0.0
H1308 H 0.11798 0.80837 0.89703 0.0
H1309 H 0.2165 0.82473 0.81717 0.0
H1310 H 0.26537 0.79923 0.82449 0.0
H1311 H 0.25134 0.85106 0.83385 0.0
C1312 C 0.47027 0.91418 0.61679 0.0
C1313 C 0.47737 0.95438 0.62501 0.0
C1314 C 0.42914 0.90179 0.61111 0.0
C1315 C 0.39472 0.93059 0.61347 0.0
C1316 C 0.40137 0.97023 0.6227 0.0
C1317 C 0.44254 0.98149 0.6285 0.0
C1318 C 0.42291 0.85878 0.60172 0.0
C1319 C 0.36541 0.00173 0.62552 0.0
C1320 C 0.30624 0.9244 0.57637 0.0
C1321 C 0.27393 0.90393 0.58682 0.0
C1322 C 0.34558 0.93345 0.58499 0.0
C1323 C 0.35284 0.92147 0.60448 0.0
C1324 C 0.31997 0.90188 0.61528 0.0
C1325 C 0.28066 0.89375 0.60635 0.0
C1326 C 0.37958 0.95541 0.57315 0.0
C1327 C 0.32675 0.88805 0.63599 0.0
H1328 H 0.49695 0.89289 0.61427 0.0
H1329 H 0.44759 0.01245 0.63508 0.0
H1330 H 0.39473 0.84251 0.60797 0.0
H1331 H 0.41688 0.863 0.586 0.0
H1332 H 0.45127 0.83792 0.60348 0.0
H1333 H 0.37578 0.03083 0.63339 0.0
H1334 H 0.35245 0.01132 0.61122 0.0
H1335 H 0.33902 0.98678 0.63374 0.0
H1336 H 0.30118 0.93252 0.56129 0.0
H1337 H 0.25559 0.87831 0.61453 0.0
H1338 H 0.4081 0.93464 0.57194 0.0
H1339 H 0.38968 0.9852 0.58051 0.0
H1340 H 0.36848 0.96341 0.55832 0.0
H1341 H 0.34958 0.86104 0.63628 0.0
H1342 H 0.2966 0.87771 0.643 0.0
H1343 H 0.34084 0.91419 0.64471 0.0
C1344 C 0.24081 0.13564 0.9851 0.0
C1345 C 0.2409 0.09625 0.99466 0.0
C1346 C 0.21978 0.14051 0.96718 0.0
C1347 C 0.19802 0.10533 0.95893 0.0
C1348 C 0.19816 0.06567 0.96858 0.0
C1349 C 0.21967 0.06164 0.98619 0.0
C1350 C 0.22057 0.18316 0.95719 0.0
C1351 C 0.17552 0.02722 0.96032 0.0
C1352 C 0.10605 0.11028 0.92368 0.0
C1353 C 0.12508 0.09391 0.90684 0.0
C1354 C 0.13025 0.1177 0.94046 0.0
C1355 C 0.17454 0.1089 0.94029 0.0
C1356 C 0.19443 0.09563 0.92287 0.0
C1357 C 0.16942 0.08803 0.90637 0.0
C1358 C 0.10781 0.13168 0.95877 0.0
C1359 C 0.24175 0.08693 0.922 0.0
H1360 H 0.25725 0.16249 0.99154 0.0
H1361 H 0.21948 0.03104 0.99341 0.0
H1362 H 0.22995 0.17937 0.94177 0.0
H1363 H 0.18816 0.19733 0.9574 0.0
H1364 H 0.24289 0.20576 0.9643 0.0
H1365 H 0.17751 -0.0009 0.97001 0.0
H1366 H 0.14138 0.03469 0.95782 0.0
H1367 H 0.1897 0.01849 0.94611 0.0
H1368 H 0.07187 0.11527 0.9241 0.0
H1369 H 0.18448 0.07619 0.89327 0.0
H1370 H 0.12508 0.15852 0.96565 0.0
H1371 H 0.10751 0.10499 0.96928 0.0
H1372 H 0.07437 0.14163 0.95602 0.0
H1373 H 0.25966 0.11501 0.92737 0.0
H1374 H 0.25274 0.0793 0.90707 0.0
H1375 H 0.24983 0.05976 0.93157 0.0
C1376 C 0.596 0.37418 0.16588 0.0
C1377 C 0.63808 0.37374 0.15897 0.0
C1378 C 0.58544 0.39489 0.1833 0.0
C1379 C 0.61787 0.41507 0.19417 0.0
C1380 C 0.6606 0.41386 0.18745 0.0
C1381 C 0.67011 0.39358 0.16982 0.0
C1382 C 0.5395 0.39588 0.18982 0.0
C1383 C 0.69637 0.4338 0.19895 0.0
C1384 C 0.59795 0.50424 0.23032 0.0
C1385 C 0.60384 0.48279 0.24785 0.0
C1386 C 0.59974 0.48203 0.21261 0.0
C1387 C 0.60761 0.43755 0.21261 0.0
C1388 C 0.61036 0.41548 0.23042 0.0
C1389 C 0.60874 0.4385 0.24784 0.0
C1390 C 0.59663 0.50658 0.19389 0.0
C1391 C 0.61807 0.36803 0.23108 0.0
H1392 H 0.57107 0.35901 0.15748 0.0
H1393 H 0.70274 0.39283 0.16463 0.0
H1394 H 0.53676 0.38574 0.20516 0.0
H1395 H 0.52725 0.42898 0.18895 0.0
H1396 H 0.51888 0.37509 0.18078 0.0
H1397 H 0.72782 0.42999 0.19173 0.0
H1398 H 0.69009 0.46826 0.20109 0.0
H1399 H 0.69811 0.41904 0.21352 0.0
H1400 H 0.59525 0.53867 0.23038 0.0
H1401 H 0.61396 0.4222 0.26148 0.0
H1402 H 0.57402 0.49079 0.18382 0.0
H1403 H 0.62826 0.50705 0.18667 0.0
H1404 H 0.5861 0.53997 0.19628 0.0
H1405 H 0.59306 0.35112 0.22273 0.0
H1406 H 0.61823 0.35556 0.24613 0.0
H1407 H 0.64915 0.36036 0.22421 0.0
C1408 C 0.27263 0.82934 0.49011 0.0
C1409 C 0.23502 0.85294 0.49205 0.0
C1410 C 0.29541 0.82959 0.4725 0.0
C1411 C 0.27983 0.85384 0.45669 0.0
C1412 C 0.23965 0.87416 0.45817 0.0
C1413 C 0.21795 0.87374 0.47591 0.0
C1414 C 0.33783 0.80707 0.47143 0.0
C1415 C 0.22124 0.89941 0.44156 0.0
C1416 C 0.35844 0.9113 0.42411 0.0
C1417 C 0.35651 0.8869 0.40718 0.0
C1418 C 0.33438 0.9001 0.44048 0.0
C1419 C 0.30783 0.86359 0.43982 0.0
C1420 C 0.30625 0.83858 0.42271 0.0
C1421 C 0.33076 0.85058 0.40655 0.0
C1422 C 0.33664 0.92792 0.45834 0.0
C1423 C 0.27868 0.79934 0.42147 0.0
H1424 H 0.28595 0.81361 0.5027 0.0
H1425 H 0.18868 0.89188 0.47751 0.0
H1426 H 0.34186 0.79085 0.45724 0.0
H1427 H 0.36381 0.83082 0.47285 0.0
H1428 H 0.34145 0.78324 0.48319 0.0
H1429 H 0.18795 0.90981 0.44446 0.0
H1430 H 0.24103 0.9281 0.43901 0.0
H1431 H 0.22168 0.88021 0.42805 0.0
H1432 H 0.37845 0.93942 0.42444 0.0
H1433 H 0.32958 0.8318 0.39335 0.0
H1434 H 0.34617 0.9086 0.47107 0.0
H1435 H 0.30471 0.94155 0.46151 0.0
H1436 H 0.35964 0.95451 0.45668 0.0
H1437 H 0.29118 0.77472 0.43147 0.0
H1438 H 0.27787 0.78581 0.40658 0.0
H1439 H 0.24559 0.8067 0.42608 0.0
C1440 C 0.85397 0.56327 0.65558 0.0
C1441 C 0.84984 0.60764 0.65702 0.0
C1442 C 0.8629 0.5385 0.67198 0.0
C1443 C 0.8667 0.55851 0.6903 0.0
C1444 C 0.8659 0.60353 0.69156 0.0
C1445 C 0.85781 0.62762 0.67484 0.0
C1446 C 0.86491 0.49069 0.66992 0.0
C1447 C 0.87026 0.62608 0.7108 0.0
C1448 C 0.81574 0.49987 0.73205 0.0
C1449 C 0.85102 0.48526 0.74259 0.0
C1450 C 0.82078 0.52348 0.71507 0.0
C1451 C 0.86227 0.53268 0.70823 0.0
C1452 C 0.89826 0.51762 0.71858 0.0
C1453 C 0.89221 0.49392 0.73569 0.0
C1454 C 0.78142 0.53909 0.7046 0.0
C1455 C 0.94298 0.52605 0.71151 0.0
H1456 H 0.84881 0.54771 0.64173 0.0
H1457 H 0.85521 0.66195 0.67599 0.0
H1458 H 0.89161 0.47753 0.67858 0.0
H1459 H 0.83496 0.47655 0.67552 0.0
H1460 H 0.86896 0.48067 0.65457 0.0
H1461 H 0.87131 0.66125 0.70919 0.0
H1462 H 0.84289 0.61781 0.72027 0.0
H1463 H 0.89968 0.61544 0.71827 0.0
H1464 H 0.78376 0.49326 0.73716 0.0
H1465 H 0.91963 0.48259 0.74372 0.0
H1466 H 0.78068 0.52593 0.68966 0.0
H1467 H 0.78215 0.57431 0.70341 0.0
H1468 H 0.75148 0.52981 0.71207 0.0
H1469 H 0.94946 0.50604 0.69856 0.0
H1470 H 0.96724 0.51854 0.72272 0.0
H1471 H 0.94674 0.55976 0.70708 0.0
C1472 C 0.86699 0.8499 0.07738 0.0
C1473 C 0.85023 0.87969 0.09055 0.0
C1474 C 0.8456 0.84029 0.06003 0.0
C1475 C 0.80661 0.86096 0.05578 0.0
C1476 C 0.78832 0.88907 0.06956 0.0
C1477 C 0.81038 0.89817 0.08675 0.0
C1478 C 0.86602 0.81003 0.04573 0.0
C1479 C 0.74648 0.91135 0.06567 0.0
C1480 C 0.78076 0.89201 0.00432 0.0
C1481 C 0.74766 0.864 -0.00037 0.0
C1482 C 0.80147 0.88979 0.0222 0.0
C1483 C 0.78847 0.85898 0.0359 0.0
C1484 C 0.75623 0.82926 0.03095 0.0
C1485 C 0.73635 0.83186 0.01268 0.0
C1486 C 0.83585 0.92195 0.02675 0.0
C1487 C 0.74189 0.79573 0.04513 0.0
H1488 H 0.89759 0.83518 0.08027 0.0
H1489 H 0.79686 0.92073 0.09697 0.0
H1490 H 0.84218 0.78715 0.04004 0.0
H1491 H 0.8785 0.82827 0.0332 0.0
H1492 H 0.8928 0.79194 0.05228 0.0
H1493 H 0.73533 0.93029 0.07833 0.0
H1494 H 0.75 0.93304 0.0531 0.0
H1495 H 0.72159 0.88771 0.06189 0.0
H1496 H 0.78981 0.91659 0.99411 0.0
H1497 H 0.71065 0.81026 0.00903 0.0
H1498 H 0.86526 0.90555 0.03164 0.0
H1499 H 0.82513 0.94303 0.03875 0.0
H1500 H 0.84387 0.94213 0.01406 0.0
H1501 H 0.76861 0.77355 0.04812 0.0
H1502 H 0.71441 0.77705 0.03959 0.0
H1503 H 0.73275 0.81065 0.05913 0.0
C1504 C 0.38331 0.60237 0.82653 0.0
C1505 C 0.34548 0.59498 0.8369 0.0
C1506 C 0.39257 0.57975 0.80943 0.0
C1507 C 0.36316 0.54928 0.80243 0.0
C1508 C 0.32582 0.54041 0.81326 0.0
C1509 C 0.31747 0.5633 0.83035 0.0
C1510 C 0.43281 0.59001 0.79838 0.0
C1511 C 0.29375 0.5079 0.80636 0.0
C1512 C 0.34556 0.5312 0.74895 0.0
C1513 C 0.3621 0.49021 0.74632 0.0
C1514 C 0.34852 0.55195 0.76685 0.0
C1515 C 0.36797 0.53084 0.78264 0.0
C1516 C 0.38733 0.49046 0.77972 0.0
C1517 C 0.38441 0.47059 0.76142 0.0
C1518 C 0.32791 0.59518 0.76918 0.0
C1519 C 0.40895 0.46736 0.79614 0.0
H1520 H 0.40539 0.62648 0.83155 0.0
H1521 H 0.28843 0.55697 0.83835 0.0
H1522 H 0.44863 0.56047 0.79321 0.0
H1523 H 0.42469 0.60922 0.78543 0.0
H1524 H 0.45576 0.6084 0.80734 0.0
H1525 H 0.26708 0.50365 0.81677 0.0
H1526 H 0.28028 0.51789 0.79221 0.0
H1527 H 0.3096 0.47668 0.80409 0.0
H1528 H 0.32853 0.54637 0.73715 0.0
H1529 H 0.39698 0.43872 0.75933 0.0
H1530 H 0.35027 0.61775 0.7762 0.0
H1531 H 0.29951 0.59244 0.7787 0.0
H1532 H 0.31767 0.6088 0.75509 0.0
H1533 H 0.43418 0.48773 0.80252 0.0
H1534 H 0.42347 0.43679 0.79138 0.0
H1535 H 0.38553 0.46067 0.8078 0.0
C1536 C 0.63903 0.06006 0.57421 0.0
C1537 C 0.62331 0.09424 0.58522 0.0
C1538 C 0.6598 0.06697 0.55643 0.0
C1539 C 0.6661 0.10914 0.54971 0.0
C1540 C 0.65031 0.14376 0.56079 0.0
C1541 C 0.62861 0.13585 0.57826 0.0
C1542 C 0.67511 0.02906 0.54483 0.0
C1543 C 0.65638 0.18914 0.55422 0.0
C1544 C 0.7569 0.11705 0.51333 0.0
C1545 C 0.73482 0.11428 0.49576 0.0
C1546 C 0.73475 0.11833 0.53108 0.0
C1547 C 0.68956 0.11656 0.53116 0.0
C1548 C 0.66726 0.11709 0.51331 0.0
C1549 C 0.69022 0.11548 0.49583 0.0
C1550 C 0.75975 0.1184 0.54976 0.0
C1551 C 0.61921 0.11551 0.51255 0.0
H1552 H 0.6346 0.02781 0.57939 0.0
H1553 H 0.61649 0.16243 0.58668 0.0
H1554 H 0.6624 0.03058 0.52984 0.0
H1555 H 0.7104 0.02961 0.5438 0.0
H1556 H 0.66526 -0.00165 0.5514 0.0
H1557 H 0.64514 0.21254 0.56521 0.0
H1558 H 0.69055 0.19526 0.55114 0.0
H1559 H 0.63856 0.19451 0.54057 0.0
H1560 H 0.79142 0.11521 0.51326 0.0
H1561 H 0.67322 0.11256 0.48221 0.0
H1562 H 0.75725 0.08668 0.55672 0.0
H1563 H 0.74642 0.14216 0.56005 0.0
H1564 H 0.79401 0.12554 0.54735 0.0
H1565 H 0.60859 0.0823 0.51505 0.0
H1566 H 0.60691 0.12594 0.49823 0.0
H1567 H 0.60472 0.13577 0.52399 0.0
C1568 C 0.0957 0.36859 0.32649 0.0
C1569 C 0.12995 0.38004 0.33849 0.0
C1570 C 0.08714 0.39101 0.30935 0.0
C1571 C 0.1137 0.42542 0.30405 0.0
C1572 C 0.14708 0.43833 0.31655 0.0
C1573 C 0.15479 0.41551 0.33362 0.0
C1574 C 0.05114 0.37638 0.29646 0.0
C1575 C 0.17596 0.47508 0.31143 0.0
C1576 C 0.13904 0.447 0.25156 0.0
C1577 C 0.11657 0.48474 0.24816 0.0
C1578 C 0.13625 0.42616 0.26937 0.0
C1579 C 0.11097 0.444 0.28432 0.0
C1580 C 0.08665 0.48125 0.28072 0.0
C1581 C 0.08942 0.50109 0.26249 0.0
C1582 C 0.16215 0.38613 0.27245 0.0
C1583 C 0.05905 0.50082 0.29631 0.0
H1584 H 0.07607 0.34146 0.33024 0.0
H1585 H 0.18105 0.42485 0.3429 0.0
H1586 H 0.03273 0.40396 0.29092 0.0
H1587 H 0.06445 0.35924 0.28374 0.0
H1588 H 0.02902 0.3546 0.30416 0.0
H1589 H 0.19913 0.4824 0.32313 0.0
H1590 H 0.194 0.46748 0.29801 0.0
H1591 H 0.15672 0.50401 0.30849 0.0
H1592 H 0.1596 0.43412 0.24033 0.0
H1593 H 0.07208 0.53036 0.25979 0.0
H1594 H 0.14159 0.36029 0.2781 0.0
H1595 H 0.18732 0.39223 0.2834 0.0
H1596 H 0.17765 0.37482 0.25889 0.0
H1597 H 0.03466 0.47754 0.30107 0.0
H1598 H 0.04265 0.53015 0.29129 0.0
H1599 H 0.07869 0.50881 0.30918 0.0
C1600 C 0.60917 0.57127 0.42982 0.0
C1601 C 0.62116 0.58268 0.41099 0.0
C1602 C 0.63504 0.58114 0.44575 0.0
C1603 C 0.6734 0.60405 0.44287 0.0
C1604 C 0.68465 0.61757 0.42399 0.0
C1605 C 0.65867 0.60618 0.4082 0.0
C1606 C 0.62218 0.56531 0.46557 0.0
C1607 C 0.72486 0.64265 0.42037 0.0
C1608 C 0.72113 0.64077 0.49073 0.0
C1609 C 0.74766 0.60609 0.49491 0.0
C1610 C 0.69895 0.64255 0.47297 0.0
C1611 C 0.70367 0.60891 0.45935 0.0
C1612 C 0.73344 0.57601 0.46295 0.0
C1613 C 0.75496 0.57506 0.48067 0.0
C1614 C 0.6683 0.67872 0.46935 0.0
C1615 C 0.7396 0.53933 0.449 0.0
H1616 H 0.58027 0.55304 0.43207 0.0
H1617 H 0.6679 0.61541 0.39366 0.0
H1618 H 0.64733 0.54409 0.47146 0.0
H1619 H 0.61876 0.59255 0.47571 0.0
H1620 H 0.59164 0.54747 0.46528 0.0
H1621 H 0.72567 0.65632 0.40554 0.0
H1622 H 0.72789 0.66887 0.43108 0.0
H1623 H 0.753 0.6216 0.42213 0.0
H1624 H 0.71542 0.66475 0.50177 0.0
H1625 H 0.77588 0.54845 0.48387 0.0
H1626 H 0.6351 0.66716 0.471 0.0
H1627 H 0.67173 0.69069 0.45431 0.0
H1628 H 0.67328 0.70551 0.47964 0.0
H1629 H 0.71151 0.51797 0.44979 0.0
H1630 H 0.76854 0.52038 0.45245 0.0
H1631 H 0.7422 0.55078 0.43387 0.0
C1632 C 0.09011 0.88813 0.6629 0.0
C1633 C 0.13124 0.87247 0.65948 0.0
C1634 C 0.08045 0.91042 0.68001 0.0
C1635 C 0.11237 0.91572 0.6943 0.0
C1636 C 0.15342 0.89783 0.6913 0.0
C1637 C 0.16264 0.87715 0.6737 0.0
C1638 C 0.0368 0.93003 0.68234 0.0
C1639 C 0.18776 0.90109 0.70656 0.0
C1640 C 0.11659 0.01029 0.72832 0.0
C1641 C 0.10354 -0.00786 0.74582 0.0
C1642 C 0.11673 0.98643 0.71113 0.0
C1643 C 0.10443 0.94308 0.7116 0.0
C1644 C 0.08876 0.92533 0.72908 0.0
C1645 C 0.08835 0.95028 0.74605 0.0
C1646 C 0.13329 0.00672 0.69279 0.0
C1647 C 0.07552 0.87922 0.73018 0.0
H1648 H 0.06589 0.88434 0.65182 0.0
H1649 H 0.19423 0.86421 0.67115 0.0
H1650 H 0.02328 0.9225 0.69678 0.0
H1651 H 0.03948 0.96519 0.68139 0.0
H1652 H 0.01425 0.91897 0.67099 0.0
H1653 H 0.21711 0.88339 0.70244 0.0
H1654 H 0.19623 0.93496 0.70899 0.0
H1655 H 0.17583 0.88836 0.72053 0.0
H1656 H 0.12928 0.0424 0.72834 0.0
H1657 H 0.07937 0.93606 0.75976 0.0
H1658 H 0.11177 -0.00032 0.68044 0.0
H1659 H 0.16506 -0.00677 0.6892 0.0
H1660 H 0.13652 0.04179 0.69426 0.0
H1661 H 0.05044 0.87246 0.71929 0.0
H1662 H 0.06325 0.87057 0.74475 0.0
H1663 H 0.10313 0.85842 0.72671 0.0
C1664 C 0.86627 0.41351 0.92677 0.0
C1665 C 0.85485 0.39987 0.90819 0.0
C1666 C 0.84126 0.40293 0.94289 0.0
C1667 C 0.80501 0.37656 0.94041 0.0
C1668 C 0.79488 0.36059 0.92177 0.0
C1669 C 0.8194 0.37333 0.90575 0.0
C1670 C 0.85258 0.42157 0.96242 0.0
C1671 C 0.75745 0.33124 0.91865 0.0
C1672 C 0.75974 0.33988 0.98865 0.0
C1673 C 0.72989 0.37223 0.99215 0.0
C1674 C 0.78266 0.33874 0.97108 0.0
C1675 C 0.77517 0.37058 0.95694 0.0
C1676 C 0.74235 0.40086 0.95989 0.0
C1677 C 0.72034 0.40139 0.9775 0.0
C1678 C 0.81663 0.30526 0.96818 0.0
C1679 C 0.73293 0.4353 0.94525 0.0
H1680 H 0.89374 0.43406 0.92855 0.0
H1681 H 0.81104 0.36237 0.89133 0.0
H1682 H 0.82554 0.44084 0.96804 0.0
H1683 H 0.85852 0.39566 0.97296 0.0
H1684 H 0.8813 0.44215 0.96178 0.0
H1685 H 0.75836 0.31588 0.90413 0.0
H1686 H 0.75681 0.30607 0.9299 0.0
H1687 H 0.72731 0.34954 0.91991 0.0
H1688 H 0.76712 0.31734 4e-05 0.0
H1689 H 0.69685 0.4261 0.98019 0.0
H1690 H 0.84855 0.3199 0.96992 0.0
H1691 H 0.81499 0.29187 0.95329 0.0
H1692 H 0.81365 0.27891 0.9788 0.0
H1693 H 0.75909 0.45904 0.94547 0.0
H1694 H 0.70248 0.45205 0.94844 0.0
H1695 H 0.73118 0.42197 0.93039 0.0
C1696 C 0.37398 0.96565 0.23138 0.0
C1697 C 0.35926 0.98605 0.24815 0.0
C1698 C 0.37447 0.98726 0.21351 0.0
C1699 C 0.36024 0.03012 0.21263 0.0
C1700 C 0.34823 0.05148 0.22988 0.0
C1701 C 0.3475 0.02901 0.24738 0.0
C1702 C 0.38761 0.96353 0.19542 0.0
C1703 C 0.33299 0.09711 0.2297 0.0
C1704 C 0.37855 0.09951 0.1683 0.0
C1705 C 0.33902 0.09673 0.15886 0.0
C1706 C 0.38641 0.07708 0.18553 0.0
C1707 C 0.35385 0.05155 0.19361 0.0
C1708 C 0.31394 0.04845 0.1841 0.0
C1709 C 0.3071 0.07087 0.16679 0.0
C1710 C 0.42931 0.08123 0.19524 0.0
C1711 C 0.2782 0.02184 0.19232 0.0
H1712 H 0.38225 0.93214 0.23197 0.0
H1713 H 0.33565 0.0445 0.2604 0.0
H1714 H 0.35974 0.95999 0.18566 0.0
H1715 H 0.41215 0.98183 0.18741 0.0
H1716 H 0.40045 0.93136 0.19869 0.0
H1717 H 0.3305 0.11068 0.24455 0.0
H1718 H 0.35482 0.11732 0.22106 0.0
H1719 H 0.30109 0.09869 0.2228 0.0
H1720 H 0.40349 0.11926 0.16224 0.0
H1721 H 0.27647 0.06853 0.15961 0.0
H1722 H 0.4438 0.04929 0.1972 0.0
H1723 H 0.42536 0.09545 0.20987 0.0
H1724 H 0.45169 0.10133 0.18679 0.0
H1725 H 0.28826 -0.01199 0.19305 0.0
H1726 H 0.24865 0.02393 0.18351 0.0
H1727 H 0.27073 0.03228 0.20733 0.0
C1728 C 0.36896 0.34963 0.57656 0.0
C1729 C 0.35251 0.37886 0.59006 0.0
C1730 C 0.34685 0.34028 0.55937 0.0
C1731 C 0.30744 0.36063 0.55563 0.0
C1732 C 0.28972 0.38855 0.56964 0.0
C1733 C 0.3125 0.39739 0.58665 0.0
C1734 C 0.3668 0.31046 0.54475 0.0
C1735 C 0.24759 0.41067 0.56626 0.0
C1736 C 0.27758 0.39001 0.50442 0.0
C1737 C 0.24467 0.36129 0.50031 0.0
C1738 C 0.29939 0.38873 0.52203 0.0
C1739 C 0.28782 0.35808 0.53606 0.0
C1740 C 0.25577 0.3277 0.53172 0.0
C1741 C 0.23468 0.32942 0.51371 0.0
C1742 C 0.33341 0.42166 0.52597 0.0
C1743 C 0.24291 0.29439 0.54629 0.0
H1744 H 0.39975 0.335 0.57912 0.0
H1745 H 0.29929 0.41965 0.59709 0.0
H1746 H 0.34295 0.28726 0.53935 0.0
H1747 H 0.37816 0.32899 0.53209 0.0
H1748 H 0.39428 0.29273 0.5509 0.0
H1749 H 0.23709 0.42958 0.57904 0.0
H1750 H 0.25028 0.43237 0.55365 0.0
H1751 H 0.22258 0.38692 0.56277 0.0
H1752 H 0.28564 0.41441 0.49395 0.0
H1753 H 0.20913 0.3073 0.51051 0.0
H1754 H 0.36344 0.40595 0.53054 0.0
H1755 H 0.32308 0.44281 0.53801 0.0
H1756 H 0.3402 0.44169 0.51309 0.0
H1757 H 0.27024 0.27284 0.54912 0.0
H1758 H 0.21549 0.275 0.54122 0.0
H1759 H 0.23429 0.30963 0.56029 0.0
C1760 C 0.88408 0.08065 0.33494 0.0
C1761 C 0.84301 0.0949 0.33989 0.0
C1762 C 0.89164 0.05811 0.31762 0.0
C1763 C 0.85753 0.05044 0.30466 0.0
C1764 C 0.81611 0.06533 0.30942 0.0
C1765 C 0.80929 0.08701 0.32703 0.0
C1766 C 0.93611 0.04234 0.31325 0.0
C1767 C 0.77884 0.05807 0.29597 0.0
C1768 C 0.87446 0.02629 0.25108 0.0
C1769 C 0.8643 0.98297 0.25031 0.0
C1770 C 0.87475 0.04834 0.26887 0.0
C1771 C 0.86463 0.02638 0.2862 0.0
C1772 C 0.8572 0.9819 0.28552 0.0
C1773 C 0.8567 0.96083 0.26753 0.0
C1774 C 0.8826 0.09572 0.26889 0.0
C1775 C 0.84723 0.95703 0.30365 0.0
H1776 H 0.91033 0.08647 0.34479 0.0
H1777 H 0.77749 0.098 0.33066 0.0
H1778 H 0.93552 0.00797 0.30949 0.0
H1779 H 0.94906 0.05954 0.30053 0.0
H1780 H 0.95814 0.04709 0.32567 0.0
H1781 H 0.74927 0.07389 0.30119 0.0
H1782 H 0.78639 0.07021 0.28127 0.0
H1783 H 0.7726 0.02344 0.29457 0.0
H1784 H 0.87929 0.04352 0.23766 0.0
H1785 H 0.84807 0.92743 0.26681 0.0
H1786 H 0.90623 0.10437 0.28017 0.0
H1787 H 0.85249 0.11264 0.27244 0.0
H1788 H 0.89425 0.10724 0.25463 0.0
H1789 H 0.87208 0.96279 0.31478 0.0
H1790 H 0.84517 0.92225 0.30083 0.0
H1791 H 0.81639 0.96794 0.3098 0.0
C1792 C 0.10706 0.6242 0.07009 0.0
C1793 C 0.12666 0.60631 0.08642 0.0
C1794 C 0.13005 0.63059 0.05289 0.0
C1795 C 0.17356 0.61875 0.05206 0.0
C1796 C 0.19431 0.60404 0.06898 0.0
C1797 C 0.17058 0.59791 0.08597 0.0
C1798 C 0.10685 0.64667 0.0352 0.0
C1799 C 0.24088 0.59179 0.06873 0.0
C1800 C 0.2131 0.56791 0.00577 0.0
C1801 C 0.23795 0.60023 -0.0024 0.0
C1802 C 0.19142 0.57415 0.02323 0.0
C1803 C 0.19494 0.61366 0.03299 0.0
C1804 C 0.21968 0.64677 0.02481 0.0
C1805 C 0.24078 0.63975 0.00705 0.0
C1806 C 0.16515 0.53803 0.03136 0.0
C1807 C 0.22382 0.6894 0.03477 0.0
H1808 H 0.07324 0.63126 0.07038 0.0
H1809 H 0.18614 0.58478 0.09864 0.0
H1810 H 0.12637 0.67049 0.02737 0.0
H1811 H 0.10104 0.61972 0.02511 0.0
H1812 H 0.07563 0.66126 0.03898 0.0
H1813 H 0.25299 0.5838 0.0834 0.0
H1814 H 0.24564 0.56374 0.05914 0.0
H1815 H 0.26027 0.61819 0.06275 0.0
H1816 H 0.21041 0.53743 -0.00153 0.0
H1817 H 0.25991 0.66487 0.00075 0.0
H1818 H 0.13172 0.54856 0.03357 0.0
H1819 H 0.1779 0.5284 0.04569 0.0
H1820 H 0.16503 0.50965 0.02171 0.0
H1821 H 0.19249 0.70583 0.03476 0.0
H1822 H 0.24752 0.71025 0.02752 0.0
H1823 H 0.23331 0.68516 0.05013 0.0
C1824 C 0.62178 0.84783 0.82166 0.0
C1825 C 0.63383 0.87 0.83843 0.0
C1826 C 0.61031 0.86974 0.80474 0.0
C1827 C 0.61026 0.91481 0.80476 0.0
C1828 C 0.61865 0.93719 0.82218 0.0
C1829 C 0.63096 0.91452 0.83876 0.0
C1830 C 0.6018 0.84469 0.78646 0.0
C1831 C 0.61736 0.9852 0.82294 0.0
C1832 C 0.6528 0.96656 0.75945 0.0
C1833 C 0.61577 0.98138 0.75026 0.0
C1834 C 0.65103 0.9451 0.7771 0.0
C1835 C 0.61109 0.93806 0.78602 0.0
C1836 C 0.57332 0.95295 0.77697 0.0
C1837 C 0.57607 0.97436 0.75906 0.0
C1838 C 0.69223 0.93004 0.78621 0.0
C1839 C 0.53013 0.94593 0.78603 0.0
H1840 H 0.62354 0.81336 0.82141 0.0
H1841 H 0.6392 0.93172 0.85188 0.0
H1842 H 0.5733 0.85729 0.77889 0.0
H1843 H 0.62935 0.84799 0.77647 0.0
H1844 H 0.59692 0.81029 0.78943 0.0
H1845 H 0.6195 -0.00248 0.83802 0.0
H1846 H 0.64437 -0.00166 0.81447 0.0
H1847 H 0.58748 -0.00285 0.81627 0.0
H1848 H 0.68373 0.97173 0.75286 0.0
H1849 H 0.54733 0.9857 0.75204 0.0
H1850 H 0.69123 0.89508 0.78844 0.0
H1851 H 0.69642 0.94516 0.80063 0.0
H1852 H 0.72057 0.93763 0.77721 0.0
H1853 H 0.52036 0.91239 0.78369 0.0
H1854 H 0.50544 0.96693 0.77956 0.0
H1855 H 0.53113 0.9516 0.80191 0.0
loop_
_geom_bond_atom_site_label_1
_geom_bond_atom_site_label_2
_geom_bond_distance
_geom_bond_site_symmetry_2
_ccdc_geom_bond_type
Zn0 O6 1.969 . S
Zn0 O7 1.965 . S
Zn0 O11 2.024 . S
Zn0 O16 1.969 . S
Zn1 O8 1.969 . S
Zn1 O14 1.969 . S
Zn1 O15 1.965 . S
Zn1 O17 2.024 . S
C2 O3 1.229 . S
C2 O11 1.058 . S
O3 C2 1.229 . S
C4 O5 1.229 . S
C4 O17 1.058 . S
O5 C4 1.229 . S
O6 Zn0 1.969 . S
O6 C9 1.267 . S
O7 Zn0 1.965 . S
O7 C18 1.260 . S
O8 Zn1 1.969 . S
O8 C18 1.258 . S
C9 O6 1.267 . S
C9 O10 1.228 . S
O10 C9 1.228 . S
O11 Zn0 2.024 . S
O11 C2 1.058 . S
C12 O13 1.228 . S
C12 O14 1.267 . S
O13 C12 1.228 . S
O14 Zn1 1.969 . S
O14 C12 1.267 . S
O15 Zn1 1.965 . S
O15 C19 1.260 . S
O16 Zn0 1.969 . S
O16 C19 1.258 . S
O17 Zn1 2.024 . S
O17 C4 1.058 . S
C18 O7 1.260 . S
C18 O8 1.258 . S
C19 O15 1.260 . S
C19 O16 1.258 . S
Zn20 O26 1.969 . S
Zn20 O27 1.965 . S
Zn20 O31 2.024 . S
Zn20 O36 1.969 . S
Zn21 O28 1.969 . S
Zn21 O34 1.969 . S
Zn21 O35 1.965 . S
Zn21 O37 2.024 . S
C22 O23 1.229 . S
C22 O31 1.058 . S
O23 C22 1.229 . S
C24 O25 1.229 . S
C24 O37 1.058 . S
O25 C24 1.229 . S
O26 Zn20 1.969 . S
O26 C29 1.267 . S
O27 Zn20 1.965 . S
O27 C38 1.260 . S
O28 Zn21 1.969 . S
O28 C38 1.258 . S
C29 O26 1.267 . S
C29 O30 1.228 . S
O30 C29 1.228 . S
O31 Zn20 2.024 . S
O31 C22 1.058 . S
C32 O33 1.228 . S
C32 O34 1.267 . S
O33 C32 1.228 . S
O34 Zn21 1.969 . S
O34 C32 1.267 . S
O35 Zn21 1.965 . S
O35 C39 1.260 . S
O36 Zn20 1.969 . S
O36 C39 1.258 . S
O37 Zn21 2.024 . S
O37 C24 1.058 . S
C38 O27 1.260 . S
C38 O28 1.258 . S
C39 O35 1.260 . S
C39 O36 1.258 . S
Zn40 O46 1.969 . S
Zn40 O47 1.965 . S
Zn40 O51 2.024 . S
Zn40 O56 1.969 . S
Zn41 O48 1.969 . S
Zn41 O54 1.969 . S
Zn41 O55 1.965 . S
Zn41 O57 2.024 . S
C42 O43 1.229 . S
C42 O51 1.058 . S
O43 C42 1.229 . S
C44 O45 1.229 . S
C44 O57 1.058 . S
O45 C44 1.229 . S
O46 Zn40 1.969 . S
O46 C49 1.267 . S
O47 Zn40 1.965 . S
O47 C58 1.260 . S
O48 Zn41 1.969 . S
O48 C58 1.258 . S
C49 O46 1.267 . S
C49 O50 1.228 . S
O50 C49 1.228 . S
O51 Zn40 2.024 . S
O51 C42 1.058 . S
C52 O53 1.228 . S
C52 O54 1.267 . S
O53 C52 1.228 . S
O54 Zn41 1.969 . S
O54 C52 1.267 . S
O55 Zn41 1.965 . S
O55 C59 1.260 . S
O56 Zn40 1.969 . S
O56 C59 1.258 . S
O57 Zn41 2.024 . S
O57 C44 1.058 . S
C58 O47 1.260 . S
C58 O48 1.258 . S
C59 O55 1.260 . S
C59 O56 1.258 . S
Zn60 O66 1.969 . S
Zn60 O67 1.965 . S
Zn60 O71 2.024 . S
Zn60 O76 1.969 . S
Zn61 O68 1.969 . S
Zn61 O74 1.969 . S
Zn61 O75 1.965 . S
Zn61 O77 2.024 . S
C62 O63 1.229 . S
C62 O71 1.058 . S
O63 C62 1.229 . S
C64 O65 1.229 . S
C64 O77 1.058 . S
O65 C64 1.229 . S
O66 Zn60 1.969 . S
O66 C69 1.267 . S
O67 Zn60 1.965 . S
O67 C78 1.260 . S
O68 Zn61 1.969 . S
O68 C78 1.258 . S
C69 O66 1.267 . S
C69 O70 1.228 . S
O70 C69 1.228 . S
O71 Zn60 2.024 . S
O71 C62 1.058 . S
C72 O73 1.228 . S
C72 O74 1.267 . S
O73 C72 1.228 . S
O74 Zn61 1.969 . S
O74 C72 1.267 . S
O75 Zn61 1.965 . S
O75 C79 1.260 . S
O76 Zn60 1.969 . S
O76 C79 1.258 . S
O77 Zn61 2.024 . S
O77 C64 1.058 . S
C78 O67 1.260 . S
C78 O68 1.258 . S
C79 O75 1.260 . S
C79 O76 1.258 . S
Zn80 O86 1.969 . S
Zn80 O87 1.965 . S
Zn80 O91 2.024 . S
Zn80 O96 1.969 . S
Zn81 O88 1.969 . S
Zn81 O94 1.969 . S
Zn81 O95 1.965 . S
Zn81 O97 2.024 . S
C82 O83 1.229 . S
C82 O91 1.058 . S
O83 C82 1.229 . S
C84 O85 1.229 . S
C84 O97 1.058 . S
O85 C84 1.229 . S
O86 Zn80 1.969 . S
O86 C89 1.267 . S
O87 Zn80 1.965 . S
O87 C98 1.260 . S
O88 Zn81 1.969 . S
O88 C98 1.258 . S
C89 O86 1.267 . S
C89 O90 1.228 . S
O90 C89 1.228 . S
O91 Zn80 2.024 . S
O91 C82 1.058 . S
C92 O93 1.228 . S
C92 O94 1.267 . S
O93 C92 1.228 . S
O94 Zn81 1.969 . S
O94 C92 1.267 . S
O95 Zn81 1.965 . S
O95 C99 1.260 . S
O96 Zn80 1.969 . S
O96 C99 1.258 . S
O97 Zn81 2.024 . S
O97 C84 1.058 . S
C98 O87 1.260 . S
C98 O88 1.258 . S
C99 O95 1.260 . S
C99 O96 1.258 . S
Zn100 O106 1.969 . S
Zn100 O107 1.965 . S
Zn100 O111 2.024 . S
Zn100 O116 1.969 . S
Zn101 O108 1.969 . S
Zn101 O114 1.969 . S
Zn101 O115 1.965 . S
Zn101 O117 2.024 . S
C102 O103 1.229 . S
C102 O111 1.058 . S
O103 C102 1.229 . S
C104 O105 1.229 . S
C104 O117 1.058 . S
O105 C104 1.229 . S
O106 Zn100 1.969 . S
O106 C109 1.267 . S
O107 Zn100 1.965 . S
O107 C118 1.260 . S
O108 Zn101 1.969 . S
O108 C118 1.258 . S
C109 O106 1.267 . S
C109 O110 1.228 . S
O110 C109 1.228 . S
O111 Zn100 2.024 . S
O111 C102 1.058 . S
C112 O113 1.228 . S
C112 O114 1.267 . S
O113 C112 1.228 . S
O114 Zn101 1.969 . S
O114 C112 1.267 . S
O115 Zn101 1.965 . S
O115 C119 1.260 . S
O116 Zn100 1.969 . S
O116 C119 1.258 . S
O117 Zn101 2.024 . S
O117 C104 1.058 . S
C118 O107 1.260 . S
C118 O108 1.258 . S
C119 O115 1.260 . S
C119 O116 1.258 . S
Zn120 O126 1.969 . S
Zn120 O127 1.965 . S
Zn120 O131 2.024 . S
Zn120 O136 1.969 . S
Zn121 O128 1.969 . S
Zn121 O134 1.969 . S
Zn121 O135 1.965 . S
Zn121 O137 2.024 . S
C122 O123 1.229 . S
C122 O131 1.058 . S
O123 C122 1.229 . S
C124 O125 1.229 . S
C124 O137 1.058 . S
O125 C124 1.229 . S
O126 Zn120 1.969 . S
O126 C129 1.267 . S
O127 Zn120 1.965 . S
O127 C138 1.260 . S
O128 Zn121 1.969 . S
O128 C138 1.258 . S
C129 O126 1.267 . S
C129 O130 1.228 . S
O130 C129 1.228 . S
O131 Zn120 2.024 . S
O131 C122 1.058 . S
C132 O133 1.228 . S
C132 O134 1.267 . S
O133 C132 1.228 . S
O134 Zn121 1.969 . S
O134 C132 1.267 . S
O135 Zn121 1.965 . S
O135 C139 1.260 . S
O136 Zn120 1.969 . S
O136 C139 1.258 . S
O137 Zn121 2.024 . S
O137 C124 1.058 . S
C138 O127 1.260 . S
C138 O128 1.258 . S
C139 O135 1.260 . S
C139 O136 1.258 . S
Zn140 O146 1.969 . S
Zn140 O147 1.965 . S
Zn140 O151 2.024 . S
Zn140 O156 1.969 . S
Zn141 O148 1.969 . S
Zn141 O154 1.969 . S
Zn141 O155 1.965 . S
Zn141 O157 2.024 . S
C142 O143 1.229 . S
C142 O151 1.058 . S
O143 C142 1.229 . S
C144 O145 1.229 . S
C144 O157 1.058 . S
O145 C144 1.229 . S
O146 Zn140 1.969 . S
O146 C149 1.267 . S
O147 Zn140 1.965 . S
O147 C158 1.260 . S
O148 Zn141 1.969 . S
O148 C158 1.258 . S
C149 O146 1.267 . S
C149 O150 1.228 . S
O150 C149 1.228 . S
O151 Zn140 2.024 . S
O151 C142 1.058 . S
C152 O153 1.228 . S
C152 O154 1.267 . S
O153 C152 1.228 . S
O154 Zn141 1.969 . S
O154 C152 1.267 . S
O155 Zn141 1.965 . S
O155 C159 1.260 . S
O156 Zn140 1.969 . S
O156 C159 1.258 . S
O157 Zn141 2.024 . S
O157 C144 1.058 . S
C158 O147 1.260 . S
C158 O148 1.258 . S
C159 O155 1.260 . S
C159 O156 1.258 . S
Zn160 O166 1.969 . S
Zn160 O167 1.965 . S
Zn160 O171 2.024 . S
Zn160 O176 1.969 . S
Zn161 O168 1.969 . S
Zn161 O174 1.969 . S
Zn161 O175 1.965 . S
Zn161 O177 2.024 . S
C162 O163 1.229 . S
C162 O171 1.058 . S
O163 C162 1.229 . S
C164 O165 1.229 . S
C164 O177 1.058 . S
O165 C164 1.229 . S
O166 Zn160 1.969 . S
O166 C169 1.267 . S
O167 Zn160 1.965 . S
O167 C178 1.260 . S
O168 Zn161 1.969 . S
O168 C178 1.258 . S
C169 O166 1.267 . S
C169 O170 1.228 . S
O170 C169 1.228 . S
O171 Zn160 2.024 . S
O171 C162 1.058 . S
C172 O173 1.228 . S
C172 O174 1.267 . S
O173 C172 1.228 . S
O174 Zn161 1.969 . S
O174 C172 1.267 . S
O175 Zn161 1.965 . S
O175 C179 1.260 . S
O176 Zn160 1.969 . S
O176 C179 1.258 . S
O177 Zn161 2.024 . S
O177 C164 1.058 . S
C178 O167 1.260 . S
C178 O168 1.258 . S
C179 O175 1.260 . S
C179 O176 1.258 . S
Zn180 O186 1.969 . S
Zn180 O187 1.965 . S
Zn180 O191 2.024 . S
Zn180 O196 1.969 . S
Zn181 O188 1.969 . S
Zn181 O194 1.969 . S
Zn181 O195 1.965 . S
Zn181 O197 2.024 . S
C182 O183 1.229 . S
C182 O191 1.058 . S
O183 C182 1.229 . S
C184 O185 1.229 . S
C184 O197 1.058 . S
O185 C184 1.229 . S
O186 Zn180 1.969 . S
O186 C189 1.267 . S
O187 Zn180 1.965 . S
O187 C198 1.260 . S
O188 Zn181 1.969 . S
O188 C198 1.258 . S
C189 O186 1.267 . S
C189 O190 1.228 . S
O190 C189 1.228 . S
O191 Zn180 2.024 . S
O191 C182 1.058 . S
C192 O193 1.228 . S
C192 O194 1.267 1_565 S
O193 C192 1.228 . S
O194 Zn181 1.969 . S
O194 C192 1.267 1_545 S
O195 Zn181 1.965 . S
O195 C199 1.264 . S
O196 Zn180 1.969 . S
O196 C199 1.263 . S
O197 Zn181 2.024 . S
O197 C184 1.058 . S
C198 O187 1.260 . S
C198 O188 1.258 . S
C199 O195 1.264 . S
C199 O196 1.263 . S
Zn200 O206 1.969 . S
Zn200 O207 1.965 . S
Zn200 O211 2.024 . S
Zn200 O216 1.969 . S
Zn201 O208 1.969 . S
Zn201 O214 1.969 . S
Zn201 O215 1.965 . S
Zn201 O217 2.024 . S
C202 O203 1.229 . S
C202 O211 1.058 . S
O203 C202 1.229 . S
C204 O205 1.229 . S
C204 O217 1.058 . S
O205 C204 1.229 . S
O206 Zn200 1.969 . S
O206 C209 1.267 . S
O207 Zn200 1.965 . S
O207 C218 1.260 . S
O208 Zn201 1.969 . S
O208 C218 1.258 . S
C209 O206 1.267 . S
C209 O210 1.228 . S
O210 C209 1.228 . S
O211 Zn200 2.024 . S
O211 C202 1.058 . S
C212 O213 1.228 . S
C212 O214 1.267 . S
O213 C212 1.228 . S
O214 Zn201 1.969 . S
O214 C212 1.267 . S
O215 Zn201 1.965 . S
O215 C219 1.260 . S
O216 Zn200 1.969 . S
O216 C219 1.258 . S
O217 Zn201 2.024 . S
O217 C204 1.058 . S
C218 O207 1.260 . S
C218 O208 1.258 . S
C219 O215 1.260 . S
C219 O216 1.258 . S
Zn220 O226 1.969 . S
Zn220 O227 1.965 . S
Zn220 O231 2.024 . S
Zn220 O236 1.969 . S
Zn221 O228 1.969 . S
Zn221 O234 1.969 . S
Zn221 O235 1.965 . S
Zn221 O237 2.024 . S
C222 O223 1.229 . S
C222 O231 1.058 . S
O223 C222 1.229 . S
C224 O225 1.229 . S
C224 O237 1.058 . S
O225 C224 1.229 . S
O226 Zn220 1.969 . S
O226 C229 1.267 . S
O227 Zn220 1.965 . S
O227 C238 1.260 . S
O228 Zn221 1.969 . S
O228 C238 1.258 . S
C229 O226 1.267 . S
C229 O230 1.228 . S
O230 C229 1.228 . S
O231 Zn220 2.024 . S
O231 C222 1.058 . S
C232 O233 1.228 . S
C232 O234 1.267 1_545 S
O233 C232 1.228 . S
O234 Zn221 1.969 . S
O234 C232 1.267 1_565 S
O235 Zn221 1.965 . S
O235 C239 1.264 . S
O236 Zn220 1.969 . S
O236 C239 1.263 . S
O237 Zn221 2.024 . S
O237 C224 1.058 . S
C238 O227 1.260 . S
C238 O228 1.258 . S
C239 O235 1.264 . S
C239 O236 1.263 . S
Zn240 O246 1.969 . S
Zn240 O247 1.965 . S
Zn240 O251 2.024 . S
Zn240 O256 1.969 . S
Zn241 O248 1.969 . S
Zn241 O254 1.969 . S
Zn241 O255 1.965 . S
Zn241 O257 2.024 . S
C242 O243 1.229 . S
C242 O251 1.058 . S
O243 C242 1.229 . S
C244 O245 1.229 . S
C244 O257 1.058 . S
O245 C244 1.229 . S
O246 Zn240 1.969 . S
O246 C249 1.267 . S
O247 Zn240 1.965 . S
O247 C258 1.260 . S
O248 Zn241 1.969 . S
O248 C258 1.258 . S
C249 O246 1.267 . S
C249 O250 1.228 . S
O250 C249 1.228 . S
O251 Zn240 2.024 . S
O251 C242 1.058 . S
C252 O253 1.228 . S
C252 O254 1.267 . S
O253 C252 1.228 . S
O254 Zn241 1.969 . S
O254 C252 1.267 . S
O255 Zn241 1.965 . S
O255 C259 1.260 . S
O256 Zn240 1.969 . S
O256 C259 1.258 . S
O257 Zn241 2.024 . S
O257 C244 1.058 . S
C258 O247 1.260 . S
C258 O248 1.258 . S
C259 O255 1.260 . S
C259 O256 1.258 . S
Zn260 O266 1.969 . S
Zn260 O267 1.965 . S
Zn260 O271 2.024 . S
Zn260 O276 1.969 . S
Zn261 O268 1.969 . S
Zn261 O274 1.969 . S
Zn261 O275 1.965 . S
Zn261 O277 2.024 . S
C262 O263 1.229 . S
C262 O271 1.058 . S
O263 C262 1.229 . S
C264 O265 1.229 . S
C264 O277 1.058 . S
O265 C264 1.229 . S
O266 Zn260 1.969 . S
O266 C269 1.267 1_565 S
O267 Zn260 1.965 . S
O267 C278 1.264 . S
O268 Zn261 1.969 . S
O268 C278 1.263 . S
C269 O266 1.267 1_545 S
C269 O270 1.228 . S
O270 C269 1.228 . S
O271 Zn260 2.024 . S
O271 C262 1.058 . S
C272 O273 1.228 . S
C272 O274 1.267 . S
O273 C272 1.228 . S
O274 Zn261 1.969 . S
O274 C272 1.267 . S
O275 Zn261 1.965 . S
O275 C279 1.260 . S
O276 Zn260 1.969 . S
O276 C279 1.258 . S
O277 Zn261 2.024 . S
O277 C264 1.058 . S
C278 O267 1.264 . S
C278 O268 1.263 . S
C279 O275 1.260 . S
C279 O276 1.258 . S
Zn280 O286 1.969 . S
Zn280 O287 1.965 . S
Zn280 O291 2.024 . S
Zn280 O296 1.969 . S
Zn281 O288 1.969 . S
Zn281 O294 1.969 . S
Zn281 O295 1.965 . S
Zn281 O297 2.024 . S
C282 O283 1.229 . S
C282 O291 1.058 . S
O283 C282 1.229 . S
C284 O285 1.229 . S
C284 O297 1.058 . S
O285 C284 1.229 . S
O286 Zn280 1.969 . S
O286 C289 1.267 . S
O287 Zn280 1.965 . S
O287 C298 1.260 . S
O288 Zn281 1.969 . S
O288 C298 1.258 . S
C289 O286 1.267 . S
C289 O290 1.228 . S
O290 C289 1.228 . S
O291 Zn280 2.024 . S
O291 C282 1.058 . S
C292 O293 1.228 . S
C292 O294 1.267 . S
O293 C292 1.228 . S
O294 Zn281 1.969 . S
O294 C292 1.267 . S
O295 Zn281 1.965 . S
O295 C299 1.260 . S
O296 Zn280 1.969 . S
O296 C299 1.258 . S
O297 Zn281 2.024 . S
O297 C284 1.058 . S
C298 O287 1.260 . S
C298 O288 1.258 . S
C299 O295 1.260 . S
C299 O296 1.258 . S
Zn300 O306 1.969 . S
Zn300 O307 1.965 . S
Zn300 O311 2.024 . S
Zn300 O316 1.969 . S
Zn301 O308 1.969 . S
Zn301 O314 1.969 . S
Zn301 O315 1.965 . S
Zn301 O317 2.024 . S
C302 O303 1.229 . S
C302 O311 1.058 . S
O303 C302 1.229 . S
C304 O305 1.229 . S
C304 O317 1.058 . S
O305 C304 1.229 . S
O306 Zn300 1.969 . S
O306 C309 1.267 1_545 S
O307 Zn300 1.965 . S
O307 C318 1.264 . S
O308 Zn301 1.969 . S
O308 C318 1.263 . S
C309 O306 1.267 1_565 S
C309 O310 1.228 . S
O310 C309 1.228 . S
O311 Zn300 2.024 . S
O311 C302 1.058 . S
C312 O313 1.228 . S
C312 O314 1.267 . S
O313 C312 1.228 . S
O314 Zn301 1.969 . S
O314 C312 1.267 . S
O315 Zn301 1.965 . S
O315 C319 1.260 . S
O316 Zn300 1.969 . S
O316 C319 1.258 . S
O317 Zn301 2.024 . S
O317 C304 1.058 . S
C318 O307 1.264 . S
C318 O308 1.263 . S
C319 O315 1.260 . S
C319 O316 1.258 . S
C320 C321 1.391 . S
C320 C322 1.394 . S
C320 H336 0.931 . S
C321 C320 1.391 . S
C321 C325 1.376 . S
C322 C320 1.394 . S
C322 C323 1.369 . S
C322 C326 1.531 . S
C323 C322 1.369 . S
C323 C324 1.410 . S
C323 C331 1.503 . S
C324 C323 1.410 . S
C324 C325 1.392 . S
C324 C327 1.511 . S
C325 C321 1.376 . S
C325 C324 1.392 . S
C325 H337 0.929 . S
C326 C322 1.531 . S
C326 H338 0.960 . S
C326 H339 0.962 . S
C326 H340 0.960 . S
C327 C324 1.511 . S
C327 H341 0.961 . S
C327 H342 0.961 . S
C327 H343 0.961 . S
C328 C329 1.370 . S
C328 C330 1.363 . S
C328 H344 0.931 . S
C329 C328 1.370 . S
C329 C333 1.408 . S
C330 C328 1.363 . S
C330 C331 1.370 . S
C330 C334 1.524 . S
C331 C323 1.503 . S
C331 C330 1.370 . S
C331 C332 1.403 . S
C332 C331 1.403 . S
C332 C333 1.404 . S
C332 C335 1.539 . S
C333 C329 1.408 . S
C333 C332 1.404 . S
C333 H345 0.930 . S
C334 C330 1.524 . S
C334 H346 0.956 . S
C334 H347 0.961 . S
C334 H348 0.961 . S
C335 C332 1.539 . S
C335 H349 0.958 . S
C335 H350 0.961 . S
C335 H351 0.960 . S
H336 C320 0.931 . S
H337 C325 0.929 . S
H338 C326 0.960 . S
H339 C326 0.962 . S
H340 C326 0.960 . S
H341 C327 0.961 . S
H342 C327 0.961 . S
H343 C327 0.961 . S
H344 C328 0.931 . S
H345 C333 0.930 . S
H346 C334 0.956 . S
H347 C334 0.961 . S
H348 C334 0.961 . S
H349 C335 0.958 . S
H350 C335 0.961 . S
H351 C335 0.960 . S
C352 C353 1.391 . S
C352 C354 1.394 . S
C352 H368 0.931 . S
C353 C352 1.391 . S
C353 C357 1.376 . S
C354 C352 1.394 . S
C354 C355 1.369 . S
C354 C358 1.531 . S
C355 C354 1.369 . S
C355 C356 1.410 . S
C355 C363 1.503 . S
C356 C355 1.410 . S
C356 C357 1.392 . S
C356 C359 1.511 . S
C357 C353 1.376 . S
C357 C356 1.392 . S
C357 H369 0.929 . S
C358 C354 1.531 . S
C358 H370 0.960 . S
C358 H371 0.962 . S
C358 H372 0.960 . S
C359 C356 1.511 . S
C359 H373 0.961 . S
C359 H374 0.961 . S
C359 H375 0.961 . S
C360 C361 1.370 . S
C360 C362 1.363 . S
C360 H376 0.931 . S
C361 C360 1.370 . S
C361 C365 1.408 . S
C362 C360 1.363 . S
C362 C363 1.370 . S
C362 C366 1.524 . S
C363 C355 1.503 . S
C363 C362 1.370 . S
C363 C364 1.403 . S
C364 C363 1.403 . S
C364 C365 1.404 . S
C364 C367 1.539 . S
C365 C361 1.408 . S
C365 C364 1.404 . S
C365 H377 0.930 . S
C366 C362 1.524 . S
C366 H378 0.956 . S
C366 H379 0.961 . S
C366 H380 0.961 . S
C367 C364 1.539 . S
C367 H381 0.958 . S
C367 H382 0.961 . S
C367 H383 0.960 . S
H368 C352 0.931 . S
H369 C357 0.929 . S
H370 C358 0.960 . S
H371 C358 0.962 . S
H372 C358 0.960 . S
H373 C359 0.961 . S
H374 C359 0.961 . S
H375 C359 0.961 . S
H376 C360 0.931 . S
H377 C365 0.930 . S
H378 C366 0.956 . S
H379 C366 0.961 . S
H380 C366 0.961 . S
H381 C367 0.958 . S
H382 C367 0.961 . S
H383 C367 0.960 . S
C384 C385 1.391 . S
C384 C386 1.394 . S
C384 H400 0.931 . S
C385 C384 1.391 . S
C385 C389 1.376 . S
C386 C384 1.394 . S
C386 C387 1.369 . S
C386 C390 1.531 . S
C387 C386 1.369 . S
C387 C388 1.410 . S
C387 C395 1.503 1_455 S
C388 C387 1.410 . S
C388 C389 1.392 . S
C388 C391 1.511 1_455 S
C389 C385 1.376 . S
C389 C388 1.392 . S
C389 H401 0.929 . S
C390 C386 1.531 . S
C390 H402 0.960 . S
C390 H403 0.962 . S
C390 H404 0.960 . S
C391 C388 1.511 1_655 S
C391 H405 0.961 . S
C391 H406 0.961 . S
C391 H407 0.961 . S
C392 C393 1.370 . S
C392 C394 1.363 . S
C392 H408 0.931 . S
C393 C392 1.370 . S
C393 C397 1.408 . S
C394 C392 1.363 . S
C394 C395 1.370 . S
C394 C398 1.524 . S
C395 C387 1.503 1_655 S
C395 C394 1.370 . S
C395 C396 1.403 . S
C396 C395 1.403 . S
C396 C397 1.404 . S
C396 C399 1.539 . S
C397 C393 1.408 . S
C397 C396 1.404 . S
C397 H409 0.930 . S
C398 C394 1.524 . S
C398 H410 0.956 . S
C398 H411 0.961 . S
C398 H412 0.961 . S
C399 C396 1.539 . S
C399 H413 0.958 1_655 S
C399 H414 0.961 . S
C399 H415 0.960 1_655 S
H400 C384 0.931 . S
H401 C389 0.929 . S
H402 C390 0.960 . S
H403 C390 0.962 . S
H404 C390 0.960 . S
H405 C391 0.961 . S
H406 C391 0.961 . S
H407 C391 0.961 . S
H408 C392 0.931 . S
H409 C397 0.930 . S
H410 C398 0.956 . S
H411 C398 0.961 . S
H412 C398 0.961 . S
H413 C399 0.958 1_455 S
H414 C399 0.961 . S
H415 C399 0.960 1_455 S
C416 C417 1.391 . S
C416 C418 1.394 1_455 S
C416 H432 0.931 1_455 S
C417 C416 1.391 . S
C417 C421 1.376 . S
C418 C416 1.394 1_655 S
C418 C419 1.369 1_655 S
C418 C422 1.531 . S
C419 C418 1.369 1_455 S
C419 C420 1.410 . S
C419 C427 1.503 1_455 S
C420 C419 1.410 . S
C420 C421 1.392 . S
C420 C423 1.511 . S
C421 C417 1.376 . S
C421 C420 1.392 . S
C421 H433 0.929 . S
C422 C418 1.531 . S
C422 H434 0.960 . S
C422 H435 0.962 . S
C422 H436 0.960 . S
C423 C420 1.511 . S
C423 H437 0.961 . S
C423 H438 0.961 . S
C423 H439 0.961 . S
C424 C425 1.370 . S
C424 C426 1.363 . S
C424 H440 0.931 . S
C425 C424 1.370 . S
C425 C429 1.408 . S
C426 C424 1.363 . S
C426 C427 1.370 . S
C426 C430 1.524 . S
C427 C419 1.503 1_655 S
C427 C426 1.370 . S
C427 C428 1.403 . S
C428 C427 1.403 . S
C428 C429 1.404 . S
C428 C431 1.539 . S
C429 C425 1.408 . S
C429 C428 1.404 . S
C429 H441 0.930 . S
C430 C426 1.524 . S
C430 H442 0.956 . S
C430 H443 0.961 1_655 S
C430 H444 0.961 . S
C431 C428 1.539 . S
C431 H445 0.958 . S
C431 H446 0.961 . S
C431 H447 0.960 1_655 S
H432 C416 0.931 1_655 S
H433 C421 0.929 . S
H434 C422 0.960 . S
H435 C422 0.962 . S
H436 C422 0.960 . S
H437 C423 0.961 . S
H438 C423 0.961 . S
H439 C423 0.961 . S
H440 C424 0.931 . S
H441 C429 0.930 . S
H442 C430 0.956 . S
H443 C430 0.961 1_455 S
H444 C430 0.961 . S
H445 C431 0.958 . S
H446 C431 0.961 . S
H447 C431 0.960 1_455 S
C448 C449 1.391 . S
C448 C450 1.394 . S
C448 H464 0.931 . S
C449 C448 1.391 . S
C449 C453 1.376 . S
C450 C448 1.394 . S
C450 C451 1.369 . S
C450 C454 1.531 . S
C451 C450 1.369 . S
C451 C452 1.410 . S
C451 C459 1.503 . S
C452 C451 1.410 . S
C452 C453 1.392 . S
C452 C455 1.511 . S
C453 C449 1.376 . S
C453 C452 1.392 . S
C453 H465 0.929 . S
C454 C450 1.531 . S
C454 H466 0.960 . S
C454 H467 0.962 . S
C454 H468 0.960 . S
C455 C452 1.511 . S
C455 H469 0.961 . S
C455 H470 0.961 . S
C455 H471 0.961 . S
C456 C457 1.370 . S
C456 C458 1.363 . S
C456 H472 0.931 . S
C457 C456 1.370 . S
C457 C461 1.408 . S
C458 C456 1.363 . S
C458 C459 1.370 . S
C458 C462 1.524 . S
C459 C451 1.503 . S
C459 C458 1.370 . S
C459 C460 1.403 . S
C460 C459 1.403 . S
C460 C461 1.404 . S
C460 C463 1.539 . S
C461 C457 1.408 . S
C461 C460 1.404 . S
C461 H473 0.930 . S
C462 C458 1.524 . S
C462 H474 0.956 . S
C462 H475 0.961 . S
C462 H476 0.961 . S
C463 C460 1.539 . S
C463 H477 0.958 . S
C463 H478 0.961 . S
C463 H479 0.960 . S
H464 C448 0.931 . S
H465 C453 0.929 . S
H466 C454 0.960 . S
H467 C454 0.962 . S
H468 C454 0.960 . S
H469 C455 0.961 . S
H470 C455 0.961 . S
H471 C455 0.961 . S
H472 C456 0.931 . S
H473 C461 0.930 . S
H474 C462 0.956 . S
H475 C462 0.961 . S
H476 C462 0.961 . S
H477 C463 0.958 . S
H478 C463 0.961 . S
H479 C463 0.960 . S
C480 C481 1.391 . S
C480 C482 1.394 . S
C480 H496 0.931 . S
C481 C480 1.391 . S
C481 C485 1.376 . S
C482 C480 1.394 . S
C482 C483 1.369 . S
C482 C486 1.531 . S
C483 C482 1.369 . S
C483 C484 1.410 . S
C483 C491 1.503 . S
C484 C483 1.410 . S
C484 C485 1.392 . S
C484 C487 1.511 . S
C485 C481 1.376 . S
C485 C484 1.392 . S
C485 H497 0.929 . S
C486 C482 1.531 . S
C486 H498 0.960 . S
C486 H499 0.962 . S
C486 H500 0.960 . S
C487 C484 1.511 . S
C487 H501 0.961 . S
C487 H502 0.961 . S
C487 H503 0.961 . S
C488 C489 1.370 . S
C488 C490 1.363 . S
C488 H504 0.931 . S
C489 C488 1.370 . S
C489 C493 1.408 . S
C490 C488 1.363 . S
C490 C491 1.370 . S
C490 C494 1.524 . S
C491 C483 1.503 . S
C491 C490 1.370 . S
C491 C492 1.403 . S
C492 C491 1.403 . S
C492 C493 1.404 . S
C492 C495 1.539 . S
C493 C489 1.408 . S
C493 C492 1.404 . S
C493 H505 0.930 . S
C494 C490 1.524 . S
C494 H506 0.956 . S
C494 H507 0.961 . S
C494 H508 0.961 . S
C495 C492 1.539 . S
C495 H509 0.958 . S
C495 H510 0.961 . S
C495 H511 0.960 . S
H496 C480 0.931 . S
H497 C485 0.929 . S
H498 C486 0.960 . S
H499 C486 0.962 . S
H500 C486 0.960 . S
H501 C487 0.961 . S
H502 C487 0.961 . S
H503 C487 0.961 . S
H504 C488 0.931 . S
H505 C493 0.930 . S
H506 C494 0.956 . S
H507 C494 0.961 . S
H508 C494 0.961 . S
H509 C495 0.958 . S
H510 C495 0.961 . S
H511 C495 0.960 . S
C512 C513 1.391 . S
C512 C514 1.394 . S
C512 H528 0.931 . S
C513 C512 1.391 . S
C513 C517 1.376 . S
C514 C512 1.394 . S
C514 C515 1.369 . S
C514 C518 1.531 . S
C515 C514 1.369 . S
C515 C516 1.410 . S
C515 C523 1.503 1_455 S
C516 C515 1.410 . S
C516 C517 1.392 . S
C516 C519 1.511 1_455 S
C517 C513 1.376 . S
C517 C516 1.392 . S
C517 H529 0.929 . S
C518 C514 1.531 . S
C518 H530 0.960 . S
C518 H531 0.962 . S
C518 H532 0.960 . S
C519 C516 1.511 1_655 S
C519 H533 0.961 1_655 S
C519 H534 0.961 . S
C519 H535 0.961 . S
C520 C521 1.370 . S
C520 C522 1.363 . S
C520 H536 0.931 . S
C521 C520 1.370 . S
C521 C525 1.408 . S
C522 C520 1.363 . S
C522 C523 1.370 . S
C522 C526 1.524 1_655 S
C523 C515 1.503 1_655 S
C523 C522 1.370 . S
C523 C524 1.403 . S
C524 C523 1.403 . S
C524 C525 1.404 . S
C524 C527 1.539 . S
C525 C521 1.408 . S
C525 C524 1.404 . S
C525 H537 0.930 . S
C526 C522 1.524 1_455 S
C526 H538 0.956 . S
C526 H539 0.961 . S
C526 H540 0.961 1_455 S
C527 C524 1.539 . S
C527 H541 0.958 . S
C527 H542 0.961 . S
C527 H543 0.960 . S
H528 C512 0.931 . S
H529 C517 0.929 . S
H530 C518 0.960 . S
H531 C518 0.962 . S
H532 C518 0.960 . S
H533 C519 0.961 1_455 S
H534 C519 0.961 . S
H535 C519 0.961 . S
H536 C520 0.931 . S
H537 C525 0.930 . S
H538 C526 0.956 . S
H539 C526 0.961 . S
H540 C526 0.961 1_655 S
H541 C527 0.958 . S
H542 C527 0.961 . S
H543 C527 0.960 . S
C544 C545 1.391 . S
C544 C546 1.394 1_455 S
C544 H560 0.931 1_455 S
C545 C544 1.391 . S
C545 C549 1.376 . S
C546 C544 1.394 1_655 S
C546 C547 1.369 1_655 S
C546 C550 1.531 . S
C547 C546 1.369 1_455 S
C547 C548 1.410 . S
C547 C555 1.503 1_455 S
C548 C547 1.410 . S
C548 C549 1.392 . S
C548 C551 1.511 . S
C549 C545 1.376 . S
C549 C548 1.392 . S
C549 H561 0.929 . S
C550 C546 1.531 . S
C550 H562 0.960 . S
C550 H563 0.962 . S
C550 H564 0.960 . S
C551 C548 1.511 . S
C551 H565 0.961 . S
C551 H566 0.961 . S
C551 H567 0.961 . S
C552 C553 1.370 . S
C552 C554 1.363 . S
C552 H568 0.931 . S
C553 C552 1.370 . S
C553 C557 1.408 . S
C554 C552 1.363 . S
C554 C555 1.370 . S
C554 C558 1.524 1_655 S
C555 C547 1.503 1_655 S
C555 C554 1.370 . S
C555 C556 1.403 . S
C556 C555 1.403 . S
C556 C557 1.404 . S
C556 C559 1.539 . S
C557 C553 1.408 . S
C557 C556 1.404 . S
C557 H569 0.930 . S
C558 C554 1.524 1_455 S
C558 H570 0.956 1_455 S
C558 H571 0.961 . S
C558 H572 0.961 . S
C559 C556 1.539 . S
C559 H573 0.958 . S
C559 H574 0.961 . S
C559 H575 0.960 . S
H560 C544 0.931 1_655 S
H561 C549 0.929 . S
H562 C550 0.960 . S
H563 C550 0.962 . S
H564 C550 0.960 . S
H565 C551 0.961 . S
H566 C551 0.961 . S
H567 C551 0.961 . S
H568 C552 0.931 . S
H569 C557 0.930 . S
H570 C558 0.956 1_655 S
H571 C558 0.961 . S
H572 C558 0.961 . S
H573 C559 0.958 . S
H574 C559 0.961 . S
H575 C559 0.960 . S
C576 C577 1.391 . S
C576 C578 1.394 . S
C576 H592 0.931 . S
C577 C576 1.391 . S
C577 C581 1.376 1_545 S
C578 C576 1.394 . S
C578 C579 1.369 1_545 S
C578 C582 1.531 . S
C579 C578 1.369 1_565 S
C579 C580 1.410 . S
C579 C587 1.503 1_554 S
C580 C579 1.410 . S
C580 C581 1.392 . S
C580 C583 1.511 1_554 S
C581 C577 1.376 1_565 S
C581 C580 1.392 . S
C581 H593 0.929 . S
C582 C578 1.531 . S
C582 H594 0.960 . S
C582 H595 0.962 . S
C582 H596 0.960 . S
C583 C580 1.511 1_556 S
C583 H597 0.961 . S
C583 H598 0.961 . S
C583 H599 0.961 . S
C584 C585 1.370 1_545 S
C584 C586 1.363 . S
C584 H600 0.931 . S
C585 C584 1.370 1_565 S
C585 C589 1.408 . S
C586 C584 1.363 . S
C586 C587 1.370 1_545 S
C586 C590 1.524 . S
C587 C579 1.503 1_556 S
C587 C586 1.370 1_565 S
C587 C588 1.403 . S
C588 C587 1.403 . S
C588 C589 1.404 . S
C588 C591 1.539 1_556 S
C589 C585 1.408 . S
C589 C588 1.404 . S
C589 H601 0.930 . S
C590 C586 1.524 . S
C590 H602 0.956 . S
C590 H603 0.961 . S
C590 H604 0.961 . S
C591 C588 1.539 1_554 S
C591 H605 0.958 . S
C591 H606 0.961 . S
C591 H607 0.960 . S
H592 C576 0.931 . S
H593 C581 0.929 . S
H594 C582 0.960 . S
H595 C582 0.962 . S
H596 C582 0.960 . S
H597 C583 0.961 . S
H598 C583 0.961 . S
H599 C583 0.961 . S
H600 C584 0.931 . S
H601 C589 0.930 . S
H602 C590 0.956 . S
H603 C590 0.961 . S
H604 C590 0.961 . S
H605 C591 0.958 . S
H606 C591 0.961 . S
H607 C591 0.960 . S
C608 C609 1.391 . S
C608 C610 1.394 . S
C608 H624 0.931 . S
C609 C608 1.391 . S
C609 C613 1.376 . S
C610 C608 1.394 . S
C610 C611 1.369 . S
C610 C614 1.531 . S
C611 C610 1.369 . S
C611 C612 1.410 . S
C611 C619 1.503 . S
C612 C611 1.410 . S
C612 C613 1.392 . S
C612 C615 1.511 . S
C613 C609 1.376 . S
C613 C612 1.392 . S
C613 H625 0.929 . S
C614 C610 1.531 . S
C614 H626 0.960 . S
C614 H627 0.962 . S
C614 H628 0.960 . S
C615 C612 1.511 . S
C615 H629 0.961 . S
C615 H630 0.961 . S
C615 H631 0.961 . S
C616 C617 1.370 . S
C616 C618 1.363 . S
C616 H632 0.931 . S
C617 C616 1.370 . S
C617 C621 1.408 . S
C618 C616 1.363 . S
C618 C619 1.370 . S
C618 C622 1.524 . S
C619 C611 1.503 . S
C619 C618 1.370 . S
C619 C620 1.403 . S
C620 C619 1.403 . S
C620 C621 1.404 . S
C620 C623 1.539 . S
C621 C617 1.408 . S
C621 C620 1.404 . S
C621 H633 0.930 . S
C622 C618 1.524 . S
C622 H634 0.956 . S
C622 H635 0.961 . S
C622 H636 0.961 . S
C623 C620 1.539 . S
C623 H637 0.958 . S
C623 H638 0.961 . S
C623 H639 0.960 . S
H624 C608 0.931 . S
H625 C613 0.929 . S
H626 C614 0.960 . S
H627 C614 0.962 . S
H628 C614 0.960 . S
H629 C615 0.961 . S
H630 C615 0.961 . S
H631 C615 0.961 . S
H632 C616 0.931 . S
H633 C621 0.930 . S
H634 C622 0.956 . S
H635 C622 0.961 . S
H636 C622 0.961 . S
H637 C623 0.958 . S
H638 C623 0.961 . S
H639 C623 0.960 . S
C640 C641 1.391 1_545 S
C640 C642 1.394 . S
C640 H656 0.931 . S
C641 C640 1.391 1_565 S
C641 C645 1.376 . S
C642 C640 1.394 . S
C642 C643 1.369 . S
C642 C646 1.531 1_455 S
C643 C642 1.369 . S
C643 C644 1.410 1_545 S
C643 C651 1.503 1_455 S
C644 C643 1.410 1_565 S
C644 C645 1.392 . S
C644 C647 1.511 . S
C645 C641 1.376 . S
C645 C644 1.392 . S
C645 H657 0.929 . S
C646 C642 1.531 1_655 S
C646 H658 0.960 . S
C646 H659 0.962 . S
C646 H660 0.960 1_655 S
C647 C644 1.511 . S
C647 H661 0.961 . S
C647 H662 0.961 . S
C647 H663 0.961 . S
C648 C649 1.370 1_565 S
C648 C650 1.363 . S
C648 H664 0.931 . S
C649 C648 1.370 1_545 S
C649 C653 1.408 . S
C650 C648 1.363 . S
C650 C651 1.370 1_565 S
C650 C654 1.524 . S
C651 C643 1.503 1_655 S
C651 C650 1.370 1_545 S
C651 C652 1.403 . S
C652 C651 1.403 . S
C652 C653 1.404 . S
C652 C655 1.539 1_655 S
C653 C649 1.408 . S
C653 C652 1.404 . S
C653 H665 0.930 . S
C654 C650 1.524 . S
C654 H666 0.956 . S
C654 H667 0.961 . S
C654 H668 0.961 . S
C655 C652 1.539 1_455 S
C655 H669 0.958 . S
C655 H670 0.961 . S
C655 H671 0.960 . S
H656 C640 0.931 . S
H657 C645 0.929 . S
H658 C646 0.960 . S
H659 C646 0.962 . S
H660 C646 0.960 1_455 S
H661 C647 0.961 . S
H662 C647 0.961 . S
H663 C647 0.961 . S
H664 C648 0.931 . S
H665 C653 0.930 . S
H666 C654 0.956 . S
H667 C654 0.961 . S
H668 C654 0.961 . S
H669 C655 0.958 . S
H670 C655 0.961 . S
H671 C655 0.960 . S
C672 C673 1.391 . S
C672 C674 1.394 . S
C672 H688 0.931 . S
C673 C672 1.391 . S
C673 C677 1.376 . S
C674 C672 1.394 . S
C674 C675 1.369 . S
C674 C678 1.531 . S
C675 C674 1.369 . S
C675 C676 1.410 . S
C675 C683 1.503 . S
C676 C675 1.410 . S
C676 C677 1.392 . S
C676 C679 1.511 . S
C677 C673 1.376 . S
C677 C676 1.392 . S
C677 H689 0.929 . S
C678 C674 1.531 . S
C678 H690 0.960 . S
C678 H691 0.962 . S
C678 H692 0.960 . S
C679 C676 1.511 . S
C679 H693 0.961 . S
C679 H694 0.961 . S
C679 H695 0.961 . S
C680 C681 1.370 . S
C680 C682 1.363 . S
C680 H696 0.931 . S
C681 C680 1.370 . S
C681 C685 1.408 . S
C682 C680 1.363 . S
C682 C683 1.370 . S
C682 C686 1.524 . S
C683 C675 1.503 . S
C683 C682 1.370 . S
C683 C684 1.403 . S
C684 C683 1.403 . S
C684 C685 1.404 . S
C684 C687 1.539 . S
C685 C681 1.408 . S
C685 C684 1.404 . S
C685 H697 0.930 . S
C686 C682 1.524 . S
C686 H698 0.956 . S
C686 H699 0.961 . S
C686 H700 0.961 . S
C687 C684 1.539 . S
C687 H701 0.958 . S
C687 H702 0.961 . S
C687 H703 0.960 . S
H688 C672 0.931 . S
H689 C677 0.929 . S
H690 C678 0.960 . S
H691 C678 0.962 . S
H692 C678 0.960 . S
H693 C679 0.961 . S
H694 C679 0.961 . S
H695 C679 0.961 . S
H696 C680 0.931 . S
H697 C685 0.930 . S
H698 C686 0.956 . S
H699 C686 0.961 . S
H700 C686 0.961 . S
H701 C687 0.958 . S
H702 C687 0.961 . S
H703 C687 0.960 . S
C704 C705 1.391 . S
C704 C706 1.394 . S
C704 H720 0.931 . S
C705 C704 1.391 . S
C705 C709 1.376 . S
C706 C704 1.394 . S
C706 C707 1.369 . S
C706 C710 1.531 . S
C707 C706 1.369 . S
C707 C708 1.410 . S
C707 C715 1.503 . S
C708 C707 1.410 . S
C708 C709 1.392 . S
C708 C711 1.511 . S
C709 C705 1.376 . S
C709 C708 1.392 . S
C709 H721 0.929 . S
C710 C706 1.531 . S
C710 H722 0.960 . S
C710 H723 0.962 . S
C710 H724 0.960 . S
C711 C708 1.511 . S
C711 H725 0.961 . S
C711 H726 0.961 . S
C711 H727 0.961 . S
C712 C713 1.370 . S
C712 C714 1.363 . S
C712 H728 0.931 . S
C713 C712 1.370 . S
C713 C717 1.408 . S
C714 C712 1.363 . S
C714 C715 1.370 . S
C714 C718 1.524 . S
C715 C707 1.503 . S
C715 C714 1.370 . S
C715 C716 1.403 . S
C716 C715 1.403 . S
C716 C717 1.404 . S
C716 C719 1.539 . S
C717 C713 1.408 . S
C717 C716 1.404 . S
C717 H729 0.930 . S
C718 C714 1.524 . S
C718 H730 0.956 . S
C718 H731 0.961 . S
C718 H732 0.961 . S
C719 C716 1.539 . S
C719 H733 0.958 . S
C719 H734 0.961 . S
C719 H735 0.960 . S
H720 C704 0.931 . S
H721 C709 0.929 . S
H722 C710 0.960 . S
H723 C710 0.962 . S
H724 C710 0.960 . S
H725 C711 0.961 . S
H726 C711 0.961 . S
H727 C711 0.961 . S
H728 C712 0.931 . S
H729 C717 0.930 . S
H730 C718 0.956 . S
H731 C718 0.961 . S
H732 C718 0.961 . S
H733 C719 0.958 . S
H734 C719 0.961 . S
H735 C719 0.960 . S
C736 C737 1.391 . S
C736 C738 1.394 . S
C736 H752 0.931 . S
C737 C736 1.391 . S
C737 C741 1.376 . S
C738 C736 1.394 . S
C738 C739 1.369 . S
C738 C742 1.531 . S
C739 C738 1.369 . S
C739 C740 1.410 . S
C739 C747 1.503 . S
C740 C739 1.410 . S
C740 C741 1.392 . S
C740 C743 1.511 . S
C741 C737 1.376 . S
C741 C740 1.392 . S
C741 H753 0.929 . S
C742 C738 1.531 . S
C742 H754 0.960 . S
C742 H755 0.962 . S
C742 H756 0.960 . S
C743 C740 1.511 . S
C743 H757 0.961 . S
C743 H758 0.961 . S
C743 H759 0.961 . S
C744 C745 1.370 . S
C744 C746 1.363 . S
C744 H760 0.931 . S
C745 C744 1.370 . S
C745 C749 1.408 . S
C746 C744 1.363 . S
C746 C747 1.370 . S
C746 C750 1.524 . S
C747 C739 1.503 . S
C747 C746 1.370 . S
C747 C748 1.403 . S
C748 C747 1.403 . S
C748 C749 1.404 . S
C748 C751 1.539 . S
C749 C745 1.408 . S
C749 C748 1.404 . S
C749 H761 0.930 . S
C750 C746 1.524 . S
C750 H762 0.956 . S
C750 H763 0.961 . S
C750 H764 0.961 . S
C751 C748 1.539 . S
C751 H765 0.958 . S
C751 H766 0.961 . S
C751 H767 0.960 . S
H752 C736 0.931 . S
H753 C741 0.929 . S
H754 C742 0.960 . S
H755 C742 0.962 . S
H756 C742 0.960 . S
H757 C743 0.961 . S
H758 C743 0.961 . S
H759 C743 0.961 . S
H760 C744 0.931 . S
H761 C749 0.930 . S
H762 C750 0.956 . S
H763 C750 0.961 . S
H764 C750 0.961 . S
H765 C751 0.958 . S
H766 C751 0.961 . S
H767 C751 0.960 . S
C768 C769 1.391 . S
C768 C770 1.394 . S
C768 H784 0.931 . S
C769 C768 1.391 . S
C769 C773 1.376 . S
C770 C768 1.394 . S
C770 C771 1.369 . S
C770 C774 1.536 . S
C771 C770 1.369 . S
C771 C772 1.410 . S
C771 C779 1.503 1_455 S
C772 C771 1.410 . S
C772 C773 1.392 . S
C772 C775 1.511 . S
C773 C769 1.376 . S
C773 C772 1.392 . S
C773 H785 0.929 . S
C774 C770 1.536 . S
C774 H786 0.950 1_455 S
C774 H787 0.966 . S
C774 H788 0.961 . S
C775 C772 1.511 . S
C775 H789 0.961 . S
C775 H790 0.961 . S
C775 H791 0.951 1_455 S
C776 C777 1.370 . S
C776 C778 1.363 . S
C776 H792 0.931 . S
C777 C776 1.370 . S
C777 C781 1.408 . S
C778 C776 1.363 . S
C778 C779 1.370 . S
C778 C782 1.524 1_655 S
C779 C771 1.503 1_655 S
C779 C778 1.370 . S
C779 C780 1.403 . S
C780 C779 1.403 . S
C780 C781 1.404 . S
C780 C783 1.539 . S
C781 C777 1.408 . S
C781 C780 1.404 . S
C781 H793 0.930 . S
C782 C778 1.524 1_455 S
C782 H794 0.956 . S
C782 H795 0.961 . S
C782 H796 0.961 . S
C783 C780 1.539 . S
C783 H797 0.958 . S
C783 H798 0.961 . S
C783 H799 0.960 . S
H784 C768 0.931 . S
H785 C773 0.929 . S
H786 C774 0.950 1_655 S
H787 C774 0.966 . S
H788 C774 0.961 . S
H789 C775 0.961 . S
H790 C775 0.961 . S
H791 C775 0.951 1_655 S
H792 C776 0.931 . S
H793 C781 0.930 . S
H794 C782 0.956 . S
H795 C782 0.961 . S
H796 C782 0.961 . S
H797 C783 0.958 . S
H798 C783 0.961 . S
H799 C783 0.960 . S
C800 C801 1.391 . S
C800 C802 1.394 . S
C800 H816 0.931 . S
C801 C800 1.391 . S
C801 C805 1.376 . S
C802 C800 1.394 . S
C802 C803 1.369 . S
C802 C806 1.531 . S
C803 C802 1.369 . S
C803 C804 1.410 . S
C803 C811 1.503 1_554 S
C804 C803 1.410 . S
C804 C805 1.392 . S
C804 C807 1.511 . S
C805 C801 1.376 . S
C805 C804 1.392 . S
C805 H817 0.929 . S
C806 C802 1.531 . S
C806 H818 0.960 . S
C806 H819 0.962 . S
C806 H820 0.960 . S
C807 C804 1.511 . S
C807 H821 0.961 . S
C807 H822 0.961 1_554 S
C807 H823 0.961 . S
C808 C809 1.370 . S
C808 C810 1.363 . S
C808 H824 0.931 . S
C809 C808 1.370 . S
C809 C813 1.408 . S
C810 C808 1.363 . S
C810 C811 1.370 . S
C810 C814 1.524 . S
C811 C803 1.503 1_556 S
C811 C810 1.370 . S
C811 C812 1.403 1_556 S
C812 C811 1.403 1_554 S
C812 C813 1.404 1_554 S
C812 C815 1.539 . S
C813 C809 1.408 . S
C813 C812 1.404 1_556 S
C813 H825 0.930 . S
C814 C810 1.524 . S
C814 H826 0.956 . S
C814 H827 0.961 . S
C814 H828 0.961 . S
C815 C812 1.539 . S
C815 H829 0.958 . S
C815 H830 0.961 . S
C815 H831 0.960 . S
H816 C800 0.931 . S
H817 C805 0.929 . S
H818 C806 0.960 . S
H819 C806 0.962 . S
H820 C806 0.960 . S
H821 C807 0.961 . S
H822 C807 0.961 1_556 S
H823 C807 0.961 . S
H824 C808 0.931 . S
H825 C813 0.930 . S
H826 C814 0.956 . S
H827 C814 0.961 . S
H828 C814 0.961 . S
H829 C815 0.958 . S
H830 C815 0.961 . S
H831 C815 0.960 . S
C832 C833 1.391 . S
C832 C834 1.394 . S
C832 H848 0.931 . S
C833 C832 1.391 . S
C833 C837 1.376 . S
C834 C832 1.394 . S
C834 C835 1.369 . S
C834 C838 1.531 . S
C835 C834 1.369 . S
C835 C836 1.410 . S
C835 C843 1.503 . S
C836 C835 1.410 . S
C836 C837 1.392 . S
C836 C839 1.511 . S
C837 C833 1.376 . S
C837 C836 1.392 . S
C837 H849 0.929 . S
C838 C834 1.531 . S
C838 H850 0.960 . S
C838 H851 0.962 . S
C838 H852 0.960 . S
C839 C836 1.511 . S
C839 H853 0.961 . S
C839 H854 0.961 . S
C839 H855 0.961 . S
C840 C841 1.370 . S
C840 C842 1.363 . S
C840 H856 0.931 . S
C841 C840 1.370 . S
C841 C845 1.408 . S
C842 C840 1.363 . S
C842 C843 1.370 . S
C842 C846 1.524 . S
C843 C835 1.503 . S
C843 C842 1.370 . S
C843 C844 1.403 . S
C844 C843 1.403 . S
C844 C845 1.404 . S
C844 C847 1.539 . S
C845 C841 1.408 . S
C845 C844 1.404 . S
C845 H857 0.930 . S
C846 C842 1.524 . S
C846 H858 0.956 . S
C846 H859 0.961 . S
C846 H860 0.961 . S
C847 C844 1.539 . S
C847 H861 0.958 . S
C847 H862 0.961 . S
C847 H863 0.960 . S
H848 C832 0.931 . S
H849 C837 0.929 . S
H850 C838 0.960 . S
H851 C838 0.962 . S
H852 C838 0.960 . S
H853 C839 0.961 . S
H854 C839 0.961 . S
H855 C839 0.961 . S
H856 C840 0.931 . S
H857 C845 0.930 . S
H858 C846 0.956 . S
H859 C846 0.961 . S
H860 C846 0.961 . S
H861 C847 0.958 . S
H862 C847 0.961 . S
H863 C847 0.960 . S
C864 C865 1.391 . S
C864 C866 1.394 . S
C864 H880 0.931 . S
C865 C864 1.391 . S
C865 C869 1.376 . S
C866 C864 1.394 . S
C866 C867 1.369 . S
C866 C870 1.531 . S
C867 C866 1.369 . S
C867 C868 1.410 . S
C867 C875 1.503 . S
C868 C867 1.410 . S
C868 C869 1.392 . S
C868 C871 1.511 . S
C869 C865 1.376 . S
C869 C868 1.392 . S
C869 H881 0.929 . S
C870 C866 1.531 . S
C870 H882 0.960 . S
C870 H883 0.962 . S
C870 H884 0.960 . S
C871 C868 1.511 . S
C871 H885 0.961 . S
C871 H886 0.961 . S
C871 H887 0.961 . S
C872 C873 1.370 . S
C872 C874 1.363 . S
C872 H888 0.931 . S
C873 C872 1.370 . S
C873 C877 1.408 . S
C874 C872 1.363 . S
C874 C875 1.370 . S
C874 C878 1.524 . S
C875 C867 1.503 . S
C875 C874 1.370 . S
C875 C876 1.403 . S
C876 C875 1.403 . S
C876 C877 1.404 . S
C876 C879 1.539 . S
C877 C873 1.408 . S
C877 C876 1.404 . S
C877 H889 0.930 . S
C878 C874 1.524 . S
C878 H890 0.956 . S
C878 H891 0.961 . S
C878 H892 0.961 . S
C879 C876 1.539 . S
C879 H893 0.958 . S
C879 H894 0.961 . S
C879 H895 0.960 . S
H880 C864 0.931 . S
H881 C869 0.929 . S
H882 C870 0.960 . S
H883 C870 0.962 . S
H884 C870 0.960 . S
H885 C871 0.961 . S
H886 C871 0.961 . S
H887 C871 0.961 . S
H888 C872 0.931 . S
H889 C877 0.930 . S
H890 C878 0.956 . S
H891 C878 0.961 . S
H892 C878 0.961 . S
H893 C879 0.958 . S
H894 C879 0.961 . S
H895 C879 0.960 . S
C896 C897 1.391 . S
C896 C898 1.394 . S
C896 H912 0.931 . S
C897 C896 1.391 . S
C897 C901 1.376 . S
C898 C896 1.394 . S
C898 C899 1.369 . S
C898 C902 1.531 . S
C899 C898 1.369 . S
C899 C900 1.410 . S
C899 C907 1.503 . S
C900 C899 1.410 . S
C900 C901 1.392 . S
C900 C903 1.511 . S
C901 C897 1.376 . S
C901 C900 1.392 . S
C901 H913 0.929 . S
C902 C898 1.531 . S
C902 H914 0.960 . S
C902 H915 0.962 . S
C902 H916 0.960 . S
C903 C900 1.511 . S
C903 H917 0.961 . S
C903 H918 0.961 . S
C903 H919 0.961 . S
C904 C905 1.370 . S
C904 C906 1.363 . S
C904 H920 0.931 . S
C905 C904 1.370 . S
C905 C909 1.408 . S
C906 C904 1.363 . S
C906 C907 1.370 . S
C906 C910 1.524 . S
C907 C899 1.503 . S
C907 C906 1.370 . S
C907 C908 1.403 . S
C908 C907 1.403 . S
C908 C909 1.404 . S
C908 C911 1.539 . S
C909 C905 1.408 . S
C909 C908 1.404 . S
C909 H921 0.930 . S
C910 C906 1.524 . S
C910 H922 0.956 . S
C910 H923 0.961 . S
C910 H924 0.961 . S
C911 C908 1.539 . S
C911 H925 0.958 . S
C911 H926 0.961 . S
C911 H927 0.960 . S
H912 C896 0.931 . S
H913 C901 0.929 . S
H914 C902 0.960 . S
H915 C902 0.962 . S
H916 C902 0.960 . S
H917 C903 0.961 . S
H918 C903 0.961 . S
H919 C903 0.961 . S
H920 C904 0.931 . S
H921 C909 0.930 . S
H922 C910 0.956 . S
H923 C910 0.961 . S
H924 C910 0.961 . S
H925 C911 0.958 . S
H926 C911 0.961 . S
H927 C911 0.960 . S
C928 C929 1.391 . S
C928 C930 1.394 . S
C928 H944 0.931 . S
C929 C928 1.391 . S
C929 C933 1.376 . S
C930 C928 1.394 . S
C930 C931 1.369 . S
C930 C934 1.531 . S
C931 C930 1.369 . S
C931 C932 1.410 . S
C931 C939 1.503 . S
C932 C931 1.410 . S
C932 C933 1.392 . S
C932 C935 1.511 . S
C933 C929 1.376 . S
C933 C932 1.392 . S
C933 H945 0.929 . S
C934 C930 1.531 . S
C934 H946 0.960 . S
C934 H947 0.962 . S
C934 H948 0.960 . S
C935 C932 1.511 . S
C935 H949 0.961 . S
C935 H950 0.961 . S
C935 H951 0.961 . S
C936 C937 1.370 . S
C936 C938 1.363 . S
C936 H952 0.931 . S
C937 C936 1.370 . S
C937 C941 1.408 . S
C938 C936 1.363 . S
C938 C939 1.370 . S
C938 C942 1.524 . S
C939 C931 1.503 . S
C939 C938 1.370 . S
C939 C940 1.403 . S
C940 C939 1.403 . S
C940 C941 1.404 . S
C940 C943 1.539 . S
C941 C937 1.408 . S
C941 C940 1.404 . S
C941 H953 0.930 . S
C942 C938 1.524 . S
C942 H954 0.956 . S
C942 H955 0.961 . S
C942 H956 0.961 . S
C943 C940 1.539 . S
C943 H957 0.958 . S
C943 H958 0.961 . S
C943 H959 0.960 . S
H944 C928 0.931 . S
H945 C933 0.929 . S
H946 C934 0.960 . S
H947 C934 0.962 . S
H948 C934 0.960 . S
H949 C935 0.961 . S
H950 C935 0.961 . S
H951 C935 0.961 . S
H952 C936 0.931 . S
H953 C941 0.930 . S
H954 C942 0.956 . S
H955 C942 0.961 . S
H956 C942 0.961 . S
H957 C943 0.958 . S
H958 C943 0.961 . S
H959 C943 0.960 . S
C960 C961 1.391 . S
C960 C962 1.394 . S
C960 H976 0.931 . S
C961 C960 1.391 . S
C961 C965 1.376 . S
C962 C960 1.394 . S
C962 C963 1.369 . S
C962 C966 1.531 . S
C963 C962 1.369 . S
C963 C964 1.410 . S
C963 C971 1.503 . S
C964 C963 1.410 . S
C964 C965 1.392 . S
C964 C967 1.511 . S
C965 C961 1.376 . S
C965 C964 1.392 . S
C965 H977 0.929 . S
C966 C962 1.531 . S
C966 H978 0.960 . S
C966 H979 0.962 . S
C966 H980 0.960 . S
C967 C964 1.511 . S
C967 H981 0.961 . S
C967 H982 0.961 . S
C967 H983 0.961 . S
C968 C969 1.370 . S
C968 C970 1.363 . S
C968 H984 0.931 . S
C969 C968 1.370 . S
C969 C973 1.408 . S
C970 C968 1.363 . S
C970 C971 1.370 . S
C970 C974 1.524 . S
C971 C963 1.503 . S
C971 C970 1.370 . S
C971 C972 1.403 . S
C972 C971 1.403 . S
C972 C973 1.404 . S
C972 C975 1.539 . S
C973 C969 1.408 . S
C973 C972 1.404 . S
C973 H985 0.930 . S
C974 C970 1.524 . S
C974 H986 0.956 . S
C974 H987 0.961 . S
C974 H988 0.961 . S
C975 C972 1.539 . S
C975 H989 0.958 . S
C975 H990 0.961 . S
C975 H991 0.960 . S
H976 C960 0.931 . S
H977 C965 0.929 . S
H978 C966 0.960 . S
H979 C966 0.962 . S
H980 C966 0.960 . S
H981 C967 0.961 . S
H982 C967 0.961 . S
H983 C967 0.961 . S
H984 C968 0.931 . S
H985 C973 0.930 . S
H986 C974 0.956 . S
H987 C974 0.961 . S
H988 C974 0.961 . S
H989 C975 0.958 . S
H990 C975 0.961 . S
H991 C975 0.960 . S
C992 C993 1.391 . S
C992 C994 1.394 . S
C992 H1008 0.931 . S
C993 C992 1.391 . S
C993 C997 1.376 . S
C994 C992 1.394 . S
C994 C995 1.369 . S
C994 C998 1.531 . S
C995 C994 1.369 . S
C995 C996 1.410 . S
C995 C1003 1.503 . S
C996 C995 1.410 . S
C996 C997 1.392 . S
C996 C999 1.511 . S
C997 C993 1.376 . S
C997 C996 1.392 . S
C997 H1009 0.929 . S
C998 C994 1.531 . S
C998 H1010 0.960 . S
C998 H1011 0.962 . S
C998 H1012 0.960 . S
C999 C996 1.511 . S
C999 H1013 0.961 . S
C999 H1014 0.961 . S
C999 H1015 0.961 . S
C1000 C1001 1.370 . S
C1000 C1002 1.363 . S
C1000 H1016 0.931 . S
C1001 C1000 1.370 . S
C1001 C1005 1.408 . S
C1002 C1000 1.363 . S
C1002 C1003 1.370 . S
C1002 C1006 1.524 . S
C1003 C995 1.503 . S
C1003 C1002 1.370 . S
C1003 C1004 1.403 . S
C1004 C1003 1.403 . S
C1004 C1005 1.404 . S
C1004 C1007 1.539 . S
C1005 C1001 1.408 . S
C1005 C1004 1.404 . S
C1005 H1017 0.930 . S
C1006 C1002 1.524 . S
C1006 H1018 0.956 . S
C1006 H1019 0.961 . S
C1006 H1020 0.961 . S
C1007 C1004 1.539 . S
C1007 H1021 0.958 . S
C1007 H1022 0.961 . S
C1007 H1023 0.960 . S
H1008 C992 0.931 . S
H1009 C997 0.929 . S
H1010 C998 0.960 . S
H1011 C998 0.962 . S
H1012 C998 0.960 . S
H1013 C999 0.961 . S
H1014 C999 0.961 . S
H1015 C999 0.961 . S
H1016 C1000 0.931 . S
H1017 C1005 0.930 . S
H1018 C1006 0.956 . S
H1019 C1006 0.961 . S
H1020 C1006 0.961 . S
H1021 C1007 0.958 . S
H1022 C1007 0.961 . S
H1023 C1007 0.960 . S
C1024 C1025 1.391 . S
C1024 C1026 1.394 . S
C1024 H1040 0.931 . S
C1025 C1024 1.391 . S
C1025 C1029 1.376 . S
C1026 C1024 1.394 . S
C1026 C1027 1.369 . S
C1026 C1030 1.531 . S
C1027 C1026 1.369 . S
C1027 C1028 1.410 . S
C1027 C1035 1.503 . S
C1028 C1027 1.410 . S
C1028 C1029 1.392 . S
C1028 C1031 1.511 . S
C1029 C1025 1.376 . S
C1029 C1028 1.392 . S
C1029 H1041 0.929 . S
C1030 C1026 1.531 . S
C1030 H1042 0.960 . S
C1030 H1043 0.962 . S
C1030 H1044 0.960 . S
C1031 C1028 1.511 . S
C1031 H1045 0.961 . S
C1031 H1046 0.961 . S
C1031 H1047 0.961 . S
C1032 C1033 1.370 . S
C1032 C1034 1.363 . S
C1032 H1048 0.931 . S
C1033 C1032 1.370 . S
C1033 C1037 1.408 . S
C1034 C1032 1.363 . S
C1034 C1035 1.370 . S
C1034 C1038 1.524 . S
C1035 C1027 1.503 . S
C1035 C1034 1.370 . S
C1035 C1036 1.403 . S
C1036 C1035 1.403 . S
C1036 C1037 1.404 . S
C1036 C1039 1.539 . S
C1037 C1033 1.408 . S
C1037 C1036 1.404 . S
C1037 H1049 0.930 . S
C1038 C1034 1.524 . S
C1038 H1050 0.956 . S
C1038 H1051 0.961 . S
C1038 H1052 0.961 . S
C1039 C1036 1.539 . S
C1039 H1053 0.958 . S
C1039 H1054 0.961 . S
C1039 H1055 0.960 . S
H1040 C1024 0.931 . S
H1041 C1029 0.929 . S
H1042 C1030 0.960 . S
H1043 C1030 0.962 . S
H1044 C1030 0.960 . S
H1045 C1031 0.961 . S
H1046 C1031 0.961 . S
H1047 C1031 0.961 . S
H1048 C1032 0.931 . S
H1049 C1037 0.930 . S
H1050 C1038 0.956 . S
H1051 C1038 0.961 . S
H1052 C1038 0.961 . S
H1053 C1039 0.958 . S
H1054 C1039 0.961 . S
H1055 C1039 0.960 . S
C1056 C1057 1.391 . S
C1056 C1058 1.394 . S
C1056 H1072 0.931 . S
C1057 C1056 1.391 . S
C1057 C1061 1.376 . S
C1058 C1056 1.394 . S
C1058 C1059 1.369 . S
C1058 C1062 1.531 . S
C1059 C1058 1.369 . S
C1059 C1060 1.410 . S
C1059 C1067 1.503 . S
C1060 C1059 1.410 . S
C1060 C1061 1.392 . S
C1060 C1063 1.511 . S
C1061 C1057 1.376 . S
C1061 C1060 1.392 . S
C1061 H1073 0.929 . S
C1062 C1058 1.531 . S
C1062 H1074 0.960 . S
C1062 H1075 0.962 . S
C1062 H1076 0.960 . S
C1063 C1060 1.511 . S
C1063 H1077 0.961 . S
C1063 H1078 0.961 . S
C1063 H1079 0.961 . S
C1064 C1065 1.370 . S
C1064 C1066 1.363 . S
C1064 H1080 0.931 . S
C1065 C1064 1.370 . S
C1065 C1069 1.408 . S
C1066 C1064 1.363 . S
C1066 C1067 1.370 . S
C1066 C1070 1.524 . S
C1067 C1059 1.503 . S
C1067 C1066 1.370 . S
C1067 C1068 1.403 . S
C1068 C1067 1.403 . S
C1068 C1069 1.404 . S
C1068 C1071 1.539 . S
C1069 C1065 1.408 . S
C1069 C1068 1.404 . S
C1069 H1081 0.930 . S
C1070 C1066 1.524 . S
C1070 H1082 0.956 . S
C1070 H1083 0.961 . S
C1070 H1084 0.961 . S
C1071 C1068 1.539 . S
C1071 H1085 0.958 . S
C1071 H1086 0.961 . S
C1071 H1087 0.960 . S
H1072 C1056 0.931 . S
H1073 C1061 0.929 . S
H1074 C1062 0.960 . S
H1075 C1062 0.962 . S
H1076 C1062 0.960 . S
H1077 C1063 0.961 . S
H1078 C1063 0.961 . S
H1079 C1063 0.961 . S
H1080 C1064 0.931 . S
H1081 C1069 0.930 . S
H1082 C1070 0.956 . S
H1083 C1070 0.961 . S
H1084 C1070 0.961 . S
H1085 C1071 0.958 . S
H1086 C1071 0.961 . S
H1087 C1071 0.960 . S
C1088 C1089 1.391 . S
C1088 C1090 1.394 . S
C1088 H1104 0.931 . S
C1089 C1088 1.391 . S
C1089 C1093 1.376 . S
C1090 C1088 1.394 . S
C1090 C1091 1.369 . S
C1090 C1094 1.531 . S
C1091 C1090 1.369 . S
C1091 C1092 1.410 . S
C1091 C1099 1.503 . S
C1092 C1091 1.410 . S
C1092 C1093 1.392 . S
C1092 C1095 1.511 . S
C1093 C1089 1.376 . S
C1093 C1092 1.392 . S
C1093 H1105 0.929 . S
C1094 C1090 1.531 . S
C1094 H1106 0.960 . S
C1094 H1107 0.962 . S
C1094 H1108 0.960 . S
C1095 C1092 1.511 . S
C1095 H1109 0.961 . S
C1095 H1110 0.961 . S
C1095 H1111 0.961 . S
C1096 C1097 1.370 . S
C1096 C1098 1.363 . S
C1096 H1112 0.931 . S
C1097 C1096 1.370 . S
C1097 C1101 1.408 . S
C1098 C1096 1.363 . S
C1098 C1099 1.370 . S
C1098 C1102 1.524 . S
C1099 C1091 1.503 . S
C1099 C1098 1.370 . S
C1099 C1100 1.403 . S
C1100 C1099 1.403 . S
C1100 C1101 1.404 . S
C1100 C1103 1.539 . S
C1101 C1097 1.408 . S
C1101 C1100 1.404 . S
C1101 H1113 0.930 . S
C1102 C1098 1.524 . S
C1102 H1114 0.956 . S
C1102 H1115 0.961 . S
C1102 H1116 0.961 . S
C1103 C1100 1.539 . S
C1103 H1117 0.958 . S
C1103 H1118 0.961 . S
C1103 H1119 0.960 . S
H1104 C1088 0.931 . S
H1105 C1093 0.929 . S
H1106 C1094 0.960 . S
H1107 C1094 0.962 . S
H1108 C1094 0.960 . S
H1109 C1095 0.961 . S
H1110 C1095 0.961 . S
H1111 C1095 0.961 . S
H1112 C1096 0.931 . S
H1113 C1101 0.930 . S
H1114 C1102 0.956 . S
H1115 C1102 0.961 . S
H1116 C1102 0.961 . S
H1117 C1103 0.958 . S
H1118 C1103 0.961 . S
H1119 C1103 0.960 . S
C1120 C1121 1.391 . S
C1120 C1122 1.394 . S
C1120 H1136 0.931 . S
C1121 C1120 1.391 . S
C1121 C1125 1.376 . S
C1122 C1120 1.394 . S
C1122 C1123 1.369 . S
C1122 C1126 1.531 . S
C1123 C1122 1.369 . S
C1123 C1124 1.410 . S
C1123 C1131 1.503 . S
C1124 C1123 1.410 . S
C1124 C1125 1.392 . S
C1124 C1127 1.511 . S
C1125 C1121 1.376 . S
C1125 C1124 1.392 . S
C1125 H1137 0.929 . S
C1126 C1122 1.531 . S
C1126 H1138 0.960 . S
C1126 H1139 0.962 . S
C1126 H1140 0.960 . S
C1127 C1124 1.511 . S
C1127 H1141 0.961 . S
C1127 H1142 0.961 . S
C1127 H1143 0.961 . S
C1128 C1129 1.370 . S
C1128 C1130 1.363 . S
C1128 H1144 0.931 1_565 S
C1129 C1128 1.370 . S
C1129 C1133 1.408 . S
C1130 C1128 1.363 . S
C1130 C1131 1.370 . S
C1130 C1134 1.524 1_565 S
C1131 C1123 1.503 . S
C1131 C1130 1.370 . S
C1131 C1132 1.403 . S
C1132 C1131 1.403 . S
C1132 C1133 1.404 . S
C1132 C1135 1.539 . S
C1133 C1129 1.408 . S
C1133 C1132 1.404 . S
C1133 H1145 0.930 1_655 S
C1134 C1130 1.524 1_545 S
C1134 H1146 0.956 . S
C1134 H1147 0.961 1_545 S
C1134 H1148 0.961 . S
C1135 C1132 1.539 . S
C1135 H1149 0.958 . S
C1135 H1150 0.961 . S
C1135 H1151 0.960 . S
H1136 C1120 0.931 . S
H1137 C1125 0.929 . S
H1138 C1126 0.960 . S
H1139 C1126 0.962 . S
H1140 C1126 0.960 . S
H1141 C1127 0.961 . S
H1142 C1127 0.961 . S
H1143 C1127 0.961 . S
H1144 C1128 0.931 1_545 S
H1145 C1133 0.930 1_455 S
H1146 C1134 0.956 . S
H1147 C1134 0.961 1_565 S
H1148 C1134 0.961 . S
H1149 C1135 0.958 . S
H1150 C1135 0.961 . S
H1151 C1135 0.960 . S
C1152 C1153 1.391 . S
C1152 C1154 1.394 . S
C1152 H1168 0.931 . S
C1153 C1152 1.391 . S
C1153 C1157 1.376 . S
C1154 C1152 1.394 . S
C1154 C1155 1.369 . S
C1154 C1158 1.531 . S
C1155 C1154 1.369 . S
C1155 C1156 1.410 . S
C1155 C1163 1.503 . S
C1156 C1155 1.410 . S
C1156 C1157 1.392 . S
C1156 C1159 1.511 . S
C1157 C1153 1.376 . S
C1157 C1156 1.392 . S
C1157 H1169 0.929 . S
C1158 C1154 1.531 . S
C1158 H1170 0.960 . S
C1158 H1171 0.962 . S
C1158 H1172 0.960 . S
C1159 C1156 1.511 . S
C1159 H1173 0.961 . S
C1159 H1174 0.961 . S
C1159 H1175 0.961 . S
C1160 C1161 1.370 . S
C1160 C1162 1.363 . S
C1160 H1176 0.931 . S
C1161 C1160 1.370 . S
C1161 C1165 1.408 . S
C1162 C1160 1.363 . S
C1162 C1163 1.370 . S
C1162 C1166 1.524 . S
C1163 C1155 1.503 . S
C1163 C1162 1.370 . S
C1163 C1164 1.403 . S
C1164 C1163 1.403 . S
C1164 C1165 1.404 . S
C1164 C1167 1.539 . S
C1165 C1161 1.408 . S
C1165 C1164 1.404 . S
C1165 H1177 0.930 . S
C1166 C1162 1.524 . S
C1166 H1178 0.956 . S
C1166 H1179 0.961 . S
C1166 H1180 0.961 . S
C1167 C1164 1.539 . S
C1167 H1181 0.958 . S
C1167 H1182 0.961 . S
C1167 H1183 0.960 . S
H1168 C1152 0.931 . S
H1169 C1157 0.929 . S
H1170 C1158 0.960 . S
H1171 C1158 0.962 . S
H1172 C1158 0.960 . S
H1173 C1159 0.961 . S
H1174 C1159 0.961 . S
H1175 C1159 0.961 . S
H1176 C1160 0.931 . S
H1177 C1165 0.930 . S
H1178 C1166 0.956 . S
H1179 C1166 0.961 . S
H1180 C1166 0.961 . S
H1181 C1167 0.958 . S
H1182 C1167 0.961 . S
H1183 C1167 0.960 . S
C1184 C1185 1.391 . S
C1184 C1186 1.394 . S
C1184 H1200 0.931 . S
C1185 C1184 1.391 . S
C1185 C1189 1.376 . S
C1186 C1184 1.394 . S
C1186 C1187 1.369 . S
C1186 C1190 1.531 . S
C1187 C1186 1.369 . S
C1187 C1188 1.410 . S
C1187 C1195 1.503 . S
C1188 C1187 1.410 . S
C1188 C1189 1.392 . S
C1188 C1191 1.511 1_545 S
C1189 C1185 1.376 . S
C1189 C1188 1.392 . S
C1189 H1201 0.929 . S
C1190 C1186 1.531 . S
C1190 H1202 0.960 . S
C1190 H1203 0.962 . S
C1190 H1204 0.960 . S
C1191 C1188 1.511 1_565 S
C1191 H1205 0.961 . S
C1191 H1206 0.961 . S
C1191 H1207 0.961 . S
C1192 C1193 1.370 . S
C1192 C1194 1.363 . S
C1192 H1208 0.931 . S
C1193 C1192 1.370 . S
C1193 C1197 1.408 . S
C1194 C1192 1.363 . S
C1194 C1195 1.370 . S
C1194 C1198 1.524 . S
C1195 C1187 1.503 . S
C1195 C1194 1.370 . S
C1195 C1196 1.403 . S
C1196 C1195 1.403 . S
C1196 C1197 1.404 . S
C1196 C1199 1.539 . S
C1197 C1193 1.408 . S
C1197 C1196 1.404 . S
C1197 H1209 0.930 . S
C1198 C1194 1.524 . S
C1198 H1210 0.956 . S
C1198 H1211 0.961 . S
C1198 H1212 0.961 . S
C1199 C1196 1.539 . S
C1199 H1213 0.958 . S
C1199 H1214 0.961 . S
C1199 H1215 0.960 . S
H1200 C1184 0.931 . S
H1201 C1189 0.929 . S
H1202 C1190 0.960 . S
H1203 C1190 0.962 . S
H1204 C1190 0.960 . S
H1205 C1191 0.961 . S
H1206 C1191 0.961 . S
H1207 C1191 0.961 . S
H1208 C1192 0.931 . S
H1209 C1197 0.930 . S
H1210 C1198 0.956 . S
H1211 C1198 0.961 . S
H1212 C1198 0.961 . S
H1213 C1199 0.958 . S
H1214 C1199 0.961 . S
H1215 C1199 0.960 . S
C1216 C1217 1.391 . S
C1216 C1218 1.394 . S
C1216 H1232 0.931 . S
C1217 C1216 1.391 . S
C1217 C1221 1.376 . S
C1218 C1216 1.394 . S
C1218 C1219 1.369 . S
C1218 C1222 1.531 . S
C1219 C1218 1.369 . S
C1219 C1220 1.410 . S
C1219 C1227 1.503 . S
C1220 C1219 1.410 . S
C1220 C1221 1.392 . S
C1220 C1223 1.511 . S
C1221 C1217 1.376 . S
C1221 C1220 1.392 . S
C1221 H1233 0.929 . S
C1222 C1218 1.531 . S
C1222 H1234 0.960 . S
C1222 H1235 0.962 . S
C1222 H1236 0.960 . S
C1223 C1220 1.511 . S
C1223 H1237 0.961 . S
C1223 H1238 0.961 . S
C1223 H1239 0.961 . S
C1224 C1225 1.370 . S
C1224 C1226 1.363 . S
C1224 H1240 0.931 . S
C1225 C1224 1.370 . S
C1225 C1229 1.408 . S
C1226 C1224 1.363 . S
C1226 C1227 1.370 . S
C1226 C1230 1.524 . S
C1227 C1219 1.503 . S
C1227 C1226 1.370 . S
C1227 C1228 1.403 . S
C1228 C1227 1.403 . S
C1228 C1229 1.404 . S
C1228 C1231 1.539 . S
C1229 C1225 1.408 . S
C1229 C1228 1.404 . S
C1229 H1241 0.930 . S
C1230 C1226 1.524 . S
C1230 H1242 0.956 . S
C1230 H1243 0.961 . S
C1230 H1244 0.961 . S
C1231 C1228 1.539 . S
C1231 H1245 0.958 . S
C1231 H1246 0.961 . S
C1231 H1247 0.960 . S
H1232 C1216 0.931 . S
H1233 C1221 0.929 . S
H1234 C1222 0.960 . S
H1235 C1222 0.962 . S
H1236 C1222 0.960 . S
H1237 C1223 0.961 . S
H1238 C1223 0.961 . S
H1239 C1223 0.961 . S
H1240 C1224 0.931 . S
H1241 C1229 0.930 . S
H1242 C1230 0.956 . S
H1243 C1230 0.961 . S
H1244 C1230 0.961 . S
H1245 C1231 0.958 . S
H1246 C1231 0.961 . S
H1247 C1231 0.960 . S
C1248 C1249 1.391 . S
C1248 C1250 1.394 . S
C1248 H1264 0.931 . S
C1249 C1248 1.391 . S
C1249 C1253 1.376 . S
C1250 C1248 1.394 . S
C1250 C1251 1.369 . S
C1250 C1254 1.531 . S
C1251 C1250 1.369 . S
C1251 C1252 1.410 . S
C1251 C1259 1.503 . S
C1252 C1251 1.410 . S
C1252 C1253 1.392 . S
C1252 C1255 1.511 . S
C1253 C1249 1.376 . S
C1253 C1252 1.392 . S
C1253 H1265 0.929 . S
C1254 C1250 1.531 . S
C1254 H1266 0.960 . S
C1254 H1267 0.962 . S
C1254 H1268 0.960 . S
C1255 C1252 1.511 . S
C1255 H1269 0.961 . S
C1255 H1270 0.961 . S
C1255 H1271 0.961 . S
C1256 C1257 1.370 . S
C1256 C1258 1.363 . S
C1256 H1272 0.931 . S
C1257 C1256 1.370 . S
C1257 C1261 1.408 . S
C1258 C1256 1.363 . S
C1258 C1259 1.370 . S
C1258 C1262 1.524 . S
C1259 C1251 1.503 . S
C1259 C1258 1.370 . S
C1259 C1260 1.403 . S
C1260 C1259 1.403 . S
C1260 C1261 1.404 . S
C1260 C1263 1.539 1_545 S
C1261 C1257 1.408 . S
C1261 C1260 1.404 . S
C1261 H1273 0.930 . S
C1262 C1258 1.524 . S
C1262 H1274 0.956 . S
C1262 H1275 0.961 . S
C1262 H1276 0.961 . S
C1263 C1260 1.539 1_565 S
C1263 H1277 0.958 . S
C1263 H1278 0.961 . S
C1263 H1279 0.960 . S
H1264 C1248 0.931 . S
H1265 C1253 0.929 . S
H1266 C1254 0.960 . S
H1267 C1254 0.962 . S
H1268 C1254 0.960 . S
H1269 C1255 0.961 . S
H1270 C1255 0.961 . S
H1271 C1255 0.961 . S
H1272 C1256 0.931 . S
H1273 C1261 0.930 . S
H1274 C1262 0.956 . S
H1275 C1262 0.961 . S
H1276 C1262 0.961 . S
H1277 C1263 0.958 . S
H1278 C1263 0.961 . S
H1279 C1263 0.960 . S
C1280 C1281 1.391 . S
C1280 C1282 1.394 . S
C1280 H1296 0.931 . S
C1281 C1280 1.391 . S
C1281 C1285 1.376 . S
C1282 C1280 1.394 . S
C1282 C1283 1.369 . S
C1282 C1286 1.531 . S
C1283 C1282 1.369 . S
C1283 C1284 1.410 . S
C1283 C1291 1.503 . S
C1284 C1283 1.410 . S
C1284 C1285 1.392 . S
C1284 C1287 1.511 . S
C1285 C1281 1.376 . S
C1285 C1284 1.392 . S
C1285 H1297 0.929 . S
C1286 C1282 1.531 . S
C1286 H1298 0.960 . S
C1286 H1299 0.962 . S
C1286 H1300 0.960 . S
C1287 C1284 1.511 . S
C1287 H1301 0.961 . S
C1287 H1302 0.961 . S
C1287 H1303 0.961 . S
C1288 C1289 1.370 . S
C1288 C1290 1.363 . S
C1288 H1304 0.931 . S
C1289 C1288 1.370 . S
C1289 C1293 1.408 . S
C1290 C1288 1.363 . S
C1290 C1291 1.370 . S
C1290 C1294 1.524 . S
C1291 C1283 1.503 . S
C1291 C1290 1.370 . S
C1291 C1292 1.403 . S
C1292 C1291 1.403 . S
C1292 C1293 1.404 . S
C1292 C1295 1.539 . S
C1293 C1289 1.408 . S
C1293 C1292 1.404 . S
C1293 H1305 0.930 . S
C1294 C1290 1.524 . S
C1294 H1306 0.956 . S
C1294 H1307 0.961 . S
C1294 H1308 0.961 . S
C1295 C1292 1.539 . S
C1295 H1309 0.958 . S
C1295 H1310 0.961 . S
C1295 H1311 0.960 . S
H1296 C1280 0.931 . S
H1297 C1285 0.929 . S
H1298 C1286 0.960 . S
H1299 C1286 0.962 . S
H1300 C1286 0.960 . S
H1301 C1287 0.961 . S
H1302 C1287 0.961 . S
H1303 C1287 0.961 . S
H1304 C1288 0.931 . S
H1305 C1293 0.930 . S
H1306 C1294 0.956 . S
H1307 C1294 0.961 . S
H1308 C1294 0.961 . S
H1309 C1295 0.958 . S
H1310 C1295 0.961 . S
H1311 C1295 0.960 . S
C1312 C1313 1.391 . S
C1312 C1314 1.394 . S
C1312 H1328 0.931 . S
C1313 C1312 1.391 . S
C1313 C1317 1.376 . S
C1314 C1312 1.394 . S
C1314 C1315 1.369 . S
C1314 C1318 1.531 . S
C1315 C1314 1.369 . S
C1315 C1316 1.410 . S
C1315 C1323 1.503 . S
C1316 C1315 1.410 . S
C1316 C1317 1.392 . S
C1316 C1319 1.511 1_565 S
C1317 C1313 1.376 . S
C1317 C1316 1.392 . S
C1317 H1329 0.929 1_565 S
C1318 C1314 1.531 . S
C1318 H1330 0.960 . S
C1318 H1331 0.962 . S
C1318 H1332 0.960 . S
C1319 C1316 1.511 1_545 S
C1319 H1333 0.961 . S
C1319 H1334 0.961 . S
C1319 H1335 0.961 . S
C1320 C1321 1.370 . S
C1320 C1322 1.363 . S
C1320 H1336 0.931 . S
C1321 C1320 1.370 . S
C1321 C1325 1.408 . S
C1322 C1320 1.363 . S
C1322 C1323 1.370 . S
C1322 C1326 1.524 . S
C1323 C1315 1.503 . S
C1323 C1322 1.370 . S
C1323 C1324 1.403 . S
C1324 C1323 1.403 . S
C1324 C1325 1.404 . S
C1324 C1327 1.539 . S
C1325 C1321 1.408 . S
C1325 C1324 1.404 . S
C1325 H1337 0.930 . S
C1326 C1322 1.524 . S
C1326 H1338 0.956 . S
C1326 H1339 0.961 . S
C1326 H1340 0.961 . S
C1327 C1324 1.539 . S
C1327 H1341 0.958 . S
C1327 H1342 0.961 . S
C1327 H1343 0.960 . S
H1328 C1312 0.931 . S
H1329 C1317 0.929 1_545 S
H1330 C1318 0.960 . S
H1331 C1318 0.962 . S
H1332 C1318 0.960 . S
H1333 C1319 0.961 . S
H1334 C1319 0.961 . S
H1335 C1319 0.961 . S
H1336 C1320 0.931 . S
H1337 C1325 0.930 . S
H1338 C1326 0.956 . S
H1339 C1326 0.961 . S
H1340 C1326 0.961 . S
H1341 C1327 0.958 . S
H1342 C1327 0.961 . S
H1343 C1327 0.960 . S
C1344 C1345 1.391 . S
C1344 C1346 1.394 . S
C1344 H1360 0.931 . S
C1345 C1344 1.391 . S
C1345 C1349 1.376 . S
C1346 C1344 1.394 . S
C1346 C1347 1.369 . S
C1346 C1350 1.531 . S
C1347 C1346 1.369 . S
C1347 C1348 1.410 . S
C1347 C1355 1.503 . S
C1348 C1347 1.410 . S
C1348 C1349 1.392 . S
C1348 C1351 1.511 . S
C1349 C1345 1.376 . S
C1349 C1348 1.392 . S
C1349 H1361 0.929 1_556 S
C1350 C1346 1.531 . S
C1350 H1362 0.960 . S
C1350 H1363 0.962 . S
C1350 H1364 0.960 . S
C1351 C1348 1.511 . S
C1351 H1365 0.961 . S
C1351 H1366 0.961 . S
C1351 H1367 0.961 . S
C1352 C1353 1.370 . S
C1352 C1354 1.363 . S
C1352 H1368 0.931 . S
C1353 C1352 1.370 . S
C1353 C1357 1.408 . S
C1354 C1352 1.363 . S
C1354 C1355 1.370 . S
C1354 C1358 1.524 . S
C1355 C1347 1.503 . S
C1355 C1354 1.370 . S
C1355 C1356 1.403 . S
C1356 C1355 1.403 . S
C1356 C1357 1.404 . S
C1356 C1359 1.539 . S
C1357 C1353 1.408 . S
C1357 C1356 1.404 . S
C1357 H1369 0.930 . S
C1358 C1354 1.524 . S
C1358 H1370 0.956 . S
C1358 H1371 0.961 . S
C1358 H1372 0.961 . S
C1359 C1356 1.539 . S
C1359 H1373 0.958 . S
C1359 H1374 0.961 . S
C1359 H1375 0.960 . S
H1360 C1344 0.931 . S
H1361 C1349 0.929 1_554 S
H1362 C1350 0.960 . S
H1363 C1350 0.962 . S
H1364 C1350 0.960 . S
H1365 C1351 0.961 . S
H1366 C1351 0.961 . S
H1367 C1351 0.961 . S
H1368 C1352 0.931 . S
H1369 C1357 0.930 . S
H1370 C1358 0.956 . S
H1371 C1358 0.961 . S
H1372 C1358 0.961 . S
H1373 C1359 0.958 . S
H1374 C1359 0.961 . S
H1375 C1359 0.960 . S
C1376 C1377 1.391 . S
C1376 C1378 1.394 . S
C1376 H1392 0.931 . S
C1377 C1376 1.391 . S
C1377 C1381 1.376 . S
C1378 C1376 1.394 . S
C1378 C1379 1.369 . S
C1378 C1382 1.531 . S
C1379 C1378 1.369 . S
C1379 C1380 1.410 . S
C1379 C1387 1.503 . S
C1380 C1379 1.410 . S
C1380 C1381 1.392 . S
C1380 C1383 1.511 . S
C1381 C1377 1.376 . S
C1381 C1380 1.392 . S
C1381 H1393 0.929 . S
C1382 C1378 1.531 . S
C1382 H1394 0.960 . S
C1382 H1395 0.962 . S
C1382 H1396 0.960 . S
C1383 C1380 1.511 . S
C1383 H1397 0.961 . S
C1383 H1398 0.961 . S
C1383 H1399 0.961 . S
C1384 C1385 1.370 . S
C1384 C1386 1.363 . S
C1384 H1400 0.931 . S
C1385 C1384 1.370 . S
C1385 C1389 1.408 . S
C1386 C1384 1.363 . S
C1386 C1387 1.370 . S
C1386 C1390 1.524 . S
C1387 C1379 1.503 . S
C1387 C1386 1.370 . S
C1387 C1388 1.403 . S
C1388 C1387 1.403 . S
C1388 C1389 1.404 . S
C1388 C1391 1.539 . S
C1389 C1385 1.408 . S
C1389 C1388 1.404 . S
C1389 H1401 0.930 . S
C1390 C1386 1.524 . S
C1390 H1402 0.956 . S
C1390 H1403 0.961 . S
C1390 H1404 0.961 . S
C1391 C1388 1.539 . S
C1391 H1405 0.958 . S
C1391 H1406 0.961 . S
C1391 H1407 0.960 . S
H1392 C1376 0.931 . S
H1393 C1381 0.929 . S
H1394 C1382 0.960 . S
H1395 C1382 0.962 . S
H1396 C1382 0.960 . S
H1397 C1383 0.961 . S
H1398 C1383 0.961 . S
H1399 C1383 0.961 . S
H1400 C1384 0.931 . S
H1401 C1389 0.930 . S
H1402 C1390 0.956 . S
H1403 C1390 0.961 . S
H1404 C1390 0.961 . S
H1405 C1391 0.958 . S
H1406 C1391 0.961 . S
H1407 C1391 0.960 . S
C1408 C1409 1.391 . S
C1408 C1410 1.394 . S
C1408 H1424 0.931 . S
C1409 C1408 1.391 . S
C1409 C1413 1.376 . S
C1410 C1408 1.394 . S
C1410 C1411 1.369 . S
C1410 C1414 1.531 . S
C1411 C1410 1.369 . S
C1411 C1412 1.410 . S
C1411 C1419 1.503 . S
C1412 C1411 1.410 . S
C1412 C1413 1.392 . S
C1412 C1415 1.511 . S
C1413 C1409 1.376 . S
C1413 C1412 1.392 . S
C1413 H1425 0.929 . S
C1414 C1410 1.531 . S
C1414 H1426 0.960 . S
C1414 H1427 0.962 . S
C1414 H1428 0.960 . S
C1415 C1412 1.511 . S
C1415 H1429 0.961 . S
C1415 H1430 0.961 . S
C1415 H1431 0.961 . S
C1416 C1417 1.370 . S
C1416 C1418 1.363 . S
C1416 H1432 0.931 . S
C1417 C1416 1.370 . S
C1417 C1421 1.408 . S
C1418 C1416 1.363 . S
C1418 C1419 1.370 . S
C1418 C1422 1.524 . S
C1419 C1411 1.503 . S
C1419 C1418 1.370 . S
C1419 C1420 1.403 . S
C1420 C1419 1.403 . S
C1420 C1421 1.404 . S
C1420 C1423 1.539 . S
C1421 C1417 1.408 . S
C1421 C1420 1.404 . S
C1421 H1433 0.930 . S
C1422 C1418 1.524 . S
C1422 H1434 0.956 . S
C1422 H1435 0.961 . S
C1422 H1436 0.961 . S
C1423 C1420 1.539 . S
C1423 H1437 0.958 . S
C1423 H1438 0.961 . S
C1423 H1439 0.960 . S
H1424 C1408 0.931 . S
H1425 C1413 0.929 . S
H1426 C1414 0.960 . S
H1427 C1414 0.962 . S
H1428 C1414 0.960 . S
H1429 C1415 0.961 . S
H1430 C1415 0.961 . S
H1431 C1415 0.961 . S
H1432 C1416 0.931 . S
H1433 C1421 0.930 . S
H1434 C1422 0.956 . S
H1435 C1422 0.961 . S
H1436 C1422 0.961 . S
H1437 C1423 0.958 . S
H1438 C1423 0.961 . S
H1439 C1423 0.960 . S
C1440 C1441 1.391 . S
C1440 C1442 1.394 . S
C1440 H1456 0.931 . S
C1441 C1440 1.391 . S
C1441 C1445 1.376 . S
C1442 C1440 1.394 . S
C1442 C1443 1.369 . S
C1442 C1446 1.531 . S
C1443 C1442 1.369 . S
C1443 C1444 1.410 . S
C1443 C1451 1.503 . S
C1444 C1443 1.410 . S
C1444 C1445 1.392 . S
C1444 C1447 1.511 . S
C1445 C1441 1.376 . S
C1445 C1444 1.392 . S
C1445 H1457 0.929 . S
C1446 C1442 1.531 . S
C1446 H1458 0.960 . S
C1446 H1459 0.962 . S
C1446 H1460 0.960 . S
C1447 C1444 1.511 . S
C1447 H1461 0.961 . S
C1447 H1462 0.961 . S
C1447 H1463 0.961 . S
C1448 C1449 1.370 . S
C1448 C1450 1.363 . S
C1448 H1464 0.931 . S
C1449 C1448 1.370 . S
C1449 C1453 1.408 . S
C1450 C1448 1.363 . S
C1450 C1451 1.370 . S
C1450 C1454 1.524 . S
C1451 C1443 1.503 . S
C1451 C1450 1.370 . S
C1451 C1452 1.403 . S
C1452 C1451 1.403 . S
C1452 C1453 1.404 . S
C1452 C1455 1.539 . S
C1453 C1449 1.408 . S
C1453 C1452 1.404 . S
C1453 H1465 0.930 . S
C1454 C1450 1.524 . S
C1454 H1466 0.956 . S
C1454 H1467 0.961 . S
C1454 H1468 0.961 . S
C1455 C1452 1.539 . S
C1455 H1469 0.958 . S
C1455 H1470 0.961 . S
C1455 H1471 0.960 . S
H1456 C1440 0.931 . S
H1457 C1445 0.929 . S
H1458 C1446 0.960 . S
H1459 C1446 0.962 . S
H1460 C1446 0.960 . S
H1461 C1447 0.961 . S
H1462 C1447 0.961 . S
H1463 C1447 0.961 . S
H1464 C1448 0.931 . S
H1465 C1453 0.930 . S
H1466 C1454 0.956 . S
H1467 C1454 0.961 . S
H1468 C1454 0.961 . S
H1469 C1455 0.958 . S
H1470 C1455 0.961 . S
H1471 C1455 0.960 . S
C1472 C1473 1.391 . S
C1472 C1474 1.394 . S
C1472 H1488 0.931 . S
C1473 C1472 1.391 . S
C1473 C1477 1.376 . S
C1474 C1472 1.394 . S
C1474 C1475 1.369 . S
C1474 C1478 1.531 . S
C1475 C1474 1.369 . S
C1475 C1476 1.410 . S
C1475 C1483 1.503 . S
C1476 C1475 1.410 . S
C1476 C1477 1.392 . S
C1476 C1479 1.511 . S
C1477 C1473 1.376 . S
C1477 C1476 1.392 . S
C1477 H1489 0.929 . S
C1478 C1474 1.531 . S
C1478 H1490 0.960 . S
C1478 H1491 0.962 . S
C1478 H1492 0.960 . S
C1479 C1476 1.511 . S
C1479 H1493 0.961 . S
C1479 H1494 0.961 . S
C1479 H1495 0.961 . S
C1480 C1481 1.370 . S
C1480 C1482 1.363 . S
C1480 H1496 0.931 1_554 S
C1481 C1480 1.370 . S
C1481 C1485 1.408 . S
C1482 C1480 1.363 . S
C1482 C1483 1.370 . S
C1482 C1486 1.524 . S
C1483 C1475 1.503 . S
C1483 C1482 1.370 . S
C1483 C1484 1.403 . S
C1484 C1483 1.403 . S
C1484 C1485 1.404 . S
C1484 C1487 1.539 . S
C1485 C1481 1.408 . S
C1485 C1484 1.404 . S
C1485 H1497 0.930 . S
C1486 C1482 1.524 . S
C1486 H1498 0.956 . S
C1486 H1499 0.961 . S
C1486 H1500 0.961 . S
C1487 C1484 1.539 . S
C1487 H1501 0.958 . S
C1487 H1502 0.961 . S
C1487 H1503 0.960 . S
H1488 C1472 0.931 . S
H1489 C1477 0.929 . S
H1490 C1478 0.960 . S
H1491 C1478 0.962 . S
H1492 C1478 0.960 . S
H1493 C1479 0.961 . S
H1494 C1479 0.961 . S
H1495 C1479 0.961 . S
H1496 C1480 0.931 1_556 S
H1497 C1485 0.930 . S
H1498 C1486 0.956 . S
H1499 C1486 0.961 . S
H1500 C1486 0.961 . S
H1501 C1487 0.958 . S
H1502 C1487 0.961 . S
H1503 C1487 0.960 . S
C1504 C1505 1.391 . S
C1504 C1506 1.394 . S
C1504 H1520 0.931 . S
C1505 C1504 1.391 . S
C1505 C1509 1.376 . S
C1506 C1504 1.394 . S
C1506 C1507 1.369 . S
C1506 C1510 1.531 . S
C1507 C1506 1.369 . S
C1507 C1508 1.410 . S
C1507 C1515 1.503 . S
C1508 C1507 1.410 . S
C1508 C1509 1.392 . S
C1508 C1511 1.511 . S
C1509 C1505 1.376 . S
C1509 C1508 1.392 . S
C1509 H1521 0.929 . S
C1510 C1506 1.531 . S
C1510 H1522 0.960 . S
C1510 H1523 0.962 . S
C1510 H1524 0.960 . S
C1511 C1508 1.511 . S
C1511 H1525 0.961 . S
C1511 H1526 0.961 . S
C1511 H1527 0.961 . S
C1512 C1513 1.370 . S
C1512 C1514 1.363 . S
C1512 H1528 0.931 . S
C1513 C1512 1.370 . S
C1513 C1517 1.408 . S
C1514 C1512 1.363 . S
C1514 C1515 1.370 . S
C1514 C1518 1.524 . S
C1515 C1507 1.503 . S
C1515 C1514 1.370 . S
C1515 C1516 1.403 . S
C1516 C1515 1.403 . S
C1516 C1517 1.404 . S
C1516 C1519 1.539 . S
C1517 C1513 1.408 . S
C1517 C1516 1.404 . S
C1517 H1529 0.930 . S
C1518 C1514 1.524 . S
C1518 H1530 0.956 . S
C1518 H1531 0.961 . S
C1518 H1532 0.961 . S
C1519 C1516 1.539 . S
C1519 H1533 0.958 . S
C1519 H1534 0.961 . S
C1519 H1535 0.960 . S
H1520 C1504 0.931 . S
H1521 C1509 0.929 . S
H1522 C1510 0.960 . S
H1523 C1510 0.962 . S
H1524 C1510 0.960 . S
H1525 C1511 0.961 . S
H1526 C1511 0.961 . S
H1527 C1511 0.961 . S
H1528 C1512 0.931 . S
H1529 C1517 0.930 . S
H1530 C1518 0.956 . S
H1531 C1518 0.961 . S
H1532 C1518 0.961 . S
H1533 C1519 0.958 . S
H1534 C1519 0.961 . S
H1535 C1519 0.960 . S
C1536 C1537 1.391 . S
C1536 C1538 1.394 . S
C1536 H1552 0.931 . S
C1537 C1536 1.391 . S
C1537 C1541 1.376 . S
C1538 C1536 1.394 . S
C1538 C1539 1.369 . S
C1538 C1542 1.531 . S
C1539 C1538 1.369 . S
C1539 C1540 1.410 . S
C1539 C1547 1.503 . S
C1540 C1539 1.410 . S
C1540 C1541 1.392 . S
C1540 C1543 1.511 . S
C1541 C1537 1.376 . S
C1541 C1540 1.392 . S
C1541 H1553 0.929 . S
C1542 C1538 1.531 . S
C1542 H1554 0.960 . S
C1542 H1555 0.962 . S
C1542 H1556 0.960 . S
C1543 C1540 1.511 . S
C1543 H1557 0.961 . S
C1543 H1558 0.961 . S
C1543 H1559 0.961 . S
C1544 C1545 1.370 . S
C1544 C1546 1.363 . S
C1544 H1560 0.931 . S
C1545 C1544 1.370 . S
C1545 C1549 1.408 . S
C1546 C1544 1.363 . S
C1546 C1547 1.370 . S
C1546 C1550 1.524 . S
C1547 C1539 1.503 . S
C1547 C1546 1.370 . S
C1547 C1548 1.403 . S
C1548 C1547 1.403 . S
C1548 C1549 1.404 . S
C1548 C1551 1.539 . S
C1549 C1545 1.408 . S
C1549 C1548 1.404 . S
C1549 H1561 0.930 . S
C1550 C1546 1.524 . S
C1550 H1562 0.956 . S
C1550 H1563 0.961 . S
C1550 H1564 0.961 . S
C1551 C1548 1.539 . S
C1551 H1565 0.958 . S
C1551 H1566 0.961 . S
C1551 H1567 0.960 . S
H1552 C1536 0.931 . S
H1553 C1541 0.929 . S
H1554 C1542 0.960 . S
H1555 C1542 0.962 . S
H1556 C1542 0.960 . S
H1557 C1543 0.961 . S
H1558 C1543 0.961 . S
H1559 C1543 0.961 . S
H1560 C1544 0.931 . S
H1561 C1549 0.930 . S
H1562 C1550 0.956 . S
H1563 C1550 0.961 . S
H1564 C1550 0.961 . S
H1565 C1551 0.958 . S
H1566 C1551 0.961 . S
H1567 C1551 0.960 . S
C1568 C1569 1.391 . S
C1568 C1570 1.394 . S
C1568 H1584 0.931 . S
C1569 C1568 1.391 . S
C1569 C1573 1.376 . S
C1570 C1568 1.394 . S
C1570 C1571 1.369 . S
C1570 C1574 1.531 . S
C1571 C1570 1.369 . S
C1571 C1572 1.410 . S
C1571 C1579 1.503 . S
C1572 C1571 1.410 . S
C1572 C1573 1.392 . S
C1572 C1575 1.511 . S
C1573 C1569 1.376 . S
C1573 C1572 1.392 . S
C1573 H1585 0.929 . S
C1574 C1570 1.531 . S
C1574 H1586 0.960 . S
C1574 H1587 0.962 . S
C1574 H1588 0.960 . S
C1575 C1572 1.511 . S
C1575 H1589 0.961 . S
C1575 H1590 0.961 . S
C1575 H1591 0.961 . S
C1576 C1577 1.370 . S
C1576 C1578 1.363 . S
C1576 H1592 0.931 . S
C1577 C1576 1.370 . S
C1577 C1581 1.408 . S
C1578 C1576 1.363 . S
C1578 C1579 1.370 . S
C1578 C1582 1.524 . S
C1579 C1571 1.503 . S
C1579 C1578 1.370 . S
C1579 C1580 1.403 . S
C1580 C1579 1.403 . S
C1580 C1581 1.404 . S
C1580 C1583 1.539 . S
C1581 C1577 1.408 . S
C1581 C1580 1.404 . S
C1581 H1593 0.930 . S
C1582 C1578 1.524 . S
C1582 H1594 0.956 . S
C1582 H1595 0.961 . S
C1582 H1596 0.961 . S
C1583 C1580 1.539 . S
C1583 H1597 0.958 . S
C1583 H1598 0.961 . S
C1583 H1599 0.960 . S
H1584 C1568 0.931 . S
H1585 C1573 0.929 . S
H1586 C1574 0.960 . S
H1587 C1574 0.962 . S
H1588 C1574 0.960 . S
H1589 C1575 0.961 . S
H1590 C1575 0.961 . S
H1591 C1575 0.961 . S
H1592 C1576 0.931 . S
H1593 C1581 0.930 . S
H1594 C1582 0.956 . S
H1595 C1582 0.961 . S
H1596 C1582 0.961 . S
H1597 C1583 0.958 . S
H1598 C1583 0.961 . S
H1599 C1583 0.960 . S
C1600 C1601 1.391 . S
C1600 C1602 1.394 . S
C1600 H1616 0.931 . S
C1601 C1600 1.391 . S
C1601 C1605 1.376 . S
C1602 C1600 1.394 . S
C1602 C1603 1.369 . S
C1602 C1606 1.531 . S
C1603 C1602 1.369 . S
C1603 C1604 1.410 . S
C1603 C1611 1.503 . S
C1604 C1603 1.410 . S
C1604 C1605 1.392 . S
C1604 C1607 1.511 . S
C1605 C1601 1.376 . S
C1605 C1604 1.392 . S
C1605 H1617 0.929 . S
C1606 C1602 1.531 . S
C1606 H1618 0.960 . S
C1606 H1619 0.962 . S
C1606 H1620 0.960 . S
C1607 C1604 1.511 . S
C1607 H1621 0.961 . S
C1607 H1622 0.961 . S
C1607 H1623 0.961 . S
C1608 C1609 1.370 . S
C1608 C1610 1.363 . S
C1608 H1624 0.931 . S
C1609 C1608 1.370 . S
C1609 C1613 1.408 . S
C1610 C1608 1.363 . S
C1610 C1611 1.370 . S
C1610 C1614 1.524 . S
C1611 C1603 1.503 . S
C1611 C1610 1.370 . S
C1611 C1612 1.403 . S
C1612 C1611 1.403 . S
C1612 C1613 1.404 . S
C1612 C1615 1.539 . S
C1613 C1609 1.408 . S
C1613 C1612 1.404 . S
C1613 H1625 0.930 . S
C1614 C1610 1.524 . S
C1614 H1626 0.956 . S
C1614 H1627 0.961 . S
C1614 H1628 0.961 . S
C1615 C1612 1.539 . S
C1615 H1629 0.958 . S
C1615 H1630 0.961 . S
C1615 H1631 0.960 . S
H1616 C1600 0.931 . S
H1617 C1605 0.929 . S
H1618 C1606 0.960 . S
H1619 C1606 0.962 . S
H1620 C1606 0.960 . S
H1621 C1607 0.961 . S
H1622 C1607 0.961 . S
H1623 C1607 0.961 . S
H1624 C1608 0.931 . S
H1625 C1613 0.930 . S
H1626 C1614 0.956 . S
H1627 C1614 0.961 . S
H1628 C1614 0.961 . S
H1629 C1615 0.958 . S
H1630 C1615 0.961 . S
H1631 C1615 0.960 . S
C1632 C1633 1.391 . S
C1632 C1634 1.394 . S
C1632 H1648 0.931 . S
C1633 C1632 1.391 . S
C1633 C1637 1.376 . S
C1634 C1632 1.394 . S
C1634 C1635 1.369 . S
C1634 C1638 1.531 . S
C1635 C1634 1.369 . S
C1635 C1636 1.410 . S
C1635 C1643 1.503 . S
C1636 C1635 1.410 . S
C1636 C1637 1.392 . S
C1636 C1639 1.511 . S
C1637 C1633 1.376 . S
C1637 C1636 1.392 . S
C1637 H1649 0.929 . S
C1638 C1634 1.531 . S
C1638 H1650 0.960 . S
C1638 H1651 0.962 . S
C1638 H1652 0.960 . S
C1639 C1636 1.511 . S
C1639 H1653 0.961 . S
C1639 H1654 0.961 . S
C1639 H1655 0.961 . S
C1640 C1641 1.370 . S
C1640 C1642 1.363 1_545 S
C1640 H1656 0.931 . S
C1641 C1640 1.370 . S
C1641 C1645 1.408 1_545 S
C1642 C1640 1.363 1_565 S
C1642 C1643 1.370 . S
C1642 C1646 1.524 1_565 S
C1643 C1635 1.503 . S
C1643 C1642 1.370 . S
C1643 C1644 1.403 . S
C1644 C1643 1.403 . S
C1644 C1645 1.404 . S
C1644 C1647 1.539 . S
C1645 C1641 1.408 1_565 S
C1645 C1644 1.404 . S
C1645 H1657 0.930 . S
C1646 C1642 1.524 1_545 S
C1646 H1658 0.956 . S
C1646 H1659 0.961 1_545 S
C1646 H1660 0.961 . S
C1647 C1644 1.539 . S
C1647 H1661 0.958 . S
C1647 H1662 0.961 . S
C1647 H1663 0.960 . S
H1648 C1632 0.931 . S
H1649 C1637 0.929 . S
H1650 C1638 0.960 . S
H1651 C1638 0.962 . S
H1652 C1638 0.960 . S
H1653 C1639 0.961 . S
H1654 C1639 0.961 . S
H1655 C1639 0.961 . S
H1656 C1640 0.931 . S
H1657 C1645 0.930 . S
H1658 C1646 0.956 . S
H1659 C1646 0.961 1_565 S
H1660 C1646 0.961 . S
H1661 C1647 0.958 . S
H1662 C1647 0.961 . S
H1663 C1647 0.960 . S
C1664 C1665 1.391 . S
C1664 C1666 1.394 . S
C1664 H1680 0.931 . S
C1665 C1664 1.391 . S
C1665 C1669 1.376 . S
C1666 C1664 1.394 . S
C1666 C1667 1.369 . S
C1666 C1670 1.531 . S
C1667 C1666 1.369 . S
C1667 C1668 1.410 . S
C1667 C1675 1.503 . S
C1668 C1667 1.410 . S
C1668 C1669 1.392 . S
C1668 C1671 1.511 . S
C1669 C1665 1.376 . S
C1669 C1668 1.392 . S
C1669 H1681 0.929 . S
C1670 C1666 1.531 . S
C1670 H1682 0.960 . S
C1670 H1683 0.962 . S
C1670 H1684 0.960 . S
C1671 C1668 1.511 . S
C1671 H1685 0.961 . S
C1671 H1686 0.961 . S
C1671 H1687 0.961 . S
C1672 C1673 1.370 . S
C1672 C1674 1.363 . S
C1672 H1688 0.953 . S
C1673 C1672 1.370 . S
C1673 C1677 1.408 . S
C1674 C1672 1.363 . S
C1674 C1675 1.370 . S
C1674 C1678 1.524 . S
C1675 C1667 1.503 . S
C1675 C1674 1.370 . S
C1675 C1676 1.403 . S
C1676 C1675 1.403 . S
C1676 C1677 1.404 . S
C1676 C1679 1.539 . S
C1677 C1673 1.408 . S
C1677 C1676 1.404 . S
C1677 H1689 0.930 . S
C1678 C1674 1.524 . S
C1678 H1690 0.956 . S
C1678 H1691 0.961 . S
C1678 H1692 0.961 . S
C1679 C1676 1.539 . S
C1679 H1693 0.958 . S
C1679 H1694 0.961 . S
C1679 H1695 0.960 . S
H1680 C1664 0.931 . S
H1681 C1669 0.929 . S
H1682 C1670 0.960 . S
H1683 C1670 0.962 . S
H1684 C1670 0.960 . S
H1685 C1671 0.961 . S
H1686 C1671 0.961 . S
H1687 C1671 0.961 . S
H1688 C1672 0.953 . S
H1689 C1677 0.930 . S
H1690 C1678 0.956 . S
H1691 C1678 0.961 . S
H1692 C1678 0.961 . S
H1693 C1679 0.958 . S
H1694 C1679 0.961 . S
H1695 C1679 0.960 . S
C1696 C1697 1.391 . S
C1696 C1698 1.394 . S
C1696 H1712 0.931 . S
C1697 C1696 1.391 . S
C1697 C1701 1.376 1_565 S
C1698 C1696 1.394 . S
C1698 C1699 1.369 1_565 S
C1698 C1702 1.531 . S
C1699 C1698 1.369 1_545 S
C1699 C1700 1.410 . S
C1699 C1707 1.503 . S
C1700 C1699 1.410 . S
C1700 C1701 1.392 . S
C1700 C1703 1.511 . S
C1701 C1697 1.376 1_545 S
C1701 C1700 1.392 . S
C1701 H1713 0.929 . S
C1702 C1698 1.531 . S
C1702 H1714 0.960 . S
C1702 H1715 0.962 . S
C1702 H1716 0.960 . S
C1703 C1700 1.511 . S
C1703 H1717 0.961 . S
C1703 H1718 0.961 . S
C1703 H1719 0.961 . S
C1704 C1705 1.370 . S
C1704 C1706 1.363 . S
C1704 H1720 0.931 . S
C1705 C1704 1.370 . S
C1705 C1709 1.408 . S
C1706 C1704 1.363 . S
C1706 C1707 1.370 . S
C1706 C1710 1.524 . S
C1707 C1699 1.503 . S
C1707 C1706 1.370 . S
C1707 C1708 1.403 . S
C1708 C1707 1.403 . S
C1708 C1709 1.404 . S
C1708 C1711 1.539 . S
C1709 C1705 1.408 . S
C1709 C1708 1.404 . S
C1709 H1721 0.930 . S
C1710 C1706 1.524 . S
C1710 H1722 0.956 . S
C1710 H1723 0.961 . S
C1710 H1724 0.961 . S
C1711 C1708 1.539 . S
C1711 H1725 0.958 . S
C1711 H1726 0.961 . S
C1711 H1727 0.960 . S
H1712 C1696 0.931 . S
H1713 C1701 0.929 . S
H1714 C1702 0.960 . S
H1715 C1702 0.962 . S
H1716 C1702 0.960 . S
H1717 C1703 0.961 . S
H1718 C1703 0.961 . S
H1719 C1703 0.961 . S
H1720 C1704 0.931 . S
H1721 C1709 0.930 . S
H1722 C1710 0.956 . S
H1723 C1710 0.961 . S
H1724 C1710 0.961 . S
H1725 C1711 0.958 . S
H1726 C1711 0.961 . S
H1727 C1711 0.960 . S
C1728 C1729 1.391 . S
C1728 C1730 1.394 . S
C1728 H1744 0.931 . S
C1729 C1728 1.391 . S
C1729 C1733 1.376 . S
C1730 C1728 1.394 . S
C1730 C1731 1.369 . S
C1730 C1734 1.531 . S
C1731 C1730 1.369 . S
C1731 C1732 1.410 . S
C1731 C1739 1.503 . S
C1732 C1731 1.410 . S
C1732 C1733 1.392 . S
C1732 C1735 1.511 . S
C1733 C1729 1.376 . S
C1733 C1732 1.392 . S
C1733 H1745 0.929 . S
C1734 C1730 1.531 . S
C1734 H1746 0.960 . S
C1734 H1747 0.962 . S
C1734 H1748 0.960 . S
C1735 C1732 1.511 . S
C1735 H1749 0.961 . S
C1735 H1750 0.961 . S
C1735 H1751 0.961 . S
C1736 C1737 1.370 . S
C1736 C1738 1.363 . S
C1736 H1752 0.931 . S
C1737 C1736 1.370 . S
C1737 C1741 1.408 . S
C1738 C1736 1.363 . S
C1738 C1739 1.370 . S
C1738 C1742 1.524 . S
C1739 C1731 1.503 . S
C1739 C1738 1.370 . S
C1739 C1740 1.403 . S
C1740 C1739 1.403 . S
C1740 C1741 1.404 . S
C1740 C1743 1.539 . S
C1741 C1737 1.408 . S
C1741 C1740 1.404 . S
C1741 H1753 0.930 . S
C1742 C1738 1.524 . S
C1742 H1754 0.956 . S
C1742 H1755 0.961 . S
C1742 H1756 0.961 . S
C1743 C1740 1.539 . S
C1743 H1757 0.958 . S
C1743 H1758 0.961 . S
C1743 H1759 0.960 . S
H1744 C1728 0.931 . S
H1745 C1733 0.929 . S
H1746 C1734 0.960 . S
H1747 C1734 0.962 . S
H1748 C1734 0.960 . S
H1749 C1735 0.961 . S
H1750 C1735 0.961 . S
H1751 C1735 0.961 . S
H1752 C1736 0.931 . S
H1753 C1741 0.930 . S
H1754 C1742 0.956 . S
H1755 C1742 0.961 . S
H1756 C1742 0.961 . S
H1757 C1743 0.958 . S
H1758 C1743 0.961 . S
H1759 C1743 0.960 . S
C1760 C1761 1.391 . S
C1760 C1762 1.394 . S
C1760 H1776 0.931 . S
C1761 C1760 1.391 . S
C1761 C1765 1.376 . S
C1762 C1760 1.394 . S
C1762 C1763 1.369 . S
C1762 C1766 1.531 . S
C1763 C1762 1.369 . S
C1763 C1764 1.410 . S
C1763 C1771 1.503 . S
C1764 C1763 1.410 . S
C1764 C1765 1.392 . S
C1764 C1767 1.511 . S
C1765 C1761 1.376 . S
C1765 C1764 1.392 . S
C1765 H1777 0.929 . S
C1766 C1762 1.531 . S
C1766 H1778 0.960 . S
C1766 H1779 0.962 . S
C1766 H1780 0.960 . S
C1767 C1764 1.511 . S
C1767 H1781 0.961 . S
C1767 H1782 0.961 . S
C1767 H1783 0.961 . S
C1768 C1769 1.370 1_545 S
C1768 C1770 1.363 . S
C1768 H1784 0.931 . S
C1769 C1768 1.370 1_565 S
C1769 C1773 1.408 . S
C1770 C1768 1.363 . S
C1770 C1771 1.370 . S
C1770 C1774 1.524 . S
C1771 C1763 1.503 . S
C1771 C1770 1.370 . S
C1771 C1772 1.403 1_545 S
C1772 C1771 1.403 1_565 S
C1772 C1773 1.404 . S
C1772 C1775 1.539 . S
C1773 C1769 1.408 . S
C1773 C1772 1.404 . S
C1773 H1785 0.930 . S
C1774 C1770 1.524 . S
C1774 H1786 0.956 . S
C1774 H1787 0.961 . S
C1774 H1788 0.961 . S
C1775 C1772 1.539 . S
C1775 H1789 0.958 . S
C1775 H1790 0.961 . S
C1775 H1791 0.960 . S
H1776 C1760 0.931 . S
H1777 C1765 0.929 . S
H1778 C1766 0.960 . S
H1779 C1766 0.962 . S
H1780 C1766 0.960 . S
H1781 C1767 0.961 . S
H1782 C1767 0.961 . S
H1783 C1767 0.961 . S
H1784 C1768 0.931 . S
H1785 C1773 0.930 . S
H1786 C1774 0.956 . S
H1787 C1774 0.961 . S
H1788 C1774 0.961 . S
H1789 C1775 0.958 . S
H1790 C1775 0.961 . S
H1791 C1775 0.960 . S
C1792 C1793 1.391 . S
C1792 C1794 1.394 . S
C1792 H1808 0.931 . S
C1793 C1792 1.391 . S
C1793 C1797 1.376 . S
C1794 C1792 1.394 . S
C1794 C1795 1.369 . S
C1794 C1798 1.531 . S
C1795 C1794 1.369 . S
C1795 C1796 1.410 . S
C1795 C1803 1.503 . S
C1796 C1795 1.410 . S
C1796 C1797 1.392 . S
C1796 C1799 1.511 . S
C1797 C1793 1.376 . S
C1797 C1796 1.392 . S
C1797 H1809 0.929 . S
C1798 C1794 1.531 . S
C1798 H1810 0.960 . S
C1798 H1811 0.962 . S
C1798 H1812 0.960 . S
C1799 C1796 1.511 . S
C1799 H1813 0.961 . S
C1799 H1814 0.961 . S
C1799 H1815 0.961 . S
C1800 C1801 1.370 . S
C1800 C1802 1.363 . S
C1800 H1816 0.931 1_554 S
C1801 C1800 1.370 . S
C1801 C1805 1.408 . S
C1802 C1800 1.363 . S
C1802 C1803 1.370 . S
C1802 C1806 1.524 . S
C1803 C1795 1.503 . S
C1803 C1802 1.370 . S
C1803 C1804 1.403 . S
C1804 C1803 1.403 . S
C1804 C1805 1.404 . S
C1804 C1807 1.539 . S
C1805 C1801 1.408 . S
C1805 C1804 1.404 . S
C1805 H1817 0.930 . S
C1806 C1802 1.524 . S
C1806 H1818 0.956 . S
C1806 H1819 0.961 . S
C1806 H1820 0.961 . S
C1807 C1804 1.539 . S
C1807 H1821 0.958 . S
C1807 H1822 0.961 . S
C1807 H1823 0.960 . S
H1808 C1792 0.931 . S
H1809 C1797 0.929 . S
H1810 C1798 0.960 . S
H1811 C1798 0.962 . S
H1812 C1798 0.960 . S
H1813 C1799 0.961 . S
H1814 C1799 0.961 . S
H1815 C1799 0.961 . S
H1816 C1800 0.931 1_556 S
H1817 C1805 0.930 . S
H1818 C1806 0.956 . S
H1819 C1806 0.961 . S
H1820 C1806 0.961 . S
H1821 C1807 0.958 . S
H1822 C1807 0.961 . S
H1823 C1807 0.960 . S
C1824 C1825 1.391 . S
C1824 C1826 1.394 . S
C1824 H1840 0.931 . S
C1825 C1824 1.391 . S
C1825 C1829 1.376 . S
C1826 C1824 1.394 . S
C1826 C1827 1.369 . S
C1826 C1830 1.531 . S
C1827 C1826 1.369 . S
C1827 C1828 1.410 . S
C1827 C1835 1.503 . S
C1828 C1827 1.410 . S
C1828 C1829 1.392 . S
C1828 C1831 1.511 1_565 S
C1829 C1825 1.376 . S
C1829 C1828 1.392 . S
C1829 H1841 0.929 . S
C1830 C1826 1.531 . S
C1830 H1842 0.960 . S
C1830 H1843 0.962 . S
C1830 H1844 0.960 . S
C1831 C1828 1.511 1_545 S
C1831 H1845 0.961 . S
C1831 H1846 0.961 . S
C1831 H1847 0.961 . S
C1832 C1833 1.370 1_565 S
C1832 C1834 1.363 . S
C1832 H1848 0.931 . S
C1833 C1832 1.370 1_545 S
C1833 C1837 1.408 1_545 S
C1834 C1832 1.363 . S
C1834 C1835 1.370 . S
C1834 C1838 1.524 . S
C1835 C1827 1.503 . S
C1835 C1834 1.370 . S
C1835 C1836 1.403 . S
C1836 C1835 1.403 . S
C1836 C1837 1.404 . S
C1836 C1839 1.539 . S
C1837 C1833 1.408 1_565 S
C1837 C1836 1.404 . S
C1837 H1849 0.930 . S
C1838 C1834 1.524 . S
C1838 H1850 0.956 . S
C1838 H1851 0.961 . S
C1838 H1852 0.961 . S
C1839 C1836 1.539 . S
C1839 H1853 0.958 . S
C1839 H1854 0.961 . S
C1839 H1855 0.960 . S
H1840 C1824 0.931 . S
H1841 C1829 0.929 . S
H1842 C1830 0.960 . S
H1843 C1830 0.962 . S
H1844 C1830 0.960 . S
H1845 C1831 0.961 . S
H1846 C1831 0.961 . S
H1847 C1831 0.961 . S
H1848 C1832 0.931 . S
H1849 C1837 0.930 . S
H1850 C1838 0.956 . S
H1851 C1838 0.961 . S
H1852 C1838 0.961 . S
H1853 C1839 0.958 . S
H1854 C1839 0.961 . S
H1855 C1839 0.960 . S
C321 C18 1.085 . S
C329 C218 1.101 . S
C353 C38 1.086 . S
C361 C238 1.100 . S
C385 C58 1.086 . S
C393 C178 1.101 . S
C417 C198 1.076 . S
C425 C78 1.101 . S
C449 C99 1.094 . S
C457 C299 1.111 . S
C481 C319 1.145 . S
C489 C119 1.131 . S
C513 C259 1.136 . S
C521 C139 1.128 . S
C545 C159 1.152 . S
C553 C279 1.132 . S
C577 C9 1.533 . S
C585 C92 1.475 . S
C609 C29 1.445 . S
C617 C272 1.513 . S
C641 C49 1.516 . S
C649 C132 1.486 . S
C673 C69 1.529 . S
C681 C312 1.476 . S
C705 C112 1.503 . S
C713 C189 1.492 . S
C737 C229 1.516 . S
C745 C152 1.481 . S
C769 C252 1.479 . S
C777 C169 1.502 . S
C801 C209 1.516 . S
C809 C292 1.481 . S
C833 C12 1.145 . S
C841 C158 1.132 . S
C865 C32 1.110 . S
C873 C258 1.127 . S
C897 C52 1.138 . S
C905 C118 1.136 . S
C929 C72 1.138 1_455 S
C937 C298 1.122 . S
C961 C79 1.113 . S
C969 C89 1.123 . S
C993 C109 1.125 . S
C1001 C179 1.138 . S
C1025 C129 1.135 . S
C1033 C39 1.138 . S
C1057 C219 1.134 . S
C1065 C149 1.123 1_655 S
C1089 C172 1.109 . S
C1097 C318 1.118 1_565 S
C1121 C98 1.108 . S
C1129 C192 1.133 1_655 S
C1153 C278 1.138 1_545 S
C1161 C212 1.129 . S
C1185 C138 1.142 . S
C1193 C232 1.134 . S
C1217 C249 1.108 . S
C1225 C239 1.116 1_545 S
C1249 C269 1.115 1_455 S
C1257 C19 1.135 . S
C1281 C199 1.117 1_565 S
C1289 C289 1.122 . S
C1313 C309 1.146 . S
C1321 C59 1.133 . S
C1345 C2 1.972 1_556 S
C1353 C184 2.136 . S
C1377 C204 2.123 . S
C1385 C22 1.981 . S
C1409 C42 2.008 . S
C1417 C224 2.140 . S
C1441 C164 2.140 . S
C1449 C62 1.998 . S
C1473 C262 2.142 . S
C1481 C84 1.994 1_554 S
C1505 C282 2.141 . S
C1513 C104 1.989 . S
C1537 C302 2.124 . S
C1545 C124 1.987 . S
C1569 C242 2.142 . S
C1577 C144 1.991 . S
C1601 C24 2.125 . S
C1609 C162 1.974 . S
C1633 C44 2.128 . S
C1641 C182 1.988 . S
C1665 C64 2.127 . S
C1673 C202 1.975 1_556 S
C1697 C222 1.948 . S
C1705 C4 2.132 . S
C1729 C102 2.142 . S
C1737 C244 1.994 . S
C1761 C122 2.134 . S
C1769 C264 1.979 . S
C1793 C142 2.142 . S
C1801 C284 1.997 1_554 S
C1825 C82 2.140 . S
C1833 C304 1.998 . S
