# Generated by pormake.
# Topology kag, (6)-cn, num edge types: 1
# Building blocks:
#     Node 0, Type 0, BuildingBlock: NUHQIS_clean_sbu_0, # of connection points: 6
#     Node 1, Type 0, BuildingBlock: NUHQIS_clean_sbu_0, # of connection points: 6
#     Node 2, Type 0, BuildingBlock: NUHQIS_clean_sbu_0, # of connection points: 6
#     Edge 3, Type (0, 0), BuildingBlock: KIFKEQ_clean_linker_1, # of connection points: 2
#     Edge 4, Type (0, 0), BuildingBlock: KIFKEQ_clean_linker_1, # of connection points: 2
#     Edge 5, Type (0, 0), BuildingBlock: KIFKEQ_clean_linker_1, # of connection points: 2
#     Edge 6, Type (0, 0), BuildingBlock: KIFKEQ_clean_linker_1, # of connection points: 2
#     Edge 7, Type (0, 0), BuildingBlock: KIFKEQ_clean_linker_1, # of connection points: 2
#     Edge 8, Type (0, 0), BuildingBlock: KIFKEQ_clean_linker_1, # of connection points: 2
#     Edge 9, Type (0, 0), BuildingBlock: KIFKEQ_clean_linker_1, # of connection points: 2
#     Edge 10, Type (0, 0), BuildingBlock: KIFKEQ_clean_linker_1, # of connection points: 2
#     Edge 11, Type (0, 0), BuildingBlock: KIFKEQ_clean_linker_1, # of connection points: 2
# Relax obj value: 0.077
# Max RMSD: 0.190
# Mean RMSD: 0.109
data_MOF--net-kag--node1-NUHQIS_clean_sbu_0--edge1-KIFKEQ_clean_linker_1
_symmetry_space_group_name_H-M    P1
_symmetry_Int_Tables_number       1
_symmetry_cell_setting            triclinic
loop_
_symmetry_equiv_pos_as_xyz
'x, y, z'
_cell_length_a     49.946581
_cell_length_b     31.341767
_cell_length_c     15.437164
_cell_angle_alpha  89.280184
_cell_angle_beta   95.309882
_cell_angle_gamma 122.12281
loop_
_atom_site_label
_atom_site_type_symbol
_atom_site_fract_x
_atom_site_fract_y
_atom_site_fract_z
_atom_type_partial_charge
Tb0 Tb 0.04738 0.50555 0.0067 0.0
Eu1 Eu 1.03538 0.59946 0.00156 0.0
C2 C 0.04123 0.55103 0.17695 0.0
C3 C 0.97723 0.48278 -0.00361 0.0
C4 C 0.09269 0.44361 0.01208 0.0
C5 C 0.12766 0.41493 0.06504 0.0
C6 C 0.09804 0.4102 0.06038 0.0
C7 C 0.11743 0.48196 0.96869 0.0
C8 C 0.14695 0.48667 0.97316 0.0
C9 C 0.15251 0.45327 0.02145 0.0
C10 C 0.06172 0.43933 0.009 0.0
O11 O 1.03089 0.51018 0.8731 0.0
O12 O 0.05165 0.59489 0.87347 0.0
O13 O 0.08814 0.63611 0.03659 0.0
O14 O 0.09355 0.57233 0.98716 0.0
C15 C 0.04159 0.55215 0.83142 0.0
O16 O 1.01752 0.64115 0.93006 0.0
O17 O 1.03754 0.66341 0.06438 0.0
O18 O 1.02398 0.56504 0.13143 0.0
O19 O 0.0587 0.53867 0.13859 0.0
O20 O 0.99684 0.46839 0.02504 0.0
O21 O 0.98761 0.52835 0.96873 0.0
C22 C 0.10589 0.61944 0.01424 0.0
O23 O 0.05649 0.45602 0.07819 0.0
O24 O 0.05316 0.45398 0.93834 0.0
C25 C 0.99292 0.66788 0.01764 0.0
C26 C 0.93626 0.66321 0.04284 0.0
C27 C 0.96243 0.70768 0.01523 0.0
C28 C 0.99051 0.7099 0.00247 0.0
C29 C 0.96719 0.62383 0.04702 0.0
C30 C 0.93906 0.62145 0.05933 0.0
C31 C 1.02143 0.66879 -0.00172 0.0
H32 H 0.1312 0.38894 0.1037 0.0
H33 H 0.07936 0.38062 0.09491 0.0
H34 H 0.11396 0.50832 0.93101 0.0
H35 H 0.16529 0.51614 0.93765 0.0
H36 H 0.96088 0.74028 0.00101 0.0
H37 H 1.0101 0.74407 0.97924 0.0
H38 H 0.96872 0.59103 0.05917 0.0
H39 H 0.91949 0.58687 0.08151 0.0
Tb40 Tb 0.57897 0.08665 0.97773 0.0
Eu41 Eu 0.49962 1.02683 0.95875 0.0
C42 C 0.54113 1.05677 0.14271 0.0
C43 C 0.5358 0.96641 0.97278 0.0
C44 C 0.67138 0.17424 0.99096 0.0
C45 C 0.72282 0.22497 0.07701 0.0
C46 C 0.69017 0.18813 0.07149 0.0
C47 C 0.68591 0.19911 0.91669 0.0
C48 C 0.71846 0.23562 0.92207 0.0
C49 C 0.73761 0.24847 0.00196 0.0
C50 C 0.63876 0.12828 0.98056 0.0
O51 O 0.55956 1.05244 0.84705 0.0
O52 O 0.5175 0.0622 0.83238 0.0
O53 O 0.51834 0.10845 0.99109 0.0
O54 O 0.5699 0.14737 0.95521 0.0
C55 C 0.5392 0.05867 0.79759 0.0
O56 O 0.45379 0.97918 0.88107 0.0
O57 O 0.45564 1.01055 0.00786 0.0
O58 O 0.51586 1.02044 0.09625 0.0
O59 O 0.56564 0.09271 0.10577 0.0
O60 O 0.56222 1.008 0.0038 0.0
O61 O 0.51048 0.96635 0.94 0.0
C62 C 0.54527 0.1491 0.97457 0.0
O63 O 0.62318 0.10904 0.0484 0.0
O64 O 0.61995 0.12347 0.91195 0.0
C65 C 0.40563 0.9382 0.95094 0.0
C66 C 0.34148 0.86364 0.97168 0.0
C67 C 0.35066 0.88329 0.88971 0.0
C68 C 0.3823 0.92005 0.87957 0.0
C69 C 0.39689 0.91743 0.03251 0.0
C70 C 0.36512 0.88028 0.04265 0.0
C71 C 0.4376 0.98246 0.93949 0.0
H72 H 0.73656 0.23428 0.13999 0.0
H73 H 0.67994 0.16921 0.12981 0.0
H74 H 0.67242 0.18862 0.85317 0.0
H75 H 0.72881 0.25197 0.86243 0.0
H76 H 0.33322 0.87078 0.83339 0.0
H77 H 0.38837 0.93561 0.81613 0.0
H78 H 0.41434 0.93092 0.08888 0.0
H79 H 0.35884 0.86607 0.10673 0.0
Tb80 Tb 0.50325 0.52437 0.95465 0.0
Eu81 Eu 0.58196 0.59546 0.97411 0.0
C82 C 0.54068 0.55998 0.79238 0.0
C83 C 0.54464 0.47348 0.96467 0.0
C84 C 0.41623 0.4774 0.95583 0.0
C85 C 0.37109 0.48334 0.90085 0.0
C86 C 0.39777 0.48184 0.88625 0.0
C87 C 0.40744 0.47462 0.04071 0.0
C88 C 0.38058 0.47584 0.05528 0.0
C89 C 0.362 0.47995 0.98541 0.0
C90 C 0.44315 0.47258 0.93754 0.0
O91 O 0.51825 0.55398 0.08884 0.0
O92 O 0.56703 0.56284 0.10432 0.0
O93 O 0.56609 0.64882 -0.00118 0.0
O94 O 0.51387 0.60138 0.93981 0.0
C95 C 0.54229 0.55747 0.13816 0.0
O96 O 0.62796 0.64706 0.04694 0.0
O97 O 0.62554 0.62769 0.91067 0.0
O98 O 0.56283 0.59989 0.83905 0.0
O99 O 0.51924 0.52035 0.83034 0.0
O100 O 0.51799 0.47042 0.97862 0.0
O101 O 0.57056 0.51646 0.95031 0.0
C102 C 0.53913 0.64464 0.9704 0.0
O103 O 0.46044 0.50075 0.87751 0.0
O104 O 0.46053 0.47014 0.00359 0.0
C105 C 0.67292 0.65032 -0.00213 0.0
C106 C 0.7299 0.65128 0.02581 0.0
C107 C 0.70545 0.62434 0.0802 0.0
C108 C 0.67714 0.62384 0.06632 0.0
C109 C 0.69707 0.67664 0.94318 0.0
C110 C 0.72519 0.67704 0.95674 0.0
C111 C 0.64392 0.65176 0.98128 0.0
H112 H 0.35703 0.48572 0.84542 0.0
H113 H 0.40367 0.48332 0.82003 0.0
H114 H 0.42103 0.47088 0.09581 0.0
H115 H 0.37434 0.47353 0.12127 0.0
H116 H 0.70838 0.60432 0.13423 0.0
H117 H 0.6587 0.60304 0.10915 0.0
H118 H 0.69417 0.69702 0.88965 0.0
H119 H 0.74316 0.69723 0.91242 0.0
H120 H 0.05367 0.62839 0.72245 0.0
H121 H 1.02996 0.47414 0.72327 0.0
H122 H 0.05396 0.62742 0.56484 0.0
H123 H 1.03009 0.47325 0.56495 0.0
H124 H 0.0683 0.5143 0.29312 0.0
H125 H 0.06848 0.51385 0.45162 0.0
H126 H 1.01449 0.58536 0.4359 0.0
H127 H 1.01439 0.58614 0.27819 0.0
C128 C 0.04849 0.59423 0.68908 0.0
C129 C 0.04168 0.55127 0.73552 0.0
C130 C 0.04851 0.59364 0.59864 0.0
C131 C 0.04196 0.55022 0.55249 0.0
C132 C 1.03546 0.50738 0.59886 0.0
C133 C 1.03518 0.50781 0.68944 0.0
C134 C 0.0565 0.52997 0.32352 0.0
C135 C 0.04142 0.55039 0.27296 0.0
C136 C 0.05645 0.52942 0.41421 0.0
C137 C 0.04158 0.5497 0.45618 0.0
C138 C 1.02648 0.57001 0.40555 0.0
C139 C 1.0263 0.5702 0.31505 0.0
H140 H 0.59106 0.11752 0.26425 0.0
H141 H 0.49181 0.99806 0.23942 0.0
H142 H 0.59098 0.11905 0.42254 0.0
H143 H 0.49189 0.99954 0.3971 0.0
H144 H 0.4954 1.05587 0.67334 0.0
H145 H 0.4965 1.05656 0.5156 0.0
H146 H 0.58575 0.06412 0.54679 0.0
H147 H 0.58481 0.0637 0.70467 0.0
C148 C 0.56926 0.09158 0.2924 0.0
C149 C 0.54146 0.05769 0.23896 0.0
C150 C 0.56926 0.0923 0.38312 0.0
C151 C 0.5414 0.0595 0.42235 0.0
C152 C 0.51364 1.0257 0.36888 0.0
C153 C 0.51369 1.02466 0.27841 0.0
C154 C 0.5153 0.05776 0.64667 0.0
C155 C 0.53996 0.05955 0.70172 0.0
C156 C 0.51584 0.0579 0.55621 0.0
C157 C 0.54118 0.06028 0.51866 0.0
C158 C 0.56604 0.06269 0.57372 0.0
C159 C 0.56537 0.06211 0.66419 0.0
H160 H 0.58613 0.62945 0.69453 0.0
H161 H 0.49494 0.48888 0.67279 0.0
H162 H 0.58625 0.62806 0.53671 0.0
H163 H 0.49523 0.48747 0.5147 0.0
H164 H 0.49266 0.53554 0.23088 0.0
H165 H 0.49208 0.53575 0.38872 0.0
H166 H 0.59007 0.57774 0.42059 0.0
H167 H 0.59081 0.57789 0.26277 0.0
C168 C 0.56609 0.59825 0.65616 0.0
C169 C 0.54051 0.55927 0.69635 0.0
C170 C 0.56628 0.59732 0.56572 0.0
C171 C 0.54079 0.5576 0.51327 0.0
C172 C 0.51509 0.51879 0.55334 0.0
C173 C 0.51501 0.5195 0.64393 0.0
C174 C 0.5141 0.54482 0.27145 0.0
C175 C 0.54182 0.55682 0.23407 0.0
C176 C 0.51369 0.54463 0.36192 0.0
C177 C 0.54103 0.55683 0.4171 0.0
C178 C 0.56872 0.56871 0.37978 0.0
C179 C 0.56907 0.56851 0.2893 0.0
H180 H 0.21171 0.54004 0.03461 0.0
H181 H 0.16473 0.37775 0.01627 0.0
H182 H 0.26299 0.5482 0.03258 0.0
H183 H 0.21607 0.38604 0.01533 0.0
H184 H 0.31593 0.41843 0.08986 0.0
H185 H 0.26621 0.41353 0.10645 0.0
H186 H 0.29142 0.53315 0.92729 0.0
H187 H 0.34144 0.53892 0.91247 0.0
C188 C 0.21227 0.50607 0.02989 0.0
C189 C 0.18398 0.45821 0.02507 0.0
C190 C 0.2417 0.5108 0.02891 0.0
C191 C 0.24364 0.46779 0.02354 0.0
C192 C 0.21546 0.41993 0.02067 0.0
C193 C 0.186 0.41519 0.02128 0.0
C194 C 0.31107 0.4442 0.05508 0.0
C195 C 0.33262 0.47898 -0.00035 0.0
C196 C 0.28243 0.44102 0.06387 0.0
C197 C 0.27477 0.47278 0.0179 0.0
C198 C 0.29668 0.5084 0.96417 0.0
C199 C 0.32521 0.51138 0.95501 0.0
H200 H 0.77098 0.33314 0.9078 0.0
H201 H 0.78481 0.24491 0.10326 0.0
H202 H 0.82806 0.38714 0.90484 0.0
H203 H 0.84214 0.30117 0.10465 0.0
H204 H 0.94344 0.38065 0.02307 0.0
H205 H 0.88601 0.3246 0.02565 0.0
H206 H 0.87479 0.45091 0.98088 0.0
H207 H 0.93152 0.50589 0.97447 0.0
C208 C 0.78613 0.32527 0.95061 0.0
C209 C 0.77294 0.28422 0.0055 0.0
C210 C 0.8191 0.35686 0.94981 0.0
C211 C 0.84009 0.3489 0.0046 0.0
C212 C 0.82693 0.3083 0.06053 0.0
C213 C 0.79388 0.2764 0.06081 0.0
C214 C 0.92865 0.39632 0.01339 0.0
C215 C 0.94225 0.44782 -0.00205 0.0
C216 C 0.89565 0.36422 0.01554 0.0
C217 C 0.8754 0.38289 0.00321 0.0
C218 C 0.88923 0.43458 0.98875 0.0
C219 C 0.92203 0.46639 0.9856 0.0
H220 H 0.49305 0.8769 0.8823 0.0
H221 H 0.57632 0.94616 0.06881 0.0
H222 H 0.49322 0.79922 0.88137 0.0
H223 H 0.57575 0.86817 0.07108 0.0
H224 H 0.58871 0.74278 0.98994 0.0
H225 H 0.58695 0.81865 0.99002 0.0
H226 H 0.48429 0.72771 0.95642 0.0
H227 H 0.48622 0.65153 0.95253 0.0
C228 C 0.51119 0.8754 0.92391 0.0
C229 C 0.5348 0.91803 0.97514 0.0
C230 C 0.51121 0.83061 0.92382 0.0
C231 C 0.53464 0.82702 0.97572 0.0
C232 C 0.55776 0.86948 0.02848 0.0
C233 C 0.55797 0.91434 0.02769 0.0
C234 C 0.56571 0.73882 0.98266 0.0
C235 C 0.53761 0.69085 0.97137 0.0
C236 C 0.56466 0.78256 0.98332 0.0
C237 C 0.53546 0.77983 0.97394 0.0
C238 C 0.50728 0.7317 0.96268 0.0
C239 C 0.50836 0.68784 0.96094 0.0
H240 H 0.92756 0.73355 0.11587 0.0
H241 H 0.87613 0.58538 0.98831 0.0
H242 H 0.87774 0.72977 0.12255 0.0
H243 H 0.82639 0.5818 -0.00629 0.0
H244 H 0.73866 0.57412 0.07084 0.0
H245 H 0.78844 0.57618 0.08616 0.0
H246 H 0.8393 0.7334 0.02393 0.0
H247 H 0.79 0.73196 0.01301 0.0
C248 C 0.9056 0.70022 0.0891 0.0
C249 C 0.90581 0.65987 0.05126 0.0
C250 C 0.87704 0.69804 0.09282 0.0
C251 C 0.84801 0.65558 0.05826 0.0
C252 C 0.84819 0.61476 0.02215 0.0
C253 C 0.87674 0.61685 0.01886 0.0
C254 C 0.76056 0.60932 0.06198 0.0
C255 C 0.76028 0.65277 0.04006 0.0
C256 C 0.78906 0.61037 0.06976 0.0
C257 C 0.81791 0.65489 0.05583 0.0
C258 C 0.81765 0.69858 0.03604 0.0
C259 C 0.78925 0.69757 0.02856 0.0
H260 H 0.13971 0.72265 0.03537 0.0
H261 H 0.15152 0.59761 -0.0043 0.0
H262 H 0.19669 0.78136 0.03066 0.0
H263 H 0.2084 0.65638 0.99022 0.0
H264 H 0.31441 0.77713 0.06422 0.0
H265 H 0.25794 0.71849 0.08061 0.0
H266 H 0.23468 0.81055 0.92043 0.0
H267 H 0.29086 0.8693 0.9054 0.0
C268 C 0.15441 0.70758 0.026 0.0
C269 C 0.14085 0.65527 0.0154 0.0
C270 C 0.1871 0.74132 0.02278 0.0
C271 C 0.20716 0.72367 0.00961 0.0
C272 C 0.19374 0.67132 0.0011 0.0
C273 C 0.16101 0.63759 0.00362 0.0
C274 C 0.29723 0.78497 0.03307 0.0
C275 C 0.3072 0.8278 0.9831 0.0
C276 C 0.26485 0.75118 0.04188 0.0
C277 C 0.24172 0.75978 0.00187 0.0
C278 C 0.2518 0.80295 0.95287 0.0
C279 C 0.28404 0.83638 0.94343 0.0
H280 H 0.59687 0.46511 0.97335 0.0
H281 H 0.49441 0.37538 0.95864 0.0
H282 H 0.59827 0.38855 0.97842 0.0
H283 H 0.49565 0.29888 0.96008 0.0
H284 H 0.50641 0.17109 0.04978 0.0
H285 H 0.50736 0.24927 0.04923 0.0
H286 H 0.58847 0.3167 0.90003 0.0
H287 H 0.58822 0.23849 0.90385 0.0
C288 C 0.57459 0.42904 0.97045 0.0
C289 C 0.54552 0.42662 0.96598 0.0
C290 C 0.57538 0.38492 0.97284 0.0
C291 C 0.5471 0.33703 0.97004 0.0
C292 C 0.51803 0.3348 0.9644 0.0
C293 C 0.51727 0.37887 0.96296 0.0
C294 C 0.52456 0.20257 0.01698 0.0
C295 C 0.54716 0.19822 0.97651 0.0
C296 C 0.52496 0.24756 0.01604 0.0
C297 C 0.54773 0.28963 0.9736 0.0
C298 C 0.57072 0.28553 0.9342 0.0
C299 C 0.57053 0.24051 0.93604 0.0
loop_
_geom_bond_atom_site_label_1
_geom_bond_atom_site_label_2
_geom_bond_distance
_geom_bond_site_symmetry_2
_ccdc_geom_bond_type
Tb0 C10 2.825 . S
Tb0 O11 2.347 1_554 S
Tb0 O14 2.366 . S
Tb0 O19 2.418 . S
Tb0 O20 2.384 1_455 S
Tb0 O23 2.479 . S
Tb0 O24 2.471 1_554 S
Eu1 O12 2.418 . S
Eu1 O13 2.384 1_655 S
Eu1 O16 2.479 . S
Eu1 O17 2.471 1_556 S
Eu1 O18 2.347 1_556 S
Eu1 O21 2.366 . S
Eu1 C31 2.825 . S
C2 O18 1.259 1_455 S
C2 O19 1.265 . S
C3 O20 1.255 1_556 S
C3 O21 1.265 . S
C4 C6 1.379 1_556 S
C4 C7 1.374 . S
C4 C10 1.507 1_556 S
C5 C6 1.384 . S
C5 C9 1.387 1_554 S
C5 H32 0.930 . S
C6 C4 1.379 1_554 S
C6 C5 1.384 . S
C6 H33 0.931 . S
C7 C4 1.374 . S
C7 C8 1.390 . S
C7 H34 0.930 . S
C8 C7 1.390 . S
C8 C9 1.391 . S
C8 H35 0.930 . S
C9 C5 1.387 1_556 S
C9 C8 1.391 . S
C10 Tb0 2.825 . S
C10 C4 1.507 1_554 S
C10 O23 1.238 . S
C10 O24 1.247 1_554 S
O11 Tb0 2.347 1_556 S
O11 C15 1.259 1_455 S
O12 Eu1 2.418 . S
O12 C15 1.265 . S
O13 Eu1 2.384 1_455 S
O13 C22 1.255 1_556 S
O14 Tb0 2.366 . S
O14 C22 1.265 . S
C15 O11 1.259 1_655 S
C15 O12 1.265 . S
O16 Eu1 2.479 . S
O16 C31 1.238 . S
O17 Eu1 2.471 1_554 S
O17 C31 1.247 1_554 S
O18 Eu1 2.347 1_554 S
O18 C2 1.259 1_655 S
O19 Tb0 2.418 . S
O19 C2 1.265 . S
O20 Tb0 2.384 1_655 S
O20 C3 1.255 1_554 S
O21 Eu1 2.366 . S
O21 C3 1.265 . S
C22 O13 1.255 1_554 S
C22 O14 1.265 . S
O23 Tb0 2.479 . S
O23 C10 1.238 . S
O24 Tb0 2.471 1_556 S
O24 C10 1.247 1_556 S
C25 C28 1.375 1_554 S
C25 C29 1.380 . S
C25 C31 1.505 1_554 S
C26 C27 1.387 1_554 S
C26 C30 1.391 . S
C27 C26 1.387 1_556 S
C27 C28 1.384 . S
C27 H36 0.930 . S
C28 C25 1.375 1_556 S
C28 C27 1.384 . S
C28 H37 0.931 . S
C29 C25 1.380 . S
C29 C30 1.390 . S
C29 H38 0.930 . S
C30 C26 1.391 . S
C30 C29 1.390 . S
C30 H39 0.930 . S
C31 Eu1 2.825 . S
C31 O16 1.238 . S
C31 O17 1.247 1_556 S
C31 C25 1.505 1_556 S
H32 C5 0.930 . S
H33 C6 0.931 . S
H34 C7 0.930 . S
H35 C8 0.930 . S
H36 C27 0.930 . S
H37 C28 0.931 . S
H38 C29 0.930 . S
H39 C30 0.930 . S
Tb40 C50 2.825 . S
Tb40 O51 2.347 1_554 S
Tb40 O54 2.366 . S
Tb40 O59 2.418 . S
Tb40 O60 2.384 1_545 S
Tb40 O63 2.479 . S
Tb40 O64 2.471 1_554 S
Eu41 O52 2.418 . S
Eu41 O53 2.384 1_565 S
Eu41 O56 2.479 . S
Eu41 O57 2.471 1_556 S
Eu41 O58 2.347 1_556 S
Eu41 O61 2.366 . S
Eu41 C71 2.825 . S
C42 O58 1.259 1_545 S
C42 O59 1.265 . S
C43 O60 1.253 1_556 S
C43 O61 1.267 . S
C44 C46 1.380 . S
C44 C47 1.374 1_554 S
C44 C50 1.507 . S
C45 C46 1.384 . S
C45 C49 1.387 1_554 S
C45 H72 0.930 . S
C46 C44 1.380 . S
C46 C45 1.384 . S
C46 H73 0.931 . S
C47 C44 1.374 1_556 S
C47 C48 1.390 . S
C47 H74 0.930 . S
C48 C47 1.390 . S
C48 C49 1.391 . S
C48 H75 0.930 . S
C49 C45 1.387 1_556 S
C49 C48 1.391 . S
C50 Tb40 2.825 . S
C50 C44 1.507 . S
C50 O63 1.238 . S
C50 O64 1.247 1_554 S
O51 Tb40 2.347 1_556 S
O51 C55 1.259 1_545 S
O52 Eu41 2.418 . S
O52 C55 1.265 . S
O53 Eu41 2.384 1_545 S
O53 C62 1.255 1_556 S
O54 Tb40 2.366 . S
O54 C62 1.265 . S
C55 O51 1.259 1_565 S
C55 O52 1.265 . S
O56 Eu41 2.479 . S
O56 C71 1.238 . S
O57 Eu41 2.471 1_554 S
O57 C71 1.247 1_554 S
O58 Eu41 2.347 1_554 S
O58 C42 1.259 1_565 S
O59 Tb40 2.418 . S
O59 C42 1.265 . S
O60 Tb40 2.384 1_565 S
O60 C43 1.253 1_554 S
O61 Eu41 2.366 . S
O61 C43 1.267 . S
C62 O53 1.255 1_554 S
C62 O54 1.265 . S
O63 Tb40 2.479 . S
O63 C50 1.238 . S
O64 Tb40 2.471 1_556 S
O64 C50 1.247 1_556 S
C65 C68 1.380 . S
C65 C69 1.374 1_556 S
C65 C71 1.507 . S
C66 C67 1.387 1_554 S
C66 C70 1.391 . S
C67 C66 1.387 1_556 S
C67 C68 1.384 . S
C67 H76 0.930 . S
C68 C65 1.380 . S
C68 C67 1.384 . S
C68 H77 0.931 . S
C69 C65 1.374 1_554 S
C69 C70 1.390 . S
C69 H78 0.930 . S
C70 C66 1.391 . S
C70 C69 1.390 . S
C70 H79 0.930 . S
C71 Eu41 2.825 . S
C71 O56 1.238 . S
C71 O57 1.247 1_556 S
C71 C65 1.507 . S
H72 C45 0.930 . S
H73 C46 0.931 . S
H74 C47 0.930 . S
H75 C48 0.930 . S
H76 C67 0.930 . S
H77 C68 0.931 . S
H78 C69 0.930 . S
H79 C70 0.930 . S
Tb80 C90 2.825 . S
Tb80 O91 2.347 1_556 S
Tb80 O94 2.366 . S
Tb80 O99 2.418 . S
Tb80 O100 2.384 . S
Tb80 O103 2.479 . S
Tb80 O104 2.471 1_556 S
Eu81 O92 2.418 . S
Eu81 O93 2.384 . S
Eu81 O96 2.479 . S
Eu81 O97 2.471 1_554 S
Eu81 O98 2.347 1_554 S
Eu81 O101 2.366 . S
Eu81 C111 2.825 . S
C82 O98 1.259 . S
C82 O99 1.265 . S
C83 O100 1.255 1_554 S
C83 O101 1.265 . S
C84 C86 1.380 . S
C84 C87 1.374 1_556 S
C84 C90 1.507 . S
C85 C86 1.384 . S
C85 C89 1.387 1_556 S
C85 H112 0.930 . S
C86 C84 1.380 . S
C86 C85 1.384 . S
C86 H113 0.931 . S
C87 C84 1.374 1_554 S
C87 C88 1.390 . S
C87 H114 0.930 . S
C88 C87 1.390 . S
C88 C89 1.391 . S
C88 H115 0.930 . S
C89 C85 1.387 1_554 S
C89 C88 1.391 . S
C90 Tb80 2.825 . S
C90 C84 1.507 . S
C90 O103 1.238 . S
C90 O104 1.247 1_556 S
O91 Tb80 2.347 1_554 S
O91 C95 1.259 . S
O92 Eu81 2.418 . S
O92 C95 1.265 . S
O93 Eu81 2.384 . S
O93 C102 1.255 1_554 S
O94 Tb80 2.366 . S
O94 C102 1.265 . S
C95 O91 1.259 . S
C95 O92 1.265 . S
O96 Eu81 2.479 . S
O96 C111 1.238 . S
O97 Eu81 2.471 1_556 S
O97 C111 1.247 1_556 S
O98 Eu81 2.347 1_556 S
O98 C82 1.259 . S
O99 Tb80 2.418 . S
O99 C82 1.265 . S
O100 Tb80 2.384 . S
O100 C83 1.255 1_556 S
O101 Eu81 2.366 . S
O101 C83 1.265 . S
C102 O93 1.255 1_556 S
C102 O94 1.265 . S
O103 Tb80 2.479 . S
O103 C90 1.238 . S
O104 Tb80 2.471 1_554 S
O104 C90 1.247 1_554 S
C105 C108 1.380 . S
C105 C109 1.374 1_554 S
C105 C111 1.507 . S
C106 C107 1.387 1_556 S
C106 C110 1.391 . S
C107 C106 1.387 1_554 S
C107 C108 1.384 . S
C107 H116 0.930 . S
C108 C105 1.380 . S
C108 C107 1.384 . S
C108 H117 0.931 . S
C109 C105 1.374 1_556 S
C109 C110 1.390 . S
C109 H118 0.930 . S
C110 C106 1.391 . S
C110 C109 1.390 . S
C110 H119 0.930 . S
C111 Eu81 2.825 . S
C111 O96 1.238 . S
C111 O97 1.247 1_554 S
C111 C105 1.507 . S
H112 C85 0.930 . S
H113 C86 0.931 . S
H114 C87 0.930 . S
H115 C88 0.930 . S
H116 C107 0.930 . S
H117 C108 0.931 . S
H118 C109 0.930 . S
H119 C110 0.930 . S
H120 C128 0.950 . S
H121 C133 0.950 . S
H122 C130 0.950 . S
H123 C132 0.950 . S
H124 C134 0.950 . S
H125 C136 0.950 . S
H126 C138 0.950 . S
H127 C139 0.950 . S
C128 H120 0.950 . S
C128 C129 1.386 1_655 S
C128 C130 1.391 . S
C129 C128 1.386 1_455 S
C129 C133 1.393 . S
C130 H122 0.950 . S
C130 C128 1.391 . S
C130 C131 1.400 1_655 S
C131 C130 1.400 1_455 S
C131 C132 1.398 . S
C131 C137 1.491 . S
C132 H123 0.950 . S
C132 C131 1.398 . S
C132 C133 1.391 . S
C133 H121 0.950 . S
C133 C129 1.393 . S
C133 C132 1.391 . S
C134 H124 0.950 . S
C134 C135 1.386 . S
C134 C136 1.391 . S
C135 C134 1.386 . S
C135 C139 1.393 1_455 S
C136 H125 0.950 . S
C136 C134 1.391 . S
C136 C137 1.400 . S
C137 C131 1.491 . S
C137 C136 1.400 . S
C137 C138 1.398 1_455 S
C138 H126 0.950 . S
C138 C137 1.398 1_655 S
C138 C139 1.391 . S
C139 H127 0.950 . S
C139 C135 1.393 1_655 S
C139 C138 1.391 . S
H140 C148 0.950 . S
H141 C153 0.950 . S
H142 C150 0.950 . S
H143 C152 0.950 . S
H144 C154 0.950 . S
H145 C156 0.950 . S
H146 C158 0.950 . S
H147 C159 0.950 . S
C148 H140 0.950 . S
C148 C149 1.375 1_545 S
C148 C150 1.391 . S
C149 C148 1.375 1_565 S
C149 C153 1.403 . S
C150 H142 0.950 . S
C150 C148 1.391 . S
C150 C151 1.407 . S
C151 C150 1.407 . S
C151 C152 1.391 1_545 S
C151 C157 1.490 . S
C152 H143 0.950 . S
C152 C151 1.391 1_565 S
C152 C153 1.391 . S
C153 H141 0.950 . S
C153 C149 1.403 . S
C153 C152 1.391 . S
C154 H144 0.950 . S
C154 C155 1.386 1_565 S
C154 C156 1.391 . S
C155 C154 1.386 1_545 S
C155 C159 1.393 . S
C156 H145 0.950 . S
C156 C154 1.391 . S
C156 C157 1.388 1_565 S
C157 C151 1.490 . S
C157 C156 1.388 1_545 S
C157 C158 1.411 . S
C158 H146 0.950 . S
C158 C157 1.411 . S
C158 C159 1.391 . S
C159 H147 0.950 . S
C159 C155 1.393 . S
C159 C158 1.391 . S
H160 C168 0.950 . S
H161 C173 0.950 . S
H162 C170 0.950 . S
H163 C172 0.950 . S
H164 C174 0.950 . S
H165 C176 0.950 . S
H166 C178 0.950 . S
H167 C179 0.950 . S
C168 H160 0.950 . S
C168 C169 1.386 . S
C168 C170 1.391 . S
C169 C168 1.386 . S
C169 C173 1.393 . S
C170 H162 0.950 . S
C170 C168 1.391 . S
C170 C171 1.400 . S
C171 C170 1.400 . S
C171 C172 1.398 . S
C171 C177 1.491 . S
C172 H163 0.950 . S
C172 C171 1.398 . S
C172 C173 1.391 . S
C173 H161 0.950 . S
C173 C169 1.393 . S
C173 C172 1.391 . S
C174 H164 0.950 . S
C174 C175 1.386 . S
C174 C176 1.391 . S
C175 C174 1.386 . S
C175 C179 1.393 . S
C176 H165 0.950 . S
C176 C174 1.391 . S
C176 C177 1.400 . S
C177 C171 1.491 . S
C177 C176 1.400 . S
C177 C178 1.398 . S
C178 H166 0.950 . S
C178 C177 1.398 . S
C178 C179 1.391 . S
C179 H167 0.950 . S
C179 C175 1.393 . S
C179 C178 1.391 . S
H180 C188 0.950 . S
H181 C193 0.950 . S
H182 C190 0.950 . S
H183 C192 0.950 . S
H184 C194 0.950 . S
H185 C196 0.950 . S
H186 C198 0.950 . S
H187 C199 0.950 . S
C188 H180 0.950 . S
C188 C189 1.386 . S
C188 C190 1.391 . S
C189 C188 1.386 . S
C189 C193 1.393 1_556 S
C190 H182 0.950 . S
C190 C188 1.391 . S
C190 C191 1.400 . S
C191 C190 1.400 . S
C191 C192 1.398 1_556 S
C191 C197 1.490 . S
C192 H183 0.950 . S
C192 C191 1.398 1_554 S
C192 C193 1.391 . S
C193 H181 0.950 . S
C193 C189 1.393 1_554 S
C193 C192 1.391 . S
C194 H184 0.950 . S
C194 C195 1.386 . S
C194 C196 1.391 . S
C195 C194 1.386 . S
C195 C199 1.393 1_554 S
C196 H185 0.950 . S
C196 C194 1.391 . S
C196 C197 1.395 1_554 S
C197 C191 1.490 . S
C197 C196 1.395 1_556 S
C197 C198 1.404 . S
C198 H186 0.950 . S
C198 C197 1.404 . S
C198 C199 1.391 . S
C199 H187 0.950 . S
C199 C195 1.393 1_556 S
C199 C198 1.391 . S
H200 C208 0.950 . S
H201 C213 0.950 1_554 S
H202 C210 0.950 . S
H203 C212 0.950 1_554 S
H204 C214 0.950 . S
H205 C216 0.951 . S
H206 C218 0.950 . S
H207 C219 0.950 . S
C208 H200 0.950 . S
C208 C209 1.386 . S
C208 C210 1.391 . S
C209 C208 1.386 . S
C209 C213 1.393 . S
C210 H202 0.950 . S
C210 C208 1.391 . S
C210 C211 1.400 . S
C211 C210 1.400 . S
C211 C212 1.398 . S
C211 C217 1.491 . S
C212 H203 0.950 1_556 S
C212 C211 1.398 . S
C212 C213 1.391 . S
C213 H201 0.950 1_556 S
C213 C209 1.393 . S
C213 C212 1.391 . S
C214 H204 0.950 . S
C214 C215 1.386 . S
C214 C216 1.391 . S
C215 C214 1.386 . S
C215 C219 1.393 . S
C216 H205 0.951 . S
C216 C214 1.391 . S
C216 C217 1.400 . S
C217 C211 1.491 . S
C217 C216 1.400 . S
C217 C218 1.398 . S
C218 H206 0.950 . S
C218 C217 1.398 . S
C218 C219 1.391 . S
C219 H207 0.950 . S
C219 C215 1.393 . S
C219 C218 1.391 . S
H220 C228 0.950 . S
H221 C233 0.950 . S
H222 C230 0.950 . S
H223 C232 0.950 . S
H224 C234 0.950 . S
H225 C236 0.950 . S
H226 C238 0.950 . S
H227 C239 0.950 . S
C228 H220 0.950 . S
C228 C229 1.386 . S
C228 C230 1.391 . S
C229 C228 1.386 . S
C229 C233 1.393 1_556 S
C230 H222 0.950 . S
C230 C228 1.391 . S
C230 C231 1.400 . S
C231 C230 1.400 . S
C231 C232 1.398 1_556 S
C231 C237 1.491 . S
C232 H223 0.950 . S
C232 C231 1.398 1_554 S
C232 C233 1.391 . S
C233 H221 0.950 . S
C233 C229 1.393 1_554 S
C233 C232 1.391 . S
C234 H224 0.950 . S
C234 C235 1.386 1_554 S
C234 C236 1.391 . S
C235 C234 1.386 1_556 S
C235 C239 1.393 . S
C236 H225 0.950 . S
C236 C234 1.391 . S
C236 C237 1.400 1_554 S
C237 C231 1.491 . S
C237 C236 1.400 1_556 S
C237 C238 1.398 . S
C238 H226 0.950 . S
C238 C237 1.398 . S
C238 C239 1.391 . S
C239 H227 0.950 . S
C239 C235 1.393 . S
C239 C238 1.391 . S
H240 C248 0.950 . S
H241 C253 0.950 . S
H242 C250 0.950 1_556 S
H243 C252 0.950 . S
H244 C254 0.949 1_554 S
H245 C256 0.950 . S
H246 C258 0.950 . S
H247 C259 0.950 . S
C248 H240 0.950 . S
C248 C249 1.386 . S
C248 C250 1.391 . S
C249 C248 1.386 . S
C249 C253 1.393 . S
C250 H242 0.950 1_554 S
C250 C248 1.391 . S
C250 C251 1.400 . S
C251 C250 1.400 . S
C251 C252 1.398 . S
C251 C257 1.491 . S
C252 H243 0.950 . S
C252 C251 1.398 . S
C252 C253 1.391 . S
C253 H241 0.950 . S
C253 C249 1.393 . S
C253 C252 1.391 . S
C254 H244 0.949 1_556 S
C254 C255 1.386 . S
C254 C256 1.391 1_556 S
C255 C254 1.386 . S
C255 C259 1.393 . S
C256 H245 0.950 . S
C256 C254 1.391 1_554 S
C256 C257 1.400 . S
C257 C251 1.491 . S
C257 C256 1.400 . S
C257 C258 1.398 1_554 S
C258 H246 0.950 . S
C258 C257 1.398 1_556 S
C258 C259 1.391 . S
C259 H247 0.950 . S
C259 C255 1.393 . S
C259 C258 1.391 . S
H260 C268 0.950 . S
H261 C273 0.950 . S
H262 C270 0.950 . S
H263 C272 0.950 . S
H264 C274 0.950 . S
H265 C276 0.950 . S
H266 C278 0.950 . S
H267 C279 0.950 . S
C268 H260 0.950 . S
C268 C269 1.386 1_556 S
C268 C270 1.391 . S
C269 C268 1.386 1_554 S
C269 C273 1.393 . S
C270 H262 0.950 . S
C270 C268 1.391 . S
C270 C271 1.400 1_556 S
C271 C270 1.400 1_554 S
C271 C272 1.398 . S
C271 C277 1.491 . S
C272 H263 0.950 . S
C272 C271 1.398 . S
C272 C273 1.391 . S
C273 H261 0.950 . S
C273 C269 1.393 . S
C273 C272 1.391 . S
C274 H264 0.950 . S
C274 C275 1.386 . S
C274 C276 1.391 . S
C275 C274 1.386 . S
C275 C279 1.393 1_554 S
C276 H265 0.950 . S
C276 C274 1.391 . S
C276 C277 1.400 . S
C277 C271 1.491 . S
C277 C276 1.400 . S
C277 C278 1.398 1_554 S
C278 H266 0.950 . S
C278 C277 1.398 1_556 S
C278 C279 1.391 . S
C279 H267 0.950 . S
C279 C275 1.393 1_556 S
C279 C278 1.391 . S
H280 C288 0.950 . S
H281 C293 0.950 . S
H282 C290 0.950 . S
H283 C292 0.950 . S
H284 C294 0.950 . S
H285 C296 0.950 . S
H286 C298 0.950 . S
H287 C299 0.950 . S
C288 H280 0.950 . S
C288 C289 1.386 1_556 S
C288 C290 1.391 . S
C289 C288 1.386 1_554 S
C289 C293 1.393 . S
C290 H282 0.950 . S
C290 C288 1.391 . S
C290 C291 1.400 1_556 S
C291 C290 1.400 1_554 S
C291 C292 1.398 . S
C291 C297 1.491 . S
C292 H283 0.950 . S
C292 C291 1.398 . S
C292 C293 1.391 . S
C293 H281 0.950 . S
C293 C289 1.393 . S
C293 C292 1.391 . S
C294 H284 0.950 . S
C294 C295 1.387 . S
C294 C296 1.391 . S
C295 C294 1.387 . S
C295 C299 1.392 1_554 S
C296 H285 0.950 . S
C296 C294 1.391 . S
C296 C297 1.400 . S
C297 C291 1.491 . S
C297 C296 1.400 . S
C297 C298 1.398 1_554 S
C298 H286 0.950 . S
C298 C297 1.398 1_556 S
C298 C299 1.391 . S
C299 H287 0.950 . S
C299 C295 1.392 1_556 S
C299 C298 1.391 . S
C129 C15 1.470 1_455 S
C135 C2 1.470 . S
C149 C42 1.474 1_565 S
C155 C55 1.472 1_545 S
C169 C82 1.456 . S
C175 C95 1.456 . S
C189 C9 0.881 . S
C195 C89 0.866 . S
C209 C49 1.926 . S
C215 C3 2.007 . S
C229 C43 2.575 . S
C235 C102 2.608 . S
C249 C26 0.880 . S
C255 C106 0.872 . S
C269 C22 2.011 . S
C275 C66 1.934 . S
C289 C83 2.609 . S
C295 C62 2.575 . S
