# Generated by pormake.
# Topology wkj, (6)-cn, num edge types: 1
# Building blocks:
#     Node 0, Type 0, BuildingBlock: PAMTUU_clean_sbu_0, # of connection points: 6
#     Node 1, Type 0, BuildingBlock: PAMTUU_clean_sbu_0, # of connection points: 6
#     Node 2, Type 0, BuildingBlock: PAMTUU_clean_sbu_0, # of connection points: 6
#     Node 3, Type 0, BuildingBlock: PAMTUU_clean_sbu_0, # of connection points: 6
#     Node 4, Type 0, BuildingBlock: PAMTUU_clean_sbu_0, # of connection points: 6
#     Node 5, Type 0, BuildingBlock: PAMTUU_clean_sbu_0, # of connection points: 6
#     Node 6, Type 0, BuildingBlock: PAMTUU_clean_sbu_0, # of connection points: 6
#     Node 7, Type 0, BuildingBlock: PAMTUU_clean_sbu_0, # of connection points: 6
#     Node 8, Type 0, BuildingBlock: PAMTUU_clean_sbu_0, # of connection points: 6
#     Node 9, Type 0, BuildingBlock: PAMTUU_clean_sbu_0, # of connection points: 6
#     Node 10, Type 0, BuildingBlock: PAMTUU_clean_sbu_0, # of connection points: 6
#     Node 11, Type 0, BuildingBlock: PAMTUU_clean_sbu_0, # of connection points: 6
#     Edge 12, Type (0, 0), BuildingBlock: OJICUG_clean_linker_0, # of connection points: 2
#     Edge 13, Type (0, 0), BuildingBlock: OJICUG_clean_linker_0, # of connection points: 2
#     Edge 14, Type (0, 0), BuildingBlock: OJICUG_clean_linker_0, # of connection points: 2
#     Edge 15, Type (0, 0), BuildingBlock: OJICUG_clean_linker_0, # of connection points: 2
#     Edge 16, Type (0, 0), BuildingBlock: OJICUG_clean_linker_0, # of connection points: 2
#     Edge 17, Type (0, 0), BuildingBlock: OJICUG_clean_linker_0, # of connection points: 2
#     Edge 18, Type (0, 0), BuildingBlock: OJICUG_clean_linker_0, # of connection points: 2
#     Edge 19, Type (0, 0), BuildingBlock: OJICUG_clean_linker_0, # of connection points: 2
#     Edge 20, Type (0, 0), BuildingBlock: OJICUG_clean_linker_0, # of connection points: 2
#     Edge 21, Type (0, 0), BuildingBlock: OJICUG_clean_linker_0, # of connection points: 2
#     Edge 22, Type (0, 0), BuildingBlock: OJICUG_clean_linker_0, # of connection points: 2
#     Edge 23, Type (0, 0), BuildingBlock: OJICUG_clean_linker_0, # of connection points: 2
#     Edge 24, Type (0, 0), BuildingBlock: OJICUG_clean_linker_0, # of connection points: 2
#     Edge 25, Type (0, 0), BuildingBlock: OJICUG_clean_linker_0, # of connection points: 2
#     Edge 26, Type (0, 0), BuildingBlock: OJICUG_clean_linker_0, # of connection points: 2
#     Edge 27, Type (0, 0), BuildingBlock: OJICUG_clean_linker_0, # of connection points: 2
#     Edge 28, Type (0, 0), BuildingBlock: OJICUG_clean_linker_0, # of connection points: 2
#     Edge 29, Type (0, 0), BuildingBlock: OJICUG_clean_linker_0, # of connection points: 2
#     Edge 30, Type (0, 0), BuildingBlock: OJICUG_clean_linker_0, # of connection points: 2
#     Edge 31, Type (0, 0), BuildingBlock: OJICUG_clean_linker_0, # of connection points: 2
#     Edge 32, Type (0, 0), BuildingBlock: OJICUG_clean_linker_0, # of connection points: 2
#     Edge 33, Type (0, 0), BuildingBlock: OJICUG_clean_linker_0, # of connection points: 2
#     Edge 34, Type (0, 0), BuildingBlock: OJICUG_clean_linker_0, # of connection points: 2
#     Edge 35, Type (0, 0), BuildingBlock: OJICUG_clean_linker_0, # of connection points: 2
#     Edge 36, Type (0, 0), BuildingBlock: OJICUG_clean_linker_0, # of connection points: 2
#     Edge 37, Type (0, 0), BuildingBlock: OJICUG_clean_linker_0, # of connection points: 2
#     Edge 38, Type (0, 0), BuildingBlock: OJICUG_clean_linker_0, # of connection points: 2
#     Edge 39, Type (0, 0), BuildingBlock: OJICUG_clean_linker_0, # of connection points: 2
#     Edge 40, Type (0, 0), BuildingBlock: OJICUG_clean_linker_0, # of connection points: 2
#     Edge 41, Type (0, 0), BuildingBlock: OJICUG_clean_linker_0, # of connection points: 2
#     Edge 42, Type (0, 0), BuildingBlock: OJICUG_clean_linker_0, # of connection points: 2
#     Edge 43, Type (0, 0), BuildingBlock: OJICUG_clean_linker_0, # of connection points: 2
#     Edge 44, Type (0, 0), BuildingBlock: OJICUG_clean_linker_0, # of connection points: 2
#     Edge 45, Type (0, 0), BuildingBlock: OJICUG_clean_linker_0, # of connection points: 2
#     Edge 46, Type (0, 0), BuildingBlock: OJICUG_clean_linker_0, # of connection points: 2
#     Edge 47, Type (0, 0), BuildingBlock: OJICUG_clean_linker_0, # of connection points: 2
# Relax obj value: 1.189
# Max RMSD: 0.189
# Mean RMSD: 0.189
data_MOF--net-wkj--node1-PAMTUU_clean_sbu_0--edge1-OJICUG_clean_linker_0
_symmetry_space_group_name_H-M    P1
_symmetry_Int_Tables_number       1
_symmetry_cell_setting            triclinic
loop_
_symmetry_equiv_pos_as_xyz
'x, y, z'
_cell_length_a     38.429229
_cell_length_b     38.544213
_cell_length_c     21.383772
_cell_angle_alpha  89.985894
_cell_angle_beta   90.217901
_cell_angle_gamma 120.82181
loop_
_atom_site_label
_atom_site_type_symbol
_atom_site_fract_x
_atom_site_fract_y
_atom_site_fract_z
_atom_type_partial_charge
Tb0 Tb 0.52797 0.1146 0.4297 0.0
Tb1 Tb 0.43469 0.07867 0.47393 0.0
C2 C 0.47649 0.03272 0.47987 0.0
C3 C 0.62423 0.19281 0.36172 0.0
C4 C 0.64665 0.26063 0.28525 0.0
C5 C 0.63659 0.22309 0.25891 0.0
C6 C 0.62556 0.18954 0.29665 0.0
C7 C 0.63913 0.23147 0.38836 0.0
C8 C 0.6498 0.26501 0.35043 0.0
C9 C 0.60189 0.15615 0.40099 0.0
O10 O 0.49267 0.07629 0.34286 0.0
O11 O 0.42735 0.05719 0.37151 0.0
O12 O 0.45456 0.14202 0.46263 0.0
O13 O 0.51155 0.16035 0.40539 0.0
O14 O 0.38667 0.03887 0.53118 0.0
O15 O 0.37687 0.06958 0.45439 0.0
O16 O 0.46721 0.08893 0.5697 0.0
O17 O 0.53261 0.11254 0.53705 0.0
O18 O 0.51433 0.06072 0.47976 0.0
O19 O 0.45279 0.03797 0.44404 0.0
C20 C 0.45269 0.05686 0.32823 0.0
O21 O 0.58619 0.1616 0.45119 0.0
O22 O 0.57638 0.12195 0.37333 0.0
C23 C 0.48368 0.16769 0.42618 0.0
C24 C 0.32721 0.04202 0.53423 0.0
C25 C 0.26674 0.02803 0.62131 0.0
C26 C 0.25969 -0.00074 0.57465 0.0
C27 C 0.2896 0.00633 0.53161 0.0
C28 C 0.33327 0.07284 0.5755 0.0
C29 C 0.30284 0.06614 0.61813 0.0
C30 C 0.36021 0.0431 0.49908 0.0
C31 C 0.50606 0.10107 0.58457 0.0
H32 H 0.63256 0.21839 1.20896 0.0
H33 H 0.61479 0.16046 0.27459 0.0
H34 H 0.63932 0.23523 0.43859 0.0
H35 H 0.6571 0.29341 0.372 0.0
H36 H 0.23286 0.96946 0.57456 0.0
H37 H 0.28444 -0.01761 0.49943 0.0
H38 H 0.36215 0.10092 0.57724 0.0
H39 H 0.30895 0.08975 0.65144 0.0
Tb40 Tb 0.38628 0.52214 0.75243 0.0
Tb41 Tb 0.33651 0.43131 0.79885 0.0
C42 C 0.42362 0.48384 0.83386 0.0
C43 C 0.4082 0.6206 0.69378 0.0
C44 C 0.36134 0.64661 0.62989 0.0
C45 C 0.35101 0.6311 0.69113 0.0
C46 C 0.37376 0.61735 0.72222 0.0
C47 C 0.42257 0.64257 0.63836 0.0
C48 C 0.39955 0.65565 0.60675 0.0
C49 C 0.4235 0.59412 0.7128 0.0
O50 O 0.39203 0.4879 0.66966 0.0
O51 O 0.37134 0.42688 0.716 0.0
O52 O 0.29585 0.4394 0.73643 0.0
O53 O 0.32292 0.50685 0.74436 0.0
O54 O 0.3241 0.3715 0.80239 0.0
O55 O 0.28018 0.38723 0.83388 0.0
O56 O 0.34853 0.46849 0.89158 0.0
O57 O 0.39049 0.5335 0.85706 0.0
O58 O 0.42643 0.50132 0.78013 0.0
O59 O 0.38985 0.45302 0.85262 0.0
C60 C 0.38847 0.45147 0.66714 0.0
O61 O 0.42064 0.58458 0.77166 0.0
O62 O 0.41123 0.56253 0.67732 0.0
C63 C 0.29212 0.47105 0.73033 0.0
C64 C 0.27165 0.32496 0.86892 0.0
C65 C 0.23943 0.2592 0.95179 0.0
C66 C 0.24106 0.25295 0.88752 0.0
C67 C 0.25695 0.28564 0.84639 0.0
C68 C 0.26918 0.33132 0.93268 0.0
C69 C 0.25318 0.29871 0.97378 0.0
C70 C 0.28771 0.35822 0.82411 0.0
C71 C 0.37348 0.5084 0.90528 0.0
H72 H 0.32311 0.62551 0.71245 0.0
H73 H 0.36234 0.60099 0.76569 0.0
H74 H 0.44934 0.64579 0.61599 0.0
H75 H 0.40981 0.6682 0.56063 0.0
H76 H 0.23103 0.22303 0.86937 0.0
H77 H 0.25824 0.28029 0.79693 0.0
H78 H 0.28025 0.36147 0.95081 0.0
H79 H 0.2535 0.30483 1.02328 0.0
Tb80 Tb 0.81381 0.37978 1.07987 0.0
Tb81 Tb 0.87862 0.37034 1.12618 0.0
C82 C 0.88213 0.45631 1.09447 0.0
C83 C 0.71278 0.33751 1.00185 0.0
C84 C 0.64983 0.27109 0.93712 0.0
C85 C 0.6611 0.31115 0.92124 0.0
C86 C 0.6924 0.34397 0.95322 0.0
C87 C 0.69876 0.29809 1.02244 0.0
C88 C 0.66694 0.26514 0.99133 0.0
C89 C 0.75096 0.3715 1.02589 0.0
O90 O 0.85707 0.38423 0.99256 0.0
O91 O 0.9151 0.39999 1.04142 0.0
O92 O 0.82844 0.31036 1.08927 0.0
O93 O 0.78241 0.3219 1.1259 0.0
O94 O 0.91386 0.36764 1.19924 0.0
O95 O 0.91777 0.34923 1.10534 0.0
O96 O 0.86118 0.38318 0.22152 0.0
O97 O 0.82302 0.40728 1.18208 0.0
O98 O 0.84419 0.44081 1.08792 0.0
O99 O 0.89967 0.43483 1.10823 0.0
C100 C 0.8977 0.39662 0.98698 0.0
O101 O 0.75619 0.37347 1.08607 0.0
O102 O 0.78343 0.37801 0.99687 0.0
C103 C 0.79066 0.29539 1.10656 0.0
C104 C 0.91986 0.30969 1.18618 0.0
C105 C 0.91309 0.23839 0.23449 0.0
C106 C 0.93443 0.25547 1.17867 0.0
C107 C 0.93829 0.29116 1.15535 0.0
C108 C 0.89434 0.29004 0.23693 0.0
C109 C 0.89095 0.25485 0.26079 0.0
C110 C 0.92663 0.34877 1.16392 0.0
C111 C 0.84163 0.40277 0.23311 0.0
H112 H 0.64902 0.31771 0.88009 0.0
H113 H 0.70259 0.37433 0.93698 0.0
H114 H 0.71336 0.29294 1.06126 0.0
H115 H 0.65802 0.23498 1.0065 0.0
H116 H 0.95071 0.24308 1.15559 0.0
H117 H 0.9569 0.30508 1.11449 0.0
H118 H 0.87843 0.30279 0.26022 0.0
H119 H 0.87375 0.24307 0.30339 0.0
Tb120 Tb 0.39213 0.84184 0.43088 0.0
Tb121 Tb 0.4789 0.87387 0.48004 0.0
C122 C 0.43332 0.91511 0.52697 0.0
C123 C 0.30305 0.76925 0.34159 0.0
C124 C 0.29191 0.71618 0.24243 0.0
C125 C 0.29647 0.7543 0.23061 0.0
C126 C 0.30191 0.78052 0.27964 0.0
C127 C 0.29348 0.7293 0.3537 0.0
C128 C 0.28829 0.70313 0.30455 0.0
C129 C 0.32025 0.80018 0.39189 0.0
O130 O 0.42637 0.88641 0.35159 0.0
O131 O 0.49023 0.90928 0.38844 0.0
O132 O 0.45019 0.80809 0.47847 0.0
O133 O 0.41198 0.80089 0.39536 0.0
O134 O 0.53333 0.9073 0.52951 0.0
O135 O 0.52805 0.86759 0.45394 0.0
O136 O 0.44587 0.85515 0.57414 0.0
O137 O 0.38167 0.8332 0.53696 0.0
O138 O 0.4014 0.89075 0.49245 0.0
O139 O 0.46869 0.91841 0.51975 0.0
C140 C 0.46641 0.91052 0.3437 0.0
O141 O 0.33473 0.79042 0.43951 0.0
O142 O 0.34464 0.83784 0.37531 0.0
C143 C 0.42989 0.78666 0.43005 0.0
C144 C 0.57172 0.87586 0.53705 0.0
C145 C 0.61911 0.86581 0.62687 0.0
C146 C 0.6354 0.88213 0.56784 0.0
C147 C 0.61193 0.88773 0.52353 0.0
C148 C 0.55351 0.8535 0.59107 0.0
C149 C 0.57699 0.8484 0.6357 0.0
C150 C 0.55086 0.89116 0.49891 0.0
C151 C 0.40657 0.8416 0.58628 0.0
H152 H 0.30019 0.76576 1.18339 0.0
H153 H 0.30855 0.81076 0.26867 0.0
H154 H 0.2932 0.71921 0.40109 0.0
H155 H 0.28461 0.67395 0.31517 0.0
H156 H 0.66731 0.89456 0.55851 0.0
H157 H 0.62605 0.90412 0.48096 0.0
H158 H 0.52209 0.84323 0.60136 0.0
H159 H 0.56281 0.8352 0.67996 0.0
Tb160 Tb 0.55072 0.46398 0.77278 0.0
Tb161 Tb 0.62006 0.54389 0.79535 0.0
C162 C 0.54723 0.5283 0.86638 0.0
C163 C 0.53009 0.39702 0.65387 0.0
C164 C 0.58671 0.39571 0.57014 0.0
C165 C 0.55065 0.35959 0.58719 0.0
C166 C 0.52313 0.36019 0.62988 0.0
C167 C 0.5628 0.43294 0.62992 0.0
C168 C 0.59127 0.43242 0.59037 0.0
C169 C 0.5113 0.39978 0.7129 0.0
O170 O 0.53901 0.49708 0.69489 0.0
O171 O 0.59497 0.55863 0.70587 0.0
O172 O 0.63621 0.52029 0.71608 0.0
O173 O 0.60889 0.46422 0.76766 0.0
O174 O 0.65893 0.60665 0.79677 0.0
O175 O 0.68097 0.56635 0.81921 0.0
O176 O 0.60443 0.5061 0.89255 0.0
O177 O 0.54267 0.44964 0.87407 0.0
O178 O 0.52815 0.49128 0.841 0.0
O179 O 0.58179 0.55695 0.84628 0.0
C180 C 0.56101 0.53435 0.67281 0.0
O181 O 0.5319 0.40225 0.76304 0.0
O182 O 0.50107 0.42725 0.71389 0.0
C183 C 0.63694 0.48808 0.72865 0.0
C184 C 0.71222 0.63023 0.86858 0.0
C185 C 0.74199 0.68422 0.96977 0.0
C186 C 0.75287 0.69861 0.90838 0.0
C187 C 0.73804 0.67169 0.85803 0.0
C188 C 0.70443 0.61542 0.92983 0.0
C189 C 0.71947 0.64219 0.98007 0.0
C190 C 0.68972 0.60388 0.81595 0.0
C191 C 0.57127 0.47149 0.91593 0.0
H192 H 0.54642 0.33061 0.57355 0.0
H193 H 0.49848 0.33196 0.64768 0.0
H194 H 0.56933 0.46186 0.64737 0.0
H195 H 0.6186 0.46085 0.58102 0.0
H196 H 0.77018 0.73077 0.89915 0.0
H197 H 0.74444 0.68349 0.8108 0.0
H198 H 0.68445 0.58349 0.93891 0.0
H199 H 0.70992 0.63 1.02664 0.0
Tb200 Tb 0.10337 0.5782 1.09256 0.0
Tb201 Tb 0.06325 0.61832 1.1491 0.0
C202 C 0.01975 0.52711 1.14307 0.0
C203 C 0.18943 0.59908 1.00635 0.0
C204 C 0.19837 0.57392 0.89314 0.0
C205 C 0.17441 0.59215 0.89772 0.0
C206 C 0.16875 0.60355 0.9562 0.0
C207 C 0.22652 0.60166 0.99407 0.0
C208 C 0.23296 0.59267 0.93284 0.0
C209 C 0.16486 0.5773 1.06053 0.0
O210 O 0.06189 0.56672 1.00689 0.0
O211 O 0.0313 0.59783 1.05127 0.0
O212 O 0.12814 0.66444 1.1483 0.0
O213 O 0.12912 0.63984 1.0564 0.0
O214 O 0.01866 0.6221 1.19997 0.0
O215 O 0.05944 0.67036 1.13797 0.0
O216 O 0.08351 0.60342 0.24152 0.0
O217 O 0.10343 0.56274 1.19645 0.0
O218 O 0.0447 0.52532 1.10371 0.0
O219 O 0.03372 0.55721 1.18135 0.0
C220 C 0.03387 0.57777 1.00129 0.0
O221 O 0.16548 0.60078 1.10497 0.0
O222 O 0.12792 0.54757 1.04713 0.0
C223 C 0.14709 0.6698 1.09563 0.0
C224 C 0.02595 0.68682 0.21435 0.0
C225 C 0.00429 0.7327 0.28889 0.0
C226 C -0.00032 0.732 0.22373 0.0
C227 C 0.0105 0.70922 1.18676 0.0
C228 C 0.03394 0.69017 0.27858 0.0
C229 C 0.02331 0.7131 0.31562 0.0
C230 C 0.02869 0.65704 1.17564 0.0
C231 C 0.09644 0.57707 0.24906 0.0
H232 H 0.15423 0.59113 0.86166 0.0
H233 H 0.14292 0.60716 0.96329 0.0
H234 H 0.24559 0.60213 1.03188 0.0
H235 H 0.25717 0.58645 0.9261 0.0
H236 H -0.0148 0.74677 1.20192 0.0
H237 H 0.00439 0.70704 1.13694 0.0
H238 H 0.04601 0.67318 0.30054 0.0
H239 H 0.02674 0.71243 0.36583 0.0
Tb240 Tb 0.83986 0.44479 0.6693 0.0
Tb241 Tb 0.88008 0.53874 0.62998 0.0
C242 C 0.92641 0.49959 0.64848 0.0
C243 C 0.77265 0.33649 0.70365 0.0
C244 C 0.69474 0.27125 0.73247 0.0
C245 C 0.70268 0.31132 0.73126 0.0
C246 C 0.74114 0.34346 0.717 0.0
C247 C 0.76447 0.29671 0.69961 0.0
C248 C 0.72575 0.26427 0.7136 0.0
C249 C 0.81351 0.37071 0.69153 0.0
O250 O 0.87914 0.47781 0.75863 0.0
O251 O 0.90475 0.54439 0.73211 0.0
O252 O 0.81575 0.51758 0.64772 0.0
O253 O 0.78794 0.45252 0.68363 0.0
O254 O 0.91785 0.58975 0.57645 0.0
O255 O 0.88049 0.59229 0.65008 0.0
O256 O 0.8674 0.50593 0.53214 0.0
O257 O 0.83451 0.4391 0.56168 0.0
O258 O 0.89442 0.47448 0.61839 0.0
O259 O 0.93186 0.53518 0.65514 0.0
C260 C 0.90347 0.51747 0.77433 0.0
O261 O 0.81825 0.38597 0.63616 0.0
O262 O 0.82927 0.399 0.73391 0.0
C263 C 0.7849 0.48419 0.67057 0.0
C264 C 0.89767 0.63798 0.56641 0.0
C265 C 0.90606 0.69634 0.47994 0.0
C266 C 0.91564 0.70674 0.54331 0.0
C267 C 0.91196 0.67772 0.58617 0.0
C268 C 0.88145 0.62604 0.50626 0.0
C269 C 0.8854 0.65502 0.46328 0.0
C270 C 0.90606 0.61186 0.60535 0.0
C271 C 0.84904 0.46632 0.51477 0.0
H272 H 0.68026 0.31861 0.74607 0.0
H273 H 0.74663 0.37395 0.71877 0.0
H274 H 0.7883 0.29079 0.68745 0.0
H275 H 0.72077 0.23397 0.7131 0.0
H276 H 0.93047 0.73802 0.5581 0.0
H277 H 0.92373 0.68714 0.63316 0.0
H278 H 0.8694 0.59518 0.49071 0.0
H279 H 0.87703 0.6454 0.41524 0.0
Tb280 Tb 0.38959 0.8823 0.99516 0.0
Tb281 Tb 0.316 0.89046 0.97687 0.0
C282 C 0.38647 0.94686 0.89915 0.0
C283 C 0.43563 0.82285 1.02641 0.0
C284 C 0.39078 0.74123 1.06115 0.0
C285 C 0.38695 0.75292 1.00031 0.0
C286 C 0.40869 0.79371 0.98349 0.0
C287 C 0.44617 0.81 1.08062 0.0
C288 C 0.42408 0.76938 1.09783 0.0
C289 C 0.44105 0.8635 1.02622 0.0
O290 O 0.40425 0.92989 1.06886 0.0
O291 O 0.34775 0.93447 1.05976 0.0
O292 O 0.30391 0.84992 1.05404 0.0
O293 O 0.33219 0.82192 1.00256 0.0
O294 O 0.27994 0.91562 0.9913 0.0
O295 O 0.254 0.85531 0.95291 0.0
O296 O 0.3276 0.86624 0.88011 0.0
O297 O 0.38627 0.866 0.89743 0.0
O298 O 0.40766 0.93383 0.9308 0.0
O299 O 0.35016 0.93723 0.91415 0.0
C300 C 0.38275 0.94554 1.08993 0.0
O301 O 0.4411 0.87897 0.97201 0.0
O302 O 0.4175 0.86738 1.06583 0.0
C303 C 0.30346 0.81718 1.04074 0.0
C304 C 0.22654 0.89616 0.9216 0.0
C305 C 0.20547 0.93615 0.83322 0.0
C306 C 0.20405 0.94316 0.89716 0.0
C307 C 0.21405 0.9229 0.94112 0.0
C308 C 0.2243 0.88632 0.858 0.0
C309 C 0.2134 0.90596 0.81411 0.0
C310 C 0.2478 0.8848 0.96699 0.0
C311 C 0.35835 0.86145 0.85745 0.0
H312 H 0.36315 0.73178 0.96929 0.0
H313 H 0.40051 0.80276 0.94055 0.0
H314 H 0.46723 0.83193 1.11404 0.0
H315 H 0.42934 0.76193 1.14434 0.0
H316 H 0.19847 0.96662 0.91275 0.0
H317 H 0.21547 0.93076 0.9901 0.0
H318 H 0.23386 0.86589 0.84173 0.0
H319 H 0.21532 0.90057 0.76484 0.0
Tb320 Tb 0.53447 0.41136 0.35369 0.0
Tb321 Tb 0.44446 0.36443 0.29925 0.0
C322 C 0.4987 0.45461 0.29105 0.0
C323 C 0.61529 0.42018 0.4572 0.0
C324 C 0.67187 0.37639 0.53383 0.0
C325 C 0.61846 0.34045 0.49413 0.0
C326 C 0.59299 0.36455 0.45609 0.0
C327 C 0.66322 0.45414 0.49794 0.0
C328 C 0.69259 0.4354 0.53783 0.0
C329 C 0.60093 0.43856 0.4112 0.0
O330 O 0.49475 0.41112 0.43546 0.0
O331 O 0.43334 0.38871 0.38829 0.0
O332 O 0.45179 0.31524 0.33593 0.0
O333 O 0.52013 0.34891 0.34856 0.0
O334 O 0.40207 0.35402 0.22876 0.0
O335 O 0.38343 0.32199 0.31674 0.0
O336 O 0.48159 0.3833 1.20804 0.0
O337 O 0.5463 0.42397 0.24674 0.0
O338 O 0.53351 0.45825 0.30289 0.0
O339 O 0.46658 0.42668 0.31879 0.0
C340 C 0.45666 0.4041 0.43887 0.0
O341 O 0.59371 0.42237 0.35577 0.0
O342 O 0.57269 0.44556 0.42878 0.0
C343 C 0.48514 0.31523 0.34877 0.0
C344 C 0.34561 0.287 0.22816 0.0
C345 C 0.28713 0.22315 1.15455 0.0
C346 C 0.27804 0.22849 0.21622 0.0
C347 C 0.30694 0.26066 0.25235 0.0
C348 C 0.35674 0.27786 1.17102 0.0
C349 C 0.32782 0.24614 1.13458 0.0
C350 C 0.37233 0.32526 0.26061 0.0
C351 C 0.52113 0.40967 1.1964 0.0
H352 H 0.60723 0.3086 0.48732 0.0
H353 H 0.5656 0.34595 0.43003 0.0
H354 H 0.67601 0.48643 0.49434 0.0
H355 H 0.72286 0.45633 0.55468 0.0
H356 H 0.24752 0.21054 0.23412 0.0
H357 H 0.29821 0.26658 0.29742 0.0
H358 H 0.38686 0.29701 1.15223 0.0
H359 H 0.3367 0.2431 1.0879 0.0
Tb360 Tb 0.09964 0.5077 0.66168 0.0
Tb361 Tb 0.04833 0.42217 0.61192 0.0
C362 C 0.02549 0.48658 0.59291 0.0
C363 C 0.15929 0.54446 0.78901 0.0
C364 C 0.15438 0.45901 0.8802 0.0
C365 C 0.11185 0.47341 0.89039 0.0
C366 C 0.11619 0.51518 0.84314 0.0
C367 C 0.20144 0.53449 0.78293 0.0
C368 C 0.2017 0.49358 0.82709 0.0
C369 C 0.1501 0.56061 0.73269 0.0
O370 O 0.05331 0.47336 0.7435 0.0
O371 O 0.01001 0.41272 0.70039 0.0
O372 O 0.10141 0.42709 0.66285 0.0
O373 O 0.14016 0.48833 0.62718 0.0
O374 O -0.00417 0.36524 0.59511 0.0
O375 O 0.05624 0.37647 0.57609 0.0
O376 O 0.0746 0.46088 0.52033 0.0
O377 O 0.10503 0.52591 0.55958 0.0
O378 O 0.06152 0.51789 0.60161 0.0
O379 O 0.02218 0.45408 0.56763 0.0
C380 C 0.01815 0.43756 0.74922 0.0
O381 O 0.16084 0.5507 0.68133 0.0
O382 O 0.11311 0.55367 0.7282 0.0
C383 C 0.13791 0.45579 0.64754 0.0
C384 C 0.00211 0.31872 0.52904 0.0
C385 C -0.02211 0.25667 0.44019 0.0
C386 C -0.03501 0.2473 0.50243 0.0
C387 C -0.02281 0.27817 0.54658 0.0
C388 C 0.01532 0.32829 0.46729 0.0
C389 C 0.00328 0.29757 0.42324 0.0
C390 C 0.01757 0.34977 0.57763 0.0
C391 C 0.09383 0.50149 0.50924 0.0
H392 H 0.08444 0.4539 0.91607 0.0
H393 H 0.09115 0.52047 0.84289 0.0
H394 H 0.22495 0.55102 0.74885 0.0
H395 H 0.22432 0.48556 0.81778 0.0
H396 H 0.94512 0.21626 0.51669 0.0
H397 H -0.03262 0.27037 0.59462 0.0
H398 H 0.03493 0.35943 0.45318 0.0
H399 H 0.01272 0.30614 0.37527 0.0
Tb400 Tb 0.54549 0.09545 1.01595 0.0
Tb401 Tb 0.59557 0.05395 0.97422 0.0
C402 C 0.50908 0.01766 0.93884 0.0
C403 C 0.51573 0.16947 1.06182 0.0
C404 C 0.55542 0.24787 1.11356 0.0
C405 C 0.56113 0.24193 1.05023 0.0
C406 C 0.54214 0.20292 1.02495 0.0
C407 C 0.50453 0.17618 1.12074 0.0
C408 C 0.52405 0.21494 1.14642 0.0
C409 C 0.50449 0.12792 1.04436 0.0
O410 O 0.53615 0.05639 1.10186 0.0
O411 O 0.56237 0.01913 1.06384 0.0
O412 O 0.64301 0.1126 1.0113 0.0
O413 O 0.60798 0.14376 1.03785 0.0
O414 O 0.60684 0.00716 0.99046 0.0
O415 O 0.64654 0.05738 0.93108 0.0
O416 O 0.58273 0.07419 0.87769 0.0
O417 O 0.54605 0.10297 0.90961 0.0
O418 O 0.5077 0.03228 0.99323 0.0
O419 O 0.5423 0.02024 0.92002 0.0
C420 C 0.5422 0.02538 1.10954 0.0
O421 O 0.51193 0.12206 0.98736 0.0
O422 O 0.51546 0.10974 1.08409 0.0
C423 C 0.64229 0.144 1.03321 0.0
C424 C 0.64535 -0.00429 0.91663 0.0
C425 C 0.65943 0.94267 0.84586 0.0
C426 C 0.61964 0.9326 0.86062 0.0
C427 C 0.61264 0.95893 0.89556 0.0
C428 C 0.68508 0.00535 0.90372 0.0
C429 C 0.69213 -0.02087 0.86834 0.0
C430 C 0.63911 0.02329 0.95561 0.0
C431 C 0.561 0.09186 0.86216 0.0
H432 H 0.58357 0.2667 1.0223 0.0
H433 H 0.55061 0.19882 0.97848 0.0
H434 H 0.48353 0.15091 1.14948 0.0
H435 H 0.51775 0.21765 1.19487 0.0
H436 H 0.59375 0.90527 0.84246 0.0
H437 H 0.58172 0.95079 0.90534 0.0
H438 H 0.71069 0.03342 0.92053 0.0
H439 H 0.723 -0.01221 0.8571 0.0
Tb440 Tb 0.41841 0.55613 0.32802 0.0
Tb441 Tb 0.50334 0.62631 0.29473 0.0
C442 C 0.47706 0.54495 0.23464 0.0
C443 C 0.31706 0.51882 0.38328 0.0
C444 C 0.28525 0.56253 0.44025 0.0
C445 C 0.2984 0.57034 0.37779 0.0
C446 C 0.31459 0.54895 0.34977 0.0
C447 C 0.29789 0.50654 0.44126 0.0
C448 C 0.28191 0.528 0.46944 0.0
C449 C 0.34748 0.50805 0.36613 0.0
O450 O 0.45552 0.55382 0.41128 0.0
O451 O 0.5192 0.60132 0.38143 0.0
O452 O 0.47894 0.65204 0.3591 0.0
O453 O 0.41449 0.61185 0.33054 0.0
O454 O 0.56545 0.66093 0.31062 0.0
O455 O 0.53618 0.68265 0.24877 0.0
O456 O 0.46693 0.60759 1.19824 0.0
O457 O 0.40684 0.55128 0.22507 0.0
O458 O 0.44508 0.52783 0.27221 0.0
O459 O 0.50593 0.58231 0.24033 0.0
C460 C 0.49539 0.57384 0.42405 0.0
O461 O 0.35777 0.51212 0.30768 0.0
O462 O 0.3793 0.52372 0.40224 0.0
C463 C 0.4426 0.64606 0.35505 0.0
C464 C 0.60372 0.69993 0.22696 0.0
C465 C 0.67353 0.72091 1.15759 0.0
C466 C 0.64422 0.68016 1.16765 0.0
C467 C 0.60949 0.66973 1.20161 0.0
C468 C 0.63243 0.74074 0.21589 0.0
C469 C 0.66706 0.75124 1.18053 0.0
C470 C 0.57062 0.68883 0.27104 0.0
C471 C 0.43055 0.57513 1.1799 0.0
H472 H 0.30028 0.59573 0.35295 0.0
H473 H 0.32877 0.5588 0.30442 0.0
H474 H 0.29926 0.48331 0.4678 0.0
H475 H 0.27179 0.52033 0.51731 0.0
H476 H 0.64801 0.65625 1.14858 0.0
H477 H 0.58769 0.63807 1.20959 0.0
H478 H 0.62843 0.76436 0.23554 0.0
H479 H 0.68896 0.78279 1.1719 0.0
C480 C 0.44875 0.20812 0.41001 0.0
C481 C 0.48395 0.20534 0.4057 0.0
H482 H 0.42103 0.24386 0.39452 0.0
C483 C 0.51891 0.23864 0.38042 0.0
H484 H 0.42103 0.18313 0.42862 0.0
C485 C 0.51889 0.27369 0.36143 0.0
C486 C 0.48385 0.27656 0.36586 0.0
H487 H 0.54659 0.23788 0.37615 0.0
H488 H 0.54652 0.2989 0.34335 0.0
C489 C 0.4486 0.24295 0.3899 0.0
C490 C 0.25128 0.4983 0.67883 0.0
C491 C 0.25262 0.46588 0.70629 0.0
H492 H 0.21512 0.5201 0.63847 0.0
C493 C 0.21555 0.4286 0.71117 0.0
H494 H 0.27882 0.52736 0.6736 0.0
C495 C 0.17832 0.42445 0.69132 0.0
C496 C 0.177 0.4573 0.66511 0.0
H497 H 0.21514 0.40277 0.73192 0.0
H498 H 0.15056 0.39571 0.69737 0.0
C499 C 0.21439 0.49389 0.65804 0.0
C500 C 0.71892 0.23809 1.12636 0.0
C501 C 0.75553 0.25303 1.09282 0.0
H502 H 0.6553 0.19357 1.13306 0.0
C503 C 0.75509 0.22972 1.0416 0.0
H504 H 0.71767 0.25474 1.16623 0.0
C505 C 0.71888 0.19393 1.02317 0.0
C506 C 0.68177 0.1807 1.05456 0.0
H507 H 0.78222 0.24001 1.01407 0.0
H508 H 0.7196 0.17746 0.98267 0.0
C509 C 0.6828 0.20309 1.10709 0.0
C510 C 0.40653 0.68678 0.34941 0.0
C511 C 0.43535 0.67917 0.37721 0.0
H512 H 0.38235 0.72648 0.34315 0.0
C513 C 0.46059 0.70626 0.42408 0.0
H514 H 0.38666 0.66689 0.31302 0.0
C515 C 0.45782 0.73994 0.44189 0.0
C516 C 0.4302 0.74863 0.41276 0.0
H517 H 0.48314 0.70167 0.44689 0.0
H518 H 0.47832 0.7599 0.47769 0.0
C519 C 0.40425 0.72119 0.36651 0.0
C520 C 0.70488 0.51561 0.67591 0.0
C521 C 0.67301 0.48454 0.71062 0.0
H522 H 0.76415 0.54005 0.63663 0.0
C523 C 0.67748 0.45201 0.72978 0.0
H524 H 0.70283 0.54116 0.65984 0.0
C525 C 0.71308 0.45118 0.71581 0.0
C526 C 0.74554 0.4831 0.68282 0.0
H527 H 0.6537 0.4274 0.75632 0.0
H528 H 0.71543 0.42583 0.73197 0.0
C529 C 0.74042 0.51503 0.66261 0.0
C530 C 0.24954 0.74353 1.01701 0.0
C531 C 0.26591 0.77743 1.05688 0.0
H532 H 0.19934 0.68395 0.99664 0.0
C533 C 0.24288 0.7751 1.10979 0.0
H534 H 0.26577 0.74419 0.97531 0.0
C535 C 0.20502 0.74039 1.12254 0.0
C536 C 0.188 0.70685 1.082 0.0
H537 H 0.25412 0.80055 1.14152 0.0
H538 H 0.18872 0.74019 1.16386 0.0
C539 C 0.21107 0.70897 1.02911 0.0
C540 C 0.62891 0.29209 1.13586 0.0
C541 C 0.58897 0.28168 1.15013 0.0
H542 H 0.68209 0.29453 1.17196 0.0
C543 C 0.58163 0.28979 1.2113 0.0
H544 H 0.63713 0.28959 1.08885 0.0
C545 C 0.60809 0.2935 0.25947 0.0
C546 C 0.6414 0.28922 0.24576 0.0
H547 H 0.55239 0.28558 0.22361 0.0
H548 H 0.59829 0.29149 0.30727 0.0
C549 C 0.65515 0.29536 1.18387 0.0
C550 C 0.26816 0.58539 0.53881 0.0
C551 C 0.28726 0.59531 0.48029 0.0
H552 H 0.27733 0.59492 0.63662 0.0
C553 C 0.31987 0.63512 0.47214 0.0
H554 H 0.24067 0.55654 0.54553 0.0
C555 C 0.34023 0.65862 0.5245 0.0
C556 C 0.32908 0.6414 0.58452 0.0
H557 H 0.33398 0.64574 0.42703 0.0
H558 H 0.36848 0.68674 0.51724 0.0
C559 C 0.28942 0.60795 0.59138 0.0
C560 C 0.61129 0.24394 0.83726 0.0
C561 C 0.63176 0.23894 0.88798 0.0
H562 H 0.61594 0.25739 0.73953 0.0
C563 C 0.65225 0.21806 0.87588 0.0
H564 H 0.59163 0.256 0.84483 0.0
C565 C 0.6667 0.21931 0.81566 0.0
C566 C 0.65918 0.24022 0.76865 0.0
H567 H 0.66519 0.20938 0.91342 0.0
H568 H 0.69 0.21169 0.81032 0.0
C569 C 0.6254 0.24486 0.77667 0.0
C570 C 0.31633 0.70427 1.08103 0.0
C571 C 0.35436 0.70838 1.09381 0.0
H572 H 0.26418 0.7017 1.12123 0.0
C573 C 0.35918 0.69383 1.15164 0.0
H574 H 0.30976 0.71276 1.03626 0.0
C575 C 0.33311 0.68846 1.20097 0.0
C576 C 0.3014 0.69611 1.19161 0.0
H577 H 0.38668 0.6936 1.16199 0.0
H578 H 0.3418 0.68488 0.24764 0.0
C579 C 0.28989 0.6981 1.13005 0.0
C580 C 0.69196 0.38403 0.46507 0.0
C581 C 0.69494 0.36755 0.53154 0.0
H582 H 0.66123 0.40956 0.40015 0.0
C583 C 0.66736 0.36622 0.5933 0.0
H584 H 0.71099 0.38374 0.42785 0.0
C585 C 0.63318 0.37824 0.61068 0.0
C586 C 0.6242 0.39355 0.55025 0.0
H587 H 0.67408 0.35408 0.6358 0.0
H588 H 0.61899 0.37376 0.65607 0.0
C589 C 0.66239 0.40064 0.4485 0.0
C590 C 0.13863 0.47725 0.79418 0.0
C591 C 0.1771 0.52657 0.88385 0.0
H592 H 0.1134 0.40861 0.7863 0.0
C593 C 0.18563 0.51132 0.94595 0.0
H594 H 0.12623 0.47917 0.74956 0.0
C595 C 0.16847 0.4628 0.93674 0.0
C596 C 0.14396 0.42646 0.88276 0.0
H597 H 0.19961 0.52654 0.98917 0.0
H598 H 0.17474 0.45102 0.98019 0.0
C599 C 0.13024 0.43428 0.81733 0.0
C600 C 0.44164 0.00365 1.15974 0.0
C601 C 0.39946 0.97605 1.14912 0.0
H602 H 0.49096 0.04906 0.21775 0.0
C603 C 0.37514 -0.02259 1.19855 0.0
H604 H 0.4621 0.00564 1.12377 0.0
C605 C 0.39184 0.00305 0.25396 0.0
C606 C 0.43441 0.02999 0.26524 0.0
H607 H 0.34261 0.95763 1.19547 0.0
H608 H 0.37071 0.00112 0.28907 0.0
C609 C 0.45843 0.02932 0.21487 0.0
C610 C 0.44701 0.41062 0.56203 0.0
C611 C 0.43966 0.41619 0.49827 0.0
H612 H 0.43605 0.41415 0.66136 0.0
C613 C 0.41392 0.43276 0.49227 0.0
H614 H 0.46571 0.39771 0.57158 0.0
C615 C 0.39801 0.44395 0.54501 0.0
C616 C 0.40518 0.43828 0.60871 0.0
H617 H 0.40642 0.43801 0.44573 0.0
H618 H 0.3796 0.45718 0.53539 0.0
C619 C 0.42961 0.42026 0.61479 0.0
C620 C 0.94237 0.40012 0.80704 0.0
C621 C -0.01377 0.42612 0.80932 0.0
H622 H 0.88206 0.37223 0.85106 0.0
C623 C -0.00201 0.4409 0.87226 0.0
H624 H 0.92897 0.38581 0.76283 0.0
C625 C -0.02982 0.43076 0.92566 0.0
C626 C 0.92638 0.40669 0.9232 0.0
H627 H 0.02986 0.46072 0.88149 0.0
H628 H -0.01603 0.44308 0.97059 0.0
C629 C 0.91414 0.39178 0.86004 0.0
C630 C 0.47283 0.92797 0.21995 0.0
C631 C 0.48575 0.93994 0.28339 0.0
H632 H 0.47951 0.94184 1.11995 0.0
C633 C 0.51872 -0.01898 0.28702 0.0
H634 H 0.44819 0.89744 1.21148 0.0
C635 C 0.53624 0.0077 0.23306 0.0
C636 C 0.52381 -0.00447 1.16956 0.0
H637 H 0.53091 -0.00665 0.33279 0.0
H638 H 0.56028 0.0385 0.24158 0.0
C639 C 0.4915 0.95415 1.16577 0.0
C640 C 0.57092 0.57613 0.56344 0.0
C641 C 0.54565 0.54713 0.6099 0.0
H642 H 0.57766 0.60664 0.47372 0.0
C643 C 0.50368 0.52825 0.59242 0.0
H644 H 0.60335 0.59235 0.57103 0.0
C645 C 0.48846 0.53706 0.53537 0.0
C646 C 0.51341 0.56508 0.48803 0.0
H647 H 0.4817 0.50645 0.62445 0.0
H648 H 0.45607 0.52168 0.52856 0.0
C649 C 0.55563 0.58445 0.50546 0.0
C650 C -0.02028 0.58333 0.92185 0.0
C651 C 0.00135 0.56365 0.94177 0.0
H652 H 0.93709 0.58801 0.85849 0.0
C653 C -0.01162 0.52792 0.90461 0.0
H654 H -0.01357 0.61077 0.94598 0.0
C655 C 0.95614 0.51224 0.85663 0.0
C656 C 0.93558 0.53257 0.8347 0.0
H657 H 0.00278 0.51081 0.91434 0.0
H658 H 0.94829 0.48384 0.83478 0.0
C659 C 0.94983 0.56944 0.87006 0.0
C660 C 0.41591 -0.01774 0.53607 0.0
C661 C 0.45857 0.00784 0.53431 0.0
H662 H 0.36821 0.92407 0.56204 0.0
C663 C 0.48251 0.00218 0.57821 0.0
H664 H 0.39605 -0.015 0.50323 0.0
C665 C 0.46468 0.96491 0.60828 0.0
C666 C 0.42782 0.93498 0.5821 0.0
H667 H 0.51493 0.02268 0.58165 0.0
H668 H 0.48412 0.95668 0.63279 0.0
C669 C 0.39985 0.94663 0.56952 0.0
C670 C 0.46157 0.48559 0.92778 0.0
C671 C 0.45395 0.50609 0.88052 0.0
H672 H 0.5094 0.48675 0.97998 0.0
C673 C 0.47985 0.54812 0.87379 0.0
H674 H 0.44035 0.45416 0.93852 0.0
C675 C 0.51828 0.5656 0.89997 0.0
C676 C 0.52974 0.53833 0.91922 0.0
H677 H 0.47283 0.56576 0.84237 0.0
H678 H 0.54083 0.59592 0.88561 0.0
C679 C 0.50066 0.50436 0.95196 0.0
C680 C 0.93451 0.50111 1.03468 0.0
C681 C 0.90655 0.49804 1.07859 0.0
H682 H -0.01225 0.49703 1.02858 0.0
C683 C 0.92037 0.5207 1.13296 0.0
H684 H 0.92423 0.48831 0.98847 0.0
C685 C 0.95616 0.52624 1.15745 0.0
C686 C -0.02 0.51562 1.121 0.0
H687 H 0.89968 0.52394 1.16332 0.0
H688 H -0.03543 0.53788 1.20467 0.0
C689 C -0.03061 0.50379 1.05851 0.0
C690 C 0.01062 0.51119 0.68808 0.0
C691 C 0.00033 0.47936 0.64542 0.0
H692 H -0.01363 0.54095 0.73687 0.0
C693 C 0.96234 0.4437 0.64869 0.0
H694 H 0.04046 0.538 0.69071 0.0
C695 C 0.93291 0.44492 0.68337 0.0
C696 C 0.94115 0.48381 0.69686 0.0
H697 H 0.95432 0.41747 0.61997 0.0
H698 H 0.90207 0.42 0.6786 0.0
C699 C -0.02028 0.51218 0.71767 0.0
C700 C 0.41956 0.01431 0.87033 0.0
C701 C 0.40512 0.97547 0.84744 0.0
H702 H 0.46479 0.05498 0.93428 0.0
C703 C 0.43303 0.96933 0.81459 0.0
H704 H 0.39861 0.02375 0.8845 0.0
C705 C 0.47156 -0.01344 0.84109 0.0
C706 C 0.48034 0.01324 0.89145 0.0
H707 H 0.42259 0.94336 0.78423 0.0
H708 H 0.4909 0.97469 0.82943 0.0
C709 C 0.45703 0.03162 0.89982 0.0
C710 C 0.51855 0.52983 1.17174 0.0
C711 C 0.47944 0.52319 1.17981 0.0
H712 H 0.55774 0.51322 0.21686 0.0
C713 C 0.44774 0.48322 1.17641 0.0
H714 H 0.54359 0.55968 1.16054 0.0
C715 C 0.45421 0.45614 1.20949 0.0
C716 C 0.49361 0.46992 0.23248 0.0
H717 H 0.41686 0.47627 1.16983 0.0
H718 H 0.42817 0.42845 0.22556 0.0
C719 C 0.5267 0.50378 1.20487 0.0
C720 C 0.24529 0.00512 0.79137 0.0
C721 C 0.21036 0.96671 0.78717 0.0
H722 H 0.29103 0.05529 0.74183 0.0
C723 C 0.18755 0.95535 0.73182 0.0
H724 H 0.2633 0.0146 0.83388 0.0
C725 C 0.20262 -0.02023 0.67878 0.0
C726 C 0.24189 0.01437 0.67958 0.0
H727 H 0.16009 0.92605 0.72802 0.0
H728 H 0.18553 0.96896 0.63563 0.0
C729 C 0.26117 0.02868 0.73795 0.0
C730 C 0.26277 0.19417 1.04783 0.0
C731 C 0.25449 0.2051 1.10625 0.0
H732 H 0.26517 0.20476 0.94954 0.0
C733 C 0.22389 0.21495 1.10887 0.0
H734 H 0.28398 0.18365 1.04427 0.0
C735 C 0.21211 0.22602 1.05434 0.0
C736 C 0.23068 0.22694 0.99754 0.0
H737 H 0.21457 0.2215 1.15281 0.0
H738 H 0.19385 0.23995 1.05825 0.0
C739 C 0.25175 0.20612 0.99324 0.0
C740 C 0.89892 0.19376 0.32716 0.0
C741 C 0.92313 0.21287 0.27447 0.0
H742 H 0.89858 0.19529 0.42694 0.0
C743 C -0.03585 0.22381 0.27793 0.0
H744 H 0.86642 0.181 0.32497 0.0
C745 C -0.01735 0.23042 0.33643 0.0
C746 C 0.95983 0.2257 0.39023 0.0
H747 H -0.01619 0.23538 0.23768 0.0
H748 H 0.01545 0.24631 0.33881 0.0
C749 C 0.91741 0.20171 0.38599 0.0
C750 C 0.68762 0.93896 0.74393 0.0
C751 C 0.66551 0.91891 0.79751 0.0
H752 H 0.69107 0.93675 0.64533 0.0
C753 C 0.64065 0.87664 0.79607 0.0
H754 H 0.70775 0.97145 0.74386 0.0
C755 C 0.63141 0.85619 0.73894 0.0
C756 C 0.64586 0.87825 0.68304 0.0
H757 H 0.62442 0.86025 0.83751 0.0
H758 H 0.60826 0.82445 0.73788 0.0
C759 C 0.67798 0.91867 0.68686 0.0
C760 C 0.73119 0.71208 1.13104 0.0
C761 C 0.70823 0.73012 1.11757 0.0
H762 H 0.7626 0.68458 1.09275 0.0
C763 C 0.71004 0.74567 1.05772 0.0
H764 H 0.73054 0.70037 1.17737 0.0
C765 C 0.72804 0.73635 1.00919 0.0
C766 C 0.74414 0.71133 1.02053 0.0
H767 H 0.69267 0.75986 1.04656 0.0
H768 H 0.72382 0.74363 0.96189 0.0
C769 C 0.74943 0.703 1.08263 0.0
C770 C -0.00291 0.7615 0.38892 0.0
C771 C -0.01864 0.7448 0.32996 0.0
H772 H -0.01583 0.76027 0.4855 0.0
C773 C 0.93965 0.72811 0.31886 0.0
H774 H 0.02933 0.77599 0.3981 0.0
C775 C 0.91341 0.71961 0.36914 0.0
C776 C 0.92882 0.72674 0.4305 0.0
H777 H 0.92654 0.71591 0.27342 0.0
H778 H 0.88107 0.70143 0.36072 0.0
C779 C -0.02913 0.75265 0.43917 0.0
C780 C 0.50012 0.10016 0.71151 0.0
C781 C 0.52056 0.09948 0.65595 0.0
H782 H 0.49586 0.1001 0.81329 0.0
C783 C 0.55549 0.0965 0.67115 0.0
H784 H 0.47325 0.10227 0.70613 0.0
C785 C 0.56819 0.09378 0.73485 0.0
C786 C 0.54809 0.09515 0.79043 0.0
H787 H 0.57329 0.09548 0.63287 0.0
H788 H 0.59462 0.09093 0.74027 0.0
C789 C 0.51358 0.09881 0.77514 0.0
C790 C 0.42125 0.56566 0.98943 0.0
C791 C 0.38729 0.52598 0.97582 0.0
H792 H 0.4616 0.61176 1.05697 0.0
C793 C 0.36872 0.50409 1.03176 0.0
H794 H 0.43794 0.58487 0.95046 0.0
C795 C 0.38229 0.52036 1.09455 0.0
C796 C 0.41633 0.55989 1.10842 0.0
H797 H 0.34302 0.47368 1.02738 0.0
H798 H 0.36569 0.50088 1.13333 0.0
C799 C 0.43535 0.5817 1.05246 0.0
C800 C 0.84365 0.39962 0.36066 0.0
C801 C 0.84173 0.41941 0.30464 0.0
H802 H 0.84586 0.39565 0.46259 0.0
C803 C 0.84236 0.45612 0.321 0.0
H804 H 0.84372 0.37174 0.35513 0.0
C805 C 0.84521 0.4713 0.38556 0.0
C806 C 0.84639 0.45089 0.44157 0.0
H807 H 0.84161 0.47435 0.2831 0.0
H808 H 0.84605 0.49962 0.39129 0.0
C809 C 0.84502 0.41396 0.4249 0.0
C810 C 0.35412 0.8419 0.66958 0.0
C811 C 0.39163 0.84369 0.65554 0.0
H812 H 0.31373 0.84576 0.73789 0.0
C813 C 0.41608 0.851 0.70958 0.0
H814 H 0.33366 0.83722 0.63129 0.0
C815 C 0.40426 0.85559 0.77166 0.0
C816 C 0.36704 0.85408 0.78646 0.0
H817 H 0.4453 0.85354 0.70411 0.0
H818 H 0.42563 0.86117 0.80895 0.0
C819 C 0.34236 0.84708 0.73229 0.0
C820 C 0.5869 0.47514 1.0432 0.0
C821 C 0.56157 0.45676 0.98909 0.0
H822 H 0.59647 0.47669 1.14478 0.0
C823 C 0.52329 0.42233 1.00701 0.0
H824 H 0.6165 0.50164 1.0361 0.0
C825 C 0.51127 0.40796 1.07096 0.0
C826 C 0.53634 0.4258 1.12505 0.0
H827 H 0.50124 0.40599 0.97055 0.0
H828 H 0.48124 0.38203 1.07779 0.0
C829 C 0.57497 0.46025 1.10772 0.0
C830 C 0.09289 0.50148 0.38303 0.0
C831 C 0.09566 0.52055 0.44161 0.0
H832 H 0.09199 0.50293 0.28109 0.0
C833 C 0.0991 0.55918 0.43435 0.0
H834 H 0.08998 0.47202 0.3833 0.0
C835 C 0.09919 0.57691 0.37438 0.0
C836 C 0.09703 0.55819 0.31579 0.0
H837 H 0.10102 0.57603 0.47602 0.0
H838 H 0.10126 0.60599 0.37425 0.0
C839 C 0.09413 0.51977 0.32287 0.0
loop_
_geom_bond_atom_site_label_1
_geom_bond_atom_site_label_2
_geom_bond_distance
_geom_bond_site_symmetry_2
_ccdc_geom_bond_type
Tb0 C9 2.764 . S
Tb0 O10 2.325 . S
Tb0 O13 2.303 . S
Tb0 O17 2.322 . S
Tb0 O18 2.349 . S
Tb0 O21 2.415 . S
Tb0 O22 2.399 . S
Tb1 O11 2.322 . S
Tb1 O12 2.349 . S
Tb1 O14 2.415 . S
Tb1 O15 2.399 . S
Tb1 O16 2.325 . S
Tb1 O19 2.303 . S
Tb1 C30 2.764 . S
C2 O18 1.261 . S
C2 O19 1.257 . S
C3 C6 1.358 . S
C3 C7 1.332 . S
C3 C9 1.504 . S
C4 C5 1.373 1_556 S
C4 C8 1.308 1_556 S
C5 C4 1.373 1_554 S
C5 C6 1.429 . S
C5 H32 0.932 . S
C6 C3 1.358 . S
C6 C5 1.429 . S
C6 H33 0.930 . S
C7 C3 1.332 . S
C7 C8 1.394 . S
C7 H34 0.932 . S
C8 C4 1.308 1_554 S
C8 C7 1.394 . S
C8 H35 0.929 1_554 S
C9 Tb0 2.764 . S
C9 C3 1.504 . S
C9 O21 1.239 . S
C9 O22 1.263 . S
O10 Tb0 2.325 . S
O10 C20 1.236 . S
O11 Tb1 2.322 . S
O11 C20 1.257 . S
O12 Tb1 2.349 . S
O12 C23 1.261 . S
O13 Tb0 2.303 . S
O13 C23 1.257 . S
O14 Tb1 2.415 . S
O14 C30 1.239 . S
O15 Tb1 2.399 . S
O15 C30 1.263 . S
O16 Tb1 2.325 . S
O16 C31 1.236 . S
O17 Tb0 2.322 . S
O17 C31 1.257 . S
O18 Tb0 2.349 . S
O18 C2 1.261 . S
O19 Tb1 2.303 . S
O19 C2 1.257 . S
C20 O10 1.236 . S
C20 O11 1.257 . S
O21 Tb0 2.415 . S
O21 C9 1.239 . S
O22 Tb0 2.399 . S
O22 C9 1.263 . S
C23 O12 1.261 . S
C23 O13 1.257 . S
C24 C27 1.358 . S
C24 C28 1.332 . S
C24 C30 1.504 . S
C25 C26 1.373 . S
C25 C29 1.308 . S
C26 C25 1.373 . S
C26 C27 1.429 . S
C26 H36 0.932 . S
C27 C24 1.358 . S
C27 C26 1.429 . S
C27 H37 0.930 . S
C28 C24 1.332 . S
C28 C29 1.394 . S
C28 H38 0.932 . S
C29 C25 1.308 . S
C29 C28 1.394 . S
C29 H39 0.929 . S
C30 Tb1 2.764 . S
C30 O14 1.239 . S
C30 O15 1.263 . S
C30 C24 1.504 . S
C31 O16 1.236 . S
C31 O17 1.257 . S
H32 C5 0.932 . S
H33 C6 0.930 . S
H34 C7 0.932 . S
H35 C8 0.929 1_556 S
H36 C26 0.932 . S
H37 C27 0.930 . S
H38 C28 0.932 . S
H39 C29 0.929 . S
Tb40 C49 2.764 . S
Tb40 O50 2.325 . S
Tb40 O53 2.303 . S
Tb40 O57 2.322 . S
Tb40 O58 2.349 . S
Tb40 O61 2.415 . S
Tb40 O62 2.399 . S
Tb41 O51 2.322 . S
Tb41 O52 2.349 . S
Tb41 O54 2.415 . S
Tb41 O55 2.399 . S
Tb41 O56 2.325 . S
Tb41 O59 2.303 . S
Tb41 C70 2.764 . S
C42 O58 1.261 . S
C42 O59 1.257 . S
C43 C46 1.358 . S
C43 C47 1.332 . S
C43 C49 1.504 . S
C44 C45 1.373 . S
C44 C48 1.308 . S
C45 C44 1.373 . S
C45 C46 1.429 . S
C45 H72 0.932 . S
C46 C43 1.358 . S
C46 C45 1.429 . S
C46 H73 0.930 . S
C47 C43 1.332 . S
C47 C48 1.394 . S
C47 H74 0.932 . S
C48 C44 1.308 . S
C48 C47 1.394 . S
C48 H75 0.929 . S
C49 Tb40 2.764 . S
C49 C43 1.504 . S
C49 O61 1.239 . S
C49 O62 1.263 . S
O50 Tb40 2.325 . S
O50 C60 1.236 . S
O51 Tb41 2.322 . S
O51 C60 1.257 . S
O52 Tb41 2.349 . S
O52 C63 1.261 . S
O53 Tb40 2.303 . S
O53 C63 1.257 . S
O54 Tb41 2.415 . S
O54 C70 1.239 . S
O55 Tb41 2.399 . S
O55 C70 1.263 . S
O56 Tb41 2.325 . S
O56 C71 1.236 . S
O57 Tb40 2.322 . S
O57 C71 1.257 . S
O58 Tb40 2.349 . S
O58 C42 1.261 . S
O59 Tb41 2.303 . S
O59 C42 1.257 . S
C60 O50 1.236 . S
C60 O51 1.257 . S
O61 Tb40 2.415 . S
O61 C49 1.239 . S
O62 Tb40 2.399 . S
O62 C49 1.263 . S
C63 O52 1.261 . S
C63 O53 1.257 . S
C64 C67 1.358 . S
C64 C68 1.332 . S
C64 C70 1.504 . S
C65 C66 1.373 . S
C65 C69 1.308 . S
C66 C65 1.373 . S
C66 C67 1.429 . S
C66 H76 0.932 . S
C67 C64 1.358 . S
C67 C66 1.429 . S
C67 H77 0.930 . S
C68 C64 1.332 . S
C68 C69 1.394 . S
C68 H78 0.932 . S
C69 C65 1.308 . S
C69 C68 1.394 . S
C69 H79 0.929 . S
C70 Tb41 2.764 . S
C70 O54 1.239 . S
C70 O55 1.263 . S
C70 C64 1.504 . S
C71 O56 1.236 . S
C71 O57 1.257 . S
H72 C45 0.932 . S
H73 C46 0.930 . S
H74 C47 0.932 . S
H75 C48 0.929 . S
H76 C66 0.932 . S
H77 C67 0.930 . S
H78 C68 0.932 . S
H79 C69 0.929 . S
Tb80 C89 2.764 . S
Tb80 O90 2.325 . S
Tb80 O93 2.303 . S
Tb80 O97 2.322 . S
Tb80 O98 2.349 . S
Tb80 O101 2.415 . S
Tb80 O102 2.399 . S
Tb81 O91 2.322 . S
Tb81 O92 2.349 . S
Tb81 O94 2.415 1_556 S
Tb81 O95 2.399 1_556 S
Tb81 O96 2.325 . S
Tb81 O99 2.303 . S
Tb81 C110 2.764 1_556 S
C82 O98 1.261 . S
C82 O99 1.257 . S
C83 C86 1.358 . S
C83 C87 1.332 . S
C83 C89 1.504 . S
C84 C85 1.373 . S
C84 C88 1.308 . S
C85 C84 1.373 . S
C85 C86 1.429 . S
C85 H112 0.932 . S
C86 C83 1.358 . S
C86 C85 1.429 . S
C86 H113 0.930 . S
C87 C83 1.332 . S
C87 C88 1.394 . S
C87 H114 0.932 . S
C88 C84 1.308 . S
C88 C87 1.394 . S
C88 H115 0.929 . S
C89 Tb80 2.764 . S
C89 C83 1.504 . S
C89 O101 1.239 . S
C89 O102 1.263 . S
O90 Tb80 2.325 . S
O90 C100 1.236 . S
O91 Tb81 2.322 . S
O91 C100 1.257 . S
O92 Tb81 2.349 . S
O92 C103 1.261 . S
O93 Tb80 2.303 . S
O93 C103 1.257 . S
O94 Tb81 2.415 1_554 S
O94 C110 1.239 . S
O95 Tb81 2.399 1_554 S
O95 C110 1.263 . S
O96 Tb81 2.325 . S
O96 C111 1.236 . S
O97 Tb80 2.322 . S
O97 C111 1.257 . S
O98 Tb80 2.349 . S
O98 C82 1.261 . S
O99 Tb81 2.303 . S
O99 C82 1.257 . S
C100 O90 1.236 . S
C100 O91 1.257 . S
O101 Tb80 2.415 . S
O101 C89 1.239 . S
O102 Tb80 2.399 . S
O102 C89 1.263 . S
C103 O92 1.261 . S
C103 O93 1.257 . S
C104 C107 1.358 . S
C104 C108 1.332 . S
C104 C110 1.504 . S
C105 C106 1.373 . S
C105 C109 1.308 . S
C106 C105 1.373 . S
C106 C107 1.429 . S
C106 H116 0.932 . S
C107 C104 1.358 . S
C107 C106 1.429 . S
C107 H117 0.930 . S
C108 C104 1.332 . S
C108 C109 1.394 . S
C108 H118 0.932 . S
C109 C105 1.308 . S
C109 C108 1.394 . S
C109 H119 0.929 . S
C110 Tb81 2.764 1_554 S
C110 O94 1.239 . S
C110 O95 1.263 . S
C110 C104 1.504 . S
C111 O96 1.236 . S
C111 O97 1.257 . S
H112 C85 0.932 . S
H113 C86 0.930 . S
H114 C87 0.932 . S
H115 C88 0.929 . S
H116 C106 0.932 . S
H117 C107 0.930 . S
H118 C108 0.932 . S
H119 C109 0.929 . S
Tb120 C129 2.764 . S
Tb120 O130 2.325 . S
Tb120 O133 2.303 . S
Tb120 O137 2.322 . S
Tb120 O138 2.349 . S
Tb120 O141 2.415 . S
Tb120 O142 2.399 . S
Tb121 O131 2.322 . S
Tb121 O132 2.349 . S
Tb121 O134 2.415 . S
Tb121 O135 2.399 . S
Tb121 O136 2.325 . S
Tb121 O139 2.303 . S
Tb121 C150 2.764 . S
C122 O138 1.261 . S
C122 O139 1.257 . S
C123 C126 1.358 . S
C123 C127 1.332 . S
C123 C129 1.504 . S
C124 C125 1.373 1_556 S
C124 C128 1.308 1_556 S
C125 C124 1.373 1_554 S
C125 C126 1.429 . S
C125 H152 0.932 . S
C126 C123 1.358 . S
C126 C125 1.429 . S
C126 H153 0.930 . S
C127 C123 1.332 . S
C127 C128 1.394 . S
C127 H154 0.932 . S
C128 C124 1.308 1_554 S
C128 C127 1.394 . S
C128 H155 0.929 1_554 S
C129 Tb120 2.764 . S
C129 C123 1.504 . S
C129 O141 1.239 . S
C129 O142 1.263 . S
O130 Tb120 2.325 . S
O130 C140 1.236 . S
O131 Tb121 2.322 . S
O131 C140 1.257 . S
O132 Tb121 2.349 . S
O132 C143 1.261 . S
O133 Tb120 2.303 . S
O133 C143 1.257 . S
O134 Tb121 2.415 . S
O134 C150 1.239 . S
O135 Tb121 2.399 . S
O135 C150 1.263 . S
O136 Tb121 2.325 . S
O136 C151 1.236 . S
O137 Tb120 2.322 . S
O137 C151 1.257 . S
O138 Tb120 2.349 . S
O138 C122 1.261 . S
O139 Tb121 2.303 . S
O139 C122 1.257 . S
C140 O130 1.236 . S
C140 O131 1.257 . S
O141 Tb120 2.415 . S
O141 C129 1.239 . S
O142 Tb120 2.399 . S
O142 C129 1.263 . S
C143 O132 1.261 . S
C143 O133 1.257 . S
C144 C147 1.358 . S
C144 C148 1.332 . S
C144 C150 1.504 . S
C145 C146 1.373 . S
C145 C149 1.308 . S
C146 C145 1.373 . S
C146 C147 1.429 . S
C146 H156 0.932 . S
C147 C144 1.358 . S
C147 C146 1.429 . S
C147 H157 0.930 . S
C148 C144 1.332 . S
C148 C149 1.394 . S
C148 H158 0.932 . S
C149 C145 1.308 . S
C149 C148 1.394 . S
C149 H159 0.929 . S
C150 Tb121 2.764 . S
C150 O134 1.239 . S
C150 O135 1.263 . S
C150 C144 1.504 . S
C151 O136 1.236 . S
C151 O137 1.257 . S
H152 C125 0.932 . S
H153 C126 0.930 . S
H154 C127 0.932 . S
H155 C128 0.929 1_556 S
H156 C146 0.932 . S
H157 C147 0.930 . S
H158 C148 0.932 . S
H159 C149 0.929 . S
Tb160 C169 2.764 . S
Tb160 O170 2.325 . S
Tb160 O173 2.303 . S
Tb160 O177 2.322 . S
Tb160 O178 2.349 . S
Tb160 O181 2.415 . S
Tb160 O182 2.399 . S
Tb161 O171 2.322 . S
Tb161 O172 2.349 . S
Tb161 O174 2.415 . S
Tb161 O175 2.399 . S
Tb161 O176 2.325 . S
Tb161 O179 2.303 . S
Tb161 C190 2.764 . S
C162 O178 1.261 . S
C162 O179 1.257 . S
C163 C166 1.358 . S
C163 C167 1.332 . S
C163 C169 1.504 . S
C164 C165 1.373 . S
C164 C168 1.308 . S
C165 C164 1.373 . S
C165 C166 1.429 . S
C165 H192 0.932 . S
C166 C163 1.358 . S
C166 C165 1.429 . S
C166 H193 0.930 . S
C167 C163 1.332 . S
C167 C168 1.394 . S
C167 H194 0.932 . S
C168 C164 1.308 . S
C168 C167 1.394 . S
C168 H195 0.929 . S
C169 Tb160 2.764 . S
C169 C163 1.504 . S
C169 O181 1.239 . S
C169 O182 1.263 . S
O170 Tb160 2.325 . S
O170 C180 1.236 . S
O171 Tb161 2.322 . S
O171 C180 1.257 . S
O172 Tb161 2.349 . S
O172 C183 1.261 . S
O173 Tb160 2.303 . S
O173 C183 1.257 . S
O174 Tb161 2.415 . S
O174 C190 1.239 . S
O175 Tb161 2.399 . S
O175 C190 1.263 . S
O176 Tb161 2.325 . S
O176 C191 1.236 . S
O177 Tb160 2.322 . S
O177 C191 1.257 . S
O178 Tb160 2.349 . S
O178 C162 1.261 . S
O179 Tb161 2.303 . S
O179 C162 1.257 . S
C180 O170 1.236 . S
C180 O171 1.257 . S
O181 Tb160 2.415 . S
O181 C169 1.239 . S
O182 Tb160 2.399 . S
O182 C169 1.263 . S
C183 O172 1.261 . S
C183 O173 1.257 . S
C184 C187 1.358 . S
C184 C188 1.332 . S
C184 C190 1.504 . S
C185 C186 1.373 . S
C185 C189 1.308 . S
C186 C185 1.373 . S
C186 C187 1.429 . S
C186 H196 0.932 . S
C187 C184 1.358 . S
C187 C186 1.429 . S
C187 H197 0.930 . S
C188 C184 1.332 . S
C188 C189 1.394 . S
C188 H198 0.932 . S
C189 C185 1.308 . S
C189 C188 1.394 . S
C189 H199 0.929 . S
C190 Tb161 2.764 . S
C190 O174 1.239 . S
C190 O175 1.263 . S
C190 C184 1.504 . S
C191 O176 1.236 . S
C191 O177 1.257 . S
H192 C165 0.932 . S
H193 C166 0.930 . S
H194 C167 0.932 . S
H195 C168 0.929 . S
H196 C186 0.932 . S
H197 C187 0.930 . S
H198 C188 0.932 . S
H199 C189 0.929 . S
Tb200 C209 2.764 . S
Tb200 O210 2.325 . S
Tb200 O213 2.303 . S
Tb200 O217 2.322 . S
Tb200 O218 2.349 . S
Tb200 O221 2.415 . S
Tb200 O222 2.399 . S
Tb201 O211 2.322 . S
Tb201 O212 2.349 . S
Tb201 O214 2.415 1_556 S
Tb201 O215 2.399 1_556 S
Tb201 O216 2.325 . S
Tb201 O219 2.303 . S
Tb201 C230 2.764 1_556 S
C202 O218 1.261 . S
C202 O219 1.257 . S
C203 C206 1.358 . S
C203 C207 1.332 . S
C203 C209 1.504 . S
C204 C205 1.373 . S
C204 C208 1.308 . S
C205 C204 1.373 . S
C205 C206 1.429 . S
C205 H232 0.932 . S
C206 C203 1.358 . S
C206 C205 1.429 . S
C206 H233 0.930 . S
C207 C203 1.332 . S
C207 C208 1.394 . S
C207 H234 0.932 . S
C208 C204 1.308 . S
C208 C207 1.394 . S
C208 H235 0.929 . S
C209 Tb200 2.764 . S
C209 C203 1.504 . S
C209 O221 1.239 . S
C209 O222 1.263 . S
O210 Tb200 2.325 . S
O210 C220 1.236 . S
O211 Tb201 2.322 . S
O211 C220 1.257 . S
O212 Tb201 2.349 . S
O212 C223 1.261 . S
O213 Tb200 2.303 . S
O213 C223 1.257 . S
O214 Tb201 2.415 1_554 S
O214 C230 1.239 . S
O215 Tb201 2.399 1_554 S
O215 C230 1.263 . S
O216 Tb201 2.325 . S
O216 C231 1.236 . S
O217 Tb200 2.322 . S
O217 C231 1.257 . S
O218 Tb200 2.349 . S
O218 C202 1.261 . S
O219 Tb201 2.303 . S
O219 C202 1.257 . S
C220 O210 1.236 . S
C220 O211 1.257 . S
O221 Tb200 2.415 . S
O221 C209 1.239 . S
O222 Tb200 2.399 . S
O222 C209 1.263 . S
C223 O212 1.261 . S
C223 O213 1.257 . S
C224 C227 1.358 . S
C224 C228 1.332 . S
C224 C230 1.504 . S
C225 C226 1.373 . S
C225 C229 1.308 . S
C226 C225 1.373 . S
C226 C227 1.429 . S
C226 H236 0.932 . S
C227 C224 1.358 . S
C227 C226 1.429 . S
C227 H237 0.930 . S
C228 C224 1.332 . S
C228 C229 1.394 . S
C228 H238 0.932 . S
C229 C225 1.308 . S
C229 C228 1.394 . S
C229 H239 0.929 . S
C230 Tb201 2.764 1_554 S
C230 O214 1.239 . S
C230 O215 1.263 . S
C230 C224 1.504 . S
C231 O216 1.236 . S
C231 O217 1.257 . S
H232 C205 0.932 . S
H233 C206 0.930 . S
H234 C207 0.932 . S
H235 C208 0.929 . S
H236 C226 0.932 . S
H237 C227 0.930 . S
H238 C228 0.932 . S
H239 C229 0.929 . S
Tb240 C249 2.764 . S
Tb240 O250 2.325 . S
Tb240 O253 2.303 . S
Tb240 O257 2.322 . S
Tb240 O258 2.349 . S
Tb240 O261 2.415 . S
Tb240 O262 2.399 . S
Tb241 O251 2.322 . S
Tb241 O252 2.349 . S
Tb241 O254 2.415 . S
Tb241 O255 2.399 . S
Tb241 O256 2.325 . S
Tb241 O259 2.303 . S
Tb241 C270 2.764 . S
C242 O258 1.261 . S
C242 O259 1.257 . S
C243 C246 1.358 . S
C243 C247 1.332 . S
C243 C249 1.504 . S
C244 C245 1.373 . S
C244 C248 1.308 . S
C245 C244 1.373 . S
C245 C246 1.429 . S
C245 H272 0.932 . S
C246 C243 1.358 . S
C246 C245 1.429 . S
C246 H273 0.930 . S
C247 C243 1.332 . S
C247 C248 1.394 . S
C247 H274 0.932 . S
C248 C244 1.308 . S
C248 C247 1.394 . S
C248 H275 0.929 . S
C249 Tb240 2.764 . S
C249 C243 1.504 . S
C249 O261 1.239 . S
C249 O262 1.263 . S
O250 Tb240 2.325 . S
O250 C260 1.236 . S
O251 Tb241 2.322 . S
O251 C260 1.257 . S
O252 Tb241 2.349 . S
O252 C263 1.261 . S
O253 Tb240 2.303 . S
O253 C263 1.257 . S
O254 Tb241 2.415 . S
O254 C270 1.239 . S
O255 Tb241 2.399 . S
O255 C270 1.263 . S
O256 Tb241 2.325 . S
O256 C271 1.236 . S
O257 Tb240 2.322 . S
O257 C271 1.257 . S
O258 Tb240 2.349 . S
O258 C242 1.261 . S
O259 Tb241 2.303 . S
O259 C242 1.257 . S
C260 O250 1.236 . S
C260 O251 1.257 . S
O261 Tb240 2.415 . S
O261 C249 1.239 . S
O262 Tb240 2.399 . S
O262 C249 1.263 . S
C263 O252 1.261 . S
C263 O253 1.257 . S
C264 C267 1.358 . S
C264 C268 1.332 . S
C264 C270 1.504 . S
C265 C266 1.373 . S
C265 C269 1.308 . S
C266 C265 1.373 . S
C266 C267 1.429 . S
C266 H276 0.932 . S
C267 C264 1.358 . S
C267 C266 1.429 . S
C267 H277 0.930 . S
C268 C264 1.332 . S
C268 C269 1.394 . S
C268 H278 0.932 . S
C269 C265 1.308 . S
C269 C268 1.394 . S
C269 H279 0.929 . S
C270 Tb241 2.764 . S
C270 O254 1.239 . S
C270 O255 1.263 . S
C270 C264 1.504 . S
C271 O256 1.236 . S
C271 O257 1.257 . S
H272 C245 0.932 . S
H273 C246 0.930 . S
H274 C247 0.932 . S
H275 C248 0.929 . S
H276 C266 0.932 . S
H277 C267 0.930 . S
H278 C268 0.932 . S
H279 C269 0.929 . S
Tb280 C289 2.764 . S
Tb280 O290 2.325 . S
Tb280 O293 2.303 . S
Tb280 O297 2.322 . S
Tb280 O298 2.349 . S
Tb280 O301 2.415 . S
Tb280 O302 2.399 . S
Tb281 O291 2.322 . S
Tb281 O292 2.349 . S
Tb281 O294 2.415 . S
Tb281 O295 2.399 . S
Tb281 O296 2.325 . S
Tb281 O299 2.303 . S
Tb281 C310 2.764 . S
C282 O298 1.261 . S
C282 O299 1.257 . S
C283 C286 1.358 . S
C283 C287 1.332 . S
C283 C289 1.504 . S
C284 C285 1.373 1_554 S
C284 C288 1.308 1_554 S
C285 C284 1.373 1_556 S
C285 C286 1.429 . S
C285 H312 0.932 . S
C286 C283 1.358 . S
C286 C285 1.429 . S
C286 H313 0.930 . S
C287 C283 1.332 . S
C287 C288 1.394 . S
C287 H314 0.932 . S
C288 C284 1.308 1_556 S
C288 C287 1.394 . S
C288 H315 0.929 1_556 S
C289 Tb280 2.764 . S
C289 C283 1.504 . S
C289 O301 1.239 . S
C289 O302 1.263 . S
O290 Tb280 2.325 . S
O290 C300 1.236 . S
O291 Tb281 2.322 . S
O291 C300 1.257 . S
O292 Tb281 2.349 . S
O292 C303 1.261 . S
O293 Tb280 2.303 . S
O293 C303 1.257 . S
O294 Tb281 2.415 . S
O294 C310 1.239 . S
O295 Tb281 2.399 . S
O295 C310 1.263 . S
O296 Tb281 2.325 . S
O296 C311 1.236 . S
O297 Tb280 2.322 . S
O297 C311 1.257 . S
O298 Tb280 2.349 . S
O298 C282 1.261 . S
O299 Tb281 2.303 . S
O299 C282 1.257 . S
C300 O290 1.236 . S
C300 O291 1.257 . S
O301 Tb280 2.415 . S
O301 C289 1.239 . S
O302 Tb280 2.399 . S
O302 C289 1.263 . S
C303 O292 1.261 . S
C303 O293 1.257 . S
C304 C307 1.358 . S
C304 C308 1.332 . S
C304 C310 1.504 . S
C305 C306 1.373 . S
C305 C309 1.308 . S
C306 C305 1.373 . S
C306 C307 1.429 . S
C306 H316 0.932 . S
C307 C304 1.358 . S
C307 C306 1.429 . S
C307 H317 0.930 . S
C308 C304 1.332 . S
C308 C309 1.394 . S
C308 H318 0.932 . S
C309 C305 1.308 . S
C309 C308 1.394 . S
C309 H319 0.929 . S
C310 Tb281 2.764 . S
C310 O294 1.239 . S
C310 O295 1.263 . S
C310 C304 1.504 . S
C311 O296 1.236 . S
C311 O297 1.257 . S
H312 C285 0.932 . S
H313 C286 0.930 . S
H314 C287 0.932 . S
H315 C288 0.929 1_554 S
H316 C306 0.932 . S
H317 C307 0.930 . S
H318 C308 0.932 . S
H319 C309 0.929 . S
Tb320 C329 2.764 . S
Tb320 O330 2.325 . S
Tb320 O333 2.303 . S
Tb320 O337 2.322 . S
Tb320 O338 2.349 . S
Tb320 O341 2.415 . S
Tb320 O342 2.399 . S
Tb321 O331 2.322 . S
Tb321 O332 2.349 . S
Tb321 O334 2.415 1_554 S
Tb321 O335 2.399 1_554 S
Tb321 O336 2.325 . S
Tb321 O339 2.303 . S
Tb321 C350 2.764 1_554 S
C322 O338 1.261 . S
C322 O339 1.257 . S
C323 C326 1.358 . S
C323 C327 1.332 . S
C323 C329 1.504 . S
C324 C325 1.373 . S
C324 C328 1.308 . S
C325 C324 1.373 . S
C325 C326 1.429 . S
C325 H352 0.932 . S
C326 C323 1.358 . S
C326 C325 1.429 . S
C326 H353 0.930 . S
C327 C323 1.332 . S
C327 C328 1.394 . S
C327 H354 0.932 . S
C328 C324 1.308 . S
C328 C327 1.394 . S
C328 H355 0.929 . S
C329 Tb320 2.764 . S
C329 C323 1.504 . S
C329 O341 1.239 . S
C329 O342 1.263 . S
O330 Tb320 2.325 . S
O330 C340 1.236 . S
O331 Tb321 2.322 . S
O331 C340 1.257 . S
O332 Tb321 2.349 . S
O332 C343 1.261 . S
O333 Tb320 2.303 . S
O333 C343 1.257 . S
O334 Tb321 2.415 1_556 S
O334 C350 1.239 . S
O335 Tb321 2.399 1_556 S
O335 C350 1.263 . S
O336 Tb321 2.325 . S
O336 C351 1.236 . S
O337 Tb320 2.322 . S
O337 C351 1.257 . S
O338 Tb320 2.349 . S
O338 C322 1.261 . S
O339 Tb321 2.303 . S
O339 C322 1.257 . S
C340 O330 1.236 . S
C340 O331 1.257 . S
O341 Tb320 2.415 . S
O341 C329 1.239 . S
O342 Tb320 2.399 . S
O342 C329 1.263 . S
C343 O332 1.261 . S
C343 O333 1.257 . S
C344 C347 1.358 . S
C344 C348 1.332 . S
C344 C350 1.504 . S
C345 C346 1.373 . S
C345 C349 1.308 . S
C346 C345 1.373 . S
C346 C347 1.429 . S
C346 H356 0.932 . S
C347 C344 1.358 . S
C347 C346 1.429 . S
C347 H357 0.930 . S
C348 C344 1.332 . S
C348 C349 1.394 . S
C348 H358 0.932 . S
C349 C345 1.308 . S
C349 C348 1.394 . S
C349 H359 0.929 . S
C350 Tb321 2.764 1_556 S
C350 O334 1.239 . S
C350 O335 1.263 . S
C350 C344 1.504 . S
C351 O336 1.236 . S
C351 O337 1.257 . S
H352 C325 0.932 . S
H353 C326 0.930 . S
H354 C327 0.932 . S
H355 C328 0.929 . S
H356 C346 0.932 . S
H357 C347 0.930 . S
H358 C348 0.932 . S
H359 C349 0.929 . S
Tb360 C369 2.764 . S
Tb360 O370 2.325 . S
Tb360 O373 2.303 . S
Tb360 O377 2.322 . S
Tb360 O378 2.349 . S
Tb360 O381 2.415 . S
Tb360 O382 2.399 . S
Tb361 O371 2.322 . S
Tb361 O372 2.349 . S
Tb361 O374 2.415 . S
Tb361 O375 2.399 . S
Tb361 O376 2.325 . S
Tb361 O379 2.303 . S
Tb361 C390 2.764 . S
C362 O378 1.261 . S
C362 O379 1.257 . S
C363 C366 1.358 . S
C363 C367 1.332 . S
C363 C369 1.504 . S
C364 C365 1.373 . S
C364 C368 1.308 . S
C365 C364 1.373 . S
C365 C366 1.429 . S
C365 H392 0.932 . S
C366 C363 1.358 . S
C366 C365 1.429 . S
C366 H393 0.930 . S
C367 C363 1.332 . S
C367 C368 1.394 . S
C367 H394 0.932 . S
C368 C364 1.308 . S
C368 C367 1.394 . S
C368 H395 0.929 . S
C369 Tb360 2.764 . S
C369 C363 1.504 . S
C369 O381 1.239 . S
C369 O382 1.263 . S
O370 Tb360 2.325 . S
O370 C380 1.236 . S
O371 Tb361 2.322 . S
O371 C380 1.257 . S
O372 Tb361 2.349 . S
O372 C383 1.261 . S
O373 Tb360 2.303 . S
O373 C383 1.257 . S
O374 Tb361 2.415 . S
O374 C390 1.239 . S
O375 Tb361 2.399 . S
O375 C390 1.263 . S
O376 Tb361 2.325 . S
O376 C391 1.236 . S
O377 Tb360 2.322 . S
O377 C391 1.257 . S
O378 Tb360 2.349 . S
O378 C362 1.261 . S
O379 Tb361 2.303 . S
O379 C362 1.257 . S
C380 O370 1.236 . S
C380 O371 1.257 . S
O381 Tb360 2.415 . S
O381 C369 1.239 . S
O382 Tb360 2.399 . S
O382 C369 1.263 . S
C383 O372 1.261 . S
C383 O373 1.257 . S
C384 C387 1.358 . S
C384 C388 1.332 . S
C384 C390 1.504 . S
C385 C386 1.373 . S
C385 C389 1.308 . S
C386 C385 1.373 . S
C386 C387 1.429 . S
C386 H396 0.932 . S
C387 C384 1.358 . S
C387 C386 1.429 . S
C387 H397 0.930 . S
C388 C384 1.332 . S
C388 C389 1.394 . S
C388 H398 0.932 . S
C389 C385 1.308 . S
C389 C388 1.394 . S
C389 H399 0.929 . S
C390 Tb361 2.764 . S
C390 O374 1.239 . S
C390 O375 1.263 . S
C390 C384 1.504 . S
C391 O376 1.236 . S
C391 O377 1.257 . S
H392 C365 0.932 . S
H393 C366 0.930 . S
H394 C367 0.932 . S
H395 C368 0.929 . S
H396 C386 0.932 . S
H397 C387 0.930 . S
H398 C388 0.932 . S
H399 C389 0.929 . S
Tb400 C409 2.764 . S
Tb400 O410 2.325 . S
Tb400 O413 2.303 . S
Tb400 O417 2.322 . S
Tb400 O418 2.349 . S
Tb400 O421 2.415 . S
Tb400 O422 2.399 . S
Tb401 O411 2.322 . S
Tb401 O412 2.349 . S
Tb401 O414 2.415 . S
Tb401 O415 2.399 . S
Tb401 O416 2.325 . S
Tb401 O419 2.303 . S
Tb401 C430 2.764 . S
C402 O418 1.261 . S
C402 O419 1.257 . S
C403 C406 1.358 . S
C403 C407 1.332 . S
C403 C409 1.504 . S
C404 C405 1.373 1_554 S
C404 C408 1.308 1_554 S
C405 C404 1.373 1_556 S
C405 C406 1.429 . S
C405 H432 0.932 . S
C406 C403 1.358 . S
C406 C405 1.429 . S
C406 H433 0.930 . S
C407 C403 1.332 . S
C407 C408 1.394 . S
C407 H434 0.932 . S
C408 C404 1.308 1_556 S
C408 C407 1.394 . S
C408 H435 0.929 1_556 S
C409 Tb400 2.764 . S
C409 C403 1.504 . S
C409 O421 1.239 . S
C409 O422 1.263 . S
O410 Tb400 2.325 . S
O410 C420 1.236 . S
O411 Tb401 2.322 . S
O411 C420 1.257 . S
O412 Tb401 2.349 . S
O412 C423 1.261 . S
O413 Tb400 2.303 . S
O413 C423 1.257 . S
O414 Tb401 2.415 . S
O414 C430 1.239 . S
O415 Tb401 2.399 . S
O415 C430 1.263 . S
O416 Tb401 2.325 . S
O416 C431 1.236 . S
O417 Tb400 2.322 . S
O417 C431 1.257 . S
O418 Tb400 2.349 . S
O418 C402 1.261 . S
O419 Tb401 2.303 . S
O419 C402 1.257 . S
C420 O410 1.236 . S
C420 O411 1.257 . S
O421 Tb400 2.415 . S
O421 C409 1.239 . S
O422 Tb400 2.399 . S
O422 C409 1.263 . S
C423 O412 1.261 . S
C423 O413 1.257 . S
C424 C427 1.358 . S
C424 C428 1.332 . S
C424 C430 1.504 . S
C425 C426 1.373 . S
C425 C429 1.308 . S
C426 C425 1.373 . S
C426 C427 1.429 . S
C426 H436 0.932 . S
C427 C424 1.358 . S
C427 C426 1.429 . S
C427 H437 0.930 . S
C428 C424 1.332 . S
C428 C429 1.394 . S
C428 H438 0.932 . S
C429 C425 1.308 . S
C429 C428 1.394 . S
C429 H439 0.929 . S
C430 Tb401 2.764 . S
C430 O414 1.239 . S
C430 O415 1.263 . S
C430 C424 1.504 . S
C431 O416 1.236 . S
C431 O417 1.257 . S
H432 C405 0.932 . S
H433 C406 0.930 . S
H434 C407 0.932 . S
H435 C408 0.929 1_554 S
H436 C426 0.932 . S
H437 C427 0.930 . S
H438 C428 0.932 . S
H439 C429 0.929 . S
Tb440 C449 2.764 . S
Tb440 O450 2.325 . S
Tb440 O453 2.303 . S
Tb440 O457 2.322 . S
Tb440 O458 2.349 . S
Tb440 O461 2.415 . S
Tb440 O462 2.399 . S
Tb441 O451 2.322 . S
Tb441 O452 2.349 . S
Tb441 O454 2.415 1_554 S
Tb441 O455 2.399 1_554 S
Tb441 O456 2.325 . S
Tb441 O459 2.303 . S
Tb441 C470 2.764 1_554 S
C442 O458 1.261 . S
C442 O459 1.257 . S
C443 C446 1.358 . S
C443 C447 1.332 . S
C443 C449 1.504 . S
C444 C445 1.373 . S
C444 C448 1.308 . S
C445 C444 1.373 . S
C445 C446 1.429 . S
C445 H472 0.932 . S
C446 C443 1.358 . S
C446 C445 1.429 . S
C446 H473 0.930 . S
C447 C443 1.332 . S
C447 C448 1.394 . S
C447 H474 0.932 . S
C448 C444 1.308 . S
C448 C447 1.394 . S
C448 H475 0.929 . S
C449 Tb440 2.764 . S
C449 C443 1.504 . S
C449 O461 1.239 . S
C449 O462 1.263 . S
O450 Tb440 2.325 . S
O450 C460 1.236 . S
O451 Tb441 2.322 . S
O451 C460 1.257 . S
O452 Tb441 2.349 . S
O452 C463 1.261 . S
O453 Tb440 2.303 . S
O453 C463 1.257 . S
O454 Tb441 2.415 1_556 S
O454 C470 1.239 . S
O455 Tb441 2.399 1_556 S
O455 C470 1.263 . S
O456 Tb441 2.325 . S
O456 C471 1.236 . S
O457 Tb440 2.322 . S
O457 C471 1.257 . S
O458 Tb440 2.349 . S
O458 C442 1.261 . S
O459 Tb441 2.303 . S
O459 C442 1.257 . S
C460 O450 1.236 . S
C460 O451 1.257 . S
O461 Tb440 2.415 . S
O461 C449 1.239 . S
O462 Tb440 2.399 . S
O462 C449 1.263 . S
C463 O452 1.261 . S
C463 O453 1.257 . S
C464 C467 1.358 . S
C464 C468 1.332 . S
C464 C470 1.504 . S
C465 C466 1.373 . S
C465 C469 1.308 . S
C466 C465 1.373 . S
C466 C467 1.429 . S
C466 H476 0.932 . S
C467 C464 1.358 . S
C467 C466 1.429 . S
C467 H477 0.930 . S
C468 C464 1.332 . S
C468 C469 1.394 . S
C468 H478 0.932 . S
C469 C465 1.308 . S
C469 C468 1.394 . S
C469 H479 0.929 . S
C470 Tb441 2.764 1_556 S
C470 O454 1.239 . S
C470 O455 1.263 . S
C470 C464 1.504 . S
C471 O456 1.236 . S
C471 O457 1.257 . S
H472 C445 0.932 . S
H473 C446 0.930 . S
H474 C447 0.932 . S
H475 C448 0.929 . S
H476 C466 0.932 . S
H477 C467 0.930 . S
H478 C468 0.932 . S
H479 C469 0.929 . S
C480 C481 1.387 . S
C480 H484 0.950 . S
C480 C489 1.390 . S
C481 C480 1.387 . S
C481 C483 1.387 . S
H482 C489 0.950 . S
C483 C481 1.387 . S
C483 C485 1.390 . S
C483 H487 0.950 . S
H484 C480 0.950 . S
C485 C483 1.390 . S
C485 C486 1.387 . S
C485 H488 0.950 . S
C486 C485 1.387 . S
C486 C489 1.387 . S
H487 C483 0.950 . S
H488 C485 0.950 . S
C489 C480 1.390 . S
C489 H482 0.950 . S
C489 C486 1.387 . S
C490 C491 1.387 . S
C490 H494 0.950 . S
C490 C499 1.390 . S
C491 C490 1.387 . S
C491 C493 1.387 . S
H492 C499 0.950 . S
C493 C491 1.387 . S
C493 C495 1.390 . S
C493 H497 0.950 . S
H494 C490 0.950 . S
C495 C493 1.390 . S
C495 C496 1.387 . S
C495 H498 0.950 . S
C496 C495 1.387 . S
C496 C499 1.387 . S
H497 C493 0.950 . S
H498 C495 0.950 . S
C499 C490 1.390 . S
C499 H492 0.950 . S
C499 C496 1.387 . S
C500 C501 1.387 . S
C500 H504 0.950 . S
C500 C509 1.390 . S
C501 C500 1.387 . S
C501 C503 1.387 . S
H502 C509 0.950 . S
C503 C501 1.387 . S
C503 C505 1.390 . S
C503 H507 0.950 . S
H504 C500 0.950 . S
C505 C503 1.390 . S
C505 C506 1.387 . S
C505 H508 0.950 . S
C506 C505 1.387 . S
C506 C509 1.387 . S
H507 C503 0.950 . S
H508 C505 0.950 . S
C509 C500 1.390 . S
C509 H502 0.950 . S
C509 C506 1.387 . S
C510 C511 1.387 . S
C510 H514 0.950 . S
C510 C519 1.390 . S
C511 C510 1.387 . S
C511 C513 1.387 . S
H512 C519 0.950 . S
C513 C511 1.387 . S
C513 C515 1.390 . S
C513 H517 0.950 . S
H514 C510 0.950 . S
C515 C513 1.390 . S
C515 C516 1.387 . S
C515 H518 0.950 . S
C516 C515 1.387 . S
C516 C519 1.387 . S
H517 C513 0.950 . S
H518 C515 0.950 . S
C519 C510 1.390 . S
C519 H512 0.950 . S
C519 C516 1.387 . S
C520 C521 1.387 . S
C520 H524 0.950 . S
C520 C529 1.390 . S
C521 C520 1.387 . S
C521 C523 1.387 . S
H522 C529 0.950 . S
C523 C521 1.387 . S
C523 C525 1.390 . S
C523 H527 0.950 . S
H524 C520 0.950 . S
C525 C523 1.390 . S
C525 C526 1.387 . S
C525 H528 0.950 . S
C526 C525 1.387 . S
C526 C529 1.387 . S
H527 C523 0.950 . S
H528 C525 0.950 . S
C529 C520 1.390 . S
C529 H522 0.950 . S
C529 C526 1.387 . S
C530 C531 1.387 . S
C530 H534 0.950 . S
C530 C539 1.390 . S
C531 C530 1.387 . S
C531 C533 1.387 . S
H532 C539 0.950 . S
C533 C531 1.387 . S
C533 C535 1.390 . S
C533 H537 0.950 . S
H534 C530 0.950 . S
C535 C533 1.390 . S
C535 C536 1.387 . S
C535 H538 0.950 . S
C536 C535 1.387 . S
C536 C539 1.387 . S
H537 C533 0.950 . S
H538 C535 0.950 . S
C539 C530 1.390 . S
C539 H532 0.950 . S
C539 C536 1.387 . S
C540 C541 1.387 . S
C540 H544 0.950 . S
C540 C549 1.390 1_554 S
C541 C540 1.387 . S
C541 C543 1.387 . S
H542 C549 0.950 . S
C543 C541 1.387 . S
C543 C545 1.390 1_554 S
C543 H547 0.950 . S
H544 C540 0.950 . S
C545 C543 1.390 1_556 S
C545 C546 1.387 . S
C545 H548 0.950 . S
C546 C545 1.387 . S
C546 C549 1.387 . S
H547 C543 0.950 . S
H548 C545 0.950 . S
C549 C540 1.390 1_556 S
C549 H542 0.950 . S
C549 C546 1.387 . S
C550 C551 1.387 . S
C550 H554 0.950 . S
C550 C559 1.390 . S
C551 C550 1.387 . S
C551 C553 1.387 . S
H552 C559 0.950 . S
C553 C551 1.387 . S
C553 C555 1.390 . S
C553 H557 0.950 . S
H554 C550 0.950 . S
C555 C553 1.390 . S
C555 C556 1.387 . S
C555 H558 0.950 . S
C556 C555 1.387 . S
C556 C559 1.387 . S
H557 C553 0.950 . S
H558 C555 0.950 . S
C559 C550 1.390 . S
C559 H552 0.950 . S
C559 C556 1.387 . S
C560 C561 1.387 . S
C560 H564 0.950 . S
C560 C569 1.390 . S
C561 C560 1.387 . S
C561 C563 1.387 . S
H562 C569 0.950 . S
C563 C561 1.387 . S
C563 C565 1.390 . S
C563 H567 0.950 . S
H564 C560 0.950 . S
C565 C563 1.390 . S
C565 C566 1.387 . S
C565 H568 0.950 . S
C566 C565 1.387 . S
C566 C569 1.387 . S
H567 C563 0.950 . S
H568 C565 0.950 . S
C569 C560 1.390 . S
C569 H562 0.950 . S
C569 C566 1.387 . S
C570 C571 1.387 . S
C570 H574 0.950 . S
C570 C579 1.390 1_554 S
C571 C570 1.387 . S
C571 C573 1.387 . S
H572 C579 0.950 . S
C573 C571 1.387 . S
C573 C575 1.390 1_554 S
C573 H577 0.950 . S
H574 C570 0.950 . S
C575 C573 1.390 1_556 S
C575 C576 1.387 . S
C575 H578 0.950 . S
C576 C575 1.387 . S
C576 C579 1.387 . S
H577 C573 0.950 . S
H578 C575 0.950 . S
C579 C570 1.390 1_556 S
C579 H572 0.950 . S
C579 C576 1.387 . S
C580 C581 1.387 . S
C580 H584 0.950 . S
C580 C589 1.390 . S
C581 C580 1.387 . S
C581 C583 1.387 . S
H582 C589 0.950 . S
C583 C581 1.387 . S
C583 C585 1.390 . S
C583 H587 0.950 . S
H584 C580 0.950 . S
C585 C583 1.390 . S
C585 C586 1.387 . S
C585 H588 0.950 . S
C586 C585 1.387 . S
C586 C589 1.387 . S
H587 C583 0.950 . S
H588 C585 0.950 . S
C589 C580 1.390 . S
C589 H582 0.950 . S
C589 C586 1.387 . S
C590 C591 1.387 . S
C590 H594 0.950 . S
C590 C599 1.390 . S
C591 C590 1.387 . S
C591 C593 1.387 . S
H592 C599 0.950 . S
C593 C591 1.387 . S
C593 C595 1.390 . S
C593 H597 0.950 . S
H594 C590 0.950 . S
C595 C593 1.390 . S
C595 C596 1.387 . S
C595 H598 0.950 . S
C596 C595 1.387 . S
C596 C599 1.387 . S
H597 C593 0.950 . S
H598 C595 0.950 . S
C599 C590 1.390 . S
C599 H592 0.950 . S
C599 C596 1.387 . S
C600 C601 1.387 . S
C600 H604 0.950 . S
C600 C609 1.390 1_566 S
C601 C600 1.387 . S
C601 C603 1.387 . S
H602 C609 0.950 . S
C603 C601 1.387 . S
C603 C605 1.390 1_566 S
C603 H607 0.950 . S
H604 C600 0.950 . S
C605 C603 1.390 1_544 S
C605 C606 1.387 . S
C605 H608 0.950 . S
C606 C605 1.387 . S
C606 C609 1.387 . S
H607 C603 0.950 . S
H608 C605 0.950 . S
C609 C600 1.390 1_544 S
C609 H602 0.950 . S
C609 C606 1.387 . S
C610 C611 1.387 . S
C610 H614 0.950 . S
C610 C619 1.390 . S
C611 C610 1.387 . S
C611 C613 1.387 . S
H612 C619 0.950 . S
C613 C611 1.387 . S
C613 C615 1.390 . S
C613 H617 0.950 . S
H614 C610 0.950 . S
C615 C613 1.390 . S
C615 C616 1.387 . S
C615 H618 0.950 . S
C616 C615 1.387 . S
C616 C619 1.387 . S
H617 C613 0.950 . S
H618 C615 0.950 . S
C619 C610 1.390 . S
C619 H612 0.950 . S
C619 C616 1.387 . S
C620 C621 1.387 . S
C620 H624 0.950 . S
C620 C629 1.390 1_455 S
C621 C620 1.387 . S
C621 C623 1.387 . S
H622 C629 0.950 . S
C623 C621 1.387 . S
C623 C625 1.390 1_455 S
C623 H627 0.950 . S
H624 C620 0.950 . S
C625 C623 1.390 1_655 S
C625 C626 1.387 . S
C625 H628 0.950 . S
C626 C625 1.387 . S
C626 C629 1.387 . S
H627 C623 0.950 . S
H628 C625 0.950 . S
C629 C620 1.390 1_655 S
C629 H622 0.950 . S
C629 C626 1.387 . S
C630 C631 1.387 . S
C630 H634 0.950 . S
C630 C639 1.390 1_564 S
C631 C630 1.387 . S
C631 C633 1.387 . S
H632 C639 0.950 . S
C633 C631 1.387 . S
C633 C635 1.390 1_564 S
C633 H637 0.950 . S
H634 C630 0.950 . S
C635 C633 1.390 1_546 S
C635 C636 1.387 . S
C635 H638 0.950 . S
C636 C635 1.387 . S
C636 C639 1.387 . S
H637 C633 0.950 . S
H638 C635 0.950 . S
C639 C630 1.390 1_546 S
C639 H632 0.950 . S
C639 C636 1.387 . S
C640 C641 1.387 . S
C640 H644 0.950 . S
C640 C649 1.390 . S
C641 C640 1.387 . S
C641 C643 1.387 . S
H642 C649 0.950 . S
C643 C641 1.387 . S
C643 C645 1.390 . S
C643 H647 0.950 . S
H644 C640 0.950 . S
C645 C643 1.390 . S
C645 C646 1.387 . S
C645 H648 0.950 . S
C646 C645 1.387 . S
C646 C649 1.387 . S
H647 C643 0.950 . S
H648 C645 0.950 . S
C649 C640 1.390 . S
C649 H642 0.950 . S
C649 C646 1.387 . S
C650 C651 1.387 . S
C650 H654 0.950 . S
C650 C659 1.390 1_455 S
C651 C650 1.387 . S
C651 C653 1.387 . S
H652 C659 0.950 . S
C653 C651 1.387 . S
C653 C655 1.390 1_455 S
C653 H657 0.950 . S
H654 C650 0.950 . S
C655 C653 1.390 1_655 S
C655 C656 1.387 . S
C655 H658 0.950 . S
C656 C655 1.387 . S
C656 C659 1.387 . S
H657 C653 0.950 . S
H658 C655 0.950 . S
C659 C650 1.390 1_655 S
C659 H652 0.950 . S
C659 C656 1.387 . S
C660 C661 1.387 . S
C660 H664 0.950 . S
C660 C669 1.390 1_545 S
C661 C660 1.387 . S
C661 C663 1.387 . S
H662 C669 0.950 . S
C663 C661 1.387 . S
C663 C665 1.390 1_545 S
C663 H667 0.950 . S
H664 C660 0.950 . S
C665 C663 1.390 1_565 S
C665 C666 1.387 . S
C665 H668 0.950 . S
C666 C665 1.387 . S
C666 C669 1.387 . S
H667 C663 0.950 . S
H668 C665 0.950 . S
C669 C660 1.390 1_565 S
C669 H662 0.950 . S
C669 C666 1.387 . S
C670 C671 1.387 . S
C670 H674 0.950 . S
C670 C679 1.390 . S
C671 C670 1.387 . S
C671 C673 1.387 . S
H672 C679 0.950 . S
C673 C671 1.387 . S
C673 C675 1.390 . S
C673 H677 0.950 . S
H674 C670 0.950 . S
C675 C673 1.390 . S
C675 C676 1.387 . S
C675 H678 0.950 . S
C676 C675 1.387 . S
C676 C679 1.387 . S
H677 C673 0.950 . S
H678 C675 0.950 . S
C679 C670 1.390 . S
C679 H672 0.950 . S
C679 C676 1.387 . S
C680 C681 1.387 . S
C680 H684 0.950 . S
C680 C689 1.390 1_655 S
C681 C680 1.387 . S
C681 C683 1.387 . S
H682 C689 0.950 . S
C683 C681 1.387 . S
C683 C685 1.390 1_655 S
C683 H687 0.950 . S
H684 C680 0.950 . S
C685 C683 1.390 1_455 S
C685 C686 1.387 . S
C685 H688 0.950 . S
C686 C685 1.387 . S
C686 C689 1.387 . S
H687 C683 0.950 . S
H688 C685 0.950 . S
C689 C680 1.390 1_455 S
C689 H682 0.950 . S
C689 C686 1.387 . S
C690 C691 1.387 . S
C690 H694 0.950 . S
C690 C699 1.390 1_455 S
C691 C690 1.387 . S
C691 C693 1.387 . S
H692 C699 0.950 . S
C693 C691 1.387 . S
C693 C695 1.390 1_455 S
C693 H697 0.950 . S
H694 C690 0.950 . S
C695 C693 1.390 1_655 S
C695 C696 1.387 . S
C695 H698 0.950 . S
C696 C695 1.387 . S
C696 C699 1.387 . S
H697 C693 0.950 . S
H698 C695 0.950 . S
C699 C690 1.390 1_655 S
C699 H692 0.950 . S
C699 C696 1.387 . S
C700 C701 1.387 . S
C700 H704 0.950 . S
C700 C709 1.390 1_565 S
C701 C700 1.387 . S
C701 C703 1.387 . S
H702 C709 0.950 . S
C703 C701 1.387 . S
C703 C705 1.390 1_565 S
C703 H707 0.950 . S
H704 C700 0.950 . S
C705 C703 1.390 1_545 S
C705 C706 1.387 . S
C705 H708 0.950 . S
C706 C705 1.387 . S
C706 C709 1.387 . S
H707 C703 0.950 . S
H708 C705 0.950 . S
C709 C700 1.390 1_545 S
C709 H702 0.950 . S
C709 C706 1.387 . S
C710 C711 1.387 . S
C710 H714 0.950 . S
C710 C719 1.390 . S
C711 C710 1.387 . S
C711 C713 1.387 . S
H712 C719 0.950 . S
C713 C711 1.387 . S
C713 C715 1.390 . S
C713 H717 0.950 . S
H714 C710 0.950 . S
C715 C713 1.390 . S
C715 C716 1.387 . S
C715 H718 0.950 . S
C716 C715 1.387 . S
C716 C719 1.387 . S
H717 C713 0.950 . S
H718 C715 0.950 . S
C719 C710 1.390 . S
C719 H712 0.950 . S
C719 C716 1.387 . S
C720 C721 1.387 . S
C720 H724 0.950 . S
C720 C729 1.390 1_565 S
C721 C720 1.387 . S
C721 C723 1.387 . S
H722 C729 0.950 . S
C723 C721 1.387 . S
C723 C725 1.390 1_565 S
C723 H727 0.950 . S
H724 C720 0.950 . S
C725 C723 1.390 1_545 S
C725 C726 1.387 . S
C725 H728 0.950 . S
C726 C725 1.387 . S
C726 C729 1.387 . S
H727 C723 0.950 . S
H728 C725 0.950 . S
C729 C720 1.390 1_545 S
C729 H722 0.950 . S
C729 C726 1.387 . S
C730 C731 1.387 . S
C730 H734 0.950 . S
C730 C739 1.390 . S
C731 C730 1.387 . S
C731 C733 1.387 . S
H732 C739 0.950 . S
C733 C731 1.387 . S
C733 C735 1.390 . S
C733 H737 0.950 . S
H734 C730 0.950 . S
C735 C733 1.390 . S
C735 C736 1.387 . S
C735 H738 0.950 . S
C736 C735 1.387 . S
C736 C739 1.387 . S
H737 C733 0.950 . S
H738 C735 0.950 . S
C739 C730 1.390 . S
C739 H732 0.950 . S
C739 C736 1.387 . S
C740 C741 1.387 . S
C740 H744 0.950 . S
C740 C749 1.390 1_655 S
C741 C740 1.387 . S
C741 C743 1.387 . S
H742 C749 0.950 . S
C743 C741 1.387 . S
C743 C745 1.390 1_655 S
C743 H747 0.950 . S
H744 C740 0.950 . S
C745 C743 1.390 1_455 S
C745 C746 1.387 . S
C745 H748 0.950 . S
C746 C745 1.387 . S
C746 C749 1.387 . S
H747 C743 0.950 . S
H748 C745 0.950 . S
C749 C740 1.390 1_455 S
C749 H742 0.950 . S
C749 C746 1.387 . S
C750 C751 1.387 . S
C750 H754 0.950 . S
C750 C759 1.390 1_545 S
C751 C750 1.387 . S
C751 C753 1.387 . S
H752 C759 0.950 . S
C753 C751 1.387 . S
C753 C755 1.390 1_545 S
C753 H757 0.950 . S
H754 C750 0.950 . S
C755 C753 1.390 1_565 S
C755 C756 1.387 . S
C755 H758 0.950 . S
C756 C755 1.387 . S
C756 C759 1.387 . S
H757 C753 0.950 . S
H758 C755 0.950 . S
C759 C750 1.390 1_565 S
C759 H752 0.950 . S
C759 C756 1.387 . S
C760 C761 1.387 . S
C760 H764 0.950 . S
C760 C769 1.390 . S
C761 C760 1.387 . S
C761 C763 1.387 . S
H762 C769 0.950 . S
C763 C761 1.387 . S
C763 C765 1.390 . S
C763 H767 0.950 . S
H764 C760 0.950 . S
C765 C763 1.390 . S
C765 C766 1.387 . S
C765 H768 0.950 . S
C766 C765 1.387 . S
C766 C769 1.387 . S
H767 C763 0.950 . S
H768 C765 0.950 . S
C769 C760 1.390 . S
C769 H762 0.950 . S
C769 C766 1.387 . S
C770 C771 1.387 . S
C770 H774 0.950 . S
C770 C779 1.390 1_455 S
C771 C770 1.387 . S
C771 C773 1.387 . S
H772 C779 0.950 . S
C773 C771 1.387 . S
C773 C775 1.390 1_455 S
C773 H777 0.950 . S
H774 C770 0.950 . S
C775 C773 1.390 1_655 S
C775 C776 1.387 . S
C775 H778 0.950 . S
C776 C775 1.387 . S
C776 C779 1.387 . S
H777 C773 0.950 . S
H778 C775 0.950 . S
C779 C770 1.390 1_655 S
C779 H772 0.950 . S
C779 C776 1.387 . S
C780 C781 1.387 . S
C780 H784 0.950 . S
C780 C789 1.390 . S
C781 C780 1.387 . S
C781 C783 1.387 . S
H782 C789 0.950 . S
C783 C781 1.387 . S
C783 C785 1.390 . S
C783 H787 0.950 . S
H784 C780 0.950 . S
C785 C783 1.390 . S
C785 C786 1.387 . S
C785 H788 0.950 . S
C786 C785 1.387 . S
C786 C789 1.387 . S
H787 C783 0.950 . S
H788 C785 0.950 . S
C789 C780 1.390 . S
C789 H782 0.950 . S
C789 C786 1.387 . S
C790 C791 1.387 . S
C790 H794 0.950 . S
C790 C799 1.390 . S
C791 C790 1.387 . S
C791 C793 1.387 . S
H792 C799 0.950 . S
C793 C791 1.387 . S
C793 C795 1.390 . S
C793 H797 0.950 . S
H794 C790 0.950 . S
C795 C793 1.390 . S
C795 C796 1.387 . S
C795 H798 0.950 . S
C796 C795 1.387 . S
C796 C799 1.387 . S
H797 C793 0.950 . S
H798 C795 0.950 . S
C799 C790 1.390 . S
C799 H792 0.950 . S
C799 C796 1.387 . S
C800 C801 1.387 . S
C800 H804 0.950 . S
C800 C809 1.390 . S
C801 C800 1.387 . S
C801 C803 1.387 . S
H802 C809 0.950 . S
C803 C801 1.387 . S
C803 C805 1.390 . S
C803 H807 0.950 . S
H804 C800 0.950 . S
C805 C803 1.390 . S
C805 C806 1.387 . S
C805 H808 0.950 . S
C806 C805 1.387 . S
C806 C809 1.387 . S
H807 C803 0.950 . S
H808 C805 0.950 . S
C809 C800 1.390 . S
C809 H802 0.950 . S
C809 C806 1.387 . S
C810 C811 1.387 . S
C810 H814 0.950 . S
C810 C819 1.390 . S
C811 C810 1.387 . S
C811 C813 1.387 . S
H812 C819 0.950 . S
C813 C811 1.387 . S
C813 C815 1.390 . S
C813 H817 0.950 . S
H814 C810 0.950 . S
C815 C813 1.390 . S
C815 C816 1.387 . S
C815 H818 0.950 . S
C816 C815 1.387 . S
C816 C819 1.387 . S
H817 C813 0.950 . S
H818 C815 0.950 . S
C819 C810 1.390 . S
C819 H812 0.950 . S
C819 C816 1.387 . S
C820 C821 1.387 . S
C820 H824 0.950 . S
C820 C829 1.390 . S
C821 C820 1.387 . S
C821 C823 1.387 . S
H822 C829 0.950 . S
C823 C821 1.387 . S
C823 C825 1.390 . S
C823 H827 0.950 . S
H824 C820 0.950 . S
C825 C823 1.390 . S
C825 C826 1.387 . S
C825 H828 0.950 . S
C826 C825 1.387 . S
C826 C829 1.387 . S
H827 C823 0.950 . S
H828 C825 0.950 . S
C829 C820 1.390 . S
C829 H822 0.950 . S
C829 C826 1.387 . S
C830 C831 1.387 . S
C830 H834 0.950 . S
C830 C839 1.390 . S
C831 C830 1.387 . S
C831 C833 1.387 . S
H832 C839 0.950 . S
C833 C831 1.387 . S
C833 C835 1.390 . S
C833 H837 0.950 . S
H834 C830 0.950 . S
C835 C833 1.390 . S
C835 C836 1.387 . S
C835 H838 0.950 . S
C836 C835 1.387 . S
C836 C839 1.387 . S
H837 C833 0.950 . S
H838 C835 0.950 . S
C839 C830 1.390 . S
C839 H832 0.950 . S
C839 C836 1.387 . S
C481 C23 1.214 . S
C486 C343 1.214 . S
C491 C63 1.218 . S
C496 C383 1.218 . S
C501 C103 1.214 . S
C506 C423 1.215 . S
C511 C463 1.218 . S
C516 C143 1.217 . S
C521 C183 1.213 . S
C526 C263 1.213 . S
C531 C303 1.214 . S
C536 C223 1.215 . S
C541 C404 1.402 . S
C546 C4 1.402 . S
C551 C444 1.399 . S
C556 C44 1.400 . S
C561 C84 1.402 . S
C566 C244 1.400 . S
C571 C284 1.402 . S
C576 C124 1.402 . S
C581 C324 1.401 . S
C586 C164 1.399 . S
C591 C204 1.399 . S
C596 C364 1.400 . S
C601 C300 4.556 . S
C606 C20 4.556 . S
C611 C340 4.556 . S
C616 C60 4.556 . S
C621 C380 4.556 . S
C626 C100 4.556 . S
C631 C140 4.556 . S
C636 C420 4.556 . S
C641 C180 4.556 . S
C646 C460 4.556 . S
C651 C220 4.556 . S
C656 C260 4.556 . S
C661 C2 1.446 . S
C666 C122 1.446 . S
C671 C42 1.445 . S
C676 C162 1.445 . S
C681 C82 1.448 . S
C686 C202 1.448 . S
C691 C362 1.448 . S
C696 C242 1.448 . S
C701 C282 1.448 . S
C706 C402 1.448 . S
C711 C442 1.448 . S
C716 C322 1.448 . S
C721 C305 0.886 . S
C726 C25 0.886 . S
C731 C345 0.886 . S
C736 C65 0.890 . S
C741 C105 0.886 . S
C746 C385 0.890 . S
C751 C425 0.886 . S
C756 C145 0.886 . S
C761 C465 0.895 . S
C766 C185 0.895 . S
C771 C225 0.887 . S
C776 C265 0.891 . S
C781 C31 4.714 . S
C786 C431 4.714 . S
C791 C71 4.714 . S
C796 C471 4.714 1_556 S
C801 C111 4.714 1_554 S
C806 C271 4.714 . S
C811 C151 4.714 . S
C816 C311 4.714 . S
C821 C191 4.714 . S
C826 C351 4.713 1_556 S
C831 C391 4.714 . S
C836 C231 4.714 1_554 S
