# Generated by pormake.
# Topology ukc, (4)-cn, num edge types: 1
# Building blocks:
#     Node 0, Type 0, BuildingBlock: TATPOV_clean_sbu_0, # of connection points: 4
#     Node 1, Type 0, BuildingBlock: TATPOV_clean_sbu_0, # of connection points: 4
#     Node 2, Type 0, BuildingBlock: TATPOV_clean_sbu_0, # of connection points: 4
#     Node 3, Type 0, BuildingBlock: TATPOV_clean_sbu_0, # of connection points: 4
#     Node 4, Type 0, BuildingBlock: TATPOV_clean_sbu_0, # of connection points: 4
#     Node 5, Type 0, BuildingBlock: TATPOV_clean_sbu_0, # of connection points: 4
#     Node 6, Type 0, BuildingBlock: TATPOV_clean_sbu_0, # of connection points: 4
#     Node 7, Type 0, BuildingBlock: TATPOV_clean_sbu_0, # of connection points: 4
#     Node 8, Type 0, BuildingBlock: TATPOV_clean_sbu_0, # of connection points: 4
#     Node 9, Type 0, BuildingBlock: TATPOV_clean_sbu_0, # of connection points: 4
#     Node 10, Type 0, BuildingBlock: TATPOV_clean_sbu_0, # of connection points: 4
#     Node 11, Type 0, BuildingBlock: TATPOV_clean_sbu_0, # of connection points: 4
#     Node 12, Type 0, BuildingBlock: TATPOV_clean_sbu_0, # of connection points: 4
#     Node 13, Type 0, BuildingBlock: TATPOV_clean_sbu_0, # of connection points: 4
#     Node 14, Type 0, BuildingBlock: TATPOV_clean_sbu_0, # of connection points: 4
#     Node 15, Type 0, BuildingBlock: TATPOV_clean_sbu_0, # of connection points: 4
#     Node 16, Type 0, BuildingBlock: TATPOV_clean_sbu_0, # of connection points: 4
#     Node 17, Type 0, BuildingBlock: TATPOV_clean_sbu_0, # of connection points: 4
#     Node 18, Type 0, BuildingBlock: TATPOV_clean_sbu_0, # of connection points: 4
#     Node 19, Type 0, BuildingBlock: TATPOV_clean_sbu_0, # of connection points: 4
#     Node 20, Type 0, BuildingBlock: TATPOV_clean_sbu_0, # of connection points: 4
#     Node 21, Type 0, BuildingBlock: TATPOV_clean_sbu_0, # of connection points: 4
#     Node 22, Type 0, BuildingBlock: TATPOV_clean_sbu_0, # of connection points: 4
#     Node 23, Type 0, BuildingBlock: TATPOV_clean_sbu_0, # of connection points: 4
#     Node 24, Type 0, BuildingBlock: TATPOV_clean_sbu_0, # of connection points: 4
#     Node 25, Type 0, BuildingBlock: TATPOV_clean_sbu_0, # of connection points: 4
#     Node 26, Type 0, BuildingBlock: TATPOV_clean_sbu_0, # of connection points: 4
#     Node 27, Type 0, BuildingBlock: TATPOV_clean_sbu_0, # of connection points: 4
#     Node 28, Type 0, BuildingBlock: TATPOV_clean_sbu_0, # of connection points: 4
#     Node 29, Type 0, BuildingBlock: TATPOV_clean_sbu_0, # of connection points: 4
#     Node 30, Type 0, BuildingBlock: TATPOV_clean_sbu_0, # of connection points: 4
#     Node 31, Type 0, BuildingBlock: TATPOV_clean_sbu_0, # of connection points: 4
#     Edge 32, Type (0, 0), BuildingBlock: XIVTED_clean_linker_0, # of connection points: 2
#     Edge 33, Type (0, 0), BuildingBlock: XIVTED_clean_linker_0, # of connection points: 2
#     Edge 34, Type (0, 0), BuildingBlock: XIVTED_clean_linker_0, # of connection points: 2
#     Edge 35, Type (0, 0), BuildingBlock: XIVTED_clean_linker_0, # of connection points: 2
#     Edge 36, Type (0, 0), BuildingBlock: XIVTED_clean_linker_0, # of connection points: 2
#     Edge 37, Type (0, 0), BuildingBlock: XIVTED_clean_linker_0, # of connection points: 2
#     Edge 38, Type (0, 0), BuildingBlock: XIVTED_clean_linker_0, # of connection points: 2
#     Edge 39, Type (0, 0), BuildingBlock: XIVTED_clean_linker_0, # of connection points: 2
#     Edge 40, Type (0, 0), BuildingBlock: XIVTED_clean_linker_0, # of connection points: 2
#     Edge 41, Type (0, 0), BuildingBlock: XIVTED_clean_linker_0, # of connection points: 2
#     Edge 42, Type (0, 0), BuildingBlock: XIVTED_clean_linker_0, # of connection points: 2
#     Edge 43, Type (0, 0), BuildingBlock: XIVTED_clean_linker_0, # of connection points: 2
#     Edge 44, Type (0, 0), BuildingBlock: XIVTED_clean_linker_0, # of connection points: 2
#     Edge 45, Type (0, 0), BuildingBlock: XIVTED_clean_linker_0, # of connection points: 2
#     Edge 46, Type (0, 0), BuildingBlock: XIVTED_clean_linker_0, # of connection points: 2
#     Edge 47, Type (0, 0), BuildingBlock: XIVTED_clean_linker_0, # of connection points: 2
#     Edge 48, Type (0, 0), BuildingBlock: XIVTED_clean_linker_0, # of connection points: 2
#     Edge 49, Type (0, 0), BuildingBlock: XIVTED_clean_linker_0, # of connection points: 2
#     Edge 50, Type (0, 0), BuildingBlock: XIVTED_clean_linker_0, # of connection points: 2
#     Edge 51, Type (0, 0), BuildingBlock: XIVTED_clean_linker_0, # of connection points: 2
#     Edge 52, Type (0, 0), BuildingBlock: XIVTED_clean_linker_0, # of connection points: 2
#     Edge 53, Type (0, 0), BuildingBlock: XIVTED_clean_linker_0, # of connection points: 2
#     Edge 54, Type (0, 0), BuildingBlock: XIVTED_clean_linker_0, # of connection points: 2
#     Edge 55, Type (0, 0), BuildingBlock: XIVTED_clean_linker_0, # of connection points: 2
#     Edge 56, Type (0, 0), BuildingBlock: XIVTED_clean_linker_0, # of connection points: 2
#     Edge 57, Type (0, 0), BuildingBlock: XIVTED_clean_linker_0, # of connection points: 2
#     Edge 58, Type (0, 0), BuildingBlock: XIVTED_clean_linker_0, # of connection points: 2
#     Edge 59, Type (0, 0), BuildingBlock: XIVTED_clean_linker_0, # of connection points: 2
#     Edge 60, Type (0, 0), BuildingBlock: XIVTED_clean_linker_0, # of connection points: 2
#     Edge 61, Type (0, 0), BuildingBlock: XIVTED_clean_linker_0, # of connection points: 2
#     Edge 62, Type (0, 0), BuildingBlock: XIVTED_clean_linker_0, # of connection points: 2
#     Edge 63, Type (0, 0), BuildingBlock: XIVTED_clean_linker_0, # of connection points: 2
#     Edge 64, Type (0, 0), BuildingBlock: XIVTED_clean_linker_0, # of connection points: 2
#     Edge 65, Type (0, 0), BuildingBlock: XIVTED_clean_linker_0, # of connection points: 2
#     Edge 66, Type (0, 0), BuildingBlock: XIVTED_clean_linker_0, # of connection points: 2
#     Edge 67, Type (0, 0), BuildingBlock: XIVTED_clean_linker_0, # of connection points: 2
#     Edge 68, Type (0, 0), BuildingBlock: XIVTED_clean_linker_0, # of connection points: 2
#     Edge 69, Type (0, 0), BuildingBlock: XIVTED_clean_linker_0, # of connection points: 2
#     Edge 70, Type (0, 0), BuildingBlock: XIVTED_clean_linker_0, # of connection points: 2
#     Edge 71, Type (0, 0), BuildingBlock: XIVTED_clean_linker_0, # of connection points: 2
#     Edge 72, Type (0, 0), BuildingBlock: XIVTED_clean_linker_0, # of connection points: 2
#     Edge 73, Type (0, 0), BuildingBlock: XIVTED_clean_linker_0, # of connection points: 2
#     Edge 74, Type (0, 0), BuildingBlock: XIVTED_clean_linker_0, # of connection points: 2
#     Edge 75, Type (0, 0), BuildingBlock: XIVTED_clean_linker_0, # of connection points: 2
#     Edge 76, Type (0, 0), BuildingBlock: XIVTED_clean_linker_0, # of connection points: 2
#     Edge 77, Type (0, 0), BuildingBlock: XIVTED_clean_linker_0, # of connection points: 2
#     Edge 78, Type (0, 0), BuildingBlock: XIVTED_clean_linker_0, # of connection points: 2
#     Edge 79, Type (0, 0), BuildingBlock: XIVTED_clean_linker_0, # of connection points: 2
#     Edge 80, Type (0, 0), BuildingBlock: XIVTED_clean_linker_0, # of connection points: 2
#     Edge 81, Type (0, 0), BuildingBlock: XIVTED_clean_linker_0, # of connection points: 2
#     Edge 82, Type (0, 0), BuildingBlock: XIVTED_clean_linker_0, # of connection points: 2
#     Edge 83, Type (0, 0), BuildingBlock: XIVTED_clean_linker_0, # of connection points: 2
#     Edge 84, Type (0, 0), BuildingBlock: XIVTED_clean_linker_0, # of connection points: 2
#     Edge 85, Type (0, 0), BuildingBlock: XIVTED_clean_linker_0, # of connection points: 2
#     Edge 86, Type (0, 0), BuildingBlock: XIVTED_clean_linker_0, # of connection points: 2
#     Edge 87, Type (0, 0), BuildingBlock: XIVTED_clean_linker_0, # of connection points: 2
#     Edge 88, Type (0, 0), BuildingBlock: XIVTED_clean_linker_0, # of connection points: 2
#     Edge 89, Type (0, 0), BuildingBlock: XIVTED_clean_linker_0, # of connection points: 2
#     Edge 90, Type (0, 0), BuildingBlock: XIVTED_clean_linker_0, # of connection points: 2
#     Edge 91, Type (0, 0), BuildingBlock: XIVTED_clean_linker_0, # of connection points: 2
#     Edge 92, Type (0, 0), BuildingBlock: XIVTED_clean_linker_0, # of connection points: 2
#     Edge 93, Type (0, 0), BuildingBlock: XIVTED_clean_linker_0, # of connection points: 2
#     Edge 94, Type (0, 0), BuildingBlock: XIVTED_clean_linker_0, # of connection points: 2
#     Edge 95, Type (0, 0), BuildingBlock: XIVTED_clean_linker_0, # of connection points: 2
# Relax obj value: 0.024
# Max RMSD: 0.064
# Mean RMSD: 0.064
data_MOF--net-ukc--node1-TATPOV_clean_sbu_0--edge1-XIVTED_clean_linker_0
_symmetry_space_group_name_H-M    P1
_symmetry_Int_Tables_number       1
_symmetry_cell_setting            triclinic
loop_
_symmetry_equiv_pos_as_xyz
'x, y, z'
_cell_length_a     44.787399
_cell_length_b     44.826853
_cell_length_c     88.045922
_cell_angle_alpha  90.100037
_cell_angle_beta   89.907011
_cell_angle_gamma 90.206707
loop_
_atom_site_label
_atom_site_type_symbol
_atom_site_fract_x
_atom_site_fract_y
_atom_site_fract_z
_atom_type_partial_charge
Zn0 Zn 0.05465 0.40038 0.03898 0.0
Zn1 Zn 0.1041 0.38846 0.02351 0.0
O2 O 0.11741 0.38957 0.04614 0.0
O3 O 0.07581 0.39929 0.05859 0.0
O4 O 0.14272 0.38151 0.01173 0.0
O5 O 0.04996 0.43946 0.02914 0.0
O6 O 0.08881 0.42845 0.01485 0.0
C7 C 0.10359 0.3946 0.05857 0.0
C8 C 0.04922 0.34745 0.02083 0.0
O9 O 0.07648 0.35305 0.0176 0.0
O10 O 0.03503 0.3644 0.02978 0.0
C11 C 0.16597 0.39675 0.01484 0.0
O12 O 0.16465 0.41652 0.02586 0.0
C13 C 0.06763 0.44607 0.01846 0.0
Zn14 Zn 0.85421 0.79039 0.28784 0.0
Zn15 Zn 0.86123 0.84268 0.27792 0.0
O16 O 0.86974 0.84755 0.30108 0.0
O17 O 0.8731 0.80022 0.30746 0.0
O18 O 0.86698 0.88401 0.26872 0.0
O19 O 0.81019 0.79098 0.28632 0.0
O20 O 0.81749 0.83139 0.27271 0.0
C21 C 0.87551 0.82748 0.31091 0.0
C22 C 0.89519 0.78913 0.26424 0.0
O23 O 0.8927 0.81723 0.26629 0.0
O24 O 0.87838 0.77144 0.27148 0.0
C25 C 0.84691 0.90404 0.26897 0.0
O26 O 0.82146 0.89839 0.27585 0.0
C27 C 0.80008 0.811 0.2777 0.0
Zn28 Zn 0.45729 0.58474 0.54912 0.0
Zn29 Zn 0.41084 0.59538 0.53063 0.0
O30 O 0.39208 0.58608 0.55158 0.0
O31 O 0.43014 0.57576 0.56644 0.0
O32 O 0.37418 0.59951 0.51711 0.0
O33 O 0.47172 0.55156 0.53624 0.0
O34 O 0.43528 0.56191 0.52033 0.0
C35 C 0.40231 0.57827 0.56448 0.0
C36 C 0.45765 0.64402 0.53586 0.0
O37 O 0.43317 0.63573 0.52973 0.0
O38 O 0.47168 0.6265 0.54457 0.0
C39 C 0.35757 0.62248 0.51746 0.0
O40 O 0.36493 0.64482 0.5264 0.0
C41 C 0.45836 0.54679 0.52384 0.0
Zn42 Zn 0.67049 0.21024 0.79783 0.0
Zn43 Zn 0.65723 0.16702 0.77792 0.0
O44 O 0.66807 0.14554 0.79797 0.0
O45 O 0.68002 0.1811 0.81413 0.0
O46 O 0.65259 0.13204 0.76318 0.0
O47 O 0.70309 0.2265 0.78512 0.0
O48 O 0.6898 0.19347 0.76782 0.0
C49 C 0.67691 0.1537 0.8111 0.0
C50 C 0.61006 0.21327 0.78568 0.0
O51 O 0.61682 0.18926 0.77866 0.0
O52 O 0.62888 0.22582 0.79435 0.0
C53 C 0.63801 0.10856 0.76665 0.0
O54 O 0.62388 0.10759 0.77973 0.0
C55 C 0.70588 0.21563 0.77195 0.0
Zn56 Zn 0.05237 0.61253 0.44148 0.0
Zn57 Zn 0.10366 0.61024 0.45106 0.0
O58 O 0.10957 0.62139 0.42835 0.0
O59 O 0.0639 0.63613 0.42335 0.0
O60 O 0.1457 0.60822 0.45989 0.0
O61 O 0.04691 0.56904 0.43914 0.0
O62 O 0.08647 0.56738 0.45381 0.0
C63 C 0.09085 0.63337 0.41934 0.0
C64 C 0.05483 0.64707 0.46703 0.0
O65 O 0.08248 0.64314 0.46409 0.0
O66 O 0.03541 0.63261 0.45967 0.0
C67 C 0.1597 0.63199 0.46347 0.0
O68 O 0.14684 0.65786 0.46109 0.0
C69 C 0.06456 0.55421 0.44732 0.0
Zn70 Zn 0.66857 0.81512 0.67569 0.0
Zn71 Zn 0.65337 0.86166 0.69295 0.0
O72 O 0.66234 0.8791 0.67158 0.0
O73 O 0.6757 0.8405 0.65766 0.0
O74 O 0.6448 0.89898 0.70567 0.0
O75 O 0.70295 0.80554 0.68862 0.0
O76 O 0.68911 0.84185 0.70398 0.0
C77 C 0.67144 0.86822 0.659 0.0
C78 C 0.60951 0.80958 0.68847 0.0
O79 O 0.61499 0.83545 0.69394 0.0
O80 O 0.62878 0.79646 0.68035 0.0
C81 C 0.66195 0.92154 0.70414 0.0
O82 O 0.68449 0.91974 0.69462 0.0
C83 C 0.70658 0.8203 0.7007 0.0
Zn84 Zn 0.456 0.41621 0.92154 0.0
Zn85 Zn 0.41075 0.40256 0.94034 0.0
O86 O 0.39063 0.41643 0.92043 0.0
O87 O 0.42783 0.42902 0.90536 0.0
O88 O 0.3753 0.39677 0.95459 0.0
O89 O 0.47249 0.44634 0.93565 0.0
O90 O 0.43692 0.4335 0.9517 0.0
C91 C 0.40011 0.42666 0.9078 0.0
C92 C 0.45599 0.35467 0.93179 0.0
O93 O 0.43198 0.36177 0.93873 0.0
O94 O 0.46976 0.37373 0.92377 0.0
C95 C 0.35171 0.38291 0.9506 0.0
O96 O 0.35066 0.37056 0.93707 0.0
C97 C 0.46019 0.44881 0.94851 0.0
Zn98 Zn 0.85885 0.20408 0.18558 0.0
Zn99 Zn 0.8586 0.15373 0.1988 0.0
O100 O 0.86484 0.1412 0.17636 0.0
O101 O 0.87421 0.18558 0.16668 0.0
O102 O 0.85578 0.11471 0.21053 0.0
O103 O 0.81573 0.21195 0.18778 0.0
O104 O 0.81762 0.17344 0.20316 0.0
C105 C 0.87268 0.15758 0.16521 0.0
C106 C 0.90233 0.20363 0.20818 0.0
O107 O 0.89546 0.17593 0.20804 0.0
O108 O 0.8874 0.22184 0.20035 0.0
C109 C 0.87685 0.09579 0.21119 0.0
O110 O 0.90194 0.10138 0.20397 0.0
C111 C 0.80328 0.19531 0.19747 0.0
Zn112 Zn 0.94312 0.58966 0.91675 0.0
Zn113 Zn 0.90331 0.60815 0.93698 0.0
O114 O 0.87923 0.59027 0.9189 0.0
O115 O 0.91263 0.57259 0.90295 0.0
O116 O 0.87078 0.61782 0.95261 0.0
O117 O 0.9633 0.56358 0.93134 0.0
O118 O 0.93183 0.58002 0.94866 0.0
C119 C 0.88566 0.5765 0.90664 0.0
C120 C 0.94774 0.65253 0.92346 0.0
O121 O 0.92554 0.64764 0.93226 0.0
O122 O 0.95831 0.63172 0.91535 0.0
C123 C 0.8446 0.62574 0.94869 0.0
O124 O 0.83879 0.62947 0.9342 0.0
C125 C 0.95448 0.56437 0.94495 0.0
Zn126 Zn 0.15919 0.18869 0.67067 0.0
Zn127 Zn 0.14044 0.14827 0.69047 0.0
O128 O 0.15283 0.12481 0.67103 0.0
O129 O 0.16987 0.15858 0.65508 0.0
O130 O 0.13137 0.1144 0.70539 0.0
O131 O 0.19071 0.20378 0.68425 0.0
O132 O 0.17396 0.17217 0.70141 0.0
C133 C 0.1646 0.13162 0.65829 0.0
C134 C 0.09828 0.19812 0.68064 0.0
O135 O 0.10218 0.17435 0.68839 0.0
O136 O 0.11887 0.20787 0.67209 0.0
C137 C 0.11853 0.09039 0.70114 0.0
O138 O 0.10868 0.08843 0.68712 0.0
C139 C 0.19174 0.19316 0.69751 0.0
Zn140 Zn 0.57723 0.40885 0.41668 0.0
Zn141 Zn 0.61762 0.3875 0.43547 0.0
O142 O 0.64062 0.40262 0.41635 0.0
O143 O 0.60664 0.4213 0.40112 0.0
O144 O 0.65206 0.37579 0.44946 0.0
O145 O 0.56323 0.43862 0.43151 0.0
O146 O 0.59468 0.41934 0.44796 0.0
C147 C 0.63367 0.41583 0.40404 0.0
C148 C 0.56646 0.3473 0.4247 0.0
O149 O 0.59054 0.35004 0.43238 0.0
O150 O 0.557 0.36886 0.4168 0.0
C151 C 0.67502 0.3626 0.44419 0.0
O152 O 0.67509 0.35432 0.42987 0.0
C153 C 0.57392 0.43773 0.44476 0.0
Zn154 Zn 0.33704 0.82149 0.18006 0.0
Zn155 Zn 0.35685 0.86206 0.19809 0.0
O156 O 0.34375 0.88323 0.17794 0.0
O157 O 0.32507 0.84792 0.1634 0.0
O158 O 0.36814 0.89714 0.212 0.0
O159 O 0.30652 0.80675 0.19389 0.0
O160 O 0.32538 0.83783 0.21071 0.0
C161 C 0.33125 0.87507 0.16558 0.0
C162 C 0.39811 0.81193 0.18815 0.0
O163 O 0.39506 0.83651 0.19535 0.0
O164 O 0.37659 0.80109 0.18064 0.0
C165 C 0.35313 0.92121 0.21118 0.0
O166 O 0.33075 0.92253 0.20158 0.0
C167 C 0.30736 0.81669 0.20729 0.0
Zn168 Zn 0.95272 0.40656 0.54236 0.0
Zn169 Zn 0.90896 0.38688 0.52662 0.0
O170 O 0.89202 0.41131 0.5449 0.0
O171 O 0.93 0.4335 0.55594 0.0
O172 O 0.87052 0.37616 0.51536 0.0
O173 O 0.97412 0.42157 0.52448 0.0
O174 O 0.93555 0.40828 0.51049 0.0
C175 C 0.90221 0.42901 0.55505 0.0
C176 C 0.95137 0.3433 0.54202 0.0
O177 O 0.9295 0.34732 0.53294 0.0
O178 O 0.96352 0.36535 0.54857 0.0
C179 C 0.86893 0.3666 0.50176 0.0
O180 O 0.89373 0.36168 0.49418 0.0
C181 C 0.96176 0.41934 0.51165 0.0
Zn182 Zn 0.34475 0.202 0.30867 0.0
Zn183 Zn 0.36268 0.1601 0.2895 0.0
O184 O 0.34017 0.13826 0.30685 0.0
O185 O 0.32189 0.17354 0.32149 0.0
O186 O 0.37111 0.12609 0.27465 0.0
O187 O 0.32431 0.22457 0.29261 0.0
O188 O 0.33821 0.18952 0.27654 0.0
C189 C 0.32445 0.1462 0.31824 0.0
C190 C 0.40847 0.20107 0.30472 0.0
O191 O 0.40303 0.17983 0.2954 0.0
O192 O 0.38752 0.21263 0.31237 0.0
C193 C 0.37998 0.10038 0.27879 0.0
O194 O 0.3864 0.09592 0.29317 0.0
C195 C 0.3252 0.21424 0.27926 0.0
Zn196 Zn 0.57242 0.59561 0.05438 0.0
Zn197 Zn 0.6166 0.61349 0.03613 0.0
O198 O 0.63692 0.60126 0.05651 0.0
O199 O 0.60022 0.58489 0.07096 0.0
O200 O 0.65151 0.62297 0.02171 0.0
O201 O 0.55929 0.56412 0.04024 0.0
O202 O 0.59419 0.57992 0.02452 0.0
C203 C 0.62773 0.58978 0.06893 0.0
C204 C 0.5656 0.65635 0.04409 0.0
O205 O 0.5904 0.65169 0.03728 0.0
O206 O 0.55404 0.63619 0.05229 0.0
C207 C 0.67852 0.62613 0.02601 0.0
O208 O 0.68466 0.62495 0.04058 0.0
C209 C 0.57232 0.56256 0.02754 0.0
Zn210 Zn 0.17026 0.82151 0.80659 0.0
Zn211 Zn 0.15274 0.86466 0.78818 0.0
O212 O 0.16755 0.88534 0.80797 0.0
O213 O 0.18323 0.84929 0.82285 0.0
O214 O 0.14328 0.90101 0.77507 0.0
O215 O 0.20024 0.80723 0.79198 0.0
O216 O 0.18431 0.84094 0.77574 0.0
C217 C 0.17942 0.87675 0.82037 0.0
C218 C 0.10857 0.81581 0.79763 0.0
O219 O 0.11347 0.84014 0.79049 0.0
O220 O 0.12904 0.80394 0.80544 0.0
C221 C 0.12934 0.90115 0.76249 0.0
O222 O 0.11914 0.87585 0.75696 0.0
C223 C 0.20125 0.81898 0.77897 0.0
Zn224 Zn 0.55173 0.90607 0.54655 0.0
Zn225 Zn 0.59727 0.89402 0.52797 0.0
O226 O 0.61668 0.90576 0.54851 0.0
O227 O 0.5788 0.91631 0.56355 0.0
O228 O 0.63352 0.8885 0.51416 0.0
O229 O 0.53746 0.93872 0.5336 0.0
O230 O 0.57339 0.92769 0.51743 0.0
C231 C 0.60661 0.91456 0.56131 0.0
C232 C 0.54958 0.84642 0.53429 0.0
O233 O 0.57423 0.85364 0.52794 0.0
O234 O 0.53612 0.86482 0.54279 0.0
C235 C 0.65659 0.87457 0.51867 0.0
O236 O 0.65621 0.86217 0.53218 0.0
C237 C 0.55068 0.94326 0.52114 0.0
Zn238 Zn 0.34933 0.31255 0.79767 0.0
Zn239 Zn 0.36251 0.35715 0.7788 0.0
O240 O 0.35082 0.37726 0.79916 0.0
O241 O 0.33894 0.34029 0.81446 0.0
O242 O 0.36824 0.39334 0.76504 0.0
O243 O 0.31712 0.29747 0.78446 0.0
O244 O 0.3295 0.33234 0.76798 0.0
C245 C 0.34157 0.36795 0.81202 0.0
C246 C 0.40963 0.31004 0.78588 0.0
O247 O 0.40282 0.33441 0.77924 0.0
O248 O 0.39081 0.29693 0.79432 0.0
C249 C 0.38935 0.41208 0.76691 0.0
O250 O 0.40932 0.40709 0.77752 0.0
C251 C 0.31365 0.30973 0.77169 0.0
Zn252 Zn 0.94992 0.11087 0.03133 0.0
Zn253 Zn 0.89862 0.11445 0.02228 0.0
O254 O 0.89295 0.11726 0.0458 0.0
O255 O 0.93988 0.12548 0.05177 0.0
O256 O 0.85654 0.11599 0.01325 0.0
O257 O 0.95491 0.06774 0.02877 0.0
O258 O 0.9146 0.07305 0.01491 0.0
C259 C 0.91281 0.12362 0.05569 0.0
C260 C 0.94881 0.15661 0.01108 0.0
O261 O 0.92102 0.15169 0.01331 0.0
O262 O 0.96781 0.13869 0.01636 0.0
C263 C 0.84434 0.14 0.0087 0.0
O264 O 0.85892 0.16531 0.01022 0.0
C265 C 0.93633 0.05702 0.0195 0.0
Zn266 Zn 0.12481 0.70679 0.285 0.0
Zn267 Zn 0.12647 0.65539 0.27501 0.0
O268 O 0.12033 0.64931 0.29829 0.0
O269 O 0.10667 0.69478 0.30452 0.0
O270 O 0.12899 0.61348 0.26608 0.0
O271 O 0.16829 0.71429 0.28416 0.0
O272 O 0.16711 0.6749 0.26931 0.0
C273 C 0.11042 0.66779 0.30811 0.0
C274 C 0.08439 0.70201 0.26145 0.0
O275 O 0.09027 0.67456 0.26381 0.0
O276 O 0.09915 0.72194 0.26831 0.0
C277 C 0.10556 0.59812 0.26351 0.0
O278 O 0.07942 0.6094 0.26706 0.0
C279 C 0.18111 0.69741 0.27472 0.0
Zn280 Zn 0.55179 0.09259 0.91835 0.0
Zn281 Zn 0.59668 0.10562 0.93774 0.0
O282 O 0.61738 0.09455 0.91754 0.0
O283 O 0.5809 0.08254 0.90193 0.0
O284 O 0.63202 0.11078 0.95212 0.0
O285 O 0.53604 0.06053 0.93163 0.0
O286 O 0.57103 0.07298 0.94806 0.0
C287 C 0.6085 0.08553 0.90456 0.0
C288 C 0.55041 0.15315 0.93037 0.0
O289 O 0.57451 0.14594 0.93714 0.0
O290 O 0.5371 0.13455 0.92187 0.0
C291 C 0.65004 0.13275 0.95126 0.0
O292 O 0.64503 0.1537 0.94118 0.0
C293 C 0.54826 0.05729 0.94444 0.0
Zn294 Zn 0.15009 0.29293 0.18383 0.0
Zn295 Zn 0.14156 0.34517 0.19801 0.0
O296 O 0.14309 0.35618 0.17519 0.0
O297 O 0.14877 0.31277 0.16375 0.0
O298 O 0.13756 0.38521 0.20879 0.0
O299 O 0.18964 0.28796 0.19336 0.0
O300 O 0.18139 0.32922 0.20632 0.0
C301 C 0.1464 0.34083 0.16308 0.0
C302 C 0.09775 0.29287 0.20265 0.0
O303 O 0.10487 0.32013 0.20488 0.0
O304 O 0.11367 0.27658 0.19415 0.0
C305 C 0.11272 0.39818 0.21108 0.0
O306 O 0.08803 0.38536 0.2063 0.0
C307 C 0.19789 0.30692 0.20314 0.0
Zn308 Zn 0.96455 0.87279 0.44236 0.0
Zn309 Zn 0.91289 0.87203 0.45393 0.0
O310 O 0.90469 0.86406 0.43102 0.0
O311 O 0.95039 0.85485 0.42311 0.0
O312 O 0.87202 0.87081 0.4642 0.0
O313 O 0.96917 0.91655 0.44377 0.0
O314 O 0.92919 0.9146 0.45826 0.0
C315 C 0.92267 0.85594 0.42056 0.0
C316 C 0.96402 0.83292 0.46636 0.0
O317 O 0.93612 0.83821 0.46513 0.0
O318 O 0.98249 0.84735 0.45836 0.0
C319 C 0.84881 0.88361 0.45906 0.0
O320 O 0.85076 0.89877 0.44633 0.0
C321 C 0.9511 0.92928 0.45267 0.0
Zn322 Zn 0.35223 0.70299 0.67565 0.0
Zn323 Zn 0.36548 0.65814 0.69439 0.0
O324 O 0.35518 0.63875 0.67366 0.0
O325 O 0.34364 0.67574 0.65838 0.0
O326 O 0.37004 0.62117 0.70775 0.0
O327 O 0.31882 0.71673 0.68851 0.0
O328 O 0.33186 0.68224 0.705 0.0
C329 C 0.34664 0.64811 0.66071 0.0
C330 C 0.412 0.70653 0.68843 0.0
O331 O 0.40551 0.68166 0.69471 0.0
O332 O 0.39325 0.71939 0.67992 0.0
C333 C 0.39443 0.6089 0.71168 0.0
O334 O 0.41987 0.62121 0.70761 0.0
C335 C 0.31547 0.70431 0.70126 0.0
Zn336 Zn 0.43379 0.10009 0.41933 0.0
Zn337 Zn 0.394 0.11785 0.43981 0.0
O338 O 0.3697 0.10226 0.42136 0.0
O339 O 0.40286 0.08575 0.40495 0.0
O340 O 0.36042 0.12702 0.45488 0.0
O341 O 0.4516 0.07122 0.43341 0.0
O342 O 0.41969 0.08625 0.45088 0.0
C343 C 0.37595 0.08956 0.40879 0.0
C344 C 0.44099 0.16188 0.42773 0.0
O345 O 0.41845 0.15698 0.43632 0.0
O346 O 0.45077 0.14147 0.41912 0.0
C347 C 0.33681 0.14015 0.45044 0.0
O348 O 0.33566 0.15008 0.43642 0.0
C349 C 0.44159 0.06988 0.44681 0.0
Zn350 Zn 0.65148 0.69814 0.17745 0.0
Zn351 Zn 0.63541 0.65665 0.19586 0.0
O352 O 0.65637 0.63638 0.17722 0.0
O353 O 0.67516 0.6729 0.16357 0.0
O354 O 0.62712 0.62147 0.21012 0.0
O355 O 0.6714 0.722 0.19317 0.0
O356 O 0.66006 0.68609 0.20921 0.0
C357 C 0.67181 0.64532 0.16588 0.0
C358 C 0.58852 0.69727 0.18174 0.0
O359 O 0.59468 0.67649 0.19114 0.0
O360 O 0.60889 0.70835 0.17351 0.0
C361 C 0.62124 0.59537 0.20516 0.0
O362 O 0.61879 0.59124 0.19044 0.0
C363 C 0.67164 0.71162 0.20648 0.0
Zn364 Zn 0.06441 0.90756 0.92339 0.0
Zn365 Zn 0.10332 0.88942 0.94286 0.0
O366 O 0.12606 0.91101 0.92528 0.0
O367 O 0.09211 0.93037 0.9103 0.0
O368 O 0.13797 0.87959 0.95718 0.0
O369 O 0.04063 0.92834 0.93874 0.0
O370 O 0.07341 0.91431 0.9559 0.0
C371 C 0.1192 0.92671 0.91372 0.0
C372 C 0.06249 0.84439 0.92698 0.0
O373 O 0.08297 0.84936 0.93678 0.0
O374 O 0.05233 0.86556 0.91905 0.0
C375 C 0.16164 0.86827 0.95158 0.0
O376 O 0.16193 0.86117 0.9371 0.0
C377 C 0.04909 0.92746 0.9524 0.0
Zn378 Zn 0.85261 0.33178 0.66871 0.0
Zn379 Zn 0.87211 0.37479 0.68648 0.0
O380 O 0.86119 0.39481 0.66585 0.0
O381 O 0.84446 0.35845 0.65133 0.0
O382 O 0.88236 0.41145 0.69932 0.0
O383 O 0.81939 0.32136 0.68237 0.0
O384 O 0.83771 0.35422 0.69851 0.0
C385 C 0.85022 0.38579 0.65328 0.0
C386 C 0.91267 0.32181 0.67952 0.0
O387 O 0.90961 0.34738 0.68579 0.0
O388 O 0.89172 0.31081 0.67164 0.0
C389 C 0.88596 0.41146 0.71366 0.0
O390 O 0.8847 0.38601 0.72102 0.0
C391 C 0.81877 0.33384 0.69524 0.0
Zn392 Zn 0.44313 0.90672 0.04982 0.0
Zn393 Zn 0.39705 0.88892 0.03391 0.0
O394 O 0.38046 0.90384 0.05475 0.0
O395 O 0.41972 0.9181 0.06791 0.0
O396 O 0.35832 0.87909 0.0226 0.0
O397 O 0.45359 0.93795 0.03512 0.0
O398 O 0.41755 0.92113 0.02039 0.0
C399 C 0.39178 0.91489 0.06683 0.0
C400 C 0.44849 0.84572 0.04038 0.0
O401 O 0.42247 0.84988 0.03481 0.0
O402 O 0.46172 0.86661 0.04736 0.0
C403 C 0.35663 0.87307 0.00849 0.0
O404 O 0.38135 0.87157 0.00047 0.0
C405 C 0.43944 0.93888 0.02274 0.0
Zn406 Zn 0.85241 0.69989 0.80535 0.0
Zn407 Zn 0.86897 0.65877 0.78525 0.0
O408 O 0.85056 0.63598 0.80359 0.0
O409 O 0.83539 0.67032 0.81969 0.0
O410 O 0.87818 0.62448 0.77057 0.0
O411 O 0.82556 0.71893 0.7906 0.0
O412 O 0.83987 0.68611 0.77342 0.0
C413 C 0.83765 0.64319 0.81598 0.0
C414 C 0.91487 0.70344 0.7978 0.0
O415 O 0.90904 0.68107 0.78926 0.0
O416 O 0.89468 0.71457 0.80613 0.0
C417 C 0.88963 0.6005 0.77566 0.0
O418 O 0.89711 0.5993 0.79007 0.0
C419 C 0.82461 0.709 0.77718 0.0
Zn420 Zn 0.06093 0.08585 0.55014 0.0
Zn421 Zn 0.10416 0.10406 0.53306 0.0
O422 O 0.12247 0.08397 0.55226 0.0
O423 O 0.08539 0.06409 0.56514 0.0
O424 O 0.1419 0.11395 0.52096 0.0
O425 O 0.04117 0.06463 0.53349 0.0
O426 O 0.0779 0.07857 0.51839 0.0
C427 C 0.11305 0.06865 0.56352 0.0
C428 C 0.05985 0.14891 0.54604 0.0
O429 O 0.08249 0.14393 0.53756 0.0
O430 O 0.04781 0.12783 0.5534 0.0
C431 C 0.14325 0.12858 0.5086 0.0
O432 O 0.11852 0.13923 0.50275 0.0
C433 C 0.05285 0.06543 0.52043 0.0
Zn434 Zn 0.66612 0.31293 0.29897 0.0
Zn435 Zn 0.64426 0.35483 0.28202 0.0
O436 O 0.66888 0.37521 0.29931 0.0
O437 O 0.69113 0.33927 0.31182 0.0
O438 O 0.63196 0.39009 0.26865 0.0
O439 O 0.68343 0.29133 0.28172 0.0
O440 O 0.66638 0.3269 0.26689 0.0
C441 C 0.68661 0.36676 0.3098 0.0
C442 C 0.60238 0.31182 0.29862 0.0
O443 O 0.6055 0.33367 0.28943 0.0
O444 O 0.62498 0.30041 0.30493 0.0
C445 C 0.62764 0.41619 0.27399 0.0
O446 O 0.62912 0.42031 0.28874 0.0
C447 C 0.67977 0.30204 0.26861 0.0
H448 H 0.949 0.56728 0.97601 0.0
H449 H 0.08615 0.45751 -0.01061 0.0
H450 H 1.00254 0.5286 0.94021 0.0
H451 H 0.03095 0.49236 0.0255 0.0
H452 H 0.06163 0.49127 0.97166 0.0
H453 H 0.98279 0.5454 -0.00529 0.0
C454 C 0.96768 0.55403 0.97209 0.0
C455 C 0.97279 0.54953 0.95655 0.0
C456 C 0.05522 0.49187 0.98352 0.0
C457 C 0.01175 0.52504 0.97778 0.0
C458 C 0.06945 0.47281 -0.00633 0.0
C459 C 0.05998 0.47164 0.00882 0.0
C460 C 0.03139 0.50962 -0.01136 0.0
C461 C 0.03839 0.49209 0.0138 0.0
C462 C 0.98714 0.54183 0.98275 0.0
C463 C 0.99759 0.53253 0.95209 0.0
N464 N 0.02438 0.50988 0.00366 0.0
N465 N 0.01608 0.52086 0.96265 0.0
H466 H 0.68925 0.76955 0.20438 0.0
H467 H 0.75642 0.77289 0.28741 0.0
H468 H 0.68034 0.69744 0.23659 0.0
H469 H 0.77606 0.83796 0.25267 0.0
H470 H 0.71638 0.75291 0.27165 0.0
H471 H 0.71001 0.8009 0.22423 0.0
C472 C 0.6917 0.76022 0.21565 0.0
C473 C 0.6837 0.73051 0.21875 0.0
C474 C 0.729 0.77198 0.26763 0.0
C475 C 0.70737 0.76663 0.2416 0.0
C476 C 0.75177 0.78354 0.27664 0.0
C477 C 0.77027 0.80643 0.27107 0.0
C478 C 0.72484 0.78341 0.25298 0.0
C479 C 0.76278 0.81985 0.25725 0.0
C480 C 0.70335 0.77831 0.22701 0.0
C481 C 0.68673 0.72002 0.23365 0.0
N482 N 0.74103 0.80764 0.24848 0.0
N483 N 0.69872 0.73799 0.24452 0.0
H484 H 0.5336 0.48224 0.44083 0.0
H485 H 0.50205 0.50581 0.52904 0.0
H486 H 0.58018 0.43344 0.47574 0.0
H487 H 0.44708 0.54224 0.49339 0.0
H488 H 0.53122 0.47921 0.50997 0.0
H489 H 0.50361 0.50635 0.46025 0.0
C490 C 0.53775 0.4768 0.45262 0.0
C491 C 0.55934 0.45563 0.45667 0.0
C492 C 0.5126 0.49278 0.50633 0.0
C493 C 0.52468 0.48299 0.47899 0.0
C494 C 0.49584 0.50788 0.51721 0.0
C495 C 0.47226 0.52649 0.51276 0.0
C496 C 0.50586 0.49652 0.49092 0.0
C497 C 0.46509 0.52819 0.49731 0.0
C498 C 0.52042 0.49044 0.4637 0.0
C499 C 0.56381 0.44965 0.47212 0.0
N500 N 0.48208 0.51365 0.48691 0.0
N501 N 0.54647 0.46319 0.48276 0.0
H502 H 0.7698 0.29916 0.69048 0.0
H503 H 0.74797 0.25823 0.77792 0.0
H504 H 0.82239 0.33903 0.72627 0.0
H505 H 0.70667 0.20993 0.74098 0.0
H506 H 0.77368 0.28985 0.75952 0.0
H507 H 0.74288 0.26996 0.70932 0.0
C508 C 0.7754 0.3021 0.70236 0.0
C509 C 0.79858 0.32133 0.70682 0.0
C510 C 0.75916 0.27222 0.75545 0.0
C511 C 0.76812 0.28751 0.72844 0.0
C512 C 0.74458 0.25403 0.76593 0.0
C513 C 0.72505 0.23145 0.76096 0.0
C514 C 0.75402 0.26793 0.7399 0.0
C515 C 0.72157 0.227 0.74531 0.0
C516 C 0.76015 0.28522 0.7131 0.0
C517 C 0.80467 0.32444 0.72236 0.0
N518 N 0.73575 0.24526 0.73533 0.0
N519 N 0.78969 0.30742 0.73264 0.0
H520 H 0.02177 0.41897 0.50891 0.0
H521 H 0.01832 0.52119 0.43592 0.0
H522 H 0.94165 0.4396 0.48393 0.0
H523 H 0.091 0.51712 0.46802 0.0
H524 H 0.99574 0.47765 0.44792 0.0
H525 H 0.05162 0.44082 0.4887 0.0
C526 C 0.01045 0.42796 0.49907 0.0
C527 C 0.97916 0.42846 0.49827 0.0
C528 C 0.01697 0.48588 0.45209 0.0
C529 C 0.0133 0.45357 0.47513 0.0
C530 C 0.02997 0.51071 0.44525 0.0
C531 C 0.05609 0.52343 0.45135 0.0
C532 C 0.03027 0.47371 0.46505 0.0
C533 C 0.0705 0.50848 0.46319 0.0
C534 C 0.02755 0.44026 0.48751 0.0
C535 C 0.96571 0.43938 0.48507 0.0
N536 N 0.05705 0.48471 0.46987 0.0
N537 N 0.98291 0.45218 0.4741 0.0
H538 H 0.75371 0.78399 0.69487 0.0
H539 H 0.78574 0.75437 0.78252 0.0
H540 H 0.70999 0.83159 0.73128 0.0
H541 H 0.82483 0.70276 0.74613 0.0
H542 H 0.76075 0.78536 0.76388 0.0
H543 H 0.78424 0.75808 0.71344 0.0
C544 C 0.75084 0.78931 0.70679 0.0
C545 C 0.72899 0.80964 0.71159 0.0
C546 C 0.77476 0.76726 0.75995 0.0
C547 C 0.76359 0.77972 0.73289 0.0
C548 C 0.78896 0.74942 0.77058 0.0
C549 C 0.8074 0.72586 0.76586 0.0
C550 C 0.77897 0.76159 0.74445 0.0
C551 C 0.81068 0.72055 0.75026 0.0
C552 C 0.7682 0.77438 0.71738 0.0
C553 C 0.7265 0.81598 0.72712 0.0
N554 N 0.79661 0.73836 0.74009 0.0
N555 N 0.74337 0.80073 0.73727 0.0
H556 H 0.44778 0.45175 0.97897 0.0
H557 H 0.58497 0.56109 -0.00299 0.0
H558 H 0.50683 0.48731 0.94459 0.0
H559 H 0.52966 0.51983 0.03135 0.0
H560 H 0.55719 0.53371 0.97753 0.0
H561 H 0.47688 0.47791 -0.00167 0.0
C562 C 0.46664 0.46532 0.97548 0.0
C563 C 0.47496 0.46726 0.96017 0.0
C564 C 0.55132 0.53053 -0.01065 0.0
C565 C 0.50858 0.49684 0.98221 0.0
C566 C 0.56732 0.54596 0.00047 0.0
C567 C 0.55945 0.54292 0.0158 0.0
C568 C 0.52733 0.51205 -0.00635 0.0
C569 C 0.53631 0.52308 0.01965 0.0
C570 C 0.4834 0.48004 -0.01347 0.0
C571 C 0.49969 0.48506 0.95627 0.0
N572 N 0.52093 0.50859 0.00863 0.0
N573 N 0.51569 0.49908 0.96724 0.0
H574 H 0.77077 0.168 0.2199 0.0
H575 H 0.68874 0.3199 0.23898 0.0
H576 H 0.76999 0.24396 0.18978 0.0
H577 H 0.69215 0.24302 0.26841 0.0
H578 H 0.70884 0.28916 0.21825 0.0
H579 H 0.73097 0.19093 0.2347 0.0
C580 C 0.76181 0.1892 0.21621 0.0
C581 C 0.77438 0.20455 0.20391 0.0
C582 C 0.70478 0.27901 0.22922 0.0
C583 C 0.72941 0.23125 0.22096 0.0
C584 C 0.69349 0.29658 0.24103 0.0
C585 C 0.68966 0.28419 0.2555 0.0
C586 C 0.71206 0.24899 0.232 0.0
C587 C 0.69561 0.25374 0.25753 0.0
C588 C 0.73915 0.20238 0.2247 0.0
C589 C 0.76148 0.2317 0.19945 0.0
N590 N 0.70678 0.23731 0.24597 0.0
N591 N 0.74017 0.24457 0.20821 0.0
H592 H 0.30919 0.31963 0.74102 0.0
H593 H 0.19336 0.18523 0.72843 0.0
H594 H 0.2721 0.26673 0.77746 0.0
H595 H 0.2346 0.23499 0.69198 0.0
H596 H 0.22184 0.21502 0.74671 0.0
H597 H 0.27999 0.29027 0.72288 0.0
C598 C 0.29462 0.30215 0.74522 0.0
C599 C 0.29322 0.29548 0.76074 0.0
C600 C 0.22473 0.21928 0.73469 0.0
C601 C 0.2602 0.26157 0.74011 0.0
C602 C 0.20866 0.20212 0.72427 0.0
C603 C 0.21149 0.20773 0.70868 0.0
C604 C 0.24367 0.24215 0.72945 0.0
C605 C 0.23154 0.23001 0.7039 0.0
C606 C 0.27816 0.28522 0.73486 0.0
C607 C 0.27406 0.27248 0.76557 0.0
N608 N 0.24673 0.2465 0.71425 0.0
N609 N 0.25843 0.25625 0.75528 0.0
H610 H 0.20788 0.67706 0.2488 0.0
H611 H 0.30981 0.82222 0.23857 0.0
H612 H 0.21773 0.74239 0.28458 0.0
H613 H 0.26707 0.77251 0.20249 0.0
H614 H 0.28627 0.78832 0.25711 0.0
H615 H 0.24379 0.70501 0.23355 0.0
C616 C 0.21819 0.6968 0.25363 0.0
C617 C 0.20914 0.70793 0.26776 0.0
C618 C 0.28226 0.78503 0.2451 0.0
C619 C 0.24958 0.74028 0.2503 0.0
C620 C 0.29531 0.8045 0.23456 0.0
C621 C 0.29041 0.80022 0.21896 0.0
C622 C 0.26473 0.76106 0.23987 0.0
C623 C 0.27166 0.77671 0.21437 0.0
C624 C 0.23843 0.71293 0.24486 0.0
C625 C 0.22356 0.73347 0.27353 0.0
N626 N 0.25973 0.75798 0.22475 0.0
N627 N 0.24268 0.74922 0.26463 0.0
H628 H 0.30128 0.26987 0.28123 0.0
H629 H 0.24177 0.26708 0.19644 0.0
H630 H 0.31998 0.19931 0.24913 0.0
H631 H 0.21551 0.33238 0.22997 0.0
H632 H 0.27977 0.24876 0.21378 0.0
H633 H 0.2783 0.29857 0.26103 0.0
C634 C 0.30056 0.26037 0.26991 0.0
C635 C 0.31202 0.23184 0.2669 0.0
C636 C 0.26601 0.26739 0.21727 0.0
C637 C 0.28586 0.2648 0.24372 0.0
C638 C 0.24435 0.27791 0.20737 0.0
C639 C 0.22495 0.30074 0.21198 0.0
C640 C 0.2681 0.27966 0.23188 0.0
C641 C 0.22969 0.31441 0.22609 0.0
C642 C 0.28759 0.27691 0.25837 0.0
C643 C 0.311 0.221 0.25198 0.0
N644 N 0.25049 0.30325 0.23569 0.0
N645 N 0.2978 0.2374 0.24094 0.0
H646 H 0.24574 0.77903 0.78365 0.0
H647 H 0.27263 0.74596 0.69572 0.0
H648 H 0.19912 0.82542 0.74792 0.0
H649 H 0.31249 0.69512 0.73199 0.0
H650 H 0.24515 0.77504 0.71446 0.0
H651 H 0.2716 0.74945 0.76466 0.0
C652 C 0.24114 0.78321 0.77177 0.0
C653 C 0.22008 0.80463 0.76735 0.0
C654 C 0.25971 0.75738 0.71832 0.0
C655 C 0.24948 0.77044 0.74551 0.0
C656 C 0.27532 0.74065 0.70763 0.0
C657 C 0.29508 0.71821 0.71232 0.0
C658 C 0.26399 0.75176 0.73381 0.0
C659 C 0.29752 0.7122 0.72788 0.0
C660 C 0.25582 0.76614 0.76093 0.0
C661 C 0.21523 0.80919 0.75181 0.0
N662 N 0.28236 0.7291 0.73809 0.0
N663 N 0.22973 0.79205 0.74141 0.0
H664 H 0.5091 0.98554 0.52757 0.0
H665 H 0.48587 0.0301 0.44085 0.0
H666 H 0.56242 0.95047 0.49077 0.0
H667 H 0.43329 0.06627 0.47768 0.0
H668 H 0.51461 1.00149 0.45905 0.0
H669 H 0.48273 0.01701 0.50962 0.0
C670 C 0.51546 0.98465 0.5157 0.0
C671 C 0.5378 0.96513 0.51061 0.0
C672 C 0.49678 0.01563 0.46318 0.0
C673 C 0.50744 1.00095 0.48998 0.0
C674 C 0.48023 0.03193 0.45279 0.0
C675 C 0.45712 0.05067 0.45777 0.0
C676 C 0.49024 0.01802 0.47869 0.0
C677 C 0.45084 0.05204 0.47335 0.0
C678 C 0.50031 1.00259 0.50546 0.0
C679 C 0.54529 0.96515 0.49516 0.0
N680 N 0.4674 0.03594 0.48329 0.0
N681 N 0.52992 0.98263 0.48534 0.0
H682 H 0.05862 0.93359 0.98322 0.0
H683 H 0.91384 0.03348 -0.0069 0.0
H684 H 0.99352 0.94979 0.94805 0.0
H685 H 0.97581 0.01536 0.02942 0.0
H686 H 0.93716 0.99407 0.9781 0.0
H687 H 0.02451 0.95641 0.00169 0.0
C688 C 0.03722 0.94185 0.9794 0.0
C689 C 0.02922 0.94038 0.96404 0.0
C690 C 0.94532 0.99834 -0.01053 0.0
C691 C 0.99006 0.96598 0.98499 0.0
C692 C 0.9318 0.02069 -0.00193 0.0
C693 C 0.94351 0.02826 0.0123 0.0
C694 C 0.9708 0.98383 -0.00486 0.0
C695 C 0.96665 0.01075 0.01828 0.0
C696 C 0.01766 0.95465 -0.01007 0.0
C697 C 1.00098 0.95096 0.95972 0.0
N698 N 0.98001 0.98978 0.00953 0.0
N699 N 0.9826 0.9635 0.97011 0.0
H700 H 0.56065 0.05248 0.97475 0.0
H701 H 0.42861 0.93677 -0.00802 0.0
H702 H 0.50239 0.01795 0.93978 0.0
H703 H 0.47728 0.98568 0.0263 0.0
H704 H 0.45556 0.96498 0.97236 0.0
H705 H 0.53202 0.02475 -0.00637 0.0
C706 C 0.54207 0.0388 0.97102 0.0
C707 C 0.53381 0.03765 0.95569 0.0
C708 C 0.46007 0.96963 0.98421 0.0
C709 C 0.50066 0.00621 0.97724 0.0
C710 C 0.44454 0.95375 -0.00462 0.0
C711 C 0.45096 0.9587 0.01076 0.0
C712 C 0.4821 0.99039 -0.01145 0.0
C713 C 0.47189 0.98085 0.01457 0.0
C714 C 0.52554 0.02318 0.98182 0.0
C715 C 0.50943 0.0196 0.95151 0.0
N716 N 0.48688 0.99565 0.00355 0.0
N717 N 0.49362 0.00464 0.96224 0.0
H718 H 0.07185 0.05205 0.49134 0.0
H719 H 0.92294 0.96171 0.47487 0.0
H720 H 0.99418 0.0508 0.52049 0.0
H721 H 0.99766 0.96476 0.44382 0.0
H722 H 0.94461 1.0035 0.4888 0.0
H723 H 0.04208 0.02784 0.47137 0.0
C724 C 0.04858 0.04687 0.49349 0.0
C725 C 0.03572 0.05263 0.50771 0.0
C726 C 0.95605 0.99537 0.47878 0.0
C727 C 1.00159 0.02555 0.48503 0.0
C728 C 0.94354 0.97158 0.47077 0.0
C729 C 0.95899 0.95913 0.45848 0.0
C730 C 0.98433 0.00636 0.47455 0.0
C731 C 0.98538 0.97316 0.45352 0.0
C732 C 0.03156 0.03325 0.4821 0.0
C733 C 0.00532 0.04599 0.50985 0.0
N734 N 0.99763 0.99559 0.4618 0.0
N735 N 0.98944 0.03257 0.49871 0.0
H736 H 0.91895 0.20984 0.00941 0.0
H737 H 0.07315 0.29912 0.00581 0.0
H738 H 1.00404 0.16916 -0.00032 0.0
H739 H 0.98939 0.33628 0.02093 0.0
H740 H 0.04641 0.25412 -0.00247 0.0
H741 H 0.94232 0.25902 0.0069 0.0
C742 C 0.94232 0.21124 0.00629 0.0
C743 C 0.95974 0.18543 0.00509 0.0
C744 C 0.03388 0.27232 0.00249 0.0
C745 C 0.98674 0.24145 0.00254 0.0
C746 C 0.04915 0.29796 0.00724 0.0
C747 C 0.0336 0.32121 0.01437 0.0
C748 C 1.00287 0.27004 0.00486 0.0
C749 C 1.00243 0.31865 0.01579 0.0
C750 C 0.95575 0.23932 0.005 0.0
C751 C 0.98993 0.18855 0.00101 0.0
N752 N 0.98818 0.29344 0.01122 0.0
N753 N 1.00261 0.21604 0.00016 0.0
H754 H 0.03439 0.66907 0.2545 0.0
H755 H 0.94356 0.8184 0.25199 0.0
H756 H 0.0737 0.75639 0.24894 0.0
H757 H 0.90373 0.73095 0.25611 0.0
H758 H 0.98972 0.79518 0.24318 0.0
H759 H 0.98593 0.68967 0.24731 0.0
C760 C 0.03301 0.69236 0.25132 0.0
C761 C 0.05782 0.71128 0.25279 0.0
C762 C 0.97067 0.78107 0.2457 0.0
C763 C 1.00255 0.7351 0.24486 0.0
C764 C 0.94427 0.79438 0.2507 0.0
C765 C 0.92011 0.77655 0.25527 0.0
C766 C 0.97294 0.74977 0.24545 0.0
C767 C 0.92214 0.74554 0.25314 0.0
C768 C 0.0053 0.70419 0.24729 0.0
C769 C 0.05487 0.74121 0.24839 0.0
N770 N 0.94832 0.7331 0.24872 0.0
N771 N 0.02759 0.75235 0.24496 0.0
H772 H 0.43024 0.69272 0.52309 0.0
H773 H 0.4905 0.83337 0.53555 0.0
H774 H 0.51439 0.6633 0.54153 0.0
H775 H 0.57617 0.79281 0.52707 0.0
H776 H 0.46676 0.7847 0.53327 0.0
H777 H 0.45174 0.74262 0.51961 0.0
C778 C 0.45319 0.69674 0.5264 0.0
C779 C 0.47034 0.67397 0.53288 0.0
C780 C 0.49063 0.78641 0.53155 0.0
C781 C 0.49497 0.73089 0.52907 0.0
C782 C 0.50431 0.81418 0.53304 0.0
C783 C 0.53541 0.81708 0.53159 0.0
C784 C 0.50819 0.76116 0.52875 0.0
C785 C 0.55213 0.79151 0.52825 0.0
C786 C 0.46539 0.72524 0.52451 0.0
C787 C 0.50014 0.68033 0.53676 0.0
N788 N 0.53834 0.76444 0.52721 0.0
N789 N 0.51149 0.70819 0.53482 0.0
H790 H 0.59704 0.27206 0.7891 0.0
H791 H 0.4225 0.25104 0.78779 0.0
H792 H 0.55655 0.18766 0.77731 0.0
H793 H 0.46346 0.33642 0.77863 0.0
H794 H 0.47124 0.2273 0.78549 0.0
H795 H 0.54842 0.29603 0.78685 0.0
C796 C 0.57788 0.25855 0.78601 0.0
C797 C 0.58076 0.22772 0.78352 0.0
C798 C 0.46956 0.25117 0.78385 0.0
C799 C 0.52501 0.25512 0.78104 0.0
C800 C 0.4418 0.26481 0.78525 0.0
C801 C 0.43901 0.29582 0.78353 0.0
C802 C 0.49491 0.2687 0.78101 0.0
C803 C 0.46467 0.31248 0.78007 0.0
C804 C 0.55019 0.27233 0.78463 0.0
C805 C 0.55526 0.21144 0.77936 0.0
N806 N 0.4917 0.29874 0.77914 0.0
N807 N 0.5283 0.22528 0.77846 0.0
H808 H 0.9332 0.78372 0.47643 0.0
H809 H 1.00279 0.65076 0.48297 0.0
H810 H 0.02067 0.82424 0.47659 0.0
H811 H 0.08284 0.70034 0.47253 0.0
H812 H 0.97895 0.69662 0.4913 0.0
H813 H 0.95517 0.73711 0.48474 0.0
C814 C 0.95695 0.78302 0.4787 0.0
C815 C 0.97523 0.80759 0.47539 0.0
C816 C 1.00172 0.69774 0.48727 0.0
C817 C 1.00099 0.7541 0.48494 0.0
C818 C 0.01553 0.67135 0.48272 0.0
C819 C 0.0445 0.67197 0.47662 0.0
C820 C 0.01677 0.72502 0.48526 0.0
C821 C 0.06028 0.69897 0.47692 0.0
C822 C 0.9697 0.75622 0.48349 0.0
C823 C 0.00584 0.80553 0.47861 0.0
N824 N 0.04593 0.72457 0.48076 0.0
N825 N 0.01781 0.7791 0.48288 0.0
H826 H 0.59868 0.74984 0.68761 0.0
H827 H 0.42349 0.76592 0.68691 0.0
H828 H 0.55514 0.834 0.69603 0.0
H829 H 0.4661 0.68179 0.69632 0.0
H830 H 0.47146 0.79115 0.68968 0.0
H831 H 0.55072 0.72436 0.6903 0.0
C832 C 0.579 0.76297 0.69011 0.0
C833 C 0.58083 0.79417 0.69144 0.0
C834 C 0.47034 0.76722 0.69129 0.0
C835 C 0.5258 0.76504 0.69441 0.0
C836 C 0.443 0.75273 0.68961 0.0
C837 C 0.44089 0.72163 0.69122 0.0
C838 C 0.49601 0.75049 0.69431 0.0
C839 C 0.46679 0.70577 0.69493 0.0
C840 C 0.55168 0.74835 0.69173 0.0
C841 C 0.55471 0.80996 0.69487 0.0
N842 N 0.49344 0.72035 0.69613 0.0
N843 N 0.52815 0.79525 0.69601 0.0
H844 H 0.57796 0.20561 0.93865 0.0
H845 H 0.42777 0.30178 0.93879 0.0
H846 H 0.49197 0.16815 0.9272 0.0
H847 H 0.51434 0.33948 0.92869 0.0
H848 H 0.4509 0.25216 0.94028 0.0
H849 H 0.55457 0.25498 0.94081 0.0
C850 C 0.55419 0.20774 0.93671 0.0
C851 C 0.53694 0.18289 0.93257 0.0
C852 C 0.46474 0.27141 0.93781 0.0
C853 C 0.51011 0.23885 0.93523 0.0
C854 C 0.4516 0.29964 0.93699 0.0
C855 C 0.46911 0.32465 0.93343 0.0
C856 C 0.49563 0.26844 0.93537 0.0
C857 C 0.49994 0.3207 0.93124 0.0
C858 C 0.5409 0.23584 0.9379 0.0
C859 C 0.50617 0.18683 0.93021 0.0
N860 N 0.51222 0.29316 0.93228 0.0
N861 N 0.49373 0.21427 0.9316 0.0
H862 H 0.04923 0.32185 0.21492 0.0
H863 H 0.95296 0.172 0.2149 0.0
H864 H 0.08431 0.23397 0.20598 0.0
H865 H 0.91544 0.26043 0.21697 0.0
H866 H 1.00254 0.19353 0.21927 0.0
H867 H 1.00182 0.29895 0.22274 0.0
C868 C 0.04712 0.29777 0.21482 0.0
C869 C 0.07047 0.27983 0.20945 0.0
C870 C 0.98335 0.20816 0.2191 0.0
C871 C 0.01654 0.25353 0.2184 0.0
C872 C 0.95502 0.19582 0.21674 0.0
C873 C 0.93021 0.21454 0.21522 0.0
C874 C 0.98673 0.23935 0.21992 0.0
C875 C 0.93414 0.24526 0.21773 0.0
C876 C 0.02009 0.2847 0.21928 0.0
C877 C 0.06664 0.24872 0.2097 0.0
N878 N 0.96194 0.25678 0.21967 0.0
N879 N 0.04011 0.2366 0.21391 0.0
H880 H 0.92589 0.7083 0.93031 0.0
H881 H 0.08393 0.78858 0.93435 0.0
H882 H 0.00661 0.66184 0.91789 0.0
H883 H 0.00547 0.83419 0.91815 0.0
H884 H 0.05563 0.74129 0.93366 0.0
H885 H 0.95468 0.75517 0.93132 0.0
C886 C 0.94957 0.70799 0.92779 0.0
C887 C 0.96383 0.68131 0.92383 0.0
C888 C 0.04483 0.76178 0.93023 0.0
C889 C 0.99678 0.73422 0.92539 0.0
C890 C 0.0609 0.78862 0.93062 0.0
C891 C 0.04714 0.81522 0.92614 0.0
C892 C 0.01468 0.7619 0.9258 0.0
C893 C 0.01712 0.81413 0.9215 0.0
C894 C 0.96593 0.73461 0.92836 0.0
C895 C 0.99466 0.68203 0.92077 0.0
N896 N 1.00182 0.78799 0.92158 0.0
N897 N 0.01017 0.70802 0.92174 0.0
H898 H 0.91703 0.26144 0.67829 0.0
H899 H 0.09288 0.25763 0.67587 0.0
H900 H 0.97007 0.34062 0.68584 0.0
H901 H 0.04145 0.18028 0.68907 0.0
H902 H 0.04803 0.28804 0.67763 0.0
H903 H 0.96194 0.23108 0.68049 0.0
C904 C 0.93818 0.27247 0.68043 0.0
C905 C 0.93988 0.30369 0.68174 0.0
C906 C 0.04655 0.26448 0.68024 0.0
C907 C 0.99142 0.26891 0.68416 0.0
C908 C 0.07208 0.24698 0.67912 0.0
C909 C 0.07085 0.21624 0.68219 0.0
C910 C 0.01929 0.25115 0.68416 0.0
C911 C 0.04336 0.20384 0.68656 0.0
C912 C 0.96374 0.25505 0.68179 0.0
C913 C 0.96779 0.31667 0.68472 0.0
N914 N 0.01852 0.2213 0.68723 0.0
N915 N 0.99259 0.29923 0.68562 0.0
H916 H 0.50684 0.34343 0.41945 0.0
H917 H 0.42185 0.21729 0.43736 0.0
H918 H 0.58226 0.28995 0.43287 0.0
H919 H 0.49908 0.17088 0.42006 0.0
H920 H 0.45147 0.26365 0.43792 0.0
H921 H 0.47465 0.29972 0.42159 0.0
C922 C 0.51668 0.32244 0.42285 0.0
C923 C 0.5474 0.32032 0.42593 0.0
C924 C 0.46175 0.24327 0.43391 0.0
C925 C 0.51035 0.2702 0.42858 0.0
C926 C 0.44493 0.21687 0.43366 0.0
C927 C 0.45784 0.19034 0.42841 0.0
C928 C 0.49176 0.24288 0.42912 0.0
C929 C 0.48801 0.19095 0.42392 0.0
C930 C 0.49813 0.2976 0.42426 0.0
C931 C 0.55875 0.29257 0.4304 0.0
N932 N 0.50396 0.21672 0.42445 0.0
N933 N 0.54025 0.26842 0.43139 0.0
H934 H 0.4035 0.75182 0.18882 0.0
H935 H 0.57465 0.75098 0.16938 0.0
H936 H 0.45583 0.83279 0.18889 0.0
H937 H 0.53581 0.67856 0.19511 0.0
H938 H 0.52864 0.77902 0.17238 0.0
H939 H 0.44956 0.72263 0.18782 0.0
C940 C 0.42476 0.76342 0.18869 0.0
C941 C 0.42601 0.79473 0.18885 0.0
C942 C 0.53019 0.75698 0.17733 0.0
C943 C 0.47845 0.76153 0.18742 0.0
C944 C 0.55631 0.74071 0.17549 0.0
C945 C 0.55913 0.71223 0.18199 0.0
C946 C 0.50636 0.74456 0.18546 0.0
C947 C 0.53459 0.70037 0.18989 0.0
C948 C 0.45092 0.74675 0.18819 0.0
C949 C 0.45401 0.8087 0.1888 0.0
N950 N 0.50905 0.71656 0.19134 0.0
N951 N 0.47923 0.79196 0.18784 0.0
H952 H 0.92772 0.28747 0.53635 0.0
H953 H 0.08355 0.20415 0.53934 0.0
H954 H 0.00846 0.33248 0.55051 0.0
H955 H 1.00163 0.15991 0.55235 0.0
H956 H 0.05634 0.25175 0.53862 0.0
H957 H 0.95461 0.23969 0.53752 0.0
C958 C 0.95094 0.28728 0.53977 0.0
C959 C 0.96578 0.31388 0.54348 0.0
C960 C 0.0445 0.23151 0.54167 0.0
C961 C 0.99662 0.25992 0.54438 0.0
C962 C 0.05996 0.20448 0.54208 0.0
C963 C 0.0449 0.17819 0.54607 0.0
C964 C 0.01373 0.23192 0.54486 0.0
C965 C 0.01422 0.17974 0.54942 0.0
C966 C 0.96622 0.26015 0.54042 0.0
C967 C 0.996 0.31246 0.54774 0.0
N968 N 0.99958 0.20611 0.54861 0.0
N969 N 0.0105 0.28599 0.54793 0.0
H970 H 0.46323 0.17835 0.29628 0.0
H971 H 0.54575 0.33473 0.29504 0.0
H972 H 0.42074 0.2578 0.3136 0.0
H973 H 0.59307 0.25391 0.30614 0.0
H974 H 0.49837 0.30696 0.29724 0.0
H975 H 0.5109 0.20585 0.29534 0.0
C976 C 0.46397 0.2014 0.29998 0.0
C977 C 0.43808 0.2157 0.30514 0.0
C978 C 0.51924 0.29551 0.29925 0.0
C979 C 0.49188 0.2473 0.30364 0.0
C980 C 0.54615 0.31128 0.29799 0.0
C981 C 0.57328 0.29668 0.30056 0.0
C982 C 0.51971 0.26487 0.30264 0.0
C983 C 0.57262 0.26616 0.30426 0.0
C984 C 0.49105 0.21704 0.29942 0.0
C985 C 0.44021 0.24574 0.3097 0.0
N986 N 0.5463 0.25119 0.30503 0.0
N987 N 0.46654 0.26064 0.30867 0.0
H988 H 0.42533 0.78892 0.03704 0.0
H989 H 0.5861 0.71069 0.03365 0.0
H990 H 0.50841 0.83773 0.03943 0.0
H991 H 0.50642 0.66565 0.04924 0.0
H992 H 0.55684 0.75658 0.03062 0.0
H993 H 0.4539 0.74209 0.03622 0.0
C994 C 0.4495 0.78978 0.03723 0.0
C995 C 0.46452 0.81715 0.0385 0.0
C996 C 0.54584 0.73655 0.03466 0.0
C997 C 0.49717 0.76408 0.03741 0.0
C998 C 0.56252 0.71042 0.03638 0.0
C999 C 0.5488 0.68442 0.04189 0.0
C1000 C 0.51519 0.73646 0.03821 0.0
C1001 C 0.51806 0.68529 0.04517 0.0
C1002 C 0.46577 0.76314 0.03683 0.0
C1003 C 0.49591 0.81706 0.03868 0.0
N1004 N 0.50231 0.71082 0.04327 0.0
N1005 N 0.51117 0.79099 0.03816 0.0
H1006 H 0.96958 0.68108 0.78898 0.0
H1007 H 0.0528 0.83892 0.79192 0.0
H1008 H 0.92634 0.76144 0.80458 0.0
H1009 H 0.09892 0.75621 0.80026 0.0
H1010 H 0.00538 0.81103 0.79098 0.0
H1011 H 0.01715 0.70877 0.78772 0.0
C1012 C 0.97009 0.70445 0.79212 0.0
C1013 C 0.94409 0.71887 0.79706 0.0
C1014 C 0.02599 0.7991 0.79296 0.0
C1015 C 0.99785 0.75065 0.79527 0.0
C1016 C 0.05295 0.81495 0.79345 0.0
C1017 C 0.07971 0.79989 0.79635 0.0
C1018 C 0.02601 0.76798 0.79501 0.0
C1019 C 0.07872 0.76875 0.79821 0.0
C1020 C 0.99713 0.7202 0.7914 0.0
C1021 C 0.94593 0.74929 0.80092 0.0
N1022 N 0.05235 0.75381 0.79746 0.0
N1023 N 0.97227 0.76419 0.79985 0.0
H1024 H 0.29817 0.35448 0.9458 0.0
H1025 H 0.22012 0.42353 0.01983 0.0
H1026 H 0.344 0.41051 0.97823 0.0
H1027 H 0.17593 0.36167 -0.01037 0.0
H1028 H 0.2657 0.41858 0.00482 0.0
H1029 H 0.25347 0.35624 0.96177 0.0
C1030 C 0.29893 0.36705 0.95631 0.0
C1031 C 0.32496 0.38243 0.96063 0.0
C1032 C 0.24609 0.40599 0.00148 0.0
C1033 C 0.27362 0.38467 0.97897 0.0
C1034 C 0.21997 0.40883 0.01006 0.0
C1035 C 0.19402 0.39305 0.00599 0.0
C1036 C 0.2464 0.38733 -0.01135 0.0
C1037 C 0.19535 0.37429 -0.00679 0.0
C1038 C 0.27334 0.36804 0.96543 0.0
C1039 C 0.3245 0.39831 0.97441 0.0
N1040 N 0.22102 0.37205 0.98497 0.0
N1041 N 0.29925 0.39912 0.98302 0.0
H1042 H 0.91696 0.05015 0.21463 0.0
H1043 H 0.80826 0.95116 0.26685 0.0
H1044 H 0.82826 0.07729 0.22783 0.0
H1045 H 0.89621 0.92294 0.25294 0.0
H1046 H 0.81573 0.99794 0.25315 0.0
H1047 H 0.91026 0.00398 0.22901 0.0
C1048 C 0.89607 0.04645 0.22055 0.0
C1049 C 0.87313 0.06771 0.21997 0.0
C1050 C 0.83343 0.98156 0.25311 0.0
C1051 C 0.8653 0.01473 0.23652 0.0
C1052 C 0.8292 0.95479 0.26096 0.0
C1053 C 0.85162 0.93296 0.26106 0.0
C1054 C 0.8603 0.98668 0.24525 0.0
C1055 C 0.87828 0.93905 0.25319 0.0
C1056 C 0.89226 0.02004 0.22877 0.0
C1057 C 0.84656 0.0616 0.22791 0.0
N1058 N 0.88184 0.96527 0.2456 0.0
N1059 N 0.84339 0.03572 0.23583 0.0
H1060 H 0.19281 0.67838 0.47475 0.0
H1061 H 0.33094 0.57753 0.50095 0.0
H1062 H 0.19507 0.58286 0.46864 0.0
H1063 H 0.31996 0.66991 0.51359 0.0
H1064 H 0.28345 0.57961 0.4872 0.0
H1065 H 0.24146 0.67618 0.48712 0.0
C1066 C 0.20355 0.65691 0.47596 0.0
C1067 C 0.18969 0.63075 0.47066 0.0
C1068 C 0.29148 0.59942 0.49296 0.0
C1069 C 0.24571 0.62809 0.48486 0.0
C1070 C 0.31866 0.59829 0.50078 0.0
C1071 C 0.3295 0.62357 0.50849 0.0
C1072 C 0.27507 0.62608 0.49274 0.0
C1073 C 0.31251 0.64982 0.50788 0.0
C1074 C 0.23137 0.65568 0.48307 0.0
C1075 C 0.20483 0.6036 0.47258 0.0
N1076 N 0.28623 0.65038 0.50016 0.0
N1077 N 0.232 0.60298 0.47951 0.0
H1078 H 0.60796 0.05554 0.77026 0.0
H1079 H 0.69146 0.97469 0.7011 0.0
H1080 H 0.67045 0.09995 0.74047 0.0
H1081 H 0.62124 0.93256 0.72705 0.0
H1082 H 0.68408 0.02048 0.71558 0.0
H1083 H 0.61228 0.01043 0.75474 0.0
C1084 C 0.62247 0.05591 0.76041 0.0
C1085 C 0.63892 0.08168 0.75672 0.0
C1086 C 0.67019 1.00129 0.71811 0.0
C1087 C 0.64412 0.02982 0.73891 0.0
C1088 C 0.67443 0.97502 0.70985 0.0
C1089 C 0.657 0.94958 0.71286 0.0
C1090 C 0.64844 1.00231 0.7296 0.0
C1091 C 0.63522 0.95156 0.72432 0.0
C1092 C 0.62492 0.03008 0.75155 0.0
C1093 C 0.65732 0.0807 0.74379 0.0
N1094 N 0.63165 0.9774 0.73231 0.0
N1095 N 0.65953 0.05521 0.73543 0.0
H1096 H 0.7387 0.62836 0.03148 0.0
H1097 H 0.78529 0.63673 0.94363 0.0
H1098 H 0.67485 0.63019 -0.00516 0.0
H1099 H 0.84817 0.6213 0.97984 0.0
H1100 H 0.74502 0.63894 0.96234 0.0
H1101 H 0.77921 0.63034 0.0129 0.0
C1102 C 0.73313 0.62934 0.01953 0.0
C1103 C 0.7032 0.62901 0.01476 0.0
C1104 C 0.76762 0.63517 0.96621 0.0
C1105 C 0.74975 0.63126 -0.00667 0.0
C1106 C 0.79072 0.63397 0.95552 0.0
C1107 C 0.82027 0.62873 0.96012 0.0
C1108 C 0.774 0.63123 0.98169 0.0
C1109 C 0.82578 0.62531 0.97573 0.0
C1110 C 0.75635 0.6304 0.00891 0.0
C1111 C 0.69752 0.63033 -0.00092 0.0
N1112 N 0.8029 0.62659 0.98593 0.0
N1113 N 0.72054 0.63135 -0.01105 0.0
H1114 H 0.10082 0.90973 0.73526 0.0
H1115 H 0.14109 0.08416 0.73006 0.0
H1116 H 0.14904 0.95738 0.77014 0.0
H1117 H 0.09356 0.03569 0.69522 0.0
H1118 H 0.14206 0.03878 0.74552 0.0
H1119 H 0.09602 0.95624 0.72103 0.0
C1120 C 0.11035 0.92997 0.73997 0.0
C1121 C 0.12546 0.9295 0.75393 0.0
C1122 C 0.13128 0.03812 0.73452 0.0
C1123 C 0.12005 0.98309 0.73761 0.0
C1124 C 0.13064 0.06408 0.72569 0.0
C1125 C 0.11731 0.06382 0.71126 0.0
C1126 C 0.1185 0.0116 0.72891 0.0
C1127 C 0.10418 0.03704 0.70624 0.0
C1128 C 0.10759 0.95658 0.73182 0.0
C1129 C 0.13726 0.95656 0.75943 0.0
N1130 N 0.10522 0.01207 0.71499 0.0
N1131 N 0.13439 0.98216 0.75125 0.0
H1132 H 0.81323 0.37998 0.51305 0.0
H1133 H 0.72827 0.3377 0.43575 0.0
H1134 H 0.85718 0.34514 0.47316 0.0
H1135 H 0.6849 0.38045 0.47376 0.0
H1136 H 0.77462 0.33616 0.45025 0.0
H1137 H 0.76532 0.37642 0.4998 0.0
C1138 C 0.81284 0.3714 0.50154 0.0
C1139 C 0.83942 0.36296 0.49421 0.0
C1140 C 0.75496 0.34576 0.45547 0.0
C1141 C 0.78446 0.35885 0.47894 0.0
C1142 C 0.72837 0.34658 0.4472 0.0
C1143 C 0.70255 0.35935 0.45349 0.0
C1144 C 0.75593 0.35778 0.47021 0.0
C1145 C 0.70421 0.37044 0.46841 0.0
C1146 C 0.78543 0.36943 0.49397 0.0
C1147 C 0.83738 0.35202 0.47928 0.0
N1148 N 0.73045 0.36952 0.47623 0.0
N1149 N 0.81047 0.35036 0.47216 0.0
H1150 H 0.35968 0.09936 0.24939 0.0
H1151 H 0.39025 0.9248 0.23615 0.0
H1152 H 0.39976 0.04312 0.28342 0.0
H1153 H 0.33228 0.978 0.20808 0.0
H1154 H 0.39972 0.96888 0.25212 0.0
H1155 H 0.35568 0.05619 0.23252 0.0
C1156 C 0.36791 0.07801 0.25329 0.0
C1157 C 0.37994 0.07493 0.26792 0.0
C1158 C 0.385 0.97085 0.24243 0.0
C1159 C 0.37531 0.02518 0.24859 0.0
C1160 C 0.37964 0.94573 0.23329 0.0
C1161 C 0.3603 0.9476 0.22079 0.0
C1162 C 0.3712 0.99813 0.23892 0.0
C1163 C 0.34718 0.97535 0.21765 0.0
C1164 C 0.36549 0.0533 0.24365 0.0
C1165 C 0.3902 0.04658 0.27228 0.0
N1166 N 0.35288 0.99941 0.22661 0.0
N1167 N 0.38759 0.02283 0.26269 0.0
H1168 H 0.79487 0.90821 0.45129 0.0
H1169 H 0.70954 0.84702 0.52519 0.0
H1170 H 0.83665 0.85429 0.48576 0.0
H1171 H 0.66715 0.90096 0.49093 0.0
H1172 H 0.75576 0.8483 0.51047 0.0
H1173 H 0.74769 0.9049 0.46524 0.0
C1174 C 0.79417 0.89564 0.46178 0.0
C1175 C 0.8199 0.88155 0.46735 0.0
C1176 C 0.73636 0.8598 0.50613 0.0
C1177 C 0.76574 0.87766 0.48341 0.0
C1178 C 0.70986 0.85904 0.51453 0.0
C1179 C 0.68431 0.87396 0.50933 0.0
C1180 C 0.73751 0.87563 0.49238 0.0
C1181 C 0.68623 0.88914 0.49541 0.0
C1182 C 0.76716 0.89375 0.46974 0.0
C1183 C 0.81749 0.86556 0.48101 0.0
N1184 N 0.71235 0.88966 0.48746 0.0
N1185 N 0.79097 0.8641 0.48856 0.0
H1186 H 0.44149 0.57995 0.72501 0.0
H1187 H 0.34634 0.43513 0.74808 0.0
H1188 H 0.34668 0.57186 0.7173 0.0
H1189 H 0.43447 0.45355 0.76557 0.0
H1190 H 0.34755 0.48293 0.73466 0.0
H1191 H 0.44067 0.53175 0.73805 0.0
C1192 C 0.42048 0.5681 0.72607 0.0
C1193 C 0.3941 0.5801 0.72005 0.0
C1194 C 0.36664 0.47648 0.74142 0.0
C1195 C 0.39308 0.52463 0.73487 0.0
C1196 C 0.36604 0.4491 0.74903 0.0
C1197 C 0.39034 0.44025 0.75801 0.0
C1198 C 0.39184 0.49511 0.74264 0.0
C1199 C 0.41518 0.45943 0.75883 0.0
C1200 C 0.42003 0.54056 0.73353 0.0
C1201 C 0.36755 0.56361 0.7218 0.0
N1202 N 0.41531 0.48587 0.75124 0.0
N1203 N 0.36774 0.53672 0.72897 0.0
H1204 H 0.81495 0.18638 -0.00479 0.0
H1205 H 0.67217 0.08955 0.97031 0.0
H1206 H 0.80586 0.09245 0.00494 0.0
H1207 H 0.69033 0.17858 0.95408 0.0
H1208 H 0.71855 0.09136 0.98502 0.0
H1209 H 0.76698 0.18502 0.9821 0.0
C1210 C 0.80284 0.16545 -0.00534 0.0
C1211 C 0.81462 0.13945 0.00118 0.0
C1212 C 0.71233 0.11052 0.97827 0.0
C1213 C 0.75937 0.13777 0.98612 0.0
C1214 C 0.68578 0.10955 0.9699 0.0
C1215 C 0.6773 0.13393 0.96088 0.0
C1216 C 0.7305 0.13613 0.97773 0.0
C1217 C 0.69594 0.1592 0.9608 0.0
C1218 C 0.77541 0.16469 -0.01288 0.0
C1219 C 0.79776 0.11302 5e-05 0.0
N1220 N 0.72158 0.15963 0.96907 0.0
N1221 N 0.77103 0.11286 -0.00733 0.0
H1222 H 0.15579 0.56695 0.25505 0.0
H1223 H 0.06329 0.43071 0.21887 0.0
H1224 H 0.05957 0.56117 0.25517 0.0
H1225 H 0.15952 0.43251 0.22144 0.0
H1226 H 0.06174 0.47888 0.23184 0.0
H1227 H 0.15788 0.51817 0.24251 0.0
C1228 C 0.1351 0.55544 0.25248 0.0
C1229 C 0.10745 0.56827 0.25619 0.0
C1230 C 0.08322 0.46876 0.22959 0.0
C1231 C 0.10969 0.51238 0.24177 0.0
C1232 C 0.08413 0.44121 0.22216 0.0
C1233 C 0.11158 0.42745 0.21903 0.0
C1234 C 0.10996 0.48286 0.23394 0.0
C1235 C 0.13783 0.44222 0.2236 0.0
C1236 C 0.13631 0.52756 0.24531 0.0
C1237 C 0.0814 0.55224 0.25255 0.0
N1238 N 0.13636 0.46911 0.23079 0.0
N1239 N 0.08317 0.52524 0.24554 0.0
H1240 H 0.15431 0.15845 0.48197 0.0
H1241 H 0.32847 0.11674 0.47907 0.0
H1242 H 0.19865 0.10809 0.51699 0.0
H1243 H 0.28302 0.16613 0.44406 0.0
H1244 H 0.28207 0.11569 0.49387 0.0
H1245 H 0.20194 0.16358 0.46863 0.0
C1246 C 0.17405 0.14853 0.4869 0.0
C1247 C 0.17233 0.13271 0.50063 0.0
C1248 C 0.2823 0.12691 0.48298 0.0
C1249 C 0.22721 0.13849 0.48533 0.0
C1250 C 0.30885 0.12759 0.47454 0.0
C1251 C 0.30973 0.14145 0.46024 0.0
C1252 C 0.25636 0.14016 0.47711 0.0
C1253 C 0.28349 0.15509 0.45498 0.0
C1254 C 0.20131 0.15148 0.47926 0.0
C1255 C 0.19881 0.12042 0.50643 0.0
N1256 N 0.25795 0.15398 0.46336 0.0
N1257 N 0.22507 0.12349 0.49875 0.0
H1258 H 0.62279 0.41652 0.24281 0.0
H1259 H 0.62438 0.59508 0.2364 0.0
H1260 H 0.62338 0.47532 0.28168 0.0
H1261 H 0.61385 0.53632 0.19788 0.0
H1262 H 0.62362 0.55158 0.25319 0.0
H1263 H 0.61901 0.46007 0.22619 0.0
C1264 C 0.62195 0.43854 0.24787 0.0
C1265 C 0.62347 0.44216 0.2637 0.0
C1266 C 0.62133 0.54821 0.24107 0.0
C1267 C 0.61936 0.49229 0.24468 0.0
C1268 C 0.62176 0.57308 0.23146 0.0
C1269 C 0.61924 0.56945 0.21566 0.0
C1270 C 0.61854 0.51939 0.23487 0.0
C1271 C 0.61589 0.54031 0.20996 0.0
C1272 C 0.61981 0.46344 0.23836 0.0
C1273 C 0.62229 0.47134 0.26957 0.0
N1274 N 0.61579 0.51648 0.21952 0.0
N1275 N 0.62047 0.49521 0.26008 0.0
H1276 H 0.21589 0.84717 0.94228 0.0
H1277 H 0.3006 0.8818 0.02064 0.0
H1278 H 0.17128 0.88353 0.98162 0.0
H1279 H 0.34508 0.85663 0.97906 0.0
H1280 H 0.25249 0.87841 0.00747 0.0
H1281 H 0.26249 0.84613 0.95652 0.0
C1282 C 0.21579 0.85478 0.95396 0.0
C1283 C 0.18949 0.86557 0.96071 0.0
C1284 C 0.27278 0.87352 0.00126 0.0
C1285 C 0.24325 0.86453 0.97717 0.0
C1286 C 0.30029 0.87538 0.00877 0.0
C1287 C 0.32706 0.86959 0.00095 0.0
C1288 C 0.27192 0.86566 0.9858 0.0
C1289 C 0.32514 0.86141 0.98557 0.0
C1290 C 0.24254 0.85424 0.96209 0.0
C1291 C 0.19095 0.87506 0.97592 0.0
N1292 N 0.29815 0.85974 0.97853 0.0
N1293 N 0.21737 0.87441 0.98361 0.0
H1294 H 0.88105 0.46877 0.70279 0.0
H1295 H 0.90885 0.54508 0.78404 0.0
H1296 H 0.89851 0.41951 0.74388 0.0
H1297 H 0.8762 0.59372 0.74524 0.0
H1298 H 0.9102 0.49979 0.76868 0.0
H1299 H 0.88408 0.51534 0.71733 0.0
C1300 C 0.88572 0.4677 0.71484 0.0
C1301 C 0.88944 0.44006 0.72211 0.0
C1302 C 0.90283 0.52035 0.76348 0.0
C1303 C 0.89294 0.49345 0.73884 0.0
C1304 C 0.90212 0.54634 0.77225 0.0
C1305 C 0.89228 0.57337 0.76598 0.0
C1306 C 0.89375 0.5212 0.74823 0.0
C1307 C 0.88388 0.57343 0.75059 0.0
C1308 C 0.88735 0.49435 0.72314 0.0
C1309 C 0.89538 0.4402 0.73777 0.0
N1310 N 0.88475 0.54776 0.74226 0.0
N1311 N 0.89692 0.4664 0.74558 0.0
H1312 H 0.15347 0.36297 0.06663 0.0
H1313 H 0.12591 0.39616 0.15478 0.0
H1314 H 0.08863 0.42543 0.08391 0.0
H1315 H 0.17067 0.31816 0.13728 0.0
H1316 H 0.12393 0.41628 0.1289 0.0
H1317 H 0.17208 0.35598 0.0926 0.0
C1318 C 0.14364 0.37566 0.07584 0.0
C1319 C 0.1191 0.39423 0.07327 0.0
C1320 C 0.13453 0.39494 0.13081 0.0
C1321 C 0.14004 0.38647 0.10275 0.0
C1322 C 0.13564 0.3835 0.14554 0.0
C1323 C 0.1478 0.35519 0.14807 0.0
C1324 C 0.1459 0.378 0.11865 0.0
C1325 C 0.16042 0.33978 0.13575 0.0
C1326 C 0.15413 0.37162 0.09062 0.0
C1327 C 0.10718 0.41035 0.08552 0.0
N1328 N 0.15889 0.35126 0.12155 0.0
N1329 N 0.11753 0.40583 0.09977 0.0
H1330 H 0.94688 0.81681 0.40084 0.0
H1331 H 0.85889 0.87604 0.32821 0.0
H1332 H 0.87629 0.88157 0.40489 0.0
H1333 H 0.91041 0.79493 0.3294 0.0
H1334 H 0.86824 0.88272 0.35562 0.0
H1335 H 0.93592 0.81162 0.37396 0.0
C1336 C 0.92875 0.82967 0.39605 0.0
C1337 C 0.9124 0.84957 0.40504 0.0
C1338 C 0.87751 0.86358 0.34979 0.0
C1339 C 0.90005 0.84425 0.37414 0.0
C1340 C 0.87252 0.85998 0.33418 0.0
C1341 C 0.88389 0.8349 0.32662 0.0
C1342 C 0.89427 0.84211 0.35765 0.0
C1343 C 0.90109 0.8145 0.33484 0.0
C1344 C 0.92255 0.82679 0.38069 0.0
C1345 C 0.88917 0.86576 0.39831 0.0
N1346 N 0.90572 0.81856 0.34987 0.0
N1347 N 0.88383 0.86299 0.38314 0.0
H1348 H 0.36861 0.59138 0.65752 0.0
H1349 H 0.34667 0.6023 0.56854 0.0
H1350 H 0.31563 0.65772 0.63462 0.0
H1351 H 0.41323 0.54862 0.59085 0.0
H1352 H 0.32147 0.6091 0.59298 0.0
H1353 H 0.37114 0.56282 0.63383 0.0
C1354 C 0.35691 0.59956 0.64762 0.0
C1355 C 0.3427 0.62737 0.64786 0.0
C1356 C 0.34119 0.59521 0.59245 0.0
C1357 C 0.34555 0.59502 0.62083 0.0
C1358 C 0.35549 0.59124 0.57849 0.0
C1359 C 0.38255 0.57568 0.57781 0.0
C1360 C 0.35416 0.58357 0.6057 0.0
C1361 C 0.39285 0.56154 0.591 0.0
C1362 C 0.35838 0.58329 0.6341 0.0
C1363 C 0.32758 0.63677 0.63478 0.0
N1364 N 0.37897 0.56631 0.60447 0.0
N1365 N 0.32986 0.62089 0.62171 0.0
H1366 H 0.65307 0.09739 0.81299 0.0
H1367 H 0.66566 0.10725 0.90227 0.0
H1368 H 0.70758 0.16061 0.83757 0.0
H1369 H 0.59951 0.05606 0.87783 0.0
H1370 H 0.69433 0.11246 0.87875 0.0
H1371 H 0.64721 0.06832 0.83631 0.0
C1372 C 0.6645 0.1047 0.82318 0.0
C1373 C 0.68 0.13192 0.82352 0.0
C1374 C 0.6739 0.09946 0.87863 0.0
C1375 C 0.6732 0.09908 0.85015 0.0
C1376 C 0.65757 0.09642 0.89206 0.0
C1377 C 0.62971 0.08207 0.89185 0.0
C1378 C 0.66213 0.08814 0.86498 0.0
C1379 C 0.62048 0.06811 0.87836 0.0
C1380 C 0.66109 0.08816 0.8365 0.0
C1381 C 0.69467 0.14017 0.83696 0.0
N1382 N 0.63635 0.07202 0.86538 0.0
N1383 N 0.69041 0.12415 0.84983 0.0
H1384 H 0.07247 0.69369 0.32793 0.0
H1385 H 0.13419 0.60853 0.40117 0.0
H1386 H 0.13828 0.6239 0.32467 0.0
H1387 H 0.06424 0.67447 0.40155 0.0
H1388 H 0.13899 0.6151 0.37352 0.0
H1389 H 0.07029 0.68654 0.35519 0.0
C1390 C 0.08624 0.67654 0.33299 0.0
C1391 C 0.10563 0.6594 0.32408 0.0
C1392 C 0.12283 0.62827 0.37973 0.0
C1393 C 0.10372 0.65139 0.35546 0.0
C1394 C 0.12035 0.62482 0.39549 0.0
C1395 C 0.09871 0.64092 0.40358 0.0
C1396 C 0.1036 0.64804 0.37219 0.0
C1397 C 0.08107 0.66146 0.39571 0.0
C1398 C 0.08513 0.67256 0.34859 0.0
C1399 C 0.12289 0.63742 0.33119 0.0
N1400 N 0.0838 0.66428 0.38048 0.0
N1401 N 0.12174 0.63417 0.34656 0.0
H1402 H 0.70624 0.85777 0.63425 0.0
H1403 H 0.5965 0.9515 0.58522 0.0
H1404 H 0.64348 0.92104 0.6527 0.0
H1405 H 0.66226 0.89158 0.56659 0.0
H1406 H 0.62361 0.95219 0.60916 0.0
H1407 H 0.70129 0.88107 0.60943 0.0
C1408 C 0.69185 0.87702 0.63312 0.0
C1409 C 0.67447 0.88696 0.64538 0.0
C1410 C 0.63255 0.93937 0.59978 0.0
C1411 C 0.66827 0.91334 0.61696 0.0
C1412 C 0.61703 0.93891 0.58611 0.0
C1413 C 0.62673 0.9207 0.57412 0.0
C1414 C 0.65754 0.92093 0.60156 0.0
C1415 C 0.65378 0.90547 0.57569 0.0
C1416 C 0.68908 0.89036 0.61894 0.0
C1417 C 0.65682 0.91237 0.64343 0.0
N1418 N 0.66788 0.90529 0.58934 0.0
N1419 N 0.65354 0.92424 0.62935 0.0
H1420 H 0.36435 0.42437 0.81578 0.0
H1421 H 0.34311 0.40536 0.90401 0.0
H1422 H 0.30796 0.35864 0.83735 0.0
H1423 H 0.4102 0.46044 0.88261 0.0
H1424 H 0.31618 0.40299 0.87989 0.0
H1425 H 0.36685 0.45177 0.83982 0.0
C1426 C 0.35182 0.41616 0.82545 0.0
C1427 C 0.3368 0.38871 0.82478 0.0
C1428 C 0.33639 0.41626 0.88059 0.0
C1429 C 0.33973 0.41963 0.85222 0.0
C1430 C 0.35171 0.41768 0.89437 0.0
C1431 C 0.37944 0.4322 0.89511 0.0
C1432 C 0.34908 0.42932 0.86756 0.0
C1433 C 0.38935 0.44816 0.88235 0.0
C1434 C 0.35329 0.43175 0.83918 0.0
C1435 C 0.32061 0.37927 0.83756 0.0
N1436 N 0.37453 0.44574 0.86899 0.0
N1437 N 0.323 0.39437 0.85085 0.0
H1438 H 0.84066 0.11783 0.14783 0.0
H1439 H 0.94837 0.1483 0.07704 0.0
H1440 H 0.92132 0.17051 0.14878 0.0
H1441 H 0.8617 0.10718 0.07144 0.0
H1442 H 0.94006 0.15104 0.10405 0.0
H1443 H 0.84981 0.10701 0.1207 0.0
C1444 C 0.86066 0.12636 0.1424 0.0
C1445 C 0.88037 0.145 0.15038 0.0
C1446 C 0.92268 0.14146 0.09701 0.0
C1447 C 0.8906 0.13336 0.11973 0.0
C1448 C 0.9274 0.13993 0.0815 0.0
C1449 C 0.90567 0.12749 0.07193 0.0
C1450 C 0.89593 0.13059 0.1032 0.0
C1451 C 0.87892 0.11714 0.07844 0.0
C1452 C 0.86566 0.12054 0.12696 0.0
C1453 C 0.90564 0.15606 0.14294 0.0
N1454 N 0.87476 0.11889 0.09376 0.0
N1455 N 0.90994 0.15019 0.12804 0.0
H1456 H 0.79551 0.64855 0.83811 0.0
H1457 H 0.88819 0.53521 0.88392 0.0
H1458 H 0.85815 0.58596 0.819 0.0
H1459 H 0.83079 0.60241 0.90322 0.0
H1460 H 0.86026 0.53797 0.86024 0.0
H1461 H 0.79113 0.6173 0.86063 0.0
C1462 C 0.80782 0.6278 0.83852 0.0
C1463 C 0.82818 0.62037 0.827 0.0
C1464 C 0.85312 0.55148 0.86978 0.0
C1465 C 0.82376 0.5849 0.85284 0.0
C1466 C 0.86905 0.54988 0.88332 0.0
C1467 C 0.86255 0.5696 0.89527 0.0
C1468 C 0.8311 0.57343 0.86814 0.0
C1469 C 0.83707 0.58746 0.8941 0.0
C1470 C 0.80524 0.60991 0.85136 0.0
C1471 C 0.84282 0.59287 0.82784 0.0
N1472 N 0.82282 0.58969 0.88055 0.0
N1473 N 0.84103 0.57652 0.84079 0.0
H1474 H 0.10196 0.03093 0.58725 0.0
H1475 H 0.20589 0.13323 0.63567 0.0
H1476 H 0.16948 0.08986 0.56909 0.0
H1477 H 0.13503 0.07861 0.65394 0.0
H1478 H 0.20546 0.10328 0.61256 0.0
H1479 H 0.12642 0.03314 0.61193 0.0
C1480 C 0.12246 0.04366 0.58834 0.0
C1481 C 0.13305 0.06124 0.57627 0.0
C1482 C 0.19044 0.09732 0.62173 0.0
C1483 C 0.16079 0.06425 0.60454 0.0
C1484 C 0.19065 0.11446 0.63492 0.0
C1485 C 0.16978 0.10891 0.64648 0.0
C1486 C 0.1687 0.07498 0.61995 0.0
C1487 C 0.15108 0.08394 0.64514 0.0
C1488 C 0.13639 0.04494 0.60246 0.0
C1489 C 0.16009 0.07661 0.5782 0.0
N1490 N 0.15038 0.06835 0.63188 0.0
N1491 N 0.17258 0.07846 0.59222 0.0
H1492 H 0.68855 0.38982 0.39992 0.0
H1493 H 0.6693 0.42482 0.3144 0.0
H1494 H 0.63014 0.45677 0.38136 0.0
H1495 H 0.72721 0.35677 0.33236 0.0
H1496 H 0.67121 0.45047 0.33881 0.0
H1497 H 0.71781 0.39112 0.37644 0.0
C1498 C 0.6824 0.40541 0.39109 0.0
C1499 C 0.65624 0.42231 0.39228 0.0
C1500 C 0.68421 0.43035 0.33731 0.0
C1501 C 0.68921 0.4237 0.36542 0.0
C1502 C 0.68321 0.41575 0.3233 0.0
C1503 C 0.69687 0.38785 0.32162 0.0
C1504 C 0.69848 0.41658 0.34966 0.0
C1505 C 0.71525 0.37763 0.33341 0.0
C1506 C 0.69908 0.40616 0.37766 0.0
C1507 C 0.64957 0.44253 0.38063 0.0
N1508 N 0.71475 0.39147 0.34712 0.0
N1509 N 0.66551 0.44215 0.36754 0.0
H1510 H 0.33419 0.89705 0.07291 0.0
H1511 H 0.36258 0.92648 0.15973 0.0
H1512 H 0.40687 0.94948 0.09108 0.0
H1513 H 0.29266 0.87009 0.14189 0.0
H1514 H 0.36805 0.94931 0.13467 0.0
H1515 H 0.30871 0.90075 0.09745 0.0
C1516 C 0.34448 0.90986 0.08195 0.0
C1517 C 0.3731 0.9221 0.08015 0.0
C1518 C 0.35094 0.93249 0.13633 0.0
C1519 C 0.34432 0.92628 0.1082 0.0
C1520 C 0.3477 0.91962 0.15068 0.0
C1521 C 0.32789 0.89569 0.15269 0.0
C1522 C 0.3344 0.92109 0.12403 0.0
C1523 C 0.3089 0.88788 0.14065 0.0
C1524 C 0.32995 0.91199 0.09596 0.0
C1525 C 0.38521 0.93887 0.09215 0.0
N1526 N 0.31312 0.90001 0.12671 0.0
N1527 N 0.37104 0.93997 0.10575 0.0
H1528 H 0.87996 0.4382 0.64731 0.0
H1529 H 0.84407 0.41342 0.56112 0.0
H1530 H 0.81174 0.37954 0.62967 0.0
H1531 H 0.91665 0.46766 0.578 0.0
H1532 H 0.82028 0.41641 0.586 0.0
H1533 H 0.88198 0.46348 0.62267 0.0
C1534 C 0.86483 0.43121 0.63839 0.0
C1535 C 0.84638 0.40617 0.64031 0.0
C1536 C 0.84105 0.42831 0.58417 0.0
C1537 C 0.84867 0.43464 0.61218 0.0
C1538 C 0.85459 0.42672 0.5699 0.0
C1539 C 0.88299 0.43925 0.56767 0.0
C1540 C 0.85627 0.44216 0.59625 0.0
C1541 C 0.89522 0.45674 0.57939 0.0
C1542 C 0.866 0.44557 0.62432 0.0
C1543 C 0.82698 0.39821 0.62848 0.0
N1544 N 0.88222 0.45696 0.59332 0.0
N1545 N 0.82904 0.412 0.61483 0.0
H1546 H 0.33964 0.08713 0.32068 0.0
H1547 H 0.3198 0.11341 0.40646 0.0
H1548 H 0.28378 0.15459 0.34096 0.0
H1549 H 0.3786 0.04895 0.38584 0.0
H1550 H 0.28929 0.11283 0.38347 0.0
H1551 H 0.33551 0.05784 0.34391 0.0
C1552 C 0.32572 0.09536 0.32983 0.0
C1553 C 0.31335 0.12401 0.32925 0.0
C1554 C 0.30835 0.0981 0.38414 0.0
C1555 C 0.30915 0.0911 0.35592 0.0
C1556 C 0.32575 0.09842 0.39729 0.0
C1557 C 0.35246 0.08228 0.39769 0.0
C1558 C 0.31816 0.08187 0.37138 0.0
C1559 C 0.35879 0.06273 0.38567 0.0
C1560 C 0.32339 0.07865 0.34314 0.0
C1561 C 0.29484 0.13316 0.34125 0.0
N1562 N 0.34223 0.06365 0.37282 0.0
N1563 N 0.29406 0.1172 0.35431 0.0
H1564 H 0.71438 0.65444 0.14418 0.0
H1565 H 0.62152 0.54911 0.09156 0.0
H1566 H 0.65035 0.58919 0.15979 0.0
H1567 H 0.67988 0.6192 0.07571 0.0
H1568 H 0.64636 0.55052 0.11616 0.0
H1569 H 0.71687 0.62881 0.11978 0.0
C1570 C 0.70149 0.63417 0.14262 0.0
C1571 C 0.68128 0.62451 0.15381 0.0
C1572 C 0.65429 0.56512 0.10722 0.0
C1573 C 0.6836 0.59548 0.12582 0.0
C1574 C 0.64009 0.56434 0.09317 0.0
C1575 C 0.64809 0.58475 0.08179 0.0
C1576 C 0.67617 0.58692 0.11 0.0
C1577 C 0.6727 0.60348 0.0843 0.0
C1578 C 0.70289 0.61957 0.12866 0.0
C1579 C 0.66571 0.59778 0.15135 0.0
N1580 N 0.68537 0.60471 0.09832 0.0
N1581 N 0.66654 0.58464 0.13743 0.0
H1582 H 0.21901 0.87021 0.84354 0.0
H1583 H 0.11465 0.96984 0.89204 0.0
H1584 H 0.15405 0.93143 0.82552 0.0
H1585 H 0.17564 0.90451 0.90992 0.0
H1586 H 0.1437 0.97157 0.86863 0.0
H1587 H 0.21838 0.89739 0.86752 0.0
C1588 C 0.20512 0.88986 0.84453 0.0
C1589 C 0.18569 0.89798 0.83277 0.0
C1590 C 0.15129 0.95748 0.87782 0.0
C1591 C 0.18439 0.92876 0.86027 0.0
C1592 C 0.13472 0.95651 0.89121 0.0
C1593 C 0.14209 0.93605 0.90264 0.0
C1594 C 0.17494 0.93739 0.87579 0.0
C1595 C 0.16872 0.91999 0.90119 0.0
C1596 C 0.20482 0.90542 0.85823 0.0
C1597 C 0.16883 0.92403 0.83446 0.0
N1598 N 0.18371 0.92029 0.88777 0.0
N1599 N 0.16789 0.93803 0.84816 0.0
loop_
_geom_bond_atom_site_label_1
_geom_bond_atom_site_label_2
_geom_bond_distance
_geom_bond_site_symmetry_2
_ccdc_geom_bond_type
Zn0 O3 2.031 . S
Zn0 O5 2.049 . S
Zn0 O10 2.067 . S
Zn1 O2 1.962 . S
Zn1 O4 1.986 . S
Zn1 O6 1.996 . S
Zn1 O9 1.943 . S
O2 Zn1 1.962 . S
O2 C7 1.254 . S
O3 Zn0 2.031 . S
O3 C7 1.269 . S
O4 Zn1 1.986 . S
O4 C11 1.262 . S
O5 Zn0 2.049 . S
O5 C13 1.260 . S
O6 Zn1 1.996 . S
O6 C13 1.257 . S
C7 O2 1.254 . S
C7 O3 1.269 . S
C8 O9 1.249 . S
C8 O10 1.270 . S
O9 Zn1 1.943 . S
O9 C8 1.249 . S
O10 Zn0 2.067 . S
O10 C8 1.270 . S
C11 O4 1.262 . S
C11 O12 1.232 . S
O12 C11 1.232 . S
C13 O5 1.260 . S
C13 O6 1.257 . S
Zn14 O17 2.031 . S
Zn14 O19 2.049 . S
Zn14 O24 2.067 . S
Zn15 O16 1.962 . S
Zn15 O18 1.986 . S
Zn15 O20 1.996 . S
Zn15 O23 1.943 . S
O16 Zn15 1.962 . S
O16 C21 1.254 . S
O17 Zn14 2.031 . S
O17 C21 1.269 . S
O18 Zn15 1.986 . S
O18 C25 1.262 . S
O19 Zn14 2.049 . S
O19 C27 1.260 . S
O20 Zn15 1.996 . S
O20 C27 1.257 . S
C21 O16 1.254 . S
C21 O17 1.269 . S
C22 O23 1.249 . S
C22 O24 1.270 . S
O23 Zn15 1.943 . S
O23 C22 1.249 . S
O24 Zn14 2.067 . S
O24 C22 1.270 . S
C25 O18 1.262 . S
C25 O26 1.232 . S
O26 C25 1.232 . S
C27 O19 1.260 . S
C27 O20 1.257 . S
Zn28 O31 2.031 . S
Zn28 O33 2.049 . S
Zn28 O38 2.067 . S
Zn29 O30 1.962 . S
Zn29 O32 1.986 . S
Zn29 O34 1.996 . S
Zn29 O37 1.943 . S
O30 Zn29 1.962 . S
O30 C35 1.254 . S
O31 Zn28 2.031 . S
O31 C35 1.269 . S
O32 Zn29 1.986 . S
O32 C39 1.262 . S
O33 Zn28 2.049 . S
O33 C41 1.260 . S
O34 Zn29 1.996 . S
O34 C41 1.257 . S
C35 O30 1.254 . S
C35 O31 1.269 . S
C36 O37 1.249 . S
C36 O38 1.270 . S
O37 Zn29 1.943 . S
O37 C36 1.249 . S
O38 Zn28 2.067 . S
O38 C36 1.270 . S
C39 O32 1.262 . S
C39 O40 1.232 . S
O40 C39 1.232 . S
C41 O33 1.260 . S
C41 O34 1.257 . S
Zn42 O45 2.031 . S
Zn42 O47 2.049 . S
Zn42 O52 2.067 . S
Zn43 O44 1.962 . S
Zn43 O46 1.986 . S
Zn43 O48 1.996 . S
Zn43 O51 1.943 . S
O44 Zn43 1.962 . S
O44 C49 1.254 . S
O45 Zn42 2.031 . S
O45 C49 1.269 . S
O46 Zn43 1.986 . S
O46 C53 1.262 . S
O47 Zn42 2.049 . S
O47 C55 1.260 . S
O48 Zn43 1.996 . S
O48 C55 1.257 . S
C49 O44 1.254 . S
C49 O45 1.269 . S
C50 O51 1.249 . S
C50 O52 1.270 . S
O51 Zn43 1.943 . S
O51 C50 1.249 . S
O52 Zn42 2.067 . S
O52 C50 1.270 . S
C53 O46 1.262 . S
C53 O54 1.232 . S
O54 C53 1.232 . S
C55 O47 1.260 . S
C55 O48 1.257 . S
Zn56 O59 2.031 . S
Zn56 O61 2.049 . S
Zn56 O66 2.067 . S
Zn57 O58 1.962 . S
Zn57 O60 1.986 . S
Zn57 O62 1.996 . S
Zn57 O65 1.943 . S
O58 Zn57 1.962 . S
O58 C63 1.254 . S
O59 Zn56 2.031 . S
O59 C63 1.269 . S
O60 Zn57 1.986 . S
O60 C67 1.262 . S
O61 Zn56 2.049 . S
O61 C69 1.260 . S
O62 Zn57 1.996 . S
O62 C69 1.257 . S
C63 O58 1.254 . S
C63 O59 1.269 . S
C64 O65 1.249 . S
C64 O66 1.270 . S
O65 Zn57 1.943 . S
O65 C64 1.249 . S
O66 Zn56 2.067 . S
O66 C64 1.270 . S
C67 O60 1.262 . S
C67 O68 1.232 . S
O68 C67 1.232 . S
C69 O61 1.260 . S
C69 O62 1.257 . S
Zn70 O73 2.031 . S
Zn70 O75 2.049 . S
Zn70 O80 2.067 . S
Zn71 O72 1.962 . S
Zn71 O74 1.986 . S
Zn71 O76 1.996 . S
Zn71 O79 1.943 . S
O72 Zn71 1.962 . S
O72 C77 1.254 . S
O73 Zn70 2.031 . S
O73 C77 1.269 . S
O74 Zn71 1.986 . S
O74 C81 1.262 . S
O75 Zn70 2.049 . S
O75 C83 1.260 . S
O76 Zn71 1.996 . S
O76 C83 1.257 . S
C77 O72 1.254 . S
C77 O73 1.269 . S
C78 O79 1.249 . S
C78 O80 1.270 . S
O79 Zn71 1.943 . S
O79 C78 1.249 . S
O80 Zn70 2.067 . S
O80 C78 1.270 . S
C81 O74 1.262 . S
C81 O82 1.232 . S
O82 C81 1.232 . S
C83 O75 1.260 . S
C83 O76 1.257 . S
Zn84 O87 2.031 . S
Zn84 O89 2.049 . S
Zn84 O94 2.067 . S
Zn85 O86 1.962 . S
Zn85 O88 1.986 . S
Zn85 O90 1.996 . S
Zn85 O93 1.943 . S
O86 Zn85 1.962 . S
O86 C91 1.254 . S
O87 Zn84 2.031 . S
O87 C91 1.269 . S
O88 Zn85 1.986 . S
O88 C95 1.262 . S
O89 Zn84 2.049 . S
O89 C97 1.260 . S
O90 Zn85 1.996 . S
O90 C97 1.257 . S
C91 O86 1.254 . S
C91 O87 1.269 . S
C92 O93 1.249 . S
C92 O94 1.270 . S
O93 Zn85 1.943 . S
O93 C92 1.249 . S
O94 Zn84 2.067 . S
O94 C92 1.270 . S
C95 O88 1.262 . S
C95 O96 1.232 . S
O96 C95 1.232 . S
C97 O89 1.260 . S
C97 O90 1.257 . S
Zn98 O101 2.031 . S
Zn98 O103 2.049 . S
Zn98 O108 2.067 . S
Zn99 O100 1.962 . S
Zn99 O102 1.986 . S
Zn99 O104 1.996 . S
Zn99 O107 1.943 . S
O100 Zn99 1.962 . S
O100 C105 1.254 . S
O101 Zn98 2.031 . S
O101 C105 1.269 . S
O102 Zn99 1.986 . S
O102 C109 1.262 . S
O103 Zn98 2.049 . S
O103 C111 1.260 . S
O104 Zn99 1.996 . S
O104 C111 1.257 . S
C105 O100 1.254 . S
C105 O101 1.269 . S
C106 O107 1.249 . S
C106 O108 1.270 . S
O107 Zn99 1.943 . S
O107 C106 1.249 . S
O108 Zn98 2.067 . S
O108 C106 1.270 . S
C109 O102 1.262 . S
C109 O110 1.232 . S
O110 C109 1.232 . S
C111 O103 1.260 . S
C111 O104 1.257 . S
Zn112 O115 2.031 . S
Zn112 O117 2.049 . S
Zn112 O122 2.067 . S
Zn113 O114 1.962 . S
Zn113 O116 1.986 . S
Zn113 O118 1.996 . S
Zn113 O121 1.943 . S
O114 Zn113 1.962 . S
O114 C119 1.254 . S
O115 Zn112 2.031 . S
O115 C119 1.269 . S
O116 Zn113 1.986 . S
O116 C123 1.262 . S
O117 Zn112 2.049 . S
O117 C125 1.260 . S
O118 Zn113 1.996 . S
O118 C125 1.257 . S
C119 O114 1.254 . S
C119 O115 1.269 . S
C120 O121 1.249 . S
C120 O122 1.270 . S
O121 Zn113 1.943 . S
O121 C120 1.249 . S
O122 Zn112 2.067 . S
O122 C120 1.270 . S
C123 O116 1.262 . S
C123 O124 1.232 . S
O124 C123 1.232 . S
C125 O117 1.260 . S
C125 O118 1.257 . S
Zn126 O129 2.031 . S
Zn126 O131 2.049 . S
Zn126 O136 2.067 . S
Zn127 O128 1.962 . S
Zn127 O130 1.986 . S
Zn127 O132 1.996 . S
Zn127 O135 1.943 . S
O128 Zn127 1.962 . S
O128 C133 1.254 . S
O129 Zn126 2.031 . S
O129 C133 1.269 . S
O130 Zn127 1.986 . S
O130 C137 1.262 . S
O131 Zn126 2.049 . S
O131 C139 1.260 . S
O132 Zn127 1.996 . S
O132 C139 1.257 . S
C133 O128 1.254 . S
C133 O129 1.269 . S
C134 O135 1.249 . S
C134 O136 1.270 . S
O135 Zn127 1.943 . S
O135 C134 1.249 . S
O136 Zn126 2.067 . S
O136 C134 1.270 . S
C137 O130 1.262 . S
C137 O138 1.232 . S
O138 C137 1.232 . S
C139 O131 1.260 . S
C139 O132 1.257 . S
Zn140 O143 2.031 . S
Zn140 O145 2.049 . S
Zn140 O150 2.067 . S
Zn141 O142 1.962 . S
Zn141 O144 1.986 . S
Zn141 O146 1.996 . S
Zn141 O149 1.943 . S
O142 Zn141 1.962 . S
O142 C147 1.254 . S
O143 Zn140 2.031 . S
O143 C147 1.269 . S
O144 Zn141 1.986 . S
O144 C151 1.262 . S
O145 Zn140 2.049 . S
O145 C153 1.260 . S
O146 Zn141 1.996 . S
O146 C153 1.257 . S
C147 O142 1.254 . S
C147 O143 1.269 . S
C148 O149 1.249 . S
C148 O150 1.270 . S
O149 Zn141 1.943 . S
O149 C148 1.249 . S
O150 Zn140 2.067 . S
O150 C148 1.270 . S
C151 O144 1.262 . S
C151 O152 1.232 . S
O152 C151 1.232 . S
C153 O145 1.260 . S
C153 O146 1.257 . S
Zn154 O157 2.031 . S
Zn154 O159 2.049 . S
Zn154 O164 2.067 . S
Zn155 O156 1.962 . S
Zn155 O158 1.986 . S
Zn155 O160 1.996 . S
Zn155 O163 1.943 . S
O156 Zn155 1.962 . S
O156 C161 1.254 . S
O157 Zn154 2.031 . S
O157 C161 1.269 . S
O158 Zn155 1.986 . S
O158 C165 1.262 . S
O159 Zn154 2.049 . S
O159 C167 1.260 . S
O160 Zn155 1.996 . S
O160 C167 1.257 . S
C161 O156 1.254 . S
C161 O157 1.269 . S
C162 O163 1.249 . S
C162 O164 1.270 . S
O163 Zn155 1.943 . S
O163 C162 1.249 . S
O164 Zn154 2.067 . S
O164 C162 1.270 . S
C165 O158 1.262 . S
C165 O166 1.232 . S
O166 C165 1.232 . S
C167 O159 1.260 . S
C167 O160 1.257 . S
Zn168 O171 2.031 . S
Zn168 O173 2.049 . S
Zn168 O178 2.067 . S
Zn169 O170 1.962 . S
Zn169 O172 1.986 . S
Zn169 O174 1.996 . S
Zn169 O177 1.943 . S
O170 Zn169 1.962 . S
O170 C175 1.254 . S
O171 Zn168 2.031 . S
O171 C175 1.269 . S
O172 Zn169 1.986 . S
O172 C179 1.262 . S
O173 Zn168 2.049 . S
O173 C181 1.260 . S
O174 Zn169 1.996 . S
O174 C181 1.257 . S
C175 O170 1.254 . S
C175 O171 1.269 . S
C176 O177 1.249 . S
C176 O178 1.270 . S
O177 Zn169 1.943 . S
O177 C176 1.249 . S
O178 Zn168 2.067 . S
O178 C176 1.270 . S
C179 O172 1.262 . S
C179 O180 1.232 . S
O180 C179 1.232 . S
C181 O173 1.260 . S
C181 O174 1.257 . S
Zn182 O185 2.031 . S
Zn182 O187 2.049 . S
Zn182 O192 2.067 . S
Zn183 O184 1.962 . S
Zn183 O186 1.986 . S
Zn183 O188 1.996 . S
Zn183 O191 1.943 . S
O184 Zn183 1.962 . S
O184 C189 1.254 . S
O185 Zn182 2.031 . S
O185 C189 1.269 . S
O186 Zn183 1.986 . S
O186 C193 1.262 . S
O187 Zn182 2.049 . S
O187 C195 1.260 . S
O188 Zn183 1.996 . S
O188 C195 1.257 . S
C189 O184 1.254 . S
C189 O185 1.269 . S
C190 O191 1.249 . S
C190 O192 1.270 . S
O191 Zn183 1.943 . S
O191 C190 1.249 . S
O192 Zn182 2.067 . S
O192 C190 1.270 . S
C193 O186 1.262 . S
C193 O194 1.232 . S
O194 C193 1.232 . S
C195 O187 1.260 . S
C195 O188 1.257 . S
Zn196 O199 2.031 . S
Zn196 O201 2.049 . S
Zn196 O206 2.067 . S
Zn197 O198 1.962 . S
Zn197 O200 1.986 . S
Zn197 O202 1.996 . S
Zn197 O205 1.943 . S
O198 Zn197 1.962 . S
O198 C203 1.254 . S
O199 Zn196 2.031 . S
O199 C203 1.269 . S
O200 Zn197 1.986 . S
O200 C207 1.262 . S
O201 Zn196 2.049 . S
O201 C209 1.260 . S
O202 Zn197 1.996 . S
O202 C209 1.257 . S
C203 O198 1.254 . S
C203 O199 1.269 . S
C204 O205 1.249 . S
C204 O206 1.270 . S
O205 Zn197 1.943 . S
O205 C204 1.249 . S
O206 Zn196 2.067 . S
O206 C204 1.270 . S
C207 O200 1.262 . S
C207 O208 1.232 . S
O208 C207 1.232 . S
C209 O201 1.260 . S
C209 O202 1.257 . S
Zn210 O213 2.031 . S
Zn210 O215 2.049 . S
Zn210 O220 2.067 . S
Zn211 O212 1.962 . S
Zn211 O214 1.986 . S
Zn211 O216 1.996 . S
Zn211 O219 1.943 . S
O212 Zn211 1.962 . S
O212 C217 1.254 . S
O213 Zn210 2.031 . S
O213 C217 1.269 . S
O214 Zn211 1.986 . S
O214 C221 1.262 . S
O215 Zn210 2.049 . S
O215 C223 1.260 . S
O216 Zn211 1.996 . S
O216 C223 1.257 . S
C217 O212 1.254 . S
C217 O213 1.269 . S
C218 O219 1.249 . S
C218 O220 1.270 . S
O219 Zn211 1.943 . S
O219 C218 1.249 . S
O220 Zn210 2.067 . S
O220 C218 1.270 . S
C221 O214 1.262 . S
C221 O222 1.232 . S
O222 C221 1.232 . S
C223 O215 1.260 . S
C223 O216 1.257 . S
Zn224 O227 2.031 . S
Zn224 O229 2.049 . S
Zn224 O234 2.067 . S
Zn225 O226 1.962 . S
Zn225 O228 1.986 . S
Zn225 O230 1.996 . S
Zn225 O233 1.943 . S
O226 Zn225 1.962 . S
O226 C231 1.254 . S
O227 Zn224 2.031 . S
O227 C231 1.269 . S
O228 Zn225 1.986 . S
O228 C235 1.262 . S
O229 Zn224 2.049 . S
O229 C237 1.260 . S
O230 Zn225 1.996 . S
O230 C237 1.257 . S
C231 O226 1.254 . S
C231 O227 1.269 . S
C232 O233 1.249 . S
C232 O234 1.270 . S
O233 Zn225 1.943 . S
O233 C232 1.249 . S
O234 Zn224 2.067 . S
O234 C232 1.270 . S
C235 O228 1.262 . S
C235 O236 1.232 . S
O236 C235 1.232 . S
C237 O229 1.260 . S
C237 O230 1.257 . S
Zn238 O241 2.031 . S
Zn238 O243 2.049 . S
Zn238 O248 2.067 . S
Zn239 O240 1.962 . S
Zn239 O242 1.986 . S
Zn239 O244 1.996 . S
Zn239 O247 1.943 . S
O240 Zn239 1.962 . S
O240 C245 1.254 . S
O241 Zn238 2.031 . S
O241 C245 1.269 . S
O242 Zn239 1.986 . S
O242 C249 1.262 . S
O243 Zn238 2.049 . S
O243 C251 1.260 . S
O244 Zn239 1.996 . S
O244 C251 1.257 . S
C245 O240 1.254 . S
C245 O241 1.269 . S
C246 O247 1.249 . S
C246 O248 1.270 . S
O247 Zn239 1.943 . S
O247 C246 1.249 . S
O248 Zn238 2.067 . S
O248 C246 1.270 . S
C249 O242 1.262 . S
C249 O250 1.232 . S
O250 C249 1.232 . S
C251 O243 1.260 . S
C251 O244 1.257 . S
Zn252 O255 2.031 . S
Zn252 O257 2.049 . S
Zn252 O262 2.067 . S
Zn253 O254 1.962 . S
Zn253 O256 1.986 . S
Zn253 O258 1.996 . S
Zn253 O261 1.943 . S
O254 Zn253 1.962 . S
O254 C259 1.254 . S
O255 Zn252 2.031 . S
O255 C259 1.269 . S
O256 Zn253 1.986 . S
O256 C263 1.262 . S
O257 Zn252 2.049 . S
O257 C265 1.260 . S
O258 Zn253 1.996 . S
O258 C265 1.257 . S
C259 O254 1.254 . S
C259 O255 1.269 . S
C260 O261 1.249 . S
C260 O262 1.270 . S
O261 Zn253 1.943 . S
O261 C260 1.249 . S
O262 Zn252 2.067 . S
O262 C260 1.270 . S
C263 O256 1.262 . S
C263 O264 1.232 . S
O264 C263 1.232 . S
C265 O257 1.260 . S
C265 O258 1.257 . S
Zn266 O269 2.031 . S
Zn266 O271 2.049 . S
Zn266 O276 2.067 . S
Zn267 O268 1.962 . S
Zn267 O270 1.986 . S
Zn267 O272 1.996 . S
Zn267 O275 1.943 . S
O268 Zn267 1.962 . S
O268 C273 1.254 . S
O269 Zn266 2.031 . S
O269 C273 1.269 . S
O270 Zn267 1.986 . S
O270 C277 1.262 . S
O271 Zn266 2.049 . S
O271 C279 1.260 . S
O272 Zn267 1.996 . S
O272 C279 1.257 . S
C273 O268 1.254 . S
C273 O269 1.269 . S
C274 O275 1.249 . S
C274 O276 1.270 . S
O275 Zn267 1.943 . S
O275 C274 1.249 . S
O276 Zn266 2.067 . S
O276 C274 1.270 . S
C277 O270 1.262 . S
C277 O278 1.232 . S
O278 C277 1.232 . S
C279 O271 1.260 . S
C279 O272 1.257 . S
Zn280 O283 2.031 . S
Zn280 O285 2.049 . S
Zn280 O290 2.067 . S
Zn281 O282 1.962 . S
Zn281 O284 1.986 . S
Zn281 O286 1.996 . S
Zn281 O289 1.943 . S
O282 Zn281 1.962 . S
O282 C287 1.254 . S
O283 Zn280 2.031 . S
O283 C287 1.269 . S
O284 Zn281 1.986 . S
O284 C291 1.262 . S
O285 Zn280 2.049 . S
O285 C293 1.260 . S
O286 Zn281 1.996 . S
O286 C293 1.257 . S
C287 O282 1.254 . S
C287 O283 1.269 . S
C288 O289 1.249 . S
C288 O290 1.270 . S
O289 Zn281 1.943 . S
O289 C288 1.249 . S
O290 Zn280 2.067 . S
O290 C288 1.270 . S
C291 O284 1.262 . S
C291 O292 1.232 . S
O292 C291 1.232 . S
C293 O285 1.260 . S
C293 O286 1.257 . S
Zn294 O297 2.031 . S
Zn294 O299 2.049 . S
Zn294 O304 2.067 . S
Zn295 O296 1.962 . S
Zn295 O298 1.986 . S
Zn295 O300 1.996 . S
Zn295 O303 1.943 . S
O296 Zn295 1.962 . S
O296 C301 1.254 . S
O297 Zn294 2.031 . S
O297 C301 1.269 . S
O298 Zn295 1.986 . S
O298 C305 1.262 . S
O299 Zn294 2.049 . S
O299 C307 1.260 . S
O300 Zn295 1.996 . S
O300 C307 1.257 . S
C301 O296 1.254 . S
C301 O297 1.269 . S
C302 O303 1.249 . S
C302 O304 1.270 . S
O303 Zn295 1.943 . S
O303 C302 1.249 . S
O304 Zn294 2.067 . S
O304 C302 1.270 . S
C305 O298 1.262 . S
C305 O306 1.232 . S
O306 C305 1.232 . S
C307 O299 1.260 . S
C307 O300 1.257 . S
Zn308 O311 2.031 . S
Zn308 O313 2.049 . S
Zn308 O318 2.067 . S
Zn309 O310 1.962 . S
Zn309 O312 1.986 . S
Zn309 O314 1.996 . S
Zn309 O317 1.943 . S
O310 Zn309 1.962 . S
O310 C315 1.254 . S
O311 Zn308 2.031 . S
O311 C315 1.269 . S
O312 Zn309 1.986 . S
O312 C319 1.262 . S
O313 Zn308 2.049 . S
O313 C321 1.260 . S
O314 Zn309 1.996 . S
O314 C321 1.257 . S
C315 O310 1.254 . S
C315 O311 1.269 . S
C316 O317 1.249 . S
C316 O318 1.270 . S
O317 Zn309 1.943 . S
O317 C316 1.249 . S
O318 Zn308 2.067 . S
O318 C316 1.270 . S
C319 O312 1.262 . S
C319 O320 1.232 . S
O320 C319 1.232 . S
C321 O313 1.260 . S
C321 O314 1.257 . S
Zn322 O325 2.031 . S
Zn322 O327 2.049 . S
Zn322 O332 2.067 . S
Zn323 O324 1.962 . S
Zn323 O326 1.986 . S
Zn323 O328 1.996 . S
Zn323 O331 1.943 . S
O324 Zn323 1.962 . S
O324 C329 1.254 . S
O325 Zn322 2.031 . S
O325 C329 1.269 . S
O326 Zn323 1.986 . S
O326 C333 1.262 . S
O327 Zn322 2.049 . S
O327 C335 1.260 . S
O328 Zn323 1.996 . S
O328 C335 1.257 . S
C329 O324 1.254 . S
C329 O325 1.269 . S
C330 O331 1.249 . S
C330 O332 1.270 . S
O331 Zn323 1.943 . S
O331 C330 1.249 . S
O332 Zn322 2.067 . S
O332 C330 1.270 . S
C333 O326 1.262 . S
C333 O334 1.232 . S
O334 C333 1.232 . S
C335 O327 1.260 . S
C335 O328 1.257 . S
Zn336 O339 2.031 . S
Zn336 O341 2.049 . S
Zn336 O346 2.067 . S
Zn337 O338 1.962 . S
Zn337 O340 1.986 . S
Zn337 O342 1.996 . S
Zn337 O345 1.943 . S
O338 Zn337 1.962 . S
O338 C343 1.254 . S
O339 Zn336 2.031 . S
O339 C343 1.269 . S
O340 Zn337 1.986 . S
O340 C347 1.262 . S
O341 Zn336 2.049 . S
O341 C349 1.260 . S
O342 Zn337 1.996 . S
O342 C349 1.257 . S
C343 O338 1.254 . S
C343 O339 1.269 . S
C344 O345 1.249 . S
C344 O346 1.270 . S
O345 Zn337 1.943 . S
O345 C344 1.249 . S
O346 Zn336 2.067 . S
O346 C344 1.270 . S
C347 O340 1.262 . S
C347 O348 1.232 . S
O348 C347 1.232 . S
C349 O341 1.260 . S
C349 O342 1.257 . S
Zn350 O353 2.031 . S
Zn350 O355 2.049 . S
Zn350 O360 2.067 . S
Zn351 O352 1.962 . S
Zn351 O354 1.986 . S
Zn351 O356 1.996 . S
Zn351 O359 1.943 . S
O352 Zn351 1.962 . S
O352 C357 1.254 . S
O353 Zn350 2.031 . S
O353 C357 1.269 . S
O354 Zn351 1.986 . S
O354 C361 1.262 . S
O355 Zn350 2.049 . S
O355 C363 1.260 . S
O356 Zn351 1.996 . S
O356 C363 1.257 . S
C357 O352 1.254 . S
C357 O353 1.269 . S
C358 O359 1.249 . S
C358 O360 1.270 . S
O359 Zn351 1.943 . S
O359 C358 1.249 . S
O360 Zn350 2.067 . S
O360 C358 1.270 . S
C361 O354 1.262 . S
C361 O362 1.232 . S
O362 C361 1.232 . S
C363 O355 1.260 . S
C363 O356 1.257 . S
Zn364 O367 2.031 . S
Zn364 O369 2.049 . S
Zn364 O374 2.067 . S
Zn365 O366 1.962 . S
Zn365 O368 1.986 . S
Zn365 O370 1.996 . S
Zn365 O373 1.943 . S
O366 Zn365 1.962 . S
O366 C371 1.254 . S
O367 Zn364 2.031 . S
O367 C371 1.269 . S
O368 Zn365 1.986 . S
O368 C375 1.262 . S
O369 Zn364 2.049 . S
O369 C377 1.260 . S
O370 Zn365 1.996 . S
O370 C377 1.257 . S
C371 O366 1.254 . S
C371 O367 1.269 . S
C372 O373 1.249 . S
C372 O374 1.270 . S
O373 Zn365 1.943 . S
O373 C372 1.249 . S
O374 Zn364 2.067 . S
O374 C372 1.270 . S
C375 O368 1.262 . S
C375 O376 1.232 . S
O376 C375 1.232 . S
C377 O369 1.260 . S
C377 O370 1.257 . S
Zn378 O381 2.031 . S
Zn378 O383 2.049 . S
Zn378 O388 2.067 . S
Zn379 O380 1.962 . S
Zn379 O382 1.986 . S
Zn379 O384 1.996 . S
Zn379 O387 1.943 . S
O380 Zn379 1.962 . S
O380 C385 1.254 . S
O381 Zn378 2.031 . S
O381 C385 1.269 . S
O382 Zn379 1.986 . S
O382 C389 1.262 . S
O383 Zn378 2.049 . S
O383 C391 1.260 . S
O384 Zn379 1.996 . S
O384 C391 1.257 . S
C385 O380 1.254 . S
C385 O381 1.269 . S
C386 O387 1.249 . S
C386 O388 1.270 . S
O387 Zn379 1.943 . S
O387 C386 1.249 . S
O388 Zn378 2.067 . S
O388 C386 1.270 . S
C389 O382 1.262 . S
C389 O390 1.232 . S
O390 C389 1.232 . S
C391 O383 1.260 . S
C391 O384 1.257 . S
Zn392 O395 2.031 . S
Zn392 O397 2.049 . S
Zn392 O402 2.067 . S
Zn393 O394 1.962 . S
Zn393 O396 1.986 . S
Zn393 O398 1.996 . S
Zn393 O401 1.943 . S
O394 Zn393 1.962 . S
O394 C399 1.254 . S
O395 Zn392 2.031 . S
O395 C399 1.269 . S
O396 Zn393 1.986 . S
O396 C403 1.262 . S
O397 Zn392 2.049 . S
O397 C405 1.260 . S
O398 Zn393 1.996 . S
O398 C405 1.257 . S
C399 O394 1.254 . S
C399 O395 1.269 . S
C400 O401 1.249 . S
C400 O402 1.270 . S
O401 Zn393 1.943 . S
O401 C400 1.249 . S
O402 Zn392 2.067 . S
O402 C400 1.270 . S
C403 O396 1.262 . S
C403 O404 1.232 . S
O404 C403 1.232 . S
C405 O397 1.260 . S
C405 O398 1.257 . S
Zn406 O409 2.031 . S
Zn406 O411 2.049 . S
Zn406 O416 2.067 . S
Zn407 O408 1.962 . S
Zn407 O410 1.986 . S
Zn407 O412 1.996 . S
Zn407 O415 1.943 . S
O408 Zn407 1.962 . S
O408 C413 1.254 . S
O409 Zn406 2.031 . S
O409 C413 1.269 . S
O410 Zn407 1.986 . S
O410 C417 1.262 . S
O411 Zn406 2.049 . S
O411 C419 1.260 . S
O412 Zn407 1.996 . S
O412 C419 1.257 . S
C413 O408 1.254 . S
C413 O409 1.269 . S
C414 O415 1.249 . S
C414 O416 1.270 . S
O415 Zn407 1.943 . S
O415 C414 1.249 . S
O416 Zn406 2.067 . S
O416 C414 1.270 . S
C417 O410 1.262 . S
C417 O418 1.232 . S
O418 C417 1.232 . S
C419 O411 1.260 . S
C419 O412 1.257 . S
Zn420 O423 2.031 . S
Zn420 O425 2.049 . S
Zn420 O430 2.067 . S
Zn421 O422 1.962 . S
Zn421 O424 1.986 . S
Zn421 O426 1.996 . S
Zn421 O429 1.943 . S
O422 Zn421 1.962 . S
O422 C427 1.254 . S
O423 Zn420 2.031 . S
O423 C427 1.269 . S
O424 Zn421 1.986 . S
O424 C431 1.262 . S
O425 Zn420 2.049 . S
O425 C433 1.260 . S
O426 Zn421 1.996 . S
O426 C433 1.257 . S
C427 O422 1.254 . S
C427 O423 1.269 . S
C428 O429 1.249 . S
C428 O430 1.270 . S
O429 Zn421 1.943 . S
O429 C428 1.249 . S
O430 Zn420 2.067 . S
O430 C428 1.270 . S
C431 O424 1.262 . S
C431 O432 1.232 . S
O432 C431 1.232 . S
C433 O425 1.260 . S
C433 O426 1.257 . S
Zn434 O437 2.031 . S
Zn434 O439 2.049 . S
Zn434 O444 2.067 . S
Zn435 O436 1.962 . S
Zn435 O438 1.986 . S
Zn435 O440 1.996 . S
Zn435 O443 1.943 . S
O436 Zn435 1.962 . S
O436 C441 1.254 . S
O437 Zn434 2.031 . S
O437 C441 1.269 . S
O438 Zn435 1.986 . S
O438 C445 1.262 . S
O439 Zn434 2.049 . S
O439 C447 1.260 . S
O440 Zn435 1.996 . S
O440 C447 1.257 . S
C441 O436 1.254 . S
C441 O437 1.269 . S
C442 O443 1.249 . S
C442 O444 1.270 . S
O443 Zn435 1.943 . S
O443 C442 1.249 . S
O444 Zn434 2.067 . S
O444 C442 1.270 . S
C445 O438 1.262 . S
C445 O446 1.232 . S
O446 C445 1.232 . S
C447 O439 1.260 . S
C447 O440 1.257 . S
H448 C454 0.930 1_554 S
H449 C458 0.930 1_556 S
H450 C463 0.929 . S
H451 C461 0.929 . S
H452 C456 0.929 . S
H453 C462 0.929 . S
C454 H448 0.930 1_556 S
C454 C455 1.367 . S
C454 C462 1.378 1_556 S
C455 C454 1.367 . S
C455 C463 1.433 . S
C456 H452 0.929 . S
C456 C458 1.378 1_556 S
C456 C460 1.350 1_556 S
C457 C460 1.463 1_656 S
C457 C462 1.350 1_556 S
C457 N465 1.427 . S
C458 H449 0.930 1_554 S
C458 C456 1.378 1_554 S
C458 C459 1.367 . S
C459 C458 1.367 . S
C459 C461 1.433 . S
C460 C456 1.350 1_554 S
C460 C457 1.463 1_454 S
C460 N464 1.427 . S
C461 H451 0.929 . S
C461 C459 1.433 . S
C461 N464 1.384 . S
C462 H453 0.929 . S
C462 C454 1.378 1_554 S
C462 C457 1.350 1_554 S
C463 H450 0.929 . S
C463 C455 1.433 . S
C463 N465 1.384 . S
N464 C460 1.427 . S
N464 C461 1.384 . S
N465 C457 1.427 . S
N465 C463 1.384 . S
H466 C472 0.930 . S
H467 C476 0.930 . S
H468 C481 0.929 . S
H469 C479 0.929 . S
H470 C474 0.929 . S
H471 C480 0.929 . S
C472 H466 0.930 . S
C472 C473 1.367 . S
C472 C480 1.378 . S
C473 C472 1.367 . S
C473 C481 1.433 . S
C474 H470 0.929 . S
C474 C476 1.378 . S
C474 C478 1.350 . S
C475 C478 1.463 . S
C475 C480 1.350 . S
C475 N483 1.427 . S
C476 H467 0.930 . S
C476 C474 1.378 . S
C476 C477 1.367 . S
C477 C476 1.367 . S
C477 C479 1.433 . S
C478 C474 1.350 . S
C478 C475 1.463 . S
C478 N482 1.427 . S
C479 H469 0.929 . S
C479 C477 1.433 . S
C479 N482 1.384 . S
C480 H471 0.929 . S
C480 C472 1.378 . S
C480 C475 1.350 . S
C481 H468 0.929 . S
C481 C473 1.433 . S
C481 N483 1.384 . S
N482 C478 1.427 . S
N482 C479 1.384 . S
N483 C475 1.427 . S
N483 C481 1.384 . S
H484 C490 0.930 . S
H485 C494 0.930 . S
H486 C499 0.929 . S
H487 C497 0.929 . S
H488 C492 0.929 . S
H489 C498 0.929 . S
C490 H484 0.930 . S
C490 C491 1.367 . S
C490 C498 1.378 . S
C491 C490 1.367 . S
C491 C499 1.433 . S
C492 H488 0.929 . S
C492 C494 1.378 . S
C492 C496 1.350 . S
C493 C496 1.463 . S
C493 C498 1.350 . S
C493 N501 1.427 . S
C494 H485 0.930 . S
C494 C492 1.378 . S
C494 C495 1.367 . S
C495 C494 1.367 . S
C495 C497 1.433 . S
C496 C492 1.350 . S
C496 C493 1.463 . S
C496 N500 1.427 . S
C497 H487 0.929 . S
C497 C495 1.433 . S
C497 N500 1.384 . S
C498 H489 0.929 . S
C498 C490 1.378 . S
C498 C493 1.350 . S
C499 H486 0.929 . S
C499 C491 1.433 . S
C499 N501 1.384 . S
N500 C496 1.427 . S
N500 C497 1.384 . S
N501 C493 1.427 . S
N501 C499 1.384 . S
H502 C508 0.930 . S
H503 C512 0.930 . S
H504 C517 0.929 . S
H505 C515 0.929 . S
H506 C510 0.929 . S
H507 C516 0.929 . S
C508 H502 0.930 . S
C508 C509 1.367 . S
C508 C516 1.378 . S
C509 C508 1.367 . S
C509 C517 1.433 . S
C510 H506 0.929 . S
C510 C512 1.378 . S
C510 C514 1.350 . S
C511 C514 1.463 . S
C511 C516 1.350 . S
C511 N519 1.427 . S
C512 H503 0.930 . S
C512 C510 1.378 . S
C512 C513 1.367 . S
C513 C512 1.367 . S
C513 C515 1.433 . S
C514 C510 1.350 . S
C514 C511 1.463 . S
C514 N518 1.427 . S
C515 H505 0.929 . S
C515 C513 1.433 . S
C515 N518 1.384 . S
C516 H507 0.929 . S
C516 C508 1.378 . S
C516 C511 1.350 . S
C517 H504 0.929 . S
C517 C509 1.433 . S
C517 N519 1.384 . S
N518 C514 1.427 . S
N518 C515 1.384 . S
N519 C511 1.427 . S
N519 C517 1.384 . S
H520 C526 0.930 . S
H521 C530 0.930 . S
H522 C535 0.929 . S
H523 C533 0.929 . S
H524 C528 0.929 . S
H525 C534 0.929 . S
C526 H520 0.930 . S
C526 C527 1.367 . S
C526 C534 1.378 1_655 S
C527 C526 1.367 . S
C527 C535 1.433 . S
C528 H524 0.929 . S
C528 C530 1.378 1_655 S
C528 C532 1.350 1_655 S
C529 C532 1.463 1_655 S
C529 C534 1.350 1_655 S
C529 N537 1.427 . S
C530 H521 0.930 . S
C530 C528 1.378 1_455 S
C530 C531 1.367 . S
C531 C530 1.367 . S
C531 C533 1.433 . S
C532 C528 1.350 1_455 S
C532 C529 1.463 1_455 S
C532 N536 1.427 . S
C533 H523 0.929 . S
C533 C531 1.433 . S
C533 N536 1.384 . S
C534 H525 0.929 . S
C534 C526 1.378 1_455 S
C534 C529 1.350 1_455 S
C535 H522 0.929 . S
C535 C527 1.433 . S
C535 N537 1.384 . S
N536 C532 1.427 . S
N536 C533 1.384 . S
N537 C529 1.427 . S
N537 C535 1.384 . S
H538 C544 0.930 . S
H539 C548 0.930 . S
H540 C553 0.929 . S
H541 C551 0.929 . S
H542 C546 0.929 . S
H543 C552 0.929 . S
C544 H538 0.930 . S
C544 C545 1.367 . S
C544 C552 1.378 . S
C545 C544 1.367 . S
C545 C553 1.433 . S
C546 H542 0.929 . S
C546 C548 1.378 . S
C546 C550 1.350 . S
C547 C550 1.463 . S
C547 C552 1.350 . S
C547 N555 1.427 . S
C548 H539 0.930 . S
C548 C546 1.378 . S
C548 C549 1.367 . S
C549 C548 1.367 . S
C549 C551 1.433 . S
C550 C546 1.350 . S
C550 C547 1.463 . S
C550 N554 1.427 . S
C551 H541 0.929 . S
C551 C549 1.433 . S
C551 N554 1.384 . S
C552 H543 0.929 . S
C552 C544 1.378 . S
C552 C547 1.350 . S
C553 H540 0.929 . S
C553 C545 1.433 . S
C553 N555 1.384 . S
N554 C550 1.427 . S
N554 C551 1.384 . S
N555 C547 1.427 . S
N555 C553 1.384 . S
H556 C562 0.930 1_554 S
H557 C566 0.930 1_556 S
H558 C571 0.929 . S
H559 C569 0.929 . S
H560 C564 0.929 . S
H561 C570 0.929 . S
C562 H556 0.930 1_556 S
C562 C563 1.367 . S
C562 C570 1.378 1_556 S
C563 C562 1.367 . S
C563 C571 1.433 . S
C564 H560 0.929 . S
C564 C566 1.378 1_556 S
C564 C568 1.350 1_556 S
C565 C568 1.463 1_556 S
C565 C570 1.350 1_556 S
C565 N573 1.427 . S
C566 H557 0.930 1_554 S
C566 C564 1.378 1_554 S
C566 C567 1.367 . S
C567 C566 1.367 . S
C567 C569 1.433 . S
C568 C564 1.350 1_554 S
C568 C565 1.463 1_554 S
C568 N572 1.427 . S
C569 H559 0.929 . S
C569 C567 1.433 . S
C569 N572 1.384 . S
C570 H561 0.929 . S
C570 C562 1.378 1_554 S
C570 C565 1.350 1_554 S
C571 H558 0.929 . S
C571 C563 1.433 . S
C571 N573 1.384 . S
N572 C568 1.427 . S
N572 C569 1.384 . S
N573 C565 1.427 . S
N573 C571 1.384 . S
H574 C580 0.930 . S
H575 C584 0.930 . S
H576 C589 0.929 . S
H577 C587 0.929 . S
H578 C582 0.929 . S
H579 C588 0.929 . S
C580 H574 0.930 . S
C580 C581 1.367 . S
C580 C588 1.378 . S
C581 C580 1.367 . S
C581 C589 1.433 . S
C582 H578 0.929 . S
C582 C584 1.378 . S
C582 C586 1.350 . S
C583 C586 1.463 . S
C583 C588 1.350 . S
C583 N591 1.427 . S
C584 H575 0.930 . S
C584 C582 1.378 . S
C584 C585 1.367 . S
C585 C584 1.367 . S
C585 C587 1.433 . S
C586 C582 1.350 . S
C586 C583 1.463 . S
C586 N590 1.427 . S
C587 H577 0.929 . S
C587 C585 1.433 . S
C587 N590 1.384 . S
C588 H579 0.929 . S
C588 C580 1.378 . S
C588 C583 1.350 . S
C589 H576 0.929 . S
C589 C581 1.433 . S
C589 N591 1.384 . S
N590 C586 1.427 . S
N590 C587 1.384 . S
N591 C583 1.427 . S
N591 C589 1.384 . S
H592 C598 0.930 . S
H593 C602 0.930 . S
H594 C607 0.929 . S
H595 C605 0.929 . S
H596 C600 0.929 . S
H597 C606 0.929 . S
C598 H592 0.930 . S
C598 C599 1.367 . S
C598 C606 1.378 . S
C599 C598 1.367 . S
C599 C607 1.433 . S
C600 H596 0.929 . S
C600 C602 1.378 . S
C600 C604 1.350 . S
C601 C604 1.463 . S
C601 C606 1.350 . S
C601 N609 1.427 . S
C602 H593 0.930 . S
C602 C600 1.378 . S
C602 C603 1.367 . S
C603 C602 1.367 . S
C603 C605 1.433 . S
C604 C600 1.350 . S
C604 C601 1.463 . S
C604 N608 1.427 . S
C605 H595 0.929 . S
C605 C603 1.433 . S
C605 N608 1.384 . S
C606 H597 0.929 . S
C606 C598 1.378 . S
C606 C601 1.350 . S
C607 H594 0.929 . S
C607 C599 1.433 . S
C607 N609 1.384 . S
N608 C604 1.427 . S
N608 C605 1.384 . S
N609 C601 1.427 . S
N609 C607 1.384 . S
H610 C616 0.930 . S
H611 C620 0.930 . S
H612 C625 0.929 . S
H613 C623 0.929 . S
H614 C618 0.929 . S
H615 C624 0.929 . S
C616 H610 0.930 . S
C616 C617 1.367 . S
C616 C624 1.378 . S
C617 C616 1.367 . S
C617 C625 1.433 . S
C618 H614 0.929 . S
C618 C620 1.378 . S
C618 C622 1.350 . S
C619 C622 1.463 . S
C619 C624 1.350 . S
C619 N627 1.427 . S
C620 H611 0.930 . S
C620 C618 1.378 . S
C620 C621 1.367 . S
C621 C620 1.367 . S
C621 C623 1.433 . S
C622 C618 1.350 . S
C622 C619 1.463 . S
C622 N626 1.427 . S
C623 H613 0.929 . S
C623 C621 1.433 . S
C623 N626 1.384 . S
C624 H615 0.929 . S
C624 C616 1.378 . S
C624 C619 1.350 . S
C625 H612 0.929 . S
C625 C617 1.433 . S
C625 N627 1.384 . S
N626 C622 1.427 . S
N626 C623 1.384 . S
N627 C619 1.427 . S
N627 C625 1.384 . S
H628 C634 0.930 . S
H629 C638 0.930 . S
H630 C643 0.929 . S
H631 C641 0.929 . S
H632 C636 0.929 . S
H633 C642 0.929 . S
C634 H628 0.930 . S
C634 C635 1.367 . S
C634 C642 1.378 . S
C635 C634 1.367 . S
C635 C643 1.433 . S
C636 H632 0.929 . S
C636 C638 1.378 . S
C636 C640 1.350 . S
C637 C640 1.463 . S
C637 C642 1.350 . S
C637 N645 1.427 . S
C638 H629 0.930 . S
C638 C636 1.378 . S
C638 C639 1.367 . S
C639 C638 1.367 . S
C639 C641 1.433 . S
C640 C636 1.350 . S
C640 C637 1.463 . S
C640 N644 1.427 . S
C641 H631 0.929 . S
C641 C639 1.433 . S
C641 N644 1.384 . S
C642 H633 0.929 . S
C642 C634 1.378 . S
C642 C637 1.350 . S
C643 H630 0.929 . S
C643 C635 1.433 . S
C643 N645 1.384 . S
N644 C640 1.427 . S
N644 C641 1.384 . S
N645 C637 1.427 . S
N645 C643 1.384 . S
H646 C652 0.930 . S
H647 C656 0.930 . S
H648 C661 0.929 . S
H649 C659 0.929 . S
H650 C654 0.929 . S
H651 C660 0.929 . S
C652 H646 0.930 . S
C652 C653 1.367 . S
C652 C660 1.378 . S
C653 C652 1.367 . S
C653 C661 1.433 . S
C654 H650 0.929 . S
C654 C656 1.378 . S
C654 C658 1.350 . S
C655 C658 1.463 . S
C655 C660 1.350 . S
C655 N663 1.427 . S
C656 H647 0.930 . S
C656 C654 1.378 . S
C656 C657 1.367 . S
C657 C656 1.367 . S
C657 C659 1.433 . S
C658 C654 1.350 . S
C658 C655 1.463 . S
C658 N662 1.427 . S
C659 H649 0.929 . S
C659 C657 1.433 . S
C659 N662 1.384 . S
C660 H651 0.929 . S
C660 C652 1.378 . S
C660 C655 1.350 . S
C661 H648 0.929 . S
C661 C653 1.433 . S
C661 N663 1.384 . S
N662 C658 1.427 . S
N662 C659 1.384 . S
N663 C655 1.427 . S
N663 C661 1.384 . S
H664 C670 0.930 . S
H665 C674 0.930 . S
H666 C679 0.929 . S
H667 C677 0.929 . S
H668 C672 0.929 . S
H669 C678 0.929 . S
C670 H664 0.930 . S
C670 C671 1.367 . S
C670 C678 1.378 . S
C671 C670 1.367 . S
C671 C679 1.433 . S
C672 H668 0.929 . S
C672 C674 1.378 . S
C672 C676 1.350 . S
C673 C676 1.463 1_565 S
C673 C678 1.350 . S
C673 N681 1.427 . S
C674 H665 0.930 . S
C674 C672 1.378 . S
C674 C675 1.367 . S
C675 C674 1.367 . S
C675 C677 1.433 . S
C676 C672 1.350 . S
C676 C673 1.463 1_545 S
C676 N680 1.427 . S
C677 H667 0.929 . S
C677 C675 1.433 . S
C677 N680 1.384 . S
C678 H669 0.929 . S
C678 C670 1.378 . S
C678 C673 1.350 . S
C679 H666 0.929 . S
C679 C671 1.433 . S
C679 N681 1.384 . S
N680 C676 1.427 . S
N680 C677 1.384 . S
N681 C673 1.427 . S
N681 C679 1.384 . S
H682 C688 0.930 . S
H683 C692 0.930 . S
H684 C697 0.929 . S
H685 C695 0.929 . S
H686 C690 0.929 1_566 S
H687 C696 0.929 1_544 S
C688 H682 0.930 . S
C688 C689 1.367 . S
C688 C696 1.378 . S
C689 C688 1.367 . S
C689 C697 1.433 . S
C690 H686 0.929 1_544 S
C690 C692 1.378 . S
C690 C694 1.350 . S
C691 C694 1.463 1_466 S
C691 C696 1.350 . S
C691 N699 1.427 1_455 S
C692 H683 0.930 . S
C692 C690 1.378 . S
C692 C693 1.367 . S
C693 C692 1.367 . S
C693 C695 1.433 . S
C694 C690 1.350 . S
C694 C691 1.463 1_644 S
C694 N698 1.427 1_655 S
C695 H685 0.929 . S
C695 C693 1.433 . S
C695 N698 1.384 1_655 S
C696 H687 0.929 1_566 S
C696 C688 1.378 . S
C696 C691 1.350 . S
C697 H684 0.929 . S
C697 C689 1.433 . S
C697 N699 1.384 1_455 S
N698 C694 1.427 1_455 S
N698 C695 1.384 1_455 S
N699 C691 1.427 1_655 S
N699 C697 1.384 1_655 S
H700 C706 0.930 . S
H701 C710 0.930 . S
H702 C715 0.929 . S
H703 C713 0.929 . S
H704 C708 0.929 1_546 S
H705 C714 0.929 1_564 S
C706 H700 0.930 . S
C706 C707 1.367 . S
C706 C714 1.378 . S
C707 C706 1.367 . S
C707 C715 1.433 . S
C708 H704 0.929 1_564 S
C708 C710 1.378 . S
C708 C712 1.350 . S
C709 C712 1.463 1_546 S
C709 C714 1.350 . S
C709 N717 1.427 . S
C710 H701 0.930 . S
C710 C708 1.378 . S
C710 C711 1.367 . S
C711 C710 1.367 . S
C711 C713 1.433 . S
C712 C708 1.350 . S
C712 C709 1.463 1_564 S
C712 N716 1.427 . S
C713 H703 0.929 . S
C713 C711 1.433 . S
C713 N716 1.384 . S
C714 H705 0.929 1_546 S
C714 C706 1.378 . S
C714 C709 1.350 . S
C715 H702 0.929 . S
C715 C707 1.433 . S
C715 N717 1.384 . S
N716 C712 1.427 . S
N716 C713 1.384 . S
N717 C709 1.427 . S
N717 C715 1.384 . S
H718 C724 0.930 . S
H719 C728 0.930 . S
H720 C733 0.929 . S
H721 C731 0.929 . S
H722 C726 0.929 . S
H723 C732 0.929 . S
C724 H718 0.930 . S
C724 C725 1.367 . S
C724 C732 1.378 . S
C725 C724 1.367 . S
C725 C733 1.433 . S
C726 H722 0.929 . S
C726 C728 1.378 . S
C726 C730 1.350 . S
C727 C730 1.463 1_445 S
C727 C732 1.350 . S
C727 N735 1.427 . S
C728 H719 0.930 . S
C728 C726 1.378 . S
C728 C729 1.367 . S
C729 C728 1.367 . S
C729 C731 1.433 . S
C730 C726 1.350 . S
C730 C727 1.463 1_665 S
C730 N734 1.427 . S
C731 H721 0.929 . S
C731 C729 1.433 . S
C731 N734 1.384 . S
C732 H723 0.929 . S
C732 C724 1.378 . S
C732 C727 1.350 . S
C733 H720 0.929 . S
C733 C725 1.433 . S
C733 N735 1.384 . S
N734 C730 1.427 . S
N734 C731 1.384 . S
N735 C727 1.427 . S
N735 C733 1.384 . S
H736 C742 0.930 . S
H737 C746 0.930 . S
H738 C751 0.929 . S
H739 C749 0.929 . S
H740 C744 0.927 . S
H741 C750 0.927 . S
C742 H736 0.930 . S
C742 C743 1.367 . S
C742 C750 1.378 . S
C743 C742 1.367 . S
C743 C751 1.433 . S
C744 H740 0.927 . S
C744 C746 1.378 . S
C744 C748 1.350 . S
C745 C748 1.463 1_655 S
C745 C750 1.350 . S
C745 N753 1.427 . S
C746 H737 0.930 . S
C746 C744 1.378 . S
C746 C747 1.367 . S
C747 C746 1.367 . S
C747 C749 1.433 . S
C748 C744 1.350 . S
C748 C745 1.463 1_455 S
C748 N752 1.427 . S
C749 H739 0.929 . S
C749 C747 1.433 . S
C749 N752 1.384 . S
C750 H741 0.927 . S
C750 C742 1.378 . S
C750 C745 1.350 . S
C751 H738 0.929 . S
C751 C743 1.433 . S
C751 N753 1.384 . S
N752 C748 1.427 . S
N752 C749 1.384 . S
N753 C745 1.427 . S
N753 C751 1.384 . S
H754 C760 0.930 . S
H755 C764 0.930 . S
H756 C769 0.929 . S
H757 C767 0.929 . S
H758 C762 0.929 1_455 S
H759 C768 0.929 1_655 S
C760 H754 0.930 . S
C760 C761 1.367 . S
C760 C768 1.378 . S
C761 C760 1.367 . S
C761 C769 1.433 . S
C762 H758 0.929 1_655 S
C762 C764 1.378 . S
C762 C766 1.350 . S
C763 C766 1.463 1_455 S
C763 C768 1.350 . S
C763 N771 1.427 . S
C764 H755 0.930 . S
C764 C762 1.378 . S
C764 C765 1.367 . S
C765 C764 1.367 . S
C765 C767 1.433 . S
C766 C762 1.350 . S
C766 C763 1.463 1_655 S
C766 N770 1.427 . S
C767 H757 0.929 . S
C767 C765 1.433 . S
C767 N770 1.384 . S
C768 H759 0.929 1_455 S
C768 C760 1.378 . S
C768 C763 1.350 . S
C769 H756 0.929 . S
C769 C761 1.433 . S
C769 N771 1.384 . S
N770 C766 1.427 . S
N770 C767 1.384 . S
N771 C763 1.427 . S
N771 C769 1.384 . S
H772 C778 0.930 . S
H773 C782 0.930 . S
H774 C787 0.929 . S
H775 C785 0.929 . S
H776 C780 0.929 . S
H777 C786 0.929 . S
C778 H772 0.930 . S
C778 C779 1.367 . S
C778 C786 1.378 . S
C779 C778 1.367 . S
C779 C787 1.433 . S
C780 H776 0.929 . S
C780 C782 1.378 . S
C780 C784 1.350 . S
C781 C784 1.463 . S
C781 C786 1.350 . S
C781 N789 1.427 . S
C782 H773 0.930 . S
C782 C780 1.378 . S
C782 C783 1.367 . S
C783 C782 1.367 . S
C783 C785 1.433 . S
C784 C780 1.350 . S
C784 C781 1.463 . S
C784 N788 1.427 . S
C785 H775 0.929 . S
C785 C783 1.433 . S
C785 N788 1.384 . S
C786 H777 0.929 . S
C786 C778 1.378 . S
C786 C781 1.350 . S
C787 H774 0.929 . S
C787 C779 1.433 . S
C787 N789 1.384 . S
N788 C784 1.427 . S
N788 C785 1.384 . S
N789 C781 1.427 . S
N789 C787 1.384 . S
H790 C796 0.930 . S
H791 C800 0.930 . S
H792 C805 0.929 . S
H793 C803 0.929 . S
H794 C798 0.929 . S
H795 C804 0.929 . S
C796 H790 0.930 . S
C796 C797 1.367 . S
C796 C804 1.378 . S
C797 C796 1.367 . S
C797 C805 1.433 . S
C798 H794 0.929 . S
C798 C800 1.378 . S
C798 C802 1.350 . S
C799 C802 1.463 . S
C799 C804 1.350 . S
C799 N807 1.427 . S
C800 H791 0.930 . S
C800 C798 1.378 . S
C800 C801 1.367 . S
C801 C800 1.367 . S
C801 C803 1.433 . S
C802 C798 1.350 . S
C802 C799 1.463 . S
C802 N806 1.427 . S
C803 H793 0.929 . S
C803 C801 1.433 . S
C803 N806 1.384 . S
C804 H795 0.929 . S
C804 C796 1.378 . S
C804 C799 1.350 . S
C805 H792 0.929 . S
C805 C797 1.433 . S
C805 N807 1.384 . S
N806 C802 1.427 . S
N806 C803 1.384 . S
N807 C799 1.427 . S
N807 C805 1.384 . S
H808 C814 0.930 . S
H809 C818 0.930 . S
H810 C823 0.929 . S
H811 C821 0.929 . S
H812 C816 0.929 . S
H813 C822 0.929 . S
C814 H808 0.930 . S
C814 C815 1.367 . S
C814 C822 1.378 . S
C815 C814 1.367 . S
C815 C823 1.433 . S
C816 H812 0.929 . S
C816 C818 1.378 . S
C816 C820 1.350 . S
C817 C820 1.463 1_655 S
C817 C822 1.350 . S
C817 N825 1.427 . S
C818 H809 0.930 . S
C818 C816 1.378 . S
C818 C819 1.367 . S
C819 C818 1.367 . S
C819 C821 1.433 . S
C820 C816 1.350 . S
C820 C817 1.463 1_455 S
C820 N824 1.427 . S
C821 H811 0.929 . S
C821 C819 1.433 . S
C821 N824 1.384 . S
C822 H813 0.929 . S
C822 C814 1.378 . S
C822 C817 1.350 . S
C823 H810 0.929 . S
C823 C815 1.433 . S
C823 N825 1.384 . S
N824 C820 1.427 . S
N824 C821 1.384 . S
N825 C817 1.427 . S
N825 C823 1.384 . S
H826 C832 0.930 . S
H827 C836 0.930 . S
H828 C841 0.929 . S
H829 C839 0.929 . S
H830 C834 0.929 . S
H831 C840 0.929 . S
C832 H826 0.930 . S
C832 C833 1.367 . S
C832 C840 1.378 . S
C833 C832 1.367 . S
C833 C841 1.433 . S
C834 H830 0.929 . S
C834 C836 1.378 . S
C834 C838 1.350 . S
C835 C838 1.463 . S
C835 C840 1.350 . S
C835 N843 1.427 . S
C836 H827 0.930 . S
C836 C834 1.378 . S
C836 C837 1.367 . S
C837 C836 1.367 . S
C837 C839 1.433 . S
C838 C834 1.350 . S
C838 C835 1.463 . S
C838 N842 1.427 . S
C839 H829 0.929 . S
C839 C837 1.433 . S
C839 N842 1.384 . S
C840 H831 0.929 . S
C840 C832 1.378 . S
C840 C835 1.350 . S
C841 H828 0.929 . S
C841 C833 1.433 . S
C841 N843 1.384 . S
N842 C838 1.427 . S
N842 C839 1.384 . S
N843 C835 1.427 . S
N843 C841 1.384 . S
H844 C850 0.930 . S
H845 C854 0.930 . S
H846 C859 0.929 . S
H847 C857 0.929 . S
H848 C852 0.929 . S
H849 C858 0.929 . S
C850 H844 0.930 . S
C850 C851 1.367 . S
C850 C858 1.378 . S
C851 C850 1.367 . S
C851 C859 1.433 . S
C852 H848 0.929 . S
C852 C854 1.378 . S
C852 C856 1.350 . S
C853 C856 1.463 . S
C853 C858 1.350 . S
C853 N861 1.427 . S
C854 H845 0.930 . S
C854 C852 1.378 . S
C854 C855 1.367 . S
C855 C854 1.367 . S
C855 C857 1.433 . S
C856 C852 1.350 . S
C856 C853 1.463 . S
C856 N860 1.427 . S
C857 H847 0.929 . S
C857 C855 1.433 . S
C857 N860 1.384 . S
C858 H849 0.929 . S
C858 C850 1.378 . S
C858 C853 1.350 . S
C859 H846 0.929 . S
C859 C851 1.433 . S
C859 N861 1.384 . S
N860 C856 1.427 . S
N860 C857 1.384 . S
N861 C853 1.427 . S
N861 C859 1.384 . S
H862 C868 0.930 . S
H863 C872 0.930 . S
H864 C877 0.929 . S
H865 C875 0.929 . S
H866 C870 0.929 1_455 S
H867 C876 0.929 1_655 S
C868 H862 0.930 . S
C868 C869 1.367 . S
C868 C876 1.378 . S
C869 C868 1.367 . S
C869 C877 1.433 . S
C870 H866 0.929 1_655 S
C870 C872 1.378 . S
C870 C874 1.350 . S
C871 C874 1.463 1_455 S
C871 C876 1.350 . S
C871 N879 1.427 . S
C872 H863 0.930 . S
C872 C870 1.378 . S
C872 C873 1.367 . S
C873 C872 1.367 . S
C873 C875 1.433 . S
C874 C870 1.350 . S
C874 C871 1.463 1_655 S
C874 N878 1.427 . S
C875 H865 0.929 . S
C875 C873 1.433 . S
C875 N878 1.384 . S
C876 H867 0.929 1_455 S
C876 C868 1.378 . S
C876 C871 1.350 . S
C877 H864 0.929 . S
C877 C869 1.433 . S
C877 N879 1.384 . S
N878 C874 1.427 . S
N878 C875 1.384 . S
N879 C871 1.427 . S
N879 C877 1.384 . S
H880 C886 0.930 . S
H881 C890 0.930 . S
H882 C895 0.929 . S
H883 C893 0.929 . S
H884 C888 0.929 . S
H885 C894 0.929 . S
C886 H880 0.930 . S
C886 C887 1.367 . S
C886 C894 1.378 . S
C887 C886 1.367 . S
C887 C895 1.433 . S
C888 H884 0.929 . S
C888 C890 1.378 . S
C888 C892 1.350 . S
C889 C892 1.463 1_655 S
C889 C894 1.350 . S
C889 N897 1.427 . S
C890 H881 0.930 . S
C890 C888 1.378 . S
C890 C891 1.367 . S
C891 C890 1.367 . S
C891 C893 1.433 . S
C892 C888 1.350 . S
C892 C889 1.463 1_455 S
C892 N896 1.427 . S
C893 H883 0.929 . S
C893 C891 1.433 . S
C893 N896 1.384 . S
C894 H885 0.929 . S
C894 C886 1.378 . S
C894 C889 1.350 . S
C895 H882 0.929 . S
C895 C887 1.433 . S
C895 N897 1.384 . S
N896 C892 1.427 . S
N896 C893 1.384 . S
N897 C889 1.427 . S
N897 C895 1.384 . S
H898 C904 0.930 . S
H899 C908 0.930 . S
H900 C913 0.929 . S
H901 C911 0.929 . S
H902 C906 0.929 . S
H903 C912 0.929 . S
C904 H898 0.930 . S
C904 C905 1.367 . S
C904 C912 1.378 . S
C905 C904 1.367 . S
C905 C913 1.433 . S
C906 H902 0.929 . S
C906 C908 1.378 . S
C906 C910 1.350 . S
C907 C910 1.463 1_655 S
C907 C912 1.350 . S
C907 N915 1.427 . S
C908 H899 0.930 . S
C908 C906 1.378 . S
C908 C909 1.367 . S
C909 C908 1.367 . S
C909 C911 1.433 . S
C910 C906 1.350 . S
C910 C907 1.463 1_455 S
C910 N914 1.427 . S
C911 H901 0.929 . S
C911 C909 1.433 . S
C911 N914 1.384 . S
C912 H903 0.929 . S
C912 C904 1.378 . S
C912 C907 1.350 . S
C913 H900 0.929 . S
C913 C905 1.433 . S
C913 N915 1.384 . S
N914 C910 1.427 . S
N914 C911 1.384 . S
N915 C907 1.427 . S
N915 C913 1.384 . S
H916 C922 0.930 . S
H917 C926 0.930 . S
H918 C931 0.929 . S
H919 C929 0.929 . S
H920 C924 0.929 . S
H921 C930 0.929 . S
C922 H916 0.930 . S
C922 C923 1.367 . S
C922 C930 1.378 . S
C923 C922 1.367 . S
C923 C931 1.433 . S
C924 H920 0.929 . S
C924 C926 1.378 . S
C924 C928 1.350 . S
C925 C928 1.463 . S
C925 C930 1.350 . S
C925 N933 1.427 . S
C926 H917 0.930 . S
C926 C924 1.378 . S
C926 C927 1.367 . S
C927 C926 1.367 . S
C927 C929 1.433 . S
C928 C924 1.350 . S
C928 C925 1.463 . S
C928 N932 1.427 . S
C929 H919 0.929 . S
C929 C927 1.433 . S
C929 N932 1.384 . S
C930 H921 0.929 . S
C930 C922 1.378 . S
C930 C925 1.350 . S
C931 H918 0.929 . S
C931 C923 1.433 . S
C931 N933 1.384 . S
N932 C928 1.427 . S
N932 C929 1.384 . S
N933 C925 1.427 . S
N933 C931 1.384 . S
H934 C940 0.930 . S
H935 C944 0.930 . S
H936 C949 0.929 . S
H937 C947 0.929 . S
H938 C942 0.929 . S
H939 C948 0.929 . S
C940 H934 0.930 . S
C940 C941 1.367 . S
C940 C948 1.378 . S
C941 C940 1.367 . S
C941 C949 1.433 . S
C942 H938 0.929 . S
C942 C944 1.378 . S
C942 C946 1.350 . S
C943 C946 1.463 . S
C943 C948 1.350 . S
C943 N951 1.427 . S
C944 H935 0.930 . S
C944 C942 1.378 . S
C944 C945 1.367 . S
C945 C944 1.367 . S
C945 C947 1.433 . S
C946 C942 1.350 . S
C946 C943 1.463 . S
C946 N950 1.427 . S
C947 H937 0.929 . S
C947 C945 1.433 . S
C947 N950 1.384 . S
C948 H939 0.929 . S
C948 C940 1.378 . S
C948 C943 1.350 . S
C949 H936 0.929 . S
C949 C941 1.433 . S
C949 N951 1.384 . S
N950 C946 1.427 . S
N950 C947 1.384 . S
N951 C943 1.427 . S
N951 C949 1.384 . S
H952 C958 0.930 . S
H953 C962 0.930 . S
H954 C967 0.929 . S
H955 C965 0.929 . S
H956 C960 0.929 . S
H957 C966 0.929 . S
C958 H952 0.930 . S
C958 C959 1.367 . S
C958 C966 1.378 . S
C959 C958 1.367 . S
C959 C967 1.433 . S
C960 H956 0.929 . S
C960 C962 1.378 . S
C960 C964 1.350 . S
C961 C964 1.463 1_655 S
C961 C966 1.350 . S
C961 N969 1.420 1_655 S
C962 H953 0.930 . S
C962 C960 1.378 . S
C962 C963 1.367 . S
C963 C962 1.367 . S
C963 C965 1.433 . S
C964 C960 1.350 . S
C964 C961 1.463 1_455 S
C964 N968 1.420 1_455 S
C965 H955 0.929 . S
C965 C963 1.433 . S
C965 N968 1.371 1_455 S
C966 H957 0.929 . S
C966 C958 1.378 . S
C966 C961 1.350 . S
C967 H954 0.929 . S
C967 C959 1.433 . S
C967 N969 1.371 1_655 S
N968 C964 1.420 1_655 S
N968 C965 1.371 1_655 S
N969 C961 1.420 1_455 S
N969 C967 1.371 1_455 S
H970 C976 0.930 . S
H971 C980 0.930 . S
H972 C985 0.929 . S
H973 C983 0.929 . S
H974 C978 0.929 . S
H975 C984 0.929 . S
C976 H970 0.930 . S
C976 C977 1.367 . S
C976 C984 1.378 . S
C977 C976 1.367 . S
C977 C985 1.433 . S
C978 H974 0.929 . S
C978 C980 1.378 . S
C978 C982 1.350 . S
C979 C982 1.463 . S
C979 C984 1.350 . S
C979 N987 1.427 . S
C980 H971 0.930 . S
C980 C978 1.378 . S
C980 C981 1.367 . S
C981 C980 1.367 . S
C981 C983 1.433 . S
C982 C978 1.350 . S
C982 C979 1.463 . S
C982 N986 1.427 . S
C983 H973 0.929 . S
C983 C981 1.433 . S
C983 N986 1.384 . S
C984 H975 0.929 . S
C984 C976 1.378 . S
C984 C979 1.350 . S
C985 H972 0.929 . S
C985 C977 1.433 . S
C985 N987 1.384 . S
N986 C982 1.427 . S
N986 C983 1.384 . S
N987 C979 1.427 . S
N987 C985 1.384 . S
H988 C994 0.930 . S
H989 C998 0.930 . S
H990 C1003 0.929 . S
H991 C1001 0.929 . S
H992 C996 0.929 . S
H993 C1002 0.929 . S
C994 H988 0.930 . S
C994 C995 1.367 . S
C994 C1002 1.378 . S
C995 C994 1.367 . S
C995 C1003 1.433 . S
C996 H992 0.929 . S
C996 C998 1.378 . S
C996 C1000 1.350 . S
C997 C1000 1.463 . S
C997 C1002 1.350 . S
C997 N1005 1.427 . S
C998 H989 0.930 . S
C998 C996 1.378 . S
C998 C999 1.367 . S
C999 C998 1.367 . S
C999 C1001 1.433 . S
C1000 C996 1.350 . S
C1000 C997 1.463 . S
C1000 N1004 1.427 . S
C1001 H991 0.929 . S
C1001 C999 1.433 . S
C1001 N1004 1.384 . S
C1002 H993 0.929 . S
C1002 C994 1.378 . S
C1002 C997 1.350 . S
C1003 H990 0.929 . S
C1003 C995 1.433 . S
C1003 N1005 1.384 . S
N1004 C1000 1.427 . S
N1004 C1001 1.384 . S
N1005 C997 1.427 . S
N1005 C1003 1.384 . S
H1006 C1012 0.930 . S
H1007 C1016 0.930 . S
H1008 C1021 0.929 . S
H1009 C1019 0.929 . S
H1010 C1014 0.929 . S
H1011 C1020 0.929 . S
C1012 H1006 0.930 . S
C1012 C1013 1.367 . S
C1012 C1020 1.378 . S
C1013 C1012 1.367 . S
C1013 C1021 1.433 . S
C1014 H1010 0.929 . S
C1014 C1016 1.378 . S
C1014 C1018 1.350 . S
C1015 C1018 1.463 1_655 S
C1015 C1020 1.350 . S
C1015 N1023 1.427 . S
C1016 H1007 0.930 . S
C1016 C1014 1.378 . S
C1016 C1017 1.367 . S
C1017 C1016 1.367 . S
C1017 C1019 1.433 . S
C1018 C1014 1.350 . S
C1018 C1015 1.463 1_455 S
C1018 N1022 1.427 . S
C1019 H1009 0.929 . S
C1019 C1017 1.433 . S
C1019 N1022 1.384 . S
C1020 H1011 0.929 . S
C1020 C1012 1.378 . S
C1020 C1015 1.350 . S
C1021 H1008 0.929 . S
C1021 C1013 1.433 . S
C1021 N1023 1.384 . S
N1022 C1018 1.427 . S
N1022 C1019 1.384 . S
N1023 C1015 1.427 . S
N1023 C1021 1.384 . S
H1024 C1030 0.930 . S
H1025 C1034 0.930 . S
H1026 C1039 0.960 . S
H1027 C1037 0.960 . S
H1028 C1032 0.929 . S
H1029 C1038 0.929 . S
C1030 H1024 0.930 . S
C1030 C1031 1.367 . S
C1030 C1038 1.378 . S
C1031 C1030 1.367 . S
C1031 C1039 1.384 1_556 S
C1032 H1028 0.929 . S
C1032 C1034 1.378 . S
C1032 C1036 1.350 . S
C1033 C1036 1.463 1_556 S
C1033 C1038 1.350 . S
C1033 N1041 1.427 1_556 S
C1034 H1025 0.930 . S
C1034 C1032 1.378 . S
C1034 C1035 1.367 . S
C1035 C1034 1.367 . S
C1035 C1037 1.384 1_554 S
C1036 C1032 1.350 . S
C1036 C1033 1.463 1_554 S
C1036 N1040 1.427 1_554 S
C1037 H1027 0.960 . S
C1037 C1035 1.384 1_556 S
C1037 N1040 1.403 . S
C1038 H1029 0.929 . S
C1038 C1030 1.378 . S
C1038 C1033 1.350 . S
C1039 H1026 0.960 . S
C1039 C1031 1.384 1_554 S
C1039 N1041 1.403 . S
N1040 C1036 1.427 1_556 S
N1040 C1037 1.403 . S
N1041 C1033 1.427 1_554 S
N1041 C1039 1.403 . S
H1042 C1048 0.930 . S
H1043 C1052 0.930 . S
H1044 C1057 0.929 . S
H1045 C1055 0.929 . S
H1046 C1050 0.929 . S
H1047 C1056 0.929 . S
C1048 H1042 0.930 . S
C1048 C1049 1.367 . S
C1048 C1056 1.378 . S
C1049 C1048 1.367 . S
C1049 C1057 1.433 . S
C1050 H1046 0.929 . S
C1050 C1052 1.378 . S
C1050 C1054 1.350 . S
C1051 C1054 1.463 1_545 S
C1051 C1056 1.350 . S
C1051 N1059 1.427 . S
C1052 H1043 0.930 . S
C1052 C1050 1.378 . S
C1052 C1053 1.367 . S
C1053 C1052 1.367 . S
C1053 C1055 1.433 . S
C1054 C1050 1.350 . S
C1054 C1051 1.463 1_565 S
C1054 N1058 1.427 . S
C1055 H1045 0.929 . S
C1055 C1053 1.433 . S
C1055 N1058 1.384 . S
C1056 H1047 0.929 . S
C1056 C1048 1.378 . S
C1056 C1051 1.350 . S
C1057 H1044 0.929 . S
C1057 C1049 1.433 . S
C1057 N1059 1.384 . S
N1058 C1054 1.427 . S
N1058 C1055 1.384 . S
N1059 C1051 1.427 . S
N1059 C1057 1.384 . S
H1060 C1066 0.930 . S
H1061 C1070 0.930 . S
H1062 C1075 0.929 . S
H1063 C1073 0.929 . S
H1064 C1068 0.929 . S
H1065 C1074 0.929 . S
C1066 H1060 0.930 . S
C1066 C1067 1.367 . S
C1066 C1074 1.378 . S
C1067 C1066 1.367 . S
C1067 C1075 1.433 . S
C1068 H1064 0.929 . S
C1068 C1070 1.378 . S
C1068 C1072 1.350 . S
C1069 C1072 1.463 . S
C1069 C1074 1.350 . S
C1069 N1077 1.427 . S
C1070 H1061 0.930 . S
C1070 C1068 1.378 . S
C1070 C1071 1.367 . S
C1071 C1070 1.367 . S
C1071 C1073 1.433 . S
C1072 C1068 1.350 . S
C1072 C1069 1.463 . S
C1072 N1076 1.427 . S
C1073 H1063 0.929 . S
C1073 C1071 1.433 . S
C1073 N1076 1.384 . S
C1074 H1065 0.929 . S
C1074 C1066 1.378 . S
C1074 C1069 1.350 . S
C1075 H1062 0.929 . S
C1075 C1067 1.433 . S
C1075 N1077 1.384 . S
N1076 C1072 1.427 . S
N1076 C1073 1.384 . S
N1077 C1069 1.427 . S
N1077 C1075 1.384 . S
H1078 C1084 0.930 . S
H1079 C1088 0.930 . S
H1080 C1093 0.929 . S
H1081 C1091 0.929 . S
H1082 C1086 0.929 . S
H1083 C1092 0.929 . S
C1084 H1078 0.930 . S
C1084 C1085 1.367 . S
C1084 C1092 1.378 . S
C1085 C1084 1.367 . S
C1085 C1093 1.433 . S
C1086 H1082 0.929 . S
C1086 C1088 1.378 . S
C1086 C1090 1.350 . S
C1087 C1090 1.463 1_545 S
C1087 C1092 1.350 . S
C1087 N1095 1.427 . S
C1088 H1079 0.930 . S
C1088 C1086 1.378 . S
C1088 C1089 1.367 . S
C1089 C1088 1.367 . S
C1089 C1091 1.433 . S
C1090 C1086 1.350 . S
C1090 C1087 1.463 1_565 S
C1090 N1094 1.427 . S
C1091 H1081 0.929 . S
C1091 C1089 1.433 . S
C1091 N1094 1.384 . S
C1092 H1083 0.929 . S
C1092 C1084 1.378 . S
C1092 C1087 1.350 . S
C1093 H1080 0.929 . S
C1093 C1085 1.433 . S
C1093 N1095 1.384 . S
N1094 C1090 1.427 . S
N1094 C1091 1.384 . S
N1095 C1087 1.427 . S
N1095 C1093 1.384 . S
H1096 C1102 0.930 . S
H1097 C1106 0.930 . S
H1098 C1111 0.962 . S
H1099 C1109 0.962 . S
H1100 C1104 0.929 . S
H1101 C1110 0.929 . S
C1102 H1096 0.930 . S
C1102 C1103 1.367 . S
C1102 C1110 1.378 . S
C1103 C1102 1.367 . S
C1103 C1111 1.380 1_554 S
C1104 H1100 0.929 . S
C1104 C1106 1.378 . S
C1104 C1108 1.350 . S
C1105 C1108 1.463 1_554 S
C1105 C1110 1.350 . S
C1105 N1113 1.427 1_554 S
C1106 H1097 0.930 . S
C1106 C1104 1.378 . S
C1106 C1107 1.367 . S
C1107 C1106 1.367 . S
C1107 C1109 1.380 1_556 S
C1108 C1104 1.350 . S
C1108 C1105 1.463 1_556 S
C1108 N1112 1.427 1_556 S
C1109 H1099 0.962 . S
C1109 C1107 1.380 1_554 S
C1109 N1112 1.405 . S
C1110 H1101 0.929 . S
C1110 C1102 1.378 . S
C1110 C1105 1.350 . S
C1111 H1098 0.962 . S
C1111 C1103 1.380 1_556 S
C1111 N1113 1.405 . S
N1112 C1108 1.427 1_554 S
N1112 C1109 1.405 . S
N1113 C1105 1.427 1_556 S
N1113 C1111 1.405 . S
H1114 C1120 0.930 . S
H1115 C1124 0.930 . S
H1116 C1129 0.929 . S
H1117 C1127 0.929 . S
H1118 C1122 0.929 . S
H1119 C1128 0.929 . S
C1120 H1114 0.930 . S
C1120 C1121 1.367 . S
C1120 C1128 1.378 . S
C1121 C1120 1.367 . S
C1121 C1129 1.433 . S
C1122 H1118 0.929 . S
C1122 C1124 1.378 . S
C1122 C1126 1.350 . S
C1123 C1126 1.463 1_565 S
C1123 C1128 1.350 . S
C1123 N1131 1.427 . S
C1124 H1115 0.930 . S
C1124 C1122 1.378 . S
C1124 C1125 1.367 . S
C1125 C1124 1.367 . S
C1125 C1127 1.433 . S
C1126 C1122 1.350 . S
C1126 C1123 1.463 1_545 S
C1126 N1130 1.427 . S
C1127 H1117 0.929 . S
C1127 C1125 1.433 . S
C1127 N1130 1.384 . S
C1128 H1119 0.929 . S
C1128 C1120 1.378 . S
C1128 C1123 1.350 . S
C1129 H1116 0.929 . S
C1129 C1121 1.433 . S
C1129 N1131 1.384 . S
N1130 C1126 1.427 . S
N1130 C1127 1.384 . S
N1131 C1123 1.427 . S
N1131 C1129 1.384 . S
H1132 C1138 0.930 . S
H1133 C1142 0.930 . S
H1134 C1147 0.929 . S
H1135 C1145 0.929 . S
H1136 C1140 0.929 . S
H1137 C1146 0.929 . S
C1138 H1132 0.930 . S
C1138 C1139 1.367 . S
C1138 C1146 1.378 . S
C1139 C1138 1.367 . S
C1139 C1147 1.433 . S
C1140 H1136 0.929 . S
C1140 C1142 1.378 . S
C1140 C1144 1.350 . S
C1141 C1144 1.463 . S
C1141 C1146 1.350 . S
C1141 N1149 1.427 . S
C1142 H1133 0.930 . S
C1142 C1140 1.378 . S
C1142 C1143 1.367 . S
C1143 C1142 1.367 . S
C1143 C1145 1.433 . S
C1144 C1140 1.350 . S
C1144 C1141 1.463 . S
C1144 N1148 1.427 . S
C1145 H1135 0.929 . S
C1145 C1143 1.433 . S
C1145 N1148 1.384 . S
C1146 H1137 0.929 . S
C1146 C1138 1.378 . S
C1146 C1141 1.350 . S
C1147 H1134 0.929 . S
C1147 C1139 1.433 . S
C1147 N1149 1.384 . S
N1148 C1144 1.427 . S
N1148 C1145 1.384 . S
N1149 C1141 1.427 . S
N1149 C1147 1.384 . S
H1150 C1156 0.930 . S
H1151 C1160 0.930 . S
H1152 C1165 0.929 . S
H1153 C1163 0.929 . S
H1154 C1158 0.929 . S
H1155 C1164 0.929 . S
C1156 H1150 0.930 . S
C1156 C1157 1.367 . S
C1156 C1164 1.378 . S
C1157 C1156 1.367 . S
C1157 C1165 1.433 . S
C1158 H1154 0.929 . S
C1158 C1160 1.378 . S
C1158 C1162 1.350 . S
C1159 C1162 1.463 1_545 S
C1159 C1164 1.350 . S
C1159 N1167 1.427 . S
C1160 H1151 0.930 . S
C1160 C1158 1.378 . S
C1160 C1161 1.367 . S
C1161 C1160 1.367 . S
C1161 C1163 1.433 . S
C1162 C1158 1.350 . S
C1162 C1159 1.463 1_565 S
C1162 N1166 1.427 . S
C1163 H1153 0.929 . S
C1163 C1161 1.433 . S
C1163 N1166 1.384 . S
C1164 H1155 0.929 . S
C1164 C1156 1.378 . S
C1164 C1159 1.350 . S
C1165 H1152 0.929 . S
C1165 C1157 1.433 . S
C1165 N1167 1.384 . S
N1166 C1162 1.427 . S
N1166 C1163 1.384 . S
N1167 C1159 1.427 . S
N1167 C1165 1.384 . S
H1168 C1174 0.930 . S
H1169 C1178 0.930 . S
H1170 C1183 0.929 . S
H1171 C1181 0.929 . S
H1172 C1176 0.929 . S
H1173 C1182 0.929 . S
C1174 H1168 0.930 . S
C1174 C1175 1.367 . S
C1174 C1182 1.378 . S
C1175 C1174 1.367 . S
C1175 C1183 1.433 . S
C1176 H1172 0.929 . S
C1176 C1178 1.378 . S
C1176 C1180 1.350 . S
C1177 C1180 1.463 . S
C1177 C1182 1.350 . S
C1177 N1185 1.427 . S
C1178 H1169 0.930 . S
C1178 C1176 1.378 . S
C1178 C1179 1.367 . S
C1179 C1178 1.367 . S
C1179 C1181 1.433 . S
C1180 C1176 1.350 . S
C1180 C1177 1.463 . S
C1180 N1184 1.427 . S
C1181 H1171 0.929 . S
C1181 C1179 1.433 . S
C1181 N1184 1.384 . S
C1182 H1173 0.929 . S
C1182 C1174 1.378 . S
C1182 C1177 1.350 . S
C1183 H1170 0.929 . S
C1183 C1175 1.433 . S
C1183 N1185 1.384 . S
N1184 C1180 1.427 . S
N1184 C1181 1.384 . S
N1185 C1177 1.427 . S
N1185 C1183 1.384 . S
H1186 C1192 0.930 . S
H1187 C1196 0.930 . S
H1188 C1201 0.929 . S
H1189 C1199 0.929 . S
H1190 C1194 0.929 . S
H1191 C1200 0.929 . S
C1192 H1186 0.930 . S
C1192 C1193 1.367 . S
C1192 C1200 1.378 . S
C1193 C1192 1.367 . S
C1193 C1201 1.433 . S
C1194 H1190 0.929 . S
C1194 C1196 1.378 . S
C1194 C1198 1.350 . S
C1195 C1198 1.463 . S
C1195 C1200 1.350 . S
C1195 N1203 1.427 . S
C1196 H1187 0.930 . S
C1196 C1194 1.378 . S
C1196 C1197 1.367 . S
C1197 C1196 1.367 . S
C1197 C1199 1.433 . S
C1198 C1194 1.350 . S
C1198 C1195 1.463 . S
C1198 N1202 1.427 . S
C1199 H1189 0.929 . S
C1199 C1197 1.433 . S
C1199 N1202 1.384 . S
C1200 H1191 0.929 . S
C1200 C1192 1.378 . S
C1200 C1195 1.350 . S
C1201 H1188 0.929 . S
C1201 C1193 1.433 . S
C1201 N1203 1.384 . S
N1202 C1198 1.427 . S
N1202 C1199 1.384 . S
N1203 C1195 1.427 . S
N1203 C1201 1.384 . S
H1204 C1210 0.930 . S
H1205 C1214 0.930 . S
H1206 C1219 0.929 . S
H1207 C1217 0.929 . S
H1208 C1212 0.929 1_554 S
H1209 C1218 0.929 1_556 S
C1210 H1204 0.930 . S
C1210 C1211 1.367 . S
C1210 C1218 1.378 . S
C1211 C1210 1.367 . S
C1211 C1219 1.433 . S
C1212 H1208 0.929 1_556 S
C1212 C1214 1.378 . S
C1212 C1216 1.350 . S
C1213 C1216 1.463 1_554 S
C1213 C1218 1.350 . S
C1213 N1221 1.427 . S
C1214 H1205 0.930 . S
C1214 C1212 1.378 . S
C1214 C1215 1.367 . S
C1215 C1214 1.367 . S
C1215 C1217 1.433 . S
C1216 C1212 1.350 . S
C1216 C1213 1.463 1_556 S
C1216 N1220 1.427 . S
C1217 H1207 0.929 . S
C1217 C1215 1.433 . S
C1217 N1220 1.384 . S
C1218 H1209 0.929 1_554 S
C1218 C1210 1.378 . S
C1218 C1213 1.350 . S
C1219 H1206 0.929 . S
C1219 C1211 1.433 . S
C1219 N1221 1.384 . S
N1220 C1216 1.427 . S
N1220 C1217 1.384 . S
N1221 C1213 1.427 . S
N1221 C1219 1.384 . S
H1222 C1228 0.930 . S
H1223 C1232 0.930 . S
H1224 C1237 0.929 . S
H1225 C1235 0.929 . S
H1226 C1230 0.929 . S
H1227 C1236 0.929 . S
C1228 H1222 0.930 . S
C1228 C1229 1.367 . S
C1228 C1236 1.378 . S
C1229 C1228 1.367 . S
C1229 C1237 1.433 . S
C1230 H1226 0.929 . S
C1230 C1232 1.378 . S
C1230 C1234 1.350 . S
C1231 C1234 1.463 . S
C1231 C1236 1.350 . S
C1231 N1239 1.427 . S
C1232 H1223 0.930 . S
C1232 C1230 1.378 . S
C1232 C1233 1.367 . S
C1233 C1232 1.367 . S
C1233 C1235 1.433 . S
C1234 C1230 1.350 . S
C1234 C1231 1.463 . S
C1234 N1238 1.427 . S
C1235 H1225 0.929 . S
C1235 C1233 1.433 . S
C1235 N1238 1.384 . S
C1236 H1227 0.929 . S
C1236 C1228 1.378 . S
C1236 C1231 1.350 . S
C1237 H1224 0.929 . S
C1237 C1229 1.433 . S
C1237 N1239 1.384 . S
N1238 C1234 1.427 . S
N1238 C1235 1.384 . S
N1239 C1231 1.427 . S
N1239 C1237 1.384 . S
H1240 C1246 0.930 . S
H1241 C1250 0.930 . S
H1242 C1255 0.929 . S
H1243 C1253 0.929 . S
H1244 C1248 0.929 . S
H1245 C1254 0.929 . S
C1246 H1240 0.930 . S
C1246 C1247 1.367 . S
C1246 C1254 1.378 . S
C1247 C1246 1.367 . S
C1247 C1255 1.433 . S
C1248 H1244 0.929 . S
C1248 C1250 1.378 . S
C1248 C1252 1.350 . S
C1249 C1252 1.463 . S
C1249 C1254 1.350 . S
C1249 N1257 1.427 . S
C1250 H1241 0.930 . S
C1250 C1248 1.378 . S
C1250 C1251 1.367 . S
C1251 C1250 1.367 . S
C1251 C1253 1.433 . S
C1252 C1248 1.350 . S
C1252 C1249 1.463 . S
C1252 N1256 1.427 . S
C1253 H1243 0.929 . S
C1253 C1251 1.433 . S
C1253 N1256 1.384 . S
C1254 H1245 0.929 . S
C1254 C1246 1.378 . S
C1254 C1249 1.350 . S
C1255 H1242 0.929 . S
C1255 C1247 1.433 . S
C1255 N1257 1.384 . S
N1256 C1252 1.427 . S
N1256 C1253 1.384 . S
N1257 C1249 1.427 . S
N1257 C1255 1.384 . S
H1258 C1264 0.930 . S
H1259 C1268 0.930 . S
H1260 C1273 0.929 . S
H1261 C1271 0.929 . S
H1262 C1266 0.929 . S
H1263 C1272 0.929 . S
C1264 H1258 0.930 . S
C1264 C1265 1.367 . S
C1264 C1272 1.378 . S
C1265 C1264 1.367 . S
C1265 C1273 1.433 . S
C1266 H1262 0.929 . S
C1266 C1268 1.378 . S
C1266 C1270 1.350 . S
C1267 C1270 1.463 . S
C1267 C1272 1.350 . S
C1267 N1275 1.427 . S
C1268 H1259 0.930 . S
C1268 C1266 1.378 . S
C1268 C1269 1.367 . S
C1269 C1268 1.367 . S
C1269 C1271 1.433 . S
C1270 C1266 1.350 . S
C1270 C1267 1.463 . S
C1270 N1274 1.427 . S
C1271 H1261 0.929 . S
C1271 C1269 1.433 . S
C1271 N1274 1.384 . S
C1272 H1263 0.929 . S
C1272 C1264 1.378 . S
C1272 C1267 1.350 . S
C1273 H1260 0.929 . S
C1273 C1265 1.433 . S
C1273 N1275 1.384 . S
N1274 C1270 1.427 . S
N1274 C1271 1.384 . S
N1275 C1267 1.427 . S
N1275 C1273 1.384 . S
H1276 C1282 0.930 . S
H1277 C1286 0.930 . S
H1278 C1291 0.929 . S
H1279 C1289 0.929 . S
H1280 C1284 0.929 . S
H1281 C1290 0.929 . S
C1282 H1276 0.930 . S
C1282 C1283 1.367 . S
C1282 C1290 1.378 . S
C1283 C1282 1.367 . S
C1283 C1291 1.433 . S
C1284 H1280 0.929 . S
C1284 C1286 1.378 . S
C1284 C1288 1.350 . S
C1285 C1288 1.463 1_556 S
C1285 C1290 1.350 . S
C1285 N1293 1.427 . S
C1286 H1277 0.930 . S
C1286 C1284 1.378 . S
C1286 C1287 1.367 . S
C1287 C1286 1.367 . S
C1287 C1289 1.433 . S
C1288 C1284 1.350 . S
C1288 C1285 1.463 1_554 S
C1288 N1292 1.427 . S
C1289 H1279 0.929 . S
C1289 C1287 1.433 . S
C1289 N1292 1.384 . S
C1290 H1281 0.929 . S
C1290 C1282 1.378 . S
C1290 C1285 1.350 . S
C1291 H1278 0.929 . S
C1291 C1283 1.433 . S
C1291 N1293 1.384 . S
N1292 C1288 1.427 . S
N1292 C1289 1.384 . S
N1293 C1285 1.427 . S
N1293 C1291 1.384 . S
H1294 C1300 0.930 . S
H1295 C1304 0.930 . S
H1296 C1309 0.929 . S
H1297 C1307 0.929 . S
H1298 C1302 0.929 . S
H1299 C1308 0.929 . S
C1300 H1294 0.930 . S
C1300 C1301 1.367 . S
C1300 C1308 1.378 . S
C1301 C1300 1.367 . S
C1301 C1309 1.433 . S
C1302 H1298 0.929 . S
C1302 C1304 1.378 . S
C1302 C1306 1.350 . S
C1303 C1306 1.463 . S
C1303 C1308 1.350 . S
C1303 N1311 1.427 . S
C1304 H1295 0.930 . S
C1304 C1302 1.378 . S
C1304 C1305 1.367 . S
C1305 C1304 1.367 . S
C1305 C1307 1.433 . S
C1306 C1302 1.350 . S
C1306 C1303 1.463 . S
C1306 N1310 1.427 . S
C1307 H1297 0.929 . S
C1307 C1305 1.433 . S
C1307 N1310 1.384 . S
C1308 H1299 0.929 . S
C1308 C1300 1.378 . S
C1308 C1303 1.350 . S
C1309 H1296 0.929 . S
C1309 C1301 1.433 . S
C1309 N1311 1.384 . S
N1310 C1306 1.427 . S
N1310 C1307 1.384 . S
N1311 C1303 1.427 . S
N1311 C1309 1.384 . S
H1312 C1318 0.930 . S
H1313 C1322 0.930 . S
H1314 C1327 0.929 . S
H1315 C1325 0.929 . S
H1316 C1320 0.929 . S
H1317 C1326 0.929 . S
C1318 H1312 0.930 . S
C1318 C1319 1.367 . S
C1318 C1326 1.378 . S
C1319 C1318 1.367 . S
C1319 C1327 1.433 . S
C1320 H1316 0.929 . S
C1320 C1322 1.378 . S
C1320 C1324 1.350 . S
C1321 C1324 1.463 . S
C1321 C1326 1.350 . S
C1321 N1329 1.427 . S
C1322 H1313 0.930 . S
C1322 C1320 1.378 . S
C1322 C1323 1.367 . S
C1323 C1322 1.367 . S
C1323 C1325 1.433 . S
C1324 C1320 1.350 . S
C1324 C1321 1.463 . S
C1324 N1328 1.427 . S
C1325 H1315 0.929 . S
C1325 C1323 1.433 . S
C1325 N1328 1.384 . S
C1326 H1317 0.929 . S
C1326 C1318 1.378 . S
C1326 C1321 1.350 . S
C1327 H1314 0.929 . S
C1327 C1319 1.433 . S
C1327 N1329 1.384 . S
N1328 C1324 1.427 . S
N1328 C1325 1.384 . S
N1329 C1321 1.427 . S
N1329 C1327 1.384 . S
H1330 C1336 0.930 . S
H1331 C1340 0.930 . S
H1332 C1345 0.929 . S
H1333 C1343 0.929 . S
H1334 C1338 0.929 . S
H1335 C1344 0.929 . S
C1336 H1330 0.930 . S
C1336 C1337 1.367 . S
C1336 C1344 1.378 . S
C1337 C1336 1.367 . S
C1337 C1345 1.433 . S
C1338 H1334 0.929 . S
C1338 C1340 1.378 . S
C1338 C1342 1.350 . S
C1339 C1342 1.463 . S
C1339 C1344 1.350 . S
C1339 N1347 1.427 . S
C1340 H1331 0.930 . S
C1340 C1338 1.378 . S
C1340 C1341 1.367 . S
C1341 C1340 1.367 . S
C1341 C1343 1.433 . S
C1342 C1338 1.350 . S
C1342 C1339 1.463 . S
C1342 N1346 1.427 . S
C1343 H1333 0.929 . S
C1343 C1341 1.433 . S
C1343 N1346 1.384 . S
C1344 H1335 0.929 . S
C1344 C1336 1.378 . S
C1344 C1339 1.350 . S
C1345 H1332 0.929 . S
C1345 C1337 1.433 . S
C1345 N1347 1.384 . S
N1346 C1342 1.427 . S
N1346 C1343 1.384 . S
N1347 C1339 1.427 . S
N1347 C1345 1.384 . S
H1348 C1354 0.930 . S
H1349 C1358 0.930 . S
H1350 C1363 0.929 . S
H1351 C1361 0.929 . S
H1352 C1356 0.929 . S
H1353 C1362 0.929 . S
C1354 H1348 0.930 . S
C1354 C1355 1.367 . S
C1354 C1362 1.378 . S
C1355 C1354 1.367 . S
C1355 C1363 1.433 . S
C1356 H1352 0.929 . S
C1356 C1358 1.378 . S
C1356 C1360 1.350 . S
C1357 C1360 1.463 . S
C1357 C1362 1.350 . S
C1357 N1365 1.427 . S
C1358 H1349 0.930 . S
C1358 C1356 1.378 . S
C1358 C1359 1.367 . S
C1359 C1358 1.367 . S
C1359 C1361 1.433 . S
C1360 C1356 1.350 . S
C1360 C1357 1.463 . S
C1360 N1364 1.427 . S
C1361 H1351 0.929 . S
C1361 C1359 1.433 . S
C1361 N1364 1.384 . S
C1362 H1353 0.929 . S
C1362 C1354 1.378 . S
C1362 C1357 1.350 . S
C1363 H1350 0.929 . S
C1363 C1355 1.433 . S
C1363 N1365 1.384 . S
N1364 C1360 1.427 . S
N1364 C1361 1.384 . S
N1365 C1357 1.427 . S
N1365 C1363 1.384 . S
H1366 C1372 0.930 . S
H1367 C1376 0.930 . S
H1368 C1381 0.929 . S
H1369 C1379 0.929 . S
H1370 C1374 0.929 . S
H1371 C1380 0.929 . S
C1372 H1366 0.930 . S
C1372 C1373 1.367 . S
C1372 C1380 1.378 . S
C1373 C1372 1.367 . S
C1373 C1381 1.433 . S
C1374 H1370 0.929 . S
C1374 C1376 1.378 . S
C1374 C1378 1.350 . S
C1375 C1378 1.463 . S
C1375 C1380 1.350 . S
C1375 N1383 1.427 . S
C1376 H1367 0.930 . S
C1376 C1374 1.378 . S
C1376 C1377 1.367 . S
C1377 C1376 1.367 . S
C1377 C1379 1.433 . S
C1378 C1374 1.350 . S
C1378 C1375 1.463 . S
C1378 N1382 1.427 . S
C1379 H1369 0.929 . S
C1379 C1377 1.433 . S
C1379 N1382 1.384 . S
C1380 H1371 0.929 . S
C1380 C1372 1.378 . S
C1380 C1375 1.350 . S
C1381 H1368 0.929 . S
C1381 C1373 1.433 . S
C1381 N1383 1.384 . S
N1382 C1378 1.427 . S
N1382 C1379 1.384 . S
N1383 C1375 1.427 . S
N1383 C1381 1.384 . S
H1384 C1390 0.930 . S
H1385 C1394 0.930 . S
H1386 C1399 0.929 . S
H1387 C1397 0.929 . S
H1388 C1392 0.929 . S
H1389 C1398 0.929 . S
C1390 H1384 0.930 . S
C1390 C1391 1.367 . S
C1390 C1398 1.378 . S
C1391 C1390 1.367 . S
C1391 C1399 1.433 . S
C1392 H1388 0.929 . S
C1392 C1394 1.378 . S
C1392 C1396 1.350 . S
C1393 C1396 1.463 . S
C1393 C1398 1.350 . S
C1393 N1401 1.427 . S
C1394 H1385 0.930 . S
C1394 C1392 1.378 . S
C1394 C1395 1.367 . S
C1395 C1394 1.367 . S
C1395 C1397 1.433 . S
C1396 C1392 1.350 . S
C1396 C1393 1.463 . S
C1396 N1400 1.427 . S
C1397 H1387 0.929 . S
C1397 C1395 1.433 . S
C1397 N1400 1.384 . S
C1398 H1389 0.929 . S
C1398 C1390 1.378 . S
C1398 C1393 1.350 . S
C1399 H1386 0.929 . S
C1399 C1391 1.433 . S
C1399 N1401 1.384 . S
N1400 C1396 1.427 . S
N1400 C1397 1.384 . S
N1401 C1393 1.427 . S
N1401 C1399 1.384 . S
H1402 C1408 0.930 . S
H1403 C1412 0.930 . S
H1404 C1417 0.929 . S
H1405 C1415 0.929 . S
H1406 C1410 0.929 . S
H1407 C1416 0.929 . S
C1408 H1402 0.930 . S
C1408 C1409 1.367 . S
C1408 C1416 1.378 . S
C1409 C1408 1.367 . S
C1409 C1417 1.433 . S
C1410 H1406 0.929 . S
C1410 C1412 1.378 . S
C1410 C1414 1.350 . S
C1411 C1414 1.463 . S
C1411 C1416 1.350 . S
C1411 N1419 1.427 . S
C1412 H1403 0.930 . S
C1412 C1410 1.378 . S
C1412 C1413 1.367 . S
C1413 C1412 1.367 . S
C1413 C1415 1.433 . S
C1414 C1410 1.350 . S
C1414 C1411 1.463 . S
C1414 N1418 1.427 . S
C1415 H1405 0.929 . S
C1415 C1413 1.433 . S
C1415 N1418 1.384 . S
C1416 H1407 0.929 . S
C1416 C1408 1.378 . S
C1416 C1411 1.350 . S
C1417 H1404 0.929 . S
C1417 C1409 1.433 . S
C1417 N1419 1.384 . S
N1418 C1414 1.427 . S
N1418 C1415 1.384 . S
N1419 C1411 1.427 . S
N1419 C1417 1.384 . S
H1420 C1426 0.930 . S
H1421 C1430 0.930 . S
H1422 C1435 0.929 . S
H1423 C1433 0.929 . S
H1424 C1428 0.929 . S
H1425 C1434 0.929 . S
C1426 H1420 0.930 . S
C1426 C1427 1.367 . S
C1426 C1434 1.378 . S
C1427 C1426 1.367 . S
C1427 C1435 1.433 . S
C1428 H1424 0.929 . S
C1428 C1430 1.378 . S
C1428 C1432 1.350 . S
C1429 C1432 1.463 . S
C1429 C1434 1.350 . S
C1429 N1437 1.427 . S
C1430 H1421 0.930 . S
C1430 C1428 1.378 . S
C1430 C1431 1.367 . S
C1431 C1430 1.367 . S
C1431 C1433 1.433 . S
C1432 C1428 1.350 . S
C1432 C1429 1.463 . S
C1432 N1436 1.427 . S
C1433 H1423 0.929 . S
C1433 C1431 1.433 . S
C1433 N1436 1.384 . S
C1434 H1425 0.929 . S
C1434 C1426 1.378 . S
C1434 C1429 1.350 . S
C1435 H1422 0.929 . S
C1435 C1427 1.433 . S
C1435 N1437 1.384 . S
N1436 C1432 1.427 . S
N1436 C1433 1.384 . S
N1437 C1429 1.427 . S
N1437 C1435 1.384 . S
H1438 C1444 0.930 . S
H1439 C1448 0.930 . S
H1440 C1453 0.929 . S
H1441 C1451 0.929 . S
H1442 C1446 0.929 . S
H1443 C1452 0.929 . S
C1444 H1438 0.930 . S
C1444 C1445 1.367 . S
C1444 C1452 1.378 . S
C1445 C1444 1.367 . S
C1445 C1453 1.433 . S
C1446 H1442 0.929 . S
C1446 C1448 1.378 . S
C1446 C1450 1.350 . S
C1447 C1450 1.463 . S
C1447 C1452 1.350 . S
C1447 N1455 1.427 . S
C1448 H1439 0.930 . S
C1448 C1446 1.378 . S
C1448 C1449 1.367 . S
C1449 C1448 1.367 . S
C1449 C1451 1.433 . S
C1450 C1446 1.350 . S
C1450 C1447 1.463 . S
C1450 N1454 1.427 . S
C1451 H1441 0.929 . S
C1451 C1449 1.433 . S
C1451 N1454 1.384 . S
C1452 H1443 0.929 . S
C1452 C1444 1.378 . S
C1452 C1447 1.350 . S
C1453 H1440 0.929 . S
C1453 C1445 1.433 . S
C1453 N1455 1.384 . S
N1454 C1450 1.427 . S
N1454 C1451 1.384 . S
N1455 C1447 1.427 . S
N1455 C1453 1.384 . S
H1456 C1462 0.930 . S
H1457 C1466 0.930 . S
H1458 C1471 0.929 . S
H1459 C1469 0.929 . S
H1460 C1464 0.929 . S
H1461 C1470 0.929 . S
C1462 H1456 0.930 . S
C1462 C1463 1.367 . S
C1462 C1470 1.378 . S
C1463 C1462 1.367 . S
C1463 C1471 1.433 . S
C1464 H1460 0.929 . S
C1464 C1466 1.378 . S
C1464 C1468 1.350 . S
C1465 C1468 1.463 . S
C1465 C1470 1.350 . S
C1465 N1473 1.427 . S
C1466 H1457 0.930 . S
C1466 C1464 1.378 . S
C1466 C1467 1.367 . S
C1467 C1466 1.367 . S
C1467 C1469 1.433 . S
C1468 C1464 1.350 . S
C1468 C1465 1.463 . S
C1468 N1472 1.427 . S
C1469 H1459 0.929 . S
C1469 C1467 1.433 . S
C1469 N1472 1.384 . S
C1470 H1461 0.929 . S
C1470 C1462 1.378 . S
C1470 C1465 1.350 . S
C1471 H1458 0.929 . S
C1471 C1463 1.433 . S
C1471 N1473 1.384 . S
N1472 C1468 1.427 . S
N1472 C1469 1.384 . S
N1473 C1465 1.427 . S
N1473 C1471 1.384 . S
H1474 C1480 0.930 . S
H1475 C1484 0.930 . S
H1476 C1489 0.929 . S
H1477 C1487 0.929 . S
H1478 C1482 0.929 . S
H1479 C1488 0.929 . S
C1480 H1474 0.930 . S
C1480 C1481 1.367 . S
C1480 C1488 1.378 . S
C1481 C1480 1.367 . S
C1481 C1489 1.433 . S
C1482 H1478 0.929 . S
C1482 C1484 1.378 . S
C1482 C1486 1.350 . S
C1483 C1486 1.463 . S
C1483 C1488 1.350 . S
C1483 N1491 1.427 . S
C1484 H1475 0.930 . S
C1484 C1482 1.378 . S
C1484 C1485 1.367 . S
C1485 C1484 1.367 . S
C1485 C1487 1.433 . S
C1486 C1482 1.350 . S
C1486 C1483 1.463 . S
C1486 N1490 1.427 . S
C1487 H1477 0.929 . S
C1487 C1485 1.433 . S
C1487 N1490 1.384 . S
C1488 H1479 0.929 . S
C1488 C1480 1.378 . S
C1488 C1483 1.350 . S
C1489 H1476 0.929 . S
C1489 C1481 1.433 . S
C1489 N1491 1.384 . S
N1490 C1486 1.427 . S
N1490 C1487 1.384 . S
N1491 C1483 1.427 . S
N1491 C1489 1.384 . S
H1492 C1498 0.930 . S
H1493 C1502 0.930 . S
H1494 C1507 0.929 . S
H1495 C1505 0.929 . S
H1496 C1500 0.929 . S
H1497 C1506 0.929 . S
C1498 H1492 0.930 . S
C1498 C1499 1.367 . S
C1498 C1506 1.378 . S
C1499 C1498 1.367 . S
C1499 C1507 1.433 . S
C1500 H1496 0.929 . S
C1500 C1502 1.378 . S
C1500 C1504 1.350 . S
C1501 C1504 1.463 . S
C1501 C1506 1.350 . S
C1501 N1509 1.427 . S
C1502 H1493 0.930 . S
C1502 C1500 1.378 . S
C1502 C1503 1.367 . S
C1503 C1502 1.367 . S
C1503 C1505 1.433 . S
C1504 C1500 1.350 . S
C1504 C1501 1.463 . S
C1504 N1508 1.427 . S
C1505 H1495 0.929 . S
C1505 C1503 1.433 . S
C1505 N1508 1.384 . S
C1506 H1497 0.929 . S
C1506 C1498 1.378 . S
C1506 C1501 1.350 . S
C1507 H1494 0.929 . S
C1507 C1499 1.433 . S
C1507 N1509 1.384 . S
N1508 C1504 1.427 . S
N1508 C1505 1.384 . S
N1509 C1501 1.427 . S
N1509 C1507 1.384 . S
H1510 C1516 0.930 . S
H1511 C1520 0.930 . S
H1512 C1525 0.929 . S
H1513 C1523 0.929 . S
H1514 C1518 0.929 . S
H1515 C1524 0.929 . S
C1516 H1510 0.930 . S
C1516 C1517 1.367 . S
C1516 C1524 1.378 . S
C1517 C1516 1.367 . S
C1517 C1525 1.433 . S
C1518 H1514 0.929 . S
C1518 C1520 1.378 . S
C1518 C1522 1.350 . S
C1519 C1522 1.463 . S
C1519 C1524 1.350 . S
C1519 N1527 1.427 . S
C1520 H1511 0.930 . S
C1520 C1518 1.378 . S
C1520 C1521 1.367 . S
C1521 C1520 1.367 . S
C1521 C1523 1.433 . S
C1522 C1518 1.350 . S
C1522 C1519 1.463 . S
C1522 N1526 1.427 . S
C1523 H1513 0.929 . S
C1523 C1521 1.433 . S
C1523 N1526 1.384 . S
C1524 H1515 0.929 . S
C1524 C1516 1.378 . S
C1524 C1519 1.350 . S
C1525 H1512 0.929 . S
C1525 C1517 1.433 . S
C1525 N1527 1.384 . S
N1526 C1522 1.427 . S
N1526 C1523 1.384 . S
N1527 C1519 1.427 . S
N1527 C1525 1.384 . S
H1528 C1534 0.930 . S
H1529 C1538 0.930 . S
H1530 C1543 0.929 . S
H1531 C1541 0.929 . S
H1532 C1536 0.929 . S
H1533 C1542 0.929 . S
C1534 H1528 0.930 . S
C1534 C1535 1.367 . S
C1534 C1542 1.378 . S
C1535 C1534 1.367 . S
C1535 C1543 1.433 . S
C1536 H1532 0.929 . S
C1536 C1538 1.378 . S
C1536 C1540 1.350 . S
C1537 C1540 1.463 . S
C1537 C1542 1.350 . S
C1537 N1545 1.427 . S
C1538 H1529 0.930 . S
C1538 C1536 1.378 . S
C1538 C1539 1.367 . S
C1539 C1538 1.367 . S
C1539 C1541 1.433 . S
C1540 C1536 1.350 . S
C1540 C1537 1.463 . S
C1540 N1544 1.427 . S
C1541 H1531 0.929 . S
C1541 C1539 1.433 . S
C1541 N1544 1.384 . S
C1542 H1533 0.929 . S
C1542 C1534 1.378 . S
C1542 C1537 1.350 . S
C1543 H1530 0.929 . S
C1543 C1535 1.433 . S
C1543 N1545 1.384 . S
N1544 C1540 1.427 . S
N1544 C1541 1.384 . S
N1545 C1537 1.427 . S
N1545 C1543 1.384 . S
H1546 C1552 0.930 . S
H1547 C1556 0.930 . S
H1548 C1561 0.929 . S
H1549 C1559 0.929 . S
H1550 C1554 0.929 . S
H1551 C1560 0.929 . S
C1552 H1546 0.930 . S
C1552 C1553 1.367 . S
C1552 C1560 1.378 . S
C1553 C1552 1.367 . S
C1553 C1561 1.433 . S
C1554 H1550 0.929 . S
C1554 C1556 1.378 . S
C1554 C1558 1.350 . S
C1555 C1558 1.463 . S
C1555 C1560 1.350 . S
C1555 N1563 1.427 . S
C1556 H1547 0.930 . S
C1556 C1554 1.378 . S
C1556 C1557 1.367 . S
C1557 C1556 1.367 . S
C1557 C1559 1.433 . S
C1558 C1554 1.350 . S
C1558 C1555 1.463 . S
C1558 N1562 1.427 . S
C1559 H1549 0.929 . S
C1559 C1557 1.433 . S
C1559 N1562 1.384 . S
C1560 H1551 0.929 . S
C1560 C1552 1.378 . S
C1560 C1555 1.350 . S
C1561 H1548 0.929 . S
C1561 C1553 1.433 . S
C1561 N1563 1.384 . S
N1562 C1558 1.427 . S
N1562 C1559 1.384 . S
N1563 C1555 1.427 . S
N1563 C1561 1.384 . S
H1564 C1570 0.930 . S
H1565 C1574 0.930 . S
H1566 C1579 0.929 . S
H1567 C1577 0.929 . S
H1568 C1572 0.929 . S
H1569 C1578 0.929 . S
C1570 H1564 0.930 . S
C1570 C1571 1.367 . S
C1570 C1578 1.378 . S
C1571 C1570 1.367 . S
C1571 C1579 1.433 . S
C1572 H1568 0.929 . S
C1572 C1574 1.378 . S
C1572 C1576 1.350 . S
C1573 C1576 1.463 . S
C1573 C1578 1.350 . S
C1573 N1581 1.427 . S
C1574 H1565 0.930 . S
C1574 C1572 1.378 . S
C1574 C1575 1.367 . S
C1575 C1574 1.367 . S
C1575 C1577 1.433 . S
C1576 C1572 1.350 . S
C1576 C1573 1.463 . S
C1576 N1580 1.427 . S
C1577 H1567 0.929 . S
C1577 C1575 1.433 . S
C1577 N1580 1.384 . S
C1578 H1569 0.929 . S
C1578 C1570 1.378 . S
C1578 C1573 1.350 . S
C1579 H1566 0.929 . S
C1579 C1571 1.433 . S
C1579 N1581 1.384 . S
N1580 C1576 1.427 . S
N1580 C1577 1.384 . S
N1581 C1573 1.427 . S
N1581 C1579 1.384 . S
H1582 C1588 0.930 . S
H1583 C1592 0.930 . S
H1584 C1597 0.929 . S
H1585 C1595 0.929 . S
H1586 C1590 0.929 . S
H1587 C1596 0.929 . S
C1588 H1582 0.930 . S
C1588 C1589 1.367 . S
C1588 C1596 1.378 . S
C1589 C1588 1.367 . S
C1589 C1597 1.433 . S
C1590 H1586 0.929 . S
C1590 C1592 1.378 . S
C1590 C1594 1.350 . S
C1591 C1594 1.463 . S
C1591 C1596 1.350 . S
C1591 N1599 1.427 . S
C1592 H1583 0.930 . S
C1592 C1590 1.378 . S
C1592 C1593 1.367 . S
C1593 C1592 1.367 . S
C1593 C1595 1.433 . S
C1594 C1590 1.350 . S
C1594 C1591 1.463 . S
C1594 N1598 1.427 . S
C1595 H1585 0.929 . S
C1595 C1593 1.433 . S
C1595 N1598 1.384 . S
C1596 H1587 0.929 . S
C1596 C1588 1.378 . S
C1596 C1591 1.350 . S
C1597 H1584 0.929 . S
C1597 C1589 1.433 . S
C1597 N1599 1.384 . S
N1598 C1594 1.427 . S
N1598 C1595 1.384 . S
N1599 C1591 1.427 . S
N1599 C1597 1.384 . S
C455 C125 1.492 . S
C459 C13 1.492 . S
C473 C363 1.478 . S
C477 C27 1.478 . S
C491 C153 1.476 . S
C495 C41 1.476 . S
C509 C391 1.476 . S
C513 C55 1.476 . S
C527 C181 1.476 . S
C531 C69 1.476 . S
C545 C83 1.478 . S
C549 C419 1.478 . S
C563 C97 1.493 . S
C567 C209 1.493 . S
C581 C111 1.495 . S
C585 C447 1.495 . S
C599 C251 1.490 . S
C603 C139 1.490 . S
C617 C279 1.482 . S
C621 C167 1.482 . S
C635 C195 1.479 . S
C639 C307 1.479 . S
C653 C223 1.478 . S
C657 C335 1.478 . S
C671 C237 1.481 . S
C675 C349 1.481 . S
C689 C377 1.494 . S
C693 C265 1.494 . S
C707 C293 1.494 . S
C711 C405 1.494 . S
C725 C433 1.494 . S
C729 C321 1.494 . S
C743 C260 1.266 . S
C747 C8 1.268 . S
C761 C274 1.275 . S
C765 C22 1.276 . S
C779 C36 1.273 . S
C783 C232 1.274 . S
C797 C50 1.266 . S
C801 C246 1.267 . S
C815 C316 1.269 . S
C819 C64 1.270 . S
C833 C78 1.268 . S
C837 C330 1.270 . S
C851 C288 1.278 . S
C855 C92 1.278 . S
C869 C302 1.278 . S
C873 C106 1.278 . S
C887 C120 1.269 . S
C891 C372 1.268 . S
C905 C386 1.264 . S
C909 C134 1.265 . S
C923 C148 1.272 . S
C927 C344 1.271 . S
C941 C162 1.268 . S
C945 C358 1.267 . S
C959 C176 1.277 . S
C963 C428 1.278 . S
C977 C190 1.275 . S
C981 C442 1.276 . S
C995 C400 1.270 . S
C999 C204 1.272 . S
C1013 C414 1.272 . S
C1017 C218 1.273 . S
C1031 C95 1.335 . S
C1035 C11 1.335 . S
C1049 C109 1.335 . S
C1053 C25 1.335 . S
C1067 C67 1.340 . S
C1071 C39 1.340 . S
C1085 C53 1.335 . S
C1089 C81 1.335 . S
C1103 C207 1.335 . S
C1107 C123 1.335 . S
C1121 C221 1.343 . S
C1125 C137 1.343 . S
C1139 C179 1.340 . S
C1143 C151 1.340 . S
C1157 C193 1.343 . S
C1161 C165 1.343 . S
C1175 C319 1.335 . S
C1179 C235 1.335 . S
C1193 C333 1.336 . S
C1197 C249 1.336 . S
C1211 C263 1.341 . S
C1215 C291 1.340 . S
C1229 C277 1.342 . S
C1233 C305 1.342 . S
C1247 C431 1.337 . S
C1251 C347 1.336 . S
C1265 C445 1.343 . S
C1269 C361 1.343 . S
C1283 C375 1.339 . S
C1287 C403 1.338 . S
C1301 C389 1.336 . S
C1305 C417 1.336 . S
C1319 C7 1.491 . S
C1323 C301 1.492 . S
C1337 C315 1.488 . S
C1341 C21 1.492 . S
C1355 C329 1.492 . S
C1359 C35 1.488 . S
C1373 C49 1.491 . S
C1377 C287 1.492 . S
C1391 C273 1.488 . S
C1395 C63 1.491 . S
C1409 C77 1.491 . S
C1413 C231 1.488 . S
C1427 C245 1.492 . S
C1431 C91 1.489 . S
C1445 C105 1.492 . S
C1449 C259 1.488 . S
C1463 C413 1.488 . S
C1467 C119 1.489 . S
C1481 C427 1.488 . S
C1485 C133 1.489 . S
C1499 C147 1.491 . S
C1503 C441 1.491 . S
C1517 C399 1.492 . S
C1521 C161 1.488 . S
C1535 C385 1.490 . S
C1539 C175 1.492 . S
C1553 C189 1.492 . S
C1557 C343 1.491 . S
C1571 C357 1.488 . S
C1575 C203 1.489 . S
C1589 C217 1.489 . S
C1593 C371 1.489 . S
