# Generated by pormake.
# Topology yfc, (5)-cn, num edge types: 1
# Building blocks:
#     Node 0, Type 0, BuildingBlock: XOMCOT_clean_sbu_0, # of connection points: 5
#     Node 1, Type 0, BuildingBlock: XOMCOT_clean_sbu_0, # of connection points: 5
#     Node 2, Type 0, BuildingBlock: XOMCOT_clean_sbu_0, # of connection points: 5
#     Node 3, Type 0, BuildingBlock: XOMCOT_clean_sbu_0, # of connection points: 5
#     Node 4, Type 0, BuildingBlock: XOMCOT_clean_sbu_0, # of connection points: 5
#     Node 5, Type 0, BuildingBlock: XOMCOT_clean_sbu_0, # of connection points: 5
#     Node 6, Type 0, BuildingBlock: XOMCOT_clean_sbu_0, # of connection points: 5
#     Node 7, Type 0, BuildingBlock: XOMCOT_clean_sbu_0, # of connection points: 5
#     Node 8, Type 0, BuildingBlock: XOMCOT_clean_sbu_0, # of connection points: 5
#     Node 9, Type 0, BuildingBlock: XOMCOT_clean_sbu_0, # of connection points: 5
#     Node 10, Type 0, BuildingBlock: XOMCOT_clean_sbu_0, # of connection points: 5
#     Node 11, Type 0, BuildingBlock: XOMCOT_clean_sbu_0, # of connection points: 5
#     Node 12, Type 0, BuildingBlock: XOMCOT_clean_sbu_0, # of connection points: 5
#     Node 13, Type 0, BuildingBlock: XOMCOT_clean_sbu_0, # of connection points: 5
#     Node 14, Type 0, BuildingBlock: XOMCOT_clean_sbu_0, # of connection points: 5
#     Node 15, Type 0, BuildingBlock: XOMCOT_clean_sbu_0, # of connection points: 5
#     Edge 16, Type (0, 0), BuildingBlock: TEMPAE_clean_linker_10, # of connection points: 2
#     Edge 17, Type (0, 0), BuildingBlock: TEMPAE_clean_linker_10, # of connection points: 2
#     Edge 18, Type (0, 0), BuildingBlock: TEMPAE_clean_linker_10, # of connection points: 2
#     Edge 19, Type (0, 0), BuildingBlock: TEMPAE_clean_linker_10, # of connection points: 2
#     Edge 20, Type (0, 0), BuildingBlock: TEMPAE_clean_linker_10, # of connection points: 2
#     Edge 21, Type (0, 0), BuildingBlock: TEMPAE_clean_linker_10, # of connection points: 2
#     Edge 22, Type (0, 0), BuildingBlock: TEMPAE_clean_linker_10, # of connection points: 2
#     Edge 23, Type (0, 0), BuildingBlock: TEMPAE_clean_linker_10, # of connection points: 2
#     Edge 24, Type (0, 0), BuildingBlock: TEMPAE_clean_linker_10, # of connection points: 2
#     Edge 25, Type (0, 0), BuildingBlock: TEMPAE_clean_linker_10, # of connection points: 2
#     Edge 26, Type (0, 0), BuildingBlock: TEMPAE_clean_linker_10, # of connection points: 2
#     Edge 27, Type (0, 0), BuildingBlock: TEMPAE_clean_linker_10, # of connection points: 2
#     Edge 28, Type (0, 0), BuildingBlock: TEMPAE_clean_linker_10, # of connection points: 2
#     Edge 29, Type (0, 0), BuildingBlock: TEMPAE_clean_linker_10, # of connection points: 2
#     Edge 30, Type (0, 0), BuildingBlock: TEMPAE_clean_linker_10, # of connection points: 2
#     Edge 31, Type (0, 0), BuildingBlock: TEMPAE_clean_linker_10, # of connection points: 2
#     Edge 32, Type (0, 0), BuildingBlock: TEMPAE_clean_linker_10, # of connection points: 2
#     Edge 33, Type (0, 0), BuildingBlock: TEMPAE_clean_linker_10, # of connection points: 2
#     Edge 34, Type (0, 0), BuildingBlock: TEMPAE_clean_linker_10, # of connection points: 2
#     Edge 35, Type (0, 0), BuildingBlock: TEMPAE_clean_linker_10, # of connection points: 2
#     Edge 36, Type (0, 0), BuildingBlock: TEMPAE_clean_linker_10, # of connection points: 2
#     Edge 37, Type (0, 0), BuildingBlock: TEMPAE_clean_linker_10, # of connection points: 2
#     Edge 38, Type (0, 0), BuildingBlock: TEMPAE_clean_linker_10, # of connection points: 2
#     Edge 39, Type (0, 0), BuildingBlock: TEMPAE_clean_linker_10, # of connection points: 2
#     Edge 40, Type (0, 0), BuildingBlock: TEMPAE_clean_linker_10, # of connection points: 2
#     Edge 41, Type (0, 0), BuildingBlock: TEMPAE_clean_linker_10, # of connection points: 2
#     Edge 42, Type (0, 0), BuildingBlock: TEMPAE_clean_linker_10, # of connection points: 2
#     Edge 43, Type (0, 0), BuildingBlock: TEMPAE_clean_linker_10, # of connection points: 2
#     Edge 44, Type (0, 0), BuildingBlock: TEMPAE_clean_linker_10, # of connection points: 2
#     Edge 45, Type (0, 0), BuildingBlock: TEMPAE_clean_linker_10, # of connection points: 2
#     Edge 46, Type (0, 0), BuildingBlock: TEMPAE_clean_linker_10, # of connection points: 2
#     Edge 47, Type (0, 0), BuildingBlock: TEMPAE_clean_linker_10, # of connection points: 2
#     Edge 48, Type (0, 0), BuildingBlock: TEMPAE_clean_linker_10, # of connection points: 2
#     Edge 49, Type (0, 0), BuildingBlock: TEMPAE_clean_linker_10, # of connection points: 2
#     Edge 50, Type (0, 0), BuildingBlock: TEMPAE_clean_linker_10, # of connection points: 2
#     Edge 51, Type (0, 0), BuildingBlock: TEMPAE_clean_linker_10, # of connection points: 2
#     Edge 52, Type (0, 0), BuildingBlock: TEMPAE_clean_linker_10, # of connection points: 2
#     Edge 53, Type (0, 0), BuildingBlock: TEMPAE_clean_linker_10, # of connection points: 2
#     Edge 54, Type (0, 0), BuildingBlock: TEMPAE_clean_linker_10, # of connection points: 2
#     Edge 55, Type (0, 0), BuildingBlock: TEMPAE_clean_linker_10, # of connection points: 2
# Relax obj value: 0.558
# Max RMSD: 0.288
# Mean RMSD: 0.268
data_MOF--net-yfc--node1-XOMCOT_clean_sbu_0--edge1-TEMPAE_clean_linker_10
_symmetry_space_group_name_H-M    P1
_symmetry_Int_Tables_number       1
_symmetry_cell_setting            triclinic
loop_
_symmetry_equiv_pos_as_xyz
'x, y, z'
_cell_length_a     41.098054
_cell_length_b     41.072211
_cell_length_c     49.118927
_cell_angle_alpha  90.000962
_cell_angle_beta   90.000607
_cell_angle_gamma 90.088
loop_
_atom_site_label
_atom_site_type_symbol
_atom_site_fract_x
_atom_site_fract_y
_atom_site_fract_z
_atom_type_partial_charge
Co0 Co 0.75751 0.03675 0.20122 0.0
C1 C 0.7642 0.10688 0.21414 0.0
C2 C 0.79501 0.09209 0.18105 0.0
C3 C 0.80123 0.12418 0.18677 0.0
N4 N 0.77166 0.08135 0.19803 0.0
N5 N 0.78202 0.13354 0.20767 0.0
H6 H 0.74671 0.10564 0.23057 0.0
H7 H 0.80713 0.07741 0.16587 0.0
C8 C 0.68359 0.04291 0.20032 0.0
O9 O 0.68033 0.01913 0.18262 0.0
N10 N 0.74411 0.99159 0.20475 0.0
C11 C 0.7582 0.96532 0.19324 0.0
C12 C 0.74126 0.93789 0.20065 0.0
C13 C 0.71973 0.97941 0.22017 0.0
N14 N 0.7169 0.94681 0.21739 0.0
C15 C 0.77502 0.01886 0.14674 0.0
C16 C 0.72809 0.05495 0.12023 0.0
C17 C 0.75012 0.03672 0.10463 0.0
C18 C 0.77405 0.01884 0.11836 0.0
C19 C 0.73019 0.05457 0.14866 0.0
N20 N 0.75245 0.0354 0.1617 0.0
H21 H 0.79507 0.00679 0.15655 0.0
H22 H 0.71458 0.07073 0.15994 0.0
H23 H 0.77982 0.96547 0.18089 0.0
H24 H 0.70408 0.99409 0.2329 0.0
O25 O 0.80285 0.02428 0.20436 0.0
O26 O 0.77038 0.03705 0.2387 0.0
O27 O 0.71179 0.05242 0.20783 0.0
C28 C 0.79953 0.03009 0.2303 0.0
H29 H 0.81828 0.13953 0.17594 0.0
H30 H 0.7468 0.91319 0.19456 0.0
H31 H 0.70956 0.06975 0.11066 0.0
H32 H 0.79274 0.0058 0.10731 0.0
Co33 Co 0.45845 0.72118 0.70602 0.0
C34 C 0.39403 0.72695 0.67938 0.0
C35 C 0.39458 0.69185 0.71185 0.0
C36 C 0.36445 0.69131 0.69998 0.0
N37 N 0.41316 0.71386 0.69876 0.0
N38 N 0.36417 0.71324 0.67955 0.0
H39 H 0.40167 0.74605 0.6656 0.0
H40 H 0.40233 0.67733 0.72903 0.0
C41 C 0.48058 0.64869 0.71166 0.0
O42 O 0.51085 0.65149 0.70344 0.0
N43 N 0.50405 0.72783 0.71405 0.0
C44 C 0.52531 0.74849 0.70219 0.0
C45 C 0.55564 0.74357 0.71328 0.0
C46 C 0.52144 0.71184 0.73304 0.0
N47 N 0.55317 0.7203 0.73251 0.0
C48 C 0.47216 0.745 0.65274 0.0
C49 C 0.46444 0.68702 0.625 0.0
C50 C 0.46914 0.71579 0.61019 0.0
C51 C 0.47351 0.74491 0.62445 0.0
C52 C 0.46306 0.68819 0.65348 0.0
N53 N 0.46726 0.71695 0.66713 0.0
H54 H 0.47353 0.76818 0.66291 0.0
H55 H 0.45663 0.66619 0.66409 0.0
H56 H 0.51971 0.76581 0.68642 0.0
H57 H 0.51136 0.69315 0.74608 0.0
O58 O 0.45105 0.76762 0.70774 0.0
O59 O 0.44722 0.73395 0.74279 0.0
O60 O 0.46152 0.6731 0.71283 0.0
C61 C 0.4442 0.76338 0.73331 0.0
H62 H 0.34381 0.67695 0.70666 0.0
H63 H 0.57792 0.75565 0.70721 0.0
H64 H 0.46016 0.66413 0.61464 0.0
H65 H 0.47709 0.76772 0.61377 0.0
Co66 Co 0.74913 0.46432 0.20247 0.0
C67 C 0.75047 0.39286 0.21082 0.0
C68 C 0.71071 0.408 0.18542 0.0
C69 C 0.70928 0.3748 0.18834 0.0
N70 N 0.73665 0.41924 0.19931 0.0
N71 N 0.73432 0.36531 0.20422 0.0
H72 H 0.77208 0.3937 0.22334 0.0
H73 H 0.69388 0.42296 0.17406 0.0
C74 C 0.82368 0.4624 0.20241 0.0
O75 O 0.82687 0.48876 0.18749 0.0
N76 N 0.76085 0.50984 0.20576 0.0
C77 C 0.748 0.53511 0.19198 0.0
C78 C 0.76277 0.56335 0.2005 0.0
C79 C 0.7824 0.52326 0.22324 0.0
N80 N 0.78464 0.55588 0.21998 0.0
C81 C 0.72536 0.47826 0.14882 0.0
C82 C 0.77601 0.45059 0.12014 0.0
C83 C 0.74953 0.46326 0.10551 0.0
C84 C 0.72392 0.47713 0.12041 0.0
C85 C 0.77616 0.45163 0.1486 0.0
N86 N 0.75152 0.46626 0.16271 0.0
H87 H 0.70468 0.48787 0.15967 0.0
H88 H 0.79564 0.43935 0.15895 0.0
H89 H 0.72891 0.5336 0.17701 0.0
H90 H 0.79674 0.50927 0.23751 0.0
O91 O 0.70356 0.47504 0.20824 0.0
O92 O 0.73906 0.46296 0.24052 0.0
O93 O 0.79564 0.45033 0.20724 0.0
C94 C 0.70914 0.46913 0.23391 0.0
H95 H 0.69111 0.35885 0.17954 0.0
H96 H 0.75752 0.58756 0.19303 0.0
H97 H 0.79643 0.43948 0.1098 0.0
H98 H 0.70229 0.48615 0.11037 0.0
Co99 Co 0.04665 0.78436 0.7007 0.0
C100 C 0.1162 0.77418 0.68674 0.0
C101 C 0.1091 0.80408 0.72219 0.0
C102 C 0.14185 0.80074 0.71798 0.0
N103 N 0.09312 0.78747 0.70268 0.0
N104 N 0.1462 0.782 0.69576 0.0
H105 H 0.11131 0.75848 0.66953 0.0
H106 H 0.09762 0.81745 0.73855 0.0
C107 C 0.02893 0.85813 0.70506 0.0
O108 O 0.99946 0.85709 0.69479 0.0
N109 N 0.99976 0.78197 0.69968 0.0
C110 C 0.98035 0.76716 0.68131 0.0
C111 C 0.94847 0.77428 0.68744 0.0
C112 C 0.97945 0.79661 0.71732 0.0
N113 N 0.94802 0.79308 0.70994 0.0
C114 C 0.04794 0.76038 0.64622 0.0
C115 C 0.05662 0.8189 0.61955 0.0
C116 C 0.05536 0.79008 0.60427 0.0
C117 C 0.05098 0.76062 0.61802 0.0
C118 C 0.05379 0.81757 0.64799 0.0
N119 N 0.04881 0.78854 0.66104 0.0
H120 H 0.0447 0.73715 0.65604 0.0
H121 H 0.05645 0.83992 0.65914 0.0
H122 H 0.9884 0.75277 0.66425 0.0
H123 H 0.98774 0.81148 0.73415 0.0
O124 O 0.0492 0.73746 0.70369 0.0
O125 O 0.04652 0.77123 0.73865 0.0
O126 O 0.04651 0.83268 0.70703 0.0
C127 C 0.04994 0.74154 0.72988 0.0
H128 H 0.16105 0.81111 0.73035 0.0
H129 H 0.92734 0.76695 0.67579 0.0
H130 H 0.06054 0.84215 0.60967 0.0
H131 H 0.0496 0.73779 0.60703 0.0
Co132 Co 0.73994 0.46398 0.80268 0.0
C133 C 0.76954 0.39771 0.80542 0.0
C134 C 0.73355 0.40285 0.77402 0.0
C135 C 0.74712 0.37258 0.77184 0.0
N136 N 0.74732 0.41855 0.79514 0.0
N137 N 0.76983 0.36934 0.79147 0.0
H138 H 0.78569 0.40326 0.82213 0.0
H139 H 0.71552 0.41312 0.76055 0.0
C140 C 0.66468 0.46893 0.80028 0.0
O141 O 0.66205 0.49536 0.81515 0.0
N142 N 0.73241 0.5096 0.80923 0.0
C143 C 0.74063 0.52755 0.83114 0.0
C144 C 0.72801 0.55837 0.82798 0.0
C145 C 0.71595 0.52986 0.79273 0.0
N146 N 0.71218 0.55963 0.80392 0.0
C147 C 0.76775 0.45367 0.85538 0.0
C148 C 0.71073 0.45114 0.88494 0.0
C149 C 0.74043 0.45103 0.89909 0.0
C150 C 0.76917 0.45127 0.88369 0.0
C151 C 0.71039 0.45277 0.85646 0.0
N152 N 0.73867 0.45518 0.84193 0.0
H153 H 0.7904 0.45508 0.84439 0.0
H154 H 0.68717 0.45272 0.84661 0.0
H155 H 0.75394 0.5188 0.84862 0.0
H156 H 0.7058 0.52236 0.77339 0.0
O157 O 0.7861 0.4722 0.7983 0.0
O158 O 0.74993 0.47286 0.76505 0.0
O159 O 0.69212 0.45495 0.79671 0.0
C160 C 0.78032 0.47381 0.77229 0.0
H161 H 0.7403 0.35411 0.75718 0.0
H162 H 0.72905 0.57776 0.84287 0.0
H163 H 0.68774 0.451 0.89569 0.0
H164 H 0.79281 0.45007 0.89336 0.0
Co165 Co 0.03658 0.75209 0.30497 0.0
C166 C 0.10731 0.76138 0.31337 0.0
C167 C 0.09137 0.7866 0.27769 0.0
C168 C 0.12442 0.78981 0.27963 0.0
N169 N 0.0803 0.76906 0.29898 0.0
N170 N 0.13458 0.77404 0.30208 0.0
H171 H 0.10704 0.74593 0.33119 0.0
H172 H 0.07726 0.79495 0.26073 0.0
C173 C 0.04727 0.67799 0.30455 0.0
O174 O 0.01776 0.67086 0.31278 0.0
N175 N 0.99315 0.73516 0.3107 0.0
C176 C 0.973 0.74122 0.33176 0.0
C177 C 0.9441 0.725 0.3274 0.0
C178 C 0.97574 0.71666 0.2933 0.0
N179 N 0.94604 0.7093 0.30334 0.0
C180 C 0.04887 0.78586 0.35432 0.0
C181 C 0.04567 0.73307 0.38912 0.0
C182 C 0.05078 0.76422 0.40012 0.0
C183 C 0.05262 0.79077 0.38225 0.0
C184 C 0.0421 0.72921 0.36098 0.0
N185 N 0.04349 0.75549 0.34401 0.0
H186 H 0.05014 0.8066 0.34083 0.0
H187 H 0.03737 0.70525 0.35311 0.0
H188 H 0.97878 0.7563 0.34914 0.0
H189 H 0.98502 0.70809 0.27397 0.0
O190 O 0.01772 0.79461 0.29838 0.0
O191 O 0.02683 0.75748 0.26673 0.0
O192 O 0.05705 0.70746 0.30278 0.0
C193 C 0.01673 0.78667 0.27272 0.0
H194 H 0.13996 0.8011 0.26455 0.0
H195 H 0.9236 0.72418 0.34122 0.0
H196 H 0.04434 0.71183 0.40214 0.0
H197 H 0.05617 0.8153 0.38979 0.0
Co198 Co 0.76137 0.04477 0.80218 0.0
C199 C 0.76917 0.11542 0.81278 0.0
C200 C 0.7214 0.10471 0.79769 0.0
C201 C 0.72363 0.1375 0.80203 0.0
N202 N 0.75016 0.09071 0.80394 0.0
N203 N 0.75362 0.14436 0.81163 0.0
H204 H 0.79361 0.11223 0.82039 0.0
H205 H 0.69978 0.09238 0.79072 0.0
C206 C 0.83649 0.04438 0.79894 0.0
O207 O 0.83934 0.01317 0.80407 0.0
N208 N 0.77141 0.99892 0.80065 0.0
C209 C 0.76124 0.97594 0.81831 0.0
C210 C 0.7722 0.94611 0.80959 0.0
C211 C 0.78697 0.98262 0.78073 0.0
N212 N 0.78864 0.95042 0.7861 0.0
C213 C 0.73347 0.05285 0.85466 0.0
C214 C 0.7866 0.03315 0.8849 0.0
C215 C 0.75818 0.04271 0.89862 0.0
C216 C 0.73144 0.05281 0.88301 0.0
C217 C 0.78774 0.034 0.85647 0.0
N218 N 0.76136 0.04373 0.84172 0.0
H219 H 0.71254 0.06042 0.84296 0.0
H220 H 0.80954 0.026 0.84648 0.0
H221 H 0.74695 0.98049 0.8364 0.0
H222 H 0.79764 0.99428 0.76309 0.0
O223 O 0.71626 0.03363 0.79514 0.0
O224 O 0.75306 0.045 0.76363 0.0
O225 O 0.80876 0.0585 0.79991 0.0
C226 C 0.72295 0.0382 0.76944 0.0
H227 H 0.7046 0.15495 0.79777 0.0
H228 H 0.76928 0.92322 0.82024 0.0
H229 H 0.80767 0.02448 0.89596 0.0
H230 H 0.70913 0.06092 0.89255 0.0
Co231 Co 0.46653 0.74858 0.30991 0.0
C232 C 0.39479 0.74228 0.31475 0.0
C233 C 0.41614 0.69742 0.30151 0.0
C234 C 0.38304 0.69322 0.30301 0.0
N235 N 0.42361 0.72845 0.30838 0.0
N236 N 0.36976 0.72142 0.31129 0.0
H237 H 0.39195 0.76709 0.32158 0.0
H238 H 0.43327 0.67865 0.29606 0.0
C239 C 0.45385 0.82225 0.30975 0.0
O240 O 0.48387 0.82985 0.3162 0.0
N241 N 0.50968 0.76745 0.31165 0.0
C242 C 0.53216 0.76206 0.33112 0.0
C243 C 0.56019 0.77845 0.32441 0.0
C244 C 0.5249 0.78579 0.29271 0.0
N245 N 0.55553 0.79358 0.30036 0.0
C246 C 0.46274 0.71441 0.36003 0.0
C247 C 0.46655 0.76772 0.39425 0.0
C248 C 0.46452 0.73646 0.40563 0.0
C249 C 0.46235 0.70962 0.38814 0.0
C250 C 0.46654 0.77147 0.36597 0.0
N251 N 0.46493 0.74495 0.34927 0.0
H252 H 0.46152 0.69346 0.34679 0.0
H253 H 0.46872 0.79559 0.35771 0.0
H254 H 0.52867 0.74707 0.34898 0.0
H255 H 0.51351 0.79375 0.27399 0.0
O256 O 0.48665 0.70725 0.30088 0.0
O257 O 0.47038 0.74424 0.2711 0.0
O258 O 0.44422 0.79261 0.30951 0.0
C259 C 0.48246 0.71548 0.27546 0.0
H260 H 0.36972 0.67109 0.29859 0.0
H261 H 0.58206 0.77967 0.33664 0.0
H262 H 0.46806 0.78911 0.40709 0.0
H263 H 0.46105 0.68505 0.39609 0.0
Co264 Co 0.27287 0.96376 0.84998 0.0
C265 C 0.3085 0.01719 0.82205 0.0
C266 C 0.31723 0.01802 0.86496 0.0
C267 C 0.33673 0.04119 0.85277 0.0
N268 N 0.29875 0.00342 0.84578 0.0
N269 N 0.33135 0.04053 0.8257 0.0
H270 H 0.30067 0.00902 0.80226 0.0
H271 H 0.31831 0.01096 0.88612 0.0
C272 C 0.25696 0.9976 0.90312 0.0
O273 O 0.24968 0.02428 0.88968 0.0
N274 N 0.24803 0.92374 0.8532 0.0
C275 C 0.22398 0.91457 0.83613 0.0
C276 C 0.21625 0.8827 0.84098 0.0
C277 C 0.25511 0.89682 0.86789 0.0
N278 N 0.2361 0.87132 0.86061 0.0
C279 C 0.22917 0.99563 0.81316 0.0
C280 C 0.17432 0.98693 0.84481 0.0
C281 C 0.17045 0.99243 0.81682 0.0
C282 C 0.1984 0.99902 0.80138 0.0
C283 C 0.20553 0.98342 0.85576 0.0
N284 N 0.23262 0.98613 0.83965 0.0
H285 H 0.2498 0.99631 0.79978 0.0
H286 H 0.20732 0.97405 0.8762 0.0
H287 H 0.21411 0.9292 0.81986 0.0
H288 H 0.27544 0.89518 0.88183 0.0
O289 O 0.28693 0.94895 0.81442 0.0
O290 O 0.31276 0.93933 0.85322 0.0
O291 O 0.26619 0.97215 0.89028 0.0
C292 C 0.31109 0.93506 0.82702 0.0
H293 H 0.35498 0.05584 0.8629 0.0
H294 H 0.19865 0.86843 0.8297 0.0
H295 H 0.15345 0.98195 0.85763 0.0
H296 H 0.19685 0.00292 0.77961 0.0
Co297 Co 0.53873 0.27333 0.3468 0.0
C298 C 0.48908 0.31804 0.32392 0.0
C299 C 0.46779 0.28378 0.35152 0.0
C300 C 0.44317 0.30055 0.33848 0.0
N301 N 0.49668 0.29465 0.34228 0.0
N302 N 0.45661 0.32194 0.32083 0.0
H303 H 0.5069 0.33091 0.31196 0.0
H304 H 0.4647 0.26341 0.36524 0.0
C305 C 0.5401 0.24188 0.40299 0.0
O306 O 0.56485 0.22397 0.39534 0.0
N307 N 0.58121 0.2524 0.34955 0.0
C308 C 0.59235 0.2287 0.33289 0.0
C309 C 0.62424 0.22235 0.33889 0.0
C310 C 0.60758 0.26164 0.36428 0.0
N311 N 0.63375 0.24292 0.35861 0.0
C312 C 0.51101 0.23701 0.30376 0.0
C313 C 0.52375 0.1762 0.32505 0.0
C314 C 0.52064 0.17957 0.29664 0.0
C315 C 0.51052 0.20994 0.28664 0.0
C316 C 0.52263 0.20389 0.34169 0.0
N317 N 0.52022 0.23415 0.33033 0.0
H318 H 0.5074 0.26079 0.29487 0.0
H319 H 0.52779 0.20091 0.36291 0.0
H320 H 0.5791 0.218 0.31617 0.0
H321 H 0.60775 0.28178 0.37849 0.0
O322 O 0.55498 0.29337 0.31401 0.0
O323 O 0.55864 0.31489 0.35538 0.0
O324 O 0.52576 0.26054 0.38574 0.0
C325 C 0.56512 0.317 0.32949 0.0
H326 H 0.41742 0.29568 0.34062 0.0
H327 H 0.63997 0.20539 0.32832 0.0
H328 H 0.53061 0.15328 0.33423 0.0
H329 H 0.50554 0.21359 0.26521 0.0
Co330 Co 0.22199 0.54514 0.84818 0.0
C331 C 0.18836 0.49149 0.81878 0.0
C332 C 0.18048 0.48821 0.86173 0.0
C333 C 0.16188 0.46473 0.84902 0.0
N334 N 0.19789 0.50456 0.84285 0.0
N335 N 0.16671 0.46694 0.82194 0.0
H336 H 0.19548 0.50092 0.79916 0.0
H337 H 0.17938 0.49423 0.88311 0.0
C338 C 0.23981 0.50997 0.90016 0.0
O339 O 0.24837 0.48441 0.88575 0.0
N340 N 0.24506 0.58589 0.85258 0.0
C341 C 0.26711 0.59767 0.83481 0.0
C342 C 0.27639 0.62814 0.843 0.0
C343 C 0.24052 0.60981 0.87105 0.0
N344 N 0.25969 0.63592 0.86571 0.0
C345 C 0.26757 0.51565 0.8112 0.0
C346 C 0.32155 0.52741 0.84328 0.0
C347 C 0.32606 0.52122 0.8155 0.0
C348 C 0.29871 0.51334 0.79977 0.0
C349 C 0.29011 0.52955 0.85388 0.0
N350 N 0.26337 0.52514 0.83763 0.0
H351 H 0.24707 0.5137 0.79773 0.0
H352 H 0.28758 0.53907 0.87423 0.0
H353 H 0.27496 0.58548 0.81645 0.0
H354 H 0.22279 0.60861 0.88731 0.0
O355 O 0.20755 0.56057 0.81293 0.0
O356 O 0.18106 0.56778 0.85178 0.0
O357 O 0.22894 0.53542 0.88825 0.0
C358 C 0.18271 0.57297 0.8257 0.0
H359 H 0.14448 0.44878 0.85884 0.0
H360 H 0.29254 0.64426 0.83194 0.0
H361 H 0.34202 0.53376 0.85614 0.0
H362 H 0.301 0.50897 0.77811 0.0
Co363 Co 0.96805 0.22405 0.34245 0.0
C364 C 0.02912 0.19542 0.32172 0.0
C365 C 0.02364 0.18655 0.3643 0.0
C366 C 0.04889 0.16759 0.35465 0.0
N367 N 0.01143 0.20461 0.34369 0.0
N368 N 0.05226 0.17342 0.32782 0.0
H369 H 0.02255 0.20068 0.30096 0.0
H370 H 0.01296 0.1847 0.38436 0.0
C371 C 0.99361 0.24816 0.39617 0.0
O372 O 0.02117 0.25533 0.38399 0.0
N373 N 0.92452 0.24189 0.33988 0.0
C374 C 0.91343 0.25782 0.31773 0.0
C375 C 0.88053 0.26207 0.32011 0.0
C376 C 0.89797 0.23638 0.35549 0.0
N377 N 0.87079 0.24854 0.34371 0.0
C378 C 0.99889 0.26954 0.30607 0.0
C379 C 0.97133 0.3236 0.3301 0.0
C380 C 0.98195 0.32582 0.30297 0.0
C381 C 0.99857 0.29906 0.29204 0.0
C382 C 0.97336 0.29386 0.34393 0.0
N383 N 0.98476 0.26658 0.3311 0.0
H384 H 0.00677 0.24859 0.295 0.0
H385 H 0.96115 0.29192 0.36332 0.0
H386 H 0.92806 0.26442 0.30027 0.0
H387 H 0.89818 0.22208 0.374 0.0
O388 O 0.96101 0.20453 0.3071 0.0
O389 O 0.95008 0.18099 0.34681 0.0
O390 O 0.96999 0.23618 0.38246 0.0
C391 C 0.94991 0.17942 0.32037 0.0
H392 H 0.06215 0.14934 0.36601 0.0
H393 H 0.86467 0.27316 0.30514 0.0
H394 H 0.95819 0.34335 0.33966 0.0
H395 H 0.00823 0.29975 0.27153 0.0
Co396 Co 0.30538 0.54585 0.15437 0.0
C397 C 0.33041 0.48672 0.18156 0.0
C398 C 0.33384 0.48181 0.13833 0.0
C399 C 0.34846 0.45512 0.15034 0.0
N400 N 0.32167 0.50135 0.15796 0.0
N401 N 0.34646 0.4585 0.17757 0.0
H402 H 0.32717 0.49737 0.20142 0.0
H403 H 0.33415 0.48739 0.11684 0.0
C404 C 0.27582 0.51466 0.10455 0.0
O405 O 0.26437 0.49124 0.12009 0.0
N406 N 0.28976 0.59031 0.15237 0.0
C407 C 0.27889 0.60622 0.17457 0.0
C408 C 0.26688 0.63575 0.1669 0.0
C409 C 0.28443 0.61079 0.13119 0.0
N410 N 0.27006 0.63871 0.13971 0.0
C411 C 0.26031 0.52704 0.19585 0.0
C412 C 0.20542 0.54712 0.16826 0.0
C413 C 0.2037 0.5435 0.19665 0.0
C414 C 0.23132 0.53162 0.21014 0.0
C415 C 0.23514 0.54307 0.15484 0.0
N416 N 0.26257 0.53413 0.16875 0.0
H417 H 0.2817 0.52191 0.20759 0.0
H418 H 0.23655 0.55087 0.13392 0.0
H419 H 0.27895 0.5966 0.19506 0.0
H420 H 0.29005 0.60516 0.11019 0.0
O421 O 0.32651 0.55703 0.18813 0.0
O422 O 0.34947 0.56064 0.14742 0.0
O423 O 0.29204 0.53807 0.11514 0.0
C424 C 0.3517 0.56502 0.17361 0.0
H425 H 0.36148 0.43593 0.1399 0.0
H426 H 0.2566 0.6539 0.18037 0.0
H427 H 0.1847 0.55561 0.15668 0.0
H428 H 0.23178 0.52894 0.23205 0.0
Co429 Co 0.96128 0.28834 0.65657 0.0
C430 C 0.01156 0.32995 0.68241 0.0
C431 C 0.02653 0.31518 0.64249 0.0
C432 C 0.05118 0.33335 0.65414 0.0
N433 N 0.00158 0.31307 0.66024 0.0
N434 N 0.04168 0.34265 0.67926 0.0
H435 H 0.9976 0.33206 0.70097 0.0
H436 H 0.02726 0.30393 0.62261 0.0
C437 C 0.96025 0.25698 0.60039 0.0
O438 O 0.93866 0.23566 0.60881 0.0
N439 N 0.9206 0.26369 0.65458 0.0
C440 C 0.91321 0.23724 0.66977 0.0
C441 C 0.88093 0.23002 0.66697 0.0
C442 C 0.89192 0.27251 0.64304 0.0
N443 N 0.86742 0.25226 0.65042 0.0
C444 C 0.98733 0.25058 0.69967 0.0
C445 C 0.99066 0.19249 0.67168 0.0
C446 C 0.98746 0.1917 0.70018 0.0
C447 C 0.98889 0.22144 0.7142 0.0
C448 C 0.98893 0.22234 0.65793 0.0
N449 N 0.98352 0.25049 0.67205 0.0
H450 H 0.98517 0.27294 0.71104 0.0
H451 H 0.98911 0.22199 0.6361 0.0
H452 H 0.92918 0.22492 0.68367 0.0
H453 H 0.88856 0.29433 0.63103 0.0
O454 O 0.94467 0.30708 0.68989 0.0
O455 O 0.93811 0.32841 0.64885 0.0
O456 O 0.97303 0.27732 0.61714 0.0
C457 C 0.93277 0.33025 0.67491 0.0
H458 H 0.07431 0.33921 0.64481 0.0
H459 H 0.86794 0.21084 0.67753 0.0
H460 H 0.99149 0.17017 0.65996 0.0
H461 H 0.98724 0.22248 0.73618 0.0
Co462 Co 0.19385 0.95492 0.15704 0.0
C463 C 0.17541 0.01781 0.18214 0.0
C464 C 0.16177 0.0157 0.14015 0.0
C465 C 0.14757 0.04281 0.15175 0.0
N466 N 0.17949 1.00002 0.15919 0.0
N467 N 0.15621 0.04399 0.1782 0.0
H468 H 0.18303 0.01017 0.20208 0.0
H469 H 0.15723 0.00662 0.11983 0.0
C470 C 0.22391 0.9858 0.10766 0.0
O471 O 0.23372 0.00989 0.12325 0.0
N472 N 0.20754 0.90976 0.15618 0.0
C473 C 0.21411 0.89289 0.17905 0.0
C474 C 0.22645 0.8632 0.1722 0.0
C475 C 0.21609 0.88978 0.1354 0.0
N476 N 0.22806 0.86116 0.14485 0.0
C477 C 0.23811 0.96925 0.2003 0.0
C478 C 0.29377 0.9519 0.17252 0.0
C479 C 0.295 0.95392 0.20104 0.0
C480 C 0.26692 0.96419 0.21471 0.0
C481 C 0.26429 0.95684 0.15886 0.0
N482 N 0.23653 0.96479 0.17275 0.0
H483 H 0.21641 0.97257 0.21214 0.0
H484 H 0.26345 0.95066 0.13756 0.0
H485 H 0.21107 0.90193 0.19956 0.0
H486 H 0.21467 0.89632 0.11409 0.0
O487 O 0.17042 0.9459 0.19017 0.0
O488 O 0.1494 0.94189 0.14882 0.0
O489 O 0.209 0.96148 0.11816 0.0
C490 C 0.14566 0.93847 0.17497 0.0
H491 H 0.13071 0.05926 0.14191 0.0
H492 H 0.23381 0.84441 0.18638 0.0
H493 H 0.31482 0.94423 0.16093 0.0
H494 H 0.26607 0.96521 0.23672 0.0
Co495 Co 0.53517 0.22287 0.66236 0.0
C496 C 0.48532 0.17886 0.68614 0.0
C497 C 0.46758 0.20168 0.64985 0.0
C498 C 0.44283 0.18328 0.66112 0.0
N499 N 0.49434 0.19887 0.66554 0.0
N500 N 0.45404 0.16898 0.68402 0.0
H501 H 0.50074 0.17288 0.70323 0.0
H502 H 0.46559 0.21686 0.63196 0.0
C503 C 0.53647 0.25606 0.60672 0.0
O504 O 0.55916 0.27606 0.61533 0.0
N505 N 0.57632 0.24646 0.66095 0.0
C506 C 0.58562 0.26968 0.67879 0.0
C507 C 0.61707 0.27854 0.67349 0.0
C508 C 0.60327 0.24029 0.64589 0.0
N509 N 0.62822 0.26029 0.65272 0.0
C510 C 0.50682 0.25773 0.70617 0.0
C511 C 0.51288 0.31882 0.68332 0.0
C512 C 0.51157 0.31611 0.71184 0.0
C513 C 0.50518 0.28521 0.72286 0.0
C514 C 0.51341 0.29063 0.66726 0.0
N515 N 0.51412 0.26057 0.67916 0.0
H516 H 0.50578 0.23403 0.71563 0.0
H517 H 0.51664 0.29349 0.64578 0.0
H518 H 0.57133 0.27856 0.69562 0.0
H519 H 0.60456 0.22162 0.63037 0.0
O520 O 0.55173 0.20245 0.695 0.0
O521 O 0.5576 0.18283 0.65325 0.0
O522 O 0.52297 0.23596 0.62333 0.0
C523 C 0.56338 0.17989 0.67919 0.0
H524 H 0.41835 0.18108 0.65322 0.0
H525 H 0.63128 0.29588 0.68511 0.0
H526 H 0.51689 0.34207 0.6735 0.0
H527 H 0.50211 0.28185 0.74457 0.0
C528 C 0.67821 0.93274 0.25405 0.0
C529 C 0.69226 0.92583 0.22871 0.0
C530 C 0.65476 0.91188 0.26544 0.0
C531 C 0.64504 0.88363 0.25101 0.0
C532 C 0.65861 0.87696 0.22515 0.0
C533 C 0.68209 0.89809 0.21436 0.0
C534 C 0.64094 0.91967 0.29316 0.0
C535 C 0.64864 0.84726 0.20902 0.0
C536 C 0.61151 0.81202 0.29091 0.0
C537 C 0.57789 0.81541 0.28698 0.0
C538 C 0.63357 0.83414 0.2794 0.0
C539 C 0.62175 0.86023 0.26342 0.0
C540 C 0.58788 0.86361 0.25905 0.0
C541 C 0.56633 0.84116 0.27091 0.0
C542 C 0.66955 0.82964 0.28445 0.0
C543 C 0.5744 0.89109 0.24204 0.0
H544 H 0.68612 0.95403 0.26526 0.0
H545 H 0.69237 0.89302 0.19451 0.0
H546 H 0.61399 0.92058 0.29218 0.0
H547 H 0.64752 0.90013 0.30775 0.0
H548 H 0.65003 0.94327 0.3012 0.0
H549 H 0.66058 0.84628 0.18874 0.0
H550 H 0.65505 0.82488 0.22045 0.0
H551 H 0.62188 0.84704 0.20605 0.0
H552 H 0.62064 0.79194 0.30296 0.0
H553 H 0.54038 0.84425 0.26813 0.0
H554 H 0.67978 0.85173 0.29425 0.0
H555 H 0.68246 0.82632 0.26481 0.0
H556 H 0.67472 0.8083 0.29765 0.0
H557 H 0.58153 0.91484 0.25102 0.0
H558 H 0.54745 0.89017 0.24047 0.0
H559 H 0.58484 0.89014 0.22123 0.0
C560 C 0.69711 0.61786 0.80232 0.0
C561 C 0.69168 0.58557 0.79413 0.0
C562 C 0.67629 0.64301 0.79392 0.0
C563 C 0.64959 0.63566 0.7768 0.0
C564 C 0.64415 0.60321 0.76826 0.0
C565 C 0.66514 0.57859 0.77712 0.0
C566 C 0.68269 0.67736 0.8035 0.0
C567 C 0.61592 0.59439 0.74994 0.0
C568 C 0.57448 0.68845 0.77106 0.0
C569 C 0.57937 0.70327 0.74569 0.0
C570 C 0.59808 0.6678 0.78229 0.0
C571 C 0.62709 0.66167 0.76763 0.0
C572 C 0.63291 0.67792 0.7427 0.0
C573 C 0.609 0.69863 0.73207 0.0
C574 C 0.5912 0.65122 0.80911 0.0
C575 C 0.6634 0.67177 0.72634 0.0
H576 H 0.71768 0.62349 0.81527 0.0
H577 H 0.66021 0.5537 0.77116 0.0
H578 H 0.68629 0.69366 0.78574 0.0
H579 H 0.66129 0.68659 0.81489 0.0
H580 H 0.70446 0.679 0.81684 0.0
H581 H 0.61556 0.56809 0.74465 0.0
H582 H 0.59261 0.60057 0.76007 0.0
H583 H 0.61717 0.60871 0.73081 0.0
H584 H 0.55178 0.69236 0.78178 0.0
H585 H 0.61278 0.7097 0.71232 0.0
H586 H 0.61245 0.65344 0.82292 0.0
H587 H 0.5869 0.62488 0.80561 0.0
H588 H 0.56949 0.66154 0.81944 0.0
H589 H 0.68529 0.67401 0.73942 0.0
H590 H 0.66584 0.68889 0.70894 0.0
H591 H 0.66291 0.64655 0.71825 0.0
C592 C 0.88922 0.69106 0.29727 0.0
C593 C 0.9225 0.68716 0.29187 0.0
C594 C 0.86612 0.66935 0.28655 0.0
C595 C 0.87657 0.64309 0.27008 0.0
C596 C 0.91015 0.63884 0.26475 0.0
C597 C 0.93268 0.66094 0.27569 0.0
C598 C 0.83051 0.67475 0.29257 0.0
C599 C 0.92227 0.61105 0.24737 0.0
C600 C 0.81998 0.57097 0.25879 0.0
C601 C 0.80716 0.57794 0.23298 0.0
C602 C 0.84246 0.59204 0.27125 0.0
C603 C 0.85233 0.62074 0.25755 0.0
C604 C 0.83938 0.62798 0.23157 0.0
C605 C 0.81705 0.6065 0.21961 0.0
C606 C 0.85575 0.58355 0.29901 0.0
C607 C 0.84941 0.65827 0.21624 0.0
H608 H 0.8812 0.71139 0.30958 0.0
H609 H 0.95838 0.65736 0.2719 0.0
H610 H 0.81713 0.67929 0.27332 0.0
H611 H 0.81983 0.65261 0.30196 0.0
H612 H 0.82647 0.6957 0.30647 0.0
H613 H 0.94923 0.61066 0.24579 0.0
H614 H 0.91397 0.58748 0.25597 0.0
H615 H 0.91193 0.613 0.22657 0.0
H616 H 0.81226 0.54916 0.26938 0.0
H617 H 0.80783 0.61182 0.19946 0.0
H618 H 0.85029 0.6034 0.31362 0.0
H619 H 0.88261 0.58118 0.298 0.0
H620 H 0.84543 0.56046 0.30704 0.0
H621 H 0.84435 0.68021 0.2287 0.0
H622 H 0.83652 0.66071 0.19647 0.0
H623 H 0.87598 0.65777 0.21229 0.0
C624 C 0.89589 0.82172 0.70351 0.0
C625 C 0.92087 0.81099 0.72078 0.0
C626 C 0.87162 0.84282 0.71301 0.0
C627 C 0.87238 0.85334 0.74042 0.0
C628 C 0.89665 0.84142 0.75826 0.0
C629 C 0.92062 0.82038 0.7482 0.0
C630 C 0.84614 0.85507 0.69339 0.0
C631 C 0.89807 0.8519 0.78771 0.0
C632 C 0.83699 0.93538 0.75932 0.0
C633 C 0.80788 0.92637 0.77218 0.0
C634 C 0.85781 0.91184 0.74827 0.0
C635 C 0.84923 0.87852 0.75006 0.0
C636 C 0.81935 0.86932 0.76214 0.0
C637 C 0.79904 0.8934 0.7731 0.0
C638 C 0.88954 0.92259 0.73557 0.0
C639 C 0.80933 0.83403 0.76423 0.0
H640 H 0.89615 0.8149 0.68222 0.0
H641 H 0.93963 0.81178 0.76166 0.0
H642 H 0.82145 0.85202 0.70217 0.0
H643 H 0.84985 0.88147 0.68975 0.0
H644 H 0.84709 0.84223 0.6735 0.0
H645 H 0.91712 0.83867 0.79931 0.0
H646 H 0.90331 0.87838 0.78887 0.0
H647 H 0.87423 0.84774 0.79771 0.0
H648 H 0.8442 0.96074 0.75888 0.0
H649 H 0.77637 0.88641 0.78273 0.0
H650 H 0.89171 0.91267 0.71464 0.0
H651 H 0.91024 0.91287 0.74756 0.0
H652 H 0.89183 0.94953 0.73461 0.0
H653 H 0.8102 0.82232 0.74389 0.0
H654 H 0.78444 0.83111 0.77271 0.0
H655 H 0.82667 0.82078 0.77752 0.0
C656 C 0.36205 0.08938 0.81079 0.0
C657 C 0.34861 0.05872 0.80491 0.0
C658 C 0.3791 0.10726 0.79091 0.0
C659 C 0.38293 0.09426 0.76437 0.0
C660 C 0.36945 0.06335 0.75827 0.0
C661 C 0.35252 0.046 0.77854 0.0
C662 C 0.39301 0.14013 0.79831 0.0
C663 C 0.37307 0.04847 0.73033 0.0
C664 C 0.40216 0.15295 0.70623 0.0
C665 C 0.436 0.14944 0.70345 0.0
C666 C 0.3846 0.13504 0.72578 0.0
C667 C 0.40116 0.11295 0.74307 0.0
C668 C 0.43522 0.10898 0.74015 0.0
C669 C 0.45216 0.12719 0.72043 0.0
C670 C 0.34834 0.14006 0.72819 0.0
C671 C 0.45386 0.0856 0.75801 0.0
H672 H 0.35892 0.09961 0.83093 0.0
H673 H 0.34285 0.02215 0.77379 0.0
H674 H 0.41974 0.14015 0.79514 0.0
H675 H 0.38266 0.15915 0.78482 0.0
H676 H 0.38793 0.14686 0.8198 0.0
H677 H 0.36094 0.02436 0.72873 0.0
H678 H 0.36253 0.06494 0.71476 0.0
H679 H 0.39924 0.04548 0.72538 0.0
H680 H 0.38941 0.17028 0.69353 0.0
H681 H 0.47815 0.12383 0.71822 0.0
H682 H 0.34231 0.14923 0.74882 0.0
H683 H 0.33544 0.11653 0.72553 0.0
H684 H 0.33894 0.15762 0.7129 0.0
H685 H 0.4511 0.09265 0.77969 0.0
H686 H 0.48021 0.08501 0.75298 0.0
H687 H 0.44381 0.06066 0.75581 0.0
C688 C 0.4571 0.35366 0.27766 0.0
C689 C 0.44014 0.34164 0.30047 0.0
C690 C 0.44153 0.3725 0.25765 0.0
C691 C 0.4079 0.37924 0.26001 0.0
C692 C 0.39046 0.36706 0.28272 0.0
C693 C 0.40677 0.34865 0.30271 0.0
C694 C 0.4612 0.38525 0.23394 0.0
C695 C 0.35452 0.37352 0.28593 0.0
C696 C 0.3748 0.45279 0.22174 0.0
C697 C 0.36165 0.43852 0.1982 0.0
C698 C 0.38969 0.43381 0.24201 0.0
C699 C 0.39126 0.39957 0.23891 0.0
C700 C 0.37785 0.38496 0.21526 0.0
C701 C 0.36345 0.40463 0.19511 0.0
C702 C 0.40419 0.4505 0.26659 0.0
C703 C 0.37871 0.34854 0.21126 0.0
H704 H 0.48259 0.34813 0.27501 0.0
H705 H 0.39329 0.33994 0.32018 0.0
H706 H 0.45121 0.37564 0.21455 0.0
H707 H 0.45948 0.41219 0.23304 0.0
H708 H 0.48729 0.3784 0.2353 0.0
H709 H 0.34418 0.36151 0.30426 0.0
H710 H 0.35016 0.40011 0.28747 0.0
H711 H 0.34119 0.3647 0.26771 0.0
H712 H 0.37408 0.479 0.22406 0.0
H713 H 0.35313 0.3935 0.17707 0.0
H714 H 0.43068 0.44545 0.26763 0.0
H715 H 0.39309 0.44074 0.28549 0.0
H716 H 0.40058 0.4773 0.26613 0.0
H717 H 0.4043 0.34002 0.21059 0.0
H718 H 0.36634 0.34087 0.1922 0.0
H719 H 0.36682 0.3362 0.22873 0.0
C720 C 0.09421 0.35983 0.69961 0.0
C721 C 0.06007 0.36119 0.6991 0.0
C722 C 0.11229 0.37708 0.71925 0.0
C723 C 0.09594 0.39641 0.73884 0.0
C724 C 0.06151 0.39818 0.73824 0.0
C725 C 0.04405 0.38054 0.71848 0.0
C726 C 0.14891 0.37431 0.71925 0.0
C727 C 0.04307 0.4187 0.75853 0.0
C728 C 0.13869 0.41722 0.80562 0.0
C729 C 0.14962 0.44911 0.80087 0.0
C730 C 0.12149 0.39974 0.78559 0.0
C731 C 0.11478 0.41451 0.76013 0.0
C732 C 0.1258 0.44667 0.75516 0.0
C733 C 0.14312 0.46352 0.77551 0.0
C734 C 0.11042 0.36545 0.79171 0.0
C735 C 0.11896 0.46347 0.72843 0.0
H736 H 0.10681 0.3447 0.68498 0.0
H737 H 0.01776 0.38216 0.71803 0.0
H738 H 0.16006 0.39879 0.71713 0.0
H739 H 0.15731 0.36409 0.73894 0.0
H740 H 0.15799 0.35856 0.70251 0.0
H741 H 0.01636 0.41793 0.75508 0.0
H742 H 0.04814 0.41007 0.7795 0.0
H743 H 0.05134 0.44438 0.7573 0.0
H744 H 0.14388 0.40577 0.825 0.0
H745 H 0.15092 0.48829 0.77173 0.0
H746 H 0.12058 0.34838 0.77642 0.0
H747 H 0.08352 0.36388 0.79029 0.0
H748 H 0.11798 0.35726 0.81232 0.0
H749 H 0.12915 0.44902 0.71137 0.0
H750 H 0.12945 0.4884 0.72762 0.0
H751 H 0.09231 0.46514 0.72514 0.0
C752 C 0.0846 0.17162 0.28564 0.0
C753 C 0.07114 0.15546 0.30813 0.0
C754 C 0.10027 0.15436 0.26471 0.0
C755 C 0.10197 0.11995 0.26597 0.0
C756 C 0.08891 0.10352 0.28892 0.0
C757 C 0.07392 0.12151 0.30985 0.0
C758 C 0.11438 0.17294 0.24095 0.0
C759 C 0.08972 0.06686 0.29089 0.0
C760 C 0.11022 0.07384 0.19892 0.0
C761 C 0.14306 0.06463 0.1993 0.0
C762 C 0.09654 0.0917 0.22051 0.0
C763 C 0.11631 0.10113 0.24283 0.0
C764 C 0.14967 0.09251 0.243 0.0
C765 C 0.16254 0.07411 0.22138 0.0
C766 C 0.06075 0.0999 0.2197 0.0
C767 C 0.17175 0.10259 0.26607 0.0
H768 H 0.08251 0.19787 0.28437 0.0
H769 H 0.06309 0.10891 0.32698 0.0
H770 H 0.14021 0.16604 0.23784 0.0
H771 H 0.10105 0.16655 0.22205 0.0
H772 H 0.113 0.19972 0.24391 0.0
H773 H 0.07945 0.05784 0.31042 0.0
H774 H 0.07556 0.05612 0.27387 0.0
H775 H 0.11507 0.05796 0.28896 0.0
H776 H 0.09495 0.06612 0.18214 0.0
H777 H 0.18795 0.06712 0.22165 0.0
H778 H 0.0574 0.12666 0.22065 0.0
H779 H 0.04834 0.08932 0.23772 0.0
H780 H 0.04868 0.0906 0.20101 0.0
H781 H 0.17121 0.12945 0.26853 0.0
H782 H 0.19734 0.09486 0.26273 0.0
H783 H 0.163 0.09182 0.28545 0.0
C784 C 0.65888 0.07861 0.23572 0.0
C785 C 0.65472 0.05861 0.2128 0.0
C786 C 0.63248 0.09445 0.24787 0.0
C787 C 0.60093 0.09056 0.23675 0.0
C788 C 0.59631 0.0699 0.21396 0.0
C789 C 0.62329 0.05399 0.2023 0.0
C790 C 0.6386 0.1161 0.27224 0.0
C791 C 0.56312 0.06549 0.20135 0.0
C792 C 0.53569 0.12137 0.28499 0.0
C793 C 0.53431 0.15444 0.27769 0.0
C794 C 0.55543 0.09935 0.27052 0.0
C795 C 0.57376 0.1105 0.24794 0.0
C796 C 0.56995 0.14291 0.23886 0.0
C797 C 0.55067 0.16448 0.25393 0.0
C798 C 0.55874 0.0649 0.28083 0.0
C799 C 0.58868 0.15581 0.21467 0.0
H800 H 0.68297 0.08208 0.24424 0.0
H801 H 0.61986 0.03853 0.18465 0.0
H802 H 0.6333 0.14179 0.26686 0.0
H803 H 0.62217 0.10925 0.28923 0.0
H804 H 0.66414 0.11467 0.27955 0.0
H805 H 0.56296 0.04613 0.18556 0.0
H806 H 0.5449 0.05932 0.2172 0.0
H807 H 0.5553 0.08868 0.19181 0.0
H808 H 0.52264 0.11291 0.30279 0.0
H809 H 0.55059 0.18984 0.24797 0.0
H810 H 0.58237 0.06233 0.29155 0.0
H811 H 0.55863 0.0473 0.26371 0.0
H812 H 0.53895 0.05838 0.29525 0.0
H813 H 0.61455 0.15935 0.22046 0.0
H814 H 0.57895 0.1795 0.20745 0.0
H815 H 0.58801 0.13821 0.19756 0.0
C816 C 0.37078 0.51075 0.78133 0.0
C817 C 0.35728 0.53006 0.80201 0.0
C818 C 0.3971 0.52215 0.76558 0.0
C819 C 0.40938 0.55398 0.77006 0.0
C820 C 0.39697 0.57273 0.79192 0.0
C821 C 0.37133 0.56045 0.80769 0.0
C822 C 0.41035 0.50092 0.74312 0.0
C823 C 0.40878 0.60702 0.79727 0.0
C824 C 0.48233 0.59744 0.73947 0.0
C825 C 0.46662 0.61723 0.72035 0.0
C826 C 0.46468 0.57365 0.75406 0.0
C827 C 0.43071 0.57028 0.74957 0.0
C828 C 0.41583 0.5879 0.72817 0.0
C829 C 0.43408 0.61085 0.71369 0.0
C830 C 0.48175 0.55434 0.77589 0.0
C831 C 0.37975 0.58544 0.72256 0.0
H832 H 0.36013 0.48716 0.77694 0.0
H833 H 0.36073 0.57579 0.82331 0.0
H834 H 0.39935 0.50827 0.72344 0.0
H835 H 0.43712 0.50374 0.74128 0.0
H836 H 0.40453 0.47484 0.74664 0.0
H837 H 0.39832 0.61742 0.81622 0.0
H838 H 0.43568 0.60753 0.79894 0.0
H839 H 0.40187 0.62297 0.77997 0.0
H840 H 0.50753 0.60228 0.74462 0.0
H841 H 0.4221 0.62584 0.69853 0.0
H842 H 0.4722 0.52907 0.77682 0.0
H843 H 0.47736 0.56588 0.79597 0.0
H844 H 0.50845 0.55353 0.77239 0.0
H845 H 0.37213 0.55962 0.72092 0.0
H846 H 0.3727 0.59826 0.70354 0.0
H847 H 0.36607 0.59644 0.73973 0.0
C848 C 0.95974 0.34483 0.25812 0.0
C849 C 0.96977 0.35238 0.28479 0.0
C850 C 0.94157 0.36687 0.24256 0.0
C851 C 0.93255 0.39713 0.25398 0.0
C852 C 0.9449 0.40618 0.27983 0.0
C853 C 0.96351 0.38376 0.29488 0.0
C854 C 0.92918 0.35623 0.215 0.0
C855 C 0.93602 0.43832 0.29269 0.0
C856 C 0.88432 0.45563 0.20895 0.0
C857 C 0.85226 0.44667 0.21541 0.0
C858 C 0.91097 0.44035 0.22174 0.0
C859 C 0.9053 0.41574 0.24143 0.0
C860 C 0.87299 0.40713 0.24831 0.0
C861 C 0.84705 0.42265 0.23528 0.0
C862 C 0.94511 0.45 0.21381 0.0
C863 C 0.86565 0.38105 0.26918 0.0
H864 H 0.96375 0.32069 0.24995 0.0
H865 H 0.97168 0.39027 0.31514 0.0
H866 H 0.90322 0.34906 0.21675 0.0
H867 H 0.93071 0.37644 0.20008 0.0
H868 H 0.94301 0.33509 0.20694 0.0
H869 H 0.95225 0.44439 0.31006 0.0
H870 H 0.93716 0.45832 0.27754 0.0
H871 H 0.91064 0.43704 0.30035 0.0
H872 H 0.88859 0.4743 0.19377 0.0
H873 H 0.82248 0.41588 0.24091 0.0
H874 H 0.95729 0.42924 0.2036 0.0
H875 H 0.95959 0.45599 0.2322 0.0
H876 H 0.94547 0.47126 0.19983 0.0
H877 H 0.87544 0.35732 0.26218 0.0
H878 H 0.83914 0.37814 0.27292 0.0
H879 H 0.87769 0.38699 0.28878 0.0
C880 C 0.12268 0.95547 0.81042 0.0
C881 C 0.13936 0.98391 0.80277 0.0
C882 C 0.09863 0.94181 0.7937 0.0
C883 C 0.09091 0.95687 0.76859 0.0
C884 C 0.10511 0.98733 0.76208 0.0
C885 C 0.12933 1.00043 0.77917 0.0
C886 C 0.08412 0.90934 0.8016 0.0
C887 C 0.09689 0.00468 0.73591 0.0
C888 C 0.07698 0.89231 0.71528 0.0
C889 C 0.04308 0.88864 0.71587 0.0
C890 C 0.0926 0.91619 0.73081 0.0
C891 C 0.07385 0.93731 0.74732 0.0
C892 C 0.03937 0.93581 0.746 0.0
C893 C 0.02429 0.9113 0.73028 0.0
C894 C 0.12938 0.9168 0.73133 0.0
C895 C 0.01846 0.95838 0.76272 0.0
H896 H 0.13031 0.94216 0.82836 0.0
H897 H 0.14164 0.0227 0.77328 0.0
H898 H 0.05741 0.90935 0.79843 0.0
H899 H 0.09456 0.88996 0.78851 0.0
H900 H 0.08917 0.90307 0.8232 0.0
H901 H 0.10366 0.03086 0.7368 0.0
H902 H 0.11046 0.99329 0.71887 0.0
H903 H 0.07054 0.0026 0.73128 0.0
H904 H 0.09157 0.87515 0.70376 0.0
H905 H 0.99805 0.90857 0.73077 0.0
H906 H 0.13814 0.90873 0.75161 0.0
H907 H 0.13851 0.9419 0.72796 0.0
H908 H 0.1402 0.90061 0.71563 0.0
H909 H 0.01715 0.9492 0.78393 0.0
H910 H 0.99328 0.95977 0.75457 0.0
H911 H 0.02899 0.98326 0.76338 0.0
C912 C 0.54296 0.33627 0.75227 0.0
C913 C 0.52321 0.34336 0.72965 0.0
C914 C 0.56024 0.36075 0.76596 0.0
C915 C 0.55825 0.3933 0.75671 0.0
C916 C 0.53635 0.40118 0.73544 0.0
C917 C 0.51903 0.37614 0.72219 0.0
C918 C 0.58307 0.35116 0.78869 0.0
C919 C 0.53314 0.43565 0.72518 0.0
C920 C 0.60494 0.45466 0.8002 0.0
C921 C 0.63565 0.45354 0.7878 0.0
C922 C 0.57866 0.43653 0.78956 0.0
C923 C 0.58333 0.4172 0.76594 0.0
C924 C 0.61381 0.41779 0.75251 0.0
C925 C 0.63946 0.43589 0.7636 0.0
C926 C 0.54653 0.4367 0.80438 0.0
C927 C 0.61994 0.39794 0.72711 0.0
H928 H 0.54705 0.31122 0.75822 0.0
H929 H 0.50338 0.38216 0.70518 0.0
H930 H 0.60855 0.35228 0.78125 0.0
H931 H 0.58094 0.36828 0.80606 0.0
H932 H 0.57825 0.32608 0.79616 0.0
H933 H 0.51081 0.43893 0.71274 0.0
H934 H 0.53267 0.45319 0.74235 0.0
H935 H 0.55452 0.44169 0.71234 0.0
H936 H 0.60184 0.46845 0.81884 0.0
H937 H 0.66287 0.43574 0.75348 0.0
H938 H 0.54349 0.41336 0.81547 0.0
H939 H 0.52601 0.43881 0.78981 0.0
H940 H 0.54501 0.45694 0.81933 0.0
H941 H 0.61873 0.37161 0.73209 0.0
H942 H 0.64413 0.40312 0.71797 0.0
H943 H 0.60092 0.40293 0.71164 0.0
C944 C 0.15993 0.58539 0.20362 0.0
C945 C 0.1757 0.55696 0.21255 0.0
C946 C 0.13696 0.60133 0.21996 0.0
C947 C 0.13006 0.58923 0.24631 0.0
C948 C 0.14483 0.55999 0.25517 0.0
C949 C 0.1671 0.54397 0.23806 0.0
C950 C 0.12121 0.63208 0.20943 0.0
C951 C 0.13842 0.54654 0.28327 0.0
C952 C 0.10247 0.65623 0.29407 0.0
C953 C 0.06862 0.65209 0.2938 0.0
C954 C 0.12293 0.63456 0.28016 0.0
C955 C 0.10912 0.60863 0.265 0.0
C956 C 0.07503 0.60352 0.26565 0.0
C957 C 0.05519 0.62513 0.28034 0.0
C958 C 0.15922 0.64047 0.28058 0.0
C959 C 0.05926 0.57668 0.24929 0.0
H960 H 0.16659 0.59632 0.18435 0.0
H961 H 0.17851 0.52175 0.24508 0.0
H962 H 0.09445 0.63097 0.21229 0.0
H963 H 0.13033 0.65333 0.22112 0.0
H964 H 0.12641 0.63626 0.18751 0.0
H965 H 0.14968 0.52223 0.28628 0.0
H966 H 0.14845 0.5635 0.29874 0.0
H967 H 0.11189 0.54454 0.28704 0.0
H968 H 0.11292 0.67699 0.30458 0.0
H969 H 0.02898 0.62208 0.27984 0.0
H970 H 0.16737 0.64895 0.26025 0.0
H971 H 0.17236 0.61752 0.2851 0.0
H972 H 0.16632 0.65909 0.2959 0.0
H973 H 0.0613 0.58244 0.22728 0.0
H974 H 0.03309 0.57363 0.25439 0.0
H975 H 0.07188 0.55319 0.25271 0.0
C976 C 0.95183 0.14222 0.70213 0.0
C977 C 0.97561 0.16184 0.71455 0.0
C978 C 0.93392 0.11933 0.71717 0.0
C979 C 0.93961 0.11605 0.74546 0.0
C980 C 0.96541 0.13366 0.75768 0.0
C981 C 0.98322 0.15621 0.74205 0.0
C982 C 0.90687 0.10084 0.7032 0.0
C983 C 0.97255 0.13063 0.7877 0.0
C984 C 0.86267 0.09689 0.78501 0.0
C985 C 0.86506 0.06313 0.78887 0.0
C986 C 0.88748 0.11451 0.77205 0.0
C987 C 0.91555 0.09805 0.76257 0.0
C988 C 0.91892 0.06424 0.76751 0.0
C989 C 0.89364 0.04717 0.78064 0.0
C990 C 0.88295 0.15061 0.76745 0.0
C991 C 0.9484 0.04576 0.75772 0.0
H992 H 0.94525 0.1464 0.68106 0.0
H993 H 0.00195 0.1707 0.75179 0.0
H994 H 0.90737 0.07477 0.70907 0.0
H995 H 0.88304 0.11087 0.70968 0.0
H996 H 0.9085 0.10259 0.68067 0.0
H997 H 0.9965 0.14142 0.79311 0.0
H998 H 0.95339 0.14347 0.79943 0.0
H999 H 0.97222 0.10474 0.79413 0.0
H1000 H 0.84086 0.10954 0.79134 0.0
H1001 H 0.89576 0.02108 0.78341 0.0
H1002 H 0.88281 0.15597 0.74531 0.0
H1003 H 0.90354 0.16429 0.77657 0.0
H1004 H 0.8599 0.15978 0.77636 0.0
H1005 H 0.94765 0.04381 0.7352 0.0
H1006 H 0.9495 0.02079 0.76636 0.0
H1007 H 0.97108 0.05893 0.76315 0.0
C1008 C 0.33167 0.95358 0.2423 0.0
C1009 C 0.32315 0.9406 0.21678 0.0
C1010 C 0.3543 0.93784 0.25926 0.0
C1011 C 0.36929 0.90873 0.25033 0.0
C1012 C 0.36227 0.89655 0.22401 0.0
C1013 C 0.33914 0.91239 0.20771 0.0
C1014 C 0.36095 0.9515 0.28725 0.0
C1015 C 0.37808 0.86584 0.21349 0.0
C1016 C 0.44495 0.87416 0.28427 0.0
C1017 C 0.43196 0.84755 0.29854 0.0
C1018 C 0.42475 0.89514 0.26927 0.0
C1019 C 0.3907 0.88968 0.26894 0.0
C1020 C 0.37732 0.86407 0.28473 0.0
C1021 C 0.39814 0.84317 0.29913 0.0
C1022 C 0.44005 0.92182 0.25242 0.0
C1023 C 0.34111 0.85774 0.28542 0.0
H1024 H 0.31994 0.9756 0.2494 0.0
H1025 H 0.3325 0.9016 0.18837 0.0
H1026 H 0.35148 0.93444 0.30289 0.0
H1027 H 0.38751 0.95395 0.29067 0.0
H1028 H 0.34935 0.97563 0.29034 0.0
H1029 H 0.3724 0.8613 0.19171 0.0
H1030 H 0.40489 0.8673 0.21589 0.0
H1031 H 0.36952 0.84465 0.22555 0.0
H1032 H 0.47111 0.87751 0.2835 0.0
H1033 H 0.38794 0.8229 0.31035 0.0
H1034 H 0.42745 0.9453 0.25592 0.0
H1035 H 0.43743 0.91585 0.23049 0.0
H1036 H 0.46633 0.92498 0.25702 0.0
H1037 H 0.32778 0.88053 0.29011 0.0
H1038 H 0.33437 0.83898 0.30073 0.0
H1039 H 0.33281 0.84928 0.26512 0.0
C1040 C 0.40912 0.78259 0.77152 0.0
C1041 C 0.42979 0.78989 0.74966 0.0
C1042 C 0.39141 0.80721 0.78469 0.0
C1043 C 0.3951 0.83998 0.77618 0.0
C1044 C 0.41722 0.84762 0.75501 0.0
C1045 C 0.43399 0.82242 0.74176 0.0
C1046 C 0.36762 0.79796 0.80684 0.0
C1047 C 0.42242 0.88231 0.74579 0.0
C1048 C 0.32442 0.89773 0.78856 0.0
C1049 C 0.33381 0.91297 0.81284 0.0
C1050 C 0.34423 0.87402 0.77636 0.0
C1051 C 0.3745 0.86597 0.78841 0.0
C1052 C 0.38459 0.88216 0.81243 0.0
C1053 C 0.36392 0.90519 0.82455 0.0
C1054 C 0.33229 0.85687 0.75104 0.0
C1055 C 0.41697 0.87478 0.82554 0.0
H1056 H 0.40554 0.75742 0.77748 0.0
H1057 H 0.45003 0.82813 0.72489 0.0
H1058 H 0.37265 0.81209 0.82562 0.0
H1059 H 0.34251 0.80405 0.80028 0.0
H1060 H 0.36857 0.7716 0.81183 0.0
H1061 H 0.44263 0.88447 0.73088 0.0
H1062 H 0.39986 0.89166 0.73619 0.0
H1063 H 0.42784 0.89816 0.76352 0.0
H1064 H 0.30099 0.90343 0.77962 0.0
H1065 H 0.37126 0.917 0.84332 0.0
H1066 H 0.33011 0.83036 0.75503 0.0
H1067 H 0.35007 0.86 0.73426 0.0
H1068 H 0.30828 0.86611 0.74413 0.0
H1069 H 0.41734 0.84917 0.8327 0.0
H1070 H 0.42212 0.89097 0.84314 0.0
H1071 H 0.43685 0.8775 0.81041 0.0
C1072 C 0.69091 0.4487 0.27894 0.0
C1073 C 0.68271 0.46081 0.25312 0.0
C1074 C 0.66874 0.4301 0.29402 0.0
C1075 C 0.63728 0.42432 0.28336 0.0
C1076 C 0.62751 0.44011 0.25905 0.0
C1077 C 0.6505 0.458 0.24401 0.0
C1078 C 0.68041 0.41347 0.31966 0.0
C1079 C 0.59379 0.43548 0.24753 0.0
C1080 C 0.60348 0.33975 0.29555 0.0
C1081 C 0.58294 0.3448 0.31785 0.0
C1082 C 0.62116 0.36554 0.28415 0.0
C1083 C 0.61731 0.39739 0.29479 0.0
C1084 C 0.59587 0.40277 0.3169 0.0
C1085 C 0.57931 0.3762 0.32853 0.0
C1086 C 0.64449 0.3585 0.26109 0.0
C1087 C 0.59046 0.4365 0.3282 0.0
H1088 H 0.71567 0.45111 0.28631 0.0
H1089 H 0.64387 0.46754 0.2242 0.0
H1090 H 0.66179 0.41483 0.33594 0.0
H1091 H 0.68478 0.38732 0.31531 0.0
H1092 H 0.70342 0.42429 0.32739 0.0
H1093 H 0.58781 0.4545 0.23225 0.0
H1094 H 0.59227 0.41137 0.23741 0.0
H1095 H 0.57523 0.43598 0.26393 0.0
H1096 H 0.60636 0.31536 0.28743 0.0
H1097 H 0.56306 0.38006 0.34561 0.0
H1098 H 0.6695 0.36603 0.2669 0.0
H1099 H 0.63759 0.37275 0.2428 0.0
H1100 H 0.64495 0.33229 0.25552 0.0
H1101 H 0.61344 0.44608 0.33693 0.0
H1102 H 0.57146 0.43685 0.34429 0.0
H1103 H 0.58312 0.4533 0.31162 0.0
C1104 C 0.05761 0.68242 0.73975 0.0
C1105 C 0.06101 0.71495 0.7479 0.0
C1106 C 0.07374 0.65731 0.7537 0.0
C1107 C 0.09452 0.66508 0.77578 0.0
C1108 C 0.09681 0.69776 0.78485 0.0
C1109 C 0.07967 0.72225 0.771 0.0
C1110 C 0.0699 0.62269 0.74387 0.0
C1111 C 0.11917 0.70723 0.80795 0.0
C1112 C 0.1283 0.60007 0.82325 0.0
C1113 C 0.15901 0.59431 0.81179 0.0
C1114 C 0.10654 0.62224 0.81127 0.0
C1115 C 0.11613 0.63969 0.78773 0.0
C1116 C 0.14703 0.63366 0.77594 0.0
C1117 C 0.1679 0.61074 0.78792 0.0
C1118 C 0.07354 0.62738 0.82404 0.0
C1119 C 0.15849 0.65221 0.75116 0.0
H1120 H 0.04321 0.67672 0.72188 0.0
H1121 H 0.08275 0.74743 0.77713 0.0
H1122 H 0.0927 0.61468 0.73382 0.0
H1123 H 0.06543 0.60607 0.76128 0.0
H1124 H 0.0496 0.62014 0.72908 0.0
H1125 H 0.11627 0.73316 0.8139 0.0
H1126 H 0.11457 0.69174 0.82603 0.0
H1127 H 0.14482 0.70325 0.80173 0.0
H1128 H 0.12131 0.58731 0.84167 0.0
H1129 H 0.19175 0.60659 0.77916 0.0
H1130 H 0.05415 0.6243 0.80852 0.0
H1131 H 0.07169 0.65261 0.83193 0.0
H1132 H 0.06887 0.6102 0.84107 0.0
H1133 H 0.14132 0.64846 0.73402 0.0
H1134 H 0.18317 0.64464 0.74449 0.0
H1135 H 0.15896 0.67869 0.75566 0.0
C1136 C 0.93847 0.12002 0.31667 0.0
C1137 C 0.93524 0.15155 0.30619 0.0
C1138 C 0.92171 0.09377 0.30483 0.0
C1139 C 0.90022 0.09968 0.28287 0.0
C1140 C 0.89769 0.13146 0.27177 0.0
C1141 C 0.91576 0.15692 0.2833 0.0
C1142 C 0.92599 0.06009 0.31655 0.0
C1143 C 0.87437 0.13904 0.24882 0.0
C1144 C 0.85934 0.0384 0.23663 0.0
C1145 C 0.82784 0.0381 0.24761 0.0
C1146 C 0.88446 0.05589 0.24943 0.0
C1147 C 0.87754 0.0739 0.27332 0.0
C1148 C 0.8467 0.07087 0.28588 0.0
C1149 C 0.82239 0.05253 0.27308 0.0
C1150 C 0.91749 0.05742 0.23609 0.0
C1151 C 0.83811 0.08988 0.31122 0.0
H1152 H 0.95384 0.11596 0.33429 0.0
H1153 H 0.91315 0.18145 0.27541 0.0
H1154 H 0.90437 0.0536 0.32894 0.0
H1155 H 0.92809 0.04175 0.30005 0.0
H1156 H 0.94786 0.05851 0.32977 0.0
H1157 H 0.87623 0.16474 0.24193 0.0
H1158 H 0.8791 0.12289 0.23117 0.0
H1159 H 0.849 0.13445 0.25559 0.0
H1160 H 0.86384 0.02704 0.21707 0.0
H1161 H 0.7982 0.05212 0.28188 0.0
H1162 H 0.93714 0.05677 0.25157 0.0
H1163 H 0.91984 0.08065 0.22472 0.0
H1164 H 0.92109 0.03703 0.22154 0.0
H1165 H 0.85709 0.08683 0.32704 0.0
H1166 H 0.81431 0.08231 0.31991 0.0
H1167 H 0.83685 0.1162 0.30619 0.0
C1168 C 0.46765 0.69897 0.22845 0.0
C1169 C 0.48169 0.69074 0.25355 0.0
C1170 C 0.45401 0.67497 0.21167 0.0
C1171 C 0.45533 0.64198 0.2199 0.0
C1172 C 0.47439 0.63323 0.24277 0.0
C1173 C 0.48715 0.65782 0.25959 0.0
C1174 C 0.43431 0.68545 0.18726 0.0
C1175 C 0.47805 0.59815 0.25125 0.0
C1176 C 0.37533 0.5977 0.21105 0.0
C1177 C 0.37979 0.58152 0.18627 0.0
C1178 C 0.40011 0.61671 0.2224 0.0
C1179 C 0.43065 0.61879 0.20909 0.0
C1180 C 0.43598 0.60094 0.18481 0.0
C1181 C 0.41018 0.58299 0.17334 0.0
C1182 C 0.39294 0.63578 0.24803 0.0
C1183 C 0.46838 0.60151 0.1704 0.0
H1184 H 0.46401 0.72437 0.22328 0.0
H1185 H 0.49863 0.65121 0.27867 0.0
H1186 H 0.43941 0.66957 0.16954 0.0
H1187 H 0.408 0.6832 0.19207 0.0
H1188 H 0.43938 0.7111 0.18144 0.0
H1189 H 0.4994 0.59474 0.26482 0.0
H1190 H 0.45594 0.59031 0.26246 0.0
H1191 H 0.48071 0.58214 0.23317 0.0
H1192 H 0.35182 0.59678 0.22104 0.0
H1193 H 0.41375 0.57028 0.15423 0.0
H1194 H 0.39622 0.66221 0.24415 0.0
H1195 H 0.41014 0.62876 0.26439 0.0
H1196 H 0.36776 0.63176 0.25556 0.0
H1197 H 0.4691 0.62247 0.15617 0.0
H1198 H 0.47206 0.57899 0.15825 0.0
H1199 H 0.48887 0.60414 0.18496 0.0
C1200 C 0.79749 0.45132 0.72765 0.0
C1201 C 0.80618 0.46605 0.75239 0.0
C1202 C 0.82025 0.4335 0.71252 0.0
C1203 C 0.85274 0.43132 0.72188 0.0
C1204 C 0.86248 0.44941 0.74506 0.0
C1205 C 0.83894 0.46622 0.76031 0.0
C1206 C 0.80854 0.41406 0.68831 0.0
C1207 C 0.89715 0.44868 0.75515 0.0
C1208 C 0.89492 0.35042 0.71046 0.0
C1209 C 0.91324 0.3566 0.68701 0.0
C1210 C 0.87524 0.37462 0.72197 0.0
C1211 C 0.87471 0.40614 0.71022 0.0
C1212 C 0.89395 0.41279 0.68694 0.0
C1213 C 0.9126 0.3877 0.67529 0.0
C1214 C 0.85447 0.36619 0.74638 0.0
C1215 C 0.89475 0.44631 0.67438 0.0
H1216 H 0.77219 0.45094 0.72139 0.0
H1217 H 0.84585 0.47769 0.77934 0.0
H1218 H 0.82573 0.41623 0.67102 0.0
H1219 H 0.80722 0.38792 0.69398 0.0
H1220 H 0.78404 0.4219 0.68139 0.0
H1221 H 0.90219 0.46885 0.76962 0.0
H1222 H 0.90171 0.42529 0.76578 0.0
H1223 H 0.91451 0.45033 0.73789 0.0
H1224 H 0.89526 0.32628 0.71941 0.0
H1225 H 0.92705 0.39252 0.65727 0.0
H1226 H 0.82851 0.37123 0.74185 0.0
H1227 H 0.86144 0.3816 0.76398 0.0
H1228 H 0.85687 0.34024 0.75241 0.0
H1229 H 0.87033 0.45268 0.66642 0.0
H1230 H 0.9126 0.44804 0.65746 0.0
H1231 H 0.90108 0.4647 0.69008 0.0
C1232 C 0.02638 0.80513 0.22517 0.0
C1233 C 0.01466 0.81214 0.25136 0.0
C1234 C 0.03958 0.82985 0.20881 0.0
C1235 C 0.03954 0.86235 0.21841 0.0
C1236 C 0.02164 0.8701 0.24217 0.0
C1237 C 0.00984 0.84478 0.25872 0.0
C1238 C 0.05766 0.82047 0.18325 0.0
C1239 C 0.01891 0.90476 0.252 0.0
C1240 C 0.12069 0.90508 0.21111 0.0
C1241 C 0.1168 0.92257 0.18693 0.0
C1242 C 0.09543 0.88614 0.22168 0.0
C1243 C 0.06485 0.88545 0.20831 0.0
C1244 C 0.06009 0.90476 0.1847 0.0
C1245 C 0.08646 0.92255 0.17387 0.0
C1246 C 0.10266 0.86473 0.2459 0.0
C1247 C 0.02774 0.90607 0.17026 0.0
H1248 H 0.02935 0.77998 0.21895 0.0
H1249 H 0.99986 0.85054 0.27858 0.0
H1250 H 0.05141 0.83719 0.16635 0.0
H1251 H 0.08425 0.8225 0.18691 0.0
H1252 H 0.05214 0.79512 0.17683 0.0
H1253 H 0.99818 0.90774 0.26629 0.0
H1254 H 0.04159 0.91166 0.26284 0.0
H1255 H 0.01578 0.9217 0.23458 0.0
H1256 H 0.14424 0.90466 0.22106 0.0
H1257 H 0.08335 0.93626 0.15519 0.0
H1258 H 0.10278 0.8391 0.23892 0.0
H1259 H 0.08375 0.86728 0.26183 0.0
H1260 H 0.12671 0.87013 0.25522 0.0
H1261 H 0.02768 0.88814 0.15337 0.0
H1262 H 0.02377 0.93051 0.16116 0.0
H1263 H 0.00713 0.90042 0.18408 0.0
C1264 C 0.66406 0.04169 0.75679 0.0
C1265 C 0.69685 0.04538 0.7495 0.0
C1266 C 0.63946 0.05803 0.74235 0.0
C1267 C 0.64804 0.07897 0.72057 0.0
C1268 C 0.6807 0.08005 0.71147 0.0
C1269 C 0.70463 0.06283 0.72581 0.0
C1270 C 0.60474 0.05526 0.75207 0.0
C1271 C 0.6911 0.10231 0.68857 0.0
C1272 C 0.58591 0.12332 0.67655 0.0
C1273 C 0.5835 0.1532 0.69019 0.0
C1274 C 0.6058 0.09825 0.68673 0.0
C1275 C 0.62446 0.10374 0.71055 0.0
C1276 C 0.62195 0.13394 0.72437 0.0
C1277 C 0.60113 0.15807 0.71424 0.0
C1278 C 0.60711 0.0661 0.67191 0.0
C1279 C 0.642 0.14116 0.74947 0.0
H1280 H 0.6578 0.02802 0.77493 0.0
H1281 H 0.72989 0.0657 0.7199 0.0
H1282 H 0.59846 0.07707 0.76431 0.0
H1283 H 0.58767 0.05419 0.73459 0.0
H1284 H 0.60105 0.03335 0.76498 0.0
H1285 H 0.71616 0.09689 0.68143 0.0
H1286 H 0.67423 0.10035 0.67104 0.0
H1287 H 0.69044 0.12793 0.69577 0.0
H1288 H 0.57207 0.11946 0.65804 0.0
H1289 H 0.59947 0.18126 0.7247 0.0
H1290 H 0.6028 0.04577 0.68635 0.0
H1291 H 0.63166 0.06253 0.66303 0.0
H1292 H 0.58886 0.06464 0.65527 0.0
H1293 H 0.63651 0.12316 0.76566 0.0
H1294 H 0.6374 0.16595 0.75765 0.0
H1295 H 0.6683 0.13902 0.74464 0.0
C1296 C 0.73665 0.30739 0.19218 0.0
C1297 C 0.74304 0.33233 0.21084 0.0
C1298 C 0.7452 0.27515 0.19778 0.0
C1299 C 0.76025 0.26741 0.22292 0.0
C1300 C 0.76699 0.29254 0.24191 0.0
C1301 C 0.75825 0.32477 0.2356 0.0
C1302 C 0.73867 0.24947 0.17639 0.0
C1303 C 0.78301 0.28611 0.26901 0.0
C1304 C 0.75067 0.1769 0.2309 0.0
C1305 C 0.77955 0.16608 0.21861 0.0
C1306 C 0.74565 0.21016 0.23606 0.0
C1307 C 0.76962 0.23299 0.22801 0.0
C1308 C 0.80028 0.22184 0.21897 0.0
C1309 C 0.80497 0.18847 0.21461 0.0
C1310 C 0.71359 0.2211 0.24783 0.0
C1311 C 0.82705 0.24535 0.2114 0.0
H1312 H 0.72558 0.31324 0.17279 0.0
H1313 H 0.76303 0.34398 0.25019 0.0
H1314 H 0.76158 0.23664 0.17114 0.0
H1315 H 0.72138 0.23107 0.18442 0.0
H1316 H 0.72825 0.25989 0.15743 0.0
H1317 H 0.76446 0.28832 0.2853 0.0
H1318 H 0.79438 0.26172 0.27037 0.0
H1319 H 0.80194 0.30482 0.27311 0.0
H1320 H 0.7311 0.15987 0.23482 0.0
H1321 H 0.82803 0.18019 0.20656 0.0
H1322 H 0.69731 0.2291 0.2311 0.0
H1323 H 0.71717 0.24207 0.2618 0.0
H1324 H 0.70129 0.2011 0.25909 0.0
H1325 H 0.82005 0.25873 0.19266 0.0
H1326 H 0.85054 0.23277 0.20762 0.0
H1327 H 0.83061 0.26357 0.22781 0.0
C1328 C 0.31136 0.70052 0.65927 0.0
C1329 C 0.33557 0.72345 0.66525 0.0
C1330 C 0.2792 0.71031 0.655 0.0
C1331 C 0.27148 0.74376 0.65686 0.0
C1332 C 0.29677 0.76716 0.6581 0.0
C1333 C 0.32879 0.75666 0.66241 0.0
C1334 C 0.25306 0.68459 0.65291 0.0
C1335 C 0.28954 0.80312 0.65912 0.0
C1336 C 0.18278 0.76997 0.65734 0.0
C1337 C 0.17683 0.77108 0.6854 0.0
C1338 C 0.21357 0.76112 0.64737 0.0
C1339 C 0.2385 0.75303 0.66607 0.0
C1340 C 0.23212 0.75341 0.69443 0.0
C1341 C 0.2014 0.76255 0.70367 0.0
C1342 C 0.21958 0.76148 0.61707 0.0
C1343 C 0.25777 0.74435 0.7152 0.0
H1344 H 0.317 0.6748 0.66068 0.0
H1345 H 0.34764 0.77442 0.66663 0.0
H1346 H 0.24231 0.68048 0.67336 0.0
H1347 H 0.23324 0.69244 0.63909 0.0
H1348 H 0.26306 0.66108 0.6455 0.0
H1349 H 0.31125 0.81785 0.65354 0.0
H1350 H 0.2692 0.80941 0.64525 0.0
H1351 H 0.2822 0.80986 0.68013 0.0
H1352 H 0.16365 0.7769 0.64331 0.0
H1353 H 0.19643 0.76296 0.72534 0.0
H1354 H 0.23453 0.74036 0.61067 0.0
H1355 H 0.23325 0.78388 0.61167 0.0
H1356 H 0.19645 0.76133 0.60536 0.0
H1357 H 0.26687 0.71938 0.71121 0.0
H1358 H 0.24839 0.74525 0.7364 0.0
H1359 H 0.27877 0.76125 0.71365 0.0
C1360 C 0.80008 0.18268 0.81622 0.0
C1361 C 0.76646 0.17641 0.81705 0.0
C1362 C 0.81203 0.21478 0.81688 0.0
C1363 C 0.78973 0.24099 0.81746 0.0
C1364 C 0.75603 0.23462 0.82054 0.0
C1365 C 0.74503 0.20247 0.82096 0.0
C1366 C 0.84829 0.22031 0.81545 0.0
C1367 C 0.73108 0.26168 0.82134 0.0
C1368 C 0.7938 0.33114 0.82467 0.0
C1369 C 0.78713 0.33984 0.79763 0.0
C1370 C 0.80073 0.29865 0.83139 0.0
C1371 C 0.7999 0.2747 0.81069 0.0
C1372 C 0.79876 0.28446 0.78308 0.0
C1373 C 0.79259 0.31707 0.77691 0.0
C1374 C 0.80489 0.28943 0.86089 0.0
C1375 C 0.79911 0.26001 0.76014 0.0
H1376 H 0.81707 0.16279 0.81381 0.0
H1377 H 0.71922 0.19788 0.82307 0.0
H1378 H 0.85627 0.21976 0.7939 0.0
H1379 H 0.85541 0.24412 0.82434 0.0
H1380 H 0.86152 0.20062 0.82629 0.0
H1381 H 0.70581 0.25235 0.82334 0.0
H1382 H 0.73598 0.27814 0.83875 0.0
H1383 H 0.73255 0.27641 0.80243 0.0
H1384 H 0.79061 0.34884 0.84079 0.0
H1385 H 0.78907 0.32415 0.75587 0.0
H1386 H 0.82105 0.26794 0.86303 0.0
H1387 H 0.78087 0.28311 0.86974 0.0
H1388 H 0.81514 0.31001 0.87282 0.0
H1389 H 0.81876 0.24195 0.76311 0.0
H1390 H 0.80262 0.2719 0.74003 0.0
H1391 H 0.77561 0.24664 0.75981 0.0
C1392 C 0.3138 0.71606 0.29454 0.0
C1393 C 0.33568 0.72838 0.31381 0.0
C1394 C 0.28066 0.72376 0.29577 0.0
C1395 C 0.26907 0.74368 0.31719 0.0
C1396 C 0.29093 0.75536 0.33724 0.0
C1397 C 0.32417 0.74793 0.33507 0.0
C1398 C 0.2583 0.71151 0.27358 0.0
C1399 C 0.27926 0.77594 0.36074 0.0
C1400 C 0.19235 0.78999 0.30026 0.0
C1401 C 0.16807 0.76867 0.30964 0.0
C1402 C 0.22538 0.78274 0.3035 0.0
C1403 C 0.23446 0.75394 0.31729 0.0
C1404 C 0.21021 0.73356 0.3287 0.0
C1405 C 0.17724 0.74097 0.32449 0.0
C1406 C 0.25046 0.80492 0.29066 0.0
C1407 C 0.21903 0.70304 0.34413 0.0
H1408 H 0.32288 0.70127 0.27794 0.0
H1409 H 0.34117 0.75713 0.35008 0.0
H1410 H 0.23799 0.69729 0.28255 0.0
H1411 H 0.24743 0.73247 0.26261 0.0
H1412 H 0.27116 0.6959 0.25858 0.0
H1413 H 0.2988 0.78052 0.37591 0.0
H1414 H 0.27038 0.79972 0.35309 0.0
H1415 H 0.25853 0.76383 0.37111 0.0
H1416 H 0.18556 0.81195 0.2895 0.0
H1417 H 0.15882 0.72429 0.33183 0.0
H1418 H 0.26331 0.79169 0.27416 0.0
H1419 H 0.26902 0.81224 0.30586 0.0
H1420 H 0.23943 0.82726 0.2819 0.0
H1421 H 0.22765 0.68422 0.32964 0.0
H1422 H 0.19793 0.69298 0.35552 0.0
H1423 H 0.23911 0.70795 0.35867 0.0
C1424 C 0.28615 0.68815 0.87593 0.0
C1425 C 0.2586 0.66804 0.87746 0.0
C1426 C 0.28372 0.72186 0.87971 0.0
C1427 C 0.25301 0.73569 0.8856 0.0
C1428 C 0.22601 0.71504 0.89063 0.0
C1429 C 0.22907 0.68134 0.88636 0.0
C1430 C 0.31319 0.74283 0.8741 0.0
C1431 C 0.19302 0.72877 0.89758 0.0
C1432 C 0.24877 0.82797 0.89401 0.0
C1433 C 0.24026 0.83752 0.86755 0.0
C1434 C 0.25229 0.79477 0.90063 0.0
C1435 C 0.24773 0.7709 0.88014 0.0
C1436 C 0.23933 0.7806 0.85339 0.0
C1437 C 0.23571 0.81366 0.84751 0.0
C1438 C 0.26105 0.78529 0.92938 0.0
C1439 C 0.2346 0.75608 0.83074 0.0
H1440 H 0.30922 0.67776 0.86976 0.0
H1441 H 0.20771 0.66595 0.88775 0.0
H1442 H 0.31086 0.7539 0.85357 0.0
H1443 H 0.31503 0.76296 0.88905 0.0
H1444 H 0.33609 0.7285 0.87465 0.0
H1445 H 0.17689 0.71001 0.90676 0.0
H1446 H 0.19525 0.74955 0.91189 0.0
H1447 H 0.18125 0.73788 0.87873 0.0
H1448 H 0.25224 0.84642 0.90951 0.0
H1449 H 0.22991 0.82092 0.82688 0.0
H1450 H 0.28605 0.77518 0.92979 0.0
H1451 H 0.2444 0.76597 0.93687 0.0
H1452 H 0.26 0.80634 0.94355 0.0
H1453 H 0.25731 0.74198 0.82765 0.0
H1454 H 0.22791 0.76775 0.81112 0.0
H1455 H 0.21514 0.73855 0.83629 0.0
C1456 C 0.81418 0.23531 0.33267 0.0
C1457 C 0.83745 0.24474 0.35196 0.0
C1458 C 0.78097 0.23505 0.339 0.0
C1459 C 0.77067 0.24502 0.36522 0.0
C1460 C 0.79417 0.25339 0.38518 0.0
C1461 C 0.82746 0.25296 0.37832 0.0
C1462 C 0.75689 0.22462 0.3174 0.0
C1463 C 0.78411 0.26369 0.41342 0.0
C1464 C 0.68375 0.27526 0.3625 0.0
C1465 C 0.66674 0.24641 0.36764 0.0
C1466 C 0.71791 0.27602 0.36386 0.0
C1467 C 0.73515 0.24732 0.37095 0.0
C1468 C 0.71769 0.21912 0.37879 0.0
C1469 C 0.68366 0.2189 0.37667 0.0
C1470 C 0.73555 0.30651 0.35508 0.0
C1471 C 0.73493 0.18821 0.38698 0.0
H1472 H 0.82209 0.22848 0.31241 0.0
H1473 H 0.84558 0.26034 0.39312 0.0
H1474 H 0.74247 0.20353 0.32473 0.0
H1475 H 0.73951 0.24464 0.3132 0.0
H1476 H 0.76894 0.21756 0.29805 0.0
H1477 H 0.80531 0.26647 0.42727 0.0
H1478 H 0.77108 0.28729 0.41236 0.0
H1479 H 0.76703 0.24564 0.4223 0.0
H1480 H 0.67052 0.29631 0.35514 0.0
H1481 H 0.67026 0.19662 0.38052 0.0
H1482 H 0.74648 0.30255 0.33469 0.0
H1483 H 0.75565 0.31225 0.36937 0.0
H1484 H 0.71898 0.32782 0.35387 0.0
H1485 H 0.74445 0.17589 0.36853 0.0
H1486 H 0.71832 0.17106 0.39764 0.0
H1487 H 0.75594 0.1936 0.40043 0.0
C1488 C 0.23203 0.68361 0.1329 0.0
C1489 C 0.26018 0.66713 0.12468 0.0
C1490 C 0.22715 0.71636 0.12631 0.0
C1491 C 0.25056 0.73284 0.11021 0.0
C1492 C 0.27617 0.71475 0.09812 0.0
C1493 C 0.28108 0.68204 0.10588 0.0
C1494 C 0.1991 0.73415 0.13949 0.0
C1495 C 0.30006 0.7305 0.07891 0.0
C1496 C 0.22443 0.82123 0.10706 0.0
C1497 C 0.24017 0.83317 0.13034 0.0
C1498 C 0.23072 0.7894 0.0976 0.0
C1499 C 0.25236 0.76907 0.11236 0.0
C1500 C 0.27094 0.7826 0.13388 0.0
C1501 C 0.26502 0.81461 0.14215 0.0
C1502 C 0.21232 0.77703 0.07316 0.0
C1503 C 0.29453 0.76231 0.1503 0.0
H1504 H 0.21533 0.6716 0.14674 0.0
H1505 H 0.30256 0.66917 0.09902 0.0
H1506 H 0.20857 0.75244 0.15414 0.0
H1507 H 0.18476 0.7473 0.1239 0.0
H1508 H 0.18248 0.71743 0.15061 0.0
H1509 H 0.30839 0.71274 0.06335 0.0
H1510 H 0.2893 0.75191 0.06847 0.0
H1511 H 0.32181 0.73864 0.09042 0.0
H1512 H 0.20567 0.83573 0.09744 0.0
H1513 H 0.27814 0.82437 0.15947 0.0
H1514 H 0.18749 0.76952 0.07942 0.0
H1515 H 0.22462 0.75591 0.06353 0.0
H1516 H 0.20962 0.79668 0.05778 0.0
H1517 H 0.2813 0.74217 0.16057 0.0
H1518 H 0.30737 0.77681 0.1661 0.0
H1519 H 0.31303 0.75128 0.13676 0.0
C1520 C 0.67679 0.23186 0.63493 0.0
C1521 C 0.66121 0.26069 0.64276 0.0
C1522 C 0.71064 0.23123 0.63064 0.0
C1523 C 0.72915 0.26005 0.63447 0.0
C1524 C 0.71303 0.28972 0.63999 0.0
C1525 C 0.67928 0.28968 0.64388 0.0
C1526 C 0.72688 0.19914 0.62449 0.0
C1527 C 0.73168 0.32103 0.64432 0.0
C1528 C 0.81157 0.25066 0.66781 0.0
C1529 C 0.83302 0.25601 0.64609 0.0
C1530 C 0.77786 0.25163 0.66409 0.0
C1531 C 0.76509 0.25821 0.6379 0.0
C1532 C 0.78659 0.26406 0.61584 0.0
C1533 C 0.82047 0.26311 0.62026 0.0
C1534 C 0.75597 0.2459 0.68837 0.0
C1535 C 0.7738 0.27079 0.58762 0.0
H1536 H 0.66298 0.20941 0.63397 0.0
H1537 H 0.66715 0.3122 0.64921 0.0
H1538 H 0.74618 0.20227 0.60891 0.0
H1539 H 0.73861 0.18975 0.64326 0.0
H1540 H 0.70916 0.18063 0.61721 0.0
H1541 H 0.71544 0.34263 0.64429 0.0
H1542 H 0.74439 0.32002 0.66424 0.0
H1543 H 0.75047 0.3243 0.62835 0.0
H1544 H 0.82131 0.24576 0.6879 0.0
H1545 H 0.83714 0.26699 0.60348 0.0
H1546 H 0.73739 0.22713 0.68366 0.0
H1547 H 0.74293 0.26875 0.69345 0.0
H1548 H 0.76975 0.23784 0.70659 0.0
H1549 H 0.75897 0.24984 0.58054 0.0
H1550 H 0.79368 0.27515 0.57273 0.0
H1551 H 0.75762 0.29238 0.58792 0.0
C1552 C 0.78345 0.05028 0.94486 0.0
C1553 C 0.7563 0.04193 0.92895 0.0
C1554 C 0.78205 0.04941 0.97341 0.0
C1555 C 0.75265 0.04047 0.98645 0.0
C1556 C 0.72507 0.03232 0.9706 0.0
C1557 C 0.72731 0.03286 0.94209 0.0
C1558 C 0.81209 0.05796 0.98963 0.0
C1559 C 0.69319 0.02294 0.98377 0.0
C1560 C 0.75695 0.0094 0.05921 0.0
C1561 C 0.74937 0.03746 0.07427 0.0
C1562 C 0.75807 0.01004 0.03066 0.0
C1563 C 0.75088 0.0393 0.01671 0.0
C1564 C 0.74247 0.06752 0.03167 0.0
C1565 C 0.74206 0.06634 0.06025 0.0
C1566 C 0.76738 0.97949 0.01544 0.0
C1567 C 0.73428 0.09908 0.01749 0.0
H1568 H 0.80581 0.05785 0.93501 0.0
H1569 H 0.70634 0.02578 0.93009 0.0
H1570 H 0.80707 0.07914 1.00298 0.0
H1571 H 0.81885 0.03729 1.00302 0.0
H1572 H 0.83319 0.06393 0.9764 0.0
H1573 H 0.67373 0.01828 0.96856 0.0
H1574 H 0.69647 0.0007 0.99627 0.0
H1575 H 0.68501 0.0426 0.99766 0.0
H1576 H 0.76207 0.98681 0.06976 0.0
H1577 H 0.73668 0.08831 0.07158 0.0
H1578 H 0.78943 0.9841 1.00298 0.0
H1579 H 0.7476 0.9724 1.00126 0.0
H1580 H 0.77233 0.95873 0.02933 0.0
H1581 H 0.75567 0.10786 0.00583 0.0
H1582 H 0.72682 0.11842 0.03201 0.0
H1583 H 0.71425 0.09513 1.0027 0.0
C1584 C 0.4432 0.7104 0.44817 0.0
C1585 C 0.46519 0.73176 0.43558 0.0
C1586 C 0.44349 0.70585 0.47649 0.0
C1587 C 0.4665 0.72291 0.49254 0.0
C1588 C 0.48906 0.74416 0.47989 0.0
C1589 C 0.48804 0.74844 0.45156 0.0
C1590 C 0.41881 0.6833 0.48929 0.0
C1591 C 0.5141 0.7626 0.4963 0.0
C1592 C 0.44833 0.73969 0.56688 0.0
C1593 C 0.46742 0.71621 0.58004 0.0
C1594 C 0.44734 0.74168 0.53842 0.0
C1595 C 0.46607 0.71975 0.5227 0.0
C1596 C 0.48494 0.69555 0.53584 0.0
C1597 C 0.48524 0.69394 0.56443 0.0
C1598 C 0.4266 0.76757 0.52519 0.0
C1599 C 0.50534 0.67187 0.51973 0.0
H1600 H 0.42532 0.69768 0.43589 0.0
H1601 H 0.50537 0.76461 0.44184 0.0
H1602 H 0.43131 0.66442 0.50158 0.0
H1603 H 0.40291 0.69723 0.50333 0.0
H1604 H 0.40327 0.67103 0.47387 0.0
H1605 H 0.53075 0.77714 0.48325 0.0
H1606 H 0.50175 0.77931 0.51072 0.0
H1607 H 0.52882 0.7454 0.50859 0.0
H1608 H 0.43408 0.75659 0.57892 0.0
H1609 H 0.50008 0.67584 0.5746 0.0
H1610 H 0.40933 0.75624 0.51063 0.0
H1611 H 0.44223 0.78453 0.51342 0.0
H1612 H 0.41251 0.78189 0.54031 0.0
H1613 H 0.48992 0.65857 0.50489 0.0
H1614 H 0.51783 0.65387 0.53297 0.0
H1615 H 0.524 0.68536 0.5079 0.0
C1616 C 0.73269 0.48543 0.05973 0.0
C1617 C 0.74802 0.461 0.07511 0.0
C1618 C 0.73046 0.48328 0.03124 0.0
C1619 C 0.74465 0.4565 0.01755 0.0
C1620 C 0.76043 0.43192 0.0328 0.0
C1621 C 0.76154 0.43423 0.06134 0.0
C1622 C 0.71297 0.50978 0.01576 0.0
C1623 C 0.77639 0.40326 0.01896 0.0
C1624 C 0.71763 0.43623 0.94529 0.0
C1625 C 0.74162 0.4518 0.92955 0.0
C1626 C 0.71813 0.43777 0.97389 0.0
C1627 C 0.74365 0.45462 0.98723 0.0
C1628 C 0.76819 0.46994 0.97159 0.0
C1629 C 0.76662 0.46875 0.94306 0.0
C1630 C 0.69119 0.42159 0.98985 0.0
C1631 C 0.79612 0.48771 0.985 0.0
H1632 H 0.72261 0.50653 0.06989 0.0
H1633 H 0.77281 0.41477 0.07282 0.0
H1634 H 0.73024 0.52247 1.00201 0.0
H1635 H 0.69362 0.49899 1.00282 0.0
H1636 H 0.70175 0.52807 0.0295 0.0
H1637 H 0.78822 0.3865 0.03369 0.0
H1638 H 0.75807 0.38933 0.00714 0.0
H1639 H 0.79504 0.412 0.00434 0.0
H1640 H 0.69845 0.42262 0.9353 0.0
H1641 H 0.7849 0.48162 0.93135 0.0
H1642 H 0.67895 0.43977 1.00304 0.0
H1643 H 0.70144 0.4026 1.0034 0.0
H1644 H 0.67266 0.41014 0.97643 0.0
H1645 H 0.78676 0.50856 0.997 0.0
H1646 H 0.81406 0.49704 0.96997 0.0
H1647 H 0.80887 0.47125 0.99937 0.0
C1648 C 0.0761 0.79112 0.44091 0.0
C1649 C 0.05324 0.76924 0.43005 0.0
C1650 C 0.07807 0.79667 0.46909 0.0
C1651 C 0.0567 0.77992 0.48685 0.0
C1652 C 0.03363 0.75778 0.47603 0.0
C1653 C 0.03218 0.75272 0.44779 0.0
C1654 C 0.10311 0.82032 0.47987 0.0
C1655 C 0.0104 0.73945 0.49429 0.0
C1656 C 0.07827 0.76718 0.56119 0.0
C1657 C 0.05836 0.79016 0.57415 0.0
C1658 C 0.07878 0.76434 0.53275 0.0
C1659 C 0.05879 0.78492 0.51683 0.0
C1660 C 0.03956 0.80902 0.52973 0.0
C1661 C 0.03966 0.81144 0.55828 0.0
C1662 C 0.09989 0.73855 0.5198 0.0
C1663 C 0.01791 0.83139 0.51344 0.0
H1664 H 0.09271 0.8037 0.42737 0.0
H1665 H 0.01412 0.73618 0.43955 0.0
H1666 H 0.09098 0.8398 0.49175 0.0
H1667 H 0.11998 0.80756 0.49389 0.0
H1668 H 0.11758 0.83177 0.46333 0.0
H1669 H 0.99372 0.72331 0.48265 0.0
H1670 H 0.02426 0.72436 0.50899 0.0
H1671 H 0.99559 0.75687 0.50629 0.0
H1672 H 0.09312 0.75099 0.57341 0.0
H1673 H 0.02409 0.82908 0.56823 0.0
H1674 H 0.11561 0.74953 0.50389 0.0
H1675 H 0.0843 0.7201 0.50967 0.0
H1676 H 0.1156 0.726 0.5349 0.0
H1677 H 0.03217 0.84373 0.49726 0.0
H1678 H 0.00613 0.8502 0.52634 0.0
H1679 H 0.99862 0.81694 0.50322 0.0
C1680 C 0.25379 0.00764 0.06691 0.0
C1681 C 0.22995 0.98689 0.0778 0.0
C1682 C 0.25926 0.00938 0.03865 0.0
C1683 C 0.23995 0.99047 0.02069 0.0
C1684 C 0.21579 0.96952 0.03158 0.0
C1685 C 0.21134 0.96772 0.05996 0.0
C1686 C 0.28577 0.03146 0.028 0.0
C1687 C 0.19425 0.94937 0.01322 0.0
C1688 C 0.23281 0.01843 0.94677 0.0
C1689 C 0.2532 0.99635 0.93324 0.0
C1690 C 0.22814 0.01668 0.97514 0.0
C1691 C 0.24483 0.99274 0.99052 0.0
C1692 C 0.26593 0.97078 0.97701 0.0
C1693 C 0.26955 0.9726 0.94856 0.0
C1694 C 0.20493 0.04015 0.9886 0.0
C1695 C 0.28473 0.94535 0.99263 0.0
H1696 H 0.26842 0.02239 0.08053 0.0
H1697 H 0.19271 0.95178 0.06815 0.0
H1698 H 0.30314 0.01725 0.01545 0.0
H1699 H 0.27509 0.05042 0.01465 0.0
H1700 H 0.29944 0.04366 0.04464 0.0
H1701 H 0.17633 0.93461 0.02483 0.0
H1702 H 0.18086 0.96553 0.99901 0.0
H1703 H 0.2093 0.93274 1.00067 0.0
H1704 H 0.21988 0.03669 0.93509 0.0
H1705 H 0.28551 0.95556 0.9383 0.0
H1706 H 0.21794 0.05473 0.00419 0.0
H1707 H 0.18541 0.02644 0.99922 0.0
H1708 H 0.19351 0.05706 0.97377 0.0
H1709 H 0.29964 0.95717 0.00868 0.0
H1710 H 0.30105 0.93088 0.97927 0.0
H1711 H 0.26765 0.92847 1.00297 0.0
C1712 C 0.54538 0.27698 0.55943 0.0
C1713 C 0.52837 0.25605 0.57707 0.0
C1714 C 0.54178 0.27498 0.53106 0.0
C1715 C 0.52024 0.25172 0.5197 0.0
C1716 C 0.50144 0.23183 0.53736 0.0
C1717 C 0.50588 0.23405 0.56583 0.0
C1718 C 0.56262 0.29651 0.5132 0.0
C1719 C 0.47771 0.20719 0.52617 0.0
C1720 C 0.50716 0.26257 0.44307 0.0
C1721 C 0.53092 0.24159 0.43242 0.0
C1722 C 0.50178 0.26471 0.47144 0.0
C1723 C 0.52087 0.24578 0.48958 0.0
C1724 C 0.54369 0.22347 0.47877 0.0
C1725 C 0.54823 0.22152 0.45051 0.0
C1726 C 0.4767 0.28829 0.48204 0.0
C1727 C 0.56486 0.20295 0.49715 0.0
H1728 H 0.56269 0.29428 0.5677 0.0
H1729 H 0.49243 0.21789 0.57917 0.0
H1730 H 0.58028 0.28131 0.50179 0.0
H1731 H 0.54736 0.30937 0.49801 0.0
H1732 H 0.5764 0.31493 0.52512 0.0
H1733 H 0.46125 0.19754 0.5422 0.0
H1734 H 0.4628 0.21812 0.50971 0.0
H1735 H 0.4913 0.18649 0.51719 0.0
H1736 H 0.49347 0.27805 0.42937 0.0
H1737 H 0.56647 0.20495 0.44269 0.0
H1738 H 0.48911 0.30961 0.49126 0.0
H1739 H 0.46174 0.27674 0.49819 0.0
H1740 H 0.46036 0.29714 0.46562 0.0
H1741 H 0.58142 0.21898 0.50896 0.0
H1742 H 0.57986 0.18522 0.48558 0.0
H1743 H 0.54968 0.18937 0.51197 0.0
C1744 C 0.24573 0.49389 0.06351 0.0
C1745 C 0.26994 0.51402 0.07465 0.0
C1746 C 0.23995 0.49306 0.03527 0.0
C1747 C 0.25923 0.51236 0.01758 0.0
C1748 C 0.28383 0.53259 0.02871 0.0
C1749 C 0.28867 0.5334 0.05707 0.0
C1750 C 0.21307 0.47163 0.02436 0.0
C1751 C 0.30529 0.55316 0.01061 0.0
C1752 C 0.26474 0.48735 0.94286 0.0
C1753 C 0.24415 0.51002 0.93024 0.0
C1754 C 0.26997 0.48792 0.97119 0.0
C1755 C 0.25375 0.51133 0.98746 0.0
C1756 C 0.23253 0.53395 0.97487 0.0
C1757 C 0.22824 0.53323 0.94645 0.0
C1758 C 0.29323 0.46373 0.98366 0.0
C1759 C 0.21432 0.55895 0.99145 0.0
H1760 H 0.23098 0.47898 0.07692 0.0
H1761 H 0.30754 0.54892 0.06544 0.0
H1762 H 0.19548 0.48651 0.0126 0.0
H1763 H 0.22331 0.45327 0.01019 0.0
H1764 H 0.19974 0.45871 0.04081 0.0
H1765 H 0.32366 0.56719 0.02237 0.0
H1766 H 0.31815 0.53743 0.99575 0.0
H1767 H 0.29023 0.57052 0.99879 0.0
H1768 H 0.27733 0.46949 0.93052 0.0
H1769 H 0.21218 0.55076 0.93692 0.0
H1770 H 0.28041 0.44871 0.99907 0.0
H1771 H 0.31311 0.47685 0.99434 0.0
H1772 H 0.30416 0.44728 0.96822 0.0
H1773 H 0.19955 0.54665 0.00733 0.0
H1774 H 0.19795 0.57415 0.97872 0.0
H1775 H 0.23179 0.57518 1.00205 0.0
C1776 C 0.01808 0.25131 0.44297 0.0
C1777 C 0.99046 0.25227 0.42617 0.0
C1778 C 0.01532 0.25311 0.47153 0.0
C1779 C 0.98424 0.25683 0.48366 0.0
C1780 C 0.95638 0.25888 0.4667 0.0
C1781 C 0.95977 0.25612 0.43825 0.0
C1782 C 0.04557 0.24992 0.48875 0.0
C1783 C 0.92286 0.2636 0.47863 0.0
C1784 C 0.96794 0.22779 0.55615 0.0
C1785 C 0.96968 0.25681 0.57115 0.0
C1786 C 0.97377 0.22734 0.52793 0.0
C1787 C 0.98059 0.25682 0.51405 0.0
C1788 C 0.98287 0.28619 0.52917 0.0
C1789 C 0.97784 0.28576 0.5576 0.0
C1790 C 0.97202 0.19532 0.5129 0.0
C1791 C 0.98936 0.31825 0.51518 0.0
H1792 H 0.04186 0.24808 0.43383 0.0
H1793 H 0.93833 0.25711 0.42542 0.0
H1794 H 0.04793 0.27113 0.50258 0.0
H1795 H 0.04368 0.22786 0.50171 0.0
H1796 H 0.06801 0.24809 0.47624 0.0
H1797 H 0.90405 0.26727 0.46268 0.0
H1798 H 0.91603 0.24199 0.49092 0.0
H1799 H 0.92276 0.28495 0.49247 0.0
H1800 H 0.96183 0.20528 0.56651 0.0
H1801 H 0.97889 0.30832 0.56902 0.0
H1802 H 0.99447 0.19161 0.50073 0.0
H1803 H 0.95125 0.1956 0.49849 0.0
H1804 H 0.96896 0.1743 0.5269 0.0
H1805 H 0.01214 0.31688 0.50314 0.0
H1806 H 0.99143 0.33874 0.52985 0.0
H1807 H 0.96931 0.32363 0.50073 0.0
loop_
_geom_bond_atom_site_label_1
_geom_bond_atom_site_label_2
_geom_bond_distance
_geom_bond_site_symmetry_2
_ccdc_geom_bond_type
Co0 N4 2.148 . S
Co0 N10 2.128 . S
Co0 N20 2.194 . S
Co0 O25 2.351 . S
Co0 O26 2.155 . S
Co0 O27 2.096 . S
C1 N4 1.301 . S
C1 N5 1.328 . S
C1 H6 0.930 . S
C2 C3 1.333 . S
C2 N4 1.317 . S
C2 H7 0.930 . S
C3 C2 1.333 . S
C3 N5 1.350 . S
C3 H29 0.931 . S
N4 Co0 2.148 . S
N4 C1 1.301 . S
N4 C2 1.317 . S
N5 C1 1.328 . S
N5 C3 1.350 . S
H6 C1 0.930 . S
H7 C2 0.930 . S
C8 O9 1.224 . S
C8 O27 1.247 . S
O9 C8 1.224 . S
N10 Co0 2.128 . S
N10 C11 1.355 1_545 S
N10 C13 1.311 1_545 S
C11 N10 1.355 1_565 S
C11 C12 1.363 . S
C11 H23 0.929 . S
C12 C11 1.363 . S
C12 N14 1.375 . S
C12 H30 0.931 . S
C13 N10 1.311 1_565 S
C13 N14 1.347 . S
C13 H24 0.927 . S
N14 C12 1.375 . S
N14 C13 1.347 . S
C15 C18 1.365 . S
C15 N20 1.328 . S
C15 H21 0.929 . S
C16 C17 1.362 . S
C16 C19 1.378 . S
C16 H31 0.929 . S
C17 C16 1.362 . S
C17 C18 1.366 . S
C18 C15 1.365 . S
C18 C17 1.366 . S
C18 H32 0.930 . S
C19 C16 1.378 . S
C19 N20 1.315 . S
C19 H22 0.930 . S
N20 Co0 2.194 . S
N20 C15 1.328 . S
N20 C19 1.315 . S
H21 C15 0.929 . S
H22 C19 0.930 . S
H23 C11 0.929 . S
H24 C13 0.927 . S
O25 Co0 2.351 . S
O25 C28 1.244 . S
O26 Co0 2.155 . S
O26 C28 1.240 . S
O27 Co0 2.096 . S
O27 C8 1.247 . S
C28 O25 1.244 . S
C28 O26 1.240 . S
H29 C3 0.931 . S
H30 C12 0.931 . S
H31 C16 0.929 . S
H32 C18 0.930 . S
Co33 N37 2.148 . S
Co33 N43 2.128 . S
Co33 N53 2.194 . S
Co33 O58 2.351 . S
Co33 O59 2.155 . S
Co33 O60 2.096 . S
C34 N37 1.301 . S
C34 N38 1.328 . S
C34 H39 0.930 . S
C35 C36 1.333 . S
C35 N37 1.317 . S
C35 H40 0.930 . S
C36 C35 1.333 . S
C36 N38 1.350 . S
C36 H62 0.931 . S
N37 Co33 2.148 . S
N37 C34 1.301 . S
N37 C35 1.317 . S
N38 C34 1.328 . S
N38 C36 1.350 . S
H39 C34 0.930 . S
H40 C35 0.930 . S
C41 O42 1.224 . S
C41 O60 1.247 . S
O42 C41 1.224 . S
N43 Co33 2.128 . S
N43 C44 1.355 . S
N43 C46 1.311 . S
C44 N43 1.355 . S
C44 C45 1.363 . S
C44 H56 0.929 . S
C45 C44 1.363 . S
C45 N47 1.375 . S
C45 H63 0.931 . S
C46 N43 1.311 . S
C46 N47 1.347 . S
C46 H57 0.929 . S
N47 C45 1.375 . S
N47 C46 1.347 . S
C48 C51 1.365 . S
C48 N53 1.328 . S
C48 H54 0.929 . S
C49 C50 1.362 . S
C49 C52 1.378 . S
C49 H64 0.929 . S
C50 C49 1.362 . S
C50 C51 1.366 . S
C51 C48 1.365 . S
C51 C50 1.366 . S
C51 H65 0.930 . S
C52 C49 1.378 . S
C52 N53 1.315 . S
C52 H55 0.930 . S
N53 Co33 2.194 . S
N53 C48 1.328 . S
N53 C52 1.315 . S
H54 C48 0.929 . S
H55 C52 0.930 . S
H56 C44 0.929 . S
H57 C46 0.929 . S
O58 Co33 2.351 . S
O58 C61 1.244 . S
O59 Co33 2.155 . S
O59 C61 1.240 . S
O60 Co33 2.096 . S
O60 C41 1.247 . S
C61 O58 1.244 . S
C61 O59 1.240 . S
H62 C36 0.931 . S
H63 C45 0.931 . S
H64 C49 0.929 . S
H65 C51 0.930 . S
Co66 N70 2.148 . S
Co66 N76 2.128 . S
Co66 N86 2.194 . S
Co66 O91 2.351 . S
Co66 O92 2.155 . S
Co66 O93 2.096 . S
C67 N70 1.301 . S
C67 N71 1.328 . S
C67 H72 0.930 . S
C68 C69 1.333 . S
C68 N70 1.317 . S
C68 H73 0.930 . S
C69 C68 1.333 . S
C69 N71 1.350 . S
C69 H95 0.931 . S
N70 Co66 2.148 . S
N70 C67 1.301 . S
N70 C68 1.317 . S
N71 C67 1.328 . S
N71 C69 1.350 . S
H72 C67 0.930 . S
H73 C68 0.930 . S
C74 O75 1.224 . S
C74 O93 1.247 . S
O75 C74 1.224 . S
N76 Co66 2.128 . S
N76 C77 1.355 . S
N76 C79 1.311 . S
C77 N76 1.355 . S
C77 C78 1.363 . S
C77 H89 0.929 . S
C78 C77 1.363 . S
C78 N80 1.375 . S
C78 H96 0.931 . S
C79 N76 1.311 . S
C79 N80 1.347 . S
C79 H90 0.929 . S
N80 C78 1.375 . S
N80 C79 1.347 . S
C81 C84 1.365 . S
C81 N86 1.328 . S
C81 H87 0.929 . S
C82 C83 1.362 . S
C82 C85 1.378 . S
C82 H97 0.929 . S
C83 C82 1.362 . S
C83 C84 1.366 . S
C84 C81 1.365 . S
C84 C83 1.366 . S
C84 H98 0.930 . S
C85 C82 1.378 . S
C85 N86 1.315 . S
C85 H88 0.930 . S
N86 Co66 2.194 . S
N86 C81 1.328 . S
N86 C85 1.315 . S
H87 C81 0.929 . S
H88 C85 0.930 . S
H89 C77 0.929 . S
H90 C79 0.929 . S
O91 Co66 2.351 . S
O91 C94 1.244 . S
O92 Co66 2.155 . S
O92 C94 1.240 . S
O93 Co66 2.096 . S
O93 C74 1.247 . S
C94 O91 1.244 . S
C94 O92 1.240 . S
H95 C69 0.931 . S
H96 C78 0.931 . S
H97 C82 0.929 . S
H98 C84 0.930 . S
Co99 N103 2.148 . S
Co99 N109 2.128 . S
Co99 N119 2.194 . S
Co99 O124 2.351 . S
Co99 O125 2.155 . S
Co99 O126 2.096 . S
C100 N103 1.301 . S
C100 N104 1.328 . S
C100 H105 0.930 . S
C101 C102 1.333 . S
C101 N103 1.317 . S
C101 H106 0.930 . S
C102 C101 1.333 . S
C102 N104 1.350 . S
C102 H128 0.931 . S
N103 Co99 2.148 . S
N103 C100 1.301 . S
N103 C101 1.317 . S
N104 C100 1.328 . S
N104 C102 1.350 . S
H105 C100 0.930 . S
H106 C101 0.930 . S
C107 O108 1.224 . S
C107 O126 1.247 . S
O108 C107 1.224 . S
N109 Co99 2.128 . S
N109 C110 1.355 1_455 S
N109 C112 1.311 1_455 S
C110 N109 1.355 1_655 S
C110 C111 1.363 . S
C110 H122 0.929 . S
C111 C110 1.363 . S
C111 N113 1.375 . S
C111 H129 0.931 . S
C112 N109 1.311 1_655 S
C112 N113 1.347 . S
C112 H123 0.928 . S
N113 C111 1.375 . S
N113 C112 1.347 . S
C114 C117 1.365 . S
C114 N119 1.328 . S
C114 H120 0.929 . S
C115 C116 1.362 . S
C115 C118 1.378 . S
C115 H130 0.929 . S
C116 C115 1.362 . S
C116 C117 1.366 . S
C117 C114 1.365 . S
C117 C116 1.366 . S
C117 H131 0.930 . S
C118 C115 1.378 . S
C118 N119 1.315 . S
C118 H121 0.930 . S
N119 Co99 2.194 . S
N119 C114 1.328 . S
N119 C118 1.315 . S
H120 C114 0.929 . S
H121 C118 0.930 . S
H122 C110 0.929 . S
H123 C112 0.928 . S
O124 Co99 2.351 . S
O124 C127 1.244 . S
O125 Co99 2.155 . S
O125 C127 1.240 . S
O126 Co99 2.096 . S
O126 C107 1.247 . S
C127 O124 1.244 . S
C127 O125 1.240 . S
H128 C102 0.931 . S
H129 C111 0.931 . S
H130 C115 0.929 . S
H131 C117 0.930 . S
Co132 N136 2.148 . S
Co132 N142 2.128 . S
Co132 N152 2.194 . S
Co132 O157 2.351 . S
Co132 O158 2.155 . S
Co132 O159 2.096 . S
C133 N136 1.301 . S
C133 N137 1.328 . S
C133 H138 0.930 . S
C134 C135 1.333 . S
C134 N136 1.317 . S
C134 H139 0.930 . S
C135 C134 1.333 . S
C135 N137 1.350 . S
C135 H161 0.931 . S
N136 Co132 2.148 . S
N136 C133 1.301 . S
N136 C134 1.317 . S
N137 C133 1.328 . S
N137 C135 1.350 . S
H138 C133 0.930 . S
H139 C134 0.930 . S
C140 O141 1.224 . S
C140 O159 1.247 . S
O141 C140 1.224 . S
N142 Co132 2.128 . S
N142 C143 1.355 . S
N142 C145 1.311 . S
C143 N142 1.355 . S
C143 C144 1.363 . S
C143 H155 0.929 . S
C144 C143 1.363 . S
C144 N146 1.375 . S
C144 H162 0.931 . S
C145 N142 1.311 . S
C145 N146 1.347 . S
C145 H156 0.929 . S
N146 C144 1.375 . S
N146 C145 1.347 . S
C147 C150 1.365 . S
C147 N152 1.328 . S
C147 H153 0.929 . S
C148 C149 1.362 . S
C148 C151 1.378 . S
C148 H163 0.929 . S
C149 C148 1.362 . S
C149 C150 1.366 . S
C150 C147 1.365 . S
C150 C149 1.366 . S
C150 H164 0.930 . S
C151 C148 1.378 . S
C151 N152 1.315 . S
C151 H154 0.930 . S
N152 Co132 2.194 . S
N152 C147 1.328 . S
N152 C151 1.315 . S
H153 C147 0.929 . S
H154 C151 0.930 . S
H155 C143 0.929 . S
H156 C145 0.929 . S
O157 Co132 2.351 . S
O157 C160 1.244 . S
O158 Co132 2.155 . S
O158 C160 1.240 . S
O159 Co132 2.096 . S
O159 C140 1.247 . S
C160 O157 1.244 . S
C160 O158 1.240 . S
H161 C135 0.931 . S
H162 C144 0.931 . S
H163 C148 0.929 . S
H164 C150 0.930 . S
Co165 N169 2.148 . S
Co165 N175 2.128 . S
Co165 N185 2.194 . S
Co165 O190 2.351 . S
Co165 O191 2.155 . S
Co165 O192 2.096 . S
C166 N169 1.301 . S
C166 N170 1.328 . S
C166 H171 0.930 . S
C167 C168 1.333 . S
C167 N169 1.317 . S
C167 H172 0.930 . S
C168 C167 1.333 . S
C168 N170 1.350 . S
C168 H194 0.931 . S
N169 Co165 2.148 . S
N169 C166 1.301 . S
N169 C167 1.317 . S
N170 C166 1.328 . S
N170 C168 1.350 . S
H171 C166 0.930 . S
H172 C167 0.930 . S
C173 O174 1.224 . S
C173 O192 1.247 . S
O174 C173 1.224 . S
N175 Co165 2.128 . S
N175 C176 1.355 1_455 S
N175 C178 1.311 1_455 S
C176 N175 1.355 1_655 S
C176 C177 1.363 . S
C176 H188 0.929 . S
C177 C176 1.363 . S
C177 N179 1.375 . S
C177 H195 0.931 . S
C178 N175 1.311 1_655 S
C178 N179 1.347 . S
C178 H189 0.927 . S
N179 C177 1.375 . S
N179 C178 1.347 . S
C180 C183 1.365 . S
C180 N185 1.328 . S
C180 H186 0.929 . S
C181 C182 1.362 . S
C181 C184 1.378 . S
C181 H196 0.929 . S
C182 C181 1.362 . S
C182 C183 1.366 . S
C183 C180 1.365 . S
C183 C182 1.366 . S
C183 H197 0.930 . S
C184 C181 1.378 . S
C184 N185 1.315 . S
C184 H187 0.930 . S
N185 Co165 2.194 . S
N185 C180 1.328 . S
N185 C184 1.315 . S
H186 C180 0.929 . S
H187 C184 0.930 . S
H188 C176 0.929 . S
H189 C178 0.927 . S
O190 Co165 2.351 . S
O190 C193 1.244 . S
O191 Co165 2.155 . S
O191 C193 1.240 . S
O192 Co165 2.096 . S
O192 C173 1.247 . S
C193 O190 1.244 . S
C193 O191 1.240 . S
H194 C168 0.931 . S
H195 C177 0.931 . S
H196 C181 0.929 . S
H197 C183 0.930 . S
Co198 N202 2.148 . S
Co198 N208 2.128 . S
Co198 N218 2.194 . S
Co198 O223 2.351 . S
Co198 O224 2.155 . S
Co198 O225 2.096 . S
C199 N202 1.301 . S
C199 N203 1.328 . S
C199 H204 0.930 . S
C200 C201 1.333 . S
C200 N202 1.317 . S
C200 H205 0.930 . S
C201 C200 1.333 . S
C201 N203 1.350 . S
C201 H227 0.931 . S
N202 Co198 2.148 . S
N202 C199 1.301 . S
N202 C200 1.317 . S
N203 C199 1.328 . S
N203 C201 1.350 . S
H204 C199 0.930 . S
H205 C200 0.930 . S
C206 O207 1.224 . S
C206 O225 1.247 . S
O207 C206 1.224 . S
N208 Co198 2.128 . S
N208 C209 1.355 1_545 S
N208 C211 1.311 1_545 S
C209 N208 1.355 1_565 S
C209 C210 1.363 . S
C209 H221 0.929 . S
C210 C209 1.363 . S
C210 N212 1.375 . S
C210 H228 0.931 . S
C211 N208 1.311 1_565 S
C211 N212 1.347 . S
C211 H222 0.928 . S
N212 C210 1.375 . S
N212 C211 1.347 . S
C213 C216 1.365 . S
C213 N218 1.328 . S
C213 H219 0.929 . S
C214 C215 1.362 . S
C214 C217 1.378 . S
C214 H229 0.929 . S
C215 C214 1.362 . S
C215 C216 1.366 . S
C216 C213 1.365 . S
C216 C215 1.366 . S
C216 H230 0.930 . S
C217 C214 1.378 . S
C217 N218 1.315 . S
C217 H220 0.930 . S
N218 Co198 2.194 . S
N218 C213 1.328 . S
N218 C217 1.315 . S
H219 C213 0.929 . S
H220 C217 0.930 . S
H221 C209 0.929 . S
H222 C211 0.928 . S
O223 Co198 2.351 . S
O223 C226 1.244 . S
O224 Co198 2.155 . S
O224 C226 1.240 . S
O225 Co198 2.096 . S
O225 C206 1.247 . S
C226 O223 1.244 . S
C226 O224 1.240 . S
H227 C201 0.931 . S
H228 C210 0.931 . S
H229 C214 0.929 . S
H230 C216 0.930 . S
Co231 N235 2.148 . S
Co231 N241 2.128 . S
Co231 N251 2.194 . S
Co231 O256 2.351 . S
Co231 O257 2.155 . S
Co231 O258 2.096 . S
C232 N235 1.301 . S
C232 N236 1.328 . S
C232 H237 0.930 . S
C233 C234 1.333 . S
C233 N235 1.317 . S
C233 H238 0.930 . S
C234 C233 1.333 . S
C234 N236 1.350 . S
C234 H260 0.931 . S
N235 Co231 2.148 . S
N235 C232 1.301 . S
N235 C233 1.317 . S
N236 C232 1.328 . S
N236 C234 1.350 . S
H237 C232 0.930 . S
H238 C233 0.930 . S
C239 O240 1.224 . S
C239 O258 1.247 . S
O240 C239 1.224 . S
N241 Co231 2.128 . S
N241 C242 1.355 . S
N241 C244 1.311 . S
C242 N241 1.355 . S
C242 C243 1.363 . S
C242 H254 0.929 . S
C243 C242 1.363 . S
C243 N245 1.375 . S
C243 H261 0.931 . S
C244 N241 1.311 . S
C244 N245 1.347 . S
C244 H255 0.929 . S
N245 C243 1.375 . S
N245 C244 1.347 . S
C246 C249 1.365 . S
C246 N251 1.328 . S
C246 H252 0.929 . S
C247 C248 1.362 . S
C247 C250 1.378 . S
C247 H262 0.929 . S
C248 C247 1.362 . S
C248 C249 1.366 . S
C249 C246 1.365 . S
C249 C248 1.366 . S
C249 H263 0.930 . S
C250 C247 1.378 . S
C250 N251 1.315 . S
C250 H253 0.930 . S
N251 Co231 2.194 . S
N251 C246 1.328 . S
N251 C250 1.315 . S
H252 C246 0.929 . S
H253 C250 0.930 . S
H254 C242 0.929 . S
H255 C244 0.929 . S
O256 Co231 2.351 . S
O256 C259 1.244 . S
O257 Co231 2.155 . S
O257 C259 1.240 . S
O258 Co231 2.096 . S
O258 C239 1.247 . S
C259 O256 1.244 . S
C259 O257 1.240 . S
H260 C234 0.931 . S
H261 C243 0.931 . S
H262 C247 0.929 . S
H263 C249 0.930 . S
Co264 N268 2.157 . S
Co264 N274 2.128 . S
Co264 N284 2.194 . S
Co264 O289 2.351 . S
Co264 O290 2.155 . S
Co264 O291 2.096 . S
C265 N268 1.297 1_545 S
C265 N269 1.328 . S
C265 H270 0.930 . S
C266 C267 1.333 . S
C266 N268 1.310 1_545 S
C266 H271 0.930 . S
C267 C266 1.333 . S
C267 N269 1.350 . S
C267 H293 0.931 . S
N268 Co264 2.157 . S
N268 C265 1.297 1_565 S
N268 C266 1.310 1_565 S
N269 C265 1.328 . S
N269 C267 1.350 . S
H270 C265 0.930 . S
H271 C266 0.930 . S
C272 O273 1.224 . S
C272 O291 1.247 . S
O273 C272 1.224 . S
N274 Co264 2.128 . S
N274 C275 1.355 . S
N274 C277 1.311 . S
C275 N274 1.355 . S
C275 C276 1.363 . S
C275 H287 0.929 . S
C276 C275 1.363 . S
C276 N278 1.375 . S
C276 H294 0.931 . S
C277 N274 1.311 . S
C277 N278 1.347 . S
C277 H288 0.929 . S
N278 C276 1.375 . S
N278 C277 1.347 . S
C279 C282 1.365 . S
C279 N284 1.328 . S
C279 H285 0.929 . S
C280 C281 1.362 . S
C280 C283 1.378 . S
C280 H295 0.929 . S
C281 C280 1.362 . S
C281 C282 1.366 . S
C282 C279 1.365 . S
C282 C281 1.366 . S
C282 H296 0.930 . S
C283 C280 1.378 . S
C283 N284 1.315 . S
C283 H286 0.930 . S
N284 Co264 2.194 . S
N284 C279 1.328 . S
N284 C283 1.315 . S
H285 C279 0.929 . S
H286 C283 0.930 . S
H287 C275 0.929 . S
H288 C277 0.929 . S
O289 Co264 2.351 . S
O289 C292 1.244 . S
O290 Co264 2.155 . S
O290 C292 1.240 . S
O291 Co264 2.096 . S
O291 C272 1.247 . S
C292 O289 1.244 . S
C292 O290 1.240 . S
H293 C267 0.931 . S
H294 C276 0.931 . S
H295 C280 0.929 . S
H296 C282 0.930 . S
Co297 N301 2.148 . S
Co297 N307 2.128 . S
Co297 N317 2.194 . S
Co297 O322 2.351 . S
Co297 O323 2.155 . S
Co297 O324 2.096 . S
C298 N301 1.301 . S
C298 N302 1.328 . S
C298 H303 0.930 . S
C299 C300 1.333 . S
C299 N301 1.317 . S
C299 H304 0.930 . S
C300 C299 1.333 . S
C300 N302 1.350 . S
C300 H326 0.931 . S
N301 Co297 2.148 . S
N301 C298 1.301 . S
N301 C299 1.317 . S
N302 C298 1.328 . S
N302 C300 1.350 . S
H303 C298 0.930 . S
H304 C299 0.930 . S
C305 O306 1.224 . S
C305 O324 1.247 . S
O306 C305 1.224 . S
N307 Co297 2.128 . S
N307 C308 1.355 . S
N307 C310 1.311 . S
C308 N307 1.355 . S
C308 C309 1.363 . S
C308 H320 0.929 . S
C309 C308 1.363 . S
C309 N311 1.375 . S
C309 H327 0.931 . S
C310 N307 1.311 . S
C310 N311 1.347 . S
C310 H321 0.929 . S
N311 C309 1.375 . S
N311 C310 1.347 . S
C312 C315 1.365 . S
C312 N317 1.328 . S
C312 H318 0.929 . S
C313 C314 1.362 . S
C313 C316 1.378 . S
C313 H328 0.929 . S
C314 C313 1.362 . S
C314 C315 1.366 . S
C315 C312 1.365 . S
C315 C314 1.366 . S
C315 H329 0.930 . S
C316 C313 1.378 . S
C316 N317 1.315 . S
C316 H319 0.930 . S
N317 Co297 2.194 . S
N317 C312 1.328 . S
N317 C316 1.315 . S
H318 C312 0.929 . S
H319 C316 0.930 . S
H320 C308 0.929 . S
H321 C310 0.929 . S
O322 Co297 2.351 . S
O322 C325 1.244 . S
O323 Co297 2.155 . S
O323 C325 1.240 . S
O324 Co297 2.096 . S
O324 C305 1.247 . S
C325 O322 1.244 . S
C325 O323 1.240 . S
H326 C300 0.931 . S
H327 C309 0.931 . S
H328 C313 0.929 . S
H329 C315 0.930 . S
Co330 N334 2.148 . S
Co330 N340 2.128 . S
Co330 N350 2.194 . S
Co330 O355 2.351 . S
Co330 O356 2.155 . S
Co330 O357 2.096 . S
C331 N334 1.301 . S
C331 N335 1.328 . S
C331 H336 0.930 . S
C332 C333 1.333 . S
C332 N334 1.317 . S
C332 H337 0.930 . S
C333 C332 1.333 . S
C333 N335 1.350 . S
C333 H359 0.931 . S
N334 Co330 2.148 . S
N334 C331 1.301 . S
N334 C332 1.317 . S
N335 C331 1.328 . S
N335 C333 1.350 . S
H336 C331 0.930 . S
H337 C332 0.930 . S
C338 O339 1.224 . S
C338 O357 1.247 . S
O339 C338 1.224 . S
N340 Co330 2.128 . S
N340 C341 1.355 . S
N340 C343 1.311 . S
C341 N340 1.355 . S
C341 C342 1.363 . S
C341 H353 0.929 . S
C342 C341 1.363 . S
C342 N344 1.375 . S
C342 H360 0.931 . S
C343 N340 1.311 . S
C343 N344 1.347 . S
C343 H354 0.929 . S
N344 C342 1.375 . S
N344 C343 1.347 . S
C345 C348 1.365 . S
C345 N350 1.328 . S
C345 H351 0.929 . S
C346 C347 1.362 . S
C346 C349 1.378 . S
C346 H361 0.929 . S
C347 C346 1.362 . S
C347 C348 1.366 . S
C348 C345 1.365 . S
C348 C347 1.366 . S
C348 H362 0.930 . S
C349 C346 1.378 . S
C349 N350 1.315 . S
C349 H352 0.930 . S
N350 Co330 2.194 . S
N350 C345 1.328 . S
N350 C349 1.315 . S
H351 C345 0.929 . S
H352 C349 0.930 . S
H353 C341 0.929 . S
H354 C343 0.929 . S
O355 Co330 2.351 . S
O355 C358 1.244 . S
O356 Co330 2.155 . S
O356 C358 1.240 . S
O357 Co330 2.096 . S
O357 C338 1.247 . S
C358 O355 1.244 . S
C358 O356 1.240 . S
H359 C333 0.931 . S
H360 C342 0.931 . S
H361 C346 0.929 . S
H362 C348 0.930 . S
Co363 N367 2.157 . S
Co363 N373 2.128 . S
Co363 N383 2.194 . S
Co363 O388 2.351 . S
Co363 O389 2.155 . S
Co363 O390 2.096 . S
C364 N367 1.297 1_455 S
C364 N368 1.328 . S
C364 H369 0.930 . S
C365 C366 1.333 . S
C365 N367 1.310 1_455 S
C365 H370 0.930 . S
C366 C365 1.333 . S
C366 N368 1.350 . S
C366 H392 0.931 . S
N367 Co363 2.157 . S
N367 C364 1.297 1_655 S
N367 C365 1.310 1_655 S
N368 C364 1.328 . S
N368 C366 1.350 . S
H369 C364 0.930 . S
H370 C365 0.930 . S
C371 O372 1.224 . S
C371 O390 1.247 . S
O372 C371 1.224 . S
N373 Co363 2.128 . S
N373 C374 1.355 . S
N373 C376 1.311 . S
C374 N373 1.355 . S
C374 C375 1.363 . S
C374 H386 0.929 . S
C375 C374 1.363 . S
C375 N377 1.375 . S
C375 H393 0.931 . S
C376 N373 1.311 . S
C376 N377 1.347 . S
C376 H387 0.929 . S
N377 C375 1.375 . S
N377 C376 1.347 . S
C378 C381 1.365 . S
C378 N383 1.328 . S
C378 H384 0.929 . S
C379 C380 1.362 . S
C379 C382 1.378 . S
C379 H394 0.929 . S
C380 C379 1.362 . S
C380 C381 1.366 . S
C381 C378 1.365 . S
C381 C380 1.366 . S
C381 H395 0.930 . S
C382 C379 1.378 . S
C382 N383 1.315 . S
C382 H385 0.930 . S
N383 Co363 2.194 . S
N383 C378 1.328 . S
N383 C382 1.315 . S
H384 C378 0.929 . S
H385 C382 0.930 . S
H386 C374 0.929 . S
H387 C376 0.929 . S
O388 Co363 2.351 . S
O388 C391 1.244 . S
O389 Co363 2.155 . S
O389 C391 1.240 . S
O390 Co363 2.096 . S
O390 C371 1.247 . S
C391 O388 1.244 . S
C391 O389 1.240 . S
H392 C366 0.931 . S
H393 C375 0.931 . S
H394 C379 0.929 . S
H395 C381 0.930 . S
Co396 N400 2.148 . S
Co396 N406 2.128 . S
Co396 N416 2.194 . S
Co396 O421 2.351 . S
Co396 O422 2.155 . S
Co396 O423 2.096 . S
C397 N400 1.301 . S
C397 N401 1.328 . S
C397 H402 0.930 . S
C398 C399 1.333 . S
C398 N400 1.317 . S
C398 H403 0.930 . S
C399 C398 1.333 . S
C399 N401 1.350 . S
C399 H425 0.931 . S
N400 Co396 2.148 . S
N400 C397 1.301 . S
N400 C398 1.317 . S
N401 C397 1.328 . S
N401 C399 1.350 . S
H402 C397 0.930 . S
H403 C398 0.930 . S
C404 O405 1.224 . S
C404 O423 1.247 . S
O405 C404 1.224 . S
N406 Co396 2.128 . S
N406 C407 1.355 . S
N406 C409 1.311 . S
C407 N406 1.355 . S
C407 C408 1.363 . S
C407 H419 0.929 . S
C408 C407 1.363 . S
C408 N410 1.375 . S
C408 H426 0.931 . S
C409 N406 1.311 . S
C409 N410 1.347 . S
C409 H420 0.929 . S
N410 C408 1.375 . S
N410 C409 1.347 . S
C411 C414 1.365 . S
C411 N416 1.328 . S
C411 H417 0.929 . S
C412 C413 1.362 . S
C412 C415 1.378 . S
C412 H427 0.929 . S
C413 C412 1.362 . S
C413 C414 1.366 . S
C414 C411 1.365 . S
C414 C413 1.366 . S
C414 H428 0.930 . S
C415 C412 1.378 . S
C415 N416 1.315 . S
C415 H418 0.930 . S
N416 Co396 2.194 . S
N416 C411 1.328 . S
N416 C415 1.315 . S
H417 C411 0.929 . S
H418 C415 0.930 . S
H419 C407 0.929 . S
H420 C409 0.929 . S
O421 Co396 2.351 . S
O421 C424 1.244 . S
O422 Co396 2.155 . S
O422 C424 1.240 . S
O423 Co396 2.096 . S
O423 C404 1.247 . S
C424 O421 1.244 . S
C424 O422 1.240 . S
H425 C399 0.931 . S
H426 C408 0.931 . S
H427 C412 0.929 . S
H428 C414 0.930 . S
Co429 N433 2.157 . S
Co429 N439 2.128 . S
Co429 N449 2.194 . S
Co429 O454 2.351 . S
Co429 O455 2.155 . S
Co429 O456 2.096 . S
C430 N433 1.297 1_455 S
C430 N434 1.328 . S
C430 H435 0.930 . S
C431 C432 1.333 . S
C431 N433 1.310 1_455 S
C431 H436 0.930 . S
C432 C431 1.333 . S
C432 N434 1.350 . S
C432 H458 0.931 . S
N433 Co429 2.157 . S
N433 C430 1.297 1_655 S
N433 C431 1.310 1_655 S
N434 C430 1.328 . S
N434 C432 1.350 . S
H435 C430 0.930 . S
H436 C431 0.930 . S
C437 O438 1.224 . S
C437 O456 1.247 . S
O438 C437 1.224 . S
N439 Co429 2.128 . S
N439 C440 1.355 . S
N439 C442 1.311 . S
C440 N439 1.355 . S
C440 C441 1.363 . S
C440 H452 0.929 . S
C441 C440 1.363 . S
C441 N443 1.375 . S
C441 H459 0.931 . S
C442 N439 1.311 . S
C442 N443 1.347 . S
C442 H453 0.929 . S
N443 C441 1.375 . S
N443 C442 1.347 . S
C444 C447 1.365 . S
C444 N449 1.328 . S
C444 H450 0.929 . S
C445 C446 1.362 . S
C445 C448 1.378 . S
C445 H460 0.929 . S
C446 C445 1.362 . S
C446 C447 1.366 . S
C447 C444 1.365 . S
C447 C446 1.366 . S
C447 H461 0.930 . S
C448 C445 1.378 . S
C448 N449 1.315 . S
C448 H451 0.930 . S
N449 Co429 2.194 . S
N449 C444 1.328 . S
N449 C448 1.315 . S
H450 C444 0.929 . S
H451 C448 0.930 . S
H452 C440 0.929 . S
H453 C442 0.929 . S
O454 Co429 2.351 . S
O454 C457 1.244 . S
O455 Co429 2.155 . S
O455 C457 1.240 . S
O456 Co429 2.096 . S
O456 C437 1.247 . S
C457 O454 1.244 . S
C457 O455 1.240 . S
H458 C432 0.931 . S
H459 C441 0.931 . S
H460 C445 0.929 . S
H461 C447 0.930 . S
Co462 N466 2.157 . S
Co462 N472 2.128 . S
Co462 N482 2.194 . S
Co462 O487 2.351 . S
Co462 O488 2.155 . S
Co462 O489 2.096 . S
C463 N466 1.297 1_545 S
C463 N467 1.328 . S
C463 H468 0.930 . S
C464 C465 1.333 . S
C464 N466 1.310 1_545 S
C464 H469 0.930 . S
C465 C464 1.333 . S
C465 N467 1.350 . S
C465 H491 0.931 . S
N466 Co462 2.157 . S
N466 C463 1.297 1_565 S
N466 C464 1.310 1_565 S
N467 C463 1.328 . S
N467 C465 1.350 . S
H468 C463 0.930 . S
H469 C464 0.930 . S
C470 O471 1.224 . S
C470 O489 1.247 . S
O471 C470 1.224 . S
N472 Co462 2.128 . S
N472 C473 1.355 . S
N472 C475 1.311 . S
C473 N472 1.355 . S
C473 C474 1.363 . S
C473 H485 0.929 . S
C474 C473 1.363 . S
C474 N476 1.375 . S
C474 H492 0.931 . S
C475 N472 1.311 . S
C475 N476 1.347 . S
C475 H486 0.929 . S
N476 C474 1.375 . S
N476 C475 1.347 . S
C477 C480 1.365 . S
C477 N482 1.328 . S
C477 H483 0.929 . S
C478 C479 1.362 . S
C478 C481 1.378 . S
C478 H493 0.929 . S
C479 C478 1.362 . S
C479 C480 1.366 . S
C480 C477 1.365 . S
C480 C479 1.366 . S
C480 H494 0.930 . S
C481 C478 1.378 . S
C481 N482 1.315 . S
C481 H484 0.930 . S
N482 Co462 2.194 . S
N482 C477 1.328 . S
N482 C481 1.315 . S
H483 C477 0.929 . S
H484 C481 0.930 . S
H485 C473 0.929 . S
H486 C475 0.929 . S
O487 Co462 2.351 . S
O487 C490 1.244 . S
O488 Co462 2.155 . S
O488 C490 1.240 . S
O489 Co462 2.096 . S
O489 C470 1.247 . S
C490 O487 1.244 . S
C490 O488 1.240 . S
H491 C465 0.931 . S
H492 C474 0.931 . S
H493 C478 0.929 . S
H494 C480 0.930 . S
Co495 N499 2.148 . S
Co495 N505 2.128 . S
Co495 N515 2.194 . S
Co495 O520 2.351 . S
Co495 O521 2.155 . S
Co495 O522 2.096 . S
C496 N499 1.301 . S
C496 N500 1.328 . S
C496 H501 0.930 . S
C497 C498 1.333 . S
C497 N499 1.317 . S
C497 H502 0.930 . S
C498 C497 1.333 . S
C498 N500 1.350 . S
C498 H524 0.931 . S
N499 Co495 2.148 . S
N499 C496 1.301 . S
N499 C497 1.317 . S
N500 C496 1.328 . S
N500 C498 1.350 . S
H501 C496 0.930 . S
H502 C497 0.930 . S
C503 O504 1.224 . S
C503 O522 1.247 . S
O504 C503 1.224 . S
N505 Co495 2.128 . S
N505 C506 1.355 . S
N505 C508 1.311 . S
C506 N505 1.355 . S
C506 C507 1.363 . S
C506 H518 0.929 . S
C507 C506 1.363 . S
C507 N509 1.375 . S
C507 H525 0.931 . S
C508 N505 1.311 . S
C508 N509 1.347 . S
C508 H519 0.929 . S
N509 C507 1.375 . S
N509 C508 1.347 . S
C510 C513 1.365 . S
C510 N515 1.328 . S
C510 H516 0.929 . S
C511 C512 1.362 . S
C511 C514 1.378 . S
C511 H526 0.929 . S
C512 C511 1.362 . S
C512 C513 1.366 . S
C513 C510 1.365 . S
C513 C512 1.366 . S
C513 H527 0.930 . S
C514 C511 1.378 . S
C514 N515 1.315 . S
C514 H517 0.930 . S
N515 Co495 2.194 . S
N515 C510 1.328 . S
N515 C514 1.315 . S
H516 C510 0.929 . S
H517 C514 0.930 . S
H518 C506 0.929 . S
H519 C508 0.929 . S
O520 Co495 2.351 . S
O520 C523 1.244 . S
O521 Co495 2.155 . S
O521 C523 1.240 . S
O522 Co495 2.096 . S
O522 C503 1.247 . S
C523 O520 1.244 . S
C523 O521 1.240 . S
H524 C498 0.931 . S
H525 C507 0.931 . S
H526 C511 0.929 . S
H527 C513 0.930 . S
C528 C529 1.391 . S
C528 C530 1.394 . S
C528 H544 0.931 . S
C529 C528 1.391 . S
C529 C533 1.376 . S
C530 C528 1.394 . S
C530 C531 1.369 . S
C530 C534 1.531 . S
C531 C530 1.369 . S
C531 C532 1.410 . S
C531 C539 1.503 . S
C532 C531 1.410 . S
C532 C533 1.392 . S
C532 C535 1.511 . S
C533 C529 1.376 . S
C533 C532 1.392 . S
C533 H545 0.929 . S
C534 C530 1.531 . S
C534 H546 0.960 . S
C534 H547 0.962 . S
C534 H548 0.960 . S
C535 C532 1.511 . S
C535 H549 0.961 . S
C535 H550 0.961 . S
C535 H551 0.961 . S
C536 C537 1.370 . S
C536 C538 1.363 . S
C536 H552 0.931 . S
C537 C536 1.370 . S
C537 C541 1.408 . S
C538 C536 1.363 . S
C538 C539 1.370 . S
C538 C542 1.524 . S
C539 C531 1.503 . S
C539 C538 1.370 . S
C539 C540 1.403 . S
C540 C539 1.403 . S
C540 C541 1.404 . S
C540 C543 1.539 . S
C541 C537 1.408 . S
C541 C540 1.404 . S
C541 H553 0.930 . S
C542 C538 1.524 . S
C542 H554 0.956 . S
C542 H555 0.961 . S
C542 H556 0.961 . S
C543 C540 1.539 . S
C543 H557 0.958 . S
C543 H558 0.961 . S
C543 H559 0.960 . S
H544 C528 0.931 . S
H545 C533 0.929 . S
H546 C534 0.960 . S
H547 C534 0.962 . S
H548 C534 0.960 . S
H549 C535 0.961 . S
H550 C535 0.961 . S
H551 C535 0.961 . S
H552 C536 0.931 . S
H553 C541 0.930 . S
H554 C542 0.956 . S
H555 C542 0.961 . S
H556 C542 0.961 . S
H557 C543 0.958 . S
H558 C543 0.961 . S
H559 C543 0.960 . S
C560 C561 1.391 . S
C560 C562 1.394 . S
C560 H576 0.931 . S
C561 C560 1.391 . S
C561 C565 1.376 . S
C562 C560 1.394 . S
C562 C563 1.369 . S
C562 C566 1.531 . S
C563 C562 1.369 . S
C563 C564 1.410 . S
C563 C571 1.503 . S
C564 C563 1.410 . S
C564 C565 1.392 . S
C564 C567 1.511 . S
C565 C561 1.376 . S
C565 C564 1.392 . S
C565 H577 0.929 . S
C566 C562 1.531 . S
C566 H578 0.960 . S
C566 H579 0.962 . S
C566 H580 0.960 . S
C567 C564 1.511 . S
C567 H581 0.961 . S
C567 H582 0.961 . S
C567 H583 0.961 . S
C568 C569 1.370 . S
C568 C570 1.363 . S
C568 H584 0.931 . S
C569 C568 1.370 . S
C569 C573 1.408 . S
C570 C568 1.363 . S
C570 C571 1.370 . S
C570 C574 1.524 . S
C571 C563 1.503 . S
C571 C570 1.370 . S
C571 C572 1.403 . S
C572 C571 1.403 . S
C572 C573 1.404 . S
C572 C575 1.539 . S
C573 C569 1.408 . S
C573 C572 1.404 . S
C573 H585 0.930 . S
C574 C570 1.524 . S
C574 H586 0.956 . S
C574 H587 0.961 . S
C574 H588 0.961 . S
C575 C572 1.539 . S
C575 H589 0.958 . S
C575 H590 0.961 . S
C575 H591 0.960 . S
H576 C560 0.931 . S
H577 C565 0.929 . S
H578 C566 0.960 . S
H579 C566 0.962 . S
H580 C566 0.960 . S
H581 C567 0.961 . S
H582 C567 0.961 . S
H583 C567 0.961 . S
H584 C568 0.931 . S
H585 C573 0.930 . S
H586 C574 0.956 . S
H587 C574 0.961 . S
H588 C574 0.961 . S
H589 C575 0.958 . S
H590 C575 0.961 . S
H591 C575 0.960 . S
C592 C593 1.391 . S
C592 C594 1.394 . S
C592 H608 0.931 . S
C593 C592 1.391 . S
C593 C597 1.376 . S
C594 C592 1.394 . S
C594 C595 1.369 . S
C594 C598 1.531 . S
C595 C594 1.369 . S
C595 C596 1.410 . S
C595 C603 1.503 . S
C596 C595 1.410 . S
C596 C597 1.392 . S
C596 C599 1.511 . S
C597 C593 1.376 . S
C597 C596 1.392 . S
C597 H609 0.929 . S
C598 C594 1.531 . S
C598 H610 0.960 . S
C598 H611 0.962 . S
C598 H612 0.960 . S
C599 C596 1.511 . S
C599 H613 0.961 . S
C599 H614 0.961 . S
C599 H615 0.961 . S
C600 C601 1.370 . S
C600 C602 1.363 . S
C600 H616 0.931 . S
C601 C600 1.370 . S
C601 C605 1.408 . S
C602 C600 1.363 . S
C602 C603 1.370 . S
C602 C606 1.524 . S
C603 C595 1.503 . S
C603 C602 1.370 . S
C603 C604 1.403 . S
C604 C603 1.403 . S
C604 C605 1.404 . S
C604 C607 1.539 . S
C605 C601 1.408 . S
C605 C604 1.404 . S
C605 H617 0.930 . S
C606 C602 1.524 . S
C606 H618 0.956 . S
C606 H619 0.961 . S
C606 H620 0.961 . S
C607 C604 1.539 . S
C607 H621 0.958 . S
C607 H622 0.961 . S
C607 H623 0.960 . S
H608 C592 0.931 . S
H609 C597 0.929 . S
H610 C598 0.960 . S
H611 C598 0.962 . S
H612 C598 0.960 . S
H613 C599 0.961 . S
H614 C599 0.961 . S
H615 C599 0.961 . S
H616 C600 0.931 . S
H617 C605 0.930 . S
H618 C606 0.956 . S
H619 C606 0.961 . S
H620 C606 0.961 . S
H621 C607 0.958 . S
H622 C607 0.961 . S
H623 C607 0.960 . S
C624 C625 1.391 . S
C624 C626 1.394 . S
C624 H640 0.931 . S
C625 C624 1.391 . S
C625 C629 1.376 . S
C626 C624 1.394 . S
C626 C627 1.369 . S
C626 C630 1.531 . S
C627 C626 1.369 . S
C627 C628 1.410 . S
C627 C635 1.503 . S
C628 C627 1.410 . S
C628 C629 1.392 . S
C628 C631 1.511 . S
C629 C625 1.376 . S
C629 C628 1.392 . S
C629 H641 0.929 . S
C630 C626 1.531 . S
C630 H642 0.960 . S
C630 H643 0.962 . S
C630 H644 0.960 . S
C631 C628 1.511 . S
C631 H645 0.961 . S
C631 H646 0.961 . S
C631 H647 0.961 . S
C632 C633 1.370 . S
C632 C634 1.363 . S
C632 H648 0.931 . S
C633 C632 1.370 . S
C633 C637 1.408 . S
C634 C632 1.363 . S
C634 C635 1.370 . S
C634 C638 1.524 . S
C635 C627 1.503 . S
C635 C634 1.370 . S
C635 C636 1.403 . S
C636 C635 1.403 . S
C636 C637 1.404 . S
C636 C639 1.539 . S
C637 C633 1.408 . S
C637 C636 1.404 . S
C637 H649 0.930 . S
C638 C634 1.524 . S
C638 H650 0.956 . S
C638 H651 0.961 . S
C638 H652 0.961 . S
C639 C636 1.539 . S
C639 H653 0.958 . S
C639 H654 0.961 . S
C639 H655 0.960 . S
H640 C624 0.931 . S
H641 C629 0.929 . S
H642 C630 0.960 . S
H643 C630 0.962 . S
H644 C630 0.960 . S
H645 C631 0.961 . S
H646 C631 0.961 . S
H647 C631 0.961 . S
H648 C632 0.931 . S
H649 C637 0.930 . S
H650 C638 0.956 . S
H651 C638 0.961 . S
H652 C638 0.961 . S
H653 C639 0.958 . S
H654 C639 0.961 . S
H655 C639 0.960 . S
C656 C657 1.391 . S
C656 C658 1.394 . S
C656 H672 0.931 . S
C657 C656 1.391 . S
C657 C661 1.376 . S
C658 C656 1.394 . S
C658 C659 1.369 . S
C658 C662 1.531 . S
C659 C658 1.369 . S
C659 C660 1.410 . S
C659 C667 1.503 . S
C660 C659 1.410 . S
C660 C661 1.392 . S
C660 C663 1.511 . S
C661 C657 1.376 . S
C661 C660 1.392 . S
C661 H673 0.929 . S
C662 C658 1.531 . S
C662 H674 0.960 . S
C662 H675 0.962 . S
C662 H676 0.960 . S
C663 C660 1.511 . S
C663 H677 0.961 . S
C663 H678 0.961 . S
C663 H679 0.961 . S
C664 C665 1.370 . S
C664 C666 1.363 . S
C664 H680 0.931 . S
C665 C664 1.370 . S
C665 C669 1.408 . S
C666 C664 1.363 . S
C666 C667 1.370 . S
C666 C670 1.524 . S
C667 C659 1.503 . S
C667 C666 1.370 . S
C667 C668 1.403 . S
C668 C667 1.403 . S
C668 C669 1.404 . S
C668 C671 1.539 . S
C669 C665 1.408 . S
C669 C668 1.404 . S
C669 H681 0.930 . S
C670 C666 1.524 . S
C670 H682 0.956 . S
C670 H683 0.961 . S
C670 H684 0.961 . S
C671 C668 1.539 . S
C671 H685 0.958 . S
C671 H686 0.961 . S
C671 H687 0.960 . S
H672 C656 0.931 . S
H673 C661 0.929 . S
H674 C662 0.960 . S
H675 C662 0.962 . S
H676 C662 0.960 . S
H677 C663 0.961 . S
H678 C663 0.961 . S
H679 C663 0.961 . S
H680 C664 0.931 . S
H681 C669 0.930 . S
H682 C670 0.956 . S
H683 C670 0.961 . S
H684 C670 0.961 . S
H685 C671 0.958 . S
H686 C671 0.961 . S
H687 C671 0.960 . S
C688 C689 1.391 . S
C688 C690 1.394 . S
C688 H704 0.931 . S
C689 C688 1.391 . S
C689 C693 1.376 . S
C690 C688 1.394 . S
C690 C691 1.369 . S
C690 C694 1.531 . S
C691 C690 1.369 . S
C691 C692 1.410 . S
C691 C699 1.503 . S
C692 C691 1.410 . S
C692 C693 1.392 . S
C692 C695 1.511 . S
C693 C689 1.376 . S
C693 C692 1.392 . S
C693 H705 0.929 . S
C694 C690 1.531 . S
C694 H706 0.960 . S
C694 H707 0.962 . S
C694 H708 0.960 . S
C695 C692 1.511 . S
C695 H709 0.961 . S
C695 H710 0.961 . S
C695 H711 0.961 . S
C696 C697 1.370 . S
C696 C698 1.363 . S
C696 H712 0.931 . S
C697 C696 1.370 . S
C697 C701 1.408 . S
C698 C696 1.363 . S
C698 C699 1.370 . S
C698 C702 1.524 . S
C699 C691 1.503 . S
C699 C698 1.370 . S
C699 C700 1.403 . S
C700 C699 1.403 . S
C700 C701 1.404 . S
C700 C703 1.539 . S
C701 C697 1.408 . S
C701 C700 1.404 . S
C701 H713 0.930 . S
C702 C698 1.524 . S
C702 H714 0.956 . S
C702 H715 0.961 . S
C702 H716 0.961 . S
C703 C700 1.539 . S
C703 H717 0.958 . S
C703 H718 0.961 . S
C703 H719 0.960 . S
H704 C688 0.931 . S
H705 C693 0.929 . S
H706 C694 0.960 . S
H707 C694 0.962 . S
H708 C694 0.960 . S
H709 C695 0.961 . S
H710 C695 0.961 . S
H711 C695 0.961 . S
H712 C696 0.931 . S
H713 C701 0.930 . S
H714 C702 0.956 . S
H715 C702 0.961 . S
H716 C702 0.961 . S
H717 C703 0.958 . S
H718 C703 0.961 . S
H719 C703 0.960 . S
C720 C721 1.391 . S
C720 C722 1.394 . S
C720 H736 0.931 . S
C721 C720 1.391 . S
C721 C725 1.376 . S
C722 C720 1.394 . S
C722 C723 1.369 . S
C722 C726 1.531 . S
C723 C722 1.369 . S
C723 C724 1.410 . S
C723 C731 1.503 . S
C724 C723 1.410 . S
C724 C725 1.392 . S
C724 C727 1.511 . S
C725 C721 1.376 . S
C725 C724 1.392 . S
C725 H737 0.929 . S
C726 C722 1.531 . S
C726 H738 0.960 . S
C726 H739 0.962 . S
C726 H740 0.960 . S
C727 C724 1.511 . S
C727 H741 0.961 . S
C727 H742 0.961 . S
C727 H743 0.961 . S
C728 C729 1.370 . S
C728 C730 1.363 . S
C728 H744 0.931 . S
C729 C728 1.370 . S
C729 C733 1.408 . S
C730 C728 1.363 . S
C730 C731 1.370 . S
C730 C734 1.524 . S
C731 C723 1.503 . S
C731 C730 1.370 . S
C731 C732 1.403 . S
C732 C731 1.403 . S
C732 C733 1.404 . S
C732 C735 1.539 . S
C733 C729 1.408 . S
C733 C732 1.404 . S
C733 H745 0.930 . S
C734 C730 1.524 . S
C734 H746 0.956 . S
C734 H747 0.961 . S
C734 H748 0.961 . S
C735 C732 1.539 . S
C735 H749 0.958 . S
C735 H750 0.961 . S
C735 H751 0.960 . S
H736 C720 0.931 . S
H737 C725 0.929 . S
H738 C726 0.960 . S
H739 C726 0.962 . S
H740 C726 0.960 . S
H741 C727 0.961 . S
H742 C727 0.961 . S
H743 C727 0.961 . S
H744 C728 0.931 . S
H745 C733 0.930 . S
H746 C734 0.956 . S
H747 C734 0.961 . S
H748 C734 0.961 . S
H749 C735 0.958 . S
H750 C735 0.961 . S
H751 C735 0.960 . S
C752 C753 1.391 . S
C752 C754 1.394 . S
C752 H768 0.931 . S
C753 C752 1.391 . S
C753 C757 1.376 . S
C754 C752 1.394 . S
C754 C755 1.369 . S
C754 C758 1.531 . S
C755 C754 1.369 . S
C755 C756 1.410 . S
C755 C763 1.503 . S
C756 C755 1.410 . S
C756 C757 1.392 . S
C756 C759 1.511 . S
C757 C753 1.376 . S
C757 C756 1.392 . S
C757 H769 0.929 . S
C758 C754 1.531 . S
C758 H770 0.960 . S
C758 H771 0.962 . S
C758 H772 0.960 . S
C759 C756 1.511 . S
C759 H773 0.961 . S
C759 H774 0.961 . S
C759 H775 0.961 . S
C760 C761 1.370 . S
C760 C762 1.363 . S
C760 H776 0.931 . S
C761 C760 1.370 . S
C761 C765 1.408 . S
C762 C760 1.363 . S
C762 C763 1.370 . S
C762 C766 1.524 . S
C763 C755 1.503 . S
C763 C762 1.370 . S
C763 C764 1.403 . S
C764 C763 1.403 . S
C764 C765 1.404 . S
C764 C767 1.539 . S
C765 C761 1.408 . S
C765 C764 1.404 . S
C765 H777 0.930 . S
C766 C762 1.524 . S
C766 H778 0.956 . S
C766 H779 0.961 . S
C766 H780 0.961 . S
C767 C764 1.539 . S
C767 H781 0.958 . S
C767 H782 0.961 . S
C767 H783 0.960 . S
H768 C752 0.931 . S
H769 C757 0.929 . S
H770 C758 0.960 . S
H771 C758 0.962 . S
H772 C758 0.960 . S
H773 C759 0.961 . S
H774 C759 0.961 . S
H775 C759 0.961 . S
H776 C760 0.931 . S
H777 C765 0.930 . S
H778 C766 0.956 . S
H779 C766 0.961 . S
H780 C766 0.961 . S
H781 C767 0.958 . S
H782 C767 0.961 . S
H783 C767 0.960 . S
C784 C785 1.391 . S
C784 C786 1.394 . S
C784 H800 0.931 . S
C785 C784 1.391 . S
C785 C789 1.376 . S
C786 C784 1.394 . S
C786 C787 1.369 . S
C786 C790 1.531 . S
C787 C786 1.369 . S
C787 C788 1.410 . S
C787 C795 1.503 . S
C788 C787 1.410 . S
C788 C789 1.392 . S
C788 C791 1.511 . S
C789 C785 1.376 . S
C789 C788 1.392 . S
C789 H801 0.929 . S
C790 C786 1.531 . S
C790 H802 0.960 . S
C790 H803 0.962 . S
C790 H804 0.960 . S
C791 C788 1.511 . S
C791 H805 0.961 . S
C791 H806 0.961 . S
C791 H807 0.961 . S
C792 C793 1.370 . S
C792 C794 1.363 . S
C792 H808 0.931 . S
C793 C792 1.370 . S
C793 C797 1.408 . S
C794 C792 1.363 . S
C794 C795 1.370 . S
C794 C798 1.524 . S
C795 C787 1.503 . S
C795 C794 1.370 . S
C795 C796 1.403 . S
C796 C795 1.403 . S
C796 C797 1.404 . S
C796 C799 1.539 . S
C797 C793 1.408 . S
C797 C796 1.404 . S
C797 H809 0.930 . S
C798 C794 1.524 . S
C798 H810 0.956 . S
C798 H811 0.961 . S
C798 H812 0.961 . S
C799 C796 1.539 . S
C799 H813 0.958 . S
C799 H814 0.961 . S
C799 H815 0.960 . S
H800 C784 0.931 . S
H801 C789 0.929 . S
H802 C790 0.960 . S
H803 C790 0.962 . S
H804 C790 0.960 . S
H805 C791 0.961 . S
H806 C791 0.961 . S
H807 C791 0.961 . S
H808 C792 0.931 . S
H809 C797 0.930 . S
H810 C798 0.956 . S
H811 C798 0.961 . S
H812 C798 0.961 . S
H813 C799 0.958 . S
H814 C799 0.961 . S
H815 C799 0.960 . S
C816 C817 1.391 . S
C816 C818 1.394 . S
C816 H832 0.931 . S
C817 C816 1.391 . S
C817 C821 1.376 . S
C818 C816 1.394 . S
C818 C819 1.369 . S
C818 C822 1.531 . S
C819 C818 1.369 . S
C819 C820 1.410 . S
C819 C827 1.503 . S
C820 C819 1.410 . S
C820 C821 1.392 . S
C820 C823 1.511 . S
C821 C817 1.376 . S
C821 C820 1.392 . S
C821 H833 0.929 . S
C822 C818 1.531 . S
C822 H834 0.960 . S
C822 H835 0.962 . S
C822 H836 0.960 . S
C823 C820 1.511 . S
C823 H837 0.961 . S
C823 H838 0.961 . S
C823 H839 0.961 . S
C824 C825 1.370 . S
C824 C826 1.363 . S
C824 H840 0.931 . S
C825 C824 1.370 . S
C825 C829 1.408 . S
C826 C824 1.363 . S
C826 C827 1.370 . S
C826 C830 1.524 . S
C827 C819 1.503 . S
C827 C826 1.370 . S
C827 C828 1.403 . S
C828 C827 1.403 . S
C828 C829 1.404 . S
C828 C831 1.539 . S
C829 C825 1.408 . S
C829 C828 1.404 . S
C829 H841 0.930 . S
C830 C826 1.524 . S
C830 H842 0.956 . S
C830 H843 0.961 . S
C830 H844 0.961 . S
C831 C828 1.539 . S
C831 H845 0.958 . S
C831 H846 0.961 . S
C831 H847 0.960 . S
H832 C816 0.931 . S
H833 C821 0.929 . S
H834 C822 0.960 . S
H835 C822 0.962 . S
H836 C822 0.960 . S
H837 C823 0.961 . S
H838 C823 0.961 . S
H839 C823 0.961 . S
H840 C824 0.931 . S
H841 C829 0.930 . S
H842 C830 0.956 . S
H843 C830 0.961 . S
H844 C830 0.961 . S
H845 C831 0.958 . S
H846 C831 0.961 . S
H847 C831 0.960 . S
C848 C849 1.391 . S
C848 C850 1.394 . S
C848 H864 0.931 . S
C849 C848 1.391 . S
C849 C853 1.376 . S
C850 C848 1.394 . S
C850 C851 1.369 . S
C850 C854 1.531 . S
C851 C850 1.369 . S
C851 C852 1.410 . S
C851 C859 1.503 . S
C852 C851 1.410 . S
C852 C853 1.392 . S
C852 C855 1.511 . S
C853 C849 1.376 . S
C853 C852 1.392 . S
C853 H865 0.929 . S
C854 C850 1.531 . S
C854 H866 0.960 . S
C854 H867 0.962 . S
C854 H868 0.960 . S
C855 C852 1.511 . S
C855 H869 0.961 . S
C855 H870 0.961 . S
C855 H871 0.961 . S
C856 C857 1.370 . S
C856 C858 1.363 . S
C856 H872 0.931 . S
C857 C856 1.370 . S
C857 C861 1.408 . S
C858 C856 1.363 . S
C858 C859 1.370 . S
C858 C862 1.524 . S
C859 C851 1.503 . S
C859 C858 1.370 . S
C859 C860 1.403 . S
C860 C859 1.403 . S
C860 C861 1.404 . S
C860 C863 1.539 . S
C861 C857 1.408 . S
C861 C860 1.404 . S
C861 H873 0.930 . S
C862 C858 1.524 . S
C862 H874 0.956 . S
C862 H875 0.961 . S
C862 H876 0.961 . S
C863 C860 1.539 . S
C863 H877 0.958 . S
C863 H878 0.961 . S
C863 H879 0.960 . S
H864 C848 0.931 . S
H865 C853 0.929 . S
H866 C854 0.960 . S
H867 C854 0.962 . S
H868 C854 0.960 . S
H869 C855 0.961 . S
H870 C855 0.961 . S
H871 C855 0.961 . S
H872 C856 0.931 . S
H873 C861 0.930 . S
H874 C862 0.956 . S
H875 C862 0.961 . S
H876 C862 0.961 . S
H877 C863 0.958 . S
H878 C863 0.961 . S
H879 C863 0.960 . S
C880 C881 1.391 . S
C880 C882 1.394 . S
C880 H896 0.931 . S
C881 C880 1.391 . S
C881 C885 1.376 . S
C882 C880 1.394 . S
C882 C883 1.369 . S
C882 C886 1.531 . S
C883 C882 1.369 . S
C883 C884 1.410 . S
C883 C891 1.503 . S
C884 C883 1.410 . S
C884 C885 1.392 . S
C884 C887 1.511 . S
C885 C881 1.376 . S
C885 C884 1.392 . S
C885 H897 0.929 . S
C886 C882 1.531 . S
C886 H898 0.960 . S
C886 H899 0.962 . S
C886 H900 0.960 . S
C887 C884 1.511 . S
C887 H901 0.961 . S
C887 H902 0.961 . S
C887 H903 0.961 . S
C888 C889 1.370 . S
C888 C890 1.363 . S
C888 H904 0.931 . S
C889 C888 1.370 . S
C889 C893 1.408 . S
C890 C888 1.363 . S
C890 C891 1.370 . S
C890 C894 1.524 . S
C891 C883 1.503 . S
C891 C890 1.370 . S
C891 C892 1.403 . S
C892 C891 1.403 . S
C892 C893 1.404 . S
C892 C895 1.539 . S
C893 C889 1.408 . S
C893 C892 1.404 . S
C893 H905 0.930 . S
C894 C890 1.524 . S
C894 H906 0.956 . S
C894 H907 0.961 . S
C894 H908 0.961 . S
C895 C892 1.539 . S
C895 H909 0.958 . S
C895 H910 0.961 . S
C895 H911 0.960 . S
H896 C880 0.931 . S
H897 C885 0.929 . S
H898 C886 0.960 . S
H899 C886 0.962 . S
H900 C886 0.960 . S
H901 C887 0.961 . S
H902 C887 0.961 . S
H903 C887 0.961 . S
H904 C888 0.931 . S
H905 C893 0.930 . S
H906 C894 0.956 . S
H907 C894 0.961 . S
H908 C894 0.961 . S
H909 C895 0.958 . S
H910 C895 0.961 . S
H911 C895 0.960 . S
C912 C913 1.391 . S
C912 C914 1.394 . S
C912 H928 0.931 . S
C913 C912 1.391 . S
C913 C917 1.376 . S
C914 C912 1.394 . S
C914 C915 1.369 . S
C914 C918 1.531 . S
C915 C914 1.369 . S
C915 C916 1.410 . S
C915 C923 1.503 . S
C916 C915 1.410 . S
C916 C917 1.392 . S
C916 C919 1.511 . S
C917 C913 1.376 . S
C917 C916 1.392 . S
C917 H929 0.929 . S
C918 C914 1.531 . S
C918 H930 0.960 . S
C918 H931 0.962 . S
C918 H932 0.960 . S
C919 C916 1.511 . S
C919 H933 0.961 . S
C919 H934 0.961 . S
C919 H935 0.961 . S
C920 C921 1.370 . S
C920 C922 1.363 . S
C920 H936 0.931 . S
C921 C920 1.370 . S
C921 C925 1.408 . S
C922 C920 1.363 . S
C922 C923 1.370 . S
C922 C926 1.524 . S
C923 C915 1.503 . S
C923 C922 1.370 . S
C923 C924 1.403 . S
C924 C923 1.403 . S
C924 C925 1.404 . S
C924 C927 1.539 . S
C925 C921 1.408 . S
C925 C924 1.404 . S
C925 H937 0.930 . S
C926 C922 1.524 . S
C926 H938 0.956 . S
C926 H939 0.961 . S
C926 H940 0.961 . S
C927 C924 1.539 . S
C927 H941 0.958 . S
C927 H942 0.961 . S
C927 H943 0.960 . S
H928 C912 0.931 . S
H929 C917 0.929 . S
H930 C918 0.960 . S
H931 C918 0.962 . S
H932 C918 0.960 . S
H933 C919 0.961 . S
H934 C919 0.961 . S
H935 C919 0.961 . S
H936 C920 0.931 . S
H937 C925 0.930 . S
H938 C926 0.956 . S
H939 C926 0.961 . S
H940 C926 0.961 . S
H941 C927 0.958 . S
H942 C927 0.961 . S
H943 C927 0.960 . S
C944 C945 1.391 . S
C944 C946 1.394 . S
C944 H960 0.931 . S
C945 C944 1.391 . S
C945 C949 1.376 . S
C946 C944 1.394 . S
C946 C947 1.369 . S
C946 C950 1.531 . S
C947 C946 1.369 . S
C947 C948 1.410 . S
C947 C955 1.503 . S
C948 C947 1.410 . S
C948 C949 1.392 . S
C948 C951 1.511 . S
C949 C945 1.376 . S
C949 C948 1.392 . S
C949 H961 0.929 . S
C950 C946 1.531 . S
C950 H962 0.960 . S
C950 H963 0.962 . S
C950 H964 0.960 . S
C951 C948 1.511 . S
C951 H965 0.961 . S
C951 H966 0.961 . S
C951 H967 0.961 . S
C952 C953 1.370 . S
C952 C954 1.363 . S
C952 H968 0.931 . S
C953 C952 1.370 . S
C953 C957 1.408 . S
C954 C952 1.363 . S
C954 C955 1.370 . S
C954 C958 1.524 . S
C955 C947 1.503 . S
C955 C954 1.370 . S
C955 C956 1.403 . S
C956 C955 1.403 . S
C956 C957 1.404 . S
C956 C959 1.539 . S
C957 C953 1.408 . S
C957 C956 1.404 . S
C957 H969 0.930 . S
C958 C954 1.524 . S
C958 H970 0.956 . S
C958 H971 0.961 . S
C958 H972 0.961 . S
C959 C956 1.539 . S
C959 H973 0.958 . S
C959 H974 0.961 . S
C959 H975 0.960 . S
H960 C944 0.931 . S
H961 C949 0.929 . S
H962 C950 0.960 . S
H963 C950 0.962 . S
H964 C950 0.960 . S
H965 C951 0.961 . S
H966 C951 0.961 . S
H967 C951 0.961 . S
H968 C952 0.931 . S
H969 C957 0.930 . S
H970 C958 0.956 . S
H971 C958 0.961 . S
H972 C958 0.961 . S
H973 C959 0.958 . S
H974 C959 0.961 . S
H975 C959 0.960 . S
C976 C977 1.391 . S
C976 C978 1.394 . S
C976 H992 0.931 . S
C977 C976 1.391 . S
C977 C981 1.376 . S
C978 C976 1.394 . S
C978 C979 1.369 . S
C978 C982 1.531 . S
C979 C978 1.369 . S
C979 C980 1.410 . S
C979 C987 1.503 . S
C980 C979 1.410 . S
C980 C981 1.392 . S
C980 C983 1.511 . S
C981 C977 1.376 . S
C981 C980 1.392 . S
C981 H993 0.929 . S
C982 C978 1.531 . S
C982 H994 0.960 . S
C982 H995 0.962 . S
C982 H996 0.960 . S
C983 C980 1.511 . S
C983 H997 0.961 . S
C983 H998 0.961 . S
C983 H999 0.961 . S
C984 C985 1.370 . S
C984 C986 1.363 . S
C984 H1000 0.931 . S
C985 C984 1.370 . S
C985 C989 1.408 . S
C986 C984 1.363 . S
C986 C987 1.370 . S
C986 C990 1.524 . S
C987 C979 1.503 . S
C987 C986 1.370 . S
C987 C988 1.403 . S
C988 C987 1.403 . S
C988 C989 1.404 . S
C988 C991 1.539 . S
C989 C985 1.408 . S
C989 C988 1.404 . S
C989 H1001 0.930 . S
C990 C986 1.524 . S
C990 H1002 0.956 . S
C990 H1003 0.961 . S
C990 H1004 0.961 . S
C991 C988 1.539 . S
C991 H1005 0.958 . S
C991 H1006 0.961 . S
C991 H1007 0.960 . S
H992 C976 0.931 . S
H993 C981 0.929 . S
H994 C982 0.960 . S
H995 C982 0.962 . S
H996 C982 0.960 . S
H997 C983 0.961 . S
H998 C983 0.961 . S
H999 C983 0.961 . S
H1000 C984 0.931 . S
H1001 C989 0.930 . S
H1002 C990 0.956 . S
H1003 C990 0.961 . S
H1004 C990 0.961 . S
H1005 C991 0.958 . S
H1006 C991 0.961 . S
H1007 C991 0.960 . S
C1008 C1009 1.391 . S
C1008 C1010 1.394 . S
C1008 H1024 0.931 . S
C1009 C1008 1.391 . S
C1009 C1013 1.376 . S
C1010 C1008 1.394 . S
C1010 C1011 1.369 . S
C1010 C1014 1.531 . S
C1011 C1010 1.369 . S
C1011 C1012 1.410 . S
C1011 C1019 1.503 . S
C1012 C1011 1.410 . S
C1012 C1013 1.392 . S
C1012 C1015 1.511 . S
C1013 C1009 1.376 . S
C1013 C1012 1.392 . S
C1013 H1025 0.929 . S
C1014 C1010 1.531 . S
C1014 H1026 0.960 . S
C1014 H1027 0.962 . S
C1014 H1028 0.960 . S
C1015 C1012 1.511 . S
C1015 H1029 0.961 . S
C1015 H1030 0.961 . S
C1015 H1031 0.961 . S
C1016 C1017 1.370 . S
C1016 C1018 1.363 . S
C1016 H1032 0.931 . S
C1017 C1016 1.370 . S
C1017 C1021 1.408 . S
C1018 C1016 1.363 . S
C1018 C1019 1.370 . S
C1018 C1022 1.524 . S
C1019 C1011 1.503 . S
C1019 C1018 1.370 . S
C1019 C1020 1.403 . S
C1020 C1019 1.403 . S
C1020 C1021 1.404 . S
C1020 C1023 1.539 . S
C1021 C1017 1.408 . S
C1021 C1020 1.404 . S
C1021 H1033 0.930 . S
C1022 C1018 1.524 . S
C1022 H1034 0.956 . S
C1022 H1035 0.961 . S
C1022 H1036 0.961 . S
C1023 C1020 1.539 . S
C1023 H1037 0.958 . S
C1023 H1038 0.961 . S
C1023 H1039 0.960 . S
H1024 C1008 0.931 . S
H1025 C1013 0.929 . S
H1026 C1014 0.960 . S
H1027 C1014 0.962 . S
H1028 C1014 0.960 . S
H1029 C1015 0.961 . S
H1030 C1015 0.961 . S
H1031 C1015 0.961 . S
H1032 C1016 0.931 . S
H1033 C1021 0.930 . S
H1034 C1022 0.956 . S
H1035 C1022 0.961 . S
H1036 C1022 0.961 . S
H1037 C1023 0.958 . S
H1038 C1023 0.961 . S
H1039 C1023 0.960 . S
C1040 C1041 1.391 . S
C1040 C1042 1.394 . S
C1040 H1056 0.931 . S
C1041 C1040 1.391 . S
C1041 C1045 1.376 . S
C1042 C1040 1.394 . S
C1042 C1043 1.369 . S
C1042 C1046 1.531 . S
C1043 C1042 1.369 . S
C1043 C1044 1.410 . S
C1043 C1051 1.503 . S
C1044 C1043 1.410 . S
C1044 C1045 1.392 . S
C1044 C1047 1.511 . S
C1045 C1041 1.376 . S
C1045 C1044 1.392 . S
C1045 H1057 0.929 . S
C1046 C1042 1.531 . S
C1046 H1058 0.960 . S
C1046 H1059 0.962 . S
C1046 H1060 0.960 . S
C1047 C1044 1.511 . S
C1047 H1061 0.961 . S
C1047 H1062 0.961 . S
C1047 H1063 0.961 . S
C1048 C1049 1.370 . S
C1048 C1050 1.363 . S
C1048 H1064 0.931 . S
C1049 C1048 1.370 . S
C1049 C1053 1.408 . S
C1050 C1048 1.363 . S
C1050 C1051 1.370 . S
C1050 C1054 1.524 . S
C1051 C1043 1.503 . S
C1051 C1050 1.370 . S
C1051 C1052 1.403 . S
C1052 C1051 1.403 . S
C1052 C1053 1.404 . S
C1052 C1055 1.539 . S
C1053 C1049 1.408 . S
C1053 C1052 1.404 . S
C1053 H1065 0.930 . S
C1054 C1050 1.524 . S
C1054 H1066 0.956 . S
C1054 H1067 0.961 . S
C1054 H1068 0.961 . S
C1055 C1052 1.539 . S
C1055 H1069 0.958 . S
C1055 H1070 0.961 . S
C1055 H1071 0.960 . S
H1056 C1040 0.931 . S
H1057 C1045 0.929 . S
H1058 C1046 0.960 . S
H1059 C1046 0.962 . S
H1060 C1046 0.960 . S
H1061 C1047 0.961 . S
H1062 C1047 0.961 . S
H1063 C1047 0.961 . S
H1064 C1048 0.931 . S
H1065 C1053 0.930 . S
H1066 C1054 0.956 . S
H1067 C1054 0.961 . S
H1068 C1054 0.961 . S
H1069 C1055 0.958 . S
H1070 C1055 0.961 . S
H1071 C1055 0.960 . S
C1072 C1073 1.391 . S
C1072 C1074 1.394 . S
C1072 H1088 0.931 . S
C1073 C1072 1.391 . S
C1073 C1077 1.376 . S
C1074 C1072 1.394 . S
C1074 C1075 1.369 . S
C1074 C1078 1.531 . S
C1075 C1074 1.369 . S
C1075 C1076 1.410 . S
C1075 C1083 1.503 . S
C1076 C1075 1.410 . S
C1076 C1077 1.392 . S
C1076 C1079 1.511 . S
C1077 C1073 1.376 . S
C1077 C1076 1.392 . S
C1077 H1089 0.929 . S
C1078 C1074 1.531 . S
C1078 H1090 0.960 . S
C1078 H1091 0.962 . S
C1078 H1092 0.960 . S
C1079 C1076 1.511 . S
C1079 H1093 0.961 . S
C1079 H1094 0.961 . S
C1079 H1095 0.961 . S
C1080 C1081 1.370 . S
C1080 C1082 1.363 . S
C1080 H1096 0.931 . S
C1081 C1080 1.370 . S
C1081 C1085 1.408 . S
C1082 C1080 1.363 . S
C1082 C1083 1.370 . S
C1082 C1086 1.524 . S
C1083 C1075 1.503 . S
C1083 C1082 1.370 . S
C1083 C1084 1.403 . S
C1084 C1083 1.403 . S
C1084 C1085 1.404 . S
C1084 C1087 1.539 . S
C1085 C1081 1.408 . S
C1085 C1084 1.404 . S
C1085 H1097 0.930 . S
C1086 C1082 1.524 . S
C1086 H1098 0.956 . S
C1086 H1099 0.961 . S
C1086 H1100 0.961 . S
C1087 C1084 1.539 . S
C1087 H1101 0.958 . S
C1087 H1102 0.961 . S
C1087 H1103 0.960 . S
H1088 C1072 0.931 . S
H1089 C1077 0.929 . S
H1090 C1078 0.960 . S
H1091 C1078 0.962 . S
H1092 C1078 0.960 . S
H1093 C1079 0.961 . S
H1094 C1079 0.961 . S
H1095 C1079 0.961 . S
H1096 C1080 0.931 . S
H1097 C1085 0.930 . S
H1098 C1086 0.956 . S
H1099 C1086 0.961 . S
H1100 C1086 0.961 . S
H1101 C1087 0.958 . S
H1102 C1087 0.961 . S
H1103 C1087 0.960 . S
C1104 C1105 1.391 . S
C1104 C1106 1.394 . S
C1104 H1120 0.931 . S
C1105 C1104 1.391 . S
C1105 C1109 1.376 . S
C1106 C1104 1.394 . S
C1106 C1107 1.369 . S
C1106 C1110 1.531 . S
C1107 C1106 1.369 . S
C1107 C1108 1.410 . S
C1107 C1115 1.503 . S
C1108 C1107 1.410 . S
C1108 C1109 1.392 . S
C1108 C1111 1.511 . S
C1109 C1105 1.376 . S
C1109 C1108 1.392 . S
C1109 H1121 0.929 . S
C1110 C1106 1.531 . S
C1110 H1122 0.960 . S
C1110 H1123 0.962 . S
C1110 H1124 0.960 . S
C1111 C1108 1.511 . S
C1111 H1125 0.961 . S
C1111 H1126 0.961 . S
C1111 H1127 0.961 . S
C1112 C1113 1.370 . S
C1112 C1114 1.363 . S
C1112 H1128 0.931 . S
C1113 C1112 1.370 . S
C1113 C1117 1.408 . S
C1114 C1112 1.363 . S
C1114 C1115 1.370 . S
C1114 C1118 1.524 . S
C1115 C1107 1.503 . S
C1115 C1114 1.370 . S
C1115 C1116 1.403 . S
C1116 C1115 1.403 . S
C1116 C1117 1.404 . S
C1116 C1119 1.539 . S
C1117 C1113 1.408 . S
C1117 C1116 1.404 . S
C1117 H1129 0.930 . S
C1118 C1114 1.524 . S
C1118 H1130 0.956 . S
C1118 H1131 0.961 . S
C1118 H1132 0.961 . S
C1119 C1116 1.539 . S
C1119 H1133 0.958 . S
C1119 H1134 0.961 . S
C1119 H1135 0.960 . S
H1120 C1104 0.931 . S
H1121 C1109 0.929 . S
H1122 C1110 0.960 . S
H1123 C1110 0.962 . S
H1124 C1110 0.960 . S
H1125 C1111 0.961 . S
H1126 C1111 0.961 . S
H1127 C1111 0.961 . S
H1128 C1112 0.931 . S
H1129 C1117 0.930 . S
H1130 C1118 0.956 . S
H1131 C1118 0.961 . S
H1132 C1118 0.961 . S
H1133 C1119 0.958 . S
H1134 C1119 0.961 . S
H1135 C1119 0.960 . S
C1136 C1137 1.391 . S
C1136 C1138 1.394 . S
C1136 H1152 0.931 . S
C1137 C1136 1.391 . S
C1137 C1141 1.376 . S
C1138 C1136 1.394 . S
C1138 C1139 1.369 . S
C1138 C1142 1.531 . S
C1139 C1138 1.369 . S
C1139 C1140 1.410 . S
C1139 C1147 1.503 . S
C1140 C1139 1.410 . S
C1140 C1141 1.392 . S
C1140 C1143 1.511 . S
C1141 C1137 1.376 . S
C1141 C1140 1.392 . S
C1141 H1153 0.929 . S
C1142 C1138 1.531 . S
C1142 H1154 0.960 . S
C1142 H1155 0.962 . S
C1142 H1156 0.960 . S
C1143 C1140 1.511 . S
C1143 H1157 0.961 . S
C1143 H1158 0.961 . S
C1143 H1159 0.961 . S
C1144 C1145 1.370 . S
C1144 C1146 1.363 . S
C1144 H1160 0.931 . S
C1145 C1144 1.370 . S
C1145 C1149 1.408 . S
C1146 C1144 1.363 . S
C1146 C1147 1.370 . S
C1146 C1150 1.524 . S
C1147 C1139 1.503 . S
C1147 C1146 1.370 . S
C1147 C1148 1.403 . S
C1148 C1147 1.403 . S
C1148 C1149 1.404 . S
C1148 C1151 1.539 . S
C1149 C1145 1.408 . S
C1149 C1148 1.404 . S
C1149 H1161 0.930 . S
C1150 C1146 1.524 . S
C1150 H1162 0.956 . S
C1150 H1163 0.961 . S
C1150 H1164 0.961 . S
C1151 C1148 1.539 . S
C1151 H1165 0.958 . S
C1151 H1166 0.961 . S
C1151 H1167 0.960 . S
H1152 C1136 0.931 . S
H1153 C1141 0.929 . S
H1154 C1142 0.960 . S
H1155 C1142 0.962 . S
H1156 C1142 0.960 . S
H1157 C1143 0.961 . S
H1158 C1143 0.961 . S
H1159 C1143 0.961 . S
H1160 C1144 0.931 . S
H1161 C1149 0.930 . S
H1162 C1150 0.956 . S
H1163 C1150 0.961 . S
H1164 C1150 0.961 . S
H1165 C1151 0.958 . S
H1166 C1151 0.961 . S
H1167 C1151 0.960 . S
C1168 C1169 1.391 . S
C1168 C1170 1.394 . S
C1168 H1184 0.931 . S
C1169 C1168 1.391 . S
C1169 C1173 1.376 . S
C1170 C1168 1.394 . S
C1170 C1171 1.369 . S
C1170 C1174 1.531 . S
C1171 C1170 1.369 . S
C1171 C1172 1.410 . S
C1171 C1179 1.503 . S
C1172 C1171 1.410 . S
C1172 C1173 1.392 . S
C1172 C1175 1.511 . S
C1173 C1169 1.376 . S
C1173 C1172 1.392 . S
C1173 H1185 0.929 . S
C1174 C1170 1.531 . S
C1174 H1186 0.960 . S
C1174 H1187 0.962 . S
C1174 H1188 0.960 . S
C1175 C1172 1.511 . S
C1175 H1189 0.961 . S
C1175 H1190 0.961 . S
C1175 H1191 0.961 . S
C1176 C1177 1.370 . S
C1176 C1178 1.363 . S
C1176 H1192 0.931 . S
C1177 C1176 1.370 . S
C1177 C1181 1.408 . S
C1178 C1176 1.363 . S
C1178 C1179 1.370 . S
C1178 C1182 1.524 . S
C1179 C1171 1.503 . S
C1179 C1178 1.370 . S
C1179 C1180 1.403 . S
C1180 C1179 1.403 . S
C1180 C1181 1.404 . S
C1180 C1183 1.539 . S
C1181 C1177 1.408 . S
C1181 C1180 1.404 . S
C1181 H1193 0.930 . S
C1182 C1178 1.524 . S
C1182 H1194 0.956 . S
C1182 H1195 0.961 . S
C1182 H1196 0.961 . S
C1183 C1180 1.539 . S
C1183 H1197 0.958 . S
C1183 H1198 0.961 . S
C1183 H1199 0.960 . S
H1184 C1168 0.931 . S
H1185 C1173 0.929 . S
H1186 C1174 0.960 . S
H1187 C1174 0.962 . S
H1188 C1174 0.960 . S
H1189 C1175 0.961 . S
H1190 C1175 0.961 . S
H1191 C1175 0.961 . S
H1192 C1176 0.931 . S
H1193 C1181 0.930 . S
H1194 C1182 0.956 . S
H1195 C1182 0.961 . S
H1196 C1182 0.961 . S
H1197 C1183 0.958 . S
H1198 C1183 0.961 . S
H1199 C1183 0.960 . S
C1200 C1201 1.391 . S
C1200 C1202 1.394 . S
C1200 H1216 0.931 . S
C1201 C1200 1.391 . S
C1201 C1205 1.376 . S
C1202 C1200 1.394 . S
C1202 C1203 1.369 . S
C1202 C1206 1.531 . S
C1203 C1202 1.369 . S
C1203 C1204 1.410 . S
C1203 C1211 1.503 . S
C1204 C1203 1.410 . S
C1204 C1205 1.392 . S
C1204 C1207 1.511 . S
C1205 C1201 1.376 . S
C1205 C1204 1.392 . S
C1205 H1217 0.929 . S
C1206 C1202 1.531 . S
C1206 H1218 0.960 . S
C1206 H1219 0.962 . S
C1206 H1220 0.960 . S
C1207 C1204 1.511 . S
C1207 H1221 0.961 . S
C1207 H1222 0.961 . S
C1207 H1223 0.961 . S
C1208 C1209 1.370 . S
C1208 C1210 1.363 . S
C1208 H1224 0.931 . S
C1209 C1208 1.370 . S
C1209 C1213 1.408 . S
C1210 C1208 1.363 . S
C1210 C1211 1.370 . S
C1210 C1214 1.524 . S
C1211 C1203 1.503 . S
C1211 C1210 1.370 . S
C1211 C1212 1.403 . S
C1212 C1211 1.403 . S
C1212 C1213 1.404 . S
C1212 C1215 1.539 . S
C1213 C1209 1.408 . S
C1213 C1212 1.404 . S
C1213 H1225 0.930 . S
C1214 C1210 1.524 . S
C1214 H1226 0.956 . S
C1214 H1227 0.961 . S
C1214 H1228 0.961 . S
C1215 C1212 1.539 . S
C1215 H1229 0.958 . S
C1215 H1230 0.961 . S
C1215 H1231 0.960 . S
H1216 C1200 0.931 . S
H1217 C1205 0.929 . S
H1218 C1206 0.960 . S
H1219 C1206 0.962 . S
H1220 C1206 0.960 . S
H1221 C1207 0.961 . S
H1222 C1207 0.961 . S
H1223 C1207 0.961 . S
H1224 C1208 0.931 . S
H1225 C1213 0.930 . S
H1226 C1214 0.956 . S
H1227 C1214 0.961 . S
H1228 C1214 0.961 . S
H1229 C1215 0.958 . S
H1230 C1215 0.961 . S
H1231 C1215 0.960 . S
C1232 C1233 1.391 . S
C1232 C1234 1.394 . S
C1232 H1248 0.931 . S
C1233 C1232 1.391 . S
C1233 C1237 1.376 . S
C1234 C1232 1.394 . S
C1234 C1235 1.369 . S
C1234 C1238 1.531 . S
C1235 C1234 1.369 . S
C1235 C1236 1.410 . S
C1235 C1243 1.503 . S
C1236 C1235 1.410 . S
C1236 C1237 1.392 . S
C1236 C1239 1.511 . S
C1237 C1233 1.376 . S
C1237 C1236 1.392 . S
C1237 H1249 0.929 . S
C1238 C1234 1.531 . S
C1238 H1250 0.960 . S
C1238 H1251 0.962 . S
C1238 H1252 0.960 . S
C1239 C1236 1.511 . S
C1239 H1253 0.961 . S
C1239 H1254 0.961 . S
C1239 H1255 0.961 . S
C1240 C1241 1.370 . S
C1240 C1242 1.363 . S
C1240 H1256 0.931 . S
C1241 C1240 1.370 . S
C1241 C1245 1.408 . S
C1242 C1240 1.363 . S
C1242 C1243 1.370 . S
C1242 C1246 1.524 . S
C1243 C1235 1.503 . S
C1243 C1242 1.370 . S
C1243 C1244 1.403 . S
C1244 C1243 1.403 . S
C1244 C1245 1.404 . S
C1244 C1247 1.539 . S
C1245 C1241 1.408 . S
C1245 C1244 1.404 . S
C1245 H1257 0.930 . S
C1246 C1242 1.524 . S
C1246 H1258 0.956 . S
C1246 H1259 0.961 . S
C1246 H1260 0.961 . S
C1247 C1244 1.539 . S
C1247 H1261 0.958 . S
C1247 H1262 0.961 . S
C1247 H1263 0.960 . S
H1248 C1232 0.931 . S
H1249 C1237 0.929 . S
H1250 C1238 0.960 . S
H1251 C1238 0.962 . S
H1252 C1238 0.960 . S
H1253 C1239 0.961 . S
H1254 C1239 0.961 . S
H1255 C1239 0.961 . S
H1256 C1240 0.931 . S
H1257 C1245 0.930 . S
H1258 C1246 0.956 . S
H1259 C1246 0.961 . S
H1260 C1246 0.961 . S
H1261 C1247 0.958 . S
H1262 C1247 0.961 . S
H1263 C1247 0.960 . S
C1264 C1265 1.391 . S
C1264 C1266 1.394 . S
C1264 H1280 0.931 . S
C1265 C1264 1.391 . S
C1265 C1269 1.376 . S
C1266 C1264 1.394 . S
C1266 C1267 1.369 . S
C1266 C1270 1.531 . S
C1267 C1266 1.369 . S
C1267 C1268 1.410 . S
C1267 C1275 1.503 . S
C1268 C1267 1.410 . S
C1268 C1269 1.392 . S
C1268 C1271 1.511 . S
C1269 C1265 1.376 . S
C1269 C1268 1.392 . S
C1269 H1281 0.929 . S
C1270 C1266 1.531 . S
C1270 H1282 0.960 . S
C1270 H1283 0.962 . S
C1270 H1284 0.960 . S
C1271 C1268 1.511 . S
C1271 H1285 0.961 . S
C1271 H1286 0.961 . S
C1271 H1287 0.961 . S
C1272 C1273 1.370 . S
C1272 C1274 1.363 . S
C1272 H1288 0.931 . S
C1273 C1272 1.370 . S
C1273 C1277 1.408 . S
C1274 C1272 1.363 . S
C1274 C1275 1.370 . S
C1274 C1278 1.524 . S
C1275 C1267 1.503 . S
C1275 C1274 1.370 . S
C1275 C1276 1.403 . S
C1276 C1275 1.403 . S
C1276 C1277 1.404 . S
C1276 C1279 1.539 . S
C1277 C1273 1.408 . S
C1277 C1276 1.404 . S
C1277 H1289 0.930 . S
C1278 C1274 1.524 . S
C1278 H1290 0.956 . S
C1278 H1291 0.961 . S
C1278 H1292 0.961 . S
C1279 C1276 1.539 . S
C1279 H1293 0.958 . S
C1279 H1294 0.961 . S
C1279 H1295 0.960 . S
H1280 C1264 0.931 . S
H1281 C1269 0.929 . S
H1282 C1270 0.960 . S
H1283 C1270 0.962 . S
H1284 C1270 0.960 . S
H1285 C1271 0.961 . S
H1286 C1271 0.961 . S
H1287 C1271 0.961 . S
H1288 C1272 0.931 . S
H1289 C1277 0.930 . S
H1290 C1278 0.956 . S
H1291 C1278 0.961 . S
H1292 C1278 0.961 . S
H1293 C1279 0.958 . S
H1294 C1279 0.961 . S
H1295 C1279 0.960 . S
C1296 C1297 1.391 . S
C1296 C1298 1.394 . S
C1296 H1312 0.931 . S
C1297 C1296 1.391 . S
C1297 C1301 1.376 . S
C1298 C1296 1.394 . S
C1298 C1299 1.369 . S
C1298 C1302 1.531 . S
C1299 C1298 1.369 . S
C1299 C1300 1.410 . S
C1299 C1307 1.503 . S
C1300 C1299 1.410 . S
C1300 C1301 1.392 . S
C1300 C1303 1.511 . S
C1301 C1297 1.376 . S
C1301 C1300 1.392 . S
C1301 H1313 0.929 . S
C1302 C1298 1.531 . S
C1302 H1314 0.960 . S
C1302 H1315 0.962 . S
C1302 H1316 0.960 . S
C1303 C1300 1.511 . S
C1303 H1317 0.961 . S
C1303 H1318 0.961 . S
C1303 H1319 0.961 . S
C1304 C1305 1.370 . S
C1304 C1306 1.363 . S
C1304 H1320 0.931 . S
C1305 C1304 1.370 . S
C1305 C1309 1.408 . S
C1306 C1304 1.363 . S
C1306 C1307 1.370 . S
C1306 C1310 1.524 . S
C1307 C1299 1.503 . S
C1307 C1306 1.370 . S
C1307 C1308 1.403 . S
C1308 C1307 1.403 . S
C1308 C1309 1.404 . S
C1308 C1311 1.539 . S
C1309 C1305 1.408 . S
C1309 C1308 1.404 . S
C1309 H1321 0.930 . S
C1310 C1306 1.524 . S
C1310 H1322 0.956 . S
C1310 H1323 0.961 . S
C1310 H1324 0.961 . S
C1311 C1308 1.539 . S
C1311 H1325 0.958 . S
C1311 H1326 0.961 . S
C1311 H1327 0.960 . S
H1312 C1296 0.931 . S
H1313 C1301 0.929 . S
H1314 C1302 0.960 . S
H1315 C1302 0.962 . S
H1316 C1302 0.960 . S
H1317 C1303 0.961 . S
H1318 C1303 0.961 . S
H1319 C1303 0.961 . S
H1320 C1304 0.931 . S
H1321 C1309 0.930 . S
H1322 C1310 0.956 . S
H1323 C1310 0.961 . S
H1324 C1310 0.961 . S
H1325 C1311 0.958 . S
H1326 C1311 0.961 . S
H1327 C1311 0.960 . S
C1328 C1329 1.391 . S
C1328 C1330 1.394 . S
C1328 H1344 0.931 . S
C1329 C1328 1.391 . S
C1329 C1333 1.376 . S
C1330 C1328 1.394 . S
C1330 C1331 1.369 . S
C1330 C1334 1.531 . S
C1331 C1330 1.369 . S
C1331 C1332 1.410 . S
C1331 C1339 1.503 . S
C1332 C1331 1.410 . S
C1332 C1333 1.392 . S
C1332 C1335 1.511 . S
C1333 C1329 1.376 . S
C1333 C1332 1.392 . S
C1333 H1345 0.929 . S
C1334 C1330 1.531 . S
C1334 H1346 0.960 . S
C1334 H1347 0.962 . S
C1334 H1348 0.960 . S
C1335 C1332 1.511 . S
C1335 H1349 0.961 . S
C1335 H1350 0.961 . S
C1335 H1351 0.961 . S
C1336 C1337 1.370 . S
C1336 C1338 1.363 . S
C1336 H1352 0.931 . S
C1337 C1336 1.370 . S
C1337 C1341 1.408 . S
C1338 C1336 1.363 . S
C1338 C1339 1.370 . S
C1338 C1342 1.524 . S
C1339 C1331 1.503 . S
C1339 C1338 1.370 . S
C1339 C1340 1.403 . S
C1340 C1339 1.403 . S
C1340 C1341 1.404 . S
C1340 C1343 1.539 . S
C1341 C1337 1.408 . S
C1341 C1340 1.404 . S
C1341 H1353 0.930 . S
C1342 C1338 1.524 . S
C1342 H1354 0.956 . S
C1342 H1355 0.961 . S
C1342 H1356 0.961 . S
C1343 C1340 1.539 . S
C1343 H1357 0.958 . S
C1343 H1358 0.961 . S
C1343 H1359 0.960 . S
H1344 C1328 0.931 . S
H1345 C1333 0.929 . S
H1346 C1334 0.960 . S
H1347 C1334 0.962 . S
H1348 C1334 0.960 . S
H1349 C1335 0.961 . S
H1350 C1335 0.961 . S
H1351 C1335 0.961 . S
H1352 C1336 0.931 . S
H1353 C1341 0.930 . S
H1354 C1342 0.956 . S
H1355 C1342 0.961 . S
H1356 C1342 0.961 . S
H1357 C1343 0.958 . S
H1358 C1343 0.961 . S
H1359 C1343 0.960 . S
C1360 C1361 1.391 . S
C1360 C1362 1.394 . S
C1360 H1376 0.931 . S
C1361 C1360 1.391 . S
C1361 C1365 1.376 . S
C1362 C1360 1.394 . S
C1362 C1363 1.369 . S
C1362 C1366 1.531 . S
C1363 C1362 1.369 . S
C1363 C1364 1.410 . S
C1363 C1371 1.503 . S
C1364 C1363 1.410 . S
C1364 C1365 1.392 . S
C1364 C1367 1.511 . S
C1365 C1361 1.376 . S
C1365 C1364 1.392 . S
C1365 H1377 0.929 . S
C1366 C1362 1.531 . S
C1366 H1378 0.960 . S
C1366 H1379 0.962 . S
C1366 H1380 0.960 . S
C1367 C1364 1.511 . S
C1367 H1381 0.961 . S
C1367 H1382 0.961 . S
C1367 H1383 0.961 . S
C1368 C1369 1.370 . S
C1368 C1370 1.363 . S
C1368 H1384 0.931 . S
C1369 C1368 1.370 . S
C1369 C1373 1.408 . S
C1370 C1368 1.363 . S
C1370 C1371 1.370 . S
C1370 C1374 1.524 . S
C1371 C1363 1.503 . S
C1371 C1370 1.370 . S
C1371 C1372 1.403 . S
C1372 C1371 1.403 . S
C1372 C1373 1.404 . S
C1372 C1375 1.539 . S
C1373 C1369 1.408 . S
C1373 C1372 1.404 . S
C1373 H1385 0.930 . S
C1374 C1370 1.524 . S
C1374 H1386 0.956 . S
C1374 H1387 0.961 . S
C1374 H1388 0.961 . S
C1375 C1372 1.539 . S
C1375 H1389 0.958 . S
C1375 H1390 0.961 . S
C1375 H1391 0.960 . S
H1376 C1360 0.931 . S
H1377 C1365 0.929 . S
H1378 C1366 0.960 . S
H1379 C1366 0.962 . S
H1380 C1366 0.960 . S
H1381 C1367 0.961 . S
H1382 C1367 0.961 . S
H1383 C1367 0.961 . S
H1384 C1368 0.931 . S
H1385 C1373 0.930 . S
H1386 C1374 0.956 . S
H1387 C1374 0.961 . S
H1388 C1374 0.961 . S
H1389 C1375 0.958 . S
H1390 C1375 0.961 . S
H1391 C1375 0.960 . S
C1392 C1393 1.391 . S
C1392 C1394 1.394 . S
C1392 H1408 0.931 . S
C1393 C1392 1.391 . S
C1393 C1397 1.376 . S
C1394 C1392 1.394 . S
C1394 C1395 1.369 . S
C1394 C1398 1.531 . S
C1395 C1394 1.369 . S
C1395 C1396 1.410 . S
C1395 C1403 1.503 . S
C1396 C1395 1.410 . S
C1396 C1397 1.392 . S
C1396 C1399 1.511 . S
C1397 C1393 1.376 . S
C1397 C1396 1.392 . S
C1397 H1409 0.929 . S
C1398 C1394 1.531 . S
C1398 H1410 0.960 . S
C1398 H1411 0.962 . S
C1398 H1412 0.960 . S
C1399 C1396 1.511 . S
C1399 H1413 0.961 . S
C1399 H1414 0.961 . S
C1399 H1415 0.961 . S
C1400 C1401 1.370 . S
C1400 C1402 1.363 . S
C1400 H1416 0.931 . S
C1401 C1400 1.370 . S
C1401 C1405 1.408 . S
C1402 C1400 1.363 . S
C1402 C1403 1.370 . S
C1402 C1406 1.524 . S
C1403 C1395 1.503 . S
C1403 C1402 1.370 . S
C1403 C1404 1.403 . S
C1404 C1403 1.403 . S
C1404 C1405 1.404 . S
C1404 C1407 1.539 . S
C1405 C1401 1.408 . S
C1405 C1404 1.404 . S
C1405 H1417 0.930 . S
C1406 C1402 1.524 . S
C1406 H1418 0.956 . S
C1406 H1419 0.961 . S
C1406 H1420 0.961 . S
C1407 C1404 1.539 . S
C1407 H1421 0.958 . S
C1407 H1422 0.961 . S
C1407 H1423 0.960 . S
H1408 C1392 0.931 . S
H1409 C1397 0.929 . S
H1410 C1398 0.960 . S
H1411 C1398 0.962 . S
H1412 C1398 0.960 . S
H1413 C1399 0.961 . S
H1414 C1399 0.961 . S
H1415 C1399 0.961 . S
H1416 C1400 0.931 . S
H1417 C1405 0.930 . S
H1418 C1406 0.956 . S
H1419 C1406 0.961 . S
H1420 C1406 0.961 . S
H1421 C1407 0.958 . S
H1422 C1407 0.961 . S
H1423 C1407 0.960 . S
C1424 C1425 1.391 . S
C1424 C1426 1.394 . S
C1424 H1440 0.931 . S
C1425 C1424 1.391 . S
C1425 C1429 1.376 . S
C1426 C1424 1.394 . S
C1426 C1427 1.369 . S
C1426 C1430 1.531 . S
C1427 C1426 1.369 . S
C1427 C1428 1.410 . S
C1427 C1435 1.503 . S
C1428 C1427 1.410 . S
C1428 C1429 1.392 . S
C1428 C1431 1.511 . S
C1429 C1425 1.376 . S
C1429 C1428 1.392 . S
C1429 H1441 0.929 . S
C1430 C1426 1.531 . S
C1430 H1442 0.960 . S
C1430 H1443 0.962 . S
C1430 H1444 0.960 . S
C1431 C1428 1.511 . S
C1431 H1445 0.961 . S
C1431 H1446 0.961 . S
C1431 H1447 0.961 . S
C1432 C1433 1.370 . S
C1432 C1434 1.363 . S
C1432 H1448 0.931 . S
C1433 C1432 1.370 . S
C1433 C1437 1.408 . S
C1434 C1432 1.363 . S
C1434 C1435 1.370 . S
C1434 C1438 1.524 . S
C1435 C1427 1.503 . S
C1435 C1434 1.370 . S
C1435 C1436 1.403 . S
C1436 C1435 1.403 . S
C1436 C1437 1.404 . S
C1436 C1439 1.539 . S
C1437 C1433 1.408 . S
C1437 C1436 1.404 . S
C1437 H1449 0.930 . S
C1438 C1434 1.524 . S
C1438 H1450 0.956 . S
C1438 H1451 0.961 . S
C1438 H1452 0.961 . S
C1439 C1436 1.539 . S
C1439 H1453 0.958 . S
C1439 H1454 0.961 . S
C1439 H1455 0.960 . S
H1440 C1424 0.931 . S
H1441 C1429 0.929 . S
H1442 C1430 0.960 . S
H1443 C1430 0.962 . S
H1444 C1430 0.960 . S
H1445 C1431 0.961 . S
H1446 C1431 0.961 . S
H1447 C1431 0.961 . S
H1448 C1432 0.931 . S
H1449 C1437 0.930 . S
H1450 C1438 0.956 . S
H1451 C1438 0.961 . S
H1452 C1438 0.961 . S
H1453 C1439 0.958 . S
H1454 C1439 0.961 . S
H1455 C1439 0.960 . S
C1456 C1457 1.391 . S
C1456 C1458 1.394 . S
C1456 H1472 0.931 . S
C1457 C1456 1.391 . S
C1457 C1461 1.376 . S
C1458 C1456 1.394 . S
C1458 C1459 1.369 . S
C1458 C1462 1.531 . S
C1459 C1458 1.369 . S
C1459 C1460 1.410 . S
C1459 C1467 1.503 . S
C1460 C1459 1.410 . S
C1460 C1461 1.392 . S
C1460 C1463 1.511 . S
C1461 C1457 1.376 . S
C1461 C1460 1.392 . S
C1461 H1473 0.929 . S
C1462 C1458 1.531 . S
C1462 H1474 0.960 . S
C1462 H1475 0.962 . S
C1462 H1476 0.960 . S
C1463 C1460 1.511 . S
C1463 H1477 0.961 . S
C1463 H1478 0.961 . S
C1463 H1479 0.961 . S
C1464 C1465 1.370 . S
C1464 C1466 1.363 . S
C1464 H1480 0.931 . S
C1465 C1464 1.370 . S
C1465 C1469 1.408 . S
C1466 C1464 1.363 . S
C1466 C1467 1.370 . S
C1466 C1470 1.524 . S
C1467 C1459 1.503 . S
C1467 C1466 1.370 . S
C1467 C1468 1.403 . S
C1468 C1467 1.403 . S
C1468 C1469 1.404 . S
C1468 C1471 1.539 . S
C1469 C1465 1.408 . S
C1469 C1468 1.404 . S
C1469 H1481 0.930 . S
C1470 C1466 1.524 . S
C1470 H1482 0.956 . S
C1470 H1483 0.961 . S
C1470 H1484 0.961 . S
C1471 C1468 1.539 . S
C1471 H1485 0.958 . S
C1471 H1486 0.961 . S
C1471 H1487 0.960 . S
H1472 C1456 0.931 . S
H1473 C1461 0.929 . S
H1474 C1462 0.960 . S
H1475 C1462 0.962 . S
H1476 C1462 0.960 . S
H1477 C1463 0.961 . S
H1478 C1463 0.961 . S
H1479 C1463 0.961 . S
H1480 C1464 0.931 . S
H1481 C1469 0.930 . S
H1482 C1470 0.956 . S
H1483 C1470 0.961 . S
H1484 C1470 0.961 . S
H1485 C1471 0.958 . S
H1486 C1471 0.961 . S
H1487 C1471 0.960 . S
C1488 C1489 1.391 . S
C1488 C1490 1.394 . S
C1488 H1504 0.931 . S
C1489 C1488 1.391 . S
C1489 C1493 1.376 . S
C1490 C1488 1.394 . S
C1490 C1491 1.369 . S
C1490 C1494 1.531 . S
C1491 C1490 1.369 . S
C1491 C1492 1.410 . S
C1491 C1499 1.503 . S
C1492 C1491 1.410 . S
C1492 C1493 1.392 . S
C1492 C1495 1.511 . S
C1493 C1489 1.376 . S
C1493 C1492 1.392 . S
C1493 H1505 0.929 . S
C1494 C1490 1.531 . S
C1494 H1506 0.960 . S
C1494 H1507 0.962 . S
C1494 H1508 0.960 . S
C1495 C1492 1.511 . S
C1495 H1509 0.961 . S
C1495 H1510 0.961 . S
C1495 H1511 0.961 . S
C1496 C1497 1.370 . S
C1496 C1498 1.363 . S
C1496 H1512 0.931 . S
C1497 C1496 1.370 . S
C1497 C1501 1.408 . S
C1498 C1496 1.363 . S
C1498 C1499 1.370 . S
C1498 C1502 1.524 . S
C1499 C1491 1.503 . S
C1499 C1498 1.370 . S
C1499 C1500 1.403 . S
C1500 C1499 1.403 . S
C1500 C1501 1.404 . S
C1500 C1503 1.539 . S
C1501 C1497 1.408 . S
C1501 C1500 1.404 . S
C1501 H1513 0.930 . S
C1502 C1498 1.524 . S
C1502 H1514 0.956 . S
C1502 H1515 0.961 . S
C1502 H1516 0.961 . S
C1503 C1500 1.539 . S
C1503 H1517 0.958 . S
C1503 H1518 0.961 . S
C1503 H1519 0.960 . S
H1504 C1488 0.931 . S
H1505 C1493 0.929 . S
H1506 C1494 0.960 . S
H1507 C1494 0.962 . S
H1508 C1494 0.960 . S
H1509 C1495 0.961 . S
H1510 C1495 0.961 . S
H1511 C1495 0.961 . S
H1512 C1496 0.931 . S
H1513 C1501 0.930 . S
H1514 C1502 0.956 . S
H1515 C1502 0.961 . S
H1516 C1502 0.961 . S
H1517 C1503 0.958 . S
H1518 C1503 0.961 . S
H1519 C1503 0.960 . S
C1520 C1521 1.391 . S
C1520 C1522 1.394 . S
C1520 H1536 0.931 . S
C1521 C1520 1.391 . S
C1521 C1525 1.376 . S
C1522 C1520 1.394 . S
C1522 C1523 1.369 . S
C1522 C1526 1.531 . S
C1523 C1522 1.369 . S
C1523 C1524 1.410 . S
C1523 C1531 1.503 . S
C1524 C1523 1.410 . S
C1524 C1525 1.392 . S
C1524 C1527 1.511 . S
C1525 C1521 1.376 . S
C1525 C1524 1.392 . S
C1525 H1537 0.929 . S
C1526 C1522 1.531 . S
C1526 H1538 0.960 . S
C1526 H1539 0.962 . S
C1526 H1540 0.960 . S
C1527 C1524 1.511 . S
C1527 H1541 0.961 . S
C1527 H1542 0.961 . S
C1527 H1543 0.961 . S
C1528 C1529 1.370 . S
C1528 C1530 1.363 . S
C1528 H1544 0.931 . S
C1529 C1528 1.370 . S
C1529 C1533 1.408 . S
C1530 C1528 1.363 . S
C1530 C1531 1.370 . S
C1530 C1534 1.524 . S
C1531 C1523 1.503 . S
C1531 C1530 1.370 . S
C1531 C1532 1.403 . S
C1532 C1531 1.403 . S
C1532 C1533 1.404 . S
C1532 C1535 1.539 . S
C1533 C1529 1.408 . S
C1533 C1532 1.404 . S
C1533 H1545 0.930 . S
C1534 C1530 1.524 . S
C1534 H1546 0.956 . S
C1534 H1547 0.961 . S
C1534 H1548 0.961 . S
C1535 C1532 1.539 . S
C1535 H1549 0.958 . S
C1535 H1550 0.961 . S
C1535 H1551 0.960 . S
H1536 C1520 0.931 . S
H1537 C1525 0.929 . S
H1538 C1526 0.960 . S
H1539 C1526 0.962 . S
H1540 C1526 0.960 . S
H1541 C1527 0.961 . S
H1542 C1527 0.961 . S
H1543 C1527 0.961 . S
H1544 C1528 0.931 . S
H1545 C1533 0.930 . S
H1546 C1534 0.956 . S
H1547 C1534 0.961 . S
H1548 C1534 0.961 . S
H1549 C1535 0.958 . S
H1550 C1535 0.961 . S
H1551 C1535 0.960 . S
C1552 C1553 1.391 . S
C1552 C1554 1.394 . S
C1552 H1568 0.931 . S
C1553 C1552 1.391 . S
C1553 C1557 1.376 . S
C1554 C1552 1.394 . S
C1554 C1555 1.369 . S
C1554 C1558 1.531 . S
C1555 C1554 1.369 . S
C1555 C1556 1.410 . S
C1555 C1563 1.503 1_556 S
C1556 C1555 1.410 . S
C1556 C1557 1.392 . S
C1556 C1559 1.511 . S
C1557 C1553 1.376 . S
C1557 C1556 1.392 . S
C1557 H1569 0.929 . S
C1558 C1554 1.531 . S
C1558 H1570 0.960 1_556 S
C1558 H1571 0.962 . S
C1558 H1572 0.960 . S
C1559 C1556 1.511 . S
C1559 H1573 0.961 . S
C1559 H1574 0.961 . S
C1559 H1575 0.961 . S
C1560 C1561 1.370 1_565 S
C1560 C1562 1.363 . S
C1560 H1576 0.931 . S
C1561 C1560 1.370 1_545 S
C1561 C1565 1.408 . S
C1562 C1560 1.363 . S
C1562 C1563 1.370 1_565 S
C1562 C1566 1.524 . S
C1563 C1555 1.503 1_554 S
C1563 C1562 1.370 1_545 S
C1563 C1564 1.403 . S
C1564 C1563 1.403 . S
C1564 C1565 1.404 . S
C1564 C1567 1.539 . S
C1565 C1561 1.408 . S
C1565 C1564 1.404 . S
C1565 H1577 0.930 . S
C1566 C1562 1.524 . S
C1566 H1578 0.956 . S
C1566 H1579 0.961 1_554 S
C1566 H1580 0.961 . S
C1567 C1564 1.539 . S
C1567 H1581 0.958 . S
C1567 H1582 0.961 . S
C1567 H1583 0.960 1_554 S
H1568 C1552 0.931 . S
H1569 C1557 0.929 . S
H1570 C1558 0.960 1_554 S
H1571 C1558 0.962 . S
H1572 C1558 0.960 . S
H1573 C1559 0.961 . S
H1574 C1559 0.961 . S
H1575 C1559 0.961 . S
H1576 C1560 0.931 . S
H1577 C1565 0.930 . S
H1578 C1566 0.956 . S
H1579 C1566 0.961 1_556 S
H1580 C1566 0.961 . S
H1581 C1567 0.958 . S
H1582 C1567 0.961 . S
H1583 C1567 0.960 1_556 S
C1584 C1585 1.391 . S
C1584 C1586 1.394 . S
C1584 H1600 0.931 . S
C1585 C1584 1.391 . S
C1585 C1589 1.376 . S
C1586 C1584 1.394 . S
C1586 C1587 1.369 . S
C1586 C1590 1.531 . S
C1587 C1586 1.369 . S
C1587 C1588 1.410 . S
C1587 C1595 1.503 . S
C1588 C1587 1.410 . S
C1588 C1589 1.392 . S
C1588 C1591 1.511 . S
C1589 C1585 1.376 . S
C1589 C1588 1.392 . S
C1589 H1601 0.929 . S
C1590 C1586 1.531 . S
C1590 H1602 0.960 . S
C1590 H1603 0.962 . S
C1590 H1604 0.960 . S
C1591 C1588 1.511 . S
C1591 H1605 0.961 . S
C1591 H1606 0.961 . S
C1591 H1607 0.961 . S
C1592 C1593 1.370 . S
C1592 C1594 1.363 . S
C1592 H1608 0.931 . S
C1593 C1592 1.370 . S
C1593 C1597 1.408 . S
C1594 C1592 1.363 . S
C1594 C1595 1.370 . S
C1594 C1598 1.524 . S
C1595 C1587 1.503 . S
C1595 C1594 1.370 . S
C1595 C1596 1.403 . S
C1596 C1595 1.403 . S
C1596 C1597 1.404 . S
C1596 C1599 1.539 . S
C1597 C1593 1.408 . S
C1597 C1596 1.404 . S
C1597 H1609 0.930 . S
C1598 C1594 1.524 . S
C1598 H1610 0.956 . S
C1598 H1611 0.961 . S
C1598 H1612 0.961 . S
C1599 C1596 1.539 . S
C1599 H1613 0.958 . S
C1599 H1614 0.961 . S
C1599 H1615 0.960 . S
H1600 C1584 0.931 . S
H1601 C1589 0.929 . S
H1602 C1590 0.960 . S
H1603 C1590 0.962 . S
H1604 C1590 0.960 . S
H1605 C1591 0.961 . S
H1606 C1591 0.961 . S
H1607 C1591 0.961 . S
H1608 C1592 0.931 . S
H1609 C1597 0.930 . S
H1610 C1598 0.956 . S
H1611 C1598 0.961 . S
H1612 C1598 0.961 . S
H1613 C1599 0.958 . S
H1614 C1599 0.961 . S
H1615 C1599 0.960 . S
C1616 C1617 1.391 . S
C1616 C1618 1.394 . S
C1616 H1632 0.931 . S
C1617 C1616 1.391 . S
C1617 C1621 1.376 . S
C1618 C1616 1.394 . S
C1618 C1619 1.369 . S
C1618 C1622 1.531 . S
C1619 C1618 1.369 . S
C1619 C1620 1.410 . S
C1619 C1627 1.503 1_554 S
C1620 C1619 1.410 . S
C1620 C1621 1.392 . S
C1620 C1623 1.511 . S
C1621 C1617 1.376 . S
C1621 C1620 1.392 . S
C1621 H1633 0.929 . S
C1622 C1618 1.531 . S
C1622 H1634 0.960 1_554 S
C1622 H1635 0.962 . S
C1622 H1636 0.960 . S
C1623 C1620 1.511 . S
C1623 H1637 0.961 . S
C1623 H1638 0.961 1_554 S
C1623 H1639 0.961 . S
C1624 C1625 1.370 . S
C1624 C1626 1.363 . S
C1624 H1640 0.931 . S
C1625 C1624 1.370 . S
C1625 C1629 1.408 . S
C1626 C1624 1.363 . S
C1626 C1627 1.370 . S
C1626 C1630 1.524 . S
C1627 C1619 1.503 1_556 S
C1627 C1626 1.370 . S
C1627 C1628 1.403 . S
C1628 C1627 1.403 . S
C1628 C1629 1.404 . S
C1628 C1631 1.539 . S
C1629 C1625 1.408 . S
C1629 C1628 1.404 . S
C1629 H1641 0.930 . S
C1630 C1626 1.524 . S
C1630 H1642 0.956 1_556 S
C1630 H1643 0.961 1_556 S
C1630 H1644 0.961 . S
C1631 C1628 1.539 . S
C1631 H1645 0.958 . S
C1631 H1646 0.961 . S
C1631 H1647 0.960 . S
H1632 C1616 0.931 . S
H1633 C1621 0.929 . S
H1634 C1622 0.960 1_556 S
H1635 C1622 0.962 . S
H1636 C1622 0.960 . S
H1637 C1623 0.961 . S
H1638 C1623 0.961 1_556 S
H1639 C1623 0.961 . S
H1640 C1624 0.931 . S
H1641 C1629 0.930 . S
H1642 C1630 0.956 1_554 S
H1643 C1630 0.961 1_554 S
H1644 C1630 0.961 . S
H1645 C1631 0.958 . S
H1646 C1631 0.961 . S
H1647 C1631 0.960 . S
C1648 C1649 1.391 . S
C1648 C1650 1.394 . S
C1648 H1664 0.931 . S
C1649 C1648 1.391 . S
C1649 C1653 1.376 1_455 S
C1650 C1648 1.394 . S
C1650 C1651 1.369 . S
C1650 C1654 1.531 . S
C1651 C1650 1.369 . S
C1651 C1652 1.410 1_455 S
C1651 C1659 1.503 . S
C1652 C1651 1.410 1_655 S
C1652 C1653 1.392 . S
C1652 C1655 1.511 . S
C1653 C1649 1.376 1_655 S
C1653 C1652 1.392 . S
C1653 H1665 0.929 . S
C1654 C1650 1.531 . S
C1654 H1666 0.960 . S
C1654 H1667 0.962 . S
C1654 H1668 0.960 . S
C1655 C1652 1.511 . S
C1655 H1669 0.961 . S
C1655 H1670 0.961 . S
C1655 H1671 0.961 . S
C1656 C1657 1.370 . S
C1656 C1658 1.363 . S
C1656 H1672 0.931 . S
C1657 C1656 1.370 . S
C1657 C1661 1.408 . S
C1658 C1656 1.363 . S
C1658 C1659 1.370 . S
C1658 C1662 1.524 . S
C1659 C1651 1.503 . S
C1659 C1658 1.370 . S
C1659 C1660 1.403 . S
C1660 C1659 1.403 . S
C1660 C1661 1.404 . S
C1660 C1663 1.539 1_455 S
C1661 C1657 1.408 . S
C1661 C1660 1.404 . S
C1661 H1673 0.930 1_455 S
C1662 C1658 1.524 . S
C1662 H1674 0.956 . S
C1662 H1675 0.961 . S
C1662 H1676 0.961 . S
C1663 C1660 1.539 1_655 S
C1663 H1677 0.958 1_655 S
C1663 H1678 0.961 . S
C1663 H1679 0.960 . S
H1664 C1648 0.931 . S
H1665 C1653 0.929 . S
H1666 C1654 0.960 . S
H1667 C1654 0.962 . S
H1668 C1654 0.960 . S
H1669 C1655 0.961 . S
H1670 C1655 0.961 . S
H1671 C1655 0.961 . S
H1672 C1656 0.931 . S
H1673 C1661 0.930 1_655 S
H1674 C1662 0.956 . S
H1675 C1662 0.961 . S
H1676 C1662 0.961 . S
H1677 C1663 0.958 1_455 S
H1678 C1663 0.961 . S
H1679 C1663 0.960 . S
C1680 C1681 1.391 . S
C1680 C1682 1.394 . S
C1680 H1696 0.931 . S
C1681 C1680 1.391 . S
C1681 C1685 1.376 . S
C1682 C1680 1.394 . S
C1682 C1683 1.369 . S
C1682 C1686 1.531 . S
C1683 C1682 1.369 . S
C1683 C1684 1.410 . S
C1683 C1691 1.503 1_554 S
C1684 C1683 1.410 . S
C1684 C1685 1.392 . S
C1684 C1687 1.511 . S
C1685 C1681 1.376 . S
C1685 C1684 1.392 . S
C1685 H1697 0.929 . S
C1686 C1682 1.531 . S
C1686 H1698 0.960 . S
C1686 H1699 0.962 . S
C1686 H1700 0.960 . S
C1687 C1684 1.511 . S
C1687 H1701 0.961 . S
C1687 H1702 0.961 1_554 S
C1687 H1703 0.961 . S
C1688 C1689 1.370 . S
C1688 C1690 1.363 . S
C1688 H1704 0.931 1_565 S
C1689 C1688 1.370 . S
C1689 C1693 1.408 . S
C1690 C1688 1.363 . S
C1690 C1691 1.370 . S
C1690 C1694 1.524 1_565 S
C1691 C1683 1.503 1_556 S
C1691 C1690 1.370 . S
C1691 C1692 1.403 . S
C1692 C1691 1.403 . S
C1692 C1693 1.404 . S
C1692 C1695 1.539 . S
C1693 C1689 1.408 . S
C1693 C1692 1.404 . S
C1693 H1705 0.930 . S
C1694 C1690 1.524 1_545 S
C1694 H1706 0.956 1_556 S
C1694 H1707 0.961 1_556 S
C1694 H1708 0.961 . S
C1695 C1692 1.539 . S
C1695 H1709 0.958 . S
C1695 H1710 0.961 . S
C1695 H1711 0.960 . S
H1696 C1680 0.931 . S
H1697 C1685 0.929 . S
H1698 C1686 0.960 . S
H1699 C1686 0.962 . S
H1700 C1686 0.960 . S
H1701 C1687 0.961 . S
H1702 C1687 0.961 1_556 S
H1703 C1687 0.961 . S
H1704 C1688 0.931 1_545 S
H1705 C1693 0.930 . S
H1706 C1694 0.956 1_554 S
H1707 C1694 0.961 1_554 S
H1708 C1694 0.961 . S
H1709 C1695 0.958 . S
H1710 C1695 0.961 . S
H1711 C1695 0.960 . S
C1712 C1713 1.391 . S
C1712 C1714 1.394 . S
C1712 H1728 0.931 . S
C1713 C1712 1.391 . S
C1713 C1717 1.376 . S
C1714 C1712 1.394 . S
C1714 C1715 1.369 . S
C1714 C1718 1.531 . S
C1715 C1714 1.369 . S
C1715 C1716 1.410 . S
C1715 C1723 1.503 . S
C1716 C1715 1.410 . S
C1716 C1717 1.392 . S
C1716 C1719 1.511 . S
C1717 C1713 1.376 . S
C1717 C1716 1.392 . S
C1717 H1729 0.929 . S
C1718 C1714 1.531 . S
C1718 H1730 0.960 . S
C1718 H1731 0.962 . S
C1718 H1732 0.960 . S
C1719 C1716 1.511 . S
C1719 H1733 0.961 . S
C1719 H1734 0.961 . S
C1719 H1735 0.961 . S
C1720 C1721 1.370 . S
C1720 C1722 1.363 . S
C1720 H1736 0.931 . S
C1721 C1720 1.370 . S
C1721 C1725 1.408 . S
C1722 C1720 1.363 . S
C1722 C1723 1.370 . S
C1722 C1726 1.524 . S
C1723 C1715 1.503 . S
C1723 C1722 1.370 . S
C1723 C1724 1.403 . S
C1724 C1723 1.403 . S
C1724 C1725 1.404 . S
C1724 C1727 1.539 . S
C1725 C1721 1.408 . S
C1725 C1724 1.404 . S
C1725 H1737 0.930 . S
C1726 C1722 1.524 . S
C1726 H1738 0.956 . S
C1726 H1739 0.961 . S
C1726 H1740 0.961 . S
C1727 C1724 1.539 . S
C1727 H1741 0.958 . S
C1727 H1742 0.961 . S
C1727 H1743 0.960 . S
H1728 C1712 0.931 . S
H1729 C1717 0.929 . S
H1730 C1718 0.960 . S
H1731 C1718 0.962 . S
H1732 C1718 0.960 . S
H1733 C1719 0.961 . S
H1734 C1719 0.961 . S
H1735 C1719 0.961 . S
H1736 C1720 0.931 . S
H1737 C1725 0.930 . S
H1738 C1726 0.956 . S
H1739 C1726 0.961 . S
H1740 C1726 0.961 . S
H1741 C1727 0.958 . S
H1742 C1727 0.961 . S
H1743 C1727 0.960 . S
C1744 C1745 1.391 . S
C1744 C1746 1.394 . S
C1744 H1760 0.931 . S
C1745 C1744 1.391 . S
C1745 C1749 1.376 . S
C1746 C1744 1.394 . S
C1746 C1747 1.369 . S
C1746 C1750 1.531 . S
C1747 C1746 1.369 . S
C1747 C1748 1.410 . S
C1747 C1755 1.503 1_554 S
C1748 C1747 1.410 . S
C1748 C1749 1.392 . S
C1748 C1751 1.511 . S
C1749 C1745 1.376 . S
C1749 C1748 1.392 . S
C1749 H1761 0.929 . S
C1750 C1746 1.531 . S
C1750 H1762 0.960 . S
C1750 H1763 0.962 . S
C1750 H1764 0.960 . S
C1751 C1748 1.511 . S
C1751 H1765 0.961 . S
C1751 H1766 0.961 1_554 S
C1751 H1767 0.961 . S
C1752 C1753 1.370 . S
C1752 C1754 1.363 . S
C1752 H1768 0.931 . S
C1753 C1752 1.370 . S
C1753 C1757 1.408 . S
C1754 C1752 1.363 . S
C1754 C1755 1.370 . S
C1754 C1758 1.524 . S
C1755 C1747 1.503 1_556 S
C1755 C1754 1.370 . S
C1755 C1756 1.403 . S
C1756 C1755 1.403 . S
C1756 C1757 1.404 . S
C1756 C1759 1.539 . S
C1757 C1753 1.408 . S
C1757 C1756 1.404 . S
C1757 H1769 0.930 . S
C1758 C1754 1.524 . S
C1758 H1770 0.956 1_556 S
C1758 H1771 0.961 1_556 S
C1758 H1772 0.961 . S
C1759 C1756 1.539 . S
C1759 H1773 0.958 . S
C1759 H1774 0.961 . S
C1759 H1775 0.960 . S
H1760 C1744 0.931 . S
H1761 C1749 0.929 . S
H1762 C1750 0.960 . S
H1763 C1750 0.962 . S
H1764 C1750 0.960 . S
H1765 C1751 0.961 . S
H1766 C1751 0.961 1_556 S
H1767 C1751 0.961 . S
H1768 C1752 0.931 . S
H1769 C1757 0.930 . S
H1770 C1758 0.956 1_554 S
H1771 C1758 0.961 1_554 S
H1772 C1758 0.961 . S
H1773 C1759 0.958 . S
H1774 C1759 0.961 . S
H1775 C1759 0.960 . S
C1776 C1777 1.391 . S
C1776 C1778 1.394 . S
C1776 H1792 0.931 1_655 S
C1777 C1776 1.391 . S
C1777 C1781 1.376 . S
C1778 C1776 1.394 . S
C1778 C1779 1.369 . S
C1778 C1782 1.531 1_655 S
C1779 C1778 1.369 . S
C1779 C1780 1.410 . S
C1779 C1787 1.503 . S
C1780 C1779 1.410 . S
C1780 C1781 1.392 . S
C1780 C1783 1.511 . S
C1781 C1777 1.376 . S
C1781 C1780 1.392 . S
C1781 H1793 0.929 . S
C1782 C1778 1.531 1_455 S
C1782 H1794 0.960 . S
C1782 H1795 0.962 . S
C1782 H1796 0.960 . S
C1783 C1780 1.511 . S
C1783 H1797 0.961 . S
C1783 H1798 0.961 . S
C1783 H1799 0.961 . S
C1784 C1785 1.370 . S
C1784 C1786 1.363 . S
C1784 H1800 0.931 . S
C1785 C1784 1.370 . S
C1785 C1789 1.408 . S
C1786 C1784 1.363 . S
C1786 C1787 1.370 . S
C1786 C1790 1.524 . S
C1787 C1779 1.503 . S
C1787 C1786 1.370 . S
C1787 C1788 1.403 . S
C1788 C1787 1.403 . S
C1788 C1789 1.404 . S
C1788 C1791 1.539 . S
C1789 C1785 1.408 . S
C1789 C1788 1.404 . S
C1789 H1801 0.930 . S
C1790 C1786 1.524 . S
C1790 H1802 0.956 1_655 S
C1790 H1803 0.961 . S
C1790 H1804 0.961 . S
C1791 C1788 1.539 . S
C1791 H1805 0.958 . S
C1791 H1806 0.961 . S
C1791 H1807 0.960 . S
H1792 C1776 0.931 1_455 S
H1793 C1781 0.929 . S
H1794 C1782 0.960 . S
H1795 C1782 0.962 . S
H1796 C1782 0.960 . S
H1797 C1783 0.961 . S
H1798 C1783 0.961 . S
H1799 C1783 0.961 . S
H1800 C1784 0.931 . S
H1801 C1789 0.930 . S
H1802 C1790 0.956 1_455 S
H1803 C1790 0.961 . S
H1804 C1790 0.961 . S
H1805 C1791 0.958 . S
H1806 C1791 0.961 . S
H1807 C1791 0.960 . S
C529 N14 1.676 . S
C537 N245 1.679 . S
C561 N146 1.681 . S
C569 N47 1.677 . S
C593 N179 1.680 . S
C601 N80 1.678 . S
C625 N113 1.679 . S
C633 N212 1.678 . S
C657 N269 2.223 . S
C665 N500 2.232 . S
C689 N302 2.243 . S
C697 N401 2.243 . S
C721 N434 2.220 . S
C729 N335 2.237 . S
C753 N368 2.239 . S
C761 N467 2.243 . S
C785 C8 0.806 . S
C793 C314 0.791 . S
C817 C347 0.799 . S
C825 C41 0.822 . S
C849 C380 0.746 . S
C857 C74 0.824 . S
C881 C281 0.820 . S
C889 C107 0.833 . S
C913 C512 0.732 . S
C921 C140 0.821 . S
C945 C413 0.825 . S
C953 C173 0.834 . S
C977 C446 0.884 . S
C985 C206 0.838 . S
C1009 C479 0.751 . S
C1017 C239 0.817 . S
C1041 C61 1.040 . S
C1049 C292 1.085 . S
C1073 C94 1.067 . S
C1081 C325 1.091 . S
C1105 C127 1.067 . S
C1113 C358 1.088 . S
C1137 C391 1.068 . S
C1145 C28 1.035 . S
C1169 C259 1.046 . S
C1177 C424 1.086 . S
C1201 C160 1.098 . S
C1209 C457 1.097 . S
C1233 C193 1.045 . S
C1241 C490 1.086 . S
C1265 C226 0.995 . S
C1273 C523 1.074 . S
C1297 N71 0.979 . S
C1305 N5 1.043 . S
C1329 N38 0.952 . S
C1337 N104 1.002 . S
C1361 N203 0.948 . S
C1369 N137 1.005 . S
C1393 N236 1.085 . S
C1401 N170 0.987 . S
C1425 N344 0.977 . S
C1433 N278 1.037 . S
C1457 N377 0.989 . S
C1465 N311 1.046 . S
C1489 N410 0.982 . S
C1497 N476 1.042 . S
C1521 N509 1.109 . S
C1529 N443 1.059 . S
C1553 C215 1.309 . S
C1561 C17 1.330 . S
C1585 C248 1.338 . S
C1593 C50 1.348 . S
C1617 C83 1.350 . S
C1625 C149 1.333 . S
C1649 C182 1.334 . S
C1657 C116 1.347 . S
C1681 C470 1.432 . S
C1689 C272 1.437 . S
C1713 C503 1.456 . S
C1721 C305 1.445 . S
C1745 C404 1.430 . S
C1753 C338 1.438 . S
C1777 C371 1.426 . S
C1785 C437 1.444 . S
