# Generated by pormake.
# Topology wir, (6)-cn, num edge types: 1
# Building blocks:
#     Node 0, Type 0, BuildingBlock: MIFKUJ_clean_sbu_0, # of connection points: 6
#     Node 1, Type 0, BuildingBlock: MIFKUJ_clean_sbu_0, # of connection points: 6
#     Node 2, Type 0, BuildingBlock: MIFKUJ_clean_sbu_0, # of connection points: 6
#     Node 3, Type 0, BuildingBlock: MIFKUJ_clean_sbu_0, # of connection points: 6
#     Node 4, Type 0, BuildingBlock: MIFKUJ_clean_sbu_0, # of connection points: 6
#     Node 5, Type 0, BuildingBlock: MIFKUJ_clean_sbu_0, # of connection points: 6
#     Node 6, Type 0, BuildingBlock: MIFKUJ_clean_sbu_0, # of connection points: 6
#     Node 7, Type 0, BuildingBlock: MIFKUJ_clean_sbu_0, # of connection points: 6
#     Node 8, Type 0, BuildingBlock: MIFKUJ_clean_sbu_0, # of connection points: 6
#     Node 9, Type 0, BuildingBlock: MIFKUJ_clean_sbu_0, # of connection points: 6
#     Node 10, Type 0, BuildingBlock: MIFKUJ_clean_sbu_0, # of connection points: 6
#     Node 11, Type 0, BuildingBlock: MIFKUJ_clean_sbu_0, # of connection points: 6
#     Node 12, Type 0, BuildingBlock: MIFKUJ_clean_sbu_0, # of connection points: 6
#     Node 13, Type 0, BuildingBlock: MIFKUJ_clean_sbu_0, # of connection points: 6
#     Node 14, Type 0, BuildingBlock: MIFKUJ_clean_sbu_0, # of connection points: 6
#     Node 15, Type 0, BuildingBlock: MIFKUJ_clean_sbu_0, # of connection points: 6
#     Node 16, Type 0, BuildingBlock: MIFKUJ_clean_sbu_0, # of connection points: 6
#     Node 17, Type 0, BuildingBlock: MIFKUJ_clean_sbu_0, # of connection points: 6
#     Node 18, Type 0, BuildingBlock: MIFKUJ_clean_sbu_0, # of connection points: 6
#     Node 19, Type 0, BuildingBlock: MIFKUJ_clean_sbu_0, # of connection points: 6
#     Node 20, Type 0, BuildingBlock: MIFKUJ_clean_sbu_0, # of connection points: 6
#     Node 21, Type 0, BuildingBlock: MIFKUJ_clean_sbu_0, # of connection points: 6
#     Node 22, Type 0, BuildingBlock: MIFKUJ_clean_sbu_0, # of connection points: 6
#     Node 23, Type 0, BuildingBlock: MIFKUJ_clean_sbu_0, # of connection points: 6
#     Node 24, Type 0, BuildingBlock: MIFKUJ_clean_sbu_0, # of connection points: 6
#     Node 25, Type 0, BuildingBlock: MIFKUJ_clean_sbu_0, # of connection points: 6
#     Node 26, Type 0, BuildingBlock: MIFKUJ_clean_sbu_0, # of connection points: 6
#     Node 27, Type 0, BuildingBlock: MIFKUJ_clean_sbu_0, # of connection points: 6
#     Node 28, Type 0, BuildingBlock: MIFKUJ_clean_sbu_0, # of connection points: 6
#     Node 29, Type 0, BuildingBlock: MIFKUJ_clean_sbu_0, # of connection points: 6
#     Node 30, Type 0, BuildingBlock: MIFKUJ_clean_sbu_0, # of connection points: 6
#     Node 31, Type 0, BuildingBlock: MIFKUJ_clean_sbu_0, # of connection points: 6
#     Edge 32, Type (0, 0), BuildingBlock: XIVTED_clean_linker_0, # of connection points: 2
#     Edge 33, Type (0, 0), BuildingBlock: XIVTED_clean_linker_0, # of connection points: 2
#     Edge 34, Type (0, 0), BuildingBlock: XIVTED_clean_linker_0, # of connection points: 2
#     Edge 35, Type (0, 0), BuildingBlock: XIVTED_clean_linker_0, # of connection points: 2
#     Edge 36, Type (0, 0), BuildingBlock: XIVTED_clean_linker_0, # of connection points: 2
#     Edge 37, Type (0, 0), BuildingBlock: XIVTED_clean_linker_0, # of connection points: 2
#     Edge 38, Type (0, 0), BuildingBlock: XIVTED_clean_linker_0, # of connection points: 2
#     Edge 39, Type (0, 0), BuildingBlock: XIVTED_clean_linker_0, # of connection points: 2
#     Edge 40, Type (0, 0), BuildingBlock: XIVTED_clean_linker_0, # of connection points: 2
#     Edge 41, Type (0, 0), BuildingBlock: XIVTED_clean_linker_0, # of connection points: 2
#     Edge 42, Type (0, 0), BuildingBlock: XIVTED_clean_linker_0, # of connection points: 2
#     Edge 43, Type (0, 0), BuildingBlock: XIVTED_clean_linker_0, # of connection points: 2
#     Edge 44, Type (0, 0), BuildingBlock: XIVTED_clean_linker_0, # of connection points: 2
#     Edge 45, Type (0, 0), BuildingBlock: XIVTED_clean_linker_0, # of connection points: 2
#     Edge 46, Type (0, 0), BuildingBlock: XIVTED_clean_linker_0, # of connection points: 2
#     Edge 47, Type (0, 0), BuildingBlock: XIVTED_clean_linker_0, # of connection points: 2
#     Edge 48, Type (0, 0), BuildingBlock: XIVTED_clean_linker_0, # of connection points: 2
#     Edge 49, Type (0, 0), BuildingBlock: XIVTED_clean_linker_0, # of connection points: 2
#     Edge 50, Type (0, 0), BuildingBlock: XIVTED_clean_linker_0, # of connection points: 2
#     Edge 51, Type (0, 0), BuildingBlock: XIVTED_clean_linker_0, # of connection points: 2
#     Edge 52, Type (0, 0), BuildingBlock: XIVTED_clean_linker_0, # of connection points: 2
#     Edge 53, Type (0, 0), BuildingBlock: XIVTED_clean_linker_0, # of connection points: 2
#     Edge 54, Type (0, 0), BuildingBlock: XIVTED_clean_linker_0, # of connection points: 2
#     Edge 55, Type (0, 0), BuildingBlock: XIVTED_clean_linker_0, # of connection points: 2
#     Edge 56, Type (0, 0), BuildingBlock: XIVTED_clean_linker_0, # of connection points: 2
#     Edge 57, Type (0, 0), BuildingBlock: XIVTED_clean_linker_0, # of connection points: 2
#     Edge 58, Type (0, 0), BuildingBlock: XIVTED_clean_linker_0, # of connection points: 2
#     Edge 59, Type (0, 0), BuildingBlock: XIVTED_clean_linker_0, # of connection points: 2
#     Edge 60, Type (0, 0), BuildingBlock: XIVTED_clean_linker_0, # of connection points: 2
#     Edge 61, Type (0, 0), BuildingBlock: XIVTED_clean_linker_0, # of connection points: 2
#     Edge 62, Type (0, 0), BuildingBlock: XIVTED_clean_linker_0, # of connection points: 2
#     Edge 63, Type (0, 0), BuildingBlock: XIVTED_clean_linker_0, # of connection points: 2
#     Edge 64, Type (0, 0), BuildingBlock: XIVTED_clean_linker_0, # of connection points: 2
#     Edge 65, Type (0, 0), BuildingBlock: XIVTED_clean_linker_0, # of connection points: 2
#     Edge 66, Type (0, 0), BuildingBlock: XIVTED_clean_linker_0, # of connection points: 2
#     Edge 67, Type (0, 0), BuildingBlock: XIVTED_clean_linker_0, # of connection points: 2
#     Edge 68, Type (0, 0), BuildingBlock: XIVTED_clean_linker_0, # of connection points: 2
#     Edge 69, Type (0, 0), BuildingBlock: XIVTED_clean_linker_0, # of connection points: 2
#     Edge 70, Type (0, 0), BuildingBlock: XIVTED_clean_linker_0, # of connection points: 2
#     Edge 71, Type (0, 0), BuildingBlock: XIVTED_clean_linker_0, # of connection points: 2
#     Edge 72, Type (0, 0), BuildingBlock: XIVTED_clean_linker_0, # of connection points: 2
#     Edge 73, Type (0, 0), BuildingBlock: XIVTED_clean_linker_0, # of connection points: 2
#     Edge 74, Type (0, 0), BuildingBlock: XIVTED_clean_linker_0, # of connection points: 2
#     Edge 75, Type (0, 0), BuildingBlock: XIVTED_clean_linker_0, # of connection points: 2
#     Edge 76, Type (0, 0), BuildingBlock: XIVTED_clean_linker_0, # of connection points: 2
#     Edge 77, Type (0, 0), BuildingBlock: XIVTED_clean_linker_0, # of connection points: 2
#     Edge 78, Type (0, 0), BuildingBlock: XIVTED_clean_linker_0, # of connection points: 2
#     Edge 79, Type (0, 0), BuildingBlock: XIVTED_clean_linker_0, # of connection points: 2
#     Edge 80, Type (0, 0), BuildingBlock: XIVTED_clean_linker_0, # of connection points: 2
#     Edge 81, Type (0, 0), BuildingBlock: XIVTED_clean_linker_0, # of connection points: 2
#     Edge 82, Type (0, 0), BuildingBlock: XIVTED_clean_linker_0, # of connection points: 2
#     Edge 83, Type (0, 0), BuildingBlock: XIVTED_clean_linker_0, # of connection points: 2
#     Edge 84, Type (0, 0), BuildingBlock: XIVTED_clean_linker_0, # of connection points: 2
#     Edge 85, Type (0, 0), BuildingBlock: XIVTED_clean_linker_0, # of connection points: 2
#     Edge 86, Type (0, 0), BuildingBlock: XIVTED_clean_linker_0, # of connection points: 2
#     Edge 87, Type (0, 0), BuildingBlock: XIVTED_clean_linker_0, # of connection points: 2
#     Edge 88, Type (0, 0), BuildingBlock: XIVTED_clean_linker_0, # of connection points: 2
#     Edge 89, Type (0, 0), BuildingBlock: XIVTED_clean_linker_0, # of connection points: 2
#     Edge 90, Type (0, 0), BuildingBlock: XIVTED_clean_linker_0, # of connection points: 2
#     Edge 91, Type (0, 0), BuildingBlock: XIVTED_clean_linker_0, # of connection points: 2
#     Edge 92, Type (0, 0), BuildingBlock: XIVTED_clean_linker_0, # of connection points: 2
#     Edge 93, Type (0, 0), BuildingBlock: XIVTED_clean_linker_0, # of connection points: 2
#     Edge 94, Type (0, 0), BuildingBlock: XIVTED_clean_linker_0, # of connection points: 2
#     Edge 95, Type (0, 0), BuildingBlock: XIVTED_clean_linker_0, # of connection points: 2
#     Edge 96, Type (0, 0), BuildingBlock: XIVTED_clean_linker_0, # of connection points: 2
#     Edge 97, Type (0, 0), BuildingBlock: XIVTED_clean_linker_0, # of connection points: 2
#     Edge 98, Type (0, 0), BuildingBlock: XIVTED_clean_linker_0, # of connection points: 2
#     Edge 99, Type (0, 0), BuildingBlock: XIVTED_clean_linker_0, # of connection points: 2
#     Edge 100, Type (0, 0), BuildingBlock: XIVTED_clean_linker_0, # of connection points: 2
#     Edge 101, Type (0, 0), BuildingBlock: XIVTED_clean_linker_0, # of connection points: 2
#     Edge 102, Type (0, 0), BuildingBlock: XIVTED_clean_linker_0, # of connection points: 2
#     Edge 103, Type (0, 0), BuildingBlock: XIVTED_clean_linker_0, # of connection points: 2
#     Edge 104, Type (0, 0), BuildingBlock: XIVTED_clean_linker_0, # of connection points: 2
#     Edge 105, Type (0, 0), BuildingBlock: XIVTED_clean_linker_0, # of connection points: 2
#     Edge 106, Type (0, 0), BuildingBlock: XIVTED_clean_linker_0, # of connection points: 2
#     Edge 107, Type (0, 0), BuildingBlock: XIVTED_clean_linker_0, # of connection points: 2
#     Edge 108, Type (0, 0), BuildingBlock: XIVTED_clean_linker_0, # of connection points: 2
#     Edge 109, Type (0, 0), BuildingBlock: XIVTED_clean_linker_0, # of connection points: 2
#     Edge 110, Type (0, 0), BuildingBlock: XIVTED_clean_linker_0, # of connection points: 2
#     Edge 111, Type (0, 0), BuildingBlock: XIVTED_clean_linker_0, # of connection points: 2
#     Edge 112, Type (0, 0), BuildingBlock: XIVTED_clean_linker_0, # of connection points: 2
#     Edge 113, Type (0, 0), BuildingBlock: XIVTED_clean_linker_0, # of connection points: 2
#     Edge 114, Type (0, 0), BuildingBlock: XIVTED_clean_linker_0, # of connection points: 2
#     Edge 115, Type (0, 0), BuildingBlock: XIVTED_clean_linker_0, # of connection points: 2
#     Edge 116, Type (0, 0), BuildingBlock: XIVTED_clean_linker_0, # of connection points: 2
#     Edge 117, Type (0, 0), BuildingBlock: XIVTED_clean_linker_0, # of connection points: 2
#     Edge 118, Type (0, 0), BuildingBlock: XIVTED_clean_linker_0, # of connection points: 2
#     Edge 119, Type (0, 0), BuildingBlock: XIVTED_clean_linker_0, # of connection points: 2
#     Edge 120, Type (0, 0), BuildingBlock: XIVTED_clean_linker_0, # of connection points: 2
#     Edge 121, Type (0, 0), BuildingBlock: XIVTED_clean_linker_0, # of connection points: 2
#     Edge 122, Type (0, 0), BuildingBlock: XIVTED_clean_linker_0, # of connection points: 2
#     Edge 123, Type (0, 0), BuildingBlock: XIVTED_clean_linker_0, # of connection points: 2
#     Edge 124, Type (0, 0), BuildingBlock: XIVTED_clean_linker_0, # of connection points: 2
#     Edge 125, Type (0, 0), BuildingBlock: XIVTED_clean_linker_0, # of connection points: 2
#     Edge 126, Type (0, 0), BuildingBlock: XIVTED_clean_linker_0, # of connection points: 2
#     Edge 127, Type (0, 0), BuildingBlock: XIVTED_clean_linker_0, # of connection points: 2
# Relax obj value: 0.302
# Max RMSD: 0.183
# Mean RMSD: 0.183
data_MOF--net-wir--node1-MIFKUJ_clean_sbu_0--edge1-XIVTED_clean_linker_0
_symmetry_space_group_name_H-M    P1
_symmetry_Int_Tables_number       1
_symmetry_cell_setting            triclinic
loop_
_symmetry_equiv_pos_as_xyz
'x, y, z'
_cell_length_a     37.395105
_cell_length_b     37.425594
_cell_length_c     93.440102
_cell_angle_alpha  90.176061
_cell_angle_beta   90.221684
_cell_angle_gamma 89.984117
loop_
_atom_site_label
_atom_site_type_symbol
_atom_site_fract_x
_atom_site_fract_y
_atom_site_fract_z
_atom_type_partial_charge
Zn0 Zn 0.19859 0.16562 0.3488 0.0
Zn1 Zn 0.17249 0.21421 0.38282 0.0
C2 C 0.21141 0.21204 0.32464 0.0
O3 O 0.18028 0.19769 0.32147 0.0
C4 C 0.10082 0.22653 0.39174 0.0
O5 O 0.11143 0.25926 0.389 0.0
O6 O 0.19498 0.12352 0.33498 0.0
O7 O 0.22657 0.14649 0.36732 0.0
O8 O 0.2078 0.17432 0.38705 0.0
C9 C 0.22341 0.11359 0.32866 0.0
O10 O 0.2537 0.1293 0.33206 0.0
O11 O 0.22595 0.20373 0.33662 0.0
C12 C 0.1969 0.28603 0.389 0.0
O13 O 0.20584 0.28647 0.37542 0.0
O14 O 0.18576 0.2571 0.39448 0.0
O15 O 0.16816 0.22996 0.36231 0.0
O16 O 0.14631 0.18361 0.35135 0.0
O17 O 0.12267 0.20084 0.3898 0.0
C18 C 0.22725 0.15074 0.381 0.0
C19 C 0.14194 0.21521 0.35606 0.0
Zn20 Zn 0.14129 0.95068 0.60091 0.0
Zn21 Zn 0.11308 0.94709 0.63099 0.0
C22 C 0.09947 0.96293 0.57649 0.0
O23 O 0.10924 0.92933 0.57524 0.0
C24 C 0.18576 0.92346 0.63559 0.0
O25 O 0.18456 0.94688 0.64608 0.0
O26 O 0.18151 0.93861 0.5871 0.0
O27 O 0.16698 0.98394 0.61661 0.0
O28 O 0.11855 0.99964 0.62761 0.0
C29 C 0.19646 0.96651 0.58216 0.0
O30 O 0.18633 0.9978 0.58712 0.0
O31 O 0.10884 0.98004 0.58773 0.0
C32 C 0.11145 0.9217 0.66099 0.0
O33 O 0.12434 0.89072 0.65684 0.0
O34 O 0.10432 0.94575 0.65186 0.0
O35 O 0.07333 0.92147 0.62117 0.0
O36 O 0.11149 0.90291 0.60487 0.0
O37 O 0.1584 0.91917 0.62769 0.0
C38 C 0.15146 1.00485 0.62545 0.0
C39 C 0.08226 0.89851 0.61181 0.0
Zn40 Zn 0.36503 0.88515 0.85242 0.0
Zn41 Zn 0.40053 0.88761 0.88929 0.0
C42 C 0.34963 0.84178 0.82796 0.0
O43 O 0.38166 0.85453 0.82533 0.0
C44 C 0.44554 0.86569 0.91087 0.0
O45 O 0.42906 0.83605 0.90715 0.0
O46 O 0.37143 0.92646 0.83868 0.0
O47 O 0.33496 0.90783 0.87016 0.0
O48 O 0.37787 0.93306 0.88284 0.0
C49 C 0.34242 0.93926 0.83371 0.0
O50 O 0.31198 0.92698 0.83867 0.0
O51 O 0.33484 0.85024 0.83984 0.0
C52 C 0.34826 0.83062 0.88616 0.0
O53 O 0.35653 0.83238 0.87254 0.0
O54 O 0.36279 0.85227 0.89492 0.0
O55 O 0.43492 0.86515 0.87606 0.0
O56 O 0.41573 0.85973 0.85385 0.0
O57 O 0.43394 0.89516 0.90591 0.0
C58 C 0.34478 0.92979 0.88008 0.0
C59 C 0.43982 0.85462 0.86337 0.0
Zn60 Zn 0.42521 0.08574 0.10343 0.0
Zn61 Zn 0.37288 0.13844 0.12427 0.0
C62 C 0.46609 0.07305 0.07886 0.0
O63 O 0.45568 0.10641 0.07751 0.0
C64 C 0.32306 0.15086 0.10046 0.0
O65 O 0.29974 0.14131 0.09064 0.0
O66 O 0.3845 0.09532 0.08927 0.0
O67 O 0.40708 0.05396 0.12106 0.0
O68 O 0.37943 0.09283 0.13515 0.0
C69 C 0.36919 0.06806 0.08382 0.0
O70 O 0.37846 0.03624 0.08845 0.0
O71 O 0.45766 0.0563 0.09025 0.0
C72 C 0.35197 0.17395 0.15139 0.0
O73 O 0.32897 0.19007 0.15981 0.0
O74 O 0.34361 0.1681 0.13834 0.0
O75 O 0.41768 0.16671 0.11926 0.0
O76 O 0.45508 0.13271 0.10713 0.0
O77 O 0.34124 0.12726 0.107 0.0
C78 C 0.39025 0.06123 0.1327 0.0
C79 C 0.4475 0.16271 0.11296 0.0
Zn80 Zn 0.20959 0.88304 0.22743 0.0
Zn81 Zn 0.20049 0.84357 0.19833 0.0
C82 C 0.22221 0.84017 0.25199 0.0
O83 O 0.18988 0.85277 0.25418 0.0
C84 C 0.16515 0.90337 0.18675 0.0
O85 O 0.18863 0.89824 0.17651 0.0
O86 O 0.20105 0.92471 0.24111 0.0
O87 O 0.24144 0.90475 0.21051 0.0
O88 O 0.25072 0.86083 0.19518 0.0
C89 C 0.22908 0.93823 0.24669 0.0
O90 O 0.26039 0.92615 0.24255 0.0
O91 O 0.23794 0.84829 0.24032 0.0
C92 C 0.14955 0.81272 0.17985 0.0
O93 O 0.1291 0.83057 0.18874 0.0
O94 O 0.18339 0.81475 0.18128 0.0
O95 O 0.1854 0.81191 0.21481 0.0
O96 O 0.15951 0.8588 0.2239 0.0
O97 O 0.1697 0.88723 0.1985 0.0
C98 C 0.25778 0.89235 0.19948 0.0
C99 C 0.15781 0.82581 0.22046 0.0
Zn100 Zn 0.4054 0.95972 0.47446 0.0
Zn101 Zn 0.44121 0.96684 0.44374 0.0
C102 C 0.45543 0.97199 0.49721 0.0
O103 O 0.44458 0.93903 0.49932 0.0
C104 C 0.38006 0.94002 0.4273 0.0
O105 O 0.38431 0.96885 0.41951 0.0
O106 O 0.36889 0.94804 0.48978 0.0
O107 O 0.37544 0.98943 0.45917 0.0
O108 O 0.4209 1.01478 0.44883 0.0
C109 C 0.3567 0.97559 0.49611 0.0
O110 O 0.36721 1.00721 0.49173 0.0
O111 O 0.4433 0.98856 0.48624 0.0
C112 C 0.47165 0.95964 0.41504 0.0
O113 O 0.45238 0.93043 0.41387 0.0
O114 O 0.47073 0.97768 0.42655 0.0
O115 O 0.47372 0.93777 0.45684 0.0
O116 O 0.42983 0.91161 0.46835 0.0
O117 O 0.40066 0.93455 0.43792 0.0
C118 C 0.38739 1.01329 0.45068 0.0
C119 C 0.46127 0.91018 0.46304 0.0
Zn120 Zn 0.34217 0.15042 0.72683 0.0
Zn121 Zn 0.33369 0.18746 0.69744 0.0
C122 C 0.32645 0.19671 0.75054 0.0
O123 O 0.35896 0.18565 0.75355 0.0
C124 C 0.35513 0.12289 0.68221 0.0
O125 O 0.32669 0.1294 0.67435 0.0
O126 O 0.3545 0.11305 0.74174 0.0
O127 O 0.31174 0.12222 0.71153 0.0
O128 O 0.2854 0.17051 0.70428 0.0
C129 C 0.32723 0.09941 0.74773 0.0
O130 O 0.29532 0.10905 0.74323 0.0
O131 O 0.3123 0.18661 0.73871 0.0
C132 C 0.33692 0.2097 0.66748 0.0
O133 O 0.367 0.19168 0.66677 0.0
O134 O 0.32067 0.21235 0.67934 0.0
O135 O 0.36639 0.22064 0.70907 0.0
O136 O 0.39003 0.17522 0.72068 0.0
O137 O 0.36329 0.14419 0.69233 0.0
C138 C 0.28613 0.13665 0.70459 0.0
C139 C 0.39313 0.20662 0.71543 0.0
Zn140 Zn 0.15435 0.09606 0.97702 0.0
Zn141 Zn 0.08969 0.06629 0.95492 0.0
C142 C 0.10485 0.08458 0.99938 0.0
O143 O 0.11477 0.11798 1.00114 0.0
C144 C 0.06523 0.04461 0.9271 0.0
O145 O 0.08661 1.01704 0.92864 0.0
O146 O 0.19294 0.10565 0.99217 0.0
O147 O 0.18119 0.06917 0.96022 0.0
O148 O 0.13726 0.05131 0.9461 0.0
C149 C 0.2045 0.07738 0.9982 0.0
O150 O 0.19248 0.0464 0.9936 0.0
O151 O 0.11775 0.06719 0.98878 0.0
C152 C 0.04401 1.01664 0.97084 0.0
O153 O 0.03781 0.99156 0.9803 0.0
O154 O 0.07478 0.03101 0.97023 0.0
O155 O 0.08367 0.1195 0.96009 0.0
O156 O 0.12929 0.14395 0.97165 0.0
O157 O 0.05645 0.06235 0.93813 0.0
C158 C 0.17053 0.05308 0.94886 0.0
C159 C 0.09871 0.14696 0.96559 0.0
Zn160 Zn 0.92046 0.93387 0.70407 0.0
Zn161 Zn 0.86252 0.87327 0.71801 0.0
C162 C 0.94056 0.97428 0.7304 0.0
O163 O 0.93356 0.99607 0.74106 0.0
C164 C 0.84823 0.8302 0.74171 0.0
O165 O 0.8814 0.84086 0.7436 0.0
O166 O 0.95485 0.96048 0.69108 0.0
O167 O 0.9454 0.88609 0.70696 0.0
O168 O 0.90921 0.8435 0.71423 0.0
C169 C 0.97335 0.94754 0.68083 0.0
O170 O 0.99669 0.96822 0.67444 0.0
O171 O 0.91511 0.96235 0.72267 0.0
C172 C 0.84289 0.92827 0.73723 0.0
O173 O 0.81201 0.91971 0.73141 0.0
O174 O 0.871 0.91285 0.73265 0.0
O175 O 0.83365 0.89454 0.70021 0.0
O176 O 0.87294 0.93519 0.69333 0.0
O177 O 0.83196 0.83965 0.73028 0.0
C178 C 0.94037 0.85372 0.71049 0.0
C179 C 0.84235 0.92059 0.69199 0.0
Zn180 Zn 0.87327 0.13947 0.45081 0.0
Zn181 Zn 0.93458 0.08767 0.46753 0.0
C182 C 0.82754 0.14891 0.47644 0.0
O183 O 0.80437 0.13755 0.48591 0.0
C184 C 0.9781 0.07625 0.49144 0.0
O185 O 0.96695 0.10935 0.49294 0.0
O186 O 0.84244 0.17211 0.43861 0.0
O187 O 0.91853 0.16857 0.45436 0.0
O188 O 0.96172 0.13551 0.46351 0.0
C189 C 0.85044 0.19395 0.42865 0.0
O190 O 0.82483 0.21382 0.42322 0.0
O191 O 0.84358 0.12662 0.46843 0.0
C192 C 0.88131 0.06801 0.488 0.0
O193 O 0.89108 0.03626 0.48342 0.0
O194 O 0.89509 0.0955 0.48221 0.0
O195 O 0.91641 0.05696 0.44963 0.0
O196 O 0.8783 0.09422 0.43922 0.0
O197 O 0.96924 0.05921 0.4801 0.0
C198 C 0.95056 0.16553 0.45881 0.0
C199 C 0.89411 0.06416 0.43953 0.0
Zn200 Zn 0.6475 0.1949 0.19412 0.0
Zn201 Zn 0.68697 0.16073 0.22451 0.0
C202 C 0.60188 0.14133 0.18397 0.0
O203 O 0.6259 0.14309 0.17377 0.0
C204 C 0.70228 0.20392 0.24931 0.0
O205 O 0.67176 0.18871 0.25262 0.0
O206 O 0.62564 0.23226 0.18135 0.0
O207 O 0.6552 0.22336 0.21203 0.0
O208 O 0.63427 0.1799 0.22442 0.0
C209 C 0.59194 0.23681 0.18239 0.0
O210 O 0.57298 0.2151 0.19029 0.0
O211 O 0.60867 0.1571 0.19575 0.0
C212 C 0.71635 0.10656 0.24214 0.0
O213 O 0.74552 0.12283 0.23784 0.0
O214 O 0.68635 0.11692 0.23722 0.0
O215 O 0.71423 0.14538 0.20506 0.0
O216 O 0.69129 0.17196 0.18585 0.0
O217 O 0.7157 0.19717 0.237 0.0
C218 C 0.63116 0.21206 0.22028 0.0
C219 C 0.71429 0.15109 0.19145 0.0
Zn220 Zn 0.68792 0.88135 0.95704 0.0
Zn221 Zn 0.62644 0.93887 0.97079 0.0
C222 C 0.7288 0.85989 0.98264 0.0
O223 O 0.7487 0.86577 0.994 0.0
C224 C 0.58428 0.95209 0.99478 0.0
O225 O 0.59508 0.91889 0.99629 0.0
O226 O 0.71735 0.84907 0.94405 0.0
O227 O 0.64016 0.85503 0.95921 0.0
O228 O 0.5979 0.89187 0.96662 0.0
C229 C 0.70461 0.8335 0.93301 0.0
O230 O 0.72439 0.81037 0.92601 0.0
O231 O 0.71465 0.88602 0.97604 0.0
C232 C 0.68195 0.9601 0.98936 0.0
O233 O 0.67271 0.99046 0.98336 0.0
O234 O 0.66662 0.93154 0.98515 0.0
O235 O 0.64635 0.96789 0.95317 0.0
O236 O 0.6879 0.92913 0.94661 0.0
O237 O 0.59286 0.96868 0.98337 0.0
C238 C 0.60771 0.86067 0.96266 0.0
C239 C 0.67277 0.95938 0.94512 0.0
Zn240 Zn 0.84883 0.16632 0.88286 0.0
Zn241 Zn 0.84423 0.13729 0.84617 0.0
C242 C 0.86241 0.11067 0.90239 0.0
O243 O 0.83135 0.12246 0.90692 0.0
C244 C 0.82734 0.1865 0.82376 0.0
O245 O 0.86103 0.17843 0.82144 0.0
O246 O 0.83999 0.19598 0.90026 0.0
O247 O 0.88258 0.1955 0.8708 0.0
O248 O 0.8919 0.16532 0.85064 0.0
C249 C 0.86465 0.19968 0.90954 0.0
O250 O 0.89649 0.18625 0.90701 0.0
O251 O 0.87492 0.12307 0.89077 0.0
C252 C 0.82868 0.08761 0.82416 0.0
O253 O 0.79672 0.0979 0.82827 0.0
O254 O 0.85581 0.10007 0.83077 0.0
O255 O 0.81667 0.10804 0.86226 0.0
O256 O 0.80002 0.15295 0.87561 0.0
O257 O 0.81212 0.17284 0.83471 0.0
C258 C 0.90062 0.19009 0.85949 0.0
C259 C 0.7973 0.12015 0.87243 0.0
Zn260 Zn 0.61671 0.08556 0.6255 0.0
Zn261 Zn 0.66702 0.10015 0.59437 0.0
C262 C 0.62346 0.12012 0.6532 0.0
O263 O 0.58864 0.12388 0.65198 0.0
C264 C 0.61668 0.08671 0.57207 0.0
O265 O 0.62846 0.11917 0.56957 0.0
O266 O 0.57114 0.06287 0.63165 0.0
O267 O 0.60244 0.1311 0.61438 0.0
O268 O 0.64382 0.14933 0.59912 0.0
C269 C 0.57023 0.04175 0.64225 0.0
O270 O 0.60008 0.0338 0.64899 0.0
O271 O 0.64065 0.10457 0.64326 0.0
C272 C 0.71556 0.07912 0.5728 0.0
O273 O 0.70267 0.04846 0.57726 0.0
O274 O 0.70501 0.10768 0.57893 0.0
O275 O 0.69472 0.07409 0.61111 0.0
O276 O 0.64889 0.0446 0.61935 0.0
O277 O 0.62841 0.07065 0.58323 0.0
C278 C 0.61487 0.15494 0.60602 0.0
C279 C 0.68243 0.04968 0.61924 0.0
Zn280 Zn 0.72364 0.8523 0.37476 0.0
Zn281 Zn 0.72557 0.87683 0.34304 0.0
C282 C 0.69525 0.92495 0.37793 0.0
O283 O 0.71951 0.92892 0.38802 0.0
C284 C 0.73745 0.83143 0.31894 0.0
O285 O 0.70391 0.84114 0.31732 0.0
O286 O 0.72191 0.84307 0.39574 0.0
O287 O 0.69906 0.81148 0.36481 0.0
O288 O 0.6782 0.84904 0.34871 0.0
C289 C 0.6972 0.85013 0.40461 0.0
O290 O 0.6669 0.86392 0.40009 0.0
O291 O 0.69371 0.89574 0.37104 0.0
C292 C 0.73726 0.93046 0.32283 0.0
O293 O 0.76979 0.921 0.32661 0.0
O294 O 0.71092 0.91535 0.32892 0.0
O295 O 0.75859 0.90551 0.35787 0.0
O296 O 0.77554 0.86158 0.37151 0.0
O297 O 0.75432 0.84244 0.33003 0.0
C298 C 0.6745 0.82043 0.35606 0.0
C299 C 0.77939 0.89372 0.36768 0.0
Zn300 Zn 0.91502 0.95467 0.12735 0.0
Zn301 Zn 0.89487 0.96449 0.09699 0.0
C302 C 0.83933 0.93527 0.12734 0.0
O303 O 0.83705 0.95874 0.13779 0.0
C304 C 0.94464 0.97366 0.07419 0.0
O305 O 0.93322 0.94081 0.07221 0.0
O306 O 0.9222 0.94046 0.14751 0.0
O307 O 0.95748 0.93239 0.11749 0.0
O308 O 0.91856 0.91347 0.10172 0.0
C309 C 0.92386 0.90737 0.15033 0.0
O310 O 0.9135 0.8843 0.14052 0.0
O311 O 0.86917 0.93085 0.12113 0.0
C312 C 0.8457 0.98075 0.07479 0.0
O313 O 0.85865 1.01247 0.07794 0.0
O314 O 0.85631 0.95405 0.08206 0.0
O315 O 0.86856 0.99994 0.11218 0.0
O316 O 0.91102 1.00735 0.12797 0.0
O317 O 0.9328 0.99111 0.08496 0.0
C318 C 0.94756 0.90833 0.10876 0.0
C319 C 0.8807 1.01653 0.12323 0.0
Zn320 Zn 0.72017 0.65327 0.84712 0.0
Zn321 Zn 0.72159 0.68375 0.87708 0.0
C322 C 0.73295 0.69723 0.82329 0.0
O323 O 0.69916 0.68824 0.82185 0.0
C324 C 0.68921 0.61283 0.88231 0.0
O325 O 0.71294 0.6086 0.89257 0.0
O326 O 0.70531 0.61475 0.83298 0.0
O327 O 0.75232 0.62519 0.86232 0.0
O328 O 0.77296 0.67164 0.87364 0.0
C329 C 0.73162 0.59963 0.82685 0.0
O330 O 0.76416 0.60858 0.83084 0.0
O331 O 0.74994 0.68627 0.83431 0.0
C332 C 0.69766 0.69186 0.90689 0.0
O333 O 0.66662 0.67865 0.90292 0.0
O334 O 0.72206 0.69672 0.8977 0.0
O335 O 0.6973 0.72339 0.8663 0.0
O336 O 0.67351 0.6829 0.85203 0.0
O337 O 0.68954 0.64116 0.8749 0.0
C338 C 0.77483 0.63844 0.87119 0.0
C339 C 0.6716 0.7134 0.85825 0.0
Zn340 Zn 0.64803 0.44576 0.09503 0.0
Zn341 Zn 0.57988 0.4696 0.11788 0.0
C342 C 0.59875 0.45888 0.07219 0.0
O343 O 0.60984 0.42621 0.06954 0.0
C344 C 0.51997 0.44449 0.13365 0.0
O345 O 0.50824 0.4356 0.12085 0.0
O346 O 0.68862 0.43914 0.08041 0.0
O347 O 0.67125 0.47288 0.11284 0.0
O348 O 0.62586 0.48887 0.12663 0.0
C349 C 0.69867 0.46716 0.07382 0.0
O350 O 0.68383 0.49781 0.07727 0.0
O351 O 0.61051 0.47457 0.08344 0.0
C352 C 0.53174 0.52395 0.10332 0.0
O353 O 0.52387 0.54317 0.092 0.0
O354 O 0.56005 0.50491 0.10321 0.0
O355 O 0.58089 0.41717 0.11168 0.0
O356 O 0.62582 0.3956 0.09915 0.0
O357 O 0.54776 0.46391 0.13466 0.0
C358 C 0.65929 0.48863 0.12407 0.0
C359 C 0.59624 0.39076 0.10567 0.0
Zn360 Zn 0.84666 0.39556 0.34942 0.0
Zn361 Zn 0.8544 0.37282 0.38683 0.0
C362 C 0.82955 0.35029 0.32566 0.0
O363 O 0.86272 0.36006 0.32324 0.0
C364 C 0.86293 0.43055 0.40573 0.0
O365 O 0.83259 0.4168 0.4101 0.0
O366 O 0.85946 0.43239 0.33468 0.0
O367 O 0.81886 0.42576 0.36503 0.0
O368 O 0.80478 0.38242 0.37944 0.0
C369 C 0.8326 0.4473 0.32886 0.0
O370 O 0.80047 0.43952 0.33357 0.0
O371 O 0.81479 0.36106 0.33725 0.0
C372 C 0.87152 0.34249 0.41382 0.0
O373 O 0.90308 0.3565 0.41129 0.0
O374 O 0.84699 0.34467 0.40443 0.0
O375 O 0.8906 0.34436 0.37552 0.0
O376 O 0.89417 0.36817 0.35385 0.0
O377 O 0.87706 0.41829 0.39436 0.0
C378 C 0.80051 0.41454 0.37559 0.0
C379 C 0.90617 0.34715 0.36351 0.0
Zn380 Zn 0.89815 0.60253 0.59939 0.0
Zn381 Zn 0.93156 0.63034 0.63954 0.0
C382 C 0.94576 0.58461 0.57676 0.0
O383 O 0.93339 0.6163 0.57331 0.0
C384 C 0.96215 0.68759 0.6544 0.0
O385 O 0.9895 0.67433 0.64737 0.0
O386 O 0.85747 0.60582 0.58484 0.0
O387 O 0.87415 0.57852 0.61869 0.0
O388 O 0.88911 0.59801 0.64066 0.0
C389 C 0.84796 0.5778 0.57808 0.0
O390 O 0.86271 0.54714 0.58154 0.0
O391 O 0.93519 0.57074 0.58854 0.0
C392 C 0.97765 0.57481 0.65036 0.0
O393 O 0.95027 0.56726 0.65858 0.0
O394 O 0.97527 0.60036 0.6415 0.0
O395 O 0.93365 0.65481 0.62134 0.0
O396 O 0.92071 0.65449 0.59881 0.0
O397 O 0.93245 0.67096 0.65389 0.0
C398 C 0.87044 0.57788 0.6325 0.0
C399 C 0.93479 0.67038 0.60944 0.0
Zn400 Zn 0.69256 0.38221 0.72304 0.0
Zn401 Zn 0.71317 0.32004 0.69861 0.0
C402 C 0.70499 0.33453 0.74702 0.0
O403 O 0.67079 0.34157 0.74854 0.0
C404 C 0.70355 0.268 0.67453 0.0
O405 O 0.71477 0.24105 0.66671 0.0
O406 O 0.68399 0.42269 0.7371 0.0
O407 O 0.71973 0.4075 0.70584 0.0
O408 O 0.72848 0.3667 0.68907 0.0
C409 C 0.71317 0.43623 0.7416 0.0
O410 O 0.74331 0.42466 0.73608 0.0
O411 O 0.72134 0.348 0.7363 0.0
C412 C 0.7528 0.2783 0.71975 0.0
O413 O 0.77824 0.27295 0.72921 0.0
O414 O 0.74663 0.30975 0.71523 0.0
O415 O 0.65988 0.31486 0.70398 0.0
O416 O 0.64318 0.35901 0.7183 0.0
O417 O 0.72445 0.28144 0.68388 0.0
C418 C 0.73104 0.39892 0.69335 0.0
C419 C 0.63558 0.33089 0.71109 0.0
Zn420 Zn 0.93222 0.45486 0.9732 0.0
Zn421 Zn 0.87181 0.3989 0.95718 0.0
C422 C 0.97604 0.47141 0.99735 0.0
O423 O 0.96655 0.43821 0.99985 0.0
C424 C 0.82687 0.38047 0.98183 0.0
O425 O 0.80504 0.38762 0.99243 0.0
O426 O 0.89182 0.4467 0.98755 0.0
O427 O 0.91338 0.48427 0.95512 0.0
O428 O 0.87443 0.44528 0.94646 0.0
C429 C 0.87568 0.4741 0.99246 0.0
O430 O 0.88421 0.50565 0.98737 0.0
O431 O 0.9659 0.4858 0.98563 0.0
C432 C 0.85353 0.35134 0.93303 0.0
O433 O 0.83204 0.32972 0.92601 0.0
O434 O 0.84196 0.3677 0.94405 0.0
O435 O 0.91867 0.37197 0.95985 0.0
O436 O 0.96039 0.407 0.96915 0.0
O437 O 0.84336 0.4057 0.97561 0.0
C438 C 0.88945 0.47568 0.94583 0.0
C439 C 0.95059 0.37648 0.96428 0.0
Zn440 Zn 0.86982 0.63767 0.21812 0.0
Zn441 Zn 0.85196 0.68527 0.1935 0.0
C442 C 0.85644 0.68643 0.24073 0.0
O443 O 0.88909 0.67489 0.24316 0.0
C444 C 0.85967 0.64443 0.16794 0.0
O445 O 0.82742 0.6571 0.16563 0.0
O446 O 0.87732 0.60051 0.23334 0.0
O447 O 0.8431 0.61045 0.20179 0.0
O448 O 0.80802 0.65613 0.19946 0.0
C449 C 0.84783 0.58911 0.23829 0.0
O450 O 0.81789 0.60031 0.23242 0.0
O451 O 0.84041 0.67549 0.22941 0.0
C452 C 0.84564 0.73405 0.17039 0.0
O453 O 0.87807 0.7225 0.16762 0.0
O454 O 0.83005 0.72386 0.1817 0.0
O455 O 0.89206 0.70933 0.20586 0.0
O456 O 0.91837 0.66023 0.21331 0.0
O457 O 0.87643 0.6528 0.17934 0.0
C458 C 0.81375 0.62313 0.19714 0.0
C459 C 0.92009 0.6935 0.21049 0.0
Zn460 Zn 0.63308 0.60685 0.47189 0.0
Zn461 Zn 0.69404 0.66307 0.45686 0.0
C462 C 0.59018 0.5915 0.4958 0.0
O463 O 0.60112 0.6243 0.49831 0.0
C464 C 0.73029 0.68951 0.48283 0.0
O465 O 0.74914 0.68597 0.49462 0.0
O466 O 0.67262 0.61488 0.48653 0.0
O467 O 0.65331 0.57666 0.4546 0.0
O468 O 0.69533 0.61402 0.44735 0.0
C469 C 0.68773 0.58676 0.49125 0.0
O470 O 0.67887 0.55581 0.48558 0.0
O471 O 0.59899 0.57671 0.48399 0.0
C472 C 0.714 0.71045 0.43275 0.0
O473 O 0.73593 0.73229 0.42619 0.0
O474 O 0.72471 0.6942 0.44395 0.0
O475 O 0.64595 0.68871 0.45784 0.0
O476 O 0.6048 0.65389 0.46739 0.0
O477 O 0.71843 0.66189 0.47642 0.0
C478 C 0.67983 0.58382 0.44643 0.0
C479 C 0.614 0.68394 0.46207 0.0
Zn480 Zn 0.34923 0.37713 0.19488 0.0
Zn481 Zn 0.34997 0.41228 0.22635 0.0
C482 C 0.36697 0.43319 0.17619 0.0
O483 O 0.3353 0.42319 0.17154 0.0
C484 C 0.33463 0.36374 0.24932 0.0
O485 O 0.36733 0.37467 0.25207 0.0
O486 O 0.34128 0.34681 0.17772 0.0
O487 O 0.37746 0.3452 0.2084 0.0
O488 O 0.39917 0.38887 0.22159 0.0
C489 C 0.36615 0.3409 0.16881 0.0
O490 O 0.39838 0.35348 0.17132 0.0
O491 O 0.37975 0.41805 0.18728 0.0
C492 C 0.33231 0.4607 0.24806 0.0
O493 O 0.30073 0.45049 0.24337 0.0
O494 O 0.36003 0.4488 0.24181 0.0
O495 O 0.3221 0.44184 0.2105 0.0
O496 O 0.29962 0.39558 0.19945 0.0
O497 O 0.31962 0.37485 0.2378 0.0
C498 C 0.40248 0.35769 0.21617 0.0
C499 C 0.29911 0.42898 0.20176 0.0
Zn500 Zn 0.42913 0.58069 0.94495 0.0
Zn501 Zn 0.39242 0.59012 0.97445 0.0
C502 C 0.36754 0.60696 0.92872 0.0
O503 O 0.37087 0.57722 0.92135 0.0
C504 C 0.44279 0.57665 0.99692 0.0
O505 O 0.43319 0.60993 0.99925 0.0
O506 O 0.45887 0.56885 0.92795 0.0
O507 O 0.46207 0.60964 0.95799 0.0
O508 O 0.4175 0.63774 0.96826 0.0
C509 C 0.45972 0.58518 0.91608 0.0
O510 O 0.43971 0.61363 0.91416 0.0
O511 O 0.38906 0.61336 0.93897 0.0
C512 C 0.34501 0.57672 0.99694 0.0
O513 O 0.35471 0.54439 0.99302 0.0
O514 O 0.35692 0.60323 0.98994 0.0
O515 O 0.36214 0.55962 0.95954 0.0
O516 O 0.40815 0.53303 0.95005 0.0
O517 O 0.42984 0.56063 0.98594 0.0
C518 C 0.44961 0.63805 0.96362 0.0
C519 C 0.37455 0.53461 0.95166 0.0
Zn520 Zn 0.23137 0.68687 0.6968 0.0
Zn521 Zn 0.21898 0.6487 0.72551 0.0
C522 C 0.2066 0.6274 0.67943 0.0
O523 O 0.23313 0.63624 0.67097 0.0
C524 C 0.23255 0.69549 0.74913 0.0
O525 O 0.19947 0.68497 0.75124 0.0
O526 O 0.24377 0.71305 0.67895 0.0
O527 O 0.19825 0.7193 0.70843 0.0
O528 O 0.17165 0.6745 0.71928 0.0
C529 C 0.27462 0.72617 0.67679 0.0
O530 O 0.29935 0.72363 0.68675 0.0
O531 O 0.20095 0.64546 0.69072 0.0
C532 C 0.23326 0.59751 0.74641 0.0
O533 O 0.26531 0.60679 0.74205 0.0
O534 O 0.20617 0.61143 0.74031 0.0
O535 O 0.24896 0.61995 0.71016 0.0
O536 O 0.27849 0.66719 0.70393 0.0
O537 O 0.24846 0.68466 0.73781 0.0
C538 C 0.17028 0.70617 0.71419 0.0
C539 C 0.27575 0.63344 0.70373 0.0
Zn540 Zn 0.08361 0.47882 0.45279 0.0
Zn541 Zn 0.14475 0.45155 0.47701 0.0
C542 C 0.05271 0.48573 0.42394 0.0
O543 O 0.03151 0.49998 0.41429 0.0
C544 C 0.09787 0.46465 0.50091 0.0
O545 O 0.10527 0.43055 0.50246 0.0
O546 O 0.07605 0.51314 0.46935 0.0
O547 O 0.07465 0.42604 0.45766 0.0
O548 O 0.11836 0.40445 0.47122 0.0
C549 C 0.04608 0.52797 0.47179 0.0
O550 O 0.04378 0.55346 0.48141 0.0
O551 O 0.04902 0.494 0.43705 0.0
C552 C 0.1984 0.46728 0.49688 0.0
O553 O 0.18816 0.49868 0.49212 0.0
O554 O 0.18416 0.43948 0.4914 0.0
O555 O 0.17207 0.47854 0.46028 0.0
O556 O 0.13116 0.48996 0.4438 0.0
O557 O 0.11099 0.48103 0.49014 0.0
C558 C 0.08939 0.3998 0.4641 0.0
C559 C 0.16355 0.49075 0.44792 0.0
Zn560 Zn 0.40987 0.65235 0.38242 0.0
Zn561 Zn 0.36303 0.66389 0.35604 0.0
C562 C 0.46116 0.68775 0.39897 0.0
O563 O 0.4484 0.71389 0.39112 0.0
C564 C 0.34551 0.70365 0.33141 0.0
O565 O 0.37844 0.6927 0.32923 0.0
O566 O 0.37998 0.69725 0.3832 0.0
O567 O 0.44197 0.65005 0.36532 0.0
O568 O 0.41054 0.69456 0.35746 0.0
C569 C 0.3607 0.7025 0.39416 0.0
O570 O 0.35976 0.6779 0.40416 0.0
O571 O 0.44641 0.65713 0.39819 0.0
C572 C 0.34479 0.60749 0.33799 0.0
O573 O 0.31397 0.61683 0.34358 0.0
O574 O 0.373 0.62298 0.34244 0.0
O575 O 0.33428 0.63937 0.37359 0.0
O576 O 0.37689 0.61158 0.38572 0.0
O577 O 0.33053 0.69535 0.34323 0.0
C578 C 0.44115 0.68038 0.35941 0.0
C579 C 0.34381 0.6162 0.38307 0.0
Zn580 Zn 0.0712 0.58866 0.1217 0.0
Zn581 Zn 0.14058 0.61979 0.10331 0.0
C582 C 1.02262 0.59886 0.14579 0.0
O583 O 0.99581 0.59053 0.15415 0.0
C584 C 0.09884 0.60426 0.07817 0.0
O585 O 0.10495 0.63857 0.0765 0.0
O586 O 0.06353 0.55531 0.10466 0.0
O587 O 0.06404 0.64261 0.11703 0.0
O588 O 0.11297 0.66658 0.10784 0.0
C589 C 0.03314 0.54404 0.10052 0.0
O590 O 0.03113 0.51885 0.09075 0.0
O591 O 0.03222 0.57727 0.136 0.0
C592 C 0.19717 0.60203 0.08589 0.0
O593 O 0.18746 0.5717 0.09177 0.0
O594 O 0.18179 0.63063 0.08998 0.0
O595 O 0.16377 0.59306 0.12082 0.0
O596 O 0.11648 0.57237 0.13214 0.0
O597 O 0.11038 0.58913 0.08953 0.0
C598 C 0.08095 0.66991 0.11243 0.0
C599 C 0.15028 0.57513 0.13109 0.0
Zn600 Zn 0.15831 0.33409 0.88099 0.0
Zn601 Zn 0.18354 0.3862 0.85096 0.0
C602 C 0.1077 0.35793 0.90102 0.0
O603 O 0.13256 0.34401 0.90927 0.0
C604 C 0.19812 0.3416 0.82645 0.0
O605 O 0.16814 0.35735 0.82268 0.0
O606 O 0.15534 0.28469 0.88966 0.0
O607 O 0.1548 0.32153 0.86002 0.0
O608 O 0.13048 0.36998 0.85221 0.0
C609 C 0.12405 0.272 0.88773 0.0
O610 O 0.09916 0.29277 0.88242 0.0
O611 O 0.11352 0.35998 0.88764 0.0
C612 C 0.21318 0.43771 0.83223 0.0
O613 O 0.24232 0.42106 0.83642 0.0
O614 O 0.18344 0.42886 0.83772 0.0
O615 O 0.21142 0.40146 0.86985 0.0
O616 O 0.20017 0.36458 0.88796 0.0
O617 O 0.21089 0.34828 0.8389 0.0
C618 C 0.12802 0.33663 0.85437 0.0
C619 C 0.21663 0.39156 0.88285 0.0
Zn620 Zn 0.45622 0.43198 0.62886 0.0
Zn621 Zn 0.42321 0.44646 0.60016 0.0
C622 C 0.38035 0.40936 0.63044 0.0
O623 O 0.3778 0.43005 0.64177 0.0
C624 C 0.46408 0.46217 0.57562 0.0
O625 O 0.45259 0.42961 0.57302 0.0
O626 O 0.47488 0.40949 0.64674 0.0
O627 O 0.49446 0.41778 0.61464 0.0
O628 O 0.45007 0.39643 0.60209 0.0
C629 C 0.47403 0.37556 0.64727 0.0
O630 O 0.45612 0.35803 0.63737 0.0
O631 O 0.41002 0.40691 0.62399 0.0
C632 C 0.3671 0.46543 0.5812 0.0
O633 O 0.37878 0.49683 0.58548 0.0
O634 O 0.38107 0.43757 0.58665 0.0
O635 O 0.40177 0.4785 0.61739 0.0
O636 O 0.44609 0.48354 0.6328 0.0
O637 O 0.45603 0.47672 0.58755 0.0
C638 C 0.48212 0.39311 0.60669 0.0
C639 C 0.41535 0.4934 0.62857 0.0
H640 H 0.17562 0.29453 0.41671 0.0
H641 H 0.10737 0.4946 0.40492 0.0
H642 H 0.19936 0.35439 0.37846 0.0
H643 H 0.05767 0.41742 0.43239 0.0
H644 H 0.15281 0.44971 0.39837 0.0
H645 H 0.14661 0.34719 0.42673 0.0
C646 C 0.17549 0.31899 0.41054 0.0
C647 C 0.18911 0.3198 0.39657 0.0
C648 C 0.13233 0.4429 0.40606 0.0
C649 C 0.15556 0.37996 0.40792 0.0
C650 C 0.10647 0.46831 0.40972 0.0
C651 C 0.0799 0.45972 0.41964 0.0
C652 C 0.13109 0.40887 0.41235 0.0
C653 C 0.07912 0.42538 0.42539 0.0
C654 C 0.15871 0.34896 0.41624 0.0
C655 C 0.18868 0.35243 0.38918 0.0
N656 N 0.1044 0.40116 0.42171 0.0
N657 N 0.17148 0.38115 0.39485 0.0
H658 H 0.09965 0.87352 0.68274 0.0
H659 H 0.98946 0.02338 0.72228 0.0
H660 H 0.10374 0.98642 0.67356 0.0
H661 H 0.97564 0.91079 0.72959 0.0
H662 H 0.04647 1.01101 0.71054 0.0
H663 H 0.07091 0.88743 0.70567 0.0
C664 C 0.0952 0.90118 0.68568 0.0
C665 C 0.10258 0.92882 0.67604 0.0
C666 C 0.03134 0.98892 0.71489 0.0
C667 C 0.06927 0.94465 0.70185 0.0
C668 C 0.99891 0.99606 0.72158 0.0
C669 C 0.97756 0.96779 0.72619 0.0
C670 C 0.04199 0.95325 0.71272 0.0
C671 C 0.99089 0.93295 0.72539 0.0
C672 C 0.07857 0.90908 0.69869 0.0
C673 C 0.09705 0.96421 0.68046 0.0
N674 N 1.02204 0.92646 0.71844 0.0
N675 N 0.08001 0.97107 0.6929 0.0
H676 H 0.32786 0.77011 0.87166 0.0
H677 H 0.34429 0.66543 0.94344 0.0
H678 H 0.32598 0.81898 0.91356 0.0
H679 H 0.3387 0.61481 0.90195 0.0
H680 H 0.31954 0.7198 0.9331 0.0
H681 H 0.31346 0.7127 0.88253 0.0
C682 C 0.32351 0.76898 0.8831 0.0
C683 C 0.32949 0.79903 0.8918 0.0
C684 C 0.32295 0.69662 0.92628 0.0
C685 C 0.31348 0.73347 0.9043 0.0
C686 C 0.33714 0.66557 0.93219 0.0
C687 C 0.34451 0.63603 0.92344 0.0
C688 C 0.31695 0.69835 0.91144 0.0
C689 C 0.33405 0.63729 0.90902 0.0
C690 C 0.31532 0.73614 0.88932 0.0
C691 C 0.32276 0.79618 0.90651 0.0
N692 N 0.32166 0.66834 0.90337 0.0
N693 N 0.31596 0.76377 0.91234 0.0
H694 H 0.57507 0.12785 0.15731 0.0
H695 H 0.36798 0.13169 0.17454 0.0
H696 H 0.54234 0.13919 0.20138 0.0
H697 H 0.41573 0.19728 0.14227 0.0
H698 H 0.42848 0.11595 0.18336 0.0
H699 H 0.51258 0.13147 0.14993 0.0
C700 C 0.55478 0.13011 0.1655 0.0
C701 C 0.56414 0.13376 0.18 0.0
C702 C 0.42555 0.13319 0.17414 0.0
C703 C 0.49248 0.13763 0.17151 0.0
C704 C 0.39129 0.14211 0.16912 0.0
C705 C 0.38739 0.16393 0.15703 0.0
C706 C 0.45566 0.14618 0.16689 0.0
C707 C 0.41806 0.17793 0.15073 0.0
C708 C 0.51914 0.13242 0.16123 0.0
C709 C 0.53637 0.13651 0.19008 0.0
N710 N 0.45098 0.16848 0.15556 0.0
N711 N 0.50167 0.13872 0.18563 0.0
H712 H 0.18152 0.7567 0.16591 0.0
H713 H 0.99442 0.66592 0.1453 0.0
H714 H 0.07942 0.80828 0.17205 0.0
H715 H 0.09274 0.60842 0.15188 0.0
H716 H 0.02661 0.72233 0.1496 0.0
H717 H 0.15088 0.70666 0.15424 0.0
C718 C 0.15277 0.75784 0.16454 0.0
C719 C 0.1329 0.78627 0.1702 0.0
C720 C 0.04123 0.69735 0.14985 0.0
C721 C 0.09776 0.72915 0.15705 0.0
C722 C 1.0229 0.66534 0.14747 0.0
C723 C 0.04141 0.63284 0.14789 0.0
C724 C 0.07814 0.69654 0.15276 0.0
C725 C 0.0781 0.63311 0.1508 0.0
C726 C 0.13528 0.7292 0.15797 0.0
C727 C 0.09569 0.78651 0.16806 0.0
N728 N 0.09532 0.66448 0.15316 0.0
N729 N 0.07924 0.75812 0.16181 0.0
H730 H 0.64311 0.92712 0.35736 0.0
H731 H 0.48436 0.92534 0.38965 0.0
H732 H 0.67605 0.97736 0.39691 0.0
H733 H 0.51959 1.01473 0.41539 0.0
H734 H 0.53679 0.93238 0.37469 0.0
H735 H 0.58294 0.95077 0.3608 0.0
C736 C 0.63786 0.94378 0.36663 0.0
C737 C 0.66407 0.94892 0.37724 0.0
C738 C 0.53256 0.95144 0.38324 0.0
C739 C 0.59525 0.97472 0.38147 0.0
C740 C 0.50267 0.94708 0.39192 0.0
C741 C 0.49828 0.96869 0.40405 0.0
C742 C 0.55832 0.9774 0.38685 0.0
C743 C 0.52249 0.99681 0.40636 0.0
C744 C 0.6034 0.95694 0.36865 0.0
C745 C 0.65629 0.97177 0.38871 0.0
N746 N 0.55202 0.99974 0.39807 0.0
N747 N 0.6222 0.98306 0.39073 0.0
H748 H 0.38055 0.3581 0.60948 0.0
H749 H 0.27632 0.25035 0.66564 0.0
H750 H 0.31575 0.40031 0.64372 0.0
H751 H 0.3672 0.21533 0.64093 0.0
H752 H 0.26467 0.29662 0.64792 0.0
H753 H 0.34784 0.30197 0.61086 0.0
C754 C 0.35863 0.35603 0.61698 0.0
C755 C 0.35235 0.38288 0.6272 0.0
C756 C 0.28645 0.27805 0.64614 0.0
C757 C 0.31524 0.31898 0.6288 0.0
C758 C 0.29338 0.25185 0.65632 0.0
C759 C 0.32406 0.23044 0.65514 0.0
C760 C 0.31072 0.28307 0.63492 0.0
C761 C 0.34424 0.23246 0.64258 0.0
C762 C 0.33984 0.32399 0.61769 0.0
C763 C 0.32267 0.37944 0.63617 0.0
N764 N 0.33781 0.25912 0.63312 0.0
N765 N 0.30584 0.34745 0.6371 0.0
H766 H 1.01621 0.97821 0.94868 0.0
H767 H 0.8604 0.11331 0.93139 0.0
H768 H 1.00817 0.07945 0.97052 0.0
H769 H 0.91926 0.06633 0.89642 0.0
H770 H 0.90392 0.08841 0.94819 0.0
H771 H 0.97035 0.99843 0.93142 0.0
C772 C 1.00442 1.00449 0.94988 0.0
C773 C 1.01569 0.0274 0.96089 0.0
C774 C 0.90698 0.08324 0.93685 0.0
C775 C 0.96337 0.05001 0.94167 0.0
C776 C 0.88206 0.0971 0.92725 0.0
C777 C 0.88619 0.09171 0.91248 0.0
C778 C 0.93573 0.06308 0.93169 0.0
C779 C 0.91516 0.07101 0.90773 0.0
C780 C 0.97862 1.016 0.94005 0.0
C781 C 1.00001 0.06122 0.9621 0.0
N782 N 0.93885 0.05719 0.91735 0.0
N783 N 0.97433 0.07146 0.95264 0.0
H784 H 0.91344 0.90613 0.67762 0.0
H785 H 1.02192 0.72878 0.65762 0.0
H786 H 0.02744 0.90312 0.67275 0.0
H787 H 0.90766 0.73091 0.66392 0.0
H788 H 0.02472 0.79204 0.66389 0.0
H789 H 0.91054 0.84208 0.67271 0.0
C790 C 0.93792 0.89175 0.67593 0.0
C791 C 0.97086 0.90942 0.67663 0.0
C792 C 0.99904 0.77867 0.66399 0.0
C793 C 0.96801 0.83634 0.67014 0.0
C794 C 0.99742 0.74243 0.66049 0.0
C795 C 0.96447 0.72443 0.66021 0.0
C796 C 0.96745 0.79728 0.66718 0.0
C797 C 0.93366 0.74362 0.66403 0.0
C798 C 0.93632 0.85524 0.67288 0.0
C799 C 1.00165 0.89015 0.67294 0.0
N800 N 0.93588 0.77904 0.66726 0.0
N801 N 0.99958 0.85457 0.67 0.0
H802 H 0.88008 0.25382 0.41732 0.0
H803 H 0.0705 0.16377 0.4011 0.0
H804 H 0.90451 0.14411 0.42675 0.0
H805 H 0.04683 0.27527 0.39414 0.0
H806 H 1.00958 0.15536 0.41012 0.0
H807 H 0.94079 0.26177 0.4083 0.0
C808 C 0.89838 0.23146 0.41768 0.0
C809 C 0.88752 0.19853 0.42334 0.0
C810 C 1.01776 0.18165 0.40661 0.0
C811 C 0.95703 0.20704 0.41267 0.0
C812 C 0.05252 0.18645 0.40144 0.0
C813 C 0.0639 0.2203 0.39692 0.0
C814 C 0.99416 0.21089 0.4072 0.0
C815 C 0.0394 0.24872 0.3976 0.0
C816 C 0.93305 0.23596 0.41247 0.0
C817 C 0.91204 0.1702 0.42307 0.0
N818 N 1.00579 0.24338 0.40264 0.0
N819 N 0.94565 0.17507 0.41789 0.0
H820 H 0.47441 0.38694 0.13456 0.0
H821 H 0.62266 0.30175 0.17834 0.0
H822 H 0.54451 0.45058 0.16114 0.0
H823 H 0.52196 0.24593 0.17515 0.0
H824 H 0.59239 0.35701 0.17159 0.0
H825 H 0.48466 0.33608 0.15035 0.0
C826 C 0.49075 0.39073 0.14404 0.0
C827 C 0.51054 0.42224 0.14606 0.0
C828 C 0.57683 0.33272 0.17251 0.0
C829 C 0.52258 0.36448 0.16387 0.0
C830 C 0.59424 0.30114 0.17606 0.0
C831 C 0.5748 0.26936 0.17705 0.0
C832 C 0.53993 0.3323 0.16962 0.0
C833 C 0.53784 0.27003 0.17433 0.0
C834 C 0.49675 0.36157 0.153 0.0
C835 C 0.53025 0.42607 0.15877 0.0
N836 N 0.52157 0.30101 0.17049 0.0
N837 N 0.53705 0.39697 0.16692 0.0
H838 H 0.47738 0.80743 0.92293 0.0
H839 H 0.67208 0.89563 0.92536 0.0
H840 H 0.49728 0.91771 0.91213 0.0
H841 H 0.65278 0.78317 0.92966 0.0
H842 H 0.6078 0.90569 0.92211 0.0
H843 H 0.5409 0.79976 0.92812 0.0
C844 C 0.49502 0.83022 0.92185 0.0
C845 C 0.48201 0.8632 0.91695 0.0
C846 C 0.6175 0.87879 0.92388 0.0
C847 C 0.55496 0.85432 0.92255 0.0
C848 C 0.65402 0.87327 0.92602 0.0
C849 C 0.6671 0.83898 0.9288 0.0
C850 C 0.59409 0.84948 0.92422 0.0
C851 C 0.64341 0.81015 0.928 0.0
C852 C 0.53136 0.82569 0.92468 0.0
C853 C 0.50611 0.8918 0.91585 0.0
N854 N 0.6079 0.81604 0.92594 0.0
N855 N 0.54152 0.8866 0.91849 0.0
H856 H 0.90995 0.20994 0.93233 0.0
H857 H 0.77261 0.34125 0.97062 0.0
H858 H 0.80176 0.22968 0.91805 0.0
H859 H 0.88538 0.33814 0.97996 0.0
H860 H 0.77901 0.28692 0.95614 0.0
H861 H 0.89752 0.24398 0.95415 0.0
C862 C 0.88354 0.22122 0.93382 0.0
C863 C 0.85711 0.21783 0.9232 0.0
C864 C 0.80229 0.29774 0.96154 0.0
C865 C 0.84275 0.25645 0.94808 0.0
C866 C 0.79856 0.32854 0.96982 0.0
C867 C 0.82881 0.34436 0.97596 0.0
C868 C 0.8365 0.28303 0.95948 0.0
C869 C 0.86182 0.32711 0.97483 0.0
C870 C 0.8764 0.24039 0.94631 0.0
C871 C 0.82317 0.23232 0.92581 0.0
N872 N 0.86499 0.29754 0.9665 0.0
N873 N 0.81711 0.25139 0.9379 0.0
H874 H 0.55591 0.02572 0.67018 0.0
H875 H 0.35358 0.0814 0.65807 0.0
H876 H 0.50531 0.03972 0.62899 0.0
H877 H 0.41352 0.09904 0.69705 0.0
H878 H 0.40196 0.04344 0.64926 0.0
H879 H 0.49714 0.02917 0.68153 0.0
C880 C 0.53234 0.02837 0.66349 0.0
C881 C 0.53539 0.03346 0.64868 0.0
C882 C 0.40412 0.05503 0.65987 0.0
C883 C 0.46853 0.03757 0.66155 0.0
C884 C 0.37658 0.07673 0.6649 0.0
C885 C 0.38017 0.09432 0.6781 0.0
C886 C 0.4353 0.05096 0.66812 0.0
C887 C 0.41018 0.08676 0.68662 0.0
C888 C 0.49887 0.03049 0.66998 0.0
C889 C 0.50407 0.03658 0.6405 0.0
N890 N 0.43695 0.06612 0.68137 0.0
N891 N 0.47192 0.03924 0.64707 0.0
H892 H 0.6467 0.84391 0.42589 0.0
H893 H 0.78364 0.73071 0.47246 0.0
H894 H 0.75988 0.83403 0.41781 0.0
H895 H 0.66962 0.72798 0.4784 0.0
H896 H 0.77668 0.78308 0.45709 0.0
H897 H 0.65592 0.81615 0.44939 0.0
C898 C 0.67353 0.8366 0.42916 0.0
C899 C 0.70239 0.84009 0.41972 0.0
C900 C 0.75312 0.77141 0.46188 0.0
C901 C 0.71307 0.80857 0.4464 0.0
C902 C 0.75717 0.74165 0.47066 0.0
C903 C 0.72695 0.72457 0.47609 0.0
C904 C 0.71857 0.7838 0.45852 0.0
C905 C 0.69328 0.73975 0.47374 0.0
C906 C 0.67878 0.82078 0.44256 0.0
C907 C 0.73666 0.83071 0.42456 0.0
N908 N 0.68981 0.76823 0.46486 0.0
N909 N 0.74093 0.81488 0.43746 0.0
H910 H 0.11097 0.92391 0.20454 0.0
H911 H 0.9694 0.85092 0.14889 0.0
H912 H 0.13422 0.8977 0.1605 0.0
H913 H 0.94083 0.94122 0.17535 0.0
H914 H 0.02841 0.85025 0.16008 0.0
H915 H 0.04674 0.91807 0.19919 0.0
C916 C 0.10253 0.91795 0.19369 0.0
C917 C 0.12789 0.91144 0.18292 0.0
C918 C 1.00873 0.86947 0.16372 0.0
C919 C 0.05548 0.90273 0.1771 0.0
C920 C 0.97489 0.86954 0.15752 0.0
C921 C 0.95067 0.89678 0.16099 0.0
C922 C 1.01786 0.89637 0.17355 0.0
C923 C 0.95922 0.92024 0.17225 0.0
C924 C 0.06613 0.91406 0.19075 0.0
C925 C 0.11569 0.90328 0.16909 0.0
N926 N 0.99262 0.92004 0.17799 0.0
N927 N 0.08031 0.89849 0.16664 0.0
H928 H 0.67053 0.81675 0.98112 0.0
H929 H 0.76183 0.70623 0.91934 0.0
H930 H 0.78228 0.82218 0.9704 0.0
H931 H 0.64874 0.70316 0.92834 0.0
H932 H 0.7722 0.73516 0.94229 0.0
H933 H 0.66535 0.76147 0.96698 0.0
C934 C 0.69392 0.80605 0.97581 0.0
C935 C 0.72663 0.82407 0.97649 0.0
C936 C 0.74514 0.72769 0.9394 0.0
C937 C 0.72051 0.76271 0.95987 0.0
C938 C 0.73916 0.71131 0.92624 0.0
C939 C 0.70421 0.70341 0.92175 0.0
C940 C 0.71593 0.73675 0.94805 0.0
C941 C 0.67603 0.70952 0.93129 0.0
C942 C 0.69093 0.77483 0.96771 0.0
C943 C 0.75651 0.80904 0.96987 0.0
N944 N 0.68242 0.72658 0.94391 0.0
N945 N 0.75256 0.7796 0.96151 0.0
H946 H 0.34628 0.46801 0.15199 0.0
H947 H 0.5409 0.53989 0.13178 0.0
H948 H 0.43759 0.45332 0.17979 0.0
H949 H 0.46261 0.50387 0.10105 0.0
H950 H 0.49799 0.52752 0.15119 0.0
H951 H 0.38415 0.5 0.13518 0.0
C952 C 0.3742 0.47193 0.15469 0.0
C953 C 0.38886 0.45742 0.16725 0.0
C954 C 0.49015 0.52285 0.14018 0.0
C955 C 0.4323 0.49443 0.148 0.0
C956 C 0.51452 0.5298 0.12916 0.0
C957 C 0.50552 0.52137 0.11496 0.0
C958 C 0.45661 0.50808 0.13679 0.0
C959 C 0.47079 0.50958 0.11195 0.0
C960 C 0.39577 0.49023 0.14506 0.0
C961 C 0.4252 0.46382 0.1702 0.0
N962 N 0.44774 0.50275 0.12279 0.0
N963 N 0.44583 0.48161 0.16055 0.0
H964 H 0.77501 0.19498 0.46887 0.0
H965 H 0.91904 0.32355 0.43492 0.0
H966 H 0.88782 0.18863 0.47778 0.0
H967 H 0.80687 0.32119 0.42377 0.0
H968 H 0.90603 0.28666 0.45588 0.0
H969 H 0.78403 0.25386 0.45819 0.0
C970 C 0.80157 0.20654 0.46883 0.0
C971 C 0.83105 0.18693 0.47357 0.0
C972 C 0.8843 0.29463 0.4489 0.0
C973 C 0.8418 0.25325 0.46125 0.0
C974 C 0.89168 0.31564 0.43698 0.0
C975 C 0.86412 0.32443 0.4274 0.0
C976 C 0.84926 0.28237 0.45113 0.0
C977 C 0.82908 0.31411 0.43066 0.0
C978 C 0.80682 0.23996 0.4627 0.0
C979 C 0.86486 0.20277 0.47356 0.0
N980 N 0.82274 0.29315 0.44214 0.0
N981 N 0.86958 0.23485 0.46714 0.0
H982 H 1.00145 0.54357 0.67507 0.0
H983 H 0.19724 0.59724 0.65293 0.0
H984 H 0.03485 0.57206 0.63246 0.0
H985 H 0.15688 0.59467 0.69613 0.0
H986 H 0.145 0.56309 0.645 0.0
H987 H 0.06421 0.53653 0.68196 0.0
C988 C 1.02193 0.5472 0.66704 0.0
C989 C 1.0132 0.55968 0.65334 0.0
C990 C 0.14807 0.56924 0.65628 0.0
C991 C 0.08464 0.55201 0.66113 0.0
C992 C 0.17785 0.58875 0.6608 0.0
C993 C 0.18057 0.59989 0.6751 0.0
C994 C 0.12104 0.56103 0.66614 0.0
C995 C 0.1551 0.58761 0.6849 0.0
C996 C 0.05773 0.54329 0.67099 0.0
C997 C 0.04066 0.56351 0.64329 0.0
N998 N 0.12596 0.56944 0.68019 0.0
N999 N 0.07527 0.56049 0.64747 0.0
H1000 H 0.69561 0.12044 0.65812 0.0
H1001 H 0.68194 0.26328 0.72106 0.0
H1002 H 0.59563 0.15562 0.67634 0.0
H1003 H 0.78161 0.22406 0.70428 0.0
H1004 H 0.65008 0.21672 0.70753 0.0
H1005 H 0.72762 0.1517 0.67717 0.0
C1006 C 0.68034 0.13444 0.66621 0.0
C1007 C 0.64287 0.1359 0.66549 0.0
C1008 C 0.67888 0.21832 0.70678 0.0
C1009 C 0.67944 0.17171 0.6874 0.0
C1010 C 0.69695 0.2448 0.71446 0.0
C1011 C 0.7341 0.2478 0.71335 0.0
C1012 C 0.69818 0.19537 0.69773 0.0
C1013 C 0.75279 0.22264 0.7052 0.0
C1014 C 0.69867 0.15221 0.67713 0.0
C1015 C 0.62454 0.15414 0.67637 0.0
N1016 N 0.73455 0.19781 0.69744 0.0
N1017 N 0.64302 0.17162 0.6868 0.0
H1018 H 0.05271 0.39807 0.88986 0.0
H1019 H 0.90208 0.29795 0.93125 0.0
H1020 H 0.07901 0.32697 0.92464 0.0
H1021 H 0.88942 0.41052 0.92383 0.0
H1022 H 0.9651 0.30256 0.92427 0.0
H1023 H 0.99023 0.39904 0.89816 0.0
C1024 C 0.04545 0.38306 0.89931 0.0
C1025 C 0.07107 0.36256 0.90661 0.0
C1026 C 0.94855 0.32632 0.92431 0.0
C1027 C 1.00005 0.36267 0.91577 0.0
C1028 C 0.91275 0.32367 0.92827 0.0
C1029 C 0.89118 0.35416 0.92868 0.0
C1030 C 0.96236 0.35954 0.92018 0.0
C1031 C 0.9058 0.38682 0.9243 0.0
C1032 C 1.00996 0.38364 0.90401 0.0
C1033 C 0.06024 0.34337 0.91875 0.0
N1034 N 0.94058 0.38871 0.92012 0.0
N1035 N 0.02542 0.34341 0.9228 0.0
H1036 H 0.83626 0.88129 0.10752 0.0
H1037 H 0.78403 0.77219 0.17444 0.0
H1038 H 0.78146 0.92275 0.14457 0.0
H1039 H 0.86259 0.74526 0.14245 0.0
H1040 H 0.75739 0.81511 0.15782 0.0
H1041 H 0.8155 0.82157 0.11353 0.0
C1042 C 0.81863 0.8781 0.11661 0.0
C1043 C 0.81274 0.90638 0.12621 0.0
C1044 C 0.77989 0.79911 0.15433 0.0
C1045 C 0.78978 0.83849 0.13322 0.0
C1046 C 0.79536 0.77496 0.16385 0.0
C1047 C 0.82653 0.75649 0.16 0.0
C1048 C 0.79587 0.80477 0.14096 0.0
C1049 C 0.83947 0.76016 0.14604 0.0
C1050 C 0.80684 0.84393 0.12005 0.0
C1051 C 0.78835 0.90115 0.13735 0.0
N1052 N 0.82445 0.78438 0.1371 0.0
N1053 N 0.77886 0.86739 0.14094 0.0
H1054 H 0.67616 0.64944 0.42796 0.0
H1055 H 0.4988 0.74962 0.4026 0.0
H1056 H 0.6689 0.76321 0.42397 0.0
H1057 H 0.50345 0.63654 0.41145 0.0
H1058 H 0.56023 0.75571 0.41112 0.0
H1059 H 0.61275 0.64409 0.42206 0.0
C1060 C 0.66073 0.67334 0.42643 0.0
C1061 C 0.67683 0.70689 0.42765 0.0
C1062 C 0.54774 0.72962 0.41132 0.0
C1063 C 0.60493 0.70139 0.41978 0.0
C1064 C 0.51257 0.72611 0.40651 0.0
C1065 C 0.49602 0.69244 0.40622 0.0
C1066 C 0.56662 0.69919 0.41577 0.0
C1067 C 0.51517 0.66299 0.41145 0.0
C1068 C 0.62472 0.67039 0.42273 0.0
C1069 C 0.65687 0.73703 0.42381 0.0
N1070 N 0.54958 0.667 0.41589 0.0
N1071 N 0.6218 0.73367 0.42015 0.0
H1072 H 0.41264 0.32104 0.14757 0.0
H1073 H 0.27023 0.18939 0.11282 0.0
H1074 H 0.30182 0.31433 0.16019 0.0
H1075 H 0.37989 0.19541 0.09923 0.0
H1076 H 0.27843 0.24451 0.12658 0.0
H1077 H 0.3991 0.28341 0.1268 0.0
C1078 C 0.38547 0.31179 0.14594 0.0
C1079 C 0.35845 0.32019 0.15575 0.0
C1080 C 0.30064 0.2342 0.12042 0.0
C1081 C 0.34286 0.27725 0.13213 0.0
C1082 C 0.2958 0.20297 0.1125 0.0
C1083 C 0.32485 0.18778 0.10539 0.0
C1084 C 0.33483 0.24977 0.12122 0.0
C1085 C 0.35741 0.20604 0.10514 0.0
C1086 C 0.37775 0.2904 0.13408 0.0
C1087 C 0.32363 0.30798 0.15303 0.0
N1088 N 0.36186 0.23587 0.11322 0.0
N1089 N 0.31694 0.28681 0.14156 0.0
H1090 H 0.47608 0.61871 0.89092 0.0
H1091 H 0.63867 0.61083 0.86115 0.0
H1092 H 0.50643 0.52921 0.91737 0.0
H1093 H 0.66608 0.56365 0.90184 0.0
H1094 H 0.57742 0.58959 0.86393 0.0
H1095 H 0.53036 0.61049 0.87708 0.0
C1096 C 0.49368 0.59668 0.89356 0.0
C1097 C 0.48736 0.57537 0.90558 0.0
C1098 C 0.59691 0.58355 0.87217 0.0
C1099 C 0.54944 0.56534 0.88969 0.0
C1100 C 0.63196 0.59535 0.87054 0.0
C1101 C 0.65699 0.59032 0.88161 0.0
C1102 C 0.58699 0.5671 0.88503 0.0
C1103 C 0.64731 0.56904 0.89326 0.0
C1104 C 0.52463 0.59167 0.88553 0.0
C1105 C 0.5108 0.54691 0.9084 0.0
N1106 N 0.61272 0.55894 0.89485 0.0
N1107 N 0.54133 0.54334 0.90076 0.0
H1108 H 0.24073 0.72315 0.65101 0.0
H1109 H 0.24918 0.92533 0.65022 0.0
H1110 H 0.32006 0.783 0.6746 0.0
H1111 H 0.19072 0.86365 0.61882 0.0
H1112 H 0.28911 0.87475 0.65389 0.0
H1113 H 0.23617 0.7719 0.63392 0.0
C1114 C 0.25785 0.74629 0.65237 0.0
C1115 C 0.27977 0.74983 0.66447 0.0
C1116 C 0.26818 0.8725 0.6459 0.0
C1117 C 0.27399 0.80609 0.64527 0.0
C1118 C 0.24525 0.90139 0.64385 0.0
C1119 C 0.21562 0.89796 0.63473 0.0
C1120 C 0.26072 0.83987 0.63903 0.0
C1121 C 0.21249 0.8669 0.62638 0.0
C1122 C 0.25537 0.77413 0.64258 0.0
C1123 C 0.30212 0.77975 0.66557 0.0
N1124 N 0.2341 0.83858 0.62905 0.0
N1125 N 0.29781 0.80736 0.65634 0.0
H1126 H 1.0086 0.56998 0.45335 0.0
H1127 H 0.86052 0.42771 0.43468 0.0
H1128 H 1.01349 0.46354 0.47074 0.0
H1129 H 0.9159 0.47938 0.39997 0.0
H1130 H 0.90244 0.455 0.45162 0.0
H1131 H 0.96023 0.55034 0.43705 0.0
C1132 C 0.99892 0.54274 0.45389 0.0
C1133 C 1.01473 0.51814 0.46325 0.0
C1134 C 0.90488 0.4608 0.44031 0.0
C1135 C 0.9598 0.49613 0.44514 0.0
C1136 C 0.88093 0.44554 0.43064 0.0
C1137 C 0.88478 0.45143 0.4159 0.0
C1138 C 0.93223 0.48282 0.43524 0.0
C1139 C 0.91212 0.47425 0.41126 0.0
C1140 C 0.97174 0.5316 0.44459 0.0
C1141 C 1.0018 0.48308 0.46359 0.0
N1142 N 0.93492 0.48931 0.42094 0.0
N1143 N 0.97482 0.47308 0.45468 0.0
H1144 H 0.3511 0.88587 0.44279 0.0
H1145 H 0.36094 0.76088 0.37653 0.0
H1146 H 0.36001 0.92585 0.39971 0.0
H1147 H 0.3256 0.7255 0.41807 0.0
H1148 H 0.3485 0.82244 0.3836 0.0
H1149 H 0.32911 0.82922 0.4333 0.0
C1150 C 0.34758 0.88294 0.43133 0.0
C1151 C 0.35809 0.91016 0.42199 0.0
C1152 C 0.34266 0.80117 0.39106 0.0
C1153 C 0.3339 0.84519 0.41101 0.0
C1154 C 0.34985 0.76598 0.38704 0.0
C1155 C 0.34539 0.73818 0.39691 0.0
C1156 C 0.33147 0.80851 0.40511 0.0
C1157 C 0.33031 0.74623 0.41025 0.0
C1158 C 0.335 0.8506 0.42589 0.0
C1159 C 0.35258 0.9053 0.40726 0.0
N1160 N 0.32467 0.78076 0.41409 0.0
N1161 N 0.34175 0.87299 0.40218 0.0
H1162 H 0.89509 0.58121 0.16979 0.0
H1163 H 1.00808 0.61181 0.10172 0.0
H1164 H 0.86639 0.66508 0.14039 0.0
H1165 H 0.98577 0.50442 0.11558 0.0
H1166 H 0.95832 0.63353 0.11645 0.0
H1167 H 0.93038 0.55261 0.1508 0.0
C1168 C 0.89612 0.59332 0.15928 0.0
C1169 C 0.87821 0.62536 0.15651 0.0
C1170 C 0.96387 0.60514 0.11602 0.0
C1171 C 0.91901 0.59393 0.13514 0.0
C1172 C 0.99224 0.59288 0.10773 0.0
C1173 C 1.00078 0.5565 0.10765 0.0
C1174 C 0.94479 0.58084 0.12449 0.0
C1175 C 0.97971 0.53271 0.11548 0.0
C1176 C 0.91595 0.57702 0.14847 0.0
C1177 C 0.87998 0.64024 0.14281 0.0
N1178 N 0.95299 0.54541 0.12389 0.0
N1179 N 0.90079 0.6248 0.13266 0.0
H1180 H 0.16932 0.21678 0.8949 0.0
H1181 H 1.01463 0.08899 0.91618 0.0
H1182 H 0.05859 0.24114 0.88584 0.0
H1183 H 0.12176 0.05044 0.90897 0.0
H1184 H 0.02854 0.14219 0.90226 0.0
H1185 H 0.15246 0.1542 0.89875 0.0
C1186 C 0.14157 0.20898 0.89372 0.0
C1187 C 0.11528 0.23423 0.89029 0.0
C1188 C 0.04872 0.12159 0.90332 0.0
C1189 C 0.09593 0.16305 0.89443 0.0
C1190 C 0.04057 0.09101 0.9111 0.0
C1191 C 0.06728 0.06573 0.91392 0.0
C1192 C 0.084 0.12705 0.89868 0.0
C1193 C 0.10053 0.06956 0.90718 0.0
C1194 C 0.13201 0.17326 0.89572 0.0
C1195 C 0.07975 0.22266 0.88866 0.0
N1196 N 0.10841 0.10038 0.90026 0.0
N1197 N 0.07107 0.18802 0.89091 0.0
H1198 H 0.51986 0.40364 0.66725 0.0
H1199 H 0.64333 0.22953 0.66865 0.0
H1200 H 0.48948 0.30406 0.64713 0.0
H1201 H 0.68092 0.337 0.67515 0.0
H1202 H 0.5822 0.2526 0.6659 0.0
H1203 H 0.57337 0.37465 0.67674 0.0
C1204 C 0.52402 0.3755 0.66507 0.0
C1205 C 0.50065 0.35647 0.65608 0.0
C1206 C 0.60382 0.27103 0.66818 0.0
C1207 C 0.562 0.32345 0.66669 0.0
C1208 C 0.63857 0.25791 0.66974 0.0
C1209 C 0.66686 0.28139 0.6727 0.0
C1210 C 0.5976 0.3079 0.66949 0.0
C1211 C 0.65966 0.318 0.67351 0.0
C1212 C 0.55469 0.35906 0.67041 0.0
C1213 C 0.50711 0.31992 0.65381 0.0
N1214 N 0.62571 0.33016 0.67199 0.0
N1215 N 0.53759 0.3047 0.65887 0.0
H1216 H 0.12887 0.28673 0.35413 0.0
H1217 H 0.92474 0.28269 0.37538 0.0
H1218 H 0.07393 0.18599 0.35775 0.0
H1219 H 0.96434 0.36288 0.34644 0.0
H1220 H 0.98078 0.24926 0.37247 0.0
H1221 H 0.07103 0.31774 0.35476 0.0
C1222 C 0.10461 0.27109 0.355 0.0
C1223 C 0.10638 0.23361 0.35581 0.0
C1224 C 0.97711 0.27407 0.3667 0.0
C1225 C 0.03987 0.26923 0.35689 0.0
C1226 C 0.94514 0.29327 0.36836 0.0
C1227 C 0.93955 0.32574 0.36109 0.0
C1228 C 1.00446 0.28782 0.35807 0.0
C1229 C 0.9672 0.33795 0.35218 0.0
C1230 C 0.0716 0.28885 0.35532 0.0
C1231 C 0.07392 0.21483 0.35696 0.0
N1232 N 0.99855 0.31932 0.35109 0.0
N1233 N 0.0421 0.23283 0.35768 0.0
H1234 H 0.93672 0.72348 0.62941 0.0
H1235 H 0.08629 0.8443 0.59128 0.0
H1236 H 0.97542 0.69842 0.58722 0.0
H1237 H 0.02615 0.87671 0.62842 0.0
H1238 H 0.04893 0.79002 0.58959 0.0
H1239 H 0.97179 0.77848 0.62931 0.0
C1240 C 0.95263 0.72958 0.62009 0.0
C1241 C 0.95315 0.70597 0.60837 0.0
C1242 C 0.04388 0.80916 0.59805 0.0
C1243 C 0.99399 0.76969 0.60811 0.0
C1244 C 0.06529 0.84019 0.59905 0.0
C1245 C 0.05958 0.86549 0.61001 0.0
C1246 C 1.01676 0.803 0.60819 0.0
C1247 C 0.03177 0.85838 0.61974 0.0
C1248 C 0.97263 0.76122 0.61999 0.0
C1249 C 0.97393 0.71584 0.59647 0.0
N1250 N 1.0118 0.82801 0.61864 0.0
N1251 N 0.99375 0.7467 0.59669 0.0
H1252 H 0.45762 0.80656 0.84141 0.0
H1253 H 0.65613 0.77481 0.87307 0.0
H1254 H 0.50155 0.85851 0.87881 0.0
H1255 H 0.6102 0.70343 0.84168 0.0
H1256 H 0.60113 0.80961 0.87291 0.0
H1257 H 0.51415 0.77259 0.83897 0.0
C1258 C 0.47912 0.81121 0.84898 0.0
C1259 C 0.47448 0.8356 0.86034 0.0
C1260 C 0.60292 0.78645 0.86598 0.0
C1261 C 0.53932 0.79677 0.85762 0.0
C1262 C 0.6346 0.76647 0.86602 0.0
C1263 C 0.63821 0.73586 0.85739 0.0
C1264 C 0.57405 0.77626 0.85716 0.0
C1265 C 0.60886 0.72672 0.84855 0.0
C1266 C 0.51133 0.79161 0.84765 0.0
C1267 C 0.50343 0.84007 0.86989 0.0
N1268 N 0.57812 0.74674 0.84867 0.0
N1269 N 0.5342 0.82107 0.8683 0.0
H1270 H 0.43726 0.22998 0.12387 0.0
H1271 H 0.60975 0.32691 0.09064 0.0
H1272 H 0.51412 0.16981 0.0994 0.0
H1273 H 0.54214 0.37105 0.12345 0.0
H1274 H 0.57619 0.27001 0.09237 0.0
H1275 H 0.47533 0.2821 0.12245 0.0
C1276 C 0.46242 0.22732 0.11834 0.0
C1277 C 0.47238 0.19459 0.11204 0.0
C1278 C 0.56885 0.29221 0.0992 0.0
C1279 C 0.51671 0.25612 0.10989 0.0
C1280 C 0.58807 0.32478 0.09824 0.0
C1281 C 0.57864 0.35446 0.10678 0.0
C1282 C 0.53983 0.28921 0.10874 0.0
C1283 C 0.55019 0.34961 0.11642 0.0
C1284 C 0.48428 0.25757 0.11743 0.0
C1285 C 0.50521 0.19408 0.1046 0.0
N1286 N 0.53196 0.31814 0.11705 0.0
N1287 N 0.52605 0.22428 0.10368 0.0
H1288 H 0.93213 0.76651 0.20935 0.0
H1289 H 0.14614 0.75363 0.21678 0.0
H1290 H 0.98774 0.66706 0.21618 0.0
H1291 H 0.08881 0.85242 0.22282 0.0
H1292 H 0.0889 0.72199 0.21471 0.0
H1293 H 0.98904 0.79861 0.21234 0.0
C1294 C 0.9562 0.75131 0.21149 0.0
C1295 C 0.95471 0.71377 0.21252 0.0
C1296 C 0.08875 0.75055 0.21658 0.0
C1297 C 1.02065 0.75076 0.21586 0.0
C1298 C 0.12156 0.76873 0.2178 0.0
C1299 C 0.12269 0.8059 0.22016 0.0
C1300 C 0.0563 0.7695 0.21749 0.0
C1301 C 0.08958 0.82378 0.22121 0.0
C1302 C 0.98879 0.76977 0.21324 0.0
C1303 C 0.98718 0.69588 0.21532 0.0
N1304 N 0.05797 0.80556 0.21977 0.0
N1305 N 1.01856 0.71439 0.21679 0.0
H1306 H 0.52775 0.89843 0.45154 0.0
H1307 H 0.54461 0.69015 0.47282 0.0
H1308 H 0.44481 0.84359 0.47469 0.0
H1309 H 0.62549 0.75053 0.45078 0.0
H1310 H 0.50656 0.74405 0.47327 0.0
H1311 H 0.56256 0.84339 0.45099 0.0
C1312 C 0.51676 0.87488 0.45659 0.0
C1313 C 0.48304 0.87616 0.46322 0.0
C1314 C 0.53257 0.74536 0.46826 0.0
C1315 C 0.52343 0.81184 0.46255 0.0
C1316 C 0.55433 0.71446 0.46794 0.0
C1317 C 0.58856 0.71531 0.46167 0.0
C1318 C 0.54495 0.77758 0.46225 0.0
C1319 C 0.59947 0.74803 0.45566 0.0
C1320 C 0.53679 0.84318 0.45623 0.0
C1321 C 0.47059 0.84422 0.46948 0.0
N1322 N 0.57798 0.77746 0.45611 0.0
N1323 N 0.49068 0.81354 0.46899 0.0
H1324 H 0.57218 0.3597 0.72172 0.0
H1325 H 0.46075 0.17762 0.71711 0.0
H1326 H 0.61365 0.26515 0.70126 0.0
H1327 H 0.40708 0.2792 0.71384 0.0
H1328 H 0.51855 0.20866 0.71582 0.0
H1329 H 0.51298 0.33071 0.72296 0.0
C1330 C 0.56903 0.3329 0.7175 0.0
C1331 C 0.59848 0.31488 0.71147 0.0
C1332 C 0.49413 0.2242 0.71545 0.0
C1333 C 0.5306 0.28112 0.71319 0.0
C1334 C 0.46102 0.20648 0.71628 0.0
C1335 C 0.42868 0.22565 0.71558 0.0
C1336 C 0.49537 0.26167 0.71427 0.0
C1337 C 0.43113 0.26316 0.71438 0.0
C1338 C 0.53514 0.31637 0.71821 0.0
C1339 C 0.59225 0.28011 0.70617 0.0
N1340 N 0.46371 0.27988 0.71389 0.0
N1341 N 0.55943 0.26437 0.7073 0.0
H1342 H 0.03374 0.16121 0.95312 0.0
H1343 H 1.02268 0.37125 0.97244 0.0
H1344 H 0.11831 0.21408 0.97648 0.0
H1345 H 0.93516 0.30757 0.9564 0.0
H1346 H 0.0605 0.31702 0.9726 0.0
H1347 H 1.00041 0.217 0.95256 0.0
C1348 C 0.04555 0.18454 0.95813 0.0
C1349 C 0.07921 0.18237 0.9649 0.0
C1350 C 0.03304 0.31508 0.96897 0.0
C1351 C 0.04028 0.24765 0.96429 0.0
C1352 C 1.01137 0.34613 0.96885 0.0
C1353 C 0.97544 0.34454 0.96423 0.0
C1354 C 1.01888 0.28202 0.96437 0.0
C1355 C 0.96259 0.31081 0.95984 0.0
C1356 C 0.02625 0.21666 0.95782 0.0
C1357 C 0.09259 0.21413 0.97113 0.0
N1358 N 0.98407 0.28137 0.95998 0.0
N1359 N 0.07318 0.24529 0.97069 0.0
H1360 H 0.15817 0.77346 0.70341 0.0
H1361 H 0.94658 0.78328 0.72044 0.0
H1362 H 0.10286 0.6873 0.72439 0.0
H1363 H 1.00812 0.86755 0.7012 0.0
H1364 H 1.0014 0.7464 0.72157 0.0
H1365 H 0.10223 0.80687 0.70225 0.0
C1366 C 0.13433 0.76147 0.70786 0.0
C1367 C 0.13576 0.72726 0.71405 0.0
C1368 C 1.00278 0.77293 0.71702 0.0
C1369 C 0.07038 0.76599 0.71267 0.0
C1370 C 0.97136 0.79403 0.71633 0.0
C1371 C 0.97231 0.82889 0.71065 0.0
C1372 C 0.03555 0.78662 0.71197 0.0
C1373 C 1.00559 0.84106 0.70562 0.0
C1374 C 0.10212 0.78069 0.70716 0.0
C1375 C 0.10341 0.71351 0.71954 0.0
N1376 N 0.03543 0.82022 0.70639 0.0
N1377 N 0.07224 0.7328 0.71872 0.0
H1378 H 0.93797 0.22941 0.44555 0.0
H1379 H 0.11068 0.33458 0.47587 0.0
H1380 H 1.01653 0.17754 0.47221 0.0
H1381 H 0.02673 0.3818 0.4504 0.0
H1382 H 0.07947 0.2766 0.47423 0.0
H1383 H 0.9731 0.28403 0.44638 0.0
C1384 C 0.96276 0.2293 0.45155 0.0
C1385 C 0.97403 0.19833 0.45879 0.0
C1386 C 0.06804 0.29966 0.46895 0.0
C1387 C 1.01479 0.26228 0.46008 0.0
C1388 C 0.08589 0.3329 0.46988 0.0
C1389 C 0.07168 0.36356 0.4632 0.0
C1390 C 0.03564 0.2968 0.46127 0.0
C1391 C 0.03924 0.35928 0.45565 0.0
C1392 C 0.98289 0.26084 0.45208 0.0
C1393 C 1.00663 0.20049 0.4664 0.0
N1394 N 1.02259 0.3269 0.45492 0.0
N1395 N 0.02567 0.23185 0.46692 0.0
H1396 H 0.56235 0.18715 0.22528 0.0
H1397 H 0.46983 0.38089 0.22414 0.0
H1398 H 0.62131 0.28394 0.21721 0.0
H1399 H 0.41213 0.28529 0.21256 0.0
H1400 H 0.52497 0.34533 0.22591 0.0
H1401 H 0.50644 0.22212 0.22488 0.0
C1402 C 0.56366 0.21575 0.22364 0.0
C1403 C 0.59677 0.23254 0.22131 0.0
C1404 C 0.50018 0.33213 0.22305 0.0
C1405 C 0.53277 0.27285 0.22098 0.0
C1406 C 0.4686 0.35241 0.2221 0.0
C1407 C 0.43607 0.33623 0.21818 0.0
C1408 C 0.49935 0.2951 0.22036 0.0
C1409 C 0.43646 0.29908 0.21558 0.0
C1410 C 0.53169 0.23567 0.2233 0.0
C1411 C 0.59654 0.26975 0.21906 0.0
N1412 N 0.46739 0.27985 0.21679 0.0
N1413 N 0.56527 0.28854 0.21902 0.0
H1414 H 0.53541 0.85819 0.97031 0.0
H1415 H 0.5187 0.64661 0.95439 0.0
H1416 H 0.62078 0.79122 0.95498 0.0
H1417 H 0.4323 0.70664 0.97321 0.0
H1418 H 0.55491 0.70072 0.95397 0.0
H1419 H 0.49596 0.80526 0.97077 0.0
C1420 C 0.54597 0.83255 0.96698 0.0
C1421 C 0.5819 0.82955 0.96258 0.0
C1422 C 0.52808 0.70227 0.95824 0.0
C1423 C 0.5366 0.76847 0.96313 0.0
C1424 C 0.50723 0.67112 0.95851 0.0
C1425 C 0.47213 0.67157 0.96389 0.0
C1426 C 0.51415 0.73482 0.96336 0.0
C1427 C 0.45915 0.70468 0.96899 0.0
C1428 C 0.52336 0.80224 0.96728 0.0
C1429 C 0.59365 0.79529 0.95847 0.0
N1430 N 0.48003 0.73482 0.96859 0.0
N1431 N 0.57134 0.76651 0.95883 0.0
H1432 H 0.11907 0.26592 0.84803 0.0
H1433 H 0.9145 0.25647 0.87066 0.0
H1434 H 0.05851 0.36073 0.85792 0.0
H1435 H 0.9611 0.1766 0.84309 0.0
H1436 H 0.96834 0.29297 0.86806 0.0
H1437 H 0.06347 0.23106 0.84797 0.0
C1438 C 0.09399 0.27953 0.85001 0.0
C1439 C 0.09358 0.31647 0.8529 0.0
C1440 C 0.96675 0.26761 0.86248 0.0
C1441 C 0.02956 0.27629 0.85314 0.0
C1442 C 0.93597 0.24656 0.86399 0.0
C1443 C 0.93294 0.21318 0.85706 0.0
C1444 C 0.99547 0.25515 0.85422 0.0
C1445 C 0.96194 0.2021 0.84857 0.0
C1446 C 0.06223 0.25954 0.84998 0.0
C1447 C 0.06019 0.33248 0.85549 0.0
N1448 N 0.99204 0.22277 0.84753 0.0
N1449 N 0.0297 0.31227 0.85574 0.0
H1450 H 0.55489 0.3817 0.60886 0.0
H1451 H 0.54413 0.16884 0.61166 0.0
H1452 H 0.45621 0.32514 0.60134 0.0
H1453 H 0.64046 0.22197 0.59815 0.0
H1454 H 0.51241 0.22614 0.61083 0.0
H1455 H 0.58739 0.32456 0.60776 0.0
C1456 C 0.54 0.35736 0.60688 0.0
C1457 C 0.5026 0.3586 0.60505 0.0
C1458 C 0.54044 0.22531 0.60798 0.0
C1459 C 0.53989 0.29248 0.60416 0.0
C1460 C 0.55873 0.1925 0.60849 0.0
C1461 C 0.59525 0.19015 0.60492 0.0
C1462 C 0.55871 0.25672 0.60422 0.0
C1463 C 0.61238 0.22214 0.60091 0.0
C1464 C 0.55867 0.32467 0.60624 0.0
C1465 C 0.48499 0.32583 0.60263 0.0
N1466 N 0.59416 0.25397 0.60082 0.0
N1467 N 0.50361 0.29432 0.60243 0.0
H1468 H 0.65963 0.75691 0.36948 0.0
H1469 H 0.45197 0.74639 0.34659 0.0
H1470 H 0.61074 0.8351 0.3418 0.0
H1471 H 0.50868 0.66244 0.36858 0.0
H1472 H 0.50826 0.78042 0.3451 0.0
H1473 H 0.60357 0.72356 0.36972 0.0
C1474 C 0.63721 0.76708 0.36335 0.0
C1475 C 0.64038 0.79902 0.35554 0.0
C1476 C 0.50837 0.75447 0.35018 0.0
C1477 C 0.57508 0.76049 0.35586 0.0
C1478 C 0.47617 0.73496 0.35103 0.0
C1479 C 0.4753 0.7012 0.35764 0.0
C1480 C 0.54008 0.74042 0.35612 0.0
C1481 C 0.50775 0.68807 0.36326 0.0
C1482 C 0.605 0.74788 0.36351 0.0
C1483 C 0.60989 0.8106 0.34791 0.0
N1484 N 0.53845 0.70763 0.36243 0.0
N1485 N 0.57865 0.7915 0.3483 0.0
H1486 H 0.92353 0.84156 0.10005 0.0
H1487 H 0.11017 0.73805 0.11117 0.0
H1488 H 1.01716 0.89421 0.11692 0.0
H1489 H 1.00852 0.68399 0.11267 0.0
H1490 H 0.07839 0.79565 0.11006 0.0
H1491 H 0.95571 0.78417 0.10113 0.0
C1492 C 0.95096 0.84125 0.10381 0.0
C1493 C 0.96751 0.87318 0.10831 0.0
C1494 C 0.06303 0.77117 0.11064 0.0
C1495 C 1.00489 0.807 0.10952 0.0
C1496 C 0.08122 0.73815 0.11123 0.0
C1497 C 0.06222 0.70573 0.11201 0.0
C1498 C 0.02535 0.77213 0.11047 0.0
C1499 C 0.02454 0.70803 0.11211 0.0
C1500 C 0.96928 0.80832 0.10453 0.0
C1501 C 1.00312 0.87056 0.11328 0.0
N1502 N 1.00751 0.74035 0.11122 0.0
N1503 N 1.02054 0.83837 0.11364 0.0
H1504 H 0.18369 0.23636 0.29929 0.0
H1505 H 0.36191 0.33793 0.27443 0.0
H1506 H 0.27956 0.24189 0.32501 0.0
H1507 H 0.26492 0.33698 0.24929 0.0
H1508 H 0.33231 0.30245 0.2927 0.0
H1509 H 0.21266 0.27262 0.28101 0.0
C1510 C 0.21087 0.24526 0.30117 0.0
C1511 C 0.22909 0.23582 0.31384 0.0
C1512 C 0.31738 0.30987 0.28321 0.0
C1513 C 0.26278 0.27772 0.29262 0.0
C1514 C 0.33433 0.33021 0.27267 0.0
C1515 C 0.31605 0.34067 0.26014 0.0
C1516 C 0.28159 0.29951 0.2814 0.0
C1517 C 0.28026 0.32961 0.25867 0.0
C1518 C 0.22742 0.26605 0.29064 0.0
C1519 C 0.2643 0.24841 0.3155 0.0
N1520 N 0.26428 0.30971 0.26914 0.0
N1521 N 0.27992 0.26853 0.30504 0.0
H1522 H 0.99905 1.00584 0.49426 0.0
H1523 H 0.07952 0.03362 0.57354 0.0
H1524 H 1.00137 0.10743 0.51623 0.0
H1525 H 0.0762 0.93192 0.55167 0.0
H1526 H 0.05075 0.06128 0.55268 0.0
H1527 H 0.02806 0.97834 0.51509 0.0
C1528 C 1.00587 1.02241 0.5034 0.0
C1529 C 0.99775 0.05902 0.50345 0.0
C1530 C 0.05627 0.03288 0.55247 0.0
C1531 C 0.0307 0.0277 0.52741 0.0
C1532 C 0.0726 1.01708 0.56441 0.0
C1533 C 0.08033 0.98038 0.5644 0.0
C1534 C 0.04763 1.01186 0.54042 0.0
C1535 C 0.07083 0.96032 0.55221 0.0
C1536 C 1.0223 1.00669 0.51533 0.0
C1537 C 1.00705 0.0791 0.51566 0.0
N1538 N 0.0551 0.97628 0.54075 0.0
N1539 N 1.02291 0.06322 0.52712 0.0
H1540 H 0.28083 0.81375 0.82765 0.0
H1541 H 0.30209 0.72145 0.74991 0.0
H1542 H 0.37734 0.81839 0.80257 0.0
H1543 H 0.20426 0.72026 0.77423 0.0
H1544 H 0.33041 0.7564 0.76918 0.0
H1545 H 0.25257 0.77848 0.80844 0.0
C1546 C 0.29614 0.8073 0.81817 0.0
C1547 C 0.33159 0.81921 0.81681 0.0
C1548 C 0.3027 0.74852 0.77028 0.0
C1549 C 0.29933 0.77882 0.79467 0.0
C1550 C 0.2865 0.72859 0.75924 0.0
C1551 C 0.25064 0.71782 0.76035 0.0
C1552 C 0.283 0.75777 0.78259 0.0
C1553 C 0.23193 0.72788 0.7728 0.0
C1554 C 0.27997 0.7872 0.80716 0.0
C1555 C 0.34997 0.80997 0.80418 0.0
N1556 N 0.24825 0.74711 0.78336 0.0
N1557 N 0.33372 0.79048 0.79368 0.0
H1558 H 0.48838 0.10363 0.05395 0.0
H1559 H 0.56147 0.92158 1.01961 0.0
H1560 H 0.48612 1.00229 0.07585 0.0
H1561 H 0.564 0.02286 0.99768 0.0
H1562 H 0.53354 0.95058 0.04009 0.0
H1563 H 0.51612 0.07466 1.03341 0.0
C1564 C 0.49385 0.07524 0.0545 0.0
C1565 C 0.48485 0.0554 0.06673 0.0
C1566 C 0.54006 0.96653 1.03081 0.0
C1567 C 0.51666 1.02188 0.043 0.0
C1568 C 0.556 0.94996 1.01904 0.0
C1569 C 0.56516 0.96977 1.00682 0.0
C1570 C 0.53311 1.00335 1.03048 0.0
C1571 C 0.55734 1.00647 1.00681 0.0
C1572 C 0.50968 0.0587 0.04269 0.0
C1573 C 0.49265 1.01871 0.06671 0.0
N1574 N 0.54186 1.02206 1.01846 0.0
N1575 N 0.50803 1.00315 0.05503 0.0
H1576 H 0.37304 0.72484 0.3058 0.0
H1577 H 0.19359 0.81825 0.27739 0.0
H1578 H 0.27573 0.72907 0.33042 0.0
H1579 H 0.29118 0.81328 0.25298 0.0
H1580 H 0.22275 0.78539 0.29668 0.0
H1581 H 0.34333 0.75691 0.28651 0.0
C1582 C 0.34535 0.73254 0.30721 0.0
C1583 C 0.32694 0.72411 0.31987 0.0
C1584 C 0.23783 0.79137 0.28712 0.0
C1585 C 0.29248 0.76117 0.29752 0.0
C1586 C 0.22118 0.81017 0.27602 0.0
C1587 C 0.23989 0.81868 0.26344 0.0
C1588 C 0.27367 0.78083 0.28575 0.0
C1589 C 0.27561 0.80734 0.26241 0.0
C1590 C 0.32837 0.75092 0.2961 0.0
C1591 C 0.29107 0.73496 0.32092 0.0
N1592 N 0.29129 0.78911 0.27341 0.0
N1593 N 0.27504 0.75288 0.3099 0.0
H1594 H 0.58684 0.11733 0.54835 0.0
H1595 H 0.48486 0.94116 0.52102 0.0
H1596 H 0.58961 1.01735 0.57118 0.0
H1597 H 0.48181 0.04148 0.49844 0.0
H1598 H 0.52296 0.96837 0.53927 0.0
H1599 H 0.54841 0.09011 0.53025 0.0
C1600 C 0.57933 0.08959 0.54963 0.0
C1601 C 0.59173 0.06971 0.56144 0.0
C1602 C 0.51408 0.98451 0.53034 0.0
C1603 C 0.54723 0.03805 0.5404 0.0
C1604 C 0.49223 0.96897 0.51982 0.0
C1605 C 0.47989 0.98895 0.50803 0.0
C1606 C 0.52398 1.02055 0.52923 0.0
C1607 C 0.49059 0.0249 0.50725 0.0
C1608 C 0.55728 0.07403 0.5392 0.0
C1609 C 0.58079 0.03385 0.56235 0.0
N1610 N 0.51191 0.03948 0.51767 0.0
N1611 N 0.55929 1.01922 0.55199 0.0
H1612 H 0.25751 0.22394 0.74921 0.0
H1613 H 0.26506 0.31014 0.82843 0.0
H1614 H 0.35014 0.21912 0.77682 0.0
H1615 H 0.17452 0.32039 0.79999 0.0
H1616 H 0.2959 0.27495 0.80998 0.0
H1617 H 0.22604 0.25806 0.76784 0.0
C1618 C 0.2713 0.23011 0.75913 0.0
C1619 C 0.30665 0.21859 0.76135 0.0
C1620 C 0.26923 0.28484 0.80779 0.0
C1621 C 0.27062 0.25753 0.78285 0.0
C1622 C 0.25155 0.30487 0.81837 0.0
C1623 C 0.21707 0.31841 0.81583 0.0
C1624 C 0.25237 0.27815 0.79453 0.0
C1625 C 0.20107 0.31069 0.8025 0.0
C1626 C 0.25329 0.24956 0.7698 0.0
C1627 C 0.32298 0.22738 0.77452 0.0
N1628 N 0.21877 0.29122 0.79241 0.0
N1629 N 0.30492 0.24616 0.7847 0.0
H1630 H 0.07008 0.11777 1.02137 0.0
H1631 H 0.97652 0.94065 0.05141 0.0
H1632 H 0.08417 1.01377 1.00218 0.0
H1633 H 0.96907 0.04339 0.07225 0.0
H1634 H 1.01486 0.96694 1.03319 0.0
H1635 H 0.03209 0.09122 0.03961 0.0
C1636 C 0.06511 0.08928 1.02092 0.0
C1637 C 0.08039 0.06805 1.01009 0.0
C1638 C 1.00497 0.98379 0.04175 0.0
C1639 C 0.03653 0.03726 1.0312 0.0
C1640 C 0.983 0.96878 0.05222 0.0
C1641 C 0.96938 0.98978 0.06348 0.0
C1642 C 1.01353 1.02026 0.04238 0.0
C1643 C 0.97891 0.02608 0.06384 0.0
C1644 C 0.04335 0.07412 1.03141 0.0
C1645 C 0.07277 0.03129 1.01018 0.0
N1646 N 1.00026 0.04014 0.05345 0.0
N1647 N 0.05143 1.0171 1.02055 0.0
H1648 H 0.80358 0.71825 0.82114 0.0
H1649 H 0.77777 0.80816 0.74358 0.0
H1650 H 0.70253 0.72294 0.79876 0.0
H1651 H 0.87824 0.80536 0.76643 0.0
H1652 H 0.74973 0.7763 0.76354 0.0
H1653 H 0.83151 0.75014 0.80118 0.0
C1654 C 0.78724 0.72608 0.81209 0.0
C1655 C 0.75063 0.71784 0.81168 0.0
C1656 C 0.77794 0.78262 0.76416 0.0
C1657 C 0.78245 0.7542 0.7887 0.0
C1658 C 0.79397 0.80072 0.75272 0.0
C1659 C 0.83045 0.80949 0.75326 0.0
C1660 C 0.79852 0.77316 0.77623 0.0
C1661 C 0.85004 0.79925 0.76548 0.0
C1662 C 0.80319 0.74423 0.80066 0.0
C1663 C 0.73084 0.72864 0.7996 0.0
N1664 N 0.83388 0.78175 0.77643 0.0
N1665 N 0.74695 0.74613 0.78863 0.0
H1666 H 0.85541 0.32689 0.29997 0.0
H1667 H 0.67622 0.22613 0.27518 0.0
H1668 H 0.75976 0.32427 0.32561 0.0
H1669 H 0.76996 0.23455 0.24865 0.0
H1670 H 0.70615 0.26156 0.29362 0.0
H1671 H 0.82474 0.29284 0.28137 0.0
C1672 C 0.8279 0.31911 0.30176 0.0
C1673 C 0.8103 0.3286 0.31453 0.0
C1674 C 0.72023 0.25581 0.28377 0.0
C1675 C 0.77465 0.28915 0.29293 0.0
C1676 C 0.70313 0.23549 0.27316 0.0
C1677 C 0.7205 0.22712 0.26022 0.0
C1678 C 0.75527 0.26802 0.28161 0.0
C1679 C 0.75538 0.24026 0.25837 0.0
C1680 C 0.81034 0.29962 0.29104 0.0
C1681 C 0.77456 0.31762 0.31604 0.0
N1682 N 0.77158 0.25987 0.26893 0.0
N1683 N 0.758 0.2985 0.30541 0.0
H1684 H 0.77755 0.3234 0.75092 0.0
H1685 H 0.75486 0.20261 0.82174 0.0
H1686 H 0.67508 0.29588 0.7688 0.0
H1687 H 0.85599 0.22309 0.80129 0.0
H1688 H 0.72507 0.23852 0.80315 0.0
H1689 H 0.80676 0.28814 0.76974 0.0
C1690 C 0.76115 0.30974 0.7587 0.0
C1691 C 0.72371 0.31244 0.7581 0.0
C1692 C 0.75381 0.23518 0.80277 0.0
C1693 C 0.7571 0.27234 0.77998 0.0
C1694 C 0.77085 0.21476 0.81344 0.0
C1695 C 0.80808 0.20965 0.81316 0.0
C1696 C 0.77409 0.25081 0.79173 0.0
C1697 C 0.82726 0.22606 0.80202 0.0
C1698 C 0.77786 0.28971 0.76953 0.0
C1699 C 0.704 0.29458 0.76873 0.0
N1700 N 0.81016 0.24572 0.79183 0.0
N1701 N 0.72083 0.27542 0.77917 0.0
H1702 H 0.70674 0.8042 0.29461 0.0
H1703 H 0.88692 0.71566 0.26464 0.0
H1704 H 0.8079 0.80893 0.3169 0.0
H1705 H 0.78601 0.70995 0.24222 0.0
H1706 H 0.85851 0.75043 0.28352 0.0
H1707 H 0.73507 0.77025 0.27541 0.0
C1708 C 0.73496 0.79805 0.29553 0.0
C1709 C 0.75489 0.80957 0.3075 0.0
C1710 C 0.84249 0.74173 0.27448 0.0
C1711 C 0.78771 0.77045 0.28528 0.0
C1712 C 0.85873 0.72181 0.26361 0.0
C1713 C 0.83891 0.70966 0.25172 0.0
C1714 C 0.80591 0.74979 0.27361 0.0
C1715 C 0.80245 0.71873 0.25111 0.0
C1716 C 0.75113 0.77862 0.28448 0.0
C1717 C 0.79137 0.80064 0.30795 0.0
N1718 N 0.78715 0.73812 0.2619 0.0
N1719 N 0.80655 0.7817 0.29703 0.0
H1720 H 0.57654 0.52948 0.07131 0.0
H1721 H 0.46545 0.50606 0.99766 0.0
H1722 H 0.5663 0.42938 0.04867 0.0
H1723 H 0.47423 0.60572 1.02073 0.0
H1724 H 0.50265 0.47749 1.01612 0.0
H1725 H 0.53879 0.55787 0.05301 0.0
C1726 C 0.56617 0.51339 0.06259 0.0
C1727 C 0.5746 0.4769 0.06164 0.0
C1728 C 0.49647 0.50564 1.01712 0.0
C1729 C 0.53163 0.50936 0.04044 0.0
C1730 C 0.47527 0.52199 1.00654 0.0
C1731 C 0.46658 0.55843 1.00756 0.0
C1732 C 0.50917 0.5258 1.02886 0.0
C1733 C 0.4801 0.57759 1.01941 0.0
C1734 C 0.54473 0.52965 0.05207 0.0
C1735 C 0.56063 0.45758 0.04992 0.0
N1736 N 0.50055 0.56113 1.02953 0.0
N1737 N 0.54001 0.47396 0.03984 0.0
H1738 H 0.96789 0.5136 0.57623 0.0
H1739 H 0.08421 0.53687 0.50426 0.0
H1740 H 0.97935 0.61323 0.55361 0.0
H1741 H 0.06165 0.43456 0.5233 0.0
H1742 H 0.04836 0.5657 0.52299 0.0
H1743 H 1.00528 0.48446 0.55793 0.0
C1744 C 0.97842 0.52941 0.56752 0.0
C1745 C 0.97024 0.56597 0.56651 0.0
C1746 C 0.05115 0.5369 0.52305 0.0
C1747 C 1.01307 0.53278 0.54546 0.0
C1748 C 0.07146 0.52042 0.51226 0.0
C1749 C 0.07569 0.48314 0.51201 0.0
C1750 C 0.03508 0.51608 0.53381 0.0
C1751 C 0.05913 0.46336 0.52296 0.0
C1752 C 0.99965 0.51274 0.55702 0.0
C1753 C 0.98464 0.58498 0.55488 0.0
N1754 N 0.0397 0.47998 0.53335 0.0
N1755 N 1.00517 0.56827 0.54489 0.0
H1756 H 0.09262 0.53121 0.07475 0.0
H1757 H 0.99081 0.54379 0.99881 0.0
H1758 H 0.06407 0.63086 0.05466 0.0
H1759 H 1.00639 0.44524 1.02185 0.0
H1760 H 1.02068 0.576 1.01844 0.0
H1761 H 0.06359 0.49902 0.05495 0.0
C1762 C 0.08 0.54635 0.06626 0.0
C1763 C 0.08049 0.58386 0.06652 0.0
C1764 C 1.01764 0.5473 1.01917 0.0
C1765 C 0.04779 0.54713 0.04356 0.0
C1766 C 1.00072 0.52887 1.00791 0.0
C1767 C 0.99602 0.49168 1.00861 0.0
C1768 C 0.03018 0.52844 1.03122 0.0
C1769 C 1.00928 0.47388 1.02078 0.0
C1770 C 0.06357 0.52795 0.0549 0.0
C1771 C 0.06429 0.60196 0.055 0.0
N1772 N 0.02567 0.49234 1.03154 0.0
N1773 N 0.04871 0.58351 0.04404 0.0
H1774 H 0.48785 0.53203 0.57571 0.0
H1775 H 0.56721 0.52137 0.49586 0.0
H1776 H 0.48537 0.43681 0.54955 0.0
H1777 H 0.56856 0.61697 0.52181 0.0
H1778 H 0.53723 0.48984 0.51542 0.0
H1779 H 0.51815 0.56349 0.55621 0.0
C1780 C 0.4938 0.51768 0.56592 0.0
C1781 C 0.48398 0.48169 0.56431 0.0
C1782 C 0.54403 0.51776 0.51681 0.0
C1783 C 0.51851 0.51759 0.54187 0.0
C1784 C 0.56105 0.5358 0.50561 0.0
C1785 C 0.5704 0.57193 0.50713 0.0
C1786 C 0.53629 0.53593 0.52965 0.0
C1787 C 0.56187 0.58915 0.52009 0.0
C1788 C 0.51102 0.53568 0.55476 0.0
C1789 C 0.49234 0.46454 0.55132 0.0
N1790 N 0.54541 0.57104 0.53081 0.0
N1791 N 0.509 0.4826 0.54064 0.0
H1792 H 0.29148 0.11571 0.37494 0.0
H1793 H 0.31402 0.02465 0.45253 0.0
H1794 H 0.21666 0.13359 0.4092 0.0
H1795 H 0.40444 0.04861 0.42575 0.0
H1796 H 0.27505 0.05627 0.43541 0.0
H1797 H 0.33007 0.08237 0.39178 0.0
C1798 C 0.28292 0.11242 0.38592 0.0
C1799 C 0.25062 0.12788 0.39056 0.0
C1800 C 0.30346 0.05465 0.4333 0.0
C1801 C 0.29472 0.08913 0.40997 0.0
C1802 C 0.3258 0.03661 0.44312 0.0
C1803 C 0.36289 0.03404 0.44079 0.0
C1804 C 0.31789 0.06969 0.42076 0.0
C1805 C 0.37622 0.05007 0.42821 0.0
C1806 C 0.30511 0.09352 0.39557 0.0
C1807 C 0.2413 0.12258 0.40504 0.0
N1808 N 0.35389 0.06676 0.4187 0.0
N1809 N 0.26293 0.10368 0.4141 0.0
H1810 H 0.29676 0.06759 0.69461 0.0
H1811 H 0.12635 0.05826 0.64303 0.0
H1812 H 0.22633 0.15787 0.68942 0.0
H1813 H 0.22378 1.00264 0.63253 0.0
H1814 H 0.15815 0.08972 0.66232 0.0
H1815 H 0.26568 0.03732 0.67472 0.0
C1816 C 0.27439 0.08088 0.68951 0.0
C1817 C 0.26435 0.11559 0.69383 0.0
C1818 C 0.17265 0.0708 0.65575 0.0
C1819 C 0.22824 0.08058 0.67095 0.0
C1820 C 0.15452 0.05283 0.64465 0.0
C1821 C 0.1722 0.0276 0.63597 0.0
C1822 C 0.20876 0.06304 0.65862 0.0
C1823 C 0.20886 1.02188 0.63879 0.0
C1824 C 0.2569 0.06366 0.67801 0.0
C1825 C 0.23523 0.13128 0.68656 0.0
N1826 N 0.22567 0.03892 0.64995 0.0
N1827 N 0.2182 0.11369 0.67563 0.0
H1828 H 0.15532 1.01144 0.92523 0.0
H1829 H 0.35958 0.97383 0.90294 0.0
H1830 H 0.24542 0.05293 0.94886 0.0
H1831 H 0.26974 0.92941 0.87993 0.0
H1832 H 0.31841 1.00342 0.91933 0.0
H1833 H 0.19621 0.98262 0.9085 0.0
C1834 C 0.18369 1.01482 0.92693 0.0
C1835 C 0.19646 0.03526 0.9386 0.0
C1836 C 0.30753 0.98732 0.91071 0.0
C1837 C 0.24434 1.00125 0.91917 0.0
C1838 C 0.33114 0.97025 0.90122 0.0
C1839 C 0.3185 0.94876 0.88983 0.0
C1840 C 0.27041 0.98332 0.909 0.0
C1841 C 0.28108 0.94555 0.88844 0.0
C1842 C 0.20719 0.99803 0.9173 0.0
C1843 C 0.23392 0.03773 0.94011 0.0
N1844 N 0.25856 0.96253 0.89785 0.0
N1845 N 0.25632 1.02108 0.93057 0.0
H1846 H 0.27932 0.96231 0.20442 0.0
H1847 H 0.38008 0.98778 0.1286 0.0
H1848 H 0.29109 0.87682 0.17377 0.0
H1849 H 0.37079 0.07007 0.16072 0.0
H1850 H 0.35065 0.9457 0.14511 0.0
H1851 H 0.31492 1.00102 0.18883 0.0
C1852 C 0.28959 0.95144 0.1945 0.0
C1853 C 0.28203 0.91586 0.19059 0.0
C1854 C 0.35546 0.97289 0.1486 0.0
C1855 C 0.32307 0.96075 0.17234 0.0
C1856 C 0.37266 0.99692 0.13919 0.0
C1857 C 0.37832 0.03283 0.14316 0.0
C1858 C 0.34371 0.98463 0.16219 0.0
C1859 C 0.3672 0.04289 0.15703 0.0
C1860 C 0.30997 0.97371 0.18552 0.0
C1861 C 0.29616 0.90383 0.17741 0.0
N1862 N 0.3505 1.01925 0.16589 0.0
N1863 N 0.31568 0.92607 0.16882 0.0
H1864 H 0.76846 0.91079 0.68787 0.0
H1865 H 0.75619 0.05292 0.62266 0.0
H1866 H 0.85892 0.96644 0.67015 0.0
H1867 H 0.66376 0.99836 0.63921 0.0
H1868 H 0.79383 1.02017 0.63974 0.0
H1869 H 0.72959 0.94063 0.67008 0.0
C1870 C 0.78031 0.92891 0.68022 0.0
C1871 C 0.81736 0.93585 0.6807 0.0
C1872 C 0.76531 1.0152 0.63965 0.0
C1873 C 0.77262 0.97058 0.66016 0.0
C1874 C 0.74368 0.03399 0.62981 0.0
C1875 C 0.70643 0.02865 0.6293 0.0
C1876 C 0.74995 0.99061 0.64927 0.0
C1877 C 0.69221 1.00358 0.63905 0.0
C1878 C 0.758 0.94615 0.67006 0.0
C1879 C 0.8307 0.96005 0.67043 0.0
N1880 N 0.71377 0.98574 0.64855 0.0
N1881 N 0.80861 0.97632 0.66075 0.0
H1882 H 0.90008 0.98956 0.43934 0.0
H1883 H 0.7869 0.96727 0.36582 0.0
H1884 H 0.8626 0.07747 0.41361 0.0
H1885 H 0.82129 0.87756 0.39123 0.0
H1886 H 0.81783 1.00746 0.38256 0.0
H1887 H 0.87524 0.94777 0.42137 0.0
C1888 C 0.88721 1.00017 0.42986 0.0
C1889 C 0.88361 0.03736 0.42813 0.0
C1890 C 0.81892 0.97895 0.38444 0.0
C1891 C 0.85461 0.98941 0.40743 0.0
C1892 C 0.80131 0.95587 0.37478 0.0
C1893 C 0.80142 0.91866 0.37693 0.0
C1894 C 0.83699 0.96509 0.3965 0.0
C1895 C 0.82043 0.90589 0.38897 0.0
C1896 C 0.87275 0.97624 0.41961 0.0
C1897 C 0.86607 0.04919 0.41559 0.0
N1898 N 0.83718 0.92889 0.39825 0.0
N1899 N 0.85231 0.02555 0.40588 0.0
H1900 H 0.89526 0.04186 0.1503 0.0
H1901 H 0.70858 0.14324 0.16232 0.0
H1902 H 0.81152 0.04253 0.11845 0.0
H1903 H 0.77781 0.11396 0.19738 0.0
H1904 H 0.74823 0.1119 0.14578 0.0
H1905 H 0.85575 0.07342 0.16684 0.0
C1906 C 0.86871 0.049 0.14663 0.0
C1907 C 0.85716 0.03946 0.13272 0.0
C1908 C 0.75489 0.11229 0.15707 0.0
C1909 C 0.8111 0.07615 0.15202 0.0
C1910 C 0.73225 0.13043 0.16662 0.0
C1911 C 0.73962 0.13173 0.18145 0.0
C1912 C 0.78594 0.09537 0.16215 0.0
C1913 C 0.77077 0.11397 0.18614 0.0
C1914 C 0.84598 0.0669 0.15622 0.0
C1915 C 0.82203 0.04938 0.12891 0.0
N1916 N 0.79276 0.09688 0.17656 0.0
N1917 N 0.80048 0.06719 0.13843 0.0
H1918 H 0.66134 0.03263 0.941 0.0
H1919 H 0.79571 0.04597 0.8734 0.0
H1920 H 0.7189 0.9431 0.92326 0.0
H1921 H 0.75057 0.13862 0.89405 0.0
H1922 H 0.76384 1.00778 0.89047 0.0
H1923 H 0.68966 0.07161 0.92302 0.0
C1924 C 0.67955 1.021 0.9333 0.0
C1925 C 0.68743 0.9842 0.93379 0.0
C1926 C 0.76073 0.03648 0.89125 0.0
C1927 C 0.72019 0.02898 0.913 0.0
C1928 C 0.7789 0.05838 0.88141 0.0
C1929 C 0.77605 0.09584 0.88213 0.0
C1930 C 0.73913 0.05181 0.902 0.0
C1931 C 0.75378 0.11001 0.89295 0.0
C1932 C 0.6959 0.04336 0.92303 0.0
C1933 C 0.71169 0.9711 0.92347 0.0
N1934 N 0.73638 0.08817 0.90237 0.0
N1935 N 0.72695 0.99321 0.91362 0.0
H1936 H 0.82085 0.65867 0.89301 0.0
H1937 H 0.84746 0.45917 0.92269 0.0
H1938 H 0.77787 0.56451 0.87257 0.0
H1939 H 0.90118 0.54939 0.94193 0.0
H1940 H 0.82328 0.49799 0.90433 0.0
H1941 H 0.85121 0.6205 0.9106 0.0
C1942 C 0.81807 0.62996 0.89205 0.0
C1943 C 0.79666 0.61504 0.88108 0.0
C1944 C 0.8405 0.50951 0.91246 0.0
C1945 C 0.83145 0.57079 0.90157 0.0
C1946 C 0.85462 0.48717 0.92307 0.0
C1947 C 0.87694 0.50056 0.93406 0.0
C1948 C 0.848 0.54625 0.91264 0.0
C1949 C 0.88445 0.53749 0.93373 0.0
C1950 C 0.83543 0.60813 0.9022 0.0
C1951 C 0.79409 0.57752 0.88067 0.0
N1952 N 0.8699 0.55896 0.9233 0.0
N1953 N 0.81099 0.55694 0.89072 0.0
H1954 H 0.73351 0.48349 0.12771 0.0
H1955 H 0.74509 0.63807 0.18791 0.0
H1956 H 0.64128 0.53833 0.1445 0.0
H1957 H 0.82939 0.56084 0.18228 0.0
H1958 H 0.70891 0.60559 0.17017 0.0
H1959 H 0.77115 0.51501 0.14551 0.0
C1960 C 0.72109 0.50216 0.13504 0.0
C1961 C 0.68384 0.50791 0.13449 0.0
C1962 C 0.73526 0.59557 0.17284 0.0
C1963 C 0.72716 0.54462 0.15494 0.0
C1964 C 0.75601 0.61417 0.18304 0.0
C1965 C 0.79042 0.60218 0.18685 0.0
C1966 C 0.74895 0.56484 0.16603 0.0
C1967 C 0.80294 0.57102 0.17992 0.0
C1968 C 0.74265 0.5201 0.14527 0.0
C1969 C 0.66964 0.53259 0.14443 0.0
N1970 N 0.78247 0.55371 0.16985 0.0
N1971 N 0.69112 0.54994 0.15406 0.0
H1972 H 0.79856 0.48858 0.37529 0.0
H1973 H 0.6689 0.51004 0.44399 0.0
H1974 H 0.75462 0.39841 0.39778 0.0
H1975 H 0.72362 0.5975 0.42363 0.0
H1976 H 0.69608 0.46882 0.42644 0.0
H1977 H 0.7675 0.52872 0.39193 0.0
C1978 C 0.78215 0.4771 0.38362 0.0
C1979 C 0.77946 0.43978 0.38501 0.0
C1980 C 0.70197 0.49709 0.42579 0.0
C1981 C 0.74348 0.4861 0.40439 0.0
C1982 C 0.68628 0.52072 0.43581 0.0
C1983 C 0.69381 0.55758 0.43545 0.0
C1984 C 0.72522 0.51026 0.41516 0.0
C1985 C 0.71693 0.56947 0.42453 0.0
C1986 C 0.76446 0.50014 0.39322 0.0
C1987 C 0.7577 0.42687 0.39619 0.0
N1988 N 0.73158 0.54613 0.41495 0.0
N1989 N 0.74077 0.44981 0.40539 0.0
H1990 H 0.75276 0.39079 0.66524 0.0
H1991 H 0.84176 0.58603 0.65916 0.0
H1992 H 0.74994 0.4697 0.69892 0.0
H1993 H 0.84079 0.51192 0.62375 0.0
H1994 H 0.80675 0.54412 0.67319 0.0
H1995 H 0.78313 0.434 0.64977 0.0
C1996 C 0.75835 0.4172 0.66944 0.0
C1997 C 0.7485 0.42619 0.68359 0.0
C1998 C 0.81385 0.53687 0.66234 0.0
C1999 C 0.78395 0.47644 0.66562 0.0
C2000 C 0.83399 0.561 0.6542 0.0
C2001 C 0.84469 0.55294 0.64007 0.0
C2002 C 0.80397 0.5036 0.65658 0.0
C2003 C 0.83324 0.51977 0.63448 0.0
C2004 C 0.7758 0.44198 0.66051 0.0
C2005 C 0.75672 0.46116 0.68819 0.0
N2006 N 0.81387 0.49636 0.64274 0.0
N2007 N 0.77392 0.48466 0.67932 0.0
H2008 H 0.23546 0.41239 0.18859 0.0
H2009 H 0.22293 0.58372 0.13746 0.0
H2010 H 0.31088 0.49881 0.1928 0.0
H2011 H 0.131 0.52112 0.14934 0.0
H2012 H 0.25901 0.55016 0.15511 0.0
H2013 H 0.20038 0.4486 0.17181 0.0
C2014 C 0.24457 0.43912 0.1861 0.0
C2015 C 0.27609 0.45254 0.19239 0.0
C2016 C 0.2309 0.54392 0.15386 0.0
C2017 C 0.23614 0.49424 0.17261 0.0
C2018 C 0.21024 0.56302 0.14372 0.0
C2019 C 0.17356 0.55556 0.1418 0.0
C2020 C 0.21513 0.51646 0.16199 0.0
C2021 C 0.15895 0.52822 0.15035 0.0
C2022 C 0.22447 0.45984 0.17646 0.0
C2023 C 0.28651 0.48742 0.18849 0.0
N2024 N 0.17965 0.50969 0.15986 0.0
N2025 N 0.26689 0.50682 0.17879 0.0
H2026 H 0.30199 0.51966 0.95428 0.0
H2027 H 0.27616 0.43306 0.87642 0.0
H2028 H 0.392 0.49928 0.92675 0.0
H2029 H 0.21138 0.39975 0.91202 0.0
H2030 H 0.3143 0.46719 0.89321 0.0
H2031 H 0.26376 0.48525 0.93763 0.0
C2032 C 0.31382 0.50794 0.94481 0.0
C2033 C 0.35057 0.5123 0.94211 0.0
C2034 C 0.29171 0.45238 0.89732 0.0
C2035 C 0.30644 0.47365 0.92265 0.0
C2036 C 0.26983 0.43293 0.88772 0.0
C2037 C 0.24052 0.41301 0.89273 0.0
C2038 C 0.28376 0.45303 0.91206 0.0
C2039 C 0.23382 0.41421 0.90759 0.0
C2040 C 0.29192 0.48829 0.93528 0.0
C2041 C 0.36404 0.49646 0.92948 0.0
N2042 N 0.25489 0.43398 0.91663 0.0
N2043 N 0.34208 0.47838 0.92023 0.0
H2044 H 0.34174 0.49591 0.63207 0.0
H2045 H 0.34064 0.65054 0.69172 0.0
H2046 H 0.43891 0.54391 0.64791 0.0
H2047 H 0.26023 0.56808 0.69097 0.0
H2048 H 0.37366 0.61815 0.67307 0.0
H2049 H 0.30795 0.52881 0.65051 0.0
C2050 C 0.35597 0.51384 0.63921 0.0
C2051 C 0.39345 0.51709 0.63829 0.0
C2052 C 0.34887 0.60702 0.67702 0.0
C2053 C 0.35459 0.55513 0.65954 0.0
C2054 C 0.32997 0.6255 0.68774 0.0
C2055 C 0.29758 0.61205 0.69316 0.0
C2056 C 0.3351 0.57507 0.67125 0.0
C2057 C 0.2852 0.57945 0.68734 0.0
C2058 C 0.33664 0.53234 0.64986 0.0
C2059 C 0.41018 0.54046 0.6481 0.0
N2060 N 0.30366 0.5624 0.67666 0.0
N2061 N 0.39077 0.55859 0.65816 0.0
H2062 H 0.15143 0.52528 0.42243 0.0
H2063 H 0.35693 0.57356 0.40642 0.0
H2064 H 0.23784 0.49678 0.45087 0.0
H2065 H 0.26919 0.61376 0.38107 0.0
H2066 H 0.31437 0.54303 0.4219 0.0
H2067 H 0.19412 0.55453 0.40665 0.0
C2068 C 0.17944 0.52482 0.42538 0.0
C2069 C 0.19069 0.508 0.43813 0.0
C2070 C 0.30429 0.55841 0.41295 0.0
C2071 C 0.24046 0.54244 0.4198 0.0
C2072 C 0.32869 0.57593 0.40399 0.0
C2073 C 0.31699 0.59652 0.39223 0.0
C2074 C 0.26739 0.56092 0.41027 0.0
C2075 C 0.27978 0.59835 0.38991 0.0
C2076 C 0.2039 0.54188 0.4163 0.0
C2077 C 0.22759 0.50912 0.44124 0.0
N2078 N 0.25651 0.58083 0.39877 0.0
N2079 N 0.25096 0.52589 0.43218 0.0
H2080 H 0.16499 0.07921 0.31677 0.0
H2081 H 0.28447 0.97337 0.25947 0.0
H2082 H 0.27985 0.08686 0.31363 0.0
H2083 H 0.16946 0.96436 0.26068 0.0
H2084 H 0.28221 1.01519 0.27939 0.0
H2085 H 0.16504 0.03693 0.29659 0.0
C2086 C 0.19021 0.0719 0.31191 0.0
C2087 C 0.22249 0.08665 0.31694 0.0
C2088 C 0.25737 1.00423 0.27533 0.0
C2089 C 0.22269 0.0385 0.29381 0.0
C2090 C 0.25863 0.98029 0.26389 0.0
C2091 C 0.2271 0.96524 0.25835 0.0
C2092 C 0.22431 1.01338 0.28142 0.0
C2093 C 0.19444 0.97537 0.26458 0.0
C2094 C 0.19019 0.04786 0.30036 0.0
C2095 C 0.2543 0.07628 0.31017 0.0
N2096 N 0.19389 0.99875 0.27581 0.0
N2097 N 0.25355 0.05298 0.299 0.0
H2098 H 0.21806 0.908 0.56618 0.0
H2099 H 0.33032 0.03007 0.51225 0.0
H2100 H 0.2334 1.02182 0.5706 0.0
H2101 H 0.32895 0.91501 0.50883 0.0
H2102 H 0.29298 0.02632 0.53336 0.0
H2103 H 0.25755 0.90858 0.54516 0.0
C2104 C 0.22992 0.93299 0.56283 0.0
C2105 C 0.22228 0.96493 0.57016 0.0
C2106 C 0.30075 1.00177 0.52805 0.0
C2107 C 0.26703 0.96582 0.54613 0.0
C2108 C 0.32208 1.00391 0.51591 0.0
C2109 C 0.33286 0.9728 0.50871 0.0
C2110 C 0.28979 0.96826 0.53314 0.0
C2111 C 0.32125 0.93969 0.51405 0.0
C2112 C 0.25234 0.93332 0.55082 0.0
C2113 C 0.23828 0.99654 0.5653 0.0
N2114 N 0.30028 0.93827 0.52595 0.0
N2115 N 0.25966 0.99616 0.55362 0.0
H2116 H 0.27342 0.06809 0.76267 0.0
H2117 H 0.39981 0.9665 0.81878 0.0
H2118 H 0.38855 0.07556 0.76127 0.0
H2119 H 0.28455 0.96983 0.82087 0.0
H2120 H 0.39745 1.00554 0.79769 0.0
H2121 H 0.27816 0.03043 0.7837 0.0
C2122 C 0.2998 0.06172 0.76675 0.0
C2123 C 0.33064 0.0751 0.76016 0.0
C2124 C 0.37275 0.9978 0.80283 0.0
C2125 C 0.3363 0.03176 0.78447 0.0
C2126 C 0.37407 0.97561 0.81489 0.0
C2127 C 0.34232 0.96481 0.82161 0.0
C2128 C 0.33945 1.0091 0.79747 0.0
C2129 C 0.30974 0.97734 0.81607 0.0
C2130 C 0.30249 0.04021 0.77884 0.0
C2131 C 0.36406 0.06581 0.766 0.0
N2132 N 0.30919 0.99862 0.80434 0.0
N2133 N 0.36603 0.04469 0.77784 0.0
H2134 H 0.23629 0.13598 1.01131 0.0
H2135 H 0.32815 1.01536 0.07211 0.0
H2136 H 0.22901 1.02107 1.01378 0.0
H2137 H 0.35146 0.12772 0.06782 0.0
H2138 H 0.28838 1.01901 0.05154 0.0
H2139 H 0.27571 0.13549 1.0325 0.0
C2140 C 0.24301 0.1107 1.01625 0.0
C2141 C 0.22928 0.07852 1.0107 0.0
C2142 C 0.30205 0.043 0.05506 0.0
C2143 C 0.27402 0.07781 1.03497 0.0
C2144 C 0.32481 0.04094 0.06688 0.0
C2145 C 0.34326 0.07128 0.07177 0.0
C2146 C 0.29744 0.07568 0.04792 0.0
C2147 C 0.33766 0.10367 0.06448 0.0
C2148 C 0.26547 0.11045 1.02835 0.0
C2149 C 0.23886 0.04659 1.01759 0.0
N2150 N 0.31527 0.10503 0.05291 0.0
N2151 N 0.26043 0.04711 1.02931 0.0
H2152 H 0.89822 0.9418 0.75622 0.0
H2153 H 0.77551 0.06382 0.80658 0.0
H2154 H 0.78911 0.97116 0.74675 0.0
H2155 H 0.88979 0.05713 0.81265 0.0
H2156 H 0.78057 0.02635 0.78543 0.0
H2157 H 0.8966 0.98112 0.77738 0.0
C2158 C 0.87411 0.95679 0.75847 0.0
C2159 C 0.84384 0.95334 0.7496 0.0
C2160 C 0.80465 0.033 0.79133 0.0
C2161 C 0.84155 0.99761 0.77394 0.0
C2162 C 0.80177 0.05438 0.80351 0.0
C2163 C 0.83228 0.06375 0.81147 0.0
C2164 C 0.8383 1.02043 0.78699 0.0
C2165 C 0.86555 0.05061 0.80684 0.0
C2166 C 0.87316 0.97907 0.77059 0.0
C2167 C 0.81312 0.97289 0.75322 0.0
N2168 N 0.86769 0.02953 0.79492 0.0
N2169 N 0.81276 0.99395 0.76508 0.0
H2170 H 0.75055 0.1367 0.56062 0.0
H2171 H 0.83817 1.01607 0.4988 0.0
H2172 H 0.73735 1.02254 0.55661 0.0
H2173 H 0.86722 0.12654 0.5052 0.0
H2174 H 0.79825 1.0199 0.51927 0.0
H2175 H 0.79072 0.13547 0.53981 0.0
C2176 C 0.7561 0.11143 0.55541 0.0
C2177 C 0.74052 0.07967 0.56043 0.0
C2178 C 0.81324 0.04342 0.51623 0.0
C2179 C 0.7862 0.07812 0.53659 0.0
C2180 C 0.83609 0.04124 0.50449 0.0
C2181 C 0.85598 0.07108 0.50018 0.0
C2182 C 0.81007 0.07569 0.52385 0.0
C2183 C 0.85214 0.10294 0.50805 0.0
C2184 C 0.77902 0.11074 0.54354 0.0
C2185 C 0.74868 0.04773 0.55321 0.0
N2186 N 0.82959 0.10445 0.5195 0.0
N2187 N 0.77076 0.04783 0.54171 0.0
H2188 H 0.6742 0.95494 0.31084 0.0
H2189 H 0.77655 0.0784 0.25418 0.0
H2190 H 0.78889 0.96589 0.30811 0.0
H2191 H 0.66141 0.07218 0.25612 0.0
H2192 H 0.7806 0.03593 0.27375 0.0
H2193 H 0.6679 0.99712 0.29087 0.0
C2194 C 0.69801 0.96625 0.3061 0.0
C2195 C 0.73213 0.9568 0.31117 0.0
C2196 C 0.75437 0.04369 0.26991 0.0
C2197 C 0.72514 1.00479 0.28832 0.0
C2198 C 0.75204 0.06796 0.25867 0.0
C2199 C 0.71858 0.07894 0.25346 0.0
C2200 C 0.72302 0.03012 0.2761 0.0
C2201 C 0.68778 0.0644 0.25977 0.0
C2202 C 0.6944 0.99025 0.29469 0.0
C2203 C 0.76203 0.97226 0.3046 0.0
N2204 N 0.69073 0.04079 0.27079 0.0
N2205 N 0.75781 0.99534 0.29355 0.0
H2206 H 0.82321 0.03242 0.05637 0.0
H2207 H 0.69714 0.90618 1.00859 0.0
H2208 H 0.8122 0.91961 0.06476 0.0
H2209 H 0.72465 1.01494 0.99813 0.0
H2210 H 0.73739 0.90958 1.02943 0.0
H2211 H 0.78465 0.02591 1.03555 0.0
C2212 C 0.81259 1.0062 0.05387 0.0
C2213 C 0.82106 0.97652 0.06238 0.0
C2214 C 0.73472 0.93257 1.0225 0.0
C2215 C 0.77654 0.9688 0.03831 0.0
C2216 C 0.71193 0.93059 1.01056 0.0
C2217 C 0.70766 0.96024 1.00152 0.0
C2218 C 0.75306 0.96456 1.02548 0.0
C2219 C 0.727 0.99138 1.00476 0.0
C2220 C 0.79057 1.00247 0.0419 0.0
C2221 C 0.80639 0.94324 0.05851 0.0
N2222 N 0.74865 0.99272 1.01645 0.0
N2223 N 0.7848 0.94026 0.04676 0.0
H2224 H 0.66853 0.5761 0.81451 0.0
H2225 H 0.77181 0.46873 0.75295 0.0
H2226 H 0.78327 0.56651 0.81126 0.0
H2227 H 0.65723 0.46249 0.75785 0.0
H2228 H 0.77493 0.50796 0.77362 0.0
H2229 H 0.66231 0.537 0.79343 0.0
C2230 C 0.69236 0.56568 0.80943 0.0
C2231 C 0.72649 0.57465 0.81467 0.0
C2232 C 0.74901 0.49815 0.77022 0.0
C2233 C 0.71956 0.53035 0.79056 0.0
C2234 C 0.74717 0.47574 0.75834 0.0
C2235 C 0.71419 0.46213 0.75364 0.0
C2236 C 0.71764 0.5073 0.77758 0.0
C2237 C 0.68323 0.47237 0.7611 0.0
C2238 C 0.68878 0.54345 0.7974 0.0
C2239 C 0.75641 0.56044 0.80765 0.0
N2240 N 0.68569 0.49433 0.77274 0.0
N2241 N 0.75222 0.5392 0.79598 0.0
H2242 H 0.82941 0.5256 1.00155 0.0
H2243 H 0.73756 0.4094 0.06353 0.0
H2244 H 0.86079 0.41683 1.01017 0.0
H2245 H 0.72052 0.52222 0.05694 0.0
H2246 H 0.78042 0.40943 0.04357 0.0
H2247 H 0.78687 0.52265 1.02115 0.0
C2248 C 0.8273 0.50095 1.00754 0.0
C2249 C 0.84869 0.47135 1.0041 0.0
C2250 C 0.76728 0.43413 0.04654 0.0
C2251 C 0.79965 0.46778 1.02682 0.0
C2252 C 0.74282 0.43414 0.05794 0.0
C2253 C 0.72535 0.46587 0.062 0.0
C2254 C 0.77414 0.46603 0.03909 0.0
C2255 C 0.73325 0.49708 0.0543 0.0
C2256 C 0.80292 0.49929 1.01879 0.0
C2257 C 0.84461 0.4402 1.01233 0.0
N2258 N 0.75685 0.49631 0.04329 0.0
N2259 N 0.82057 0.43919 1.0233 0.0
H2260 H 0.89453 0.46621 0.31499 0.0
H2261 H 0.78864 0.56294 0.25146 0.0
H2262 H 0.77988 0.47952 0.31339 0.0
H2263 H 0.90383 0.56457 0.2548 0.0
H2264 H 0.78581 0.5294 0.27364 0.0
H2265 H 0.8994 0.50032 0.29271 0.0
C2266 C 0.87044 0.47649 0.31002 0.0
C2267 C 0.83673 0.46996 0.31605 0.0
C2268 C 0.81177 0.537 0.26955 0.0
C2269 C 0.8421 0.50855 0.29056 0.0
C2270 C 0.81343 0.55608 0.25682 0.0
C2271 C 0.84654 0.56664 0.25125 0.0
C2272 C 0.84346 0.52824 0.27683 0.0
C2273 C 0.87773 0.55692 0.25871 0.0
C2274 C 0.87324 0.49586 0.2973 0.0
C2275 C 0.80642 0.48383 0.30914 0.0
N2276 N 0.87544 0.53826 0.27115 0.0
N2277 N 0.80984 0.5023 0.29676 0.0
H2278 H 0.70243 0.64298 0.50954 0.0
H2279 H 0.82595 0.52314 0.56076 0.0
H2280 H 0.72903 0.53254 0.50158 0.0
H2281 H 0.81373 0.63687 0.56683 0.0
H2282 H 0.78795 0.5265 0.53962 0.0
H2283 H 0.74138 0.64205 0.53079 0.0
C2284 C 0.71677 0.6187 0.51215 0.0
C2285 C 0.71264 0.58788 0.50367 0.0
C2286 C 0.79347 0.55079 0.54555 0.0
C2287 C 0.75654 0.58637 0.52813 0.0
C2288 C 0.81513 0.54887 0.5577 0.0
C2289 C 0.82312 0.57976 0.56564 0.0
C2290 C 0.77938 0.58386 0.5412 0.0
C2291 C 0.80826 0.61233 0.56106 0.0
C2292 C 0.7388 0.61812 0.52433 0.0
C2293 C 0.73133 0.55697 0.50774 0.0
N2294 N 0.78711 0.61354 0.54914 0.0
N2295 N 0.75227 0.55701 0.51965 0.0
H2296 H 0.40224 0.58781 0.32129 0.0
H2297 H 0.2778 0.48589 0.2645 0.0
H2298 H 0.28852 0.57208 0.326 0.0
H2299 H 0.39299 0.48593 0.26155 0.0
H2300 H 0.28204 0.51983 0.28665 0.0
H2301 H 0.40043 0.5518 0.29928 0.0
C2302 C 0.377 0.57652 0.31779 0.0
C2303 C 0.34546 0.58306 0.3255 0.0
C2304 C 0.30647 0.51248 0.2812 0.0
C2305 C 0.34316 0.54234 0.3003 0.0
C2306 C 0.30406 0.49317 0.26847 0.0
C2307 C 0.3351 0.483 0.26113 0.0
C2308 C 0.34018 0.52195 0.28669 0.0
C2309 C 0.36836 0.49324 0.26686 0.0
C2310 C 0.37597 0.5561 0.30521 0.0
C2311 C 0.3135 0.5679 0.32043 0.0
N2312 N 0.37005 0.51219 0.27932 0.0
N2313 N 0.31317 0.54848 0.30815 0.0
H2314 H 0.32087 0.52518 1.01498 0.0
H2315 H 0.21587 0.65713 0.06775 0.0
H2316 H 0.31909 0.63939 1.00865 0.0
H2317 H 0.23434 0.54504 0.07566 0.0
H2318 H 0.25234 0.65242 0.04598 0.0
H2319 H 0.28685 0.53288 1.03685 0.0
C2320 C 0.31321 0.55196 1.01816 0.0
C2321 C 0.32291 0.58168 1.00993 0.0
C2322 C 0.24855 0.62899 0.05257 0.0
C2323 C 0.28377 0.59078 1.0352 0.0
C2324 C 0.22788 0.63169 0.06502 0.0
C2325 C 0.22194 0.60142 0.07355 0.0
C2326 C 0.26316 0.59577 0.04863 0.0
C2327 C 0.23799 0.56909 0.06943 0.0
C2328 C 0.29383 0.55637 1.03073 0.0
C2329 C 0.31218 0.61572 1.01467 0.0
N2330 N 0.25761 0.56713 0.05728 0.0
N2331 N 0.29312 0.61936 1.027 0.0
H2332 H 0.28644 0.5637 0.76106 0.0
H2333 H 0.15753 0.47163 0.81846 0.0
H2334 H 0.17171 0.57641 0.7602 0.0
H2335 H 0.27255 0.46183 0.81839 0.0
H2336 H 0.16138 0.51055 0.79745 0.0
H2337 H 0.281 0.52619 0.78213 0.0
C2338 C 0.26001 0.55851 0.76527 0.0
C2339 C 0.22947 0.57328 0.75882 0.0
C2340 C 0.18574 0.49997 0.80208 0.0
C2341 C 0.22304 0.53021 0.78315 0.0
C2342 C 0.18359 0.47787 0.81411 0.0
C2343 C 0.21478 0.46342 0.82022 0.0
C2344 C 0.21931 0.50764 0.79613 0.0
C2345 C 0.24778 0.47228 0.81408 0.0
C2346 C 0.25693 0.53707 0.77736 0.0
C2347 C 0.19596 0.56552 0.76481 0.0
N2348 N 0.24914 0.49369 0.80239 0.0
N2349 N 0.19363 0.54454 0.77666 0.0
H2350 H 0.23116 0.52281 0.51042 0.0
H2351 H 0.33983 0.40547 0.56759 0.0
H2352 H 0.22414 0.40772 0.51122 0.0
H2353 H 0.33425 0.52066 0.56753 0.0
H2354 H 0.29882 0.40422 0.54691 0.0
H2355 H 0.27092 0.52103 0.53097 0.0
C2356 C 0.23807 0.49702 0.51488 0.0
C2357 C 0.22413 0.46535 0.50903 0.0
C2358 C 0.30654 0.4297 0.5515 0.0
C2359 C 0.27006 0.46311 0.53286 0.0
C2360 C 0.32985 0.43044 0.56332 0.0
C2361 C 0.3406 0.46324 0.56933 0.0
C2362 C 0.29404 0.46198 0.54565 0.0
C2363 C 0.32688 0.49472 0.5633 0.0
C2364 C 0.26082 0.49604 0.5267 0.0
C2365 C 0.23425 0.43281 0.51536 0.0
N2366 N 0.30455 0.49327 0.55183 0.0
N2367 N 0.25661 0.4325 0.52695 0.0
loop_
_geom_bond_atom_site_label_1
_geom_bond_atom_site_label_2
_geom_bond_distance
_geom_bond_site_symmetry_2
_ccdc_geom_bond_type
Zn0 O6 1.969 . S
Zn0 O7 1.965 . S
Zn0 O11 2.024 . S
Zn0 O16 1.969 . S
Zn1 O8 1.969 . S
Zn1 O14 1.969 . S
Zn1 O15 1.965 . S
Zn1 O17 2.024 . S
C2 O3 1.229 . S
C2 O11 1.058 . S
O3 C2 1.229 . S
C4 O5 1.229 . S
C4 O17 1.058 . S
O5 C4 1.229 . S
O6 Zn0 1.969 . S
O6 C9 1.267 . S
O7 Zn0 1.965 . S
O7 C18 1.260 . S
O8 Zn1 1.969 . S
O8 C18 1.258 . S
C9 O6 1.267 . S
C9 O10 1.228 . S
O10 C9 1.228 . S
O11 Zn0 2.024 . S
O11 C2 1.058 . S
C12 O13 1.228 . S
C12 O14 1.267 . S
O13 C12 1.228 . S
O14 Zn1 1.969 . S
O14 C12 1.267 . S
O15 Zn1 1.965 . S
O15 C19 1.260 . S
O16 Zn0 1.969 . S
O16 C19 1.258 . S
O17 Zn1 2.024 . S
O17 C4 1.058 . S
C18 O7 1.260 . S
C18 O8 1.258 . S
C19 O15 1.260 . S
C19 O16 1.258 . S
Zn20 O26 1.969 . S
Zn20 O27 1.965 . S
Zn20 O31 2.024 . S
Zn20 O36 1.969 . S
Zn21 O28 1.969 . S
Zn21 O34 1.969 . S
Zn21 O35 1.965 . S
Zn21 O37 2.024 . S
C22 O23 1.229 . S
C22 O31 1.058 . S
O23 C22 1.229 . S
C24 O25 1.229 . S
C24 O37 1.058 . S
O25 C24 1.229 . S
O26 Zn20 1.969 . S
O26 C29 1.267 . S
O27 Zn20 1.965 . S
O27 C38 1.260 . S
O28 Zn21 1.969 . S
O28 C38 1.258 . S
C29 O26 1.267 . S
C29 O30 1.228 . S
O30 C29 1.228 . S
O31 Zn20 2.024 . S
O31 C22 1.058 . S
C32 O33 1.228 . S
C32 O34 1.267 . S
O33 C32 1.228 . S
O34 Zn21 1.969 . S
O34 C32 1.267 . S
O35 Zn21 1.965 . S
O35 C39 1.260 . S
O36 Zn20 1.969 . S
O36 C39 1.258 . S
O37 Zn21 2.024 . S
O37 C24 1.058 . S
C38 O27 1.260 . S
C38 O28 1.258 . S
C39 O35 1.260 . S
C39 O36 1.258 . S
Zn40 O46 1.969 . S
Zn40 O47 1.965 . S
Zn40 O51 2.024 . S
Zn40 O56 1.969 . S
Zn41 O48 1.969 . S
Zn41 O54 1.969 . S
Zn41 O55 1.965 . S
Zn41 O57 2.024 . S
C42 O43 1.229 . S
C42 O51 1.058 . S
O43 C42 1.229 . S
C44 O45 1.229 . S
C44 O57 1.058 . S
O45 C44 1.229 . S
O46 Zn40 1.969 . S
O46 C49 1.267 . S
O47 Zn40 1.965 . S
O47 C58 1.260 . S
O48 Zn41 1.969 . S
O48 C58 1.258 . S
C49 O46 1.267 . S
C49 O50 1.228 . S
O50 C49 1.228 . S
O51 Zn40 2.024 . S
O51 C42 1.058 . S
C52 O53 1.228 . S
C52 O54 1.267 . S
O53 C52 1.228 . S
O54 Zn41 1.969 . S
O54 C52 1.267 . S
O55 Zn41 1.965 . S
O55 C59 1.260 . S
O56 Zn40 1.969 . S
O56 C59 1.258 . S
O57 Zn41 2.024 . S
O57 C44 1.058 . S
C58 O47 1.260 . S
C58 O48 1.258 . S
C59 O55 1.260 . S
C59 O56 1.258 . S
Zn60 O66 1.969 . S
Zn60 O67 1.965 . S
Zn60 O71 2.024 . S
Zn60 O76 1.969 . S
Zn61 O68 1.969 . S
Zn61 O74 1.969 . S
Zn61 O75 1.965 . S
Zn61 O77 2.024 . S
C62 O63 1.229 . S
C62 O71 1.058 . S
O63 C62 1.229 . S
C64 O65 1.229 . S
C64 O77 1.058 . S
O65 C64 1.229 . S
O66 Zn60 1.969 . S
O66 C69 1.267 . S
O67 Zn60 1.965 . S
O67 C78 1.260 . S
O68 Zn61 1.969 . S
O68 C78 1.258 . S
C69 O66 1.267 . S
C69 O70 1.228 . S
O70 C69 1.228 . S
O71 Zn60 2.024 . S
O71 C62 1.058 . S
C72 O73 1.228 . S
C72 O74 1.267 . S
O73 C72 1.228 . S
O74 Zn61 1.969 . S
O74 C72 1.267 . S
O75 Zn61 1.965 . S
O75 C79 1.260 . S
O76 Zn60 1.969 . S
O76 C79 1.258 . S
O77 Zn61 2.024 . S
O77 C64 1.058 . S
C78 O67 1.260 . S
C78 O68 1.258 . S
C79 O75 1.260 . S
C79 O76 1.258 . S
Zn80 O86 1.969 . S
Zn80 O87 1.965 . S
Zn80 O91 2.024 . S
Zn80 O96 1.969 . S
Zn81 O88 1.969 . S
Zn81 O94 1.969 . S
Zn81 O95 1.965 . S
Zn81 O97 2.024 . S
C82 O83 1.229 . S
C82 O91 1.058 . S
O83 C82 1.229 . S
C84 O85 1.229 . S
C84 O97 1.058 . S
O85 C84 1.229 . S
O86 Zn80 1.969 . S
O86 C89 1.267 . S
O87 Zn80 1.965 . S
O87 C98 1.260 . S
O88 Zn81 1.969 . S
O88 C98 1.258 . S
C89 O86 1.267 . S
C89 O90 1.228 . S
O90 C89 1.228 . S
O91 Zn80 2.024 . S
O91 C82 1.058 . S
C92 O93 1.228 . S
C92 O94 1.267 . S
O93 C92 1.228 . S
O94 Zn81 1.969 . S
O94 C92 1.267 . S
O95 Zn81 1.965 . S
O95 C99 1.260 . S
O96 Zn80 1.969 . S
O96 C99 1.258 . S
O97 Zn81 2.024 . S
O97 C84 1.058 . S
C98 O87 1.260 . S
C98 O88 1.258 . S
C99 O95 1.260 . S
C99 O96 1.258 . S
Zn100 O106 1.969 . S
Zn100 O107 1.965 . S
Zn100 O111 2.024 . S
Zn100 O116 1.969 . S
Zn101 O108 1.969 . S
Zn101 O114 1.969 . S
Zn101 O115 1.965 . S
Zn101 O117 2.024 . S
C102 O103 1.229 . S
C102 O111 1.058 . S
O103 C102 1.229 . S
C104 O105 1.229 . S
C104 O117 1.058 . S
O105 C104 1.229 . S
O106 Zn100 1.969 . S
O106 C109 1.267 . S
O107 Zn100 1.965 . S
O107 C118 1.260 . S
O108 Zn101 1.969 . S
O108 C118 1.258 . S
C109 O106 1.267 . S
C109 O110 1.228 . S
O110 C109 1.228 . S
O111 Zn100 2.024 . S
O111 C102 1.058 . S
C112 O113 1.228 . S
C112 O114 1.267 . S
O113 C112 1.228 . S
O114 Zn101 1.969 . S
O114 C112 1.267 . S
O115 Zn101 1.965 . S
O115 C119 1.260 . S
O116 Zn100 1.969 . S
O116 C119 1.258 . S
O117 Zn101 2.024 . S
O117 C104 1.058 . S
C118 O107 1.260 . S
C118 O108 1.258 . S
C119 O115 1.260 . S
C119 O116 1.258 . S
Zn120 O126 1.969 . S
Zn120 O127 1.965 . S
Zn120 O131 2.024 . S
Zn120 O136 1.969 . S
Zn121 O128 1.969 . S
Zn121 O134 1.969 . S
Zn121 O135 1.965 . S
Zn121 O137 2.024 . S
C122 O123 1.229 . S
C122 O131 1.058 . S
O123 C122 1.229 . S
C124 O125 1.229 . S
C124 O137 1.058 . S
O125 C124 1.229 . S
O126 Zn120 1.969 . S
O126 C129 1.267 . S
O127 Zn120 1.965 . S
O127 C138 1.260 . S
O128 Zn121 1.969 . S
O128 C138 1.258 . S
C129 O126 1.267 . S
C129 O130 1.228 . S
O130 C129 1.228 . S
O131 Zn120 2.024 . S
O131 C122 1.058 . S
C132 O133 1.228 . S
C132 O134 1.267 . S
O133 C132 1.228 . S
O134 Zn121 1.969 . S
O134 C132 1.267 . S
O135 Zn121 1.965 . S
O135 C139 1.260 . S
O136 Zn120 1.969 . S
O136 C139 1.258 . S
O137 Zn121 2.024 . S
O137 C124 1.058 . S
C138 O127 1.260 . S
C138 O128 1.258 . S
C139 O135 1.260 . S
C139 O136 1.258 . S
Zn140 O146 1.969 . S
Zn140 O147 1.965 . S
Zn140 O151 2.024 . S
Zn140 O156 1.969 . S
Zn141 O148 1.969 . S
Zn141 O154 1.969 . S
Zn141 O155 1.965 . S
Zn141 O157 2.024 . S
C142 O143 1.229 . S
C142 O151 1.058 . S
O143 C142 1.229 . S
C144 O145 1.229 . S
C144 O157 1.058 . S
O145 C144 1.229 . S
O146 Zn140 1.969 . S
O146 C149 1.267 . S
O147 Zn140 1.965 . S
O147 C158 1.260 . S
O148 Zn141 1.969 . S
O148 C158 1.258 . S
C149 O146 1.267 . S
C149 O150 1.228 . S
O150 C149 1.228 . S
O151 Zn140 2.024 . S
O151 C142 1.058 . S
C152 O153 1.228 . S
C152 O154 1.267 . S
O153 C152 1.228 . S
O154 Zn141 1.969 . S
O154 C152 1.267 . S
O155 Zn141 1.965 . S
O155 C159 1.260 . S
O156 Zn140 1.969 . S
O156 C159 1.258 . S
O157 Zn141 2.024 . S
O157 C144 1.058 . S
C158 O147 1.260 . S
C158 O148 1.258 . S
C159 O155 1.260 . S
C159 O156 1.258 . S
Zn160 O166 1.969 . S
Zn160 O167 1.965 . S
Zn160 O171 2.024 . S
Zn160 O176 1.969 . S
Zn161 O168 1.969 . S
Zn161 O174 1.969 . S
Zn161 O175 1.965 . S
Zn161 O177 2.024 . S
C162 O163 1.229 . S
C162 O171 1.058 . S
O163 C162 1.229 . S
C164 O165 1.229 . S
C164 O177 1.058 . S
O165 C164 1.229 . S
O166 Zn160 1.969 . S
O166 C169 1.267 . S
O167 Zn160 1.965 . S
O167 C178 1.260 . S
O168 Zn161 1.969 . S
O168 C178 1.258 . S
C169 O166 1.267 . S
C169 O170 1.228 . S
O170 C169 1.228 . S
O171 Zn160 2.024 . S
O171 C162 1.058 . S
C172 O173 1.228 . S
C172 O174 1.267 . S
O173 C172 1.228 . S
O174 Zn161 1.969 . S
O174 C172 1.267 . S
O175 Zn161 1.965 . S
O175 C179 1.260 . S
O176 Zn160 1.969 . S
O176 C179 1.258 . S
O177 Zn161 2.024 . S
O177 C164 1.058 . S
C178 O167 1.260 . S
C178 O168 1.258 . S
C179 O175 1.260 . S
C179 O176 1.258 . S
Zn180 O186 1.969 . S
Zn180 O187 1.965 . S
Zn180 O191 2.024 . S
Zn180 O196 1.969 . S
Zn181 O188 1.969 . S
Zn181 O194 1.969 . S
Zn181 O195 1.965 . S
Zn181 O197 2.024 . S
C182 O183 1.229 . S
C182 O191 1.058 . S
O183 C182 1.229 . S
C184 O185 1.229 . S
C184 O197 1.058 . S
O185 C184 1.229 . S
O186 Zn180 1.969 . S
O186 C189 1.267 . S
O187 Zn180 1.965 . S
O187 C198 1.260 . S
O188 Zn181 1.969 . S
O188 C198 1.258 . S
C189 O186 1.267 . S
C189 O190 1.228 . S
O190 C189 1.228 . S
O191 Zn180 2.024 . S
O191 C182 1.058 . S
C192 O193 1.228 . S
C192 O194 1.267 . S
O193 C192 1.228 . S
O194 Zn181 1.969 . S
O194 C192 1.267 . S
O195 Zn181 1.965 . S
O195 C199 1.260 . S
O196 Zn180 1.969 . S
O196 C199 1.258 . S
O197 Zn181 2.024 . S
O197 C184 1.058 . S
C198 O187 1.260 . S
C198 O188 1.258 . S
C199 O195 1.260 . S
C199 O196 1.258 . S
Zn200 O206 1.969 . S
Zn200 O207 1.965 . S
Zn200 O211 2.024 . S
Zn200 O216 1.969 . S
Zn201 O208 1.969 . S
Zn201 O214 1.969 . S
Zn201 O215 1.965 . S
Zn201 O217 2.024 . S
C202 O203 1.229 . S
C202 O211 1.058 . S
O203 C202 1.229 . S
C204 O205 1.229 . S
C204 O217 1.058 . S
O205 C204 1.229 . S
O206 Zn200 1.969 . S
O206 C209 1.267 . S
O207 Zn200 1.965 . S
O207 C218 1.260 . S
O208 Zn201 1.969 . S
O208 C218 1.258 . S
C209 O206 1.267 . S
C209 O210 1.228 . S
O210 C209 1.228 . S
O211 Zn200 2.024 . S
O211 C202 1.058 . S
C212 O213 1.228 . S
C212 O214 1.267 . S
O213 C212 1.228 . S
O214 Zn201 1.969 . S
O214 C212 1.267 . S
O215 Zn201 1.965 . S
O215 C219 1.260 . S
O216 Zn200 1.969 . S
O216 C219 1.258 . S
O217 Zn201 2.024 . S
O217 C204 1.058 . S
C218 O207 1.260 . S
C218 O208 1.258 . S
C219 O215 1.260 . S
C219 O216 1.258 . S
Zn220 O226 1.969 . S
Zn220 O227 1.965 . S
Zn220 O231 2.024 . S
Zn220 O236 1.969 . S
Zn221 O228 1.969 . S
Zn221 O234 1.969 . S
Zn221 O235 1.965 . S
Zn221 O237 2.024 . S
C222 O223 1.229 . S
C222 O231 1.058 . S
O223 C222 1.229 . S
C224 O225 1.229 . S
C224 O237 1.058 . S
O225 C224 1.229 . S
O226 Zn220 1.969 . S
O226 C229 1.267 . S
O227 Zn220 1.965 . S
O227 C238 1.260 . S
O228 Zn221 1.969 . S
O228 C238 1.258 . S
C229 O226 1.267 . S
C229 O230 1.228 . S
O230 C229 1.228 . S
O231 Zn220 2.024 . S
O231 C222 1.058 . S
C232 O233 1.228 . S
C232 O234 1.267 . S
O233 C232 1.228 . S
O234 Zn221 1.969 . S
O234 C232 1.267 . S
O235 Zn221 1.965 . S
O235 C239 1.260 . S
O236 Zn220 1.969 . S
O236 C239 1.258 . S
O237 Zn221 2.024 . S
O237 C224 1.058 . S
C238 O227 1.260 . S
C238 O228 1.258 . S
C239 O235 1.260 . S
C239 O236 1.258 . S
Zn240 O246 1.969 . S
Zn240 O247 1.965 . S
Zn240 O251 2.024 . S
Zn240 O256 1.969 . S
Zn241 O248 1.969 . S
Zn241 O254 1.969 . S
Zn241 O255 1.965 . S
Zn241 O257 2.024 . S
C242 O243 1.229 . S
C242 O251 1.058 . S
O243 C242 1.229 . S
C244 O245 1.229 . S
C244 O257 1.058 . S
O245 C244 1.229 . S
O246 Zn240 1.969 . S
O246 C249 1.267 . S
O247 Zn240 1.965 . S
O247 C258 1.260 . S
O248 Zn241 1.969 . S
O248 C258 1.258 . S
C249 O246 1.267 . S
C249 O250 1.228 . S
O250 C249 1.228 . S
O251 Zn240 2.024 . S
O251 C242 1.058 . S
C252 O253 1.228 . S
C252 O254 1.267 . S
O253 C252 1.228 . S
O254 Zn241 1.969 . S
O254 C252 1.267 . S
O255 Zn241 1.965 . S
O255 C259 1.260 . S
O256 Zn240 1.969 . S
O256 C259 1.258 . S
O257 Zn241 2.024 . S
O257 C244 1.058 . S
C258 O247 1.260 . S
C258 O248 1.258 . S
C259 O255 1.260 . S
C259 O256 1.258 . S
Zn260 O266 1.969 . S
Zn260 O267 1.965 . S
Zn260 O271 2.024 . S
Zn260 O276 1.969 . S
Zn261 O268 1.969 . S
Zn261 O274 1.969 . S
Zn261 O275 1.965 . S
Zn261 O277 2.024 . S
C262 O263 1.229 . S
C262 O271 1.058 . S
O263 C262 1.229 . S
C264 O265 1.229 . S
C264 O277 1.058 . S
O265 C264 1.229 . S
O266 Zn260 1.969 . S
O266 C269 1.267 . S
O267 Zn260 1.965 . S
O267 C278 1.260 . S
O268 Zn261 1.969 . S
O268 C278 1.258 . S
C269 O266 1.267 . S
C269 O270 1.228 . S
O270 C269 1.228 . S
O271 Zn260 2.024 . S
O271 C262 1.058 . S
C272 O273 1.228 . S
C272 O274 1.267 . S
O273 C272 1.228 . S
O274 Zn261 1.969 . S
O274 C272 1.267 . S
O275 Zn261 1.965 . S
O275 C279 1.260 . S
O276 Zn260 1.969 . S
O276 C279 1.258 . S
O277 Zn261 2.024 . S
O277 C264 1.058 . S
C278 O267 1.260 . S
C278 O268 1.258 . S
C279 O275 1.260 . S
C279 O276 1.258 . S
Zn280 O286 1.969 . S
Zn280 O287 1.965 . S
Zn280 O291 2.024 . S
Zn280 O296 1.969 . S
Zn281 O288 1.969 . S
Zn281 O294 1.969 . S
Zn281 O295 1.965 . S
Zn281 O297 2.024 . S
C282 O283 1.229 . S
C282 O291 1.058 . S
O283 C282 1.229 . S
C284 O285 1.229 . S
C284 O297 1.058 . S
O285 C284 1.229 . S
O286 Zn280 1.969 . S
O286 C289 1.267 . S
O287 Zn280 1.965 . S
O287 C298 1.260 . S
O288 Zn281 1.969 . S
O288 C298 1.258 . S
C289 O286 1.267 . S
C289 O290 1.228 . S
O290 C289 1.228 . S
O291 Zn280 2.024 . S
O291 C282 1.058 . S
C292 O293 1.228 . S
C292 O294 1.267 . S
O293 C292 1.228 . S
O294 Zn281 1.969 . S
O294 C292 1.267 . S
O295 Zn281 1.965 . S
O295 C299 1.260 . S
O296 Zn280 1.969 . S
O296 C299 1.258 . S
O297 Zn281 2.024 . S
O297 C284 1.058 . S
C298 O287 1.260 . S
C298 O288 1.258 . S
C299 O295 1.260 . S
C299 O296 1.258 . S
Zn300 O306 1.969 . S
Zn300 O307 1.965 . S
Zn300 O311 2.024 . S
Zn300 O316 1.969 . S
Zn301 O308 1.969 . S
Zn301 O314 1.969 . S
Zn301 O315 1.965 . S
Zn301 O317 2.024 . S
C302 O303 1.229 . S
C302 O311 1.058 . S
O303 C302 1.229 . S
C304 O305 1.229 . S
C304 O317 1.058 . S
O305 C304 1.229 . S
O306 Zn300 1.969 . S
O306 C309 1.267 . S
O307 Zn300 1.965 . S
O307 C318 1.260 . S
O308 Zn301 1.969 . S
O308 C318 1.258 . S
C309 O306 1.267 . S
C309 O310 1.228 . S
O310 C309 1.228 . S
O311 Zn300 2.024 . S
O311 C302 1.058 . S
C312 O313 1.228 . S
C312 O314 1.267 . S
O313 C312 1.228 . S
O314 Zn301 1.969 . S
O314 C312 1.267 . S
O315 Zn301 1.965 . S
O315 C319 1.260 . S
O316 Zn300 1.969 . S
O316 C319 1.258 . S
O317 Zn301 2.024 . S
O317 C304 1.058 . S
C318 O307 1.260 . S
C318 O308 1.258 . S
C319 O315 1.260 . S
C319 O316 1.258 . S
Zn320 O326 1.969 . S
Zn320 O327 1.965 . S
Zn320 O331 2.024 . S
Zn320 O336 1.969 . S
Zn321 O328 1.969 . S
Zn321 O334 1.969 . S
Zn321 O335 1.965 . S
Zn321 O337 2.024 . S
C322 O323 1.229 . S
C322 O331 1.058 . S
O323 C322 1.229 . S
C324 O325 1.229 . S
C324 O337 1.058 . S
O325 C324 1.229 . S
O326 Zn320 1.969 . S
O326 C329 1.267 . S
O327 Zn320 1.965 . S
O327 C338 1.260 . S
O328 Zn321 1.969 . S
O328 C338 1.258 . S
C329 O326 1.267 . S
C329 O330 1.228 . S
O330 C329 1.228 . S
O331 Zn320 2.024 . S
O331 C322 1.058 . S
C332 O333 1.228 . S
C332 O334 1.267 . S
O333 C332 1.228 . S
O334 Zn321 1.969 . S
O334 C332 1.267 . S
O335 Zn321 1.965 . S
O335 C339 1.260 . S
O336 Zn320 1.969 . S
O336 C339 1.258 . S
O337 Zn321 2.024 . S
O337 C324 1.058 . S
C338 O327 1.260 . S
C338 O328 1.258 . S
C339 O335 1.260 . S
C339 O336 1.258 . S
Zn340 O346 1.969 . S
Zn340 O347 1.965 . S
Zn340 O351 2.024 . S
Zn340 O356 1.969 . S
Zn341 O348 1.969 . S
Zn341 O354 1.969 . S
Zn341 O355 1.965 . S
Zn341 O357 2.024 . S
C342 O343 1.229 . S
C342 O351 1.058 . S
O343 C342 1.229 . S
C344 O345 1.229 . S
C344 O357 1.058 . S
O345 C344 1.229 . S
O346 Zn340 1.969 . S
O346 C349 1.267 . S
O347 Zn340 1.965 . S
O347 C358 1.260 . S
O348 Zn341 1.969 . S
O348 C358 1.258 . S
C349 O346 1.267 . S
C349 O350 1.228 . S
O350 C349 1.228 . S
O351 Zn340 2.024 . S
O351 C342 1.058 . S
C352 O353 1.228 . S
C352 O354 1.267 . S
O353 C352 1.228 . S
O354 Zn341 1.969 . S
O354 C352 1.267 . S
O355 Zn341 1.965 . S
O355 C359 1.260 . S
O356 Zn340 1.969 . S
O356 C359 1.258 . S
O357 Zn341 2.024 . S
O357 C344 1.058 . S
C358 O347 1.260 . S
C358 O348 1.258 . S
C359 O355 1.260 . S
C359 O356 1.258 . S
Zn360 O366 1.969 . S
Zn360 O367 1.965 . S
Zn360 O371 2.024 . S
Zn360 O376 1.969 . S
Zn361 O368 1.969 . S
Zn361 O374 1.969 . S
Zn361 O375 1.965 . S
Zn361 O377 2.024 . S
C362 O363 1.229 . S
C362 O371 1.058 . S
O363 C362 1.229 . S
C364 O365 1.229 . S
C364 O377 1.058 . S
O365 C364 1.229 . S
O366 Zn360 1.969 . S
O366 C369 1.267 . S
O367 Zn360 1.965 . S
O367 C378 1.260 . S
O368 Zn361 1.969 . S
O368 C378 1.258 . S
C369 O366 1.267 . S
C369 O370 1.228 . S
O370 C369 1.228 . S
O371 Zn360 2.024 . S
O371 C362 1.058 . S
C372 O373 1.228 . S
C372 O374 1.267 . S
O373 C372 1.228 . S
O374 Zn361 1.969 . S
O374 C372 1.267 . S
O375 Zn361 1.965 . S
O375 C379 1.260 . S
O376 Zn360 1.969 . S
O376 C379 1.258 . S
O377 Zn361 2.024 . S
O377 C364 1.058 . S
C378 O367 1.260 . S
C378 O368 1.258 . S
C379 O375 1.260 . S
C379 O376 1.258 . S
Zn380 O386 1.969 . S
Zn380 O387 1.965 . S
Zn380 O391 2.024 . S
Zn380 O396 1.969 . S
Zn381 O388 1.969 . S
Zn381 O394 1.969 . S
Zn381 O395 1.965 . S
Zn381 O397 2.024 . S
C382 O383 1.229 . S
C382 O391 1.058 . S
O383 C382 1.229 . S
C384 O385 1.229 . S
C384 O397 1.058 . S
O385 C384 1.229 . S
O386 Zn380 1.969 . S
O386 C389 1.267 . S
O387 Zn380 1.965 . S
O387 C398 1.260 . S
O388 Zn381 1.969 . S
O388 C398 1.258 . S
C389 O386 1.267 . S
C389 O390 1.228 . S
O390 C389 1.228 . S
O391 Zn380 2.024 . S
O391 C382 1.058 . S
C392 O393 1.228 . S
C392 O394 1.267 . S
O393 C392 1.228 . S
O394 Zn381 1.969 . S
O394 C392 1.267 . S
O395 Zn381 1.965 . S
O395 C399 1.260 . S
O396 Zn380 1.969 . S
O396 C399 1.258 . S
O397 Zn381 2.024 . S
O397 C384 1.058 . S
C398 O387 1.260 . S
C398 O388 1.258 . S
C399 O395 1.260 . S
C399 O396 1.258 . S
Zn400 O406 1.969 . S
Zn400 O407 1.965 . S
Zn400 O411 2.024 . S
Zn400 O416 1.969 . S
Zn401 O408 1.969 . S
Zn401 O414 1.969 . S
Zn401 O415 1.965 . S
Zn401 O417 2.024 . S
C402 O403 1.229 . S
C402 O411 1.058 . S
O403 C402 1.229 . S
C404 O405 1.229 . S
C404 O417 1.058 . S
O405 C404 1.229 . S
O406 Zn400 1.969 . S
O406 C409 1.267 . S
O407 Zn400 1.965 . S
O407 C418 1.260 . S
O408 Zn401 1.969 . S
O408 C418 1.258 . S
C409 O406 1.267 . S
C409 O410 1.228 . S
O410 C409 1.228 . S
O411 Zn400 2.024 . S
O411 C402 1.058 . S
C412 O413 1.228 . S
C412 O414 1.267 . S
O413 C412 1.228 . S
O414 Zn401 1.969 . S
O414 C412 1.267 . S
O415 Zn401 1.965 . S
O415 C419 1.260 . S
O416 Zn400 1.969 . S
O416 C419 1.258 . S
O417 Zn401 2.024 . S
O417 C404 1.058 . S
C418 O407 1.260 . S
C418 O408 1.258 . S
C419 O415 1.260 . S
C419 O416 1.258 . S
Zn420 O426 1.969 . S
Zn420 O427 1.965 . S
Zn420 O431 2.024 . S
Zn420 O436 1.969 . S
Zn421 O428 1.969 . S
Zn421 O434 1.969 . S
Zn421 O435 1.965 . S
Zn421 O437 2.024 . S
C422 O423 1.229 . S
C422 O431 1.058 . S
O423 C422 1.229 . S
C424 O425 1.229 . S
C424 O437 1.058 . S
O425 C424 1.229 . S
O426 Zn420 1.969 . S
O426 C429 1.267 . S
O427 Zn420 1.965 . S
O427 C438 1.260 . S
O428 Zn421 1.969 . S
O428 C438 1.258 . S
C429 O426 1.267 . S
C429 O430 1.228 . S
O430 C429 1.228 . S
O431 Zn420 2.024 . S
O431 C422 1.058 . S
C432 O433 1.228 . S
C432 O434 1.267 . S
O433 C432 1.228 . S
O434 Zn421 1.969 . S
O434 C432 1.267 . S
O435 Zn421 1.965 . S
O435 C439 1.260 . S
O436 Zn420 1.969 . S
O436 C439 1.258 . S
O437 Zn421 2.024 . S
O437 C424 1.058 . S
C438 O427 1.260 . S
C438 O428 1.258 . S
C439 O435 1.260 . S
C439 O436 1.258 . S
Zn440 O446 1.969 . S
Zn440 O447 1.965 . S
Zn440 O451 2.024 . S
Zn440 O456 1.969 . S
Zn441 O448 1.969 . S
Zn441 O454 1.969 . S
Zn441 O455 1.965 . S
Zn441 O457 2.024 . S
C442 O443 1.229 . S
C442 O451 1.058 . S
O443 C442 1.229 . S
C444 O445 1.229 . S
C444 O457 1.058 . S
O445 C444 1.229 . S
O446 Zn440 1.969 . S
O446 C449 1.267 . S
O447 Zn440 1.965 . S
O447 C458 1.260 . S
O448 Zn441 1.969 . S
O448 C458 1.258 . S
C449 O446 1.267 . S
C449 O450 1.228 . S
O450 C449 1.228 . S
O451 Zn440 2.024 . S
O451 C442 1.058 . S
C452 O453 1.228 . S
C452 O454 1.267 . S
O453 C452 1.228 . S
O454 Zn441 1.969 . S
O454 C452 1.267 . S
O455 Zn441 1.965 . S
O455 C459 1.260 . S
O456 Zn440 1.969 . S
O456 C459 1.258 . S
O457 Zn441 2.024 . S
O457 C444 1.058 . S
C458 O447 1.260 . S
C458 O448 1.258 . S
C459 O455 1.260 . S
C459 O456 1.258 . S
Zn460 O466 1.969 . S
Zn460 O467 1.965 . S
Zn460 O471 2.024 . S
Zn460 O476 1.969 . S
Zn461 O468 1.969 . S
Zn461 O474 1.969 . S
Zn461 O475 1.965 . S
Zn461 O477 2.024 . S
C462 O463 1.229 . S
C462 O471 1.058 . S
O463 C462 1.229 . S
C464 O465 1.229 . S
C464 O477 1.058 . S
O465 C464 1.229 . S
O466 Zn460 1.969 . S
O466 C469 1.267 . S
O467 Zn460 1.965 . S
O467 C478 1.260 . S
O468 Zn461 1.969 . S
O468 C478 1.258 . S
C469 O466 1.267 . S
C469 O470 1.228 . S
O470 C469 1.228 . S
O471 Zn460 2.024 . S
O471 C462 1.058 . S
C472 O473 1.228 . S
C472 O474 1.267 . S
O473 C472 1.228 . S
O474 Zn461 1.969 . S
O474 C472 1.267 . S
O475 Zn461 1.965 . S
O475 C479 1.260 . S
O476 Zn460 1.969 . S
O476 C479 1.258 . S
O477 Zn461 2.024 . S
O477 C464 1.058 . S
C478 O467 1.260 . S
C478 O468 1.258 . S
C479 O475 1.260 . S
C479 O476 1.258 . S
Zn480 O486 1.969 . S
Zn480 O487 1.965 . S
Zn480 O491 2.024 . S
Zn480 O496 1.969 . S
Zn481 O488 1.969 . S
Zn481 O494 1.969 . S
Zn481 O495 1.965 . S
Zn481 O497 2.024 . S
C482 O483 1.229 . S
C482 O491 1.058 . S
O483 C482 1.229 . S
C484 O485 1.229 . S
C484 O497 1.058 . S
O485 C484 1.229 . S
O486 Zn480 1.969 . S
O486 C489 1.267 . S
O487 Zn480 1.965 . S
O487 C498 1.260 . S
O488 Zn481 1.969 . S
O488 C498 1.258 . S
C489 O486 1.267 . S
C489 O490 1.228 . S
O490 C489 1.228 . S
O491 Zn480 2.024 . S
O491 C482 1.058 . S
C492 O493 1.228 . S
C492 O494 1.267 . S
O493 C492 1.228 . S
O494 Zn481 1.969 . S
O494 C492 1.267 . S
O495 Zn481 1.965 . S
O495 C499 1.260 . S
O496 Zn480 1.969 . S
O496 C499 1.258 . S
O497 Zn481 2.024 . S
O497 C484 1.058 . S
C498 O487 1.260 . S
C498 O488 1.258 . S
C499 O495 1.260 . S
C499 O496 1.258 . S
Zn500 O506 1.969 . S
Zn500 O507 1.965 . S
Zn500 O511 2.024 . S
Zn500 O516 1.969 . S
Zn501 O508 1.969 . S
Zn501 O514 1.969 . S
Zn501 O515 1.965 . S
Zn501 O517 2.024 . S
C502 O503 1.229 . S
C502 O511 1.058 . S
O503 C502 1.229 . S
C504 O505 1.229 . S
C504 O517 1.058 . S
O505 C504 1.229 . S
O506 Zn500 1.969 . S
O506 C509 1.267 . S
O507 Zn500 1.965 . S
O507 C518 1.260 . S
O508 Zn501 1.969 . S
O508 C518 1.258 . S
C509 O506 1.267 . S
C509 O510 1.228 . S
O510 C509 1.228 . S
O511 Zn500 2.024 . S
O511 C502 1.058 . S
C512 O513 1.228 . S
C512 O514 1.267 . S
O513 C512 1.228 . S
O514 Zn501 1.969 . S
O514 C512 1.267 . S
O515 Zn501 1.965 . S
O515 C519 1.260 . S
O516 Zn500 1.969 . S
O516 C519 1.258 . S
O517 Zn501 2.024 . S
O517 C504 1.058 . S
C518 O507 1.260 . S
C518 O508 1.258 . S
C519 O515 1.260 . S
C519 O516 1.258 . S
Zn520 O526 1.969 . S
Zn520 O527 1.965 . S
Zn520 O531 2.024 . S
Zn520 O536 1.969 . S
Zn521 O528 1.969 . S
Zn521 O534 1.969 . S
Zn521 O535 1.965 . S
Zn521 O537 2.024 . S
C522 O523 1.229 . S
C522 O531 1.058 . S
O523 C522 1.229 . S
C524 O525 1.229 . S
C524 O537 1.058 . S
O525 C524 1.229 . S
O526 Zn520 1.969 . S
O526 C529 1.267 . S
O527 Zn520 1.965 . S
O527 C538 1.260 . S
O528 Zn521 1.969 . S
O528 C538 1.258 . S
C529 O526 1.267 . S
C529 O530 1.228 . S
O530 C529 1.228 . S
O531 Zn520 2.024 . S
O531 C522 1.058 . S
C532 O533 1.228 . S
C532 O534 1.267 . S
O533 C532 1.228 . S
O534 Zn521 1.969 . S
O534 C532 1.267 . S
O535 Zn521 1.965 . S
O535 C539 1.260 . S
O536 Zn520 1.969 . S
O536 C539 1.258 . S
O537 Zn521 2.024 . S
O537 C524 1.058 . S
C538 O527 1.260 . S
C538 O528 1.258 . S
C539 O535 1.260 . S
C539 O536 1.258 . S
Zn540 O546 1.969 . S
Zn540 O547 1.965 . S
Zn540 O551 2.024 . S
Zn540 O556 1.969 . S
Zn541 O548 1.969 . S
Zn541 O554 1.969 . S
Zn541 O555 1.965 . S
Zn541 O557 2.024 . S
C542 O543 1.229 . S
C542 O551 1.058 . S
O543 C542 1.229 . S
C544 O545 1.229 . S
C544 O557 1.058 . S
O545 C544 1.229 . S
O546 Zn540 1.969 . S
O546 C549 1.267 . S
O547 Zn540 1.965 . S
O547 C558 1.260 . S
O548 Zn541 1.969 . S
O548 C558 1.258 . S
C549 O546 1.267 . S
C549 O550 1.228 . S
O550 C549 1.228 . S
O551 Zn540 2.024 . S
O551 C542 1.058 . S
C552 O553 1.228 . S
C552 O554 1.267 . S
O553 C552 1.228 . S
O554 Zn541 1.969 . S
O554 C552 1.267 . S
O555 Zn541 1.965 . S
O555 C559 1.260 . S
O556 Zn540 1.969 . S
O556 C559 1.258 . S
O557 Zn541 2.024 . S
O557 C544 1.058 . S
C558 O547 1.260 . S
C558 O548 1.258 . S
C559 O555 1.260 . S
C559 O556 1.258 . S
Zn560 O566 1.969 . S
Zn560 O567 1.965 . S
Zn560 O571 2.024 . S
Zn560 O576 1.969 . S
Zn561 O568 1.969 . S
Zn561 O574 1.969 . S
Zn561 O575 1.965 . S
Zn561 O577 2.024 . S
C562 O563 1.229 . S
C562 O571 1.058 . S
O563 C562 1.229 . S
C564 O565 1.229 . S
C564 O577 1.058 . S
O565 C564 1.229 . S
O566 Zn560 1.969 . S
O566 C569 1.267 . S
O567 Zn560 1.965 . S
O567 C578 1.260 . S
O568 Zn561 1.969 . S
O568 C578 1.258 . S
C569 O566 1.267 . S
C569 O570 1.228 . S
O570 C569 1.228 . S
O571 Zn560 2.024 . S
O571 C562 1.058 . S
C572 O573 1.228 . S
C572 O574 1.267 . S
O573 C572 1.228 . S
O574 Zn561 1.969 . S
O574 C572 1.267 . S
O575 Zn561 1.965 . S
O575 C579 1.260 . S
O576 Zn560 1.969 . S
O576 C579 1.258 . S
O577 Zn561 2.024 . S
O577 C564 1.058 . S
C578 O567 1.260 . S
C578 O568 1.258 . S
C579 O575 1.260 . S
C579 O576 1.258 . S
Zn580 O586 1.969 . S
Zn580 O587 1.965 . S
Zn580 O591 2.024 . S
Zn580 O596 1.969 . S
Zn581 O588 1.969 . S
Zn581 O594 1.969 . S
Zn581 O595 1.965 . S
Zn581 O597 2.024 . S
C582 O583 1.229 . S
C582 O591 1.058 . S
O583 C582 1.229 . S
C584 O585 1.229 . S
C584 O597 1.058 . S
O585 C584 1.229 . S
O586 Zn580 1.969 . S
O586 C589 1.267 . S
O587 Zn580 1.965 . S
O587 C598 1.260 . S
O588 Zn581 1.969 . S
O588 C598 1.258 . S
C589 O586 1.267 . S
C589 O590 1.228 . S
O590 C589 1.228 . S
O591 Zn580 2.024 . S
O591 C582 1.058 . S
C592 O593 1.228 . S
C592 O594 1.267 . S
O593 C592 1.228 . S
O594 Zn581 1.969 . S
O594 C592 1.267 . S
O595 Zn581 1.965 . S
O595 C599 1.260 . S
O596 Zn580 1.969 . S
O596 C599 1.258 . S
O597 Zn581 2.024 . S
O597 C584 1.058 . S
C598 O587 1.260 . S
C598 O588 1.258 . S
C599 O595 1.260 . S
C599 O596 1.258 . S
Zn600 O606 1.969 . S
Zn600 O607 1.965 . S
Zn600 O611 2.024 . S
Zn600 O616 1.969 . S
Zn601 O608 1.969 . S
Zn601 O614 1.969 . S
Zn601 O615 1.965 . S
Zn601 O617 2.024 . S
C602 O603 1.229 . S
C602 O611 1.058 . S
O603 C602 1.229 . S
C604 O605 1.229 . S
C604 O617 1.058 . S
O605 C604 1.229 . S
O606 Zn600 1.969 . S
O606 C609 1.267 . S
O607 Zn600 1.965 . S
O607 C618 1.260 . S
O608 Zn601 1.969 . S
O608 C618 1.258 . S
C609 O606 1.267 . S
C609 O610 1.228 . S
O610 C609 1.228 . S
O611 Zn600 2.024 . S
O611 C602 1.058 . S
C612 O613 1.228 . S
C612 O614 1.267 . S
O613 C612 1.228 . S
O614 Zn601 1.969 . S
O614 C612 1.267 . S
O615 Zn601 1.965 . S
O615 C619 1.260 . S
O616 Zn600 1.969 . S
O616 C619 1.258 . S
O617 Zn601 2.024 . S
O617 C604 1.058 . S
C618 O607 1.260 . S
C618 O608 1.258 . S
C619 O615 1.260 . S
C619 O616 1.258 . S
Zn620 O626 1.969 . S
Zn620 O627 1.965 . S
Zn620 O631 2.024 . S
Zn620 O636 1.969 . S
Zn621 O628 1.969 . S
Zn621 O634 1.969 . S
Zn621 O635 1.965 . S
Zn621 O637 2.024 . S
C622 O623 1.229 . S
C622 O631 1.058 . S
O623 C622 1.229 . S
C624 O625 1.229 . S
C624 O637 1.058 . S
O625 C624 1.229 . S
O626 Zn620 1.969 . S
O626 C629 1.267 . S
O627 Zn620 1.965 . S
O627 C638 1.260 . S
O628 Zn621 1.969 . S
O628 C638 1.258 . S
C629 O626 1.267 . S
C629 O630 1.228 . S
O630 C629 1.228 . S
O631 Zn620 2.024 . S
O631 C622 1.058 . S
C632 O633 1.228 . S
C632 O634 1.267 . S
O633 C632 1.228 . S
O634 Zn621 1.969 . S
O634 C632 1.267 . S
O635 Zn621 1.965 . S
O635 C639 1.260 . S
O636 Zn620 1.969 . S
O636 C639 1.258 . S
O637 Zn621 2.024 . S
O637 C624 1.058 . S
C638 O627 1.260 . S
C638 O628 1.258 . S
C639 O635 1.260 . S
C639 O636 1.258 . S
H640 C646 0.930 . S
H641 C650 0.930 . S
H642 C655 0.929 . S
H643 C653 0.929 . S
H644 C648 0.929 . S
H645 C654 0.929 . S
C646 H640 0.930 . S
C646 C647 1.367 . S
C646 C654 1.378 . S
C647 C646 1.367 . S
C647 C655 1.433 . S
C648 H644 0.929 . S
C648 C650 1.378 . S
C648 C652 1.350 . S
C649 C652 1.463 . S
C649 C654 1.350 . S
C649 N657 1.427 . S
C650 H641 0.930 . S
C650 C648 1.378 . S
C650 C651 1.367 . S
C651 C650 1.367 . S
C651 C653 1.433 . S
C652 C648 1.350 . S
C652 C649 1.463 . S
C652 N656 1.427 . S
C653 H643 0.929 . S
C653 C651 1.433 . S
C653 N656 1.384 . S
C654 H645 0.929 . S
C654 C646 1.378 . S
C654 C649 1.350 . S
C655 H642 0.929 . S
C655 C647 1.433 . S
C655 N657 1.384 . S
N656 C652 1.427 . S
N656 C653 1.384 . S
N657 C649 1.427 . S
N657 C655 1.384 . S
H658 C664 0.930 . S
H659 C668 0.930 . S
H660 C673 0.929 . S
H661 C671 0.929 . S
H662 C666 0.929 . S
H663 C672 0.929 . S
C664 H658 0.930 . S
C664 C665 1.367 . S
C664 C672 1.378 1_455 S
C665 C664 1.367 . S
C665 C673 1.433 1_455 S
C666 H662 0.929 . S
C666 C668 1.378 . S
C666 C670 1.350 . S
C667 C670 1.463 . S
C667 C672 1.350 . S
C667 N675 1.427 . S
C668 H659 0.930 . S
C668 C666 1.378 . S
C668 C669 1.367 . S
C669 C668 1.367 . S
C669 C671 1.433 . S
C670 C666 1.350 . S
C670 C667 1.463 . S
C670 N674 1.427 . S
C671 H661 0.929 . S
C671 C669 1.433 . S
C671 N674 1.384 . S
C672 H663 0.929 . S
C672 C664 1.378 1_655 S
C672 C667 1.350 . S
C673 H660 0.929 . S
C673 C665 1.433 1_655 S
C673 N675 1.384 . S
N674 C670 1.427 . S
N674 C671 1.384 . S
N675 C667 1.427 . S
N675 C673 1.384 . S
H676 C682 0.930 . S
H677 C686 0.930 . S
H678 C691 0.929 . S
H679 C689 0.929 . S
H680 C684 0.929 . S
H681 C690 0.929 . S
C682 H676 0.930 . S
C682 C683 1.367 . S
C682 C690 1.378 . S
C683 C682 1.367 . S
C683 C691 1.433 . S
C684 H680 0.929 . S
C684 C686 1.378 . S
C684 C688 1.350 . S
C685 C688 1.463 . S
C685 C690 1.350 . S
C685 N693 1.427 . S
C686 H677 0.930 . S
C686 C684 1.378 . S
C686 C687 1.367 . S
C687 C686 1.367 . S
C687 C689 1.433 . S
C688 C684 1.350 . S
C688 C685 1.463 . S
C688 N692 1.427 . S
C689 H679 0.929 . S
C689 C687 1.433 . S
C689 N692 1.384 . S
C690 H681 0.929 . S
C690 C682 1.378 . S
C690 C685 1.350 . S
C691 H678 0.929 . S
C691 C683 1.433 . S
C691 N693 1.384 . S
N692 C688 1.427 . S
N692 C689 1.384 . S
N693 C685 1.427 . S
N693 C691 1.384 . S
H694 C700 0.930 . S
H695 C704 0.930 . S
H696 C709 0.929 . S
H697 C707 0.929 . S
H698 C702 0.929 . S
H699 C708 0.929 . S
C700 H694 0.930 . S
C700 C701 1.367 . S
C700 C708 1.378 . S
C701 C700 1.367 . S
C701 C709 1.433 . S
C702 H698 0.929 . S
C702 C704 1.378 . S
C702 C706 1.350 . S
C703 C706 1.463 . S
C703 C708 1.350 . S
C703 N711 1.427 . S
C704 H695 0.930 . S
C704 C702 1.378 . S
C704 C705 1.367 . S
C705 C704 1.367 . S
C705 C707 1.433 . S
C706 C702 1.350 . S
C706 C703 1.463 . S
C706 N710 1.427 . S
C707 H697 0.929 . S
C707 C705 1.433 . S
C707 N710 1.384 . S
C708 H699 0.929 . S
C708 C700 1.378 . S
C708 C703 1.350 . S
C709 H696 0.929 . S
C709 C701 1.433 . S
C709 N711 1.384 . S
N710 C706 1.427 . S
N710 C707 1.384 . S
N711 C703 1.427 . S
N711 C709 1.384 . S
H712 C718 0.930 . S
H713 C722 0.930 . S
H714 C727 0.929 . S
H715 C725 0.929 . S
H716 C720 0.929 . S
H717 C726 0.929 . S
C718 H712 0.930 . S
C718 C719 1.367 . S
C718 C726 1.378 . S
C719 C718 1.367 . S
C719 C727 1.433 . S
C720 H716 0.929 . S
C720 C722 1.378 . S
C720 C724 1.350 . S
C721 C724 1.463 . S
C721 C726 1.350 . S
C721 N729 1.427 . S
C722 H713 0.930 . S
C722 C720 1.378 . S
C722 C723 1.367 . S
C723 C722 1.367 . S
C723 C725 1.433 . S
C724 C720 1.350 . S
C724 C721 1.463 . S
C724 N728 1.427 . S
C725 H715 0.929 . S
C725 C723 1.433 . S
C725 N728 1.384 . S
C726 H717 0.929 . S
C726 C718 1.378 . S
C726 C721 1.350 . S
C727 H714 0.929 . S
C727 C719 1.433 . S
C727 N729 1.384 . S
N728 C724 1.427 . S
N728 C725 1.384 . S
N729 C721 1.427 . S
N729 C727 1.384 . S
H730 C736 0.930 . S
H731 C740 0.930 . S
H732 C745 0.929 . S
H733 C743 0.929 . S
H734 C738 0.929 . S
H735 C744 0.929 . S
C736 H730 0.930 . S
C736 C737 1.367 . S
C736 C744 1.378 . S
C737 C736 1.367 . S
C737 C745 1.433 . S
C738 H734 0.929 . S
C738 C740 1.378 . S
C738 C742 1.350 . S
C739 C742 1.463 . S
C739 C744 1.350 . S
C739 N747 1.427 . S
C740 H731 0.930 . S
C740 C738 1.378 . S
C740 C741 1.367 . S
C741 C740 1.367 . S
C741 C743 1.433 . S
C742 C738 1.350 . S
C742 C739 1.463 . S
C742 N746 1.427 . S
C743 H733 0.929 . S
C743 C741 1.433 . S
C743 N746 1.384 . S
C744 H735 0.929 . S
C744 C736 1.378 . S
C744 C739 1.350 . S
C745 H732 0.929 . S
C745 C737 1.433 . S
C745 N747 1.384 . S
N746 C742 1.427 . S
N746 C743 1.384 . S
N747 C739 1.427 . S
N747 C745 1.384 . S
H748 C754 0.930 . S
H749 C758 0.930 . S
H750 C763 0.929 . S
H751 C761 0.929 . S
H752 C756 0.929 . S
H753 C762 0.929 . S
C754 H748 0.930 . S
C754 C755 1.367 . S
C754 C762 1.378 . S
C755 C754 1.367 . S
C755 C763 1.433 . S
C756 H752 0.929 . S
C756 C758 1.378 . S
C756 C760 1.350 . S
C757 C760 1.463 . S
C757 C762 1.350 . S
C757 N765 1.427 . S
C758 H749 0.930 . S
C758 C756 1.378 . S
C758 C759 1.367 . S
C759 C758 1.367 . S
C759 C761 1.433 . S
C760 C756 1.350 . S
C760 C757 1.463 . S
C760 N764 1.427 . S
C761 H751 0.929 . S
C761 C759 1.433 . S
C761 N764 1.384 . S
C762 H753 0.929 . S
C762 C754 1.378 . S
C762 C757 1.350 . S
C763 H750 0.929 . S
C763 C755 1.433 . S
C763 N765 1.384 . S
N764 C760 1.427 . S
N764 C761 1.384 . S
N765 C757 1.427 . S
N765 C763 1.384 . S
H766 C772 0.930 . S
H767 C776 0.930 . S
H768 C781 0.929 . S
H769 C779 0.929 . S
H770 C774 0.929 . S
H771 C780 0.929 . S
C772 H766 0.930 . S
C772 C773 1.367 . S
C772 C780 1.378 1_455 S
C773 C772 1.367 . S
C773 C781 1.433 1_455 S
C774 H770 0.929 . S
C774 C776 1.378 . S
C774 C778 1.350 . S
C775 C778 1.463 . S
C775 C780 1.350 . S
C775 N783 1.427 . S
C776 H767 0.930 . S
C776 C774 1.378 . S
C776 C777 1.367 . S
C777 C776 1.367 . S
C777 C779 1.433 . S
C778 C774 1.350 . S
C778 C775 1.463 . S
C778 N782 1.427 . S
C779 H769 0.929 . S
C779 C777 1.433 . S
C779 N782 1.384 . S
C780 H771 0.929 . S
C780 C772 1.378 1_655 S
C780 C775 1.350 . S
C781 H768 0.929 . S
C781 C773 1.433 1_655 S
C781 N783 1.384 . S
N782 C778 1.427 . S
N782 C779 1.384 . S
N783 C775 1.427 . S
N783 C781 1.384 . S
H784 C790 0.930 . S
H785 C794 0.930 . S
H786 C799 0.929 . S
H787 C797 0.929 . S
H788 C792 0.929 . S
H789 C798 0.929 . S
C790 H784 0.930 . S
C790 C791 1.367 . S
C790 C798 1.378 . S
C791 C790 1.367 . S
C791 C799 1.433 . S
C792 H788 0.929 . S
C792 C794 1.378 . S
C792 C796 1.350 . S
C793 C796 1.463 . S
C793 C798 1.350 . S
C793 N801 1.427 . S
C794 H785 0.930 . S
C794 C792 1.378 . S
C794 C795 1.367 . S
C795 C794 1.367 . S
C795 C797 1.433 . S
C796 C792 1.350 . S
C796 C793 1.463 . S
C796 N800 1.427 . S
C797 H787 0.929 . S
C797 C795 1.433 . S
C797 N800 1.384 . S
C798 H789 0.929 . S
C798 C790 1.378 . S
C798 C793 1.350 . S
C799 H786 0.929 . S
C799 C791 1.433 . S
C799 N801 1.384 . S
N800 C796 1.427 . S
N800 C797 1.384 . S
N801 C793 1.427 . S
N801 C799 1.384 . S
H802 C808 0.930 . S
H803 C812 0.930 . S
H804 C817 0.929 . S
H805 C815 0.929 . S
H806 C810 0.929 . S
H807 C816 0.929 . S
C808 H802 0.930 . S
C808 C809 1.367 . S
C808 C816 1.378 1_655 S
C809 C808 1.367 . S
C809 C817 1.433 . S
C810 H806 0.929 . S
C810 C812 1.378 . S
C810 C814 1.350 . S
C811 C814 1.463 . S
C811 C816 1.350 . S
C811 N819 1.427 . S
C812 H803 0.930 . S
C812 C810 1.378 . S
C812 C813 1.367 . S
C813 C812 1.367 . S
C813 C815 1.433 . S
C814 C810 1.350 . S
C814 C811 1.463 . S
C814 N818 1.427 . S
C815 H805 0.929 . S
C815 C813 1.433 . S
C815 N818 1.384 . S
C816 H807 0.929 . S
C816 C808 1.378 1_455 S
C816 C811 1.350 . S
C817 H804 0.929 . S
C817 C809 1.433 . S
C817 N819 1.384 1_655 S
N818 C814 1.427 . S
N818 C815 1.384 . S
N819 C811 1.427 . S
N819 C817 1.384 1_455 S
H820 C826 0.930 . S
H821 C830 0.930 . S
H822 C835 0.929 . S
H823 C833 0.929 . S
H824 C828 0.929 . S
H825 C834 0.929 . S
C826 H820 0.930 . S
C826 C827 1.367 . S
C826 C834 1.378 . S
C827 C826 1.367 . S
C827 C835 1.433 . S
C828 H824 0.929 . S
C828 C830 1.378 . S
C828 C832 1.350 . S
C829 C832 1.463 . S
C829 C834 1.350 . S
C829 N837 1.427 . S
C830 H821 0.930 . S
C830 C828 1.378 . S
C830 C831 1.367 . S
C831 C830 1.367 . S
C831 C833 1.433 . S
C832 C828 1.350 . S
C832 C829 1.463 . S
C832 N836 1.427 . S
C833 H823 0.929 . S
C833 C831 1.433 . S
C833 N836 1.384 . S
C834 H825 0.929 . S
C834 C826 1.378 . S
C834 C829 1.350 . S
C835 H822 0.929 . S
C835 C827 1.433 . S
C835 N837 1.384 . S
N836 C832 1.427 . S
N836 C833 1.384 . S
N837 C829 1.427 . S
N837 C835 1.384 . S
H838 C844 0.930 . S
H839 C848 0.930 . S
H840 C853 0.929 . S
H841 C851 0.929 . S
H842 C846 0.929 . S
H843 C852 0.929 . S
C844 H838 0.930 . S
C844 C845 1.367 . S
C844 C852 1.378 . S
C845 C844 1.367 . S
C845 C853 1.433 . S
C846 H842 0.929 . S
C846 C848 1.378 . S
C846 C850 1.350 . S
C847 C850 1.463 . S
C847 C852 1.350 . S
C847 N855 1.427 . S
C848 H839 0.930 . S
C848 C846 1.378 . S
C848 C849 1.367 . S
C849 C848 1.367 . S
C849 C851 1.433 . S
C850 C846 1.350 . S
C850 C847 1.463 . S
C850 N854 1.427 . S
C851 H841 0.929 . S
C851 C849 1.433 . S
C851 N854 1.384 . S
C852 H843 0.929 . S
C852 C844 1.378 . S
C852 C847 1.350 . S
C853 H840 0.929 . S
C853 C845 1.433 . S
C853 N855 1.384 . S
N854 C850 1.427 . S
N854 C851 1.384 . S
N855 C847 1.427 . S
N855 C853 1.384 . S
H856 C862 0.930 . S
H857 C866 0.930 . S
H858 C871 0.929 . S
H859 C869 0.929 . S
H860 C864 0.929 . S
H861 C870 0.929 . S
C862 H856 0.930 . S
C862 C863 1.367 . S
C862 C870 1.378 . S
C863 C862 1.367 . S
C863 C871 1.433 . S
C864 H860 0.929 . S
C864 C866 1.378 . S
C864 C868 1.350 . S
C865 C868 1.463 . S
C865 C870 1.350 . S
C865 N873 1.427 . S
C866 H857 0.930 . S
C866 C864 1.378 . S
C866 C867 1.367 . S
C867 C866 1.367 . S
C867 C869 1.433 . S
C868 C864 1.350 . S
C868 C865 1.463 . S
C868 N872 1.427 . S
C869 H859 0.929 . S
C869 C867 1.433 . S
C869 N872 1.384 . S
C870 H861 0.929 . S
C870 C862 1.378 . S
C870 C865 1.350 . S
C871 H858 0.929 . S
C871 C863 1.433 . S
C871 N873 1.384 . S
N872 C868 1.427 . S
N872 C869 1.384 . S
N873 C865 1.427 . S
N873 C871 1.384 . S
H874 C880 0.930 . S
H875 C884 0.930 . S
H876 C889 0.929 . S
H877 C887 0.929 . S
H878 C882 0.929 . S
H879 C888 0.929 . S
C880 H874 0.930 . S
C880 C881 1.367 . S
C880 C888 1.378 . S
C881 C880 1.367 . S
C881 C889 1.433 . S
C882 H878 0.929 . S
C882 C884 1.378 . S
C882 C886 1.350 . S
C883 C886 1.463 . S
C883 C888 1.350 . S
C883 N891 1.427 . S
C884 H875 0.930 . S
C884 C882 1.378 . S
C884 C885 1.367 . S
C885 C884 1.367 . S
C885 C887 1.433 . S
C886 C882 1.350 . S
C886 C883 1.463 . S
C886 N890 1.427 . S
C887 H877 0.929 . S
C887 C885 1.433 . S
C887 N890 1.384 . S
C888 H879 0.929 . S
C888 C880 1.378 . S
C888 C883 1.350 . S
C889 H876 0.929 . S
C889 C881 1.433 . S
C889 N891 1.384 . S
N890 C886 1.427 . S
N890 C887 1.384 . S
N891 C883 1.427 . S
N891 C889 1.384 . S
H892 C898 0.930 . S
H893 C902 0.930 . S
H894 C907 0.929 . S
H895 C905 0.929 . S
H896 C900 0.929 . S
H897 C906 0.929 . S
C898 H892 0.930 . S
C898 C899 1.367 . S
C898 C906 1.378 . S
C899 C898 1.367 . S
C899 C907 1.433 . S
C900 H896 0.929 . S
C900 C902 1.378 . S
C900 C904 1.350 . S
C901 C904 1.463 . S
C901 C906 1.350 . S
C901 N909 1.427 . S
C902 H893 0.930 . S
C902 C900 1.378 . S
C902 C903 1.367 . S
C903 C902 1.367 . S
C903 C905 1.433 . S
C904 C900 1.350 . S
C904 C901 1.463 . S
C904 N908 1.427 . S
C905 H895 0.929 . S
C905 C903 1.433 . S
C905 N908 1.384 . S
C906 H897 0.929 . S
C906 C898 1.378 . S
C906 C901 1.350 . S
C907 H894 0.929 . S
C907 C899 1.433 . S
C907 N909 1.384 . S
N908 C904 1.427 . S
N908 C905 1.384 . S
N909 C901 1.427 . S
N909 C907 1.384 . S
H910 C916 0.930 . S
H911 C920 0.930 . S
H912 C925 0.929 . S
H913 C923 0.929 . S
H914 C918 0.929 . S
H915 C924 0.929 . S
C916 H910 0.930 . S
C916 C917 1.367 . S
C916 C924 1.378 . S
C917 C916 1.367 . S
C917 C925 1.433 . S
C918 H914 0.929 . S
C918 C920 1.378 . S
C918 C922 1.350 . S
C919 C922 1.463 . S
C919 C924 1.350 . S
C919 N927 1.427 . S
C920 H911 0.930 . S
C920 C918 1.378 . S
C920 C921 1.367 1_455 S
C921 C920 1.367 1_655 S
C921 C923 1.433 . S
C922 C918 1.350 . S
C922 C919 1.463 . S
C922 N926 1.427 . S
C923 H913 0.929 . S
C923 C921 1.433 . S
C923 N926 1.384 1_655 S
C924 H915 0.929 . S
C924 C916 1.378 . S
C924 C919 1.350 . S
C925 H912 0.929 . S
C925 C917 1.433 . S
C925 N927 1.384 . S
N926 C922 1.427 . S
N926 C923 1.384 1_455 S
N927 C919 1.427 . S
N927 C925 1.384 . S
H928 C934 0.930 . S
H929 C938 0.930 . S
H930 C943 0.929 . S
H931 C941 0.929 . S
H932 C936 0.929 . S
H933 C942 0.929 . S
C934 H928 0.930 . S
C934 C935 1.367 . S
C934 C942 1.378 . S
C935 C934 1.367 . S
C935 C943 1.433 . S
C936 H932 0.929 . S
C936 C938 1.378 . S
C936 C940 1.350 . S
C937 C940 1.463 . S
C937 C942 1.350 . S
C937 N945 1.427 . S
C938 H929 0.930 . S
C938 C936 1.378 . S
C938 C939 1.367 . S
C939 C938 1.367 . S
C939 C941 1.433 . S
C940 C936 1.350 . S
C940 C937 1.463 . S
C940 N944 1.427 . S
C941 H931 0.929 . S
C941 C939 1.433 . S
C941 N944 1.384 . S
C942 H933 0.929 . S
C942 C934 1.378 . S
C942 C937 1.350 . S
C943 H930 0.929 . S
C943 C935 1.433 . S
C943 N945 1.384 . S
N944 C940 1.427 . S
N944 C941 1.384 . S
N945 C937 1.427 . S
N945 C943 1.384 . S
H946 C952 0.930 . S
H947 C956 0.930 . S
H948 C961 0.929 . S
H949 C959 0.929 . S
H950 C954 0.929 . S
H951 C960 0.929 . S
C952 H946 0.930 . S
C952 C953 1.367 . S
C952 C960 1.378 . S
C953 C952 1.367 . S
C953 C961 1.433 . S
C954 H950 0.929 . S
C954 C956 1.378 . S
C954 C958 1.350 . S
C955 C958 1.463 . S
C955 C960 1.350 . S
C955 N963 1.427 . S
C956 H947 0.930 . S
C956 C954 1.378 . S
C956 C957 1.367 . S
C957 C956 1.367 . S
C957 C959 1.433 . S
C958 C954 1.350 . S
C958 C955 1.463 . S
C958 N962 1.427 . S
C959 H949 0.929 . S
C959 C957 1.433 . S
C959 N962 1.384 . S
C960 H951 0.929 . S
C960 C952 1.378 . S
C960 C955 1.350 . S
C961 H948 0.929 . S
C961 C953 1.433 . S
C961 N963 1.384 . S
N962 C958 1.427 . S
N962 C959 1.384 . S
N963 C955 1.427 . S
N963 C961 1.384 . S
H964 C970 0.930 . S
H965 C974 0.930 . S
H966 C979 0.929 . S
H967 C977 0.929 . S
H968 C972 0.929 . S
H969 C978 0.929 . S
C970 H964 0.930 . S
C970 C971 1.367 . S
C970 C978 1.378 . S
C971 C970 1.367 . S
C971 C979 1.433 . S
C972 H968 0.929 . S
C972 C974 1.378 . S
C972 C976 1.350 . S
C973 C976 1.463 . S
C973 C978 1.350 . S
C973 N981 1.427 . S
C974 H965 0.930 . S
C974 C972 1.378 . S
C974 C975 1.367 . S
C975 C974 1.367 . S
C975 C977 1.433 . S
C976 C972 1.350 . S
C976 C973 1.463 . S
C976 N980 1.427 . S
C977 H967 0.929 . S
C977 C975 1.433 . S
C977 N980 1.384 . S
C978 H969 0.929 . S
C978 C970 1.378 . S
C978 C973 1.350 . S
C979 H966 0.929 . S
C979 C971 1.433 . S
C979 N981 1.384 . S
N980 C976 1.427 . S
N980 C977 1.384 . S
N981 C973 1.427 . S
N981 C979 1.384 . S
H982 C988 0.930 . S
H983 C992 0.930 . S
H984 C997 0.929 1_655 S
H985 C995 0.929 . S
H986 C990 0.929 . S
H987 C996 0.929 . S
C988 H982 0.930 . S
C988 C989 1.367 . S
C988 C996 1.378 1_655 S
C989 C988 1.367 . S
C989 C997 1.433 1_655 S
C990 H986 0.929 . S
C990 C992 1.378 . S
C990 C994 1.350 . S
C991 C994 1.463 . S
C991 C996 1.350 . S
C991 N999 1.427 . S
C992 H983 0.930 . S
C992 C990 1.378 . S
C992 C993 1.367 . S
C993 C992 1.367 . S
C993 C995 1.433 . S
C994 C990 1.350 . S
C994 C991 1.463 . S
C994 N998 1.427 . S
C995 H985 0.929 . S
C995 C993 1.433 . S
C995 N998 1.384 . S
C996 H987 0.929 . S
C996 C988 1.378 1_455 S
C996 C991 1.350 . S
C997 H984 0.929 1_455 S
C997 C989 1.433 1_455 S
C997 N999 1.384 . S
N998 C994 1.427 . S
N998 C995 1.384 . S
N999 C991 1.427 . S
N999 C997 1.384 . S
H1000 C1006 0.930 . S
H1001 C1010 0.930 . S
H1002 C1015 0.929 . S
H1003 C1013 0.929 . S
H1004 C1008 0.929 . S
H1005 C1014 0.929 . S
C1006 H1000 0.930 . S
C1006 C1007 1.367 . S
C1006 C1014 1.378 . S
C1007 C1006 1.367 . S
C1007 C1015 1.433 . S
C1008 H1004 0.929 . S
C1008 C1010 1.378 . S
C1008 C1012 1.350 . S
C1009 C1012 1.463 . S
C1009 C1014 1.350 . S
C1009 N1017 1.427 . S
C1010 H1001 0.930 . S
C1010 C1008 1.378 . S
C1010 C1011 1.367 . S
C1011 C1010 1.367 . S
C1011 C1013 1.433 . S
C1012 C1008 1.350 . S
C1012 C1009 1.463 . S
C1012 N1016 1.427 . S
C1013 H1003 0.929 . S
C1013 C1011 1.433 . S
C1013 N1016 1.384 . S
C1014 H1005 0.929 . S
C1014 C1006 1.378 . S
C1014 C1009 1.350 . S
C1015 H1002 0.929 . S
C1015 C1007 1.433 . S
C1015 N1017 1.384 . S
N1016 C1012 1.427 . S
N1016 C1013 1.384 . S
N1017 C1009 1.427 . S
N1017 C1015 1.384 . S
H1018 C1024 0.930 . S
H1019 C1028 0.930 . S
H1020 C1033 0.929 . S
H1021 C1031 0.929 . S
H1022 C1026 0.929 . S
H1023 C1032 0.929 . S
C1024 H1018 0.930 . S
C1024 C1025 1.367 . S
C1024 C1032 1.378 . S
C1025 C1024 1.367 . S
C1025 C1033 1.433 . S
C1026 H1022 0.929 . S
C1026 C1028 1.378 1_455 S
C1026 C1030 1.350 . S
C1027 C1030 1.463 . S
C1027 C1032 1.350 . S
C1027 N1035 1.427 . S
C1028 H1019 0.930 . S
C1028 C1026 1.378 1_655 S
C1028 C1029 1.367 . S
C1029 C1028 1.367 . S
C1029 C1031 1.433 . S
C1030 C1026 1.350 . S
C1030 C1027 1.463 . S
C1030 N1034 1.427 . S
C1031 H1021 0.929 . S
C1031 C1029 1.433 . S
C1031 N1034 1.384 1_655 S
C1032 H1023 0.929 . S
C1032 C1024 1.378 . S
C1032 C1027 1.350 . S
C1033 H1020 0.929 . S
C1033 C1025 1.433 . S
C1033 N1035 1.384 . S
N1034 C1030 1.427 . S
N1034 C1031 1.384 1_455 S
N1035 C1027 1.427 . S
N1035 C1033 1.384 . S
H1036 C1042 0.930 . S
H1037 C1046 0.930 . S
H1038 C1051 0.929 . S
H1039 C1049 0.929 . S
H1040 C1044 0.929 . S
H1041 C1050 0.929 . S
C1042 H1036 0.930 . S
C1042 C1043 1.367 . S
C1042 C1050 1.378 . S
C1043 C1042 1.367 . S
C1043 C1051 1.433 . S
C1044 H1040 0.929 . S
C1044 C1046 1.378 . S
C1044 C1048 1.350 . S
C1045 C1048 1.463 . S
C1045 C1050 1.350 . S
C1045 N1053 1.427 . S
C1046 H1037 0.930 . S
C1046 C1044 1.378 . S
C1046 C1047 1.367 . S
C1047 C1046 1.367 . S
C1047 C1049 1.433 . S
C1048 C1044 1.350 . S
C1048 C1045 1.463 . S
C1048 N1052 1.427 . S
C1049 H1039 0.929 . S
C1049 C1047 1.433 . S
C1049 N1052 1.384 . S
C1050 H1041 0.929 . S
C1050 C1042 1.378 . S
C1050 C1045 1.350 . S
C1051 H1038 0.929 . S
C1051 C1043 1.433 . S
C1051 N1053 1.384 . S
N1052 C1048 1.427 . S
N1052 C1049 1.384 . S
N1053 C1045 1.427 . S
N1053 C1051 1.384 . S
H1054 C1060 0.930 . S
H1055 C1064 0.930 . S
H1056 C1069 0.929 . S
H1057 C1067 0.929 . S
H1058 C1062 0.929 . S
H1059 C1068 0.929 . S
C1060 H1054 0.930 . S
C1060 C1061 1.367 . S
C1060 C1068 1.378 . S
C1061 C1060 1.367 . S
C1061 C1069 1.433 . S
C1062 H1058 0.929 . S
C1062 C1064 1.378 . S
C1062 C1066 1.350 . S
C1063 C1066 1.463 . S
C1063 C1068 1.350 . S
C1063 N1071 1.427 . S
C1064 H1055 0.930 . S
C1064 C1062 1.378 . S
C1064 C1065 1.367 . S
C1065 C1064 1.367 . S
C1065 C1067 1.433 . S
C1066 C1062 1.350 . S
C1066 C1063 1.463 . S
C1066 N1070 1.427 . S
C1067 H1057 0.929 . S
C1067 C1065 1.433 . S
C1067 N1070 1.384 . S
C1068 H1059 0.929 . S
C1068 C1060 1.378 . S
C1068 C1063 1.350 . S
C1069 H1056 0.929 . S
C1069 C1061 1.433 . S
C1069 N1071 1.384 . S
N1070 C1066 1.427 . S
N1070 C1067 1.384 . S
N1071 C1063 1.427 . S
N1071 C1069 1.384 . S
H1072 C1078 0.930 . S
H1073 C1082 0.930 . S
H1074 C1087 0.929 . S
H1075 C1085 0.929 . S
H1076 C1080 0.929 . S
H1077 C1086 0.929 . S
C1078 H1072 0.930 . S
C1078 C1079 1.367 . S
C1078 C1086 1.378 . S
C1079 C1078 1.367 . S
C1079 C1087 1.433 . S
C1080 H1076 0.929 . S
C1080 C1082 1.378 . S
C1080 C1084 1.350 . S
C1081 C1084 1.463 . S
C1081 C1086 1.350 . S
C1081 N1089 1.427 . S
C1082 H1073 0.930 . S
C1082 C1080 1.378 . S
C1082 C1083 1.367 . S
C1083 C1082 1.367 . S
C1083 C1085 1.433 . S
C1084 C1080 1.350 . S
C1084 C1081 1.463 . S
C1084 N1088 1.427 . S
C1085 H1075 0.929 . S
C1085 C1083 1.433 . S
C1085 N1088 1.384 . S
C1086 H1077 0.929 . S
C1086 C1078 1.378 . S
C1086 C1081 1.350 . S
C1087 H1074 0.929 . S
C1087 C1079 1.433 . S
C1087 N1089 1.384 . S
N1088 C1084 1.427 . S
N1088 C1085 1.384 . S
N1089 C1081 1.427 . S
N1089 C1087 1.384 . S
H1090 C1096 0.930 . S
H1091 C1100 0.930 . S
H1092 C1105 0.929 . S
H1093 C1103 0.929 . S
H1094 C1098 0.929 . S
H1095 C1104 0.929 . S
C1096 H1090 0.930 . S
C1096 C1097 1.367 . S
C1096 C1104 1.378 . S
C1097 C1096 1.367 . S
C1097 C1105 1.433 . S
C1098 H1094 0.929 . S
C1098 C1100 1.378 . S
C1098 C1102 1.350 . S
C1099 C1102 1.463 . S
C1099 C1104 1.350 . S
C1099 N1107 1.427 . S
C1100 H1091 0.930 . S
C1100 C1098 1.378 . S
C1100 C1101 1.367 . S
C1101 C1100 1.367 . S
C1101 C1103 1.433 . S
C1102 C1098 1.350 . S
C1102 C1099 1.463 . S
C1102 N1106 1.427 . S
C1103 H1093 0.929 . S
C1103 C1101 1.433 . S
C1103 N1106 1.384 . S
C1104 H1095 0.929 . S
C1104 C1096 1.378 . S
C1104 C1099 1.350 . S
C1105 H1092 0.929 . S
C1105 C1097 1.433 . S
C1105 N1107 1.384 . S
N1106 C1102 1.427 . S
N1106 C1103 1.384 . S
N1107 C1099 1.427 . S
N1107 C1105 1.384 . S
H1108 C1114 0.930 . S
H1109 C1118 0.930 . S
H1110 C1123 0.929 . S
H1111 C1121 0.929 . S
H1112 C1116 0.929 . S
H1113 C1122 0.929 . S
C1114 H1108 0.930 . S
C1114 C1115 1.367 . S
C1114 C1122 1.378 . S
C1115 C1114 1.367 . S
C1115 C1123 1.433 . S
C1116 H1112 0.929 . S
C1116 C1118 1.378 . S
C1116 C1120 1.350 . S
C1117 C1120 1.463 . S
C1117 C1122 1.350 . S
C1117 N1125 1.427 . S
C1118 H1109 0.930 . S
C1118 C1116 1.378 . S
C1118 C1119 1.367 . S
C1119 C1118 1.367 . S
C1119 C1121 1.433 . S
C1120 C1116 1.350 . S
C1120 C1117 1.463 . S
C1120 N1124 1.427 . S
C1121 H1111 0.929 . S
C1121 C1119 1.433 . S
C1121 N1124 1.384 . S
C1122 H1113 0.929 . S
C1122 C1114 1.378 . S
C1122 C1117 1.350 . S
C1123 H1110 0.929 . S
C1123 C1115 1.433 . S
C1123 N1125 1.384 . S
N1124 C1120 1.427 . S
N1124 C1121 1.384 . S
N1125 C1117 1.427 . S
N1125 C1123 1.384 . S
H1126 C1132 0.930 . S
H1127 C1136 0.930 . S
H1128 C1141 0.929 . S
H1129 C1139 0.929 . S
H1130 C1134 0.929 . S
H1131 C1140 0.929 . S
C1132 H1126 0.930 . S
C1132 C1133 1.367 . S
C1132 C1140 1.378 1_455 S
C1133 C1132 1.367 . S
C1133 C1141 1.433 1_455 S
C1134 H1130 0.929 . S
C1134 C1136 1.378 . S
C1134 C1138 1.350 . S
C1135 C1138 1.463 . S
C1135 C1140 1.350 . S
C1135 N1143 1.427 . S
C1136 H1127 0.930 . S
C1136 C1134 1.378 . S
C1136 C1137 1.367 . S
C1137 C1136 1.367 . S
C1137 C1139 1.433 . S
C1138 C1134 1.350 . S
C1138 C1135 1.463 . S
C1138 N1142 1.427 . S
C1139 H1129 0.929 . S
C1139 C1137 1.433 . S
C1139 N1142 1.384 . S
C1140 H1131 0.929 . S
C1140 C1132 1.378 1_655 S
C1140 C1135 1.350 . S
C1141 H1128 0.929 . S
C1141 C1133 1.433 1_655 S
C1141 N1143 1.384 . S
N1142 C1138 1.427 . S
N1142 C1139 1.384 . S
N1143 C1135 1.427 . S
N1143 C1141 1.384 . S
H1144 C1150 0.930 . S
H1145 C1154 0.930 . S
H1146 C1159 0.929 . S
H1147 C1157 0.929 . S
H1148 C1152 0.929 . S
H1149 C1158 0.929 . S
C1150 H1144 0.930 . S
C1150 C1151 1.367 . S
C1150 C1158 1.378 . S
C1151 C1150 1.367 . S
C1151 C1159 1.433 . S
C1152 H1148 0.929 . S
C1152 C1154 1.378 . S
C1152 C1156 1.350 . S
C1153 C1156 1.463 . S
C1153 C1158 1.350 . S
C1153 N1161 1.427 . S
C1154 H1145 0.930 . S
C1154 C1152 1.378 . S
C1154 C1155 1.367 . S
C1155 C1154 1.367 . S
C1155 C1157 1.433 . S
C1156 C1152 1.350 . S
C1156 C1153 1.463 . S
C1156 N1160 1.427 . S
C1157 H1147 0.929 . S
C1157 C1155 1.433 . S
C1157 N1160 1.384 . S
C1158 H1149 0.929 . S
C1158 C1150 1.378 . S
C1158 C1153 1.350 . S
C1159 H1146 0.929 . S
C1159 C1151 1.433 . S
C1159 N1161 1.384 . S
N1160 C1156 1.427 . S
N1160 C1157 1.384 . S
N1161 C1153 1.427 . S
N1161 C1159 1.384 . S
H1162 C1168 0.930 . S
H1163 C1172 0.930 . S
H1164 C1177 0.929 . S
H1165 C1175 0.929 . S
H1166 C1170 0.929 . S
H1167 C1176 0.929 . S
C1168 H1162 0.930 . S
C1168 C1169 1.367 . S
C1168 C1176 1.378 . S
C1169 C1168 1.367 . S
C1169 C1177 1.433 . S
C1170 H1166 0.929 . S
C1170 C1172 1.378 . S
C1170 C1174 1.350 . S
C1171 C1174 1.463 . S
C1171 C1176 1.350 . S
C1171 N1179 1.427 . S
C1172 H1163 0.930 . S
C1172 C1170 1.378 . S
C1172 C1173 1.367 1_655 S
C1173 C1172 1.367 1_455 S
C1173 C1175 1.433 . S
C1174 C1170 1.350 . S
C1174 C1171 1.463 . S
C1174 N1178 1.427 . S
C1175 H1165 0.929 . S
C1175 C1173 1.433 . S
C1175 N1178 1.384 1_455 S
C1176 H1167 0.929 . S
C1176 C1168 1.378 . S
C1176 C1171 1.350 . S
C1177 H1164 0.929 . S
C1177 C1169 1.433 . S
C1177 N1179 1.384 . S
N1178 C1174 1.427 . S
N1178 C1175 1.384 1_655 S
N1179 C1171 1.427 . S
N1179 C1177 1.384 . S
H1180 C1186 0.930 . S
H1181 C1190 0.930 . S
H1182 C1195 0.929 . S
H1183 C1193 0.929 . S
H1184 C1188 0.929 . S
H1185 C1194 0.929 . S
C1186 H1180 0.930 . S
C1186 C1187 1.367 . S
C1186 C1194 1.378 . S
C1187 C1186 1.367 . S
C1187 C1195 1.433 . S
C1188 H1184 0.929 . S
C1188 C1190 1.378 . S
C1188 C1192 1.350 . S
C1189 C1192 1.463 . S
C1189 C1194 1.350 . S
C1189 N1197 1.427 . S
C1190 H1181 0.930 . S
C1190 C1188 1.378 . S
C1190 C1191 1.367 . S
C1191 C1190 1.367 . S
C1191 C1193 1.433 . S
C1192 C1188 1.350 . S
C1192 C1189 1.463 . S
C1192 N1196 1.427 . S
C1193 H1183 0.929 . S
C1193 C1191 1.433 . S
C1193 N1196 1.384 . S
C1194 H1185 0.929 . S
C1194 C1186 1.378 . S
C1194 C1189 1.350 . S
C1195 H1182 0.929 . S
C1195 C1187 1.433 . S
C1195 N1197 1.384 . S
N1196 C1192 1.427 . S
N1196 C1193 1.384 . S
N1197 C1189 1.427 . S
N1197 C1195 1.384 . S
H1198 C1204 0.930 . S
H1199 C1208 0.930 . S
H1200 C1213 0.929 . S
H1201 C1211 0.929 . S
H1202 C1206 0.929 . S
H1203 C1212 0.929 . S
C1204 H1198 0.930 . S
C1204 C1205 1.367 . S
C1204 C1212 1.378 . S
C1205 C1204 1.367 . S
C1205 C1213 1.433 . S
C1206 H1202 0.929 . S
C1206 C1208 1.378 . S
C1206 C1210 1.350 . S
C1207 C1210 1.463 . S
C1207 C1212 1.350 . S
C1207 N1215 1.427 . S
C1208 H1199 0.930 . S
C1208 C1206 1.378 . S
C1208 C1209 1.367 . S
C1209 C1208 1.367 . S
C1209 C1211 1.433 . S
C1210 C1206 1.350 . S
C1210 C1207 1.463 . S
C1210 N1214 1.427 . S
C1211 H1201 0.929 . S
C1211 C1209 1.433 . S
C1211 N1214 1.384 . S
C1212 H1203 0.929 . S
C1212 C1204 1.378 . S
C1212 C1207 1.350 . S
C1213 H1200 0.929 . S
C1213 C1205 1.433 . S
C1213 N1215 1.384 . S
N1214 C1210 1.427 . S
N1214 C1211 1.384 . S
N1215 C1207 1.427 . S
N1215 C1213 1.384 . S
H1216 C1222 0.930 . S
H1217 C1226 0.930 . S
H1218 C1231 0.929 . S
H1219 C1229 0.929 . S
H1220 C1224 0.929 . S
H1221 C1230 0.929 . S
C1222 H1216 0.930 . S
C1222 C1223 1.367 . S
C1222 C1230 1.378 . S
C1223 C1222 1.367 . S
C1223 C1231 1.433 . S
C1224 H1220 0.929 . S
C1224 C1226 1.378 . S
C1224 C1228 1.350 . S
C1225 C1228 1.463 1_455 S
C1225 C1230 1.350 . S
C1225 N1233 1.427 . S
C1226 H1217 0.930 . S
C1226 C1224 1.378 . S
C1226 C1227 1.367 . S
C1227 C1226 1.367 . S
C1227 C1229 1.433 . S
C1228 C1224 1.350 . S
C1228 C1225 1.463 1_655 S
C1228 N1232 1.427 . S
C1229 H1219 0.929 . S
C1229 C1227 1.433 . S
C1229 N1232 1.384 . S
C1230 H1221 0.929 . S
C1230 C1222 1.378 . S
C1230 C1225 1.350 . S
C1231 H1218 0.929 . S
C1231 C1223 1.433 . S
C1231 N1233 1.384 . S
N1232 C1228 1.427 . S
N1232 C1229 1.384 . S
N1233 C1225 1.427 . S
N1233 C1231 1.384 . S
H1234 C1240 0.930 . S
H1235 C1244 0.930 . S
H1236 C1249 0.929 . S
H1237 C1247 0.929 . S
H1238 C1242 0.929 . S
H1239 C1248 0.929 . S
C1240 H1234 0.930 . S
C1240 C1241 1.367 . S
C1240 C1248 1.378 . S
C1241 C1240 1.367 . S
C1241 C1249 1.433 . S
C1242 H1238 0.929 . S
C1242 C1244 1.378 . S
C1242 C1246 1.350 . S
C1243 C1246 1.463 1_655 S
C1243 C1248 1.350 . S
C1243 N1251 1.427 . S
C1244 H1235 0.930 . S
C1244 C1242 1.378 . S
C1244 C1245 1.367 . S
C1245 C1244 1.367 . S
C1245 C1247 1.433 . S
C1246 C1242 1.350 . S
C1246 C1243 1.463 1_455 S
C1246 N1250 1.427 . S
C1247 H1237 0.929 . S
C1247 C1245 1.433 . S
C1247 N1250 1.384 . S
C1248 H1239 0.929 . S
C1248 C1240 1.378 . S
C1248 C1243 1.350 . S
C1249 H1236 0.929 . S
C1249 C1241 1.433 . S
C1249 N1251 1.384 . S
N1250 C1246 1.427 . S
N1250 C1247 1.384 . S
N1251 C1243 1.427 . S
N1251 C1249 1.384 . S
H1252 C1258 0.930 . S
H1253 C1262 0.930 . S
H1254 C1267 0.929 . S
H1255 C1265 0.929 . S
H1256 C1260 0.929 . S
H1257 C1266 0.929 . S
C1258 H1252 0.930 . S
C1258 C1259 1.367 . S
C1258 C1266 1.378 . S
C1259 C1258 1.367 . S
C1259 C1267 1.433 . S
C1260 H1256 0.929 . S
C1260 C1262 1.378 . S
C1260 C1264 1.350 . S
C1261 C1264 1.463 . S
C1261 C1266 1.350 . S
C1261 N1269 1.427 . S
C1262 H1253 0.930 . S
C1262 C1260 1.378 . S
C1262 C1263 1.367 . S
C1263 C1262 1.367 . S
C1263 C1265 1.433 . S
C1264 C1260 1.350 . S
C1264 C1261 1.463 . S
C1264 N1268 1.427 . S
C1265 H1255 0.929 . S
C1265 C1263 1.433 . S
C1265 N1268 1.384 . S
C1266 H1257 0.929 . S
C1266 C1258 1.378 . S
C1266 C1261 1.350 . S
C1267 H1254 0.929 . S
C1267 C1259 1.433 . S
C1267 N1269 1.384 . S
N1268 C1264 1.427 . S
N1268 C1265 1.384 . S
N1269 C1261 1.427 . S
N1269 C1267 1.384 . S
H1270 C1276 0.930 . S
H1271 C1280 0.930 . S
H1272 C1285 0.929 . S
H1273 C1283 0.929 . S
H1274 C1278 0.929 . S
H1275 C1284 0.929 . S
C1276 H1270 0.930 . S
C1276 C1277 1.367 . S
C1276 C1284 1.378 . S
C1277 C1276 1.367 . S
C1277 C1285 1.433 . S
C1278 H1274 0.929 . S
C1278 C1280 1.378 . S
C1278 C1282 1.350 . S
C1279 C1282 1.463 . S
C1279 C1284 1.350 . S
C1279 N1287 1.427 . S
C1280 H1271 0.930 . S
C1280 C1278 1.378 . S
C1280 C1281 1.367 . S
C1281 C1280 1.367 . S
C1281 C1283 1.433 . S
C1282 C1278 1.350 . S
C1282 C1279 1.463 . S
C1282 N1286 1.427 . S
C1283 H1273 0.929 . S
C1283 C1281 1.433 . S
C1283 N1286 1.384 . S
C1284 H1275 0.929 . S
C1284 C1276 1.378 . S
C1284 C1279 1.350 . S
C1285 H1272 0.929 . S
C1285 C1277 1.433 . S
C1285 N1287 1.384 . S
N1286 C1282 1.427 . S
N1286 C1283 1.384 . S
N1287 C1279 1.427 . S
N1287 C1285 1.384 . S
H1288 C1294 0.930 . S
H1289 C1298 0.930 . S
H1290 C1303 0.929 . S
H1291 C1301 0.929 . S
H1292 C1296 0.929 . S
H1293 C1302 0.929 . S
C1294 H1288 0.930 . S
C1294 C1295 1.367 . S
C1294 C1302 1.378 . S
C1295 C1294 1.367 . S
C1295 C1303 1.433 . S
C1296 H1292 0.929 . S
C1296 C1298 1.378 . S
C1296 C1300 1.350 . S
C1297 C1300 1.463 1_655 S
C1297 C1302 1.350 . S
C1297 N1305 1.427 . S
C1298 H1289 0.930 . S
C1298 C1296 1.378 . S
C1298 C1299 1.367 . S
C1299 C1298 1.367 . S
C1299 C1301 1.433 . S
C1300 C1296 1.350 . S
C1300 C1297 1.463 1_455 S
C1300 N1304 1.427 . S
C1301 H1291 0.929 . S
C1301 C1299 1.433 . S
C1301 N1304 1.384 . S
C1302 H1293 0.929 . S
C1302 C1294 1.378 . S
C1302 C1297 1.350 . S
C1303 H1290 0.929 . S
C1303 C1295 1.433 . S
C1303 N1305 1.384 . S
N1304 C1300 1.427 . S
N1304 C1301 1.384 . S
N1305 C1297 1.427 . S
N1305 C1303 1.384 . S
H1306 C1312 0.930 . S
H1307 C1316 0.930 . S
H1308 C1321 0.929 . S
H1309 C1319 0.929 . S
H1310 C1314 0.929 . S
H1311 C1320 0.929 . S
C1312 H1306 0.930 . S
C1312 C1313 1.367 . S
C1312 C1320 1.378 . S
C1313 C1312 1.367 . S
C1313 C1321 1.433 . S
C1314 H1310 0.929 . S
C1314 C1316 1.378 . S
C1314 C1318 1.350 . S
C1315 C1318 1.463 . S
C1315 C1320 1.350 . S
C1315 N1323 1.427 . S
C1316 H1307 0.930 . S
C1316 C1314 1.378 . S
C1316 C1317 1.367 . S
C1317 C1316 1.367 . S
C1317 C1319 1.433 . S
C1318 C1314 1.350 . S
C1318 C1315 1.463 . S
C1318 N1322 1.427 . S
C1319 H1309 0.929 . S
C1319 C1317 1.433 . S
C1319 N1322 1.384 . S
C1320 H1311 0.929 . S
C1320 C1312 1.378 . S
C1320 C1315 1.350 . S
C1321 H1308 0.929 . S
C1321 C1313 1.433 . S
C1321 N1323 1.384 . S
N1322 C1318 1.427 . S
N1322 C1319 1.384 . S
N1323 C1315 1.427 . S
N1323 C1321 1.384 . S
H1324 C1330 0.930 . S
H1325 C1334 0.930 . S
H1326 C1339 0.929 . S
H1327 C1337 0.929 . S
H1328 C1332 0.929 . S
H1329 C1338 0.929 . S
C1330 H1324 0.930 . S
C1330 C1331 1.367 . S
C1330 C1338 1.378 . S
C1331 C1330 1.367 . S
C1331 C1339 1.433 . S
C1332 H1328 0.929 . S
C1332 C1334 1.378 . S
C1332 C1336 1.350 . S
C1333 C1336 1.463 . S
C1333 C1338 1.350 . S
C1333 N1341 1.427 . S
C1334 H1325 0.930 . S
C1334 C1332 1.378 . S
C1334 C1335 1.367 . S
C1335 C1334 1.367 . S
C1335 C1337 1.433 . S
C1336 C1332 1.350 . S
C1336 C1333 1.463 . S
C1336 N1340 1.427 . S
C1337 H1327 0.929 . S
C1337 C1335 1.433 . S
C1337 N1340 1.384 . S
C1338 H1329 0.929 . S
C1338 C1330 1.378 . S
C1338 C1333 1.350 . S
C1339 H1326 0.929 . S
C1339 C1331 1.433 . S
C1339 N1341 1.384 . S
N1340 C1336 1.427 . S
N1340 C1337 1.384 . S
N1341 C1333 1.427 . S
N1341 C1339 1.384 . S
H1342 C1348 0.930 1_655 S
H1343 C1352 0.930 1_455 S
H1344 C1357 0.929 . S
H1345 C1355 0.929 . S
H1346 C1350 0.929 . S
H1347 C1356 0.929 . S
C1348 H1342 0.930 1_455 S
C1348 C1349 1.367 . S
C1348 C1356 1.378 1_455 S
C1349 C1348 1.367 . S
C1349 C1357 1.433 . S
C1350 H1346 0.929 . S
C1350 C1352 1.378 1_455 S
C1350 C1354 1.350 1_455 S
C1351 C1354 1.463 1_455 S
C1351 C1356 1.350 1_455 S
C1351 N1359 1.427 . S
C1352 H1343 0.930 1_655 S
C1352 C1350 1.378 1_655 S
C1352 C1353 1.367 . S
C1353 C1352 1.367 . S
C1353 C1355 1.433 . S
C1354 C1350 1.350 1_655 S
C1354 C1351 1.463 1_655 S
C1354 N1358 1.427 . S
C1355 H1345 0.929 . S
C1355 C1353 1.433 . S
C1355 N1358 1.384 . S
C1356 H1347 0.929 . S
C1356 C1348 1.378 1_655 S
C1356 C1351 1.350 1_655 S
C1357 H1344 0.929 . S
C1357 C1349 1.433 . S
C1357 N1359 1.384 . S
N1358 C1354 1.427 . S
N1358 C1355 1.384 . S
N1359 C1351 1.427 . S
N1359 C1357 1.384 . S
H1360 C1366 0.930 . S
H1361 C1370 0.930 . S
H1362 C1375 0.929 . S
H1363 C1373 0.929 . S
H1364 C1368 0.929 . S
H1365 C1374 0.929 . S
C1366 H1360 0.930 . S
C1366 C1367 1.367 . S
C1366 C1374 1.378 . S
C1367 C1366 1.367 . S
C1367 C1375 1.433 . S
C1368 H1364 0.929 . S
C1368 C1370 1.378 . S
C1368 C1372 1.350 . S
C1369 C1372 1.463 1_455 S
C1369 C1374 1.350 . S
C1369 N1377 1.427 . S
C1370 H1361 0.930 . S
C1370 C1368 1.378 . S
C1370 C1371 1.367 . S
C1371 C1370 1.367 . S
C1371 C1373 1.433 . S
C1372 C1368 1.350 . S
C1372 C1369 1.463 1_655 S
C1372 N1376 1.427 . S
C1373 H1363 0.929 . S
C1373 C1371 1.433 . S
C1373 N1376 1.384 . S
C1374 H1365 0.929 . S
C1374 C1366 1.378 . S
C1374 C1369 1.350 . S
C1375 H1362 0.929 . S
C1375 C1367 1.433 . S
C1375 N1377 1.384 . S
N1376 C1372 1.427 . S
N1376 C1373 1.384 . S
N1377 C1369 1.427 . S
N1377 C1375 1.384 . S
H1378 C1384 0.930 . S
H1379 C1388 0.930 . S
H1380 C1393 0.929 . S
H1381 C1391 0.929 . S
H1382 C1386 0.929 1_655 S
H1383 C1392 0.929 1_455 S
C1384 H1378 0.930 . S
C1384 C1385 1.367 . S
C1384 C1392 1.378 . S
C1385 C1384 1.367 . S
C1385 C1393 1.433 . S
C1386 H1382 0.929 1_455 S
C1386 C1388 1.378 . S
C1386 C1390 1.350 . S
C1387 C1390 1.463 1_655 S
C1387 C1392 1.350 . S
C1387 N1395 1.427 . S
C1388 H1379 0.930 . S
C1388 C1386 1.378 . S
C1388 C1389 1.367 . S
C1389 C1388 1.367 . S
C1389 C1391 1.433 . S
C1390 C1386 1.350 . S
C1390 C1387 1.463 1_455 S
C1390 N1394 1.427 . S
C1391 H1381 0.929 . S
C1391 C1389 1.433 . S
C1391 N1394 1.384 . S
C1392 H1383 0.929 1_655 S
C1392 C1384 1.378 . S
C1392 C1387 1.350 . S
C1393 H1380 0.929 . S
C1393 C1385 1.433 . S
C1393 N1395 1.384 . S
N1394 C1390 1.427 . S
N1394 C1391 1.384 . S
N1395 C1387 1.427 . S
N1395 C1393 1.384 . S
H1396 C1402 0.930 . S
H1397 C1406 0.930 . S
H1398 C1411 0.929 . S
H1399 C1409 0.929 . S
H1400 C1404 0.929 . S
H1401 C1410 0.929 . S
C1402 H1396 0.930 . S
C1402 C1403 1.367 . S
C1402 C1410 1.378 . S
C1403 C1402 1.367 . S
C1403 C1411 1.433 . S
C1404 H1400 0.929 . S
C1404 C1406 1.378 . S
C1404 C1408 1.350 . S
C1405 C1408 1.463 . S
C1405 C1410 1.350 . S
C1405 N1413 1.427 . S
C1406 H1397 0.930 . S
C1406 C1404 1.378 . S
C1406 C1407 1.367 . S
C1407 C1406 1.367 . S
C1407 C1409 1.433 . S
C1408 C1404 1.350 . S
C1408 C1405 1.463 . S
C1408 N1412 1.427 . S
C1409 H1399 0.929 . S
C1409 C1407 1.433 . S
C1409 N1412 1.384 . S
C1410 H1401 0.929 . S
C1410 C1402 1.378 . S
C1410 C1405 1.350 . S
C1411 H1398 0.929 . S
C1411 C1403 1.433 . S
C1411 N1413 1.384 . S
N1412 C1408 1.427 . S
N1412 C1409 1.384 . S
N1413 C1405 1.427 . S
N1413 C1411 1.384 . S
H1414 C1420 0.930 . S
H1415 C1424 0.930 . S
H1416 C1429 0.929 . S
H1417 C1427 0.929 . S
H1418 C1422 0.929 . S
H1419 C1428 0.929 . S
C1420 H1414 0.930 . S
C1420 C1421 1.367 . S
C1420 C1428 1.378 . S
C1421 C1420 1.367 . S
C1421 C1429 1.433 . S
C1422 H1418 0.929 . S
C1422 C1424 1.378 . S
C1422 C1426 1.350 . S
C1423 C1426 1.463 . S
C1423 C1428 1.350 . S
C1423 N1431 1.427 . S
C1424 H1415 0.930 . S
C1424 C1422 1.378 . S
C1424 C1425 1.367 . S
C1425 C1424 1.367 . S
C1425 C1427 1.433 . S
C1426 C1422 1.350 . S
C1426 C1423 1.463 . S
C1426 N1430 1.427 . S
C1427 H1417 0.929 . S
C1427 C1425 1.433 . S
C1427 N1430 1.384 . S
C1428 H1419 0.929 . S
C1428 C1420 1.378 . S
C1428 C1423 1.350 . S
C1429 H1416 0.929 . S
C1429 C1421 1.433 . S
C1429 N1431 1.384 . S
N1430 C1426 1.427 . S
N1430 C1427 1.384 . S
N1431 C1423 1.427 . S
N1431 C1429 1.384 . S
H1432 C1438 0.930 . S
H1433 C1442 0.930 . S
H1434 C1447 0.929 . S
H1435 C1445 0.929 . S
H1436 C1440 0.929 . S
H1437 C1446 0.929 . S
C1438 H1432 0.930 . S
C1438 C1439 1.367 . S
C1438 C1446 1.378 . S
C1439 C1438 1.367 . S
C1439 C1447 1.433 . S
C1440 H1436 0.929 . S
C1440 C1442 1.378 . S
C1440 C1444 1.350 . S
C1441 C1444 1.463 1_455 S
C1441 C1446 1.350 . S
C1441 N1449 1.427 . S
C1442 H1433 0.930 . S
C1442 C1440 1.378 . S
C1442 C1443 1.367 . S
C1443 C1442 1.367 . S
C1443 C1445 1.433 . S
C1444 C1440 1.350 . S
C1444 C1441 1.463 1_655 S
C1444 N1448 1.427 . S
C1445 H1435 0.929 . S
C1445 C1443 1.433 . S
C1445 N1448 1.384 . S
C1446 H1437 0.929 . S
C1446 C1438 1.378 . S
C1446 C1441 1.350 . S
C1447 H1434 0.929 . S
C1447 C1439 1.433 . S
C1447 N1449 1.384 . S
N1448 C1444 1.427 . S
N1448 C1445 1.384 . S
N1449 C1441 1.427 . S
N1449 C1447 1.384 . S
H1450 C1456 0.930 . S
H1451 C1460 0.930 . S
H1452 C1465 0.929 . S
H1453 C1463 0.929 . S
H1454 C1458 0.929 . S
H1455 C1464 0.929 . S
C1456 H1450 0.930 . S
C1456 C1457 1.367 . S
C1456 C1464 1.378 . S
C1457 C1456 1.367 . S
C1457 C1465 1.433 . S
C1458 H1454 0.929 . S
C1458 C1460 1.378 . S
C1458 C1462 1.350 . S
C1459 C1462 1.463 . S
C1459 C1464 1.350 . S
C1459 N1467 1.427 . S
C1460 H1451 0.930 . S
C1460 C1458 1.378 . S
C1460 C1461 1.367 . S
C1461 C1460 1.367 . S
C1461 C1463 1.433 . S
C1462 C1458 1.350 . S
C1462 C1459 1.463 . S
C1462 N1466 1.427 . S
C1463 H1453 0.929 . S
C1463 C1461 1.433 . S
C1463 N1466 1.384 . S
C1464 H1455 0.929 . S
C1464 C1456 1.378 . S
C1464 C1459 1.350 . S
C1465 H1452 0.929 . S
C1465 C1457 1.433 . S
C1465 N1467 1.384 . S
N1466 C1462 1.427 . S
N1466 C1463 1.384 . S
N1467 C1459 1.427 . S
N1467 C1465 1.384 . S
H1468 C1474 0.930 . S
H1469 C1478 0.930 . S
H1470 C1483 0.929 . S
H1471 C1481 0.929 . S
H1472 C1476 0.929 . S
H1473 C1482 0.929 . S
C1474 H1468 0.930 . S
C1474 C1475 1.367 . S
C1474 C1482 1.378 . S
C1475 C1474 1.367 . S
C1475 C1483 1.433 . S
C1476 H1472 0.929 . S
C1476 C1478 1.378 . S
C1476 C1480 1.350 . S
C1477 C1480 1.463 . S
C1477 C1482 1.350 . S
C1477 N1485 1.427 . S
C1478 H1469 0.930 . S
C1478 C1476 1.378 . S
C1478 C1479 1.367 . S
C1479 C1478 1.367 . S
C1479 C1481 1.433 . S
C1480 C1476 1.350 . S
C1480 C1477 1.463 . S
C1480 N1484 1.427 . S
C1481 H1471 0.929 . S
C1481 C1479 1.433 . S
C1481 N1484 1.384 . S
C1482 H1473 0.929 . S
C1482 C1474 1.378 . S
C1482 C1477 1.350 . S
C1483 H1470 0.929 . S
C1483 C1475 1.433 . S
C1483 N1485 1.384 . S
N1484 C1480 1.427 . S
N1484 C1481 1.384 . S
N1485 C1477 1.427 . S
N1485 C1483 1.384 . S
H1486 C1492 0.930 . S
H1487 C1496 0.930 . S
H1488 C1501 0.929 . S
H1489 C1499 0.929 . S
H1490 C1494 0.929 . S
H1491 C1500 0.929 . S
C1492 H1486 0.930 . S
C1492 C1493 1.367 . S
C1492 C1500 1.378 . S
C1493 C1492 1.367 . S
C1493 C1501 1.433 . S
C1494 H1490 0.929 . S
C1494 C1496 1.378 . S
C1494 C1498 1.350 . S
C1495 C1498 1.463 1_655 S
C1495 C1500 1.350 . S
C1495 N1503 1.421 1_655 S
C1496 H1487 0.930 . S
C1496 C1494 1.378 . S
C1496 C1497 1.367 . S
C1497 C1496 1.367 . S
C1497 C1499 1.433 . S
C1498 C1494 1.350 . S
C1498 C1495 1.463 1_455 S
C1498 N1502 1.421 1_455 S
C1499 H1489 0.929 . S
C1499 C1497 1.433 . S
C1499 N1502 1.373 1_455 S
C1500 H1491 0.929 . S
C1500 C1492 1.378 . S
C1500 C1495 1.350 . S
C1501 H1488 0.929 . S
C1501 C1493 1.433 . S
C1501 N1503 1.372 1_655 S
N1502 C1498 1.421 1_655 S
N1502 C1499 1.373 1_655 S
N1503 C1495 1.421 1_455 S
N1503 C1501 1.372 1_455 S
H1504 C1510 0.930 . S
H1505 C1514 0.930 . S
H1506 C1519 0.929 . S
H1507 C1517 0.929 . S
H1508 C1512 0.929 . S
H1509 C1518 0.929 . S
C1510 H1504 0.930 . S
C1510 C1511 1.367 . S
C1510 C1518 1.378 . S
C1511 C1510 1.367 . S
C1511 C1519 1.433 . S
C1512 H1508 0.929 . S
C1512 C1514 1.378 . S
C1512 C1516 1.350 . S
C1513 C1516 1.463 . S
C1513 C1518 1.350 . S
C1513 N1521 1.427 . S
C1514 H1505 0.930 . S
C1514 C1512 1.378 . S
C1514 C1515 1.367 . S
C1515 C1514 1.367 . S
C1515 C1517 1.433 . S
C1516 C1512 1.350 . S
C1516 C1513 1.463 . S
C1516 N1520 1.427 . S
C1517 H1507 0.929 . S
C1517 C1515 1.433 . S
C1517 N1520 1.384 . S
C1518 H1509 0.929 . S
C1518 C1510 1.378 . S
C1518 C1513 1.350 . S
C1519 H1506 0.929 . S
C1519 C1511 1.433 . S
C1519 N1521 1.384 . S
N1520 C1516 1.427 . S
N1520 C1517 1.384 . S
N1521 C1513 1.427 . S
N1521 C1519 1.384 . S
H1522 C1528 0.930 . S
H1523 C1532 0.930 . S
H1524 C1537 0.929 . S
H1525 C1535 0.929 . S
H1526 C1530 0.929 . S
H1527 C1536 0.929 . S
C1528 H1522 0.930 . S
C1528 C1529 1.367 1_565 S
C1528 C1536 1.378 1_655 S
C1529 C1528 1.367 1_545 S
C1529 C1537 1.433 . S
C1530 H1526 0.929 . S
C1530 C1532 1.378 1_655 S
C1530 C1534 1.350 1_645 S
C1531 C1534 1.463 1_645 S
C1531 C1536 1.350 1_645 S
C1531 N1539 1.427 . S
C1532 H1523 0.930 . S
C1532 C1530 1.378 1_455 S
C1532 C1533 1.367 1_545 S
C1533 C1532 1.367 1_565 S
C1533 C1535 1.433 . S
C1534 C1530 1.350 1_465 S
C1534 C1531 1.463 1_465 S
C1534 N1538 1.427 . S
C1535 H1525 0.929 . S
C1535 C1533 1.433 . S
C1535 N1538 1.384 . S
C1536 H1527 0.929 . S
C1536 C1528 1.378 1_455 S
C1536 C1531 1.350 1_465 S
C1537 H1524 0.929 . S
C1537 C1529 1.433 . S
C1537 N1539 1.384 . S
N1538 C1534 1.427 . S
N1538 C1535 1.384 . S
N1539 C1531 1.427 . S
N1539 C1537 1.384 . S
H1540 C1546 0.930 . S
H1541 C1550 0.930 . S
H1542 C1555 0.929 . S
H1543 C1553 0.929 . S
H1544 C1548 0.929 . S
H1545 C1554 0.929 . S
C1546 H1540 0.930 . S
C1546 C1547 1.367 . S
C1546 C1554 1.378 . S
C1547 C1546 1.367 . S
C1547 C1555 1.433 . S
C1548 H1544 0.929 . S
C1548 C1550 1.378 . S
C1548 C1552 1.350 . S
C1549 C1552 1.463 . S
C1549 C1554 1.350 . S
C1549 N1557 1.427 . S
C1550 H1541 0.930 . S
C1550 C1548 1.378 . S
C1550 C1551 1.367 . S
C1551 C1550 1.367 . S
C1551 C1553 1.433 . S
C1552 C1548 1.350 . S
C1552 C1549 1.463 . S
C1552 N1556 1.427 . S
C1553 H1543 0.929 . S
C1553 C1551 1.433 . S
C1553 N1556 1.384 . S
C1554 H1545 0.929 . S
C1554 C1546 1.378 . S
C1554 C1549 1.350 . S
C1555 H1542 0.929 . S
C1555 C1547 1.433 . S
C1555 N1557 1.384 . S
N1556 C1552 1.427 . S
N1556 C1553 1.384 . S
N1557 C1549 1.427 . S
N1557 C1555 1.384 . S
H1558 C1564 0.930 . S
H1559 C1568 0.930 . S
H1560 C1573 0.929 . S
H1561 C1571 0.929 . S
H1562 C1566 0.929 . S
H1563 C1572 0.929 . S
C1564 H1558 0.930 . S
C1564 C1565 1.367 . S
C1564 C1572 1.378 . S
C1565 C1564 1.367 . S
C1565 C1573 1.433 1_545 S
C1566 H1562 0.929 . S
C1566 C1568 1.378 . S
C1566 C1570 1.350 . S
C1567 C1570 1.463 1_544 S
C1567 C1572 1.350 . S
C1567 N1575 1.427 1_545 S
C1568 H1559 0.930 . S
C1568 C1566 1.378 . S
C1568 C1569 1.367 . S
C1569 C1568 1.367 . S
C1569 C1571 1.433 1_565 S
C1570 C1566 1.350 . S
C1570 C1567 1.463 1_566 S
C1570 N1574 1.427 1_565 S
C1571 H1561 0.929 . S
C1571 C1569 1.433 1_545 S
C1571 N1574 1.384 . S
C1572 H1563 0.929 . S
C1572 C1564 1.378 . S
C1572 C1567 1.350 . S
C1573 H1560 0.929 . S
C1573 C1565 1.433 1_565 S
C1573 N1575 1.384 . S
N1574 C1570 1.427 1_545 S
N1574 C1571 1.384 . S
N1575 C1567 1.427 1_565 S
N1575 C1573 1.384 . S
H1576 C1582 0.930 . S
H1577 C1586 0.930 . S
H1578 C1591 0.929 . S
H1579 C1589 0.929 . S
H1580 C1584 0.929 . S
H1581 C1590 0.929 . S
C1582 H1576 0.930 . S
C1582 C1583 1.367 . S
C1582 C1590 1.378 . S
C1583 C1582 1.367 . S
C1583 C1591 1.433 . S
C1584 H1580 0.929 . S
C1584 C1586 1.378 . S
C1584 C1588 1.350 . S
C1585 C1588 1.463 . S
C1585 C1590 1.350 . S
C1585 N1593 1.427 . S
C1586 H1577 0.930 . S
C1586 C1584 1.378 . S
C1586 C1587 1.367 . S
C1587 C1586 1.367 . S
C1587 C1589 1.433 . S
C1588 C1584 1.350 . S
C1588 C1585 1.463 . S
C1588 N1592 1.427 . S
C1589 H1579 0.929 . S
C1589 C1587 1.433 . S
C1589 N1592 1.384 . S
C1590 H1581 0.929 . S
C1590 C1582 1.378 . S
C1590 C1585 1.350 . S
C1591 H1578 0.929 . S
C1591 C1583 1.433 . S
C1591 N1593 1.384 . S
N1592 C1588 1.427 . S
N1592 C1589 1.384 . S
N1593 C1585 1.427 . S
N1593 C1591 1.384 . S
H1594 C1600 0.930 . S
H1595 C1604 0.930 . S
H1596 C1609 0.929 1_565 S
H1597 C1607 0.929 1_545 S
H1598 C1602 0.929 . S
H1599 C1608 0.929 . S
C1600 H1594 0.930 . S
C1600 C1601 1.367 . S
C1600 C1608 1.378 . S
C1601 C1600 1.367 . S
C1601 C1609 1.433 . S
C1602 H1598 0.929 . S
C1602 C1604 1.378 . S
C1602 C1606 1.350 . S
C1603 C1606 1.463 1_545 S
C1603 C1608 1.350 . S
C1603 N1611 1.427 1_545 S
C1604 H1595 0.930 . S
C1604 C1602 1.378 . S
C1604 C1605 1.367 . S
C1605 C1604 1.367 . S
C1605 C1607 1.433 . S
C1606 C1602 1.350 . S
C1606 C1603 1.463 1_565 S
C1606 N1610 1.427 1_565 S
C1607 H1597 0.929 1_565 S
C1607 C1605 1.433 . S
C1607 N1610 1.384 1_565 S
C1608 H1599 0.929 . S
C1608 C1600 1.378 . S
C1608 C1603 1.350 . S
C1609 H1596 0.929 1_545 S
C1609 C1601 1.433 . S
C1609 N1611 1.384 1_545 S
N1610 C1606 1.427 1_545 S
N1610 C1607 1.384 1_545 S
N1611 C1603 1.427 1_565 S
N1611 C1609 1.384 1_565 S
H1612 C1618 0.930 . S
H1613 C1622 0.930 . S
H1614 C1627 0.929 . S
H1615 C1625 0.929 . S
H1616 C1620 0.929 . S
H1617 C1626 0.929 . S
C1618 H1612 0.930 . S
C1618 C1619 1.367 . S
C1618 C1626 1.378 . S
C1619 C1618 1.367 . S
C1619 C1627 1.433 . S
C1620 H1616 0.929 . S
C1620 C1622 1.378 . S
C1620 C1624 1.350 . S
C1621 C1624 1.463 . S
C1621 C1626 1.350 . S
C1621 N1629 1.427 . S
C1622 H1613 0.930 . S
C1622 C1620 1.378 . S
C1622 C1623 1.367 . S
C1623 C1622 1.367 . S
C1623 C1625 1.433 . S
C1624 C1620 1.350 . S
C1624 C1621 1.463 . S
C1624 N1628 1.427 . S
C1625 H1615 0.929 . S
C1625 C1623 1.433 . S
C1625 N1628 1.384 . S
C1626 H1617 0.929 . S
C1626 C1618 1.378 . S
C1626 C1621 1.350 . S
C1627 H1614 0.929 . S
C1627 C1619 1.433 . S
C1627 N1629 1.384 . S
N1628 C1624 1.427 . S
N1628 C1625 1.384 . S
N1629 C1621 1.427 . S
N1629 C1627 1.384 . S
H1630 C1636 0.930 . S
H1631 C1640 0.930 . S
H1632 C1645 0.929 . S
H1633 C1643 0.929 . S
H1634 C1638 0.929 . S
H1635 C1644 0.929 . S
C1636 H1630 0.930 . S
C1636 C1637 1.367 . S
C1636 C1644 1.378 . S
C1637 C1636 1.367 . S
C1637 C1645 1.433 1_545 S
C1638 H1634 0.929 . S
C1638 C1640 1.378 . S
C1638 C1642 1.350 . S
C1639 C1642 1.463 1_446 S
C1639 C1644 1.350 . S
C1639 N1647 1.427 1_545 S
C1640 H1631 0.930 . S
C1640 C1638 1.378 . S
C1640 C1641 1.367 . S
C1641 C1640 1.367 . S
C1641 C1643 1.433 1_565 S
C1642 C1638 1.350 . S
C1642 C1639 1.463 1_664 S
C1642 N1646 1.427 1_565 S
C1643 H1633 0.929 . S
C1643 C1641 1.433 1_545 S
C1643 N1646 1.384 . S
C1644 H1635 0.929 . S
C1644 C1636 1.378 . S
C1644 C1639 1.350 . S
C1645 H1632 0.929 . S
C1645 C1637 1.433 1_565 S
C1645 N1647 1.384 . S
N1646 C1642 1.427 1_545 S
N1646 C1643 1.384 . S
N1647 C1639 1.427 1_565 S
N1647 C1645 1.384 . S
H1648 C1654 0.930 . S
H1649 C1658 0.930 . S
H1650 C1663 0.929 . S
H1651 C1661 0.929 . S
H1652 C1656 0.929 . S
H1653 C1662 0.929 . S
C1654 H1648 0.930 . S
C1654 C1655 1.367 . S
C1654 C1662 1.378 . S
C1655 C1654 1.367 . S
C1655 C1663 1.433 . S
C1656 H1652 0.929 . S
C1656 C1658 1.378 . S
C1656 C1660 1.350 . S
C1657 C1660 1.463 . S
C1657 C1662 1.350 . S
C1657 N1665 1.427 . S
C1658 H1649 0.930 . S
C1658 C1656 1.378 . S
C1658 C1659 1.367 . S
C1659 C1658 1.367 . S
C1659 C1661 1.433 . S
C1660 C1656 1.350 . S
C1660 C1657 1.463 . S
C1660 N1664 1.427 . S
C1661 H1651 0.929 . S
C1661 C1659 1.433 . S
C1661 N1664 1.384 . S
C1662 H1653 0.929 . S
C1662 C1654 1.378 . S
C1662 C1657 1.350 . S
C1663 H1650 0.929 . S
C1663 C1655 1.433 . S
C1663 N1665 1.384 . S
N1664 C1660 1.427 . S
N1664 C1661 1.384 . S
N1665 C1657 1.427 . S
N1665 C1663 1.384 . S
H1666 C1672 0.930 . S
H1667 C1676 0.930 . S
H1668 C1681 0.929 . S
H1669 C1679 0.929 . S
H1670 C1674 0.929 . S
H1671 C1680 0.929 . S
C1672 H1666 0.930 . S
C1672 C1673 1.367 . S
C1672 C1680 1.378 . S
C1673 C1672 1.367 . S
C1673 C1681 1.433 . S
C1674 H1670 0.929 . S
C1674 C1676 1.378 . S
C1674 C1678 1.350 . S
C1675 C1678 1.463 . S
C1675 C1680 1.350 . S
C1675 N1683 1.427 . S
C1676 H1667 0.930 . S
C1676 C1674 1.378 . S
C1676 C1677 1.367 . S
C1677 C1676 1.367 . S
C1677 C1679 1.433 . S
C1678 C1674 1.350 . S
C1678 C1675 1.463 . S
C1678 N1682 1.427 . S
C1679 H1669 0.929 . S
C1679 C1677 1.433 . S
C1679 N1682 1.384 . S
C1680 H1671 0.929 . S
C1680 C1672 1.378 . S
C1680 C1675 1.350 . S
C1681 H1668 0.929 . S
C1681 C1673 1.433 . S
C1681 N1683 1.384 . S
N1682 C1678 1.427 . S
N1682 C1679 1.384 . S
N1683 C1675 1.427 . S
N1683 C1681 1.384 . S
H1684 C1690 0.930 . S
H1685 C1694 0.930 . S
H1686 C1699 0.929 . S
H1687 C1697 0.929 . S
H1688 C1692 0.929 . S
H1689 C1698 0.929 . S
C1690 H1684 0.930 . S
C1690 C1691 1.367 . S
C1690 C1698 1.378 . S
C1691 C1690 1.367 . S
C1691 C1699 1.433 . S
C1692 H1688 0.929 . S
C1692 C1694 1.378 . S
C1692 C1696 1.350 . S
C1693 C1696 1.463 . S
C1693 C1698 1.350 . S
C1693 N1701 1.427 . S
C1694 H1685 0.930 . S
C1694 C1692 1.378 . S
C1694 C1695 1.367 . S
C1695 C1694 1.367 . S
C1695 C1697 1.433 . S
C1696 C1692 1.350 . S
C1696 C1693 1.463 . S
C1696 N1700 1.427 . S
C1697 H1687 0.929 . S
C1697 C1695 1.433 . S
C1697 N1700 1.384 . S
C1698 H1689 0.929 . S
C1698 C1690 1.378 . S
C1698 C1693 1.350 . S
C1699 H1686 0.929 . S
C1699 C1691 1.433 . S
C1699 N1701 1.384 . S
N1700 C1696 1.427 . S
N1700 C1697 1.384 . S
N1701 C1693 1.427 . S
N1701 C1699 1.384 . S
H1702 C1708 0.930 . S
H1703 C1712 0.930 . S
H1704 C1717 0.929 . S
H1705 C1715 0.929 . S
H1706 C1710 0.929 . S
H1707 C1716 0.929 . S
C1708 H1702 0.930 . S
C1708 C1709 1.367 . S
C1708 C1716 1.378 . S
C1709 C1708 1.367 . S
C1709 C1717 1.433 . S
C1710 H1706 0.929 . S
C1710 C1712 1.378 . S
C1710 C1714 1.350 . S
C1711 C1714 1.463 . S
C1711 C1716 1.350 . S
C1711 N1719 1.427 . S
C1712 H1703 0.930 . S
C1712 C1710 1.378 . S
C1712 C1713 1.367 . S
C1713 C1712 1.367 . S
C1713 C1715 1.433 . S
C1714 C1710 1.350 . S
C1714 C1711 1.463 . S
C1714 N1718 1.427 . S
C1715 H1705 0.929 . S
C1715 C1713 1.433 . S
C1715 N1718 1.384 . S
C1716 H1707 0.929 . S
C1716 C1708 1.378 . S
C1716 C1711 1.350 . S
C1717 H1704 0.929 . S
C1717 C1709 1.433 . S
C1717 N1719 1.384 . S
N1718 C1714 1.427 . S
N1718 C1715 1.384 . S
N1719 C1711 1.427 . S
N1719 C1717 1.384 . S
H1720 C1726 0.930 . S
H1721 C1730 0.930 . S
H1722 C1735 0.929 . S
H1723 C1733 0.929 . S
H1724 C1728 0.929 . S
H1725 C1734 0.929 . S
C1726 H1720 0.930 . S
C1726 C1727 1.367 . S
C1726 C1734 1.378 . S
C1727 C1726 1.367 . S
C1727 C1735 1.433 . S
C1728 H1724 0.929 . S
C1728 C1730 1.378 . S
C1728 C1732 1.350 . S
C1729 C1732 1.463 1_554 S
C1729 C1734 1.350 . S
C1729 N1737 1.427 . S
C1730 H1721 0.930 . S
C1730 C1728 1.378 . S
C1730 C1731 1.367 . S
C1731 C1730 1.367 . S
C1731 C1733 1.433 . S
C1732 C1728 1.350 . S
C1732 C1729 1.463 1_556 S
C1732 N1736 1.427 . S
C1733 H1723 0.929 . S
C1733 C1731 1.433 . S
C1733 N1736 1.384 . S
C1734 H1725 0.929 . S
C1734 C1726 1.378 . S
C1734 C1729 1.350 . S
C1735 H1722 0.929 . S
C1735 C1727 1.433 . S
C1735 N1737 1.384 . S
N1736 C1732 1.427 . S
N1736 C1733 1.384 . S
N1737 C1729 1.427 . S
N1737 C1735 1.384 . S
H1738 C1744 0.930 . S
H1739 C1748 0.930 . S
H1740 C1753 0.929 . S
H1741 C1751 0.929 . S
H1742 C1746 0.929 . S
H1743 C1752 0.929 . S
C1744 H1738 0.930 . S
C1744 C1745 1.367 . S
C1744 C1752 1.378 . S
C1745 C1744 1.367 . S
C1745 C1753 1.433 . S
C1746 H1742 0.929 . S
C1746 C1748 1.378 . S
C1746 C1750 1.350 . S
C1747 C1750 1.463 1_655 S
C1747 C1752 1.350 . S
C1747 N1755 1.427 . S
C1748 H1739 0.930 . S
C1748 C1746 1.378 . S
C1748 C1749 1.367 . S
C1749 C1748 1.367 . S
C1749 C1751 1.433 . S
C1750 C1746 1.350 . S
C1750 C1747 1.463 1_455 S
C1750 N1754 1.427 . S
C1751 H1741 0.929 . S
C1751 C1749 1.433 . S
C1751 N1754 1.384 . S
C1752 H1743 0.929 . S
C1752 C1744 1.378 . S
C1752 C1747 1.350 . S
C1753 H1740 0.929 . S
C1753 C1745 1.433 . S
C1753 N1755 1.384 . S
N1754 C1750 1.427 . S
N1754 C1751 1.384 . S
N1755 C1747 1.427 . S
N1755 C1753 1.384 . S
H1756 C1762 0.930 . S
H1757 C1766 0.930 . S
H1758 C1771 0.929 . S
H1759 C1769 0.929 . S
H1760 C1764 0.929 . S
H1761 C1770 0.929 . S
C1762 H1756 0.930 . S
C1762 C1763 1.367 . S
C1762 C1770 1.378 1_455 S
C1763 C1762 1.367 . S
C1763 C1771 1.433 . S
C1764 H1760 0.929 . S
C1764 C1766 1.378 1_455 S
C1764 C1768 1.350 1_455 S
C1765 C1768 1.463 1_454 S
C1765 C1770 1.350 1_455 S
C1765 N1773 1.427 . S
C1766 H1757 0.930 . S
C1766 C1764 1.378 1_655 S
C1766 C1767 1.367 . S
C1767 C1766 1.367 . S
C1767 C1769 1.433 . S
C1768 C1764 1.350 1_655 S
C1768 C1765 1.463 1_656 S
C1768 N1772 1.427 . S
C1769 H1759 0.929 . S
C1769 C1767 1.433 . S
C1769 N1772 1.384 . S
C1770 H1761 0.929 . S
C1770 C1762 1.378 1_655 S
C1770 C1765 1.350 1_655 S
C1771 H1758 0.929 . S
C1771 C1763 1.433 . S
C1771 N1773 1.384 . S
N1772 C1768 1.427 . S
N1772 C1769 1.384 . S
N1773 C1765 1.427 . S
N1773 C1771 1.384 . S
H1774 C1780 0.930 . S
H1775 C1784 0.930 . S
H1776 C1789 0.929 . S
H1777 C1787 0.929 . S
H1778 C1782 0.929 . S
H1779 C1788 0.929 . S
C1780 H1774 0.930 . S
C1780 C1781 1.367 . S
C1780 C1788 1.378 . S
C1781 C1780 1.367 . S
C1781 C1789 1.433 . S
C1782 H1778 0.929 . S
C1782 C1784 1.378 . S
C1782 C1786 1.350 . S
C1783 C1786 1.463 . S
C1783 C1788 1.350 . S
C1783 N1791 1.427 . S
C1784 H1775 0.930 . S
C1784 C1782 1.378 . S
C1784 C1785 1.367 . S
C1785 C1784 1.367 . S
C1785 C1787 1.433 . S
C1786 C1782 1.350 . S
C1786 C1783 1.463 . S
C1786 N1790 1.427 . S
C1787 H1777 0.929 . S
C1787 C1785 1.433 . S
C1787 N1790 1.384 . S
C1788 H1779 0.929 . S
C1788 C1780 1.378 . S
C1788 C1783 1.350 . S
C1789 H1776 0.929 . S
C1789 C1781 1.433 . S
C1789 N1791 1.384 . S
N1790 C1786 1.427 . S
N1790 C1787 1.384 . S
N1791 C1783 1.427 . S
N1791 C1789 1.384 . S
H1792 C1798 0.930 . S
H1793 C1802 0.930 . S
H1794 C1807 0.929 . S
H1795 C1805 0.939 . S
H1796 C1800 0.929 . S
H1797 C1806 0.929 . S
C1798 H1792 0.930 . S
C1798 C1799 1.367 . S
C1798 C1806 1.378 . S
C1799 C1798 1.367 . S
C1799 C1807 1.433 . S
C1800 H1796 0.929 . S
C1800 C1802 1.378 . S
C1800 C1804 1.350 . S
C1801 C1804 1.463 . S
C1801 C1806 1.350 . S
C1801 N1809 1.427 . S
C1802 H1793 0.930 . S
C1802 C1800 1.378 . S
C1802 C1803 1.367 . S
C1803 C1802 1.367 . S
C1803 C1805 1.433 . S
C1804 C1800 1.350 . S
C1804 C1801 1.463 . S
C1804 N1808 1.427 . S
C1805 H1795 0.939 . S
C1805 C1803 1.433 . S
C1805 N1808 1.384 . S
C1806 H1797 0.929 . S
C1806 C1798 1.378 . S
C1806 C1801 1.350 . S
C1807 H1794 0.929 . S
C1807 C1799 1.433 . S
C1807 N1809 1.384 . S
N1808 C1804 1.427 . S
N1808 C1805 1.384 . S
N1809 C1801 1.427 . S
N1809 C1807 1.384 . S
H1810 C1816 0.930 . S
H1811 C1820 0.930 . S
H1812 C1825 0.929 . S
H1813 C1823 0.929 . S
H1814 C1818 0.929 . S
H1815 C1824 0.929 . S
C1816 H1810 0.930 . S
C1816 C1817 1.367 . S
C1816 C1824 1.378 . S
C1817 C1816 1.367 . S
C1817 C1825 1.433 . S
C1818 H1814 0.929 . S
C1818 C1820 1.378 . S
C1818 C1822 1.350 . S
C1819 C1822 1.463 . S
C1819 C1824 1.350 . S
C1819 N1827 1.427 . S
C1820 H1811 0.930 . S
C1820 C1818 1.378 . S
C1820 C1821 1.367 . S
C1821 C1820 1.367 . S
C1821 C1823 1.433 1_545 S
C1822 C1818 1.350 . S
C1822 C1819 1.463 . S
C1822 N1826 1.427 . S
C1823 H1813 0.929 . S
C1823 C1821 1.433 1_565 S
C1823 N1826 1.384 1_565 S
C1824 H1815 0.929 . S
C1824 C1816 1.378 . S
C1824 C1819 1.350 . S
C1825 H1812 0.929 . S
C1825 C1817 1.433 . S
C1825 N1827 1.384 . S
N1826 C1822 1.427 . S
N1826 C1823 1.384 1_545 S
N1827 C1819 1.427 . S
N1827 C1825 1.384 . S
H1828 C1834 0.930 . S
H1829 C1838 0.930 . S
H1830 C1843 0.929 . S
H1831 C1841 0.929 . S
H1832 C1836 0.929 . S
H1833 C1842 0.929 . S
C1834 H1828 0.930 . S
C1834 C1835 1.367 . S
C1834 C1842 1.378 . S
C1835 C1834 1.367 . S
C1835 C1843 1.433 1_565 S
C1836 H1832 0.929 . S
C1836 C1838 1.378 . S
C1836 C1840 1.350 . S
C1837 C1840 1.463 . S
C1837 C1842 1.350 . S
C1837 N1845 1.427 . S
C1838 H1829 0.930 . S
C1838 C1836 1.378 . S
C1838 C1839 1.367 . S
C1839 C1838 1.367 . S
C1839 C1841 1.433 . S
C1840 C1836 1.350 . S
C1840 C1837 1.463 . S
C1840 N1844 1.427 . S
C1841 H1831 0.929 . S
C1841 C1839 1.433 . S
C1841 N1844 1.384 . S
C1842 H1833 0.929 . S
C1842 C1834 1.378 . S
C1842 C1837 1.350 . S
C1843 H1830 0.929 . S
C1843 C1835 1.433 1_545 S
C1843 N1845 1.384 1_545 S
N1844 C1840 1.427 . S
N1844 C1841 1.384 . S
N1845 C1837 1.427 . S
N1845 C1843 1.384 1_565 S
H1846 C1852 0.930 . S
H1847 C1856 0.930 . S
H1848 C1861 0.929 . S
H1849 C1859 0.929 . S
H1850 C1854 0.929 . S
H1851 C1860 0.929 . S
C1852 H1846 0.930 . S
C1852 C1853 1.367 . S
C1852 C1860 1.378 . S
C1853 C1852 1.367 . S
C1853 C1861 1.433 . S
C1854 H1850 0.929 . S
C1854 C1856 1.378 . S
C1854 C1858 1.350 . S
C1855 C1858 1.463 . S
C1855 C1860 1.350 . S
C1855 N1863 1.427 . S
C1856 H1847 0.930 . S
C1856 C1854 1.378 . S
C1856 C1857 1.367 . S
C1857 C1856 1.367 . S
C1857 C1859 1.433 1_565 S
C1858 C1854 1.350 . S
C1858 C1855 1.463 . S
C1858 N1862 1.427 . S
C1859 H1849 0.929 . S
C1859 C1857 1.433 1_545 S
C1859 N1862 1.384 1_545 S
C1860 H1851 0.929 . S
C1860 C1852 1.378 . S
C1860 C1855 1.350 . S
C1861 H1848 0.929 . S
C1861 C1853 1.433 . S
C1861 N1863 1.384 . S
N1862 C1858 1.427 . S
N1862 C1859 1.384 1_565 S
N1863 C1855 1.427 . S
N1863 C1861 1.384 . S
H1864 C1870 0.930 . S
H1865 C1874 0.930 . S
H1866 C1879 0.929 . S
H1867 C1877 0.929 . S
H1868 C1872 0.929 1_545 S
H1869 C1878 0.929 . S
C1870 H1864 0.930 . S
C1870 C1871 1.367 . S
C1870 C1878 1.378 . S
C1871 C1870 1.367 . S
C1871 C1879 1.433 . S
C1872 H1868 0.929 1_565 S
C1872 C1874 1.378 1_565 S
C1872 C1876 1.350 . S
C1873 C1876 1.463 . S
C1873 C1878 1.350 . S
C1873 N1881 1.427 . S
C1874 H1865 0.930 . S
C1874 C1872 1.378 1_545 S
C1874 C1875 1.367 1_545 S
C1875 C1874 1.367 1_565 S
C1875 C1877 1.433 . S
C1876 C1872 1.350 . S
C1876 C1873 1.463 . S
C1876 N1880 1.427 . S
C1877 H1867 0.929 . S
C1877 C1875 1.433 . S
C1877 N1880 1.384 . S
C1878 H1869 0.929 . S
C1878 C1870 1.378 . S
C1878 C1873 1.350 . S
C1879 H1866 0.929 . S
C1879 C1871 1.433 . S
C1879 N1881 1.384 . S
N1880 C1876 1.427 . S
N1880 C1877 1.384 . S
N1881 C1873 1.427 . S
N1881 C1879 1.384 . S
H1882 C1888 0.930 . S
H1883 C1892 0.930 . S
H1884 C1897 0.929 . S
H1885 C1895 0.929 . S
H1886 C1890 0.929 . S
H1887 C1896 0.929 . S
C1888 H1882 0.930 . S
C1888 C1889 1.367 . S
C1888 C1896 1.378 . S
C1889 C1888 1.367 . S
C1889 C1897 1.433 1_565 S
C1890 H1886 0.929 . S
C1890 C1892 1.378 . S
C1890 C1894 1.350 . S
C1891 C1894 1.463 . S
C1891 C1896 1.350 . S
C1891 N1899 1.427 . S
C1892 H1883 0.930 . S
C1892 C1890 1.378 . S
C1892 C1893 1.367 . S
C1893 C1892 1.367 . S
C1893 C1895 1.433 . S
C1894 C1890 1.350 . S
C1894 C1891 1.463 . S
C1894 N1898 1.427 . S
C1895 H1885 0.929 . S
C1895 C1893 1.433 . S
C1895 N1898 1.384 . S
C1896 H1887 0.929 . S
C1896 C1888 1.378 . S
C1896 C1891 1.350 . S
C1897 H1884 0.929 . S
C1897 C1889 1.433 1_545 S
C1897 N1899 1.384 1_545 S
N1898 C1894 1.427 . S
N1898 C1895 1.384 . S
N1899 C1891 1.427 . S
N1899 C1897 1.384 1_565 S
H1900 C1906 0.930 . S
H1901 C1910 0.930 . S
H1902 C1915 0.929 . S
H1903 C1913 0.929 . S
H1904 C1908 0.929 . S
H1905 C1914 0.929 . S
C1906 H1900 0.930 . S
C1906 C1907 1.367 . S
C1906 C1914 1.378 . S
C1907 C1906 1.367 . S
C1907 C1915 1.433 1_545 S
C1908 H1904 0.929 . S
C1908 C1910 1.378 . S
C1908 C1912 1.350 . S
C1909 C1912 1.463 . S
C1909 C1914 1.350 . S
C1909 N1917 1.427 . S
C1910 H1901 0.930 . S
C1910 C1908 1.378 . S
C1910 C1911 1.367 . S
C1911 C1910 1.367 . S
C1911 C1913 1.433 . S
C1912 C1908 1.350 . S
C1912 C1909 1.463 . S
C1912 N1916 1.427 . S
C1913 H1903 0.929 . S
C1913 C1911 1.433 . S
C1913 N1916 1.384 . S
C1914 H1905 0.929 . S
C1914 C1906 1.378 . S
C1914 C1909 1.350 . S
C1915 H1902 0.929 . S
C1915 C1907 1.433 1_565 S
C1915 N1917 1.384 1_565 S
N1916 C1912 1.427 . S
N1916 C1913 1.384 . S
N1917 C1909 1.427 . S
N1917 C1915 1.384 1_545 S
H1918 C1924 0.930 . S
H1919 C1928 0.930 . S
H1920 C1933 0.929 . S
H1921 C1931 0.929 . S
H1922 C1926 0.929 . S
H1923 C1932 0.929 . S
C1924 H1918 0.930 . S
C1924 C1925 1.367 . S
C1924 C1932 1.378 . S
C1925 C1924 1.367 . S
C1925 C1933 1.433 . S
C1926 H1922 0.929 . S
C1926 C1928 1.378 . S
C1926 C1930 1.350 . S
C1927 C1930 1.463 . S
C1927 C1932 1.350 . S
C1927 N1935 1.427 . S
C1928 H1919 0.930 . S
C1928 C1926 1.378 . S
C1928 C1929 1.367 . S
C1929 C1928 1.367 . S
C1929 C1931 1.433 . S
C1930 C1926 1.350 . S
C1930 C1927 1.463 . S
C1930 N1934 1.427 . S
C1931 H1921 0.929 . S
C1931 C1929 1.433 . S
C1931 N1934 1.384 . S
C1932 H1923 0.929 . S
C1932 C1924 1.378 . S
C1932 C1927 1.350 . S
C1933 H1920 0.929 . S
C1933 C1925 1.433 . S
C1933 N1935 1.384 . S
N1934 C1930 1.427 . S
N1934 C1931 1.384 . S
N1935 C1927 1.427 . S
N1935 C1933 1.384 . S
H1936 C1942 0.930 . S
H1937 C1946 0.930 . S
H1938 C1951 0.929 . S
H1939 C1949 0.929 . S
H1940 C1944 0.929 . S
H1941 C1950 0.929 . S
C1942 H1936 0.930 . S
C1942 C1943 1.367 . S
C1942 C1950 1.378 . S
C1943 C1942 1.367 . S
C1943 C1951 1.433 . S
C1944 H1940 0.929 . S
C1944 C1946 1.378 . S
C1944 C1948 1.350 . S
C1945 C1948 1.463 . S
C1945 C1950 1.350 . S
C1945 N1953 1.427 . S
C1946 H1937 0.930 . S
C1946 C1944 1.378 . S
C1946 C1947 1.367 . S
C1947 C1946 1.367 . S
C1947 C1949 1.433 . S
C1948 C1944 1.350 . S
C1948 C1945 1.463 . S
C1948 N1952 1.427 . S
C1949 H1939 0.929 . S
C1949 C1947 1.433 . S
C1949 N1952 1.384 . S
C1950 H1941 0.929 . S
C1950 C1942 1.378 . S
C1950 C1945 1.350 . S
C1951 H1938 0.929 . S
C1951 C1943 1.433 . S
C1951 N1953 1.384 . S
N1952 C1948 1.427 . S
N1952 C1949 1.384 . S
N1953 C1945 1.427 . S
N1953 C1951 1.384 . S
H1954 C1960 0.930 . S
H1955 C1964 0.930 . S
H1956 C1969 0.929 . S
H1957 C1967 0.929 . S
H1958 C1962 0.929 . S
H1959 C1968 0.929 . S
C1960 H1954 0.930 . S
C1960 C1961 1.367 . S
C1960 C1968 1.378 . S
C1961 C1960 1.367 . S
C1961 C1969 1.433 . S
C1962 H1958 0.929 . S
C1962 C1964 1.378 . S
C1962 C1966 1.350 . S
C1963 C1966 1.463 . S
C1963 C1968 1.350 . S
C1963 N1971 1.427 . S
C1964 H1955 0.930 . S
C1964 C1962 1.378 . S
C1964 C1965 1.367 . S
C1965 C1964 1.367 . S
C1965 C1967 1.433 . S
C1966 C1962 1.350 . S
C1966 C1963 1.463 . S
C1966 N1970 1.427 . S
C1967 H1957 0.929 . S
C1967 C1965 1.433 . S
C1967 N1970 1.384 . S
C1968 H1959 0.929 . S
C1968 C1960 1.378 . S
C1968 C1963 1.350 . S
C1969 H1956 0.929 . S
C1969 C1961 1.433 . S
C1969 N1971 1.384 . S
N1970 C1966 1.427 . S
N1970 C1967 1.384 . S
N1971 C1963 1.427 . S
N1971 C1969 1.384 . S
H1972 C1978 0.930 . S
H1973 C1982 0.930 . S
H1974 C1987 0.929 . S
H1975 C1985 0.929 . S
H1976 C1980 0.929 . S
H1977 C1986 0.929 . S
C1978 H1972 0.930 . S
C1978 C1979 1.367 . S
C1978 C1986 1.378 . S
C1979 C1978 1.367 . S
C1979 C1987 1.433 . S
C1980 H1976 0.929 . S
C1980 C1982 1.378 . S
C1980 C1984 1.350 . S
C1981 C1984 1.463 . S
C1981 C1986 1.350 . S
C1981 N1989 1.427 . S
C1982 H1973 0.930 . S
C1982 C1980 1.378 . S
C1982 C1983 1.367 . S
C1983 C1982 1.367 . S
C1983 C1985 1.433 . S
C1984 C1980 1.350 . S
C1984 C1981 1.463 . S
C1984 N1988 1.427 . S
C1985 H1975 0.929 . S
C1985 C1983 1.433 . S
C1985 N1988 1.384 . S
C1986 H1977 0.929 . S
C1986 C1978 1.378 . S
C1986 C1981 1.350 . S
C1987 H1974 0.929 . S
C1987 C1979 1.433 . S
C1987 N1989 1.384 . S
N1988 C1984 1.427 . S
N1988 C1985 1.384 . S
N1989 C1981 1.427 . S
N1989 C1987 1.384 . S
H1990 C1996 0.930 . S
H1991 C2000 0.930 . S
H1992 C2005 0.929 . S
H1993 C2003 0.929 . S
H1994 C1998 0.929 . S
H1995 C2004 0.929 . S
C1996 H1990 0.930 . S
C1996 C1997 1.367 . S
C1996 C2004 1.378 . S
C1997 C1996 1.367 . S
C1997 C2005 1.433 . S
C1998 H1994 0.929 . S
C1998 C2000 1.378 . S
C1998 C2002 1.350 . S
C1999 C2002 1.463 . S
C1999 C2004 1.350 . S
C1999 N2007 1.427 . S
C2000 H1991 0.930 . S
C2000 C1998 1.378 . S
C2000 C2001 1.367 . S
C2001 C2000 1.367 . S
C2001 C2003 1.433 . S
C2002 C1998 1.350 . S
C2002 C1999 1.463 . S
C2002 N2006 1.427 . S
C2003 H1993 0.929 . S
C2003 C2001 1.433 . S
C2003 N2006 1.384 . S
C2004 H1995 0.929 . S
C2004 C1996 1.378 . S
C2004 C1999 1.350 . S
C2005 H1992 0.929 . S
C2005 C1997 1.433 . S
C2005 N2007 1.384 . S
N2006 C2002 1.427 . S
N2006 C2003 1.384 . S
N2007 C1999 1.427 . S
N2007 C2005 1.384 . S
H2008 C2014 0.930 . S
H2009 C2018 0.930 . S
H2010 C2023 0.929 . S
H2011 C2021 0.929 . S
H2012 C2016 0.929 . S
H2013 C2022 0.929 . S
C2014 H2008 0.930 . S
C2014 C2015 1.367 . S
C2014 C2022 1.378 . S
C2015 C2014 1.367 . S
C2015 C2023 1.433 . S
C2016 H2012 0.929 . S
C2016 C2018 1.378 . S
C2016 C2020 1.350 . S
C2017 C2020 1.463 . S
C2017 C2022 1.350 . S
C2017 N2025 1.427 . S
C2018 H2009 0.930 . S
C2018 C2016 1.378 . S
C2018 C2019 1.367 . S
C2019 C2018 1.367 . S
C2019 C2021 1.433 . S
C2020 C2016 1.350 . S
C2020 C2017 1.463 . S
C2020 N2024 1.427 . S
C2021 H2011 0.929 . S
C2021 C2019 1.433 . S
C2021 N2024 1.384 . S
C2022 H2013 0.929 . S
C2022 C2014 1.378 . S
C2022 C2017 1.350 . S
C2023 H2010 0.929 . S
C2023 C2015 1.433 . S
C2023 N2025 1.384 . S
N2024 C2020 1.427 . S
N2024 C2021 1.384 . S
N2025 C2017 1.427 . S
N2025 C2023 1.384 . S
H2026 C2032 0.930 . S
H2027 C2036 0.930 . S
H2028 C2041 0.929 . S
H2029 C2039 0.929 . S
H2030 C2034 0.929 . S
H2031 C2040 0.929 . S
C2032 H2026 0.930 . S
C2032 C2033 1.367 . S
C2032 C2040 1.378 . S
C2033 C2032 1.367 . S
C2033 C2041 1.433 . S
C2034 H2030 0.929 . S
C2034 C2036 1.378 . S
C2034 C2038 1.350 . S
C2035 C2038 1.463 . S
C2035 C2040 1.350 . S
C2035 N2043 1.427 . S
C2036 H2027 0.930 . S
C2036 C2034 1.378 . S
C2036 C2037 1.367 . S
C2037 C2036 1.367 . S
C2037 C2039 1.433 . S
C2038 C2034 1.350 . S
C2038 C2035 1.463 . S
C2038 N2042 1.427 . S
C2039 H2029 0.929 . S
C2039 C2037 1.433 . S
C2039 N2042 1.384 . S
C2040 H2031 0.929 . S
C2040 C2032 1.378 . S
C2040 C2035 1.350 . S
C2041 H2028 0.929 . S
C2041 C2033 1.433 . S
C2041 N2043 1.384 . S
N2042 C2038 1.427 . S
N2042 C2039 1.384 . S
N2043 C2035 1.427 . S
N2043 C2041 1.384 . S
H2044 C2050 0.930 . S
H2045 C2054 0.930 . S
H2046 C2059 0.929 . S
H2047 C2057 0.929 . S
H2048 C2052 0.929 . S
H2049 C2058 0.929 . S
C2050 H2044 0.930 . S
C2050 C2051 1.367 . S
C2050 C2058 1.378 . S
C2051 C2050 1.367 . S
C2051 C2059 1.433 . S
C2052 H2048 0.929 . S
C2052 C2054 1.378 . S
C2052 C2056 1.350 . S
C2053 C2056 1.463 . S
C2053 C2058 1.350 . S
C2053 N2061 1.427 . S
C2054 H2045 0.930 . S
C2054 C2052 1.378 . S
C2054 C2055 1.367 . S
C2055 C2054 1.367 . S
C2055 C2057 1.433 . S
C2056 C2052 1.350 . S
C2056 C2053 1.463 . S
C2056 N2060 1.427 . S
C2057 H2047 0.929 . S
C2057 C2055 1.433 . S
C2057 N2060 1.384 . S
C2058 H2049 0.929 . S
C2058 C2050 1.378 . S
C2058 C2053 1.350 . S
C2059 H2046 0.929 . S
C2059 C2051 1.433 . S
C2059 N2061 1.384 . S
N2060 C2056 1.427 . S
N2060 C2057 1.384 . S
N2061 C2053 1.427 . S
N2061 C2059 1.384 . S
H2062 C2068 0.930 . S
H2063 C2072 0.930 . S
H2064 C2077 0.929 . S
H2065 C2075 0.929 . S
H2066 C2070 0.929 . S
H2067 C2076 0.929 . S
C2068 H2062 0.930 . S
C2068 C2069 1.367 . S
C2068 C2076 1.378 . S
C2069 C2068 1.367 . S
C2069 C2077 1.433 . S
C2070 H2066 0.929 . S
C2070 C2072 1.378 . S
C2070 C2074 1.350 . S
C2071 C2074 1.463 . S
C2071 C2076 1.350 . S
C2071 N2079 1.427 . S
C2072 H2063 0.930 . S
C2072 C2070 1.378 . S
C2072 C2073 1.367 . S
C2073 C2072 1.367 . S
C2073 C2075 1.433 . S
C2074 C2070 1.350 . S
C2074 C2071 1.463 . S
C2074 N2078 1.427 . S
C2075 H2065 0.929 . S
C2075 C2073 1.433 . S
C2075 N2078 1.384 . S
C2076 H2067 0.929 . S
C2076 C2068 1.378 . S
C2076 C2071 1.350 . S
C2077 H2064 0.929 . S
C2077 C2069 1.433 . S
C2077 N2079 1.384 . S
N2078 C2074 1.427 . S
N2078 C2075 1.384 . S
N2079 C2071 1.427 . S
N2079 C2077 1.384 . S
H2080 C2086 0.930 . S
H2081 C2090 0.930 . S
H2082 C2095 0.929 . S
H2083 C2093 0.929 . S
H2084 C2088 0.929 1_545 S
H2085 C2094 0.929 1_565 S
C2086 H2080 0.930 . S
C2086 C2087 1.367 . S
C2086 C2094 1.378 . S
C2087 C2086 1.367 . S
C2087 C2095 1.433 . S
C2088 H2084 0.929 1_565 S
C2088 C2090 1.378 . S
C2088 C2092 1.350 . S
C2089 C2092 1.463 1_545 S
C2089 C2094 1.350 . S
C2089 N2097 1.427 . S
C2090 H2081 0.930 . S
C2090 C2088 1.378 . S
C2090 C2091 1.367 . S
C2091 C2090 1.367 . S
C2091 C2093 1.433 . S
C2092 C2088 1.350 . S
C2092 C2089 1.463 1_565 S
C2092 N2096 1.427 . S
C2093 H2083 0.929 . S
C2093 C2091 1.433 . S
C2093 N2096 1.384 . S
C2094 H2085 0.929 1_545 S
C2094 C2086 1.378 . S
C2094 C2089 1.350 . S
C2095 H2082 0.929 . S
C2095 C2087 1.433 . S
C2095 N2097 1.384 . S
N2096 C2092 1.427 . S
N2096 C2093 1.384 . S
N2097 C2089 1.427 . S
N2097 C2095 1.384 . S
H2098 C2104 0.930 . S
H2099 C2108 0.930 . S
H2100 C2113 0.929 . S
H2101 C2111 0.929 . S
H2102 C2106 0.929 . S
H2103 C2112 0.929 . S
C2104 H2098 0.930 . S
C2104 C2105 1.367 . S
C2104 C2112 1.378 . S
C2105 C2104 1.367 . S
C2105 C2113 1.433 . S
C2106 H2102 0.929 . S
C2106 C2108 1.378 . S
C2106 C2110 1.350 . S
C2107 C2110 1.463 . S
C2107 C2112 1.350 . S
C2107 N2115 1.427 . S
C2108 H2099 0.930 . S
C2108 C2106 1.378 . S
C2108 C2109 1.367 . S
C2109 C2108 1.367 . S
C2109 C2111 1.433 . S
C2110 C2106 1.350 . S
C2110 C2107 1.463 . S
C2110 N2114 1.427 . S
C2111 H2101 0.929 . S
C2111 C2109 1.433 . S
C2111 N2114 1.384 . S
C2112 H2103 0.929 . S
C2112 C2104 1.378 . S
C2112 C2107 1.350 . S
C2113 H2100 0.929 . S
C2113 C2105 1.433 . S
C2113 N2115 1.384 . S
N2114 C2110 1.427 . S
N2114 C2111 1.384 . S
N2115 C2107 1.427 . S
N2115 C2113 1.384 . S
H2116 C2122 0.930 . S
H2117 C2126 0.930 . S
H2118 C2131 0.929 . S
H2119 C2129 0.929 . S
H2120 C2124 0.929 . S
H2121 C2130 0.929 . S
C2122 H2116 0.930 . S
C2122 C2123 1.367 . S
C2122 C2130 1.378 . S
C2123 C2122 1.367 . S
C2123 C2131 1.433 . S
C2124 H2120 0.929 . S
C2124 C2126 1.378 . S
C2124 C2128 1.350 . S
C2125 C2128 1.463 1_545 S
C2125 C2130 1.350 . S
C2125 N2133 1.427 . S
C2126 H2117 0.930 . S
C2126 C2124 1.378 . S
C2126 C2127 1.367 . S
C2127 C2126 1.367 . S
C2127 C2129 1.433 . S
C2128 C2124 1.350 . S
C2128 C2125 1.463 1_565 S
C2128 N2132 1.427 . S
C2129 H2119 0.929 . S
C2129 C2127 1.433 . S
C2129 N2132 1.384 . S
C2130 H2121 0.929 . S
C2130 C2122 1.378 . S
C2130 C2125 1.350 . S
C2131 H2118 0.929 . S
C2131 C2123 1.433 . S
C2131 N2133 1.384 . S
N2132 C2128 1.427 . S
N2132 C2129 1.384 . S
N2133 C2125 1.427 . S
N2133 C2131 1.384 . S
H2134 C2140 0.930 . S
H2135 C2144 0.930 . S
H2136 C2149 0.929 . S
H2137 C2147 0.929 . S
H2138 C2142 0.929 1_556 S
H2139 C2148 0.929 1_554 S
C2140 H2134 0.930 . S
C2140 C2141 1.367 . S
C2140 C2148 1.378 . S
C2141 C2140 1.367 . S
C2141 C2149 1.433 . S
C2142 H2138 0.929 1_554 S
C2142 C2144 1.378 . S
C2142 C2146 1.350 . S
C2143 C2146 1.463 1_556 S
C2143 C2148 1.350 . S
C2143 N2151 1.427 . S
C2144 H2135 0.930 . S
C2144 C2142 1.378 . S
C2144 C2145 1.367 . S
C2145 C2144 1.367 . S
C2145 C2147 1.433 . S
C2146 C2142 1.350 . S
C2146 C2143 1.463 1_554 S
C2146 N2150 1.427 . S
C2147 H2137 0.929 . S
C2147 C2145 1.433 . S
C2147 N2150 1.384 . S
C2148 H2139 0.929 1_556 S
C2148 C2140 1.378 . S
C2148 C2143 1.350 . S
C2149 H2136 0.929 . S
C2149 C2141 1.433 . S
C2149 N2151 1.384 . S
N2150 C2146 1.427 . S
N2150 C2147 1.384 . S
N2151 C2143 1.427 . S
N2151 C2149 1.384 . S
H2152 C2158 0.930 . S
H2153 C2162 0.930 . S
H2154 C2167 0.929 . S
H2155 C2165 0.929 . S
H2156 C2160 0.929 . S
H2157 C2166 0.929 . S
C2158 H2152 0.930 . S
C2158 C2159 1.367 . S
C2158 C2166 1.378 . S
C2159 C2158 1.367 . S
C2159 C2167 1.433 . S
C2160 H2156 0.929 . S
C2160 C2162 1.378 . S
C2160 C2164 1.350 . S
C2161 C2164 1.463 1_565 S
C2161 C2166 1.350 . S
C2161 N2169 1.430 . S
C2162 H2153 0.930 . S
C2162 C2160 1.378 . S
C2162 C2163 1.367 . S
C2163 C2162 1.367 . S
C2163 C2165 1.433 . S
C2164 C2160 1.350 . S
C2164 C2161 1.463 1_545 S
C2164 N2168 1.430 . S
C2165 H2155 0.929 . S
C2165 C2163 1.433 . S
C2165 N2168 1.389 . S
C2166 H2157 0.929 . S
C2166 C2158 1.378 . S
C2166 C2161 1.350 . S
C2167 H2154 0.929 . S
C2167 C2159 1.433 . S
C2167 N2169 1.389 . S
N2168 C2164 1.430 . S
N2168 C2165 1.389 . S
N2169 C2161 1.430 . S
N2169 C2167 1.389 . S
H2170 C2176 0.930 . S
H2171 C2180 0.930 . S
H2172 C2185 0.929 . S
H2173 C2183 0.929 . S
H2174 C2178 0.929 . S
H2175 C2184 0.929 . S
C2176 H2170 0.930 . S
C2176 C2177 1.367 . S
C2176 C2184 1.378 . S
C2177 C2176 1.367 . S
C2177 C2185 1.433 . S
C2178 H2174 0.929 . S
C2178 C2180 1.378 . S
C2178 C2182 1.350 . S
C2179 C2182 1.463 . S
C2179 C2184 1.350 . S
C2179 N2187 1.427 . S
C2180 H2171 0.930 . S
C2180 C2178 1.378 . S
C2180 C2181 1.367 . S
C2181 C2180 1.367 . S
C2181 C2183 1.433 . S
C2182 C2178 1.350 . S
C2182 C2179 1.463 . S
C2182 N2186 1.427 . S
C2183 H2173 0.929 . S
C2183 C2181 1.433 . S
C2183 N2186 1.384 . S
C2184 H2175 0.929 . S
C2184 C2176 1.378 . S
C2184 C2179 1.350 . S
C2185 H2172 0.929 . S
C2185 C2177 1.433 . S
C2185 N2187 1.384 . S
N2186 C2182 1.427 . S
N2186 C2183 1.384 . S
N2187 C2179 1.427 . S
N2187 C2185 1.384 . S
H2188 C2194 0.930 . S
H2189 C2198 0.930 . S
H2190 C2203 0.929 . S
H2191 C2201 0.929 . S
H2192 C2196 0.929 . S
H2193 C2202 0.929 . S
C2194 H2188 0.930 . S
C2194 C2195 1.367 . S
C2194 C2202 1.378 . S
C2195 C2194 1.367 . S
C2195 C2203 1.433 . S
C2196 H2192 0.929 . S
C2196 C2198 1.378 . S
C2196 C2200 1.350 . S
C2197 C2200 1.463 1_565 S
C2197 C2202 1.350 . S
C2197 N2205 1.427 . S
C2198 H2189 0.930 . S
C2198 C2196 1.378 . S
C2198 C2199 1.367 . S
C2199 C2198 1.367 . S
C2199 C2201 1.433 . S
C2200 C2196 1.350 . S
C2200 C2197 1.463 1_545 S
C2200 N2204 1.427 . S
C2201 H2191 0.929 . S
C2201 C2199 1.433 . S
C2201 N2204 1.384 . S
C2202 H2193 0.929 . S
C2202 C2194 1.378 . S
C2202 C2197 1.350 . S
C2203 H2190 0.929 . S
C2203 C2195 1.433 . S
C2203 N2205 1.384 . S
N2204 C2200 1.427 . S
N2204 C2201 1.384 . S
N2205 C2197 1.427 . S
N2205 C2203 1.384 . S
H2206 C2212 0.930 . S
H2207 C2216 0.930 . S
H2208 C2221 0.929 . S
H2209 C2219 0.929 . S
H2210 C2214 0.929 1_554 S
H2211 C2220 0.929 1_556 S
C2212 H2206 0.930 . S
C2212 C2213 1.367 . S
C2212 C2220 1.378 . S
C2213 C2212 1.367 . S
C2213 C2221 1.433 . S
C2214 H2210 0.929 1_556 S
C2214 C2216 1.378 . S
C2214 C2218 1.350 . S
C2215 C2218 1.463 1_554 S
C2215 C2220 1.350 . S
C2215 N2223 1.427 . S
C2216 H2207 0.930 . S
C2216 C2214 1.378 . S
C2216 C2217 1.367 . S
C2217 C2216 1.367 . S
C2217 C2219 1.433 . S
C2218 C2214 1.350 . S
C2218 C2215 1.463 1_556 S
C2218 N2222 1.427 . S
C2219 H2209 0.929 . S
C2219 C2217 1.433 . S
C2219 N2222 1.384 . S
C2220 H2211 0.929 1_554 S
C2220 C2212 1.378 . S
C2220 C2215 1.350 . S
C2221 H2208 0.929 . S
C2221 C2213 1.433 . S
C2221 N2223 1.384 . S
N2222 C2218 1.427 . S
N2222 C2219 1.384 . S
N2223 C2215 1.427 . S
N2223 C2221 1.384 . S
H2224 C2230 0.930 . S
H2225 C2234 0.930 . S
H2226 C2239 0.929 . S
H2227 C2237 0.929 . S
H2228 C2232 0.929 . S
H2229 C2238 0.929 . S
C2230 H2224 0.930 . S
C2230 C2231 1.367 . S
C2230 C2238 1.378 . S
C2231 C2230 1.367 . S
C2231 C2239 1.433 . S
C2232 H2228 0.929 . S
C2232 C2234 1.378 . S
C2232 C2236 1.350 . S
C2233 C2236 1.463 . S
C2233 C2238 1.350 . S
C2233 N2241 1.427 . S
C2234 H2225 0.930 . S
C2234 C2232 1.378 . S
C2234 C2235 1.367 . S
C2235 C2234 1.367 . S
C2235 C2237 1.433 . S
C2236 C2232 1.350 . S
C2236 C2233 1.463 . S
C2236 N2240 1.427 . S
C2237 H2227 0.929 . S
C2237 C2235 1.433 . S
C2237 N2240 1.384 . S
C2238 H2229 0.929 . S
C2238 C2230 1.378 . S
C2238 C2233 1.350 . S
C2239 H2226 0.929 . S
C2239 C2231 1.433 . S
C2239 N2241 1.384 . S
N2240 C2236 1.427 . S
N2240 C2237 1.384 . S
N2241 C2233 1.427 . S
N2241 C2239 1.384 . S
H2242 C2248 0.930 . S
H2243 C2252 0.930 . S
H2244 C2257 0.929 . S
H2245 C2255 0.929 . S
H2246 C2250 0.929 . S
H2247 C2256 0.929 . S
C2248 H2242 0.930 . S
C2248 C2249 1.367 . S
C2248 C2256 1.378 . S
C2249 C2248 1.367 . S
C2249 C2257 1.433 . S
C2250 H2246 0.929 . S
C2250 C2252 1.378 . S
C2250 C2254 1.350 . S
C2251 C2254 1.463 1_556 S
C2251 C2256 1.350 . S
C2251 N2259 1.427 . S
C2252 H2243 0.930 . S
C2252 C2250 1.378 . S
C2252 C2253 1.367 . S
C2253 C2252 1.367 . S
C2253 C2255 1.433 . S
C2254 C2250 1.350 . S
C2254 C2251 1.463 1_554 S
C2254 N2258 1.427 . S
C2255 H2245 0.929 . S
C2255 C2253 1.433 . S
C2255 N2258 1.384 . S
C2256 H2247 0.929 . S
C2256 C2248 1.378 . S
C2256 C2251 1.350 . S
C2257 H2244 0.929 . S
C2257 C2249 1.433 . S
C2257 N2259 1.384 . S
N2258 C2254 1.427 . S
N2258 C2255 1.384 . S
N2259 C2251 1.427 . S
N2259 C2257 1.384 . S
H2260 C2266 0.930 . S
H2261 C2270 0.930 . S
H2262 C2275 0.929 . S
H2263 C2273 0.929 . S
H2264 C2268 0.929 . S
H2265 C2274 0.929 . S
C2266 H2260 0.930 . S
C2266 C2267 1.367 . S
C2266 C2274 1.378 . S
C2267 C2266 1.367 . S
C2267 C2275 1.433 . S
C2268 H2264 0.929 . S
C2268 C2270 1.378 . S
C2268 C2272 1.350 . S
C2269 C2272 1.463 . S
C2269 C2274 1.350 . S
C2269 N2277 1.427 . S
C2270 H2261 0.930 . S
C2270 C2268 1.378 . S
C2270 C2271 1.367 . S
C2271 C2270 1.367 . S
C2271 C2273 1.433 . S
C2272 C2268 1.350 . S
C2272 C2269 1.463 . S
C2272 N2276 1.427 . S
C2273 H2263 0.929 . S
C2273 C2271 1.433 . S
C2273 N2276 1.384 . S
C2274 H2265 0.929 . S
C2274 C2266 1.378 . S
C2274 C2269 1.350 . S
C2275 H2262 0.929 . S
C2275 C2267 1.433 . S
C2275 N2277 1.384 . S
N2276 C2272 1.427 . S
N2276 C2273 1.384 . S
N2277 C2269 1.427 . S
N2277 C2275 1.384 . S
H2278 C2284 0.930 . S
H2279 C2288 0.930 . S
H2280 C2293 0.929 . S
H2281 C2291 0.929 . S
H2282 C2286 0.929 . S
H2283 C2292 0.929 . S
C2284 H2278 0.930 . S
C2284 C2285 1.367 . S
C2284 C2292 1.378 . S
C2285 C2284 1.367 . S
C2285 C2293 1.433 . S
C2286 H2282 0.929 . S
C2286 C2288 1.378 . S
C2286 C2290 1.350 . S
C2287 C2290 1.463 . S
C2287 C2292 1.350 . S
C2287 N2295 1.427 . S
C2288 H2279 0.930 . S
C2288 C2286 1.378 . S
C2288 C2289 1.367 . S
C2289 C2288 1.367 . S
C2289 C2291 1.433 . S
C2290 C2286 1.350 . S
C2290 C2287 1.463 . S
C2290 N2294 1.427 . S
C2291 H2281 0.929 . S
C2291 C2289 1.433 . S
C2291 N2294 1.384 . S
C2292 H2283 0.929 . S
C2292 C2284 1.378 . S
C2292 C2287 1.350 . S
C2293 H2280 0.929 . S
C2293 C2285 1.433 . S
C2293 N2295 1.384 . S
N2294 C2290 1.427 . S
N2294 C2291 1.384 . S
N2295 C2287 1.427 . S
N2295 C2293 1.384 . S
H2296 C2302 0.930 . S
H2297 C2306 0.930 . S
H2298 C2311 0.929 . S
H2299 C2309 0.929 . S
H2300 C2304 0.929 . S
H2301 C2310 0.929 . S
C2302 H2296 0.930 . S
C2302 C2303 1.367 . S
C2302 C2310 1.378 . S
C2303 C2302 1.367 . S
C2303 C2311 1.433 . S
C2304 H2300 0.929 . S
C2304 C2306 1.378 . S
C2304 C2308 1.350 . S
C2305 C2308 1.463 . S
C2305 C2310 1.350 . S
C2305 N2313 1.427 . S
C2306 H2297 0.930 . S
C2306 C2304 1.378 . S
C2306 C2307 1.367 . S
C2307 C2306 1.367 . S
C2307 C2309 1.433 . S
C2308 C2304 1.350 . S
C2308 C2305 1.463 . S
C2308 N2312 1.427 . S
C2309 H2299 0.929 . S
C2309 C2307 1.433 . S
C2309 N2312 1.384 . S
C2310 H2301 0.929 . S
C2310 C2302 1.378 . S
C2310 C2305 1.350 . S
C2311 H2298 0.929 . S
C2311 C2303 1.433 . S
C2311 N2313 1.384 . S
N2312 C2308 1.427 . S
N2312 C2309 1.384 . S
N2313 C2305 1.427 . S
N2313 C2311 1.384 . S
H2314 C2320 0.930 . S
H2315 C2324 0.930 . S
H2316 C2329 0.929 . S
H2317 C2327 0.929 . S
H2318 C2322 0.929 . S
H2319 C2328 0.929 . S
C2320 H2314 0.930 . S
C2320 C2321 1.367 . S
C2320 C2328 1.378 . S
C2321 C2320 1.367 . S
C2321 C2329 1.433 . S
C2322 H2318 0.929 . S
C2322 C2324 1.378 . S
C2322 C2326 1.350 . S
C2323 C2326 1.463 1_556 S
C2323 C2328 1.350 . S
C2323 N2331 1.427 . S
C2324 H2315 0.930 . S
C2324 C2322 1.378 . S
C2324 C2325 1.367 . S
C2325 C2324 1.367 . S
C2325 C2327 1.433 . S
C2326 C2322 1.350 . S
C2326 C2323 1.463 1_554 S
C2326 N2330 1.427 . S
C2327 H2317 0.929 . S
C2327 C2325 1.433 . S
C2327 N2330 1.384 . S
C2328 H2319 0.929 . S
C2328 C2320 1.378 . S
C2328 C2323 1.350 . S
C2329 H2316 0.929 . S
C2329 C2321 1.433 . S
C2329 N2331 1.384 . S
N2330 C2326 1.427 . S
N2330 C2327 1.384 . S
N2331 C2323 1.427 . S
N2331 C2329 1.384 . S
H2332 C2338 0.930 . S
H2333 C2342 0.930 . S
H2334 C2347 0.929 . S
H2335 C2345 0.929 . S
H2336 C2340 0.929 . S
H2337 C2346 0.929 . S
C2338 H2332 0.930 . S
C2338 C2339 1.367 . S
C2338 C2346 1.378 . S
C2339 C2338 1.367 . S
C2339 C2347 1.433 . S
C2340 H2336 0.929 . S
C2340 C2342 1.378 . S
C2340 C2344 1.350 . S
C2341 C2344 1.463 . S
C2341 C2346 1.350 . S
C2341 N2349 1.427 . S
C2342 H2333 0.930 . S
C2342 C2340 1.378 . S
C2342 C2343 1.367 . S
C2343 C2342 1.367 . S
C2343 C2345 1.433 . S
C2344 C2340 1.350 . S
C2344 C2341 1.463 . S
C2344 N2348 1.427 . S
C2345 H2335 0.929 . S
C2345 C2343 1.433 . S
C2345 N2348 1.384 . S
C2346 H2337 0.929 . S
C2346 C2338 1.378 . S
C2346 C2341 1.350 . S
C2347 H2334 0.929 . S
C2347 C2339 1.433 . S
C2347 N2349 1.384 . S
N2348 C2344 1.427 . S
N2348 C2345 1.384 . S
N2349 C2341 1.427 . S
N2349 C2347 1.384 . S
H2350 C2356 0.930 . S
H2351 C2360 0.930 . S
H2352 C2365 0.929 . S
H2353 C2363 0.929 . S
H2354 C2358 0.929 . S
H2355 C2364 0.929 . S
C2356 H2350 0.930 . S
C2356 C2357 1.367 . S
C2356 C2364 1.378 . S
C2357 C2356 1.367 . S
C2357 C2365 1.433 . S
C2358 H2354 0.929 . S
C2358 C2360 1.378 . S
C2358 C2362 1.350 . S
C2359 C2362 1.463 . S
C2359 C2364 1.350 . S
C2359 N2367 1.427 . S
C2360 H2351 0.930 . S
C2360 C2358 1.378 . S
C2360 C2361 1.367 . S
C2361 C2360 1.367 . S
C2361 C2363 1.433 . S
C2362 C2358 1.350 . S
C2362 C2359 1.463 . S
C2362 N2366 1.427 . S
C2363 H2353 0.929 . S
C2363 C2361 1.433 . S
C2363 N2366 1.384 . S
C2364 H2355 0.929 . S
C2364 C2356 1.378 . S
C2364 C2359 1.350 . S
C2365 H2352 0.929 . S
C2365 C2357 1.433 . S
C2365 N2367 1.384 . S
N2366 C2362 1.427 . S
N2366 C2363 1.384 . S
N2367 C2359 1.427 . S
N2367 C2365 1.384 . S
C647 C12 0.446 . S
C651 C542 0.421 . S
C665 C32 0.400 . S
C669 C162 0.457 . S
C683 C52 0.429 . S
C687 C502 0.461 . S
C701 C202 0.430 . S
C705 C72 0.426 . S
C719 C92 0.440 . S
C723 C582 0.422 . S
C737 C282 0.474 . S
C741 C112 0.407 . S
C755 C622 0.456 . S
C759 C132 0.434 . S
C773 C152 0.420 . S
C777 C242 0.434 . S
C791 C169 0.438 . S
C795 C384 0.422 . S
C809 C189 0.399 . S
C813 C4 0.474 . S
C827 C344 0.421 . S
C831 C209 0.441 . S
C845 C44 0.421 . S
C849 C229 0.447 . S
C863 C249 0.403 . S
C867 C424 0.454 . S
C881 C269 0.436 . S
C885 C124 0.423 . S
C899 C289 0.404 . S
C903 C464 0.452 . S
C917 C84 0.472 . S
C921 C309 0.411 . S
C935 C222 0.428 . S
C939 C332 0.450 . S
C953 C482 0.421 . S
C957 C352 0.445 . S
C971 C182 0.455 . S
C975 C372 0.402 . S
C989 C392 0.397 . S
C993 C522 0.473 . S
C1007 C262 0.425 . S
C1011 C412 0.450 . S
C1025 C602 0.474 . S
C1029 C432 0.399 . S
C1043 C302 0.428 . S
C1047 C452 0.450 . S
C1061 C472 0.443 . S
C1065 C562 0.421 . S
C1079 C489 0.398 . S
C1083 C64 0.462 . S
C1097 C509 0.407 . S
C1101 C324 0.474 . S
C1115 C529 0.411 . S
C1119 C24 0.443 . S
C1133 C549 0.437 . S
C1137 C364 0.423 . S
C1151 C104 0.436 . S
C1155 C569 0.448 . S
C1169 C444 0.473 . S
C1173 C589 0.410 . S
C1187 C609 0.449 . S
C1191 C144 0.423 . S
C1205 C629 0.433 . S
C1209 C404 0.425 . S
C1223 C19 2.037 . S
C1227 C379 2.035 . S
C1241 C399 2.037 . S
C1245 C39 2.035 . S
C1259 C59 2.036 . S
C1263 C339 2.036 . S
C1277 C79 2.035 . S
C1281 C359 2.037 . S
C1295 C459 2.035 . S
C1299 C99 2.036 . S
C1313 C119 2.035 . S
C1317 C479 2.036 . S
C1331 C419 2.036 . S
C1335 C139 2.036 . S
C1349 C159 2.036 . S
C1353 C439 2.035 . S
C1367 C538 2.035 . S
C1371 C178 2.037 . S
C1385 C198 2.036 . S
C1389 C558 2.035 . S
C1403 C218 2.036 . S
C1407 C498 2.036 . S
C1421 C238 2.036 . S
C1425 C518 2.035 . S
C1439 C618 2.036 . S
C1443 C258 2.035 . S
C1457 C638 2.037 . S
C1461 C278 2.035 . S
C1475 C298 2.035 . S
C1479 C578 2.036 . S
C1493 C318 2.035 . S
C1497 C598 2.037 . S
C1511 C2 1.363 . S
C1515 C484 1.363 . S
C1529 C184 1.385 . S
C1533 C22 1.385 . S
C1547 C42 1.383 . S
C1551 C524 1.383 . S
C1565 C62 1.372 . S
C1569 C224 1.372 . S
C1583 C564 1.364 . S
C1587 C82 1.364 . S
C1601 C264 1.364 . S
C1605 C102 1.364 . S
C1619 C122 1.377 . S
C1623 C604 1.377 . S
C1637 C142 1.364 . S
C1641 C304 1.364 . S
C1655 C322 1.384 . S
C1659 C164 1.384 . S
C1673 C362 1.363 . S
C1677 C204 1.363 . S
C1691 C402 1.378 . S
C1695 C244 1.378 . S
C1709 C284 1.367 . S
C1713 C442 1.367 . S
C1727 C342 1.374 . S
C1731 C504 1.374 . S
C1745 C382 1.380 . S
C1749 C544 1.380 . S
C1763 C584 1.385 . S
C1767 C422 1.385 . S
C1781 C624 1.385 . S
C1785 C462 1.385 . S
C1799 C18 3.322 . S
C1803 C118 3.320 1_545 S
C1817 C138 3.320 . S
C1821 C38 3.322 1_545 S
C1835 C158 3.322 1_565 S
C1839 C58 3.319 . S
C1853 C98 3.315 . S
C1857 C78 3.320 1_565 S
C1871 C179 3.314 . S
C1875 C279 3.313 1_565 S
C1889 C199 3.321 1_565 S
C1893 C299 3.321 . S
C1907 C319 3.322 1_545 S
C1911 C219 3.319 . S
C1925 C239 3.316 1_545 S
C1929 C259 3.313 . S
C1943 C338 3.317 . S
C1947 C438 3.313 . S
C1961 C358 3.315 . S
C1965 C458 3.319 . S
C1979 C378 3.322 . S
C1983 C478 3.321 . S
C1997 C418 3.319 . S
C2001 C398 3.314 . S
C2015 C499 3.318 . S
C2019 C599 3.314 . S
C2033 C519 3.321 . S
C2037 C619 3.321 . S
C2051 C639 3.320 . S
C2055 C539 3.322 . S
C2069 C559 3.313 . S
C2073 C579 3.314 . S
C2087 C9 1.703 . S
C2091 C89 1.698 . S
C2105 C29 1.701 . S
C2109 C109 1.693 . S
C2123 C129 1.693 . S
C2127 C49 1.700 . S
C2141 C149 1.699 . S
C2145 C69 1.693 . S
C2159 C172 1.696 . S
C2163 C252 1.694 . S
C2177 C272 1.702 . S
C2181 C192 1.694 . S
C2195 C292 1.699 . S
C2199 C212 1.693 . S
C2213 C312 1.693 . S
C2217 C232 1.697 . S
C2231 C329 1.700 . S
C2235 C409 1.693 . S
C2249 C429 1.693 . S
C2253 C349 1.701 . S
C2267 C369 1.697 . S
C2271 C449 1.693 . S
C2285 C469 1.698 . S
C2289 C389 1.693 . S
C2303 C572 1.698 . S
C2307 C492 1.693 . S
C2321 C512 1.693 . S
C2325 C592 1.700 . S
C2339 C532 1.693 . S
C2343 C612 1.700 . S
C2357 C552 1.693 . S
C2361 C632 1.701 . S
