# Generated by pormake.
# Topology lon, (4)-cn, num edge types: 1
# Building blocks:
#     Node 0, Type 0, BuildingBlock: UXUYUI_clean_sbu_0, # of connection points: 4
#     Node 1, Type 0, BuildingBlock: UXUYUI_clean_sbu_0, # of connection points: 4
#     Node 2, Type 0, BuildingBlock: UXUYUI_clean_sbu_0, # of connection points: 4
#     Node 3, Type 0, BuildingBlock: UXUYUI_clean_sbu_0, # of connection points: 4
#     Edge 4, Type (0, 0), BuildingBlock: OJICUG_clean_linker_0, # of connection points: 2
#     Edge 5, Type (0, 0), BuildingBlock: OJICUG_clean_linker_0, # of connection points: 2
#     Edge 6, Type (0, 0), BuildingBlock: OJICUG_clean_linker_0, # of connection points: 2
#     Edge 7, Type (0, 0), BuildingBlock: OJICUG_clean_linker_0, # of connection points: 2
#     Edge 8, Type (0, 0), BuildingBlock: OJICUG_clean_linker_0, # of connection points: 2
#     Edge 9, Type (0, 0), BuildingBlock: OJICUG_clean_linker_0, # of connection points: 2
#     Edge 10, Type (0, 0), BuildingBlock: OJICUG_clean_linker_0, # of connection points: 2
#     Edge 11, Type (0, 0), BuildingBlock: OJICUG_clean_linker_0, # of connection points: 2
# Relax obj value: 0.000
# Max RMSD: 0.004
# Mean RMSD: 0.003
data_MOF--net-lon--node1-UXUYUI_clean_sbu_0--edge1-OJICUG_clean_linker_0
_symmetry_space_group_name_H-M    P1
_symmetry_Int_Tables_number       1
_symmetry_cell_setting            triclinic
loop_
_symmetry_equiv_pos_as_xyz
'x, y, z'
_cell_length_a     29.733597
_cell_length_b     29.694023
_cell_length_c     48.541332
_cell_angle_alpha  90.069896
_cell_angle_beta   90.159656
_cell_angle_gamma 120.04587
loop_
_atom_site_label
_atom_site_type_symbol
_atom_site_fract_x
_atom_site_fract_y
_atom_site_fract_z
_atom_type_partial_charge
Li0 Li 0.35469 0.67989 0.10497 0.0
Li1 Li 0.38484 0.6528 0.06225 0.0
Li2 Li 0.3835 0.73327 0.06574 0.0
Li3 Li 0.29996 0.6525 0.06396 0.0
C4 C 0.4742 0.75422 0.08733 0.0
N5 N 0.57241 0.84103 0.08438 0.0
C6 C 0.51273 0.75322 0.07136 0.0
C7 C 0.48614 0.79914 0.1023 0.0
C8 C 0.56201 0.79752 0.07001 0.0
C9 C 0.53583 0.8427 0.1004 0.0
C10 C 0.28567 0.56049 0.0814 0.0
C11 C 0.24119 0.48814 0.05006 0.0
N12 N 0.20914 0.45917 0.07082 0.0
C13 C 0.25236 0.53004 0.10243 0.0
C14 C 0.28016 0.53945 0.055 0.0
C15 C 0.21389 0.47887 0.09666 0.0
C16 C 0.30669 0.64888 0.1574 0.0
N17 N 0.35288 0.67698 0.14424 0.0
C18 C 0.39785 0.70558 0.18724 0.0
C19 C 0.39805 0.70468 0.15849 0.0
C20 C 0.35074 0.67723 0.20145 0.0
C21 C 0.30474 0.64827 0.18618 0.0
H22 H 0.27128 0.62766 0.14552 0.0
H23 H 0.43425 0.7264 0.14753 0.0
C24 C 0.4505 0.63565 0.02672 0.0
N25 N 0.41794 0.61633 0.04863 0.0
C26 C 0.47612 0.61026 0.01693 0.0
C27 C 0.43279 0.54442 0.05178 0.0
C28 C 0.40881 0.57167 0.06125 0.0
C29 C 0.46726 0.56399 0.02949 0.0
H30 H 0.45747 0.67145 0.01723 0.0
H31 H 0.38307 0.55731 0.07878 0.0
C32 C 0.30181 0.72985 0.109 0.0
N33 N 0.26562 0.7586 0.15433 0.0
C34 C 0.24845 0.70734 0.11354 0.0
C35 C 0.33666 0.76812 0.12714 0.0
C36 C 0.23092 0.72209 0.13665 0.0
C37 C 0.31769 0.78179 0.15005 0.0
C38 C 0.356 0.70961 0.01327 0.0
C39 C 0.32629 0.73414 0.01399 0.0
C40 C 0.38743 0.71654 0.99049 0.0
C41 C 0.32902 0.76572 0.99201 0.0
C42 C 0.38905 0.7484 0.9689 0.0
N43 N 0.36012 0.77217 0.97012 0.0
C44 C 0.46017 0.8191 0.0351 0.0
C45 C 0.40426 0.83737 0.06151 0.0
C46 C 0.48646 0.87002 0.02518 0.0
N47 N 0.42 0.80386 0.05298 0.0
C48 C 0.42945 0.88865 0.05212 0.0
C49 C 0.47114 0.90561 0.03365 0.0
H50 H 0.4715 0.7915 0.02835 0.0
H51 H 0.37189 0.8242 0.07547 0.0
C52 C 0.19039 0.59058 0.06932 0.0
N53 N 0.22962 0.61421 0.05079 0.0
C54 C 0.13873 0.56325 0.06042 0.0
C55 C 0.16877 0.58235 0.0134 0.0
C56 C 0.21982 0.60967 0.02323 0.0
C57 C 0.12738 0.55928 0.03211 0.0
H58 H 0.19925 0.59296 0.09107 0.0
H59 H 0.25158 0.62715 1.0088 0.0
O60 O 0.42543 0.71125 0.08855 0.0
O61 O 0.32274 0.61107 0.08641 0.0
O62 O 0.31977 0.71519 0.08669 0.0
O63 O 0.35482 0.67973 0.03502 0.0
H64 H 0.50486 0.71865 0.06016 0.0
H65 H 0.45741 0.80064 0.11513 0.0
H66 H 0.592 0.79726 0.05756 0.0
H67 H 0.5453 0.87783 0.11167 0.0
H68 H 0.23633 0.47141 0.0297 0.0
H69 H 0.25608 0.54579 0.12296 0.0
H70 H 0.30534 0.56272 0.03843 0.0
H71 H 0.18776 0.45485 0.11273 0.0
H72 H 0.43424 0.72789 0.19824 0.0
H73 H 0.26758 0.6263 0.19636 0.0
H74 H 0.50232 0.62641 0.99962 0.0
H75 H 0.42534 0.50904 0.06212 0.0
H76 H 0.22075 0.67928 0.09925 0.0
H77 H 0.37792 0.78678 0.12373 0.0
H78 H 0.18971 0.70468 0.14045 0.0
H79 H 0.34437 0.81087 0.16441 0.0
H80 H 0.3018 0.72928 0.03149 0.0
H81 H 0.41041 0.69767 0.98946 0.0
H82 H 0.30653 0.7852 0.99239 0.0
H83 H 0.41337 0.75427 0.95118 0.0
H84 H 0.51782 0.88108 1.01065 0.0
H85 H 0.41661 0.91483 0.05942 0.0
H86 H 0.10801 0.54504 0.0755 0.0
H87 H 0.16175 0.58011 0.9914 0.0
Li88 Li 0.65789 0.37509 0.56519 0.0
Li89 Li 0.74027 0.37455 0.56493 0.0
Li90 Li 0.65955 0.29243 0.5647 0.0
Li91 Li 0.68826 0.34825 0.60553 0.0
C92 C 0.65233 0.32904 0.51343 0.0
N93 N 0.58609 0.29293 0.46846 0.0
C94 C 0.67134 0.3272 0.48739 0.0
C95 C 0.59958 0.3125 0.51653 0.0
C96 C 0.63725 0.30881 0.46493 0.0
C97 C 0.56674 0.2944 0.49358 0.0
C98 C 0.73341 0.45218 0.60863 0.0
C99 C 0.78207 0.49306 0.65003 0.0
N100 N 0.7571 0.52076 0.65211 0.0
C101 C 0.70849 0.48131 0.6111 0.0
C102 C 0.7708 0.45837 0.62815 0.0
C103 C 0.72093 0.51569 0.63325 0.0
C104 C 0.58388 0.40842 0.56817 0.0
N105 N 0.62318 0.41074 0.55288 0.0
C106 C 0.61261 0.46327 0.51912 0.0
C107 C 0.63814 0.43774 0.52887 0.0
C108 C 0.57165 0.46159 0.5344 0.0
C109 C 0.5576 0.43383 0.55935 0.0
H110 H 0.57325 0.38711 0.58735 0.0
H111 H 0.66958 0.4389 0.51714 0.0
C112 C 0.81882 0.40099 0.52471 0.0
N113 N 0.80967 0.41163 0.55067 0.0
C114 C 0.86925 0.4261 0.51416 0.0
C115 C 0.89994 0.47289 0.55718 0.0
C116 C 0.8489 0.44713 0.56681 0.0
C117 C 0.91067 0.46239 0.53054 0.0
H118 H 0.78708 0.37218 0.51243 0.0
H119 H 0.84072 0.45506 0.58731 0.0
C120 C 0.58296 0.27251 0.60413 0.0
N121 N 0.51261 0.19045 0.63604 0.0
C122 C 0.5966 0.23776 0.61555 0.0
C123 C 0.53351 0.26544 0.60888 0.0
C124 C 0.5605 0.19656 0.63163 0.0
C125 C 0.4985 0.22373 0.62509 0.0
C126 C 0.77004 0.31698 0.58746 0.0
C127 C 0.78535 0.29974 0.56439 0.0
C128 C 0.80534 0.34144 0.60905 0.0
C129 C 0.83544 0.3068 0.56346 0.0
C130 C 0.85506 0.34772 0.60734 0.0
N131 N 0.86896 0.33042 0.58477 0.0
C132 C 0.6463 0.19236 0.55297 0.0
C133 C 0.57151 0.19932 0.5448 0.0
C134 C 0.6202 0.14061 0.54409 0.0
N135 N 0.62216 0.22099 0.55262 0.0
C136 C 0.54397 0.14777 0.53565 0.0
C137 C 0.56845 0.11778 0.535 0.0
H138 H 0.68569 0.2094 0.56037 0.0
H139 H 0.55212 0.22177 0.54594 0.0
C140 C 0.66409 0.37128 0.65859 0.0
N141 N 0.68494 0.34597 0.64502 0.0
C142 C 0.66241 0.37095 0.68735 0.0
C143 C 0.70041 0.3156 0.68763 0.0
C144 C 0.70177 0.3174 0.65889 0.0
C145 C 0.68111 0.34315 0.70226 0.0
H146 H 0.64902 0.39201 0.64706 0.0
H147 H 0.71606 0.29573 0.64763 0.0
O148 O 0.68542 0.34718 0.5356 0.0
O149 O 0.72156 0.41821 0.58709 0.0
O150 O 0.6176 0.31323 0.58831 0.0
O151 O 0.72151 0.31161 0.58843 0.0
H152 H 0.71199 0.33982 0.48449 0.0
H153 H 0.58389 0.31314 0.53649 0.0
H154 H 0.65149 0.30718 0.44468 0.0
H155 H 0.52583 0.28139 0.49576 0.0
H156 H 0.81051 0.49779 0.66542 0.0
H157 H 0.67991 0.47754 0.59608 0.0
H158 H 0.79006 0.43578 0.6268 0.0
H159 H 0.70181 0.53835 0.63545 0.0
H160 H 0.62439 0.4834 0.49959 0.0
H161 H 0.527 0.43216 0.57211 0.0
H162 H 0.87589 0.41638 0.49362 0.0
H163 H 0.93061 0.50101 0.57039 0.0
H164 H 0.63459 0.24243 0.61203 0.0
H165 H 0.52227 0.29185 0.60011 0.0
H166 H 0.57056 0.16942 0.6406 0.0
H167 H 0.46009 0.2178 0.62895 0.0
H168 H 0.75952 0.28266 0.54696 0.0
H169 H 0.79493 0.3562 0.62679 0.0
H170 H 0.84785 0.294 0.54563 0.0
H171 H 0.88273 0.36669 0.62389 0.0
H172 H 0.64062 0.11896 0.54403 0.0
H173 H 0.5037 0.13135 0.52953 0.0
H174 H 0.64613 0.39175 0.6978 0.0
H175 H 0.71506 0.29352 0.69829 0.0
Li176 Li 0.37591 0.73404 0.46029 0.0
Li177 Li 0.35312 0.68181 0.41777 0.0
Li178 Li 0.29479 0.65287 0.45931 0.0
Li179 Li 0.37543 0.64881 0.45965 0.0
C180 C 0.31596 0.75994 0.43187 0.0
N181 N 0.31945 0.8541 0.42564 0.0
C182 C 0.33411 0.78783 0.40734 0.0
C183 C 0.29908 0.77964 0.45313 0.0
C184 C 0.33565 0.83542 0.40462 0.0
C185 C 0.30134 0.82742 0.44962 0.0
C186 C 0.46441 0.7251 0.42509 0.0
C187 C 0.5188 0.69726 0.40276 0.0
N188 N 0.55488 0.7478 0.39787 0.0
C189 C 0.50231 0.7768 0.42013 0.0
C190 C 0.47293 0.68502 0.41657 0.0
C191 C 0.54766 0.78746 0.40622 0.0
C192 C 0.4128 0.81202 0.50177 0.0
N193 N 0.41137 0.80375 0.47415 0.0
C194 C 0.45953 0.89537 0.46584 0.0
C195 C 0.43442 0.84412 0.45621 0.0
C196 C 0.4614 0.9052 0.49427 0.0
C197 C 0.43773 0.86266 0.51233 0.0
H198 H 0.39451 0.77928 0.51563 0.0
H199 H 0.43315 0.83652 0.43436 0.0
C200 C 0.3091 0.64948 0.36515 0.0
N201 N 0.35399 0.68287 0.37841 0.0
C202 C 0.30689 0.64798 0.33638 0.0
C203 C 0.39712 0.71555 0.33541 0.0
C204 C 0.39745 0.71595 0.36418 0.0
C205 C 0.35139 0.68122 0.32105 0.0
H206 H 0.27492 0.62398 0.37699 0.0
H207 H 0.43242 0.74285 0.37507 0.0
C208 C 0.32142 0.65937 0.51198 0.0
N209 N 0.262 0.61965 0.55885 0.0
C210 C 0.31898 0.6165 0.52528 0.0
C211 C 0.29409 0.6824 0.52265 0.0
C212 C 0.28864 0.59693 0.54893 0.0
C213 C 0.26411 0.66161 0.54632 0.0
C214 C 0.30496 0.56649 0.42246 0.0
C215 C 0.26204 0.51905 0.43012 0.0
C216 C 0.33783 0.56752 0.40164 0.0
C217 C 0.25332 0.4733 0.41716 0.0
C218 C 0.32776 0.52096 0.38915 0.0
N219 N 0.28611 0.47519 0.39714 0.0
C220 C 0.19304 0.63724 0.46523 0.0
C221 C 0.20615 0.57229 0.48571 0.0
C222 C 0.14162 0.6123 0.47435 0.0
N223 N 0.22417 0.61715 0.47119 0.0
C224 C 0.15516 0.54629 0.49541 0.0
C225 C 0.12218 0.56634 0.48982 0.0
H226 H 0.20819 0.67275 0.45348 0.0
H227 H 0.23155 0.55685 0.48993 0.0
C228 C 0.45794 0.64258 0.48394 0.0
N229 N 0.40934 0.61312 0.47334 0.0
C230 C 0.48502 0.61904 0.4943 0.0
C231 C 0.41138 0.53516 0.48283 0.0
C232 C 0.38562 0.56033 0.47288 0.0
C233 C 0.46188 0.56452 0.49375 0.0
H234 H 0.47564 0.6845 0.48435 0.0
H235 H 0.34664 0.53758 0.46489 0.0
O236 O 0.31483 0.71364 0.43507 0.0
O237 O 0.41981 0.7141 0.43873 0.0
O238 O 0.3503 0.67859 0.48857 0.0
O239 O 0.31395 0.61161 0.43498 0.0
H240 H 0.34722 0.77309 0.39068 0.0
H241 H 0.2849 0.75851 0.47223 0.0
H242 H 0.34986 0.85757 0.3858 0.0
H243 H 0.28878 0.84333 0.46597 0.0
H244 H 0.52581 0.66658 0.39602 0.0
H245 H 0.49673 0.80837 0.42683 0.0
H246 H 0.44482 0.64489 0.42083 0.0
H247 H 0.57715 0.82728 0.4021 0.0
H248 H 0.47788 0.92693 0.4512 0.0
H249 H 0.43788 0.86843 0.53437 0.0
H250 H 0.2705 0.6215 0.32631 0.0
H251 H 0.43257 0.74153 0.32459 0.0
H252 H 0.33997 0.59828 0.51732 0.0
H253 H 0.2956 0.71561 0.51261 0.0
H254 H 0.28617 0.5636 0.55937 0.0
H255 H 0.24244 0.67878 0.55469 0.0
H256 H 0.23585 0.51749 0.44597 0.0
H257 H 0.37039 0.60385 0.3949 0.0
H258 H 0.22043 0.4363 0.42301 0.0
H259 H 0.35295 0.52124 0.37303 0.0
H260 H 0.11763 0.62929 0.46975 0.0
H261 H 0.14156 0.5106 0.50693 0.0
H262 H 0.52342 0.64334 0.50295 0.0
H263 H 0.39205 0.49314 0.48168 0.0
Li264 Li 0.65982 0.2882 0.95884 0.0
Li265 Li 0.66084 0.37145 0.95978 0.0
Li266 Li 0.68682 0.34215 0.91849 0.0
Li267 Li 0.74217 0.37124 0.95988 0.0
C268 C 0.58545 0.29971 0.91486 0.0
N269 N 0.52386 0.28371 0.86901 0.0
C270 C 0.56446 0.33187 0.90998 0.0
C271 C 0.57486 0.25922 0.89651 0.0
C272 C 0.53343 0.32315 0.88668 0.0
C273 C 0.54376 0.25186 0.87341 0.0
C274 C 0.67032 0.35133 1.0122 0.0
C275 C 0.67414 0.41071 0.0473 0.0
N276 N 0.63294 0.37068 0.06014 0.0
C277 C 0.62813 0.31073 0.02578 0.0
C278 C 0.69371 0.4017 0.02308 0.0
C279 C 0.60978 0.32133 0.04999 0.0
C280 C 0.64745 0.20608 0.99328 0.0
N281 N 0.62522 0.21863 0.97239 0.0
C282 C 0.55363 0.13157 0.97068 0.0
C283 C 0.5791 0.18275 0.96112 0.0
C284 C 0.57572 0.11724 0.99217 0.0
C285 C 0.62334 0.15535 1.00349 0.0
H286 H 0.68391 0.23562 1.00205 0.0
H287 H 0.56208 0.19384 0.9447 0.0
C288 C 0.64389 0.45673 0.96544 0.0
N289 N 0.62558 0.40629 0.97258 0.0
C290 C 0.61847 0.48295 0.97429 0.0
C291 C 0.55587 0.40484 0.99775 0.0
C292 C 0.58196 0.3799 0.98802 0.0
C293 C 0.57392 0.45719 0.9909 0.0
H294 H 0.67796 0.47648 0.9526 0.0
H295 H 0.5675 0.33943 0.99286 0.0
C296 C 0.72876 0.26715 0.93901 0.0
N297 N 0.73662 0.17919 0.94677 0.0
C298 C 0.76495 0.26793 0.95772 0.0
C299 C 0.69675 0.22174 0.92413 0.0
C300 C 0.76832 0.22304 0.96135 0.0
C301 C 0.70123 0.17763 0.9284 0.0
C302 C 0.76672 0.45724 0.9322 0.0
C303 C 0.79466 0.46579 0.90779 0.0
C304 C 0.78657 0.49464 0.95315 0.0
C305 C 0.84239 0.51158 0.90485 0.0
C306 C 0.83448 0.53986 0.94944 0.0
N307 N 0.86117 0.54732 0.92558 0.0
C308 C 0.67177 0.37394 0.86602 0.0
C309 C 0.70168 0.31349 0.8649 0.0
C310 C 0.66991 0.37447 0.83727 0.0
N311 N 0.6869 0.34329 0.87917 0.0
C312 C 0.70067 0.31302 0.83613 0.0
C313 C 0.68433 0.34358 0.82188 0.0
H314 H 0.66065 0.39761 0.87792 0.0
H315 H 0.71436 0.29015 0.87585 0.0
C316 C 0.82151 0.41304 1.00058 0.0
N317 N 0.81221 0.40552 0.97306 0.0
C318 C 0.87238 0.43751 1.01069 0.0
C319 C 0.90324 0.44572 0.96395 0.0
C320 C 0.85173 0.42064 0.95478 0.0
C321 C 0.91425 0.45452 0.9923 0.0
H322 H 0.78939 0.39952 0.01474 0.0
H323 H 0.8432 0.41324 0.93303 0.0
O324 O 0.6167 0.30821 0.93729 0.0
O325 O 0.68852 0.34185 0.98832 0.0
O326 O 0.72402 0.31031 0.93564 0.0
O327 O 0.72031 0.41234 0.93564 0.0
H328 H 0.57234 0.36347 0.9239 0.0
H329 H 0.59127 0.23433 0.89979 0.0
H330 H 0.51709 0.34786 0.88259 0.0
H331 H 0.53563 0.22098 0.85891 0.0
H332 H 0.69166 0.44955 0.05586 0.0
H333 H 0.60941 0.27157 0.01759 0.0
H334 H 0.72629 0.43356 0.01278 0.0
H335 H 0.57702 0.29035 0.06066 0.0
H336 H 0.5173 0.10343 0.96113 0.0
H337 H 0.64141 0.14631 0.02033 0.0
H338 H 0.63329 0.52276 0.96779 0.0
H339 H 0.5222 0.38329 1.01072 0.0
H340 H 0.78984 0.30264 0.96951 0.0
H341 H 0.66813 0.22029 0.90979 0.0
H342 H 0.796 0.22301 0.97585 0.0
H343 H 0.67642 0.14209 0.9172 0.0
H344 H 0.77994 0.43718 0.8914 0.0
H345 H 0.7654 0.48859 0.97215 0.0
H346 H 0.86457 0.51863 0.88614 0.0
H347 H 0.85048 0.569 0.96554 0.0
H348 H 0.65658 0.39826 0.82726 0.0
H349 H 0.71316 0.28941 0.82518 0.0
H350 H 0.8787 0.44228 0.03273 0.0
H351 H 0.93406 0.4585 0.94892 0.0
C352 C 0.32105 0.63208 0.24705 0.0
C353 C 0.34981 0.67823 0.23202 0.0
H354 H 0.29998 0.59653 0.28678 0.0
C355 C 0.37829 0.72541 0.2464 0.0
H356 H 0.29917 0.59506 0.23652 0.0
C357 C 0.37832 0.72643 0.27518 0.0
C358 C 0.35023 0.6802 0.29034 0.0
H359 H 0.40018 0.76171 0.23536 0.0
H360 H 0.40003 0.76364 0.28553 0.0
C361 C 0.32144 0.63301 0.27587 0.0
C362 C 0.66575 0.29686 0.74754 0.0
C363 C 0.68076 0.34301 0.73288 0.0
H364 H 0.65397 0.26056 0.78695 0.0
C365 C 0.69627 0.38925 0.74769 0.0
H366 H 0.65286 0.26046 0.73673 0.0
C367 C 0.6973 0.38944 0.77649 0.0
C368 C 0.68259 0.34333 0.7912 0.0
H369 H 0.70873 0.42558 0.73698 0.0
H370 H 0.71065 0.42599 0.78721 0.0
C371 C 0.66652 0.29698 0.77634 0.0
C372 C 0.54847 0.56395 0.01607 0.0
C373 C 0.49439 0.53667 0.01962 0.0
H374 H 0.61615 0.56027 1.00531 0.0
C375 C 0.46645 0.4832 0.01375 0.0
H376 H 0.57097 0.60512 0.02077 0.0
C377 C 0.49206 0.45755 1.00423 0.0
C378 C 0.54642 0.4846 1.00084 0.0
H379 H 0.42461 0.46141 0.01607 0.0
H380 H 0.46898 0.41662 0.99917 0.0
C381 C 0.57425 0.53817 1.00704 0.0
C382 C 0.05687 0.51998 0.52717 0.0
C383 C 0.06794 0.53959 0.50018 0.0
H384 H 0.99861 0.4801 0.55785 0.0
C385 C 0.02685 0.5335 0.48321 0.0
H386 H 0.08773 0.52447 0.54083 0.0
C387 C 0.97581 0.50824 0.49299 0.0
C388 C 0.9648 0.48887 0.52003 0.0
H389 H 0.03407 0.54779 0.46224 0.0
H390 H 0.94503 0.50444 0.47948 0.0
C391 C 1.00591 0.49505 0.537 0.0
C392 C 0.57751 0.03857 1.00989 0.0
C393 C 0.54902 0.06303 1.00282 0.0
H394 H 0.57549 0.97011 0.02539 0.0
C395 C 0.49474 0.03527 1.00601 0.0
H396 H 0.6193 0.05862 1.00743 0.0
C397 C 0.46957 0.98433 0.01599 0.0
C398 C 0.49804 0.95986 0.02307 0.0
H399 H 0.47164 0.05308 1.00105 0.0
H400 H 0.42767 0.96392 0.01787 0.0
C401 C 0.55232 0.9876 0.01989 0.0
C402 C 0.57042 0.53622 0.51044 0.0
C403 C 0.54364 0.48831 0.52429 0.0
H404 H 0.56583 0.59717 0.48957 0.0
C405 C 0.48978 0.46597 0.5282 0.0
H406 H 0.61199 0.55503 0.50735 0.0
C407 C 0.46343 0.49079 0.51851 0.0
C408 C 0.49012 0.53846 0.50446 0.0
H409 H 0.46765 0.42884 0.53844 0.0
H410 H 0.42209 0.47266 0.52226 0.0
C411 C 0.544 0.56084 0.50057 0.0
C412 C 0.05778 0.49762 0.99955 0.0
C413 C 0.07272 0.53178 0.02216 0.0
H414 H 0.99614 0.44553 0.97285 0.0
C415 C 0.03522 0.54017 0.03498 0.0
H416 H 0.08568 0.48988 0.98946 0.0
C417 C 0.98401 0.5153 0.02527 0.0
C418 C 0.96889 0.48101 1.00264 0.0
H419 H 0.04573 0.56686 0.0522 0.0
H420 H 0.95652 0.52371 0.03526 0.0
C421 C 1.00645 0.47236 0.98998 0.0
C422 C 0.50821 0.04949 0.50141 0.0
C423 C 0.54026 0.06309 0.52489 0.0
H424 H 0.45802 0.98911 0.47347 0.0
C425 C 0.54566 0.02419 0.53841 0.0
H426 H 0.50357 0.0786 0.49038 0.0
C427 C 0.51983 0.97297 0.5286 0.0
C428 C 0.48816 0.95948 0.50498 0.0
H429 H 0.56962 0.03324 0.5567 0.0
H430 H 0.52532 0.94408 0.5393 0.0
C431 C 0.48256 0.99832 0.49154 0.0
loop_
_geom_bond_atom_site_label_1
_geom_bond_atom_site_label_2
_geom_bond_distance
_geom_bond_site_symmetry_2
_ccdc_geom_bond_type
Li0 N17 1.990 . S
Li0 O60 1.956 . S
Li0 O61 1.970 . S
Li0 O62 1.961 . S
Li1 N25 1.990 . S
Li1 O60 1.970 . S
Li1 O61 1.956 . S
Li1 O63 1.961 . S
Li2 N47 1.990 . S
Li2 O60 1.961 . S
Li2 O62 1.956 . S
Li2 O63 1.970 . S
Li3 N53 1.990 . S
Li3 O61 1.961 . S
Li3 O62 1.970 . S
Li3 O63 1.956 . S
C4 C6 1.348 . S
C4 C7 1.356 . S
C4 O60 1.325 . S
N5 C8 1.314 . S
N5 C9 1.279 . S
C6 C4 1.348 . S
C6 C8 1.353 . S
C6 H64 0.929 . S
C7 C4 1.356 . S
C7 C9 1.358 . S
C7 H65 0.930 . S
C8 N5 1.314 . S
C8 C6 1.353 . S
C8 H66 0.930 . S
C9 N5 1.279 . S
C9 C7 1.358 . S
C9 H67 0.930 . S
C10 C13 1.348 . S
C10 C14 1.356 . S
C10 O61 1.325 . S
C11 N12 1.279 . S
C11 C14 1.358 . S
C11 H68 0.930 . S
N12 C11 1.279 . S
N12 C15 1.314 . S
C13 C10 1.348 . S
C13 C15 1.353 . S
C13 H69 0.929 . S
C14 C10 1.356 . S
C14 C11 1.358 . S
C14 H70 0.930 . S
C15 N12 1.314 . S
C15 C13 1.353 . S
C15 H71 0.930 . S
C16 N17 1.314 . S
C16 C21 1.353 . S
C16 H22 0.930 . S
N17 Li0 1.990 . S
N17 C16 1.314 . S
N17 C19 1.279 . S
C18 C19 1.358 . S
C18 C20 1.356 . S
C18 H72 0.930 . S
C19 N17 1.279 . S
C19 C18 1.358 . S
C19 H23 0.930 . S
C20 C18 1.356 . S
C20 C21 1.348 . S
C21 C16 1.353 . S
C21 C20 1.348 . S
C21 H73 0.929 . S
H22 C16 0.930 . S
H23 C19 0.930 . S
C24 N25 1.314 . S
C24 C26 1.353 . S
C24 H30 0.930 . S
N25 Li1 1.990 . S
N25 C24 1.314 . S
N25 C28 1.279 . S
C26 C24 1.353 . S
C26 C29 1.348 . S
C26 H74 0.929 1_554 S
C27 C28 1.358 . S
C27 C29 1.356 . S
C27 H75 0.930 . S
C28 N25 1.279 . S
C28 C27 1.358 . S
C28 H31 0.930 . S
C29 C26 1.348 . S
C29 C27 1.356 . S
H30 C24 0.930 . S
H31 C28 0.930 . S
C32 C34 1.348 . S
C32 C35 1.356 . S
C32 O62 1.325 . S
N33 C36 1.314 . S
N33 C37 1.279 . S
C34 C32 1.348 . S
C34 C36 1.353 . S
C34 H76 0.929 . S
C35 C32 1.356 . S
C35 C37 1.358 . S
C35 H77 0.930 . S
C36 N33 1.314 . S
C36 C34 1.353 . S
C36 H78 0.930 . S
C37 N33 1.279 . S
C37 C35 1.358 . S
C37 H79 0.930 . S
C38 C39 1.336 1_554 S
C38 C40 1.345 1_554 S
C38 O63 1.346 . S
C39 C38 1.336 1_556 S
C39 C41 1.353 . S
C39 H80 0.929 . S
C40 C38 1.345 1_556 S
C40 C42 1.358 . S
C40 H81 0.930 . S
C41 C39 1.353 . S
C41 N43 1.314 . S
C41 H82 0.930 . S
C42 C40 1.358 . S
C42 N43 1.279 . S
C42 H83 0.930 . S
N43 C41 1.314 . S
N43 C42 1.279 . S
C44 C46 1.353 . S
C44 N47 1.314 . S
C44 H50 0.930 . S
C45 N47 1.279 . S
C45 C48 1.358 . S
C45 H51 0.930 . S
C46 C44 1.353 . S
C46 C49 1.348 . S
C46 H84 0.929 . S
N47 Li2 1.990 . S
N47 C44 1.314 . S
N47 C45 1.279 . S
C48 C45 1.358 . S
C48 C49 1.356 . S
C48 H85 0.930 . S
C49 C46 1.348 . S
C49 C48 1.356 . S
H50 C44 0.930 . S
H51 C45 0.930 . S
C52 N53 1.314 . S
C52 C54 1.353 . S
C52 H58 0.930 . S
N53 Li3 1.990 . S
N53 C52 1.314 . S
N53 C56 1.279 . S
C54 C52 1.353 . S
C54 C57 1.348 . S
C54 H86 0.929 . S
C55 C56 1.358 . S
C55 C57 1.356 . S
C55 H87 0.930 1_554 S
C56 N53 1.279 . S
C56 C55 1.358 . S
C56 H59 0.929 1_554 S
C57 C54 1.348 . S
C57 C55 1.356 . S
H58 C52 0.930 . S
H59 C56 0.929 1_556 S
O60 Li0 1.956 . S
O60 Li1 1.970 . S
O60 Li2 1.961 . S
O60 C4 1.325 . S
O61 Li0 1.970 . S
O61 Li1 1.956 . S
O61 Li3 1.961 . S
O61 C10 1.325 . S
O62 Li0 1.961 . S
O62 Li2 1.956 . S
O62 Li3 1.970 . S
O62 C32 1.325 . S
O63 Li1 1.961 . S
O63 Li2 1.970 . S
O63 Li3 1.956 . S
O63 C38 1.346 . S
H64 C6 0.929 . S
H65 C7 0.930 . S
H66 C8 0.930 . S
H67 C9 0.930 . S
H68 C11 0.930 . S
H69 C13 0.929 . S
H70 C14 0.930 . S
H71 C15 0.930 . S
H72 C18 0.930 . S
H73 C21 0.929 . S
H74 C26 0.929 1_556 S
H75 C27 0.930 . S
H76 C34 0.929 . S
H77 C35 0.930 . S
H78 C36 0.930 . S
H79 C37 0.930 . S
H80 C39 0.929 . S
H81 C40 0.930 . S
H82 C41 0.930 . S
H83 C42 0.930 . S
H84 C46 0.929 . S
H85 C48 0.930 . S
H86 C54 0.929 . S
H87 C55 0.930 1_556 S
Li88 N105 1.990 . S
Li88 O148 1.956 . S
Li88 O149 1.970 . S
Li88 O150 1.961 . S
Li89 N113 1.990 . S
Li89 O148 1.970 . S
Li89 O149 1.956 . S
Li89 O151 1.961 . S
Li90 N135 1.990 . S
Li90 O148 1.961 . S
Li90 O150 1.956 . S
Li90 O151 1.970 . S
Li91 N141 1.990 . S
Li91 O149 1.961 . S
Li91 O150 1.970 . S
Li91 O151 1.956 . S
C92 C94 1.348 . S
C92 C95 1.356 . S
C92 O148 1.325 . S
N93 C96 1.314 . S
N93 C97 1.279 . S
C94 C92 1.348 . S
C94 C96 1.353 . S
C94 H152 0.929 . S
C95 C92 1.356 . S
C95 C97 1.358 . S
C95 H153 0.930 . S
C96 N93 1.314 . S
C96 C94 1.353 . S
C96 H154 0.930 . S
C97 N93 1.279 . S
C97 C95 1.358 . S
C97 H155 0.930 . S
C98 C101 1.348 . S
C98 C102 1.356 . S
C98 O149 1.325 . S
C99 N100 1.279 . S
C99 C102 1.358 . S
C99 H156 0.930 . S
N100 C99 1.279 . S
N100 C103 1.314 . S
C101 C98 1.348 . S
C101 C103 1.353 . S
C101 H157 0.929 . S
C102 C98 1.356 . S
C102 C99 1.358 . S
C102 H158 0.930 . S
C103 N100 1.314 . S
C103 C101 1.353 . S
C103 H159 0.930 . S
C104 N105 1.314 . S
C104 C109 1.353 . S
C104 H110 0.930 . S
N105 Li88 1.990 . S
N105 C104 1.314 . S
N105 C107 1.279 . S
C106 C107 1.358 . S
C106 C108 1.356 . S
C106 H160 0.930 . S
C107 N105 1.279 . S
C107 C106 1.358 . S
C107 H111 0.930 . S
C108 C106 1.356 . S
C108 C109 1.348 . S
C109 C104 1.353 . S
C109 C108 1.348 . S
C109 H161 0.929 . S
H110 C104 0.930 . S
H111 C107 0.930 . S
C112 N113 1.314 . S
C112 C114 1.353 . S
C112 H118 0.930 . S
N113 Li89 1.990 . S
N113 C112 1.314 . S
N113 C116 1.279 . S
C114 C112 1.353 . S
C114 C117 1.348 . S
C114 H162 0.929 . S
C115 C116 1.358 . S
C115 C117 1.356 . S
C115 H163 0.930 . S
C116 N113 1.279 . S
C116 C115 1.358 . S
C116 H119 0.930 . S
C117 C114 1.348 . S
C117 C115 1.356 . S
H118 C112 0.930 . S
H119 C116 0.930 . S
C120 C122 1.348 . S
C120 C123 1.356 . S
C120 O150 1.325 . S
N121 C124 1.314 . S
N121 C125 1.279 . S
C122 C120 1.348 . S
C122 C124 1.353 . S
C122 H164 0.929 . S
C123 C120 1.356 . S
C123 C125 1.358 . S
C123 H165 0.930 . S
C124 N121 1.314 . S
C124 C122 1.353 . S
C124 H166 0.930 . S
C125 N121 1.279 . S
C125 C123 1.358 . S
C125 H167 0.930 . S
C126 C127 1.348 . S
C126 C128 1.356 . S
C126 O151 1.325 . S
C127 C126 1.348 . S
C127 C129 1.353 . S
C127 H168 0.929 . S
C128 C126 1.356 . S
C128 C130 1.358 . S
C128 H169 0.930 . S
C129 C127 1.353 . S
C129 N131 1.314 . S
C129 H170 0.930 . S
C130 C128 1.358 . S
C130 N131 1.279 . S
C130 H171 0.930 . S
N131 C129 1.314 . S
N131 C130 1.279 . S
C132 C134 1.353 . S
C132 N135 1.314 . S
C132 H138 0.930 . S
C133 N135 1.279 . S
C133 C136 1.358 . S
C133 H139 0.930 . S
C134 C132 1.353 . S
C134 C137 1.348 . S
C134 H172 0.929 . S
N135 Li90 1.990 . S
N135 C132 1.314 . S
N135 C133 1.279 . S
C136 C133 1.358 . S
C136 C137 1.356 . S
C136 H173 0.930 . S
C137 C134 1.348 . S
C137 C136 1.356 . S
H138 C132 0.930 . S
H139 C133 0.930 . S
C140 N141 1.314 . S
C140 C142 1.353 . S
C140 H146 0.930 . S
N141 Li91 1.990 . S
N141 C140 1.314 . S
N141 C144 1.279 . S
C142 C140 1.353 . S
C142 C145 1.348 . S
C142 H174 0.929 . S
C143 C144 1.358 . S
C143 C145 1.356 . S
C143 H175 0.930 . S
C144 N141 1.279 . S
C144 C143 1.358 . S
C144 H147 0.930 . S
C145 C142 1.348 . S
C145 C143 1.356 . S
H146 C140 0.930 . S
H147 C144 0.930 . S
O148 Li88 1.956 . S
O148 Li89 1.970 . S
O148 Li90 1.961 . S
O148 C92 1.325 . S
O149 Li88 1.970 . S
O149 Li89 1.956 . S
O149 Li91 1.961 . S
O149 C98 1.325 . S
O150 Li88 1.961 . S
O150 Li90 1.956 . S
O150 Li91 1.970 . S
O150 C120 1.325 . S
O151 Li89 1.961 . S
O151 Li90 1.970 . S
O151 Li91 1.956 . S
O151 C126 1.325 . S
H152 C94 0.929 . S
H153 C95 0.930 . S
H154 C96 0.930 . S
H155 C97 0.930 . S
H156 C99 0.930 . S
H157 C101 0.929 . S
H158 C102 0.930 . S
H159 C103 0.930 . S
H160 C106 0.930 . S
H161 C109 0.929 . S
H162 C114 0.929 . S
H163 C115 0.930 . S
H164 C122 0.929 . S
H165 C123 0.930 . S
H166 C124 0.930 . S
H167 C125 0.930 . S
H168 C127 0.929 . S
H169 C128 0.930 . S
H170 C129 0.930 . S
H171 C130 0.930 . S
H172 C134 0.929 . S
H173 C136 0.930 . S
H174 C142 0.929 . S
H175 C143 0.930 . S
Li176 N193 1.990 . S
Li176 O236 1.956 . S
Li176 O237 1.970 . S
Li176 O238 1.961 . S
Li177 N201 1.990 . S
Li177 O236 1.970 . S
Li177 O237 1.956 . S
Li177 O239 1.961 . S
Li178 N223 1.990 . S
Li178 O236 1.961 . S
Li178 O238 1.956 . S
Li178 O239 1.970 . S
Li179 N229 1.990 . S
Li179 O237 1.961 . S
Li179 O238 1.970 . S
Li179 O239 1.956 . S
C180 C182 1.348 . S
C180 C183 1.356 . S
C180 O236 1.325 . S
N181 C184 1.314 . S
N181 C185 1.279 . S
C182 C180 1.348 . S
C182 C184 1.353 . S
C182 H240 0.929 . S
C183 C180 1.356 . S
C183 C185 1.358 . S
C183 H241 0.930 . S
C184 N181 1.314 . S
C184 C182 1.353 . S
C184 H242 0.930 . S
C185 N181 1.279 . S
C185 C183 1.358 . S
C185 H243 0.930 . S
C186 C189 1.348 . S
C186 C190 1.356 . S
C186 O237 1.325 . S
C187 N188 1.279 . S
C187 C190 1.358 . S
C187 H244 0.930 . S
N188 C187 1.279 . S
N188 C191 1.314 . S
C189 C186 1.348 . S
C189 C191 1.353 . S
C189 H245 0.929 . S
C190 C186 1.356 . S
C190 C187 1.358 . S
C190 H246 0.930 . S
C191 N188 1.314 . S
C191 C189 1.353 . S
C191 H247 0.930 . S
C192 N193 1.314 . S
C192 C197 1.353 . S
C192 H198 0.930 . S
N193 Li176 1.990 . S
N193 C192 1.314 . S
N193 C195 1.279 . S
C194 C195 1.358 . S
C194 C196 1.356 . S
C194 H248 0.930 . S
C195 N193 1.279 . S
C195 C194 1.358 . S
C195 H199 0.930 . S
C196 C194 1.356 . S
C196 C197 1.348 . S
C197 C192 1.353 . S
C197 C196 1.348 . S
C197 H249 0.929 . S
H198 C192 0.930 . S
H199 C195 0.930 . S
C200 N201 1.314 . S
C200 C202 1.353 . S
C200 H206 0.930 . S
N201 Li177 1.990 . S
N201 C200 1.314 . S
N201 C204 1.279 . S
C202 C200 1.353 . S
C202 C205 1.348 . S
C202 H250 0.929 . S
C203 C204 1.358 . S
C203 C205 1.356 . S
C203 H251 0.930 . S
C204 N201 1.279 . S
C204 C203 1.358 . S
C204 H207 0.930 . S
C205 C202 1.348 . S
C205 C203 1.356 . S
H206 C200 0.930 . S
H207 C204 0.930 . S
C208 C210 1.348 . S
C208 C211 1.356 . S
C208 O238 1.325 . S
N209 C212 1.314 . S
N209 C213 1.279 . S
C210 C208 1.348 . S
C210 C212 1.353 . S
C210 H252 0.929 . S
C211 C208 1.356 . S
C211 C213 1.358 . S
C211 H253 0.930 . S
C212 N209 1.314 . S
C212 C210 1.353 . S
C212 H254 0.930 . S
C213 N209 1.279 . S
C213 C211 1.358 . S
C213 H255 0.930 . S
C214 C215 1.348 . S
C214 C216 1.356 . S
C214 O239 1.325 . S
C215 C214 1.348 . S
C215 C217 1.353 . S
C215 H256 0.929 . S
C216 C214 1.356 . S
C216 C218 1.358 . S
C216 H257 0.930 . S
C217 C215 1.353 . S
C217 N219 1.314 . S
C217 H258 0.930 . S
C218 C216 1.358 . S
C218 N219 1.279 . S
C218 H259 0.930 . S
N219 C217 1.314 . S
N219 C218 1.279 . S
C220 C222 1.353 . S
C220 N223 1.314 . S
C220 H226 0.930 . S
C221 N223 1.279 . S
C221 C224 1.358 . S
C221 H227 0.930 . S
C222 C220 1.353 . S
C222 C225 1.348 . S
C222 H260 0.929 . S
N223 Li178 1.990 . S
N223 C220 1.314 . S
N223 C221 1.279 . S
C224 C221 1.358 . S
C224 C225 1.356 . S
C224 H261 0.930 . S
C225 C222 1.348 . S
C225 C224 1.356 . S
H226 C220 0.930 . S
H227 C221 0.930 . S
C228 N229 1.314 . S
C228 C230 1.353 . S
C228 H234 0.930 . S
N229 Li179 1.990 . S
N229 C228 1.314 . S
N229 C232 1.279 . S
C230 C228 1.353 . S
C230 C233 1.348 . S
C230 H262 0.929 . S
C231 C232 1.358 . S
C231 C233 1.356 . S
C231 H263 0.930 . S
C232 N229 1.279 . S
C232 C231 1.358 . S
C232 H235 0.930 . S
C233 C230 1.348 . S
C233 C231 1.356 . S
H234 C228 0.930 . S
H235 C232 0.930 . S
O236 Li176 1.956 . S
O236 Li177 1.970 . S
O236 Li178 1.961 . S
O236 C180 1.325 . S
O237 Li176 1.970 . S
O237 Li177 1.956 . S
O237 Li179 1.961 . S
O237 C186 1.325 . S
O238 Li176 1.961 . S
O238 Li178 1.956 . S
O238 Li179 1.970 . S
O238 C208 1.325 . S
O239 Li177 1.961 . S
O239 Li178 1.970 . S
O239 Li179 1.956 . S
O239 C214 1.325 . S
H240 C182 0.929 . S
H241 C183 0.930 . S
H242 C184 0.930 . S
H243 C185 0.930 . S
H244 C187 0.930 . S
H245 C189 0.929 . S
H246 C190 0.930 . S
H247 C191 0.930 . S
H248 C194 0.930 . S
H249 C197 0.929 . S
H250 C202 0.929 . S
H251 C203 0.930 . S
H252 C210 0.929 . S
H253 C211 0.930 . S
H254 C212 0.930 . S
H255 C213 0.930 . S
H256 C215 0.929 . S
H257 C216 0.930 . S
H258 C217 0.930 . S
H259 C218 0.930 . S
H260 C222 0.929 . S
H261 C224 0.930 . S
H262 C230 0.929 . S
H263 C231 0.930 . S
Li264 N281 1.990 . S
Li264 O324 1.956 . S
Li264 O325 1.970 . S
Li264 O326 1.961 . S
Li265 N289 1.990 . S
Li265 O324 1.970 . S
Li265 O325 1.956 . S
Li265 O327 1.961 . S
Li266 N311 1.990 . S
Li266 O324 1.961 . S
Li266 O326 1.956 . S
Li266 O327 1.970 . S
Li267 N317 1.990 . S
Li267 O325 1.961 . S
Li267 O326 1.970 . S
Li267 O327 1.956 . S
C268 C270 1.348 . S
C268 C271 1.356 . S
C268 O324 1.325 . S
N269 C272 1.314 . S
N269 C273 1.279 . S
C270 C268 1.348 . S
C270 C272 1.353 . S
C270 H328 0.929 . S
C271 C268 1.356 . S
C271 C273 1.358 . S
C271 H329 0.930 . S
C272 N269 1.314 . S
C272 C270 1.353 . S
C272 H330 0.930 . S
C273 N269 1.279 . S
C273 C271 1.358 . S
C273 H331 0.930 . S
C274 C277 1.336 1_556 S
C274 C278 1.345 1_556 S
C274 O325 1.346 . S
C275 N276 1.279 . S
C275 C278 1.358 . S
C275 H332 0.930 . S
N276 C275 1.279 . S
N276 C279 1.314 . S
C277 C274 1.336 1_554 S
C277 C279 1.353 . S
C277 H333 0.929 . S
C278 C274 1.345 1_554 S
C278 C275 1.358 . S
C278 H334 0.930 . S
C279 N276 1.314 . S
C279 C277 1.353 . S
C279 H335 0.930 . S
C280 N281 1.314 . S
C280 C285 1.353 . S
C280 H286 0.930 . S
N281 Li264 1.990 . S
N281 C280 1.314 . S
N281 C283 1.279 . S
C282 C283 1.358 . S
C282 C284 1.356 . S
C282 H336 0.930 . S
C283 N281 1.279 . S
C283 C282 1.358 . S
C283 H287 0.930 . S
C284 C282 1.356 . S
C284 C285 1.348 . S
C285 C280 1.353 . S
C285 C284 1.348 . S
C285 H337 0.929 . S
H286 C280 0.930 . S
H287 C283 0.930 . S
C288 N289 1.314 . S
C288 C290 1.353 . S
C288 H294 0.930 . S
N289 Li265 1.990 . S
N289 C288 1.314 . S
N289 C292 1.279 . S
C290 C288 1.353 . S
C290 C293 1.348 . S
C290 H338 0.929 . S
C291 C292 1.358 . S
C291 C293 1.356 . S
C291 H339 0.930 1_556 S
C292 N289 1.279 . S
C292 C291 1.358 . S
C292 H295 0.929 1_556 S
C293 C290 1.348 . S
C293 C291 1.356 . S
H294 C288 0.930 . S
H295 C292 0.929 1_554 S
C296 C298 1.348 . S
C296 C299 1.356 . S
C296 O326 1.325 . S
N297 C300 1.314 . S
N297 C301 1.279 . S
C298 C296 1.348 . S
C298 C300 1.353 . S
C298 H340 0.929 . S
C299 C296 1.356 . S
C299 C301 1.358 . S
C299 H341 0.930 . S
C300 N297 1.314 . S
C300 C298 1.353 . S
C300 H342 0.930 . S
C301 N297 1.279 . S
C301 C299 1.358 . S
C301 H343 0.930 . S
C302 C303 1.348 . S
C302 C304 1.356 . S
C302 O327 1.325 . S
C303 C302 1.348 . S
C303 C305 1.353 . S
C303 H344 0.929 . S
C304 C302 1.356 . S
C304 C306 1.358 . S
C304 H345 0.930 . S
C305 C303 1.353 . S
C305 N307 1.314 . S
C305 H346 0.930 . S
C306 C304 1.358 . S
C306 N307 1.279 . S
C306 H347 0.930 . S
N307 C305 1.314 . S
N307 C306 1.279 . S
C308 C310 1.353 . S
C308 N311 1.314 . S
C308 H314 0.930 . S
C309 N311 1.279 . S
C309 C312 1.358 . S
C309 H315 0.930 . S
C310 C308 1.353 . S
C310 C313 1.348 . S
C310 H348 0.929 . S
N311 Li266 1.990 . S
N311 C308 1.314 . S
N311 C309 1.279 . S
C312 C309 1.358 . S
C312 C313 1.356 . S
C312 H349 0.930 . S
C313 C310 1.348 . S
C313 C312 1.356 . S
H314 C308 0.930 . S
H315 C309 0.930 . S
C316 N317 1.314 . S
C316 C318 1.353 . S
C316 H322 0.930 . S
N317 Li267 1.990 . S
N317 C316 1.314 . S
N317 C320 1.279 . S
C318 C316 1.353 . S
C318 C321 1.348 . S
C318 H350 0.929 1_556 S
C319 C320 1.358 . S
C319 C321 1.356 . S
C319 H351 0.930 . S
C320 N317 1.279 . S
C320 C319 1.358 . S
C320 H323 0.930 . S
C321 C318 1.348 . S
C321 C319 1.356 . S
H322 C316 0.930 . S
H323 C320 0.930 . S
O324 Li264 1.956 . S
O324 Li265 1.970 . S
O324 Li266 1.961 . S
O324 C268 1.325 . S
O325 Li264 1.970 . S
O325 Li265 1.956 . S
O325 Li267 1.961 . S
O325 C274 1.346 . S
O326 Li264 1.961 . S
O326 Li266 1.956 . S
O326 Li267 1.970 . S
O326 C296 1.325 . S
O327 Li265 1.961 . S
O327 Li266 1.970 . S
O327 Li267 1.956 . S
O327 C302 1.325 . S
H328 C270 0.929 . S
H329 C271 0.930 . S
H330 C272 0.930 . S
H331 C273 0.930 . S
H332 C275 0.930 . S
H333 C277 0.929 . S
H334 C278 0.930 . S
H335 C279 0.930 . S
H336 C282 0.930 . S
H337 C285 0.929 . S
H338 C290 0.929 . S
H339 C291 0.930 1_554 S
H340 C298 0.929 . S
H341 C299 0.930 . S
H342 C300 0.930 . S
H343 C301 0.930 . S
H344 C303 0.929 . S
H345 C304 0.930 . S
H346 C305 0.930 . S
H347 C306 0.930 . S
H348 C310 0.929 . S
H349 C312 0.930 . S
H350 C318 0.929 1_554 S
H351 C319 0.930 . S
C352 C353 1.387 . S
C352 H356 0.950 . S
C352 C361 1.390 . S
C353 C352 1.387 . S
C353 C355 1.387 . S
H354 C361 0.950 . S
C355 C353 1.387 . S
C355 C357 1.390 . S
C355 H359 0.950 . S
H356 C352 0.950 . S
C357 C355 1.390 . S
C357 C358 1.387 . S
C357 H360 0.950 . S
C358 C357 1.387 . S
C358 C361 1.387 . S
H359 C355 0.950 . S
H360 C357 0.950 . S
C361 C352 1.390 . S
C361 H354 0.950 . S
C361 C358 1.387 . S
C362 C363 1.387 . S
C362 H366 0.950 . S
C362 C371 1.390 . S
C363 C362 1.387 . S
C363 C365 1.387 . S
H364 C371 0.950 . S
C365 C363 1.387 . S
C365 C367 1.390 . S
C365 H369 0.950 . S
H366 C362 0.950 . S
C367 C365 1.390 . S
C367 C368 1.387 . S
C367 H370 0.950 . S
C368 C367 1.387 . S
C368 C371 1.387 . S
H369 C365 0.950 . S
H370 C367 0.950 . S
C371 C362 1.390 . S
C371 H364 0.950 . S
C371 C368 1.387 . S
C372 C373 1.387 . S
C372 H376 0.950 . S
C372 C381 1.390 . S
C373 C372 1.387 . S
C373 C375 1.387 1_554 S
H374 C381 0.950 . S
C375 C373 1.387 1_556 S
C375 C377 1.390 . S
C375 H379 0.950 . S
H376 C372 0.950 . S
C377 C375 1.390 . S
C377 C378 1.387 . S
C377 H380 0.950 . S
C378 C377 1.387 . S
C378 C381 1.387 1_556 S
H379 C375 0.950 . S
H380 C377 0.950 . S
C381 C372 1.390 . S
C381 H374 0.950 . S
C381 C378 1.387 1_554 S
C382 C383 1.387 . S
C382 H386 0.950 . S
C382 C391 1.390 1_455 S
C383 C382 1.387 . S
C383 C385 1.387 . S
H384 C391 0.950 . S
C385 C383 1.387 . S
C385 C387 1.390 1_455 S
C385 H389 0.950 . S
H386 C382 0.950 . S
C387 C385 1.390 1_655 S
C387 C388 1.387 . S
C387 H390 0.950 . S
C388 C387 1.387 . S
C388 C391 1.387 . S
H389 C385 0.950 . S
H390 C387 0.950 . S
C391 C382 1.390 1_655 S
C391 H384 0.950 . S
C391 C388 1.387 . S
C392 C393 1.387 . S
C392 H396 0.950 . S
C392 C401 1.390 1_546 S
C393 C392 1.387 . S
C393 C395 1.387 . S
H394 C401 0.950 . S
C395 C393 1.387 . S
C395 C397 1.390 1_546 S
C395 H399 0.950 . S
H396 C392 0.950 . S
C397 C395 1.390 1_564 S
C397 C398 1.387 . S
C397 H400 0.950 . S
C398 C397 1.387 . S
C398 C401 1.387 . S
H399 C395 0.950 . S
H400 C397 0.950 . S
C401 C392 1.390 1_564 S
C401 H394 0.950 . S
C401 C398 1.387 . S
C402 C403 1.387 . S
C402 H406 0.950 . S
C402 C411 1.390 . S
C403 C402 1.387 . S
C403 C405 1.387 . S
H404 C411 0.950 . S
C405 C403 1.387 . S
C405 C407 1.390 . S
C405 H409 0.950 . S
H406 C402 0.950 . S
C407 C405 1.390 . S
C407 C408 1.387 . S
C407 H410 0.950 . S
C408 C407 1.387 . S
C408 C411 1.387 . S
H409 C405 0.950 . S
H410 C407 0.950 . S
C411 C402 1.390 . S
C411 H404 0.950 . S
C411 C408 1.387 . S
C412 C413 1.387 1_556 S
C412 H416 0.950 . S
C412 C421 1.390 1_455 S
C413 C412 1.387 1_554 S
C413 C415 1.387 . S
H414 C421 0.950 . S
C415 C413 1.387 . S
C415 C417 1.390 1_455 S
C415 H419 0.950 . S
H416 C412 0.950 . S
C417 C415 1.390 1_655 S
C417 C418 1.387 1_554 S
C417 H420 0.950 . S
C418 C417 1.387 1_556 S
C418 C421 1.387 . S
H419 C415 0.950 . S
H420 C417 0.950 . S
C421 C412 1.390 1_655 S
C421 H414 0.950 . S
C421 C418 1.387 . S
C422 C423 1.387 . S
C422 H426 0.950 . S
C422 C431 1.390 1_545 S
C423 C422 1.387 . S
C423 C425 1.387 . S
H424 C431 0.950 . S
C425 C423 1.387 . S
C425 C427 1.390 1_545 S
C425 H429 0.950 . S
H426 C422 0.950 . S
C427 C425 1.390 1_565 S
C427 C428 1.387 . S
C427 H430 0.950 . S
C428 C427 1.387 . S
C428 C431 1.387 . S
H429 C425 0.950 . S
H430 C427 0.950 . S
C431 C422 1.390 1_565 S
C431 H424 0.950 . S
C431 C428 1.387 . S
C353 C20 1.500 . S
C358 C205 1.500 . S
C363 C145 1.500 . S
C368 C313 1.500 . S
C373 C29 1.495 . S
C378 C293 1.495 . S
C383 C225 1.505 . S
C388 C117 1.505 . S
C393 C284 1.510 . S
C398 C49 1.510 . S
C403 C108 1.505 . S
C408 C233 1.505 . S
C413 C57 1.495 . S
C418 C321 1.495 . S
C423 C137 1.490 . S
C428 C196 1.490 . S
