# Generated by pormake.
# Topology kfi, (4)-cn, num edge types: 1
# Building blocks:
#     Node 0, Type 0, BuildingBlock: QUQFOY_clean_sbu_3, # of connection points: 4
#     Node 1, Type 0, BuildingBlock: QUQFOY_clean_sbu_3, # of connection points: 4
#     Node 2, Type 0, BuildingBlock: QUQFOY_clean_sbu_3, # of connection points: 4
#     Node 3, Type 0, BuildingBlock: QUQFOY_clean_sbu_3, # of connection points: 4
#     Node 4, Type 0, BuildingBlock: QUQFOY_clean_sbu_3, # of connection points: 4
#     Node 5, Type 0, BuildingBlock: QUQFOY_clean_sbu_3, # of connection points: 4
#     Node 6, Type 0, BuildingBlock: QUQFOY_clean_sbu_3, # of connection points: 4
#     Node 7, Type 0, BuildingBlock: QUQFOY_clean_sbu_3, # of connection points: 4
#     Node 8, Type 0, BuildingBlock: QUQFOY_clean_sbu_3, # of connection points: 4
#     Node 9, Type 0, BuildingBlock: QUQFOY_clean_sbu_3, # of connection points: 4
#     Node 10, Type 0, BuildingBlock: QUQFOY_clean_sbu_3, # of connection points: 4
#     Node 11, Type 0, BuildingBlock: QUQFOY_clean_sbu_3, # of connection points: 4
#     Node 12, Type 0, BuildingBlock: QUQFOY_clean_sbu_3, # of connection points: 4
#     Node 13, Type 0, BuildingBlock: QUQFOY_clean_sbu_3, # of connection points: 4
#     Node 14, Type 0, BuildingBlock: QUQFOY_clean_sbu_3, # of connection points: 4
#     Node 15, Type 0, BuildingBlock: QUQFOY_clean_sbu_3, # of connection points: 4
#     Node 16, Type 0, BuildingBlock: QUQFOY_clean_sbu_3, # of connection points: 4
#     Node 17, Type 0, BuildingBlock: QUQFOY_clean_sbu_3, # of connection points: 4
#     Node 18, Type 0, BuildingBlock: QUQFOY_clean_sbu_3, # of connection points: 4
#     Node 19, Type 0, BuildingBlock: QUQFOY_clean_sbu_3, # of connection points: 4
#     Node 20, Type 0, BuildingBlock: QUQFOY_clean_sbu_3, # of connection points: 4
#     Node 21, Type 0, BuildingBlock: QUQFOY_clean_sbu_3, # of connection points: 4
#     Node 22, Type 0, BuildingBlock: QUQFOY_clean_sbu_3, # of connection points: 4
#     Node 23, Type 0, BuildingBlock: QUQFOY_clean_sbu_3, # of connection points: 4
#     Node 24, Type 0, BuildingBlock: QUQFOY_clean_sbu_3, # of connection points: 4
#     Node 25, Type 0, BuildingBlock: QUQFOY_clean_sbu_3, # of connection points: 4
#     Node 26, Type 0, BuildingBlock: QUQFOY_clean_sbu_3, # of connection points: 4
#     Node 27, Type 0, BuildingBlock: QUQFOY_clean_sbu_3, # of connection points: 4
#     Node 28, Type 0, BuildingBlock: QUQFOY_clean_sbu_3, # of connection points: 4
#     Node 29, Type 0, BuildingBlock: QUQFOY_clean_sbu_3, # of connection points: 4
#     Node 30, Type 0, BuildingBlock: QUQFOY_clean_sbu_3, # of connection points: 4
#     Node 31, Type 0, BuildingBlock: QUQFOY_clean_sbu_3, # of connection points: 4
#     Node 32, Type 0, BuildingBlock: QUQFOY_clean_sbu_3, # of connection points: 4
#     Node 33, Type 0, BuildingBlock: QUQFOY_clean_sbu_3, # of connection points: 4
#     Node 34, Type 0, BuildingBlock: QUQFOY_clean_sbu_3, # of connection points: 4
#     Node 35, Type 0, BuildingBlock: QUQFOY_clean_sbu_3, # of connection points: 4
#     Node 36, Type 0, BuildingBlock: QUQFOY_clean_sbu_3, # of connection points: 4
#     Node 37, Type 0, BuildingBlock: QUQFOY_clean_sbu_3, # of connection points: 4
#     Node 38, Type 0, BuildingBlock: QUQFOY_clean_sbu_3, # of connection points: 4
#     Node 39, Type 0, BuildingBlock: QUQFOY_clean_sbu_3, # of connection points: 4
#     Node 40, Type 0, BuildingBlock: QUQFOY_clean_sbu_3, # of connection points: 4
#     Node 41, Type 0, BuildingBlock: QUQFOY_clean_sbu_3, # of connection points: 4
#     Node 42, Type 0, BuildingBlock: QUQFOY_clean_sbu_3, # of connection points: 4
#     Node 43, Type 0, BuildingBlock: QUQFOY_clean_sbu_3, # of connection points: 4
#     Node 44, Type 0, BuildingBlock: QUQFOY_clean_sbu_3, # of connection points: 4
#     Node 45, Type 0, BuildingBlock: QUQFOY_clean_sbu_3, # of connection points: 4
#     Node 46, Type 0, BuildingBlock: QUQFOY_clean_sbu_3, # of connection points: 4
#     Node 47, Type 0, BuildingBlock: QUQFOY_clean_sbu_3, # of connection points: 4
#     Node 48, Type 0, BuildingBlock: QUQFOY_clean_sbu_3, # of connection points: 4
#     Node 49, Type 0, BuildingBlock: QUQFOY_clean_sbu_3, # of connection points: 4
#     Node 50, Type 0, BuildingBlock: QUQFOY_clean_sbu_3, # of connection points: 4
#     Node 51, Type 0, BuildingBlock: QUQFOY_clean_sbu_3, # of connection points: 4
#     Node 52, Type 0, BuildingBlock: QUQFOY_clean_sbu_3, # of connection points: 4
#     Node 53, Type 0, BuildingBlock: QUQFOY_clean_sbu_3, # of connection points: 4
#     Node 54, Type 0, BuildingBlock: QUQFOY_clean_sbu_3, # of connection points: 4
#     Node 55, Type 0, BuildingBlock: QUQFOY_clean_sbu_3, # of connection points: 4
#     Node 56, Type 0, BuildingBlock: QUQFOY_clean_sbu_3, # of connection points: 4
#     Node 57, Type 0, BuildingBlock: QUQFOY_clean_sbu_3, # of connection points: 4
#     Node 58, Type 0, BuildingBlock: QUQFOY_clean_sbu_3, # of connection points: 4
#     Node 59, Type 0, BuildingBlock: QUQFOY_clean_sbu_3, # of connection points: 4
#     Node 60, Type 0, BuildingBlock: QUQFOY_clean_sbu_3, # of connection points: 4
#     Node 61, Type 0, BuildingBlock: QUQFOY_clean_sbu_3, # of connection points: 4
#     Node 62, Type 0, BuildingBlock: QUQFOY_clean_sbu_3, # of connection points: 4
#     Node 63, Type 0, BuildingBlock: QUQFOY_clean_sbu_3, # of connection points: 4
#     Node 64, Type 0, BuildingBlock: QUQFOY_clean_sbu_3, # of connection points: 4
#     Node 65, Type 0, BuildingBlock: QUQFOY_clean_sbu_3, # of connection points: 4
#     Node 66, Type 0, BuildingBlock: QUQFOY_clean_sbu_3, # of connection points: 4
#     Node 67, Type 0, BuildingBlock: QUQFOY_clean_sbu_3, # of connection points: 4
#     Node 68, Type 0, BuildingBlock: QUQFOY_clean_sbu_3, # of connection points: 4
#     Node 69, Type 0, BuildingBlock: QUQFOY_clean_sbu_3, # of connection points: 4
#     Node 70, Type 0, BuildingBlock: QUQFOY_clean_sbu_3, # of connection points: 4
#     Node 71, Type 0, BuildingBlock: QUQFOY_clean_sbu_3, # of connection points: 4
#     Node 72, Type 0, BuildingBlock: QUQFOY_clean_sbu_3, # of connection points: 4
#     Node 73, Type 0, BuildingBlock: QUQFOY_clean_sbu_3, # of connection points: 4
#     Node 74, Type 0, BuildingBlock: QUQFOY_clean_sbu_3, # of connection points: 4
#     Node 75, Type 0, BuildingBlock: QUQFOY_clean_sbu_3, # of connection points: 4
#     Node 76, Type 0, BuildingBlock: QUQFOY_clean_sbu_3, # of connection points: 4
#     Node 77, Type 0, BuildingBlock: QUQFOY_clean_sbu_3, # of connection points: 4
#     Node 78, Type 0, BuildingBlock: QUQFOY_clean_sbu_3, # of connection points: 4
#     Node 79, Type 0, BuildingBlock: QUQFOY_clean_sbu_3, # of connection points: 4
#     Node 80, Type 0, BuildingBlock: QUQFOY_clean_sbu_3, # of connection points: 4
#     Node 81, Type 0, BuildingBlock: QUQFOY_clean_sbu_3, # of connection points: 4
#     Node 82, Type 0, BuildingBlock: QUQFOY_clean_sbu_3, # of connection points: 4
#     Node 83, Type 0, BuildingBlock: QUQFOY_clean_sbu_3, # of connection points: 4
#     Node 84, Type 0, BuildingBlock: QUQFOY_clean_sbu_3, # of connection points: 4
#     Node 85, Type 0, BuildingBlock: QUQFOY_clean_sbu_3, # of connection points: 4
#     Node 86, Type 0, BuildingBlock: QUQFOY_clean_sbu_3, # of connection points: 4
#     Node 87, Type 0, BuildingBlock: QUQFOY_clean_sbu_3, # of connection points: 4
#     Node 88, Type 0, BuildingBlock: QUQFOY_clean_sbu_3, # of connection points: 4
#     Node 89, Type 0, BuildingBlock: QUQFOY_clean_sbu_3, # of connection points: 4
#     Node 90, Type 0, BuildingBlock: QUQFOY_clean_sbu_3, # of connection points: 4
#     Node 91, Type 0, BuildingBlock: QUQFOY_clean_sbu_3, # of connection points: 4
#     Node 92, Type 0, BuildingBlock: QUQFOY_clean_sbu_3, # of connection points: 4
#     Node 93, Type 0, BuildingBlock: QUQFOY_clean_sbu_3, # of connection points: 4
#     Node 94, Type 0, BuildingBlock: QUQFOY_clean_sbu_3, # of connection points: 4
#     Node 95, Type 0, BuildingBlock: QUQFOY_clean_sbu_3, # of connection points: 4
#     Edge 96, Type (0, 0), BuildingBlock: UVAHIK_clean_linker_0, # of connection points: 2
#     Edge 97, Type (0, 0), BuildingBlock: UVAHIK_clean_linker_0, # of connection points: 2
#     Edge 98, Type (0, 0), BuildingBlock: UVAHIK_clean_linker_0, # of connection points: 2
#     Edge 99, Type (0, 0), BuildingBlock: UVAHIK_clean_linker_0, # of connection points: 2
#     Edge 100, Type (0, 0), BuildingBlock: UVAHIK_clean_linker_0, # of connection points: 2
#     Edge 101, Type (0, 0), BuildingBlock: UVAHIK_clean_linker_0, # of connection points: 2
#     Edge 102, Type (0, 0), BuildingBlock: UVAHIK_clean_linker_0, # of connection points: 2
#     Edge 103, Type (0, 0), BuildingBlock: UVAHIK_clean_linker_0, # of connection points: 2
#     Edge 104, Type (0, 0), BuildingBlock: UVAHIK_clean_linker_0, # of connection points: 2
#     Edge 105, Type (0, 0), BuildingBlock: UVAHIK_clean_linker_0, # of connection points: 2
#     Edge 106, Type (0, 0), BuildingBlock: UVAHIK_clean_linker_0, # of connection points: 2
#     Edge 107, Type (0, 0), BuildingBlock: UVAHIK_clean_linker_0, # of connection points: 2
#     Edge 108, Type (0, 0), BuildingBlock: UVAHIK_clean_linker_0, # of connection points: 2
#     Edge 109, Type (0, 0), BuildingBlock: UVAHIK_clean_linker_0, # of connection points: 2
#     Edge 110, Type (0, 0), BuildingBlock: UVAHIK_clean_linker_0, # of connection points: 2
#     Edge 111, Type (0, 0), BuildingBlock: UVAHIK_clean_linker_0, # of connection points: 2
#     Edge 112, Type (0, 0), BuildingBlock: UVAHIK_clean_linker_0, # of connection points: 2
#     Edge 113, Type (0, 0), BuildingBlock: UVAHIK_clean_linker_0, # of connection points: 2
#     Edge 114, Type (0, 0), BuildingBlock: UVAHIK_clean_linker_0, # of connection points: 2
#     Edge 115, Type (0, 0), BuildingBlock: UVAHIK_clean_linker_0, # of connection points: 2
#     Edge 116, Type (0, 0), BuildingBlock: UVAHIK_clean_linker_0, # of connection points: 2
#     Edge 117, Type (0, 0), BuildingBlock: UVAHIK_clean_linker_0, # of connection points: 2
#     Edge 118, Type (0, 0), BuildingBlock: UVAHIK_clean_linker_0, # of connection points: 2
#     Edge 119, Type (0, 0), BuildingBlock: UVAHIK_clean_linker_0, # of connection points: 2
#     Edge 120, Type (0, 0), BuildingBlock: UVAHIK_clean_linker_0, # of connection points: 2
#     Edge 121, Type (0, 0), BuildingBlock: UVAHIK_clean_linker_0, # of connection points: 2
#     Edge 122, Type (0, 0), BuildingBlock: UVAHIK_clean_linker_0, # of connection points: 2
#     Edge 123, Type (0, 0), BuildingBlock: UVAHIK_clean_linker_0, # of connection points: 2
#     Edge 124, Type (0, 0), BuildingBlock: UVAHIK_clean_linker_0, # of connection points: 2
#     Edge 125, Type (0, 0), BuildingBlock: UVAHIK_clean_linker_0, # of connection points: 2
#     Edge 126, Type (0, 0), BuildingBlock: UVAHIK_clean_linker_0, # of connection points: 2
#     Edge 127, Type (0, 0), BuildingBlock: UVAHIK_clean_linker_0, # of connection points: 2
#     Edge 128, Type (0, 0), BuildingBlock: UVAHIK_clean_linker_0, # of connection points: 2
#     Edge 129, Type (0, 0), BuildingBlock: UVAHIK_clean_linker_0, # of connection points: 2
#     Edge 130, Type (0, 0), BuildingBlock: UVAHIK_clean_linker_0, # of connection points: 2
#     Edge 131, Type (0, 0), BuildingBlock: UVAHIK_clean_linker_0, # of connection points: 2
#     Edge 132, Type (0, 0), BuildingBlock: UVAHIK_clean_linker_0, # of connection points: 2
#     Edge 133, Type (0, 0), BuildingBlock: UVAHIK_clean_linker_0, # of connection points: 2
#     Edge 134, Type (0, 0), BuildingBlock: UVAHIK_clean_linker_0, # of connection points: 2
#     Edge 135, Type (0, 0), BuildingBlock: UVAHIK_clean_linker_0, # of connection points: 2
#     Edge 136, Type (0, 0), BuildingBlock: UVAHIK_clean_linker_0, # of connection points: 2
#     Edge 137, Type (0, 0), BuildingBlock: UVAHIK_clean_linker_0, # of connection points: 2
#     Edge 138, Type (0, 0), BuildingBlock: UVAHIK_clean_linker_0, # of connection points: 2
#     Edge 139, Type (0, 0), BuildingBlock: UVAHIK_clean_linker_0, # of connection points: 2
#     Edge 140, Type (0, 0), BuildingBlock: UVAHIK_clean_linker_0, # of connection points: 2
#     Edge 141, Type (0, 0), BuildingBlock: UVAHIK_clean_linker_0, # of connection points: 2
#     Edge 142, Type (0, 0), BuildingBlock: UVAHIK_clean_linker_0, # of connection points: 2
#     Edge 143, Type (0, 0), BuildingBlock: UVAHIK_clean_linker_0, # of connection points: 2
#     Edge 144, Type (0, 0), BuildingBlock: UVAHIK_clean_linker_0, # of connection points: 2
#     Edge 145, Type (0, 0), BuildingBlock: UVAHIK_clean_linker_0, # of connection points: 2
#     Edge 146, Type (0, 0), BuildingBlock: UVAHIK_clean_linker_0, # of connection points: 2
#     Edge 147, Type (0, 0), BuildingBlock: UVAHIK_clean_linker_0, # of connection points: 2
#     Edge 148, Type (0, 0), BuildingBlock: UVAHIK_clean_linker_0, # of connection points: 2
#     Edge 149, Type (0, 0), BuildingBlock: UVAHIK_clean_linker_0, # of connection points: 2
#     Edge 150, Type (0, 0), BuildingBlock: UVAHIK_clean_linker_0, # of connection points: 2
#     Edge 151, Type (0, 0), BuildingBlock: UVAHIK_clean_linker_0, # of connection points: 2
#     Edge 152, Type (0, 0), BuildingBlock: UVAHIK_clean_linker_0, # of connection points: 2
#     Edge 153, Type (0, 0), BuildingBlock: UVAHIK_clean_linker_0, # of connection points: 2
#     Edge 154, Type (0, 0), BuildingBlock: UVAHIK_clean_linker_0, # of connection points: 2
#     Edge 155, Type (0, 0), BuildingBlock: UVAHIK_clean_linker_0, # of connection points: 2
#     Edge 156, Type (0, 0), BuildingBlock: UVAHIK_clean_linker_0, # of connection points: 2
#     Edge 157, Type (0, 0), BuildingBlock: UVAHIK_clean_linker_0, # of connection points: 2
#     Edge 158, Type (0, 0), BuildingBlock: UVAHIK_clean_linker_0, # of connection points: 2
#     Edge 159, Type (0, 0), BuildingBlock: UVAHIK_clean_linker_0, # of connection points: 2
#     Edge 160, Type (0, 0), BuildingBlock: UVAHIK_clean_linker_0, # of connection points: 2
#     Edge 161, Type (0, 0), BuildingBlock: UVAHIK_clean_linker_0, # of connection points: 2
#     Edge 162, Type (0, 0), BuildingBlock: UVAHIK_clean_linker_0, # of connection points: 2
#     Edge 163, Type (0, 0), BuildingBlock: UVAHIK_clean_linker_0, # of connection points: 2
#     Edge 164, Type (0, 0), BuildingBlock: UVAHIK_clean_linker_0, # of connection points: 2
#     Edge 165, Type (0, 0), BuildingBlock: UVAHIK_clean_linker_0, # of connection points: 2
#     Edge 166, Type (0, 0), BuildingBlock: UVAHIK_clean_linker_0, # of connection points: 2
#     Edge 167, Type (0, 0), BuildingBlock: UVAHIK_clean_linker_0, # of connection points: 2
#     Edge 168, Type (0, 0), BuildingBlock: UVAHIK_clean_linker_0, # of connection points: 2
#     Edge 169, Type (0, 0), BuildingBlock: UVAHIK_clean_linker_0, # of connection points: 2
#     Edge 170, Type (0, 0), BuildingBlock: UVAHIK_clean_linker_0, # of connection points: 2
#     Edge 171, Type (0, 0), BuildingBlock: UVAHIK_clean_linker_0, # of connection points: 2
#     Edge 172, Type (0, 0), BuildingBlock: UVAHIK_clean_linker_0, # of connection points: 2
#     Edge 173, Type (0, 0), BuildingBlock: UVAHIK_clean_linker_0, # of connection points: 2
#     Edge 174, Type (0, 0), BuildingBlock: UVAHIK_clean_linker_0, # of connection points: 2
#     Edge 175, Type (0, 0), BuildingBlock: UVAHIK_clean_linker_0, # of connection points: 2
#     Edge 176, Type (0, 0), BuildingBlock: UVAHIK_clean_linker_0, # of connection points: 2
#     Edge 177, Type (0, 0), BuildingBlock: UVAHIK_clean_linker_0, # of connection points: 2
#     Edge 178, Type (0, 0), BuildingBlock: UVAHIK_clean_linker_0, # of connection points: 2
#     Edge 179, Type (0, 0), BuildingBlock: UVAHIK_clean_linker_0, # of connection points: 2
#     Edge 180, Type (0, 0), BuildingBlock: UVAHIK_clean_linker_0, # of connection points: 2
#     Edge 181, Type (0, 0), BuildingBlock: UVAHIK_clean_linker_0, # of connection points: 2
#     Edge 182, Type (0, 0), BuildingBlock: UVAHIK_clean_linker_0, # of connection points: 2
#     Edge 183, Type (0, 0), BuildingBlock: UVAHIK_clean_linker_0, # of connection points: 2
#     Edge 184, Type (0, 0), BuildingBlock: UVAHIK_clean_linker_0, # of connection points: 2
#     Edge 185, Type (0, 0), BuildingBlock: UVAHIK_clean_linker_0, # of connection points: 2
#     Edge 186, Type (0, 0), BuildingBlock: UVAHIK_clean_linker_0, # of connection points: 2
#     Edge 187, Type (0, 0), BuildingBlock: UVAHIK_clean_linker_0, # of connection points: 2
#     Edge 188, Type (0, 0), BuildingBlock: UVAHIK_clean_linker_0, # of connection points: 2
#     Edge 189, Type (0, 0), BuildingBlock: UVAHIK_clean_linker_0, # of connection points: 2
#     Edge 190, Type (0, 0), BuildingBlock: UVAHIK_clean_linker_0, # of connection points: 2
#     Edge 191, Type (0, 0), BuildingBlock: UVAHIK_clean_linker_0, # of connection points: 2
#     Edge 192, Type (0, 0), BuildingBlock: UVAHIK_clean_linker_0, # of connection points: 2
#     Edge 193, Type (0, 0), BuildingBlock: UVAHIK_clean_linker_0, # of connection points: 2
#     Edge 194, Type (0, 0), BuildingBlock: UVAHIK_clean_linker_0, # of connection points: 2
#     Edge 195, Type (0, 0), BuildingBlock: UVAHIK_clean_linker_0, # of connection points: 2
#     Edge 196, Type (0, 0), BuildingBlock: UVAHIK_clean_linker_0, # of connection points: 2
#     Edge 197, Type (0, 0), BuildingBlock: UVAHIK_clean_linker_0, # of connection points: 2
#     Edge 198, Type (0, 0), BuildingBlock: UVAHIK_clean_linker_0, # of connection points: 2
#     Edge 199, Type (0, 0), BuildingBlock: UVAHIK_clean_linker_0, # of connection points: 2
#     Edge 200, Type (0, 0), BuildingBlock: UVAHIK_clean_linker_0, # of connection points: 2
#     Edge 201, Type (0, 0), BuildingBlock: UVAHIK_clean_linker_0, # of connection points: 2
#     Edge 202, Type (0, 0), BuildingBlock: UVAHIK_clean_linker_0, # of connection points: 2
#     Edge 203, Type (0, 0), BuildingBlock: UVAHIK_clean_linker_0, # of connection points: 2
#     Edge 204, Type (0, 0), BuildingBlock: UVAHIK_clean_linker_0, # of connection points: 2
#     Edge 205, Type (0, 0), BuildingBlock: UVAHIK_clean_linker_0, # of connection points: 2
#     Edge 206, Type (0, 0), BuildingBlock: UVAHIK_clean_linker_0, # of connection points: 2
#     Edge 207, Type (0, 0), BuildingBlock: UVAHIK_clean_linker_0, # of connection points: 2
#     Edge 208, Type (0, 0), BuildingBlock: UVAHIK_clean_linker_0, # of connection points: 2
#     Edge 209, Type (0, 0), BuildingBlock: UVAHIK_clean_linker_0, # of connection points: 2
#     Edge 210, Type (0, 0), BuildingBlock: UVAHIK_clean_linker_0, # of connection points: 2
#     Edge 211, Type (0, 0), BuildingBlock: UVAHIK_clean_linker_0, # of connection points: 2
#     Edge 212, Type (0, 0), BuildingBlock: UVAHIK_clean_linker_0, # of connection points: 2
#     Edge 213, Type (0, 0), BuildingBlock: UVAHIK_clean_linker_0, # of connection points: 2
#     Edge 214, Type (0, 0), BuildingBlock: UVAHIK_clean_linker_0, # of connection points: 2
#     Edge 215, Type (0, 0), BuildingBlock: UVAHIK_clean_linker_0, # of connection points: 2
#     Edge 216, Type (0, 0), BuildingBlock: UVAHIK_clean_linker_0, # of connection points: 2
#     Edge 217, Type (0, 0), BuildingBlock: UVAHIK_clean_linker_0, # of connection points: 2
#     Edge 218, Type (0, 0), BuildingBlock: UVAHIK_clean_linker_0, # of connection points: 2
#     Edge 219, Type (0, 0), BuildingBlock: UVAHIK_clean_linker_0, # of connection points: 2
#     Edge 220, Type (0, 0), BuildingBlock: UVAHIK_clean_linker_0, # of connection points: 2
#     Edge 221, Type (0, 0), BuildingBlock: UVAHIK_clean_linker_0, # of connection points: 2
#     Edge 222, Type (0, 0), BuildingBlock: UVAHIK_clean_linker_0, # of connection points: 2
#     Edge 223, Type (0, 0), BuildingBlock: UVAHIK_clean_linker_0, # of connection points: 2
#     Edge 224, Type (0, 0), BuildingBlock: UVAHIK_clean_linker_0, # of connection points: 2
#     Edge 225, Type (0, 0), BuildingBlock: UVAHIK_clean_linker_0, # of connection points: 2
#     Edge 226, Type (0, 0), BuildingBlock: UVAHIK_clean_linker_0, # of connection points: 2
#     Edge 227, Type (0, 0), BuildingBlock: UVAHIK_clean_linker_0, # of connection points: 2
#     Edge 228, Type (0, 0), BuildingBlock: UVAHIK_clean_linker_0, # of connection points: 2
#     Edge 229, Type (0, 0), BuildingBlock: UVAHIK_clean_linker_0, # of connection points: 2
#     Edge 230, Type (0, 0), BuildingBlock: UVAHIK_clean_linker_0, # of connection points: 2
#     Edge 231, Type (0, 0), BuildingBlock: UVAHIK_clean_linker_0, # of connection points: 2
#     Edge 232, Type (0, 0), BuildingBlock: UVAHIK_clean_linker_0, # of connection points: 2
#     Edge 233, Type (0, 0), BuildingBlock: UVAHIK_clean_linker_0, # of connection points: 2
#     Edge 234, Type (0, 0), BuildingBlock: UVAHIK_clean_linker_0, # of connection points: 2
#     Edge 235, Type (0, 0), BuildingBlock: UVAHIK_clean_linker_0, # of connection points: 2
#     Edge 236, Type (0, 0), BuildingBlock: UVAHIK_clean_linker_0, # of connection points: 2
#     Edge 237, Type (0, 0), BuildingBlock: UVAHIK_clean_linker_0, # of connection points: 2
#     Edge 238, Type (0, 0), BuildingBlock: UVAHIK_clean_linker_0, # of connection points: 2
#     Edge 239, Type (0, 0), BuildingBlock: UVAHIK_clean_linker_0, # of connection points: 2
#     Edge 240, Type (0, 0), BuildingBlock: UVAHIK_clean_linker_0, # of connection points: 2
#     Edge 241, Type (0, 0), BuildingBlock: UVAHIK_clean_linker_0, # of connection points: 2
#     Edge 242, Type (0, 0), BuildingBlock: UVAHIK_clean_linker_0, # of connection points: 2
#     Edge 243, Type (0, 0), BuildingBlock: UVAHIK_clean_linker_0, # of connection points: 2
#     Edge 244, Type (0, 0), BuildingBlock: UVAHIK_clean_linker_0, # of connection points: 2
#     Edge 245, Type (0, 0), BuildingBlock: UVAHIK_clean_linker_0, # of connection points: 2
#     Edge 246, Type (0, 0), BuildingBlock: UVAHIK_clean_linker_0, # of connection points: 2
#     Edge 247, Type (0, 0), BuildingBlock: UVAHIK_clean_linker_0, # of connection points: 2
#     Edge 248, Type (0, 0), BuildingBlock: UVAHIK_clean_linker_0, # of connection points: 2
#     Edge 249, Type (0, 0), BuildingBlock: UVAHIK_clean_linker_0, # of connection points: 2
#     Edge 250, Type (0, 0), BuildingBlock: UVAHIK_clean_linker_0, # of connection points: 2
#     Edge 251, Type (0, 0), BuildingBlock: UVAHIK_clean_linker_0, # of connection points: 2
#     Edge 252, Type (0, 0), BuildingBlock: UVAHIK_clean_linker_0, # of connection points: 2
#     Edge 253, Type (0, 0), BuildingBlock: UVAHIK_clean_linker_0, # of connection points: 2
#     Edge 254, Type (0, 0), BuildingBlock: UVAHIK_clean_linker_0, # of connection points: 2
#     Edge 255, Type (0, 0), BuildingBlock: UVAHIK_clean_linker_0, # of connection points: 2
#     Edge 256, Type (0, 0), BuildingBlock: UVAHIK_clean_linker_0, # of connection points: 2
#     Edge 257, Type (0, 0), BuildingBlock: UVAHIK_clean_linker_0, # of connection points: 2
#     Edge 258, Type (0, 0), BuildingBlock: UVAHIK_clean_linker_0, # of connection points: 2
#     Edge 259, Type (0, 0), BuildingBlock: UVAHIK_clean_linker_0, # of connection points: 2
#     Edge 260, Type (0, 0), BuildingBlock: UVAHIK_clean_linker_0, # of connection points: 2
#     Edge 261, Type (0, 0), BuildingBlock: UVAHIK_clean_linker_0, # of connection points: 2
#     Edge 262, Type (0, 0), BuildingBlock: UVAHIK_clean_linker_0, # of connection points: 2
#     Edge 263, Type (0, 0), BuildingBlock: UVAHIK_clean_linker_0, # of connection points: 2
#     Edge 264, Type (0, 0), BuildingBlock: UVAHIK_clean_linker_0, # of connection points: 2
#     Edge 265, Type (0, 0), BuildingBlock: UVAHIK_clean_linker_0, # of connection points: 2
#     Edge 266, Type (0, 0), BuildingBlock: UVAHIK_clean_linker_0, # of connection points: 2
#     Edge 267, Type (0, 0), BuildingBlock: UVAHIK_clean_linker_0, # of connection points: 2
#     Edge 268, Type (0, 0), BuildingBlock: UVAHIK_clean_linker_0, # of connection points: 2
#     Edge 269, Type (0, 0), BuildingBlock: UVAHIK_clean_linker_0, # of connection points: 2
#     Edge 270, Type (0, 0), BuildingBlock: UVAHIK_clean_linker_0, # of connection points: 2
#     Edge 271, Type (0, 0), BuildingBlock: UVAHIK_clean_linker_0, # of connection points: 2
#     Edge 272, Type (0, 0), BuildingBlock: UVAHIK_clean_linker_0, # of connection points: 2
#     Edge 273, Type (0, 0), BuildingBlock: UVAHIK_clean_linker_0, # of connection points: 2
#     Edge 274, Type (0, 0), BuildingBlock: UVAHIK_clean_linker_0, # of connection points: 2
#     Edge 275, Type (0, 0), BuildingBlock: UVAHIK_clean_linker_0, # of connection points: 2
#     Edge 276, Type (0, 0), BuildingBlock: UVAHIK_clean_linker_0, # of connection points: 2
#     Edge 277, Type (0, 0), BuildingBlock: UVAHIK_clean_linker_0, # of connection points: 2
#     Edge 278, Type (0, 0), BuildingBlock: UVAHIK_clean_linker_0, # of connection points: 2
#     Edge 279, Type (0, 0), BuildingBlock: UVAHIK_clean_linker_0, # of connection points: 2
#     Edge 280, Type (0, 0), BuildingBlock: UVAHIK_clean_linker_0, # of connection points: 2
#     Edge 281, Type (0, 0), BuildingBlock: UVAHIK_clean_linker_0, # of connection points: 2
#     Edge 282, Type (0, 0), BuildingBlock: UVAHIK_clean_linker_0, # of connection points: 2
#     Edge 283, Type (0, 0), BuildingBlock: UVAHIK_clean_linker_0, # of connection points: 2
#     Edge 284, Type (0, 0), BuildingBlock: UVAHIK_clean_linker_0, # of connection points: 2
#     Edge 285, Type (0, 0), BuildingBlock: UVAHIK_clean_linker_0, # of connection points: 2
#     Edge 286, Type (0, 0), BuildingBlock: UVAHIK_clean_linker_0, # of connection points: 2
#     Edge 287, Type (0, 0), BuildingBlock: UVAHIK_clean_linker_0, # of connection points: 2
# Relax obj value: 0.151
# Max RMSD: 0.094
# Mean RMSD: 0.094
data_MOF--net-kfi--node1-QUQFOY_clean_sbu_3--edge1-UVAHIK_clean_linker_0
_symmetry_space_group_name_H-M    P1
_symmetry_Int_Tables_number       1
_symmetry_cell_setting            triclinic
loop_
_symmetry_equiv_pos_as_xyz
'x, y, z'
_cell_length_a     116.21488
_cell_length_b     116.13862
_cell_length_c     116.20609
_cell_angle_alpha  89.994897
_cell_angle_beta   90.011722
_cell_angle_gamma 90.022526
loop_
_atom_site_label
_atom_site_type_symbol
_atom_site_fract_x
_atom_site_fract_y
_atom_site_fract_z
_atom_type_partial_charge
C0 C 0.08986 0.17537 0.30367 0.0
O1 O 0.09325 0.18244 0.29606 0.0
Cd2 Cd 0.08746 0.2021 0.29471 0.0
O3 O 0.08239 0.17834 0.31114 0.0
Cd4 Cd 0.0704 0.19559 0.31543 0.0
C5 C 0.09394 0.21145 0.32209 0.0
O6 O 0.06698 0.20161 0.29564 0.0
O7 O 0.0616 0.21364 0.30862 0.0
O8 O 0.05426 0.1827 0.31886 0.0
C9 C 0.06217 0.21109 0.29804 0.0
O10 O 0.09605 0.21173 0.31134 0.0
C11 C 0.05162 0.18685 0.32861 0.0
O12 O 0.08543 0.20575 0.326 0.0
O13 O 0.05793 0.19493 0.33241 0.0
C14 C 0.81426 0.09234 0.30269 0.0
O15 O 0.80711 0.09549 0.29505 0.0
Cd16 Cd 0.78766 0.08898 0.29393 0.0
O17 O 0.8115 0.08482 0.31019 0.0
Cd18 Cd 0.79479 0.07219 0.31472 0.0
C19 C 0.7784 0.0953 0.32143 0.0
O20 O 0.78895 0.06851 0.29492 0.0
O21 O 0.77721 0.06251 0.3079 0.0
O22 O 0.80922 0.0575 0.31834 0.0
C23 C 0.7797 0.06326 0.29731 0.0
O24 O 0.77801 0.09732 0.31066 0.0
C25 C 0.80475 0.05383 0.32761 0.0
O26 O 0.78432 0.08696 0.32537 0.0
O27 O 0.79573 0.05892 0.3311 0.0
C28 C 0.89952 0.81582 0.30355 0.0
O29 O 0.89602 0.80897 0.29579 0.0
Cd30 Cd 0.90146 0.78928 0.29432 0.0
O31 O 0.90696 0.81257 0.31095 0.0
Cd32 Cd 0.919 0.79516 0.31479 0.0
C33 C 0.89533 0.77966 0.32169 0.0
O34 O 0.92199 0.78961 0.29484 0.0
O35 O 0.92759 0.77723 0.30744 0.0
O36 O 0.93517 0.80802 0.31802 0.0
C37 C 0.92685 0.78008 0.29694 0.0
O38 O 0.89269 0.77994 0.31105 0.0
C39 C 0.93796 0.80384 0.32772 0.0
O40 O 0.9043 0.78469 0.32545 0.0
O41 O 0.93174 0.79571 0.33157 0.0
C42 C 0.17638 0.89909 0.30279 0.0
O43 O 0.18354 0.89592 0.29517 0.0
Cd44 Cd 0.20302 0.90234 0.29405 0.0
O45 O 0.17914 0.90662 0.31029 0.0
Cd46 Cd 0.19588 0.91924 0.31482 0.0
C47 C 0.21212 0.89608 0.32166 0.0
O48 O 0.20189 0.9228 0.29503 0.0
O49 O 0.21358 0.92867 0.30814 0.0
O50 O 0.18157 0.9341 0.3182 0.0
C51 C 0.21116 0.92795 0.29753 0.0
O52 O 0.21255 0.89404 0.3109 0.0
C53 C 0.18601 0.9378 0.32748 0.0
O54 O 0.20621 0.90444 0.32557 0.0
O55 O 0.19494 0.93263 0.33109 0.0
C56 C 0.09037 0.81626 0.68495 0.0
O57 O 0.09385 0.80937 0.69269 0.0
Cd58 Cd 0.08805 0.78976 0.69418 0.0
O59 O 0.08288 0.81307 0.67759 0.0
Cd60 Cd 0.07075 0.79579 0.67367 0.0
C61 C 0.09423 0.78016 0.66675 0.0
O62 O 0.06756 0.79045 0.69365 0.0
O63 O 0.06206 0.77791 0.68122 0.0
O64 O 0.05563 0.80975 0.67009 0.0
C65 C 0.06273 0.78089 0.69169 0.0
O66 O 0.09645 0.78006 0.67749 0.0
C67 C 0.05179 0.80494 0.66107 0.0
O68 O 0.08562 0.78569 0.66285 0.0
O69 O 0.05696 0.79591 0.6577 0.0
C70 C 0.17474 0.09099 0.68696 0.0
O71 O 0.18178 0.09442 0.69458 0.0
Cd72 Cd 0.20148 0.08876 0.69589 0.0
O73 O 0.17778 0.08357 0.67946 0.0
Cd74 Cd 0.19508 0.07175 0.67504 0.0
C75 C 0.21076 0.09548 0.66854 0.0
O76 O 0.20117 0.06826 0.69479 0.0
O77 O 0.21317 0.06297 0.68174 0.0
O78 O 0.18225 0.05561 0.67155 0.0
C79 C 0.21066 0.06352 0.69234 0.0
O80 O 0.21104 0.09753 0.67931 0.0
C81 C 0.18637 0.05303 0.66177 0.0
O82 O 0.20512 0.08694 0.66459 0.0
O83 O 0.19443 0.05938 0.65799 0.0
C84 C 0.89792 0.17583 0.6872 0.0
O85 O 0.89466 0.18301 0.69477 0.0
Cd86 Cd 0.90083 0.20258 0.69565 0.0
O87 O 0.90537 0.17866 0.67966 0.0
Cd88 Cd 0.91772 0.19552 0.67495 0.0
C89 C 0.89436 0.2114 0.66803 0.0
O90 O 0.92131 0.20161 0.69468 0.0
O91 O 0.92704 0.21337 0.68159 0.0
O92 O 0.93255 0.1812 0.67157 0.0
C93 C 0.92636 0.21094 0.6922 0.0
O94 O 0.89233 0.21188 0.67879 0.0
C95 C 0.93626 0.18563 0.6623 0.0
O96 O 0.9028 0.20559 0.66416 0.0
O97 O 0.93113 0.19459 0.65869 0.0
C98 C 0.81455 0.89932 0.68642 0.0
O99 O 0.80739 0.89611 0.69403 0.0
Cd100 Cd 0.78799 0.90264 0.69525 0.0
O101 O 0.8118 0.90692 0.67899 0.0
Cd102 Cd 0.79511 0.91963 0.67462 0.0
C103 C 0.7787 0.89658 0.6677 0.0
O104 O 0.78953 0.92309 0.69449 0.0
O105 O 0.77766 0.92938 0.6818 0.0
O106 O 0.80961 0.93425 0.67097 0.0
C107 C 0.78031 0.92845 0.69233 0.0
O108 O 0.77832 0.89443 0.67844 0.0
C109 C 0.80505 0.93803 0.66179 0.0
O110 O 0.78459 0.90499 0.66385 0.0
O111 O 0.79594 0.93305 0.65838 0.0
C112 C 0.30456 0.09084 0.17526 0.0
O113 O 0.29671 0.09432 0.18202 0.0
Cd114 Cd 0.29482 0.08888 0.20174 0.0
O115 O 0.31197 0.08347 0.1786 0.0
Cd116 Cd 0.3158 0.07175 0.19612 0.0
C117 C 0.32193 0.09561 0.21174 0.0
O118 O 0.29586 0.06839 0.20171 0.0
O119 O 0.30861 0.06317 0.21408 0.0
O120 O 0.31946 0.05549 0.18348 0.0
C121 C 0.29808 0.06372 0.21131 0.0
O122 O 0.31117 0.09768 0.21166 0.0
C123 C 0.32909 0.05281 0.1879 0.0
O124 O 0.32603 0.08701 0.20632 0.0
O125 O 0.33274 0.05917 0.19601 0.0
C126 C 0.89987 0.30342 0.17468 0.0
O127 O 0.89654 0.29579 0.18177 0.0
Cd128 Cd 0.90239 0.29455 0.20144 0.0
O129 O 0.90732 0.31093 0.17762 0.0
Cd130 Cd 0.91938 0.31545 0.19475 0.0
C131 C 0.89579 0.32204 0.21055 0.0
O132 O 0.92287 0.29571 0.20097 0.0
O133 O 0.92825 0.30894 0.21279 0.0
O134 O 0.93544 0.31874 0.18177 0.0
C135 C 0.92771 0.29831 0.21039 0.0
O136 O 0.89374 0.31126 0.21091 0.0
C137 C 0.93807 0.32857 0.18577 0.0
O138 O 0.90429 0.32596 0.20484 0.0
O139 O 0.93177 0.33248 0.19381 0.0
C140 C 0.68696 0.89905 0.17763 0.0
O141 O 0.69469 0.89582 0.18465 0.0
Cd142 Cd 0.69615 0.90217 0.20413 0.0
O143 O 0.67956 0.90661 0.18054 0.0
Cd144 Cd 0.6754 0.91922 0.19735 0.0
C145 C 0.66864 0.89607 0.21363 0.0
O146 O 0.69531 0.92266 0.20302 0.0
O147 O 0.68249 0.92868 0.21492 0.0
O148 O 0.67189 0.93404 0.18302 0.0
C149 C 0.69305 0.92784 0.21233 0.0
O150 O 0.6794 0.89395 0.21389 0.0
C151 C 0.6627 0.93781 0.18757 0.0
O152 O 0.66471 0.9045 0.20782 0.0
O153 O 0.65921 0.93274 0.1966 0.0
C154 C 0.0901 0.68723 0.17411 0.0
O155 O 0.09382 0.69473 0.18114 0.0
Cd156 Cd 0.08864 0.69585 0.201 0.0
O157 O 0.08263 0.67982 0.17725 0.0
Cd158 Cd 0.07109 0.67536 0.19473 0.0
C159 C 0.0951 0.66821 0.20966 0.0
O160 O 0.06812 0.69513 0.20107 0.0
O161 O 0.06277 0.682 0.213 0.0
O162 O 0.0547 0.67216 0.18213 0.0
C163 C 0.06344 0.69262 0.21058 0.0
O164 O 0.09738 0.67893 0.21005 0.0
C165 C 0.05211 0.66235 0.18621 0.0
O166 O 0.08632 0.66452 0.20422 0.0
O167 O 0.05854 0.65845 0.19415 0.0
C168 C 0.30391 0.89826 0.8138 0.0
O169 O 0.29617 0.89504 0.80679 0.0
Cd170 Cd 0.29447 0.90154 0.7874 0.0
O171 O 0.31122 0.90593 0.81093 0.0
Cd172 Cd 0.31506 0.91875 0.79419 0.0
C173 C 0.32195 0.89587 0.77761 0.0
O174 O 0.29509 0.92201 0.78866 0.0
O175 O 0.30777 0.92817 0.77668 0.0
O176 O 0.31845 0.93366 0.80845 0.0
C177 C 0.29724 0.92724 0.77935 0.0
O178 O 0.31121 0.89365 0.77741 0.0
C179 C 0.32759 0.93751 0.80387 0.0
O180 O 0.32586 0.90426 0.78349 0.0
O181 O 0.33114 0.9324 0.79488 0.0
C182 C 0.09109 0.30488 0.81501 0.0
O183 O 0.09464 0.297 0.80832 0.0
Cd184 Cd 0.08943 0.29495 0.78855 0.0
O185 O 0.08383 0.31235 0.81152 0.0
Cd186 Cd 0.07253 0.31639 0.79377 0.0
C187 C 0.09674 0.3219 0.77846 0.0
O188 O 0.06895 0.29627 0.78871 0.0
O189 O 0.06354 0.30883 0.77624 0.0
O190 O 0.05747 0.32202 0.80727 0.0
C191 C 0.06412 0.29835 0.77916 0.0
O192 O 0.09862 0.31109 0.77855 0.0
C193 C 0.05404 0.33057 0.8014 0.0
O194 O 0.08817 0.32616 0.7838 0.0
O195 O 0.05941 0.33272 0.79213 0.0
C196 C 0.67349 0.08723 0.8169 0.0
O197 O 0.67921 0.07801 0.81665 0.0
Cd198 Cd 0.67337 0.07392 0.7967 0.0
O199 O 0.66748 0.08943 0.80811 0.0
Cd200 Cd 0.6695 0.07169 0.7944 0.0
C201 C 0.65759 0.08949 0.78136 0.0
O202 O 0.69062 0.06987 0.78814 0.0
O203 O 0.6779 0.06783 0.77491 0.0
O204 O 0.66991 0.05658 0.8095 0.0
C205 C 0.68847 0.06777 0.77769 0.0
O206 O 0.66733 0.09174 0.7857 0.0
C207 C 0.6618 0.05073 0.80512 0.0
O208 O 0.65352 0.07959 0.7833 0.0
O209 O 0.65735 0.0546 0.79593 0.0
C210 C 0.89999 0.68487 0.81524 0.0
O211 O 0.8966 0.69279 0.80851 0.0
Cd212 Cd 0.90238 0.69504 0.78898 0.0
O213 O 0.90739 0.67747 0.81192 0.0
Cd214 Cd 0.91925 0.67382 0.79436 0.0
C215 C 0.89552 0.66813 0.77847 0.0
O216 O 0.92284 0.69402 0.78985 0.0
O217 O 0.92821 0.68191 0.77695 0.0
O218 O 0.93423 0.66819 0.80799 0.0
C219 C 0.92774 0.69228 0.78028 0.0
O220 O 0.89356 0.67892 0.7786 0.0
C221 C 0.93786 0.6598 0.80201 0.0
O222 O 0.90399 0.6639 0.78398 0.0
O223 O 0.93263 0.65773 0.79265 0.0
C224 C 0.17459 0.30387 0.09049 0.0
O225 O 0.18153 0.29611 0.09382 0.0
Cd226 Cd 0.20112 0.29445 0.088 0.0
O227 O 0.17769 0.31135 0.08307 0.0
Cd228 Cd 0.19509 0.31538 0.0711 0.0
C229 C 0.21097 0.32161 0.09473 0.0
O230 O 0.20057 0.29549 0.06754 0.0
O231 O 0.21312 0.30815 0.06258 0.0
O232 O 0.18238 0.31918 0.05493 0.0
C233 C 0.21018 0.29764 0.0629 0.0
O234 O 0.21109 0.31083 0.09674 0.0
C235 C 0.18682 0.32882 0.0523 0.0
O236 O 0.20534 0.32568 0.08626 0.0
O237 O 0.19497 0.33239 0.05866 0.0
C238 C 0.17513 0.6866 0.90072 0.0
O239 O 0.18206 0.69439 0.89745 0.0
Cd240 Cd 0.20161 0.69602 0.90338 0.0
O241 O 0.17824 0.67907 0.90808 0.0
Cd242 Cd 0.19559 0.67497 0.92004 0.0
C243 C 0.2116 0.669 0.89644 0.0
O244 O 0.20089 0.69486 0.92386 0.0
O245 O 0.21348 0.6823 0.92891 0.0
O246 O 0.18268 0.67092 0.93598 0.0
C247 C 0.21045 0.69277 0.92862 0.0
O248 O 0.21168 0.6798 0.89449 0.0
C249 C 0.18714 0.66129 0.93858 0.0
O250 O 0.20597 0.66486 0.90487 0.0
O251 O 0.19542 0.65784 0.93233 0.0
C252 C 0.30344 0.17471 0.89931 0.0
O253 O 0.29581 0.18154 0.89549 0.0
Cd254 Cd 0.29443 0.20148 0.90005 0.0
O255 O 0.31079 0.17811 0.90672 0.0
Cd256 Cd 0.31471 0.19588 0.91817 0.0
C257 C 0.32208 0.21046 0.89403 0.0
O258 O 0.29482 0.20208 0.92057 0.0
O259 O 0.30775 0.21416 0.92608 0.0
O260 O 0.31756 0.18372 0.93496 0.0
C261 C 0.29717 0.21169 0.92515 0.0
O262 O 0.31147 0.21024 0.89127 0.0
C263 C 0.32728 0.18791 0.93768 0.0
O264 O 0.32567 0.20569 0.90321 0.0
O265 O 0.33133 0.19567 0.93113 0.0
C266 C 0.81622 0.3046 0.89948 0.0
O267 O 0.80924 0.29694 0.89598 0.0
Cd268 Cd 0.78949 0.29554 0.9014 0.0
O269 O 0.81308 0.31212 0.90682 0.0
Cd270 Cd 0.79562 0.31654 0.91843 0.0
C271 C 0.7801 0.32287 0.89455 0.0
O272 O 0.78969 0.29671 0.92187 0.0
O273 O 0.7776 0.3097 0.92713 0.0
O274 O 0.80838 0.32001 0.9346 0.0
C275 C 0.7802 0.29911 0.92663 0.0
O276 O 0.77993 0.31209 0.89254 0.0
C277 C 0.80414 0.32972 0.93728 0.0
O278 O 0.78562 0.32691 0.90312 0.0
O279 O 0.79608 0.33351 0.93095 0.0
C280 C 0.68479 0.81395 0.90158 0.0
O281 O 0.69311 0.80754 0.89858 0.0
Cd282 Cd 0.69444 0.78765 0.90329 0.0
O283 O 0.67696 0.8103 0.90833 0.0
Cd284 Cd 0.6735 0.79273 0.92023 0.0
C285 C 0.66723 0.77787 0.89611 0.0
O286 O 0.69343 0.78746 0.92373 0.0
O287 O 0.68105 0.77445 0.92817 0.0
O288 O 0.66999 0.80549 0.93639 0.0
C289 C 0.69149 0.77764 0.92801 0.0
O290 O 0.67799 0.77813 0.89401 0.0
C291 C 0.6605 0.80096 0.93935 0.0
O292 O 0.66313 0.7829 0.90494 0.0
O293 O 0.65686 0.79266 0.93321 0.0
C294 C 0.81509 0.68683 0.09054 0.0
O295 O 0.80817 0.69461 0.09387 0.0
Cd296 Cd 0.78869 0.69649 0.08773 0.0
O297 O 0.81202 0.67946 0.08301 0.0
Cd298 Cd 0.79479 0.67563 0.07082 0.0
C299 C 0.77843 0.66941 0.09412 0.0
O300 O 0.78965 0.6956 0.06724 0.0
O301 O 0.77705 0.68317 0.06184 0.0
O302 O 0.80775 0.67172 0.05487 0.0
C303 C 0.78014 0.69363 0.06233 0.0
O304 O 0.77839 0.68018 0.09623 0.0
C305 C 0.80329 0.66211 0.05218 0.0
O306 O 0.78415 0.66536 0.0857 0.0
O307 O 0.79499 0.65861 0.05837 0.0
C308 C 0.30196 0.81542 0.09196 0.0
O309 O 0.29443 0.80835 0.09555 0.0
Cd310 Cd 0.29338 0.7886 0.08993 0.0
O311 O 0.30931 0.81241 0.0844 0.0
Cd312 Cd 0.31368 0.79528 0.0723 0.0
C313 C 0.32122 0.78005 0.09593 0.0
O314 O 0.29387 0.78894 0.06941 0.0
O315 O 0.30699 0.77721 0.06365 0.0
O316 O 0.31661 0.80911 0.05689 0.0
C317 C 0.29638 0.77953 0.0645 0.0
O318 O 0.31051 0.77959 0.09825 0.0
C319 C 0.3259 0.80469 0.05322 0.0
O320 O 0.32485 0.78564 0.08722 0.0
O321 O 0.3297 0.79597 0.05862 0.0
C322 C 0.68676 0.17547 0.09066 0.0
O323 O 0.69445 0.1825 0.09396 0.0
Cd324 Cd 0.6958 0.20209 0.08803 0.0
O325 O 0.67927 0.17846 0.08321 0.0
Cd326 Cd 0.67508 0.19569 0.07106 0.0
C327 C 0.66842 0.21143 0.09464 0.0
O328 O 0.69489 0.20146 0.06758 0.0
O329 O 0.68208 0.21385 0.06256 0.0
O330 O 0.67183 0.18271 0.05499 0.0
C331 C 0.69261 0.21103 0.06288 0.0
O332 O 0.67919 0.21171 0.0967 0.0
C333 C 0.66214 0.18689 0.05215 0.0
O334 O 0.66449 0.20578 0.08611 0.0
O335 O 0.65828 0.19503 0.05834 0.0
C336 C 0.89784 0.81375 0.68746 0.0
O337 O 0.89448 0.80679 0.69519 0.0
Cd338 Cd 0.90079 0.78734 0.6968 0.0
O339 O 0.90543 0.81073 0.68013 0.0
Cd340 Cd 0.91791 0.79374 0.67614 0.0
C341 C 0.89466 0.77756 0.66943 0.0
O342 O 0.92126 0.78865 0.69617 0.0
O343 O 0.92723 0.77628 0.68377 0.0
O344 O 0.93262 0.80807 0.67223 0.0
C345 C 0.92647 0.77929 0.69422 0.0
O346 O 0.89248 0.77739 0.68017 0.0
C347 C 0.9364 0.80329 0.66317 0.0
O348 O 0.90315 0.78328 0.66552 0.0
O349 O 0.9314 0.7941 0.65996 0.0
C350 C 0.17406 0.90026 0.68621 0.0
O351 O 0.18083 0.89655 0.69395 0.0
Cd352 Cd 0.20065 0.90158 0.69559 0.0
O353 O 0.17746 0.90771 0.67889 0.0
Cd354 Cd 0.19502 0.91944 0.6751 0.0
C355 C 0.21026 0.89555 0.66821 0.0
O356 O 0.20085 0.92213 0.69507 0.0
O357 O 0.21291 0.92804 0.68228 0.0
O358 O 0.18246 0.93584 0.67183 0.0
C359 C 0.21034 0.92701 0.69283 0.0
O360 O 0.20991 0.89283 0.67881 0.0
C361 C 0.18663 0.93848 0.66209 0.0
O362 O 0.20536 0.90461 0.66448 0.0
O363 O 0.19461 0.93208 0.65824 0.0
C364 C 0.09081 0.1755 0.68705 0.0
O365 O 0.09442 0.18264 0.69451 0.0
Cd366 Cd 0.08852 0.20227 0.69566 0.0
O367 O 0.08309 0.1784 0.67981 0.0
Cd368 Cd 0.07073 0.19539 0.67563 0.0
C369 C 0.09398 0.21104 0.6678 0.0
O370 O 0.068 0.2014 0.69553 0.0
O371 O 0.0617 0.21321 0.68276 0.0
O372 O 0.0556 0.18128 0.67253 0.0
C373 C 0.06285 0.21074 0.69332 0.0
O374 O 0.09649 0.21147 0.67847 0.0
C375 C 0.05178 0.1858 0.66335 0.0
O376 O 0.08529 0.20537 0.6643 0.0
O377 O 0.05694 0.19472 0.6597 0.0
C378 C 0.81351 0.09145 0.68792 0.0
O379 O 0.80639 0.09485 0.69547 0.0
Cd380 Cd 0.78673 0.08897 0.69633 0.0
O381 O 0.81059 0.08396 0.68045 0.0
Cd382 Cd 0.79367 0.07169 0.67579 0.0
C383 C 0.77822 0.09524 0.66853 0.0
O384 O 0.7873 0.06848 0.69549 0.0
O385 O 0.77558 0.06278 0.68238 0.0
O386 O 0.80787 0.05669 0.67266 0.0
C387 C 0.77786 0.06365 0.693 0.0
O388 O 0.7777 0.0974 0.67927 0.0
C389 C 0.80357 0.05304 0.66331 0.0
O390 O 0.78391 0.08666 0.66478 0.0
O391 O 0.79467 0.05819 0.6596 0.0
C392 C 0.89935 0.17661 0.30225 0.0
O393 O 0.89612 0.18373 0.29461 0.0
Cd394 Cd 0.90212 0.20336 0.29343 0.0
O395 O 0.90675 0.17951 0.30982 0.0
Cd396 Cd 0.91882 0.19661 0.31444 0.0
C397 C 0.89524 0.21253 0.32078 0.0
O398 O 0.9226 0.20271 0.29475 0.0
O399 O 0.9279 0.21461 0.30789 0.0
O400 O 0.93474 0.18353 0.31805 0.0
C401 C 0.92746 0.21212 0.29728 0.0
O402 O 0.8933 0.21291 0.30999 0.0
C403 C 0.93729 0.18761 0.32787 0.0
O404 O 0.90367 0.20678 0.32477 0.0
O405 O 0.93103 0.19575 0.33161 0.0
C406 C 0.81514 0.89993 0.30417 0.0
O407 O 0.80814 0.89666 0.29644 0.0
Cd408 Cd 0.78859 0.90282 0.2951 0.0
O409 O 0.81217 0.90742 0.31161 0.0
Cd410 Cd 0.7953 0.91988 0.31589 0.0
C411 C 0.77919 0.89661 0.32263 0.0
O412 O 0.78948 0.92332 0.29602 0.0
O413 O 0.77764 0.92924 0.30894 0.0
O414 O 0.80958 0.93475 0.31932 0.0
C415 C 0.78015 0.92842 0.29836 0.0
O416 O 0.77895 0.89452 0.31187 0.0
C417 C 0.80509 0.9385 0.32854 0.0
O418 O 0.78495 0.90506 0.32659 0.0
O419 O 0.7961 0.93339 0.3321 0.0
C420 C 0.09086 0.81502 0.30226 0.0
O421 O 0.09414 0.80782 0.29472 0.0
Cd422 Cd 0.08789 0.78828 0.29347 0.0
O423 O 0.08328 0.81226 0.3097 0.0
Cd424 Cd 0.07092 0.79529 0.31411 0.0
C425 C 0.0941 0.77898 0.32093 0.0
O426 O 0.06743 0.78912 0.29436 0.0
O427 O 0.06186 0.77731 0.30751 0.0
O428 O 0.05493 0.80837 0.31747 0.0
C429 C 0.06248 0.77974 0.29689 0.0
O430 O 0.09621 0.77855 0.31018 0.0
C431 C 0.05235 0.80438 0.32731 0.0
O432 O 0.08572 0.78492 0.32476 0.0
O433 O 0.05863 0.7963 0.33116 0.0
C434 C 0.17545 0.09235 0.30338 0.0
O435 O 0.18242 0.09576 0.29569 0.0
Cd436 Cd 0.20202 0.08978 0.29419 0.0
O437 O 0.17849 0.08481 0.31075 0.0
Cd438 Cd 0.19549 0.07248 0.3149 0.0
C439 C 0.21151 0.09581 0.32173 0.0
O440 O 0.2013 0.06927 0.29498 0.0
O441 O 0.21317 0.06331 0.30785 0.0
O442 O 0.18139 0.05742 0.31825 0.0
C443 C 0.21066 0.06421 0.29729 0.0
O444 O 0.2117 0.09799 0.31099 0.0
C445 C 0.18593 0.05366 0.32744 0.0
O446 O 0.20581 0.0873 0.32565 0.0
O447 O 0.19486 0.05886 0.33103 0.0
C448 C 0.68827 0.89449 0.81189 0.0
O449 O 0.69542 0.89123 0.80429 0.0
Cd450 Cd 0.69721 0.89943 0.78551 0.0
O451 O 0.68148 0.90287 0.80994 0.0
Cd452 Cd 0.67737 0.91677 0.79425 0.0
C453 C 0.66935 0.89538 0.77614 0.0
O454 O 0.69725 0.91978 0.78829 0.0
O455 O 0.68433 0.92734 0.77737 0.0
O456 O 0.67512 0.93079 0.80955 0.0
C457 C 0.69491 0.92585 0.77954 0.0
O458 O 0.68001 0.89295 0.77539 0.0
C459 C 0.66573 0.93495 0.80583 0.0
O460 O 0.66584 0.90333 0.78283 0.0
O461 O 0.66155 0.93042 0.7968 0.0
C462 C 0.09225 0.68812 0.81544 0.0
O463 O 0.09596 0.69579 0.80859 0.0
Cd464 Cd 0.09051 0.6974 0.78884 0.0
O465 O 0.08464 0.68091 0.81219 0.0
Cd466 Cd 0.07265 0.67717 0.79484 0.0
C467 C 0.0961 0.66979 0.7793 0.0
O468 O 0.07002 0.69704 0.78882 0.0
O469 O 0.06466 0.6842 0.77656 0.0
O470 O 0.05592 0.67558 0.80708 0.0
C471 C 0.06537 0.69476 0.77923 0.0
O472 O 0.09859 0.68048 0.77929 0.0
C473 C 0.05305 0.66553 0.80389 0.0
O474 O 0.08734 0.66606 0.78472 0.0
O475 O 0.05951 0.66063 0.79656 0.0
C476 C 0.3042 0.09241 0.81421 0.0
O477 O 0.29662 0.09611 0.80726 0.0
Cd478 Cd 0.29538 0.09064 0.78749 0.0
O479 O 0.31149 0.08485 0.81104 0.0
Cd480 Cd 0.31564 0.07284 0.79381 0.0
C481 C 0.32317 0.09649 0.77862 0.0
O482 O 0.29572 0.07011 0.78777 0.0
O483 O 0.30862 0.06418 0.77587 0.0
O484 O 0.31854 0.05756 0.80776 0.0
C485 C 0.29805 0.06515 0.77835 0.0
O486 O 0.31248 0.09888 0.77834 0.0
C487 C 0.3277 0.05368 0.80327 0.0
O488 O 0.32682 0.08772 0.78409 0.0
O489 O 0.33147 0.05888 0.79442 0.0
C490 C 0.89992 0.30328 0.8156 0.0
O491 O 0.89614 0.29574 0.80864 0.0
Cd492 Cd 0.90125 0.29455 0.78877 0.0
O493 O 0.90745 0.31059 0.81239 0.0
Cd494 Cd 0.91917 0.31477 0.79498 0.0
C495 C 0.89548 0.32238 0.77991 0.0
O496 O 0.92173 0.29504 0.7884 0.0
O497 O 0.92707 0.30825 0.77652 0.0
O498 O 0.93601 0.31615 0.80709 0.0
C499 C 0.92631 0.29761 0.77885 0.0
O500 O 0.89303 0.31168 0.77973 0.0
C501 C 0.93886 0.32625 0.80403 0.0
O502 O 0.90431 0.32604 0.78528 0.0
O503 O 0.93232 0.33128 0.79686 0.0
C504 C 0.68673 0.09221 0.17639 0.0
O505 O 0.69439 0.09557 0.18343 0.0
Cd506 Cd 0.69577 0.08943 0.20299 0.0
O507 O 0.67936 0.08463 0.17934 0.0
Cd508 Cd 0.67511 0.07219 0.19627 0.0
C509 C 0.6682 0.09551 0.21228 0.0
O510 O 0.69503 0.06894 0.20203 0.0
O511 O 0.68215 0.0629 0.2139 0.0
O512 O 0.67165 0.05722 0.18209 0.0
C513 C 0.69271 0.06376 0.21134 0.0
O514 O 0.67894 0.09769 0.21258 0.0
C515 C 0.66246 0.05348 0.18666 0.0
O516 O 0.66435 0.087 0.20654 0.0
O517 O 0.65894 0.05866 0.19562 0.0
C518 C 0.89941 0.68691 0.17496 0.0
O519 O 0.89606 0.69467 0.18189 0.0
Cd520 Cd 0.90207 0.69633 0.20144 0.0
O521 O 0.9069 0.67951 0.17805 0.0
Cd522 Cd 0.91903 0.67555 0.19528 0.0
C523 C 0.8956 0.66914 0.21134 0.0
O524 O 0.92257 0.69545 0.2007 0.0
O525 O 0.92785 0.68285 0.21318 0.0
O526 O 0.93499 0.67189 0.18228 0.0
C527 C 0.92739 0.69334 0.21024 0.0
O528 O 0.89349 0.6799 0.21146 0.0
C529 C 0.93771 0.66223 0.18659 0.0
O530 O 0.90408 0.66515 0.20567 0.0
O531 O 0.93154 0.65858 0.19484 0.0
C532 C 0.30318 0.90019 0.17563 0.0
O533 O 0.29558 0.8968 0.18272 0.0
Cd534 Cd 0.29447 0.90236 0.20244 0.0
O535 O 0.31079 0.90751 0.17864 0.0
Cd536 Cd 0.31543 0.91917 0.19604 0.0
C537 C 0.32177 0.89524 0.21148 0.0
O538 O 0.29571 0.92285 0.20211 0.0
O539 O 0.30881 0.92791 0.21418 0.0
O540 O 0.31913 0.93537 0.1833 0.0
C541 C 0.29823 0.92757 0.21161 0.0
O542 O 0.31099 0.89331 0.21183 0.0
C543 C 0.32887 0.9379 0.18755 0.0
O544 O 0.32577 0.90378 0.20589 0.0
O545 O 0.33255 0.93148 0.1956 0.0
C546 C 0.09084 0.30335 0.1755 0.0
O547 O 0.09423 0.29563 0.18247 0.0
Cd548 Cd 0.08836 0.29404 0.20212 0.0
O549 O 0.08335 0.31076 0.17856 0.0
Cd550 Cd 0.07124 0.31494 0.19571 0.0
C551 C 0.09473 0.32142 0.21174 0.0
O552 O 0.06788 0.29509 0.20168 0.0
O553 O 0.06232 0.30815 0.2136 0.0
O554 O 0.05522 0.31827 0.1827 0.0
C555 C 0.06299 0.29755 0.21111 0.0
O556 O 0.09684 0.31066 0.21191 0.0
C557 C 0.05255 0.32807 0.18675 0.0
O558 O 0.08624 0.32539 0.20605 0.0
O559 O 0.05878 0.33193 0.19486 0.0
C560 C 0.81598 0.68583 0.89939 0.0
O561 O 0.80923 0.6937 0.8959 0.0
Cd562 Cd 0.78954 0.69567 0.90144 0.0
O563 O 0.81266 0.67849 0.90683 0.0
Cd564 Cd 0.79522 0.67476 0.91871 0.0
C565 C 0.77948 0.66847 0.89502 0.0
O566 O 0.78963 0.69473 0.92194 0.0
O567 O 0.77722 0.68197 0.9271 0.0
O568 O 0.80786 0.67124 0.93499 0.0
C569 C 0.78001 0.6925 0.92657 0.0
O570 O 0.77953 0.67922 0.89286 0.0
C571 C 0.80353 0.66156 0.93765 0.0
O572 O 0.78498 0.66444 0.9036 0.0
O573 O 0.79543 0.65786 0.9313 0.0
C574 C 0.81505 0.30383 0.09064 0.0
O575 O 0.80798 0.29626 0.09412 0.0
Cd576 Cd 0.78834 0.29497 0.08837 0.0
O577 O 0.81206 0.31127 0.08314 0.0
Cd578 Cd 0.79472 0.31552 0.07121 0.0
C579 C 0.77913 0.3224 0.09482 0.0
O580 O 0.78888 0.29569 0.06787 0.0
O581 O 0.77653 0.30848 0.06275 0.0
O582 O 0.80749 0.31893 0.05498 0.0
C583 C 0.77932 0.29795 0.06317 0.0
O584 O 0.77881 0.31166 0.097 0.0
C585 C 0.80323 0.32862 0.05226 0.0
O586 O 0.78476 0.32623 0.08624 0.0
O587 O 0.79514 0.33239 0.05857 0.0
C588 C 0.68694 0.81476 0.09267 0.0
O589 O 0.69468 0.80775 0.09591 0.0
Cd590 Cd 0.69675 0.78838 0.08945 0.0
O591 O 0.67959 0.81185 0.08505 0.0
Cd592 Cd 0.6758 0.79476 0.07266 0.0
C593 C 0.6698 0.77773 0.09558 0.0
O594 O 0.69578 0.78967 0.06898 0.0
O595 O 0.6833 0.77719 0.0634 0.0
O596 O 0.67171 0.80766 0.05666 0.0
C597 C 0.69375 0.78023 0.06391 0.0
O598 O 0.68056 0.77768 0.09765 0.0
C599 C 0.66208 0.80317 0.05412 0.0
O600 O 0.6657 0.7837 0.08735 0.0
O601 O 0.65864 0.79495 0.06045 0.0
C602 C 0.17423 0.68655 0.09044 0.0
O603 O 0.18124 0.69416 0.09398 0.0
Cd604 Cd 0.201 0.69546 0.0886 0.0
O605 O 0.17737 0.67904 0.08308 0.0
Cd606 Cd 0.19489 0.67459 0.07157 0.0
C607 C 0.21028 0.66817 0.09551 0.0
O608 O 0.20089 0.69439 0.0681 0.0
O609 O 0.21304 0.68142 0.06298 0.0
O610 O 0.18228 0.67087 0.0553 0.0
C611 C 0.21044 0.692 0.06346 0.0
O612 O 0.21052 0.67895 0.09755 0.0
C613 C 0.18656 0.66112 0.05282 0.0
O614 O 0.20475 0.66421 0.08692 0.0
O615 O 0.19459 0.65747 0.05928 0.0
C616 C 0.30473 0.17551 0.09212 0.0
O617 O 0.29698 0.18228 0.09581 0.0
Cd618 Cd 0.2951 0.20204 0.09056 0.0
O619 O 0.312 0.17889 0.08462 0.0
Cd620 Cd 0.31561 0.19653 0.07294 0.0
C621 C 0.32244 0.21183 0.09676 0.0
O622 O 0.2956 0.20199 0.07005 0.0
O623 O 0.30812 0.21463 0.06488 0.0
O624 O 0.31877 0.18397 0.05654 0.0
C625 C 0.29765 0.21165 0.06543 0.0
O626 O 0.31173 0.2118 0.09909 0.0
C627 C 0.32828 0.18843 0.05355 0.0
O628 O 0.3263 0.20648 0.08801 0.0
O629 O 0.33212 0.19654 0.05981 0.0
C630 C 0.17401 0.30497 0.89942 0.0
O631 O 0.18081 0.29722 0.8958 0.0
Cd632 Cd 0.20063 0.29555 0.90093 0.0
O633 O 0.17738 0.3124 0.90676 0.0
Cd634 Cd 0.19503 0.31642 0.91825 0.0
C635 C 0.21024 0.32283 0.89421 0.0
O636 O 0.20089 0.29651 0.92139 0.0
O637 O 0.21319 0.30941 0.92646 0.0
O638 O 0.18257 0.31987 0.93465 0.0
C639 C 0.21053 0.29884 0.92591 0.0
O640 O 0.21026 0.31207 0.89209 0.0
C641 C 0.18692 0.32954 0.93732 0.0
O642 O 0.20489 0.32684 0.90289 0.0
O643 O 0.19492 0.3333 0.93089 0.0
C644 C 0.68703 0.17843 0.89774 0.0
O645 O 0.69484 0.18543 0.89465 0.0
Cd646 Cd 0.69703 0.20457 0.90191 0.0
O647 O 0.67991 0.18114 0.90563 0.0
Cd648 Cd 0.67622 0.19755 0.91889 0.0
C649 C 0.6698 0.21488 0.89631 0.0
O650 O 0.69616 0.20306 0.92235 0.0
O651 O 0.68333 0.21494 0.92846 0.0
O652 O 0.67278 0.18398 0.93446 0.0
C653 C 0.69388 0.21232 0.92765 0.0
O654 O 0.68054 0.21507 0.89414 0.0
C655 C 0.66307 0.18809 0.93731 0.0
O656 O 0.66582 0.20879 0.90451 0.0
O657 O 0.65929 0.19644 0.93133 0.0
C658 C 0.30445 0.81293 0.89783 0.0
O659 O 0.29665 0.80595 0.89467 0.0
Cd660 Cd 0.29488 0.78664 0.90137 0.0
O661 O 0.31176 0.81005 0.9055 0.0
Cd662 Cd 0.31552 0.79336 0.91844 0.0
C663 C 0.3223 0.77658 0.89571 0.0
O664 O 0.2955 0.78825 0.92182 0.0
O665 O 0.30789 0.77594 0.92786 0.0
O666 O 0.31891 0.8079 0.93305 0.0
C667 C 0.29744 0.77892 0.92709 0.0
O668 O 0.31155 0.77646 0.89353 0.0
C669 C 0.32791 0.80328 0.93716 0.0
O670 O 0.32628 0.7825 0.90405 0.0
O671 O 0.33141 0.79411 0.93234 0.0
C672 C 0.59159 0.67489 0.80252 0.0
O673 O 0.59505 0.68184 0.79482 0.0
Cd674 Cd 0.58906 0.70141 0.79302 0.0
O675 O 0.58399 0.67796 0.80981 0.0
Cd676 Cd 0.57181 0.69517 0.81366 0.0
C677 C 0.59512 0.7114 0.82028 0.0
O678 O 0.56855 0.70066 0.79372 0.0
O679 O 0.56299 0.71302 0.80631 0.0
O680 O 0.55579 0.68216 0.81705 0.0
C681 C 0.56365 0.71016 0.79581 0.0
O682 O 0.59735 0.71152 0.80955 0.0
C683 C 0.55297 0.68639 0.82672 0.0
O684 O 0.58663 0.70567 0.82418 0.0
O685 O 0.55912 0.69461 0.83049 0.0
C686 C 0.31455 0.59081 0.80388 0.0
O687 O 0.30748 0.5942 0.79625 0.0
Cd688 Cd 0.28774 0.58862 0.79507 0.0
O689 O 0.31152 0.58349 0.81147 0.0
Cd690 Cd 0.29418 0.57177 0.81614 0.0
C691 C 0.27865 0.59564 0.82243 0.0
O692 O 0.288 0.56813 0.79643 0.0
O693 O 0.27608 0.56299 0.80963 0.0
O694 O 0.30701 0.55564 0.81969 0.0
C695 C 0.27853 0.5634 0.79901 0.0
O696 O 0.27833 0.59757 0.81165 0.0
C697 C 0.30288 0.55309 0.82948 0.0
O698 O 0.28426 0.58712 0.82646 0.0
O699 O 0.29484 0.55946 0.83325 0.0
C700 C 0.39828 0.31601 0.80282 0.0
O701 O 0.39466 0.30923 0.79505 0.0
Cd702 Cd 0.40004 0.28955 0.79313 0.0
O703 O 0.40584 0.31271 0.81007 0.0
Cd704 Cd 0.41787 0.29523 0.81354 0.0
C705 C 0.39436 0.27944 0.82042 0.0
O706 O 0.4206 0.28987 0.79347 0.0
O707 O 0.42645 0.27745 0.80592 0.0
O708 O 0.43423 0.30787 0.81682 0.0
C709 C 0.42554 0.28035 0.79545 0.0
O710 O 0.39159 0.27986 0.80983 0.0
C711 C 0.43701 0.30354 0.82646 0.0
O712 O 0.40333 0.2845 0.82416 0.0
O713 O 0.4307 0.29546 0.83025 0.0
C714 C 0.67526 0.40024 0.80369 0.0
O715 O 0.68218 0.39684 0.79594 0.0
Cd716 Cd 0.70184 0.40261 0.79427 0.0
O717 O 0.67841 0.40766 0.81113 0.0
Cd718 Cd 0.69574 0.41955 0.81528 0.0
C719 C 0.71173 0.3959 0.82139 0.0
O720 O 0.70144 0.42311 0.79541 0.0
O721 O 0.71357 0.42857 0.80829 0.0
O722 O 0.68289 0.43561 0.8191 0.0
C723 C 0.71091 0.42798 0.79774 0.0
O724 O 0.71181 0.39387 0.81062 0.0
C725 C 0.68717 0.43814 0.82883 0.0
O726 O 0.70611 0.40439 0.82546 0.0
O727 O 0.69532 0.43181 0.83243 0.0
C728 C 0.59118 0.31429 0.18665 0.0
O729 O 0.59448 0.30733 0.1944 0.0
Cd730 Cd 0.58839 0.28781 0.19613 0.0
O731 O 0.58367 0.31126 0.17923 0.0
Cd732 Cd 0.57146 0.29404 0.17526 0.0
C733 C 0.59484 0.27784 0.16895 0.0
O734 O 0.56791 0.28868 0.19518 0.0
O735 O 0.56258 0.2762 0.18258 0.0
O736 O 0.55555 0.30709 0.17153 0.0
C737 C 0.56304 0.27916 0.19308 0.0
O738 O 0.59692 0.27772 0.17971 0.0
C739 C 0.55281 0.30273 0.16189 0.0
O740 O 0.5864 0.28356 0.16492 0.0
O741 O 0.55895 0.29444 0.1583 0.0
C742 C 0.67601 0.59119 0.18687 0.0
O743 O 0.68311 0.59461 0.19444 0.0
Cd744 Cd 0.70275 0.58879 0.19533 0.0
O745 O 0.67899 0.58379 0.17933 0.0
Cd746 Cd 0.6961 0.57177 0.17466 0.0
C747 C 0.71163 0.5954 0.16776 0.0
O748 O 0.70204 0.56829 0.19446 0.0
O749 O 0.71398 0.56263 0.18154 0.0
O750 O 0.68191 0.55683 0.17119 0.0
C751 C 0.71143 0.56331 0.19211 0.0
O752 O 0.712 0.59744 0.17852 0.0
C753 C 0.68644 0.55309 0.16199 0.0
O754 O 0.706 0.58684 0.16385 0.0
O755 O 0.69542 0.55823 0.15847 0.0
C756 C 0.39914 0.67584 0.18503 0.0
O757 O 0.39582 0.68262 0.19294 0.0
Cd758 Cd 0.40202 0.70201 0.19543 0.0
O759 O 0.4067 0.67903 0.17774 0.0
Cd760 Cd 0.41899 0.69636 0.17432 0.0
C761 C 0.39575 0.71293 0.16854 0.0
O762 O 0.42246 0.70072 0.19457 0.0
O763 O 0.42825 0.71354 0.18257 0.0
O764 O 0.43379 0.68248 0.16885 0.0
C765 C 0.42758 0.7102 0.19291 0.0
O766 O 0.3937 0.71277 0.17931 0.0
C767 C 0.43757 0.68837 0.16046 0.0
O768 O 0.40409 0.7072 0.16433 0.0
O769 O 0.4325 0.6978 0.15832 0.0
C770 C 0.31521 0.39928 0.18609 0.0
O771 O 0.30832 0.39577 0.19383 0.0
Cd772 Cd 0.28865 0.4013 0.19552 0.0
O773 O 0.31199 0.4067 0.17868 0.0
Cd774 Cd 0.29447 0.41845 0.17474 0.0
C775 C 0.27883 0.39471 0.16832 0.0
O776 O 0.28893 0.42182 0.19464 0.0
O777 O 0.27637 0.42682 0.18202 0.0
O778 O 0.30707 0.43477 0.17116 0.0
C779 C 0.27929 0.42642 0.19252 0.0
O780 O 0.27878 0.39259 0.17908 0.0
C781 C 0.30264 0.4375 0.16155 0.0
O782 O 0.28435 0.4033 0.16432 0.0
O783 O 0.29453 0.43116 0.15789 0.0
C784 C 0.80202 0.59188 0.67564 0.0
O785 O 0.79436 0.59513 0.68273 0.0
Cd786 Cd 0.79323 0.58902 0.70232 0.0
O787 O 0.80953 0.58443 0.67854 0.0
Cd788 Cd 0.81411 0.57205 0.69542 0.0
C789 C 0.82084 0.59549 0.71133 0.0
O790 O 0.79433 0.56854 0.70152 0.0
O791 O 0.8075 0.56278 0.71319 0.0
O792 O 0.81752 0.55709 0.68124 0.0
C793 C 0.79689 0.56348 0.71083 0.0
O794 O 0.81007 0.59751 0.71172 0.0
C795 C 0.82683 0.55349 0.68567 0.0
O796 O 0.82477 0.58704 0.70555 0.0
O797 O 0.83044 0.55874 0.69455 0.0
C798 C 0.39864 0.80291 0.67535 0.0
O799 O 0.39518 0.7953 0.6824 0.0
Cd800 Cd 0.40131 0.79412 0.70199 0.0
O801 O 0.40625 0.81023 0.67831 0.0
Cd802 Cd 0.41874 0.81454 0.69514 0.0
C803 C 0.39548 0.82186 0.711 0.0
O804 O 0.4218 0.79465 0.7011 0.0
O805 O 0.42804 0.80759 0.71281 0.0
O806 O 0.43348 0.81771 0.68071 0.0
C807 C 0.42701 0.797 0.71039 0.0
O808 O 0.39317 0.81114 0.71138 0.0
C809 C 0.43729 0.82699 0.68506 0.0
O810 O 0.40406 0.82556 0.70527 0.0
O811 O 0.43231 0.83064 0.69409 0.0
C812 C 0.18686 0.40175 0.67454 0.0
O813 O 0.19523 0.39905 0.68101 0.0
Cd814 Cd 0.19649 0.40391 0.70094 0.0
O815 O 0.17881 0.4083 0.6781 0.0
Cd816 Cd 0.17473 0.42016 0.6955 0.0
C817 C 0.16948 0.3959 0.71065 0.0
O818 O 0.19447 0.42428 0.70132 0.0
O819 O 0.18139 0.4286 0.7137 0.0
O820 O 0.17067 0.43627 0.68284 0.0
C821 C 0.19196 0.42859 0.71101 0.0
O822 O 0.18032 0.39418 0.71051 0.0
C823 C 0.16095 0.43867 0.6872 0.0
O824 O 0.16509 0.40449 0.70544 0.0
O825 O 0.15744 0.43222 0.69531 0.0
C826 C 0.59118 0.18746 0.67424 0.0
O827 O 0.5948 0.195 0.68127 0.0
Cd828 Cd 0.58885 0.19676 0.70087 0.0
O829 O 0.58347 0.18024 0.67723 0.0
Cd830 Cd 0.57144 0.17633 0.69446 0.0
C831 C 0.59473 0.16948 0.71066 0.0
O832 O 0.56831 0.19624 0.70016 0.0
O833 O 0.56271 0.18355 0.71241 0.0
O834 O 0.55526 0.17276 0.68166 0.0
C835 C 0.56343 0.19408 0.70965 0.0
O836 O 0.59702 0.1802 0.71104 0.0
C837 C 0.55265 0.16303 0.68592 0.0
O838 O 0.5863 0.16575 0.70473 0.0
O839 O 0.55896 0.15936 0.69406 0.0
C840 C 0.80371 0.39819 0.31419 0.0
O841 O 0.79602 0.3948 0.30721 0.0
Cd842 Cd 0.7944 0.40093 0.28767 0.0
O843 O 0.81104 0.40579 0.3112 0.0
Cd844 Cd 0.81507 0.41825 0.29422 0.0
C845 C 0.82189 0.39505 0.27799 0.0
O846 O 0.79508 0.42141 0.28864 0.0
O847 O 0.80782 0.42758 0.2767 0.0
O848 O 0.81857 0.43322 0.30838 0.0
C849 C 0.79729 0.42663 0.27933 0.0
O850 O 0.81115 0.39283 0.27783 0.0
C851 C 0.82771 0.437 0.30375 0.0
O852 O 0.8258 0.40353 0.28374 0.0
O853 O 0.8312 0.43184 0.29476 0.0
C854 C 0.58964 0.80395 0.31574 0.0
O855 O 0.593 0.7963 0.3087 0.0
Cd856 Cd 0.58736 0.79509 0.28899 0.0
O857 O 0.58227 0.8115 0.31272 0.0
Cd858 Cd 0.57043 0.81596 0.29542 0.0
C859 C 0.59422 0.82248 0.27991 0.0
O860 O 0.56688 0.79625 0.28922 0.0
O861 O 0.56187 0.80937 0.27718 0.0
O862 O 0.5542 0.81947 0.30813 0.0
C863 C 0.56228 0.79876 0.27968 0.0
O864 O 0.59623 0.81171 0.27957 0.0
C865 C 0.55168 0.82926 0.30396 0.0
O866 O 0.58568 0.82642 0.28553 0.0
O867 O 0.55811 0.83303 0.29597 0.0
C868 C 0.18594 0.59206 0.3134 0.0
O869 O 0.19371 0.59523 0.3064 0.0
Cd870 Cd 0.19573 0.58863 0.28705 0.0
O871 O 0.17862 0.58439 0.31056 0.0
Cd872 Cd 0.1749 0.57166 0.29371 0.0
C873 C 0.16858 0.59445 0.27664 0.0
O874 O 0.19486 0.56817 0.28828 0.0
O875 O 0.18217 0.56224 0.27619 0.0
O876 O 0.17141 0.55585 0.30699 0.0
C877 C 0.1927 0.563 0.27894 0.0
O878 O 0.17933 0.59661 0.27658 0.0
C879 C 0.16176 0.55297 0.30275 0.0
O880 O 0.16454 0.58618 0.2826 0.0
O881 O 0.15801 0.55904 0.29447 0.0
C882 C 0.39917 0.18793 0.31557 0.0
O883 O 0.3957 0.19558 0.30857 0.0
Cd884 Cd 0.40133 0.19709 0.28885 0.0
O885 O 0.4066 0.18047 0.31248 0.0
Cd886 Cd 0.41839 0.17614 0.29513 0.0
C887 C 0.39464 0.16977 0.2794 0.0
O888 O 0.42181 0.19598 0.28919 0.0
O889 O 0.42721 0.18295 0.27717 0.0
O890 O 0.43458 0.17241 0.30786 0.0
C891 C 0.42664 0.19354 0.27972 0.0
O892 O 0.39257 0.18054 0.27917 0.0
C893 C 0.43705 0.16265 0.30361 0.0
O894 O 0.40317 0.16581 0.28503 0.0
O895 O 0.43063 0.15899 0.29556 0.0
C896 C 0.67646 0.80385 0.59093 0.0
O897 O 0.68357 0.79619 0.59413 0.0
Cd898 Cd 0.70302 0.79495 0.58766 0.0
O899 O 0.67928 0.8113 0.58338 0.0
Cd900 Cd 0.69599 0.81574 0.57074 0.0
C901 C 0.71236 0.82251 0.59382 0.0
O902 O 0.70175 0.79588 0.56721 0.0
O903 O 0.71351 0.80884 0.56115 0.0
O904 O 0.68152 0.81929 0.55609 0.0
C905 C 0.711 0.79826 0.56196 0.0
O906 O 0.71272 0.81174 0.59589 0.0
C907 C 0.68599 0.82855 0.55238 0.0
O908 O 0.70646 0.82644 0.58546 0.0
O909 O 0.69504 0.83205 0.55741 0.0
C910 C 0.67425 0.18647 0.39937 0.0
O911 O 0.68115 0.19419 0.39585 0.0
Cd912 Cd 0.70091 0.19583 0.40128 0.0
O913 O 0.67746 0.17904 0.40678 0.0
Cd914 Cd 0.6949 0.1749 0.4185 0.0
C915 C 0.71048 0.1685 0.39471 0.0
O916 O 0.70087 0.19477 0.42176 0.0
O917 O 0.71295 0.18175 0.42706 0.0
O918 O 0.68229 0.1714 0.43481 0.0
C919 C 0.71041 0.19234 0.42646 0.0
O920 O 0.71059 0.17927 0.39259 0.0
C921 C 0.68652 0.16165 0.43738 0.0
O922 O 0.70496 0.16451 0.4033 0.0
O923 O 0.69451 0.15789 0.43095 0.0
C924 C 0.80403 0.67515 0.39916 0.0
O925 O 0.79625 0.68195 0.3956 0.0
Cd926 Cd 0.79459 0.70164 0.40093 0.0
O927 O 0.81136 0.67844 0.40663 0.0
Cd928 Cd 0.81498 0.69596 0.41863 0.0
C929 C 0.82192 0.71145 0.39495 0.0
O930 O 0.79496 0.70136 0.42146 0.0
O931 O 0.80742 0.71386 0.42711 0.0
O932 O 0.81828 0.68327 0.43493 0.0
C933 C 0.79695 0.71092 0.42631 0.0
O934 O 0.81131 0.71108 0.39224 0.0
C935 C 0.8279 0.68761 0.43775 0.0
O936 O 0.82566 0.70647 0.40396 0.0
O937 O 0.83168 0.69573 0.43148 0.0
C938 C 0.31576 0.80456 0.3997 0.0
O939 O 0.30885 0.79686 0.39617 0.0
Cd940 Cd 0.28911 0.79528 0.4016 0.0
O941 O 0.31257 0.81197 0.40713 0.0
Cd942 Cd 0.29516 0.81605 0.41889 0.0
C943 C 0.27959 0.82265 0.39516 0.0
O944 O 0.28919 0.79618 0.42211 0.0
O945 O 0.27708 0.80912 0.42746 0.0
O946 O 0.30784 0.8194 0.43518 0.0
C947 C 0.27965 0.79854 0.42681 0.0
O948 O 0.27948 0.81189 0.39299 0.0
C949 C 0.30365 0.82912 0.43786 0.0
O950 O 0.2851 0.82658 0.40378 0.0
O951 O 0.29562 0.83295 0.43151 0.0
C952 C 0.18631 0.31395 0.39891 0.0
O953 O 0.194 0.30691 0.39565 0.0
Cd954 Cd 0.19532 0.2874 0.40198 0.0
O955 O 0.17894 0.31106 0.40651 0.0
Cd956 Cd 0.17476 0.29428 0.41921 0.0
C957 C 0.16767 0.27813 0.39607 0.0
O958 O 0.19465 0.28844 0.42244 0.0
O959 O 0.18174 0.27661 0.42849 0.0
O960 O 0.17168 0.3087 0.43401 0.0
C961 C 0.19231 0.27913 0.42761 0.0
O962 O 0.1784 0.27782 0.39387 0.0
C963 C 0.16248 0.30431 0.43792 0.0
O964 O 0.16383 0.28392 0.40455 0.0
O965 O 0.15876 0.29532 0.43293 0.0
C966 C 0.31487 0.18648 0.59063 0.0
O967 O 0.30798 0.19424 0.59404 0.0
Cd968 Cd 0.2883 0.19592 0.58836 0.0
O969 O 0.3117 0.17903 0.58322 0.0
Cd970 Cd 0.29437 0.17487 0.57133 0.0
C971 C 0.27853 0.16867 0.59502 0.0
O972 O 0.28863 0.19477 0.56789 0.0
O973 O 0.27651 0.18184 0.56245 0.0
O974 O 0.30725 0.17128 0.55528 0.0
C975 C 0.27916 0.1924 0.56304 0.0
O976 O 0.27846 0.17945 0.59707 0.0
C977 C 0.30299 0.16158 0.55261 0.0
O978 O 0.2841 0.16461 0.5865 0.0
O979 O 0.29484 0.15786 0.55888 0.0
C980 C 0.80353 0.31536 0.59075 0.0
O981 O 0.79573 0.3084 0.59396 0.0
Cd982 Cd 0.79396 0.2889 0.58785 0.0
O983 O 0.81098 0.31235 0.58328 0.0
Cd984 Cd 0.81491 0.29513 0.57106 0.0
C985 C 0.82105 0.27884 0.59442 0.0
O986 O 0.79503 0.28971 0.56737 0.0
O987 O 0.80766 0.27721 0.56227 0.0
O988 O 0.81872 0.30799 0.55499 0.0
C989 C 0.79717 0.28015 0.5626 0.0
O990 O 0.81028 0.27874 0.59643 0.0
C991 C 0.82835 0.30356 0.55232 0.0
O992 O 0.82514 0.28459 0.58603 0.0
O993 O 0.83192 0.29537 0.55862 0.0
C994 C 0.18732 0.67578 0.59268 0.0
O995 O 0.19488 0.68298 0.59596 0.0
Cd996 Cd 0.19622 0.70244 0.58949 0.0
O997 O 0.17997 0.67851 0.585 0.0
Cd998 Cd 0.17568 0.69523 0.57228 0.0
C999 C 0.16857 0.7118 0.59513 0.0
O1000 O 0.19555 0.70118 0.56904 0.0
O1001 O 0.18257 0.71284 0.56284 0.0
O1002 O 0.17252 0.68097 0.55732 0.0
C1003 C 0.19316 0.71042 0.56377 0.0
O1004 O 0.1793 0.71219 0.59734 0.0
C1005 C 0.16327 0.68537 0.55355 0.0
O1006 O 0.16476 0.70579 0.58679 0.0
O1007 O 0.15955 0.69425 0.55874 0.0
C1008 C 0.40048 0.31615 0.18724 0.0
O1009 O 0.39714 0.30928 0.19506 0.0
Cd1010 Cd 0.4029 0.28961 0.19687 0.0
O1011 O 0.40788 0.31298 0.17979 0.0
Cd1012 Cd 0.41982 0.29565 0.17573 0.0
C1013 C 0.39617 0.27965 0.16974 0.0
O1014 O 0.42336 0.2899 0.19561 0.0
O1015 O 0.42865 0.27776 0.18267 0.0
O1016 O 0.43596 0.30841 0.17195 0.0
C1017 C 0.42812 0.28039 0.19323 0.0
O1018 O 0.39417 0.27959 0.18052 0.0
C1019 C 0.43845 0.30412 0.16221 0.0
O1020 O 0.40462 0.28528 0.16562 0.0
O1021 O 0.43204 0.29604 0.15859 0.0
C1022 C 0.67594 0.39866 0.18663 0.0
O1023 O 0.68295 0.39543 0.19436 0.0
Cd1024 Cd 0.70238 0.4019 0.19599 0.0
O1025 O 0.67883 0.40628 0.17927 0.0
Cd1026 Cd 0.69562 0.41897 0.17525 0.0
C1027 C 0.71221 0.396 0.16858 0.0
O1028 O 0.70115 0.42238 0.19521 0.0
O1029 O 0.71307 0.42856 0.18249 0.0
O1030 O 0.68134 0.4338 0.17161 0.0
C1031 C 0.71043 0.42764 0.19303 0.0
O1032 O 0.71239 0.39384 0.17933 0.0
C1033 C 0.68595 0.43753 0.16243 0.0
O1034 O 0.70633 0.40436 0.16462 0.0
O1035 O 0.69498 0.43241 0.15901 0.0
C1036 C 0.59181 0.67471 0.18853 0.0
O1037 O 0.59562 0.6818 0.19593 0.0
Cd1038 Cd 0.59059 0.70172 0.1966 0.0
O1039 O 0.58431 0.67782 0.18116 0.0
Cd1040 Cd 0.57265 0.69517 0.17661 0.0
C1041 C 0.59652 0.70977 0.16859 0.0
O1042 O 0.5701 0.7022 0.19617 0.0
O1043 O 0.56491 0.71386 0.18269 0.0
O1044 O 0.55578 0.68307 0.17557 0.0
C1045 C 0.56557 0.71172 0.19337 0.0
O1046 O 0.59898 0.7102 0.17926 0.0
C1047 C 0.5529 0.68588 0.16542 0.0
O1048 O 0.5876 0.70444 0.16508 0.0
O1049 O 0.55944 0.69293 0.16019 0.0
C1050 C 0.31516 0.59113 0.18588 0.0
O1051 O 0.30837 0.59453 0.19375 0.0
Cd1052 Cd 0.28874 0.58877 0.19586 0.0
O1053 O 0.31192 0.58363 0.17855 0.0
Cd1054 Cd 0.2946 0.57157 0.17486 0.0
C1055 C 0.2785 0.59513 0.16874 0.0
O1056 O 0.28906 0.56829 0.19485 0.0
O1057 O 0.27685 0.56274 0.18206 0.0
O1058 O 0.30733 0.55538 0.1712 0.0
C1059 C 0.27956 0.56342 0.1926 0.0
O1060 O 0.27857 0.59727 0.17949 0.0
C1061 C 0.30292 0.5527 0.16157 0.0
O1062 O 0.28407 0.58661 0.16466 0.0
O1063 O 0.2948 0.55904 0.15792 0.0
C1064 C 0.39972 0.67423 0.80261 0.0
O1065 O 0.39614 0.68133 0.7951 0.0
Cd1066 Cd 0.40178 0.70106 0.79385 0.0
O1067 O 0.40729 0.67721 0.80997 0.0
Cd1068 Cd 0.41927 0.69446 0.81427 0.0
C1069 C 0.39567 0.70999 0.82148 0.0
O1070 O 0.42229 0.70069 0.79448 0.0
O1071 O 0.42791 0.71258 0.80752 0.0
O1072 O 0.4355 0.68162 0.81734 0.0
C1073 C 0.42714 0.71014 0.79691 0.0
O1074 O 0.39336 0.71037 0.81076 0.0
C1075 C 0.43824 0.68567 0.82712 0.0
O1076 O 0.40433 0.70436 0.82516 0.0
O1077 O 0.43195 0.69368 0.83108 0.0
C1078 C 0.31467 0.4007 0.80333 0.0
O1079 O 0.30777 0.39734 0.79555 0.0
Cd1080 Cd 0.28806 0.40296 0.79391 0.0
O1081 O 0.31151 0.40807 0.81082 0.0
Cd1082 Cd 0.29417 0.41992 0.81503 0.0
C1083 C 0.27841 0.39613 0.82114 0.0
O1084 O 0.28824 0.42344 0.7952 0.0
O1085 O 0.27618 0.42864 0.80826 0.0
O1086 O 0.3069 0.43611 0.81872 0.0
C1087 C 0.27873 0.42815 0.79767 0.0
O1088 O 0.27828 0.39414 0.81035 0.0
C1089 C 0.30269 0.4386 0.82849 0.0
O1090 O 0.284 0.40464 0.82521 0.0
O1091 O 0.29463 0.43219 0.83216 0.0
C1092 C 0.59094 0.31626 0.80375 0.0
O1093 O 0.5946 0.3093 0.79616 0.0
Cd1094 Cd 0.58917 0.28957 0.7947 0.0
O1095 O 0.58339 0.3131 0.81106 0.0
Cd1096 Cd 0.57158 0.29559 0.81497 0.0
C1097 C 0.59532 0.28038 0.82221 0.0
O1098 O 0.56865 0.28985 0.79507 0.0
O1099 O 0.56343 0.27735 0.80766 0.0
O1100 O 0.55522 0.30824 0.81809 0.0
C1101 C 0.564 0.28023 0.79716 0.0
O1102 O 0.59768 0.28016 0.81151 0.0
C1103 C 0.5523 0.3039 0.82768 0.0
O1104 O 0.58655 0.28582 0.82591 0.0
O1105 O 0.55856 0.29581 0.83154 0.0
C1106 C 0.67566 0.59031 0.80376 0.0
O1107 O 0.68269 0.59365 0.79609 0.0
Cd1108 Cd 0.70234 0.58785 0.79474 0.0
O1109 O 0.67868 0.58292 0.8113 0.0
Cd1110 Cd 0.69597 0.571 0.81572 0.0
C1111 C 0.71174 0.59473 0.82201 0.0
O1112 O 0.70184 0.56738 0.79592 0.0
O1113 O 0.71394 0.56212 0.80891 0.0
O1114 O 0.68304 0.55497 0.81942 0.0
C1115 C 0.71131 0.56258 0.79834 0.0
O1116 O 0.712 0.5967 0.81123 0.0
C1117 C 0.68727 0.55241 0.82917 0.0
O1118 O 0.70609 0.58623 0.82603 0.0
O1119 O 0.69541 0.55872 0.83283 0.0
C1120 C 0.18637 0.39912 0.31496 0.0
O1121 O 0.19405 0.39573 0.30796 0.0
Cd1122 Cd 0.19558 0.40161 0.28838 0.0
O1123 O 0.17897 0.40664 0.31194 0.0
Cd1124 Cd 0.17498 0.4188 0.29466 0.0
C1125 C 0.1682 0.39527 0.27886 0.0
O1126 O 0.19486 0.42209 0.28901 0.0
O1127 O 0.18217 0.42726 0.27657 0.0
O1128 O 0.17168 0.43498 0.30751 0.0
C1129 C 0.19268 0.42681 0.27944 0.0
O1130 O 0.17895 0.3931 0.27865 0.0
C1131 C 0.16203 0.4378 0.30324 0.0
O1132 O 0.16432 0.40383 0.28449 0.0
O1133 O 0.15822 0.43156 0.29511 0.0
C1134 C 0.58968 0.18632 0.3157 0.0
O1135 O 0.59309 0.19411 0.30882 0.0
Cd1136 Cd 0.58736 0.19583 0.2892 0.0
O1137 O 0.58227 0.17888 0.31251 0.0
Cd1138 Cd 0.57038 0.17493 0.2951 0.0
C1139 C 0.594 0.16868 0.27926 0.0
O1140 O 0.56687 0.19484 0.28964 0.0
O1141 O 0.56179 0.18223 0.27709 0.0
O1142 O 0.55425 0.17122 0.30787 0.0
C1143 C 0.56219 0.19273 0.28004 0.0
O1144 O 0.59606 0.17945 0.27922 0.0
C1145 C 0.55154 0.16159 0.30347 0.0
O1146 O 0.58548 0.16461 0.28483 0.0
O1147 O 0.5578 0.15798 0.29527 0.0
C1148 C 0.80394 0.59159 0.31444 0.0
O1149 O 0.79614 0.59496 0.30757 0.0
Cd1150 Cd 0.79457 0.5891 0.28792 0.0
O1151 O 0.81132 0.58411 0.31128 0.0
Cd1152 Cd 0.81538 0.57182 0.29423 0.0
C1153 C 0.82209 0.59533 0.27845 0.0
O1154 O 0.79545 0.56861 0.28843 0.0
O1155 O 0.80837 0.5628 0.2765 0.0
O1156 O 0.81874 0.55673 0.30828 0.0
C1157 C 0.7978 0.56362 0.27903 0.0
O1158 O 0.81134 0.59748 0.27831 0.0
C1159 C 0.82793 0.55299 0.30371 0.0
O1160 O 0.82605 0.58677 0.28404 0.0
O1161 O 0.8315 0.55822 0.29479 0.0
C1162 C 0.3991 0.80378 0.31515 0.0
O1163 O 0.39553 0.79596 0.3084 0.0
Cd1164 Cd 0.40122 0.79379 0.28879 0.0
O1165 O 0.40662 0.81105 0.31184 0.0
Cd1166 Cd 0.41849 0.81463 0.29436 0.0
C1167 C 0.39493 0.82081 0.27831 0.0
O1168 O 0.42175 0.79455 0.28935 0.0
O1169 O 0.42728 0.80684 0.27668 0.0
O1170 O 0.43457 0.81854 0.30715 0.0
C1171 C 0.42663 0.79641 0.2798 0.0
O1172 O 0.39271 0.81007 0.27846 0.0
C1173 C 0.43728 0.82811 0.30261 0.0
O1174 O 0.4035 0.82485 0.28382 0.0
O1175 O 0.43106 0.83157 0.29431 0.0
C1176 C 0.18733 0.5905 0.67669 0.0
O1177 O 0.19496 0.59374 0.68382 0.0
Cd1178 Cd 0.19609 0.58781 0.70345 0.0
O1179 O 0.17971 0.58315 0.67959 0.0
Cd1180 Cd 0.17501 0.57119 0.69679 0.0
C1181 C 0.1688 0.59492 0.71258 0.0
O1182 O 0.1947 0.56736 0.70291 0.0
O1183 O 0.18149 0.56225 0.71484 0.0
O1184 O 0.17116 0.55519 0.68386 0.0
C1185 C 0.1921 0.56258 0.71235 0.0
O1186 O 0.1796 0.59679 0.71299 0.0
C1187 C 0.16135 0.55278 0.68804 0.0
O1188 O 0.16477 0.58651 0.70684 0.0
O1189 O 0.15774 0.55916 0.69613 0.0
C1190 C 0.40008 0.18668 0.67398 0.0
O1191 O 0.39678 0.19448 0.68089 0.0
Cd1192 Cd 0.40303 0.19646 0.70032 0.0
O1193 O 0.40763 0.17932 0.67703 0.0
Cd1194 Cd 0.41993 0.17558 0.69421 0.0
C1195 C 0.3968 0.16944 0.71083 0.0
O1196 O 0.42349 0.19557 0.6993 0.0
O1197 O 0.42898 0.18319 0.7119 0.0
O1198 O 0.43581 0.17173 0.68116 0.0
C1199 C 0.42841 0.19364 0.70882 0.0
O1200 O 0.3947 0.1802 0.71081 0.0
C1201 C 0.43853 0.16211 0.68557 0.0
O1202 O 0.40515 0.16534 0.70504 0.0
O1203 O 0.43239 0.15858 0.69389 0.0
C1204 C 0.80379 0.39876 0.67659 0.0
O1205 O 0.79609 0.39548 0.68362 0.0
Cd1206 Cd 0.79455 0.40189 0.70309 0.0
O1207 O 0.81111 0.40641 0.67948 0.0
Cd1208 Cd 0.81518 0.41915 0.69624 0.0
C1209 C 0.82213 0.39614 0.71266 0.0
O1210 O 0.79522 0.42236 0.70191 0.0
O1211 O 0.80805 0.4286 0.71373 0.0
O1212 O 0.8185 0.43394 0.68185 0.0
C1213 C 0.79749 0.42764 0.71118 0.0
O1214 O 0.81139 0.39393 0.71291 0.0
C1215 C 0.82767 0.43781 0.68636 0.0
O1216 O 0.826 0.40456 0.7068 0.0
O1217 O 0.83125 0.43279 0.69539 0.0
C1218 C 0.59139 0.80375 0.67499 0.0
O1219 O 0.59477 0.79624 0.68217 0.0
Cd1220 Cd 0.58827 0.79513 0.70156 0.0
O1221 O 0.58365 0.81103 0.67772 0.0
Cd1222 Cd 0.57084 0.81513 0.69445 0.0
C1223 C 0.59373 0.82293 0.71052 0.0
O1224 O 0.5678 0.7952 0.70001 0.0
O1225 O 0.56165 0.80769 0.71217 0.0
O1226 O 0.55611 0.81834 0.67997 0.0
C1227 C 0.56258 0.79719 0.70935 0.0
O1228 O 0.59617 0.81225 0.71098 0.0
C1229 C 0.55213 0.82746 0.68448 0.0
O1230 O 0.58516 0.82649 0.7047 0.0
O1231 O 0.55702 0.83101 0.69359 0.0
C1232 C 0.31511 0.18741 0.39999 0.0
O1233 O 0.30805 0.19501 0.39654 0.0
Cd1234 Cd 0.28834 0.19632 0.40218 0.0
O1235 O 0.31208 0.17991 0.40741 0.0
Cd1236 Cd 0.29474 0.17547 0.41924 0.0
C1237 C 0.27911 0.16893 0.39548 0.0
O1238 O 0.28867 0.19527 0.42265 0.0
O1239 O 0.2767 0.18217 0.42797 0.0
O1240 O 0.30751 0.17193 0.43543 0.0
C1241 C 0.2792 0.19277 0.42743 0.0
O1242 O 0.27881 0.1797 0.39342 0.0
C1243 C 0.30333 0.16216 0.43797 0.0
O1244 O 0.28473 0.165 0.40403 0.0
O1245 O 0.2953 0.1584 0.43158 0.0
C1246 C 0.31491 0.80376 0.59081 0.0
O1247 O 0.30791 0.79615 0.59437 0.0
Cd1248 Cd 0.28818 0.79493 0.58906 0.0
O1249 O 0.3118 0.81121 0.58338 0.0
Cd1250 Cd 0.2944 0.81542 0.57151 0.0
C1251 C 0.27896 0.82241 0.59522 0.0
O1252 O 0.28842 0.79555 0.5685 0.0
O1253 O 0.27644 0.80841 0.56268 0.0
O1254 O 0.30714 0.8187 0.55524 0.0
C1255 C 0.27899 0.79784 0.56357 0.0
O1256 O 0.27909 0.81177 0.59784 0.0
C1257 C 0.30303 0.82848 0.5526 0.0
O1258 O 0.28405 0.82613 0.58627 0.0
O1259 O 0.29501 0.83233 0.55894 0.0
C1260 C 0.18723 0.31223 0.59338 0.0
O1261 O 0.19437 0.30456 0.59649 0.0
Cd1262 Cd 0.19599 0.28575 0.5885 0.0
O1263 O 0.18018 0.31032 0.58519 0.0
Cd1264 Cd 0.17571 0.29418 0.57175 0.0
C1265 C 0.16841 0.27637 0.59369 0.0
O1266 O 0.19555 0.28839 0.56817 0.0
O1267 O 0.18265 0.27697 0.56145 0.0
O1268 O 0.17238 0.30899 0.55731 0.0
C1269 C 0.19322 0.27941 0.56246 0.0
O1270 O 0.17915 0.27559 0.59574 0.0
C1271 C 0.1631 0.30466 0.55348 0.0
O1272 O 0.16466 0.283 0.58579 0.0
O1273 O 0.15947 0.29561 0.55842 0.0
C1274 C 0.67549 0.18666 0.59019 0.0
O1275 O 0.68243 0.19439 0.59359 0.0
Cd1276 Cd 0.702 0.19609 0.5877 0.0
O1277 O 0.67859 0.17923 0.58272 0.0
Cd1278 Cd 0.69593 0.17522 0.57073 0.0
C1279 C 0.71193 0.16891 0.59424 0.0
O1280 O 0.70131 0.19515 0.56723 0.0
O1281 O 0.71383 0.18256 0.56202 0.0
O1282 O 0.68303 0.17149 0.5547 0.0
C1283 C 0.71086 0.19305 0.56245 0.0
O1284 O 0.71204 0.17968 0.59631 0.0
C1285 C 0.68741 0.16185 0.552 0.0
O1286 O 0.70627 0.16487 0.58576 0.0
O1287 O 0.69564 0.15825 0.55822 0.0
C1288 C 0.80221 0.67584 0.59053 0.0
O1289 O 0.79459 0.68295 0.5938 0.0
Cd1290 Cd 0.79339 0.7026 0.5879 0.0
O1291 O 0.80979 0.67876 0.58315 0.0
Cd1292 Cd 0.81436 0.69594 0.57117 0.0
C1293 C 0.82072 0.71182 0.59479 0.0
O1294 O 0.79465 0.70202 0.56742 0.0
O1295 O 0.80778 0.71397 0.56216 0.0
O1296 O 0.81795 0.68298 0.55514 0.0
C1297 C 0.79718 0.71146 0.56259 0.0
O1298 O 0.80993 0.71216 0.59673 0.0
C1299 C 0.82772 0.68713 0.55256 0.0
O1300 O 0.82473 0.7061 0.58634 0.0
O1301 O 0.83148 0.69522 0.55889 0.0
C1302 C 0.67556 0.80427 0.39845 0.0
O1303 O 0.68257 0.7966 0.39504 0.0
Cd1304 Cd 0.70202 0.79509 0.40135 0.0
O1305 O 0.67853 0.81156 0.4061 0.0
Cd1306 Cd 0.69548 0.81555 0.41862 0.0
C1307 C 0.71172 0.82258 0.39555 0.0
O1308 O 0.70075 0.79555 0.42183 0.0
O1309 O 0.71305 0.80798 0.42783 0.0
O1310 O 0.68119 0.81915 0.43343 0.0
C1311 C 0.71013 0.7975 0.42699 0.0
O1312 O 0.71193 0.81185 0.39328 0.0
C1313 C 0.68587 0.82824 0.43728 0.0
O1314 O 0.70594 0.82641 0.40403 0.0
O1315 O 0.69499 0.83161 0.43229 0.0
C1316 C 0.18613 0.67716 0.39798 0.0
O1317 O 0.19383 0.68419 0.39471 0.0
Cd1318 Cd 0.19527 0.70366 0.40106 0.0
O1319 O 0.17884 0.68002 0.40566 0.0
Cd1320 Cd 0.17497 0.69675 0.41852 0.0
C1321 C 0.16755 0.71286 0.3955 0.0
O1322 O 0.1949 0.70261 0.42153 0.0
O1323 O 0.1821 0.7145 0.42763 0.0
O1324 O 0.17208 0.68241 0.43345 0.0
C1325 C 0.19264 0.71196 0.42667 0.0
O1326 O 0.17825 0.71317 0.39316 0.0
C1327 C 0.16294 0.68682 0.43746 0.0
O1328 O 0.16382 0.7071 0.40404 0.0
O1329 O 0.15916 0.69579 0.43246 0.0
C1330 C 0.80325 0.31485 0.39946 0.0
O1331 O 0.79552 0.30791 0.39606 0.0
Cd1332 Cd 0.79396 0.2882 0.40164 0.0
O1333 O 0.81073 0.31171 0.40686 0.0
Cd1334 Cd 0.8149 0.29433 0.41869 0.0
C1335 C 0.82125 0.27871 0.39491 0.0
O1336 O 0.79507 0.28841 0.42212 0.0
O1337 O 0.80801 0.27625 0.42732 0.0
O1338 O 0.81847 0.30707 0.4349 0.0
C1339 C 0.79744 0.27886 0.4268 0.0
O1340 O 0.81048 0.27855 0.39286 0.0
C1341 C 0.82817 0.30279 0.43753 0.0
O1342 O 0.82526 0.28425 0.40348 0.0
O1343 O 0.83189 0.2947 0.43118 0.0
C1344 C 0.09781 0.22026 0.34141 0.0
C1345 C 0.10138 0.21802 0.33008 0.0
C1346 C 0.10466 0.22689 0.34877 0.0
C1347 C 0.1287 0.24797 0.34823 0.0
H1348 H 0.13099 0.24063 0.38071 0.0
C1349 C 0.1633 0.26739 0.37793 0.0
C1350 C 0.15962 0.27161 0.38865 0.0
C1351 C 0.15581 0.26113 0.37093 0.0
C1352 C 0.13033 0.24283 0.37168 0.0
H1353 H 0.11508 0.22068 0.31768 0.0
H1354 H 0.12715 0.2319 0.33057 0.0
H1355 H 0.11883 0.22886 0.36824 0.0
H1356 H 0.14518 0.27252 0.40046 0.0
H1357 H 0.13212 0.26141 0.38822 0.0
H1358 H 0.14045 0.26175 0.35166 0.0
C1359 C 0.11892 0.22886 0.33371 0.0
C1360 C 0.12335 0.23612 0.36453 0.0
C1361 C 0.11202 0.22235 0.32633 0.0
C1362 C 0.14827 0.26941 0.39223 0.0
C1363 C 0.14081 0.26301 0.38527 0.0
C1364 C 0.13576 0.25459 0.35535 0.0
C1365 C 0.11527 0.23132 0.34499 0.0
C1366 C 0.1225 0.23857 0.35269 0.0
C1367 C 0.14452 0.25884 0.37455 0.0
C1368 C 0.13669 0.25205 0.36712 0.0
H1369 H 0.08962 0.2171 0.34455 0.0
H1370 H 0.10151 0.22873 0.35734 0.0
H1371 H 0.12806 0.25029 0.33923 0.0
H1372 H 0.17198 0.26894 0.37491 0.0
H1373 H 0.15892 0.25793 0.36274 0.0
C1374 C 0.71962 0.14933 0.39084 0.0
C1375 C 0.71712 0.16061 0.38724 0.0
C1376 C 0.72635 0.14209 0.384 0.0
C1377 C 0.74729 0.14297 0.35986 0.0
H1378 H 0.74072 0.11029 0.35789 0.0
C1379 C 0.76737 0.11332 0.32557 0.0
C1380 C 0.7718 0.10272 0.32939 0.0
C1381 C 0.76099 0.12029 0.33298 0.0
C1382 C 0.74271 0.11939 0.35845 0.0
H1383 H 0.71942 0.173 0.37347 0.0
H1384 H 0.73082 0.16029 0.36139 0.0
H1385 H 0.72869 0.12258 0.36994 0.0
H1386 H 0.77296 0.09111 0.34397 0.0
H1387 H 0.76164 0.10328 0.35689 0.0
H1388 H 0.76112 0.13977 0.34813 0.0
C1389 C 0.7279 0.15712 0.36965 0.0
C1390 C 0.73584 0.12643 0.36537 0.0
C1391 C 0.72128 0.1644 0.37654 0.0
C1392 C 0.76969 0.09924 0.34079 0.0
C1393 C 0.76317 0.10616 0.34816 0.0
C1394 C 0.75405 0.13595 0.35286 0.0
C1395 C 0.73063 0.14592 0.37334 0.0
C1396 C 0.73801 0.13833 0.36613 0.0
C1397 C 0.75878 0.11675 0.34432 0.0
C1398 C 0.75181 0.1241 0.35205 0.0
H1399 H 0.71659 0.14617 0.39907 0.0
H1400 H 0.7284 0.13357 0.38719 0.0
H1401 H 0.74939 0.15204 0.36043 0.0
H1402 H 0.76886 0.11627 0.31685 0.0
H1403 H 0.75762 0.12837 0.32978 0.0
C1404 C 0.83817 0.72524 0.39261 0.0
C1405 C 0.82992 0.71798 0.38764 0.0
C1406 C 0.84532 0.73197 0.38566 0.0
C1407 C 0.84843 0.7422 0.35515 0.0
H1408 H 0.87826 0.75193 0.36637 0.0
C1409 C 0.87599 0.77382 0.32882 0.0
C1410 C 0.88799 0.77316 0.32968 0.0
C1411 C 0.869 0.76743 0.33623 0.0
C1412 C 0.87005 0.74916 0.36295 0.0
H1413 H 0.8229 0.7116 0.37162 0.0
H1414 H 0.83593 0.72255 0.35945 0.0
H1415 H 0.86653 0.73941 0.37808 0.0
H1416 H 0.9022 0.76526 0.33874 0.0
H1417 H 0.89013 0.75343 0.3511 0.0
H1418 H 0.85234 0.75109 0.33963 0.0
C1419 C 0.83656 0.72366 0.36867 0.0
C1420 C 0.86315 0.74212 0.36984 0.0
C1421 C 0.82915 0.71725 0.37563 0.0
C1422 C 0.89293 0.76598 0.33802 0.0
C1423 C 0.88596 0.75927 0.34517 0.0
C1424 C 0.85548 0.74891 0.34812 0.0
C1425 C 0.84465 0.73129 0.37356 0.0
C1426 C 0.85218 0.73859 0.36609 0.0
C1427 C 0.87386 0.75989 0.3444 0.0
C1428 C 0.86638 0.7526 0.35192 0.0
H1429 H 0.83882 0.72601 0.40188 0.0
H1430 H 0.85118 0.73787 0.38985 0.0
H1431 H 0.83998 0.73995 0.35196 0.0
H1432 H 0.872 0.77941 0.3225 0.0
H1433 H 0.85978 0.7685 0.33552 0.0
C1434 C 0.22309 0.87804 0.32588 0.0
C1435 C 0.21867 0.88865 0.32967 0.0
C1436 C 0.22943 0.87106 0.33332 0.0
C1437 C 0.24761 0.87193 0.35888 0.0
H1438 H 0.24084 0.83929 0.36081 0.0
C1439 C 0.27052 0.84186 0.39132 0.0
C1440 C 0.27301 0.83059 0.38769 0.0
C1441 C 0.26383 0.84914 0.38446 0.0
C1442 C 0.24297 0.84835 0.36026 0.0
H1443 H 0.21748 0.90027 0.34423 0.0
H1444 H 0.22873 0.88809 0.35721 0.0
H1445 H 0.22918 0.85159 0.34847 0.0
H1446 H 0.27073 0.81824 0.37387 0.0
H1447 H 0.2594 0.83102 0.36178 0.0
H1448 H 0.26158 0.86869 0.37043 0.0
C1449 C 0.22722 0.88521 0.34848 0.0
C1450 C 0.23624 0.8554 0.35323 0.0
C1451 C 0.22074 0.89213 0.34107 0.0
C1452 C 0.26887 0.82684 0.37697 0.0
C1453 C 0.2623 0.83415 0.37007 0.0
C1454 C 0.25443 0.86486 0.36583 0.0
C1455 C 0.23161 0.8746 0.34467 0.0
C1456 C 0.23852 0.86724 0.35244 0.0
C1457 C 0.25957 0.84535 0.37378 0.0
C1458 C 0.25223 0.85297 0.36656 0.0
H1459 H 0.22163 0.87509 0.31716 0.0
H1460 H 0.2328 0.86297 0.33014 0.0
H1461 H 0.24962 0.88102 0.35833 0.0
H1462 H 0.27353 0.84498 0.39957 0.0
H1463 H 0.26179 0.85766 0.38767 0.0
C1464 C 0.1492 0.72072 0.59852 0.0
C1465 C 0.16051 0.71864 0.60224 0.0
C1466 C 0.1418 0.72762 0.60505 0.0
C1467 C 0.14221 0.74962 0.62825 0.0
H1468 H 0.10979 0.74214 0.6309 0.0
C1469 C 0.11255 0.76969 0.66248 0.0
C1470 C 0.10173 0.77365 0.65878 0.0
C1471 C 0.11958 0.76338 0.65508 0.0
C1472 C 0.11881 0.74439 0.63013 0.0
H1473 H 0.17283 0.72187 0.6159 0.0
H1474 H 0.15988 0.73355 0.62742 0.0
H1475 H 0.12229 0.73006 0.6191 0.0
H1476 H 0.08981 0.77406 0.64441 0.0
H1477 H 0.10211 0.76286 0.63151 0.0
H1478 H 0.13874 0.76376 0.63955 0.0
C1479 C 0.15678 0.73017 0.6193 0.0
C1480 C 0.12597 0.7375 0.62335 0.0
C1481 C 0.1642 0.7234 0.61272 0.0
C1482 C 0.09811 0.77116 0.64751 0.0
C1483 C 0.1051 0.7647 0.64014 0.0
C1484 C 0.13508 0.75643 0.63511 0.0
C1485 C 0.14553 0.73248 0.61549 0.0
C1486 C 0.13778 0.73998 0.6224 0.0
C1487 C 0.11591 0.76077 0.64387 0.0
C1488 C 0.12333 0.75383 0.63617 0.0
H1489 H 0.14611 0.71723 0.59044 0.0
H1490 H 0.13324 0.72931 0.60178 0.0
H1491 H 0.1512 0.75197 0.6275 0.0
H1492 H 0.1156 0.77148 0.6711 0.0
H1493 H 0.12784 0.76036 0.6582 0.0
C1494 C 0.26762 0.16474 0.61317 0.0
C1495 C 0.27184 0.16085 0.60253 0.0
C1496 C 0.261 0.15751 0.62012 0.0
C1497 C 0.25322 0.12683 0.6247 0.0
H1498 H 0.2278 0.14015 0.64174 0.0
C1499 C 0.21947 0.09952 0.64922 0.0
C1500 C 0.21725 0.10301 0.66059 0.0
C1501 C 0.22596 0.10649 0.64186 0.0
C1502 C 0.23491 0.13633 0.63707 0.0
H1503 H 0.27245 0.14629 0.59085 0.0
H1504 H 0.26064 0.13378 0.60283 0.0
H1505 H 0.23952 0.15239 0.62938 0.0
H1506 H 0.21992 0.11665 0.67308 0.0
H1507 H 0.2311 0.12886 0.66017 0.0
H1508 H 0.2484 0.11072 0.6323 0.0
C1509 C 0.26264 0.14233 0.60594 0.0
C1510 C 0.24167 0.14334 0.63003 0.0
C1511 C 0.26938 0.14953 0.59903 0.0
C1512 C 0.22149 0.1137 0.66438 0.0
C1513 C 0.22785 0.12072 0.65698 0.0
C1514 C 0.24637 0.1198 0.63166 0.0
C1515 C 0.25832 0.14625 0.61655 0.0
C1516 C 0.25098 0.1387 0.62383 0.0
C1517 C 0.23021 0.11715 0.64568 0.0
C1518 C 0.23721 0.1245 0.63797 0.0
H1519 H 0.26945 0.17338 0.61616 0.0
H1520 H 0.25805 0.16075 0.62834 0.0
H1521 H 0.26041 0.12298 0.62019 0.0
H1522 H 0.21634 0.09133 0.64604 0.0
H1523 H 0.22759 0.10358 0.63315 0.0
C1524 C 0.84016 0.26963 0.5983 0.0
C1525 C 0.82885 0.27202 0.60182 0.0
C1526 C 0.84737 0.26284 0.60514 0.0
C1527 C 0.84649 0.24171 0.62914 0.0
H1528 H 0.87904 0.24874 0.63149 0.0
C1529 C 0.87615 0.22204 0.66371 0.0
C1530 C 0.88685 0.2178 0.65999 0.0
C1531 C 0.86912 0.22828 0.65624 0.0
C1532 C 0.86998 0.24662 0.63082 0.0
H1533 H 0.81632 0.26943 0.61541 0.0
H1534 H 0.82897 0.25794 0.62748 0.0
H1535 H 0.86671 0.26065 0.61936 0.0
H1536 H 0.89856 0.2168 0.64548 0.0
H1537 H 0.8863 0.22788 0.63245 0.0
H1538 H 0.84977 0.22787 0.64087 0.0
C1539 C 0.8322 0.26099 0.61929 0.0
C1540 C 0.86291 0.25342 0.62385 0.0
C1541 C 0.82496 0.26766 0.6124 0.0
C1542 C 0.89036 0.21993 0.64861 0.0
C1543 C 0.88338 0.22631 0.64117 0.0
C1544 C 0.85353 0.23501 0.6362 0.0
C1545 C 0.84347 0.25841 0.61571 0.0
C1546 C 0.85106 0.25108 0.62296 0.0
C1547 C 0.8727 0.23054 0.64492 0.0
C1548 C 0.86533 0.23743 0.63714 0.0
H1549 H 0.8434 0.27281 0.59016 0.0
H1550 H 0.85594 0.26091 0.60202 0.0
H1551 H 0.83747 0.23949 0.62848 0.0
H1552 H 0.87318 0.22053 0.67242 0.0
H1553 H 0.86097 0.23152 0.65937 0.0
C1554 C 0.77007 0.89277 0.64828 0.0
C1555 C 0.7722 0.88918 0.65963 0.0
C1556 C 0.76374 0.88581 0.64077 0.0
C1557 C 0.75554 0.85588 0.63554 0.0
H1558 H 0.72977 0.86865 0.61863 0.0
C1559 C 0.72348 0.82672 0.61176 0.0
C1560 C 0.71903 0.83049 0.60117 0.0
C1561 C 0.73001 0.83412 0.61862 0.0
C1562 C 0.73704 0.86498 0.62314 0.0
H1563 H 0.76949 0.8754 0.67196 0.0
H1564 H 0.75861 0.86321 0.65879 0.0
H1565 H 0.7414 0.88116 0.63088 0.0
H1566 H 0.71796 0.845 0.58946 0.0
H1567 H 0.72963 0.85782 0.60128 0.0
H1568 H 0.75141 0.83976 0.62772 0.0
C1569 C 0.7618 0.87142 0.65573 0.0
C1570 C 0.74367 0.87214 0.63017 0.0
C1571 C 0.76798 0.87844 0.66328 0.0
C1572 C 0.72121 0.84185 0.59761 0.0
C1573 C 0.72786 0.84922 0.60442 0.0
C1574 C 0.74901 0.84874 0.62841 0.0
C1575 C 0.75959 0.87506 0.64442 0.0
C1576 C 0.7529 0.86763 0.63653 0.0
C1577 C 0.73239 0.84543 0.61499 0.0
C1578 C 0.73959 0.85316 0.62222 0.0
H1579 H 0.77318 0.90102 0.64522 0.0
H1580 H 0.7622 0.88877 0.63206 0.0
H1581 H 0.76272 0.85222 0.64023 0.0
H1582 H 0.72187 0.81806 0.61481 0.0
H1583 H 0.73312 0.83097 0.62682 0.0
C1584 C 0.34098 0.09973 0.22102 0.0
C1585 C 0.32969 0.10319 0.21842 0.0
C1586 C 0.34811 0.10673 0.22773 0.0
C1587 C 0.34695 0.1311 0.24839 0.0
H1588 H 0.3796 0.1333 0.24186 0.0
C1589 C 0.37649 0.1656 0.26855 0.0
C1590 C 0.38713 0.16181 0.27288 0.0
C1591 C 0.3695 0.15817 0.26218 0.0
C1592 C 0.37051 0.13268 0.24384 0.0
H1593 H 0.31714 0.11686 0.22054 0.0
H1594 H 0.32966 0.12918 0.23191 0.0
H1595 H 0.36742 0.12104 0.22991 0.0
H1596 H 0.39878 0.14724 0.27391 0.0
H1597 H 0.38658 0.13431 0.26265 0.0
H1598 H 0.35004 0.14297 0.26215 0.0
C1599 C 0.33293 0.12092 0.22908 0.0
C1600 C 0.36353 0.12564 0.23702 0.0
C1601 C 0.32576 0.11388 0.22248 0.0
C1602 C 0.39062 0.15042 0.27072 0.0
C1603 C 0.38368 0.14303 0.26422 0.0
C1604 C 0.35391 0.13823 0.25512 0.0
C1605 C 0.34416 0.11739 0.23189 0.0
C1606 C 0.35165 0.12478 0.23919 0.0
C1607 C 0.37306 0.14685 0.25989 0.0
C1608 C 0.36574 0.1391 0.2529 0.0
H1609 H 0.34424 0.09151 0.21807 0.0
H1610 H 0.35665 0.10365 0.22984 0.0
H1611 H 0.33789 0.13048 0.25049 0.0
H1612 H 0.37354 0.17431 0.27007 0.0
H1613 H 0.36139 0.16136 0.25887 0.0
C1614 C 0.87759 0.32627 0.22124 0.0
C1615 C 0.88827 0.33004 0.217 0.0
C1616 C 0.87055 0.33372 0.2275 0.0
C1617 C 0.87131 0.35919 0.24583 0.0
H1618 H 0.83878 0.3613 0.2387 0.0
C1619 C 0.84112 0.39143 0.26886 0.0
C1620 C 0.82984 0.38775 0.27124 0.0
C1621 C 0.84843 0.38469 0.26209 0.0
C1622 C 0.84781 0.3607 0.24093 0.0
H1623 H 0.89996 0.34458 0.21604 0.0
H1624 H 0.88767 0.35756 0.22715 0.0
H1625 H 0.85115 0.34897 0.22711 0.0
H1626 H 0.81752 0.37395 0.26865 0.0
H1627 H 0.83034 0.36207 0.25719 0.0
H1628 H 0.86796 0.37066 0.25983 0.0
C1629 C 0.88478 0.34884 0.22557 0.0
C1630 C 0.85489 0.35368 0.23424 0.0
C1631 C 0.89176 0.34143 0.21916 0.0
C1632 C 0.82612 0.3771 0.26688 0.0
C1633 C 0.83346 0.37031 0.26023 0.0
C1634 C 0.8642 0.36613 0.25261 0.0
C1635 C 0.8741 0.34505 0.22978 0.0
C1636 C 0.86669 0.35282 0.23665 0.0
C1637 C 0.84467 0.37406 0.25764 0.0
C1638 C 0.85234 0.36692 0.25029 0.0
H1639 H 0.87463 0.31756 0.21971 0.0
H1640 H 0.8624 0.33055 0.23074 0.0
H1641 H 0.88037 0.35858 0.24794 0.0
H1642 H 0.84423 0.39963 0.27204 0.0
H1643 H 0.85695 0.38792 0.26016 0.0
C1644 C 0.66445 0.87805 0.22464 0.0
C1645 C 0.66069 0.8887 0.2203 0.0
C1646 C 0.65709 0.87116 0.23116 0.0
C1647 C 0.62627 0.86668 0.23832 0.0
H1648 H 0.63906 0.84946 0.26391 0.0
C1649 C 0.59837 0.84187 0.27138 0.0
C1650 C 0.60182 0.83047 0.27355 0.0
C1651 C 0.60544 0.84929 0.26506 0.0
C1652 C 0.63539 0.85418 0.25675 0.0
H1653 H 0.64623 0.90046 0.21939 0.0
H1654 H 0.63345 0.88857 0.23105 0.0
H1655 H 0.65153 0.86191 0.25254 0.0
H1656 H 0.61547 0.81799 0.27097 0.0
H1657 H 0.62784 0.831 0.26009 0.0
H1658 H 0.61008 0.85904 0.24275 0.0
C1659 C 0.64202 0.88542 0.22921 0.0
C1660 C 0.64253 0.86128 0.25019 0.0
C1661 C 0.64937 0.89227 0.22257 0.0
C1662 C 0.61255 0.82671 0.26942 0.0
C1663 C 0.61966 0.83416 0.26325 0.0
C1664 C 0.61911 0.85968 0.24498 0.0
C1665 C 0.64581 0.8748 0.23363 0.0
C1666 C 0.63809 0.86753 0.24082 0.0
C1667 C 0.61615 0.8455 0.26095 0.0
C1668 C 0.62363 0.85328 0.25418 0.0
H1669 H 0.6731 0.87499 0.22296 0.0
H1670 H 0.66023 0.86293 0.2342 0.0
H1671 H 0.62258 0.87124 0.23108 0.0
H1672 H 0.59015 0.84503 0.27442 0.0
H1673 H 0.60257 0.85802 0.26347 0.0
C1674 C 0.11357 0.66343 0.21966 0.0
C1675 C 0.10265 0.65997 0.21576 0.0
C1676 C 0.12061 0.65576 0.22565 0.0
C1677 C 0.11959 0.63036 0.24403 0.0
H1678 H 0.15192 0.62744 0.23634 0.0
C1679 C 0.14944 0.59801 0.2673 0.0
C1680 C 0.16077 0.6016 0.26957 0.0
C1681 C 0.14221 0.60467 0.26035 0.0
C1682 C 0.14295 0.62826 0.23871 0.0
H1683 H 0.09058 0.64573 0.21508 0.0
H1684 H 0.10287 0.63237 0.22572 0.0
H1685 H 0.13961 0.63995 0.22485 0.0
H1686 H 0.17331 0.61511 0.26651 0.0
H1687 H 0.16063 0.62684 0.25472 0.0
H1688 H 0.12294 0.61897 0.25809 0.0
C1689 C 0.10594 0.64102 0.22408 0.0
C1690 C 0.1359 0.63538 0.23208 0.0
C1691 C 0.09895 0.64865 0.21795 0.0
C1692 C 0.16466 0.61204 0.26485 0.0
C1693 C 0.1574 0.61874 0.25801 0.0
C1694 C 0.12667 0.62333 0.25075 0.0
C1695 C 0.11683 0.64452 0.228 0.0
C1696 C 0.12418 0.63656 0.23472 0.0
C1697 C 0.14611 0.61511 0.2556 0.0
C1698 C 0.13846 0.62225 0.24822 0.0
H1699 H 0.11669 0.67208 0.21809 0.0
H1700 H 0.12893 0.6587 0.22867 0.0
H1701 H 0.1106 0.63122 0.24632 0.0
H1702 H 0.14621 0.58998 0.27075 0.0
H1703 H 0.13362 0.60152 0.25856 0.0
C1704 C 0.34122 0.89226 0.76856 0.0
C1705 C 0.3299 0.88864 0.77079 0.0
C1706 C 0.34856 0.88554 0.76179 0.0
C1707 C 0.34799 0.86174 0.74042 0.0
H1708 H 0.38036 0.85899 0.74804 0.0
C1709 C 0.3773 0.82657 0.72149 0.0
C1710 C 0.38812 0.83006 0.71737 0.0
C1711 C 0.37035 0.83423 0.7276 0.0
C1712 C 0.37136 0.85978 0.74575 0.0
H1713 H 0.3175 0.87498 0.7679 0.0
H1714 H 0.33034 0.86313 0.75643 0.0
H1715 H 0.36797 0.87129 0.75972 0.0
H1716 H 0.40016 0.84431 0.71647 0.0
H1717 H 0.38803 0.85767 0.72732 0.0
H1718 H 0.35136 0.84996 0.72666 0.0
C1719 C 0.33348 0.87131 0.7596 0.0
C1720 C 0.36426 0.86684 0.75242 0.0
C1721 C 0.32613 0.87808 0.76626 0.0
C1722 C 0.39186 0.84138 0.71951 0.0
C1723 C 0.38496 0.849 0.72576 0.0
C1724 C 0.35506 0.85459 0.73386 0.0
C1725 C 0.34476 0.875 0.75719 0.0
C1726 C 0.35246 0.86783 0.74989 0.0
C1727 C 0.37413 0.84549 0.72984 0.0
C1728 C 0.36679 0.85348 0.73651 0.0
H1729 H 0.34437 0.90039 0.77188 0.0
H1730 H 0.35713 0.88872 0.76 0.0
H1731 H 0.33901 0.8625 0.73804 0.0
H1732 H 0.37415 0.81792 0.71998 0.0
H1733 H 0.36208 0.83128 0.73074 0.0
C1734 C 0.15054 0.3911 0.71974 0.0
C1735 C 0.16194 0.38799 0.7172 0.0
C1736 C 0.14355 0.38384 0.72631 0.0
C1737 C 0.14506 0.35935 0.74678 0.0
H1738 H 0.11245 0.35696 0.7401 0.0
C1739 C 0.11508 0.32549 0.7677 0.0
C1740 C 0.10446 0.32956 0.77183 0.0
C1741 C 0.12223 0.33263 0.76117 0.0
C1742 C 0.12153 0.35762 0.74211 0.0
H1743 H 0.17486 0.37468 0.71931 0.0
H1744 H 0.16258 0.36187 0.73046 0.0
H1745 H 0.12462 0.36912 0.72808 0.0
H1746 H 0.09305 0.34434 0.77238 0.0
H1747 H 0.1055 0.35675 0.76087 0.0
H1748 H 0.14193 0.34764 0.76068 0.0
C1749 C 0.15911 0.37006 0.72766 0.0
C1750 C 0.12851 0.36461 0.73525 0.0
C1751 C 0.16614 0.37737 0.7212 0.0
C1752 C 0.10118 0.34094 0.76934 0.0
C1753 C 0.10827 0.34803 0.7627 0.0
C1754 C 0.13809 0.35227 0.75355 0.0
C1755 C 0.14775 0.37324 0.73038 0.0
C1756 C 0.14036 0.36561 0.73753 0.0
C1757 C 0.11884 0.34393 0.75853 0.0
C1758 C 0.12625 0.35138 0.75131 0.0
H1759 H 0.14706 0.39926 0.71686 0.0
H1760 H 0.13493 0.38668 0.72838 0.0
H1761 H 0.1541 0.36007 0.74893 0.0
H1762 H 0.11788 0.31678 0.76948 0.0
H1763 H 0.13031 0.32924 0.75799 0.0
C1764 C 0.59849 0.14965 0.71826 0.0
C1765 C 0.60174 0.16128 0.71745 0.0
C1766 C 0.60478 0.14201 0.72508 0.0
C1767 C 0.63299 0.13757 0.73869 0.0
H1768 H 0.61606 0.11701 0.75881 0.0
C1769 C 0.65552 0.10919 0.77282 0.0
C1770 C 0.65131 0.09794 0.77423 0.0
C1771 C 0.64959 0.11711 0.76596 0.0
C1772 C 0.62093 0.12259 0.75315 0.0
H1773 H 0.6143 0.17395 0.72301 0.0
H1774 H 0.62528 0.16058 0.73491 0.0
H1775 H 0.60563 0.13033 0.74644 0.0
H1776 H 0.63763 0.08613 0.76952 0.0
H1777 H 0.62742 0.09983 0.75742 0.0
H1778 H 0.6483 0.12975 0.7453 0.0
C1779 C 0.61788 0.15739 0.73023 0.0
C1780 C 0.61494 0.13023 0.74607 0.0
C1781 C 0.61155 0.16505 0.72345 0.0
C1782 C 0.64107 0.09476 0.76866 0.0
C1783 C 0.63517 0.10264 0.76177 0.0
C1784 C 0.63899 0.12988 0.74573 0.0
C1785 C 0.61449 0.14582 0.7312 0.0
C1786 C 0.6209 0.13777 0.73874 0.0
C1787 C 0.63935 0.11392 0.76035 0.0
C1788 C 0.63302 0.12227 0.75302 0.0
H1789 H 0.59099 0.14644 0.71374 0.0
H1790 H 0.60205 0.13311 0.72555 0.0
H1791 H 0.63781 0.14322 0.73304 0.0
H1792 H 0.66338 0.11191 0.77704 0.0
H1793 H 0.65296 0.12577 0.76517 0.0
C1794 C 0.89126 0.64909 0.76923 0.0
C1795 C 0.88791 0.66045 0.77174 0.0
C1796 C 0.88416 0.64194 0.76267 0.0
C1797 C 0.85419 0.63754 0.7542 0.0
H1798 H 0.86692 0.62067 0.72838 0.0
C1799 C 0.82502 0.61363 0.72216 0.0
C1800 C 0.82881 0.60299 0.71784 0.0
C1801 C 0.8324 0.62059 0.72859 0.0
C1802 C 0.86325 0.62518 0.73565 0.0
H1803 H 0.87441 0.67316 0.76943 0.0
H1804 H 0.86197 0.66059 0.75809 0.0
H1805 H 0.87948 0.63271 0.74016 0.0
H1806 H 0.84334 0.59131 0.71688 0.0
H1807 H 0.85613 0.60331 0.72838 0.0
H1808 H 0.83802 0.62989 0.74993 0.0
C1809 C 0.8701 0.65726 0.7612 0.0
C1810 C 0.87044 0.6321 0.74237 0.0
C1811 C 0.87726 0.66446 0.76764 0.0
C1812 C 0.84018 0.5995 0.72003 0.0
C1813 C 0.84753 0.60641 0.72658 0.0
C1814 C 0.84702 0.63053 0.74758 0.0
C1815 C 0.87351 0.64595 0.75861 0.0
C1816 C 0.86596 0.63839 0.75166 0.0
C1817 C 0.84372 0.61703 0.731 0.0
C1818 C 0.85143 0.62432 0.73816 0.0
H1819 H 0.89943 0.64575 0.77224 0.0
H1820 H 0.88695 0.63322 0.76086 0.0
H1821 H 0.85054 0.64219 0.76141 0.0
H1822 H 0.81635 0.61663 0.72054 0.0
H1823 H 0.82924 0.62882 0.73163 0.0
C1824 C 0.22188 0.32555 0.11289 0.0
C1825 C 0.21761 0.32945 0.10227 0.0
C1826 C 0.22831 0.33286 0.11994 0.0
C1827 C 0.24688 0.3582 0.11922 0.0
H1828 H 0.24 0.36022 0.15181 0.0
C1829 C 0.26973 0.39076 0.14916 0.0
C1830 C 0.27219 0.38721 0.16046 0.0
C1831 C 0.26304 0.38385 0.14192 0.0
C1832 C 0.24216 0.35964 0.14276 0.0
H1833 H 0.21675 0.34411 0.09071 0.0
H1834 H 0.22813 0.35684 0.10301 0.0
H1835 H 0.22832 0.34792 0.13948 0.0
H1836 H 0.26984 0.37348 0.1729 0.0
H1837 H 0.25851 0.36131 0.1602 0.0
H1838 H 0.26089 0.36969 0.12249 0.0
C1839 C 0.22646 0.34811 0.10585 0.0
C1840 C 0.23542 0.35263 0.1357 0.0
C1841 C 0.2199 0.34084 0.09885 0.0
C1842 C 0.26801 0.37652 0.16428 0.0
C1843 C 0.26144 0.36957 0.15701 0.0
C1844 C 0.25371 0.36513 0.1263 0.0
C1845 C 0.23072 0.34419 0.11646 0.0
C1846 C 0.23773 0.35183 0.12388 0.0
C1847 C 0.25876 0.37319 0.14577 0.0
C1848 C 0.25145 0.36591 0.13818 0.0
H1849 H 0.22026 0.31683 0.11578 0.0
H1850 H 0.23157 0.32958 0.12804 0.0
H1851 H 0.24892 0.35763 0.11014 0.0
H1852 H 0.27276 0.39898 0.14598 0.0
H1853 H 0.26103 0.387 0.13338 0.0
C1854 C 0.22062 0.64985 0.89224 0.0
C1855 C 0.21826 0.66123 0.88886 0.0
C1856 C 0.22717 0.64263 0.88519 0.0
C1857 C 0.23589 0.63815 0.85529 0.0
H1858 H 0.26149 0.62114 0.8683 0.0
C1859 C 0.26799 0.61392 0.82646 0.0
C1860 C 0.27218 0.60325 0.83033 0.0
C1861 C 0.26156 0.62097 0.83376 0.0
C1862 C 0.25427 0.62569 0.86455 0.0
H1863 H 0.22079 0.6739 0.87537 0.0
H1864 H 0.23209 0.66123 0.86302 0.0
H1865 H 0.24966 0.63325 0.88073 0.0
H1866 H 0.27294 0.59163 0.84492 0.0
H1867 H 0.26145 0.60378 0.85757 0.0
H1868 H 0.24027 0.63048 0.83918 0.0
C1869 C 0.22889 0.65793 0.87113 0.0
C1870 C 0.24753 0.63264 0.87167 0.0
C1871 C 0.22247 0.66519 0.87823 0.0
C1872 C 0.26989 0.59984 0.8417 0.0
C1873 C 0.26334 0.60683 0.84897 0.0
C1874 C 0.24254 0.6311 0.84819 0.0
C1875 C 0.23135 0.6466 0.87457 0.0
C1876 C 0.23832 0.63899 0.86709 0.0
C1877 C 0.25905 0.61747 0.84507 0.0
C1878 C 0.25187 0.62484 0.85271 0.0
H1879 H 0.21753 0.64655 0.90039 0.0
H1880 H 0.22888 0.6339 0.888 0.0
H1881 H 0.22874 0.64284 0.85157 0.0
H1882 H 0.26969 0.61686 0.81778 0.0
H1883 H 0.25862 0.6292 0.83053 0.0
C1884 C 0.3752 0.27306 0.82761 0.0
C1885 C 0.38722 0.27269 0.82841 0.0
C1886 C 0.36841 0.26643 0.83499 0.0
C1887 C 0.37005 0.24802 0.86158 0.0
H1888 H 0.3401 0.23825 0.85074 0.0
C1889 C 0.33849 0.22402 0.8915 0.0
C1890 C 0.33022 0.21671 0.88663 0.0
C1891 C 0.34565 0.23064 0.88447 0.0
C1892 C 0.34853 0.24065 0.85389 0.0
H1893 H 0.40167 0.26505 0.83731 0.0
H1894 H 0.38996 0.25282 0.84962 0.0
H1895 H 0.35219 0.24963 0.83835 0.0
H1896 H 0.32322 0.21009 0.8707 0.0
H1897 H 0.33628 0.22086 0.85838 0.0
H1898 H 0.36678 0.23822 0.87673 0.0
C1899 C 0.38562 0.25861 0.84377 0.0
C1900 C 0.35542 0.2475 0.84682 0.0
C1901 C 0.39238 0.26555 0.83664 0.0
C1902 C 0.32948 0.21579 0.87463 0.0
C1903 C 0.33691 0.22209 0.86759 0.0
C1904 C 0.36332 0.24085 0.8685 0.0
C1905 C 0.37351 0.25893 0.84307 0.0
C1906 C 0.36624 0.25142 0.85059 0.0
C1907 C 0.34496 0.22981 0.87238 0.0
C1908 C 0.35239 0.23714 0.86482 0.0
H1909 H 0.37104 0.27861 0.82137 0.0
H1910 H 0.35916 0.26727 0.83435 0.0
H1911 H 0.37821 0.25096 0.86497 0.0
H1912 H 0.33911 0.22495 0.90076 0.0
H1913 H 0.35149 0.23662 0.88858 0.0
C1914 C 0.72274 0.3778 0.82531 0.0
C1915 C 0.71843 0.38841 0.82921 0.0
C1916 C 0.72927 0.37081 0.83259 0.0
C1917 C 0.748 0.37174 0.8578 0.0
H1918 H 0.74137 0.3391 0.85996 0.0
C1919 C 0.77106 0.34205 0.89044 0.0
C1920 C 0.77354 0.33073 0.88697 0.0
C1921 C 0.76438 0.34925 0.88349 0.0
C1922 C 0.74346 0.34816 0.85934 0.0
H1923 H 0.7176 0.40001 0.84383 0.0
H1924 H 0.72913 0.38781 0.85651 0.0
H1925 H 0.72954 0.35129 0.84768 0.0
H1926 H 0.77124 0.3182 0.8733 0.0
H1927 H 0.75992 0.33083 0.86105 0.0
H1928 H 0.76208 0.36862 0.86924 0.0
C1929 C 0.72743 0.38494 0.84781 0.0
C1930 C 0.73664 0.35515 0.85234 0.0
C1931 C 0.72078 0.39187 0.84057 0.0
C1932 C 0.7694 0.32684 0.87629 0.0
C1933 C 0.76283 0.33407 0.86929 0.0
C1934 C 0.75491 0.36474 0.86472 0.0
C1935 C 0.73173 0.37434 0.84388 0.0
C1936 C 0.73885 0.367 0.85149 0.0
C1937 C 0.76011 0.34532 0.87285 0.0
C1938 C 0.75274 0.35284 0.86556 0.0
H1939 H 0.72108 0.37487 0.81662 0.0
H1940 H 0.73256 0.36273 0.82932 0.0
H1941 H 0.74996 0.38084 0.8572 0.0
H1942 H 0.77407 0.34528 0.89865 0.0
H1943 H 0.76234 0.3578 0.88659 0.0
C1944 C 0.61293 0.72278 0.82451 0.0
C1945 C 0.6024 0.71817 0.82826 0.0
C1946 C 0.61972 0.72935 0.83194 0.0
C1947 C 0.62934 0.74832 0.84686 0.0
H1948 H 0.63172 0.74025 0.87916 0.0
C1949 C 0.66332 0.76789 0.87741 0.0
C1950 C 0.65945 0.77152 0.88828 0.0
C1951 C 0.65605 0.76171 0.87009 0.0
C1952 C 0.63104 0.74266 0.87018 0.0
H1953 H 0.59071 0.71688 0.84275 0.0
H1954 H 0.6024 0.72859 0.85563 0.0
H1955 H 0.61978 0.72859 0.86641 0.0
H1956 H 0.64489 0.77153 0.89997 0.0
H1957 H 0.63224 0.76062 0.8872 0.0
H1958 H 0.64085 0.76223 0.85063 0.0
C1959 C 0.60556 0.72692 0.84702 0.0
C1960 C 0.62418 0.73601 0.86287 0.0
C1961 C 0.59882 0.72025 0.83962 0.0
C1962 C 0.64813 0.76887 0.89165 0.0
C1963 C 0.64091 0.76257 0.88437 0.0
C1964 C 0.63629 0.75489 0.85415 0.0
C1965 C 0.61609 0.73158 0.84327 0.0
C1966 C 0.62326 0.73874 0.85111 0.0
C1967 C 0.6448 0.75893 0.87353 0.0
C1968 C 0.63723 0.75211 0.86586 0.0
H1969 H 0.61599 0.72127 0.81584 0.0
H1970 H 0.62788 0.73259 0.82881 0.0
H1971 H 0.62866 0.75083 0.83791 0.0
H1972 H 0.67198 0.76981 0.87454 0.0
H1973 H 0.6593 0.75893 0.86181 0.0
C1974 C 0.7673 0.6654 0.11213 0.0
C1975 C 0.77166 0.66156 0.10152 0.0
C1976 C 0.76086 0.65803 0.1191 0.0
C1977 C 0.74253 0.63249 0.11836 0.0
H1978 H 0.74972 0.63035 0.15087 0.0
C1979 C 0.72034 0.59952 0.14843 0.0
C1980 C 0.71802 0.603 0.15978 0.0
C1981 C 0.72683 0.60654 0.14111 0.0
C1982 C 0.74747 0.63097 0.14185 0.0
H1983 H 0.77259 0.64697 0.08988 0.0
H1984 H 0.7612 0.63414 0.10205 0.0
H1985 H 0.76114 0.64287 0.13853 0.0
H1986 H 0.72036 0.61673 0.17222 0.0
H1987 H 0.73132 0.62908 0.15939 0.0
H1988 H 0.72868 0.62081 0.12168 0.0
C1989 C 0.76282 0.64286 0.10494 0.0
C1990 C 0.75406 0.6381 0.13478 0.0
C1991 C 0.76939 0.65019 0.09801 0.0
C1992 C 0.7221 0.61374 0.16356 0.0
C1993 C 0.72846 0.62079 0.15622 0.0
C1994 C 0.73584 0.62544 0.12545 0.0
C1995 C 0.75853 0.64671 0.11556 0.0
C1996 C 0.75164 0.63896 0.12298 0.0
C1997 C 0.73104 0.61723 0.14494 0.0
C1998 C 0.7382 0.62462 0.1373 0.0
H1999 H 0.76891 0.6741 0.11508 0.0
H2000 H 0.75758 0.66124 0.12721 0.0
H2001 H 0.74042 0.63309 0.10929 0.0
H2002 H 0.71736 0.59127 0.14527 0.0
H2003 H 0.72876 0.60344 0.13253 0.0
C2004 C 0.34079 0.77176 0.09966 0.0
C2005 C 0.32948 0.77388 0.10339 0.0
C2006 C 0.34844 0.76557 0.10659 0.0
C2007 C 0.35409 0.75729 0.13649 0.0
H2008 H 0.37065 0.73151 0.12326 0.0
C2009 C 0.37797 0.72452 0.16489 0.0
C2010 C 0.38843 0.71999 0.16087 0.0
C2011 C 0.37111 0.73132 0.15773 0.0
C2012 C 0.36625 0.73879 0.12707 0.0
H2013 H 0.3174 0.77137 0.11742 0.0
H2014 H 0.3308 0.7607 0.12954 0.0
H2015 H 0.35832 0.74332 0.11104 0.0
H2016 H 0.39995 0.71912 0.14621 0.0
H2017 H 0.38814 0.73124 0.13383 0.0
H2018 H 0.36208 0.75293 0.15247 0.0
C2019 C 0.33373 0.76381 0.12125 0.0
C2020 C 0.35917 0.74553 0.12006 0.0
C2021 C 0.32604 0.76986 0.11427 0.0
C2022 C 0.39189 0.72241 0.14954 0.0
C2023 C 0.38509 0.72932 0.14242 0.0
C2024 C 0.36126 0.75064 0.14347 0.0
C2025 C 0.34496 0.76153 0.11745 0.0
C2026 C 0.35293 0.75477 0.12473 0.0
C2027 C 0.37461 0.73387 0.14643 0.0
C2028 C 0.36733 0.74122 0.13888 0.0
H2029 H 0.3437 0.77473 0.09132 0.0
H2030 H 0.35709 0.76399 0.1035 0.0
H2031 H 0.34949 0.76447 0.14027 0.0
H2032 H 0.375 0.72274 0.17354 0.0
H2033 H 0.363 0.73447 0.16105 0.0
C2034 C 0.64907 0.22006 0.09875 0.0
C2035 C 0.66046 0.21785 0.10221 0.0
C2036 C 0.64167 0.22638 0.10583 0.0
C2037 C 0.63682 0.23466 0.13582 0.0
H2038 H 0.61977 0.26035 0.12304 0.0
C2039 C 0.61285 0.26676 0.16489 0.0
C2040 C 0.60224 0.27111 0.16107 0.0
C2041 C 0.61976 0.26022 0.15755 0.0
C2042 C 0.62432 0.2531 0.12672 0.0
H2043 H 0.67294 0.2204 0.11588 0.0
H2044 H 0.65996 0.23129 0.12825 0.0
H2045 H 0.63194 0.2487 0.11052 0.0
H2046 H 0.59054 0.27199 0.14655 0.0
H2047 H 0.60245 0.26032 0.13384 0.0
H2048 H 0.62911 0.23886 0.15196 0.0
C2049 C 0.65679 0.22815 0.12007 0.0
C2050 C 0.63131 0.24646 0.11954 0.0
C2051 C 0.66423 0.22197 0.11294 0.0
C2052 C 0.59871 0.26882 0.14973 0.0
C2053 C 0.60557 0.26216 0.14243 0.0
C2054 C 0.62974 0.24122 0.14297 0.0
C2055 C 0.64547 0.23047 0.11655 0.0
C2056 C 0.6377 0.23724 0.12405 0.0
C2057 C 0.61618 0.25776 0.14625 0.0
C2058 C 0.62347 0.25059 0.13854 0.0
H2059 H 0.64591 0.21703 0.09053 0.0
H2060 H 0.63295 0.22799 0.10296 0.0
H2061 H 0.64154 0.2275 0.13947 0.0
H2062 H 0.61587 0.26845 0.17354 0.0
H2063 H 0.62798 0.25719 0.16073 0.0
C2064 C 0.87648 0.76683 0.66513 0.0
C2065 C 0.88722 0.771 0.66144 0.0
C2066 C 0.86943 0.76062 0.65764 0.0
C2067 C 0.87009 0.74241 0.63207 0.0
H2068 H 0.83774 0.7502 0.62959 0.0
C2069 C 0.84002 0.72052 0.59897 0.0
C2070 C 0.82862 0.71832 0.60236 0.0
C2071 C 0.84734 0.72702 0.60598 0.0
C2072 C 0.84671 0.74779 0.6303 0.0
H2073 H 0.89902 0.77184 0.64699 0.0
H2074 H 0.88672 0.76082 0.63393 0.0
H2075 H 0.85017 0.76141 0.64222 0.0
H2076 H 0.81605 0.72097 0.6159 0.0
H2077 H 0.82887 0.73196 0.62826 0.0
H2078 H 0.86662 0.72861 0.62039 0.0
C2079 C 0.88379 0.76242 0.64264 0.0
C2080 C 0.85383 0.75426 0.6375 0.0
C2081 C 0.89078 0.76877 0.65009 0.0
C2082 C 0.82476 0.72259 0.61299 0.0
C2083 C 0.8321 0.72897 0.62004 0.0
C2084 C 0.86293 0.73584 0.62496 0.0
C2085 C 0.87304 0.75832 0.64634 0.0
C2086 C 0.86557 0.75161 0.63848 0.0
C2087 C 0.84345 0.73137 0.61659 0.0
C2088 C 0.85114 0.73843 0.62402 0.0
H2089 H 0.87347 0.76841 0.67381 0.0
H2090 H 0.86122 0.75746 0.66074 0.0
H2091 H 0.87909 0.74012 0.63277 0.0
H2092 H 0.84325 0.7174 0.5908 0.0
H2093 H 0.85597 0.72881 0.60296 0.0
C2094 C 0.21608 0.87624 0.66094 0.0
C2095 C 0.21679 0.88825 0.66019 0.0
C2096 C 0.22255 0.8693 0.65356 0.0
C2097 C 0.24121 0.87056 0.62713 0.0
H2098 H 0.25021 0.84037 0.638 0.0
C2099 C 0.26538 0.83882 0.59754 0.0
C2100 C 0.2725 0.83047 0.60253 0.0
C2101 C 0.25863 0.84598 0.60446 0.0
C2102 C 0.24803 0.84886 0.63485 0.0
H2103 H 0.22485 0.90253 0.65137 0.0
H2104 H 0.2368 0.89055 0.63908 0.0
H2105 H 0.2389 0.85264 0.65027 0.0
H2106 H 0.27865 0.82329 0.61856 0.0
H2107 H 0.26768 0.83633 0.63071 0.0
H2108 H 0.25118 0.86716 0.61212 0.0
C2109 C 0.23087 0.88633 0.64488 0.0
C2110 C 0.24122 0.85586 0.64184 0.0
C2111 C 0.22409 0.89325 0.652 0.0
C2112 C 0.2731 0.82962 0.61453 0.0
C2113 C 0.26668 0.83703 0.62148 0.0
C2114 C 0.24835 0.86371 0.62029 0.0
C2115 C 0.23021 0.87422 0.64554 0.0
C2116 C 0.2376 0.86679 0.63807 0.0
C2117 C 0.25917 0.8452 0.61656 0.0
C2118 C 0.2518 0.8527 0.62399 0.0
H2119 H 0.21041 0.87221 0.66715 0.0
H2120 H 0.22145 0.86007 0.65417 0.0
H2121 H 0.2385 0.8788 0.62373 0.0
H2122 H 0.2647 0.83954 0.58826 0.0
H2123 H 0.25282 0.8519 0.60025 0.0
C2124 C 0.0973 0.21956 0.64824 0.0
C2125 C 0.1013 0.21722 0.65943 0.0
C2126 C 0.1042 0.2256 0.64044 0.0
C2127 C 0.13416 0.23244 0.63388 0.0
H2128 H 0.12208 0.25934 0.61824 0.0
C2129 C 0.16403 0.26427 0.6109 0.0
C2130 C 0.16029 0.26947 0.60065 0.0
C2131 C 0.15651 0.25764 0.61749 0.0
C2132 C 0.12554 0.25174 0.62237 0.0
H2133 H 0.11571 0.21925 0.67114 0.0
H2134 H 0.12778 0.22963 0.65745 0.0
H2135 H 0.10948 0.24795 0.63064 0.0
H2136 H 0.14569 0.27177 0.58925 0.0
H2137 H 0.13259 0.25989 0.60062 0.0
H2138 H 0.15015 0.23604 0.62558 0.0
C2139 C 0.1193 0.22682 0.65476 0.0
C2140 C 0.11833 0.24525 0.62949 0.0
C2141 C 0.11237 0.22094 0.6626 0.0
C2142 C 0.14882 0.26791 0.59714 0.0
C2143 C 0.1413 0.26114 0.60368 0.0
C2144 C 0.14133 0.23883 0.62667 0.0
C2145 C 0.11527 0.22925 0.64363 0.0
C2146 C 0.12263 0.23566 0.63545 0.0
C2147 C 0.14507 0.25589 0.61393 0.0
C2148 C 0.13718 0.24868 0.62098 0.0
H2149 H 0.0888 0.21683 0.64556 0.0
H2150 H 0.10092 0.22733 0.63189 0.0
H2151 H 0.13764 0.22497 0.63825 0.0
H2152 H 0.17277 0.2654 0.61392 0.0
H2153 H 0.15965 0.25397 0.62546 0.0
C2154 C 0.76784 0.11355 0.66396 0.0
C2155 C 0.77198 0.10276 0.66037 0.0
C2156 C 0.76175 0.12059 0.65637 0.0
C2157 C 0.7436 0.11972 0.63082 0.0
H2158 H 0.75104 0.15218 0.62839 0.0
C2159 C 0.721 0.14971 0.59814 0.0
C2160 C 0.71866 0.16105 0.60166 0.0
C2161 C 0.7277 0.14244 0.605 0.0
C2162 C 0.74873 0.14318 0.62908 0.0
H2163 H 0.77294 0.09089 0.64597 0.0
H2164 H 0.76212 0.10319 0.63274 0.0
H2165 H 0.76247 0.13982 0.6409 0.0
H2166 H 0.72128 0.17355 0.61528 0.0
H2167 H 0.73264 0.16081 0.62738 0.0
H2168 H 0.72968 0.12308 0.61927 0.0
C2169 C 0.76366 0.10616 0.64145 0.0
C2170 C 0.75533 0.1361 0.6362 0.0
C2171 C 0.7699 0.09917 0.649 0.0
C2172 C 0.72301 0.1649 0.61226 0.0
C2173 C 0.7296 0.1576 0.61917 0.0
C2174 C 0.73692 0.12683 0.62378 0.0
C2175 C 0.75953 0.11693 0.64507 0.0
C2176 C 0.75279 0.12432 0.63718 0.0
C2177 C 0.73212 0.14631 0.61559 0.0
C2178 C 0.73936 0.13866 0.62287 0.0
H2179 H 0.76932 0.11658 0.67265 0.0
H2180 H 0.75858 0.12881 0.65942 0.0
H2181 H 0.7414 0.11069 0.63152 0.0
H2182 H 0.71783 0.1465 0.58998 0.0
H2183 H 0.72958 0.13386 0.60189 0.0
C2184 C 0.87703 0.22329 0.32487 0.0
C2185 C 0.88766 0.21899 0.32872 0.0
C2186 C 0.86993 0.22953 0.33229 0.0
C2187 C 0.8705 0.24762 0.35794 0.0
H2188 H 0.83798 0.24043 0.35987 0.0
C2189 C 0.84045 0.26976 0.39083 0.0
C2190 C 0.82913 0.27218 0.38734 0.0
C2191 C 0.84773 0.26321 0.38383 0.0
C2192 C 0.847 0.24268 0.35932 0.0
H2193 H 0.89919 0.21789 0.34337 0.0
H2194 H 0.8868 0.22895 0.35629 0.0
H2195 H 0.85038 0.22906 0.34736 0.0
H2196 H 0.81667 0.26991 0.37362 0.0
H2197 H 0.82943 0.25883 0.36129 0.0
H2198 H 0.86714 0.26142 0.36965 0.0
C2199 C 0.88399 0.22744 0.34753 0.0
C2200 C 0.8541 0.23612 0.35219 0.0
C2201 C 0.89104 0.22106 0.34015 0.0
C2202 C 0.82531 0.2681 0.37662 0.0
C2203 C 0.83262 0.26167 0.36957 0.0
C2204 C 0.86338 0.25428 0.36498 0.0
C2205 C 0.87337 0.23172 0.34366 0.0
C2206 C 0.86591 0.23854 0.35142 0.0
C2207 C 0.84388 0.25904 0.37313 0.0
C2208 C 0.85153 0.25191 0.36574 0.0
H2209 H 0.87416 0.22182 0.31612 0.0
H2210 H 0.86182 0.23281 0.32906 0.0
H2211 H 0.87956 0.24974 0.35739 0.0
H2212 H 0.84364 0.27272 0.39907 0.0
H2213 H 0.85629 0.26123 0.38694 0.0
C2214 C 0.77022 0.89271 0.34188 0.0
C2215 C 0.77253 0.88918 0.33054 0.0
C2216 C 0.76351 0.88585 0.34915 0.0
C2217 C 0.74233 0.86189 0.3483 0.0
H2218 H 0.74947 0.85926 0.38079 0.0
C2219 C 0.72263 0.82703 0.37753 0.0
C2220 C 0.71835 0.83065 0.38825 0.0
C2221 C 0.72897 0.83457 0.37064 0.0
C2222 C 0.74733 0.86001 0.37175 0.0
H2223 H 0.76989 0.87554 0.31806 0.0
H2224 H 0.75853 0.86346 0.3308 0.0
H2225 H 0.76133 0.87153 0.36851 0.0
H2226 H 0.71743 0.84499 0.40017 0.0
H2227 H 0.72866 0.85813 0.38815 0.0
H2228 H 0.72851 0.85013 0.35152 0.0
C2229 C 0.76158 0.87167 0.334 0.0
C2230 C 0.75409 0.86705 0.36471 0.0
C2231 C 0.76818 0.87857 0.32671 0.0
C2232 C 0.72058 0.84196 0.39195 0.0
C2233 C 0.72706 0.84946 0.38511 0.0
C2234 C 0.73566 0.85477 0.3553 0.0
C2235 C 0.75905 0.87527 0.34528 0.0
C2236 C 0.75172 0.86803 0.35288 0.0
C2237 C 0.73128 0.84583 0.37438 0.0
C2238 C 0.73813 0.85371 0.36708 0.0
H2239 H 0.7734 0.90087 0.34508 0.0
H2240 H 0.76162 0.88897 0.35773 0.0
H2241 H 0.74007 0.86263 0.33929 0.0
H2242 H 0.72106 0.81838 0.37442 0.0
H2243 H 0.73221 0.83152 0.36245 0.0
C2244 C 0.14812 0.72156 0.39182 0.0
C2245 C 0.1594 0.71928 0.38811 0.0
C2246 C 0.14055 0.72782 0.38485 0.0
C2247 C 0.13504 0.73552 0.35483 0.0
H2248 H 0.11867 0.76182 0.36726 0.0
C2249 C 0.11186 0.76763 0.32529 0.0
C2250 C 0.10135 0.77231 0.32899 0.0
C2251 C 0.11859 0.76108 0.33277 0.0
C2252 C 0.12302 0.7544 0.36369 0.0
H2253 H 0.17155 0.72164 0.37411 0.0
H2254 H 0.1583 0.73239 0.36193 0.0
H2255 H 0.1308 0.75019 0.37989 0.0
H2256 H 0.08966 0.77378 0.34347 0.0
H2257 H 0.10127 0.76208 0.35644 0.0
H2258 H 0.12721 0.73954 0.3387 0.0
C2259 C 0.15533 0.72937 0.37023 0.0
C2260 C 0.12999 0.74776 0.37092 0.0
C2261 C 0.16292 0.72327 0.37725 0.0
C2262 C 0.09775 0.77035 0.34037 0.0
C2263 C 0.10444 0.76368 0.34783 0.0
C2264 C 0.12799 0.74206 0.34764 0.0
C2265 C 0.14409 0.73174 0.37397 0.0
C2266 C 0.13617 0.73836 0.36652 0.0
C2267 C 0.11492 0.75891 0.3441 0.0
C2268 C 0.12201 0.75168 0.35193 0.0
H2269 H 0.14516 0.71863 0.40016 0.0
H2270 H 0.13191 0.72949 0.3879 0.0
H2271 H 0.13959 0.72821 0.35126 0.0
H2272 H 0.11493 0.76907 0.31661 0.0
H2273 H 0.12673 0.75777 0.32966 0.0
C2274 C 0.22255 0.11382 0.32592 0.0
C2275 C 0.21822 0.10317 0.32968 0.0
C2276 C 0.22919 0.12065 0.33323 0.0
C2277 C 0.23688 0.12493 0.36395 0.0
H2278 H 0.26241 0.14199 0.35082 0.0
C2279 C 0.27044 0.14956 0.39145 0.0
C2280 C 0.27266 0.16094 0.38795 0.0
C2281 C 0.26401 0.14216 0.38446 0.0
C2282 C 0.25527 0.13732 0.35459 0.0
H2283 H 0.21744 0.09134 0.3441 0.0
H2284 H 0.22931 0.10312 0.35679 0.0
H2285 H 0.25074 0.12968 0.33849 0.0
H2286 H 0.27003 0.1734 0.37428 0.0
H2287 H 0.25894 0.16043 0.36205 0.0
H2288 H 0.24162 0.1325 0.3801 0.0
C2289 C 0.22737 0.10632 0.34826 0.0
C2290 C 0.24854 0.1303 0.34753 0.0
C2291 C 0.2206 0.09954 0.34097 0.0
C2292 C 0.26846 0.1647 0.37724 0.0
C2293 C 0.26216 0.15727 0.37021 0.0
C2294 C 0.24371 0.13187 0.37103 0.0
C2295 C 0.2318 0.11694 0.34446 0.0
C2296 C 0.23918 0.12411 0.35209 0.0
C2297 C 0.25982 0.14595 0.37378 0.0
C2298 C 0.25289 0.13821 0.36639 0.0
H2299 H 0.22078 0.11693 0.31731 0.0
H2300 H 0.23223 0.12888 0.33009 0.0
H2301 H 0.22966 0.12043 0.36774 0.0
H2302 H 0.27353 0.14641 0.39966 0.0
H2303 H 0.26238 0.13345 0.38737 0.0
C2304 C 0.64964 0.89262 0.76766 0.0
C2305 C 0.66102 0.88878 0.76912 0.0
C2306 C 0.64194 0.8864 0.76079 0.0
C2307 C 0.64133 0.86384 0.73807 0.0
H2308 H 0.60953 0.86007 0.74747 0.0
C2309 C 0.61207 0.82806 0.7205 0.0
C2310 C 0.60103 0.83128 0.71677 0.0
C2311 C 0.61905 0.8359 0.72634 0.0
C2312 C 0.61836 0.86117 0.74469 0.0
H2313 H 0.67315 0.87527 0.76473 0.0
H2314 H 0.65971 0.86431 0.75312 0.0
H2315 H 0.62238 0.87224 0.75886 0.0
H2316 H 0.5886 0.8452 0.71633 0.0
H2317 H 0.60079 0.85887 0.72678 0.0
H2318 H 0.63739 0.85241 0.72415 0.0
C2319 C 0.65678 0.87228 0.75695 0.0
C2320 C 0.62572 0.86816 0.75118 0.0
C2321 C 0.66448 0.87854 0.7637 0.0
C2322 C 0.59708 0.84249 0.71907 0.0
C2323 C 0.60401 0.85029 0.72509 0.0
C2324 C 0.63403 0.85676 0.73169 0.0
C2325 C 0.64544 0.87617 0.75532 0.0
C2326 C 0.63734 0.86943 0.74804 0.0
C2327 C 0.61508 0.84707 0.72871 0.0
C2328 C 0.62253 0.85524 0.73502 0.0
H2329 H 0.64673 0.9005 0.77168 0.0
H2330 H 0.6333 0.8897 0.75964 0.0
H2331 H 0.65014 0.86485 0.73521 0.0
H2332 H 0.61538 0.8195 0.71884 0.0
H2333 H 0.62752 0.83318 0.72914 0.0
C2334 C 0.14942 0.59929 0.721 0.0
C2335 C 0.1609 0.60256 0.71902 0.0
C2336 C 0.14208 0.60638 0.72737 0.0
C2337 C 0.13778 0.6363 0.73627 0.0
H2338 H 0.12 0.62332 0.76136 0.0
C2339 C 0.11427 0.66524 0.7687 0.0
C2340 C 0.10342 0.66171 0.77272 0.0
C2341 C 0.12106 0.65781 0.76216 0.0
C2342 C 0.12476 0.62706 0.75428 0.0
H2343 H 0.17363 0.61591 0.72202 0.0
H2344 H 0.16076 0.62832 0.733 0.0
H2345 H 0.13204 0.61077 0.74957 0.0
H2346 H 0.09121 0.64758 0.77305 0.0
H2347 H 0.10295 0.6347 0.76137 0.0
H2348 H 0.13043 0.65253 0.74077 0.0
C2349 C 0.15746 0.62027 0.72964 0.0
C2350 C 0.13168 0.61987 0.74756 0.0
C2351 C 0.16484 0.61313 0.72341 0.0
C2352 C 0.09956 0.65054 0.77013 0.0
C2353 C 0.10632 0.64313 0.76347 0.0
C2354 C 0.13078 0.64346 0.7429 0.0
C2355 C 0.14604 0.61694 0.73174 0.0
C2356 C 0.13833 0.62445 0.73856 0.0
C2357 C 0.11713 0.64671 0.75935 0.0
C2358 C 0.12428 0.63896 0.75207 0.0
H2359 H 0.14613 0.59119 0.71775 0.0
H2360 H 0.13328 0.60365 0.7288 0.0
H2361 H 0.1427 0.64002 0.72928 0.0
H2362 H 0.11755 0.67375 0.77063 0.0
H2363 H 0.12944 0.66077 0.75937 0.0
C2364 C 0.34264 0.10016 0.77003 0.0
C2365 C 0.33139 0.10394 0.77236 0.0
C2366 C 0.35022 0.10708 0.76375 0.0
C2367 C 0.35586 0.13702 0.75553 0.0
H2368 H 0.37196 0.12389 0.72943 0.0
C2369 C 0.37913 0.1656 0.72253 0.0
C2370 C 0.38956 0.16166 0.71785 0.0
C2371 C 0.37239 0.15838 0.72936 0.0
C2372 C 0.36769 0.12767 0.73679 0.0
H2373 H 0.31934 0.11804 0.77011 0.0
H2374 H 0.33263 0.13015 0.75928 0.0
H2375 H 0.35982 0.11162 0.74139 0.0
H2376 H 0.4011 0.14702 0.71672 0.0
H2377 H 0.38947 0.13451 0.72889 0.0
H2378 H 0.36378 0.15302 0.7511 0.0
C2379 C 0.33556 0.12183 0.7623 0.0
C2380 C 0.36071 0.12063 0.74362 0.0
C2381 C 0.32794 0.11486 0.76844 0.0
C2382 C 0.39307 0.15031 0.72013 0.0
C2383 C 0.38637 0.14311 0.72708 0.0
C2384 C 0.36292 0.14403 0.74879 0.0
C2385 C 0.34674 0.11798 0.75982 0.0
C2386 C 0.35464 0.12528 0.75297 0.0
C2387 C 0.37596 0.14707 0.73181 0.0
C2388 C 0.36882 0.13948 0.73925 0.0
H2389 H 0.34555 0.09178 0.77291 0.0
H2390 H 0.35883 0.10395 0.76201 0.0
H2391 H 0.35139 0.14079 0.76279 0.0
H2392 H 0.37613 0.17427 0.72086 0.0
H2393 H 0.36431 0.16166 0.73265 0.0
C2394 C 0.89188 0.34173 0.77098 0.0
C2395 C 0.88806 0.33053 0.77352 0.0
C2396 C 0.88507 0.34915 0.76437 0.0
C2397 C 0.86075 0.34863 0.74368 0.0
H2398 H 0.85912 0.38133 0.7502 0.0
C2399 C 0.82639 0.37824 0.72385 0.0
C2400 C 0.83014 0.38883 0.71934 0.0
C2401 C 0.83385 0.37134 0.73024 0.0
C2402 C 0.85959 0.37223 0.74822 0.0
H2403 H 0.87394 0.31848 0.77147 0.0
H2404 H 0.86198 0.33147 0.76028 0.0
H2405 H 0.87124 0.36895 0.76211 0.0
H2406 H 0.84468 0.40049 0.71806 0.0
H2407 H 0.85771 0.38842 0.72936 0.0
H2408 H 0.84889 0.35189 0.72997 0.0
C2409 C 0.87036 0.33444 0.76307 0.0
C2410 C 0.86655 0.36513 0.75502 0.0
C2411 C 0.87719 0.32701 0.76956 0.0
C2412 C 0.84153 0.39237 0.72139 0.0
C2413 C 0.84897 0.3855 0.72791 0.0
C2414 C 0.85373 0.35569 0.73697 0.0
C2415 C 0.87427 0.34555 0.76024 0.0
C2416 C 0.86714 0.35322 0.75288 0.0
C2417 C 0.8452 0.37491 0.73235 0.0
C2418 C 0.85302 0.36755 0.73922 0.0
H2419 H 0.90024 0.34469 0.77387 0.0
H2420 H 0.88841 0.3576 0.76227 0.0
H2421 H 0.8612 0.33955 0.74159 0.0
H2422 H 0.81767 0.37525 0.72243 0.0
H2423 H 0.83069 0.36325 0.73366 0.0
C2424 C 0.6488 0.09936 0.22093 0.0
C2425 C 0.66016 0.10294 0.21878 0.0
C2426 C 0.64133 0.10629 0.22733 0.0
C2427 C 0.63626 0.13617 0.23596 0.0
H2428 H 0.61924 0.12297 0.26145 0.0
C2429 C 0.61213 0.16475 0.26833 0.0
C2430 C 0.6015 0.16086 0.27257 0.0
C2431 C 0.6191 0.1575 0.26176 0.0
C2432 C 0.62378 0.12677 0.25426 0.0
H2433 H 0.67252 0.11669 0.2215 0.0
H2434 H 0.65943 0.12882 0.23253 0.0
H2435 H 0.6315 0.11065 0.24966 0.0
H2436 H 0.58984 0.14628 0.27324 0.0
H2437 H 0.60185 0.13373 0.26151 0.0
H2438 H 0.62846 0.15223 0.24035 0.0
C2439 C 0.65633 0.12064 0.22929 0.0
C2440 C 0.63082 0.11971 0.24753 0.0
C2441 C 0.66384 0.11366 0.22303 0.0
C2442 C 0.59802 0.14952 0.27015 0.0
C2443 C 0.60494 0.1423 0.26347 0.0
C2444 C 0.62913 0.1432 0.24259 0.0
C2445 C 0.64504 0.11701 0.23155 0.0
C2446 C 0.6372 0.12437 0.23839 0.0
C2447 C 0.61555 0.14622 0.25915 0.0
C2448 C 0.62288 0.13862 0.2519 0.0
H2449 H 0.64571 0.09113 0.2178 0.0
H2450 H 0.63263 0.10333 0.22889 0.0
H2451 H 0.64097 0.13995 0.22885 0.0
H2452 H 0.61512 0.1734 0.27013 0.0
H2453 H 0.62732 0.16074 0.25881 0.0
C2454 C 0.87751 0.66501 0.22227 0.0
C2455 C 0.88816 0.66122 0.21797 0.0
C2456 C 0.87051 0.6576 0.22862 0.0
C2457 C 0.8713 0.63207 0.24693 0.0
H2458 H 0.83878 0.62989 0.2398 0.0
C2459 C 0.8413 0.59928 0.26943 0.0
C2460 C 0.83 0.60282 0.27185 0.0
C2461 C 0.84858 0.60621 0.2628 0.0
C2462 C 0.8478 0.63051 0.24203 0.0
H2463 H 0.89983 0.64666 0.21703 0.0
H2464 H 0.88761 0.63375 0.22827 0.0
H2465 H 0.8511 0.64237 0.22831 0.0
H2466 H 0.81758 0.61656 0.26949 0.0
H2467 H 0.83033 0.62876 0.25827 0.0
H2468 H 0.868 0.62044 0.26082 0.0
C2469 C 0.88471 0.64247 0.22668 0.0
C2470 C 0.85486 0.63762 0.2354 0.0
C2471 C 0.89166 0.64984 0.2202 0.0
C2472 C 0.8262 0.61352 0.26769 0.0
C2473 C 0.8335 0.62049 0.26118 0.0
C2474 C 0.86422 0.62503 0.25365 0.0
C2475 C 0.87406 0.64627 0.23093 0.0
C2476 C 0.86666 0.6385 0.23781 0.0
C2477 C 0.84474 0.61688 0.25854 0.0
C2478 C 0.85237 0.6242 0.25131 0.0
H2479 H 0.87455 0.67371 0.2207 0.0
H2480 H 0.86237 0.66077 0.23189 0.0
H2481 H 0.88036 0.63268 0.24903 0.0
H2482 H 0.84447 0.59105 0.27246 0.0
H2483 H 0.85713 0.60307 0.26083 0.0
C2484 C 0.34115 0.89084 0.21992 0.0
C2485 C 0.3297 0.88753 0.2178 0.0
C2486 C 0.34849 0.8837 0.22623 0.0
C2487 C 0.35297 0.85371 0.23488 0.0
H2488 H 0.37034 0.86667 0.26026 0.0
C2489 C 0.37687 0.82485 0.26728 0.0
C2490 C 0.38755 0.82864 0.2715 0.0
C2491 C 0.36998 0.83215 0.26067 0.0
C2492 C 0.3657 0.86293 0.2531 0.0
H2493 H 0.31706 0.87403 0.22047 0.0
H2494 H 0.32993 0.86153 0.23137 0.0
H2495 H 0.35826 0.87917 0.24849 0.0
H2496 H 0.3994 0.84307 0.27203 0.0
H2497 H 0.38754 0.85569 0.26023 0.0
H2498 H 0.3605 0.83752 0.23929 0.0
C2499 C 0.3332 0.86966 0.22816 0.0
C2500 C 0.35876 0.8701 0.24638 0.0
C2501 C 0.32582 0.87685 0.22198 0.0
C2502 C 0.39118 0.83991 0.26897 0.0
C2503 C 0.38435 0.84717 0.26225 0.0
C2504 C 0.36 0.84656 0.2415 0.0
C2505 C 0.34457 0.87305 0.23042 0.0
C2506 C 0.35226 0.86554 0.23726 0.0
C2507 C 0.37366 0.84338 0.25799 0.0
C2508 C 0.36639 0.85106 0.25076 0.0
H2509 H 0.3444 0.89902 0.21684 0.0
H2510 H 0.35725 0.88648 0.22779 0.0
H2511 H 0.34816 0.85 0.2278 0.0
H2512 H 0.37377 0.81626 0.26915 0.0
H2513 H 0.36171 0.82901 0.25774 0.0
C2514 C 0.16389 0.37702 0.26825 0.0
C2515 C 0.16019 0.38778 0.27238 0.0
C2516 C 0.15642 0.36998 0.262 0.0
C2517 C 0.13104 0.37077 0.24355 0.0
H2518 H 0.12864 0.3383 0.25095 0.0
C2519 C 0.11271 0.32553 0.22284 0.0
C2520 C 0.10212 0.32934 0.21844 0.0
C2521 C 0.11957 0.33286 0.22945 0.0
C2522 C 0.12932 0.34731 0.24865 0.0
H2523 H 0.14575 0.39959 0.27315 0.0
H2524 H 0.13274 0.38731 0.26207 0.0
H2525 H 0.14102 0.35069 0.26248 0.0
H2526 H 0.09041 0.34385 0.21753 0.0
H2527 H 0.10224 0.35655 0.22932 0.0
H2528 H 0.1196 0.36739 0.22953 0.0
C2529 C 0.14142 0.38435 0.26372 0.0
C2530 C 0.13638 0.3544 0.2553 0.0
C2531 C 0.14886 0.39134 0.27011 0.0
C2532 C 0.09856 0.34068 0.22074 0.0
C2533 C 0.10538 0.34798 0.22746 0.0
C2534 C 0.12407 0.36365 0.2368 0.0
C2535 C 0.14514 0.3736 0.25962 0.0
C2536 C 0.13735 0.36619 0.25279 0.0
C2537 C 0.11595 0.34414 0.23194 0.0
C2538 C 0.12317 0.35181 0.23923 0.0
H2539 H 0.17256 0.374 0.26986 0.0
H2540 H 0.15953 0.36177 0.25885 0.0
H2541 H 0.13174 0.37981 0.24136 0.0
H2542 H 0.11576 0.31688 0.22115 0.0
H2543 H 0.12777 0.32968 0.23253 0.0
C2544 C 0.76852 0.66444 0.87692 0.0
C2545 C 0.77274 0.66062 0.88759 0.0
C2546 C 0.76188 0.65717 0.87003 0.0
C2547 C 0.75408 0.62646 0.86571 0.0
H2548 H 0.72871 0.63962 0.84847 0.0
C2549 C 0.72043 0.59892 0.84132 0.0
C2550 C 0.71824 0.60231 0.82991 0.0
C2551 C 0.7269 0.60596 0.84864 0.0
C2552 C 0.7358 0.63585 0.85319 0.0
H2553 H 0.77327 0.64617 0.89941 0.0
H2554 H 0.76142 0.63359 0.88754 0.0
H2555 H 0.74039 0.65197 0.86075 0.0
H2556 H 0.72094 0.61585 0.81731 0.0
H2557 H 0.73208 0.62817 0.83015 0.0
H2558 H 0.74929 0.61028 0.85824 0.0
C2559 C 0.76346 0.64212 0.88435 0.0
C2560 C 0.74254 0.64292 0.86019 0.0
C2561 C 0.77021 0.64935 0.89119 0.0
C2562 C 0.72249 0.61296 0.82604 0.0
C2563 C 0.72882 0.62005 0.8334 0.0
C2564 C 0.74725 0.61936 0.8588 0.0
C2565 C 0.75916 0.64595 0.8737 0.0
C2566 C 0.75183 0.63834 0.86647 0.0
C2567 C 0.73115 0.61659 0.84474 0.0
C2568 C 0.73811 0.62401 0.85241 0.0
H2569 H 0.77039 0.67304 0.87384 0.0
H2570 H 0.75893 0.66034 0.86178 0.0
H2571 H 0.76125 0.62265 0.87027 0.0
H2572 H 0.7173 0.59076 0.84456 0.0
H2573 H 0.7285 0.60313 0.85737 0.0
C2574 C 0.76868 0.32688 0.11311 0.0
C2575 C 0.77277 0.33049 0.10231 0.0
C2576 C 0.76254 0.33444 0.12014 0.0
C2577 C 0.74421 0.35989 0.11928 0.0
H2578 H 0.75178 0.36248 0.15167 0.0
C2579 C 0.72131 0.39232 0.14935 0.0
C2580 C 0.71905 0.38873 0.16068 0.0
C2581 C 0.7281 0.38558 0.14205 0.0
C2582 C 0.74944 0.36175 0.14268 0.0
H2583 H 0.77358 0.34488 0.09042 0.0
H2584 H 0.76267 0.35804 0.10268 0.0
H2585 H 0.76324 0.35001 0.13931 0.0
H2586 H 0.72191 0.37511 0.17313 0.0
H2587 H 0.73341 0.36322 0.16034 0.0
H2588 H 0.73021 0.37135 0.12267 0.0
C2589 C 0.76428 0.34935 0.10568 0.0
C2590 C 0.75605 0.35465 0.1356 0.0
C2591 C 0.77057 0.34184 0.0987 0.0
C2592 C 0.72357 0.37818 0.16448 0.0
C2593 C 0.73025 0.3714 0.15716 0.0
C2594 C 0.73751 0.3669 0.12639 0.0
C2595 C 0.76022 0.34572 0.11646 0.0
C2596 C 0.75346 0.3536 0.12385 0.0
C2597 C 0.73269 0.37505 0.14588 0.0
C2598 C 0.73999 0.36786 0.1382 0.0
H2599 H 0.77025 0.31821 0.11616 0.0
H2600 H 0.75941 0.33139 0.12838 0.0
H2601 H 0.74196 0.35914 0.11026 0.0
H2602 H 0.718 0.40044 0.14617 0.0
H2603 H 0.72991 0.38874 0.13347 0.0
C2604 C 0.66597 0.76558 0.11296 0.0
C2605 C 0.66202 0.77056 0.10267 0.0
C2606 C 0.65873 0.7586 0.11954 0.0
C2607 C 0.62799 0.75132 0.12416 0.0
H2608 H 0.64091 0.72484 0.13986 0.0
C2609 C 0.60021 0.71818 0.14903 0.0
C2610 C 0.60405 0.71575 0.16025 0.0
C2611 C 0.60719 0.72434 0.14139 0.0
C2612 C 0.6372 0.73223 0.13555 0.0
H2613 H 0.64736 0.77207 0.09121 0.0
H2614 H 0.63482 0.75968 0.10255 0.0
H2615 H 0.6532 0.73667 0.12765 0.0
H2616 H 0.61834 0.71763 0.17213 0.0
H2617 H 0.63053 0.72824 0.15876 0.0
H2618 H 0.61195 0.74673 0.13202 0.0
C2619 C 0.64344 0.76135 0.10567 0.0
C2620 C 0.64424 0.73905 0.1286 0.0
C2621 C 0.65065 0.76843 0.09913 0.0
C2622 C 0.61511 0.71939 0.16357 0.0
C2623 C 0.62212 0.7254 0.15589 0.0
C2624 C 0.62092 0.74441 0.13102 0.0
C2625 C 0.6474 0.75633 0.11595 0.0
C2626 C 0.63976 0.74878 0.12293 0.0
C2627 C 0.61819 0.72803 0.14477 0.0
C2628 C 0.62549 0.73489 0.13689 0.0
H2629 H 0.67465 0.76711 0.11598 0.0
H2630 H 0.66201 0.75508 0.12753 0.0
H2631 H 0.62427 0.75882 0.12006 0.0
H2632 H 0.59173 0.71551 0.14622 0.0
H2633 H 0.60399 0.7262 0.13283 0.0
C2634 C 0.26911 0.59895 0.14968 0.0
C2635 C 0.27165 0.60253 0.16096 0.0
C2636 C 0.26226 0.60577 0.14251 0.0
C2637 C 0.24117 0.62979 0.14351 0.0
H2638 H 0.24782 0.63199 0.11088 0.0
C2639 C 0.2209 0.66404 0.1138 0.0
C2640 C 0.21671 0.66023 0.10311 0.0
C2641 C 0.22723 0.65666 0.12085 0.0
C2642 C 0.24581 0.63136 0.11996 0.0
H2643 H 0.26924 0.61621 0.17344 0.0
H2644 H 0.25763 0.62823 0.16086 0.0
H2645 H 0.25989 0.61995 0.12314 0.0
H2646 H 0.21585 0.64564 0.09146 0.0
H2647 H 0.22706 0.63278 0.10377 0.0
H2648 H 0.22726 0.64146 0.14033 0.0
C2649 C 0.26063 0.62002 0.15763 0.0
C2650 C 0.25269 0.62444 0.12699 0.0
C2651 C 0.26736 0.61315 0.16483 0.0
C2652 C 0.21894 0.64884 0.09965 0.0
C2653 C 0.22541 0.6415 0.10666 0.0
C2654 C 0.23437 0.63679 0.1365 0.0
C2655 C 0.2579 0.61638 0.14641 0.0
C2656 C 0.25049 0.6236 0.13887 0.0
C2657 C 0.22962 0.64535 0.11731 0.0
C2658 C 0.23664 0.63767 0.12467 0.0
H2659 H 0.27222 0.59078 0.14646 0.0
H2660 H 0.26022 0.60261 0.13399 0.0
H2661 H 0.23905 0.62916 0.15256 0.0
H2662 H 0.21931 0.67275 0.11672 0.0
H2663 H 0.23046 0.65987 0.12899 0.0
C2664 C 0.32681 0.22227 0.1151 0.0
C2665 C 0.33044 0.21831 0.10426 0.0
C2666 C 0.33425 0.22859 0.1221 0.0
C2667 C 0.35932 0.2475 0.12105 0.0
H2668 H 0.3622 0.24016 0.15348 0.0
C2669 C 0.39207 0.27056 0.1506 0.0
C2670 C 0.38868 0.27287 0.16197 0.0
C2671 C 0.38518 0.26378 0.14343 0.0
C2672 C 0.36138 0.24244 0.14448 0.0
H2673 H 0.34477 0.21787 0.0923 0.0
H2674 H 0.35773 0.22905 0.10452 0.0
H2675 H 0.3498 0.22846 0.14126 0.0
H2676 H 0.37525 0.27013 0.17465 0.0
H2677 H 0.3631 0.25863 0.16208 0.0
H2678 H 0.37066 0.26164 0.12428 0.0
C2679 C 0.34911 0.22723 0.10756 0.0
C2680 C 0.35432 0.23569 0.13748 0.0
C2681 C 0.34171 0.22078 0.1006 0.0
C2682 C 0.37817 0.26843 0.16596 0.0
C2683 C 0.37123 0.26176 0.15876 0.0
C2684 C 0.3663 0.25433 0.12808 0.0
C2685 C 0.34544 0.2312 0.11837 0.0
C2686 C 0.35319 0.23817 0.12571 0.0
C2687 C 0.37469 0.25925 0.14744 0.0
C2688 C 0.36739 0.25191 0.13989 0.0
H2689 H 0.31819 0.2205 0.11819 0.0
H2690 H 0.33117 0.23163 0.13036 0.0
H2691 H 0.3585 0.24967 0.11203 0.0
H2692 H 0.40015 0.2738 0.14728 0.0
H2693 H 0.38819 0.26191 0.13481 0.0
C2694 C 0.26747 0.37797 0.82503 0.0
C2695 C 0.27179 0.38857 0.82896 0.0
C2696 C 0.26099 0.37093 0.83231 0.0
C2697 C 0.24238 0.37177 0.8576 0.0
H2698 H 0.24889 0.33909 0.85954 0.0
C2699 C 0.21938 0.34198 0.89018 0.0
C2700 C 0.21681 0.3307 0.88664 0.0
C2701 C 0.22607 0.34918 0.88324 0.0
C2702 C 0.24683 0.34816 0.85898 0.0
H2703 H 0.2727 0.40009 0.84364 0.0
H2704 H 0.26126 0.38781 0.85632 0.0
H2705 H 0.26071 0.35132 0.84728 0.0
H2706 H 0.21893 0.31825 0.87288 0.0
H2707 H 0.23027 0.3309 0.86065 0.0
H2708 H 0.22835 0.36862 0.86908 0.0
C2709 C 0.26291 0.38498 0.84759 0.0
C2710 C 0.25365 0.35517 0.85199 0.0
C2711 C 0.26952 0.39196 0.84035 0.0
C2712 C 0.22085 0.32686 0.87591 0.0
C2713 C 0.22743 0.3341 0.86893 0.0
C2714 C 0.23548 0.36474 0.86451 0.0
C2715 C 0.25859 0.3744 0.84363 0.0
C2716 C 0.25148 0.36703 0.85122 0.0
C2717 C 0.23024 0.34531 0.87255 0.0
C2718 C 0.2376 0.35284 0.86526 0.0
H2719 H 0.26908 0.37509 0.81631 0.0
H2720 H 0.25768 0.36286 0.82901 0.0
H2721 H 0.24045 0.38088 0.85706 0.0
H2722 H 0.21645 0.34517 0.89843 0.0
H2723 H 0.22818 0.3577 0.88638 0.0
C2724 C 0.6505 0.22387 0.89271 0.0
C2725 C 0.66189 0.22187 0.88918 0.0
C2726 C 0.64313 0.23062 0.886 0.0
C2727 C 0.62743 0.23969 0.86721 0.0
H2728 H 0.63978 0.26586 0.85054 0.0
C2729 C 0.59911 0.2719 0.8417 0.0
C2730 C 0.60284 0.2742 0.83041 0.0
C2731 C 0.60616 0.26583 0.84933 0.0
C2732 C 0.63623 0.25855 0.85512 0.0
H2733 H 0.67441 0.2252 0.87573 0.0
H2734 H 0.6615 0.23663 0.86391 0.0
H2735 H 0.65232 0.25477 0.86317 0.0
H2736 H 0.61694 0.27208 0.81836 0.0
H2737 H 0.62927 0.26162 0.83175 0.0
H2738 H 0.61128 0.24366 0.85921 0.0
C2739 C 0.65832 0.23329 0.87201 0.0
C2740 C 0.64341 0.25215 0.86231 0.0
C2741 C 0.66571 0.22666 0.87876 0.0
C2742 C 0.6138 0.27042 0.82698 0.0
C2743 C 0.62089 0.2645 0.83466 0.0
C2744 C 0.62021 0.24618 0.8601 0.0
C2745 C 0.64695 0.23542 0.87556 0.0
C2746 C 0.63914 0.24255 0.86834 0.0
C2747 C 0.61712 0.26209 0.84588 0.0
C2748 C 0.62459 0.25558 0.85389 0.0
H2749 H 0.64731 0.22035 0.90073 0.0
H2750 H 0.63448 0.2322 0.88909 0.0
H2751 H 0.62387 0.23227 0.87159 0.0
H2752 H 0.5907 0.27467 0.8446 0.0
H2753 H 0.60308 0.26414 0.85797 0.0
C2754 C 0.34151 0.76742 0.89204 0.0
C2755 C 0.33018 0.76967 0.88848 0.0
C2756 C 0.34879 0.76061 0.8853 0.0
C2757 C 0.3481 0.73924 0.86148 0.0
H2758 H 0.38047 0.74686 0.85863 0.0
C2759 C 0.37739 0.72032 0.82624 0.0
C2760 C 0.38825 0.71626 0.8297 0.0
C2761 C 0.37042 0.72639 0.83391 0.0
C2762 C 0.37147 0.74458 0.85945 0.0
H2763 H 0.31769 0.76677 0.8749 0.0
H2764 H 0.33043 0.75524 0.86302 0.0
H2765 H 0.36812 0.75853 0.87098 0.0
H2766 H 0.40031 0.71542 0.84393 0.0
H2767 H 0.38815 0.72619 0.8573 0.0
H2768 H 0.35143 0.72549 0.84967 0.0
C2769 C 0.33364 0.75842 0.87117 0.0
C2770 C 0.36439 0.75123 0.86654 0.0
C2771 C 0.32634 0.76511 0.87796 0.0
C2772 C 0.39198 0.71841 0.84101 0.0
C2773 C 0.38506 0.72462 0.84864 0.0
C2774 C 0.35515 0.73268 0.8543 0.0
C2775 C 0.34493 0.756 0.87479 0.0
C2776 C 0.35259 0.7487 0.86758 0.0
C2777 C 0.37421 0.72865 0.84516 0.0
C2778 C 0.36688 0.73533 0.85316 0.0
H2779 H 0.34471 0.77077 0.90014 0.0
H2780 H 0.35738 0.75882 0.88843 0.0
H2781 H 0.33913 0.73686 0.86226 0.0
H2782 H 0.37425 0.71879 0.81759 0.0
H2783 H 0.36213 0.72949 0.83098 0.0
C2784 C 0.05482 0.23039 0.29189 0.0
C2785 C 0.05924 0.21952 0.28897 0.0
C2786 C 0.05304 0.23873 0.2834 0.0
C2787 C 0.05084 0.24311 0.25182 0.0
H2788 H 0.06224 0.27365 0.25903 0.0
C2789 C 0.06216 0.27689 0.21717 0.0
C2790 C 0.05994 0.28854 0.21956 0.0
C2791 C 0.06024 0.26846 0.22553 0.0
C2792 C 0.05883 0.26523 0.25692 0.0
H2793 H 0.06488 0.20871 0.27483 0.0
H2794 H 0.06191 0.22329 0.26006 0.0
H2795 H 0.06207 0.2589 0.27388 0.0
H2796 H 0.05351 0.30044 0.23243 0.0
H2797 H 0.05006 0.28571 0.247 0.0
H2798 H 0.04785 0.24942 0.23476 0.0
C2799 C 0.05969 0.22535 0.26887 0.0
C2800 C 0.05873 0.25676 0.26545 0.0
C2801 C 0.06146 0.21701 0.27735 0.0
C2802 C 0.05538 0.29154 0.23035 0.0
C2803 C 0.05346 0.28311 0.23871 0.0
C2804 C 0.05095 0.25159 0.24328 0.0
C2805 C 0.05566 0.23638 0.27183 0.0
C2806 C 0.05487 0.24556 0.26297 0.0
C2807 C 0.05606 0.2715 0.23647 0.0
C2808 C 0.05508 0.26271 0.2457 0.0
H2809 H 0.05295 0.23255 0.30076 0.0
H2810 H 0.04976 0.24708 0.28593 0.0
H2811 H 0.04767 0.2346 0.24968 0.0
H2812 H 0.06568 0.2743 0.20894 0.0
H2813 H 0.06244 0.25962 0.22357 0.0
C2814 C 0.76072 0.05512 0.29121 0.0
C2815 C 0.77136 0.06004 0.28827 0.0
C2816 C 0.75238 0.05314 0.28277 0.0
C2817 C 0.74769 0.05142 0.2512 0.0
H2818 H 0.71697 0.06186 0.25898 0.0
C2819 C 0.71343 0.06301 0.21718 0.0
C2820 C 0.70184 0.06055 0.21961 0.0
C2821 C 0.72195 0.06095 0.22541 0.0
C2822 C 0.72544 0.0587 0.25671 0.0
H2823 H 0.7818 0.06631 0.27412 0.0
H2824 H 0.76722 0.06298 0.25943 0.0
H2825 H 0.73186 0.06171 0.27367 0.0
H2826 H 0.69015 0.05353 0.23236 0.0
H2827 H 0.70505 0.04984 0.24668 0.0
H2828 H 0.74128 0.04869 0.23413 0.0
C2829 C 0.76534 0.06054 0.26823 0.0
C2830 C 0.73399 0.05862 0.26514 0.0
C2831 C 0.77368 0.06251 0.27666 0.0
C2832 C 0.699 0.05559 0.23026 0.0
C2833 C 0.70752 0.05353 0.23849 0.0
C2834 C 0.73913 0.05151 0.24275 0.0
C2835 C 0.75451 0.05604 0.27122 0.0
C2836 C 0.74525 0.05513 0.26246 0.0
C2837 C 0.71906 0.05638 0.23624 0.0
C2838 C 0.72794 0.05531 0.24537 0.0
H2839 H 0.75871 0.05305 0.30007 0.0
H2840 H 0.74419 0.04949 0.28533 0.0
H2841 H 0.75624 0.04853 0.2489 0.0
H2842 H 0.71589 0.06683 0.20904 0.0
H2843 H 0.73073 0.06336 0.22344 0.0
C2844 C 0.92907 0.71426 0.21496 0.0
C2845 C 0.93032 0.70272 0.21833 0.0
C2846 C 0.93067 0.72314 0.2229 0.0
C2847 C 0.94239 0.73012 0.25177 0.0
H2848 H 0.91856 0.75348 0.25144 0.0
C2849 C 0.93325 0.76066 0.29005 0.0
C2850 C 0.92975 0.77197 0.28757 0.0
C2851 C 0.93492 0.7527 0.28118 0.0
C2852 C 0.92541 0.74716 0.25155 0.0
H2853 H 0.93475 0.69142 0.23252 0.0
H2854 H 0.93741 0.70693 0.24644 0.0
H2855 H 0.91873 0.73871 0.23665 0.0
H2856 H 0.92584 0.78398 0.27383 0.0
H2857 H 0.9289 0.77017 0.25836 0.0
H2858 H 0.94892 0.73851 0.26684 0.0
C2859 C 0.93528 0.70913 0.23763 0.0
C2860 C 0.92551 0.73868 0.24306 0.0
C2861 C 0.9337 0.70024 0.22967 0.0
C2862 C 0.92843 0.7753 0.27603 0.0
C2863 C 0.93013 0.76737 0.26716 0.0
C2864 C 0.9423 0.73864 0.26028 0.0
C2865 C 0.93354 0.72067 0.23439 0.0
C2866 C 0.93394 0.73001 0.2431 0.0
C2867 C 0.93316 0.75591 0.26964 0.0
C2868 C 0.93375 0.74721 0.2603 0.0
H2869 H 0.92657 0.71646 0.20625 0.0
H2870 H 0.92947 0.73195 0.22008 0.0
H2871 H 0.94907 0.72363 0.25196 0.0
H2872 H 0.93436 0.75783 0.29887 0.0
H2873 H 0.93716 0.74393 0.28339 0.0
C2874 C 0.23034 0.93579 0.29164 0.0
C2875 C 0.21961 0.93114 0.28858 0.0
C2876 C 0.23876 0.93775 0.28328 0.0
C2877 C 0.24359 0.94011 0.25181 0.0
H2878 H 0.27401 0.92867 0.25936 0.0
C2879 C 0.27756 0.92873 0.2175 0.0
C2880 C 0.28921 0.93073 0.22001 0.0
C2881 C 0.2691 0.93076 0.22579 0.0
C2882 C 0.26564 0.93211 0.25716 0.0
H2883 H 0.2091 0.92534 0.27428 0.0
H2884 H 0.22381 0.92865 0.2597 0.0
H2885 H 0.25909 0.92879 0.27402 0.0
H2886 H 0.30111 0.93691 0.233 0.0
H2887 H 0.28632 0.94057 0.24745 0.0
H2888 H 0.25012 0.9432 0.23485 0.0
C2889 C 0.2257 0.93088 0.26855 0.0
C2890 C 0.25707 0.93218 0.26557 0.0
C2891 C 0.2173 0.92892 0.27692 0.0
C2892 C 0.2922 0.9352 0.23084 0.0
C2893 C 0.28374 0.93724 0.23913 0.0
C2894 C 0.25218 0.94006 0.24338 0.0
C2895 C 0.23661 0.93511 0.27167 0.0
C2896 C 0.24591 0.93602 0.26296 0.0
C2897 C 0.27212 0.93485 0.23677 0.0
C2898 C 0.26325 0.9359 0.24592 0.0
H2899 H 0.23236 0.93767 0.30055 0.0
H2900 H 0.24701 0.94117 0.28593 0.0
H2901 H 0.23512 0.94328 0.24957 0.0
H2902 H 0.27498 0.92529 0.20923 0.0
H2903 H 0.26025 0.92869 0.22373 0.0
C2904 C 0.05902 0.70131 0.75968 0.0
C2905 C 0.06253 0.70398 0.77094 0.0
C2906 C 0.05728 0.71006 0.7516 0.0
C2907 C 0.06646 0.73972 0.74554 0.0
H2908 H 0.04231 0.73893 0.72252 0.0
C2909 C 0.06162 0.77618 0.71264 0.0
C2910 C 0.0601 0.77278 0.70114 0.0
C2911 C 0.06035 0.76823 0.72156 0.0
C2912 C 0.04913 0.73923 0.72886 0.0
H2913 H 0.06647 0.71794 0.78271 0.0
H2914 H 0.06331 0.73319 0.76867 0.0
H2915 H 0.04293 0.72413 0.73747 0.0
H2916 H 0.05555 0.75851 0.68999 0.0
H2917 H 0.05347 0.74458 0.70556 0.0
H2918 H 0.07281 0.75464 0.73688 0.0
C2919 C 0.06211 0.72433 0.76601 0.0
C2920 C 0.04949 0.73076 0.73742 0.0
C2921 C 0.06386 0.71559 0.77407 0.0
C2922 C 0.0568 0.76139 0.69877 0.0
C2923 C 0.05555 0.75342 0.7077 0.0
C2924 C 0.06611 0.74816 0.73701 0.0
C2925 C 0.059 0.72165 0.75463 0.0
C2926 C 0.05821 0.73088 0.74582 0.0
C2927 C 0.05756 0.75669 0.71917 0.0
C2928 C 0.05748 0.74799 0.72854 0.0
H2929 H 0.05791 0.69244 0.75702 0.0
H2930 H 0.05499 0.7077 0.74288 0.0
H2931 H 0.07343 0.73994 0.75173 0.0
H2932 H 0.06408 0.78493 0.71475 0.0
H2933 H 0.06175 0.77108 0.73032 0.0
C2934 C 0.29182 0.05751 0.75919 0.0
C2935 C 0.28895 0.06218 0.76997 0.0
C2936 C 0.28331 0.05557 0.75092 0.0
C2937 C 0.25177 0.05301 0.74676 0.0
H2938 H 0.25868 0.06379 0.71595 0.0
C2939 C 0.21679 0.06298 0.71297 0.0
C2940 C 0.21918 0.06067 0.70134 0.0
C2941 C 0.22522 0.06133 0.72137 0.0
C2942 C 0.25665 0.06054 0.72444 0.0
H2943 H 0.27486 0.0681 0.78068 0.0
H2944 H 0.26003 0.06481 0.76622 0.0
H2945 H 0.27359 0.06418 0.73062 0.0
H2946 H 0.2321 0.0543 0.68948 0.0
H2947 H 0.24678 0.05129 0.70418 0.0
H2948 H 0.23474 0.04959 0.74061 0.0
C2949 C 0.26884 0.06255 0.76419 0.0
C2950 C 0.26522 0.06077 0.73287 0.0
C2951 C 0.27735 0.0645 0.77245 0.0
C2952 C 0.23002 0.05624 0.69835 0.0
C2953 C 0.23845 0.05458 0.70677 0.0
C2954 C 0.2432 0.05277 0.73833 0.0
C2955 C 0.27174 0.05823 0.75326 0.0
C2956 C 0.26284 0.05714 0.74416 0.0
C2957 C 0.23622 0.05731 0.71834 0.0
C2958 C 0.24551 0.05666 0.7271 0.0
H2959 H 0.30068 0.05556 0.75704 0.0
H2960 H 0.2858 0.05208 0.74265 0.0
H2961 H 0.24972 0.05001 0.75535 0.0
H2962 H 0.20851 0.0664 0.71555 0.0
H2963 H 0.22325 0.06363 0.73019 0.0
C2964 C 0.92702 0.277 0.77265 0.0
C2965 C 0.92912 0.28867 0.77025 0.0
C2966 C 0.92887 0.26861 0.76424 0.0
C2967 C 0.93001 0.26532 0.73285 0.0
H2968 H 0.94151 0.23484 0.74018 0.0
C2969 C 0.93393 0.23023 0.69813 0.0
C2970 C 0.92945 0.21941 0.70117 0.0
C2971 C 0.93579 0.23864 0.70653 0.0
C2972 C 0.93825 0.2433 0.73801 0.0
H2973 H 0.93521 0.30066 0.75729 0.0
H2974 H 0.93854 0.28598 0.74264 0.0
H2975 H 0.94135 0.24974 0.755 0.0
H2976 H 0.92386 0.20875 0.71544 0.0
H2977 H 0.927 0.22344 0.73007 0.0
H2978 H 0.92667 0.25885 0.71596 0.0
C2979 C 0.9353 0.28334 0.75097 0.0
C2980 C 0.93815 0.25183 0.7465 0.0
C2981 C 0.93344 0.29174 0.75938 0.0
C2982 C 0.9273 0.21701 0.71282 0.0
C2983 C 0.92917 0.22541 0.72122 0.0
C2984 C 0.93012 0.2568 0.72438 0.0
C2985 C 0.93287 0.2717 0.75325 0.0
C2986 C 0.93388 0.26289 0.74405 0.0
C2987 C 0.93323 0.23639 0.71814 0.0
C2988 C 0.93408 0.24565 0.7269 0.0
H2989 H 0.92368 0.27436 0.78094 0.0
H2990 H 0.92678 0.25975 0.76624 0.0
H2991 H 0.9265 0.27369 0.73072 0.0
H2992 H 0.93574 0.23231 0.68923 0.0
H2993 H 0.93909 0.24696 0.70391 0.0
C2994 C 0.701 0.93509 0.76106 0.0
C2995 C 0.70394 0.9294 0.77132 0.0
C2996 C 0.70939 0.93746 0.75278 0.0
C2997 C 0.74089 0.93907 0.74791 0.0
H2998 H 0.73282 0.93035 0.71672 0.0
C2999 C 0.77462 0.92876 0.71307 0.0
C3000 C 0.77216 0.93157 0.70157 0.0
C3001 C 0.76645 0.93063 0.72168 0.0
C3002 C 0.73518 0.93305 0.72533 0.0
H3003 H 0.71805 0.92216 0.78116 0.0
H3004 H 0.73267 0.9262 0.76668 0.0
H3005 H 0.71822 0.92986 0.73169 0.0
H3006 H 0.75944 0.93909 0.69016 0.0
H3007 H 0.74523 0.9425 0.70524 0.0
H3008 H 0.75794 0.94201 0.74156 0.0
C3009 C 0.72391 0.92892 0.76506 0.0
C3010 C 0.72679 0.93276 0.73392 0.0
C3011 C 0.71551 0.92654 0.77333 0.0
C3012 C 0.76156 0.93675 0.69893 0.0
C3013 C 0.75339 0.93864 0.70756 0.0
C3014 C 0.74928 0.93938 0.7393 0.0
C3015 C 0.7209 0.93421 0.7546 0.0
C3016 C 0.72959 0.93559 0.74534 0.0
C3017 C 0.75566 0.93539 0.719 0.0
C3018 C 0.74656 0.93619 0.72794 0.0
H3019 H 0.69217 0.93747 0.75929 0.0
H3020 H 0.70684 0.94168 0.74487 0.0
H3021 H 0.74327 0.94146 0.7566 0.0
H3022 H 0.78271 0.92476 0.71538 0.0
H3023 H 0.76844 0.9279 0.73037 0.0
C3024 C 0.21668 0.06377 0.27661 0.0
C3025 C 0.21904 0.06124 0.2882 0.0
C3026 C 0.22503 0.06196 0.26816 0.0
C3027 C 0.2564 0.06031 0.26498 0.0
H3028 H 0.2492 0.04982 0.23412 0.0
C3029 C 0.29158 0.05629 0.23045 0.0
C3030 C 0.28886 0.06087 0.21959 0.0
C3031 C 0.28298 0.05456 0.23866 0.0
C3032 C 0.25132 0.05282 0.24269 0.0
H3033 H 0.2318 0.05433 0.29994 0.0
H3034 H 0.24634 0.05107 0.28516 0.0
H3035 H 0.23419 0.04992 0.24884 0.0
H3036 H 0.27494 0.06685 0.20869 0.0
H3037 H 0.25996 0.06398 0.22307 0.0
H3038 H 0.27343 0.06346 0.25882 0.0
C3039 C 0.2381 0.05464 0.28264 0.0
C3040 C 0.24273 0.05287 0.25111 0.0
C3041 C 0.22975 0.05645 0.2911 0.0
C3042 C 0.27731 0.0633 0.21698 0.0
C3043 C 0.26871 0.06159 0.2252 0.0
C3044 C 0.26497 0.06027 0.25657 0.0
C3045 C 0.23591 0.05757 0.27111 0.0
C3046 C 0.24515 0.05673 0.26232 0.0
C3047 C 0.27148 0.0574 0.23621 0.0
C3048 C 0.26251 0.05663 0.24529 0.0
H3049 H 0.2085 0.06747 0.27411 0.0
H3050 H 0.2231 0.06442 0.25937 0.0
H3051 H 0.2585 0.06352 0.27347 0.0
H3052 H 0.3004 0.05426 0.23269 0.0
H3053 H 0.28537 0.05114 0.247 0.0
C3054 C 0.92883 0.2777 0.21656 0.0
C3055 C 0.93083 0.2894 0.21891 0.0
C3056 C 0.9308 0.26935 0.22498 0.0
C3057 C 0.93186 0.26629 0.25638 0.0
H3058 H 0.9433 0.23573 0.24938 0.0
C3059 C 0.93509 0.2314 0.29138 0.0
C3060 C 0.93067 0.22056 0.28832 0.0
C3061 C 0.93712 0.23975 0.28297 0.0
C3062 C 0.94005 0.24422 0.25145 0.0
H3063 H 0.93696 0.30146 0.23177 0.0
H3064 H 0.9405 0.28687 0.24646 0.0
H3065 H 0.94332 0.25053 0.23444 0.0
H3066 H 0.92534 0.20981 0.27402 0.0
H3067 H 0.92875 0.22442 0.25937 0.0
H3068 H 0.92833 0.25995 0.27328 0.0
C3069 C 0.93723 0.28417 0.23815 0.0
C3070 C 0.94006 0.25269 0.2429 0.0
C3071 C 0.93526 0.29253 0.22972 0.0
C3072 C 0.92874 0.21809 0.27665 0.0
C3073 C 0.93076 0.22644 0.26824 0.0
C3074 C 0.93185 0.25784 0.26491 0.0
C3075 C 0.93483 0.27251 0.23594 0.0
C3076 C 0.93581 0.26378 0.24523 0.0
C3077 C 0.93478 0.23744 0.27132 0.0
C3078 C 0.93579 0.24665 0.26251 0.0
H3079 H 0.92542 0.27501 0.2083 0.0
H3080 H 0.92875 0.26046 0.22304 0.0
H3081 H 0.92834 0.27469 0.25841 0.0
H3082 H 0.93674 0.23353 0.30031 0.0
H3083 H 0.94038 0.24808 0.2856 0.0
C3084 C 0.77412 0.92896 0.2777 0.0
C3085 C 0.77178 0.93148 0.28929 0.0
C3086 C 0.76577 0.93083 0.26926 0.0
C3087 C 0.7344 0.93262 0.2661 0.0
H3088 H 0.74169 0.94266 0.23512 0.0
C3089 C 0.69938 0.9359 0.23127 0.0
C3090 C 0.70219 0.931 0.22058 0.0
C3091 C 0.70792 0.93788 0.2395 0.0
C3092 C 0.73953 0.9398 0.24373 0.0
H3093 H 0.75907 0.93844 0.30105 0.0
H3094 H 0.74453 0.9418 0.28629 0.0
H3095 H 0.75666 0.94277 0.24989 0.0
H3096 H 0.7162 0.92476 0.20996 0.0
H3097 H 0.73108 0.9281 0.22435 0.0
H3098 H 0.71738 0.9294 0.25993 0.0
C3099 C 0.75275 0.9382 0.28376 0.0
C3100 C 0.7481 0.93986 0.25218 0.0
C3101 C 0.7611 0.93633 0.2922 0.0
C3102 C 0.71377 0.92854 0.21812 0.0
C3103 C 0.7223 0.93052 0.22635 0.0
C3104 C 0.72585 0.93256 0.25767 0.0
C3105 C 0.75491 0.93527 0.27222 0.0
C3106 C 0.74566 0.93613 0.26343 0.0
C3107 C 0.71945 0.93501 0.23722 0.0
C3108 C 0.72834 0.93601 0.24635 0.0
H3109 H 0.78227 0.92522 0.27519 0.0
H3110 H 0.76767 0.92837 0.26047 0.0
H3111 H 0.73227 0.9295 0.27463 0.0
H3112 H 0.69054 0.93796 0.23339 0.0
H3113 H 0.70546 0.94152 0.24773 0.0
C3114 C 0.05613 0.69857 0.22997 0.0
C3115 C 0.0605 0.7016 0.2191 0.0
C3116 C 0.05421 0.70701 0.23832 0.0
C3117 C 0.05124 0.73854 0.24266 0.0
H3118 H 0.06262 0.73168 0.27327 0.0
C3119 C 0.06167 0.77357 0.27627 0.0
C3120 C 0.05952 0.77119 0.28793 0.0
C3121 C 0.05992 0.76512 0.2679 0.0
C3122 C 0.05921 0.73368 0.26483 0.0
H3123 H 0.06591 0.71588 0.20835 0.0
H3124 H 0.06268 0.73056 0.22296 0.0
H3125 H 0.06291 0.71679 0.25856 0.0
H3126 H 0.05334 0.75825 0.29989 0.0
H3127 H 0.05017 0.74353 0.28525 0.0
H3128 H 0.04778 0.75554 0.24891 0.0
C3129 C 0.06062 0.7217 0.225 0.0
C3130 C 0.05937 0.72513 0.25639 0.0
C3131 C 0.06254 0.71327 0.21664 0.0
C3132 C 0.05515 0.76033 0.29099 0.0
C3133 C 0.0534 0.75187 0.28261 0.0
C3134 C 0.05107 0.7471 0.25111 0.0
C3135 C 0.0566 0.71865 0.23599 0.0
C3136 C 0.05553 0.7275 0.24516 0.0
C3137 C 0.05596 0.75411 0.271 0.0
C3138 C 0.0552 0.74481 0.26225 0.0
H3139 H 0.0544 0.68966 0.2321 0.0
H3140 H 0.05095 0.7044 0.24666 0.0
H3141 H 0.04806 0.74058 0.23414 0.0
H3142 H 0.06504 0.78186 0.27364 0.0
H3143 H 0.06209 0.76709 0.25905 0.0
C3144 C 0.22941 0.93472 0.69924 0.0
C3145 C 0.2187 0.92982 0.702 0.0
C3146 C 0.23768 0.93651 0.70778 0.0
C3147 C 0.242 0.93799 0.73938 0.0
H3148 H 0.27295 0.92811 0.7318 0.0
C3149 C 0.2765 0.92749 0.77358 0.0
C3150 C 0.28802 0.93021 0.77112 0.0
C3151 C 0.26792 0.92924 0.76534 0.0
C3152 C 0.26441 0.9311 0.73401 0.0
H3153 H 0.20812 0.92332 0.71594 0.0
H3154 H 0.22261 0.92632 0.73082 0.0
H3155 H 0.25814 0.92795 0.71702 0.0
H3156 H 0.29951 0.93744 0.7583 0.0
H3157 H 0.28452 0.94061 0.74396 0.0
H3158 H 0.24827 0.9409 0.75647 0.0
C3159 C 0.22457 0.92889 0.72208 0.0
C3160 C 0.25591 0.93101 0.72553 0.0
C3161 C 0.21629 0.92711 0.71354 0.0
C3162 C 0.29072 0.93516 0.76042 0.0
C3163 C 0.28214 0.93693 0.75218 0.0
C3164 C 0.25052 0.93808 0.74788 0.0
C3165 C 0.23543 0.93344 0.71926 0.0
C3166 C 0.24458 0.93433 0.72814 0.0
C3167 C 0.27069 0.93378 0.75446 0.0
C3168 C 0.26179 0.93452 0.74532 0.0
H3169 H 0.23149 0.93698 0.69044 0.0
H3170 H 0.24589 0.9402 0.70536 0.0
H3171 H 0.23339 0.94075 0.74162 0.0
H3172 H 0.27414 0.92366 0.78175 0.0
H3173 H 0.2592 0.92662 0.76733 0.0
C3174 C 0.06287 0.21676 0.71399 0.0
C3175 C 0.06008 0.21913 0.70246 0.0
C3176 C 0.06123 0.2251 0.7225 0.0
C3177 C 0.05955 0.25648 0.72576 0.0
H3178 H 0.04996 0.24919 0.75688 0.0
C3179 C 0.05615 0.29167 0.76032 0.0
C3180 C 0.06108 0.28904 0.77104 0.0
C3181 C 0.05426 0.28302 0.75219 0.0
C3182 C 0.0527 0.25134 0.74824 0.0
H3183 H 0.05289 0.2319 0.6909 0.0
H3184 H 0.04993 0.24642 0.70577 0.0
H3185 H 0.04972 0.23419 0.74213 0.0
H3186 H 0.06749 0.27522 0.78183 0.0
H3187 H 0.06433 0.26013 0.76758 0.0
H3188 H 0.06277 0.27354 0.73185 0.0
C3189 C 0.05357 0.23818 0.7082 0.0
C3190 C 0.05257 0.24276 0.7398 0.0
C3191 C 0.05521 0.22984 0.69969 0.0
C3192 C 0.06368 0.27751 0.77364 0.0
C3193 C 0.06181 0.26886 0.76549 0.0
C3194 C 0.05969 0.26505 0.73418 0.0
C3195 C 0.05676 0.23598 0.71966 0.0
C3196 C 0.0561 0.24521 0.72848 0.0
C3197 C 0.05728 0.27155 0.75459 0.0
C3198 C 0.05637 0.26256 0.74554 0.0
H3199 H 0.06664 0.20858 0.7164 0.0
H3200 H 0.06389 0.22317 0.73122 0.0
H3201 H 0.06253 0.25862 0.71719 0.0
H3202 H 0.05396 0.30046 0.7581 0.0
H3203 H 0.05057 0.28534 0.74395 0.0
C3204 C 0.69488 0.06271 0.75778 0.0
C3205 C 0.69766 0.0657 0.76915 0.0
C3206 C 0.70354 0.06104 0.74962 0.0
C3207 C 0.73492 0.05588 0.74651 0.0
H3208 H 0.73003 0.06851 0.71601 0.0
C3209 C 0.77145 0.06348 0.71356 0.0
C3210 C 0.76905 0.06137 0.70189 0.0
C3211 C 0.76277 0.06253 0.72183 0.0
C3212 C 0.73147 0.06478 0.72443 0.0
H3213 H 0.71171 0.06918 0.78094 0.0
H3214 H 0.72683 0.0665 0.76665 0.0
H3215 H 0.71481 0.06986 0.73032 0.0
H3216 H 0.75583 0.05609 0.68982 0.0
H3217 H 0.7407 0.0544 0.70428 0.0
H3218 H 0.75172 0.05105 0.74063 0.0
C3219 C 0.71796 0.06524 0.76406 0.0
C3220 C 0.72274 0.06554 0.73264 0.0
C3221 C 0.70929 0.06686 0.77224 0.0
C3222 C 0.75793 0.05784 0.69873 0.0
C3223 C 0.74925 0.05694 0.707 0.0
C3224 C 0.74369 0.05516 0.7383 0.0
C3225 C 0.71519 0.06239 0.75263 0.0
C3226 C 0.72437 0.06116 0.74381 0.0
C3227 C 0.75152 0.05949 0.7186 0.0
C3228 C 0.74207 0.05965 0.72718 0.0
H3229 H 0.68599 0.06168 0.75516 0.0
H3230 H 0.70111 0.05866 0.74094 0.0
H3231 H 0.73641 0.05226 0.75497 0.0
H3232 H 0.77994 0.0662 0.71627 0.0
H3233 H 0.76478 0.06464 0.73069 0.0
C3234 C 0.9291 0.71336 0.7761 0.0
C3235 C 0.93071 0.70192 0.77252 0.0
C3236 C 0.93072 0.72245 0.7684 0.0
C3237 C 0.94306 0.73021 0.73996 0.0
H3238 H 0.91862 0.75293 0.73988 0.0
C3239 C 0.93355 0.76021 0.70139 0.0
C3240 C 0.92963 0.77141 0.70371 0.0
C3241 C 0.9354 0.75241 0.71037 0.0
C3242 C 0.92564 0.7468 0.73989 0.0
H3243 H 0.9358 0.69105 0.75822 0.0
H3244 H 0.9385 0.70691 0.74474 0.0
H3245 H 0.91888 0.7381 0.75461 0.0
H3246 H 0.92517 0.78344 0.71728 0.0
H3247 H 0.92854 0.7699 0.73293 0.0
H3248 H 0.94965 0.73882 0.72503 0.0
C3249 C 0.93608 0.70887 0.75352 0.0
C3250 C 0.92579 0.73828 0.74836 0.0
C3251 C 0.93446 0.69978 0.76123 0.0
C3252 C 0.92809 0.77483 0.7152 0.0
C3253 C 0.92996 0.76705 0.72417 0.0
C3254 C 0.94291 0.73875 0.73147 0.0
C3255 C 0.93399 0.72029 0.75695 0.0
C3256 C 0.93443 0.72981 0.74843 0.0
C3257 C 0.93339 0.75568 0.72185 0.0
C3258 C 0.93412 0.74707 0.73128 0.0
H3259 H 0.92629 0.71529 0.78477 0.0
H3260 H 0.92924 0.73116 0.77136 0.0
H3261 H 0.94991 0.72389 0.73986 0.0
H3262 H 0.93483 0.75733 0.69262 0.0
H3263 H 0.93794 0.74369 0.70828 0.0
C3264 C 0.21507 0.27674 0.06142 0.0
C3265 C 0.21838 0.28831 0.06015 0.0
C3266 C 0.2231 0.26792 0.06005 0.0
C3267 C 0.25226 0.26109 0.04899 0.0
H3268 H 0.25168 0.23792 0.07302 0.0
C3269 C 0.29067 0.23104 0.05905 0.0
C3270 C 0.28825 0.2197 0.06251 0.0
C3271 C 0.28175 0.2389 0.05724 0.0
C3272 C 0.25187 0.24419 0.06612 0.0
H3273 H 0.23257 0.29968 0.05592 0.0
H3274 H 0.24665 0.28426 0.05368 0.0
H3275 H 0.23675 0.25253 0.07241 0.0
H3276 H 0.27456 0.20756 0.06626 0.0
H3277 H 0.25901 0.22122 0.06295 0.0
H3278 H 0.26755 0.2528 0.04286 0.0
C3279 C 0.23782 0.282 0.05563 0.0
C3280 C 0.24329 0.25258 0.06577 0.0
C3281 C 0.22977 0.29084 0.05698 0.0
C3282 C 0.27672 0.21626 0.06369 0.0
C3283 C 0.2678 0.22411 0.06186 0.0
C3284 C 0.26086 0.25267 0.04934 0.0
C3285 C 0.23463 0.27046 0.05741 0.0
C3286 C 0.24342 0.26118 0.05726 0.0
C3287 C 0.27022 0.23557 0.05882 0.0
C3288 C 0.2608 0.24417 0.05797 0.0
H3289 H 0.20633 0.2745 0.06376 0.0
H3290 H 0.22033 0.2591 0.06127 0.0
H3291 H 0.25252 0.26752 0.04225 0.0
H3292 H 0.29947 0.23394 0.05805 0.0
H3293 H 0.28391 0.24769 0.05501 0.0
C3294 C 0.22984 0.69974 0.93501 0.0
C3295 C 0.21849 0.70217 0.93161 0.0
C3296 C 0.23776 0.70867 0.9366 0.0
C3297 C 0.24315 0.73815 0.92669 0.0
H3298 H 0.26692 0.73814 0.95012 0.0
C3299 C 0.27648 0.7745 0.92892 0.0
C3300 C 0.28799 0.77105 0.93029 0.0
C3301 C 0.26753 0.76672 0.93083 0.0
C3302 C 0.26036 0.73822 0.94349 0.0
H3303 H 0.20637 0.71587 0.92784 0.0
H3304 H 0.22015 0.73141 0.93074 0.0
H3305 H 0.25199 0.7233 0.95041 0.0
H3306 H 0.29912 0.75689 0.9352 0.0
H3307 H 0.28348 0.74324 0.93836 0.0
H3308 H 0.2516 0.75285 0.91959 0.0
C3309 C 0.22299 0.72262 0.93196 0.0
C3310 C 0.25182 0.72973 0.94367 0.0
C3311 C 0.21508 0.71371 0.93035 0.0
C3312 C 0.29034 0.7598 0.93406 0.0
C3313 C 0.28137 0.75199 0.93593 0.0
C3314 C 0.25167 0.7466 0.92651 0.0
C3315 C 0.23448 0.72019 0.93484 0.0
C3316 C 0.24317 0.72956 0.93521 0.0
C3317 C 0.26987 0.7553 0.9341 0.0
C3318 C 0.26044 0.7467 0.93485 0.0
H3319 H 0.23271 0.69094 0.93606 0.0
H3320 H 0.24657 0.7065 0.93874 0.0
H3321 H 0.23675 0.73813 0.91991 0.0
H3322 H 0.2744 0.78314 0.92612 0.0
H3323 H 0.25876 0.7696 0.92956 0.0
C3324 C 0.22995 0.29254 0.93279 0.0
C3325 C 0.21899 0.28971 0.92855 0.0
C3326 C 0.23828 0.28401 0.93431 0.0
C3327 C 0.24257 0.25241 0.93625 0.0
H3328 H 0.273 0.25964 0.92464 0.0
C3329 C 0.27651 0.21774 0.92541 0.0
C3330 C 0.28811 0.22022 0.92776 0.0
C3331 C 0.26804 0.22611 0.92706 0.0
C3332 C 0.26461 0.25752 0.9281 0.0
H3333 H 0.20803 0.27565 0.92296 0.0
H3334 H 0.2226 0.26079 0.92548 0.0
H3335 H 0.25824 0.27448 0.92486 0.0
H3336 H 0.29987 0.23326 0.9341 0.0
H3337 H 0.28507 0.24784 0.93707 0.0
H3338 H 0.24892 0.23536 0.93926 0.0
C3339 C 0.22474 0.26958 0.92775 0.0
C3340 C 0.25614 0.26604 0.92823 0.0
C3341 C 0.2164 0.27811 0.92624 0.0
C3342 C 0.29102 0.23112 0.93213 0.0
C3343 C 0.28255 0.23949 0.93378 0.0
C3344 C 0.25105 0.24387 0.93611 0.0
C3345 C 0.23584 0.27246 0.93161 0.0
C3346 C 0.24499 0.26356 0.9322 0.0
C3347 C 0.27099 0.23714 0.93109 0.0
C3348 C 0.26214 0.24632 0.93193 0.0
H3349 H 0.23218 0.30139 0.93472 0.0
H3350 H 0.2467 0.28647 0.93747 0.0
H3351 H 0.2341 0.25026 0.93951 0.0
H3352 H 0.27399 0.20942 0.92203 0.0
H3353 H 0.25923 0.22407 0.9248 0.0
C3354 C 0.71459 0.21821 0.92825 0.0
C3355 C 0.70302 0.2206 0.93079 0.0
C3356 C 0.72309 0.22652 0.93011 0.0
C3357 C 0.7263 0.25787 0.93168 0.0
H3358 H 0.75726 0.25068 0.94183 0.0
C3359 C 0.76112 0.29294 0.93449 0.0
C3360 C 0.77186 0.29004 0.92977 0.0
C3361 C 0.75287 0.28443 0.93655 0.0
C3362 C 0.74866 0.2528 0.93893 0.0
H3363 H 0.69134 0.23335 0.93782 0.0
H3364 H 0.70618 0.24783 0.94116 0.0
H3365 H 0.74249 0.2357 0.94208 0.0
H3366 H 0.78254 0.2759 0.92388 0.0
H3367 H 0.7681 0.26109 0.9273 0.0
H3368 H 0.73248 0.27485 0.92824 0.0
C3369 C 0.70867 0.2396 0.93755 0.0
C3370 C 0.74021 0.24423 0.93908 0.0
C3371 C 0.70018 0.23128 0.93569 0.0
C3372 C 0.77434 0.27842 0.92752 0.0
C3373 C 0.76608 0.26991 0.92955 0.0
C3374 C 0.73474 0.26641 0.93151 0.0
C3375 C 0.72018 0.2374 0.93456 0.0
C3376 C 0.72897 0.24664 0.93532 0.0
C3377 C 0.75518 0.27284 0.93391 0.0
C3378 C 0.74606 0.26395 0.935 0.0
H3379 H 0.71706 0.21005 0.92447 0.0
H3380 H 0.73185 0.22459 0.92762 0.0
H3381 H 0.71778 0.25996 0.92854 0.0
H3382 H 0.75899 0.30182 0.9364 0.0
H3383 H 0.74462 0.28695 0.94008 0.0
C3384 C 0.71248 0.77322 0.92936 0.0
C3385 C 0.701 0.76961 0.93061 0.0
C3386 C 0.7215 0.7654 0.9307 0.0
C3387 C 0.7291 0.73656 0.94199 0.0
H3388 H 0.75244 0.73762 0.91817 0.0
C3389 C 0.76046 0.69903 0.93284 0.0
C3390 C 0.77172 0.70173 0.92937 0.0
C3391 C 0.75232 0.70773 0.93445 0.0
C3392 C 0.74612 0.73731 0.92501 0.0
H3393 H 0.69 0.75509 0.9347 0.0
H3394 H 0.70578 0.7414 0.93694 0.0
H3395 H 0.73733 0.75207 0.91846 0.0
H3396 H 0.78344 0.71572 0.92538 0.0
H3397 H 0.76929 0.73092 0.92835 0.0
H3398 H 0.73785 0.72166 0.94843 0.0
C3399 C 0.7078 0.75029 0.93501 0.0
C3400 C 0.73744 0.7456 0.92517 0.0
C3401 C 0.69876 0.75812 0.93367 0.0
C3402 C 0.7748 0.71335 0.92797 0.0
C3403 C 0.76668 0.72205 0.92961 0.0
C3404 C 0.73781 0.72826 0.94184 0.0
C3405 C 0.71926 0.7538 0.93331 0.0
C3406 C 0.72878 0.74528 0.93361 0.0
C3407 C 0.75528 0.71934 0.93265 0.0
C3408 C 0.74638 0.72849 0.9333 0.0
H3409 H 0.7145 0.78203 0.92709 0.0
H3410 H 0.73025 0.76841 0.92953 0.0
H3411 H 0.72262 0.73617 0.94868 0.0
H3412 H 0.75782 0.69015 0.93399 0.0
H3413 H 0.7436 0.70533 0.93668 0.0
C3414 C 0.76085 0.70078 0.05586 0.0
C3415 C 0.7722 0.7031 0.05933 0.0
C3416 C 0.75302 0.70977 0.05425 0.0
C3417 C 0.74788 0.73931 0.06415 0.0
H3418 H 0.72406 0.73938 0.04078 0.0
C3419 C 0.71469 0.77578 0.06193 0.0
C3420 C 0.70317 0.77234 0.06068 0.0
C3421 C 0.72362 0.76798 0.05999 0.0
C3422 C 0.73063 0.73944 0.04738 0.0
H3423 H 0.78443 0.71668 0.06319 0.0
H3424 H 0.77081 0.73235 0.06024 0.0
H3425 H 0.7389 0.72446 0.04048 0.0
H3426 H 0.69197 0.75817 0.05593 0.0
H3427 H 0.70755 0.74449 0.0527 0.0
H3428 H 0.73954 0.75407 0.07124 0.0
C3429 C 0.76789 0.72358 0.05899 0.0
C3430 C 0.73913 0.73091 0.04721 0.0
C3431 C 0.77571 0.71461 0.06063 0.0
C3432 C 0.70077 0.76107 0.05698 0.0
C3433 C 0.7097 0.75325 0.05507 0.0
C3434 C 0.73941 0.74781 0.06433 0.0
C3435 C 0.75639 0.72126 0.05605 0.0
C3436 C 0.74779 0.7307 0.05566 0.0
C3437 C 0.72122 0.75655 0.05679 0.0
C3438 C 0.73062 0.74792 0.05602 0.0
H3439 H 0.7579 0.69199 0.05478 0.0
H3440 H 0.7442 0.70767 0.05207 0.0
H3441 H 0.75429 0.73927 0.07092 0.0
H3442 H 0.71683 0.78443 0.06467 0.0
H3443 H 0.73241 0.77084 0.06118 0.0
C3444 C 0.21628 0.71272 0.06273 0.0
C3445 C 0.21886 0.70109 0.06058 0.0
C3446 C 0.22459 0.72123 0.06102 0.0
C3447 C 0.25598 0.72483 0.06032 0.0
H3448 H 0.24855 0.75547 0.04933 0.0
C3449 C 0.29053 0.76019 0.05701 0.0
C3450 C 0.28744 0.77097 0.06155 0.0
C3451 C 0.28217 0.75175 0.05511 0.0
C3452 C 0.25074 0.74697 0.05246 0.0
H3453 H 0.23201 0.68934 0.05448 0.0
H3454 H 0.24649 0.70424 0.05137 0.0
H3455 H 0.23384 0.74045 0.04904 0.0
H3456 H 0.27313 0.7815 0.06727 0.0
H3457 H 0.25857 0.76673 0.06406 0.0
H3458 H 0.27279 0.73136 0.06395 0.0
C3459 C 0.2381 0.70674 0.05456 0.0
C3460 C 0.24232 0.73837 0.0523 0.0
C3461 C 0.22979 0.69821 0.05628 0.0
C3462 C 0.27578 0.77327 0.06377 0.0
C3463 C 0.26743 0.76483 0.06187 0.0
C3464 C 0.26439 0.73341 0.06047 0.0
C3465 C 0.23566 0.71832 0.05711 0.0
C3466 C 0.2448 0.72724 0.05636 0.0
C3467 C 0.27056 0.7539 0.0577 0.0
C3468 C 0.26183 0.74462 0.05668 0.0
H3469 H 0.20794 0.71521 0.06605 0.0
H3470 H 0.22247 0.73005 0.06318 0.0
H3471 H 0.25814 0.71641 0.0637 0.0
H3472 H 0.29943 0.75818 0.05514 0.0
H3473 H 0.28483 0.74347 0.05173 0.0
C3474 C 0.71344 0.21601 0.06099 0.0
C3475 C 0.70185 0.21929 0.05998 0.0
C3476 C 0.72222 0.22406 0.05941 0.0
C3477 C 0.72878 0.25321 0.04812 0.0
H3478 H 0.75268 0.2525 0.07139 0.0
C3479 C 0.7597 0.2913 0.05713 0.0
C3480 C 0.77108 0.28869 0.06027 0.0
C3481 C 0.75165 0.2825 0.05552 0.0
C3482 C 0.7462 0.25273 0.0647 0.0
H3483 H 0.69038 0.23347 0.05602 0.0
H3484 H 0.70572 0.24759 0.05341 0.0
H3485 H 0.73793 0.2377 0.07131 0.0
H3486 H 0.7831 0.2748 0.06362 0.0
H3487 H 0.76911 0.25946 0.06066 0.0
H3488 H 0.73701 0.26842 0.04166 0.0
C3489 C 0.70803 0.23876 0.05532 0.0
C3490 C 0.73772 0.24422 0.06465 0.0
C3491 C 0.69923 0.23069 0.05688 0.0
C3492 C 0.77437 0.27709 0.0613 0.0
C3493 C 0.76634 0.26831 0.05967 0.0
C3494 C 0.73729 0.26174 0.04816 0.0
C3495 C 0.71961 0.23559 0.05681 0.0
C3496 C 0.72888 0.24438 0.0564 0.0
C3497 C 0.75483 0.27091 0.057 0.0
C3498 C 0.74606 0.26162 0.0565 0.0
H3499 H 0.71575 0.20726 0.06327 0.0
H3500 H 0.73106 0.22129 0.06041 0.0
H3501 H 0.72215 0.2535 0.04158 0.0
H3502 H 0.75692 0.30016 0.05626 0.0
H3503 H 0.74283 0.2848 0.05356 0.0
C3504 C 0.55611 0.79017 0.72869 0.0
C3505 C 0.55973 0.78777 0.71741 0.0
C3506 C 0.55463 0.78125 0.73665 0.0
C3507 C 0.56498 0.75189 0.74222 0.0
H3508 H 0.54125 0.75154 0.76567 0.0
C3509 C 0.56215 0.71501 0.77492 0.0
C3510 C 0.56068 0.71826 0.78647 0.0
C3511 C 0.56044 0.72298 0.76609 0.0
C3512 C 0.54795 0.75156 0.7592 0.0
H3513 H 0.56401 0.77411 0.70542 0.0
H3514 H 0.56127 0.75857 0.71922 0.0
H3515 H 0.54102 0.76647 0.75083 0.0
H3516 H 0.55579 0.73226 0.79781 0.0
H3517 H 0.55294 0.74623 0.78238 0.0
H3518 H 0.57206 0.73716 0.75064 0.0
C3519 C 0.55981 0.76735 0.72201 0.0
C3520 C 0.54782 0.76011 0.75071 0.0
C3521 C 0.56132 0.77625 0.71409 0.0
C3522 C 0.55701 0.72951 0.78898 0.0
C3523 C 0.55532 0.73749 0.78014 0.0
C3524 C 0.56511 0.74337 0.75068 0.0
C3525 C 0.55671 0.76976 0.73345 0.0
C3526 C 0.55638 0.7604 0.74216 0.0
C3527 C 0.55725 0.73438 0.76861 0.0
C3528 C 0.55664 0.74313 0.75931 0.0
H3529 H 0.5548 0.79897 0.73151 0.0
H3530 H 0.55231 0.78341 0.74541 0.0
H3531 H 0.57184 0.752 0.73591 0.0
H3532 H 0.56488 0.70638 0.7727 0.0
H3533 H 0.56179 0.72025 0.75728 0.0
C3534 C 0.21272 0.56137 0.71843 0.0
C3535 C 0.20103 0.55946 0.72087 0.0
C3536 C 0.22109 0.55948 0.72685 0.0
C3537 C 0.22425 0.55888 0.75825 0.0
H3538 H 0.25476 0.54729 0.75131 0.0
C3539 C 0.25919 0.55588 0.79321 0.0
C3540 C 0.27004 0.56022 0.7901 0.0
C3541 C 0.25081 0.55383 0.78483 0.0
C3542 C 0.24628 0.55058 0.75337 0.0
H3543 H 0.189 0.55356 0.73386 0.0
H3544 H 0.20364 0.55015 0.74853 0.0
H3545 H 0.23992 0.54709 0.73642 0.0
H3546 H 0.28077 0.56541 0.77573 0.0
H3547 H 0.26612 0.56196 0.76113 0.0
H3548 H 0.23064 0.56263 0.77508 0.0
C3549 C 0.20631 0.55329 0.74016 0.0
C3550 C 0.23779 0.55047 0.74485 0.0
C3551 C 0.19793 0.55519 0.73175 0.0
C3552 C 0.27248 0.56207 0.7784 0.0
C3553 C 0.26411 0.56003 0.77002 0.0
C3554 C 0.23273 0.55899 0.76676 0.0
C3555 C 0.21796 0.55562 0.73788 0.0
C3556 C 0.22672 0.55477 0.74715 0.0
C3557 C 0.25311 0.55607 0.77316 0.0
C3558 C 0.24389 0.555 0.76437 0.0
H3559 H 0.21538 0.56466 0.71013 0.0
H3560 H 0.22997 0.56148 0.72484 0.0
H3561 H 0.21587 0.56243 0.76026 0.0
H3562 H 0.25708 0.55429 0.80215 0.0
H3563 H 0.24248 0.55063 0.7875 0.0
C3564 C 0.43468 0.20084 0.72816 0.0
C3565 C 0.43119 0.20314 0.71681 0.0
C3566 C 0.43603 0.20982 0.73606 0.0
C3567 C 0.4253 0.23903 0.74138 0.0
H3568 H 0.44873 0.23971 0.76514 0.0
C3569 C 0.42697 0.27568 0.7745 0.0
C3570 C 0.42852 0.27236 0.78602 0.0
C3571 C 0.42887 0.26783 0.7656 0.0
C3572 C 0.4421 0.23959 0.75859 0.0
H3573 H 0.42701 0.2167 0.70466 0.0
H3574 H 0.42949 0.23235 0.7184 0.0
H3575 H 0.4494 0.22483 0.75026 0.0
H3576 H 0.43368 0.25835 0.79723 0.0
H3577 H 0.43683 0.2446 0.78169 0.0
H3578 H 0.41784 0.25358 0.74978 0.0
C3579 C 0.43097 0.2236 0.72126 0.0
C3580 C 0.44249 0.23109 0.75007 0.0
C3581 C 0.42961 0.21463 0.71338 0.0
C3582 C 0.4324 0.26116 0.78844 0.0
C3583 C 0.43428 0.2533 0.77952 0.0
C3584 C 0.42491 0.24751 0.74988 0.0
C3585 C 0.43393 0.22128 0.73276 0.0
C3586 C 0.43404 0.23067 0.74143 0.0
C3587 C 0.43233 0.25649 0.76801 0.0
C3588 C 0.43325 0.24784 0.75863 0.0
H3589 H 0.43598 0.19207 0.73106 0.0
H3590 H 0.43823 0.20773 0.74487 0.0
H3591 H 0.41853 0.23883 0.73499 0.0
H3592 H 0.42408 0.28428 0.77236 0.0
H3593 H 0.42749 0.27062 0.75681 0.0
C3594 C 0.72996 0.43583 0.79144 0.0
C3595 C 0.71922 0.43104 0.78861 0.0
C3596 C 0.73822 0.43772 0.78292 0.0
C3597 C 0.74258 0.43945 0.7513 0.0
H3598 H 0.77339 0.42908 0.75882 0.0
C3599 C 0.77678 0.4282 0.71705 0.0
C3600 C 0.78835 0.43076 0.71945 0.0
C3601 C 0.76826 0.43015 0.72531 0.0
C3602 C 0.76489 0.43221 0.75662 0.0
H3603 H 0.70857 0.42489 0.77456 0.0
H3604 H 0.72304 0.42805 0.75973 0.0
H3605 H 0.75861 0.42913 0.77362 0.0
H3606 H 0.8 0.43789 0.73218 0.0
H3607 H 0.78512 0.44139 0.74656 0.0
H3608 H 0.74885 0.44225 0.73418 0.0
C3609 C 0.72504 0.43046 0.76851 0.0
C3610 C 0.75641 0.43225 0.76512 0.0
C3611 C 0.71676 0.42859 0.77702 0.0
C3612 C 0.79117 0.43574 0.7301 0.0
C3613 C 0.78266 0.43769 0.73836 0.0
C3614 C 0.75108 0.4394 0.74278 0.0
C3615 C 0.73594 0.43485 0.77139 0.0
C3616 C 0.74512 0.43573 0.76253 0.0
C3617 C 0.77114 0.43471 0.73614 0.0
C3618 C 0.7623 0.43565 0.74532 0.0
H3619 H 0.73207 0.43789 0.80028 0.0
H3620 H 0.74647 0.44129 0.7854 0.0
H3621 H 0.734 0.44233 0.74906 0.0
H3622 H 0.77433 0.42436 0.70891 0.0
H3623 H 0.7595 0.42765 0.72337 0.0
C3624 C 0.55602 0.19958 0.26055 0.0
C3625 C 0.55931 0.20208 0.27191 0.0
C3626 C 0.55445 0.20845 0.25257 0.0
C3627 C 0.56406 0.23807 0.24714 0.0
H3628 H 0.54082 0.23763 0.2232 0.0
C3629 C 0.56113 0.27453 0.21398 0.0
C3630 C 0.55998 0.27112 0.20244 0.0
C3631 C 0.55938 0.26663 0.22287 0.0
C3632 C 0.54739 0.23783 0.22981 0.0
H3633 H 0.56295 0.21585 0.28399 0.0
H3634 H 0.56007 0.23131 0.27011 0.0
H3635 H 0.54067 0.22279 0.23813 0.0
H3636 H 0.5556 0.25689 0.19117 0.0
H3637 H 0.5527 0.24305 0.2067 0.0
H3638 H 0.57094 0.25292 0.23876 0.0
C3639 C 0.55893 0.2225 0.2673 0.0
C3640 C 0.5473 0.22934 0.23835 0.0
C3641 C 0.56052 0.21364 0.27526 0.0
C3642 C 0.55657 0.25977 0.19998 0.0
C3643 C 0.55485 0.25186 0.20889 0.0
C3644 C 0.56414 0.24653 0.23863 0.0
C3645 C 0.55613 0.21999 0.2558 0.0
C3646 C 0.5557 0.22933 0.24707 0.0
C3647 C 0.55647 0.25514 0.22042 0.0
C3648 C 0.55587 0.24647 0.22981 0.0
H3649 H 0.55501 0.19075 0.25771 0.0
H3650 H 0.55239 0.20622 0.24376 0.0
H3651 H 0.57079 0.23818 0.25359 0.0
H3652 H 0.56365 0.28324 0.21616 0.0
H3653 H 0.56049 0.26949 0.23167 0.0
C3654 C 0.79163 0.55585 0.25992 0.0
C3655 C 0.78872 0.56061 0.27064 0.0
C3656 C 0.78318 0.55397 0.25158 0.0
C3657 C 0.75164 0.55194 0.24703 0.0
H3658 H 0.75915 0.56261 0.21631 0.0
C3659 C 0.71731 0.56265 0.21281 0.0
C3660 C 0.71979 0.56029 0.20121 0.0
C3661 C 0.7256 0.56082 0.22131 0.0
C3662 C 0.75696 0.55939 0.22478 0.0
H3663 H 0.7746 0.56673 0.2812 0.0
H3664 H 0.75987 0.56356 0.26662 0.0
H3665 H 0.77388 0.56272 0.23118 0.0
H3666 H 0.73271 0.55367 0.1895 0.0
H3667 H 0.74716 0.55036 0.20438 0.0
H3668 H 0.73463 0.54885 0.24065 0.0
C3669 C 0.76866 0.56117 0.26468 0.0
C3670 C 0.76541 0.55946 0.23331 0.0
C3671 C 0.77712 0.56305 0.27302 0.0
C3672 C 0.73057 0.55565 0.19835 0.0
C3673 C 0.73887 0.55381 0.20686 0.0
C3674 C 0.74318 0.55187 0.23848 0.0
C3675 C 0.77163 0.5568 0.25379 0.0
C3676 C 0.76282 0.55587 0.24457 0.0
C3677 C 0.73655 0.55658 0.21841 0.0
C3678 C 0.74571 0.55573 0.22729 0.0
H3679 H 0.80049 0.5538 0.25785 0.0
H3680 H 0.78571 0.55042 0.24334 0.0
H3681 H 0.74942 0.54898 0.25558 0.0
H3682 H 0.70907 0.56624 0.21529 0.0
H3683 H 0.72357 0.56316 0.2301 0.0
C3684 C 0.4345 0.72915 0.20051 0.0
C3685 C 0.43055 0.7179 0.20259 0.0
C3686 C 0.43611 0.73684 0.20962 0.0
C3687 C 0.42556 0.74212 0.23892 0.0
H3688 H 0.44962 0.76526 0.2396 0.0
C3689 C 0.42799 0.77539 0.2754 0.0
C3690 C 0.42963 0.78687 0.27195 0.0
C3691 C 0.42978 0.76638 0.26766 0.0
C3692 C 0.44282 0.75888 0.2395 0.0
H3693 H 0.42578 0.7057 0.2159 0.0
H3694 H 0.42873 0.71907 0.2318 0.0
H3695 H 0.44988 0.75038 0.22473 0.0
H3696 H 0.43488 0.79788 0.25782 0.0
H3697 H 0.43789 0.78215 0.24425 0.0
H3698 H 0.41835 0.7507 0.25349 0.0
C3699 C 0.43037 0.72202 0.22311 0.0
C3700 C 0.44297 0.75036 0.23099 0.0
C3701 C 0.42874 0.71434 0.21401 0.0
C3702 C 0.43353 0.78912 0.26073 0.0
C3703 C 0.43532 0.7801 0.25298 0.0
C3704 C 0.42541 0.75061 0.24741 0.0
C3705 C 0.43382 0.73343 0.22101 0.0
C3706 C 0.43426 0.74196 0.23053 0.0
C3707 C 0.43325 0.76864 0.25629 0.0
C3708 C 0.43397 0.75917 0.24773 0.0
H3709 H 0.43599 0.73214 0.19181 0.0
H3710 H 0.43867 0.74559 0.20769 0.0
H3711 H 0.4186 0.73592 0.2387 0.0
H3712 H 0.42507 0.77337 0.28402 0.0
H3713 H 0.4283 0.75763 0.27053 0.0
C3714 C 0.25978 0.43255 0.19933 0.0
C3715 C 0.27114 0.42927 0.20185 0.0
C3716 C 0.2518 0.43414 0.20819 0.0
C3717 C 0.24636 0.42475 0.23787 0.0
H3718 H 0.22259 0.44817 0.23734 0.0
C3719 C 0.21356 0.42844 0.27455 0.0
C3720 C 0.20199 0.42965 0.27125 0.0
C3721 C 0.22238 0.42998 0.26654 0.0
C3722 C 0.22915 0.44155 0.23756 0.0
H3723 H 0.2832 0.42565 0.21564 0.0
H3724 H 0.26933 0.42858 0.23107 0.0
H3725 H 0.23744 0.44807 0.22243 0.0
H3726 H 0.19062 0.4339 0.25707 0.0
H3727 H 0.20603 0.43645 0.24304 0.0
H3728 H 0.23802 0.41808 0.25282 0.0
C3729 C 0.26652 0.4297 0.22225 0.0
C3730 C 0.23764 0.44149 0.22904 0.0
C3731 C 0.27448 0.42808 0.21341 0.0
C3732 C 0.19945 0.43289 0.25988 0.0
C3733 C 0.20829 0.43441 0.25185 0.0
C3734 C 0.2379 0.42481 0.24637 0.0
C3735 C 0.25503 0.43251 0.21973 0.0
C3736 C 0.24631 0.43304 0.22906 0.0
C3737 C 0.21984 0.43274 0.25504 0.0
C3738 C 0.22914 0.43316 0.24629 0.0
H3739 H 0.25695 0.43354 0.1905 0.0
H3740 H 0.24299 0.43622 0.20595 0.0
H3741 H 0.25277 0.41798 0.23802 0.0
H3742 H 0.2158 0.42604 0.28327 0.0
H3743 H 0.2312 0.42884 0.26933 0.0
C3744 C 0.71709 0.56162 0.77763 0.0
C3745 C 0.71967 0.55951 0.78925 0.0
C3746 C 0.72536 0.55976 0.76911 0.0
C3747 C 0.75672 0.55873 0.76548 0.0
H3748 H 0.74911 0.54784 0.73486 0.0
C3749 C 0.79111 0.5556 0.73003 0.0
C3750 C 0.78798 0.56028 0.71932 0.0
C3751 C 0.78279 0.55357 0.73846 0.0
C3752 C 0.75135 0.55093 0.74336 0.0
H3753 H 0.73276 0.55328 0.80101 0.0
H3754 H 0.74717 0.5499 0.78611 0.0
H3755 H 0.73445 0.54763 0.74991 0.0
H3756 H 0.77361 0.56606 0.7089 0.0
H3757 H 0.75911 0.56261 0.72365 0.0
H3758 H 0.77353 0.56227 0.75891 0.0
C3759 C 0.73881 0.55319 0.7836 0.0
C3760 C 0.74296 0.55081 0.75198 0.0
C3761 C 0.73054 0.55507 0.79213 0.0
C3762 C 0.7763 0.56246 0.71706 0.0
C3763 C 0.76798 0.56042 0.7255 0.0
C3764 C 0.7651 0.55883 0.75688 0.0
C3765 C 0.73639 0.55572 0.77202 0.0
C3766 C 0.74551 0.55486 0.7631 0.0
C3767 C 0.77116 0.55615 0.73637 0.0
C3768 C 0.76248 0.55509 0.74568 0.0
H3769 H 0.70879 0.56504 0.77513 0.0
H3770 H 0.72324 0.56191 0.76029 0.0
H3771 H 0.75893 0.56209 0.77389 0.0
H3772 H 0.80003 0.55375 0.732 0.0
H3773 H 0.78548 0.55011 0.74669 0.0
C3774 C 0.42756 0.77632 0.7164 0.0
C3775 C 0.43004 0.78792 0.71878 0.0
C3776 C 0.42944 0.76785 0.72473 0.0
C3777 C 0.43115 0.76452 0.75607 0.0
H3778 H 0.44163 0.73371 0.74863 0.0
C3779 C 0.43469 0.7294 0.79086 0.0
C3780 C 0.43007 0.71862 0.7879 0.0
C3781 C 0.43655 0.73777 0.78241 0.0
C3782 C 0.43864 0.74226 0.75083 0.0
H3783 H 0.43688 0.79968 0.73157 0.0
H3784 H 0.44024 0.78487 0.74608 0.0
H3785 H 0.44162 0.74858 0.73377 0.0
H3786 H 0.42416 0.708 0.77373 0.0
H3787 H 0.42725 0.72263 0.75903 0.0
H3788 H 0.4279 0.75818 0.77303 0.0
C3789 C 0.43669 0.78235 0.73783 0.0
C3790 C 0.43864 0.75077 0.74232 0.0
C3791 C 0.43482 0.79082 0.7295 0.0
C3792 C 0.42772 0.71623 0.77628 0.0
C3793 C 0.42956 0.7246 0.76784 0.0
C3794 C 0.43114 0.75602 0.76457 0.0
C3795 C 0.43383 0.77079 0.73561 0.0
C3796 C 0.43475 0.76196 0.74481 0.0
C3797 C 0.43382 0.73553 0.77084 0.0
C3798 C 0.43474 0.74475 0.76201 0.0
H3799 H 0.42387 0.77381 0.70822 0.0
H3800 H 0.42703 0.75905 0.72278 0.0
H3801 H 0.42792 0.77299 0.75824 0.0
H3802 H 0.43667 0.73148 0.79973 0.0
H3803 H 0.44 0.74605 0.78497 0.0
C3804 C 0.27276 0.42916 0.777 0.0
C3805 C 0.27026 0.43115 0.78866 0.0
C3806 C 0.26439 0.431 0.76856 0.0
C3807 C 0.233 0.43167 0.7652 0.0
H3808 H 0.24003 0.44364 0.73485 0.0
C3809 C 0.19797 0.43562 0.73047 0.0
C3810 C 0.20097 0.43156 0.71949 0.0
C3811 C 0.20642 0.43739 0.73884 0.0
C3812 C 0.23795 0.44023 0.74327 0.0
H3813 H 0.25719 0.43711 0.80058 0.0
H3814 H 0.24262 0.44042 0.78584 0.0
H3815 H 0.25493 0.44351 0.74969 0.0
H3816 H 0.21523 0.42658 0.70853 0.0
H3817 H 0.22995 0.42952 0.72316 0.0
H3818 H 0.21615 0.42813 0.75877 0.0
C3819 C 0.25099 0.43726 0.78324 0.0
C3820 C 0.24648 0.44016 0.75177 0.0
C3821 C 0.25936 0.43542 0.79167 0.0
C3822 C 0.21264 0.42972 0.71691 0.0
C3823 C 0.22109 0.43146 0.72529 0.0
C3824 C 0.2245 0.43173 0.75672 0.0
C3825 C 0.25334 0.43488 0.77161 0.0
C3826 C 0.24413 0.43576 0.76279 0.0
C3827 C 0.21805 0.43512 0.73641 0.0
C3828 C 0.2269 0.43589 0.74562 0.0
H3829 H 0.28108 0.42586 0.7744 0.0
H3830 H 0.26644 0.42897 0.7597 0.0
H3831 H 0.23096 0.42804 0.77354 0.0
H3832 H 0.18905 0.4372 0.73269 0.0
H3833 H 0.20382 0.4404 0.74727 0.0
C3834 C 0.55788 0.26071 0.79027 0.0
C3835 C 0.56124 0.27207 0.7878 0.0
C3836 C 0.55632 0.25275 0.78138 0.0
C3837 C 0.5659 0.24734 0.75175 0.0
H3838 H 0.54218 0.22385 0.75187 0.0
C3839 C 0.56211 0.21494 0.71472 0.0
C3840 C 0.56067 0.20336 0.71789 0.0
C3841 C 0.56062 0.22371 0.7228 0.0
C3842 C 0.54888 0.23033 0.75176 0.0
H3843 H 0.56503 0.28415 0.77407 0.0
H3844 H 0.56217 0.27032 0.75859 0.0
H3845 H 0.54235 0.23858 0.76691 0.0
H3846 H 0.55606 0.1919 0.73189 0.0
H3847 H 0.55362 0.2072 0.74606 0.0
H3848 H 0.57259 0.23904 0.73679 0.0
C3849 C 0.56096 0.26749 0.76739 0.0
C3850 C 0.54898 0.23875 0.76037 0.0
C3851 C 0.56255 0.27543 0.77626 0.0
C3852 C 0.55725 0.20075 0.72919 0.0
C3853 C 0.55579 0.20952 0.7373 0.0
C3854 C 0.56581 0.23895 0.74318 0.0
C3855 C 0.55806 0.256 0.76985 0.0
C3856 C 0.55753 0.24732 0.76048 0.0
C3857 C 0.55769 0.22109 0.73425 0.0
C3858 C 0.55734 0.2303 0.7431 0.0
H3859 H 0.5568 0.25788 0.79908 0.0
H3860 H 0.55417 0.24395 0.78357 0.0
H3861 H 0.57275 0.25368 0.75172 0.0
H3862 H 0.56465 0.21724 0.70605 0.0
H3863 H 0.56194 0.23254 0.72013 0.0
C3864 C 0.79082 0.43489 0.26052 0.0
C3865 C 0.78809 0.42976 0.27112 0.0
C3866 C 0.78225 0.4369 0.25233 0.0
C3867 C 0.75061 0.43843 0.24812 0.0
H3868 H 0.75808 0.42892 0.21703 0.0
C3869 C 0.71629 0.42792 0.21375 0.0
C3870 C 0.71868 0.43069 0.20222 0.0
C3871 C 0.72456 0.42973 0.22229 0.0
C3872 C 0.75589 0.43182 0.22561 0.0
H3873 H 0.77417 0.42312 0.28164 0.0
H3874 H 0.75924 0.42649 0.2673 0.0
H3875 H 0.77293 0.42868 0.23175 0.0
H3876 H 0.73136 0.43807 0.19069 0.0
H3877 H 0.74575 0.44134 0.20562 0.0
H3878 H 0.73347 0.44131 0.24198 0.0
C3879 C 0.76798 0.42907 0.26535 0.0
C3880 C 0.76442 0.43168 0.23406 0.0
C3881 C 0.77655 0.42708 0.27354 0.0
C3882 C 0.72931 0.43575 0.19948 0.0
C3883 C 0.73757 0.43758 0.20802 0.0
C3884 C 0.74207 0.43857 0.23965 0.0
C3885 C 0.77076 0.43381 0.25456 0.0
C3886 C 0.76185 0.43485 0.24545 0.0
C3887 C 0.73538 0.43437 0.21948 0.0
C3888 C 0.74459 0.43513 0.22832 0.0
H3889 H 0.79962 0.43714 0.25844 0.0
H3890 H 0.78464 0.44073 0.24418 0.0
H3891 H 0.7484 0.44107 0.25678 0.0
H3892 H 0.70817 0.424 0.21613 0.0
H3893 H 0.72264 0.42706 0.23101 0.0
C3894 C 0.5556 0.79284 0.26007 0.0
C3895 C 0.55953 0.78979 0.27109 0.0
C3896 C 0.55408 0.78444 0.2516 0.0
C3897 C 0.55169 0.75292 0.2469 0.0
H3898 H 0.5648 0.76009 0.21706 0.0
C3899 C 0.56428 0.71812 0.21387 0.0
C3900 C 0.56258 0.72044 0.20213 0.0
C3901 C 0.56216 0.72659 0.22213 0.0
C3902 C 0.56091 0.758 0.22527 0.0
H3903 H 0.56452 0.7755 0.28202 0.0
H3904 H 0.56199 0.76086 0.26722 0.0
H3905 H 0.56401 0.77491 0.23183 0.0
H3906 H 0.55696 0.73334 0.18986 0.0
H3907 H 0.55318 0.74812 0.20431 0.0
H3908 H 0.54884 0.73591 0.24038 0.0
C3909 C 0.55997 0.76972 0.26514 0.0
C3910 C 0.56046 0.76651 0.23374 0.0
C3911 C 0.56148 0.77812 0.2736 0.0
C3912 C 0.55842 0.73131 0.19884 0.0
C3913 C 0.5563 0.73979 0.20711 0.0
C3914 C 0.55215 0.74441 0.23841 0.0
C3915 C 0.55646 0.77281 0.25398 0.0
C3916 C 0.55599 0.76402 0.24471 0.0
C3917 C 0.55829 0.73757 0.21883 0.0
C3918 C 0.55691 0.74681 0.22755 0.0
H3919 H 0.55394 0.80176 0.25789 0.0
H3920 H 0.5512 0.78707 0.24313 0.0
H3921 H 0.54805 0.75079 0.25521 0.0
H3922 H 0.56749 0.70983 0.21669 0.0
H3923 H 0.56392 0.72464 0.23108 0.0
C3924 C 0.27372 0.56298 0.21333 0.0
C3925 C 0.27129 0.56039 0.20177 0.0
C3926 C 0.26547 0.56109 0.22187 0.0
C3927 C 0.23412 0.55897 0.22527 0.0
H3928 H 0.24171 0.54906 0.25623 0.0
C3929 C 0.19924 0.55498 0.26007 0.0
C3930 C 0.20193 0.55994 0.27075 0.0
C3931 C 0.20783 0.55313 0.25187 0.0
C3932 C 0.23947 0.55188 0.24763 0.0
H3933 H 0.25851 0.55328 0.19017 0.0
H3934 H 0.24416 0.54986 0.20509 0.0
H3935 H 0.25662 0.54921 0.2414 0.0
H3936 H 0.21581 0.56642 0.28143 0.0
H3937 H 0.23078 0.56333 0.26707 0.0
H3938 H 0.21708 0.56188 0.2315 0.0
C3939 C 0.25236 0.55355 0.20753 0.0
C3940 C 0.24801 0.55197 0.23914 0.0
C3941 C 0.26061 0.55545 0.19899 0.0
C3942 C 0.21346 0.56259 0.27326 0.0
C3943 C 0.22205 0.56076 0.26505 0.0
C3944 C 0.22561 0.55887 0.23374 0.0
C3945 C 0.25461 0.55655 0.21903 0.0
C3946 C 0.24545 0.55563 0.2279 0.0
C3947 C 0.2193 0.55623 0.25418 0.0
C3948 C 0.22821 0.55545 0.24505 0.0
H3949 H 0.28188 0.56679 0.21575 0.0
H3950 H 0.26744 0.56361 0.23063 0.0
H3951 H 0.2319 0.56204 0.21676 0.0
H3952 H 0.19044 0.55276 0.25792 0.0
H3953 H 0.20546 0.54945 0.24364 0.0
C3954 C 0.43434 0.19963 0.26055 0.0
C3955 C 0.42976 0.20259 0.27134 0.0
C3956 C 0.43635 0.20811 0.25225 0.0
C3957 C 0.43903 0.23967 0.24793 0.0
H3958 H 0.42806 0.2326 0.21721 0.0
C3959 C 0.42878 0.27445 0.21393 0.0
C3960 C 0.43106 0.27197 0.20231 0.0
C3961 C 0.4305 0.26608 0.2224 0.0
C3962 C 0.43137 0.23466 0.22568 0.0
H3963 H 0.42408 0.21679 0.28205 0.0
H3964 H 0.42746 0.23155 0.26754 0.0
H3965 H 0.42775 0.21775 0.23196 0.0
H3966 H 0.43746 0.25898 0.19054 0.0
H3967 H 0.44057 0.24442 0.20534 0.0
H3968 H 0.4424 0.25669 0.24166 0.0
C3969 C 0.42962 0.22271 0.26551 0.0
C3970 C 0.43119 0.22614 0.23415 0.0
C3971 C 0.42762 0.21423 0.27381 0.0
C3972 C 0.43553 0.26112 0.1994 0.0
C3973 C 0.43726 0.25276 0.20787 0.0
C3974 C 0.43921 0.24821 0.23944 0.0
C3975 C 0.43382 0.21972 0.25457 0.0
C3976 C 0.43489 0.22858 0.24541 0.0
C3977 C 0.43456 0.25507 0.21944 0.0
C3978 C 0.43525 0.24583 0.22826 0.0
H3979 H 0.43615 0.19074 0.25841 0.0
H3980 H 0.43976 0.20554 0.24396 0.0
H3981 H 0.44209 0.24177 0.25648 0.0
H3982 H 0.42533 0.28273 0.21645 0.0
H3983 H 0.42822 0.26811 0.2312 0.0
C3984 C 0.77655 0.7175 0.56149 0.0
C3985 C 0.78822 0.71988 0.55937 0.0
C3986 C 0.76816 0.72585 0.55943 0.0
C3987 C 0.765 0.75725 0.55775 0.0
H3988 H 0.73431 0.74986 0.54691 0.0
C3989 C 0.73005 0.79209 0.55401 0.0
C3990 C 0.71932 0.78918 0.55877 0.0
C3991 C 0.73835 0.78362 0.55206 0.0
C3992 C 0.74284 0.75204 0.54998 0.0
H3993 H 0.80018 0.73269 0.55294 0.0
H3994 H 0.7855 0.74724 0.54922 0.0
H3995 H 0.74915 0.73497 0.54704 0.0
H3996 H 0.7087 0.77503 0.56475 0.0
H3997 H 0.72322 0.76027 0.56146 0.0
H3998 H 0.75866 0.77422 0.56094 0.0
C3999 C 0.78287 0.73898 0.55266 0.0
C4000 C 0.75133 0.74352 0.55006 0.0
C4001 C 0.79127 0.73063 0.55474 0.0
C4002 C 0.7169 0.77756 0.56109 0.0
C4003 C 0.7252 0.76908 0.55914 0.0
C4004 C 0.75652 0.76576 0.55766 0.0
C4005 C 0.77124 0.73676 0.55519 0.0
C4006 C 0.76246 0.74599 0.55411 0.0
C4007 C 0.7361 0.77205 0.55482 0.0
C4008 C 0.7453 0.76322 0.55393 0.0
H4009 H 0.77393 0.70929 0.56506 0.0
H4010 H 0.75931 0.72389 0.56159 0.0
H4011 H 0.77342 0.7594 0.56111 0.0
H4012 H 0.73215 0.80097 0.55205 0.0
H4013 H 0.74661 0.78615 0.54856 0.0
C4014 C 0.77674 0.27299 0.42751 0.0
C4015 C 0.78835 0.27044 0.42969 0.0
C4016 C 0.76824 0.26466 0.42924 0.0
C4017 C 0.76473 0.23324 0.43003 0.0
H4018 H 0.73415 0.24054 0.44119 0.0
C4019 C 0.72974 0.19841 0.43377 0.0
C4020 C 0.71888 0.20138 0.42935 0.0
C4021 C 0.73811 0.20686 0.43556 0.0
C4022 C 0.74264 0.23839 0.43801 0.0
H4023 H 0.80012 0.25734 0.43587 0.0
H4024 H 0.78527 0.24282 0.439 0.0
H4025 H 0.74907 0.25536 0.44129 0.0
H4026 H 0.70814 0.21559 0.42375 0.0
H4027 H 0.72279 0.23031 0.42676 0.0
H4028 H 0.75829 0.21637 0.42652 0.0
C4029 C 0.78275 0.2512 0.43577 0.0
C4030 C 0.75118 0.24687 0.43807 0.0
C4031 C 0.79125 0.25953 0.43404 0.0
C4032 C 0.71643 0.21302 0.42716 0.0
C4033 C 0.72481 0.22147 0.42894 0.0
C4034 C 0.75621 0.22478 0.42997 0.0
C4035 C 0.77118 0.2536 0.43319 0.0
C4036 C 0.76229 0.24443 0.43396 0.0
C4037 C 0.73581 0.21846 0.43298 0.0
C4038 C 0.74503 0.22728 0.43384 0.0
H4039 H 0.77423 0.28132 0.42415 0.0
H4040 H 0.75943 0.26675 0.42705 0.0
H4041 H 0.77314 0.23112 0.42662 0.0
H4042 H 0.73186 0.18952 0.43562 0.0
H4043 H 0.74644 0.20428 0.43885 0.0
C4044 C 0.78988 0.73022 0.43288 0.0
C4045 C 0.7875 0.71895 0.42916 0.0
C4046 C 0.78094 0.7381 0.43454 0.0
C4047 C 0.75147 0.74373 0.42466 0.0
H4048 H 0.75137 0.76672 0.44886 0.0
C4049 C 0.7148 0.77655 0.42827 0.0
C4050 C 0.71813 0.78806 0.4299 0.0
C4051 C 0.7227 0.76763 0.42984 0.0
C4052 C 0.75132 0.76038 0.44203 0.0
H4053 H 0.77387 0.70695 0.42481 0.0
H4054 H 0.75829 0.72065 0.42785 0.0
H4055 H 0.76629 0.75188 0.44864 0.0
H4056 H 0.73222 0.79923 0.43496 0.0
H4057 H 0.74606 0.78365 0.43755 0.0
H4058 H 0.73668 0.75229 0.41789 0.0
C4059 C 0.76707 0.72346 0.42927 0.0
C4060 C 0.75985 0.75189 0.4419 0.0
C4061 C 0.77599 0.71559 0.42758 0.0
C4062 C 0.72939 0.79044 0.43362 0.0
C4063 C 0.73731 0.78151 0.43516 0.0
C4064 C 0.74295 0.75219 0.42479 0.0
C4065 C 0.76945 0.73487 0.43254 0.0
C4066 C 0.76006 0.74352 0.43316 0.0
C4067 C 0.73411 0.77002 0.43304 0.0
C4068 C 0.74282 0.76066 0.43342 0.0
H4069 H 0.79866 0.73306 0.43418 0.0
H4070 H 0.78308 0.74685 0.43697 0.0
H4071 H 0.7515 0.73755 0.41768 0.0
H4072 H 0.70615 0.77443 0.42551 0.0
H4073 H 0.7199 0.75886 0.42835 0.0
C4074 C 0.21336 0.71786 0.42705 0.0
C4075 C 0.2018 0.72032 0.42957 0.0
C4076 C 0.22189 0.72616 0.42881 0.0
C4077 C 0.22538 0.75753 0.43034 0.0
H4078 H 0.25615 0.75003 0.44083 0.0
C4079 C 0.26039 0.79234 0.43419 0.0
C4080 C 0.27121 0.78945 0.42963 0.0
C4081 C 0.25204 0.78386 0.43592 0.0
C4082 C 0.24761 0.75224 0.43783 0.0
H4083 H 0.19016 0.73322 0.43639 0.0
H4084 H 0.20506 0.74768 0.43956 0.0
H4085 H 0.24126 0.73518 0.44082 0.0
H4086 H 0.2819 0.77535 0.4237 0.0
H4087 H 0.2673 0.76057 0.42659 0.0
H4088 H 0.23173 0.77449 0.4271 0.0
C4089 C 0.20751 0.7394 0.43605 0.0
C4090 C 0.23909 0.74374 0.43783 0.0
C4091 C 0.19899 0.7311 0.43429 0.0
C4092 C 0.27365 0.77785 0.42722 0.0
C4093 C 0.2653 0.76936 0.42895 0.0
C4094 C 0.23389 0.76601 0.43033 0.0
C4095 C 0.21903 0.7371 0.43314 0.0
C4096 C 0.2279 0.74626 0.43396 0.0
C4097 C 0.25433 0.7723 0.43314 0.0
C4098 C 0.24514 0.76345 0.43396 0.0
H4099 H 0.2158 0.70963 0.4234 0.0
H4100 H 0.23065 0.72415 0.42637 0.0
H4101 H 0.21691 0.75971 0.42711 0.0
H4102 H 0.25828 0.8012 0.4362 0.0
H4103 H 0.24375 0.78637 0.43934 0.0
C4104 C 0.25997 0.19879 0.43506 0.0
C4105 C 0.27075 0.20178 0.43048 0.0
C4106 C 0.25161 0.20722 0.43698 0.0
C4107 C 0.24709 0.2388 0.43929 0.0
H4108 H 0.21642 0.23139 0.42842 0.0
C4109 C 0.213 0.27321 0.42829 0.0
C4110 C 0.2014 0.27077 0.43068 0.0
C4111 C 0.22149 0.26491 0.43017 0.0
C4112 C 0.22488 0.23355 0.43169 0.0
H4113 H 0.28137 0.21601 0.42471 0.0
H4114 H 0.26676 0.23069 0.42791 0.0
H4115 H 0.23125 0.21662 0.42835 0.0
H4116 H 0.18967 0.2579 0.43741 0.0
H4117 H 0.20451 0.24344 0.44079 0.0
H4118 H 0.24074 0.25584 0.44236 0.0
C4119 C 0.26479 0.22186 0.43015 0.0
C4120 C 0.23339 0.22508 0.43165 0.0
C4121 C 0.27315 0.21343 0.42825 0.0
C4122 C 0.19852 0.26002 0.4354 0.0
C4123 C 0.20701 0.25171 0.43728 0.0
C4124 C 0.23857 0.24729 0.43932 0.0
C4125 C 0.25386 0.21882 0.43435 0.0
C4126 C 0.24464 0.22763 0.43531 0.0
C4127 C 0.21856 0.25399 0.43449 0.0
C4128 C 0.22741 0.2448 0.43538 0.0
H4129 H 0.25789 0.18989 0.43695 0.0
H4130 H 0.24334 0.20463 0.4404 0.0
H4131 H 0.25563 0.241 0.44232 0.0
H4132 H 0.2155 0.28143 0.42464 0.0
H4133 H 0.23029 0.2669 0.42782 0.0
C4134 C 0.21388 0.27341 0.56175 0.0
C4135 C 0.20229 0.27112 0.55916 0.0
C4136 C 0.22232 0.26508 0.55978 0.0
C4137 C 0.22536 0.23375 0.5578 0.0
H4138 H 0.25642 0.24098 0.54797 0.0
C4139 C 0.26017 0.19866 0.55503 0.0
C4140 C 0.27087 0.20152 0.55987 0.0
C4141 C 0.25195 0.20719 0.55296 0.0
C4142 C 0.2478 0.23884 0.55078 0.0
H4143 H 0.19054 0.25855 0.55192 0.0
H4144 H 0.2053 0.24403 0.54839 0.0
H4145 H 0.24169 0.25598 0.54775 0.0
H4146 H 0.28151 0.2156 0.56597 0.0
H4147 H 0.26712 0.23045 0.56251 0.0
H4148 H 0.23148 0.21673 0.56113 0.0
C4149 C 0.20783 0.2522 0.55212 0.0
C4150 C 0.23937 0.24743 0.55064 0.0
C4151 C 0.19939 0.26053 0.55409 0.0
C4152 C 0.27334 0.21313 0.56223 0.0
C4153 C 0.26511 0.22165 0.56018 0.0
C4154 C 0.23378 0.22519 0.55795 0.0
C4155 C 0.21935 0.25429 0.55516 0.0
C4156 C 0.22809 0.24501 0.5543 0.0
C4157 C 0.25425 0.21876 0.5557 0.0
C4158 C 0.24514 0.22766 0.55459 0.0
H4159 H 0.2164 0.28149 0.56566 0.0
H4160 H 0.2311 0.26692 0.56232 0.0
H4161 H 0.21682 0.23165 0.56086 0.0
H4162 H 0.25804 0.1898 0.55304 0.0
H4163 H 0.24373 0.2047 0.54933 0.0
C4164 C 0.79039 0.26068 0.55627 0.0
C4165 C 0.78785 0.27203 0.55961 0.0
C4166 C 0.78154 0.25269 0.55461 0.0
C4167 C 0.75189 0.24718 0.564 0.0
H4168 H 0.75252 0.22332 0.54067 0.0
C4169 C 0.7155 0.21398 0.56063 0.0
C4170 C 0.71893 0.20244 0.55948 0.0
C4171 C 0.7234 0.22289 0.55899 0.0
C4172 C 0.75226 0.2299 0.54726 0.0
H4173 H 0.77405 0.28407 0.56323 0.0
H4174 H 0.75864 0.27018 0.56017 0.0
H4175 H 0.76732 0.23828 0.54068 0.0
H4176 H 0.73319 0.19119 0.55521 0.0
H4177 H 0.74704 0.20675 0.55248 0.0
H4178 H 0.73702 0.23873 0.57074 0.0
C4179 C 0.76746 0.26739 0.55907 0.0
C4180 C 0.76073 0.23846 0.54727 0.0
C4181 C 0.77629 0.27536 0.56076 0.0
C4182 C 0.7303 0.2 0.55618 0.0
C4183 C 0.73822 0.20892 0.55455 0.0
C4184 C 0.74345 0.23864 0.56399 0.0
C4185 C 0.76999 0.2559 0.55623 0.0
C4186 C 0.76068 0.24715 0.5557 0.0
C4187 C 0.73491 0.22045 0.55618 0.0
C4188 C 0.74357 0.22985 0.55568 0.0
H4189 H 0.79922 0.25786 0.55531 0.0
H4190 H 0.78379 0.24389 0.55251 0.0
H4191 H 0.75173 0.2536 0.57076 0.0
H4192 H 0.70677 0.21614 0.56308 0.0
H4193 H 0.72053 0.23169 0.56009 0.0
C4194 C 0.2599 0.79149 0.55585 0.0
C4195 C 0.27066 0.78869 0.56061 0.0
C4196 C 0.25166 0.78293 0.55396 0.0
C4197 C 0.24755 0.75128 0.55205 0.0
H4198 H 0.21668 0.75842 0.56251 0.0
C4199 C 0.21379 0.71657 0.56319 0.0
C4200 C 0.20218 0.71883 0.56066 0.0
C4201 C 0.22219 0.72496 0.56126 0.0
C4202 C 0.2252 0.75633 0.55936 0.0
H4203 H 0.28137 0.77468 0.56674 0.0
H4204 H 0.26696 0.75978 0.56358 0.0
H4205 H 0.23132 0.77338 0.56254 0.0
H4206 H 0.19035 0.73145 0.55364 0.0
H4207 H 0.20505 0.74606 0.55019 0.0
H4208 H 0.24144 0.73412 0.54914 0.0
C4209 C 0.26492 0.76856 0.56119 0.0
C4210 C 0.2336 0.76492 0.55937 0.0
C4211 C 0.27316 0.77711 0.56306 0.0
C4212 C 0.19921 0.72948 0.55575 0.0
C4213 C 0.20762 0.73787 0.55383 0.0
C4214 C 0.23913 0.74267 0.55205 0.0
C4215 C 0.25401 0.7714 0.5568 0.0
C4216 C 0.24491 0.76246 0.55585 0.0
C4217 C 0.21917 0.73578 0.55676 0.0
C4218 C 0.2279 0.74507 0.55584 0.0
H4219 H 0.25775 0.80033 0.5538 0.0
H4220 H 0.2434 0.78537 0.55041 0.0
H4221 H 0.25614 0.74916 0.54914 0.0
H4222 H 0.21635 0.70844 0.56697 0.0
H4223 H 0.23099 0.72311 0.56372 0.0
C4224 C 0.03724 0.1891 0.34451 0.0
C4225 C 0.04103 0.18322 0.33465 0.0
C4226 C 0.02625 0.18704 0.34896 0.0
C4227 C 0.00022 0.16833 0.34604 0.0
H4228 H 0.98397 0.19739 0.34808 0.0
C4229 C 0.95471 0.17514 0.32937 0.0
C4230 C 0.94774 0.18383 0.33405 0.0
C4231 C 0.96558 0.17294 0.33395 0.0
C4232 C 0.98833 0.18916 0.34788 0.0
H4233 H 0.03671 0.16988 0.32232 0.0
H4234 H 0.01756 0.16643 0.32992 0.0
H4235 H 0.0048 0.19726 0.34821 0.0
H4236 H 0.94625 0.19632 0.34784 0.0
H4237 H 0.96527 0.19244 0.35589 0.0
H4238 H 0.98364 0.16032 0.345 0.0
C4239 C 0.02304 0.17256 0.33432 0.0
C4240 C 0.00033 0.18908 0.34795 0.0
C4241 C 0.034 0.17462 0.32988 0.0
C4242 C 0.95148 0.18965 0.34397 0.0
C4243 C 0.96238 0.18745 0.34856 0.0
C4244 C 0.98819 0.1684 0.34597 0.0
C4245 C 0.01886 0.17907 0.34364 0.0
C4246 C 0.00641 0.17872 0.3465 0.0
C4247 C 0.96972 0.17938 0.34333 0.0
C4248 C 0.98213 0.17887 0.34635 0.0
H4249 H 0.04251 0.19571 0.34845 0.0
H4250 H 0.02334 0.19207 0.35625 0.0
H4251 H 0.00467 0.16018 0.34514 0.0
H4252 H 0.95204 0.17044 0.32177 0.0
H4253 H 0.97103 0.16674 0.32962 0.0
C4254 C 0.8023 0.95554 0.34137 0.0
C4255 C 0.80944 0.94908 0.33407 0.0
C4256 C 0.80544 0.96669 0.34461 0.0
C4257 C 0.82198 0.99024 0.3321 0.0
H4258 H 0.81116 0.00697 0.35886 0.0
C4259 C 0.81998 0.03892 0.33023 0.0
C4260 C 0.80917 0.04336 0.33328 0.0
C4261 C 0.82326 0.02792 0.33378 0.0
C4262 C 0.81428 0.00241 0.35135 0.0
H4263 H 0.82601 0.94865 0.32552 0.0
H4264 H 0.83164 0.96797 0.33145 0.0
H4265 H 0.81121 0.9859 0.35904 0.0
H4266 H 0.79371 0.0402 0.34322 0.0
H4267 H 0.79921 0.02085 0.34908 0.0
H4268 H 0.82449 0.00655 0.32414 0.0
C4269 C 0.82345 0.9646 0.33436 0.0
C4270 C 0.81431 0.99035 0.35146 0.0
C4271 C 0.82024 0.95352 0.33099 0.0
C4272 C 0.80209 0.03698 0.34071 0.0
C4273 C 0.80529 0.0259 0.34413 0.0
C4274 C 0.82195 0.00223 0.33199 0.0
C4275 C 0.81583 0.97153 0.34071 0.0
C4276 C 0.81783 0.98414 0.34168 0.0
C4277 C 0.81569 0.02105 0.34028 0.0
C4278 C 0.81776 0.00847 0.34147 0.0
H4279 H 0.79393 0.95231 0.34391 0.0
H4280 H 0.79932 0.97179 0.34946 0.0
H4281 H 0.82454 0.9858 0.32432 0.0
H4282 H 0.82571 0.04374 0.32466 0.0
H4283 H 0.83146 0.02455 0.3309 0.0
C4284 C 0.95549 0.81622 0.32885 0.0
C4285 C 0.94856 0.80757 0.33368 0.0
C4286 C 0.96642 0.81845 0.33328 0.0
C4287 C 0.98932 0.80242 0.3472 0.0
H4288 H 0.0056 0.83138 0.3439 0.0
C4289 C 0.03816 0.80248 0.34342 0.0
C4290 C 0.04185 0.80816 0.3334 0.0
C4291 C 0.02723 0.80463 0.34796 0.0
C4292 C 0.00116 0.82324 0.34496 0.0
H4293 H 0.94722 0.79518 0.34759 0.0
H4294 H 0.96634 0.79914 0.35539 0.0
H4295 H 0.98457 0.83121 0.34396 0.0
H4296 H 0.0374 0.82126 0.32086 0.0
H4297 H 0.01835 0.82487 0.32862 0.0
H4298 H 0.0058 0.79435 0.34751 0.0
C4299 C 0.96337 0.80406 0.34805 0.0
C4300 C 0.98913 0.82314 0.345 0.0
C4301 C 0.95242 0.80181 0.34359 0.0
C4302 C 0.03478 0.81668 0.32855 0.0
C4303 C 0.02387 0.81883 0.33307 0.0
C4304 C 0.00132 0.80252 0.34718 0.0
C4305 C 0.97066 0.8121 0.34267 0.0
C4306 C 0.98309 0.81267 0.34557 0.0
C4307 C 0.01979 0.8125 0.34255 0.0
C4308 C 0.00737 0.81287 0.34552 0.0
H4309 H 0.95272 0.82086 0.32125 0.0
H4310 H 0.97181 0.82462 0.32884 0.0
H4311 H 0.98497 0.79418 0.34755 0.0
H4312 H 0.04347 0.79595 0.34743 0.0
H4313 H 0.02439 0.79974 0.35537 0.0
C4314 C 0.1889 0.0366 0.34021 0.0
C4315 C 0.18171 0.043 0.33291 0.0
C4316 C 0.18586 0.02541 0.34345 0.0
C4317 C 0.16947 0.00169 0.33103 0.0
H4318 H 0.18011 0.98518 0.35801 0.0
C4319 C 0.17097 0.95295 0.32981 0.0
C4320 C 0.18171 0.94841 0.33298 0.0
C4321 C 0.16784 0.96405 0.33317 0.0
C4322 C 0.17704 0.98968 0.35045 0.0
H4323 H 0.16515 0.04327 0.32432 0.0
H4324 H 0.15969 0.0239 0.33024 0.0
H4325 H 0.18014 0.00625 0.35798 0.0
H4326 H 0.19717 0.9515 0.34294 0.0
H4327 H 0.19192 0.97102 0.34848 0.0
H4328 H 0.16692 0.98531 0.32323 0.0
C4329 C 0.16785 0.02734 0.33315 0.0
C4330 C 0.17706 0.00174 0.35043 0.0
C4331 C 0.17095 0.03845 0.3298 0.0
C4332 C 0.18885 0.9548 0.34034 0.0
C4333 C 0.1858 0.96598 0.34357 0.0
C4334 C 0.16945 0.9897 0.33105 0.0
C4335 C 0.17552 0.02048 0.33954 0.0
C4336 C 0.17359 0.00787 0.34058 0.0
C4337 C 0.17548 0.97091 0.3396 0.0
C4338 C 0.17356 0.98353 0.34061 0.0
H4339 H 0.19723 0.03991 0.34278 0.0
H4340 H 0.19201 0.02038 0.34832 0.0
H4341 H 0.16694 0.00607 0.32321 0.0
H4342 H 0.16521 0.94813 0.32429 0.0
H4343 H 0.1597 0.96748 0.33021 0.0
C4344 C 0.03462 0.80157 0.64857 0.0
C4345 C 0.04108 0.80899 0.65559 0.0
C4346 C 0.0234 0.80448 0.64538 0.0
C4347 C -0.00018 0.82108 0.65772 0.0
H4348 H 0.98293 0.80932 0.63146 0.0
C4349 C 0.9512 0.81855 0.66012 0.0
C4350 C 0.94685 0.8076 0.6574 0.0
C4351 C 0.96214 0.82184 0.65641 0.0
C4352 C 0.98754 0.8127 0.63882 0.0
H4353 H 0.04142 0.8258 0.66368 0.0
H4354 H 0.02198 0.83104 0.65784 0.0
H4355 H 0.00398 0.80964 0.63102 0.0
H4356 H 0.9501 0.79188 0.64789 0.0
H4357 H 0.96935 0.79743 0.64175 0.0
H4358 H 0.98359 0.82358 0.66581 0.0
C4359 C 0.0254 0.8228 0.65512 0.0
C4360 C -0.00042 0.81289 0.63857 0.0
C4361 C 0.03655 0.81983 0.65843 0.0
C4362 C 0.95326 0.80036 0.65015 0.0
C4363 C 0.96428 0.80359 0.64657 0.0
C4364 C 0.98785 0.82089 0.65797 0.0
C4365 C 0.01849 0.81492 0.64906 0.0
C4366 C 0.00586 0.81674 0.64818 0.0
C4367 C 0.96903 0.81417 0.65007 0.0
C4368 C 0.98155 0.81636 0.64868 0.0
H4369 H 0.03792 0.79317 0.64621 0.0
H4370 H 0.01832 0.79817 0.64077 0.0
H4371 H 0.00433 0.8239 0.66538 0.0
H4372 H 0.94636 0.82439 0.66554 0.0
H4373 H 0.96544 0.83016 0.65902 0.0
C4374 C 0.18863 0.0387 0.64581 0.0
C4375 C 0.18273 0.04247 0.65567 0.0
C4376 C 0.18656 0.02773 0.64132 0.0
C4377 C 0.16781 0.0017 0.64412 0.0
H4378 H 0.19684 0.9854 0.64221 0.0
C4379 C 0.17445 0.95613 0.66078 0.0
C4380 C 0.18306 0.9491 0.65605 0.0
C4381 C 0.17234 0.96705 0.65625 0.0
C4382 C 0.18862 0.98978 0.64238 0.0
H4383 H 0.16934 0.03814 0.66793 0.0
H4384 H 0.16588 0.01902 0.66026 0.0
H4385 H 0.19674 0.00625 0.64208 0.0
H4386 H 0.19555 0.94758 0.64227 0.0
H4387 H 0.19184 0.96669 0.63432 0.0
H4388 H 0.15978 0.98513 0.64514 0.0
C4389 C 0.17203 0.0245 0.6559 0.0
C4390 C 0.18856 0.00179 0.6423 0.0
C4391 C 0.1741 0.03545 0.66038 0.0
C4392 C 0.18894 0.95285 0.64617 0.0
C4393 C 0.18683 0.96381 0.64163 0.0
C4394 C 0.16787 0.98967 0.6442 0.0
C4395 C 0.17856 0.02034 0.6466 0.0
C4396 C 0.17821 0.00789 0.64371 0.0
C4397 C 0.1788 0.97118 0.64689 0.0
C4398 C 0.17833 0.9836 0.64387 0.0
H4399 H 0.19526 0.04398 0.64192 0.0
H4400 H 0.19161 0.02482 0.63404 0.0
H4401 H 0.15968 0.00617 0.645 0.0
H4402 H 0.16971 0.95345 0.66835 0.0
H4403 H 0.16618 0.97253 0.66059 0.0
C4404 C 0.9533 0.1884 0.64948 0.0
C4405 C 0.94683 0.18127 0.65679 0.0
C4406 C 0.96446 0.18527 0.64629 0.0
C4407 C 0.98795 0.16885 0.65903 0.0
H4408 H 0.00482 0.17957 0.63232 0.0
C4409 C 0.03663 0.17074 0.66103 0.0
C4410 C 0.04115 0.18149 0.65788 0.0
C4411 C 0.0256 0.16752 0.65754 0.0
C4412 C 0.00022 0.17648 0.63982 0.0
H4413 H 0.94638 0.16471 0.66538 0.0
H4414 H 0.96571 0.15909 0.65954 0.0
H4415 H 0.98377 0.17948 0.63201 0.0
H4416 H 0.03809 0.19693 0.64786 0.0
H4417 H 0.01868 0.19154 0.64211 0.0
H4418 H 0.0042 0.16641 0.66711 0.0
C4419 C 0.96235 0.16727 0.6566 0.0
C4420 C 0.98817 0.17642 0.63963 0.0
C4421 C 0.95126 0.17047 0.65991 0.0
C4422 C 0.0348 0.1886 0.65045 0.0
C4423 C 0.02369 0.18546 0.64709 0.0
C4424 C -8e-05 0.1689 0.65922 0.0
C4425 C 0.9693 0.17489 0.65026 0.0
C4426 C 0.9819 0.17294 0.64938 0.0
C4427 C 0.01878 0.17509 0.651 0.0
C4428 C 0.00622 0.17305 0.64976 0.0
H4429 H 0.95008 0.19676 0.64691 0.0
H4430 H 0.96957 0.19139 0.64146 0.0
H4431 H 0.98346 0.16631 0.66679 0.0
H4432 H 0.04143 0.165 0.6666 0.0
H4433 H 0.02218 0.15935 0.66047 0.0
C4434 C 0.81896 0.03829 0.66076 0.0
C4435 C 0.8081 0.04259 0.65769 0.0
C4436 C 0.82243 0.02738 0.65712 0.0
C4437 C 0.81396 0.00195 0.63917 0.0
H4438 H 0.82446 0.98518 0.66602 0.0
C4439 C 0.80229 0.95501 0.64888 0.0
C4440 C 0.80944 0.94856 0.65619 0.0
C4441 C 0.80543 0.96616 0.64562 0.0
C4442 C 0.82184 0.98968 0.65829 0.0
H4443 H 0.79274 0.0393 0.64763 0.0
H4444 H 0.79857 0.02009 0.64162 0.0
H4445 H 0.82409 0.00592 0.66645 0.0
H4446 H 0.82603 0.94812 0.6647 0.0
H4447 H 0.83166 0.96743 0.65875 0.0
H4448 H 0.81112 0.98549 0.6313 0.0
C4449 C 0.80454 0.02518 0.64665 0.0
C4450 C 0.82163 0.00166 0.65854 0.0
C4451 C 0.80115 0.03617 0.65017 0.0
C4452 C 0.82026 0.95299 0.65923 0.0
C4453 C 0.82346 0.96406 0.65585 0.0
C4454 C 0.81417 0.9899 0.63893 0.0
C4455 C 0.81502 0.02047 0.6505 0.0
C4456 C 0.81732 0.00795 0.64914 0.0
C4457 C 0.81583 0.971 0.64952 0.0
C4458 C 0.81775 0.98362 0.64864 0.0
H4459 H 0.82458 0.04315 0.6664 0.0
H4460 H 0.83068 0.02413 0.65999 0.0
H4461 H 0.81076 0.00655 0.63172 0.0
H4462 H 0.79391 0.95179 0.64637 0.0
H4463 H 0.7993 0.97126 0.6408 0.0
C4464 C 0.33044 0.95557 0.17542 0.0
C4465 C 0.335 0.94851 0.1841 0.0
C4466 C 0.33492 0.96656 0.17352 0.0
C4467 C 0.34812 0.98926 0.19041 0.0
H4468 H 0.3462 0.00594 0.16157 0.0
C4469 C 0.34477 0.03826 0.19068 0.0
C4470 C 0.33515 0.04216 0.18448 0.0
C4471 C 0.34921 0.02724 0.18873 0.0
C4472 C 0.34687 0.0014 0.16968 0.0
H4473 H 0.34848 0.947 0.19693 0.0
H4474 H 0.35635 0.96622 0.19358 0.0
H4475 H 0.34617 0.9849 0.16146 0.0
H4476 H 0.32324 0.03797 0.17072 0.0
H4477 H 0.33083 0.01878 0.16744 0.0
H4478 H 0.34811 0.00565 0.1987 0.0
C4479 C 0.34919 0.96331 0.18835 0.0
C4480 C 0.34685 0.98936 0.16961 0.0
C4481 C 0.34471 0.9523 0.19024 0.0
C4482 C 0.33062 0.03519 0.1757 0.0
C4483 C 0.33505 0.0242 0.17375 0.0
C4484 C 0.34813 0.00127 0.19047 0.0
C4485 C 0.34407 0.97072 0.18027 0.0
C4486 C 0.34696 0.98317 0.18001 0.0
C4487 C 0.34412 0.01993 0.18053 0.0
C4488 C 0.34698 0.00747 0.18015 0.0
H4489 H 0.323 0.95287 0.17048 0.0
H4490 H 0.33069 0.97205 0.1673 0.0
H4491 H 0.34809 0.98479 0.19859 0.0
H4492 H 0.34852 0.04349 0.19743 0.0
H4493 H 0.35631 0.02426 0.19398 0.0
C4494 C 0.95244 0.34453 0.18779 0.0
C4495 C 0.94865 0.33457 0.18206 0.0
C4496 C 0.96344 0.34895 0.1857 0.0
C4497 C 0.98952 0.34571 0.16715 0.0
H4498 H 0.00567 0.34815 0.19623 0.0
C4499 C 0.03508 0.32927 0.1743 0.0
C4500 C 0.04203 0.3341 0.18294 0.0
C4501 C 0.02419 0.33376 0.17204 0.0
C4502 C 0.00134 0.34784 0.18799 0.0
H4503 H 0.95298 0.32205 0.16891 0.0
H4504 H 0.97215 0.32959 0.16541 0.0
H4505 H 0.98484 0.34828 0.19601 0.0
H4506 H 0.04343 0.34805 0.19527 0.0
H4507 H 0.02436 0.35595 0.19127 0.0
H4508 H 0.00613 0.34457 0.15923 0.0
C4509 C 0.96666 0.33408 0.17145 0.0
C4510 C 0.98934 0.34792 0.18786 0.0
C4511 C 0.95569 0.32968 0.17354 0.0
C4512 C 0.03822 0.34407 0.18865 0.0
C4513 C 0.02729 0.34857 0.18638 0.0
C4514 C 0.00155 0.34564 0.16727 0.0
C4515 C 0.97083 0.34349 0.17783 0.0
C4516 C 0.98329 0.34632 0.1775 0.0
C4517 C 0.01999 0.3432 0.17835 0.0
C4518 C 0.00757 0.34617 0.17776 0.0
H4519 H 0.94716 0.34856 0.19433 0.0
H4520 H 0.96635 0.35631 0.19063 0.0
H4521 H 0.9851 0.34469 0.159 0.0
H4522 H 0.03781 0.32164 0.1697 0.0
H4523 H 0.01877 0.32933 0.16588 0.0
C4524 C 0.66017 0.95279 0.17239 0.0
C4525 C 0.65714 0.94837 0.18322 0.0
C4526 C 0.65674 0.96384 0.16916 0.0
C4527 C 0.63945 0.9895 0.17819 0.0
H4528 H 0.66656 0.00589 0.16775 0.0
C4529 C 0.64964 0.03647 0.18969 0.0
C4530 C 0.65694 0.04284 0.18246 0.0
C4531 C 0.64638 0.02528 0.18669 0.0
C4532 C 0.65876 0.0015 0.17036 0.0
H4533 H 0.64735 0.95161 0.19876 0.0
H4534 H 0.64168 0.97104 0.19331 0.0
H4535 H 0.66661 0.98513 0.16792 0.0
H4536 H 0.66549 0.04306 0.16588 0.0
H4537 H 0.65952 0.02368 0.16049 0.0
H4538 H 0.63188 0.00606 0.18118 0.0
C4539 C 0.64654 0.96595 0.1872 0.0
C4540 C 0.65879 0.98952 0.17046 0.0
C4541 C 0.64985 0.95482 0.19037 0.0
C4542 C 0.66002 0.03826 0.17171 0.0
C4543 C 0.65663 0.02714 0.16865 0.0
C4544 C 0.63942 0.00155 0.17809 0.0
C4545 C 0.65037 0.97077 0.17677 0.0
C4546 C 0.64928 0.98335 0.1747 0.0
C4547 C 0.65026 0.02031 0.17636 0.0
C4548 C 0.64923 0.00769 0.17449 0.0
H4549 H 0.66564 0.94792 0.16662 0.0
H4550 H 0.6596 0.96719 0.16094 0.0
H4551 H 0.63193 0.985 0.18136 0.0
H4552 H 0.64711 0.0398 0.19802 0.0
H4553 H 0.64153 0.02027 0.19287 0.0
C4554 C 0.03443 0.66111 0.17408 0.0
C4555 C 0.04151 0.65632 0.18262 0.0
C4556 C 0.0235 0.65658 0.172 0.0
C4557 C 0.00091 0.64266 0.18836 0.0
H4558 H 0.9843 0.6454 0.15956 0.0
C4559 C 0.95205 0.64627 0.18882 0.0
C4560 C 0.94823 0.65611 0.18291 0.0
C4561 C 0.96298 0.64174 0.18666 0.0
C4562 C 0.98882 0.64449 0.16766 0.0
H4563 H 0.04312 0.64242 0.19499 0.0
H4564 H 0.024 0.63449 0.19133 0.0
H4565 H 0.00532 0.64551 0.1595 0.0
H4566 H 0.95245 0.66832 0.16942 0.0
H4567 H 0.97151 0.6606 0.16582 0.0
H4568 H 0.98453 0.64238 0.19662 0.0
C4569 C 0.02685 0.64185 0.18636 0.0
C4570 C 0.00085 0.64455 0.16762 0.0
C4571 C 0.0378 0.64637 0.18843 0.0
C4572 C 0.95518 0.66078 0.17419 0.0
C4573 C 0.96609 0.65627 0.17204 0.0
C4574 C 0.98891 0.64261 0.1884 0.0
C4575 C 0.01942 0.64717 0.17842 0.0
C4576 C 0.00701 0.64417 0.17803 0.0
C4577 C 0.9703 0.64698 0.17856 0.0
C4578 C 0.98273 0.64407 0.1781 0.0
H4579 H 0.03708 0.66873 0.16939 0.0
H4580 H 0.01798 0.66097 0.16591 0.0
H4581 H 0.00536 0.64245 0.19655 0.0
H4582 H 0.94683 0.64241 0.19551 0.0
H4583 H 0.96591 0.63447 0.1917 0.0
C4584 C 0.34036 0.95457 0.80091 0.0
C4585 C 0.33302 0.9482 0.80809 0.0
C4586 C 0.34353 0.9658 0.80388 0.0
C4587 C 0.33085 0.9896 0.81992 0.0
H4588 H 0.35786 0.00613 0.80938 0.0
C4589 C 0.32969 0.03838 0.81821 0.0
C4590 C 0.33297 0.04292 0.8075 0.0
C4591 C 0.33294 0.02725 0.82134 0.0
C4592 C 0.35028 0.00162 0.81241 0.0
H4593 H 0.32428 0.94802 0.82457 0.0
H4594 H 0.33007 0.96747 0.82991 0.0
H4595 H 0.35792 0.98506 0.80956 0.0
H4596 H 0.34297 0.03977 0.79208 0.0
H4597 H 0.34832 0.02019 0.79736 0.0
H4598 H 0.32296 0.00597 0.82223 0.0
C4599 C 0.33308 0.96397 0.82181 0.0
C4600 C 0.35032 0.98957 0.81252 0.0
C4601 C 0.32979 0.95282 0.81878 0.0
C4602 C 0.34029 0.03647 0.80037 0.0
C4603 C 0.34342 0.02526 0.80345 0.0
C4604 C 0.33081 0.00159 0.81981 0.0
C4605 C 0.3395 0.97079 0.81415 0.0
C4606 C 0.34046 0.98343 0.81596 0.0
C4607 C 0.33938 0.02036 0.81376 0.0
C4608 C 0.34039 0.00776 0.81575 0.0
H4609 H 0.34301 0.95121 0.79263 0.0
H4610 H 0.34843 0.9708 0.79774 0.0
H4611 H 0.32302 0.98521 0.82241 0.0
H4612 H 0.3242 0.04325 0.82396 0.0
H4613 H 0.32992 0.02384 0.82948 0.0
C4614 C 0.03608 0.3407 0.79578 0.0
C4615 C 0.04344 0.33678 0.80449 0.0
C4616 C 0.02497 0.34436 0.79844 0.0
C4617 C 0.00339 0.33983 0.82161 0.0
H4618 H 0.98413 0.3547 0.79883 0.0
C4619 C 0.95263 0.34288 0.80546 0.0
C4620 C 0.94982 0.33138 0.80794 0.0
C4621 C 0.9636 0.34716 0.80803 0.0
C4622 C 0.98931 0.35074 0.8055 0.0
H4623 H 0.04556 0.33479 0.82288 0.0
H4624 H 0.02649 0.34205 0.82768 0.0
H4625 H 0.00477 0.35722 0.79802 0.0
H4626 H 0.9561 0.3155 0.81548 0.0
H4627 H 0.97516 0.32265 0.8194 0.0
H4628 H 0.98791 0.33379 0.82939 0.0
C4629 C 0.02893 0.34166 0.81871 0.0
C4630 C 0.00125 0.352 0.80488 0.0
C4631 C 0.03993 0.33761 0.816 0.0
C4632 C 0.95798 0.32441 0.81348 0.0
C4633 C 0.96895 0.3286 0.81585 0.0
C4634 C 0.99146 0.3389 0.82244 0.0
C4635 C 0.02105 0.3445 0.80993 0.0
C4636 C 0.00851 0.34592 0.81246 0.0
C4637 C 0.97203 0.33997 0.81296 0.0
C4638 C 0.98428 0.34367 0.81395 0.0
H4639 H 0.03859 0.3401 0.78682 0.0
H4640 H 0.01927 0.34628 0.79133 0.0
H4641 H 0.00851 0.33502 0.82772 0.0
H4642 H 0.94646 0.34847 0.80128 0.0
H4643 H 0.96555 0.35602 0.80587 0.0
C4644 C 0.66319 0.0355 0.82027 0.0
C4645 C 0.65824 0.03956 0.81002 0.0
C4646 C 0.66095 0.02432 0.8241 0.0
C4647 C 0.64306 -0.00187 0.8186 0.0
H4648 H 0.67176 0.98228 0.8247 0.0
C4649 C 0.65232 0.95174 0.80508 0.0
C4650 C 0.66068 0.94537 0.81105 0.0
C4651 C 0.64932 0.96278 0.80878 0.0
C4652 C 0.66358 0.98653 0.82334 0.0
H4653 H 0.64645 0.03541 0.79615 0.0
H4654 H 0.64278 0.01585 0.80263 0.0
H4655 H 0.67144 0.00308 0.82431 0.0
H4656 H 0.67149 0.94499 0.82625 0.0
H4657 H 0.66609 0.96416 0.83284 0.0
H4658 H 0.63538 0.98143 0.817 0.0
C4659 C 0.64826 0.0213 0.80784 0.0
C4660 C 0.6634 -0.00148 0.82311 0.0
C4661 C 0.65045 0.03249 0.80406 0.0
C4662 C 0.66516 0.94978 0.82137 0.0
C4663 C 0.66209 0.96077 0.82513 0.0
C4664 C 0.64325 0.98609 0.81883 0.0
C4665 C 0.65377 0.01696 0.8177 0.0
C4666 C 0.65325 0.00446 0.82031 0.0
C4667 C 0.65456 0.96761 0.81857 0.0
C4668 C 0.65361 0.98016 0.82078 0.0
H4669 H 0.66912 0.0408 0.82513 0.0
H4670 H 0.66518 0.02129 0.83183 0.0
H4671 H 0.63506 0.00247 0.81662 0.0
H4672 H 0.64867 0.94854 0.79712 0.0
H4673 H 0.64355 0.96781 0.80347 0.0
C4674 C 0.95216 0.65301 0.81657 0.0
C4675 C 0.94856 0.65374 0.80507 0.0
C4676 C 0.96323 0.64913 0.81923 0.0
C4677 C 0.99094 0.63905 0.80529 0.0
H4678 H 0.00425 0.6576 0.82956 0.0
C4679 C 0.03397 0.66721 0.81342 0.0
C4680 C 0.04216 0.66031 0.80784 0.0
C4681 C 0.02306 0.66291 0.81589 0.0
C4682 C 0.00071 0.65241 0.82268 0.0
H4683 H 0.95335 0.65039 0.78739 0.0
H4684 H 0.97278 0.64448 0.79183 0.0
H4685 H 0.98365 0.6561 0.82805 0.0
H4686 H 0.04565 0.64324 0.8012 0.0
H4687 H 0.02668 0.6355 0.80597 0.0
H4688 H 0.00804 0.63653 0.79913 0.0
C4689 C 0.9671 0.64637 0.79895 0.0
C4690 C 0.98878 0.65132 0.82194 0.0
C4691 C 0.95592 0.64987 0.79634 0.0
C4692 C 0.03945 0.64878 0.80541 0.0
C4693 C 0.02855 0.64438 0.80808 0.0
C4694 C 0.00287 0.64046 0.8058 0.0
C4695 C 0.97109 0.64634 0.81042 0.0
C4696 C 0.98367 0.64509 0.81288 0.0
C4697 C 0.02008 0.6515 0.81306 0.0
C4698 C 0.00788 0.64766 0.81416 0.0
H4699 H 0.94654 0.6558 0.82347 0.0
H4700 H 0.96575 0.64883 0.82819 0.0
H4701 H 0.98743 0.63373 0.79849 0.0
H4702 H 0.03577 0.67615 0.81538 0.0
H4703 H 0.01681 0.66881 0.81946 0.0
C4704 C 0.17471 0.33046 0.03464 0.0
C4705 C 0.18345 0.33495 0.04169 0.0
C4706 C 0.17284 0.33497 0.02367 0.0
C4707 C 0.18973 0.34815 0.00095 0.0
H4708 H 0.16083 0.34643 0.98437 0.0
C4709 C 0.18978 0.34513 0.95195 0.0
C4710 C 0.18356 0.33552 0.94803 0.0
C4711 C 0.18788 0.3495 0.963 0.0
C4712 C 0.16896 0.34704 0.98889 0.0
H4713 H 0.19639 0.34832 0.04318 0.0
H4714 H 0.19307 0.35624 0.02399 0.0
H4715 H 0.16079 0.3463 0.0054 0.0
H4716 H 0.16984 0.32356 0.95221 0.0
H4717 H 0.16666 0.33104 0.97146 0.0
H4718 H 0.19797 0.3482 0.98454 0.0
C4719 C 0.18779 0.34912 0.0269 0.0
C4720 C 0.16894 0.34697 0.00092 0.0
C4721 C 0.18967 0.34461 0.0379 0.0
C4722 C 0.17483 0.33092 0.95501 0.0
C4723 C 0.17294 0.3353 0.96603 0.0
C4724 C 0.18975 0.34822 0.98895 0.0
C4725 C 0.17965 0.34407 0.01951 0.0
C4726 C 0.17936 0.347 0.00707 0.0
C4727 C 0.17973 0.34436 0.97031 0.0
C4728 C 0.1794 0.34715 0.98278 0.0
H4729 H 0.16972 0.32306 0.03734 0.0
H4730 H 0.16657 0.33078 0.01818 0.0
H4731 H 0.19793 0.34807 0.00539 0.0
H4732 H 0.1965 0.34892 0.94671 0.0
H4733 H 0.19315 0.35659 0.966 0.0
C4734 C 0.18976 0.64531 0.95283 0.0
C4735 C 0.18359 0.65501 0.94906 0.0
C4736 C 0.18771 0.64066 0.96374 0.0
C4737 C 0.16859 0.64272 0.98955 0.0
H4738 H 0.19749 0.64147 0.00616 0.0
C4739 C 0.1744 0.6594 0.03519 0.0
C4740 C 0.1831 0.65491 0.04227 0.0
C4741 C 0.17246 0.65481 0.02427 0.0
C4742 C 0.18931 0.64145 0.00169 0.0
H4743 H 0.16978 0.66682 0.95332 0.0
H4744 H 0.16636 0.6589 0.97233 0.0
H4745 H 0.19761 0.64149 0.98533 0.0
H4746 H 0.1959 0.64142 0.0439 0.0
H4747 H 0.19248 0.63335 0.02479 0.0
H4748 H 0.16036 0.64341 0.00603 0.0
C4749 C 0.1727 0.65477 0.9669 0.0
C4750 C 0.18938 0.64145 0.98969 0.0
C4751 C 0.17474 0.6594 0.95601 0.0
C4752 C 0.18921 0.64514 0.03858 0.0
C4753 C 0.18728 0.64054 0.02763 0.0
C4754 C 0.16852 0.64272 0.00158 0.0
C4755 C 0.17946 0.64564 0.97107 0.0
C4756 C 0.17906 0.64264 0.98349 0.0
C4757 C 0.17918 0.64561 0.02019 0.0
C4758 C 0.17892 0.64262 0.00777 0.0
H4759 H 0.19656 0.64166 0.9476 0.0
H4760 H 0.19295 0.63352 0.96665 0.0
H4761 H 0.16048 0.6434 0.98501 0.0
H4762 H 0.16949 0.66688 0.03783 0.0
H4763 H 0.16624 0.659 0.01875 0.0
C4764 C 0.3435 0.19125 0.03854 0.0
C4765 C 0.33397 0.18507 0.04269 0.0
C4766 C 0.3476 0.18934 0.02739 0.0
C4767 C 0.34448 0.17036 0.0016 0.0
H4768 H 0.34588 0.19927 0.98499 0.0
C4769 C 0.32818 0.17618 0.95567 0.0
C4770 C 0.33304 0.18465 0.94854 0.0
C4771 C 0.33245 0.17436 0.96674 0.0
C4772 C 0.34583 0.19109 0.98946 0.0
H4773 H 0.32185 0.17141 0.03877 0.0
H4774 H 0.32884 0.16822 0.01935 0.0
H4775 H 0.34612 0.19938 0.00585 0.0
H4776 H 0.34677 0.19722 0.94707 0.0
H4777 H 0.35425 0.19402 0.96646 0.0
H4778 H 0.3435 0.16215 0.98512 0.0
C4779 C 0.33325 0.17447 0.02468 0.0
C4780 C 0.34598 0.19115 0.00147 0.0
C4781 C 0.32917 0.17637 0.0358 0.0
C4782 C 0.34278 0.1907 0.95241 0.0
C4783 C 0.34704 0.1889 0.96352 0.0
C4784 C 0.34431 0.1703 0.98957 0.0
C4785 C 0.34225 0.18121 0.02019 0.0
C4786 C 0.34481 0.18082 0.00768 0.0
C4787 C 0.34167 0.18098 0.97094 0.0
C4788 C 0.34451 0.18071 0.98339 0.0
H4789 H 0.34745 0.19795 0.04369 0.0
H4790 H 0.35466 0.19456 0.02424 0.0
H4791 H 0.34379 0.16224 0.00614 0.0
H4792 H 0.32071 0.17133 0.95291 0.0
H4793 H 0.32803 0.16828 0.97226 0.0
C4794 C 0.81626 0.33094 0.95497 0.0
C4795 C 0.80763 0.33568 0.94797 0.0
C4796 C 0.81817 0.33523 0.96602 0.0
C4797 C 0.80134 0.34827 0.98886 0.0
H4798 H 0.83005 0.3456 0.00564 0.0
C4799 C 0.80083 0.34444 0.0378 0.0
C4800 C 0.80679 0.33463 0.04163 0.0
C4801 C 0.8029 0.34892 0.02683 0.0
C4802 C 0.82198 0.34648 0.00106 0.0
H4803 H 0.79492 0.34929 0.94664 0.0
H4804 H 0.79831 0.35684 0.96596 0.0
H4805 H 0.83027 0.34592 0.98461 0.0
H4806 H 0.82025 0.32243 0.03738 0.0
H4807 H 0.82375 0.3301 0.01826 0.0
H4808 H 0.79297 0.34816 0.0052 0.0
C4809 C 0.80347 0.34968 0.96296 0.0
C4810 C 0.8221 0.34666 0.98904 0.0
C4811 C 0.80156 0.34538 0.95188 0.0
C4812 C 0.81545 0.32994 0.03465 0.0
C4813 C 0.81753 0.33442 0.0237 0.0
C4814 C 0.80121 0.3481 0.00086 0.0
C4815 C 0.81149 0.34436 0.97031 0.0
C4816 C 0.81173 0.34704 0.9828 0.0
C4817 C 0.81099 0.3437 0.0195 0.0
C4818 C 0.81148 0.34669 0.00709 0.0
H4819 H 0.82114 0.3235 0.95217 0.0
H4820 H 0.82434 0.33084 0.97146 0.0
H4821 H 0.79318 0.34845 0.98436 0.0
H4822 H 0.79416 0.34831 0.04304 0.0
H4823 H 0.79783 0.35618 0.02389 0.0
C4824 C 0.66028 0.81515 0.03636 0.0
C4825 C 0.6558 0.80655 0.04359 0.0
C4826 C 0.65567 0.8169 0.02541 0.0
C4827 C 0.64225 0.79959 0.00317 0.0
H4828 H 0.644 0.82811 0.98591 0.0
C4829 C 0.64507 0.79832 0.95418 0.0
C4830 C 0.65461 0.8045 0.95004 0.0
C4831 C 0.64077 0.80048 0.96521 0.0
C4832 C 0.64338 0.82009 0.99062 0.0
H4833 H 0.64231 0.79377 0.04544 0.0
H4834 H 0.63422 0.79687 0.0263 0.0
H4835 H 0.64427 0.82864 0.00693 0.0
H4836 H 0.66649 0.81842 0.95378 0.0
H4837 H 0.65915 0.82203 0.97299 0.0
H4838 H 0.64209 0.79097 0.98697 0.0
C4839 C 0.64141 0.80213 0.02904 0.0
C4840 C 0.64353 0.82039 0.00265 0.0
C4841 C 0.64603 0.80038 0.04001 0.0
C4842 C 0.65919 0.81344 0.95677 0.0
C4843 C 0.65489 0.81559 0.96776 0.0
C4844 C 0.64212 0.79929 0.99117 0.0
C4845 C 0.64647 0.81009 0.02146 0.0
C4846 C 0.64348 0.81011 0.00903 0.0
C4847 C 0.64591 0.80886 0.97228 0.0
C4848 C 0.6432 0.80949 0.98476 0.0
H4849 H 0.66776 0.8201 0.0389 0.0
H4850 H 0.65985 0.82303 0.01978 0.0
H4851 H 0.64232 0.7915 0.00779 0.0
H4852 H 0.64129 0.79145 0.94915 0.0
H4853 H 0.63373 0.79526 0.96839 0.0
C4854 C 0.81563 0.66042 0.03468 0.0
C4855 C 0.80686 0.65591 0.04166 0.0
C4856 C 0.81766 0.65585 0.02377 0.0
C4857 C 0.80101 0.6424 0.00103 0.0
H4858 H 0.82993 0.64456 0.98455 0.0
C4859 C 0.80094 0.64576 0.9521 0.0
C4860 C 0.80701 0.65551 0.94828 0.0
C4861 C 0.80293 0.64129 0.9631 0.0
C4862 C 0.8218 0.64382 0.98904 0.0
H4863 H 0.79404 0.64241 0.04314 0.0
H4864 H 0.79764 0.63437 0.02406 0.0
H4865 H 0.82991 0.64463 0.00557 0.0
H4866 H 0.8206 0.66758 0.95255 0.0
H4867 H 0.82393 0.65994 0.9717 0.0
H4868 H 0.79282 0.64229 0.9846 0.0
C4869 C 0.80281 0.64157 0.02696 0.0
C4870 C 0.82179 0.64386 0.00107 0.0
C4871 C 0.80077 0.64616 0.03789 0.0
C4872 C 0.81571 0.66012 0.95528 0.0
C4873 C 0.8177 0.65566 0.96625 0.0
C4874 C 0.80102 0.64235 0.98903 0.0
C4875 C 0.81097 0.64665 0.0196 0.0
C4876 C 0.81134 0.64369 0.00718 0.0
C4877 C 0.81103 0.64647 0.97045 0.0
C4878 C 0.81137 0.64359 0.9829 0.0
H4879 H 0.82052 0.66789 0.03737 0.0
H4880 H 0.82394 0.66006 0.01831 0.0
H4881 H 0.79279 0.64237 0.00543 0.0
H4882 H 0.79425 0.64194 0.94685 0.0
H4883 H 0.79777 0.6341 0.96603 0.0
C4884 C 0.33884 0.80167 0.03632 0.0
C4885 C 0.33129 0.8088 0.04249 0.0
C4886 C 0.34215 0.80457 0.02513 0.0
C4887 C 0.32988 0.8204 0.00089 0.0
H4888 H 0.35736 0.80994 0.98515 0.0
C4889 C 0.32996 0.8185 0.95217 0.0
C4890 C 0.33319 0.80768 0.94785 0.0
C4891 C 0.33302 0.82175 0.96332 0.0
C4892 C 0.34966 0.81296 0.98943 0.0
H4893 H 0.32226 0.82513 0.04231 0.0
H4894 H 0.3283 0.83037 0.02293 0.0
H4895 H 0.35687 0.8102 0.00619 0.0
H4896 H 0.34299 0.79221 0.95138 0.0
H4897 H 0.34806 0.7977 0.97097 0.0
H4898 H 0.32243 0.82265 0.9843 0.0
C4899 C 0.33136 0.82235 0.02655 0.0
C4900 C 0.34937 0.8131 0.00148 0.0
C4901 C 0.32793 0.81937 0.03767 0.0
C4902 C 0.34034 0.80059 0.95451 0.0
C4903 C 0.34331 0.80378 0.96573 0.0
C4904 C 0.33017 0.82028 0.98891 0.0
C4905 C 0.33806 0.81473 0.01995 0.0
C4906 C 0.33934 0.8165 0.00734 0.0
C4907 C 0.33924 0.81417 0.97043 0.0
C4908 C 0.33993 0.81624 0.98303 0.0
H4909 H 0.34159 0.79348 0.03983 0.0
H4910 H 0.34725 0.79845 0.02029 0.0
H4911 H 0.32191 0.82286 0.00505 0.0
H4912 H 0.32459 0.82423 0.94715 0.0
H4913 H 0.32999 0.82993 0.96659 0.0
C4914 C 0.6471 0.18983 0.95168 0.0
C4915 C 0.65706 0.18417 0.94781 0.0
C4916 C 0.64267 0.18753 0.96263 0.0
C4917 C 0.64578 0.16848 0.98839 0.0
H4918 H 0.64302 0.19725 0.00505 0.0
C4919 C 0.66123 0.1747 0.03448 0.0
C4920 C 0.65629 0.18325 0.04146 0.0
C4921 C 0.65698 0.17265 0.02344 0.0
C4922 C 0.64342 0.18909 0.00057 0.0
H4923 H 0.66959 0.17096 0.95195 0.0
H4924 H 0.66201 0.1671 0.97104 0.0
H4925 H 0.6432 0.19744 0.98422 0.0
H4926 H 0.64238 0.19562 0.04275 0.0
H4927 H 0.63489 0.19197 0.02346 0.0
H4928 H 0.64666 0.16023 0.00485 0.0
C4929 C 0.65753 0.17324 0.96565 0.0
C4930 C 0.64353 0.1892 0.98857 0.0
C4931 C 0.66195 0.17553 0.95472 0.0
C4932 C 0.64645 0.18906 0.03752 0.0
C4933 C 0.64218 0.187 0.02646 0.0
C4934 C 0.64566 0.16837 0.00042 0.0
C4935 C 0.64812 0.17954 0.96991 0.0
C4936 C 0.64522 0.17896 0.98234 0.0
C4937 C 0.64768 0.17909 0.01913 0.0
C4938 C 0.64499 0.17874 0.00664 0.0
H4939 H 0.64307 0.19645 0.94651 0.0
H4940 H 0.6353 0.1924 0.9656 0.0
H4941 H 0.64687 0.16042 0.98382 0.0
H4942 H 0.66878 0.17002 0.0373 0.0
H4943 H 0.66151 0.16657 0.01802 0.0
C4944 C 0.45272 0.68774 0.84296 0.0
C4945 C 0.44889 0.682 0.83302 0.0
C4946 C 0.46373 0.68565 0.84732 0.0
C4947 C 0.48977 0.66705 0.84407 0.0
H4948 H 0.50599 0.69612 0.84651 0.0
C4949 C 0.53547 0.67399 0.82789 0.0
C4950 C 0.5424 0.68265 0.8327 0.0
C4951 C 0.52453 0.67178 0.83231 0.0
C4952 C 0.50164 0.68788 0.84619 0.0
H4953 H 0.45319 0.66888 0.82045 0.0
H4954 H 0.47239 0.66539 0.82791 0.0
H4955 H 0.48516 0.69595 0.84658 0.0
H4956 H 0.54373 0.69508 0.84656 0.0
H4957 H 0.52461 0.69116 0.85436 0.0
H4958 H 0.50635 0.65908 0.843 0.0
C4959 C 0.46692 0.67142 0.83243 0.0
C4960 C 0.48964 0.68778 0.84623 0.0
C4961 C 0.45592 0.67351 0.82807 0.0
C4962 C 0.53853 0.68844 0.84259 0.0
C4963 C 0.52757 0.68622 0.84703 0.0
C4964 C 0.5018 0.66715 0.84404 0.0
C4965 C 0.47111 0.67779 0.84183 0.0
C4966 C 0.48357 0.67743 0.84465 0.0
C4967 C 0.52029 0.67817 0.84167 0.0
C4968 C 0.50785 0.67762 0.84457 0.0
H4969 H 0.44744 0.69425 0.84703 0.0
H4970 H 0.46666 0.69057 0.85468 0.0
H4971 H 0.48533 0.65892 0.84305 0.0
H4972 H 0.53823 0.66932 0.82031 0.0
H4973 H 0.51913 0.66561 0.82788 0.0
C4974 C 0.31515 0.53552 0.83091 0.0
C4975 C 0.30647 0.54252 0.83557 0.0
C4976 C 0.31717 0.52455 0.83536 0.0
C4977 C 0.30052 0.50173 0.84864 0.0
H4978 H 0.32936 0.48515 0.84609 0.0
C4979 C 0.30024 0.45282 0.84452 0.0
C4980 C 0.30625 0.44912 0.83469 0.0
C4981 C 0.30229 0.46374 0.84914 0.0
C4982 C 0.32125 0.48966 0.84694 0.0
H4983 H 0.29379 0.54392 0.84919 0.0
H4984 H 0.29735 0.52472 0.85699 0.0
H4985 H 0.32943 0.50618 0.84632 0.0
H4986 H 0.31977 0.45355 0.82261 0.0
H4987 H 0.32321 0.47258 0.83053 0.0
H4988 H 0.29226 0.48532 0.84855 0.0
C4989 C 0.30248 0.52768 0.84979 0.0
C4990 C 0.32129 0.5017 0.84707 0.0
C4991 C 0.30046 0.53868 0.84534 0.0
C4992 C 0.31494 0.45618 0.83013 0.0
C4993 C 0.31699 0.46708 0.83476 0.0
C4994 C 0.30048 0.48972 0.8485 0.0
C4995 C 0.31055 0.52033 0.84456 0.0
C4996 C 0.31088 0.50786 0.84739 0.0
C4997 C 0.31039 0.47116 0.84404 0.0
C4998 C 0.3108 0.48356 0.84711 0.0
H4999 H 0.31999 0.53827 0.82343 0.0
H5000 H 0.32338 0.5191 0.83104 0.0
H5001 H 0.29233 0.50617 0.84878 0.0
H5002 H 0.29356 0.44752 0.84828 0.0
H5003 H 0.29718 0.46658 0.8564 0.0
C5004 C 0.53455 0.31596 0.82859 0.0
C5005 C 0.54151 0.30735 0.83345 0.0
C5006 C 0.52348 0.31791 0.83278 0.0
C5007 C 0.5005 0.30127 0.84587 0.0
H5008 H 0.48391 0.3301 0.84309 0.0
C5009 C 0.45154 0.30105 0.84219 0.0
C5010 C 0.44771 0.30702 0.8324 0.0
C5011 C 0.46255 0.30307 0.84662 0.0
C5012 C 0.48843 0.32199 0.84399 0.0
H5013 H 0.54271 0.29472 0.84714 0.0
H5014 H 0.52334 0.29818 0.85452 0.0
H5015 H 0.50493 0.33018 0.84336 0.0
H5016 H 0.45199 0.32044 0.82014 0.0
H5017 H 0.47118 0.32383 0.8277 0.0
H5018 H 0.4841 0.293 0.84583 0.0
C5019 C 0.5264 0.30329 0.84735 0.0
C5020 C 0.50046 0.32204 0.84415 0.0
C5021 C 0.5375 0.30134 0.84315 0.0
C5022 C 0.45473 0.31564 0.82765 0.0
C5023 C 0.46571 0.31766 0.83206 0.0
C5024 C 0.4885 0.30122 0.84572 0.0
C5025 C 0.51911 0.3113 0.84194 0.0
C5026 C 0.50662 0.31163 0.84458 0.0
C5027 C 0.46991 0.31111 0.84134 0.0
C5028 C 0.48234 0.31153 0.84427 0.0
H5029 H 0.53742 0.3208 0.82116 0.0
H5030 H 0.51808 0.32407 0.82833 0.0
H5031 H 0.50494 0.29308 0.84609 0.0
H5032 H 0.44627 0.29443 0.84611 0.0
H5033 H 0.46548 0.298 0.85387 0.0
C5034 C 0.6896 0.45234 0.84488 0.0
C5035 C 0.68358 0.44863 0.83506 0.0
C5036 C 0.68755 0.46326 0.84951 0.0
C5037 C 0.66864 0.48921 0.84721 0.0
H5038 H 0.69762 0.50565 0.84891 0.0
C5039 C 0.67492 0.5349 0.83077 0.0
C5040 C 0.68365 0.5419 0.83535 0.0
C5041 C 0.67285 0.52398 0.83532 0.0
C5042 C 0.68941 0.50123 0.84881 0.0
H5043 H 0.67001 0.45302 0.82302 0.0
H5044 H 0.66657 0.47205 0.83093 0.0
H5045 H 0.69761 0.4848 0.84884 0.0
H5046 H 0.69635 0.54338 0.84894 0.0
H5047 H 0.69269 0.52428 0.85695 0.0
H5048 H 0.66052 0.50576 0.84647 0.0
C5049 C 0.67281 0.46656 0.83515 0.0
C5050 C 0.68941 0.48922 0.84877 0.0
C5051 C 0.67486 0.45566 0.83053 0.0
C5052 C 0.68964 0.53813 0.84515 0.0
C5053 C 0.68757 0.52718 0.84972 0.0
C5054 C 0.66864 0.50125 0.84725 0.0
C5055 C 0.67944 0.47066 0.84441 0.0
C5056 C 0.67907 0.48308 0.84743 0.0
C5057 C 0.67946 0.51982 0.84457 0.0
C5058 C 0.67908 0.50738 0.84751 0.0
H5059 H 0.6963 0.44706 0.84863 0.0
H5060 H 0.69268 0.46612 0.85675 0.0
H5061 H 0.66051 0.48472 0.8464 0.0
H5062 H 0.67009 0.53759 0.82326 0.0
H5063 H 0.66661 0.51852 0.83106 0.0
C5064 C 0.45264 0.30154 0.1462 0.0
C5065 C 0.44899 0.30761 0.156 0.0
C5066 C 0.4636 0.30345 0.14161 0.0
C5067 C 0.48979 0.32202 0.14397 0.0
H5068 H 0.5058 0.2928 0.14236 0.0
C5069 C 0.53542 0.31525 0.16033 0.0
C5070 C 0.54229 0.30641 0.15577 0.0
C5071 C 0.52451 0.31741 0.15581 0.0
C5072 C 0.50151 0.30107 0.14244 0.0
H5073 H 0.45351 0.32112 0.16806 0.0
H5074 H 0.47261 0.32432 0.16022 0.0
H5075 H 0.48497 0.29308 0.1424 0.0
H5076 H 0.54355 0.29359 0.14225 0.0
H5077 H 0.52447 0.29742 0.13432 0.0
H5078 H 0.50643 0.32992 0.14471 0.0
C5079 C 0.46705 0.31815 0.15598 0.0
C5080 C 0.48951 0.30123 0.14246 0.0
C5081 C 0.45612 0.31624 0.16056 0.0
C5082 C 0.5384 0.30038 0.14603 0.0
C5083 C 0.52746 0.30255 0.1415 0.0
C5084 C 0.50182 0.32185 0.14394 0.0
C5085 C 0.47109 0.31147 0.14673 0.0
C5086 C 0.48351 0.31166 0.14376 0.0
C5087 C 0.52023 0.31079 0.14663 0.0
C5088 C 0.50779 0.31133 0.14371 0.0
H5089 H 0.44729 0.2949 0.14242 0.0
H5090 H 0.46641 0.29828 0.13438 0.0
H5091 H 0.48541 0.33021 0.14476 0.0
H5092 H 0.53821 0.3201 0.16779 0.0
H5093 H 0.51915 0.32374 0.16006 0.0
C5094 C 0.6709 0.45264 0.15982 0.0
C5095 C 0.68169 0.4481 0.15682 0.0
C5096 C 0.66778 0.46371 0.15633 0.0
C5097 C 0.67715 0.48922 0.13898 0.0
H5098 H 0.66682 0.50579 0.16602 0.0
C5099 C 0.68931 0.53603 0.14921 0.0
C5100 C 0.68213 0.5425 0.15645 0.0
C5101 C 0.68616 0.52488 0.14593 0.0
C5102 C 0.66941 0.50136 0.15824 0.0
H5103 H 0.69726 0.45116 0.14701 0.0
H5104 H 0.69202 0.47061 0.14126 0.0
H5105 H 0.66671 0.48503 0.1661 0.0
H5106 H 0.6655 0.54297 0.16488 0.0
H5107 H 0.65985 0.52367 0.15889 0.0
H5108 H 0.68041 0.50574 0.13139 0.0
C5109 C 0.68585 0.4656 0.14613 0.0
C5110 C 0.66934 0.48937 0.15828 0.0
C5111 C 0.6889 0.45446 0.14949 0.0
C5112 C 0.67129 0.53808 0.15945 0.0
C5113 C 0.66808 0.52701 0.15605 0.0
C5114 C 0.67722 0.50128 0.13893 0.0
C5115 C 0.67547 0.47053 0.14994 0.0
C5116 C 0.67354 0.48314 0.14881 0.0
C5117 C 0.67572 0.52007 0.14974 0.0
C5118 C 0.67368 0.50747 0.14871 0.0
H5119 H 0.66509 0.44784 0.16531 0.0
H5120 H 0.6596 0.46714 0.15917 0.0
H5121 H 0.68029 0.48467 0.13147 0.0
H5122 H 0.6977 0.53924 0.14673 0.0
H5123 H 0.6923 0.51977 0.14112 0.0
C5124 C 0.53376 0.67655 0.16754 0.0
C5125 C 0.54194 0.68184 0.16042 0.0
C5126 C 0.52279 0.67405 0.16342 0.0
C5127 C 0.50029 0.66714 0.15331 0.0
H5128 H 0.48706 0.69094 0.13412 0.0
C5129 C 0.45176 0.67357 0.15397 0.0
C5130 C 0.44825 0.68511 0.15447 0.0
C5131 C 0.46281 0.67075 0.15013 0.0
C5132 C 0.49055 0.68425 0.13958 0.0
H5133 H 0.54534 0.68793 0.14312 0.0
H5134 H 0.52626 0.68311 0.13571 0.0
H5135 H 0.50768 0.69021 0.13675 0.0
H5136 H 0.45318 0.70269 0.15074 0.0
H5137 H 0.47255 0.69799 0.14488 0.0
H5138 H 0.4832 0.66199 0.15727 0.0
C5139 C 0.52818 0.68124 0.14463 0.0
C5140 C 0.50249 0.68368 0.1409 0.0
C5141 C 0.53915 0.68395 0.14884 0.0
C5142 C 0.45567 0.69371 0.15041 0.0
C5143 C 0.46682 0.69095 0.14693 0.0
C5144 C 0.48835 0.66794 0.1523 0.0
C5145 C 0.51973 0.67656 0.15196 0.0
C5146 C 0.50748 0.67547 0.14827 0.0
C5147 C 0.47072 0.67945 0.14713 0.0
C5148 C 0.48327 0.67688 0.14587 0.0
H5149 H 0.53562 0.67485 0.17652 0.0
H5150 H 0.51655 0.67071 0.16948 0.0
H5151 H 0.50381 0.66037 0.15866 0.0
H5152 H 0.4461 0.66676 0.1569 0.0
H5153 H 0.46526 0.66176 0.15001 0.0
C5154 C 0.31477 0.45519 0.16013 0.0
C5155 C 0.30602 0.44821 0.15556 0.0
C5156 C 0.31668 0.46621 0.15575 0.0
C5157 C 0.29991 0.48914 0.14275 0.0
H5158 H 0.32891 0.50557 0.14459 0.0
C5159 C 0.3001 0.53815 0.14591 0.0
C5160 C 0.30631 0.54202 0.15554 0.0
C5161 C 0.30197 0.52709 0.14151 0.0
C5162 C 0.32075 0.50109 0.14395 0.0
H5163 H 0.29308 0.4469 0.14218 0.0
H5164 H 0.29647 0.46617 0.13447 0.0
H5165 H 0.32883 0.48453 0.14461 0.0
H5166 H 0.32001 0.53777 0.16749 0.0
H5167 H 0.32314 0.51852 0.15997 0.0
H5168 H 0.29177 0.5056 0.14277 0.0
C5169 C 0.30172 0.46318 0.14156 0.0
C5170 C 0.32071 0.48906 0.14396 0.0
C5171 C 0.29981 0.45213 0.14595 0.0
C5172 C 0.31502 0.535 0.16011 0.0
C5173 C 0.31689 0.52398 0.15572 0.0
C5174 C 0.29996 0.50115 0.14273 0.0
C5175 C 0.3099 0.47049 0.14669 0.0
C5176 C 0.31025 0.48296 0.14387 0.0
C5177 C 0.31008 0.51973 0.14665 0.0
C5178 C 0.31035 0.50726 0.14385 0.0
H5179 H 0.31976 0.45239 0.16749 0.0
H5180 H 0.32297 0.47163 0.15999 0.0
H5181 H 0.29169 0.48475 0.14278 0.0
H5182 H 0.2934 0.54341 0.14213 0.0
H5183 H 0.2967 0.52413 0.13441 0.0
C5184 C 0.83984 0.53661 0.68854 0.0
C5185 C 0.83241 0.54291 0.68139 0.0
C5186 C 0.84318 0.52545 0.6855 0.0
C5187 C 0.83085 0.50157 0.66925 0.0
H5188 H 0.85795 0.48532 0.67996 0.0
C5189 C 0.82994 0.45284 0.67118 0.0
C5190 C 0.8331 0.44843 0.68198 0.0
C5191 C 0.83323 0.46393 0.66794 0.0
C5192 C 0.85035 0.48975 0.67687 0.0
H5193 H 0.82368 0.54306 0.66491 0.0
H5194 H 0.82978 0.52375 0.65943 0.0
H5195 H 0.85779 0.50639 0.67982 0.0
H5196 H 0.84299 0.45175 0.69744 0.0
H5197 H 0.84842 0.47125 0.69199 0.0
H5198 H 0.82314 0.48512 0.66684 0.0
C5199 C 0.83272 0.52723 0.66756 0.0
C5200 C 0.85026 0.50181 0.67679 0.0
C5201 C 0.82926 0.53831 0.67067 0.0
C5202 C 0.84039 0.45495 0.68908 0.0
C5203 C 0.84357 0.46612 0.6859 0.0
C5204 C 0.83094 0.48958 0.66932 0.0
C5205 C 0.83923 0.52046 0.67519 0.0
C5206 C 0.84037 0.50785 0.6733 0.0
C5207 C 0.8396 0.47091 0.67552 0.0
C5208 C 0.84055 0.48351 0.67346 0.0
H5209 H 0.84243 0.53996 0.69684 0.0
H5210 H 0.84814 0.52048 0.69162 0.0
H5211 H 0.82299 0.50588 0.66671 0.0
H5212 H 0.82447 0.44793 0.66545 0.0
H5213 H 0.83028 0.46727 0.65975 0.0
C5214 C 0.53512 0.84037 0.68694 0.0
C5215 C 0.5416 0.83292 0.67997 0.0
C5216 C 0.52405 0.84368 0.68362 0.0
C5217 C 0.50059 0.83114 0.66704 0.0
H5218 H 0.48404 0.85813 0.67756 0.0
C5219 C 0.45199 0.82937 0.66961 0.0
C5220 C 0.44773 0.83255 0.68046 0.0
C5221 C 0.46293 0.83289 0.66612 0.0
C5222 C 0.48855 0.85057 0.67451 0.0
H5223 H 0.54215 0.82414 0.66352 0.0
H5224 H 0.52296 0.83016 0.65758 0.0
H5225 H 0.50509 0.85822 0.67744 0.0
H5226 H 0.45112 0.84268 0.69575 0.0
H5227 H 0.47037 0.84848 0.68987 0.0
H5228 H 0.48425 0.82321 0.66471 0.0
C5229 C 0.52626 0.83315 0.66577 0.0
C5230 C 0.50059 0.85062 0.67444 0.0
C5231 C 0.53726 0.82973 0.66915 0.0
C5232 C 0.45421 0.84006 0.68736 0.0
C5233 C 0.46523 0.84345 0.68393 0.0
C5234 C 0.48861 0.83109 0.66711 0.0
C5235 C 0.51931 0.83969 0.67322 0.0
C5236 C 0.50674 0.84074 0.67109 0.0
C5237 C 0.4699 0.83949 0.67349 0.0
C5238 C 0.48244 0.84064 0.67122 0.0
H5239 H 0.53827 0.84301 0.69531 0.0
H5240 H 0.51894 0.84865 0.68962 0.0
H5241 H 0.50499 0.82329 0.66459 0.0
H5242 H 0.44708 0.82374 0.66402 0.0
H5243 H 0.46616 0.82992 0.65789 0.0
C5244 C 0.14524 0.53866 0.69047 0.0
C5245 C 0.15504 0.54234 0.68442 0.0
C5246 C 0.14055 0.52776 0.68841 0.0
C5247 C 0.14249 0.50191 0.66935 0.0
H5248 H 0.14122 0.48529 0.69825 0.0
C5249 C 0.159 0.45623 0.67498 0.0
C5250 C 0.15464 0.44917 0.68377 0.0
C5251 C 0.15437 0.46714 0.67308 0.0
C5252 C 0.14119 0.48976 0.69007 0.0
H5253 H 0.16699 0.53795 0.67077 0.0
H5254 H 0.15894 0.51897 0.66728 0.0
H5255 H 0.14134 0.50614 0.69838 0.0
H5256 H 0.14134 0.44757 0.69676 0.0
H5257 H 0.1332 0.46666 0.69339 0.0
H5258 H 0.14304 0.48543 0.66111 0.0
C5259 C 0.15479 0.52446 0.67357 0.0
C5260 C 0.14126 0.50177 0.69014 0.0
C5261 C 0.15949 0.53532 0.67564 0.0
C5262 C 0.14496 0.45287 0.69 0.0
C5263 C 0.14032 0.46381 0.68809 0.0
C5264 C 0.1424 0.48988 0.66927 0.0
C5265 C 0.14555 0.52038 0.68023 0.0
C5266 C 0.14246 0.50797 0.67982 0.0
C5267 C 0.14527 0.47124 0.67992 0.0
C5268 C 0.14231 0.48368 0.67967 0.0
H5269 H 0.14156 0.54392 0.69722 0.0
H5270 H 0.13333 0.52491 0.69357 0.0
H5271 H 0.14319 0.50647 0.66125 0.0
H5272 H 0.1664 0.45359 0.66997 0.0
H5273 H 0.15849 0.47265 0.66678 0.0
C5274 C 0.45599 0.16053 0.67318 0.0
C5275 C 0.44903 0.15595 0.68193 0.0
C5276 C 0.46691 0.15602 0.6711 0.0
C5277 C 0.48968 0.14262 0.68773 0.0
H5278 H 0.50629 0.14541 0.65893 0.0
C5279 C 0.5385 0.14691 0.68816 0.0
C5280 C 0.54216 0.15683 0.68228 0.0
C5281 C 0.52763 0.14223 0.68602 0.0
C5282 C 0.50176 0.14448 0.66703 0.0
H5283 H 0.44761 0.14235 0.69465 0.0
H5284 H 0.46671 0.1344 0.69097 0.0
H5285 H 0.48527 0.14512 0.65883 0.0
H5286 H 0.53773 0.16903 0.66886 0.0
H5287 H 0.51876 0.16103 0.66526 0.0
H5288 H 0.50606 0.14267 0.69601 0.0
C5289 C 0.46378 0.14162 0.68585 0.0
C5290 C 0.48974 0.14432 0.66697 0.0
C5291 C 0.45283 0.14615 0.68793 0.0
C5292 C 0.53512 0.16144 0.6736 0.0
C5293 C 0.52427 0.15676 0.67146 0.0
C5294 C 0.50168 0.14276 0.68779 0.0
C5295 C 0.47112 0.1468 0.67773 0.0
C5296 C 0.48357 0.14394 0.67738 0.0
C5297 C 0.52022 0.14738 0.67795 0.0
C5298 C 0.50784 0.14425 0.67749 0.0
H5299 H 0.45327 0.16803 0.66834 0.0
H5300 H 0.47235 0.1603 0.66486 0.0
H5301 H 0.48524 0.14242 0.69592 0.0
H5302 H 0.5438 0.14309 0.69482 0.0
H5303 H 0.52481 0.13489 0.69104 0.0
C5304 C 0.84047 0.45405 0.30068 0.0
C5305 C 0.83321 0.44766 0.30793 0.0
C5306 C 0.84373 0.46524 0.30367 0.0
C5307 C 0.83143 0.489 0.3201 0.0
H5308 H 0.85832 0.50548 0.30922 0.0
C5309 C 0.83032 0.53775 0.31865 0.0
C5310 C 0.83339 0.54231 0.30789 0.0
C5311 C 0.83366 0.52663 0.32171 0.0
C5312 C 0.85078 0.50099 0.31235 0.0
H5313 H 0.82472 0.44742 0.32454 0.0
H5314 H 0.83068 0.4668 0.32992 0.0
H5315 H 0.85829 0.48441 0.30924 0.0
H5316 H 0.84315 0.53922 0.2923 0.0
H5317 H 0.84865 0.51966 0.29745 0.0
H5318 H 0.82365 0.50539 0.32267 0.0
C5319 C 0.83354 0.46335 0.32175 0.0
C5320 C 0.85076 0.48893 0.31236 0.0
C5321 C 0.83017 0.45223 0.31869 0.0
C5322 C 0.84063 0.5359 0.30064 0.0
C5323 C 0.84384 0.5247 0.30364 0.0
C5324 C 0.83145 0.50099 0.32009 0.0
C5325 C 0.83988 0.4702 0.31403 0.0
C5326 C 0.84094 0.48281 0.31592 0.0
C5327 C 0.83997 0.51976 0.314 0.0
C5328 C 0.84098 0.50715 0.3159 0.0
H5329 H 0.84298 0.45073 0.29234 0.0
H5330 H 0.84855 0.47027 0.29748 0.0
H5331 H 0.82362 0.48463 0.32269 0.0
H5332 H 0.8249 0.54258 0.32449 0.0
H5333 H 0.83078 0.52319 0.32988 0.0
C5334 C 0.53734 0.84515 0.3014 0.0
C5335 C 0.54108 0.83536 0.30744 0.0
C5336 C 0.52632 0.8496 0.30328 0.0
C5337 C 0.50012 0.84692 0.32173 0.0
H5338 H 0.48416 0.84814 0.29247 0.0
C5339 C 0.45471 0.82992 0.31501 0.0
C5340 C 0.44779 0.83433 0.30615 0.0
C5341 C 0.46558 0.83457 0.31713 0.0
C5342 C 0.48843 0.84818 0.30075 0.0
H5343 H 0.53666 0.82321 0.32091 0.0
H5344 H 0.51748 0.83084 0.32407 0.0
H5345 H 0.50499 0.84842 0.29282 0.0
H5346 H 0.44637 0.84772 0.29321 0.0
H5347 H 0.46537 0.8559 0.29696 0.0
H5348 H 0.48347 0.84599 0.32958 0.0
C5349 C 0.523 0.83516 0.31794 0.0
C5350 C 0.50043 0.84834 0.30095 0.0
C5351 C 0.53399 0.8307 0.31605 0.0
C5352 C 0.45158 0.84405 0.30002 0.0
C5353 C 0.46246 0.84872 0.30215 0.0
C5354 C 0.48809 0.84678 0.32153 0.0
C5355 C 0.51887 0.84437 0.31126 0.0
C5356 C 0.50641 0.84717 0.3114 0.0
C5357 C 0.46975 0.84375 0.31044 0.0
C5358 C 0.48214 0.84686 0.31099 0.0
H5359 H 0.54266 0.849 0.29479 0.0
H5360 H 0.52344 0.85681 0.29811 0.0
H5361 H 0.50449 0.84623 0.32993 0.0
H5362 H 0.45201 0.82248 0.31994 0.0
H5363 H 0.47098 0.83044 0.3235 0.0
C5364 C 0.14634 0.45239 0.30088 0.0
C5365 C 0.15615 0.4485 0.30679 0.0
C5366 C 0.142 0.46344 0.3029 0.0
C5367 C 0.14501 0.48942 0.32167 0.0
H5368 H 0.14273 0.50579 0.2927 0.0
C5369 C 0.16067 0.53545 0.31516 0.0
C5370 C 0.15583 0.54235 0.30649 0.0
C5371 C 0.15639 0.52443 0.31727 0.0
C5372 C 0.143 0.50139 0.30091 0.0
H5373 H 0.16851 0.45274 0.32011 0.0
H5374 H 0.16111 0.47199 0.3235 0.0
H5375 H 0.14283 0.48494 0.29274 0.0
H5376 H 0.14205 0.54353 0.29395 0.0
H5377 H 0.13451 0.52426 0.29771 0.0
H5378 H 0.14585 0.50598 0.32975 0.0
C5379 C 0.15667 0.46654 0.31738 0.0
C5380 C 0.14307 0.48938 0.30093 0.0
C5381 C 0.16099 0.45552 0.31536 0.0
C5382 C 0.14604 0.53836 0.30061 0.0
C5383 C 0.14174 0.52732 0.30273 0.0
C5384 C 0.14495 0.50146 0.32165 0.0
C5385 C 0.14739 0.47079 0.31087 0.0
C5386 C 0.14457 0.48326 0.31126 0.0
C5387 C 0.14716 0.52006 0.31077 0.0
C5388 C 0.14444 0.50757 0.31121 0.0
H5389 H 0.14235 0.44714 0.29429 0.0
H5390 H 0.13474 0.46641 0.29787 0.0
H5391 H 0.14596 0.48494 0.32979 0.0
H5392 H 0.16818 0.53831 0.31989 0.0
H5393 H 0.16084 0.51906 0.32345 0.0
C5394 C 0.53703 0.14585 0.30083 0.0
C5395 C 0.54093 0.15552 0.30697 0.0
C5396 C 0.52603 0.1414 0.30284 0.0
C5397 C 0.50017 0.14394 0.32184 0.0
H5398 H 0.48366 0.14271 0.29288 0.0
C5399 C 0.45466 0.16095 0.31579 0.0
C5400 C 0.44757 0.15642 0.30712 0.0
C5401 C 0.46556 0.15631 0.31778 0.0
C5402 C 0.4881 0.14268 0.30108 0.0
H5403 H 0.53679 0.16747 0.3207 0.0
H5404 H 0.51762 0.15988 0.32405 0.0
H5405 H 0.50449 0.14249 0.29284 0.0
H5406 H 0.4459 0.14286 0.2944 0.0
H5407 H 0.46496 0.13473 0.29789 0.0
H5408 H 0.48367 0.14486 0.33 0.0
C5409 C 0.52302 0.15563 0.31776 0.0
C5410 C 0.5001 0.14256 0.30105 0.0
C5411 C 0.534 0.16007 0.31576 0.0
C5412 C 0.45122 0.14661 0.30107 0.0
C5413 C 0.46215 0.14197 0.30304 0.0
C5414 C 0.48815 0.14408 0.32186 0.0
C5415 C 0.51874 0.14653 0.31102 0.0
C5416 C 0.50627 0.14372 0.31139 0.0
C5417 C 0.4696 0.14705 0.31112 0.0
C5418 C 0.482 0.14398 0.31144 0.0
H5419 H 0.54223 0.14208 0.29408 0.0
H5420 H 0.52303 0.13427 0.29762 0.0
H5421 H 0.5047 0.14461 0.32996 0.0
H5422 H 0.45206 0.16847 0.32066 0.0
H5423 H 0.47109 0.16052 0.32398 0.0
C5424 C 0.67067 0.83089 0.45221 0.0
C5425 C 0.68153 0.83384 0.44782 0.0
C5426 C 0.66742 0.83442 0.46322 0.0
C5427 C 0.67648 0.85183 0.48878 0.0
H5428 H 0.66607 0.82477 0.50529 0.0
C5429 C 0.68864 0.84154 0.53546 0.0
C5430 C 0.68155 0.83418 0.54191 0.0
C5431 C 0.68542 0.84489 0.52437 0.0
C5432 C 0.66867 0.83256 0.50087 0.0
H5433 H 0.69711 0.84358 0.45106 0.0
H5434 H 0.69163 0.84941 0.47042 0.0
H5435 H 0.66609 0.82467 0.48454 0.0
H5436 H 0.66497 0.82564 0.54241 0.0
H5437 H 0.65918 0.83176 0.52321 0.0
H5438 H 0.67961 0.85944 0.50529 0.0
C5439 C 0.68551 0.84455 0.46533 0.0
C5440 C 0.66868 0.8325 0.48889 0.0
C5441 C 0.6887 0.84114 0.45425 0.0
C5442 C 0.6707 0.83116 0.53754 0.0
C5443 C 0.6674 0.83463 0.52652 0.0
C5444 C 0.67645 0.85189 0.50083 0.0
C5445 C 0.67504 0.8408 0.47013 0.0
C5446 C 0.67294 0.84197 0.48269 0.0
C5447 C 0.67498 0.84104 0.51958 0.0
C5448 C 0.6729 0.8421 0.507 0.0
H5449 H 0.66489 0.82542 0.44735 0.0
H5450 H 0.65917 0.83162 0.46655 0.0
H5451 H 0.67966 0.85933 0.48424 0.0
H5452 H 0.69704 0.84404 0.53863 0.0
H5453 H 0.6915 0.84977 0.51927 0.0
C5454 C 0.68911 0.1458 0.45176 0.0
C5455 C 0.68306 0.15558 0.448 0.0
C5456 C 0.68719 0.14132 0.46277 0.0
C5457 C 0.66856 0.14385 0.48885 0.0
H5458 H 0.69768 0.14234 0.50503 0.0
C5459 C 0.67504 0.16028 0.53451 0.0
C5460 C 0.68383 0.15573 0.54145 0.0
C5461 C 0.67296 0.15577 0.52359 0.0
C5462 C 0.68944 0.14239 0.50069 0.0
H5463 H 0.66959 0.16772 0.4524 0.0
H5464 H 0.66637 0.16005 0.47157 0.0
H5465 H 0.6975 0.1423 0.4842 0.0
H5466 H 0.69665 0.14223 0.5428 0.0
H5467 H 0.69296 0.13429 0.52368 0.0
H5468 H 0.66057 0.14463 0.50544 0.0
C5469 C 0.67253 0.15575 0.46606 0.0
C5470 C 0.68933 0.14237 0.48869 0.0
C5471 C 0.67445 0.16023 0.45508 0.0
C5472 C 0.68989 0.146 0.5376 0.0
C5473 C 0.68781 0.14147 0.52664 0.0
C5474 C 0.66866 0.14387 0.50088 0.0
C5475 C 0.67918 0.14653 0.47019 0.0
C5476 C 0.67893 0.14363 0.48264 0.0
C5477 C 0.67961 0.14659 0.51935 0.0
C5478 C 0.67915 0.14366 0.50692 0.0
H5479 H 0.69573 0.14196 0.44645 0.0
H5480 H 0.69234 0.1341 0.46565 0.0
H5481 H 0.66039 0.14461 0.48442 0.0
H5482 H 0.67016 0.16773 0.53727 0.0
H5483 H 0.66666 0.16001 0.51818 0.0
C5484 C 0.84364 0.68947 0.53822 0.0
C5485 C 0.83382 0.68352 0.542 0.0
C5486 C 0.8481 0.68748 0.52722 0.0
C5487 C 0.84531 0.66881 0.50116 0.0
H5488 H 0.84715 0.69793 0.48495 0.0
C5489 C 0.82909 0.6754 0.45539 0.0
C5490 C 0.83383 0.68408 0.44844 0.0
C5491 C 0.83349 0.67332 0.46637 0.0
C5492 C 0.847 0.68968 0.4893 0.0
H5493 H 0.82158 0.6701 0.53766 0.0
H5494 H 0.8292 0.66675 0.5185 0.0
H5495 H 0.8472 0.69776 0.50579 0.0
H5496 H 0.84749 0.69674 0.44713 0.0
H5497 H 0.85522 0.69307 0.46633 0.0
H5498 H 0.84442 0.66083 0.48456 0.0
C5499 C 0.83356 0.6729 0.52399 0.0
C5500 C 0.84703 0.68958 0.50131 0.0
C5501 C 0.82911 0.67489 0.53496 0.0
C5502 C 0.84359 0.69006 0.45234 0.0
C5503 C 0.84799 0.68799 0.46335 0.0
C5504 C 0.84528 0.66891 0.48913 0.0
C5505 C 0.84282 0.67948 0.51982 0.0
C5506 C 0.84567 0.6792 0.50737 0.0
C5507 C 0.84272 0.67988 0.47064 0.0
C5508 C 0.8456 0.6794 0.48308 0.0
H5509 H 0.84753 0.6961 0.5435 0.0
H5510 H 0.85535 0.69257 0.52431 0.0
H5511 H 0.84447 0.66065 0.50559 0.0
H5512 H 0.82161 0.67058 0.4526 0.0
H5513 H 0.82913 0.6671 0.47178 0.0
C5514 C 0.30125 0.84491 0.45236 0.0
C5515 C 0.30719 0.8351 0.44851 0.0
C5516 C 0.30325 0.8493 0.46338 0.0
C5517 C 0.32196 0.84634 0.4894 0.0
H5518 H 0.29292 0.84825 0.50567 0.0
C5519 C 0.31527 0.82975 0.535 0.0
C5520 C 0.30666 0.8345 0.542 0.0
C5521 C 0.3174 0.83424 0.52407 0.0
C5522 C 0.30114 0.84808 0.5013 0.0
H5523 H 0.32058 0.82281 0.45279 0.0
H5524 H 0.32393 0.83031 0.47199 0.0
H5525 H 0.29304 0.84841 0.48484 0.0
H5526 H 0.29419 0.84832 0.54347 0.0
H5527 H 0.29793 0.85621 0.52435 0.0
H5528 H 0.32998 0.8453 0.50597 0.0
C5529 C 0.31779 0.83471 0.46653 0.0
C5530 C 0.30122 0.84817 0.4893 0.0
C5531 C 0.31579 0.83033 0.45553 0.0
C5532 C 0.30081 0.84439 0.53822 0.0
C5533 C 0.30293 0.8489 0.52726 0.0
C5534 C 0.32189 0.84624 0.50143 0.0
C5535 C 0.31124 0.84397 0.47075 0.0
C5536 C 0.31157 0.84678 0.48321 0.0
C5537 C 0.31095 0.8436 0.51991 0.0
C5538 C 0.31143 0.84659 0.50749 0.0
H5539 H 0.29464 0.84884 0.44709 0.0
H5540 H 0.29819 0.85655 0.46633 0.0
H5541 H 0.3301 0.84548 0.48495 0.0
H5542 H 0.31999 0.82217 0.5377 0.0
H5543 H 0.32355 0.82987 0.51861 0.0
C5544 C 0.14972 0.30181 0.45507 0.0
C5545 C 0.15715 0.30878 0.44855 0.0
C5546 C 0.1466 0.30506 0.46622 0.0
C5547 C 0.15949 0.32142 0.4897 0.0
H5548 H 0.13236 0.31154 0.5064 0.0
C5549 C 0.16106 0.31986 0.53841 0.0
C5550 C 0.15763 0.30919 0.54295 0.0
C5551 C 0.1577 0.32312 0.52735 0.0
C5552 C 0.13997 0.3144 0.50185 0.0
H5553 H 0.16609 0.32516 0.44804 0.0
H5554 H 0.16039 0.33097 0.46737 0.0
H5555 H 0.13227 0.31137 0.48535 0.0
H5556 H 0.14719 0.29402 0.53989 0.0
H5557 H 0.14164 0.2995 0.52046 0.0
H5558 H 0.16746 0.32386 0.50601 0.0
C5559 C 0.15728 0.32283 0.46404 0.0
C5560 C 0.13992 0.3143 0.4898 0.0
C5561 C 0.16051 0.31952 0.45296 0.0
C5562 C 0.15 0.30228 0.53659 0.0
C5563 C 0.14676 0.30547 0.52546 0.0
C5564 C 0.15955 0.32151 0.50168 0.0
C5565 C 0.15076 0.31538 0.47101 0.0
C5566 C 0.14982 0.31748 0.48359 0.0
C5567 C 0.15099 0.31569 0.52052 0.0
C5568 C 0.14993 0.31766 0.50792 0.0
H5569 H 0.14697 0.29349 0.45188 0.0
H5570 H 0.14162 0.29907 0.47135 0.0
H5571 H 0.16736 0.32373 0.48526 0.0
H5572 H 0.16679 0.32545 0.54319 0.0
H5573 H 0.16087 0.33119 0.52391 0.0
C5574 C 0.30055 0.14578 0.53813 0.0
C5575 C 0.30658 0.15552 0.54202 0.0
C5576 C 0.3026 0.14135 0.52714 0.0
C5577 C 0.32159 0.14405 0.50129 0.0
H5578 H 0.29267 0.14246 0.48475 0.0
C5579 C 0.31549 0.1607 0.45562 0.0
C5580 C 0.30686 0.15604 0.44855 0.0
C5581 C 0.31748 0.15617 0.46657 0.0
C5582 C 0.30086 0.14254 0.48919 0.0
H5583 H 0.32017 0.16763 0.53787 0.0
H5584 H 0.32362 0.16006 0.51872 0.0
H5585 H 0.2926 0.14233 0.50558 0.0
H5586 H 0.29425 0.14236 0.44698 0.0
H5587 H 0.29776 0.13442 0.46612 0.0
H5588 H 0.32977 0.14498 0.4848 0.0
C5589 C 0.31737 0.15575 0.52412 0.0
C5590 C 0.30082 0.14246 0.5012 0.0
C5591 C 0.31532 0.16017 0.53509 0.0
C5592 C 0.30088 0.14621 0.45228 0.0
C5593 C 0.30286 0.14168 0.46325 0.0
C5594 C 0.32163 0.14414 0.48926 0.0
C5595 C 0.31073 0.14657 0.51984 0.0
C5596 C 0.31114 0.14374 0.50738 0.0
C5597 C 0.31089 0.14688 0.47067 0.0
C5598 C 0.31122 0.14391 0.4831 0.0
H5599 H 0.29383 0.14194 0.54333 0.0
H5600 H 0.29747 0.13416 0.52415 0.0
H5601 H 0.3297 0.14482 0.50582 0.0
H5602 H 0.3203 0.16823 0.45296 0.0
H5603 H 0.32364 0.16047 0.47208 0.0
C5604 C 0.82967 0.31507 0.4551 0.0
C5605 C 0.83425 0.30632 0.44813 0.0
C5606 C 0.83414 0.31709 0.46605 0.0
C5607 C 0.8474 0.30053 0.48895 0.0
H5608 H 0.84544 0.32959 0.50524 0.0
C5609 C 0.84412 0.30082 0.53789 0.0
C5610 C 0.83445 0.307 0.54171 0.0
C5611 C 0.84857 0.30269 0.52687 0.0
C5612 C 0.84612 0.32142 0.5008 0.0
H5613 H 0.84773 0.29348 0.44678 0.0
H5614 H 0.85558 0.29705 0.46595 0.0
H5615 H 0.84536 0.32942 0.48421 0.0
H5616 H 0.82251 0.32067 0.53739 0.0
H5617 H 0.83011 0.32382 0.51819 0.0
H5618 H 0.84746 0.29244 0.50543 0.0
C5619 C 0.84842 0.30224 0.46299 0.0
C5620 C 0.84608 0.32132 0.48877 0.0
C5621 C 0.84395 0.30022 0.452 0.0
C5622 C 0.82991 0.31571 0.53467 0.0
C5623 C 0.83435 0.31759 0.52367 0.0
C5624 C 0.84744 0.30062 0.50095 0.0
C5625 C 0.84329 0.31041 0.47029 0.0
C5626 C 0.8462 0.31084 0.48273 0.0
C5627 C 0.84345 0.3108 0.51948 0.0
C5628 C 0.84628 0.31103 0.50701 0.0
H5629 H 0.82224 0.31997 0.45233 0.0
H5630 H 0.82989 0.32338 0.47147 0.0
H5631 H 0.84739 0.29228 0.48459 0.0
H5632 H 0.84788 0.29411 0.54317 0.0
H5633 H 0.85569 0.29744 0.52394 0.0
C5634 C 0.16132 0.67054 0.53814 0.0
C5635 C 0.15789 0.68113 0.54285 0.0
C5636 C 0.15807 0.66752 0.52698 0.0
C5637 C 0.14058 0.6767 0.50151 0.0
H5638 H 0.16804 0.66753 0.48496 0.0
C5639 C 0.15032 0.68938 0.45471 0.0
C5640 C 0.15772 0.6824 0.44817 0.0
C5641 C 0.14726 0.68616 0.46589 0.0
C5642 C 0.16016 0.6698 0.48938 0.0
H5643 H 0.14759 0.69642 0.53999 0.0
H5644 H 0.14223 0.69136 0.52038 0.0
H5645 H 0.16805 0.66721 0.50571 0.0
H5646 H 0.1667 0.66605 0.44769 0.0
H5647 H 0.16111 0.66029 0.46706 0.0
H5648 H 0.13295 0.67984 0.485 0.0
C5649 C 0.14726 0.68526 0.52532 0.0
C5650 C 0.16016 0.66961 0.50136 0.0
C5651 C 0.1504 0.68821 0.53656 0.0
C5652 C 0.16114 0.67169 0.45261 0.0
C5653 C 0.15797 0.66842 0.46372 0.0
C5654 C 0.14058 0.67689 0.48946 0.0
C5655 C 0.15148 0.67512 0.52023 0.0
C5656 C 0.15051 0.67337 0.5076 0.0
C5657 C 0.15145 0.67586 0.47069 0.0
C5658 C 0.1505 0.67376 0.48327 0.0
H5659 H 0.16696 0.66481 0.54287 0.0
H5660 H 0.16122 0.6595 0.52341 0.0
H5661 H 0.13295 0.67951 0.50606 0.0
H5662 H 0.14753 0.69767 0.4515 0.0
H5663 H 0.14229 0.69214 0.47102 0.0
C5664 C 0.15967 0.10397 0.29457 0.0
C5665 C 0.16377 0.09739 0.30385 0.0
C5666 C 0.14898 0.10936 0.29517 0.0
C5667 C 0.12942 0.12197 0.31592 0.0
H5668 H 0.11003 0.12562 0.289 0.0
C5669 C 0.09393 0.15669 0.31381 0.0
C5670 C 0.09497 0.16371 0.304 0.0
C5671 C 0.09973 0.14614 0.3144 0.0
C5672 C 0.11531 0.12462 0.29662 0.0
H5673 H 0.15968 0.09101 0.32092 0.0
H5674 H 0.14096 0.10062 0.32201 0.0
H5675 H 0.12525 0.11114 0.28896 0.0
H5676 H 0.10239 0.1649 0.28691 0.0
H5677 H 0.11246 0.14664 0.28795 0.0
H5678 H 0.11988 0.13586 0.32335 0.0
C5679 C 0.14608 0.10155 0.31428 0.0
C5680 C 0.12401 0.11635 0.2966 0.0
C5681 C 0.15677 0.09605 0.31363 0.0
C5682 C 0.10147 0.15974 0.29462 0.0
C5683 C 0.10715 0.1492 0.29517 0.0
C5684 C 0.12072 0.13027 0.31594 0.0
C5685 C 0.14214 0.10836 0.30509 0.0
C5686 C 0.13146 0.11527 0.30606 0.0
C5687 C 0.10653 0.14238 0.30514 0.0
C5688 C 0.1139 0.132 0.3061 0.0
H5689 H 0.16481 0.10514 0.28688 0.0
H5690 H 0.14627 0.11469 0.28802 0.0
H5691 H 0.13506 0.12138 0.32332 0.0
H5692 H 0.08896 0.15951 0.32117 0.0
H5693 H 0.09906 0.14103 0.32217 0.0
C5694 C 0.88744 0.16119 0.29318 0.0
C5695 C 0.89413 0.165 0.30251 0.0
C5696 C 0.8817 0.15068 0.29368 0.0
C5697 C 0.8685 0.13138 0.31442 0.0
H5698 H 0.8636 0.11253 0.2873 0.0
C5699 C 0.83305 0.09647 0.31258 0.0
C5700 C 0.82582 0.09768 0.30294 0.0
C5701 C 0.84361 0.10225 0.31303 0.0
C5702 C 0.86493 0.11767 0.29497 0.0
H5703 H 0.90038 0.16052 0.31953 0.0
H5704 H 0.89019 0.14209 0.32043 0.0
H5705 H 0.87864 0.12721 0.28719 0.0
H5706 H 0.82423 0.10548 0.28604 0.0
H5707 H 0.84255 0.11551 0.28685 0.0
H5708 H 0.85444 0.12219 0.322 0.0
C5709 C 0.88941 0.14732 0.31274 0.0
C5710 C 0.87353 0.12606 0.29491 0.0
C5711 C 0.89527 0.15784 0.31221 0.0
C5712 C 0.82956 0.10441 0.29362 0.0
C5713 C 0.84012 0.11007 0.29403 0.0
C5714 C 0.85989 0.12296 0.31448 0.0
C5715 C 0.88244 0.14371 0.30354 0.0
C5716 C 0.87509 0.13331 0.30446 0.0
C5717 C 0.84719 0.1092 0.3038 0.0
C5718 C 0.85773 0.11635 0.30459 0.0
H5719 H 0.88643 0.16646 0.28555 0.0
H5720 H 0.87626 0.14824 0.28651 0.0
H5721 H 0.86944 0.13687 0.32189 0.0
H5722 H 0.83042 0.09132 0.31989 0.0
H5723 H 0.84892 0.1014 0.32065 0.0
C5724 C 0.89568 0.83435 0.31404 0.0
C5725 C 0.8946 0.82754 0.30409 0.0
C5726 C 0.89005 0.84499 0.31479 0.0
C5727 C 0.86931 0.86117 0.31646 0.0
H5728 H 0.86522 0.88081 0.28977 0.0
C5729 C 0.83083 0.88827 0.29527 0.0
C5730 C 0.82677 0.89477 0.30461 0.0
C5731 C 0.84146 0.88275 0.29584 0.0
C5732 C 0.86634 0.87546 0.29733 0.0
H5733 H 0.88728 0.82681 0.28693 0.0
H5734 H 0.8775 0.84521 0.28824 0.0
H5735 H 0.88025 0.86613 0.28968 0.0
H5736 H 0.83085 0.90088 0.32178 0.0
H5737 H 0.84945 0.89103 0.32284 0.0
H5738 H 0.85503 0.87013 0.32388 0.0
C5739 C 0.88272 0.84242 0.29545 0.0
C5740 C 0.87493 0.86707 0.29728 0.0
C5741 C 0.88823 0.8318 0.29474 0.0
C5742 C 0.83374 0.8959 0.31444 0.0
C5743 C 0.84436 0.89026 0.31507 0.0
C5744 C 0.86072 0.86959 0.31652 0.0
C5745 C 0.88338 0.84904 0.30555 0.0
C5746 C 0.87618 0.85952 0.30664 0.0
C5747 C 0.84826 0.88353 0.30581 0.0
C5748 C 0.85884 0.87648 0.30675 0.0
H5749 H 0.90056 0.83131 0.32138 0.0
H5750 H 0.89074 0.84993 0.32266 0.0
H5751 H 0.87001 0.85544 0.32378 0.0
H5752 H 0.82571 0.88726 0.28754 0.0
H5753 H 0.84414 0.87749 0.28863 0.0
C5754 C 0.10302 0.83028 0.29326 0.0
C5755 C 0.09623 0.82657 0.30254 0.0
C5756 C 0.10887 0.84074 0.29377 0.0
C5757 C 0.12209 0.86005 0.31448 0.0
H5758 H 0.1271 0.87881 0.28733 0.0
C5759 C 0.15758 0.89494 0.31266 0.0
C5760 C 0.16482 0.89374 0.30303 0.0
C5761 C 0.14702 0.88914 0.3131 0.0
C5762 C 0.12574 0.87369 0.295 0.0
H5763 H 0.08991 0.83115 0.3195 0.0
H5764 H 0.10028 0.84949 0.32043 0.0
H5765 H 0.11204 0.86416 0.28721 0.0
H5766 H 0.16644 0.88592 0.28615 0.0
H5767 H 0.14814 0.87586 0.28694 0.0
H5768 H 0.13615 0.86922 0.32208 0.0
C5769 C 0.10106 0.84423 0.31277 0.0
C5770 C 0.11713 0.86532 0.29494 0.0
C5771 C 0.0951 0.83376 0.31222 0.0
C5772 C 0.1611 0.88699 0.29371 0.0
C5773 C 0.15055 0.88131 0.29412 0.0
C5774 C 0.13072 0.86844 0.31455 0.0
C5775 C 0.10812 0.84774 0.30359 0.0
C5776 C 0.11552 0.85811 0.30451 0.0
C5777 C 0.14347 0.88217 0.30388 0.0
C5778 C 0.13292 0.87503 0.30464 0.0
H5779 H 0.10403 0.82498 0.28565 0.0
H5780 H 0.11437 0.84311 0.28662 0.0
H5781 H 0.1211 0.85457 0.32196 0.0
H5782 H 0.16019 0.9001 0.31997 0.0
H5783 H 0.14171 0.89 0.32071 0.0
C5784 C 0.15779 0.88924 0.69484 0.0
C5785 C 0.16226 0.89556 0.68555 0.0
C5786 C 0.14708 0.88392 0.69399 0.0
C5787 C 0.12851 0.87075 0.67273 0.0
H5788 H 0.10845 0.86688 0.69912 0.0
C5789 C 0.0941 0.83486 0.67455 0.0
C5790 C 0.09525 0.828 0.68446 0.0
C5791 C 0.09954 0.8456 0.6739 0.0
C5792 C 0.11391 0.86795 0.69164 0.0
H5793 H 0.15878 0.90165 0.66825 0.0
H5794 H 0.14002 0.89215 0.66672 0.0
H5795 H 0.12319 0.88186 0.69937 0.0
H5796 H 0.10251 0.82727 0.70165 0.0
H5797 H 0.11194 0.84588 0.70052 0.0
H5798 H 0.11963 0.85643 0.66525 0.0
C5799 C 0.14486 0.89136 0.67465 0.0
C5800 C 0.12233 0.87651 0.69178 0.0
C5801 C 0.15557 0.89681 0.67554 0.0
C5802 C 0.10151 0.8323 0.69386 0.0
C5803 C 0.10682 0.84304 0.69326 0.0
C5804 C 0.12006 0.86218 0.67258 0.0
C5805 C 0.1406 0.88472 0.68382 0.0
C5806 C 0.13005 0.87765 0.68255 0.0
C5807 C 0.10607 0.84972 0.68322 0.0
C5808 C 0.11303 0.86037 0.68225 0.0
H5809 H 0.16268 0.88817 0.7027 0.0
H5810 H 0.14412 0.87872 0.70115 0.0
H5811 H 0.13437 0.87138 0.66551 0.0
H5812 H 0.0893 0.83179 0.66717 0.0
H5813 H 0.09881 0.8506 0.66606 0.0
C5814 C 0.15596 0.09474 0.6769 0.0
C5815 C 0.16303 0.09597 0.68665 0.0
C5816 C 0.14533 0.10038 0.67634 0.0
C5817 C 0.1291 0.12108 0.67474 0.0
H5818 H 0.11011 0.12553 0.70182 0.0
C5819 C 0.10253 0.15987 0.69596 0.0
C5820 C 0.09585 0.16382 0.6867 0.0
C5821 C 0.10798 0.1492 0.69543 0.0
C5822 C 0.11528 0.12431 0.69416 0.0
H5823 H 0.16424 0.10357 0.70367 0.0
H5824 H 0.14582 0.11336 0.70267 0.0
H5825 H 0.12485 0.11056 0.70181 0.0
H5826 H 0.08933 0.1595 0.66974 0.0
H5827 H 0.09907 0.14082 0.66875 0.0
H5828 H 0.11991 0.13521 0.6673 0.0
C5829 C 0.14841 0.10802 0.69548 0.0
C5830 C 0.1237 0.11575 0.69415 0.0
C5831 C 0.15904 0.1025 0.696 0.0
C5832 C 0.09445 0.15669 0.67701 0.0
C5833 C 0.10003 0.14603 0.67642 0.0
C5834 C 0.12065 0.12964 0.67474 0.0
C5835 C 0.14153 0.10721 0.68557 0.0
C5836 C 0.13103 0.11438 0.68463 0.0
C5837 C 0.10696 0.14225 0.68559 0.0
C5838 C 0.114 0.13165 0.68464 0.0
H5839 H 0.15879 0.08974 0.66957 0.0
H5840 H 0.14018 0.09956 0.66862 0.0
H5841 H 0.13465 0.12028 0.66729 0.0
H5842 H 0.10373 0.16511 0.70358 0.0
H5843 H 0.1134 0.14661 0.70256 0.0
C5844 C 0.88608 0.16043 0.69639 0.0
C5845 C 0.89276 0.16419 0.68704 0.0
C5846 C 0.88052 0.14981 0.69603 0.0
C5847 C 0.87289 0.12501 0.69517 0.0
H5848 H 0.85374 0.12054 0.66821 0.0
C5849 C 0.83238 0.09512 0.67804 0.0
C5850 C 0.82518 0.09652 0.68767 0.0
C5851 C 0.843 0.10078 0.6775 0.0
C5852 C 0.85922 0.12147 0.67569 0.0
H5853 H 0.89917 0.15955 0.67013 0.0
H5854 H 0.88928 0.14095 0.66946 0.0
H5855 H 0.86855 0.1354 0.66806 0.0
H5856 H 0.82373 0.10448 0.7045 0.0
H5857 H 0.84214 0.11431 0.70355 0.0
H5858 H 0.86317 0.11146 0.703 0.0
C5859 C 0.88838 0.14628 0.67706 0.0
C5860 C 0.86772 0.12999 0.6756 0.0
C5861 C 0.89406 0.15691 0.67746 0.0
C5862 C 0.82903 0.10327 0.69693 0.0
C5863 C 0.83965 0.10882 0.69644 0.0
C5864 C 0.86441 0.1165 0.69525 0.0
C5865 C 0.88145 0.1427 0.68629 0.0
C5866 C 0.8743 0.13216 0.68551 0.0
C5867 C 0.84667 0.10781 0.68664 0.0
C5868 C 0.85718 0.11497 0.68569 0.0
H5869 H 0.88496 0.16579 0.70393 0.0
H5870 H 0.8751 0.14738 0.70322 0.0
H5871 H 0.87801 0.12634 0.70285 0.0
H5872 H 0.82967 0.08995 0.67077 0.0
H5873 H 0.84827 0.09981 0.66987 0.0
C5874 C 0.8941 0.8324 0.67715 0.0
C5875 C 0.89271 0.82539 0.68692 0.0
C5876 C 0.88852 0.84306 0.67644 0.0
C5877 C 0.87337 0.86498 0.69399 0.0
H5878 H 0.85416 0.86903 0.66701 0.0
C5879 C 0.82985 0.88729 0.69547 0.0
C5880 C 0.82608 0.89396 0.68612 0.0
C5881 C 0.84036 0.88155 0.69501 0.0
C5882 C 0.85967 0.86821 0.67449 0.0
H5883 H 0.88481 0.82429 0.70381 0.0
H5884 H 0.87514 0.84276 0.70257 0.0
H5885 H 0.86876 0.85396 0.66718 0.0
H5886 H 0.83058 0.90017 0.66909 0.0
H5887 H 0.84899 0.88995 0.66824 0.0
H5888 H 0.86388 0.87886 0.70152 0.0
C5889 C 0.88056 0.84009 0.69547 0.0
C5890 C 0.86803 0.85957 0.67458 0.0
C5891 C 0.88601 0.82944 0.69613 0.0
C5892 C 0.83324 0.89506 0.67642 0.0
C5893 C 0.84375 0.88921 0.67592 0.0
C5894 C 0.86502 0.8736 0.69389 0.0
C5895 C 0.8816 0.84694 0.68556 0.0
C5896 C 0.87463 0.85757 0.68452 0.0
C5897 C 0.84734 0.88229 0.68517 0.0
C5898 C 0.85776 0.87498 0.68432 0.0
H5899 H 0.89923 0.82952 0.66992 0.0
H5900 H 0.8895 0.84818 0.66872 0.0
H5901 H 0.8785 0.86377 0.70169 0.0
H5902 H 0.82458 0.8863 0.70309 0.0
H5903 H 0.8428 0.87614 0.7022 0.0
C5904 C 0.31543 0.15706 0.09572 0.0
C5905 C 0.30538 0.16371 0.09684 0.0
C5906 C 0.31625 0.14631 0.10112 0.0
C5907 C 0.29888 0.12356 0.11531 0.0
H5908 H 0.32495 0.12061 0.13594 0.0
C5909 C 0.29585 0.10193 0.15906 0.0
C5910 C 0.30521 0.09573 0.16352 0.0
C5911 C 0.29666 0.10739 0.14842 0.0
C5912 C 0.31775 0.12111 0.13004 0.0
H5913 H 0.28813 0.16406 0.10397 0.0
H5914 H 0.28956 0.14543 0.11332 0.0
H5915 H 0.32499 0.1356 0.12125 0.0
H5916 H 0.32266 0.09002 0.1601 0.0
H5917 H 0.32412 0.09976 0.14146 0.0
H5918 H 0.29138 0.10947 0.12451 0.0
C5919 C 0.2968 0.14844 0.10827 0.0
C5920 C 0.31778 0.12971 0.12161 0.0
C5921 C 0.29602 0.15919 0.10301 0.0
C5922 C 0.3153 0.09476 0.1569 0.0
C5923 C 0.31616 0.10035 0.14626 0.0
C5924 C 0.29886 0.11498 0.12372 0.0
C5925 C 0.30698 0.14197 0.10757 0.0
C5926 C 0.30812 0.13133 0.11452 0.0
C5927 C 0.30689 0.10684 0.14199 0.0
C5928 C 0.30807 0.11401 0.1315 0.0
H5929 H 0.32278 0.16031 0.091 0.0
H5930 H 0.3242 0.14148 0.10043 0.0
H5931 H 0.29142 0.12448 0.1098 0.0
H5932 H 0.28793 0.10279 0.16391 0.0
H5933 H 0.28943 0.11247 0.14546 0.0
C5934 C 0.88808 0.2944 0.15913 0.0
C5935 C 0.89472 0.30373 0.16304 0.0
C5936 C 0.88243 0.29495 0.14857 0.0
C5937 C 0.87458 0.29631 0.12386 0.0
H5938 H 0.85525 0.32326 0.12009 0.0
C5939 C 0.83385 0.31385 0.09448 0.0
C5940 C 0.82674 0.30411 0.09566 0.0
C5941 C 0.84447 0.31436 0.10015 0.0
C5942 C 0.86078 0.31579 0.12082 0.0
H5943 H 0.90097 0.3208 0.15871 0.0
H5944 H 0.89093 0.32178 0.14021 0.0
H5945 H 0.87014 0.32316 0.13488 0.0
H5946 H 0.82547 0.28706 0.10322 0.0
H5947 H 0.84387 0.28796 0.11304 0.0
H5948 H 0.86485 0.28873 0.11017 0.0
C5949 C 0.89013 0.31406 0.14539 0.0
C5950 C 0.86931 0.31573 0.1293 0.0
C5951 C 0.8959 0.31348 0.15595 0.0
C5952 C 0.83069 0.29472 0.10218 0.0
C5953 C 0.84131 0.29519 0.10773 0.0
C5954 C 0.86606 0.29637 0.11539 0.0
C5955 C 0.88322 0.30485 0.14167 0.0
C5956 C 0.87597 0.30581 0.13121 0.0
C5957 C 0.84824 0.30508 0.10695 0.0
C5958 C 0.85877 0.30594 0.1141 0.0
H5959 H 0.88704 0.28674 0.16435 0.0
H5960 H 0.87704 0.28777 0.14604 0.0
H5961 H 0.87974 0.28863 0.12499 0.0
H5962 H 0.83105 0.32121 0.0895 0.0
H5963 H 0.84966 0.32207 0.09936 0.0
C5964 C 0.67666 0.89486 0.15908 0.0
C5965 C 0.68648 0.89375 0.16607 0.0
C5966 C 0.676 0.88909 0.14852 0.0
C5967 C 0.69368 0.87389 0.12675 0.0
H5968 H 0.66698 0.85422 0.12302 0.0
C5969 C 0.69575 0.83027 0.10462 0.0
C5970 C 0.68643 0.8263 0.09801 0.0
C5971 C 0.69513 0.84079 0.11035 0.0
C5972 C 0.67438 0.85985 0.12375 0.0
H5973 H 0.70349 0.88612 0.16723 0.0
H5974 H 0.70232 0.87611 0.14893 0.0
H5975 H 0.66701 0.86898 0.13795 0.0
H5976 H 0.66927 0.83045 0.09194 0.0
H5977 H 0.66814 0.84888 0.10215 0.0
H5978 H 0.70127 0.8644 0.11292 0.0
C5979 C 0.69515 0.88146 0.15154 0.0
C5980 C 0.67439 0.8683 0.13231 0.0
C5981 C 0.69577 0.88711 0.1621 0.0
C5982 C 0.67658 0.83327 0.09699 0.0
C5983 C 0.67592 0.84379 0.10284 0.0
C5984 C 0.69367 0.86546 0.1182 0.0
C5985 C 0.6852 0.88224 0.14472 0.0
C5986 C 0.68423 0.87508 0.1342 0.0
C5987 C 0.68515 0.84758 0.10968 0.0
C5988 C 0.6842 0.85804 0.11693 0.0
H5989 H 0.66936 0.89993 0.1619 0.0
H5990 H 0.66824 0.88986 0.14341 0.0
H5991 H 0.7013 0.87916 0.12787 0.0
H5992 H 0.70349 0.82516 0.10554 0.0
H5993 H 0.70232 0.84337 0.11569 0.0
C5994 C 0.15536 0.67657 0.0939 0.0
C5995 C 0.16243 0.68631 0.0952 0.0
C5996 C 0.14462 0.67607 0.09934 0.0
C5997 C 0.12277 0.69403 0.11424 0.0
H5998 H 0.11873 0.66735 0.13388 0.0
C5999 C 0.10137 0.69624 0.1582 0.0
C6000 C 0.09485 0.68693 0.16231 0.0
C6001 C 0.10674 0.69566 0.14749 0.0
C6002 C 0.11953 0.67474 0.12826 0.0
H6003 H 0.16354 0.70339 0.1027 0.0
H6004 H 0.14494 0.70251 0.11213 0.0
H6005 H 0.13362 0.66719 0.11913 0.0
H6006 H 0.08844 0.66986 0.15819 0.0
H6007 H 0.098 0.66881 0.13944 0.0
H6008 H 0.10908 0.70181 0.12379 0.0
C6009 C 0.14761 0.69527 0.1069 0.0
C6010 C 0.12807 0.67465 0.11979 0.0
C6011 C 0.15834 0.69572 0.10158 0.0
C6012 C 0.09344 0.67717 0.15527 0.0
C6013 C 0.09892 0.67655 0.14456 0.0
C6014 C 0.11424 0.69412 0.12269 0.0
C6015 C 0.14072 0.68537 0.10603 0.0
C6016 C 0.1301 0.68449 0.11304 0.0
C6017 C 0.10578 0.68573 0.14066 0.0
C6018 C 0.11288 0.68467 0.13011 0.0
H6019 H 0.15826 0.66918 0.08901 0.0
H6020 H 0.13946 0.66835 0.09848 0.0
H6021 H 0.12399 0.70165 0.109 0.0
H6022 H 0.10257 0.70391 0.16337 0.0
H6023 H 0.11209 0.70281 0.14481 0.0
C6024 C 0.29527 0.88614 0.82927 0.0
C6025 C 0.30452 0.89282 0.82529 0.0
C6026 C 0.296 0.88034 0.83973 0.0
C6027 C 0.31694 0.86687 0.85853 0.0
H6028 H 0.29023 0.86268 0.87809 0.0
C6029 C 0.31488 0.83139 0.89348 0.0
C6030 C 0.30502 0.82444 0.89242 0.0
C6031 C 0.31556 0.84194 0.88769 0.0
C6032 C 0.29779 0.86382 0.87276 0.0
H6033 H 0.32169 0.89895 0.82935 0.0
H6034 H 0.32301 0.88861 0.84768 0.0
H6035 H 0.2901 0.8777 0.86341 0.0
H6036 H 0.28798 0.82333 0.88486 0.0
H6037 H 0.28917 0.84162 0.87483 0.0
H6038 H 0.3244 0.85261 0.86751 0.0
C6039 C 0.3152 0.88792 0.84264 0.0
C6040 C 0.29772 0.87241 0.86437 0.0
C6041 C 0.31442 0.89385 0.83218 0.0
C6042 C 0.29573 0.82843 0.88581 0.0
C6043 C 0.29636 0.83899 0.88015 0.0
C6044 C 0.31701 0.85827 0.86694 0.0
C6045 C 0.30603 0.88101 0.84645 0.0
C6046 C 0.3071 0.8737 0.85685 0.0
C6047 C 0.30632 0.84579 0.8809 0.0
C6048 C 0.30725 0.85636 0.87381 0.0
H6049 H 0.2875 0.88521 0.8242 0.0
H6050 H 0.28886 0.87494 0.84234 0.0
H6051 H 0.32427 0.86763 0.85282 0.0
H6052 H 0.32219 0.82855 0.89853 0.0
H6053 H 0.32334 0.84704 0.88843 0.0
C6054 C 0.15775 0.29611 0.88855 0.0
C6055 C 0.1622 0.30551 0.89472 0.0
C6056 C 0.14704 0.29684 0.88322 0.0
C6057 C 0.12848 0.31787 0.86969 0.0
H6058 H 0.10846 0.29138 0.86615 0.0
C6059 C 0.09449 0.31551 0.83354 0.0
C6060 C 0.09569 0.30548 0.82686 0.0
C6061 C 0.09977 0.3163 0.84435 0.0
C6062 C 0.11391 0.29889 0.86712 0.0
H6063 H 0.15867 0.3229 0.90055 0.0
H6064 H 0.13991 0.32422 0.89103 0.0
H6065 H 0.12314 0.29138 0.88118 0.0
H6066 H 0.10281 0.28822 0.82654 0.0
H6067 H 0.11197 0.2896 0.84525 0.0
H6068 H 0.11968 0.32511 0.85523 0.0
C6069 C 0.14477 0.31629 0.89036 0.0
C6070 C 0.1223 0.29889 0.87571 0.0
C6071 C 0.15548 0.31552 0.89582 0.0
C6072 C 0.10179 0.2961 0.83142 0.0
C6073 C 0.10694 0.29684 0.84222 0.0
C6074 C 0.12008 0.31787 0.86109 0.0
C6075 C 0.14053 0.30701 0.88386 0.0
C6076 C 0.13001 0.30815 0.87674 0.0
C6077 C 0.10618 0.30702 0.84871 0.0
C6078 C 0.11307 0.30816 0.85939 0.0
H6079 H 0.16267 0.28824 0.8876 0.0
H6080 H 0.1441 0.28959 0.87813 0.0
H6081 H 0.13433 0.32511 0.87023 0.0
H6082 H 0.08981 0.32288 0.83027 0.0
H6083 H 0.09901 0.32423 0.84919 0.0
C6084 C 0.67653 0.15992 0.8939 0.0
C6085 C 0.68589 0.16728 0.89167 0.0
C6086 C 0.67501 0.14986 0.88746 0.0
C6087 C 0.68999 0.12983 0.86765 0.0
H6088 H 0.65943 0.12448 0.85534 0.0
C6089 C 0.66805 0.10565 0.82664 0.0
C6090 C 0.67399 0.09512 0.82686 0.0
C6091 C 0.66892 0.11333 0.83584 0.0
C6092 C 0.66801 0.12587 0.85871 0.0
H6093 H 0.7012 0.1696 0.88122 0.0
H6094 H 0.69848 0.15218 0.86999 0.0
H6095 H 0.66247 0.1399 0.86927 0.0
H6096 H 0.68524 0.08423 0.83702 0.0
H6097 H 0.68669 0.09761 0.85314 0.0
H6098 H 0.69564 0.11615 0.85672 0.0
C6099 C 0.69237 0.1541 0.87676 0.0
C6100 C 0.66973 0.13461 0.86679 0.0
C6101 C 0.69388 0.16415 0.88315 0.0
C6102 C 0.68062 0.09231 0.83657 0.0
C6103 C 0.68148 0.09999 0.84579 0.0
C6104 C 0.68828 0.1211 0.85957 0.0
C6105 C 0.68283 0.14693 0.87872 0.0
C6106 C 0.68078 0.13683 0.87117 0.0
C6107 C 0.67574 0.11064 0.84547 0.0
C6108 C 0.67731 0.11917 0.85485 0.0
H6109 H 0.67024 0.16205 0.90043 0.0
H6110 H 0.66764 0.14443 0.88925 0.0
H6111 H 0.69858 0.13125 0.87097 0.0
H6112 H 0.66287 0.10805 0.81926 0.0
H6113 H 0.66452 0.12152 0.83525 0.0
C6114 C 0.89588 0.67412 0.83357 0.0
C6115 C 0.89504 0.68422 0.82694 0.0
C6116 C 0.89029 0.67335 0.84423 0.0
C6117 C 0.86962 0.67211 0.86061 0.0
H6118 H 0.86678 0.69861 0.88073 0.0
C6119 C 0.83216 0.69438 0.88815 0.0
C6120 C 0.82768 0.68508 0.89444 0.0
C6121 C 0.84279 0.69348 0.88268 0.0
C6122 C 0.86755 0.6911 0.87525 0.0
H6123 H 0.88821 0.70161 0.82655 0.0
H6124 H 0.87854 0.70026 0.84499 0.0
H6125 H 0.88164 0.69838 0.8659 0.0
H6126 H 0.83103 0.66765 0.90026 0.0
H6127 H 0.84964 0.66602 0.89049 0.0
H6128 H 0.85514 0.66509 0.86958 0.0
C6129 C 0.88351 0.69295 0.84204 0.0
C6130 C 0.87604 0.69097 0.86677 0.0
C6131 C 0.88896 0.69367 0.83139 0.0
C6132 C 0.83425 0.67496 0.89546 0.0
C6133 C 0.84488 0.67401 0.88986 0.0
C6134 C 0.86111 0.67224 0.86911 0.0
C6135 C 0.88393 0.68273 0.84849 0.0
C6136 C 0.87683 0.6817 0.85904 0.0
C6137 C 0.84917 0.68322 0.88329 0.0
C6138 C 0.85968 0.68196 0.87618 0.0
H6139 H 0.90052 0.6667 0.83038 0.0
H6140 H 0.89078 0.66538 0.84904 0.0
H6141 H 0.86997 0.66487 0.85474 0.0
H6142 H 0.82736 0.70232 0.88725 0.0
H6143 H 0.84578 0.70067 0.87755 0.0
C6144 C 0.15883 0.29486 0.10195 0.0
C6145 C 0.16294 0.30429 0.09559 0.0
C6146 C 0.14829 0.29544 0.10761 0.0
C6147 C 0.1237 0.297 0.11562 0.0
H6148 H 0.12048 0.32345 0.13572 0.0
C6149 C 0.09477 0.31373 0.15694 0.0
C6150 C 0.09593 0.30385 0.16384 0.0
C6151 C 0.10042 0.31445 0.14632 0.0
C6152 C 0.12107 0.31612 0.12998 0.0
H6153 H 0.15898 0.32161 0.08984 0.0
H6154 H 0.14048 0.32267 0.0999 0.0
H6155 H 0.13513 0.32357 0.1207 0.0
H6156 H 0.10348 0.28678 0.16478 0.0
H6157 H 0.11326 0.28804 0.14636 0.0
H6158 H 0.11004 0.28932 0.1253 0.0
C6159 C 0.1455 0.31483 0.10047 0.0
C6160 C 0.12946 0.31619 0.12136 0.0
C6161 C 0.15605 0.31421 0.09469 0.0
C6162 C 0.10245 0.29455 0.15971 0.0
C6163 C 0.10797 0.29522 0.14909 0.0
C6164 C 0.11533 0.29692 0.12423 0.0
C6165 C 0.14159 0.3055 0.10711 0.0
C6166 C 0.13117 0.30644 0.11442 0.0
C6167 C 0.10718 0.30524 0.14236 0.0
C6168 C 0.11425 0.30629 0.1318 0.0
H6169 H 0.16388 0.28706 0.10277 0.0
H6170 H 0.14562 0.28816 0.11279 0.0
H6171 H 0.12467 0.28944 0.11024 0.0
H6172 H 0.08979 0.32104 0.15988 0.0
H6173 H 0.09963 0.32227 0.14129 0.0
C6174 C 0.15933 0.69567 0.88939 0.0
C6175 C 0.16347 0.68619 0.89564 0.0
C6176 C 0.14874 0.69512 0.88379 0.0
C6177 C 0.12412 0.69359 0.87588 0.0
H6178 H 0.12102 0.66741 0.85542 0.0
C6179 C 0.09569 0.6775 0.83396 0.0
C6180 C 0.09708 0.68745 0.82719 0.0
C6181 C 0.10112 0.67662 0.84468 0.0
C6182 C 0.12157 0.67465 0.86126 0.0
H6183 H 0.15954 0.66882 0.9013 0.0
H6184 H 0.14099 0.66782 0.89132 0.0
H6185 H 0.1356 0.66711 0.87051 0.0
H6186 H 0.10475 0.70448 0.82661 0.0
H6187 H 0.11415 0.70295 0.84521 0.0
H6188 H 0.11052 0.70139 0.86622 0.0
C6189 C 0.146 0.67567 0.8908 0.0
C6190 C 0.12992 0.67448 0.86992 0.0
C6191 C 0.15659 0.67626 0.89651 0.0
C6192 C 0.10357 0.69667 0.83157 0.0
C6193 C 0.10886 0.69584 0.84229 0.0
C6194 C 0.11579 0.69377 0.86723 0.0
C6195 C 0.14205 0.68506 0.88425 0.0
C6196 C 0.1316 0.68416 0.87698 0.0
C6197 C 0.10787 0.68574 0.84888 0.0
C6198 C 0.11477 0.68451 0.85953 0.0
H6199 H 0.16437 0.70348 0.8886 0.0
H6200 H 0.14604 0.70244 0.87868 0.0
H6201 H 0.12508 0.70108 0.88136 0.0
H6202 H 0.09073 0.67026 0.83082 0.0
H6203 H 0.10019 0.66875 0.8496 0.0
C6204 C 0.29456 0.15846 0.88846 0.0
C6205 C 0.30394 0.16286 0.89471 0.0
C6206 C 0.2953 0.14778 0.88306 0.0
C6207 C 0.31648 0.12935 0.86953 0.0
H6208 H 0.28987 0.10969 0.86504 0.0
C6209 C 0.31444 0.09567 0.83297 0.0
C6210 C 0.30463 0.09712 0.82603 0.0
C6211 C 0.31507 0.10091 0.8438 0.0
C6212 C 0.29741 0.11503 0.86628 0.0
H6213 H 0.32126 0.15925 0.90064 0.0
H6214 H 0.3226 0.14053 0.89101 0.0
H6215 H 0.28974 0.12403 0.88039 0.0
H6216 H 0.2876 0.10473 0.82521 0.0
H6217 H 0.2887 0.1138 0.84402 0.0
H6218 H 0.32391 0.12073 0.85504 0.0
C6219 C 0.31469 0.14541 0.89033 0.0
C6220 C 0.29733 0.12323 0.87506 0.0
C6221 C 0.31391 0.1561 0.89585 0.0
C6222 C 0.29531 0.1035 0.83031 0.0
C6223 C 0.29589 0.1086 0.84115 0.0
C6224 C 0.31656 0.12111 0.86076 0.0
C6225 C 0.30546 0.14125 0.8837 0.0
C6226 C 0.30665 0.13083 0.87642 0.0
C6227 C 0.30584 0.10753 0.84793 0.0
C6228 C 0.30681 0.11424 0.85873 0.0
H6229 H 0.28672 0.16341 0.88748 0.0
H6230 H 0.28809 0.14492 0.87789 0.0
H6231 H 0.32376 0.13511 0.87032 0.0
H6232 H 0.32176 0.09078 0.82991 0.0
H6233 H 0.32283 0.09993 0.84887 0.0
C6234 C 0.89673 0.31353 0.83435 0.0
C6235 C 0.89522 0.30372 0.82741 0.0
C6236 C 0.89133 0.31427 0.8451 0.0
C6237 C 0.87619 0.29694 0.86726 0.0
H6238 H 0.85677 0.32387 0.87066 0.0
C6239 C 0.83214 0.29541 0.88839 0.0
C6240 C 0.82802 0.30485 0.89471 0.0
C6241 C 0.84288 0.29585 0.88309 0.0
C6242 C 0.86234 0.31642 0.87004 0.0
H6243 H 0.88742 0.28677 0.82655 0.0
H6244 H 0.87806 0.28806 0.84518 0.0
H6245 H 0.87159 0.3236 0.85583 0.0
H6246 H 0.83213 0.32203 0.90079 0.0
H6247 H 0.85095 0.32285 0.89133 0.0
H6248 H 0.86652 0.28953 0.88107 0.0
C6249 C 0.88342 0.29517 0.84239 0.0
C6250 C 0.87083 0.31626 0.86154 0.0
C6251 C 0.88869 0.29448 0.83165 0.0
C6252 C 0.83506 0.31462 0.89594 0.0
C6253 C 0.84581 0.31511 0.89052 0.0
C6254 C 0.86771 0.2971 0.87576 0.0
C6255 C 0.88449 0.30515 0.84914 0.0
C6256 C 0.87749 0.30632 0.85973 0.0
C6257 C 0.84974 0.30578 0.88391 0.0
C6258 C 0.86036 0.30664 0.87689 0.0
H6259 H 0.90174 0.32079 0.83133 0.0
H6260 H 0.89233 0.32205 0.85014 0.0
H6261 H 0.88136 0.28925 0.8662 0.0
H6262 H 0.82697 0.28772 0.88733 0.0
H6263 H 0.84557 0.28858 0.87791 0.0
C6264 C 0.68141 0.89278 0.83233 0.0
C6265 C 0.68779 0.88837 0.82304 0.0
C6266 C 0.68104 0.88688 0.84283 0.0
C6267 C 0.69634 0.86396 0.85906 0.0
H6268 H 0.66754 0.86086 0.87558 0.0
C6269 C 0.67407 0.82916 0.89097 0.0
C6270 C 0.68408 0.82556 0.89665 0.0
C6271 C 0.6742 0.83915 0.88426 0.0
C6272 C 0.67565 0.8616 0.87106 0.0
H6273 H 0.69862 0.87422 0.81743 0.0
H6274 H 0.69771 0.86384 0.83548 0.0
H6275 H 0.66857 0.87339 0.85878 0.0
H6276 H 0.70167 0.82996 0.90084 0.0
H6277 H 0.70172 0.84782 0.88985 0.0
H6278 H 0.70326 0.85158 0.8706 0.0
C6279 C 0.69326 0.87201 0.83485 0.0
C6280 C 0.67628 0.86892 0.8615 0.0
C6281 C 0.69372 0.87793 0.82444 0.0
C6282 C 0.69389 0.83255 0.89638 0.0
C6283 C 0.69393 0.84271 0.88998 0.0
C6284 C 0.69568 0.85654 0.86845 0.0
C6285 C 0.68699 0.87643 0.84421 0.0
C6286 C 0.68656 0.86992 0.8552 0.0
C6287 C 0.6843 0.84583 0.88333 0.0
C6288 C 0.68526 0.85504 0.87444 0.0
H6289 H 0.67677 0.90083 0.83153 0.0
H6290 H 0.67619 0.89056 0.84988 0.0
H6291 H 0.70449 0.86474 0.85459 0.0
H6292 H 0.66641 0.82383 0.89105 0.0
H6293 H 0.66663 0.84117 0.87923 0.0
C6294 C 0.83356 0.67636 0.09467 0.0
C6295 C 0.82671 0.68629 0.0957 0.0
C6296 C 0.84415 0.67565 0.10039 0.0
C6297 C 0.86036 0.67414 0.12117 0.0
H6298 H 0.88001 0.70089 0.12484 0.0
C6299 C 0.88784 0.69572 0.15917 0.0
C6300 C 0.89429 0.68638 0.16332 0.0
C6301 C 0.88226 0.69504 0.14858 0.0
C6302 C 0.87466 0.69332 0.12384 0.0
H6303 H 0.82582 0.70344 0.10307 0.0
H6304 H 0.84416 0.7022 0.11298 0.0
H6305 H 0.86516 0.70086 0.10998 0.0
H6306 H 0.90028 0.66912 0.15943 0.0
H6307 H 0.89033 0.66789 0.14088 0.0
H6308 H 0.86947 0.66683 0.13541 0.0
C6309 C 0.84143 0.69497 0.10774 0.0
C6310 C 0.86617 0.6933 0.11535 0.0
C6311 C 0.83085 0.69564 0.10215 0.0
C6312 C 0.89534 0.67646 0.15647 0.0
C6313 C 0.88964 0.67573 0.14588 0.0
C6314 C 0.86886 0.67416 0.12968 0.0
C6315 C 0.84811 0.68492 0.10708 0.0
C6316 C 0.85862 0.68391 0.11425 0.0
C6317 C 0.88293 0.68498 0.1419 0.0
C6318 C 0.87577 0.68394 0.1314 0.0
H6319 H 0.8306 0.66902 0.08974 0.0
H6320 H 0.84914 0.66781 0.09971 0.0
H6321 H 0.85463 0.6668 0.12057 0.0
H6322 H 0.8869 0.70351 0.1642 0.0
H6323 H 0.87701 0.70225 0.14585 0.0
C6324 C 0.31204 0.83424 0.09545 0.0
C6325 C 0.30233 0.82715 0.09691 0.0
C6326 C 0.31268 0.84493 0.10098 0.0
C6327 C 0.29515 0.86676 0.11631 0.0
H6328 H 0.32222 0.87074 0.13541 0.0
C6329 C 0.29386 0.88881 0.15998 0.0
C6330 C 0.30332 0.89524 0.1639 0.0
C6331 C 0.29424 0.88326 0.14936 0.0
C6332 C 0.31472 0.86996 0.12993 0.0
H6333 H 0.28547 0.82596 0.10484 0.0
H6334 H 0.2866 0.84449 0.11445 0.0
H6335 H 0.32199 0.85575 0.12074 0.0
H6336 H 0.32044 0.90128 0.15953 0.0
H6337 H 0.32112 0.89143 0.14091 0.0
H6338 H 0.28767 0.8806 0.12588 0.0
C6339 C 0.2937 0.84186 0.10901 0.0
C6340 C 0.31459 0.86135 0.12153 0.0
C6341 C 0.2931 0.83117 0.10359 0.0
C6342 C 0.31302 0.89636 0.15675 0.0
C6343 C 0.31343 0.8907 0.14612 0.0
C6344 C 0.29529 0.87536 0.12469 0.0
C6345 C 0.30357 0.84877 0.10794 0.0
C6346 C 0.30462 0.85937 0.11497 0.0
C6347 C 0.3041 0.88396 0.1424 0.0
C6348 C 0.30489 0.87672 0.13192 0.0
H6349 H 0.31928 0.8314 0.09032 0.0
H6350 H 0.32038 0.8501 0.09998 0.0
H6351 H 0.28743 0.86556 0.11122 0.0
H6352 H 0.28623 0.88782 0.16524 0.0
H6353 H 0.28696 0.878 0.14684 0.0
C6354 C 0.67654 0.15687 0.09492 0.0
C6355 C 0.68638 0.16385 0.09587 0.0
C6356 C 0.67592 0.14636 0.1008 0.0
C6357 C 0.69369 0.12488 0.11646 0.0
H6358 H 0.66697 0.12165 0.13618 0.0
C6359 C 0.6956 0.10397 0.16075 0.0
C6360 C 0.68631 0.09736 0.16476 0.0
C6361 C 0.69504 0.10946 0.1501 0.0
C6362 C 0.67437 0.12224 0.13055 0.0
H6363 H 0.7035 0.16502 0.10325 0.0
H6364 H 0.70241 0.14685 0.11347 0.0
H6365 H 0.66698 0.13616 0.12101 0.0
H6366 H 0.66925 0.09103 0.16056 0.0
H6367 H 0.66821 0.10082 0.14192 0.0
H6368 H 0.70131 0.11137 0.12641 0.0
C6369 C 0.69518 0.1494 0.10816 0.0
C6370 C 0.67438 0.13055 0.12185 0.0
C6371 C 0.69576 0.15989 0.10239 0.0
C6372 C 0.67654 0.09609 0.15772 0.0
C6373 C 0.67593 0.1017 0.14707 0.0
C6374 C 0.69369 0.1166 0.12516 0.0
C6375 C 0.68519 0.14261 0.10762 0.0
C6376 C 0.68422 0.13226 0.11503 0.0
C6377 C 0.68514 0.10854 0.14322 0.0
C6378 C 0.68421 0.11552 0.13259 0.0
H6379 H 0.66918 0.15968 0.08994 0.0
H6380 H 0.66813 0.14128 0.10019 0.0
H6381 H 0.70131 0.12585 0.11119 0.0
H6382 H 0.70328 0.10508 0.16593 0.0
H6383 H 0.70221 0.11481 0.14746 0.0
C6384 C 0.59543 0.65633 0.81295 0.0
C6385 C 0.59668 0.66323 0.80309 0.0
C6386 C 0.60107 0.6457 0.81372 0.0
C6387 C 0.62174 0.62939 0.81556 0.0
H6388 H 0.62577 0.60977 0.78886 0.0
C6389 C 0.65997 0.60177 0.79462 0.0
C6390 C 0.66399 0.59537 0.80405 0.0
C6391 C 0.64937 0.60735 0.7951 0.0
C6392 C 0.62467 0.61512 0.79642 0.0
H6393 H 0.60436 0.66417 0.78609 0.0
H6394 H 0.61415 0.64576 0.78743 0.0
H6395 H 0.61101 0.62472 0.78864 0.0
H6396 H 0.65982 0.58945 0.82127 0.0
H6397 H 0.64125 0.59938 0.82215 0.0
H6398 H 0.63579 0.62018 0.8231 0.0
C6399 C 0.60879 0.64848 0.79456 0.0
C6400 C 0.61623 0.62366 0.79629 0.0
C6401 C 0.60328 0.6591 0.79384 0.0
C6402 C 0.65697 0.59434 0.81386 0.0
C6403 C 0.64637 0.60004 0.81439 0.0
C6404 C 0.63019 0.62084 0.81568 0.0
C6405 C 0.60792 0.64175 0.80457 0.0
C6406 C 0.61501 0.6312 0.80567 0.0
C6407 C 0.64254 0.60673 0.80506 0.0
C6408 C 0.63206 0.61394 0.80592 0.0
H6409 H 0.59038 0.65927 0.82021 0.0
H6410 H 0.60023 0.64067 0.82152 0.0
H6411 H 0.62104 0.63511 0.82289 0.0
H6412 H 0.66513 0.60269 0.78691 0.0
H6413 H 0.64676 0.61258 0.78783 0.0
C6414 C 0.33346 0.59449 0.81372 0.0
C6415 C 0.3263 0.59573 0.80404 0.0
C6416 C 0.34416 0.60002 0.81413 0.0
C6417 C 0.36073 0.6205 0.8154 0.0
H6418 H 0.37955 0.62437 0.78812 0.0
C6419 C 0.38799 0.65858 0.7937 0.0
C6420 C 0.39467 0.66254 0.80297 0.0
C6421 C 0.38237 0.64799 0.79431 0.0
C6422 C 0.37443 0.62332 0.79583 0.0
H6423 H 0.325 0.60324 0.78699 0.0
H6424 H 0.34354 0.61283 0.78772 0.0
H6425 H 0.3645 0.60971 0.78837 0.0
H6426 H 0.40107 0.65827 0.81998 0.0
H6427 H 0.39108 0.63974 0.82109 0.0
H6428 H 0.37027 0.63449 0.82266 0.0
C6429 C 0.34096 0.60758 0.79498 0.0
C6430 C 0.36582 0.61494 0.79598 0.0
C6431 C 0.33026 0.60217 0.79461 0.0
C6432 C 0.39595 0.65547 0.81271 0.0
C6433 C 0.39022 0.64488 0.81336 0.0
C6434 C 0.36935 0.62889 0.81526 0.0
C6435 C 0.34794 0.60674 0.80481 0.0
C6436 C 0.35857 0.61377 0.80558 0.0
C6437 C 0.38324 0.64113 0.80423 0.0
C6438 C 0.37596 0.63069 0.80529 0.0
H6439 H 0.33065 0.58956 0.82112 0.0
H6440 H 0.34939 0.59919 0.8218 0.0
H6441 H 0.35524 0.61985 0.82291 0.0
H6442 H 0.38688 0.66378 0.78604 0.0
H6443 H 0.37693 0.64543 0.78719 0.0
C6444 C 0.39449 0.33444 0.81352 0.0
C6445 C 0.39341 0.32776 0.80349 0.0
C6446 C 0.38895 0.34512 0.81436 0.0
C6447 C 0.36836 0.36157 0.81596 0.0
H6448 H 0.36504 0.38164 0.78948 0.0
C6449 C 0.33061 0.38938 0.79443 0.0
C6450 C 0.32636 0.39568 0.80383 0.0
C6451 C 0.34121 0.38383 0.79512 0.0
C6452 C 0.36594 0.37617 0.79698 0.0
H6453 H 0.38618 0.32728 0.78627 0.0
H6454 H 0.3766 0.34578 0.78772 0.0
H6455 H 0.37982 0.36671 0.78944 0.0
H6456 H 0.33011 0.40144 0.8212 0.0
H6457 H 0.34867 0.39154 0.82243 0.0
H6458 H 0.35409 0.37065 0.82326 0.0
C6459 C 0.38173 0.34285 0.79494 0.0
C6460 C 0.37439 0.36764 0.79696 0.0
C6461 C 0.38713 0.33218 0.79415 0.0
C6462 C 0.33314 0.39663 0.81381 0.0
C6463 C 0.34374 0.39095 0.81454 0.0
C6464 C 0.35989 0.37013 0.81599 0.0
C6465 C 0.3824 0.34936 0.8051 0.0
C6466 C 0.37535 0.35994 0.80623 0.0
C6467 C 0.3478 0.38437 0.80524 0.0
C6468 C 0.35829 0.37718 0.80629 0.0
H6469 H 0.39929 0.33127 0.82086 0.0
H6470 H 0.38964 0.34998 0.82228 0.0
H6471 H 0.36885 0.35573 0.82321 0.0
H6472 H 0.32563 0.38853 0.78659 0.0
H6473 H 0.34402 0.37869 0.78786 0.0
C6474 C 0.60219 0.33222 0.79484 0.0
C6475 C 0.59582 0.32801 0.80421 0.0
C6476 C 0.60766 0.34287 0.79549 0.0
C6477 C 0.62104 0.36178 0.81635 0.0
H6478 H 0.62492 0.38137 0.7896 0.0
C6479 C 0.65669 0.39641 0.81407 0.0
C6480 C 0.66356 0.39525 0.80417 0.0
C6481 C 0.64602 0.39084 0.81476 0.0
C6482 C 0.62386 0.37603 0.79717 0.0
H6483 H 0.58981 0.33187 0.82145 0.0
H6484 H 0.59958 0.35054 0.82263 0.0
H6485 H 0.60994 0.36662 0.78961 0.0
H6486 H 0.6644 0.38782 0.78706 0.0
H6487 H 0.64592 0.37816 0.78828 0.0
H6488 H 0.63534 0.3708 0.82368 0.0
C6489 C 0.60029 0.34554 0.81479 0.0
C6490 C 0.6153 0.3676 0.79718 0.0
C6491 C 0.59469 0.33488 0.8141 0.0
C6492 C 0.65936 0.38883 0.79483 0.0
C6493 C 0.64869 0.38338 0.79549 0.0
C6494 C 0.62961 0.37023 0.81634 0.0
C6495 C 0.60696 0.34956 0.80554 0.0
C6496 C 0.61413 0.36007 0.80657 0.0
C6497 C 0.642 0.38415 0.80552 0.0
C6498 C 0.63141 0.3771 0.80655 0.0
H6499 H 0.60318 0.32717 0.78706 0.0
H6500 H 0.61288 0.34563 0.78827 0.0
H6501 H 0.62039 0.35606 0.82369 0.0
H6502 H 0.65968 0.40132 0.8214 0.0
H6503 H 0.64102 0.39161 0.82259 0.0
C6504 C 0.65742 0.39445 0.17627 0.0
C6505 C 0.66439 0.39334 0.18611 0.0
C6506 C 0.64686 0.38868 0.17559 0.0
C6507 C 0.62501 0.37359 0.19327 0.0
H6508 H 0.62132 0.35378 0.16666 0.0
C6509 C 0.60288 0.32997 0.19551 0.0
C6510 C 0.59638 0.32591 0.18616 0.0
C6511 C 0.60856 0.34052 0.19487 0.0
C6512 C 0.62204 0.35945 0.17403 0.0
H6513 H 0.66551 0.38572 0.20313 0.0
H6514 H 0.6472 0.37572 0.20194 0.0
H6515 H 0.63628 0.36852 0.16665 0.0
H6516 H 0.5904 0.32993 0.16893 0.0
H6517 H 0.6005 0.34842 0.16778 0.0
H6518 H 0.61113 0.36417 0.20087 0.0
C6519 C 0.64983 0.38107 0.19477 0.0
C6520 C 0.63062 0.36789 0.17403 0.0
C6521 C 0.66039 0.38671 0.1954 0.0
C6522 C 0.59537 0.33282 0.17627 0.0
C6523 C 0.60116 0.34337 0.17559 0.0
C6524 C 0.61644 0.36518 0.19327 0.0
C6525 C 0.64303 0.38184 0.18481 0.0
C6526 C 0.63249 0.37472 0.18384 0.0
C6527 C 0.60793 0.34725 0.18484 0.0
C6528 C 0.61519 0.3577 0.18385 0.0
H6529 H 0.66026 0.39951 0.16897 0.0
H6530 H 0.64177 0.38945 0.16782 0.0
H6531 H 0.62613 0.37889 0.20087 0.0
H6532 H 0.60379 0.3249 0.20327 0.0
H6533 H 0.61384 0.34317 0.20208 0.0
C6534 C 0.6032 0.65884 0.19746 0.0
C6535 C 0.59651 0.66288 0.18825 0.0
C6536 C 0.60854 0.64811 0.19687 0.0
C6537 C 0.62092 0.62877 0.17582 0.0
H6538 H 0.62608 0.60974 0.20275 0.0
C6539 C 0.65698 0.59463 0.17718 0.0
C6540 C 0.66425 0.59605 0.18676 0.0
C6541 C 0.64621 0.60001 0.17685 0.0
C6542 C 0.62465 0.61491 0.19513 0.0
H6543 H 0.58974 0.65862 0.17137 0.0
H6544 H 0.59924 0.63984 0.17029 0.0
H6545 H 0.61108 0.62444 0.20313 0.0
H6546 H 0.66569 0.60376 0.20371 0.0
H6547 H 0.64704 0.61312 0.20312 0.0
H6548 H 0.63491 0.61967 0.16804 0.0
C6549 C 0.60033 0.64503 0.17796 0.0
C6550 C 0.61608 0.62332 0.19534 0.0
C6551 C 0.59488 0.65575 0.1786 0.0
C6552 C 0.66034 0.60255 0.19617 0.0
C6553 C 0.64958 0.60782 0.19588 0.0
C6554 C 0.62951 0.62036 0.1756 0.0
C6555 C 0.60737 0.6412 0.18702 0.0
C6556 C 0.61447 0.63066 0.18587 0.0
C6557 C 0.64248 0.60678 0.18615 0.0
C6558 C 0.63179 0.6137 0.18544 0.0
H6559 H 0.60457 0.66408 0.20505 0.0
H6560 H 0.61404 0.64549 0.20392 0.0
H6561 H 0.61993 0.63434 0.16841 0.0
H6562 H 0.65974 0.58964 0.1698 0.0
H6563 H 0.64089 0.59905 0.16926 0.0
C6564 C 0.39484 0.65757 0.17424 0.0
C6565 C 0.39399 0.66422 0.18432 0.0
C6566 C 0.38916 0.64695 0.17345 0.0
C6567 C 0.36844 0.63055 0.17217 0.0
H6568 H 0.36568 0.61041 0.19866 0.0
C6569 C 0.33119 0.6026 0.19441 0.0
C6570 C 0.32679 0.59624 0.18512 0.0
C6571 C 0.34175 0.60822 0.1935 0.0
C6572 C 0.36642 0.6159 0.19116 0.0
H6573 H 0.38699 0.66471 0.20163 0.0
H6574 H 0.37718 0.64633 0.20024 0.0
H6575 H 0.38045 0.62536 0.19845 0.0
H6576 H 0.33021 0.59047 0.16769 0.0
H6577 H 0.34869 0.60049 0.16606 0.0
H6578 H 0.35403 0.62146 0.16514 0.0
C6579 C 0.38223 0.64923 0.19296 0.0
C6580 C 0.37487 0.62444 0.19103 0.0
C6581 C 0.38776 0.65985 0.19371 0.0
C6582 C 0.33337 0.59532 0.175 0.0
C6583 C 0.34392 0.60107 0.17405 0.0
C6584 C 0.35999 0.62198 0.17229 0.0
C6585 C 0.38271 0.64274 0.18278 0.0
C6586 C 0.37563 0.63217 0.18176 0.0
C6587 C 0.34814 0.60769 0.18325 0.0
C6588 C 0.35859 0.61491 0.18201 0.0
H6589 H 0.39959 0.66071 0.16686 0.0
H6590 H 0.38969 0.6421 0.1655 0.0
H6591 H 0.36879 0.63641 0.16493 0.0
H6592 H 0.32637 0.60344 0.20235 0.0
H6593 H 0.34467 0.61338 0.20069 0.0
C6594 C 0.38895 0.33205 0.19594 0.0
C6595 C 0.39538 0.32781 0.18664 0.0
C6596 C 0.38331 0.34261 0.19515 0.0
C6597 C 0.36971 0.36108 0.174 0.0
H6598 H 0.3657 0.38108 0.20042 0.0
C6599 C 0.3338 0.39548 0.17572 0.0
C6600 C 0.32696 0.39442 0.18565 0.0
C6601 C 0.34451 0.38998 0.1751 0.0
C6602 C 0.36679 0.37563 0.19294 0.0
H6603 H 0.4013 0.33153 0.16932 0.0
H6604 H 0.39126 0.35001 0.16789 0.0
H6605 H 0.38075 0.36643 0.20067 0.0
H6606 H 0.32622 0.38728 0.20289 0.0
H6607 H 0.34476 0.37776 0.2018 0.0
H6608 H 0.35536 0.36989 0.16652 0.0
C6609 C 0.39062 0.34511 0.1758 0.0
C6610 C 0.37539 0.36725 0.19308 0.0
C6611 C 0.39638 0.33456 0.17664 0.0
C6612 C 0.33124 0.3882 0.19509 0.0
C6613 C 0.34194 0.38284 0.19451 0.0
C6614 C 0.36109 0.36947 0.17386 0.0
C6615 C 0.3839 0.34916 0.185 0.0
C6616 C 0.37662 0.35957 0.18382 0.0
C6617 C 0.34861 0.38349 0.18445 0.0
C6618 C 0.35924 0.37649 0.18354 0.0
H6619 H 0.38805 0.3271 0.20379 0.0
H6620 H 0.37806 0.34539 0.20233 0.0
H6621 H 0.3704 0.35525 0.16676 0.0
H6622 H 0.33074 0.40023 0.16831 0.0
H6623 H 0.3495 0.39065 0.16725 0.0
C6624 C 0.81216 0.65706 0.5946 0.0
C6625 C 0.80244 0.6642 0.59569 0.0
C6626 C 0.81265 0.64652 0.60041 0.0
C6627 C 0.81416 0.63053 0.62131 0.0
H6628 H 0.787 0.61167 0.62596 0.0
C6629 C 0.79301 0.60374 0.66014 0.0
C6630 C 0.80232 0.59707 0.66402 0.0
C6631 C 0.7935 0.60931 0.64953 0.0
C6632 C 0.79468 0.61681 0.62469 0.0
H6633 H 0.78542 0.66561 0.60324 0.0
H6634 H 0.7863 0.64734 0.61333 0.0
H6635 H 0.78704 0.62633 0.6109 0.0
H6636 H 0.81931 0.5907 0.65961 0.0
H6637 H 0.82021 0.60061 0.64104 0.0
H6638 H 0.8216 0.62138 0.63546 0.0
C6639 C 0.79352 0.64981 0.60797 0.0
C6640 C 0.7947 0.62519 0.61608 0.0
C6641 C 0.79306 0.66035 0.60227 0.0
C6642 C 0.81201 0.59581 0.65687 0.0
C6643 C 0.81254 0.60149 0.64626 0.0
C6644 C 0.81414 0.62213 0.62992 0.0
C6645 C 0.80339 0.64287 0.60729 0.0
C6646 C 0.80426 0.63245 0.61462 0.0
C6647 C 0.80334 0.60841 0.64256 0.0
C6648 C 0.80423 0.61551 0.63199 0.0
H6649 H 0.81952 0.65978 0.58957 0.0
H6650 H 0.82035 0.64131 0.59969 0.0
H6651 H 0.82163 0.63604 0.62044 0.0
H6652 H 0.7854 0.60485 0.6654 0.0
H6653 H 0.78634 0.61472 0.647 0.0
C6654 C 0.33074 0.79461 0.60205 0.0
C6655 C 0.32667 0.80405 0.59568 0.0
C6656 C 0.34138 0.7951 0.60753 0.0
C6657 C 0.36056 0.81577 0.62087 0.0
H6658 H 0.37952 0.78863 0.62519 0.0
C6659 C 0.395 0.81312 0.65665 0.0
C6660 C 0.39356 0.80337 0.66369 0.0
C6661 C 0.38946 0.81381 0.64598 0.0
C6662 C 0.37436 0.79631 0.62401 0.0
H6663 H 0.3308 0.82124 0.58966 0.0
H6664 H 0.34947 0.82214 0.59942 0.0
H6665 H 0.36493 0.78882 0.61008 0.0
H6666 H 0.38562 0.7865 0.66482 0.0
H6667 H 0.37601 0.7877 0.64629 0.0
H6668 H 0.36962 0.82305 0.63517 0.0
C6669 C 0.34435 0.81437 0.60014 0.0
C6670 C 0.36603 0.79642 0.61537 0.0
C6671 C 0.33369 0.81384 0.59454 0.0
C6672 C 0.38685 0.79416 0.65965 0.0
C6673 C 0.38144 0.7948 0.64897 0.0
C6674 C 0.36893 0.81567 0.62951 0.0
C6675 C 0.34821 0.80506 0.60683 0.0
C6676 C 0.3587 0.80596 0.61405 0.0
C6677 C 0.38252 0.80469 0.6421 0.0
C6678 C 0.37556 0.80575 0.63147 0.0
H6679 H 0.32558 0.7869 0.60304 0.0
H6680 H 0.34401 0.78784 0.61276 0.0
H6681 H 0.35501 0.82322 0.62012 0.0
H6682 H 0.40014 0.82036 0.65952 0.0
H6683 H 0.39047 0.82153 0.64084 0.0
C6684 C 0.19307 0.32451 0.60997 0.0
C6685 C 0.1871 0.32338 0.59953 0.0
C6686 C 0.19304 0.3349 0.61593 0.0
C6687 C 0.17727 0.36229 0.61916 0.0
H6688 H 0.20455 0.36984 0.63679 0.0
C6689 C 0.19618 0.3958 0.65624 0.0
C6690 C 0.18623 0.39663 0.66299 0.0
C6691 C 0.19609 0.38945 0.64606 0.0
C6692 C 0.1969 0.36814 0.63175 0.0
H6693 H 0.17639 0.33234 0.58713 0.0
H6694 H 0.17657 0.3507 0.59748 0.0
H6695 H 0.2051 0.35402 0.62339 0.0
H6696 H 0.16824 0.39202 0.66426 0.0
H6697 H 0.1682 0.38024 0.64691 0.0
H6698 H 0.16917 0.37666 0.62735 0.0
C6699 C 0.18113 0.34343 0.60112 0.0
C6700 C 0.19717 0.35885 0.62419 0.0
C6701 C 0.18107 0.33293 0.59517 0.0
C6702 C 0.17601 0.39151 0.65913 0.0
C6703 C 0.176 0.38482 0.64913 0.0
C6704 C 0.17706 0.37177 0.62661 0.0
C6705 C 0.18717 0.34453 0.61156 0.0
C6706 C 0.18725 0.35551 0.61814 0.0
C6707 C 0.18616 0.38338 0.64265 0.0
C6708 C 0.18677 0.37459 0.6333 0.0
H6709 H 0.19769 0.31729 0.61366 0.0
H6710 H 0.19751 0.33529 0.6241 0.0
H6711 H 0.16947 0.35999 0.61462 0.0
H6712 H 0.20412 0.39985 0.659 0.0
H6713 H 0.20397 0.38893 0.64112 0.0
C6714 C 0.65968 0.19563 0.60161 0.0
C6715 C 0.6638 0.18624 0.5952 0.0
C6716 C 0.64904 0.19507 0.60708 0.0
C6717 C 0.62979 0.17439 0.62029 0.0
H6718 H 0.61055 0.20141 0.62407 0.0
C6719 C 0.5949 0.1771 0.65563 0.0
C6720 C 0.59623 0.18694 0.66257 0.0
C6721 C 0.60053 0.17635 0.64501 0.0
C6722 C 0.61578 0.19376 0.62303 0.0
H6723 H 0.65977 0.16902 0.58918 0.0
H6724 H 0.64111 0.168 0.59893 0.0
H6725 H 0.62539 0.20122 0.60921 0.0
H6726 H 0.60401 0.20389 0.66357 0.0
H6727 H 0.61375 0.20259 0.64515 0.0
H6728 H 0.62055 0.16715 0.6345 0.0
C6729 C 0.64618 0.17579 0.59967 0.0
C6730 C 0.62427 0.19365 0.61454 0.0
C6731 C 0.65684 0.17639 0.59408 0.0
C6732 C 0.60286 0.19617 0.65847 0.0
C6733 C 0.60836 0.19547 0.64784 0.0
C6734 C 0.62128 0.17449 0.62879 0.0
C6735 C 0.64225 0.18508 0.60634 0.0
C6736 C 0.63168 0.18417 0.61342 0.0
C6737 C 0.60743 0.18549 0.64108 0.0
C6738 C 0.61453 0.18437 0.63055 0.0
H6739 H 0.66479 0.20337 0.6026 0.0
H6740 H 0.64634 0.20231 0.6123 0.0
H6741 H 0.63541 0.16698 0.61968 0.0
H6742 H 0.58983 0.16985 0.65855 0.0
H6743 H 0.59965 0.16857 0.63994 0.0
C6744 C 0.81365 0.3334 0.39545 0.0
C6745 C 0.80373 0.32654 0.39443 0.0
C6746 C 0.81437 0.34397 0.38969 0.0
C6747 C 0.79685 0.36583 0.37427 0.0
H6748 H 0.8235 0.36875 0.3544 0.0
C6749 C 0.79488 0.38657 0.32996 0.0
C6750 C 0.8042 0.39308 0.32585 0.0
C6751 C 0.79547 0.38115 0.34063 0.0
C6752 C 0.81612 0.36825 0.36008 0.0
H6753 H 0.78658 0.32565 0.38709 0.0
H6754 H 0.78785 0.34395 0.3771 0.0
H6755 H 0.82338 0.35421 0.36954 0.0
H6756 H 0.82134 0.3993 0.32989 0.0
H6757 H 0.82242 0.38961 0.34858 0.0
H6758 H 0.78935 0.37946 0.3644 0.0
C6759 C 0.79506 0.34125 0.38236 0.0
C6760 C 0.81606 0.35992 0.36876 0.0
C6761 C 0.79437 0.33069 0.388 0.0
C6762 C 0.81402 0.39431 0.33281 0.0
C6763 C 0.81466 0.38876 0.34349 0.0
C6764 C 0.79691 0.37413 0.36559 0.0
C6765 C 0.80513 0.34791 0.38295 0.0
C6766 C 0.80622 0.35831 0.37562 0.0
C6767 C 0.80542 0.38203 0.34744 0.0
C6768 C 0.80635 0.37509 0.35811 0.0
H6769 H 0.821 0.33045 0.40037 0.0
H6770 H 0.82223 0.34896 0.39034 0.0
H6771 H 0.78925 0.36493 0.37958 0.0
H6772 H 0.78716 0.3855 0.32484 0.0
H6773 H 0.78827 0.37588 0.34336 0.0
C6774 C 0.65987 0.79541 0.38675 0.0
C6775 C 0.6639 0.8047 0.39336 0.0
C6776 C 0.64916 0.79593 0.38139 0.0
C6777 C 0.62937 0.8165 0.36888 0.0
H6778 H 0.61015 0.78941 0.36543 0.0
C6779 C 0.59369 0.8141 0.3344 0.0
C6780 C 0.59473 0.80428 0.3274 0.0
C6781 C 0.59954 0.81473 0.34492 0.0
C6782 C 0.61538 0.79707 0.36636 0.0
H6783 H 0.6597 0.82173 0.39978 0.0
H6784 H 0.64095 0.8227 0.39019 0.0
H6785 H 0.62547 0.78952 0.37979 0.0
H6786 H 0.60219 0.78719 0.32622 0.0
H6787 H 0.61235 0.7883 0.34443 0.0
H6788 H 0.61968 0.82383 0.35503 0.0
C6789 C 0.64613 0.81501 0.38923 0.0
C6790 C 0.62414 0.79714 0.37458 0.0
C6791 C 0.65684 0.81444 0.39472 0.0
C6792 C 0.60127 0.79491 0.33137 0.0
C6793 C 0.607 0.7955 0.34188 0.0
C6794 C 0.62061 0.81643 0.36064 0.0
C6795 C 0.64224 0.80579 0.38243 0.0
C6796 C 0.63152 0.80667 0.37558 0.0
C6797 C 0.6064 0.8055 0.34867 0.0
C6798 C 0.61384 0.80653 0.35898 0.0
H6799 H 0.66506 0.78775 0.38557 0.0
H6800 H 0.64649 0.78876 0.37606 0.0
H6801 H 0.63496 0.82395 0.36942 0.0
H6802 H 0.5887 0.82145 0.33159 0.0
H6803 H 0.59888 0.82252 0.35001 0.0
C6804 C 0.1948 0.66165 0.38593 0.0
C6805 C 0.18553 0.66565 0.39255 0.0
C6806 C 0.19408 0.65117 0.38013 0.0
C6807 C 0.17322 0.6323 0.3666 0.0
H6808 H 0.19988 0.61255 0.36293 0.0
C6809 C 0.17539 0.59673 0.33171 0.0
C6810 C 0.18533 0.59759 0.32485 0.0
C6811 C 0.17466 0.60272 0.34214 0.0
C6812 C 0.19234 0.61794 0.36391 0.0
H6813 H 0.1683 0.66165 0.39855 0.0
H6814 H 0.16699 0.6433 0.38822 0.0
H6815 H 0.19994 0.62744 0.37774 0.0
H6816 H 0.20244 0.605 0.32379 0.0
H6817 H 0.20116 0.61537 0.34187 0.0
H6818 H 0.16585 0.62314 0.3524 0.0
C6819 C 0.17482 0.64832 0.38758 0.0
C6820 C 0.19237 0.62645 0.37238 0.0
C6821 C 0.1756 0.65879 0.3935 0.0
C6822 C 0.19464 0.6042 0.32883 0.0
C6823 C 0.19395 0.61006 0.33926 0.0
C6824 C 0.17319 0.62376 0.35811 0.0
C6825 C 0.18403 0.64447 0.38075 0.0
C6826 C 0.183 0.63401 0.3735 0.0
C6827 C 0.18391 0.60952 0.34596 0.0
C6828 C 0.18294 0.61682 0.35639 0.0
H6829 H 0.20259 0.66669 0.38505 0.0
H6830 H 0.20125 0.64853 0.3748 0.0
H6831 H 0.1659 0.63803 0.36722 0.0
H6832 H 0.16808 0.5917 0.32887 0.0
H6833 H 0.16682 0.60214 0.34716 0.0
C6834 C 0.33082 0.19654 0.38854 0.0
C6835 C 0.32682 0.18713 0.395 0.0
C6836 C 0.34145 0.19605 0.38301 0.0
C6837 C 0.36073 0.17539 0.36978 0.0
H6838 H 0.37985 0.20245 0.36566 0.0
C6839 C 0.39544 0.17775 0.33429 0.0
C6840 C 0.3942 0.18755 0.32728 0.0
C6841 C 0.38984 0.17712 0.34493 0.0
C6842 C 0.37464 0.1948 0.36678 0.0
H6843 H 0.33103 0.16998 0.40109 0.0
H6844 H 0.34964 0.16909 0.39125 0.0
H6845 H 0.36505 0.20236 0.38056 0.0
H6846 H 0.38661 0.20459 0.32621 0.0
H6847 H 0.37689 0.20348 0.34466 0.0
H6848 H 0.36993 0.16805 0.35562 0.0
C6849 C 0.3445 0.17683 0.3905 0.0
C6850 C 0.36618 0.19474 0.3753 0.0
C6851 C 0.33387 0.17736 0.39615 0.0
C6852 C 0.38769 0.19688 0.33136 0.0
C6853 C 0.3822 0.1963 0.342 0.0
C6854 C 0.3692 0.17544 0.36125 0.0
C6855 C 0.34831 0.18612 0.38374 0.0
C6856 C 0.35882 0.18522 0.37656 0.0
C6857 C 0.38303 0.18634 0.34882 0.0
C6858 C 0.37592 0.18533 0.35936 0.0
H6859 H 0.32564 0.20422 0.38753 0.0
H6860 H 0.34405 0.20328 0.37773 0.0
H6861 H 0.35515 0.16795 0.3705 0.0
H6862 H 0.40043 0.17043 0.3314 0.0
H6863 H 0.39066 0.16936 0.35004 0.0
C6864 C 0.65771 0.81384 0.59493 0.0
C6865 C 0.6649 0.80419 0.59623 0.0
C6866 C 0.64713 0.81438 0.60065 0.0
C6867 C 0.63081 0.81601 0.62131 0.0
H6868 H 0.612 0.78877 0.62571 0.0
C6869 C 0.60355 0.79485 0.6597 0.0
C6870 C 0.59673 0.8041 0.66344 0.0
C6871 C 0.60926 0.79536 0.64918 0.0
C6872 C 0.61712 0.79648 0.6245 0.0
H6873 H 0.66639 0.78733 0.60416 0.0
H6874 H 0.64805 0.78828 0.6141 0.0
H6875 H 0.627 0.78878 0.61101 0.0
H6876 H 0.59026 0.82102 0.65889 0.0
H6877 H 0.60044 0.82196 0.64046 0.0
H6878 H 0.62131 0.82351 0.6352 0.0
C6879 C 0.65052 0.79541 0.60862 0.0
C6880 C 0.6257 0.79648 0.6161 0.0
C6881 C 0.6611 0.79492 0.60301 0.0
C6882 C 0.59547 0.81376 0.65625 0.0
C6883 C 0.60131 0.81432 0.64573 0.0
C6884 C 0.62222 0.81601 0.62973 0.0
C6885 C 0.64349 0.8052 0.60765 0.0
C6886 C 0.63293 0.80608 0.61475 0.0
C6887 C 0.60836 0.80516 0.64216 0.0
C6888 C 0.61562 0.80607 0.63172 0.0
H6889 H 0.66038 0.82112 0.58974 0.0
H6890 H 0.64186 0.82201 0.59973 0.0
H6891 H 0.63629 0.82352 0.6205 0.0
H6892 H 0.60465 0.78725 0.665 0.0
H6893 H 0.61477 0.78824 0.64677 0.0
C6894 C 0.59364 0.17586 0.33422 0.0
C6895 C 0.59467 0.18581 0.3274 0.0
C6896 C 0.59927 0.17516 0.34485 0.0
C6897 C 0.61416 0.19281 0.36697 0.0
H6898 H 0.63434 0.16641 0.3701 0.0
C6899 C 0.65822 0.19533 0.38814 0.0
C6900 C 0.6625 0.18598 0.3945 0.0
C6901 C 0.64754 0.19465 0.38274 0.0
C6902 C 0.62857 0.17371 0.36955 0.0
H6903 H 0.6019 0.20303 0.32664 0.0
H6904 H 0.61166 0.2018 0.34505 0.0
H6905 H 0.61941 0.16636 0.35536 0.0
H6906 H 0.65871 0.1687 0.40053 0.0
H6907 H 0.64 0.16747 0.3909 0.0
H6908 H 0.62372 0.20041 0.38076 0.0
C6909 C 0.6065 0.19455 0.34226 0.0
C6910 C 0.62001 0.17368 0.36109 0.0
C6911 C 0.60099 0.19521 0.33164 0.0
C6912 C 0.65566 0.17605 0.39567 0.0
C6913 C 0.64498 0.17532 0.39014 0.0
C6914 C 0.62271 0.19284 0.37541 0.0
C6915 C 0.60588 0.18446 0.3489 0.0
C6916 C 0.61305 0.18343 0.35941 0.0
C6917 C 0.64089 0.18457 0.3835 0.0
C6918 C 0.63031 0.1835 0.37645 0.0
H6919 H 0.58881 0.16848 0.33119 0.0
H6920 H 0.59863 0.16729 0.34981 0.0
H6921 H 0.60876 0.20035 0.36601 0.0
H6922 H 0.66324 0.20313 0.38712 0.0
H6923 H 0.64472 0.20186 0.37755 0.0
C6924 C 0.81451 0.59549 0.33289 0.0
C6925 C 0.80454 0.59662 0.32611 0.0
C6926 C 0.8153 0.60104 0.34355 0.0
C6927 C 0.8169 0.62161 0.36004 0.0
H6928 H 0.79043 0.62464 0.38014 0.0
C6929 C 0.79522 0.65904 0.38806 0.0
C6930 C 0.80462 0.66341 0.39426 0.0
C6931 C 0.79595 0.64843 0.38253 0.0
C6932 C 0.79793 0.62382 0.37466 0.0
H6933 H 0.78741 0.60402 0.32544 0.0
H6934 H 0.78878 0.61363 0.34395 0.0
H6935 H 0.79037 0.61007 0.36501 0.0
H6936 H 0.82205 0.65986 0.39993 0.0
H6937 H 0.82338 0.64125 0.39008 0.0
H6938 H 0.82419 0.63579 0.36928 0.0
C6939 C 0.79598 0.60844 0.34108 0.0
C6940 C 0.79789 0.61549 0.36601 0.0
C6941 C 0.79523 0.60302 0.33041 0.0
C6942 C 0.81466 0.65672 0.39518 0.0
C6943 C 0.81544 0.6461 0.38953 0.0
C6944 C 0.81693 0.62998 0.3687 0.0
C6945 C 0.80607 0.60766 0.34769 0.0
C6946 C 0.80717 0.61464 0.35831 0.0
C6947 C 0.80614 0.64193 0.38301 0.0
C6948 C 0.80723 0.63148 0.37576 0.0
H6949 H 0.82183 0.5906 0.32982 0.0
H6950 H 0.82317 0.60028 0.34849 0.0
H6951 H 0.82415 0.62119 0.3542 0.0
H6952 H 0.78733 0.66393 0.38723 0.0
H6953 H 0.78869 0.64556 0.37744 0.0
C6954 C 0.38791 0.7952 0.33134 0.0
C6955 C 0.39424 0.80449 0.32689 0.0
C6956 C 0.3826 0.79602 0.34206 0.0
C6957 C 0.36956 0.81712 0.36089 0.0
H6958 H 0.36627 0.79065 0.38098 0.0
C6959 C 0.3343 0.81502 0.39585 0.0
C6960 C 0.3275 0.80505 0.39482 0.0
C6961 C 0.34495 0.81573 0.39027 0.0
C6962 C 0.36717 0.79815 0.37551 0.0
H6963 H 0.4003 0.82182 0.33038 0.0
H6964 H 0.39082 0.8233 0.34916 0.0
H6965 H 0.38095 0.79054 0.36596 0.0
H6966 H 0.3268 0.78781 0.38764 0.0
H6967 H 0.34526 0.78905 0.37797 0.0
H6968 H 0.35536 0.82447 0.37003 0.0
C6969 C 0.39002 0.81538 0.3443 0.0
C6970 C 0.37556 0.79809 0.36693 0.0
C6971 C 0.39545 0.81452 0.33358 0.0
C6972 C 0.33179 0.79564 0.38855 0.0
C6973 C 0.34244 0.79631 0.3831 0.0
C6974 C 0.36115 0.81718 0.36949 0.0
C6975 C 0.38343 0.80618 0.34857 0.0
C6976 C 0.3765 0.80736 0.35921 0.0
C6977 C 0.34904 0.80643 0.3837 0.0
C6978 C 0.35955 0.80748 0.37654 0.0
H6979 H 0.38685 0.78733 0.32645 0.0
H6980 H 0.37744 0.78884 0.34502 0.0
H6981 H 0.37004 0.82436 0.35504 0.0
H6982 H 0.33123 0.8224 0.40064 0.0
H6983 H 0.34989 0.82362 0.3909 0.0
C6984 C 0.17606 0.39492 0.33351 0.0
C6985 C 0.18593 0.39394 0.32658 0.0
C6986 C 0.1754 0.38908 0.34404 0.0
C6987 C 0.19312 0.37362 0.36569 0.0
H6988 H 0.16645 0.35381 0.36897 0.0
C6989 C 0.19513 0.32952 0.387 0.0
C6990 C 0.18584 0.32553 0.39363 0.0
C6991 C 0.19454 0.34011 0.3814 0.0
C6992 C 0.17384 0.35947 0.36836 0.0
H6993 H 0.20305 0.38655 0.32552 0.0
H6994 H 0.20189 0.37643 0.34373 0.0
H6995 H 0.16647 0.36888 0.35434 0.0
H6996 H 0.16874 0.32972 0.39985 0.0
H6997 H 0.16765 0.34825 0.38986 0.0
H6998 H 0.20072 0.36382 0.37931 0.0
C6999 C 0.19468 0.38172 0.34112 0.0
C7000 C 0.17385 0.36811 0.35998 0.0
C7001 C 0.19529 0.38744 0.33061 0.0
C7002 C 0.17604 0.33254 0.39479 0.0
C7003 C 0.1754 0.34313 0.38906 0.0
C7004 C 0.19312 0.36499 0.37404 0.0
C7005 C 0.18466 0.3823 0.34786 0.0
C7006 C 0.18367 0.37496 0.35826 0.0
C7007 C 0.18461 0.34695 0.38222 0.0
C7008 C 0.18367 0.35753 0.37514 0.0
H7009 H 0.16871 0.39989 0.33065 0.0
H7010 H 0.16759 0.38971 0.34909 0.0
H7011 H 0.20073 0.37893 0.36471 0.0
H7012 H 0.20284 0.32436 0.38598 0.0
H7013 H 0.20171 0.34273 0.37605 0.0
C7014 C 0.39586 0.17614 0.65556 0.0
C7015 C 0.39487 0.18609 0.66239 0.0
C7016 C 0.39008 0.1754 0.645 0.0
C7017 C 0.37495 0.19297 0.62303 0.0
H7018 H 0.35483 0.1665 0.62003 0.0
C7019 C 0.33082 0.19533 0.60197 0.0
C7020 C 0.32659 0.18598 0.59559 0.0
C7021 C 0.3415 0.19468 0.60739 0.0
C7022 C 0.36058 0.17382 0.62055 0.0
H7023 H 0.38752 0.20325 0.66325 0.0
H7024 H 0.37752 0.20195 0.64497 0.0
H7025 H 0.36984 0.1665 0.63469 0.0
H7026 H 0.33042 0.16872 0.58956 0.0
H7027 H 0.3491 0.16753 0.59923 0.0
H7028 H 0.36529 0.20053 0.60929 0.0
C7029 C 0.38276 0.19474 0.64769 0.0
C7030 C 0.36919 0.17382 0.62896 0.0
C7031 C 0.38841 0.19544 0.65824 0.0
C7032 C 0.33344 0.17606 0.59444 0.0
C7033 C 0.34411 0.17536 0.59999 0.0
C7034 C 0.36635 0.19297 0.61465 0.0
C7035 C 0.38337 0.18465 0.64104 0.0
C7036 C 0.37612 0.1836 0.63059 0.0
C7037 C 0.34817 0.18462 0.60663 0.0
C7038 C 0.35877 0.1836 0.61365 0.0
H7039 H 0.40079 0.16881 0.65852 0.0
H7040 H 0.39072 0.16754 0.64003 0.0
H7041 H 0.38033 0.20053 0.62396 0.0
H7042 H 0.3258 0.20312 0.60297 0.0
H7043 H 0.3443 0.2019 0.61259 0.0
C7044 C 0.81411 0.39464 0.65805 0.0
C7045 C 0.80429 0.39348 0.66503 0.0
C7046 C 0.81477 0.38894 0.64745 0.0
C7047 C 0.79704 0.37415 0.62547 0.0
H7048 H 0.82359 0.35433 0.62149 0.0
C7049 C 0.79467 0.33096 0.60254 0.0
C7050 C 0.80404 0.32693 0.59606 0.0
C7051 C 0.79534 0.34141 0.60838 0.0
C7052 C 0.81624 0.36 0.62228 0.0
H7053 H 0.78728 0.38583 0.66614 0.0
H7054 H 0.78843 0.37597 0.64774 0.0
H7055 H 0.82364 0.36883 0.63668 0.0
H7056 H 0.82133 0.33092 0.59027 0.0
H7057 H 0.82254 0.34925 0.60064 0.0
H7058 H 0.78943 0.36499 0.61142 0.0
C7059 C 0.79561 0.38129 0.6504 0.0
C7060 C 0.81627 0.36831 0.63099 0.0
C7061 C 0.795 0.38686 0.66101 0.0
C7062 C 0.81397 0.33379 0.59522 0.0
C7063 C 0.81468 0.34425 0.60117 0.0
C7064 C 0.79703 0.36588 0.61676 0.0
C7065 C 0.80555 0.38213 0.64358 0.0
C7066 C 0.80648 0.37513 0.63296 0.0
C7067 C 0.80541 0.34808 0.60794 0.0
C7068 C 0.80643 0.3584 0.61539 0.0
H7069 H 0.82141 0.39969 0.6609 0.0
H7070 H 0.82252 0.38975 0.64234 0.0
H7071 H 0.78947 0.37945 0.62666 0.0
H7072 H 0.78686 0.32592 0.60332 0.0
H7073 H 0.78811 0.34401 0.61365 0.0
C7074 C 0.17746 0.59458 0.65788 0.0
C7075 C 0.18714 0.59569 0.66506 0.0
C7076 C 0.17698 0.60043 0.64736 0.0
C7077 C 0.17538 0.62137 0.63145 0.0
H7078 H 0.20259 0.62638 0.61279 0.0
C7079 C 0.19628 0.66049 0.60482 0.0
C7080 C 0.18702 0.66422 0.59801 0.0
C7081 C 0.19584 0.6499 0.61045 0.0
C7082 C 0.1949 0.62502 0.61788 0.0
H7083 H 0.20412 0.60333 0.66657 0.0
H7084 H 0.20325 0.61352 0.64836 0.0
H7085 H 0.20263 0.61126 0.62739 0.0
H7086 H 0.17015 0.65959 0.59147 0.0
H7087 H 0.16933 0.64105 0.60149 0.0
H7088 H 0.16784 0.63547 0.6223 0.0
C7089 C 0.19605 0.6081 0.65077 0.0
C7090 C 0.19492 0.61637 0.62622 0.0
C7091 C 0.19651 0.60234 0.66128 0.0
C7092 C 0.17742 0.65697 0.59669 0.0
C7093 C 0.17693 0.64638 0.60243 0.0
C7094 C 0.17536 0.63002 0.62309 0.0
C7095 C 0.18621 0.60739 0.64379 0.0
C7096 C 0.18533 0.61478 0.63341 0.0
C7097 C 0.1861 0.6428 0.60945 0.0
C7098 C 0.18528 0.63222 0.61654 0.0
H7099 H 0.17012 0.58949 0.66053 0.0
H7100 H 0.1693 0.59969 0.64211 0.0
H7101 H 0.16788 0.62041 0.63691 0.0
H7102 H 0.20384 0.66583 0.60598 0.0
H7103 H 0.20297 0.64747 0.61594 0.0
loop_
_geom_bond_atom_site_label_1
_geom_bond_atom_site_label_2
_geom_bond_distance
_geom_bond_site_symmetry_2
_ccdc_geom_bond_type
C0 O1 1.306 . S
C0 O3 1.160 . S
O1 C0 1.306 . S
O1 Cd2 2.228 . S
Cd2 O1 2.228 . S
Cd2 O6 2.273 . S
Cd2 O10 2.277 . S
O3 C0 1.160 . S
O3 Cd4 2.203 . S
Cd4 O3 2.203 . S
Cd4 O6 2.411 . S
Cd4 O7 2.333 . S
Cd4 O8 2.352 . S
Cd4 O12 2.277 . S
Cd4 O13 2.356 . S
C5 O10 1.209 . S
C5 O12 1.226 . S
O6 Cd2 2.273 . S
O6 Cd4 2.411 . S
O6 C9 1.320 . S
O7 Cd4 2.333 . S
O7 C9 1.214 . S
O8 Cd4 2.352 . S
O8 C11 1.258 . S
C9 O6 1.320 . S
C9 O7 1.214 . S
O10 Cd2 2.277 . S
O10 C5 1.209 . S
C11 O8 1.258 . S
C11 O13 1.282 . S
O12 Cd4 2.277 . S
O12 C5 1.226 . S
O13 Cd4 2.356 . S
O13 C11 1.282 . S
C14 O15 1.306 . S
C14 O17 1.160 . S
O15 C14 1.306 . S
O15 Cd16 2.228 . S
Cd16 O15 2.228 . S
Cd16 O20 2.273 . S
Cd16 O24 2.277 . S
O17 C14 1.160 . S
O17 Cd18 2.203 . S
Cd18 O17 2.203 . S
Cd18 O20 2.411 . S
Cd18 O21 2.333 . S
Cd18 O22 2.352 . S
Cd18 O26 2.277 . S
Cd18 O27 2.356 . S
C19 O24 1.209 . S
C19 O26 1.226 . S
O20 Cd16 2.273 . S
O20 Cd18 2.411 . S
O20 C23 1.320 . S
O21 Cd18 2.333 . S
O21 C23 1.214 . S
O22 Cd18 2.352 . S
O22 C25 1.258 . S
C23 O20 1.320 . S
C23 O21 1.214 . S
O24 Cd16 2.277 . S
O24 C19 1.209 . S
C25 O22 1.258 . S
C25 O27 1.282 . S
O26 Cd18 2.277 . S
O26 C19 1.226 . S
O27 Cd18 2.356 . S
O27 C25 1.282 . S
C28 O29 1.306 . S
C28 O31 1.160 . S
O29 C28 1.306 . S
O29 Cd30 2.228 . S
Cd30 O29 2.228 . S
Cd30 O34 2.273 . S
Cd30 O38 2.277 . S
O31 C28 1.160 . S
O31 Cd32 2.203 . S
Cd32 O31 2.203 . S
Cd32 O34 2.411 . S
Cd32 O35 2.333 . S
Cd32 O36 2.352 . S
Cd32 O40 2.277 . S
Cd32 O41 2.356 . S
C33 O38 1.209 . S
C33 O40 1.226 . S
O34 Cd30 2.273 . S
O34 Cd32 2.411 . S
O34 C37 1.320 . S
O35 Cd32 2.333 . S
O35 C37 1.214 . S
O36 Cd32 2.352 . S
O36 C39 1.258 . S
C37 O34 1.320 . S
C37 O35 1.214 . S
O38 Cd30 2.277 . S
O38 C33 1.209 . S
C39 O36 1.258 . S
C39 O41 1.282 . S
O40 Cd32 2.277 . S
O40 C33 1.226 . S
O41 Cd32 2.356 . S
O41 C39 1.282 . S
C42 O43 1.306 . S
C42 O45 1.160 . S
O43 C42 1.306 . S
O43 Cd44 2.228 . S
Cd44 O43 2.228 . S
Cd44 O48 2.273 . S
Cd44 O52 2.277 . S
O45 C42 1.160 . S
O45 Cd46 2.203 . S
Cd46 O45 2.203 . S
Cd46 O48 2.411 . S
Cd46 O49 2.333 . S
Cd46 O50 2.352 . S
Cd46 O54 2.277 . S
Cd46 O55 2.356 . S
C47 O52 1.209 . S
C47 O54 1.226 . S
O48 Cd44 2.273 . S
O48 Cd46 2.411 . S
O48 C51 1.320 . S
O49 Cd46 2.333 . S
O49 C51 1.214 . S
O50 Cd46 2.352 . S
O50 C53 1.258 . S
C51 O48 1.320 . S
C51 O49 1.214 . S
O52 Cd44 2.277 . S
O52 C47 1.209 . S
C53 O50 1.258 . S
C53 O55 1.282 . S
O54 Cd46 2.277 . S
O54 C47 1.226 . S
O55 Cd46 2.356 . S
O55 C53 1.282 . S
C56 O57 1.306 . S
C56 O59 1.160 . S
O57 C56 1.306 . S
O57 Cd58 2.228 . S
Cd58 O57 2.228 . S
Cd58 O62 2.273 . S
Cd58 O66 2.277 . S
O59 C56 1.160 . S
O59 Cd60 2.203 . S
Cd60 O59 2.203 . S
Cd60 O62 2.411 . S
Cd60 O63 2.333 . S
Cd60 O64 2.352 . S
Cd60 O68 2.277 . S
Cd60 O69 2.356 . S
C61 O66 1.209 . S
C61 O68 1.226 . S
O62 Cd58 2.273 . S
O62 Cd60 2.411 . S
O62 C65 1.320 . S
O63 Cd60 2.333 . S
O63 C65 1.214 . S
O64 Cd60 2.352 . S
O64 C67 1.258 . S
C65 O62 1.320 . S
C65 O63 1.214 . S
O66 Cd58 2.277 . S
O66 C61 1.209 . S
C67 O64 1.258 . S
C67 O69 1.282 . S
O68 Cd60 2.277 . S
O68 C61 1.226 . S
O69 Cd60 2.356 . S
O69 C67 1.282 . S
C70 O71 1.306 . S
C70 O73 1.160 . S
O71 C70 1.306 . S
O71 Cd72 2.228 . S
Cd72 O71 2.228 . S
Cd72 O76 2.273 . S
Cd72 O80 2.277 . S
O73 C70 1.160 . S
O73 Cd74 2.203 . S
Cd74 O73 2.203 . S
Cd74 O76 2.411 . S
Cd74 O77 2.333 . S
Cd74 O78 2.352 . S
Cd74 O82 2.277 . S
Cd74 O83 2.356 . S
C75 O80 1.209 . S
C75 O82 1.226 . S
O76 Cd72 2.273 . S
O76 Cd74 2.411 . S
O76 C79 1.320 . S
O77 Cd74 2.333 . S
O77 C79 1.214 . S
O78 Cd74 2.352 . S
O78 C81 1.258 . S
C79 O76 1.320 . S
C79 O77 1.214 . S
O80 Cd72 2.277 . S
O80 C75 1.209 . S
C81 O78 1.258 . S
C81 O83 1.282 . S
O82 Cd74 2.277 . S
O82 C75 1.226 . S
O83 Cd74 2.356 . S
O83 C81 1.282 . S
C84 O85 1.306 . S
C84 O87 1.160 . S
O85 C84 1.306 . S
O85 Cd86 2.228 . S
Cd86 O85 2.228 . S
Cd86 O90 2.273 . S
Cd86 O94 2.277 . S
O87 C84 1.160 . S
O87 Cd88 2.203 . S
Cd88 O87 2.203 . S
Cd88 O90 2.411 . S
Cd88 O91 2.333 . S
Cd88 O92 2.352 . S
Cd88 O96 2.277 . S
Cd88 O97 2.356 . S
C89 O94 1.209 . S
C89 O96 1.226 . S
O90 Cd86 2.273 . S
O90 Cd88 2.411 . S
O90 C93 1.320 . S
O91 Cd88 2.333 . S
O91 C93 1.214 . S
O92 Cd88 2.352 . S
O92 C95 1.258 . S
C93 O90 1.320 . S
C93 O91 1.214 . S
O94 Cd86 2.277 . S
O94 C89 1.209 . S
C95 O92 1.258 . S
C95 O97 1.282 . S
O96 Cd88 2.277 . S
O96 C89 1.226 . S
O97 Cd88 2.356 . S
O97 C95 1.282 . S
C98 O99 1.306 . S
C98 O101 1.160 . S
O99 C98 1.306 . S
O99 Cd100 2.228 . S
Cd100 O99 2.228 . S
Cd100 O104 2.273 . S
Cd100 O108 2.277 . S
O101 C98 1.160 . S
O101 Cd102 2.203 . S
Cd102 O101 2.203 . S
Cd102 O104 2.411 . S
Cd102 O105 2.333 . S
Cd102 O106 2.352 . S
Cd102 O110 2.277 . S
Cd102 O111 2.356 . S
C103 O108 1.209 . S
C103 O110 1.226 . S
O104 Cd100 2.273 . S
O104 Cd102 2.411 . S
O104 C107 1.320 . S
O105 Cd102 2.333 . S
O105 C107 1.214 . S
O106 Cd102 2.352 . S
O106 C109 1.258 . S
C107 O104 1.320 . S
C107 O105 1.214 . S
O108 Cd100 2.277 . S
O108 C103 1.209 . S
C109 O106 1.258 . S
C109 O111 1.282 . S
O110 Cd102 2.277 . S
O110 C103 1.226 . S
O111 Cd102 2.356 . S
O111 C109 1.282 . S
C112 O113 1.306 . S
C112 O115 1.160 . S
O113 C112 1.306 . S
O113 Cd114 2.228 . S
Cd114 O113 2.228 . S
Cd114 O118 2.273 . S
Cd114 O122 2.277 . S
O115 C112 1.160 . S
O115 Cd116 2.203 . S
Cd116 O115 2.203 . S
Cd116 O118 2.411 . S
Cd116 O119 2.333 . S
Cd116 O120 2.352 . S
Cd116 O124 2.277 . S
Cd116 O125 2.356 . S
C117 O122 1.209 . S
C117 O124 1.226 . S
O118 Cd114 2.273 . S
O118 Cd116 2.411 . S
O118 C121 1.320 . S
O119 Cd116 2.333 . S
O119 C121 1.214 . S
O120 Cd116 2.352 . S
O120 C123 1.258 . S
C121 O118 1.320 . S
C121 O119 1.214 . S
O122 Cd114 2.277 . S
O122 C117 1.209 . S
C123 O120 1.258 . S
C123 O125 1.282 . S
O124 Cd116 2.277 . S
O124 C117 1.226 . S
O125 Cd116 2.356 . S
O125 C123 1.282 . S
C126 O127 1.306 . S
C126 O129 1.160 . S
O127 C126 1.306 . S
O127 Cd128 2.228 . S
Cd128 O127 2.228 . S
Cd128 O132 2.273 . S
Cd128 O136 2.277 . S
O129 C126 1.160 . S
O129 Cd130 2.203 . S
Cd130 O129 2.203 . S
Cd130 O132 2.411 . S
Cd130 O133 2.333 . S
Cd130 O134 2.352 . S
Cd130 O138 2.277 . S
Cd130 O139 2.356 . S
C131 O136 1.209 . S
C131 O138 1.226 . S
O132 Cd128 2.273 . S
O132 Cd130 2.411 . S
O132 C135 1.320 . S
O133 Cd130 2.333 . S
O133 C135 1.214 . S
O134 Cd130 2.352 . S
O134 C137 1.258 . S
C135 O132 1.320 . S
C135 O133 1.214 . S
O136 Cd128 2.277 . S
O136 C131 1.209 . S
C137 O134 1.258 . S
C137 O139 1.282 . S
O138 Cd130 2.277 . S
O138 C131 1.226 . S
O139 Cd130 2.356 . S
O139 C137 1.282 . S
C140 O141 1.306 . S
C140 O143 1.160 . S
O141 C140 1.306 . S
O141 Cd142 2.228 . S
Cd142 O141 2.228 . S
Cd142 O146 2.273 . S
Cd142 O150 2.277 . S
O143 C140 1.160 . S
O143 Cd144 2.203 . S
Cd144 O143 2.203 . S
Cd144 O146 2.411 . S
Cd144 O147 2.333 . S
Cd144 O148 2.352 . S
Cd144 O152 2.277 . S
Cd144 O153 2.356 . S
C145 O150 1.209 . S
C145 O152 1.226 . S
O146 Cd142 2.273 . S
O146 Cd144 2.411 . S
O146 C149 1.320 . S
O147 Cd144 2.333 . S
O147 C149 1.214 . S
O148 Cd144 2.352 . S
O148 C151 1.258 . S
C149 O146 1.320 . S
C149 O147 1.214 . S
O150 Cd142 2.277 . S
O150 C145 1.209 . S
C151 O148 1.258 . S
C151 O153 1.282 . S
O152 Cd144 2.277 . S
O152 C145 1.226 . S
O153 Cd144 2.356 . S
O153 C151 1.282 . S
C154 O155 1.306 . S
C154 O157 1.160 . S
O155 C154 1.306 . S
O155 Cd156 2.228 . S
Cd156 O155 2.228 . S
Cd156 O160 2.273 . S
Cd156 O164 2.277 . S
O157 C154 1.160 . S
O157 Cd158 2.203 . S
Cd158 O157 2.203 . S
Cd158 O160 2.411 . S
Cd158 O161 2.333 . S
Cd158 O162 2.352 . S
Cd158 O166 2.277 . S
Cd158 O167 2.356 . S
C159 O164 1.209 . S
C159 O166 1.226 . S
O160 Cd156 2.273 . S
O160 Cd158 2.411 . S
O160 C163 1.320 . S
O161 Cd158 2.333 . S
O161 C163 1.214 . S
O162 Cd158 2.352 . S
O162 C165 1.258 . S
C163 O160 1.320 . S
C163 O161 1.214 . S
O164 Cd156 2.277 . S
O164 C159 1.209 . S
C165 O162 1.258 . S
C165 O167 1.282 . S
O166 Cd158 2.277 . S
O166 C159 1.226 . S
O167 Cd158 2.356 . S
O167 C165 1.282 . S
C168 O169 1.306 . S
C168 O171 1.160 . S
O169 C168 1.306 . S
O169 Cd170 2.228 . S
Cd170 O169 2.228 . S
Cd170 O174 2.273 . S
Cd170 O178 2.277 . S
O171 C168 1.160 . S
O171 Cd172 2.203 . S
Cd172 O171 2.203 . S
Cd172 O174 2.411 . S
Cd172 O175 2.333 . S
Cd172 O176 2.352 . S
Cd172 O180 2.277 . S
Cd172 O181 2.356 . S
C173 O178 1.209 . S
C173 O180 1.226 . S
O174 Cd170 2.273 . S
O174 Cd172 2.411 . S
O174 C177 1.320 . S
O175 Cd172 2.333 . S
O175 C177 1.214 . S
O176 Cd172 2.352 . S
O176 C179 1.258 . S
C177 O174 1.320 . S
C177 O175 1.214 . S
O178 Cd170 2.277 . S
O178 C173 1.209 . S
C179 O176 1.258 . S
C179 O181 1.282 . S
O180 Cd172 2.277 . S
O180 C173 1.226 . S
O181 Cd172 2.356 . S
O181 C179 1.282 . S
C182 O183 1.306 . S
C182 O185 1.160 . S
O183 C182 1.306 . S
O183 Cd184 2.228 . S
Cd184 O183 2.228 . S
Cd184 O188 2.273 . S
Cd184 O192 2.277 . S
O185 C182 1.160 . S
O185 Cd186 2.203 . S
Cd186 O185 2.203 . S
Cd186 O188 2.411 . S
Cd186 O189 2.333 . S
Cd186 O190 2.352 . S
Cd186 O194 2.277 . S
Cd186 O195 2.356 . S
C187 O192 1.209 . S
C187 O194 1.226 . S
O188 Cd184 2.273 . S
O188 Cd186 2.411 . S
O188 C191 1.320 . S
O189 Cd186 2.333 . S
O189 C191 1.214 . S
O190 Cd186 2.352 . S
O190 C193 1.258 . S
C191 O188 1.320 . S
C191 O189 1.214 . S
O192 Cd184 2.277 . S
O192 C187 1.209 . S
C193 O190 1.258 . S
C193 O195 1.282 . S
O194 Cd186 2.277 . S
O194 C187 1.226 . S
O195 Cd186 2.356 . S
O195 C193 1.282 . S
C196 O197 1.306 . S
C196 O199 1.160 . S
O197 C196 1.306 . S
O197 Cd198 2.228 . S
Cd198 O197 2.228 . S
Cd198 O202 2.273 . S
Cd198 O206 2.277 . S
O199 C196 1.160 . S
O199 Cd200 2.203 . S
Cd200 O199 2.203 . S
Cd200 O202 2.411 . S
Cd200 O203 2.333 . S
Cd200 O204 2.352 . S
Cd200 O208 2.277 . S
Cd200 O209 2.356 . S
C201 O206 1.209 . S
C201 O208 1.226 . S
O202 Cd198 2.273 . S
O202 Cd200 2.411 . S
O202 C205 1.320 . S
O203 Cd200 2.333 . S
O203 C205 1.214 . S
O204 Cd200 2.352 . S
O204 C207 1.258 . S
C205 O202 1.320 . S
C205 O203 1.214 . S
O206 Cd198 2.277 . S
O206 C201 1.209 . S
C207 O204 1.258 . S
C207 O209 1.282 . S
O208 Cd200 2.277 . S
O208 C201 1.226 . S
O209 Cd200 2.356 . S
O209 C207 1.282 . S
C210 O211 1.306 . S
C210 O213 1.160 . S
O211 C210 1.306 . S
O211 Cd212 2.228 . S
Cd212 O211 2.228 . S
Cd212 O216 2.273 . S
Cd212 O220 2.277 . S
O213 C210 1.160 . S
O213 Cd214 2.203 . S
Cd214 O213 2.203 . S
Cd214 O216 2.411 . S
Cd214 O217 2.333 . S
Cd214 O218 2.352 . S
Cd214 O222 2.277 . S
Cd214 O223 2.356 . S
C215 O220 1.209 . S
C215 O222 1.226 . S
O216 Cd212 2.273 . S
O216 Cd214 2.411 . S
O216 C219 1.320 . S
O217 Cd214 2.333 . S
O217 C219 1.214 . S
O218 Cd214 2.352 . S
O218 C221 1.258 . S
C219 O216 1.320 . S
C219 O217 1.214 . S
O220 Cd212 2.277 . S
O220 C215 1.209 . S
C221 O218 1.258 . S
C221 O223 1.282 . S
O222 Cd214 2.277 . S
O222 C215 1.226 . S
O223 Cd214 2.356 . S
O223 C221 1.282 . S
C224 O225 1.306 . S
C224 O227 1.160 . S
O225 C224 1.306 . S
O225 Cd226 2.228 . S
Cd226 O225 2.228 . S
Cd226 O230 2.273 . S
Cd226 O234 2.277 . S
O227 C224 1.160 . S
O227 Cd228 2.203 . S
Cd228 O227 2.203 . S
Cd228 O230 2.411 . S
Cd228 O231 2.333 . S
Cd228 O232 2.352 . S
Cd228 O236 2.277 . S
Cd228 O237 2.356 . S
C229 O234 1.209 . S
C229 O236 1.226 . S
O230 Cd226 2.273 . S
O230 Cd228 2.411 . S
O230 C233 1.320 . S
O231 Cd228 2.333 . S
O231 C233 1.214 . S
O232 Cd228 2.352 . S
O232 C235 1.258 . S
C233 O230 1.320 . S
C233 O231 1.214 . S
O234 Cd226 2.277 . S
O234 C229 1.209 . S
C235 O232 1.258 . S
C235 O237 1.282 . S
O236 Cd228 2.277 . S
O236 C229 1.226 . S
O237 Cd228 2.356 . S
O237 C235 1.282 . S
C238 O239 1.306 . S
C238 O241 1.160 . S
O239 C238 1.306 . S
O239 Cd240 2.228 . S
Cd240 O239 2.228 . S
Cd240 O244 2.273 . S
Cd240 O248 2.277 . S
O241 C238 1.160 . S
O241 Cd242 2.203 . S
Cd242 O241 2.203 . S
Cd242 O244 2.411 . S
Cd242 O245 2.333 . S
Cd242 O246 2.352 . S
Cd242 O250 2.277 . S
Cd242 O251 2.356 . S
C243 O248 1.209 . S
C243 O250 1.226 . S
O244 Cd240 2.273 . S
O244 Cd242 2.411 . S
O244 C247 1.320 . S
O245 Cd242 2.333 . S
O245 C247 1.214 . S
O246 Cd242 2.352 . S
O246 C249 1.258 . S
C247 O244 1.320 . S
C247 O245 1.214 . S
O248 Cd240 2.277 . S
O248 C243 1.209 . S
C249 O246 1.258 . S
C249 O251 1.282 . S
O250 Cd242 2.277 . S
O250 C243 1.226 . S
O251 Cd242 2.356 . S
O251 C249 1.282 . S
C252 O253 1.306 . S
C252 O255 1.160 . S
O253 C252 1.306 . S
O253 Cd254 2.228 . S
Cd254 O253 2.228 . S
Cd254 O258 2.273 . S
Cd254 O262 2.277 . S
O255 C252 1.160 . S
O255 Cd256 2.203 . S
Cd256 O255 2.203 . S
Cd256 O258 2.411 . S
Cd256 O259 2.333 . S
Cd256 O260 2.352 . S
Cd256 O264 2.277 . S
Cd256 O265 2.356 . S
C257 O262 1.209 . S
C257 O264 1.226 . S
O258 Cd254 2.273 . S
O258 Cd256 2.411 . S
O258 C261 1.320 . S
O259 Cd256 2.333 . S
O259 C261 1.214 . S
O260 Cd256 2.352 . S
O260 C263 1.258 . S
C261 O258 1.320 . S
C261 O259 1.214 . S
O262 Cd254 2.277 . S
O262 C257 1.209 . S
C263 O260 1.258 . S
C263 O265 1.282 . S
O264 Cd256 2.277 . S
O264 C257 1.226 . S
O265 Cd256 2.356 . S
O265 C263 1.282 . S
C266 O267 1.306 . S
C266 O269 1.160 . S
O267 C266 1.306 . S
O267 Cd268 2.228 . S
Cd268 O267 2.228 . S
Cd268 O272 2.273 . S
Cd268 O276 2.277 . S
O269 C266 1.160 . S
O269 Cd270 2.203 . S
Cd270 O269 2.203 . S
Cd270 O272 2.411 . S
Cd270 O273 2.333 . S
Cd270 O274 2.352 . S
Cd270 O278 2.277 . S
Cd270 O279 2.356 . S
C271 O276 1.209 . S
C271 O278 1.226 . S
O272 Cd268 2.273 . S
O272 Cd270 2.411 . S
O272 C275 1.320 . S
O273 Cd270 2.333 . S
O273 C275 1.214 . S
O274 Cd270 2.352 . S
O274 C277 1.258 . S
C275 O272 1.320 . S
C275 O273 1.214 . S
O276 Cd268 2.277 . S
O276 C271 1.209 . S
C277 O274 1.258 . S
C277 O279 1.282 . S
O278 Cd270 2.277 . S
O278 C271 1.226 . S
O279 Cd270 2.356 . S
O279 C277 1.282 . S
C280 O281 1.306 . S
C280 O283 1.160 . S
O281 C280 1.306 . S
O281 Cd282 2.228 . S
Cd282 O281 2.228 . S
Cd282 O286 2.273 . S
Cd282 O290 2.277 . S
O283 C280 1.160 . S
O283 Cd284 2.203 . S
Cd284 O283 2.203 . S
Cd284 O286 2.411 . S
Cd284 O287 2.333 . S
Cd284 O288 2.352 . S
Cd284 O292 2.277 . S
Cd284 O293 2.356 . S
C285 O290 1.209 . S
C285 O292 1.226 . S
O286 Cd282 2.273 . S
O286 Cd284 2.411 . S
O286 C289 1.320 . S
O287 Cd284 2.333 . S
O287 C289 1.214 . S
O288 Cd284 2.352 . S
O288 C291 1.258 . S
C289 O286 1.320 . S
C289 O287 1.214 . S
O290 Cd282 2.277 . S
O290 C285 1.209 . S
C291 O288 1.258 . S
C291 O293 1.282 . S
O292 Cd284 2.277 . S
O292 C285 1.226 . S
O293 Cd284 2.356 . S
O293 C291 1.282 . S
C294 O295 1.306 . S
C294 O297 1.160 . S
O295 C294 1.306 . S
O295 Cd296 2.228 . S
Cd296 O295 2.228 . S
Cd296 O300 2.273 . S
Cd296 O304 2.277 . S
O297 C294 1.160 . S
O297 Cd298 2.203 . S
Cd298 O297 2.203 . S
Cd298 O300 2.411 . S
Cd298 O301 2.333 . S
Cd298 O302 2.352 . S
Cd298 O306 2.277 . S
Cd298 O307 2.356 . S
C299 O304 1.209 . S
C299 O306 1.226 . S
O300 Cd296 2.273 . S
O300 Cd298 2.411 . S
O300 C303 1.320 . S
O301 Cd298 2.333 . S
O301 C303 1.214 . S
O302 Cd298 2.352 . S
O302 C305 1.258 . S
C303 O300 1.320 . S
C303 O301 1.214 . S
O304 Cd296 2.277 . S
O304 C299 1.209 . S
C305 O302 1.258 . S
C305 O307 1.282 . S
O306 Cd298 2.277 . S
O306 C299 1.226 . S
O307 Cd298 2.356 . S
O307 C305 1.282 . S
C308 O309 1.306 . S
C308 O311 1.160 . S
O309 C308 1.306 . S
O309 Cd310 2.228 . S
Cd310 O309 2.228 . S
Cd310 O314 2.273 . S
Cd310 O318 2.277 . S
O311 C308 1.160 . S
O311 Cd312 2.203 . S
Cd312 O311 2.203 . S
Cd312 O314 2.411 . S
Cd312 O315 2.333 . S
Cd312 O316 2.352 . S
Cd312 O320 2.277 . S
Cd312 O321 2.356 . S
C313 O318 1.209 . S
C313 O320 1.226 . S
O314 Cd310 2.273 . S
O314 Cd312 2.411 . S
O314 C317 1.320 . S
O315 Cd312 2.333 . S
O315 C317 1.214 . S
O316 Cd312 2.352 . S
O316 C319 1.258 . S
C317 O314 1.320 . S
C317 O315 1.214 . S
O318 Cd310 2.277 . S
O318 C313 1.209 . S
C319 O316 1.258 . S
C319 O321 1.282 . S
O320 Cd312 2.277 . S
O320 C313 1.226 . S
O321 Cd312 2.356 . S
O321 C319 1.282 . S
C322 O323 1.306 . S
C322 O325 1.160 . S
O323 C322 1.306 . S
O323 Cd324 2.228 . S
Cd324 O323 2.228 . S
Cd324 O328 2.273 . S
Cd324 O332 2.277 . S
O325 C322 1.160 . S
O325 Cd326 2.203 . S
Cd326 O325 2.203 . S
Cd326 O328 2.411 . S
Cd326 O329 2.333 . S
Cd326 O330 2.352 . S
Cd326 O334 2.277 . S
Cd326 O335 2.356 . S
C327 O332 1.209 . S
C327 O334 1.226 . S
O328 Cd324 2.273 . S
O328 Cd326 2.411 . S
O328 C331 1.320 . S
O329 Cd326 2.333 . S
O329 C331 1.214 . S
O330 Cd326 2.352 . S
O330 C333 1.258 . S
C331 O328 1.320 . S
C331 O329 1.214 . S
O332 Cd324 2.277 . S
O332 C327 1.209 . S
C333 O330 1.258 . S
C333 O335 1.282 . S
O334 Cd326 2.277 . S
O334 C327 1.226 . S
O335 Cd326 2.356 . S
O335 C333 1.282 . S
C336 O337 1.306 . S
C336 O339 1.160 . S
O337 C336 1.306 . S
O337 Cd338 2.228 . S
Cd338 O337 2.228 . S
Cd338 O342 2.273 . S
Cd338 O346 2.277 . S
O339 C336 1.160 . S
O339 Cd340 2.203 . S
Cd340 O339 2.203 . S
Cd340 O342 2.411 . S
Cd340 O343 2.333 . S
Cd340 O344 2.352 . S
Cd340 O348 2.277 . S
Cd340 O349 2.356 . S
C341 O346 1.209 . S
C341 O348 1.226 . S
O342 Cd338 2.273 . S
O342 Cd340 2.411 . S
O342 C345 1.320 . S
O343 Cd340 2.333 . S
O343 C345 1.214 . S
O344 Cd340 2.352 . S
O344 C347 1.258 . S
C345 O342 1.320 . S
C345 O343 1.214 . S
O346 Cd338 2.277 . S
O346 C341 1.209 . S
C347 O344 1.258 . S
C347 O349 1.282 . S
O348 Cd340 2.277 . S
O348 C341 1.226 . S
O349 Cd340 2.356 . S
O349 C347 1.282 . S
C350 O351 1.306 . S
C350 O353 1.160 . S
O351 C350 1.306 . S
O351 Cd352 2.228 . S
Cd352 O351 2.228 . S
Cd352 O356 2.273 . S
Cd352 O360 2.277 . S
O353 C350 1.160 . S
O353 Cd354 2.203 . S
Cd354 O353 2.203 . S
Cd354 O356 2.411 . S
Cd354 O357 2.333 . S
Cd354 O358 2.352 . S
Cd354 O362 2.277 . S
Cd354 O363 2.356 . S
C355 O360 1.209 . S
C355 O362 1.226 . S
O356 Cd352 2.273 . S
O356 Cd354 2.411 . S
O356 C359 1.320 . S
O357 Cd354 2.333 . S
O357 C359 1.214 . S
O358 Cd354 2.352 . S
O358 C361 1.258 . S
C359 O356 1.320 . S
C359 O357 1.214 . S
O360 Cd352 2.277 . S
O360 C355 1.209 . S
C361 O358 1.258 . S
C361 O363 1.282 . S
O362 Cd354 2.277 . S
O362 C355 1.226 . S
O363 Cd354 2.356 . S
O363 C361 1.282 . S
C364 O365 1.306 . S
C364 O367 1.160 . S
O365 C364 1.306 . S
O365 Cd366 2.228 . S
Cd366 O365 2.228 . S
Cd366 O370 2.273 . S
Cd366 O374 2.277 . S
O367 C364 1.160 . S
O367 Cd368 2.203 . S
Cd368 O367 2.203 . S
Cd368 O370 2.411 . S
Cd368 O371 2.333 . S
Cd368 O372 2.352 . S
Cd368 O376 2.277 . S
Cd368 O377 2.356 . S
C369 O374 1.209 . S
C369 O376 1.226 . S
O370 Cd366 2.273 . S
O370 Cd368 2.411 . S
O370 C373 1.320 . S
O371 Cd368 2.333 . S
O371 C373 1.214 . S
O372 Cd368 2.352 . S
O372 C375 1.258 . S
C373 O370 1.320 . S
C373 O371 1.214 . S
O374 Cd366 2.277 . S
O374 C369 1.209 . S
C375 O372 1.258 . S
C375 O377 1.282 . S
O376 Cd368 2.277 . S
O376 C369 1.226 . S
O377 Cd368 2.356 . S
O377 C375 1.282 . S
C378 O379 1.306 . S
C378 O381 1.160 . S
O379 C378 1.306 . S
O379 Cd380 2.228 . S
Cd380 O379 2.228 . S
Cd380 O384 2.273 . S
Cd380 O388 2.277 . S
O381 C378 1.160 . S
O381 Cd382 2.203 . S
Cd382 O381 2.203 . S
Cd382 O384 2.411 . S
Cd382 O385 2.333 . S
Cd382 O386 2.352 . S
Cd382 O390 2.277 . S
Cd382 O391 2.356 . S
C383 O388 1.209 . S
C383 O390 1.226 . S
O384 Cd380 2.273 . S
O384 Cd382 2.411 . S
O384 C387 1.320 . S
O385 Cd382 2.333 . S
O385 C387 1.214 . S
O386 Cd382 2.352 . S
O386 C389 1.258 . S
C387 O384 1.320 . S
C387 O385 1.214 . S
O388 Cd380 2.277 . S
O388 C383 1.209 . S
C389 O386 1.258 . S
C389 O391 1.282 . S
O390 Cd382 2.277 . S
O390 C383 1.226 . S
O391 Cd382 2.356 . S
O391 C389 1.282 . S
C392 O393 1.306 . S
C392 O395 1.160 . S
O393 C392 1.306 . S
O393 Cd394 2.228 . S
Cd394 O393 2.228 . S
Cd394 O398 2.273 . S
Cd394 O402 2.277 . S
O395 C392 1.160 . S
O395 Cd396 2.203 . S
Cd396 O395 2.203 . S
Cd396 O398 2.411 . S
Cd396 O399 2.333 . S
Cd396 O400 2.352 . S
Cd396 O404 2.277 . S
Cd396 O405 2.356 . S
C397 O402 1.209 . S
C397 O404 1.226 . S
O398 Cd394 2.273 . S
O398 Cd396 2.411 . S
O398 C401 1.320 . S
O399 Cd396 2.333 . S
O399 C401 1.214 . S
O400 Cd396 2.352 . S
O400 C403 1.258 . S
C401 O398 1.320 . S
C401 O399 1.214 . S
O402 Cd394 2.277 . S
O402 C397 1.209 . S
C403 O400 1.258 . S
C403 O405 1.282 . S
O404 Cd396 2.277 . S
O404 C397 1.226 . S
O405 Cd396 2.356 . S
O405 C403 1.282 . S
C406 O407 1.306 . S
C406 O409 1.160 . S
O407 C406 1.306 . S
O407 Cd408 2.228 . S
Cd408 O407 2.228 . S
Cd408 O412 2.273 . S
Cd408 O416 2.277 . S
O409 C406 1.160 . S
O409 Cd410 2.203 . S
Cd410 O409 2.203 . S
Cd410 O412 2.411 . S
Cd410 O413 2.333 . S
Cd410 O414 2.352 . S
Cd410 O418 2.277 . S
Cd410 O419 2.356 . S
C411 O416 1.209 . S
C411 O418 1.226 . S
O412 Cd408 2.273 . S
O412 Cd410 2.411 . S
O412 C415 1.320 . S
O413 Cd410 2.333 . S
O413 C415 1.214 . S
O414 Cd410 2.352 . S
O414 C417 1.258 . S
C415 O412 1.320 . S
C415 O413 1.214 . S
O416 Cd408 2.277 . S
O416 C411 1.209 . S
C417 O414 1.258 . S
C417 O419 1.282 . S
O418 Cd410 2.277 . S
O418 C411 1.226 . S
O419 Cd410 2.356 . S
O419 C417 1.282 . S
C420 O421 1.306 . S
C420 O423 1.160 . S
O421 C420 1.306 . S
O421 Cd422 2.228 . S
Cd422 O421 2.228 . S
Cd422 O426 2.273 . S
Cd422 O430 2.277 . S
O423 C420 1.160 . S
O423 Cd424 2.203 . S
Cd424 O423 2.203 . S
Cd424 O426 2.411 . S
Cd424 O427 2.333 . S
Cd424 O428 2.352 . S
Cd424 O432 2.277 . S
Cd424 O433 2.356 . S
C425 O430 1.209 . S
C425 O432 1.226 . S
O426 Cd422 2.273 . S
O426 Cd424 2.411 . S
O426 C429 1.320 . S
O427 Cd424 2.333 . S
O427 C429 1.214 . S
O428 Cd424 2.352 . S
O428 C431 1.258 . S
C429 O426 1.320 . S
C429 O427 1.214 . S
O430 Cd422 2.277 . S
O430 C425 1.209 . S
C431 O428 1.258 . S
C431 O433 1.282 . S
O432 Cd424 2.277 . S
O432 C425 1.226 . S
O433 Cd424 2.356 . S
O433 C431 1.282 . S
C434 O435 1.306 . S
C434 O437 1.160 . S
O435 C434 1.306 . S
O435 Cd436 2.228 . S
Cd436 O435 2.228 . S
Cd436 O440 2.273 . S
Cd436 O444 2.277 . S
O437 C434 1.160 . S
O437 Cd438 2.203 . S
Cd438 O437 2.203 . S
Cd438 O440 2.411 . S
Cd438 O441 2.333 . S
Cd438 O442 2.352 . S
Cd438 O446 2.277 . S
Cd438 O447 2.356 . S
C439 O444 1.209 . S
C439 O446 1.226 . S
O440 Cd436 2.273 . S
O440 Cd438 2.411 . S
O440 C443 1.320 . S
O441 Cd438 2.333 . S
O441 C443 1.214 . S
O442 Cd438 2.352 . S
O442 C445 1.258 . S
C443 O440 1.320 . S
C443 O441 1.214 . S
O444 Cd436 2.277 . S
O444 C439 1.209 . S
C445 O442 1.258 . S
C445 O447 1.282 . S
O446 Cd438 2.277 . S
O446 C439 1.226 . S
O447 Cd438 2.356 . S
O447 C445 1.282 . S
C448 O449 1.306 . S
C448 O451 1.160 . S
O449 C448 1.306 . S
O449 Cd450 2.228 . S
Cd450 O449 2.228 . S
Cd450 O454 2.273 . S
Cd450 O458 2.277 . S
O451 C448 1.160 . S
O451 Cd452 2.203 . S
Cd452 O451 2.203 . S
Cd452 O454 2.411 . S
Cd452 O455 2.333 . S
Cd452 O456 2.352 . S
Cd452 O460 2.277 . S
Cd452 O461 2.356 . S
C453 O458 1.209 . S
C453 O460 1.226 . S
O454 Cd450 2.273 . S
O454 Cd452 2.411 . S
O454 C457 1.320 . S
O455 Cd452 2.333 . S
O455 C457 1.214 . S
O456 Cd452 2.352 . S
O456 C459 1.258 . S
C457 O454 1.320 . S
C457 O455 1.214 . S
O458 Cd450 2.277 . S
O458 C453 1.209 . S
C459 O456 1.258 . S
C459 O461 1.282 . S
O460 Cd452 2.277 . S
O460 C453 1.226 . S
O461 Cd452 2.356 . S
O461 C459 1.282 . S
C462 O463 1.306 . S
C462 O465 1.160 . S
O463 C462 1.306 . S
O463 Cd464 2.228 . S
Cd464 O463 2.228 . S
Cd464 O468 2.273 . S
Cd464 O472 2.277 . S
O465 C462 1.160 . S
O465 Cd466 2.203 . S
Cd466 O465 2.203 . S
Cd466 O468 2.411 . S
Cd466 O469 2.333 . S
Cd466 O470 2.352 . S
Cd466 O474 2.277 . S
Cd466 O475 2.356 . S
C467 O472 1.209 . S
C467 O474 1.226 . S
O468 Cd464 2.273 . S
O468 Cd466 2.411 . S
O468 C471 1.320 . S
O469 Cd466 2.333 . S
O469 C471 1.214 . S
O470 Cd466 2.352 . S
O470 C473 1.258 . S
C471 O468 1.320 . S
C471 O469 1.214 . S
O472 Cd464 2.277 . S
O472 C467 1.209 . S
C473 O470 1.258 . S
C473 O475 1.282 . S
O474 Cd466 2.277 . S
O474 C467 1.226 . S
O475 Cd466 2.356 . S
O475 C473 1.282 . S
C476 O477 1.306 . S
C476 O479 1.160 . S
O477 C476 1.306 . S
O477 Cd478 2.228 . S
Cd478 O477 2.228 . S
Cd478 O482 2.273 . S
Cd478 O486 2.277 . S
O479 C476 1.160 . S
O479 Cd480 2.203 . S
Cd480 O479 2.203 . S
Cd480 O482 2.411 . S
Cd480 O483 2.333 . S
Cd480 O484 2.352 . S
Cd480 O488 2.277 . S
Cd480 O489 2.356 . S
C481 O486 1.209 . S
C481 O488 1.226 . S
O482 Cd478 2.273 . S
O482 Cd480 2.411 . S
O482 C485 1.320 . S
O483 Cd480 2.333 . S
O483 C485 1.214 . S
O484 Cd480 2.352 . S
O484 C487 1.258 . S
C485 O482 1.320 . S
C485 O483 1.214 . S
O486 Cd478 2.277 . S
O486 C481 1.209 . S
C487 O484 1.258 . S
C487 O489 1.282 . S
O488 Cd480 2.277 . S
O488 C481 1.226 . S
O489 Cd480 2.356 . S
O489 C487 1.282 . S
C490 O491 1.306 . S
C490 O493 1.160 . S
O491 C490 1.306 . S
O491 Cd492 2.228 . S
Cd492 O491 2.228 . S
Cd492 O496 2.273 . S
Cd492 O500 2.277 . S
O493 C490 1.160 . S
O493 Cd494 2.203 . S
Cd494 O493 2.203 . S
Cd494 O496 2.411 . S
Cd494 O497 2.333 . S
Cd494 O498 2.352 . S
Cd494 O502 2.277 . S
Cd494 O503 2.356 . S
C495 O500 1.209 . S
C495 O502 1.226 . S
O496 Cd492 2.273 . S
O496 Cd494 2.411 . S
O496 C499 1.320 . S
O497 Cd494 2.333 . S
O497 C499 1.214 . S
O498 Cd494 2.352 . S
O498 C501 1.258 . S
C499 O496 1.320 . S
C499 O497 1.214 . S
O500 Cd492 2.277 . S
O500 C495 1.209 . S
C501 O498 1.258 . S
C501 O503 1.282 . S
O502 Cd494 2.277 . S
O502 C495 1.226 . S
O503 Cd494 2.356 . S
O503 C501 1.282 . S
C504 O505 1.306 . S
C504 O507 1.160 . S
O505 C504 1.306 . S
O505 Cd506 2.228 . S
Cd506 O505 2.228 . S
Cd506 O510 2.273 . S
Cd506 O514 2.277 . S
O507 C504 1.160 . S
O507 Cd508 2.203 . S
Cd508 O507 2.203 . S
Cd508 O510 2.411 . S
Cd508 O511 2.333 . S
Cd508 O512 2.352 . S
Cd508 O516 2.277 . S
Cd508 O517 2.356 . S
C509 O514 1.209 . S
C509 O516 1.226 . S
O510 Cd506 2.273 . S
O510 Cd508 2.411 . S
O510 C513 1.320 . S
O511 Cd508 2.333 . S
O511 C513 1.214 . S
O512 Cd508 2.352 . S
O512 C515 1.258 . S
C513 O510 1.320 . S
C513 O511 1.214 . S
O514 Cd506 2.277 . S
O514 C509 1.209 . S
C515 O512 1.258 . S
C515 O517 1.282 . S
O516 Cd508 2.277 . S
O516 C509 1.226 . S
O517 Cd508 2.356 . S
O517 C515 1.282 . S
C518 O519 1.306 . S
C518 O521 1.160 . S
O519 C518 1.306 . S
O519 Cd520 2.228 . S
Cd520 O519 2.228 . S
Cd520 O524 2.273 . S
Cd520 O528 2.277 . S
O521 C518 1.160 . S
O521 Cd522 2.203 . S
Cd522 O521 2.203 . S
Cd522 O524 2.411 . S
Cd522 O525 2.333 . S
Cd522 O526 2.352 . S
Cd522 O530 2.277 . S
Cd522 O531 2.356 . S
C523 O528 1.209 . S
C523 O530 1.226 . S
O524 Cd520 2.273 . S
O524 Cd522 2.411 . S
O524 C527 1.320 . S
O525 Cd522 2.333 . S
O525 C527 1.214 . S
O526 Cd522 2.352 . S
O526 C529 1.258 . S
C527 O524 1.320 . S
C527 O525 1.214 . S
O528 Cd520 2.277 . S
O528 C523 1.209 . S
C529 O526 1.258 . S
C529 O531 1.282 . S
O530 Cd522 2.277 . S
O530 C523 1.226 . S
O531 Cd522 2.356 . S
O531 C529 1.282 . S
C532 O533 1.306 . S
C532 O535 1.160 . S
O533 C532 1.306 . S
O533 Cd534 2.228 . S
Cd534 O533 2.228 . S
Cd534 O538 2.273 . S
Cd534 O542 2.277 . S
O535 C532 1.160 . S
O535 Cd536 2.203 . S
Cd536 O535 2.203 . S
Cd536 O538 2.411 . S
Cd536 O539 2.333 . S
Cd536 O540 2.352 . S
Cd536 O544 2.277 . S
Cd536 O545 2.356 . S
C537 O542 1.209 . S
C537 O544 1.226 . S
O538 Cd534 2.273 . S
O538 Cd536 2.411 . S
O538 C541 1.320 . S
O539 Cd536 2.333 . S
O539 C541 1.214 . S
O540 Cd536 2.352 . S
O540 C543 1.258 . S
C541 O538 1.320 . S
C541 O539 1.214 . S
O542 Cd534 2.277 . S
O542 C537 1.209 . S
C543 O540 1.258 . S
C543 O545 1.282 . S
O544 Cd536 2.277 . S
O544 C537 1.226 . S
O545 Cd536 2.356 . S
O545 C543 1.282 . S
C546 O547 1.306 . S
C546 O549 1.160 . S
O547 C546 1.306 . S
O547 Cd548 2.228 . S
Cd548 O547 2.228 . S
Cd548 O552 2.273 . S
Cd548 O556 2.277 . S
O549 C546 1.160 . S
O549 Cd550 2.203 . S
Cd550 O549 2.203 . S
Cd550 O552 2.411 . S
Cd550 O553 2.333 . S
Cd550 O554 2.352 . S
Cd550 O558 2.277 . S
Cd550 O559 2.356 . S
C551 O556 1.209 . S
C551 O558 1.226 . S
O552 Cd548 2.273 . S
O552 Cd550 2.411 . S
O552 C555 1.320 . S
O553 Cd550 2.333 . S
O553 C555 1.214 . S
O554 Cd550 2.352 . S
O554 C557 1.258 . S
C555 O552 1.320 . S
C555 O553 1.214 . S
O556 Cd548 2.277 . S
O556 C551 1.209 . S
C557 O554 1.258 . S
C557 O559 1.282 . S
O558 Cd550 2.277 . S
O558 C551 1.226 . S
O559 Cd550 2.356 . S
O559 C557 1.282 . S
C560 O561 1.306 . S
C560 O563 1.160 . S
O561 C560 1.306 . S
O561 Cd562 2.228 . S
Cd562 O561 2.228 . S
Cd562 O566 2.273 . S
Cd562 O570 2.277 . S
O563 C560 1.160 . S
O563 Cd564 2.203 . S
Cd564 O563 2.203 . S
Cd564 O566 2.411 . S
Cd564 O567 2.333 . S
Cd564 O568 2.352 . S
Cd564 O572 2.277 . S
Cd564 O573 2.356 . S
C565 O570 1.209 . S
C565 O572 1.226 . S
O566 Cd562 2.273 . S
O566 Cd564 2.411 . S
O566 C569 1.320 . S
O567 Cd564 2.333 . S
O567 C569 1.214 . S
O568 Cd564 2.352 . S
O568 C571 1.258 . S
C569 O566 1.320 . S
C569 O567 1.214 . S
O570 Cd562 2.277 . S
O570 C565 1.209 . S
C571 O568 1.258 . S
C571 O573 1.282 . S
O572 Cd564 2.277 . S
O572 C565 1.226 . S
O573 Cd564 2.356 . S
O573 C571 1.282 . S
C574 O575 1.306 . S
C574 O577 1.160 . S
O575 C574 1.306 . S
O575 Cd576 2.228 . S
Cd576 O575 2.228 . S
Cd576 O580 2.273 . S
Cd576 O584 2.277 . S
O577 C574 1.160 . S
O577 Cd578 2.203 . S
Cd578 O577 2.203 . S
Cd578 O580 2.411 . S
Cd578 O581 2.333 . S
Cd578 O582 2.352 . S
Cd578 O586 2.277 . S
Cd578 O587 2.356 . S
C579 O584 1.209 . S
C579 O586 1.226 . S
O580 Cd576 2.273 . S
O580 Cd578 2.411 . S
O580 C583 1.320 . S
O581 Cd578 2.333 . S
O581 C583 1.214 . S
O582 Cd578 2.352 . S
O582 C585 1.258 . S
C583 O580 1.320 . S
C583 O581 1.214 . S
O584 Cd576 2.277 . S
O584 C579 1.209 . S
C585 O582 1.258 . S
C585 O587 1.282 . S
O586 Cd578 2.277 . S
O586 C579 1.226 . S
O587 Cd578 2.356 . S
O587 C585 1.282 . S
C588 O589 1.306 . S
C588 O591 1.160 . S
O589 C588 1.306 . S
O589 Cd590 2.228 . S
Cd590 O589 2.228 . S
Cd590 O594 2.273 . S
Cd590 O598 2.277 . S
O591 C588 1.160 . S
O591 Cd592 2.203 . S
Cd592 O591 2.203 . S
Cd592 O594 2.411 . S
Cd592 O595 2.333 . S
Cd592 O596 2.352 . S
Cd592 O600 2.277 . S
Cd592 O601 2.356 . S
C593 O598 1.209 . S
C593 O600 1.226 . S
O594 Cd590 2.273 . S
O594 Cd592 2.411 . S
O594 C597 1.320 . S
O595 Cd592 2.333 . S
O595 C597 1.214 . S
O596 Cd592 2.352 . S
O596 C599 1.258 . S
C597 O594 1.320 . S
C597 O595 1.214 . S
O598 Cd590 2.277 . S
O598 C593 1.209 . S
C599 O596 1.258 . S
C599 O601 1.282 . S
O600 Cd592 2.277 . S
O600 C593 1.226 . S
O601 Cd592 2.356 . S
O601 C599 1.282 . S
C602 O603 1.306 . S
C602 O605 1.160 . S
O603 C602 1.306 . S
O603 Cd604 2.228 . S
Cd604 O603 2.228 . S
Cd604 O608 2.273 . S
Cd604 O612 2.277 . S
O605 C602 1.160 . S
O605 Cd606 2.203 . S
Cd606 O605 2.203 . S
Cd606 O608 2.411 . S
Cd606 O609 2.333 . S
Cd606 O610 2.352 . S
Cd606 O614 2.277 . S
Cd606 O615 2.356 . S
C607 O612 1.209 . S
C607 O614 1.226 . S
O608 Cd604 2.273 . S
O608 Cd606 2.411 . S
O608 C611 1.320 . S
O609 Cd606 2.333 . S
O609 C611 1.214 . S
O610 Cd606 2.352 . S
O610 C613 1.258 . S
C611 O608 1.320 . S
C611 O609 1.214 . S
O612 Cd604 2.277 . S
O612 C607 1.209 . S
C613 O610 1.258 . S
C613 O615 1.282 . S
O614 Cd606 2.277 . S
O614 C607 1.226 . S
O615 Cd606 2.356 . S
O615 C613 1.282 . S
C616 O617 1.306 . S
C616 O619 1.160 . S
O617 C616 1.306 . S
O617 Cd618 2.228 . S
Cd618 O617 2.228 . S
Cd618 O622 2.273 . S
Cd618 O626 2.277 . S
O619 C616 1.160 . S
O619 Cd620 2.203 . S
Cd620 O619 2.203 . S
Cd620 O622 2.411 . S
Cd620 O623 2.333 . S
Cd620 O624 2.352 . S
Cd620 O628 2.277 . S
Cd620 O629 2.356 . S
C621 O626 1.209 . S
C621 O628 1.226 . S
O622 Cd618 2.273 . S
O622 Cd620 2.411 . S
O622 C625 1.320 . S
O623 Cd620 2.333 . S
O623 C625 1.214 . S
O624 Cd620 2.352 . S
O624 C627 1.258 . S
C625 O622 1.320 . S
C625 O623 1.214 . S
O626 Cd618 2.277 . S
O626 C621 1.209 . S
C627 O624 1.258 . S
C627 O629 1.282 . S
O628 Cd620 2.277 . S
O628 C621 1.226 . S
O629 Cd620 2.356 . S
O629 C627 1.282 . S
C630 O631 1.306 . S
C630 O633 1.160 . S
O631 C630 1.306 . S
O631 Cd632 2.228 . S
Cd632 O631 2.228 . S
Cd632 O636 2.273 . S
Cd632 O640 2.277 . S
O633 C630 1.160 . S
O633 Cd634 2.203 . S
Cd634 O633 2.203 . S
Cd634 O636 2.411 . S
Cd634 O637 2.333 . S
Cd634 O638 2.352 . S
Cd634 O642 2.277 . S
Cd634 O643 2.356 . S
C635 O640 1.209 . S
C635 O642 1.226 . S
O636 Cd632 2.273 . S
O636 Cd634 2.411 . S
O636 C639 1.320 . S
O637 Cd634 2.333 . S
O637 C639 1.214 . S
O638 Cd634 2.352 . S
O638 C641 1.258 . S
C639 O636 1.320 . S
C639 O637 1.214 . S
O640 Cd632 2.277 . S
O640 C635 1.209 . S
C641 O638 1.258 . S
C641 O643 1.282 . S
O642 Cd634 2.277 . S
O642 C635 1.226 . S
O643 Cd634 2.356 . S
O643 C641 1.282 . S
C644 O645 1.306 . S
C644 O647 1.160 . S
O645 C644 1.306 . S
O645 Cd646 2.228 . S
Cd646 O645 2.228 . S
Cd646 O650 2.273 . S
Cd646 O654 2.277 . S
O647 C644 1.160 . S
O647 Cd648 2.203 . S
Cd648 O647 2.203 . S
Cd648 O650 2.411 . S
Cd648 O651 2.333 . S
Cd648 O652 2.352 . S
Cd648 O656 2.277 . S
Cd648 O657 2.356 . S
C649 O654 1.209 . S
C649 O656 1.226 . S
O650 Cd646 2.273 . S
O650 Cd648 2.411 . S
O650 C653 1.320 . S
O651 Cd648 2.333 . S
O651 C653 1.214 . S
O652 Cd648 2.352 . S
O652 C655 1.258 . S
C653 O650 1.320 . S
C653 O651 1.214 . S
O654 Cd646 2.277 . S
O654 C649 1.209 . S
C655 O652 1.258 . S
C655 O657 1.282 . S
O656 Cd648 2.277 . S
O656 C649 1.226 . S
O657 Cd648 2.356 . S
O657 C655 1.282 . S
C658 O659 1.306 . S
C658 O661 1.160 . S
O659 C658 1.306 . S
O659 Cd660 2.228 . S
Cd660 O659 2.228 . S
Cd660 O664 2.273 . S
Cd660 O668 2.277 . S
O661 C658 1.160 . S
O661 Cd662 2.203 . S
Cd662 O661 2.203 . S
Cd662 O664 2.411 . S
Cd662 O665 2.333 . S
Cd662 O666 2.352 . S
Cd662 O670 2.277 . S
Cd662 O671 2.356 . S
C663 O668 1.209 . S
C663 O670 1.226 . S
O664 Cd660 2.273 . S
O664 Cd662 2.411 . S
O664 C667 1.320 . S
O665 Cd662 2.333 . S
O665 C667 1.214 . S
O666 Cd662 2.352 . S
O666 C669 1.258 . S
C667 O664 1.320 . S
C667 O665 1.214 . S
O668 Cd660 2.277 . S
O668 C663 1.209 . S
C669 O666 1.258 . S
C669 O671 1.282 . S
O670 Cd662 2.277 . S
O670 C663 1.226 . S
O671 Cd662 2.356 . S
O671 C669 1.282 . S
C672 O673 1.306 . S
C672 O675 1.160 . S
O673 C672 1.306 . S
O673 Cd674 2.228 . S
Cd674 O673 2.228 . S
Cd674 O678 2.273 . S
Cd674 O682 2.277 . S
O675 C672 1.160 . S
O675 Cd676 2.203 . S
Cd676 O675 2.203 . S
Cd676 O678 2.411 . S
Cd676 O679 2.333 . S
Cd676 O680 2.352 . S
Cd676 O684 2.277 . S
Cd676 O685 2.356 . S
C677 O682 1.209 . S
C677 O684 1.226 . S
O678 Cd674 2.273 . S
O678 Cd676 2.411 . S
O678 C681 1.320 . S
O679 Cd676 2.333 . S
O679 C681 1.214 . S
O680 Cd676 2.352 . S
O680 C683 1.258 . S
C681 O678 1.320 . S
C681 O679 1.214 . S
O682 Cd674 2.277 . S
O682 C677 1.209 . S
C683 O680 1.258 . S
C683 O685 1.282 . S
O684 Cd676 2.277 . S
O684 C677 1.226 . S
O685 Cd676 2.356 . S
O685 C683 1.282 . S
C686 O687 1.306 . S
C686 O689 1.160 . S
O687 C686 1.306 . S
O687 Cd688 2.228 . S
Cd688 O687 2.228 . S
Cd688 O692 2.273 . S
Cd688 O696 2.277 . S
O689 C686 1.160 . S
O689 Cd690 2.203 . S
Cd690 O689 2.203 . S
Cd690 O692 2.411 . S
Cd690 O693 2.333 . S
Cd690 O694 2.352 . S
Cd690 O698 2.277 . S
Cd690 O699 2.356 . S
C691 O696 1.209 . S
C691 O698 1.226 . S
O692 Cd688 2.273 . S
O692 Cd690 2.411 . S
O692 C695 1.320 . S
O693 Cd690 2.333 . S
O693 C695 1.214 . S
O694 Cd690 2.352 . S
O694 C697 1.258 . S
C695 O692 1.320 . S
C695 O693 1.214 . S
O696 Cd688 2.277 . S
O696 C691 1.209 . S
C697 O694 1.258 . S
C697 O699 1.282 . S
O698 Cd690 2.277 . S
O698 C691 1.226 . S
O699 Cd690 2.356 . S
O699 C697 1.282 . S
C700 O701 1.306 . S
C700 O703 1.160 . S
O701 C700 1.306 . S
O701 Cd702 2.228 . S
Cd702 O701 2.228 . S
Cd702 O706 2.273 . S
Cd702 O710 2.277 . S
O703 C700 1.160 . S
O703 Cd704 2.203 . S
Cd704 O703 2.203 . S
Cd704 O706 2.411 . S
Cd704 O707 2.333 . S
Cd704 O708 2.352 . S
Cd704 O712 2.277 . S
Cd704 O713 2.356 . S
C705 O710 1.209 . S
C705 O712 1.226 . S
O706 Cd702 2.273 . S
O706 Cd704 2.411 . S
O706 C709 1.320 . S
O707 Cd704 2.333 . S
O707 C709 1.214 . S
O708 Cd704 2.352 . S
O708 C711 1.258 . S
C709 O706 1.320 . S
C709 O707 1.214 . S
O710 Cd702 2.277 . S
O710 C705 1.209 . S
C711 O708 1.258 . S
C711 O713 1.282 . S
O712 Cd704 2.277 . S
O712 C705 1.226 . S
O713 Cd704 2.356 . S
O713 C711 1.282 . S
C714 O715 1.306 . S
C714 O717 1.160 . S
O715 C714 1.306 . S
O715 Cd716 2.228 . S
Cd716 O715 2.228 . S
Cd716 O720 2.273 . S
Cd716 O724 2.277 . S
O717 C714 1.160 . S
O717 Cd718 2.203 . S
Cd718 O717 2.203 . S
Cd718 O720 2.411 . S
Cd718 O721 2.333 . S
Cd718 O722 2.352 . S
Cd718 O726 2.277 . S
Cd718 O727 2.356 . S
C719 O724 1.209 . S
C719 O726 1.226 . S
O720 Cd716 2.273 . S
O720 Cd718 2.411 . S
O720 C723 1.320 . S
O721 Cd718 2.333 . S
O721 C723 1.214 . S
O722 Cd718 2.352 . S
O722 C725 1.258 . S
C723 O720 1.320 . S
C723 O721 1.214 . S
O724 Cd716 2.277 . S
O724 C719 1.209 . S
C725 O722 1.258 . S
C725 O727 1.282 . S
O726 Cd718 2.277 . S
O726 C719 1.226 . S
O727 Cd718 2.356 . S
O727 C725 1.282 . S
C728 O729 1.306 . S
C728 O731 1.160 . S
O729 C728 1.306 . S
O729 Cd730 2.228 . S
Cd730 O729 2.228 . S
Cd730 O734 2.273 . S
Cd730 O738 2.277 . S
O731 C728 1.160 . S
O731 Cd732 2.203 . S
Cd732 O731 2.203 . S
Cd732 O734 2.411 . S
Cd732 O735 2.333 . S
Cd732 O736 2.352 . S
Cd732 O740 2.277 . S
Cd732 O741 2.356 . S
C733 O738 1.209 . S
C733 O740 1.226 . S
O734 Cd730 2.273 . S
O734 Cd732 2.411 . S
O734 C737 1.320 . S
O735 Cd732 2.333 . S
O735 C737 1.214 . S
O736 Cd732 2.352 . S
O736 C739 1.258 . S
C737 O734 1.320 . S
C737 O735 1.214 . S
O738 Cd730 2.277 . S
O738 C733 1.209 . S
C739 O736 1.258 . S
C739 O741 1.282 . S
O740 Cd732 2.277 . S
O740 C733 1.226 . S
O741 Cd732 2.356 . S
O741 C739 1.282 . S
C742 O743 1.306 . S
C742 O745 1.160 . S
O743 C742 1.306 . S
O743 Cd744 2.228 . S
Cd744 O743 2.228 . S
Cd744 O748 2.273 . S
Cd744 O752 2.277 . S
O745 C742 1.160 . S
O745 Cd746 2.203 . S
Cd746 O745 2.203 . S
Cd746 O748 2.411 . S
Cd746 O749 2.333 . S
Cd746 O750 2.352 . S
Cd746 O754 2.277 . S
Cd746 O755 2.356 . S
C747 O752 1.209 . S
C747 O754 1.226 . S
O748 Cd744 2.273 . S
O748 Cd746 2.411 . S
O748 C751 1.320 . S
O749 Cd746 2.333 . S
O749 C751 1.214 . S
O750 Cd746 2.352 . S
O750 C753 1.258 . S
C751 O748 1.320 . S
C751 O749 1.214 . S
O752 Cd744 2.277 . S
O752 C747 1.209 . S
C753 O750 1.258 . S
C753 O755 1.282 . S
O754 Cd746 2.277 . S
O754 C747 1.226 . S
O755 Cd746 2.356 . S
O755 C753 1.282 . S
C756 O757 1.306 . S
C756 O759 1.160 . S
O757 C756 1.306 . S
O757 Cd758 2.228 . S
Cd758 O757 2.228 . S
Cd758 O762 2.273 . S
Cd758 O766 2.277 . S
O759 C756 1.160 . S
O759 Cd760 2.203 . S
Cd760 O759 2.203 . S
Cd760 O762 2.411 . S
Cd760 O763 2.333 . S
Cd760 O764 2.352 . S
Cd760 O768 2.277 . S
Cd760 O769 2.356 . S
C761 O766 1.209 . S
C761 O768 1.226 . S
O762 Cd758 2.273 . S
O762 Cd760 2.411 . S
O762 C765 1.320 . S
O763 Cd760 2.333 . S
O763 C765 1.214 . S
O764 Cd760 2.352 . S
O764 C767 1.258 . S
C765 O762 1.320 . S
C765 O763 1.214 . S
O766 Cd758 2.277 . S
O766 C761 1.209 . S
C767 O764 1.258 . S
C767 O769 1.282 . S
O768 Cd760 2.277 . S
O768 C761 1.226 . S
O769 Cd760 2.356 . S
O769 C767 1.282 . S
C770 O771 1.306 . S
C770 O773 1.160 . S
O771 C770 1.306 . S
O771 Cd772 2.228 . S
Cd772 O771 2.228 . S
Cd772 O776 2.273 . S
Cd772 O780 2.277 . S
O773 C770 1.160 . S
O773 Cd774 2.203 . S
Cd774 O773 2.203 . S
Cd774 O776 2.411 . S
Cd774 O777 2.333 . S
Cd774 O778 2.352 . S
Cd774 O782 2.277 . S
Cd774 O783 2.356 . S
C775 O780 1.209 . S
C775 O782 1.226 . S
O776 Cd772 2.273 . S
O776 Cd774 2.411 . S
O776 C779 1.320 . S
O777 Cd774 2.333 . S
O777 C779 1.214 . S
O778 Cd774 2.352 . S
O778 C781 1.258 . S
C779 O776 1.320 . S
C779 O777 1.214 . S
O780 Cd772 2.277 . S
O780 C775 1.209 . S
C781 O778 1.258 . S
C781 O783 1.282 . S
O782 Cd774 2.277 . S
O782 C775 1.226 . S
O783 Cd774 2.356 . S
O783 C781 1.282 . S
C784 O785 1.306 . S
C784 O787 1.160 . S
O785 C784 1.306 . S
O785 Cd786 2.228 . S
Cd786 O785 2.228 . S
Cd786 O790 2.273 . S
Cd786 O794 2.277 . S
O787 C784 1.160 . S
O787 Cd788 2.203 . S
Cd788 O787 2.203 . S
Cd788 O790 2.411 . S
Cd788 O791 2.333 . S
Cd788 O792 2.352 . S
Cd788 O796 2.277 . S
Cd788 O797 2.356 . S
C789 O794 1.209 . S
C789 O796 1.226 . S
O790 Cd786 2.273 . S
O790 Cd788 2.411 . S
O790 C793 1.320 . S
O791 Cd788 2.333 . S
O791 C793 1.214 . S
O792 Cd788 2.352 . S
O792 C795 1.258 . S
C793 O790 1.320 . S
C793 O791 1.214 . S
O794 Cd786 2.277 . S
O794 C789 1.209 . S
C795 O792 1.258 . S
C795 O797 1.282 . S
O796 Cd788 2.277 . S
O796 C789 1.226 . S
O797 Cd788 2.356 . S
O797 C795 1.282 . S
C798 O799 1.306 . S
C798 O801 1.160 . S
O799 C798 1.306 . S
O799 Cd800 2.228 . S
Cd800 O799 2.228 . S
Cd800 O804 2.273 . S
Cd800 O808 2.277 . S
O801 C798 1.160 . S
O801 Cd802 2.203 . S
Cd802 O801 2.203 . S
Cd802 O804 2.411 . S
Cd802 O805 2.333 . S
Cd802 O806 2.352 . S
Cd802 O810 2.277 . S
Cd802 O811 2.356 . S
C803 O808 1.209 . S
C803 O810 1.226 . S
O804 Cd800 2.273 . S
O804 Cd802 2.411 . S
O804 C807 1.320 . S
O805 Cd802 2.333 . S
O805 C807 1.214 . S
O806 Cd802 2.352 . S
O806 C809 1.258 . S
C807 O804 1.320 . S
C807 O805 1.214 . S
O808 Cd800 2.277 . S
O808 C803 1.209 . S
C809 O806 1.258 . S
C809 O811 1.282 . S
O810 Cd802 2.277 . S
O810 C803 1.226 . S
O811 Cd802 2.356 . S
O811 C809 1.282 . S
C812 O813 1.306 . S
C812 O815 1.160 . S
O813 C812 1.306 . S
O813 Cd814 2.228 . S
Cd814 O813 2.228 . S
Cd814 O818 2.273 . S
Cd814 O822 2.277 . S
O815 C812 1.160 . S
O815 Cd816 2.203 . S
Cd816 O815 2.203 . S
Cd816 O818 2.411 . S
Cd816 O819 2.333 . S
Cd816 O820 2.352 . S
Cd816 O824 2.277 . S
Cd816 O825 2.356 . S
C817 O822 1.209 . S
C817 O824 1.226 . S
O818 Cd814 2.273 . S
O818 Cd816 2.411 . S
O818 C821 1.320 . S
O819 Cd816 2.333 . S
O819 C821 1.214 . S
O820 Cd816 2.352 . S
O820 C823 1.258 . S
C821 O818 1.320 . S
C821 O819 1.214 . S
O822 Cd814 2.277 . S
O822 C817 1.209 . S
C823 O820 1.258 . S
C823 O825 1.282 . S
O824 Cd816 2.277 . S
O824 C817 1.226 . S
O825 Cd816 2.356 . S
O825 C823 1.282 . S
C826 O827 1.306 . S
C826 O829 1.160 . S
O827 C826 1.306 . S
O827 Cd828 2.228 . S
Cd828 O827 2.228 . S
Cd828 O832 2.273 . S
Cd828 O836 2.277 . S
O829 C826 1.160 . S
O829 Cd830 2.203 . S
Cd830 O829 2.203 . S
Cd830 O832 2.411 . S
Cd830 O833 2.333 . S
Cd830 O834 2.352 . S
Cd830 O838 2.277 . S
Cd830 O839 2.356 . S
C831 O836 1.209 . S
C831 O838 1.226 . S
O832 Cd828 2.273 . S
O832 Cd830 2.411 . S
O832 C835 1.320 . S
O833 Cd830 2.333 . S
O833 C835 1.214 . S
O834 Cd830 2.352 . S
O834 C837 1.258 . S
C835 O832 1.320 . S
C835 O833 1.214 . S
O836 Cd828 2.277 . S
O836 C831 1.209 . S
C837 O834 1.258 . S
C837 O839 1.282 . S
O838 Cd830 2.277 . S
O838 C831 1.226 . S
O839 Cd830 2.356 . S
O839 C837 1.282 . S
C840 O841 1.306 . S
C840 O843 1.160 . S
O841 C840 1.306 . S
O841 Cd842 2.228 . S
Cd842 O841 2.228 . S
Cd842 O846 2.273 . S
Cd842 O850 2.277 . S
O843 C840 1.160 . S
O843 Cd844 2.203 . S
Cd844 O843 2.203 . S
Cd844 O846 2.411 . S
Cd844 O847 2.333 . S
Cd844 O848 2.352 . S
Cd844 O852 2.277 . S
Cd844 O853 2.356 . S
C845 O850 1.209 . S
C845 O852 1.226 . S
O846 Cd842 2.273 . S
O846 Cd844 2.411 . S
O846 C849 1.320 . S
O847 Cd844 2.333 . S
O847 C849 1.214 . S
O848 Cd844 2.352 . S
O848 C851 1.258 . S
C849 O846 1.320 . S
C849 O847 1.214 . S
O850 Cd842 2.277 . S
O850 C845 1.209 . S
C851 O848 1.258 . S
C851 O853 1.282 . S
O852 Cd844 2.277 . S
O852 C845 1.226 . S
O853 Cd844 2.356 . S
O853 C851 1.282 . S
C854 O855 1.306 . S
C854 O857 1.160 . S
O855 C854 1.306 . S
O855 Cd856 2.228 . S
Cd856 O855 2.228 . S
Cd856 O860 2.273 . S
Cd856 O864 2.277 . S
O857 C854 1.160 . S
O857 Cd858 2.203 . S
Cd858 O857 2.203 . S
Cd858 O860 2.411 . S
Cd858 O861 2.333 . S
Cd858 O862 2.352 . S
Cd858 O866 2.277 . S
Cd858 O867 2.356 . S
C859 O864 1.209 . S
C859 O866 1.226 . S
O860 Cd856 2.273 . S
O860 Cd858 2.411 . S
O860 C863 1.320 . S
O861 Cd858 2.333 . S
O861 C863 1.214 . S
O862 Cd858 2.352 . S
O862 C865 1.258 . S
C863 O860 1.320 . S
C863 O861 1.214 . S
O864 Cd856 2.277 . S
O864 C859 1.209 . S
C865 O862 1.258 . S
C865 O867 1.282 . S
O866 Cd858 2.277 . S
O866 C859 1.226 . S
O867 Cd858 2.356 . S
O867 C865 1.282 . S
C868 O869 1.306 . S
C868 O871 1.160 . S
O869 C868 1.306 . S
O869 Cd870 2.228 . S
Cd870 O869 2.228 . S
Cd870 O874 2.273 . S
Cd870 O878 2.277 . S
O871 C868 1.160 . S
O871 Cd872 2.203 . S
Cd872 O871 2.203 . S
Cd872 O874 2.411 . S
Cd872 O875 2.333 . S
Cd872 O876 2.352 . S
Cd872 O880 2.277 . S
Cd872 O881 2.356 . S
C873 O878 1.209 . S
C873 O880 1.226 . S
O874 Cd870 2.273 . S
O874 Cd872 2.411 . S
O874 C877 1.320 . S
O875 Cd872 2.333 . S
O875 C877 1.214 . S
O876 Cd872 2.352 . S
O876 C879 1.258 . S
C877 O874 1.320 . S
C877 O875 1.214 . S
O878 Cd870 2.277 . S
O878 C873 1.209 . S
C879 O876 1.258 . S
C879 O881 1.282 . S
O880 Cd872 2.277 . S
O880 C873 1.226 . S
O881 Cd872 2.356 . S
O881 C879 1.282 . S
C882 O883 1.306 . S
C882 O885 1.160 . S
O883 C882 1.306 . S
O883 Cd884 2.228 . S
Cd884 O883 2.228 . S
Cd884 O888 2.273 . S
Cd884 O892 2.277 . S
O885 C882 1.160 . S
O885 Cd886 2.203 . S
Cd886 O885 2.203 . S
Cd886 O888 2.411 . S
Cd886 O889 2.333 . S
Cd886 O890 2.352 . S
Cd886 O894 2.277 . S
Cd886 O895 2.356 . S
C887 O892 1.209 . S
C887 O894 1.226 . S
O888 Cd884 2.273 . S
O888 Cd886 2.411 . S
O888 C891 1.320 . S
O889 Cd886 2.333 . S
O889 C891 1.214 . S
O890 Cd886 2.352 . S
O890 C893 1.258 . S
C891 O888 1.320 . S
C891 O889 1.214 . S
O892 Cd884 2.277 . S
O892 C887 1.209 . S
C893 O890 1.258 . S
C893 O895 1.282 . S
O894 Cd886 2.277 . S
O894 C887 1.226 . S
O895 Cd886 2.356 . S
O895 C893 1.282 . S
C896 O897 1.306 . S
C896 O899 1.160 . S
O897 C896 1.306 . S
O897 Cd898 2.228 . S
Cd898 O897 2.228 . S
Cd898 O902 2.273 . S
Cd898 O906 2.277 . S
O899 C896 1.160 . S
O899 Cd900 2.203 . S
Cd900 O899 2.203 . S
Cd900 O902 2.411 . S
Cd900 O903 2.333 . S
Cd900 O904 2.352 . S
Cd900 O908 2.277 . S
Cd900 O909 2.356 . S
C901 O906 1.209 . S
C901 O908 1.226 . S
O902 Cd898 2.273 . S
O902 Cd900 2.411 . S
O902 C905 1.320 . S
O903 Cd900 2.333 . S
O903 C905 1.214 . S
O904 Cd900 2.352 . S
O904 C907 1.258 . S
C905 O902 1.320 . S
C905 O903 1.214 . S
O906 Cd898 2.277 . S
O906 C901 1.209 . S
C907 O904 1.258 . S
C907 O909 1.282 . S
O908 Cd900 2.277 . S
O908 C901 1.226 . S
O909 Cd900 2.356 . S
O909 C907 1.282 . S
C910 O911 1.306 . S
C910 O913 1.160 . S
O911 C910 1.306 . S
O911 Cd912 2.228 . S
Cd912 O911 2.228 . S
Cd912 O916 2.273 . S
Cd912 O920 2.277 . S
O913 C910 1.160 . S
O913 Cd914 2.203 . S
Cd914 O913 2.203 . S
Cd914 O916 2.411 . S
Cd914 O917 2.333 . S
Cd914 O918 2.352 . S
Cd914 O922 2.277 . S
Cd914 O923 2.356 . S
C915 O920 1.209 . S
C915 O922 1.226 . S
O916 Cd912 2.273 . S
O916 Cd914 2.411 . S
O916 C919 1.320 . S
O917 Cd914 2.333 . S
O917 C919 1.214 . S
O918 Cd914 2.352 . S
O918 C921 1.258 . S
C919 O916 1.320 . S
C919 O917 1.214 . S
O920 Cd912 2.277 . S
O920 C915 1.209 . S
C921 O918 1.258 . S
C921 O923 1.282 . S
O922 Cd914 2.277 . S
O922 C915 1.226 . S
O923 Cd914 2.356 . S
O923 C921 1.282 . S
C924 O925 1.306 . S
C924 O927 1.160 . S
O925 C924 1.306 . S
O925 Cd926 2.228 . S
Cd926 O925 2.228 . S
Cd926 O930 2.273 . S
Cd926 O934 2.277 . S
O927 C924 1.160 . S
O927 Cd928 2.203 . S
Cd928 O927 2.203 . S
Cd928 O930 2.411 . S
Cd928 O931 2.333 . S
Cd928 O932 2.352 . S
Cd928 O936 2.277 . S
Cd928 O937 2.356 . S
C929 O934 1.209 . S
C929 O936 1.226 . S
O930 Cd926 2.273 . S
O930 Cd928 2.411 . S
O930 C933 1.320 . S
O931 Cd928 2.333 . S
O931 C933 1.214 . S
O932 Cd928 2.352 . S
O932 C935 1.258 . S
C933 O930 1.320 . S
C933 O931 1.214 . S
O934 Cd926 2.277 . S
O934 C929 1.209 . S
C935 O932 1.258 . S
C935 O937 1.282 . S
O936 Cd928 2.277 . S
O936 C929 1.226 . S
O937 Cd928 2.356 . S
O937 C935 1.282 . S
C938 O939 1.306 . S
C938 O941 1.160 . S
O939 C938 1.306 . S
O939 Cd940 2.228 . S
Cd940 O939 2.228 . S
Cd940 O944 2.273 . S
Cd940 O948 2.277 . S
O941 C938 1.160 . S
O941 Cd942 2.203 . S
Cd942 O941 2.203 . S
Cd942 O944 2.411 . S
Cd942 O945 2.333 . S
Cd942 O946 2.352 . S
Cd942 O950 2.277 . S
Cd942 O951 2.356 . S
C943 O948 1.209 . S
C943 O950 1.226 . S
O944 Cd940 2.273 . S
O944 Cd942 2.411 . S
O944 C947 1.320 . S
O945 Cd942 2.333 . S
O945 C947 1.214 . S
O946 Cd942 2.352 . S
O946 C949 1.258 . S
C947 O944 1.320 . S
C947 O945 1.214 . S
O948 Cd940 2.277 . S
O948 C943 1.209 . S
C949 O946 1.258 . S
C949 O951 1.282 . S
O950 Cd942 2.277 . S
O950 C943 1.226 . S
O951 Cd942 2.356 . S
O951 C949 1.282 . S
C952 O953 1.306 . S
C952 O955 1.160 . S
O953 C952 1.306 . S
O953 Cd954 2.228 . S
Cd954 O953 2.228 . S
Cd954 O958 2.273 . S
Cd954 O962 2.277 . S
O955 C952 1.160 . S
O955 Cd956 2.203 . S
Cd956 O955 2.203 . S
Cd956 O958 2.411 . S
Cd956 O959 2.333 . S
Cd956 O960 2.352 . S
Cd956 O964 2.277 . S
Cd956 O965 2.356 . S
C957 O962 1.209 . S
C957 O964 1.226 . S
O958 Cd954 2.273 . S
O958 Cd956 2.411 . S
O958 C961 1.320 . S
O959 Cd956 2.333 . S
O959 C961 1.214 . S
O960 Cd956 2.352 . S
O960 C963 1.258 . S
C961 O958 1.320 . S
C961 O959 1.214 . S
O962 Cd954 2.277 . S
O962 C957 1.209 . S
C963 O960 1.258 . S
C963 O965 1.282 . S
O964 Cd956 2.277 . S
O964 C957 1.226 . S
O965 Cd956 2.356 . S
O965 C963 1.282 . S
C966 O967 1.306 . S
C966 O969 1.160 . S
O967 C966 1.306 . S
O967 Cd968 2.228 . S
Cd968 O967 2.228 . S
Cd968 O972 2.273 . S
Cd968 O976 2.277 . S
O969 C966 1.160 . S
O969 Cd970 2.203 . S
Cd970 O969 2.203 . S
Cd970 O972 2.411 . S
Cd970 O973 2.333 . S
Cd970 O974 2.352 . S
Cd970 O978 2.277 . S
Cd970 O979 2.356 . S
C971 O976 1.209 . S
C971 O978 1.226 . S
O972 Cd968 2.273 . S
O972 Cd970 2.411 . S
O972 C975 1.320 . S
O973 Cd970 2.333 . S
O973 C975 1.214 . S
O974 Cd970 2.352 . S
O974 C977 1.258 . S
C975 O972 1.320 . S
C975 O973 1.214 . S
O976 Cd968 2.277 . S
O976 C971 1.209 . S
C977 O974 1.258 . S
C977 O979 1.282 . S
O978 Cd970 2.277 . S
O978 C971 1.226 . S
O979 Cd970 2.356 . S
O979 C977 1.282 . S
C980 O981 1.306 . S
C980 O983 1.160 . S
O981 C980 1.306 . S
O981 Cd982 2.228 . S
Cd982 O981 2.228 . S
Cd982 O986 2.273 . S
Cd982 O990 2.277 . S
O983 C980 1.160 . S
O983 Cd984 2.203 . S
Cd984 O983 2.203 . S
Cd984 O986 2.411 . S
Cd984 O987 2.333 . S
Cd984 O988 2.352 . S
Cd984 O992 2.277 . S
Cd984 O993 2.356 . S
C985 O990 1.209 . S
C985 O992 1.226 . S
O986 Cd982 2.273 . S
O986 Cd984 2.411 . S
O986 C989 1.320 . S
O987 Cd984 2.333 . S
O987 C989 1.214 . S
O988 Cd984 2.352 . S
O988 C991 1.258 . S
C989 O986 1.320 . S
C989 O987 1.214 . S
O990 Cd982 2.277 . S
O990 C985 1.209 . S
C991 O988 1.258 . S
C991 O993 1.282 . S
O992 Cd984 2.277 . S
O992 C985 1.226 . S
O993 Cd984 2.356 . S
O993 C991 1.282 . S
C994 O995 1.306 . S
C994 O997 1.160 . S
O995 C994 1.306 . S
O995 Cd996 2.228 . S
Cd996 O995 2.228 . S
Cd996 O1000 2.273 . S
Cd996 O1004 2.277 . S
O997 C994 1.160 . S
O997 Cd998 2.203 . S
Cd998 O997 2.203 . S
Cd998 O1000 2.411 . S
Cd998 O1001 2.333 . S
Cd998 O1002 2.352 . S
Cd998 O1006 2.277 . S
Cd998 O1007 2.356 . S
C999 O1004 1.209 . S
C999 O1006 1.226 . S
O1000 Cd996 2.273 . S
O1000 Cd998 2.411 . S
O1000 C1003 1.320 . S
O1001 Cd998 2.333 . S
O1001 C1003 1.214 . S
O1002 Cd998 2.352 . S
O1002 C1005 1.258 . S
C1003 O1000 1.320 . S
C1003 O1001 1.214 . S
O1004 Cd996 2.277 . S
O1004 C999 1.209 . S
C1005 O1002 1.258 . S
C1005 O1007 1.282 . S
O1006 Cd998 2.277 . S
O1006 C999 1.226 . S
O1007 Cd998 2.356 . S
O1007 C1005 1.282 . S
C1008 O1009 1.306 . S
C1008 O1011 1.160 . S
O1009 C1008 1.306 . S
O1009 Cd1010 2.228 . S
Cd1010 O1009 2.228 . S
Cd1010 O1014 2.273 . S
Cd1010 O1018 2.277 . S
O1011 C1008 1.160 . S
O1011 Cd1012 2.203 . S
Cd1012 O1011 2.203 . S
Cd1012 O1014 2.411 . S
Cd1012 O1015 2.333 . S
Cd1012 O1016 2.352 . S
Cd1012 O1020 2.277 . S
Cd1012 O1021 2.356 . S
C1013 O1018 1.209 . S
C1013 O1020 1.226 . S
O1014 Cd1010 2.273 . S
O1014 Cd1012 2.411 . S
O1014 C1017 1.320 . S
O1015 Cd1012 2.333 . S
O1015 C1017 1.214 . S
O1016 Cd1012 2.352 . S
O1016 C1019 1.258 . S
C1017 O1014 1.320 . S
C1017 O1015 1.214 . S
O1018 Cd1010 2.277 . S
O1018 C1013 1.209 . S
C1019 O1016 1.258 . S
C1019 O1021 1.282 . S
O1020 Cd1012 2.277 . S
O1020 C1013 1.226 . S
O1021 Cd1012 2.356 . S
O1021 C1019 1.282 . S
C1022 O1023 1.306 . S
C1022 O1025 1.160 . S
O1023 C1022 1.306 . S
O1023 Cd1024 2.228 . S
Cd1024 O1023 2.228 . S
Cd1024 O1028 2.273 . S
Cd1024 O1032 2.277 . S
O1025 C1022 1.160 . S
O1025 Cd1026 2.203 . S
Cd1026 O1025 2.203 . S
Cd1026 O1028 2.411 . S
Cd1026 O1029 2.333 . S
Cd1026 O1030 2.352 . S
Cd1026 O1034 2.277 . S
Cd1026 O1035 2.356 . S
C1027 O1032 1.209 . S
C1027 O1034 1.226 . S
O1028 Cd1024 2.273 . S
O1028 Cd1026 2.411 . S
O1028 C1031 1.320 . S
O1029 Cd1026 2.333 . S
O1029 C1031 1.214 . S
O1030 Cd1026 2.352 . S
O1030 C1033 1.258 . S
C1031 O1028 1.320 . S
C1031 O1029 1.214 . S
O1032 Cd1024 2.277 . S
O1032 C1027 1.209 . S
C1033 O1030 1.258 . S
C1033 O1035 1.282 . S
O1034 Cd1026 2.277 . S
O1034 C1027 1.226 . S
O1035 Cd1026 2.356 . S
O1035 C1033 1.282 . S
C1036 O1037 1.306 . S
C1036 O1039 1.160 . S
O1037 C1036 1.306 . S
O1037 Cd1038 2.228 . S
Cd1038 O1037 2.228 . S
Cd1038 O1042 2.273 . S
Cd1038 O1046 2.277 . S
O1039 C1036 1.160 . S
O1039 Cd1040 2.203 . S
Cd1040 O1039 2.203 . S
Cd1040 O1042 2.411 . S
Cd1040 O1043 2.333 . S
Cd1040 O1044 2.352 . S
Cd1040 O1048 2.277 . S
Cd1040 O1049 2.356 . S
C1041 O1046 1.209 . S
C1041 O1048 1.226 . S
O1042 Cd1038 2.273 . S
O1042 Cd1040 2.411 . S
O1042 C1045 1.320 . S
O1043 Cd1040 2.333 . S
O1043 C1045 1.214 . S
O1044 Cd1040 2.352 . S
O1044 C1047 1.258 . S
C1045 O1042 1.320 . S
C1045 O1043 1.214 . S
O1046 Cd1038 2.277 . S
O1046 C1041 1.209 . S
C1047 O1044 1.258 . S
C1047 O1049 1.282 . S
O1048 Cd1040 2.277 . S
O1048 C1041 1.226 . S
O1049 Cd1040 2.356 . S
O1049 C1047 1.282 . S
C1050 O1051 1.306 . S
C1050 O1053 1.160 . S
O1051 C1050 1.306 . S
O1051 Cd1052 2.228 . S
Cd1052 O1051 2.228 . S
Cd1052 O1056 2.273 . S
Cd1052 O1060 2.277 . S
O1053 C1050 1.160 . S
O1053 Cd1054 2.203 . S
Cd1054 O1053 2.203 . S
Cd1054 O1056 2.411 . S
Cd1054 O1057 2.333 . S
Cd1054 O1058 2.352 . S
Cd1054 O1062 2.277 . S
Cd1054 O1063 2.356 . S
C1055 O1060 1.209 . S
C1055 O1062 1.226 . S
O1056 Cd1052 2.273 . S
O1056 Cd1054 2.411 . S
O1056 C1059 1.320 . S
O1057 Cd1054 2.333 . S
O1057 C1059 1.214 . S
O1058 Cd1054 2.352 . S
O1058 C1061 1.258 . S
C1059 O1056 1.320 . S
C1059 O1057 1.214 . S
O1060 Cd1052 2.277 . S
O1060 C1055 1.209 . S
C1061 O1058 1.258 . S
C1061 O1063 1.282 . S
O1062 Cd1054 2.277 . S
O1062 C1055 1.226 . S
O1063 Cd1054 2.356 . S
O1063 C1061 1.282 . S
C1064 O1065 1.306 . S
C1064 O1067 1.160 . S
O1065 C1064 1.306 . S
O1065 Cd1066 2.228 . S
Cd1066 O1065 2.228 . S
Cd1066 O1070 2.273 . S
Cd1066 O1074 2.277 . S
O1067 C1064 1.160 . S
O1067 Cd1068 2.203 . S
Cd1068 O1067 2.203 . S
Cd1068 O1070 2.411 . S
Cd1068 O1071 2.333 . S
Cd1068 O1072 2.352 . S
Cd1068 O1076 2.277 . S
Cd1068 O1077 2.356 . S
C1069 O1074 1.209 . S
C1069 O1076 1.226 . S
O1070 Cd1066 2.273 . S
O1070 Cd1068 2.411 . S
O1070 C1073 1.320 . S
O1071 Cd1068 2.333 . S
O1071 C1073 1.214 . S
O1072 Cd1068 2.352 . S
O1072 C1075 1.258 . S
C1073 O1070 1.320 . S
C1073 O1071 1.214 . S
O1074 Cd1066 2.277 . S
O1074 C1069 1.209 . S
C1075 O1072 1.258 . S
C1075 O1077 1.282 . S
O1076 Cd1068 2.277 . S
O1076 C1069 1.226 . S
O1077 Cd1068 2.356 . S
O1077 C1075 1.282 . S
C1078 O1079 1.306 . S
C1078 O1081 1.160 . S
O1079 C1078 1.306 . S
O1079 Cd1080 2.228 . S
Cd1080 O1079 2.228 . S
Cd1080 O1084 2.273 . S
Cd1080 O1088 2.277 . S
O1081 C1078 1.160 . S
O1081 Cd1082 2.203 . S
Cd1082 O1081 2.203 . S
Cd1082 O1084 2.411 . S
Cd1082 O1085 2.333 . S
Cd1082 O1086 2.352 . S
Cd1082 O1090 2.277 . S
Cd1082 O1091 2.356 . S
C1083 O1088 1.209 . S
C1083 O1090 1.226 . S
O1084 Cd1080 2.273 . S
O1084 Cd1082 2.411 . S
O1084 C1087 1.320 . S
O1085 Cd1082 2.333 . S
O1085 C1087 1.214 . S
O1086 Cd1082 2.352 . S
O1086 C1089 1.258 . S
C1087 O1084 1.320 . S
C1087 O1085 1.214 . S
O1088 Cd1080 2.277 . S
O1088 C1083 1.209 . S
C1089 O1086 1.258 . S
C1089 O1091 1.282 . S
O1090 Cd1082 2.277 . S
O1090 C1083 1.226 . S
O1091 Cd1082 2.356 . S
O1091 C1089 1.282 . S
C1092 O1093 1.306 . S
C1092 O1095 1.160 . S
O1093 C1092 1.306 . S
O1093 Cd1094 2.228 . S
Cd1094 O1093 2.228 . S
Cd1094 O1098 2.273 . S
Cd1094 O1102 2.277 . S
O1095 C1092 1.160 . S
O1095 Cd1096 2.203 . S
Cd1096 O1095 2.203 . S
Cd1096 O1098 2.411 . S
Cd1096 O1099 2.333 . S
Cd1096 O1100 2.352 . S
Cd1096 O1104 2.277 . S
Cd1096 O1105 2.356 . S
C1097 O1102 1.209 . S
C1097 O1104 1.226 . S
O1098 Cd1094 2.273 . S
O1098 Cd1096 2.411 . S
O1098 C1101 1.320 . S
O1099 Cd1096 2.333 . S
O1099 C1101 1.214 . S
O1100 Cd1096 2.352 . S
O1100 C1103 1.258 . S
C1101 O1098 1.320 . S
C1101 O1099 1.214 . S
O1102 Cd1094 2.277 . S
O1102 C1097 1.209 . S
C1103 O1100 1.258 . S
C1103 O1105 1.282 . S
O1104 Cd1096 2.277 . S
O1104 C1097 1.226 . S
O1105 Cd1096 2.356 . S
O1105 C1103 1.282 . S
C1106 O1107 1.306 . S
C1106 O1109 1.160 . S
O1107 C1106 1.306 . S
O1107 Cd1108 2.228 . S
Cd1108 O1107 2.228 . S
Cd1108 O1112 2.273 . S
Cd1108 O1116 2.277 . S
O1109 C1106 1.160 . S
O1109 Cd1110 2.203 . S
Cd1110 O1109 2.203 . S
Cd1110 O1112 2.411 . S
Cd1110 O1113 2.333 . S
Cd1110 O1114 2.352 . S
Cd1110 O1118 2.277 . S
Cd1110 O1119 2.356 . S
C1111 O1116 1.209 . S
C1111 O1118 1.226 . S
O1112 Cd1108 2.273 . S
O1112 Cd1110 2.411 . S
O1112 C1115 1.320 . S
O1113 Cd1110 2.333 . S
O1113 C1115 1.214 . S
O1114 Cd1110 2.352 . S
O1114 C1117 1.258 . S
C1115 O1112 1.320 . S
C1115 O1113 1.214 . S
O1116 Cd1108 2.277 . S
O1116 C1111 1.209 . S
C1117 O1114 1.258 . S
C1117 O1119 1.282 . S
O1118 Cd1110 2.277 . S
O1118 C1111 1.226 . S
O1119 Cd1110 2.356 . S
O1119 C1117 1.282 . S
C1120 O1121 1.306 . S
C1120 O1123 1.160 . S
O1121 C1120 1.306 . S
O1121 Cd1122 2.228 . S
Cd1122 O1121 2.228 . S
Cd1122 O1126 2.273 . S
Cd1122 O1130 2.277 . S
O1123 C1120 1.160 . S
O1123 Cd1124 2.203 . S
Cd1124 O1123 2.203 . S
Cd1124 O1126 2.411 . S
Cd1124 O1127 2.333 . S
Cd1124 O1128 2.352 . S
Cd1124 O1132 2.277 . S
Cd1124 O1133 2.356 . S
C1125 O1130 1.209 . S
C1125 O1132 1.226 . S
O1126 Cd1122 2.273 . S
O1126 Cd1124 2.411 . S
O1126 C1129 1.320 . S
O1127 Cd1124 2.333 . S
O1127 C1129 1.214 . S
O1128 Cd1124 2.352 . S
O1128 C1131 1.258 . S
C1129 O1126 1.320 . S
C1129 O1127 1.214 . S
O1130 Cd1122 2.277 . S
O1130 C1125 1.209 . S
C1131 O1128 1.258 . S
C1131 O1133 1.282 . S
O1132 Cd1124 2.277 . S
O1132 C1125 1.226 . S
O1133 Cd1124 2.356 . S
O1133 C1131 1.282 . S
C1134 O1135 1.306 . S
C1134 O1137 1.160 . S
O1135 C1134 1.306 . S
O1135 Cd1136 2.228 . S
Cd1136 O1135 2.228 . S
Cd1136 O1140 2.273 . S
Cd1136 O1144 2.277 . S
O1137 C1134 1.160 . S
O1137 Cd1138 2.203 . S
Cd1138 O1137 2.203 . S
Cd1138 O1140 2.411 . S
Cd1138 O1141 2.333 . S
Cd1138 O1142 2.352 . S
Cd1138 O1146 2.277 . S
Cd1138 O1147 2.356 . S
C1139 O1144 1.209 . S
C1139 O1146 1.226 . S
O1140 Cd1136 2.273 . S
O1140 Cd1138 2.411 . S
O1140 C1143 1.320 . S
O1141 Cd1138 2.333 . S
O1141 C1143 1.214 . S
O1142 Cd1138 2.352 . S
O1142 C1145 1.258 . S
C1143 O1140 1.320 . S
C1143 O1141 1.214 . S
O1144 Cd1136 2.277 . S
O1144 C1139 1.209 . S
C1145 O1142 1.258 . S
C1145 O1147 1.282 . S
O1146 Cd1138 2.277 . S
O1146 C1139 1.226 . S
O1147 Cd1138 2.356 . S
O1147 C1145 1.282 . S
C1148 O1149 1.306 . S
C1148 O1151 1.160 . S
O1149 C1148 1.306 . S
O1149 Cd1150 2.228 . S
Cd1150 O1149 2.228 . S
Cd1150 O1154 2.273 . S
Cd1150 O1158 2.277 . S
O1151 C1148 1.160 . S
O1151 Cd1152 2.203 . S
Cd1152 O1151 2.203 . S
Cd1152 O1154 2.411 . S
Cd1152 O1155 2.333 . S
Cd1152 O1156 2.352 . S
Cd1152 O1160 2.277 . S
Cd1152 O1161 2.356 . S
C1153 O1158 1.209 . S
C1153 O1160 1.226 . S
O1154 Cd1150 2.273 . S
O1154 Cd1152 2.411 . S
O1154 C1157 1.320 . S
O1155 Cd1152 2.333 . S
O1155 C1157 1.214 . S
O1156 Cd1152 2.352 . S
O1156 C1159 1.258 . S
C1157 O1154 1.320 . S
C1157 O1155 1.214 . S
O1158 Cd1150 2.277 . S
O1158 C1153 1.209 . S
C1159 O1156 1.258 . S
C1159 O1161 1.282 . S
O1160 Cd1152 2.277 . S
O1160 C1153 1.226 . S
O1161 Cd1152 2.356 . S
O1161 C1159 1.282 . S
C1162 O1163 1.306 . S
C1162 O1165 1.160 . S
O1163 C1162 1.306 . S
O1163 Cd1164 2.228 . S
Cd1164 O1163 2.228 . S
Cd1164 O1168 2.273 . S
Cd1164 O1172 2.277 . S
O1165 C1162 1.160 . S
O1165 Cd1166 2.203 . S
Cd1166 O1165 2.203 . S
Cd1166 O1168 2.411 . S
Cd1166 O1169 2.333 . S
Cd1166 O1170 2.352 . S
Cd1166 O1174 2.277 . S
Cd1166 O1175 2.356 . S
C1167 O1172 1.209 . S
C1167 O1174 1.226 . S
O1168 Cd1164 2.273 . S
O1168 Cd1166 2.411 . S
O1168 C1171 1.320 . S
O1169 Cd1166 2.333 . S
O1169 C1171 1.214 . S
O1170 Cd1166 2.352 . S
O1170 C1173 1.258 . S
C1171 O1168 1.320 . S
C1171 O1169 1.214 . S
O1172 Cd1164 2.277 . S
O1172 C1167 1.209 . S
C1173 O1170 1.258 . S
C1173 O1175 1.282 . S
O1174 Cd1166 2.277 . S
O1174 C1167 1.226 . S
O1175 Cd1166 2.356 . S
O1175 C1173 1.282 . S
C1176 O1177 1.306 . S
C1176 O1179 1.160 . S
O1177 C1176 1.306 . S
O1177 Cd1178 2.228 . S
Cd1178 O1177 2.228 . S
Cd1178 O1182 2.273 . S
Cd1178 O1186 2.277 . S
O1179 C1176 1.160 . S
O1179 Cd1180 2.203 . S
Cd1180 O1179 2.203 . S
Cd1180 O1182 2.411 . S
Cd1180 O1183 2.333 . S
Cd1180 O1184 2.352 . S
Cd1180 O1188 2.277 . S
Cd1180 O1189 2.356 . S
C1181 O1186 1.209 . S
C1181 O1188 1.226 . S
O1182 Cd1178 2.273 . S
O1182 Cd1180 2.411 . S
O1182 C1185 1.320 . S
O1183 Cd1180 2.333 . S
O1183 C1185 1.214 . S
O1184 Cd1180 2.352 . S
O1184 C1187 1.258 . S
C1185 O1182 1.320 . S
C1185 O1183 1.214 . S
O1186 Cd1178 2.277 . S
O1186 C1181 1.209 . S
C1187 O1184 1.258 . S
C1187 O1189 1.282 . S
O1188 Cd1180 2.277 . S
O1188 C1181 1.226 . S
O1189 Cd1180 2.356 . S
O1189 C1187 1.282 . S
C1190 O1191 1.306 . S
C1190 O1193 1.160 . S
O1191 C1190 1.306 . S
O1191 Cd1192 2.228 . S
Cd1192 O1191 2.228 . S
Cd1192 O1196 2.273 . S
Cd1192 O1200 2.277 . S
O1193 C1190 1.160 . S
O1193 Cd1194 2.203 . S
Cd1194 O1193 2.203 . S
Cd1194 O1196 2.411 . S
Cd1194 O1197 2.333 . S
Cd1194 O1198 2.352 . S
Cd1194 O1202 2.277 . S
Cd1194 O1203 2.356 . S
C1195 O1200 1.209 . S
C1195 O1202 1.226 . S
O1196 Cd1192 2.273 . S
O1196 Cd1194 2.411 . S
O1196 C1199 1.320 . S
O1197 Cd1194 2.333 . S
O1197 C1199 1.214 . S
O1198 Cd1194 2.352 . S
O1198 C1201 1.258 . S
C1199 O1196 1.320 . S
C1199 O1197 1.214 . S
O1200 Cd1192 2.277 . S
O1200 C1195 1.209 . S
C1201 O1198 1.258 . S
C1201 O1203 1.282 . S
O1202 Cd1194 2.277 . S
O1202 C1195 1.226 . S
O1203 Cd1194 2.356 . S
O1203 C1201 1.282 . S
C1204 O1205 1.306 . S
C1204 O1207 1.160 . S
O1205 C1204 1.306 . S
O1205 Cd1206 2.228 . S
Cd1206 O1205 2.228 . S
Cd1206 O1210 2.273 . S
Cd1206 O1214 2.277 . S
O1207 C1204 1.160 . S
O1207 Cd1208 2.203 . S
Cd1208 O1207 2.203 . S
Cd1208 O1210 2.411 . S
Cd1208 O1211 2.333 . S
Cd1208 O1212 2.352 . S
Cd1208 O1216 2.277 . S
Cd1208 O1217 2.356 . S
C1209 O1214 1.209 . S
C1209 O1216 1.226 . S
O1210 Cd1206 2.273 . S
O1210 Cd1208 2.411 . S
O1210 C1213 1.320 . S
O1211 Cd1208 2.333 . S
O1211 C1213 1.214 . S
O1212 Cd1208 2.352 . S
O1212 C1215 1.258 . S
C1213 O1210 1.320 . S
C1213 O1211 1.214 . S
O1214 Cd1206 2.277 . S
O1214 C1209 1.209 . S
C1215 O1212 1.258 . S
C1215 O1217 1.282 . S
O1216 Cd1208 2.277 . S
O1216 C1209 1.226 . S
O1217 Cd1208 2.356 . S
O1217 C1215 1.282 . S
C1218 O1219 1.306 . S
C1218 O1221 1.160 . S
O1219 C1218 1.306 . S
O1219 Cd1220 2.228 . S
Cd1220 O1219 2.228 . S
Cd1220 O1224 2.273 . S
Cd1220 O1228 2.277 . S
O1221 C1218 1.160 . S
O1221 Cd1222 2.203 . S
Cd1222 O1221 2.203 . S
Cd1222 O1224 2.411 . S
Cd1222 O1225 2.333 . S
Cd1222 O1226 2.352 . S
Cd1222 O1230 2.277 . S
Cd1222 O1231 2.356 . S
C1223 O1228 1.209 . S
C1223 O1230 1.226 . S
O1224 Cd1220 2.273 . S
O1224 Cd1222 2.411 . S
O1224 C1227 1.320 . S
O1225 Cd1222 2.333 . S
O1225 C1227 1.214 . S
O1226 Cd1222 2.352 . S
O1226 C1229 1.258 . S
C1227 O1224 1.320 . S
C1227 O1225 1.214 . S
O1228 Cd1220 2.277 . S
O1228 C1223 1.209 . S
C1229 O1226 1.258 . S
C1229 O1231 1.282 . S
O1230 Cd1222 2.277 . S
O1230 C1223 1.226 . S
O1231 Cd1222 2.356 . S
O1231 C1229 1.282 . S
C1232 O1233 1.306 . S
C1232 O1235 1.160 . S
O1233 C1232 1.306 . S
O1233 Cd1234 2.228 . S
Cd1234 O1233 2.228 . S
Cd1234 O1238 2.273 . S
Cd1234 O1242 2.277 . S
O1235 C1232 1.160 . S
O1235 Cd1236 2.203 . S
Cd1236 O1235 2.203 . S
Cd1236 O1238 2.411 . S
Cd1236 O1239 2.333 . S
Cd1236 O1240 2.352 . S
Cd1236 O1244 2.277 . S
Cd1236 O1245 2.356 . S
C1237 O1242 1.209 . S
C1237 O1244 1.226 . S
O1238 Cd1234 2.273 . S
O1238 Cd1236 2.411 . S
O1238 C1241 1.320 . S
O1239 Cd1236 2.333 . S
O1239 C1241 1.214 . S
O1240 Cd1236 2.352 . S
O1240 C1243 1.258 . S
C1241 O1238 1.320 . S
C1241 O1239 1.214 . S
O1242 Cd1234 2.277 . S
O1242 C1237 1.209 . S
C1243 O1240 1.258 . S
C1243 O1245 1.282 . S
O1244 Cd1236 2.277 . S
O1244 C1237 1.226 . S
O1245 Cd1236 2.356 . S
O1245 C1243 1.282 . S
C1246 O1247 1.306 . S
C1246 O1249 1.160 . S
O1247 C1246 1.306 . S
O1247 Cd1248 2.228 . S
Cd1248 O1247 2.228 . S
Cd1248 O1252 2.273 . S
Cd1248 O1256 2.277 . S
O1249 C1246 1.160 . S
O1249 Cd1250 2.203 . S
Cd1250 O1249 2.203 . S
Cd1250 O1252 2.411 . S
Cd1250 O1253 2.333 . S
Cd1250 O1254 2.352 . S
Cd1250 O1258 2.277 . S
Cd1250 O1259 2.356 . S
C1251 O1256 1.209 . S
C1251 O1258 1.226 . S
O1252 Cd1248 2.273 . S
O1252 Cd1250 2.411 . S
O1252 C1255 1.320 . S
O1253 Cd1250 2.333 . S
O1253 C1255 1.214 . S
O1254 Cd1250 2.352 . S
O1254 C1257 1.258 . S
C1255 O1252 1.320 . S
C1255 O1253 1.214 . S
O1256 Cd1248 2.277 . S
O1256 C1251 1.209 . S
C1257 O1254 1.258 . S
C1257 O1259 1.282 . S
O1258 Cd1250 2.277 . S
O1258 C1251 1.226 . S
O1259 Cd1250 2.356 . S
O1259 C1257 1.282 . S
C1260 O1261 1.306 . S
C1260 O1263 1.160 . S
O1261 C1260 1.306 . S
O1261 Cd1262 2.228 . S
Cd1262 O1261 2.228 . S
Cd1262 O1266 2.273 . S
Cd1262 O1270 2.277 . S
O1263 C1260 1.160 . S
O1263 Cd1264 2.203 . S
Cd1264 O1263 2.203 . S
Cd1264 O1266 2.411 . S
Cd1264 O1267 2.333 . S
Cd1264 O1268 2.352 . S
Cd1264 O1272 2.277 . S
Cd1264 O1273 2.356 . S
C1265 O1270 1.209 . S
C1265 O1272 1.226 . S
O1266 Cd1262 2.273 . S
O1266 Cd1264 2.411 . S
O1266 C1269 1.320 . S
O1267 Cd1264 2.333 . S
O1267 C1269 1.214 . S
O1268 Cd1264 2.352 . S
O1268 C1271 1.258 . S
C1269 O1266 1.320 . S
C1269 O1267 1.214 . S
O1270 Cd1262 2.277 . S
O1270 C1265 1.209 . S
C1271 O1268 1.258 . S
C1271 O1273 1.282 . S
O1272 Cd1264 2.277 . S
O1272 C1265 1.226 . S
O1273 Cd1264 2.356 . S
O1273 C1271 1.282 . S
C1274 O1275 1.306 . S
C1274 O1277 1.160 . S
O1275 C1274 1.306 . S
O1275 Cd1276 2.228 . S
Cd1276 O1275 2.228 . S
Cd1276 O1280 2.273 . S
Cd1276 O1284 2.277 . S
O1277 C1274 1.160 . S
O1277 Cd1278 2.203 . S
Cd1278 O1277 2.203 . S
Cd1278 O1280 2.411 . S
Cd1278 O1281 2.333 . S
Cd1278 O1282 2.352 . S
Cd1278 O1286 2.277 . S
Cd1278 O1287 2.356 . S
C1279 O1284 1.209 . S
C1279 O1286 1.226 . S
O1280 Cd1276 2.273 . S
O1280 Cd1278 2.411 . S
O1280 C1283 1.320 . S
O1281 Cd1278 2.333 . S
O1281 C1283 1.214 . S
O1282 Cd1278 2.352 . S
O1282 C1285 1.258 . S
C1283 O1280 1.320 . S
C1283 O1281 1.214 . S
O1284 Cd1276 2.277 . S
O1284 C1279 1.209 . S
C1285 O1282 1.258 . S
C1285 O1287 1.282 . S
O1286 Cd1278 2.277 . S
O1286 C1279 1.226 . S
O1287 Cd1278 2.356 . S
O1287 C1285 1.282 . S
C1288 O1289 1.306 . S
C1288 O1291 1.160 . S
O1289 C1288 1.306 . S
O1289 Cd1290 2.228 . S
Cd1290 O1289 2.228 . S
Cd1290 O1294 2.273 . S
Cd1290 O1298 2.277 . S
O1291 C1288 1.160 . S
O1291 Cd1292 2.203 . S
Cd1292 O1291 2.203 . S
Cd1292 O1294 2.411 . S
Cd1292 O1295 2.333 . S
Cd1292 O1296 2.352 . S
Cd1292 O1300 2.277 . S
Cd1292 O1301 2.356 . S
C1293 O1298 1.209 . S
C1293 O1300 1.226 . S
O1294 Cd1290 2.273 . S
O1294 Cd1292 2.411 . S
O1294 C1297 1.320 . S
O1295 Cd1292 2.333 . S
O1295 C1297 1.214 . S
O1296 Cd1292 2.352 . S
O1296 C1299 1.258 . S
C1297 O1294 1.320 . S
C1297 O1295 1.214 . S
O1298 Cd1290 2.277 . S
O1298 C1293 1.209 . S
C1299 O1296 1.258 . S
C1299 O1301 1.282 . S
O1300 Cd1292 2.277 . S
O1300 C1293 1.226 . S
O1301 Cd1292 2.356 . S
O1301 C1299 1.282 . S
C1302 O1303 1.306 . S
C1302 O1305 1.160 . S
O1303 C1302 1.306 . S
O1303 Cd1304 2.228 . S
Cd1304 O1303 2.228 . S
Cd1304 O1308 2.273 . S
Cd1304 O1312 2.277 . S
O1305 C1302 1.160 . S
O1305 Cd1306 2.203 . S
Cd1306 O1305 2.203 . S
Cd1306 O1308 2.411 . S
Cd1306 O1309 2.333 . S
Cd1306 O1310 2.352 . S
Cd1306 O1314 2.277 . S
Cd1306 O1315 2.356 . S
C1307 O1312 1.209 . S
C1307 O1314 1.226 . S
O1308 Cd1304 2.273 . S
O1308 Cd1306 2.411 . S
O1308 C1311 1.320 . S
O1309 Cd1306 2.333 . S
O1309 C1311 1.214 . S
O1310 Cd1306 2.352 . S
O1310 C1313 1.258 . S
C1311 O1308 1.320 . S
C1311 O1309 1.214 . S
O1312 Cd1304 2.277 . S
O1312 C1307 1.209 . S
C1313 O1310 1.258 . S
C1313 O1315 1.282 . S
O1314 Cd1306 2.277 . S
O1314 C1307 1.226 . S
O1315 Cd1306 2.356 . S
O1315 C1313 1.282 . S
C1316 O1317 1.306 . S
C1316 O1319 1.160 . S
O1317 C1316 1.306 . S
O1317 Cd1318 2.228 . S
Cd1318 O1317 2.228 . S
Cd1318 O1322 2.273 . S
Cd1318 O1326 2.277 . S
O1319 C1316 1.160 . S
O1319 Cd1320 2.203 . S
Cd1320 O1319 2.203 . S
Cd1320 O1322 2.411 . S
Cd1320 O1323 2.333 . S
Cd1320 O1324 2.352 . S
Cd1320 O1328 2.277 . S
Cd1320 O1329 2.356 . S
C1321 O1326 1.209 . S
C1321 O1328 1.226 . S
O1322 Cd1318 2.273 . S
O1322 Cd1320 2.411 . S
O1322 C1325 1.320 . S
O1323 Cd1320 2.333 . S
O1323 C1325 1.214 . S
O1324 Cd1320 2.352 . S
O1324 C1327 1.258 . S
C1325 O1322 1.320 . S
C1325 O1323 1.214 . S
O1326 Cd1318 2.277 . S
O1326 C1321 1.209 . S
C1327 O1324 1.258 . S
C1327 O1329 1.282 . S
O1328 Cd1320 2.277 . S
O1328 C1321 1.226 . S
O1329 Cd1320 2.356 . S
O1329 C1327 1.282 . S
C1330 O1331 1.306 . S
C1330 O1333 1.160 . S
O1331 C1330 1.306 . S
O1331 Cd1332 2.228 . S
Cd1332 O1331 2.228 . S
Cd1332 O1336 2.273 . S
Cd1332 O1340 2.277 . S
O1333 C1330 1.160 . S
O1333 Cd1334 2.203 . S
Cd1334 O1333 2.203 . S
Cd1334 O1336 2.411 . S
Cd1334 O1337 2.333 . S
Cd1334 O1338 2.352 . S
Cd1334 O1342 2.277 . S
Cd1334 O1343 2.356 . S
C1335 O1340 1.209 . S
C1335 O1342 1.226 . S
O1336 Cd1332 2.273 . S
O1336 Cd1334 2.411 . S
O1336 C1339 1.320 . S
O1337 Cd1334 2.333 . S
O1337 C1339 1.214 . S
O1338 Cd1334 2.352 . S
O1338 C1341 1.258 . S
C1339 O1336 1.320 . S
C1339 O1337 1.214 . S
O1340 Cd1332 2.277 . S
O1340 C1335 1.209 . S
C1341 O1338 1.258 . S
C1341 O1343 1.282 . S
O1342 Cd1334 2.277 . S
O1342 C1335 1.226 . S
O1343 Cd1334 2.356 . S
O1343 C1341 1.282 . S
C1344 C1345 1.349 . S
C1344 C1346 1.327 . S
C1344 H1369 0.950 . S
C1345 C1344 1.349 . S
C1345 C1361 1.349 . S
C1346 C1344 1.327 . S
C1346 C1365 1.429 . S
C1346 H1370 0.950 . S
C1347 C1364 1.574 . S
C1347 C1366 1.368 . S
C1347 H1371 0.949 . S
H1348 C1352 0.949 . S
C1349 C1350 1.349 . S
C1349 C1351 1.327 . S
C1349 H1372 0.950 . S
C1350 C1349 1.349 . S
C1350 C1362 1.349 . S
C1351 C1349 1.327 . S
C1351 C1367 1.429 . S
C1351 H1373 0.950 . S
C1352 H1348 0.949 . S
C1352 C1360 1.574 . S
C1352 C1368 1.368 . S
H1353 C1361 0.950 . S
H1354 C1359 0.950 . S
H1355 C1360 0.949 . S
H1356 C1362 0.950 . S
H1357 C1363 0.950 . S
H1358 C1364 0.949 . S
C1359 H1354 0.950 . S
C1359 C1361 1.327 . S
C1359 C1365 1.429 . S
C1360 C1352 1.574 . S
C1360 H1355 0.949 . S
C1360 C1366 1.368 . S
C1361 C1345 1.349 . S
C1361 H1353 0.950 . S
C1361 C1359 1.327 . S
C1362 C1350 1.349 . S
C1362 H1356 0.950 . S
C1362 C1363 1.327 . S
C1363 H1357 0.950 . S
C1363 C1362 1.327 . S
C1363 C1367 1.429 . S
C1364 C1347 1.574 . S
C1364 H1358 0.949 . S
C1364 C1368 1.368 . S
C1365 C1346 1.429 . S
C1365 C1359 1.429 . S
C1365 C1366 1.523 . S
C1366 C1347 1.368 . S
C1366 C1360 1.368 . S
C1366 C1365 1.523 . S
C1367 C1351 1.429 . S
C1367 C1363 1.429 . S
C1367 C1368 1.523 . S
C1368 C1352 1.368 . S
C1368 C1364 1.368 . S
C1368 C1367 1.523 . S
H1369 C1344 0.950 . S
H1370 C1346 0.950 . S
H1371 C1347 0.949 . S
H1372 C1349 0.950 . S
H1373 C1351 0.950 . S
C1374 C1375 1.349 . S
C1374 C1376 1.327 . S
C1374 H1399 0.950 . S
C1375 C1374 1.349 . S
C1375 C1391 1.349 . S
C1376 C1374 1.327 . S
C1376 C1395 1.429 . S
C1376 H1400 0.950 . S
C1377 C1394 1.574 . S
C1377 C1396 1.368 . S
C1377 H1401 0.949 . S
H1378 C1382 0.949 . S
C1379 C1380 1.349 . S
C1379 C1381 1.327 . S
C1379 H1402 0.950 . S
C1380 C1379 1.349 . S
C1380 C1392 1.349 . S
C1381 C1379 1.327 . S
C1381 C1397 1.429 . S
C1381 H1403 0.950 . S
C1382 H1378 0.949 . S
C1382 C1390 1.574 . S
C1382 C1398 1.368 . S
H1383 C1391 0.950 . S
H1384 C1389 0.950 . S
H1385 C1390 0.949 . S
H1386 C1392 0.950 . S
H1387 C1393 0.950 . S
H1388 C1394 0.949 . S
C1389 H1384 0.950 . S
C1389 C1391 1.327 . S
C1389 C1395 1.429 . S
C1390 C1382 1.574 . S
C1390 H1385 0.949 . S
C1390 C1396 1.368 . S
C1391 C1375 1.349 . S
C1391 H1383 0.950 . S
C1391 C1389 1.327 . S
C1392 C1380 1.349 . S
C1392 H1386 0.950 . S
C1392 C1393 1.327 . S
C1393 H1387 0.950 . S
C1393 C1392 1.327 . S
C1393 C1397 1.429 . S
C1394 C1377 1.574 . S
C1394 H1388 0.949 . S
C1394 C1398 1.368 . S
C1395 C1376 1.429 . S
C1395 C1389 1.429 . S
C1395 C1396 1.523 . S
C1396 C1377 1.368 . S
C1396 C1390 1.368 . S
C1396 C1395 1.523 . S
C1397 C1381 1.429 . S
C1397 C1393 1.429 . S
C1397 C1398 1.523 . S
C1398 C1382 1.368 . S
C1398 C1394 1.368 . S
C1398 C1397 1.523 . S
H1399 C1374 0.950 . S
H1400 C1376 0.950 . S
H1401 C1377 0.949 . S
H1402 C1379 0.950 . S
H1403 C1381 0.950 . S
C1404 C1405 1.349 . S
C1404 C1406 1.327 . S
C1404 H1429 0.950 . S
C1405 C1404 1.349 . S
C1405 C1421 1.349 . S
C1406 C1404 1.327 . S
C1406 C1425 1.429 . S
C1406 H1430 0.950 . S
C1407 C1424 1.574 . S
C1407 C1426 1.368 . S
C1407 H1431 0.949 . S
H1408 C1412 0.949 . S
C1409 C1410 1.349 . S
C1409 C1411 1.327 . S
C1409 H1432 0.950 . S
C1410 C1409 1.349 . S
C1410 C1422 1.349 . S
C1411 C1409 1.327 . S
C1411 C1427 1.429 . S
C1411 H1433 0.950 . S
C1412 H1408 0.949 . S
C1412 C1420 1.574 . S
C1412 C1428 1.368 . S
H1413 C1421 0.950 . S
H1414 C1419 0.950 . S
H1415 C1420 0.949 . S
H1416 C1422 0.950 . S
H1417 C1423 0.950 . S
H1418 C1424 0.949 . S
C1419 H1414 0.950 . S
C1419 C1421 1.327 . S
C1419 C1425 1.429 . S
C1420 C1412 1.574 . S
C1420 H1415 0.949 . S
C1420 C1426 1.368 . S
C1421 C1405 1.349 . S
C1421 H1413 0.950 . S
C1421 C1419 1.327 . S
C1422 C1410 1.349 . S
C1422 H1416 0.950 . S
C1422 C1423 1.327 . S
C1423 H1417 0.950 . S
C1423 C1422 1.327 . S
C1423 C1427 1.429 . S
C1424 C1407 1.574 . S
C1424 H1418 0.949 . S
C1424 C1428 1.368 . S
C1425 C1406 1.429 . S
C1425 C1419 1.429 . S
C1425 C1426 1.523 . S
C1426 C1407 1.368 . S
C1426 C1420 1.368 . S
C1426 C1425 1.523 . S
C1427 C1411 1.429 . S
C1427 C1423 1.429 . S
C1427 C1428 1.523 . S
C1428 C1412 1.368 . S
C1428 C1424 1.368 . S
C1428 C1427 1.523 . S
H1429 C1404 0.950 . S
H1430 C1406 0.950 . S
H1431 C1407 0.949 . S
H1432 C1409 0.950 . S
H1433 C1411 0.950 . S
C1434 C1435 1.349 . S
C1434 C1436 1.327 . S
C1434 H1459 0.950 . S
C1435 C1434 1.349 . S
C1435 C1451 1.349 . S
C1436 C1434 1.327 . S
C1436 C1455 1.429 . S
C1436 H1460 0.950 . S
C1437 C1454 1.574 . S
C1437 C1456 1.368 . S
C1437 H1461 0.949 . S
H1438 C1442 0.949 . S
C1439 C1440 1.349 . S
C1439 C1441 1.327 . S
C1439 H1462 0.950 . S
C1440 C1439 1.349 . S
C1440 C1452 1.349 . S
C1441 C1439 1.327 . S
C1441 C1457 1.429 . S
C1441 H1463 0.950 . S
C1442 H1438 0.949 . S
C1442 C1450 1.574 . S
C1442 C1458 1.368 . S
H1443 C1451 0.950 . S
H1444 C1449 0.950 . S
H1445 C1450 0.949 . S
H1446 C1452 0.950 . S
H1447 C1453 0.950 . S
H1448 C1454 0.949 . S
C1449 H1444 0.950 . S
C1449 C1451 1.327 . S
C1449 C1455 1.429 . S
C1450 C1442 1.574 . S
C1450 H1445 0.949 . S
C1450 C1456 1.368 . S
C1451 C1435 1.349 . S
C1451 H1443 0.950 . S
C1451 C1449 1.327 . S
C1452 C1440 1.349 . S
C1452 H1446 0.950 . S
C1452 C1453 1.327 . S
C1453 H1447 0.950 . S
C1453 C1452 1.327 . S
C1453 C1457 1.429 . S
C1454 C1437 1.574 . S
C1454 H1448 0.949 . S
C1454 C1458 1.368 . S
C1455 C1436 1.429 . S
C1455 C1449 1.429 . S
C1455 C1456 1.523 . S
C1456 C1437 1.368 . S
C1456 C1450 1.368 . S
C1456 C1455 1.523 . S
C1457 C1441 1.429 . S
C1457 C1453 1.429 . S
C1457 C1458 1.523 . S
C1458 C1442 1.368 . S
C1458 C1454 1.368 . S
C1458 C1457 1.523 . S
H1459 C1434 0.950 . S
H1460 C1436 0.950 . S
H1461 C1437 0.949 . S
H1462 C1439 0.950 . S
H1463 C1441 0.950 . S
C1464 C1465 1.349 . S
C1464 C1466 1.327 . S
C1464 H1489 0.950 . S
C1465 C1464 1.349 . S
C1465 C1481 1.349 . S
C1466 C1464 1.327 . S
C1466 C1485 1.429 . S
C1466 H1490 0.950 . S
C1467 C1484 1.574 . S
C1467 C1486 1.368 . S
C1467 H1491 0.949 . S
H1468 C1472 0.949 . S
C1469 C1470 1.349 . S
C1469 C1471 1.327 . S
C1469 H1492 0.950 . S
C1470 C1469 1.349 . S
C1470 C1482 1.349 . S
C1471 C1469 1.327 . S
C1471 C1487 1.429 . S
C1471 H1493 0.950 . S
C1472 H1468 0.949 . S
C1472 C1480 1.574 . S
C1472 C1488 1.368 . S
H1473 C1481 0.950 . S
H1474 C1479 0.950 . S
H1475 C1480 0.949 . S
H1476 C1482 0.950 . S
H1477 C1483 0.950 . S
H1478 C1484 0.949 . S
C1479 H1474 0.950 . S
C1479 C1481 1.327 . S
C1479 C1485 1.429 . S
C1480 C1472 1.574 . S
C1480 H1475 0.949 . S
C1480 C1486 1.368 . S
C1481 C1465 1.349 . S
C1481 H1473 0.950 . S
C1481 C1479 1.327 . S
C1482 C1470 1.349 . S
C1482 H1476 0.950 . S
C1482 C1483 1.327 . S
C1483 H1477 0.950 . S
C1483 C1482 1.327 . S
C1483 C1487 1.429 . S
C1484 C1467 1.574 . S
C1484 H1478 0.949 . S
C1484 C1488 1.368 . S
C1485 C1466 1.429 . S
C1485 C1479 1.429 . S
C1485 C1486 1.523 . S
C1486 C1467 1.368 . S
C1486 C1480 1.368 . S
C1486 C1485 1.523 . S
C1487 C1471 1.429 . S
C1487 C1483 1.429 . S
C1487 C1488 1.523 . S
C1488 C1472 1.368 . S
C1488 C1484 1.368 . S
C1488 C1487 1.523 . S
H1489 C1464 0.950 . S
H1490 C1466 0.950 . S
H1491 C1467 0.949 . S
H1492 C1469 0.950 . S
H1493 C1471 0.950 . S
C1494 C1495 1.349 . S
C1494 C1496 1.327 . S
C1494 H1519 0.950 . S
C1495 C1494 1.349 . S
C1495 C1511 1.349 . S
C1496 C1494 1.327 . S
C1496 C1515 1.429 . S
C1496 H1520 0.950 . S
C1497 C1514 1.574 . S
C1497 C1516 1.368 . S
C1497 H1521 0.949 . S
H1498 C1502 0.949 . S
C1499 C1500 1.349 . S
C1499 C1501 1.327 . S
C1499 H1522 0.950 . S
C1500 C1499 1.349 . S
C1500 C1512 1.349 . S
C1501 C1499 1.327 . S
C1501 C1517 1.429 . S
C1501 H1523 0.950 . S
C1502 H1498 0.949 . S
C1502 C1510 1.574 . S
C1502 C1518 1.368 . S
H1503 C1511 0.950 . S
H1504 C1509 0.950 . S
H1505 C1510 0.949 . S
H1506 C1512 0.950 . S
H1507 C1513 0.950 . S
H1508 C1514 0.949 . S
C1509 H1504 0.950 . S
C1509 C1511 1.327 . S
C1509 C1515 1.429 . S
C1510 C1502 1.574 . S
C1510 H1505 0.949 . S
C1510 C1516 1.368 . S
C1511 C1495 1.349 . S
C1511 H1503 0.950 . S
C1511 C1509 1.327 . S
C1512 C1500 1.349 . S
C1512 H1506 0.950 . S
C1512 C1513 1.327 . S
C1513 H1507 0.950 . S
C1513 C1512 1.327 . S
C1513 C1517 1.429 . S
C1514 C1497 1.574 . S
C1514 H1508 0.949 . S
C1514 C1518 1.368 . S
C1515 C1496 1.429 . S
C1515 C1509 1.429 . S
C1515 C1516 1.523 . S
C1516 C1497 1.368 . S
C1516 C1510 1.368 . S
C1516 C1515 1.523 . S
C1517 C1501 1.429 . S
C1517 C1513 1.429 . S
C1517 C1518 1.523 . S
C1518 C1502 1.368 . S
C1518 C1514 1.368 . S
C1518 C1517 1.523 . S
H1519 C1494 0.950 . S
H1520 C1496 0.950 . S
H1521 C1497 0.949 . S
H1522 C1499 0.950 . S
H1523 C1501 0.950 . S
C1524 C1525 1.349 . S
C1524 C1526 1.327 . S
C1524 H1549 0.950 . S
C1525 C1524 1.349 . S
C1525 C1541 1.349 . S
C1526 C1524 1.327 . S
C1526 C1545 1.429 . S
C1526 H1550 0.950 . S
C1527 C1544 1.574 . S
C1527 C1546 1.368 . S
C1527 H1551 0.949 . S
H1528 C1532 0.949 . S
C1529 C1530 1.349 . S
C1529 C1531 1.327 . S
C1529 H1552 0.950 . S
C1530 C1529 1.349 . S
C1530 C1542 1.349 . S
C1531 C1529 1.327 . S
C1531 C1547 1.429 . S
C1531 H1553 0.950 . S
C1532 H1528 0.949 . S
C1532 C1540 1.574 . S
C1532 C1548 1.368 . S
H1533 C1541 0.950 . S
H1534 C1539 0.950 . S
H1535 C1540 0.949 . S
H1536 C1542 0.950 . S
H1537 C1543 0.950 . S
H1538 C1544 0.949 . S
C1539 H1534 0.950 . S
C1539 C1541 1.327 . S
C1539 C1545 1.429 . S
C1540 C1532 1.574 . S
C1540 H1535 0.949 . S
C1540 C1546 1.368 . S
C1541 C1525 1.349 . S
C1541 H1533 0.950 . S
C1541 C1539 1.327 . S
C1542 C1530 1.349 . S
C1542 H1536 0.950 . S
C1542 C1543 1.327 . S
C1543 H1537 0.950 . S
C1543 C1542 1.327 . S
C1543 C1547 1.429 . S
C1544 C1527 1.574 . S
C1544 H1538 0.949 . S
C1544 C1548 1.368 . S
C1545 C1526 1.429 . S
C1545 C1539 1.429 . S
C1545 C1546 1.523 . S
C1546 C1527 1.368 . S
C1546 C1540 1.368 . S
C1546 C1545 1.523 . S
C1547 C1531 1.429 . S
C1547 C1543 1.429 . S
C1547 C1548 1.523 . S
C1548 C1532 1.368 . S
C1548 C1544 1.368 . S
C1548 C1547 1.523 . S
H1549 C1524 0.950 . S
H1550 C1526 0.950 . S
H1551 C1527 0.949 . S
H1552 C1529 0.950 . S
H1553 C1531 0.950 . S
C1554 C1555 1.349 . S
C1554 C1556 1.327 . S
C1554 H1579 0.950 . S
C1555 C1554 1.349 . S
C1555 C1571 1.349 . S
C1556 C1554 1.327 . S
C1556 C1575 1.429 . S
C1556 H1580 0.950 . S
C1557 C1574 1.574 . S
C1557 C1576 1.368 . S
C1557 H1581 0.949 . S
H1558 C1562 0.949 . S
C1559 C1560 1.349 . S
C1559 C1561 1.327 . S
C1559 H1582 0.950 . S
C1560 C1559 1.349 . S
C1560 C1572 1.349 . S
C1561 C1559 1.327 . S
C1561 C1577 1.429 . S
C1561 H1583 0.950 . S
C1562 H1558 0.949 . S
C1562 C1570 1.574 . S
C1562 C1578 1.368 . S
H1563 C1571 0.950 . S
H1564 C1569 0.950 . S
H1565 C1570 0.949 . S
H1566 C1572 0.950 . S
H1567 C1573 0.950 . S
H1568 C1574 0.949 . S
C1569 H1564 0.950 . S
C1569 C1571 1.327 . S
C1569 C1575 1.429 . S
C1570 C1562 1.574 . S
C1570 H1565 0.949 . S
C1570 C1576 1.368 . S
C1571 C1555 1.349 . S
C1571 H1563 0.950 . S
C1571 C1569 1.327 . S
C1572 C1560 1.349 . S
C1572 H1566 0.950 . S
C1572 C1573 1.327 . S
C1573 H1567 0.950 . S
C1573 C1572 1.327 . S
C1573 C1577 1.429 . S
C1574 C1557 1.574 . S
C1574 H1568 0.949 . S
C1574 C1578 1.368 . S
C1575 C1556 1.429 . S
C1575 C1569 1.429 . S
C1575 C1576 1.523 . S
C1576 C1557 1.368 . S
C1576 C1570 1.368 . S
C1576 C1575 1.523 . S
C1577 C1561 1.429 . S
C1577 C1573 1.429 . S
C1577 C1578 1.523 . S
C1578 C1562 1.368 . S
C1578 C1574 1.368 . S
C1578 C1577 1.523 . S
H1579 C1554 0.950 . S
H1580 C1556 0.950 . S
H1581 C1557 0.949 . S
H1582 C1559 0.950 . S
H1583 C1561 0.950 . S
C1584 C1585 1.349 . S
C1584 C1586 1.327 . S
C1584 H1609 0.950 . S
C1585 C1584 1.349 . S
C1585 C1601 1.349 . S
C1586 C1584 1.327 . S
C1586 C1605 1.429 . S
C1586 H1610 0.950 . S
C1587 C1604 1.574 . S
C1587 C1606 1.368 . S
C1587 H1611 0.949 . S
H1588 C1592 0.949 . S
C1589 C1590 1.349 . S
C1589 C1591 1.327 . S
C1589 H1612 0.950 . S
C1590 C1589 1.349 . S
C1590 C1602 1.349 . S
C1591 C1589 1.327 . S
C1591 C1607 1.429 . S
C1591 H1613 0.950 . S
C1592 H1588 0.949 . S
C1592 C1600 1.574 . S
C1592 C1608 1.368 . S
H1593 C1601 0.950 . S
H1594 C1599 0.950 . S
H1595 C1600 0.949 . S
H1596 C1602 0.950 . S
H1597 C1603 0.950 . S
H1598 C1604 0.949 . S
C1599 H1594 0.950 . S
C1599 C1601 1.327 . S
C1599 C1605 1.429 . S
C1600 C1592 1.574 . S
C1600 H1595 0.949 . S
C1600 C1606 1.368 . S
C1601 C1585 1.349 . S
C1601 H1593 0.950 . S
C1601 C1599 1.327 . S
C1602 C1590 1.349 . S
C1602 H1596 0.950 . S
C1602 C1603 1.327 . S
C1603 H1597 0.950 . S
C1603 C1602 1.327 . S
C1603 C1607 1.429 . S
C1604 C1587 1.574 . S
C1604 H1598 0.949 . S
C1604 C1608 1.368 . S
C1605 C1586 1.429 . S
C1605 C1599 1.429 . S
C1605 C1606 1.523 . S
C1606 C1587 1.368 . S
C1606 C1600 1.368 . S
C1606 C1605 1.523 . S
C1607 C1591 1.429 . S
C1607 C1603 1.429 . S
C1607 C1608 1.523 . S
C1608 C1592 1.368 . S
C1608 C1604 1.368 . S
C1608 C1607 1.523 . S
H1609 C1584 0.950 . S
H1610 C1586 0.950 . S
H1611 C1587 0.949 . S
H1612 C1589 0.950 . S
H1613 C1591 0.950 . S
C1614 C1615 1.349 . S
C1614 C1616 1.327 . S
C1614 H1639 0.950 . S
C1615 C1614 1.349 . S
C1615 C1631 1.349 . S
C1616 C1614 1.327 . S
C1616 C1635 1.429 . S
C1616 H1640 0.950 . S
C1617 C1634 1.574 . S
C1617 C1636 1.368 . S
C1617 H1641 0.949 . S
H1618 C1622 0.949 . S
C1619 C1620 1.349 . S
C1619 C1621 1.327 . S
C1619 H1642 0.950 . S
C1620 C1619 1.349 . S
C1620 C1632 1.349 . S
C1621 C1619 1.327 . S
C1621 C1637 1.429 . S
C1621 H1643 0.950 . S
C1622 H1618 0.949 . S
C1622 C1630 1.574 . S
C1622 C1638 1.368 . S
H1623 C1631 0.950 . S
H1624 C1629 0.950 . S
H1625 C1630 0.949 . S
H1626 C1632 0.950 . S
H1627 C1633 0.950 . S
H1628 C1634 0.949 . S
C1629 H1624 0.950 . S
C1629 C1631 1.327 . S
C1629 C1635 1.429 . S
C1630 C1622 1.574 . S
C1630 H1625 0.949 . S
C1630 C1636 1.368 . S
C1631 C1615 1.349 . S
C1631 H1623 0.950 . S
C1631 C1629 1.327 . S
C1632 C1620 1.349 . S
C1632 H1626 0.950 . S
C1632 C1633 1.327 . S
C1633 H1627 0.950 . S
C1633 C1632 1.327 . S
C1633 C1637 1.429 . S
C1634 C1617 1.574 . S
C1634 H1628 0.949 . S
C1634 C1638 1.368 . S
C1635 C1616 1.429 . S
C1635 C1629 1.429 . S
C1635 C1636 1.523 . S
C1636 C1617 1.368 . S
C1636 C1630 1.368 . S
C1636 C1635 1.523 . S
C1637 C1621 1.429 . S
C1637 C1633 1.429 . S
C1637 C1638 1.523 . S
C1638 C1622 1.368 . S
C1638 C1634 1.368 . S
C1638 C1637 1.523 . S
H1639 C1614 0.950 . S
H1640 C1616 0.950 . S
H1641 C1617 0.949 . S
H1642 C1619 0.950 . S
H1643 C1621 0.950 . S
C1644 C1645 1.349 . S
C1644 C1646 1.327 . S
C1644 H1669 0.950 . S
C1645 C1644 1.349 . S
C1645 C1661 1.349 . S
C1646 C1644 1.327 . S
C1646 C1665 1.429 . S
C1646 H1670 0.950 . S
C1647 C1664 1.574 . S
C1647 C1666 1.368 . S
C1647 H1671 0.949 . S
H1648 C1652 0.949 . S
C1649 C1650 1.349 . S
C1649 C1651 1.327 . S
C1649 H1672 0.950 . S
C1650 C1649 1.349 . S
C1650 C1662 1.349 . S
C1651 C1649 1.327 . S
C1651 C1667 1.429 . S
C1651 H1673 0.950 . S
C1652 H1648 0.949 . S
C1652 C1660 1.574 . S
C1652 C1668 1.368 . S
H1653 C1661 0.950 . S
H1654 C1659 0.950 . S
H1655 C1660 0.949 . S
H1656 C1662 0.950 . S
H1657 C1663 0.950 . S
H1658 C1664 0.949 . S
C1659 H1654 0.950 . S
C1659 C1661 1.327 . S
C1659 C1665 1.429 . S
C1660 C1652 1.574 . S
C1660 H1655 0.949 . S
C1660 C1666 1.368 . S
C1661 C1645 1.349 . S
C1661 H1653 0.950 . S
C1661 C1659 1.327 . S
C1662 C1650 1.349 . S
C1662 H1656 0.950 . S
C1662 C1663 1.327 . S
C1663 H1657 0.950 . S
C1663 C1662 1.327 . S
C1663 C1667 1.429 . S
C1664 C1647 1.574 . S
C1664 H1658 0.949 . S
C1664 C1668 1.368 . S
C1665 C1646 1.429 . S
C1665 C1659 1.429 . S
C1665 C1666 1.523 . S
C1666 C1647 1.368 . S
C1666 C1660 1.368 . S
C1666 C1665 1.523 . S
C1667 C1651 1.429 . S
C1667 C1663 1.429 . S
C1667 C1668 1.523 . S
C1668 C1652 1.368 . S
C1668 C1664 1.368 . S
C1668 C1667 1.523 . S
H1669 C1644 0.950 . S
H1670 C1646 0.950 . S
H1671 C1647 0.949 . S
H1672 C1649 0.950 . S
H1673 C1651 0.950 . S
C1674 C1675 1.349 . S
C1674 C1676 1.327 . S
C1674 H1699 0.950 . S
C1675 C1674 1.349 . S
C1675 C1691 1.349 . S
C1676 C1674 1.327 . S
C1676 C1695 1.429 . S
C1676 H1700 0.950 . S
C1677 C1694 1.574 . S
C1677 C1696 1.368 . S
C1677 H1701 0.949 . S
H1678 C1682 0.949 . S
C1679 C1680 1.349 . S
C1679 C1681 1.327 . S
C1679 H1702 0.950 . S
C1680 C1679 1.349 . S
C1680 C1692 1.349 . S
C1681 C1679 1.327 . S
C1681 C1697 1.429 . S
C1681 H1703 0.950 . S
C1682 H1678 0.949 . S
C1682 C1690 1.574 . S
C1682 C1698 1.368 . S
H1683 C1691 0.950 . S
H1684 C1689 0.950 . S
H1685 C1690 0.949 . S
H1686 C1692 0.950 . S
H1687 C1693 0.950 . S
H1688 C1694 0.949 . S
C1689 H1684 0.950 . S
C1689 C1691 1.327 . S
C1689 C1695 1.429 . S
C1690 C1682 1.574 . S
C1690 H1685 0.949 . S
C1690 C1696 1.368 . S
C1691 C1675 1.349 . S
C1691 H1683 0.950 . S
C1691 C1689 1.327 . S
C1692 C1680 1.349 . S
C1692 H1686 0.950 . S
C1692 C1693 1.327 . S
C1693 H1687 0.950 . S
C1693 C1692 1.327 . S
C1693 C1697 1.429 . S
C1694 C1677 1.574 . S
C1694 H1688 0.949 . S
C1694 C1698 1.368 . S
C1695 C1676 1.429 . S
C1695 C1689 1.429 . S
C1695 C1696 1.523 . S
C1696 C1677 1.368 . S
C1696 C1690 1.368 . S
C1696 C1695 1.523 . S
C1697 C1681 1.429 . S
C1697 C1693 1.429 . S
C1697 C1698 1.523 . S
C1698 C1682 1.368 . S
C1698 C1694 1.368 . S
C1698 C1697 1.523 . S
H1699 C1674 0.950 . S
H1700 C1676 0.950 . S
H1701 C1677 0.949 . S
H1702 C1679 0.950 . S
H1703 C1681 0.950 . S
C1704 C1705 1.349 . S
C1704 C1706 1.327 . S
C1704 H1729 0.950 . S
C1705 C1704 1.349 . S
C1705 C1721 1.349 . S
C1706 C1704 1.327 . S
C1706 C1725 1.429 . S
C1706 H1730 0.950 . S
C1707 C1724 1.574 . S
C1707 C1726 1.368 . S
C1707 H1731 0.949 . S
H1708 C1712 0.949 . S
C1709 C1710 1.349 . S
C1709 C1711 1.327 . S
C1709 H1732 0.950 . S
C1710 C1709 1.349 . S
C1710 C1722 1.349 . S
C1711 C1709 1.327 . S
C1711 C1727 1.429 . S
C1711 H1733 0.950 . S
C1712 H1708 0.949 . S
C1712 C1720 1.574 . S
C1712 C1728 1.368 . S
H1713 C1721 0.950 . S
H1714 C1719 0.950 . S
H1715 C1720 0.949 . S
H1716 C1722 0.950 . S
H1717 C1723 0.950 . S
H1718 C1724 0.949 . S
C1719 H1714 0.950 . S
C1719 C1721 1.327 . S
C1719 C1725 1.429 . S
C1720 C1712 1.574 . S
C1720 H1715 0.949 . S
C1720 C1726 1.368 . S
C1721 C1705 1.349 . S
C1721 H1713 0.950 . S
C1721 C1719 1.327 . S
C1722 C1710 1.349 . S
C1722 H1716 0.950 . S
C1722 C1723 1.327 . S
C1723 H1717 0.950 . S
C1723 C1722 1.327 . S
C1723 C1727 1.429 . S
C1724 C1707 1.574 . S
C1724 H1718 0.949 . S
C1724 C1728 1.368 . S
C1725 C1706 1.429 . S
C1725 C1719 1.429 . S
C1725 C1726 1.523 . S
C1726 C1707 1.368 . S
C1726 C1720 1.368 . S
C1726 C1725 1.523 . S
C1727 C1711 1.429 . S
C1727 C1723 1.429 . S
C1727 C1728 1.523 . S
C1728 C1712 1.368 . S
C1728 C1724 1.368 . S
C1728 C1727 1.523 . S
H1729 C1704 0.950 . S
H1730 C1706 0.950 . S
H1731 C1707 0.949 . S
H1732 C1709 0.950 . S
H1733 C1711 0.950 . S
C1734 C1735 1.349 . S
C1734 C1736 1.327 . S
C1734 H1759 0.950 . S
C1735 C1734 1.349 . S
C1735 C1751 1.349 . S
C1736 C1734 1.327 . S
C1736 C1755 1.429 . S
C1736 H1760 0.950 . S
C1737 C1754 1.574 . S
C1737 C1756 1.368 . S
C1737 H1761 0.949 . S
H1738 C1742 0.949 . S
C1739 C1740 1.349 . S
C1739 C1741 1.327 . S
C1739 H1762 0.950 . S
C1740 C1739 1.349 . S
C1740 C1752 1.349 . S
C1741 C1739 1.327 . S
C1741 C1757 1.429 . S
C1741 H1763 0.950 . S
C1742 H1738 0.949 . S
C1742 C1750 1.574 . S
C1742 C1758 1.368 . S
H1743 C1751 0.950 . S
H1744 C1749 0.950 . S
H1745 C1750 0.949 . S
H1746 C1752 0.950 . S
H1747 C1753 0.950 . S
H1748 C1754 0.949 . S
C1749 H1744 0.950 . S
C1749 C1751 1.327 . S
C1749 C1755 1.429 . S
C1750 C1742 1.574 . S
C1750 H1745 0.949 . S
C1750 C1756 1.368 . S
C1751 C1735 1.349 . S
C1751 H1743 0.950 . S
C1751 C1749 1.327 . S
C1752 C1740 1.349 . S
C1752 H1746 0.950 . S
C1752 C1753 1.327 . S
C1753 H1747 0.950 . S
C1753 C1752 1.327 . S
C1753 C1757 1.429 . S
C1754 C1737 1.574 . S
C1754 H1748 0.949 . S
C1754 C1758 1.368 . S
C1755 C1736 1.429 . S
C1755 C1749 1.429 . S
C1755 C1756 1.523 . S
C1756 C1737 1.368 . S
C1756 C1750 1.368 . S
C1756 C1755 1.523 . S
C1757 C1741 1.429 . S
C1757 C1753 1.429 . S
C1757 C1758 1.523 . S
C1758 C1742 1.368 . S
C1758 C1754 1.368 . S
C1758 C1757 1.523 . S
H1759 C1734 0.950 . S
H1760 C1736 0.950 . S
H1761 C1737 0.949 . S
H1762 C1739 0.950 . S
H1763 C1741 0.950 . S
C1764 C1765 1.349 . S
C1764 C1766 1.327 . S
C1764 H1789 0.950 . S
C1765 C1764 1.349 . S
C1765 C1781 1.349 . S
C1766 C1764 1.327 . S
C1766 C1785 1.429 . S
C1766 H1790 0.950 . S
C1767 C1784 1.574 . S
C1767 C1786 1.368 . S
C1767 H1791 0.949 . S
H1768 C1772 0.949 . S
C1769 C1770 1.349 . S
C1769 C1771 1.327 . S
C1769 H1792 0.950 . S
C1770 C1769 1.349 . S
C1770 C1782 1.349 . S
C1771 C1769 1.327 . S
C1771 C1787 1.429 . S
C1771 H1793 0.950 . S
C1772 H1768 0.949 . S
C1772 C1780 1.574 . S
C1772 C1788 1.368 . S
H1773 C1781 0.950 . S
H1774 C1779 0.950 . S
H1775 C1780 0.949 . S
H1776 C1782 0.950 . S
H1777 C1783 0.950 . S
H1778 C1784 0.949 . S
C1779 H1774 0.950 . S
C1779 C1781 1.327 . S
C1779 C1785 1.429 . S
C1780 C1772 1.574 . S
C1780 H1775 0.949 . S
C1780 C1786 1.368 . S
C1781 C1765 1.349 . S
C1781 H1773 0.950 . S
C1781 C1779 1.327 . S
C1782 C1770 1.349 . S
C1782 H1776 0.950 . S
C1782 C1783 1.327 . S
C1783 H1777 0.950 . S
C1783 C1782 1.327 . S
C1783 C1787 1.429 . S
C1784 C1767 1.574 . S
C1784 H1778 0.949 . S
C1784 C1788 1.368 . S
C1785 C1766 1.429 . S
C1785 C1779 1.429 . S
C1785 C1786 1.523 . S
C1786 C1767 1.368 . S
C1786 C1780 1.368 . S
C1786 C1785 1.523 . S
C1787 C1771 1.429 . S
C1787 C1783 1.429 . S
C1787 C1788 1.523 . S
C1788 C1772 1.368 . S
C1788 C1784 1.368 . S
C1788 C1787 1.523 . S
H1789 C1764 0.950 . S
H1790 C1766 0.950 . S
H1791 C1767 0.949 . S
H1792 C1769 0.950 . S
H1793 C1771 0.950 . S
C1794 C1795 1.349 . S
C1794 C1796 1.327 . S
C1794 H1819 0.950 . S
C1795 C1794 1.349 . S
C1795 C1811 1.349 . S
C1796 C1794 1.327 . S
C1796 C1815 1.429 . S
C1796 H1820 0.950 . S
C1797 C1814 1.574 . S
C1797 C1816 1.368 . S
C1797 H1821 0.949 . S
H1798 C1802 0.949 . S
C1799 C1800 1.349 . S
C1799 C1801 1.327 . S
C1799 H1822 0.950 . S
C1800 C1799 1.349 . S
C1800 C1812 1.349 . S
C1801 C1799 1.327 . S
C1801 C1817 1.429 . S
C1801 H1823 0.950 . S
C1802 H1798 0.949 . S
C1802 C1810 1.574 . S
C1802 C1818 1.368 . S
H1803 C1811 0.950 . S
H1804 C1809 0.950 . S
H1805 C1810 0.949 . S
H1806 C1812 0.950 . S
H1807 C1813 0.950 . S
H1808 C1814 0.949 . S
C1809 H1804 0.950 . S
C1809 C1811 1.327 . S
C1809 C1815 1.429 . S
C1810 C1802 1.574 . S
C1810 H1805 0.949 . S
C1810 C1816 1.368 . S
C1811 C1795 1.349 . S
C1811 H1803 0.950 . S
C1811 C1809 1.327 . S
C1812 C1800 1.349 . S
C1812 H1806 0.950 . S
C1812 C1813 1.327 . S
C1813 H1807 0.950 . S
C1813 C1812 1.327 . S
C1813 C1817 1.429 . S
C1814 C1797 1.574 . S
C1814 H1808 0.949 . S
C1814 C1818 1.368 . S
C1815 C1796 1.429 . S
C1815 C1809 1.429 . S
C1815 C1816 1.523 . S
C1816 C1797 1.368 . S
C1816 C1810 1.368 . S
C1816 C1815 1.523 . S
C1817 C1801 1.429 . S
C1817 C1813 1.429 . S
C1817 C1818 1.523 . S
C1818 C1802 1.368 . S
C1818 C1814 1.368 . S
C1818 C1817 1.523 . S
H1819 C1794 0.950 . S
H1820 C1796 0.950 . S
H1821 C1797 0.949 . S
H1822 C1799 0.950 . S
H1823 C1801 0.950 . S
C1824 C1825 1.349 . S
C1824 C1826 1.327 . S
C1824 H1849 0.950 . S
C1825 C1824 1.349 . S
C1825 C1841 1.349 . S
C1826 C1824 1.327 . S
C1826 C1845 1.429 . S
C1826 H1850 0.950 . S
C1827 C1844 1.574 . S
C1827 C1846 1.368 . S
C1827 H1851 0.949 . S
H1828 C1832 0.949 . S
C1829 C1830 1.349 . S
C1829 C1831 1.327 . S
C1829 H1852 0.950 . S
C1830 C1829 1.349 . S
C1830 C1842 1.349 . S
C1831 C1829 1.327 . S
C1831 C1847 1.429 . S
C1831 H1853 0.950 . S
C1832 H1828 0.949 . S
C1832 C1840 1.574 . S
C1832 C1848 1.368 . S
H1833 C1841 0.950 . S
H1834 C1839 0.950 . S
H1835 C1840 0.949 . S
H1836 C1842 0.950 . S
H1837 C1843 0.950 . S
H1838 C1844 0.949 . S
C1839 H1834 0.950 . S
C1839 C1841 1.327 . S
C1839 C1845 1.429 . S
C1840 C1832 1.574 . S
C1840 H1835 0.949 . S
C1840 C1846 1.368 . S
C1841 C1825 1.349 . S
C1841 H1833 0.950 . S
C1841 C1839 1.327 . S
C1842 C1830 1.349 . S
C1842 H1836 0.950 . S
C1842 C1843 1.327 . S
C1843 H1837 0.950 . S
C1843 C1842 1.327 . S
C1843 C1847 1.429 . S
C1844 C1827 1.574 . S
C1844 H1838 0.949 . S
C1844 C1848 1.368 . S
C1845 C1826 1.429 . S
C1845 C1839 1.429 . S
C1845 C1846 1.523 . S
C1846 C1827 1.368 . S
C1846 C1840 1.368 . S
C1846 C1845 1.523 . S
C1847 C1831 1.429 . S
C1847 C1843 1.429 . S
C1847 C1848 1.523 . S
C1848 C1832 1.368 . S
C1848 C1844 1.368 . S
C1848 C1847 1.523 . S
H1849 C1824 0.950 . S
H1850 C1826 0.950 . S
H1851 C1827 0.949 . S
H1852 C1829 0.950 . S
H1853 C1831 0.950 . S
C1854 C1855 1.349 . S
C1854 C1856 1.327 . S
C1854 H1879 0.950 . S
C1855 C1854 1.349 . S
C1855 C1871 1.349 . S
C1856 C1854 1.327 . S
C1856 C1875 1.429 . S
C1856 H1880 0.950 . S
C1857 C1874 1.574 . S
C1857 C1876 1.368 . S
C1857 H1881 0.949 . S
H1858 C1862 0.949 . S
C1859 C1860 1.349 . S
C1859 C1861 1.327 . S
C1859 H1882 0.950 . S
C1860 C1859 1.349 . S
C1860 C1872 1.349 . S
C1861 C1859 1.327 . S
C1861 C1877 1.429 . S
C1861 H1883 0.950 . S
C1862 H1858 0.949 . S
C1862 C1870 1.574 . S
C1862 C1878 1.368 . S
H1863 C1871 0.950 . S
H1864 C1869 0.950 . S
H1865 C1870 0.949 . S
H1866 C1872 0.950 . S
H1867 C1873 0.950 . S
H1868 C1874 0.949 . S
C1869 H1864 0.950 . S
C1869 C1871 1.327 . S
C1869 C1875 1.429 . S
C1870 C1862 1.574 . S
C1870 H1865 0.949 . S
C1870 C1876 1.368 . S
C1871 C1855 1.349 . S
C1871 H1863 0.950 . S
C1871 C1869 1.327 . S
C1872 C1860 1.349 . S
C1872 H1866 0.950 . S
C1872 C1873 1.327 . S
C1873 H1867 0.950 . S
C1873 C1872 1.327 . S
C1873 C1877 1.429 . S
C1874 C1857 1.574 . S
C1874 H1868 0.949 . S
C1874 C1878 1.368 . S
C1875 C1856 1.429 . S
C1875 C1869 1.429 . S
C1875 C1876 1.523 . S
C1876 C1857 1.368 . S
C1876 C1870 1.368 . S
C1876 C1875 1.523 . S
C1877 C1861 1.429 . S
C1877 C1873 1.429 . S
C1877 C1878 1.523 . S
C1878 C1862 1.368 . S
C1878 C1874 1.368 . S
C1878 C1877 1.523 . S
H1879 C1854 0.950 . S
H1880 C1856 0.950 . S
H1881 C1857 0.949 . S
H1882 C1859 0.950 . S
H1883 C1861 0.950 . S
C1884 C1885 1.349 . S
C1884 C1886 1.327 . S
C1884 H1909 0.950 . S
C1885 C1884 1.349 . S
C1885 C1901 1.349 . S
C1886 C1884 1.327 . S
C1886 C1905 1.429 . S
C1886 H1910 0.950 . S
C1887 C1904 1.574 . S
C1887 C1906 1.368 . S
C1887 H1911 0.949 . S
H1888 C1892 0.949 . S
C1889 C1890 1.349 . S
C1889 C1891 1.327 . S
C1889 H1912 0.950 . S
C1890 C1889 1.349 . S
C1890 C1902 1.349 . S
C1891 C1889 1.327 . S
C1891 C1907 1.429 . S
C1891 H1913 0.950 . S
C1892 H1888 0.949 . S
C1892 C1900 1.574 . S
C1892 C1908 1.368 . S
H1893 C1901 0.950 . S
H1894 C1899 0.950 . S
H1895 C1900 0.949 . S
H1896 C1902 0.950 . S
H1897 C1903 0.950 . S
H1898 C1904 0.949 . S
C1899 H1894 0.950 . S
C1899 C1901 1.327 . S
C1899 C1905 1.429 . S
C1900 C1892 1.574 . S
C1900 H1895 0.949 . S
C1900 C1906 1.368 . S
C1901 C1885 1.349 . S
C1901 H1893 0.950 . S
C1901 C1899 1.327 . S
C1902 C1890 1.349 . S
C1902 H1896 0.950 . S
C1902 C1903 1.327 . S
C1903 H1897 0.950 . S
C1903 C1902 1.327 . S
C1903 C1907 1.429 . S
C1904 C1887 1.574 . S
C1904 H1898 0.949 . S
C1904 C1908 1.368 . S
C1905 C1886 1.429 . S
C1905 C1899 1.429 . S
C1905 C1906 1.523 . S
C1906 C1887 1.368 . S
C1906 C1900 1.368 . S
C1906 C1905 1.523 . S
C1907 C1891 1.429 . S
C1907 C1903 1.429 . S
C1907 C1908 1.523 . S
C1908 C1892 1.368 . S
C1908 C1904 1.368 . S
C1908 C1907 1.523 . S
H1909 C1884 0.950 . S
H1910 C1886 0.950 . S
H1911 C1887 0.949 . S
H1912 C1889 0.950 . S
H1913 C1891 0.950 . S
C1914 C1915 1.349 . S
C1914 C1916 1.327 . S
C1914 H1939 0.950 . S
C1915 C1914 1.349 . S
C1915 C1931 1.349 . S
C1916 C1914 1.327 . S
C1916 C1935 1.429 . S
C1916 H1940 0.950 . S
C1917 C1934 1.574 . S
C1917 C1936 1.368 . S
C1917 H1941 0.949 . S
H1918 C1922 0.949 . S
C1919 C1920 1.349 . S
C1919 C1921 1.327 . S
C1919 H1942 0.950 . S
C1920 C1919 1.349 . S
C1920 C1932 1.349 . S
C1921 C1919 1.327 . S
C1921 C1937 1.429 . S
C1921 H1943 0.950 . S
C1922 H1918 0.949 . S
C1922 C1930 1.574 . S
C1922 C1938 1.368 . S
H1923 C1931 0.950 . S
H1924 C1929 0.950 . S
H1925 C1930 0.949 . S
H1926 C1932 0.950 . S
H1927 C1933 0.950 . S
H1928 C1934 0.949 . S
C1929 H1924 0.950 . S
C1929 C1931 1.327 . S
C1929 C1935 1.429 . S
C1930 C1922 1.574 . S
C1930 H1925 0.949 . S
C1930 C1936 1.368 . S
C1931 C1915 1.349 . S
C1931 H1923 0.950 . S
C1931 C1929 1.327 . S
C1932 C1920 1.349 . S
C1932 H1926 0.950 . S
C1932 C1933 1.327 . S
C1933 H1927 0.950 . S
C1933 C1932 1.327 . S
C1933 C1937 1.429 . S
C1934 C1917 1.574 . S
C1934 H1928 0.949 . S
C1934 C1938 1.368 . S
C1935 C1916 1.429 . S
C1935 C1929 1.429 . S
C1935 C1936 1.523 . S
C1936 C1917 1.368 . S
C1936 C1930 1.368 . S
C1936 C1935 1.523 . S
C1937 C1921 1.429 . S
C1937 C1933 1.429 . S
C1937 C1938 1.523 . S
C1938 C1922 1.368 . S
C1938 C1934 1.368 . S
C1938 C1937 1.523 . S
H1939 C1914 0.950 . S
H1940 C1916 0.950 . S
H1941 C1917 0.949 . S
H1942 C1919 0.950 . S
H1943 C1921 0.950 . S
C1944 C1945 1.349 . S
C1944 C1946 1.327 . S
C1944 H1969 0.950 . S
C1945 C1944 1.349 . S
C1945 C1961 1.349 . S
C1946 C1944 1.327 . S
C1946 C1965 1.429 . S
C1946 H1970 0.950 . S
C1947 C1964 1.574 . S
C1947 C1966 1.368 . S
C1947 H1971 0.949 . S
H1948 C1952 0.949 . S
C1949 C1950 1.349 . S
C1949 C1951 1.327 . S
C1949 H1972 0.950 . S
C1950 C1949 1.349 . S
C1950 C1962 1.349 . S
C1951 C1949 1.327 . S
C1951 C1967 1.429 . S
C1951 H1973 0.950 . S
C1952 H1948 0.949 . S
C1952 C1960 1.574 . S
C1952 C1968 1.368 . S
H1953 C1961 0.950 . S
H1954 C1959 0.950 . S
H1955 C1960 0.949 . S
H1956 C1962 0.950 . S
H1957 C1963 0.950 . S
H1958 C1964 0.949 . S
C1959 H1954 0.950 . S
C1959 C1961 1.327 . S
C1959 C1965 1.429 . S
C1960 C1952 1.574 . S
C1960 H1955 0.949 . S
C1960 C1966 1.368 . S
C1961 C1945 1.349 . S
C1961 H1953 0.950 . S
C1961 C1959 1.327 . S
C1962 C1950 1.349 . S
C1962 H1956 0.950 . S
C1962 C1963 1.327 . S
C1963 H1957 0.950 . S
C1963 C1962 1.327 . S
C1963 C1967 1.429 . S
C1964 C1947 1.574 . S
C1964 H1958 0.949 . S
C1964 C1968 1.368 . S
C1965 C1946 1.429 . S
C1965 C1959 1.429 . S
C1965 C1966 1.523 . S
C1966 C1947 1.368 . S
C1966 C1960 1.368 . S
C1966 C1965 1.523 . S
C1967 C1951 1.429 . S
C1967 C1963 1.429 . S
C1967 C1968 1.523 . S
C1968 C1952 1.368 . S
C1968 C1964 1.368 . S
C1968 C1967 1.523 . S
H1969 C1944 0.950 . S
H1970 C1946 0.950 . S
H1971 C1947 0.949 . S
H1972 C1949 0.950 . S
H1973 C1951 0.950 . S
C1974 C1975 1.349 . S
C1974 C1976 1.327 . S
C1974 H1999 0.950 . S
C1975 C1974 1.349 . S
C1975 C1991 1.349 . S
C1976 C1974 1.327 . S
C1976 C1995 1.429 . S
C1976 H2000 0.950 . S
C1977 C1994 1.574 . S
C1977 C1996 1.368 . S
C1977 H2001 0.949 . S
H1978 C1982 0.949 . S
C1979 C1980 1.349 . S
C1979 C1981 1.327 . S
C1979 H2002 0.950 . S
C1980 C1979 1.349 . S
C1980 C1992 1.349 . S
C1981 C1979 1.327 . S
C1981 C1997 1.429 . S
C1981 H2003 0.950 . S
C1982 H1978 0.949 . S
C1982 C1990 1.574 . S
C1982 C1998 1.368 . S
H1983 C1991 0.950 . S
H1984 C1989 0.950 . S
H1985 C1990 0.949 . S
H1986 C1992 0.950 . S
H1987 C1993 0.950 . S
H1988 C1994 0.949 . S
C1989 H1984 0.950 . S
C1989 C1991 1.327 . S
C1989 C1995 1.429 . S
C1990 C1982 1.574 . S
C1990 H1985 0.949 . S
C1990 C1996 1.368 . S
C1991 C1975 1.349 . S
C1991 H1983 0.950 . S
C1991 C1989 1.327 . S
C1992 C1980 1.349 . S
C1992 H1986 0.950 . S
C1992 C1993 1.327 . S
C1993 H1987 0.950 . S
C1993 C1992 1.327 . S
C1993 C1997 1.429 . S
C1994 C1977 1.574 . S
C1994 H1988 0.949 . S
C1994 C1998 1.368 . S
C1995 C1976 1.429 . S
C1995 C1989 1.429 . S
C1995 C1996 1.523 . S
C1996 C1977 1.368 . S
C1996 C1990 1.368 . S
C1996 C1995 1.523 . S
C1997 C1981 1.429 . S
C1997 C1993 1.429 . S
C1997 C1998 1.523 . S
C1998 C1982 1.368 . S
C1998 C1994 1.368 . S
C1998 C1997 1.523 . S
H1999 C1974 0.950 . S
H2000 C1976 0.950 . S
H2001 C1977 0.949 . S
H2002 C1979 0.950 . S
H2003 C1981 0.950 . S
C2004 C2005 1.349 . S
C2004 C2006 1.327 . S
C2004 H2029 0.950 . S
C2005 C2004 1.349 . S
C2005 C2021 1.349 . S
C2006 C2004 1.327 . S
C2006 C2025 1.429 . S
C2006 H2030 0.950 . S
C2007 C2024 1.574 . S
C2007 C2026 1.368 . S
C2007 H2031 0.949 . S
H2008 C2012 0.949 . S
C2009 C2010 1.349 . S
C2009 C2011 1.327 . S
C2009 H2032 0.950 . S
C2010 C2009 1.349 . S
C2010 C2022 1.349 . S
C2011 C2009 1.327 . S
C2011 C2027 1.429 . S
C2011 H2033 0.950 . S
C2012 H2008 0.949 . S
C2012 C2020 1.574 . S
C2012 C2028 1.368 . S
H2013 C2021 0.950 . S
H2014 C2019 0.950 . S
H2015 C2020 0.949 . S
H2016 C2022 0.950 . S
H2017 C2023 0.950 . S
H2018 C2024 0.949 . S
C2019 H2014 0.950 . S
C2019 C2021 1.327 . S
C2019 C2025 1.429 . S
C2020 C2012 1.574 . S
C2020 H2015 0.949 . S
C2020 C2026 1.368 . S
C2021 C2005 1.349 . S
C2021 H2013 0.950 . S
C2021 C2019 1.327 . S
C2022 C2010 1.349 . S
C2022 H2016 0.950 . S
C2022 C2023 1.327 . S
C2023 H2017 0.950 . S
C2023 C2022 1.327 . S
C2023 C2027 1.429 . S
C2024 C2007 1.574 . S
C2024 H2018 0.949 . S
C2024 C2028 1.368 . S
C2025 C2006 1.429 . S
C2025 C2019 1.429 . S
C2025 C2026 1.523 . S
C2026 C2007 1.368 . S
C2026 C2020 1.368 . S
C2026 C2025 1.523 . S
C2027 C2011 1.429 . S
C2027 C2023 1.429 . S
C2027 C2028 1.523 . S
C2028 C2012 1.368 . S
C2028 C2024 1.368 . S
C2028 C2027 1.523 . S
H2029 C2004 0.950 . S
H2030 C2006 0.950 . S
H2031 C2007 0.949 . S
H2032 C2009 0.950 . S
H2033 C2011 0.950 . S
C2034 C2035 1.349 . S
C2034 C2036 1.327 . S
C2034 H2059 0.950 . S
C2035 C2034 1.349 . S
C2035 C2051 1.349 . S
C2036 C2034 1.327 . S
C2036 C2055 1.429 . S
C2036 H2060 0.950 . S
C2037 C2054 1.574 . S
C2037 C2056 1.368 . S
C2037 H2061 0.949 . S
H2038 C2042 0.949 . S
C2039 C2040 1.349 . S
C2039 C2041 1.327 . S
C2039 H2062 0.950 . S
C2040 C2039 1.349 . S
C2040 C2052 1.349 . S
C2041 C2039 1.327 . S
C2041 C2057 1.429 . S
C2041 H2063 0.950 . S
C2042 H2038 0.949 . S
C2042 C2050 1.574 . S
C2042 C2058 1.368 . S
H2043 C2051 0.950 . S
H2044 C2049 0.950 . S
H2045 C2050 0.949 . S
H2046 C2052 0.950 . S
H2047 C2053 0.950 . S
H2048 C2054 0.949 . S
C2049 H2044 0.950 . S
C2049 C2051 1.327 . S
C2049 C2055 1.429 . S
C2050 C2042 1.574 . S
C2050 H2045 0.949 . S
C2050 C2056 1.368 . S
C2051 C2035 1.349 . S
C2051 H2043 0.950 . S
C2051 C2049 1.327 . S
C2052 C2040 1.349 . S
C2052 H2046 0.950 . S
C2052 C2053 1.327 . S
C2053 H2047 0.950 . S
C2053 C2052 1.327 . S
C2053 C2057 1.429 . S
C2054 C2037 1.574 . S
C2054 H2048 0.949 . S
C2054 C2058 1.368 . S
C2055 C2036 1.429 . S
C2055 C2049 1.429 . S
C2055 C2056 1.523 . S
C2056 C2037 1.368 . S
C2056 C2050 1.368 . S
C2056 C2055 1.523 . S
C2057 C2041 1.429 . S
C2057 C2053 1.429 . S
C2057 C2058 1.523 . S
C2058 C2042 1.368 . S
C2058 C2054 1.368 . S
C2058 C2057 1.523 . S
H2059 C2034 0.950 . S
H2060 C2036 0.950 . S
H2061 C2037 0.949 . S
H2062 C2039 0.950 . S
H2063 C2041 0.950 . S
C2064 C2065 1.349 . S
C2064 C2066 1.327 . S
C2064 H2089 0.950 . S
C2065 C2064 1.349 . S
C2065 C2081 1.349 . S
C2066 C2064 1.327 . S
C2066 C2085 1.429 . S
C2066 H2090 0.950 . S
C2067 C2084 1.574 . S
C2067 C2086 1.368 . S
C2067 H2091 0.949 . S
H2068 C2072 0.949 . S
C2069 C2070 1.349 . S
C2069 C2071 1.327 . S
C2069 H2092 0.950 . S
C2070 C2069 1.349 . S
C2070 C2082 1.349 . S
C2071 C2069 1.327 . S
C2071 C2087 1.429 . S
C2071 H2093 0.950 . S
C2072 H2068 0.949 . S
C2072 C2080 1.574 . S
C2072 C2088 1.368 . S
H2073 C2081 0.950 . S
H2074 C2079 0.950 . S
H2075 C2080 0.949 . S
H2076 C2082 0.950 . S
H2077 C2083 0.950 . S
H2078 C2084 0.949 . S
C2079 H2074 0.950 . S
C2079 C2081 1.327 . S
C2079 C2085 1.429 . S
C2080 C2072 1.574 . S
C2080 H2075 0.949 . S
C2080 C2086 1.368 . S
C2081 C2065 1.349 . S
C2081 H2073 0.950 . S
C2081 C2079 1.327 . S
C2082 C2070 1.349 . S
C2082 H2076 0.950 . S
C2082 C2083 1.327 . S
C2083 H2077 0.950 . S
C2083 C2082 1.327 . S
C2083 C2087 1.429 . S
C2084 C2067 1.574 . S
C2084 H2078 0.949 . S
C2084 C2088 1.368 . S
C2085 C2066 1.429 . S
C2085 C2079 1.429 . S
C2085 C2086 1.523 . S
C2086 C2067 1.368 . S
C2086 C2080 1.368 . S
C2086 C2085 1.523 . S
C2087 C2071 1.429 . S
C2087 C2083 1.429 . S
C2087 C2088 1.523 . S
C2088 C2072 1.368 . S
C2088 C2084 1.368 . S
C2088 C2087 1.523 . S
H2089 C2064 0.950 . S
H2090 C2066 0.950 . S
H2091 C2067 0.949 . S
H2092 C2069 0.950 . S
H2093 C2071 0.950 . S
C2094 C2095 1.349 . S
C2094 C2096 1.327 . S
C2094 H2119 0.950 . S
C2095 C2094 1.349 . S
C2095 C2111 1.349 . S
C2096 C2094 1.327 . S
C2096 C2115 1.429 . S
C2096 H2120 0.950 . S
C2097 C2114 1.574 . S
C2097 C2116 1.368 . S
C2097 H2121 0.949 . S
H2098 C2102 0.949 . S
C2099 C2100 1.349 . S
C2099 C2101 1.327 . S
C2099 H2122 0.950 . S
C2100 C2099 1.349 . S
C2100 C2112 1.349 . S
C2101 C2099 1.327 . S
C2101 C2117 1.429 . S
C2101 H2123 0.950 . S
C2102 H2098 0.949 . S
C2102 C2110 1.574 . S
C2102 C2118 1.368 . S
H2103 C2111 0.950 . S
H2104 C2109 0.950 . S
H2105 C2110 0.949 . S
H2106 C2112 0.950 . S
H2107 C2113 0.950 . S
H2108 C2114 0.949 . S
C2109 H2104 0.950 . S
C2109 C2111 1.327 . S
C2109 C2115 1.429 . S
C2110 C2102 1.574 . S
C2110 H2105 0.949 . S
C2110 C2116 1.368 . S
C2111 C2095 1.349 . S
C2111 H2103 0.950 . S
C2111 C2109 1.327 . S
C2112 C2100 1.349 . S
C2112 H2106 0.950 . S
C2112 C2113 1.327 . S
C2113 H2107 0.950 . S
C2113 C2112 1.327 . S
C2113 C2117 1.429 . S
C2114 C2097 1.574 . S
C2114 H2108 0.949 . S
C2114 C2118 1.368 . S
C2115 C2096 1.429 . S
C2115 C2109 1.429 . S
C2115 C2116 1.523 . S
C2116 C2097 1.368 . S
C2116 C2110 1.368 . S
C2116 C2115 1.523 . S
C2117 C2101 1.429 . S
C2117 C2113 1.429 . S
C2117 C2118 1.523 . S
C2118 C2102 1.368 . S
C2118 C2114 1.368 . S
C2118 C2117 1.523 . S
H2119 C2094 0.950 . S
H2120 C2096 0.950 . S
H2121 C2097 0.949 . S
H2122 C2099 0.950 . S
H2123 C2101 0.950 . S
C2124 C2125 1.349 . S
C2124 C2126 1.327 . S
C2124 H2149 0.950 . S
C2125 C2124 1.349 . S
C2125 C2141 1.349 . S
C2126 C2124 1.327 . S
C2126 C2145 1.429 . S
C2126 H2150 0.950 . S
C2127 C2144 1.574 . S
C2127 C2146 1.368 . S
C2127 H2151 0.949 . S
H2128 C2132 0.949 . S
C2129 C2130 1.349 . S
C2129 C2131 1.327 . S
C2129 H2152 0.950 . S
C2130 C2129 1.349 . S
C2130 C2142 1.349 . S
C2131 C2129 1.327 . S
C2131 C2147 1.429 . S
C2131 H2153 0.950 . S
C2132 H2128 0.949 . S
C2132 C2140 1.574 . S
C2132 C2148 1.368 . S
H2133 C2141 0.950 . S
H2134 C2139 0.950 . S
H2135 C2140 0.949 . S
H2136 C2142 0.950 . S
H2137 C2143 0.950 . S
H2138 C2144 0.949 . S
C2139 H2134 0.950 . S
C2139 C2141 1.327 . S
C2139 C2145 1.429 . S
C2140 C2132 1.574 . S
C2140 H2135 0.949 . S
C2140 C2146 1.368 . S
C2141 C2125 1.349 . S
C2141 H2133 0.950 . S
C2141 C2139 1.327 . S
C2142 C2130 1.349 . S
C2142 H2136 0.950 . S
C2142 C2143 1.327 . S
C2143 H2137 0.950 . S
C2143 C2142 1.327 . S
C2143 C2147 1.429 . S
C2144 C2127 1.574 . S
C2144 H2138 0.949 . S
C2144 C2148 1.368 . S
C2145 C2126 1.429 . S
C2145 C2139 1.429 . S
C2145 C2146 1.523 . S
C2146 C2127 1.368 . S
C2146 C2140 1.368 . S
C2146 C2145 1.523 . S
C2147 C2131 1.429 . S
C2147 C2143 1.429 . S
C2147 C2148 1.523 . S
C2148 C2132 1.368 . S
C2148 C2144 1.368 . S
C2148 C2147 1.523 . S
H2149 C2124 0.950 . S
H2150 C2126 0.950 . S
H2151 C2127 0.949 . S
H2152 C2129 0.950 . S
H2153 C2131 0.950 . S
C2154 C2155 1.349 . S
C2154 C2156 1.327 . S
C2154 H2179 0.950 . S
C2155 C2154 1.349 . S
C2155 C2171 1.349 . S
C2156 C2154 1.327 . S
C2156 C2175 1.429 . S
C2156 H2180 0.950 . S
C2157 C2174 1.574 . S
C2157 C2176 1.368 . S
C2157 H2181 0.949 . S
H2158 C2162 0.949 . S
C2159 C2160 1.349 . S
C2159 C2161 1.327 . S
C2159 H2182 0.950 . S
C2160 C2159 1.349 . S
C2160 C2172 1.349 . S
C2161 C2159 1.327 . S
C2161 C2177 1.429 . S
C2161 H2183 0.950 . S
C2162 H2158 0.949 . S
C2162 C2170 1.574 . S
C2162 C2178 1.368 . S
H2163 C2171 0.950 . S
H2164 C2169 0.950 . S
H2165 C2170 0.949 . S
H2166 C2172 0.950 . S
H2167 C2173 0.950 . S
H2168 C2174 0.949 . S
C2169 H2164 0.950 . S
C2169 C2171 1.327 . S
C2169 C2175 1.429 . S
C2170 C2162 1.574 . S
C2170 H2165 0.949 . S
C2170 C2176 1.368 . S
C2171 C2155 1.349 . S
C2171 H2163 0.950 . S
C2171 C2169 1.327 . S
C2172 C2160 1.349 . S
C2172 H2166 0.950 . S
C2172 C2173 1.327 . S
C2173 H2167 0.950 . S
C2173 C2172 1.327 . S
C2173 C2177 1.429 . S
C2174 C2157 1.574 . S
C2174 H2168 0.949 . S
C2174 C2178 1.368 . S
C2175 C2156 1.429 . S
C2175 C2169 1.429 . S
C2175 C2176 1.523 . S
C2176 C2157 1.368 . S
C2176 C2170 1.368 . S
C2176 C2175 1.523 . S
C2177 C2161 1.429 . S
C2177 C2173 1.429 . S
C2177 C2178 1.523 . S
C2178 C2162 1.368 . S
C2178 C2174 1.368 . S
C2178 C2177 1.523 . S
H2179 C2154 0.950 . S
H2180 C2156 0.950 . S
H2181 C2157 0.949 . S
H2182 C2159 0.950 . S
H2183 C2161 0.950 . S
C2184 C2185 1.349 . S
C2184 C2186 1.327 . S
C2184 H2209 0.950 . S
C2185 C2184 1.349 . S
C2185 C2201 1.349 . S
C2186 C2184 1.327 . S
C2186 C2205 1.429 . S
C2186 H2210 0.950 . S
C2187 C2204 1.574 . S
C2187 C2206 1.368 . S
C2187 H2211 0.949 . S
H2188 C2192 0.949 . S
C2189 C2190 1.349 . S
C2189 C2191 1.327 . S
C2189 H2212 0.950 . S
C2190 C2189 1.349 . S
C2190 C2202 1.349 . S
C2191 C2189 1.327 . S
C2191 C2207 1.429 . S
C2191 H2213 0.950 . S
C2192 H2188 0.949 . S
C2192 C2200 1.574 . S
C2192 C2208 1.368 . S
H2193 C2201 0.950 . S
H2194 C2199 0.950 . S
H2195 C2200 0.949 . S
H2196 C2202 0.950 . S
H2197 C2203 0.950 . S
H2198 C2204 0.949 . S
C2199 H2194 0.950 . S
C2199 C2201 1.327 . S
C2199 C2205 1.429 . S
C2200 C2192 1.574 . S
C2200 H2195 0.949 . S
C2200 C2206 1.368 . S
C2201 C2185 1.349 . S
C2201 H2193 0.950 . S
C2201 C2199 1.327 . S
C2202 C2190 1.349 . S
C2202 H2196 0.950 . S
C2202 C2203 1.327 . S
C2203 H2197 0.950 . S
C2203 C2202 1.327 . S
C2203 C2207 1.429 . S
C2204 C2187 1.574 . S
C2204 H2198 0.949 . S
C2204 C2208 1.368 . S
C2205 C2186 1.429 . S
C2205 C2199 1.429 . S
C2205 C2206 1.523 . S
C2206 C2187 1.368 . S
C2206 C2200 1.368 . S
C2206 C2205 1.523 . S
C2207 C2191 1.429 . S
C2207 C2203 1.429 . S
C2207 C2208 1.523 . S
C2208 C2192 1.368 . S
C2208 C2204 1.368 . S
C2208 C2207 1.523 . S
H2209 C2184 0.950 . S
H2210 C2186 0.950 . S
H2211 C2187 0.949 . S
H2212 C2189 0.950 . S
H2213 C2191 0.950 . S
C2214 C2215 1.349 . S
C2214 C2216 1.327 . S
C2214 H2239 0.950 . S
C2215 C2214 1.349 . S
C2215 C2231 1.349 . S
C2216 C2214 1.327 . S
C2216 C2235 1.429 . S
C2216 H2240 0.950 . S
C2217 C2234 1.574 . S
C2217 C2236 1.368 . S
C2217 H2241 0.949 . S
H2218 C2222 0.949 . S
C2219 C2220 1.349 . S
C2219 C2221 1.327 . S
C2219 H2242 0.950 . S
C2220 C2219 1.349 . S
C2220 C2232 1.349 . S
C2221 C2219 1.327 . S
C2221 C2237 1.429 . S
C2221 H2243 0.950 . S
C2222 H2218 0.949 . S
C2222 C2230 1.574 . S
C2222 C2238 1.368 . S
H2223 C2231 0.950 . S
H2224 C2229 0.950 . S
H2225 C2230 0.949 . S
H2226 C2232 0.950 . S
H2227 C2233 0.950 . S
H2228 C2234 0.949 . S
C2229 H2224 0.950 . S
C2229 C2231 1.327 . S
C2229 C2235 1.429 . S
C2230 C2222 1.574 . S
C2230 H2225 0.949 . S
C2230 C2236 1.368 . S
C2231 C2215 1.349 . S
C2231 H2223 0.950 . S
C2231 C2229 1.327 . S
C2232 C2220 1.349 . S
C2232 H2226 0.950 . S
C2232 C2233 1.327 . S
C2233 H2227 0.950 . S
C2233 C2232 1.327 . S
C2233 C2237 1.429 . S
C2234 C2217 1.574 . S
C2234 H2228 0.949 . S
C2234 C2238 1.368 . S
C2235 C2216 1.429 . S
C2235 C2229 1.429 . S
C2235 C2236 1.523 . S
C2236 C2217 1.368 . S
C2236 C2230 1.368 . S
C2236 C2235 1.523 . S
C2237 C2221 1.429 . S
C2237 C2233 1.429 . S
C2237 C2238 1.523 . S
C2238 C2222 1.368 . S
C2238 C2234 1.368 . S
C2238 C2237 1.523 . S
H2239 C2214 0.950 . S
H2240 C2216 0.950 . S
H2241 C2217 0.949 . S
H2242 C2219 0.950 . S
H2243 C2221 0.950 . S
C2244 C2245 1.349 . S
C2244 C2246 1.327 . S
C2244 H2269 0.950 . S
C2245 C2244 1.349 . S
C2245 C2261 1.349 . S
C2246 C2244 1.327 . S
C2246 C2265 1.429 . S
C2246 H2270 0.950 . S
C2247 C2264 1.574 . S
C2247 C2266 1.368 . S
C2247 H2271 0.949 . S
H2248 C2252 0.949 . S
C2249 C2250 1.349 . S
C2249 C2251 1.327 . S
C2249 H2272 0.950 . S
C2250 C2249 1.349 . S
C2250 C2262 1.349 . S
C2251 C2249 1.327 . S
C2251 C2267 1.429 . S
C2251 H2273 0.950 . S
C2252 H2248 0.949 . S
C2252 C2260 1.574 . S
C2252 C2268 1.368 . S
H2253 C2261 0.950 . S
H2254 C2259 0.950 . S
H2255 C2260 0.949 . S
H2256 C2262 0.950 . S
H2257 C2263 0.950 . S
H2258 C2264 0.949 . S
C2259 H2254 0.950 . S
C2259 C2261 1.327 . S
C2259 C2265 1.429 . S
C2260 C2252 1.574 . S
C2260 H2255 0.949 . S
C2260 C2266 1.368 . S
C2261 C2245 1.349 . S
C2261 H2253 0.950 . S
C2261 C2259 1.327 . S
C2262 C2250 1.349 . S
C2262 H2256 0.950 . S
C2262 C2263 1.327 . S
C2263 H2257 0.950 . S
C2263 C2262 1.327 . S
C2263 C2267 1.429 . S
C2264 C2247 1.574 . S
C2264 H2258 0.949 . S
C2264 C2268 1.368 . S
C2265 C2246 1.429 . S
C2265 C2259 1.429 . S
C2265 C2266 1.523 . S
C2266 C2247 1.368 . S
C2266 C2260 1.368 . S
C2266 C2265 1.523 . S
C2267 C2251 1.429 . S
C2267 C2263 1.429 . S
C2267 C2268 1.523 . S
C2268 C2252 1.368 . S
C2268 C2264 1.368 . S
C2268 C2267 1.523 . S
H2269 C2244 0.950 . S
H2270 C2246 0.950 . S
H2271 C2247 0.949 . S
H2272 C2249 0.950 . S
H2273 C2251 0.950 . S
C2274 C2275 1.349 . S
C2274 C2276 1.327 . S
C2274 H2299 0.950 . S
C2275 C2274 1.349 . S
C2275 C2291 1.349 . S
C2276 C2274 1.327 . S
C2276 C2295 1.429 . S
C2276 H2300 0.950 . S
C2277 C2294 1.574 . S
C2277 C2296 1.368 . S
C2277 H2301 0.949 . S
H2278 C2282 0.949 . S
C2279 C2280 1.349 . S
C2279 C2281 1.327 . S
C2279 H2302 0.950 . S
C2280 C2279 1.349 . S
C2280 C2292 1.349 . S
C2281 C2279 1.327 . S
C2281 C2297 1.429 . S
C2281 H2303 0.950 . S
C2282 H2278 0.949 . S
C2282 C2290 1.574 . S
C2282 C2298 1.368 . S
H2283 C2291 0.950 . S
H2284 C2289 0.950 . S
H2285 C2290 0.949 . S
H2286 C2292 0.950 . S
H2287 C2293 0.950 . S
H2288 C2294 0.949 . S
C2289 H2284 0.950 . S
C2289 C2291 1.327 . S
C2289 C2295 1.429 . S
C2290 C2282 1.574 . S
C2290 H2285 0.949 . S
C2290 C2296 1.368 . S
C2291 C2275 1.349 . S
C2291 H2283 0.950 . S
C2291 C2289 1.327 . S
C2292 C2280 1.349 . S
C2292 H2286 0.950 . S
C2292 C2293 1.327 . S
C2293 H2287 0.950 . S
C2293 C2292 1.327 . S
C2293 C2297 1.429 . S
C2294 C2277 1.574 . S
C2294 H2288 0.949 . S
C2294 C2298 1.368 . S
C2295 C2276 1.429 . S
C2295 C2289 1.429 . S
C2295 C2296 1.523 . S
C2296 C2277 1.368 . S
C2296 C2290 1.368 . S
C2296 C2295 1.523 . S
C2297 C2281 1.429 . S
C2297 C2293 1.429 . S
C2297 C2298 1.523 . S
C2298 C2282 1.368 . S
C2298 C2294 1.368 . S
C2298 C2297 1.523 . S
H2299 C2274 0.950 . S
H2300 C2276 0.950 . S
H2301 C2277 0.949 . S
H2302 C2279 0.950 . S
H2303 C2281 0.950 . S
C2304 C2305 1.349 . S
C2304 C2306 1.327 . S
C2304 H2329 0.950 . S
C2305 C2304 1.349 . S
C2305 C2321 1.349 . S
C2306 C2304 1.327 . S
C2306 C2325 1.429 . S
C2306 H2330 0.950 . S
C2307 C2324 1.574 . S
C2307 C2326 1.368 . S
C2307 H2331 0.949 . S
H2308 C2312 0.949 . S
C2309 C2310 1.349 . S
C2309 C2311 1.327 . S
C2309 H2332 0.950 . S
C2310 C2309 1.349 . S
C2310 C2322 1.349 . S
C2311 C2309 1.327 . S
C2311 C2327 1.429 . S
C2311 H2333 0.950 . S
C2312 H2308 0.949 . S
C2312 C2320 1.574 . S
C2312 C2328 1.368 . S
H2313 C2321 0.950 . S
H2314 C2319 0.950 . S
H2315 C2320 0.949 . S
H2316 C2322 0.950 . S
H2317 C2323 0.950 . S
H2318 C2324 0.949 . S
C2319 H2314 0.950 . S
C2319 C2321 1.327 . S
C2319 C2325 1.429 . S
C2320 C2312 1.574 . S
C2320 H2315 0.949 . S
C2320 C2326 1.368 . S
C2321 C2305 1.349 . S
C2321 H2313 0.950 . S
C2321 C2319 1.327 . S
C2322 C2310 1.349 . S
C2322 H2316 0.950 . S
C2322 C2323 1.327 . S
C2323 H2317 0.950 . S
C2323 C2322 1.327 . S
C2323 C2327 1.429 . S
C2324 C2307 1.574 . S
C2324 H2318 0.949 . S
C2324 C2328 1.368 . S
C2325 C2306 1.429 . S
C2325 C2319 1.429 . S
C2325 C2326 1.523 . S
C2326 C2307 1.368 . S
C2326 C2320 1.368 . S
C2326 C2325 1.523 . S
C2327 C2311 1.429 . S
C2327 C2323 1.429 . S
C2327 C2328 1.523 . S
C2328 C2312 1.368 . S
C2328 C2324 1.368 . S
C2328 C2327 1.523 . S
H2329 C2304 0.950 . S
H2330 C2306 0.950 . S
H2331 C2307 0.949 . S
H2332 C2309 0.950 . S
H2333 C2311 0.950 . S
C2334 C2335 1.349 . S
C2334 C2336 1.327 . S
C2334 H2359 0.950 . S
C2335 C2334 1.349 . S
C2335 C2351 1.349 . S
C2336 C2334 1.327 . S
C2336 C2355 1.429 . S
C2336 H2360 0.950 . S
C2337 C2354 1.574 . S
C2337 C2356 1.368 . S
C2337 H2361 0.949 . S
H2338 C2342 0.949 . S
C2339 C2340 1.349 . S
C2339 C2341 1.327 . S
C2339 H2362 0.950 . S
C2340 C2339 1.349 . S
C2340 C2352 1.349 . S
C2341 C2339 1.327 . S
C2341 C2357 1.429 . S
C2341 H2363 0.950 . S
C2342 H2338 0.949 . S
C2342 C2350 1.574 . S
C2342 C2358 1.368 . S
H2343 C2351 0.950 . S
H2344 C2349 0.950 . S
H2345 C2350 0.949 . S
H2346 C2352 0.950 . S
H2347 C2353 0.950 . S
H2348 C2354 0.949 . S
C2349 H2344 0.950 . S
C2349 C2351 1.327 . S
C2349 C2355 1.429 . S
C2350 C2342 1.574 . S
C2350 H2345 0.949 . S
C2350 C2356 1.368 . S
C2351 C2335 1.349 . S
C2351 H2343 0.950 . S
C2351 C2349 1.327 . S
C2352 C2340 1.349 . S
C2352 H2346 0.950 . S
C2352 C2353 1.327 . S
C2353 H2347 0.950 . S
C2353 C2352 1.327 . S
C2353 C2357 1.429 . S
C2354 C2337 1.574 . S
C2354 H2348 0.949 . S
C2354 C2358 1.368 . S
C2355 C2336 1.429 . S
C2355 C2349 1.429 . S
C2355 C2356 1.523 . S
C2356 C2337 1.368 . S
C2356 C2350 1.368 . S
C2356 C2355 1.523 . S
C2357 C2341 1.429 . S
C2357 C2353 1.429 . S
C2357 C2358 1.523 . S
C2358 C2342 1.368 . S
C2358 C2354 1.368 . S
C2358 C2357 1.523 . S
H2359 C2334 0.950 . S
H2360 C2336 0.950 . S
H2361 C2337 0.949 . S
H2362 C2339 0.950 . S
H2363 C2341 0.950 . S
C2364 C2365 1.349 . S
C2364 C2366 1.327 . S
C2364 H2389 0.950 . S
C2365 C2364 1.349 . S
C2365 C2381 1.349 . S
C2366 C2364 1.327 . S
C2366 C2385 1.429 . S
C2366 H2390 0.950 . S
C2367 C2384 1.574 . S
C2367 C2386 1.368 . S
C2367 H2391 0.949 . S
H2368 C2372 0.949 . S
C2369 C2370 1.349 . S
C2369 C2371 1.327 . S
C2369 H2392 0.950 . S
C2370 C2369 1.349 . S
C2370 C2382 1.349 . S
C2371 C2369 1.327 . S
C2371 C2387 1.429 . S
C2371 H2393 0.950 . S
C2372 H2368 0.949 . S
C2372 C2380 1.574 . S
C2372 C2388 1.368 . S
H2373 C2381 0.950 . S
H2374 C2379 0.950 . S
H2375 C2380 0.949 . S
H2376 C2382 0.950 . S
H2377 C2383 0.950 . S
H2378 C2384 0.949 . S
C2379 H2374 0.950 . S
C2379 C2381 1.327 . S
C2379 C2385 1.429 . S
C2380 C2372 1.574 . S
C2380 H2375 0.949 . S
C2380 C2386 1.368 . S
C2381 C2365 1.349 . S
C2381 H2373 0.950 . S
C2381 C2379 1.327 . S
C2382 C2370 1.349 . S
C2382 H2376 0.950 . S
C2382 C2383 1.327 . S
C2383 H2377 0.950 . S
C2383 C2382 1.327 . S
C2383 C2387 1.429 . S
C2384 C2367 1.574 . S
C2384 H2378 0.949 . S
C2384 C2388 1.368 . S
C2385 C2366 1.429 . S
C2385 C2379 1.429 . S
C2385 C2386 1.523 . S
C2386 C2367 1.368 . S
C2386 C2380 1.368 . S
C2386 C2385 1.523 . S
C2387 C2371 1.429 . S
C2387 C2383 1.429 . S
C2387 C2388 1.523 . S
C2388 C2372 1.368 . S
C2388 C2384 1.368 . S
C2388 C2387 1.523 . S
H2389 C2364 0.950 . S
H2390 C2366 0.950 . S
H2391 C2367 0.949 . S
H2392 C2369 0.950 . S
H2393 C2371 0.950 . S
C2394 C2395 1.349 . S
C2394 C2396 1.327 . S
C2394 H2419 0.950 . S
C2395 C2394 1.349 . S
C2395 C2411 1.349 . S
C2396 C2394 1.327 . S
C2396 C2415 1.429 . S
C2396 H2420 0.950 . S
C2397 C2414 1.574 . S
C2397 C2416 1.368 . S
C2397 H2421 0.949 . S
H2398 C2402 0.949 . S
C2399 C2400 1.349 . S
C2399 C2401 1.327 . S
C2399 H2422 0.950 . S
C2400 C2399 1.349 . S
C2400 C2412 1.349 . S
C2401 C2399 1.327 . S
C2401 C2417 1.429 . S
C2401 H2423 0.950 . S
C2402 H2398 0.949 . S
C2402 C2410 1.574 . S
C2402 C2418 1.368 . S
H2403 C2411 0.950 . S
H2404 C2409 0.950 . S
H2405 C2410 0.949 . S
H2406 C2412 0.950 . S
H2407 C2413 0.950 . S
H2408 C2414 0.949 . S
C2409 H2404 0.950 . S
C2409 C2411 1.327 . S
C2409 C2415 1.429 . S
C2410 C2402 1.574 . S
C2410 H2405 0.949 . S
C2410 C2416 1.368 . S
C2411 C2395 1.349 . S
C2411 H2403 0.950 . S
C2411 C2409 1.327 . S
C2412 C2400 1.349 . S
C2412 H2406 0.950 . S
C2412 C2413 1.327 . S
C2413 H2407 0.950 . S
C2413 C2412 1.327 . S
C2413 C2417 1.429 . S
C2414 C2397 1.574 . S
C2414 H2408 0.949 . S
C2414 C2418 1.368 . S
C2415 C2396 1.429 . S
C2415 C2409 1.429 . S
C2415 C2416 1.523 . S
C2416 C2397 1.368 . S
C2416 C2410 1.368 . S
C2416 C2415 1.523 . S
C2417 C2401 1.429 . S
C2417 C2413 1.429 . S
C2417 C2418 1.523 . S
C2418 C2402 1.368 . S
C2418 C2414 1.368 . S
C2418 C2417 1.523 . S
H2419 C2394 0.950 . S
H2420 C2396 0.950 . S
H2421 C2397 0.949 . S
H2422 C2399 0.950 . S
H2423 C2401 0.950 . S
C2424 C2425 1.349 . S
C2424 C2426 1.327 . S
C2424 H2449 0.950 . S
C2425 C2424 1.349 . S
C2425 C2441 1.349 . S
C2426 C2424 1.327 . S
C2426 C2445 1.429 . S
C2426 H2450 0.950 . S
C2427 C2444 1.574 . S
C2427 C2446 1.368 . S
C2427 H2451 0.949 . S
H2428 C2432 0.949 . S
C2429 C2430 1.349 . S
C2429 C2431 1.327 . S
C2429 H2452 0.950 . S
C2430 C2429 1.349 . S
C2430 C2442 1.349 . S
C2431 C2429 1.327 . S
C2431 C2447 1.429 . S
C2431 H2453 0.950 . S
C2432 H2428 0.949 . S
C2432 C2440 1.574 . S
C2432 C2448 1.368 . S
H2433 C2441 0.950 . S
H2434 C2439 0.950 . S
H2435 C2440 0.949 . S
H2436 C2442 0.950 . S
H2437 C2443 0.950 . S
H2438 C2444 0.949 . S
C2439 H2434 0.950 . S
C2439 C2441 1.327 . S
C2439 C2445 1.429 . S
C2440 C2432 1.574 . S
C2440 H2435 0.949 . S
C2440 C2446 1.368 . S
C2441 C2425 1.349 . S
C2441 H2433 0.950 . S
C2441 C2439 1.327 . S
C2442 C2430 1.349 . S
C2442 H2436 0.950 . S
C2442 C2443 1.327 . S
C2443 H2437 0.950 . S
C2443 C2442 1.327 . S
C2443 C2447 1.429 . S
C2444 C2427 1.574 . S
C2444 H2438 0.949 . S
C2444 C2448 1.368 . S
C2445 C2426 1.429 . S
C2445 C2439 1.429 . S
C2445 C2446 1.523 . S
C2446 C2427 1.368 . S
C2446 C2440 1.368 . S
C2446 C2445 1.523 . S
C2447 C2431 1.429 . S
C2447 C2443 1.429 . S
C2447 C2448 1.523 . S
C2448 C2432 1.368 . S
C2448 C2444 1.368 . S
C2448 C2447 1.523 . S
H2449 C2424 0.950 . S
H2450 C2426 0.950 . S
H2451 C2427 0.949 . S
H2452 C2429 0.950 . S
H2453 C2431 0.950 . S
C2454 C2455 1.349 . S
C2454 C2456 1.327 . S
C2454 H2479 0.950 . S
C2455 C2454 1.349 . S
C2455 C2471 1.349 . S
C2456 C2454 1.327 . S
C2456 C2475 1.429 . S
C2456 H2480 0.950 . S
C2457 C2474 1.574 . S
C2457 C2476 1.368 . S
C2457 H2481 0.949 . S
H2458 C2462 0.949 . S
C2459 C2460 1.349 . S
C2459 C2461 1.327 . S
C2459 H2482 0.950 . S
C2460 C2459 1.349 . S
C2460 C2472 1.349 . S
C2461 C2459 1.327 . S
C2461 C2477 1.429 . S
C2461 H2483 0.950 . S
C2462 H2458 0.949 . S
C2462 C2470 1.574 . S
C2462 C2478 1.368 . S
H2463 C2471 0.950 . S
H2464 C2469 0.950 . S
H2465 C2470 0.949 . S
H2466 C2472 0.950 . S
H2467 C2473 0.950 . S
H2468 C2474 0.949 . S
C2469 H2464 0.950 . S
C2469 C2471 1.327 . S
C2469 C2475 1.429 . S
C2470 C2462 1.574 . S
C2470 H2465 0.949 . S
C2470 C2476 1.368 . S
C2471 C2455 1.349 . S
C2471 H2463 0.950 . S
C2471 C2469 1.327 . S
C2472 C2460 1.349 . S
C2472 H2466 0.950 . S
C2472 C2473 1.327 . S
C2473 H2467 0.950 . S
C2473 C2472 1.327 . S
C2473 C2477 1.429 . S
C2474 C2457 1.574 . S
C2474 H2468 0.949 . S
C2474 C2478 1.368 . S
C2475 C2456 1.429 . S
C2475 C2469 1.429 . S
C2475 C2476 1.523 . S
C2476 C2457 1.368 . S
C2476 C2470 1.368 . S
C2476 C2475 1.523 . S
C2477 C2461 1.429 . S
C2477 C2473 1.429 . S
C2477 C2478 1.523 . S
C2478 C2462 1.368 . S
C2478 C2474 1.368 . S
C2478 C2477 1.523 . S
H2479 C2454 0.950 . S
H2480 C2456 0.950 . S
H2481 C2457 0.949 . S
H2482 C2459 0.950 . S
H2483 C2461 0.950 . S
C2484 C2485 1.349 . S
C2484 C2486 1.327 . S
C2484 H2509 0.950 . S
C2485 C2484 1.349 . S
C2485 C2501 1.349 . S
C2486 C2484 1.327 . S
C2486 C2505 1.429 . S
C2486 H2510 0.950 . S
C2487 C2504 1.574 . S
C2487 C2506 1.368 . S
C2487 H2511 0.949 . S
H2488 C2492 0.949 . S
C2489 C2490 1.349 . S
C2489 C2491 1.327 . S
C2489 H2512 0.950 . S
C2490 C2489 1.349 . S
C2490 C2502 1.349 . S
C2491 C2489 1.327 . S
C2491 C2507 1.429 . S
C2491 H2513 0.950 . S
C2492 H2488 0.949 . S
C2492 C2500 1.574 . S
C2492 C2508 1.368 . S
H2493 C2501 0.950 . S
H2494 C2499 0.950 . S
H2495 C2500 0.949 . S
H2496 C2502 0.950 . S
H2497 C2503 0.950 . S
H2498 C2504 0.949 . S
C2499 H2494 0.950 . S
C2499 C2501 1.327 . S
C2499 C2505 1.429 . S
C2500 C2492 1.574 . S
C2500 H2495 0.949 . S
C2500 C2506 1.368 . S
C2501 C2485 1.349 . S
C2501 H2493 0.950 . S
C2501 C2499 1.327 . S
C2502 C2490 1.349 . S
C2502 H2496 0.950 . S
C2502 C2503 1.327 . S
C2503 H2497 0.950 . S
C2503 C2502 1.327 . S
C2503 C2507 1.429 . S
C2504 C2487 1.574 . S
C2504 H2498 0.949 . S
C2504 C2508 1.368 . S
C2505 C2486 1.429 . S
C2505 C2499 1.429 . S
C2505 C2506 1.523 . S
C2506 C2487 1.368 . S
C2506 C2500 1.368 . S
C2506 C2505 1.523 . S
C2507 C2491 1.429 . S
C2507 C2503 1.429 . S
C2507 C2508 1.523 . S
C2508 C2492 1.368 . S
C2508 C2504 1.368 . S
C2508 C2507 1.523 . S
H2509 C2484 0.950 . S
H2510 C2486 0.950 . S
H2511 C2487 0.949 . S
H2512 C2489 0.950 . S
H2513 C2491 0.950 . S
C2514 C2515 1.349 . S
C2514 C2516 1.327 . S
C2514 H2539 0.950 . S
C2515 C2514 1.349 . S
C2515 C2531 1.349 . S
C2516 C2514 1.327 . S
C2516 C2535 1.429 . S
C2516 H2540 0.950 . S
C2517 C2534 1.574 . S
C2517 C2536 1.368 . S
C2517 H2541 0.949 . S
H2518 C2522 0.949 . S
C2519 C2520 1.349 . S
C2519 C2521 1.327 . S
C2519 H2542 0.950 . S
C2520 C2519 1.349 . S
C2520 C2532 1.349 . S
C2521 C2519 1.327 . S
C2521 C2537 1.429 . S
C2521 H2543 0.950 . S
C2522 H2518 0.949 . S
C2522 C2530 1.574 . S
C2522 C2538 1.368 . S
H2523 C2531 0.950 . S
H2524 C2529 0.950 . S
H2525 C2530 0.949 . S
H2526 C2532 0.950 . S
H2527 C2533 0.950 . S
H2528 C2534 0.949 . S
C2529 H2524 0.950 . S
C2529 C2531 1.327 . S
C2529 C2535 1.429 . S
C2530 C2522 1.574 . S
C2530 H2525 0.949 . S
C2530 C2536 1.368 . S
C2531 C2515 1.349 . S
C2531 H2523 0.950 . S
C2531 C2529 1.327 . S
C2532 C2520 1.349 . S
C2532 H2526 0.950 . S
C2532 C2533 1.327 . S
C2533 H2527 0.950 . S
C2533 C2532 1.327 . S
C2533 C2537 1.429 . S
C2534 C2517 1.574 . S
C2534 H2528 0.949 . S
C2534 C2538 1.368 . S
C2535 C2516 1.429 . S
C2535 C2529 1.429 . S
C2535 C2536 1.523 . S
C2536 C2517 1.368 . S
C2536 C2530 1.368 . S
C2536 C2535 1.523 . S
C2537 C2521 1.429 . S
C2537 C2533 1.429 . S
C2537 C2538 1.523 . S
C2538 C2522 1.368 . S
C2538 C2534 1.368 . S
C2538 C2537 1.523 . S
H2539 C2514 0.950 . S
H2540 C2516 0.950 . S
H2541 C2517 0.949 . S
H2542 C2519 0.950 . S
H2543 C2521 0.950 . S
C2544 C2545 1.349 . S
C2544 C2546 1.327 . S
C2544 H2569 0.950 . S
C2545 C2544 1.349 . S
C2545 C2561 1.349 . S
C2546 C2544 1.327 . S
C2546 C2565 1.429 . S
C2546 H2570 0.950 . S
C2547 C2564 1.574 . S
C2547 C2566 1.368 . S
C2547 H2571 0.949 . S
H2548 C2552 0.949 . S
C2549 C2550 1.349 . S
C2549 C2551 1.327 . S
C2549 H2572 0.950 . S
C2550 C2549 1.349 . S
C2550 C2562 1.349 . S
C2551 C2549 1.327 . S
C2551 C2567 1.429 . S
C2551 H2573 0.950 . S
C2552 H2548 0.949 . S
C2552 C2560 1.574 . S
C2552 C2568 1.368 . S
H2553 C2561 0.950 . S
H2554 C2559 0.950 . S
H2555 C2560 0.949 . S
H2556 C2562 0.950 . S
H2557 C2563 0.950 . S
H2558 C2564 0.949 . S
C2559 H2554 0.950 . S
C2559 C2561 1.327 . S
C2559 C2565 1.429 . S
C2560 C2552 1.574 . S
C2560 H2555 0.949 . S
C2560 C2566 1.368 . S
C2561 C2545 1.349 . S
C2561 H2553 0.950 . S
C2561 C2559 1.327 . S
C2562 C2550 1.349 . S
C2562 H2556 0.950 . S
C2562 C2563 1.327 . S
C2563 H2557 0.950 . S
C2563 C2562 1.327 . S
C2563 C2567 1.429 . S
C2564 C2547 1.574 . S
C2564 H2558 0.949 . S
C2564 C2568 1.368 . S
C2565 C2546 1.429 . S
C2565 C2559 1.429 . S
C2565 C2566 1.523 . S
C2566 C2547 1.368 . S
C2566 C2560 1.368 . S
C2566 C2565 1.523 . S
C2567 C2551 1.429 . S
C2567 C2563 1.429 . S
C2567 C2568 1.523 . S
C2568 C2552 1.368 . S
C2568 C2564 1.368 . S
C2568 C2567 1.523 . S
H2569 C2544 0.950 . S
H2570 C2546 0.950 . S
H2571 C2547 0.949 . S
H2572 C2549 0.950 . S
H2573 C2551 0.950 . S
C2574 C2575 1.349 . S
C2574 C2576 1.327 . S
C2574 H2599 0.950 . S
C2575 C2574 1.349 . S
C2575 C2591 1.349 . S
C2576 C2574 1.327 . S
C2576 C2595 1.429 . S
C2576 H2600 0.950 . S
C2577 C2594 1.574 . S
C2577 C2596 1.368 . S
C2577 H2601 0.949 . S
H2578 C2582 0.949 . S
C2579 C2580 1.349 . S
C2579 C2581 1.327 . S
C2579 H2602 0.950 . S
C2580 C2579 1.349 . S
C2580 C2592 1.349 . S
C2581 C2579 1.327 . S
C2581 C2597 1.429 . S
C2581 H2603 0.950 . S
C2582 H2578 0.949 . S
C2582 C2590 1.574 . S
C2582 C2598 1.368 . S
H2583 C2591 0.950 . S
H2584 C2589 0.950 . S
H2585 C2590 0.949 . S
H2586 C2592 0.950 . S
H2587 C2593 0.950 . S
H2588 C2594 0.949 . S
C2589 H2584 0.950 . S
C2589 C2591 1.327 . S
C2589 C2595 1.429 . S
C2590 C2582 1.574 . S
C2590 H2585 0.949 . S
C2590 C2596 1.368 . S
C2591 C2575 1.349 . S
C2591 H2583 0.950 . S
C2591 C2589 1.327 . S
C2592 C2580 1.349 . S
C2592 H2586 0.950 . S
C2592 C2593 1.327 . S
C2593 H2587 0.950 . S
C2593 C2592 1.327 . S
C2593 C2597 1.429 . S
C2594 C2577 1.574 . S
C2594 H2588 0.949 . S
C2594 C2598 1.368 . S
C2595 C2576 1.429 . S
C2595 C2589 1.429 . S
C2595 C2596 1.523 . S
C2596 C2577 1.368 . S
C2596 C2590 1.368 . S
C2596 C2595 1.523 . S
C2597 C2581 1.429 . S
C2597 C2593 1.429 . S
C2597 C2598 1.523 . S
C2598 C2582 1.368 . S
C2598 C2594 1.368 . S
C2598 C2597 1.523 . S
H2599 C2574 0.950 . S
H2600 C2576 0.950 . S
H2601 C2577 0.949 . S
H2602 C2579 0.950 . S
H2603 C2581 0.950 . S
C2604 C2605 1.349 . S
C2604 C2606 1.327 . S
C2604 H2629 0.950 . S
C2605 C2604 1.349 . S
C2605 C2621 1.349 . S
C2606 C2604 1.327 . S
C2606 C2625 1.429 . S
C2606 H2630 0.950 . S
C2607 C2624 1.574 . S
C2607 C2626 1.368 . S
C2607 H2631 0.949 . S
H2608 C2612 0.949 . S
C2609 C2610 1.349 . S
C2609 C2611 1.327 . S
C2609 H2632 0.950 . S
C2610 C2609 1.349 . S
C2610 C2622 1.349 . S
C2611 C2609 1.327 . S
C2611 C2627 1.429 . S
C2611 H2633 0.950 . S
C2612 H2608 0.949 . S
C2612 C2620 1.574 . S
C2612 C2628 1.368 . S
H2613 C2621 0.950 . S
H2614 C2619 0.950 . S
H2615 C2620 0.949 . S
H2616 C2622 0.950 . S
H2617 C2623 0.950 . S
H2618 C2624 0.949 . S
C2619 H2614 0.950 . S
C2619 C2621 1.327 . S
C2619 C2625 1.429 . S
C2620 C2612 1.574 . S
C2620 H2615 0.949 . S
C2620 C2626 1.368 . S
C2621 C2605 1.349 . S
C2621 H2613 0.950 . S
C2621 C2619 1.327 . S
C2622 C2610 1.349 . S
C2622 H2616 0.950 . S
C2622 C2623 1.327 . S
C2623 H2617 0.950 . S
C2623 C2622 1.327 . S
C2623 C2627 1.429 . S
C2624 C2607 1.574 . S
C2624 H2618 0.949 . S
C2624 C2628 1.368 . S
C2625 C2606 1.429 . S
C2625 C2619 1.429 . S
C2625 C2626 1.523 . S
C2626 C2607 1.368 . S
C2626 C2620 1.368 . S
C2626 C2625 1.523 . S
C2627 C2611 1.429 . S
C2627 C2623 1.429 . S
C2627 C2628 1.523 . S
C2628 C2612 1.368 . S
C2628 C2624 1.368 . S
C2628 C2627 1.523 . S
H2629 C2604 0.950 . S
H2630 C2606 0.950 . S
H2631 C2607 0.949 . S
H2632 C2609 0.950 . S
H2633 C2611 0.950 . S
C2634 C2635 1.349 . S
C2634 C2636 1.327 . S
C2634 H2659 0.950 . S
C2635 C2634 1.349 . S
C2635 C2651 1.349 . S
C2636 C2634 1.327 . S
C2636 C2655 1.429 . S
C2636 H2660 0.950 . S
C2637 C2654 1.574 . S
C2637 C2656 1.368 . S
C2637 H2661 0.949 . S
H2638 C2642 0.949 . S
C2639 C2640 1.349 . S
C2639 C2641 1.327 . S
C2639 H2662 0.950 . S
C2640 C2639 1.349 . S
C2640 C2652 1.349 . S
C2641 C2639 1.327 . S
C2641 C2657 1.429 . S
C2641 H2663 0.950 . S
C2642 H2638 0.949 . S
C2642 C2650 1.574 . S
C2642 C2658 1.368 . S
H2643 C2651 0.950 . S
H2644 C2649 0.950 . S
H2645 C2650 0.949 . S
H2646 C2652 0.950 . S
H2647 C2653 0.950 . S
H2648 C2654 0.949 . S
C2649 H2644 0.950 . S
C2649 C2651 1.327 . S
C2649 C2655 1.429 . S
C2650 C2642 1.574 . S
C2650 H2645 0.949 . S
C2650 C2656 1.368 . S
C2651 C2635 1.349 . S
C2651 H2643 0.950 . S
C2651 C2649 1.327 . S
C2652 C2640 1.349 . S
C2652 H2646 0.950 . S
C2652 C2653 1.327 . S
C2653 H2647 0.950 . S
C2653 C2652 1.327 . S
C2653 C2657 1.429 . S
C2654 C2637 1.574 . S
C2654 H2648 0.949 . S
C2654 C2658 1.368 . S
C2655 C2636 1.429 . S
C2655 C2649 1.429 . S
C2655 C2656 1.523 . S
C2656 C2637 1.368 . S
C2656 C2650 1.368 . S
C2656 C2655 1.523 . S
C2657 C2641 1.429 . S
C2657 C2653 1.429 . S
C2657 C2658 1.523 . S
C2658 C2642 1.368 . S
C2658 C2654 1.368 . S
C2658 C2657 1.523 . S
H2659 C2634 0.950 . S
H2660 C2636 0.950 . S
H2661 C2637 0.949 . S
H2662 C2639 0.950 . S
H2663 C2641 0.950 . S
C2664 C2665 1.349 . S
C2664 C2666 1.327 . S
C2664 H2689 0.950 . S
C2665 C2664 1.349 . S
C2665 C2681 1.349 . S
C2666 C2664 1.327 . S
C2666 C2685 1.429 . S
C2666 H2690 0.950 . S
C2667 C2684 1.574 . S
C2667 C2686 1.368 . S
C2667 H2691 0.949 . S
H2668 C2672 0.949 . S
C2669 C2670 1.349 . S
C2669 C2671 1.327 . S
C2669 H2692 0.950 . S
C2670 C2669 1.349 . S
C2670 C2682 1.349 . S
C2671 C2669 1.327 . S
C2671 C2687 1.429 . S
C2671 H2693 0.950 . S
C2672 H2668 0.949 . S
C2672 C2680 1.574 . S
C2672 C2688 1.368 . S
H2673 C2681 0.950 . S
H2674 C2679 0.950 . S
H2675 C2680 0.949 . S
H2676 C2682 0.950 . S
H2677 C2683 0.950 . S
H2678 C2684 0.949 . S
C2679 H2674 0.950 . S
C2679 C2681 1.327 . S
C2679 C2685 1.429 . S
C2680 C2672 1.574 . S
C2680 H2675 0.949 . S
C2680 C2686 1.368 . S
C2681 C2665 1.349 . S
C2681 H2673 0.950 . S
C2681 C2679 1.327 . S
C2682 C2670 1.349 . S
C2682 H2676 0.950 . S
C2682 C2683 1.327 . S
C2683 H2677 0.950 . S
C2683 C2682 1.327 . S
C2683 C2687 1.429 . S
C2684 C2667 1.574 . S
C2684 H2678 0.949 . S
C2684 C2688 1.368 . S
C2685 C2666 1.429 . S
C2685 C2679 1.429 . S
C2685 C2686 1.523 . S
C2686 C2667 1.368 . S
C2686 C2680 1.368 . S
C2686 C2685 1.523 . S
C2687 C2671 1.429 . S
C2687 C2683 1.429 . S
C2687 C2688 1.523 . S
C2688 C2672 1.368 . S
C2688 C2684 1.368 . S
C2688 C2687 1.523 . S
H2689 C2664 0.950 . S
H2690 C2666 0.950 . S
H2691 C2667 0.949 . S
H2692 C2669 0.950 . S
H2693 C2671 0.950 . S
C2694 C2695 1.349 . S
C2694 C2696 1.327 . S
C2694 H2719 0.950 . S
C2695 C2694 1.349 . S
C2695 C2711 1.349 . S
C2696 C2694 1.327 . S
C2696 C2715 1.429 . S
C2696 H2720 0.950 . S
C2697 C2714 1.574 . S
C2697 C2716 1.368 . S
C2697 H2721 0.949 . S
H2698 C2702 0.949 . S
C2699 C2700 1.349 . S
C2699 C2701 1.327 . S
C2699 H2722 0.950 . S
C2700 C2699 1.349 . S
C2700 C2712 1.349 . S
C2701 C2699 1.327 . S
C2701 C2717 1.429 . S
C2701 H2723 0.950 . S
C2702 H2698 0.949 . S
C2702 C2710 1.574 . S
C2702 C2718 1.368 . S
H2703 C2711 0.950 . S
H2704 C2709 0.950 . S
H2705 C2710 0.949 . S
H2706 C2712 0.950 . S
H2707 C2713 0.950 . S
H2708 C2714 0.949 . S
C2709 H2704 0.950 . S
C2709 C2711 1.327 . S
C2709 C2715 1.429 . S
C2710 C2702 1.574 . S
C2710 H2705 0.949 . S
C2710 C2716 1.368 . S
C2711 C2695 1.349 . S
C2711 H2703 0.950 . S
C2711 C2709 1.327 . S
C2712 C2700 1.349 . S
C2712 H2706 0.950 . S
C2712 C2713 1.327 . S
C2713 H2707 0.950 . S
C2713 C2712 1.327 . S
C2713 C2717 1.429 . S
C2714 C2697 1.574 . S
C2714 H2708 0.949 . S
C2714 C2718 1.368 . S
C2715 C2696 1.429 . S
C2715 C2709 1.429 . S
C2715 C2716 1.523 . S
C2716 C2697 1.368 . S
C2716 C2710 1.368 . S
C2716 C2715 1.523 . S
C2717 C2701 1.429 . S
C2717 C2713 1.429 . S
C2717 C2718 1.523 . S
C2718 C2702 1.368 . S
C2718 C2714 1.368 . S
C2718 C2717 1.523 . S
H2719 C2694 0.950 . S
H2720 C2696 0.950 . S
H2721 C2697 0.949 . S
H2722 C2699 0.950 . S
H2723 C2701 0.950 . S
C2724 C2725 1.349 . S
C2724 C2726 1.327 . S
C2724 H2749 0.950 . S
C2725 C2724 1.349 . S
C2725 C2741 1.349 . S
C2726 C2724 1.327 . S
C2726 C2745 1.429 . S
C2726 H2750 0.950 . S
C2727 C2744 1.574 . S
C2727 C2746 1.368 . S
C2727 H2751 0.949 . S
H2728 C2732 0.949 . S
C2729 C2730 1.349 . S
C2729 C2731 1.327 . S
C2729 H2752 0.950 . S
C2730 C2729 1.349 . S
C2730 C2742 1.349 . S
C2731 C2729 1.327 . S
C2731 C2747 1.429 . S
C2731 H2753 0.950 . S
C2732 H2728 0.949 . S
C2732 C2740 1.574 . S
C2732 C2748 1.368 . S
H2733 C2741 0.950 . S
H2734 C2739 0.950 . S
H2735 C2740 0.949 . S
H2736 C2742 0.950 . S
H2737 C2743 0.950 . S
H2738 C2744 0.949 . S
C2739 H2734 0.950 . S
C2739 C2741 1.327 . S
C2739 C2745 1.429 . S
C2740 C2732 1.574 . S
C2740 H2735 0.949 . S
C2740 C2746 1.368 . S
C2741 C2725 1.349 . S
C2741 H2733 0.950 . S
C2741 C2739 1.327 . S
C2742 C2730 1.349 . S
C2742 H2736 0.950 . S
C2742 C2743 1.327 . S
C2743 H2737 0.950 . S
C2743 C2742 1.327 . S
C2743 C2747 1.429 . S
C2744 C2727 1.574 . S
C2744 H2738 0.949 . S
C2744 C2748 1.368 . S
C2745 C2726 1.429 . S
C2745 C2739 1.429 . S
C2745 C2746 1.523 . S
C2746 C2727 1.368 . S
C2746 C2740 1.368 . S
C2746 C2745 1.523 . S
C2747 C2731 1.429 . S
C2747 C2743 1.429 . S
C2747 C2748 1.523 . S
C2748 C2732 1.368 . S
C2748 C2744 1.368 . S
C2748 C2747 1.523 . S
H2749 C2724 0.950 . S
H2750 C2726 0.950 . S
H2751 C2727 0.949 . S
H2752 C2729 0.950 . S
H2753 C2731 0.950 . S
C2754 C2755 1.349 . S
C2754 C2756 1.327 . S
C2754 H2779 0.950 . S
C2755 C2754 1.349 . S
C2755 C2771 1.349 . S
C2756 C2754 1.327 . S
C2756 C2775 1.429 . S
C2756 H2780 0.950 . S
C2757 C2774 1.574 . S
C2757 C2776 1.368 . S
C2757 H2781 0.949 . S
H2758 C2762 0.949 . S
C2759 C2760 1.349 . S
C2759 C2761 1.327 . S
C2759 H2782 0.950 . S
C2760 C2759 1.349 . S
C2760 C2772 1.349 . S
C2761 C2759 1.327 . S
C2761 C2777 1.429 . S
C2761 H2783 0.950 . S
C2762 H2758 0.949 . S
C2762 C2770 1.574 . S
C2762 C2778 1.368 . S
H2763 C2771 0.950 . S
H2764 C2769 0.950 . S
H2765 C2770 0.949 . S
H2766 C2772 0.950 . S
H2767 C2773 0.950 . S
H2768 C2774 0.949 . S
C2769 H2764 0.950 . S
C2769 C2771 1.327 . S
C2769 C2775 1.429 . S
C2770 C2762 1.574 . S
C2770 H2765 0.949 . S
C2770 C2776 1.368 . S
C2771 C2755 1.349 . S
C2771 H2763 0.950 . S
C2771 C2769 1.327 . S
C2772 C2760 1.349 . S
C2772 H2766 0.950 . S
C2772 C2773 1.327 . S
C2773 H2767 0.950 . S
C2773 C2772 1.327 . S
C2773 C2777 1.429 . S
C2774 C2757 1.574 . S
C2774 H2768 0.949 . S
C2774 C2778 1.368 . S
C2775 C2756 1.429 . S
C2775 C2769 1.429 . S
C2775 C2776 1.523 . S
C2776 C2757 1.368 . S
C2776 C2770 1.368 . S
C2776 C2775 1.523 . S
C2777 C2761 1.429 . S
C2777 C2773 1.429 . S
C2777 C2778 1.523 . S
C2778 C2762 1.368 . S
C2778 C2774 1.368 . S
C2778 C2777 1.523 . S
H2779 C2754 0.950 . S
H2780 C2756 0.950 . S
H2781 C2757 0.949 . S
H2782 C2759 0.950 . S
H2783 C2761 0.950 . S
C2784 C2785 1.349 . S
C2784 C2786 1.327 . S
C2784 H2809 0.950 . S
C2785 C2784 1.349 . S
C2785 C2801 1.349 . S
C2786 C2784 1.327 . S
C2786 C2805 1.429 . S
C2786 H2810 0.950 . S
C2787 C2804 1.574 . S
C2787 C2806 1.368 . S
C2787 H2811 0.949 . S
H2788 C2792 0.949 . S
C2789 C2790 1.349 . S
C2789 C2791 1.327 . S
C2789 H2812 0.950 . S
C2790 C2789 1.349 . S
C2790 C2802 1.349 . S
C2791 C2789 1.327 . S
C2791 C2807 1.429 . S
C2791 H2813 0.950 . S
C2792 H2788 0.949 . S
C2792 C2800 1.574 . S
C2792 C2808 1.368 . S
H2793 C2801 0.950 . S
H2794 C2799 0.950 . S
H2795 C2800 0.949 . S
H2796 C2802 0.950 . S
H2797 C2803 0.950 . S
H2798 C2804 0.949 . S
C2799 H2794 0.950 . S
C2799 C2801 1.327 . S
C2799 C2805 1.429 . S
C2800 C2792 1.574 . S
C2800 H2795 0.949 . S
C2800 C2806 1.368 . S
C2801 C2785 1.349 . S
C2801 H2793 0.950 . S
C2801 C2799 1.327 . S
C2802 C2790 1.349 . S
C2802 H2796 0.950 . S
C2802 C2803 1.327 . S
C2803 H2797 0.950 . S
C2803 C2802 1.327 . S
C2803 C2807 1.429 . S
C2804 C2787 1.574 . S
C2804 H2798 0.949 . S
C2804 C2808 1.368 . S
C2805 C2786 1.429 . S
C2805 C2799 1.429 . S
C2805 C2806 1.523 . S
C2806 C2787 1.368 . S
C2806 C2800 1.368 . S
C2806 C2805 1.523 . S
C2807 C2791 1.429 . S
C2807 C2803 1.429 . S
C2807 C2808 1.523 . S
C2808 C2792 1.368 . S
C2808 C2804 1.368 . S
C2808 C2807 1.523 . S
H2809 C2784 0.950 . S
H2810 C2786 0.950 . S
H2811 C2787 0.949 . S
H2812 C2789 0.950 . S
H2813 C2791 0.950 . S
C2814 C2815 1.349 . S
C2814 C2816 1.327 . S
C2814 H2839 0.950 . S
C2815 C2814 1.349 . S
C2815 C2831 1.349 . S
C2816 C2814 1.327 . S
C2816 C2835 1.429 . S
C2816 H2840 0.950 . S
C2817 C2834 1.574 . S
C2817 C2836 1.368 . S
C2817 H2841 0.949 . S
H2818 C2822 0.949 . S
C2819 C2820 1.349 . S
C2819 C2821 1.327 . S
C2819 H2842 0.950 . S
C2820 C2819 1.349 . S
C2820 C2832 1.349 . S
C2821 C2819 1.327 . S
C2821 C2837 1.429 . S
C2821 H2843 0.950 . S
C2822 H2818 0.949 . S
C2822 C2830 1.574 . S
C2822 C2838 1.368 . S
H2823 C2831 0.950 . S
H2824 C2829 0.950 . S
H2825 C2830 0.949 . S
H2826 C2832 0.950 . S
H2827 C2833 0.950 . S
H2828 C2834 0.949 . S
C2829 H2824 0.950 . S
C2829 C2831 1.327 . S
C2829 C2835 1.429 . S
C2830 C2822 1.574 . S
C2830 H2825 0.949 . S
C2830 C2836 1.368 . S
C2831 C2815 1.349 . S
C2831 H2823 0.950 . S
C2831 C2829 1.327 . S
C2832 C2820 1.349 . S
C2832 H2826 0.950 . S
C2832 C2833 1.327 . S
C2833 H2827 0.950 . S
C2833 C2832 1.327 . S
C2833 C2837 1.429 . S
C2834 C2817 1.574 . S
C2834 H2828 0.949 . S
C2834 C2838 1.368 . S
C2835 C2816 1.429 . S
C2835 C2829 1.429 . S
C2835 C2836 1.523 . S
C2836 C2817 1.368 . S
C2836 C2830 1.368 . S
C2836 C2835 1.523 . S
C2837 C2821 1.429 . S
C2837 C2833 1.429 . S
C2837 C2838 1.523 . S
C2838 C2822 1.368 . S
C2838 C2834 1.368 . S
C2838 C2837 1.523 . S
H2839 C2814 0.950 . S
H2840 C2816 0.950 . S
H2841 C2817 0.949 . S
H2842 C2819 0.950 . S
H2843 C2821 0.950 . S
C2844 C2845 1.349 . S
C2844 C2846 1.327 . S
C2844 H2869 0.950 . S
C2845 C2844 1.349 . S
C2845 C2861 1.349 . S
C2846 C2844 1.327 . S
C2846 C2865 1.429 . S
C2846 H2870 0.950 . S
C2847 C2864 1.574 . S
C2847 C2866 1.368 . S
C2847 H2871 0.949 . S
H2848 C2852 0.949 . S
C2849 C2850 1.349 . S
C2849 C2851 1.327 . S
C2849 H2872 0.950 . S
C2850 C2849 1.349 . S
C2850 C2862 1.349 . S
C2851 C2849 1.327 . S
C2851 C2867 1.429 . S
C2851 H2873 0.950 . S
C2852 H2848 0.949 . S
C2852 C2860 1.574 . S
C2852 C2868 1.368 . S
H2853 C2861 0.950 . S
H2854 C2859 0.950 . S
H2855 C2860 0.949 . S
H2856 C2862 0.950 . S
H2857 C2863 0.950 . S
H2858 C2864 0.949 . S
C2859 H2854 0.950 . S
C2859 C2861 1.327 . S
C2859 C2865 1.429 . S
C2860 C2852 1.574 . S
C2860 H2855 0.949 . S
C2860 C2866 1.368 . S
C2861 C2845 1.349 . S
C2861 H2853 0.950 . S
C2861 C2859 1.327 . S
C2862 C2850 1.349 . S
C2862 H2856 0.950 . S
C2862 C2863 1.327 . S
C2863 H2857 0.950 . S
C2863 C2862 1.327 . S
C2863 C2867 1.429 . S
C2864 C2847 1.574 . S
C2864 H2858 0.949 . S
C2864 C2868 1.368 . S
C2865 C2846 1.429 . S
C2865 C2859 1.429 . S
C2865 C2866 1.523 . S
C2866 C2847 1.368 . S
C2866 C2860 1.368 . S
C2866 C2865 1.523 . S
C2867 C2851 1.429 . S
C2867 C2863 1.429 . S
C2867 C2868 1.523 . S
C2868 C2852 1.368 . S
C2868 C2864 1.368 . S
C2868 C2867 1.523 . S
H2869 C2844 0.950 . S
H2870 C2846 0.950 . S
H2871 C2847 0.949 . S
H2872 C2849 0.950 . S
H2873 C2851 0.950 . S
C2874 C2875 1.349 . S
C2874 C2876 1.327 . S
C2874 H2899 0.950 . S
C2875 C2874 1.349 . S
C2875 C2891 1.349 . S
C2876 C2874 1.327 . S
C2876 C2895 1.429 . S
C2876 H2900 0.950 . S
C2877 C2894 1.574 . S
C2877 C2896 1.368 . S
C2877 H2901 0.949 . S
H2878 C2882 0.949 . S
C2879 C2880 1.349 . S
C2879 C2881 1.327 . S
C2879 H2902 0.950 . S
C2880 C2879 1.349 . S
C2880 C2892 1.349 . S
C2881 C2879 1.327 . S
C2881 C2897 1.429 . S
C2881 H2903 0.950 . S
C2882 H2878 0.949 . S
C2882 C2890 1.574 . S
C2882 C2898 1.368 . S
H2883 C2891 0.950 . S
H2884 C2889 0.950 . S
H2885 C2890 0.949 . S
H2886 C2892 0.950 . S
H2887 C2893 0.950 . S
H2888 C2894 0.949 . S
C2889 H2884 0.950 . S
C2889 C2891 1.327 . S
C2889 C2895 1.429 . S
C2890 C2882 1.574 . S
C2890 H2885 0.949 . S
C2890 C2896 1.368 . S
C2891 C2875 1.349 . S
C2891 H2883 0.950 . S
C2891 C2889 1.327 . S
C2892 C2880 1.349 . S
C2892 H2886 0.950 . S
C2892 C2893 1.327 . S
C2893 H2887 0.950 . S
C2893 C2892 1.327 . S
C2893 C2897 1.429 . S
C2894 C2877 1.574 . S
C2894 H2888 0.949 . S
C2894 C2898 1.368 . S
C2895 C2876 1.429 . S
C2895 C2889 1.429 . S
C2895 C2896 1.523 . S
C2896 C2877 1.368 . S
C2896 C2890 1.368 . S
C2896 C2895 1.523 . S
C2897 C2881 1.429 . S
C2897 C2893 1.429 . S
C2897 C2898 1.523 . S
C2898 C2882 1.368 . S
C2898 C2894 1.368 . S
C2898 C2897 1.523 . S
H2899 C2874 0.950 . S
H2900 C2876 0.950 . S
H2901 C2877 0.949 . S
H2902 C2879 0.950 . S
H2903 C2881 0.950 . S
C2904 C2905 1.349 . S
C2904 C2906 1.327 . S
C2904 H2929 0.950 . S
C2905 C2904 1.349 . S
C2905 C2921 1.349 . S
C2906 C2904 1.327 . S
C2906 C2925 1.429 . S
C2906 H2930 0.950 . S
C2907 C2924 1.574 . S
C2907 C2926 1.368 . S
C2907 H2931 0.949 . S
H2908 C2912 0.949 . S
C2909 C2910 1.349 . S
C2909 C2911 1.327 . S
C2909 H2932 0.950 . S
C2910 C2909 1.349 . S
C2910 C2922 1.349 . S
C2911 C2909 1.327 . S
C2911 C2927 1.429 . S
C2911 H2933 0.950 . S
C2912 H2908 0.949 . S
C2912 C2920 1.574 . S
C2912 C2928 1.368 . S
H2913 C2921 0.950 . S
H2914 C2919 0.950 . S
H2915 C2920 0.949 . S
H2916 C2922 0.950 . S
H2917 C2923 0.950 . S
H2918 C2924 0.949 . S
C2919 H2914 0.950 . S
C2919 C2921 1.327 . S
C2919 C2925 1.429 . S
C2920 C2912 1.574 . S
C2920 H2915 0.949 . S
C2920 C2926 1.368 . S
C2921 C2905 1.349 . S
C2921 H2913 0.950 . S
C2921 C2919 1.327 . S
C2922 C2910 1.349 . S
C2922 H2916 0.950 . S
C2922 C2923 1.327 . S
C2923 H2917 0.950 . S
C2923 C2922 1.327 . S
C2923 C2927 1.429 . S
C2924 C2907 1.574 . S
C2924 H2918 0.949 . S
C2924 C2928 1.368 . S
C2925 C2906 1.429 . S
C2925 C2919 1.429 . S
C2925 C2926 1.523 . S
C2926 C2907 1.368 . S
C2926 C2920 1.368 . S
C2926 C2925 1.523 . S
C2927 C2911 1.429 . S
C2927 C2923 1.429 . S
C2927 C2928 1.523 . S
C2928 C2912 1.368 . S
C2928 C2924 1.368 . S
C2928 C2927 1.523 . S
H2929 C2904 0.950 . S
H2930 C2906 0.950 . S
H2931 C2907 0.949 . S
H2932 C2909 0.950 . S
H2933 C2911 0.950 . S
C2934 C2935 1.349 . S
C2934 C2936 1.327 . S
C2934 H2959 0.950 . S
C2935 C2934 1.349 . S
C2935 C2951 1.349 . S
C2936 C2934 1.327 . S
C2936 C2955 1.429 . S
C2936 H2960 0.950 . S
C2937 C2954 1.574 . S
C2937 C2956 1.368 . S
C2937 H2961 0.949 . S
H2938 C2942 0.949 . S
C2939 C2940 1.349 . S
C2939 C2941 1.327 . S
C2939 H2962 0.950 . S
C2940 C2939 1.349 . S
C2940 C2952 1.349 . S
C2941 C2939 1.327 . S
C2941 C2957 1.429 . S
C2941 H2963 0.950 . S
C2942 H2938 0.949 . S
C2942 C2950 1.574 . S
C2942 C2958 1.368 . S
H2943 C2951 0.950 . S
H2944 C2949 0.950 . S
H2945 C2950 0.949 . S
H2946 C2952 0.950 . S
H2947 C2953 0.950 . S
H2948 C2954 0.949 . S
C2949 H2944 0.950 . S
C2949 C2951 1.327 . S
C2949 C2955 1.429 . S
C2950 C2942 1.574 . S
C2950 H2945 0.949 . S
C2950 C2956 1.368 . S
C2951 C2935 1.349 . S
C2951 H2943 0.950 . S
C2951 C2949 1.327 . S
C2952 C2940 1.349 . S
C2952 H2946 0.950 . S
C2952 C2953 1.327 . S
C2953 H2947 0.950 . S
C2953 C2952 1.327 . S
C2953 C2957 1.429 . S
C2954 C2937 1.574 . S
C2954 H2948 0.949 . S
C2954 C2958 1.368 . S
C2955 C2936 1.429 . S
C2955 C2949 1.429 . S
C2955 C2956 1.523 . S
C2956 C2937 1.368 . S
C2956 C2950 1.368 . S
C2956 C2955 1.523 . S
C2957 C2941 1.429 . S
C2957 C2953 1.429 . S
C2957 C2958 1.523 . S
C2958 C2942 1.368 . S
C2958 C2954 1.368 . S
C2958 C2957 1.523 . S
H2959 C2934 0.950 . S
H2960 C2936 0.950 . S
H2961 C2937 0.949 . S
H2962 C2939 0.950 . S
H2963 C2941 0.950 . S
C2964 C2965 1.349 . S
C2964 C2966 1.327 . S
C2964 H2989 0.950 . S
C2965 C2964 1.349 . S
C2965 C2981 1.349 . S
C2966 C2964 1.327 . S
C2966 C2985 1.429 . S
C2966 H2990 0.950 . S
C2967 C2984 1.574 . S
C2967 C2986 1.368 . S
C2967 H2991 0.949 . S
H2968 C2972 0.949 . S
C2969 C2970 1.349 . S
C2969 C2971 1.327 . S
C2969 H2992 0.950 . S
C2970 C2969 1.349 . S
C2970 C2982 1.349 . S
C2971 C2969 1.327 . S
C2971 C2987 1.429 . S
C2971 H2993 0.950 . S
C2972 H2968 0.949 . S
C2972 C2980 1.574 . S
C2972 C2988 1.368 . S
H2973 C2981 0.950 . S
H2974 C2979 0.950 . S
H2975 C2980 0.949 . S
H2976 C2982 0.950 . S
H2977 C2983 0.950 . S
H2978 C2984 0.949 . S
C2979 H2974 0.950 . S
C2979 C2981 1.327 . S
C2979 C2985 1.429 . S
C2980 C2972 1.574 . S
C2980 H2975 0.949 . S
C2980 C2986 1.368 . S
C2981 C2965 1.349 . S
C2981 H2973 0.950 . S
C2981 C2979 1.327 . S
C2982 C2970 1.349 . S
C2982 H2976 0.950 . S
C2982 C2983 1.327 . S
C2983 H2977 0.950 . S
C2983 C2982 1.327 . S
C2983 C2987 1.429 . S
C2984 C2967 1.574 . S
C2984 H2978 0.949 . S
C2984 C2988 1.368 . S
C2985 C2966 1.429 . S
C2985 C2979 1.429 . S
C2985 C2986 1.523 . S
C2986 C2967 1.368 . S
C2986 C2980 1.368 . S
C2986 C2985 1.523 . S
C2987 C2971 1.429 . S
C2987 C2983 1.429 . S
C2987 C2988 1.523 . S
C2988 C2972 1.368 . S
C2988 C2984 1.368 . S
C2988 C2987 1.523 . S
H2989 C2964 0.950 . S
H2990 C2966 0.950 . S
H2991 C2967 0.949 . S
H2992 C2969 0.950 . S
H2993 C2971 0.950 . S
C2994 C2995 1.349 . S
C2994 C2996 1.327 . S
C2994 H3019 0.950 . S
C2995 C2994 1.349 . S
C2995 C3011 1.349 . S
C2996 C2994 1.327 . S
C2996 C3015 1.429 . S
C2996 H3020 0.950 . S
C2997 C3014 1.574 . S
C2997 C3016 1.368 . S
C2997 H3021 0.949 . S
H2998 C3002 0.949 . S
C2999 C3000 1.349 . S
C2999 C3001 1.327 . S
C2999 H3022 0.950 . S
C3000 C2999 1.349 . S
C3000 C3012 1.349 . S
C3001 C2999 1.327 . S
C3001 C3017 1.429 . S
C3001 H3023 0.950 . S
C3002 H2998 0.949 . S
C3002 C3010 1.574 . S
C3002 C3018 1.368 . S
H3003 C3011 0.950 . S
H3004 C3009 0.950 . S
H3005 C3010 0.949 . S
H3006 C3012 0.950 . S
H3007 C3013 0.950 . S
H3008 C3014 0.949 . S
C3009 H3004 0.950 . S
C3009 C3011 1.327 . S
C3009 C3015 1.429 . S
C3010 C3002 1.574 . S
C3010 H3005 0.949 . S
C3010 C3016 1.368 . S
C3011 C2995 1.349 . S
C3011 H3003 0.950 . S
C3011 C3009 1.327 . S
C3012 C3000 1.349 . S
C3012 H3006 0.950 . S
C3012 C3013 1.327 . S
C3013 H3007 0.950 . S
C3013 C3012 1.327 . S
C3013 C3017 1.429 . S
C3014 C2997 1.574 . S
C3014 H3008 0.949 . S
C3014 C3018 1.368 . S
C3015 C2996 1.429 . S
C3015 C3009 1.429 . S
C3015 C3016 1.523 . S
C3016 C2997 1.368 . S
C3016 C3010 1.368 . S
C3016 C3015 1.523 . S
C3017 C3001 1.429 . S
C3017 C3013 1.429 . S
C3017 C3018 1.523 . S
C3018 C3002 1.368 . S
C3018 C3014 1.368 . S
C3018 C3017 1.523 . S
H3019 C2994 0.950 . S
H3020 C2996 0.950 . S
H3021 C2997 0.949 . S
H3022 C2999 0.950 . S
H3023 C3001 0.950 . S
C3024 C3025 1.349 . S
C3024 C3026 1.327 . S
C3024 H3049 0.950 . S
C3025 C3024 1.349 . S
C3025 C3041 1.349 . S
C3026 C3024 1.327 . S
C3026 C3045 1.429 . S
C3026 H3050 0.950 . S
C3027 C3044 1.574 . S
C3027 C3046 1.368 . S
C3027 H3051 0.949 . S
H3028 C3032 0.949 . S
C3029 C3030 1.349 . S
C3029 C3031 1.327 . S
C3029 H3052 0.950 . S
C3030 C3029 1.349 . S
C3030 C3042 1.349 . S
C3031 C3029 1.327 . S
C3031 C3047 1.429 . S
C3031 H3053 0.950 . S
C3032 H3028 0.949 . S
C3032 C3040 1.574 . S
C3032 C3048 1.368 . S
H3033 C3041 0.950 . S
H3034 C3039 0.950 . S
H3035 C3040 0.949 . S
H3036 C3042 0.950 . S
H3037 C3043 0.950 . S
H3038 C3044 0.949 . S
C3039 H3034 0.950 . S
C3039 C3041 1.327 . S
C3039 C3045 1.429 . S
C3040 C3032 1.574 . S
C3040 H3035 0.949 . S
C3040 C3046 1.368 . S
C3041 C3025 1.349 . S
C3041 H3033 0.950 . S
C3041 C3039 1.327 . S
C3042 C3030 1.349 . S
C3042 H3036 0.950 . S
C3042 C3043 1.327 . S
C3043 H3037 0.950 . S
C3043 C3042 1.327 . S
C3043 C3047 1.429 . S
C3044 C3027 1.574 . S
C3044 H3038 0.949 . S
C3044 C3048 1.368 . S
C3045 C3026 1.429 . S
C3045 C3039 1.429 . S
C3045 C3046 1.523 . S
C3046 C3027 1.368 . S
C3046 C3040 1.368 . S
C3046 C3045 1.523 . S
C3047 C3031 1.429 . S
C3047 C3043 1.429 . S
C3047 C3048 1.523 . S
C3048 C3032 1.368 . S
C3048 C3044 1.368 . S
C3048 C3047 1.523 . S
H3049 C3024 0.950 . S
H3050 C3026 0.950 . S
H3051 C3027 0.949 . S
H3052 C3029 0.950 . S
H3053 C3031 0.950 . S
C3054 C3055 1.349 . S
C3054 C3056 1.327 . S
C3054 H3079 0.950 . S
C3055 C3054 1.349 . S
C3055 C3071 1.349 . S
C3056 C3054 1.327 . S
C3056 C3075 1.429 . S
C3056 H3080 0.950 . S
C3057 C3074 1.574 . S
C3057 C3076 1.368 . S
C3057 H3081 0.949 . S
H3058 C3062 0.949 . S
C3059 C3060 1.349 . S
C3059 C3061 1.327 . S
C3059 H3082 0.950 . S
C3060 C3059 1.349 . S
C3060 C3072 1.349 . S
C3061 C3059 1.327 . S
C3061 C3077 1.429 . S
C3061 H3083 0.950 . S
C3062 H3058 0.949 . S
C3062 C3070 1.574 . S
C3062 C3078 1.368 . S
H3063 C3071 0.950 . S
H3064 C3069 0.950 . S
H3065 C3070 0.949 . S
H3066 C3072 0.950 . S
H3067 C3073 0.950 . S
H3068 C3074 0.949 . S
C3069 H3064 0.950 . S
C3069 C3071 1.327 . S
C3069 C3075 1.429 . S
C3070 C3062 1.574 . S
C3070 H3065 0.949 . S
C3070 C3076 1.368 . S
C3071 C3055 1.349 . S
C3071 H3063 0.950 . S
C3071 C3069 1.327 . S
C3072 C3060 1.349 . S
C3072 H3066 0.950 . S
C3072 C3073 1.327 . S
C3073 H3067 0.950 . S
C3073 C3072 1.327 . S
C3073 C3077 1.429 . S
C3074 C3057 1.574 . S
C3074 H3068 0.949 . S
C3074 C3078 1.368 . S
C3075 C3056 1.429 . S
C3075 C3069 1.429 . S
C3075 C3076 1.523 . S
C3076 C3057 1.368 . S
C3076 C3070 1.368 . S
C3076 C3075 1.523 . S
C3077 C3061 1.429 . S
C3077 C3073 1.429 . S
C3077 C3078 1.523 . S
C3078 C3062 1.368 . S
C3078 C3074 1.368 . S
C3078 C3077 1.523 . S
H3079 C3054 0.950 . S
H3080 C3056 0.950 . S
H3081 C3057 0.949 . S
H3082 C3059 0.950 . S
H3083 C3061 0.950 . S
C3084 C3085 1.349 . S
C3084 C3086 1.327 . S
C3084 H3109 0.950 . S
C3085 C3084 1.349 . S
C3085 C3101 1.349 . S
C3086 C3084 1.327 . S
C3086 C3105 1.429 . S
C3086 H3110 0.950 . S
C3087 C3104 1.574 . S
C3087 C3106 1.368 . S
C3087 H3111 0.949 . S
H3088 C3092 0.949 . S
C3089 C3090 1.349 . S
C3089 C3091 1.327 . S
C3089 H3112 0.950 . S
C3090 C3089 1.349 . S
C3090 C3102 1.349 . S
C3091 C3089 1.327 . S
C3091 C3107 1.429 . S
C3091 H3113 0.950 . S
C3092 H3088 0.949 . S
C3092 C3100 1.574 . S
C3092 C3108 1.368 . S
H3093 C3101 0.950 . S
H3094 C3099 0.950 . S
H3095 C3100 0.949 . S
H3096 C3102 0.950 . S
H3097 C3103 0.950 . S
H3098 C3104 0.949 . S
C3099 H3094 0.950 . S
C3099 C3101 1.327 . S
C3099 C3105 1.429 . S
C3100 C3092 1.574 . S
C3100 H3095 0.949 . S
C3100 C3106 1.368 . S
C3101 C3085 1.349 . S
C3101 H3093 0.950 . S
C3101 C3099 1.327 . S
C3102 C3090 1.349 . S
C3102 H3096 0.950 . S
C3102 C3103 1.327 . S
C3103 H3097 0.950 . S
C3103 C3102 1.327 . S
C3103 C3107 1.429 . S
C3104 C3087 1.574 . S
C3104 H3098 0.949 . S
C3104 C3108 1.368 . S
C3105 C3086 1.429 . S
C3105 C3099 1.429 . S
C3105 C3106 1.523 . S
C3106 C3087 1.368 . S
C3106 C3100 1.368 . S
C3106 C3105 1.523 . S
C3107 C3091 1.429 . S
C3107 C3103 1.429 . S
C3107 C3108 1.523 . S
C3108 C3092 1.368 . S
C3108 C3104 1.368 . S
C3108 C3107 1.523 . S
H3109 C3084 0.950 . S
H3110 C3086 0.950 . S
H3111 C3087 0.949 . S
H3112 C3089 0.950 . S
H3113 C3091 0.950 . S
C3114 C3115 1.349 . S
C3114 C3116 1.327 . S
C3114 H3139 0.950 . S
C3115 C3114 1.349 . S
C3115 C3131 1.349 . S
C3116 C3114 1.327 . S
C3116 C3135 1.429 . S
C3116 H3140 0.950 . S
C3117 C3134 1.574 . S
C3117 C3136 1.368 . S
C3117 H3141 0.949 . S
H3118 C3122 0.949 . S
C3119 C3120 1.349 . S
C3119 C3121 1.327 . S
C3119 H3142 0.950 . S
C3120 C3119 1.349 . S
C3120 C3132 1.349 . S
C3121 C3119 1.327 . S
C3121 C3137 1.429 . S
C3121 H3143 0.950 . S
C3122 H3118 0.949 . S
C3122 C3130 1.574 . S
C3122 C3138 1.368 . S
H3123 C3131 0.950 . S
H3124 C3129 0.950 . S
H3125 C3130 0.949 . S
H3126 C3132 0.950 . S
H3127 C3133 0.950 . S
H3128 C3134 0.949 . S
C3129 H3124 0.950 . S
C3129 C3131 1.327 . S
C3129 C3135 1.429 . S
C3130 C3122 1.574 . S
C3130 H3125 0.949 . S
C3130 C3136 1.368 . S
C3131 C3115 1.349 . S
C3131 H3123 0.950 . S
C3131 C3129 1.327 . S
C3132 C3120 1.349 . S
C3132 H3126 0.950 . S
C3132 C3133 1.327 . S
C3133 H3127 0.950 . S
C3133 C3132 1.327 . S
C3133 C3137 1.429 . S
C3134 C3117 1.574 . S
C3134 H3128 0.949 . S
C3134 C3138 1.368 . S
C3135 C3116 1.429 . S
C3135 C3129 1.429 . S
C3135 C3136 1.523 . S
C3136 C3117 1.368 . S
C3136 C3130 1.368 . S
C3136 C3135 1.523 . S
C3137 C3121 1.429 . S
C3137 C3133 1.429 . S
C3137 C3138 1.523 . S
C3138 C3122 1.368 . S
C3138 C3134 1.368 . S
C3138 C3137 1.523 . S
H3139 C3114 0.950 . S
H3140 C3116 0.950 . S
H3141 C3117 0.949 . S
H3142 C3119 0.950 . S
H3143 C3121 0.950 . S
C3144 C3145 1.349 . S
C3144 C3146 1.327 . S
C3144 H3169 0.950 . S
C3145 C3144 1.349 . S
C3145 C3161 1.349 . S
C3146 C3144 1.327 . S
C3146 C3165 1.429 . S
C3146 H3170 0.950 . S
C3147 C3164 1.574 . S
C3147 C3166 1.368 . S
C3147 H3171 0.949 . S
H3148 C3152 0.949 . S
C3149 C3150 1.349 . S
C3149 C3151 1.327 . S
C3149 H3172 0.950 . S
C3150 C3149 1.349 . S
C3150 C3162 1.349 . S
C3151 C3149 1.327 . S
C3151 C3167 1.429 . S
C3151 H3173 0.950 . S
C3152 H3148 0.949 . S
C3152 C3160 1.574 . S
C3152 C3168 1.368 . S
H3153 C3161 0.950 . S
H3154 C3159 0.950 . S
H3155 C3160 0.949 . S
H3156 C3162 0.950 . S
H3157 C3163 0.950 . S
H3158 C3164 0.949 . S
C3159 H3154 0.950 . S
C3159 C3161 1.327 . S
C3159 C3165 1.429 . S
C3160 C3152 1.574 . S
C3160 H3155 0.949 . S
C3160 C3166 1.368 . S
C3161 C3145 1.349 . S
C3161 H3153 0.950 . S
C3161 C3159 1.327 . S
C3162 C3150 1.349 . S
C3162 H3156 0.950 . S
C3162 C3163 1.327 . S
C3163 H3157 0.950 . S
C3163 C3162 1.327 . S
C3163 C3167 1.429 . S
C3164 C3147 1.574 . S
C3164 H3158 0.949 . S
C3164 C3168 1.368 . S
C3165 C3146 1.429 . S
C3165 C3159 1.429 . S
C3165 C3166 1.523 . S
C3166 C3147 1.368 . S
C3166 C3160 1.368 . S
C3166 C3165 1.523 . S
C3167 C3151 1.429 . S
C3167 C3163 1.429 . S
C3167 C3168 1.523 . S
C3168 C3152 1.368 . S
C3168 C3164 1.368 . S
C3168 C3167 1.523 . S
H3169 C3144 0.950 . S
H3170 C3146 0.950 . S
H3171 C3147 0.949 . S
H3172 C3149 0.950 . S
H3173 C3151 0.950 . S
C3174 C3175 1.349 . S
C3174 C3176 1.327 . S
C3174 H3199 0.950 . S
C3175 C3174 1.349 . S
C3175 C3191 1.349 . S
C3176 C3174 1.327 . S
C3176 C3195 1.429 . S
C3176 H3200 0.950 . S
C3177 C3194 1.574 . S
C3177 C3196 1.368 . S
C3177 H3201 0.949 . S
H3178 C3182 0.949 . S
C3179 C3180 1.349 . S
C3179 C3181 1.327 . S
C3179 H3202 0.950 . S
C3180 C3179 1.349 . S
C3180 C3192 1.349 . S
C3181 C3179 1.327 . S
C3181 C3197 1.429 . S
C3181 H3203 0.950 . S
C3182 H3178 0.949 . S
C3182 C3190 1.574 . S
C3182 C3198 1.368 . S
H3183 C3191 0.950 . S
H3184 C3189 0.950 . S
H3185 C3190 0.949 . S
H3186 C3192 0.950 . S
H3187 C3193 0.950 . S
H3188 C3194 0.949 . S
C3189 H3184 0.950 . S
C3189 C3191 1.327 . S
C3189 C3195 1.429 . S
C3190 C3182 1.574 . S
C3190 H3185 0.949 . S
C3190 C3196 1.368 . S
C3191 C3175 1.349 . S
C3191 H3183 0.950 . S
C3191 C3189 1.327 . S
C3192 C3180 1.349 . S
C3192 H3186 0.950 . S
C3192 C3193 1.327 . S
C3193 H3187 0.950 . S
C3193 C3192 1.327 . S
C3193 C3197 1.429 . S
C3194 C3177 1.574 . S
C3194 H3188 0.949 . S
C3194 C3198 1.368 . S
C3195 C3176 1.429 . S
C3195 C3189 1.429 . S
C3195 C3196 1.523 . S
C3196 C3177 1.368 . S
C3196 C3190 1.368 . S
C3196 C3195 1.523 . S
C3197 C3181 1.429 . S
C3197 C3193 1.429 . S
C3197 C3198 1.523 . S
C3198 C3182 1.368 . S
C3198 C3194 1.368 . S
C3198 C3197 1.523 . S
H3199 C3174 0.950 . S
H3200 C3176 0.950 . S
H3201 C3177 0.949 . S
H3202 C3179 0.950 . S
H3203 C3181 0.950 . S
C3204 C3205 1.349 . S
C3204 C3206 1.327 . S
C3204 H3229 0.950 . S
C3205 C3204 1.349 . S
C3205 C3221 1.349 . S
C3206 C3204 1.327 . S
C3206 C3225 1.429 . S
C3206 H3230 0.950 . S
C3207 C3224 1.574 . S
C3207 C3226 1.368 . S
C3207 H3231 0.949 . S
H3208 C3212 0.949 . S
C3209 C3210 1.349 . S
C3209 C3211 1.327 . S
C3209 H3232 0.950 . S
C3210 C3209 1.349 . S
C3210 C3222 1.349 . S
C3211 C3209 1.327 . S
C3211 C3227 1.429 . S
C3211 H3233 0.950 . S
C3212 H3208 0.949 . S
C3212 C3220 1.574 . S
C3212 C3228 1.368 . S
H3213 C3221 0.950 . S
H3214 C3219 0.950 . S
H3215 C3220 0.949 . S
H3216 C3222 0.950 . S
H3217 C3223 0.950 . S
H3218 C3224 0.949 . S
C3219 H3214 0.950 . S
C3219 C3221 1.327 . S
C3219 C3225 1.429 . S
C3220 C3212 1.574 . S
C3220 H3215 0.949 . S
C3220 C3226 1.368 . S
C3221 C3205 1.349 . S
C3221 H3213 0.950 . S
C3221 C3219 1.327 . S
C3222 C3210 1.349 . S
C3222 H3216 0.950 . S
C3222 C3223 1.327 . S
C3223 H3217 0.950 . S
C3223 C3222 1.327 . S
C3223 C3227 1.429 . S
C3224 C3207 1.574 . S
C3224 H3218 0.949 . S
C3224 C3228 1.368 . S
C3225 C3206 1.429 . S
C3225 C3219 1.429 . S
C3225 C3226 1.523 . S
C3226 C3207 1.368 . S
C3226 C3220 1.368 . S
C3226 C3225 1.523 . S
C3227 C3211 1.429 . S
C3227 C3223 1.429 . S
C3227 C3228 1.523 . S
C3228 C3212 1.368 . S
C3228 C3224 1.368 . S
C3228 C3227 1.523 . S
H3229 C3204 0.950 . S
H3230 C3206 0.950 . S
H3231 C3207 0.949 . S
H3232 C3209 0.950 . S
H3233 C3211 0.950 . S
C3234 C3235 1.349 . S
C3234 C3236 1.327 . S
C3234 H3259 0.950 . S
C3235 C3234 1.349 . S
C3235 C3251 1.349 . S
C3236 C3234 1.327 . S
C3236 C3255 1.429 . S
C3236 H3260 0.950 . S
C3237 C3254 1.574 . S
C3237 C3256 1.368 . S
C3237 H3261 0.949 . S
H3238 C3242 0.949 . S
C3239 C3240 1.349 . S
C3239 C3241 1.327 . S
C3239 H3262 0.950 . S
C3240 C3239 1.349 . S
C3240 C3252 1.349 . S
C3241 C3239 1.327 . S
C3241 C3257 1.429 . S
C3241 H3263 0.950 . S
C3242 H3238 0.949 . S
C3242 C3250 1.574 . S
C3242 C3258 1.368 . S
H3243 C3251 0.950 . S
H3244 C3249 0.950 . S
H3245 C3250 0.949 . S
H3246 C3252 0.950 . S
H3247 C3253 0.950 . S
H3248 C3254 0.949 . S
C3249 H3244 0.950 . S
C3249 C3251 1.327 . S
C3249 C3255 1.429 . S
C3250 C3242 1.574 . S
C3250 H3245 0.949 . S
C3250 C3256 1.368 . S
C3251 C3235 1.349 . S
C3251 H3243 0.950 . S
C3251 C3249 1.327 . S
C3252 C3240 1.349 . S
C3252 H3246 0.950 . S
C3252 C3253 1.327 . S
C3253 H3247 0.950 . S
C3253 C3252 1.327 . S
C3253 C3257 1.429 . S
C3254 C3237 1.574 . S
C3254 H3248 0.949 . S
C3254 C3258 1.368 . S
C3255 C3236 1.429 . S
C3255 C3249 1.429 . S
C3255 C3256 1.523 . S
C3256 C3237 1.368 . S
C3256 C3250 1.368 . S
C3256 C3255 1.523 . S
C3257 C3241 1.429 . S
C3257 C3253 1.429 . S
C3257 C3258 1.523 . S
C3258 C3242 1.368 . S
C3258 C3254 1.368 . S
C3258 C3257 1.523 . S
H3259 C3234 0.950 . S
H3260 C3236 0.950 . S
H3261 C3237 0.949 . S
H3262 C3239 0.950 . S
H3263 C3241 0.950 . S
C3264 C3265 1.349 . S
C3264 C3266 1.327 . S
C3264 H3289 0.950 . S
C3265 C3264 1.349 . S
C3265 C3281 1.349 . S
C3266 C3264 1.327 . S
C3266 C3285 1.429 . S
C3266 H3290 0.950 . S
C3267 C3284 1.574 . S
C3267 C3286 1.368 . S
C3267 H3291 0.949 . S
H3268 C3272 0.949 . S
C3269 C3270 1.349 . S
C3269 C3271 1.327 . S
C3269 H3292 0.950 . S
C3270 C3269 1.349 . S
C3270 C3282 1.349 . S
C3271 C3269 1.327 . S
C3271 C3287 1.429 . S
C3271 H3293 0.950 . S
C3272 H3268 0.949 . S
C3272 C3280 1.574 . S
C3272 C3288 1.368 . S
H3273 C3281 0.950 . S
H3274 C3279 0.950 . S
H3275 C3280 0.949 . S
H3276 C3282 0.950 . S
H3277 C3283 0.950 . S
H3278 C3284 0.949 . S
C3279 H3274 0.950 . S
C3279 C3281 1.327 . S
C3279 C3285 1.429 . S
C3280 C3272 1.574 . S
C3280 H3275 0.949 . S
C3280 C3286 1.368 . S
C3281 C3265 1.349 . S
C3281 H3273 0.950 . S
C3281 C3279 1.327 . S
C3282 C3270 1.349 . S
C3282 H3276 0.950 . S
C3282 C3283 1.327 . S
C3283 H3277 0.950 . S
C3283 C3282 1.327 . S
C3283 C3287 1.429 . S
C3284 C3267 1.574 . S
C3284 H3278 0.949 . S
C3284 C3288 1.368 . S
C3285 C3266 1.429 . S
C3285 C3279 1.429 . S
C3285 C3286 1.523 . S
C3286 C3267 1.368 . S
C3286 C3280 1.368 . S
C3286 C3285 1.523 . S
C3287 C3271 1.429 . S
C3287 C3283 1.429 . S
C3287 C3288 1.523 . S
C3288 C3272 1.368 . S
C3288 C3284 1.368 . S
C3288 C3287 1.523 . S
H3289 C3264 0.950 . S
H3290 C3266 0.950 . S
H3291 C3267 0.949 . S
H3292 C3269 0.950 . S
H3293 C3271 0.950 . S
C3294 C3295 1.349 . S
C3294 C3296 1.327 . S
C3294 H3319 0.950 . S
C3295 C3294 1.349 . S
C3295 C3311 1.349 . S
C3296 C3294 1.327 . S
C3296 C3315 1.429 . S
C3296 H3320 0.950 . S
C3297 C3314 1.574 . S
C3297 C3316 1.368 . S
C3297 H3321 0.949 . S
H3298 C3302 0.949 . S
C3299 C3300 1.349 . S
C3299 C3301 1.327 . S
C3299 H3322 0.950 . S
C3300 C3299 1.349 . S
C3300 C3312 1.349 . S
C3301 C3299 1.327 . S
C3301 C3317 1.429 . S
C3301 H3323 0.950 . S
C3302 H3298 0.949 . S
C3302 C3310 1.574 . S
C3302 C3318 1.368 . S
H3303 C3311 0.950 . S
H3304 C3309 0.950 . S
H3305 C3310 0.949 . S
H3306 C3312 0.950 . S
H3307 C3313 0.950 . S
H3308 C3314 0.949 . S
C3309 H3304 0.950 . S
C3309 C3311 1.327 . S
C3309 C3315 1.429 . S
C3310 C3302 1.574 . S
C3310 H3305 0.949 . S
C3310 C3316 1.368 . S
C3311 C3295 1.349 . S
C3311 H3303 0.950 . S
C3311 C3309 1.327 . S
C3312 C3300 1.349 . S
C3312 H3306 0.950 . S
C3312 C3313 1.327 . S
C3313 H3307 0.950 . S
C3313 C3312 1.327 . S
C3313 C3317 1.429 . S
C3314 C3297 1.574 . S
C3314 H3308 0.949 . S
C3314 C3318 1.368 . S
C3315 C3296 1.429 . S
C3315 C3309 1.429 . S
C3315 C3316 1.523 . S
C3316 C3297 1.368 . S
C3316 C3310 1.368 . S
C3316 C3315 1.523 . S
C3317 C3301 1.429 . S
C3317 C3313 1.429 . S
C3317 C3318 1.523 . S
C3318 C3302 1.368 . S
C3318 C3314 1.368 . S
C3318 C3317 1.523 . S
H3319 C3294 0.950 . S
H3320 C3296 0.950 . S
H3321 C3297 0.949 . S
H3322 C3299 0.950 . S
H3323 C3301 0.950 . S
C3324 C3325 1.349 . S
C3324 C3326 1.327 . S
C3324 H3349 0.950 . S
C3325 C3324 1.349 . S
C3325 C3341 1.349 . S
C3326 C3324 1.327 . S
C3326 C3345 1.429 . S
C3326 H3350 0.950 . S
C3327 C3344 1.574 . S
C3327 C3346 1.368 . S
C3327 H3351 0.949 . S
H3328 C3332 0.949 . S
C3329 C3330 1.349 . S
C3329 C3331 1.327 . S
C3329 H3352 0.950 . S
C3330 C3329 1.349 . S
C3330 C3342 1.349 . S
C3331 C3329 1.327 . S
C3331 C3347 1.429 . S
C3331 H3353 0.950 . S
C3332 H3328 0.949 . S
C3332 C3340 1.574 . S
C3332 C3348 1.368 . S
H3333 C3341 0.950 . S
H3334 C3339 0.950 . S
H3335 C3340 0.949 . S
H3336 C3342 0.950 . S
H3337 C3343 0.950 . S
H3338 C3344 0.949 . S
C3339 H3334 0.950 . S
C3339 C3341 1.327 . S
C3339 C3345 1.429 . S
C3340 C3332 1.574 . S
C3340 H3335 0.949 . S
C3340 C3346 1.368 . S
C3341 C3325 1.349 . S
C3341 H3333 0.950 . S
C3341 C3339 1.327 . S
C3342 C3330 1.349 . S
C3342 H3336 0.950 . S
C3342 C3343 1.327 . S
C3343 H3337 0.950 . S
C3343 C3342 1.327 . S
C3343 C3347 1.429 . S
C3344 C3327 1.574 . S
C3344 H3338 0.949 . S
C3344 C3348 1.368 . S
C3345 C3326 1.429 . S
C3345 C3339 1.429 . S
C3345 C3346 1.523 . S
C3346 C3327 1.368 . S
C3346 C3340 1.368 . S
C3346 C3345 1.523 . S
C3347 C3331 1.429 . S
C3347 C3343 1.429 . S
C3347 C3348 1.523 . S
C3348 C3332 1.368 . S
C3348 C3344 1.368 . S
C3348 C3347 1.523 . S
H3349 C3324 0.950 . S
H3350 C3326 0.950 . S
H3351 C3327 0.949 . S
H3352 C3329 0.950 . S
H3353 C3331 0.950 . S
C3354 C3355 1.349 . S
C3354 C3356 1.327 . S
C3354 H3379 0.950 . S
C3355 C3354 1.349 . S
C3355 C3371 1.349 . S
C3356 C3354 1.327 . S
C3356 C3375 1.429 . S
C3356 H3380 0.950 . S
C3357 C3374 1.574 . S
C3357 C3376 1.368 . S
C3357 H3381 0.949 . S
H3358 C3362 0.949 . S
C3359 C3360 1.349 . S
C3359 C3361 1.327 . S
C3359 H3382 0.950 . S
C3360 C3359 1.349 . S
C3360 C3372 1.349 . S
C3361 C3359 1.327 . S
C3361 C3377 1.429 . S
C3361 H3383 0.950 . S
C3362 H3358 0.949 . S
C3362 C3370 1.574 . S
C3362 C3378 1.368 . S
H3363 C3371 0.950 . S
H3364 C3369 0.950 . S
H3365 C3370 0.949 . S
H3366 C3372 0.950 . S
H3367 C3373 0.950 . S
H3368 C3374 0.949 . S
C3369 H3364 0.950 . S
C3369 C3371 1.327 . S
C3369 C3375 1.429 . S
C3370 C3362 1.574 . S
C3370 H3365 0.949 . S
C3370 C3376 1.368 . S
C3371 C3355 1.349 . S
C3371 H3363 0.950 . S
C3371 C3369 1.327 . S
C3372 C3360 1.349 . S
C3372 H3366 0.950 . S
C3372 C3373 1.327 . S
C3373 H3367 0.950 . S
C3373 C3372 1.327 . S
C3373 C3377 1.429 . S
C3374 C3357 1.574 . S
C3374 H3368 0.949 . S
C3374 C3378 1.368 . S
C3375 C3356 1.429 . S
C3375 C3369 1.429 . S
C3375 C3376 1.523 . S
C3376 C3357 1.368 . S
C3376 C3370 1.368 . S
C3376 C3375 1.523 . S
C3377 C3361 1.429 . S
C3377 C3373 1.429 . S
C3377 C3378 1.523 . S
C3378 C3362 1.368 . S
C3378 C3374 1.368 . S
C3378 C3377 1.523 . S
H3379 C3354 0.950 . S
H3380 C3356 0.950 . S
H3381 C3357 0.949 . S
H3382 C3359 0.950 . S
H3383 C3361 0.950 . S
C3384 C3385 1.349 . S
C3384 C3386 1.327 . S
C3384 H3409 0.950 . S
C3385 C3384 1.349 . S
C3385 C3401 1.349 . S
C3386 C3384 1.327 . S
C3386 C3405 1.429 . S
C3386 H3410 0.950 . S
C3387 C3404 1.574 . S
C3387 C3406 1.368 . S
C3387 H3411 0.949 . S
H3388 C3392 0.949 . S
C3389 C3390 1.349 . S
C3389 C3391 1.327 . S
C3389 H3412 0.950 . S
C3390 C3389 1.349 . S
C3390 C3402 1.349 . S
C3391 C3389 1.327 . S
C3391 C3407 1.429 . S
C3391 H3413 0.950 . S
C3392 H3388 0.949 . S
C3392 C3400 1.574 . S
C3392 C3408 1.368 . S
H3393 C3401 0.950 . S
H3394 C3399 0.950 . S
H3395 C3400 0.949 . S
H3396 C3402 0.950 . S
H3397 C3403 0.950 . S
H3398 C3404 0.949 . S
C3399 H3394 0.950 . S
C3399 C3401 1.327 . S
C3399 C3405 1.429 . S
C3400 C3392 1.574 . S
C3400 H3395 0.949 . S
C3400 C3406 1.368 . S
C3401 C3385 1.349 . S
C3401 H3393 0.950 . S
C3401 C3399 1.327 . S
C3402 C3390 1.349 . S
C3402 H3396 0.950 . S
C3402 C3403 1.327 . S
C3403 H3397 0.950 . S
C3403 C3402 1.327 . S
C3403 C3407 1.429 . S
C3404 C3387 1.574 . S
C3404 H3398 0.949 . S
C3404 C3408 1.368 . S
C3405 C3386 1.429 . S
C3405 C3399 1.429 . S
C3405 C3406 1.523 . S
C3406 C3387 1.368 . S
C3406 C3400 1.368 . S
C3406 C3405 1.523 . S
C3407 C3391 1.429 . S
C3407 C3403 1.429 . S
C3407 C3408 1.523 . S
C3408 C3392 1.368 . S
C3408 C3404 1.368 . S
C3408 C3407 1.523 . S
H3409 C3384 0.950 . S
H3410 C3386 0.950 . S
H3411 C3387 0.949 . S
H3412 C3389 0.950 . S
H3413 C3391 0.950 . S
C3414 C3415 1.349 . S
C3414 C3416 1.327 . S
C3414 H3439 0.950 . S
C3415 C3414 1.349 . S
C3415 C3431 1.349 . S
C3416 C3414 1.327 . S
C3416 C3435 1.429 . S
C3416 H3440 0.950 . S
C3417 C3434 1.574 . S
C3417 C3436 1.368 . S
C3417 H3441 0.949 . S
H3418 C3422 0.949 . S
C3419 C3420 1.349 . S
C3419 C3421 1.327 . S
C3419 H3442 0.950 . S
C3420 C3419 1.349 . S
C3420 C3432 1.349 . S
C3421 C3419 1.327 . S
C3421 C3437 1.429 . S
C3421 H3443 0.950 . S
C3422 H3418 0.949 . S
C3422 C3430 1.574 . S
C3422 C3438 1.368 . S
H3423 C3431 0.950 . S
H3424 C3429 0.950 . S
H3425 C3430 0.949 . S
H3426 C3432 0.950 . S
H3427 C3433 0.950 . S
H3428 C3434 0.949 . S
C3429 H3424 0.950 . S
C3429 C3431 1.327 . S
C3429 C3435 1.429 . S
C3430 C3422 1.574 . S
C3430 H3425 0.949 . S
C3430 C3436 1.368 . S
C3431 C3415 1.349 . S
C3431 H3423 0.950 . S
C3431 C3429 1.327 . S
C3432 C3420 1.349 . S
C3432 H3426 0.950 . S
C3432 C3433 1.327 . S
C3433 H3427 0.950 . S
C3433 C3432 1.327 . S
C3433 C3437 1.429 . S
C3434 C3417 1.574 . S
C3434 H3428 0.949 . S
C3434 C3438 1.368 . S
C3435 C3416 1.429 . S
C3435 C3429 1.429 . S
C3435 C3436 1.523 . S
C3436 C3417 1.368 . S
C3436 C3430 1.368 . S
C3436 C3435 1.523 . S
C3437 C3421 1.429 . S
C3437 C3433 1.429 . S
C3437 C3438 1.523 . S
C3438 C3422 1.368 . S
C3438 C3434 1.368 . S
C3438 C3437 1.523 . S
H3439 C3414 0.950 . S
H3440 C3416 0.950 . S
H3441 C3417 0.949 . S
H3442 C3419 0.950 . S
H3443 C3421 0.950 . S
C3444 C3445 1.349 . S
C3444 C3446 1.327 . S
C3444 H3469 0.950 . S
C3445 C3444 1.349 . S
C3445 C3461 1.349 . S
C3446 C3444 1.327 . S
C3446 C3465 1.429 . S
C3446 H3470 0.950 . S
C3447 C3464 1.574 . S
C3447 C3466 1.368 . S
C3447 H3471 0.949 . S
H3448 C3452 0.949 . S
C3449 C3450 1.349 . S
C3449 C3451 1.327 . S
C3449 H3472 0.950 . S
C3450 C3449 1.349 . S
C3450 C3462 1.349 . S
C3451 C3449 1.327 . S
C3451 C3467 1.429 . S
C3451 H3473 0.950 . S
C3452 H3448 0.949 . S
C3452 C3460 1.574 . S
C3452 C3468 1.368 . S
H3453 C3461 0.950 . S
H3454 C3459 0.950 . S
H3455 C3460 0.949 . S
H3456 C3462 0.950 . S
H3457 C3463 0.950 . S
H3458 C3464 0.949 . S
C3459 H3454 0.950 . S
C3459 C3461 1.327 . S
C3459 C3465 1.429 . S
C3460 C3452 1.574 . S
C3460 H3455 0.949 . S
C3460 C3466 1.368 . S
C3461 C3445 1.349 . S
C3461 H3453 0.950 . S
C3461 C3459 1.327 . S
C3462 C3450 1.349 . S
C3462 H3456 0.950 . S
C3462 C3463 1.327 . S
C3463 H3457 0.950 . S
C3463 C3462 1.327 . S
C3463 C3467 1.429 . S
C3464 C3447 1.574 . S
C3464 H3458 0.949 . S
C3464 C3468 1.368 . S
C3465 C3446 1.429 . S
C3465 C3459 1.429 . S
C3465 C3466 1.523 . S
C3466 C3447 1.368 . S
C3466 C3460 1.368 . S
C3466 C3465 1.523 . S
C3467 C3451 1.429 . S
C3467 C3463 1.429 . S
C3467 C3468 1.523 . S
C3468 C3452 1.368 . S
C3468 C3464 1.368 . S
C3468 C3467 1.523 . S
H3469 C3444 0.950 . S
H3470 C3446 0.950 . S
H3471 C3447 0.949 . S
H3472 C3449 0.950 . S
H3473 C3451 0.950 . S
C3474 C3475 1.349 . S
C3474 C3476 1.327 . S
C3474 H3499 0.950 . S
C3475 C3474 1.349 . S
C3475 C3491 1.349 . S
C3476 C3474 1.327 . S
C3476 C3495 1.429 . S
C3476 H3500 0.950 . S
C3477 C3494 1.574 . S
C3477 C3496 1.368 . S
C3477 H3501 0.949 . S
H3478 C3482 0.949 . S
C3479 C3480 1.349 . S
C3479 C3481 1.327 . S
C3479 H3502 0.950 . S
C3480 C3479 1.349 . S
C3480 C3492 1.349 . S
C3481 C3479 1.327 . S
C3481 C3497 1.429 . S
C3481 H3503 0.950 . S
C3482 H3478 0.949 . S
C3482 C3490 1.574 . S
C3482 C3498 1.368 . S
H3483 C3491 0.950 . S
H3484 C3489 0.950 . S
H3485 C3490 0.949 . S
H3486 C3492 0.950 . S
H3487 C3493 0.950 . S
H3488 C3494 0.949 . S
C3489 H3484 0.950 . S
C3489 C3491 1.327 . S
C3489 C3495 1.429 . S
C3490 C3482 1.574 . S
C3490 H3485 0.949 . S
C3490 C3496 1.368 . S
C3491 C3475 1.349 . S
C3491 H3483 0.950 . S
C3491 C3489 1.327 . S
C3492 C3480 1.349 . S
C3492 H3486 0.950 . S
C3492 C3493 1.327 . S
C3493 H3487 0.950 . S
C3493 C3492 1.327 . S
C3493 C3497 1.429 . S
C3494 C3477 1.574 . S
C3494 H3488 0.949 . S
C3494 C3498 1.368 . S
C3495 C3476 1.429 . S
C3495 C3489 1.429 . S
C3495 C3496 1.523 . S
C3496 C3477 1.368 . S
C3496 C3490 1.368 . S
C3496 C3495 1.523 . S
C3497 C3481 1.429 . S
C3497 C3493 1.429 . S
C3497 C3498 1.523 . S
C3498 C3482 1.368 . S
C3498 C3494 1.368 . S
C3498 C3497 1.523 . S
H3499 C3474 0.950 . S
H3500 C3476 0.950 . S
H3501 C3477 0.949 . S
H3502 C3479 0.950 . S
H3503 C3481 0.950 . S
C3504 C3505 1.349 . S
C3504 C3506 1.327 . S
C3504 H3529 0.950 . S
C3505 C3504 1.349 . S
C3505 C3521 1.349 . S
C3506 C3504 1.327 . S
C3506 C3525 1.429 . S
C3506 H3530 0.950 . S
C3507 C3524 1.574 . S
C3507 C3526 1.368 . S
C3507 H3531 0.949 . S
H3508 C3512 0.949 . S
C3509 C3510 1.349 . S
C3509 C3511 1.327 . S
C3509 H3532 0.950 . S
C3510 C3509 1.349 . S
C3510 C3522 1.349 . S
C3511 C3509 1.327 . S
C3511 C3527 1.429 . S
C3511 H3533 0.950 . S
C3512 H3508 0.949 . S
C3512 C3520 1.574 . S
C3512 C3528 1.368 . S
H3513 C3521 0.950 . S
H3514 C3519 0.950 . S
H3515 C3520 0.949 . S
H3516 C3522 0.950 . S
H3517 C3523 0.950 . S
H3518 C3524 0.949 . S
C3519 H3514 0.950 . S
C3519 C3521 1.327 . S
C3519 C3525 1.429 . S
C3520 C3512 1.574 . S
C3520 H3515 0.949 . S
C3520 C3526 1.368 . S
C3521 C3505 1.349 . S
C3521 H3513 0.950 . S
C3521 C3519 1.327 . S
C3522 C3510 1.349 . S
C3522 H3516 0.950 . S
C3522 C3523 1.327 . S
C3523 H3517 0.950 . S
C3523 C3522 1.327 . S
C3523 C3527 1.429 . S
C3524 C3507 1.574 . S
C3524 H3518 0.949 . S
C3524 C3528 1.368 . S
C3525 C3506 1.429 . S
C3525 C3519 1.429 . S
C3525 C3526 1.523 . S
C3526 C3507 1.368 . S
C3526 C3520 1.368 . S
C3526 C3525 1.523 . S
C3527 C3511 1.429 . S
C3527 C3523 1.429 . S
C3527 C3528 1.523 . S
C3528 C3512 1.368 . S
C3528 C3524 1.368 . S
C3528 C3527 1.523 . S
H3529 C3504 0.950 . S
H3530 C3506 0.950 . S
H3531 C3507 0.949 . S
H3532 C3509 0.950 . S
H3533 C3511 0.950 . S
C3534 C3535 1.349 . S
C3534 C3536 1.327 . S
C3534 H3559 0.950 . S
C3535 C3534 1.349 . S
C3535 C3551 1.349 . S
C3536 C3534 1.327 . S
C3536 C3555 1.429 . S
C3536 H3560 0.950 . S
C3537 C3554 1.574 . S
C3537 C3556 1.368 . S
C3537 H3561 0.949 . S
H3538 C3542 0.949 . S
C3539 C3540 1.349 . S
C3539 C3541 1.327 . S
C3539 H3562 0.950 . S
C3540 C3539 1.349 . S
C3540 C3552 1.349 . S
C3541 C3539 1.327 . S
C3541 C3557 1.429 . S
C3541 H3563 0.950 . S
C3542 H3538 0.949 . S
C3542 C3550 1.574 . S
C3542 C3558 1.368 . S
H3543 C3551 0.950 . S
H3544 C3549 0.950 . S
H3545 C3550 0.949 . S
H3546 C3552 0.950 . S
H3547 C3553 0.950 . S
H3548 C3554 0.949 . S
C3549 H3544 0.950 . S
C3549 C3551 1.327 . S
C3549 C3555 1.429 . S
C3550 C3542 1.574 . S
C3550 H3545 0.949 . S
C3550 C3556 1.368 . S
C3551 C3535 1.349 . S
C3551 H3543 0.950 . S
C3551 C3549 1.327 . S
C3552 C3540 1.349 . S
C3552 H3546 0.950 . S
C3552 C3553 1.327 . S
C3553 H3547 0.950 . S
C3553 C3552 1.327 . S
C3553 C3557 1.429 . S
C3554 C3537 1.574 . S
C3554 H3548 0.949 . S
C3554 C3558 1.368 . S
C3555 C3536 1.429 . S
C3555 C3549 1.429 . S
C3555 C3556 1.523 . S
C3556 C3537 1.368 . S
C3556 C3550 1.368 . S
C3556 C3555 1.523 . S
C3557 C3541 1.429 . S
C3557 C3553 1.429 . S
C3557 C3558 1.523 . S
C3558 C3542 1.368 . S
C3558 C3554 1.368 . S
C3558 C3557 1.523 . S
H3559 C3534 0.950 . S
H3560 C3536 0.950 . S
H3561 C3537 0.949 . S
H3562 C3539 0.950 . S
H3563 C3541 0.950 . S
C3564 C3565 1.349 . S
C3564 C3566 1.327 . S
C3564 H3589 0.950 . S
C3565 C3564 1.349 . S
C3565 C3581 1.349 . S
C3566 C3564 1.327 . S
C3566 C3585 1.429 . S
C3566 H3590 0.950 . S
C3567 C3584 1.574 . S
C3567 C3586 1.368 . S
C3567 H3591 0.949 . S
H3568 C3572 0.949 . S
C3569 C3570 1.349 . S
C3569 C3571 1.327 . S
C3569 H3592 0.950 . S
C3570 C3569 1.349 . S
C3570 C3582 1.349 . S
C3571 C3569 1.327 . S
C3571 C3587 1.429 . S
C3571 H3593 0.950 . S
C3572 H3568 0.949 . S
C3572 C3580 1.574 . S
C3572 C3588 1.368 . S
H3573 C3581 0.950 . S
H3574 C3579 0.950 . S
H3575 C3580 0.949 . S
H3576 C3582 0.950 . S
H3577 C3583 0.950 . S
H3578 C3584 0.949 . S
C3579 H3574 0.950 . S
C3579 C3581 1.327 . S
C3579 C3585 1.429 . S
C3580 C3572 1.574 . S
C3580 H3575 0.949 . S
C3580 C3586 1.368 . S
C3581 C3565 1.349 . S
C3581 H3573 0.950 . S
C3581 C3579 1.327 . S
C3582 C3570 1.349 . S
C3582 H3576 0.950 . S
C3582 C3583 1.327 . S
C3583 H3577 0.950 . S
C3583 C3582 1.327 . S
C3583 C3587 1.429 . S
C3584 C3567 1.574 . S
C3584 H3578 0.949 . S
C3584 C3588 1.368 . S
C3585 C3566 1.429 . S
C3585 C3579 1.429 . S
C3585 C3586 1.523 . S
C3586 C3567 1.368 . S
C3586 C3580 1.368 . S
C3586 C3585 1.523 . S
C3587 C3571 1.429 . S
C3587 C3583 1.429 . S
C3587 C3588 1.523 . S
C3588 C3572 1.368 . S
C3588 C3584 1.368 . S
C3588 C3587 1.523 . S
H3589 C3564 0.950 . S
H3590 C3566 0.950 . S
H3591 C3567 0.949 . S
H3592 C3569 0.950 . S
H3593 C3571 0.950 . S
C3594 C3595 1.349 . S
C3594 C3596 1.327 . S
C3594 H3619 0.950 . S
C3595 C3594 1.349 . S
C3595 C3611 1.349 . S
C3596 C3594 1.327 . S
C3596 C3615 1.429 . S
C3596 H3620 0.950 . S
C3597 C3614 1.574 . S
C3597 C3616 1.368 . S
C3597 H3621 0.949 . S
H3598 C3602 0.949 . S
C3599 C3600 1.349 . S
C3599 C3601 1.327 . S
C3599 H3622 0.950 . S
C3600 C3599 1.349 . S
C3600 C3612 1.349 . S
C3601 C3599 1.327 . S
C3601 C3617 1.429 . S
C3601 H3623 0.950 . S
C3602 H3598 0.949 . S
C3602 C3610 1.574 . S
C3602 C3618 1.368 . S
H3603 C3611 0.950 . S
H3604 C3609 0.950 . S
H3605 C3610 0.949 . S
H3606 C3612 0.950 . S
H3607 C3613 0.950 . S
H3608 C3614 0.949 . S
C3609 H3604 0.950 . S
C3609 C3611 1.327 . S
C3609 C3615 1.429 . S
C3610 C3602 1.574 . S
C3610 H3605 0.949 . S
C3610 C3616 1.368 . S
C3611 C3595 1.349 . S
C3611 H3603 0.950 . S
C3611 C3609 1.327 . S
C3612 C3600 1.349 . S
C3612 H3606 0.950 . S
C3612 C3613 1.327 . S
C3613 H3607 0.950 . S
C3613 C3612 1.327 . S
C3613 C3617 1.429 . S
C3614 C3597 1.574 . S
C3614 H3608 0.949 . S
C3614 C3618 1.368 . S
C3615 C3596 1.429 . S
C3615 C3609 1.429 . S
C3615 C3616 1.523 . S
C3616 C3597 1.368 . S
C3616 C3610 1.368 . S
C3616 C3615 1.523 . S
C3617 C3601 1.429 . S
C3617 C3613 1.429 . S
C3617 C3618 1.523 . S
C3618 C3602 1.368 . S
C3618 C3614 1.368 . S
C3618 C3617 1.523 . S
H3619 C3594 0.950 . S
H3620 C3596 0.950 . S
H3621 C3597 0.949 . S
H3622 C3599 0.950 . S
H3623 C3601 0.950 . S
C3624 C3625 1.349 . S
C3624 C3626 1.327 . S
C3624 H3649 0.950 . S
C3625 C3624 1.349 . S
C3625 C3641 1.349 . S
C3626 C3624 1.327 . S
C3626 C3645 1.429 . S
C3626 H3650 0.950 . S
C3627 C3644 1.574 . S
C3627 C3646 1.368 . S
C3627 H3651 0.949 . S
H3628 C3632 0.949 . S
C3629 C3630 1.349 . S
C3629 C3631 1.327 . S
C3629 H3652 0.950 . S
C3630 C3629 1.349 . S
C3630 C3642 1.349 . S
C3631 C3629 1.327 . S
C3631 C3647 1.429 . S
C3631 H3653 0.950 . S
C3632 H3628 0.949 . S
C3632 C3640 1.574 . S
C3632 C3648 1.368 . S
H3633 C3641 0.950 . S
H3634 C3639 0.950 . S
H3635 C3640 0.949 . S
H3636 C3642 0.950 . S
H3637 C3643 0.950 . S
H3638 C3644 0.949 . S
C3639 H3634 0.950 . S
C3639 C3641 1.327 . S
C3639 C3645 1.429 . S
C3640 C3632 1.574 . S
C3640 H3635 0.949 . S
C3640 C3646 1.368 . S
C3641 C3625 1.349 . S
C3641 H3633 0.950 . S
C3641 C3639 1.327 . S
C3642 C3630 1.349 . S
C3642 H3636 0.950 . S
C3642 C3643 1.327 . S
C3643 H3637 0.950 . S
C3643 C3642 1.327 . S
C3643 C3647 1.429 . S
C3644 C3627 1.574 . S
C3644 H3638 0.949 . S
C3644 C3648 1.368 . S
C3645 C3626 1.429 . S
C3645 C3639 1.429 . S
C3645 C3646 1.523 . S
C3646 C3627 1.368 . S
C3646 C3640 1.368 . S
C3646 C3645 1.523 . S
C3647 C3631 1.429 . S
C3647 C3643 1.429 . S
C3647 C3648 1.523 . S
C3648 C3632 1.368 . S
C3648 C3644 1.368 . S
C3648 C3647 1.523 . S
H3649 C3624 0.950 . S
H3650 C3626 0.950 . S
H3651 C3627 0.949 . S
H3652 C3629 0.950 . S
H3653 C3631 0.950 . S
C3654 C3655 1.349 . S
C3654 C3656 1.327 . S
C3654 H3679 0.950 . S
C3655 C3654 1.349 . S
C3655 C3671 1.349 . S
C3656 C3654 1.327 . S
C3656 C3675 1.429 . S
C3656 H3680 0.950 . S
C3657 C3674 1.574 . S
C3657 C3676 1.368 . S
C3657 H3681 0.949 . S
H3658 C3662 0.949 . S
C3659 C3660 1.349 . S
C3659 C3661 1.327 . S
C3659 H3682 0.950 . S
C3660 C3659 1.349 . S
C3660 C3672 1.349 . S
C3661 C3659 1.327 . S
C3661 C3677 1.429 . S
C3661 H3683 0.950 . S
C3662 H3658 0.949 . S
C3662 C3670 1.574 . S
C3662 C3678 1.368 . S
H3663 C3671 0.950 . S
H3664 C3669 0.950 . S
H3665 C3670 0.949 . S
H3666 C3672 0.950 . S
H3667 C3673 0.950 . S
H3668 C3674 0.949 . S
C3669 H3664 0.950 . S
C3669 C3671 1.327 . S
C3669 C3675 1.429 . S
C3670 C3662 1.574 . S
C3670 H3665 0.949 . S
C3670 C3676 1.368 . S
C3671 C3655 1.349 . S
C3671 H3663 0.950 . S
C3671 C3669 1.327 . S
C3672 C3660 1.349 . S
C3672 H3666 0.950 . S
C3672 C3673 1.327 . S
C3673 H3667 0.950 . S
C3673 C3672 1.327 . S
C3673 C3677 1.429 . S
C3674 C3657 1.574 . S
C3674 H3668 0.949 . S
C3674 C3678 1.368 . S
C3675 C3656 1.429 . S
C3675 C3669 1.429 . S
C3675 C3676 1.523 . S
C3676 C3657 1.368 . S
C3676 C3670 1.368 . S
C3676 C3675 1.523 . S
C3677 C3661 1.429 . S
C3677 C3673 1.429 . S
C3677 C3678 1.523 . S
C3678 C3662 1.368 . S
C3678 C3674 1.368 . S
C3678 C3677 1.523 . S
H3679 C3654 0.950 . S
H3680 C3656 0.950 . S
H3681 C3657 0.949 . S
H3682 C3659 0.950 . S
H3683 C3661 0.950 . S
C3684 C3685 1.349 . S
C3684 C3686 1.327 . S
C3684 H3709 0.950 . S
C3685 C3684 1.349 . S
C3685 C3701 1.349 . S
C3686 C3684 1.327 . S
C3686 C3705 1.429 . S
C3686 H3710 0.950 . S
C3687 C3704 1.574 . S
C3687 C3706 1.368 . S
C3687 H3711 0.949 . S
H3688 C3692 0.949 . S
C3689 C3690 1.349 . S
C3689 C3691 1.327 . S
C3689 H3712 0.950 . S
C3690 C3689 1.349 . S
C3690 C3702 1.349 . S
C3691 C3689 1.327 . S
C3691 C3707 1.429 . S
C3691 H3713 0.950 . S
C3692 H3688 0.949 . S
C3692 C3700 1.574 . S
C3692 C3708 1.368 . S
H3693 C3701 0.950 . S
H3694 C3699 0.950 . S
H3695 C3700 0.949 . S
H3696 C3702 0.950 . S
H3697 C3703 0.950 . S
H3698 C3704 0.949 . S
C3699 H3694 0.950 . S
C3699 C3701 1.327 . S
C3699 C3705 1.429 . S
C3700 C3692 1.574 . S
C3700 H3695 0.949 . S
C3700 C3706 1.368 . S
C3701 C3685 1.349 . S
C3701 H3693 0.950 . S
C3701 C3699 1.327 . S
C3702 C3690 1.349 . S
C3702 H3696 0.950 . S
C3702 C3703 1.327 . S
C3703 H3697 0.950 . S
C3703 C3702 1.327 . S
C3703 C3707 1.429 . S
C3704 C3687 1.574 . S
C3704 H3698 0.949 . S
C3704 C3708 1.368 . S
C3705 C3686 1.429 . S
C3705 C3699 1.429 . S
C3705 C3706 1.523 . S
C3706 C3687 1.368 . S
C3706 C3700 1.368 . S
C3706 C3705 1.523 . S
C3707 C3691 1.429 . S
C3707 C3703 1.429 . S
C3707 C3708 1.523 . S
C3708 C3692 1.368 . S
C3708 C3704 1.368 . S
C3708 C3707 1.523 . S
H3709 C3684 0.950 . S
H3710 C3686 0.950 . S
H3711 C3687 0.949 . S
H3712 C3689 0.950 . S
H3713 C3691 0.950 . S
C3714 C3715 1.349 . S
C3714 C3716 1.327 . S
C3714 H3739 0.950 . S
C3715 C3714 1.349 . S
C3715 C3731 1.349 . S
C3716 C3714 1.327 . S
C3716 C3735 1.429 . S
C3716 H3740 0.950 . S
C3717 C3734 1.574 . S
C3717 C3736 1.368 . S
C3717 H3741 0.949 . S
H3718 C3722 0.949 . S
C3719 C3720 1.349 . S
C3719 C3721 1.327 . S
C3719 H3742 0.950 . S
C3720 C3719 1.349 . S
C3720 C3732 1.349 . S
C3721 C3719 1.327 . S
C3721 C3737 1.429 . S
C3721 H3743 0.950 . S
C3722 H3718 0.949 . S
C3722 C3730 1.574 . S
C3722 C3738 1.368 . S
H3723 C3731 0.950 . S
H3724 C3729 0.950 . S
H3725 C3730 0.949 . S
H3726 C3732 0.950 . S
H3727 C3733 0.950 . S
H3728 C3734 0.949 . S
C3729 H3724 0.950 . S
C3729 C3731 1.327 . S
C3729 C3735 1.429 . S
C3730 C3722 1.574 . S
C3730 H3725 0.949 . S
C3730 C3736 1.368 . S
C3731 C3715 1.349 . S
C3731 H3723 0.950 . S
C3731 C3729 1.327 . S
C3732 C3720 1.349 . S
C3732 H3726 0.950 . S
C3732 C3733 1.327 . S
C3733 H3727 0.950 . S
C3733 C3732 1.327 . S
C3733 C3737 1.429 . S
C3734 C3717 1.574 . S
C3734 H3728 0.949 . S
C3734 C3738 1.368 . S
C3735 C3716 1.429 . S
C3735 C3729 1.429 . S
C3735 C3736 1.523 . S
C3736 C3717 1.368 . S
C3736 C3730 1.368 . S
C3736 C3735 1.523 . S
C3737 C3721 1.429 . S
C3737 C3733 1.429 . S
C3737 C3738 1.523 . S
C3738 C3722 1.368 . S
C3738 C3734 1.368 . S
C3738 C3737 1.523 . S
H3739 C3714 0.950 . S
H3740 C3716 0.950 . S
H3741 C3717 0.949 . S
H3742 C3719 0.950 . S
H3743 C3721 0.950 . S
C3744 C3745 1.349 . S
C3744 C3746 1.327 . S
C3744 H3769 0.950 . S
C3745 C3744 1.349 . S
C3745 C3761 1.349 . S
C3746 C3744 1.327 . S
C3746 C3765 1.429 . S
C3746 H3770 0.950 . S
C3747 C3764 1.574 . S
C3747 C3766 1.368 . S
C3747 H3771 0.949 . S
H3748 C3752 0.949 . S
C3749 C3750 1.349 . S
C3749 C3751 1.327 . S
C3749 H3772 0.950 . S
C3750 C3749 1.349 . S
C3750 C3762 1.349 . S
C3751 C3749 1.327 . S
C3751 C3767 1.429 . S
C3751 H3773 0.950 . S
C3752 H3748 0.949 . S
C3752 C3760 1.574 . S
C3752 C3768 1.368 . S
H3753 C3761 0.950 . S
H3754 C3759 0.950 . S
H3755 C3760 0.949 . S
H3756 C3762 0.950 . S
H3757 C3763 0.950 . S
H3758 C3764 0.949 . S
C3759 H3754 0.950 . S
C3759 C3761 1.327 . S
C3759 C3765 1.429 . S
C3760 C3752 1.574 . S
C3760 H3755 0.949 . S
C3760 C3766 1.368 . S
C3761 C3745 1.349 . S
C3761 H3753 0.950 . S
C3761 C3759 1.327 . S
C3762 C3750 1.349 . S
C3762 H3756 0.950 . S
C3762 C3763 1.327 . S
C3763 H3757 0.950 . S
C3763 C3762 1.327 . S
C3763 C3767 1.429 . S
C3764 C3747 1.574 . S
C3764 H3758 0.949 . S
C3764 C3768 1.368 . S
C3765 C3746 1.429 . S
C3765 C3759 1.429 . S
C3765 C3766 1.523 . S
C3766 C3747 1.368 . S
C3766 C3760 1.368 . S
C3766 C3765 1.523 . S
C3767 C3751 1.429 . S
C3767 C3763 1.429 . S
C3767 C3768 1.523 . S
C3768 C3752 1.368 . S
C3768 C3764 1.368 . S
C3768 C3767 1.523 . S
H3769 C3744 0.950 . S
H3770 C3746 0.950 . S
H3771 C3747 0.949 . S
H3772 C3749 0.950 . S
H3773 C3751 0.950 . S
C3774 C3775 1.349 . S
C3774 C3776 1.327 . S
C3774 H3799 0.950 . S
C3775 C3774 1.349 . S
C3775 C3791 1.349 . S
C3776 C3774 1.327 . S
C3776 C3795 1.429 . S
C3776 H3800 0.950 . S
C3777 C3794 1.574 . S
C3777 C3796 1.368 . S
C3777 H3801 0.949 . S
H3778 C3782 0.949 . S
C3779 C3780 1.349 . S
C3779 C3781 1.327 . S
C3779 H3802 0.950 . S
C3780 C3779 1.349 . S
C3780 C3792 1.349 . S
C3781 C3779 1.327 . S
C3781 C3797 1.429 . S
C3781 H3803 0.950 . S
C3782 H3778 0.949 . S
C3782 C3790 1.574 . S
C3782 C3798 1.368 . S
H3783 C3791 0.950 . S
H3784 C3789 0.950 . S
H3785 C3790 0.949 . S
H3786 C3792 0.950 . S
H3787 C3793 0.950 . S
H3788 C3794 0.949 . S
C3789 H3784 0.950 . S
C3789 C3791 1.327 . S
C3789 C3795 1.429 . S
C3790 C3782 1.574 . S
C3790 H3785 0.949 . S
C3790 C3796 1.368 . S
C3791 C3775 1.349 . S
C3791 H3783 0.950 . S
C3791 C3789 1.327 . S
C3792 C3780 1.349 . S
C3792 H3786 0.950 . S
C3792 C3793 1.327 . S
C3793 H3787 0.950 . S
C3793 C3792 1.327 . S
C3793 C3797 1.429 . S
C3794 C3777 1.574 . S
C3794 H3788 0.949 . S
C3794 C3798 1.368 . S
C3795 C3776 1.429 . S
C3795 C3789 1.429 . S
C3795 C3796 1.523 . S
C3796 C3777 1.368 . S
C3796 C3790 1.368 . S
C3796 C3795 1.523 . S
C3797 C3781 1.429 . S
C3797 C3793 1.429 . S
C3797 C3798 1.523 . S
C3798 C3782 1.368 . S
C3798 C3794 1.368 . S
C3798 C3797 1.523 . S
H3799 C3774 0.950 . S
H3800 C3776 0.950 . S
H3801 C3777 0.949 . S
H3802 C3779 0.950 . S
H3803 C3781 0.950 . S
C3804 C3805 1.349 . S
C3804 C3806 1.327 . S
C3804 H3829 0.950 . S
C3805 C3804 1.349 . S
C3805 C3821 1.349 . S
C3806 C3804 1.327 . S
C3806 C3825 1.429 . S
C3806 H3830 0.950 . S
C3807 C3824 1.574 . S
C3807 C3826 1.368 . S
C3807 H3831 0.949 . S
H3808 C3812 0.949 . S
C3809 C3810 1.349 . S
C3809 C3811 1.327 . S
C3809 H3832 0.950 . S
C3810 C3809 1.349 . S
C3810 C3822 1.349 . S
C3811 C3809 1.327 . S
C3811 C3827 1.429 . S
C3811 H3833 0.950 . S
C3812 H3808 0.949 . S
C3812 C3820 1.574 . S
C3812 C3828 1.368 . S
H3813 C3821 0.950 . S
H3814 C3819 0.950 . S
H3815 C3820 0.949 . S
H3816 C3822 0.950 . S
H3817 C3823 0.950 . S
H3818 C3824 0.949 . S
C3819 H3814 0.950 . S
C3819 C3821 1.327 . S
C3819 C3825 1.429 . S
C3820 C3812 1.574 . S
C3820 H3815 0.949 . S
C3820 C3826 1.368 . S
C3821 C3805 1.349 . S
C3821 H3813 0.950 . S
C3821 C3819 1.327 . S
C3822 C3810 1.349 . S
C3822 H3816 0.950 . S
C3822 C3823 1.327 . S
C3823 H3817 0.950 . S
C3823 C3822 1.327 . S
C3823 C3827 1.429 . S
C3824 C3807 1.574 . S
C3824 H3818 0.949 . S
C3824 C3828 1.368 . S
C3825 C3806 1.429 . S
C3825 C3819 1.429 . S
C3825 C3826 1.523 . S
C3826 C3807 1.368 . S
C3826 C3820 1.368 . S
C3826 C3825 1.523 . S
C3827 C3811 1.429 . S
C3827 C3823 1.429 . S
C3827 C3828 1.523 . S
C3828 C3812 1.368 . S
C3828 C3824 1.368 . S
C3828 C3827 1.523 . S
H3829 C3804 0.950 . S
H3830 C3806 0.950 . S
H3831 C3807 0.949 . S
H3832 C3809 0.950 . S
H3833 C3811 0.950 . S
C3834 C3835 1.349 . S
C3834 C3836 1.327 . S
C3834 H3859 0.950 . S
C3835 C3834 1.349 . S
C3835 C3851 1.349 . S
C3836 C3834 1.327 . S
C3836 C3855 1.429 . S
C3836 H3860 0.950 . S
C3837 C3854 1.574 . S
C3837 C3856 1.368 . S
C3837 H3861 0.949 . S
H3838 C3842 0.949 . S
C3839 C3840 1.349 . S
C3839 C3841 1.327 . S
C3839 H3862 0.950 . S
C3840 C3839 1.349 . S
C3840 C3852 1.349 . S
C3841 C3839 1.327 . S
C3841 C3857 1.429 . S
C3841 H3863 0.950 . S
C3842 H3838 0.949 . S
C3842 C3850 1.574 . S
C3842 C3858 1.368 . S
H3843 C3851 0.950 . S
H3844 C3849 0.950 . S
H3845 C3850 0.949 . S
H3846 C3852 0.950 . S
H3847 C3853 0.950 . S
H3848 C3854 0.949 . S
C3849 H3844 0.950 . S
C3849 C3851 1.327 . S
C3849 C3855 1.429 . S
C3850 C3842 1.574 . S
C3850 H3845 0.949 . S
C3850 C3856 1.368 . S
C3851 C3835 1.349 . S
C3851 H3843 0.950 . S
C3851 C3849 1.327 . S
C3852 C3840 1.349 . S
C3852 H3846 0.950 . S
C3852 C3853 1.327 . S
C3853 H3847 0.950 . S
C3853 C3852 1.327 . S
C3853 C3857 1.429 . S
C3854 C3837 1.574 . S
C3854 H3848 0.949 . S
C3854 C3858 1.368 . S
C3855 C3836 1.429 . S
C3855 C3849 1.429 . S
C3855 C3856 1.523 . S
C3856 C3837 1.368 . S
C3856 C3850 1.368 . S
C3856 C3855 1.523 . S
C3857 C3841 1.429 . S
C3857 C3853 1.429 . S
C3857 C3858 1.523 . S
C3858 C3842 1.368 . S
C3858 C3854 1.368 . S
C3858 C3857 1.523 . S
H3859 C3834 0.950 . S
H3860 C3836 0.950 . S
H3861 C3837 0.949 . S
H3862 C3839 0.950 . S
H3863 C3841 0.950 . S
C3864 C3865 1.349 . S
C3864 C3866 1.327 . S
C3864 H3889 0.950 . S
C3865 C3864 1.349 . S
C3865 C3881 1.349 . S
C3866 C3864 1.327 . S
C3866 C3885 1.429 . S
C3866 H3890 0.950 . S
C3867 C3884 1.574 . S
C3867 C3886 1.368 . S
C3867 H3891 0.949 . S
H3868 C3872 0.949 . S
C3869 C3870 1.349 . S
C3869 C3871 1.327 . S
C3869 H3892 0.950 . S
C3870 C3869 1.349 . S
C3870 C3882 1.349 . S
C3871 C3869 1.327 . S
C3871 C3887 1.429 . S
C3871 H3893 0.950 . S
C3872 H3868 0.949 . S
C3872 C3880 1.574 . S
C3872 C3888 1.368 . S
H3873 C3881 0.950 . S
H3874 C3879 0.950 . S
H3875 C3880 0.949 . S
H3876 C3882 0.950 . S
H3877 C3883 0.950 . S
H3878 C3884 0.949 . S
C3879 H3874 0.950 . S
C3879 C3881 1.327 . S
C3879 C3885 1.429 . S
C3880 C3872 1.574 . S
C3880 H3875 0.949 . S
C3880 C3886 1.368 . S
C3881 C3865 1.349 . S
C3881 H3873 0.950 . S
C3881 C3879 1.327 . S
C3882 C3870 1.349 . S
C3882 H3876 0.950 . S
C3882 C3883 1.327 . S
C3883 H3877 0.950 . S
C3883 C3882 1.327 . S
C3883 C3887 1.429 . S
C3884 C3867 1.574 . S
C3884 H3878 0.949 . S
C3884 C3888 1.368 . S
C3885 C3866 1.429 . S
C3885 C3879 1.429 . S
C3885 C3886 1.523 . S
C3886 C3867 1.368 . S
C3886 C3880 1.368 . S
C3886 C3885 1.523 . S
C3887 C3871 1.429 . S
C3887 C3883 1.429 . S
C3887 C3888 1.523 . S
C3888 C3872 1.368 . S
C3888 C3884 1.368 . S
C3888 C3887 1.523 . S
H3889 C3864 0.950 . S
H3890 C3866 0.950 . S
H3891 C3867 0.949 . S
H3892 C3869 0.950 . S
H3893 C3871 0.950 . S
C3894 C3895 1.349 . S
C3894 C3896 1.327 . S
C3894 H3919 0.950 . S
C3895 C3894 1.349 . S
C3895 C3911 1.349 . S
C3896 C3894 1.327 . S
C3896 C3915 1.429 . S
C3896 H3920 0.950 . S
C3897 C3914 1.574 . S
C3897 C3916 1.368 . S
C3897 H3921 0.949 . S
H3898 C3902 0.949 . S
C3899 C3900 1.349 . S
C3899 C3901 1.327 . S
C3899 H3922 0.950 . S
C3900 C3899 1.349 . S
C3900 C3912 1.349 . S
C3901 C3899 1.327 . S
C3901 C3917 1.429 . S
C3901 H3923 0.950 . S
C3902 H3898 0.949 . S
C3902 C3910 1.574 . S
C3902 C3918 1.368 . S
H3903 C3911 0.950 . S
H3904 C3909 0.950 . S
H3905 C3910 0.949 . S
H3906 C3912 0.950 . S
H3907 C3913 0.950 . S
H3908 C3914 0.949 . S
C3909 H3904 0.950 . S
C3909 C3911 1.327 . S
C3909 C3915 1.429 . S
C3910 C3902 1.574 . S
C3910 H3905 0.949 . S
C3910 C3916 1.368 . S
C3911 C3895 1.349 . S
C3911 H3903 0.950 . S
C3911 C3909 1.327 . S
C3912 C3900 1.349 . S
C3912 H3906 0.950 . S
C3912 C3913 1.327 . S
C3913 H3907 0.950 . S
C3913 C3912 1.327 . S
C3913 C3917 1.429 . S
C3914 C3897 1.574 . S
C3914 H3908 0.949 . S
C3914 C3918 1.368 . S
C3915 C3896 1.429 . S
C3915 C3909 1.429 . S
C3915 C3916 1.523 . S
C3916 C3897 1.368 . S
C3916 C3910 1.368 . S
C3916 C3915 1.523 . S
C3917 C3901 1.429 . S
C3917 C3913 1.429 . S
C3917 C3918 1.523 . S
C3918 C3902 1.368 . S
C3918 C3914 1.368 . S
C3918 C3917 1.523 . S
H3919 C3894 0.950 . S
H3920 C3896 0.950 . S
H3921 C3897 0.949 . S
H3922 C3899 0.950 . S
H3923 C3901 0.950 . S
C3924 C3925 1.349 . S
C3924 C3926 1.327 . S
C3924 H3949 0.950 . S
C3925 C3924 1.349 . S
C3925 C3941 1.349 . S
C3926 C3924 1.327 . S
C3926 C3945 1.429 . S
C3926 H3950 0.950 . S
C3927 C3944 1.574 . S
C3927 C3946 1.368 . S
C3927 H3951 0.949 . S
H3928 C3932 0.949 . S
C3929 C3930 1.349 . S
C3929 C3931 1.327 . S
C3929 H3952 0.950 . S
C3930 C3929 1.349 . S
C3930 C3942 1.349 . S
C3931 C3929 1.327 . S
C3931 C3947 1.429 . S
C3931 H3953 0.950 . S
C3932 H3928 0.949 . S
C3932 C3940 1.574 . S
C3932 C3948 1.368 . S
H3933 C3941 0.950 . S
H3934 C3939 0.950 . S
H3935 C3940 0.949 . S
H3936 C3942 0.950 . S
H3937 C3943 0.950 . S
H3938 C3944 0.949 . S
C3939 H3934 0.950 . S
C3939 C3941 1.327 . S
C3939 C3945 1.429 . S
C3940 C3932 1.574 . S
C3940 H3935 0.949 . S
C3940 C3946 1.368 . S
C3941 C3925 1.349 . S
C3941 H3933 0.950 . S
C3941 C3939 1.327 . S
C3942 C3930 1.349 . S
C3942 H3936 0.950 . S
C3942 C3943 1.327 . S
C3943 H3937 0.950 . S
C3943 C3942 1.327 . S
C3943 C3947 1.429 . S
C3944 C3927 1.574 . S
C3944 H3938 0.949 . S
C3944 C3948 1.368 . S
C3945 C3926 1.429 . S
C3945 C3939 1.429 . S
C3945 C3946 1.523 . S
C3946 C3927 1.368 . S
C3946 C3940 1.368 . S
C3946 C3945 1.523 . S
C3947 C3931 1.429 . S
C3947 C3943 1.429 . S
C3947 C3948 1.523 . S
C3948 C3932 1.368 . S
C3948 C3944 1.368 . S
C3948 C3947 1.523 . S
H3949 C3924 0.950 . S
H3950 C3926 0.950 . S
H3951 C3927 0.949 . S
H3952 C3929 0.950 . S
H3953 C3931 0.950 . S
C3954 C3955 1.349 . S
C3954 C3956 1.327 . S
C3954 H3979 0.950 . S
C3955 C3954 1.349 . S
C3955 C3971 1.349 . S
C3956 C3954 1.327 . S
C3956 C3975 1.429 . S
C3956 H3980 0.950 . S
C3957 C3974 1.574 . S
C3957 C3976 1.368 . S
C3957 H3981 0.949 . S
H3958 C3962 0.949 . S
C3959 C3960 1.349 . S
C3959 C3961 1.327 . S
C3959 H3982 0.950 . S
C3960 C3959 1.349 . S
C3960 C3972 1.349 . S
C3961 C3959 1.327 . S
C3961 C3977 1.429 . S
C3961 H3983 0.950 . S
C3962 H3958 0.949 . S
C3962 C3970 1.574 . S
C3962 C3978 1.368 . S
H3963 C3971 0.950 . S
H3964 C3969 0.950 . S
H3965 C3970 0.949 . S
H3966 C3972 0.950 . S
H3967 C3973 0.950 . S
H3968 C3974 0.949 . S
C3969 H3964 0.950 . S
C3969 C3971 1.327 . S
C3969 C3975 1.429 . S
C3970 C3962 1.574 . S
C3970 H3965 0.949 . S
C3970 C3976 1.368 . S
C3971 C3955 1.349 . S
C3971 H3963 0.950 . S
C3971 C3969 1.327 . S
C3972 C3960 1.349 . S
C3972 H3966 0.950 . S
C3972 C3973 1.327 . S
C3973 H3967 0.950 . S
C3973 C3972 1.327 . S
C3973 C3977 1.429 . S
C3974 C3957 1.574 . S
C3974 H3968 0.949 . S
C3974 C3978 1.368 . S
C3975 C3956 1.429 . S
C3975 C3969 1.429 . S
C3975 C3976 1.523 . S
C3976 C3957 1.368 . S
C3976 C3970 1.368 . S
C3976 C3975 1.523 . S
C3977 C3961 1.429 . S
C3977 C3973 1.429 . S
C3977 C3978 1.523 . S
C3978 C3962 1.368 . S
C3978 C3974 1.368 . S
C3978 C3977 1.523 . S
H3979 C3954 0.950 . S
H3980 C3956 0.950 . S
H3981 C3957 0.949 . S
H3982 C3959 0.950 . S
H3983 C3961 0.950 . S
C3984 C3985 1.349 . S
C3984 C3986 1.327 . S
C3984 H4009 0.950 . S
C3985 C3984 1.349 . S
C3985 C4001 1.349 . S
C3986 C3984 1.327 . S
C3986 C4005 1.429 . S
C3986 H4010 0.950 . S
C3987 C4004 1.574 . S
C3987 C4006 1.368 . S
C3987 H4011 0.949 . S
H3988 C3992 0.949 . S
C3989 C3990 1.349 . S
C3989 C3991 1.327 . S
C3989 H4012 0.950 . S
C3990 C3989 1.349 . S
C3990 C4002 1.349 . S
C3991 C3989 1.327 . S
C3991 C4007 1.429 . S
C3991 H4013 0.950 . S
C3992 H3988 0.949 . S
C3992 C4000 1.574 . S
C3992 C4008 1.368 . S
H3993 C4001 0.950 . S
H3994 C3999 0.950 . S
H3995 C4000 0.949 . S
H3996 C4002 0.950 . S
H3997 C4003 0.950 . S
H3998 C4004 0.949 . S
C3999 H3994 0.950 . S
C3999 C4001 1.327 . S
C3999 C4005 1.429 . S
C4000 C3992 1.574 . S
C4000 H3995 0.949 . S
C4000 C4006 1.368 . S
C4001 C3985 1.349 . S
C4001 H3993 0.950 . S
C4001 C3999 1.327 . S
C4002 C3990 1.349 . S
C4002 H3996 0.950 . S
C4002 C4003 1.327 . S
C4003 H3997 0.950 . S
C4003 C4002 1.327 . S
C4003 C4007 1.429 . S
C4004 C3987 1.574 . S
C4004 H3998 0.949 . S
C4004 C4008 1.368 . S
C4005 C3986 1.429 . S
C4005 C3999 1.429 . S
C4005 C4006 1.523 . S
C4006 C3987 1.368 . S
C4006 C4000 1.368 . S
C4006 C4005 1.523 . S
C4007 C3991 1.429 . S
C4007 C4003 1.429 . S
C4007 C4008 1.523 . S
C4008 C3992 1.368 . S
C4008 C4004 1.368 . S
C4008 C4007 1.523 . S
H4009 C3984 0.950 . S
H4010 C3986 0.950 . S
H4011 C3987 0.949 . S
H4012 C3989 0.950 . S
H4013 C3991 0.950 . S
C4014 C4015 1.349 . S
C4014 C4016 1.327 . S
C4014 H4039 0.950 . S
C4015 C4014 1.349 . S
C4015 C4031 1.349 . S
C4016 C4014 1.327 . S
C4016 C4035 1.429 . S
C4016 H4040 0.950 . S
C4017 C4034 1.574 . S
C4017 C4036 1.368 . S
C4017 H4041 0.949 . S
H4018 C4022 0.949 . S
C4019 C4020 1.349 . S
C4019 C4021 1.327 . S
C4019 H4042 0.950 . S
C4020 C4019 1.349 . S
C4020 C4032 1.349 . S
C4021 C4019 1.327 . S
C4021 C4037 1.429 . S
C4021 H4043 0.950 . S
C4022 H4018 0.949 . S
C4022 C4030 1.574 . S
C4022 C4038 1.368 . S
H4023 C4031 0.950 . S
H4024 C4029 0.950 . S
H4025 C4030 0.949 . S
H4026 C4032 0.950 . S
H4027 C4033 0.950 . S
H4028 C4034 0.949 . S
C4029 H4024 0.950 . S
C4029 C4031 1.327 . S
C4029 C4035 1.429 . S
C4030 C4022 1.574 . S
C4030 H4025 0.949 . S
C4030 C4036 1.368 . S
C4031 C4015 1.349 . S
C4031 H4023 0.950 . S
C4031 C4029 1.327 . S
C4032 C4020 1.349 . S
C4032 H4026 0.950 . S
C4032 C4033 1.327 . S
C4033 H4027 0.950 . S
C4033 C4032 1.327 . S
C4033 C4037 1.429 . S
C4034 C4017 1.574 . S
C4034 H4028 0.949 . S
C4034 C4038 1.368 . S
C4035 C4016 1.429 . S
C4035 C4029 1.429 . S
C4035 C4036 1.523 . S
C4036 C4017 1.368 . S
C4036 C4030 1.368 . S
C4036 C4035 1.523 . S
C4037 C4021 1.429 . S
C4037 C4033 1.429 . S
C4037 C4038 1.523 . S
C4038 C4022 1.368 . S
C4038 C4034 1.368 . S
C4038 C4037 1.523 . S
H4039 C4014 0.950 . S
H4040 C4016 0.950 . S
H4041 C4017 0.949 . S
H4042 C4019 0.950 . S
H4043 C4021 0.950 . S
C4044 C4045 1.349 . S
C4044 C4046 1.327 . S
C4044 H4069 0.950 . S
C4045 C4044 1.349 . S
C4045 C4061 1.349 . S
C4046 C4044 1.327 . S
C4046 C4065 1.429 . S
C4046 H4070 0.950 . S
C4047 C4064 1.574 . S
C4047 C4066 1.368 . S
C4047 H4071 0.949 . S
H4048 C4052 0.949 . S
C4049 C4050 1.349 . S
C4049 C4051 1.327 . S
C4049 H4072 0.950 . S
C4050 C4049 1.349 . S
C4050 C4062 1.349 . S
C4051 C4049 1.327 . S
C4051 C4067 1.429 . S
C4051 H4073 0.950 . S
C4052 H4048 0.949 . S
C4052 C4060 1.574 . S
C4052 C4068 1.368 . S
H4053 C4061 0.950 . S
H4054 C4059 0.950 . S
H4055 C4060 0.949 . S
H4056 C4062 0.950 . S
H4057 C4063 0.950 . S
H4058 C4064 0.949 . S
C4059 H4054 0.950 . S
C4059 C4061 1.327 . S
C4059 C4065 1.429 . S
C4060 C4052 1.574 . S
C4060 H4055 0.949 . S
C4060 C4066 1.368 . S
C4061 C4045 1.349 . S
C4061 H4053 0.950 . S
C4061 C4059 1.327 . S
C4062 C4050 1.349 . S
C4062 H4056 0.950 . S
C4062 C4063 1.327 . S
C4063 H4057 0.950 . S
C4063 C4062 1.327 . S
C4063 C4067 1.429 . S
C4064 C4047 1.574 . S
C4064 H4058 0.949 . S
C4064 C4068 1.368 . S
C4065 C4046 1.429 . S
C4065 C4059 1.429 . S
C4065 C4066 1.523 . S
C4066 C4047 1.368 . S
C4066 C4060 1.368 . S
C4066 C4065 1.523 . S
C4067 C4051 1.429 . S
C4067 C4063 1.429 . S
C4067 C4068 1.523 . S
C4068 C4052 1.368 . S
C4068 C4064 1.368 . S
C4068 C4067 1.523 . S
H4069 C4044 0.950 . S
H4070 C4046 0.950 . S
H4071 C4047 0.949 . S
H4072 C4049 0.950 . S
H4073 C4051 0.950 . S
C4074 C4075 1.349 . S
C4074 C4076 1.327 . S
C4074 H4099 0.950 . S
C4075 C4074 1.349 . S
C4075 C4091 1.349 . S
C4076 C4074 1.327 . S
C4076 C4095 1.429 . S
C4076 H4100 0.950 . S
C4077 C4094 1.574 . S
C4077 C4096 1.368 . S
C4077 H4101 0.949 . S
H4078 C4082 0.949 . S
C4079 C4080 1.349 . S
C4079 C4081 1.327 . S
C4079 H4102 0.950 . S
C4080 C4079 1.349 . S
C4080 C4092 1.349 . S
C4081 C4079 1.327 . S
C4081 C4097 1.429 . S
C4081 H4103 0.950 . S
C4082 H4078 0.949 . S
C4082 C4090 1.574 . S
C4082 C4098 1.368 . S
H4083 C4091 0.950 . S
H4084 C4089 0.950 . S
H4085 C4090 0.949 . S
H4086 C4092 0.950 . S
H4087 C4093 0.950 . S
H4088 C4094 0.949 . S
C4089 H4084 0.950 . S
C4089 C4091 1.327 . S
C4089 C4095 1.429 . S
C4090 C4082 1.574 . S
C4090 H4085 0.949 . S
C4090 C4096 1.368 . S
C4091 C4075 1.349 . S
C4091 H4083 0.950 . S
C4091 C4089 1.327 . S
C4092 C4080 1.349 . S
C4092 H4086 0.950 . S
C4092 C4093 1.327 . S
C4093 H4087 0.950 . S
C4093 C4092 1.327 . S
C4093 C4097 1.429 . S
C4094 C4077 1.574 . S
C4094 H4088 0.949 . S
C4094 C4098 1.368 . S
C4095 C4076 1.429 . S
C4095 C4089 1.429 . S
C4095 C4096 1.523 . S
C4096 C4077 1.368 . S
C4096 C4090 1.368 . S
C4096 C4095 1.523 . S
C4097 C4081 1.429 . S
C4097 C4093 1.429 . S
C4097 C4098 1.523 . S
C4098 C4082 1.368 . S
C4098 C4094 1.368 . S
C4098 C4097 1.523 . S
H4099 C4074 0.950 . S
H4100 C4076 0.950 . S
H4101 C4077 0.949 . S
H4102 C4079 0.950 . S
H4103 C4081 0.950 . S
C4104 C4105 1.349 . S
C4104 C4106 1.327 . S
C4104 H4129 0.950 . S
C4105 C4104 1.349 . S
C4105 C4121 1.349 . S
C4106 C4104 1.327 . S
C4106 C4125 1.429 . S
C4106 H4130 0.950 . S
C4107 C4124 1.574 . S
C4107 C4126 1.368 . S
C4107 H4131 0.949 . S
H4108 C4112 0.949 . S
C4109 C4110 1.349 . S
C4109 C4111 1.327 . S
C4109 H4132 0.950 . S
C4110 C4109 1.349 . S
C4110 C4122 1.349 . S
C4111 C4109 1.327 . S
C4111 C4127 1.429 . S
C4111 H4133 0.950 . S
C4112 H4108 0.949 . S
C4112 C4120 1.574 . S
C4112 C4128 1.368 . S
H4113 C4121 0.950 . S
H4114 C4119 0.950 . S
H4115 C4120 0.949 . S
H4116 C4122 0.950 . S
H4117 C4123 0.950 . S
H4118 C4124 0.949 . S
C4119 H4114 0.950 . S
C4119 C4121 1.327 . S
C4119 C4125 1.429 . S
C4120 C4112 1.574 . S
C4120 H4115 0.949 . S
C4120 C4126 1.368 . S
C4121 C4105 1.349 . S
C4121 H4113 0.950 . S
C4121 C4119 1.327 . S
C4122 C4110 1.349 . S
C4122 H4116 0.950 . S
C4122 C4123 1.327 . S
C4123 H4117 0.950 . S
C4123 C4122 1.327 . S
C4123 C4127 1.429 . S
C4124 C4107 1.574 . S
C4124 H4118 0.949 . S
C4124 C4128 1.368 . S
C4125 C4106 1.429 . S
C4125 C4119 1.429 . S
C4125 C4126 1.523 . S
C4126 C4107 1.368 . S
C4126 C4120 1.368 . S
C4126 C4125 1.523 . S
C4127 C4111 1.429 . S
C4127 C4123 1.429 . S
C4127 C4128 1.523 . S
C4128 C4112 1.368 . S
C4128 C4124 1.368 . S
C4128 C4127 1.523 . S
H4129 C4104 0.950 . S
H4130 C4106 0.950 . S
H4131 C4107 0.949 . S
H4132 C4109 0.950 . S
H4133 C4111 0.950 . S
C4134 C4135 1.349 . S
C4134 C4136 1.327 . S
C4134 H4159 0.950 . S
C4135 C4134 1.349 . S
C4135 C4151 1.349 . S
C4136 C4134 1.327 . S
C4136 C4155 1.429 . S
C4136 H4160 0.950 . S
C4137 C4154 1.574 . S
C4137 C4156 1.368 . S
C4137 H4161 0.949 . S
H4138 C4142 0.949 . S
C4139 C4140 1.349 . S
C4139 C4141 1.327 . S
C4139 H4162 0.950 . S
C4140 C4139 1.349 . S
C4140 C4152 1.349 . S
C4141 C4139 1.327 . S
C4141 C4157 1.429 . S
C4141 H4163 0.950 . S
C4142 H4138 0.949 . S
C4142 C4150 1.574 . S
C4142 C4158 1.368 . S
H4143 C4151 0.950 . S
H4144 C4149 0.950 . S
H4145 C4150 0.949 . S
H4146 C4152 0.950 . S
H4147 C4153 0.950 . S
H4148 C4154 0.949 . S
C4149 H4144 0.950 . S
C4149 C4151 1.327 . S
C4149 C4155 1.429 . S
C4150 C4142 1.574 . S
C4150 H4145 0.949 . S
C4150 C4156 1.368 . S
C4151 C4135 1.349 . S
C4151 H4143 0.950 . S
C4151 C4149 1.327 . S
C4152 C4140 1.349 . S
C4152 H4146 0.950 . S
C4152 C4153 1.327 . S
C4153 H4147 0.950 . S
C4153 C4152 1.327 . S
C4153 C4157 1.429 . S
C4154 C4137 1.574 . S
C4154 H4148 0.949 . S
C4154 C4158 1.368 . S
C4155 C4136 1.429 . S
C4155 C4149 1.429 . S
C4155 C4156 1.523 . S
C4156 C4137 1.368 . S
C4156 C4150 1.368 . S
C4156 C4155 1.523 . S
C4157 C4141 1.429 . S
C4157 C4153 1.429 . S
C4157 C4158 1.523 . S
C4158 C4142 1.368 . S
C4158 C4154 1.368 . S
C4158 C4157 1.523 . S
H4159 C4134 0.950 . S
H4160 C4136 0.950 . S
H4161 C4137 0.949 . S
H4162 C4139 0.950 . S
H4163 C4141 0.950 . S
C4164 C4165 1.349 . S
C4164 C4166 1.327 . S
C4164 H4189 0.950 . S
C4165 C4164 1.349 . S
C4165 C4181 1.349 . S
C4166 C4164 1.327 . S
C4166 C4185 1.429 . S
C4166 H4190 0.950 . S
C4167 C4184 1.574 . S
C4167 C4186 1.368 . S
C4167 H4191 0.949 . S
H4168 C4172 0.949 . S
C4169 C4170 1.349 . S
C4169 C4171 1.327 . S
C4169 H4192 0.950 . S
C4170 C4169 1.349 . S
C4170 C4182 1.349 . S
C4171 C4169 1.327 . S
C4171 C4187 1.429 . S
C4171 H4193 0.950 . S
C4172 H4168 0.949 . S
C4172 C4180 1.574 . S
C4172 C4188 1.368 . S
H4173 C4181 0.950 . S
H4174 C4179 0.950 . S
H4175 C4180 0.949 . S
H4176 C4182 0.950 . S
H4177 C4183 0.950 . S
H4178 C4184 0.949 . S
C4179 H4174 0.950 . S
C4179 C4181 1.327 . S
C4179 C4185 1.429 . S
C4180 C4172 1.574 . S
C4180 H4175 0.949 . S
C4180 C4186 1.368 . S
C4181 C4165 1.349 . S
C4181 H4173 0.950 . S
C4181 C4179 1.327 . S
C4182 C4170 1.349 . S
C4182 H4176 0.950 . S
C4182 C4183 1.327 . S
C4183 H4177 0.950 . S
C4183 C4182 1.327 . S
C4183 C4187 1.429 . S
C4184 C4167 1.574 . S
C4184 H4178 0.949 . S
C4184 C4188 1.368 . S
C4185 C4166 1.429 . S
C4185 C4179 1.429 . S
C4185 C4186 1.523 . S
C4186 C4167 1.368 . S
C4186 C4180 1.368 . S
C4186 C4185 1.523 . S
C4187 C4171 1.429 . S
C4187 C4183 1.429 . S
C4187 C4188 1.523 . S
C4188 C4172 1.368 . S
C4188 C4184 1.368 . S
C4188 C4187 1.523 . S
H4189 C4164 0.950 . S
H4190 C4166 0.950 . S
H4191 C4167 0.949 . S
H4192 C4169 0.950 . S
H4193 C4171 0.950 . S
C4194 C4195 1.349 . S
C4194 C4196 1.327 . S
C4194 H4219 0.950 . S
C4195 C4194 1.349 . S
C4195 C4211 1.349 . S
C4196 C4194 1.327 . S
C4196 C4215 1.429 . S
C4196 H4220 0.950 . S
C4197 C4214 1.574 . S
C4197 C4216 1.368 . S
C4197 H4221 0.949 . S
H4198 C4202 0.949 . S
C4199 C4200 1.349 . S
C4199 C4201 1.327 . S
C4199 H4222 0.950 . S
C4200 C4199 1.349 . S
C4200 C4212 1.349 . S
C4201 C4199 1.327 . S
C4201 C4217 1.429 . S
C4201 H4223 0.950 . S
C4202 H4198 0.949 . S
C4202 C4210 1.574 . S
C4202 C4218 1.368 . S
H4203 C4211 0.950 . S
H4204 C4209 0.950 . S
H4205 C4210 0.949 . S
H4206 C4212 0.950 . S
H4207 C4213 0.950 . S
H4208 C4214 0.949 . S
C4209 H4204 0.950 . S
C4209 C4211 1.327 . S
C4209 C4215 1.429 . S
C4210 C4202 1.574 . S
C4210 H4205 0.949 . S
C4210 C4216 1.368 . S
C4211 C4195 1.349 . S
C4211 H4203 0.950 . S
C4211 C4209 1.327 . S
C4212 C4200 1.349 . S
C4212 H4206 0.950 . S
C4212 C4213 1.327 . S
C4213 H4207 0.950 . S
C4213 C4212 1.327 . S
C4213 C4217 1.429 . S
C4214 C4197 1.574 . S
C4214 H4208 0.949 . S
C4214 C4218 1.368 . S
C4215 C4196 1.429 . S
C4215 C4209 1.429 . S
C4215 C4216 1.523 . S
C4216 C4197 1.368 . S
C4216 C4210 1.368 . S
C4216 C4215 1.523 . S
C4217 C4201 1.429 . S
C4217 C4213 1.429 . S
C4217 C4218 1.523 . S
C4218 C4202 1.368 . S
C4218 C4214 1.368 . S
C4218 C4217 1.523 . S
H4219 C4194 0.950 . S
H4220 C4196 0.950 . S
H4221 C4197 0.949 . S
H4222 C4199 0.950 . S
H4223 C4201 0.950 . S
C4224 C4225 1.349 . S
C4224 C4226 1.327 . S
C4224 H4249 0.950 . S
C4225 C4224 1.349 . S
C4225 C4241 1.349 . S
C4226 C4224 1.327 . S
C4226 C4245 1.429 . S
C4226 H4250 0.950 . S
C4227 C4244 1.574 1_455 S
C4227 C4246 1.368 . S
C4227 H4251 0.949 . S
H4228 C4232 0.949 . S
C4229 C4230 1.349 . S
C4229 C4231 1.327 . S
C4229 H4252 0.950 . S
C4230 C4229 1.349 . S
C4230 C4242 1.349 . S
C4231 C4229 1.327 . S
C4231 C4247 1.429 . S
C4231 H4253 0.950 . S
C4232 H4228 0.949 . S
C4232 C4240 1.574 1_655 S
C4232 C4248 1.368 . S
H4233 C4241 0.950 . S
H4234 C4239 0.950 . S
H4235 C4240 0.949 . S
H4236 C4242 0.950 . S
H4237 C4243 0.950 . S
H4238 C4244 0.949 . S
C4239 H4234 0.950 . S
C4239 C4241 1.327 . S
C4239 C4245 1.429 . S
C4240 C4232 1.574 1_455 S
C4240 H4235 0.949 . S
C4240 C4246 1.368 . S
C4241 C4225 1.349 . S
C4241 H4233 0.950 . S
C4241 C4239 1.327 . S
C4242 C4230 1.349 . S
C4242 H4236 0.950 . S
C4242 C4243 1.327 . S
C4243 H4237 0.950 . S
C4243 C4242 1.327 . S
C4243 C4247 1.429 . S
C4244 C4227 1.574 1_655 S
C4244 H4238 0.949 . S
C4244 C4248 1.368 . S
C4245 C4226 1.429 . S
C4245 C4239 1.429 . S
C4245 C4246 1.523 . S
C4246 C4227 1.368 . S
C4246 C4240 1.368 . S
C4246 C4245 1.523 . S
C4247 C4231 1.429 . S
C4247 C4243 1.429 . S
C4247 C4248 1.523 . S
C4248 C4232 1.368 . S
C4248 C4244 1.368 . S
C4248 C4247 1.523 . S
H4249 C4224 0.950 . S
H4250 C4226 0.950 . S
H4251 C4227 0.949 . S
H4252 C4229 0.950 . S
H4253 C4231 0.950 . S
C4254 C4255 1.349 . S
C4254 C4256 1.327 . S
C4254 H4279 0.950 . S
C4255 C4254 1.349 . S
C4255 C4271 1.349 . S
C4256 C4254 1.327 . S
C4256 C4275 1.429 . S
C4256 H4280 0.950 . S
C4257 C4274 1.574 1_565 S
C4257 C4276 1.368 . S
C4257 H4281 0.949 . S
H4258 C4262 0.949 . S
C4259 C4260 1.349 . S
C4259 C4261 1.327 . S
C4259 H4282 0.950 . S
C4260 C4259 1.349 . S
C4260 C4272 1.349 . S
C4261 C4259 1.327 . S
C4261 C4277 1.429 . S
C4261 H4283 0.950 . S
C4262 H4258 0.949 . S
C4262 C4270 1.574 1_545 S
C4262 C4278 1.368 . S
H4263 C4271 0.950 . S
H4264 C4269 0.950 . S
H4265 C4270 0.949 . S
H4266 C4272 0.950 . S
H4267 C4273 0.950 . S
H4268 C4274 0.949 . S
C4269 H4264 0.950 . S
C4269 C4271 1.327 . S
C4269 C4275 1.429 . S
C4270 C4262 1.574 1_565 S
C4270 H4265 0.949 . S
C4270 C4276 1.368 . S
C4271 C4255 1.349 . S
C4271 H4263 0.950 . S
C4271 C4269 1.327 . S
C4272 C4260 1.349 . S
C4272 H4266 0.950 . S
C4272 C4273 1.327 . S
C4273 H4267 0.950 . S
C4273 C4272 1.327 . S
C4273 C4277 1.429 . S
C4274 C4257 1.574 1_545 S
C4274 H4268 0.949 . S
C4274 C4278 1.368 . S
C4275 C4256 1.429 . S
C4275 C4269 1.429 . S
C4275 C4276 1.523 . S
C4276 C4257 1.368 . S
C4276 C4270 1.368 . S
C4276 C4275 1.523 . S
C4277 C4261 1.429 . S
C4277 C4273 1.429 . S
C4277 C4278 1.523 . S
C4278 C4262 1.368 . S
C4278 C4274 1.368 . S
C4278 C4277 1.523 . S
H4279 C4254 0.950 . S
H4280 C4256 0.950 . S
H4281 C4257 0.949 . S
H4282 C4259 0.950 . S
H4283 C4261 0.950 . S
C4284 C4285 1.349 . S
C4284 C4286 1.327 . S
C4284 H4309 0.950 . S
C4285 C4284 1.349 . S
C4285 C4301 1.349 . S
C4286 C4284 1.327 . S
C4286 C4305 1.429 . S
C4286 H4310 0.950 . S
C4287 C4304 1.574 1_655 S
C4287 C4306 1.368 . S
C4287 H4311 0.949 . S
H4288 C4292 0.949 . S
C4289 C4290 1.349 . S
C4289 C4291 1.327 . S
C4289 H4312 0.950 . S
C4290 C4289 1.349 . S
C4290 C4302 1.349 . S
C4291 C4289 1.327 . S
C4291 C4307 1.429 . S
C4291 H4313 0.950 . S
C4292 H4288 0.949 . S
C4292 C4300 1.574 1_455 S
C4292 C4308 1.368 . S
H4293 C4301 0.950 . S
H4294 C4299 0.950 . S
H4295 C4300 0.949 . S
H4296 C4302 0.950 . S
H4297 C4303 0.950 . S
H4298 C4304 0.949 . S
C4299 H4294 0.950 . S
C4299 C4301 1.327 . S
C4299 C4305 1.429 . S
C4300 C4292 1.574 1_655 S
C4300 H4295 0.949 . S
C4300 C4306 1.368 . S
C4301 C4285 1.349 . S
C4301 H4293 0.950 . S
C4301 C4299 1.327 . S
C4302 C4290 1.349 . S
C4302 H4296 0.950 . S
C4302 C4303 1.327 . S
C4303 H4297 0.950 . S
C4303 C4302 1.327 . S
C4303 C4307 1.429 . S
C4304 C4287 1.574 1_455 S
C4304 H4298 0.949 . S
C4304 C4308 1.368 . S
C4305 C4286 1.429 . S
C4305 C4299 1.429 . S
C4305 C4306 1.523 . S
C4306 C4287 1.368 . S
C4306 C4300 1.368 . S
C4306 C4305 1.523 . S
C4307 C4291 1.429 . S
C4307 C4303 1.429 . S
C4307 C4308 1.523 . S
C4308 C4292 1.368 . S
C4308 C4304 1.368 . S
C4308 C4307 1.523 . S
H4309 C4284 0.950 . S
H4310 C4286 0.950 . S
H4311 C4287 0.949 . S
H4312 C4289 0.950 . S
H4313 C4291 0.950 . S
C4314 C4315 1.349 . S
C4314 C4316 1.327 . S
C4314 H4339 0.950 . S
C4315 C4314 1.349 . S
C4315 C4331 1.349 . S
C4316 C4314 1.327 . S
C4316 C4335 1.429 . S
C4316 H4340 0.950 . S
C4317 C4334 1.574 1_545 S
C4317 C4336 1.368 . S
C4317 H4341 0.949 . S
H4318 C4322 0.949 . S
C4319 C4320 1.349 . S
C4319 C4321 1.327 . S
C4319 H4342 0.950 . S
C4320 C4319 1.349 . S
C4320 C4332 1.349 . S
C4321 C4319 1.327 . S
C4321 C4337 1.429 . S
C4321 H4343 0.950 . S
C4322 H4318 0.949 . S
C4322 C4330 1.574 1_565 S
C4322 C4338 1.368 . S
H4323 C4331 0.950 . S
H4324 C4329 0.950 . S
H4325 C4330 0.949 . S
H4326 C4332 0.950 . S
H4327 C4333 0.950 . S
H4328 C4334 0.949 . S
C4329 H4324 0.950 . S
C4329 C4331 1.327 . S
C4329 C4335 1.429 . S
C4330 C4322 1.574 1_545 S
C4330 H4325 0.949 . S
C4330 C4336 1.368 . S
C4331 C4315 1.349 . S
C4331 H4323 0.950 . S
C4331 C4329 1.327 . S
C4332 C4320 1.349 . S
C4332 H4326 0.950 . S
C4332 C4333 1.327 . S
C4333 H4327 0.950 . S
C4333 C4332 1.327 . S
C4333 C4337 1.429 . S
C4334 C4317 1.574 1_565 S
C4334 H4328 0.949 . S
C4334 C4338 1.368 . S
C4335 C4316 1.429 . S
C4335 C4329 1.429 . S
C4335 C4336 1.523 . S
C4336 C4317 1.368 . S
C4336 C4330 1.368 . S
C4336 C4335 1.523 . S
C4337 C4321 1.429 . S
C4337 C4333 1.429 . S
C4337 C4338 1.523 . S
C4338 C4322 1.368 . S
C4338 C4334 1.368 . S
C4338 C4337 1.523 . S
H4339 C4314 0.950 . S
H4340 C4316 0.950 . S
H4341 C4317 0.949 . S
H4342 C4319 0.950 . S
H4343 C4321 0.950 . S
C4344 C4345 1.349 . S
C4344 C4346 1.327 . S
C4344 H4369 0.950 . S
C4345 C4344 1.349 . S
C4345 C4361 1.349 . S
C4346 C4344 1.327 . S
C4346 C4365 1.429 . S
C4346 H4370 0.950 . S
C4347 C4364 1.574 1_455 S
C4347 C4366 1.368 . S
C4347 H4371 0.949 . S
H4348 C4352 0.949 . S
C4349 C4350 1.349 . S
C4349 C4351 1.327 . S
C4349 H4372 0.950 . S
C4350 C4349 1.349 . S
C4350 C4362 1.349 . S
C4351 C4349 1.327 . S
C4351 C4367 1.429 . S
C4351 H4373 0.950 . S
C4352 H4348 0.949 . S
C4352 C4360 1.574 1_655 S
C4352 C4368 1.368 . S
H4353 C4361 0.950 . S
H4354 C4359 0.950 . S
H4355 C4360 0.949 . S
H4356 C4362 0.950 . S
H4357 C4363 0.950 . S
H4358 C4364 0.949 . S
C4359 H4354 0.950 . S
C4359 C4361 1.327 . S
C4359 C4365 1.429 . S
C4360 C4352 1.574 1_455 S
C4360 H4355 0.949 . S
C4360 C4366 1.368 . S
C4361 C4345 1.349 . S
C4361 H4353 0.950 . S
C4361 C4359 1.327 . S
C4362 C4350 1.349 . S
C4362 H4356 0.950 . S
C4362 C4363 1.327 . S
C4363 H4357 0.950 . S
C4363 C4362 1.327 . S
C4363 C4367 1.429 . S
C4364 C4347 1.574 1_655 S
C4364 H4358 0.949 . S
C4364 C4368 1.368 . S
C4365 C4346 1.429 . S
C4365 C4359 1.429 . S
C4365 C4366 1.523 . S
C4366 C4347 1.368 . S
C4366 C4360 1.368 . S
C4366 C4365 1.523 . S
C4367 C4351 1.429 . S
C4367 C4363 1.429 . S
C4367 C4368 1.523 . S
C4368 C4352 1.368 . S
C4368 C4364 1.368 . S
C4368 C4367 1.523 . S
H4369 C4344 0.950 . S
H4370 C4346 0.950 . S
H4371 C4347 0.949 . S
H4372 C4349 0.950 . S
H4373 C4351 0.950 . S
C4374 C4375 1.349 . S
C4374 C4376 1.327 . S
C4374 H4399 0.950 . S
C4375 C4374 1.349 . S
C4375 C4391 1.349 . S
C4376 C4374 1.327 . S
C4376 C4395 1.429 . S
C4376 H4400 0.950 . S
C4377 C4394 1.574 1_545 S
C4377 C4396 1.368 . S
C4377 H4401 0.949 . S
H4378 C4382 0.949 . S
C4379 C4380 1.349 . S
C4379 C4381 1.327 . S
C4379 H4402 0.950 . S
C4380 C4379 1.349 . S
C4380 C4392 1.349 . S
C4381 C4379 1.327 . S
C4381 C4397 1.429 . S
C4381 H4403 0.950 . S
C4382 H4378 0.949 . S
C4382 C4390 1.574 1_565 S
C4382 C4398 1.368 . S
H4383 C4391 0.950 . S
H4384 C4389 0.950 . S
H4385 C4390 0.949 . S
H4386 C4392 0.950 . S
H4387 C4393 0.950 . S
H4388 C4394 0.949 . S
C4389 H4384 0.950 . S
C4389 C4391 1.327 . S
C4389 C4395 1.429 . S
C4390 C4382 1.574 1_545 S
C4390 H4385 0.949 . S
C4390 C4396 1.368 . S
C4391 C4375 1.349 . S
C4391 H4383 0.950 . S
C4391 C4389 1.327 . S
C4392 C4380 1.349 . S
C4392 H4386 0.950 . S
C4392 C4393 1.327 . S
C4393 H4387 0.950 . S
C4393 C4392 1.327 . S
C4393 C4397 1.429 . S
C4394 C4377 1.574 1_565 S
C4394 H4388 0.949 . S
C4394 C4398 1.368 . S
C4395 C4376 1.429 . S
C4395 C4389 1.429 . S
C4395 C4396 1.523 . S
C4396 C4377 1.368 . S
C4396 C4390 1.368 . S
C4396 C4395 1.523 . S
C4397 C4381 1.429 . S
C4397 C4393 1.429 . S
C4397 C4398 1.523 . S
C4398 C4382 1.368 . S
C4398 C4394 1.368 . S
C4398 C4397 1.523 . S
H4399 C4374 0.950 . S
H4400 C4376 0.950 . S
H4401 C4377 0.949 . S
H4402 C4379 0.950 . S
H4403 C4381 0.950 . S
C4404 C4405 1.349 . S
C4404 C4406 1.327 . S
C4404 H4429 0.950 . S
C4405 C4404 1.349 . S
C4405 C4421 1.349 . S
C4406 C4404 1.327 . S
C4406 C4425 1.429 . S
C4406 H4430 0.950 . S
C4407 C4424 1.574 1_655 S
C4407 C4426 1.368 . S
C4407 H4431 0.949 . S
H4408 C4412 0.949 . S
C4409 C4410 1.349 . S
C4409 C4411 1.327 . S
C4409 H4432 0.950 . S
C4410 C4409 1.349 . S
C4410 C4422 1.349 . S
C4411 C4409 1.327 . S
C4411 C4427 1.429 . S
C4411 H4433 0.950 . S
C4412 H4408 0.949 . S
C4412 C4420 1.574 1_455 S
C4412 C4428 1.368 . S
H4413 C4421 0.950 . S
H4414 C4419 0.950 . S
H4415 C4420 0.949 . S
H4416 C4422 0.950 . S
H4417 C4423 0.950 . S
H4418 C4424 0.949 . S
C4419 H4414 0.950 . S
C4419 C4421 1.327 . S
C4419 C4425 1.429 . S
C4420 C4412 1.574 1_655 S
C4420 H4415 0.949 . S
C4420 C4426 1.368 . S
C4421 C4405 1.349 . S
C4421 H4413 0.950 . S
C4421 C4419 1.327 . S
C4422 C4410 1.349 . S
C4422 H4416 0.950 . S
C4422 C4423 1.327 . S
C4423 H4417 0.950 . S
C4423 C4422 1.327 . S
C4423 C4427 1.429 . S
C4424 C4407 1.574 1_455 S
C4424 H4418 0.949 . S
C4424 C4428 1.368 . S
C4425 C4406 1.429 . S
C4425 C4419 1.429 . S
C4425 C4426 1.523 . S
C4426 C4407 1.368 . S
C4426 C4420 1.368 . S
C4426 C4425 1.523 . S
C4427 C4411 1.429 . S
C4427 C4423 1.429 . S
C4427 C4428 1.523 . S
C4428 C4412 1.368 . S
C4428 C4424 1.368 . S
C4428 C4427 1.523 . S
H4429 C4404 0.950 . S
H4430 C4406 0.950 . S
H4431 C4407 0.949 . S
H4432 C4409 0.950 . S
H4433 C4411 0.950 . S
C4434 C4435 1.349 . S
C4434 C4436 1.327 . S
C4434 H4459 0.950 . S
C4435 C4434 1.349 . S
C4435 C4451 1.349 . S
C4436 C4434 1.327 . S
C4436 C4455 1.429 . S
C4436 H4460 0.950 . S
C4437 C4454 1.574 1_545 S
C4437 C4456 1.368 . S
C4437 H4461 0.949 . S
H4438 C4442 0.949 . S
C4439 C4440 1.349 . S
C4439 C4441 1.327 . S
C4439 H4462 0.950 . S
C4440 C4439 1.349 . S
C4440 C4452 1.349 . S
C4441 C4439 1.327 . S
C4441 C4457 1.429 . S
C4441 H4463 0.950 . S
C4442 H4438 0.949 . S
C4442 C4450 1.574 1_565 S
C4442 C4458 1.368 . S
H4443 C4451 0.950 . S
H4444 C4449 0.950 . S
H4445 C4450 0.949 . S
H4446 C4452 0.950 . S
H4447 C4453 0.950 . S
H4448 C4454 0.949 . S
C4449 H4444 0.950 . S
C4449 C4451 1.327 . S
C4449 C4455 1.429 . S
C4450 C4442 1.574 1_545 S
C4450 H4445 0.949 . S
C4450 C4456 1.368 . S
C4451 C4435 1.349 . S
C4451 H4443 0.950 . S
C4451 C4449 1.327 . S
C4452 C4440 1.349 . S
C4452 H4446 0.950 . S
C4452 C4453 1.327 . S
C4453 H4447 0.950 . S
C4453 C4452 1.327 . S
C4453 C4457 1.429 . S
C4454 C4437 1.574 1_565 S
C4454 H4448 0.949 . S
C4454 C4458 1.368 . S
C4455 C4436 1.429 . S
C4455 C4449 1.429 . S
C4455 C4456 1.523 . S
C4456 C4437 1.368 . S
C4456 C4450 1.368 . S
C4456 C4455 1.523 . S
C4457 C4441 1.429 . S
C4457 C4453 1.429 . S
C4457 C4458 1.523 . S
C4458 C4442 1.368 . S
C4458 C4454 1.368 . S
C4458 C4457 1.523 . S
H4459 C4434 0.950 . S
H4460 C4436 0.950 . S
H4461 C4437 0.949 . S
H4462 C4439 0.950 . S
H4463 C4441 0.950 . S
C4464 C4465 1.349 . S
C4464 C4466 1.327 . S
C4464 H4489 0.950 . S
C4465 C4464 1.349 . S
C4465 C4481 1.349 . S
C4466 C4464 1.327 . S
C4466 C4485 1.429 . S
C4466 H4490 0.950 . S
C4467 C4484 1.574 1_565 S
C4467 C4486 1.368 . S
C4467 H4491 0.949 . S
H4468 C4472 0.949 . S
C4469 C4470 1.349 . S
C4469 C4471 1.327 . S
C4469 H4492 0.950 . S
C4470 C4469 1.349 . S
C4470 C4482 1.349 . S
C4471 C4469 1.327 . S
C4471 C4487 1.429 . S
C4471 H4493 0.950 . S
C4472 H4468 0.949 . S
C4472 C4480 1.574 1_545 S
C4472 C4488 1.368 . S
H4473 C4481 0.950 . S
H4474 C4479 0.950 . S
H4475 C4480 0.949 . S
H4476 C4482 0.950 . S
H4477 C4483 0.950 . S
H4478 C4484 0.949 . S
C4479 H4474 0.950 . S
C4479 C4481 1.327 . S
C4479 C4485 1.429 . S
C4480 C4472 1.574 1_565 S
C4480 H4475 0.949 . S
C4480 C4486 1.368 . S
C4481 C4465 1.349 . S
C4481 H4473 0.950 . S
C4481 C4479 1.327 . S
C4482 C4470 1.349 . S
C4482 H4476 0.950 . S
C4482 C4483 1.327 . S
C4483 H4477 0.950 . S
C4483 C4482 1.327 . S
C4483 C4487 1.429 . S
C4484 C4467 1.574 1_545 S
C4484 H4478 0.949 . S
C4484 C4488 1.368 . S
C4485 C4466 1.429 . S
C4485 C4479 1.429 . S
C4485 C4486 1.523 . S
C4486 C4467 1.368 . S
C4486 C4480 1.368 . S
C4486 C4485 1.523 . S
C4487 C4471 1.429 . S
C4487 C4483 1.429 . S
C4487 C4488 1.523 . S
C4488 C4472 1.368 . S
C4488 C4484 1.368 . S
C4488 C4487 1.523 . S
H4489 C4464 0.950 . S
H4490 C4466 0.950 . S
H4491 C4467 0.949 . S
H4492 C4469 0.950 . S
H4493 C4471 0.950 . S
C4494 C4495 1.349 . S
C4494 C4496 1.327 . S
C4494 H4519 0.950 . S
C4495 C4494 1.349 . S
C4495 C4511 1.349 . S
C4496 C4494 1.327 . S
C4496 C4515 1.429 . S
C4496 H4520 0.950 . S
C4497 C4514 1.574 1_655 S
C4497 C4516 1.368 . S
C4497 H4521 0.949 . S
H4498 C4502 0.949 . S
C4499 C4500 1.349 . S
C4499 C4501 1.327 . S
C4499 H4522 0.950 . S
C4500 C4499 1.349 . S
C4500 C4512 1.349 . S
C4501 C4499 1.327 . S
C4501 C4517 1.429 . S
C4501 H4523 0.950 . S
C4502 H4498 0.949 . S
C4502 C4510 1.574 1_455 S
C4502 C4518 1.368 . S
H4503 C4511 0.950 . S
H4504 C4509 0.950 . S
H4505 C4510 0.949 . S
H4506 C4512 0.950 . S
H4507 C4513 0.950 . S
H4508 C4514 0.949 . S
C4509 H4504 0.950 . S
C4509 C4511 1.327 . S
C4509 C4515 1.429 . S
C4510 C4502 1.574 1_655 S
C4510 H4505 0.949 . S
C4510 C4516 1.368 . S
C4511 C4495 1.349 . S
C4511 H4503 0.950 . S
C4511 C4509 1.327 . S
C4512 C4500 1.349 . S
C4512 H4506 0.950 . S
C4512 C4513 1.327 . S
C4513 H4507 0.950 . S
C4513 C4512 1.327 . S
C4513 C4517 1.429 . S
C4514 C4497 1.574 1_455 S
C4514 H4508 0.949 . S
C4514 C4518 1.368 . S
C4515 C4496 1.429 . S
C4515 C4509 1.429 . S
C4515 C4516 1.523 . S
C4516 C4497 1.368 . S
C4516 C4510 1.368 . S
C4516 C4515 1.523 . S
C4517 C4501 1.429 . S
C4517 C4513 1.429 . S
C4517 C4518 1.523 . S
C4518 C4502 1.368 . S
C4518 C4514 1.368 . S
C4518 C4517 1.523 . S
H4519 C4494 0.950 . S
H4520 C4496 0.950 . S
H4521 C4497 0.949 . S
H4522 C4499 0.950 . S
H4523 C4501 0.950 . S
C4524 C4525 1.349 . S
C4524 C4526 1.327 . S
C4524 H4549 0.950 . S
C4525 C4524 1.349 . S
C4525 C4541 1.349 . S
C4526 C4524 1.327 . S
C4526 C4545 1.429 . S
C4526 H4550 0.950 . S
C4527 C4544 1.574 1_565 S
C4527 C4546 1.368 . S
C4527 H4551 0.949 . S
H4528 C4532 0.949 . S
C4529 C4530 1.349 . S
C4529 C4531 1.327 . S
C4529 H4552 0.950 . S
C4530 C4529 1.349 . S
C4530 C4542 1.349 . S
C4531 C4529 1.327 . S
C4531 C4547 1.429 . S
C4531 H4553 0.950 . S
C4532 H4528 0.949 . S
C4532 C4540 1.574 1_545 S
C4532 C4548 1.368 . S
H4533 C4541 0.950 . S
H4534 C4539 0.950 . S
H4535 C4540 0.949 . S
H4536 C4542 0.950 . S
H4537 C4543 0.950 . S
H4538 C4544 0.949 . S
C4539 H4534 0.950 . S
C4539 C4541 1.327 . S
C4539 C4545 1.429 . S
C4540 C4532 1.574 1_565 S
C4540 H4535 0.949 . S
C4540 C4546 1.368 . S
C4541 C4525 1.349 . S
C4541 H4533 0.950 . S
C4541 C4539 1.327 . S
C4542 C4530 1.349 . S
C4542 H4536 0.950 . S
C4542 C4543 1.327 . S
C4543 H4537 0.950 . S
C4543 C4542 1.327 . S
C4543 C4547 1.429 . S
C4544 C4527 1.574 1_545 S
C4544 H4538 0.949 . S
C4544 C4548 1.368 . S
C4545 C4526 1.429 . S
C4545 C4539 1.429 . S
C4545 C4546 1.523 . S
C4546 C4527 1.368 . S
C4546 C4540 1.368 . S
C4546 C4545 1.523 . S
C4547 C4531 1.429 . S
C4547 C4543 1.429 . S
C4547 C4548 1.523 . S
C4548 C4532 1.368 . S
C4548 C4544 1.368 . S
C4548 C4547 1.523 . S
H4549 C4524 0.950 . S
H4550 C4526 0.950 . S
H4551 C4527 0.949 . S
H4552 C4529 0.950 . S
H4553 C4531 0.950 . S
C4554 C4555 1.349 . S
C4554 C4556 1.327 . S
C4554 H4579 0.950 . S
C4555 C4554 1.349 . S
C4555 C4571 1.349 . S
C4556 C4554 1.327 . S
C4556 C4575 1.429 . S
C4556 H4580 0.950 . S
C4557 C4574 1.574 1_455 S
C4557 C4576 1.368 . S
C4557 H4581 0.949 . S
H4558 C4562 0.949 . S
C4559 C4560 1.349 . S
C4559 C4561 1.327 . S
C4559 H4582 0.950 . S
C4560 C4559 1.349 . S
C4560 C4572 1.349 . S
C4561 C4559 1.327 . S
C4561 C4577 1.429 . S
C4561 H4583 0.950 . S
C4562 H4558 0.949 . S
C4562 C4570 1.574 1_655 S
C4562 C4578 1.368 . S
H4563 C4571 0.950 . S
H4564 C4569 0.950 . S
H4565 C4570 0.949 . S
H4566 C4572 0.950 . S
H4567 C4573 0.950 . S
H4568 C4574 0.949 . S
C4569 H4564 0.950 . S
C4569 C4571 1.327 . S
C4569 C4575 1.429 . S
C4570 C4562 1.574 1_455 S
C4570 H4565 0.949 . S
C4570 C4576 1.368 . S
C4571 C4555 1.349 . S
C4571 H4563 0.950 . S
C4571 C4569 1.327 . S
C4572 C4560 1.349 . S
C4572 H4566 0.950 . S
C4572 C4573 1.327 . S
C4573 H4567 0.950 . S
C4573 C4572 1.327 . S
C4573 C4577 1.429 . S
C4574 C4557 1.574 1_655 S
C4574 H4568 0.949 . S
C4574 C4578 1.368 . S
C4575 C4556 1.429 . S
C4575 C4569 1.429 . S
C4575 C4576 1.523 . S
C4576 C4557 1.368 . S
C4576 C4570 1.368 . S
C4576 C4575 1.523 . S
C4577 C4561 1.429 . S
C4577 C4573 1.429 . S
C4577 C4578 1.523 . S
C4578 C4562 1.368 . S
C4578 C4574 1.368 . S
C4578 C4577 1.523 . S
H4579 C4554 0.950 . S
H4580 C4556 0.950 . S
H4581 C4557 0.949 . S
H4582 C4559 0.950 . S
H4583 C4561 0.950 . S
C4584 C4585 1.349 . S
C4584 C4586 1.327 . S
C4584 H4609 0.950 . S
C4585 C4584 1.349 . S
C4585 C4601 1.349 . S
C4586 C4584 1.327 . S
C4586 C4605 1.429 . S
C4586 H4610 0.950 . S
C4587 C4604 1.574 1_565 S
C4587 C4606 1.368 . S
C4587 H4611 0.949 . S
H4588 C4592 0.949 . S
C4589 C4590 1.349 . S
C4589 C4591 1.327 . S
C4589 H4612 0.950 . S
C4590 C4589 1.349 . S
C4590 C4602 1.349 . S
C4591 C4589 1.327 . S
C4591 C4607 1.429 . S
C4591 H4613 0.950 . S
C4592 H4588 0.949 . S
C4592 C4600 1.574 1_545 S
C4592 C4608 1.368 . S
H4593 C4601 0.950 . S
H4594 C4599 0.950 . S
H4595 C4600 0.949 . S
H4596 C4602 0.950 . S
H4597 C4603 0.950 . S
H4598 C4604 0.949 . S
C4599 H4594 0.950 . S
C4599 C4601 1.327 . S
C4599 C4605 1.429 . S
C4600 C4592 1.574 1_565 S
C4600 H4595 0.949 . S
C4600 C4606 1.368 . S
C4601 C4585 1.349 . S
C4601 H4593 0.950 . S
C4601 C4599 1.327 . S
C4602 C4590 1.349 . S
C4602 H4596 0.950 . S
C4602 C4603 1.327 . S
C4603 H4597 0.950 . S
C4603 C4602 1.327 . S
C4603 C4607 1.429 . S
C4604 C4587 1.574 1_545 S
C4604 H4598 0.949 . S
C4604 C4608 1.368 . S
C4605 C4586 1.429 . S
C4605 C4599 1.429 . S
C4605 C4606 1.523 . S
C4606 C4587 1.368 . S
C4606 C4600 1.368 . S
C4606 C4605 1.523 . S
C4607 C4591 1.429 . S
C4607 C4603 1.429 . S
C4607 C4608 1.523 . S
C4608 C4592 1.368 . S
C4608 C4604 1.368 . S
C4608 C4607 1.523 . S
H4609 C4584 0.950 . S
H4610 C4586 0.950 . S
H4611 C4587 0.949 . S
H4612 C4589 0.950 . S
H4613 C4591 0.950 . S
C4614 C4615 1.349 . S
C4614 C4616 1.327 . S
C4614 H4639 0.950 . S
C4615 C4614 1.349 . S
C4615 C4631 1.349 . S
C4616 C4614 1.327 . S
C4616 C4635 1.429 . S
C4616 H4640 0.950 . S
C4617 C4634 1.574 1_455 S
C4617 C4636 1.368 . S
C4617 H4641 0.949 . S
H4618 C4622 0.949 . S
C4619 C4620 1.349 . S
C4619 C4621 1.327 . S
C4619 H4642 0.950 . S
C4620 C4619 1.349 . S
C4620 C4632 1.349 . S
C4621 C4619 1.327 . S
C4621 C4637 1.429 . S
C4621 H4643 0.950 . S
C4622 H4618 0.949 . S
C4622 C4630 1.574 1_655 S
C4622 C4638 1.368 . S
H4623 C4631 0.950 . S
H4624 C4629 0.950 . S
H4625 C4630 0.949 . S
H4626 C4632 0.950 . S
H4627 C4633 0.950 . S
H4628 C4634 0.949 . S
C4629 H4624 0.950 . S
C4629 C4631 1.327 . S
C4629 C4635 1.429 . S
C4630 C4622 1.574 1_455 S
C4630 H4625 0.949 . S
C4630 C4636 1.368 . S
C4631 C4615 1.349 . S
C4631 H4623 0.950 . S
C4631 C4629 1.327 . S
C4632 C4620 1.349 . S
C4632 H4626 0.950 . S
C4632 C4633 1.327 . S
C4633 H4627 0.950 . S
C4633 C4632 1.327 . S
C4633 C4637 1.429 . S
C4634 C4617 1.574 1_655 S
C4634 H4628 0.949 . S
C4634 C4638 1.368 . S
C4635 C4616 1.429 . S
C4635 C4629 1.429 . S
C4635 C4636 1.523 . S
C4636 C4617 1.368 . S
C4636 C4630 1.368 . S
C4636 C4635 1.523 . S
C4637 C4621 1.429 . S
C4637 C4633 1.429 . S
C4637 C4638 1.523 . S
C4638 C4622 1.368 . S
C4638 C4634 1.368 . S
C4638 C4637 1.523 . S
H4639 C4614 0.950 . S
H4640 C4616 0.950 . S
H4641 C4617 0.949 . S
H4642 C4619 0.950 . S
H4643 C4621 0.950 . S
C4644 C4645 1.349 . S
C4644 C4646 1.327 . S
C4644 H4669 0.950 . S
C4645 C4644 1.349 . S
C4645 C4661 1.349 . S
C4646 C4644 1.327 . S
C4646 C4665 1.429 . S
C4646 H4670 0.950 . S
C4647 C4664 1.574 1_545 S
C4647 C4666 1.368 . S
C4647 H4671 0.949 . S
H4648 C4652 0.949 . S
C4649 C4650 1.349 . S
C4649 C4651 1.327 . S
C4649 H4672 0.950 . S
C4650 C4649 1.349 . S
C4650 C4662 1.349 . S
C4651 C4649 1.327 . S
C4651 C4667 1.429 . S
C4651 H4673 0.950 . S
C4652 H4648 0.949 . S
C4652 C4660 1.574 1_565 S
C4652 C4668 1.368 . S
H4653 C4661 0.950 . S
H4654 C4659 0.950 . S
H4655 C4660 0.949 . S
H4656 C4662 0.950 . S
H4657 C4663 0.950 . S
H4658 C4664 0.949 . S
C4659 H4654 0.950 . S
C4659 C4661 1.327 . S
C4659 C4665 1.429 . S
C4660 C4652 1.574 1_545 S
C4660 H4655 0.949 . S
C4660 C4666 1.368 . S
C4661 C4645 1.349 . S
C4661 H4653 0.950 . S
C4661 C4659 1.327 . S
C4662 C4650 1.349 . S
C4662 H4656 0.950 . S
C4662 C4663 1.327 . S
C4663 H4657 0.950 . S
C4663 C4662 1.327 . S
C4663 C4667 1.429 . S
C4664 C4647 1.574 1_565 S
C4664 H4658 0.949 . S
C4664 C4668 1.368 . S
C4665 C4646 1.429 . S
C4665 C4659 1.429 . S
C4665 C4666 1.523 . S
C4666 C4647 1.368 . S
C4666 C4660 1.368 . S
C4666 C4665 1.523 . S
C4667 C4651 1.429 . S
C4667 C4663 1.429 . S
C4667 C4668 1.523 . S
C4668 C4652 1.368 . S
C4668 C4664 1.368 . S
C4668 C4667 1.523 . S
H4669 C4644 0.950 . S
H4670 C4646 0.950 . S
H4671 C4647 0.949 . S
H4672 C4649 0.950 . S
H4673 C4651 0.950 . S
C4674 C4675 1.349 . S
C4674 C4676 1.327 . S
C4674 H4699 0.950 . S
C4675 C4674 1.349 . S
C4675 C4691 1.349 . S
C4676 C4674 1.327 . S
C4676 C4695 1.429 . S
C4676 H4700 0.950 . S
C4677 C4694 1.574 1_655 S
C4677 C4696 1.368 . S
C4677 H4701 0.949 . S
H4678 C4682 0.949 . S
C4679 C4680 1.349 . S
C4679 C4681 1.327 . S
C4679 H4702 0.950 . S
C4680 C4679 1.349 . S
C4680 C4692 1.349 . S
C4681 C4679 1.327 . S
C4681 C4697 1.429 . S
C4681 H4703 0.950 . S
C4682 H4678 0.949 . S
C4682 C4690 1.574 1_455 S
C4682 C4698 1.368 . S
H4683 C4691 0.950 . S
H4684 C4689 0.950 . S
H4685 C4690 0.949 . S
H4686 C4692 0.950 . S
H4687 C4693 0.950 . S
H4688 C4694 0.949 . S
C4689 H4684 0.950 . S
C4689 C4691 1.327 . S
C4689 C4695 1.429 . S
C4690 C4682 1.574 1_655 S
C4690 H4685 0.949 . S
C4690 C4696 1.368 . S
C4691 C4675 1.349 . S
C4691 H4683 0.950 . S
C4691 C4689 1.327 . S
C4692 C4680 1.349 . S
C4692 H4686 0.950 . S
C4692 C4693 1.327 . S
C4693 H4687 0.950 . S
C4693 C4692 1.327 . S
C4693 C4697 1.429 . S
C4694 C4677 1.574 1_455 S
C4694 H4688 0.949 . S
C4694 C4698 1.368 . S
C4695 C4676 1.429 . S
C4695 C4689 1.429 . S
C4695 C4696 1.523 . S
C4696 C4677 1.368 . S
C4696 C4690 1.368 . S
C4696 C4695 1.523 . S
C4697 C4681 1.429 . S
C4697 C4693 1.429 . S
C4697 C4698 1.523 . S
C4698 C4682 1.368 . S
C4698 C4694 1.368 . S
C4698 C4697 1.523 . S
H4699 C4674 0.950 . S
H4700 C4676 0.950 . S
H4701 C4677 0.949 . S
H4702 C4679 0.950 . S
H4703 C4681 0.950 . S
C4704 C4705 1.349 . S
C4704 C4706 1.327 . S
C4704 H4729 0.950 . S
C4705 C4704 1.349 . S
C4705 C4721 1.349 . S
C4706 C4704 1.327 . S
C4706 C4725 1.429 . S
C4706 H4730 0.950 . S
C4707 C4724 1.574 1_554 S
C4707 C4726 1.368 . S
C4707 H4731 0.949 . S
H4708 C4712 0.949 . S
C4709 C4710 1.349 . S
C4709 C4711 1.327 . S
C4709 H4732 0.950 . S
C4710 C4709 1.349 . S
C4710 C4722 1.349 . S
C4711 C4709 1.327 . S
C4711 C4727 1.429 . S
C4711 H4733 0.950 . S
C4712 H4708 0.949 . S
C4712 C4720 1.574 1_556 S
C4712 C4728 1.368 . S
H4713 C4721 0.950 . S
H4714 C4719 0.950 . S
H4715 C4720 0.949 . S
H4716 C4722 0.950 . S
H4717 C4723 0.950 . S
H4718 C4724 0.949 . S
C4719 H4714 0.950 . S
C4719 C4721 1.327 . S
C4719 C4725 1.429 . S
C4720 C4712 1.574 1_554 S
C4720 H4715 0.949 . S
C4720 C4726 1.368 . S
C4721 C4705 1.349 . S
C4721 H4713 0.950 . S
C4721 C4719 1.327 . S
C4722 C4710 1.349 . S
C4722 H4716 0.950 . S
C4722 C4723 1.327 . S
C4723 H4717 0.950 . S
C4723 C4722 1.327 . S
C4723 C4727 1.429 . S
C4724 C4707 1.574 1_556 S
C4724 H4718 0.949 . S
C4724 C4728 1.368 . S
C4725 C4706 1.429 . S
C4725 C4719 1.429 . S
C4725 C4726 1.523 . S
C4726 C4707 1.368 . S
C4726 C4720 1.368 . S
C4726 C4725 1.523 . S
C4727 C4711 1.429 . S
C4727 C4723 1.429 . S
C4727 C4728 1.523 . S
C4728 C4712 1.368 . S
C4728 C4724 1.368 . S
C4728 C4727 1.523 . S
H4729 C4704 0.950 . S
H4730 C4706 0.950 . S
H4731 C4707 0.949 . S
H4732 C4709 0.950 . S
H4733 C4711 0.950 . S
C4734 C4735 1.349 . S
C4734 C4736 1.327 . S
C4734 H4759 0.950 . S
C4735 C4734 1.349 . S
C4735 C4751 1.349 . S
C4736 C4734 1.327 . S
C4736 C4755 1.429 . S
C4736 H4760 0.950 . S
C4737 C4754 1.574 1_556 S
C4737 C4756 1.368 . S
C4737 H4761 0.949 . S
H4738 C4742 0.949 . S
C4739 C4740 1.349 . S
C4739 C4741 1.327 . S
C4739 H4762 0.950 . S
C4740 C4739 1.349 . S
C4740 C4752 1.349 . S
C4741 C4739 1.327 . S
C4741 C4757 1.429 . S
C4741 H4763 0.950 . S
C4742 H4738 0.949 . S
C4742 C4750 1.574 1_554 S
C4742 C4758 1.368 . S
H4743 C4751 0.950 . S
H4744 C4749 0.950 . S
H4745 C4750 0.949 . S
H4746 C4752 0.950 . S
H4747 C4753 0.950 . S
H4748 C4754 0.949 . S
C4749 H4744 0.950 . S
C4749 C4751 1.327 . S
C4749 C4755 1.429 . S
C4750 C4742 1.574 1_556 S
C4750 H4745 0.949 . S
C4750 C4756 1.368 . S
C4751 C4735 1.349 . S
C4751 H4743 0.950 . S
C4751 C4749 1.327 . S
C4752 C4740 1.349 . S
C4752 H4746 0.950 . S
C4752 C4753 1.327 . S
C4753 H4747 0.950 . S
C4753 C4752 1.327 . S
C4753 C4757 1.429 . S
C4754 C4737 1.574 1_554 S
C4754 H4748 0.949 . S
C4754 C4758 1.368 . S
C4755 C4736 1.429 . S
C4755 C4749 1.429 . S
C4755 C4756 1.523 . S
C4756 C4737 1.368 . S
C4756 C4750 1.368 . S
C4756 C4755 1.523 . S
C4757 C4741 1.429 . S
C4757 C4753 1.429 . S
C4757 C4758 1.523 . S
C4758 C4742 1.368 . S
C4758 C4754 1.368 . S
C4758 C4757 1.523 . S
H4759 C4734 0.950 . S
H4760 C4736 0.950 . S
H4761 C4737 0.949 . S
H4762 C4739 0.950 . S
H4763 C4741 0.950 . S
C4764 C4765 1.349 . S
C4764 C4766 1.327 . S
C4764 H4789 0.950 . S
C4765 C4764 1.349 . S
C4765 C4781 1.349 . S
C4766 C4764 1.327 . S
C4766 C4785 1.429 . S
C4766 H4790 0.950 . S
C4767 C4784 1.574 1_554 S
C4767 C4786 1.368 . S
C4767 H4791 0.949 . S
H4768 C4772 0.949 . S
C4769 C4770 1.349 . S
C4769 C4771 1.327 . S
C4769 H4792 0.950 . S
C4770 C4769 1.349 . S
C4770 C4782 1.349 . S
C4771 C4769 1.327 . S
C4771 C4787 1.429 . S
C4771 H4793 0.950 . S
C4772 H4768 0.949 . S
C4772 C4780 1.574 1_556 S
C4772 C4788 1.368 . S
H4773 C4781 0.950 . S
H4774 C4779 0.950 . S
H4775 C4780 0.949 . S
H4776 C4782 0.950 . S
H4777 C4783 0.950 . S
H4778 C4784 0.949 . S
C4779 H4774 0.950 . S
C4779 C4781 1.327 . S
C4779 C4785 1.429 . S
C4780 C4772 1.574 1_554 S
C4780 H4775 0.949 . S
C4780 C4786 1.368 . S
C4781 C4765 1.349 . S
C4781 H4773 0.950 . S
C4781 C4779 1.327 . S
C4782 C4770 1.349 . S
C4782 H4776 0.950 . S
C4782 C4783 1.327 . S
C4783 H4777 0.950 . S
C4783 C4782 1.327 . S
C4783 C4787 1.429 . S
C4784 C4767 1.574 1_556 S
C4784 H4778 0.949 . S
C4784 C4788 1.368 . S
C4785 C4766 1.429 . S
C4785 C4779 1.429 . S
C4785 C4786 1.523 . S
C4786 C4767 1.368 . S
C4786 C4780 1.368 . S
C4786 C4785 1.523 . S
C4787 C4771 1.429 . S
C4787 C4783 1.429 . S
C4787 C4788 1.523 . S
C4788 C4772 1.368 . S
C4788 C4784 1.368 . S
C4788 C4787 1.523 . S
H4789 C4764 0.950 . S
H4790 C4766 0.950 . S
H4791 C4767 0.949 . S
H4792 C4769 0.950 . S
H4793 C4771 0.950 . S
C4794 C4795 1.349 . S
C4794 C4796 1.327 . S
C4794 H4819 0.950 . S
C4795 C4794 1.349 . S
C4795 C4811 1.349 . S
C4796 C4794 1.327 . S
C4796 C4815 1.429 . S
C4796 H4820 0.950 . S
C4797 C4814 1.574 1_556 S
C4797 C4816 1.368 . S
C4797 H4821 0.949 . S
H4798 C4802 0.949 . S
C4799 C4800 1.349 . S
C4799 C4801 1.327 . S
C4799 H4822 0.950 . S
C4800 C4799 1.349 . S
C4800 C4812 1.349 . S
C4801 C4799 1.327 . S
C4801 C4817 1.429 . S
C4801 H4823 0.950 . S
C4802 H4798 0.949 . S
C4802 C4810 1.574 1_554 S
C4802 C4818 1.368 . S
H4803 C4811 0.950 . S
H4804 C4809 0.950 . S
H4805 C4810 0.949 . S
H4806 C4812 0.950 . S
H4807 C4813 0.950 . S
H4808 C4814 0.949 . S
C4809 H4804 0.950 . S
C4809 C4811 1.327 . S
C4809 C4815 1.429 . S
C4810 C4802 1.574 1_556 S
C4810 H4805 0.949 . S
C4810 C4816 1.368 . S
C4811 C4795 1.349 . S
C4811 H4803 0.950 . S
C4811 C4809 1.327 . S
C4812 C4800 1.349 . S
C4812 H4806 0.950 . S
C4812 C4813 1.327 . S
C4813 H4807 0.950 . S
C4813 C4812 1.327 . S
C4813 C4817 1.429 . S
C4814 C4797 1.574 1_554 S
C4814 H4808 0.949 . S
C4814 C4818 1.368 . S
C4815 C4796 1.429 . S
C4815 C4809 1.429 . S
C4815 C4816 1.523 . S
C4816 C4797 1.368 . S
C4816 C4810 1.368 . S
C4816 C4815 1.523 . S
C4817 C4801 1.429 . S
C4817 C4813 1.429 . S
C4817 C4818 1.523 . S
C4818 C4802 1.368 . S
C4818 C4814 1.368 . S
C4818 C4817 1.523 . S
H4819 C4794 0.950 . S
H4820 C4796 0.950 . S
H4821 C4797 0.949 . S
H4822 C4799 0.950 . S
H4823 C4801 0.950 . S
C4824 C4825 1.349 . S
C4824 C4826 1.327 . S
C4824 H4849 0.950 . S
C4825 C4824 1.349 . S
C4825 C4841 1.349 . S
C4826 C4824 1.327 . S
C4826 C4845 1.429 . S
C4826 H4850 0.950 . S
C4827 C4844 1.574 1_554 S
C4827 C4846 1.368 . S
C4827 H4851 0.949 . S
H4828 C4832 0.949 . S
C4829 C4830 1.349 . S
C4829 C4831 1.327 . S
C4829 H4852 0.950 . S
C4830 C4829 1.349 . S
C4830 C4842 1.349 . S
C4831 C4829 1.327 . S
C4831 C4847 1.429 . S
C4831 H4853 0.950 . S
C4832 H4828 0.949 . S
C4832 C4840 1.574 1_556 S
C4832 C4848 1.368 . S
H4833 C4841 0.950 . S
H4834 C4839 0.950 . S
H4835 C4840 0.949 . S
H4836 C4842 0.950 . S
H4837 C4843 0.950 . S
H4838 C4844 0.949 . S
C4839 H4834 0.950 . S
C4839 C4841 1.327 . S
C4839 C4845 1.429 . S
C4840 C4832 1.574 1_554 S
C4840 H4835 0.949 . S
C4840 C4846 1.368 . S
C4841 C4825 1.349 . S
C4841 H4833 0.950 . S
C4841 C4839 1.327 . S
C4842 C4830 1.349 . S
C4842 H4836 0.950 . S
C4842 C4843 1.327 . S
C4843 H4837 0.950 . S
C4843 C4842 1.327 . S
C4843 C4847 1.429 . S
C4844 C4827 1.574 1_556 S
C4844 H4838 0.949 . S
C4844 C4848 1.368 . S
C4845 C4826 1.429 . S
C4845 C4839 1.429 . S
C4845 C4846 1.523 . S
C4846 C4827 1.368 . S
C4846 C4840 1.368 . S
C4846 C4845 1.523 . S
C4847 C4831 1.429 . S
C4847 C4843 1.429 . S
C4847 C4848 1.523 . S
C4848 C4832 1.368 . S
C4848 C4844 1.368 . S
C4848 C4847 1.523 . S
H4849 C4824 0.950 . S
H4850 C4826 0.950 . S
H4851 C4827 0.949 . S
H4852 C4829 0.950 . S
H4853 C4831 0.950 . S
C4854 C4855 1.349 . S
C4854 C4856 1.327 . S
C4854 H4879 0.950 . S
C4855 C4854 1.349 . S
C4855 C4871 1.349 . S
C4856 C4854 1.327 . S
C4856 C4875 1.429 . S
C4856 H4880 0.950 . S
C4857 C4874 1.574 1_554 S
C4857 C4876 1.368 . S
C4857 H4881 0.949 . S
H4858 C4862 0.949 . S
C4859 C4860 1.349 . S
C4859 C4861 1.327 . S
C4859 H4882 0.950 . S
C4860 C4859 1.349 . S
C4860 C4872 1.349 . S
C4861 C4859 1.327 . S
C4861 C4877 1.429 . S
C4861 H4883 0.950 . S
C4862 H4858 0.949 . S
C4862 C4870 1.574 1_556 S
C4862 C4878 1.368 . S
H4863 C4871 0.950 . S
H4864 C4869 0.950 . S
H4865 C4870 0.949 . S
H4866 C4872 0.950 . S
H4867 C4873 0.950 . S
H4868 C4874 0.949 . S
C4869 H4864 0.950 . S
C4869 C4871 1.327 . S
C4869 C4875 1.429 . S
C4870 C4862 1.574 1_554 S
C4870 H4865 0.949 . S
C4870 C4876 1.368 . S
C4871 C4855 1.349 . S
C4871 H4863 0.950 . S
C4871 C4869 1.327 . S
C4872 C4860 1.349 . S
C4872 H4866 0.950 . S
C4872 C4873 1.327 . S
C4873 H4867 0.950 . S
C4873 C4872 1.327 . S
C4873 C4877 1.429 . S
C4874 C4857 1.574 1_556 S
C4874 H4868 0.949 . S
C4874 C4878 1.368 . S
C4875 C4856 1.429 . S
C4875 C4869 1.429 . S
C4875 C4876 1.523 . S
C4876 C4857 1.368 . S
C4876 C4870 1.368 . S
C4876 C4875 1.523 . S
C4877 C4861 1.429 . S
C4877 C4873 1.429 . S
C4877 C4878 1.523 . S
C4878 C4862 1.368 . S
C4878 C4874 1.368 . S
C4878 C4877 1.523 . S
H4879 C4854 0.950 . S
H4880 C4856 0.950 . S
H4881 C4857 0.949 . S
H4882 C4859 0.950 . S
H4883 C4861 0.950 . S
C4884 C4885 1.349 . S
C4884 C4886 1.327 . S
C4884 H4909 0.950 . S
C4885 C4884 1.349 . S
C4885 C4901 1.349 . S
C4886 C4884 1.327 . S
C4886 C4905 1.429 . S
C4886 H4910 0.950 . S
C4887 C4904 1.574 1_554 S
C4887 C4906 1.368 . S
C4887 H4911 0.949 . S
H4888 C4892 0.949 . S
C4889 C4890 1.349 . S
C4889 C4891 1.327 . S
C4889 H4912 0.950 . S
C4890 C4889 1.349 . S
C4890 C4902 1.349 . S
C4891 C4889 1.327 . S
C4891 C4907 1.429 . S
C4891 H4913 0.950 . S
C4892 H4888 0.949 . S
C4892 C4900 1.574 1_556 S
C4892 C4908 1.368 . S
H4893 C4901 0.950 . S
H4894 C4899 0.950 . S
H4895 C4900 0.949 . S
H4896 C4902 0.950 . S
H4897 C4903 0.950 . S
H4898 C4904 0.949 . S
C4899 H4894 0.950 . S
C4899 C4901 1.327 . S
C4899 C4905 1.429 . S
C4900 C4892 1.574 1_554 S
C4900 H4895 0.949 . S
C4900 C4906 1.368 . S
C4901 C4885 1.349 . S
C4901 H4893 0.950 . S
C4901 C4899 1.327 . S
C4902 C4890 1.349 . S
C4902 H4896 0.950 . S
C4902 C4903 1.327 . S
C4903 H4897 0.950 . S
C4903 C4902 1.327 . S
C4903 C4907 1.429 . S
C4904 C4887 1.574 1_556 S
C4904 H4898 0.949 . S
C4904 C4908 1.368 . S
C4905 C4886 1.429 . S
C4905 C4899 1.429 . S
C4905 C4906 1.523 . S
C4906 C4887 1.368 . S
C4906 C4900 1.368 . S
C4906 C4905 1.523 . S
C4907 C4891 1.429 . S
C4907 C4903 1.429 . S
C4907 C4908 1.523 . S
C4908 C4892 1.368 . S
C4908 C4904 1.368 . S
C4908 C4907 1.523 . S
H4909 C4884 0.950 . S
H4910 C4886 0.950 . S
H4911 C4887 0.949 . S
H4912 C4889 0.950 . S
H4913 C4891 0.950 . S
C4914 C4915 1.349 . S
C4914 C4916 1.327 . S
C4914 H4939 0.950 . S
C4915 C4914 1.349 . S
C4915 C4931 1.349 . S
C4916 C4914 1.327 . S
C4916 C4935 1.429 . S
C4916 H4940 0.950 . S
C4917 C4934 1.574 1_556 S
C4917 C4936 1.368 . S
C4917 H4941 0.949 . S
H4918 C4922 0.949 . S
C4919 C4920 1.349 . S
C4919 C4921 1.327 . S
C4919 H4942 0.950 . S
C4920 C4919 1.349 . S
C4920 C4932 1.349 . S
C4921 C4919 1.327 . S
C4921 C4937 1.429 . S
C4921 H4943 0.950 . S
C4922 H4918 0.949 . S
C4922 C4930 1.574 1_554 S
C4922 C4938 1.368 . S
H4923 C4931 0.950 . S
H4924 C4929 0.950 . S
H4925 C4930 0.949 . S
H4926 C4932 0.950 . S
H4927 C4933 0.950 . S
H4928 C4934 0.949 . S
C4929 H4924 0.950 . S
C4929 C4931 1.327 . S
C4929 C4935 1.429 . S
C4930 C4922 1.574 1_556 S
C4930 H4925 0.949 . S
C4930 C4936 1.368 . S
C4931 C4915 1.349 . S
C4931 H4923 0.950 . S
C4931 C4929 1.327 . S
C4932 C4920 1.349 . S
C4932 H4926 0.950 . S
C4932 C4933 1.327 . S
C4933 H4927 0.950 . S
C4933 C4932 1.327 . S
C4933 C4937 1.429 . S
C4934 C4917 1.574 1_554 S
C4934 H4928 0.949 . S
C4934 C4938 1.368 . S
C4935 C4916 1.429 . S
C4935 C4929 1.429 . S
C4935 C4936 1.523 . S
C4936 C4917 1.368 . S
C4936 C4930 1.368 . S
C4936 C4935 1.523 . S
C4937 C4921 1.429 . S
C4937 C4933 1.429 . S
C4937 C4938 1.523 . S
C4938 C4922 1.368 . S
C4938 C4934 1.368 . S
C4938 C4937 1.523 . S
H4939 C4914 0.950 . S
H4940 C4916 0.950 . S
H4941 C4917 0.949 . S
H4942 C4919 0.950 . S
H4943 C4921 0.950 . S
C4944 C4945 1.349 . S
C4944 C4946 1.327 . S
C4944 H4969 0.950 . S
C4945 C4944 1.349 . S
C4945 C4961 1.349 . S
C4946 C4944 1.327 . S
C4946 C4965 1.429 . S
C4946 H4970 0.950 . S
C4947 C4964 1.574 . S
C4947 C4966 1.368 . S
C4947 H4971 0.949 . S
H4948 C4952 0.949 . S
C4949 C4950 1.349 . S
C4949 C4951 1.327 . S
C4949 H4972 0.950 . S
C4950 C4949 1.349 . S
C4950 C4962 1.349 . S
C4951 C4949 1.327 . S
C4951 C4967 1.429 . S
C4951 H4973 0.950 . S
C4952 H4948 0.949 . S
C4952 C4960 1.574 . S
C4952 C4968 1.368 . S
H4953 C4961 0.950 . S
H4954 C4959 0.950 . S
H4955 C4960 0.949 . S
H4956 C4962 0.950 . S
H4957 C4963 0.950 . S
H4958 C4964 0.949 . S
C4959 H4954 0.950 . S
C4959 C4961 1.327 . S
C4959 C4965 1.429 . S
C4960 C4952 1.574 . S
C4960 H4955 0.949 . S
C4960 C4966 1.368 . S
C4961 C4945 1.349 . S
C4961 H4953 0.950 . S
C4961 C4959 1.327 . S
C4962 C4950 1.349 . S
C4962 H4956 0.950 . S
C4962 C4963 1.327 . S
C4963 H4957 0.950 . S
C4963 C4962 1.327 . S
C4963 C4967 1.429 . S
C4964 C4947 1.574 . S
C4964 H4958 0.949 . S
C4964 C4968 1.368 . S
C4965 C4946 1.429 . S
C4965 C4959 1.429 . S
C4965 C4966 1.523 . S
C4966 C4947 1.368 . S
C4966 C4960 1.368 . S
C4966 C4965 1.523 . S
C4967 C4951 1.429 . S
C4967 C4963 1.429 . S
C4967 C4968 1.523 . S
C4968 C4952 1.368 . S
C4968 C4964 1.368 . S
C4968 C4967 1.523 . S
H4969 C4944 0.950 . S
H4970 C4946 0.950 . S
H4971 C4947 0.949 . S
H4972 C4949 0.950 . S
H4973 C4951 0.950 . S
C4974 C4975 1.349 . S
C4974 C4976 1.327 . S
C4974 H4999 0.950 . S
C4975 C4974 1.349 . S
C4975 C4991 1.349 . S
C4976 C4974 1.327 . S
C4976 C4995 1.429 . S
C4976 H5000 0.950 . S
C4977 C4994 1.574 . S
C4977 C4996 1.368 . S
C4977 H5001 0.949 . S
H4978 C4982 0.949 . S
C4979 C4980 1.349 . S
C4979 C4981 1.327 . S
C4979 H5002 0.950 . S
C4980 C4979 1.349 . S
C4980 C4992 1.349 . S
C4981 C4979 1.327 . S
C4981 C4997 1.429 . S
C4981 H5003 0.950 . S
C4982 H4978 0.949 . S
C4982 C4990 1.574 . S
C4982 C4998 1.368 . S
H4983 C4991 0.950 . S
H4984 C4989 0.950 . S
H4985 C4990 0.949 . S
H4986 C4992 0.950 . S
H4987 C4993 0.950 . S
H4988 C4994 0.949 . S
C4989 H4984 0.950 . S
C4989 C4991 1.327 . S
C4989 C4995 1.429 . S
C4990 C4982 1.574 . S
C4990 H4985 0.949 . S
C4990 C4996 1.368 . S
C4991 C4975 1.349 . S
C4991 H4983 0.950 . S
C4991 C4989 1.327 . S
C4992 C4980 1.349 . S
C4992 H4986 0.950 . S
C4992 C4993 1.327 . S
C4993 H4987 0.950 . S
C4993 C4992 1.327 . S
C4993 C4997 1.429 . S
C4994 C4977 1.574 . S
C4994 H4988 0.949 . S
C4994 C4998 1.368 . S
C4995 C4976 1.429 . S
C4995 C4989 1.429 . S
C4995 C4996 1.523 . S
C4996 C4977 1.368 . S
C4996 C4990 1.368 . S
C4996 C4995 1.523 . S
C4997 C4981 1.429 . S
C4997 C4993 1.429 . S
C4997 C4998 1.523 . S
C4998 C4982 1.368 . S
C4998 C4994 1.368 . S
C4998 C4997 1.523 . S
H4999 C4974 0.950 . S
H5000 C4976 0.950 . S
H5001 C4977 0.949 . S
H5002 C4979 0.950 . S
H5003 C4981 0.950 . S
C5004 C5005 1.349 . S
C5004 C5006 1.327 . S
C5004 H5029 0.950 . S
C5005 C5004 1.349 . S
C5005 C5021 1.349 . S
C5006 C5004 1.327 . S
C5006 C5025 1.429 . S
C5006 H5030 0.950 . S
C5007 C5024 1.574 . S
C5007 C5026 1.368 . S
C5007 H5031 0.949 . S
H5008 C5012 0.949 . S
C5009 C5010 1.349 . S
C5009 C5011 1.327 . S
C5009 H5032 0.950 . S
C5010 C5009 1.349 . S
C5010 C5022 1.349 . S
C5011 C5009 1.327 . S
C5011 C5027 1.429 . S
C5011 H5033 0.950 . S
C5012 H5008 0.949 . S
C5012 C5020 1.574 . S
C5012 C5028 1.368 . S
H5013 C5021 0.950 . S
H5014 C5019 0.950 . S
H5015 C5020 0.949 . S
H5016 C5022 0.950 . S
H5017 C5023 0.950 . S
H5018 C5024 0.949 . S
C5019 H5014 0.950 . S
C5019 C5021 1.327 . S
C5019 C5025 1.429 . S
C5020 C5012 1.574 . S
C5020 H5015 0.949 . S
C5020 C5026 1.368 . S
C5021 C5005 1.349 . S
C5021 H5013 0.950 . S
C5021 C5019 1.327 . S
C5022 C5010 1.349 . S
C5022 H5016 0.950 . S
C5022 C5023 1.327 . S
C5023 H5017 0.950 . S
C5023 C5022 1.327 . S
C5023 C5027 1.429 . S
C5024 C5007 1.574 . S
C5024 H5018 0.949 . S
C5024 C5028 1.368 . S
C5025 C5006 1.429 . S
C5025 C5019 1.429 . S
C5025 C5026 1.523 . S
C5026 C5007 1.368 . S
C5026 C5020 1.368 . S
C5026 C5025 1.523 . S
C5027 C5011 1.429 . S
C5027 C5023 1.429 . S
C5027 C5028 1.523 . S
C5028 C5012 1.368 . S
C5028 C5024 1.368 . S
C5028 C5027 1.523 . S
H5029 C5004 0.950 . S
H5030 C5006 0.950 . S
H5031 C5007 0.949 . S
H5032 C5009 0.950 . S
H5033 C5011 0.950 . S
C5034 C5035 1.349 . S
C5034 C5036 1.327 . S
C5034 H5059 0.950 . S
C5035 C5034 1.349 . S
C5035 C5051 1.349 . S
C5036 C5034 1.327 . S
C5036 C5055 1.429 . S
C5036 H5060 0.950 . S
C5037 C5054 1.574 . S
C5037 C5056 1.368 . S
C5037 H5061 0.949 . S
H5038 C5042 0.949 . S
C5039 C5040 1.349 . S
C5039 C5041 1.327 . S
C5039 H5062 0.950 . S
C5040 C5039 1.349 . S
C5040 C5052 1.349 . S
C5041 C5039 1.327 . S
C5041 C5057 1.429 . S
C5041 H5063 0.950 . S
C5042 H5038 0.949 . S
C5042 C5050 1.574 . S
C5042 C5058 1.368 . S
H5043 C5051 0.950 . S
H5044 C5049 0.950 . S
H5045 C5050 0.949 . S
H5046 C5052 0.950 . S
H5047 C5053 0.950 . S
H5048 C5054 0.949 . S
C5049 H5044 0.950 . S
C5049 C5051 1.327 . S
C5049 C5055 1.429 . S
C5050 C5042 1.574 . S
C5050 H5045 0.949 . S
C5050 C5056 1.368 . S
C5051 C5035 1.349 . S
C5051 H5043 0.950 . S
C5051 C5049 1.327 . S
C5052 C5040 1.349 . S
C5052 H5046 0.950 . S
C5052 C5053 1.327 . S
C5053 H5047 0.950 . S
C5053 C5052 1.327 . S
C5053 C5057 1.429 . S
C5054 C5037 1.574 . S
C5054 H5048 0.949 . S
C5054 C5058 1.368 . S
C5055 C5036 1.429 . S
C5055 C5049 1.429 . S
C5055 C5056 1.523 . S
C5056 C5037 1.368 . S
C5056 C5050 1.368 . S
C5056 C5055 1.523 . S
C5057 C5041 1.429 . S
C5057 C5053 1.429 . S
C5057 C5058 1.523 . S
C5058 C5042 1.368 . S
C5058 C5054 1.368 . S
C5058 C5057 1.523 . S
H5059 C5034 0.950 . S
H5060 C5036 0.950 . S
H5061 C5037 0.949 . S
H5062 C5039 0.950 . S
H5063 C5041 0.950 . S
C5064 C5065 1.349 . S
C5064 C5066 1.327 . S
C5064 H5089 0.950 . S
C5065 C5064 1.349 . S
C5065 C5081 1.349 . S
C5066 C5064 1.327 . S
C5066 C5085 1.429 . S
C5066 H5090 0.950 . S
C5067 C5084 1.574 . S
C5067 C5086 1.368 . S
C5067 H5091 0.949 . S
H5068 C5072 0.949 . S
C5069 C5070 1.349 . S
C5069 C5071 1.327 . S
C5069 H5092 0.950 . S
C5070 C5069 1.349 . S
C5070 C5082 1.349 . S
C5071 C5069 1.327 . S
C5071 C5087 1.429 . S
C5071 H5093 0.950 . S
C5072 H5068 0.949 . S
C5072 C5080 1.574 . S
C5072 C5088 1.368 . S
H5073 C5081 0.950 . S
H5074 C5079 0.950 . S
H5075 C5080 0.949 . S
H5076 C5082 0.950 . S
H5077 C5083 0.950 . S
H5078 C5084 0.949 . S
C5079 H5074 0.950 . S
C5079 C5081 1.327 . S
C5079 C5085 1.429 . S
C5080 C5072 1.574 . S
C5080 H5075 0.949 . S
C5080 C5086 1.368 . S
C5081 C5065 1.349 . S
C5081 H5073 0.950 . S
C5081 C5079 1.327 . S
C5082 C5070 1.349 . S
C5082 H5076 0.950 . S
C5082 C5083 1.327 . S
C5083 H5077 0.950 . S
C5083 C5082 1.327 . S
C5083 C5087 1.429 . S
C5084 C5067 1.574 . S
C5084 H5078 0.949 . S
C5084 C5088 1.368 . S
C5085 C5066 1.429 . S
C5085 C5079 1.429 . S
C5085 C5086 1.523 . S
C5086 C5067 1.368 . S
C5086 C5080 1.368 . S
C5086 C5085 1.523 . S
C5087 C5071 1.429 . S
C5087 C5083 1.429 . S
C5087 C5088 1.523 . S
C5088 C5072 1.368 . S
C5088 C5084 1.368 . S
C5088 C5087 1.523 . S
H5089 C5064 0.950 . S
H5090 C5066 0.950 . S
H5091 C5067 0.949 . S
H5092 C5069 0.950 . S
H5093 C5071 0.950 . S
C5094 C5095 1.349 . S
C5094 C5096 1.327 . S
C5094 H5119 0.950 . S
C5095 C5094 1.349 . S
C5095 C5111 1.349 . S
C5096 C5094 1.327 . S
C5096 C5115 1.429 . S
C5096 H5120 0.950 . S
C5097 C5114 1.574 . S
C5097 C5116 1.368 . S
C5097 H5121 0.949 . S
H5098 C5102 0.949 . S
C5099 C5100 1.349 . S
C5099 C5101 1.327 . S
C5099 H5122 0.950 . S
C5100 C5099 1.349 . S
C5100 C5112 1.349 . S
C5101 C5099 1.327 . S
C5101 C5117 1.429 . S
C5101 H5123 0.950 . S
C5102 H5098 0.949 . S
C5102 C5110 1.574 . S
C5102 C5118 1.368 . S
H5103 C5111 0.950 . S
H5104 C5109 0.950 . S
H5105 C5110 0.949 . S
H5106 C5112 0.950 . S
H5107 C5113 0.950 . S
H5108 C5114 0.949 . S
C5109 H5104 0.950 . S
C5109 C5111 1.327 . S
C5109 C5115 1.429 . S
C5110 C5102 1.574 . S
C5110 H5105 0.949 . S
C5110 C5116 1.368 . S
C5111 C5095 1.349 . S
C5111 H5103 0.950 . S
C5111 C5109 1.327 . S
C5112 C5100 1.349 . S
C5112 H5106 0.950 . S
C5112 C5113 1.327 . S
C5113 H5107 0.950 . S
C5113 C5112 1.327 . S
C5113 C5117 1.429 . S
C5114 C5097 1.574 . S
C5114 H5108 0.949 . S
C5114 C5118 1.368 . S
C5115 C5096 1.429 . S
C5115 C5109 1.429 . S
C5115 C5116 1.523 . S
C5116 C5097 1.368 . S
C5116 C5110 1.368 . S
C5116 C5115 1.523 . S
C5117 C5101 1.429 . S
C5117 C5113 1.429 . S
C5117 C5118 1.523 . S
C5118 C5102 1.368 . S
C5118 C5114 1.368 . S
C5118 C5117 1.523 . S
H5119 C5094 0.950 . S
H5120 C5096 0.950 . S
H5121 C5097 0.949 . S
H5122 C5099 0.950 . S
H5123 C5101 0.950 . S
C5124 C5125 1.349 . S
C5124 C5126 1.327 . S
C5124 H5149 0.950 . S
C5125 C5124 1.349 . S
C5125 C5141 1.349 . S
C5126 C5124 1.327 . S
C5126 C5145 1.429 . S
C5126 H5150 0.950 . S
C5127 C5144 1.574 . S
C5127 C5146 1.368 . S
C5127 H5151 0.949 . S
H5128 C5132 0.949 . S
C5129 C5130 1.349 . S
C5129 C5131 1.327 . S
C5129 H5152 0.950 . S
C5130 C5129 1.349 . S
C5130 C5142 1.349 . S
C5131 C5129 1.327 . S
C5131 C5147 1.429 . S
C5131 H5153 0.950 . S
C5132 H5128 0.949 . S
C5132 C5140 1.574 . S
C5132 C5148 1.368 . S
H5133 C5141 0.950 . S
H5134 C5139 0.950 . S
H5135 C5140 0.949 . S
H5136 C5142 0.950 . S
H5137 C5143 0.950 . S
H5138 C5144 0.949 . S
C5139 H5134 0.950 . S
C5139 C5141 1.327 . S
C5139 C5145 1.429 . S
C5140 C5132 1.574 . S
C5140 H5135 0.949 . S
C5140 C5146 1.368 . S
C5141 C5125 1.349 . S
C5141 H5133 0.950 . S
C5141 C5139 1.327 . S
C5142 C5130 1.349 . S
C5142 H5136 0.950 . S
C5142 C5143 1.327 . S
C5143 H5137 0.950 . S
C5143 C5142 1.327 . S
C5143 C5147 1.429 . S
C5144 C5127 1.574 . S
C5144 H5138 0.949 . S
C5144 C5148 1.368 . S
C5145 C5126 1.429 . S
C5145 C5139 1.429 . S
C5145 C5146 1.523 . S
C5146 C5127 1.368 . S
C5146 C5140 1.368 . S
C5146 C5145 1.523 . S
C5147 C5131 1.429 . S
C5147 C5143 1.429 . S
C5147 C5148 1.523 . S
C5148 C5132 1.368 . S
C5148 C5144 1.368 . S
C5148 C5147 1.523 . S
H5149 C5124 0.950 . S
H5150 C5126 0.950 . S
H5151 C5127 0.949 . S
H5152 C5129 0.950 . S
H5153 C5131 0.950 . S
C5154 C5155 1.349 . S
C5154 C5156 1.327 . S
C5154 H5179 0.950 . S
C5155 C5154 1.349 . S
C5155 C5171 1.349 . S
C5156 C5154 1.327 . S
C5156 C5175 1.429 . S
C5156 H5180 0.950 . S
C5157 C5174 1.574 . S
C5157 C5176 1.368 . S
C5157 H5181 0.949 . S
H5158 C5162 0.949 . S
C5159 C5160 1.349 . S
C5159 C5161 1.327 . S
C5159 H5182 0.950 . S
C5160 C5159 1.349 . S
C5160 C5172 1.349 . S
C5161 C5159 1.327 . S
C5161 C5177 1.429 . S
C5161 H5183 0.950 . S
C5162 H5158 0.949 . S
C5162 C5170 1.574 . S
C5162 C5178 1.368 . S
H5163 C5171 0.950 . S
H5164 C5169 0.950 . S
H5165 C5170 0.949 . S
H5166 C5172 0.950 . S
H5167 C5173 0.950 . S
H5168 C5174 0.949 . S
C5169 H5164 0.950 . S
C5169 C5171 1.327 . S
C5169 C5175 1.429 . S
C5170 C5162 1.574 . S
C5170 H5165 0.949 . S
C5170 C5176 1.368 . S
C5171 C5155 1.349 . S
C5171 H5163 0.950 . S
C5171 C5169 1.327 . S
C5172 C5160 1.349 . S
C5172 H5166 0.950 . S
C5172 C5173 1.327 . S
C5173 H5167 0.950 . S
C5173 C5172 1.327 . S
C5173 C5177 1.429 . S
C5174 C5157 1.574 . S
C5174 H5168 0.949 . S
C5174 C5178 1.368 . S
C5175 C5156 1.429 . S
C5175 C5169 1.429 . S
C5175 C5176 1.523 . S
C5176 C5157 1.368 . S
C5176 C5170 1.368 . S
C5176 C5175 1.523 . S
C5177 C5161 1.429 . S
C5177 C5173 1.429 . S
C5177 C5178 1.523 . S
C5178 C5162 1.368 . S
C5178 C5174 1.368 . S
C5178 C5177 1.523 . S
H5179 C5154 0.950 . S
H5180 C5156 0.950 . S
H5181 C5157 0.949 . S
H5182 C5159 0.950 . S
H5183 C5161 0.950 . S
C5184 C5185 1.349 . S
C5184 C5186 1.327 . S
C5184 H5209 0.950 . S
C5185 C5184 1.349 . S
C5185 C5201 1.349 . S
C5186 C5184 1.327 . S
C5186 C5205 1.429 . S
C5186 H5210 0.950 . S
C5187 C5204 1.574 . S
C5187 C5206 1.368 . S
C5187 H5211 0.949 . S
H5188 C5192 0.949 . S
C5189 C5190 1.349 . S
C5189 C5191 1.327 . S
C5189 H5212 0.950 . S
C5190 C5189 1.349 . S
C5190 C5202 1.349 . S
C5191 C5189 1.327 . S
C5191 C5207 1.429 . S
C5191 H5213 0.950 . S
C5192 H5188 0.949 . S
C5192 C5200 1.574 . S
C5192 C5208 1.368 . S
H5193 C5201 0.950 . S
H5194 C5199 0.950 . S
H5195 C5200 0.949 . S
H5196 C5202 0.950 . S
H5197 C5203 0.950 . S
H5198 C5204 0.949 . S
C5199 H5194 0.950 . S
C5199 C5201 1.327 . S
C5199 C5205 1.429 . S
C5200 C5192 1.574 . S
C5200 H5195 0.949 . S
C5200 C5206 1.368 . S
C5201 C5185 1.349 . S
C5201 H5193 0.950 . S
C5201 C5199 1.327 . S
C5202 C5190 1.349 . S
C5202 H5196 0.950 . S
C5202 C5203 1.327 . S
C5203 H5197 0.950 . S
C5203 C5202 1.327 . S
C5203 C5207 1.429 . S
C5204 C5187 1.574 . S
C5204 H5198 0.949 . S
C5204 C5208 1.368 . S
C5205 C5186 1.429 . S
C5205 C5199 1.429 . S
C5205 C5206 1.523 . S
C5206 C5187 1.368 . S
C5206 C5200 1.368 . S
C5206 C5205 1.523 . S
C5207 C5191 1.429 . S
C5207 C5203 1.429 . S
C5207 C5208 1.523 . S
C5208 C5192 1.368 . S
C5208 C5204 1.368 . S
C5208 C5207 1.523 . S
H5209 C5184 0.950 . S
H5210 C5186 0.950 . S
H5211 C5187 0.949 . S
H5212 C5189 0.950 . S
H5213 C5191 0.950 . S
C5214 C5215 1.349 . S
C5214 C5216 1.327 . S
C5214 H5239 0.950 . S
C5215 C5214 1.349 . S
C5215 C5231 1.349 . S
C5216 C5214 1.327 . S
C5216 C5235 1.429 . S
C5216 H5240 0.950 . S
C5217 C5234 1.574 . S
C5217 C5236 1.368 . S
C5217 H5241 0.949 . S
H5218 C5222 0.949 . S
C5219 C5220 1.349 . S
C5219 C5221 1.327 . S
C5219 H5242 0.950 . S
C5220 C5219 1.349 . S
C5220 C5232 1.349 . S
C5221 C5219 1.327 . S
C5221 C5237 1.429 . S
C5221 H5243 0.950 . S
C5222 H5218 0.949 . S
C5222 C5230 1.574 . S
C5222 C5238 1.368 . S
H5223 C5231 0.950 . S
H5224 C5229 0.950 . S
H5225 C5230 0.949 . S
H5226 C5232 0.950 . S
H5227 C5233 0.950 . S
H5228 C5234 0.949 . S
C5229 H5224 0.950 . S
C5229 C5231 1.327 . S
C5229 C5235 1.429 . S
C5230 C5222 1.574 . S
C5230 H5225 0.949 . S
C5230 C5236 1.368 . S
C5231 C5215 1.349 . S
C5231 H5223 0.950 . S
C5231 C5229 1.327 . S
C5232 C5220 1.349 . S
C5232 H5226 0.950 . S
C5232 C5233 1.327 . S
C5233 H5227 0.950 . S
C5233 C5232 1.327 . S
C5233 C5237 1.429 . S
C5234 C5217 1.574 . S
C5234 H5228 0.949 . S
C5234 C5238 1.368 . S
C5235 C5216 1.429 . S
C5235 C5229 1.429 . S
C5235 C5236 1.523 . S
C5236 C5217 1.368 . S
C5236 C5230 1.368 . S
C5236 C5235 1.523 . S
C5237 C5221 1.429 . S
C5237 C5233 1.429 . S
C5237 C5238 1.523 . S
C5238 C5222 1.368 . S
C5238 C5234 1.368 . S
C5238 C5237 1.523 . S
H5239 C5214 0.950 . S
H5240 C5216 0.950 . S
H5241 C5217 0.949 . S
H5242 C5219 0.950 . S
H5243 C5221 0.950 . S
C5244 C5245 1.349 . S
C5244 C5246 1.327 . S
C5244 H5269 0.950 . S
C5245 C5244 1.349 . S
C5245 C5261 1.349 . S
C5246 C5244 1.327 . S
C5246 C5265 1.429 . S
C5246 H5270 0.950 . S
C5247 C5264 1.574 . S
C5247 C5266 1.368 . S
C5247 H5271 0.949 . S
H5248 C5252 0.949 . S
C5249 C5250 1.349 . S
C5249 C5251 1.327 . S
C5249 H5272 0.950 . S
C5250 C5249 1.349 . S
C5250 C5262 1.349 . S
C5251 C5249 1.327 . S
C5251 C5267 1.429 . S
C5251 H5273 0.950 . S
C5252 H5248 0.949 . S
C5252 C5260 1.574 . S
C5252 C5268 1.368 . S
H5253 C5261 0.950 . S
H5254 C5259 0.950 . S
H5255 C5260 0.949 . S
H5256 C5262 0.950 . S
H5257 C5263 0.950 . S
H5258 C5264 0.949 . S
C5259 H5254 0.950 . S
C5259 C5261 1.327 . S
C5259 C5265 1.429 . S
C5260 C5252 1.574 . S
C5260 H5255 0.949 . S
C5260 C5266 1.368 . S
C5261 C5245 1.349 . S
C5261 H5253 0.950 . S
C5261 C5259 1.327 . S
C5262 C5250 1.349 . S
C5262 H5256 0.950 . S
C5262 C5263 1.327 . S
C5263 H5257 0.950 . S
C5263 C5262 1.327 . S
C5263 C5267 1.429 . S
C5264 C5247 1.574 . S
C5264 H5258 0.949 . S
C5264 C5268 1.368 . S
C5265 C5246 1.429 . S
C5265 C5259 1.429 . S
C5265 C5266 1.523 . S
C5266 C5247 1.368 . S
C5266 C5260 1.368 . S
C5266 C5265 1.523 . S
C5267 C5251 1.429 . S
C5267 C5263 1.429 . S
C5267 C5268 1.523 . S
C5268 C5252 1.368 . S
C5268 C5264 1.368 . S
C5268 C5267 1.523 . S
H5269 C5244 0.950 . S
H5270 C5246 0.950 . S
H5271 C5247 0.949 . S
H5272 C5249 0.950 . S
H5273 C5251 0.950 . S
C5274 C5275 1.349 . S
C5274 C5276 1.327 . S
C5274 H5299 0.950 . S
C5275 C5274 1.349 . S
C5275 C5291 1.349 . S
C5276 C5274 1.327 . S
C5276 C5295 1.429 . S
C5276 H5300 0.950 . S
C5277 C5294 1.574 . S
C5277 C5296 1.368 . S
C5277 H5301 0.949 . S
H5278 C5282 0.949 . S
C5279 C5280 1.349 . S
C5279 C5281 1.327 . S
C5279 H5302 0.950 . S
C5280 C5279 1.349 . S
C5280 C5292 1.349 . S
C5281 C5279 1.327 . S
C5281 C5297 1.429 . S
C5281 H5303 0.950 . S
C5282 H5278 0.949 . S
C5282 C5290 1.574 . S
C5282 C5298 1.368 . S
H5283 C5291 0.950 . S
H5284 C5289 0.950 . S
H5285 C5290 0.949 . S
H5286 C5292 0.950 . S
H5287 C5293 0.950 . S
H5288 C5294 0.949 . S
C5289 H5284 0.950 . S
C5289 C5291 1.327 . S
C5289 C5295 1.429 . S
C5290 C5282 1.574 . S
C5290 H5285 0.949 . S
C5290 C5296 1.368 . S
C5291 C5275 1.349 . S
C5291 H5283 0.950 . S
C5291 C5289 1.327 . S
C5292 C5280 1.349 . S
C5292 H5286 0.950 . S
C5292 C5293 1.327 . S
C5293 H5287 0.950 . S
C5293 C5292 1.327 . S
C5293 C5297 1.429 . S
C5294 C5277 1.574 . S
C5294 H5288 0.949 . S
C5294 C5298 1.368 . S
C5295 C5276 1.429 . S
C5295 C5289 1.429 . S
C5295 C5296 1.523 . S
C5296 C5277 1.368 . S
C5296 C5290 1.368 . S
C5296 C5295 1.523 . S
C5297 C5281 1.429 . S
C5297 C5293 1.429 . S
C5297 C5298 1.523 . S
C5298 C5282 1.368 . S
C5298 C5294 1.368 . S
C5298 C5297 1.523 . S
H5299 C5274 0.950 . S
H5300 C5276 0.950 . S
H5301 C5277 0.949 . S
H5302 C5279 0.950 . S
H5303 C5281 0.950 . S
C5304 C5305 1.349 . S
C5304 C5306 1.327 . S
C5304 H5329 0.950 . S
C5305 C5304 1.349 . S
C5305 C5321 1.349 . S
C5306 C5304 1.327 . S
C5306 C5325 1.429 . S
C5306 H5330 0.950 . S
C5307 C5324 1.574 . S
C5307 C5326 1.368 . S
C5307 H5331 0.949 . S
H5308 C5312 0.949 . S
C5309 C5310 1.349 . S
C5309 C5311 1.327 . S
C5309 H5332 0.950 . S
C5310 C5309 1.349 . S
C5310 C5322 1.349 . S
C5311 C5309 1.327 . S
C5311 C5327 1.429 . S
C5311 H5333 0.950 . S
C5312 H5308 0.949 . S
C5312 C5320 1.574 . S
C5312 C5328 1.368 . S
H5313 C5321 0.950 . S
H5314 C5319 0.950 . S
H5315 C5320 0.949 . S
H5316 C5322 0.950 . S
H5317 C5323 0.950 . S
H5318 C5324 0.949 . S
C5319 H5314 0.950 . S
C5319 C5321 1.327 . S
C5319 C5325 1.429 . S
C5320 C5312 1.574 . S
C5320 H5315 0.949 . S
C5320 C5326 1.368 . S
C5321 C5305 1.349 . S
C5321 H5313 0.950 . S
C5321 C5319 1.327 . S
C5322 C5310 1.349 . S
C5322 H5316 0.950 . S
C5322 C5323 1.327 . S
C5323 H5317 0.950 . S
C5323 C5322 1.327 . S
C5323 C5327 1.429 . S
C5324 C5307 1.574 . S
C5324 H5318 0.949 . S
C5324 C5328 1.368 . S
C5325 C5306 1.429 . S
C5325 C5319 1.429 . S
C5325 C5326 1.523 . S
C5326 C5307 1.368 . S
C5326 C5320 1.368 . S
C5326 C5325 1.523 . S
C5327 C5311 1.429 . S
C5327 C5323 1.429 . S
C5327 C5328 1.523 . S
C5328 C5312 1.368 . S
C5328 C5324 1.368 . S
C5328 C5327 1.523 . S
H5329 C5304 0.950 . S
H5330 C5306 0.950 . S
H5331 C5307 0.949 . S
H5332 C5309 0.950 . S
H5333 C5311 0.950 . S
C5334 C5335 1.349 . S
C5334 C5336 1.327 . S
C5334 H5359 0.950 . S
C5335 C5334 1.349 . S
C5335 C5351 1.349 . S
C5336 C5334 1.327 . S
C5336 C5355 1.429 . S
C5336 H5360 0.950 . S
C5337 C5354 1.574 . S
C5337 C5356 1.368 . S
C5337 H5361 0.949 . S
H5338 C5342 0.949 . S
C5339 C5340 1.349 . S
C5339 C5341 1.327 . S
C5339 H5362 0.950 . S
C5340 C5339 1.349 . S
C5340 C5352 1.349 . S
C5341 C5339 1.327 . S
C5341 C5357 1.429 . S
C5341 H5363 0.950 . S
C5342 H5338 0.949 . S
C5342 C5350 1.574 . S
C5342 C5358 1.368 . S
H5343 C5351 0.950 . S
H5344 C5349 0.950 . S
H5345 C5350 0.949 . S
H5346 C5352 0.950 . S
H5347 C5353 0.950 . S
H5348 C5354 0.949 . S
C5349 H5344 0.950 . S
C5349 C5351 1.327 . S
C5349 C5355 1.429 . S
C5350 C5342 1.574 . S
C5350 H5345 0.949 . S
C5350 C5356 1.368 . S
C5351 C5335 1.349 . S
C5351 H5343 0.950 . S
C5351 C5349 1.327 . S
C5352 C5340 1.349 . S
C5352 H5346 0.950 . S
C5352 C5353 1.327 . S
C5353 H5347 0.950 . S
C5353 C5352 1.327 . S
C5353 C5357 1.429 . S
C5354 C5337 1.574 . S
C5354 H5348 0.949 . S
C5354 C5358 1.368 . S
C5355 C5336 1.429 . S
C5355 C5349 1.429 . S
C5355 C5356 1.523 . S
C5356 C5337 1.368 . S
C5356 C5350 1.368 . S
C5356 C5355 1.523 . S
C5357 C5341 1.429 . S
C5357 C5353 1.429 . S
C5357 C5358 1.523 . S
C5358 C5342 1.368 . S
C5358 C5354 1.368 . S
C5358 C5357 1.523 . S
H5359 C5334 0.950 . S
H5360 C5336 0.950 . S
H5361 C5337 0.949 . S
H5362 C5339 0.950 . S
H5363 C5341 0.950 . S
C5364 C5365 1.349 . S
C5364 C5366 1.327 . S
C5364 H5389 0.950 . S
C5365 C5364 1.349 . S
C5365 C5381 1.349 . S
C5366 C5364 1.327 . S
C5366 C5385 1.429 . S
C5366 H5390 0.950 . S
C5367 C5384 1.574 . S
C5367 C5386 1.368 . S
C5367 H5391 0.949 . S
H5368 C5372 0.949 . S
C5369 C5370 1.349 . S
C5369 C5371 1.327 . S
C5369 H5392 0.950 . S
C5370 C5369 1.349 . S
C5370 C5382 1.349 . S
C5371 C5369 1.327 . S
C5371 C5387 1.429 . S
C5371 H5393 0.950 . S
C5372 H5368 0.949 . S
C5372 C5380 1.574 . S
C5372 C5388 1.368 . S
H5373 C5381 0.950 . S
H5374 C5379 0.950 . S
H5375 C5380 0.949 . S
H5376 C5382 0.950 . S
H5377 C5383 0.950 . S
H5378 C5384 0.949 . S
C5379 H5374 0.950 . S
C5379 C5381 1.327 . S
C5379 C5385 1.429 . S
C5380 C5372 1.574 . S
C5380 H5375 0.949 . S
C5380 C5386 1.368 . S
C5381 C5365 1.349 . S
C5381 H5373 0.950 . S
C5381 C5379 1.327 . S
C5382 C5370 1.349 . S
C5382 H5376 0.950 . S
C5382 C5383 1.327 . S
C5383 H5377 0.950 . S
C5383 C5382 1.327 . S
C5383 C5387 1.429 . S
C5384 C5367 1.574 . S
C5384 H5378 0.949 . S
C5384 C5388 1.368 . S
C5385 C5366 1.429 . S
C5385 C5379 1.429 . S
C5385 C5386 1.523 . S
C5386 C5367 1.368 . S
C5386 C5380 1.368 . S
C5386 C5385 1.523 . S
C5387 C5371 1.429 . S
C5387 C5383 1.429 . S
C5387 C5388 1.523 . S
C5388 C5372 1.368 . S
C5388 C5384 1.368 . S
C5388 C5387 1.523 . S
H5389 C5364 0.950 . S
H5390 C5366 0.950 . S
H5391 C5367 0.949 . S
H5392 C5369 0.950 . S
H5393 C5371 0.950 . S
C5394 C5395 1.349 . S
C5394 C5396 1.327 . S
C5394 H5419 0.950 . S
C5395 C5394 1.349 . S
C5395 C5411 1.349 . S
C5396 C5394 1.327 . S
C5396 C5415 1.429 . S
C5396 H5420 0.950 . S
C5397 C5414 1.574 . S
C5397 C5416 1.368 . S
C5397 H5421 0.949 . S
H5398 C5402 0.949 . S
C5399 C5400 1.349 . S
C5399 C5401 1.327 . S
C5399 H5422 0.950 . S
C5400 C5399 1.349 . S
C5400 C5412 1.349 . S
C5401 C5399 1.327 . S
C5401 C5417 1.429 . S
C5401 H5423 0.950 . S
C5402 H5398 0.949 . S
C5402 C5410 1.574 . S
C5402 C5418 1.368 . S
H5403 C5411 0.950 . S
H5404 C5409 0.950 . S
H5405 C5410 0.949 . S
H5406 C5412 0.950 . S
H5407 C5413 0.950 . S
H5408 C5414 0.949 . S
C5409 H5404 0.950 . S
C5409 C5411 1.327 . S
C5409 C5415 1.429 . S
C5410 C5402 1.574 . S
C5410 H5405 0.949 . S
C5410 C5416 1.368 . S
C5411 C5395 1.349 . S
C5411 H5403 0.950 . S
C5411 C5409 1.327 . S
C5412 C5400 1.349 . S
C5412 H5406 0.950 . S
C5412 C5413 1.327 . S
C5413 H5407 0.950 . S
C5413 C5412 1.327 . S
C5413 C5417 1.429 . S
C5414 C5397 1.574 . S
C5414 H5408 0.949 . S
C5414 C5418 1.368 . S
C5415 C5396 1.429 . S
C5415 C5409 1.429 . S
C5415 C5416 1.523 . S
C5416 C5397 1.368 . S
C5416 C5410 1.368 . S
C5416 C5415 1.523 . S
C5417 C5401 1.429 . S
C5417 C5413 1.429 . S
C5417 C5418 1.523 . S
C5418 C5402 1.368 . S
C5418 C5414 1.368 . S
C5418 C5417 1.523 . S
H5419 C5394 0.950 . S
H5420 C5396 0.950 . S
H5421 C5397 0.949 . S
H5422 C5399 0.950 . S
H5423 C5401 0.950 . S
C5424 C5425 1.349 . S
C5424 C5426 1.327 . S
C5424 H5449 0.950 . S
C5425 C5424 1.349 . S
C5425 C5441 1.349 . S
C5426 C5424 1.327 . S
C5426 C5445 1.429 . S
C5426 H5450 0.950 . S
C5427 C5444 1.574 . S
C5427 C5446 1.368 . S
C5427 H5451 0.949 . S
H5428 C5432 0.949 . S
C5429 C5430 1.349 . S
C5429 C5431 1.327 . S
C5429 H5452 0.950 . S
C5430 C5429 1.349 . S
C5430 C5442 1.349 . S
C5431 C5429 1.327 . S
C5431 C5447 1.429 . S
C5431 H5453 0.950 . S
C5432 H5428 0.949 . S
C5432 C5440 1.574 . S
C5432 C5448 1.368 . S
H5433 C5441 0.950 . S
H5434 C5439 0.950 . S
H5435 C5440 0.949 . S
H5436 C5442 0.950 . S
H5437 C5443 0.950 . S
H5438 C5444 0.949 . S
C5439 H5434 0.950 . S
C5439 C5441 1.327 . S
C5439 C5445 1.429 . S
C5440 C5432 1.574 . S
C5440 H5435 0.949 . S
C5440 C5446 1.368 . S
C5441 C5425 1.349 . S
C5441 H5433 0.950 . S
C5441 C5439 1.327 . S
C5442 C5430 1.349 . S
C5442 H5436 0.950 . S
C5442 C5443 1.327 . S
C5443 H5437 0.950 . S
C5443 C5442 1.327 . S
C5443 C5447 1.429 . S
C5444 C5427 1.574 . S
C5444 H5438 0.949 . S
C5444 C5448 1.368 . S
C5445 C5426 1.429 . S
C5445 C5439 1.429 . S
C5445 C5446 1.523 . S
C5446 C5427 1.368 . S
C5446 C5440 1.368 . S
C5446 C5445 1.523 . S
C5447 C5431 1.429 . S
C5447 C5443 1.429 . S
C5447 C5448 1.523 . S
C5448 C5432 1.368 . S
C5448 C5444 1.368 . S
C5448 C5447 1.523 . S
H5449 C5424 0.950 . S
H5450 C5426 0.950 . S
H5451 C5427 0.949 . S
H5452 C5429 0.950 . S
H5453 C5431 0.950 . S
C5454 C5455 1.349 . S
C5454 C5456 1.327 . S
C5454 H5479 0.950 . S
C5455 C5454 1.349 . S
C5455 C5471 1.349 . S
C5456 C5454 1.327 . S
C5456 C5475 1.429 . S
C5456 H5480 0.950 . S
C5457 C5474 1.574 . S
C5457 C5476 1.368 . S
C5457 H5481 0.949 . S
H5458 C5462 0.949 . S
C5459 C5460 1.349 . S
C5459 C5461 1.327 . S
C5459 H5482 0.950 . S
C5460 C5459 1.349 . S
C5460 C5472 1.349 . S
C5461 C5459 1.327 . S
C5461 C5477 1.429 . S
C5461 H5483 0.950 . S
C5462 H5458 0.949 . S
C5462 C5470 1.574 . S
C5462 C5478 1.368 . S
H5463 C5471 0.950 . S
H5464 C5469 0.950 . S
H5465 C5470 0.949 . S
H5466 C5472 0.950 . S
H5467 C5473 0.950 . S
H5468 C5474 0.949 . S
C5469 H5464 0.950 . S
C5469 C5471 1.327 . S
C5469 C5475 1.429 . S
C5470 C5462 1.574 . S
C5470 H5465 0.949 . S
C5470 C5476 1.368 . S
C5471 C5455 1.349 . S
C5471 H5463 0.950 . S
C5471 C5469 1.327 . S
C5472 C5460 1.349 . S
C5472 H5466 0.950 . S
C5472 C5473 1.327 . S
C5473 H5467 0.950 . S
C5473 C5472 1.327 . S
C5473 C5477 1.429 . S
C5474 C5457 1.574 . S
C5474 H5468 0.949 . S
C5474 C5478 1.368 . S
C5475 C5456 1.429 . S
C5475 C5469 1.429 . S
C5475 C5476 1.523 . S
C5476 C5457 1.368 . S
C5476 C5470 1.368 . S
C5476 C5475 1.523 . S
C5477 C5461 1.429 . S
C5477 C5473 1.429 . S
C5477 C5478 1.523 . S
C5478 C5462 1.368 . S
C5478 C5474 1.368 . S
C5478 C5477 1.523 . S
H5479 C5454 0.950 . S
H5480 C5456 0.950 . S
H5481 C5457 0.949 . S
H5482 C5459 0.950 . S
H5483 C5461 0.950 . S
C5484 C5485 1.349 . S
C5484 C5486 1.327 . S
C5484 H5509 0.950 . S
C5485 C5484 1.349 . S
C5485 C5501 1.349 . S
C5486 C5484 1.327 . S
C5486 C5505 1.429 . S
C5486 H5510 0.950 . S
C5487 C5504 1.574 . S
C5487 C5506 1.368 . S
C5487 H5511 0.949 . S
H5488 C5492 0.949 . S
C5489 C5490 1.349 . S
C5489 C5491 1.327 . S
C5489 H5512 0.950 . S
C5490 C5489 1.349 . S
C5490 C5502 1.349 . S
C5491 C5489 1.327 . S
C5491 C5507 1.429 . S
C5491 H5513 0.950 . S
C5492 H5488 0.949 . S
C5492 C5500 1.574 . S
C5492 C5508 1.368 . S
H5493 C5501 0.950 . S
H5494 C5499 0.950 . S
H5495 C5500 0.949 . S
H5496 C5502 0.950 . S
H5497 C5503 0.950 . S
H5498 C5504 0.949 . S
C5499 H5494 0.950 . S
C5499 C5501 1.327 . S
C5499 C5505 1.429 . S
C5500 C5492 1.574 . S
C5500 H5495 0.949 . S
C5500 C5506 1.368 . S
C5501 C5485 1.349 . S
C5501 H5493 0.950 . S
C5501 C5499 1.327 . S
C5502 C5490 1.349 . S
C5502 H5496 0.950 . S
C5502 C5503 1.327 . S
C5503 H5497 0.950 . S
C5503 C5502 1.327 . S
C5503 C5507 1.429 . S
C5504 C5487 1.574 . S
C5504 H5498 0.949 . S
C5504 C5508 1.368 . S
C5505 C5486 1.429 . S
C5505 C5499 1.429 . S
C5505 C5506 1.523 . S
C5506 C5487 1.368 . S
C5506 C5500 1.368 . S
C5506 C5505 1.523 . S
C5507 C5491 1.429 . S
C5507 C5503 1.429 . S
C5507 C5508 1.523 . S
C5508 C5492 1.368 . S
C5508 C5504 1.368 . S
C5508 C5507 1.523 . S
H5509 C5484 0.950 . S
H5510 C5486 0.950 . S
H5511 C5487 0.949 . S
H5512 C5489 0.950 . S
H5513 C5491 0.950 . S
C5514 C5515 1.349 . S
C5514 C5516 1.327 . S
C5514 H5539 0.950 . S
C5515 C5514 1.349 . S
C5515 C5531 1.349 . S
C5516 C5514 1.327 . S
C5516 C5535 1.429 . S
C5516 H5540 0.950 . S
C5517 C5534 1.574 . S
C5517 C5536 1.368 . S
C5517 H5541 0.949 . S
H5518 C5522 0.949 . S
C5519 C5520 1.349 . S
C5519 C5521 1.327 . S
C5519 H5542 0.950 . S
C5520 C5519 1.349 . S
C5520 C5532 1.349 . S
C5521 C5519 1.327 . S
C5521 C5537 1.429 . S
C5521 H5543 0.950 . S
C5522 H5518 0.949 . S
C5522 C5530 1.574 . S
C5522 C5538 1.368 . S
H5523 C5531 0.950 . S
H5524 C5529 0.950 . S
H5525 C5530 0.949 . S
H5526 C5532 0.950 . S
H5527 C5533 0.950 . S
H5528 C5534 0.949 . S
C5529 H5524 0.950 . S
C5529 C5531 1.327 . S
C5529 C5535 1.429 . S
C5530 C5522 1.574 . S
C5530 H5525 0.949 . S
C5530 C5536 1.368 . S
C5531 C5515 1.349 . S
C5531 H5523 0.950 . S
C5531 C5529 1.327 . S
C5532 C5520 1.349 . S
C5532 H5526 0.950 . S
C5532 C5533 1.327 . S
C5533 H5527 0.950 . S
C5533 C5532 1.327 . S
C5533 C5537 1.429 . S
C5534 C5517 1.574 . S
C5534 H5528 0.949 . S
C5534 C5538 1.368 . S
C5535 C5516 1.429 . S
C5535 C5529 1.429 . S
C5535 C5536 1.523 . S
C5536 C5517 1.368 . S
C5536 C5530 1.368 . S
C5536 C5535 1.523 . S
C5537 C5521 1.429 . S
C5537 C5533 1.429 . S
C5537 C5538 1.523 . S
C5538 C5522 1.368 . S
C5538 C5534 1.368 . S
C5538 C5537 1.523 . S
H5539 C5514 0.950 . S
H5540 C5516 0.950 . S
H5541 C5517 0.949 . S
H5542 C5519 0.950 . S
H5543 C5521 0.950 . S
C5544 C5545 1.349 . S
C5544 C5546 1.327 . S
C5544 H5569 0.950 . S
C5545 C5544 1.349 . S
C5545 C5561 1.349 . S
C5546 C5544 1.327 . S
C5546 C5565 1.429 . S
C5546 H5570 0.950 . S
C5547 C5564 1.574 . S
C5547 C5566 1.368 . S
C5547 H5571 0.949 . S
H5548 C5552 0.949 . S
C5549 C5550 1.349 . S
C5549 C5551 1.327 . S
C5549 H5572 0.950 . S
C5550 C5549 1.349 . S
C5550 C5562 1.349 . S
C5551 C5549 1.327 . S
C5551 C5567 1.429 . S
C5551 H5573 0.950 . S
C5552 H5548 0.949 . S
C5552 C5560 1.574 . S
C5552 C5568 1.368 . S
H5553 C5561 0.950 . S
H5554 C5559 0.950 . S
H5555 C5560 0.949 . S
H5556 C5562 0.950 . S
H5557 C5563 0.950 . S
H5558 C5564 0.949 . S
C5559 H5554 0.950 . S
C5559 C5561 1.327 . S
C5559 C5565 1.429 . S
C5560 C5552 1.574 . S
C5560 H5555 0.949 . S
C5560 C5566 1.368 . S
C5561 C5545 1.349 . S
C5561 H5553 0.950 . S
C5561 C5559 1.327 . S
C5562 C5550 1.349 . S
C5562 H5556 0.950 . S
C5562 C5563 1.327 . S
C5563 H5557 0.950 . S
C5563 C5562 1.327 . S
C5563 C5567 1.429 . S
C5564 C5547 1.574 . S
C5564 H5558 0.949 . S
C5564 C5568 1.368 . S
C5565 C5546 1.429 . S
C5565 C5559 1.429 . S
C5565 C5566 1.523 . S
C5566 C5547 1.368 . S
C5566 C5560 1.368 . S
C5566 C5565 1.523 . S
C5567 C5551 1.429 . S
C5567 C5563 1.429 . S
C5567 C5568 1.523 . S
C5568 C5552 1.368 . S
C5568 C5564 1.368 . S
C5568 C5567 1.523 . S
H5569 C5544 0.950 . S
H5570 C5546 0.950 . S
H5571 C5547 0.949 . S
H5572 C5549 0.950 . S
H5573 C5551 0.950 . S
C5574 C5575 1.349 . S
C5574 C5576 1.327 . S
C5574 H5599 0.950 . S
C5575 C5574 1.349 . S
C5575 C5591 1.349 . S
C5576 C5574 1.327 . S
C5576 C5595 1.429 . S
C5576 H5600 0.950 . S
C5577 C5594 1.574 . S
C5577 C5596 1.368 . S
C5577 H5601 0.949 . S
H5578 C5582 0.949 . S
C5579 C5580 1.349 . S
C5579 C5581 1.327 . S
C5579 H5602 0.950 . S
C5580 C5579 1.349 . S
C5580 C5592 1.349 . S
C5581 C5579 1.327 . S
C5581 C5597 1.429 . S
C5581 H5603 0.950 . S
C5582 H5578 0.949 . S
C5582 C5590 1.574 . S
C5582 C5598 1.368 . S
H5583 C5591 0.950 . S
H5584 C5589 0.950 . S
H5585 C5590 0.949 . S
H5586 C5592 0.950 . S
H5587 C5593 0.950 . S
H5588 C5594 0.949 . S
C5589 H5584 0.950 . S
C5589 C5591 1.327 . S
C5589 C5595 1.429 . S
C5590 C5582 1.574 . S
C5590 H5585 0.949 . S
C5590 C5596 1.368 . S
C5591 C5575 1.349 . S
C5591 H5583 0.950 . S
C5591 C5589 1.327 . S
C5592 C5580 1.349 . S
C5592 H5586 0.950 . S
C5592 C5593 1.327 . S
C5593 H5587 0.950 . S
C5593 C5592 1.327 . S
C5593 C5597 1.429 . S
C5594 C5577 1.574 . S
C5594 H5588 0.949 . S
C5594 C5598 1.368 . S
C5595 C5576 1.429 . S
C5595 C5589 1.429 . S
C5595 C5596 1.523 . S
C5596 C5577 1.368 . S
C5596 C5590 1.368 . S
C5596 C5595 1.523 . S
C5597 C5581 1.429 . S
C5597 C5593 1.429 . S
C5597 C5598 1.523 . S
C5598 C5582 1.368 . S
C5598 C5594 1.368 . S
C5598 C5597 1.523 . S
H5599 C5574 0.950 . S
H5600 C5576 0.950 . S
H5601 C5577 0.949 . S
H5602 C5579 0.950 . S
H5603 C5581 0.950 . S
C5604 C5605 1.349 . S
C5604 C5606 1.327 . S
C5604 H5629 0.950 . S
C5605 C5604 1.349 . S
C5605 C5621 1.349 . S
C5606 C5604 1.327 . S
C5606 C5625 1.429 . S
C5606 H5630 0.950 . S
C5607 C5624 1.574 . S
C5607 C5626 1.368 . S
C5607 H5631 0.949 . S
H5608 C5612 0.949 . S
C5609 C5610 1.349 . S
C5609 C5611 1.327 . S
C5609 H5632 0.950 . S
C5610 C5609 1.349 . S
C5610 C5622 1.349 . S
C5611 C5609 1.327 . S
C5611 C5627 1.429 . S
C5611 H5633 0.950 . S
C5612 H5608 0.949 . S
C5612 C5620 1.574 . S
C5612 C5628 1.368 . S
H5613 C5621 0.950 . S
H5614 C5619 0.950 . S
H5615 C5620 0.949 . S
H5616 C5622 0.950 . S
H5617 C5623 0.950 . S
H5618 C5624 0.949 . S
C5619 H5614 0.950 . S
C5619 C5621 1.327 . S
C5619 C5625 1.429 . S
C5620 C5612 1.574 . S
C5620 H5615 0.949 . S
C5620 C5626 1.368 . S
C5621 C5605 1.349 . S
C5621 H5613 0.950 . S
C5621 C5619 1.327 . S
C5622 C5610 1.349 . S
C5622 H5616 0.950 . S
C5622 C5623 1.327 . S
C5623 H5617 0.950 . S
C5623 C5622 1.327 . S
C5623 C5627 1.429 . S
C5624 C5607 1.574 . S
C5624 H5618 0.949 . S
C5624 C5628 1.368 . S
C5625 C5606 1.429 . S
C5625 C5619 1.429 . S
C5625 C5626 1.523 . S
C5626 C5607 1.368 . S
C5626 C5620 1.368 . S
C5626 C5625 1.523 . S
C5627 C5611 1.429 . S
C5627 C5623 1.429 . S
C5627 C5628 1.523 . S
C5628 C5612 1.368 . S
C5628 C5624 1.368 . S
C5628 C5627 1.523 . S
H5629 C5604 0.950 . S
H5630 C5606 0.950 . S
H5631 C5607 0.949 . S
H5632 C5609 0.950 . S
H5633 C5611 0.950 . S
C5634 C5635 1.349 . S
C5634 C5636 1.327 . S
C5634 H5659 0.950 . S
C5635 C5634 1.349 . S
C5635 C5651 1.349 . S
C5636 C5634 1.327 . S
C5636 C5655 1.429 . S
C5636 H5660 0.950 . S
C5637 C5654 1.574 . S
C5637 C5656 1.368 . S
C5637 H5661 0.949 . S
H5638 C5642 0.949 . S
C5639 C5640 1.349 . S
C5639 C5641 1.327 . S
C5639 H5662 0.950 . S
C5640 C5639 1.349 . S
C5640 C5652 1.349 . S
C5641 C5639 1.327 . S
C5641 C5657 1.429 . S
C5641 H5663 0.950 . S
C5642 H5638 0.949 . S
C5642 C5650 1.574 . S
C5642 C5658 1.368 . S
H5643 C5651 0.950 . S
H5644 C5649 0.950 . S
H5645 C5650 0.949 . S
H5646 C5652 0.950 . S
H5647 C5653 0.950 . S
H5648 C5654 0.949 . S
C5649 H5644 0.950 . S
C5649 C5651 1.327 . S
C5649 C5655 1.429 . S
C5650 C5642 1.574 . S
C5650 H5645 0.949 . S
C5650 C5656 1.368 . S
C5651 C5635 1.349 . S
C5651 H5643 0.950 . S
C5651 C5649 1.327 . S
C5652 C5640 1.349 . S
C5652 H5646 0.950 . S
C5652 C5653 1.327 . S
C5653 H5647 0.950 . S
C5653 C5652 1.327 . S
C5653 C5657 1.429 . S
C5654 C5637 1.574 . S
C5654 H5648 0.949 . S
C5654 C5658 1.368 . S
C5655 C5636 1.429 . S
C5655 C5649 1.429 . S
C5655 C5656 1.523 . S
C5656 C5637 1.368 . S
C5656 C5650 1.368 . S
C5656 C5655 1.523 . S
C5657 C5641 1.429 . S
C5657 C5653 1.429 . S
C5657 C5658 1.523 . S
C5658 C5642 1.368 . S
C5658 C5654 1.368 . S
C5658 C5657 1.523 . S
H5659 C5634 0.950 . S
H5660 C5636 0.950 . S
H5661 C5637 0.949 . S
H5662 C5639 0.950 . S
H5663 C5641 0.950 . S
C5664 C5665 1.349 . S
C5664 C5666 1.327 . S
C5664 H5689 0.950 . S
C5665 C5664 1.349 . S
C5665 C5681 1.349 . S
C5666 C5664 1.327 . S
C5666 C5685 1.429 . S
C5666 H5690 0.950 . S
C5667 C5684 1.574 . S
C5667 C5686 1.368 . S
C5667 H5691 0.949 . S
H5668 C5672 0.949 . S
C5669 C5670 1.349 . S
C5669 C5671 1.327 . S
C5669 H5692 0.950 . S
C5670 C5669 1.349 . S
C5670 C5682 1.349 . S
C5671 C5669 1.327 . S
C5671 C5687 1.429 . S
C5671 H5693 0.950 . S
C5672 H5668 0.949 . S
C5672 C5680 1.574 . S
C5672 C5688 1.368 . S
H5673 C5681 0.950 . S
H5674 C5679 0.950 . S
H5675 C5680 0.949 . S
H5676 C5682 0.950 . S
H5677 C5683 0.950 . S
H5678 C5684 0.949 . S
C5679 H5674 0.950 . S
C5679 C5681 1.327 . S
C5679 C5685 1.429 . S
C5680 C5672 1.574 . S
C5680 H5675 0.949 . S
C5680 C5686 1.368 . S
C5681 C5665 1.349 . S
C5681 H5673 0.950 . S
C5681 C5679 1.327 . S
C5682 C5670 1.349 . S
C5682 H5676 0.950 . S
C5682 C5683 1.327 . S
C5683 H5677 0.950 . S
C5683 C5682 1.327 . S
C5683 C5687 1.429 . S
C5684 C5667 1.574 . S
C5684 H5678 0.949 . S
C5684 C5688 1.368 . S
C5685 C5666 1.429 . S
C5685 C5679 1.429 . S
C5685 C5686 1.523 . S
C5686 C5667 1.368 . S
C5686 C5680 1.368 . S
C5686 C5685 1.523 . S
C5687 C5671 1.429 . S
C5687 C5683 1.429 . S
C5687 C5688 1.523 . S
C5688 C5672 1.368 . S
C5688 C5684 1.368 . S
C5688 C5687 1.523 . S
H5689 C5664 0.950 . S
H5690 C5666 0.950 . S
H5691 C5667 0.949 . S
H5692 C5669 0.950 . S
H5693 C5671 0.950 . S
C5694 C5695 1.349 . S
C5694 C5696 1.327 . S
C5694 H5719 0.950 . S
C5695 C5694 1.349 . S
C5695 C5711 1.349 . S
C5696 C5694 1.327 . S
C5696 C5715 1.429 . S
C5696 H5720 0.950 . S
C5697 C5714 1.574 . S
C5697 C5716 1.368 . S
C5697 H5721 0.949 . S
H5698 C5702 0.949 . S
C5699 C5700 1.349 . S
C5699 C5701 1.327 . S
C5699 H5722 0.950 . S
C5700 C5699 1.349 . S
C5700 C5712 1.349 . S
C5701 C5699 1.327 . S
C5701 C5717 1.429 . S
C5701 H5723 0.950 . S
C5702 H5698 0.949 . S
C5702 C5710 1.574 . S
C5702 C5718 1.368 . S
H5703 C5711 0.950 . S
H5704 C5709 0.950 . S
H5705 C5710 0.949 . S
H5706 C5712 0.950 . S
H5707 C5713 0.950 . S
H5708 C5714 0.949 . S
C5709 H5704 0.950 . S
C5709 C5711 1.327 . S
C5709 C5715 1.429 . S
C5710 C5702 1.574 . S
C5710 H5705 0.949 . S
C5710 C5716 1.368 . S
C5711 C5695 1.349 . S
C5711 H5703 0.950 . S
C5711 C5709 1.327 . S
C5712 C5700 1.349 . S
C5712 H5706 0.950 . S
C5712 C5713 1.327 . S
C5713 H5707 0.950 . S
C5713 C5712 1.327 . S
C5713 C5717 1.429 . S
C5714 C5697 1.574 . S
C5714 H5708 0.949 . S
C5714 C5718 1.368 . S
C5715 C5696 1.429 . S
C5715 C5709 1.429 . S
C5715 C5716 1.523 . S
C5716 C5697 1.368 . S
C5716 C5710 1.368 . S
C5716 C5715 1.523 . S
C5717 C5701 1.429 . S
C5717 C5713 1.429 . S
C5717 C5718 1.523 . S
C5718 C5702 1.368 . S
C5718 C5714 1.368 . S
C5718 C5717 1.523 . S
H5719 C5694 0.950 . S
H5720 C5696 0.950 . S
H5721 C5697 0.949 . S
H5722 C5699 0.950 . S
H5723 C5701 0.950 . S
C5724 C5725 1.349 . S
C5724 C5726 1.327 . S
C5724 H5749 0.950 . S
C5725 C5724 1.349 . S
C5725 C5741 1.349 . S
C5726 C5724 1.327 . S
C5726 C5745 1.429 . S
C5726 H5750 0.950 . S
C5727 C5744 1.574 . S
C5727 C5746 1.368 . S
C5727 H5751 0.949 . S
H5728 C5732 0.949 . S
C5729 C5730 1.349 . S
C5729 C5731 1.327 . S
C5729 H5752 0.950 . S
C5730 C5729 1.349 . S
C5730 C5742 1.349 . S
C5731 C5729 1.327 . S
C5731 C5747 1.429 . S
C5731 H5753 0.950 . S
C5732 H5728 0.949 . S
C5732 C5740 1.574 . S
C5732 C5748 1.368 . S
H5733 C5741 0.950 . S
H5734 C5739 0.950 . S
H5735 C5740 0.949 . S
H5736 C5742 0.950 . S
H5737 C5743 0.950 . S
H5738 C5744 0.949 . S
C5739 H5734 0.950 . S
C5739 C5741 1.327 . S
C5739 C5745 1.429 . S
C5740 C5732 1.574 . S
C5740 H5735 0.949 . S
C5740 C5746 1.368 . S
C5741 C5725 1.349 . S
C5741 H5733 0.950 . S
C5741 C5739 1.327 . S
C5742 C5730 1.349 . S
C5742 H5736 0.950 . S
C5742 C5743 1.327 . S
C5743 H5737 0.950 . S
C5743 C5742 1.327 . S
C5743 C5747 1.429 . S
C5744 C5727 1.574 . S
C5744 H5738 0.949 . S
C5744 C5748 1.368 . S
C5745 C5726 1.429 . S
C5745 C5739 1.429 . S
C5745 C5746 1.523 . S
C5746 C5727 1.368 . S
C5746 C5740 1.368 . S
C5746 C5745 1.523 . S
C5747 C5731 1.429 . S
C5747 C5743 1.429 . S
C5747 C5748 1.523 . S
C5748 C5732 1.368 . S
C5748 C5744 1.368 . S
C5748 C5747 1.523 . S
H5749 C5724 0.950 . S
H5750 C5726 0.950 . S
H5751 C5727 0.949 . S
H5752 C5729 0.950 . S
H5753 C5731 0.950 . S
C5754 C5755 1.349 . S
C5754 C5756 1.327 . S
C5754 H5779 0.950 . S
C5755 C5754 1.349 . S
C5755 C5771 1.349 . S
C5756 C5754 1.327 . S
C5756 C5775 1.429 . S
C5756 H5780 0.950 . S
C5757 C5774 1.574 . S
C5757 C5776 1.368 . S
C5757 H5781 0.949 . S
H5758 C5762 0.949 . S
C5759 C5760 1.349 . S
C5759 C5761 1.327 . S
C5759 H5782 0.950 . S
C5760 C5759 1.349 . S
C5760 C5772 1.349 . S
C5761 C5759 1.327 . S
C5761 C5777 1.429 . S
C5761 H5783 0.950 . S
C5762 H5758 0.949 . S
C5762 C5770 1.574 . S
C5762 C5778 1.368 . S
H5763 C5771 0.950 . S
H5764 C5769 0.950 . S
H5765 C5770 0.949 . S
H5766 C5772 0.950 . S
H5767 C5773 0.950 . S
H5768 C5774 0.949 . S
C5769 H5764 0.950 . S
C5769 C5771 1.327 . S
C5769 C5775 1.429 . S
C5770 C5762 1.574 . S
C5770 H5765 0.949 . S
C5770 C5776 1.368 . S
C5771 C5755 1.349 . S
C5771 H5763 0.950 . S
C5771 C5769 1.327 . S
C5772 C5760 1.349 . S
C5772 H5766 0.950 . S
C5772 C5773 1.327 . S
C5773 H5767 0.950 . S
C5773 C5772 1.327 . S
C5773 C5777 1.429 . S
C5774 C5757 1.574 . S
C5774 H5768 0.949 . S
C5774 C5778 1.368 . S
C5775 C5756 1.429 . S
C5775 C5769 1.429 . S
C5775 C5776 1.523 . S
C5776 C5757 1.368 . S
C5776 C5770 1.368 . S
C5776 C5775 1.523 . S
C5777 C5761 1.429 . S
C5777 C5773 1.429 . S
C5777 C5778 1.523 . S
C5778 C5762 1.368 . S
C5778 C5774 1.368 . S
C5778 C5777 1.523 . S
H5779 C5754 0.950 . S
H5780 C5756 0.950 . S
H5781 C5757 0.949 . S
H5782 C5759 0.950 . S
H5783 C5761 0.950 . S
C5784 C5785 1.349 . S
C5784 C5786 1.327 . S
C5784 H5809 0.950 . S
C5785 C5784 1.349 . S
C5785 C5801 1.349 . S
C5786 C5784 1.327 . S
C5786 C5805 1.429 . S
C5786 H5810 0.950 . S
C5787 C5804 1.574 . S
C5787 C5806 1.368 . S
C5787 H5811 0.949 . S
H5788 C5792 0.949 . S
C5789 C5790 1.349 . S
C5789 C5791 1.327 . S
C5789 H5812 0.950 . S
C5790 C5789 1.349 . S
C5790 C5802 1.349 . S
C5791 C5789 1.327 . S
C5791 C5807 1.429 . S
C5791 H5813 0.950 . S
C5792 H5788 0.949 . S
C5792 C5800 1.574 . S
C5792 C5808 1.368 . S
H5793 C5801 0.950 . S
H5794 C5799 0.950 . S
H5795 C5800 0.949 . S
H5796 C5802 0.950 . S
H5797 C5803 0.950 . S
H5798 C5804 0.949 . S
C5799 H5794 0.950 . S
C5799 C5801 1.327 . S
C5799 C5805 1.429 . S
C5800 C5792 1.574 . S
C5800 H5795 0.949 . S
C5800 C5806 1.368 . S
C5801 C5785 1.349 . S
C5801 H5793 0.950 . S
C5801 C5799 1.327 . S
C5802 C5790 1.349 . S
C5802 H5796 0.950 . S
C5802 C5803 1.327 . S
C5803 H5797 0.950 . S
C5803 C5802 1.327 . S
C5803 C5807 1.429 . S
C5804 C5787 1.574 . S
C5804 H5798 0.949 . S
C5804 C5808 1.368 . S
C5805 C5786 1.429 . S
C5805 C5799 1.429 . S
C5805 C5806 1.523 . S
C5806 C5787 1.368 . S
C5806 C5800 1.368 . S
C5806 C5805 1.523 . S
C5807 C5791 1.429 . S
C5807 C5803 1.429 . S
C5807 C5808 1.523 . S
C5808 C5792 1.368 . S
C5808 C5804 1.368 . S
C5808 C5807 1.523 . S
H5809 C5784 0.950 . S
H5810 C5786 0.950 . S
H5811 C5787 0.949 . S
H5812 C5789 0.950 . S
H5813 C5791 0.950 . S
C5814 C5815 1.349 . S
C5814 C5816 1.327 . S
C5814 H5839 0.950 . S
C5815 C5814 1.349 . S
C5815 C5831 1.349 . S
C5816 C5814 1.327 . S
C5816 C5835 1.429 . S
C5816 H5840 0.950 . S
C5817 C5834 1.574 . S
C5817 C5836 1.368 . S
C5817 H5841 0.949 . S
H5818 C5822 0.949 . S
C5819 C5820 1.349 . S
C5819 C5821 1.327 . S
C5819 H5842 0.950 . S
C5820 C5819 1.349 . S
C5820 C5832 1.349 . S
C5821 C5819 1.327 . S
C5821 C5837 1.429 . S
C5821 H5843 0.950 . S
C5822 H5818 0.949 . S
C5822 C5830 1.574 . S
C5822 C5838 1.368 . S
H5823 C5831 0.950 . S
H5824 C5829 0.950 . S
H5825 C5830 0.949 . S
H5826 C5832 0.950 . S
H5827 C5833 0.950 . S
H5828 C5834 0.949 . S
C5829 H5824 0.950 . S
C5829 C5831 1.327 . S
C5829 C5835 1.429 . S
C5830 C5822 1.574 . S
C5830 H5825 0.949 . S
C5830 C5836 1.368 . S
C5831 C5815 1.349 . S
C5831 H5823 0.950 . S
C5831 C5829 1.327 . S
C5832 C5820 1.349 . S
C5832 H5826 0.950 . S
C5832 C5833 1.327 . S
C5833 H5827 0.950 . S
C5833 C5832 1.327 . S
C5833 C5837 1.429 . S
C5834 C5817 1.574 . S
C5834 H5828 0.949 . S
C5834 C5838 1.368 . S
C5835 C5816 1.429 . S
C5835 C5829 1.429 . S
C5835 C5836 1.523 . S
C5836 C5817 1.368 . S
C5836 C5830 1.368 . S
C5836 C5835 1.523 . S
C5837 C5821 1.429 . S
C5837 C5833 1.429 . S
C5837 C5838 1.523 . S
C5838 C5822 1.368 . S
C5838 C5834 1.368 . S
C5838 C5837 1.523 . S
H5839 C5814 0.950 . S
H5840 C5816 0.950 . S
H5841 C5817 0.949 . S
H5842 C5819 0.950 . S
H5843 C5821 0.950 . S
C5844 C5845 1.349 . S
C5844 C5846 1.327 . S
C5844 H5869 0.950 . S
C5845 C5844 1.349 . S
C5845 C5861 1.349 . S
C5846 C5844 1.327 . S
C5846 C5865 1.429 . S
C5846 H5870 0.950 . S
C5847 C5864 1.574 . S
C5847 C5866 1.368 . S
C5847 H5871 0.949 . S
H5848 C5852 0.949 . S
C5849 C5850 1.349 . S
C5849 C5851 1.327 . S
C5849 H5872 0.950 . S
C5850 C5849 1.349 . S
C5850 C5862 1.349 . S
C5851 C5849 1.327 . S
C5851 C5867 1.429 . S
C5851 H5873 0.950 . S
C5852 H5848 0.949 . S
C5852 C5860 1.574 . S
C5852 C5868 1.368 . S
H5853 C5861 0.950 . S
H5854 C5859 0.950 . S
H5855 C5860 0.949 . S
H5856 C5862 0.950 . S
H5857 C5863 0.950 . S
H5858 C5864 0.949 . S
C5859 H5854 0.950 . S
C5859 C5861 1.327 . S
C5859 C5865 1.429 . S
C5860 C5852 1.574 . S
C5860 H5855 0.949 . S
C5860 C5866 1.368 . S
C5861 C5845 1.349 . S
C5861 H5853 0.950 . S
C5861 C5859 1.327 . S
C5862 C5850 1.349 . S
C5862 H5856 0.950 . S
C5862 C5863 1.327 . S
C5863 H5857 0.950 . S
C5863 C5862 1.327 . S
C5863 C5867 1.429 . S
C5864 C5847 1.574 . S
C5864 H5858 0.949 . S
C5864 C5868 1.368 . S
C5865 C5846 1.429 . S
C5865 C5859 1.429 . S
C5865 C5866 1.523 . S
C5866 C5847 1.368 . S
C5866 C5860 1.368 . S
C5866 C5865 1.523 . S
C5867 C5851 1.429 . S
C5867 C5863 1.429 . S
C5867 C5868 1.523 . S
C5868 C5852 1.368 . S
C5868 C5864 1.368 . S
C5868 C5867 1.523 . S
H5869 C5844 0.950 . S
H5870 C5846 0.950 . S
H5871 C5847 0.949 . S
H5872 C5849 0.950 . S
H5873 C5851 0.950 . S
C5874 C5875 1.349 . S
C5874 C5876 1.327 . S
C5874 H5899 0.950 . S
C5875 C5874 1.349 . S
C5875 C5891 1.349 . S
C5876 C5874 1.327 . S
C5876 C5895 1.429 . S
C5876 H5900 0.950 . S
C5877 C5894 1.574 . S
C5877 C5896 1.368 . S
C5877 H5901 0.949 . S
H5878 C5882 0.949 . S
C5879 C5880 1.349 . S
C5879 C5881 1.327 . S
C5879 H5902 0.950 . S
C5880 C5879 1.349 . S
C5880 C5892 1.349 . S
C5881 C5879 1.327 . S
C5881 C5897 1.429 . S
C5881 H5903 0.950 . S
C5882 H5878 0.949 . S
C5882 C5890 1.574 . S
C5882 C5898 1.368 . S
H5883 C5891 0.950 . S
H5884 C5889 0.950 . S
H5885 C5890 0.949 . S
H5886 C5892 0.950 . S
H5887 C5893 0.950 . S
H5888 C5894 0.949 . S
C5889 H5884 0.950 . S
C5889 C5891 1.327 . S
C5889 C5895 1.429 . S
C5890 C5882 1.574 . S
C5890 H5885 0.949 . S
C5890 C5896 1.368 . S
C5891 C5875 1.349 . S
C5891 H5883 0.950 . S
C5891 C5889 1.327 . S
C5892 C5880 1.349 . S
C5892 H5886 0.950 . S
C5892 C5893 1.327 . S
C5893 H5887 0.950 . S
C5893 C5892 1.327 . S
C5893 C5897 1.429 . S
C5894 C5877 1.574 . S
C5894 H5888 0.949 . S
C5894 C5898 1.368 . S
C5895 C5876 1.429 . S
C5895 C5889 1.429 . S
C5895 C5896 1.523 . S
C5896 C5877 1.368 . S
C5896 C5890 1.368 . S
C5896 C5895 1.523 . S
C5897 C5881 1.429 . S
C5897 C5893 1.429 . S
C5897 C5898 1.523 . S
C5898 C5882 1.368 . S
C5898 C5894 1.368 . S
C5898 C5897 1.523 . S
H5899 C5874 0.950 . S
H5900 C5876 0.950 . S
H5901 C5877 0.949 . S
H5902 C5879 0.950 . S
H5903 C5881 0.950 . S
C5904 C5905 1.349 . S
C5904 C5906 1.327 . S
C5904 H5929 0.950 . S
C5905 C5904 1.349 . S
C5905 C5921 1.349 . S
C5906 C5904 1.327 . S
C5906 C5925 1.429 . S
C5906 H5930 0.950 . S
C5907 C5924 1.574 . S
C5907 C5926 1.368 . S
C5907 H5931 0.949 . S
H5908 C5912 0.949 . S
C5909 C5910 1.349 . S
C5909 C5911 1.327 . S
C5909 H5932 0.950 . S
C5910 C5909 1.349 . S
C5910 C5922 1.349 . S
C5911 C5909 1.327 . S
C5911 C5927 1.429 . S
C5911 H5933 0.950 . S
C5912 H5908 0.949 . S
C5912 C5920 1.574 . S
C5912 C5928 1.368 . S
H5913 C5921 0.950 . S
H5914 C5919 0.950 . S
H5915 C5920 0.949 . S
H5916 C5922 0.950 . S
H5917 C5923 0.950 . S
H5918 C5924 0.949 . S
C5919 H5914 0.950 . S
C5919 C5921 1.327 . S
C5919 C5925 1.429 . S
C5920 C5912 1.574 . S
C5920 H5915 0.949 . S
C5920 C5926 1.368 . S
C5921 C5905 1.349 . S
C5921 H5913 0.950 . S
C5921 C5919 1.327 . S
C5922 C5910 1.349 . S
C5922 H5916 0.950 . S
C5922 C5923 1.327 . S
C5923 H5917 0.950 . S
C5923 C5922 1.327 . S
C5923 C5927 1.429 . S
C5924 C5907 1.574 . S
C5924 H5918 0.949 . S
C5924 C5928 1.368 . S
C5925 C5906 1.429 . S
C5925 C5919 1.429 . S
C5925 C5926 1.523 . S
C5926 C5907 1.368 . S
C5926 C5920 1.368 . S
C5926 C5925 1.523 . S
C5927 C5911 1.429 . S
C5927 C5923 1.429 . S
C5927 C5928 1.523 . S
C5928 C5912 1.368 . S
C5928 C5924 1.368 . S
C5928 C5927 1.523 . S
H5929 C5904 0.950 . S
H5930 C5906 0.950 . S
H5931 C5907 0.949 . S
H5932 C5909 0.950 . S
H5933 C5911 0.950 . S
C5934 C5935 1.349 . S
C5934 C5936 1.327 . S
C5934 H5959 0.950 . S
C5935 C5934 1.349 . S
C5935 C5951 1.349 . S
C5936 C5934 1.327 . S
C5936 C5955 1.429 . S
C5936 H5960 0.950 . S
C5937 C5954 1.574 . S
C5937 C5956 1.368 . S
C5937 H5961 0.949 . S
H5938 C5942 0.949 . S
C5939 C5940 1.349 . S
C5939 C5941 1.327 . S
C5939 H5962 0.950 . S
C5940 C5939 1.349 . S
C5940 C5952 1.349 . S
C5941 C5939 1.327 . S
C5941 C5957 1.429 . S
C5941 H5963 0.950 . S
C5942 H5938 0.949 . S
C5942 C5950 1.574 . S
C5942 C5958 1.368 . S
H5943 C5951 0.950 . S
H5944 C5949 0.950 . S
H5945 C5950 0.949 . S
H5946 C5952 0.950 . S
H5947 C5953 0.950 . S
H5948 C5954 0.949 . S
C5949 H5944 0.950 . S
C5949 C5951 1.327 . S
C5949 C5955 1.429 . S
C5950 C5942 1.574 . S
C5950 H5945 0.949 . S
C5950 C5956 1.368 . S
C5951 C5935 1.349 . S
C5951 H5943 0.950 . S
C5951 C5949 1.327 . S
C5952 C5940 1.349 . S
C5952 H5946 0.950 . S
C5952 C5953 1.327 . S
C5953 H5947 0.950 . S
C5953 C5952 1.327 . S
C5953 C5957 1.429 . S
C5954 C5937 1.574 . S
C5954 H5948 0.949 . S
C5954 C5958 1.368 . S
C5955 C5936 1.429 . S
C5955 C5949 1.429 . S
C5955 C5956 1.523 . S
C5956 C5937 1.368 . S
C5956 C5950 1.368 . S
C5956 C5955 1.523 . S
C5957 C5941 1.429 . S
C5957 C5953 1.429 . S
C5957 C5958 1.523 . S
C5958 C5942 1.368 . S
C5958 C5954 1.368 . S
C5958 C5957 1.523 . S
H5959 C5934 0.950 . S
H5960 C5936 0.950 . S
H5961 C5937 0.949 . S
H5962 C5939 0.950 . S
H5963 C5941 0.950 . S
C5964 C5965 1.349 . S
C5964 C5966 1.327 . S
C5964 H5989 0.950 . S
C5965 C5964 1.349 . S
C5965 C5981 1.349 . S
C5966 C5964 1.327 . S
C5966 C5985 1.429 . S
C5966 H5990 0.950 . S
C5967 C5984 1.574 . S
C5967 C5986 1.368 . S
C5967 H5991 0.949 . S
H5968 C5972 0.949 . S
C5969 C5970 1.349 . S
C5969 C5971 1.327 . S
C5969 H5992 0.950 . S
C5970 C5969 1.349 . S
C5970 C5982 1.349 . S
C5971 C5969 1.327 . S
C5971 C5987 1.429 . S
C5971 H5993 0.950 . S
C5972 H5968 0.949 . S
C5972 C5980 1.574 . S
C5972 C5988 1.368 . S
H5973 C5981 0.950 . S
H5974 C5979 0.950 . S
H5975 C5980 0.949 . S
H5976 C5982 0.950 . S
H5977 C5983 0.950 . S
H5978 C5984 0.949 . S
C5979 H5974 0.950 . S
C5979 C5981 1.327 . S
C5979 C5985 1.429 . S
C5980 C5972 1.574 . S
C5980 H5975 0.949 . S
C5980 C5986 1.368 . S
C5981 C5965 1.349 . S
C5981 H5973 0.950 . S
C5981 C5979 1.327 . S
C5982 C5970 1.349 . S
C5982 H5976 0.950 . S
C5982 C5983 1.327 . S
C5983 H5977 0.950 . S
C5983 C5982 1.327 . S
C5983 C5987 1.429 . S
C5984 C5967 1.574 . S
C5984 H5978 0.949 . S
C5984 C5988 1.368 . S
C5985 C5966 1.429 . S
C5985 C5979 1.429 . S
C5985 C5986 1.523 . S
C5986 C5967 1.368 . S
C5986 C5980 1.368 . S
C5986 C5985 1.523 . S
C5987 C5971 1.429 . S
C5987 C5983 1.429 . S
C5987 C5988 1.523 . S
C5988 C5972 1.368 . S
C5988 C5984 1.368 . S
C5988 C5987 1.523 . S
H5989 C5964 0.950 . S
H5990 C5966 0.950 . S
H5991 C5967 0.949 . S
H5992 C5969 0.950 . S
H5993 C5971 0.950 . S
C5994 C5995 1.349 . S
C5994 C5996 1.327 . S
C5994 H6019 0.950 . S
C5995 C5994 1.349 . S
C5995 C6011 1.349 . S
C5996 C5994 1.327 . S
C5996 C6015 1.429 . S
C5996 H6020 0.950 . S
C5997 C6014 1.574 . S
C5997 C6016 1.368 . S
C5997 H6021 0.949 . S
H5998 C6002 0.949 . S
C5999 C6000 1.349 . S
C5999 C6001 1.327 . S
C5999 H6022 0.950 . S
C6000 C5999 1.349 . S
C6000 C6012 1.349 . S
C6001 C5999 1.327 . S
C6001 C6017 1.429 . S
C6001 H6023 0.950 . S
C6002 H5998 0.949 . S
C6002 C6010 1.574 . S
C6002 C6018 1.368 . S
H6003 C6011 0.950 . S
H6004 C6009 0.950 . S
H6005 C6010 0.949 . S
H6006 C6012 0.950 . S
H6007 C6013 0.950 . S
H6008 C6014 0.949 . S
C6009 H6004 0.950 . S
C6009 C6011 1.327 . S
C6009 C6015 1.429 . S
C6010 C6002 1.574 . S
C6010 H6005 0.949 . S
C6010 C6016 1.368 . S
C6011 C5995 1.349 . S
C6011 H6003 0.950 . S
C6011 C6009 1.327 . S
C6012 C6000 1.349 . S
C6012 H6006 0.950 . S
C6012 C6013 1.327 . S
C6013 H6007 0.950 . S
C6013 C6012 1.327 . S
C6013 C6017 1.429 . S
C6014 C5997 1.574 . S
C6014 H6008 0.949 . S
C6014 C6018 1.368 . S
C6015 C5996 1.429 . S
C6015 C6009 1.429 . S
C6015 C6016 1.523 . S
C6016 C5997 1.368 . S
C6016 C6010 1.368 . S
C6016 C6015 1.523 . S
C6017 C6001 1.429 . S
C6017 C6013 1.429 . S
C6017 C6018 1.523 . S
C6018 C6002 1.368 . S
C6018 C6014 1.368 . S
C6018 C6017 1.523 . S
H6019 C5994 0.950 . S
H6020 C5996 0.950 . S
H6021 C5997 0.949 . S
H6022 C5999 0.950 . S
H6023 C6001 0.950 . S
C6024 C6025 1.349 . S
C6024 C6026 1.327 . S
C6024 H6049 0.950 . S
C6025 C6024 1.349 . S
C6025 C6041 1.349 . S
C6026 C6024 1.327 . S
C6026 C6045 1.429 . S
C6026 H6050 0.950 . S
C6027 C6044 1.574 . S
C6027 C6046 1.368 . S
C6027 H6051 0.949 . S
H6028 C6032 0.949 . S
C6029 C6030 1.349 . S
C6029 C6031 1.327 . S
C6029 H6052 0.950 . S
C6030 C6029 1.349 . S
C6030 C6042 1.349 . S
C6031 C6029 1.327 . S
C6031 C6047 1.429 . S
C6031 H6053 0.950 . S
C6032 H6028 0.949 . S
C6032 C6040 1.574 . S
C6032 C6048 1.368 . S
H6033 C6041 0.950 . S
H6034 C6039 0.950 . S
H6035 C6040 0.949 . S
H6036 C6042 0.950 . S
H6037 C6043 0.950 . S
H6038 C6044 0.949 . S
C6039 H6034 0.950 . S
C6039 C6041 1.327 . S
C6039 C6045 1.429 . S
C6040 C6032 1.574 . S
C6040 H6035 0.949 . S
C6040 C6046 1.368 . S
C6041 C6025 1.349 . S
C6041 H6033 0.950 . S
C6041 C6039 1.327 . S
C6042 C6030 1.349 . S
C6042 H6036 0.950 . S
C6042 C6043 1.327 . S
C6043 H6037 0.950 . S
C6043 C6042 1.327 . S
C6043 C6047 1.429 . S
C6044 C6027 1.574 . S
C6044 H6038 0.949 . S
C6044 C6048 1.368 . S
C6045 C6026 1.429 . S
C6045 C6039 1.429 . S
C6045 C6046 1.523 . S
C6046 C6027 1.368 . S
C6046 C6040 1.368 . S
C6046 C6045 1.523 . S
C6047 C6031 1.429 . S
C6047 C6043 1.429 . S
C6047 C6048 1.523 . S
C6048 C6032 1.368 . S
C6048 C6044 1.368 . S
C6048 C6047 1.523 . S
H6049 C6024 0.950 . S
H6050 C6026 0.950 . S
H6051 C6027 0.949 . S
H6052 C6029 0.950 . S
H6053 C6031 0.950 . S
C6054 C6055 1.349 . S
C6054 C6056 1.327 . S
C6054 H6079 0.950 . S
C6055 C6054 1.349 . S
C6055 C6071 1.349 . S
C6056 C6054 1.327 . S
C6056 C6075 1.429 . S
C6056 H6080 0.950 . S
C6057 C6074 1.574 . S
C6057 C6076 1.368 . S
C6057 H6081 0.949 . S
H6058 C6062 0.949 . S
C6059 C6060 1.349 . S
C6059 C6061 1.327 . S
C6059 H6082 0.950 . S
C6060 C6059 1.349 . S
C6060 C6072 1.349 . S
C6061 C6059 1.327 . S
C6061 C6077 1.429 . S
C6061 H6083 0.950 . S
C6062 H6058 0.949 . S
C6062 C6070 1.574 . S
C6062 C6078 1.368 . S
H6063 C6071 0.950 . S
H6064 C6069 0.950 . S
H6065 C6070 0.949 . S
H6066 C6072 0.950 . S
H6067 C6073 0.950 . S
H6068 C6074 0.949 . S
C6069 H6064 0.950 . S
C6069 C6071 1.327 . S
C6069 C6075 1.429 . S
C6070 C6062 1.574 . S
C6070 H6065 0.949 . S
C6070 C6076 1.368 . S
C6071 C6055 1.349 . S
C6071 H6063 0.950 . S
C6071 C6069 1.327 . S
C6072 C6060 1.349 . S
C6072 H6066 0.950 . S
C6072 C6073 1.327 . S
C6073 H6067 0.950 . S
C6073 C6072 1.327 . S
C6073 C6077 1.429 . S
C6074 C6057 1.574 . S
C6074 H6068 0.949 . S
C6074 C6078 1.368 . S
C6075 C6056 1.429 . S
C6075 C6069 1.429 . S
C6075 C6076 1.523 . S
C6076 C6057 1.368 . S
C6076 C6070 1.368 . S
C6076 C6075 1.523 . S
C6077 C6061 1.429 . S
C6077 C6073 1.429 . S
C6077 C6078 1.523 . S
C6078 C6062 1.368 . S
C6078 C6074 1.368 . S
C6078 C6077 1.523 . S
H6079 C6054 0.950 . S
H6080 C6056 0.950 . S
H6081 C6057 0.949 . S
H6082 C6059 0.950 . S
H6083 C6061 0.950 . S
C6084 C6085 1.349 . S
C6084 C6086 1.327 . S
C6084 H6109 0.950 . S
C6085 C6084 1.349 . S
C6085 C6101 1.349 . S
C6086 C6084 1.327 . S
C6086 C6105 1.429 . S
C6086 H6110 0.950 . S
C6087 C6104 1.574 . S
C6087 C6106 1.368 . S
C6087 H6111 0.949 . S
H6088 C6092 0.949 . S
C6089 C6090 1.349 . S
C6089 C6091 1.327 . S
C6089 H6112 0.950 . S
C6090 C6089 1.349 . S
C6090 C6102 1.349 . S
C6091 C6089 1.327 . S
C6091 C6107 1.429 . S
C6091 H6113 0.950 . S
C6092 H6088 0.949 . S
C6092 C6100 1.574 . S
C6092 C6108 1.368 . S
H6093 C6101 0.950 . S
H6094 C6099 0.950 . S
H6095 C6100 0.949 . S
H6096 C6102 0.950 . S
H6097 C6103 0.950 . S
H6098 C6104 0.949 . S
C6099 H6094 0.950 . S
C6099 C6101 1.327 . S
C6099 C6105 1.429 . S
C6100 C6092 1.574 . S
C6100 H6095 0.949 . S
C6100 C6106 1.368 . S
C6101 C6085 1.349 . S
C6101 H6093 0.950 . S
C6101 C6099 1.327 . S
C6102 C6090 1.349 . S
C6102 H6096 0.950 . S
C6102 C6103 1.327 . S
C6103 H6097 0.950 . S
C6103 C6102 1.327 . S
C6103 C6107 1.429 . S
C6104 C6087 1.574 . S
C6104 H6098 0.949 . S
C6104 C6108 1.368 . S
C6105 C6086 1.429 . S
C6105 C6099 1.429 . S
C6105 C6106 1.523 . S
C6106 C6087 1.368 . S
C6106 C6100 1.368 . S
C6106 C6105 1.523 . S
C6107 C6091 1.429 . S
C6107 C6103 1.429 . S
C6107 C6108 1.523 . S
C6108 C6092 1.368 . S
C6108 C6104 1.368 . S
C6108 C6107 1.523 . S
H6109 C6084 0.950 . S
H6110 C6086 0.950 . S
H6111 C6087 0.949 . S
H6112 C6089 0.950 . S
H6113 C6091 0.950 . S
C6114 C6115 1.349 . S
C6114 C6116 1.327 . S
C6114 H6139 0.950 . S
C6115 C6114 1.349 . S
C6115 C6131 1.349 . S
C6116 C6114 1.327 . S
C6116 C6135 1.429 . S
C6116 H6140 0.950 . S
C6117 C6134 1.574 . S
C6117 C6136 1.368 . S
C6117 H6141 0.949 . S
H6118 C6122 0.949 . S
C6119 C6120 1.349 . S
C6119 C6121 1.327 . S
C6119 H6142 0.950 . S
C6120 C6119 1.349 . S
C6120 C6132 1.349 . S
C6121 C6119 1.327 . S
C6121 C6137 1.429 . S
C6121 H6143 0.950 . S
C6122 H6118 0.949 . S
C6122 C6130 1.574 . S
C6122 C6138 1.368 . S
H6123 C6131 0.950 . S
H6124 C6129 0.950 . S
H6125 C6130 0.949 . S
H6126 C6132 0.950 . S
H6127 C6133 0.950 . S
H6128 C6134 0.949 . S
C6129 H6124 0.950 . S
C6129 C6131 1.327 . S
C6129 C6135 1.429 . S
C6130 C6122 1.574 . S
C6130 H6125 0.949 . S
C6130 C6136 1.368 . S
C6131 C6115 1.349 . S
C6131 H6123 0.950 . S
C6131 C6129 1.327 . S
C6132 C6120 1.349 . S
C6132 H6126 0.950 . S
C6132 C6133 1.327 . S
C6133 H6127 0.950 . S
C6133 C6132 1.327 . S
C6133 C6137 1.429 . S
C6134 C6117 1.574 . S
C6134 H6128 0.949 . S
C6134 C6138 1.368 . S
C6135 C6116 1.429 . S
C6135 C6129 1.429 . S
C6135 C6136 1.523 . S
C6136 C6117 1.368 . S
C6136 C6130 1.368 . S
C6136 C6135 1.523 . S
C6137 C6121 1.429 . S
C6137 C6133 1.429 . S
C6137 C6138 1.523 . S
C6138 C6122 1.368 . S
C6138 C6134 1.368 . S
C6138 C6137 1.523 . S
H6139 C6114 0.950 . S
H6140 C6116 0.950 . S
H6141 C6117 0.949 . S
H6142 C6119 0.950 . S
H6143 C6121 0.950 . S
C6144 C6145 1.349 . S
C6144 C6146 1.327 . S
C6144 H6169 0.950 . S
C6145 C6144 1.349 . S
C6145 C6161 1.349 . S
C6146 C6144 1.327 . S
C6146 C6165 1.429 . S
C6146 H6170 0.950 . S
C6147 C6164 1.574 . S
C6147 C6166 1.368 . S
C6147 H6171 0.949 . S
H6148 C6152 0.949 . S
C6149 C6150 1.349 . S
C6149 C6151 1.327 . S
C6149 H6172 0.950 . S
C6150 C6149 1.349 . S
C6150 C6162 1.349 . S
C6151 C6149 1.327 . S
C6151 C6167 1.429 . S
C6151 H6173 0.950 . S
C6152 H6148 0.949 . S
C6152 C6160 1.574 . S
C6152 C6168 1.368 . S
H6153 C6161 0.950 . S
H6154 C6159 0.950 . S
H6155 C6160 0.949 . S
H6156 C6162 0.950 . S
H6157 C6163 0.950 . S
H6158 C6164 0.949 . S
C6159 H6154 0.950 . S
C6159 C6161 1.327 . S
C6159 C6165 1.429 . S
C6160 C6152 1.574 . S
C6160 H6155 0.949 . S
C6160 C6166 1.368 . S
C6161 C6145 1.349 . S
C6161 H6153 0.950 . S
C6161 C6159 1.327 . S
C6162 C6150 1.349 . S
C6162 H6156 0.950 . S
C6162 C6163 1.327 . S
C6163 H6157 0.950 . S
C6163 C6162 1.327 . S
C6163 C6167 1.429 . S
C6164 C6147 1.574 . S
C6164 H6158 0.949 . S
C6164 C6168 1.368 . S
C6165 C6146 1.429 . S
C6165 C6159 1.429 . S
C6165 C6166 1.523 . S
C6166 C6147 1.368 . S
C6166 C6160 1.368 . S
C6166 C6165 1.523 . S
C6167 C6151 1.429 . S
C6167 C6163 1.429 . S
C6167 C6168 1.523 . S
C6168 C6152 1.368 . S
C6168 C6164 1.368 . S
C6168 C6167 1.523 . S
H6169 C6144 0.950 . S
H6170 C6146 0.950 . S
H6171 C6147 0.949 . S
H6172 C6149 0.950 . S
H6173 C6151 0.950 . S
C6174 C6175 1.349 . S
C6174 C6176 1.327 . S
C6174 H6199 0.950 . S
C6175 C6174 1.349 . S
C6175 C6191 1.349 . S
C6176 C6174 1.327 . S
C6176 C6195 1.429 . S
C6176 H6200 0.950 . S
C6177 C6194 1.574 . S
C6177 C6196 1.368 . S
C6177 H6201 0.949 . S
H6178 C6182 0.949 . S
C6179 C6180 1.349 . S
C6179 C6181 1.327 . S
C6179 H6202 0.950 . S
C6180 C6179 1.349 . S
C6180 C6192 1.349 . S
C6181 C6179 1.327 . S
C6181 C6197 1.429 . S
C6181 H6203 0.950 . S
C6182 H6178 0.949 . S
C6182 C6190 1.574 . S
C6182 C6198 1.368 . S
H6183 C6191 0.950 . S
H6184 C6189 0.950 . S
H6185 C6190 0.949 . S
H6186 C6192 0.950 . S
H6187 C6193 0.950 . S
H6188 C6194 0.949 . S
C6189 H6184 0.950 . S
C6189 C6191 1.327 . S
C6189 C6195 1.429 . S
C6190 C6182 1.574 . S
C6190 H6185 0.949 . S
C6190 C6196 1.368 . S
C6191 C6175 1.349 . S
C6191 H6183 0.950 . S
C6191 C6189 1.327 . S
C6192 C6180 1.349 . S
C6192 H6186 0.950 . S
C6192 C6193 1.327 . S
C6193 H6187 0.950 . S
C6193 C6192 1.327 . S
C6193 C6197 1.429 . S
C6194 C6177 1.574 . S
C6194 H6188 0.949 . S
C6194 C6198 1.368 . S
C6195 C6176 1.429 . S
C6195 C6189 1.429 . S
C6195 C6196 1.523 . S
C6196 C6177 1.368 . S
C6196 C6190 1.368 . S
C6196 C6195 1.523 . S
C6197 C6181 1.429 . S
C6197 C6193 1.429 . S
C6197 C6198 1.523 . S
C6198 C6182 1.368 . S
C6198 C6194 1.368 . S
C6198 C6197 1.523 . S
H6199 C6174 0.950 . S
H6200 C6176 0.950 . S
H6201 C6177 0.949 . S
H6202 C6179 0.950 . S
H6203 C6181 0.950 . S
C6204 C6205 1.349 . S
C6204 C6206 1.327 . S
C6204 H6229 0.950 . S
C6205 C6204 1.349 . S
C6205 C6221 1.349 . S
C6206 C6204 1.327 . S
C6206 C6225 1.429 . S
C6206 H6230 0.950 . S
C6207 C6224 1.574 . S
C6207 C6226 1.368 . S
C6207 H6231 0.949 . S
H6208 C6212 0.949 . S
C6209 C6210 1.349 . S
C6209 C6211 1.327 . S
C6209 H6232 0.950 . S
C6210 C6209 1.349 . S
C6210 C6222 1.349 . S
C6211 C6209 1.327 . S
C6211 C6227 1.429 . S
C6211 H6233 0.950 . S
C6212 H6208 0.949 . S
C6212 C6220 1.574 . S
C6212 C6228 1.368 . S
H6213 C6221 0.950 . S
H6214 C6219 0.950 . S
H6215 C6220 0.949 . S
H6216 C6222 0.950 . S
H6217 C6223 0.950 . S
H6218 C6224 0.949 . S
C6219 H6214 0.950 . S
C6219 C6221 1.327 . S
C6219 C6225 1.429 . S
C6220 C6212 1.574 . S
C6220 H6215 0.949 . S
C6220 C6226 1.368 . S
C6221 C6205 1.349 . S
C6221 H6213 0.950 . S
C6221 C6219 1.327 . S
C6222 C6210 1.349 . S
C6222 H6216 0.950 . S
C6222 C6223 1.327 . S
C6223 H6217 0.950 . S
C6223 C6222 1.327 . S
C6223 C6227 1.429 . S
C6224 C6207 1.574 . S
C6224 H6218 0.949 . S
C6224 C6228 1.368 . S
C6225 C6206 1.429 . S
C6225 C6219 1.429 . S
C6225 C6226 1.523 . S
C6226 C6207 1.368 . S
C6226 C6220 1.368 . S
C6226 C6225 1.523 . S
C6227 C6211 1.429 . S
C6227 C6223 1.429 . S
C6227 C6228 1.523 . S
C6228 C6212 1.368 . S
C6228 C6224 1.368 . S
C6228 C6227 1.523 . S
H6229 C6204 0.950 . S
H6230 C6206 0.950 . S
H6231 C6207 0.949 . S
H6232 C6209 0.950 . S
H6233 C6211 0.950 . S
C6234 C6235 1.349 . S
C6234 C6236 1.327 . S
C6234 H6259 0.950 . S
C6235 C6234 1.349 . S
C6235 C6251 1.349 . S
C6236 C6234 1.327 . S
C6236 C6255 1.429 . S
C6236 H6260 0.950 . S
C6237 C6254 1.574 . S
C6237 C6256 1.368 . S
C6237 H6261 0.949 . S
H6238 C6242 0.949 . S
C6239 C6240 1.349 . S
C6239 C6241 1.327 . S
C6239 H6262 0.950 . S
C6240 C6239 1.349 . S
C6240 C6252 1.349 . S
C6241 C6239 1.327 . S
C6241 C6257 1.429 . S
C6241 H6263 0.950 . S
C6242 H6238 0.949 . S
C6242 C6250 1.574 . S
C6242 C6258 1.368 . S
H6243 C6251 0.950 . S
H6244 C6249 0.950 . S
H6245 C6250 0.949 . S
H6246 C6252 0.950 . S
H6247 C6253 0.950 . S
H6248 C6254 0.949 . S
C6249 H6244 0.950 . S
C6249 C6251 1.327 . S
C6249 C6255 1.429 . S
C6250 C6242 1.574 . S
C6250 H6245 0.949 . S
C6250 C6256 1.368 . S
C6251 C6235 1.349 . S
C6251 H6243 0.950 . S
C6251 C6249 1.327 . S
C6252 C6240 1.349 . S
C6252 H6246 0.950 . S
C6252 C6253 1.327 . S
C6253 H6247 0.950 . S
C6253 C6252 1.327 . S
C6253 C6257 1.429 . S
C6254 C6237 1.574 . S
C6254 H6248 0.949 . S
C6254 C6258 1.368 . S
C6255 C6236 1.429 . S
C6255 C6249 1.429 . S
C6255 C6256 1.523 . S
C6256 C6237 1.368 . S
C6256 C6250 1.368 . S
C6256 C6255 1.523 . S
C6257 C6241 1.429 . S
C6257 C6253 1.429 . S
C6257 C6258 1.523 . S
C6258 C6242 1.368 . S
C6258 C6254 1.368 . S
C6258 C6257 1.523 . S
H6259 C6234 0.950 . S
H6260 C6236 0.950 . S
H6261 C6237 0.949 . S
H6262 C6239 0.950 . S
H6263 C6241 0.950 . S
C6264 C6265 1.349 . S
C6264 C6266 1.327 . S
C6264 H6289 0.950 . S
C6265 C6264 1.349 . S
C6265 C6281 1.349 . S
C6266 C6264 1.327 . S
C6266 C6285 1.429 . S
C6266 H6290 0.950 . S
C6267 C6284 1.574 . S
C6267 C6286 1.368 . S
C6267 H6291 0.949 . S
H6268 C6272 0.949 . S
C6269 C6270 1.349 . S
C6269 C6271 1.327 . S
C6269 H6292 0.950 . S
C6270 C6269 1.349 . S
C6270 C6282 1.349 . S
C6271 C6269 1.327 . S
C6271 C6287 1.429 . S
C6271 H6293 0.950 . S
C6272 H6268 0.949 . S
C6272 C6280 1.574 . S
C6272 C6288 1.368 . S
H6273 C6281 0.950 . S
H6274 C6279 0.950 . S
H6275 C6280 0.949 . S
H6276 C6282 0.950 . S
H6277 C6283 0.950 . S
H6278 C6284 0.949 . S
C6279 H6274 0.950 . S
C6279 C6281 1.327 . S
C6279 C6285 1.429 . S
C6280 C6272 1.574 . S
C6280 H6275 0.949 . S
C6280 C6286 1.368 . S
C6281 C6265 1.349 . S
C6281 H6273 0.950 . S
C6281 C6279 1.327 . S
C6282 C6270 1.349 . S
C6282 H6276 0.950 . S
C6282 C6283 1.327 . S
C6283 H6277 0.950 . S
C6283 C6282 1.327 . S
C6283 C6287 1.429 . S
C6284 C6267 1.574 . S
C6284 H6278 0.949 . S
C6284 C6288 1.368 . S
C6285 C6266 1.429 . S
C6285 C6279 1.429 . S
C6285 C6286 1.523 . S
C6286 C6267 1.368 . S
C6286 C6280 1.368 . S
C6286 C6285 1.523 . S
C6287 C6271 1.429 . S
C6287 C6283 1.429 . S
C6287 C6288 1.523 . S
C6288 C6272 1.368 . S
C6288 C6284 1.368 . S
C6288 C6287 1.523 . S
H6289 C6264 0.950 . S
H6290 C6266 0.950 . S
H6291 C6267 0.949 . S
H6292 C6269 0.950 . S
H6293 C6271 0.950 . S
C6294 C6295 1.349 . S
C6294 C6296 1.327 . S
C6294 H6319 0.950 . S
C6295 C6294 1.349 . S
C6295 C6311 1.349 . S
C6296 C6294 1.327 . S
C6296 C6315 1.429 . S
C6296 H6320 0.950 . S
C6297 C6314 1.574 . S
C6297 C6316 1.368 . S
C6297 H6321 0.949 . S
H6298 C6302 0.949 . S
C6299 C6300 1.349 . S
C6299 C6301 1.327 . S
C6299 H6322 0.950 . S
C6300 C6299 1.349 . S
C6300 C6312 1.349 . S
C6301 C6299 1.327 . S
C6301 C6317 1.429 . S
C6301 H6323 0.950 . S
C6302 H6298 0.949 . S
C6302 C6310 1.574 . S
C6302 C6318 1.368 . S
H6303 C6311 0.950 . S
H6304 C6309 0.950 . S
H6305 C6310 0.949 . S
H6306 C6312 0.950 . S
H6307 C6313 0.950 . S
H6308 C6314 0.949 . S
C6309 H6304 0.950 . S
C6309 C6311 1.327 . S
C6309 C6315 1.429 . S
C6310 C6302 1.574 . S
C6310 H6305 0.949 . S
C6310 C6316 1.368 . S
C6311 C6295 1.349 . S
C6311 H6303 0.950 . S
C6311 C6309 1.327 . S
C6312 C6300 1.349 . S
C6312 H6306 0.950 . S
C6312 C6313 1.327 . S
C6313 H6307 0.950 . S
C6313 C6312 1.327 . S
C6313 C6317 1.429 . S
C6314 C6297 1.574 . S
C6314 H6308 0.949 . S
C6314 C6318 1.368 . S
C6315 C6296 1.429 . S
C6315 C6309 1.429 . S
C6315 C6316 1.523 . S
C6316 C6297 1.368 . S
C6316 C6310 1.368 . S
C6316 C6315 1.523 . S
C6317 C6301 1.429 . S
C6317 C6313 1.429 . S
C6317 C6318 1.523 . S
C6318 C6302 1.368 . S
C6318 C6314 1.368 . S
C6318 C6317 1.523 . S
H6319 C6294 0.950 . S
H6320 C6296 0.950 . S
H6321 C6297 0.949 . S
H6322 C6299 0.950 . S
H6323 C6301 0.950 . S
C6324 C6325 1.349 . S
C6324 C6326 1.327 . S
C6324 H6349 0.950 . S
C6325 C6324 1.349 . S
C6325 C6341 1.349 . S
C6326 C6324 1.327 . S
C6326 C6345 1.429 . S
C6326 H6350 0.950 . S
C6327 C6344 1.574 . S
C6327 C6346 1.368 . S
C6327 H6351 0.949 . S
H6328 C6332 0.949 . S
C6329 C6330 1.349 . S
C6329 C6331 1.327 . S
C6329 H6352 0.950 . S
C6330 C6329 1.349 . S
C6330 C6342 1.349 . S
C6331 C6329 1.327 . S
C6331 C6347 1.429 . S
C6331 H6353 0.950 . S
C6332 H6328 0.949 . S
C6332 C6340 1.574 . S
C6332 C6348 1.368 . S
H6333 C6341 0.950 . S
H6334 C6339 0.950 . S
H6335 C6340 0.949 . S
H6336 C6342 0.950 . S
H6337 C6343 0.950 . S
H6338 C6344 0.949 . S
C6339 H6334 0.950 . S
C6339 C6341 1.327 . S
C6339 C6345 1.429 . S
C6340 C6332 1.574 . S
C6340 H6335 0.949 . S
C6340 C6346 1.368 . S
C6341 C6325 1.349 . S
C6341 H6333 0.950 . S
C6341 C6339 1.327 . S
C6342 C6330 1.349 . S
C6342 H6336 0.950 . S
C6342 C6343 1.327 . S
C6343 H6337 0.950 . S
C6343 C6342 1.327 . S
C6343 C6347 1.429 . S
C6344 C6327 1.574 . S
C6344 H6338 0.949 . S
C6344 C6348 1.368 . S
C6345 C6326 1.429 . S
C6345 C6339 1.429 . S
C6345 C6346 1.523 . S
C6346 C6327 1.368 . S
C6346 C6340 1.368 . S
C6346 C6345 1.523 . S
C6347 C6331 1.429 . S
C6347 C6343 1.429 . S
C6347 C6348 1.523 . S
C6348 C6332 1.368 . S
C6348 C6344 1.368 . S
C6348 C6347 1.523 . S
H6349 C6324 0.950 . S
H6350 C6326 0.950 . S
H6351 C6327 0.949 . S
H6352 C6329 0.950 . S
H6353 C6331 0.950 . S
C6354 C6355 1.349 . S
C6354 C6356 1.327 . S
C6354 H6379 0.950 . S
C6355 C6354 1.349 . S
C6355 C6371 1.349 . S
C6356 C6354 1.327 . S
C6356 C6375 1.429 . S
C6356 H6380 0.950 . S
C6357 C6374 1.574 . S
C6357 C6376 1.368 . S
C6357 H6381 0.949 . S
H6358 C6362 0.949 . S
C6359 C6360 1.349 . S
C6359 C6361 1.327 . S
C6359 H6382 0.950 . S
C6360 C6359 1.349 . S
C6360 C6372 1.349 . S
C6361 C6359 1.327 . S
C6361 C6377 1.429 . S
C6361 H6383 0.950 . S
C6362 H6358 0.949 . S
C6362 C6370 1.574 . S
C6362 C6378 1.368 . S
H6363 C6371 0.950 . S
H6364 C6369 0.950 . S
H6365 C6370 0.949 . S
H6366 C6372 0.950 . S
H6367 C6373 0.950 . S
H6368 C6374 0.949 . S
C6369 H6364 0.950 . S
C6369 C6371 1.327 . S
C6369 C6375 1.429 . S
C6370 C6362 1.574 . S
C6370 H6365 0.949 . S
C6370 C6376 1.368 . S
C6371 C6355 1.349 . S
C6371 H6363 0.950 . S
C6371 C6369 1.327 . S
C6372 C6360 1.349 . S
C6372 H6366 0.950 . S
C6372 C6373 1.327 . S
C6373 H6367 0.950 . S
C6373 C6372 1.327 . S
C6373 C6377 1.429 . S
C6374 C6357 1.574 . S
C6374 H6368 0.949 . S
C6374 C6378 1.368 . S
C6375 C6356 1.429 . S
C6375 C6369 1.429 . S
C6375 C6376 1.523 . S
C6376 C6357 1.368 . S
C6376 C6370 1.368 . S
C6376 C6375 1.523 . S
C6377 C6361 1.429 . S
C6377 C6373 1.429 . S
C6377 C6378 1.523 . S
C6378 C6362 1.368 . S
C6378 C6374 1.368 . S
C6378 C6377 1.523 . S
H6379 C6354 0.950 . S
H6380 C6356 0.950 . S
H6381 C6357 0.949 . S
H6382 C6359 0.950 . S
H6383 C6361 0.950 . S
C6384 C6385 1.349 . S
C6384 C6386 1.327 . S
C6384 H6409 0.950 . S
C6385 C6384 1.349 . S
C6385 C6401 1.349 . S
C6386 C6384 1.327 . S
C6386 C6405 1.429 . S
C6386 H6410 0.950 . S
C6387 C6404 1.574 . S
C6387 C6406 1.368 . S
C6387 H6411 0.949 . S
H6388 C6392 0.949 . S
C6389 C6390 1.349 . S
C6389 C6391 1.327 . S
C6389 H6412 0.950 . S
C6390 C6389 1.349 . S
C6390 C6402 1.349 . S
C6391 C6389 1.327 . S
C6391 C6407 1.429 . S
C6391 H6413 0.950 . S
C6392 H6388 0.949 . S
C6392 C6400 1.574 . S
C6392 C6408 1.368 . S
H6393 C6401 0.950 . S
H6394 C6399 0.950 . S
H6395 C6400 0.949 . S
H6396 C6402 0.950 . S
H6397 C6403 0.950 . S
H6398 C6404 0.949 . S
C6399 H6394 0.950 . S
C6399 C6401 1.327 . S
C6399 C6405 1.429 . S
C6400 C6392 1.574 . S
C6400 H6395 0.949 . S
C6400 C6406 1.368 . S
C6401 C6385 1.349 . S
C6401 H6393 0.950 . S
C6401 C6399 1.327 . S
C6402 C6390 1.349 . S
C6402 H6396 0.950 . S
C6402 C6403 1.327 . S
C6403 H6397 0.950 . S
C6403 C6402 1.327 . S
C6403 C6407 1.429 . S
C6404 C6387 1.574 . S
C6404 H6398 0.949 . S
C6404 C6408 1.368 . S
C6405 C6386 1.429 . S
C6405 C6399 1.429 . S
C6405 C6406 1.523 . S
C6406 C6387 1.368 . S
C6406 C6400 1.368 . S
C6406 C6405 1.523 . S
C6407 C6391 1.429 . S
C6407 C6403 1.429 . S
C6407 C6408 1.523 . S
C6408 C6392 1.368 . S
C6408 C6404 1.368 . S
C6408 C6407 1.523 . S
H6409 C6384 0.950 . S
H6410 C6386 0.950 . S
H6411 C6387 0.949 . S
H6412 C6389 0.950 . S
H6413 C6391 0.950 . S
C6414 C6415 1.349 . S
C6414 C6416 1.327 . S
C6414 H6439 0.950 . S
C6415 C6414 1.349 . S
C6415 C6431 1.349 . S
C6416 C6414 1.327 . S
C6416 C6435 1.429 . S
C6416 H6440 0.950 . S
C6417 C6434 1.574 . S
C6417 C6436 1.368 . S
C6417 H6441 0.949 . S
H6418 C6422 0.949 . S
C6419 C6420 1.349 . S
C6419 C6421 1.327 . S
C6419 H6442 0.950 . S
C6420 C6419 1.349 . S
C6420 C6432 1.349 . S
C6421 C6419 1.327 . S
C6421 C6437 1.429 . S
C6421 H6443 0.950 . S
C6422 H6418 0.949 . S
C6422 C6430 1.574 . S
C6422 C6438 1.368 . S
H6423 C6431 0.950 . S
H6424 C6429 0.950 . S
H6425 C6430 0.949 . S
H6426 C6432 0.950 . S
H6427 C6433 0.950 . S
H6428 C6434 0.949 . S
C6429 H6424 0.950 . S
C6429 C6431 1.327 . S
C6429 C6435 1.429 . S
C6430 C6422 1.574 . S
C6430 H6425 0.949 . S
C6430 C6436 1.368 . S
C6431 C6415 1.349 . S
C6431 H6423 0.950 . S
C6431 C6429 1.327 . S
C6432 C6420 1.349 . S
C6432 H6426 0.950 . S
C6432 C6433 1.327 . S
C6433 H6427 0.950 . S
C6433 C6432 1.327 . S
C6433 C6437 1.429 . S
C6434 C6417 1.574 . S
C6434 H6428 0.949 . S
C6434 C6438 1.368 . S
C6435 C6416 1.429 . S
C6435 C6429 1.429 . S
C6435 C6436 1.523 . S
C6436 C6417 1.368 . S
C6436 C6430 1.368 . S
C6436 C6435 1.523 . S
C6437 C6421 1.429 . S
C6437 C6433 1.429 . S
C6437 C6438 1.523 . S
C6438 C6422 1.368 . S
C6438 C6434 1.368 . S
C6438 C6437 1.523 . S
H6439 C6414 0.950 . S
H6440 C6416 0.950 . S
H6441 C6417 0.949 . S
H6442 C6419 0.950 . S
H6443 C6421 0.950 . S
C6444 C6445 1.349 . S
C6444 C6446 1.327 . S
C6444 H6469 0.950 . S
C6445 C6444 1.349 . S
C6445 C6461 1.349 . S
C6446 C6444 1.327 . S
C6446 C6465 1.429 . S
C6446 H6470 0.950 . S
C6447 C6464 1.574 . S
C6447 C6466 1.368 . S
C6447 H6471 0.949 . S
H6448 C6452 0.949 . S
C6449 C6450 1.349 . S
C6449 C6451 1.327 . S
C6449 H6472 0.950 . S
C6450 C6449 1.349 . S
C6450 C6462 1.349 . S
C6451 C6449 1.327 . S
C6451 C6467 1.429 . S
C6451 H6473 0.950 . S
C6452 H6448 0.949 . S
C6452 C6460 1.574 . S
C6452 C6468 1.368 . S
H6453 C6461 0.950 . S
H6454 C6459 0.950 . S
H6455 C6460 0.949 . S
H6456 C6462 0.950 . S
H6457 C6463 0.950 . S
H6458 C6464 0.949 . S
C6459 H6454 0.950 . S
C6459 C6461 1.327 . S
C6459 C6465 1.429 . S
C6460 C6452 1.574 . S
C6460 H6455 0.949 . S
C6460 C6466 1.368 . S
C6461 C6445 1.349 . S
C6461 H6453 0.950 . S
C6461 C6459 1.327 . S
C6462 C6450 1.349 . S
C6462 H6456 0.950 . S
C6462 C6463 1.327 . S
C6463 H6457 0.950 . S
C6463 C6462 1.327 . S
C6463 C6467 1.429 . S
C6464 C6447 1.574 . S
C6464 H6458 0.949 . S
C6464 C6468 1.368 . S
C6465 C6446 1.429 . S
C6465 C6459 1.429 . S
C6465 C6466 1.523 . S
C6466 C6447 1.368 . S
C6466 C6460 1.368 . S
C6466 C6465 1.523 . S
C6467 C6451 1.429 . S
C6467 C6463 1.429 . S
C6467 C6468 1.523 . S
C6468 C6452 1.368 . S
C6468 C6464 1.368 . S
C6468 C6467 1.523 . S
H6469 C6444 0.950 . S
H6470 C6446 0.950 . S
H6471 C6447 0.949 . S
H6472 C6449 0.950 . S
H6473 C6451 0.950 . S
C6474 C6475 1.349 . S
C6474 C6476 1.327 . S
C6474 H6499 0.950 . S
C6475 C6474 1.349 . S
C6475 C6491 1.349 . S
C6476 C6474 1.327 . S
C6476 C6495 1.429 . S
C6476 H6500 0.950 . S
C6477 C6494 1.574 . S
C6477 C6496 1.368 . S
C6477 H6501 0.949 . S
H6478 C6482 0.949 . S
C6479 C6480 1.349 . S
C6479 C6481 1.327 . S
C6479 H6502 0.950 . S
C6480 C6479 1.349 . S
C6480 C6492 1.349 . S
C6481 C6479 1.327 . S
C6481 C6497 1.429 . S
C6481 H6503 0.950 . S
C6482 H6478 0.949 . S
C6482 C6490 1.574 . S
C6482 C6498 1.368 . S
H6483 C6491 0.950 . S
H6484 C6489 0.950 . S
H6485 C6490 0.949 . S
H6486 C6492 0.950 . S
H6487 C6493 0.950 . S
H6488 C6494 0.949 . S
C6489 H6484 0.950 . S
C6489 C6491 1.327 . S
C6489 C6495 1.429 . S
C6490 C6482 1.574 . S
C6490 H6485 0.949 . S
C6490 C6496 1.368 . S
C6491 C6475 1.349 . S
C6491 H6483 0.950 . S
C6491 C6489 1.327 . S
C6492 C6480 1.349 . S
C6492 H6486 0.950 . S
C6492 C6493 1.327 . S
C6493 H6487 0.950 . S
C6493 C6492 1.327 . S
C6493 C6497 1.429 . S
C6494 C6477 1.574 . S
C6494 H6488 0.949 . S
C6494 C6498 1.368 . S
C6495 C6476 1.429 . S
C6495 C6489 1.429 . S
C6495 C6496 1.523 . S
C6496 C6477 1.368 . S
C6496 C6490 1.368 . S
C6496 C6495 1.523 . S
C6497 C6481 1.429 . S
C6497 C6493 1.429 . S
C6497 C6498 1.523 . S
C6498 C6482 1.368 . S
C6498 C6494 1.368 . S
C6498 C6497 1.523 . S
H6499 C6474 0.950 . S
H6500 C6476 0.950 . S
H6501 C6477 0.949 . S
H6502 C6479 0.950 . S
H6503 C6481 0.950 . S
C6504 C6505 1.349 . S
C6504 C6506 1.327 . S
C6504 H6529 0.950 . S
C6505 C6504 1.349 . S
C6505 C6521 1.349 . S
C6506 C6504 1.327 . S
C6506 C6525 1.429 . S
C6506 H6530 0.950 . S
C6507 C6524 1.574 . S
C6507 C6526 1.368 . S
C6507 H6531 0.949 . S
H6508 C6512 0.949 . S
C6509 C6510 1.349 . S
C6509 C6511 1.327 . S
C6509 H6532 0.950 . S
C6510 C6509 1.349 . S
C6510 C6522 1.349 . S
C6511 C6509 1.327 . S
C6511 C6527 1.429 . S
C6511 H6533 0.950 . S
C6512 H6508 0.949 . S
C6512 C6520 1.574 . S
C6512 C6528 1.368 . S
H6513 C6521 0.950 . S
H6514 C6519 0.950 . S
H6515 C6520 0.949 . S
H6516 C6522 0.950 . S
H6517 C6523 0.950 . S
H6518 C6524 0.949 . S
C6519 H6514 0.950 . S
C6519 C6521 1.327 . S
C6519 C6525 1.429 . S
C6520 C6512 1.574 . S
C6520 H6515 0.949 . S
C6520 C6526 1.368 . S
C6521 C6505 1.349 . S
C6521 H6513 0.950 . S
C6521 C6519 1.327 . S
C6522 C6510 1.349 . S
C6522 H6516 0.950 . S
C6522 C6523 1.327 . S
C6523 H6517 0.950 . S
C6523 C6522 1.327 . S
C6523 C6527 1.429 . S
C6524 C6507 1.574 . S
C6524 H6518 0.949 . S
C6524 C6528 1.368 . S
C6525 C6506 1.429 . S
C6525 C6519 1.429 . S
C6525 C6526 1.523 . S
C6526 C6507 1.368 . S
C6526 C6520 1.368 . S
C6526 C6525 1.523 . S
C6527 C6511 1.429 . S
C6527 C6523 1.429 . S
C6527 C6528 1.523 . S
C6528 C6512 1.368 . S
C6528 C6524 1.368 . S
C6528 C6527 1.523 . S
H6529 C6504 0.950 . S
H6530 C6506 0.950 . S
H6531 C6507 0.949 . S
H6532 C6509 0.950 . S
H6533 C6511 0.950 . S
C6534 C6535 1.349 . S
C6534 C6536 1.327 . S
C6534 H6559 0.950 . S
C6535 C6534 1.349 . S
C6535 C6551 1.349 . S
C6536 C6534 1.327 . S
C6536 C6555 1.429 . S
C6536 H6560 0.950 . S
C6537 C6554 1.574 . S
C6537 C6556 1.368 . S
C6537 H6561 0.949 . S
H6538 C6542 0.949 . S
C6539 C6540 1.349 . S
C6539 C6541 1.327 . S
C6539 H6562 0.950 . S
C6540 C6539 1.349 . S
C6540 C6552 1.349 . S
C6541 C6539 1.327 . S
C6541 C6557 1.429 . S
C6541 H6563 0.950 . S
C6542 H6538 0.949 . S
C6542 C6550 1.574 . S
C6542 C6558 1.368 . S
H6543 C6551 0.950 . S
H6544 C6549 0.950 . S
H6545 C6550 0.949 . S
H6546 C6552 0.950 . S
H6547 C6553 0.950 . S
H6548 C6554 0.949 . S
C6549 H6544 0.950 . S
C6549 C6551 1.327 . S
C6549 C6555 1.429 . S
C6550 C6542 1.574 . S
C6550 H6545 0.949 . S
C6550 C6556 1.368 . S
C6551 C6535 1.349 . S
C6551 H6543 0.950 . S
C6551 C6549 1.327 . S
C6552 C6540 1.349 . S
C6552 H6546 0.950 . S
C6552 C6553 1.327 . S
C6553 H6547 0.950 . S
C6553 C6552 1.327 . S
C6553 C6557 1.429 . S
C6554 C6537 1.574 . S
C6554 H6548 0.949 . S
C6554 C6558 1.368 . S
C6555 C6536 1.429 . S
C6555 C6549 1.429 . S
C6555 C6556 1.523 . S
C6556 C6537 1.368 . S
C6556 C6550 1.368 . S
C6556 C6555 1.523 . S
C6557 C6541 1.429 . S
C6557 C6553 1.429 . S
C6557 C6558 1.523 . S
C6558 C6542 1.368 . S
C6558 C6554 1.368 . S
C6558 C6557 1.523 . S
H6559 C6534 0.950 . S
H6560 C6536 0.950 . S
H6561 C6537 0.949 . S
H6562 C6539 0.950 . S
H6563 C6541 0.950 . S
C6564 C6565 1.349 . S
C6564 C6566 1.327 . S
C6564 H6589 0.950 . S
C6565 C6564 1.349 . S
C6565 C6581 1.349 . S
C6566 C6564 1.327 . S
C6566 C6585 1.429 . S
C6566 H6590 0.950 . S
C6567 C6584 1.574 . S
C6567 C6586 1.368 . S
C6567 H6591 0.949 . S
H6568 C6572 0.949 . S
C6569 C6570 1.349 . S
C6569 C6571 1.327 . S
C6569 H6592 0.950 . S
C6570 C6569 1.349 . S
C6570 C6582 1.349 . S
C6571 C6569 1.327 . S
C6571 C6587 1.429 . S
C6571 H6593 0.950 . S
C6572 H6568 0.949 . S
C6572 C6580 1.574 . S
C6572 C6588 1.368 . S
H6573 C6581 0.950 . S
H6574 C6579 0.950 . S
H6575 C6580 0.949 . S
H6576 C6582 0.950 . S
H6577 C6583 0.950 . S
H6578 C6584 0.949 . S
C6579 H6574 0.950 . S
C6579 C6581 1.327 . S
C6579 C6585 1.429 . S
C6580 C6572 1.574 . S
C6580 H6575 0.949 . S
C6580 C6586 1.368 . S
C6581 C6565 1.349 . S
C6581 H6573 0.950 . S
C6581 C6579 1.327 . S
C6582 C6570 1.349 . S
C6582 H6576 0.950 . S
C6582 C6583 1.327 . S
C6583 H6577 0.950 . S
C6583 C6582 1.327 . S
C6583 C6587 1.429 . S
C6584 C6567 1.574 . S
C6584 H6578 0.949 . S
C6584 C6588 1.368 . S
C6585 C6566 1.429 . S
C6585 C6579 1.429 . S
C6585 C6586 1.523 . S
C6586 C6567 1.368 . S
C6586 C6580 1.368 . S
C6586 C6585 1.523 . S
C6587 C6571 1.429 . S
C6587 C6583 1.429 . S
C6587 C6588 1.523 . S
C6588 C6572 1.368 . S
C6588 C6584 1.368 . S
C6588 C6587 1.523 . S
H6589 C6564 0.950 . S
H6590 C6566 0.950 . S
H6591 C6567 0.949 . S
H6592 C6569 0.950 . S
H6593 C6571 0.950 . S
C6594 C6595 1.349 . S
C6594 C6596 1.327 . S
C6594 H6619 0.950 . S
C6595 C6594 1.349 . S
C6595 C6611 1.349 . S
C6596 C6594 1.327 . S
C6596 C6615 1.429 . S
C6596 H6620 0.950 . S
C6597 C6614 1.574 . S
C6597 C6616 1.368 . S
C6597 H6621 0.949 . S
H6598 C6602 0.949 . S
C6599 C6600 1.349 . S
C6599 C6601 1.327 . S
C6599 H6622 0.950 . S
C6600 C6599 1.349 . S
C6600 C6612 1.349 . S
C6601 C6599 1.327 . S
C6601 C6617 1.429 . S
C6601 H6623 0.950 . S
C6602 H6598 0.949 . S
C6602 C6610 1.574 . S
C6602 C6618 1.368 . S
H6603 C6611 0.950 . S
H6604 C6609 0.950 . S
H6605 C6610 0.949 . S
H6606 C6612 0.950 . S
H6607 C6613 0.950 . S
H6608 C6614 0.949 . S
C6609 H6604 0.950 . S
C6609 C6611 1.327 . S
C6609 C6615 1.429 . S
C6610 C6602 1.574 . S
C6610 H6605 0.949 . S
C6610 C6616 1.368 . S
C6611 C6595 1.349 . S
C6611 H6603 0.950 . S
C6611 C6609 1.327 . S
C6612 C6600 1.349 . S
C6612 H6606 0.950 . S
C6612 C6613 1.327 . S
C6613 H6607 0.950 . S
C6613 C6612 1.327 . S
C6613 C6617 1.429 . S
C6614 C6597 1.574 . S
C6614 H6608 0.949 . S
C6614 C6618 1.368 . S
C6615 C6596 1.429 . S
C6615 C6609 1.429 . S
C6615 C6616 1.523 . S
C6616 C6597 1.368 . S
C6616 C6610 1.368 . S
C6616 C6615 1.523 . S
C6617 C6601 1.429 . S
C6617 C6613 1.429 . S
C6617 C6618 1.523 . S
C6618 C6602 1.368 . S
C6618 C6614 1.368 . S
C6618 C6617 1.523 . S
H6619 C6594 0.950 . S
H6620 C6596 0.950 . S
H6621 C6597 0.949 . S
H6622 C6599 0.950 . S
H6623 C6601 0.950 . S
C6624 C6625 1.349 . S
C6624 C6626 1.327 . S
C6624 H6649 0.950 . S
C6625 C6624 1.349 . S
C6625 C6641 1.349 . S
C6626 C6624 1.327 . S
C6626 C6645 1.429 . S
C6626 H6650 0.950 . S
C6627 C6644 1.574 . S
C6627 C6646 1.368 . S
C6627 H6651 0.949 . S
H6628 C6632 0.949 . S
C6629 C6630 1.349 . S
C6629 C6631 1.327 . S
C6629 H6652 0.950 . S
C6630 C6629 1.349 . S
C6630 C6642 1.349 . S
C6631 C6629 1.327 . S
C6631 C6647 1.429 . S
C6631 H6653 0.950 . S
C6632 H6628 0.949 . S
C6632 C6640 1.574 . S
C6632 C6648 1.368 . S
H6633 C6641 0.950 . S
H6634 C6639 0.950 . S
H6635 C6640 0.949 . S
H6636 C6642 0.950 . S
H6637 C6643 0.950 . S
H6638 C6644 0.949 . S
C6639 H6634 0.950 . S
C6639 C6641 1.327 . S
C6639 C6645 1.429 . S
C6640 C6632 1.574 . S
C6640 H6635 0.949 . S
C6640 C6646 1.368 . S
C6641 C6625 1.349 . S
C6641 H6633 0.950 . S
C6641 C6639 1.327 . S
C6642 C6630 1.349 . S
C6642 H6636 0.950 . S
C6642 C6643 1.327 . S
C6643 H6637 0.950 . S
C6643 C6642 1.327 . S
C6643 C6647 1.429 . S
C6644 C6627 1.574 . S
C6644 H6638 0.949 . S
C6644 C6648 1.368 . S
C6645 C6626 1.429 . S
C6645 C6639 1.429 . S
C6645 C6646 1.523 . S
C6646 C6627 1.368 . S
C6646 C6640 1.368 . S
C6646 C6645 1.523 . S
C6647 C6631 1.429 . S
C6647 C6643 1.429 . S
C6647 C6648 1.523 . S
C6648 C6632 1.368 . S
C6648 C6644 1.368 . S
C6648 C6647 1.523 . S
H6649 C6624 0.950 . S
H6650 C6626 0.950 . S
H6651 C6627 0.949 . S
H6652 C6629 0.950 . S
H6653 C6631 0.950 . S
C6654 C6655 1.349 . S
C6654 C6656 1.327 . S
C6654 H6679 0.950 . S
C6655 C6654 1.349 . S
C6655 C6671 1.349 . S
C6656 C6654 1.327 . S
C6656 C6675 1.429 . S
C6656 H6680 0.950 . S
C6657 C6674 1.574 . S
C6657 C6676 1.368 . S
C6657 H6681 0.949 . S
H6658 C6662 0.949 . S
C6659 C6660 1.349 . S
C6659 C6661 1.327 . S
C6659 H6682 0.950 . S
C6660 C6659 1.349 . S
C6660 C6672 1.349 . S
C6661 C6659 1.327 . S
C6661 C6677 1.429 . S
C6661 H6683 0.950 . S
C6662 H6658 0.949 . S
C6662 C6670 1.574 . S
C6662 C6678 1.368 . S
H6663 C6671 0.950 . S
H6664 C6669 0.950 . S
H6665 C6670 0.949 . S
H6666 C6672 0.950 . S
H6667 C6673 0.950 . S
H6668 C6674 0.949 . S
C6669 H6664 0.950 . S
C6669 C6671 1.327 . S
C6669 C6675 1.429 . S
C6670 C6662 1.574 . S
C6670 H6665 0.949 . S
C6670 C6676 1.368 . S
C6671 C6655 1.349 . S
C6671 H6663 0.950 . S
C6671 C6669 1.327 . S
C6672 C6660 1.349 . S
C6672 H6666 0.950 . S
C6672 C6673 1.327 . S
C6673 H6667 0.950 . S
C6673 C6672 1.327 . S
C6673 C6677 1.429 . S
C6674 C6657 1.574 . S
C6674 H6668 0.949 . S
C6674 C6678 1.368 . S
C6675 C6656 1.429 . S
C6675 C6669 1.429 . S
C6675 C6676 1.523 . S
C6676 C6657 1.368 . S
C6676 C6670 1.368 . S
C6676 C6675 1.523 . S
C6677 C6661 1.429 . S
C6677 C6673 1.429 . S
C6677 C6678 1.523 . S
C6678 C6662 1.368 . S
C6678 C6674 1.368 . S
C6678 C6677 1.523 . S
H6679 C6654 0.950 . S
H6680 C6656 0.950 . S
H6681 C6657 0.949 . S
H6682 C6659 0.950 . S
H6683 C6661 0.950 . S
C6684 C6685 1.349 . S
C6684 C6686 1.327 . S
C6684 H6709 0.950 . S
C6685 C6684 1.349 . S
C6685 C6701 1.349 . S
C6686 C6684 1.327 . S
C6686 C6705 1.429 . S
C6686 H6710 0.950 . S
C6687 C6704 1.574 . S
C6687 C6706 1.368 . S
C6687 H6711 0.949 . S
H6688 C6692 0.949 . S
C6689 C6690 1.349 . S
C6689 C6691 1.327 . S
C6689 H6712 0.950 . S
C6690 C6689 1.349 . S
C6690 C6702 1.349 . S
C6691 C6689 1.327 . S
C6691 C6707 1.429 . S
C6691 H6713 0.950 . S
C6692 H6688 0.949 . S
C6692 C6700 1.574 . S
C6692 C6708 1.368 . S
H6693 C6701 0.950 . S
H6694 C6699 0.950 . S
H6695 C6700 0.949 . S
H6696 C6702 0.950 . S
H6697 C6703 0.950 . S
H6698 C6704 0.949 . S
C6699 H6694 0.950 . S
C6699 C6701 1.327 . S
C6699 C6705 1.429 . S
C6700 C6692 1.574 . S
C6700 H6695 0.949 . S
C6700 C6706 1.368 . S
C6701 C6685 1.349 . S
C6701 H6693 0.950 . S
C6701 C6699 1.327 . S
C6702 C6690 1.349 . S
C6702 H6696 0.950 . S
C6702 C6703 1.327 . S
C6703 H6697 0.950 . S
C6703 C6702 1.327 . S
C6703 C6707 1.429 . S
C6704 C6687 1.574 . S
C6704 H6698 0.949 . S
C6704 C6708 1.368 . S
C6705 C6686 1.429 . S
C6705 C6699 1.429 . S
C6705 C6706 1.523 . S
C6706 C6687 1.368 . S
C6706 C6700 1.368 . S
C6706 C6705 1.523 . S
C6707 C6691 1.429 . S
C6707 C6703 1.429 . S
C6707 C6708 1.523 . S
C6708 C6692 1.368 . S
C6708 C6704 1.368 . S
C6708 C6707 1.523 . S
H6709 C6684 0.950 . S
H6710 C6686 0.950 . S
H6711 C6687 0.949 . S
H6712 C6689 0.950 . S
H6713 C6691 0.950 . S
C6714 C6715 1.349 . S
C6714 C6716 1.327 . S
C6714 H6739 0.950 . S
C6715 C6714 1.349 . S
C6715 C6731 1.349 . S
C6716 C6714 1.327 . S
C6716 C6735 1.429 . S
C6716 H6740 0.950 . S
C6717 C6734 1.574 . S
C6717 C6736 1.368 . S
C6717 H6741 0.949 . S
H6718 C6722 0.949 . S
C6719 C6720 1.349 . S
C6719 C6721 1.327 . S
C6719 H6742 0.950 . S
C6720 C6719 1.349 . S
C6720 C6732 1.349 . S
C6721 C6719 1.327 . S
C6721 C6737 1.429 . S
C6721 H6743 0.950 . S
C6722 H6718 0.949 . S
C6722 C6730 1.574 . S
C6722 C6738 1.368 . S
H6723 C6731 0.950 . S
H6724 C6729 0.950 . S
H6725 C6730 0.949 . S
H6726 C6732 0.950 . S
H6727 C6733 0.950 . S
H6728 C6734 0.949 . S
C6729 H6724 0.950 . S
C6729 C6731 1.327 . S
C6729 C6735 1.429 . S
C6730 C6722 1.574 . S
C6730 H6725 0.949 . S
C6730 C6736 1.368 . S
C6731 C6715 1.349 . S
C6731 H6723 0.950 . S
C6731 C6729 1.327 . S
C6732 C6720 1.349 . S
C6732 H6726 0.950 . S
C6732 C6733 1.327 . S
C6733 H6727 0.950 . S
C6733 C6732 1.327 . S
C6733 C6737 1.429 . S
C6734 C6717 1.574 . S
C6734 H6728 0.949 . S
C6734 C6738 1.368 . S
C6735 C6716 1.429 . S
C6735 C6729 1.429 . S
C6735 C6736 1.523 . S
C6736 C6717 1.368 . S
C6736 C6730 1.368 . S
C6736 C6735 1.523 . S
C6737 C6721 1.429 . S
C6737 C6733 1.429 . S
C6737 C6738 1.523 . S
C6738 C6722 1.368 . S
C6738 C6734 1.368 . S
C6738 C6737 1.523 . S
H6739 C6714 0.950 . S
H6740 C6716 0.950 . S
H6741 C6717 0.949 . S
H6742 C6719 0.950 . S
H6743 C6721 0.950 . S
C6744 C6745 1.349 . S
C6744 C6746 1.327 . S
C6744 H6769 0.950 . S
C6745 C6744 1.349 . S
C6745 C6761 1.349 . S
C6746 C6744 1.327 . S
C6746 C6765 1.429 . S
C6746 H6770 0.950 . S
C6747 C6764 1.574 . S
C6747 C6766 1.368 . S
C6747 H6771 0.949 . S
H6748 C6752 0.949 . S
C6749 C6750 1.349 . S
C6749 C6751 1.327 . S
C6749 H6772 0.950 . S
C6750 C6749 1.349 . S
C6750 C6762 1.349 . S
C6751 C6749 1.327 . S
C6751 C6767 1.429 . S
C6751 H6773 0.950 . S
C6752 H6748 0.949 . S
C6752 C6760 1.574 . S
C6752 C6768 1.368 . S
H6753 C6761 0.950 . S
H6754 C6759 0.950 . S
H6755 C6760 0.949 . S
H6756 C6762 0.950 . S
H6757 C6763 0.950 . S
H6758 C6764 0.949 . S
C6759 H6754 0.950 . S
C6759 C6761 1.327 . S
C6759 C6765 1.429 . S
C6760 C6752 1.574 . S
C6760 H6755 0.949 . S
C6760 C6766 1.368 . S
C6761 C6745 1.349 . S
C6761 H6753 0.950 . S
C6761 C6759 1.327 . S
C6762 C6750 1.349 . S
C6762 H6756 0.950 . S
C6762 C6763 1.327 . S
C6763 H6757 0.950 . S
C6763 C6762 1.327 . S
C6763 C6767 1.429 . S
C6764 C6747 1.574 . S
C6764 H6758 0.949 . S
C6764 C6768 1.368 . S
C6765 C6746 1.429 . S
C6765 C6759 1.429 . S
C6765 C6766 1.523 . S
C6766 C6747 1.368 . S
C6766 C6760 1.368 . S
C6766 C6765 1.523 . S
C6767 C6751 1.429 . S
C6767 C6763 1.429 . S
C6767 C6768 1.523 . S
C6768 C6752 1.368 . S
C6768 C6764 1.368 . S
C6768 C6767 1.523 . S
H6769 C6744 0.950 . S
H6770 C6746 0.950 . S
H6771 C6747 0.949 . S
H6772 C6749 0.950 . S
H6773 C6751 0.950 . S
C6774 C6775 1.349 . S
C6774 C6776 1.327 . S
C6774 H6799 0.950 . S
C6775 C6774 1.349 . S
C6775 C6791 1.349 . S
C6776 C6774 1.327 . S
C6776 C6795 1.429 . S
C6776 H6800 0.950 . S
C6777 C6794 1.574 . S
C6777 C6796 1.368 . S
C6777 H6801 0.949 . S
H6778 C6782 0.949 . S
C6779 C6780 1.349 . S
C6779 C6781 1.327 . S
C6779 H6802 0.950 . S
C6780 C6779 1.349 . S
C6780 C6792 1.349 . S
C6781 C6779 1.327 . S
C6781 C6797 1.429 . S
C6781 H6803 0.950 . S
C6782 H6778 0.949 . S
C6782 C6790 1.574 . S
C6782 C6798 1.368 . S
H6783 C6791 0.950 . S
H6784 C6789 0.950 . S
H6785 C6790 0.949 . S
H6786 C6792 0.950 . S
H6787 C6793 0.950 . S
H6788 C6794 0.949 . S
C6789 H6784 0.950 . S
C6789 C6791 1.327 . S
C6789 C6795 1.429 . S
C6790 C6782 1.574 . S
C6790 H6785 0.949 . S
C6790 C6796 1.368 . S
C6791 C6775 1.349 . S
C6791 H6783 0.950 . S
C6791 C6789 1.327 . S
C6792 C6780 1.349 . S
C6792 H6786 0.950 . S
C6792 C6793 1.327 . S
C6793 H6787 0.950 . S
C6793 C6792 1.327 . S
C6793 C6797 1.429 . S
C6794 C6777 1.574 . S
C6794 H6788 0.949 . S
C6794 C6798 1.368 . S
C6795 C6776 1.429 . S
C6795 C6789 1.429 . S
C6795 C6796 1.523 . S
C6796 C6777 1.368 . S
C6796 C6790 1.368 . S
C6796 C6795 1.523 . S
C6797 C6781 1.429 . S
C6797 C6793 1.429 . S
C6797 C6798 1.523 . S
C6798 C6782 1.368 . S
C6798 C6794 1.368 . S
C6798 C6797 1.523 . S
H6799 C6774 0.950 . S
H6800 C6776 0.950 . S
H6801 C6777 0.949 . S
H6802 C6779 0.950 . S
H6803 C6781 0.950 . S
C6804 C6805 1.349 . S
C6804 C6806 1.327 . S
C6804 H6829 0.950 . S
C6805 C6804 1.349 . S
C6805 C6821 1.349 . S
C6806 C6804 1.327 . S
C6806 C6825 1.429 . S
C6806 H6830 0.950 . S
C6807 C6824 1.574 . S
C6807 C6826 1.368 . S
C6807 H6831 0.949 . S
H6808 C6812 0.949 . S
C6809 C6810 1.349 . S
C6809 C6811 1.327 . S
C6809 H6832 0.950 . S
C6810 C6809 1.349 . S
C6810 C6822 1.349 . S
C6811 C6809 1.327 . S
C6811 C6827 1.429 . S
C6811 H6833 0.950 . S
C6812 H6808 0.949 . S
C6812 C6820 1.574 . S
C6812 C6828 1.368 . S
H6813 C6821 0.950 . S
H6814 C6819 0.950 . S
H6815 C6820 0.949 . S
H6816 C6822 0.950 . S
H6817 C6823 0.950 . S
H6818 C6824 0.949 . S
C6819 H6814 0.950 . S
C6819 C6821 1.327 . S
C6819 C6825 1.429 . S
C6820 C6812 1.574 . S
C6820 H6815 0.949 . S
C6820 C6826 1.368 . S
C6821 C6805 1.349 . S
C6821 H6813 0.950 . S
C6821 C6819 1.327 . S
C6822 C6810 1.349 . S
C6822 H6816 0.950 . S
C6822 C6823 1.327 . S
C6823 H6817 0.950 . S
C6823 C6822 1.327 . S
C6823 C6827 1.429 . S
C6824 C6807 1.574 . S
C6824 H6818 0.949 . S
C6824 C6828 1.368 . S
C6825 C6806 1.429 . S
C6825 C6819 1.429 . S
C6825 C6826 1.523 . S
C6826 C6807 1.368 . S
C6826 C6820 1.368 . S
C6826 C6825 1.523 . S
C6827 C6811 1.429 . S
C6827 C6823 1.429 . S
C6827 C6828 1.523 . S
C6828 C6812 1.368 . S
C6828 C6824 1.368 . S
C6828 C6827 1.523 . S
H6829 C6804 0.950 . S
H6830 C6806 0.950 . S
H6831 C6807 0.949 . S
H6832 C6809 0.950 . S
H6833 C6811 0.950 . S
C6834 C6835 1.349 . S
C6834 C6836 1.327 . S
C6834 H6859 0.950 . S
C6835 C6834 1.349 . S
C6835 C6851 1.349 . S
C6836 C6834 1.327 . S
C6836 C6855 1.429 . S
C6836 H6860 0.950 . S
C6837 C6854 1.574 . S
C6837 C6856 1.368 . S
C6837 H6861 0.949 . S
H6838 C6842 0.949 . S
C6839 C6840 1.349 . S
C6839 C6841 1.327 . S
C6839 H6862 0.950 . S
C6840 C6839 1.349 . S
C6840 C6852 1.349 . S
C6841 C6839 1.327 . S
C6841 C6857 1.429 . S
C6841 H6863 0.950 . S
C6842 H6838 0.949 . S
C6842 C6850 1.574 . S
C6842 C6858 1.368 . S
H6843 C6851 0.950 . S
H6844 C6849 0.950 . S
H6845 C6850 0.949 . S
H6846 C6852 0.950 . S
H6847 C6853 0.950 . S
H6848 C6854 0.949 . S
C6849 H6844 0.950 . S
C6849 C6851 1.327 . S
C6849 C6855 1.429 . S
C6850 C6842 1.574 . S
C6850 H6845 0.949 . S
C6850 C6856 1.368 . S
C6851 C6835 1.349 . S
C6851 H6843 0.950 . S
C6851 C6849 1.327 . S
C6852 C6840 1.349 . S
C6852 H6846 0.950 . S
C6852 C6853 1.327 . S
C6853 H6847 0.950 . S
C6853 C6852 1.327 . S
C6853 C6857 1.429 . S
C6854 C6837 1.574 . S
C6854 H6848 0.949 . S
C6854 C6858 1.368 . S
C6855 C6836 1.429 . S
C6855 C6849 1.429 . S
C6855 C6856 1.523 . S
C6856 C6837 1.368 . S
C6856 C6850 1.368 . S
C6856 C6855 1.523 . S
C6857 C6841 1.429 . S
C6857 C6853 1.429 . S
C6857 C6858 1.523 . S
C6858 C6842 1.368 . S
C6858 C6854 1.368 . S
C6858 C6857 1.523 . S
H6859 C6834 0.950 . S
H6860 C6836 0.950 . S
H6861 C6837 0.949 . S
H6862 C6839 0.950 . S
H6863 C6841 0.950 . S
C6864 C6865 1.349 . S
C6864 C6866 1.327 . S
C6864 H6889 0.950 . S
C6865 C6864 1.349 . S
C6865 C6881 1.349 . S
C6866 C6864 1.327 . S
C6866 C6885 1.429 . S
C6866 H6890 0.950 . S
C6867 C6884 1.574 . S
C6867 C6886 1.368 . S
C6867 H6891 0.949 . S
H6868 C6872 0.949 . S
C6869 C6870 1.349 . S
C6869 C6871 1.327 . S
C6869 H6892 0.950 . S
C6870 C6869 1.349 . S
C6870 C6882 1.349 . S
C6871 C6869 1.327 . S
C6871 C6887 1.429 . S
C6871 H6893 0.950 . S
C6872 H6868 0.949 . S
C6872 C6880 1.574 . S
C6872 C6888 1.368 . S
H6873 C6881 0.950 . S
H6874 C6879 0.950 . S
H6875 C6880 0.949 . S
H6876 C6882 0.950 . S
H6877 C6883 0.950 . S
H6878 C6884 0.949 . S
C6879 H6874 0.950 . S
C6879 C6881 1.327 . S
C6879 C6885 1.429 . S
C6880 C6872 1.574 . S
C6880 H6875 0.949 . S
C6880 C6886 1.368 . S
C6881 C6865 1.349 . S
C6881 H6873 0.950 . S
C6881 C6879 1.327 . S
C6882 C6870 1.349 . S
C6882 H6876 0.950 . S
C6882 C6883 1.327 . S
C6883 H6877 0.950 . S
C6883 C6882 1.327 . S
C6883 C6887 1.429 . S
C6884 C6867 1.574 . S
C6884 H6878 0.949 . S
C6884 C6888 1.368 . S
C6885 C6866 1.429 . S
C6885 C6879 1.429 . S
C6885 C6886 1.523 . S
C6886 C6867 1.368 . S
C6886 C6880 1.368 . S
C6886 C6885 1.523 . S
C6887 C6871 1.429 . S
C6887 C6883 1.429 . S
C6887 C6888 1.523 . S
C6888 C6872 1.368 . S
C6888 C6884 1.368 . S
C6888 C6887 1.523 . S
H6889 C6864 0.950 . S
H6890 C6866 0.950 . S
H6891 C6867 0.949 . S
H6892 C6869 0.950 . S
H6893 C6871 0.950 . S
C6894 C6895 1.349 . S
C6894 C6896 1.327 . S
C6894 H6919 0.950 . S
C6895 C6894 1.349 . S
C6895 C6911 1.349 . S
C6896 C6894 1.327 . S
C6896 C6915 1.429 . S
C6896 H6920 0.950 . S
C6897 C6914 1.574 . S
C6897 C6916 1.368 . S
C6897 H6921 0.949 . S
H6898 C6902 0.949 . S
C6899 C6900 1.349 . S
C6899 C6901 1.327 . S
C6899 H6922 0.950 . S
C6900 C6899 1.349 . S
C6900 C6912 1.349 . S
C6901 C6899 1.327 . S
C6901 C6917 1.429 . S
C6901 H6923 0.950 . S
C6902 H6898 0.949 . S
C6902 C6910 1.574 . S
C6902 C6918 1.368 . S
H6903 C6911 0.950 . S
H6904 C6909 0.950 . S
H6905 C6910 0.949 . S
H6906 C6912 0.950 . S
H6907 C6913 0.950 . S
H6908 C6914 0.949 . S
C6909 H6904 0.950 . S
C6909 C6911 1.327 . S
C6909 C6915 1.429 . S
C6910 C6902 1.574 . S
C6910 H6905 0.949 . S
C6910 C6916 1.368 . S
C6911 C6895 1.349 . S
C6911 H6903 0.950 . S
C6911 C6909 1.327 . S
C6912 C6900 1.349 . S
C6912 H6906 0.950 . S
C6912 C6913 1.327 . S
C6913 H6907 0.950 . S
C6913 C6912 1.327 . S
C6913 C6917 1.429 . S
C6914 C6897 1.574 . S
C6914 H6908 0.949 . S
C6914 C6918 1.368 . S
C6915 C6896 1.429 . S
C6915 C6909 1.429 . S
C6915 C6916 1.523 . S
C6916 C6897 1.368 . S
C6916 C6910 1.368 . S
C6916 C6915 1.523 . S
C6917 C6901 1.429 . S
C6917 C6913 1.429 . S
C6917 C6918 1.523 . S
C6918 C6902 1.368 . S
C6918 C6914 1.368 . S
C6918 C6917 1.523 . S
H6919 C6894 0.950 . S
H6920 C6896 0.950 . S
H6921 C6897 0.949 . S
H6922 C6899 0.950 . S
H6923 C6901 0.950 . S
C6924 C6925 1.349 . S
C6924 C6926 1.327 . S
C6924 H6949 0.950 . S
C6925 C6924 1.349 . S
C6925 C6941 1.349 . S
C6926 C6924 1.327 . S
C6926 C6945 1.429 . S
C6926 H6950 0.950 . S
C6927 C6944 1.574 . S
C6927 C6946 1.368 . S
C6927 H6951 0.949 . S
H6928 C6932 0.949 . S
C6929 C6930 1.349 . S
C6929 C6931 1.327 . S
C6929 H6952 0.950 . S
C6930 C6929 1.349 . S
C6930 C6942 1.349 . S
C6931 C6929 1.327 . S
C6931 C6947 1.429 . S
C6931 H6953 0.950 . S
C6932 H6928 0.949 . S
C6932 C6940 1.574 . S
C6932 C6948 1.368 . S
H6933 C6941 0.950 . S
H6934 C6939 0.950 . S
H6935 C6940 0.949 . S
H6936 C6942 0.950 . S
H6937 C6943 0.950 . S
H6938 C6944 0.949 . S
C6939 H6934 0.950 . S
C6939 C6941 1.327 . S
C6939 C6945 1.429 . S
C6940 C6932 1.574 . S
C6940 H6935 0.949 . S
C6940 C6946 1.368 . S
C6941 C6925 1.349 . S
C6941 H6933 0.950 . S
C6941 C6939 1.327 . S
C6942 C6930 1.349 . S
C6942 H6936 0.950 . S
C6942 C6943 1.327 . S
C6943 H6937 0.950 . S
C6943 C6942 1.327 . S
C6943 C6947 1.429 . S
C6944 C6927 1.574 . S
C6944 H6938 0.949 . S
C6944 C6948 1.368 . S
C6945 C6926 1.429 . S
C6945 C6939 1.429 . S
C6945 C6946 1.523 . S
C6946 C6927 1.368 . S
C6946 C6940 1.368 . S
C6946 C6945 1.523 . S
C6947 C6931 1.429 . S
C6947 C6943 1.429 . S
C6947 C6948 1.523 . S
C6948 C6932 1.368 . S
C6948 C6944 1.368 . S
C6948 C6947 1.523 . S
H6949 C6924 0.950 . S
H6950 C6926 0.950 . S
H6951 C6927 0.949 . S
H6952 C6929 0.950 . S
H6953 C6931 0.950 . S
C6954 C6955 1.349 . S
C6954 C6956 1.327 . S
C6954 H6979 0.950 . S
C6955 C6954 1.349 . S
C6955 C6971 1.349 . S
C6956 C6954 1.327 . S
C6956 C6975 1.429 . S
C6956 H6980 0.950 . S
C6957 C6974 1.574 . S
C6957 C6976 1.368 . S
C6957 H6981 0.949 . S
H6958 C6962 0.949 . S
C6959 C6960 1.349 . S
C6959 C6961 1.327 . S
C6959 H6982 0.950 . S
C6960 C6959 1.349 . S
C6960 C6972 1.349 . S
C6961 C6959 1.327 . S
C6961 C6977 1.429 . S
C6961 H6983 0.950 . S
C6962 H6958 0.949 . S
C6962 C6970 1.574 . S
C6962 C6978 1.368 . S
H6963 C6971 0.950 . S
H6964 C6969 0.950 . S
H6965 C6970 0.949 . S
H6966 C6972 0.950 . S
H6967 C6973 0.950 . S
H6968 C6974 0.949 . S
C6969 H6964 0.950 . S
C6969 C6971 1.327 . S
C6969 C6975 1.429 . S
C6970 C6962 1.574 . S
C6970 H6965 0.949 . S
C6970 C6976 1.368 . S
C6971 C6955 1.349 . S
C6971 H6963 0.950 . S
C6971 C6969 1.327 . S
C6972 C6960 1.349 . S
C6972 H6966 0.950 . S
C6972 C6973 1.327 . S
C6973 H6967 0.950 . S
C6973 C6972 1.327 . S
C6973 C6977 1.429 . S
C6974 C6957 1.574 . S
C6974 H6968 0.949 . S
C6974 C6978 1.368 . S
C6975 C6956 1.429 . S
C6975 C6969 1.429 . S
C6975 C6976 1.523 . S
C6976 C6957 1.368 . S
C6976 C6970 1.368 . S
C6976 C6975 1.523 . S
C6977 C6961 1.429 . S
C6977 C6973 1.429 . S
C6977 C6978 1.523 . S
C6978 C6962 1.368 . S
C6978 C6974 1.368 . S
C6978 C6977 1.523 . S
H6979 C6954 0.950 . S
H6980 C6956 0.950 . S
H6981 C6957 0.949 . S
H6982 C6959 0.950 . S
H6983 C6961 0.950 . S
C6984 C6985 1.349 . S
C6984 C6986 1.327 . S
C6984 H7009 0.950 . S
C6985 C6984 1.349 . S
C6985 C7001 1.349 . S
C6986 C6984 1.327 . S
C6986 C7005 1.429 . S
C6986 H7010 0.950 . S
C6987 C7004 1.574 . S
C6987 C7006 1.368 . S
C6987 H7011 0.949 . S
H6988 C6992 0.949 . S
C6989 C6990 1.349 . S
C6989 C6991 1.327 . S
C6989 H7012 0.950 . S
C6990 C6989 1.349 . S
C6990 C7002 1.349 . S
C6991 C6989 1.327 . S
C6991 C7007 1.429 . S
C6991 H7013 0.950 . S
C6992 H6988 0.949 . S
C6992 C7000 1.574 . S
C6992 C7008 1.368 . S
H6993 C7001 0.950 . S
H6994 C6999 0.950 . S
H6995 C7000 0.949 . S
H6996 C7002 0.950 . S
H6997 C7003 0.950 . S
H6998 C7004 0.949 . S
C6999 H6994 0.950 . S
C6999 C7001 1.327 . S
C6999 C7005 1.429 . S
C7000 C6992 1.574 . S
C7000 H6995 0.949 . S
C7000 C7006 1.368 . S
C7001 C6985 1.349 . S
C7001 H6993 0.950 . S
C7001 C6999 1.327 . S
C7002 C6990 1.349 . S
C7002 H6996 0.950 . S
C7002 C7003 1.327 . S
C7003 H6997 0.950 . S
C7003 C7002 1.327 . S
C7003 C7007 1.429 . S
C7004 C6987 1.574 . S
C7004 H6998 0.949 . S
C7004 C7008 1.368 . S
C7005 C6986 1.429 . S
C7005 C6999 1.429 . S
C7005 C7006 1.523 . S
C7006 C6987 1.368 . S
C7006 C7000 1.368 . S
C7006 C7005 1.523 . S
C7007 C6991 1.429 . S
C7007 C7003 1.429 . S
C7007 C7008 1.523 . S
C7008 C6992 1.368 . S
C7008 C7004 1.368 . S
C7008 C7007 1.523 . S
H7009 C6984 0.950 . S
H7010 C6986 0.950 . S
H7011 C6987 0.949 . S
H7012 C6989 0.950 . S
H7013 C6991 0.950 . S
C7014 C7015 1.349 . S
C7014 C7016 1.327 . S
C7014 H7039 0.950 . S
C7015 C7014 1.349 . S
C7015 C7031 1.349 . S
C7016 C7014 1.327 . S
C7016 C7035 1.429 . S
C7016 H7040 0.950 . S
C7017 C7034 1.574 . S
C7017 C7036 1.368 . S
C7017 H7041 0.949 . S
H7018 C7022 0.949 . S
C7019 C7020 1.349 . S
C7019 C7021 1.327 . S
C7019 H7042 0.950 . S
C7020 C7019 1.349 . S
C7020 C7032 1.349 . S
C7021 C7019 1.327 . S
C7021 C7037 1.429 . S
C7021 H7043 0.950 . S
C7022 H7018 0.949 . S
C7022 C7030 1.574 . S
C7022 C7038 1.368 . S
H7023 C7031 0.950 . S
H7024 C7029 0.950 . S
H7025 C7030 0.949 . S
H7026 C7032 0.950 . S
H7027 C7033 0.950 . S
H7028 C7034 0.949 . S
C7029 H7024 0.950 . S
C7029 C7031 1.327 . S
C7029 C7035 1.429 . S
C7030 C7022 1.574 . S
C7030 H7025 0.949 . S
C7030 C7036 1.368 . S
C7031 C7015 1.349 . S
C7031 H7023 0.950 . S
C7031 C7029 1.327 . S
C7032 C7020 1.349 . S
C7032 H7026 0.950 . S
C7032 C7033 1.327 . S
C7033 H7027 0.950 . S
C7033 C7032 1.327 . S
C7033 C7037 1.429 . S
C7034 C7017 1.574 . S
C7034 H7028 0.949 . S
C7034 C7038 1.368 . S
C7035 C7016 1.429 . S
C7035 C7029 1.429 . S
C7035 C7036 1.523 . S
C7036 C7017 1.368 . S
C7036 C7030 1.368 . S
C7036 C7035 1.523 . S
C7037 C7021 1.429 . S
C7037 C7033 1.429 . S
C7037 C7038 1.523 . S
C7038 C7022 1.368 . S
C7038 C7034 1.368 . S
C7038 C7037 1.523 . S
H7039 C7014 0.950 . S
H7040 C7016 0.950 . S
H7041 C7017 0.949 . S
H7042 C7019 0.950 . S
H7043 C7021 0.950 . S
C7044 C7045 1.349 . S
C7044 C7046 1.327 . S
C7044 H7069 0.950 . S
C7045 C7044 1.349 . S
C7045 C7061 1.349 . S
C7046 C7044 1.327 . S
C7046 C7065 1.429 . S
C7046 H7070 0.950 . S
C7047 C7064 1.574 . S
C7047 C7066 1.368 . S
C7047 H7071 0.949 . S
H7048 C7052 0.949 . S
C7049 C7050 1.349 . S
C7049 C7051 1.327 . S
C7049 H7072 0.950 . S
C7050 C7049 1.349 . S
C7050 C7062 1.349 . S
C7051 C7049 1.327 . S
C7051 C7067 1.429 . S
C7051 H7073 0.950 . S
C7052 H7048 0.949 . S
C7052 C7060 1.574 . S
C7052 C7068 1.368 . S
H7053 C7061 0.950 . S
H7054 C7059 0.950 . S
H7055 C7060 0.949 . S
H7056 C7062 0.950 . S
H7057 C7063 0.950 . S
H7058 C7064 0.949 . S
C7059 H7054 0.950 . S
C7059 C7061 1.327 . S
C7059 C7065 1.429 . S
C7060 C7052 1.574 . S
C7060 H7055 0.949 . S
C7060 C7066 1.368 . S
C7061 C7045 1.349 . S
C7061 H7053 0.950 . S
C7061 C7059 1.327 . S
C7062 C7050 1.349 . S
C7062 H7056 0.950 . S
C7062 C7063 1.327 . S
C7063 H7057 0.950 . S
C7063 C7062 1.327 . S
C7063 C7067 1.429 . S
C7064 C7047 1.574 . S
C7064 H7058 0.949 . S
C7064 C7068 1.368 . S
C7065 C7046 1.429 . S
C7065 C7059 1.429 . S
C7065 C7066 1.523 . S
C7066 C7047 1.368 . S
C7066 C7060 1.368 . S
C7066 C7065 1.523 . S
C7067 C7051 1.429 . S
C7067 C7063 1.429 . S
C7067 C7068 1.523 . S
C7068 C7052 1.368 . S
C7068 C7064 1.368 . S
C7068 C7067 1.523 . S
H7069 C7044 0.950 . S
H7070 C7046 0.950 . S
H7071 C7047 0.949 . S
H7072 C7049 0.950 . S
H7073 C7051 0.950 . S
C7074 C7075 1.349 . S
C7074 C7076 1.327 . S
C7074 H7099 0.950 . S
C7075 C7074 1.349 . S
C7075 C7091 1.349 . S
C7076 C7074 1.327 . S
C7076 C7095 1.429 . S
C7076 H7100 0.950 . S
C7077 C7094 1.574 . S
C7077 C7096 1.368 . S
C7077 H7101 0.949 . S
H7078 C7082 0.949 . S
C7079 C7080 1.349 . S
C7079 C7081 1.327 . S
C7079 H7102 0.950 . S
C7080 C7079 1.349 . S
C7080 C7092 1.349 . S
C7081 C7079 1.327 . S
C7081 C7097 1.429 . S
C7081 H7103 0.950 . S
C7082 H7078 0.949 . S
C7082 C7090 1.574 . S
C7082 C7098 1.368 . S
H7083 C7091 0.950 . S
H7084 C7089 0.950 . S
H7085 C7090 0.949 . S
H7086 C7092 0.950 . S
H7087 C7093 0.950 . S
H7088 C7094 0.949 . S
C7089 H7084 0.950 . S
C7089 C7091 1.327 . S
C7089 C7095 1.429 . S
C7090 C7082 1.574 . S
C7090 H7085 0.949 . S
C7090 C7096 1.368 . S
C7091 C7075 1.349 . S
C7091 H7083 0.950 . S
C7091 C7089 1.327 . S
C7092 C7080 1.349 . S
C7092 H7086 0.950 . S
C7092 C7093 1.327 . S
C7093 H7087 0.950 . S
C7093 C7092 1.327 . S
C7093 C7097 1.429 . S
C7094 C7077 1.574 . S
C7094 H7088 0.949 . S
C7094 C7098 1.368 . S
C7095 C7076 1.429 . S
C7095 C7089 1.429 . S
C7095 C7096 1.523 . S
C7096 C7077 1.368 . S
C7096 C7090 1.368 . S
C7096 C7095 1.523 . S
C7097 C7081 1.429 . S
C7097 C7093 1.429 . S
C7097 C7098 1.523 . S
C7098 C7082 1.368 . S
C7098 C7094 1.368 . S
C7098 C7097 1.523 . S
H7099 C7074 0.950 . S
H7100 C7076 0.950 . S
H7101 C7077 0.949 . S
H7102 C7079 0.950 . S
H7103 C7081 0.950 . S
C1345 C5 1.688 . S
C1350 C957 1.688 . S
C1375 C915 1.688 . S
C1380 C19 1.688 . S
C1405 C929 1.688 . S
C1410 C33 1.688 . S
C1435 C47 1.688 . S
C1440 C943 1.688 . S
C1465 C999 1.688 . S
C1470 C61 1.688 . S
C1495 C971 1.688 . S
C1500 C75 1.688 . S
C1525 C985 1.688 . S
C1530 C89 1.688 . S
C1555 C103 1.688 . S
C1560 C901 1.688 . S
C1585 C117 1.688 . S
C1590 C887 1.688 . S
C1615 C131 1.688 . S
C1620 C845 1.688 . S
C1645 C145 1.688 . S
C1650 C859 1.688 . S
C1675 C159 1.688 . S
C1680 C873 1.688 . S
C1705 C173 1.688 . S
C1710 C803 1.688 . S
C1735 C817 1.688 . S
C1740 C187 1.688 . S
C1765 C831 1.688 . S
C1770 C201 1.688 . S
C1795 C215 1.688 . S
C1800 C789 1.688 . S
C1825 C229 1.688 . S
C1830 C775 1.688 . S
C1855 C243 1.688 . S
C1860 C691 1.688 . S
C1885 C705 1.688 . S
C1890 C257 1.688 . S
C1915 C719 1.688 . S
C1920 C271 1.688 . S
C1945 C677 1.688 . S
C1950 C285 1.688 . S
C1975 C299 1.688 . S
C1980 C747 1.688 . S
C2005 C313 1.688 . S
C2010 C761 1.688 . S
C2035 C327 1.688 . S
C2040 C733 1.688 . S
C2065 C341 1.688 . S
C2070 C1293 1.688 . S
C2095 C355 1.688 . S
C2100 C1251 1.688 . S
C2125 C369 1.688 . S
C2130 C1265 1.688 . S
C2155 C383 1.688 . S
C2160 C1279 1.688 . S
C2185 C397 1.688 . S
C2190 C1335 1.688 . S
C2215 C411 1.688 . S
C2220 C1307 1.688 . S
C2245 C1321 1.688 . S
C2250 C425 1.688 . S
C2275 C439 1.688 . S
C2280 C1237 1.688 . S
C2305 C453 1.688 . S
C2310 C1223 1.688 . S
C2335 C1181 1.688 . S
C2340 C467 1.688 . S
C2365 C481 1.688 . S
C2370 C1195 1.688 . S
C2395 C495 1.688 . S
C2400 C1209 1.688 . S
C2425 C509 1.688 . S
C2430 C1139 1.688 . S
C2455 C523 1.688 . S
C2460 C1153 1.688 . S
C2485 C537 1.688 . S
C2490 C1167 1.688 . S
C2515 C1125 1.688 . S
C2520 C551 1.688 . S
C2545 C565 1.688 . S
C2550 C1111 1.688 . S
C2575 C579 1.688 . S
C2580 C1027 1.688 . S
C2605 C593 1.688 . S
C2610 C1041 1.688 . S
C2635 C1055 1.688 . S
C2640 C607 1.688 . S
C2665 C621 1.688 . S
C2670 C1013 1.688 . S
C2695 C1083 1.688 . S
C2700 C635 1.688 . S
C2725 C649 1.688 . S
C2730 C1097 1.688 . S
C2755 C663 1.688 . S
C2760 C1069 1.688 . S
C2785 C9 1.518 . S
C2790 C555 1.518 . S
C2815 C23 1.518 . S
C2820 C513 1.518 . S
C2845 C527 1.518 . S
C2850 C37 1.518 . S
C2875 C51 1.518 . S
C2880 C541 1.518 . S
C2905 C471 1.518 . S
C2910 C65 1.518 . S
C2935 C485 1.518 . S
C2940 C79 1.518 . S
C2965 C499 1.518 . S
C2970 C93 1.518 . S
C2995 C457 1.518 . S
C3000 C107 1.518 . S
C3025 C443 1.518 . S
C3030 C121 1.518 . S
C3055 C135 1.518 . S
C3060 C401 1.518 . S
C3085 C415 1.518 . S
C3090 C149 1.518 . S
C3115 C163 1.518 . S
C3120 C429 1.518 . S
C3145 C359 1.518 . S
C3150 C177 1.518 . S
C3175 C373 1.518 . S
C3180 C191 1.518 . S
C3205 C205 1.518 . S
C3210 C387 1.518 . S
C3235 C219 1.518 . S
C3240 C345 1.518 . S
C3265 C233 1.518 . S
C3270 C625 1.518 . S
C3295 C247 1.518 . S
C3300 C667 1.518 . S
C3325 C639 1.518 . S
C3330 C261 1.518 . S
C3355 C653 1.518 . S
C3360 C275 1.518 . S
C3385 C289 1.518 . S
C3390 C569 1.518 . S
C3415 C303 1.518 . S
C3420 C597 1.518 . S
C3445 C611 1.518 . S
C3450 C317 1.518 . S
C3475 C331 1.518 . S
C3480 C583 1.518 . S
C3505 C1227 1.518 . S
C3510 C681 1.518 . S
C3535 C1185 1.518 . S
C3540 C695 1.518 . S
C3565 C1199 1.518 . S
C3570 C709 1.518 . S
C3595 C723 1.518 . S
C3600 C1213 1.518 . S
C3625 C1143 1.518 . S
C3630 C737 1.518 . S
C3655 C1157 1.518 . S
C3660 C751 1.518 . S
C3685 C765 1.518 . S
C3690 C1171 1.518 . S
C3715 C779 1.518 . S
C3720 C1129 1.518 . S
C3745 C1115 1.518 . S
C3750 C793 1.518 . S
C3775 C807 1.518 . S
C3780 C1073 1.518 . S
C3805 C1087 1.518 . S
C3810 C821 1.518 . S
C3835 C1101 1.518 . S
C3840 C835 1.518 . S
C3865 C849 1.518 . S
C3870 C1031 1.518 . S
C3895 C863 1.518 . S
C3900 C1045 1.518 . S
C3925 C1059 1.518 . S
C3930 C877 1.518 . S
C3955 C891 1.518 . S
C3960 C1017 1.518 . S
C3985 C1297 1.518 . S
C3990 C905 1.518 . S
C4015 C1339 1.518 . S
C4020 C919 1.518 . S
C4045 C933 1.518 . S
C4050 C1311 1.518 . S
C4075 C1325 1.518 . S
C4080 C947 1.518 . S
C4105 C1241 1.518 . S
C4110 C961 1.518 . S
C4135 C1269 1.518 . S
C4140 C975 1.518 . S
C4165 C989 1.518 . S
C4170 C1283 1.518 . S
C4195 C1255 1.518 . S
C4200 C1003 1.518 . S
C4225 C11 1.108 . S
C4230 C403 1.108 . S
C4255 C417 1.108 . S
C4260 C25 1.108 . S
C4285 C39 1.108 . S
C4290 C431 1.108 . S
C4315 C445 1.108 . S
C4320 C53 1.108 . S
C4345 C67 1.108 . S
C4350 C347 1.108 . S
C4375 C81 1.108 . S
C4380 C361 1.108 . S
C4405 C95 1.108 . S
C4410 C375 1.108 . S
C4435 C389 1.108 . S
C4440 C109 1.108 . S
C4465 C543 1.108 . S
C4470 C123 1.108 . S
C4495 C137 1.108 . S
C4500 C557 1.108 . S
C4525 C151 1.108 . S
C4530 C515 1.108 . S
C4555 C165 1.108 . S
C4560 C529 1.108 . S
C4585 C179 1.108 . S
C4590 C487 1.108 . S
C4615 C193 1.108 . S
C4620 C501 1.108 . S
C4645 C207 1.108 . S
C4650 C459 1.108 . S
C4675 C221 1.108 . S
C4680 C473 1.108 . S
C4705 C235 1.108 . S
C4710 C641 1.108 . S
C4735 C249 1.108 . S
C4740 C613 1.108 . S
C4765 C627 1.108 . S
C4770 C263 1.108 . S
C4795 C277 1.108 . S
C4800 C585 1.108 . S
C4825 C599 1.108 . S
C4830 C291 1.108 . S
C4855 C305 1.108 . S
C4860 C571 1.108 . S
C4885 C319 1.108 . S
C4890 C669 1.108 . S
C4915 C655 1.108 . S
C4920 C333 1.108 . S
C4945 C1075 1.108 . S
C4950 C683 1.108 . S
C4975 C697 1.108 . S
C4980 C1089 1.108 . S
C5005 C1103 1.108 . S
C5010 C711 1.108 . S
C5035 C725 1.108 . S
C5040 C1117 1.108 . S
C5065 C1019 1.108 . S
C5070 C739 1.108 . S
C5095 C1033 1.108 . S
C5100 C753 1.108 . S
C5125 C1047 1.108 . S
C5130 C767 1.108 . S
C5155 C781 1.108 . S
C5160 C1061 1.108 . S
C5185 C795 1.108 . S
C5190 C1215 1.108 . S
C5215 C1229 1.108 . S
C5220 C809 1.108 . S
C5245 C1187 1.108 . S
C5250 C823 1.108 . S
C5275 C1201 1.108 . S
C5280 C837 1.108 . S
C5305 C851 1.108 . S
C5310 C1159 1.108 . S
C5335 C865 1.108 . S
C5340 C1173 1.108 . S
C5365 C1131 1.108 . S
C5370 C879 1.108 . S
C5395 C1145 1.108 . S
C5400 C893 1.108 . S
C5425 C1313 1.108 . S
C5430 C907 1.108 . S
C5455 C921 1.108 . S
C5460 C1285 1.108 . S
C5485 C1299 1.108 . S
C5490 C935 1.108 . S
C5515 C949 1.108 . S
C5520 C1257 1.108 . S
C5545 C963 1.108 . S
C5550 C1271 1.108 . S
C5575 C977 1.108 . S
C5580 C1243 1.108 . S
C5605 C1341 1.108 . S
C5610 C991 1.108 . S
C5635 C1005 1.108 . S
C5640 C1327 1.108 . S
C5665 C434 1.171 . S
C5670 C0 1.171 . S
C5695 C392 1.171 . S
C5700 C14 1.171 . S
C5725 C28 1.171 . S
C5730 C406 1.171 . S
C5755 C420 1.171 . S
C5760 C42 1.171 . S
C5785 C350 1.171 . S
C5790 C56 1.171 . S
C5815 C70 1.171 . S
C5820 C364 1.171 . S
C5845 C84 1.171 . S
C5850 C378 1.171 . S
C5875 C336 1.171 . S
C5880 C98 1.171 . S
C5905 C616 1.171 . S
C5910 C112 1.171 . S
C5935 C126 1.171 . S
C5940 C574 1.171 . S
C5965 C140 1.171 . S
C5970 C588 1.171 . S
C5995 C602 1.171 . S
C6000 C154 1.171 . S
C6025 C168 1.171 . S
C6030 C658 1.171 . S
C6055 C630 1.171 . S
C6060 C182 1.171 . S
C6085 C644 1.171 . S
C6090 C196 1.171 . S
C6115 C210 1.171 . S
C6120 C560 1.171 . S
C6145 C224 1.171 . S
C6150 C546 1.171 . S
C6175 C238 1.171 . S
C6180 C462 1.171 . S
C6205 C252 1.171 . S
C6210 C476 1.171 . S
C6235 C490 1.171 . S
C6240 C266 1.171 . S
C6265 C448 1.171 . S
C6270 C280 1.171 . S
C6295 C294 1.171 . S
C6300 C518 1.171 . S
C6325 C308 1.171 . S
C6330 C532 1.171 . S
C6355 C322 1.171 . S
C6360 C504 1.171 . S
C6385 C672 1.171 . S
C6390 C1106 1.171 . S
C6415 C686 1.171 . S
C6420 C1064 1.171 . S
C6445 C700 1.171 . S
C6450 C1078 1.171 . S
C6475 C1092 1.171 . S
C6480 C714 1.171 . S
C6505 C1022 1.171 . S
C6510 C728 1.171 . S
C6535 C1036 1.171 . S
C6540 C742 1.171 . S
C6565 C756 1.171 . S
C6570 C1050 1.171 . S
C6595 C1008 1.171 . S
C6600 C770 1.171 . S
C6625 C1288 1.171 . S
C6630 C784 1.171 . S
C6655 C1246 1.171 . S
C6660 C798 1.171 . S
C6685 C1260 1.171 . S
C6690 C812 1.171 . S
C6715 C1274 1.171 . S
C6720 C826 1.171 . S
C6745 C1330 1.171 . S
C6750 C840 1.171 . S
C6775 C1302 1.171 . S
C6780 C854 1.171 . S
C6805 C1316 1.171 . S
C6810 C868 1.171 . S
C6835 C1232 1.171 . S
C6840 C882 1.171 . S
C6865 C896 1.171 . S
C6870 C1218 1.171 . S
C6895 C1134 1.171 . S
C6900 C910 1.171 . S
C6925 C1148 1.171 . S
C6930 C924 1.171 . S
C6955 C1162 1.171 . S
C6960 C938 1.171 . S
C6985 C1120 1.171 . S
C6990 C952 1.171 . S
C7015 C1190 1.171 . S
C7020 C966 1.171 . S
C7045 C1204 1.171 . S
C7050 C980 1.171 . S
C7075 C1176 1.171 . S
C7080 C994 1.171 . S
