# Generated by pormake.
# Topology bsn, (6)-cn, num edge types: 1
# Building blocks:
#     Node 0, Type 0, BuildingBlock: JUFBIX_clean_sbu_0, # of connection points: 6
#     Node 1, Type 0, BuildingBlock: JUFBIX_clean_sbu_0, # of connection points: 6
#     Node 2, Type 0, BuildingBlock: JUFBIX_clean_sbu_0, # of connection points: 6
#     Node 3, Type 0, BuildingBlock: JUFBIX_clean_sbu_0, # of connection points: 6
#     Edge 4, Type (0, 0), BuildingBlock: UVAHIK_clean_linker_0, # of connection points: 2
#     Edge 5, Type (0, 0), BuildingBlock: UVAHIK_clean_linker_0, # of connection points: 2
#     Edge 6, Type (0, 0), BuildingBlock: UVAHIK_clean_linker_0, # of connection points: 2
#     Edge 7, Type (0, 0), BuildingBlock: UVAHIK_clean_linker_0, # of connection points: 2
#     Edge 8, Type (0, 0), BuildingBlock: UVAHIK_clean_linker_0, # of connection points: 2
#     Edge 9, Type (0, 0), BuildingBlock: UVAHIK_clean_linker_0, # of connection points: 2
#     Edge 10, Type (0, 0), BuildingBlock: UVAHIK_clean_linker_0, # of connection points: 2
#     Edge 11, Type (0, 0), BuildingBlock: UVAHIK_clean_linker_0, # of connection points: 2
#     Edge 12, Type (0, 0), BuildingBlock: UVAHIK_clean_linker_0, # of connection points: 2
#     Edge 13, Type (0, 0), BuildingBlock: UVAHIK_clean_linker_0, # of connection points: 2
#     Edge 14, Type (0, 0), BuildingBlock: UVAHIK_clean_linker_0, # of connection points: 2
#     Edge 15, Type (0, 0), BuildingBlock: UVAHIK_clean_linker_0, # of connection points: 2
# Relax obj value: 0.111
# Max RMSD: 0.166
# Mean RMSD: 0.166
data_MOF--net-bsn--node1-JUFBIX_clean_sbu_0--edge1-UVAHIK_clean_linker_0
_symmetry_space_group_name_H-M    P1
_symmetry_Int_Tables_number       1
_symmetry_cell_setting            triclinic
loop_
_symmetry_equiv_pos_as_xyz
'x, y, z'
_cell_length_a     37.083672
_cell_length_b     47.332052
_cell_length_c     19.052109
_cell_angle_alpha  87.333889
_cell_angle_beta   92.289794
_cell_angle_gamma 100.09258
loop_
_atom_site_label
_atom_site_type_symbol
_atom_site_fract_x
_atom_site_fract_y
_atom_site_fract_z
_atom_type_partial_charge
Co0 Co 1.01895 0.26306 0.36443 0.0
C1 C 0.03849 0.29071 0.48927 0.0
Co2 Co 0.03385 0.31043 0.35435 0.0
C3 C 1.01644 0.20048 0.3651 0.0
C4 C 0.97292 0.21316 0.41963 0.0
N5 N 1.00247 0.22386 0.38126 0.0
N6 N 0.99622 0.17587 0.39099 0.0
C7 C 0.96887 0.1839 0.42506 0.0
H8 H 0.04124 0.20147 0.3363 0.0
H9 H 0.95601 0.22579 0.44504 0.0
C10 C 1.01434 0.28266 0.22956 0.0
N11 N 0.04922 0.34949 0.33992 0.0
C12 C 0.03958 0.37094 0.37518 0.0
C13 C 0.07215 0.36272 0.29068 0.0
N14 N 0.05546 0.39709 0.34981 0.0
C15 C 0.07601 0.39196 0.29657 0.0
C16 C 0.09184 0.2797 0.34336 0.0
O17 O 1.01002 0.25958 0.26742 0.0
O18 O 1.02462 0.30666 0.2577 0.0
O19 O 0.08252 0.3043 0.34367 0.0
O20 O 0.06778 0.25732 0.35352 0.0
O21 O 0.04281 0.31373 0.45143 0.0
H22 H 0.0851 0.35178 0.25276 0.0
H23 H 1.02066 0.36734 0.4178 0.0
O24 O 0.02811 0.26678 0.46106 0.0
O25 O 0.97034 0.26965 0.37327 0.0
O26 O 0.98506 0.31638 0.36374 0.0
C27 C 0.96075 0.2941 0.3709 0.0
H28 H 0.9485 0.16969 0.45516 0.0
H29 H 0.09292 0.40813 0.2645 0.0
Co30 Co 0.02608 0.75734 0.58149 0.0
C31 C 0.04451 0.78518 0.70642 0.0
Co32 Co 0.0397 0.80478 0.57184 0.0
C33 C 1.02179 0.69694 0.56063 0.0
C34 C 0.98871 0.70467 0.64482 0.0
N35 N 1.01157 0.71817 0.59579 0.0
N36 N 1.00633 0.67064 0.58586 0.0
C37 C 0.98546 0.67547 0.6389 0.0
H38 H 0.04078 0.70078 0.51815 0.0
H39 H 0.97536 0.71539 0.68256 0.0
C40 C 1.02131 0.77706 0.44683 0.0
N41 N 0.05532 0.84408 0.55511 0.0
C42 C 0.04116 0.86726 0.57213 0.0
C43 C 0.0845 0.85507 0.51605 0.0
N44 N 0.06097 0.89203 0.54617 0.0
C45 C 0.0882 0.88431 0.5111 0.0
C46 C 0.09901 0.77482 0.56606 0.0
O47 O 1.01761 0.75397 0.48438 0.0
O48 O 0.03088 0.80101 0.47531 0.0
O49 O 0.08865 0.79898 0.56348 0.0
O50 O 0.07525 0.75218 0.57292 0.0
O51 O 0.04829 0.80832 0.66881 0.0
H52 H 0.10141 0.84264 0.48997 0.0
H53 H 1.01657 0.86601 0.6017 0.0
O54 O 0.03484 0.76116 0.67809 0.0
O55 O 0.977 0.76269 0.59135 0.0
O56 O 0.99054 0.80975 0.58217 0.0
C57 C 0.96695 0.78703 0.59161 0.0
H58 H 0.96872 0.65912 0.67077 0.0
H59 H 0.10825 0.89874 0.48077 0.0
Co60 Co 0.53325 0.76458 0.82505 0.0
C61 C 0.53222 0.78724 0.95289 0.0
Co62 Co 0.5443 0.81242 0.82143 0.0
C63 C 0.53042 0.70305 0.86481 0.0
C64 C 0.49622 0.7112 0.77567 0.0
N65 N 0.52046 0.72459 0.82322 0.0
N66 N 0.51296 0.67685 0.84505 0.0
C67 C 0.49159 0.6821 0.78881 0.0
H68 H 0.5495 0.70654 0.90934 0.0
H69 H 0.48251 0.72197 0.73398 0.0
C70 C 0.54396 0.79005 0.69296 0.0
N71 N 0.55649 0.85244 0.82066 0.0
C72 C 0.54164 0.87203 0.85429 0.0
C73 C 0.58371 0.86813 0.78349 0.0
N74 N 0.55848 0.89932 0.83903 0.0
C75 C 0.58498 0.89675 0.79454 0.0
C76 C 0.60649 0.7858 0.83593 0.0
O77 O 0.53736 0.76628 0.72744 0.0
O78 O 0.54839 0.81338 0.72464 0.0
O79 O 0.59481 0.80959 0.83302 0.0
O80 O 0.58358 0.76239 0.83519 0.0
O81 O 0.53962 0.81092 0.918 0.0
H82 H 0.60166 0.85927 0.75048 0.0
H83 H 0.51869 0.86637 0.8886 0.0
O84 O 0.52909 0.76358 0.92241 0.0
O85 O 0.48309 0.7674 0.81387 0.0
O86 O 0.49379 0.81453 0.80848 0.0
C87 C 0.47125 0.79098 0.80622 0.0
H88 H 0.47407 0.66602 0.75856 0.0
H89 H 0.60445 0.91429 0.77233 0.0
Co90 Co 0.51496 0.25491 0.12094 0.0
C91 C 0.5119 0.27724 0.24891 0.0
Co92 Co 0.52436 0.30274 0.11725 0.0
C93 C 0.5193 0.19548 0.08851 0.0
C94 C 0.47655 0.19885 0.15823 0.0
N95 N 0.50382 0.21483 0.12173 0.0
N96 N 0.50281 0.16807 0.10342 0.0
C97 C 0.47589 0.1703 0.14724 0.0
H98 H 0.54239 0.20141 0.05462 0.0
H99 H 0.45809 0.20746 0.19061 0.0
C100 C 0.52837 0.28024 -0.01013 0.0
N101 N 0.53603 0.34279 0.11916 0.0
C102 C 0.52649 0.36414 0.07631 0.0
C103 C 0.55912 0.35647 0.16812 0.0
N104 N 0.54314 0.39047 0.09665 0.0
C105 C 0.56351 0.38552 0.15455 0.0
C106 C 0.58729 0.27761 0.14037 0.0
O107 O 0.52128 0.25649 0.02458 0.0
O108 O 0.53025 0.30381 0.02031 0.0
O109 O 0.5746 0.30081 0.13179 0.0
O110 O 0.56556 0.25369 0.13709 0.0
O111 O 0.51842 0.301 0.2144 0.0
H112 H 0.57228 0.34592 0.21099 0.0
H113 H 0.50839 0.36042 0.03043 0.0
O114 O 0.50914 0.25392 0.21757 0.0
O115 O 0.46433 0.25684 0.10605 0.0
O116 O 0.47394 0.30404 0.10366 0.0
C117 C 0.45179 0.28026 0.10185 0.0
H118 H 0.4565 0.15258 0.1689 0.0
H119 H 0.58023 0.4018 0.1855 0.0
C120 C 0.0558 0.44905 0.32772 0.0
C121 C 0.0509 0.42467 0.37372 0.0
C122 C 0.05115 0.47574 0.35067 0.0
C123 C 0.04993 0.51624 0.51119 0.0
H124 H 0.99862 0.56523 0.38978 0.0
C125 C 1.00677 0.61879 0.60777 0.0
C126 C 1.01143 0.6432 0.5619 0.0
C127 C 1.01178 0.59221 0.58471 0.0
C128 C 1.01338 0.55194 0.42398 0.0
H129 H 0.03773 0.40944 0.48033 0.0
H130 H 0.029 0.4559 0.52004 0.0
H131 H 1.00699 0.51866 0.3499 0.0
H132 H 1.02462 0.65864 0.45542 0.0
H133 H 0.03397 0.61236 0.41551 0.0
H134 H 0.05629 0.54952 0.5853 0.0
C135 C 0.03674 0.45438 0.46631 0.0
C136 C 1.01817 0.52526 0.40114 0.0
C137 C 0.04133 0.42767 0.44331 0.0
C138 C 1.02119 0.64037 0.49235 0.0
C139 C 0.02614 0.61376 0.46923 0.0
C140 C 0.04514 0.54293 0.53404 0.0
C141 C 0.04154 0.47872 0.42021 0.0
C142 C 0.03648 0.5071 0.44449 0.0
C143 C 1.02152 0.58938 0.51518 0.0
C144 C 0.02679 0.56108 0.49072 0.0
H145 H 0.06279 0.44748 0.27362 0.0
H146 H 0.05542 0.49412 0.31404 0.0
H147 H 0.06466 0.50295 0.54541 0.0
H148 H 0.99966 0.62024 0.66184 0.0
H149 H 1.00764 0.57378 0.62123 0.0
C150 C 0.65858 0.75993 0.81816 0.0
C151 C 0.64604 0.78571 0.82874 0.0
C152 C 0.69436 0.7604 0.79721 0.0
C153 C 0.78586 0.80592 0.77957 0.0
H154 H 0.79232 0.75808 0.6223 0.0
C155 C 0.91851 0.81469 0.62405 0.0
C156 C 0.92889 0.78845 0.60955 0.0
C157 C 0.88372 0.81524 0.64938 0.0
C158 C 0.79108 0.77138 0.66657 0.0
H159 H 0.66204 0.83206 0.83048 0.0
H160 H 0.72439 0.83279 0.79405 0.0
H161 H 0.73366 0.75628 0.67677 0.0
H162 H 0.91045 0.74233 0.60793 0.0
H163 H 0.85025 0.74331 0.65209 0.0
H164 H 0.84341 0.82096 0.76932 0.0
C165 C 0.7066 0.81224 0.80187 0.0
C166 C 0.75748 0.77027 0.698 0.0
C167 C 0.6708 0.8118 0.82266 0.0
C168 C 0.90336 0.76294 0.61844 0.0
C169 C 0.8687 0.7635 0.64355 0.0
C170 C 0.81955 0.80699 0.74818 0.0
C171 C 0.71837 0.78662 0.78666 0.0
C172 C 0.7545 0.78741 0.75506 0.0
C173 C 0.85864 0.78958 0.66037 0.0
C174 C 0.82256 0.78963 0.6915 0.0
H175 H 0.64027 0.73946 0.82265 0.0
H176 H 0.70291 0.74025 0.78724 0.0
H177 H 0.78445 0.81928 0.82367 0.0
H178 H 0.93759 0.83471 0.61784 0.0
H179 H 0.87658 0.83572 0.66097 0.0
C180 C 0.57038 0.4412 0.07127 0.0
C181 C 0.54064 0.41841 0.06483 0.0
C182 C 0.56744 0.46895 0.04641 0.0
C183 C 0.51258 0.51072 0.92821 0.0
H184 H 0.55615 0.57365 0.0448 0.0
C185 C 0.48597 0.62597 0.86978 0.0
C186 C 0.51574 0.64877 0.87585 0.0
C187 C 0.48908 0.59818 0.89403 0.0
C188 C 0.54419 0.5564 0.01118 0.0
H189 H 0.48475 0.40687 0.0251 0.0
H190 H 0.47939 0.45557 -0.01843 0.0
H191 H 0.56097 0.52448 0.08236 0.0
H192 H 0.5719 0.66022 0.91426 0.0
H193 H 0.57748 0.61147 0.95691 0.0
H194 H 0.49574 0.54266 0.85712 0.0
C195 C 0.50517 0.45184 0.00566 0.0
C196 C 0.54694 0.52813 0.0327 0.0
C197 C 0.50819 0.42392 0.0305 0.0
C198 C 0.54842 0.6432 0.90913 0.0
C199 C 0.55158 0.61524 0.93347 0.0
C200 C 0.50981 0.53899 0.90672 0.0
C201 C 0.53462 0.47482 0.01439 0.0
C202 C 0.53122 0.5049 -0.00853 0.0
C203 C 0.52207 0.59228 0.9252 0.0
C204 C 0.52553 0.56222 0.94796 0.0
H205 H 0.59608 0.43762 0.09591 0.0
H206 H 0.59101 0.48586 0.05239 0.0
H207 H 0.50062 0.49347 0.89459 0.0
H208 H 0.46008 0.62958 0.84602 0.0
H209 H 0.46548 0.58126 0.88841 0.0
C210 C 0.90942 0.3213 0.34336 0.0
C211 C 0.92136 0.29581 0.36679 0.0
C212 C 0.87237 0.32116 0.32612 0.0
C213 C 0.77903 0.27745 0.33914 0.0
H214 H 0.76227 0.31451 0.15783 0.0
C215 C 0.63988 0.25473 0.18739 0.0
C216 C 0.62648 0.27906 0.15979 0.0
C217 C 0.67603 0.25725 0.2136 0.0
C218 C 0.76648 0.30426 0.20881 0.0
H219 H 0.90356 0.25076 0.39578 0.0
H220 H 0.83939 0.25051 0.36545 0.0
H221 H 0.82413 0.32001 0.2095 0.0
H222 H 0.64081 0.32485 0.13538 0.0
H223 H 0.70362 0.32912 0.18069 0.0
H224 H 0.72134 0.26133 0.3377 0.0
C225 C 0.85838 0.27062 0.36041 0.0
C226 C 0.80187 0.30757 0.23866 0.0
C227 C 0.89528 0.27075 0.37749 0.0
C228 C 0.65028 0.30567 0.15637 0.0
C229 C 0.68634 0.30814 0.18212 0.0
C230 C 0.74363 0.27407 0.30915 0.0
C231 C 0.84668 0.29557 0.33232 0.0
C232 C 0.80859 0.29406 0.30397 0.0
C233 C 0.69942 0.28408 0.21211 0.0
C234 C 0.73704 0.28731 0.2435 0.0
H235 H 0.92886 0.34098 0.3348 0.0
H236 H 0.86403 0.34086 0.30576 0.0
H237 H 0.78327 0.26701 0.38986 0.0
H238 H 0.62216 0.23396 0.19081 0.0
H239 H 0.68559 0.23827 0.2356 0.0
C240 C 0.38781 0.253 0.10978 0.0
C241 C 0.41188 0.27949 0.10603 0.0
C242 C 0.35136 0.25168 0.12751 0.0
C243 C 0.2792 0.29566 0.14867 0.0
H244 H 0.24541 0.23751 0.29292 0.0
C245 C 0.15538 0.30274 0.31309 0.0
C246 C 0.1294 0.27758 0.32352 0.0
C247 C 0.18919 0.30159 0.28497 0.0
C248 C 0.25425 0.25363 0.25207 0.0
H249 H 0.41588 0.32553 0.11354 0.0
H250 H 0.35239 0.32323 0.14474 0.0
H251 H 0.30436 0.23812 0.23998 0.0
H252 H 0.11921 0.2313 0.31526 0.0
H253 H 0.1786 0.22928 0.2661 0.0
H254 H 0.22936 0.31145 0.16164 0.0
C255 C 0.36161 0.30346 0.1337 0.0
C256 C 0.28797 0.25395 0.22151 0.0
C257 C 0.39807 0.30479 0.11589 0.0
C258 C 0.13867 0.25105 0.30807 0.0
C259 C 0.17266 0.2499 0.27987 0.0
C260 C 0.24554 0.29537 0.17929 0.0
C261 C 0.33815 0.27681 0.14183 0.0
C262 C 0.30102 0.27517 0.17 0.0
C263 C 0.19791 0.27526 0.26654 0.0
C264 C 0.23292 0.27459 0.23199 0.0
H265 H 0.3975 0.23309 0.10211 0.0
H266 H 0.33378 0.23088 0.13192 0.0
H267 H 0.2882 0.31201 0.10842 0.0
H268 H 0.14925 0.32354 0.32483 0.0
H269 H 0.20839 0.32143 0.27686 0.0
C270 C 0.40737 0.76433 0.79217 0.0
C271 C 0.43212 0.79045 0.78784 0.0
C272 C 0.37147 0.76258 0.76595 0.0
C273 C 0.30117 0.80594 0.70905 0.0
H274 H 0.26131 0.73907 0.60213 0.0
C275 C 0.16397 0.79921 0.55845 0.0
C276 C 0.13859 0.77391 0.57134 0.0
C277 C 0.20087 0.80048 0.57737 0.0
C278 C 0.27203 0.75776 0.63212 0.0
H279 H 0.43826 0.83547 0.75505 0.0
H280 H 0.37544 0.83238 0.70854 0.0
H281 H 0.32301 0.74351 0.65494 0.0
H282 H 0.1324 0.72947 0.60926 0.0
H283 H 0.19715 0.73172 0.64249 0.0
H284 H 0.25022 0.82019 0.68625 0.0
C285 C 0.38378 0.81329 0.7328 0.0
C286 C 0.30727 0.76028 0.66263 0.0
C287 C 0.41976 0.81509 0.75942 0.0
C288 C 0.15133 0.74925 0.59863 0.0
C289 C 0.18839 0.75055 0.6177 0.0
C290 C 0.26603 0.80347 0.67835 0.0
C291 C 0.3595 0.78687 0.73445 0.0
C292 C 0.32216 0.78434 0.70172 0.0
C293 C 0.21321 0.77651 0.60962 0.0
C294 C 0.25107 0.77934 0.63967 0.0
H295 H 0.41598 0.74498 0.8143 0.0
H296 H 0.35319 0.74207 0.76956 0.0
H297 H 0.31162 0.82452 0.73962 0.0
H298 H 0.15509 0.8185 0.53672 0.0
H299 H 0.21956 0.82057 0.569 0.0
C300 C 0.55986 0.95177 0.82477 0.0
C301 C 0.5507 0.92588 0.8646 0.0
C302 C 0.55435 0.97783 0.85047 0.0
C303 C 0.54305 1.01286 0.01601 0.0
H304 H 0.50994 0.07071 0.8907 0.0
C305 C 0.5022 0.11573 0.11766 0.0
C306 C 0.51112 0.14167 0.07794 0.0
C307 C 0.50803 0.08977 0.09191 0.0
C308 C 0.5197 0.05498 0.92627 0.0
H309 H 0.52792 0.90725 0.96266 0.0
H310 H 0.51776 0.95276 0.00732 0.0
H311 H 0.51615 1.0245 0.84555 0.0
H312 H 0.53388 0.16051 -0.01995 0.0
H313 H 0.54461 0.11516 0.93526 0.0
H314 H 0.54659 0.04333 0.09673 0.0
C315 C 0.5297 0.95288 0.95633 0.0
C316 C 0.52318 1.02839 0.90039 0.0
C317 C 0.53513 0.92671 0.93042 0.0
C318 C 0.52685 0.14101 0.0122 0.0
C319 C 0.5326 0.11493 -0.01378 0.0
C320 C 0.53958 0.03945 0.04189 0.0
C321 C 0.53948 0.97884 0.91684 0.0
C322 C 0.53491 1.00694 0.94488 0.0
C323 C 0.52301 0.08891 0.02558 0.0
C324 C 0.5278 0.06088 -0.00258 0.0
H325 H 0.5714 0.95199 0.77345 0.0
H326 H 0.56254 0.99732 0.81875 0.0
H327 H 0.55278 0.99712 0.05159 0.0
H328 H 0.49055 0.1154 0.16892 0.0
H329 H 0.49998 0.07024 0.12353 0.0
C330 C 1.01713 0.92583 0.53511 0.0
C331 C 0.05313 0.9207 0.54587 0.0
C332 C 1.01063 0.95381 0.5206 0.0
C333 C 0.058 1.02292 0.44569 0.0
H334 H 0.97572 0.05307 0.51314 0.0
C335 C 0.03979 0.14187 0.40308 0.0
C336 C 1.00385 0.14712 0.39225 0.0
C337 C 0.04614 0.11387 0.41797 0.0
C338 C 0.99858 0.04481 0.49309 0.0
H339 H 0.11012 0.94069 0.55595 0.0
H340 H 0.09887 0.98949 0.53211 0.0
H341 H 0.98551 1.00526 0.55346 0.0
H342 H 0.94677 0.12727 0.38258 0.0
H343 H 0.95777 0.07845 0.40713 0.0
H344 H 0.07107 0.06245 0.38529 0.0
C345 C 0.07574 0.97198 0.53262 0.0
C346 C 1.0042 1.01745 0.5164 0.0
C347 C 0.08218 0.94412 0.54676 0.0
C348 C 0.97468 0.12378 0.39185 0.0
C349 C 0.98097 0.0959 0.40638 0.0
C350 C 0.05237 0.05028 0.42238 0.0
C351 C 0.04006 0.97706 0.51697 0.0
C352 C 0.03403 1.00623 0.49309 0.0
C353 C 1.01662 0.09071 0.42191 0.0
C354 C 1.02257 0.06152 0.44573 0.0
H355 H 0.99434 0.90809 0.53356 0.0
H356 H 0.98281 0.95703 0.50865 0.0
H357 H 0.08086 1.01467 0.42565 0.0
H358 H 0.06269 0.15954 0.40427 0.0
H359 H 0.07394 0.11059 0.42986 0.0
C360 C 1.00906 0.25626 0.11861 0.0
C361 C 1.01004 0.28196 0.153 0.0
C362 C 1.01045 0.25668 0.04563 0.0
C363 C 0.99991 0.30059 0.88465 0.0
H364 H 0.07519 0.26247 0.8155 0.0
C365 C 0.04444 0.31721 0.60011 0.0
C366 C 0.04301 0.29143 0.5658 0.0
C367 C 0.0434 0.31689 0.67313 0.0
C368 C 0.05405 0.27312 0.83425 0.0
H369 H 1.01055 0.32784 0.13871 0.0
H370 H 1.01315 0.32851 0.0116 0.0
H371 H 0.06181 0.25808 0.94028 0.0
H372 H 0.0421 0.24551 0.58022 0.0
H373 H 0.04013 0.24501 0.70744 0.0
H374 H 0.99216 0.31563 0.77863 0.0
C375 C 1.01132 0.30812 0.0407 0.0
C376 C 0.04618 0.27041 0.90523 0.0
C377 C 1.01009 0.30773 0.11342 0.0
C378 C 0.04288 0.26567 0.60545 0.0
C379 C 0.04203 0.26538 0.67823 0.0
C380 C 1.0078 0.30331 0.81369 0.0
C381 C 1.01256 0.28275 0.00648 0.0
C382 C 1.01904 0.28411 0.93085 0.0
C383 C 0.04121 0.29083 0.71239 0.0
C384 C 0.0349 0.28959 0.78806 0.0
H385 H 1.00887 0.2361 0.14808 0.0
H386 H 1.0109 0.2368 0.01993 0.0
H387 H 0.97873 0.31121 0.90336 0.0
H388 H 0.04472 0.33737 0.57059 0.0
H389 H 0.04326 0.33682 0.69879 0.0
C390 C 0.05047 0.76008 0.82189 0.0
C391 C 0.04891 0.78576 0.78288 0.0
C392 C 0.04928 0.75937 0.89461 0.0
C393 C 0.05924 0.80334 0.04883 0.0
H394 H 0.98645 0.7416 0.12513 0.0
C395 C 1.01566 0.80217 0.33127 0.0
C396 C 1.01702 0.77649 0.37035 0.0
C397 C 1.01695 0.80285 0.25856 0.0
C398 C 1.00699 0.75878 0.10445 0.0
H399 H 0.04731 0.83119 0.78866 0.0
H400 H 0.04484 0.82986 0.91666 0.0
H401 H 0.99821 0.74428 -0.00027 0.0
H402 H 1.01838 0.731 0.36472 0.0
H403 H 1.02105 0.73228 0.23676 0.0
H404 H 0.06804 0.81784 0.15354 0.0
C405 C 0.04713 0.81039 0.89075 0.0
C406 C 1.01382 0.76028 0.03308 0.0
C407 C 0.04847 0.81113 0.81776 0.0
C408 C 1.01738 0.75107 0.33556 0.0
C409 C 1.01883 0.75179 0.26259 0.0
C410 C 0.05242 0.80184 0.1202 0.0
C411 C 0.0464 0.78429 0.9293 0.0
C412 C 0.04003 0.78254 0.0049 0.0
C413 C 1.01975 0.77789 0.22396 0.0
C414 C 0.0262 0.77959 0.14838 0.0
H415 H 0.05142 0.74029 0.79618 0.0
H416 H 0.04955 0.73917 0.92362 0.0
H417 H 0.07977 0.82053 0.02813 0.0
H418 H 1.01479 0.82199 0.35691 0.0
H419 H 1.01681 0.82306 0.22949 0.0
C420 C 0.52473 0.81368 0.05854 0.0
C421 C 0.52638 0.78756 0.02793 0.0
C422 C 0.52086 0.81449 0.13035 0.0
C423 C 0.49679 0.77134 0.29024 0.0
H424 H 0.57407 0.82647 0.37582 0.0
C425 C 0.53823 0.76473 0.58121 0.0
C426 C 0.54322 0.79056 0.61648 0.0
C427 C 0.53377 0.76506 0.50857 0.0
C428 C 0.55205 0.8113 0.35253 0.0
H429 H 0.52333 0.74161 0.0468 0.0
H430 H 0.51734 0.74322 0.17354 0.0
H431 H 0.56693 0.82589 0.24849 0.0
H432 H 0.54838 0.83697 0.60432 0.0
H433 H 0.5403 0.83742 0.47712 0.0
H434 H 0.48229 0.75653 0.39468 0.0
C435 C 0.51866 0.76289 0.14157 0.0
C436 C 0.54793 0.81101 0.28002 0.0
C437 C 0.52244 0.76204 0.0695 0.0
C438 C 0.54471 0.81676 0.57822 0.0
C439 C 0.54009 0.81705 0.50565 0.0
C440 C 0.50084 0.77171 0.36298 0.0
C441 C 0.51872 0.78924 0.17232 0.0
C442 C 0.52053 0.79086 0.24859 0.0
C443 C 0.5342 0.79118 0.47061 0.0
C444 C 0.52878 0.79149 0.39433 0.0
H445 H 0.52702 0.83362 0.02734 0.0
H446 H 0.52052 0.83495 0.1534 0.0
H447 H 0.4754 0.75577 0.26652 0.0
H448 H 0.53711 0.74425 0.60968 0.0
H449 H 0.52993 0.74492 0.48211 0.0
C450 C 0.51448 0.30274 0.36003 0.0
C451 C 0.51073 0.27684 0.3253 0.0
C452 C 0.51788 0.30266 0.4328 0.0
C453 C 0.50152 0.25687 0.59092 0.0
H454 H 0.57942 0.31276 0.67224 0.0
C455 C 0.53534 0.25417 0.88313 0.0
C456 C 0.53406 0.28018 0.91465 0.0
C457 C 0.53768 0.25351 0.81085 0.0
C458 C 0.55765 0.29711 0.64988 0.0
H459 H 0.50593 0.2305 0.33862 0.0
H460 H 0.51222 0.23048 0.46611 0.0
H461 H 0.56995 0.31205 0.54459 0.0
H462 H 0.53655 0.32612 0.89675 0.0
H463 H 0.54002 0.3248 0.76948 0.0
H464 H 0.48901 0.24206 0.69599 0.0
C465 C 0.51234 0.25072 0.43703 0.0
C466 C 0.55209 0.29679 0.57739 0.0
C467 C 0.50882 0.25077 0.36427 0.0
C468 C 0.53718 0.30577 0.87344 0.0
C469 C 0.53948 0.30508 0.80097 0.0
C470 C 0.50715 0.25713 0.66325 0.0
C471 C 0.5176 0.27672 0.4715 0.0
C472 C 0.52378 0.27683 0.54768 0.0
C473 C 0.53871 0.27882 0.76935 0.0
C474 C 0.53506 0.27736 0.69304 0.0
H475 H 0.51577 0.32312 0.33106 0.0
H476 H 0.52122 0.32288 0.45877 0.0
H477 H 0.47931 0.24151 0.56892 0.0
H478 H 0.53362 0.23418 0.91398 0.0
H479 H 0.53756 0.23312 0.78713 0.0
loop_
_geom_bond_atom_site_label_1
_geom_bond_atom_site_label_2
_geom_bond_distance
_geom_bond_site_symmetry_2
_ccdc_geom_bond_type
Co0 N5 2.057 . S
Co0 O17 2.023 . S
Co0 O20 2.062 1_655 S
Co0 O24 2.117 1_655 S
Co0 O25 2.020 . S
C1 O21 1.259 . S
C1 O24 1.258 . S
Co2 N11 2.057 . S
Co2 O18 2.117 . S
Co2 O19 2.020 . S
Co2 O21 2.021 . S
Co2 O26 2.062 1_455 S
C3 N5 1.317 . S
C3 N6 1.342 1_655 S
C3 H8 0.930 1_655 S
C4 N5 1.375 . S
C4 C7 1.350 . S
C4 H9 0.930 . S
N5 Co0 2.057 . S
N5 C3 1.317 . S
N5 C4 1.375 . S
N6 C3 1.342 1_455 S
N6 C7 1.368 1_455 S
C7 C4 1.350 . S
C7 N6 1.368 1_655 S
C7 H28 0.931 . S
H8 C3 0.930 1_455 S
H9 C4 0.930 . S
C10 O17 1.259 1_455 S
C10 O18 1.258 . S
N11 Co2 2.057 . S
N11 C12 1.316 . S
N11 C13 1.375 . S
C12 N11 1.316 . S
C12 N14 1.347 . S
C12 H23 0.931 . S
C13 N11 1.375 . S
C13 C15 1.350 . S
C13 H22 0.930 . S
N14 C12 1.347 . S
N14 C15 1.373 . S
C15 C13 1.350 . S
C15 N14 1.373 . S
C15 H29 0.931 . S
C16 O19 1.256 . S
C16 O20 1.255 . S
O17 Co0 2.023 . S
O17 C10 1.259 1_655 S
O18 Co2 2.117 . S
O18 C10 1.258 . S
O19 Co2 2.020 . S
O19 C16 1.256 . S
O20 Co0 2.062 1_455 S
O20 C16 1.255 . S
O21 C1 1.259 . S
O21 Co2 2.021 . S
H22 C13 0.930 . S
H23 C12 0.931 . S
O24 Co0 2.117 1_455 S
O24 C1 1.258 . S
O25 Co0 2.020 . S
O25 C27 1.256 . S
O26 Co2 2.062 1_655 S
O26 C27 1.255 . S
C27 O25 1.256 . S
C27 O26 1.255 . S
H28 C7 0.931 . S
H29 C15 0.931 . S
Co30 N35 2.057 . S
Co30 O47 2.021 . S
Co30 O50 2.062 1_655 S
Co30 O54 2.117 1_655 S
Co30 O55 2.020 . S
C31 O51 1.259 . S
C31 O54 1.258 . S
Co32 N41 2.057 . S
Co32 O48 2.117 . S
Co32 O49 2.020 . S
Co32 O51 2.021 . S
Co32 O56 2.062 1_455 S
C33 N35 1.316 . S
C33 N36 1.347 . S
C33 H38 0.932 . S
C34 N35 1.375 . S
C34 C37 1.350 . S
C34 H39 0.930 . S
N35 Co30 2.057 . S
N35 C33 1.316 . S
N35 C34 1.375 . S
N36 C33 1.347 . S
N36 C37 1.373 . S
C37 C34 1.350 . S
C37 N36 1.373 . S
C37 H58 0.931 . S
H38 C33 0.932 . S
H39 C34 0.930 . S
C40 O47 1.259 1_455 S
C40 O48 1.258 . S
N41 Co32 2.057 . S
N41 C42 1.316 . S
N41 C43 1.375 . S
C42 N41 1.316 . S
C42 N44 1.347 . S
C42 H53 0.931 . S
C43 N41 1.375 . S
C43 C45 1.350 . S
C43 H52 0.930 . S
N44 C42 1.347 . S
N44 C45 1.373 . S
C45 C43 1.350 . S
C45 N44 1.373 . S
C45 H59 0.931 . S
C46 O49 1.256 . S
C46 O50 1.255 . S
O47 Co30 2.021 . S
O47 C40 1.259 1_655 S
O48 Co32 2.117 . S
O48 C40 1.258 . S
O49 Co32 2.020 . S
O49 C46 1.256 . S
O50 Co30 2.062 1_455 S
O50 C46 1.255 . S
O51 C31 1.259 . S
O51 Co32 2.021 . S
H52 C43 0.930 . S
H53 C42 0.931 . S
O54 Co30 2.117 1_455 S
O54 C31 1.258 . S
O55 Co30 2.020 . S
O55 C57 1.256 . S
O56 Co32 2.062 1_655 S
O56 C57 1.255 . S
C57 O55 1.256 . S
C57 O56 1.255 . S
H58 C37 0.931 . S
H59 C45 0.931 . S
Co60 N65 2.057 . S
Co60 O77 2.021 . S
Co60 O80 2.062 . S
Co60 O84 2.117 . S
Co60 O85 2.020 . S
C61 O81 1.259 1_554 S
C61 O84 1.258 1_554 S
Co62 N71 2.057 . S
Co62 O78 2.117 . S
Co62 O79 2.020 . S
Co62 O81 2.021 . S
Co62 O86 2.062 . S
C63 N65 1.316 . S
C63 N66 1.347 . S
C63 H68 0.931 . S
C64 N65 1.375 . S
C64 C67 1.350 . S
C64 H69 0.930 1_556 S
N65 Co60 2.057 . S
N65 C63 1.316 . S
N65 C64 1.375 . S
N66 C63 1.347 . S
N66 C67 1.373 . S
C67 C64 1.350 . S
C67 N66 1.373 . S
C67 H88 0.931 1_556 S
H68 C63 0.931 . S
H69 C64 0.930 1_554 S
C70 O77 1.259 . S
C70 O78 1.258 . S
N71 Co62 2.057 . S
N71 C72 1.316 . S
N71 C73 1.375 . S
C72 N71 1.316 . S
C72 N74 1.347 . S
C72 H83 0.931 . S
C73 N71 1.375 . S
C73 C75 1.350 . S
C73 H82 0.930 . S
N74 C72 1.347 . S
N74 C75 1.373 . S
C75 C73 1.350 . S
C75 N74 1.373 . S
C75 H89 0.931 . S
C76 O79 1.256 . S
C76 O80 1.255 . S
O77 Co60 2.021 . S
O77 C70 1.259 . S
O78 Co62 2.117 . S
O78 C70 1.258 . S
O79 Co62 2.020 . S
O79 C76 1.256 . S
O80 Co60 2.062 . S
O80 C76 1.255 . S
O81 C61 1.259 1_556 S
O81 Co62 2.021 . S
H82 C73 0.930 . S
H83 C72 0.931 . S
O84 Co60 2.117 . S
O84 C61 1.258 1_556 S
O85 Co60 2.020 . S
O85 C87 1.256 . S
O86 Co62 2.062 . S
O86 C87 1.255 . S
C87 O85 1.256 . S
C87 O86 1.255 . S
H88 C67 0.931 1_554 S
H89 C75 0.931 . S
Co90 N95 2.057 . S
Co90 O107 2.021 . S
Co90 O110 2.062 . S
Co90 O114 2.117 . S
Co90 O115 2.020 . S
C91 O111 1.259 . S
C91 O114 1.258 . S
Co92 N101 2.057 . S
Co92 O108 2.117 . S
Co92 O109 2.020 . S
Co92 O111 2.021 . S
Co92 O116 2.062 . S
C93 N95 1.316 . S
C93 N96 1.347 . S
C93 H98 0.931 . S
C94 N95 1.375 . S
C94 C97 1.350 . S
C94 H99 0.930 . S
N95 Co90 2.057 . S
N95 C93 1.316 . S
N95 C94 1.375 . S
N96 C93 1.347 . S
N96 C97 1.373 . S
C97 C94 1.350 . S
C97 N96 1.373 . S
C97 H118 0.931 . S
H98 C93 0.931 . S
H99 C94 0.930 . S
C100 O107 1.259 1_556 S
C100 O108 1.258 1_556 S
N101 Co92 2.057 . S
N101 C102 1.316 . S
N101 C103 1.375 . S
C102 N101 1.316 . S
C102 N104 1.347 . S
C102 H113 0.931 . S
C103 N101 1.375 . S
C103 C105 1.350 . S
C103 H112 0.930 1_554 S
N104 C102 1.347 . S
N104 C105 1.373 . S
C105 C103 1.350 . S
C105 N104 1.373 . S
C105 H119 0.931 1_554 S
C106 O109 1.256 . S
C106 O110 1.255 . S
O107 Co90 2.021 . S
O107 C100 1.259 1_554 S
O108 Co92 2.117 . S
O108 C100 1.258 1_554 S
O109 Co92 2.020 . S
O109 C106 1.256 . S
O110 Co90 2.062 . S
O110 C106 1.255 . S
O111 C91 1.259 . S
O111 Co92 2.021 . S
H112 C103 0.930 1_556 S
H113 C102 0.931 . S
O114 Co90 2.117 . S
O114 C91 1.258 . S
O115 Co90 2.020 . S
O115 C117 1.256 . S
O116 Co92 2.062 . S
O116 C117 1.255 . S
C117 O115 1.256 . S
C117 O116 1.255 . S
H118 C97 0.931 . S
H119 C105 0.931 1_556 S
C120 C121 1.349 1_655 S
C120 C122 1.327 . S
C120 H145 0.950 . S
C121 C120 1.349 1_455 S
C121 C137 1.349 . S
C122 C120 1.327 . S
C122 C141 1.429 1_655 S
C122 H146 0.950 . S
C123 C140 1.574 . S
C123 C142 1.368 . S
C123 H147 0.949 . S
H124 C128 0.949 . S
C125 C126 1.349 . S
C125 C127 1.327 . S
C125 H148 0.950 . S
C126 C125 1.349 . S
C126 C138 1.349 1_455 S
C127 C125 1.327 . S
C127 C143 1.429 . S
C127 H149 0.950 . S
C128 H124 0.949 . S
C128 C136 1.574 . S
C128 C144 1.368 1_655 S
H129 C137 0.950 . S
H130 C135 0.950 . S
H131 C136 0.949 . S
H132 C138 0.950 . S
H133 C139 0.950 . S
H134 C140 0.949 . S
C135 H130 0.950 . S
C135 C137 1.327 . S
C135 C141 1.429 . S
C136 C128 1.574 . S
C136 H131 0.949 . S
C136 C142 1.368 1_655 S
C137 C121 1.349 . S
C137 H129 0.950 . S
C137 C135 1.327 . S
C138 C126 1.349 1_655 S
C138 H132 0.950 . S
C138 C139 1.327 . S
C139 H133 0.950 . S
C139 C138 1.327 . S
C139 C143 1.429 1_655 S
C140 C123 1.574 . S
C140 H134 0.949 . S
C140 C144 1.368 . S
C141 C122 1.429 1_455 S
C141 C135 1.429 . S
C141 C142 1.523 . S
C142 C123 1.368 . S
C142 C136 1.368 1_455 S
C142 C141 1.523 . S
C143 C127 1.429 . S
C143 C139 1.429 1_455 S
C143 C144 1.523 . S
C144 C128 1.368 1_455 S
C144 C140 1.368 . S
C144 C143 1.523 . S
H145 C120 0.950 . S
H146 C122 0.950 . S
H147 C123 0.949 . S
H148 C125 0.950 . S
H149 C127 0.950 . S
C150 C151 1.349 . S
C150 C152 1.327 . S
C150 H175 0.950 . S
C151 C150 1.349 . S
C151 C167 1.349 . S
C152 C150 1.327 . S
C152 C171 1.429 . S
C152 H176 0.950 . S
C153 C170 1.574 . S
C153 C172 1.368 . S
C153 H177 0.949 . S
H154 C158 0.949 . S
C155 C156 1.349 . S
C155 C157 1.327 . S
C155 H178 0.950 . S
C156 C155 1.349 . S
C156 C168 1.349 . S
C157 C155 1.327 . S
C157 C173 1.429 . S
C157 H179 0.950 . S
C158 H154 0.949 . S
C158 C166 1.574 . S
C158 C174 1.368 . S
H159 C167 0.950 . S
H160 C165 0.950 . S
H161 C166 0.949 . S
H162 C168 0.950 . S
H163 C169 0.950 . S
H164 C170 0.949 . S
C165 H160 0.950 . S
C165 C167 1.327 . S
C165 C171 1.429 . S
C166 C158 1.574 . S
C166 H161 0.949 . S
C166 C172 1.368 . S
C167 C151 1.349 . S
C167 H159 0.950 . S
C167 C165 1.327 . S
C168 C156 1.349 . S
C168 H162 0.950 . S
C168 C169 1.327 . S
C169 H163 0.950 . S
C169 C168 1.327 . S
C169 C173 1.429 . S
C170 C153 1.574 . S
C170 H164 0.949 . S
C170 C174 1.368 . S
C171 C152 1.429 . S
C171 C165 1.429 . S
C171 C172 1.523 . S
C172 C153 1.368 . S
C172 C166 1.368 . S
C172 C171 1.523 . S
C173 C157 1.429 . S
C173 C169 1.429 . S
C173 C174 1.523 . S
C174 C158 1.368 . S
C174 C170 1.368 . S
C174 C173 1.523 . S
H175 C150 0.950 . S
H176 C152 0.950 . S
H177 C153 0.949 . S
H178 C155 0.950 . S
H179 C157 0.950 . S
C180 C181 1.349 . S
C180 C182 1.327 . S
C180 H205 0.950 . S
C181 C180 1.349 . S
C181 C197 1.349 . S
C182 C180 1.327 . S
C182 C201 1.429 . S
C182 H206 0.950 . S
C183 C200 1.574 . S
C183 C202 1.368 1_556 S
C183 H207 0.949 . S
H184 C188 0.949 . S
C185 C186 1.349 . S
C185 C187 1.327 . S
C185 H208 0.950 . S
C186 C185 1.349 . S
C186 C198 1.349 . S
C187 C185 1.327 . S
C187 C203 1.429 . S
C187 H209 0.950 . S
C188 H184 0.949 . S
C188 C196 1.574 . S
C188 C204 1.368 1_554 S
H189 C197 0.950 . S
H190 C195 0.950 . S
H191 C196 0.949 . S
H192 C198 0.950 . S
H193 C199 0.950 . S
H194 C200 0.949 . S
C195 H190 0.950 . S
C195 C197 1.327 . S
C195 C201 1.429 . S
C196 C188 1.574 . S
C196 H191 0.949 . S
C196 C202 1.368 . S
C197 C181 1.349 . S
C197 H189 0.950 . S
C197 C195 1.327 . S
C198 C186 1.349 . S
C198 H192 0.950 . S
C198 C199 1.327 . S
C199 H193 0.950 . S
C199 C198 1.327 . S
C199 C203 1.429 . S
C200 C183 1.574 . S
C200 H194 0.949 . S
C200 C204 1.368 . S
C201 C182 1.429 . S
C201 C195 1.429 . S
C201 C202 1.523 . S
C202 C183 1.368 1_554 S
C202 C196 1.368 . S
C202 C201 1.523 . S
C203 C187 1.429 . S
C203 C199 1.429 . S
C203 C204 1.523 . S
C204 C188 1.368 1_556 S
C204 C200 1.368 . S
C204 C203 1.523 . S
H205 C180 0.950 . S
H206 C182 0.950 . S
H207 C183 0.949 . S
H208 C185 0.950 . S
H209 C187 0.950 . S
C210 C211 1.349 . S
C210 C212 1.327 . S
C210 H235 0.950 . S
C211 C210 1.349 . S
C211 C227 1.349 . S
C212 C210 1.327 . S
C212 C231 1.429 . S
C212 H236 0.950 . S
C213 C230 1.574 . S
C213 C232 1.368 . S
C213 H237 0.949 . S
H214 C218 0.949 . S
C215 C216 1.349 . S
C215 C217 1.327 . S
C215 H238 0.950 . S
C216 C215 1.349 . S
C216 C228 1.349 . S
C217 C215 1.327 . S
C217 C233 1.429 . S
C217 H239 0.950 . S
C218 H214 0.949 . S
C218 C226 1.574 . S
C218 C234 1.368 . S
H219 C227 0.950 . S
H220 C225 0.950 . S
H221 C226 0.949 . S
H222 C228 0.950 . S
H223 C229 0.950 . S
H224 C230 0.949 . S
C225 H220 0.950 . S
C225 C227 1.327 . S
C225 C231 1.429 . S
C226 C218 1.574 . S
C226 H221 0.949 . S
C226 C232 1.368 . S
C227 C211 1.349 . S
C227 H219 0.950 . S
C227 C225 1.327 . S
C228 C216 1.349 . S
C228 H222 0.950 . S
C228 C229 1.327 . S
C229 H223 0.950 . S
C229 C228 1.327 . S
C229 C233 1.429 . S
C230 C213 1.574 . S
C230 H224 0.949 . S
C230 C234 1.368 . S
C231 C212 1.429 . S
C231 C225 1.429 . S
C231 C232 1.523 . S
C232 C213 1.368 . S
C232 C226 1.368 . S
C232 C231 1.523 . S
C233 C217 1.429 . S
C233 C229 1.429 . S
C233 C234 1.523 . S
C234 C218 1.368 . S
C234 C230 1.368 . S
C234 C233 1.523 . S
H235 C210 0.950 . S
H236 C212 0.950 . S
H237 C213 0.949 . S
H238 C215 0.950 . S
H239 C217 0.950 . S
C240 C241 1.349 . S
C240 C242 1.327 . S
C240 H265 0.950 . S
C241 C240 1.349 . S
C241 C257 1.349 . S
C242 C240 1.327 . S
C242 C261 1.429 . S
C242 H266 0.950 . S
C243 C260 1.574 . S
C243 C262 1.368 . S
C243 H267 0.949 . S
H244 C248 0.949 . S
C245 C246 1.349 . S
C245 C247 1.327 . S
C245 H268 0.950 . S
C246 C245 1.349 . S
C246 C258 1.349 . S
C247 C245 1.327 . S
C247 C263 1.429 . S
C247 H269 0.950 . S
C248 H244 0.949 . S
C248 C256 1.574 . S
C248 C264 1.368 . S
H249 C257 0.950 . S
H250 C255 0.950 . S
H251 C256 0.949 . S
H252 C258 0.950 . S
H253 C259 0.950 . S
H254 C260 0.949 . S
C255 H250 0.950 . S
C255 C257 1.327 . S
C255 C261 1.429 . S
C256 C248 1.574 . S
C256 H251 0.949 . S
C256 C262 1.368 . S
C257 C241 1.349 . S
C257 H249 0.950 . S
C257 C255 1.327 . S
C258 C246 1.349 . S
C258 H252 0.950 . S
C258 C259 1.327 . S
C259 H253 0.950 . S
C259 C258 1.327 . S
C259 C263 1.429 . S
C260 C243 1.574 . S
C260 H254 0.949 . S
C260 C264 1.368 . S
C261 C242 1.429 . S
C261 C255 1.429 . S
C261 C262 1.523 . S
C262 C243 1.368 . S
C262 C256 1.368 . S
C262 C261 1.523 . S
C263 C247 1.429 . S
C263 C259 1.429 . S
C263 C264 1.523 . S
C264 C248 1.368 . S
C264 C260 1.368 . S
C264 C263 1.523 . S
H265 C240 0.950 . S
H266 C242 0.950 . S
H267 C243 0.949 . S
H268 C245 0.950 . S
H269 C247 0.950 . S
C270 C271 1.349 . S
C270 C272 1.327 . S
C270 H295 0.950 . S
C271 C270 1.349 . S
C271 C287 1.349 . S
C272 C270 1.327 . S
C272 C291 1.429 . S
C272 H296 0.950 . S
C273 C290 1.574 . S
C273 C292 1.368 . S
C273 H297 0.949 . S
H274 C278 0.949 . S
C275 C276 1.349 . S
C275 C277 1.327 . S
C275 H298 0.950 . S
C276 C275 1.349 . S
C276 C288 1.349 . S
C277 C275 1.327 . S
C277 C293 1.429 . S
C277 H299 0.950 . S
C278 H274 0.949 . S
C278 C286 1.574 . S
C278 C294 1.368 . S
H279 C287 0.950 . S
H280 C285 0.950 . S
H281 C286 0.949 . S
H282 C288 0.950 . S
H283 C289 0.950 . S
H284 C290 0.949 . S
C285 H280 0.950 . S
C285 C287 1.327 . S
C285 C291 1.429 . S
C286 C278 1.574 . S
C286 H281 0.949 . S
C286 C292 1.368 . S
C287 C271 1.349 . S
C287 H279 0.950 . S
C287 C285 1.327 . S
C288 C276 1.349 . S
C288 H282 0.950 . S
C288 C289 1.327 . S
C289 H283 0.950 . S
C289 C288 1.327 . S
C289 C293 1.429 . S
C290 C273 1.574 . S
C290 H284 0.949 . S
C290 C294 1.368 . S
C291 C272 1.429 . S
C291 C285 1.429 . S
C291 C292 1.523 . S
C292 C273 1.368 . S
C292 C286 1.368 . S
C292 C291 1.523 . S
C293 C277 1.429 . S
C293 C289 1.429 . S
C293 C294 1.523 . S
C294 C278 1.368 . S
C294 C290 1.368 . S
C294 C293 1.523 . S
H295 C270 0.950 . S
H296 C272 0.950 . S
H297 C273 0.949 . S
H298 C275 0.950 . S
H299 C277 0.950 . S
C300 C301 1.349 . S
C300 C302 1.327 . S
C300 H325 0.950 . S
C301 C300 1.349 . S
C301 C317 1.349 . S
C302 C300 1.327 . S
C302 C321 1.429 . S
C302 H326 0.950 . S
C303 C320 1.574 1_565 S
C303 C322 1.368 1_554 S
C303 H327 0.949 . S
H304 C308 0.949 . S
C305 C306 1.349 . S
C305 C307 1.327 . S
C305 H328 0.950 . S
C306 C305 1.349 . S
C306 C318 1.349 . S
C307 C305 1.327 . S
C307 C323 1.429 . S
C307 H329 0.950 . S
C308 H304 0.949 . S
C308 C316 1.574 1_545 S
C308 C324 1.368 1_556 S
H309 C317 0.950 . S
H310 C315 0.950 1_554 S
H311 C316 0.949 . S
H312 C318 0.950 . S
H313 C319 0.950 1_556 S
H314 C320 0.949 . S
C315 H310 0.950 1_556 S
C315 C317 1.327 . S
C315 C321 1.429 . S
C316 C308 1.574 1_565 S
C316 H311 0.949 . S
C316 C322 1.368 . S
C317 C301 1.349 . S
C317 H309 0.950 . S
C317 C315 1.327 . S
C318 C306 1.349 . S
C318 H312 0.950 . S
C318 C319 1.327 . S
C319 H313 0.950 1_554 S
C319 C318 1.327 . S
C319 C323 1.429 . S
C320 C303 1.574 1_545 S
C320 H314 0.949 . S
C320 C324 1.368 . S
C321 C302 1.429 . S
C321 C315 1.429 . S
C321 C322 1.523 . S
C322 C303 1.368 1_556 S
C322 C316 1.368 . S
C322 C321 1.523 . S
C323 C307 1.429 . S
C323 C319 1.429 . S
C323 C324 1.523 . S
C324 C308 1.368 1_554 S
C324 C320 1.368 . S
C324 C323 1.523 . S
H325 C300 0.950 . S
H326 C302 0.950 . S
H327 C303 0.949 . S
H328 C305 0.950 . S
H329 C307 0.950 . S
C330 C331 1.349 1_655 S
C330 C332 1.327 . S
C330 H355 0.950 . S
C331 C330 1.349 1_455 S
C331 C347 1.349 . S
C332 C330 1.327 . S
C332 C351 1.429 1_655 S
C332 H356 0.950 . S
C333 C350 1.574 1_565 S
C333 C352 1.368 . S
C333 H357 0.949 . S
H334 C338 0.949 . S
C335 C336 1.349 . S
C335 C337 1.327 . S
C335 H358 0.950 . S
C336 C335 1.349 . S
C336 C348 1.349 1_455 S
C337 C335 1.327 . S
C337 C353 1.429 . S
C337 H359 0.950 . S
C338 H334 0.949 . S
C338 C346 1.574 1_545 S
C338 C354 1.368 1_655 S
H339 C347 0.950 . S
H340 C345 0.950 . S
H341 C346 0.949 . S
H342 C348 0.950 . S
H343 C349 0.950 . S
H344 C350 0.949 . S
C345 H340 0.950 . S
C345 C347 1.327 . S
C345 C351 1.429 . S
C346 C338 1.574 1_565 S
C346 H341 0.949 . S
C346 C352 1.368 1_655 S
C347 C331 1.349 . S
C347 H339 0.950 . S
C347 C345 1.327 . S
C348 C336 1.349 1_655 S
C348 H342 0.950 . S
C348 C349 1.327 . S
C349 H343 0.950 . S
C349 C348 1.327 . S
C349 C353 1.429 1_655 S
C350 C333 1.574 1_545 S
C350 H344 0.949 . S
C350 C354 1.368 . S
C351 C332 1.429 1_455 S
C351 C345 1.429 . S
C351 C352 1.523 . S
C352 C333 1.368 . S
C352 C346 1.368 1_455 S
C352 C351 1.523 . S
C353 C337 1.429 . S
C353 C349 1.429 1_455 S
C353 C354 1.523 . S
C354 C338 1.368 1_455 S
C354 C350 1.368 . S
C354 C353 1.523 . S
H355 C330 0.950 . S
H356 C332 0.950 . S
H357 C333 0.949 . S
H358 C335 0.950 . S
H359 C337 0.950 . S
C360 C361 1.349 1_655 S
C360 C362 1.327 . S
C360 H385 0.950 . S
C361 C360 1.349 1_455 S
C361 C377 1.349 . S
C362 C360 1.327 . S
C362 C381 1.429 1_655 S
C362 H386 0.950 . S
C363 C380 1.574 . S
C363 C382 1.368 . S
C363 H387 0.949 . S
H364 C368 0.949 . S
C365 C366 1.349 . S
C365 C367 1.327 . S
C365 H388 0.950 . S
C366 C365 1.349 . S
C366 C378 1.349 1_455 S
C367 C365 1.327 . S
C367 C383 1.429 . S
C367 H389 0.950 . S
C368 H364 0.949 . S
C368 C376 1.574 . S
C368 C384 1.368 1_655 S
H369 C377 0.950 . S
H370 C375 0.950 . S
H371 C376 0.949 . S
H372 C378 0.950 . S
H373 C379 0.950 . S
H374 C380 0.949 . S
C375 H370 0.950 . S
C375 C377 1.327 . S
C375 C381 1.429 . S
C376 C368 1.574 . S
C376 H371 0.949 . S
C376 C382 1.368 1_655 S
C377 C361 1.349 . S
C377 H369 0.950 . S
C377 C375 1.327 . S
C378 C366 1.349 1_655 S
C378 H372 0.950 . S
C378 C379 1.327 . S
C379 H373 0.950 . S
C379 C378 1.327 . S
C379 C383 1.429 1_655 S
C380 C363 1.574 . S
C380 H374 0.949 . S
C380 C384 1.368 . S
C381 C362 1.429 1_455 S
C381 C375 1.429 . S
C381 C382 1.523 1_554 S
C382 C363 1.368 . S
C382 C376 1.368 1_455 S
C382 C381 1.523 1_556 S
C383 C367 1.429 . S
C383 C379 1.429 1_455 S
C383 C384 1.523 . S
C384 C368 1.368 1_455 S
C384 C380 1.368 . S
C384 C383 1.523 . S
H385 C360 0.950 . S
H386 C362 0.950 . S
H387 C363 0.949 . S
H388 C365 0.950 . S
H389 C367 0.950 . S
C390 C391 1.349 . S
C390 C392 1.327 . S
C390 H415 0.950 . S
C391 C390 1.349 . S
C391 C407 1.349 1_455 S
C392 C390 1.327 . S
C392 C411 1.429 . S
C392 H416 0.950 . S
C393 C410 1.574 . S
C393 C412 1.368 1_655 S
C393 H417 0.949 . S
H394 C398 0.949 . S
C395 C396 1.349 1_655 S
C395 C397 1.327 . S
C395 H418 0.950 . S
C396 C395 1.349 1_455 S
C396 C408 1.349 . S
C397 C395 1.327 . S
C397 C413 1.429 1_655 S
C397 H419 0.950 . S
C398 H394 0.949 . S
C398 C406 1.574 . S
C398 C414 1.368 . S
H399 C407 0.950 . S
H400 C405 0.950 . S
H401 C406 0.949 . S
H402 C408 0.950 . S
H403 C409 0.950 . S
H404 C410 0.949 . S
C405 H400 0.950 . S
C405 C407 1.327 . S
C405 C411 1.429 1_655 S
C406 C398 1.574 . S
C406 H401 0.949 . S
C406 C412 1.368 . S
C407 C391 1.349 1_655 S
C407 H399 0.950 . S
C407 C405 1.327 . S
C408 C396 1.349 . S
C408 H402 0.950 . S
C408 C409 1.327 . S
C409 H403 0.950 . S
C409 C408 1.327 . S
C409 C413 1.429 . S
C410 C393 1.574 . S
C410 H404 0.949 . S
C410 C414 1.368 1_655 S
C411 C392 1.429 . S
C411 C405 1.429 1_455 S
C411 C412 1.523 1_556 S
C412 C393 1.368 1_455 S
C412 C406 1.368 . S
C412 C411 1.523 1_554 S
C413 C397 1.429 1_455 S
C413 C409 1.429 . S
C413 C414 1.523 . S
C414 C398 1.368 . S
C414 C410 1.368 1_455 S
C414 C413 1.523 . S
H415 C390 0.950 . S
H416 C392 0.950 . S
H417 C393 0.949 . S
H418 C395 0.950 . S
H419 C397 0.950 . S
C420 C421 1.349 . S
C420 C422 1.327 . S
C420 H445 0.950 . S
C421 C420 1.349 . S
C421 C437 1.349 . S
C422 C420 1.327 . S
C422 C441 1.429 . S
C422 H446 0.950 . S
C423 C440 1.574 . S
C423 C442 1.368 . S
C423 H447 0.949 . S
H424 C428 0.949 . S
C425 C426 1.349 . S
C425 C427 1.327 . S
C425 H448 0.950 . S
C426 C425 1.349 . S
C426 C438 1.349 . S
C427 C425 1.327 . S
C427 C443 1.429 . S
C427 H449 0.950 . S
C428 H424 0.949 . S
C428 C436 1.574 . S
C428 C444 1.368 . S
H429 C437 0.950 . S
H430 C435 0.950 . S
H431 C436 0.949 . S
H432 C438 0.950 . S
H433 C439 0.950 . S
H434 C440 0.949 . S
C435 H430 0.950 . S
C435 C437 1.327 . S
C435 C441 1.429 . S
C436 C428 1.574 . S
C436 H431 0.949 . S
C436 C442 1.368 . S
C437 C421 1.349 . S
C437 H429 0.950 . S
C437 C435 1.327 . S
C438 C426 1.349 . S
C438 H432 0.950 . S
C438 C439 1.327 . S
C439 H433 0.950 . S
C439 C438 1.327 . S
C439 C443 1.429 . S
C440 C423 1.574 . S
C440 H434 0.949 . S
C440 C444 1.368 . S
C441 C422 1.429 . S
C441 C435 1.429 . S
C441 C442 1.523 . S
C442 C423 1.368 . S
C442 C436 1.368 . S
C442 C441 1.523 . S
C443 C427 1.429 . S
C443 C439 1.429 . S
C443 C444 1.523 . S
C444 C428 1.368 . S
C444 C440 1.368 . S
C444 C443 1.523 . S
H445 C420 0.950 . S
H446 C422 0.950 . S
H447 C423 0.949 . S
H448 C425 0.950 . S
H449 C427 0.950 . S
C450 C451 1.349 . S
C450 C452 1.327 . S
C450 H475 0.950 . S
C451 C450 1.349 . S
C451 C467 1.349 . S
C452 C450 1.327 . S
C452 C471 1.429 . S
C452 H476 0.950 . S
C453 C470 1.574 . S
C453 C472 1.368 . S
C453 H477 0.949 . S
H454 C458 0.949 . S
C455 C456 1.349 . S
C455 C457 1.327 . S
C455 H478 0.950 . S
C456 C455 1.349 . S
C456 C468 1.349 . S
C457 C455 1.327 . S
C457 C473 1.429 . S
C457 H479 0.950 . S
C458 H454 0.949 . S
C458 C466 1.574 . S
C458 C474 1.368 . S
H459 C467 0.950 . S
H460 C465 0.950 . S
H461 C466 0.949 . S
H462 C468 0.950 . S
H463 C469 0.950 . S
H464 C470 0.949 . S
C465 H460 0.950 . S
C465 C467 1.327 . S
C465 C471 1.429 . S
C466 C458 1.574 . S
C466 H461 0.949 . S
C466 C472 1.368 . S
C467 C451 1.349 . S
C467 H459 0.950 . S
C467 C465 1.327 . S
C468 C456 1.349 . S
C468 H462 0.950 . S
C468 C469 1.327 . S
C469 H463 0.950 . S
C469 C468 1.327 . S
C469 C473 1.429 . S
C470 C453 1.574 . S
C470 H464 0.949 . S
C470 C474 1.368 . S
C471 C452 1.429 . S
C471 C465 1.429 . S
C471 C472 1.523 . S
C472 C453 1.368 . S
C472 C466 1.368 . S
C472 C471 1.523 . S
C473 C457 1.429 . S
C473 C469 1.429 . S
C473 C474 1.523 . S
C474 C458 1.368 . S
C474 C470 1.368 . S
C474 C473 1.523 . S
H475 C450 0.950 . S
H476 C452 0.950 . S
H477 C453 0.949 . S
H478 C455 0.950 . S
H479 C457 0.950 . S
C121 N14 1.872 . S
C126 N36 1.872 1_455 S
C151 C76 1.838 . S
C156 C57 1.838 . S
C181 N104 1.636 . S
C186 N66 1.636 . S
C211 C27 1.711 . S
C216 C106 1.711 . S
C241 C117 1.838 . S
C246 C16 1.838 . S
C271 C87 1.711 . S
C276 C46 1.711 . S
C301 N74 1.872 . S
C306 N96 1.872 . S
C331 N44 1.636 . S
C336 N6 1.644 . S
C361 C10 0.733 . S
C366 C1 0.733 . S
C391 C31 0.733 . S
C396 C40 0.733 . S
C421 C61 0.733 . S
C426 C70 0.733 . S
C451 C91 0.733 . S
C456 C100 0.733 . S
