# Generated by pormake.
# Topology rac, (4)-cn, num edge types: 1
# Building blocks:
#     Node 0, Type 0, BuildingBlock: NAHDIM_clean_sbu_0, # of connection points: 4
#     Node 1, Type 0, BuildingBlock: NAHDIM_clean_sbu_0, # of connection points: 4
#     Node 2, Type 0, BuildingBlock: NAHDIM_clean_sbu_0, # of connection points: 4
#     Node 3, Type 0, BuildingBlock: NAHDIM_clean_sbu_0, # of connection points: 4
#     Node 4, Type 0, BuildingBlock: NAHDIM_clean_sbu_0, # of connection points: 4
#     Node 5, Type 0, BuildingBlock: NAHDIM_clean_sbu_0, # of connection points: 4
#     Node 6, Type 0, BuildingBlock: NAHDIM_clean_sbu_0, # of connection points: 4
#     Node 7, Type 0, BuildingBlock: NAHDIM_clean_sbu_0, # of connection points: 4
#     Edge 8, Type (0, 0), BuildingBlock: EZIPEK_clean_linker_0, # of connection points: 2
#     Edge 9, Type (0, 0), BuildingBlock: EZIPEK_clean_linker_0, # of connection points: 2
#     Edge 10, Type (0, 0), BuildingBlock: EZIPEK_clean_linker_0, # of connection points: 2
#     Edge 11, Type (0, 0), BuildingBlock: EZIPEK_clean_linker_0, # of connection points: 2
#     Edge 12, Type (0, 0), BuildingBlock: EZIPEK_clean_linker_0, # of connection points: 2
#     Edge 13, Type (0, 0), BuildingBlock: EZIPEK_clean_linker_0, # of connection points: 2
#     Edge 14, Type (0, 0), BuildingBlock: EZIPEK_clean_linker_0, # of connection points: 2
#     Edge 15, Type (0, 0), BuildingBlock: EZIPEK_clean_linker_0, # of connection points: 2
#     Edge 16, Type (0, 0), BuildingBlock: EZIPEK_clean_linker_0, # of connection points: 2
#     Edge 17, Type (0, 0), BuildingBlock: EZIPEK_clean_linker_0, # of connection points: 2
#     Edge 18, Type (0, 0), BuildingBlock: EZIPEK_clean_linker_0, # of connection points: 2
#     Edge 19, Type (0, 0), BuildingBlock: EZIPEK_clean_linker_0, # of connection points: 2
#     Edge 20, Type (0, 0), BuildingBlock: EZIPEK_clean_linker_0, # of connection points: 2
#     Edge 21, Type (0, 0), BuildingBlock: EZIPEK_clean_linker_0, # of connection points: 2
#     Edge 22, Type (0, 0), BuildingBlock: EZIPEK_clean_linker_0, # of connection points: 2
#     Edge 23, Type (0, 0), BuildingBlock: EZIPEK_clean_linker_0, # of connection points: 2
# Relax obj value: 0.219
# Max RMSD: 0.117
# Mean RMSD: 0.117
data_MOF--net-rac--node1-NAHDIM_clean_sbu_0--edge1-EZIPEK_clean_linker_0
_symmetry_space_group_name_H-M    P1
_symmetry_Int_Tables_number       1
_symmetry_cell_setting            triclinic
loop_
_symmetry_equiv_pos_as_xyz
'x, y, z'
_cell_length_a     29.749235
_cell_length_b     15.412196
_cell_length_c     30.726023
_cell_angle_alpha  89.977047
_cell_angle_beta   90.147087
_cell_angle_gamma 89.857922
loop_
_atom_site_label
_atom_site_type_symbol
_atom_site_fract_x
_atom_site_fract_y
_atom_site_fract_z
_atom_type_partial_charge
C0 C 0.4396 0.39336 0.03575 0.0
O1 O 0.42004 0.41385 0.07264 0.0
O2 O 0.40981 0.23614 0.11543 0.0
Zn3 Zn 0.38681 0.25089 0.0537 0.0
O4 O 0.33564 0.33397 0.05621 0.0
C5 C 0.35148 0.07509 0.04799 0.0
O6 O 0.36672 0.07111 0.08807 0.0
O7 O 0.43243 0.31887 0.01904 0.0
C8 C 0.2943 0.31445 0.05575 0.0
O9 O 0.28139 0.23324 0.05651 0.0
C10 C 0.38055 0.23063 0.1453 0.0
O11 O 0.33789 0.22651 0.13475 0.0
O12 O 0.3604 0.14204 0.02544 0.0
C13 C 0.05554 0.63833 0.04788 0.0
O14 O 0.06712 0.61382 0.08725 0.0
O15 O 0.10368 0.76897 0.13239 0.0
Zn16 Zn 0.12461 0.74836 0.06984 0.0
O17 O 0.16232 0.6429 0.07124 0.0
C18 C 0.20188 0.85616 0.06624 0.0
O19 O 0.20692 0.81803 0.10416 0.0
O20 O 0.07346 0.70614 0.03174 0.0
C21 C 0.18807 0.62233 0.0402 0.0
O22 O 0.19111 0.67277 0.00586 0.0
C23 C 0.12445 0.72925 0.16283 0.0
O24 O 0.15973 0.68169 0.15361 0.0
O25 O 0.16604 0.84183 0.04457 0.0
C26 C 0.42618 0.10509 0.44856 0.0
O27 O 0.40779 0.06445 0.41554 0.0
O28 O 0.38565 0.26856 0.35962 0.0
Zn29 Zn 0.36354 0.23009 0.41907 0.0
O30 O 0.32384 0.12858 0.40942 0.0
C31 C 0.28622 0.33445 0.42677 0.0
O32 O 0.281 0.29823 0.38841 0.0
O33 O 0.41449 0.18306 0.45684 0.0
C34 C 0.30333 0.09675 0.44165 0.0
O35 O 0.3075 0.13299 0.48015 0.0
C36 C 0.38448 0.21267 0.32912 0.0
O37 O 0.37259 0.13269 0.33793 0.0
O38 O 0.3223 0.3193 0.44798 0.0
C39 C 0.04742 0.86981 0.45549 0.0
O40 O 0.06761 0.89186 0.41922 0.0
O41 O 0.08038 0.71331 0.37466 0.0
Zn42 Zn 0.10132 0.72846 0.43717 0.0
O43 O 0.15141 0.81306 0.43451 0.0
C44 C 0.13534 0.55066 0.44595 0.0
O45 O 0.11682 0.54144 0.40742 0.0
O46 O 0.05437 0.79455 0.47146 0.0
C47 C 0.19282 0.79396 0.43309 0.0
O48 O 0.20595 0.71269 0.43178 0.0
C49 C 0.11024 0.70247 0.34564 0.0
O50 O 0.15221 0.69014 0.35721 0.0
O51 O 0.12906 0.62154 0.46616 0.0
C52 C 0.54582 0.65744 0.95083 0.0
O53 O 0.56493 0.63181 0.91454 0.0
O54 O 0.59492 0.7953 0.87001 0.0
Zn55 Zn 0.61025 0.77925 0.9343 0.0
O56 O 0.65372 0.68175 0.94093 0.0
C57 C 0.64791 0.95426 0.94064 0.0
O58 O 0.62012 0.97271 0.9087 0.0
O59 O 0.55726 0.73015 0.96729 0.0
C60 C 0.69604 0.69053 0.94172 0.0
O61 O 0.71403 0.76717 0.93532 0.0
C62 C 0.62286 0.77034 0.84131 0.0
O63 O 0.66146 0.7369 0.85336 0.0
O64 O 0.64473 0.88137 0.95966 0.0
C65 C 0.94417 0.39714 0.95158 0.0
O66 O 0.93476 0.41359 0.91061 0.0
O67 O 0.89654 0.25951 0.87184 0.0
Zn68 Zn 0.87567 0.28189 0.93373 0.0
O69 O 0.83126 0.37734 0.93351 0.0
C70 C 0.80582 0.16572 0.93333 0.0
O71 O 0.80057 0.21144 0.89764 0.0
O72 O 0.92531 0.333 0.97026 0.0
C73 C 0.81539 0.40383 0.96937 0.0
O74 O 0.82763 0.36661 0.00601 0.0
C75 C 0.87621 0.29697 0.84053 0.0
O76 O 0.84343 0.35156 0.84893 0.0
O77 O 0.8403 0.17902 0.95711 0.0
C78 C 0.54461 0.87746 0.54449 0.0
O79 O 0.56279 0.90744 0.58044 0.0
O80 O 0.59728 0.74734 0.62704 0.0
Zn81 Zn 0.61225 0.76308 0.56279 0.0
O82 O 0.65314 0.86411 0.55522 0.0
C83 C 0.65272 0.59011 0.55748 0.0
O84 O 0.62517 0.57096 0.58933 0.0
O85 O 0.55794 0.80474 0.52941 0.0
C86 C 0.69555 0.85668 0.55589 0.0
O87 O 0.71411 0.78111 0.56429 0.0
C88 C 0.6241 0.7758 0.65599 0.0
O89 O 0.66165 0.81333 0.64431 0.0
O90 O 0.6487 0.66268 0.53829 0.0
C91 C 0.93781 0.1291 0.53995 0.0
O92 O 0.91606 0.09599 0.57316 0.0
O93 O 0.89913 0.27697 0.62671 0.0
Zn94 Zn 0.87891 0.2584 0.56433 0.0
O95 O 0.83205 0.16711 0.56329 0.0
C96 C 0.8108 0.37843 0.56503 0.0
O97 O 0.80459 0.33112 0.60001 0.0
O98 O 0.92987 0.20743 0.52883 0.0
C99 C 0.81532 0.14112 0.52769 0.0
O100 O 0.8281 0.1757 0.49069 0.0
C101 C 0.87892 0.23761 0.65733 0.0
O102 O 0.84687 0.1823 0.64793 0.0
O103 O 0.84546 0.36468 0.54165 0.0
C104 C 0.3227 0.92238 0.04733 0.0
C105 C 0.31729 0.00966 0.03389 0.0
C106 C 0.23563 0.99032 0.03055 0.0
C107 C 0.24063 0.90524 0.04765 0.0
N108 N 0.28901 0.78006 0.05393 0.0
N109 N 0.27149 0.10585 0.99022 0.0
C110 C 0.28433 0.86787 0.0502 0.0
C111 C 0.27471 0.03715 0.01803 0.0
N112 N 0.36453 0.89219 0.05784 0.0
N113 N 0.19431 0.02884 0.02856 0.0
H114 H 0.29966 0.1364 0.97734 0.0
H115 H 0.24134 0.1245 0.97557 0.0
H116 H 0.16483 -0.00216 0.03798 0.0
H117 H 0.18995 0.09418 0.02078 0.0
H118 H 0.37025 0.83289 0.07318 0.0
H119 H 0.39352 0.92843 0.05204 0.0
H120 H 0.31984 0.74802 0.05271 0.0
H121 H 0.26147 0.7386 0.05297 0.0
C122 C 0.21322 0.51556 0.47462 0.0
C123 C 0.17052 0.48652 0.45992 0.0
C124 C 0.20431 0.34446 0.44488 0.0
C125 C 0.24765 0.38294 0.44605 0.0
N126 N 0.29346 0.50798 0.46282 0.0
N127 N 0.12364 0.36633 0.43946 0.0
C128 C 0.25236 0.46882 0.46197 0.0
C129 C 0.16551 0.39823 0.44805 0.0
N130 N 0.21652 0.58525 0.50173 0.0
N131 N 0.20051 0.25638 0.44212 0.0
H132 H 0.09453 0.40199 0.44592 0.0
H133 H 0.11793 0.306 0.42526 0.0
H134 H 0.22857 0.21583 0.44297 0.0
H135 H 0.17008 0.2234 0.44409 0.0
H136 H 0.24687 0.60453 0.51569 0.0
H137 H 0.18847 0.61545 0.51519 0.0
H138 H 0.29751 0.57378 0.4696 0.0
H139 H 0.323 0.47668 0.45355 0.0
C140 C 0.69978 0.06054 0.97778 0.0
C141 C 0.69135 0.00134 0.9434 0.0
C142 C 0.76637 0.03001 0.9136 0.0
C143 C 0.77165 0.09891 0.94348 0.0
N144 N 0.74394 0.18241 0.004 0.0
N145 N 0.71572 0.93154 0.87702 0.0
C146 C 0.73885 0.1141 0.97612 0.0
C147 C 0.72458 0.98609 0.91103 0.0
N148 N 0.67039 0.06566 0.01178 0.0
N149 N 0.80187 0.00602 0.88809 0.0
H150 H 0.68641 0.89516 0.87471 0.0
H151 H 0.73613 0.92619 0.84967 0.0
H152 H 0.83315 0.03626 0.89024 0.0
H153 H 0.80192 0.95117 0.86832 0.0
H154 H 0.67659 0.1013 0.03993 0.0
H155 H 0.64101 0.02892 0.01318 0.0
H156 H 0.71886 0.20399 0.02496 0.0
H157 H 0.77286 0.22043 0.00468 0.0
C158 C 0.70518 0.48551 0.51996 0.0
C159 C 0.69647 0.54384 0.55463 0.0
C160 C 0.77144 0.51449 0.58492 0.0
C161 C 0.77695 0.44618 0.55472 0.0
N162 N 0.74988 0.36465 0.49321 0.0
N163 N 0.72067 0.61369 0.6211 0.0
C164 C 0.7444 0.43203 0.5216 0.0
C165 C 0.72961 0.55883 0.58722 0.0
N166 N 0.67589 0.48114 0.4857 0.0
N167 N 0.80678 0.53751 0.61095 0.0
H168 H 0.69149 0.65089 0.62302 0.0
H169 H 0.74095 0.6189 0.64862 0.0
H170 H 0.83808 0.50704 0.60888 0.0
H171 H 0.80672 0.59173 0.63114 0.0
H172 H 0.68226 0.44621 0.45739 0.0
H173 H 0.6464 0.51784 0.4843 0.0
H174 H 0.725 0.34358 0.47185 0.0
H175 H 0.779 0.32693 0.49244 0.0
C176 C 0.37313 0.30857 0.21558 0.0
C177 C 0.3929 0.23994 0.19168 0.0
C178 C 0.4229 0.17929 0.25925 0.0
C179 C 0.39422 0.23532 0.28323 0.0
N180 N 0.33959 0.35236 0.28354 0.0
N181 N 0.43737 0.10899 0.19012 0.0
C182 C 0.36936 0.30118 0.26143 0.0
C183 C 0.41886 0.17581 0.21319 0.0
N184 N 0.35821 0.381 0.19429 0.0
N185 N 0.45396 0.12968 0.28073 0.0
H186 H 0.43561 0.105 0.15629 0.0
H187 H 0.45208 0.05487 0.2047 0.0
H188 H 0.45817 0.13274 0.31444 0.0
H189 H 0.47835 0.09281 0.26495 0.0
H190 H 0.34695 0.4365 0.2103 0.0
H191 H 0.36185 0.38884 0.16073 0.0
H192 H 0.31674 0.39341 0.26804 0.0
H193 H 0.33513 0.34976 0.31707 0.0
C194 C 0.0961 0.63691 0.2727 0.0
C195 C 0.09963 0.71197 0.29891 0.0
C196 C 0.10853 0.80328 0.23411 0.0
C197 C 0.10738 0.72748 0.20802 0.0
N198 N 0.08782 0.57664 0.20029 0.0
N199 N 0.0972 0.86754 0.30542 0.0
C200 C 0.09702 0.64567 0.22673 0.0
C201 C 0.10148 0.79566 0.27975 0.0
N202 N 0.09369 0.55708 0.29193 0.0
N203 N 0.11949 0.88127 0.21583 0.0
H204 H 0.09284 0.86354 0.33899 0.0
H205 H 0.09416 0.93036 0.2933 0.0
H206 H 0.12418 0.88949 0.18248 0.0
H207 H 0.12639 0.93695 0.23377 0.0
H208 H 0.09709 0.49882 0.27512 0.0
H209 H 0.08992 0.54928 0.32543 0.0
H210 H 0.07613 0.51712 0.21151 0.0
H211 H 0.0881 0.58136 0.16647 0.0
C212 C 0.60902 0.69282 0.77156 0.0
C213 C 0.61173 0.77254 0.7944 0.0
C214 C 0.60717 0.85198 0.72551 0.0
C215 C 0.61263 0.77265 0.70276 0.0
N216 N 0.62024 0.61686 0.70347 0.0
N217 N 0.61466 0.92883 0.79388 0.0
C218 C 0.61314 0.69259 0.72551 0.0
C219 C 0.61033 0.85256 0.77166 0.0
N220 N 0.60221 0.61748 0.79409 0.0
N221 N 0.59861 0.92656 0.70281 0.0
H222 H 0.61592 0.93178 0.8277 0.0
H223 H 0.61969 0.98857 0.77886 0.0
H224 H 0.59577 0.9278 0.66895 0.0
H225 H 0.59016 0.98521 0.7175 0.0
H226 H 0.59575 0.5581 0.77922 0.0
H227 H 0.59876 0.61596 0.82787 0.0
H228 H 0.62669 0.55772 0.71866 0.0
H229 H 0.62245 0.61403 0.66971 0.0
C230 C 0.8883 0.34022 0.72079 0.0
C231 C 0.88954 0.25465 0.70367 0.0
C232 C 0.88866 0.19461 0.77745 0.0
C233 C 0.88826 0.2802 0.79455 0.0
N234 N 0.9033 0.43207 0.78302 0.0
N235 N 0.90618 0.10336 0.7156 0.0
C236 C 0.89339 0.35222 0.7663 0.0
C237 C 0.89491 0.1828 0.73206 0.0
N238 N 0.87901 0.4096 0.69454 0.0
N239 N 0.8799 0.12491 0.80356 0.0
H240 H 0.91217 0.09333 0.68251 0.0
H241 H 0.91438 0.05036 0.73517 0.0
H242 H 0.87396 0.12987 0.83682 0.0
H243 H 0.87467 0.0626 0.79144 0.0
H244 H 0.87259 0.47159 0.70659 0.0
H245 H 0.87368 0.40457 0.66117 0.0
H246 H 0.91131 0.48532 0.76363 0.0
H247 H 0.90842 0.44237 0.81624 0.0
C248 C 0.44534 0.53744 -0.00174 0.0
C249 C 0.46672 0.46006 0.01307 0.0
C250 C 0.54021 0.51704 0.99128 0.0
C251 C 0.51878 0.59364 0.97564 0.0
N252 N 0.45291 0.68343 0.9688 0.0
N253 N 0.53306 0.37144 0.02087 0.0
C254 C 0.47185 0.60591 0.98061 0.0
C255 C 0.51378 0.44847 0.00869 0.0
N256 N 0.3994 0.54303 -0.00108 0.0
N257 N 0.58617 0.51233 0.99164 0.0
H258 H 0.51528 0.32172 0.03602 0.0
H259 H 0.56608 0.35404 0.014 0.0
H260 H 0.60663 0.56245 0.98062 0.0
H261 H 0.60458 0.46251 0.00601 0.0
H262 H 0.38096 0.59381 0.98547 0.0
H263 H 0.37887 0.49326 0.01035 0.0
H264 H 0.41983 0.70097 0.97527 0.0
H265 H 0.47124 0.73353 0.95457 0.0
C266 C 0.98521 0.60597 0.0053 0.0
C267 C 0.02778 0.5789 0.02104 0.0
C268 C 0.01387 0.43065 0.99457 0.0
C269 C 0.9725 0.45892 0.97645 0.0
N270 N 0.92001 0.575 0.96063 0.0
N271 N 0.08633 0.47029 0.02452 0.0
C272 C 0.95869 0.54721 0.98042 0.0
C273 C 0.04304 0.49239 0.01416 0.0
N274 N 0.96904 0.68621 0.01623 0.0
N275 N 0.02544 0.34474 0.99297 0.0
H276 H 0.10907 0.5137 0.03821 0.0
H277 H 0.10125 0.41156 0.01605 0.0
H278 H 0.00679 0.29839 0.97613 0.0
H279 H 0.05207 0.31804 0.01051 0.0
H280 H 0.93612 0.70625 0.01049 0.0
H281 H 0.98759 0.73114 0.03414 0.0
H282 H 0.9114 0.64014 0.95708 0.0
H283 H 0.89694 0.5333 0.94604 0.0
C284 C 0.47353 0.96387 0.53863 0.0
C285 C 0.51422 0.93512 0.51938 0.0
C286 C 0.49937 0.02601 0.45533 0.0
C287 C 0.45955 0.0574 0.47538 0.0
N288 N 0.41315 0.06976 0.53942 0.0
N289 N 0.57108 0.95312 0.46414 0.0
C290 C 0.44816 0.03094 0.5182 0.0
C291 C 0.52859 0.96989 0.47894 0.0
N292 N 0.45816 0.92421 0.57551 0.0
N293 N 0.5092 0.04977 0.41354 0.0
H294 H 0.59384 0.9132 0.48053 0.0
H295 H 0.58531 0.9845 0.43754 0.0
H296 H 0.491 0.09687 0.39656 0.0
H297 H 0.53412 0.02007 0.39499 0.0
H298 H 0.42641 0.93523 0.58859 0.0
H299 H 0.47558 0.87409 0.59103 0.0
H300 H 0.40623 0.05992 0.57224 0.0
H301 H 0.39294 0.11735 0.52527 0.0
C302 C 0.96008 0.04621 0.47294 0.0
C303 C 0.96995 0.07266 0.51617 0.0
C304 C 0.03296 0.96913 0.51884 0.0
C305 C 0.01932 0.93544 0.47791 0.0
N306 N 0.96627 0.93296 0.41855 0.0
N307 N 0.01465 0.05815 0.58141 0.0
C308 C 0.98205 0.97194 0.45553 0.0
C309 C 0.00606 0.03356 0.53945 0.0
N310 N 0.92988 0.09188 0.44834 0.0
N311 N 0.07276 0.94284 0.537 0.0
H312 H -0.00127 0.11078 0.59622 0.0
H313 H 0.03618 0.02431 0.60216 0.0
H314 H 0.09357 0.8962 0.52291 0.0
H315 H 0.0871 0.97205 0.56422 0.0
H316 H 0.92505 0.08133 0.41518 0.0
H317 H 0.91224 0.14543 0.45991 0.0
H318 H 0.93623 0.95034 0.40338 0.0
H319 H 0.98093 0.87742 0.40526 0.0
C320 C 0.2129 0.47927 0.00955 0.0
C321 C 0.21435 0.54164 0.04356 0.0
C322 C 0.25689 0.4408 0.08901 0.0
C323 C 0.26139 0.38486 0.053 0.0
N324 N 0.24816 0.35324 0.97715 0.0
N325 N 0.24562 0.58793 0.11267 0.0
C326 C 0.24049 0.40439 0.0127 0.0
C327 C 0.23837 0.52409 0.08261 0.0
N328 N 0.18397 0.48936 0.97527 0.0
N329 N 0.26959 0.41358 0.12952 0.0
H330 H 0.23451 0.65147 0.10861 0.0
H331 H 0.26685 0.58018 0.13942 0.0
H332 H 0.28165 0.35109 0.13529 0.0
H333 H 0.26329 0.44902 0.15774 0.0
H334 H 0.17833 0.44119 0.95213 0.0
H335 H 0.16211 0.54194 0.97217 0.0
H336 H 0.23809 0.37024 0.94578 0.0
H337 H 0.26734 0.29658 0.9785 0.0
C338 C 0.2448 0.00774 0.40349 0.0
C339 C 0.27811 0.01541 0.43646 0.0
C340 C 0.25747 0.87391 0.46589 0.0
C341 C 0.22562 0.86473 0.4319 0.0
N342 N 0.19741 0.91088 0.36196 0.0
N343 N 0.32568 0.94429 0.48949 0.0
C344 C 0.22195 0.92797 0.39864 0.0
C345 C 0.28739 0.94497 0.46484 0.0
N346 N 0.2334 0.07728 0.37808 0.0
N347 N 0.25778 0.81769 0.50029 0.0
H348 H 0.34971 0.99319 0.48773 0.0
H349 H 0.33606 0.89075 0.50768 0.0
H350 H 0.23569 0.76562 0.50289 0.0
H351 H 0.27721 0.82744 0.52812 0.0
H352 H 0.20555 0.07774 0.35746 0.0
H353 H 0.24926 0.13721 0.37996 0.0
H354 H 0.19714 0.95109 0.3347 0.0
H355 H 0.18106 0.852 0.35695 0.0
C356 C 0.71792 0.53544 0.92931 0.0
C357 C 0.72459 0.61488 0.95181 0.0
C358 C 0.78935 0.55297 0.9901 0.0
C359 C 0.78138 0.47301 0.96874 0.0
N360 N 0.73022 0.38044 0.92959 0.0
N361 N 0.75782 0.69022 0.01296 0.0
C362 C 0.74308 0.46183 0.94201 0.0
C363 C 0.75772 0.62116 0.98504 0.0
N364 N 0.68945 0.53082 0.89439 0.0
N365 N 0.82777 0.56523 0.01377 0.0
H366 H 0.73386 0.73967 0.01176 0.0
H367 H 0.77858 0.69363 0.04026 0.0
H368 H 0.8515 0.5165 0.01907 0.0
H369 H 0.83774 0.62572 0.02539 0.0
H370 H 0.68738 0.47661 0.87424 0.0
H371 H 0.67108 0.58344 0.88274 0.0
H372 H 0.70008 0.36773 0.91349 0.0
H373 H 0.74715 0.32477 0.93988 0.0
C374 C 0.75828 0.92351 0.51387 0.0
C375 C 0.72379 0.93215 0.54542 0.0
C376 C 0.74233 0.08539 0.55412 0.0
C377 C 0.78145 0.07217 0.52888 0.0
N378 N 0.83033 0.97538 0.48904 0.0
N379 N 0.68667 0.01945 0.60032 0.0
C380 C 0.79039 0.99054 0.50957 0.0
C381 C 0.71643 0.0128 0.56664 0.0
N382 N 0.75946 0.85299 0.48691 0.0
N383 N 0.7296 0.16754 0.56552 0.0
H384 H 0.66771 0.96767 0.61178 0.0
H385 H 0.68394 0.07458 0.61976 0.0
H386 H 0.74743 0.22239 0.55583 0.0
H387 H 0.69901 0.18173 0.58038 0.0
H388 H 0.78152 0.84785 0.46074 0.0
H389 H 0.73525 0.80419 0.48755 0.0
H390 H 0.84047 0.91393 0.47882 0.0
H391 H 0.85502 0.02259 0.48551 0.0
loop_
_geom_bond_atom_site_label_1
_geom_bond_atom_site_label_2
_geom_bond_distance
_geom_bond_site_symmetry_2
_ccdc_geom_bond_type
C0 O1 1.160 . S
C0 O7 1.185 . S
O1 C0 1.160 . S
O2 Zn3 1.899 . S
O2 C10 1.284 . S
Zn3 O2 1.899 . S
Zn3 O4 2.032 . S
Zn3 O7 2.086 . S
Zn3 O12 1.977 . S
O4 Zn3 2.032 . S
O4 C8 1.278 . S
C5 O6 1.203 . S
C5 O12 1.267 . S
O6 C5 1.203 . S
O7 C0 1.185 . S
O7 Zn3 2.086 . S
C8 O4 1.278 . S
C8 O9 1.211 . S
O9 C8 1.211 . S
C10 O2 1.284 . S
C10 O11 1.273 . S
O11 C10 1.273 . S
O12 Zn3 1.977 . S
O12 C5 1.267 . S
C13 O14 1.160 . S
C13 O20 1.185 . S
O14 C13 1.160 . S
O15 Zn16 1.899 . S
O15 C23 1.284 . S
Zn16 O15 1.899 . S
Zn16 O17 2.032 . S
Zn16 O20 2.086 . S
Zn16 O25 1.977 . S
O17 Zn16 2.032 . S
O17 C21 1.278 . S
C18 O19 1.203 . S
C18 O25 1.267 . S
O19 C18 1.203 . S
O20 C13 1.185 . S
O20 Zn16 2.086 . S
C21 O17 1.278 . S
C21 O22 1.211 . S
O22 C21 1.211 . S
C23 O15 1.284 . S
C23 O24 1.273 . S
O24 C23 1.273 . S
O25 Zn16 1.977 . S
O25 C18 1.267 . S
C26 O27 1.160 . S
C26 O33 1.185 . S
O27 C26 1.160 . S
O28 Zn29 1.899 . S
O28 C36 1.284 . S
Zn29 O28 1.899 . S
Zn29 O30 2.032 . S
Zn29 O33 2.086 . S
Zn29 O38 1.977 . S
O30 Zn29 2.032 . S
O30 C34 1.278 . S
C31 O32 1.203 . S
C31 O38 1.267 . S
O32 C31 1.203 . S
O33 C26 1.185 . S
O33 Zn29 2.086 . S
C34 O30 1.278 . S
C34 O35 1.211 . S
O35 C34 1.211 . S
C36 O28 1.284 . S
C36 O37 1.273 . S
O37 C36 1.273 . S
O38 Zn29 1.977 . S
O38 C31 1.267 . S
C39 O40 1.160 . S
C39 O46 1.185 . S
O40 C39 1.160 . S
O41 Zn42 1.899 . S
O41 C49 1.284 . S
Zn42 O41 1.899 . S
Zn42 O43 2.032 . S
Zn42 O46 2.086 . S
Zn42 O51 1.977 . S
O43 Zn42 2.032 . S
O43 C47 1.278 . S
C44 O45 1.203 . S
C44 O51 1.267 . S
O45 C44 1.203 . S
O46 C39 1.185 . S
O46 Zn42 2.086 . S
C47 O43 1.278 . S
C47 O48 1.211 . S
O48 C47 1.211 . S
C49 O41 1.284 . S
C49 O50 1.273 . S
O50 C49 1.273 . S
O51 Zn42 1.977 . S
O51 C44 1.267 . S
C52 O53 1.160 . S
C52 O59 1.185 . S
O53 C52 1.160 . S
O54 Zn55 1.899 . S
O54 C62 1.284 . S
Zn55 O54 1.899 . S
Zn55 O56 2.032 . S
Zn55 O59 2.086 . S
Zn55 O64 1.977 . S
O56 Zn55 2.032 . S
O56 C60 1.278 . S
C57 O58 1.203 . S
C57 O64 1.267 . S
O58 C57 1.203 . S
O59 C52 1.185 . S
O59 Zn55 2.086 . S
C60 O56 1.278 . S
C60 O61 1.211 . S
O61 C60 1.211 . S
C62 O54 1.284 . S
C62 O63 1.273 . S
O63 C62 1.273 . S
O64 Zn55 1.977 . S
O64 C57 1.267 . S
C65 O66 1.160 . S
C65 O72 1.185 . S
O66 C65 1.160 . S
O67 Zn68 1.899 . S
O67 C75 1.284 . S
Zn68 O67 1.899 . S
Zn68 O69 2.032 . S
Zn68 O72 2.086 . S
Zn68 O77 1.977 . S
O69 Zn68 2.032 . S
O69 C73 1.278 . S
C70 O71 1.203 . S
C70 O77 1.267 . S
O71 C70 1.203 . S
O72 C65 1.185 . S
O72 Zn68 2.086 . S
C73 O69 1.278 . S
C73 O74 1.211 . S
O74 C73 1.211 . S
C75 O67 1.284 . S
C75 O76 1.273 . S
O76 C75 1.273 . S
O77 Zn68 1.977 . S
O77 C70 1.267 . S
C78 O79 1.160 . S
C78 O85 1.185 . S
O79 C78 1.160 . S
O80 Zn81 1.899 . S
O80 C88 1.284 . S
Zn81 O80 1.899 . S
Zn81 O82 2.032 . S
Zn81 O85 2.086 . S
Zn81 O90 1.977 . S
O82 Zn81 2.032 . S
O82 C86 1.278 . S
C83 O84 1.203 . S
C83 O90 1.267 . S
O84 C83 1.203 . S
O85 C78 1.185 . S
O85 Zn81 2.086 . S
C86 O82 1.278 . S
C86 O87 1.211 . S
O87 C86 1.211 . S
C88 O80 1.284 . S
C88 O89 1.273 . S
O89 C88 1.273 . S
O90 Zn81 1.977 . S
O90 C83 1.267 . S
C91 O92 1.160 . S
C91 O98 1.185 . S
O92 C91 1.160 . S
O93 Zn94 1.899 . S
O93 C101 1.284 . S
Zn94 O93 1.899 . S
Zn94 O95 2.032 . S
Zn94 O98 2.086 . S
Zn94 O103 1.977 . S
O95 Zn94 2.032 . S
O95 C99 1.278 . S
C96 O97 1.203 . S
C96 O103 1.267 . S
O97 C96 1.203 . S
O98 C91 1.185 . S
O98 Zn94 2.086 . S
C99 O95 1.278 . S
C99 O100 1.211 . S
O100 C99 1.211 . S
C101 O93 1.284 . S
C101 O102 1.273 . S
O102 C101 1.273 . S
O103 Zn94 1.977 . S
O103 C96 1.267 . S
C104 C105 1.363 1_565 S
C104 C110 1.379 . S
C104 N112 1.356 . S
C105 C104 1.363 1_545 S
C105 C111 1.363 . S
C106 C107 1.363 1_545 S
C106 C111 1.379 . S
C106 N113 1.356 1_554 S
C107 C106 1.363 1_565 S
C107 C110 1.363 . S
N108 C110 1.356 . S
N108 H120 0.984 . S
N108 H121 0.985 . S
N109 C111 1.356 1_556 S
N109 H114 0.984 . S
N109 H115 0.985 . S
C110 C104 1.379 . S
C110 C107 1.363 . S
C110 N108 1.356 . S
C111 C105 1.363 . S
C111 C106 1.379 . S
C111 N109 1.356 1_554 S
N112 C104 1.356 . S
N112 H118 0.984 . S
N112 H119 0.984 1_565 S
N113 C106 1.356 1_556 S
N113 H116 0.984 1_545 S
N113 H117 0.985 . S
H114 N109 0.984 . S
H115 N109 0.985 . S
H116 N113 0.984 1_565 S
H117 N113 0.985 . S
H118 N112 0.984 . S
H119 N112 0.984 1_545 S
H120 N108 0.984 . S
H121 N108 0.985 . S
C122 C123 1.363 . S
C122 C128 1.379 . S
C122 N130 1.356 . S
C123 C122 1.363 . S
C123 C129 1.363 . S
C124 C125 1.363 . S
C124 C129 1.379 . S
C124 N131 1.356 . S
C125 C124 1.363 . S
C125 C128 1.363 . S
N126 C128 1.356 . S
N126 H138 0.984 . S
N126 H139 0.985 . S
N127 C129 1.356 . S
N127 H132 0.984 . S
N127 H133 0.985 . S
C128 C122 1.379 . S
C128 C125 1.363 . S
C128 N126 1.356 . S
C129 C123 1.363 . S
C129 C124 1.379 . S
C129 N127 1.356 . S
N130 C122 1.356 . S
N130 H136 0.984 . S
N130 H137 0.984 . S
N131 C124 1.356 . S
N131 H134 0.984 . S
N131 H135 0.985 . S
H132 N127 0.984 . S
H133 N127 0.985 . S
H134 N131 0.984 . S
H135 N131 0.985 . S
H136 N130 0.984 . S
H137 N130 0.984 . S
H138 N126 0.984 . S
H139 N126 0.985 . S
C140 C141 1.363 1_545 S
C140 C146 1.379 . S
C140 N148 1.356 1_556 S
C141 C140 1.363 1_565 S
C141 C147 1.363 . S
C142 C143 1.363 1_565 S
C142 C147 1.379 . S
C142 N149 1.356 . S
C143 C142 1.363 1_545 S
C143 C146 1.363 . S
N144 C146 1.356 1_554 S
N144 H156 0.984 . S
N144 H157 0.985 . S
N145 C147 1.356 . S
N145 H150 0.984 . S
N145 H151 0.985 . S
C146 C140 1.379 . S
C146 C143 1.363 . S
C146 N144 1.356 1_556 S
C147 C141 1.363 . S
C147 C142 1.379 . S
C147 N145 1.356 . S
N148 C140 1.356 1_554 S
N148 H154 0.984 . S
N148 H155 0.984 1_545 S
N149 C142 1.356 . S
N149 H152 0.984 1_565 S
N149 H153 0.985 . S
H150 N145 0.984 . S
H151 N145 0.985 . S
H152 N149 0.984 1_545 S
H153 N149 0.985 . S
H154 N148 0.984 . S
H155 N148 0.984 1_565 S
H156 N144 0.984 . S
H157 N144 0.985 . S
C158 C159 1.363 . S
C158 C164 1.379 . S
C158 N166 1.356 . S
C159 C158 1.363 . S
C159 C165 1.363 . S
C160 C161 1.363 . S
C160 C165 1.379 . S
C160 N167 1.356 . S
C161 C160 1.363 . S
C161 C164 1.363 . S
N162 C164 1.356 . S
N162 H174 0.984 . S
N162 H175 0.985 . S
N163 C165 1.356 . S
N163 H168 0.984 . S
N163 H169 0.985 . S
C164 C158 1.379 . S
C164 C161 1.363 . S
C164 N162 1.356 . S
C165 C159 1.363 . S
C165 C160 1.379 . S
C165 N163 1.356 . S
N166 C158 1.356 . S
N166 H172 0.984 . S
N166 H173 0.984 . S
N167 C160 1.356 . S
N167 H170 0.984 . S
N167 H171 0.985 . S
H168 N163 0.984 . S
H169 N163 0.985 . S
H170 N167 0.984 . S
H171 N167 0.985 . S
H172 N166 0.984 . S
H173 N166 0.984 . S
H174 N162 0.984 . S
H175 N162 0.985 . S
C176 C177 1.363 . S
C176 C182 1.379 . S
C176 N184 1.356 . S
C177 C176 1.363 . S
C177 C183 1.363 . S
C178 C179 1.363 . S
C178 C183 1.379 . S
C178 N185 1.356 . S
C179 C178 1.363 . S
C179 C182 1.363 . S
N180 C182 1.356 . S
N180 H192 0.984 . S
N180 H193 0.985 . S
N181 C183 1.356 . S
N181 H186 0.984 . S
N181 H187 0.985 . S
C182 C176 1.379 . S
C182 C179 1.363 . S
C182 N180 1.356 . S
C183 C177 1.363 . S
C183 C178 1.379 . S
C183 N181 1.356 . S
N184 C176 1.356 . S
N184 H190 0.984 . S
N184 H191 0.984 . S
N185 C178 1.356 . S
N185 H188 0.984 . S
N185 H189 0.985 . S
H186 N181 0.984 . S
H187 N181 0.985 . S
H188 N185 0.984 . S
H189 N185 0.985 . S
H190 N184 0.984 . S
H191 N184 0.984 . S
H192 N180 0.984 . S
H193 N180 0.985 . S
C194 C195 1.363 . S
C194 C200 1.379 . S
C194 N202 1.356 . S
C195 C194 1.363 . S
C195 C201 1.363 . S
C196 C197 1.363 . S
C196 C201 1.379 . S
C196 N203 1.356 . S
C197 C196 1.363 . S
C197 C200 1.363 . S
N198 C200 1.356 . S
N198 H210 0.984 . S
N198 H211 0.985 . S
N199 C201 1.356 . S
N199 H204 0.984 . S
N199 H205 0.985 . S
C200 C194 1.379 . S
C200 C197 1.363 . S
C200 N198 1.356 . S
C201 C195 1.363 . S
C201 C196 1.379 . S
C201 N199 1.356 . S
N202 C194 1.356 . S
N202 H208 0.984 . S
N202 H209 0.984 . S
N203 C196 1.356 . S
N203 H206 0.984 . S
N203 H207 0.985 . S
H204 N199 0.984 . S
H205 N199 0.985 . S
H206 N203 0.984 . S
H207 N203 0.985 . S
H208 N202 0.984 . S
H209 N202 0.984 . S
H210 N198 0.984 . S
H211 N198 0.985 . S
C212 C213 1.363 . S
C212 C218 1.379 . S
C212 N220 1.356 . S
C213 C212 1.363 . S
C213 C219 1.363 . S
C214 C215 1.363 . S
C214 C219 1.379 . S
C214 N221 1.356 . S
C215 C214 1.363 . S
C215 C218 1.363 . S
N216 C218 1.356 . S
N216 H228 0.984 . S
N216 H229 0.985 . S
N217 C219 1.356 . S
N217 H222 0.984 . S
N217 H223 0.985 . S
C218 C212 1.379 . S
C218 C215 1.363 . S
C218 N216 1.356 . S
C219 C213 1.363 . S
C219 C214 1.379 . S
C219 N217 1.356 . S
N220 C212 1.356 . S
N220 H226 0.984 . S
N220 H227 0.984 . S
N221 C214 1.356 . S
N221 H224 0.984 . S
N221 H225 0.985 . S
H222 N217 0.984 . S
H223 N217 0.985 . S
H224 N221 0.984 . S
H225 N221 0.985 . S
H226 N220 0.984 . S
H227 N220 0.984 . S
H228 N216 0.984 . S
H229 N216 0.985 . S
C230 C231 1.363 . S
C230 C236 1.379 . S
C230 N238 1.356 . S
C231 C230 1.363 . S
C231 C237 1.363 . S
C232 C233 1.363 . S
C232 C237 1.379 . S
C232 N239 1.356 . S
C233 C232 1.363 . S
C233 C236 1.363 . S
N234 C236 1.356 . S
N234 H246 0.984 . S
N234 H247 0.985 . S
N235 C237 1.356 . S
N235 H240 0.984 . S
N235 H241 0.985 . S
C236 C230 1.379 . S
C236 C233 1.363 . S
C236 N234 1.356 . S
C237 C231 1.363 . S
C237 C232 1.379 . S
C237 N235 1.356 . S
N238 C230 1.356 . S
N238 H244 0.984 . S
N238 H245 0.984 . S
N239 C232 1.356 . S
N239 H242 0.984 . S
N239 H243 0.985 . S
H240 N235 0.984 . S
H241 N235 0.985 . S
H242 N239 0.984 . S
H243 N239 0.985 . S
H244 N238 0.984 . S
H245 N238 0.984 . S
H246 N234 0.984 . S
H247 N234 0.985 . S
C248 C249 1.363 . S
C248 C254 1.379 . S
C248 N256 1.356 . S
C249 C248 1.363 . S
C249 C255 1.363 1_554 S
C250 C251 1.363 . S
C250 C255 1.379 . S
C250 N257 1.356 . S
C251 C250 1.363 . S
C251 C254 1.363 1_556 S
N252 C254 1.356 . S
N252 H264 0.984 . S
N252 H265 0.985 . S
N253 C255 1.356 . S
N253 H258 0.984 . S
N253 H259 0.985 . S
C254 C248 1.379 . S
C254 C251 1.363 1_554 S
C254 N252 1.356 . S
C255 C249 1.363 1_556 S
C255 C250 1.379 . S
C255 N253 1.356 . S
N256 C248 1.356 . S
N256 H262 0.984 . S
N256 H263 0.984 . S
N257 C250 1.356 . S
N257 H260 0.984 . S
N257 H261 0.985 . S
H258 N253 0.984 . S
H259 N253 0.985 . S
H260 N257 0.984 . S
H261 N257 0.985 . S
H262 N256 0.984 . S
H263 N256 0.984 . S
H264 N252 0.984 . S
H265 N252 0.985 . S
C266 C267 1.363 1_656 S
C266 C272 1.379 . S
C266 N274 1.356 . S
C267 C266 1.363 1_454 S
C267 C273 1.363 . S
C268 C269 1.363 1_454 S
C268 C273 1.379 . S
C268 N275 1.356 . S
C269 C268 1.363 1_656 S
C269 C272 1.363 . S
N270 C272 1.356 . S
N270 H282 0.984 . S
N270 H283 0.985 . S
N271 C273 1.356 . S
N271 H276 0.984 . S
N271 H277 0.985 . S
C272 C266 1.379 . S
C272 C269 1.363 . S
C272 N270 1.356 . S
C273 C267 1.363 . S
C273 C268 1.379 . S
C273 N271 1.356 . S
N274 C266 1.356 . S
N274 H280 0.984 . S
N274 H281 0.984 . S
N275 C268 1.356 . S
N275 H278 0.984 . S
N275 H279 0.985 . S
H276 N271 0.984 . S
H277 N271 0.985 . S
H278 N275 0.984 . S
H279 N275 0.985 . S
H280 N274 0.984 . S
H281 N274 0.984 . S
H282 N270 0.984 . S
H283 N270 0.985 . S
C284 C285 1.363 . S
C284 C290 1.379 1_565 S
C284 N292 1.356 . S
C285 C284 1.363 . S
C285 C291 1.363 . S
C286 C287 1.363 . S
C286 C291 1.379 1_545 S
C286 N293 1.356 . S
C287 C286 1.363 . S
C287 C290 1.363 . S
N288 C290 1.356 . S
N288 H300 0.984 . S
N288 H301 0.985 . S
N289 C291 1.356 . S
N289 H294 0.984 . S
N289 H295 0.985 . S
C290 C284 1.379 1_545 S
C290 C287 1.363 . S
C290 N288 1.356 . S
C291 C285 1.363 . S
C291 C286 1.379 1_565 S
C291 N289 1.356 . S
N292 C284 1.356 . S
N292 H298 0.984 . S
N292 H299 0.984 . S
N293 C286 1.356 . S
N293 H296 0.984 . S
N293 H297 0.985 . S
H294 N289 0.984 . S
H295 N289 0.985 . S
H296 N293 0.984 . S
H297 N293 0.985 . S
H298 N292 0.984 . S
H299 N292 0.984 . S
H300 N288 0.984 . S
H301 N288 0.985 . S
C302 C303 1.363 . S
C302 C308 1.379 1_545 S
C302 N310 1.356 . S
C303 C302 1.363 . S
C303 C309 1.363 1_655 S
C304 C305 1.363 . S
C304 C309 1.379 1_565 S
C304 N311 1.356 . S
C305 C304 1.363 . S
C305 C308 1.363 1_455 S
N306 C308 1.356 . S
N306 H318 0.984 . S
N306 H319 0.985 1_655 S
N307 C309 1.356 . S
N307 H312 0.984 1_455 S
N307 H313 0.985 . S
C308 C302 1.379 1_565 S
C308 C305 1.363 1_655 S
C308 N306 1.356 . S
C309 C303 1.363 1_455 S
C309 C304 1.379 1_545 S
C309 N307 1.356 . S
N310 C302 1.356 . S
N310 H316 0.984 . S
N310 H317 0.984 . S
N311 C304 1.356 . S
N311 H314 0.984 . S
N311 H315 0.985 . S
H312 N307 0.984 1_655 S
H313 N307 0.985 . S
H314 N311 0.984 . S
H315 N311 0.985 . S
H316 N310 0.984 . S
H317 N310 0.984 . S
H318 N306 0.984 . S
H319 N306 0.985 1_455 S
C320 C321 1.363 . S
C320 C326 1.379 . S
C320 N328 1.356 . S
C321 C320 1.363 . S
C321 C327 1.363 . S
C322 C323 1.363 . S
C322 C327 1.379 . S
C322 N329 1.356 . S
C323 C322 1.363 . S
C323 C326 1.363 . S
N324 C326 1.356 . S
N324 H336 0.984 1_554 S
N324 H337 0.985 . S
N325 C327 1.356 . S
N325 H330 0.984 . S
N325 H331 0.985 . S
C326 C320 1.379 . S
C326 C323 1.363 . S
C326 N324 1.356 . S
C327 C321 1.363 . S
C327 C322 1.379 . S
C327 N325 1.356 . S
N328 C320 1.356 . S
N328 H334 0.984 1_554 S
N328 H335 0.984 . S
N329 C322 1.356 . S
N329 H332 0.984 . S
N329 H333 0.985 . S
H330 N325 0.984 . S
H331 N325 0.985 . S
H332 N329 0.984 . S
H333 N329 0.985 . S
H334 N328 0.984 1_556 S
H335 N328 0.984 . S
H336 N324 0.984 1_556 S
H337 N324 0.985 . S
C338 C339 1.363 . S
C338 C344 1.370 1_545 S
C338 N346 1.356 . S
C339 C338 1.363 . S
C339 C345 1.372 . S
C340 C341 1.363 . S
C340 C345 1.370 1_565 S
C340 N347 1.356 . S
C341 C340 1.363 . S
C341 C344 1.372 . S
N342 C344 1.359 . S
N342 H354 0.984 1_565 S
N342 H355 0.985 . S
N343 C345 1.359 . S
N343 H348 0.984 . S
N343 H349 0.985 1_545 S
C344 C338 1.370 1_565 S
C344 C341 1.372 . S
C344 N342 1.359 . S
C345 C339 1.372 . S
C345 C340 1.370 1_545 S
C345 N343 1.359 . S
N346 C338 1.356 . S
N346 H352 0.984 . S
N346 H353 0.984 . S
N347 C340 1.356 . S
N347 H350 0.984 . S
N347 H351 0.985 . S
H348 N343 0.984 . S
H349 N343 0.985 1_565 S
H350 N347 0.984 . S
H351 N347 0.985 . S
H352 N346 0.984 . S
H353 N346 0.984 . S
H354 N342 0.984 1_545 S
H355 N342 0.985 . S
C356 C357 1.363 . S
C356 C362 1.379 . S
C356 N364 1.356 . S
C357 C356 1.363 . S
C357 C363 1.363 . S
C358 C359 1.363 . S
C358 C363 1.379 . S
C358 N365 1.356 . S
C359 C358 1.363 . S
C359 C362 1.363 . S
N360 C362 1.356 . S
N360 H372 0.984 . S
N360 H373 0.985 . S
N361 C363 1.356 . S
N361 H366 0.984 . S
N361 H367 0.985 1_556 S
C362 C356 1.379 . S
C362 C359 1.363 . S
C362 N360 1.356 . S
C363 C357 1.363 . S
C363 C358 1.379 . S
C363 N361 1.356 . S
N364 C356 1.356 . S
N364 H370 0.984 . S
N364 H371 0.984 . S
N365 C358 1.356 . S
N365 H368 0.984 . S
N365 H369 0.985 1_556 S
H366 N361 0.984 . S
H367 N361 0.985 1_554 S
H368 N365 0.984 . S
H369 N365 0.985 1_554 S
H370 N364 0.984 . S
H371 N364 0.984 . S
H372 N360 0.984 . S
H373 N360 0.985 . S
C374 C375 1.363 . S
C374 C380 1.370 1_565 S
C374 N382 1.356 . S
C375 C374 1.363 . S
C375 C381 1.372 . S
C376 C377 1.363 . S
C376 C381 1.370 1_545 S
C376 N383 1.356 . S
C377 C376 1.363 . S
C377 C380 1.372 . S
N378 C380 1.359 . S
N378 H390 0.984 1_545 S
N378 H391 0.985 . S
N379 C381 1.359 . S
N379 H384 0.984 . S
N379 H385 0.985 1_565 S
C380 C374 1.370 1_545 S
C380 C377 1.372 . S
C380 N378 1.359 . S
C381 C375 1.372 . S
C381 C376 1.370 1_565 S
C381 N379 1.359 . S
N382 C374 1.356 . S
N382 H388 0.984 . S
N382 H389 0.984 . S
N383 C376 1.356 . S
N383 H386 0.984 . S
N383 H387 0.985 . S
H384 N379 0.984 . S
H385 N379 0.985 1_545 S
H386 N383 0.984 . S
H387 N383 0.985 . S
H388 N382 0.984 . S
H389 N382 0.984 . S
H390 N378 0.984 1_565 S
H391 N378 0.985 . S
C105 C5 1.423 . S
C107 C18 1.423 . S
C123 C44 1.423 . S
C125 C31 1.423 . S
C141 C57 1.423 . S
C143 C70 1.423 . S
C159 C83 1.423 . S
C161 C96 1.423 . S
C177 C10 1.493 . S
C179 C36 1.493 . S
C195 C49 1.493 . S
C197 C23 1.493 . S
C213 C62 1.493 . S
C215 C88 1.493 . S
C231 C101 1.493 . S
C233 C75 1.493 . S
C249 C0 1.598 . S
C251 C52 1.598 . S
C267 C13 1.598 . S
C269 C65 1.598 . S
C285 C78 1.598 . S
C287 C26 1.598 . S
C303 C91 1.598 . S
C305 C39 1.598 . S
C321 C21 0.911 . S
C323 C8 0.911 . S
C339 C34 0.911 . S
C341 C47 0.911 . S
C357 C60 0.911 . S
C359 C73 0.911 . S
C375 C86 0.911 . S
C377 C99 0.911 . S
