# Generated by pormake.
# Topology uli, (4)-cn, num edge types: 1
# Building blocks:
#     Node 0, Type 0, BuildingBlock: GALJAG_clean_sbu_0, # of connection points: 4
#     Node 1, Type 0, BuildingBlock: GALJAG_clean_sbu_0, # of connection points: 4
#     Node 2, Type 0, BuildingBlock: GALJAG_clean_sbu_0, # of connection points: 4
#     Node 3, Type 0, BuildingBlock: GALJAG_clean_sbu_0, # of connection points: 4
#     Node 4, Type 0, BuildingBlock: GALJAG_clean_sbu_0, # of connection points: 4
#     Node 5, Type 0, BuildingBlock: GALJAG_clean_sbu_0, # of connection points: 4
#     Node 6, Type 0, BuildingBlock: GALJAG_clean_sbu_0, # of connection points: 4
#     Node 7, Type 0, BuildingBlock: GALJAG_clean_sbu_0, # of connection points: 4
#     Node 8, Type 0, BuildingBlock: GALJAG_clean_sbu_0, # of connection points: 4
#     Node 9, Type 0, BuildingBlock: GALJAG_clean_sbu_0, # of connection points: 4
#     Node 10, Type 0, BuildingBlock: GALJAG_clean_sbu_0, # of connection points: 4
#     Node 11, Type 0, BuildingBlock: GALJAG_clean_sbu_0, # of connection points: 4
#     Node 12, Type 0, BuildingBlock: GALJAG_clean_sbu_0, # of connection points: 4
#     Node 13, Type 0, BuildingBlock: GALJAG_clean_sbu_0, # of connection points: 4
#     Node 14, Type 0, BuildingBlock: GALJAG_clean_sbu_0, # of connection points: 4
#     Node 15, Type 0, BuildingBlock: GALJAG_clean_sbu_0, # of connection points: 4
#     Node 16, Type 0, BuildingBlock: GALJAG_clean_sbu_0, # of connection points: 4
#     Node 17, Type 0, BuildingBlock: GALJAG_clean_sbu_0, # of connection points: 4
#     Node 18, Type 0, BuildingBlock: GALJAG_clean_sbu_0, # of connection points: 4
#     Node 19, Type 0, BuildingBlock: GALJAG_clean_sbu_0, # of connection points: 4
#     Node 20, Type 0, BuildingBlock: GALJAG_clean_sbu_0, # of connection points: 4
#     Node 21, Type 0, BuildingBlock: GALJAG_clean_sbu_0, # of connection points: 4
#     Node 22, Type 0, BuildingBlock: GALJAG_clean_sbu_0, # of connection points: 4
#     Node 23, Type 0, BuildingBlock: GALJAG_clean_sbu_0, # of connection points: 4
#     Node 24, Type 0, BuildingBlock: GALJAG_clean_sbu_0, # of connection points: 4
#     Node 25, Type 0, BuildingBlock: GALJAG_clean_sbu_0, # of connection points: 4
#     Node 26, Type 0, BuildingBlock: GALJAG_clean_sbu_0, # of connection points: 4
#     Node 27, Type 0, BuildingBlock: GALJAG_clean_sbu_0, # of connection points: 4
#     Node 28, Type 0, BuildingBlock: GALJAG_clean_sbu_0, # of connection points: 4
#     Node 29, Type 0, BuildingBlock: GALJAG_clean_sbu_0, # of connection points: 4
#     Node 30, Type 0, BuildingBlock: GALJAG_clean_sbu_0, # of connection points: 4
#     Node 31, Type 0, BuildingBlock: GALJAG_clean_sbu_0, # of connection points: 4
#     Node 32, Type 0, BuildingBlock: GALJAG_clean_sbu_0, # of connection points: 4
#     Node 33, Type 0, BuildingBlock: GALJAG_clean_sbu_0, # of connection points: 4
#     Node 34, Type 0, BuildingBlock: GALJAG_clean_sbu_0, # of connection points: 4
#     Node 35, Type 0, BuildingBlock: GALJAG_clean_sbu_0, # of connection points: 4
#     Node 36, Type 0, BuildingBlock: GALJAG_clean_sbu_0, # of connection points: 4
#     Node 37, Type 0, BuildingBlock: GALJAG_clean_sbu_0, # of connection points: 4
#     Node 38, Type 0, BuildingBlock: GALJAG_clean_sbu_0, # of connection points: 4
#     Node 39, Type 0, BuildingBlock: GALJAG_clean_sbu_0, # of connection points: 4
#     Node 40, Type 0, BuildingBlock: GALJAG_clean_sbu_0, # of connection points: 4
#     Node 41, Type 0, BuildingBlock: GALJAG_clean_sbu_0, # of connection points: 4
#     Node 42, Type 0, BuildingBlock: GALJAG_clean_sbu_0, # of connection points: 4
#     Node 43, Type 0, BuildingBlock: GALJAG_clean_sbu_0, # of connection points: 4
#     Node 44, Type 0, BuildingBlock: GALJAG_clean_sbu_0, # of connection points: 4
#     Node 45, Type 0, BuildingBlock: GALJAG_clean_sbu_0, # of connection points: 4
#     Node 46, Type 0, BuildingBlock: GALJAG_clean_sbu_0, # of connection points: 4
#     Node 47, Type 0, BuildingBlock: GALJAG_clean_sbu_0, # of connection points: 4
#     Edge 48, Type (0, 0), BuildingBlock: TEMPAE_clean_linker_10, # of connection points: 2
#     Edge 49, Type (0, 0), BuildingBlock: TEMPAE_clean_linker_10, # of connection points: 2
#     Edge 50, Type (0, 0), BuildingBlock: TEMPAE_clean_linker_10, # of connection points: 2
#     Edge 51, Type (0, 0), BuildingBlock: TEMPAE_clean_linker_10, # of connection points: 2
#     Edge 52, Type (0, 0), BuildingBlock: TEMPAE_clean_linker_10, # of connection points: 2
#     Edge 53, Type (0, 0), BuildingBlock: TEMPAE_clean_linker_10, # of connection points: 2
#     Edge 54, Type (0, 0), BuildingBlock: TEMPAE_clean_linker_10, # of connection points: 2
#     Edge 55, Type (0, 0), BuildingBlock: TEMPAE_clean_linker_10, # of connection points: 2
#     Edge 56, Type (0, 0), BuildingBlock: TEMPAE_clean_linker_10, # of connection points: 2
#     Edge 57, Type (0, 0), BuildingBlock: TEMPAE_clean_linker_10, # of connection points: 2
#     Edge 58, Type (0, 0), BuildingBlock: TEMPAE_clean_linker_10, # of connection points: 2
#     Edge 59, Type (0, 0), BuildingBlock: TEMPAE_clean_linker_10, # of connection points: 2
#     Edge 60, Type (0, 0), BuildingBlock: TEMPAE_clean_linker_10, # of connection points: 2
#     Edge 61, Type (0, 0), BuildingBlock: TEMPAE_clean_linker_10, # of connection points: 2
#     Edge 62, Type (0, 0), BuildingBlock: TEMPAE_clean_linker_10, # of connection points: 2
#     Edge 63, Type (0, 0), BuildingBlock: TEMPAE_clean_linker_10, # of connection points: 2
#     Edge 64, Type (0, 0), BuildingBlock: TEMPAE_clean_linker_10, # of connection points: 2
#     Edge 65, Type (0, 0), BuildingBlock: TEMPAE_clean_linker_10, # of connection points: 2
#     Edge 66, Type (0, 0), BuildingBlock: TEMPAE_clean_linker_10, # of connection points: 2
#     Edge 67, Type (0, 0), BuildingBlock: TEMPAE_clean_linker_10, # of connection points: 2
#     Edge 68, Type (0, 0), BuildingBlock: TEMPAE_clean_linker_10, # of connection points: 2
#     Edge 69, Type (0, 0), BuildingBlock: TEMPAE_clean_linker_10, # of connection points: 2
#     Edge 70, Type (0, 0), BuildingBlock: TEMPAE_clean_linker_10, # of connection points: 2
#     Edge 71, Type (0, 0), BuildingBlock: TEMPAE_clean_linker_10, # of connection points: 2
#     Edge 72, Type (0, 0), BuildingBlock: TEMPAE_clean_linker_10, # of connection points: 2
#     Edge 73, Type (0, 0), BuildingBlock: TEMPAE_clean_linker_10, # of connection points: 2
#     Edge 74, Type (0, 0), BuildingBlock: TEMPAE_clean_linker_10, # of connection points: 2
#     Edge 75, Type (0, 0), BuildingBlock: TEMPAE_clean_linker_10, # of connection points: 2
#     Edge 76, Type (0, 0), BuildingBlock: TEMPAE_clean_linker_10, # of connection points: 2
#     Edge 77, Type (0, 0), BuildingBlock: TEMPAE_clean_linker_10, # of connection points: 2
#     Edge 78, Type (0, 0), BuildingBlock: TEMPAE_clean_linker_10, # of connection points: 2
#     Edge 79, Type (0, 0), BuildingBlock: TEMPAE_clean_linker_10, # of connection points: 2
#     Edge 80, Type (0, 0), BuildingBlock: TEMPAE_clean_linker_10, # of connection points: 2
#     Edge 81, Type (0, 0), BuildingBlock: TEMPAE_clean_linker_10, # of connection points: 2
#     Edge 82, Type (0, 0), BuildingBlock: TEMPAE_clean_linker_10, # of connection points: 2
#     Edge 83, Type (0, 0), BuildingBlock: TEMPAE_clean_linker_10, # of connection points: 2
#     Edge 84, Type (0, 0), BuildingBlock: TEMPAE_clean_linker_10, # of connection points: 2
#     Edge 85, Type (0, 0), BuildingBlock: TEMPAE_clean_linker_10, # of connection points: 2
#     Edge 86, Type (0, 0), BuildingBlock: TEMPAE_clean_linker_10, # of connection points: 2
#     Edge 87, Type (0, 0), BuildingBlock: TEMPAE_clean_linker_10, # of connection points: 2
#     Edge 88, Type (0, 0), BuildingBlock: TEMPAE_clean_linker_10, # of connection points: 2
#     Edge 89, Type (0, 0), BuildingBlock: TEMPAE_clean_linker_10, # of connection points: 2
#     Edge 90, Type (0, 0), BuildingBlock: TEMPAE_clean_linker_10, # of connection points: 2
#     Edge 91, Type (0, 0), BuildingBlock: TEMPAE_clean_linker_10, # of connection points: 2
#     Edge 92, Type (0, 0), BuildingBlock: TEMPAE_clean_linker_10, # of connection points: 2
#     Edge 93, Type (0, 0), BuildingBlock: TEMPAE_clean_linker_10, # of connection points: 2
#     Edge 94, Type (0, 0), BuildingBlock: TEMPAE_clean_linker_10, # of connection points: 2
#     Edge 95, Type (0, 0), BuildingBlock: TEMPAE_clean_linker_10, # of connection points: 2
#     Edge 96, Type (0, 0), BuildingBlock: TEMPAE_clean_linker_10, # of connection points: 2
#     Edge 97, Type (0, 0), BuildingBlock: TEMPAE_clean_linker_10, # of connection points: 2
#     Edge 98, Type (0, 0), BuildingBlock: TEMPAE_clean_linker_10, # of connection points: 2
#     Edge 99, Type (0, 0), BuildingBlock: TEMPAE_clean_linker_10, # of connection points: 2
#     Edge 100, Type (0, 0), BuildingBlock: TEMPAE_clean_linker_10, # of connection points: 2
#     Edge 101, Type (0, 0), BuildingBlock: TEMPAE_clean_linker_10, # of connection points: 2
#     Edge 102, Type (0, 0), BuildingBlock: TEMPAE_clean_linker_10, # of connection points: 2
#     Edge 103, Type (0, 0), BuildingBlock: TEMPAE_clean_linker_10, # of connection points: 2
#     Edge 104, Type (0, 0), BuildingBlock: TEMPAE_clean_linker_10, # of connection points: 2
#     Edge 105, Type (0, 0), BuildingBlock: TEMPAE_clean_linker_10, # of connection points: 2
#     Edge 106, Type (0, 0), BuildingBlock: TEMPAE_clean_linker_10, # of connection points: 2
#     Edge 107, Type (0, 0), BuildingBlock: TEMPAE_clean_linker_10, # of connection points: 2
#     Edge 108, Type (0, 0), BuildingBlock: TEMPAE_clean_linker_10, # of connection points: 2
#     Edge 109, Type (0, 0), BuildingBlock: TEMPAE_clean_linker_10, # of connection points: 2
#     Edge 110, Type (0, 0), BuildingBlock: TEMPAE_clean_linker_10, # of connection points: 2
#     Edge 111, Type (0, 0), BuildingBlock: TEMPAE_clean_linker_10, # of connection points: 2
#     Edge 112, Type (0, 0), BuildingBlock: TEMPAE_clean_linker_10, # of connection points: 2
#     Edge 113, Type (0, 0), BuildingBlock: TEMPAE_clean_linker_10, # of connection points: 2
#     Edge 114, Type (0, 0), BuildingBlock: TEMPAE_clean_linker_10, # of connection points: 2
#     Edge 115, Type (0, 0), BuildingBlock: TEMPAE_clean_linker_10, # of connection points: 2
#     Edge 116, Type (0, 0), BuildingBlock: TEMPAE_clean_linker_10, # of connection points: 2
#     Edge 117, Type (0, 0), BuildingBlock: TEMPAE_clean_linker_10, # of connection points: 2
#     Edge 118, Type (0, 0), BuildingBlock: TEMPAE_clean_linker_10, # of connection points: 2
#     Edge 119, Type (0, 0), BuildingBlock: TEMPAE_clean_linker_10, # of connection points: 2
#     Edge 120, Type (0, 0), BuildingBlock: TEMPAE_clean_linker_10, # of connection points: 2
#     Edge 121, Type (0, 0), BuildingBlock: TEMPAE_clean_linker_10, # of connection points: 2
#     Edge 122, Type (0, 0), BuildingBlock: TEMPAE_clean_linker_10, # of connection points: 2
#     Edge 123, Type (0, 0), BuildingBlock: TEMPAE_clean_linker_10, # of connection points: 2
#     Edge 124, Type (0, 0), BuildingBlock: TEMPAE_clean_linker_10, # of connection points: 2
#     Edge 125, Type (0, 0), BuildingBlock: TEMPAE_clean_linker_10, # of connection points: 2
#     Edge 126, Type (0, 0), BuildingBlock: TEMPAE_clean_linker_10, # of connection points: 2
#     Edge 127, Type (0, 0), BuildingBlock: TEMPAE_clean_linker_10, # of connection points: 2
#     Edge 128, Type (0, 0), BuildingBlock: TEMPAE_clean_linker_10, # of connection points: 2
#     Edge 129, Type (0, 0), BuildingBlock: TEMPAE_clean_linker_10, # of connection points: 2
#     Edge 130, Type (0, 0), BuildingBlock: TEMPAE_clean_linker_10, # of connection points: 2
#     Edge 131, Type (0, 0), BuildingBlock: TEMPAE_clean_linker_10, # of connection points: 2
#     Edge 132, Type (0, 0), BuildingBlock: TEMPAE_clean_linker_10, # of connection points: 2
#     Edge 133, Type (0, 0), BuildingBlock: TEMPAE_clean_linker_10, # of connection points: 2
#     Edge 134, Type (0, 0), BuildingBlock: TEMPAE_clean_linker_10, # of connection points: 2
#     Edge 135, Type (0, 0), BuildingBlock: TEMPAE_clean_linker_10, # of connection points: 2
#     Edge 136, Type (0, 0), BuildingBlock: TEMPAE_clean_linker_10, # of connection points: 2
#     Edge 137, Type (0, 0), BuildingBlock: TEMPAE_clean_linker_10, # of connection points: 2
#     Edge 138, Type (0, 0), BuildingBlock: TEMPAE_clean_linker_10, # of connection points: 2
#     Edge 139, Type (0, 0), BuildingBlock: TEMPAE_clean_linker_10, # of connection points: 2
#     Edge 140, Type (0, 0), BuildingBlock: TEMPAE_clean_linker_10, # of connection points: 2
#     Edge 141, Type (0, 0), BuildingBlock: TEMPAE_clean_linker_10, # of connection points: 2
#     Edge 142, Type (0, 0), BuildingBlock: TEMPAE_clean_linker_10, # of connection points: 2
#     Edge 143, Type (0, 0), BuildingBlock: TEMPAE_clean_linker_10, # of connection points: 2
# Relax obj value: 0.561
# Max RMSD: 0.175
# Mean RMSD: 0.175
data_MOF--net-uli--node1-GALJAG_clean_sbu_0--edge1-TEMPAE_clean_linker_10
_symmetry_space_group_name_H-M    P1
_symmetry_Int_Tables_number       1
_symmetry_cell_setting            triclinic
loop_
_symmetry_equiv_pos_as_xyz
'x, y, z'
_cell_length_a     66.851524
_cell_length_b     66.839498
_cell_length_c     66.846092
_cell_angle_alpha  89.982347
_cell_angle_beta   90.020167
_cell_angle_gamma 90.011836
loop_
_atom_site_label
_atom_site_type_symbol
_atom_site_fract_x
_atom_site_fract_y
_atom_site_fract_z
_atom_type_partial_charge
In0 In 0.09871 0.27475 0.21034 0.0
O1 O 0.09713 0.29369 0.23837 0.0
O2 O 0.09761 0.30901 0.21058 0.0
C3 C 0.12548 0.25048 0.22837 0.0
C4 C 0.06297 0.25605 0.21166 0.0
C5 C 0.11659 0.2784 0.17449 0.0
O6 O 0.11547 0.26327 0.23795 0.0
O7 O 0.1222 0.25023 0.20983 0.0
O8 O 0.09986 0.26979 0.17653 0.0
O9 O 0.12335 0.28626 0.19027 0.0
C10 C 0.09758 0.31028 0.22943 0.0
O11 O 0.07924 0.24786 0.21621 0.0
O12 O 0.06455 0.27392 0.20572 0.0
In13 In 0.71406 0.1153 0.17845 0.0
O14 O 0.69515 0.12068 0.20579 0.0
O15 O 0.6799 0.11193 0.17929 0.0
C16 C 0.74383 0.12887 0.20215 0.0
C17 C 0.72858 0.07865 0.17041 0.0
C18 C 0.70994 0.14075 0.14743 0.0
O19 O 0.73252 0.11467 0.20731 0.0
O20 O 0.73977 0.13645 0.18537 0.0
O21 O 0.70719 0.14573 0.1654 0.0
O22 O 0.71412 0.12249 0.14488 0.0
C23 C 0.67861 0.11731 0.19738 0.0
O24 O 0.73801 0.09453 0.16682 0.0
O25 O 0.71097 0.08121 0.17673 0.0
In26 In 0.89369 0.7506 0.30034 0.0
O27 O 0.92599 0.74293 0.29491 0.0
O28 O 0.91772 0.75105 0.32461 0.0
C29 C 0.88055 0.74821 0.26228 0.0
C30 C 0.87273 0.72005 0.31623 0.0
C31 C 0.88983 0.79037 0.30492 0.0
O32 O 0.87065 0.75631 0.27611 0.0
O33 O 0.89737 0.74144 0.26754 0.0
O34 O 0.87752 0.77815 0.31249 0.0
O35 O 0.90416 0.78246 0.29556 0.0
C36 C 0.93156 0.74625 0.31264 0.0
O37 O 0.87066 0.73779 0.32242 0.0
O38 O 0.88606 0.71785 0.30312 0.0
In39 In 0.26113 0.91897 0.21073 0.0
O40 O 0.2372 0.938 0.19593 0.0
O41 O 0.26401 0.95241 0.20487 0.0
C42 C 0.26804 0.89074 0.18277 0.0
C43 C 0.29607 0.92121 0.23056 0.0
C44 C 0.23197 0.90481 0.23486 0.0
O45 O 0.25968 0.90717 0.17853 0.0
O46 O 0.27334 0.88904 0.20076 0.0
O47 O 0.23878 0.89525 0.22013 0.0
O48 O 0.24009 0.9216 0.23775 0.0
C49 C 0.2466 0.95422 0.19777 0.0
O50 O 0.27944 0.91906 0.23924 0.0
O51 O 0.2949 0.92359 0.21183 0.0
In52 In 0.10409 0.71885 0.79776 0.0
O53 O 0.07407 0.72498 0.81282 0.0
O54 O 0.07424 0.70926 0.78517 0.0
C55 C 0.13219 0.72295 0.8262 0.0
C56 C 0.11679 0.68372 0.78346 0.0
C57 C 0.10718 0.7547 0.77958 0.0
O58 O 0.11438 0.71819 0.83064 0.0
O59 O 0.13541 0.72531 0.80778 0.0
O60 O 0.111 0.73854 0.77053 0.0
O61 O 0.10174 0.75259 0.7975 0.0
C62 C 0.06402 0.71733 0.79878 0.0
O63 O 0.11679 0.69962 0.7732 0.0
O64 O 0.10965 0.6854 0.80092 0.0
In65 In 0.28049 0.10348 0.78585 0.0
O66 O 0.29939 0.10326 0.75783 0.0
O67 O 0.31384 0.09528 0.78492 0.0
C68 C 0.25417 0.1235 0.76268 0.0
C69 C 0.25886 0.07056 0.79376 0.0
C70 C 0.28689 0.12557 0.81894 0.0
O71 O 0.26405 0.13182 0.77643 0.0
O72 O 0.25821 0.10527 0.76003 0.0
O73 O 0.27987 0.10804 0.81973 0.0
O74 O 0.29143 0.13145 0.80161 0.0
C75 C 0.31551 0.09857 0.76639 0.0
O76 O 0.25251 0.08805 0.79663 0.0
O77 O 0.27689 0.0695 0.78811 0.0
In78 In 0.89956 0.26643 0.79584 0.0
O79 O 0.88799 0.28701 0.77173 0.0
O80 O 0.90547 0.3003 0.79469 0.0
C81 C 0.87637 0.24046 0.77556 0.0
C82 C 0.93716 0.25214 0.79219 0.0
C83 C 0.88307 0.26662 0.83274 0.0
O84 O 0.87485 0.24323 0.79416 0.0
O85 O 0.8894 0.25114 0.76699 0.0
O86 O 0.89836 0.25634 0.8286 0.0
O87 O 0.87704 0.27758 0.81865 0.0
C88 C 0.89527 0.30281 0.77898 0.0
O89 O 0.92177 0.24165 0.78979 0.0
O90 O 0.93375 0.27001 0.79725 0.0
In91 In 0.775 0.90265 0.81738 0.0
O92 O 0.79334 0.92834 0.83067 0.0
O93 O 0.76499 0.93509 0.81831 0.0
C94 C 0.77495 0.87274 0.8444 0.0
C95 C 0.73966 0.89385 0.80024 0.0
C96 C 0.80593 0.89578 0.79267 0.0
O97 O 0.76976 0.89028 0.8493 0.0
O98 O 0.78042 0.87087 0.8265 0.0
O99 O 0.78995 0.90386 0.78661 0.0
O100 O 0.80635 0.89174 0.81112 0.0
C101 C 0.78092 0.94168 0.82589 0.0
O102 O 0.75593 0.89396 0.79067 0.0
O103 O 0.74111 0.89892 0.81837 0.0
In104 In 0.21824 0.09669 0.28467 0.0
O105 O 0.23865 0.08965 0.31129 0.0
O106 O 0.20836 0.09679 0.3172 0.0
C107 C 0.24989 0.09893 0.25962 0.0
C108 C 0.19856 0.06786 0.26481 0.0
C109 C 0.19853 0.13153 0.28135 0.0
O110 O 0.24258 0.11395 0.26837 0.0
O111 O 0.24236 0.08247 0.2649 0.0
O112 O 0.1896 0.11486 0.28166 0.0
O113 O 0.2173 0.13055 0.28312 0.0
C114 C 0.22536 0.09285 0.32427 0.0
O115 O 0.19909 0.08578 0.25899 0.0
O116 O 0.20666 0.0648 0.28164 0.0
In117 In 0.89132 0.21765 0.26778 0.0
O118 O 0.91848 0.1999 0.25701 0.0
O119 O 0.92339 0.22735 0.27228 0.0
C120 C 0.86153 0.1907 0.26744 0.0
C121 C 0.88489 0.23089 0.305 0.0
C122 C 0.88371 0.23782 0.23365 0.0
O123 O 0.87968 0.18537 0.26645 0.0
O124 O 0.85876 0.20928 0.2691 0.0
O125 O 0.88689 0.24681 0.24995 0.0
O126 O 0.88441 0.21905 0.23476 0.0
C127 C 0.9309 0.21282 0.26295 0.0
O128 O 0.88156 0.24136 0.28959 0.0
O129 O 0.89223 0.21376 0.30165 0.0
In130 In 0.79845 0.92083 0.24202 0.0
O131 O 0.77231 0.90462 0.25681 0.0
O132 O 0.79198 0.92101 0.27552 0.0
C133 C 0.78749 0.8934 0.21466 0.0
C134 C 0.79266 0.95756 0.22652 0.0
C135 C 0.83657 0.91308 0.25276 0.0
O136 O 0.77935 0.91044 0.2156 0.0
O137 O 0.80065 0.89017 0.2278 0.0
O138 O 0.82488 0.92317 0.26358 0.0
O139 O 0.82962 0.90888 0.23575 0.0
C140 C 0.77714 0.90945 0.27438 0.0
O141 O 0.80508 0.94538 0.21932 0.0
O142 O 0.78395 0.95166 0.24214 0.0
In143 In 0.10831 0.7913 0.2892 0.0
O144 O 0.07628 0.80076 0.29677 0.0
O145 O 0.08706 0.7736 0.309 0.0
C146 C 0.12322 0.82854 0.29419 0.0
C147 C 0.13524 0.7648 0.30298 0.0
C148 C 0.10809 0.78384 0.24949 0.0
O149 O 0.10915 0.82474 0.28221 0.0
O150 O 0.12881 0.81379 0.30452 0.0
O151 O 0.12149 0.79391 0.25814 0.0
O152 O 0.09443 0.77751 0.2609 0.0
C153 C 0.07266 0.78557 0.30735 0.0
O154 O 0.1281 0.76386 0.28554 0.0
O155 O 0.12868 0.77904 0.31352 0.0
In156 In 0.19409 0.915 0.73544 0.0
O157 O 0.17687 0.94091 0.74929 0.0
O158 O 0.20178 0.94751 0.73058 0.0
C159 C 0.17018 0.88311 0.74027 0.0
C160 C 0.20127 0.90885 0.69651 0.0
C161 C 0.21889 0.90931 0.76661 0.0
O162 O 0.189 0.88232 0.74083 0.0
O163 O 0.16297 0.90036 0.73711 0.0
O164 O 0.2253 0.90932 0.74879 0.0
O165 O 0.20037 0.91238 0.76836 0.0
C166 C 0.18847 0.95405 0.74223 0.0
O167 O 0.21461 0.90681 0.70979 0.0
O168 O 0.18458 0.91508 0.70284 0.0
In169 In 0.10846 0.23222 0.72398 0.0
O170 O 0.08426 0.21341 0.73883 0.0
O171 O 0.0751 0.23751 0.72024 0.0
C172 C 0.13227 0.19951 0.72479 0.0
C173 C 0.11324 0.2481 0.6874 0.0
C174 C 0.12059 0.25717 0.75348 0.0
O175 O 0.13016 0.2102 0.70942 0.0
O176 O 0.12165 0.20476 0.73944 0.0
O177 O 0.1325 0.24644 0.74358 0.0
O178 O 0.10269 0.25623 0.7477 0.0
C179 C 0.06999 0.22372 0.73206 0.0
O180 O 0.12006 0.25623 0.70307 0.0
O181 O 0.10328 0.23229 0.69031 0.0
In182 In 0.7778 0.08998 0.72623 0.0
O183 O 0.79773 0.07906 0.75126 0.0
O184 O 0.78691 0.05741 0.73056 0.0
C185 C 0.80103 0.12281 0.72404 0.0
C186 C 0.76512 0.08542 0.68816 0.0
C187 C 0.74921 0.09448 0.75428 0.0
O188 O 0.80827 0.10537 0.72473 0.0
O189 O 0.78219 0.12355 0.72395 0.0
O190 O 0.75868 0.10897 0.74677 0.0
O191 O 0.75309 0.07772 0.74654 0.0
C192 C 0.79649 0.06085 0.74654 0.0
O193 O 0.75361 0.08966 0.70248 0.0
O194 O 0.78297 0.08208 0.69327 0.0
In195 In 0.90165 0.76877 0.71778 0.0
O196 O 0.89153 0.74401 0.69714 0.0
O197 O 0.90725 0.76813 0.68382 0.0
C198 C 0.87621 0.75109 0.74347 0.0
C199 C 0.93666 0.76309 0.73708 0.0
C200 C 0.88823 0.80672 0.71482 0.0
O201 O 0.88791 0.74115 0.73245 0.0
O202 O 0.877 0.7698 0.74104 0.0
O203 O 0.90578 0.80278 0.72064 0.0
O204 O 0.87814 0.79165 0.70969 0.0
C205 C 0.89793 0.75189 0.68128 0.0
O206 O 0.92017 0.76527 0.74574 0.0
O207 O 0.93593 0.76459 0.71825 0.0
In208 In 0.25392 0.17776 0.10261 0.0
O209 O 0.23166 0.16403 0.08093 0.0
O210 O 0.25783 0.17715 0.06875 0.0
C211 C 0.25898 0.14442 0.12506 0.0
C212 C 0.2866 0.20003 0.11009 0.0
C213 C 0.22558 0.20446 0.11302 0.0
O214 O 0.24236 0.15295 0.1227 0.0
O215 O 0.27305 0.152 0.11506 0.0
O216 O 0.23106 0.19038 0.12436 0.0
O217 O 0.23477 0.20539 0.09656 0.0
C218 C 0.24096 0.16936 0.06544 0.0
O219 O 0.27087 0.20077 0.12047 0.0
O220 O 0.28601 0.18786 0.09562 0.0
In221 In 0.27276 0.80893 0.91208 0.0
O222 O 0.25706 0.82753 0.93585 0.0
O223 O 0.27587 0.8039 0.94557 0.0
C224 C 0.27307 0.83441 0.88093 0.0
C225 C 0.30998 0.79507 0.90642 0.0
C226 C 0.24053 0.78597 0.90425 0.0
O227 O 0.27627 0.84041 0.89861 0.0
O228 O 0.26997 0.81588 0.8793 0.0
O229 O 0.25732 0.77844 0.90858 0.0
O230 O 0.24019 0.80481 0.90398 0.0
C231 C 0.26338 0.81721 0.9503 0.0
O232 O 0.29461 0.78415 0.90517 0.0
O233 O 0.30663 0.81287 0.91191 0.0
In234 In 0.2029 0.26064 0.91449 0.0
O235 O 0.23005 0.27897 0.90651 0.0
O236 O 0.20609 0.29416 0.92094 0.0
C237 C 0.22829 0.23437 0.89743 0.0
C238 C 0.19273 0.24408 0.9499 0.0
C239 C 0.17153 0.26715 0.88982 0.0
O240 O 0.2301 0.23981 0.91542 0.0
O241 O 0.21413 0.24261 0.88808 0.0
O242 O 0.18025 0.28117 0.89891 0.0
O243 O 0.17784 0.24993 0.89416 0.0
C244 C 0.22309 0.29538 0.91272 0.0
O245 O 0.18576 0.23823 0.93346 0.0
O246 O 0.2036 0.25944 0.94872 0.0
In247 In 0.7445 0.17237 0.91239 0.0
O248 O 0.72607 0.19628 0.89734 0.0
O249 O 0.71092 0.17739 0.91796 0.0
C250 C 0.77207 0.19885 0.89959 0.0
C251 C 0.75952 0.16554 0.94912 0.0
C252 C 0.74114 0.1389 0.88998 0.0
O253 O 0.76503 0.18524 0.88854 0.0
O254 O 0.76465 0.19959 0.91692 0.0
O255 O 0.75713 0.14873 0.89165 0.0
O256 O 0.72692 0.14527 0.90062 0.0
C257 C 0.70976 0.19164 0.90557 0.0
O258 O 0.76612 0.15704 0.93367 0.0
O259 O 0.74375 0.17554 0.94631 0.0
In260 In 0.7737 0.69764 0.89288 0.0
O261 O 0.74376 0.68405 0.88442 0.0
O262 O 0.76927 0.66494 0.885 0.0
C263 C 0.76492 0.73676 0.89751 0.0
C264 C 0.78274 0.68844 0.93076 0.0
C265 C 0.7968 0.70089 0.86009 0.0
O266 O 0.75231 0.72441 0.89074 0.0
O267 O 0.78155 0.72926 0.90218 0.0
O268 O 0.80402 0.69622 0.87694 0.0
O269 O 0.77817 0.70365 0.85994 0.0
C270 C 0.75081 0.66676 0.8814 0.0
O271 O 0.79598 0.68952 0.9173 0.0
O272 O 0.76502 0.69118 0.92481 0.0
In273 In 0.77775 0.74351 0.10672 0.0
O274 O 0.75408 0.72286 0.11958 0.0
O275 O 0.74597 0.74121 0.0948 0.0
C276 C 0.80729 0.73606 0.133 0.0
C277 C 0.79054 0.73013 0.07112 0.0
C278 C 0.77028 0.78107 0.11923 0.0
O279 O 0.79128 0.72602 0.1327 0.0
O280 O 0.80863 0.7492 0.11953 0.0
O281 O 0.78171 0.77755 0.10458 0.0
O282 O 0.76238 0.76579 0.12692 0.0
C283 C 0.74051 0.72846 0.10763 0.0
O284 O 0.78478 0.74793 0.07378 0.0
O285 O 0.79015 0.71924 0.08652 0.0
In286 In 0.1962 0.74104 0.10142 0.0
O287 O 0.21998 0.71786 0.10746 0.0
O288 O 0.19319 0.70783 0.09353 0.0
C289 C 0.2214 0.76623 0.12037 0.0
C290 C 0.19376 0.76024 0.06617 0.0
C291 C 0.16252 0.73841 0.12345 0.0
O292 O 0.22627 0.75723 0.10452 0.0
O293 O 0.20433 0.76178 0.127 0.0
O294 O 0.16254 0.74647 0.10635 0.0
O295 O 0.17911 0.73125 0.12877 0.0
C296 C 0.20993 0.70322 0.10107 0.0
O297 O 0.18941 0.76828 0.08262 0.0
O298 O 0.19776 0.74179 0.06723 0.0
In299 In 0.80862 0.27703 0.07097 0.0
O300 O 0.82902 0.25373 0.05706 0.0
O301 O 0.81128 0.27119 0.03746 0.0
C302 C 0.82995 0.28358 0.10436 0.0
C303 C 0.79645 0.31506 0.06647 0.0
C304 C 0.78145 0.24922 0.08175 0.0
O305 O 0.83837 0.281 0.08758 0.0
O306 O 0.81109 0.28312 0.10394 0.0
O307 O 0.77768 0.26211 0.06846 0.0
O308 O 0.7985 0.25076 0.0896 0.0
C309 C 0.82289 0.25644 0.03946 0.0
O310 O 0.78456 0.30059 0.0689 0.0
O311 O 0.81458 0.31007 0.06446 0.0
In312 In 0.60963 0.7873 0.71716 0.0
O313 O 0.63002 0.79412 0.74354 0.0
O314 O 0.61858 0.81864 0.72672 0.0
C315 C 0.61066 0.74893 0.73004 0.0
C316 C 0.57116 0.79874 0.71778 0.0
C317 C 0.6284 0.78673 0.68131 0.0
O318 O 0.62628 0.75893 0.72656 0.0
O319 O 0.5946 0.75848 0.72768 0.0
O320 O 0.6147 0.77459 0.6858 0.0
O321 O 0.63179 0.79979 0.69443 0.0
C322 C 0.62951 0.81285 0.74099 0.0
O323 O 0.58021 0.79503 0.70161 0.0
O324 O 0.5818 0.79746 0.7333 0.0
In325 In 0.24624 0.59161 0.70062 0.0
O326 O 0.27097 0.56854 0.69646 0.0
O327 O 0.24132 0.55781 0.69859 0.0
C328 C 0.23071 0.60867 0.66734 0.0
C329 C 0.21867 0.59512 0.72987 0.0
C330 C 0.27627 0.61547 0.71287 0.0
O331 O 0.24757 0.60015 0.66731 0.0
O332 O 0.22156 0.60765 0.68373 0.0
O333 O 0.27127 0.59986 0.7223 0.0
O334 O 0.26592 0.61912 0.69748 0.0
C335 C 0.25962 0.55358 0.69726 0.0
O336 O 0.23523 0.60414 0.73024 0.0
O337 O 0.21634 0.5836 0.71511 0.0
In338 In 0.41075 0.22737 0.69359 0.0
O339 O 0.4 0.20967 0.72015 0.0
O340 O 0.41558 0.1936 0.69753 0.0
C341 C 0.39285 0.25576 0.71597 0.0
C342 C 0.44934 0.23883 0.69129 0.0
C343 C 0.38988 0.22401 0.65902 0.0
O344 O 0.38677 0.25096 0.69876 0.0
O345 O 0.40781 0.24601 0.72205 0.0
O346 O 0.40482 0.23544 0.66066 0.0
O347 O 0.38632 0.2137 0.67435 0.0
C348 C 0.40628 0.19298 0.714 0.0
O349 O 0.43493 0.25087 0.69008 0.0
O350 O 0.4443 0.22066 0.69222 0.0
In351 In 0.77228 0.39439 0.71675 0.0
O352 O 0.74487 0.40781 0.70208 0.0
O353 O 0.76718 0.42798 0.71219 0.0
C354 C 0.78387 0.36892 0.68774 0.0
C355 C 0.80664 0.402 0.73638 0.0
C356 C 0.74578 0.37463 0.73994 0.0
O357 O 0.77526 0.3853 0.68386 0.0
O358 O 0.78716 0.3659 0.70605 0.0
O359 O 0.75212 0.39183 0.74444 0.0
O360 O 0.75321 0.36739 0.72422 0.0
C361 C 0.75009 0.42572 0.70445 0.0
O362 O 0.7907 0.39674 0.74502 0.0
O363 O 0.80489 0.40478 0.71777 0.0
In364 In 0.59168 0.24917 0.27425 0.0
O365 O 0.57005 0.27466 0.2799 0.0
O366 O 0.55772 0.24576 0.27538 0.0
C367 C 0.61044 0.24164 0.30927 0.0
C368 C 0.59178 0.21622 0.25108 0.0
C369 C 0.61412 0.2769 0.25535 0.0
O370 O 0.59656 0.25434 0.30781 0.0
O371 O 0.61405 0.23222 0.29338 0.0
O372 O 0.62022 0.2673 0.2704 0.0
O373 O 0.59679 0.27224 0.24951 0.0
C374 C 0.55453 0.26417 0.27811 0.0
O375 O 0.59837 0.23294 0.24534 0.0
O376 O 0.58434 0.21621 0.26845 0.0
In377 In 0.72556 0.60158 0.32231 0.0
O378 O 0.7431 0.62839 0.3106 0.0
O379 O 0.75893 0.60586 0.32658 0.0
C380 C 0.69191 0.61732 0.30724 0.0
C381 C 0.72829 0.56806 0.30034 0.0
C382 C 0.72553 0.60717 0.36224 0.0
O383 O 0.70858 0.62624 0.30675 0.0
O384 O 0.69205 0.60045 0.31587 0.0
O385 O 0.71203 0.61388 0.35089 0.0
O386 O 0.73709 0.59489 0.3538 0.0
C387 C 0.7595 0.62266 0.31804 0.0
O388 O 0.72211 0.56772 0.31821 0.0
O389 O 0.73347 0.58504 0.29404 0.0
In390 In 0.38717 0.77138 0.2737 0.0
O391 O 0.42089 0.77362 0.26976 0.0
O392 O 0.40315 0.76865 0.24385 0.0
C393 C 0.38481 0.76113 0.31261 0.0
C394 C 0.374 0.80923 0.27004 0.0
C395 C 0.36556 0.73987 0.2607 0.0
O396 O 0.39985 0.75703 0.30197 0.0
O397 O 0.37182 0.77176 0.30397 0.0
O398 O 0.36125 0.75766 0.25604 0.0
O399 O 0.38099 0.73803 0.27137 0.0
C400 C 0.42041 0.77082 0.2511 0.0
O401 O 0.36439 0.7942 0.26389 0.0
O402 O 0.39046 0.80523 0.27845 0.0
In403 In 0.22969 0.40025 0.31812 0.0
O404 O 0.25139 0.42484 0.32704 0.0
O405 O 0.22209 0.43348 0.31857 0.0
C406 C 0.22951 0.37978 0.3531 0.0
C407 C 0.19609 0.3888 0.29917 0.0
C408 C 0.25608 0.39027 0.28936 0.0
O409 O 0.2452 0.38379 0.34352 0.0
O410 O 0.21384 0.38722 0.34573 0.0
O411 O 0.2451 0.40557 0.28811 0.0
O412 O 0.25341 0.37984 0.30488 0.0
C413 C 0.23954 0.43896 0.32321 0.0
O414 O 0.21221 0.37903 0.29859 0.0
O415 O 0.19674 0.40461 0.30952 0.0
In416 In 0.67172 0.58276 0.73614 0.0
O417 O 0.66226 0.5574 0.71523 0.0
O418 O 0.67258 0.5497 0.74413 0.0
C419 C 0.63795 0.60506 0.73773 0.0
C420 C 0.69127 0.59059 0.77046 0.0
C421 C 0.69734 0.59732 0.70863 0.0
O422 O 0.64499 0.5984 0.72158 0.0
O423 O 0.64687 0.59887 0.7531 0.0
O424 O 0.69939 0.5801 0.71614 0.0
O425 O 0.6828 0.60723 0.71544 0.0
C426 C 0.66703 0.54365 0.72719 0.0
O427 O 0.69702 0.59701 0.75367 0.0
O428 O 0.67583 0.5797 0.76993 0.0
In429 In 0.39006 0.75796 0.74983 0.0
O430 O 0.37714 0.77941 0.7726 0.0
O431 O 0.39749 0.75725 0.78312 0.0
C432 C 0.36958 0.77033 0.71746 0.0
C433 C 0.42757 0.7696 0.74194 0.0
C434 C 0.37398 0.72098 0.7514 0.0
O435 O 0.36497 0.77569 0.73497 0.0
O436 O 0.38471 0.75914 0.71632 0.0
O437 O 0.39084 0.72416 0.74348 0.0
O438 O 0.36588 0.73619 0.75897 0.0
C439 C 0.38605 0.77168 0.78737 0.0
O440 O 0.4233 0.75169 0.74637 0.0
O441 O 0.41295 0.78152 0.74181 0.0
In442 In 0.28132 0.3877 0.77548 0.0
O443 O 0.25467 0.3818 0.79547 0.0
O444 O 0.28096 0.39315 0.80929 0.0
C445 C 0.25832 0.37392 0.74531 0.0
C446 C 0.29056 0.42382 0.76044 0.0
C447 C 0.31292 0.36295 0.77912 0.0
O448 O 0.2544 0.39006 0.75427 0.0
O449 O 0.27312 0.36452 0.75221 0.0
O450 O 0.31495 0.38125 0.77483 0.0
O451 O 0.29517 0.3576 0.78248 0.0
C452 C 0.26331 0.38678 0.81149 0.0
O453 O 0.29516 0.40766 0.75194 0.0
O454 O 0.28216 0.42181 0.77726 0.0
In455 In 0.61089 0.25994 0.78011 0.0
O456 O 0.61469 0.23166 0.7983 0.0
O457 O 0.60475 0.2576 0.81372 0.0
C458 C 0.62849 0.23903 0.75041 0.0
C459 C 0.57559 0.2685 0.76277 0.0
C460 C 0.63404 0.29203 0.78792 0.0
O461 O 0.61215 0.23363 0.75815 0.0
O462 O 0.63618 0.25437 0.75821 0.0
O463 O 0.61641 0.29375 0.78133 0.0
O464 O 0.63953 0.27429 0.79115 0.0
C465 C 0.6101 0.2395 0.81484 0.0
O466 O 0.59219 0.27311 0.75521 0.0
O467 O 0.57664 0.26056 0.77989 0.0
In468 In 0.74168 0.40367 0.21084 0.0
O469 O 0.72332 0.43223 0.2143 0.0
O470 O 0.75491 0.434 0.21773 0.0
C471 C 0.70607 0.38477 0.20988 0.0
C472 C 0.76083 0.39782 0.17579 0.0
C473 C 0.75839 0.38776 0.24422 0.0
O474 O 0.71004 0.39839 0.22236 0.0
O475 O 0.71974 0.3814 0.19732 0.0
O476 O 0.74641 0.37829 0.23321 0.0
O477 O 0.76279 0.40493 0.23788 0.0
C478 C 0.73832 0.44293 0.21854 0.0
O479 O 0.76557 0.38893 0.19175 0.0
O480 O 0.74673 0.41022 0.1776 0.0
In481 In 0.58811 0.72273 0.20276 0.0
O482 O 0.55558 0.71541 0.19556 0.0
O483 O 0.56426 0.74593 0.19609 0.0
C484 C 0.59535 0.68734 0.22086 0.0
C485 C 0.60835 0.72624 0.16832 0.0
C486 C 0.60527 0.74359 0.23277 0.0
O487 O 0.58266 0.69968 0.22731 0.0
O488 O 0.60336 0.69224 0.2045 0.0
O489 O 0.61444 0.73919 0.2169 0.0
O490 O 0.58719 0.73825 0.23312 0.0
C491 C 0.55029 0.73346 0.19406 0.0
O492 O 0.60715 0.74017 0.18103 0.0
O493 O 0.5984 0.7107 0.17255 0.0
In494 In 0.24364 0.59557 0.23492 0.0
O495 O 0.26569 0.57974 0.25523 0.0
O496 O 0.24976 0.56202 0.23414 0.0
C497 C 0.27026 0.62581 0.23752 0.0
C498 C 0.22763 0.60046 0.19809 0.0
C499 C 0.21629 0.59541 0.26449 0.0
O500 O 0.25378 0.62572 0.24664 0.0
O501 O 0.27343 0.61056 0.22682 0.0
O502 O 0.22491 0.61108 0.2584 0.0
O503 O 0.22006 0.57998 0.25428 0.0
C504 C 0.2618 0.56247 0.24874 0.0
O505 O 0.21903 0.60595 0.21392 0.0
O506 O 0.24394 0.59141 0.20085 0.0
In507 In 0.38579 0.30053 0.21382 0.0
O508 O 0.38539 0.27092 0.19749 0.0
O509 O 0.38571 0.29723 0.17969 0.0
C510 C 0.36716 0.28003 0.24325 0.0
C511 C 0.42279 0.30819 0.22782 0.0
C512 C 0.36285 0.33323 0.20902 0.0
O513 O 0.3821 0.27311 0.23405 0.0
O514 O 0.36142 0.29694 0.23727 0.0
O515 O 0.38058 0.33426 0.21553 0.0
O516 O 0.35741 0.31594 0.20375 0.0
C517 C 0.38493 0.27835 0.18017 0.0
O518 O 0.4074 0.3083 0.2386 0.0
O519 O 0.41951 0.30513 0.20946 0.0
In520 In 0.76366 0.70543 0.58025 0.0
O521 O 0.73765 0.70048 0.55923 0.0
O522 O 0.76622 0.70516 0.54612 0.0
C523 C 0.76444 0.6704 0.60039 0.0
C524 C 0.80057 0.72163 0.58158 0.0
C525 C 0.7378 0.72946 0.59982 0.0
O526 O 0.75621 0.67209 0.58348 0.0
O527 O 0.77294 0.68605 0.60651 0.0
O528 O 0.74464 0.71353 0.60724 0.0
O529 O 0.74444 0.73365 0.58267 0.0
C530 C 0.74766 0.70266 0.54344 0.0
O531 O 0.78491 0.73105 0.58626 0.0
O532 O 0.79756 0.70413 0.5751 0.0
In533 In 0.76022 0.29836 0.40393 0.0
O534 O 0.77422 0.26812 0.39787 0.0
O535 O 0.79257 0.29046 0.41119 0.0
C536 C 0.72958 0.27876 0.38652 0.0
C537 C 0.74834 0.30768 0.44136 0.0
C538 C 0.77069 0.32879 0.37933 0.0
O539 O 0.73647 0.27371 0.40336 0.0
O540 O 0.7385 0.29325 0.37836 0.0
O541 O 0.75675 0.3305 0.39196 0.0
O542 O 0.7797 0.31231 0.37995 0.0
C543 C 0.7914 0.27299 0.40406 0.0
O544 O 0.73705 0.30913 0.42638 0.0
O545 O 0.76613 0.303 0.43725 0.0
In546 In 0.72154 0.76901 0.37965 0.0
O547 O 0.7004 0.75194 0.39999 0.0
O548 O 0.71812 0.77494 0.41294 0.0
C549 C 0.69222 0.76556 0.3521 0.0
C550 C 0.73935 0.80385 0.36976 0.0
C551 C 0.7482 0.73888 0.38116 0.0
O552 O 0.693 0.78005 0.36417 0.0
O553 O 0.70594 0.75283 0.35419 0.0
O554 O 0.73905 0.74376 0.36535 0.0
O555 O 0.74531 0.75047 0.39577 0.0
C556 C 0.70596 0.76073 0.41572 0.0
O557 O 0.74618 0.78705 0.36458 0.0
O558 O 0.724 0.80303 0.38067 0.0
In559 In 0.26449 0.66031 0.39149 0.0
O560 O 0.26422 0.66419 0.42556 0.0
O561 O 0.2571 0.68915 0.40711 0.0
C562 C 0.25468 0.62127 0.38858 0.0
C563 C 0.23844 0.67635 0.36516 0.0
C564 C 0.30282 0.667 0.38149 0.0
O565 O 0.27075 0.6284 0.38172 0.0
O566 O 0.24487 0.63341 0.39913 0.0
O567 O 0.2974 0.6653 0.39954 0.0
O568 O 0.28916 0.66402 0.3688 0.0
C569 C 0.25939 0.68246 0.42456 0.0
O570 O 0.25677 0.68077 0.36527 0.0
O571 O 0.23332 0.66379 0.37823 0.0
In572 In 0.28941 0.22526 0.40619 0.0
O573 O 0.27034 0.19799 0.4142 0.0
O574 O 0.30068 0.19317 0.40632 0.0
C575 C 0.25649 0.24861 0.40309 0.0
C576 C 0.30773 0.24582 0.43543 0.0
C577 C 0.30906 0.22866 0.3713 0.0
O578 O 0.26471 0.24035 0.38828 0.0
O579 O 0.26391 0.24379 0.41972 0.0
O580 O 0.31762 0.2313 0.38797 0.0
O581 O 0.2908 0.22399 0.37237 0.0
C582 C 0.28407 0.1855 0.41086 0.0
O583 O 0.3068 0.25196 0.41762 0.0
O584 O 0.30094 0.22836 0.43809 0.0
In585 In 0.23705 0.29719 0.58244 0.0
O586 O 0.21785 0.26942 0.58455 0.0
O587 O 0.20376 0.29647 0.57535 0.0
C588 C 0.26755 0.27396 0.59533 0.0
C589 C 0.25144 0.31045 0.54727 0.0
C590 C 0.2279 0.32381 0.61129 0.0
O591 O 0.26086 0.28861 0.60508 0.0
O592 O 0.25844 0.27048 0.57918 0.0
O593 O 0.23714 0.32899 0.59562 0.0
O594 O 0.22325 0.30559 0.61205 0.0
C595 C 0.20172 0.27828 0.58017 0.0
O596 O 0.25943 0.31477 0.56378 0.0
O597 O 0.23524 0.30085 0.54869 0.0
In598 In 0.72447 0.21837 0.59813 0.0
O599 O 0.71034 0.24457 0.58181 0.0
O600 O 0.72216 0.22101 0.56415 0.0
C601 C 0.69486 0.20768 0.62336 0.0
C602 C 0.74335 0.18327 0.59302 0.0
C603 C 0.74699 0.24623 0.61675 0.0
O604 O 0.69141 0.21721 0.6074 0.0
O605 O 0.71293 0.20316 0.62605 0.0
O606 O 0.75227 0.23849 0.60036 0.0
O607 O 0.73092 0.23942 0.62382 0.0
C608 C 0.71414 0.2381 0.56456 0.0
O609 O 0.75182 0.19865 0.60002 0.0
O610 O 0.72555 0.18601 0.58724 0.0
In611 In 0.23446 0.77193 0.58745 0.0
O612 O 0.20995 0.78897 0.60378 0.0
O613 O 0.22762 0.80512 0.58301 0.0
C614 C 0.21735 0.73869 0.60255 0.0
C615 C 0.23989 0.76425 0.54845 0.0
C616 C 0.26988 0.77383 0.60676 0.0
O617 O 0.22534 0.75196 0.61336 0.0
O618 O 0.21687 0.7428 0.58413 0.0
O619 O 0.26116 0.75761 0.60279 0.0
O620 O 0.26115 0.78923 0.60026 0.0
C621 C 0.21399 0.80567 0.59601 0.0
O622 O 0.25426 0.76618 0.56051 0.0
O623 O 0.2228 0.76723 0.55589 0.0
C624 C 0.96564 0.22521 0.26649 0.0
C625 C 0.95183 0.21328 0.25625 0.0
C626 C 0.98432 0.22959 0.25811 0.0
C627 C 0.98905 0.22214 0.23886 0.0
C628 C 0.97561 0.20912 0.22895 0.0
C629 C 0.95715 0.20468 0.23789 0.0
C630 C 0.9985 0.2431 0.26939 0.0
C631 C 0.98011 0.20102 0.20837 0.0
C632 C 0.02557 0.25581 0.21169 0.0
C633 C 0.04369 0.24603 0.21546 0.0
C634 C 0.00741 0.24749 0.21814 0.0
C635 C 0.00752 0.22914 0.22878 0.0
C636 C 0.02566 0.21867 0.23157 0.0
C637 C 0.04353 0.2272 0.22477 0.0
C638 C 0.98824 0.25888 0.21456 0.0
C639 C 0.0264 0.19914 0.24292 0.0
H640 H 0.96151 0.23181 0.28072 0.0
H641 H 0.94635 0.19562 0.22986 0.0
H642 H 0.01363 0.2363 0.27007 0.0
H643 H -9e-05 0.25759 0.26142 0.0
H644 H 0.99333 0.2461 0.28489 0.0
H645 H 0.96935 0.1892 0.20382 0.0
H646 H 0.97934 0.21338 0.1973 0.0
H647 H 0.99548 0.19478 0.20774 0.0
H648 H 0.02564 0.27029 0.20438 0.0
H649 H 0.05752 0.2195 0.22764 0.0
H650 H 0.98253 0.26479 0.22899 0.0
H651 H 0.9766 0.24881 0.20835 0.0
H652 H 0.99039 0.27165 0.20413 0.0
H653 H 0.02333 0.20198 0.25898 0.0
H654 H 0.04121 0.19171 0.24165 0.0
H655 H 0.01472 0.18871 0.23742 0.0
C656 C 0.78698 0.9763 0.19495 0.0
C657 C 0.78647 0.97577 0.2159 0.0
C658 C 0.77824 0.99219 0.18439 0.0
C659 C 0.76936 0.00809 0.19514 0.0
C660 C 0.76971 0.00805 0.21634 0.0
C661 C 0.77798 0.99168 0.22648 0.0
C662 C 0.77769 0.9915 0.16182 0.0
C663 C 0.76093 0.02507 0.22833 0.0
C664 C 0.75994 0.05895 0.1725 0.0
C665 C 0.73896 0.05925 0.17175 0.0
C666 C 0.77022 0.04193 0.17907 0.0
C667 C 0.75924 0.02467 0.18444 0.0
C668 C 0.73822 0.02425 0.18179 0.0
C669 C 0.72826 0.04169 0.1757 0.0
C670 C 0.79259 0.04311 0.182 0.0
C671 C 0.7261 0.00584 0.18674 0.0
H672 H 0.79329 0.96379 0.18678 0.0
H673 H 0.77761 0.9912 0.24269 0.0
H674 H 0.76195 0.9902 0.15671 0.0
H675 H 0.78377 0.00555 0.15543 0.0
H676 H 0.78632 0.97869 0.15571 0.0
H677 H 0.76375 0.02341 0.24463 0.0
H678 H 0.76735 0.03953 0.22329 0.0
H679 H 0.74454 0.02579 0.22587 0.0
H680 H 0.7683 0.07252 0.16948 0.0
H681 H 0.71205 0.04186 0.175 0.0
H682 H 0.80007 0.0296 0.17594 0.0
H683 H 0.79596 0.04376 0.19825 0.0
H684 H 0.79915 0.05655 0.17474 0.0
H685 H 0.73329 0.99227 0.18046 0.0
H686 H 0.71057 0.00688 0.18092 0.0
H687 H 0.72541 0.00395 0.20322 0.0
C688 C 0.04942 0.76325 0.32612 0.0
C689 C 0.05255 0.78079 0.31502 0.0
C690 C 0.03002 0.75652 0.33034 0.0
C691 C 0.01348 0.76754 0.32311 0.0
C692 C 0.01659 0.78608 0.31331 0.0
C693 C 0.03614 0.79253 0.30943 0.0
C694 C 0.02728 0.7369 0.34118 0.0
C695 C -0.0007 0.79834 0.30546 0.0
C696 C 0.96725 0.74182 0.3037 0.0
C697 C 0.95293 0.74767 0.31781 0.0
C698 C 0.98735 0.74711 0.30598 0.0
C699 C 0.99325 0.75845 0.32287 0.0
C700 C 0.97919 0.76289 0.33805 0.0
C701 C 0.95908 0.75745 0.33532 0.0
C702 C 0.00194 0.7419 0.28952 0.0
C703 C 0.98504 0.77461 0.35643 0.0
H704 H 0.06212 0.75424 0.33069 0.0
H705 H 0.03852 0.80618 0.301 0.0
H706 H 0.01486 0.73788 0.35215 0.0
H707 H 0.02335 0.72507 0.33023 0.0
H708 H 0.04112 0.73226 0.34914 0.0
H709 H 0.00412 0.81333 0.30015 0.0
H710 H 0.99216 0.79033 0.29279 0.0
H711 H 0.98777 0.80032 0.31722 0.0
H712 H 0.96257 0.73405 0.29025 0.0
H713 H 0.94804 0.76194 0.34631 0.0
H714 H 0.01554 0.73482 0.29586 0.0
H715 H 0.0067 0.75577 0.28173 0.0
H716 H 0.99534 0.73157 0.2783 0.0
H717 H -0.00037 0.7694 0.36239 0.0
H718 H 0.97359 0.77339 0.36842 0.0
H719 H 0.98671 0.79063 0.35243 0.0
C720 C 0.24615 0.99081 0.20388 0.0
C721 C 0.23622 0.97367 0.1971 0.0
C722 C 0.23533 0.00748 0.21045 0.0
C723 C 0.21414 0.00696 0.20995 0.0
C724 C 0.20424 0.9909 0.2004 0.0
C725 C 0.21544 0.97432 0.1941 0.0
C726 C 0.24653 0.02454 0.22016 0.0
C727 C 0.18174 0.9902 0.19879 0.0
C728 C 0.19662 0.03161 0.25713 0.0
C729 C 0.19473 0.05141 0.25064 0.0
C730 C 0.20068 0.01628 0.24345 0.0
C731 C 0.2029 0.02103 0.22289 0.0
C732 C 0.19819 0.04046 0.21602 0.0
C733 C 0.19405 0.05549 0.23004 0.0
C734 C 0.20504 0.99556 0.25136 0.0
C735 C 0.19984 0.04605 0.19421 0.0
H736 H 0.26224 0.9905 0.20588 0.0
H737 H 0.20769 0.96121 0.1885 0.0
H738 H 0.24072 0.03913 0.21483 0.0
H739 H 0.24431 0.02396 0.23661 0.0
H740 H 0.26284 0.02385 0.21708 0.0
H741 H 0.17689 0.98018 0.18645 0.0
H742 H 0.17543 0.98431 0.21296 0.0
H743 H 0.1754 0.00533 0.19627 0.0
H744 H 0.19681 0.02836 0.27302 0.0
H745 H 0.19231 0.07078 0.22489 0.0
H746 H 0.22138 0.99269 0.25059 0.0
H747 H 0.19746 0.98406 0.24212 0.0
H748 H 0.20015 0.99375 0.26714 0.0
H749 H 0.21549 0.05047 0.19088 0.0
H750 H 0.19003 0.05896 0.19057 0.0
H751 H 0.19588 0.0333 0.18434 0.0
C752 C 0.95266 0.74905 0.76748 0.0
C753 C 0.95473 0.75729 0.74828 0.0
C754 C 0.9693 0.742 0.77806 0.0
C755 C 0.9885 0.74367 0.76941 0.0
C756 C 0.99076 0.75258 0.75028 0.0
C757 C 0.97376 0.75905 0.73979 0.0
C758 C 0.96625 0.73218 0.79819 0.0
C759 C 0.01112 0.75501 0.74079 0.0
C760 C 0.03522 0.74049 0.80132 0.0
C761 C 0.04275 0.72181 0.79557 0.0
C762 C 0.01713 0.74762 0.79344 0.0
C763 C 0.00619 0.73547 0.77998 0.0
C764 C 0.01291 0.71588 0.77556 0.0
C765 C 0.03132 0.70939 0.78319 0.0
C766 C 0.0106 0.7687 0.79826 0.0
C767 C 0.00128 0.70224 0.76181 0.0
H768 H 0.93791 0.74751 0.77403 0.0
H769 H 0.97534 0.76548 0.72498 0.0
H770 H 0.97118 0.71634 0.79749 0.0
H771 H 0.97553 0.73969 0.80972 0.0
H772 H 0.95037 0.73257 0.80307 0.0
H773 H 0.01043 0.76343 0.72648 0.0
H774 H 0.02133 0.76298 0.75118 0.0
H775 H 0.01774 0.74009 0.73783 0.0
H776 H 0.04424 0.75023 0.81065 0.0
H777 H 0.03722 0.69495 0.77872 0.0
H778 H 0.99463 0.76901 0.8027 0.0
H779 H 0.01214 0.77816 0.7847 0.0
H780 H 0.01967 0.77544 0.81045 0.0
H781 H 0.98529 0.70182 0.76621 0.0
H782 H 0.00725 0.68673 0.76189 0.0
H783 H 0.00202 0.70806 0.74628 0.0
C784 C 0.25237 0.03404 0.78995 0.0
C785 C 0.24503 0.05343 0.79274 0.0
C786 C 0.23949 0.01846 0.78436 0.0
C787 C 0.21894 0.02257 0.78108 0.0
C788 C 0.21123 0.04177 0.78538 0.0
C789 C 0.22437 0.05695 0.79137 0.0
C790 C 0.24816 0.99795 0.78051 0.0
C791 C 0.18948 0.0468 0.78194 0.0
C792 C 0.19942 0.98934 0.73998 0.0
C793 C 0.19033 0.97408 0.75103 0.0
C794 C 0.20724 0.00625 0.74955 0.0
C795 C 0.20638 0.00753 0.77069 0.0
C796 C 0.19565 0.99301 0.78172 0.0
C797 C 0.1875 0.97649 0.77167 0.0
C798 C 0.21796 0.02183 0.73718 0.0
C799 C 0.19451 0.99378 0.80425 0.0
H800 H 0.2683 0.03126 0.79115 0.0
H801 H 0.2186 0.07196 0.79352 0.0
H802 H 0.23874 0.98624 0.78757 0.0
H803 H 0.24838 0.99502 0.76417 0.0
H804 H 0.26367 0.99654 0.78631 0.0
H805 H 0.18517 0.06102 0.78938 0.0
H806 H 0.18677 0.04843 0.76564 0.0
H807 H 0.1796 0.03466 0.78745 0.0
H808 H 0.20157 0.98743 0.72401 0.0
H809 H 0.18065 0.96454 0.78026 0.0
H810 H 0.23433 0.02046 0.73955 0.0
H811 H 0.21347 0.0371 0.74187 0.0
H812 H 0.21485 0.02011 0.72094 0.0
H813 H 0.20904 0.98886 0.81061 0.0
H814 H 0.18259 0.98381 0.81017 0.0
H815 H 0.19171 0.00924 0.80958 0.0
C816 C 0.03387 0.23233 0.73058 0.0
C817 C 0.0496 0.22246 0.74024 0.0
C818 C 0.01532 0.23473 0.74002 0.0
C819 C 0.01265 0.22738 0.75971 0.0
C820 C 0.02815 0.21646 0.76912 0.0
C821 C 0.04644 0.21397 0.75916 0.0
C822 C -0.00106 0.24603 0.72931 0.0
C823 C 0.02589 0.20854 0.79015 0.0
C824 C 0.97409 0.25679 0.78892 0.0
C825 C 0.95719 0.24461 0.78684 0.0
C826 C 0.99261 0.2508 0.7811 0.0
C827 C 0.99409 0.23234 0.77077 0.0
C828 C 0.97731 0.21954 0.76957 0.0
C829 C 0.95906 0.22579 0.77773 0.0
C830 C 0.01035 0.26467 0.783 0.0
C831 C 0.97828 0.19981 0.75861 0.0
H832 H 0.0363 0.23884 0.71592 0.0
H833 H 0.05866 0.20646 0.76673 0.0
H834 H 0.98477 0.23741 0.72974 0.0
H835 H 0.99621 0.26049 0.73699 0.0
H836 H 0.00279 0.24916 0.71344 0.0
H837 H 0.0384 0.19847 0.79444 0.0
H838 H 0.02549 0.22126 0.8008 0.0
H839 H 0.01159 0.20028 0.79179 0.0
H840 H 0.9727 0.27129 0.79605 0.0
H841 H 0.94602 0.21628 0.77612 0.0
H842 H 0.01432 0.27069 0.76806 0.0
H843 H 0.02356 0.25638 0.7887 0.0
H844 H 0.00727 0.27744 0.79318 0.0
H845 H 0.98007 0.20262 0.74234 0.0
H846 H 0.96459 0.19067 0.76089 0.0
H847 H 0.99144 0.19101 0.76357 0.0
C848 C 0.79995 0.02482 0.75518 0.0
C849 C 0.80167 0.04488 0.76084 0.0
C850 C 0.79996 0.0096 0.76959 0.0
C851 C 0.80151 0.01467 0.79014 0.0
C852 C 0.8049 0.03476 0.79579 0.0
C853 C 0.80503 0.04966 0.78102 0.0
C854 C 0.7967 0.98826 0.7629 0.0
C855 C 0.80667 0.04085 0.81746 0.0
C856 C 0.77171 0.977 0.81925 0.0
C857 C 0.78652 0.96289 0.82375 0.0
C858 C 0.7767 0.99522 0.8102 0.0
C859 C 0.79695 -0.00082 0.80538 0.0
C860 C 0.81213 0.98614 0.81222 0.0
C861 C 0.80672 0.96809 0.82149 0.0
C862 C 0.7601 0.00915 0.8038 0.0
C863 C 0.8339 0.99013 0.80782 0.0
H864 H 0.79748 0.02108 0.73959 0.0
H865 H 0.80635 0.06519 0.7855 0.0
H866 H 0.80783 0.9782 0.77001 0.0
H867 H 0.78162 0.98319 0.76765 0.0
H868 H 0.79783 0.98661 0.7464 0.0
H869 H 0.8146 0.05537 0.81906 0.0
H870 H 0.79146 0.0426 0.82387 0.0
H871 H 0.81466 0.02935 0.82639 0.0
H872 H 0.75609 0.9731 0.82127 0.0
H873 H 0.81826 0.95726 0.82508 0.0
H874 H 0.75796 0.008 0.78737 0.0
H875 H 0.764 0.0249 0.80726 0.0
H876 H 0.74569 0.00547 0.81123 0.0
H877 H 0.83708 0.98622 0.79201 0.0
H878 H 0.84389 0.98106 0.81754 0.0
H879 H 0.83753 0.0062 0.80986 0.0
C880 C 0.24152 0.17765 0.0292 0.0
C881 C 0.23058 0.17232 0.04622 0.0
C882 C 0.23205 0.18664 0.01279 0.0
C883 C 0.21126 0.19072 0.01372 0.0
C884 C 0.19988 0.18367 0.03008 0.0
C885 C 0.20967 0.1743 0.04608 0.0
C886 C 0.2446 0.19334 0.99525 0.0
C887 C 0.17774 0.18779 0.0317 0.0
C888 C 0.19941 0.2386 0.98613 0.0
C889 C 0.19252 0.23121 0.96781 0.0
C890 C 0.20409 0.22553 0.00186 0.0
C891 C 0.20225 0.2046 -0.00108 0.0
C892 C 0.19387 0.19718 0.98098 0.0
C893 C 0.18889 0.21063 0.96568 0.0
C894 C 0.21235 0.23405 0.02109 0.0
C895 C 0.19178 0.17501 0.97723 0.0
H896 H 0.25766 0.17604 0.02925 0.0
H897 H 0.20113 0.17025 0.05927 0.0
H898 H 0.23721 0.18934 0.98093 0.0
H899 H 0.24623 0.20986 0.9956 0.0
H900 H 0.25977 0.18657 0.99551 0.0
H901 H 0.17048 0.17811 0.04309 0.0
H902 H 0.17547 0.20363 0.03613 0.0
H903 H 0.17013 0.18555 0.01713 0.0
H904 H 0.20212 0.2545 0.98784 0.0
H905 H 0.18362 0.20483 0.95148 0.0
H906 H 0.22853 0.23054 0.02221 0.0
H907 H 0.20482 0.22717 0.03419 0.0
H908 H 0.21048 0.25055 0.02192 0.0
H909 H 0.20677 0.16856 0.97417 0.0
H910 H 0.18196 0.17182 0.96421 0.0
H911 H 0.18567 0.16726 0.99057 0.0
C912 C 0.26186 0.80709 0.98601 0.0
C913 C 0.25293 0.8166 0.96965 0.0
C914 C 0.25037 0.80115 0.0025 0.0
C915 C 0.22942 0.80435 0.00227 0.0
C916 C 0.22061 0.81537 0.9865 0.0
C917 C 0.23257 0.82161 0.97044 0.0
C918 C 0.26042 0.79006 0.01944 0.0
C919 C 0.19833 0.81892 0.9856 0.0
C920 C 0.20222 0.7632 0.02997 0.0
C921 C 0.1985 0.77238 0.0484 0.0
C922 C 0.21104 0.77395 0.01426 0.0
C923 C 0.21668 0.79417 0.01732 0.0
C924 C 0.21181 0.80384 0.03547 0.0
C925 C 0.20254 0.79286 0.05073 0.0
C926 C 0.21545 0.7633 0.99484 0.0
C927 C 0.21782 0.82525 0.03941 0.0
H928 H 0.27761 0.80327 0.98541 0.0
H929 H 0.22557 0.82883 0.9577 0.0
H930 H 0.25531 0.79595 0.03409 0.0
H931 H 0.25628 0.774 0.01877 0.0
H932 H 0.27698 0.79124 0.0187 0.0
H933 H 0.19431 0.83037 0.97423 0.0
H934 H 0.19069 0.80472 0.98165 0.0
H935 H 0.19248 0.82375 0.00035 0.0
H936 H 0.19904 0.74739 0.02813 0.0
H937 H 0.1998 0.80002 0.06502 0.0
H938 H 0.23182 0.76102 0.99336 0.0
H939 H 0.21051 0.77251 0.98193 0.0
H940 H 0.20798 0.74847 0.99399 0.0
H941 H 0.23425 0.82599 0.04173 0.0
H942 H 0.21036 0.83143 0.05292 0.0
H943 H 0.21421 0.83492 0.02642 0.0
C944 C 0.79351 0.16903 0.9636 0.0
C945 C 0.77269 0.16986 0.96628 0.0
C946 C 0.80639 0.18012 0.97592 0.0
C947 C 0.79819 0.19186 0.99147 0.0
C948 C 0.77748 0.19053 0.99586 0.0
C949 C 0.76492 0.17966 0.98306 0.0
C950 C 0.82836 0.18096 0.9708 0.0
C951 C 0.76825 0.20225 0.01283 0.0
C952 C 0.82665 0.22046 0.031 0.0
C953 C 0.82338 0.24019 0.02454 0.0
C954 C 0.81999 0.20417 0.01958 0.0
C955 C 0.81027 0.20779 0.00116 0.0
C956 C 0.80942 0.22751 0.99339 0.0
C957 C 0.81585 0.24355 0.00529 0.0
C958 C 0.82142 0.18339 0.02829 0.0
C959 C 0.79992 0.2319 0.97336 0.0
H960 H 0.79966 0.16145 0.95065 0.0
H961 H 0.74886 0.18019 0.98526 0.0
H962 H 0.83126 0.19442 0.96151 0.0
H963 H 0.83773 0.18212 0.98444 0.0
H964 H 0.83309 0.1676 0.96214 0.0
H965 H 0.75266 0.19744 0.01596 0.0
H966 H 0.77723 0.20054 0.02668 0.0
H967 H 0.76807 0.2184 0.00893 0.0
H968 H 0.83256 0.21774 0.04586 0.0
H969 H 0.81351 0.25876 0.00017 0.0
H970 H 0.8247 0.17215 0.01653 0.0
H971 H 0.80686 0.17935 0.03517 0.0
H972 H 0.83314 0.18247 0.04004 0.0
H973 H 0.80569 0.2215 0.96178 0.0
H974 H 0.80276 0.24751 0.96839 0.0
H975 H 0.78351 0.22964 0.9744 0.0
C976 C 0.77218 0.6865 0.96626 0.0
C977 C 0.78766 0.6877 0.95222 0.0
C978 C 0.77569 0.69071 0.98645 0.0
C979 C 0.79518 0.69621 0.99267 0.0
C980 C 0.81123 0.69556 0.9789 0.0
C981 C 0.80727 0.69129 0.95874 0.0
C982 C 0.75819 0.691 0.00074 0.0
C983 C 0.83225 0.70101 0.98507 0.0
C984 C 0.79321 0.73427 0.03425 0.0
C985 C 0.79524 0.72208 0.05115 0.0
C986 C 0.79444 0.72616 0.01499 0.0
C987 C 0.79787 0.70537 0.01266 0.0
C988 C 0.8014 0.69326 0.02964 0.0
C989 C 0.79997 0.70177 0.04877 0.0
C990 C 0.79072 0.73961 0.9972 0.0
C991 C 0.80542 0.67113 0.0277 0.0
H992 H 0.75704 0.68349 0.96129 0.0
H993 H 0.81932 0.69212 0.94791 0.0
H994 H 0.76192 0.68286 0.01471 0.0
H995 H 0.75471 0.70669 0.00488 0.0
H996 H 0.74456 0.68418 0.9941 0.0
H997 H 0.84346 0.69597 0.97389 0.0
H998 H 0.83344 0.7175 0.98655 0.0
H999 H 0.83602 0.69438 -0.00018 0.0
H1000 H 0.78971 0.75002 0.03605 0.0
H1001 H 0.80173 0.69233 0.06182 0.0
H1002 H 0.77633 0.73546 0.99003 0.0
H1003 H 0.80267 0.73766 0.98588 0.0
H1004 H 0.79002 0.75565 0.00148 0.0
H1005 H 0.7913 0.66329 0.02386 0.0
H1006 H 0.81133 0.66464 0.04181 0.0
H1007 H 0.81624 0.66816 0.01548 0.0
C1008 C 0.54035 0.80466 0.73761 0.0
C1009 C 0.54927 0.80077 0.71905 0.0
C1010 C 0.51976 0.80209 0.74036 0.0
C1011 C 0.50789 0.79549 0.72414 0.0
C1012 C 0.51654 0.79314 0.70496 0.0
C1013 C 0.53721 0.79586 0.70262 0.0
C1014 C 0.51104 0.80493 0.76101 0.0
C1015 C 0.50428 0.78629 0.68727 0.0
C1016 C 0.46397 0.76262 0.73813 0.0
C1017 C 0.44803 0.77614 0.73703 0.0
C1018 C 0.4835 0.76871 0.73364 0.0
C1019 C 0.4871 0.78879 0.72787 0.0
C1020 C 0.47103 0.80244 0.72646 0.0
C1021 C 0.45163 0.79596 0.73111 0.0
C1022 C 0.50034 0.75372 0.73536 0.0
C1023 C 0.47435 0.82392 0.72028 0.0
H1024 H 0.54963 0.80864 0.75031 0.0
H1025 H 0.54407 0.79288 0.68823 0.0
H1026 H 0.49712 0.81392 0.76029 0.0
H1027 H 0.50707 0.79013 0.7674 0.0
H1028 H 0.5217 0.81241 0.77134 0.0
H1029 H 0.51251 0.78802 0.67294 0.0
H1030 H 0.50036 0.77027 0.68918 0.0
H1031 H 0.49007 0.79481 0.68633 0.0
H1032 H 0.46121 0.74727 0.74265 0.0
H1033 H 0.43931 0.80643 0.73015 0.0
H1034 H 0.51125 0.75879 0.74679 0.0
H1035 H 0.50845 0.75262 0.72092 0.0
H1036 H 0.49493 0.73858 0.73957 0.0
H1037 H 0.48412 0.8315 0.73135 0.0
H1038 H 0.46011 0.83241 0.71908 0.0
H1039 H 0.48214 0.82451 0.70565 0.0
C1040 C 0.28616 0.46082 0.75971 0.0
C1041 C 0.29175 0.44317 0.74995 0.0
C1042 C 0.28361 0.47864 0.74896 0.0
C1043 C 0.28652 0.47866 0.72797 0.0
C1044 C 0.29335 0.46118 0.71824 0.0
C1045 C 0.29599 0.44363 0.72939 0.0
C1046 C 0.27666 0.49713 0.75992 0.0
C1047 C 0.29656 0.46063 0.69589 0.0
C1048 C 0.25396 0.51717 0.70252 0.0
C1049 C 0.2673 0.53319 0.70056 0.0
C1050 C 0.26039 0.49876 0.7102 0.0
C1051 C 0.28059 0.49648 0.71617 0.0
C1052 C 0.29445 0.51208 0.71273 0.0
C1053 C 0.28764 0.53028 0.70485 0.0
C1054 C 0.24525 0.48226 0.71325 0.0
C1055 C 0.31612 0.51015 0.71881 0.0
H1056 H 0.28298 0.46052 0.77561 0.0
H1057 H 0.30031 0.42998 0.72176 0.0
H1058 H 0.28622 0.51012 0.75597 0.0
H1059 H 0.26114 0.50081 0.75532 0.0
H1060 H 0.27694 0.49514 0.77642 0.0
H1061 H 0.30457 0.44688 0.69108 0.0
H1062 H 0.28186 0.46108 0.6882 0.0
H1063 H 0.30519 0.47388 0.69085 0.0
H1064 H 0.23825 0.51934 0.69908 0.0
H1065 H 0.29803 0.54264 0.7033 0.0
H1066 H 0.24243 0.48027 0.72949 0.0
H1067 H 0.25109 0.46787 0.70742 0.0
H1068 H 0.23078 0.48558 0.70577 0.0
H1069 H 0.31726 0.51081 0.73536 0.0
H1070 H 0.32548 0.52231 0.71242 0.0
H1071 H 0.32231 0.49554 0.71399 0.0
C1072 C 0.47313 0.26603 0.70013 0.0
C1073 C 0.46979 0.24575 0.69581 0.0
C1074 C 0.49092 0.27229 0.7093 0.0
C1075 C 0.50574 0.25795 0.71396 0.0
C1076 C 0.50317 0.23777 0.708 0.0
C1077 C 0.48513 0.23188 0.69907 0.0
C1078 C 0.49312 0.29393 0.71538 0.0
C1079 C 0.5189 0.22213 0.7123 0.0
C1080 C 0.55788 0.2729 0.73032 0.0
C1081 C 0.55696 0.26919 0.75097 0.0
C1082 C 0.54111 0.27 0.71808 0.0
C1083 C 0.52297 0.2635 0.72679 0.0
C1084 C 0.52162 0.26098 0.7478 0.0
C1085 C 0.53871 0.26374 0.75965 0.0
C1086 C 0.54314 0.27274 0.69575 0.0
C1087 C 0.50237 0.25446 0.75765 0.0
H1088 H 0.46132 0.27685 0.6976 0.0
H1089 H 0.48264 0.21622 0.69564 0.0
H1090 H 0.49154 0.29518 0.73186 0.0
H1091 H 0.50817 0.29968 0.7114 0.0
H1092 H 0.48164 0.30362 0.70825 0.0
H1093 H 0.51565 0.20772 0.70469 0.0
H1094 H 0.53385 0.22747 0.70746 0.0
H1095 H 0.51965 0.21938 0.72865 0.0
H1096 H 0.57199 0.27708 0.72352 0.0
H1097 H 0.53795 0.26092 0.77561 0.0
H1098 H 0.53062 0.28185 0.68979 0.0
H1099 H 0.54244 0.25793 0.6883 0.0
H1100 H 0.55749 0.28004 0.69162 0.0
H1101 H 0.48985 0.26424 0.75285 0.0
H1102 H 0.50336 0.25482 0.77424 0.0
H1103 H 0.49866 0.23898 0.75294 0.0
C1104 C 0.71573 0.43831 0.69745 0.0
C1105 C 0.73592 0.44239 0.70154 0.0
C1106 C 0.70123 0.45343 0.6986 0.0
C1107 C 0.70717 0.47304 0.70381 0.0
C1108 C 0.72773 0.47752 0.70641 0.0
C1109 C 0.74188 0.46209 0.70533 0.0
C1110 C 0.67949 0.44807 0.69567 0.0
C1111 C 0.73469 0.49839 0.71161 0.0
C1112 C 0.67509 0.51945 0.70015 0.0
C1113 C 0.67132 0.52312 0.72046 0.0
C1114 C 0.68553 0.50226 0.69414 0.0
C1115 C 0.692 0.48844 0.70881 0.0
C1116 C 0.68615 0.49099 0.72901 0.0
C1117 C 0.67595 0.5084 0.73462 0.0
C1118 C 0.69131 0.49998 0.67244 0.0
C1119 C 0.69232 0.4763 0.74504 0.0
H1120 H 0.71103 0.42308 0.69445 0.0
H1121 H 0.75749 0.46531 0.70836 0.0
H1122 H 0.67195 0.44752 0.71044 0.0
H1123 H 0.67173 0.45956 0.68654 0.0
H1124 H 0.67768 0.43327 0.68833 0.0
H1125 H 0.75124 0.49979 0.71114 0.0
H1126 H 0.72812 0.50945 0.70112 0.0
H1127 H 0.72952 0.50231 0.72689 0.0
H1128 H 0.67153 0.53081 0.68913 0.0
H1129 H 0.67289 0.51115 0.75031 0.0
H1130 H 0.68992 0.48419 0.66753 0.0
H1131 H 0.70719 0.50445 0.67053 0.0
H1132 H 0.68198 0.50954 0.66254 0.0
H1133 H 0.68936 0.46072 0.74013 0.0
H1134 H 0.68434 0.47898 0.75936 0.0
H1135 H 0.70863 0.47767 0.7478 0.0
C1136 C 0.45973 0.30417 0.22475 0.0
C1137 C 0.44297 0.30805 0.23668 0.0
C1138 C 0.47824 0.29965 0.2335 0.0
C1139 C 0.4799 0.29897 0.25462 0.0
C1140 C 0.46343 0.30441 0.26669 0.0
C1141 C 0.44513 0.30895 0.25755 0.0
C1142 C 0.49564 0.29423 0.22015 0.0
C1143 C 0.46466 0.30399 0.28924 0.0
C1144 C 0.51786 0.26106 0.27245 0.0
C1145 C 0.53456 0.27321 0.27593 0.0
C1146 C 0.4996 0.26943 0.2665 0.0
C1147 C 0.49812 0.29041 0.2639 0.0
C1148 C 0.51454 0.30285 0.26868 0.0
C1149 C 0.53261 0.29408 0.27471 0.0
C1150 C 0.48225 0.25571 0.26187 0.0
C1151 C 0.51346 0.32528 0.26622 0.0
H1152 H 0.45813 0.30357 0.20863 0.0
H1153 H 0.43222 0.31209 0.26685 0.0
H1154 H 0.50928 0.30247 0.22478 0.0
H1155 H 0.49888 0.27801 0.22161 0.0
H1156 H 0.49255 0.29758 0.20417 0.0
H1157 H 0.45165 0.31152 0.29632 0.0
H1158 H 0.46505 0.28823 0.29443 0.0
H1159 H 0.47859 0.3113 0.29452 0.0
H1160 H 0.51931 0.24494 0.2735 0.0
H1161 H 0.54549 0.30354 0.27744 0.0
H1162 H 0.47904 0.2561 0.24559 0.0
H1163 H 0.46858 0.26084 0.26975 0.0
H1164 H 0.48532 0.23997 0.26626 0.0
H1165 H 0.51315 0.32904 0.25005 0.0
H1166 H 0.52647 0.33295 0.27314 0.0
H1167 H 0.49952 0.33125 0.27295 0.0
C1168 C 0.75344 0.47273 0.23482 0.0
C1169 C 0.73648 0.46323 0.22694 0.0
C1170 C 0.7517 0.4904 0.2459 0.0
C1171 C 0.73256 0.49888 0.24897 0.0
C1172 C 0.7155 0.48996 0.24015 0.0
C1173 C 0.71765 0.47213 0.22929 0.0
C1174 C 0.77025 0.49948 0.2551 0.0
C1175 C 0.6949 0.49882 0.24284 0.0
C1176 C 0.7264 0.53107 0.29528 0.0
C1177 C 0.72888 0.55028 0.28733 0.0
C1178 C 0.72728 0.51416 0.28288 0.0
C1179 C 0.73044 0.51665 0.26206 0.0
C1180 C 0.73249 0.53605 0.25392 0.0
C1181 C 0.73183 0.55264 0.26669 0.0
C1182 C 0.72524 0.49362 0.29208 0.0
C1183 C 0.73562 0.53928 0.23177 0.0
H1184 H 0.76804 0.46589 0.23306 0.0
H1185 H 0.70451 0.46482 0.22321 0.0
H1186 H 0.77164 0.51542 0.2507 0.0
H1187 H 0.76907 0.49902 0.27165 0.0
H1188 H 0.7841 0.4915 0.25057 0.0
H1189 H 0.68345 0.49102 0.23365 0.0
H1190 H 0.69044 0.4978 0.25879 0.0
H1191 H 0.69497 0.51491 0.23876 0.0
H1192 H 0.72408 0.52923 0.31123 0.0
H1193 H 0.73356 0.56752 0.26045 0.0
H1194 H 0.73911 0.4849 0.28946 0.0
H1195 H 0.71278 0.48536 0.28487 0.0
H1196 H 0.72241 0.49429 0.30844 0.0
H1197 H 0.74999 0.53246 0.22707 0.0
H1198 H 0.73585 0.5554 0.22771 0.0
H1199 H 0.72357 0.5318 0.22315 0.0
C1200 C 0.51425 0.72566 0.19863 0.0
C1201 C 0.52916 0.73966 0.19411 0.0
C1202 C 0.4951 0.73194 0.20434 0.0
C1203 C 0.49083 0.75267 0.20524 0.0
C1204 C 0.50513 0.76671 0.19846 0.0
C1205 C 0.52425 0.76002 0.19306 0.0
C1206 C 0.48019 0.71649 0.21138 0.0
C1207 C 0.50092 0.78889 0.19869 0.0
C1208 C 0.43732 0.76632 0.21813 0.0
C1209 C 0.43863 0.76851 0.23896 0.0
C1210 C 0.45438 0.76202 0.20668 0.0
C1211 C 0.473 0.75959 0.21642 0.0
C1212 C 0.47449 0.76256 0.23735 0.0
C1213 C 0.45728 0.76711 0.24835 0.0
C1214 C 0.45233 0.75936 0.18435 0.0
C1215 C 0.49412 0.76008 0.2483 0.0
H1216 H 0.51796 0.70988 0.1993 0.0
H1217 H 0.5357 0.77088 0.18929 0.0
H1218 H 0.47892 0.71724 0.22792 0.0
H1219 H 0.46515 0.71953 0.20508 0.0
H1220 H 0.48472 0.70107 0.20717 0.0
H1221 H 0.51179 0.79733 0.18936 0.0
H1222 H 0.48557 0.79206 0.19323 0.0
H1223 H 0.50198 0.79452 0.21427 0.0
H1224 H 0.4229 0.76752 0.2108 0.0
H1225 H 0.45833 0.76884 0.26444 0.0
H1226 H 0.45403 0.74331 0.18051 0.0
H1227 H 0.46427 0.76766 0.17637 0.0
H1228 H 0.43755 0.76454 0.17878 0.0
H1229 H 0.49952 0.74446 0.24666 0.0
H1230 H 0.49281 0.76351 0.26451 0.0
H1231 H 0.50564 0.77004 0.24171 0.0
C1232 C 0.26271 0.52543 0.25248 0.0
C1233 C 0.26669 0.5444 0.2604 0.0
C1234 C 0.26217 0.50855 0.26491 0.0
C1235 C 0.2653 0.51086 0.28575 0.0
C1236 C 0.27108 0.52966 0.29351 0.0
C1237 C 0.27185 0.54624 0.28067 0.0
C1238 C 0.25664 0.48855 0.25598 0.0
C1239 C 0.27453 0.53272 0.31561 0.0
C1240 C 0.23309 0.47456 0.31462 0.0
C1241 C 0.24679 0.45934 0.31893 0.0
C1242 C 0.23928 0.49215 0.30508 0.0
C1243 C 0.25961 0.49438 0.29949 0.0
C1244 C 0.27378 0.4798 0.30528 0.0
C1245 C 0.26721 0.46247 0.31513 0.0
C1246 C 0.22369 0.50749 0.29943 0.0
C1247 C 0.29554 0.48154 0.2995 0.0
H1248 H 0.25888 0.52395 0.23679 0.0
H1249 H 0.27491 0.5609 0.2869 0.0
H1250 H 0.26657 0.47661 0.26185 0.0
H1251 H 0.24108 0.48469 0.26027 0.0
H1252 H 0.25763 0.48866 0.23939 0.0
H1253 H 0.28286 0.54677 0.31865 0.0
H1254 H 0.25986 0.53352 0.32333 0.0
H1255 H 0.28294 0.52002 0.3222 0.0
H1256 H 0.21731 0.4722 0.31757 0.0
H1257 H 0.27788 0.45069 0.31835 0.0
H1258 H 0.21956 0.50546 0.28348 0.0
H1259 H 0.22956 0.52291 0.30116 0.0
H1260 H 0.20992 0.50592 0.30859 0.0
H1261 H 0.2972 0.47777 0.28342 0.0
H1262 H 0.30511 0.47119 0.3083 0.0
H1263 H 0.30107 0.49704 0.30158 0.0
C1264 C 0.71708 0.70843 0.52302 0.0
C1265 C 0.73788 0.70572 0.5239 0.0
C1266 C 0.70787 0.71562 0.5056 0.0
C1267 C 0.71977 0.71993 0.48867 0.0
C1268 C 0.74053 0.71563 0.48897 0.0
C1269 C 0.74938 0.70869 0.50667 0.0
C1270 C 0.68574 0.7201 0.50594 0.0
C1271 C 0.7537 0.71971 0.47107 0.0
C1272 C 0.6998 0.73088 0.43692 0.0
C1273 C 0.70355 0.75149 0.43556 0.0
C1274 C 0.70377 0.7204 0.45466 0.0
C1275 C 0.71122 0.73095 0.47142 0.0
C1276 C 0.71294 0.75206 0.47072 0.0
C1277 C 0.70923 0.76209 0.45269 0.0
C1278 C 0.70169 0.69791 0.45492 0.0
C1279 C 0.72034 0.76389 0.48849 0.0
H1280 H 0.70809 0.70614 0.53632 0.0
H1281 H 0.76544 0.70651 0.50728 0.0
H1282 H 0.68352 0.73644 0.5078 0.0
H1283 H 0.6785 0.71569 0.49168 0.0
H1284 H 0.67806 0.71233 0.51847 0.0
H1285 H 0.76849 0.71226 0.47241 0.0
H1286 H 0.7464 0.7146 0.45708 0.0
H1287 H 0.7562 0.73607 0.46972 0.0
H1288 H 0.69546 0.7226 0.42367 0.0
H1289 H 0.71205 0.77803 0.45167 0.0
H1290 H 0.69254 0.69313 0.4679 0.0
H1291 H 0.71665 0.69095 0.45666 0.0
H1292 H 0.69471 0.69208 0.44101 0.0
H1293 H 0.71239 0.75924 0.50229 0.0
H1294 H 0.71829 0.78025 0.48639 0.0
H1295 H 0.73651 0.76089 0.49078 0.0
C1296 C 0.75329 0.3024 0.47783 0.0
C1297 C 0.7403 0.30613 0.46183 0.0
C1298 C 0.74605 0.29458 0.49587 0.0
C1299 C 0.72538 0.29033 0.49778 0.0
C1300 C 0.71196 0.29621 0.48253 0.0
C1301 C 0.7196 0.30418 0.4647 0.0
C1302 C 0.76079 0.28901 0.51206 0.0
C1303 C 0.6898 0.29218 0.48412 0.0
C1304 C 0.71718 0.24319 0.52781 0.0
C1305 C 0.71274 0.25098 0.54671 0.0
C1306 C 0.72002 0.2559 0.5114 0.0
C1307 C 0.71857 0.27688 0.51407 0.0
C1308 C 0.71267 0.28474 0.53279 0.0
C1309 C 0.70974 0.27165 0.54892 0.0
C1310 C 0.72589 0.2469 0.49152 0.0
C1311 C 0.71089 0.30699 0.5362 0.0
H1312 H 0.76929 0.30412 0.47574 0.0
H1313 H 0.70945 0.3072 0.45241 0.0
H1314 H 0.75519 0.29374 0.52695 0.0
H1315 H 0.76262 0.27251 0.5124 0.0
H1316 H 0.77571 0.29589 0.50954 0.0
H1317 H 0.68111 0.30119 0.47318 0.0
H1318 H 0.68694 0.27612 0.48106 0.0
H1319 H 0.68423 0.29544 0.4994 0.0
H1320 H 0.71936 0.22721 0.52605 0.0
H1321 H 0.70628 0.27776 0.56354 0.0
H1322 H 0.74164 0.25086 0.48807 0.0
H1323 H 0.71641 0.25307 0.47936 0.0
H1324 H 0.72449 0.23034 0.49145 0.0
H1325 H 0.72607 0.31357 0.5375 0.0
H1326 H 0.70251 0.31045 0.55013 0.0
H1327 H 0.70332 0.3144 0.52342 0.0
C1328 C 0.25677 0.68733 0.46152 0.0
C1329 C 0.25678 0.69539 0.4422 0.0
C1330 C 0.254 0.69969 0.47824 0.0
C1331 C 0.2514 0.72055 0.47547 0.0
C1332 C 0.2516 0.72876 0.45599 0.0
C1333 C 0.2542 0.71605 0.43957 0.0
C1334 C 0.25371 0.69045 0.49886 0.0
C1335 C 0.24907 0.75095 0.45251 0.0
C1336 C 0.22613 0.74868 0.51758 0.0
C1337 C 0.24265 0.75591 0.52826 0.0
C1338 C 0.22874 0.73752 0.50004 0.0
C1339 C 0.24833 0.73376 0.49298 0.0
C1340 C 0.26501 0.74197 0.5031 0.0
C1341 C 0.26197 0.7529 0.52071 0.0
C1342 C 0.2106 0.72897 0.48962 0.0
C1343 C 0.2861 0.73853 0.49577 0.0
H1344 H 0.25874 0.67136 0.46356 0.0
H1345 H 0.25429 0.72236 0.42463 0.0
H1346 H 0.26569 0.6971 0.50822 0.0
H1347 H 0.23924 0.69372 0.5063 0.0
H1348 H 0.25585 0.67397 0.49842 0.0
H1349 H 0.24991 0.75496 0.4364 0.0
H1350 H 0.23441 0.75597 0.45843 0.0
H1351 H 0.26081 0.75936 0.46069 0.0
H1352 H 0.21117 0.75092 0.52342 0.0
H1353 H 0.27477 0.75852 0.52893 0.0
H1354 H 0.21103 0.71239 0.49042 0.0
H1355 H 0.21069 0.73313 0.47356 0.0
H1356 H 0.19637 0.73422 0.49639 0.0
H1357 H 0.28986 0.7224 0.49698 0.0
H1358 H 0.29729 0.74721 0.50447 0.0
H1359 H 0.28739 0.74272 0.47976 0.0
C1360 C 0.25392 0.30382 0.51086 0.0
C1361 C 0.26272 0.31126 0.52834 0.0
C1362 C 0.26577 0.29761 0.49476 0.0
C1363 C 0.28688 0.29903 0.49624 0.0
C1364 C 0.29561 0.30904 0.51269 0.0
C1365 C 0.28338 0.31506 0.52865 0.0
C1366 C 0.25579 0.28748 0.47719 0.0
C1367 C 0.31796 0.31154 0.51446 0.0
C1368 C 0.30787 0.2531 0.47184 0.0
C1369 C 0.31026 0.25994 0.4522 0.0
C1370 C 0.30241 0.26634 0.48712 0.0
C1371 C 0.29932 0.28682 0.48252 0.0
C1372 C 0.30452 0.29419 0.4634 0.0
C1373 C 0.31004 0.2806 0.4484 0.0
C1374 C 0.29753 0.25793 0.50753 0.0
C1375 C 0.30203 0.31597 0.45801 0.0
H1376 H 0.23792 0.30118 0.51043 0.0
H1377 H 0.29026 0.32108 0.54205 0.0
H1378 H 0.26169 0.29349 0.4629 0.0
H1379 H 0.25912 0.27121 0.47753 0.0
H1380 H 0.23929 0.28943 0.47736 0.0
H1381 H 0.32187 0.324 0.52475 0.0
H1382 H 0.32456 0.29758 0.52057 0.0
H1383 H 0.3249 0.31439 0.49966 0.0
H1384 H 0.30836 0.23717 0.4749 0.0
H1385 H 0.31217 0.28605 0.43327 0.0
H1386 H 0.28106 0.25773 0.5096 0.0
H1387 H 0.30399 0.26745 0.51948 0.0
H1388 H 0.30323 0.24243 0.50942 0.0
H1389 H 0.2864 0.31861 0.45307 0.0
H1390 H 0.31211 0.32025 0.44552 0.0
H1391 H 0.30505 0.32583 0.47101 0.0
C1392 C 0.19891 0.16854 0.27663 0.0
C1393 C 0.18811 0.15058 0.27744 0.0
C1394 C 0.18969 0.1864 0.27061 0.0
C1395 C 0.16923 0.18618 0.26522 0.0
C1396 C 0.15803 0.16827 0.26692 0.0
C1397 C 0.16762 0.15066 0.27306 0.0
C1398 C 0.20205 0.20525 0.26912 0.0
C1399 C 0.13616 0.16747 0.26132 0.0
C1400 C 0.13898 0.23379 0.25897 0.0
C1401 C 0.13859 0.23565 0.23809 0.0
C1402 C 0.14953 0.21813 0.26816 0.0
C1403 C 0.15988 0.20413 0.25612 0.0
C1404 C 0.16028 0.20653 0.23508 0.0
C1405 C 0.14962 0.22228 0.22632 0.0
C1406 C 0.14891 0.21608 0.29064 0.0
C1407 C 0.17128 0.19199 0.22174 0.0
H1408 H 0.21476 0.16856 0.28011 0.0
H1409 H 0.15921 0.13681 0.27373 0.0
H1410 H 0.20397 0.20937 0.25315 0.0
H1411 H 0.19429 0.21788 0.27657 0.0
H1412 H 0.21709 0.20343 0.27594 0.0
H1413 H 0.12926 0.15279 0.26493 0.0
H1414 H 0.12775 0.17939 0.26923 0.0
H1415 H 0.13448 0.17022 0.24503 0.0
H1416 H 0.13048 0.24415 0.26811 0.0
H1417 H 0.14947 0.22378 0.21017 0.0
H1418 H 0.16424 0.21417 0.29671 0.0
H1419 H 0.14026 0.20252 0.29475 0.0
H1420 H 0.14187 0.22924 0.29794 0.0
H1421 H 0.1871 0.1906 0.22657 0.0
H1422 H 0.17099 0.1966 0.20577 0.0
H1423 H 0.16439 0.17693 0.22299 0.0
C1424 C 0.84729 0.15912 0.25346 0.0
C1425 C 0.84457 0.17703 0.26396 0.0
C1426 C 0.83078 0.1486 0.2458 0.0
C1427 C 0.81124 0.15619 0.24892 0.0
C1428 C 0.80841 0.1732 0.26119 0.0
C1429 C 0.82514 0.18347 0.26849 0.0
C1430 C 0.83439 0.13044 0.23289 0.0
C1431 C 0.78783 0.18163 0.26513 0.0
C1432 C 0.77346 0.15084 0.20707 0.0
C1433 C 0.76095 0.13568 0.21433 0.0
C1434 C 0.79005 0.15733 0.21809 0.0
C1435 C 0.7942 0.1485 0.2369 0.0
C1436 C 0.78169 0.1331 0.24431 0.0
C1437 C 0.76518 0.12684 0.2329 0.0
C1438 C 0.80303 0.17381 0.20963 0.0
C1439 C 0.78566 0.12342 0.26432 0.0
H1440 H 0.86231 0.1541 0.24996 0.0
H1441 H 0.82301 0.19722 0.27684 0.0
H1442 H 0.82356 0.11839 0.23649 0.0
H1443 H 0.83218 0.13453 0.21695 0.0
H1444 H 0.84981 0.12452 0.23469 0.0
H1445 H 0.78796 0.19289 0.27735 0.0
H1446 H 0.78215 0.18894 0.25135 0.0
H1447 H 0.77719 0.16954 0.26912 0.0
H1448 H 0.77032 0.15765 0.19269 0.0
H1449 H 0.75557 0.11504 0.23852 0.0
H1450 H 0.81878 0.16868 0.20861 0.0
H1451 H 0.80274 0.18697 0.21974 0.0
H1452 H 0.79807 0.17867 0.19453 0.0
H1453 H 0.80107 0.11728 0.26473 0.0
H1454 H 0.77494 0.11115 0.26762 0.0
H1455 H 0.7846 0.13478 0.27637 0.0
C1456 C 0.86653 0.81929 0.3044 0.0
C1457 C 0.88616 0.81208 0.30397 0.0
C1458 C 0.86223 0.83895 0.29848 0.0
C1459 C 0.87808 0.85177 0.29256 0.0
C1460 C 0.89811 0.84519 0.29431 0.0
C1461 C 0.90191 0.82524 0.29964 0.0
C1462 C 0.8406 0.84533 0.29682 0.0
C1463 C 0.91545 0.8587 0.28916 0.0
C1464 C 0.86101 0.88533 0.25069 0.0
C1465 C 0.85329 0.90156 0.26146 0.0
C1466 C 0.87068 0.86957 0.26053 0.0
C1467 C 0.87328 0.87047 0.28155 0.0
C1468 C 0.86815 0.88814 0.29199 0.0
C1469 C 0.85796 0.90347 0.28184 0.0
C1470 C 0.87593 0.85102 0.24874 0.0
C1471 C 0.87165 0.89014 0.3142 0.0
H1472 H 0.85435 0.80912 0.30777 0.0
H1473 H 0.91717 0.81972 0.29958 0.0
H1474 H 0.83818 0.85967 0.30478 0.0
H1475 H 0.83673 0.84777 0.28085 0.0
H1476 H 0.83018 0.83399 0.30309 0.0
H1477 H 0.92956 0.8534 0.29617 0.0
H1478 H 0.91762 0.85887 0.27272 0.0
H1479 H 0.91253 0.87429 0.29406 0.0
H1480 H 0.85767 0.88388 0.23488 0.0
H1481 H 0.85227 0.91614 0.29022 0.0
H1482 H 0.86585 0.83859 0.2532 0.0
H1483 H 0.89147 0.84624 0.25199 0.0
H1484 H 0.87445 0.85335 0.23235 0.0
H1485 H 0.85917 0.88291 0.32241 0.0
H1486 H 0.87225 0.9061 0.31879 0.0
H1487 H 0.88576 0.88268 0.31875 0.0
C1488 C 0.20852 0.87752 0.24396 0.0
C1489 C 0.21541 0.89702 0.24719 0.0
C1490 C 0.19233 0.86987 0.25477 0.0
C1491 C 0.1827 0.88207 0.26917 0.0
C1492 C 0.1897 0.90174 0.27271 0.0
C1493 C 0.20605 0.90901 0.26165 0.0
C1494 C 0.18543 0.84873 0.25058 0.0
C1495 C 0.17972 0.91518 0.28785 0.0
C1496 C 0.13136 0.86078 0.27737 0.0
C1497 C 0.13543 0.84688 0.29254 0.0
C1498 C 0.14608 0.87432 0.27103 0.0
C1499 C 0.16521 0.87384 0.28013 0.0
C1500 C 0.16839 0.86174 0.29721 0.0
C1501 C 0.1534 0.84838 0.30326 0.0
C1502 C 0.14193 0.8873 0.25303 0.0
C1503 C 0.18845 0.86102 0.30757 0.0
H1504 H 0.21573 0.86818 0.23283 0.0
H1505 H 0.21131 0.92416 0.26411 0.0
H1506 H 0.18592 0.83972 0.26451 0.0
H1507 H 0.16971 0.84886 0.24526 0.0
H1508 H 0.19478 0.84116 0.23911 0.0
H1509 H 0.18813 0.92932 0.29019 0.0
H1510 H 0.16441 0.91895 0.28267 0.0
H1511 H 0.1782 0.90738 0.30242 0.0
H1512 H 0.11736 0.85991 0.26922 0.0
H1513 H 0.15651 0.83787 0.31523 0.0
H1514 H 0.14859 0.88025 0.23956 0.0
H1515 H 0.1488 0.9023 0.25479 0.0
H1516 H 0.12562 0.88913 0.25041 0.0
H1517 H 0.19889 0.85175 0.29858 0.0
H1518 H 0.18729 0.85432 0.32274 0.0
H1519 H 0.19503 0.87619 0.30887 0.0
C1520 C 0.10938 0.79167 0.783 0.0
C1521 C 0.1108 0.77465 0.77083 0.0
C1522 C 0.11597 0.81035 0.7762 0.0
C1523 C 0.12391 0.81208 0.75667 0.0
C1524 C 0.12373 0.79531 0.74371 0.0
C1525 C 0.11731 0.77669 0.75101 0.0
C1526 C 0.11608 0.82778 0.79059 0.0
C1527 C 0.13172 0.79669 0.72264 0.0
C1528 C 0.13753 0.86455 0.73916 0.0
C1529 C 0.15798 0.86507 0.74374 0.0
C1530 C 0.1262 0.84715 0.74265 0.0
C1531 C 0.13557 0.83019 0.75127 0.0
C1532 C 0.15623 0.83071 0.75581 0.0
C1533 C 0.16718 0.84807 0.75184 0.0
C1534 C 0.10427 0.84693 0.73732 0.0
C1535 C 0.16677 0.81308 0.7653 0.0
H1536 H 0.10418 0.79021 0.79829 0.0
H1537 H 0.11819 0.76361 0.74148 0.0
H1538 H 0.13169 0.83087 0.79535 0.0
H1539 H 0.11031 0.8415 0.78326 0.0
H1540 H 0.10698 0.82475 0.80415 0.0
H1541 H 0.12715 0.78363 0.71343 0.0
H1542 H 0.12645 0.81059 0.71525 0.0
H1543 H 0.1483 0.79723 0.72306 0.0
H1544 H 0.13044 0.87766 0.73275 0.0
H1545 H 0.18298 0.84842 0.75548 0.0
H1546 H 0.09516 0.84534 0.75109 0.0
H1547 H 0.10088 0.83386 0.72766 0.0
H1548 H 0.09959 0.86079 0.72943 0.0
H1549 H 0.15976 0.80951 0.77992 0.0
H1550 H 0.18295 0.81595 0.7678 0.0
H1551 H 0.16524 0.79967 0.75566 0.0
C1552 C 0.23434 0.15411 0.75516 0.0
C1553 C 0.23743 0.13357 0.75242 0.0
C1554 C 0.21694 0.16339 0.74804 0.0
C1555 C 0.20223 0.1518 0.73813 0.0
C1556 C 0.20572 0.13124 0.73448 0.0
C1557 C 0.22336 0.12237 0.74162 0.0
C1558 C 0.21389 0.18543 0.75201 0.0
C1559 C 0.19036 0.1184 0.72401 0.0
C1560 C 0.15033 0.1734 0.74433 0.0
C1561 C 0.14816 0.18428 0.72655 0.0
C1562 C 0.16739 0.16171 0.74777 0.0
C1563 C 0.18266 0.16101 0.7331 0.0
C1564 C 0.17992 0.17088 0.71457 0.0
C1565 C 0.16263 0.18238 0.71149 0.0
C1566 C 0.16964 0.15115 0.76762 0.0
C1567 C 0.19583 0.17043 0.69856 0.0
H1568 H 0.24523 0.16282 0.76343 0.0
H1569 H 0.22567 0.10645 0.73953 0.0
H1570 H 0.20989 0.19331 0.73796 0.0
H1571 H 0.20129 0.18749 0.76261 0.0
H1572 H 0.22742 0.19261 0.75847 0.0
H1573 H 0.19631 0.10333 0.72028 0.0
H1574 H 0.17712 0.11652 0.73383 0.0
H1575 H 0.18517 0.12572 0.71005 0.0
H1576 H 0.13911 0.17473 0.75596 0.0
H1577 H 0.161 0.19074 0.69768 0.0
H1578 H 0.18157 0.15852 0.7765 0.0
H1579 H 0.17419 0.13536 0.76531 0.0
H1580 H 0.15558 0.1514 0.77648 0.0
H1581 H 0.20885 0.17949 0.70347 0.0
H1582 H 0.19033 0.17655 0.68411 0.0
H1583 H 0.20122 0.15494 0.6961 0.0
C1584 C 0.86745 0.22151 0.74453 0.0
C1585 C 0.86474 0.22493 0.76505 0.0
C1586 C 0.85747 0.20576 0.73484 0.0
C1587 C 0.84465 0.19315 0.74601 0.0
C1588 C 0.84152 0.19687 0.76663 0.0
C1589 C 0.85156 0.21275 0.77587 0.0
C1590 C 0.86097 0.20235 0.7128 0.0
C1591 C 0.82794 0.18376 0.77908 0.0
C1592 C 0.80456 0.15992 0.72395 0.0
C1593 C 0.81339 0.141 0.72589 0.0
C1594 C 0.81512 0.1773 0.72909 0.0
C1595 C 0.83485 0.17562 0.73655 0.0
C1596 C 0.84429 0.15666 0.73724 0.0
C1597 C 0.83345 0.13955 0.73179 0.0
C1598 C 0.80467 0.19728 0.72782 0.0
C1599 C 0.86532 0.15427 0.74513 0.0
H1600 H 0.87762 0.23094 0.73612 0.0
H1601 H 0.84939 0.21535 0.79173 0.0
H1602 H 0.86855 0.18776 0.71054 0.0
H1603 H 0.84648 0.20165 0.70473 0.0
H1604 H 0.87031 0.21429 0.70599 0.0
H1605 H 0.82682 0.18896 0.79483 0.0
H1606 H 0.8127 0.18349 0.77252 0.0
H1607 H 0.83362 0.16816 0.77908 0.0
H1608 H 0.7891 0.1611 0.7192 0.0
H1609 H 0.84034 0.12494 0.73326 0.0
H1610 H 0.8146 0.20866 0.72094 0.0
H1611 H 0.80093 0.20253 0.74311 0.0
H1612 H 0.79061 0.19641 0.71899 0.0
H1613 H 0.87552 0.16523 0.73797 0.0
H1614 H 0.87127 0.13897 0.74257 0.0
H1615 H 0.86547 0.15729 0.76146 0.0
C1616 C 0.85772 0.82767 0.71679 0.0
C1617 C 0.87859 0.82631 0.71819 0.0
C1618 C 0.84737 0.84345 0.72584 0.0
C1619 C 0.85826 0.85852 0.73597 0.0
C1620 C 0.8794 0.85878 0.73477 0.0
C1621 C 0.88941 0.84242 0.72617 0.0
C1622 C 0.8248 0.8426 0.72661 0.0
C1623 C 0.89145 0.87536 0.74419 0.0
C1624 C 0.82378 0.89685 0.75972 0.0
C1625 C 0.82172 0.88881 0.77897 0.0
C1626 C 0.8371 0.88828 0.74588 0.0
C1627 C 0.84779 0.87078 0.75125 0.0
C1628 C 0.84636 0.86323 0.77102 0.0
C1629 C 0.83363 0.87258 0.78471 0.0
C1630 C 0.83886 0.89744 0.72533 0.0
C1631 C 0.85711 0.84435 0.77737 0.0
H1632 H 0.84927 0.81544 0.71029 0.0
H1633 H 0.90559 0.84165 0.72689 0.0
H1634 H 0.81993 0.83931 0.74214 0.0
H1635 H 0.8183 0.85723 0.72231 0.0
H1636 H 0.81859 0.8309 0.71657 0.0
H1637 H 0.90677 0.87613 0.7378 0.0
H1638 H 0.88395 0.89003 0.74206 0.0
H1639 H 0.89278 0.87266 0.76051 0.0
H1640 H 0.81472 0.90958 0.75533 0.0
H1641 H 0.83204 0.86633 0.7996 0.0
H1642 H 0.82725 0.89095 0.71541 0.0
H1643 H 0.85373 0.89454 0.71855 0.0
H1644 H 0.83634 0.91385 0.72593 0.0
H1645 H 0.85192 0.83156 0.76813 0.0
H1646 H 0.85453 0.84064 0.79336 0.0
H1647 H 0.87343 0.84595 0.77496 0.0
C1648 C 0.26624 0.1203 0.23408 0.0
C1649 C 0.26168 0.10108 0.24105 0.0
C1650 C 0.27055 0.12363 0.21385 0.0
C1651 C 0.27068 0.10724 0.20041 0.0
C1652 C 0.26903 0.08752 0.20795 0.0
C1653 C 0.26436 0.08464 0.22825 0.0
C1654 C 0.27244 0.14494 0.20654 0.0
C1655 C 0.27012 0.06954 0.19438 0.0
C1656 C 0.24581 0.12313 0.15247 0.0
C1657 C 0.26223 0.12978 0.1413 0.0
C1658 C 0.24848 0.11399 0.17113 0.0
C1659 C 0.2681 0.11129 0.17868 0.0
C1660 C 0.28476 0.11575 0.1664 0.0
C1661 C 0.28164 0.12512 0.14782 0.0
C1662 C 0.23024 0.10898 0.18351 0.0
C1663 C 0.30587 0.11209 0.17348 0.0
H1664 H 0.26453 0.13303 0.24399 0.0
H1665 H 0.26117 0.06966 0.2336 0.0
H1666 H 0.28537 0.14648 0.19628 0.0
H1667 H 0.25878 0.14909 0.19806 0.0
H1668 H 0.27431 0.15571 0.21906 0.0
H1669 H 0.27644 0.05648 0.20247 0.0
H1670 H 0.25481 0.06549 0.1894 0.0
H1671 H 0.27937 0.0725 0.18093 0.0
H1672 H 0.23077 0.12637 0.14732 0.0
H1673 H 0.29442 0.12999 0.13911 0.0
H1674 H 0.22962 0.11893 0.1968 0.0
H1675 H 0.23109 0.09335 0.18899 0.0
H1676 H 0.21611 0.11079 0.17494 0.0
H1677 H 0.31065 0.12461 0.18327 0.0
H1678 H 0.31647 0.1112 0.16072 0.0
H1679 H 0.30685 0.09807 0.18232 0.0
C1680 C 0.86151 0.28062 0.12432 0.0
C1681 C 0.84089 0.28431 0.12352 0.0
C1682 C 0.87102 0.27695 0.14271 0.0
C1683 C 0.85951 0.27673 0.1605 0.0
C1684 C 0.83912 0.28235 0.15989 0.0
C1685 C 0.83009 0.2862 0.1414 0.0
C1686 C 0.89293 0.27158 0.14285 0.0
C1687 C 0.82626 0.28225 0.17847 0.0
C1688 C 0.87093 0.23684 0.19886 0.0
C1689 C 0.87873 0.24806 0.21475 0.0
C1690 C 0.86511 0.24603 0.18101 0.0
C1691 C 0.86747 0.26696 0.1788 0.0
C1692 C 0.876 0.27834 0.19451 0.0
C1693 C 0.88134 0.26875 0.21247 0.0
C1694 C 0.85581 0.23334 0.16474 0.0
C1695 C 0.87909 0.30061 0.19249 0.0
H1696 H 0.86998 0.27941 0.11055 0.0
H1697 H 0.8142 0.28939 0.14089 0.0
H1698 H 0.90062 0.27844 0.15587 0.0
H1699 H 0.89455 0.25511 0.14417 0.0
H1700 H 0.90055 0.27647 0.1289 0.0
H1701 H 0.81165 0.28977 0.17597 0.0
H1702 H 0.82334 0.26655 0.18303 0.0
H1703 H 0.83401 0.28974 0.19107 0.0
H1704 H 0.86887 0.22084 0.20057 0.0
H1705 H 0.88753 0.27742 0.2247 0.0
H1706 H 0.86435 0.235 0.15062 0.0
H1707 H 0.84029 0.23846 0.16179 0.0
H1708 H 0.85535 0.21722 0.16876 0.0
H1709 H 0.88662 0.30412 0.17812 0.0
H1710 H 0.88817 0.30681 0.20496 0.0
H1711 H 0.86439 0.3083 0.19236 0.0
C1712 C 0.76934 0.88322 0.1835 0.0
C1713 C 0.78259 0.87854 0.19909 0.0
C1714 C 0.76528 0.8693 0.16829 0.0
C1715 C 0.77467 0.85032 0.1688 0.0
C1716 C 0.78796 0.84553 0.18459 0.0
C1717 C 0.79177 0.85971 0.19951 0.0
C1718 C 0.75104 0.87487 0.15167 0.0
C1719 C 0.79819 0.82539 0.18575 0.0
C1720 C 0.75464 0.80363 0.14427 0.0
C1721 C 0.76847 0.80089 0.12875 0.0
C1722 C 0.75545 0.82059 0.15653 0.0
C1723 C 0.77049 0.83509 0.15318 0.0
C1724 C 0.78338 0.83324 0.13647 0.0
C1725 C 0.78219 0.81611 0.12438 0.0
C1726 C 0.7413 0.82209 0.17408 0.0
C1727 C 0.79951 0.84849 0.13233 0.0
H1728 H 0.76228 0.89782 0.1831 0.0
H1729 H 0.80203 0.85604 0.21152 0.0
H1730 H 0.75877 0.87385 0.13702 0.0
H1731 H 0.73834 0.86419 0.15126 0.0
H1732 H 0.745 0.89026 0.15344 0.0
H1733 H 0.80819 0.82411 0.19896 0.0
H1734 H 0.78683 0.81331 0.18656 0.0
H1735 H 0.8072 0.82281 0.17205 0.0
H1736 H 0.74384 0.79198 0.14755 0.0
H1737 H 0.79286 0.81407 0.11234 0.0
H1738 H 0.73513 0.83744 0.17536 0.0
H1739 H 0.74957 0.81884 0.1881 0.0
H1740 H 0.72868 0.81135 0.17284 0.0
H1741 H 0.79351 0.86391 0.13366 0.0
H1742 H 0.80611 0.8466 0.1172 0.0
H1743 H 0.81162 0.84687 0.14357 0.0
C1744 C 0.12616 0.78499 0.21709 0.0
C1745 C 0.10969 0.7783 0.22817 0.0
C1746 C 0.1299 0.77768 0.19786 0.0
C1747 C 0.11669 0.76345 0.18935 0.0
C1748 C 0.09918 0.75778 0.19983 0.0
C1749 C 0.09595 0.76517 0.21926 0.0
C1750 C 0.14877 0.78421 0.18723 0.0
C1751 C 0.08447 0.74306 0.19109 0.0
C1752 C 0.13153 0.75548 0.13553 0.0
C1753 C 0.14603 0.74053 0.13795 0.0
C1754 C 0.11984 0.76172 0.15186 0.0
C1755 C 0.12297 0.75286 0.17085 0.0
C1756 C 0.13579 0.7361 0.17262 0.0
C1757 C 0.14712 0.7301 0.15609 0.0
C1758 C 0.10572 0.77912 0.14922 0.0
C1759 C 0.13942 0.72601 0.19252 0.0
H1760 H 0.13672 0.79531 0.22382 0.0
H1761 H 0.08308 0.76009 0.22772 0.0
H1762 H 0.15904 0.77125 0.18564 0.0
H1763 H 0.14521 0.78967 0.17198 0.0
H1764 H 0.15679 0.79626 0.19539 0.0
H1765 H 0.06957 0.74431 0.19834 0.0
H1766 H 0.0827 0.74534 0.17474 0.0
H1767 H 0.09007 0.72762 0.19348 0.0
H1768 H 0.13047 0.76344 0.12144 0.0
H1769 H 0.15807 0.71826 0.15788 0.0
H1770 H 0.1132 0.79306 0.15426 0.0
H1771 H 0.09204 0.77711 0.1584 0.0
H1772 H 0.10134 0.78106 0.13331 0.0
H1773 H 0.14843 0.73605 0.20221 0.0
H1774 H 0.1476 0.71164 0.19083 0.0
H1775 H 0.12508 0.72307 0.2003 0.0
C1776 C 0.25173 0.89978 0.78219 0.0
C1777 C 0.23124 0.90381 0.78409 0.0
C1778 C 0.26258 0.89159 0.79825 0.0
C1779 C 0.25251 0.88692 0.81631 0.0
C1780 C 0.23217 0.89227 0.81867 0.0
C1781 C 0.22187 0.90085 0.80261 0.0
C1782 C 0.28445 0.88678 0.79546 0.0
C1783 C 0.22074 0.88738 0.83756 0.0
C1784 C 0.26428 0.84006 0.84534 0.0
C1785 C 0.27116 0.84789 0.86353 0.0
C1786 C 0.25939 0.85262 0.82934 0.0
C1787 C 0.26184 0.87355 0.83142 0.0
C1788 C 0.27037 0.88144 0.84914 0.0
C1789 C 0.27472 0.86849 0.86516 0.0
C1790 C 0.25014 0.84354 0.81081 0.0
C1791 C 0.27386 0.9036 0.85162 0.0
H1792 H 0.2591 0.90232 0.76797 0.0
H1793 H 0.20608 0.90414 0.80426 0.0
H1794 H 0.29305 0.89014 0.80926 0.0
H1795 H 0.28618 0.87059 0.79227 0.0
H1796 H 0.29102 0.89531 0.78279 0.0
H1797 H 0.20547 0.89394 0.83757 0.0
H1798 H 0.21937 0.8709 0.8391 0.0
H1799 H 0.22888 0.89296 0.85089 0.0
H1800 H 0.26168 0.82412 0.8439 0.0
H1801 H 0.28031 0.87457 0.87912 0.0
H1802 H 0.25806 0.84877 0.79721 0.0
H1803 H 0.23431 0.84841 0.80953 0.0
H1804 H 0.25049 0.82692 0.81106 0.0
H1805 H 0.27973 0.91026 0.83759 0.0
H1806 H 0.28451 0.90679 0.86398 0.0
H1807 H 0.25948 0.9111 0.85511 0.0
C1808 C 0.14644 0.26581 0.77882 0.0
C1809 C 0.12647 0.26667 0.77254 0.0
C1810 C 0.15165 0.27003 0.79867 0.0
C1811 C 0.13651 0.27526 0.81254 0.0
C1812 C 0.11663 0.27803 0.80582 0.0
C1813 C 0.11182 0.27368 0.78583 0.0
C1814 C 0.17311 0.26715 0.80516 0.0
C1815 C 0.10014 0.28395 0.82004 0.0
C1816 C 0.14878 0.25421 0.86344 0.0
C1817 C 0.15814 0.27056 0.87259 0.0
C1818 C 0.14023 0.25601 0.8444 0.0
C1819 C 0.14111 0.27461 0.83428 0.0
C1820 C 0.14892 0.29161 0.8442 0.0
C1821 C 0.15736 0.28939 0.86333 0.0
C1822 C 0.1318 0.23754 0.83446 0.0
C1823 C 0.14989 0.31176 0.83405 0.0
H1824 H 0.15785 0.26059 0.76854 0.0
H1825 H 0.09635 0.27449 0.78102 0.0
H1826 H 0.17823 0.28006 0.81423 0.0
H1827 H 0.17423 0.25359 0.81468 0.0
H1828 H 0.18338 0.26535 0.79222 0.0
H1829 H 0.08669 0.28941 0.81194 0.0
H1830 H 0.09575 0.27077 0.82913 0.0
H1831 H 0.10529 0.29576 0.8305 0.0
H1832 H 0.1492 0.23968 0.87064 0.0
H1833 H 0.16457 0.3021 0.87037 0.0
H1834 H 0.1418 0.23287 0.82207 0.0
H1835 H 0.1169 0.24075 0.82791 0.0
H1836 H 0.1303 0.22483 0.84507 0.0
H1837 H 0.16255 0.31188 0.82333 0.0
H1838 H 0.15224 0.32404 0.845 0.0
H1839 H 0.136 0.31477 0.82547 0.0
C1840 C 0.73631 0.0799 0.78613 0.0
C1841 C 0.73863 0.09653 0.77353 0.0
C1842 C 0.7324 0.08243 0.80662 0.0
C1843 C 0.73087 0.10202 0.81451 0.0
C1844 C 0.73086 0.11866 0.80136 0.0
C1845 C 0.73471 0.11569 0.781 0.0
C1846 C 0.73194 0.06423 0.81997 0.0
C1847 C 0.72906 0.13984 0.80906 0.0
C1848 C 0.71917 0.11896 0.86717 0.0
C1849 C 0.73841 0.12411 0.87381 0.0
C1850 C 0.7164 0.10968 0.8485 0.0
C1851 C 0.73324 0.10571 0.83631 0.0
C1852 C 0.75274 0.10884 0.84401 0.0
C1853 C 0.75507 0.11797 0.8627 0.0
C1854 C 0.69542 0.10584 0.84114 0.0
C1855 C 0.77117 0.10449 0.83167 0.0
H1856 H 0.73924 0.065 0.7804 0.0
H1857 H 0.73625 0.12855 0.77123 0.0
H1858 H 0.74718 0.06138 0.82587 0.0
H1859 H 0.72176 0.06644 0.83289 0.0
H1860 H 0.72714 0.05072 0.81155 0.0
H1861 H 0.7271 0.15084 0.79675 0.0
H1862 H 0.7162 0.1412 0.81945 0.0
H1863 H 0.74279 0.14383 0.81751 0.0
H1864 H 0.70622 0.1235 0.8758 0.0
H1865 H 0.76998 0.12164 0.86794 0.0
H1866 H 0.69467 0.0918 0.83232 0.0
H1867 H 0.6907 0.1183 0.83123 0.0
H1868 H 0.68463 0.10489 0.85374 0.0
H1869 H 0.77046 0.08917 0.82535 0.0
H1870 H 0.78515 0.1059 0.84055 0.0
H1871 H 0.77196 0.11514 0.81894 0.0
C1872 C 0.82976 0.70728 0.8437 0.0
C1873 C 0.80908 0.70432 0.84211 0.0
C1874 C 0.84105 0.71314 0.82699 0.0
C1875 C 0.8314 0.71583 0.80831 0.0
C1876 C 0.81072 0.71175 0.80643 0.0
C1877 C 0.79978 0.70617 0.8234 0.0
C1878 C 0.86306 0.71748 0.82957 0.0
C1879 C 0.79996 0.71419 0.78671 0.0
C1880 C 0.85333 0.754 0.77267 0.0
C1881 C 0.86383 0.74183 0.75922 0.0
C1882 C 0.84272 0.74567 0.78869 0.0
C1883 C 0.84247 0.72465 0.79121 0.0
C1884 C 0.85269 0.71223 0.77744 0.0
C1885 C 0.86335 0.721 0.76161 0.0
C1886 C 0.83203 0.75942 0.8031 0.0
C1887 C 0.85252 0.68975 0.77956 0.0
H1888 H 0.83696 0.70588 0.85817 0.0
H1889 H 0.7838 0.70371 0.8221 0.0
H1890 H 0.87192 0.70949 0.81803 0.0
H1891 H 0.86579 0.73373 0.82751 0.0
H1892 H 0.86863 0.71304 0.84459 0.0
H1893 H 0.7844 0.70838 0.78729 0.0
H1894 H 0.79941 0.73027 0.78263 0.0
H1895 H 0.80814 0.70629 0.77463 0.0
H1896 H 0.85372 0.77012 0.77091 0.0
H1897 H 0.87148 0.71156 0.75123 0.0
H1898 H 0.83791 0.75718 0.81846 0.0
H1899 H 0.81584 0.7558 0.80344 0.0
H1900 H 0.83378 0.77545 0.79905 0.0
H1901 H 0.85942 0.6854 0.79402 0.0
H1902 H 0.86076 0.68219 0.76727 0.0
H1903 H 0.83689 0.68417 0.77971 0.0
C1904 C 0.12543 0.25893 0.14403 0.0
C1905 C 0.12983 0.27461 0.15724 0.0
C1906 C 0.14063 0.25003 0.13262 0.0
C1907 C 0.1605 0.25713 0.13447 0.0
C1908 C 0.16436 0.27472 0.14559 0.0
C1909 C 0.14892 0.28329 0.15687 0.0
C1910 C 0.1358 0.23151 0.12063 0.0
C1911 C 0.18525 0.28303 0.14766 0.0
C1912 C 0.20045 0.21712 0.13734 0.0
C1913 C 0.20935 0.21841 0.11843 0.0
C1914 C 0.18461 0.22973 0.14265 0.0
C1915 C 0.17743 0.24397 0.12866 0.0
C1916 C 0.18641 0.24545 0.10956 0.0
C1917 C 0.20233 0.23262 0.10466 0.0
C1918 C 0.17549 0.2277 0.16326 0.0
C1919 C 0.17912 0.26042 0.0943 0.0
H1920 H 0.11064 0.25229 0.14408 0.0
H1921 H 0.15231 0.29563 0.16683 0.0
H1922 H 0.14427 0.23127 0.10637 0.0
H1923 H 0.14021 0.21808 0.12934 0.0
H1924 H 0.11956 0.23044 0.11726 0.0
H1925 H 0.18511 0.29873 0.1531 0.0
H1926 H 0.19373 0.27383 0.15858 0.0
H1927 H 0.19337 0.28245 0.13321 0.0
H1928 H 0.20583 0.20617 0.14802 0.0
H1929 H 0.20914 0.23359 0.08997 0.0
H1930 H 0.15938 0.2239 0.16198 0.0
H1931 H 0.17657 0.24212 0.1714 0.0
H1932 H 0.18295 0.21596 0.17237 0.0
H1933 H 0.16322 0.25743 0.09062 0.0
H1934 H 0.18801 0.25994 0.08027 0.0
H1935 H 0.17989 0.27577 0.10057 0.0
C1936 C 0.20593 0.78369 0.89089 0.0
C1937 C 0.223 0.77397 0.8982 0.0
C1938 C 0.19021 0.77287 0.8823 0.0
C1939 C 0.19147 0.75176 0.88123 0.0
C1940 C 0.20793 0.74174 0.89004 0.0
C1941 C 0.22365 0.75301 0.8983 0.0
C1942 C 0.17301 0.78419 0.87294 0.0
C1943 C 0.20954 0.71923 0.88963 0.0
C1944 C 0.14384 0.72774 0.86163 0.0
C1945 C 0.14798 0.72711 0.84108 0.0
C1946 C 0.1584 0.73444 0.87529 0.0
C1947 C 0.17729 0.74081 0.86809 0.0
C1948 C 0.18185 0.73903 0.8475 0.0
C1949 C 0.16719 0.7321 0.83431 0.0
C1950 C 0.15319 0.73572 0.89721 0.0
C1951 C 0.20176 0.74572 0.83914 0.0
H1952 H 0.20526 0.7999 0.89094 0.0
H1953 H 0.23673 0.74542 0.90418 0.0
H1954 H 0.17373 0.78268 0.85642 0.0
H1955 H 0.15851 0.77785 0.87789 0.0
H1956 H 0.17332 0.80036 0.87675 0.0
H1957 H 0.22095 0.71366 0.90036 0.0
H1958 H 0.19493 0.71222 0.89319 0.0
H1959 H 0.21387 0.71429 0.87439 0.0
H1960 H 0.12905 0.72374 0.86694 0.0
H1961 H 0.17057 0.73142 0.81846 0.0
H1962 H 0.15031 0.75155 0.90127 0.0
H1963 H 0.16581 0.73038 0.90657 0.0
H1964 H 0.13963 0.72683 0.90087 0.0
H1965 H 0.20331 0.76216 0.84092 0.0
H1966 H 0.20341 0.74203 0.82302 0.0
H1967 H 0.21422 0.73861 0.84747 0.0
C1968 C 0.23583 0.21131 0.86934 0.0
C1969 C 0.24097 0.21886 0.88819 0.0
C1970 C 0.2467 0.19568 0.86069 0.0
C1971 C 0.26334 0.18756 0.87102 0.0
C1972 C 0.26898 0.19548 0.88982 0.0
C1973 C 0.25759 0.21099 0.8983 0.0
C1974 C 0.24009 0.1876 0.84062 0.0
C1975 C 0.28682 0.18741 0.90106 0.0
C1976 C 0.27319 0.13546 0.85209 0.0
C1977 C 0.28584 0.13961 0.83591 0.0
C1978 C 0.26717 0.15074 0.86513 0.0
C1979 C 0.27424 0.17047 0.86198 0.0
C1980 C 0.28896 0.17413 0.84722 0.0
C1981 C 0.2945 0.15864 0.83422 0.0
C1982 C 0.25147 0.1462 0.88071 0.0
C1983 C 0.29728 0.19483 0.84373 0.0
H1984 H 0.22297 0.21732 0.86149 0.0
H1985 H 0.26161 0.21686 0.91287 0.0
H1986 H 0.25241 0.18902 0.82959 0.0
H1987 H 0.23643 0.17146 0.84195 0.0
H1988 H 0.22677 0.19554 0.83465 0.0
H1989 H 0.29019 0.19629 0.9147 0.0
H1990 H 0.28396 0.1717 0.90557 0.0
H1991 H 0.30022 0.18735 0.89127 0.0
H1992 H 0.26656 0.12072 0.85352 0.0
H1993 H 0.30453 0.16182 0.82188 0.0
H1994 H 0.23674 0.15169 0.87537 0.0
H1995 H 0.25485 0.15395 0.89498 0.0
H1996 H 0.25021 0.12988 0.88365 0.0
H1997 H 0.28616 0.20387 0.83536 0.0
H1998 H 0.31134 0.19439 0.83488 0.0
H1999 H 0.30024 0.20254 0.85812 0.0
C2000 C 0.79816 0.22476 0.90672 0.0
C2001 C 0.78848 0.2121 0.89305 0.0
C2002 C 0.81467 0.23637 0.90084 0.0
C2003 C 0.82159 0.23519 0.88087 0.0
C2004 C 0.81158 0.22271 0.86695 0.0
C2005 C 0.79518 0.21131 0.87323 0.0
C2006 C 0.82499 0.24941 0.91612 0.0
C2007 C 0.81838 0.22112 0.84544 0.0
C2008 C 0.8523 0.27298 0.85264 0.0
C2009 C 0.87022 0.26236 0.8502 0.0
C2010 C 0.83682 0.26531 0.86453 0.0
C2011 C 0.83942 0.24663 0.87414 0.0
C2012 C 0.85838 0.23719 0.87377 0.0
C2013 C 0.87363 0.24521 0.86178 0.0
C2014 C 0.81698 0.27609 0.86492 0.0
C2015 C 0.86189 0.21746 0.88417 0.0
H2016 H 0.7931 0.2253 0.92212 0.0
H2017 H 0.78772 0.20156 0.86263 0.0
H2018 H 0.83955 0.24259 0.92023 0.0
H2019 H 0.82813 0.26446 0.90988 0.0
H2020 H 0.81595 0.25112 0.92996 0.0
H2021 H 0.80875 0.21096 0.83647 0.0
H2022 H 0.81827 0.23611 0.83831 0.0
H2023 H 0.83397 0.21545 0.84485 0.0
H2024 H 0.84969 0.28643 0.84395 0.0
H2025 H 0.88755 0.23705 0.86012 0.0
H2026 H 0.81038 0.27576 0.88014 0.0
H2027 H 0.80639 0.26843 0.85468 0.0
H2028 H 0.81845 0.29191 0.86004 0.0
H2029 H 0.85515 0.2175 0.89933 0.0
H2030 H 0.87808 0.21397 0.8855 0.0
H2031 H 0.85462 0.20532 0.87548 0.0
C2032 C 0.78256 0.83724 0.85144 0.0
C2033 C 0.77348 0.8551 0.85758 0.0
C2034 C 0.7794 0.81937 0.86178 0.0
C2035 C 0.76687 0.81929 0.87885 0.0
C2036 C 0.75836 0.83744 0.88574 0.0
C2037 C 0.76175 0.85523 0.87496 0.0
C2038 C 0.78896 0.80041 0.85395 0.0
C2039 C 0.74507 0.83794 0.90397 0.0
C2040 C 0.74681 0.76705 0.88531 0.0
C2041 C 0.76185 0.75863 0.89722 0.0
C2042 C 0.74695 0.78757 0.88084 0.0
C2043 C 0.7624 0.79983 0.88863 0.0
C2044 C 0.77616 0.79178 0.90254 0.0
C2045 C 0.77581 0.7712 0.90658 0.0
C2046 C 0.73188 0.79562 0.86607 0.0
C2047 C 0.79257 0.80441 0.91154 0.0
H2048 H 0.79179 0.8371 0.83809 0.0
H2049 H 0.75465 0.86901 0.87969 0.0
H2050 H 0.79817 0.79333 0.8658 0.0
H2051 H 0.77719 0.78954 0.84961 0.0
H2052 H 0.79866 0.80318 0.84074 0.0
H2053 H 0.74243 0.85347 0.90928 0.0
H2054 H 0.73041 0.8311 0.90028 0.0
H2055 H 0.75171 0.82908 0.91635 0.0
H2056 H 0.73589 0.7574 0.87819 0.0
H2057 H 0.78726 0.76478 0.91611 0.0
H2058 H 0.73922 0.79761 0.85131 0.0
H2059 H 0.72624 0.81045 0.8709 0.0
H2060 H 0.71898 0.78532 0.86415 0.0
H2061 H 0.80459 0.80658 0.9003 0.0
H2062 H 0.79922 0.7972 0.92496 0.0
H2063 H 0.78687 0.81941 0.91576 0.0
C2064 C 0.81904 0.72093 0.16503 0.0
C2065 C 0.82197 0.7346 0.14942 0.0
C2066 C 0.83077 0.7218 0.18241 0.0
C2067 C 0.84567 0.73676 0.18416 0.0
C2068 C 0.84956 0.74974 0.1679 0.0
C2069 C 0.83767 0.74847 0.15067 0.0
C2070 C 0.82631 0.70759 0.19939 0.0
C2071 C 0.86531 0.76588 0.1692 0.0
C2072 C 0.85478 0.75596 0.23662 0.0
C2073 C 0.87252 0.74611 0.24185 0.0
C2074 C 0.84615 0.75332 0.21772 0.0
C2075 C 0.85542 0.74036 0.20377 0.0
C2076 C 0.87355 0.73065 0.20881 0.0
C2077 C 0.88195 0.7337 0.22782 0.0
C2078 C 0.82691 0.76414 0.21282 0.0
C2079 C 0.8838 0.71673 0.19428 0.0
H2080 H 0.80698 0.71013 0.16408 0.0
H2081 H 0.84004 0.75904 0.1386 0.0
H2082 H 0.84033 0.70086 0.20518 0.0
H2083 H 0.81929 0.71595 0.21189 0.0
H2084 H 0.81601 0.69538 0.1948 0.0
H2085 H 0.86827 0.77294 0.15445 0.0
H2086 H 0.86025 0.77768 0.17972 0.0
H2087 H 0.87953 0.75972 0.17513 0.0
H2088 H 0.8475 0.76565 0.24739 0.0
H2089 H 0.89566 0.72603 0.23186 0.0
H2090 H 0.81486 0.75313 0.20983 0.0
H2091 H 0.82883 0.77325 0.19908 0.0
H2092 H 0.82198 0.77415 0.22514 0.0
H2093 H 0.87392 0.7038 0.19099 0.0
H2094 H 0.89825 0.71101 0.20017 0.0
H2095 H 0.88661 0.72454 0.1799 0.0
C2096 C 0.2266 0.79213 0.14647 0.0
C2097 C 0.2334 0.78256 0.12913 0.0
C2098 C 0.23586 0.80955 0.15348 0.0
C2099 C 0.25241 0.81754 0.14294 0.0
C2100 C 0.26002 0.80738 0.126 0.0
C2101 C 0.25035 0.78998 0.11923 0.0
C2102 C 0.22734 0.81985 0.17171 0.0
C2103 C 0.27777 0.81532 0.11454 0.0
C2104 C 0.25588 0.87307 0.15228 0.0
C2105 C 0.26835 0.87343 0.16911 0.0
C2106 C 0.25191 0.85503 0.14231 0.0
C2107 C 0.26079 0.8371 0.14931 0.0
C2108 C 0.27508 0.83782 0.16489 0.0
C2109 C 0.27863 0.85601 0.17469 0.0
C2110 C 0.23669 0.85489 0.12562 0.0
C2111 C 0.28521 0.81912 0.17249 0.0
H2112 H 0.21355 0.78641 0.15421 0.0
H2113 H 0.25562 0.78262 0.10577 0.0
H2114 H 0.23917 0.82196 0.18316 0.0
H2115 H 0.22173 0.83491 0.16753 0.0
H2116 H 0.21484 0.8113 0.17856 0.0
H2117 H 0.28366 0.80418 0.10371 0.0
H2118 H 0.27329 0.82892 0.10614 0.0
H2119 H 0.28997 0.81969 0.12491 0.0
H2120 H 0.248 0.88654 0.14785 0.0
H2121 H 0.28853 0.85631 0.18755 0.0
H2122 H 0.22253 0.84824 0.13117 0.0
H2123 H 0.24195 0.84558 0.11295 0.0
H2124 H 0.23345 0.87021 0.12002 0.0
H2125 H 0.2745 0.81046 0.18177 0.0
H2126 H 0.29851 0.82266 0.18182 0.0
H2127 H 0.28991 0.80941 0.15989 0.0
C2128 C 0.72237 0.15144 0.11389 0.0
C2129 C 0.71213 0.15599 0.1316 0.0
C2130 C 0.73002 0.16679 0.10175 0.0
C2131 C 0.72733 0.18698 0.10759 0.0
C2132 C 0.71475 0.19154 0.12398 0.0
C2133 C 0.70729 0.17595 0.13582 0.0
C2134 C 0.74296 0.16132 0.08409 0.0
C2135 C 0.71122 0.21285 0.13057 0.0
C2136 C 0.77252 0.22068 0.10368 0.0
C2137 C 0.76738 0.2333 0.08778 0.0
C2138 C 0.75969 0.20541 0.10994 0.0
C2139 C 0.7412 0.20258 0.09999 0.0
C2140 C 0.736 0.21504 0.08366 0.0
C2141 C 0.74916 0.23039 0.07778 0.0
C2142 C 0.76588 0.19247 0.12745 0.0
C2143 C 0.71647 0.21239 0.07264 0.0
H2144 H 0.72594 0.13601 0.11041 0.0
H2145 H 0.69904 0.17951 0.14932 0.0
H2146 H 0.74054 0.1718 0.07145 0.0
H2147 H 0.75894 0.16234 0.0885 0.0
H2148 H 0.73998 0.14581 0.07889 0.0
H2149 H 0.69827 0.21404 0.14091 0.0
H2150 H 0.72472 0.21844 0.13847 0.0
H2151 H 0.70858 0.22274 0.11751 0.0
H2152 H 0.78661 0.22281 0.11143 0.0
H2153 H 0.7452 0.24008 0.06538 0.0
H2154 H 0.76608 0.1765 0.12295 0.0
H2155 H 0.7549 0.19404 0.1398 0.0
H2156 H 0.78092 0.19647 0.1333 0.0
H2157 H 0.71389 0.19639 0.06907 0.0
H2158 H 0.71603 0.22118 0.05854 0.0
H2159 H 0.70395 0.21738 0.08231 0.0
C2160 C 0.61962 0.63248 0.72045 0.0
C2161 C 0.62487 0.62287 0.73833 0.0
C2162 C 0.61342 0.65253 0.72046 0.0
C2163 C 0.61238 0.66307 0.7388 0.0
C2164 C 0.61531 0.65272 0.75703 0.0
C2165 C 0.62151 0.63267 0.75658 0.0
C2166 C 0.61012 0.66294 0.70068 0.0
C2167 C 0.61399 0.66331 0.77692 0.0
C2168 C 0.62928 0.71705 0.73521 0.0
C2169 C 0.61103 0.72729 0.73455 0.0
C2170 C 0.62985 0.69619 0.73719 0.0
C2171 C 0.61171 0.6853 0.73861 0.0
C2172 C 0.59324 0.69563 0.7388 0.0
C2173 C 0.59312 0.71654 0.73671 0.0
C2174 C 0.6499 0.68574 0.73705 0.0
C2175 C 0.57363 0.68456 0.74045 0.0
H2176 H 0.622 0.62493 0.70629 0.0
H2177 H 0.62536 0.62526 0.77049 0.0
H2178 H 0.59667 0.67262 0.70129 0.0
H2179 H 0.62316 0.67269 0.69738 0.0
H2180 H 0.60837 0.65213 0.68819 0.0
H2181 H 0.61274 0.65257 0.78955 0.0
H2182 H 0.62767 0.67243 0.77919 0.0
H2183 H 0.60098 0.6736 0.77731 0.0
H2184 H 0.64315 0.72529 0.73358 0.0
H2185 H 0.57894 0.72441 0.73623 0.0
H2186 H 0.65095 0.67582 0.72378 0.0
H2187 H 0.65147 0.67619 0.75053 0.0
H2188 H 0.66261 0.69645 0.73663 0.0
H2189 H 0.57095 0.67593 0.72653 0.0
H2190 H 0.56081 0.69487 0.74279 0.0
H2191 H 0.57412 0.67368 0.75297 0.0
C2192 C 0.30515 0.62315 0.73541 0.0
C2193 C 0.29272 0.62866 0.71943 0.0
C2194 C 0.3205 0.63589 0.74201 0.0
C2195 C 0.32327 0.65462 0.73252 0.0
C2196 C 0.31095 0.66007 0.71615 0.0
C2197 C 0.29589 0.64698 0.70976 0.0
C2198 C 0.33348 0.62952 0.75937 0.0
C2199 C 0.31332 0.67998 0.7057 0.0
C2200 C 0.34448 0.69971 0.75908 0.0
C2201 C 0.36307 0.70186 0.74961 0.0
C2202 C 0.33188 0.6836 0.7546 0.0
C2203 C 0.33805 0.66924 0.74034 0.0
C2204 C 0.35745 0.67046 0.73189 0.0
C2205 C 0.36977 0.68683 0.73662 0.0
C2206 C 0.31135 0.68281 0.76402 0.0
C2207 C 0.36464 0.65527 0.71683 0.0
H2208 H 0.30282 0.60892 0.74284 0.0
H2209 H 0.28634 0.65128 0.69737 0.0
H2210 H 0.34952 0.63093 0.75536 0.0
H2211 H 0.33076 0.6395 0.77234 0.0
H2212 H 0.33048 0.61385 0.76404 0.0
H2213 H 0.30299 0.68163 0.69279 0.0
H2214 H 0.31037 0.69232 0.71642 0.0
H2215 H 0.3289 0.68177 0.70027 0.0
H2216 H 0.33931 0.71121 0.76929 0.0
H2217 H 0.38416 0.68839 0.72932 0.0
H2218 H 0.30821 0.66762 0.76992 0.0
H2219 H 0.29986 0.68614 0.7525 0.0
H2220 H 0.30971 0.69377 0.7764 0.0
H2221 H 0.36125 0.63986 0.72198 0.0
H2222 H 0.38098 0.65653 0.71405 0.0
H2223 H 0.35669 0.65757 0.70245 0.0
C2224 C 0.39097 0.27708 0.74666 0.0
C2225 C 0.3833 0.27169 0.72788 0.0
C2226 C 0.38199 0.29233 0.75798 0.0
C2227 C 0.36498 0.30231 0.75029 0.0
C2228 C 0.35727 0.29695 0.73129 0.0
C2229 C 0.36654 0.28171 0.72033 0.0
C2230 C 0.3906 0.2977 0.77816 0.0
C2231 C 0.33911 0.30722 0.72257 0.0
C2232 C 0.32551 0.32803 0.78126 0.0
C2233 C 0.32905 0.34814 0.77647 0.0
C2234 C 0.33818 0.31291 0.77421 0.0
C2235 C 0.35472 0.31809 0.76207 0.0
C2236 C 0.35946 0.33849 0.75884 0.0
C2237 C 0.34654 0.35333 0.76615 0.0
C2238 C 0.33275 0.29134 0.77821 0.0
C2239 C 0.37708 0.3446 0.74612 0.0
H2240 H 0.40398 0.26939 0.75252 0.0
H2241 H 0.36058 0.27761 0.70579 0.0
H2242 H 0.39448 0.31383 0.77858 0.0
H2243 H 0.37927 0.29508 0.78999 0.0
H2244 H 0.40419 0.28884 0.78177 0.0
H2245 H 0.33519 0.30144 0.70748 0.0
H2246 H 0.32605 0.30506 0.73258 0.0
H2247 H 0.34183 0.32356 0.72141 0.0
H2248 H 0.3121 0.32397 0.78943 0.0
H2249 H 0.34939 0.36888 0.76248 0.0
H2250 H 0.3462 0.28255 0.78234 0.0
H2251 H 0.32643 0.28462 0.76441 0.0
H2252 H 0.3215 0.28991 0.79035 0.0
H2253 H 0.39053 0.33569 0.75001 0.0
H2254 H 0.38066 0.36074 0.74784 0.0
H2255 H 0.37359 0.34169 0.73016 0.0
C2256 C 0.66721 0.30607 0.79725 0.0
C2257 C 0.64847 0.30872 0.78822 0.0
C2258 C 0.68301 0.31927 0.79328 0.0
C2259 C 0.67999 0.33526 0.77975 0.0
C2260 C 0.66056 0.33916 0.77224 0.0
C2261 C 0.64494 0.32586 0.77669 0.0
C2262 C 0.70338 0.31487 0.80199 0.0
C2263 C 0.6567 0.35608 0.75779 0.0
C2264 C 0.72142 0.37268 0.76841 0.0
C2265 C 0.72988 0.36421 0.75118 0.0
C2266 C 0.70535 0.36329 0.77823 0.0
C2267 C 0.69755 0.34521 0.77045 0.0
C2268 C 0.70631 0.33647 0.75325 0.0
C2269 C 0.72241 0.34603 0.74392 0.0
C2270 C 0.69653 0.37286 0.79667 0.0
C2271 C 0.69844 0.31719 0.74442 0.0
H2272 H 0.6699 0.29295 0.80642 0.0
H2273 H 0.63043 0.328 0.76975 0.0
H2274 H 0.71282 0.30761 0.79043 0.0
H2275 H 0.71099 0.32886 0.80663 0.0
H2276 H 0.70242 0.30466 0.81508 0.0
H2277 H 0.64046 0.35917 0.75605 0.0
H2278 H 0.66428 0.36997 0.76278 0.0
H2279 H 0.66288 0.35208 0.74291 0.0
H2280 H 0.72717 0.38674 0.77407 0.0
H2281 H 0.72889 0.33942 0.7306 0.0
H2282 H 0.69565 0.36182 0.80903 0.0
H2283 H 0.68105 0.3779 0.79348 0.0
H2284 H 0.7054 0.38595 0.8018 0.0
H2285 H 0.69919 0.30504 0.75571 0.0
H2286 H 0.70698 0.31242 0.73099 0.0
H2287 H 0.68251 0.31902 0.74014 0.0
C2288 C 0.67471 0.37481 0.22747 0.0
C2289 C 0.68854 0.3715 0.21207 0.0
C2290 C 0.6605 0.3602 0.23247 0.0
C2291 C 0.66024 0.34187 0.22187 0.0
C2292 C 0.67315 0.33911 0.20532 0.0
C2293 C 0.68713 0.35402 0.20057 0.0
C2294 C 0.64679 0.36381 0.25005 0.0
C2295 C 0.67329 0.3198 0.19361 0.0
C2296 C 0.64577 0.29625 0.25222 0.0
C2297 C 0.62607 0.2929 0.24593 0.0
C2298 C 0.65709 0.31198 0.24424 0.0
C2299 C 0.64844 0.32475 0.22971 0.0
C2300 C 0.62862 0.3213 0.2231 0.0
C2301 C 0.61766 0.30534 0.23127 0.0
C2302 C 0.67825 0.31506 0.25158 0.0
C2303 C 0.61891 0.33469 0.20772 0.0
H2304 H 0.67566 0.38837 0.23632 0.0
H2305 H 0.69774 0.35142 0.18858 0.0
H2306 H 0.63122 0.35948 0.2463 0.0
H2307 H 0.65163 0.3544 0.26285 0.0
H2308 H 0.64691 0.37971 0.25489 0.0
H2309 H 0.68216 0.32105 0.17962 0.0
H2310 H 0.67989 0.30775 0.20295 0.0
H2311 H 0.65783 0.31517 0.18973 0.0
H2312 H 0.65233 0.28665 0.26353 0.0
H2313 H 0.60239 0.30282 0.22643 0.0
H2314 H 0.67961 0.32997 0.25877 0.0
H2315 H 0.68881 0.31477 0.23878 0.0
H2316 H 0.6829 0.30348 0.26256 0.0
H2317 H 0.61788 0.35017 0.21362 0.0
H2318 H 0.60364 0.32955 0.20364 0.0
H2319 H 0.62818 0.3353 0.19398 0.0
C2320 C 0.65757 0.61339 0.29283 0.0
C2321 C 0.67408 0.62558 0.29719 0.0
C2322 C 0.64161 0.62065 0.28121 0.0
C2323 C 0.64224 0.64055 0.27398 0.0
C2324 C 0.65845 0.65316 0.27919 0.0
C2325 C 0.6742 0.64548 0.29065 0.0
C2326 C 0.62453 0.60683 0.27601 0.0
C2327 C 0.65955 0.6746 0.27205 0.0
C2328 C 0.61861 0.65873 0.22607 0.0
C2329 C 0.60347 0.67115 0.2335 0.0
C2330 C 0.6303 0.64713 0.23907 0.0
C2331 C 0.62677 0.64812 0.25993 0.0
C2332 C 0.61024 0.65911 0.26728 0.0
C2333 C 0.5987 0.67047 0.25392 0.0
C2334 C 0.64761 0.63535 0.2306 0.0
C2335 C 0.6059 0.66047 0.28939 0.0
H2336 H 0.65745 0.59797 0.29786 0.0
H2337 H 0.68687 0.655 0.29416 0.0
H2338 H 0.60997 0.61422 0.27895 0.0
H2339 H 0.62505 0.60324 0.25981 0.0
H2340 H 0.62516 0.5926 0.28458 0.0
H2341 H 0.67276 0.68263 0.27815 0.0
H2342 H 0.66036 0.67498 0.25548 0.0
H2343 H 0.64585 0.68282 0.27654 0.0
H2344 H 0.62223 0.65909 0.21027 0.0
H2345 H 0.58694 0.67999 0.25975 0.0
H2346 H 0.64836 0.62027 0.23748 0.0
H2347 H 0.66182 0.64318 0.23413 0.0
H2348 H 0.64651 0.63366 0.21411 0.0
H2349 H 0.60763 0.64568 0.29672 0.0
H2350 H 0.59057 0.66616 0.29232 0.0
H2351 H 0.61675 0.67087 0.29646 0.0
C2352 C 0.28147 0.6572 0.25412 0.0
C2353 C 0.28474 0.64234 0.23968 0.0
C2354 C 0.29512 0.67288 0.25676 0.0
C2355 C 0.31235 0.67385 0.24451 0.0
C2356 C 0.31567 0.659 0.22978 0.0
C2357 C 0.30184 0.64332 0.2276 0.0
C2358 C 0.29119 0.6883 0.27282 0.0
C2359 C 0.33383 0.65965 0.21638 0.0
C2360 C 0.33732 0.72475 0.24144 0.0
C2361 C 0.35287 0.72263 0.25533 0.0
C2362 C 0.32439 0.70875 0.23725 0.0
C2363 C 0.32697 0.69033 0.24741 0.0
C2364 C 0.34287 0.68803 0.26121 0.0
C2365 C 0.35571 0.70418 0.26491 0.0
C2366 C 0.30765 0.71171 0.22237 0.0
C2367 C 0.34596 0.66869 0.27249 0.0
H2368 H 0.26831 0.65645 0.26356 0.0
H2369 H 0.30438 0.63188 0.2164 0.0
H2370 H 0.3037 0.68842 0.28373 0.0
H2371 H 0.29039 0.70345 0.26606 0.0
H2372 H 0.27704 0.68541 0.28103 0.0
H2373 H 0.33401 0.64719 0.20539 0.0
H2374 H 0.33425 0.67405 0.20811 0.0
H2375 H 0.34764 0.65885 0.22555 0.0
H2376 H 0.33513 0.739 0.234 0.0
H2377 H 0.36765 0.70252 0.27577 0.0
H2378 H 0.29302 0.71057 0.23012 0.0
H2379 H 0.30807 0.69978 0.21084 0.0
H2380 H 0.30849 0.72648 0.2148 0.0
H2381 H 0.33251 0.66525 0.28159 0.0
H2382 H 0.35915 0.6693 0.2826 0.0
H2383 H 0.348 0.65615 0.26182 0.0
C2384 C 0.32814 0.3462 0.20656 0.0
C2385 C 0.34799 0.34914 0.21263 0.0
C2386 C 0.31247 0.35663 0.21577 0.0
C2387 C 0.31689 0.37025 0.23135 0.0
C2388 C 0.33705 0.37527 0.23552 0.0
C2389 C 0.35244 0.36466 0.22601 0.0
C2390 C 0.29119 0.35114 0.21056 0.0
C2391 C 0.34241 0.38996 0.2518 0.0
C2392 C 0.2747 0.39781 0.25775 0.0
C2393 C 0.27122 0.38516 0.27414 0.0
C2394 C 0.28952 0.39325 0.24356 0.0
C2395 C 0.30103 0.37564 0.24591 0.0
C2396 C 0.29744 0.36278 0.26239 0.0
C2397 C 0.28259 0.36771 0.27629 0.0
C2398 C 0.29295 0.40726 0.22619 0.0
C2399 C 0.30936 0.34378 0.26544 0.0
H2400 H 0.32465 0.33442 0.19595 0.0
H2401 H 0.3678 0.36716 0.23059 0.0
H2402 H 0.28535 0.34055 0.22195 0.0
H2403 H 0.28139 0.36452 0.21062 0.0
H2404 H 0.29021 0.34382 0.19567 0.0
H2405 H 0.35808 0.39531 0.25034 0.0
H2406 H 0.33223 0.40306 0.25161 0.0
H2407 H 0.34081 0.38254 0.26657 0.0
H2408 H 0.26595 0.41137 0.25609 0.0
H2409 H 0.27995 0.35789 0.28892 0.0
H2410 H 0.29133 0.39907 0.21185 0.0
H2411 H 0.30844 0.41319 0.22671 0.0
H2412 H 0.28236 0.42007 0.22624 0.0
H2413 H 0.30756 0.33379 0.25231 0.0
H2414 H 0.30468 0.33546 0.27904 0.0
H2415 H 0.32551 0.34738 0.26679 0.0
C2416 C 0.70716 0.62448 0.68523 0.0
C2417 C 0.71041 0.60517 0.69267 0.0
C2418 C 0.71867 0.63204 0.66948 0.0
C2419 C 0.73385 0.62 0.66092 0.0
C2420 C 0.73742 0.60055 0.66851 0.0
C2421 C 0.72561 0.59333 0.68434 0.0
C2422 C 0.71441 0.65292 0.66188 0.0
C2423 C 0.75352 0.58736 0.65978 0.0
C2424 C 0.74586 0.63932 0.60934 0.0
C2425 C 0.76083 0.65328 0.61386 0.0
C2426 C 0.73816 0.6267 0.62425 0.0
C2427 C 0.74573 0.62812 0.644 0.0
C2428 C 0.76242 0.6405 0.64798 0.0
C2429 C 0.76978 0.65299 0.63283 0.0
C2430 C 0.72052 0.61349 0.61933 0.0
C2431 C 0.77114 0.64224 0.66875 0.0
H2432 H 0.69544 0.63368 0.69162 0.0
H2433 H 0.72813 0.57836 0.69004 0.0
H2434 H 0.72804 0.66232 0.66315 0.0
H2435 H 0.71024 0.65236 0.64582 0.0
H2436 H 0.70212 0.66033 0.67025 0.0
H2437 H 0.75494 0.57294 0.66793 0.0
H2438 H 0.75011 0.58414 0.64386 0.0
H2439 H 0.76815 0.59517 0.66017 0.0
H2440 H 0.73901 0.63937 0.59464 0.0
H2441 H 0.78157 0.66358 0.63631 0.0
H2442 H 0.70663 0.62059 0.62501 0.0
H2443 H 0.72196 0.59869 0.62669 0.0
H2444 H 0.71889 0.61121 0.60295 0.0
H2445 H 0.76112 0.65159 0.67812 0.0
H2446 H 0.78618 0.6493 0.66856 0.0
H2447 H 0.7723 0.62734 0.67597 0.0
C2448 C 0.33734 0.78124 0.70235 0.0
C2449 C 0.35718 0.77502 0.69985 0.0
C2450 C 0.32444 0.78282 0.68589 0.0
C2451 C 0.33172 0.77842 0.66649 0.0
C2452 C 0.3521 0.77341 0.66376 0.0
C2453 C 0.36456 0.77156 0.68054 0.0
C2454 C 0.30272 0.78796 0.68943 0.0
C2455 C 0.36049 0.76903 0.64326 0.0
C2456 C 0.29326 0.75754 0.63062 0.0
C2457 C 0.28746 0.7747 0.62007 0.0
C2458 C 0.30805 0.75849 0.64542 0.0
C2459 C 0.31752 0.77699 0.64949 0.0
C2460 C 0.31248 0.79416 0.63815 0.0
C2461 C 0.29733 0.79285 0.62365 0.0
C2462 C 0.31286 0.73987 0.65733 0.0
C2463 C 0.32258 0.81402 0.64182 0.0
H2464 H 0.33159 0.78388 0.71728 0.0
H2465 H 0.37997 0.76689 0.67857 0.0
H2466 H 0.29801 0.80035 0.67946 0.0
H2467 H 0.29325 0.77481 0.6858 0.0
H2468 H 0.29979 0.79238 0.70518 0.0
H2469 H 0.37708 0.76807 0.64338 0.0
H2470 H 0.35444 0.75459 0.63775 0.0
H2471 H 0.35589 0.78078 0.63247 0.0
H2472 H 0.28564 0.74348 0.62793 0.0
H2473 H 0.2929 0.80613 0.61545 0.0
H2474 H 0.30895 0.74226 0.67328 0.0
H2475 H 0.32912 0.73666 0.65666 0.0
H2476 H 0.30461 0.72653 0.65182 0.0
H2477 H 0.31816 0.81985 0.65671 0.0
H2478 H 0.31854 0.82532 0.63032 0.0
H2479 H 0.33907 0.81217 0.64195 0.0
C2480 C 0.23382 0.37983 0.71754 0.0
C2481 C 0.24829 0.36767 0.72666 0.0
C2482 C 0.22643 0.37524 0.69839 0.0
C2483 C 0.23393 0.35827 0.68818 0.0
C2484 C 0.24789 0.34552 0.69774 0.0
C2485 C 0.2548 0.35032 0.71689 0.0
C2486 C 0.21126 0.38893 0.68881 0.0
C2487 C 0.25623 0.3272 0.68742 0.0
C2488 C 0.21201 0.33122 0.644 0.0
C2489 C 0.2255 0.33677 0.62892 0.0
C2490 C 0.21308 0.33984 0.66306 0.0
C2491 C 0.22822 0.35404 0.66714 0.0
C2492 C 0.24048 0.36118 0.65137 0.0
C2493 C 0.23886 0.35252 0.63232 0.0
C2494 C 0.19934 0.33222 0.67928 0.0
C2495 C 0.25678 0.37636 0.6551 0.0
H2496 H 0.22875 0.39327 0.72507 0.0
H2497 H 0.26593 0.34083 0.7239 0.0
H2498 H 0.21853 0.39765 0.67671 0.0
H2499 H 0.19899 0.38014 0.6819 0.0
H2500 H 0.20473 0.39959 0.69975 0.0
H2501 H 0.26669 0.31867 0.69712 0.0
H2502 H 0.24388 0.3171 0.68285 0.0
H2503 H 0.26433 0.33171 0.67365 0.0
H2504 H 0.20143 0.31921 0.64127 0.0
H2505 H 0.24925 0.35686 0.62065 0.0
H2506 H 0.1946 0.34453 0.68934 0.0
H2507 H 0.20741 0.321 0.68848 0.0
H2508 H 0.18581 0.32494 0.67293 0.0
H2509 H 0.25117 0.38886 0.66444 0.0
H2510 H 0.26284 0.38258 0.64092 0.0
H2511 H 0.26922 0.36911 0.66338 0.0
C2512 C 0.68448 0.1929 0.65584 0.0
C2513 C 0.68004 0.20529 0.63951 0.0
C2514 C 0.67369 0.19444 0.67374 0.0
C2515 C 0.6583 0.20887 0.67531 0.0
C2516 C 0.6524 0.21988 0.65818 0.0
C2517 C 0.66332 0.21787 0.64037 0.0
C2518 C 0.68013 0.18206 0.6915 0.0
C2519 C 0.63598 0.23534 0.65921 0.0
C2520 C 0.62682 0.21416 0.72242 0.0
C2521 C 0.63698 0.22962 0.73234 0.0
C2522 C 0.6338 0.20677 0.70402 0.0
C2523 C 0.6512 0.21518 0.69539 0.0
C2524 C 0.66182 0.23035 0.7057 0.0
C2525 C 0.65461 0.23732 0.72407 0.0
C2526 C 0.62224 0.19044 0.69355 0.0
C2527 C 0.68051 0.23971 0.69706 0.0
H2528 H 0.69725 0.18292 0.6551 0.0
H2529 H 0.6598 0.2274 0.62773 0.0
H2530 H 0.68922 0.19147 0.70173 0.0
H2531 H 0.66697 0.17663 0.70003 0.0
H2532 H 0.68931 0.169 0.68691 0.0
H2533 H 0.63104 0.24018 0.64409 0.0
H2534 H 0.62287 0.22947 0.6675 0.0
H2535 H 0.64153 0.24868 0.66741 0.0
H2536 H 0.61314 0.20819 0.72878 0.0
H2537 H 0.66253 0.24924 0.73168 0.0
H2538 H 0.63246 0.17836 0.68856 0.0
H2539 H 0.61493 0.19664 0.67999 0.0
H2540 H 0.6105 0.18385 0.7033 0.0
H2541 H 0.69191 0.22801 0.69415 0.0
H2542 H 0.68714 0.25113 0.70716 0.0
H2543 H 0.67699 0.24696 0.68254 0.0
C2544 C 0.75764 0.36176 0.27086 0.0
C2545 C 0.7646 0.38033 0.26408 0.0
C2546 C 0.76109 0.3555 0.29056 0.0
C2547 C 0.77184 0.36809 0.3038 0.0
C2548 C 0.77959 0.38652 0.29683 0.0
C2549 C 0.77584 0.39246 0.27701 0.0
C2550 C 0.75262 0.33567 0.29739 0.0
C2551 C 0.79126 0.40023 0.31046 0.0
C2552 C 0.75895 0.35689 0.35774 0.0
C2553 C 0.7737 0.34281 0.36254 0.0
C2554 C 0.759 0.36653 0.33908 0.0
C2555 C 0.77423 0.362 0.32504 0.0
C2556 C 0.79018 0.34926 0.33061 0.0
C2557 C 0.7897 0.33977 0.34931 0.0
C2558 C 0.74179 0.38014 0.33374 0.0
C2559 C 0.80683 0.34425 0.31621 0.0
H2560 H 0.74894 0.35234 0.26093 0.0
H2561 H 0.78121 0.40686 0.27183 0.0
H2562 H 0.76472 0.32611 0.30351 0.0
H2563 H 0.74162 0.33816 0.30956 0.0
H2564 H 0.74508 0.32743 0.28508 0.0
H2565 H 0.79778 0.41315 0.30228 0.0
H2566 H 0.78127 0.40603 0.32238 0.0
H2567 H 0.80351 0.39189 0.31794 0.0
H2568 H 0.74658 0.35931 0.36794 0.0
H2569 H 0.80125 0.32901 0.35304 0.0
H2570 H 0.73184 0.37243 0.32291 0.0
H2571 H 0.7473 0.39399 0.32646 0.0
H2572 H 0.73279 0.38432 0.34707 0.0
H2573 H 0.80108 0.33397 0.30452 0.0
H2574 H 0.81963 0.33687 0.32384 0.0
H2575 H 0.81232 0.35793 0.30857 0.0
C2576 C 0.6067 0.75006 0.26946 0.0
C2577 C 0.61563 0.75156 0.25054 0.0
C2578 C 0.61764 0.75416 0.28688 0.0
C2579 C 0.63788 0.76015 0.28527 0.0
C2580 C 0.64654 0.76299 0.26614 0.0
C2581 C 0.63533 0.75852 0.24899 0.0
C2582 C 0.60795 0.75079 0.307 0.0
C2583 C 0.668 0.76964 0.26381 0.0
C2584 C 0.66582 0.78067 0.33033 0.0
C2585 C 0.67711 0.76396 0.3361 0.0
C2586 C 0.65268 0.77962 0.31397 0.0
C2587 C 0.65064 0.76138 0.30341 0.0
C2588 C 0.66149 0.74429 0.30967 0.0
C2589 C 0.67471 0.74584 0.32585 0.0
C2590 C 0.64147 0.79817 0.30759 0.0
C2591 C 0.65948 0.72446 0.299 0.0
H2592 H 0.59147 0.7446 0.27072 0.0
H2593 H 0.64224 0.75979 0.23437 0.0
H2594 H 0.61461 0.73737 0.31415 0.0
H2595 H 0.61076 0.76367 0.31708 0.0
H2596 H 0.59154 0.74847 0.30573 0.0
H2597 H 0.67173 0.77336 0.24805 0.0
H2598 H 0.67102 0.78294 0.27328 0.0
H2599 H 0.67814 0.75752 0.26889 0.0
H2600 H 0.66773 0.79472 0.3382 0.0
H2601 H 0.68334 0.73287 0.33038 0.0
H2602 H 0.62521 0.79502 0.30664 0.0
H2603 H 0.64647 0.80276 0.29244 0.0
H2604 H 0.64386 0.81087 0.31803 0.0
H2605 H 0.64352 0.71994 0.29822 0.0
H2606 H 0.66804 0.71235 0.30651 0.0
H2607 H 0.66497 0.72589 0.28341 0.0
C2608 C 0.25436 0.59567 0.36197 0.0
C2609 C 0.24466 0.60443 0.37832 0.0
C2610 C 0.24333 0.58873 0.34558 0.0
C2611 C 0.22213 0.58974 0.34615 0.0
C2612 C 0.21246 0.59446 0.36436 0.0
C2613 C 0.22389 0.60197 0.38032 0.0
C2614 C 0.25448 0.58362 0.32658 0.0
C2615 C 0.19 0.59414 0.36629 0.0
C2616 C 0.20828 0.6116 0.29677 0.0
C2617 C 0.20835 0.59422 0.28507 0.0
C2618 C 0.21002 0.61042 0.3176 0.0
C2619 C 0.21126 0.59134 0.32682 0.0
C2620 C 0.20719 0.574 0.31543 0.0
C2621 C 0.20611 0.57556 0.29448 0.0
C2622 C 0.2134 0.62951 0.32926 0.0
C2623 C 0.2063 0.55366 0.32512 0.0
H2624 H 0.27048 0.59693 0.36065 0.0
H2625 H 0.21628 0.60808 0.39327 0.0
H2626 H 0.24831 0.56992 0.31961 0.0
H2627 H 0.25276 0.59602 0.31566 0.0
H2628 H 0.27071 0.58132 0.3293 0.0
H2629 H 0.18563 0.58871 0.38138 0.0
H2630 H 0.1841 0.60957 0.3647 0.0
H2631 H 0.18286 0.5845 0.35482 0.0
H2632 H 0.20933 0.6261 0.28956 0.0
H2633 H 0.20555 0.56203 0.28554 0.0
H2634 H 0.22911 0.6301 0.33464 0.0
H2635 H 0.20352 0.62997 0.34255 0.0
H2636 H 0.2105 0.64308 0.32011 0.0
H2637 H 0.22169 0.54792 0.32745 0.0
H2638 H 0.19803 0.54282 0.31562 0.0
H2639 H 0.19897 0.55454 0.33999 0.0
C2640 C 0.33737 0.2425 0.35133 0.0
C2641 C 0.319 0.23243 0.35198 0.0
C2642 C 0.34569 0.24846 0.33302 0.0
C2643 C 0.33548 0.24401 0.31499 0.0
C2644 C 0.31749 0.23289 0.31552 0.0
C2645 C 0.30938 0.22733 0.33405 0.0
C2646 C 0.36486 0.26042 0.33304 0.0
C2647 C 0.30634 0.22762 0.29659 0.0
C2648 C 0.34358 0.28004 0.27202 0.0
C2649 C 0.35803 0.26999 0.26065 0.0
C2650 C 0.33593 0.27158 0.28959 0.0
C2651 C 0.34274 0.2525 0.2958 0.0
C2652 C 0.35684 0.24198 0.28403 0.0
C2653 C 0.36443 0.25092 0.2666 0.0
C2654 C 0.32096 0.28332 0.30179 0.0
C2655 C 0.3642 0.2215 0.29006 0.0
H2656 H 0.34483 0.24647 0.36517 0.0
H2657 H 0.29523 0.21941 0.3345 0.0
H2658 H 0.37589 0.25365 0.32266 0.0
H2659 H 0.36181 0.27582 0.32764 0.0
H2660 H 0.37167 0.26137 0.34817 0.0
H2661 H 0.2938 0.21708 0.29942 0.0
H2662 H 0.30016 0.24142 0.28975 0.0
H2663 H 0.31664 0.2208 0.28552 0.0
H2664 H 0.33861 0.29479 0.26749 0.0
H2665 H 0.37557 0.2431 0.25778 0.0
H2666 H 0.3272 0.28642 0.31686 0.0
H2667 H 0.30711 0.27443 0.30392 0.0
H2668 H 0.31692 0.29778 0.29466 0.0
H2669 H 0.37247 0.22251 0.30441 0.0
H2670 H 0.37422 0.2148 0.27863 0.0
H2671 H 0.35134 0.21129 0.29251 0.0
C2672 C 0.71141 0.75597 0.59942 0.0
C2673 C 0.72221 0.74135 0.60991 0.0
C2674 C 0.69534 0.76603 0.60846 0.0
C2675 C 0.69015 0.76143 0.62846 0.0
C2676 C 0.70144 0.74711 0.63928 0.0
C2677 C 0.71726 0.73719 0.62983 0.0
C2678 C 0.68354 0.78109 0.59646 0.0
C2679 C 0.69652 0.74193 0.66073 0.0
C2680 C 0.65981 0.79444 0.66281 0.0
C2681 C 0.64199 0.78345 0.66422 0.0
C2682 C 0.67521 0.78833 0.64997 0.0
C2683 C 0.6726 0.77094 0.63818 0.0
C2684 C 0.65391 0.76097 0.63812 0.0
C2685 C 0.63881 0.76732 0.65122 0.0
C2686 C 0.69489 0.79941 0.65041 0.0
C2687 C 0.65042 0.74256 0.62551 0.0
H2688 H 0.71515 0.75914 0.58396 0.0
H2689 H 0.72562 0.72594 0.638 0.0
H2690 H 0.66808 0.77551 0.5942 0.0
H2691 H 0.68243 0.79545 0.60471 0.0
H2692 H 0.69035 0.784 0.58158 0.0
H2693 H 0.70729 0.73107 0.66725 0.0
H2694 H 0.69656 0.75565 0.67006 0.0
H2695 H 0.6813 0.73538 0.66158 0.0
H2696 H 0.66231 0.80701 0.67276 0.0
H2697 H 0.62499 0.75888 0.65214 0.0
H2698 H 0.70081 0.80156 0.63506 0.0
H2699 H 0.70603 0.79045 0.65885 0.0
H2700 H 0.6935 0.81427 0.65774 0.0
H2701 H 0.65606 0.74488 0.61008 0.0
H2702 H 0.63433 0.73847 0.62477 0.0
H2703 H 0.65877 0.72977 0.63202 0.0
C2704 C 0.70566 0.27521 0.35831 0.0
C2705 C 0.71177 0.26938 0.37747 0.0
C2706 C 0.68802 0.26772 0.34989 0.0
C2707 C 0.67615 0.25407 0.36094 0.0
C2708 C 0.68247 0.24772 0.38013 0.0
C2709 C 0.70027 0.25547 0.3882 0.0
C2710 C 0.68191 0.27475 0.32927 0.0
C2711 C 0.6702 0.23318 0.39229 0.0
C2712 C 0.62335 0.2557 0.34131 0.0
C2713 C 0.62428 0.24094 0.32647 0.0
C2714 C 0.63957 0.25889 0.35425 0.0
C2715 C 0.65698 0.247 0.35222 0.0
C2716 C 0.657 0.2306 0.33884 0.0
C2717 C 0.6406 0.22776 0.3261 0.0
C2718 C 0.63885 0.27634 0.36856 0.0
C2719 C 0.67514 0.21738 0.33643 0.0
H2720 H 0.71453 0.2859 0.34994 0.0
H2721 H 0.70495 0.25098 0.40307 0.0
H2722 H 0.67999 0.26174 0.31916 0.0
H2723 H 0.66731 0.28261 0.33009 0.0
H2724 H 0.69306 0.28507 0.32253 0.0
H2725 H 0.67809 0.22833 0.40609 0.0
H2726 H 0.65586 0.2403 0.39664 0.0
H2727 H 0.66648 0.21976 0.38326 0.0
H2728 H 0.61068 0.2658 0.34179 0.0
H2729 H 0.64126 0.21612 0.31481 0.0
H2730 H 0.64784 0.28886 0.36238 0.0
H2731 H 0.6454 0.27222 0.38323 0.0
H2732 H 0.62331 0.28175 0.37094 0.0
H2733 H 0.68665 0.22546 0.32759 0.0
H2734 H 0.67145 0.20324 0.32851 0.0
H2735 H 0.68181 0.21369 0.35117 0.0
C2736 C 0.71984 0.63468 0.38625 0.0
C2737 C 0.73256 0.61967 0.37908 0.0
C2738 C 0.72766 0.653 0.39279 0.0
C2739 C 0.74865 0.65606 0.39234 0.0
C2740 C 0.76147 0.63957 0.38911 0.0
C2741 C 0.75324 0.62138 0.3825 0.0
C2742 C 0.71337 0.66995 0.39713 0.0
C2743 C 0.78388 0.64193 0.39003 0.0
C2744 C 0.75683 0.70563 0.36731 0.0
C2745 C 0.7563 0.71849 0.38381 0.0
C2746 C 0.75658 0.68487 0.36994 0.0
C2747 C 0.75621 0.67682 0.3896 0.0
C2748 C 0.75897 0.6897 0.40616 0.0
C2749 C 0.75879 0.71051 0.4031 0.0
C2750 C 0.75421 0.67177 0.35168 0.0
C2751 C 0.76008 0.6818 0.42725 0.0
H2752 H 0.70382 0.63318 0.38415 0.0
H2753 H 0.76321 0.60962 0.37748 0.0
H2754 H 0.71806 0.67819 0.41073 0.0
H2755 H 0.71347 0.68066 0.38443 0.0
H2756 H 0.6978 0.66455 0.39931 0.0
H2757 H 0.79167 0.62725 0.38986 0.0
H2758 H 0.78911 0.65081 0.37703 0.0
H2759 H 0.78823 0.65024 0.40373 0.0
H2760 H 0.75538 0.71175 0.35236 0.0
H2761 H 0.75877 0.72038 0.41597 0.0
H2762 H 0.73873 0.66578 0.3511 0.0
H2763 H 0.76454 0.65888 0.35245 0.0
H2764 H 0.75717 0.68006 0.33758 0.0
H2765 H 0.74506 0.68267 0.43421 0.0
H2766 H 0.77039 0.6911 0.43639 0.0
H2767 H 0.7652 0.66603 0.42776 0.0
C2768 C 0.33423 0.6856 0.38974 0.0
C2769 C 0.32213 0.67595 0.37556 0.0
C2770 C 0.34936 0.69887 0.38366 0.0
C2771 C 0.35218 0.70261 0.36301 0.0
C2772 C 0.34138 0.69127 0.3487 0.0
C2773 C 0.32656 0.678 0.35519 0.0
C2774 C 0.36102 0.71013 0.39937 0.0
C2775 C 0.34407 0.69454 0.32647 0.0
C2776 C 0.36166 0.75318 0.3405 0.0
C2777 C 0.38002 0.74986 0.331 0.0
C2778 C 0.35326 0.73857 0.35294 0.0
C2779 C 0.36363 0.72035 0.35607 0.0
C2780 C 0.38339 0.71819 0.34883 0.0
C2781 C 0.39139 0.73301 0.33627 0.0
C2782 C 0.33226 0.74168 0.36069 0.0
C2783 C 0.39526 0.69936 0.35252 0.0
H2784 H 0.33098 0.68394 0.40554 0.0
H2785 H 0.31742 0.67033 0.34419 0.0
H2786 H 0.37659 0.71304 0.39442 0.0
H2787 H 0.35374 0.72478 0.40214 0.0
H2788 H 0.3614 0.70178 0.41374 0.0
H2789 H 0.33566 0.68344 0.31741 0.0
H2790 H 0.33872 0.70973 0.32238 0.0
H2791 H 0.36011 0.69363 0.32237 0.0
H2792 H 0.35296 0.76635 0.33674 0.0
H2793 H 0.40576 0.73049 0.3292 0.0
H2794 H 0.33121 0.7373 0.37665 0.0
H2795 H 0.32176 0.73207 0.35213 0.0
H2796 H 0.32732 0.75748 0.35916 0.0
H2797 H 0.39242 0.69335 0.36773 0.0
H2798 H 0.41157 0.70203 0.35072 0.0
H2799 H 0.39069 0.68777 0.34155 0.0
C2800 C 0.23765 0.27206 0.38134 0.0
C2801 C 0.24325 0.26613 0.40063 0.0
C2802 C 0.23107 0.29159 0.3776 0.0
C2803 C 0.22984 0.30542 0.39362 0.0
C2804 C 0.23295 0.29873 0.41347 0.0
C2805 C 0.23975 0.27911 0.41676 0.0
C2806 C 0.22769 0.29797 0.35617 0.0
C2807 C 0.23106 0.31264 0.43113 0.0
C2808 C 0.24727 0.35558 0.37499 0.0
C2809 C 0.22919 0.36412 0.36871 0.0
C2810 C 0.24756 0.33717 0.38497 0.0
C2811 C 0.22929 0.32715 0.38888 0.0
C2812 C 0.21094 0.33689 0.38482 0.0
C2813 C 0.21109 0.35529 0.37462 0.0
C2814 C 0.2675 0.32758 0.38957 0.0
C2815 C 0.1912 0.32715 0.38973 0.0
H2816 H 0.24005 0.26198 0.36886 0.0
H2817 H 0.24383 0.27455 0.43179 0.0
H2818 H 0.21354 0.3065 0.35477 0.0
H2819 H 0.24006 0.30796 0.35138 0.0
H2820 H 0.22711 0.28501 0.34579 0.0
H2821 H 0.22558 0.3044 0.44447 0.0
H2822 H 0.24602 0.31882 0.43484 0.0
H2823 H 0.22077 0.32529 0.42805 0.0
H2824 H 0.2613 0.36254 0.37077 0.0
H2825 H 0.19703 0.36197 0.37006 0.0
H2826 H 0.26965 0.31429 0.37983 0.0
H2827 H 0.26792 0.32237 0.40531 0.0
H2828 H 0.28021 0.338 0.38711 0.0
H2829 H 0.18768 0.31569 0.37826 0.0
H2830 H 0.17881 0.33823 0.38997 0.0
H2831 H 0.1919 0.3195 0.40446 0.0
C2832 C 0.3583 0.21315 0.6426 0.0
C2833 C 0.37509 0.22574 0.64269 0.0
C2834 C 0.34126 0.21801 0.63138 0.0
C2835 C 0.34108 0.23588 0.62003 0.0
C2836 C 0.35883 0.24733 0.61822 0.0
C2837 C 0.37569 0.2421 0.6296 0.0
C2838 C 0.32279 0.2052 0.63348 0.0
C2839 C 0.35936 0.26633 0.60602 0.0
C2840 C 0.29559 0.24996 0.5887 0.0
C2841 C 0.2855 0.26284 0.60183 0.0
C2842 C 0.31367 0.24079 0.59438 0.0
C2843 C 0.32166 0.24461 0.61363 0.0
C2844 C 0.31119 0.25721 0.62707 0.0
C2845 C 0.29329 0.26619 0.62097 0.0
C2846 C 0.32444 0.2275 0.57966 0.0
C2847 C 0.31907 0.26154 0.64783 0.0
H2848 H 0.35786 0.2003 0.6525 0.0
H2849 H 0.3887 0.25179 0.62947 0.0
H2850 H 0.31221 0.21253 0.64397 0.0
H2851 H 0.31503 0.20351 0.61891 0.0
H2852 H 0.32639 0.1901 0.63943 0.0
H2853 H 0.37492 0.27138 0.60313 0.0
H2854 H 0.35161 0.26424 0.59149 0.0
H2855 H 0.35141 0.27835 0.61425 0.0
H2856 H 0.28965 0.24744 0.57382 0.0
H2857 H 0.28551 0.2761 0.63118 0.0
H2858 H 0.32826 0.21297 0.58671 0.0
H2859 H 0.3387 0.23467 0.57512 0.0
H2860 H 0.31539 0.22463 0.56602 0.0
H2861 H 0.32117 0.24735 0.65619 0.0
H2862 H 0.30887 0.27133 0.65656 0.0
H2863 H 0.33388 0.26896 0.64681 0.0
C2864 C 0.74952 0.27187 0.64347 0.0
C2865 C 0.75751 0.26324 0.62614 0.0
C2866 C 0.75767 0.28936 0.65156 0.0
C2867 C 0.77442 0.29836 0.64221 0.0
C2868 C 0.78315 0.28926 0.6252 0.0
C2869 C 0.77448 0.2718 0.61725 0.0
C2870 C 0.74788 0.29855 0.66976 0.0
C2871 C 0.80119 0.29826 0.61506 0.0
C2872 C 0.77525 0.35321 0.65508 0.0
C2873 C 0.78634 0.35282 0.67286 0.0
C2874 C 0.77282 0.33579 0.64363 0.0
C2875 C 0.78191 0.31776 0.65006 0.0
C2876 C 0.79507 0.31796 0.66663 0.0
C2877 C 0.79702 0.3355 0.67796 0.0
C2878 C 0.75872 0.33624 0.62599 0.0
C2879 C 0.80547 0.29919 0.67366 0.0
H2880 H 0.73644 0.26529 0.65044 0.0
H2881 H 0.78071 0.26515 0.60384 0.0
H2882 H 0.75896 0.30015 0.68201 0.0
H2883 H 0.7423 0.31374 0.66607 0.0
H2884 H 0.73513 0.28948 0.67536 0.0
H2885 H 0.80788 0.2879 0.60392 0.0
H2886 H 0.79677 0.31221 0.60725 0.0
H2887 H 0.81277 0.3023 0.62625 0.0
H2888 H 0.76707 0.36661 0.65102 0.0
H2889 H 0.80588 0.33525 0.69155 0.0
H2890 H 0.74437 0.32906 0.63028 0.0
H2891 H 0.76496 0.32769 0.61323 0.0
H2892 H 0.75552 0.35176 0.62098 0.0
H2893 H 0.79465 0.28966 0.68189 0.0
H2894 H 0.81816 0.30263 0.68383 0.0
H2895 H 0.81114 0.29039 0.66078 0.0
C2896 C 0.20465 0.63036 0.65201 0.0
C2897 C 0.22412 0.62257 0.65152 0.0
C2898 C 0.19969 0.64763 0.64117 0.0
C2899 C 0.21468 0.65743 0.62991 0.0
C2900 C 0.23376 0.64843 0.62775 0.0
C2901 C 0.23821 0.63095 0.63849 0.0
C2902 C 0.179 0.65638 0.64335 0.0
C2903 C 0.25017 0.65838 0.61583 0.0
C2904 C 0.20625 0.70329 0.59743 0.0
C2905 C 0.2126 0.71857 0.61036 0.0
C2906 C 0.20564 0.68329 0.60388 0.0
C2907 C 0.21181 0.67854 0.62357 0.0
C2908 C 0.21699 0.69409 0.63701 0.0
C2909 C 0.21717 0.71392 0.63027 0.0
C2910 C 0.19952 0.66719 0.58929 0.0
C2911 C 0.22361 0.68971 0.65819 0.0
H2912 H 0.19363 0.62374 0.66191 0.0
H2913 H 0.25327 0.62495 0.63804 0.0
H2914 H 0.17943 0.66885 0.65429 0.0
H2915 H 0.1736 0.66254 0.62891 0.0
H2916 H 0.1681 0.64507 0.64879 0.0
H2917 H 0.26316 0.64828 0.61347 0.0
H2918 H 0.2445 0.66332 0.60105 0.0
H2919 H 0.25543 0.67188 0.62394 0.0
H2920 H 0.20262 0.70682 0.58202 0.0
H2921 H 0.22202 0.72567 0.64035 0.0
H2922 H 0.18978 0.65593 0.59664 0.0
H2923 H 0.21304 0.65929 0.58382 0.0
H2924 H 0.1915 0.67349 0.57616 0.0
H2925 H 0.21219 0.68058 0.66602 0.0
H2926 H 0.22624 0.70356 0.66699 0.0
H2927 H 0.23769 0.68091 0.65793 0.0
C2928 C 0.15992 0.39249 0.28961 0.0
C2929 C 0.17795 0.38179 0.28871 0.0
C2930 C 0.14262 0.38527 0.28003 0.0
C2931 C 0.14346 0.36686 0.26958 0.0
C2932 C 0.16178 0.35626 0.26837 0.0
C2933 C 0.17875 0.36389 0.27788 0.0
C2934 C 0.12344 0.39705 0.28158 0.0
C2935 C 0.16343 0.33657 0.25734 0.0
C2936 C 0.10348 0.32872 0.26112 0.0
C2937 C 0.1026 0.3289 0.24017 0.0
C2938 C 0.11477 0.34302 0.27147 0.0
C2939 C 0.12535 0.35773 0.26052 0.0
C2940 C 0.12193 0.35978 0.23972 0.0
C2941 C 0.11056 0.34524 0.22971 0.0
C2942 C 0.11758 0.34062 0.29374 0.0
C2943 C 0.1324 0.37571 0.22763 0.0
H2944 H 0.15928 0.40639 0.29794 0.0
H2945 H 0.19266 0.35559 0.27705 0.0
H2946 H 0.11508 0.39683 0.26724 0.0
H2947 H 0.11374 0.39019 0.29316 0.0
H2948 H 0.12627 0.41285 0.2859 0.0
H2949 H 0.17888 0.33045 0.25755 0.0
H2950 H 0.15329 0.32536 0.26422 0.0
H2951 H 0.15878 0.33848 0.24152 0.0
H2952 H 0.09695 0.31634 0.26932 0.0
H2953 H 0.10962 0.34566 0.21352 0.0
H2954 H 0.11781 0.35538 0.3013 0.0
H2955 H 0.13216 0.33322 0.29665 0.0
H2956 H 0.10557 0.3313 0.30049 0.0
H2957 H 0.13305 0.39004 0.23597 0.0
H2958 H 0.12482 0.37827 0.21306 0.0
H2959 H 0.14799 0.3709 0.2246 0.0
C2960 C 0.64157 0.12299 0.19611 0.0
C2961 C 0.65958 0.12327 0.20686 0.0
C2962 C 0.62486 0.13375 0.20298 0.0
C2963 C 0.62659 0.14542 0.22057 0.0
C2964 C 0.64398 0.14378 0.23257 0.0
C2965 C 0.66016 0.13247 0.22568 0.0
C2966 C 0.60607 0.134 0.1905 0.0
C2967 C 0.6465 0.15583 0.25154 0.0
C2968 C 0.60861 0.19853 0.22321 0.0
C2969 C 0.59593 0.19767 0.23985 0.0
C2970 C 0.61733 0.18117 0.21548 0.0
C2971 C 0.61279 0.16242 0.22429 0.0
C2972 C 0.59795 0.16123 0.23934 0.0
C2973 C 0.58988 0.17898 0.24722 0.0
C2974 C 0.63306 0.18323 0.19936 0.0
C2975 C 0.59175 0.14146 0.24827 0.0
H2976 H 0.64089 0.11552 0.18173 0.0
H2977 H 0.67391 0.13236 0.23427 0.0
H2978 H 0.59257 0.13595 0.19996 0.0
H2979 H 0.60672 0.14666 0.17979 0.0
H2980 H 0.60454 0.11998 0.18171 0.0
H2981 H 0.66036 0.15178 0.25979 0.0
H2982 H 0.64717 0.172 0.24781 0.0
H2983 H 0.63356 0.15354 0.26162 0.0
H2984 H 0.61308 0.21294 0.21724 0.0
H2985 H 0.57974 0.17821 0.25985 0.0
H2986 H 0.62992 0.17283 0.18684 0.0
H2987 H 0.64795 0.17926 0.20557 0.0
H2988 H 0.63389 0.19868 0.19327 0.0
H2989 H 0.59304 0.12912 0.23725 0.0
H2990 H 0.57611 0.14212 0.25384 0.0
H2991 H 0.60155 0.13793 0.26119 0.0
C2992 C 0.79257 0.63162 0.33261 0.0
C2993 C 0.77739 0.63548 0.31864 0.0
C2994 C 0.80883 0.6447 0.33473 0.0
C2995 C 0.81008 0.66178 0.3223 0.0
C2996 C 0.79491 0.66559 0.30799 0.0
C2997 C 0.77863 0.65246 0.30646 0.0
C2998 C 0.82454 0.64038 0.35038 0.0
C2999 C 0.79589 0.68351 0.29426 0.0
C3000 C 0.8423 0.70703 0.33385 0.0
C3001 C 0.85857 0.70378 0.32102 0.0
C3002 C 0.82684 0.69286 0.33538 0.0
C3003 C 0.82764 0.67529 0.32354 0.0
C3004 C 0.84458 0.67146 0.31148 0.0
C3005 C 0.85992 0.68566 0.31053 0.0
C3006 C 0.80917 0.69717 0.34877 0.0
C3007 C 0.84589 0.653 0.2985 0.0
H3008 H 0.79144 0.61868 0.34233 0.0
H3009 H 0.76683 0.65552 0.29576 0.0
H3010 H 0.83929 0.63814 0.34314 0.0
H3011 H 0.82603 0.65335 0.36063 0.0
H3012 H 0.82094 0.62687 0.35938 0.0
H3013 H 0.78301 0.68416 0.28378 0.0
H3014 H 0.79613 0.69749 0.3032 0.0
H3015 H 0.80992 0.68308 0.2854 0.0
H3016 H 0.84123 0.72099 0.34204 0.0
H3017 H 0.87248 0.68302 0.30061 0.0
H3018 H 0.80537 0.68383 0.3579 0.0
H3019 H 0.79589 0.70072 0.33947 0.0
H3020 H 0.81203 0.71 0.35895 0.0
H3021 H 0.843 0.63935 0.30747 0.0
H3022 H 0.86073 0.65149 0.29118 0.0
H3023 H 0.83424 0.65371 0.28668 0.0
C3024 C 0.37759 0.84653 0.27315 0.0
C3025 C 0.36653 0.82978 0.26699 0.0
C3026 C 0.37052 0.86604 0.26956 0.0
C3027 C 0.35192 0.86869 0.25976 0.0
C3028 C 0.34072 0.85175 0.25363 0.0
C3029 C 0.34816 0.83258 0.25734 0.0
C3030 C 0.38281 0.88367 0.27646 0.0
C3031 C 0.32081 0.85379 0.24303 0.0
C3032 C 0.3146 0.91003 0.26077 0.0
C3033 C 0.31492 0.91544 0.2405 0.0
C3034 C 0.32889 0.89678 0.26849 0.0
C3035 C 0.34365 0.88888 0.25556 0.0
C3036 C 0.3461 0.89715 0.23622 0.0
C3037 C 0.33163 0.91044 0.22886 0.0
C3038 C 0.32626 0.88895 0.28949 0.0
C3039 C 0.36214 0.88969 0.22221 0.0
H3040 H 0.3918 0.84441 0.28067 0.0
H3041 H 0.33955 0.8197 0.25253 0.0
H3042 H 0.38267 0.89588 0.26521 0.0
H3043 H 0.3763 0.8897 0.29047 0.0
H3044 H 0.39857 0.87937 0.27952 0.0
H3045 H 0.31406 0.83907 0.23929 0.0
H3046 H 0.31012 0.86214 0.25259 0.0
H3047 H 0.32272 0.86237 0.22895 0.0
H3048 H 0.30198 0.91433 0.27001 0.0
H3049 H 0.33223 0.91498 0.2133 0.0
H3050 H 0.34095 0.88629 0.29672 0.0
H3051 H 0.31817 0.87446 0.28894 0.0
H3052 H 0.31746 0.89948 0.29886 0.0
H3053 H 0.37631 0.88683 0.23036 0.0
H3054 H 0.36504 0.90054 0.20995 0.0
H3055 H 0.35719 0.87537 0.21541 0.0
C3056 C 0.12937 0.64891 0.78916 0.0
C3057 C 0.12682 0.66538 0.7764 0.0
C3058 C 0.142 0.633 0.78378 0.0
C3059 C 0.15242 0.63384 0.76537 0.0
C3060 C 0.1487 0.64974 0.75186 0.0
C3061 C 0.13587 0.66526 0.75752 0.0
C3062 C 0.14515 0.61604 0.79834 0.0
C3063 C 0.15942 0.65119 0.732 0.0
C3064 C 0.20506 0.61576 0.75758 0.0
C3065 C 0.20205 0.60079 0.74323 0.0
C3066 C 0.18879 0.62544 0.76651 0.0
C3067 C 0.1691 0.61985 0.76105 0.0
C3068 C 0.16603 0.60315 0.74841 0.0
C3069 C 0.18261 0.59383 0.73953 0.0
C3070 C 0.19274 0.64305 0.78011 0.0
C3071 C 0.14526 0.59634 0.74277 0.0
H3072 H 0.12226 0.64886 0.80374 0.0
H3073 H 0.13377 0.67785 0.74751 0.0
H3074 H 0.14647 0.60152 0.7904 0.0
H3075 H 0.15928 0.61852 0.80668 0.0
H3076 H 0.13275 0.61504 0.80935 0.0
H3077 H 0.15381 0.66375 0.72268 0.0
H3078 H 0.17567 0.65345 0.7346 0.0
H3079 H 0.15766 0.63709 0.72344 0.0
H3080 H 0.22009 0.62099 0.76072 0.0
H3081 H 0.18022 0.58206 0.72863 0.0
H3082 H 0.18321 0.64225 0.79365 0.0
H3083 H 0.18895 0.65712 0.77213 0.0
H3084 H 0.20865 0.64385 0.78485 0.0
H3085 H 0.13501 0.59712 0.75579 0.0
H3086 H 0.14532 0.58079 0.73688 0.0
H3087 H 0.13922 0.60633 0.73097 0.0
C3088 C 0.40681 0.1555 0.71675 0.0
C3089 C 0.40034 0.17414 0.72388 0.0
C3090 C 0.39815 0.13768 0.72387 0.0
C3091 C 0.38225 0.13874 0.73784 0.0
C3092 C 0.37678 0.15749 0.7461 0.0
C3093 C 0.38613 0.17488 0.73923 0.0
C3094 C 0.40531 0.11801 0.71548 0.0
C3095 C 0.35982 0.15951 0.76095 0.0
C3096 C 0.33525 0.1087 0.73671 0.0
C3097 C 0.335 0.1016 0.75643 0.0
C3098 C 0.35199 0.11879 0.72921 0.0
C3099 C 0.36895 0.12134 0.74163 0.0
C3100 C 0.37002 0.11104 0.7601 0.0
C3101 C 0.35282 0.10148 0.76751 0.0
C3102 C 0.35038 0.12904 0.70914 0.0
C3103 C 0.3885 0.11203 0.77298 0.0
H3104 H 0.41806 0.15483 0.70509 0.0
H3105 H 0.38125 0.18924 0.74498 0.0
H3106 H 0.40184 0.10527 0.72554 0.0
H3107 H 0.39801 0.11532 0.70082 0.0
H3108 H 0.42171 0.11845 0.71284 0.0
H3109 H 0.35766 0.17518 0.76603 0.0
H3110 H 0.34565 0.15426 0.75406 0.0
H3111 H 0.3627 0.15009 0.77428 0.0
H3112 H 0.32167 0.10829 0.72785 0.0
H3113 H 0.3529 0.09548 0.78258 0.0
H3114 H 0.36394 0.12617 0.70006 0.0
H3115 H 0.3492 0.14546 0.71138 0.0
H3116 H 0.33708 0.12396 0.70055 0.0
H3117 H 0.40223 0.11221 0.76364 0.0
H3118 H 0.38922 0.09916 0.78348 0.0
H3119 H 0.38825 0.12598 0.78196 0.0
C3120 C 0.84391 0.39984 0.73479 0.0
C3121 C 0.82628 0.39932 0.74615 0.0
C3122 C 0.86107 0.38962 0.74133 0.0
C3123 C 0.86012 0.37825 0.75916 0.0
C3124 C 0.8436 0.38068 0.77218 0.0
C3125 C 0.82689 0.39144 0.76558 0.0
C3126 C 0.87921 0.38886 0.72797 0.0
C3127 C 0.84225 0.36945 0.79173 0.0
C3128 C 0.87468 0.32391 0.75657 0.0
C3129 C 0.88959 0.3227 0.77122 0.0
C3130 C 0.86584 0.3422 0.75166 0.0
C3131 C 0.87254 0.35993 0.76121 0.0
C3132 C 0.889 0.35908 0.77454 0.0
C3133 C 0.89715 0.34036 0.77967 0.0
C3134 C 0.84827 0.3422 0.73737 0.0
C3135 C 0.89742 0.3776 0.78428 0.0
H3136 H 0.84377 0.4065 0.72 0.0
H3137 H 0.8135 0.39158 0.77472 0.0
H3138 H 0.89313 0.38767 0.73696 0.0
H3139 H 0.87828 0.37553 0.71814 0.0
H3140 H 0.8801 0.40235 0.71829 0.0
H3141 H 0.82952 0.37466 0.80106 0.0
H3142 H 0.84022 0.35324 0.78868 0.0
H3143 H 0.85625 0.37123 0.80042 0.0
H3144 H 0.86894 0.31033 0.7498 0.0
H3145 H 0.90892 0.33954 0.79081 0.0
H3146 H 0.85129 0.3523 0.72457 0.0
H3147 H 0.83468 0.34781 0.74509 0.0
H3148 H 0.84496 0.32707 0.73135 0.0
H3149 H 0.89376 0.39141 0.77582 0.0
H3150 H 0.91394 0.3764 0.78568 0.0
H3151 H 0.89128 0.37899 0.79964 0.0
C3152 C 0.70348 0.88485 0.80309 0.0
C3153 C 0.72093 0.88607 0.79151 0.0
C3154 C 0.68646 0.87488 0.79587 0.0
C3155 C 0.68706 0.86583 0.77675 0.0
C3156 C 0.7043 0.86791 0.76463 0.0
C3157 C 0.72101 0.87808 0.77214 0.0
C3158 C 0.66822 0.87322 0.80907 0.0
C3159 C 0.70551 0.85847 0.74413 0.0
C3160 C 0.65693 0.81926 0.76541 0.0
C3161 C 0.64233 0.82675 0.75238 0.0
C3162 C 0.67107 0.83201 0.77418 0.0
C3163 C 0.67045 0.85276 0.76993 0.0
C3164 C 0.65501 0.86057 0.75772 0.0
C3165 C 0.64117 0.84743 0.74899 0.0
C3166 C 0.68734 0.82312 0.78711 0.0
C3167 C 0.65371 0.88264 0.7531 0.0
H3168 H 0.70334 0.89108 0.81805 0.0
H3169 H 0.73444 0.87904 0.76311 0.0
H3170 H 0.65451 0.87705 0.80054 0.0
H3171 H 0.66658 0.85756 0.81432 0.0
H3172 H 0.66921 0.88314 0.82237 0.0
H3173 H 0.71948 0.86256 0.73612 0.0
H3174 H 0.70492 0.84194 0.74558 0.0
H3175 H 0.69255 0.86309 0.73487 0.0
H3176 H 0.65786 0.80329 0.76811 0.0
H3177 H 0.62981 0.8533 0.73902 0.0
H3178 H 0.68822 0.83113 0.80161 0.0
H3179 H 0.70202 0.82491 0.77957 0.0
H3180 H 0.68488 0.80695 0.79011 0.0
H3181 H 0.65505 0.89158 0.76702 0.0
H3182 H 0.63945 0.88661 0.74553 0.0
H3183 H 0.66629 0.88699 0.7432 0.0
C3184 C 0.26527 0.15375 0.41712 0.0
C3185 C 0.27945 0.16455 0.40612 0.0
C3186 C 0.25702 0.13601 0.40941 0.0
C3187 C 0.26201 0.12998 0.38969 0.0
C3188 C 0.27751 0.1401 0.37929 0.0
C3189 C 0.28647 0.15688 0.38799 0.0
C3190 C 0.24215 0.12468 0.42202 0.0
C3191 C 0.28329 0.13465 0.3581 0.0
C3192 C 0.24683 0.08871 0.35464 0.0
C3193 C 0.23062 0.09787 0.34503 0.0
C3194 C 0.25546 0.09747 0.37169 0.0
C3195 C 0.24861 0.11647 0.37814 0.0
C3196 C 0.23096 0.12464 0.36963 0.0
C3197 C 0.22185 0.11484 0.35355 0.0
C3198 C 0.27275 0.08698 0.38167 0.0
C3199 C 0.22289 0.14482 0.3759 0.0
H3200 H 0.26008 0.15955 0.43135 0.0
H3201 H 0.29748 0.16529 0.37953 0.0
H3202 H 0.22836 0.13373 0.42387 0.0
H3203 H 0.23818 0.1099 0.41558 0.0
H3204 H 0.24841 0.12232 0.43723 0.0
H3205 H 0.29412 0.1454 0.35151 0.0
H3206 H 0.29026 0.11963 0.35789 0.0
H3207 H 0.26986 0.13418 0.34834 0.0
H3208 H 0.25335 0.07527 0.34831 0.0
H3209 H 0.20916 0.1218 0.3462 0.0
H3210 H 0.27656 0.0936 0.39641 0.0
H3211 H 0.28608 0.08755 0.37181 0.0
H3212 H 0.26905 0.07092 0.38385 0.0
H3213 H 0.2178 0.14415 0.39164 0.0
H3214 H 0.21004 0.1497 0.36655 0.0
H3215 H 0.23476 0.15639 0.37486 0.0
C3216 C 0.86589 0.25427 0.32658 0.0
C3217 C 0.8778 0.23713 0.32494 0.0
C3218 C 0.85531 0.25834 0.34415 0.0
C3219 C 0.85708 0.24517 0.36068 0.0
C3220 C 0.8707 0.22898 0.35982 0.0
C3221 C 0.88073 0.22496 0.34179 0.0
C3222 C 0.84095 0.27583 0.34434 0.0
C3223 C 0.87377 0.21512 0.37736 0.0
C3224 C 0.8285 0.26877 0.4028 0.0
C3225 C 0.80932 0.26125 0.39877 0.0
C3226 C 0.8452 0.26158 0.39231 0.0
C3227 C 0.84241 0.24699 0.37724 0.0
C3228 C 0.82358 0.2375 0.37517 0.0
C3229 C 0.80726 0.24464 0.38616 0.0
C3230 C 0.86534 0.27113 0.39581 0.0
C3231 C 0.82 0.22161 0.35951 0.0
H3232 H 0.86374 0.26385 0.31367 0.0
H3233 H 0.89017 0.21181 0.34067 0.0
H3234 H 0.82537 0.27026 0.34576 0.0
H3235 H 0.84397 0.28563 0.35736 0.0
H3236 H 0.84197 0.28502 0.33052 0.0
H3237 H 0.88902 0.20851 0.37712 0.0
H3238 H 0.87153 0.22294 0.39183 0.0
H3239 H 0.86286 0.20264 0.37647 0.0
H3240 H 0.83026 0.28132 0.41292 0.0
H3241 H 0.79253 0.23847 0.38332 0.0
H3242 H 0.86775 0.28317 0.38464 0.0
H3243 H 0.87756 0.26003 0.39406 0.0
H3244 H 0.86629 0.27788 0.41097 0.0
H3245 H 0.82048 0.22855 0.34442 0.0
H3246 H 0.80526 0.21417 0.3614 0.0
H3247 H 0.83187 0.21006 0.36011 0.0
C3248 C 0.77786 0.90147 0.31085 0.0
C3249 C 0.76867 0.89936 0.29209 0.0
C3250 C 0.77299 0.88861 0.32672 0.0
C3251 C 0.75865 0.87335 0.32365 0.0
C3252 C 0.74819 0.87225 0.30525 0.0
C3253 C 0.75333 0.8853 0.28968 0.0
C3254 C 0.78427 0.89043 0.3462 0.0
C3255 C 0.73264 0.85629 0.30145 0.0
C3256 C 0.76304 0.82252 0.34793 0.0
C3257 C 0.74681 0.82277 0.36116 0.0
C3258 C 0.7679 0.83944 0.33655 0.0
C3259 C 0.75621 0.857 0.33849 0.0
C3260 C 0.74081 0.85785 0.35297 0.0
C3261 C 0.73626 0.84066 0.36416 0.0
C3262 C 0.78465 0.83802 0.32144 0.0
C3263 C 0.72826 0.87641 0.3557 0.0
H3264 H 0.78971 0.91237 0.31281 0.0
H3265 H 0.7461 0.8837 0.27525 0.0
H3266 H 0.77409 0.88844 0.35915 0.0
H3267 H 0.79578 0.87849 0.34701 0.0
H3268 H 0.7919 0.90513 0.34756 0.0
H3269 H 0.72454 0.8587 0.28714 0.0
H3270 H 0.73999 0.84142 0.30089 0.0
H3271 H 0.72158 0.85591 0.31381 0.0
H3272 H 0.77135 0.80877 0.34569 0.0
H3273 H 0.72376 0.84097 0.37448 0.0
H3274 H 0.79494 0.85096 0.32294 0.0
H3275 H 0.77832 0.83846 0.30609 0.0
H3276 H 0.79345 0.82402 0.3231 0.0
H3277 H 0.73782 0.88998 0.35602 0.0
H3278 H 0.71929 0.87583 0.36968 0.0
H3279 H 0.71785 0.87796 0.34287 0.0
C3280 C 0.20363 0.68086 0.3527 0.0
C3281 C 0.2238 0.68654 0.35222 0.0
C3282 C 0.18907 0.69217 0.34273 0.0
C3283 C 0.19487 0.70958 0.33216 0.0
C3284 C 0.21537 0.71466 0.33062 0.0
C3285 C 0.22963 0.70302 0.34066 0.0
C3286 C 0.16737 0.68614 0.34451 0.0
C3287 C 0.22213 0.73305 0.31936 0.0
C3288 C 0.1575 0.73521 0.29796 0.0
C3289 C 0.15029 0.75048 0.31041 0.0
C3290 C 0.17201 0.72169 0.30481 0.0
C3291 C 0.17942 0.72355 0.32454 0.0
C3292 C 0.17214 0.73891 0.33718 0.0
C3293 C 0.15765 0.7522 0.32994 0.0
C3294 C 0.17947 0.70549 0.29095 0.0
C3295 C 0.1797 0.74135 0.35834 0.0
H3296 H 0.19912 0.66797 0.36145 0.0
H3297 H 0.24525 0.70737 0.34016 0.0
H3298 H 0.15938 0.69707 0.35411 0.0
H3299 H 0.16004 0.68632 0.32962 0.0
H3300 H 0.1656 0.67101 0.35115 0.0
H3301 H 0.23866 0.73367 0.31772 0.0
H3302 H 0.21525 0.73349 0.30427 0.0
H3303 H 0.21715 0.74665 0.32748 0.0
H3304 H 0.15183 0.73386 0.28281 0.0
H3305 H 0.15213 0.76398 0.3396 0.0
H3306 H 0.17689 0.69056 0.29775 0.0
H3307 H 0.19584 0.70708 0.28871 0.0
H3308 H 0.172 0.70594 0.27611 0.0
H3309 H 0.17691 0.72745 0.36699 0.0
H3310 H 0.17244 0.75404 0.36623 0.0
H3311 H 0.1961 0.74389 0.35823 0.0
C3312 C 0.21356 0.84304 0.59719 0.0
C3313 C 0.20666 0.82465 0.60459 0.0
C3314 C 0.21106 0.8607 0.60828 0.0
C3315 C 0.20182 0.85974 0.62729 0.0
C3316 C 0.19314 0.84155 0.63387 0.0
C3317 C 0.19552 0.82425 0.62232 0.0
C3318 C 0.21979 0.87997 0.60039 0.0
C3319 C 0.18307 0.83985 0.65404 0.0
C3320 C 0.22045 0.88894 0.67172 0.0
C3321 C 0.20372 0.90074 0.67613 0.0
C3322 C 0.2207 0.87662 0.65478 0.0
C3323 C 0.20395 0.87644 0.64178 0.0
C3324 C 0.18807 0.89005 0.64493 0.0
C3325 C 0.18803 0.90195 0.66224 0.0
C3326 C 0.23803 0.86238 0.65195 0.0
C3327 C 0.17035 0.8909 0.63097 0.0
H3328 H 0.22198 0.84347 0.58334 0.0
H3329 H 0.18998 0.8101 0.62801 0.0
H3330 H 0.2102 0.89293 0.60433 0.0
H3331 H 0.23471 0.88245 0.60722 0.0
H3332 H 0.22168 0.87948 0.58389 0.0
H3333 H 0.17563 0.82513 0.65615 0.0
H3334 H 0.19437 0.84178 0.66605 0.0
H3335 H 0.17173 0.85181 0.65589 0.0
H3336 H 0.23271 0.88809 0.68231 0.0
H3337 H 0.17517 0.91128 0.66545 0.0
H3338 H 0.24364 0.86308 0.63637 0.0
H3339 H 0.23291 0.84682 0.65473 0.0
H3340 H 0.25063 0.86568 0.66227 0.0
H3341 H 0.17511 0.88908 0.61517 0.0
H3342 H 0.16207 0.90523 0.63249 0.0
H3343 H 0.15992 0.8785 0.63457 0.0
C3344 C 0.1816 0.25194 0.5968 0.0
C3345 C 0.18214 0.26998 0.58613 0.0
C3346 C 0.16556 0.24756 0.60954 0.0
C3347 C 0.14958 0.26136 0.61119 0.0
C3348 C 0.14853 0.27779 0.59789 0.0
C3349 C 0.16499 0.28206 0.58557 0.0
C3350 C 0.16711 0.22959 0.62317 0.0
C3351 C 0.13111 0.29211 0.59831 0.0
C3352 C 0.11153 0.24538 0.65008 0.0
C3353 C 0.11937 0.25463 0.66722 0.0
C3354 C 0.12009 0.24874 0.63118 0.0
C3355 C 0.13717 0.26115 0.62961 0.0
C3356 C 0.1442 0.2716 0.64669 0.0
C3357 C 0.13503 0.26838 0.66523 0.0
C3358 C 0.11156 0.23799 0.61327 0.0
C3359 C 0.16241 0.28501 0.64577 0.0
H3360 H 0.19464 0.24229 0.59694 0.0
H3361 H 0.16512 0.29581 0.57697 0.0
H3362 H 0.17051 0.23468 0.63861 0.0
H3363 H 0.15273 0.22136 0.62364 0.0
H3364 H 0.17907 0.21911 0.61835 0.0
H3365 H 0.12994 0.30066 0.5841 0.0
H3366 H 0.11685 0.28403 0.60096 0.0
H3367 H 0.1332 0.30295 0.6107 0.0
H3368 H 0.09925 0.23489 0.65153 0.0
H3369 H 0.14105 0.27567 0.67841 0.0
H3370 H 0.11906 0.22328 0.61162 0.0
H3371 H 0.11388 0.24659 0.59926 0.0
H3372 H 0.09529 0.23516 0.6152 0.0
H3373 H 0.17575 0.27607 0.64155 0.0
H3374 H 0.16552 0.29249 0.66028 0.0
H3375 H 0.16038 0.29671 0.63419 0.0
C3376 C 0.7428 0.1018 0.66363 0.0
C3377 C 0.75949 0.08966 0.66723 0.0
C3378 C 0.74093 0.11236 0.64566 0.0
C3379 C 0.75565 0.1099 0.63058 0.0
C3380 C 0.77055 0.09503 0.63289 0.0
C3381 C 0.77264 0.08539 0.65146 0.0
C3382 C 0.72463 0.12796 0.64397 0.0
C3383 C 0.78539 0.0905 0.61653 0.0
C3384 C 0.74124 0.146 0.59001 0.0
C3385 C 0.75148 0.16307 0.59666 0.0
C3386 C 0.74473 0.12728 0.59895 0.0
C3387 C 0.75795 0.12603 0.61544 0.0
C3388 C 0.77017 0.14268 0.62032 0.0
C3389 C 0.76706 0.1609 0.6105 0.0
C3390 C 0.73288 0.10943 0.59191 0.0
C3391 C 0.78471 0.14211 0.63765 0.0
H3392 H 0.73236 0.10484 0.67566 0.0
H3393 H 0.7853 0.07557 0.65399 0.0
H3394 H 0.73139 0.1431 0.64294 0.0
H3395 H 0.71573 0.12548 0.63021 0.0
H3396 H 0.71428 0.12774 0.65696 0.0
H3397 H 0.78893 0.07426 0.61631 0.0
H3398 H 0.77971 0.09497 0.60157 0.0
H3399 H 0.79957 0.09859 0.61948 0.0
H3400 H 0.72955 0.14746 0.57886 0.0
H3401 H 0.77535 0.17396 0.61536 0.0
H3402 H 0.71777 0.10975 0.59873 0.0
H3403 H 0.74026 0.09512 0.59602 0.0
H3404 H 0.73089 0.10994 0.57542 0.0
H3405 H 0.77648 0.13941 0.65182 0.0
H3406 H 0.79328 0.15626 0.63919 0.0
H3407 H 0.7955 0.1297 0.63566 0.0
C3408 C 0.82197 0.74609 0.59945 0.0
C3409 C 0.82058 0.72893 0.5875 0.0
C3410 C 0.83927 0.75009 0.61052 0.0
C3411 C 0.85579 0.7369 0.60912 0.0
C3412 C 0.8555 0.72127 0.59483 0.0
C3413 C 0.8377 0.71722 0.58438 0.0
C3414 C 0.8389 0.76706 0.62546 0.0
C3415 C 0.87331 0.70776 0.59187 0.0
C3416 C 0.89676 0.75476 0.64385 0.0
C3417 C 0.89146 0.74461 0.66143 0.0
C3418 C 0.88678 0.7508 0.62575 0.0
C3419 C 0.87078 0.7369 0.62556 0.0
C3420 C 0.86674 0.72534 0.64286 0.0
C3421 C 0.87736 0.72913 0.66047 0.0
C3422 C 0.89242 0.76257 0.60735 0.0
C3423 C 0.84978 0.71037 0.64346 0.0
H3424 H 0.80889 0.75544 0.60163 0.0
H3425 H 0.83686 0.70416 0.5748 0.0
H3426 H 0.83881 0.76087 0.64088 0.0
H3427 H 0.85247 0.77645 0.62391 0.0
H3428 H 0.82554 0.77677 0.62363 0.0
H3429 H 0.87315 0.70085 0.57675 0.0
H3430 H 0.88754 0.71608 0.59387 0.0
H3431 H 0.87291 0.69553 0.60307 0.0
H3432 H 0.90792 0.76653 0.64442 0.0
H3433 H 0.87342 0.72101 0.67395 0.0
H3434 H 0.88379 0.77674 0.60701 0.0
H3435 H 0.88912 0.75414 0.59343 0.0
H3436 H 0.90856 0.76652 0.60757 0.0
H3437 H 0.83531 0.71826 0.64148 0.0
H3438 H 0.84925 0.70198 0.65781 0.0
H3439 H 0.85126 0.69944 0.63109 0.0
C3440 C 0.30342 0.22504 0.13165 0.0
C3441 C 0.30436 0.21211 0.11521 0.0
C3442 C 0.32023 0.23574 0.13794 0.0
C3443 C 0.33851 0.23358 0.12745 0.0
C3444 C 0.33941 0.22118 0.1103 0.0
C3445 C 0.32228 0.21044 0.10443 0.0
C3446 C 0.31852 0.24884 0.15632 0.0
C3447 C 0.35852 0.21866 0.09857 0.0
C3448 C 0.37154 0.27513 0.14549 0.0
C3449 C 0.3795 0.26609 0.16265 0.0
C3450 C 0.36012 0.26392 0.13187 0.0
C3451 C 0.35664 0.24338 0.13573 0.0
C3452 C 0.36718 0.23373 0.15135 0.0
C3453 C 0.37853 0.24524 0.16467 0.0
C3454 C 0.34978 0.27457 0.11489 0.0
C3455 C 0.36431 0.21175 0.1557 0.0
H3456 H 0.28958 0.22651 0.13996 0.0
H3457 H 0.32303 0.2005 0.09164 0.0
H3458 H 0.32866 0.24323 0.16821 0.0
H3459 H 0.32312 0.26437 0.15272 0.0
H3460 H 0.30306 0.24924 0.1624 0.0
H3461 H 0.35551 0.21329 0.08312 0.0
H3462 H 0.36704 0.23288 0.09775 0.0
H3463 H 0.36811 0.20742 0.10612 0.0
H3464 H 0.37256 0.29121 0.14366 0.0
H3465 H 0.38509 0.23812 0.17769 0.0
H3466 H 0.33419 0.27815 0.11935 0.0
H3467 H 0.34909 0.26495 0.10138 0.0
H3468 H 0.35746 0.28879 0.11102 0.0
H3469 H 0.34958 0.20951 0.16303 0.0
H3470 H 0.37612 0.20586 0.1658 0.0
H3471 H 0.36435 0.20292 0.14167 0.0
C3472 C 0.36444 0.78909 0.81197 0.0
C3473 C 0.38135 0.77736 0.80816 0.0
C3474 C 0.35745 0.79182 0.8315 0.0
C3475 C 0.36795 0.783 0.84769 0.0
C3476 C 0.38602 0.77257 0.84407 0.0
C3477 C 0.39236 0.76959 0.82425 0.0
C3478 C 0.33802 0.80299 0.8346 0.0
C3479 C 0.39811 0.76362 0.86089 0.0
C3480 C 0.34453 0.80298 0.89463 0.0
C3481 C 0.32908 0.78901 0.89716 0.0
C3482 C 0.35939 0.79994 0.8801 0.0
C3483 C 0.35835 0.78281 0.86771 0.0
C3484 C 0.34447 0.76745 0.87219 0.0
C3485 C 0.3301 0.77066 0.88707 0.0
C3486 C 0.37477 0.81605 0.87656 0.0
C3487 C 0.34305 0.74876 0.85958 0.0
H3488 H 0.35594 0.79519 0.79958 0.0
H3489 H 0.4056 0.76068 0.82136 0.0
H3490 H 0.32662 0.79273 0.84097 0.0
H3491 H 0.34018 0.81539 0.8454 0.0
H3492 H 0.33203 0.80935 0.82046 0.0
H3493 H 0.41416 0.76246 0.85675 0.0
H3494 H 0.3968 0.77255 0.87482 0.0
H3495 H 0.3926 0.74829 0.86405 0.0
H3496 H 0.34409 0.81702 0.90273 0.0
H3497 H 0.31845 0.7596 0.8893 0.0
H3498 H 0.36977 0.82581 0.86409 0.0
H3499 H 0.38939 0.80944 0.87227 0.0
H3500 H 0.37686 0.82554 0.89004 0.0
H3501 H 0.33688 0.75266 0.84465 0.0
H3502 H 0.3332 0.73729 0.86648 0.0
H3503 H 0.35806 0.74214 0.85724 0.0
C3504 C 0.22191 0.3327 0.90936 0.0
C3505 C 0.23213 0.31458 0.90659 0.0
C3506 C 0.22736 0.34984 0.89844 0.0
C3507 C 0.24293 0.34848 0.88416 0.0
C3508 C 0.25471 0.3309 0.88314 0.0
C3509 C 0.24932 0.31426 0.89461 0.0
C3510 C 0.21529 0.36873 0.90093 0.0
C3511 C 0.27156 0.32875 0.86822 0.0
C3512 C 0.23799 0.36934 0.83223 0.0
C3513 C 0.25483 0.38178 0.83126 0.0
C3514 C 0.23276 0.35973 0.85007 0.0
C3515 C 0.24435 0.36313 0.8675 0.0
C3516 C 0.25969 0.37772 0.86721 0.0
C3517 C 0.26502 0.38667 0.84894 0.0
C3518 C 0.21622 0.3443 0.84962 0.0
C3519 C 0.27157 0.38273 0.88573 0.0
H3520 H 0.20882 0.33316 0.91892 0.0
H3521 H 0.25754 0.3004 0.89275 0.0
H3522 H 0.22455 0.38223 0.89814 0.0
H3523 H 0.20276 0.36874 0.89006 0.0
H3524 H 0.20879 0.36968 0.91619 0.0
H3525 H 0.28008 0.31464 0.87033 0.0
H3526 H 0.26537 0.32887 0.8528 0.0
H3527 H 0.2821 0.34148 0.86949 0.0
H3528 H 0.22986 0.36574 0.81866 0.0
H3529 H 0.27782 0.3966 0.84834 0.0
H3530 H 0.20546 0.34697 0.86193 0.0
H3531 H 0.22268 0.32915 0.85181 0.0
H3532 H 0.20788 0.3444 0.83524 0.0
H3533 H 0.26238 0.38112 0.89946 0.0
H3534 H 0.2775 0.39824 0.88498 0.0
H3535 H 0.28451 0.37242 0.88694 0.0
C3536 C 0.62391 0.21065 0.83366 0.0
C3537 C 0.6152 0.22971 0.83398 0.0
C3538 C 0.63512 0.20371 0.84994 0.0
C3539 C 0.63736 0.21606 0.867 0.0
C3540 C 0.62602 0.23387 0.86857 0.0
C3541 C 0.61516 0.24064 0.85189 0.0
C3542 C 0.64665 0.18441 0.84775 0.0
C3543 C 0.62711 0.24686 0.88698 0.0
C3544 C 0.6722 0.19306 0.90554 0.0
C3545 C 0.69066 0.2006 0.89898 0.0
C3546 C 0.65424 0.19921 0.89644 0.0
C3547 C 0.65495 0.21283 0.88022 0.0
C3548 C 0.67345 0.22155 0.87463 0.0
C3549 C 0.691 0.21545 0.88421 0.0
C3550 C 0.63479 0.19016 0.90341 0.0
C3551 C 0.675 0.23621 0.85745 0.0
H3552 H 0.62361 0.20191 0.81999 0.0
H3553 H 0.60808 0.25522 0.85238 0.0
H3554 H 0.66273 0.18784 0.84543 0.0
H3555 H 0.6454 0.17525 0.86151 0.0
H3556 H 0.64131 0.17538 0.83485 0.0
H3557 H 0.61389 0.25687 0.88811 0.0
H3558 H 0.62809 0.2376 0.90073 0.0
H3559 H 0.64071 0.25633 0.88624 0.0
H3560 H 0.67182 0.18172 0.91713 0.0
H3561 H 0.7052 0.22154 0.87927 0.0
H3562 H 0.63169 0.1764 0.89466 0.0
H3563 H 0.62206 0.2006 0.90128 0.0
H3564 H 0.63561 0.18587 0.91945 0.0
H3565 H 0.67058 0.22873 0.8433 0.0
H3566 H 0.69039 0.24221 0.85562 0.0
H3567 H 0.66467 0.24896 0.8598 0.0
C3568 C 0.7162 0.6112 0.78874 0.0
C3569 C 0.70071 0.59711 0.78931 0.0
C3570 C 0.72368 0.61969 0.80634 0.0
C3571 C 0.71562 0.61376 0.82502 0.0
C3572 C 0.70076 0.5987 0.82579 0.0
C3573 C 0.69335 0.59061 0.80786 0.0
C3574 C 0.73955 0.63573 0.80485 0.0
C3575 C 0.69211 0.59174 0.84545 0.0
C3576 C 0.74816 0.63234 0.86723 0.0
C3577 C 0.73934 0.65098 0.87108 0.0
C3578 C 0.73952 0.61901 0.85353 0.0
C3579 C 0.72184 0.62464 0.84334 0.0
C3580 C 0.71193 0.64261 0.84858 0.0
C3581 C 0.72076 0.65553 0.86252 0.0
C3582 C 0.75024 0.59973 0.84871 0.0
C3583 C 0.69302 0.64914 0.83808 0.0
H3584 H 0.72199 0.61621 0.77444 0.0
H3585 H 0.68143 0.57963 0.80836 0.0
H3586 H 0.73353 0.65012 0.81054 0.0
H3587 H 0.75263 0.63176 0.81426 0.0
H3588 H 0.74479 0.63803 0.78925 0.0
H3589 H 0.68309 0.57788 0.84373 0.0
H3590 H 0.70418 0.58895 0.8565 0.0
H3591 H 0.68232 0.6036 0.85168 0.0
H3592 H 0.76241 0.62865 0.87403 0.0
H3593 H 0.71381 0.66986 0.86557 0.0
H3594 H 0.75836 0.60141 0.83433 0.0
H3595 H 0.73945 0.58724 0.84695 0.0
H3596 H 0.76126 0.5957 0.86048 0.0
H3597 H 0.69662 0.65352 0.82247 0.0
H3598 H 0.68584 0.66209 0.84563 0.0
H3599 H 0.6821 0.63667 0.83736 0.0
C3600 C 0.71341 0.71374 0.12835 0.0
C3601 C 0.7193 0.72314 0.11059 0.0
C3602 C 0.69319 0.71261 0.13368 0.0
C3603 C 0.67853 0.72075 0.12071 0.0
C3604 C 0.68426 0.72842 0.10184 0.0
C3605 C 0.70467 0.72974 0.09707 0.0
C3606 C 0.68773 0.70431 0.15399 0.0
C3607 C 0.66902 0.73657 0.08731 0.0
C3608 C 0.62645 0.70992 0.13993 0.0
C3609 C 0.62326 0.72674 0.15205 0.0
C3610 C 0.64364 0.70846 0.12793 0.0
C3611 C 0.65799 0.72402 0.12847 0.0
C3612 C 0.65387 0.74178 0.13926 0.0
C3613 C 0.63644 0.74299 0.15077 0.0
C3614 C 0.64714 0.68964 0.116 0.0
C3615 C 0.66875 0.75878 0.14022 0.0
H3616 H 0.72466 0.70849 0.13879 0.0
H3617 H 0.70917 0.7368 0.08318 0.0
H3618 H 0.68221 0.71661 0.16368 0.0
H3619 H 0.67553 0.69317 0.15262 0.0
H3620 H 0.70067 0.69709 0.16153 0.0
H3621 H 0.67513 0.73742 0.07188 0.0
H3622 H 0.65532 0.72719 0.08718 0.0
H3623 H 0.66461 0.75187 0.09196 0.0
H3624 H 0.61616 0.6974 0.14069 0.0
H3625 H 0.63393 0.75613 0.15994 0.0
H3626 H 0.65743 0.67965 0.12436 0.0
H3627 H 0.65422 0.6931 0.10139 0.0
H3628 H 0.63297 0.68138 0.1133 0.0
H3629 H 0.68225 0.75384 0.14854 0.0
H3630 H 0.66252 0.77218 0.14782 0.0
H3631 H 0.6736 0.76315 0.12498 0.0
C3632 C 0.20699 0.62312 0.1772 0.0
C3633 C 0.22137 0.60793 0.17825 0.0
C3634 C 0.20478 0.63464 0.15986 0.0
C3635 C 0.21681 0.63041 0.14293 0.0
C3636 C 0.22942 0.6134 0.14306 0.0
C3637 C 0.23184 0.60251 0.16089 0.0
C3638 C 0.19112 0.65266 0.1605 0.0
C3639 C 0.24158 0.6076 0.12497 0.0
C3640 C 0.20237 0.6665 0.10203 0.0
C3641 C 0.21528 0.68245 0.10645 0.0
C3642 C 0.20424 0.64811 0.11207 0.0
C3643 C 0.21888 0.64603 0.12723 0.0
C3644 C 0.23331 0.6613 0.13001 0.0
C3645 C 0.2315 0.67921 0.11933 0.0
C3646 C 0.18944 0.63165 0.10769 0.0
C3647 C 0.2493 0.65975 0.14593 0.0
H3648 H 0.19867 0.62722 0.1905 0.0
H3649 H 0.24274 0.59051 0.16151 0.0
H3650 H 0.2002 0.66655 0.15974 0.0
H3651 H 0.18089 0.65266 0.14745 0.0
H3652 H 0.18196 0.65314 0.17435 0.0
H3653 H 0.24462 0.59126 0.12485 0.0
H3654 H 0.23389 0.61177 0.11086 0.0
H3655 H 0.2562 0.61544 0.12541 0.0
H3656 H 0.19002 0.66877 0.09176 0.0
H3657 H 0.24176 0.69136 0.12253 0.0
H3658 H 0.17657 0.63288 0.11809 0.0
H3659 H 0.19631 0.61668 0.10977 0.0
H3660 H 0.18359 0.63282 0.09217 0.0
H3661 H 0.24222 0.65979 0.16094 0.0
H3662 H 0.26014 0.67233 0.14522 0.0
H3663 H 0.25767 0.64553 0.14438 0.0
C3664 C 0.77973 0.37404 0.1545 0.0
C3665 C 0.76919 0.39204 0.1562 0.0
C3666 C 0.78481 0.36627 0.13575 0.0
C3667 C 0.77969 0.37709 0.11821 0.0
C3668 C 0.77054 0.39611 0.11991 0.0
C3669 C 0.76506 0.40323 0.13892 0.0
C3670 C 0.79447 0.34582 0.13474 0.0
C3671 C 0.76555 0.40856 0.10176 0.0
C3672 C 0.8051 0.35002 0.07626 0.0
C3673 C 0.79046 0.33557 0.07209 0.0
C3674 C 0.80092 0.36595 0.08931 0.0
C3675 C 0.7819 0.36701 0.09852 0.0
C3676 C 0.76629 0.3544 0.09175 0.0
C3677 C 0.77073 0.33893 0.07836 0.0
C3678 C 0.81753 0.38007 0.09511 0.0
C3679 C 0.74562 0.35532 0.10079 0.0
H3680 H 0.78301 0.36537 0.16782 0.0
H3681 H 0.75708 0.41729 0.14019 0.0
H3682 H 0.78448 0.33527 0.12668 0.0
H3683 H 0.80872 0.34663 0.12631 0.0
H3684 H 0.79765 0.33954 0.1498 0.0
H3685 H 0.76606 0.42478 0.10538 0.0
H3686 H 0.77592 0.40557 0.08915 0.0
H3687 H 0.75012 0.40503 0.09676 0.0
H3688 H 0.82029 0.34782 0.07105 0.0
H3689 H 0.75921 0.3281 0.07472 0.0
H3690 H 0.82461 0.37479 0.10916 0.0
H3691 H 0.81163 0.39536 0.0978 0.0
H3692 H 0.82926 0.38077 0.08335 0.0
H3693 H 0.74615 0.34948 0.11633 0.0
H3694 H 0.73464 0.3463 0.09217 0.0
H3695 H 0.74025 0.37099 0.10147 0.0
loop_
_geom_bond_atom_site_label_1
_geom_bond_atom_site_label_2
_geom_bond_distance
_geom_bond_site_symmetry_2
_ccdc_geom_bond_type
In0 O1 2.294 . S
In0 O2 2.326 . S
In0 O6 2.266 . S
In0 O7 2.326 . S
In0 O8 2.266 . S
In0 O9 2.326 . S
In0 O11 2.294 . S
In0 O12 2.326 . S
O1 In0 2.294 . S
O1 C10 1.240 . S
O2 In0 2.326 . S
O2 C10 1.252 . S
C3 O6 1.252 . S
C3 O7 1.260 . S
C4 O11 1.240 . S
C4 O12 1.252 . S
C5 O8 1.252 . S
C5 O9 1.260 . S
O6 In0 2.266 . S
O6 C3 1.252 . S
O7 In0 2.326 . S
O7 C3 1.260 . S
O8 In0 2.266 . S
O8 C5 1.252 . S
O9 In0 2.326 . S
O9 C5 1.260 . S
C10 O1 1.240 . S
C10 O2 1.252 . S
O11 In0 2.294 . S
O11 C4 1.240 . S
O12 In0 2.326 . S
O12 C4 1.252 . S
In13 O14 2.294 . S
In13 O15 2.326 . S
In13 O19 2.266 . S
In13 O20 2.326 . S
In13 O21 2.266 . S
In13 O22 2.326 . S
In13 O24 2.294 . S
In13 O25 2.326 . S
O14 In13 2.294 . S
O14 C23 1.240 . S
O15 In13 2.326 . S
O15 C23 1.252 . S
C16 O19 1.252 . S
C16 O20 1.260 . S
C17 O24 1.240 . S
C17 O25 1.252 . S
C18 O21 1.252 . S
C18 O22 1.260 . S
O19 In13 2.266 . S
O19 C16 1.252 . S
O20 In13 2.326 . S
O20 C16 1.260 . S
O21 In13 2.266 . S
O21 C18 1.252 . S
O22 In13 2.326 . S
O22 C18 1.260 . S
C23 O14 1.240 . S
C23 O15 1.252 . S
O24 In13 2.294 . S
O24 C17 1.240 . S
O25 In13 2.326 . S
O25 C17 1.252 . S
In26 O27 2.294 . S
In26 O28 2.326 . S
In26 O32 2.266 . S
In26 O33 2.326 . S
In26 O34 2.266 . S
In26 O35 2.326 . S
In26 O37 2.294 . S
In26 O38 2.326 . S
O27 In26 2.294 . S
O27 C36 1.240 . S
O28 In26 2.326 . S
O28 C36 1.252 . S
C29 O32 1.252 . S
C29 O33 1.260 . S
C30 O37 1.240 . S
C30 O38 1.252 . S
C31 O34 1.252 . S
C31 O35 1.260 . S
O32 In26 2.266 . S
O32 C29 1.252 . S
O33 In26 2.326 . S
O33 C29 1.260 . S
O34 In26 2.266 . S
O34 C31 1.252 . S
O35 In26 2.326 . S
O35 C31 1.260 . S
C36 O27 1.240 . S
C36 O28 1.252 . S
O37 In26 2.294 . S
O37 C30 1.240 . S
O38 In26 2.326 . S
O38 C30 1.252 . S
In39 O40 2.294 . S
In39 O41 2.326 . S
In39 O45 2.266 . S
In39 O46 2.326 . S
In39 O47 2.266 . S
In39 O48 2.326 . S
In39 O50 2.294 . S
In39 O51 2.326 . S
O40 In39 2.294 . S
O40 C49 1.240 . S
O41 In39 2.326 . S
O41 C49 1.252 . S
C42 O45 1.252 . S
C42 O46 1.260 . S
C43 O50 1.240 . S
C43 O51 1.252 . S
C44 O47 1.252 . S
C44 O48 1.260 . S
O45 In39 2.266 . S
O45 C42 1.252 . S
O46 In39 2.326 . S
O46 C42 1.260 . S
O47 In39 2.266 . S
O47 C44 1.252 . S
O48 In39 2.326 . S
O48 C44 1.260 . S
C49 O40 1.240 . S
C49 O41 1.252 . S
O50 In39 2.294 . S
O50 C43 1.240 . S
O51 In39 2.326 . S
O51 C43 1.252 . S
In52 O53 2.294 . S
In52 O54 2.326 . S
In52 O58 2.266 . S
In52 O59 2.326 . S
In52 O60 2.266 . S
In52 O61 2.326 . S
In52 O63 2.294 . S
In52 O64 2.326 . S
O53 In52 2.294 . S
O53 C62 1.240 . S
O54 In52 2.326 . S
O54 C62 1.252 . S
C55 O58 1.252 . S
C55 O59 1.260 . S
C56 O63 1.240 . S
C56 O64 1.252 . S
C57 O60 1.252 . S
C57 O61 1.260 . S
O58 In52 2.266 . S
O58 C55 1.252 . S
O59 In52 2.326 . S
O59 C55 1.260 . S
O60 In52 2.266 . S
O60 C57 1.252 . S
O61 In52 2.326 . S
O61 C57 1.260 . S
C62 O53 1.240 . S
C62 O54 1.252 . S
O63 In52 2.294 . S
O63 C56 1.240 . S
O64 In52 2.326 . S
O64 C56 1.252 . S
In65 O66 2.294 . S
In65 O67 2.326 . S
In65 O71 2.266 . S
In65 O72 2.326 . S
In65 O73 2.266 . S
In65 O74 2.326 . S
In65 O76 2.294 . S
In65 O77 2.326 . S
O66 In65 2.294 . S
O66 C75 1.240 . S
O67 In65 2.326 . S
O67 C75 1.252 . S
C68 O71 1.252 . S
C68 O72 1.260 . S
C69 O76 1.240 . S
C69 O77 1.252 . S
C70 O73 1.252 . S
C70 O74 1.260 . S
O71 In65 2.266 . S
O71 C68 1.252 . S
O72 In65 2.326 . S
O72 C68 1.260 . S
O73 In65 2.266 . S
O73 C70 1.252 . S
O74 In65 2.326 . S
O74 C70 1.260 . S
C75 O66 1.240 . S
C75 O67 1.252 . S
O76 In65 2.294 . S
O76 C69 1.240 . S
O77 In65 2.326 . S
O77 C69 1.252 . S
In78 O79 2.294 . S
In78 O80 2.326 . S
In78 O84 2.266 . S
In78 O85 2.326 . S
In78 O86 2.266 . S
In78 O87 2.326 . S
In78 O89 2.294 . S
In78 O90 2.326 . S
O79 In78 2.294 . S
O79 C88 1.240 . S
O80 In78 2.326 . S
O80 C88 1.252 . S
C81 O84 1.252 . S
C81 O85 1.260 . S
C82 O89 1.240 . S
C82 O90 1.252 . S
C83 O86 1.252 . S
C83 O87 1.260 . S
O84 In78 2.266 . S
O84 C81 1.252 . S
O85 In78 2.326 . S
O85 C81 1.260 . S
O86 In78 2.266 . S
O86 C83 1.252 . S
O87 In78 2.326 . S
O87 C83 1.260 . S
C88 O79 1.240 . S
C88 O80 1.252 . S
O89 In78 2.294 . S
O89 C82 1.240 . S
O90 In78 2.326 . S
O90 C82 1.252 . S
In91 O92 2.294 . S
In91 O93 2.326 . S
In91 O97 2.266 . S
In91 O98 2.326 . S
In91 O99 2.266 . S
In91 O100 2.326 . S
In91 O102 2.294 . S
In91 O103 2.326 . S
O92 In91 2.294 . S
O92 C101 1.240 . S
O93 In91 2.326 . S
O93 C101 1.252 . S
C94 O97 1.252 . S
C94 O98 1.260 . S
C95 O102 1.240 . S
C95 O103 1.252 . S
C96 O99 1.252 . S
C96 O100 1.260 . S
O97 In91 2.266 . S
O97 C94 1.252 . S
O98 In91 2.326 . S
O98 C94 1.260 . S
O99 In91 2.266 . S
O99 C96 1.252 . S
O100 In91 2.326 . S
O100 C96 1.260 . S
C101 O92 1.240 . S
C101 O93 1.252 . S
O102 In91 2.294 . S
O102 C95 1.240 . S
O103 In91 2.326 . S
O103 C95 1.252 . S
In104 O105 2.294 . S
In104 O106 2.326 . S
In104 O110 2.266 . S
In104 O111 2.326 . S
In104 O112 2.266 . S
In104 O113 2.326 . S
In104 O115 2.294 . S
In104 O116 2.326 . S
O105 In104 2.294 . S
O105 C114 1.240 . S
O106 In104 2.326 . S
O106 C114 1.252 . S
C107 O110 1.252 . S
C107 O111 1.260 . S
C108 O115 1.240 . S
C108 O116 1.252 . S
C109 O112 1.252 . S
C109 O113 1.260 . S
O110 In104 2.266 . S
O110 C107 1.252 . S
O111 In104 2.326 . S
O111 C107 1.260 . S
O112 In104 2.266 . S
O112 C109 1.252 . S
O113 In104 2.326 . S
O113 C109 1.260 . S
C114 O105 1.240 . S
C114 O106 1.252 . S
O115 In104 2.294 . S
O115 C108 1.240 . S
O116 In104 2.326 . S
O116 C108 1.252 . S
In117 O118 2.294 . S
In117 O119 2.326 . S
In117 O123 2.266 . S
In117 O124 2.326 . S
In117 O125 2.266 . S
In117 O126 2.326 . S
In117 O128 2.294 . S
In117 O129 2.326 . S
O118 In117 2.294 . S
O118 C127 1.240 . S
O119 In117 2.326 . S
O119 C127 1.252 . S
C120 O123 1.252 . S
C120 O124 1.260 . S
C121 O128 1.240 . S
C121 O129 1.252 . S
C122 O125 1.252 . S
C122 O126 1.260 . S
O123 In117 2.266 . S
O123 C120 1.252 . S
O124 In117 2.326 . S
O124 C120 1.260 . S
O125 In117 2.266 . S
O125 C122 1.252 . S
O126 In117 2.326 . S
O126 C122 1.260 . S
C127 O118 1.240 . S
C127 O119 1.252 . S
O128 In117 2.294 . S
O128 C121 1.240 . S
O129 In117 2.326 . S
O129 C121 1.252 . S
In130 O131 2.294 . S
In130 O132 2.326 . S
In130 O136 2.266 . S
In130 O137 2.326 . S
In130 O138 2.266 . S
In130 O139 2.326 . S
In130 O141 2.294 . S
In130 O142 2.326 . S
O131 In130 2.294 . S
O131 C140 1.240 . S
O132 In130 2.326 . S
O132 C140 1.252 . S
C133 O136 1.252 . S
C133 O137 1.260 . S
C134 O141 1.240 . S
C134 O142 1.252 . S
C135 O138 1.252 . S
C135 O139 1.260 . S
O136 In130 2.266 . S
O136 C133 1.252 . S
O137 In130 2.326 . S
O137 C133 1.260 . S
O138 In130 2.266 . S
O138 C135 1.252 . S
O139 In130 2.326 . S
O139 C135 1.260 . S
C140 O131 1.240 . S
C140 O132 1.252 . S
O141 In130 2.294 . S
O141 C134 1.240 . S
O142 In130 2.326 . S
O142 C134 1.252 . S
In143 O144 2.294 . S
In143 O145 2.326 . S
In143 O149 2.266 . S
In143 O150 2.326 . S
In143 O151 2.266 . S
In143 O152 2.326 . S
In143 O154 2.294 . S
In143 O155 2.326 . S
O144 In143 2.294 . S
O144 C153 1.240 . S
O145 In143 2.326 . S
O145 C153 1.252 . S
C146 O149 1.252 . S
C146 O150 1.260 . S
C147 O154 1.240 . S
C147 O155 1.252 . S
C148 O151 1.252 . S
C148 O152 1.260 . S
O149 In143 2.266 . S
O149 C146 1.252 . S
O150 In143 2.326 . S
O150 C146 1.260 . S
O151 In143 2.266 . S
O151 C148 1.252 . S
O152 In143 2.326 . S
O152 C148 1.260 . S
C153 O144 1.240 . S
C153 O145 1.252 . S
O154 In143 2.294 . S
O154 C147 1.240 . S
O155 In143 2.326 . S
O155 C147 1.252 . S
In156 O157 2.294 . S
In156 O158 2.326 . S
In156 O162 2.266 . S
In156 O163 2.326 . S
In156 O164 2.266 . S
In156 O165 2.326 . S
In156 O167 2.294 . S
In156 O168 2.326 . S
O157 In156 2.294 . S
O157 C166 1.240 . S
O158 In156 2.326 . S
O158 C166 1.252 . S
C159 O162 1.252 . S
C159 O163 1.260 . S
C160 O167 1.240 . S
C160 O168 1.252 . S
C161 O164 1.252 . S
C161 O165 1.260 . S
O162 In156 2.266 . S
O162 C159 1.252 . S
O163 In156 2.326 . S
O163 C159 1.260 . S
O164 In156 2.266 . S
O164 C161 1.252 . S
O165 In156 2.326 . S
O165 C161 1.260 . S
C166 O157 1.240 . S
C166 O158 1.252 . S
O167 In156 2.294 . S
O167 C160 1.240 . S
O168 In156 2.326 . S
O168 C160 1.252 . S
In169 O170 2.294 . S
In169 O171 2.326 . S
In169 O175 2.266 . S
In169 O176 2.326 . S
In169 O177 2.266 . S
In169 O178 2.326 . S
In169 O180 2.294 . S
In169 O181 2.326 . S
O170 In169 2.294 . S
O170 C179 1.240 . S
O171 In169 2.326 . S
O171 C179 1.252 . S
C172 O175 1.252 . S
C172 O176 1.260 . S
C173 O180 1.240 . S
C173 O181 1.252 . S
C174 O177 1.252 . S
C174 O178 1.260 . S
O175 In169 2.266 . S
O175 C172 1.252 . S
O176 In169 2.326 . S
O176 C172 1.260 . S
O177 In169 2.266 . S
O177 C174 1.252 . S
O178 In169 2.326 . S
O178 C174 1.260 . S
C179 O170 1.240 . S
C179 O171 1.252 . S
O180 In169 2.294 . S
O180 C173 1.240 . S
O181 In169 2.326 . S
O181 C173 1.252 . S
In182 O183 2.294 . S
In182 O184 2.326 . S
In182 O188 2.266 . S
In182 O189 2.326 . S
In182 O190 2.266 . S
In182 O191 2.326 . S
In182 O193 2.294 . S
In182 O194 2.326 . S
O183 In182 2.294 . S
O183 C192 1.240 . S
O184 In182 2.326 . S
O184 C192 1.252 . S
C185 O188 1.252 . S
C185 O189 1.260 . S
C186 O193 1.240 . S
C186 O194 1.252 . S
C187 O190 1.252 . S
C187 O191 1.260 . S
O188 In182 2.266 . S
O188 C185 1.252 . S
O189 In182 2.326 . S
O189 C185 1.260 . S
O190 In182 2.266 . S
O190 C187 1.252 . S
O191 In182 2.326 . S
O191 C187 1.260 . S
C192 O183 1.240 . S
C192 O184 1.252 . S
O193 In182 2.294 . S
O193 C186 1.240 . S
O194 In182 2.326 . S
O194 C186 1.252 . S
In195 O196 2.294 . S
In195 O197 2.326 . S
In195 O201 2.266 . S
In195 O202 2.326 . S
In195 O203 2.266 . S
In195 O204 2.326 . S
In195 O206 2.294 . S
In195 O207 2.326 . S
O196 In195 2.294 . S
O196 C205 1.240 . S
O197 In195 2.326 . S
O197 C205 1.252 . S
C198 O201 1.252 . S
C198 O202 1.260 . S
C199 O206 1.240 . S
C199 O207 1.252 . S
C200 O203 1.252 . S
C200 O204 1.260 . S
O201 In195 2.266 . S
O201 C198 1.252 . S
O202 In195 2.326 . S
O202 C198 1.260 . S
O203 In195 2.266 . S
O203 C200 1.252 . S
O204 In195 2.326 . S
O204 C200 1.260 . S
C205 O196 1.240 . S
C205 O197 1.252 . S
O206 In195 2.294 . S
O206 C199 1.240 . S
O207 In195 2.326 . S
O207 C199 1.252 . S
In208 O209 2.294 . S
In208 O210 2.326 . S
In208 O214 2.266 . S
In208 O215 2.326 . S
In208 O216 2.266 . S
In208 O217 2.326 . S
In208 O219 2.294 . S
In208 O220 2.326 . S
O209 In208 2.294 . S
O209 C218 1.240 . S
O210 In208 2.326 . S
O210 C218 1.252 . S
C211 O214 1.252 . S
C211 O215 1.260 . S
C212 O219 1.240 . S
C212 O220 1.252 . S
C213 O216 1.252 . S
C213 O217 1.260 . S
O214 In208 2.266 . S
O214 C211 1.252 . S
O215 In208 2.326 . S
O215 C211 1.260 . S
O216 In208 2.266 . S
O216 C213 1.252 . S
O217 In208 2.326 . S
O217 C213 1.260 . S
C218 O209 1.240 . S
C218 O210 1.252 . S
O219 In208 2.294 . S
O219 C212 1.240 . S
O220 In208 2.326 . S
O220 C212 1.252 . S
In221 O222 2.294 . S
In221 O223 2.326 . S
In221 O227 2.266 . S
In221 O228 2.326 . S
In221 O229 2.266 . S
In221 O230 2.326 . S
In221 O232 2.294 . S
In221 O233 2.326 . S
O222 In221 2.294 . S
O222 C231 1.240 . S
O223 In221 2.326 . S
O223 C231 1.252 . S
C224 O227 1.252 . S
C224 O228 1.260 . S
C225 O232 1.240 . S
C225 O233 1.252 . S
C226 O229 1.252 . S
C226 O230 1.260 . S
O227 In221 2.266 . S
O227 C224 1.252 . S
O228 In221 2.326 . S
O228 C224 1.260 . S
O229 In221 2.266 . S
O229 C226 1.252 . S
O230 In221 2.326 . S
O230 C226 1.260 . S
C231 O222 1.240 . S
C231 O223 1.252 . S
O232 In221 2.294 . S
O232 C225 1.240 . S
O233 In221 2.326 . S
O233 C225 1.252 . S
In234 O235 2.294 . S
In234 O236 2.326 . S
In234 O240 2.266 . S
In234 O241 2.326 . S
In234 O242 2.266 . S
In234 O243 2.326 . S
In234 O245 2.294 . S
In234 O246 2.326 . S
O235 In234 2.294 . S
O235 C244 1.240 . S
O236 In234 2.326 . S
O236 C244 1.252 . S
C237 O240 1.252 . S
C237 O241 1.260 . S
C238 O245 1.240 . S
C238 O246 1.252 . S
C239 O242 1.252 . S
C239 O243 1.260 . S
O240 In234 2.266 . S
O240 C237 1.252 . S
O241 In234 2.326 . S
O241 C237 1.260 . S
O242 In234 2.266 . S
O242 C239 1.252 . S
O243 In234 2.326 . S
O243 C239 1.260 . S
C244 O235 1.240 . S
C244 O236 1.252 . S
O245 In234 2.294 . S
O245 C238 1.240 . S
O246 In234 2.326 . S
O246 C238 1.252 . S
In247 O248 2.294 . S
In247 O249 2.326 . S
In247 O253 2.266 . S
In247 O254 2.326 . S
In247 O255 2.266 . S
In247 O256 2.326 . S
In247 O258 2.294 . S
In247 O259 2.326 . S
O248 In247 2.294 . S
O248 C257 1.240 . S
O249 In247 2.326 . S
O249 C257 1.252 . S
C250 O253 1.252 . S
C250 O254 1.260 . S
C251 O258 1.240 . S
C251 O259 1.252 . S
C252 O255 1.252 . S
C252 O256 1.260 . S
O253 In247 2.266 . S
O253 C250 1.252 . S
O254 In247 2.326 . S
O254 C250 1.260 . S
O255 In247 2.266 . S
O255 C252 1.252 . S
O256 In247 2.326 . S
O256 C252 1.260 . S
C257 O248 1.240 . S
C257 O249 1.252 . S
O258 In247 2.294 . S
O258 C251 1.240 . S
O259 In247 2.326 . S
O259 C251 1.252 . S
In260 O261 2.294 . S
In260 O262 2.326 . S
In260 O266 2.266 . S
In260 O267 2.326 . S
In260 O268 2.266 . S
In260 O269 2.326 . S
In260 O271 2.294 . S
In260 O272 2.326 . S
O261 In260 2.294 . S
O261 C270 1.240 . S
O262 In260 2.326 . S
O262 C270 1.252 . S
C263 O266 1.252 . S
C263 O267 1.260 . S
C264 O271 1.240 . S
C264 O272 1.252 . S
C265 O268 1.252 . S
C265 O269 1.260 . S
O266 In260 2.266 . S
O266 C263 1.252 . S
O267 In260 2.326 . S
O267 C263 1.260 . S
O268 In260 2.266 . S
O268 C265 1.252 . S
O269 In260 2.326 . S
O269 C265 1.260 . S
C270 O261 1.240 . S
C270 O262 1.252 . S
O271 In260 2.294 . S
O271 C264 1.240 . S
O272 In260 2.326 . S
O272 C264 1.252 . S
In273 O274 2.294 . S
In273 O275 2.326 . S
In273 O279 2.266 . S
In273 O280 2.326 . S
In273 O281 2.266 . S
In273 O282 2.326 . S
In273 O284 2.294 . S
In273 O285 2.326 . S
O274 In273 2.294 . S
O274 C283 1.240 . S
O275 In273 2.326 . S
O275 C283 1.252 . S
C276 O279 1.252 . S
C276 O280 1.260 . S
C277 O284 1.240 . S
C277 O285 1.252 . S
C278 O281 1.252 . S
C278 O282 1.260 . S
O279 In273 2.266 . S
O279 C276 1.252 . S
O280 In273 2.326 . S
O280 C276 1.260 . S
O281 In273 2.266 . S
O281 C278 1.252 . S
O282 In273 2.326 . S
O282 C278 1.260 . S
C283 O274 1.240 . S
C283 O275 1.252 . S
O284 In273 2.294 . S
O284 C277 1.240 . S
O285 In273 2.326 . S
O285 C277 1.252 . S
In286 O287 2.294 . S
In286 O288 2.326 . S
In286 O292 2.266 . S
In286 O293 2.326 . S
In286 O294 2.266 . S
In286 O295 2.326 . S
In286 O297 2.294 . S
In286 O298 2.326 . S
O287 In286 2.294 . S
O287 C296 1.240 . S
O288 In286 2.326 . S
O288 C296 1.252 . S
C289 O292 1.252 . S
C289 O293 1.260 . S
C290 O297 1.240 . S
C290 O298 1.252 . S
C291 O294 1.252 . S
C291 O295 1.260 . S
O292 In286 2.266 . S
O292 C289 1.252 . S
O293 In286 2.326 . S
O293 C289 1.260 . S
O294 In286 2.266 . S
O294 C291 1.252 . S
O295 In286 2.326 . S
O295 C291 1.260 . S
C296 O287 1.240 . S
C296 O288 1.252 . S
O297 In286 2.294 . S
O297 C290 1.240 . S
O298 In286 2.326 . S
O298 C290 1.252 . S
In299 O300 2.294 . S
In299 O301 2.326 . S
In299 O305 2.266 . S
In299 O306 2.326 . S
In299 O307 2.266 . S
In299 O308 2.326 . S
In299 O310 2.294 . S
In299 O311 2.326 . S
O300 In299 2.294 . S
O300 C309 1.240 . S
O301 In299 2.326 . S
O301 C309 1.252 . S
C302 O305 1.252 . S
C302 O306 1.260 . S
C303 O310 1.240 . S
C303 O311 1.252 . S
C304 O307 1.252 . S
C304 O308 1.260 . S
O305 In299 2.266 . S
O305 C302 1.252 . S
O306 In299 2.326 . S
O306 C302 1.260 . S
O307 In299 2.266 . S
O307 C304 1.252 . S
O308 In299 2.326 . S
O308 C304 1.260 . S
C309 O300 1.240 . S
C309 O301 1.252 . S
O310 In299 2.294 . S
O310 C303 1.240 . S
O311 In299 2.326 . S
O311 C303 1.252 . S
In312 O313 2.294 . S
In312 O314 2.326 . S
In312 O318 2.266 . S
In312 O319 2.326 . S
In312 O320 2.266 . S
In312 O321 2.326 . S
In312 O323 2.294 . S
In312 O324 2.326 . S
O313 In312 2.294 . S
O313 C322 1.240 . S
O314 In312 2.326 . S
O314 C322 1.252 . S
C315 O318 1.252 . S
C315 O319 1.260 . S
C316 O323 1.240 . S
C316 O324 1.252 . S
C317 O320 1.252 . S
C317 O321 1.260 . S
O318 In312 2.266 . S
O318 C315 1.252 . S
O319 In312 2.326 . S
O319 C315 1.260 . S
O320 In312 2.266 . S
O320 C317 1.252 . S
O321 In312 2.326 . S
O321 C317 1.260 . S
C322 O313 1.240 . S
C322 O314 1.252 . S
O323 In312 2.294 . S
O323 C316 1.240 . S
O324 In312 2.326 . S
O324 C316 1.252 . S
In325 O326 2.294 . S
In325 O327 2.326 . S
In325 O331 2.266 . S
In325 O332 2.326 . S
In325 O333 2.266 . S
In325 O334 2.326 . S
In325 O336 2.294 . S
In325 O337 2.326 . S
O326 In325 2.294 . S
O326 C335 1.240 . S
O327 In325 2.326 . S
O327 C335 1.252 . S
C328 O331 1.252 . S
C328 O332 1.260 . S
C329 O336 1.240 . S
C329 O337 1.252 . S
C330 O333 1.252 . S
C330 O334 1.260 . S
O331 In325 2.266 . S
O331 C328 1.252 . S
O332 In325 2.326 . S
O332 C328 1.260 . S
O333 In325 2.266 . S
O333 C330 1.252 . S
O334 In325 2.326 . S
O334 C330 1.260 . S
C335 O326 1.240 . S
C335 O327 1.252 . S
O336 In325 2.294 . S
O336 C329 1.240 . S
O337 In325 2.326 . S
O337 C329 1.252 . S
In338 O339 2.294 . S
In338 O340 2.326 . S
In338 O344 2.266 . S
In338 O345 2.326 . S
In338 O346 2.266 . S
In338 O347 2.326 . S
In338 O349 2.294 . S
In338 O350 2.326 . S
O339 In338 2.294 . S
O339 C348 1.240 . S
O340 In338 2.326 . S
O340 C348 1.252 . S
C341 O344 1.252 . S
C341 O345 1.260 . S
C342 O349 1.240 . S
C342 O350 1.252 . S
C343 O346 1.252 . S
C343 O347 1.260 . S
O344 In338 2.266 . S
O344 C341 1.252 . S
O345 In338 2.326 . S
O345 C341 1.260 . S
O346 In338 2.266 . S
O346 C343 1.252 . S
O347 In338 2.326 . S
O347 C343 1.260 . S
C348 O339 1.240 . S
C348 O340 1.252 . S
O349 In338 2.294 . S
O349 C342 1.240 . S
O350 In338 2.326 . S
O350 C342 1.252 . S
In351 O352 2.294 . S
In351 O353 2.326 . S
In351 O357 2.266 . S
In351 O358 2.326 . S
In351 O359 2.266 . S
In351 O360 2.326 . S
In351 O362 2.294 . S
In351 O363 2.326 . S
O352 In351 2.294 . S
O352 C361 1.240 . S
O353 In351 2.326 . S
O353 C361 1.252 . S
C354 O357 1.252 . S
C354 O358 1.260 . S
C355 O362 1.240 . S
C355 O363 1.252 . S
C356 O359 1.252 . S
C356 O360 1.260 . S
O357 In351 2.266 . S
O357 C354 1.252 . S
O358 In351 2.326 . S
O358 C354 1.260 . S
O359 In351 2.266 . S
O359 C356 1.252 . S
O360 In351 2.326 . S
O360 C356 1.260 . S
C361 O352 1.240 . S
C361 O353 1.252 . S
O362 In351 2.294 . S
O362 C355 1.240 . S
O363 In351 2.326 . S
O363 C355 1.252 . S
In364 O365 2.294 . S
In364 O366 2.326 . S
In364 O370 2.266 . S
In364 O371 2.326 . S
In364 O372 2.266 . S
In364 O373 2.326 . S
In364 O375 2.294 . S
In364 O376 2.326 . S
O365 In364 2.294 . S
O365 C374 1.240 . S
O366 In364 2.326 . S
O366 C374 1.252 . S
C367 O370 1.252 . S
C367 O371 1.260 . S
C368 O375 1.240 . S
C368 O376 1.252 . S
C369 O372 1.252 . S
C369 O373 1.260 . S
O370 In364 2.266 . S
O370 C367 1.252 . S
O371 In364 2.326 . S
O371 C367 1.260 . S
O372 In364 2.266 . S
O372 C369 1.252 . S
O373 In364 2.326 . S
O373 C369 1.260 . S
C374 O365 1.240 . S
C374 O366 1.252 . S
O375 In364 2.294 . S
O375 C368 1.240 . S
O376 In364 2.326 . S
O376 C368 1.252 . S
In377 O378 2.294 . S
In377 O379 2.326 . S
In377 O383 2.266 . S
In377 O384 2.326 . S
In377 O385 2.266 . S
In377 O386 2.326 . S
In377 O388 2.294 . S
In377 O389 2.326 . S
O378 In377 2.294 . S
O378 C387 1.240 . S
O379 In377 2.326 . S
O379 C387 1.252 . S
C380 O383 1.252 . S
C380 O384 1.260 . S
C381 O388 1.240 . S
C381 O389 1.252 . S
C382 O385 1.252 . S
C382 O386 1.260 . S
O383 In377 2.266 . S
O383 C380 1.252 . S
O384 In377 2.326 . S
O384 C380 1.260 . S
O385 In377 2.266 . S
O385 C382 1.252 . S
O386 In377 2.326 . S
O386 C382 1.260 . S
C387 O378 1.240 . S
C387 O379 1.252 . S
O388 In377 2.294 . S
O388 C381 1.240 . S
O389 In377 2.326 . S
O389 C381 1.252 . S
In390 O391 2.294 . S
In390 O392 2.326 . S
In390 O396 2.266 . S
In390 O397 2.326 . S
In390 O398 2.266 . S
In390 O399 2.326 . S
In390 O401 2.294 . S
In390 O402 2.326 . S
O391 In390 2.294 . S
O391 C400 1.240 . S
O392 In390 2.326 . S
O392 C400 1.252 . S
C393 O396 1.252 . S
C393 O397 1.260 . S
C394 O401 1.240 . S
C394 O402 1.252 . S
C395 O398 1.252 . S
C395 O399 1.260 . S
O396 In390 2.266 . S
O396 C393 1.252 . S
O397 In390 2.326 . S
O397 C393 1.260 . S
O398 In390 2.266 . S
O398 C395 1.252 . S
O399 In390 2.326 . S
O399 C395 1.260 . S
C400 O391 1.240 . S
C400 O392 1.252 . S
O401 In390 2.294 . S
O401 C394 1.240 . S
O402 In390 2.326 . S
O402 C394 1.252 . S
In403 O404 2.294 . S
In403 O405 2.326 . S
In403 O409 2.266 . S
In403 O410 2.326 . S
In403 O411 2.266 . S
In403 O412 2.326 . S
In403 O414 2.294 . S
In403 O415 2.326 . S
O404 In403 2.294 . S
O404 C413 1.240 . S
O405 In403 2.326 . S
O405 C413 1.252 . S
C406 O409 1.252 . S
C406 O410 1.260 . S
C407 O414 1.240 . S
C407 O415 1.252 . S
C408 O411 1.252 . S
C408 O412 1.260 . S
O409 In403 2.266 . S
O409 C406 1.252 . S
O410 In403 2.326 . S
O410 C406 1.260 . S
O411 In403 2.266 . S
O411 C408 1.252 . S
O412 In403 2.326 . S
O412 C408 1.260 . S
C413 O404 1.240 . S
C413 O405 1.252 . S
O414 In403 2.294 . S
O414 C407 1.240 . S
O415 In403 2.326 . S
O415 C407 1.252 . S
In416 O417 2.294 . S
In416 O418 2.326 . S
In416 O422 2.266 . S
In416 O423 2.326 . S
In416 O424 2.266 . S
In416 O425 2.326 . S
In416 O427 2.294 . S
In416 O428 2.326 . S
O417 In416 2.294 . S
O417 C426 1.240 . S
O418 In416 2.326 . S
O418 C426 1.252 . S
C419 O422 1.252 . S
C419 O423 1.260 . S
C420 O427 1.240 . S
C420 O428 1.252 . S
C421 O424 1.252 . S
C421 O425 1.260 . S
O422 In416 2.266 . S
O422 C419 1.252 . S
O423 In416 2.326 . S
O423 C419 1.260 . S
O424 In416 2.266 . S
O424 C421 1.252 . S
O425 In416 2.326 . S
O425 C421 1.260 . S
C426 O417 1.240 . S
C426 O418 1.252 . S
O427 In416 2.294 . S
O427 C420 1.240 . S
O428 In416 2.326 . S
O428 C420 1.252 . S
In429 O430 2.294 . S
In429 O431 2.326 . S
In429 O435 2.266 . S
In429 O436 2.326 . S
In429 O437 2.266 . S
In429 O438 2.326 . S
In429 O440 2.294 . S
In429 O441 2.326 . S
O430 In429 2.294 . S
O430 C439 1.240 . S
O431 In429 2.326 . S
O431 C439 1.252 . S
C432 O435 1.252 . S
C432 O436 1.260 . S
C433 O440 1.240 . S
C433 O441 1.252 . S
C434 O437 1.252 . S
C434 O438 1.260 . S
O435 In429 2.266 . S
O435 C432 1.252 . S
O436 In429 2.326 . S
O436 C432 1.260 . S
O437 In429 2.266 . S
O437 C434 1.252 . S
O438 In429 2.326 . S
O438 C434 1.260 . S
C439 O430 1.240 . S
C439 O431 1.252 . S
O440 In429 2.294 . S
O440 C433 1.240 . S
O441 In429 2.326 . S
O441 C433 1.252 . S
In442 O443 2.294 . S
In442 O444 2.326 . S
In442 O448 2.266 . S
In442 O449 2.326 . S
In442 O450 2.266 . S
In442 O451 2.326 . S
In442 O453 2.294 . S
In442 O454 2.326 . S
O443 In442 2.294 . S
O443 C452 1.240 . S
O444 In442 2.326 . S
O444 C452 1.252 . S
C445 O448 1.252 . S
C445 O449 1.260 . S
C446 O453 1.240 . S
C446 O454 1.252 . S
C447 O450 1.252 . S
C447 O451 1.260 . S
O448 In442 2.266 . S
O448 C445 1.252 . S
O449 In442 2.326 . S
O449 C445 1.260 . S
O450 In442 2.266 . S
O450 C447 1.252 . S
O451 In442 2.326 . S
O451 C447 1.260 . S
C452 O443 1.240 . S
C452 O444 1.252 . S
O453 In442 2.294 . S
O453 C446 1.240 . S
O454 In442 2.326 . S
O454 C446 1.252 . S
In455 O456 2.294 . S
In455 O457 2.326 . S
In455 O461 2.266 . S
In455 O462 2.326 . S
In455 O463 2.266 . S
In455 O464 2.326 . S
In455 O466 2.294 . S
In455 O467 2.326 . S
O456 In455 2.294 . S
O456 C465 1.240 . S
O457 In455 2.326 . S
O457 C465 1.252 . S
C458 O461 1.252 . S
C458 O462 1.260 . S
C459 O466 1.240 . S
C459 O467 1.252 . S
C460 O463 1.252 . S
C460 O464 1.260 . S
O461 In455 2.266 . S
O461 C458 1.252 . S
O462 In455 2.326 . S
O462 C458 1.260 . S
O463 In455 2.266 . S
O463 C460 1.252 . S
O464 In455 2.326 . S
O464 C460 1.260 . S
C465 O456 1.240 . S
C465 O457 1.252 . S
O466 In455 2.294 . S
O466 C459 1.240 . S
O467 In455 2.326 . S
O467 C459 1.252 . S
In468 O469 2.294 . S
In468 O470 2.326 . S
In468 O474 2.266 . S
In468 O475 2.326 . S
In468 O476 2.266 . S
In468 O477 2.326 . S
In468 O479 2.294 . S
In468 O480 2.326 . S
O469 In468 2.294 . S
O469 C478 1.240 . S
O470 In468 2.326 . S
O470 C478 1.252 . S
C471 O474 1.252 . S
C471 O475 1.260 . S
C472 O479 1.240 . S
C472 O480 1.252 . S
C473 O476 1.252 . S
C473 O477 1.260 . S
O474 In468 2.266 . S
O474 C471 1.252 . S
O475 In468 2.326 . S
O475 C471 1.260 . S
O476 In468 2.266 . S
O476 C473 1.252 . S
O477 In468 2.326 . S
O477 C473 1.260 . S
C478 O469 1.240 . S
C478 O470 1.252 . S
O479 In468 2.294 . S
O479 C472 1.240 . S
O480 In468 2.326 . S
O480 C472 1.252 . S
In481 O482 2.294 . S
In481 O483 2.326 . S
In481 O487 2.266 . S
In481 O488 2.326 . S
In481 O489 2.266 . S
In481 O490 2.326 . S
In481 O492 2.294 . S
In481 O493 2.326 . S
O482 In481 2.294 . S
O482 C491 1.240 . S
O483 In481 2.326 . S
O483 C491 1.252 . S
C484 O487 1.252 . S
C484 O488 1.260 . S
C485 O492 1.240 . S
C485 O493 1.252 . S
C486 O489 1.252 . S
C486 O490 1.260 . S
O487 In481 2.266 . S
O487 C484 1.252 . S
O488 In481 2.326 . S
O488 C484 1.260 . S
O489 In481 2.266 . S
O489 C486 1.252 . S
O490 In481 2.326 . S
O490 C486 1.260 . S
C491 O482 1.240 . S
C491 O483 1.252 . S
O492 In481 2.294 . S
O492 C485 1.240 . S
O493 In481 2.326 . S
O493 C485 1.252 . S
In494 O495 2.294 . S
In494 O496 2.326 . S
In494 O500 2.266 . S
In494 O501 2.326 . S
In494 O502 2.266 . S
In494 O503 2.326 . S
In494 O505 2.294 . S
In494 O506 2.326 . S
O495 In494 2.294 . S
O495 C504 1.240 . S
O496 In494 2.326 . S
O496 C504 1.252 . S
C497 O500 1.252 . S
C497 O501 1.260 . S
C498 O505 1.240 . S
C498 O506 1.252 . S
C499 O502 1.252 . S
C499 O503 1.260 . S
O500 In494 2.266 . S
O500 C497 1.252 . S
O501 In494 2.326 . S
O501 C497 1.260 . S
O502 In494 2.266 . S
O502 C499 1.252 . S
O503 In494 2.326 . S
O503 C499 1.260 . S
C504 O495 1.240 . S
C504 O496 1.252 . S
O505 In494 2.294 . S
O505 C498 1.240 . S
O506 In494 2.326 . S
O506 C498 1.252 . S
In507 O508 2.294 . S
In507 O509 2.326 . S
In507 O513 2.266 . S
In507 O514 2.326 . S
In507 O515 2.266 . S
In507 O516 2.326 . S
In507 O518 2.294 . S
In507 O519 2.326 . S
O508 In507 2.294 . S
O508 C517 1.240 . S
O509 In507 2.326 . S
O509 C517 1.252 . S
C510 O513 1.252 . S
C510 O514 1.260 . S
C511 O518 1.240 . S
C511 O519 1.252 . S
C512 O515 1.252 . S
C512 O516 1.260 . S
O513 In507 2.266 . S
O513 C510 1.252 . S
O514 In507 2.326 . S
O514 C510 1.260 . S
O515 In507 2.266 . S
O515 C512 1.252 . S
O516 In507 2.326 . S
O516 C512 1.260 . S
C517 O508 1.240 . S
C517 O509 1.252 . S
O518 In507 2.294 . S
O518 C511 1.240 . S
O519 In507 2.326 . S
O519 C511 1.252 . S
In520 O521 2.294 . S
In520 O522 2.326 . S
In520 O526 2.266 . S
In520 O527 2.326 . S
In520 O528 2.266 . S
In520 O529 2.326 . S
In520 O531 2.294 . S
In520 O532 2.326 . S
O521 In520 2.294 . S
O521 C530 1.240 . S
O522 In520 2.326 . S
O522 C530 1.252 . S
C523 O526 1.252 . S
C523 O527 1.260 . S
C524 O531 1.240 . S
C524 O532 1.252 . S
C525 O528 1.252 . S
C525 O529 1.260 . S
O526 In520 2.266 . S
O526 C523 1.252 . S
O527 In520 2.326 . S
O527 C523 1.260 . S
O528 In520 2.266 . S
O528 C525 1.252 . S
O529 In520 2.326 . S
O529 C525 1.260 . S
C530 O521 1.240 . S
C530 O522 1.252 . S
O531 In520 2.294 . S
O531 C524 1.240 . S
O532 In520 2.326 . S
O532 C524 1.252 . S
In533 O534 2.294 . S
In533 O535 2.326 . S
In533 O539 2.266 . S
In533 O540 2.326 . S
In533 O541 2.266 . S
In533 O542 2.326 . S
In533 O544 2.294 . S
In533 O545 2.326 . S
O534 In533 2.294 . S
O534 C543 1.240 . S
O535 In533 2.326 . S
O535 C543 1.252 . S
C536 O539 1.252 . S
C536 O540 1.260 . S
C537 O544 1.240 . S
C537 O545 1.252 . S
C538 O541 1.252 . S
C538 O542 1.260 . S
O539 In533 2.266 . S
O539 C536 1.252 . S
O540 In533 2.326 . S
O540 C536 1.260 . S
O541 In533 2.266 . S
O541 C538 1.252 . S
O542 In533 2.326 . S
O542 C538 1.260 . S
C543 O534 1.240 . S
C543 O535 1.252 . S
O544 In533 2.294 . S
O544 C537 1.240 . S
O545 In533 2.326 . S
O545 C537 1.252 . S
In546 O547 2.294 . S
In546 O548 2.326 . S
In546 O552 2.266 . S
In546 O553 2.326 . S
In546 O554 2.266 . S
In546 O555 2.326 . S
In546 O557 2.294 . S
In546 O558 2.326 . S
O547 In546 2.294 . S
O547 C556 1.240 . S
O548 In546 2.326 . S
O548 C556 1.252 . S
C549 O552 1.252 . S
C549 O553 1.260 . S
C550 O557 1.240 . S
C550 O558 1.252 . S
C551 O554 1.252 . S
C551 O555 1.260 . S
O552 In546 2.266 . S
O552 C549 1.252 . S
O553 In546 2.326 . S
O553 C549 1.260 . S
O554 In546 2.266 . S
O554 C551 1.252 . S
O555 In546 2.326 . S
O555 C551 1.260 . S
C556 O547 1.240 . S
C556 O548 1.252 . S
O557 In546 2.294 . S
O557 C550 1.240 . S
O558 In546 2.326 . S
O558 C550 1.252 . S
In559 O560 2.294 . S
In559 O561 2.326 . S
In559 O565 2.266 . S
In559 O566 2.326 . S
In559 O567 2.266 . S
In559 O568 2.326 . S
In559 O570 2.294 . S
In559 O571 2.326 . S
O560 In559 2.294 . S
O560 C569 1.240 . S
O561 In559 2.326 . S
O561 C569 1.252 . S
C562 O565 1.252 . S
C562 O566 1.260 . S
C563 O570 1.240 . S
C563 O571 1.252 . S
C564 O567 1.252 . S
C564 O568 1.260 . S
O565 In559 2.266 . S
O565 C562 1.252 . S
O566 In559 2.326 . S
O566 C562 1.260 . S
O567 In559 2.266 . S
O567 C564 1.252 . S
O568 In559 2.326 . S
O568 C564 1.260 . S
C569 O560 1.240 . S
C569 O561 1.252 . S
O570 In559 2.294 . S
O570 C563 1.240 . S
O571 In559 2.326 . S
O571 C563 1.252 . S
In572 O573 2.294 . S
In572 O574 2.326 . S
In572 O578 2.266 . S
In572 O579 2.326 . S
In572 O580 2.266 . S
In572 O581 2.326 . S
In572 O583 2.294 . S
In572 O584 2.326 . S
O573 In572 2.294 . S
O573 C582 1.240 . S
O574 In572 2.326 . S
O574 C582 1.252 . S
C575 O578 1.252 . S
C575 O579 1.260 . S
C576 O583 1.240 . S
C576 O584 1.252 . S
C577 O580 1.252 . S
C577 O581 1.260 . S
O578 In572 2.266 . S
O578 C575 1.252 . S
O579 In572 2.326 . S
O579 C575 1.260 . S
O580 In572 2.266 . S
O580 C577 1.252 . S
O581 In572 2.326 . S
O581 C577 1.260 . S
C582 O573 1.240 . S
C582 O574 1.252 . S
O583 In572 2.294 . S
O583 C576 1.240 . S
O584 In572 2.326 . S
O584 C576 1.252 . S
In585 O586 2.294 . S
In585 O587 2.326 . S
In585 O591 2.266 . S
In585 O592 2.326 . S
In585 O593 2.266 . S
In585 O594 2.326 . S
In585 O596 2.294 . S
In585 O597 2.326 . S
O586 In585 2.294 . S
O586 C595 1.240 . S
O587 In585 2.326 . S
O587 C595 1.252 . S
C588 O591 1.252 . S
C588 O592 1.260 . S
C589 O596 1.240 . S
C589 O597 1.252 . S
C590 O593 1.252 . S
C590 O594 1.260 . S
O591 In585 2.266 . S
O591 C588 1.252 . S
O592 In585 2.326 . S
O592 C588 1.260 . S
O593 In585 2.266 . S
O593 C590 1.252 . S
O594 In585 2.326 . S
O594 C590 1.260 . S
C595 O586 1.240 . S
C595 O587 1.252 . S
O596 In585 2.294 . S
O596 C589 1.240 . S
O597 In585 2.326 . S
O597 C589 1.252 . S
In598 O599 2.294 . S
In598 O600 2.326 . S
In598 O604 2.266 . S
In598 O605 2.326 . S
In598 O606 2.266 . S
In598 O607 2.326 . S
In598 O609 2.294 . S
In598 O610 2.326 . S
O599 In598 2.294 . S
O599 C608 1.240 . S
O600 In598 2.326 . S
O600 C608 1.252 . S
C601 O604 1.252 . S
C601 O605 1.260 . S
C602 O609 1.240 . S
C602 O610 1.252 . S
C603 O606 1.252 . S
C603 O607 1.260 . S
O604 In598 2.266 . S
O604 C601 1.252 . S
O605 In598 2.326 . S
O605 C601 1.260 . S
O606 In598 2.266 . S
O606 C603 1.252 . S
O607 In598 2.326 . S
O607 C603 1.260 . S
C608 O599 1.240 . S
C608 O600 1.252 . S
O609 In598 2.294 . S
O609 C602 1.240 . S
O610 In598 2.326 . S
O610 C602 1.252 . S
In611 O612 2.294 . S
In611 O613 2.326 . S
In611 O617 2.266 . S
In611 O618 2.326 . S
In611 O619 2.266 . S
In611 O620 2.326 . S
In611 O622 2.294 . S
In611 O623 2.326 . S
O612 In611 2.294 . S
O612 C621 1.240 . S
O613 In611 2.326 . S
O613 C621 1.252 . S
C614 O617 1.252 . S
C614 O618 1.260 . S
C615 O622 1.240 . S
C615 O623 1.252 . S
C616 O619 1.252 . S
C616 O620 1.260 . S
O617 In611 2.266 . S
O617 C614 1.252 . S
O618 In611 2.326 . S
O618 C614 1.260 . S
O619 In611 2.266 . S
O619 C616 1.252 . S
O620 In611 2.326 . S
O620 C616 1.260 . S
C621 O612 1.240 . S
C621 O613 1.252 . S
O622 In611 2.294 . S
O622 C615 1.240 . S
O623 In611 2.326 . S
O623 C615 1.252 . S
C624 C625 1.391 . S
C624 C626 1.394 . S
C624 H640 0.931 . S
C625 C624 1.391 . S
C625 C629 1.376 . S
C626 C624 1.394 . S
C626 C627 1.369 . S
C626 C630 1.531 1_655 S
C627 C626 1.369 . S
C627 C628 1.410 . S
C627 C635 1.503 1_655 S
C628 C627 1.410 . S
C628 C629 1.392 . S
C628 C631 1.511 . S
C629 C625 1.376 . S
C629 C628 1.392 . S
C629 H641 0.929 . S
C630 C626 1.531 1_455 S
C630 H642 0.960 . S
C630 H643 0.962 . S
C630 H644 0.960 . S
C631 C628 1.511 . S
C631 H645 0.961 . S
C631 H646 0.961 . S
C631 H647 0.961 . S
C632 C633 1.370 . S
C632 C634 1.363 . S
C632 H648 0.931 . S
C633 C632 1.370 . S
C633 C637 1.408 . S
C634 C632 1.363 . S
C634 C635 1.370 . S
C634 C638 1.524 1_455 S
C635 C627 1.503 1_455 S
C635 C634 1.370 . S
C635 C636 1.403 . S
C636 C635 1.403 . S
C636 C637 1.404 . S
C636 C639 1.539 . S
C637 C633 1.408 . S
C637 C636 1.404 . S
C637 H649 0.930 . S
C638 C634 1.524 1_655 S
C638 H650 0.956 . S
C638 H651 0.961 . S
C638 H652 0.961 . S
C639 C636 1.539 . S
C639 H653 0.958 . S
C639 H654 0.961 . S
C639 H655 0.960 . S
H640 C624 0.931 . S
H641 C629 0.929 . S
H642 C630 0.960 . S
H643 C630 0.962 . S
H644 C630 0.960 . S
H645 C631 0.961 . S
H646 C631 0.961 . S
H647 C631 0.961 . S
H648 C632 0.931 . S
H649 C637 0.930 . S
H650 C638 0.956 . S
H651 C638 0.961 . S
H652 C638 0.961 . S
H653 C639 0.958 . S
H654 C639 0.961 . S
H655 C639 0.960 . S
C656 C657 1.391 . S
C656 C658 1.394 . S
C656 H672 0.931 . S
C657 C656 1.391 . S
C657 C661 1.376 . S
C658 C656 1.394 . S
C658 C659 1.369 . S
C658 C662 1.531 . S
C659 C658 1.369 . S
C659 C660 1.410 . S
C659 C667 1.503 1_565 S
C660 C659 1.410 . S
C660 C661 1.392 . S
C660 C663 1.511 1_565 S
C661 C657 1.376 . S
C661 C660 1.392 . S
C661 H673 0.929 . S
C662 C658 1.531 . S
C662 H674 0.960 . S
C662 H675 0.962 . S
C662 H676 0.960 . S
C663 C660 1.511 1_545 S
C663 H677 0.961 . S
C663 H678 0.961 . S
C663 H679 0.961 . S
C664 C665 1.370 . S
C664 C666 1.363 . S
C664 H680 0.931 . S
C665 C664 1.370 . S
C665 C669 1.408 . S
C666 C664 1.363 . S
C666 C667 1.370 . S
C666 C670 1.524 . S
C667 C659 1.503 1_545 S
C667 C666 1.370 . S
C667 C668 1.403 . S
C668 C667 1.403 . S
C668 C669 1.404 . S
C668 C671 1.539 . S
C669 C665 1.408 . S
C669 C668 1.404 . S
C669 H681 0.930 . S
C670 C666 1.524 . S
C670 H682 0.956 1_545 S
C670 H683 0.961 . S
C670 H684 0.961 . S
C671 C668 1.539 . S
C671 H685 0.958 1_545 S
C671 H686 0.961 . S
C671 H687 0.960 . S
H672 C656 0.931 . S
H673 C661 0.929 . S
H674 C662 0.960 . S
H675 C662 0.962 . S
H676 C662 0.960 . S
H677 C663 0.961 . S
H678 C663 0.961 . S
H679 C663 0.961 . S
H680 C664 0.931 . S
H681 C669 0.930 . S
H682 C670 0.956 1_565 S
H683 C670 0.961 . S
H684 C670 0.961 . S
H685 C671 0.958 1_565 S
H686 C671 0.961 . S
H687 C671 0.960 . S
C688 C689 1.391 . S
C688 C690 1.394 . S
C688 H704 0.931 . S
C689 C688 1.391 . S
C689 C693 1.376 . S
C690 C688 1.394 . S
C690 C691 1.369 . S
C690 C694 1.531 . S
C691 C690 1.369 . S
C691 C692 1.410 . S
C691 C699 1.503 1_455 S
C692 C691 1.410 . S
C692 C693 1.392 . S
C692 C695 1.511 1_455 S
C693 C689 1.376 . S
C693 C692 1.392 . S
C693 H705 0.929 . S
C694 C690 1.531 . S
C694 H706 0.960 . S
C694 H707 0.962 . S
C694 H708 0.960 . S
C695 C692 1.511 1_655 S
C695 H709 0.961 . S
C695 H710 0.961 . S
C695 H711 0.961 . S
C696 C697 1.370 . S
C696 C698 1.363 . S
C696 H712 0.931 . S
C697 C696 1.370 . S
C697 C701 1.408 . S
C698 C696 1.363 . S
C698 C699 1.370 . S
C698 C702 1.524 1_655 S
C699 C691 1.503 1_655 S
C699 C698 1.370 . S
C699 C700 1.403 . S
C700 C699 1.403 . S
C700 C701 1.404 . S
C700 C703 1.539 . S
C701 C697 1.408 . S
C701 C700 1.404 . S
C701 H713 0.930 . S
C702 C698 1.524 1_455 S
C702 H714 0.956 . S
C702 H715 0.961 . S
C702 H716 0.960 . S
C703 C700 1.539 . S
C703 H717 0.958 . S
C703 H718 0.961 . S
C703 H719 0.960 . S
H704 C688 0.931 . S
H705 C693 0.929 . S
H706 C694 0.960 . S
H707 C694 0.962 . S
H708 C694 0.960 . S
H709 C695 0.961 . S
H710 C695 0.961 . S
H711 C695 0.961 . S
H712 C696 0.931 . S
H713 C701 0.930 . S
H714 C702 0.956 . S
H715 C702 0.961 . S
H716 C702 0.960 . S
H717 C703 0.958 . S
H718 C703 0.961 . S
H719 C703 0.960 . S
C720 C721 1.391 . S
C720 C722 1.394 . S
C720 H736 0.931 . S
C721 C720 1.391 . S
C721 C725 1.376 . S
C722 C720 1.394 . S
C722 C723 1.369 . S
C722 C726 1.531 1_565 S
C723 C722 1.369 . S
C723 C724 1.410 . S
C723 C731 1.503 1_565 S
C724 C723 1.410 . S
C724 C725 1.392 . S
C724 C727 1.511 . S
C725 C721 1.376 . S
C725 C724 1.392 . S
C725 H737 0.929 . S
C726 C722 1.531 1_545 S
C726 H738 0.960 . S
C726 H739 0.962 . S
C726 H740 0.960 . S
C727 C724 1.511 . S
C727 H741 0.961 . S
C727 H742 0.961 . S
C727 H743 0.961 . S
C728 C729 1.370 . S
C728 C730 1.363 . S
C728 H744 0.931 . S
C729 C728 1.370 . S
C729 C733 1.408 . S
C730 C728 1.363 . S
C730 C731 1.370 . S
C730 C734 1.524 1_545 S
C731 C723 1.503 1_545 S
C731 C730 1.370 . S
C731 C732 1.403 . S
C732 C731 1.403 . S
C732 C733 1.404 . S
C732 C735 1.539 . S
C733 C729 1.408 . S
C733 C732 1.404 . S
C733 H745 0.930 . S
C734 C730 1.524 1_565 S
C734 H746 0.948 1_565 S
C734 H747 0.961 . S
C734 H748 0.962 . S
C735 C732 1.539 . S
C735 H749 0.958 . S
C735 H750 0.961 . S
C735 H751 0.960 . S
H736 C720 0.931 . S
H737 C725 0.929 . S
H738 C726 0.960 . S
H739 C726 0.962 . S
H740 C726 0.960 . S
H741 C727 0.961 . S
H742 C727 0.961 . S
H743 C727 0.961 . S
H744 C728 0.931 . S
H745 C733 0.930 . S
H746 C734 0.948 1_545 S
H747 C734 0.961 . S
H748 C734 0.962 . S
H749 C735 0.958 . S
H750 C735 0.961 . S
H751 C735 0.960 . S
C752 C753 1.391 . S
C752 C754 1.394 . S
C752 H768 0.931 . S
C753 C752 1.391 . S
C753 C757 1.376 . S
C754 C752 1.394 . S
C754 C755 1.369 . S
C754 C758 1.531 . S
C755 C754 1.369 . S
C755 C756 1.410 . S
C755 C763 1.503 1_655 S
C756 C755 1.410 . S
C756 C757 1.392 . S
C756 C759 1.511 . S
C757 C753 1.376 . S
C757 C756 1.392 . S
C757 H769 0.929 . S
C758 C754 1.531 . S
C758 H770 0.960 . S
C758 H771 0.962 1_655 S
C758 H772 0.960 . S
C759 C756 1.511 . S
C759 H773 0.961 . S
C759 H774 0.929 1_655 S
C759 H775 0.961 . S
C760 C761 1.370 . S
C760 C762 1.363 . S
C760 H776 0.931 . S
C761 C760 1.370 . S
C761 C765 1.408 . S
C762 C760 1.363 . S
C762 C763 1.370 . S
C762 C766 1.524 . S
C763 C755 1.503 1_455 S
C763 C762 1.370 . S
C763 C764 1.405 . S
C764 C763 1.405 . S
C764 C765 1.412 . S
C764 C767 1.529 1_455 S
C765 C761 1.408 . S
C765 C764 1.412 . S
C765 H777 0.930 . S
C766 C762 1.524 . S
C766 H778 0.956 . S
C766 H779 0.961 . S
C766 H780 0.961 . S
C767 C764 1.529 1_655 S
C767 H781 0.958 . S
C767 H782 0.961 . S
C767 H783 0.960 . S
H768 C752 0.931 . S
H769 C757 0.929 . S
H770 C758 0.960 . S
H771 C758 0.962 1_455 S
H772 C758 0.960 . S
H773 C759 0.961 . S
H774 C759 0.929 1_455 S
H775 C759 0.961 . S
H776 C760 0.931 . S
H777 C765 0.930 . S
H778 C766 0.956 . S
H779 C766 0.961 . S
H780 C766 0.961 . S
H781 C767 0.958 . S
H782 C767 0.961 . S
H783 C767 0.960 . S
C784 C785 1.391 . S
C784 C786 1.394 . S
C784 H800 0.931 . S
C785 C784 1.391 . S
C785 C789 1.376 . S
C786 C784 1.394 . S
C786 C787 1.369 . S
C786 C790 1.531 1_545 S
C787 C786 1.369 . S
C787 C788 1.410 . S
C787 C795 1.503 1_545 S
C788 C787 1.410 . S
C788 C789 1.392 . S
C788 C791 1.511 . S
C789 C785 1.376 . S
C789 C788 1.392 . S
C789 H801 0.929 . S
C790 C786 1.531 1_565 S
C790 H802 0.960 . S
C790 H803 0.962 . S
C790 H804 0.960 . S
C791 C788 1.511 . S
C791 H805 0.961 . S
C791 H806 0.961 . S
C791 H807 0.961 . S
C792 C793 1.370 . S
C792 C794 1.363 . S
C792 H808 0.931 . S
C793 C792 1.370 . S
C793 C797 1.408 . S
C794 C792 1.363 . S
C794 C795 1.370 . S
C794 C798 1.524 1_565 S
C795 C787 1.503 1_565 S
C795 C794 1.370 . S
C795 C796 1.403 . S
C796 C795 1.403 . S
C796 C797 1.404 . S
C796 C799 1.539 . S
C797 C793 1.408 . S
C797 C796 1.404 . S
C797 H809 0.930 . S
C798 C794 1.524 1_545 S
C798 H810 0.956 . S
C798 H811 0.961 . S
C798 H812 0.961 . S
C799 C796 1.539 . S
C799 H813 0.958 . S
C799 H814 0.961 . S
C799 H815 0.960 . S
H800 C784 0.931 . S
H801 C789 0.929 . S
H802 C790 0.960 . S
H803 C790 0.962 . S
H804 C790 0.960 . S
H805 C791 0.961 . S
H806 C791 0.961 . S
H807 C791 0.961 . S
H808 C792 0.931 . S
H809 C797 0.930 . S
H810 C798 0.956 . S
H811 C798 0.961 . S
H812 C798 0.961 . S
H813 C799 0.958 . S
H814 C799 0.961 . S
H815 C799 0.960 . S
C816 C817 1.391 . S
C816 C818 1.394 . S
C816 H832 0.931 . S
C817 C816 1.391 . S
C817 C821 1.376 . S
C818 C816 1.394 . S
C818 C819 1.369 . S
C818 C822 1.531 1_455 S
C819 C818 1.369 . S
C819 C820 1.410 . S
C819 C827 1.503 1_455 S
C820 C819 1.410 . S
C820 C821 1.392 . S
C820 C823 1.511 . S
C821 C817 1.376 . S
C821 C820 1.392 . S
C821 H833 0.929 . S
C822 C818 1.531 1_655 S
C822 H834 0.960 . S
C822 H835 0.962 . S
C822 H836 0.960 . S
C823 C820 1.511 . S
C823 H837 0.961 . S
C823 H838 0.961 . S
C823 H839 0.961 . S
C824 C825 1.370 . S
C824 C826 1.363 . S
C824 H840 0.931 . S
C825 C824 1.370 . S
C825 C829 1.408 . S
C826 C824 1.363 . S
C826 C827 1.370 . S
C826 C830 1.535 . S
C827 C819 1.503 1_655 S
C827 C826 1.370 . S
C827 C828 1.403 . S
C828 C827 1.403 . S
C828 C829 1.404 . S
C828 C831 1.539 . S
C829 C825 1.408 . S
C829 C828 1.404 . S
C829 H841 0.930 . S
C830 C826 1.535 . S
C830 H842 0.962 . S
C830 H843 0.939 1_655 S
C830 H844 0.966 . S
C831 C828 1.539 . S
C831 H845 0.958 . S
C831 H846 0.961 . S
C831 H847 1.013 . S
H832 C816 0.931 . S
H833 C821 0.929 . S
H834 C822 0.960 . S
H835 C822 0.962 . S
H836 C822 0.960 . S
H837 C823 0.961 . S
H838 C823 0.961 . S
H839 C823 0.961 . S
H840 C824 0.931 . S
H841 C829 0.930 . S
H842 C830 0.962 . S
H843 C830 0.939 1_455 S
H844 C830 0.966 . S
H845 C831 0.958 . S
H846 C831 0.961 . S
H847 C831 1.013 . S
C848 C849 1.391 . S
C848 C850 1.394 . S
C848 H864 0.931 . S
C849 C848 1.391 . S
C849 C853 1.376 . S
C850 C848 1.394 . S
C850 C851 1.369 . S
C850 C854 1.531 . S
C851 C850 1.369 . S
C851 C852 1.410 . S
C851 C859 1.503 1_545 S
C852 C851 1.410 . S
C852 C853 1.392 . S
C852 C855 1.511 1_545 S
C853 C849 1.376 . S
C853 C852 1.392 . S
C853 H865 0.929 . S
C854 C850 1.531 . S
C854 H866 0.960 1_545 S
C854 H867 0.962 . S
C854 H868 0.960 . S
C855 C852 1.511 1_565 S
C855 H869 0.961 1_565 S
C855 H870 0.961 . S
C855 H871 0.961 . S
C856 C857 1.370 . S
C856 C858 1.363 . S
C856 H872 0.931 . S
C857 C856 1.370 . S
C857 C861 1.408 . S
C858 C856 1.363 . S
C858 C859 1.370 . S
C858 C862 1.524 1_565 S
C859 C851 1.503 1_565 S
C859 C858 1.370 . S
C859 C860 1.403 . S
C860 C859 1.403 . S
C860 C861 1.404 . S
C860 C863 1.539 . S
C861 C857 1.408 . S
C861 C860 1.404 . S
C861 H873 0.930 . S
C862 C858 1.524 1_545 S
C862 H874 0.956 . S
C862 H875 0.961 . S
C862 H876 0.961 . S
C863 C860 1.539 . S
C863 H877 0.958 . S
C863 H878 0.961 . S
C863 H879 0.960 . S
H864 C848 0.931 . S
H865 C853 0.929 . S
H866 C854 0.960 1_565 S
H867 C854 0.962 . S
H868 C854 0.960 . S
H869 C855 0.961 1_545 S
H870 C855 0.961 . S
H871 C855 0.961 . S
H872 C856 0.931 . S
H873 C861 0.930 . S
H874 C862 0.956 . S
H875 C862 0.961 . S
H876 C862 0.961 . S
H877 C863 0.958 . S
H878 C863 0.961 . S
H879 C863 0.960 . S
C880 C881 1.391 . S
C880 C882 1.394 . S
C880 H896 0.931 . S
C881 C880 1.391 . S
C881 C885 1.376 . S
C882 C880 1.394 . S
C882 C883 1.369 . S
C882 C886 1.531 1_554 S
C883 C882 1.369 . S
C883 C884 1.410 . S
C883 C891 1.503 1_554 S
C884 C883 1.410 . S
C884 C885 1.392 . S
C884 C887 1.511 . S
C885 C881 1.376 . S
C885 C884 1.392 . S
C885 H897 0.929 . S
C886 C882 1.531 1_556 S
C886 H898 0.960 . S
C886 H899 0.962 . S
C886 H900 0.960 . S
C887 C884 1.511 . S
C887 H901 0.961 . S
C887 H902 0.961 . S
C887 H903 0.961 . S
C888 C889 1.370 . S
C888 C890 1.363 . S
C888 H904 0.931 . S
C889 C888 1.370 . S
C889 C893 1.408 . S
C890 C888 1.363 . S
C890 C891 1.370 . S
C890 C894 1.524 1_556 S
C891 C883 1.503 1_556 S
C891 C890 1.370 . S
C891 C892 1.403 . S
C892 C891 1.403 . S
C892 C893 1.404 . S
C892 C895 1.539 . S
C893 C889 1.408 . S
C893 C892 1.404 . S
C893 H905 0.930 . S
C894 C890 1.524 1_554 S
C894 H906 0.956 . S
C894 H907 0.961 . S
C894 H908 0.961 . S
C895 C892 1.539 . S
C895 H909 0.958 . S
C895 H910 0.961 . S
C895 H911 0.960 . S
H896 C880 0.931 . S
H897 C885 0.929 . S
H898 C886 0.960 . S
H899 C886 0.962 . S
H900 C886 0.960 . S
H901 C887 0.961 . S
H902 C887 0.961 . S
H903 C887 0.961 . S
H904 C888 0.931 . S
H905 C893 0.930 . S
H906 C894 0.956 . S
H907 C894 0.961 . S
H908 C894 0.961 . S
H909 C895 0.958 . S
H910 C895 0.961 . S
H911 C895 0.960 . S
C912 C913 1.391 . S
C912 C914 1.394 . S
C912 H928 0.931 . S
C913 C912 1.391 . S
C913 C917 1.376 . S
C914 C912 1.394 . S
C914 C915 1.369 . S
C914 C918 1.531 1_556 S
C915 C914 1.369 . S
C915 C916 1.410 . S
C915 C923 1.503 1_556 S
C916 C915 1.410 . S
C916 C917 1.392 . S
C916 C919 1.511 . S
C917 C913 1.376 . S
C917 C916 1.392 . S
C917 H929 0.929 . S
C918 C914 1.531 1_554 S
C918 H930 0.960 . S
C918 H931 0.962 . S
C918 H932 0.960 . S
C919 C916 1.511 . S
C919 H933 0.961 . S
C919 H934 0.961 . S
C919 H935 0.961 . S
C920 C921 1.370 . S
C920 C922 1.363 . S
C920 H936 0.931 . S
C921 C920 1.370 . S
C921 C925 1.408 . S
C922 C920 1.363 . S
C922 C923 1.370 . S
C922 C926 1.524 1_554 S
C923 C915 1.503 1_554 S
C923 C922 1.370 . S
C923 C924 1.403 . S
C924 C923 1.403 . S
C924 C925 1.404 . S
C924 C927 1.539 . S
C925 C921 1.408 . S
C925 C924 1.404 . S
C925 H937 0.930 . S
C926 C922 1.524 1_556 S
C926 H938 0.956 . S
C926 H939 0.961 . S
C926 H940 0.961 . S
C927 C924 1.539 . S
C927 H941 0.958 . S
C927 H942 0.961 . S
C927 H943 0.960 . S
H928 C912 0.931 . S
H929 C917 0.929 . S
H930 C918 0.960 . S
H931 C918 0.962 . S
H932 C918 0.960 . S
H933 C919 0.961 . S
H934 C919 0.961 . S
H935 C919 0.961 . S
H936 C920 0.931 . S
H937 C925 0.930 . S
H938 C926 0.956 . S
H939 C926 0.961 . S
H940 C926 0.961 . S
H941 C927 0.958 . S
H942 C927 0.961 . S
H943 C927 0.960 . S
C944 C945 1.391 . S
C944 C946 1.394 . S
C944 H960 0.931 . S
C945 C944 1.391 . S
C945 C949 1.376 . S
C946 C944 1.394 . S
C946 C947 1.369 . S
C946 C950 1.531 . S
C947 C946 1.369 . S
C947 C948 1.410 . S
C947 C955 1.503 1_556 S
C948 C947 1.410 . S
C948 C949 1.392 . S
C948 C951 1.511 1_556 S
C949 C945 1.376 . S
C949 C948 1.392 . S
C949 H961 0.929 . S
C950 C946 1.531 . S
C950 H962 0.960 . S
C950 H963 0.962 . S
C950 H964 0.960 . S
C951 C948 1.511 1_554 S
C951 H965 0.961 . S
C951 H966 0.961 . S
C951 H967 0.961 . S
C952 C953 1.370 . S
C952 C954 1.363 . S
C952 H968 0.931 . S
C953 C952 1.370 . S
C953 C957 1.408 . S
C954 C952 1.363 . S
C954 C955 1.370 . S
C954 C958 1.524 . S
C955 C947 1.503 1_554 S
C955 C954 1.370 . S
C955 C956 1.403 . S
C956 C955 1.403 . S
C956 C957 1.404 . S
C956 C959 1.539 1_554 S
C957 C953 1.408 . S
C957 C956 1.404 . S
C957 H969 0.930 . S
C958 C954 1.524 . S
C958 H970 0.956 . S
C958 H971 0.961 . S
C958 H972 0.961 . S
C959 C956 1.539 1_556 S
C959 H973 0.958 . S
C959 H974 0.961 . S
C959 H975 0.960 . S
H960 C944 0.931 . S
H961 C949 0.929 . S
H962 C950 0.960 . S
H963 C950 0.962 . S
H964 C950 0.960 . S
H965 C951 0.961 . S
H966 C951 0.961 . S
H967 C951 0.961 . S
H968 C952 0.931 . S
H969 C957 0.930 . S
H970 C958 0.956 . S
H971 C958 0.961 . S
H972 C958 0.961 . S
H973 C959 0.958 . S
H974 C959 0.961 . S
H975 C959 0.960 . S
C976 C977 1.391 . S
C976 C978 1.394 . S
C976 H992 0.931 . S
C977 C976 1.391 . S
C977 C981 1.376 . S
C978 C976 1.394 . S
C978 C979 1.369 . S
C978 C982 1.531 . S
C979 C978 1.369 . S
C979 C980 1.410 . S
C979 C987 1.503 1_556 S
C980 C979 1.410 . S
C980 C981 1.392 . S
C980 C983 1.511 1_556 S
C981 C977 1.376 . S
C981 C980 1.392 . S
C981 H993 0.929 . S
C982 C978 1.531 . S
C982 H994 0.960 1_556 S
C982 H995 0.962 . S
C982 H996 0.960 . S
C983 C980 1.511 1_554 S
C983 H997 0.961 1_554 S
C983 H998 0.961 . S
C983 H999 0.961 . S
C984 C985 1.370 . S
C984 C986 1.363 . S
C984 H1000 0.931 . S
C985 C984 1.370 . S
C985 C989 1.408 . S
C986 C984 1.363 . S
C986 C987 1.370 . S
C986 C990 1.524 1_554 S
C987 C979 1.503 1_554 S
C987 C986 1.370 . S
C987 C988 1.403 . S
C988 C987 1.403 . S
C988 C989 1.404 . S
C988 C991 1.539 . S
C989 C985 1.408 . S
C989 C988 1.404 . S
C989 H1001 0.930 . S
C990 C986 1.524 1_556 S
C990 H1002 0.956 . S
C990 H1003 0.961 . S
C990 H1004 0.961 . S
C991 C988 1.539 . S
C991 H1005 0.958 . S
C991 H1006 0.961 . S
C991 H1007 0.960 . S
H992 C976 0.931 . S
H993 C981 0.929 . S
H994 C982 0.960 1_554 S
H995 C982 0.962 . S
H996 C982 0.960 . S
H997 C983 0.961 1_556 S
H998 C983 0.961 . S
H999 C983 0.961 . S
H1000 C984 0.931 . S
H1001 C989 0.930 . S
H1002 C990 0.956 . S
H1003 C990 0.961 . S
H1004 C990 0.961 . S
H1005 C991 0.958 . S
H1006 C991 0.961 . S
H1007 C991 0.960 . S
C1008 C1009 1.391 . S
C1008 C1010 1.394 . S
C1008 H1024 0.931 . S
C1009 C1008 1.391 . S
C1009 C1013 1.376 . S
C1010 C1008 1.394 . S
C1010 C1011 1.369 . S
C1010 C1014 1.531 . S
C1011 C1010 1.369 . S
C1011 C1012 1.410 . S
C1011 C1019 1.503 . S
C1012 C1011 1.410 . S
C1012 C1013 1.392 . S
C1012 C1015 1.511 . S
C1013 C1009 1.376 . S
C1013 C1012 1.392 . S
C1013 H1025 0.929 . S
C1014 C1010 1.531 . S
C1014 H1026 0.960 . S
C1014 H1027 0.962 . S
C1014 H1028 0.960 . S
C1015 C1012 1.511 . S
C1015 H1029 0.961 . S
C1015 H1030 0.961 . S
C1015 H1031 0.961 . S
C1016 C1017 1.370 . S
C1016 C1018 1.363 . S
C1016 H1032 0.931 . S
C1017 C1016 1.370 . S
C1017 C1021 1.408 . S
C1018 C1016 1.363 . S
C1018 C1019 1.370 . S
C1018 C1022 1.524 . S
C1019 C1011 1.503 . S
C1019 C1018 1.370 . S
C1019 C1020 1.403 . S
C1020 C1019 1.403 . S
C1020 C1021 1.404 . S
C1020 C1023 1.539 . S
C1021 C1017 1.408 . S
C1021 C1020 1.404 . S
C1021 H1033 0.930 . S
C1022 C1018 1.524 . S
C1022 H1034 0.956 . S
C1022 H1035 0.961 . S
C1022 H1036 0.961 . S
C1023 C1020 1.539 . S
C1023 H1037 0.958 . S
C1023 H1038 0.961 . S
C1023 H1039 0.960 . S
H1024 C1008 0.931 . S
H1025 C1013 0.929 . S
H1026 C1014 0.960 . S
H1027 C1014 0.962 . S
H1028 C1014 0.960 . S
H1029 C1015 0.961 . S
H1030 C1015 0.961 . S
H1031 C1015 0.961 . S
H1032 C1016 0.931 . S
H1033 C1021 0.930 . S
H1034 C1022 0.956 . S
H1035 C1022 0.961 . S
H1036 C1022 0.961 . S
H1037 C1023 0.958 . S
H1038 C1023 0.961 . S
H1039 C1023 0.960 . S
C1040 C1041 1.391 . S
C1040 C1042 1.394 . S
C1040 H1056 0.931 . S
C1041 C1040 1.391 . S
C1041 C1045 1.376 . S
C1042 C1040 1.394 . S
C1042 C1043 1.369 . S
C1042 C1046 1.531 . S
C1043 C1042 1.369 . S
C1043 C1044 1.410 . S
C1043 C1051 1.503 . S
C1044 C1043 1.410 . S
C1044 C1045 1.392 . S
C1044 C1047 1.511 . S
C1045 C1041 1.376 . S
C1045 C1044 1.392 . S
C1045 H1057 0.929 . S
C1046 C1042 1.531 . S
C1046 H1058 0.960 . S
C1046 H1059 0.962 . S
C1046 H1060 0.960 . S
C1047 C1044 1.511 . S
C1047 H1061 0.961 . S
C1047 H1062 0.961 . S
C1047 H1063 0.961 . S
C1048 C1049 1.370 . S
C1048 C1050 1.363 . S
C1048 H1064 0.931 . S
C1049 C1048 1.370 . S
C1049 C1053 1.408 . S
C1050 C1048 1.363 . S
C1050 C1051 1.370 . S
C1050 C1054 1.524 . S
C1051 C1043 1.503 . S
C1051 C1050 1.370 . S
C1051 C1052 1.403 . S
C1052 C1051 1.403 . S
C1052 C1053 1.404 . S
C1052 C1055 1.539 . S
C1053 C1049 1.408 . S
C1053 C1052 1.404 . S
C1053 H1065 0.930 . S
C1054 C1050 1.524 . S
C1054 H1066 0.956 . S
C1054 H1067 0.961 . S
C1054 H1068 0.961 . S
C1055 C1052 1.539 . S
C1055 H1069 0.958 . S
C1055 H1070 0.961 . S
C1055 H1071 0.960 . S
H1056 C1040 0.931 . S
H1057 C1045 0.929 . S
H1058 C1046 0.960 . S
H1059 C1046 0.962 . S
H1060 C1046 0.960 . S
H1061 C1047 0.961 . S
H1062 C1047 0.961 . S
H1063 C1047 0.961 . S
H1064 C1048 0.931 . S
H1065 C1053 0.930 . S
H1066 C1054 0.956 . S
H1067 C1054 0.961 . S
H1068 C1054 0.961 . S
H1069 C1055 0.958 . S
H1070 C1055 0.961 . S
H1071 C1055 0.960 . S
C1072 C1073 1.391 . S
C1072 C1074 1.394 . S
C1072 H1088 0.931 . S
C1073 C1072 1.391 . S
C1073 C1077 1.376 . S
C1074 C1072 1.394 . S
C1074 C1075 1.369 . S
C1074 C1078 1.531 . S
C1075 C1074 1.369 . S
C1075 C1076 1.410 . S
C1075 C1083 1.503 . S
C1076 C1075 1.410 . S
C1076 C1077 1.392 . S
C1076 C1079 1.511 . S
C1077 C1073 1.376 . S
C1077 C1076 1.392 . S
C1077 H1089 0.929 . S
C1078 C1074 1.531 . S
C1078 H1090 0.960 . S
C1078 H1091 0.962 . S
C1078 H1092 0.960 . S
C1079 C1076 1.511 . S
C1079 H1093 0.961 . S
C1079 H1094 0.961 . S
C1079 H1095 0.961 . S
C1080 C1081 1.370 . S
C1080 C1082 1.363 . S
C1080 H1096 0.931 . S
C1081 C1080 1.370 . S
C1081 C1085 1.408 . S
C1082 C1080 1.363 . S
C1082 C1083 1.370 . S
C1082 C1086 1.524 . S
C1083 C1075 1.503 . S
C1083 C1082 1.370 . S
C1083 C1084 1.403 . S
C1084 C1083 1.403 . S
C1084 C1085 1.404 . S
C1084 C1087 1.539 . S
C1085 C1081 1.408 . S
C1085 C1084 1.404 . S
C1085 H1097 0.930 . S
C1086 C1082 1.524 . S
C1086 H1098 0.956 . S
C1086 H1099 0.961 . S
C1086 H1100 0.961 . S
C1087 C1084 1.539 . S
C1087 H1101 0.958 . S
C1087 H1102 0.961 . S
C1087 H1103 0.960 . S
H1088 C1072 0.931 . S
H1089 C1077 0.929 . S
H1090 C1078 0.960 . S
H1091 C1078 0.962 . S
H1092 C1078 0.960 . S
H1093 C1079 0.961 . S
H1094 C1079 0.961 . S
H1095 C1079 0.961 . S
H1096 C1080 0.931 . S
H1097 C1085 0.930 . S
H1098 C1086 0.956 . S
H1099 C1086 0.961 . S
H1100 C1086 0.961 . S
H1101 C1087 0.958 . S
H1102 C1087 0.961 . S
H1103 C1087 0.960 . S
C1104 C1105 1.391 . S
C1104 C1106 1.394 . S
C1104 H1120 0.931 . S
C1105 C1104 1.391 . S
C1105 C1109 1.376 . S
C1106 C1104 1.394 . S
C1106 C1107 1.369 . S
C1106 C1110 1.531 . S
C1107 C1106 1.369 . S
C1107 C1108 1.410 . S
C1107 C1115 1.503 . S
C1108 C1107 1.410 . S
C1108 C1109 1.392 . S
C1108 C1111 1.511 . S
C1109 C1105 1.376 . S
C1109 C1108 1.392 . S
C1109 H1121 0.929 . S
C1110 C1106 1.531 . S
C1110 H1122 0.960 . S
C1110 H1123 0.962 . S
C1110 H1124 0.960 . S
C1111 C1108 1.511 . S
C1111 H1125 0.961 . S
C1111 H1126 0.961 . S
C1111 H1127 0.961 . S
C1112 C1113 1.370 . S
C1112 C1114 1.363 . S
C1112 H1128 0.931 . S
C1113 C1112 1.370 . S
C1113 C1117 1.408 . S
C1114 C1112 1.363 . S
C1114 C1115 1.370 . S
C1114 C1118 1.524 . S
C1115 C1107 1.503 . S
C1115 C1114 1.370 . S
C1115 C1116 1.403 . S
C1116 C1115 1.403 . S
C1116 C1117 1.404 . S
C1116 C1119 1.539 . S
C1117 C1113 1.408 . S
C1117 C1116 1.404 . S
C1117 H1129 0.930 . S
C1118 C1114 1.524 . S
C1118 H1130 0.956 . S
C1118 H1131 0.961 . S
C1118 H1132 0.961 . S
C1119 C1116 1.539 . S
C1119 H1133 0.958 . S
C1119 H1134 0.961 . S
C1119 H1135 0.960 . S
H1120 C1104 0.931 . S
H1121 C1109 0.929 . S
H1122 C1110 0.960 . S
H1123 C1110 0.962 . S
H1124 C1110 0.960 . S
H1125 C1111 0.961 . S
H1126 C1111 0.961 . S
H1127 C1111 0.961 . S
H1128 C1112 0.931 . S
H1129 C1117 0.930 . S
H1130 C1118 0.956 . S
H1131 C1118 0.961 . S
H1132 C1118 0.961 . S
H1133 C1119 0.958 . S
H1134 C1119 0.961 . S
H1135 C1119 0.960 . S
C1136 C1137 1.391 . S
C1136 C1138 1.394 . S
C1136 H1152 0.931 . S
C1137 C1136 1.391 . S
C1137 C1141 1.376 . S
C1138 C1136 1.394 . S
C1138 C1139 1.369 . S
C1138 C1142 1.531 . S
C1139 C1138 1.369 . S
C1139 C1140 1.410 . S
C1139 C1147 1.503 . S
C1140 C1139 1.410 . S
C1140 C1141 1.392 . S
C1140 C1143 1.511 . S
C1141 C1137 1.376 . S
C1141 C1140 1.392 . S
C1141 H1153 0.929 . S
C1142 C1138 1.531 . S
C1142 H1154 0.960 . S
C1142 H1155 0.962 . S
C1142 H1156 0.960 . S
C1143 C1140 1.511 . S
C1143 H1157 0.961 . S
C1143 H1158 0.961 . S
C1143 H1159 0.961 . S
C1144 C1145 1.370 . S
C1144 C1146 1.363 . S
C1144 H1160 0.931 . S
C1145 C1144 1.370 . S
C1145 C1149 1.408 . S
C1146 C1144 1.363 . S
C1146 C1147 1.370 . S
C1146 C1150 1.524 . S
C1147 C1139 1.503 . S
C1147 C1146 1.370 . S
C1147 C1148 1.403 . S
C1148 C1147 1.403 . S
C1148 C1149 1.404 . S
C1148 C1151 1.539 . S
C1149 C1145 1.408 . S
C1149 C1148 1.404 . S
C1149 H1161 0.930 . S
C1150 C1146 1.524 . S
C1150 H1162 0.956 . S
C1150 H1163 0.961 . S
C1150 H1164 0.961 . S
C1151 C1148 1.539 . S
C1151 H1165 0.958 . S
C1151 H1166 0.961 . S
C1151 H1167 0.960 . S
H1152 C1136 0.931 . S
H1153 C1141 0.929 . S
H1154 C1142 0.960 . S
H1155 C1142 0.962 . S
H1156 C1142 0.960 . S
H1157 C1143 0.961 . S
H1158 C1143 0.961 . S
H1159 C1143 0.961 . S
H1160 C1144 0.931 . S
H1161 C1149 0.930 . S
H1162 C1150 0.956 . S
H1163 C1150 0.961 . S
H1164 C1150 0.961 . S
H1165 C1151 0.958 . S
H1166 C1151 0.961 . S
H1167 C1151 0.960 . S
C1168 C1169 1.391 . S
C1168 C1170 1.394 . S
C1168 H1184 0.931 . S
C1169 C1168 1.391 . S
C1169 C1173 1.376 . S
C1170 C1168 1.394 . S
C1170 C1171 1.369 . S
C1170 C1174 1.531 . S
C1171 C1170 1.369 . S
C1171 C1172 1.410 . S
C1171 C1179 1.503 . S
C1172 C1171 1.410 . S
C1172 C1173 1.392 . S
C1172 C1175 1.511 . S
C1173 C1169 1.376 . S
C1173 C1172 1.392 . S
C1173 H1185 0.929 . S
C1174 C1170 1.531 . S
C1174 H1186 0.960 . S
C1174 H1187 0.962 . S
C1174 H1188 0.960 . S
C1175 C1172 1.511 . S
C1175 H1189 0.961 . S
C1175 H1190 0.961 . S
C1175 H1191 0.961 . S
C1176 C1177 1.370 . S
C1176 C1178 1.363 . S
C1176 H1192 0.931 . S
C1177 C1176 1.370 . S
C1177 C1181 1.408 . S
C1178 C1176 1.363 . S
C1178 C1179 1.370 . S
C1178 C1182 1.524 . S
C1179 C1171 1.503 . S
C1179 C1178 1.370 . S
C1179 C1180 1.403 . S
C1180 C1179 1.403 . S
C1180 C1181 1.404 . S
C1180 C1183 1.539 . S
C1181 C1177 1.408 . S
C1181 C1180 1.404 . S
C1181 H1193 0.930 . S
C1182 C1178 1.524 . S
C1182 H1194 0.956 . S
C1182 H1195 0.961 . S
C1182 H1196 0.961 . S
C1183 C1180 1.539 . S
C1183 H1197 0.958 . S
C1183 H1198 0.961 . S
C1183 H1199 0.960 . S
H1184 C1168 0.931 . S
H1185 C1173 0.929 . S
H1186 C1174 0.960 . S
H1187 C1174 0.962 . S
H1188 C1174 0.960 . S
H1189 C1175 0.961 . S
H1190 C1175 0.961 . S
H1191 C1175 0.961 . S
H1192 C1176 0.931 . S
H1193 C1181 0.930 . S
H1194 C1182 0.956 . S
H1195 C1182 0.961 . S
H1196 C1182 0.961 . S
H1197 C1183 0.958 . S
H1198 C1183 0.961 . S
H1199 C1183 0.960 . S
C1200 C1201 1.391 . S
C1200 C1202 1.394 . S
C1200 H1216 0.931 . S
C1201 C1200 1.391 . S
C1201 C1205 1.376 . S
C1202 C1200 1.394 . S
C1202 C1203 1.369 . S
C1202 C1206 1.531 . S
C1203 C1202 1.369 . S
C1203 C1204 1.410 . S
C1203 C1211 1.503 . S
C1204 C1203 1.410 . S
C1204 C1205 1.392 . S
C1204 C1207 1.511 . S
C1205 C1201 1.376 . S
C1205 C1204 1.392 . S
C1205 H1217 0.929 . S
C1206 C1202 1.531 . S
C1206 H1218 0.960 . S
C1206 H1219 0.962 . S
C1206 H1220 0.960 . S
C1207 C1204 1.511 . S
C1207 H1221 0.961 . S
C1207 H1222 0.961 . S
C1207 H1223 0.961 . S
C1208 C1209 1.370 . S
C1208 C1210 1.363 . S
C1208 H1224 0.931 . S
C1209 C1208 1.370 . S
C1209 C1213 1.408 . S
C1210 C1208 1.363 . S
C1210 C1211 1.370 . S
C1210 C1214 1.524 . S
C1211 C1203 1.503 . S
C1211 C1210 1.370 . S
C1211 C1212 1.403 . S
C1212 C1211 1.403 . S
C1212 C1213 1.404 . S
C1212 C1215 1.539 . S
C1213 C1209 1.408 . S
C1213 C1212 1.404 . S
C1213 H1225 0.930 . S
C1214 C1210 1.524 . S
C1214 H1226 0.956 . S
C1214 H1227 0.961 . S
C1214 H1228 0.961 . S
C1215 C1212 1.539 . S
C1215 H1229 0.958 . S
C1215 H1230 0.961 . S
C1215 H1231 0.960 . S
H1216 C1200 0.931 . S
H1217 C1205 0.929 . S
H1218 C1206 0.960 . S
H1219 C1206 0.962 . S
H1220 C1206 0.960 . S
H1221 C1207 0.961 . S
H1222 C1207 0.961 . S
H1223 C1207 0.961 . S
H1224 C1208 0.931 . S
H1225 C1213 0.930 . S
H1226 C1214 0.956 . S
H1227 C1214 0.961 . S
H1228 C1214 0.961 . S
H1229 C1215 0.958 . S
H1230 C1215 0.961 . S
H1231 C1215 0.960 . S
C1232 C1233 1.391 . S
C1232 C1234 1.394 . S
C1232 H1248 0.931 . S
C1233 C1232 1.391 . S
C1233 C1237 1.376 . S
C1234 C1232 1.394 . S
C1234 C1235 1.369 . S
C1234 C1238 1.531 . S
C1235 C1234 1.369 . S
C1235 C1236 1.410 . S
C1235 C1243 1.503 . S
C1236 C1235 1.410 . S
C1236 C1237 1.392 . S
C1236 C1239 1.511 . S
C1237 C1233 1.376 . S
C1237 C1236 1.392 . S
C1237 H1249 0.929 . S
C1238 C1234 1.531 . S
C1238 H1250 0.960 . S
C1238 H1251 0.962 . S
C1238 H1252 0.960 . S
C1239 C1236 1.511 . S
C1239 H1253 0.961 . S
C1239 H1254 0.961 . S
C1239 H1255 0.961 . S
C1240 C1241 1.370 . S
C1240 C1242 1.363 . S
C1240 H1256 0.931 . S
C1241 C1240 1.370 . S
C1241 C1245 1.408 . S
C1242 C1240 1.363 . S
C1242 C1243 1.370 . S
C1242 C1246 1.524 . S
C1243 C1235 1.503 . S
C1243 C1242 1.370 . S
C1243 C1244 1.403 . S
C1244 C1243 1.403 . S
C1244 C1245 1.404 . S
C1244 C1247 1.539 . S
C1245 C1241 1.408 . S
C1245 C1244 1.404 . S
C1245 H1257 0.930 . S
C1246 C1242 1.524 . S
C1246 H1258 0.956 . S
C1246 H1259 0.961 . S
C1246 H1260 0.961 . S
C1247 C1244 1.539 . S
C1247 H1261 0.958 . S
C1247 H1262 0.961 . S
C1247 H1263 0.960 . S
H1248 C1232 0.931 . S
H1249 C1237 0.929 . S
H1250 C1238 0.960 . S
H1251 C1238 0.962 . S
H1252 C1238 0.960 . S
H1253 C1239 0.961 . S
H1254 C1239 0.961 . S
H1255 C1239 0.961 . S
H1256 C1240 0.931 . S
H1257 C1245 0.930 . S
H1258 C1246 0.956 . S
H1259 C1246 0.961 . S
H1260 C1246 0.961 . S
H1261 C1247 0.958 . S
H1262 C1247 0.961 . S
H1263 C1247 0.960 . S
C1264 C1265 1.391 . S
C1264 C1266 1.394 . S
C1264 H1280 0.931 . S
C1265 C1264 1.391 . S
C1265 C1269 1.376 . S
C1266 C1264 1.394 . S
C1266 C1267 1.369 . S
C1266 C1270 1.531 . S
C1267 C1266 1.369 . S
C1267 C1268 1.410 . S
C1267 C1275 1.503 . S
C1268 C1267 1.410 . S
C1268 C1269 1.392 . S
C1268 C1271 1.511 . S
C1269 C1265 1.376 . S
C1269 C1268 1.392 . S
C1269 H1281 0.929 . S
C1270 C1266 1.531 . S
C1270 H1282 0.960 . S
C1270 H1283 0.962 . S
C1270 H1284 0.960 . S
C1271 C1268 1.511 . S
C1271 H1285 0.961 . S
C1271 H1286 0.961 . S
C1271 H1287 0.961 . S
C1272 C1273 1.370 . S
C1272 C1274 1.363 . S
C1272 H1288 0.931 . S
C1273 C1272 1.370 . S
C1273 C1277 1.408 . S
C1274 C1272 1.363 . S
C1274 C1275 1.370 . S
C1274 C1278 1.524 . S
C1275 C1267 1.503 . S
C1275 C1274 1.370 . S
C1275 C1276 1.403 . S
C1276 C1275 1.403 . S
C1276 C1277 1.404 . S
C1276 C1279 1.539 . S
C1277 C1273 1.408 . S
C1277 C1276 1.404 . S
C1277 H1289 0.930 . S
C1278 C1274 1.524 . S
C1278 H1290 0.956 . S
C1278 H1291 0.961 . S
C1278 H1292 0.961 . S
C1279 C1276 1.539 . S
C1279 H1293 0.958 . S
C1279 H1294 0.961 . S
C1279 H1295 0.960 . S
H1280 C1264 0.931 . S
H1281 C1269 0.929 . S
H1282 C1270 0.960 . S
H1283 C1270 0.962 . S
H1284 C1270 0.960 . S
H1285 C1271 0.961 . S
H1286 C1271 0.961 . S
H1287 C1271 0.961 . S
H1288 C1272 0.931 . S
H1289 C1277 0.930 . S
H1290 C1278 0.956 . S
H1291 C1278 0.961 . S
H1292 C1278 0.961 . S
H1293 C1279 0.958 . S
H1294 C1279 0.961 . S
H1295 C1279 0.960 . S
C1296 C1297 1.391 . S
C1296 C1298 1.394 . S
C1296 H1312 0.931 . S
C1297 C1296 1.391 . S
C1297 C1301 1.376 . S
C1298 C1296 1.394 . S
C1298 C1299 1.369 . S
C1298 C1302 1.531 . S
C1299 C1298 1.369 . S
C1299 C1300 1.410 . S
C1299 C1307 1.503 . S
C1300 C1299 1.410 . S
C1300 C1301 1.392 . S
C1300 C1303 1.511 . S
C1301 C1297 1.376 . S
C1301 C1300 1.392 . S
C1301 H1313 0.929 . S
C1302 C1298 1.531 . S
C1302 H1314 0.960 . S
C1302 H1315 0.962 . S
C1302 H1316 0.960 . S
C1303 C1300 1.511 . S
C1303 H1317 0.961 . S
C1303 H1318 0.961 . S
C1303 H1319 0.961 . S
C1304 C1305 1.370 . S
C1304 C1306 1.363 . S
C1304 H1320 0.931 . S
C1305 C1304 1.370 . S
C1305 C1309 1.408 . S
C1306 C1304 1.363 . S
C1306 C1307 1.370 . S
C1306 C1310 1.524 . S
C1307 C1299 1.503 . S
C1307 C1306 1.370 . S
C1307 C1308 1.403 . S
C1308 C1307 1.403 . S
C1308 C1309 1.404 . S
C1308 C1311 1.539 . S
C1309 C1305 1.408 . S
C1309 C1308 1.404 . S
C1309 H1321 0.930 . S
C1310 C1306 1.524 . S
C1310 H1322 0.956 . S
C1310 H1323 0.961 . S
C1310 H1324 0.961 . S
C1311 C1308 1.539 . S
C1311 H1325 0.958 . S
C1311 H1326 0.961 . S
C1311 H1327 0.960 . S
H1312 C1296 0.931 . S
H1313 C1301 0.929 . S
H1314 C1302 0.960 . S
H1315 C1302 0.962 . S
H1316 C1302 0.960 . S
H1317 C1303 0.961 . S
H1318 C1303 0.961 . S
H1319 C1303 0.961 . S
H1320 C1304 0.931 . S
H1321 C1309 0.930 . S
H1322 C1310 0.956 . S
H1323 C1310 0.961 . S
H1324 C1310 0.961 . S
H1325 C1311 0.958 . S
H1326 C1311 0.961 . S
H1327 C1311 0.960 . S
C1328 C1329 1.391 . S
C1328 C1330 1.394 . S
C1328 H1344 0.931 . S
C1329 C1328 1.391 . S
C1329 C1333 1.376 . S
C1330 C1328 1.394 . S
C1330 C1331 1.369 . S
C1330 C1334 1.531 . S
C1331 C1330 1.369 . S
C1331 C1332 1.410 . S
C1331 C1339 1.503 . S
C1332 C1331 1.410 . S
C1332 C1333 1.392 . S
C1332 C1335 1.511 . S
C1333 C1329 1.376 . S
C1333 C1332 1.392 . S
C1333 H1345 0.929 . S
C1334 C1330 1.531 . S
C1334 H1346 0.960 . S
C1334 H1347 0.962 . S
C1334 H1348 0.960 . S
C1335 C1332 1.511 . S
C1335 H1349 0.961 . S
C1335 H1350 0.961 . S
C1335 H1351 0.961 . S
C1336 C1337 1.370 . S
C1336 C1338 1.363 . S
C1336 H1352 0.931 . S
C1337 C1336 1.370 . S
C1337 C1341 1.408 . S
C1338 C1336 1.363 . S
C1338 C1339 1.370 . S
C1338 C1342 1.524 . S
C1339 C1331 1.503 . S
C1339 C1338 1.370 . S
C1339 C1340 1.403 . S
C1340 C1339 1.403 . S
C1340 C1341 1.404 . S
C1340 C1343 1.539 . S
C1341 C1337 1.408 . S
C1341 C1340 1.404 . S
C1341 H1353 0.930 . S
C1342 C1338 1.524 . S
C1342 H1354 0.956 . S
C1342 H1355 0.961 . S
C1342 H1356 0.961 . S
C1343 C1340 1.539 . S
C1343 H1357 0.958 . S
C1343 H1358 0.961 . S
C1343 H1359 0.960 . S
H1344 C1328 0.931 . S
H1345 C1333 0.929 . S
H1346 C1334 0.960 . S
H1347 C1334 0.962 . S
H1348 C1334 0.960 . S
H1349 C1335 0.961 . S
H1350 C1335 0.961 . S
H1351 C1335 0.961 . S
H1352 C1336 0.931 . S
H1353 C1341 0.930 . S
H1354 C1342 0.956 . S
H1355 C1342 0.961 . S
H1356 C1342 0.961 . S
H1357 C1343 0.958 . S
H1358 C1343 0.961 . S
H1359 C1343 0.960 . S
C1360 C1361 1.391 . S
C1360 C1362 1.394 . S
C1360 H1376 0.931 . S
C1361 C1360 1.391 . S
C1361 C1365 1.376 . S
C1362 C1360 1.394 . S
C1362 C1363 1.369 . S
C1362 C1366 1.531 . S
C1363 C1362 1.369 . S
C1363 C1364 1.410 . S
C1363 C1371 1.503 . S
C1364 C1363 1.410 . S
C1364 C1365 1.392 . S
C1364 C1367 1.511 . S
C1365 C1361 1.376 . S
C1365 C1364 1.392 . S
C1365 H1377 0.929 . S
C1366 C1362 1.531 . S
C1366 H1378 0.960 . S
C1366 H1379 0.962 . S
C1366 H1380 0.960 . S
C1367 C1364 1.511 . S
C1367 H1381 0.961 . S
C1367 H1382 0.961 . S
C1367 H1383 0.961 . S
C1368 C1369 1.370 . S
C1368 C1370 1.363 . S
C1368 H1384 0.931 . S
C1369 C1368 1.370 . S
C1369 C1373 1.408 . S
C1370 C1368 1.363 . S
C1370 C1371 1.370 . S
C1370 C1374 1.524 . S
C1371 C1363 1.503 . S
C1371 C1370 1.370 . S
C1371 C1372 1.403 . S
C1372 C1371 1.403 . S
C1372 C1373 1.404 . S
C1372 C1375 1.539 . S
C1373 C1369 1.408 . S
C1373 C1372 1.404 . S
C1373 H1385 0.930 . S
C1374 C1370 1.524 . S
C1374 H1386 0.956 . S
C1374 H1387 0.961 . S
C1374 H1388 0.961 . S
C1375 C1372 1.539 . S
C1375 H1389 0.958 . S
C1375 H1390 0.961 . S
C1375 H1391 0.960 . S
H1376 C1360 0.931 . S
H1377 C1365 0.929 . S
H1378 C1366 0.960 . S
H1379 C1366 0.962 . S
H1380 C1366 0.960 . S
H1381 C1367 0.961 . S
H1382 C1367 0.961 . S
H1383 C1367 0.961 . S
H1384 C1368 0.931 . S
H1385 C1373 0.930 . S
H1386 C1374 0.956 . S
H1387 C1374 0.961 . S
H1388 C1374 0.961 . S
H1389 C1375 0.958 . S
H1390 C1375 0.961 . S
H1391 C1375 0.960 . S
C1392 C1393 1.391 . S
C1392 C1394 1.394 . S
C1392 H1408 0.931 . S
C1393 C1392 1.391 . S
C1393 C1397 1.376 . S
C1394 C1392 1.394 . S
C1394 C1395 1.369 . S
C1394 C1398 1.531 . S
C1395 C1394 1.369 . S
C1395 C1396 1.410 . S
C1395 C1403 1.503 . S
C1396 C1395 1.410 . S
C1396 C1397 1.392 . S
C1396 C1399 1.511 . S
C1397 C1393 1.376 . S
C1397 C1396 1.392 . S
C1397 H1409 0.929 . S
C1398 C1394 1.531 . S
C1398 H1410 0.960 . S
C1398 H1411 0.962 . S
C1398 H1412 0.960 . S
C1399 C1396 1.511 . S
C1399 H1413 0.961 . S
C1399 H1414 0.961 . S
C1399 H1415 0.961 . S
C1400 C1401 1.370 . S
C1400 C1402 1.363 . S
C1400 H1416 0.931 . S
C1401 C1400 1.370 . S
C1401 C1405 1.408 . S
C1402 C1400 1.363 . S
C1402 C1403 1.370 . S
C1402 C1406 1.524 . S
C1403 C1395 1.503 . S
C1403 C1402 1.370 . S
C1403 C1404 1.403 . S
C1404 C1403 1.403 . S
C1404 C1405 1.404 . S
C1404 C1407 1.539 . S
C1405 C1401 1.408 . S
C1405 C1404 1.404 . S
C1405 H1417 0.930 . S
C1406 C1402 1.524 . S
C1406 H1418 0.956 . S
C1406 H1419 0.961 . S
C1406 H1420 0.961 . S
C1407 C1404 1.539 . S
C1407 H1421 0.958 . S
C1407 H1422 0.961 . S
C1407 H1423 0.960 . S
H1408 C1392 0.931 . S
H1409 C1397 0.929 . S
H1410 C1398 0.960 . S
H1411 C1398 0.962 . S
H1412 C1398 0.960 . S
H1413 C1399 0.961 . S
H1414 C1399 0.961 . S
H1415 C1399 0.961 . S
H1416 C1400 0.931 . S
H1417 C1405 0.930 . S
H1418 C1406 0.956 . S
H1419 C1406 0.961 . S
H1420 C1406 0.961 . S
H1421 C1407 0.958 . S
H1422 C1407 0.961 . S
H1423 C1407 0.960 . S
C1424 C1425 1.391 . S
C1424 C1426 1.394 . S
C1424 H1440 0.931 . S
C1425 C1424 1.391 . S
C1425 C1429 1.376 . S
C1426 C1424 1.394 . S
C1426 C1427 1.369 . S
C1426 C1430 1.531 . S
C1427 C1426 1.369 . S
C1427 C1428 1.410 . S
C1427 C1435 1.503 . S
C1428 C1427 1.410 . S
C1428 C1429 1.392 . S
C1428 C1431 1.511 . S
C1429 C1425 1.376 . S
C1429 C1428 1.392 . S
C1429 H1441 0.929 . S
C1430 C1426 1.531 . S
C1430 H1442 0.960 . S
C1430 H1443 0.962 . S
C1430 H1444 0.960 . S
C1431 C1428 1.511 . S
C1431 H1445 0.961 . S
C1431 H1446 0.961 . S
C1431 H1447 0.961 . S
C1432 C1433 1.370 . S
C1432 C1434 1.363 . S
C1432 H1448 0.931 . S
C1433 C1432 1.370 . S
C1433 C1437 1.408 . S
C1434 C1432 1.363 . S
C1434 C1435 1.370 . S
C1434 C1438 1.524 . S
C1435 C1427 1.503 . S
C1435 C1434 1.370 . S
C1435 C1436 1.403 . S
C1436 C1435 1.403 . S
C1436 C1437 1.404 . S
C1436 C1439 1.539 . S
C1437 C1433 1.408 . S
C1437 C1436 1.404 . S
C1437 H1449 0.930 . S
C1438 C1434 1.524 . S
C1438 H1450 0.956 . S
C1438 H1451 0.961 . S
C1438 H1452 0.961 . S
C1439 C1436 1.539 . S
C1439 H1453 0.958 . S
C1439 H1454 0.961 . S
C1439 H1455 0.960 . S
H1440 C1424 0.931 . S
H1441 C1429 0.929 . S
H1442 C1430 0.960 . S
H1443 C1430 0.962 . S
H1444 C1430 0.960 . S
H1445 C1431 0.961 . S
H1446 C1431 0.961 . S
H1447 C1431 0.961 . S
H1448 C1432 0.931 . S
H1449 C1437 0.930 . S
H1450 C1438 0.956 . S
H1451 C1438 0.961 . S
H1452 C1438 0.961 . S
H1453 C1439 0.958 . S
H1454 C1439 0.961 . S
H1455 C1439 0.960 . S
C1456 C1457 1.391 . S
C1456 C1458 1.394 . S
C1456 H1472 0.931 . S
C1457 C1456 1.391 . S
C1457 C1461 1.376 . S
C1458 C1456 1.394 . S
C1458 C1459 1.369 . S
C1458 C1462 1.531 . S
C1459 C1458 1.369 . S
C1459 C1460 1.410 . S
C1459 C1467 1.503 . S
C1460 C1459 1.410 . S
C1460 C1461 1.392 . S
C1460 C1463 1.511 . S
C1461 C1457 1.376 . S
C1461 C1460 1.392 . S
C1461 H1473 0.929 . S
C1462 C1458 1.531 . S
C1462 H1474 0.960 . S
C1462 H1475 0.962 . S
C1462 H1476 0.960 . S
C1463 C1460 1.511 . S
C1463 H1477 0.961 . S
C1463 H1478 0.961 . S
C1463 H1479 0.961 . S
C1464 C1465 1.370 . S
C1464 C1466 1.363 . S
C1464 H1480 0.931 . S
C1465 C1464 1.370 . S
C1465 C1469 1.408 . S
C1466 C1464 1.363 . S
C1466 C1467 1.370 . S
C1466 C1470 1.524 . S
C1467 C1459 1.503 . S
C1467 C1466 1.370 . S
C1467 C1468 1.403 . S
C1468 C1467 1.403 . S
C1468 C1469 1.404 . S
C1468 C1471 1.539 . S
C1469 C1465 1.408 . S
C1469 C1468 1.404 . S
C1469 H1481 0.930 . S
C1470 C1466 1.524 . S
C1470 H1482 0.956 . S
C1470 H1483 0.961 . S
C1470 H1484 0.961 . S
C1471 C1468 1.539 . S
C1471 H1485 0.958 . S
C1471 H1486 0.961 . S
C1471 H1487 0.960 . S
H1472 C1456 0.931 . S
H1473 C1461 0.929 . S
H1474 C1462 0.960 . S
H1475 C1462 0.962 . S
H1476 C1462 0.960 . S
H1477 C1463 0.961 . S
H1478 C1463 0.961 . S
H1479 C1463 0.961 . S
H1480 C1464 0.931 . S
H1481 C1469 0.930 . S
H1482 C1470 0.956 . S
H1483 C1470 0.961 . S
H1484 C1470 0.961 . S
H1485 C1471 0.958 . S
H1486 C1471 0.961 . S
H1487 C1471 0.960 . S
C1488 C1489 1.391 . S
C1488 C1490 1.394 . S
C1488 H1504 0.931 . S
C1489 C1488 1.391 . S
C1489 C1493 1.376 . S
C1490 C1488 1.394 . S
C1490 C1491 1.369 . S
C1490 C1494 1.531 . S
C1491 C1490 1.369 . S
C1491 C1492 1.410 . S
C1491 C1499 1.503 . S
C1492 C1491 1.410 . S
C1492 C1493 1.392 . S
C1492 C1495 1.511 . S
C1493 C1489 1.376 . S
C1493 C1492 1.392 . S
C1493 H1505 0.929 . S
C1494 C1490 1.531 . S
C1494 H1506 0.960 . S
C1494 H1507 0.962 . S
C1494 H1508 0.960 . S
C1495 C1492 1.511 . S
C1495 H1509 0.961 . S
C1495 H1510 0.961 . S
C1495 H1511 0.961 . S
C1496 C1497 1.370 . S
C1496 C1498 1.363 . S
C1496 H1512 0.931 . S
C1497 C1496 1.370 . S
C1497 C1501 1.408 . S
C1498 C1496 1.363 . S
C1498 C1499 1.370 . S
C1498 C1502 1.524 . S
C1499 C1491 1.503 . S
C1499 C1498 1.370 . S
C1499 C1500 1.403 . S
C1500 C1499 1.403 . S
C1500 C1501 1.404 . S
C1500 C1503 1.539 . S
C1501 C1497 1.408 . S
C1501 C1500 1.404 . S
C1501 H1513 0.930 . S
C1502 C1498 1.524 . S
C1502 H1514 0.956 . S
C1502 H1515 0.961 . S
C1502 H1516 0.961 . S
C1503 C1500 1.539 . S
C1503 H1517 0.958 . S
C1503 H1518 0.961 . S
C1503 H1519 0.960 . S
H1504 C1488 0.931 . S
H1505 C1493 0.929 . S
H1506 C1494 0.960 . S
H1507 C1494 0.962 . S
H1508 C1494 0.960 . S
H1509 C1495 0.961 . S
H1510 C1495 0.961 . S
H1511 C1495 0.961 . S
H1512 C1496 0.931 . S
H1513 C1501 0.930 . S
H1514 C1502 0.956 . S
H1515 C1502 0.961 . S
H1516 C1502 0.961 . S
H1517 C1503 0.958 . S
H1518 C1503 0.961 . S
H1519 C1503 0.960 . S
C1520 C1521 1.391 . S
C1520 C1522 1.394 . S
C1520 H1536 0.931 . S
C1521 C1520 1.391 . S
C1521 C1525 1.376 . S
C1522 C1520 1.394 . S
C1522 C1523 1.369 . S
C1522 C1526 1.531 . S
C1523 C1522 1.369 . S
C1523 C1524 1.410 . S
C1523 C1531 1.503 . S
C1524 C1523 1.410 . S
C1524 C1525 1.392 . S
C1524 C1527 1.511 . S
C1525 C1521 1.376 . S
C1525 C1524 1.392 . S
C1525 H1537 0.929 . S
C1526 C1522 1.531 . S
C1526 H1538 0.960 . S
C1526 H1539 0.962 . S
C1526 H1540 0.960 . S
C1527 C1524 1.511 . S
C1527 H1541 0.961 . S
C1527 H1542 0.961 . S
C1527 H1543 0.961 . S
C1528 C1529 1.370 . S
C1528 C1530 1.363 . S
C1528 H1544 0.931 . S
C1529 C1528 1.370 . S
C1529 C1533 1.408 . S
C1530 C1528 1.363 . S
C1530 C1531 1.370 . S
C1530 C1534 1.524 . S
C1531 C1523 1.503 . S
C1531 C1530 1.370 . S
C1531 C1532 1.403 . S
C1532 C1531 1.403 . S
C1532 C1533 1.404 . S
C1532 C1535 1.539 . S
C1533 C1529 1.408 . S
C1533 C1532 1.404 . S
C1533 H1545 0.930 . S
C1534 C1530 1.524 . S
C1534 H1546 0.956 . S
C1534 H1547 0.961 . S
C1534 H1548 0.961 . S
C1535 C1532 1.539 . S
C1535 H1549 0.958 . S
C1535 H1550 0.961 . S
C1535 H1551 0.960 . S
H1536 C1520 0.931 . S
H1537 C1525 0.929 . S
H1538 C1526 0.960 . S
H1539 C1526 0.962 . S
H1540 C1526 0.960 . S
H1541 C1527 0.961 . S
H1542 C1527 0.961 . S
H1543 C1527 0.961 . S
H1544 C1528 0.931 . S
H1545 C1533 0.930 . S
H1546 C1534 0.956 . S
H1547 C1534 0.961 . S
H1548 C1534 0.961 . S
H1549 C1535 0.958 . S
H1550 C1535 0.961 . S
H1551 C1535 0.960 . S
C1552 C1553 1.391 . S
C1552 C1554 1.394 . S
C1552 H1568 0.931 . S
C1553 C1552 1.391 . S
C1553 C1557 1.376 . S
C1554 C1552 1.394 . S
C1554 C1555 1.369 . S
C1554 C1558 1.531 . S
C1555 C1554 1.369 . S
C1555 C1556 1.410 . S
C1555 C1563 1.503 . S
C1556 C1555 1.410 . S
C1556 C1557 1.392 . S
C1556 C1559 1.511 . S
C1557 C1553 1.376 . S
C1557 C1556 1.392 . S
C1557 H1569 0.929 . S
C1558 C1554 1.531 . S
C1558 H1570 0.960 . S
C1558 H1571 0.962 . S
C1558 H1572 0.960 . S
C1559 C1556 1.511 . S
C1559 H1573 0.961 . S
C1559 H1574 0.961 . S
C1559 H1575 0.961 . S
C1560 C1561 1.370 . S
C1560 C1562 1.363 . S
C1560 H1576 0.931 . S
C1561 C1560 1.370 . S
C1561 C1565 1.408 . S
C1562 C1560 1.363 . S
C1562 C1563 1.370 . S
C1562 C1566 1.524 . S
C1563 C1555 1.503 . S
C1563 C1562 1.370 . S
C1563 C1564 1.403 . S
C1564 C1563 1.403 . S
C1564 C1565 1.404 . S
C1564 C1567 1.539 . S
C1565 C1561 1.408 . S
C1565 C1564 1.404 . S
C1565 H1577 0.930 . S
C1566 C1562 1.524 . S
C1566 H1578 0.956 . S
C1566 H1579 0.961 . S
C1566 H1580 0.961 . S
C1567 C1564 1.539 . S
C1567 H1581 0.958 . S
C1567 H1582 0.961 . S
C1567 H1583 0.960 . S
H1568 C1552 0.931 . S
H1569 C1557 0.929 . S
H1570 C1558 0.960 . S
H1571 C1558 0.962 . S
H1572 C1558 0.960 . S
H1573 C1559 0.961 . S
H1574 C1559 0.961 . S
H1575 C1559 0.961 . S
H1576 C1560 0.931 . S
H1577 C1565 0.930 . S
H1578 C1566 0.956 . S
H1579 C1566 0.961 . S
H1580 C1566 0.961 . S
H1581 C1567 0.958 . S
H1582 C1567 0.961 . S
H1583 C1567 0.960 . S
C1584 C1585 1.391 . S
C1584 C1586 1.394 . S
C1584 H1600 0.931 . S
C1585 C1584 1.391 . S
C1585 C1589 1.376 . S
C1586 C1584 1.394 . S
C1586 C1587 1.369 . S
C1586 C1590 1.531 . S
C1587 C1586 1.369 . S
C1587 C1588 1.410 . S
C1587 C1595 1.503 . S
C1588 C1587 1.410 . S
C1588 C1589 1.392 . S
C1588 C1591 1.511 . S
C1589 C1585 1.376 . S
C1589 C1588 1.392 . S
C1589 H1601 0.929 . S
C1590 C1586 1.531 . S
C1590 H1602 0.960 . S
C1590 H1603 0.962 . S
C1590 H1604 0.960 . S
C1591 C1588 1.511 . S
C1591 H1605 0.961 . S
C1591 H1606 0.961 . S
C1591 H1607 0.961 . S
C1592 C1593 1.370 . S
C1592 C1594 1.363 . S
C1592 H1608 0.931 . S
C1593 C1592 1.370 . S
C1593 C1597 1.408 . S
C1594 C1592 1.363 . S
C1594 C1595 1.370 . S
C1594 C1598 1.524 . S
C1595 C1587 1.503 . S
C1595 C1594 1.370 . S
C1595 C1596 1.403 . S
C1596 C1595 1.403 . S
C1596 C1597 1.404 . S
C1596 C1599 1.539 . S
C1597 C1593 1.408 . S
C1597 C1596 1.404 . S
C1597 H1609 0.930 . S
C1598 C1594 1.524 . S
C1598 H1610 0.956 . S
C1598 H1611 0.961 . S
C1598 H1612 0.961 . S
C1599 C1596 1.539 . S
C1599 H1613 0.958 . S
C1599 H1614 0.961 . S
C1599 H1615 0.960 . S
H1600 C1584 0.931 . S
H1601 C1589 0.929 . S
H1602 C1590 0.960 . S
H1603 C1590 0.962 . S
H1604 C1590 0.960 . S
H1605 C1591 0.961 . S
H1606 C1591 0.961 . S
H1607 C1591 0.961 . S
H1608 C1592 0.931 . S
H1609 C1597 0.930 . S
H1610 C1598 0.956 . S
H1611 C1598 0.961 . S
H1612 C1598 0.961 . S
H1613 C1599 0.958 . S
H1614 C1599 0.961 . S
H1615 C1599 0.960 . S
C1616 C1617 1.391 . S
C1616 C1618 1.394 . S
C1616 H1632 0.931 . S
C1617 C1616 1.391 . S
C1617 C1621 1.376 . S
C1618 C1616 1.394 . S
C1618 C1619 1.369 . S
C1618 C1622 1.531 . S
C1619 C1618 1.369 . S
C1619 C1620 1.410 . S
C1619 C1627 1.503 . S
C1620 C1619 1.410 . S
C1620 C1621 1.392 . S
C1620 C1623 1.511 . S
C1621 C1617 1.376 . S
C1621 C1620 1.392 . S
C1621 H1633 0.929 . S
C1622 C1618 1.531 . S
C1622 H1634 0.960 . S
C1622 H1635 0.962 . S
C1622 H1636 0.960 . S
C1623 C1620 1.511 . S
C1623 H1637 0.961 . S
C1623 H1638 0.961 . S
C1623 H1639 0.961 . S
C1624 C1625 1.370 . S
C1624 C1626 1.363 . S
C1624 H1640 0.931 . S
C1625 C1624 1.370 . S
C1625 C1629 1.408 . S
C1626 C1624 1.363 . S
C1626 C1627 1.370 . S
C1626 C1630 1.524 . S
C1627 C1619 1.503 . S
C1627 C1626 1.370 . S
C1627 C1628 1.403 . S
C1628 C1627 1.403 . S
C1628 C1629 1.404 . S
C1628 C1631 1.539 . S
C1629 C1625 1.408 . S
C1629 C1628 1.404 . S
C1629 H1641 0.930 . S
C1630 C1626 1.524 . S
C1630 H1642 0.956 . S
C1630 H1643 0.961 . S
C1630 H1644 0.961 . S
C1631 C1628 1.539 . S
C1631 H1645 0.958 . S
C1631 H1646 0.961 . S
C1631 H1647 0.960 . S
H1632 C1616 0.931 . S
H1633 C1621 0.929 . S
H1634 C1622 0.960 . S
H1635 C1622 0.962 . S
H1636 C1622 0.960 . S
H1637 C1623 0.961 . S
H1638 C1623 0.961 . S
H1639 C1623 0.961 . S
H1640 C1624 0.931 . S
H1641 C1629 0.930 . S
H1642 C1630 0.956 . S
H1643 C1630 0.961 . S
H1644 C1630 0.961 . S
H1645 C1631 0.958 . S
H1646 C1631 0.961 . S
H1647 C1631 0.960 . S
C1648 C1649 1.391 . S
C1648 C1650 1.394 . S
C1648 H1664 0.931 . S
C1649 C1648 1.391 . S
C1649 C1653 1.376 . S
C1650 C1648 1.394 . S
C1650 C1651 1.369 . S
C1650 C1654 1.531 . S
C1651 C1650 1.369 . S
C1651 C1652 1.410 . S
C1651 C1659 1.503 . S
C1652 C1651 1.410 . S
C1652 C1653 1.392 . S
C1652 C1655 1.511 . S
C1653 C1649 1.376 . S
C1653 C1652 1.392 . S
C1653 H1665 0.929 . S
C1654 C1650 1.531 . S
C1654 H1666 0.960 . S
C1654 H1667 0.962 . S
C1654 H1668 0.960 . S
C1655 C1652 1.511 . S
C1655 H1669 0.961 . S
C1655 H1670 0.961 . S
C1655 H1671 0.961 . S
C1656 C1657 1.370 . S
C1656 C1658 1.363 . S
C1656 H1672 0.931 . S
C1657 C1656 1.370 . S
C1657 C1661 1.408 . S
C1658 C1656 1.363 . S
C1658 C1659 1.370 . S
C1658 C1662 1.524 . S
C1659 C1651 1.503 . S
C1659 C1658 1.370 . S
C1659 C1660 1.403 . S
C1660 C1659 1.403 . S
C1660 C1661 1.404 . S
C1660 C1663 1.539 . S
C1661 C1657 1.408 . S
C1661 C1660 1.404 . S
C1661 H1673 0.930 . S
C1662 C1658 1.524 . S
C1662 H1674 0.956 . S
C1662 H1675 0.961 . S
C1662 H1676 0.961 . S
C1663 C1660 1.539 . S
C1663 H1677 0.958 . S
C1663 H1678 0.961 . S
C1663 H1679 0.960 . S
H1664 C1648 0.931 . S
H1665 C1653 0.929 . S
H1666 C1654 0.960 . S
H1667 C1654 0.962 . S
H1668 C1654 0.960 . S
H1669 C1655 0.961 . S
H1670 C1655 0.961 . S
H1671 C1655 0.961 . S
H1672 C1656 0.931 . S
H1673 C1661 0.930 . S
H1674 C1662 0.956 . S
H1675 C1662 0.961 . S
H1676 C1662 0.961 . S
H1677 C1663 0.958 . S
H1678 C1663 0.961 . S
H1679 C1663 0.960 . S
C1680 C1681 1.391 . S
C1680 C1682 1.394 . S
C1680 H1696 0.931 . S
C1681 C1680 1.391 . S
C1681 C1685 1.376 . S
C1682 C1680 1.394 . S
C1682 C1683 1.369 . S
C1682 C1686 1.531 . S
C1683 C1682 1.369 . S
C1683 C1684 1.410 . S
C1683 C1691 1.503 . S
C1684 C1683 1.410 . S
C1684 C1685 1.392 . S
C1684 C1687 1.511 . S
C1685 C1681 1.376 . S
C1685 C1684 1.392 . S
C1685 H1697 0.929 . S
C1686 C1682 1.531 . S
C1686 H1698 0.960 . S
C1686 H1699 0.962 . S
C1686 H1700 0.960 . S
C1687 C1684 1.511 . S
C1687 H1701 0.961 . S
C1687 H1702 0.961 . S
C1687 H1703 0.961 . S
C1688 C1689 1.370 . S
C1688 C1690 1.363 . S
C1688 H1704 0.931 . S
C1689 C1688 1.370 . S
C1689 C1693 1.408 . S
C1690 C1688 1.363 . S
C1690 C1691 1.370 . S
C1690 C1694 1.524 . S
C1691 C1683 1.503 . S
C1691 C1690 1.370 . S
C1691 C1692 1.403 . S
C1692 C1691 1.403 . S
C1692 C1693 1.404 . S
C1692 C1695 1.539 . S
C1693 C1689 1.408 . S
C1693 C1692 1.404 . S
C1693 H1705 0.930 . S
C1694 C1690 1.524 . S
C1694 H1706 0.956 . S
C1694 H1707 0.961 . S
C1694 H1708 0.961 . S
C1695 C1692 1.539 . S
C1695 H1709 0.958 . S
C1695 H1710 0.961 . S
C1695 H1711 0.960 . S
H1696 C1680 0.931 . S
H1697 C1685 0.929 . S
H1698 C1686 0.960 . S
H1699 C1686 0.962 . S
H1700 C1686 0.960 . S
H1701 C1687 0.961 . S
H1702 C1687 0.961 . S
H1703 C1687 0.961 . S
H1704 C1688 0.931 . S
H1705 C1693 0.930 . S
H1706 C1694 0.956 . S
H1707 C1694 0.961 . S
H1708 C1694 0.961 . S
H1709 C1695 0.958 . S
H1710 C1695 0.961 . S
H1711 C1695 0.960 . S
C1712 C1713 1.391 . S
C1712 C1714 1.394 . S
C1712 H1728 0.931 . S
C1713 C1712 1.391 . S
C1713 C1717 1.376 . S
C1714 C1712 1.394 . S
C1714 C1715 1.369 . S
C1714 C1718 1.531 . S
C1715 C1714 1.369 . S
C1715 C1716 1.410 . S
C1715 C1723 1.503 . S
C1716 C1715 1.410 . S
C1716 C1717 1.392 . S
C1716 C1719 1.511 . S
C1717 C1713 1.376 . S
C1717 C1716 1.392 . S
C1717 H1729 0.929 . S
C1718 C1714 1.531 . S
C1718 H1730 0.960 . S
C1718 H1731 0.962 . S
C1718 H1732 0.960 . S
C1719 C1716 1.511 . S
C1719 H1733 0.961 . S
C1719 H1734 0.961 . S
C1719 H1735 0.961 . S
C1720 C1721 1.370 . S
C1720 C1722 1.363 . S
C1720 H1736 0.931 . S
C1721 C1720 1.370 . S
C1721 C1725 1.408 . S
C1722 C1720 1.363 . S
C1722 C1723 1.370 . S
C1722 C1726 1.524 . S
C1723 C1715 1.503 . S
C1723 C1722 1.370 . S
C1723 C1724 1.403 . S
C1724 C1723 1.403 . S
C1724 C1725 1.404 . S
C1724 C1727 1.539 . S
C1725 C1721 1.408 . S
C1725 C1724 1.404 . S
C1725 H1737 0.930 . S
C1726 C1722 1.524 . S
C1726 H1738 0.956 . S
C1726 H1739 0.961 . S
C1726 H1740 0.961 . S
C1727 C1724 1.539 . S
C1727 H1741 0.958 . S
C1727 H1742 0.961 . S
C1727 H1743 0.960 . S
H1728 C1712 0.931 . S
H1729 C1717 0.929 . S
H1730 C1718 0.960 . S
H1731 C1718 0.962 . S
H1732 C1718 0.960 . S
H1733 C1719 0.961 . S
H1734 C1719 0.961 . S
H1735 C1719 0.961 . S
H1736 C1720 0.931 . S
H1737 C1725 0.930 . S
H1738 C1726 0.956 . S
H1739 C1726 0.961 . S
H1740 C1726 0.961 . S
H1741 C1727 0.958 . S
H1742 C1727 0.961 . S
H1743 C1727 0.960 . S
C1744 C1745 1.391 . S
C1744 C1746 1.394 . S
C1744 H1760 0.931 . S
C1745 C1744 1.391 . S
C1745 C1749 1.376 . S
C1746 C1744 1.394 . S
C1746 C1747 1.369 . S
C1746 C1750 1.531 . S
C1747 C1746 1.369 . S
C1747 C1748 1.410 . S
C1747 C1755 1.503 . S
C1748 C1747 1.410 . S
C1748 C1749 1.392 . S
C1748 C1751 1.511 . S
C1749 C1745 1.376 . S
C1749 C1748 1.392 . S
C1749 H1761 0.929 . S
C1750 C1746 1.531 . S
C1750 H1762 0.960 . S
C1750 H1763 0.962 . S
C1750 H1764 0.960 . S
C1751 C1748 1.511 . S
C1751 H1765 0.961 . S
C1751 H1766 0.961 . S
C1751 H1767 0.961 . S
C1752 C1753 1.370 . S
C1752 C1754 1.363 . S
C1752 H1768 0.931 . S
C1753 C1752 1.370 . S
C1753 C1757 1.408 . S
C1754 C1752 1.363 . S
C1754 C1755 1.370 . S
C1754 C1758 1.524 . S
C1755 C1747 1.503 . S
C1755 C1754 1.370 . S
C1755 C1756 1.403 . S
C1756 C1755 1.403 . S
C1756 C1757 1.404 . S
C1756 C1759 1.539 . S
C1757 C1753 1.408 . S
C1757 C1756 1.404 . S
C1757 H1769 0.930 . S
C1758 C1754 1.524 . S
C1758 H1770 0.956 . S
C1758 H1771 0.961 . S
C1758 H1772 0.961 . S
C1759 C1756 1.539 . S
C1759 H1773 0.958 . S
C1759 H1774 0.961 . S
C1759 H1775 0.960 . S
H1760 C1744 0.931 . S
H1761 C1749 0.929 . S
H1762 C1750 0.960 . S
H1763 C1750 0.962 . S
H1764 C1750 0.960 . S
H1765 C1751 0.961 . S
H1766 C1751 0.961 . S
H1767 C1751 0.961 . S
H1768 C1752 0.931 . S
H1769 C1757 0.930 . S
H1770 C1758 0.956 . S
H1771 C1758 0.961 . S
H1772 C1758 0.961 . S
H1773 C1759 0.958 . S
H1774 C1759 0.961 . S
H1775 C1759 0.960 . S
C1776 C1777 1.391 . S
C1776 C1778 1.394 . S
C1776 H1792 0.931 . S
C1777 C1776 1.391 . S
C1777 C1781 1.376 . S
C1778 C1776 1.394 . S
C1778 C1779 1.369 . S
C1778 C1782 1.531 . S
C1779 C1778 1.369 . S
C1779 C1780 1.410 . S
C1779 C1787 1.503 . S
C1780 C1779 1.410 . S
C1780 C1781 1.392 . S
C1780 C1783 1.511 . S
C1781 C1777 1.376 . S
C1781 C1780 1.392 . S
C1781 H1793 0.929 . S
C1782 C1778 1.531 . S
C1782 H1794 0.960 . S
C1782 H1795 0.962 . S
C1782 H1796 0.960 . S
C1783 C1780 1.511 . S
C1783 H1797 0.961 . S
C1783 H1798 0.961 . S
C1783 H1799 0.961 . S
C1784 C1785 1.370 . S
C1784 C1786 1.363 . S
C1784 H1800 0.931 . S
C1785 C1784 1.370 . S
C1785 C1789 1.408 . S
C1786 C1784 1.363 . S
C1786 C1787 1.370 . S
C1786 C1790 1.524 . S
C1787 C1779 1.503 . S
C1787 C1786 1.370 . S
C1787 C1788 1.403 . S
C1788 C1787 1.403 . S
C1788 C1789 1.404 . S
C1788 C1791 1.539 . S
C1789 C1785 1.408 . S
C1789 C1788 1.404 . S
C1789 H1801 0.930 . S
C1790 C1786 1.524 . S
C1790 H1802 0.956 . S
C1790 H1803 0.961 . S
C1790 H1804 0.961 . S
C1791 C1788 1.539 . S
C1791 H1805 0.958 . S
C1791 H1806 0.961 . S
C1791 H1807 0.960 . S
H1792 C1776 0.931 . S
H1793 C1781 0.929 . S
H1794 C1782 0.960 . S
H1795 C1782 0.962 . S
H1796 C1782 0.960 . S
H1797 C1783 0.961 . S
H1798 C1783 0.961 . S
H1799 C1783 0.961 . S
H1800 C1784 0.931 . S
H1801 C1789 0.930 . S
H1802 C1790 0.956 . S
H1803 C1790 0.961 . S
H1804 C1790 0.961 . S
H1805 C1791 0.958 . S
H1806 C1791 0.961 . S
H1807 C1791 0.960 . S
C1808 C1809 1.391 . S
C1808 C1810 1.394 . S
C1808 H1824 0.931 . S
C1809 C1808 1.391 . S
C1809 C1813 1.376 . S
C1810 C1808 1.394 . S
C1810 C1811 1.369 . S
C1810 C1814 1.531 . S
C1811 C1810 1.369 . S
C1811 C1812 1.410 . S
C1811 C1819 1.503 . S
C1812 C1811 1.410 . S
C1812 C1813 1.392 . S
C1812 C1815 1.511 . S
C1813 C1809 1.376 . S
C1813 C1812 1.392 . S
C1813 H1825 0.929 . S
C1814 C1810 1.531 . S
C1814 H1826 0.960 . S
C1814 H1827 0.962 . S
C1814 H1828 0.960 . S
C1815 C1812 1.511 . S
C1815 H1829 0.961 . S
C1815 H1830 0.961 . S
C1815 H1831 0.961 . S
C1816 C1817 1.370 . S
C1816 C1818 1.363 . S
C1816 H1832 0.931 . S
C1817 C1816 1.370 . S
C1817 C1821 1.408 . S
C1818 C1816 1.363 . S
C1818 C1819 1.370 . S
C1818 C1822 1.524 . S
C1819 C1811 1.503 . S
C1819 C1818 1.370 . S
C1819 C1820 1.403 . S
C1820 C1819 1.403 . S
C1820 C1821 1.404 . S
C1820 C1823 1.539 . S
C1821 C1817 1.408 . S
C1821 C1820 1.404 . S
C1821 H1833 0.930 . S
C1822 C1818 1.524 . S
C1822 H1834 0.956 . S
C1822 H1835 0.961 . S
C1822 H1836 0.961 . S
C1823 C1820 1.539 . S
C1823 H1837 0.958 . S
C1823 H1838 0.961 . S
C1823 H1839 0.960 . S
H1824 C1808 0.931 . S
H1825 C1813 0.929 . S
H1826 C1814 0.960 . S
H1827 C1814 0.962 . S
H1828 C1814 0.960 . S
H1829 C1815 0.961 . S
H1830 C1815 0.961 . S
H1831 C1815 0.961 . S
H1832 C1816 0.931 . S
H1833 C1821 0.930 . S
H1834 C1822 0.956 . S
H1835 C1822 0.961 . S
H1836 C1822 0.961 . S
H1837 C1823 0.958 . S
H1838 C1823 0.961 . S
H1839 C1823 0.960 . S
C1840 C1841 1.391 . S
C1840 C1842 1.394 . S
C1840 H1856 0.931 . S
C1841 C1840 1.391 . S
C1841 C1845 1.376 . S
C1842 C1840 1.394 . S
C1842 C1843 1.369 . S
C1842 C1846 1.531 . S
C1843 C1842 1.369 . S
C1843 C1844 1.410 . S
C1843 C1851 1.503 . S
C1844 C1843 1.410 . S
C1844 C1845 1.392 . S
C1844 C1847 1.511 . S
C1845 C1841 1.376 . S
C1845 C1844 1.392 . S
C1845 H1857 0.929 . S
C1846 C1842 1.531 . S
C1846 H1858 0.960 . S
C1846 H1859 0.962 . S
C1846 H1860 0.960 . S
C1847 C1844 1.511 . S
C1847 H1861 0.961 . S
C1847 H1862 0.961 . S
C1847 H1863 0.961 . S
C1848 C1849 1.370 . S
C1848 C1850 1.363 . S
C1848 H1864 0.931 . S
C1849 C1848 1.370 . S
C1849 C1853 1.408 . S
C1850 C1848 1.363 . S
C1850 C1851 1.370 . S
C1850 C1854 1.524 . S
C1851 C1843 1.503 . S
C1851 C1850 1.370 . S
C1851 C1852 1.403 . S
C1852 C1851 1.403 . S
C1852 C1853 1.404 . S
C1852 C1855 1.539 . S
C1853 C1849 1.408 . S
C1853 C1852 1.404 . S
C1853 H1865 0.930 . S
C1854 C1850 1.524 . S
C1854 H1866 0.956 . S
C1854 H1867 0.961 . S
C1854 H1868 0.961 . S
C1855 C1852 1.539 . S
C1855 H1869 0.958 . S
C1855 H1870 0.961 . S
C1855 H1871 0.960 . S
H1856 C1840 0.931 . S
H1857 C1845 0.929 . S
H1858 C1846 0.960 . S
H1859 C1846 0.962 . S
H1860 C1846 0.960 . S
H1861 C1847 0.961 . S
H1862 C1847 0.961 . S
H1863 C1847 0.961 . S
H1864 C1848 0.931 . S
H1865 C1853 0.930 . S
H1866 C1854 0.956 . S
H1867 C1854 0.961 . S
H1868 C1854 0.961 . S
H1869 C1855 0.958 . S
H1870 C1855 0.961 . S
H1871 C1855 0.960 . S
C1872 C1873 1.391 . S
C1872 C1874 1.394 . S
C1872 H1888 0.931 . S
C1873 C1872 1.391 . S
C1873 C1877 1.376 . S
C1874 C1872 1.394 . S
C1874 C1875 1.369 . S
C1874 C1878 1.531 . S
C1875 C1874 1.369 . S
C1875 C1876 1.410 . S
C1875 C1883 1.503 . S
C1876 C1875 1.410 . S
C1876 C1877 1.392 . S
C1876 C1879 1.511 . S
C1877 C1873 1.376 . S
C1877 C1876 1.392 . S
C1877 H1889 0.929 . S
C1878 C1874 1.531 . S
C1878 H1890 0.960 . S
C1878 H1891 0.962 . S
C1878 H1892 0.960 . S
C1879 C1876 1.511 . S
C1879 H1893 0.961 . S
C1879 H1894 0.961 . S
C1879 H1895 0.961 . S
C1880 C1881 1.370 . S
C1880 C1882 1.363 . S
C1880 H1896 0.931 . S
C1881 C1880 1.370 . S
C1881 C1885 1.408 . S
C1882 C1880 1.363 . S
C1882 C1883 1.370 . S
C1882 C1886 1.524 . S
C1883 C1875 1.503 . S
C1883 C1882 1.370 . S
C1883 C1884 1.403 . S
C1884 C1883 1.403 . S
C1884 C1885 1.404 . S
C1884 C1887 1.539 . S
C1885 C1881 1.408 . S
C1885 C1884 1.404 . S
C1885 H1897 0.930 . S
C1886 C1882 1.524 . S
C1886 H1898 0.956 . S
C1886 H1899 0.961 . S
C1886 H1900 0.961 . S
C1887 C1884 1.539 . S
C1887 H1901 0.958 . S
C1887 H1902 0.961 . S
C1887 H1903 0.960 . S
H1888 C1872 0.931 . S
H1889 C1877 0.929 . S
H1890 C1878 0.960 . S
H1891 C1878 0.962 . S
H1892 C1878 0.960 . S
H1893 C1879 0.961 . S
H1894 C1879 0.961 . S
H1895 C1879 0.961 . S
H1896 C1880 0.931 . S
H1897 C1885 0.930 . S
H1898 C1886 0.956 . S
H1899 C1886 0.961 . S
H1900 C1886 0.961 . S
H1901 C1887 0.958 . S
H1902 C1887 0.961 . S
H1903 C1887 0.960 . S
C1904 C1905 1.391 . S
C1904 C1906 1.394 . S
C1904 H1920 0.931 . S
C1905 C1904 1.391 . S
C1905 C1909 1.376 . S
C1906 C1904 1.394 . S
C1906 C1907 1.369 . S
C1906 C1910 1.531 . S
C1907 C1906 1.369 . S
C1907 C1908 1.410 . S
C1907 C1915 1.503 . S
C1908 C1907 1.410 . S
C1908 C1909 1.392 . S
C1908 C1911 1.511 . S
C1909 C1905 1.376 . S
C1909 C1908 1.392 . S
C1909 H1921 0.929 . S
C1910 C1906 1.531 . S
C1910 H1922 0.960 . S
C1910 H1923 0.962 . S
C1910 H1924 0.960 . S
C1911 C1908 1.511 . S
C1911 H1925 0.961 . S
C1911 H1926 0.961 . S
C1911 H1927 0.961 . S
C1912 C1913 1.370 . S
C1912 C1914 1.363 . S
C1912 H1928 0.931 . S
C1913 C1912 1.370 . S
C1913 C1917 1.408 . S
C1914 C1912 1.363 . S
C1914 C1915 1.370 . S
C1914 C1918 1.524 . S
C1915 C1907 1.503 . S
C1915 C1914 1.370 . S
C1915 C1916 1.403 . S
C1916 C1915 1.403 . S
C1916 C1917 1.404 . S
C1916 C1919 1.539 . S
C1917 C1913 1.408 . S
C1917 C1916 1.404 . S
C1917 H1929 0.930 . S
C1918 C1914 1.524 . S
C1918 H1930 0.956 . S
C1918 H1931 0.961 . S
C1918 H1932 0.961 . S
C1919 C1916 1.539 . S
C1919 H1933 0.958 . S
C1919 H1934 0.961 . S
C1919 H1935 0.960 . S
H1920 C1904 0.931 . S
H1921 C1909 0.929 . S
H1922 C1910 0.960 . S
H1923 C1910 0.962 . S
H1924 C1910 0.960 . S
H1925 C1911 0.961 . S
H1926 C1911 0.961 . S
H1927 C1911 0.961 . S
H1928 C1912 0.931 . S
H1929 C1917 0.930 . S
H1930 C1918 0.956 . S
H1931 C1918 0.961 . S
H1932 C1918 0.961 . S
H1933 C1919 0.958 . S
H1934 C1919 0.961 . S
H1935 C1919 0.960 . S
C1936 C1937 1.391 . S
C1936 C1938 1.394 . S
C1936 H1952 0.931 . S
C1937 C1936 1.391 . S
C1937 C1941 1.376 . S
C1938 C1936 1.394 . S
C1938 C1939 1.369 . S
C1938 C1942 1.531 . S
C1939 C1938 1.369 . S
C1939 C1940 1.410 . S
C1939 C1947 1.503 . S
C1940 C1939 1.410 . S
C1940 C1941 1.392 . S
C1940 C1943 1.511 . S
C1941 C1937 1.376 . S
C1941 C1940 1.392 . S
C1941 H1953 0.929 . S
C1942 C1938 1.531 . S
C1942 H1954 0.960 . S
C1942 H1955 0.962 . S
C1942 H1956 0.960 . S
C1943 C1940 1.511 . S
C1943 H1957 0.961 . S
C1943 H1958 0.961 . S
C1943 H1959 0.961 . S
C1944 C1945 1.370 . S
C1944 C1946 1.363 . S
C1944 H1960 0.931 . S
C1945 C1944 1.370 . S
C1945 C1949 1.408 . S
C1946 C1944 1.363 . S
C1946 C1947 1.370 . S
C1946 C1950 1.524 . S
C1947 C1939 1.503 . S
C1947 C1946 1.370 . S
C1947 C1948 1.403 . S
C1948 C1947 1.403 . S
C1948 C1949 1.404 . S
C1948 C1951 1.539 . S
C1949 C1945 1.408 . S
C1949 C1948 1.404 . S
C1949 H1961 0.930 . S
C1950 C1946 1.524 . S
C1950 H1962 0.956 . S
C1950 H1963 0.961 . S
C1950 H1964 0.961 . S
C1951 C1948 1.539 . S
C1951 H1965 0.958 . S
C1951 H1966 0.961 . S
C1951 H1967 0.960 . S
H1952 C1936 0.931 . S
H1953 C1941 0.929 . S
H1954 C1942 0.960 . S
H1955 C1942 0.962 . S
H1956 C1942 0.960 . S
H1957 C1943 0.961 . S
H1958 C1943 0.961 . S
H1959 C1943 0.961 . S
H1960 C1944 0.931 . S
H1961 C1949 0.930 . S
H1962 C1950 0.956 . S
H1963 C1950 0.961 . S
H1964 C1950 0.961 . S
H1965 C1951 0.958 . S
H1966 C1951 0.961 . S
H1967 C1951 0.960 . S
C1968 C1969 1.391 . S
C1968 C1970 1.394 . S
C1968 H1984 0.931 . S
C1969 C1968 1.391 . S
C1969 C1973 1.376 . S
C1970 C1968 1.394 . S
C1970 C1971 1.369 . S
C1970 C1974 1.531 . S
C1971 C1970 1.369 . S
C1971 C1972 1.410 . S
C1971 C1979 1.503 . S
C1972 C1971 1.410 . S
C1972 C1973 1.392 . S
C1972 C1975 1.511 . S
C1973 C1969 1.376 . S
C1973 C1972 1.392 . S
C1973 H1985 0.929 . S
C1974 C1970 1.531 . S
C1974 H1986 0.960 . S
C1974 H1987 0.962 . S
C1974 H1988 0.960 . S
C1975 C1972 1.511 . S
C1975 H1989 0.961 . S
C1975 H1990 0.961 . S
C1975 H1991 0.961 . S
C1976 C1977 1.370 . S
C1976 C1978 1.363 . S
C1976 H1992 0.931 . S
C1977 C1976 1.370 . S
C1977 C1981 1.408 . S
C1978 C1976 1.363 . S
C1978 C1979 1.370 . S
C1978 C1982 1.524 . S
C1979 C1971 1.503 . S
C1979 C1978 1.370 . S
C1979 C1980 1.403 . S
C1980 C1979 1.403 . S
C1980 C1981 1.404 . S
C1980 C1983 1.539 . S
C1981 C1977 1.408 . S
C1981 C1980 1.404 . S
C1981 H1993 0.930 . S
C1982 C1978 1.524 . S
C1982 H1994 0.956 . S
C1982 H1995 0.961 . S
C1982 H1996 0.961 . S
C1983 C1980 1.539 . S
C1983 H1997 0.958 . S
C1983 H1998 0.961 . S
C1983 H1999 0.960 . S
H1984 C1968 0.931 . S
H1985 C1973 0.929 . S
H1986 C1974 0.960 . S
H1987 C1974 0.962 . S
H1988 C1974 0.960 . S
H1989 C1975 0.961 . S
H1990 C1975 0.961 . S
H1991 C1975 0.961 . S
H1992 C1976 0.931 . S
H1993 C1981 0.930 . S
H1994 C1982 0.956 . S
H1995 C1982 0.961 . S
H1996 C1982 0.961 . S
H1997 C1983 0.958 . S
H1998 C1983 0.961 . S
H1999 C1983 0.960 . S
C2000 C2001 1.391 . S
C2000 C2002 1.394 . S
C2000 H2016 0.931 . S
C2001 C2000 1.391 . S
C2001 C2005 1.376 . S
C2002 C2000 1.394 . S
C2002 C2003 1.369 . S
C2002 C2006 1.531 . S
C2003 C2002 1.369 . S
C2003 C2004 1.410 . S
C2003 C2011 1.503 . S
C2004 C2003 1.410 . S
C2004 C2005 1.392 . S
C2004 C2007 1.511 . S
C2005 C2001 1.376 . S
C2005 C2004 1.392 . S
C2005 H2017 0.929 . S
C2006 C2002 1.531 . S
C2006 H2018 0.960 . S
C2006 H2019 0.962 . S
C2006 H2020 0.960 . S
C2007 C2004 1.511 . S
C2007 H2021 0.961 . S
C2007 H2022 0.961 . S
C2007 H2023 0.961 . S
C2008 C2009 1.370 . S
C2008 C2010 1.363 . S
C2008 H2024 0.931 . S
C2009 C2008 1.370 . S
C2009 C2013 1.408 . S
C2010 C2008 1.363 . S
C2010 C2011 1.370 . S
C2010 C2014 1.524 . S
C2011 C2003 1.503 . S
C2011 C2010 1.370 . S
C2011 C2012 1.403 . S
C2012 C2011 1.403 . S
C2012 C2013 1.404 . S
C2012 C2015 1.539 . S
C2013 C2009 1.408 . S
C2013 C2012 1.404 . S
C2013 H2025 0.930 . S
C2014 C2010 1.524 . S
C2014 H2026 0.956 . S
C2014 H2027 0.961 . S
C2014 H2028 0.961 . S
C2015 C2012 1.539 . S
C2015 H2029 0.958 . S
C2015 H2030 0.961 . S
C2015 H2031 0.960 . S
H2016 C2000 0.931 . S
H2017 C2005 0.929 . S
H2018 C2006 0.960 . S
H2019 C2006 0.962 . S
H2020 C2006 0.960 . S
H2021 C2007 0.961 . S
H2022 C2007 0.961 . S
H2023 C2007 0.961 . S
H2024 C2008 0.931 . S
H2025 C2013 0.930 . S
H2026 C2014 0.956 . S
H2027 C2014 0.961 . S
H2028 C2014 0.961 . S
H2029 C2015 0.958 . S
H2030 C2015 0.961 . S
H2031 C2015 0.960 . S
C2032 C2033 1.391 . S
C2032 C2034 1.394 . S
C2032 H2048 0.931 . S
C2033 C2032 1.391 . S
C2033 C2037 1.376 . S
C2034 C2032 1.394 . S
C2034 C2035 1.369 . S
C2034 C2038 1.531 . S
C2035 C2034 1.369 . S
C2035 C2036 1.410 . S
C2035 C2043 1.503 . S
C2036 C2035 1.410 . S
C2036 C2037 1.392 . S
C2036 C2039 1.511 . S
C2037 C2033 1.376 . S
C2037 C2036 1.392 . S
C2037 H2049 0.929 . S
C2038 C2034 1.531 . S
C2038 H2050 0.960 . S
C2038 H2051 0.962 . S
C2038 H2052 0.960 . S
C2039 C2036 1.511 . S
C2039 H2053 0.961 . S
C2039 H2054 0.961 . S
C2039 H2055 0.961 . S
C2040 C2041 1.370 . S
C2040 C2042 1.363 . S
C2040 H2056 0.931 . S
C2041 C2040 1.370 . S
C2041 C2045 1.408 . S
C2042 C2040 1.363 . S
C2042 C2043 1.370 . S
C2042 C2046 1.524 . S
C2043 C2035 1.503 . S
C2043 C2042 1.370 . S
C2043 C2044 1.403 . S
C2044 C2043 1.403 . S
C2044 C2045 1.404 . S
C2044 C2047 1.539 . S
C2045 C2041 1.408 . S
C2045 C2044 1.404 . S
C2045 H2057 0.930 . S
C2046 C2042 1.524 . S
C2046 H2058 0.956 . S
C2046 H2059 0.961 . S
C2046 H2060 0.961 . S
C2047 C2044 1.539 . S
C2047 H2061 0.958 . S
C2047 H2062 0.961 . S
C2047 H2063 0.960 . S
H2048 C2032 0.931 . S
H2049 C2037 0.929 . S
H2050 C2038 0.960 . S
H2051 C2038 0.962 . S
H2052 C2038 0.960 . S
H2053 C2039 0.961 . S
H2054 C2039 0.961 . S
H2055 C2039 0.961 . S
H2056 C2040 0.931 . S
H2057 C2045 0.930 . S
H2058 C2046 0.956 . S
H2059 C2046 0.961 . S
H2060 C2046 0.961 . S
H2061 C2047 0.958 . S
H2062 C2047 0.961 . S
H2063 C2047 0.960 . S
C2064 C2065 1.391 . S
C2064 C2066 1.394 . S
C2064 H2080 0.931 . S
C2065 C2064 1.391 . S
C2065 C2069 1.376 . S
C2066 C2064 1.394 . S
C2066 C2067 1.369 . S
C2066 C2070 1.531 . S
C2067 C2066 1.369 . S
C2067 C2068 1.410 . S
C2067 C2075 1.503 . S
C2068 C2067 1.410 . S
C2068 C2069 1.392 . S
C2068 C2071 1.511 . S
C2069 C2065 1.376 . S
C2069 C2068 1.392 . S
C2069 H2081 0.929 . S
C2070 C2066 1.531 . S
C2070 H2082 0.960 . S
C2070 H2083 0.962 . S
C2070 H2084 0.960 . S
C2071 C2068 1.511 . S
C2071 H2085 0.961 . S
C2071 H2086 0.961 . S
C2071 H2087 0.961 . S
C2072 C2073 1.370 . S
C2072 C2074 1.363 . S
C2072 H2088 0.931 . S
C2073 C2072 1.370 . S
C2073 C2077 1.408 . S
C2074 C2072 1.363 . S
C2074 C2075 1.370 . S
C2074 C2078 1.524 . S
C2075 C2067 1.503 . S
C2075 C2074 1.370 . S
C2075 C2076 1.403 . S
C2076 C2075 1.403 . S
C2076 C2077 1.404 . S
C2076 C2079 1.539 . S
C2077 C2073 1.408 . S
C2077 C2076 1.404 . S
C2077 H2089 0.930 . S
C2078 C2074 1.524 . S
C2078 H2090 0.956 . S
C2078 H2091 0.961 . S
C2078 H2092 0.961 . S
C2079 C2076 1.539 . S
C2079 H2093 0.958 . S
C2079 H2094 0.961 . S
C2079 H2095 0.960 . S
H2080 C2064 0.931 . S
H2081 C2069 0.929 . S
H2082 C2070 0.960 . S
H2083 C2070 0.962 . S
H2084 C2070 0.960 . S
H2085 C2071 0.961 . S
H2086 C2071 0.961 . S
H2087 C2071 0.961 . S
H2088 C2072 0.931 . S
H2089 C2077 0.930 . S
H2090 C2078 0.956 . S
H2091 C2078 0.961 . S
H2092 C2078 0.961 . S
H2093 C2079 0.958 . S
H2094 C2079 0.961 . S
H2095 C2079 0.960 . S
C2096 C2097 1.391 . S
C2096 C2098 1.394 . S
C2096 H2112 0.931 . S
C2097 C2096 1.391 . S
C2097 C2101 1.376 . S
C2098 C2096 1.394 . S
C2098 C2099 1.369 . S
C2098 C2102 1.531 . S
C2099 C2098 1.369 . S
C2099 C2100 1.410 . S
C2099 C2107 1.503 . S
C2100 C2099 1.410 . S
C2100 C2101 1.392 . S
C2100 C2103 1.511 . S
C2101 C2097 1.376 . S
C2101 C2100 1.392 . S
C2101 H2113 0.929 . S
C2102 C2098 1.531 . S
C2102 H2114 0.960 . S
C2102 H2115 0.962 . S
C2102 H2116 0.960 . S
C2103 C2100 1.511 . S
C2103 H2117 0.961 . S
C2103 H2118 0.961 . S
C2103 H2119 0.961 . S
C2104 C2105 1.370 . S
C2104 C2106 1.363 . S
C2104 H2120 0.931 . S
C2105 C2104 1.370 . S
C2105 C2109 1.408 . S
C2106 C2104 1.363 . S
C2106 C2107 1.370 . S
C2106 C2110 1.524 . S
C2107 C2099 1.503 . S
C2107 C2106 1.370 . S
C2107 C2108 1.403 . S
C2108 C2107 1.403 . S
C2108 C2109 1.404 . S
C2108 C2111 1.539 . S
C2109 C2105 1.408 . S
C2109 C2108 1.404 . S
C2109 H2121 0.930 . S
C2110 C2106 1.524 . S
C2110 H2122 0.956 . S
C2110 H2123 0.961 . S
C2110 H2124 0.961 . S
C2111 C2108 1.539 . S
C2111 H2125 0.958 . S
C2111 H2126 0.961 . S
C2111 H2127 0.960 . S
H2112 C2096 0.931 . S
H2113 C2101 0.929 . S
H2114 C2102 0.960 . S
H2115 C2102 0.962 . S
H2116 C2102 0.960 . S
H2117 C2103 0.961 . S
H2118 C2103 0.961 . S
H2119 C2103 0.961 . S
H2120 C2104 0.931 . S
H2121 C2109 0.930 . S
H2122 C2110 0.956 . S
H2123 C2110 0.961 . S
H2124 C2110 0.961 . S
H2125 C2111 0.958 . S
H2126 C2111 0.961 . S
H2127 C2111 0.960 . S
C2128 C2129 1.391 . S
C2128 C2130 1.394 . S
C2128 H2144 0.931 . S
C2129 C2128 1.391 . S
C2129 C2133 1.376 . S
C2130 C2128 1.394 . S
C2130 C2131 1.369 . S
C2130 C2134 1.531 . S
C2131 C2130 1.369 . S
C2131 C2132 1.410 . S
C2131 C2139 1.503 . S
C2132 C2131 1.410 . S
C2132 C2133 1.392 . S
C2132 C2135 1.511 . S
C2133 C2129 1.376 . S
C2133 C2132 1.392 . S
C2133 H2145 0.929 . S
C2134 C2130 1.531 . S
C2134 H2146 0.960 . S
C2134 H2147 0.962 . S
C2134 H2148 0.960 . S
C2135 C2132 1.511 . S
C2135 H2149 0.961 . S
C2135 H2150 0.961 . S
C2135 H2151 0.961 . S
C2136 C2137 1.370 . S
C2136 C2138 1.363 . S
C2136 H2152 0.931 . S
C2137 C2136 1.370 . S
C2137 C2141 1.408 . S
C2138 C2136 1.363 . S
C2138 C2139 1.370 . S
C2138 C2142 1.524 . S
C2139 C2131 1.503 . S
C2139 C2138 1.370 . S
C2139 C2140 1.403 . S
C2140 C2139 1.403 . S
C2140 C2141 1.404 . S
C2140 C2143 1.539 . S
C2141 C2137 1.408 . S
C2141 C2140 1.404 . S
C2141 H2153 0.930 . S
C2142 C2138 1.524 . S
C2142 H2154 0.956 . S
C2142 H2155 0.961 . S
C2142 H2156 0.961 . S
C2143 C2140 1.539 . S
C2143 H2157 0.958 . S
C2143 H2158 0.961 . S
C2143 H2159 0.960 . S
H2144 C2128 0.931 . S
H2145 C2133 0.929 . S
H2146 C2134 0.960 . S
H2147 C2134 0.962 . S
H2148 C2134 0.960 . S
H2149 C2135 0.961 . S
H2150 C2135 0.961 . S
H2151 C2135 0.961 . S
H2152 C2136 0.931 . S
H2153 C2141 0.930 . S
H2154 C2142 0.956 . S
H2155 C2142 0.961 . S
H2156 C2142 0.961 . S
H2157 C2143 0.958 . S
H2158 C2143 0.961 . S
H2159 C2143 0.960 . S
C2160 C2161 1.391 . S
C2160 C2162 1.394 . S
C2160 H2176 0.931 . S
C2161 C2160 1.391 . S
C2161 C2165 1.376 . S
C2162 C2160 1.394 . S
C2162 C2163 1.369 . S
C2162 C2166 1.531 . S
C2163 C2162 1.369 . S
C2163 C2164 1.410 . S
C2163 C2171 1.503 . S
C2164 C2163 1.410 . S
C2164 C2165 1.392 . S
C2164 C2167 1.511 . S
C2165 C2161 1.376 . S
C2165 C2164 1.392 . S
C2165 H2177 0.929 . S
C2166 C2162 1.531 . S
C2166 H2178 0.960 . S
C2166 H2179 0.962 . S
C2166 H2180 0.960 . S
C2167 C2164 1.511 . S
C2167 H2181 0.961 . S
C2167 H2182 0.961 . S
C2167 H2183 0.961 . S
C2168 C2169 1.370 . S
C2168 C2170 1.363 . S
C2168 H2184 0.931 . S
C2169 C2168 1.370 . S
C2169 C2173 1.408 . S
C2170 C2168 1.363 . S
C2170 C2171 1.370 . S
C2170 C2174 1.524 . S
C2171 C2163 1.503 . S
C2171 C2170 1.370 . S
C2171 C2172 1.403 . S
C2172 C2171 1.403 . S
C2172 C2173 1.404 . S
C2172 C2175 1.539 . S
C2173 C2169 1.408 . S
C2173 C2172 1.404 . S
C2173 H2185 0.930 . S
C2174 C2170 1.524 . S
C2174 H2186 0.956 . S
C2174 H2187 0.961 . S
C2174 H2188 0.961 . S
C2175 C2172 1.539 . S
C2175 H2189 0.958 . S
C2175 H2190 0.961 . S
C2175 H2191 0.960 . S
H2176 C2160 0.931 . S
H2177 C2165 0.929 . S
H2178 C2166 0.960 . S
H2179 C2166 0.962 . S
H2180 C2166 0.960 . S
H2181 C2167 0.961 . S
H2182 C2167 0.961 . S
H2183 C2167 0.961 . S
H2184 C2168 0.931 . S
H2185 C2173 0.930 . S
H2186 C2174 0.956 . S
H2187 C2174 0.961 . S
H2188 C2174 0.961 . S
H2189 C2175 0.958 . S
H2190 C2175 0.961 . S
H2191 C2175 0.960 . S
C2192 C2193 1.391 . S
C2192 C2194 1.394 . S
C2192 H2208 0.931 . S
C2193 C2192 1.391 . S
C2193 C2197 1.376 . S
C2194 C2192 1.394 . S
C2194 C2195 1.369 . S
C2194 C2198 1.531 . S
C2195 C2194 1.369 . S
C2195 C2196 1.410 . S
C2195 C2203 1.503 . S
C2196 C2195 1.410 . S
C2196 C2197 1.392 . S
C2196 C2199 1.511 . S
C2197 C2193 1.376 . S
C2197 C2196 1.392 . S
C2197 H2209 0.929 . S
C2198 C2194 1.531 . S
C2198 H2210 0.960 . S
C2198 H2211 0.962 . S
C2198 H2212 0.960 . S
C2199 C2196 1.511 . S
C2199 H2213 0.961 . S
C2199 H2214 0.961 . S
C2199 H2215 0.961 . S
C2200 C2201 1.370 . S
C2200 C2202 1.363 . S
C2200 H2216 0.931 . S
C2201 C2200 1.370 . S
C2201 C2205 1.408 . S
C2202 C2200 1.363 . S
C2202 C2203 1.370 . S
C2202 C2206 1.524 . S
C2203 C2195 1.503 . S
C2203 C2202 1.370 . S
C2203 C2204 1.403 . S
C2204 C2203 1.403 . S
C2204 C2205 1.404 . S
C2204 C2207 1.539 . S
C2205 C2201 1.408 . S
C2205 C2204 1.404 . S
C2205 H2217 0.930 . S
C2206 C2202 1.524 . S
C2206 H2218 0.956 . S
C2206 H2219 0.961 . S
C2206 H2220 0.961 . S
C2207 C2204 1.539 . S
C2207 H2221 0.958 . S
C2207 H2222 0.961 . S
C2207 H2223 0.960 . S
H2208 C2192 0.931 . S
H2209 C2197 0.929 . S
H2210 C2198 0.960 . S
H2211 C2198 0.962 . S
H2212 C2198 0.960 . S
H2213 C2199 0.961 . S
H2214 C2199 0.961 . S
H2215 C2199 0.961 . S
H2216 C2200 0.931 . S
H2217 C2205 0.930 . S
H2218 C2206 0.956 . S
H2219 C2206 0.961 . S
H2220 C2206 0.961 . S
H2221 C2207 0.958 . S
H2222 C2207 0.961 . S
H2223 C2207 0.960 . S
C2224 C2225 1.391 . S
C2224 C2226 1.394 . S
C2224 H2240 0.931 . S
C2225 C2224 1.391 . S
C2225 C2229 1.376 . S
C2226 C2224 1.394 . S
C2226 C2227 1.369 . S
C2226 C2230 1.531 . S
C2227 C2226 1.369 . S
C2227 C2228 1.410 . S
C2227 C2235 1.503 . S
C2228 C2227 1.410 . S
C2228 C2229 1.392 . S
C2228 C2231 1.511 . S
C2229 C2225 1.376 . S
C2229 C2228 1.392 . S
C2229 H2241 0.929 . S
C2230 C2226 1.531 . S
C2230 H2242 0.960 . S
C2230 H2243 0.962 . S
C2230 H2244 0.960 . S
C2231 C2228 1.511 . S
C2231 H2245 0.961 . S
C2231 H2246 0.961 . S
C2231 H2247 0.961 . S
C2232 C2233 1.370 . S
C2232 C2234 1.363 . S
C2232 H2248 0.931 . S
C2233 C2232 1.370 . S
C2233 C2237 1.408 . S
C2234 C2232 1.363 . S
C2234 C2235 1.370 . S
C2234 C2238 1.524 . S
C2235 C2227 1.503 . S
C2235 C2234 1.370 . S
C2235 C2236 1.403 . S
C2236 C2235 1.403 . S
C2236 C2237 1.404 . S
C2236 C2239 1.539 . S
C2237 C2233 1.408 . S
C2237 C2236 1.404 . S
C2237 H2249 0.930 . S
C2238 C2234 1.524 . S
C2238 H2250 0.956 . S
C2238 H2251 0.961 . S
C2238 H2252 0.961 . S
C2239 C2236 1.539 . S
C2239 H2253 0.958 . S
C2239 H2254 0.961 . S
C2239 H2255 0.960 . S
H2240 C2224 0.931 . S
H2241 C2229 0.929 . S
H2242 C2230 0.960 . S
H2243 C2230 0.962 . S
H2244 C2230 0.960 . S
H2245 C2231 0.961 . S
H2246 C2231 0.961 . S
H2247 C2231 0.961 . S
H2248 C2232 0.931 . S
H2249 C2237 0.930 . S
H2250 C2238 0.956 . S
H2251 C2238 0.961 . S
H2252 C2238 0.961 . S
H2253 C2239 0.958 . S
H2254 C2239 0.961 . S
H2255 C2239 0.960 . S
C2256 C2257 1.391 . S
C2256 C2258 1.394 . S
C2256 H2272 0.931 . S
C2257 C2256 1.391 . S
C2257 C2261 1.376 . S
C2258 C2256 1.394 . S
C2258 C2259 1.369 . S
C2258 C2262 1.531 . S
C2259 C2258 1.369 . S
C2259 C2260 1.410 . S
C2259 C2267 1.503 . S
C2260 C2259 1.410 . S
C2260 C2261 1.392 . S
C2260 C2263 1.511 . S
C2261 C2257 1.376 . S
C2261 C2260 1.392 . S
C2261 H2273 0.929 . S
C2262 C2258 1.531 . S
C2262 H2274 0.960 . S
C2262 H2275 0.962 . S
C2262 H2276 0.960 . S
C2263 C2260 1.511 . S
C2263 H2277 0.961 . S
C2263 H2278 0.961 . S
C2263 H2279 0.961 . S
C2264 C2265 1.370 . S
C2264 C2266 1.363 . S
C2264 H2280 0.931 . S
C2265 C2264 1.370 . S
C2265 C2269 1.408 . S
C2266 C2264 1.363 . S
C2266 C2267 1.370 . S
C2266 C2270 1.524 . S
C2267 C2259 1.503 . S
C2267 C2266 1.370 . S
C2267 C2268 1.403 . S
C2268 C2267 1.403 . S
C2268 C2269 1.404 . S
C2268 C2271 1.539 . S
C2269 C2265 1.408 . S
C2269 C2268 1.404 . S
C2269 H2281 0.930 . S
C2270 C2266 1.524 . S
C2270 H2282 0.956 . S
C2270 H2283 0.961 . S
C2270 H2284 0.961 . S
C2271 C2268 1.539 . S
C2271 H2285 0.958 . S
C2271 H2286 0.961 . S
C2271 H2287 0.960 . S
H2272 C2256 0.931 . S
H2273 C2261 0.929 . S
H2274 C2262 0.960 . S
H2275 C2262 0.962 . S
H2276 C2262 0.960 . S
H2277 C2263 0.961 . S
H2278 C2263 0.961 . S
H2279 C2263 0.961 . S
H2280 C2264 0.931 . S
H2281 C2269 0.930 . S
H2282 C2270 0.956 . S
H2283 C2270 0.961 . S
H2284 C2270 0.961 . S
H2285 C2271 0.958 . S
H2286 C2271 0.961 . S
H2287 C2271 0.960 . S
C2288 C2289 1.391 . S
C2288 C2290 1.394 . S
C2288 H2304 0.931 . S
C2289 C2288 1.391 . S
C2289 C2293 1.376 . S
C2290 C2288 1.394 . S
C2290 C2291 1.369 . S
C2290 C2294 1.531 . S
C2291 C2290 1.369 . S
C2291 C2292 1.410 . S
C2291 C2299 1.503 . S
C2292 C2291 1.410 . S
C2292 C2293 1.392 . S
C2292 C2295 1.511 . S
C2293 C2289 1.376 . S
C2293 C2292 1.392 . S
C2293 H2305 0.929 . S
C2294 C2290 1.531 . S
C2294 H2306 0.960 . S
C2294 H2307 0.962 . S
C2294 H2308 0.960 . S
C2295 C2292 1.511 . S
C2295 H2309 0.961 . S
C2295 H2310 0.961 . S
C2295 H2311 0.961 . S
C2296 C2297 1.370 . S
C2296 C2298 1.363 . S
C2296 H2312 0.931 . S
C2297 C2296 1.370 . S
C2297 C2301 1.408 . S
C2298 C2296 1.363 . S
C2298 C2299 1.370 . S
C2298 C2302 1.524 . S
C2299 C2291 1.503 . S
C2299 C2298 1.370 . S
C2299 C2300 1.403 . S
C2300 C2299 1.403 . S
C2300 C2301 1.404 . S
C2300 C2303 1.539 . S
C2301 C2297 1.408 . S
C2301 C2300 1.404 . S
C2301 H2313 0.930 . S
C2302 C2298 1.524 . S
C2302 H2314 0.956 . S
C2302 H2315 0.961 . S
C2302 H2316 0.961 . S
C2303 C2300 1.539 . S
C2303 H2317 0.958 . S
C2303 H2318 0.961 . S
C2303 H2319 0.960 . S
H2304 C2288 0.931 . S
H2305 C2293 0.929 . S
H2306 C2294 0.960 . S
H2307 C2294 0.962 . S
H2308 C2294 0.960 . S
H2309 C2295 0.961 . S
H2310 C2295 0.961 . S
H2311 C2295 0.961 . S
H2312 C2296 0.931 . S
H2313 C2301 0.930 . S
H2314 C2302 0.956 . S
H2315 C2302 0.961 . S
H2316 C2302 0.961 . S
H2317 C2303 0.958 . S
H2318 C2303 0.961 . S
H2319 C2303 0.960 . S
C2320 C2321 1.391 . S
C2320 C2322 1.394 . S
C2320 H2336 0.931 . S
C2321 C2320 1.391 . S
C2321 C2325 1.376 . S
C2322 C2320 1.394 . S
C2322 C2323 1.369 . S
C2322 C2326 1.531 . S
C2323 C2322 1.369 . S
C2323 C2324 1.410 . S
C2323 C2331 1.503 . S
C2324 C2323 1.410 . S
C2324 C2325 1.392 . S
C2324 C2327 1.511 . S
C2325 C2321 1.376 . S
C2325 C2324 1.392 . S
C2325 H2337 0.929 . S
C2326 C2322 1.531 . S
C2326 H2338 0.960 . S
C2326 H2339 0.962 . S
C2326 H2340 0.960 . S
C2327 C2324 1.511 . S
C2327 H2341 0.961 . S
C2327 H2342 0.961 . S
C2327 H2343 0.961 . S
C2328 C2329 1.370 . S
C2328 C2330 1.363 . S
C2328 H2344 0.931 . S
C2329 C2328 1.370 . S
C2329 C2333 1.408 . S
C2330 C2328 1.363 . S
C2330 C2331 1.370 . S
C2330 C2334 1.524 . S
C2331 C2323 1.503 . S
C2331 C2330 1.370 . S
C2331 C2332 1.403 . S
C2332 C2331 1.403 . S
C2332 C2333 1.404 . S
C2332 C2335 1.539 . S
C2333 C2329 1.408 . S
C2333 C2332 1.404 . S
C2333 H2345 0.930 . S
C2334 C2330 1.524 . S
C2334 H2346 0.956 . S
C2334 H2347 0.961 . S
C2334 H2348 0.961 . S
C2335 C2332 1.539 . S
C2335 H2349 0.958 . S
C2335 H2350 0.961 . S
C2335 H2351 0.960 . S
H2336 C2320 0.931 . S
H2337 C2325 0.929 . S
H2338 C2326 0.960 . S
H2339 C2326 0.962 . S
H2340 C2326 0.960 . S
H2341 C2327 0.961 . S
H2342 C2327 0.961 . S
H2343 C2327 0.961 . S
H2344 C2328 0.931 . S
H2345 C2333 0.930 . S
H2346 C2334 0.956 . S
H2347 C2334 0.961 . S
H2348 C2334 0.961 . S
H2349 C2335 0.958 . S
H2350 C2335 0.961 . S
H2351 C2335 0.960 . S
C2352 C2353 1.391 . S
C2352 C2354 1.394 . S
C2352 H2368 0.931 . S
C2353 C2352 1.391 . S
C2353 C2357 1.376 . S
C2354 C2352 1.394 . S
C2354 C2355 1.369 . S
C2354 C2358 1.531 . S
C2355 C2354 1.369 . S
C2355 C2356 1.410 . S
C2355 C2363 1.503 . S
C2356 C2355 1.410 . S
C2356 C2357 1.392 . S
C2356 C2359 1.511 . S
C2357 C2353 1.376 . S
C2357 C2356 1.392 . S
C2357 H2369 0.929 . S
C2358 C2354 1.531 . S
C2358 H2370 0.960 . S
C2358 H2371 0.962 . S
C2358 H2372 0.960 . S
C2359 C2356 1.511 . S
C2359 H2373 0.961 . S
C2359 H2374 0.961 . S
C2359 H2375 0.961 . S
C2360 C2361 1.370 . S
C2360 C2362 1.363 . S
C2360 H2376 0.931 . S
C2361 C2360 1.370 . S
C2361 C2365 1.408 . S
C2362 C2360 1.363 . S
C2362 C2363 1.370 . S
C2362 C2366 1.524 . S
C2363 C2355 1.503 . S
C2363 C2362 1.370 . S
C2363 C2364 1.403 . S
C2364 C2363 1.403 . S
C2364 C2365 1.404 . S
C2364 C2367 1.539 . S
C2365 C2361 1.408 . S
C2365 C2364 1.404 . S
C2365 H2377 0.930 . S
C2366 C2362 1.524 . S
C2366 H2378 0.956 . S
C2366 H2379 0.961 . S
C2366 H2380 0.961 . S
C2367 C2364 1.539 . S
C2367 H2381 0.958 . S
C2367 H2382 0.961 . S
C2367 H2383 0.960 . S
H2368 C2352 0.931 . S
H2369 C2357 0.929 . S
H2370 C2358 0.960 . S
H2371 C2358 0.962 . S
H2372 C2358 0.960 . S
H2373 C2359 0.961 . S
H2374 C2359 0.961 . S
H2375 C2359 0.961 . S
H2376 C2360 0.931 . S
H2377 C2365 0.930 . S
H2378 C2366 0.956 . S
H2379 C2366 0.961 . S
H2380 C2366 0.961 . S
H2381 C2367 0.958 . S
H2382 C2367 0.961 . S
H2383 C2367 0.960 . S
C2384 C2385 1.391 . S
C2384 C2386 1.394 . S
C2384 H2400 0.931 . S
C2385 C2384 1.391 . S
C2385 C2389 1.376 . S
C2386 C2384 1.394 . S
C2386 C2387 1.369 . S
C2386 C2390 1.531 . S
C2387 C2386 1.369 . S
C2387 C2388 1.410 . S
C2387 C2395 1.503 . S
C2388 C2387 1.410 . S
C2388 C2389 1.392 . S
C2388 C2391 1.511 . S
C2389 C2385 1.376 . S
C2389 C2388 1.392 . S
C2389 H2401 0.929 . S
C2390 C2386 1.531 . S
C2390 H2402 0.960 . S
C2390 H2403 0.962 . S
C2390 H2404 0.960 . S
C2391 C2388 1.511 . S
C2391 H2405 0.961 . S
C2391 H2406 0.961 . S
C2391 H2407 0.961 . S
C2392 C2393 1.370 . S
C2392 C2394 1.363 . S
C2392 H2408 0.931 . S
C2393 C2392 1.370 . S
C2393 C2397 1.408 . S
C2394 C2392 1.363 . S
C2394 C2395 1.370 . S
C2394 C2398 1.524 . S
C2395 C2387 1.503 . S
C2395 C2394 1.370 . S
C2395 C2396 1.403 . S
C2396 C2395 1.403 . S
C2396 C2397 1.404 . S
C2396 C2399 1.539 . S
C2397 C2393 1.408 . S
C2397 C2396 1.404 . S
C2397 H2409 0.930 . S
C2398 C2394 1.524 . S
C2398 H2410 0.956 . S
C2398 H2411 0.961 . S
C2398 H2412 0.961 . S
C2399 C2396 1.539 . S
C2399 H2413 0.958 . S
C2399 H2414 0.961 . S
C2399 H2415 0.960 . S
H2400 C2384 0.931 . S
H2401 C2389 0.929 . S
H2402 C2390 0.960 . S
H2403 C2390 0.962 . S
H2404 C2390 0.960 . S
H2405 C2391 0.961 . S
H2406 C2391 0.961 . S
H2407 C2391 0.961 . S
H2408 C2392 0.931 . S
H2409 C2397 0.930 . S
H2410 C2398 0.956 . S
H2411 C2398 0.961 . S
H2412 C2398 0.961 . S
H2413 C2399 0.958 . S
H2414 C2399 0.961 . S
H2415 C2399 0.960 . S
C2416 C2417 1.391 . S
C2416 C2418 1.394 . S
C2416 H2432 0.931 . S
C2417 C2416 1.391 . S
C2417 C2421 1.376 . S
C2418 C2416 1.394 . S
C2418 C2419 1.369 . S
C2418 C2422 1.531 . S
C2419 C2418 1.369 . S
C2419 C2420 1.410 . S
C2419 C2427 1.503 . S
C2420 C2419 1.410 . S
C2420 C2421 1.392 . S
C2420 C2423 1.511 . S
C2421 C2417 1.376 . S
C2421 C2420 1.392 . S
C2421 H2433 0.929 . S
C2422 C2418 1.531 . S
C2422 H2434 0.960 . S
C2422 H2435 0.962 . S
C2422 H2436 0.960 . S
C2423 C2420 1.511 . S
C2423 H2437 0.961 . S
C2423 H2438 0.961 . S
C2423 H2439 0.961 . S
C2424 C2425 1.370 . S
C2424 C2426 1.363 . S
C2424 H2440 0.931 . S
C2425 C2424 1.370 . S
C2425 C2429 1.408 . S
C2426 C2424 1.363 . S
C2426 C2427 1.370 . S
C2426 C2430 1.524 . S
C2427 C2419 1.503 . S
C2427 C2426 1.370 . S
C2427 C2428 1.403 . S
C2428 C2427 1.403 . S
C2428 C2429 1.404 . S
C2428 C2431 1.539 . S
C2429 C2425 1.408 . S
C2429 C2428 1.404 . S
C2429 H2441 0.930 . S
C2430 C2426 1.524 . S
C2430 H2442 0.956 . S
C2430 H2443 0.961 . S
C2430 H2444 0.961 . S
C2431 C2428 1.539 . S
C2431 H2445 0.958 . S
C2431 H2446 0.961 . S
C2431 H2447 0.960 . S
H2432 C2416 0.931 . S
H2433 C2421 0.929 . S
H2434 C2422 0.960 . S
H2435 C2422 0.962 . S
H2436 C2422 0.960 . S
H2437 C2423 0.961 . S
H2438 C2423 0.961 . S
H2439 C2423 0.961 . S
H2440 C2424 0.931 . S
H2441 C2429 0.930 . S
H2442 C2430 0.956 . S
H2443 C2430 0.961 . S
H2444 C2430 0.961 . S
H2445 C2431 0.958 . S
H2446 C2431 0.961 . S
H2447 C2431 0.960 . S
C2448 C2449 1.391 . S
C2448 C2450 1.394 . S
C2448 H2464 0.931 . S
C2449 C2448 1.391 . S
C2449 C2453 1.376 . S
C2450 C2448 1.394 . S
C2450 C2451 1.369 . S
C2450 C2454 1.531 . S
C2451 C2450 1.369 . S
C2451 C2452 1.410 . S
C2451 C2459 1.503 . S
C2452 C2451 1.410 . S
C2452 C2453 1.392 . S
C2452 C2455 1.511 . S
C2453 C2449 1.376 . S
C2453 C2452 1.392 . S
C2453 H2465 0.929 . S
C2454 C2450 1.531 . S
C2454 H2466 0.960 . S
C2454 H2467 0.962 . S
C2454 H2468 0.960 . S
C2455 C2452 1.511 . S
C2455 H2469 0.961 . S
C2455 H2470 0.961 . S
C2455 H2471 0.961 . S
C2456 C2457 1.370 . S
C2456 C2458 1.363 . S
C2456 H2472 0.931 . S
C2457 C2456 1.370 . S
C2457 C2461 1.408 . S
C2458 C2456 1.363 . S
C2458 C2459 1.370 . S
C2458 C2462 1.524 . S
C2459 C2451 1.503 . S
C2459 C2458 1.370 . S
C2459 C2460 1.403 . S
C2460 C2459 1.403 . S
C2460 C2461 1.404 . S
C2460 C2463 1.539 . S
C2461 C2457 1.408 . S
C2461 C2460 1.404 . S
C2461 H2473 0.930 . S
C2462 C2458 1.524 . S
C2462 H2474 0.956 . S
C2462 H2475 0.961 . S
C2462 H2476 0.961 . S
C2463 C2460 1.539 . S
C2463 H2477 0.958 . S
C2463 H2478 0.961 . S
C2463 H2479 0.960 . S
H2464 C2448 0.931 . S
H2465 C2453 0.929 . S
H2466 C2454 0.960 . S
H2467 C2454 0.962 . S
H2468 C2454 0.960 . S
H2469 C2455 0.961 . S
H2470 C2455 0.961 . S
H2471 C2455 0.961 . S
H2472 C2456 0.931 . S
H2473 C2461 0.930 . S
H2474 C2462 0.956 . S
H2475 C2462 0.961 . S
H2476 C2462 0.961 . S
H2477 C2463 0.958 . S
H2478 C2463 0.961 . S
H2479 C2463 0.960 . S
C2480 C2481 1.391 . S
C2480 C2482 1.394 . S
C2480 H2496 0.931 . S
C2481 C2480 1.391 . S
C2481 C2485 1.376 . S
C2482 C2480 1.394 . S
C2482 C2483 1.369 . S
C2482 C2486 1.531 . S
C2483 C2482 1.369 . S
C2483 C2484 1.410 . S
C2483 C2491 1.503 . S
C2484 C2483 1.410 . S
C2484 C2485 1.392 . S
C2484 C2487 1.511 . S
C2485 C2481 1.376 . S
C2485 C2484 1.392 . S
C2485 H2497 0.929 . S
C2486 C2482 1.531 . S
C2486 H2498 0.960 . S
C2486 H2499 0.962 . S
C2486 H2500 0.960 . S
C2487 C2484 1.511 . S
C2487 H2501 0.961 . S
C2487 H2502 0.961 . S
C2487 H2503 0.961 . S
C2488 C2489 1.370 . S
C2488 C2490 1.363 . S
C2488 H2504 0.931 . S
C2489 C2488 1.370 . S
C2489 C2493 1.408 . S
C2490 C2488 1.363 . S
C2490 C2491 1.370 . S
C2490 C2494 1.524 . S
C2491 C2483 1.503 . S
C2491 C2490 1.370 . S
C2491 C2492 1.403 . S
C2492 C2491 1.403 . S
C2492 C2493 1.404 . S
C2492 C2495 1.539 . S
C2493 C2489 1.408 . S
C2493 C2492 1.404 . S
C2493 H2505 0.930 . S
C2494 C2490 1.524 . S
C2494 H2506 0.956 . S
C2494 H2507 0.961 . S
C2494 H2508 0.961 . S
C2495 C2492 1.539 . S
C2495 H2509 0.958 . S
C2495 H2510 0.961 . S
C2495 H2511 0.960 . S
H2496 C2480 0.931 . S
H2497 C2485 0.929 . S
H2498 C2486 0.960 . S
H2499 C2486 0.962 . S
H2500 C2486 0.960 . S
H2501 C2487 0.961 . S
H2502 C2487 0.961 . S
H2503 C2487 0.961 . S
H2504 C2488 0.931 . S
H2505 C2493 0.930 . S
H2506 C2494 0.956 . S
H2507 C2494 0.961 . S
H2508 C2494 0.961 . S
H2509 C2495 0.958 . S
H2510 C2495 0.961 . S
H2511 C2495 0.960 . S
C2512 C2513 1.391 . S
C2512 C2514 1.394 . S
C2512 H2528 0.931 . S
C2513 C2512 1.391 . S
C2513 C2517 1.376 . S
C2514 C2512 1.394 . S
C2514 C2515 1.369 . S
C2514 C2518 1.531 . S
C2515 C2514 1.369 . S
C2515 C2516 1.410 . S
C2515 C2523 1.503 . S
C2516 C2515 1.410 . S
C2516 C2517 1.392 . S
C2516 C2519 1.511 . S
C2517 C2513 1.376 . S
C2517 C2516 1.392 . S
C2517 H2529 0.929 . S
C2518 C2514 1.531 . S
C2518 H2530 0.960 . S
C2518 H2531 0.962 . S
C2518 H2532 0.960 . S
C2519 C2516 1.511 . S
C2519 H2533 0.961 . S
C2519 H2534 0.961 . S
C2519 H2535 0.961 . S
C2520 C2521 1.370 . S
C2520 C2522 1.363 . S
C2520 H2536 0.931 . S
C2521 C2520 1.370 . S
C2521 C2525 1.408 . S
C2522 C2520 1.363 . S
C2522 C2523 1.370 . S
C2522 C2526 1.524 . S
C2523 C2515 1.503 . S
C2523 C2522 1.370 . S
C2523 C2524 1.403 . S
C2524 C2523 1.403 . S
C2524 C2525 1.404 . S
C2524 C2527 1.539 . S
C2525 C2521 1.408 . S
C2525 C2524 1.404 . S
C2525 H2537 0.930 . S
C2526 C2522 1.524 . S
C2526 H2538 0.956 . S
C2526 H2539 0.961 . S
C2526 H2540 0.961 . S
C2527 C2524 1.539 . S
C2527 H2541 0.958 . S
C2527 H2542 0.961 . S
C2527 H2543 0.960 . S
H2528 C2512 0.931 . S
H2529 C2517 0.929 . S
H2530 C2518 0.960 . S
H2531 C2518 0.962 . S
H2532 C2518 0.960 . S
H2533 C2519 0.961 . S
H2534 C2519 0.961 . S
H2535 C2519 0.961 . S
H2536 C2520 0.931 . S
H2537 C2525 0.930 . S
H2538 C2526 0.956 . S
H2539 C2526 0.961 . S
H2540 C2526 0.961 . S
H2541 C2527 0.958 . S
H2542 C2527 0.961 . S
H2543 C2527 0.960 . S
C2544 C2545 1.391 . S
C2544 C2546 1.394 . S
C2544 H2560 0.931 . S
C2545 C2544 1.391 . S
C2545 C2549 1.376 . S
C2546 C2544 1.394 . S
C2546 C2547 1.369 . S
C2546 C2550 1.531 . S
C2547 C2546 1.369 . S
C2547 C2548 1.410 . S
C2547 C2555 1.503 . S
C2548 C2547 1.410 . S
C2548 C2549 1.392 . S
C2548 C2551 1.511 . S
C2549 C2545 1.376 . S
C2549 C2548 1.392 . S
C2549 H2561 0.929 . S
C2550 C2546 1.531 . S
C2550 H2562 0.960 . S
C2550 H2563 0.962 . S
C2550 H2564 0.960 . S
C2551 C2548 1.511 . S
C2551 H2565 0.961 . S
C2551 H2566 0.961 . S
C2551 H2567 0.961 . S
C2552 C2553 1.370 . S
C2552 C2554 1.363 . S
C2552 H2568 0.931 . S
C2553 C2552 1.370 . S
C2553 C2557 1.408 . S
C2554 C2552 1.363 . S
C2554 C2555 1.370 . S
C2554 C2558 1.524 . S
C2555 C2547 1.503 . S
C2555 C2554 1.370 . S
C2555 C2556 1.403 . S
C2556 C2555 1.403 . S
C2556 C2557 1.404 . S
C2556 C2559 1.539 . S
C2557 C2553 1.408 . S
C2557 C2556 1.404 . S
C2557 H2569 0.930 . S
C2558 C2554 1.524 . S
C2558 H2570 0.956 . S
C2558 H2571 0.961 . S
C2558 H2572 0.961 . S
C2559 C2556 1.539 . S
C2559 H2573 0.958 . S
C2559 H2574 0.961 . S
C2559 H2575 0.960 . S
H2560 C2544 0.931 . S
H2561 C2549 0.929 . S
H2562 C2550 0.960 . S
H2563 C2550 0.962 . S
H2564 C2550 0.960 . S
H2565 C2551 0.961 . S
H2566 C2551 0.961 . S
H2567 C2551 0.961 . S
H2568 C2552 0.931 . S
H2569 C2557 0.930 . S
H2570 C2558 0.956 . S
H2571 C2558 0.961 . S
H2572 C2558 0.961 . S
H2573 C2559 0.958 . S
H2574 C2559 0.961 . S
H2575 C2559 0.960 . S
C2576 C2577 1.391 . S
C2576 C2578 1.394 . S
C2576 H2592 0.931 . S
C2577 C2576 1.391 . S
C2577 C2581 1.376 . S
C2578 C2576 1.394 . S
C2578 C2579 1.369 . S
C2578 C2582 1.531 . S
C2579 C2578 1.369 . S
C2579 C2580 1.410 . S
C2579 C2587 1.503 . S
C2580 C2579 1.410 . S
C2580 C2581 1.392 . S
C2580 C2583 1.511 . S
C2581 C2577 1.376 . S
C2581 C2580 1.392 . S
C2581 H2593 0.929 . S
C2582 C2578 1.531 . S
C2582 H2594 0.960 . S
C2582 H2595 0.962 . S
C2582 H2596 0.960 . S
C2583 C2580 1.511 . S
C2583 H2597 0.961 . S
C2583 H2598 0.961 . S
C2583 H2599 0.961 . S
C2584 C2585 1.370 . S
C2584 C2586 1.363 . S
C2584 H2600 0.931 . S
C2585 C2584 1.370 . S
C2585 C2589 1.408 . S
C2586 C2584 1.363 . S
C2586 C2587 1.370 . S
C2586 C2590 1.524 . S
C2587 C2579 1.503 . S
C2587 C2586 1.370 . S
C2587 C2588 1.403 . S
C2588 C2587 1.403 . S
C2588 C2589 1.404 . S
C2588 C2591 1.539 . S
C2589 C2585 1.408 . S
C2589 C2588 1.404 . S
C2589 H2601 0.930 . S
C2590 C2586 1.524 . S
C2590 H2602 0.956 . S
C2590 H2603 0.961 . S
C2590 H2604 0.961 . S
C2591 C2588 1.539 . S
C2591 H2605 0.958 . S
C2591 H2606 0.961 . S
C2591 H2607 0.960 . S
H2592 C2576 0.931 . S
H2593 C2581 0.929 . S
H2594 C2582 0.960 . S
H2595 C2582 0.962 . S
H2596 C2582 0.960 . S
H2597 C2583 0.961 . S
H2598 C2583 0.961 . S
H2599 C2583 0.961 . S
H2600 C2584 0.931 . S
H2601 C2589 0.930 . S
H2602 C2590 0.956 . S
H2603 C2590 0.961 . S
H2604 C2590 0.961 . S
H2605 C2591 0.958 . S
H2606 C2591 0.961 . S
H2607 C2591 0.960 . S
C2608 C2609 1.391 . S
C2608 C2610 1.394 . S
C2608 H2624 0.931 . S
C2609 C2608 1.391 . S
C2609 C2613 1.376 . S
C2610 C2608 1.394 . S
C2610 C2611 1.369 . S
C2610 C2614 1.531 . S
C2611 C2610 1.369 . S
C2611 C2612 1.410 . S
C2611 C2619 1.503 . S
C2612 C2611 1.410 . S
C2612 C2613 1.392 . S
C2612 C2615 1.511 . S
C2613 C2609 1.376 . S
C2613 C2612 1.392 . S
C2613 H2625 0.929 . S
C2614 C2610 1.531 . S
C2614 H2626 0.960 . S
C2614 H2627 0.962 . S
C2614 H2628 0.960 . S
C2615 C2612 1.511 . S
C2615 H2629 0.961 . S
C2615 H2630 0.961 . S
C2615 H2631 0.961 . S
C2616 C2617 1.370 . S
C2616 C2618 1.363 . S
C2616 H2632 0.931 . S
C2617 C2616 1.370 . S
C2617 C2621 1.408 . S
C2618 C2616 1.363 . S
C2618 C2619 1.370 . S
C2618 C2622 1.524 . S
C2619 C2611 1.503 . S
C2619 C2618 1.370 . S
C2619 C2620 1.403 . S
C2620 C2619 1.403 . S
C2620 C2621 1.404 . S
C2620 C2623 1.539 . S
C2621 C2617 1.408 . S
C2621 C2620 1.404 . S
C2621 H2633 0.930 . S
C2622 C2618 1.524 . S
C2622 H2634 0.956 . S
C2622 H2635 0.961 . S
C2622 H2636 0.961 . S
C2623 C2620 1.539 . S
C2623 H2637 0.958 . S
C2623 H2638 0.961 . S
C2623 H2639 0.960 . S
H2624 C2608 0.931 . S
H2625 C2613 0.929 . S
H2626 C2614 0.960 . S
H2627 C2614 0.962 . S
H2628 C2614 0.960 . S
H2629 C2615 0.961 . S
H2630 C2615 0.961 . S
H2631 C2615 0.961 . S
H2632 C2616 0.931 . S
H2633 C2621 0.930 . S
H2634 C2622 0.956 . S
H2635 C2622 0.961 . S
H2636 C2622 0.961 . S
H2637 C2623 0.958 . S
H2638 C2623 0.961 . S
H2639 C2623 0.960 . S
C2640 C2641 1.391 . S
C2640 C2642 1.394 . S
C2640 H2656 0.931 . S
C2641 C2640 1.391 . S
C2641 C2645 1.376 . S
C2642 C2640 1.394 . S
C2642 C2643 1.369 . S
C2642 C2646 1.531 . S
C2643 C2642 1.369 . S
C2643 C2644 1.410 . S
C2643 C2651 1.503 . S
C2644 C2643 1.410 . S
C2644 C2645 1.392 . S
C2644 C2647 1.511 . S
C2645 C2641 1.376 . S
C2645 C2644 1.392 . S
C2645 H2657 0.929 . S
C2646 C2642 1.531 . S
C2646 H2658 0.960 . S
C2646 H2659 0.962 . S
C2646 H2660 0.960 . S
C2647 C2644 1.511 . S
C2647 H2661 0.961 . S
C2647 H2662 0.961 . S
C2647 H2663 0.961 . S
C2648 C2649 1.370 . S
C2648 C2650 1.363 . S
C2648 H2664 0.931 . S
C2649 C2648 1.370 . S
C2649 C2653 1.408 . S
C2650 C2648 1.363 . S
C2650 C2651 1.370 . S
C2650 C2654 1.524 . S
C2651 C2643 1.503 . S
C2651 C2650 1.370 . S
C2651 C2652 1.403 . S
C2652 C2651 1.403 . S
C2652 C2653 1.404 . S
C2652 C2655 1.539 . S
C2653 C2649 1.408 . S
C2653 C2652 1.404 . S
C2653 H2665 0.930 . S
C2654 C2650 1.524 . S
C2654 H2666 0.956 . S
C2654 H2667 0.961 . S
C2654 H2668 0.961 . S
C2655 C2652 1.539 . S
C2655 H2669 0.958 . S
C2655 H2670 0.961 . S
C2655 H2671 0.960 . S
H2656 C2640 0.931 . S
H2657 C2645 0.929 . S
H2658 C2646 0.960 . S
H2659 C2646 0.962 . S
H2660 C2646 0.960 . S
H2661 C2647 0.961 . S
H2662 C2647 0.961 . S
H2663 C2647 0.961 . S
H2664 C2648 0.931 . S
H2665 C2653 0.930 . S
H2666 C2654 0.956 . S
H2667 C2654 0.961 . S
H2668 C2654 0.961 . S
H2669 C2655 0.958 . S
H2670 C2655 0.961 . S
H2671 C2655 0.960 . S
C2672 C2673 1.391 . S
C2672 C2674 1.394 . S
C2672 H2688 0.931 . S
C2673 C2672 1.391 . S
C2673 C2677 1.376 . S
C2674 C2672 1.394 . S
C2674 C2675 1.369 . S
C2674 C2678 1.531 . S
C2675 C2674 1.369 . S
C2675 C2676 1.410 . S
C2675 C2683 1.503 . S
C2676 C2675 1.410 . S
C2676 C2677 1.392 . S
C2676 C2679 1.511 . S
C2677 C2673 1.376 . S
C2677 C2676 1.392 . S
C2677 H2689 0.929 . S
C2678 C2674 1.531 . S
C2678 H2690 0.960 . S
C2678 H2691 0.962 . S
C2678 H2692 0.960 . S
C2679 C2676 1.511 . S
C2679 H2693 0.961 . S
C2679 H2694 0.961 . S
C2679 H2695 0.961 . S
C2680 C2681 1.370 . S
C2680 C2682 1.363 . S
C2680 H2696 0.931 . S
C2681 C2680 1.370 . S
C2681 C2685 1.408 . S
C2682 C2680 1.363 . S
C2682 C2683 1.370 . S
C2682 C2686 1.524 . S
C2683 C2675 1.503 . S
C2683 C2682 1.370 . S
C2683 C2684 1.403 . S
C2684 C2683 1.403 . S
C2684 C2685 1.404 . S
C2684 C2687 1.539 . S
C2685 C2681 1.408 . S
C2685 C2684 1.404 . S
C2685 H2697 0.930 . S
C2686 C2682 1.524 . S
C2686 H2698 0.956 . S
C2686 H2699 0.961 . S
C2686 H2700 0.961 . S
C2687 C2684 1.539 . S
C2687 H2701 0.958 . S
C2687 H2702 0.961 . S
C2687 H2703 0.960 . S
H2688 C2672 0.931 . S
H2689 C2677 0.929 . S
H2690 C2678 0.960 . S
H2691 C2678 0.962 . S
H2692 C2678 0.960 . S
H2693 C2679 0.961 . S
H2694 C2679 0.961 . S
H2695 C2679 0.961 . S
H2696 C2680 0.931 . S
H2697 C2685 0.930 . S
H2698 C2686 0.956 . S
H2699 C2686 0.961 . S
H2700 C2686 0.961 . S
H2701 C2687 0.958 . S
H2702 C2687 0.961 . S
H2703 C2687 0.960 . S
C2704 C2705 1.391 . S
C2704 C2706 1.394 . S
C2704 H2720 0.931 . S
C2705 C2704 1.391 . S
C2705 C2709 1.376 . S
C2706 C2704 1.394 . S
C2706 C2707 1.369 . S
C2706 C2710 1.531 . S
C2707 C2706 1.369 . S
C2707 C2708 1.410 . S
C2707 C2715 1.503 . S
C2708 C2707 1.410 . S
C2708 C2709 1.392 . S
C2708 C2711 1.511 . S
C2709 C2705 1.376 . S
C2709 C2708 1.392 . S
C2709 H2721 0.929 . S
C2710 C2706 1.531 . S
C2710 H2722 0.960 . S
C2710 H2723 0.962 . S
C2710 H2724 0.960 . S
C2711 C2708 1.511 . S
C2711 H2725 0.961 . S
C2711 H2726 0.961 . S
C2711 H2727 0.961 . S
C2712 C2713 1.370 . S
C2712 C2714 1.363 . S
C2712 H2728 0.931 . S
C2713 C2712 1.370 . S
C2713 C2717 1.408 . S
C2714 C2712 1.363 . S
C2714 C2715 1.370 . S
C2714 C2718 1.524 . S
C2715 C2707 1.503 . S
C2715 C2714 1.370 . S
C2715 C2716 1.403 . S
C2716 C2715 1.403 . S
C2716 C2717 1.404 . S
C2716 C2719 1.539 . S
C2717 C2713 1.408 . S
C2717 C2716 1.404 . S
C2717 H2729 0.930 . S
C2718 C2714 1.524 . S
C2718 H2730 0.956 . S
C2718 H2731 0.961 . S
C2718 H2732 0.961 . S
C2719 C2716 1.539 . S
C2719 H2733 0.958 . S
C2719 H2734 0.961 . S
C2719 H2735 0.960 . S
H2720 C2704 0.931 . S
H2721 C2709 0.929 . S
H2722 C2710 0.960 . S
H2723 C2710 0.962 . S
H2724 C2710 0.960 . S
H2725 C2711 0.961 . S
H2726 C2711 0.961 . S
H2727 C2711 0.961 . S
H2728 C2712 0.931 . S
H2729 C2717 0.930 . S
H2730 C2718 0.956 . S
H2731 C2718 0.961 . S
H2732 C2718 0.961 . S
H2733 C2719 0.958 . S
H2734 C2719 0.961 . S
H2735 C2719 0.960 . S
C2736 C2737 1.391 . S
C2736 C2738 1.394 . S
C2736 H2752 0.931 . S
C2737 C2736 1.391 . S
C2737 C2741 1.376 . S
C2738 C2736 1.394 . S
C2738 C2739 1.369 . S
C2738 C2742 1.531 . S
C2739 C2738 1.369 . S
C2739 C2740 1.410 . S
C2739 C2747 1.503 . S
C2740 C2739 1.410 . S
C2740 C2741 1.392 . S
C2740 C2743 1.511 . S
C2741 C2737 1.376 . S
C2741 C2740 1.392 . S
C2741 H2753 0.929 . S
C2742 C2738 1.531 . S
C2742 H2754 0.960 . S
C2742 H2755 0.962 . S
C2742 H2756 0.960 . S
C2743 C2740 1.511 . S
C2743 H2757 0.961 . S
C2743 H2758 0.961 . S
C2743 H2759 0.961 . S
C2744 C2745 1.370 . S
C2744 C2746 1.363 . S
C2744 H2760 0.931 . S
C2745 C2744 1.370 . S
C2745 C2749 1.408 . S
C2746 C2744 1.363 . S
C2746 C2747 1.370 . S
C2746 C2750 1.524 . S
C2747 C2739 1.503 . S
C2747 C2746 1.370 . S
C2747 C2748 1.403 . S
C2748 C2747 1.403 . S
C2748 C2749 1.404 . S
C2748 C2751 1.539 . S
C2749 C2745 1.408 . S
C2749 C2748 1.404 . S
C2749 H2761 0.930 . S
C2750 C2746 1.524 . S
C2750 H2762 0.956 . S
C2750 H2763 0.961 . S
C2750 H2764 0.961 . S
C2751 C2748 1.539 . S
C2751 H2765 0.958 . S
C2751 H2766 0.961 . S
C2751 H2767 0.960 . S
H2752 C2736 0.931 . S
H2753 C2741 0.929 . S
H2754 C2742 0.960 . S
H2755 C2742 0.962 . S
H2756 C2742 0.960 . S
H2757 C2743 0.961 . S
H2758 C2743 0.961 . S
H2759 C2743 0.961 . S
H2760 C2744 0.931 . S
H2761 C2749 0.930 . S
H2762 C2750 0.956 . S
H2763 C2750 0.961 . S
H2764 C2750 0.961 . S
H2765 C2751 0.958 . S
H2766 C2751 0.961 . S
H2767 C2751 0.960 . S
C2768 C2769 1.391 . S
C2768 C2770 1.394 . S
C2768 H2784 0.931 . S
C2769 C2768 1.391 . S
C2769 C2773 1.376 . S
C2770 C2768 1.394 . S
C2770 C2771 1.369 . S
C2770 C2774 1.531 . S
C2771 C2770 1.369 . S
C2771 C2772 1.410 . S
C2771 C2779 1.503 . S
C2772 C2771 1.410 . S
C2772 C2773 1.392 . S
C2772 C2775 1.511 . S
C2773 C2769 1.376 . S
C2773 C2772 1.392 . S
C2773 H2785 0.929 . S
C2774 C2770 1.531 . S
C2774 H2786 0.960 . S
C2774 H2787 0.962 . S
C2774 H2788 0.960 . S
C2775 C2772 1.511 . S
C2775 H2789 0.961 . S
C2775 H2790 0.961 . S
C2775 H2791 0.961 . S
C2776 C2777 1.370 . S
C2776 C2778 1.363 . S
C2776 H2792 0.931 . S
C2777 C2776 1.370 . S
C2777 C2781 1.408 . S
C2778 C2776 1.363 . S
C2778 C2779 1.370 . S
C2778 C2782 1.524 . S
C2779 C2771 1.503 . S
C2779 C2778 1.370 . S
C2779 C2780 1.403 . S
C2780 C2779 1.403 . S
C2780 C2781 1.404 . S
C2780 C2783 1.539 . S
C2781 C2777 1.408 . S
C2781 C2780 1.404 . S
C2781 H2793 0.930 . S
C2782 C2778 1.524 . S
C2782 H2794 0.956 . S
C2782 H2795 0.961 . S
C2782 H2796 0.961 . S
C2783 C2780 1.539 . S
C2783 H2797 0.958 . S
C2783 H2798 0.961 . S
C2783 H2799 0.960 . S
H2784 C2768 0.931 . S
H2785 C2773 0.929 . S
H2786 C2774 0.960 . S
H2787 C2774 0.962 . S
H2788 C2774 0.960 . S
H2789 C2775 0.961 . S
H2790 C2775 0.961 . S
H2791 C2775 0.961 . S
H2792 C2776 0.931 . S
H2793 C2781 0.930 . S
H2794 C2782 0.956 . S
H2795 C2782 0.961 . S
H2796 C2782 0.961 . S
H2797 C2783 0.958 . S
H2798 C2783 0.961 . S
H2799 C2783 0.960 . S
C2800 C2801 1.391 . S
C2800 C2802 1.394 . S
C2800 H2816 0.931 . S
C2801 C2800 1.391 . S
C2801 C2805 1.376 . S
C2802 C2800 1.394 . S
C2802 C2803 1.369 . S
C2802 C2806 1.531 . S
C2803 C2802 1.369 . S
C2803 C2804 1.410 . S
C2803 C2811 1.503 . S
C2804 C2803 1.410 . S
C2804 C2805 1.392 . S
C2804 C2807 1.511 . S
C2805 C2801 1.376 . S
C2805 C2804 1.392 . S
C2805 H2817 0.929 . S
C2806 C2802 1.531 . S
C2806 H2818 0.960 . S
C2806 H2819 0.962 . S
C2806 H2820 0.960 . S
C2807 C2804 1.511 . S
C2807 H2821 0.961 . S
C2807 H2822 0.961 . S
C2807 H2823 0.961 . S
C2808 C2809 1.370 . S
C2808 C2810 1.363 . S
C2808 H2824 0.931 . S
C2809 C2808 1.370 . S
C2809 C2813 1.408 . S
C2810 C2808 1.363 . S
C2810 C2811 1.370 . S
C2810 C2814 1.524 . S
C2811 C2803 1.503 . S
C2811 C2810 1.370 . S
C2811 C2812 1.403 . S
C2812 C2811 1.403 . S
C2812 C2813 1.404 . S
C2812 C2815 1.539 . S
C2813 C2809 1.408 . S
C2813 C2812 1.404 . S
C2813 H2825 0.930 . S
C2814 C2810 1.524 . S
C2814 H2826 0.956 . S
C2814 H2827 0.961 . S
C2814 H2828 0.961 . S
C2815 C2812 1.539 . S
C2815 H2829 0.958 . S
C2815 H2830 0.961 . S
C2815 H2831 0.960 . S
H2816 C2800 0.931 . S
H2817 C2805 0.929 . S
H2818 C2806 0.960 . S
H2819 C2806 0.962 . S
H2820 C2806 0.960 . S
H2821 C2807 0.961 . S
H2822 C2807 0.961 . S
H2823 C2807 0.961 . S
H2824 C2808 0.931 . S
H2825 C2813 0.930 . S
H2826 C2814 0.956 . S
H2827 C2814 0.961 . S
H2828 C2814 0.961 . S
H2829 C2815 0.958 . S
H2830 C2815 0.961 . S
H2831 C2815 0.960 . S
C2832 C2833 1.391 . S
C2832 C2834 1.394 . S
C2832 H2848 0.931 . S
C2833 C2832 1.391 . S
C2833 C2837 1.376 . S
C2834 C2832 1.394 . S
C2834 C2835 1.369 . S
C2834 C2838 1.531 . S
C2835 C2834 1.369 . S
C2835 C2836 1.410 . S
C2835 C2843 1.503 . S
C2836 C2835 1.410 . S
C2836 C2837 1.392 . S
C2836 C2839 1.511 . S
C2837 C2833 1.376 . S
C2837 C2836 1.392 . S
C2837 H2849 0.929 . S
C2838 C2834 1.531 . S
C2838 H2850 0.960 . S
C2838 H2851 0.962 . S
C2838 H2852 0.960 . S
C2839 C2836 1.511 . S
C2839 H2853 0.961 . S
C2839 H2854 0.961 . S
C2839 H2855 0.961 . S
C2840 C2841 1.370 . S
C2840 C2842 1.363 . S
C2840 H2856 0.931 . S
C2841 C2840 1.370 . S
C2841 C2845 1.408 . S
C2842 C2840 1.363 . S
C2842 C2843 1.370 . S
C2842 C2846 1.524 . S
C2843 C2835 1.503 . S
C2843 C2842 1.370 . S
C2843 C2844 1.403 . S
C2844 C2843 1.403 . S
C2844 C2845 1.404 . S
C2844 C2847 1.539 . S
C2845 C2841 1.408 . S
C2845 C2844 1.404 . S
C2845 H2857 0.930 . S
C2846 C2842 1.524 . S
C2846 H2858 0.956 . S
C2846 H2859 0.961 . S
C2846 H2860 0.961 . S
C2847 C2844 1.539 . S
C2847 H2861 0.958 . S
C2847 H2862 0.961 . S
C2847 H2863 0.960 . S
H2848 C2832 0.931 . S
H2849 C2837 0.929 . S
H2850 C2838 0.960 . S
H2851 C2838 0.962 . S
H2852 C2838 0.960 . S
H2853 C2839 0.961 . S
H2854 C2839 0.961 . S
H2855 C2839 0.961 . S
H2856 C2840 0.931 . S
H2857 C2845 0.930 . S
H2858 C2846 0.956 . S
H2859 C2846 0.961 . S
H2860 C2846 0.961 . S
H2861 C2847 0.958 . S
H2862 C2847 0.961 . S
H2863 C2847 0.960 . S
C2864 C2865 1.391 . S
C2864 C2866 1.394 . S
C2864 H2880 0.931 . S
C2865 C2864 1.391 . S
C2865 C2869 1.376 . S
C2866 C2864 1.394 . S
C2866 C2867 1.369 . S
C2866 C2870 1.531 . S
C2867 C2866 1.369 . S
C2867 C2868 1.410 . S
C2867 C2875 1.503 . S
C2868 C2867 1.410 . S
C2868 C2869 1.392 . S
C2868 C2871 1.511 . S
C2869 C2865 1.376 . S
C2869 C2868 1.392 . S
C2869 H2881 0.929 . S
C2870 C2866 1.531 . S
C2870 H2882 0.960 . S
C2870 H2883 0.962 . S
C2870 H2884 0.960 . S
C2871 C2868 1.511 . S
C2871 H2885 0.961 . S
C2871 H2886 0.961 . S
C2871 H2887 0.961 . S
C2872 C2873 1.370 . S
C2872 C2874 1.363 . S
C2872 H2888 0.931 . S
C2873 C2872 1.370 . S
C2873 C2877 1.408 . S
C2874 C2872 1.363 . S
C2874 C2875 1.370 . S
C2874 C2878 1.524 . S
C2875 C2867 1.503 . S
C2875 C2874 1.370 . S
C2875 C2876 1.403 . S
C2876 C2875 1.403 . S
C2876 C2877 1.404 . S
C2876 C2879 1.539 . S
C2877 C2873 1.408 . S
C2877 C2876 1.404 . S
C2877 H2889 0.930 . S
C2878 C2874 1.524 . S
C2878 H2890 0.956 . S
C2878 H2891 0.961 . S
C2878 H2892 0.961 . S
C2879 C2876 1.539 . S
C2879 H2893 0.958 . S
C2879 H2894 0.961 . S
C2879 H2895 0.960 . S
H2880 C2864 0.931 . S
H2881 C2869 0.929 . S
H2882 C2870 0.960 . S
H2883 C2870 0.962 . S
H2884 C2870 0.960 . S
H2885 C2871 0.961 . S
H2886 C2871 0.961 . S
H2887 C2871 0.961 . S
H2888 C2872 0.931 . S
H2889 C2877 0.930 . S
H2890 C2878 0.956 . S
H2891 C2878 0.961 . S
H2892 C2878 0.961 . S
H2893 C2879 0.958 . S
H2894 C2879 0.961 . S
H2895 C2879 0.960 . S
C2896 C2897 1.391 . S
C2896 C2898 1.394 . S
C2896 H2912 0.931 . S
C2897 C2896 1.391 . S
C2897 C2901 1.376 . S
C2898 C2896 1.394 . S
C2898 C2899 1.369 . S
C2898 C2902 1.531 . S
C2899 C2898 1.369 . S
C2899 C2900 1.410 . S
C2899 C2907 1.503 . S
C2900 C2899 1.410 . S
C2900 C2901 1.392 . S
C2900 C2903 1.511 . S
C2901 C2897 1.376 . S
C2901 C2900 1.392 . S
C2901 H2913 0.929 . S
C2902 C2898 1.531 . S
C2902 H2914 0.960 . S
C2902 H2915 0.962 . S
C2902 H2916 0.960 . S
C2903 C2900 1.511 . S
C2903 H2917 0.961 . S
C2903 H2918 0.961 . S
C2903 H2919 0.961 . S
C2904 C2905 1.370 . S
C2904 C2906 1.363 . S
C2904 H2920 0.931 . S
C2905 C2904 1.370 . S
C2905 C2909 1.408 . S
C2906 C2904 1.363 . S
C2906 C2907 1.370 . S
C2906 C2910 1.524 . S
C2907 C2899 1.503 . S
C2907 C2906 1.370 . S
C2907 C2908 1.403 . S
C2908 C2907 1.403 . S
C2908 C2909 1.404 . S
C2908 C2911 1.539 . S
C2909 C2905 1.408 . S
C2909 C2908 1.404 . S
C2909 H2921 0.930 . S
C2910 C2906 1.524 . S
C2910 H2922 0.956 . S
C2910 H2923 0.961 . S
C2910 H2924 0.961 . S
C2911 C2908 1.539 . S
C2911 H2925 0.958 . S
C2911 H2926 0.961 . S
C2911 H2927 0.960 . S
H2912 C2896 0.931 . S
H2913 C2901 0.929 . S
H2914 C2902 0.960 . S
H2915 C2902 0.962 . S
H2916 C2902 0.960 . S
H2917 C2903 0.961 . S
H2918 C2903 0.961 . S
H2919 C2903 0.961 . S
H2920 C2904 0.931 . S
H2921 C2909 0.930 . S
H2922 C2910 0.956 . S
H2923 C2910 0.961 . S
H2924 C2910 0.961 . S
H2925 C2911 0.958 . S
H2926 C2911 0.961 . S
H2927 C2911 0.960 . S
C2928 C2929 1.391 . S
C2928 C2930 1.394 . S
C2928 H2944 0.931 . S
C2929 C2928 1.391 . S
C2929 C2933 1.376 . S
C2930 C2928 1.394 . S
C2930 C2931 1.369 . S
C2930 C2934 1.531 . S
C2931 C2930 1.369 . S
C2931 C2932 1.410 . S
C2931 C2939 1.503 . S
C2932 C2931 1.410 . S
C2932 C2933 1.392 . S
C2932 C2935 1.511 . S
C2933 C2929 1.376 . S
C2933 C2932 1.392 . S
C2933 H2945 0.929 . S
C2934 C2930 1.531 . S
C2934 H2946 0.960 . S
C2934 H2947 0.962 . S
C2934 H2948 0.960 . S
C2935 C2932 1.511 . S
C2935 H2949 0.961 . S
C2935 H2950 0.961 . S
C2935 H2951 0.961 . S
C2936 C2937 1.370 . S
C2936 C2938 1.363 . S
C2936 H2952 0.931 . S
C2937 C2936 1.370 . S
C2937 C2941 1.408 . S
C2938 C2936 1.363 . S
C2938 C2939 1.370 . S
C2938 C2942 1.524 . S
C2939 C2931 1.503 . S
C2939 C2938 1.370 . S
C2939 C2940 1.403 . S
C2940 C2939 1.403 . S
C2940 C2941 1.404 . S
C2940 C2943 1.539 . S
C2941 C2937 1.408 . S
C2941 C2940 1.404 . S
C2941 H2953 0.930 . S
C2942 C2938 1.524 . S
C2942 H2954 0.956 . S
C2942 H2955 0.961 . S
C2942 H2956 0.961 . S
C2943 C2940 1.539 . S
C2943 H2957 0.958 . S
C2943 H2958 0.961 . S
C2943 H2959 0.960 . S
H2944 C2928 0.931 . S
H2945 C2933 0.929 . S
H2946 C2934 0.960 . S
H2947 C2934 0.962 . S
H2948 C2934 0.960 . S
H2949 C2935 0.961 . S
H2950 C2935 0.961 . S
H2951 C2935 0.961 . S
H2952 C2936 0.931 . S
H2953 C2941 0.930 . S
H2954 C2942 0.956 . S
H2955 C2942 0.961 . S
H2956 C2942 0.961 . S
H2957 C2943 0.958 . S
H2958 C2943 0.961 . S
H2959 C2943 0.960 . S
C2960 C2961 1.391 . S
C2960 C2962 1.394 . S
C2960 H2976 0.931 . S
C2961 C2960 1.391 . S
C2961 C2965 1.376 . S
C2962 C2960 1.394 . S
C2962 C2963 1.369 . S
C2962 C2966 1.531 . S
C2963 C2962 1.369 . S
C2963 C2964 1.410 . S
C2963 C2971 1.503 . S
C2964 C2963 1.410 . S
C2964 C2965 1.392 . S
C2964 C2967 1.511 . S
C2965 C2961 1.376 . S
C2965 C2964 1.392 . S
C2965 H2977 0.929 . S
C2966 C2962 1.531 . S
C2966 H2978 0.960 . S
C2966 H2979 0.962 . S
C2966 H2980 0.960 . S
C2967 C2964 1.511 . S
C2967 H2981 0.961 . S
C2967 H2982 0.961 . S
C2967 H2983 0.961 . S
C2968 C2969 1.370 . S
C2968 C2970 1.363 . S
C2968 H2984 0.931 . S
C2969 C2968 1.370 . S
C2969 C2973 1.408 . S
C2970 C2968 1.363 . S
C2970 C2971 1.370 . S
C2970 C2974 1.524 . S
C2971 C2963 1.503 . S
C2971 C2970 1.370 . S
C2971 C2972 1.403 . S
C2972 C2971 1.403 . S
C2972 C2973 1.404 . S
C2972 C2975 1.539 . S
C2973 C2969 1.408 . S
C2973 C2972 1.404 . S
C2973 H2985 0.930 . S
C2974 C2970 1.524 . S
C2974 H2986 0.956 . S
C2974 H2987 0.961 . S
C2974 H2988 0.961 . S
C2975 C2972 1.539 . S
C2975 H2989 0.958 . S
C2975 H2990 0.961 . S
C2975 H2991 0.960 . S
H2976 C2960 0.931 . S
H2977 C2965 0.929 . S
H2978 C2966 0.960 . S
H2979 C2966 0.962 . S
H2980 C2966 0.960 . S
H2981 C2967 0.961 . S
H2982 C2967 0.961 . S
H2983 C2967 0.961 . S
H2984 C2968 0.931 . S
H2985 C2973 0.930 . S
H2986 C2974 0.956 . S
H2987 C2974 0.961 . S
H2988 C2974 0.961 . S
H2989 C2975 0.958 . S
H2990 C2975 0.961 . S
H2991 C2975 0.960 . S
C2992 C2993 1.391 . S
C2992 C2994 1.394 . S
C2992 H3008 0.931 . S
C2993 C2992 1.391 . S
C2993 C2997 1.376 . S
C2994 C2992 1.394 . S
C2994 C2995 1.369 . S
C2994 C2998 1.531 . S
C2995 C2994 1.369 . S
C2995 C2996 1.410 . S
C2995 C3003 1.503 . S
C2996 C2995 1.410 . S
C2996 C2997 1.392 . S
C2996 C2999 1.511 . S
C2997 C2993 1.376 . S
C2997 C2996 1.392 . S
C2997 H3009 0.929 . S
C2998 C2994 1.531 . S
C2998 H3010 0.960 . S
C2998 H3011 0.962 . S
C2998 H3012 0.960 . S
C2999 C2996 1.511 . S
C2999 H3013 0.961 . S
C2999 H3014 0.961 . S
C2999 H3015 0.961 . S
C3000 C3001 1.370 . S
C3000 C3002 1.363 . S
C3000 H3016 0.931 . S
C3001 C3000 1.370 . S
C3001 C3005 1.408 . S
C3002 C3000 1.363 . S
C3002 C3003 1.370 . S
C3002 C3006 1.524 . S
C3003 C2995 1.503 . S
C3003 C3002 1.370 . S
C3003 C3004 1.403 . S
C3004 C3003 1.403 . S
C3004 C3005 1.404 . S
C3004 C3007 1.539 . S
C3005 C3001 1.408 . S
C3005 C3004 1.404 . S
C3005 H3017 0.930 . S
C3006 C3002 1.524 . S
C3006 H3018 0.956 . S
C3006 H3019 0.961 . S
C3006 H3020 0.961 . S
C3007 C3004 1.539 . S
C3007 H3021 0.958 . S
C3007 H3022 0.961 . S
C3007 H3023 0.960 . S
H3008 C2992 0.931 . S
H3009 C2997 0.929 . S
H3010 C2998 0.960 . S
H3011 C2998 0.962 . S
H3012 C2998 0.960 . S
H3013 C2999 0.961 . S
H3014 C2999 0.961 . S
H3015 C2999 0.961 . S
H3016 C3000 0.931 . S
H3017 C3005 0.930 . S
H3018 C3006 0.956 . S
H3019 C3006 0.961 . S
H3020 C3006 0.961 . S
H3021 C3007 0.958 . S
H3022 C3007 0.961 . S
H3023 C3007 0.960 . S
C3024 C3025 1.391 . S
C3024 C3026 1.394 . S
C3024 H3040 0.931 . S
C3025 C3024 1.391 . S
C3025 C3029 1.376 . S
C3026 C3024 1.394 . S
C3026 C3027 1.369 . S
C3026 C3030 1.531 . S
C3027 C3026 1.369 . S
C3027 C3028 1.410 . S
C3027 C3035 1.503 . S
C3028 C3027 1.410 . S
C3028 C3029 1.392 . S
C3028 C3031 1.511 . S
C3029 C3025 1.376 . S
C3029 C3028 1.392 . S
C3029 H3041 0.929 . S
C3030 C3026 1.531 . S
C3030 H3042 0.960 . S
C3030 H3043 0.962 . S
C3030 H3044 0.960 . S
C3031 C3028 1.511 . S
C3031 H3045 0.961 . S
C3031 H3046 0.961 . S
C3031 H3047 0.961 . S
C3032 C3033 1.370 . S
C3032 C3034 1.363 . S
C3032 H3048 0.931 . S
C3033 C3032 1.370 . S
C3033 C3037 1.408 . S
C3034 C3032 1.363 . S
C3034 C3035 1.370 . S
C3034 C3038 1.524 . S
C3035 C3027 1.503 . S
C3035 C3034 1.370 . S
C3035 C3036 1.403 . S
C3036 C3035 1.403 . S
C3036 C3037 1.404 . S
C3036 C3039 1.539 . S
C3037 C3033 1.408 . S
C3037 C3036 1.404 . S
C3037 H3049 0.930 . S
C3038 C3034 1.524 . S
C3038 H3050 0.956 . S
C3038 H3051 0.961 . S
C3038 H3052 0.961 . S
C3039 C3036 1.539 . S
C3039 H3053 0.958 . S
C3039 H3054 0.961 . S
C3039 H3055 0.960 . S
H3040 C3024 0.931 . S
H3041 C3029 0.929 . S
H3042 C3030 0.960 . S
H3043 C3030 0.962 . S
H3044 C3030 0.960 . S
H3045 C3031 0.961 . S
H3046 C3031 0.961 . S
H3047 C3031 0.961 . S
H3048 C3032 0.931 . S
H3049 C3037 0.930 . S
H3050 C3038 0.956 . S
H3051 C3038 0.961 . S
H3052 C3038 0.961 . S
H3053 C3039 0.958 . S
H3054 C3039 0.961 . S
H3055 C3039 0.960 . S
C3056 C3057 1.391 . S
C3056 C3058 1.394 . S
C3056 H3072 0.931 . S
C3057 C3056 1.391 . S
C3057 C3061 1.376 . S
C3058 C3056 1.394 . S
C3058 C3059 1.369 . S
C3058 C3062 1.531 . S
C3059 C3058 1.369 . S
C3059 C3060 1.410 . S
C3059 C3067 1.503 . S
C3060 C3059 1.410 . S
C3060 C3061 1.392 . S
C3060 C3063 1.511 . S
C3061 C3057 1.376 . S
C3061 C3060 1.392 . S
C3061 H3073 0.929 . S
C3062 C3058 1.531 . S
C3062 H3074 0.960 . S
C3062 H3075 0.962 . S
C3062 H3076 0.960 . S
C3063 C3060 1.511 . S
C3063 H3077 0.961 . S
C3063 H3078 0.961 . S
C3063 H3079 0.961 . S
C3064 C3065 1.370 . S
C3064 C3066 1.363 . S
C3064 H3080 0.931 . S
C3065 C3064 1.370 . S
C3065 C3069 1.408 . S
C3066 C3064 1.363 . S
C3066 C3067 1.370 . S
C3066 C3070 1.524 . S
C3067 C3059 1.503 . S
C3067 C3066 1.370 . S
C3067 C3068 1.403 . S
C3068 C3067 1.403 . S
C3068 C3069 1.404 . S
C3068 C3071 1.539 . S
C3069 C3065 1.408 . S
C3069 C3068 1.404 . S
C3069 H3081 0.930 . S
C3070 C3066 1.524 . S
C3070 H3082 0.956 . S
C3070 H3083 0.961 . S
C3070 H3084 0.961 . S
C3071 C3068 1.539 . S
C3071 H3085 0.958 . S
C3071 H3086 0.961 . S
C3071 H3087 0.960 . S
H3072 C3056 0.931 . S
H3073 C3061 0.929 . S
H3074 C3062 0.960 . S
H3075 C3062 0.962 . S
H3076 C3062 0.960 . S
H3077 C3063 0.961 . S
H3078 C3063 0.961 . S
H3079 C3063 0.961 . S
H3080 C3064 0.931 . S
H3081 C3069 0.930 . S
H3082 C3070 0.956 . S
H3083 C3070 0.961 . S
H3084 C3070 0.961 . S
H3085 C3071 0.958 . S
H3086 C3071 0.961 . S
H3087 C3071 0.960 . S
C3088 C3089 1.391 . S
C3088 C3090 1.394 . S
C3088 H3104 0.931 . S
C3089 C3088 1.391 . S
C3089 C3093 1.376 . S
C3090 C3088 1.394 . S
C3090 C3091 1.369 . S
C3090 C3094 1.531 . S
C3091 C3090 1.369 . S
C3091 C3092 1.410 . S
C3091 C3099 1.503 . S
C3092 C3091 1.410 . S
C3092 C3093 1.392 . S
C3092 C3095 1.511 . S
C3093 C3089 1.376 . S
C3093 C3092 1.392 . S
C3093 H3105 0.929 . S
C3094 C3090 1.531 . S
C3094 H3106 0.960 . S
C3094 H3107 0.962 . S
C3094 H3108 0.960 . S
C3095 C3092 1.511 . S
C3095 H3109 0.961 . S
C3095 H3110 0.961 . S
C3095 H3111 0.961 . S
C3096 C3097 1.370 . S
C3096 C3098 1.363 . S
C3096 H3112 0.931 . S
C3097 C3096 1.370 . S
C3097 C3101 1.408 . S
C3098 C3096 1.363 . S
C3098 C3099 1.370 . S
C3098 C3102 1.524 . S
C3099 C3091 1.503 . S
C3099 C3098 1.370 . S
C3099 C3100 1.403 . S
C3100 C3099 1.403 . S
C3100 C3101 1.404 . S
C3100 C3103 1.539 . S
C3101 C3097 1.408 . S
C3101 C3100 1.404 . S
C3101 H3113 0.930 . S
C3102 C3098 1.524 . S
C3102 H3114 0.956 . S
C3102 H3115 0.961 . S
C3102 H3116 0.961 . S
C3103 C3100 1.539 . S
C3103 H3117 0.958 . S
C3103 H3118 0.961 . S
C3103 H3119 0.960 . S
H3104 C3088 0.931 . S
H3105 C3093 0.929 . S
H3106 C3094 0.960 . S
H3107 C3094 0.962 . S
H3108 C3094 0.960 . S
H3109 C3095 0.961 . S
H3110 C3095 0.961 . S
H3111 C3095 0.961 . S
H3112 C3096 0.931 . S
H3113 C3101 0.930 . S
H3114 C3102 0.956 . S
H3115 C3102 0.961 . S
H3116 C3102 0.961 . S
H3117 C3103 0.958 . S
H3118 C3103 0.961 . S
H3119 C3103 0.960 . S
C3120 C3121 1.391 . S
C3120 C3122 1.394 . S
C3120 H3136 0.931 . S
C3121 C3120 1.391 . S
C3121 C3125 1.376 . S
C3122 C3120 1.394 . S
C3122 C3123 1.369 . S
C3122 C3126 1.531 . S
C3123 C3122 1.369 . S
C3123 C3124 1.410 . S
C3123 C3131 1.503 . S
C3124 C3123 1.410 . S
C3124 C3125 1.392 . S
C3124 C3127 1.511 . S
C3125 C3121 1.376 . S
C3125 C3124 1.392 . S
C3125 H3137 0.929 . S
C3126 C3122 1.531 . S
C3126 H3138 0.960 . S
C3126 H3139 0.962 . S
C3126 H3140 0.960 . S
C3127 C3124 1.511 . S
C3127 H3141 0.961 . S
C3127 H3142 0.961 . S
C3127 H3143 0.961 . S
C3128 C3129 1.370 . S
C3128 C3130 1.363 . S
C3128 H3144 0.931 . S
C3129 C3128 1.370 . S
C3129 C3133 1.408 . S
C3130 C3128 1.363 . S
C3130 C3131 1.370 . S
C3130 C3134 1.524 . S
C3131 C3123 1.503 . S
C3131 C3130 1.370 . S
C3131 C3132 1.403 . S
C3132 C3131 1.403 . S
C3132 C3133 1.404 . S
C3132 C3135 1.539 . S
C3133 C3129 1.408 . S
C3133 C3132 1.404 . S
C3133 H3145 0.930 . S
C3134 C3130 1.524 . S
C3134 H3146 0.956 . S
C3134 H3147 0.961 . S
C3134 H3148 0.961 . S
C3135 C3132 1.539 . S
C3135 H3149 0.958 . S
C3135 H3150 0.961 . S
C3135 H3151 0.960 . S
H3136 C3120 0.931 . S
H3137 C3125 0.929 . S
H3138 C3126 0.960 . S
H3139 C3126 0.962 . S
H3140 C3126 0.960 . S
H3141 C3127 0.961 . S
H3142 C3127 0.961 . S
H3143 C3127 0.961 . S
H3144 C3128 0.931 . S
H3145 C3133 0.930 . S
H3146 C3134 0.956 . S
H3147 C3134 0.961 . S
H3148 C3134 0.961 . S
H3149 C3135 0.958 . S
H3150 C3135 0.961 . S
H3151 C3135 0.960 . S
C3152 C3153 1.391 . S
C3152 C3154 1.394 . S
C3152 H3168 0.931 . S
C3153 C3152 1.391 . S
C3153 C3157 1.376 . S
C3154 C3152 1.394 . S
C3154 C3155 1.369 . S
C3154 C3158 1.531 . S
C3155 C3154 1.369 . S
C3155 C3156 1.410 . S
C3155 C3163 1.503 . S
C3156 C3155 1.410 . S
C3156 C3157 1.392 . S
C3156 C3159 1.511 . S
C3157 C3153 1.376 . S
C3157 C3156 1.392 . S
C3157 H3169 0.929 . S
C3158 C3154 1.531 . S
C3158 H3170 0.960 . S
C3158 H3171 0.962 . S
C3158 H3172 0.960 . S
C3159 C3156 1.511 . S
C3159 H3173 0.961 . S
C3159 H3174 0.961 . S
C3159 H3175 0.961 . S
C3160 C3161 1.370 . S
C3160 C3162 1.363 . S
C3160 H3176 0.931 . S
C3161 C3160 1.370 . S
C3161 C3165 1.408 . S
C3162 C3160 1.363 . S
C3162 C3163 1.370 . S
C3162 C3166 1.524 . S
C3163 C3155 1.503 . S
C3163 C3162 1.370 . S
C3163 C3164 1.403 . S
C3164 C3163 1.403 . S
C3164 C3165 1.404 . S
C3164 C3167 1.539 . S
C3165 C3161 1.408 . S
C3165 C3164 1.404 . S
C3165 H3177 0.930 . S
C3166 C3162 1.524 . S
C3166 H3178 0.956 . S
C3166 H3179 0.961 . S
C3166 H3180 0.961 . S
C3167 C3164 1.539 . S
C3167 H3181 0.958 . S
C3167 H3182 0.961 . S
C3167 H3183 0.960 . S
H3168 C3152 0.931 . S
H3169 C3157 0.929 . S
H3170 C3158 0.960 . S
H3171 C3158 0.962 . S
H3172 C3158 0.960 . S
H3173 C3159 0.961 . S
H3174 C3159 0.961 . S
H3175 C3159 0.961 . S
H3176 C3160 0.931 . S
H3177 C3165 0.930 . S
H3178 C3166 0.956 . S
H3179 C3166 0.961 . S
H3180 C3166 0.961 . S
H3181 C3167 0.958 . S
H3182 C3167 0.961 . S
H3183 C3167 0.960 . S
C3184 C3185 1.391 . S
C3184 C3186 1.394 . S
C3184 H3200 0.931 . S
C3185 C3184 1.391 . S
C3185 C3189 1.376 . S
C3186 C3184 1.394 . S
C3186 C3187 1.369 . S
C3186 C3190 1.531 . S
C3187 C3186 1.369 . S
C3187 C3188 1.410 . S
C3187 C3195 1.503 . S
C3188 C3187 1.410 . S
C3188 C3189 1.392 . S
C3188 C3191 1.511 . S
C3189 C3185 1.376 . S
C3189 C3188 1.392 . S
C3189 H3201 0.929 . S
C3190 C3186 1.531 . S
C3190 H3202 0.960 . S
C3190 H3203 0.962 . S
C3190 H3204 0.960 . S
C3191 C3188 1.511 . S
C3191 H3205 0.961 . S
C3191 H3206 0.961 . S
C3191 H3207 0.961 . S
C3192 C3193 1.370 . S
C3192 C3194 1.363 . S
C3192 H3208 0.931 . S
C3193 C3192 1.370 . S
C3193 C3197 1.408 . S
C3194 C3192 1.363 . S
C3194 C3195 1.370 . S
C3194 C3198 1.524 . S
C3195 C3187 1.503 . S
C3195 C3194 1.370 . S
C3195 C3196 1.403 . S
C3196 C3195 1.403 . S
C3196 C3197 1.404 . S
C3196 C3199 1.539 . S
C3197 C3193 1.408 . S
C3197 C3196 1.404 . S
C3197 H3209 0.930 . S
C3198 C3194 1.524 . S
C3198 H3210 0.956 . S
C3198 H3211 0.961 . S
C3198 H3212 0.961 . S
C3199 C3196 1.539 . S
C3199 H3213 0.958 . S
C3199 H3214 0.961 . S
C3199 H3215 0.960 . S
H3200 C3184 0.931 . S
H3201 C3189 0.929 . S
H3202 C3190 0.960 . S
H3203 C3190 0.962 . S
H3204 C3190 0.960 . S
H3205 C3191 0.961 . S
H3206 C3191 0.961 . S
H3207 C3191 0.961 . S
H3208 C3192 0.931 . S
H3209 C3197 0.930 . S
H3210 C3198 0.956 . S
H3211 C3198 0.961 . S
H3212 C3198 0.961 . S
H3213 C3199 0.958 . S
H3214 C3199 0.961 . S
H3215 C3199 0.960 . S
C3216 C3217 1.391 . S
C3216 C3218 1.394 . S
C3216 H3232 0.931 . S
C3217 C3216 1.391 . S
C3217 C3221 1.376 . S
C3218 C3216 1.394 . S
C3218 C3219 1.369 . S
C3218 C3222 1.531 . S
C3219 C3218 1.369 . S
C3219 C3220 1.410 . S
C3219 C3227 1.503 . S
C3220 C3219 1.410 . S
C3220 C3221 1.392 . S
C3220 C3223 1.511 . S
C3221 C3217 1.376 . S
C3221 C3220 1.392 . S
C3221 H3233 0.929 . S
C3222 C3218 1.531 . S
C3222 H3234 0.960 . S
C3222 H3235 0.962 . S
C3222 H3236 0.960 . S
C3223 C3220 1.511 . S
C3223 H3237 0.961 . S
C3223 H3238 0.961 . S
C3223 H3239 0.961 . S
C3224 C3225 1.370 . S
C3224 C3226 1.363 . S
C3224 H3240 0.931 . S
C3225 C3224 1.370 . S
C3225 C3229 1.408 . S
C3226 C3224 1.363 . S
C3226 C3227 1.370 . S
C3226 C3230 1.524 . S
C3227 C3219 1.503 . S
C3227 C3226 1.370 . S
C3227 C3228 1.403 . S
C3228 C3227 1.403 . S
C3228 C3229 1.404 . S
C3228 C3231 1.539 . S
C3229 C3225 1.408 . S
C3229 C3228 1.404 . S
C3229 H3241 0.930 . S
C3230 C3226 1.524 . S
C3230 H3242 0.956 . S
C3230 H3243 0.961 . S
C3230 H3244 0.961 . S
C3231 C3228 1.539 . S
C3231 H3245 0.958 . S
C3231 H3246 0.961 . S
C3231 H3247 0.960 . S
H3232 C3216 0.931 . S
H3233 C3221 0.929 . S
H3234 C3222 0.960 . S
H3235 C3222 0.962 . S
H3236 C3222 0.960 . S
H3237 C3223 0.961 . S
H3238 C3223 0.961 . S
H3239 C3223 0.961 . S
H3240 C3224 0.931 . S
H3241 C3229 0.930 . S
H3242 C3230 0.956 . S
H3243 C3230 0.961 . S
H3244 C3230 0.961 . S
H3245 C3231 0.958 . S
H3246 C3231 0.961 . S
H3247 C3231 0.960 . S
C3248 C3249 1.391 . S
C3248 C3250 1.394 . S
C3248 H3264 0.931 . S
C3249 C3248 1.391 . S
C3249 C3253 1.376 . S
C3250 C3248 1.394 . S
C3250 C3251 1.369 . S
C3250 C3254 1.531 . S
C3251 C3250 1.369 . S
C3251 C3252 1.410 . S
C3251 C3259 1.503 . S
C3252 C3251 1.410 . S
C3252 C3253 1.392 . S
C3252 C3255 1.511 . S
C3253 C3249 1.376 . S
C3253 C3252 1.392 . S
C3253 H3265 0.929 . S
C3254 C3250 1.531 . S
C3254 H3266 0.960 . S
C3254 H3267 0.962 . S
C3254 H3268 0.960 . S
C3255 C3252 1.511 . S
C3255 H3269 0.961 . S
C3255 H3270 0.961 . S
C3255 H3271 0.961 . S
C3256 C3257 1.370 . S
C3256 C3258 1.363 . S
C3256 H3272 0.931 . S
C3257 C3256 1.370 . S
C3257 C3261 1.408 . S
C3258 C3256 1.363 . S
C3258 C3259 1.370 . S
C3258 C3262 1.524 . S
C3259 C3251 1.503 . S
C3259 C3258 1.370 . S
C3259 C3260 1.403 . S
C3260 C3259 1.403 . S
C3260 C3261 1.404 . S
C3260 C3263 1.539 . S
C3261 C3257 1.408 . S
C3261 C3260 1.404 . S
C3261 H3273 0.930 . S
C3262 C3258 1.524 . S
C3262 H3274 0.956 . S
C3262 H3275 0.961 . S
C3262 H3276 0.961 . S
C3263 C3260 1.539 . S
C3263 H3277 0.958 . S
C3263 H3278 0.961 . S
C3263 H3279 0.960 . S
H3264 C3248 0.931 . S
H3265 C3253 0.929 . S
H3266 C3254 0.960 . S
H3267 C3254 0.962 . S
H3268 C3254 0.960 . S
H3269 C3255 0.961 . S
H3270 C3255 0.961 . S
H3271 C3255 0.961 . S
H3272 C3256 0.931 . S
H3273 C3261 0.930 . S
H3274 C3262 0.956 . S
H3275 C3262 0.961 . S
H3276 C3262 0.961 . S
H3277 C3263 0.958 . S
H3278 C3263 0.961 . S
H3279 C3263 0.960 . S
C3280 C3281 1.391 . S
C3280 C3282 1.394 . S
C3280 H3296 0.931 . S
C3281 C3280 1.391 . S
C3281 C3285 1.376 . S
C3282 C3280 1.394 . S
C3282 C3283 1.369 . S
C3282 C3286 1.531 . S
C3283 C3282 1.369 . S
C3283 C3284 1.410 . S
C3283 C3291 1.503 . S
C3284 C3283 1.410 . S
C3284 C3285 1.392 . S
C3284 C3287 1.511 . S
C3285 C3281 1.376 . S
C3285 C3284 1.392 . S
C3285 H3297 0.929 . S
C3286 C3282 1.531 . S
C3286 H3298 0.960 . S
C3286 H3299 0.962 . S
C3286 H3300 0.960 . S
C3287 C3284 1.511 . S
C3287 H3301 0.961 . S
C3287 H3302 0.961 . S
C3287 H3303 0.961 . S
C3288 C3289 1.370 . S
C3288 C3290 1.363 . S
C3288 H3304 0.931 . S
C3289 C3288 1.370 . S
C3289 C3293 1.408 . S
C3290 C3288 1.363 . S
C3290 C3291 1.370 . S
C3290 C3294 1.524 . S
C3291 C3283 1.503 . S
C3291 C3290 1.370 . S
C3291 C3292 1.403 . S
C3292 C3291 1.403 . S
C3292 C3293 1.404 . S
C3292 C3295 1.539 . S
C3293 C3289 1.408 . S
C3293 C3292 1.404 . S
C3293 H3305 0.930 . S
C3294 C3290 1.524 . S
C3294 H3306 0.956 . S
C3294 H3307 0.961 . S
C3294 H3308 0.961 . S
C3295 C3292 1.539 . S
C3295 H3309 0.958 . S
C3295 H3310 0.961 . S
C3295 H3311 0.960 . S
H3296 C3280 0.931 . S
H3297 C3285 0.929 . S
H3298 C3286 0.960 . S
H3299 C3286 0.962 . S
H3300 C3286 0.960 . S
H3301 C3287 0.961 . S
H3302 C3287 0.961 . S
H3303 C3287 0.961 . S
H3304 C3288 0.931 . S
H3305 C3293 0.930 . S
H3306 C3294 0.956 . S
H3307 C3294 0.961 . S
H3308 C3294 0.961 . S
H3309 C3295 0.958 . S
H3310 C3295 0.961 . S
H3311 C3295 0.960 . S
C3312 C3313 1.391 . S
C3312 C3314 1.394 . S
C3312 H3328 0.931 . S
C3313 C3312 1.391 . S
C3313 C3317 1.376 . S
C3314 C3312 1.394 . S
C3314 C3315 1.369 . S
C3314 C3318 1.531 . S
C3315 C3314 1.369 . S
C3315 C3316 1.410 . S
C3315 C3323 1.503 . S
C3316 C3315 1.410 . S
C3316 C3317 1.392 . S
C3316 C3319 1.511 . S
C3317 C3313 1.376 . S
C3317 C3316 1.392 . S
C3317 H3329 0.929 . S
C3318 C3314 1.531 . S
C3318 H3330 0.960 . S
C3318 H3331 0.962 . S
C3318 H3332 0.960 . S
C3319 C3316 1.511 . S
C3319 H3333 0.961 . S
C3319 H3334 0.961 . S
C3319 H3335 0.961 . S
C3320 C3321 1.370 . S
C3320 C3322 1.363 . S
C3320 H3336 0.931 . S
C3321 C3320 1.370 . S
C3321 C3325 1.408 . S
C3322 C3320 1.363 . S
C3322 C3323 1.370 . S
C3322 C3326 1.524 . S
C3323 C3315 1.503 . S
C3323 C3322 1.370 . S
C3323 C3324 1.403 . S
C3324 C3323 1.403 . S
C3324 C3325 1.404 . S
C3324 C3327 1.539 . S
C3325 C3321 1.408 . S
C3325 C3324 1.404 . S
C3325 H3337 0.930 . S
C3326 C3322 1.524 . S
C3326 H3338 0.956 . S
C3326 H3339 0.961 . S
C3326 H3340 0.961 . S
C3327 C3324 1.539 . S
C3327 H3341 0.958 . S
C3327 H3342 0.961 . S
C3327 H3343 0.960 . S
H3328 C3312 0.931 . S
H3329 C3317 0.929 . S
H3330 C3318 0.960 . S
H3331 C3318 0.962 . S
H3332 C3318 0.960 . S
H3333 C3319 0.961 . S
H3334 C3319 0.961 . S
H3335 C3319 0.961 . S
H3336 C3320 0.931 . S
H3337 C3325 0.930 . S
H3338 C3326 0.956 . S
H3339 C3326 0.961 . S
H3340 C3326 0.961 . S
H3341 C3327 0.958 . S
H3342 C3327 0.961 . S
H3343 C3327 0.960 . S
C3344 C3345 1.391 . S
C3344 C3346 1.394 . S
C3344 H3360 0.931 . S
C3345 C3344 1.391 . S
C3345 C3349 1.376 . S
C3346 C3344 1.394 . S
C3346 C3347 1.369 . S
C3346 C3350 1.531 . S
C3347 C3346 1.369 . S
C3347 C3348 1.410 . S
C3347 C3355 1.503 . S
C3348 C3347 1.410 . S
C3348 C3349 1.392 . S
C3348 C3351 1.511 . S
C3349 C3345 1.376 . S
C3349 C3348 1.392 . S
C3349 H3361 0.929 . S
C3350 C3346 1.531 . S
C3350 H3362 0.960 . S
C3350 H3363 0.962 . S
C3350 H3364 0.960 . S
C3351 C3348 1.511 . S
C3351 H3365 0.961 . S
C3351 H3366 0.961 . S
C3351 H3367 0.961 . S
C3352 C3353 1.370 . S
C3352 C3354 1.363 . S
C3352 H3368 0.931 . S
C3353 C3352 1.370 . S
C3353 C3357 1.408 . S
C3354 C3352 1.363 . S
C3354 C3355 1.370 . S
C3354 C3358 1.524 . S
C3355 C3347 1.503 . S
C3355 C3354 1.370 . S
C3355 C3356 1.403 . S
C3356 C3355 1.403 . S
C3356 C3357 1.404 . S
C3356 C3359 1.539 . S
C3357 C3353 1.408 . S
C3357 C3356 1.404 . S
C3357 H3369 0.930 . S
C3358 C3354 1.524 . S
C3358 H3370 0.956 . S
C3358 H3371 0.961 . S
C3358 H3372 0.961 . S
C3359 C3356 1.539 . S
C3359 H3373 0.958 . S
C3359 H3374 0.961 . S
C3359 H3375 0.960 . S
H3360 C3344 0.931 . S
H3361 C3349 0.929 . S
H3362 C3350 0.960 . S
H3363 C3350 0.962 . S
H3364 C3350 0.960 . S
H3365 C3351 0.961 . S
H3366 C3351 0.961 . S
H3367 C3351 0.961 . S
H3368 C3352 0.931 . S
H3369 C3357 0.930 . S
H3370 C3358 0.956 . S
H3371 C3358 0.961 . S
H3372 C3358 0.961 . S
H3373 C3359 0.958 . S
H3374 C3359 0.961 . S
H3375 C3359 0.960 . S
C3376 C3377 1.391 . S
C3376 C3378 1.394 . S
C3376 H3392 0.931 . S
C3377 C3376 1.391 . S
C3377 C3381 1.376 . S
C3378 C3376 1.394 . S
C3378 C3379 1.369 . S
C3378 C3382 1.531 . S
C3379 C3378 1.369 . S
C3379 C3380 1.410 . S
C3379 C3387 1.503 . S
C3380 C3379 1.410 . S
C3380 C3381 1.392 . S
C3380 C3383 1.511 . S
C3381 C3377 1.376 . S
C3381 C3380 1.392 . S
C3381 H3393 0.929 . S
C3382 C3378 1.531 . S
C3382 H3394 0.960 . S
C3382 H3395 0.962 . S
C3382 H3396 0.960 . S
C3383 C3380 1.511 . S
C3383 H3397 0.961 . S
C3383 H3398 0.961 . S
C3383 H3399 0.961 . S
C3384 C3385 1.370 . S
C3384 C3386 1.363 . S
C3384 H3400 0.931 . S
C3385 C3384 1.370 . S
C3385 C3389 1.408 . S
C3386 C3384 1.363 . S
C3386 C3387 1.370 . S
C3386 C3390 1.524 . S
C3387 C3379 1.503 . S
C3387 C3386 1.370 . S
C3387 C3388 1.403 . S
C3388 C3387 1.403 . S
C3388 C3389 1.404 . S
C3388 C3391 1.539 . S
C3389 C3385 1.408 . S
C3389 C3388 1.404 . S
C3389 H3401 0.930 . S
C3390 C3386 1.524 . S
C3390 H3402 0.956 . S
C3390 H3403 0.961 . S
C3390 H3404 0.961 . S
C3391 C3388 1.539 . S
C3391 H3405 0.958 . S
C3391 H3406 0.961 . S
C3391 H3407 0.960 . S
H3392 C3376 0.931 . S
H3393 C3381 0.929 . S
H3394 C3382 0.960 . S
H3395 C3382 0.962 . S
H3396 C3382 0.960 . S
H3397 C3383 0.961 . S
H3398 C3383 0.961 . S
H3399 C3383 0.961 . S
H3400 C3384 0.931 . S
H3401 C3389 0.930 . S
H3402 C3390 0.956 . S
H3403 C3390 0.961 . S
H3404 C3390 0.961 . S
H3405 C3391 0.958 . S
H3406 C3391 0.961 . S
H3407 C3391 0.960 . S
C3408 C3409 1.391 . S
C3408 C3410 1.394 . S
C3408 H3424 0.931 . S
C3409 C3408 1.391 . S
C3409 C3413 1.376 . S
C3410 C3408 1.394 . S
C3410 C3411 1.369 . S
C3410 C3414 1.531 . S
C3411 C3410 1.369 . S
C3411 C3412 1.410 . S
C3411 C3419 1.503 . S
C3412 C3411 1.410 . S
C3412 C3413 1.392 . S
C3412 C3415 1.511 . S
C3413 C3409 1.376 . S
C3413 C3412 1.392 . S
C3413 H3425 0.929 . S
C3414 C3410 1.531 . S
C3414 H3426 0.960 . S
C3414 H3427 0.962 . S
C3414 H3428 0.960 . S
C3415 C3412 1.511 . S
C3415 H3429 0.961 . S
C3415 H3430 0.961 . S
C3415 H3431 0.961 . S
C3416 C3417 1.370 . S
C3416 C3418 1.363 . S
C3416 H3432 0.931 . S
C3417 C3416 1.370 . S
C3417 C3421 1.408 . S
C3418 C3416 1.363 . S
C3418 C3419 1.370 . S
C3418 C3422 1.524 . S
C3419 C3411 1.503 . S
C3419 C3418 1.370 . S
C3419 C3420 1.403 . S
C3420 C3419 1.403 . S
C3420 C3421 1.404 . S
C3420 C3423 1.539 . S
C3421 C3417 1.408 . S
C3421 C3420 1.404 . S
C3421 H3433 0.930 . S
C3422 C3418 1.524 . S
C3422 H3434 0.956 . S
C3422 H3435 0.961 . S
C3422 H3436 0.961 . S
C3423 C3420 1.539 . S
C3423 H3437 0.958 . S
C3423 H3438 0.961 . S
C3423 H3439 0.960 . S
H3424 C3408 0.931 . S
H3425 C3413 0.929 . S
H3426 C3414 0.960 . S
H3427 C3414 0.962 . S
H3428 C3414 0.960 . S
H3429 C3415 0.961 . S
H3430 C3415 0.961 . S
H3431 C3415 0.961 . S
H3432 C3416 0.931 . S
H3433 C3421 0.930 . S
H3434 C3422 0.956 . S
H3435 C3422 0.961 . S
H3436 C3422 0.961 . S
H3437 C3423 0.958 . S
H3438 C3423 0.961 . S
H3439 C3423 0.960 . S
C3440 C3441 1.391 . S
C3440 C3442 1.394 . S
C3440 H3456 0.931 . S
C3441 C3440 1.391 . S
C3441 C3445 1.376 . S
C3442 C3440 1.394 . S
C3442 C3443 1.369 . S
C3442 C3446 1.531 . S
C3443 C3442 1.369 . S
C3443 C3444 1.410 . S
C3443 C3451 1.503 . S
C3444 C3443 1.410 . S
C3444 C3445 1.392 . S
C3444 C3447 1.511 . S
C3445 C3441 1.376 . S
C3445 C3444 1.392 . S
C3445 H3457 0.929 . S
C3446 C3442 1.531 . S
C3446 H3458 0.960 . S
C3446 H3459 0.962 . S
C3446 H3460 0.960 . S
C3447 C3444 1.511 . S
C3447 H3461 0.961 . S
C3447 H3462 0.961 . S
C3447 H3463 0.961 . S
C3448 C3449 1.370 . S
C3448 C3450 1.363 . S
C3448 H3464 0.931 . S
C3449 C3448 1.370 . S
C3449 C3453 1.408 . S
C3450 C3448 1.363 . S
C3450 C3451 1.370 . S
C3450 C3454 1.524 . S
C3451 C3443 1.503 . S
C3451 C3450 1.370 . S
C3451 C3452 1.403 . S
C3452 C3451 1.403 . S
C3452 C3453 1.404 . S
C3452 C3455 1.539 . S
C3453 C3449 1.408 . S
C3453 C3452 1.404 . S
C3453 H3465 0.930 . S
C3454 C3450 1.524 . S
C3454 H3466 0.956 . S
C3454 H3467 0.961 . S
C3454 H3468 0.961 . S
C3455 C3452 1.539 . S
C3455 H3469 0.958 . S
C3455 H3470 0.961 . S
C3455 H3471 0.960 . S
H3456 C3440 0.931 . S
H3457 C3445 0.929 . S
H3458 C3446 0.960 . S
H3459 C3446 0.962 . S
H3460 C3446 0.960 . S
H3461 C3447 0.961 . S
H3462 C3447 0.961 . S
H3463 C3447 0.961 . S
H3464 C3448 0.931 . S
H3465 C3453 0.930 . S
H3466 C3454 0.956 . S
H3467 C3454 0.961 . S
H3468 C3454 0.961 . S
H3469 C3455 0.958 . S
H3470 C3455 0.961 . S
H3471 C3455 0.960 . S
C3472 C3473 1.391 . S
C3472 C3474 1.394 . S
C3472 H3488 0.931 . S
C3473 C3472 1.391 . S
C3473 C3477 1.376 . S
C3474 C3472 1.394 . S
C3474 C3475 1.369 . S
C3474 C3478 1.531 . S
C3475 C3474 1.369 . S
C3475 C3476 1.410 . S
C3475 C3483 1.503 . S
C3476 C3475 1.410 . S
C3476 C3477 1.392 . S
C3476 C3479 1.511 . S
C3477 C3473 1.376 . S
C3477 C3476 1.392 . S
C3477 H3489 0.929 . S
C3478 C3474 1.531 . S
C3478 H3490 0.960 . S
C3478 H3491 0.962 . S
C3478 H3492 0.960 . S
C3479 C3476 1.511 . S
C3479 H3493 0.961 . S
C3479 H3494 0.961 . S
C3479 H3495 0.961 . S
C3480 C3481 1.370 . S
C3480 C3482 1.363 . S
C3480 H3496 0.931 . S
C3481 C3480 1.370 . S
C3481 C3485 1.408 . S
C3482 C3480 1.363 . S
C3482 C3483 1.370 . S
C3482 C3486 1.524 . S
C3483 C3475 1.503 . S
C3483 C3482 1.370 . S
C3483 C3484 1.403 . S
C3484 C3483 1.403 . S
C3484 C3485 1.404 . S
C3484 C3487 1.539 . S
C3485 C3481 1.408 . S
C3485 C3484 1.404 . S
C3485 H3497 0.930 . S
C3486 C3482 1.524 . S
C3486 H3498 0.956 . S
C3486 H3499 0.961 . S
C3486 H3500 0.961 . S
C3487 C3484 1.539 . S
C3487 H3501 0.958 . S
C3487 H3502 0.961 . S
C3487 H3503 0.960 . S
H3488 C3472 0.931 . S
H3489 C3477 0.929 . S
H3490 C3478 0.960 . S
H3491 C3478 0.962 . S
H3492 C3478 0.960 . S
H3493 C3479 0.961 . S
H3494 C3479 0.961 . S
H3495 C3479 0.961 . S
H3496 C3480 0.931 . S
H3497 C3485 0.930 . S
H3498 C3486 0.956 . S
H3499 C3486 0.961 . S
H3500 C3486 0.961 . S
H3501 C3487 0.958 . S
H3502 C3487 0.961 . S
H3503 C3487 0.960 . S
C3504 C3505 1.391 . S
C3504 C3506 1.394 . S
C3504 H3520 0.931 . S
C3505 C3504 1.391 . S
C3505 C3509 1.376 . S
C3506 C3504 1.394 . S
C3506 C3507 1.369 . S
C3506 C3510 1.531 . S
C3507 C3506 1.369 . S
C3507 C3508 1.410 . S
C3507 C3515 1.503 . S
C3508 C3507 1.410 . S
C3508 C3509 1.392 . S
C3508 C3511 1.511 . S
C3509 C3505 1.376 . S
C3509 C3508 1.392 . S
C3509 H3521 0.929 . S
C3510 C3506 1.531 . S
C3510 H3522 0.960 . S
C3510 H3523 0.962 . S
C3510 H3524 0.960 . S
C3511 C3508 1.511 . S
C3511 H3525 0.961 . S
C3511 H3526 0.961 . S
C3511 H3527 0.961 . S
C3512 C3513 1.370 . S
C3512 C3514 1.363 . S
C3512 H3528 0.931 . S
C3513 C3512 1.370 . S
C3513 C3517 1.408 . S
C3514 C3512 1.363 . S
C3514 C3515 1.370 . S
C3514 C3518 1.524 . S
C3515 C3507 1.503 . S
C3515 C3514 1.370 . S
C3515 C3516 1.403 . S
C3516 C3515 1.403 . S
C3516 C3517 1.404 . S
C3516 C3519 1.539 . S
C3517 C3513 1.408 . S
C3517 C3516 1.404 . S
C3517 H3529 0.930 . S
C3518 C3514 1.524 . S
C3518 H3530 0.956 . S
C3518 H3531 0.961 . S
C3518 H3532 0.961 . S
C3519 C3516 1.539 . S
C3519 H3533 0.958 . S
C3519 H3534 0.961 . S
C3519 H3535 0.960 . S
H3520 C3504 0.931 . S
H3521 C3509 0.929 . S
H3522 C3510 0.960 . S
H3523 C3510 0.962 . S
H3524 C3510 0.960 . S
H3525 C3511 0.961 . S
H3526 C3511 0.961 . S
H3527 C3511 0.961 . S
H3528 C3512 0.931 . S
H3529 C3517 0.930 . S
H3530 C3518 0.956 . S
H3531 C3518 0.961 . S
H3532 C3518 0.961 . S
H3533 C3519 0.958 . S
H3534 C3519 0.961 . S
H3535 C3519 0.960 . S
C3536 C3537 1.391 . S
C3536 C3538 1.394 . S
C3536 H3552 0.931 . S
C3537 C3536 1.391 . S
C3537 C3541 1.376 . S
C3538 C3536 1.394 . S
C3538 C3539 1.369 . S
C3538 C3542 1.531 . S
C3539 C3538 1.369 . S
C3539 C3540 1.410 . S
C3539 C3547 1.503 . S
C3540 C3539 1.410 . S
C3540 C3541 1.392 . S
C3540 C3543 1.511 . S
C3541 C3537 1.376 . S
C3541 C3540 1.392 . S
C3541 H3553 0.929 . S
C3542 C3538 1.531 . S
C3542 H3554 0.960 . S
C3542 H3555 0.962 . S
C3542 H3556 0.960 . S
C3543 C3540 1.511 . S
C3543 H3557 0.961 . S
C3543 H3558 0.961 . S
C3543 H3559 0.961 . S
C3544 C3545 1.370 . S
C3544 C3546 1.363 . S
C3544 H3560 0.931 . S
C3545 C3544 1.370 . S
C3545 C3549 1.408 . S
C3546 C3544 1.363 . S
C3546 C3547 1.370 . S
C3546 C3550 1.524 . S
C3547 C3539 1.503 . S
C3547 C3546 1.370 . S
C3547 C3548 1.403 . S
C3548 C3547 1.403 . S
C3548 C3549 1.404 . S
C3548 C3551 1.539 . S
C3549 C3545 1.408 . S
C3549 C3548 1.404 . S
C3549 H3561 0.930 . S
C3550 C3546 1.524 . S
C3550 H3562 0.956 . S
C3550 H3563 0.961 . S
C3550 H3564 0.961 . S
C3551 C3548 1.539 . S
C3551 H3565 0.958 . S
C3551 H3566 0.961 . S
C3551 H3567 0.960 . S
H3552 C3536 0.931 . S
H3553 C3541 0.929 . S
H3554 C3542 0.960 . S
H3555 C3542 0.962 . S
H3556 C3542 0.960 . S
H3557 C3543 0.961 . S
H3558 C3543 0.961 . S
H3559 C3543 0.961 . S
H3560 C3544 0.931 . S
H3561 C3549 0.930 . S
H3562 C3550 0.956 . S
H3563 C3550 0.961 . S
H3564 C3550 0.961 . S
H3565 C3551 0.958 . S
H3566 C3551 0.961 . S
H3567 C3551 0.960 . S
C3568 C3569 1.391 . S
C3568 C3570 1.394 . S
C3568 H3584 0.931 . S
C3569 C3568 1.391 . S
C3569 C3573 1.376 . S
C3570 C3568 1.394 . S
C3570 C3571 1.369 . S
C3570 C3574 1.531 . S
C3571 C3570 1.369 . S
C3571 C3572 1.410 . S
C3571 C3579 1.503 . S
C3572 C3571 1.410 . S
C3572 C3573 1.392 . S
C3572 C3575 1.511 . S
C3573 C3569 1.376 . S
C3573 C3572 1.392 . S
C3573 H3585 0.929 . S
C3574 C3570 1.531 . S
C3574 H3586 0.960 . S
C3574 H3587 0.962 . S
C3574 H3588 0.960 . S
C3575 C3572 1.511 . S
C3575 H3589 0.961 . S
C3575 H3590 0.961 . S
C3575 H3591 0.961 . S
C3576 C3577 1.370 . S
C3576 C3578 1.363 . S
C3576 H3592 0.931 . S
C3577 C3576 1.370 . S
C3577 C3581 1.408 . S
C3578 C3576 1.363 . S
C3578 C3579 1.370 . S
C3578 C3582 1.524 . S
C3579 C3571 1.503 . S
C3579 C3578 1.370 . S
C3579 C3580 1.403 . S
C3580 C3579 1.403 . S
C3580 C3581 1.404 . S
C3580 C3583 1.539 . S
C3581 C3577 1.408 . S
C3581 C3580 1.404 . S
C3581 H3593 0.930 . S
C3582 C3578 1.524 . S
C3582 H3594 0.956 . S
C3582 H3595 0.961 . S
C3582 H3596 0.961 . S
C3583 C3580 1.539 . S
C3583 H3597 0.958 . S
C3583 H3598 0.961 . S
C3583 H3599 0.960 . S
H3584 C3568 0.931 . S
H3585 C3573 0.929 . S
H3586 C3574 0.960 . S
H3587 C3574 0.962 . S
H3588 C3574 0.960 . S
H3589 C3575 0.961 . S
H3590 C3575 0.961 . S
H3591 C3575 0.961 . S
H3592 C3576 0.931 . S
H3593 C3581 0.930 . S
H3594 C3582 0.956 . S
H3595 C3582 0.961 . S
H3596 C3582 0.961 . S
H3597 C3583 0.958 . S
H3598 C3583 0.961 . S
H3599 C3583 0.960 . S
C3600 C3601 1.391 . S
C3600 C3602 1.394 . S
C3600 H3616 0.931 . S
C3601 C3600 1.391 . S
C3601 C3605 1.376 . S
C3602 C3600 1.394 . S
C3602 C3603 1.369 . S
C3602 C3606 1.531 . S
C3603 C3602 1.369 . S
C3603 C3604 1.410 . S
C3603 C3611 1.503 . S
C3604 C3603 1.410 . S
C3604 C3605 1.392 . S
C3604 C3607 1.511 . S
C3605 C3601 1.376 . S
C3605 C3604 1.392 . S
C3605 H3617 0.929 . S
C3606 C3602 1.531 . S
C3606 H3618 0.960 . S
C3606 H3619 0.962 . S
C3606 H3620 0.960 . S
C3607 C3604 1.511 . S
C3607 H3621 0.961 . S
C3607 H3622 0.961 . S
C3607 H3623 0.961 . S
C3608 C3609 1.370 . S
C3608 C3610 1.363 . S
C3608 H3624 0.931 . S
C3609 C3608 1.370 . S
C3609 C3613 1.408 . S
C3610 C3608 1.363 . S
C3610 C3611 1.370 . S
C3610 C3614 1.524 . S
C3611 C3603 1.503 . S
C3611 C3610 1.370 . S
C3611 C3612 1.403 . S
C3612 C3611 1.403 . S
C3612 C3613 1.404 . S
C3612 C3615 1.539 . S
C3613 C3609 1.408 . S
C3613 C3612 1.404 . S
C3613 H3625 0.930 . S
C3614 C3610 1.524 . S
C3614 H3626 0.956 . S
C3614 H3627 0.961 . S
C3614 H3628 0.961 . S
C3615 C3612 1.539 . S
C3615 H3629 0.958 . S
C3615 H3630 0.961 . S
C3615 H3631 0.960 . S
H3616 C3600 0.931 . S
H3617 C3605 0.929 . S
H3618 C3606 0.960 . S
H3619 C3606 0.962 . S
H3620 C3606 0.960 . S
H3621 C3607 0.961 . S
H3622 C3607 0.961 . S
H3623 C3607 0.961 . S
H3624 C3608 0.931 . S
H3625 C3613 0.930 . S
H3626 C3614 0.956 . S
H3627 C3614 0.961 . S
H3628 C3614 0.961 . S
H3629 C3615 0.958 . S
H3630 C3615 0.961 . S
H3631 C3615 0.960 . S
C3632 C3633 1.391 . S
C3632 C3634 1.394 . S
C3632 H3648 0.931 . S
C3633 C3632 1.391 . S
C3633 C3637 1.376 . S
C3634 C3632 1.394 . S
C3634 C3635 1.369 . S
C3634 C3638 1.531 . S
C3635 C3634 1.369 . S
C3635 C3636 1.410 . S
C3635 C3643 1.503 . S
C3636 C3635 1.410 . S
C3636 C3637 1.392 . S
C3636 C3639 1.511 . S
C3637 C3633 1.376 . S
C3637 C3636 1.392 . S
C3637 H3649 0.929 . S
C3638 C3634 1.531 . S
C3638 H3650 0.960 . S
C3638 H3651 0.962 . S
C3638 H3652 0.960 . S
C3639 C3636 1.511 . S
C3639 H3653 0.961 . S
C3639 H3654 0.961 . S
C3639 H3655 0.961 . S
C3640 C3641 1.370 . S
C3640 C3642 1.363 . S
C3640 H3656 0.931 . S
C3641 C3640 1.370 . S
C3641 C3645 1.408 . S
C3642 C3640 1.363 . S
C3642 C3643 1.370 . S
C3642 C3646 1.524 . S
C3643 C3635 1.503 . S
C3643 C3642 1.370 . S
C3643 C3644 1.403 . S
C3644 C3643 1.403 . S
C3644 C3645 1.404 . S
C3644 C3647 1.539 . S
C3645 C3641 1.408 . S
C3645 C3644 1.404 . S
C3645 H3657 0.930 . S
C3646 C3642 1.524 . S
C3646 H3658 0.956 . S
C3646 H3659 0.961 . S
C3646 H3660 0.961 . S
C3647 C3644 1.539 . S
C3647 H3661 0.958 . S
C3647 H3662 0.961 . S
C3647 H3663 0.960 . S
H3648 C3632 0.931 . S
H3649 C3637 0.929 . S
H3650 C3638 0.960 . S
H3651 C3638 0.962 . S
H3652 C3638 0.960 . S
H3653 C3639 0.961 . S
H3654 C3639 0.961 . S
H3655 C3639 0.961 . S
H3656 C3640 0.931 . S
H3657 C3645 0.930 . S
H3658 C3646 0.956 . S
H3659 C3646 0.961 . S
H3660 C3646 0.961 . S
H3661 C3647 0.958 . S
H3662 C3647 0.961 . S
H3663 C3647 0.960 . S
C3664 C3665 1.391 . S
C3664 C3666 1.394 . S
C3664 H3680 0.931 . S
C3665 C3664 1.391 . S
C3665 C3669 1.376 . S
C3666 C3664 1.394 . S
C3666 C3667 1.369 . S
C3666 C3670 1.531 . S
C3667 C3666 1.369 . S
C3667 C3668 1.410 . S
C3667 C3675 1.503 . S
C3668 C3667 1.410 . S
C3668 C3669 1.392 . S
C3668 C3671 1.511 . S
C3669 C3665 1.376 . S
C3669 C3668 1.392 . S
C3669 H3681 0.929 . S
C3670 C3666 1.531 . S
C3670 H3682 0.960 . S
C3670 H3683 0.962 . S
C3670 H3684 0.960 . S
C3671 C3668 1.511 . S
C3671 H3685 0.961 . S
C3671 H3686 0.961 . S
C3671 H3687 0.961 . S
C3672 C3673 1.370 . S
C3672 C3674 1.363 . S
C3672 H3688 0.931 . S
C3673 C3672 1.370 . S
C3673 C3677 1.408 . S
C3674 C3672 1.363 . S
C3674 C3675 1.370 . S
C3674 C3678 1.524 . S
C3675 C3667 1.503 . S
C3675 C3674 1.370 . S
C3675 C3676 1.403 . S
C3676 C3675 1.403 . S
C3676 C3677 1.404 . S
C3676 C3679 1.539 . S
C3677 C3673 1.408 . S
C3677 C3676 1.404 . S
C3677 H3689 0.930 . S
C3678 C3674 1.524 . S
C3678 H3690 0.956 . S
C3678 H3691 0.961 . S
C3678 H3692 0.961 . S
C3679 C3676 1.539 . S
C3679 H3693 0.958 . S
C3679 H3694 0.961 . S
C3679 H3695 0.960 . S
H3680 C3664 0.931 . S
H3681 C3669 0.929 . S
H3682 C3670 0.960 . S
H3683 C3670 0.962 . S
H3684 C3670 0.960 . S
H3685 C3671 0.961 . S
H3686 C3671 0.961 . S
H3687 C3671 0.961 . S
H3688 C3672 0.931 . S
H3689 C3677 0.930 . S
H3690 C3678 0.956 . S
H3691 C3678 0.961 . S
H3692 C3678 0.961 . S
H3693 C3679 0.958 . S
H3694 C3679 0.961 . S
H3695 C3679 0.960 . S
C625 C127 1.658 . S
C633 C4 1.619 . S
C657 C134 1.637 . S
C665 C17 1.634 . S
C689 C153 1.651 . S
C697 C36 1.628 . S
C721 C49 1.634 . S
C729 C108 1.628 . S
C753 C199 1.593 . S
C761 C62 1.649 . S
C785 C69 1.647 . S
C793 C166 1.623 . S
C817 C179 1.629 . S
C825 C82 1.630 . S
C849 C192 1.666 . S
C857 C101 1.618 . S
C881 C218 1.644 . S
C889 C238 1.624 . S
C913 C231 1.637 . S
C921 C290 1.627 . S
C945 C251 1.608 . S
C953 C309 1.645 . S
C977 C264 1.666 . S
C985 C277 1.619 . S
C1009 C316 1.665 . S
C1017 C433 1.620 . S
C1041 C446 1.666 . S
C1049 C335 1.618 . S
C1073 C342 1.599 . S
C1081 C459 1.648 . S
C1105 C361 1.639 . S
C1113 C426 1.633 . S
C1137 C511 1.624 . S
C1145 C374 1.632 . S
C1169 C478 1.655 . S
C1177 C381 1.625 . S
C1201 C491 1.603 . S
C1209 C400 1.642 . S
C1233 C504 1.661 . S
C1241 C413 1.619 . S
C1265 C530 1.643 . S
C1273 C556 1.631 . S
C1297 C537 1.659 . S
C1305 C608 1.619 . S
C1329 C569 1.604 . S
C1337 C615 1.641 . S
C1361 C589 1.644 . S
C1369 C576 1.624 . S
C1393 C109 1.230 . S
C1401 C3 1.294 . S
C1425 C120 1.200 . S
C1433 C16 1.285 . S
C1457 C31 1.290 . S
C1465 C135 1.248 . S
C1489 C44 1.282 . S
C1497 C146 1.248 . S
C1521 C57 1.293 . S
C1529 C159 1.217 . S
C1553 C68 1.278 . S
C1561 C172 1.244 . S
C1585 C81 1.299 . S
C1593 C185 1.233 . S
C1617 C200 1.215 . S
C1625 C96 1.294 . S
C1649 C107 1.277 . S
C1657 C211 1.243 . S
C1681 C302 1.234 . S
C1689 C122 1.284 . S
C1713 C133 1.298 . S
C1721 C278 1.237 . S
C1745 C148 1.273 . S
C1753 C291 1.233 . S
C1777 C161 1.287 . S
C1785 C224 1.249 . S
C1809 C174 1.283 . S
C1817 C239 1.248 . S
C1841 C187 1.298 . S
C1849 C252 1.226 . S
C1873 C265 1.266 . S
C1881 C198 1.287 . S
C1905 C5 1.271 . S
C1913 C213 1.289 . S
C1937 C226 1.287 . S
C1945 C55 1.213 . S
C1969 C237 1.273 . S
C1977 C70 1.227 . S
C2001 C250 1.294 . S
C2009 C83 1.218 . S
C2033 C94 1.256 . S
C2041 C263 1.293 . S
C2065 C276 1.281 . S
C2073 C29 1.247 . S
C2097 C289 1.275 . S
C2105 C42 1.219 . S
C2129 C18 1.185 . S
C2137 C304 1.288 . S
C2161 C419 1.264 . S
C2169 C315 1.292 . S
C2193 C330 1.294 . S
C2201 C434 1.246 . S
C2225 C341 1.299 . S
C2233 C447 1.231 . S
C2257 C460 1.190 . S
C2265 C356 1.291 . S
C2289 C471 1.236 . S
C2297 C369 1.294 . S
C2321 C380 1.298 . S
C2329 C484 1.238 . S
C2353 C497 1.241 . S
C2361 C395 1.294 . S
C2385 C512 1.189 . S
C2393 C408 1.291 . S
C2417 C421 1.280 . S
C2425 C523 1.215 . S
C2449 C432 1.280 . S
C2457 C616 1.246 . S
C2481 C445 1.294 . S
C2489 C590 1.245 . S
C2513 C601 1.222 . S
C2521 C458 1.294 . S
C2545 C473 1.273 . S
C2553 C538 1.234 . S
C2577 C486 1.286 . S
C2585 C549 1.213 . S
C2609 C562 1.268 . S
C2617 C499 1.288 . S
C2641 C577 1.221 . S
C2649 C510 1.284 . S
C2673 C525 1.284 . S
C2681 C317 1.213 . S
C2705 C536 1.274 . S
C2713 C367 1.224 . S
C2737 C382 1.256 . S
C2745 C551 1.293 . S
C2769 C564 1.299 . S
C2777 C393 1.233 . S
C2801 C575 1.280 . S
C2809 C406 1.247 . S
C2833 C343 1.187 . S
C2841 C588 1.287 . S
C2865 C603 1.275 . S
C2873 C354 1.221 . S
C2897 C328 1.185 . S
C2905 C614 1.289 . S
C2929 C407 1.468 . S
C2937 C10 1.478 . S
C2961 C23 1.449 . S
C2969 C368 1.470 . S
C2993 C387 1.500 . S
C3001 C30 1.490 . S
C3025 C394 1.467 . S
C3033 C43 1.478 . S
C3057 C56 1.505 . S
C3065 C329 1.491 . S
C3089 C348 1.447 . S
C3097 C75 1.469 . S
C3121 C355 1.496 . S
C3129 C88 1.489 . S
C3153 C95 1.497 . S
C3161 C322 1.489 . S
C3185 C582 1.451 . S
C3193 C114 1.470 . S
C3217 C121 1.443 . S
C3225 C543 1.466 . S
C3249 C140 1.470 . S
C3257 C550 1.479 . S
C3281 C563 1.463 . S
C3289 C147 1.476 . S
C3313 C621 1.493 . S
C3321 C160 1.488 . S
C3345 C595 1.475 . S
C3353 C173 1.474 . S
C3377 C186 1.448 . S
C3385 C602 1.465 . S
C3409 C524 1.442 . S
C3417 C205 1.464 . S
C3441 C212 1.449 . S
C3449 C517 1.465 . S
C3473 C439 1.502 . S
C3481 C225 1.487 . S
C3505 C244 1.505 . S
C3513 C452 1.491 . S
C3537 C465 1.444 . S
C3545 C257 1.464 . S
C3569 C420 1.498 . S
C3577 C270 1.485 . S
C3601 C283 1.462 . S
C3609 C485 1.469 . S
C3633 C498 1.450 . S
C3641 C296 1.465 . S
C3665 C472 1.479 . S
C3673 C303 1.476 . S
