# Generated by pormake.
# Topology rob, (6)-cn, num edge types: 1
# Building blocks:
#     Node 0, Type 0, BuildingBlock: NUHQIS_clean_sbu_0, # of connection points: 6
#     Node 1, Type 0, BuildingBlock: NUHQIS_clean_sbu_0, # of connection points: 6
#     Node 2, Type 0, BuildingBlock: NUHQIS_clean_sbu_0, # of connection points: 6
#     Node 3, Type 0, BuildingBlock: NUHQIS_clean_sbu_0, # of connection points: 6
#     Edge 4, Type (0, 0), BuildingBlock: FUNLAD_clean_linker_0, # of connection points: 2
#     Edge 5, Type (0, 0), BuildingBlock: FUNLAD_clean_linker_0, # of connection points: 2
#     Edge 6, Type (0, 0), BuildingBlock: FUNLAD_clean_linker_0, # of connection points: 2
#     Edge 7, Type (0, 0), BuildingBlock: FUNLAD_clean_linker_0, # of connection points: 2
#     Edge 8, Type (0, 0), BuildingBlock: FUNLAD_clean_linker_0, # of connection points: 2
#     Edge 9, Type (0, 0), BuildingBlock: FUNLAD_clean_linker_0, # of connection points: 2
#     Edge 10, Type (0, 0), BuildingBlock: FUNLAD_clean_linker_0, # of connection points: 2
#     Edge 11, Type (0, 0), BuildingBlock: FUNLAD_clean_linker_0, # of connection points: 2
#     Edge 12, Type (0, 0), BuildingBlock: FUNLAD_clean_linker_0, # of connection points: 2
#     Edge 13, Type (0, 0), BuildingBlock: FUNLAD_clean_linker_0, # of connection points: 2
#     Edge 14, Type (0, 0), BuildingBlock: FUNLAD_clean_linker_0, # of connection points: 2
#     Edge 15, Type (0, 0), BuildingBlock: FUNLAD_clean_linker_0, # of connection points: 2
# Relax obj value: 0.030
# Max RMSD: 0.126
# Mean RMSD: 0.126
data_MOF--net-rob--node1-NUHQIS_clean_sbu_0--edge1-FUNLAD_clean_linker_0
_symmetry_space_group_name_H-M    P1
_symmetry_Int_Tables_number       1
_symmetry_cell_setting            triclinic
loop_
_symmetry_equiv_pos_as_xyz
'x, y, z'
_cell_length_a     18.060013
_cell_length_b     30.408431
_cell_length_c     40.901068
_cell_angle_alpha  95.284599
_cell_angle_beta   89.892365
_cell_angle_gamma 89.872404
loop_
_atom_site_label
_atom_site_type_symbol
_atom_site_fract_x
_atom_site_fract_y
_atom_site_fract_z
_atom_type_partial_charge
Tb0 Tb 0.18337 0.27102 0.04317 0.0
Eu1 Eu 0.32453 0.22254 1.00281 0.0
C2 C 0.321 0.32527 0.02548 0.0
C3 C 0.19197 0.2673 0.96577 0.0
C4 C 0.05491 0.29913 0.11152 0.0
C5 C 0.9929 0.32639 0.16211 0.0
C6 C 0.01356 0.33186 0.12975 0.0
C7 C 0.07561 0.26086 0.126 0.0
C8 C 0.05459 0.25523 0.15825 0.0
C9 C 0.01317 0.28799 0.17671 0.0
C10 C 0.0802 0.30613 0.07821 0.0
O11 O 0.17131 0.20051 0.04647 0.0
O12 O 0.22581 0.17767 0.99755 0.0
O13 O 0.33596 0.20248 0.05413 0.0
O14 O 0.26696 0.25945 0.07972 0.0
C15 C 0.18081 0.17058 0.02164 0.0
O16 O 0.36926 0.16632 0.97168 0.0
O17 O 0.43816 0.2232 0.98464 0.0
O18 O 0.3612 0.28926 0.02511 0.0
O19 O 0.24845 0.32331 0.0245 0.0
O20 O 0.14909 0.26544 0.99171 0.0
O21 O 0.26374 0.26094 0.9671 0.0
C22 C 0.31374 0.22636 0.08079 0.0
O23 O 0.14624 0.32293 0.07661 0.0
O24 O 0.0705 0.27325 0.05581 0.0
C25 C 0.44723 0.18925 0.93043 0.0
C26 C 0.47177 0.19237 0.86238 0.0
C27 C 0.48449 0.15317 0.87741 0.0
C28 C 0.47239 0.15169 0.91112 0.0
C29 C 0.43426 0.22836 0.91556 0.0
C30 C 0.44688 0.23 0.882 0.0
C31 C 0.43021 0.18682 0.96548 0.0
H32 H 0.96044 0.35201 0.17562 0.0
H33 H -0.00226 0.36177 0.11904 0.0
H34 H 0.10868 0.23553 0.11246 0.0
H35 H 0.07183 0.22557 0.16894 0.0
H36 H 0.50259 0.12338 0.86306 0.0
H37 H 0.4817 0.12102 0.92205 0.0
H38 H 0.41392 0.25771 0.92984 0.0
H39 H 0.43765 0.26098 0.87155 0.0
Tb40 Tb 0.67734 0.77204 0.03812 0.0
Eu41 Eu 0.81919 0.72481 0.99727 0.0
C42 C 0.81583 0.82612 0.02227 0.0
C43 C 0.68315 0.76769 0.96065 0.0
C44 C 0.54727 0.80235 0.10655 0.0
C45 C 0.47476 0.83039 0.15404 0.0
C46 C 0.49827 0.83362 0.12175 0.0
C47 C 0.57306 0.76784 0.1241 0.0
C48 C 0.54939 0.76446 0.15639 0.0
C49 C 0.49976 0.79567 0.17179 0.0
C50 C 0.57323 0.80693 0.07291 0.0
O51 O 0.66902 0.70127 0.0411 0.0
O52 O 0.72086 0.67964 0.99137 0.0
O53 O 0.83394 0.70649 0.04906 0.0
O54 O 0.7608 0.76144 0.07493 0.0
C55 C 0.67741 0.67181 1.01585 0.0
O56 O 0.87619 0.66688 0.97339 0.0
O57 O 0.92345 0.73182 0.97134 0.0
O58 O 0.85546 0.78997 0.02237 0.0
O59 O 0.74347 0.82412 0.01964 0.0
O60 O 0.6412 0.76611 0.9869 0.0
O61 O 0.755 0.76148 0.96153 0.0
C62 C 0.81074 0.72997 0.07579 0.0
O63 O 0.63853 0.82449 0.07068 0.0
O64 O 0.56503 0.7725 0.05175 0.0
C65 C 0.93609 0.68226 0.92428 0.0
C66 C 0.95851 0.67395 0.85556 0.0
C67 C 0.01617 0.66466 0.87706 0.0
C68 C 0.00503 0.66887 0.9111 0.0
C69 C 0.87789 0.69068 0.90301 0.0
C70 C 0.88894 0.68655 0.86899 0.0
C71 C 0.92647 0.69036 0.96009 0.0
H72 H 0.43764 0.85546 0.16523 0.0
H73 H 0.47852 0.86078 0.1087 0.0
H74 H 0.61148 0.74354 0.11281 0.0
H75 H 0.56921 0.73704 0.1691 0.0
H76 H 0.07069 0.65549 0.86767 0.0
H77 H 0.05075 0.66261 0.92716 0.0
H78 H 0.82422 0.70116 0.91276 0.0
H79 H 0.84303 0.69343 0.85323 0.0
Tb80 Tb 0.17012 0.70904 0.49651 0.0
Eu81 Eu 0.3024 0.76444 0.53773 0.0
C82 C 0.30477 0.66105 0.52525 0.0
C83 C 0.16097 0.72572 0.57304 0.0
C84 C 0.04474 0.67477 0.42819 0.0
C85 C 0.98986 0.64548 0.37652 0.0
C86 C 0.01345 0.63957 0.40842 0.0
C87 C 0.05222 0.71603 0.41572 0.0
C88 C 0.02833 0.72204 0.38394 0.0
C89 C -0.00288 0.68679 0.36391 0.0
C90 C 0.07468 0.66747 0.46069 0.0
O91 O 0.12841 0.77605 0.50729 0.0
O92 O 0.23707 0.81512 0.51344 0.0
O93 O 0.34254 0.75198 0.48527 0.0
O94 O 0.22863 0.74438 0.46065 0.0
C95 C 0.16528 0.81343 0.5085 0.0
O96 O 0.33869 0.82043 0.57089 0.0
O97 O 0.41761 0.76969 0.55377 0.0
O98 O 0.31122 0.69347 0.54838 0.0
O99 O 0.26573 0.66591 0.49887 0.0
O100 O 0.15162 0.69627 0.54769 0.0
O101 O 0.20512 0.75969 0.57147 0.0
C102 C 0.30045 0.75053 0.45896 0.0
O103 O 0.14458 0.65719 0.46085 0.0
O104 O 0.05814 0.69701 0.48474 0.0
C105 C 0.42978 0.80158 0.60816 0.0
C106 C 0.4782 0.79556 0.67317 0.0
C107 C 0.51799 0.82068 0.65184 0.0
C108 C 0.49392 0.82365 0.61962 0.0
C109 C 0.3896 0.77662 0.62929 0.0
C110 C 0.41349 0.77371 0.66154 0.0
C111 C 0.40509 0.80448 0.57419 0.0
H112 H 0.96546 0.61782 0.36182 0.0
H113 H 0.00801 0.60738 0.41752 0.0
H114 H 0.07747 0.74344 0.43042 0.0
H115 H 0.03561 0.75407 0.37481 0.0
H116 H 0.56752 0.83833 0.66013 0.0
H117 H 0.52544 0.84316 0.60365 0.0
H118 H 0.33996 0.75921 0.62076 0.0
H119 H 0.38208 0.75367 0.67716 0.0
Tb120 Tb 0.6857 0.2171 0.50165 0.0
Eu121 Eu 0.81747 0.27202 0.54335 0.0
C122 C 0.82835 0.16952 0.52452 0.0
C123 C 0.68368 0.22457 0.57802 0.0
C124 C 0.55934 0.18433 0.43328 0.0
C125 C 0.49365 0.15703 0.38379 0.0
C126 C 0.51644 0.15178 0.4159 0.0
C127 C 0.57906 0.2223 0.41829 0.0
C128 C 0.55664 0.22752 0.3862 0.0
C129 C 0.51374 0.19492 0.36849 0.0
C130 C 0.58733 0.17752 0.46616 0.0
O131 O 0.64238 0.28241 0.51855 0.0
O132 O 0.74997 0.32202 0.51961 0.0
O133 O 0.85623 0.2637 0.49059 0.0
O134 O 0.74199 0.25439 0.46629 0.0
C135 C 0.67765 0.32008 0.5179 0.0
O136 O 0.8489 0.32653 0.57905 0.0
O137 O 0.93266 0.28088 0.55841 0.0
O138 O 0.83578 0.20018 0.54892 0.0
O139 O 0.78368 0.17513 0.49999 0.0
O140 O 0.67469 0.19756 0.55133 0.0
O141 O 0.72349 0.26061 0.57778 0.0
C142 C 0.81339 0.26216 0.46451 0.0
O143 O 0.65602 0.16485 0.46701 0.0
O144 O 0.57319 0.20877 0.48929 0.0
C145 C 0.943 0.30676 0.61438 0.0
C146 C 0.98722 0.29644 0.67934 0.0
C147 C -0.00323 0.33708 0.66597 0.0
C148 C 0.9749 0.34215 0.63372 0.0
C149 C 0.93278 0.26627 0.62769 0.0
C150 C 0.95503 0.26109 0.65981 0.0
C151 C 0.91705 0.31276 0.58102 0.0
H152 H 0.45986 0.13156 0.37105 0.0
H153 H 0.50106 0.12215 0.42706 0.0
H154 H 0.61261 0.24769 0.43127 0.0
H155 H 0.57407 0.25679 0.37509 0.0
H156 H 0.02199 0.3648 0.68031 0.0
H157 H 0.9826 0.37374 0.62392 0.0
H158 H 0.9071 0.23873 0.6133 0.0
H159 H 0.94606 0.22958 0.66954 0.0
C160 C 0.58901 0.62073 0.0406 0.0
C161 C 0.63879 0.62889 1.0154 0.0
C162 C 0.553 0.58007 0.04034 0.0
C163 C 0.56587 0.54668 1.01477 0.0
C164 C 0.61614 0.55471 0.98981 0.0
C165 C 0.65189 0.59544 0.98998 0.0
C166 C 0.53022 0.5026 1.01398 0.0
C167 C 0.46462 0.49568 0.02837 0.0
C168 C 0.42918 0.45154 0.02734 0.0
C169 C 0.35187 0.44897 0.03011 0.0
C170 C 0.31663 0.40801 0.02939 0.0
C171 C 0.35817 0.36869 0.02632 0.0
H172 H 0.53072 0.41282 0.02357 0.0
C173 C 0.4357 0.37127 0.02412 0.0
C174 C 0.47087 0.41221 0.02467 0.0
H175 H 0.46945 0.34165 0.02198 0.0
H176 H 0.57804 0.64568 0.06068 0.0
H177 H 0.51644 0.57472 0.06058 0.0
H178 H 0.62759 0.52945 0.96999 0.0
H179 H 0.69017 0.60052 0.97026 0.0
H180 H 0.55758 0.47541 0.99964 0.0
H181 H 0.43361 0.52358 0.03993 0.0
H182 H 0.3185 0.47876 0.03254 0.0
H183 H 0.25683 0.40725 0.03135 0.0
C184 C 0.35887 0.59056 0.49958 0.0
C185 C 0.34488 0.61919 0.52789 0.0
C186 C 0.39788 0.55128 0.50168 0.0
C187 C 0.42301 0.53958 0.5322 0.0
C188 C 0.40751 0.56758 0.56061 0.0
C189 C 0.3696 0.60739 0.55845 0.0
C190 C 0.46395 0.49783 0.53488 0.0
C191 C 0.51338 0.48218 0.51203 0.0
C192 C 0.5548 0.44054 0.51428 0.0
C193 C 0.62809 0.43739 0.50292 0.0
C194 C 0.66827 0.39833 0.50437 0.0
C195 C 0.63508 0.36129 0.51639 0.0
H196 H 0.4644 0.40469 0.53454 0.0
C197 C 0.56113 0.36411 0.52711 0.0
C198 C 0.52146 0.40351 0.52632 0.0
H199 H 0.53416 0.33604 0.53646 0.0
H200 H 0.34036 0.59869 0.47569 0.0
H201 H 0.40742 0.52981 0.47943 0.0
H202 H 0.42578 0.55898 0.58442 0.0
H203 H 0.35905 0.62867 0.5807 0.0
H204 H 0.4561 0.48091 0.5569 0.0
H205 H 0.52693 0.50164 0.49184 0.0
H206 H 0.65459 0.4654 0.49323 0.0
H207 H 0.72502 0.39696 0.4957 0.0
C208 C 0.08829 0.1206 0.04508 0.0
C209 C 0.14114 0.12798 0.02091 0.0
C210 C 0.0511 0.08021 0.04431 0.0
C211 C 0.06602 0.04639 1.01928 0.0
C212 C 0.11939 0.05368 0.99541 0.0
C213 C 0.15621 0.09406 0.99606 0.0
C214 C 0.02935 0.0026 1.0179 0.0
C215 C 0.96193 -0.00389 0.03073 0.0
C216 C 0.92567 0.95213 0.02861 0.0
C217 C 0.84806 0.94981 0.0289 0.0
C218 C 0.81222 0.90893 0.02673 0.0
C219 C 0.85341 0.86949 0.02465 0.0
H220 H 0.02677 0.91308 0.02789 0.0
C221 C 0.93112 0.87184 0.02503 0.0
C222 C 0.96689 0.91266 0.02705 0.0
H223 H 0.96458 0.84213 0.02378 0.0
H224 H 0.07573 0.14594 0.06469 0.0
H225 H 0.01194 0.07542 0.06371 0.0
H226 H 0.13243 0.02807 0.97604 0.0
H227 H 0.19686 0.09852 0.97715 0.0
H228 H 0.05763 0.97519 1.00421 0.0
H229 H 0.93022 0.02417 0.04156 0.0
H230 H 0.815 0.97971 0.03043 0.0
H231 H 0.75225 0.90831 0.02675 0.0
C232 C 0.87176 0.09767 0.49613 0.0
C233 C 0.87379 0.12891 0.52367 0.0
C234 C 0.91587 0.05978 0.49481 0.0
C235 C 0.96253 0.05201 0.52121 0.0
C236 C 0.96503 0.08344 0.54857 0.0
C237 C 0.92101 0.12143 0.54987 0.0
C238 C 0.01044 0.01215 0.52078 0.0
C239 C -0.00428 0.97408 0.50245 0.0
C240 C 0.04158 0.93361 0.50319 0.0
C241 C 0.00826 0.8924 0.49517 0.0
C242 C 0.04869 0.85344 0.49649 0.0
C243 C 0.12378 0.85484 0.50549 0.0
H244 H 0.14565 0.96631 0.51648 0.0
C245 C 0.15795 0.89613 0.51242 0.0
C246 C 0.11733 0.93514 0.51126 0.0
H247 H 0.21588 0.89838 0.51915 0.0
H248 H 0.83672 0.10265 0.47533 0.0
H249 H 0.91406 0.03725 0.47277 0.0
H250 H 0.00089 0.0785 0.56914 0.0
H251 H 0.92421 0.14494 0.57139 0.0
H252 H 0.05692 0.01363 0.53766 0.0
H253 H 0.94536 0.97117 0.48797 0.0
H254 H 0.95027 0.89028 0.48846 0.0
H255 H 0.02078 0.82221 0.49066 0.0
C256 C 0.48961 0.16468 0.31002 0.0
C257 C 0.48995 0.20062 0.33429 0.0
C258 C 0.4669 0.17021 0.27793 0.0
C259 C 0.44438 0.212 0.26933 0.0
C260 C 0.44467 0.24777 0.29365 0.0
C261 C 0.46719 0.24223 0.32566 0.0
C262 C 0.41709 0.21979 0.23597 0.0
C263 C 0.42616 0.19158 0.20877 0.0
C264 C 0.39627 0.20053 0.17608 0.0
C265 C 0.42903 0.17998 0.1474 0.0
C266 C 0.40236 0.188 0.11634 0.0
C267 C 0.34215 0.21671 0.11336 0.0
H268 H 0.30544 0.24321 0.19432 0.0
C269 C 0.3083 0.2364 0.14207 0.0
C270 C 0.3346 0.22821 0.17299 0.0
H271 H 0.26077 0.25795 0.14077 0.0
H272 H 0.50734 0.13223 0.31575 0.0
H273 H 0.46612 0.14145 0.26033 0.0
H274 H 0.42696 0.28026 0.28795 0.0
H275 H 0.46554 0.27051 0.34379 0.0
H276 H 0.38986 0.25124 0.23378 0.0
H277 H 0.45879 0.16178 0.20988 0.0
H278 H 0.47593 0.15802 0.14902 0.0
H279 H 0.42938 0.17206 0.09471 0.0
C280 C 0.52118 0.7781 0.23021 0.0
C281 C 0.47328 0.79184 0.206 0.0
C282 C 0.49574 0.77431 0.26224 0.0
C283 C 0.42161 0.78443 0.27087 0.0
C284 C 0.37403 0.79807 0.24658 0.0
C285 C 0.39934 0.80171 0.21465 0.0
C286 C 0.39011 0.78011 0.30424 0.0
C287 C 0.42966 0.77198 0.33106 0.0
C288 C 0.39516 0.76681 0.36371 0.0
C289 C 0.43887 0.77287 0.39219 0.0
C290 C 0.40851 0.76779 0.42319 0.0
C291 C 0.33363 0.75639 0.42639 0.0
H292 H 0.28524 0.7478 0.34579 0.0
C293 C 0.29015 0.74979 0.39787 0.0
C294 C 0.32051 0.75461 0.36697 0.0
H295 H 0.23255 0.7403 0.39925 0.0
H296 H 0.57867 0.77058 0.22452 0.0
H297 H 0.53446 0.76302 0.27975 0.0
H298 H 0.31651 0.80574 0.25223 0.0
H299 H 0.3604 0.81159 0.19659 0.0
H300 H 0.33075 0.78493 0.30672 0.0
H301 H 0.48955 0.77025 0.32971 0.0
H302 H 0.49672 0.78176 0.39049 0.0
H303 H 0.44374 0.77289 0.44462 0.0
C304 C 0.69486 0.78072 0.90134 0.0
C305 C 0.64929 0.77543 0.92863 0.0
C306 C 0.66421 0.78587 0.87063 0.0
C307 C 0.58695 0.78534 0.8662 0.0
C308 C 0.54127 0.78139 0.89365 0.0
C309 C 0.57204 0.77633 0.92453 0.0
C310 C 0.55258 0.78986 0.83354 0.0
C311 C 0.58786 0.77818 0.80489 0.0
C312 C 0.557 0.78334 0.77167 0.0
C313 C 0.60625 0.78132 0.74494 0.0
C314 C 0.58074 0.78551 0.71316 0.0
C315 C 0.50499 0.79151 0.70717 0.0
H316 H 0.44065 0.78984 0.78534 0.0
C317 C 0.45533 0.79311 0.73381 0.0
C318 C 0.48092 0.78908 0.76572 0.0
H319 H 0.3966 0.79783 0.73004 0.0
H320 H 0.75458 0.78084 0.90358 0.0
H321 H 0.70163 0.79075 0.85061 0.0
H322 H 0.48158 0.78148 0.89109 0.0
H323 H 0.53528 0.7725 0.94504 0.0
H324 H 0.49653 0.80273 0.83344 0.0
H325 H 0.64332 0.76444 0.80546 0.0
H326 H 0.66504 0.77655 0.74864 0.0
H327 H 0.62039 0.78336 0.69318 0.0
C328 C 0.64411 0.24732 0.63568 0.0
C329 C 0.65022 0.21419 0.60947 0.0
C330 C 0.61633 0.23762 0.66605 0.0
C331 C 0.5943 0.19441 0.67104 0.0
C332 C 0.6003 0.16125 0.64489 0.0
C333 C 0.62721 0.17112 0.61425 0.0
C334 C 0.56976 0.18284 0.70388 0.0
C335 C 0.53321 0.21159 0.7252 0.0
C336 C 0.5147 0.20268 0.75937 0.0
C337 C 0.45422 0.22466 0.77506 0.0
C338 C 0.43899 0.22024 0.80811 0.0
C339 C 0.48492 0.19439 0.82652 0.0
H340 H 0.60794 0.15932 0.76637 0.0
C341 C 0.54493 0.1718 0.81061 0.0
C342 C 0.55961 0.17582 0.7774 0.0
H343 H 0.58228 0.15221 0.82405 0.0
H344 H 0.66154 0.28083 0.63287 0.0
H345 H 0.61449 0.26378 0.68587 0.0
H346 H 0.58442 0.12761 0.64821 0.0
H347 H 0.6318 0.14479 0.59462 0.0
H348 H 0.5814 0.14969 0.71038 0.0
H349 H 0.51523 0.24304 0.71728 0.0
H350 H 0.41887 0.24565 0.76176 0.0
H351 H 0.39137 0.23741 0.81924 0.0
C352 C 0.82577 0.75125 0.13593 0.0
C353 C 0.84169 0.72174 0.10827 0.0
C354 C 0.85253 0.74362 0.16689 0.0
C355 C 0.89513 0.70577 0.17126 0.0
C356 C 0.9124 0.67674 0.14349 0.0
C357 C 0.88595 0.68457 0.11233 0.0
C358 C 0.92378 0.69616 0.2041 0.0
C359 C 0.89473 0.71403 0.23278 0.0
C360 C 0.92354 0.70609 0.26582 0.0
C361 C 0.90776 0.73748 0.2923 0.0
C362 C 0.93203 0.73133 0.32397 0.0
C363 C 0.97197 0.69326 0.33006 0.0
H364 H 0.97526 0.64232 0.25233 0.0
C365 C 0.98731 0.66153 0.30366 0.0
C366 C 0.96349 0.66785 0.27185 0.0
H367 H 0.01823 0.6319 0.30756 0.0
H368 H 0.79277 0.78059 0.13375 0.0
H369 H 0.84022 0.76804 0.18707 0.0
H370 H 0.94581 0.6476 0.14595 0.0
H371 H 0.89944 0.66121 0.09153 0.0
H372 H 0.97018 0.67345 0.20442 0.0
H373 H 0.84797 0.73643 0.23251 0.0
H374 H 0.87656 0.76706 0.28848 0.0
H375 H 0.91842 0.75612 0.34382 0.0
C376 C 0.80155 0.26283 0.40363 0.0
C377 C 0.84534 0.26956 0.43206 0.0
C378 C 0.83118 0.2685 0.37278 0.0
C379 C 0.90556 0.28096 0.36949 0.0
C380 C 0.94897 0.28871 0.3979 0.0
C381 C 0.9194 0.28272 0.42887 0.0
C382 C 0.93816 0.28737 0.33685 0.0
C383 C 0.91549 0.26415 0.309 0.0
C384 C 0.94477 0.27069 0.2758 0.0
C385 C 0.93879 0.23594 0.25086 0.0
C386 C 0.96197 0.24135 0.21887 0.0
C387 C 0.9907 0.28195 0.21097 0.0
H388 H 0.97792 0.33921 0.28631 0.0
C389 C -0.00328 0.31682 0.23589 0.0
C390 C 0.97411 0.31129 0.26799 0.0
H391 H 0.01898 0.34844 0.23056 0.0
H392 H 0.7442 0.25291 0.40508 0.0
H393 H 0.79521 0.26367 0.35162 0.0
H394 H 0.00618 0.29886 0.39608 0.0
H395 H 0.95457 0.28842 0.45026 0.0
H396 H 0.98378 0.31045 0.33607 0.0
H397 H 0.87503 0.23802 0.31052 0.0
H398 H 0.91569 0.20447 0.2561 0.0
H399 H 0.95581 0.21403 0.20014 0.0
C400 C -0.00293 0.32343 0.73919 0.0
C401 C 0.01154 0.2907 0.71338 0.0
C402 C 0.02118 0.31815 0.7711 0.0
C403 C 0.06048 0.27998 0.77782 0.0
C404 C 0.07495 0.24741 0.75198 0.0
C405 C 0.0504 0.25253 0.72019 0.0
C406 C 0.09117 0.27401 0.81083 0.0
C407 C 0.06384 0.29387 0.83916 0.0
C408 C 0.09745 0.28775 0.87161 0.0
C409 C 0.05273 0.29068 0.89988 0.0
C410 C 0.0831 0.28436 0.9306 0.0
C411 C 0.15913 0.27562 0.9337 0.0
H412 H 0.21057 0.27908 0.8539 0.0
C413 C 0.20412 0.27394 0.90548 0.0
C414 C 0.17376 0.28 0.87487 0.0
H415 H 0.26301 0.26765 0.90687 0.0
H416 H 0.96696 0.35313 0.73471 0.0
H417 H 0.01051 0.34451 0.79015 0.0
H418 H 0.10575 0.2179 0.75636 0.0
H419 H 0.06326 0.22697 0.70077 0.0
H420 H 0.13693 0.25089 0.81176 0.0
H421 H 0.01365 0.31357 0.83889 0.0
H422 H -0.00607 0.29717 0.8981 0.0
H423 H 0.04692 0.28612 0.95185 0.0
C424 C 0.09295 0.68038 0.6122 0.0
C425 C 0.12317 0.72087 0.60476 0.0
C426 C 0.06192 0.67609 0.64327 0.0
C427 C 0.06018 0.7124 0.66735 0.0
C428 C 0.08819 0.75303 0.65934 0.0
C429 C 0.11973 0.75717 0.62864 0.0
C430 C 0.02969 0.70993 0.70101 0.0
C431 C 0.02681 0.67262 0.71643 0.0
C432 C 0.00463 0.67226 0.75159 0.0
C433 C 0.03221 0.63885 0.76979 0.0
C434 C 0.01639 0.63891 0.80332 0.0
C435 C 0.97188 0.67223 0.81945 0.0
H436 H 0.93328 0.73023 0.75418 0.0
C437 C 0.94197 0.70476 0.80095 0.0
C438 C 0.95783 0.70471 0.76745 0.0
H439 H 0.90761 0.73101 0.81251 0.0
H440 H 0.09453 0.65184 0.59429 0.0
H441 H 0.03914 0.64449 0.64821 0.0
H442 H 0.08706 0.78167 0.6772 0.0
H443 H 0.14181 0.789 0.62372 0.0
H444 H 0.01526 0.74114 0.71459 0.0
H445 H 0.04751 0.64195 0.70397 0.0
H446 H 0.06758 0.6131 0.7582 0.0
H447 H 0.03923 0.61286 0.81663 0.0
loop_
_geom_bond_atom_site_label_1
_geom_bond_atom_site_label_2
_geom_bond_distance
_geom_bond_site_symmetry_2
_ccdc_geom_bond_type
Tb0 C10 2.825 . S
Tb0 O11 2.347 . S
Tb0 O14 2.366 . S
Tb0 O19 2.418 . S
Tb0 O20 2.384 1_554 S
Tb0 O23 2.479 . S
Tb0 O24 2.471 . S
Eu1 O12 2.418 . S
Eu1 O13 2.384 1_556 S
Eu1 O16 2.479 . S
Eu1 O17 2.471 . S
Eu1 O18 2.347 . S
Eu1 O21 2.366 . S
Eu1 C31 2.825 . S
C2 O18 1.259 1_554 S
C2 O19 1.265 . S
C3 O20 1.255 . S
C3 O21 1.265 . S
C4 C6 1.380 . S
C4 C7 1.374 . S
C4 C10 1.507 . S
C5 C6 1.384 . S
C5 C9 1.387 . S
C5 H32 0.930 . S
C6 C4 1.380 . S
C6 C5 1.384 . S
C6 H33 0.931 . S
C7 C4 1.374 . S
C7 C8 1.390 . S
C7 H34 0.930 . S
C8 C7 1.390 . S
C8 C9 1.391 . S
C8 H35 0.930 . S
C9 C5 1.387 . S
C9 C8 1.391 . S
C10 Tb0 2.825 . S
C10 C4 1.507 . S
C10 O23 1.238 . S
C10 O24 1.247 . S
O11 Tb0 2.347 . S
O11 C15 1.259 1_554 S
O12 Eu1 2.418 . S
O12 C15 1.265 . S
O13 Eu1 2.384 1_554 S
O13 C22 1.255 . S
O14 Tb0 2.366 . S
O14 C22 1.265 . S
C15 O11 1.259 1_556 S
C15 O12 1.265 . S
O16 Eu1 2.479 . S
O16 C31 1.238 . S
O17 Eu1 2.471 . S
O17 C31 1.247 . S
O18 Eu1 2.347 . S
O18 C2 1.259 1_556 S
O19 Tb0 2.418 . S
O19 C2 1.265 . S
O20 Tb0 2.384 1_556 S
O20 C3 1.255 . S
O21 Eu1 2.366 . S
O21 C3 1.265 . S
C22 O13 1.255 . S
C22 O14 1.265 . S
O23 Tb0 2.479 . S
O23 C10 1.238 . S
O24 Tb0 2.471 . S
O24 C10 1.247 . S
C25 C28 1.380 . S
C25 C29 1.374 . S
C25 C31 1.507 . S
C26 C27 1.387 . S
C26 C30 1.391 . S
C27 C26 1.387 . S
C27 C28 1.384 . S
C27 H36 0.930 . S
C28 C25 1.380 . S
C28 C27 1.384 . S
C28 H37 0.931 . S
C29 C25 1.374 . S
C29 C30 1.390 . S
C29 H38 0.930 . S
C30 C26 1.391 . S
C30 C29 1.390 . S
C30 H39 0.930 . S
C31 Eu1 2.825 . S
C31 O16 1.238 . S
C31 O17 1.247 . S
C31 C25 1.507 . S
H32 C5 0.930 . S
H33 C6 0.931 . S
H34 C7 0.930 . S
H35 C8 0.930 . S
H36 C27 0.930 . S
H37 C28 0.931 . S
H38 C29 0.930 . S
H39 C30 0.930 . S
Tb40 C50 2.825 . S
Tb40 O51 2.347 . S
Tb40 O54 2.366 . S
Tb40 O59 2.418 . S
Tb40 O60 2.384 1_554 S
Tb40 O63 2.479 . S
Tb40 O64 2.471 . S
Eu41 O52 2.418 . S
Eu41 O53 2.384 1_556 S
Eu41 O56 2.479 . S
Eu41 O57 2.471 . S
Eu41 O58 2.347 . S
Eu41 O61 2.366 . S
Eu41 C71 2.825 . S
C42 O58 1.259 1_554 S
C42 O59 1.265 . S
C43 O60 1.255 . S
C43 O61 1.265 . S
C44 C46 1.380 . S
C44 C47 1.374 . S
C44 C50 1.507 . S
C45 C46 1.384 . S
C45 C49 1.387 . S
C45 H72 0.930 . S
C46 C44 1.380 . S
C46 C45 1.384 . S
C46 H73 0.931 . S
C47 C44 1.374 . S
C47 C48 1.390 . S
C47 H74 0.930 . S
C48 C47 1.390 . S
C48 C49 1.391 . S
C48 H75 0.930 . S
C49 C45 1.387 . S
C49 C48 1.391 . S
C50 Tb40 2.825 . S
C50 C44 1.507 . S
C50 O63 1.238 . S
C50 O64 1.247 . S
O51 Tb40 2.347 . S
O51 C55 1.259 1_554 S
O52 Eu41 2.418 . S
O52 C55 1.265 . S
O53 Eu41 2.384 1_554 S
O53 C62 1.255 . S
O54 Tb40 2.366 . S
O54 C62 1.265 . S
C55 O51 1.259 1_556 S
C55 O52 1.265 . S
O56 Eu41 2.479 . S
O56 C71 1.238 . S
O57 Eu41 2.471 . S
O57 C71 1.247 . S
O58 Eu41 2.347 . S
O58 C42 1.259 1_556 S
O59 Tb40 2.418 . S
O59 C42 1.265 . S
O60 Tb40 2.384 1_556 S
O60 C43 1.255 . S
O61 Eu41 2.366 . S
O61 C43 1.265 . S
C62 O53 1.255 . S
C62 O54 1.265 . S
O63 Tb40 2.479 . S
O63 C50 1.238 . S
O64 Tb40 2.471 . S
O64 C50 1.247 . S
C65 C68 1.380 . S
C65 C69 1.374 . S
C65 C71 1.507 . S
C66 C67 1.387 . S
C66 C70 1.391 . S
C67 C66 1.387 . S
C67 C68 1.384 . S
C67 H76 0.930 . S
C68 C65 1.380 . S
C68 C67 1.384 . S
C68 H77 0.931 . S
C69 C65 1.374 . S
C69 C70 1.390 . S
C69 H78 0.930 . S
C70 C66 1.391 . S
C70 C69 1.390 . S
C70 H79 0.930 . S
C71 Eu41 2.825 . S
C71 O56 1.238 . S
C71 O57 1.247 . S
C71 C65 1.507 . S
H72 C45 0.930 . S
H73 C46 0.931 . S
H74 C47 0.930 . S
H75 C48 0.930 . S
H76 C67 0.930 . S
H77 C68 0.931 . S
H78 C69 0.930 . S
H79 C70 0.930 . S
Tb80 C90 2.825 . S
Tb80 O91 2.347 . S
Tb80 O94 2.366 . S
Tb80 O99 2.418 . S
Tb80 O100 2.384 . S
Tb80 O103 2.479 . S
Tb80 O104 2.471 . S
Eu81 O92 2.418 . S
Eu81 O93 2.384 . S
Eu81 O96 2.479 . S
Eu81 O97 2.471 . S
Eu81 O98 2.347 . S
Eu81 O101 2.366 . S
Eu81 C111 2.825 . S
C82 O98 1.259 . S
C82 O99 1.265 . S
C83 O100 1.255 . S
C83 O101 1.265 . S
C84 C86 1.380 . S
C84 C87 1.374 . S
C84 C90 1.507 . S
C85 C86 1.384 . S
C85 C89 1.387 . S
C85 H112 0.930 . S
C86 C84 1.380 . S
C86 C85 1.384 . S
C86 H113 0.931 . S
C87 C84 1.374 . S
C87 C88 1.390 . S
C87 H114 0.930 . S
C88 C87 1.390 . S
C88 C89 1.391 . S
C88 H115 0.930 . S
C89 C85 1.387 . S
C89 C88 1.391 . S
C90 Tb80 2.825 . S
C90 C84 1.507 . S
C90 O103 1.238 . S
C90 O104 1.247 . S
O91 Tb80 2.347 . S
O91 C95 1.259 . S
O92 Eu81 2.418 . S
O92 C95 1.265 . S
O93 Eu81 2.384 . S
O93 C102 1.255 . S
O94 Tb80 2.366 . S
O94 C102 1.265 . S
C95 O91 1.259 . S
C95 O92 1.265 . S
O96 Eu81 2.479 . S
O96 C111 1.238 . S
O97 Eu81 2.471 . S
O97 C111 1.247 . S
O98 Eu81 2.347 . S
O98 C82 1.259 . S
O99 Tb80 2.418 . S
O99 C82 1.265 . S
O100 Tb80 2.384 . S
O100 C83 1.255 . S
O101 Eu81 2.366 . S
O101 C83 1.265 . S
C102 O93 1.255 . S
C102 O94 1.265 . S
O103 Tb80 2.479 . S
O103 C90 1.238 . S
O104 Tb80 2.471 . S
O104 C90 1.247 . S
C105 C108 1.380 . S
C105 C109 1.374 . S
C105 C111 1.507 . S
C106 C107 1.387 . S
C106 C110 1.391 . S
C107 C106 1.387 . S
C107 C108 1.384 . S
C107 H116 0.930 . S
C108 C105 1.380 . S
C108 C107 1.384 . S
C108 H117 0.931 . S
C109 C105 1.374 . S
C109 C110 1.390 . S
C109 H118 0.930 . S
C110 C106 1.391 . S
C110 C109 1.390 . S
C110 H119 0.930 . S
C111 Eu81 2.825 . S
C111 O96 1.238 . S
C111 O97 1.247 . S
C111 C105 1.507 . S
H112 C85 0.930 . S
H113 C86 0.931 . S
H114 C87 0.930 . S
H115 C88 0.930 . S
H116 C107 0.930 . S
H117 C108 0.931 . S
H118 C109 0.930 . S
H119 C110 0.930 . S
Tb120 C130 2.825 . S
Tb120 O131 2.347 . S
Tb120 O134 2.366 . S
Tb120 O139 2.418 . S
Tb120 O140 2.384 . S
Tb120 O143 2.479 . S
Tb120 O144 2.471 . S
Eu121 O132 2.418 . S
Eu121 O133 2.384 . S
Eu121 O136 2.479 . S
Eu121 O137 2.471 . S
Eu121 O138 2.347 . S
Eu121 O141 2.366 . S
Eu121 C151 2.825 . S
C122 O138 1.259 . S
C122 O139 1.265 . S
C123 O140 1.255 . S
C123 O141 1.265 . S
C124 C126 1.380 . S
C124 C127 1.374 . S
C124 C130 1.507 . S
C125 C126 1.384 . S
C125 C129 1.387 . S
C125 H152 0.930 . S
C126 C124 1.380 . S
C126 C125 1.384 . S
C126 H153 0.931 . S
C127 C124 1.374 . S
C127 C128 1.390 . S
C127 H154 0.930 . S
C128 C127 1.390 . S
C128 C129 1.391 . S
C128 H155 0.930 . S
C129 C125 1.387 . S
C129 C128 1.391 . S
C130 Tb120 2.825 . S
C130 C124 1.507 . S
C130 O143 1.238 . S
C130 O144 1.247 . S
O131 Tb120 2.347 . S
O131 C135 1.259 . S
O132 Eu121 2.418 . S
O132 C135 1.265 . S
O133 Eu121 2.384 . S
O133 C142 1.255 . S
O134 Tb120 2.366 . S
O134 C142 1.265 . S
C135 O131 1.259 . S
C135 O132 1.265 . S
O136 Eu121 2.479 . S
O136 C151 1.238 . S
O137 Eu121 2.471 . S
O137 C151 1.247 . S
O138 Eu121 2.347 . S
O138 C122 1.259 . S
O139 Tb120 2.418 . S
O139 C122 1.265 . S
O140 Tb120 2.384 . S
O140 C123 1.255 . S
O141 Eu121 2.366 . S
O141 C123 1.265 . S
C142 O133 1.255 . S
C142 O134 1.265 . S
O143 Tb120 2.479 . S
O143 C130 1.238 . S
O144 Tb120 2.471 . S
O144 C130 1.247 . S
C145 C148 1.380 . S
C145 C149 1.374 . S
C145 C151 1.507 . S
C146 C147 1.387 . S
C146 C150 1.391 . S
C147 C146 1.387 . S
C147 C148 1.384 . S
C147 H156 0.930 . S
C148 C145 1.380 . S
C148 C147 1.384 . S
C148 H157 0.931 . S
C149 C145 1.374 . S
C149 C150 1.390 . S
C149 H158 0.930 . S
C150 C146 1.391 . S
C150 C149 1.390 . S
C150 H159 0.930 . S
C151 Eu121 2.825 . S
C151 O136 1.238 . S
C151 O137 1.247 . S
C151 C145 1.507 . S
H152 C125 0.930 . S
H153 C126 0.931 . S
H154 C127 0.930 . S
H155 C128 0.930 . S
H156 C147 0.930 . S
H157 C148 0.931 . S
H158 C149 0.930 . S
H159 C150 0.930 . S
C160 C161 1.386 1_554 S
C160 C162 1.383 . S
C160 H176 0.951 . S
C161 C160 1.386 1_556 S
C161 C165 1.383 . S
C162 C160 1.383 . S
C162 C163 1.402 1_554 S
C162 H177 0.951 . S
C163 C162 1.402 1_556 S
C163 C164 1.375 . S
C163 C166 1.481 . S
C164 C163 1.375 . S
C164 C165 1.367 . S
C164 H178 0.951 . S
C165 C161 1.383 . S
C165 C164 1.367 . S
C165 H179 0.950 . S
C166 C163 1.481 . S
C166 C167 1.297 . S
C166 H180 0.950 . S
C167 C166 1.297 . S
C167 C168 1.479 . S
C167 H181 0.950 1_556 S
C168 C167 1.479 . S
C168 C169 1.375 1_556 S
C168 C174 1.404 . S
C169 C168 1.375 1_554 S
C169 C170 1.369 . S
C169 H182 0.950 . S
C170 C169 1.369 . S
C170 C171 1.392 1_554 S
C170 H183 0.951 . S
C171 C170 1.392 1_556 S
C171 C173 1.384 . S
H172 C174 0.949 . S
C173 C171 1.384 . S
C173 C174 1.385 . S
C173 H175 0.950 . S
C174 C168 1.404 . S
C174 H172 0.949 . S
C174 C173 1.385 . S
H175 C173 0.950 . S
H176 C160 0.951 . S
H177 C162 0.951 . S
H178 C164 0.951 . S
H179 C165 0.950 . S
H180 C166 0.950 . S
H181 C167 0.950 1_554 S
H182 C169 0.950 . S
H183 C170 0.951 . S
C184 C185 1.386 . S
C184 C186 1.383 . S
C184 H200 0.951 . S
C185 C184 1.386 . S
C185 C189 1.383 . S
C186 C184 1.383 . S
C186 C187 1.402 . S
C186 H201 0.951 . S
C187 C186 1.402 . S
C187 C188 1.375 . S
C187 C190 1.481 . S
C188 C187 1.375 . S
C188 C189 1.367 . S
C188 H202 0.951 . S
C189 C185 1.383 . S
C189 C188 1.367 . S
C189 H203 0.950 . S
C190 C187 1.481 . S
C190 C191 1.297 . S
C190 H204 0.950 . S
C191 C190 1.297 . S
C191 C192 1.479 . S
C191 H205 0.950 . S
C192 C191 1.479 . S
C192 C193 1.375 . S
C192 C198 1.404 . S
C193 C192 1.375 . S
C193 C194 1.369 . S
C193 H206 0.950 . S
C194 C193 1.369 . S
C194 C195 1.392 . S
C194 H207 0.951 . S
C195 C194 1.392 . S
C195 C197 1.384 . S
H196 C198 0.949 . S
C197 C195 1.384 . S
C197 C198 1.385 . S
C197 H199 0.950 . S
C198 C192 1.404 . S
C198 H196 0.949 . S
C198 C197 1.385 . S
H199 C197 0.950 . S
H200 C184 0.951 . S
H201 C186 0.951 . S
H202 C188 0.951 . S
H203 C189 0.950 . S
H204 C190 0.950 . S
H205 C191 0.950 . S
H206 C193 0.950 . S
H207 C194 0.951 . S
C208 C209 1.386 1_554 S
C208 C210 1.383 . S
C208 H224 0.951 . S
C209 C208 1.386 1_556 S
C209 C213 1.383 . S
C210 C208 1.383 . S
C210 C211 1.402 1_554 S
C210 H225 0.951 . S
C211 C210 1.402 1_556 S
C211 C212 1.375 . S
C211 C214 1.481 . S
C212 C211 1.375 . S
C212 C213 1.367 . S
C212 H226 0.951 . S
C213 C209 1.383 . S
C213 C212 1.367 . S
C213 H227 0.950 . S
C214 C211 1.481 . S
C214 C215 1.296 1_445 S
C214 H228 0.950 1_545 S
C215 C214 1.296 1_665 S
C215 C216 1.482 . S
C215 H229 0.948 1_566 S
C216 C215 1.482 . S
C216 C217 1.375 1_556 S
C216 C222 1.404 . S
C217 C216 1.375 1_554 S
C217 C218 1.369 . S
C217 H230 0.950 . S
C218 C217 1.369 . S
C218 C219 1.392 1_554 S
C218 H231 0.951 . S
C219 C218 1.392 1_556 S
C219 C221 1.384 . S
H220 C222 0.949 . S
C221 C219 1.384 . S
C221 C222 1.385 . S
C221 H223 0.950 . S
C222 C216 1.404 . S
C222 H220 0.949 . S
C222 C221 1.385 . S
H223 C221 0.950 . S
H224 C208 0.951 . S
H225 C210 0.951 . S
H226 C212 0.951 . S
H227 C213 0.950 . S
H228 C214 0.950 1_565 S
H229 C215 0.948 1_544 S
H230 C217 0.950 . S
H231 C218 0.951 . S
C232 C233 1.386 . S
C232 C234 1.383 . S
C232 H248 0.951 . S
C233 C232 1.386 . S
C233 C237 1.383 . S
C234 C232 1.383 . S
C234 C235 1.402 . S
C234 H249 0.951 . S
C235 C234 1.402 . S
C235 C236 1.375 . S
C235 C238 1.481 1_655 S
C236 C235 1.375 . S
C236 C237 1.367 . S
C236 H250 0.951 1_655 S
C237 C233 1.383 . S
C237 C236 1.367 . S
C237 H251 0.950 . S
C238 C235 1.481 1_455 S
C238 C239 1.297 1_545 S
C238 H252 0.950 . S
C239 C238 1.297 1_565 S
C239 C240 1.479 . S
C239 H253 0.950 1_455 S
C240 C239 1.479 . S
C240 C241 1.375 . S
C240 C246 1.404 . S
C241 C240 1.375 . S
C241 C242 1.369 . S
C241 H254 0.950 . S
C242 C241 1.369 . S
C242 C243 1.392 . S
C242 H255 0.951 . S
C243 C242 1.392 . S
C243 C245 1.384 . S
H244 C246 0.949 . S
C245 C243 1.384 . S
C245 C246 1.385 . S
C245 H247 0.950 . S
C246 C240 1.404 . S
C246 H244 0.949 . S
C246 C245 1.385 . S
H247 C245 0.950 . S
H248 C232 0.951 . S
H249 C234 0.951 . S
H250 C236 0.951 1_455 S
H251 C237 0.950 . S
H252 C238 0.950 . S
H253 C239 0.950 1_655 S
H254 C241 0.950 . S
H255 C242 0.951 . S
C256 C257 1.386 . S
C256 C258 1.383 . S
C256 H272 0.951 . S
C257 C256 1.386 . S
C257 C261 1.383 . S
C258 C256 1.383 . S
C258 C259 1.402 . S
C258 H273 0.951 . S
C259 C258 1.402 . S
C259 C260 1.375 . S
C259 C262 1.481 . S
C260 C259 1.375 . S
C260 C261 1.367 . S
C260 H274 0.951 . S
C261 C257 1.383 . S
C261 C260 1.367 . S
C261 H275 0.950 . S
C262 C259 1.481 . S
C262 C263 1.297 . S
C262 H276 0.950 . S
C263 C262 1.297 . S
C263 C264 1.479 . S
C263 H277 0.950 . S
C264 C263 1.479 . S
C264 C265 1.375 . S
C264 C270 1.404 . S
C265 C264 1.375 . S
C265 C266 1.369 . S
C265 H278 0.950 . S
C266 C265 1.369 . S
C266 C267 1.392 . S
C266 H279 0.951 . S
C267 C266 1.392 . S
C267 C269 1.384 . S
H268 C270 0.949 . S
C269 C267 1.384 . S
C269 C270 1.385 . S
C269 H271 0.950 . S
C270 C264 1.404 . S
C270 H268 0.949 . S
C270 C269 1.385 . S
H271 C269 0.950 . S
H272 C256 0.951 . S
H273 C258 0.951 . S
H274 C260 0.951 . S
H275 C261 0.950 . S
H276 C262 0.950 . S
H277 C263 0.950 . S
H278 C265 0.950 . S
H279 C266 0.951 . S
C280 C281 1.386 . S
C280 C282 1.383 . S
C280 H296 0.951 . S
C281 C280 1.386 . S
C281 C285 1.383 . S
C282 C280 1.383 . S
C282 C283 1.402 . S
C282 H297 0.951 . S
C283 C282 1.402 . S
C283 C284 1.375 . S
C283 C286 1.481 . S
C284 C283 1.375 . S
C284 C285 1.367 . S
C284 H298 0.951 . S
C285 C281 1.383 . S
C285 C284 1.367 . S
C285 H299 0.950 . S
C286 C283 1.481 . S
C286 C287 1.297 . S
C286 H300 0.950 . S
C287 C286 1.297 . S
C287 C288 1.479 . S
C287 H301 0.950 . S
C288 C287 1.479 . S
C288 C289 1.375 . S
C288 C294 1.404 . S
C289 C288 1.375 . S
C289 C290 1.369 . S
C289 H302 0.950 . S
C290 C289 1.369 . S
C290 C291 1.392 . S
C290 H303 0.951 . S
C291 C290 1.392 . S
C291 C293 1.384 . S
H292 C294 0.949 . S
C293 C291 1.384 . S
C293 C294 1.385 . S
C293 H295 0.950 . S
C294 C288 1.404 . S
C294 H292 0.949 . S
C294 C293 1.385 . S
H295 C293 0.950 . S
H296 C280 0.951 . S
H297 C282 0.951 . S
H298 C284 0.951 . S
H299 C285 0.950 . S
H300 C286 0.950 . S
H301 C287 0.950 . S
H302 C289 0.950 . S
H303 C290 0.951 . S
C304 C305 1.386 . S
C304 C306 1.383 . S
C304 H320 0.951 . S
C305 C304 1.386 . S
C305 C309 1.383 . S
C306 C304 1.383 . S
C306 C307 1.402 . S
C306 H321 0.951 . S
C307 C306 1.402 . S
C307 C308 1.375 . S
C307 C310 1.481 . S
C308 C307 1.375 . S
C308 C309 1.367 . S
C308 H322 0.951 . S
C309 C305 1.383 . S
C309 C308 1.367 . S
C309 H323 0.950 . S
C310 C307 1.481 . S
C310 C311 1.297 . S
C310 H324 0.950 . S
C311 C310 1.297 . S
C311 C312 1.479 . S
C311 H325 0.950 . S
C312 C311 1.479 . S
C312 C313 1.375 . S
C312 C318 1.404 . S
C313 C312 1.375 . S
C313 C314 1.369 . S
C313 H326 0.950 . S
C314 C313 1.369 . S
C314 C315 1.392 . S
C314 H327 0.951 . S
C315 C314 1.392 . S
C315 C317 1.384 . S
H316 C318 0.949 . S
C317 C315 1.384 . S
C317 C318 1.385 . S
C317 H319 0.950 . S
C318 C312 1.404 . S
C318 H316 0.949 . S
C318 C317 1.385 . S
H319 C317 0.950 . S
H320 C304 0.951 . S
H321 C306 0.951 . S
H322 C308 0.951 . S
H323 C309 0.950 . S
H324 C310 0.950 . S
H325 C311 0.950 . S
H326 C313 0.950 . S
H327 C314 0.951 . S
C328 C329 1.386 . S
C328 C330 1.383 . S
C328 H344 0.951 . S
C329 C328 1.386 . S
C329 C333 1.383 . S
C330 C328 1.383 . S
C330 C331 1.402 . S
C330 H345 0.951 . S
C331 C330 1.402 . S
C331 C332 1.375 . S
C331 C334 1.481 . S
C332 C331 1.375 . S
C332 C333 1.367 . S
C332 H346 0.951 . S
C333 C329 1.383 . S
C333 C332 1.367 . S
C333 H347 0.950 . S
C334 C331 1.481 . S
C334 C335 1.297 . S
C334 H348 0.950 . S
C335 C334 1.297 . S
C335 C336 1.479 . S
C335 H349 0.950 . S
C336 C335 1.479 . S
C336 C337 1.375 . S
C336 C342 1.404 . S
C337 C336 1.375 . S
C337 C338 1.369 . S
C337 H350 0.950 . S
C338 C337 1.369 . S
C338 C339 1.392 . S
C338 H351 0.951 . S
C339 C338 1.392 . S
C339 C341 1.384 . S
H340 C342 0.949 . S
C341 C339 1.384 . S
C341 C342 1.385 . S
C341 H343 0.950 . S
C342 C336 1.404 . S
C342 H340 0.949 . S
C342 C341 1.385 . S
H343 C341 0.950 . S
H344 C328 0.951 . S
H345 C330 0.951 . S
H346 C332 0.951 . S
H347 C333 0.950 . S
H348 C334 0.950 . S
H349 C335 0.950 . S
H350 C337 0.950 . S
H351 C338 0.951 . S
C352 C353 1.386 . S
C352 C354 1.383 . S
C352 H368 0.951 . S
C353 C352 1.386 . S
C353 C357 1.383 . S
C354 C352 1.383 . S
C354 C355 1.402 . S
C354 H369 0.951 . S
C355 C354 1.402 . S
C355 C356 1.375 . S
C355 C358 1.481 . S
C356 C355 1.375 . S
C356 C357 1.367 . S
C356 H370 0.951 . S
C357 C353 1.383 . S
C357 C356 1.367 . S
C357 H371 0.950 . S
C358 C355 1.481 . S
C358 C359 1.297 . S
C358 H372 0.950 . S
C359 C358 1.297 . S
C359 C360 1.479 . S
C359 H373 0.950 . S
C360 C359 1.479 . S
C360 C361 1.375 . S
C360 C366 1.404 . S
C361 C360 1.375 . S
C361 C362 1.369 . S
C361 H374 0.950 . S
C362 C361 1.369 . S
C362 C363 1.403 . S
C362 H375 0.951 . S
C363 C362 1.403 . S
C363 C365 1.380 1_655 S
H364 C366 0.949 1_455 S
C365 C363 1.380 1_455 S
C365 C366 1.385 1_455 S
C365 H367 0.950 . S
C366 C360 1.404 . S
C366 H364 0.949 1_655 S
C366 C365 1.385 1_655 S
H367 C365 0.950 . S
H368 C352 0.951 . S
H369 C354 0.951 . S
H370 C356 0.951 . S
H371 C357 0.950 . S
H372 C358 0.950 . S
H373 C359 0.950 . S
H374 C361 0.950 . S
H375 C362 0.951 . S
C376 C377 1.386 . S
C376 C378 1.383 . S
C376 H392 0.951 . S
C377 C376 1.386 . S
C377 C381 1.383 . S
C378 C376 1.383 . S
C378 C379 1.402 . S
C378 H393 0.951 . S
C379 C378 1.402 . S
C379 C380 1.375 . S
C379 C382 1.481 . S
C380 C379 1.375 . S
C380 C381 1.367 . S
C380 H394 0.951 . S
C381 C377 1.383 . S
C381 C380 1.367 . S
C381 H395 0.950 . S
C382 C379 1.481 . S
C382 C383 1.297 . S
C382 H396 0.950 . S
C383 C382 1.297 . S
C383 C384 1.479 . S
C383 H397 0.950 . S
C384 C383 1.479 . S
C384 C385 1.375 . S
C384 C390 1.404 . S
C385 C384 1.375 . S
C385 C386 1.369 . S
C385 H398 0.950 . S
C386 C385 1.369 . S
C386 C387 1.397 . S
C386 H399 0.951 . S
C387 C386 1.397 . S
C387 C389 1.382 1_655 S
H388 C390 0.949 1_455 S
C389 C387 1.382 1_455 S
C389 C390 1.385 1_455 S
C389 H391 0.950 . S
C390 C384 1.404 . S
C390 H388 0.949 1_655 S
C390 C389 1.385 1_655 S
H391 C389 0.950 . S
H392 C376 0.951 . S
H393 C378 0.951 . S
H394 C380 0.951 . S
H395 C381 0.950 . S
H396 C382 0.950 . S
H397 C383 0.950 . S
H398 C385 0.950 . S
H399 C386 0.951 . S
C400 C401 1.386 . S
C400 C402 1.383 . S
C400 H416 0.951 . S
C401 C400 1.386 . S
C401 C405 1.383 1_655 S
C402 C400 1.383 . S
C402 C403 1.402 1_655 S
C402 H417 0.951 . S
C403 C402 1.402 1_455 S
C403 C404 1.375 . S
C403 C406 1.481 . S
C404 C403 1.375 . S
C404 C405 1.367 . S
C404 H418 0.951 . S
C405 C401 1.383 1_455 S
C405 C404 1.367 . S
C405 H419 0.950 . S
C406 C403 1.481 . S
C406 C407 1.297 . S
C406 H420 0.950 . S
C407 C406 1.297 . S
C407 C408 1.479 . S
C407 H421 0.950 . S
C408 C407 1.479 . S
C408 C409 1.375 . S
C408 C414 1.404 . S
C409 C408 1.375 . S
C409 C410 1.369 . S
C409 H422 0.950 . S
C410 C409 1.369 . S
C410 C411 1.392 . S
C410 H423 0.951 . S
C411 C410 1.392 . S
C411 C413 1.384 . S
H412 C414 0.949 . S
C413 C411 1.384 . S
C413 C414 1.385 . S
C413 H415 0.950 . S
C414 C408 1.404 . S
C414 H412 0.949 . S
C414 C413 1.385 . S
H415 C413 0.950 . S
H416 C400 0.951 . S
H417 C402 0.951 . S
H418 C404 0.951 . S
H419 C405 0.950 . S
H420 C406 0.950 . S
H421 C407 0.950 . S
H422 C409 0.950 . S
H423 C410 0.951 . S
C424 C425 1.386 . S
C424 C426 1.383 . S
C424 H440 0.951 . S
C425 C424 1.386 . S
C425 C429 1.383 . S
C426 C424 1.383 . S
C426 C427 1.402 . S
C426 H441 0.951 . S
C427 C426 1.402 . S
C427 C428 1.375 . S
C427 C430 1.481 . S
C428 C427 1.375 . S
C428 C429 1.367 . S
C428 H442 0.951 . S
C429 C425 1.383 . S
C429 C428 1.367 . S
C429 H443 0.950 . S
C430 C427 1.481 . S
C430 C431 1.297 . S
C430 H444 0.950 . S
C431 C430 1.297 . S
C431 C432 1.479 . S
C431 H445 0.950 . S
C432 C431 1.479 . S
C432 C433 1.375 . S
C432 C438 1.404 . S
C433 C432 1.375 . S
C433 C434 1.369 1_455 S
C433 H446 0.950 . S
C434 C433 1.369 1_655 S
C434 C435 1.392 1_655 S
C434 H447 0.951 . S
C435 C434 1.392 1_455 S
C435 C437 1.384 . S
H436 C438 0.949 . S
C437 C435 1.384 . S
C437 C438 1.385 . S
C437 H439 0.950 . S
C438 C432 1.404 . S
C438 H436 0.949 . S
C438 C437 1.385 . S
H439 C437 0.950 . S
H440 C424 0.951 . S
H441 C426 0.951 . S
H442 C428 0.951 . S
H443 C429 0.950 . S
H444 C430 0.950 . S
H445 C431 0.950 . S
H446 C433 0.950 . S
H447 C434 0.951 . S
C161 C55 1.491 . S
C171 C2 1.499 1_556 S
C185 C82 1.514 . S
C195 C135 1.470 . S
C209 C15 1.493 . S
C219 C42 1.494 1_556 S
C233 C122 1.517 . S
C243 C95 1.498 . S
C257 C129 1.256 . S
C267 C22 1.245 . S
C281 C49 1.261 . S
C291 C102 1.261 . S
C305 C43 1.253 . S
C315 C106 1.244 . S
C329 C123 1.259 . S
C339 C26 1.251 . S
C353 C62 1.258 . S
C363 C89 1.250 1_655 S
C377 C142 1.259 . S
C387 C9 1.254 1_655 S
C401 C146 1.251 . S
C411 C3 1.253 . S
C425 C83 1.248 . S
C435 C66 1.254 1_455 S
