# Generated by pormake.
# Topology crr, (4)-cn, num edge types: 1
# Building blocks:
#     Node 0, Type 0, BuildingBlock: NAWXER_clean_sbu_0, # of connection points: 4
#     Node 1, Type 0, BuildingBlock: NAWXER_clean_sbu_0, # of connection points: 4
#     Node 2, Type 0, BuildingBlock: NAWXER_clean_sbu_0, # of connection points: 4
#     Node 3, Type 0, BuildingBlock: NAWXER_clean_sbu_0, # of connection points: 4
#     Node 4, Type 0, BuildingBlock: NAWXER_clean_sbu_0, # of connection points: 4
#     Node 5, Type 0, BuildingBlock: NAWXER_clean_sbu_0, # of connection points: 4
#     Node 6, Type 0, BuildingBlock: NAWXER_clean_sbu_0, # of connection points: 4
#     Node 7, Type 0, BuildingBlock: NAWXER_clean_sbu_0, # of connection points: 4
#     Node 8, Type 0, BuildingBlock: NAWXER_clean_sbu_0, # of connection points: 4
#     Node 9, Type 0, BuildingBlock: NAWXER_clean_sbu_0, # of connection points: 4
#     Node 10, Type 0, BuildingBlock: NAWXER_clean_sbu_0, # of connection points: 4
#     Node 11, Type 0, BuildingBlock: NAWXER_clean_sbu_0, # of connection points: 4
#     Edge 12, Type (0, 0), BuildingBlock: KIFKEQ_clean_linker_1, # of connection points: 2
#     Edge 13, Type (0, 0), BuildingBlock: KIFKEQ_clean_linker_1, # of connection points: 2
#     Edge 14, Type (0, 0), BuildingBlock: KIFKEQ_clean_linker_1, # of connection points: 2
#     Edge 15, Type (0, 0), BuildingBlock: KIFKEQ_clean_linker_1, # of connection points: 2
#     Edge 16, Type (0, 0), BuildingBlock: KIFKEQ_clean_linker_1, # of connection points: 2
#     Edge 17, Type (0, 0), BuildingBlock: KIFKEQ_clean_linker_1, # of connection points: 2
#     Edge 18, Type (0, 0), BuildingBlock: KIFKEQ_clean_linker_1, # of connection points: 2
#     Edge 19, Type (0, 0), BuildingBlock: KIFKEQ_clean_linker_1, # of connection points: 2
#     Edge 20, Type (0, 0), BuildingBlock: KIFKEQ_clean_linker_1, # of connection points: 2
#     Edge 21, Type (0, 0), BuildingBlock: KIFKEQ_clean_linker_1, # of connection points: 2
#     Edge 22, Type (0, 0), BuildingBlock: KIFKEQ_clean_linker_1, # of connection points: 2
#     Edge 23, Type (0, 0), BuildingBlock: KIFKEQ_clean_linker_1, # of connection points: 2
#     Edge 24, Type (0, 0), BuildingBlock: KIFKEQ_clean_linker_1, # of connection points: 2
#     Edge 25, Type (0, 0), BuildingBlock: KIFKEQ_clean_linker_1, # of connection points: 2
#     Edge 26, Type (0, 0), BuildingBlock: KIFKEQ_clean_linker_1, # of connection points: 2
#     Edge 27, Type (0, 0), BuildingBlock: KIFKEQ_clean_linker_1, # of connection points: 2
#     Edge 28, Type (0, 0), BuildingBlock: KIFKEQ_clean_linker_1, # of connection points: 2
#     Edge 29, Type (0, 0), BuildingBlock: KIFKEQ_clean_linker_1, # of connection points: 2
#     Edge 30, Type (0, 0), BuildingBlock: KIFKEQ_clean_linker_1, # of connection points: 2
#     Edge 31, Type (0, 0), BuildingBlock: KIFKEQ_clean_linker_1, # of connection points: 2
#     Edge 32, Type (0, 0), BuildingBlock: KIFKEQ_clean_linker_1, # of connection points: 2
#     Edge 33, Type (0, 0), BuildingBlock: KIFKEQ_clean_linker_1, # of connection points: 2
#     Edge 34, Type (0, 0), BuildingBlock: KIFKEQ_clean_linker_1, # of connection points: 2
#     Edge 35, Type (0, 0), BuildingBlock: KIFKEQ_clean_linker_1, # of connection points: 2
# Relax obj value: 0.065
# Max RMSD: 0.110
# Mean RMSD: 0.110
data_MOF--net-crr--node1-NAWXER_clean_sbu_0--edge1-KIFKEQ_clean_linker_1
_symmetry_space_group_name_H-M    P1
_symmetry_Int_Tables_number       1
_symmetry_cell_setting            triclinic
loop_
_symmetry_equiv_pos_as_xyz
'x, y, z'
_cell_length_a     40.738395
_cell_length_b     40.646634
_cell_length_c     40.737859
_cell_angle_alpha  89.991024
_cell_angle_beta   90.065522
_cell_angle_gamma 89.859536
loop_
_atom_site_label
_atom_site_type_symbol
_atom_site_fract_x
_atom_site_fract_y
_atom_site_fract_z
_atom_type_partial_charge
C0 C 0.02983 0.34863 0.35646 0.0
C1 C 0.12122 0.36731 0.28034 0.0
O2 O 0.05692 0.35668 0.3701 0.0
Zn3 Zn 0.10545 0.36984 0.35762 0.0
O4 O 0.02824 0.34606 0.32535 0.0
Zn5 Zn 0.07435 0.35722 0.31672 0.0
O6 O 0.10164 0.31697 0.33764 0.0
O7 O 0.13075 0.33598 0.37925 0.0
O8 O 0.09222 0.35873 0.2724 0.0
O9 O 0.12827 0.37206 0.31063 0.0
O10 O 0.10678 0.4151 0.37299 0.0
O11 O 0.07453 0.40792 0.32996 0.0
C12 C 0.12218 0.31204 0.36105 0.0
C13 C 0.08722 0.42687 0.35161 0.0
C14 C 0.38399 0.83647 0.68546 0.0
C15 C 0.3474 0.92429 0.61333 0.0
O16 O 0.37181 0.86061 0.70178 0.0
Zn17 Zn 0.35009 0.90796 0.69101 0.0
O18 O 0.38466 0.83795 0.65438 0.0
Zn19 Zn 0.36424 0.88038 0.64969 0.0
O20 O 0.40038 0.91445 0.66799 0.0
O21 O 0.37979 0.938 0.71231 0.0
O22 O 0.35833 0.89595 0.606 0.0
O23 O 0.34298 0.93201 0.6436 0.0
O24 O 0.30611 0.90428 0.70864 0.0
O25 O 0.31453 0.87293 0.66533 0.0
C26 C 0.40307 0.93493 0.69181 0.0
C27 C 0.29541 0.88351 0.68801 0.0
C28 C 0.93679 0.61915 0.35832 0.0
C29 C 0.84462 0.69111 0.382 0.0
O30 O 0.94285 0.6488 0.34927 0.0
Zn31 Zn 0.91677 0.6956 0.34983 0.0
O32 O 0.90871 0.61206 0.36978 0.0
Zn33 Zn 0.89018 0.65514 0.36768 0.0
O34 O 0.88476 0.6639 0.31595 0.0
O35 O 0.91307 0.70861 0.30433 0.0
O36 O 0.84625 0.66005 0.38439 0.0
O37 O 0.86892 0.70711 0.36991 0.0
O38 O 0.94543 0.72114 0.37729 0.0
O39 O 0.92024 0.68068 0.40322 0.0
C40 C 0.89454 0.68537 0.29507 0.0
C41 C 0.94024 0.70504 0.40351 0.0
C42 C 0.67911 0.10441 0.73402 0.0
C43 C 0.67672 0.05369 0.62508 0.0
O44 O 0.69575 0.07946 0.72509 0.0
Zn45 Zn 0.67912 0.07832 0.68017 0.0
O46 O 0.66011 0.11899 0.71358 0.0
Zn47 Zn 0.64584 0.11522 0.66332 0.0
O48 O 0.59932 0.10923 0.66627 0.0
O49 O 0.62765 0.06752 0.68669 0.0
O50 O 0.65905 0.07966 0.6274 0.0
O51 O 0.69281 0.04369 0.64996 0.0
O52 O 0.70167 0.12172 0.66031 0.0
O53 O 0.66203 0.15556 0.64512 0.0
C54 C 0.59998 0.08123 0.68012 0.0
C55 C 0.69247 0.14934 0.6481 0.0
C56 C 0.14783 0.65665 0.69324 0.0
C57 C 0.07843 0.69846 0.6051 0.0
O58 O 0.15367 0.65648 0.6626 0.0
Zn59 Zn 0.11329 0.67685 0.64834 0.0
O60 O 0.12043 0.66805 0.7037 0.0
Zn61 Zn 0.07693 0.68986 0.68403 0.0
O62 O 0.04311 0.65787 0.69531 0.0
O63 O 0.07697 0.64032 0.65685 0.0
O64 O 0.0651 0.70126 0.63354 0.0
O65 O 0.1069 0.6858 0.60253 0.0
O66 O 0.11709 0.72519 0.66779 0.0
O67 O 0.0782 0.73322 0.70483 0.0
C68 C 0.05168 0.63577 0.67491 0.0
C69 C 0.10284 0.74371 0.68881 0.0
C70 C 0.53788 0.88748 0.38513 0.0
C71 C 0.64082 0.82717 0.40545 0.0
O72 O 0.54091 0.86137 0.40214 0.0
Zn73 Zn 0.58867 0.85667 0.3982 0.0
O74 O 0.56352 0.90102 0.37305 0.0
Zn75 Zn 0.615 0.89346 0.37068 0.0
O76 O 0.62232 0.88758 0.32398 0.0
O77 O 0.59405 0.84731 0.34687 0.0
O78 O 0.64368 0.85396 0.38921 0.0
O79 O 0.61266 0.81855 0.41596 0.0
O80 O 0.60863 0.89611 0.42694 0.0
O81 O 0.63344 0.93077 0.39351 0.0
C82 C 0.60729 0.86026 0.32147 0.0
C83 C 0.62533 0.92246 0.42248 0.0
C84 C 0.81839 0.42377 0.63943 0.0
C85 C 0.87966 0.39215 0.54112 0.0
O86 O 0.81106 0.43135 0.61 0.0
Zn87 Zn 0.84936 0.41072 0.58971 0.0
O88 O 0.84442 0.4071 0.64537 0.0
Zn89 Zn 0.88383 0.38441 0.6196 0.0
O90 O 0.92145 0.40712 0.63731 0.0
O91 O 0.88951 0.43963 0.60779 0.0
O92 O 0.89219 0.3811 0.56784 0.0
O93 O 0.85515 0.41154 0.54226 0.0
O94 O 0.83831 0.35989 0.59875 0.0
O95 O 0.87662 0.33881 0.631 0.0
C96 C 0.91504 0.43547 0.62581 0.0
C97 C 0.85013 0.33542 0.61478 0.0
C98 C 0.33906 0.01759 0.33668 0.0
C99 C 0.26363 0.10991 0.35557 0.0
O100 O 0.35287 0.04363 0.34759 0.0
Zn101 Zn 0.34023 0.09225 0.36212 0.0
O102 O 0.3084 0.01748 0.33063 0.0
Zn103 Zn 0.30008 0.06304 0.34384 0.0
O104 O 0.32473 0.09188 0.30736 0.0
O105 O 0.36428 0.1197 0.33182 0.0
O106 O 0.2559 0.08205 0.3436 0.0
O107 O 0.29362 0.11569 0.363 0.0
O108 O 0.35171 0.09072 0.40855 0.0
O109 O 0.30982 0.05908 0.39514 0.0
C110 C 0.34841 0.11257 0.30588 0.0
C111 C 0.32973 0.07011 0.41685 0.0
C112 C 0.34079 0.35338 0.03371 0.0
C113 C 0.35657 0.26264 0.11185 0.0
O114 O 0.35423 0.36155 0.06092 0.0
Zn115 Zn 0.36997 0.3402 0.10579 0.0
O116 O 0.33197 0.32369 0.02907 0.0
Zn117 Zn 0.34645 0.30686 0.0719 0.0
O118 O 0.31419 0.33023 0.10596 0.0
O119 O 0.34319 0.36303 0.13787 0.0
O120 O 0.34181 0.26069 0.08435 0.0
O121 O 0.36774 0.29037 0.12165 0.0
O122 O 0.41702 0.34763 0.10302 0.0
O123 O 0.39824 0.31216 0.06652 0.0
C124 C 0.31563 0.35078 0.12977 0.0
C125 C 0.42221 0.32823 0.07902 0.0
C126 C 0.33391 0.6166 0.84995 0.0
C127 C 0.43427 0.6301 0.91387 0.0
O128 O 0.3376 0.6339 0.87572 0.0
Zn129 Zn 0.38274 0.62166 0.88394 0.0
O130 O 0.35787 0.5991 0.83933 0.0
Zn131 Zn 0.40816 0.58897 0.85158 0.0
O132 O 0.40753 0.54185 0.86122 0.0
O133 O 0.37826 0.57097 0.89626 0.0
O134 O 0.43809 0.61041 0.88952 0.0
O135 O 0.40583 0.64128 0.92027 0.0
O136 O 0.40613 0.6441 0.84279 0.0
O137 O 0.42899 0.6057 0.81177 0.0
C138 C 0.38842 0.543 0.88586 0.0
C139 C 0.42245 0.63586 0.81723 0.0
C140 C 0.64685 0.69253 0.14658 0.0
C141 C 0.68183 0.5977 0.08158 0.0
O142 O 0.64183 0.66233 0.15307 0.0
Zn143 Zn 0.66346 0.64411 0.11502 0.0
O144 O 0.66258 0.7004 0.12051 0.0
Zn145 Zn 0.68623 0.67681 0.07999 0.0
O146 O 0.66025 0.69195 0.0424 0.0
O147 O 0.63259 0.6598 0.07614 0.0
O148 O 0.69048 0.62547 0.06947 0.0
O149 O 0.66553 0.59695 0.10819 0.0
O150 O 0.71315 0.65567 0.12444 0.0
O151 O 0.7322 0.68976 0.08688 0.0
C152 C 0.63366 0.6775 0.05018 0.0
C153 C 0.73674 0.67279 0.11279 0.0
C154 C 0.68435 0.2925 0.8834 0.0
C155 C 0.69636 0.39803 0.93882 0.0
O156 O 0.6632 0.31388 0.87385 0.0
Zn157 Zn 0.65092 0.36417 0.88377 0.0
O158 O 0.70555 0.30047 0.90483 0.0
Zn159 Zn 0.6912 0.34563 0.91073 0.0
O160 O 0.64392 0.34084 0.93438 0.0
O161 O 0.60705 0.36102 0.90006 0.0
O162 O 0.71394 0.37242 0.94258 0.0
O163 O 0.67293 0.39802 0.91776 0.0
O164 O 0.6566 0.38551 0.84221 0.0
O165 O 0.70323 0.36867 0.8642 0.0
C166 C 0.61398 0.34793 0.92751 0.0
C167 C 0.6876 0.38281 0.84063 0.0
H168 H 0.16145 0.29004 0.41116 0.0
H169 H 0.11767 0.25958 0.31945 0.0
H170 H 0.19116 0.23798 0.41412 0.0
H171 H 0.14824 0.2082 0.32174 0.0
H172 H 0.19733 0.10979 0.34117 0.0
H173 H 0.15873 0.15577 0.34704 0.0
H174 H 0.23689 0.21621 0.38569 0.0
H175 H 0.27465 0.17066 0.38087 0.0
C176 C 0.15801 0.27217 0.39174 0.0
C177 C 0.13749 0.27916 0.3649 0.0
C178 C 0.17516 0.24236 0.39332 0.0
C179 C 0.17251 0.219 0.36791 0.0
C180 C 0.15072 0.22538 0.3419 0.0
C181 C 0.13333 0.25504 0.34048 0.0
C182 C 0.20605 0.13282 0.35125 0.0
C183 C 0.23911 0.1365 0.3604 0.0
C184 C 0.18401 0.15921 0.3545 0.0
C185 C 0.19463 0.18976 0.36695 0.0
C186 C 0.22754 0.193 0.37666 0.0
C187 C 0.24938 0.16679 0.37354 0.0
H188 H 0.26263 0.84878 0.64153 0.0
H189 H 0.2513 0.88949 0.73885 0.0
H190 H 0.20868 0.82425 0.64526 0.0
H191 H 0.19648 0.86483 0.74252 0.0
H192 H 0.13258 0.7649 0.74459 0.0
H193 H 0.17515 0.80727 0.74649 0.0
H194 H 0.15025 0.83633 0.64751 0.0
H195 H 0.10872 0.79325 0.64545 0.0
C196 C 0.24843 0.85283 0.66364 0.0
C197 C 0.26138 0.87092 0.68997 0.0
C198 C 0.21723 0.83904 0.66565 0.0
C199 C 0.19807 0.84284 0.6941 0.0
C200 C 0.21066 0.8615 0.72029 0.0
C201 C 0.24198 0.87564 0.71815 0.0
C202 C 0.13521 0.78149 0.72394 0.0
C203 C 0.11748 0.77607 0.69492 0.0
C204 C 0.15969 0.80565 0.72491 0.0
C205 C 0.16658 0.82462 0.69684 0.0
C206 C 0.14601 0.82162 0.66926 0.0
C207 C 0.12195 0.79729 0.66819 0.0
H208 H 0.7029 0.84339 0.38866 0.0
H209 H 0.64639 0.76405 0.43076 0.0
H210 H 0.75106 0.80928 0.38824 0.0
H211 H 0.69603 0.72962 0.43179 0.0
H212 H 0.78131 0.6688 0.38308 0.0
H213 H 0.73176 0.70067 0.39497 0.0
H214 H 0.79195 0.78476 0.41925 0.0
H215 H 0.84096 0.75351 0.40536 0.0
C216 C 0.70082 0.8187 0.39846 0.0
C217 C 0.67056 0.80644 0.40956 0.0
C218 C 0.72881 0.79911 0.39855 0.0
C219 C 0.72775 0.76661 0.4102 0.0
C220 C 0.69771 0.75445 0.42235 0.0
C221 C 0.66932 0.77422 0.42203 0.0
C222 C 0.7838 0.69406 0.39118 0.0
C223 C 0.81486 0.70895 0.39266 0.0
C224 C 0.75543 0.71227 0.39827 0.0
C225 C 0.75768 0.74555 0.40755 0.0
C226 C 0.78908 0.75955 0.41116 0.0
C227 C 0.81726 0.74164 0.40333 0.0
H228 H 0.80172 0.31661 0.57299 0.0
H229 H 0.85575 0.2844 0.65854 0.0
H230 H 0.76573 0.26928 0.57776 0.0
H231 H 0.81903 0.23723 0.66384 0.0
H232 H 0.75929 0.14349 0.65107 0.0
H233 H 0.80013 0.18575 0.63977 0.0
H234 H 0.72255 0.25415 0.6151 0.0
H235 H 0.68184 0.2118 0.62563 0.0
C236 C 0.80604 0.29927 0.59274 0.0
C237 C 0.83136 0.3044 0.61562 0.0
C238 C 0.78527 0.27223 0.59556 0.0
C239 C 0.78916 0.24978 0.62147 0.0
C240 C 0.81549 0.254 0.64348 0.0
C241 C 0.83648 0.28104 0.64051 0.0
C242 C 0.75097 0.16747 0.64293 0.0
C243 C 0.71728 0.1743 0.63926 0.0
C244 C 0.77438 0.19172 0.63666 0.0
C245 C 0.76462 0.22331 0.62656 0.0
C246 C 0.73096 0.22992 0.62234 0.0
C247 C 0.70757 0.20568 0.62856 0.0
H248 H 0.40801 0.24836 0.15136 0.0
H249 H 0.31222 0.2134 0.12303 0.0
H250 H 0.41051 0.20751 0.19492 0.0
H251 H 0.31361 0.17352 0.16791 0.0
H252 H 0.32856 0.09494 0.24424 0.0
H253 H 0.33452 0.12613 0.19351 0.0
H254 H 0.38732 0.20151 0.24658 0.0
H255 H 0.38263 0.16955 0.29671 0.0
C256 C 0.38757 0.23161 0.15435 0.0
C257 C 0.35985 0.23408 0.13399 0.0
C258 C 0.38881 0.2084 0.17956 0.0
C259 C 0.36197 0.18756 0.18562 0.0
C260 C 0.33491 0.18889 0.16399 0.0
C261 C 0.334 0.21176 0.13822 0.0
C262 C 0.34187 0.11796 0.2449 0.0
C263 C 0.35508 0.12981 0.27454 0.0
C264 C 0.34508 0.13601 0.21582 0.0
C265 C 0.36123 0.16656 0.21573 0.0
C266 C 0.37523 0.17786 0.24532 0.0
C267 C 0.37241 0.15959 0.27426 0.0
H268 H 0.31668 0.57737 0.79865 0.0
H269 H 0.28222 0.65946 0.85671 0.0
H270 H 0.26981 0.58344 0.76216 0.0
H271 H 0.23547 0.66592 0.81965 0.0
H272 H 0.14221 0.6538 0.75993 0.0
H273 H 0.18484 0.64068 0.79981 0.0
H274 H 0.25337 0.62329 0.72079 0.0
H275 H 0.21058 0.63582 0.68082 0.0
C276 C 0.29896 0.59661 0.80378 0.0
C277 C 0.30331 0.61813 0.83045 0.0
C278 C 0.2722 0.60018 0.78271 0.0
C279 C 0.24915 0.62539 0.78775 0.0
C280 C 0.2527 0.64608 0.81523 0.0
C281 C 0.27951 0.64245 0.83643 0.0
C282 C 0.16629 0.64686 0.75101 0.0
C283 C 0.17304 0.64595 0.71715 0.0
C284 C 0.19076 0.63955 0.77392 0.0
C285 C 0.22251 0.63111 0.7635 0.0
C286 C 0.22903 0.62933 0.72962 0.0
C287 C 0.20455 0.63665 0.70669 0.0
H288 H 0.64892 0.75884 0.13647 0.0
H289 H 0.62084 0.68577 0.20817 0.0
H290 H 0.63497 0.80243 0.175 0.0
H291 H 0.60766 0.72939 0.24702 0.0
H292 H 0.65063 0.86442 0.27025 0.0
H293 H 0.65674 0.82512 0.22529 0.0
H294 H 0.57017 0.77364 0.25843 0.0
H295 H 0.56468 0.81227 0.30369 0.0
C296 C 0.63966 0.75205 0.16044 0.0
C297 C 0.63611 0.71879 0.16932 0.0
C298 C 0.63182 0.77709 0.18256 0.0
C299 C 0.62031 0.76946 0.21412 0.0
C300 C 0.61601 0.73618 0.22272 0.0
C301 C 0.62373 0.71112 0.20053 0.0
C302 C 0.63254 0.84513 0.26744 0.0
C303 C 0.60743 0.84117 0.29065 0.0
C304 C 0.636 0.82258 0.2417 0.0
C305 C 0.61424 0.79587 0.23862 0.0
C306 C 0.58784 0.7934 0.26059 0.0
C307 C 0.58455 0.8157 0.28637 0.0
H308 H 0.66304 0.41735 0.78813 0.0
H309 H 0.7528 0.376 0.82711 0.0
H310 H 0.69265 0.43589 0.73943 0.0
H311 H 0.78201 0.39354 0.77834 0.0
H312 H 0.83578 0.44306 0.70036 0.0
H313 H 0.8024 0.44 0.74979 0.0
H314 H 0.7182 0.41333 0.69092 0.0
H315 H 0.75161 0.41794 0.64124 0.0
C316 C 0.68908 0.41227 0.78636 0.0
C317 C 0.70556 0.39517 0.81153 0.0
C318 C 0.70602 0.4228 0.75837 0.0
C319 C 0.73978 0.41643 0.75495 0.0
C320 C 0.7562 0.39961 0.78037 0.0
C321 C 0.73936 0.38924 0.80831 0.0
C322 C 0.80985 0.43761 0.69798 0.0
C323 C 0.79622 0.43062 0.66712 0.0
C324 C 0.7908 0.43544 0.7263 0.0
C325 C 0.75782 0.42549 0.72448 0.0
C326 C 0.74349 0.4211 0.69327 0.0
C327 C 0.76255 0.42383 0.66476 0.0
H328 H 0.41301 0.7815 0.65897 0.0
H329 H 0.38283 0.82435 0.75124 0.0
H330 H 0.43143 0.73207 0.68788 0.0
H331 H 0.4003 0.77501 0.77981 0.0
H332 H 0.44894 0.69494 0.8309 0.0
H333 H 0.44691 0.74381 0.79636 0.0
H334 H 0.40796 0.68546 0.71667 0.0
H335 H 0.41151 0.63622 0.75114 0.0
C336 C 0.4104 0.78044 0.68541 0.0
C337 C 0.3964 0.8069 0.7028 0.0
C338 C 0.42087 0.75206 0.70194 0.0
C339 C 0.41761 0.74956 0.7362 0.0
C340 C 0.40396 0.77626 0.75351 0.0
C341 C 0.39361 0.80455 0.73706 0.0
C342 C 0.44114 0.69244 0.80558 0.0
C343 C 0.43037 0.66198 0.79358 0.0
C344 C 0.43954 0.72047 0.78591 0.0
C345 C 0.42638 0.71878 0.75404 0.0
C346 C 0.41827 0.68768 0.74108 0.0
C347 C 0.42041 0.65942 0.76072 0.0
H348 H 0.78716 0.71834 0.1111 0.0
H349 H 0.75692 0.62737 0.15663 0.0
H350 H 0.83427 0.72096 0.14873 0.0
H351 H 0.80209 0.63054 0.19441 0.0
H352 H 0.88637 0.63099 0.25752 0.0
H353 H 0.85749 0.6271 0.20531 0.0
H354 H 0.84327 0.73261 0.20539 0.0
H355 H 0.87447 0.73643 0.25649 0.0
C356 C 0.79086 0.6987 0.1287 0.0
C357 C 0.76813 0.67288 0.13114 0.0
C358 C 0.81764 0.70031 0.15045 0.0
C359 C 0.82211 0.67603 0.17484 0.0
C360 C 0.80015 0.64944 0.17579 0.0
C361 C 0.77376 0.64782 0.15422 0.0
C362 C 0.87774 0.65337 0.24585 0.0
C363 C 0.88216 0.68392 0.26111 0.0
C364 C 0.86098 0.65121 0.21605 0.0
C365 C 0.84707 0.67944 0.20147 0.0
C366 C 0.85364 0.71033 0.21568 0.0
C367 C 0.87134 0.71255 0.2451 0.0
H368 H 0.63073 0.11677 0.77728 0.0
H369 H 0.73493 0.12731 0.76263 0.0
H370 H 0.63269 0.15659 0.82198 0.0
H371 H 0.73692 0.16854 0.80641 0.0
H372 H 0.7296 0.24245 0.89065 0.0
H373 H 0.72959 0.18886 0.86294 0.0
H374 H 0.63852 0.21466 0.81479 0.0
H375 H 0.63821 0.26718 0.84254 0.0
C376 C 0.65426 0.12687 0.78449 0.0
C377 C 0.68267 0.1191 0.76674 0.0
C378 C 0.65538 0.14996 0.80978 0.0
C379 C 0.68479 0.16647 0.81713 0.0
C380 C 0.71387 0.15628 0.80143 0.0
C381 C 0.71282 0.13261 0.77643 0.0
C382 C 0.70941 0.23637 0.87445 0.0
C383 C 0.68398 0.25916 0.8687 0.0
C384 C 0.70947 0.20575 0.85853 0.0
C385 C 0.68393 0.19729 0.83685 0.0
C386 C 0.65822 0.2199 0.83186 0.0
C387 C 0.65823 0.25032 0.84756 0.0
H388 H 0.30641 0.39826 0.17682 0.0
H389 H 0.25631 0.32035 0.12505 0.0
H390 H 0.25739 0.40768 0.20993 0.0
H391 H 0.20804 0.32874 0.15884 0.0
H392 H 0.11725 0.36073 0.21308 0.0
H393 H 0.1626 0.36216 0.17378 0.0
H394 H 0.23055 0.38052 0.25326 0.0
H395 H 0.1856 0.38036 0.29187 0.0
C396 C 0.28494 0.38321 0.17246 0.0
C397 C 0.2854 0.35841 0.14849 0.0
C398 C 0.25685 0.38847 0.19153 0.0
C399 C 0.22873 0.36877 0.18733 0.0
C400 C 0.22894 0.34472 0.16256 0.0
C401 C 0.25684 0.33972 0.1433 0.0
C402 C 0.14185 0.36548 0.22199 0.0
C403 C 0.14774 0.37027 0.25563 0.0
C404 C 0.16789 0.36613 0.19953 0.0
C405 C 0.20037 0.37138 0.21029 0.0
C406 C 0.20594 0.37701 0.24385 0.0
C407 C 0.18003 0.3766 0.26613 0.0
H408 H 0.9065 0.33275 0.52821 0.0
H409 H 0.88386 0.42602 0.48282 0.0
H410 H 0.93507 0.31518 0.47889 0.0
H411 H 0.91415 0.40913 0.43361 0.0
H412 H 0.96599 0.36751 0.34439 0.0
H413 H 0.92249 0.37369 0.38577 0.0
H414 H 0.9868 0.3305 0.45858 0.0
H415 H 0.02911 0.32385 0.41758 0.0
C416 C 0.90763 0.3495 0.50754 0.0
C417 C 0.89357 0.38099 0.50953 0.0
C418 C 0.92405 0.33946 0.47925 0.0
C419 C 0.92759 0.36096 0.45246 0.0
C420 C 0.91178 0.39183 0.45368 0.0
C421 C 0.89466 0.40166 0.48193 0.0
C422 C 0.97015 0.35832 0.36901 0.0
C423 C 0.00084 0.34519 0.37786 0.0
C424 C 0.94549 0.36227 0.3928 0.0
C425 C 0.95112 0.35279 0.42563 0.0
C426 C 0.98119 0.33769 0.4336 0.0
C427 C 0.00563 0.33396 0.41006 0.0
H428 H 0.28271 0.02983 0.44136 0.0
H429 H 0.37403 0.07711 0.46764 0.0
H430 H 0.28483 0.99764 0.49151 0.0
H431 H 0.37573 0.0447 0.51853 0.0
H432 H 0.34709 0.99144 0.61845 0.0
H433 H 0.34086 0.03157 0.57377 0.0
H434 H 0.32849 0.95204 0.5047 0.0
H435 H 0.33519 0.91211 0.54889 0.0
C436 C 0.303 0.03383 0.45809 0.0
C437 C 0.32852 0.05571 0.45021 0.0
C438 C 0.30414 0.0153 0.48681 0.0
C439 C 0.33062 0.01842 0.50854 0.0
C440 C 0.35502 0.04194 0.50206 0.0
C441 C 0.35405 0.06043 0.47298 0.0
C442 C 0.34274 0.98262 0.59374 0.0
C443 C 0.34148 0.94867 0.58711 0.0
C444 C 0.33944 0.00554 0.56825 0.0
C445 C 0.3341 0.99481 0.53595 0.0
C446 C 0.33231 0.96092 0.52949 0.0
C447 C 0.33622 0.93809 0.55475 0.0
H448 H 0.01608 0.72293 0.60251 0.0
H449 H 0.09773 0.69489 0.54074 0.0
H450 H 0.98226 0.73172 0.55398 0.0
H451 H 0.06362 0.70356 0.49214 0.0
H452 H 0.92563 0.68559 0.4656 0.0
H453 H 0.95965 0.69079 0.51441 0.0
H454 H 0.03148 0.74536 0.45881 0.0
H455 H 0.99726 0.74012 0.40962 0.0
C456 C 0.02698 0.71904 0.57859 0.0
C457 C 0.0595 0.70778 0.57551 0.0
C458 C 0.00755 0.72403 0.55081 0.0
C459 C 0.02023 0.71805 0.51934 0.0
C460 C 0.05328 0.70858 0.51611 0.0
C461 C 0.07273 0.70342 0.54395 0.0
C462 C 0.94843 0.69914 0.46385 0.0
C463 C 0.95886 0.71229 0.43375 0.0
C464 C 0.96783 0.70229 0.49187 0.0
C465 C 0.99825 0.71842 0.49036 0.0
C466 C 0.00822 0.73262 0.46056 0.0
C467 C 0.98855 0.7298 0.43251 0.0
H468 H 0.65698 0.07573 0.56526 0.0
H469 H 0.69441 0.98926 0.61449 0.0
H470 H 0.64836 0.04386 0.51555 0.0
H471 H 0.68597 0.9572 0.56425 0.0
H472 H 0.61815 0.9069 0.48721 0.0
H473 H 0.63598 0.93826 0.53484 0.0
H474 H 0.67566 0.01306 0.47101 0.0
H475 H 0.65755 0.98173 0.42308 0.0
C476 C 0.66384 0.04997 0.56532 0.0
C477 C 0.67613 0.03494 0.59393 0.0
C478 C 0.65908 0.03175 0.5367 0.0
C479 C 0.66627 0.99797 0.536 0.0
C480 C 0.67985 0.98315 0.56418 0.0
C481 C 0.68492 0.00152 0.59285 0.0
C482 C 0.63068 0.93003 0.48323 0.0
C483 C 0.63618 0.94193 0.45128 0.0
C484 C 0.64123 0.94782 0.51059 0.0
C485 C 0.65739 0.97805 0.50672 0.0
C486 C 0.66311 0.98991 0.47478 0.0
C487 C 0.65274 0.97197 0.44734 0.0
H488 H 0.38582 0.00234 0.29223 0.0
H489 H 0.33956 0.96794 0.3808 0.0
H490 H 0.43155 0.9645 0.30135 0.0
H491 H 0.38595 0.93098 0.39103 0.0
H492 H 0.47604 0.86122 0.39495 0.0
H493 H 0.42326 0.8852 0.37792 0.0
H494 H 0.47416 0.97071 0.34112 0.0
H495 H 0.52605 0.94691 0.35732 0.0
C496 C 0.38489 0.98563 0.31294 0.0
C497 C 0.35908 0.98755 0.33552 0.0
C498 C 0.41131 0.96437 0.31856 0.0
C499 C 0.41288 0.94531 0.34743 0.0
C500 C 0.38556 0.94517 0.36853 0.0
C501 C 0.35886 0.96617 0.36259 0.0
C502 C 0.47578 0.88517 0.38329 0.0
C503 C 0.50531 0.90204 0.37738 0.0
C504 C 0.4456 0.89885 0.37344 0.0
C505 C 0.44446 0.92958 0.35745 0.0
C506 C 0.47403 0.94654 0.35232 0.0
C507 C 0.50392 0.93297 0.36202 0.0
H508 H 0.00699 0.60704 0.71679 0.0
H509 H 0.05174 0.59652 0.6212 0.0
H510 H 0.97422 0.55729 0.70638 0.0
H511 H 0.0188 0.54777 0.61085 0.0
H512 H 0.92064 0.49265 0.59165 0.0
H513 H 0.95364 0.54076 0.60555 0.0
H514 H 0.98858 0.49184 0.69289 0.0
H515 H 0.95598 0.44312 0.67868 0.0
C516 C 0.00983 0.59417 0.69369 0.0
C517 C 0.03196 0.60566 0.66986 0.0
C518 C 0.99126 0.56573 0.68782 0.0
C519 C 0.99405 0.54891 0.65779 0.0
C520 C 0.01614 0.56041 0.63411 0.0
C521 C 0.03506 0.58826 0.64017 0.0
C522 C 0.93542 0.49206 0.61377 0.0
C523 C 0.9359 0.46404 0.63396 0.0
C524 C 0.95425 0.51958 0.6217 0.0
C525 C 0.97345 0.51993 0.65032 0.0
C526 C 0.97374 0.49215 0.67081 0.0
C527 C 0.95537 0.46426 0.66251 0.0
H528 H 0.54049 0.09024 0.65073 0.0
H529 H 0.59027 0.03137 0.72389 0.0
H530 H 0.49166 0.05583 0.65649 0.0
H531 H 0.54101 0.99746 0.73004 0.0
H532 H 0.42769 0.96811 0.74509 0.0
H533 H 0.47454 0.00617 0.74576 0.0
H534 H 0.48897 0.98993 0.64211 0.0
H535 H 0.4431 0.95156 0.64143 0.0
C536 C 0.54077 0.07041 0.6685 0.0
C537 C 0.56923 0.0633 0.68668 0.0
C538 C 0.51292 0.05074 0.67169 0.0
C539 C 0.51282 0.0241 0.69362 0.0
C540 C 0.54058 0.01801 0.7131 0.0
C541 C 0.5687 0.03728 0.70943 0.0
C542 C 0.44106 0.97257 0.72256 0.0
C543 C 0.43191 0.95677 0.69326 0.0
C544 C 0.46772 0.99426 0.72297 0.0
C545 C 0.48494 0.00103 0.69392 0.0
C546 C 0.47578 0.98527 0.66472 0.0
C547 C 0.44973 0.96313 0.66445 0.0
H548 H 0.93888 0.5616 0.39243 0.0
H549 H 0.99406 0.61986 0.3231 0.0
H550 H 0.9823 0.52022 0.3925 0.0
H551 H 0.03744 0.5779 0.32287 0.0
H552 H 0.06958 0.46586 0.30058 0.0
H553 H 0.0376 0.51665 0.30329 0.0
H554 H 0.04409 0.51495 0.40905 0.0
H555 H 0.07668 0.46421 0.40631 0.0
C556 C 0.96025 0.56554 0.37714 0.0
C557 C 0.96295 0.59387 0.35756 0.0
C558 C 0.98528 0.54204 0.37752 0.0
C559 C 0.01333 0.54609 0.35796 0.0
C560 C 0.01609 0.57433 0.33828 0.0
C561 C 0.99126 0.59822 0.33835 0.0
C562 C 0.06505 0.47692 0.32435 0.0
C563 C 0.07546 0.46114 0.35325 0.0
C564 C 0.04681 0.50599 0.32588 0.0
C565 C 0.03813 0.51945 0.35638 0.0
C566 C 0.05033 0.50486 0.38524 0.0
C567 C 0.06918 0.47606 0.38368 0.0
H568 H 0.34626 0.34575 0.96673 0.0
H569 H 0.33227 0.41848 0.04264 0.0
H570 H 0.35386 0.39002 0.92625 0.0
H571 H 0.34021 0.46213 0.00301 0.0
H572 H 0.33541 0.53713 0.92559 0.0
H573 H 0.31735 0.48928 0.95616 0.0
H574 H 0.39681 0.43219 0.91492 0.0
H575 H 0.41443 0.48032 0.88319 0.0
C576 C 0.34394 0.37112 0.97455 0.0
C577 C 0.3386 0.37872 0.00778 0.0
C578 C 0.34873 0.39643 0.95154 0.0
C579 C 0.34777 0.42965 0.96138 0.0
C580 C 0.34071 0.43694 0.99435 0.0
C581 C 0.33625 0.41186 0.01718 0.0
C582 C 0.34901 0.51436 0.92281 0.0
C583 C 0.37677 0.51271 0.90242 0.0
C584 C 0.3386 0.48687 0.94037 0.0
C585 C 0.35589 0.45698 0.93842 0.0
C586 C 0.38281 0.45479 0.91684 0.0
C587 C 0.39308 0.4824 0.89887 0.0
H588 H 0.49874 0.61485 0.90308 0.0
H589 H 0.43548 0.67042 0.96779 0.0
H590 H 0.54647 0.63268 0.93439 0.0
H591 H 0.48339 0.68857 0.99887 0.0
H592 H 0.57087 0.6689 0.06977 0.0
H593 H 0.52255 0.66164 0.03567 0.0
H594 H 0.58042 0.68134 0.9491 0.0
H595 H 0.62937 0.68838 0.98362 0.0
C596 C 0.49499 0.63095 0.92393 0.0
C597 C 0.4632 0.64091 0.93313 0.0
C598 C 0.52243 0.64149 0.94163 0.0
C599 C 0.51876 0.66214 0.96904 0.0
C600 C 0.48702 0.67247 0.97799 0.0
C601 C 0.45956 0.66203 0.9602 0.0
C602 C 0.57326 0.67222 0.04349 0.0
C603 C 0.60397 0.67896 0.02932 0.0
C604 C 0.54546 0.66824 0.02394 0.0
C605 C 0.54765 0.67068 0.98965 0.0
C606 C 0.57807 0.67895 0.97547 0.0
C607 C 0.606 0.68329 0.99519 0.0
H608 H 0.72292 0.40081 0.0006 0.0
H609 H 0.67887 0.46084 0.92484 0.0
H610 H 0.72368 0.44857 0.03754 0.0
H611 H 0.67994 0.5082 0.96137 0.0
H612 H 0.71363 0.59298 0.02311 0.0
H613 H 0.72242 0.54416 0.98988 0.0
H614 H 0.67714 0.48438 0.06468 0.0
H615 H 0.6681 0.53357 0.09838 0.0
C616 C 0.71399 0.4243 0.99168 0.0
C617 C 0.70086 0.42719 0.95988 0.0
C618 C 0.71417 0.45145 0.01287 0.0
C619 C 0.70186 0.48197 0.00226 0.0
C620 C 0.68984 0.48502 0.97008 0.0
C621 C 0.68915 0.45789 0.94921 0.0
C622 C 0.70576 0.56946 0.03278 0.0
C623 C 0.68976 0.56724 0.06329 0.0
C624 C 0.71083 0.54151 0.01366 0.0
C625 C 0.70026 0.51061 0.02463 0.0
C626 C 0.68568 0.50796 0.05578 0.0
C627 C 0.68034 0.5361 0.07493 0.0
H628 H 0.47713 0.36628 0.08963 0.0
H629 H 0.44023 0.28595 0.03068 0.0
H630 H 0.52634 0.36849 0.05497 0.0
H631 H 0.4888 0.28858 0.99632 0.0
H632 H 0.54818 0.34404 0.91649 0.0
H633 H 0.50478 0.33629 0.95693 0.0
H634 H 0.57708 0.33192 0.03436 0.0
H635 H 0.62084 0.33928 0.99374 0.0
C636 C 0.47978 0.34872 0.06981 0.0
C637 C 0.45455 0.32628 0.06264 0.0
C638 C 0.50788 0.35 0.05003 0.0
C639 C 0.51094 0.32903 0.02275 0.0
C640 C 0.48672 0.30534 0.01691 0.0
C641 C 0.45894 0.30385 0.0367 0.0
C642 C 0.55487 0.34126 0.94209 0.0
C643 C 0.58788 0.34211 0.95193 0.0
C644 C 0.53007 0.33671 0.96519 0.0
C645 C 0.5377 0.33341 0.99867 0.0
C646 C 0.57065 0.33447 0.00867 0.0
C647 C 0.59559 0.33846 0.98542 0.0
loop_
_geom_bond_atom_site_label_1
_geom_bond_atom_site_label_2
_geom_bond_distance
_geom_bond_site_symmetry_2
_ccdc_geom_bond_type
C0 O2 1.247 . S
C0 O4 1.258 . S
C1 O8 1.247 . S
C1 O9 1.258 . S
O2 C0 1.247 . S
O2 Zn3 2.028 . S
Zn3 O2 2.028 . S
Zn3 O7 2.035 . S
Zn3 O9 2.035 . S
Zn3 O10 2.028 . S
O4 C0 1.258 . S
O4 Zn5 2.035 . S
Zn5 O4 2.035 . S
Zn5 O6 2.028 . S
Zn5 O8 2.028 . S
Zn5 O11 2.035 . S
O6 Zn5 2.028 . S
O6 C12 1.247 . S
O7 Zn3 2.035 . S
O7 C12 1.258 . S
O8 C1 1.247 . S
O8 Zn5 2.028 . S
O9 C1 1.258 . S
O9 Zn3 2.035 . S
O10 Zn3 2.028 . S
O10 C13 1.247 . S
O11 Zn5 2.035 . S
O11 C13 1.258 . S
C12 O6 1.247 . S
C12 O7 1.258 . S
C13 O10 1.247 . S
C13 O11 1.258 . S
C14 O16 1.247 . S
C14 O18 1.258 . S
C15 O22 1.247 . S
C15 O23 1.258 . S
O16 C14 1.247 . S
O16 Zn17 2.028 . S
Zn17 O16 2.028 . S
Zn17 O21 2.035 . S
Zn17 O23 2.035 . S
Zn17 O24 2.028 . S
O18 C14 1.258 . S
O18 Zn19 2.035 . S
Zn19 O18 2.035 . S
Zn19 O20 2.028 . S
Zn19 O22 2.028 . S
Zn19 O25 2.035 . S
O20 Zn19 2.028 . S
O20 C26 1.247 . S
O21 Zn17 2.035 . S
O21 C26 1.258 . S
O22 C15 1.247 . S
O22 Zn19 2.028 . S
O23 C15 1.258 . S
O23 Zn17 2.035 . S
O24 Zn17 2.028 . S
O24 C27 1.247 . S
O25 Zn19 2.035 . S
O25 C27 1.258 . S
C26 O20 1.247 . S
C26 O21 1.258 . S
C27 O24 1.247 . S
C27 O25 1.258 . S
C28 O30 1.247 . S
C28 O32 1.258 . S
C29 O36 1.247 . S
C29 O37 1.258 . S
O30 C28 1.247 . S
O30 Zn31 2.028 . S
Zn31 O30 2.028 . S
Zn31 O35 2.035 . S
Zn31 O37 2.035 . S
Zn31 O38 2.028 . S
O32 C28 1.258 . S
O32 Zn33 2.035 . S
Zn33 O32 2.035 . S
Zn33 O34 2.028 . S
Zn33 O36 2.028 . S
Zn33 O39 2.035 . S
O34 Zn33 2.028 . S
O34 C40 1.247 . S
O35 Zn31 2.035 . S
O35 C40 1.258 . S
O36 C29 1.247 . S
O36 Zn33 2.028 . S
O37 C29 1.258 . S
O37 Zn31 2.035 . S
O38 Zn31 2.028 . S
O38 C41 1.247 . S
O39 Zn33 2.035 . S
O39 C41 1.258 . S
C40 O34 1.247 . S
C40 O35 1.258 . S
C41 O38 1.247 . S
C41 O39 1.258 . S
C42 O44 1.247 . S
C42 O46 1.258 . S
C43 O50 1.247 . S
C43 O51 1.258 . S
O44 C42 1.247 . S
O44 Zn45 2.028 . S
Zn45 O44 2.028 . S
Zn45 O49 2.035 . S
Zn45 O51 2.035 . S
Zn45 O52 2.028 . S
O46 C42 1.258 . S
O46 Zn47 2.035 . S
Zn47 O46 2.035 . S
Zn47 O48 2.028 . S
Zn47 O50 2.028 . S
Zn47 O53 2.035 . S
O48 Zn47 2.028 . S
O48 C54 1.247 . S
O49 Zn45 2.035 . S
O49 C54 1.258 . S
O50 C43 1.247 . S
O50 Zn47 2.028 . S
O51 C43 1.258 . S
O51 Zn45 2.035 . S
O52 Zn45 2.028 . S
O52 C55 1.247 . S
O53 Zn47 2.035 . S
O53 C55 1.258 . S
C54 O48 1.247 . S
C54 O49 1.258 . S
C55 O52 1.247 . S
C55 O53 1.258 . S
C56 O58 1.247 . S
C56 O60 1.258 . S
C57 O64 1.247 . S
C57 O65 1.258 . S
O58 C56 1.247 . S
O58 Zn59 2.028 . S
Zn59 O58 2.028 . S
Zn59 O63 2.035 . S
Zn59 O65 2.035 . S
Zn59 O66 2.028 . S
O60 C56 1.258 . S
O60 Zn61 2.035 . S
Zn61 O60 2.035 . S
Zn61 O62 2.028 . S
Zn61 O64 2.028 . S
Zn61 O67 2.035 . S
O62 Zn61 2.028 . S
O62 C68 1.247 . S
O63 Zn59 2.035 . S
O63 C68 1.258 . S
O64 C57 1.247 . S
O64 Zn61 2.028 . S
O65 C57 1.258 . S
O65 Zn59 2.035 . S
O66 Zn59 2.028 . S
O66 C69 1.247 . S
O67 Zn61 2.035 . S
O67 C69 1.258 . S
C68 O62 1.247 . S
C68 O63 1.258 . S
C69 O66 1.247 . S
C69 O67 1.258 . S
C70 O72 1.247 . S
C70 O74 1.258 . S
C71 O78 1.247 . S
C71 O79 1.258 . S
O72 C70 1.247 . S
O72 Zn73 2.028 . S
Zn73 O72 2.028 . S
Zn73 O77 2.035 . S
Zn73 O79 2.035 . S
Zn73 O80 2.028 . S
O74 C70 1.258 . S
O74 Zn75 2.035 . S
Zn75 O74 2.035 . S
Zn75 O76 2.028 . S
Zn75 O78 2.028 . S
Zn75 O81 2.035 . S
O76 Zn75 2.028 . S
O76 C82 1.247 . S
O77 Zn73 2.035 . S
O77 C82 1.258 . S
O78 C71 1.247 . S
O78 Zn75 2.028 . S
O79 C71 1.258 . S
O79 Zn73 2.035 . S
O80 Zn73 2.028 . S
O80 C83 1.247 . S
O81 Zn75 2.035 . S
O81 C83 1.258 . S
C82 O76 1.247 . S
C82 O77 1.258 . S
C83 O80 1.247 . S
C83 O81 1.258 . S
C84 O86 1.247 . S
C84 O88 1.258 . S
C85 O92 1.247 . S
C85 O93 1.258 . S
O86 C84 1.247 . S
O86 Zn87 2.028 . S
Zn87 O86 2.028 . S
Zn87 O91 2.035 . S
Zn87 O93 2.035 . S
Zn87 O94 2.028 . S
O88 C84 1.258 . S
O88 Zn89 2.035 . S
Zn89 O88 2.035 . S
Zn89 O90 2.028 . S
Zn89 O92 2.028 . S
Zn89 O95 2.035 . S
O90 Zn89 2.028 . S
O90 C96 1.247 . S
O91 Zn87 2.035 . S
O91 C96 1.258 . S
O92 C85 1.247 . S
O92 Zn89 2.028 . S
O93 C85 1.258 . S
O93 Zn87 2.035 . S
O94 Zn87 2.028 . S
O94 C97 1.247 . S
O95 Zn89 2.035 . S
O95 C97 1.258 . S
C96 O90 1.247 . S
C96 O91 1.258 . S
C97 O94 1.247 . S
C97 O95 1.258 . S
C98 O100 1.247 . S
C98 O102 1.258 . S
C99 O106 1.247 . S
C99 O107 1.258 . S
O100 C98 1.247 . S
O100 Zn101 2.028 . S
Zn101 O100 2.028 . S
Zn101 O105 2.035 . S
Zn101 O107 2.035 . S
Zn101 O108 2.028 . S
O102 C98 1.258 . S
O102 Zn103 2.035 . S
Zn103 O102 2.035 . S
Zn103 O104 2.028 . S
Zn103 O106 2.028 . S
Zn103 O109 2.035 . S
O104 Zn103 2.028 . S
O104 C110 1.247 . S
O105 Zn101 2.035 . S
O105 C110 1.258 . S
O106 C99 1.247 . S
O106 Zn103 2.028 . S
O107 C99 1.258 . S
O107 Zn101 2.035 . S
O108 Zn101 2.028 . S
O108 C111 1.247 . S
O109 Zn103 2.035 . S
O109 C111 1.258 . S
C110 O104 1.247 . S
C110 O105 1.258 . S
C111 O108 1.247 . S
C111 O109 1.258 . S
C112 O114 1.247 . S
C112 O116 1.258 . S
C113 O120 1.247 . S
C113 O121 1.258 . S
O114 C112 1.247 . S
O114 Zn115 2.028 . S
Zn115 O114 2.028 . S
Zn115 O119 2.035 . S
Zn115 O121 2.035 . S
Zn115 O122 2.028 . S
O116 C112 1.258 . S
O116 Zn117 2.035 . S
Zn117 O116 2.035 . S
Zn117 O118 2.028 . S
Zn117 O120 2.028 . S
Zn117 O123 2.035 . S
O118 Zn117 2.028 . S
O118 C124 1.247 . S
O119 Zn115 2.035 . S
O119 C124 1.258 . S
O120 C113 1.247 . S
O120 Zn117 2.028 . S
O121 C113 1.258 . S
O121 Zn115 2.035 . S
O122 Zn115 2.028 . S
O122 C125 1.247 . S
O123 Zn117 2.035 . S
O123 C125 1.258 . S
C124 O118 1.247 . S
C124 O119 1.258 . S
C125 O122 1.247 . S
C125 O123 1.258 . S
C126 O128 1.247 . S
C126 O130 1.258 . S
C127 O134 1.247 . S
C127 O135 1.258 . S
O128 C126 1.247 . S
O128 Zn129 2.028 . S
Zn129 O128 2.028 . S
Zn129 O133 2.035 . S
Zn129 O135 2.035 . S
Zn129 O136 2.028 . S
O130 C126 1.258 . S
O130 Zn131 2.035 . S
Zn131 O130 2.035 . S
Zn131 O132 2.028 . S
Zn131 O134 2.028 . S
Zn131 O137 2.035 . S
O132 Zn131 2.028 . S
O132 C138 1.247 . S
O133 Zn129 2.035 . S
O133 C138 1.258 . S
O134 C127 1.247 . S
O134 Zn131 2.028 . S
O135 C127 1.258 . S
O135 Zn129 2.035 . S
O136 Zn129 2.028 . S
O136 C139 1.247 . S
O137 Zn131 2.035 . S
O137 C139 1.258 . S
C138 O132 1.247 . S
C138 O133 1.258 . S
C139 O136 1.247 . S
C139 O137 1.258 . S
C140 O142 1.247 . S
C140 O144 1.258 . S
C141 O148 1.247 . S
C141 O149 1.258 . S
O142 C140 1.247 . S
O142 Zn143 2.028 . S
Zn143 O142 2.028 . S
Zn143 O147 2.035 . S
Zn143 O149 2.035 . S
Zn143 O150 2.028 . S
O144 C140 1.258 . S
O144 Zn145 2.035 . S
Zn145 O144 2.035 . S
Zn145 O146 2.028 . S
Zn145 O148 2.028 . S
Zn145 O151 2.035 . S
O146 Zn145 2.028 . S
O146 C152 1.247 . S
O147 Zn143 2.035 . S
O147 C152 1.258 . S
O148 C141 1.247 . S
O148 Zn145 2.028 . S
O149 C141 1.258 . S
O149 Zn143 2.035 . S
O150 Zn143 2.028 . S
O150 C153 1.247 . S
O151 Zn145 2.035 . S
O151 C153 1.258 . S
C152 O146 1.247 . S
C152 O147 1.258 . S
C153 O150 1.247 . S
C153 O151 1.258 . S
C154 O156 1.247 . S
C154 O158 1.258 . S
C155 O162 1.247 . S
C155 O163 1.258 . S
O156 C154 1.247 . S
O156 Zn157 2.028 . S
Zn157 O156 2.028 . S
Zn157 O161 2.035 . S
Zn157 O163 2.035 . S
Zn157 O164 2.028 . S
O158 C154 1.258 . S
O158 Zn159 2.035 . S
Zn159 O158 2.035 . S
Zn159 O160 2.028 . S
Zn159 O162 2.028 . S
Zn159 O165 2.035 . S
O160 Zn159 2.028 . S
O160 C166 1.247 . S
O161 Zn157 2.035 . S
O161 C166 1.258 . S
O162 C155 1.247 . S
O162 Zn159 2.028 . S
O163 C155 1.258 . S
O163 Zn157 2.035 . S
O164 Zn157 2.028 . S
O164 C167 1.247 . S
O165 Zn159 2.035 . S
O165 C167 1.258 . S
C166 O160 1.247 . S
C166 O161 1.258 . S
C167 O164 1.247 . S
C167 O165 1.258 . S
H168 C176 0.950 . S
H169 C181 0.950 . S
H170 C178 0.950 . S
H171 C180 0.950 . S
H172 C182 0.950 . S
H173 C184 0.950 . S
H174 C186 0.950 . S
H175 C187 0.950 . S
C176 H168 0.950 . S
C176 C177 1.386 . S
C176 C178 1.391 . S
C177 C176 1.386 . S
C177 C181 1.393 . S
C178 H170 0.950 . S
C178 C176 1.391 . S
C178 C179 1.400 . S
C179 C178 1.400 . S
C179 C180 1.398 . S
C179 C185 1.491 . S
C180 H171 0.950 . S
C180 C179 1.398 . S
C180 C181 1.391 . S
C181 H169 0.950 . S
C181 C177 1.393 . S
C181 C180 1.391 . S
C182 H172 0.950 . S
C182 C183 1.386 . S
C182 C184 1.391 . S
C183 C182 1.386 . S
C183 C187 1.393 . S
C184 H173 0.950 . S
C184 C182 1.391 . S
C184 C185 1.400 . S
C185 C179 1.491 . S
C185 C184 1.400 . S
C185 C186 1.398 . S
C186 H174 0.950 . S
C186 C185 1.398 . S
C186 C187 1.391 . S
C187 H175 0.950 . S
C187 C183 1.393 . S
C187 C186 1.391 . S
H188 C196 0.950 . S
H189 C201 0.950 . S
H190 C198 0.950 . S
H191 C200 0.950 . S
H192 C202 0.950 . S
H193 C204 0.950 . S
H194 C206 0.950 . S
H195 C207 0.950 . S
C196 H188 0.950 . S
C196 C197 1.386 . S
C196 C198 1.391 . S
C197 C196 1.386 . S
C197 C201 1.393 . S
C198 H190 0.950 . S
C198 C196 1.391 . S
C198 C199 1.400 . S
C199 C198 1.400 . S
C199 C200 1.398 . S
C199 C205 1.491 . S
C200 H191 0.950 . S
C200 C199 1.398 . S
C200 C201 1.391 . S
C201 H189 0.950 . S
C201 C197 1.393 . S
C201 C200 1.391 . S
C202 H192 0.950 . S
C202 C203 1.386 . S
C202 C204 1.391 . S
C203 C202 1.386 . S
C203 C207 1.393 . S
C204 H193 0.950 . S
C204 C202 1.391 . S
C204 C205 1.400 . S
C205 C199 1.491 . S
C205 C204 1.400 . S
C205 C206 1.398 . S
C206 H194 0.950 . S
C206 C205 1.398 . S
C206 C207 1.391 . S
C207 H195 0.950 . S
C207 C203 1.393 . S
C207 C206 1.391 . S
H208 C216 0.950 . S
H209 C221 0.950 . S
H210 C218 0.950 . S
H211 C220 0.950 . S
H212 C222 0.950 . S
H213 C224 0.950 . S
H214 C226 0.950 . S
H215 C227 0.950 . S
C216 H208 0.950 . S
C216 C217 1.386 . S
C216 C218 1.391 . S
C217 C216 1.386 . S
C217 C221 1.393 . S
C218 H210 0.950 . S
C218 C216 1.391 . S
C218 C219 1.400 . S
C219 C218 1.400 . S
C219 C220 1.398 . S
C219 C225 1.491 . S
C220 H211 0.950 . S
C220 C219 1.398 . S
C220 C221 1.391 . S
C221 H209 0.950 . S
C221 C217 1.393 . S
C221 C220 1.391 . S
C222 H212 0.950 . S
C222 C223 1.386 . S
C222 C224 1.391 . S
C223 C222 1.386 . S
C223 C227 1.393 . S
C224 H213 0.950 . S
C224 C222 1.391 . S
C224 C225 1.400 . S
C225 C219 1.491 . S
C225 C224 1.400 . S
C225 C226 1.398 . S
C226 H214 0.950 . S
C226 C225 1.398 . S
C226 C227 1.391 . S
C227 H215 0.950 . S
C227 C223 1.393 . S
C227 C226 1.391 . S
H228 C236 0.950 . S
H229 C241 0.950 . S
H230 C238 0.950 . S
H231 C240 0.950 . S
H232 C242 0.950 . S
H233 C244 0.950 . S
H234 C246 0.950 . S
H235 C247 0.950 . S
C236 H228 0.950 . S
C236 C237 1.386 . S
C236 C238 1.391 . S
C237 C236 1.386 . S
C237 C241 1.393 . S
C238 H230 0.950 . S
C238 C236 1.391 . S
C238 C239 1.400 . S
C239 C238 1.400 . S
C239 C240 1.398 . S
C239 C245 1.491 . S
C240 H231 0.950 . S
C240 C239 1.398 . S
C240 C241 1.391 . S
C241 H229 0.950 . S
C241 C237 1.393 . S
C241 C240 1.391 . S
C242 H232 0.950 . S
C242 C243 1.386 . S
C242 C244 1.391 . S
C243 C242 1.386 . S
C243 C247 1.393 . S
C244 H233 0.950 . S
C244 C242 1.391 . S
C244 C245 1.400 . S
C245 C239 1.491 . S
C245 C244 1.400 . S
C245 C246 1.398 . S
C246 H234 0.950 . S
C246 C245 1.398 . S
C246 C247 1.391 . S
C247 H235 0.950 . S
C247 C243 1.393 . S
C247 C246 1.391 . S
H248 C256 0.950 . S
H249 C261 0.950 . S
H250 C258 0.950 . S
H251 C260 0.950 . S
H252 C262 0.950 . S
H253 C264 0.950 . S
H254 C266 0.950 . S
H255 C267 0.950 . S
C256 H248 0.950 . S
C256 C257 1.386 . S
C256 C258 1.391 . S
C257 C256 1.386 . S
C257 C261 1.393 . S
C258 H250 0.950 . S
C258 C256 1.391 . S
C258 C259 1.400 . S
C259 C258 1.400 . S
C259 C260 1.398 . S
C259 C265 1.491 . S
C260 H251 0.950 . S
C260 C259 1.398 . S
C260 C261 1.391 . S
C261 H249 0.950 . S
C261 C257 1.393 . S
C261 C260 1.391 . S
C262 H252 0.950 . S
C262 C263 1.386 . S
C262 C264 1.391 . S
C263 C262 1.386 . S
C263 C267 1.393 . S
C264 H253 0.950 . S
C264 C262 1.391 . S
C264 C265 1.400 . S
C265 C259 1.491 . S
C265 C264 1.400 . S
C265 C266 1.398 . S
C266 H254 0.950 . S
C266 C265 1.398 . S
C266 C267 1.391 . S
C267 H255 0.950 . S
C267 C263 1.393 . S
C267 C266 1.391 . S
H268 C276 0.950 . S
H269 C281 0.950 . S
H270 C278 0.950 . S
H271 C280 0.950 . S
H272 C282 0.950 . S
H273 C284 0.950 . S
H274 C286 0.950 . S
H275 C287 0.950 . S
C276 H268 0.950 . S
C276 C277 1.386 . S
C276 C278 1.391 . S
C277 C276 1.386 . S
C277 C281 1.393 . S
C278 H270 0.950 . S
C278 C276 1.391 . S
C278 C279 1.400 . S
C279 C278 1.400 . S
C279 C280 1.398 . S
C279 C285 1.491 . S
C280 H271 0.950 . S
C280 C279 1.398 . S
C280 C281 1.391 . S
C281 H269 0.950 . S
C281 C277 1.393 . S
C281 C280 1.391 . S
C282 H272 0.950 . S
C282 C283 1.386 . S
C282 C284 1.391 . S
C283 C282 1.386 . S
C283 C287 1.393 . S
C284 H273 0.950 . S
C284 C282 1.391 . S
C284 C285 1.400 . S
C285 C279 1.491 . S
C285 C284 1.400 . S
C285 C286 1.398 . S
C286 H274 0.950 . S
C286 C285 1.398 . S
C286 C287 1.391 . S
C287 H275 0.950 . S
C287 C283 1.393 . S
C287 C286 1.391 . S
H288 C296 0.950 . S
H289 C301 0.950 . S
H290 C298 0.950 . S
H291 C300 0.950 . S
H292 C302 0.950 . S
H293 C304 0.950 . S
H294 C306 0.950 . S
H295 C307 0.950 . S
C296 H288 0.950 . S
C296 C297 1.386 . S
C296 C298 1.391 . S
C297 C296 1.386 . S
C297 C301 1.393 . S
C298 H290 0.950 . S
C298 C296 1.391 . S
C298 C299 1.400 . S
C299 C298 1.400 . S
C299 C300 1.398 . S
C299 C305 1.491 . S
C300 H291 0.950 . S
C300 C299 1.398 . S
C300 C301 1.391 . S
C301 H289 0.950 . S
C301 C297 1.393 . S
C301 C300 1.391 . S
C302 H292 0.950 . S
C302 C303 1.386 . S
C302 C304 1.391 . S
C303 C302 1.386 . S
C303 C307 1.393 . S
C304 H293 0.950 . S
C304 C302 1.391 . S
C304 C305 1.400 . S
C305 C299 1.491 . S
C305 C304 1.400 . S
C305 C306 1.398 . S
C306 H294 0.950 . S
C306 C305 1.398 . S
C306 C307 1.391 . S
C307 H295 0.950 . S
C307 C303 1.393 . S
C307 C306 1.391 . S
H308 C316 0.950 . S
H309 C321 0.950 . S
H310 C318 0.950 . S
H311 C320 0.950 . S
H312 C322 0.950 . S
H313 C324 0.950 . S
H314 C326 0.950 . S
H315 C327 0.950 . S
C316 H308 0.950 . S
C316 C317 1.386 . S
C316 C318 1.391 . S
C317 C316 1.386 . S
C317 C321 1.393 . S
C318 H310 0.950 . S
C318 C316 1.391 . S
C318 C319 1.400 . S
C319 C318 1.400 . S
C319 C320 1.398 . S
C319 C325 1.491 . S
C320 H311 0.950 . S
C320 C319 1.398 . S
C320 C321 1.391 . S
C321 H309 0.950 . S
C321 C317 1.393 . S
C321 C320 1.391 . S
C322 H312 0.950 . S
C322 C323 1.386 . S
C322 C324 1.391 . S
C323 C322 1.386 . S
C323 C327 1.393 . S
C324 H313 0.950 . S
C324 C322 1.391 . S
C324 C325 1.400 . S
C325 C319 1.491 . S
C325 C324 1.400 . S
C325 C326 1.398 . S
C326 H314 0.950 . S
C326 C325 1.398 . S
C326 C327 1.391 . S
C327 H315 0.950 . S
C327 C323 1.393 . S
C327 C326 1.391 . S
H328 C336 0.950 . S
H329 C341 0.950 . S
H330 C338 0.950 . S
H331 C340 0.950 . S
H332 C342 0.950 . S
H333 C344 0.950 . S
H334 C346 0.950 . S
H335 C347 0.950 . S
C336 H328 0.950 . S
C336 C337 1.386 . S
C336 C338 1.391 . S
C337 C336 1.386 . S
C337 C341 1.393 . S
C338 H330 0.950 . S
C338 C336 1.391 . S
C338 C339 1.400 . S
C339 C338 1.400 . S
C339 C340 1.398 . S
C339 C345 1.491 . S
C340 H331 0.950 . S
C340 C339 1.398 . S
C340 C341 1.391 . S
C341 H329 0.950 . S
C341 C337 1.393 . S
C341 C340 1.391 . S
C342 H332 0.950 . S
C342 C343 1.386 . S
C342 C344 1.391 . S
C343 C342 1.386 . S
C343 C347 1.393 . S
C344 H333 0.950 . S
C344 C342 1.391 . S
C344 C345 1.400 . S
C345 C339 1.491 . S
C345 C344 1.400 . S
C345 C346 1.398 . S
C346 H334 0.950 . S
C346 C345 1.398 . S
C346 C347 1.391 . S
C347 H335 0.950 . S
C347 C343 1.393 . S
C347 C346 1.391 . S
H348 C356 0.950 . S
H349 C361 0.950 . S
H350 C358 0.950 . S
H351 C360 0.950 . S
H352 C362 0.950 . S
H353 C364 0.950 . S
H354 C366 0.950 . S
H355 C367 0.950 . S
C356 H348 0.950 . S
C356 C357 1.386 . S
C356 C358 1.391 . S
C357 C356 1.386 . S
C357 C361 1.393 . S
C358 H350 0.950 . S
C358 C356 1.391 . S
C358 C359 1.400 . S
C359 C358 1.400 . S
C359 C360 1.398 . S
C359 C365 1.491 . S
C360 H351 0.950 . S
C360 C359 1.398 . S
C360 C361 1.391 . S
C361 H349 0.950 . S
C361 C357 1.393 . S
C361 C360 1.391 . S
C362 H352 0.950 . S
C362 C363 1.386 . S
C362 C364 1.391 . S
C363 C362 1.386 . S
C363 C367 1.393 . S
C364 H353 0.950 . S
C364 C362 1.391 . S
C364 C365 1.400 . S
C365 C359 1.491 . S
C365 C364 1.400 . S
C365 C366 1.398 . S
C366 H354 0.950 . S
C366 C365 1.398 . S
C366 C367 1.391 . S
C367 H355 0.950 . S
C367 C363 1.393 . S
C367 C366 1.391 . S
H368 C376 0.950 . S
H369 C381 0.950 . S
H370 C378 0.950 . S
H371 C380 0.950 . S
H372 C382 0.950 . S
H373 C384 0.950 . S
H374 C386 0.950 . S
H375 C387 0.950 . S
C376 H368 0.950 . S
C376 C377 1.386 . S
C376 C378 1.391 . S
C377 C376 1.386 . S
C377 C381 1.393 . S
C378 H370 0.950 . S
C378 C376 1.391 . S
C378 C379 1.400 . S
C379 C378 1.400 . S
C379 C380 1.398 . S
C379 C385 1.491 . S
C380 H371 0.950 . S
C380 C379 1.398 . S
C380 C381 1.391 . S
C381 H369 0.950 . S
C381 C377 1.393 . S
C381 C380 1.391 . S
C382 H372 0.950 . S
C382 C383 1.386 . S
C382 C384 1.391 . S
C383 C382 1.386 . S
C383 C387 1.393 . S
C384 H373 0.950 . S
C384 C382 1.391 . S
C384 C385 1.400 . S
C385 C379 1.491 . S
C385 C384 1.400 . S
C385 C386 1.398 . S
C386 H374 0.950 . S
C386 C385 1.398 . S
C386 C387 1.391 . S
C387 H375 0.950 . S
C387 C383 1.393 . S
C387 C386 1.391 . S
H388 C396 0.950 . S
H389 C401 0.950 . S
H390 C398 0.950 . S
H391 C400 0.950 . S
H392 C402 0.950 . S
H393 C404 0.950 . S
H394 C406 0.950 . S
H395 C407 0.950 . S
C396 H388 0.950 . S
C396 C397 1.386 . S
C396 C398 1.391 . S
C397 C396 1.386 . S
C397 C401 1.393 . S
C398 H390 0.950 . S
C398 C396 1.391 . S
C398 C399 1.400 . S
C399 C398 1.400 . S
C399 C400 1.398 . S
C399 C405 1.491 . S
C400 H391 0.950 . S
C400 C399 1.398 . S
C400 C401 1.391 . S
C401 H389 0.950 . S
C401 C397 1.393 . S
C401 C400 1.391 . S
C402 H392 0.950 . S
C402 C403 1.386 . S
C402 C404 1.391 . S
C403 C402 1.386 . S
C403 C407 1.393 . S
C404 H393 0.950 . S
C404 C402 1.391 . S
C404 C405 1.400 . S
C405 C399 1.491 . S
C405 C404 1.400 . S
C405 C406 1.398 . S
C406 H394 0.950 . S
C406 C405 1.398 . S
C406 C407 1.391 . S
C407 H395 0.950 . S
C407 C403 1.393 . S
C407 C406 1.391 . S
H408 C416 0.950 . S
H409 C421 0.950 . S
H410 C418 0.950 . S
H411 C420 0.950 . S
H412 C422 0.950 . S
H413 C424 0.950 . S
H414 C426 0.950 . S
H415 C427 0.950 . S
C416 H408 0.950 . S
C416 C417 1.386 1_455 S
C416 C418 1.391 . S
C417 C416 1.386 1_655 S
C417 C421 1.393 . S
C418 H410 0.950 . S
C418 C416 1.391 . S
C418 C419 1.400 1_455 S
C419 C418 1.400 1_655 S
C419 C420 1.398 . S
C419 C425 1.491 1_655 S
C420 H411 0.950 . S
C420 C419 1.398 . S
C420 C421 1.391 . S
C421 H409 0.950 . S
C421 C417 1.393 . S
C421 C420 1.391 . S
C422 H412 0.950 . S
C422 C423 1.386 1_655 S
C422 C424 1.391 . S
C423 C422 1.386 1_455 S
C423 C427 1.393 . S
C424 H413 0.950 . S
C424 C422 1.391 . S
C424 C425 1.400 1_655 S
C425 C419 1.491 1_455 S
C425 C424 1.400 1_455 S
C425 C426 1.398 . S
C426 H414 0.950 . S
C426 C425 1.398 . S
C426 C427 1.391 . S
C427 H415 0.950 . S
C427 C423 1.393 . S
C427 C426 1.391 . S
H428 C436 0.952 . S
H429 C441 0.950 . S
H430 C438 0.950 . S
H431 C440 0.950 . S
H432 C442 0.952 . S
H433 C444 0.950 . S
H434 C446 0.950 . S
H435 C447 0.950 . S
C436 H428 0.952 . S
C436 C437 1.382 1_565 S
C436 C438 1.393 . S
C437 C436 1.382 1_545 S
C437 C441 1.393 . S
C438 H430 0.950 . S
C438 C436 1.393 . S
C438 C439 1.400 1_565 S
C439 C438 1.400 1_545 S
C439 C440 1.398 . S
C439 C445 1.491 1_545 S
C440 H431 0.950 . S
C440 C439 1.398 . S
C440 C441 1.391 . S
C441 H429 0.950 . S
C441 C437 1.393 . S
C441 C440 1.391 . S
C442 H432 0.952 . S
C442 C443 1.382 1_545 S
C442 C444 1.393 . S
C443 C442 1.382 1_565 S
C443 C447 1.393 . S
C444 H433 0.950 . S
C444 C442 1.393 . S
C444 C445 1.400 1_545 S
C445 C439 1.491 1_565 S
C445 C444 1.400 1_565 S
C445 C446 1.398 . S
C446 H434 0.950 . S
C446 C445 1.398 . S
C446 C447 1.391 . S
C447 H435 0.950 . S
C447 C443 1.393 . S
C447 C446 1.391 . S
H448 C456 0.950 . S
H449 C461 0.950 1_655 S
H450 C458 0.950 . S
H451 C460 0.950 . S
H452 C462 0.950 . S
H453 C464 0.950 . S
H454 C466 0.950 . S
H455 C467 0.950 1_455 S
C456 H448 0.950 . S
C456 C457 1.386 . S
C456 C458 1.391 . S
C457 C456 1.386 . S
C457 C461 1.393 . S
C458 H450 0.950 . S
C458 C456 1.391 . S
C458 C459 1.400 . S
C459 C458 1.400 . S
C459 C460 1.398 1_455 S
C459 C465 1.491 1_455 S
C460 H451 0.950 . S
C460 C459 1.398 1_655 S
C460 C461 1.391 1_655 S
C461 H449 0.950 1_455 S
C461 C457 1.393 . S
C461 C460 1.391 1_455 S
C462 H452 0.950 . S
C462 C463 1.386 . S
C462 C464 1.391 . S
C463 C462 1.386 . S
C463 C467 1.393 . S
C464 H453 0.950 . S
C464 C462 1.391 . S
C464 C465 1.400 . S
C465 C459 1.491 1_655 S
C465 C464 1.400 . S
C465 C466 1.398 1_655 S
C466 H454 0.950 . S
C466 C465 1.398 1_455 S
C466 C467 1.391 1_455 S
C467 H455 0.950 1_655 S
C467 C463 1.393 . S
C467 C466 1.391 1_655 S
H468 C476 0.950 . S
H469 C481 0.950 . S
H470 C478 0.950 . S
H471 C480 0.950 . S
H472 C482 0.950 . S
H473 C484 0.950 . S
H474 C486 0.950 . S
H475 C487 0.950 . S
C476 H468 0.950 . S
C476 C477 1.386 . S
C476 C478 1.391 . S
C477 C476 1.386 . S
C477 C481 1.393 1_545 S
C478 H470 0.950 . S
C478 C476 1.391 . S
C478 C479 1.400 . S
C479 C478 1.400 . S
C479 C480 1.398 1_545 S
C479 C485 1.491 1_545 S
C480 H471 0.950 . S
C480 C479 1.398 1_565 S
C480 C481 1.391 . S
C481 H469 0.950 . S
C481 C477 1.393 1_565 S
C481 C480 1.391 . S
C482 H472 0.950 . S
C482 C483 1.386 . S
C482 C484 1.391 . S
C483 C482 1.386 . S
C483 C487 1.393 1_565 S
C484 H473 0.950 . S
C484 C482 1.391 . S
C484 C485 1.400 . S
C485 C479 1.491 1_565 S
C485 C484 1.400 . S
C485 C486 1.398 1_565 S
C486 H474 0.950 . S
C486 C485 1.398 1_545 S
C486 C487 1.391 . S
C487 H475 0.950 . S
C487 C483 1.393 1_545 S
C487 C486 1.391 . S
H488 C496 0.950 . S
H489 C501 0.950 . S
H490 C498 0.958 . S
H491 C500 0.950 . S
H492 C502 0.950 . S
H493 C504 0.958 . S
H494 C506 0.950 . S
H495 C507 0.950 . S
C496 H488 0.950 . S
C496 C497 1.386 . S
C496 C498 1.387 1_545 S
C497 C496 1.386 . S
C497 C501 1.393 . S
C498 H490 0.958 . S
C498 C496 1.387 1_565 S
C498 C499 1.397 1_565 S
C499 C498 1.397 1_545 S
C499 C500 1.398 . S
C499 C505 1.491 1_545 S
C500 H491 0.950 . S
C500 C499 1.398 . S
C500 C501 1.391 . S
C501 H489 0.950 . S
C501 C497 1.393 . S
C501 C500 1.391 . S
C502 H492 0.950 . S
C502 C503 1.386 . S
C502 C504 1.387 1_565 S
C503 C502 1.386 . S
C503 C507 1.393 . S
C504 H493 0.958 . S
C504 C502 1.387 1_545 S
C504 C505 1.397 1_545 S
C505 C499 1.491 1_565 S
C505 C504 1.397 1_565 S
C505 C506 1.398 . S
C506 H494 0.950 . S
C506 C505 1.398 . S
C506 C507 1.391 . S
C507 H495 0.950 . S
C507 C503 1.393 . S
C507 C506 1.391 . S
H508 C516 0.950 . S
H509 C521 0.950 . S
H510 C518 0.950 . S
H511 C520 0.950 . S
H512 C522 0.950 . S
H513 C524 0.950 . S
H514 C526 0.950 . S
H515 C527 0.950 . S
C516 H508 0.950 . S
C516 C517 1.386 . S
C516 C518 1.391 1_455 S
C517 C516 1.386 . S
C517 C521 1.393 . S
C518 H510 0.950 . S
C518 C516 1.391 1_655 S
C518 C519 1.400 1_655 S
C519 C518 1.400 1_455 S
C519 C520 1.398 . S
C519 C525 1.491 1_455 S
C520 H511 0.950 . S
C520 C519 1.398 . S
C520 C521 1.391 . S
C521 H509 0.950 . S
C521 C517 1.393 . S
C521 C520 1.391 . S
C522 H512 0.950 . S
C522 C523 1.386 . S
C522 C524 1.391 1_655 S
C523 C522 1.386 . S
C523 C527 1.393 . S
C524 H513 0.950 . S
C524 C522 1.391 1_455 S
C524 C525 1.400 1_455 S
C525 C519 1.491 1_655 S
C525 C524 1.400 1_655 S
C525 C526 1.398 . S
C526 H514 0.950 . S
C526 C525 1.398 . S
C526 C527 1.391 . S
C527 H515 0.950 . S
C527 C523 1.393 . S
C527 C526 1.391 . S
H528 C536 0.950 . S
H529 C541 0.950 . S
H530 C538 0.950 1_565 S
H531 C540 0.950 . S
H532 C542 0.950 . S
H533 C544 0.950 1_545 S
H534 C546 0.950 . S
H535 C547 0.950 . S
C536 H528 0.950 . S
C536 C537 1.386 . S
C536 C538 1.391 . S
C537 C536 1.386 . S
C537 C541 1.393 . S
C538 H530 0.950 1_545 S
C538 C536 1.391 . S
C538 C539 1.400 . S
C539 C538 1.400 . S
C539 C540 1.398 . S
C539 C545 1.491 1_545 S
C540 H531 0.950 . S
C540 C539 1.398 . S
C540 C541 1.391 . S
C541 H529 0.950 . S
C541 C537 1.393 . S
C541 C540 1.391 . S
C542 H532 0.950 . S
C542 C543 1.386 . S
C542 C544 1.391 . S
C543 C542 1.386 . S
C543 C547 1.393 . S
C544 H533 0.950 1_565 S
C544 C542 1.391 . S
C544 C545 1.400 . S
C545 C539 1.491 1_565 S
C545 C544 1.400 . S
C545 C546 1.398 . S
C546 H534 0.950 . S
C546 C545 1.398 . S
C546 C547 1.391 . S
C547 H535 0.950 . S
C547 C543 1.393 . S
C547 C546 1.391 . S
H548 C556 0.950 . S
H549 C561 0.950 . S
H550 C558 0.950 . S
H551 C560 0.950 1_455 S
H552 C562 0.950 . S
H553 C564 0.950 . S
H554 C566 0.950 1_655 S
H555 C567 0.950 . S
C556 H548 0.950 . S
C556 C557 1.386 . S
C556 C558 1.391 . S
C557 C556 1.386 . S
C557 C561 1.393 . S
C558 H550 0.950 . S
C558 C556 1.391 . S
C558 C559 1.400 . S
C559 C558 1.400 . S
C559 C560 1.398 . S
C559 C565 1.491 1_655 S
C560 H551 0.950 1_655 S
C560 C559 1.398 . S
C560 C561 1.391 . S
C561 H549 0.950 . S
C561 C557 1.393 . S
C561 C560 1.391 . S
C562 H552 0.950 . S
C562 C563 1.386 . S
C562 C564 1.391 . S
C563 C562 1.386 . S
C563 C567 1.393 . S
C564 H553 0.950 . S
C564 C562 1.391 . S
C564 C565 1.400 . S
C565 C559 1.491 1_455 S
C565 C564 1.400 . S
C565 C566 1.398 . S
C566 H554 0.950 1_455 S
C566 C565 1.398 . S
C566 C567 1.391 . S
C567 H555 0.950 . S
C567 C563 1.393 . S
C567 C566 1.391 . S
H568 C576 0.950 . S
H569 C581 0.950 . S
H570 C578 0.950 . S
H571 C580 0.950 . S
H572 C582 0.950 . S
H573 C584 0.950 . S
H574 C586 0.950 . S
H575 C587 0.950 . S
C576 H568 0.950 . S
C576 C577 1.386 1_556 S
C576 C578 1.391 . S
C577 C576 1.386 1_554 S
C577 C581 1.393 . S
C578 H570 0.950 . S
C578 C576 1.391 . S
C578 C579 1.400 1_556 S
C579 C578 1.400 1_554 S
C579 C580 1.398 . S
C579 C585 1.491 1_554 S
C580 H571 0.950 . S
C580 C579 1.398 . S
C580 C581 1.391 . S
C581 H569 0.950 . S
C581 C577 1.393 . S
C581 C580 1.391 . S
C582 H572 0.950 . S
C582 C583 1.386 1_554 S
C582 C584 1.391 . S
C583 C582 1.386 1_556 S
C583 C587 1.393 . S
C584 H573 0.950 . S
C584 C582 1.391 . S
C584 C585 1.400 1_554 S
C585 C579 1.491 1_556 S
C585 C584 1.400 1_556 S
C585 C586 1.398 . S
C586 H574 0.950 . S
C586 C585 1.398 . S
C586 C587 1.391 . S
C587 H575 0.950 . S
C587 C583 1.393 . S
C587 C586 1.391 . S
H588 C596 0.950 . S
H589 C601 0.950 . S
H590 C598 0.950 . S
H591 C600 0.950 . S
H592 C602 0.950 . S
H593 C604 0.950 . S
H594 C606 0.950 . S
H595 C607 0.950 . S
C596 H588 0.950 . S
C596 C597 1.386 . S
C596 C598 1.391 . S
C597 C596 1.386 . S
C597 C601 1.393 1_556 S
C598 H590 0.950 . S
C598 C596 1.391 . S
C598 C599 1.400 . S
C599 C598 1.400 . S
C599 C600 1.398 1_556 S
C599 C605 1.491 1_556 S
C600 H591 0.950 . S
C600 C599 1.398 1_554 S
C600 C601 1.391 . S
C601 H589 0.950 . S
C601 C597 1.393 1_554 S
C601 C600 1.391 . S
C602 H592 0.950 . S
C602 C603 1.386 . S
C602 C604 1.391 . S
C603 C602 1.386 . S
C603 C607 1.393 1_554 S
C604 H593 0.950 . S
C604 C602 1.391 . S
C604 C605 1.400 . S
C605 C599 1.491 1_554 S
C605 C604 1.400 . S
C605 C606 1.398 1_554 S
C606 H594 0.950 . S
C606 C605 1.398 1_556 S
C606 C607 1.391 . S
C607 H595 0.950 . S
C607 C603 1.393 1_556 S
C607 C606 1.391 . S
H608 C616 0.950 . S
H609 C621 0.950 . S
H610 C618 0.950 . S
H611 C620 0.950 . S
H612 C622 0.950 . S
H613 C624 0.950 . S
H614 C626 0.950 . S
H615 C627 0.950 . S
C616 H608 0.950 . S
C616 C617 1.386 1_554 S
C616 C618 1.391 . S
C617 C616 1.386 1_556 S
C617 C621 1.393 . S
C618 H610 0.950 . S
C618 C616 1.391 . S
C618 C619 1.400 1_554 S
C619 C618 1.400 1_556 S
C619 C620 1.398 . S
C619 C625 1.491 1_556 S
C620 H611 0.950 . S
C620 C619 1.398 . S
C620 C621 1.391 . S
C621 H609 0.950 . S
C621 C617 1.393 . S
C621 C620 1.391 . S
C622 H612 0.950 . S
C622 C623 1.386 1_556 S
C622 C624 1.391 . S
C623 C622 1.386 1_554 S
C623 C627 1.393 . S
C624 H613 0.950 . S
C624 C622 1.391 . S
C624 C625 1.400 1_556 S
C625 C619 1.491 1_554 S
C625 C624 1.400 1_554 S
C625 C626 1.398 . S
C626 H614 0.950 . S
C626 C625 1.398 . S
C626 C627 1.391 . S
C627 H615 0.950 . S
C627 C623 1.393 . S
C627 C626 1.391 . S
H628 C636 0.950 . S
H629 C641 0.950 . S
H630 C638 0.950 . S
H631 C640 0.950 . S
H632 C642 0.950 . S
H633 C644 0.950 . S
H634 C646 0.950 . S
H635 C647 0.950 . S
C636 H628 0.950 . S
C636 C637 1.386 . S
C636 C638 1.391 . S
C637 C636 1.386 . S
C637 C641 1.393 1_554 S
C638 H630 0.950 . S
C638 C636 1.391 . S
C638 C639 1.400 . S
C639 C638 1.400 . S
C639 C640 1.398 1_554 S
C639 C645 1.491 1_554 S
C640 H631 0.950 . S
C640 C639 1.398 1_556 S
C640 C641 1.391 . S
C641 H629 0.950 . S
C641 C637 1.393 1_556 S
C641 C640 1.391 . S
C642 H632 0.950 . S
C642 C643 1.386 . S
C642 C644 1.391 . S
C643 C642 1.386 . S
C643 C647 1.393 1_556 S
C644 H633 0.950 . S
C644 C642 1.391 . S
C644 C645 1.400 . S
C645 C639 1.491 1_556 S
C645 C644 1.400 . S
C645 C646 1.398 1_556 S
C646 H634 0.950 . S
C646 C645 1.398 1_554 S
C646 C647 1.391 . S
C647 H635 0.950 . S
C647 C643 1.393 1_554 S
C647 C646 1.391 . S
C177 C12 1.444 . S
C183 C99 1.443 . S
C197 C27 1.440 . S
C203 C69 1.446 . S
C217 C71 1.448 . S
C223 C29 1.437 . S
C237 C97 1.447 . S
C243 C55 1.439 . S
C257 C113 1.440 . S
C263 C110 1.447 . S
C277 C126 1.446 . S
C283 C56 1.440 . S
C297 C140 1.437 . S
C303 C82 1.448 . S
C317 C167 1.439 . S
C323 C84 1.446 . S
C337 C14 1.442 . S
C343 C139 1.445 . S
C357 C153 1.438 . S
C363 C40 1.447 . S
C377 C42 1.447 . S
C383 C154 1.438 . S
C397 C124 1.441 . S
C403 C1 1.445 . S
C417 C85 1.732 . S
C423 C0 1.731 . S
C437 C111 1.723 . S
C443 C15 1.723 . S
C457 C57 1.726 . S
C463 C41 1.725 . S
C477 C43 1.733 . S
C483 C83 1.734 . S
C497 C98 1.722 . S
C503 C70 1.723 . S
C517 C68 1.740 . S
C523 C96 1.739 . S
C537 C54 1.738 . S
C543 C26 1.738 . S
C557 C28 1.725 . S
C563 C13 1.723 . S
C577 C112 1.729 . S
C583 C138 1.730 . S
C597 C127 1.734 . S
C603 C152 1.737 . S
C617 C155 1.737 . S
C623 C141 1.737 . S
C637 C125 1.737 . S
C643 C166 1.739 . S
