# Generated by pormake.
# Topology lcy-e, (6)-cn, num edge types: 1
# Building blocks:
#     Node 0, Type 0, BuildingBlock: CIFDUS_clean_sbu_1, # of connection points: 6
#     Node 1, Type 0, BuildingBlock: CIFDUS_clean_sbu_1, # of connection points: 6
#     Node 2, Type 0, BuildingBlock: CIFDUS_clean_sbu_1, # of connection points: 6
#     Node 3, Type 0, BuildingBlock: CIFDUS_clean_sbu_1, # of connection points: 6
#     Node 4, Type 0, BuildingBlock: CIFDUS_clean_sbu_1, # of connection points: 6
#     Node 5, Type 0, BuildingBlock: CIFDUS_clean_sbu_1, # of connection points: 6
#     Node 6, Type 0, BuildingBlock: CIFDUS_clean_sbu_1, # of connection points: 6
#     Node 7, Type 0, BuildingBlock: CIFDUS_clean_sbu_1, # of connection points: 6
#     Node 8, Type 0, BuildingBlock: CIFDUS_clean_sbu_1, # of connection points: 6
#     Node 9, Type 0, BuildingBlock: CIFDUS_clean_sbu_1, # of connection points: 6
#     Node 10, Type 0, BuildingBlock: CIFDUS_clean_sbu_1, # of connection points: 6
#     Node 11, Type 0, BuildingBlock: CIFDUS_clean_sbu_1, # of connection points: 6
#     Edge 12, Type (0, 0), BuildingBlock: OJICUG_clean_linker_0, # of connection points: 2
#     Edge 13, Type (0, 0), BuildingBlock: OJICUG_clean_linker_0, # of connection points: 2
#     Edge 14, Type (0, 0), BuildingBlock: OJICUG_clean_linker_0, # of connection points: 2
#     Edge 15, Type (0, 0), BuildingBlock: OJICUG_clean_linker_0, # of connection points: 2
#     Edge 16, Type (0, 0), BuildingBlock: OJICUG_clean_linker_0, # of connection points: 2
#     Edge 17, Type (0, 0), BuildingBlock: OJICUG_clean_linker_0, # of connection points: 2
#     Edge 18, Type (0, 0), BuildingBlock: OJICUG_clean_linker_0, # of connection points: 2
#     Edge 19, Type (0, 0), BuildingBlock: OJICUG_clean_linker_0, # of connection points: 2
#     Edge 20, Type (0, 0), BuildingBlock: OJICUG_clean_linker_0, # of connection points: 2
#     Edge 21, Type (0, 0), BuildingBlock: OJICUG_clean_linker_0, # of connection points: 2
#     Edge 22, Type (0, 0), BuildingBlock: OJICUG_clean_linker_0, # of connection points: 2
#     Edge 23, Type (0, 0), BuildingBlock: OJICUG_clean_linker_0, # of connection points: 2
#     Edge 24, Type (0, 0), BuildingBlock: OJICUG_clean_linker_0, # of connection points: 2
#     Edge 25, Type (0, 0), BuildingBlock: OJICUG_clean_linker_0, # of connection points: 2
#     Edge 26, Type (0, 0), BuildingBlock: OJICUG_clean_linker_0, # of connection points: 2
#     Edge 27, Type (0, 0), BuildingBlock: OJICUG_clean_linker_0, # of connection points: 2
#     Edge 28, Type (0, 0), BuildingBlock: OJICUG_clean_linker_0, # of connection points: 2
#     Edge 29, Type (0, 0), BuildingBlock: OJICUG_clean_linker_0, # of connection points: 2
#     Edge 30, Type (0, 0), BuildingBlock: OJICUG_clean_linker_0, # of connection points: 2
#     Edge 31, Type (0, 0), BuildingBlock: OJICUG_clean_linker_0, # of connection points: 2
#     Edge 32, Type (0, 0), BuildingBlock: OJICUG_clean_linker_0, # of connection points: 2
#     Edge 33, Type (0, 0), BuildingBlock: OJICUG_clean_linker_0, # of connection points: 2
#     Edge 34, Type (0, 0), BuildingBlock: OJICUG_clean_linker_0, # of connection points: 2
#     Edge 35, Type (0, 0), BuildingBlock: OJICUG_clean_linker_0, # of connection points: 2
#     Edge 36, Type (0, 0), BuildingBlock: OJICUG_clean_linker_0, # of connection points: 2
#     Edge 37, Type (0, 0), BuildingBlock: OJICUG_clean_linker_0, # of connection points: 2
#     Edge 38, Type (0, 0), BuildingBlock: OJICUG_clean_linker_0, # of connection points: 2
#     Edge 39, Type (0, 0), BuildingBlock: OJICUG_clean_linker_0, # of connection points: 2
#     Edge 40, Type (0, 0), BuildingBlock: OJICUG_clean_linker_0, # of connection points: 2
#     Edge 41, Type (0, 0), BuildingBlock: OJICUG_clean_linker_0, # of connection points: 2
#     Edge 42, Type (0, 0), BuildingBlock: OJICUG_clean_linker_0, # of connection points: 2
#     Edge 43, Type (0, 0), BuildingBlock: OJICUG_clean_linker_0, # of connection points: 2
#     Edge 44, Type (0, 0), BuildingBlock: OJICUG_clean_linker_0, # of connection points: 2
#     Edge 45, Type (0, 0), BuildingBlock: OJICUG_clean_linker_0, # of connection points: 2
#     Edge 46, Type (0, 0), BuildingBlock: OJICUG_clean_linker_0, # of connection points: 2
#     Edge 47, Type (0, 0), BuildingBlock: OJICUG_clean_linker_0, # of connection points: 2
# Relax obj value: 0.277
# Max RMSD: 0.264
# Mean RMSD: 0.264
data_MOF--net-lcy-e--node1-CIFDUS_clean_sbu_1--edge1-OJICUG_clean_linker_0
_symmetry_space_group_name_H-M    P1
_symmetry_Int_Tables_number       1
_symmetry_cell_setting            triclinic
loop_
_symmetry_equiv_pos_as_xyz
'x, y, z'
_cell_length_a     26.331569
_cell_length_b     26.333233
_cell_length_c     26.329789
_cell_angle_alpha  90.000112
_cell_angle_beta   89.99819
_cell_angle_gamma 89.995299
loop_
_atom_site_label
_atom_site_type_symbol
_atom_site_fract_x
_atom_site_fract_y
_atom_site_fract_z
_atom_type_partial_charge
O0 O 0.08273 0.14149 0.43483 0.0
Mn1 Mn 0.13077 0.20256 0.45248 0.0
O2 O 1.00558 0.17884 0.42602 0.0
Mn3 Mn 0.02445 0.24681 0.42691 0.0
O4 O 0.17499 0.26641 0.47075 0.0
O5 O 0.17324 0.15753 0.49596 0.0
Mn6 Mn 0.2371 0.17701 0.49673 0.0
O7 O 0.17882 0.18488 0.39141 0.0
O8 O 0.23522 0.24117 0.52525 0.0
O9 O 0.08655 0.22085 0.51633 0.0
O10 O 0.02631 0.27533 0.49107 0.0
O11 O 0.23303 0.11641 0.53315 0.0
O12 O 0.25597 0.1761 0.42876 0.0
C13 C 0.07615 0.27118 0.36749 0.0
C14 C 0.03413 0.13961 0.42828 0.0
C15 C 0.20932 0.27616 0.50416 0.0
C16 C 0.18543 0.1176 0.52115 0.0
C17 C 0.22742 0.17833 0.38952 0.0
C18 C 0.05221 0.25426 0.52608 0.0
O19 O 0.08831 0.24602 0.40745 0.0
O20 O 0.02855 0.28319 0.36628 0.0
O21 O 0.12047 0.83291 0.68494 0.0
Mn22 Mn 0.0594 0.88096 0.70263 0.0
O23 O 0.08311 0.75577 0.67613 0.0
Mn24 Mn 0.01514 0.77465 0.67704 0.0
O25 O 0.99556 0.92519 0.72092 0.0
O26 O 0.10443 0.92339 0.74611 0.0
Mn27 Mn 0.08498 0.98726 0.74692 0.0
O28 O 0.07706 0.92902 0.64156 0.0
O29 O 0.02082 0.98538 0.77545 0.0
O30 O 0.04112 0.83672 0.76647 0.0
O31 O 0.98662 0.77651 0.74121 0.0
O32 O 0.14562 0.98312 0.78328 0.0
O33 O 0.08586 0.00615 0.67895 0.0
C34 C 0.99075 0.82635 0.61764 0.0
C35 C 0.12235 0.78431 0.67838 0.0
C36 C 0.98582 0.95951 0.75435 0.0
C37 C 0.1444 0.93553 0.77125 0.0
C38 C 0.0836 0.97762 0.6397 0.0
C39 C 0.0077 0.8024 0.77621 0.0
O40 O 0.01592 0.83851 0.65758 0.0
O41 O 0.97874 0.77875 0.61643 0.0
O42 O 0.33298 0.82687 0.89143 0.0
Mn43 Mn 0.38103 0.8092 0.95251 0.0
O44 O 0.25584 0.83572 0.9288 0.0
Mn45 Mn 0.27473 0.83482 0.99677 0.0
O46 O 0.42526 0.79093 0.01634 0.0
O47 O 0.42346 0.76569 0.90748 0.0
Mn48 Mn 0.48734 0.76489 0.92691 0.0
O49 O 0.4291 0.87024 0.9348 0.0
O50 O 0.48548 0.73641 0.99109 0.0
O51 O 0.33679 0.74538 0.97081 0.0
O52 O 0.27657 0.77067 0.02531 0.0
O53 O 0.48319 0.72847 0.8663 0.0
O54 O 0.50623 0.83285 0.92596 0.0
C55 C 0.32644 0.89421 0.02114 0.0
C56 C 0.28439 0.83345 0.88956 0.0
C57 C 0.45959 0.75751 0.02609 0.0
C58 C 0.43559 0.74051 0.86753 0.0
C59 C 0.4777 0.87209 0.92822 0.0
C60 C 0.30246 0.73565 1.00424 0.0
O61 O 0.3386 0.85426 0.99598 0.0
O62 O 0.27884 0.89543 0.03316 0.0
O63 O 0.43483 0.08278 0.14153 0.0
Mn64 Mn 0.45248 0.13085 0.20259 0.0
O65 O 0.42601 1.00566 0.17893 0.0
Mn66 Mn 0.42686 0.02457 0.24689 0.0
O67 O 0.47075 0.17509 0.26642 0.0
O68 O 0.49598 0.17326 0.15754 0.0
Mn69 Mn 0.49679 0.23713 0.17699 0.0
O70 O 0.39143 0.17891 0.18487 0.0
O71 O 0.5253 0.23525 0.24115 0.0
O72 O 0.5163 0.0866 0.22091 0.0
O73 O 0.49101 0.02643 0.27545 0.0
O74 O 0.53317 0.23299 0.11636 0.0
O75 O 0.42883 0.25603 0.17608 0.0
C76 C 0.36744 0.07629 0.2712 0.0
C77 C 0.42828 0.03418 0.13967 0.0
C78 C 0.5042 0.20939 0.27616 0.0
C79 C 0.52114 0.1854 0.11758 0.0
C80 C 0.38958 0.22751 0.17832 0.0
C81 C 0.52603 0.0523 0.25436 0.0
O82 O 0.40741 0.08843 0.24606 0.0
O83 O 0.36622 0.02871 0.28324 0.0
O84 O 0.67895 0.32696 0.6204 0.0
Mn85 Mn 0.63091 0.30926 0.55933 0.0
O86 O 0.7561 0.33572 0.58304 0.0
Mn87 Mn 0.73723 0.33479 0.51506 0.0
O88 O 0.58669 0.29094 0.4955 0.0
O89 O 0.58845 0.26582 0.6044 0.0
Mn90 Mn 0.52459 0.26503 0.58493 0.0
O91 O 0.58285 0.37034 0.57696 0.0
O92 O 0.52646 0.23647 0.52078 0.0
O93 O 0.67513 0.2454 0.5411 0.0
O94 O 0.73535 0.27062 0.48657 0.0
O95 O 0.52869 0.22868 0.64558 0.0
O96 O 0.50571 0.33299 0.58578 0.0
C97 C 0.68554 0.3942 0.49066 0.0
C98 C 0.72755 0.3335 0.62227 0.0
C99 C 0.55236 0.25753 0.48577 0.0
C100 C 0.57628 0.24069 0.64437 0.0
C101 C 0.53425 0.37222 0.5835 0.0
C102 C 0.70946 0.23563 0.50768 0.0
O103 O 0.67337 0.35425 0.51583 0.0
O104 O 0.73313 0.39539 0.47865 0.0
O105 O 0.93486 0.42896 0.87043 0.0
Mn106 Mn 0.95249 0.38092 0.80934 0.0
O107 O 0.926 0.5061 0.83308 0.0
Mn108 Mn 0.92688 0.48724 0.76511 0.0
O109 O 0.97073 0.33669 0.74548 0.0
O110 O 0.996 0.33847 0.85434 0.0
Mn111 Mn 0.99678 0.27461 0.8349 0.0
O112 O 0.89144 0.33287 0.82706 0.0
O113 O 0.02525 0.27647 0.77071 0.0
O114 O 0.01632 0.42513 0.79101 0.0
O115 O 0.99103 0.4854 0.73656 0.0
O116 O 0.03321 0.27873 0.8955 0.0
O117 O 0.92881 0.25573 0.83585 0.0
C118 C 0.86747 0.43554 0.74074 0.0
C119 C 0.9283 0.47756 0.87232 0.0
C120 C 1.00415 0.30236 0.73572 0.0
C121 C 0.02119 0.32632 0.89429 0.0
C122 C 0.88957 0.28428 0.83362 0.0
C123 C 0.02604 0.45949 0.7576 0.0
O124 O 0.90743 0.42337 0.76589 0.0
O125 O 0.86625 0.48313 0.72874 0.0
O126 O 0.929 0.64147 0.07703 0.0
Mn127 Mn 0.88094 0.70253 0.05936 0.0
O128 O 0.00613 0.67885 0.08586 0.0
Mn129 Mn 0.98723 0.74681 0.08499 0.0
O130 O 0.8367 0.76637 0.04108 0.0
O131 O 0.83851 0.65751 0.01586 0.0
Mn132 Mn 0.77464 0.67696 0.01505 0.0
O133 O 0.83287 0.68483 0.12041 0.0
O134 O 0.77653 0.74112 0.98652 0.0
O135 O 0.92519 0.72084 0.99554 0.0
O136 O 0.98537 0.77535 0.02084 0.0
O137 O 0.77877 0.61634 0.97867 0.0
O138 O 0.75574 0.67606 0.08302 0.0
C139 C 0.93549 0.77113 0.1444 0.0
C140 C 0.97759 0.63961 0.08359 0.0
C141 C 0.8024 0.77612 0.00763 0.0
C142 C 0.82636 0.61755 0.99071 0.0
C143 C 0.78427 0.67829 0.12227 0.0
C144 C 0.95951 0.75427 0.98581 0.0
O145 O 0.92336 0.746 0.10443 0.0
O146 O 0.98308 0.78316 0.14564 0.0
O147 O 0.62039 0.67888 0.32702 0.0
Mn148 Mn 0.55932 0.63084 0.30932 0.0
O149 O 0.58304 0.75602 0.33584 0.0
Mn150 Mn 0.51507 0.73716 0.33491 0.0
O151 O 0.49549 0.58662 0.29102 0.0
O152 O 0.60436 0.58839 0.26584 0.0
Mn153 Mn 0.58492 0.52453 0.26505 0.0
O154 O 0.57698 0.58278 0.37039 0.0
O155 O 0.52075 0.52639 0.23652 0.0
O156 O 0.54106 0.67507 0.24548 0.0
O157 O 0.48657 0.73531 0.27073 0.0
O158 O 0.64554 0.52865 0.22866 0.0
O159 O 0.58582 0.50565 0.33302 0.0
C160 C 0.49067 0.68544 0.3943 0.0
C161 C 0.62227 0.72747 0.33359 0.0
C162 C 0.48575 0.55229 0.25761 0.0
C163 C 0.64432 0.57624 0.24068 0.0
C164 C 0.58355 0.53419 0.37226 0.0
C165 C 0.50766 0.70942 0.23573 0.0
O166 O 0.51584 0.67329 0.35435 0.0
O167 O 0.47866 0.73304 0.39552 0.0
O168 O 0.18484 0.39144 0.17896 0.0
Mn169 Mn 0.20256 0.45251 0.13092 0.0
O170 O 0.17603 0.42878 0.25611 0.0
Mn171 Mn 0.17696 0.49675 0.23725 0.0
O172 O 0.22087 0.51634 0.08671 0.0
O173 O 0.24603 0.40746 0.08847 0.0
Mn174 Mn 0.24684 0.42693 0.02461 0.0
O175 O 0.1415 0.43486 0.08285 0.0
O176 O 0.27538 0.49107 0.02649 0.0
O177 O 0.26639 0.47076 0.17517 0.0
O178 O 0.24114 0.52525 0.23541 0.0
O179 O 0.28322 0.3663 0.02872 0.0
O180 O 0.17888 0.42605 1.00571 0.0
C181 C 0.11757 0.52116 0.18554 0.0
C182 C 0.17827 0.38956 0.22755 0.0
C183 C 0.2543 0.52608 0.05238 0.0
C184 C 0.27119 0.36751 0.07632 0.0
C185 C 0.13964 0.42831 0.03424 0.0
C186 C 0.27614 0.50416 0.20951 0.0
O187 O 0.15752 0.49599 0.17338 0.0
O188 O 0.11636 0.53316 0.23314 0.0
O189 O 0.68487 0.12038 0.83292 0.0
Mn190 Mn 0.70257 0.0593 0.88095 0.0
O191 O 0.67609 0.08306 0.75576 0.0
Mn192 Mn 0.67703 0.01509 0.7746 0.0
O193 O 0.72087 0.99546 0.92516 0.0
O194 O 0.74601 0.10434 0.92344 0.0
Mn195 Mn 0.74679 0.08486 0.9873 0.0
O196 O 0.64148 0.07693 0.929 0.0
O197 O 0.77534 0.02071 0.98542 0.0
O198 O 0.76643 0.04107 0.83673 0.0
O199 O 0.74121 0.9866 0.77646 0.0
O200 O 0.78316 0.14548 0.98323 0.0
O201 O 0.67882 0.08573 0.00616 0.0
C202 C 0.61764 0.99065 0.82629 0.0
C203 C 0.67832 0.12228 0.78432 0.0
C204 C 0.75428 0.98571 0.95951 0.0
C205 C 0.77116 0.14429 0.93562 0.0
C206 C 0.63959 0.08346 0.97761 0.0
C207 C 0.7762 0.00767 0.80238 0.0
O208 O 0.65757 0.01583 0.83847 0.0
O209 O 0.61644 0.97866 0.77868 0.0
O210 O 0.82689 0.89135 0.333 0.0
Mn211 Mn 0.80922 0.95242 0.38105 0.0
O212 O 0.83569 0.9287 0.25584 0.0
Mn213 Mn 0.83478 0.99667 0.27472 0.0
O214 O 0.79094 0.01626 0.42527 0.0
O215 O 0.76575 0.90739 0.42351 0.0
Mn216 Mn 0.76497 0.92685 0.48738 0.0
O217 O 0.87029 0.93476 0.42909 0.0
O218 O 0.73645 0.99102 0.48552 0.0
O219 O 0.74537 0.9707 0.33682 0.0
O220 O 0.77062 0.02519 0.27659 0.0
O221 O 0.72859 0.86624 0.48328 0.0
O222 O 0.83294 0.92596 0.50625 0.0
C223 C 0.89419 0.02106 0.3264 0.0
C224 C 0.83344 0.88947 0.28439 0.0
C225 C 0.75753 0.02601 0.45961 0.0
C226 C 0.7406 0.86744 0.43568 0.0
C227 C 0.87218 0.92822 0.4777 0.0
C228 C 0.73562 1.00412 0.30249 0.0
O229 O 0.85425 0.99589 0.33858 0.0
O230 O 0.89539 0.03307 0.2788 0.0
O231 O 0.37031 0.57692 0.58283 0.0
Mn232 Mn 0.30924 0.55925 0.63088 0.0
O233 O 0.33294 0.58577 0.50569 0.0
Mn234 Mn 0.26498 0.58491 0.52458 0.0
O235 O 0.2454 0.54099 0.67511 0.0
O236 O 0.35426 0.51573 0.6733 0.0
Mn237 Mn 0.3348 0.51489 0.73716 0.0
O238 O 0.32696 0.62027 0.67898 0.0
O239 O 0.27064 0.48638 0.73525 0.0
O240 O 0.29093 0.49546 0.58662 0.0
O241 O 0.23642 0.52077 0.52642 0.0
O242 O 0.39542 0.47851 0.73303 0.0
O243 O 0.33571 0.58284 0.7561 0.0
C244 C 0.24066 0.64431 0.57632 0.0
C245 C 0.37218 0.58348 0.53423 0.0
C246 C 0.23564 0.50752 0.70939 0.0
C247 C 0.39422 0.49057 0.68544 0.0
C248 C 0.3335 0.6221 0.72758 0.0
C249 C 0.25749 0.48574 0.55229 0.0
O250 O 0.26579 0.60434 0.58846 0.0
O251 O 0.22863 0.64555 0.52872 0.0
C252 C 0.19587 0.36989 0.49226 0.0
C253 C 0.22094 0.32982 0.51707 0.0
H254 H 0.1876 0.45021 0.48381 0.0
C255 C 0.25766 0.34155 0.55413 0.0
H256 H 0.16736 0.36235 0.46357 0.0
C257 C 0.2693 0.39203 0.56581 0.0
C258 C 0.24457 0.43209 0.54067 0.0
H259 H 0.27768 0.31171 0.57415 0.0
H260 H 0.29794 0.39956 0.59437 0.0
C261 C 0.20756 0.42037 0.50388 0.0
C262 C 0.86991 0.01945 0.816 0.0
C263 C 0.82986 0.99476 0.79079 0.0
H264 H 0.95023 0.02779 0.82442 0.0
C265 C 0.84161 0.95781 0.75396 0.0
H266 H 0.86236 0.04805 0.84459 0.0
C267 C 0.8921 0.94611 0.74237 0.0
C268 C 0.93216 0.97113 0.76724 0.0
H269 H 0.81179 0.93789 0.73383 0.0
H270 H 0.89965 0.91764 0.71364 0.0
C271 C 0.92041 0.00781 0.80434 0.0
C272 C 0.31602 0.64194 0.99247 0.0
C273 C 0.29084 0.682 0.01716 0.0
H274 H 0.32439 0.56162 0.98411 0.0
C275 C 0.25401 0.67028 0.05412 0.0
H276 H 0.34462 0.64947 0.96386 0.0
C277 C 0.24238 0.6198 0.06581 0.0
C278 C 0.26722 0.57973 0.04078 0.0
H279 H 0.2339 0.70012 0.07405 0.0
H280 H 0.21365 0.61227 0.09428 0.0
C281 C 0.30434 0.59145 1.0041 0.0
C282 C 0.5914 1.00395 0.30434 0.0
C283 C 0.57968 0.04067 0.26728 0.0
H284 H 0.64943 0.96366 0.34458 0.0
C285 C 0.61975 0.06575 0.24248 0.0
H286 H 0.56157 0.98393 0.32436 0.0
C287 C 0.67023 0.05405 0.25411 0.0
C288 C 0.68196 0.01704 0.29089 0.0
H289 H 0.61222 0.09426 0.21379 0.0
H290 H 0.70007 0.07401 0.23403 0.0
C291 C 0.64189 0.99231 0.31603 0.0
C292 C 0.75775 0.17021 0.4577 0.0
C293 C 0.72106 0.18197 0.49479 0.0
H294 H 0.79797 0.11216 0.41745 0.0
C295 C 0.69599 0.14193 0.51964 0.0
H296 H 0.77776 0.20003 0.43765 0.0
C297 C 0.70766 0.09143 0.50803 0.0
C298 C 0.74463 0.07967 0.47122 0.0
H299 H 0.66751 0.14949 0.54836 0.0
H300 H 0.68771 0.06161 0.52814 0.0
C301 C 0.76936 0.11972 0.44604 0.0
C302 C 0.11976 0.44568 0.76914 0.0
C303 C 0.0797 0.47108 0.74466 0.0
H304 H 0.20008 0.4371 0.77729 0.0
C305 C 0.09143 0.5081 0.7079 0.0
H306 H 0.11222 0.41692 0.79758 0.0
C307 C 0.14192 0.5197 0.69619 0.0
C308 C 0.18198 0.49463 0.72101 0.0
H309 H 0.0616 0.5284 0.68815 0.0
H310 H 0.14946 0.54859 0.66788 0.0
C311 C 0.17025 0.45733 0.75748 0.0
C312 C 0.80416 0.92032 0.00794 0.0
C313 C 0.76719 0.93206 0.97111 0.0
H314 H 0.84431 0.86229 0.04829 0.0
C315 C 0.74249 0.892 0.94593 0.0
H316 H 0.82409 0.95015 0.02805 0.0
C317 C 0.75412 0.84151 0.95761 0.0
C318 C 0.7908 0.82977 0.99472 0.0
H319 H 0.71389 0.89954 0.91734 0.0
H320 H 0.73412 0.81168 0.93756 0.0
C321 C 0.81584 0.86983 0.01956 0.0
C322 C 0.42035 0.50395 0.20765 0.0
C323 C 0.43209 0.54067 0.24471 0.0
H324 H 0.36232 0.46368 0.16742 0.0
C325 C 0.39203 0.56575 0.26952 0.0
H326 H 0.45018 0.48392 0.18763 0.0
C327 C 0.34154 0.55407 0.2579 0.0
C328 C 0.3298 0.51706 0.22112 0.0
H329 H 0.39957 0.59426 0.29821 0.0
H330 H 0.31171 0.57403 0.27798 0.0
C331 C 0.36986 0.49232 0.19598 0.0
C332 C 0.49231 0.19594 0.36989 0.0
C333 C 0.51712 0.221 0.32982 0.0
H334 H 0.48386 0.18766 0.45022 0.0
C335 C 0.55419 0.25771 0.34155 0.0
H336 H 0.46361 0.16744 0.36236 0.0
C337 C 0.56588 0.26933 0.39204 0.0
C338 C 0.54074 0.24461 0.43211 0.0
H339 H 0.57421 0.27772 0.31171 0.0
H340 H 0.59445 0.29796 0.39957 0.0
C341 C 0.50394 0.20762 0.42038 0.0
C342 C 1.00387 0.3042 0.59149 0.0
C343 C 0.04061 0.26716 0.57974 0.0
H344 H 0.9636 0.34442 0.64955 0.0
C345 C 0.06572 0.24237 0.6198 0.0
H346 H 0.98382 0.32421 0.56167 0.0
C347 C 0.05405 0.25399 0.67029 0.0
C348 C 0.01703 0.29075 0.68205 0.0
H349 H 0.09424 0.2137 0.61224 0.0
H350 H 0.07404 0.23392 0.70012 0.0
C351 C 0.99226 0.31588 0.64199 0.0
C352 C 0.01952 0.81591 0.86995 0.0
C353 C 0.99478 0.79079 0.82987 0.0
H354 H 0.0279 0.82424 0.95028 0.0
C355 C 0.95776 0.75402 0.8416 0.0
H356 H 0.04817 0.84446 0.86241 0.0
C357 C 0.94606 0.7424 0.89208 0.0
C358 C 0.97114 0.76719 0.93216 0.0
H359 H 0.93779 0.73396 0.81176 0.0
H360 H 0.91754 0.71372 0.89961 0.0
C361 C 0.00787 0.80423 0.92044 0.0
C362 C 0.4578 0.75784 0.17031 0.0
C363 C 0.49477 0.72103 0.18206 0.0
H364 H 0.41765 0.79816 0.11226 0.0
C365 C 0.5195 0.69586 0.14201 0.0
H366 H 0.43785 0.77794 0.20014 0.0
C367 C 0.50789 0.70753 0.09151 0.0
C368 C 0.4712 0.74462 0.07976 0.0
H369 H 0.54812 0.66728 0.14956 0.0
H370 H 0.52791 0.68749 0.06168 0.0
C371 C 0.44614 0.76945 0.11981 0.0
C372 C 0.09131 0.29143 0.27664 0.0
C373 C 0.11094 0.28539 0.32596 0.0
H374 H 0.09984 0.32772 0.2043 0.0
C375 C 0.16045 0.30185 0.33634 0.0
H376 H 0.05329 0.27852 0.26762 0.0
C377 C 0.18693 0.33035 0.30008 0.0
C378 C 0.16451 0.34174 0.25286 0.0
H379 H 0.17643 0.29766 0.37397 0.0
H380 H 0.22245 0.34808 0.31093 0.0
C381 C 0.11822 0.31892 0.24007 0.0
C382 C 0.97053 0.84149 0.52679 0.0
C383 C 0.9765 0.86112 0.57612 0.0
H384 H 0.93423 0.84995 0.45445 0.0
C385 C 0.9599 0.91059 0.58651 0.0
H386 H 0.98355 0.80351 0.51776 0.0
C387 C 0.93134 0.93699 0.55025 0.0
C388 C 0.92001 0.91456 0.50303 0.0
H389 H 0.96404 0.92656 0.62415 0.0
H390 H 0.9135 0.97246 0.5611 0.0
C391 C 0.94297 0.86834 0.49022 0.0
C392 C 0.32485 0.6812 0.8002 0.0
C393 C 0.34724 0.66989 0.75295 0.0
H394 H 0.33537 0.71384 0.87411 0.0
C395 C 0.39347 0.6928 0.74012 0.0
H396 H 0.28937 0.6634 0.81107 0.0
C397 C 0.42037 0.72031 0.77668 0.0
C398 C 0.40079 0.72628 0.82603 0.0
H399 H 0.41181 0.68406 0.70432 0.0
H400 H 0.45836 0.7333 0.76763 0.0
C401 C 0.35131 0.70972 0.83645 0.0
C402 C 0.5413 0.17024 0.02672 0.0
C403 C 0.53534 0.15062 0.07606 0.0
H404 H 0.57756 0.16175 0.95436 0.0
C405 C 0.5519 0.10113 0.08644 0.0
H406 H 0.5283 0.20822 0.0177 0.0
C407 C 0.58043 0.0747 0.05016 0.0
C408 C 0.59175 0.09713 1.00294 0.0
H409 H 0.54777 0.08517 0.12408 0.0
H410 H 0.59824 0.03922 0.06101 0.0
C411 C 0.56882 0.14337 0.99013 0.0
C412 C 0.59142 0.22046 0.73522 0.0
C413 C 0.61106 0.22648 0.6859 0.0
H414 H 0.59992 0.18417 0.80756 0.0
C415 C 0.66058 0.21 0.67554 0.0
H416 H 0.55341 0.23339 0.74424 0.0
C417 C 0.68703 0.18149 0.71181 0.0
C418 C 0.66459 0.17011 0.75902 0.0
H419 H 0.67656 0.21417 0.63791 0.0
H420 H 0.72255 0.16374 0.70097 0.0
C421 C 0.61831 0.19295 0.7718 0.0
C422 C 0.06893 0.36838 0.02171 0.0
C423 C 0.09182 0.41463 0.0089 0.0
H424 H 0.02843 0.3035 0.99418 0.0
C425 C 0.08048 0.43703 0.96166 0.0
H426 H 0.07769 0.35002 0.05749 0.0
C427 C 0.05196 0.41059 0.9254 0.0
C428 C 0.03542 0.3611 0.9358 0.0
H429 H 0.09828 0.47252 0.95081 0.0
H430 H 0.04782 0.42655 0.88776 0.0
C431 C 0.0414 0.34149 0.98514 0.0
C432 C 0.82474 0.83032 0.21183 0.0
C433 C 0.84715 0.84165 0.25906 0.0
H434 H 0.83523 0.7977 0.13791 0.0
C435 C 0.89341 0.81877 0.27186 0.0
H436 H 0.78924 0.8481 0.201 0.0
C437 C 0.92031 0.79127 0.23527 0.0
C438 C 0.9007 0.7853 0.18593 0.0
H439 H 0.91178 0.82751 0.30764 0.0
H440 H 0.95831 0.77831 0.2443 0.0
C441 C 0.8512 0.80182 0.17555 0.0
C442 C 0.43134 0.57475 0.46167 0.0
C443 C 0.42001 0.59716 0.5089 0.0
H444 H 0.46401 0.58522 0.38777 0.0
C445 C 0.44293 0.64339 0.52172 0.0
H446 H 0.41352 0.53928 0.45082 0.0
C447 C 0.47047 0.67026 0.48515 0.0
C448 C 0.47645 0.65066 0.43581 0.0
H449 H 0.43419 0.66175 0.55751 0.0
H450 H 0.48347 0.70825 0.49419 0.0
C451 C 0.45988 0.60118 0.42541 0.0
C452 C 0.29998 0.18704 0.33035 0.0
C453 C 0.25276 0.16462 0.3417 0.0
H454 H 0.3739 0.17656 0.29774 0.0
C455 C 0.23998 0.11835 0.31883 0.0
H456 H 0.3108 0.22255 0.34813 0.0
C457 C 0.27657 0.09146 0.29134 0.0
C458 C 0.3259 0.11108 0.28536 0.0
H459 H 0.2042 0.09998 0.32759 0.0
H460 H 0.26756 0.05345 0.2784 0.0
C461 C 0.33626 0.16059 0.30187 0.0
C462 C 0.1012 0.08645 0.55199 0.0
C463 C 0.15067 0.07607 0.5354 0.0
H464 H 0.03932 0.06103 0.59837 0.0
C465 C 0.17032 0.02676 0.54138 0.0
H466 H 0.08521 0.12408 0.54785 0.0
C467 C 0.14348 0.99018 0.56894 0.0
C468 C 0.09724 1.00297 0.59187 0.0
H469 H 0.20831 0.01774 0.52837 0.0
H470 H 0.16188 0.95441 0.57768 0.0
C471 C 0.07479 0.05018 0.58054 0.0
C472 C 0.23526 0.92035 0.79141 0.0
C473 C 0.18593 0.90074 0.78542 0.0
H474 H 0.30762 0.91182 0.82764 0.0
C475 C 0.17556 0.85123 0.80191 0.0
H476 H 0.24428 0.95836 0.77846 0.0
C477 C 0.21184 0.82476 0.83039 0.0
C478 C 0.25906 0.84717 0.84174 0.0
H479 H 0.13792 0.83527 0.79777 0.0
H480 H 0.201 0.78925 0.84816 0.0
C481 C 0.27185 0.89344 0.81888 0.0
C482 C 0.43707 0.96159 0.08056 0.0
C483 C 0.41464 0.00882 0.09184 0.0
H484 H 0.42664 0.88768 0.04791 0.0
C485 C 0.36844 0.02163 0.06886 0.0
H486 H 0.47253 0.95074 0.09843 0.0
C487 C 0.3416 0.98506 0.0413 0.0
C488 C 0.36122 0.93572 0.03537 0.0
H489 H 0.35007 0.05742 0.07756 0.0
H490 H 0.30363 0.9941 0.02826 0.0
C491 C 0.41067 0.92533 0.052 0.0
C492 C 0.83635 0.35126 0.70999 0.0
C493 C 0.82595 0.40076 0.7265 0.0
H494 H 0.81096 0.28931 0.66371 0.0
C495 C 0.77663 0.42038 0.72048 0.0
H496 H 0.87398 0.33529 0.71417 0.0
C497 C 0.74007 0.39349 0.69295 0.0
C498 C 0.75288 0.34722 0.6701 0.0
H499 H 0.76759 0.45838 0.73343 0.0
H500 H 0.7043 0.41186 0.68417 0.0
C501 C 0.8001 0.3248 0.68148 0.0
C502 C 0.86838 0.4901 0.94304 0.0
C503 C 0.91464 0.50288 0.92016 0.0
H504 H 0.8035 0.51768 0.98351 0.0
C505 C 0.93708 0.55009 0.93151 0.0
H506 H 0.85 0.45433 0.93428 0.0
C507 C 0.91064 0.58637 0.96002 0.0
C508 C 0.86113 0.57601 0.97653 0.0
H509 H 0.97258 0.56091 0.91372 0.0
H510 H 0.92662 0.624 0.96415 0.0
C511 C 0.8415 0.52669 0.97055 0.0
C512 C 0.71169 0.68697 0.18141 0.0
C513 C 0.75892 0.66457 0.17008 0.0
H514 H 0.63779 0.67648 0.21406 0.0
C515 C 0.77174 0.61831 0.19297 0.0
H516 H 0.70084 0.72246 0.16362 0.0
C517 C 0.73517 0.59142 0.22048 0.0
C518 C 0.68583 0.61103 0.22647 0.0
H519 H 0.80752 0.59996 0.18422 0.0
H520 H 0.7442 0.55343 0.23345 0.0
C521 C 0.67543 0.66052 0.20993 0.0
C522 C 0.60126 0.42537 0.45995 0.0
C523 C 0.65077 0.43573 0.47645 0.0
H524 H 0.5393 0.45081 0.41368 0.0
C525 C 0.67041 0.48505 0.47044 0.0
H526 H 0.58528 0.38774 0.46411 0.0
C527 C 0.64352 0.52163 0.44294 0.0
C528 C 0.59724 0.50885 0.42009 0.0
H529 H 0.70842 0.49405 0.48339 0.0
H530 H 0.66191 0.55739 0.43416 0.0
C531 C 0.57481 0.46164 0.43145 0.0
C532 C 0.29137 0.27666 0.09147 0.0
C533 C 0.28539 0.32598 0.1111 0.0
H534 H 0.32762 0.2043 0.09996 0.0
C535 C 0.30193 0.33635 0.1606 0.0
H536 H 0.2784 0.26764 0.05347 0.0
C537 C 0.33043 0.30008 0.18704 0.0
C538 C 0.34176 0.25286 0.16461 0.0
H539 H 0.29779 0.37399 0.17657 0.0
H540 H 0.34823 0.31092 0.22254 0.0
C541 C 0.31887 0.24007 0.11835 0.0
C542 C 0.81893 0.27171 0.89364 0.0
C543 C 0.84176 0.25894 0.84734 0.0
H544 H 0.77849 0.24414 0.95854 0.0
C545 C 0.83037 0.21175 0.82489 0.0
H546 H 0.82772 0.30747 0.91203 0.0
C547 C 0.80187 0.17548 0.85134 0.0
C548 C 0.78539 0.18583 0.90087 0.0
H549 H 0.84812 0.20093 0.78937 0.0
H550 H 0.79769 0.13786 0.83534 0.0
C551 C 0.79142 0.23514 0.92052 0.0
C552 C 0.08643 0.55193 0.10127 0.0
C553 C 0.07605 0.53538 0.15076 0.0
H554 H 0.06102 0.59825 0.03934 0.0
C555 C 0.02672 0.54137 0.17039 0.0
H556 H 0.12407 0.54778 0.0853 0.0
C557 C 0.99014 0.56889 0.14351 0.0
C558 C 1.00294 0.59178 0.09726 0.0
H559 H 0.0177 0.52838 0.20838 0.0
H560 H 0.95437 0.57764 0.1619 0.0
C561 C 0.05016 0.58045 0.07483 0.0
C562 C 0.70995 0.83627 0.35137 0.0
C563 C 0.7264 0.82591 0.4009 0.0
H564 H 0.66375 0.81083 0.28937 0.0
C565 C 0.72037 0.77659 0.42054 0.0
H566 H 0.71414 0.87389 0.33539 0.0
C567 C 0.69289 0.74001 0.39363 0.0
C568 C 0.67009 0.75279 0.34732 0.0
H569 H 0.73328 0.76758 0.45857 0.0
H570 H 0.6841 0.70425 0.41202 0.0
C571 C 0.68148 0.79999 0.3249 0.0
C572 C 0.52169 0.44294 0.64342 0.0
C573 C 0.50891 0.42005 0.59715 0.0
H574 H 0.4941 0.4834 0.7083 0.0
C575 C 0.46169 0.43139 0.57472 0.0
H576 H 0.55746 0.43419 0.6618 0.0
C577 C 0.42541 0.45989 0.60116 0.0
C578 C 0.43576 0.47641 0.65066 0.0
H579 H 0.45088 0.4136 0.53921 0.0
H580 H 0.38777 0.46401 0.58517 0.0
C581 C 0.48509 0.47044 0.6703 0.0
C582 C 0.22052 0.73517 0.5915 0.0
C583 C 0.22649 0.68584 0.61112 0.0
H584 H 0.18429 0.80753 0.60002 0.0
C585 C 0.20999 0.67547 0.66063 0.0
H586 H 0.23347 0.74419 0.55349 0.0
C587 C 0.18151 0.71176 0.68709 0.0
C588 C 0.17017 0.75898 0.66467 0.0
H589 H 0.21413 0.63784 0.67659 0.0
H590 H 0.16373 0.70092 0.7226 0.0
C591 C 0.19304 0.77176 0.6184 0.0
C592 C 0.55025 0.93124 0.93695 0.0
C593 C 0.50304 0.91991 0.91452 0.0
H594 H 0.62414 0.96394 0.92652 0.0
C595 C 0.49023 0.94282 0.86828 0.0
H596 H 0.5611 0.91343 0.97244 0.0
C597 C 0.5268 0.97037 0.84142 0.0
C598 C 0.57612 0.97638 0.86105 0.0
H599 H 0.45446 0.93407 0.8499 0.0
H600 H 0.51777 0.98337 0.80343 0.0
C601 C 0.58651 0.9598 0.91054 0.0
C602 C 0.92533 0.05188 0.41065 0.0
C603 C 0.93571 0.03531 0.36117 0.0
H604 H 0.95073 0.09825 0.47255 0.0
C605 C 0.98504 0.04131 0.34153 0.0
H606 H 0.88769 0.04773 0.42663 0.0
C607 C 0.0216 0.06886 0.36839 0.0
C608 C 0.0088 0.09178 0.41463 0.0
H609 H 0.99406 0.02831 0.30354 0.0
H610 H 0.05737 0.07761 0.34999 0.0
C611 C 0.96158 0.08043 0.43707 0.0
loop_
_geom_bond_atom_site_label_1
_geom_bond_atom_site_label_2
_geom_bond_distance
_geom_bond_site_symmetry_2
_ccdc_geom_bond_type
O0 Mn1 2.163 . S
O0 C14 1.244 . S
Mn1 O0 2.163 . S
Mn1 O4 2.160 . S
Mn1 O5 2.221 . S
Mn1 O7 2.163 . S
Mn1 O9 2.160 . S
Mn1 O19 2.221 . S
O2 Mn3 2.087 . S
O2 C14 1.256 . S
Mn3 O2 2.087 . S
Mn3 O10 2.089 1_455 S
Mn3 O19 2.290 . S
Mn3 O20 2.251 . S
O4 Mn1 2.160 . S
O4 C15 1.239 . S
O5 Mn1 2.221 . S
O5 Mn6 2.290 . S
O5 C16 1.278 . S
Mn6 O5 2.290 . S
Mn6 O8 2.089 . S
Mn6 O11 2.251 . S
Mn6 O12 2.087 . S
O7 Mn1 2.163 . S
O7 C17 1.244 . S
O8 Mn6 2.089 . S
O8 C15 1.256 . S
O9 Mn1 2.160 . S
O9 C18 1.239 . S
O10 Mn3 2.089 1_655 S
O10 C18 1.256 1_655 S
O11 Mn6 2.251 . S
O11 C16 1.241 . S
O12 Mn6 2.087 . S
O12 C17 1.256 . S
C13 O19 1.278 . S
C13 O20 1.241 . S
C14 O0 1.244 . S
C14 O2 1.256 . S
C15 O4 1.239 . S
C15 O8 1.256 . S
C16 O5 1.278 . S
C16 O11 1.241 . S
C17 O7 1.244 . S
C17 O12 1.256 . S
C18 O9 1.239 . S
C18 O10 1.256 1_455 S
O19 Mn1 2.221 . S
O19 Mn3 2.290 . S
O19 C13 1.278 . S
O20 Mn3 2.251 . S
O20 C13 1.241 . S
O21 Mn22 2.163 . S
O21 C35 1.244 . S
Mn22 O21 2.163 . S
Mn22 O25 2.160 1_455 S
Mn22 O26 2.221 . S
Mn22 O28 2.163 . S
Mn22 O30 2.160 . S
Mn22 O40 2.221 1_455 S
O23 Mn24 2.087 1_455 S
O23 C35 1.256 . S
Mn24 O23 2.087 1_655 S
Mn24 O31 2.089 1_655 S
Mn24 O40 2.290 . S
Mn24 O41 2.251 . S
O25 Mn22 2.160 1_655 S
O25 C36 1.239 . S
O26 Mn22 2.221 . S
O26 Mn27 2.290 . S
O26 C37 1.278 . S
Mn27 O26 2.290 . S
Mn27 O29 2.089 1_565 S
Mn27 O32 2.251 . S
Mn27 O33 2.087 . S
O28 Mn22 2.163 . S
O28 C38 1.244 . S
O29 Mn27 2.089 1_545 S
O29 C36 1.256 1_445 S
O30 Mn22 2.160 . S
O30 C39 1.239 . S
O31 Mn24 2.089 1_455 S
O31 C39 1.256 . S
O32 Mn27 2.251 . S
O32 C37 1.241 . S
O33 Mn27 2.087 . S
O33 C38 1.256 . S
C34 O40 1.278 . S
C34 O41 1.241 . S
C35 O21 1.244 . S
C35 O23 1.256 . S
C36 O25 1.239 . S
C36 O29 1.256 1_665 S
C37 O26 1.278 . S
C37 O32 1.241 . S
C38 O28 1.244 . S
C38 O33 1.256 . S
C39 O30 1.239 . S
C39 O31 1.256 . S
O40 Mn22 2.221 1_655 S
O40 Mn24 2.290 . S
O40 C34 1.278 . S
O41 Mn24 2.251 . S
O41 C34 1.241 . S
O42 Mn43 2.163 . S
O42 C56 1.244 . S
Mn43 O42 2.163 . S
Mn43 O46 2.160 1_556 S
Mn43 O47 2.221 . S
Mn43 O49 2.163 . S
Mn43 O51 2.160 . S
Mn43 O61 2.221 1_556 S
O44 Mn45 2.087 1_556 S
O44 C56 1.256 . S
Mn45 O44 2.087 1_554 S
Mn45 O52 2.089 1_554 S
Mn45 O61 2.290 . S
Mn45 O62 2.251 . S
O46 Mn43 2.160 1_554 S
O46 C57 1.239 . S
O47 Mn43 2.221 . S
O47 Mn48 2.290 . S
O47 C58 1.278 . S
Mn48 O47 2.290 . S
Mn48 O50 2.089 . S
Mn48 O53 2.251 . S
Mn48 O54 2.087 . S
O49 Mn43 2.163 . S
O49 C59 1.244 . S
O50 Mn48 2.089 . S
O50 C57 1.256 1_556 S
O51 Mn43 2.160 . S
O51 C60 1.239 . S
O52 Mn45 2.089 1_556 S
O52 C60 1.256 . S
O53 Mn48 2.251 . S
O53 C58 1.241 . S
O54 Mn48 2.087 . S
O54 C59 1.256 . S
C55 O61 1.278 . S
C55 O62 1.241 . S
C56 O42 1.244 . S
C56 O44 1.256 . S
C57 O46 1.239 . S
C57 O50 1.256 1_554 S
C58 O47 1.278 . S
C58 O53 1.241 . S
C59 O49 1.244 . S
C59 O54 1.256 . S
C60 O51 1.239 . S
C60 O52 1.256 . S
O61 Mn43 2.221 1_554 S
O61 Mn45 2.290 . S
O61 C55 1.278 . S
O62 Mn45 2.251 . S
O62 C55 1.241 . S
O63 Mn64 2.163 . S
O63 C77 1.244 . S
Mn64 O63 2.163 . S
Mn64 O67 2.160 . S
Mn64 O68 2.221 . S
Mn64 O70 2.163 . S
Mn64 O72 2.160 . S
Mn64 O82 2.221 . S
O65 Mn66 2.087 . S
O65 C77 1.256 . S
Mn66 O65 2.087 . S
Mn66 O73 2.089 1_545 S
Mn66 O82 2.290 . S
Mn66 O83 2.251 . S
O67 Mn64 2.160 . S
O67 C78 1.239 . S
O68 Mn64 2.221 . S
O68 Mn69 2.290 . S
O68 C79 1.278 . S
Mn69 O68 2.290 . S
Mn69 O71 2.089 . S
Mn69 O74 2.251 . S
Mn69 O75 2.087 . S
O70 Mn64 2.163 . S
O70 C80 1.244 . S
O71 Mn69 2.089 . S
O71 C78 1.256 . S
O72 Mn64 2.160 . S
O72 C81 1.239 . S
O73 Mn66 2.089 1_565 S
O73 C81 1.256 1_565 S
O74 Mn69 2.251 . S
O74 C79 1.241 . S
O75 Mn69 2.087 . S
O75 C80 1.256 . S
C76 O82 1.278 . S
C76 O83 1.241 . S
C77 O63 1.244 . S
C77 O65 1.256 . S
C78 O67 1.239 . S
C78 O71 1.256 . S
C79 O68 1.278 . S
C79 O74 1.241 . S
C80 O70 1.244 . S
C80 O75 1.256 . S
C81 O72 1.239 . S
C81 O73 1.256 1_545 S
O82 Mn64 2.221 . S
O82 Mn66 2.290 . S
O82 C76 1.278 . S
O83 Mn66 2.251 . S
O83 C76 1.241 . S
O84 Mn85 2.163 . S
O84 C98 1.244 . S
Mn85 O84 2.163 . S
Mn85 O88 2.160 . S
Mn85 O89 2.221 . S
Mn85 O91 2.163 . S
Mn85 O93 2.160 . S
Mn85 O103 2.221 . S
O86 Mn87 2.087 . S
O86 C98 1.256 . S
Mn87 O86 2.087 . S
Mn87 O94 2.089 . S
Mn87 O103 2.290 . S
Mn87 O104 2.251 . S
O88 Mn85 2.160 . S
O88 C99 1.239 . S
O89 Mn85 2.221 . S
O89 Mn90 2.290 . S
O89 C100 1.278 . S
Mn90 O89 2.290 . S
Mn90 O92 2.089 . S
Mn90 O95 2.251 . S
Mn90 O96 2.087 . S
O91 Mn85 2.163 . S
O91 C101 1.244 . S
O92 Mn90 2.089 . S
O92 C99 1.256 . S
O93 Mn85 2.160 . S
O93 C102 1.239 . S
O94 Mn87 2.089 . S
O94 C102 1.256 . S
O95 Mn90 2.251 . S
O95 C100 1.241 . S
O96 Mn90 2.087 . S
O96 C101 1.256 . S
C97 O103 1.278 . S
C97 O104 1.241 . S
C98 O84 1.244 . S
C98 O86 1.256 . S
C99 O88 1.239 . S
C99 O92 1.256 . S
C100 O89 1.278 . S
C100 O95 1.241 . S
C101 O91 1.244 . S
C101 O96 1.256 . S
C102 O93 1.239 . S
C102 O94 1.256 . S
O103 Mn85 2.221 . S
O103 Mn87 2.290 . S
O103 C97 1.278 . S
O104 Mn87 2.251 . S
O104 C97 1.241 . S
O105 Mn106 2.163 . S
O105 C119 1.244 . S
Mn106 O105 2.163 . S
Mn106 O109 2.160 . S
Mn106 O110 2.221 1_655 S
Mn106 O112 2.163 . S
Mn106 O114 2.160 1_655 S
Mn106 O124 2.221 . S
O107 Mn108 2.087 . S
O107 C119 1.256 . S
Mn108 O107 2.087 . S
Mn108 O115 2.089 . S
Mn108 O124 2.290 . S
Mn108 O125 2.251 . S
O109 Mn106 2.160 . S
O109 C120 1.239 . S
O110 Mn106 2.221 1_455 S
O110 Mn111 2.290 . S
O110 C121 1.278 . S
Mn111 O110 2.290 . S
Mn111 O113 2.089 1_455 S
Mn111 O116 2.251 . S
Mn111 O117 2.087 1_455 S
O112 Mn106 2.163 . S
O112 C122 1.244 . S
O113 Mn111 2.089 1_655 S
O113 C120 1.256 . S
O114 Mn106 2.160 1_455 S
O114 C123 1.239 . S
O115 Mn108 2.089 . S
O115 C123 1.256 1_655 S
O116 Mn111 2.251 . S
O116 C121 1.241 . S
O117 Mn111 2.087 1_655 S
O117 C122 1.256 . S
C118 O124 1.278 . S
C118 O125 1.241 . S
C119 O105 1.244 . S
C119 O107 1.256 . S
C120 O109 1.239 . S
C120 O113 1.256 . S
C121 O110 1.278 . S
C121 O116 1.241 . S
C122 O112 1.244 . S
C122 O117 1.256 . S
C123 O114 1.239 . S
C123 O115 1.256 1_455 S
O124 Mn106 2.221 . S
O124 Mn108 2.290 . S
O124 C118 1.278 . S
O125 Mn108 2.251 . S
O125 C118 1.241 . S
O126 Mn127 2.163 . S
O126 C140 1.244 . S
Mn127 O126 2.163 . S
Mn127 O130 2.160 . S
Mn127 O131 2.221 1_554 S
Mn127 O133 2.163 . S
Mn127 O135 2.160 1_554 S
Mn127 O145 2.221 . S
O128 Mn129 2.087 . S
O128 C140 1.256 . S
Mn129 O128 2.087 . S
Mn129 O136 2.089 1_655 S
Mn129 O145 2.290 . S
Mn129 O146 2.251 . S
O130 Mn127 2.160 . S
O130 C141 1.239 . S
O131 Mn127 2.221 1_556 S
O131 Mn132 2.290 . S
O131 C142 1.278 . S
Mn132 O131 2.290 . S
Mn132 O134 2.089 1_556 S
Mn132 O137 2.251 . S
Mn132 O138 2.087 1_556 S
O133 Mn127 2.163 . S
O133 C143 1.244 . S
O134 Mn132 2.089 1_554 S
O134 C141 1.256 . S
O135 Mn127 2.160 1_556 S
O135 C144 1.239 . S
O136 Mn129 2.089 1_455 S
O136 C144 1.256 1_454 S
O137 Mn132 2.251 . S
O137 C142 1.241 . S
O138 Mn132 2.087 1_554 S
O138 C143 1.256 . S
C139 O145 1.278 . S
C139 O146 1.241 . S
C140 O126 1.244 . S
C140 O128 1.256 . S
C141 O130 1.239 . S
C141 O134 1.256 . S
C142 O131 1.278 . S
C142 O137 1.241 . S
C143 O133 1.244 . S
C143 O138 1.256 . S
C144 O135 1.239 . S
C144 O136 1.256 1_656 S
O145 Mn127 2.221 . S
O145 Mn129 2.290 . S
O145 C139 1.278 . S
O146 Mn129 2.251 . S
O146 C139 1.241 . S
O147 Mn148 2.163 . S
O147 C161 1.244 . S
Mn148 O147 2.163 . S
Mn148 O151 2.160 . S
Mn148 O152 2.221 . S
Mn148 O154 2.163 . S
Mn148 O156 2.160 . S
Mn148 O166 2.221 . S
O149 Mn150 2.087 . S
O149 C161 1.256 . S
Mn150 O149 2.087 . S
Mn150 O157 2.089 . S
Mn150 O166 2.290 . S
Mn150 O167 2.251 . S
O151 Mn148 2.160 . S
O151 C162 1.239 . S
O152 Mn148 2.221 . S
O152 Mn153 2.290 . S
O152 C163 1.278 . S
Mn153 O152 2.290 . S
Mn153 O155 2.089 . S
Mn153 O158 2.251 . S
Mn153 O159 2.087 . S
O154 Mn148 2.163 . S
O154 C164 1.244 . S
O155 Mn153 2.089 . S
O155 C162 1.256 . S
O156 Mn148 2.160 . S
O156 C165 1.239 . S
O157 Mn150 2.089 . S
O157 C165 1.256 . S
O158 Mn153 2.251 . S
O158 C163 1.241 . S
O159 Mn153 2.087 . S
O159 C164 1.256 . S
C160 O166 1.278 . S
C160 O167 1.241 . S
C161 O147 1.244 . S
C161 O149 1.256 . S
C162 O151 1.239 . S
C162 O155 1.256 . S
C163 O152 1.278 . S
C163 O158 1.241 . S
C164 O154 1.244 . S
C164 O159 1.256 . S
C165 O156 1.239 . S
C165 O157 1.256 . S
O166 Mn148 2.221 . S
O166 Mn150 2.290 . S
O166 C160 1.278 . S
O167 Mn150 2.251 . S
O167 C160 1.241 . S
O168 Mn169 2.163 . S
O168 C182 1.244 . S
Mn169 O168 2.163 . S
Mn169 O172 2.160 . S
Mn169 O173 2.221 . S
Mn169 O175 2.163 . S
Mn169 O177 2.160 . S
Mn169 O187 2.221 . S
O170 Mn171 2.087 . S
O170 C182 1.256 . S
Mn171 O170 2.087 . S
Mn171 O178 2.089 . S
Mn171 O187 2.290 . S
Mn171 O188 2.251 . S
O172 Mn169 2.160 . S
O172 C183 1.239 . S
O173 Mn169 2.221 . S
O173 Mn174 2.290 . S
O173 C184 1.278 . S
Mn174 O173 2.290 . S
Mn174 O176 2.089 1_554 S
Mn174 O179 2.251 . S
Mn174 O180 2.087 . S
O175 Mn169 2.163 . S
O175 C185 1.244 . S
O176 Mn174 2.089 1_556 S
O176 C183 1.256 1_556 S
O177 Mn169 2.160 . S
O177 C186 1.239 . S
O178 Mn171 2.089 . S
O178 C186 1.256 . S
O179 Mn174 2.251 . S
O179 C184 1.241 . S
O180 Mn174 2.087 . S
O180 C185 1.256 . S
C181 O187 1.278 . S
C181 O188 1.241 . S
C182 O168 1.244 . S
C182 O170 1.256 . S
C183 O172 1.239 . S
C183 O176 1.256 1_554 S
C184 O173 1.278 . S
C184 O179 1.241 . S
C185 O175 1.244 . S
C185 O180 1.256 . S
C186 O177 1.239 . S
C186 O178 1.256 . S
O187 Mn169 2.221 . S
O187 Mn171 2.290 . S
O187 C181 1.278 . S
O188 Mn171 2.251 . S
O188 C181 1.241 . S
O189 Mn190 2.163 . S
O189 C203 1.244 . S
Mn190 O189 2.163 . S
Mn190 O193 2.160 1_545 S
Mn190 O194 2.221 . S
Mn190 O196 2.163 . S
Mn190 O198 2.160 . S
Mn190 O208 2.221 1_545 S
O191 Mn192 2.087 1_545 S
O191 C203 1.256 . S
Mn192 O191 2.087 1_565 S
Mn192 O199 2.089 1_565 S
Mn192 O208 2.290 . S
Mn192 O209 2.251 . S
O193 Mn190 2.160 1_565 S
O193 C204 1.239 . S
O194 Mn190 2.221 . S
O194 Mn195 2.290 . S
O194 C205 1.278 . S
Mn195 O194 2.290 . S
Mn195 O197 2.089 1_556 S
Mn195 O200 2.251 . S
Mn195 O201 2.087 . S
O196 Mn190 2.163 . S
O196 C206 1.244 . S
O197 Mn195 2.089 1_554 S
O197 C204 1.256 1_544 S
O198 Mn190 2.160 . S
O198 C207 1.239 . S
O199 Mn192 2.089 1_545 S
O199 C207 1.256 . S
O200 Mn195 2.251 . S
O200 C205 1.241 . S
O201 Mn195 2.087 . S
O201 C206 1.256 . S
C202 O208 1.278 . S
C202 O209 1.241 . S
C203 O189 1.244 . S
C203 O191 1.256 . S
C204 O193 1.239 . S
C204 O197 1.256 1_566 S
C205 O194 1.278 . S
C205 O200 1.241 . S
C206 O196 1.244 . S
C206 O201 1.256 . S
C207 O198 1.239 . S
C207 O199 1.256 . S
O208 Mn190 2.221 1_565 S
O208 Mn192 2.290 . S
O208 C202 1.278 . S
O209 Mn192 2.251 . S
O209 C202 1.241 . S
O210 Mn211 2.163 . S
O210 C224 1.244 . S
Mn211 O210 2.163 . S
Mn211 O214 2.160 1_565 S
Mn211 O215 2.221 . S
Mn211 O217 2.163 . S
Mn211 O219 2.160 . S
Mn211 O229 2.221 1_565 S
O212 Mn213 2.087 1_565 S
O212 C224 1.256 . S
Mn213 O212 2.087 1_545 S
Mn213 O220 2.089 1_545 S
Mn213 O229 2.290 . S
Mn213 O230 2.251 . S
O214 Mn211 2.160 1_545 S
O214 C225 1.239 . S
O215 Mn211 2.221 . S
O215 Mn216 2.290 . S
O215 C226 1.278 . S
Mn216 O215 2.290 . S
Mn216 O218 2.089 . S
Mn216 O221 2.251 . S
Mn216 O222 2.087 . S
O217 Mn211 2.163 . S
O217 C227 1.244 . S
O218 Mn216 2.089 . S
O218 C225 1.256 1_565 S
O219 Mn211 2.160 . S
O219 C228 1.239 . S
O220 Mn213 2.089 1_565 S
O220 C228 1.256 . S
O221 Mn216 2.251 . S
O221 C226 1.241 . S
O222 Mn216 2.087 . S
O222 C227 1.256 . S
C223 O229 1.278 . S
C223 O230 1.241 . S
C224 O210 1.244 . S
C224 O212 1.256 . S
C225 O214 1.239 . S
C225 O218 1.256 1_545 S
C226 O215 1.278 . S
C226 O221 1.241 . S
C227 O217 1.244 . S
C227 O222 1.256 . S
C228 O219 1.239 . S
C228 O220 1.256 . S
O229 Mn211 2.221 1_545 S
O229 Mn213 2.290 . S
O229 C223 1.278 . S
O230 Mn213 2.251 . S
O230 C223 1.241 . S
O231 Mn232 2.163 . S
O231 C245 1.244 . S
Mn232 O231 2.163 . S
Mn232 O235 2.160 . S
Mn232 O236 2.221 . S
Mn232 O238 2.163 . S
Mn232 O240 2.160 . S
Mn232 O250 2.221 . S
O233 Mn234 2.087 . S
O233 C245 1.256 . S
Mn234 O233 2.087 . S
Mn234 O241 2.089 . S
Mn234 O250 2.290 . S
Mn234 O251 2.251 . S
O235 Mn232 2.160 . S
O235 C246 1.239 . S
O236 Mn232 2.221 . S
O236 Mn237 2.290 . S
O236 C247 1.278 . S
Mn237 O236 2.290 . S
Mn237 O239 2.089 . S
Mn237 O242 2.251 . S
Mn237 O243 2.087 . S
O238 Mn232 2.163 . S
O238 C248 1.244 . S
O239 Mn237 2.089 . S
O239 C246 1.256 . S
O240 Mn232 2.160 . S
O240 C249 1.239 . S
O241 Mn234 2.089 . S
O241 C249 1.256 . S
O242 Mn237 2.251 . S
O242 C247 1.241 . S
O243 Mn237 2.087 . S
O243 C248 1.256 . S
C244 O250 1.278 . S
C244 O251 1.241 . S
C245 O231 1.244 . S
C245 O233 1.256 . S
C246 O235 1.239 . S
C246 O239 1.256 . S
C247 O236 1.278 . S
C247 O242 1.241 . S
C248 O238 1.244 . S
C248 O243 1.256 . S
C249 O240 1.239 . S
C249 O241 1.256 . S
O250 Mn232 2.221 . S
O250 Mn234 2.290 . S
O250 C244 1.278 . S
O251 Mn234 2.251 . S
O251 C244 1.241 . S
C252 C253 1.387 . S
C252 H256 0.950 . S
C252 C261 1.390 . S
C253 C252 1.387 . S
C253 C255 1.387 . S
H254 C261 0.950 . S
C255 C253 1.387 . S
C255 C257 1.390 . S
C255 H259 0.950 . S
H256 C252 0.950 . S
C257 C255 1.390 . S
C257 C258 1.387 . S
C257 H260 0.950 . S
C258 C257 1.387 . S
C258 C261 1.387 . S
H259 C255 0.950 . S
H260 C257 0.950 . S
C261 C252 1.390 . S
C261 H254 0.950 . S
C261 C258 1.387 . S
C262 C263 1.387 . S
C262 H266 0.950 . S
C262 C271 1.390 . S
C263 C262 1.387 . S
C263 C265 1.387 1_565 S
H264 C271 0.950 . S
C265 C263 1.387 1_545 S
C265 C267 1.390 . S
C265 H269 0.950 . S
H266 C262 0.950 . S
C267 C265 1.390 . S
C267 C268 1.387 1_545 S
C267 H270 0.950 . S
C268 C267 1.387 1_565 S
C268 C271 1.387 . S
H269 C265 0.950 . S
H270 C267 0.950 . S
C271 C262 1.390 . S
C271 H264 0.950 . S
C271 C268 1.387 . S
C272 C273 1.387 . S
C272 H276 0.950 . S
C272 C281 1.390 . S
C273 C272 1.387 . S
C273 C275 1.387 1_554 S
H274 C281 0.950 . S
C275 C273 1.387 1_556 S
C275 C277 1.390 . S
C275 H279 0.950 . S
H276 C272 0.950 . S
C277 C275 1.390 . S
C277 C278 1.387 1_556 S
C277 H280 0.950 . S
C278 C277 1.387 1_554 S
C278 C281 1.387 . S
H279 C275 0.950 . S
H280 C277 0.950 . S
C281 C272 1.390 . S
C281 H274 0.950 . S
C281 C278 1.387 . S
C282 C283 1.387 1_565 S
C282 H286 0.950 . S
C282 C291 1.390 . S
C283 C282 1.387 1_545 S
C283 C285 1.387 . S
H284 C291 0.950 . S
C285 C283 1.387 . S
C285 C287 1.390 . S
C285 H289 0.950 . S
H286 C282 0.950 . S
C287 C285 1.390 . S
C287 C288 1.387 . S
C287 H290 0.950 . S
C288 C287 1.387 . S
C288 C291 1.387 1_545 S
H289 C285 0.950 . S
H290 C287 0.950 . S
C291 C282 1.390 . S
C291 H284 0.950 . S
C291 C288 1.387 1_565 S
C292 C293 1.387 . S
C292 H296 0.950 . S
C292 C301 1.390 . S
C293 C292 1.387 . S
C293 C295 1.387 . S
H294 C301 0.950 . S
C295 C293 1.387 . S
C295 C297 1.390 . S
C295 H299 0.950 . S
H296 C292 0.950 . S
C297 C295 1.390 . S
C297 C298 1.387 . S
C297 H300 0.950 . S
C298 C297 1.387 . S
C298 C301 1.387 . S
H299 C295 0.950 . S
H300 C297 0.950 . S
C301 C292 1.390 . S
C301 H294 0.950 . S
C301 C298 1.387 . S
C302 C303 1.387 . S
C302 H306 0.950 . S
C302 C311 1.390 . S
C303 C302 1.387 . S
C303 C305 1.387 . S
H304 C311 0.950 . S
C305 C303 1.387 . S
C305 C307 1.390 . S
C305 H309 0.950 . S
H306 C302 0.950 . S
C307 C305 1.390 . S
C307 C308 1.387 . S
C307 H310 0.950 . S
C308 C307 1.387 . S
C308 C311 1.387 . S
H309 C305 0.950 . S
H310 C307 0.950 . S
C311 C302 1.390 . S
C311 H304 0.950 . S
C311 C308 1.387 . S
C312 C313 1.387 1_554 S
C312 H316 0.950 . S
C312 C321 1.390 . S
C313 C312 1.387 1_556 S
C313 C315 1.387 . S
H314 C321 0.950 . S
C315 C313 1.387 . S
C315 C317 1.390 . S
C315 H319 0.950 . S
H316 C312 0.950 . S
C317 C315 1.390 . S
C317 C318 1.387 . S
C317 H320 0.950 . S
C318 C317 1.387 . S
C318 C321 1.387 1_556 S
H319 C315 0.950 . S
H320 C317 0.950 . S
C321 C312 1.390 . S
C321 H314 0.950 . S
C321 C318 1.387 1_554 S
C322 C323 1.387 . S
C322 H326 0.950 . S
C322 C331 1.390 . S
C323 C322 1.387 . S
C323 C325 1.387 . S
H324 C331 0.950 . S
C325 C323 1.387 . S
C325 C327 1.390 . S
C325 H329 0.950 . S
H326 C322 0.950 . S
C327 C325 1.390 . S
C327 C328 1.387 . S
C327 H330 0.950 . S
C328 C327 1.387 . S
C328 C331 1.387 . S
H329 C325 0.950 . S
H330 C327 0.950 . S
C331 C322 1.390 . S
C331 H324 0.950 . S
C331 C328 1.387 . S
C332 C333 1.387 . S
C332 H336 0.950 . S
C332 C341 1.390 . S
C333 C332 1.387 . S
C333 C335 1.387 . S
H334 C341 0.950 . S
C335 C333 1.387 . S
C335 C337 1.390 . S
C335 H339 0.950 . S
H336 C332 0.950 . S
C337 C335 1.390 . S
C337 C338 1.387 . S
C337 H340 0.950 . S
C338 C337 1.387 . S
C338 C341 1.387 . S
H339 C335 0.950 . S
H340 C337 0.950 . S
C341 C332 1.390 . S
C341 H334 0.950 . S
C341 C338 1.387 . S
C342 C343 1.387 . S
C342 H346 0.950 . S
C342 C351 1.390 . S
C343 C342 1.387 . S
C343 C345 1.387 1_455 S
H344 C351 0.950 . S
C345 C343 1.387 1_655 S
C345 C347 1.390 . S
C345 H349 0.950 . S
H346 C342 0.950 . S
C347 C345 1.390 . S
C347 C348 1.387 1_655 S
C347 H350 0.950 . S
C348 C347 1.387 1_455 S
C348 C351 1.387 . S
H349 C345 0.950 . S
H350 C347 0.950 . S
C351 C342 1.390 . S
C351 H344 0.950 . S
C351 C348 1.387 . S
C352 C353 1.387 1_455 S
C352 H356 0.950 . S
C352 C361 1.390 . S
C353 C352 1.387 1_655 S
C353 C355 1.387 . S
H354 C361 0.950 . S
C355 C353 1.387 . S
C355 C357 1.390 . S
C355 H359 0.950 . S
H356 C352 0.950 . S
C357 C355 1.390 . S
C357 C358 1.387 . S
C357 H360 0.950 . S
C358 C357 1.387 . S
C358 C361 1.387 1_655 S
H359 C355 0.950 . S
H360 C357 0.950 . S
C361 C352 1.390 . S
C361 H354 0.950 . S
C361 C358 1.387 1_455 S
C362 C363 1.387 . S
C362 H366 0.950 . S
C362 C371 1.390 . S
C363 C362 1.387 . S
C363 C365 1.387 . S
H364 C371 0.950 . S
C365 C363 1.387 . S
C365 C367 1.390 . S
C365 H369 0.950 . S
H366 C362 0.950 . S
C367 C365 1.390 . S
C367 C368 1.387 . S
C367 H370 0.950 . S
C368 C367 1.387 . S
C368 C371 1.387 . S
H369 C365 0.950 . S
H370 C367 0.950 . S
C371 C362 1.390 . S
C371 H364 0.950 . S
C371 C368 1.387 . S
C372 C373 1.387 . S
C372 H376 0.950 . S
C372 C381 1.390 . S
C373 C372 1.387 . S
C373 C375 1.387 . S
H374 C381 0.950 . S
C375 C373 1.387 . S
C375 C377 1.390 . S
C375 H379 0.950 . S
H376 C372 0.950 . S
C377 C375 1.390 . S
C377 C378 1.387 . S
C377 H380 0.950 . S
C378 C377 1.387 . S
C378 C381 1.387 . S
H379 C375 0.950 . S
H380 C377 0.950 . S
C381 C372 1.390 . S
C381 H374 0.950 . S
C381 C378 1.387 . S
C382 C383 1.387 . S
C382 H386 0.950 . S
C382 C391 1.390 . S
C383 C382 1.387 . S
C383 C385 1.387 . S
H384 C391 0.950 . S
C385 C383 1.387 . S
C385 C387 1.390 . S
C385 H389 0.950 . S
H386 C382 0.950 . S
C387 C385 1.390 . S
C387 C388 1.387 . S
C387 H390 0.950 . S
C388 C387 1.387 . S
C388 C391 1.387 . S
H389 C385 0.950 . S
H390 C387 0.950 . S
C391 C382 1.390 . S
C391 H384 0.950 . S
C391 C388 1.387 . S
C392 C393 1.387 . S
C392 H396 0.950 . S
C392 C401 1.390 . S
C393 C392 1.387 . S
C393 C395 1.387 . S
H394 C401 0.950 . S
C395 C393 1.387 . S
C395 C397 1.390 . S
C395 H399 0.950 . S
H396 C392 0.950 . S
C397 C395 1.390 . S
C397 C398 1.387 . S
C397 H400 0.950 . S
C398 C397 1.387 . S
C398 C401 1.387 . S
H399 C395 0.950 . S
H400 C397 0.950 . S
C401 C392 1.390 . S
C401 H394 0.950 . S
C401 C398 1.387 . S
C402 C403 1.387 . S
C402 H406 0.950 . S
C402 C411 1.390 . S
C403 C402 1.387 . S
C403 C405 1.387 . S
H404 C411 0.950 1_556 S
C405 C403 1.387 . S
C405 C407 1.390 . S
C405 H409 0.950 . S
H406 C402 0.950 . S
C407 C405 1.390 . S
C407 C408 1.387 1_554 S
C407 H410 0.950 . S
C408 C407 1.387 1_556 S
C408 C411 1.387 1_556 S
H409 C405 0.950 . S
H410 C407 0.950 . S
C411 C402 1.390 . S
C411 H404 0.950 1_554 S
C411 C408 1.387 1_554 S
C412 C413 1.387 . S
C412 H416 0.950 . S
C412 C421 1.390 . S
C413 C412 1.387 . S
C413 C415 1.387 . S
H414 C421 0.950 . S
C415 C413 1.387 . S
C415 C417 1.390 . S
C415 H419 0.950 . S
H416 C412 0.950 . S
C417 C415 1.390 . S
C417 C418 1.387 . S
C417 H420 0.950 . S
C418 C417 1.387 . S
C418 C421 1.387 . S
H419 C415 0.950 . S
H420 C417 0.950 . S
C421 C412 1.390 . S
C421 H414 0.950 . S
C421 C418 1.387 . S
C422 C423 1.387 . S
C422 H426 0.950 . S
C422 C431 1.390 1_554 S
C423 C422 1.387 . S
C423 C425 1.387 1_554 S
H424 C431 0.950 . S
C425 C423 1.387 1_556 S
C425 C427 1.390 . S
C425 H429 0.950 . S
H426 C422 0.950 . S
C427 C425 1.390 . S
C427 C428 1.387 . S
C427 H430 0.950 . S
C428 C427 1.387 . S
C428 C431 1.387 . S
H429 C425 0.950 . S
H430 C427 0.950 . S
C431 C422 1.390 1_556 S
C431 H424 0.950 . S
C431 C428 1.387 . S
C432 C433 1.387 . S
C432 H436 0.950 . S
C432 C441 1.390 . S
C433 C432 1.387 . S
C433 C435 1.387 . S
H434 C441 0.950 . S
C435 C433 1.387 . S
C435 C437 1.390 . S
C435 H439 0.950 . S
H436 C432 0.950 . S
C437 C435 1.390 . S
C437 C438 1.387 . S
C437 H440 0.950 . S
C438 C437 1.387 . S
C438 C441 1.387 . S
H439 C435 0.950 . S
H440 C437 0.950 . S
C441 C432 1.390 . S
C441 H434 0.950 . S
C441 C438 1.387 . S
C442 C443 1.387 . S
C442 H446 0.950 . S
C442 C451 1.390 . S
C443 C442 1.387 . S
C443 C445 1.387 . S
H444 C451 0.950 . S
C445 C443 1.387 . S
C445 C447 1.390 . S
C445 H449 0.950 . S
H446 C442 0.950 . S
C447 C445 1.390 . S
C447 C448 1.387 . S
C447 H450 0.950 . S
C448 C447 1.387 . S
C448 C451 1.387 . S
H449 C445 0.950 . S
H450 C447 0.950 . S
C451 C442 1.390 . S
C451 H444 0.950 . S
C451 C448 1.387 . S
C452 C453 1.387 . S
C452 H456 0.950 . S
C452 C461 1.390 . S
C453 C452 1.387 . S
C453 C455 1.387 . S
H454 C461 0.950 . S
C455 C453 1.387 . S
C455 C457 1.390 . S
C455 H459 0.950 . S
H456 C452 0.950 . S
C457 C455 1.390 . S
C457 C458 1.387 . S
C457 H460 0.950 . S
C458 C457 1.387 . S
C458 C461 1.387 . S
H459 C455 0.950 . S
H460 C457 0.950 . S
C461 C452 1.390 . S
C461 H454 0.950 . S
C461 C458 1.387 . S
C462 C463 1.387 . S
C462 H466 0.950 . S
C462 C471 1.390 . S
C463 C462 1.387 . S
C463 C465 1.387 . S
H464 C471 0.950 . S
C465 C463 1.387 . S
C465 C467 1.390 . S
C465 H469 0.950 . S
H466 C462 0.950 . S
C467 C465 1.390 . S
C467 C468 1.388 1_545 S
C467 H470 0.950 1_545 S
C468 C467 1.388 1_565 S
C468 C471 1.387 1_565 S
H469 C465 0.950 . S
H470 C467 0.950 1_565 S
C471 C462 1.390 . S
C471 H464 0.950 . S
C471 C468 1.387 1_545 S
C472 C473 1.387 . S
C472 H476 0.950 . S
C472 C481 1.390 . S
C473 C472 1.387 . S
C473 C475 1.387 . S
H474 C481 0.950 . S
C475 C473 1.387 . S
C475 C477 1.390 . S
C475 H479 0.950 . S
H476 C472 0.950 . S
C477 C475 1.390 . S
C477 C478 1.387 . S
C477 H480 0.950 . S
C478 C477 1.387 . S
C478 C481 1.387 . S
H479 C475 0.950 . S
H480 C477 0.950 . S
C481 C472 1.390 . S
C481 H474 0.950 . S
C481 C478 1.387 . S
C482 C483 1.387 1_565 S
C482 H486 0.950 . S
C482 C491 1.390 . S
C483 C482 1.387 1_545 S
C483 C485 1.387 . S
H484 C491 0.950 . S
C485 C483 1.387 . S
C485 C487 1.390 1_545 S
C485 H489 0.950 . S
H486 C482 0.950 . S
C487 C485 1.390 1_565 S
C487 C488 1.387 . S
C487 H490 0.950 1_554 S
C488 C487 1.387 . S
C488 C491 1.387 . S
H489 C485 0.950 . S
H490 C487 0.950 1_556 S
C491 C482 1.390 . S
C491 H484 0.950 . S
C491 C488 1.387 . S
C492 C493 1.387 . S
C492 H496 0.950 . S
C492 C501 1.390 . S
C493 C492 1.387 . S
C493 C495 1.387 . S
H494 C501 0.950 . S
C495 C493 1.387 . S
C495 C497 1.390 . S
C495 H499 0.950 . S
H496 C492 0.950 . S
C497 C495 1.390 . S
C497 C498 1.387 . S
C497 H500 0.950 . S
C498 C497 1.387 . S
C498 C501 1.387 . S
H499 C495 0.950 . S
H500 C497 0.950 . S
C501 C492 1.390 . S
C501 H494 0.950 . S
C501 C498 1.387 . S
C502 C503 1.387 . S
C502 H506 0.950 . S
C502 C511 1.390 . S
C503 C502 1.387 . S
C503 C505 1.387 . S
H504 C511 0.950 . S
C505 C503 1.387 . S
C505 C507 1.390 . S
C505 H509 0.950 . S
H506 C502 0.950 . S
C507 C505 1.390 . S
C507 C508 1.387 . S
C507 H510 0.950 . S
C508 C507 1.387 . S
C508 C511 1.387 . S
H509 C505 0.950 . S
H510 C507 0.950 . S
C511 C502 1.390 . S
C511 H504 0.950 . S
C511 C508 1.387 . S
C512 C513 1.387 . S
C512 H516 0.950 . S
C512 C521 1.390 . S
C513 C512 1.387 . S
C513 C515 1.387 . S
H514 C521 0.950 . S
C515 C513 1.387 . S
C515 C517 1.390 . S
C515 H519 0.950 . S
H516 C512 0.950 . S
C517 C515 1.390 . S
C517 C518 1.387 . S
C517 H520 0.950 . S
C518 C517 1.387 . S
C518 C521 1.387 . S
H519 C515 0.950 . S
H520 C517 0.950 . S
C521 C512 1.390 . S
C521 H514 0.950 . S
C521 C518 1.387 . S
C522 C523 1.387 . S
C522 H526 0.950 . S
C522 C531 1.390 . S
C523 C522 1.387 . S
C523 C525 1.387 . S
H524 C531 0.950 . S
C525 C523 1.387 . S
C525 C527 1.390 . S
C525 H529 0.950 . S
H526 C522 0.950 . S
C527 C525 1.390 . S
C527 C528 1.387 . S
C527 H530 0.950 . S
C528 C527 1.387 . S
C528 C531 1.387 . S
H529 C525 0.950 . S
H530 C527 0.950 . S
C531 C522 1.390 . S
C531 H524 0.950 . S
C531 C528 1.387 . S
C532 C533 1.387 . S
C532 H536 0.950 . S
C532 C541 1.390 . S
C533 C532 1.387 . S
C533 C535 1.387 . S
H534 C541 0.950 . S
C535 C533 1.387 . S
C535 C537 1.390 . S
C535 H539 0.950 . S
H536 C532 0.950 . S
C537 C535 1.390 . S
C537 C538 1.387 . S
C537 H540 0.950 . S
C538 C537 1.387 . S
C538 C541 1.387 . S
H539 C535 0.950 . S
H540 C537 0.950 . S
C541 C532 1.390 . S
C541 H534 0.950 . S
C541 C538 1.387 . S
C542 C543 1.387 . S
C542 H546 0.950 . S
C542 C551 1.390 . S
C543 C542 1.387 . S
C543 C545 1.387 . S
H544 C551 0.950 . S
C545 C543 1.387 . S
C545 C547 1.390 . S
C545 H549 0.950 . S
H546 C542 0.950 . S
C547 C545 1.390 . S
C547 C548 1.387 . S
C547 H550 0.950 . S
C548 C547 1.387 . S
C548 C551 1.387 . S
H549 C545 0.950 . S
H550 C547 0.950 . S
C551 C542 1.390 . S
C551 H544 0.950 . S
C551 C548 1.387 . S
C552 C553 1.387 . S
C552 H556 0.950 . S
C552 C561 1.390 . S
C553 C552 1.387 . S
C553 C555 1.387 . S
H554 C561 0.950 1_655 S
C555 C553 1.387 . S
C555 C557 1.390 . S
C555 H559 0.950 . S
H556 C552 0.950 . S
C557 C555 1.390 . S
C557 C558 1.387 1_455 S
C557 H560 0.950 . S
C558 C557 1.387 1_655 S
C558 C561 1.387 1_655 S
H559 C555 0.950 . S
H560 C557 0.950 . S
C561 C552 1.390 . S
C561 H554 0.950 1_455 S
C561 C558 1.387 1_455 S
C562 C563 1.387 . S
C562 H566 0.950 . S
C562 C571 1.390 . S
C563 C562 1.387 . S
C563 C565 1.387 . S
H564 C571 0.950 . S
C565 C563 1.387 . S
C565 C567 1.390 . S
C565 H569 0.950 . S
H566 C562 0.950 . S
C567 C565 1.390 . S
C567 C568 1.387 . S
C567 H570 0.950 . S
C568 C567 1.387 . S
C568 C571 1.387 . S
H569 C565 0.950 . S
H570 C567 0.950 . S
C571 C562 1.390 . S
C571 H564 0.950 . S
C571 C568 1.387 . S
C572 C573 1.387 . S
C572 H576 0.950 . S
C572 C581 1.390 . S
C573 C572 1.387 . S
C573 C575 1.387 . S
H574 C581 0.950 . S
C575 C573 1.387 . S
C575 C577 1.390 . S
C575 H579 0.950 . S
H576 C572 0.950 . S
C577 C575 1.390 . S
C577 C578 1.387 . S
C577 H580 0.950 . S
C578 C577 1.387 . S
C578 C581 1.387 . S
H579 C575 0.950 . S
H580 C577 0.950 . S
C581 C572 1.390 . S
C581 H574 0.950 . S
C581 C578 1.387 . S
C582 C583 1.387 . S
C582 H586 0.950 . S
C582 C591 1.390 . S
C583 C582 1.387 . S
C583 C585 1.387 . S
H584 C591 0.950 . S
C585 C583 1.387 . S
C585 C587 1.390 . S
C585 H589 0.950 . S
H586 C582 0.950 . S
C587 C585 1.390 . S
C587 C588 1.387 . S
C587 H590 0.950 . S
C588 C587 1.387 . S
C588 C591 1.387 . S
H589 C585 0.950 . S
H590 C587 0.950 . S
C591 C582 1.390 . S
C591 H584 0.950 . S
C591 C588 1.387 . S
C592 C593 1.387 . S
C592 H596 0.950 . S
C592 C601 1.390 . S
C593 C592 1.387 . S
C593 C595 1.387 . S
H594 C601 0.950 . S
C595 C593 1.387 . S
C595 C597 1.390 . S
C595 H599 0.950 . S
H596 C592 0.950 . S
C597 C595 1.390 . S
C597 C598 1.387 . S
C597 H600 0.950 . S
C598 C597 1.387 . S
C598 C601 1.387 . S
H599 C595 0.950 . S
H600 C597 0.950 . S
C601 C592 1.390 . S
C601 H594 0.950 . S
C601 C598 1.387 . S
C602 C603 1.387 . S
C602 H606 0.950 . S
C602 C611 1.390 . S
C603 C602 1.387 . S
C603 C605 1.387 . S
H604 C611 0.950 . S
C605 C603 1.387 . S
C605 C607 1.390 . S
C605 H609 0.950 . S
H606 C602 0.950 . S
C607 C605 1.390 . S
C607 C608 1.387 1_655 S
C607 H610 0.950 1_655 S
C608 C607 1.387 1_455 S
C608 C611 1.387 1_455 S
H609 C605 0.950 . S
H610 C607 0.950 1_455 S
C611 C602 1.390 . S
C611 H604 0.950 . S
C611 C608 1.387 1_655 S
C253 C15 1.702 . S
C258 C249 1.701 . S
C263 C207 1.701 1_565 S
C268 C36 1.700 . S
C273 C60 1.701 1_554 S
C278 C183 1.700 . S
C283 C81 1.700 . S
C288 C228 1.701 1_545 S
C293 C102 1.700 . S
C298 C225 1.701 . S
C303 C123 1.700 . S
C308 C246 1.700 . S
C313 C204 1.702 . S
C318 C141 1.702 1_556 S
C323 C162 1.701 . S
C328 C186 1.701 . S
C333 C78 1.702 . S
C338 C99 1.701 . S
C343 C18 1.700 . S
C348 C120 1.701 1_455 S
C353 C39 1.701 1_655 S
C358 C144 1.700 . S
C363 C165 1.702 . S
C368 C57 1.702 . S
C373 C13 1.240 . S
C378 C182 1.281 . S
C383 C34 1.243 . S
C388 C227 1.281 . S
C393 C248 1.284 . S
C398 C58 1.239 . S
C403 C79 1.241 . S
C408 C206 1.281 . S
C413 C100 1.240 . S
C418 C203 1.281 . S
C423 C185 1.281 . S
C428 C121 1.242 . S
C433 C224 1.284 . S
C438 C139 1.239 . S
C443 C245 1.284 . S
C448 C160 1.241 . S
C453 C17 1.284 . S
C458 C76 1.241 . S
C463 C16 1.240 . S
C468 C38 1.284 . S
C473 C37 1.240 . S
C478 C56 1.281 . S
C483 C77 1.283 . S
C488 C55 1.239 . S
C493 C118 1.242 . S
C498 C98 1.284 . S
C503 C119 1.281 . S
C508 C142 1.242 . S
C513 C143 1.284 . S
C518 C163 1.241 . S
C523 C97 1.241 . S
C528 C164 1.284 . S
C533 C184 1.241 . S
C538 C80 1.281 . S
C543 C122 1.281 . S
C548 C205 1.240 . S
C553 C181 1.242 . S
C558 C140 1.283 . S
C563 C226 1.241 . S
C568 C161 1.284 . S
C573 C101 1.281 . S
C578 C247 1.241 . S
C583 C244 1.242 . S
C588 C35 1.281 . S
C593 C59 1.283 . S
C598 C202 1.243 . S
C603 C223 1.241 . S
C608 C14 1.284 . S
