# Generated by pormake.
# Topology snz, (6)-cn, num edge types: 1
# Building blocks:
#     Node 0, Type 0, BuildingBlock: VOLQOD_clean_sbu_1, # of connection points: 6
#     Node 1, Type 0, BuildingBlock: VOLQOD_clean_sbu_1, # of connection points: 6
#     Node 2, Type 0, BuildingBlock: VOLQOD_clean_sbu_1, # of connection points: 6
#     Node 3, Type 0, BuildingBlock: VOLQOD_clean_sbu_1, # of connection points: 6
#     Node 4, Type 0, BuildingBlock: VOLQOD_clean_sbu_1, # of connection points: 6
#     Node 5, Type 0, BuildingBlock: VOLQOD_clean_sbu_1, # of connection points: 6
#     Node 6, Type 0, BuildingBlock: VOLQOD_clean_sbu_1, # of connection points: 6
#     Node 7, Type 0, BuildingBlock: VOLQOD_clean_sbu_1, # of connection points: 6
#     Node 8, Type 0, BuildingBlock: VOLQOD_clean_sbu_1, # of connection points: 6
#     Edge 9, Type (0, 0), BuildingBlock: CIFDUS_clean_linker_0, # of connection points: 2
#     Edge 10, Type (0, 0), BuildingBlock: CIFDUS_clean_linker_0, # of connection points: 2
#     Edge 11, Type (0, 0), BuildingBlock: CIFDUS_clean_linker_0, # of connection points: 2
#     Edge 12, Type (0, 0), BuildingBlock: CIFDUS_clean_linker_0, # of connection points: 2
#     Edge 13, Type (0, 0), BuildingBlock: CIFDUS_clean_linker_0, # of connection points: 2
#     Edge 14, Type (0, 0), BuildingBlock: CIFDUS_clean_linker_0, # of connection points: 2
#     Edge 15, Type (0, 0), BuildingBlock: CIFDUS_clean_linker_0, # of connection points: 2
#     Edge 16, Type (0, 0), BuildingBlock: CIFDUS_clean_linker_0, # of connection points: 2
#     Edge 17, Type (0, 0), BuildingBlock: CIFDUS_clean_linker_0, # of connection points: 2
#     Edge 18, Type (0, 0), BuildingBlock: CIFDUS_clean_linker_0, # of connection points: 2
#     Edge 19, Type (0, 0), BuildingBlock: CIFDUS_clean_linker_0, # of connection points: 2
#     Edge 20, Type (0, 0), BuildingBlock: CIFDUS_clean_linker_0, # of connection points: 2
#     Edge 21, Type (0, 0), BuildingBlock: CIFDUS_clean_linker_0, # of connection points: 2
#     Edge 22, Type (0, 0), BuildingBlock: CIFDUS_clean_linker_0, # of connection points: 2
#     Edge 23, Type (0, 0), BuildingBlock: CIFDUS_clean_linker_0, # of connection points: 2
#     Edge 24, Type (0, 0), BuildingBlock: CIFDUS_clean_linker_0, # of connection points: 2
#     Edge 25, Type (0, 0), BuildingBlock: CIFDUS_clean_linker_0, # of connection points: 2
#     Edge 26, Type (0, 0), BuildingBlock: CIFDUS_clean_linker_0, # of connection points: 2
#     Edge 27, Type (0, 0), BuildingBlock: CIFDUS_clean_linker_0, # of connection points: 2
#     Edge 28, Type (0, 0), BuildingBlock: CIFDUS_clean_linker_0, # of connection points: 2
#     Edge 29, Type (0, 0), BuildingBlock: CIFDUS_clean_linker_0, # of connection points: 2
#     Edge 30, Type (0, 0), BuildingBlock: CIFDUS_clean_linker_0, # of connection points: 2
#     Edge 31, Type (0, 0), BuildingBlock: CIFDUS_clean_linker_0, # of connection points: 2
#     Edge 32, Type (0, 0), BuildingBlock: CIFDUS_clean_linker_0, # of connection points: 2
#     Edge 33, Type (0, 0), BuildingBlock: CIFDUS_clean_linker_0, # of connection points: 2
#     Edge 34, Type (0, 0), BuildingBlock: CIFDUS_clean_linker_0, # of connection points: 2
#     Edge 35, Type (0, 0), BuildingBlock: CIFDUS_clean_linker_0, # of connection points: 2
# Relax obj value: 0.409
# Max RMSD: 0.302
# Mean RMSD: 0.293
data_MOF--net-snz--node1-VOLQOD_clean_sbu_1--edge1-CIFDUS_clean_linker_0
_symmetry_space_group_name_H-M    P1
_symmetry_Int_Tables_number       1
_symmetry_cell_setting            triclinic
loop_
_symmetry_equiv_pos_as_xyz
'x, y, z'
_cell_length_a     46.826317
_cell_length_b     47.355191
_cell_length_c     14.407711
_cell_angle_alpha  90.068322
_cell_angle_beta   89.873569
_cell_angle_gamma 120.52116
loop_
_atom_site_label
_atom_site_type_symbol
_atom_site_fract_x
_atom_site_fract_y
_atom_site_fract_z
_atom_type_partial_charge
O0 O 0.05434 0.50596 0.95237 0.0
Zn1 Zn 0.03043 0.52715 0.89699 0.0
O2 O 0.98562 0.50652 0.94792 0.0
Zn3 Zn 0.95551 0.50242 0.85254 0.0
Zn4 Zn 0.97216 0.46359 -0.00329 0.0
Zn5 Zn 0.98408 0.53291 0.04387 0.0
O6 O 0.92907 0.52333 0.88519 0.0
O7 O 0.94967 0.54525 0.02251 0.0
O8 O 0.02628 0.51988 0.7589 0.0
O9 O 0.98062 0.52248 0.73786 0.0
O10 O 0.9257 0.45566 0.8164 0.0
O11 O 0.94075 0.42824 0.90991 0.0
O12 O 0.95378 0.45691 0.12627 0.0
O13 O 0.05801 0.57524 0.93416 0.0
O14 O 0.97555 0.5096 0.16207 0.0
O15 O 0.0275 0.57351 0.05483 0.0
C16 C 0.04349 0.47974 -0.00063 0.0
C17 C 0.92976 0.53979 0.95583 0.0
C18 C 0.92373 0.42905 0.8421 0.0
C19 C 0.0047 0.52022 0.70592 0.0
C20 C 0.9619 0.47968 0.18537 0.0
C21 C 0.05391 0.58819 0.00689 0.0
O22 O 0.01281 0.46121 0.01698 0.0
O23 O 0.51414 0.5484 0.18852 0.0
Zn24 Zn 0.49453 0.50134 0.14781 0.0
O25 O 0.51945 0.48194 0.20055 0.0
Zn26 Zn 0.5383 0.4661 0.11034 0.0
Zn27 Zn 0.55597 0.51426 0.27117 0.0
Zn28 Zn 0.49067 0.44471 0.27427 0.0
O29 O 0.51985 0.41752 0.1098 0.0
O30 O 0.47901 0.40292 0.21074 0.0
O31 O 0.49471 0.49906 0.00807 0.0
O32 O 0.52267 0.47281 -0.00651 0.0
O33 O 0.58792 0.49329 0.09714 0.0
O34 O 0.5987 0.53207 0.20059 0.0
O35 O 0.55698 0.4968 0.39517 0.0
O36 O 0.44732 0.47818 0.19613 0.0
O37 O 0.51111 0.44758 0.39569 0.0
O38 O 0.44811 0.44343 0.29783 0.0
C39 C 0.53454 0.56395 0.2536 0.0
C40 C 0.49335 0.39557 0.14836 0.0
C41 C 0.60786 0.52089 0.13375 0.0
C42 C 0.50675 0.48527 0.95877 0.0
C43 C 0.53694 0.46998 0.43536 0.0
C44 C 0.43342 0.45682 0.26 0.0
O45 O 0.55039 0.55237 0.29437 0.0
O46 O 0.454 0.97213 0.93579 0.0
Zn47 Zn 0.50229 -0.00528 0.89397 0.0
O48 O 0.52846 0.03657 0.95569 0.0
Zn49 Zn 0.54111 0.07297 0.87584 0.0
Zn50 Zn 0.50396 0.04015 0.05358 0.0
Zn51 Zn 0.57039 0.04239 -0.00615 0.0
O52 O 0.58887 0.10738 0.88982 0.0
O53 O 0.60479 0.071 0.89855 0.0
O54 O 0.5101 0.00187 0.75629 0.0
O55 O 0.53825 0.05643 0.74968 0.0
O56 O 0.5119 0.09188 0.8885 0.0
O57 O 0.48891 0.07215 0.02563 0.0
O58 O 0.53157 0.05205 0.16596 0.0
O59 O 0.51808 0.9643 0.93379 0.0
O60 O 0.58117 0.06046 0.12312 0.0
O61 O 0.56596 -0.00181 0.00329 0.0
C62 C 0.44401 0.97407 0.0169 0.0
C63 C 0.60946 0.09842 0.86897 0.0
C64 C 0.4929 0.08977 0.95462 0.0
C65 C 0.52639 0.02859 0.71099 0.0
C66 C 0.56141 0.06033 0.18414 0.0
C67 C 0.54389 0.96959 -0.02252 0.0
O68 O 0.46253 -0.00281 0.0722 0.0
O69 O 0.72232 0.91756 0.26769 0.0
Zn70 Zn 0.70648 0.86906 0.26327 0.0
O71 O 0.66017 0.84265 0.30544 0.0
Zn72 Zn 0.65574 0.80987 0.39047 0.0
Zn73 Zn 0.64708 0.86996 0.36699 0.0
Zn74 Zn 0.62934 0.82169 0.20651 0.0
O75 O 0.62332 0.76467 0.34784 0.0
O76 O 0.60114 0.77298 0.22251 0.0
O77 O 0.73682 0.86013 0.34125 0.0
O78 O 0.69987 0.81524 0.41667 0.0
O79 O 0.64278 0.81688 0.51472 0.0
O80 O 0.64979 0.86668 0.50289 0.0
O81 O 0.60306 0.86266 0.32667 0.0
O82 O 0.70954 0.85921 0.12979 0.0
O83 O 0.60061 0.84145 0.18788 0.0
O84 O 0.6558 0.82954 0.0939 0.0
C85 C 0.70699 0.93173 0.29599 0.0
C86 C 0.60258 0.75376 0.28142 0.0
C87 C 0.64634 0.84283 0.55157 0.0
C88 C 0.7297 0.83691 0.39821 0.0
C89 C 0.59089 0.85525 0.24537 0.0
C90 C 0.68627 0.84337 0.07201 0.0
O91 O 0.67857 0.91572 0.3335 0.0
O92 O 0.10583 0.83947 0.33236 0.0
Zn93 Zn 0.15225 0.86266 0.27769 0.0
O94 O 0.17844 0.84294 0.32209 0.0
Zn95 Zn 0.21662 0.87453 0.3907 0.0
Zn96 Zn 0.15048 0.80511 0.39778 0.0
Zn97 Zn 0.19605 0.82898 0.22323 0.0
O98 O 0.26016 0.88732 0.33115 0.0
O99 O 0.24583 0.85154 0.21654 0.0
O100 O 0.17176 0.90911 0.32556 0.0
O101 O 0.21365 0.9142 0.41059 0.0
O102 O 0.21594 0.85885 0.51742 0.0
O103 O 0.16905 0.81083 0.52399 0.0
O104 O 0.14263 0.76321 0.33983 0.0
O105 O 0.15092 0.86275 0.13719 0.0
O106 O 0.17553 0.78029 0.2163 0.0
O107 O 0.18354 0.84198 0.11073 0.0
C108 C 0.09248 0.8168 0.39294 0.0
C109 C 0.26794 0.87543 0.26313 0.0
C110 C 0.19483 0.83382 0.56219 0.0
C111 C 0.19547 0.92515 0.38214 0.0
C112 C 0.15431 0.75726 0.26736 0.0
C113 C 0.16664 0.8543 0.08235 0.0
O114 O 0.10707 0.80207 0.422 0.0
O115 O 0.14335 0.27933 0.39456 0.0
Zn116 Zn 0.129 0.309 0.33433 0.0
O117 O 0.15373 0.35379 0.38619 0.0
Zn118 Zn 0.12368 0.36265 0.4541 0.0
Zn119 Zn 0.18829 0.35804 0.46446 0.0
Zn120 Zn 0.17699 0.388 0.29634 0.0
O121 O 0.11985 0.39877 0.39469 0.0
O122 O 0.158 0.41717 0.28376 0.0
O123 O 0.07959 0.28821 0.35691 0.0
O124 O 0.07802 0.32354 0.45535 0.0
O125 O 0.13804 0.37323 0.58479 0.0
O126 O 0.18785 0.37817 0.58271 0.0
O127 O 0.23352 0.384 0.4105 0.0
O128 O 0.13596 0.31098 0.19651 0.0
O129 O 0.22691 0.41394 0.30505 0.0
O130 O 0.16829 0.36501 0.17965 0.0
C131 C 0.16341 0.2855 0.46162 0.0
C132 C 0.13473 0.41798 0.32698 0.0
C133 C 0.16509 0.38024 0.62421 0.0
C134 C 0.06365 0.29657 0.41113 0.0
C135 C 0.2456 0.40676 0.35047 0.0
C136 C 0.15305 0.33624 0.14639 0.0
O137 O 0.18078 0.31424 0.49436 0.0
O138 O 0.37981 0.23974 0.74703 0.0
Zn139 Zn 0.35257 0.1952 0.68934 0.0
O140 O 0.30776 0.17069 0.74267 0.0
Zn141 Zn 0.30284 0.13353 0.81031 0.0
Zn142 Zn 0.30095 0.19976 0.8193 0.0
Zn143 Zn 0.27293 0.1538 0.65284 0.0
O144 O 0.27154 0.09098 0.74946 0.0
O145 O 0.24668 0.10495 0.64396 0.0
O146 O 0.37865 0.17331 0.71865 0.0
O147 O 0.34633 0.13576 0.82183 0.0
O148 O 0.28759 0.13396 0.93705 0.0
O149 O 0.28418 0.17911 0.93986 0.0
O150 O 0.26873 0.21129 0.7663 0.0
O151 O 0.35046 0.19848 0.55188 0.0
O152 O 0.24333 0.17276 0.65954 0.0
O153 O 0.29564 0.16745 0.53536 0.0
C154 C 0.37322 0.25278 0.81461 0.0
C155 C 0.25034 0.08329 0.68504 0.0
C156 C 0.28136 0.15382 -0.02113 0.0
C157 C 0.3737 0.15155 0.77849 0.0
C158 C 0.24615 0.19696 0.70554 0.0
C159 C 0.32459 0.18422 0.50193 0.0
O160 O 0.34421 0.2398 0.84887 0.0
O161 O 0.73243 0.22425 0.42055 0.0
Zn162 Zn 0.7761 0.23717 0.35312 0.0
O163 O 0.78683 0.20303 0.38402 0.0
Zn164 Zn 0.81799 0.21632 0.48001 0.0
Zn165 Zn 0.74534 0.16755 0.42539 0.0
Zn166 Zn 0.80224 0.18789 0.28431 0.0
O167 O 0.85677 0.21133 0.44828 0.0
O168 O 0.85159 0.20506 0.29525 0.0
O169 O 0.81024 0.28138 0.40896 0.0
O170 O 0.83542 0.26311 0.50068 0.0
O171 O 0.79639 0.1973 0.60054 0.0
O172 O 0.74277 0.16947 0.56483 0.0
O173 O 0.73819 0.1249 0.3837 0.0
O174 O 0.77197 0.23697 0.2121 0.0
O175 O 0.77884 0.13837 0.28196 0.0
O176 O 0.78986 0.2028 0.17063 0.0
C177 C 0.70787 0.19509 0.41638 0.0
C178 C 0.86858 0.21049 0.36922 0.0
C179 C 0.766 0.18199 0.62432 0.0
C180 C 0.83119 0.2861 0.47247 0.0
C181 C 0.7533 0.11693 0.32559 0.0
C182 C 0.77809 0.22114 0.1508 0.0
O183 O 0.71132 0.1748 0.36762 0.0
O184 O 0.83533 0.64839 0.76118 0.0
Zn185 Zn 0.81714 0.67794 0.73537 0.0
O186 O 0.84711 0.72229 0.78483 0.0
Zn187 Zn 0.8218 0.73481 0.8617 0.0
Zn188 Zn 0.8833 0.72338 0.85073 0.0
Zn189 Zn 0.86721 0.75534 0.69118 0.0
O190 O 0.81373 0.76814 0.80063 0.0
O191 O 0.8518 0.78771 0.68971 0.0
O192 O 0.77313 0.65568 0.80325 0.0
O193 O 0.77823 0.69559 0.89497 0.0
O194 O 0.84391 0.75034 -0.01729 0.0
O195 O 0.8846 0.73901 -0.0212 0.0
O196 O 0.92729 0.74967 0.7852 0.0
O197 O 0.81217 0.67935 0.59641 0.0
O198 O 0.91641 0.77642 0.67855 0.0
O199 O 0.85111 0.73172 0.57619 0.0
C200 C 0.85699 0.65132 0.81963 0.0
C201 C 0.8284 0.78795 0.73393 0.0
C202 C 0.86725 0.74853 0.02173 0.0
C203 C 0.76208 0.66594 0.86787 0.0
C204 C 0.93658 0.76981 0.7178 0.0
C205 C 0.83031 0.70375 0.54438 0.0
O206 O 0.87539 0.67814 0.86196 0.0
H207 H 0.94908 0.48402 0.60934 0.0
H208 H 0.0557 0.53332 0.58679 0.0
H209 H 0.05069 0.51806 0.42214 0.0
H210 H 0.01599 0.49705 0.28284 0.0
H211 H 0.90977 0.4505 0.30519 0.0
H212 H 0.91434 0.45731 0.47446 0.0
C213 C 0.97128 0.4916 0.56827 0.0
C214 C 0.0028 0.51081 0.60833 0.0
C215 C 0.96811 0.4827 0.47506 0.0
C216 C 0.0313 0.51921 0.5561 0.0
C217 C 0.02839 0.51036 0.46262 0.0
C218 C 0.99388 0.48748 0.32567 0.0
C219 C 0.96261 0.47329 0.28354 0.0
C220 C -0.00306 0.49288 0.42119 0.0
C221 C 0.93392 0.46109 0.33759 0.0
C222 C 0.93664 0.46544 0.43361 0.0
H223 H 0.4985 0.43669 0.84914 0.0
H224 H 0.51511 0.53501 0.84558 0.0
H225 H 0.53116 0.54042 0.68146 0.0
H226 H 0.54341 0.51801 0.54407 0.0
H227 H 0.52551 0.41922 0.54746 0.0
H228 H 0.50903 0.41371 0.71105 0.0
C229 C 0.50504 0.45907 0.81159 0.0
C230 C 0.50579 0.48549 0.858 0.0
C231 C 0.51555 0.46238 0.72 0.0
C232 C 0.51397 0.51431 0.80993 0.0
C233 C 0.52383 0.5176 0.71725 0.0
C234 C 0.53694 0.49569 0.58174 0.0
C235 C 0.53659 0.46934 0.536 0.0
C236 C 0.5257 0.49216 0.6729 0.0
C237 C 0.52679 0.43998 0.58321 0.0
C238 C 0.51677 0.43666 0.67549 0.0
H239 H 0.56996 0.08028 0.60779 0.0
H240 H 0.50152 0.97571 0.59444 0.0
H241 H 0.51324 0.9762 0.42896 0.0
H242 H 0.53685 0.0074 0.28669 0.0
H243 H 0.6006 0.11231 0.29696 0.0
H244 H 0.59784 0.1107 0.46746 0.0
C245 C 0.55753 0.05751 0.56893 0.0
C246 C 0.53414 0.02808 0.61249 0.0
C247 C 0.56398 0.05811 0.47428 0.0
C248 C 0.51908 -0.00128 0.56185 0.0
C249 C 0.52589 -0.00103 0.46763 0.0
C250 C 0.55088 0.02972 0.32698 0.0
C251 C 0.56888 0.0599 0.28146 0.0
C252 C 0.54751 0.02864 0.42304 0.0
C253 C 0.58691 0.08891 0.33209 0.0
C254 C 0.58492 0.08794 0.42885 0.0
H255 H 0.66612 0.8095 0.65889 0.0
H256 H 0.64623 0.88921 0.66368 0.0
H257 H 0.66576 0.90156 0.82392 0.0
H258 H 0.68418 0.88684 0.96441 0.0
H259 H 0.69952 0.80457 0.96342 0.0
H260 H 0.68777 0.79698 0.7965 0.0
C261 C 0.66562 0.82933 0.69519 0.0
C262 C 0.65407 0.848 0.65062 0.0
C263 C 0.67721 0.83648 0.78605 0.0
C264 C 0.65448 0.87418 0.69754 0.0
C265 C 0.66599 0.88149 0.78839 0.0
C266 C 0.68627 0.86818 0.92619 0.0
C267 C 0.69322 0.84663 -0.02628 0.0
C268 C 0.67722 0.86268 0.83313 0.0
C269 C 0.69502 0.82182 0.92623 0.0
C270 C 0.68762 0.81712 0.83185 0.0
H271 H 0.14173 0.81638 0.66927 0.0
H272 H 0.24832 0.86176 0.67598 0.0
H273 H 0.24894 0.87903 0.83643 0.0
H274 H 0.21911 0.88014 -0.0268 0.0
H275 H 0.11256 0.83305 -0.0296 0.0
H276 H 0.11194 0.81952 0.80546 0.0
C277 C 0.16499 0.82926 0.70683 0.0
C278 C 0.19492 0.83705 0.66271 0.0
C279 C 0.16519 0.84012 0.79695 0.0
C280 C 0.22504 0.85487 0.71018 0.0
C281 C 0.22541 0.86523 0.80074 0.0
C282 C 0.19586 0.86774 0.93534 0.0
C283 C 0.16593 0.85753 -0.01771 0.0
C284 C 0.19569 0.85824 0.84402 0.0
C285 C 0.13583 0.8415 0.93424 0.0
C286 C 0.13549 0.83309 0.84113 0.0
H287 H 0.11715 0.33753 0.73437 0.0
H288 H 0.21697 0.42035 0.73348 0.0
H289 H 0.22395 0.40947 0.89538 0.0
H290 H 0.20193 0.37582 0.03328 0.0
H291 H 0.10193 0.29326 0.03634 0.0
H292 H 0.09544 0.3029 0.87265 0.0
C293 C 0.14 0.35376 0.77092 0.0
C294 C 0.16626 0.38024 0.72449 0.0
C295 C 0.14429 0.3463 0.86133 0.0
C296 C 0.1963 0.40044 0.76998 0.0
C297 C 0.20047 0.39379 0.86121 0.0
C298 C 0.17891 0.35959 -0.0026 0.0
C299 C 0.15231 0.33412 0.04572 0.0
C300 C 0.17483 0.36647 0.90652 0.0
C301 C 0.12276 0.31283 -0.00059 0.0
C302 C 0.11882 0.31882 0.90697 0.0
H303 H 0.29501 0.1318 0.39647 0.0
H304 H 0.35726 0.23704 0.38772 0.0
H305 H 0.34576 0.23666 0.22128 0.0
H306 H 0.31477 0.20643 0.08465 0.0
H307 H 0.25289 0.10097 0.0936 0.0
H308 H 0.26588 0.10133 0.25844 0.0
C309 C 0.30651 0.15454 0.35719 0.0
C310 C 0.32674 0.18442 0.40211 0.0
C311 C 0.2986 0.15409 0.26452 0.0
C312 C 0.34192 0.21388 0.35266 0.0
C313 C 0.33479 0.21364 0.25877 0.0
C314 C 0.3034 0.1836 0.12341 0.0
C315 C 0.28216 0.15372 0.0792 0.0
C316 C 0.31229 0.18397 0.21534 0.0
C317 C 0.26861 0.12415 0.12812 0.0
C318 C 0.27648 0.12437 0.22112 0.0
H319 H 0.73332 0.17114 0.04867 0.0
H320 H 0.80831 0.27346 0.03545 0.0
H321 H 0.80893 0.27047 0.86563 0.0
H322 H 0.7946 0.23648 0.72591 0.0
H323 H 0.71915 0.13421 0.7369 0.0
H324 H 0.71162 0.13924 0.90384 0.0
C325 C 0.74885 0.19297 0.00791 0.0
C326 C 0.77075 0.22248 0.05306 0.0
C327 C 0.74945 0.19076 0.91114 0.0
C328 C 0.79105 0.25071 0.00115 0.0
C329 C 0.79169 0.24883 0.90455 0.0
C330 C 0.77642 0.21535 0.76509 0.0
C331 C 0.75832 0.18471 0.72131 0.0
C332 C 0.77215 0.21863 0.85961 0.0
C333 C 0.73384 0.15775 0.77065 0.0
C334 C 0.72956 0.1607 0.86556 0.0
H335 H 0.88279 0.72403 0.4374 0.0
H336 H 0.77656 0.68018 0.43002 0.0
H337 H 0.77952 0.69401 0.26454 0.0
H338 H 0.8131 0.72236 0.12818 0.0
H339 H 0.91957 0.76673 0.13742 0.0
H340 H 0.91611 0.75064 0.30039 0.0
C341 C 0.86024 0.71684 0.39855 0.0
C342 C 0.8295 0.70112 0.44403 0.0
C343 C 0.86246 0.7264 0.30654 0.0
C344 C 0.80031 0.69179 0.39484 0.0
C345 C 0.80217 0.70037 0.30143 0.0
C346 C 0.83563 0.72931 0.16665 0.0
C347 C 0.8667 0.74647 0.12256 0.0
C348 C 0.83324 0.71869 0.25794 0.0
C349 C 0.8956 0.75422 0.17145 0.0
C350 C 0.89353 0.74453 0.26351 0.0
H351 H 0.14986 0.44992 0.16111 0.0
H352 H 0.08688 0.42764 0.40232 0.0
H353 H 0.0538 0.44616 0.32108 0.0
H354 H 0.03879 0.46207 0.17662 0.0
H355 H 0.10123 0.4852 0.93502 0.0
H356 H 0.13858 0.4725 0.02138 0.0
C357 C 0.12936 0.44978 0.19675 0.0
C358 C 0.1205 0.43684 0.28715 0.0
C359 C 0.10994 0.45974 0.14889 0.0
C360 C 0.09402 0.43711 0.33244 0.0
C361 C 0.07492 0.44745 0.28585 0.0
C362 C 0.06057 0.46422 0.14289 0.0
C363 C 0.06695 0.47347 0.04925 0.0
C364 C 0.08189 0.45751 0.19309 0.0
C365 C 0.09574 0.47747 0.00679 0.0
C366 C 0.11702 0.47035 0.05618 0.0
H367 H 0.52611 0.60704 0.14931 0.0
H368 H 0.55988 0.59498 0.41699 0.0
H369 H 0.58042 0.65234 0.45344 0.0
H370 H 0.59455 0.70682 0.40264 0.0
H371 H 0.56355 0.72037 0.1325 0.0
H372 H 0.53566 0.66136 0.10433 0.0
C373 C 0.53742 0.61688 0.21619 0.0
C374 C 0.54195 0.59703 0.27975 0.0
C375 C 0.54992 0.65014 0.23597 0.0
C376 C 0.5566 0.60998 0.36629 0.0
C377 C 0.56835 0.64275 0.38727 0.0
C378 C 0.58142 0.6969 0.33788 0.0
C379 C 0.58163 0.71799 0.26918 0.0
C380 C 0.56612 0.66323 0.32144 0.0
C381 C 0.564 0.70466 0.18633 0.0
C382 C 0.54814 0.67094 0.17 0.0
H383 H 0.42026 0.96648 0.19154 0.0
H384 H 0.39156 0.92713 0.91478 0.0
H385 H 0.33468 0.89054 0.96894 0.0
H386 H 0.29243 0.87298 0.09311 0.0
H387 H 0.32219 0.9147 0.36727 0.0
H388 H 0.37957 0.94703 0.31565 0.0
C389 C 0.40169 0.94987 0.14269 0.0
C390 C 0.41011 0.94988 0.04887 0.0
C391 C 0.36922 0.92935 0.17393 0.0
C392 C 0.38573 0.92776 -0.01274 0.0
C393 C 0.3532 0.90689 0.01819 0.0
C394 C 0.31158 0.88876 0.14184 0.0
C395 C 0.30303 0.89156 0.23385 0.0
C396 C 0.34456 0.90789 0.11113 0.0
C397 C 0.32807 0.91227 0.296 0.0
C398 C 0.36088 0.9308 0.26654 0.0
H399 H 0.49324 0.12693 0.81059 0.0
H400 H 0.44495 0.08529 0.07238 0.0
H401 H 0.40434 0.10177 0.04134 0.0
H402 H 0.38002 0.12386 0.93488 0.0
H403 H 0.42793 0.16549 0.67308 0.0
H404 H 0.4713 0.15293 0.70923 0.0
C405 C 0.47412 0.12181 0.86152 0.0
C406 C 0.47194 0.10456 0.94319 0.0
C407 C 0.45054 0.1309 0.8427 0.0
C408 C 0.44715 0.0984 0.00873 0.0
C409 C 0.42377 0.10764 -0.00915 0.0
C410 C 0.39993 0.13016 0.88561 0.0
C411 C 0.40052 0.14506 0.8008 0.0
C412 C 0.42476 0.1231 0.90705 0.0
C413 C 0.42684 0.15377 0.73857 0.0
C414 C 0.45162 0.14663 0.75921 0.0
H415 H 0.8525 0.29209 0.64725 0.0
H416 H 0.84499 0.34829 0.42278 0.0
H417 H 0.87155 0.39772 0.52064 0.0
H418 H 0.89838 0.4246 0.66878 0.0
H419 H 0.9045 0.36639 0.89038 0.0
H420 H 0.87638 0.31756 0.79386 0.0
C421 C 0.85691 0.31517 0.61869 0.0
C422 C 0.84745 0.31672 0.52704 0.0
C423 C 0.87161 0.3429 0.67505 0.0
C424 C 0.85243 0.34662 0.49272 0.0
C425 C 0.86752 0.37476 0.5487 0.0
C426 C 0.89321 0.40115 0.69634 0.0
C427 C 0.90363 0.39913 0.78671 0.0
C428 C 0.87734 0.37314 0.63992 0.0
C429 C 0.89691 0.36864 0.82112 0.0
C430 C 0.88092 0.34074 0.76593 0.0
H431 H 0.72906 0.59893 0.86206 0.0
H432 H 0.72851 0.68035 -0.00403 0.0
H433 H 0.68335 0.64263 0.09656 0.0
H434 H 0.64375 0.58695 0.1459 0.0
H435 H 0.64196 0.50483 0.00981 0.0
H436 H 0.6889 0.54252 0.91233 0.0
C437 C 0.7188 0.60841 0.91246 0.0
C438 C 0.73213 0.64249 0.92083 0.0
C439 C 0.69286 0.58653 -0.02899 0.0
C440 C 0.71873 0.65429 -0.01252 0.0
C441 C 0.69301 0.63274 0.04562 0.0
C442 C 0.65396 0.57718 0.09619 0.0
C443 C 0.63954 0.54308 0.0859 0.0
C444 C 0.68006 0.59888 0.03841 0.0
C445 C 0.65276 0.53098 0.0197 0.0
C446 C 0.6794 0.55252 0.96337 0.0
H447 H 0.88146 0.64055 -0.02436 0.0
H448 H 0.84281 0.59963 0.7056 0.0
H449 H 0.85791 0.55772 0.73014 0.0
H450 H 0.88835 0.53759 0.8203 0.0
H451 H 0.92785 0.57976 0.08924 0.0
H452 H 0.90544 0.61598 0.07373 0.0
C453 C 0.87611 0.62228 0.92244 0.0
C454 C 0.86179 0.6235 0.83818 0.0
C455 C 0.88501 0.59859 0.93676 0.0
C456 C 0.85414 0.59927 0.77073 0.0
C457 C 0.86283 0.57541 0.78464 0.0
C458 C 0.89158 0.55429 0.87629 0.0
C459 C 0.91038 0.55646 0.95488 0.0
C460 C 0.87921 0.57552 0.86623 0.0
C461 C 0.91388 0.57788 0.02739 0.0
C462 C 0.9012 0.59872 0.01849 0.0
H463 H 0.49806 0.37931 -0.02917 0.0
H464 H 0.44469 0.33936 0.22728 0.0
H465 H 0.4026 0.29108 0.14472 0.0
H466 H 0.37782 0.2637 -0.00185 0.0
H467 H 0.43047 0.30303 0.74088 0.0
H468 H 0.47596 0.34871 0.82533 0.0
C469 C 0.4778 0.35957 0.00917 0.0
C470 C 0.47437 0.36295 0.10499 0.0
C471 C 0.45309 0.33245 0.96076 0.0
C472 C 0.4478 0.33732 0.15349 0.0
C473 C 0.42355 0.30991 0.10621 0.0
C474 C 0.39918 0.2824 0.96051 0.0
C475 C 0.40055 0.28069 0.86342 0.0
C476 C 0.42529 0.30794 0.0095 0.0
C477 C 0.42878 0.30432 0.81561 0.0
C478 C 0.45479 0.33022 0.86387 0.0
H479 H 0.67518 0.13222 0.47577 0.0
H480 H 0.69258 0.22841 0.5455 0.0
H481 H 0.66467 0.20736 0.69525 0.0
H482 H 0.63714 0.16163 0.80837 0.0
H483 H 0.62748 0.06824 0.74148 0.0
H484 H 0.65202 0.08879 0.58972 0.0
C485 C 0.67267 0.14873 0.52285 0.0
C486 C 0.68595 0.18194 0.49896 0.0
C487 C 0.65893 0.13717 0.61064 0.0
C488 C 0.68248 0.20274 0.56182 0.0
C489 C 0.66691 0.1908 0.64785 0.0
C490 C 0.64103 0.14606 0.76108 0.0
C491 C 0.63066 0.11352 0.78656 0.0
C492 C 0.65563 0.15818 0.67372 0.0
C493 C 0.63573 0.09353 0.72455 0.0
C494 C 0.64931 0.10509 0.63705 0.0
H495 H 0.54444 0.95404 0.15453 0.0
H496 H 0.54766 0.92293 0.87571 0.0
H497 H 0.55717 0.87982 0.93602 0.0
H498 H 0.57125 0.85615 0.06791 0.0
H499 H 0.56717 0.88767 0.34682 0.0
H500 H 0.54997 0.92472 0.2867 0.0
C501 C 0.54691 0.9375 0.10734 0.0
C502 C 0.54617 0.94171 0.01136 0.0
C503 C 0.55192 0.91285 0.1425 0.0
C504 C 0.5486 0.92005 0.95003 0.0
C505 C 0.55397 0.89552 -0.01549 0.0
C506 C 0.56577 0.87046 0.11582 0.0
C507 C 0.57125 0.86965 0.21163 0.0
C508 C 0.55655 0.89231 0.08066 0.0
C509 C 0.56362 0.8881 0.27268 0.0
C510 C 0.55402 0.90952 0.23838 0.0
H511 H 0.15785 0.73557 0.09486 0.0
H512 H 0.11804 0.702 0.36989 0.0
H513 H 0.08612 0.64588 0.31318 0.0
H514 H 0.06476 0.60783 0.18387 0.0
H515 H 0.10199 0.64031 0.90676 0.0
H516 H 0.14024 0.69563 0.96629 0.0
C517 C 0.1427 0.71588 0.14275 0.0
C518 C 0.13997 0.72299 0.2363 0.0
C519 C 0.12374 0.6837 0.10918 0.0
C520 C 0.12026 0.69723 0.29745 0.0
C521 C 0.10195 0.66515 0.26508 0.0
C522 C 0.08137 0.62697 0.13634 0.0
C523 C 0.08015 0.62036 0.04087 0.0
C524 C 0.10268 0.65838 0.17072 0.0
C525 C 0.10238 0.64502 -0.01953 0.0
C526 C 0.12409 0.67657 0.01449 0.0
H527 H 0.39095 0.47482 0.18767 0.0
H528 H 0.39972 0.41678 0.40489 0.0
H529 H 0.34351 0.39854 0.4557 0.0
H530 H 0.29115 0.39663 0.43471 0.0
H531 H 0.2805 0.45289 0.21611 0.0
H532 H 0.33836 0.47461 0.17075 0.0
C533 C 0.38061 0.4583 0.24635 0.0
C534 C 0.39954 0.44701 0.29169 0.0
C535 C 0.34797 0.4476 0.27523 0.0
C536 C 0.38573 0.42569 0.36793 0.0
C537 C 0.35355 0.41525 0.39738 0.0
C538 C 0.30144 0.41385 0.37752 0.0
C539 C 0.28141 0.42293 0.3286 0.0
C540 C 0.33435 0.42572 0.3509 0.0
C541 C 0.29534 0.44543 0.255 0.0
C542 C 0.32839 0.45775 0.22874 0.0
H543 H 0.84355 0.82114 0.57004 0.0
H544 H 0.7792 0.79562 0.80926 0.0
H545 H 0.74445 0.81183 0.72669 0.0
H546 H 0.72752 0.82449 0.57968 0.0
H547 H 0.79066 0.84938 0.339 0.0
H548 H 0.83087 0.84199 0.42922 0.0
C549 C 0.82241 0.81988 0.60511 0.0
C550 C 0.81357 0.80645 0.69505 0.0
C551 C 0.80194 0.82832 0.55628 0.0
C552 C 0.78632 0.8054 0.73967 0.0
C553 C 0.76626 0.81442 0.69228 0.0
C554 C 0.75025 0.82851 0.54728 0.0
C555 C 0.75595 0.83653 0.45265 0.0
C556 C 0.77298 0.82434 0.59933 0.0
C557 C 0.78577 0.84274 0.41165 0.0
C558 C 0.80863 0.83852 0.46316 0.0
H559 H 0.21962 0.0619 0.51795 0.0
H560 H 0.24443 0.02917 0.76886 0.0
H561 H 0.22777 0.97652 0.69672 0.0
H562 H 0.21212 0.94242 0.55868 0.0
H563 H 0.18713 0.97376 0.30629 0.0
H564 H 0.19801 0.02471 0.38296 0.0
C565 C 0.22068 0.04299 0.55754 0.0
C566 C 0.23364 0.04957 0.64831 0.0
C567 C 0.2117 0.01295 0.51493 0.0
C568 C 0.23486 0.02483 0.69866 0.0
C569 C 0.2255 -0.00521 0.65737 0.0
C570 C 0.20907 0.96044 0.52034 0.0
C571 C 0.19973 0.95498 0.42658 0.0
C572 C 0.21504 0.98911 0.56477 0.0
C573 C 0.19476 0.97784 0.37834 0.0
C574 C 0.20093 0.00682 0.42216 0.0
H575 H 0.91316 0.2321 0.5092 0.0
H576 H 0.90334 0.20918 0.21668 0.0
H577 H 0.96303 0.23029 0.20611 0.0
H578 H 0.01879 0.26045 0.27743 0.0
H579 H 0.02766 0.28688 0.56697 0.0
H580 H 0.96746 0.25885 0.5815 0.0
C581 C 0.92386 0.23126 0.44314 0.0
C582 C 0.90376 0.21928 0.3637 0.0
C583 C 0.95813 0.24424 0.43706 0.0
C584 C 0.91824 0.21844 0.27887 0.0
C585 C 0.95238 0.23056 0.27274 0.0
C586 C 0.00739 0.25945 0.34391 0.0
C587 C 0.02746 0.27568 0.42104 0.0
C588 C 0.9727 0.24427 0.35096 0.0
C589 C 0.01259 0.27467 0.50664 0.0
C590 C 0.97823 0.25871 0.51494 0.0
H591 H 0.20674 0.18356 0.5537 0.0
H592 H 0.23782 0.24104 0.80561 0.0
H593 H 0.20998 0.27013 0.75658 0.0
H594 H 0.18362 0.28416 0.63453 0.0
H595 H 0.15486 0.22951 0.37824 0.0
H596 H 0.17433 0.19369 0.43769 0.0
C597 C 0.20692 0.20204 0.59862 0.0
C598 C 0.22482 0.21054 0.68246 0.0
C599 C 0.19149 0.21925 0.56902 0.0
C600 C 0.22466 0.2344 0.74013 0.0
C601 C 0.20875 0.25105 0.7122 0.0
C602 C 0.18123 0.26414 0.59198 0.0
C603 C 0.16852 0.2598 0.50155 0.0
C604 C 0.19319 0.24446 0.62548 0.0
C605 C 0.16477 0.23337 0.44795 0.0
C606 C 0.17611 0.2131 0.48169 0.0
H607 H 0.67429 0.96434 0.30811 0.0
H608 H 0.77184 0.97897 0.25826 0.0
H609 H 0.79489 0.03854 0.2541 0.0
H610 H 0.78733 0.08634 0.2778 0.0
H611 H 0.68924 0.06927 0.33549 0.0
H612 H 0.66627 0.01046 0.32306 0.0
C613 C 0.70066 0.98043 0.29632 0.0
C614 C 0.72146 0.96736 0.28522 0.0
C615 C 0.71358 0.01417 0.29564 0.0
C616 C 0.75538 0.98855 0.26773 0.0
C617 C 0.76853 0.02254 0.26558 0.0
C618 C 0.76092 0.06963 0.28642 0.0
C619 C 0.74 0.08191 0.30847 0.0
C620 C 0.7479 0.03563 0.28133 0.0
C621 C 0.70583 0.06024 0.31977 0.0
C622 C 0.69267 0.02666 0.31256 0.0
H623 H 0.9589 0.80033 0.55082 0.0
H624 H 0.9879 0.76432 0.78652 0.0
H625 H 0.03816 0.77505 0.70503 0.0
H626 H 0.07225 0.7918 0.56478 0.0
H627 H 0.04425 0.82853 0.32907 0.0
H628 H -0.00527 0.81982 0.41253 0.0
C629 C 0.97644 0.7953 0.58514 0.0
C630 C 0.96951 0.78145 0.67485 0.0
C631 C 0.00505 0.80098 0.53721 0.0
C632 C 0.99252 0.77495 0.71769 0.0
C633 C 0.02117 0.78087 0.67087 0.0
C634 C 0.05517 0.79763 0.53109 0.0
C635 C 0.06159 0.81024 0.44011 0.0
C636 C 0.02729 0.7932 0.58001 0.0
C637 C 0.03967 0.81847 0.39862 0.0
C638 C 0.01148 0.81364 0.44649 0.0
loop_
_geom_bond_atom_site_label_1
_geom_bond_atom_site_label_2
_geom_bond_distance
_geom_bond_site_symmetry_2
_ccdc_geom_bond_type
O0 Zn1 1.953 . S
O0 C16 1.225 1_556 S
Zn1 O0 1.953 . S
Zn1 O2 1.949 1_556 S
Zn1 O8 1.919 . S
Zn1 O13 1.924 . S
O2 Zn1 1.949 1_554 S
O2 Zn3 1.923 1_454 S
O2 Zn4 1.950 . S
O2 Zn5 1.945 . S
Zn3 O2 1.923 1_656 S
Zn3 O6 1.933 . S
Zn3 O9 1.941 . S
Zn3 O10 1.965 . S
Zn4 O2 1.950 . S
Zn4 O11 1.938 1_455 S
Zn4 O12 1.906 1_455 S
Zn4 O22 1.953 . S
Zn5 O2 1.945 . S
Zn5 O7 1.932 1_455 S
Zn5 O14 1.977 1_455 S
Zn5 O15 1.910 . S
O6 Zn3 1.933 . S
O6 C17 1.226 . S
O7 Zn5 1.932 1_655 S
O7 C17 1.307 1_554 S
O8 Zn1 1.919 . S
O8 C19 1.253 . S
O9 Zn3 1.941 . S
O9 C19 1.283 1_655 S
O10 Zn3 1.965 . S
O10 C18 1.303 . S
O11 Zn4 1.938 1_655 S
O11 C18 1.247 1_554 S
O12 Zn4 1.906 1_655 S
O12 C20 1.304 . S
O13 Zn1 1.924 . S
O13 C21 1.311 1_556 S
O14 Zn5 1.977 1_655 S
O14 C20 1.272 . S
O15 Zn5 1.910 . S
O15 C21 1.231 . S
C16 O0 1.225 1_554 S
C16 O22 1.298 . S
C17 O6 1.226 . S
C17 O7 1.307 1_556 S
C18 O10 1.303 . S
C18 O11 1.247 1_556 S
C19 O8 1.253 . S
C19 O9 1.283 1_455 S
C20 O12 1.304 . S
C20 O14 1.272 . S
C21 O13 1.311 1_554 S
C21 O15 1.231 . S
O22 Zn4 1.953 . S
O22 C16 1.298 . S
O23 Zn24 1.953 . S
O23 C39 1.225 1_556 S
Zn24 O23 1.953 . S
Zn24 O25 1.949 1_556 S
Zn24 O31 1.919 . S
Zn24 O36 1.924 . S
O25 Zn24 1.949 1_554 S
O25 Zn26 1.923 1_554 S
O25 Zn27 1.950 . S
O25 Zn28 1.945 . S
Zn26 O25 1.923 1_556 S
Zn26 O29 1.933 . S
Zn26 O32 1.941 . S
Zn26 O33 1.965 . S
Zn27 O25 1.950 . S
Zn27 O34 1.938 . S
Zn27 O35 1.906 . S
Zn27 O45 1.953 . S
Zn28 O25 1.945 . S
Zn28 O30 1.932 . S
Zn28 O37 1.977 . S
Zn28 O38 1.910 . S
O29 Zn26 1.933 . S
O29 C40 1.226 . S
O30 Zn28 1.932 . S
O30 C40 1.307 1_554 S
O31 Zn24 1.919 . S
O31 C42 1.253 . S
O32 Zn26 1.941 . S
O32 C42 1.283 . S
O33 Zn26 1.965 . S
O33 C41 1.303 . S
O34 Zn27 1.938 . S
O34 C41 1.247 1_554 S
O35 Zn27 1.906 . S
O35 C43 1.304 . S
O36 Zn24 1.924 . S
O36 C44 1.311 1_556 S
O37 Zn28 1.977 . S
O37 C43 1.272 . S
O38 Zn28 1.910 . S
O38 C44 1.231 . S
C39 O23 1.225 1_554 S
C39 O45 1.298 . S
C40 O29 1.226 . S
C40 O30 1.307 1_556 S
C41 O33 1.303 . S
C41 O34 1.247 1_556 S
C42 O31 1.253 . S
C42 O32 1.283 . S
C43 O35 1.304 . S
C43 O37 1.272 . S
C44 O36 1.311 1_554 S
C44 O38 1.231 . S
O45 Zn27 1.953 . S
O45 C39 1.298 . S
O46 Zn47 1.953 . S
O46 C62 1.225 1_556 S
Zn47 O46 1.953 . S
Zn47 O48 1.949 1_566 S
Zn47 O54 1.919 . S
Zn47 O59 1.924 . S
O48 Zn47 1.949 1_544 S
O48 Zn49 1.923 1_554 S
O48 Zn50 1.950 . S
O48 Zn51 1.945 . S
Zn49 O48 1.923 1_556 S
Zn49 O52 1.933 . S
Zn49 O55 1.941 . S
Zn49 O56 1.965 . S
Zn50 O48 1.950 . S
Zn50 O57 1.938 . S
Zn50 O58 1.906 . S
Zn50 O68 1.953 1_545 S
Zn51 O48 1.945 . S
Zn51 O53 1.932 . S
Zn51 O60 1.977 . S
Zn51 O61 1.910 1_545 S
O52 Zn49 1.933 . S
O52 C63 1.226 . S
O53 Zn51 1.932 . S
O53 C63 1.307 1_554 S
O54 Zn47 1.919 . S
O54 C65 1.253 1_565 S
O55 Zn49 1.941 . S
O55 C65 1.283 . S
O56 Zn49 1.965 . S
O56 C64 1.303 . S
O57 Zn50 1.938 . S
O57 C64 1.247 1_554 S
O58 Zn50 1.906 . S
O58 C66 1.304 . S
O59 Zn47 1.924 . S
O59 C67 1.311 1_556 S
O60 Zn51 1.977 . S
O60 C66 1.272 . S
O61 Zn51 1.910 1_565 S
O61 C67 1.231 . S
C62 O46 1.225 1_554 S
C62 O68 1.298 . S
C63 O52 1.226 . S
C63 O53 1.307 1_556 S
C64 O56 1.303 . S
C64 O57 1.247 1_556 S
C65 O54 1.253 1_545 S
C65 O55 1.283 . S
C66 O58 1.304 . S
C66 O60 1.272 . S
C67 O59 1.311 1_554 S
C67 O61 1.231 . S
O68 Zn50 1.953 1_565 S
O68 C62 1.298 . S
O69 Zn70 1.953 . S
O69 C85 1.225 . S
Zn70 O69 1.953 . S
Zn70 O71 1.949 . S
Zn70 O77 1.919 . S
Zn70 O82 1.924 . S
O71 Zn70 1.949 . S
O71 Zn72 1.923 . S
O71 Zn73 1.950 . S
O71 Zn74 1.945 . S
Zn72 O71 1.923 . S
Zn72 O75 1.933 . S
Zn72 O78 1.941 . S
Zn72 O79 1.965 . S
Zn73 O71 1.950 . S
Zn73 O80 1.938 . S
Zn73 O81 1.906 . S
Zn73 O91 1.953 . S
Zn74 O71 1.945 . S
Zn74 O76 1.932 . S
Zn74 O83 1.977 . S
Zn74 O84 1.910 . S
O75 Zn72 1.933 . S
O75 C86 1.226 . S
O76 Zn74 1.932 . S
O76 C86 1.307 . S
O77 Zn70 1.919 . S
O77 C88 1.253 . S
O78 Zn72 1.941 . S
O78 C88 1.283 . S
O79 Zn72 1.965 . S
O79 C87 1.303 . S
O80 Zn73 1.938 . S
O80 C87 1.247 . S
O81 Zn73 1.906 . S
O81 C89 1.304 . S
O82 Zn70 1.924 . S
O82 C90 1.311 . S
O83 Zn74 1.977 . S
O83 C89 1.272 . S
O84 Zn74 1.910 . S
O84 C90 1.231 . S
C85 O69 1.225 . S
C85 O91 1.298 . S
C86 O75 1.226 . S
C86 O76 1.307 . S
C87 O79 1.303 . S
C87 O80 1.247 . S
C88 O77 1.253 . S
C88 O78 1.283 . S
C89 O81 1.304 . S
C89 O83 1.272 . S
C90 O82 1.311 . S
C90 O84 1.231 . S
O91 Zn73 1.953 . S
O91 C85 1.298 . S
O92 Zn93 1.953 . S
O92 C108 1.225 . S
Zn93 O92 1.953 . S
Zn93 O94 1.949 . S
Zn93 O100 1.919 . S
Zn93 O105 1.924 . S
O94 Zn93 1.949 . S
O94 Zn95 1.923 . S
O94 Zn96 1.950 . S
O94 Zn97 1.945 . S
Zn95 O94 1.923 . S
Zn95 O98 1.933 . S
Zn95 O101 1.941 . S
Zn95 O102 1.965 . S
Zn96 O94 1.950 . S
Zn96 O103 1.938 . S
Zn96 O104 1.906 . S
Zn96 O114 1.953 . S
Zn97 O94 1.945 . S
Zn97 O99 1.932 . S
Zn97 O106 1.977 . S
Zn97 O107 1.910 . S
O98 Zn95 1.933 . S
O98 C109 1.226 . S
O99 Zn97 1.932 . S
O99 C109 1.307 . S
O100 Zn93 1.919 . S
O100 C111 1.253 . S
O101 Zn95 1.941 . S
O101 C111 1.283 . S
O102 Zn95 1.965 . S
O102 C110 1.303 . S
O103 Zn96 1.938 . S
O103 C110 1.247 . S
O104 Zn96 1.906 . S
O104 C112 1.304 . S
O105 Zn93 1.924 . S
O105 C113 1.311 . S
O106 Zn97 1.977 . S
O106 C112 1.272 . S
O107 Zn97 1.910 . S
O107 C113 1.231 . S
C108 O92 1.225 . S
C108 O114 1.298 . S
C109 O98 1.226 . S
C109 O99 1.307 . S
C110 O102 1.303 . S
C110 O103 1.247 . S
C111 O100 1.253 . S
C111 O101 1.283 . S
C112 O104 1.304 . S
C112 O106 1.272 . S
C113 O105 1.311 . S
C113 O107 1.231 . S
O114 Zn96 1.953 . S
O114 C108 1.298 . S
O115 Zn116 1.953 . S
O115 C131 1.225 . S
Zn116 O115 1.953 . S
Zn116 O117 1.949 . S
Zn116 O123 1.919 . S
Zn116 O128 1.924 . S
O117 Zn116 1.949 . S
O117 Zn118 1.923 . S
O117 Zn119 1.950 . S
O117 Zn120 1.945 . S
Zn118 O117 1.923 . S
Zn118 O121 1.933 . S
Zn118 O124 1.941 . S
Zn118 O125 1.965 . S
Zn119 O117 1.950 . S
Zn119 O126 1.938 . S
Zn119 O127 1.906 . S
Zn119 O137 1.953 . S
Zn120 O117 1.945 . S
Zn120 O122 1.932 . S
Zn120 O129 1.977 . S
Zn120 O130 1.910 . S
O121 Zn118 1.933 . S
O121 C132 1.226 . S
O122 Zn120 1.932 . S
O122 C132 1.307 . S
O123 Zn116 1.919 . S
O123 C134 1.253 . S
O124 Zn118 1.941 . S
O124 C134 1.283 . S
O125 Zn118 1.965 . S
O125 C133 1.303 . S
O126 Zn119 1.938 . S
O126 C133 1.247 . S
O127 Zn119 1.906 . S
O127 C135 1.304 . S
O128 Zn116 1.924 . S
O128 C136 1.311 . S
O129 Zn120 1.977 . S
O129 C135 1.272 . S
O130 Zn120 1.910 . S
O130 C136 1.231 . S
C131 O115 1.225 . S
C131 O137 1.298 . S
C132 O121 1.226 . S
C132 O122 1.307 . S
C133 O125 1.303 . S
C133 O126 1.247 . S
C134 O123 1.253 . S
C134 O124 1.283 . S
C135 O127 1.304 . S
C135 O129 1.272 . S
C136 O128 1.311 . S
C136 O130 1.231 . S
O137 Zn119 1.953 . S
O137 C131 1.298 . S
O138 Zn139 1.953 . S
O138 C154 1.225 . S
Zn139 O138 1.953 . S
Zn139 O140 1.949 . S
Zn139 O146 1.919 . S
Zn139 O151 1.924 . S
O140 Zn139 1.949 . S
O140 Zn141 1.923 . S
O140 Zn142 1.950 . S
O140 Zn143 1.945 . S
Zn141 O140 1.923 . S
Zn141 O144 1.933 . S
Zn141 O147 1.941 . S
Zn141 O148 1.965 . S
Zn142 O140 1.950 . S
Zn142 O149 1.938 . S
Zn142 O150 1.906 . S
Zn142 O160 1.953 . S
Zn143 O140 1.945 . S
Zn143 O145 1.932 . S
Zn143 O152 1.977 . S
Zn143 O153 1.910 . S
O144 Zn141 1.933 . S
O144 C155 1.226 . S
O145 Zn143 1.932 . S
O145 C155 1.307 . S
O146 Zn139 1.919 . S
O146 C157 1.253 . S
O147 Zn141 1.941 . S
O147 C157 1.283 . S
O148 Zn141 1.965 . S
O148 C156 1.303 . S
O149 Zn142 1.938 . S
O149 C156 1.247 . S
O150 Zn142 1.906 . S
O150 C158 1.304 . S
O151 Zn139 1.924 . S
O151 C159 1.311 . S
O152 Zn143 1.977 . S
O152 C158 1.272 . S
O153 Zn143 1.910 . S
O153 C159 1.231 . S
C154 O138 1.225 . S
C154 O160 1.298 . S
C155 O144 1.226 . S
C155 O145 1.307 . S
C156 O148 1.303 . S
C156 O149 1.247 . S
C157 O146 1.253 . S
C157 O147 1.283 . S
C158 O150 1.304 . S
C158 O152 1.272 . S
C159 O151 1.311 . S
C159 O153 1.231 . S
O160 Zn142 1.953 . S
O160 C154 1.298 . S
O161 Zn162 1.953 . S
O161 C177 1.225 . S
Zn162 O161 1.953 . S
Zn162 O163 1.949 . S
Zn162 O169 1.919 . S
Zn162 O174 1.924 . S
O163 Zn162 1.949 . S
O163 Zn164 1.923 . S
O163 Zn165 1.950 . S
O163 Zn166 1.945 . S
Zn164 O163 1.923 . S
Zn164 O167 1.933 . S
Zn164 O170 1.941 . S
Zn164 O171 1.965 . S
Zn165 O163 1.950 . S
Zn165 O172 1.938 . S
Zn165 O173 1.906 . S
Zn165 O183 1.953 . S
Zn166 O163 1.945 . S
Zn166 O168 1.932 . S
Zn166 O175 1.977 . S
Zn166 O176 1.910 . S
O167 Zn164 1.933 . S
O167 C178 1.226 . S
O168 Zn166 1.932 . S
O168 C178 1.307 . S
O169 Zn162 1.919 . S
O169 C180 1.253 . S
O170 Zn164 1.941 . S
O170 C180 1.283 . S
O171 Zn164 1.965 . S
O171 C179 1.303 . S
O172 Zn165 1.938 . S
O172 C179 1.247 . S
O173 Zn165 1.906 . S
O173 C181 1.304 . S
O174 Zn162 1.924 . S
O174 C182 1.311 . S
O175 Zn166 1.977 . S
O175 C181 1.272 . S
O176 Zn166 1.910 . S
O176 C182 1.231 . S
C177 O161 1.225 . S
C177 O183 1.298 . S
C178 O167 1.226 . S
C178 O168 1.307 . S
C179 O171 1.303 . S
C179 O172 1.247 . S
C180 O169 1.253 . S
C180 O170 1.283 . S
C181 O173 1.304 . S
C181 O175 1.272 . S
C182 O174 1.311 . S
C182 O176 1.231 . S
O183 Zn165 1.953 . S
O183 C177 1.298 . S
O184 Zn185 1.953 . S
O184 C200 1.225 . S
Zn185 O184 1.953 . S
Zn185 O186 1.949 . S
Zn185 O192 1.919 . S
Zn185 O197 1.924 . S
O186 Zn185 1.949 . S
O186 Zn187 1.923 . S
O186 Zn188 1.950 . S
O186 Zn189 1.945 . S
Zn187 O186 1.923 . S
Zn187 O190 1.933 . S
Zn187 O193 1.941 . S
Zn187 O194 1.965 . S
Zn188 O186 1.950 . S
Zn188 O195 1.938 . S
Zn188 O196 1.906 . S
Zn188 O206 1.953 . S
Zn189 O186 1.945 . S
Zn189 O191 1.932 . S
Zn189 O198 1.977 . S
Zn189 O199 1.910 . S
O190 Zn187 1.933 . S
O190 C201 1.226 . S
O191 Zn189 1.932 . S
O191 C201 1.307 . S
O192 Zn185 1.919 . S
O192 C203 1.253 . S
O193 Zn187 1.941 . S
O193 C203 1.283 . S
O194 Zn187 1.965 . S
O194 C202 1.303 . S
O195 Zn188 1.938 . S
O195 C202 1.247 . S
O196 Zn188 1.906 . S
O196 C204 1.304 . S
O197 Zn185 1.924 . S
O197 C205 1.311 . S
O198 Zn189 1.977 . S
O198 C204 1.272 . S
O199 Zn189 1.910 . S
O199 C205 1.231 . S
C200 O184 1.225 . S
C200 O206 1.298 . S
C201 O190 1.226 . S
C201 O191 1.307 . S
C202 O194 1.303 . S
C202 O195 1.247 . S
C203 O192 1.253 . S
C203 O193 1.283 . S
C204 O196 1.304 . S
C204 O198 1.272 . S
C205 O197 1.311 . S
C205 O199 1.231 . S
O206 Zn188 1.953 . S
O206 C200 1.298 . S
H207 C213 0.951 . S
H208 C216 0.930 . S
H209 C217 0.930 . S
H210 C218 0.930 . S
H211 C221 0.930 . S
H212 C222 0.930 . S
C213 H207 0.951 . S
C213 C214 1.355 . S
C213 C215 1.415 1_455 S
C214 C213 1.355 . S
C214 C216 1.419 . S
C215 C213 1.415 1_655 S
C215 C220 1.425 . S
C215 C222 1.409 . S
C216 H208 0.930 . S
C216 C214 1.419 . S
C216 C217 1.362 . S
C217 H209 0.930 . S
C217 C216 1.362 . S
C217 C220 1.409 1_455 S
C218 H210 0.930 . S
C218 C219 1.355 . S
C218 C220 1.415 . S
C219 C218 1.355 . S
C219 C221 1.419 . S
C220 C215 1.425 . S
C220 C217 1.409 1_655 S
C220 C218 1.415 . S
C221 H211 0.930 . S
C221 C219 1.419 . S
C221 C222 1.362 . S
C222 H212 0.930 . S
C222 C215 1.409 . S
C222 C221 1.362 . S
H223 C229 0.930 . S
H224 C232 0.930 . S
H225 C233 0.930 . S
H226 C234 0.930 . S
H227 C237 0.930 . S
H228 C238 0.930 . S
C229 H223 0.930 . S
C229 C230 1.355 . S
C229 C231 1.415 . S
C230 C229 1.355 . S
C230 C232 1.419 . S
C231 C229 1.415 . S
C231 C236 1.425 . S
C231 C238 1.409 . S
C232 H224 0.930 . S
C232 C230 1.419 . S
C232 C233 1.362 . S
C233 H225 0.930 . S
C233 C232 1.362 . S
C233 C236 1.409 . S
C234 H226 0.930 . S
C234 C235 1.355 . S
C234 C236 1.415 . S
C235 C234 1.355 . S
C235 C237 1.419 . S
C236 C231 1.425 . S
C236 C233 1.409 . S
C236 C234 1.415 . S
C237 H227 0.930 . S
C237 C235 1.419 . S
C237 C238 1.362 . S
C238 H228 0.930 . S
C238 C231 1.409 . S
C238 C237 1.362 . S
H239 C245 0.930 . S
H240 C248 0.930 . S
H241 C249 0.930 . S
H242 C250 0.930 . S
H243 C253 0.930 . S
H244 C254 0.930 . S
C245 H239 0.930 . S
C245 C246 1.355 . S
C245 C247 1.415 . S
C246 C245 1.355 . S
C246 C248 1.419 1_545 S
C247 C245 1.415 . S
C247 C252 1.425 . S
C247 C254 1.409 . S
C248 H240 0.930 . S
C248 C246 1.419 1_565 S
C248 C249 1.362 . S
C249 H241 0.930 . S
C249 C248 1.362 . S
C249 C252 1.409 1_565 S
C250 H242 0.930 . S
C250 C251 1.355 . S
C250 C252 1.415 . S
C251 C250 1.355 . S
C251 C253 1.419 . S
C252 C247 1.425 . S
C252 C249 1.409 1_545 S
C252 C250 1.415 . S
C253 H243 0.930 . S
C253 C251 1.419 . S
C253 C254 1.362 . S
C254 H244 0.930 . S
C254 C247 1.409 . S
C254 C253 1.362 . S
H255 C261 0.930 . S
H256 C264 0.930 . S
H257 C265 0.930 . S
H258 C266 0.930 1_554 S
H259 C269 0.930 . S
H260 C270 0.930 . S
C261 H255 0.930 . S
C261 C262 1.355 . S
C261 C263 1.415 . S
C262 C261 1.355 . S
C262 C264 1.419 . S
C263 C261 1.415 . S
C263 C268 1.425 . S
C263 C270 1.409 . S
C264 H256 0.930 . S
C264 C262 1.419 . S
C264 C265 1.362 . S
C265 H257 0.930 . S
C265 C264 1.362 . S
C265 C268 1.409 . S
C266 H258 0.930 1_556 S
C266 C267 1.355 1_556 S
C266 C268 1.415 . S
C267 C266 1.355 1_554 S
C267 C269 1.419 . S
C268 C263 1.425 . S
C268 C265 1.409 . S
C268 C266 1.415 . S
C269 H259 0.930 . S
C269 C267 1.419 . S
C269 C270 1.362 1_554 S
C270 H260 0.930 . S
C270 C263 1.409 . S
C270 C269 1.362 1_556 S
H271 C277 0.930 . S
H272 C280 0.930 . S
H273 C281 0.930 . S
H274 C282 0.930 . S
H275 C285 0.930 . S
H276 C286 0.930 . S
C277 H271 0.930 . S
C277 C278 1.355 . S
C277 C279 1.415 . S
C278 C277 1.355 . S
C278 C280 1.419 . S
C279 C277 1.415 . S
C279 C284 1.425 . S
C279 C286 1.409 . S
C280 H272 0.930 . S
C280 C278 1.419 . S
C280 C281 1.362 . S
C281 H273 0.930 . S
C281 C280 1.362 . S
C281 C284 1.409 . S
C282 H274 0.930 . S
C282 C283 1.355 . S
C282 C284 1.415 1_554 S
C283 C282 1.355 . S
C283 C285 1.419 . S
C284 C279 1.425 . S
C284 C281 1.409 . S
C284 C282 1.415 1_556 S
C285 H275 0.930 . S
C285 C283 1.419 . S
C285 C286 1.362 1_554 S
C286 H276 0.930 . S
C286 C279 1.409 . S
C286 C285 1.362 1_556 S
H287 C293 0.930 . S
H288 C296 0.930 . S
H289 C297 0.930 . S
H290 C298 0.930 . S
H291 C301 0.930 . S
H292 C302 0.930 . S
C293 H287 0.930 . S
C293 C294 1.355 . S
C293 C295 1.415 . S
C294 C293 1.355 . S
C294 C296 1.419 . S
C295 C293 1.415 . S
C295 C300 1.425 . S
C295 C302 1.409 . S
C296 H288 0.930 . S
C296 C294 1.419 . S
C296 C297 1.362 . S
C297 H289 0.930 . S
C297 C296 1.362 . S
C297 C300 1.409 . S
C298 H290 0.930 . S
C298 C299 1.355 1_556 S
C298 C300 1.415 . S
C299 C298 1.355 1_554 S
C299 C301 1.419 . S
C300 C295 1.425 . S
C300 C297 1.409 . S
C300 C298 1.415 . S
C301 H291 0.930 . S
C301 C299 1.419 . S
C301 C302 1.362 1_554 S
C302 H292 0.930 . S
C302 C295 1.409 . S
C302 C301 1.362 1_556 S
H303 C309 0.930 . S
H304 C312 0.930 . S
H305 C313 0.930 . S
H306 C314 0.930 . S
H307 C317 0.930 . S
H308 C318 0.930 . S
C309 H303 0.930 . S
C309 C310 1.355 . S
C309 C311 1.415 . S
C310 C309 1.355 . S
C310 C312 1.419 . S
C311 C309 1.415 . S
C311 C316 1.425 . S
C311 C318 1.409 . S
C312 H304 0.930 . S
C312 C310 1.419 . S
C312 C313 1.362 . S
C313 H305 0.930 . S
C313 C312 1.362 . S
C313 C316 1.409 . S
C314 H306 0.930 . S
C314 C315 1.355 . S
C314 C316 1.415 . S
C315 C314 1.355 . S
C315 C317 1.419 . S
C316 C311 1.425 . S
C316 C313 1.409 . S
C316 C314 1.415 . S
C317 H307 0.930 . S
C317 C315 1.419 . S
C317 C318 1.362 . S
C318 H308 0.930 . S
C318 C311 1.409 . S
C318 C317 1.362 . S
H319 C325 0.930 . S
H320 C328 0.930 . S
H321 C329 0.930 . S
H322 C330 0.930 . S
H323 C333 0.930 . S
H324 C334 0.930 . S
C325 H319 0.930 . S
C325 C326 1.355 . S
C325 C327 1.415 . S
C326 C325 1.355 . S
C326 C328 1.419 . S
C327 C325 1.415 . S
C327 C332 1.425 . S
C327 C334 1.409 . S
C328 H320 0.930 . S
C328 C326 1.419 . S
C328 C329 1.362 . S
C329 H321 0.930 . S
C329 C328 1.362 . S
C329 C332 1.409 . S
C330 H322 0.930 . S
C330 C331 1.355 . S
C330 C332 1.415 . S
C331 C330 1.355 . S
C331 C333 1.419 . S
C332 C327 1.425 . S
C332 C329 1.409 . S
C332 C330 1.415 . S
C333 H323 0.930 . S
C333 C331 1.419 . S
C333 C334 1.362 . S
C334 H324 0.930 . S
C334 C327 1.409 . S
C334 C333 1.362 . S
H335 C341 0.930 . S
H336 C344 0.930 . S
H337 C345 0.930 . S
H338 C346 0.930 . S
H339 C349 0.930 . S
H340 C350 0.930 . S
C341 H335 0.930 . S
C341 C342 1.355 . S
C341 C343 1.415 . S
C342 C341 1.355 . S
C342 C344 1.419 . S
C343 C341 1.415 . S
C343 C348 1.425 . S
C343 C350 1.409 . S
C344 H336 0.930 . S
C344 C342 1.419 . S
C344 C345 1.362 . S
C345 H337 0.930 . S
C345 C344 1.362 . S
C345 C348 1.409 . S
C346 H338 0.930 . S
C346 C347 1.355 . S
C346 C348 1.415 . S
C347 C346 1.355 . S
C347 C349 1.419 . S
C348 C343 1.425 . S
C348 C345 1.409 . S
C348 C346 1.415 . S
C349 H339 0.930 . S
C349 C347 1.419 . S
C349 C350 1.362 . S
C350 H340 0.930 . S
C350 C343 1.409 . S
C350 C349 1.362 . S
H351 C357 0.930 . S
H352 C360 0.930 . S
H353 C361 0.930 . S
H354 C362 0.930 . S
H355 C365 0.930 1_556 S
H356 C366 0.930 . S
C357 H351 0.930 . S
C357 C358 1.355 . S
C357 C359 1.415 . S
C358 C357 1.355 . S
C358 C360 1.419 . S
C359 C357 1.415 . S
C359 C364 1.425 . S
C359 C366 1.409 . S
C360 H352 0.930 . S
C360 C358 1.419 . S
C360 C361 1.362 . S
C361 H353 0.930 . S
C361 C360 1.362 . S
C361 C364 1.409 . S
C362 H354 0.930 . S
C362 C363 1.355 . S
C362 C364 1.415 . S
C363 C362 1.355 . S
C363 C365 1.419 . S
C364 C359 1.425 . S
C364 C361 1.409 . S
C364 C362 1.415 . S
C365 H355 0.930 1_554 S
C365 C363 1.419 . S
C365 C366 1.362 . S
C366 H356 0.930 . S
C366 C359 1.409 . S
C366 C365 1.362 . S
H367 C373 0.930 . S
H368 C376 0.930 . S
H369 C377 0.930 . S
H370 C378 0.930 . S
H371 C381 0.930 . S
H372 C382 0.930 . S
C373 H367 0.930 . S
C373 C374 1.355 . S
C373 C375 1.415 . S
C374 C373 1.355 . S
C374 C376 1.419 . S
C375 C373 1.415 . S
C375 C380 1.425 . S
C375 C382 1.409 . S
C376 H368 0.930 . S
C376 C374 1.419 . S
C376 C377 1.362 . S
C377 H369 0.930 . S
C377 C376 1.362 . S
C377 C380 1.409 . S
C378 H370 0.930 . S
C378 C379 1.355 . S
C378 C380 1.415 . S
C379 C378 1.355 . S
C379 C381 1.419 . S
C380 C375 1.425 . S
C380 C377 1.409 . S
C380 C378 1.415 . S
C381 H371 0.930 . S
C381 C379 1.419 . S
C381 C382 1.362 . S
C382 H372 0.930 . S
C382 C375 1.409 . S
C382 C381 1.362 . S
H383 C389 0.930 . S
H384 C392 0.930 . S
H385 C393 0.930 . S
H386 C394 0.930 . S
H387 C397 0.930 . S
H388 C398 0.930 . S
C389 H383 0.930 . S
C389 C390 1.355 . S
C389 C391 1.415 . S
C390 C389 1.355 . S
C390 C392 1.419 . S
C391 C389 1.415 . S
C391 C396 1.425 . S
C391 C398 1.409 . S
C392 H384 0.930 . S
C392 C390 1.419 . S
C392 C393 1.362 . S
C393 H385 0.930 . S
C393 C392 1.362 . S
C393 C396 1.409 . S
C394 H386 0.930 . S
C394 C395 1.355 . S
C394 C396 1.415 . S
C395 C394 1.355 . S
C395 C397 1.419 . S
C396 C391 1.425 . S
C396 C393 1.409 . S
C396 C394 1.415 . S
C397 H387 0.930 . S
C397 C395 1.419 . S
C397 C398 1.362 . S
C398 H388 0.930 . S
C398 C391 1.409 . S
C398 C397 1.362 . S
H399 C405 0.930 . S
H400 C408 0.930 . S
H401 C409 0.930 1_554 S
H402 C410 0.930 . S
H403 C413 0.930 . S
H404 C414 0.930 . S
C405 H399 0.930 . S
C405 C406 1.355 . S
C405 C407 1.415 . S
C406 C405 1.355 . S
C406 C408 1.419 1_556 S
C407 C405 1.415 . S
C407 C412 1.425 . S
C407 C414 1.409 . S
C408 H400 0.930 . S
C408 C406 1.419 1_554 S
C408 C409 1.362 1_554 S
C409 H401 0.930 1_556 S
C409 C408 1.362 1_556 S
C409 C412 1.409 . S
C410 H402 0.930 . S
C410 C411 1.355 . S
C410 C412 1.415 . S
C411 C410 1.355 . S
C411 C413 1.419 . S
C412 C407 1.425 . S
C412 C409 1.409 . S
C412 C410 1.415 . S
C413 H403 0.930 . S
C413 C411 1.419 . S
C413 C414 1.362 . S
C414 H404 0.930 . S
C414 C407 1.409 . S
C414 C413 1.362 . S
H415 C421 0.930 . S
H416 C424 0.930 . S
H417 C425 0.930 . S
H418 C426 0.930 . S
H419 C429 0.930 . S
H420 C430 0.930 1_554 S
C421 H415 0.930 . S
C421 C422 1.355 . S
C421 C423 1.415 . S
C422 C421 1.355 . S
C422 C424 1.419 . S
C423 C421 1.415 . S
C423 C428 1.425 . S
C423 C430 1.409 . S
C424 H416 0.930 . S
C424 C422 1.419 . S
C424 C425 1.362 . S
C425 H417 0.930 . S
C425 C424 1.362 . S
C425 C428 1.409 . S
C426 H418 0.930 . S
C426 C427 1.355 . S
C426 C428 1.415 . S
C427 C426 1.355 . S
C427 C429 1.419 1_556 S
C428 C423 1.425 . S
C428 C425 1.409 . S
C428 C426 1.415 . S
C429 H419 0.930 . S
C429 C427 1.419 1_554 S
C429 C430 1.362 1_554 S
C430 H420 0.930 1_556 S
C430 C423 1.409 . S
C430 C429 1.362 1_556 S
H431 C437 0.930 . S
H432 C440 0.930 . S
H433 C441 0.930 . S
H434 C442 0.930 1_554 S
H435 C445 0.930 . S
H436 C446 0.930 . S
C437 H431 0.930 . S
C437 C438 1.355 . S
C437 C439 1.415 . S
C438 C437 1.355 . S
C438 C440 1.419 . S
C439 C437 1.415 . S
C439 C444 1.425 . S
C439 C446 1.409 . S
C440 H432 0.930 . S
C440 C438 1.419 . S
C440 C441 1.362 . S
C441 H433 0.930 . S
C441 C440 1.362 . S
C441 C444 1.409 . S
C442 H434 0.930 1_556 S
C442 C443 1.355 . S
C442 C444 1.415 . S
C443 C442 1.355 . S
C443 C445 1.419 . S
C444 C439 1.425 . S
C444 C441 1.409 . S
C444 C442 1.415 . S
C445 H435 0.930 . S
C445 C443 1.419 . S
C445 C446 1.362 . S
C446 H436 0.930 . S
C446 C439 1.409 . S
C446 C445 1.362 . S
H447 C453 0.930 . S
H448 C456 0.930 . S
H449 C457 0.930 . S
H450 C458 0.930 1_554 S
H451 C461 0.930 . S
H452 C462 0.930 . S
C453 H447 0.930 . S
C453 C454 1.355 . S
C453 C455 1.415 . S
C454 C453 1.355 . S
C454 C456 1.419 . S
C455 C453 1.415 . S
C455 C460 1.425 . S
C455 C462 1.409 . S
C456 H448 0.930 . S
C456 C454 1.419 . S
C456 C457 1.362 . S
C457 H449 0.930 . S
C457 C456 1.362 . S
C457 C460 1.409 . S
C458 H450 0.930 1_556 S
C458 C459 1.355 . S
C458 C460 1.415 . S
C459 C458 1.355 . S
C459 C461 1.419 . S
C460 C455 1.425 . S
C460 C457 1.409 . S
C460 C458 1.415 . S
C461 H451 0.930 . S
C461 C459 1.419 . S
C461 C462 1.362 . S
C462 H452 0.930 . S
C462 C455 1.409 . S
C462 C461 1.362 . S
H463 C469 0.930 1_554 S
H464 C472 0.930 . S
H465 C473 0.930 . S
H466 C474 0.930 . S
H467 C477 0.930 . S
H468 C478 0.930 1_554 S
C469 H463 0.930 1_556 S
C469 C470 1.355 . S
C469 C471 1.415 . S
C470 C469 1.355 . S
C470 C472 1.419 . S
C471 C469 1.415 . S
C471 C476 1.425 . S
C471 C478 1.409 . S
C472 H464 0.930 . S
C472 C470 1.419 . S
C472 C473 1.362 . S
C473 H465 0.930 . S
C473 C472 1.362 . S
C473 C476 1.409 . S
C474 H466 0.930 . S
C474 C475 1.355 . S
C474 C476 1.415 . S
C475 C474 1.355 . S
C475 C477 1.419 . S
C476 C471 1.425 . S
C476 C473 1.409 . S
C476 C474 1.415 . S
C477 H467 0.930 . S
C477 C475 1.419 . S
C477 C478 1.362 . S
C478 H468 0.930 1_556 S
C478 C471 1.409 . S
C478 C477 1.362 . S
H479 C485 0.930 . S
H480 C488 0.930 . S
H481 C489 0.930 . S
H482 C490 0.930 . S
H483 C493 0.930 . S
H484 C494 0.930 . S
C485 H479 0.930 . S
C485 C486 1.355 . S
C485 C487 1.415 . S
C486 C485 1.355 . S
C486 C488 1.419 . S
C487 C485 1.415 . S
C487 C492 1.425 . S
C487 C494 1.409 . S
C488 H480 0.930 . S
C488 C486 1.419 . S
C488 C489 1.362 . S
C489 H481 0.930 . S
C489 C488 1.362 . S
C489 C492 1.409 . S
C490 H482 0.930 . S
C490 C491 1.355 . S
C490 C492 1.415 . S
C491 C490 1.355 . S
C491 C493 1.419 . S
C492 C487 1.425 . S
C492 C489 1.409 . S
C492 C490 1.415 . S
C493 H483 0.930 . S
C493 C491 1.419 . S
C493 C494 1.362 . S
C494 H484 0.930 . S
C494 C487 1.409 . S
C494 C493 1.362 . S
H495 C501 0.930 . S
H496 C504 0.930 . S
H497 C505 0.930 . S
H498 C506 0.930 . S
H499 C509 0.930 . S
H500 C510 0.930 . S
C501 H495 0.930 . S
C501 C502 1.355 . S
C501 C503 1.415 . S
C502 C501 1.355 . S
C502 C504 1.419 . S
C503 C501 1.415 . S
C503 C508 1.425 . S
C503 C510 1.409 . S
C504 H496 0.930 . S
C504 C502 1.419 . S
C504 C505 1.362 . S
C505 H497 0.930 . S
C505 C504 1.362 . S
C505 C508 1.409 . S
C506 H498 0.930 . S
C506 C507 1.355 . S
C506 C508 1.415 . S
C507 C506 1.355 . S
C507 C509 1.419 . S
C508 C503 1.425 . S
C508 C505 1.409 . S
C508 C506 1.415 . S
C509 H499 0.930 . S
C509 C507 1.419 . S
C509 C510 1.362 . S
C510 H500 0.930 . S
C510 C503 1.409 . S
C510 C509 1.362 . S
H511 C517 0.930 . S
H512 C520 0.930 . S
H513 C521 0.930 . S
H514 C522 0.930 . S
H515 C525 0.930 . S
H516 C526 0.930 . S
C517 H511 0.930 . S
C517 C518 1.355 . S
C517 C519 1.415 . S
C518 C517 1.355 . S
C518 C520 1.419 . S
C519 C517 1.415 . S
C519 C524 1.425 . S
C519 C526 1.409 . S
C520 H512 0.930 . S
C520 C518 1.419 . S
C520 C521 1.362 . S
C521 H513 0.930 . S
C521 C520 1.362 . S
C521 C524 1.409 . S
C522 H514 0.930 . S
C522 C523 1.355 . S
C522 C524 1.415 . S
C523 C522 1.355 . S
C523 C525 1.419 . S
C524 C519 1.425 . S
C524 C521 1.409 . S
C524 C522 1.415 . S
C525 H515 0.930 . S
C525 C523 1.419 . S
C525 C526 1.362 . S
C526 H516 0.930 . S
C526 C519 1.409 . S
C526 C525 1.362 . S
H527 C533 0.930 . S
H528 C536 0.930 . S
H529 C537 0.930 . S
H530 C538 0.930 . S
H531 C541 0.930 . S
H532 C542 0.930 . S
C533 H527 0.930 . S
C533 C534 1.355 . S
C533 C535 1.415 . S
C534 C533 1.355 . S
C534 C536 1.419 . S
C535 C533 1.415 . S
C535 C540 1.425 . S
C535 C542 1.409 . S
C536 H528 0.930 . S
C536 C534 1.419 . S
C536 C537 1.362 . S
C537 H529 0.930 . S
C537 C536 1.362 . S
C537 C540 1.409 . S
C538 H530 0.930 . S
C538 C539 1.355 . S
C538 C540 1.415 . S
C539 C538 1.355 . S
C539 C541 1.419 . S
C540 C535 1.425 . S
C540 C537 1.409 . S
C540 C538 1.415 . S
C541 H531 0.930 . S
C541 C539 1.419 . S
C541 C542 1.362 . S
C542 H532 0.930 . S
C542 C535 1.409 . S
C542 C541 1.362 . S
H543 C549 0.930 . S
H544 C552 0.930 . S
H545 C553 0.930 . S
H546 C554 0.930 . S
H547 C557 0.930 . S
H548 C558 0.930 . S
C549 H543 0.930 . S
C549 C550 1.355 . S
C549 C551 1.415 . S
C550 C549 1.355 . S
C550 C552 1.419 . S
C551 C549 1.415 . S
C551 C556 1.425 . S
C551 C558 1.409 . S
C552 H544 0.930 . S
C552 C550 1.419 . S
C552 C553 1.362 . S
C553 H545 0.930 . S
C553 C552 1.362 . S
C553 C556 1.409 . S
C554 H546 0.930 . S
C554 C555 1.355 . S
C554 C556 1.415 . S
C555 C554 1.355 . S
C555 C557 1.419 . S
C556 C551 1.425 . S
C556 C553 1.409 . S
C556 C554 1.415 . S
C557 H547 0.930 . S
C557 C555 1.419 . S
C557 C558 1.362 . S
C558 H548 0.930 . S
C558 C551 1.409 . S
C558 C557 1.362 . S
H559 C565 0.930 . S
H560 C568 0.930 . S
H561 C569 0.930 . S
H562 C570 0.930 . S
H563 C573 0.930 . S
H564 C574 0.930 . S
C565 H559 0.930 . S
C565 C566 1.355 . S
C565 C567 1.415 . S
C566 C565 1.355 . S
C566 C568 1.419 . S
C567 C565 1.415 . S
C567 C572 1.425 . S
C567 C574 1.409 . S
C568 H560 0.930 . S
C568 C566 1.419 . S
C568 C569 1.362 . S
C569 H561 0.930 . S
C569 C568 1.362 . S
C569 C572 1.409 . S
C570 H562 0.930 . S
C570 C571 1.355 . S
C570 C572 1.415 1_565 S
C571 C570 1.355 . S
C571 C573 1.419 . S
C572 C567 1.425 . S
C572 C569 1.409 . S
C572 C570 1.415 1_545 S
C573 H563 0.930 . S
C573 C571 1.419 . S
C573 C574 1.362 1_565 S
C574 H564 0.930 . S
C574 C567 1.409 . S
C574 C573 1.362 1_545 S
H575 C581 0.930 . S
H576 C584 0.930 . S
H577 C585 0.930 . S
H578 C586 0.930 . S
H579 C589 0.930 . S
H580 C590 0.930 . S
C581 H575 0.930 . S
C581 C582 1.355 . S
C581 C583 1.415 1_655 S
C582 C581 1.355 . S
C582 C584 1.419 . S
C583 C581 1.415 1_455 S
C583 C588 1.425 . S
C583 C590 1.409 . S
C584 H576 0.930 . S
C584 C582 1.419 . S
C584 C585 1.362 . S
C585 H577 0.930 . S
C585 C584 1.362 . S
C585 C588 1.392 1_655 S
C586 H578 0.930 . S
C586 C587 1.355 . S
C586 C588 1.433 . S
C587 C586 1.355 . S
C587 C589 1.419 . S
C588 C583 1.425 . S
C588 C585 1.392 1_455 S
C588 C586 1.433 . S
C589 H579 0.930 . S
C589 C587 1.419 . S
C589 C590 1.362 . S
C590 H580 0.930 . S
C590 C583 1.409 . S
C590 C589 1.362 . S
H591 C597 0.930 . S
H592 C600 0.930 . S
H593 C601 0.930 . S
H594 C602 0.930 . S
H595 C605 0.930 . S
H596 C606 0.930 . S
C597 H591 0.930 . S
C597 C598 1.355 . S
C597 C599 1.415 . S
C598 C597 1.355 . S
C598 C600 1.419 . S
C599 C597 1.415 . S
C599 C604 1.425 . S
C599 C606 1.409 . S
C600 H592 0.930 . S
C600 C598 1.419 . S
C600 C601 1.362 . S
C601 H593 0.930 . S
C601 C600 1.362 . S
C601 C604 1.409 . S
C602 H594 0.930 . S
C602 C603 1.355 . S
C602 C604 1.415 . S
C603 C602 1.355 . S
C603 C605 1.419 . S
C604 C599 1.425 . S
C604 C601 1.409 . S
C604 C602 1.415 . S
C605 H595 0.930 . S
C605 C603 1.419 . S
C605 C606 1.362 . S
C606 H596 0.930 . S
C606 C599 1.409 . S
C606 C605 1.362 . S
H607 C613 0.930 . S
H608 C616 0.930 1_565 S
H609 C617 0.930 . S
H610 C618 0.930 . S
H611 C621 0.930 . S
H612 C622 0.930 . S
C613 H607 0.930 . S
C613 C614 1.355 . S
C613 C615 1.415 1_565 S
C614 C613 1.355 . S
C614 C616 1.419 1_565 S
C615 C613 1.415 1_545 S
C615 C620 1.425 . S
C615 C622 1.409 . S
C616 H608 0.930 1_545 S
C616 C614 1.419 1_545 S
C616 C617 1.362 . S
C617 H609 0.930 . S
C617 C616 1.362 . S
C617 C620 1.409 . S
C618 H610 0.930 . S
C618 C619 1.355 . S
C618 C620 1.415 . S
C619 C618 1.355 . S
C619 C621 1.419 . S
C620 C615 1.425 . S
C620 C617 1.409 . S
C620 C618 1.415 . S
C621 H611 0.930 . S
C621 C619 1.419 . S
C621 C622 1.362 . S
C622 H612 0.930 . S
C622 C615 1.409 . S
C622 C621 1.362 . S
H623 C629 0.930 . S
H624 C632 0.930 . S
H625 C633 0.930 1_455 S
H626 C634 0.930 . S
H627 C637 0.930 . S
H628 C638 0.930 . S
C629 H623 0.930 . S
C629 C630 1.355 . S
C629 C631 1.415 . S
C630 C629 1.355 . S
C630 C632 1.419 . S
C631 C629 1.415 . S
C631 C636 1.425 1_655 S
C631 C638 1.409 . S
C632 H624 0.930 . S
C632 C630 1.419 . S
C632 C633 1.362 . S
C633 H625 0.930 1_655 S
C633 C632 1.362 . S
C633 C636 1.409 1_655 S
C634 H626 0.930 . S
C634 C635 1.355 . S
C634 C636 1.415 . S
C635 C634 1.355 . S
C635 C637 1.419 . S
C636 C631 1.425 1_455 S
C636 C633 1.409 1_455 S
C636 C634 1.415 . S
C637 H627 0.930 . S
C637 C635 1.419 . S
C637 C638 1.362 1_455 S
C638 H628 0.930 . S
C638 C631 1.409 . S
C638 C637 1.362 1_655 S
C214 C19 1.099 . S
C219 C20 1.045 . S
C230 C42 1.097 . S
C235 C43 1.039 . S
C246 C65 1.173 . S
C251 C66 1.116 . S
C262 C87 1.218 . S
C267 C90 1.086 . S
C278 C110 1.208 . S
C283 C113 1.127 . S
C294 C133 1.204 . S
C299 C136 1.021 . S
C310 C159 1.136 . S
C315 C156 1.173 1_554 S
C326 C182 0.993 . S
C331 C179 1.164 1_554 S
C342 C205 1.115 . S
C347 C202 1.179 1_554 S
C358 C132 1.499 . S
C363 C16 1.470 . S
C374 C39 1.446 . S
C379 C86 1.463 . S
C390 C62 1.467 . S
C395 C109 1.499 . S
C406 C64 1.259 . S
C411 C157 1.261 . S
C422 C180 1.242 . S
C427 C18 1.271 . S
C438 C203 1.214 . S
C443 C41 1.229 . S
C454 C200 1.098 . S
C459 C17 1.080 . S
C470 C40 1.073 . S
C475 C154 1.054 . S
C486 C177 1.118 . S
C491 C63 1.101 . S
C502 C67 1.197 . S
C507 C89 1.305 . S
C518 C112 1.233 . S
C523 C21 1.300 . S
C534 C44 1.273 . S
C539 C135 1.219 . S
C550 C201 1.326 . S
C555 C88 1.294 . S
C566 C155 1.334 . S
C571 C111 1.309 . S
C582 C178 1.319 . S
C587 C134 1.263 . S
C598 C158 1.058 . S
C603 C131 1.168 . S
C614 C85 1.212 . S
C619 C181 1.120 . S
C630 C204 1.143 . S
C635 C108 1.209 . S
