# Generated by pormake.
# Topology rac, (4)-cn, num edge types: 1
# Building blocks:
#     Node 0, Type 0, BuildingBlock: ICAMEG_clean_sbu_1, # of connection points: 4
#     Node 1, Type 0, BuildingBlock: ICAMEG_clean_sbu_1, # of connection points: 4
#     Node 2, Type 0, BuildingBlock: ICAMEG_clean_sbu_1, # of connection points: 4
#     Node 3, Type 0, BuildingBlock: ICAMEG_clean_sbu_1, # of connection points: 4
#     Node 4, Type 0, BuildingBlock: ICAMEG_clean_sbu_1, # of connection points: 4
#     Node 5, Type 0, BuildingBlock: ICAMEG_clean_sbu_1, # of connection points: 4
#     Node 6, Type 0, BuildingBlock: ICAMEG_clean_sbu_1, # of connection points: 4
#     Node 7, Type 0, BuildingBlock: ICAMEG_clean_sbu_1, # of connection points: 4
#     Edge 8, Type (0, 0), BuildingBlock: AJUNOK_clean_linker_0, # of connection points: 2
#     Edge 9, Type (0, 0), BuildingBlock: AJUNOK_clean_linker_0, # of connection points: 2
#     Edge 10, Type (0, 0), BuildingBlock: AJUNOK_clean_linker_0, # of connection points: 2
#     Edge 11, Type (0, 0), BuildingBlock: AJUNOK_clean_linker_0, # of connection points: 2
#     Edge 12, Type (0, 0), BuildingBlock: AJUNOK_clean_linker_0, # of connection points: 2
#     Edge 13, Type (0, 0), BuildingBlock: AJUNOK_clean_linker_0, # of connection points: 2
#     Edge 14, Type (0, 0), BuildingBlock: AJUNOK_clean_linker_0, # of connection points: 2
#     Edge 15, Type (0, 0), BuildingBlock: AJUNOK_clean_linker_0, # of connection points: 2
#     Edge 16, Type (0, 0), BuildingBlock: AJUNOK_clean_linker_0, # of connection points: 2
#     Edge 17, Type (0, 0), BuildingBlock: AJUNOK_clean_linker_0, # of connection points: 2
#     Edge 18, Type (0, 0), BuildingBlock: AJUNOK_clean_linker_0, # of connection points: 2
#     Edge 19, Type (0, 0), BuildingBlock: AJUNOK_clean_linker_0, # of connection points: 2
#     Edge 20, Type (0, 0), BuildingBlock: AJUNOK_clean_linker_0, # of connection points: 2
#     Edge 21, Type (0, 0), BuildingBlock: AJUNOK_clean_linker_0, # of connection points: 2
#     Edge 22, Type (0, 0), BuildingBlock: AJUNOK_clean_linker_0, # of connection points: 2
#     Edge 23, Type (0, 0), BuildingBlock: AJUNOK_clean_linker_0, # of connection points: 2
# Relax obj value: 0.285
# Max RMSD: 0.142
# Mean RMSD: 0.142
data_MOF--net-rac--node1-ICAMEG_clean_sbu_1--edge1-AJUNOK_clean_linker_0
_symmetry_space_group_name_H-M    P1
_symmetry_Int_Tables_number       1
_symmetry_cell_setting            triclinic
loop_
_symmetry_equiv_pos_as_xyz
'x, y, z'
_cell_length_a     33.872945
_cell_length_b     15.237169
_cell_length_c     31.913037
_cell_angle_alpha  89.991079
_cell_angle_beta   89.927215
_cell_angle_gamma 90.034729
loop_
_atom_site_label
_atom_site_type_symbol
_atom_site_fract_x
_atom_site_fract_y
_atom_site_fract_z
_atom_type_partial_charge
Co0 Co 0.35075 0.28535 0.09926 0.0
Co1 Co 0.39463 0.25233 0.00524 0.0
O2 O 0.398 0.28294 0.0646 0.0
C3 C 0.41833 0.23826 0.15792 0.0
O4 O 0.4458 0.24745 0.12924 0.0
C5 C 0.4439 0.41301 0.00874 0.0
O6 O 0.4143 0.448 0.0293 0.0
O7 O 0.3572 0.35108 0.9966 0.0
O8 O 0.31702 0.32292 0.05069 0.0
H9 H 0.32521 0.19775 0.86872 0.0
H10 H 0.42153 0.39671 0.12065 0.0
O11 O 0.38185 0.24845 0.14957 0.0
H12 H 0.30883 0.59884 0.11546 0.0
H13 H 0.2746 0.32953 0.23335 0.0
H14 H 0.26868 0.22026 0.08811 0.0
H15 H 0.29919 0.44205 0.10269 0.0
H16 H 0.33213 0.34415 0.18642 0.0
O17 O 0.44072 0.33453 0.99487 0.0
H18 H 0.32944 0.23156 0.94419 0.0
H19 H 0.45457 0.21897 0.93877 0.0
H20 H 0.21095 0.20199 0.13431 0.0
H21 H 0.43224 0.55264 0.13565 0.0
H22 H 0.21357 0.2573 0.20748 0.0
H23 H 0.37567 0.65597 0.13282 0.0
O24 O 0.34183 0.16107 0.08491 0.0
H25 H 0.51934 0.11346 0.05911 0.0
H26 H 0.39564 0.0629 0.98146 0.0
H27 H 0.44192 0.94005 0.99221 0.0
H28 H 0.50436 0.96503 0.03114 0.0
H29 H 0.47205 0.2343 0.048 0.0
H30 H 0.45176 0.18595 0.86312 0.0
H31 H 0.3867 0.17471 0.82767 0.0
O32 O 0.34812 0.16852 0.01528 0.0
C33 C 0.32498 0.36221 0.01643 0.0
C34 C 0.35373 0.20211 0.88384 0.0
C35 C 0.42476 0.19559 0.88069 0.0
N36 N 0.39217 0.22604 0.9459 0.0
C37 C 0.35629 0.2209 0.92658 0.0
C38 C 0.42617 0.21444 0.92349 0.0
C39 C 0.38824 0.18927 0.86082 0.0
C40 C 0.39645 0.43965 0.12107 0.0
N41 N 0.3595 0.40869 0.11232 0.0
C42 C 0.40282 0.52871 0.12894 0.0
C43 C 0.37112 0.58667 0.12721 0.0
C44 C 0.33365 0.55492 0.11765 0.0
C45 C 0.32836 0.46554 0.11038 0.0
C46 C 0.27308 0.30526 0.20152 0.0
C47 C 0.27023 0.24393 0.11994 0.0
C48 C 0.30554 0.31349 0.17474 0.0
N49 N 0.30389 0.28276 0.13451 0.0
C50 C 0.23739 0.23345 0.14599 0.0
C51 C 0.23887 0.26457 0.18702 0.0
C52 C 0.33376 0.13247 0.0484 0.0
C53 C 0.49219 0.10173 0.04215 0.0
C54 C 0.42254 0.07414 -0.00116 0.0
C55 C 0.44872 1.00438 0.00465 0.0
C56 C 0.48377 0.01845 0.02647 0.0
N57 N 0.43106 0.15574 0.01421 0.0
C58 C 0.46531 0.16994 0.03573 0.0
Co59 Co 0.18887 0.71678 0.09813 0.0
Co60 Co 0.14512 0.75198 0.00431 0.0
O61 O 0.14157 0.72046 0.06362 0.0
C62 C 0.12129 0.76347 0.15701 0.0
O63 O 0.09393 0.75551 0.12821 0.0
C64 C 0.09466 0.59359 0.00823 0.0
O65 O 0.12337 0.5596 0.03036 0.0
O66 O 0.18204 0.65213 0.99546 0.0
O67 O 0.22256 0.67995 0.04917 0.0
H68 H 0.21529 0.80704 0.86808 0.0
H69 H 0.11814 0.60555 0.12001 0.0
O70 O 0.15777 0.75279 0.14872 0.0
H71 H 0.23025 0.40217 0.11174 0.0
H72 H 0.26462 0.67117 0.23211 0.0
H73 H 0.27089 0.78241 0.08719 0.0
H74 H 0.24024 0.55951 0.10036 0.0
H75 H 0.20746 0.65568 0.18487 0.0
O76 O 0.0986 0.67118 0.99351 0.0
H77 H 0.2106 0.77209 0.94342 0.0
H78 H 0.08557 0.78789 0.93786 0.0
H79 H 0.32816 0.80203 0.13378 0.0
H80 H 0.10719 0.44921 0.13387 0.0
H81 H 0.32533 0.74581 0.20681 0.0
H82 H 0.16344 0.3453 0.12933 0.0
O83 O 0.19786 0.84133 0.0843 0.0
H84 H 0.02089 0.89302 0.0584 0.0
H85 H 0.14507 0.94177 0.98103 0.0
H86 H 0.09926 0.06545 0.99194 0.0
H87 H 0.03654 0.04136 0.03067 0.0
H88 H 0.06773 0.77134 0.04715 0.0
H89 H 0.08883 0.82207 0.86234 0.0
H90 H 0.15407 0.83229 0.82702 0.0
O91 O 0.19196 0.83467 0.01465 0.0
C92 C 0.21417 0.63979 0.01525 0.0
C93 C 0.1867 0.80312 0.88314 0.0
C94 C 0.11571 0.81145 0.87991 0.0
N95 N 0.1479 0.7791 0.94506 0.0
C96 C 0.18388 0.78368 0.92581 0.0
C97 C 0.11405 0.79193 0.92264 0.0
C98 C 0.15233 0.8172 0.86012 0.0
C99 C 0.14313 0.56233 0.11984 0.0
N100 N 0.18004 0.59316 0.11073 0.0
C101 C 0.13661 0.47306 0.12703 0.0
C102 C 0.16814 0.41478 0.12437 0.0
C103 C 0.20561 0.44644 0.1147 0.0
C104 C 0.21107 0.53607 0.10815 0.0
C105 C 0.26622 0.6959 0.20035 0.0
C106 C 0.26926 0.75832 0.11895 0.0
C107 C 0.23399 0.68708 0.17339 0.0
N108 N 0.23571 0.71851 0.13327 0.0
C109 C 0.30183 0.7696 0.14523 0.0
C110 C 0.30024 0.73797 0.18618 0.0
C111 C 0.20609 0.87045 0.0479 0.0
C112 C 0.04814 0.90435 0.04151 0.0
C113 C 0.11807 0.93091 -0.00164 0.0
C114 C 0.09215 1.00115 0.00425 0.0
C115 C 0.05695 0.98759 0.02597 0.0
N116 N 0.10915 0.84935 0.01356 0.0
C117 C 0.07478 0.83567 0.03502 0.0
Co118 Co 0.34458 0.2 0.39785 0.0
Co119 Co 0.39203 0.25666 0.487 0.0
O120 O 0.39327 0.21436 0.42945 0.0
C121 C 0.40337 0.26576 0.3339 0.0
O122 O 0.41935 0.32206 0.36 0.0
C123 C 0.44159 0.09701 0.48873 0.0
O124 O 0.41168 0.05927 0.47002 0.0
O125 O 0.35507 0.1596 0.50245 0.0
O126 O 0.31236 0.17655 0.44987 0.0
H127 H 0.32695 0.34008 0.62271 0.0
H128 H 0.4146 0.09565 0.37148 0.0
O129 O 0.37383 0.21965 0.34468 0.0
H130 H 0.31608 0.88047 0.41917 0.0
H131 H 0.26506 0.09691 0.27403 0.0
H132 H 0.26404 0.27769 0.40209 0.0
H133 H 0.2988 0.03645 0.41369 0.0
H134 H 0.323 0.10059 0.3205 0.0
O135 O 0.43864 0.17745 0.49973 0.0
H136 H 0.3289 0.28962 0.54926 0.0
H137 H 0.45403 0.30532 0.54898 0.0
H138 H 0.20658 0.28059 0.35491 0.0
H139 H 0.43152 0.93857 0.37118 0.0
H140 H 0.20651 0.1885 0.29071 0.0
H141 H 0.38243 0.82952 0.39644 0.0
O142 O 0.33447 0.32738 0.40475 0.0
H143 H 0.51449 0.38295 0.42113 0.0
H144 H 0.39381 0.45011 0.50151 0.0
H145 H 0.43981 0.56977 0.48323 0.0
H146 H 0.50079 0.53639 0.44302 0.0
H147 H 0.46745 0.2654 0.43964 0.0
H148 H 0.45355 0.35501 0.62258 0.0
H149 H 0.38964 0.37315 0.65985 0.0
O150 O 0.34543 0.33772 0.47399 0.0
C151 C 0.32188 0.14409 0.48532 0.0
C152 C 0.35497 0.33284 0.60676 0.0
C153 C 0.42603 0.34111 0.6067 0.0
N154 N 0.39146 0.29589 0.54475 0.0
C155 C 0.35623 0.30467 0.56514 0.0
C156 C 0.42613 0.31284 0.56507 0.0
C157 C 0.39016 0.35129 0.62759 0.0
C158 C 0.3923 0.04839 0.38023 0.0
N159 N 0.35565 0.07543 0.39279 0.0
C160 C 0.40228 0.95947 0.38056 0.0
C161 C 0.37475 0.89836 0.39471 0.0
C162 C 0.3374 0.92656 0.40702 0.0
C163 C 0.32796 0.01537 0.40468 0.0
C164 C 0.26462 0.13687 0.30207 0.0
C165 C 0.26467 0.23872 0.37387 0.0
C166 C 0.29722 0.13854 0.32882 0.0
N167 N 0.29693 0.18878 0.36436 0.0
C168 C 0.23191 0.24034 0.3473 0.0
C169 C 0.23185 0.18853 0.31134 0.0
C170 C 0.32937 0.36588 0.43996 0.0
C171 C 0.48804 0.39828 0.43873 0.0
C172 C 0.42007 0.43516 0.48361 0.0
C173 C 0.44609 0.50316 0.47351 0.0
C174 C 0.48031 0.48439 0.45095 0.0
N175 N 0.428 0.35074 0.47177 0.0
C176 C 0.46136 0.33194 0.44942 0.0
Co177 Co 0.19225 0.80975 0.39731 0.0
Co178 Co 0.14528 0.75108 0.48654 0.0
O179 O 0.14373 0.79338 0.42906 0.0
C180 C 0.13463 0.73969 0.33334 0.0
O181 O 0.11971 0.68151 0.35926 0.0
C182 C 0.09372 0.9085 0.4892 0.0
O183 O 0.12332 0.95061 0.47186 0.0
O184 O 0.18128 0.84966 0.50187 0.0
O185 O 0.22428 0.83525 0.44917 0.0
H186 H 0.21077 0.67158 0.62242 0.0
H187 H 0.12088 0.90988 0.3719 0.0
O188 O 0.16319 0.78847 0.34429 0.0
H189 H 0.21743 0.1311 0.41752 0.0
H190 H 0.27057 0.91651 0.2731 0.0
H191 H 0.27329 0.73426 0.40066 0.0
H192 H 0.23645 0.97584 0.41207 0.0
H193 H 0.21293 0.9108 0.32007 0.0
O194 O 0.09794 0.8278 0.49923 0.0
H195 H 0.20853 0.72188 0.54895 0.0
H196 H 0.08364 0.69847 0.54837 0.0
H197 H 0.33034 0.73295 0.35282 0.0
H198 H 0.10217 0.06599 0.37154 0.0
H199 H 0.32962 0.82596 0.28891 0.0
H200 H 0.1504 0.17811 0.39546 0.0
O201 O 0.20365 0.68283 0.4044 0.0
H202 H 0.02411 0.61977 0.42066 0.0
H203 H 0.1452 0.55749 0.50093 0.0
H204 H 0.1003 0.43596 0.48256 0.0
H205 H 0.03912 0.46687 0.44237 0.0
H206 H 0.07008 0.7392 0.4392 0.0
H207 H 0.08439 0.64896 0.62198 0.0
H208 H 0.14834 0.63474 0.65942 0.0
O209 O 0.19262 0.67227 0.47363 0.0
C210 C 0.21449 0.86607 0.48489 0.0
C211 C 0.18273 0.67712 0.6064 0.0
C212 C 0.1118 0.66453 0.60617 0.0
N213 N 0.14608 0.71183 0.54428 0.0
C214 C 0.18132 0.70519 0.56477 0.0
C215 C 0.11155 0.69275 0.56453 0.0
C216 C 0.14769 0.65655 0.62715 0.0
C217 C 0.14272 0.9585 0.38024 0.0
N218 N 0.17984 0.93365 0.39214 0.0
C219 C 0.13174 0.04683 0.38051 0.0
C220 C 0.15877 0.10966 0.39393 0.0
C221 C 0.19656 0.08366 0.40577 0.0
C222 C 0.20698 0.99533 0.40344 0.0
C223 C 0.27138 0.87625 0.30103 0.0
C224 C 0.27225 0.77351 0.37254 0.0
C225 C 0.23896 0.87351 0.3281 0.0
N226 N 0.23972 0.82295 0.36354 0.0
C227 C 0.30482 0.77287 0.34562 0.0
C228 C 0.30443 0.82518 0.30982 0.0
C229 C 0.20902 0.64475 0.43966 0.0
C230 C 0.05065 0.6055 0.43822 0.0
C231 C 0.11885 0.57136 0.48304 0.0
C232 C 0.09346 0.50231 0.47288 0.0
C233 C 0.05913 0.51969 0.45034 0.0
N234 N 0.11021 0.65546 0.47127 0.0
C235 C 0.07673 0.6729 0.44893 0.0
Co236 Co 0.69306 0.6947 0.89835 0.0
Co237 Co 0.64645 0.75636 0.98731 0.0
O238 O 0.64468 0.71266 0.93013 0.0
C239 C 0.63565 0.76317 0.83373 0.0
O240 O 0.62199 0.82459 0.85869 0.0
C241 C 0.59489 0.59897 0.99149 0.0
O242 O 0.62461 0.55604 0.97495 0.0
O243 O 0.68243 0.65814 0.0032 0.0
O244 O 0.72529 0.67083 0.95029 0.0
H245 H 0.71243 0.83901 0.12249 0.0
H246 H 0.62088 0.59486 0.87577 0.0
O247 O 0.66381 0.71383 0.84516 0.0
H248 H 0.71743 0.37365 0.92093 0.0
H249 H 0.77085 0.58303 0.77475 0.0
H250 H 0.77408 0.7708 0.90039 0.0
H251 H 0.73692 0.52858 0.9138 0.0
H252 H 0.71363 0.58957 0.82224 0.0
O253 O 0.59905 0.68014 0.00064 0.0
H254 H 0.7099 0.78675 0.04936 0.0
H255 H 0.58507 0.81098 0.049 0.0
H256 H 0.83091 0.77015 0.85228 0.0
H257 H 0.60161 0.43905 0.87685 0.0
H258 H 0.82993 0.67434 0.78934 0.0
H259 H 0.64992 0.32695 0.90052 0.0
O260 O 0.70481 0.82196 0.90441 0.0
H261 H 0.52519 0.88613 0.92104 0.0
H262 H 0.64657 0.95029 0.00054 0.0
H263 H 0.60166 0.07137 0.98169 0.0
H264 H 0.54032 0.03951 0.94192 0.0
H265 H 0.57117 0.76715 0.94005 0.0
H266 H 0.5861 0.86246 0.12229 0.0
H267 H 0.65017 0.87727 0.15945 0.0
O268 O 0.69376 0.83466 0.97361 0.0
C269 C 0.71559 0.64111 0.98626 0.0
C270 C 0.68435 0.83325 0.10659 0.0
C271 C 0.61344 0.8463 0.10649 0.0
N272 N 0.64747 0.79717 0.0448 0.0
C273 C 0.68277 0.80409 0.06514 0.0
C274 C 0.61302 0.81698 0.06503 0.0
C275 C 0.6494 0.85461 0.12732 0.0
C276 C 0.64273 0.54612 0.88382 0.0
N277 N 0.68023 0.57077 0.89445 0.0
C278 C 0.63144 0.45799 0.88497 0.0
C279 C 0.65851 0.39521 0.89825 0.0
C280 C 0.69658 0.42104 0.90913 0.0
C281 C 0.70731 0.50911 0.90579 0.0
C282 C 0.77181 0.62423 0.80234 0.0
C283 C 0.77293 0.73015 0.87273 0.0
C284 C 0.73958 0.62767 0.82965 0.0
N285 N 0.74043 0.67992 0.86452 0.0
C286 C 0.80539 0.72973 0.84564 0.0
C287 C 0.80487 0.67585 0.8104 0.0
C288 C 0.71013 0.86122 0.93942 0.0
C289 C 0.5518 0.90081 0.93843 0.0
C290 C 0.62015 0.936 0.98282 0.0
C291 C 0.59476 1.0048 0.97239 0.0
C292 C 0.56034 0.98688 0.95009 0.0
N293 N 0.61142 0.85163 0.97155 0.0
C294 C 0.57789 0.83367 0.9494 0.0
Co295 Co 0.84479 0.31041 0.89853 0.0
Co296 Co 0.89238 0.25 0.98685 0.0
O297 O 0.89368 0.29424 0.92966 0.0
C298 C 0.90328 0.24854 0.83333 0.0
O299 O 0.91895 0.18988 0.85842 0.0
C300 C 0.944 0.4073 0.9901 0.0
O301 O 0.91459 0.44946 0.97266 0.0
O302 O 0.85616 0.34788 0.00309 0.0
O303 O 0.8129 0.3315 0.95101 0.0
H304 H 0.82705 0.16492 0.12223 0.0
H305 H 0.91549 0.4153 0.8753 0.0
O306 O 0.87372 0.29376 0.8448 0.0
H307 H 0.81627 0.6291 0.92231 0.0
H308 H 0.76455 0.41838 0.77613 0.0
H309 H 0.76431 0.23203 0.90233 0.0
H310 H 0.799 0.4732 0.91524 0.0
H311 H 0.8224 0.41448 0.8227 0.0
O312 O 0.93962 0.32663 4e-05 0.0
H313 H 0.8292 0.21758 0.04913 0.0
H314 H 0.95415 0.19632 0.04818 0.0
H315 H 0.70678 0.23033 0.8553 0.0
H316 H 0.93266 0.57233 0.87679 0.0
H317 H 0.70631 0.32522 0.79201 0.0
H318 H 0.88307 0.68069 0.90153 0.0
O319 O 0.83448 0.18254 0.90418 0.0
H320 H 1.01402 0.12272 0.91998 0.0
H321 H 0.89302 0.05598 -1e-05 0.0
H322 H 0.93846 0.9359 0.98103 0.0
H323 H 0.99963 0.96906 0.94105 0.0
H324 H 0.96751 0.24069 0.93907 0.0
H325 H 0.95348 0.14446 0.12142 0.0
H326 H 0.88955 0.12796 0.15886 0.0
O327 O 0.84532 0.17071 0.97337 0.0
C328 C 0.82279 0.36375 0.98639 0.0
C329 C 0.85508 0.17147 0.10621 0.0
C330 C 0.92604 0.16008 0.10577 0.0
N331 N 0.89168 0.20881 0.0443 0.0
C332 C 0.85645 0.20091 0.06479 0.0
C333 C 0.92625 0.18965 0.06435 0.0
C334 C 0.89016 0.15083 0.12675 0.0
C335 C 0.89308 0.46242 0.88383 0.0
N336 N 0.85606 0.43509 0.89496 0.0
C337 C 0.90318 0.55124 0.8852 0.0
C338 C 0.87539 0.61194 0.89907 0.0
C339 C 0.83775 0.58339 0.91023 0.0
C340 C 0.82826 0.49472 0.90687 0.0
C341 C 0.76426 0.3774 0.80383 0.0
C342 C 0.76479 0.27234 0.87454 0.0
C343 C 0.79687 0.37535 0.83056 0.0
N344 N 0.79688 0.3233 0.86551 0.0
C345 C 0.73197 0.27137 0.84804 0.0
C346 C 0.73167 0.32475 0.81261 0.0
C347 C 0.82936 0.14312 0.93919 0.0
C348 C 0.98749 0.10747 0.93746 0.0
C349 C 0.91933 0.07084 0.98213 0.0
C350 C 0.94504 1.00259 0.97166 0.0
C351 C 0.97936 0.02124 0.94923 0.0
N352 N 0.92767 0.15538 0.97077 0.0
C353 C 0.96109 0.17404 0.94848 0.0
Co354 Co 0.68933 0.79365 0.59753 0.0
Co355 Co 0.64508 0.75595 0.50435 0.0
O356 O 0.64171 0.78868 0.5635 0.0
C357 C 0.62258 0.74614 0.65715 0.0
O358 O 0.59504 0.75129 0.62841 0.0
C359 C 0.59236 0.91174 0.50748 0.0
O360 O 0.62041 0.95032 0.52895 0.0
O361 O 0.68124 0.85705 0.49491 0.0
O362 O 0.72251 0.82967 0.54799 0.0
H363 H 0.71491 0.70113 0.36792 0.0
H364 H 0.61864 0.90365 0.62052 0.0
O365 O 0.65888 0.75867 0.64866 0.0
H366 H 0.72971 0.10928 0.60774 0.0
H367 H 0.76617 0.84449 0.73037 0.0
H368 H 0.77113 0.72687 0.58659 0.0
H369 H 0.74018 0.95179 0.59787 0.0
H370 H 0.70876 0.85869 0.68341 0.0
O371 O 0.59793 0.83422 0.49338 0.0
H372 H 0.71035 0.73738 0.44312 0.0
H373 H 0.58544 0.71596 0.43843 0.0
H374 H 0.8285 0.7078 0.63307 0.0
H375 H 0.60729 0.06038 0.63304 0.0
H376 H 0.82638 0.76743 0.7055 0.0
H377 H 0.663 0.16539 0.62625 0.0
O378 O 0.69843 0.66883 0.58431 0.0
H379 H 0.52186 0.61219 0.55954 0.0
H380 H 0.64598 0.56572 0.48176 0.0
H381 H 0.60072 0.44109 0.49308 0.0
H382 H 0.53801 0.46406 0.53198 0.0
H383 H 0.56818 0.73478 0.54795 0.0
H384 H 0.58856 0.68047 0.36307 0.0
H385 H 0.65368 0.67239 0.32738 0.0
O386 O 0.69241 0.67497 0.5147 0.0
C387 C 0.71364 0.86974 0.51418 0.0
C388 C 0.68637 0.70413 0.38314 0.0
C389 C 0.61545 0.69263 0.38041 0.0
N390 N 0.64773 0.72773 0.4452 0.0
C391 C 0.68363 0.72432 0.42573 0.0
C392 C 0.61386 0.71295 0.42306 0.0
C393 C 0.652 0.68809 0.36041 0.0
C394 C 0.64341 0.94756 0.61918 0.0
N395 N 0.68029 0.91731 0.60952 0.0
C396 C 0.63666 0.03695 0.62573 0.0
C397 C 0.66789 0.09584 0.62185 0.0
C398 C 0.70532 0.06464 0.61172 0.0
C399 C 0.71104 0.97493 0.60593 0.0
C400 C 0.76747 0.81831 0.69887 0.0
C401 C 0.76975 0.75215 0.61814 0.0
C402 C 0.73512 0.8265 0.67204 0.0
N403 N 0.73646 0.79329 0.63224 0.0
C404 C 0.8024 0.74132 0.64434 0.0
C405 C 0.80121 0.77489 0.68494 0.0
C406 C 0.70657 0.63938 0.54796 0.0
C407 C 0.54912 0.60133 0.54258 0.0
C408 C 0.61902 0.57606 0.49922 0.0
C409 C 0.5934 0.50529 0.50534 0.0
C410 C 0.55821 0.51822 0.52714 0.0
N411 N 0.6098 0.65753 0.51428 0.0
C412 C 0.57546 0.67054 0.5359 0.0
Co413 Co 0.84997 0.2219 0.59784 0.0
Co414 Co 0.89429 0.25698 0.50422 0.0
O415 O 0.89739 0.22504 0.56344 0.0
C416 C 0.91712 0.26905 0.65693 0.0
O417 O 0.94471 0.26196 0.62826 0.0
C418 C 0.94322 0.09585 0.50706 0.0
O419 O 0.91353 0.0608 0.52749 0.0
O420 O 0.85667 0.15866 0.49489 0.0
O421 O 0.81631 0.18619 0.54885 0.0
H422 H 0.8254 0.3155 0.36778 0.0
H423 H 0.92036 0.11105 0.62077 0.0
O424 O 0.88078 0.25719 0.64855 0.0
H425 H 0.80891 0.90687 0.60762 0.0
H426 H 0.77324 0.17267 0.73112 0.0
H427 H 0.76832 0.28974 0.58722 0.0
H428 H 0.79866 0.06455 0.59861 0.0
H429 H 0.83071 0.15849 0.68407 0.0
O430 O 0.94024 0.17464 0.49353 0.0
H431 H 0.82934 0.27964 0.44305 0.0
H432 H 0.9545 0.29163 0.43814 0.0
H433 H 0.71078 0.30812 0.63367 0.0
H434 H 0.93143 0.95411 0.63271 0.0
H435 H 0.7129 0.24887 0.70617 0.0
H436 H 0.87557 0.84974 0.62565 0.0
O437 O 0.84132 0.34662 0.58425 0.0
H438 H 1.01912 0.39359 0.55927 0.0
H439 H 0.89575 0.447 0.48152 0.0
H440 H 0.9422 0.56928 0.49319 0.0
H441 H 1.00446 0.54288 0.5322 0.0
H442 H 0.97167 0.27333 0.54724 0.0
H443 H 0.95199 0.3267 0.36269 0.0
H444 H 0.88706 0.3393 0.32708 0.0
O445 O 0.84797 0.34095 0.5146 0.0
C446 C 0.8243 0.14749 0.51446 0.0
C447 C 0.85386 0.31056 0.38297 0.0
C448 C 0.92492 0.31674 0.3801 0.0
N449 N 0.89207 0.28474 0.44502 0.0
C450 C 0.85626 0.29061 0.4256 0.0
C451 C 0.92616 0.29673 0.42279 0.0
C452 C 0.88847 0.32382 0.36015 0.0
C453 C 0.89548 0.06749 0.61948 0.0
N454 N 0.85864 0.09825 0.61008 0.0
C455 C 0.90208 0.97795 0.62566 0.0
C456 C 0.87077 0.91942 0.6216 0.0
C457 C 0.83338 0.95115 0.61174 0.0
C458 C 0.82778 0.04101 0.60644 0.0
C459 C 0.77194 0.19867 0.69959 0.0
C460 C 0.76968 0.26446 0.61878 0.0
C461 C 0.80434 0.19057 0.67273 0.0
N462 N 0.80299 0.22353 0.63288 0.0
C463 C 0.73693 0.27495 0.64496 0.0
C464 C 0.73812 0.24159 0.6856 0.0
C465 C 0.83358 0.37635 0.54786 0.0
C466 C 0.99204 0.40594 0.54229 0.0
C467 C 0.92257 0.43512 0.49892 0.0
C468 C 0.94885 0.50458 0.50526 0.0
C469 C 0.98379 0.48971 0.52712 0.0
N470 N 0.9309 0.35306 0.51383 0.0
C471 C 0.96507 0.33806 0.53535 0.0
C472 C 0.28582 0.0303 0.08296 0.0
C473 C 0.30243 0.06296 0.04555 0.0
C474 C 0.25405 0.9718 0.08286 0.0
C475 C 0.2374 0.94009 0.04533 0.0
H476 H 0.29699 0.05094 0.11318 0.0
H477 H 0.24293 0.95036 0.113 0.0
S478 S 0.26969 1.00333 0.93815 0.0
N479 N 0.29934 0.05919 0.96939 0.0
N480 N 0.24018 0.94638 0.96918 0.0
C481 C 0.25366 0.97142 0.00741 0.0
C482 C 0.28603 0.03284 0.00752 0.0
C483 C 0.25448 0.53748 0.40386 0.0
C484 C 0.23886 0.57195 0.44139 0.0
C485 C 0.28413 0.4731 0.40393 0.0
C486 C 0.29996 0.43955 0.44154 0.0
H487 H 0.24382 0.56049 0.37382 0.0
H488 H 0.29452 0.44912 0.37393 0.0
S489 S 0.27001 0.50785 0.54881 0.0
N490 N 0.242 0.5674 0.51754 0.0
N491 N 0.29768 0.44706 0.51766 0.0
C492 C 0.28487 0.47372 0.47941 0.0
C493 C 0.25437 0.53926 0.47934 0.0
C494 C 0.75471 0.9702 0.90317 0.0
C495 C 0.73973 0.93466 0.94079 0.0
C496 C 0.78398 0.03569 0.90309 0.0
C497 C 0.80008 0.069 0.94062 0.0
H498 H 0.74379 0.94727 0.87322 0.0
H499 H 0.79389 0.06063 0.87308 0.0
S500 S 0.7719 0.99765 0.04803 0.0
N501 N 0.74383 0.93794 0.01689 0.0
N502 N 0.7988 0.05985 0.01674 0.0
C503 C 0.78565 0.03363 0.97854 0.0
C504 C 0.75553 0.96722 0.97863 0.0
C505 C 0.7546 0.53808 0.58279 0.0
C506 C 0.73782 0.56979 0.54534 0.0
C507 C 0.78623 0.47927 0.58273 0.0
C508 C 0.80254 0.44638 0.54523 0.0
H509 H 0.74366 0.55969 0.61298 0.0
H510 H 0.79751 0.4585 0.61289 0.0
S511 S 0.76939 0.50613 0.43799 0.0
N512 N 0.74018 0.56336 0.46918 0.0
N513 N 0.79908 0.4501 0.46909 0.0
C514 C 0.78605 0.47665 0.50729 0.0
C515 C 0.75383 0.5383 0.50734 0.0
C516 C 0.4133 0.16612 0.22646 0.0
C517 C 0.42841 0.23538 0.20253 0.0
C518 C 0.40864 0.17456 0.26973 0.0
C519 C 0.41809 0.25348 0.2906 0.0
H520 H 0.40223 0.1075 0.21123 0.0
H521 H 0.39505 0.12055 0.28649 0.0
S522 S 0.4628 0.45086 0.24204 0.0
N523 N 0.4566 0.38194 0.20262 0.0
N524 N 0.44716 0.39882 0.28438 0.0
C525 C 0.43639 0.32061 0.26748 0.0
C526 C 0.44158 0.31138 0.22321 0.0
C527 C 0.12885 0.82949 0.26875 0.0
C528 C 0.12025 0.75028 0.28983 0.0
C529 C 0.12471 0.83685 0.22538 0.0
C530 C 0.11091 0.76619 0.20156 0.0
H531 H 0.14141 0.88474 0.28545 0.0
H532 H 0.13513 0.89599 0.21004 0.0
S533 S 0.07905 0.54904 0.24152 0.0
N534 N 0.09338 0.60282 0.28383 0.0
N535 N 0.08481 0.61774 0.20191 0.0
C536 C 0.09858 0.68961 0.22239 0.0
C537 C 0.10329 0.68148 0.26675 0.0
C538 C 0.60815 0.82567 0.76704 0.0
C539 C 0.62136 0.75282 0.79015 0.0
C540 C 0.60396 0.82048 0.72327 0.0
C541 C 0.61239 0.74217 0.70167 0.0
H542 H 0.60415 0.8886 0.78223 0.0
H543 H 0.59733 0.87982 0.70593 0.0
S544 S 0.64154 0.52964 0.74804 0.0
N545 N 0.6374 0.59679 0.78838 0.0
N546 N 0.63036 0.58886 0.7064 0.0
C547 C 0.6222 0.66741 0.72466 0.0
C548 C 0.62635 0.67223 0.76894 0.0
C549 C 0.93765 0.19691 0.72297 0.0
C550 C 0.92714 0.27405 0.70145 0.0
C551 C 0.93309 0.19064 0.76669 0.0
C552 C 0.91749 0.26115 0.7898 0.0
H553 H 0.94613 0.13882 0.70557 0.0
H554 H 0.93877 0.12826 0.78181 0.0
S555 S 0.89152 0.48157 0.74801 0.0
N556 N 0.90479 0.42448 0.70635 0.0
N557 N 0.89711 0.41464 0.78823 0.0
C558 C 0.91045 0.3411 0.76873 0.0
C559 C 0.91495 0.347 0.72453 0.0
C560 C 0.51522 0.42178 0.98672 0.0
C561 C 0.48173 0.46279 0.00405 0.0
C562 C 0.5515 0.46605 0.98327 0.0
C563 C 0.55606 0.55356 0.9969 0.0
H564 H 0.5136 0.35449 0.9759 0.0
H565 H 0.57615 0.43101 0.96956 0.0
S566 S 0.47748 0.69186 0.04425 0.0
N567 N 0.45558 0.59712 0.03484 0.0
N568 N 0.5235 0.67983 0.02822 0.0
C569 C 0.52279 0.59563 0.01417 0.0
C570 C 0.48579 0.55048 0.01777 0.0
C571 C 0.02329 0.58551 0.98655 0.0
C572 C 0.05695 0.54385 0.00302 0.0
C573 C 0.98706 0.5411 0.98298 0.0
C574 C 0.98276 0.45283 0.99562 0.0
H575 H 0.02473 0.65345 0.97665 0.0
H576 H 0.96221 0.57667 0.97006 0.0
S577 S 0.06212 0.31236 0.03978 0.0
N578 N 0.0837 0.40792 0.03146 0.0
N579 N 1.0159 0.32496 0.02466 0.0
C580 C 1.01627 0.41007 0.01188 0.0
C581 C 0.05319 0.45535 0.01559 0.0
C582 C 0.54966 0.04637 0.51292 0.0
C583 C 0.55364 0.95717 0.50185 0.0
C584 C 0.51341 0.09065 0.50909 0.0
C585 C 0.47939 0.04767 0.49422 0.0
H586 H 0.57482 0.08283 0.52457 0.0
H587 H 0.51223 0.15941 0.51762 0.0
S588 S 0.47329 0.81287 0.46269 0.0
N589 N 0.51985 0.82688 0.47628 0.0
N590 N 0.45195 0.90914 0.46952 0.0
C591 C 0.48283 0.95804 0.48349 0.0
C592 C 0.51981 0.91315 0.48716 0.0
C593 C 1.01451 0.08664 0.48495 0.0
C594 C 0.9809 0.04573 0.50213 0.0
C595 C 0.05067 0.042 0.48132 0.0
C596 C 0.055 0.95423 0.49467 0.0
H597 H 1.01308 0.15414 0.4744 0.0
H598 H 0.07543 0.077 0.46777 0.0
S599 S 0.97595 0.8159 0.5413 0.0
N600 N 0.95434 0.91108 0.53229 0.0
N601 N 0.02203 0.82774 0.5254 0.0
C602 C 0.02158 0.91224 0.51174 0.0
C603 C 0.98471 0.95773 0.51548 0.0
C604 C 0.28225 0.58667 0.00106 0.0
C605 C 0.24144 0.56981 0.0021 0.0
C606 C 0.30965 0.51769 0.00068 0.0
C607 C 0.29698 0.42999 0.0028 0.0
H608 H 0.29304 0.65349 0.00322 0.0
H609 H 0.34081 0.5333 0.00274 0.0
S610 S 0.19358 0.35106 0.00377 0.0
N611 N 0.18983 0.45906 0.00184 0.0
N612 N 0.24137 0.3296 0.00357 0.0
C613 C 0.25637 0.41225 0.00152 0.0
C614 C 0.22852 0.48228 0.0005 0.0
C615 C 0.25405 0.09178 0.5022 0.0
C616 C 0.29503 0.07675 0.50289 0.0
C617 C 0.22713 0.02167 0.50309 0.0
C618 C 0.24048 0.93435 0.50264 0.0
H619 H 0.24285 0.1576 0.49733 0.0
H620 H 0.19604 0.0358 0.49887 0.0
S621 S 0.34408 0.86042 0.51337 0.0
N622 N 0.34708 0.96862 0.51184 0.0
N623 N 0.29658 0.83676 0.50984 0.0
C624 C 0.28098 0.91879 0.50793 0.0
C625 C 0.30828 0.99025 0.509 0.0
C626 C 0.72815 0.48569 0.00488 0.0
C627 C 0.7415 0.57303 0.00435 0.0
C628 C 0.75507 0.41562 0.00391 0.0
C629 C 0.79605 0.43072 0.00447 0.0
H630 H 0.69705 0.4715 0.00072 0.0
H631 H 0.74384 0.34982 -0.001 0.0
S632 S 0.84506 0.64701 0.01582 0.0
N633 N 0.79758 0.67065 0.01209 0.0
N634 N 0.84808 0.53883 0.01393 0.0
C635 C 0.8093 0.51717 0.01084 0.0
C636 C 0.78199 0.58861 0.00984 0.0
C637 C 0.78156 0.92303 0.49905 0.0
C638 C 0.74075 0.93971 0.5005 0.0
C639 C 0.80895 0.99212 0.49837 0.0
C640 C 0.79628 0.07979 0.5006 0.0
H641 H 0.79239 0.85627 0.50122 0.0
H642 H 0.84011 0.97661 0.50024 0.0
S643 S 0.69285 0.15822 0.50224 0.0
N644 N 0.6891 0.05019 0.5005 0.0
N645 N 0.74063 0.17992 0.50164 0.0
C646 C 0.75564 0.09732 0.49956 0.0
C647 C 0.7278 0.02716 0.49886 0.0
loop_
_geom_bond_atom_site_label_1
_geom_bond_atom_site_label_2
_geom_bond_distance
_geom_bond_site_symmetry_2
_ccdc_geom_bond_type
Co0 O2 2.143 . S
Co0 O8 2.074 . S
Co0 O11 2.093 . S
Co0 O24 2.097 . S
Co0 N41 2.151 . S
Co0 N49 2.214 . S
Co1 O2 2.160 1_556 S
Co1 O7 2.058 . S
Co1 O17 2.057 . S
Co1 O32 2.037 1_556 S
Co1 N36 2.145 . S
Co1 N57 2.257 1_556 S
O2 Co0 2.143 . S
O2 Co1 2.160 1_554 S
C3 O4 1.278 . S
C3 O11 1.224 . S
O4 C3 1.278 . S
C5 O6 1.245 . S
C5 O17 1.232 1_554 S
O6 C5 1.245 . S
O7 Co1 2.058 . S
O7 C33 1.269 1_556 S
O8 Co0 2.074 . S
O8 C33 1.257 . S
H9 C34 0.930 . S
H10 C40 0.930 . S
O11 Co0 2.093 . S
O11 C3 1.224 . S
H12 C44 0.929 . S
H13 C46 0.930 . S
H14 C47 0.930 . S
H15 C45 0.929 . S
H16 C48 0.928 . S
O17 Co1 2.057 . S
O17 C5 1.232 1_556 S
H18 C37 0.929 . S
H19 C38 0.929 . S
H20 C50 0.931 . S
H21 C42 0.929 . S
H22 C51 0.930 . S
H23 C43 0.931 . S
O24 Co0 2.097 . S
O24 C52 1.214 . S
H25 C53 0.929 . S
H26 C54 0.929 . S
H27 C55 0.930 . S
H28 C56 0.929 . S
H29 C58 0.930 . S
H30 C35 0.930 . S
H31 C39 0.930 . S
O32 Co1 2.037 1_554 S
O32 C52 1.234 . S
C33 O7 1.269 1_554 S
C33 O8 1.257 . S
C34 H9 0.930 . S
C34 C37 1.388 . S
C34 C39 1.418 . S
C35 H30 0.930 . S
C35 C38 1.404 . S
C35 C39 1.353 . S
N36 Co1 2.145 . S
N36 C37 1.397 . S
N36 C38 1.334 . S
C37 H18 0.929 . S
C37 C34 1.388 . S
C37 N36 1.397 . S
C38 H19 0.929 . S
C38 C35 1.404 . S
C38 N36 1.334 . S
C39 H31 0.930 . S
C39 C34 1.418 . S
C39 C35 1.353 . S
C40 H10 0.930 . S
C40 N41 1.330 . S
C40 C42 1.446 . S
N41 Co0 2.151 . S
N41 C40 1.330 . S
N41 C45 1.418 . S
C42 H21 0.929 . S
C42 C40 1.446 . S
C42 C43 1.332 . S
C43 H23 0.931 . S
C43 C42 1.332 . S
C43 C44 1.267 . S
C44 H12 0.929 . S
C44 C43 1.267 . S
C44 C45 1.251 . S
C45 H15 0.929 . S
C45 N41 1.418 . S
C45 C44 1.251 . S
C46 H13 0.930 . S
C46 C48 1.406 . S
C46 C51 1.261 . S
C47 H14 0.930 . S
C47 N49 1.325 . S
C47 C50 1.357 . S
C48 H16 0.928 . S
C48 C46 1.406 . S
C48 N49 1.261 . S
N49 Co0 2.214 . S
N49 C47 1.325 . S
N49 C48 1.261 . S
C50 H20 0.931 . S
C50 C47 1.357 . S
C50 C51 1.312 . S
C51 H22 0.930 . S
C51 C46 1.261 . S
C51 C50 1.312 . S
C52 O24 1.214 . S
C52 O32 1.234 . S
C53 H25 0.929 . S
C53 C56 1.391 1_545 S
C53 C58 1.391 . S
C54 H26 0.929 . S
C54 C55 1.390 1_545 S
C54 N57 1.391 1_556 S
C55 H27 0.930 . S
C55 C54 1.390 1_565 S
C55 C56 1.392 1_556 S
C56 H28 0.929 . S
C56 C53 1.391 1_565 S
C56 C55 1.392 1_554 S
N57 Co1 2.257 1_554 S
N57 C54 1.391 1_554 S
N57 C58 1.388 . S
C58 H29 0.930 . S
C58 C53 1.391 . S
C58 N57 1.388 . S
Co59 O61 2.143 . S
Co59 O67 2.074 . S
Co59 O70 2.093 . S
Co59 O83 2.097 . S
Co59 N100 2.151 . S
Co59 N108 2.214 . S
Co60 O61 2.160 1_556 S
Co60 O66 2.058 . S
Co60 O76 2.057 . S
Co60 O91 2.037 1_556 S
Co60 N95 2.145 . S
Co60 N116 2.257 1_556 S
O61 Co59 2.143 . S
O61 Co60 2.160 1_554 S
C62 O63 1.278 . S
C62 O70 1.224 . S
O63 C62 1.278 . S
C64 O65 1.245 . S
C64 O76 1.232 1_554 S
O65 C64 1.245 . S
O66 Co60 2.058 . S
O66 C92 1.269 1_556 S
O67 Co59 2.074 . S
O67 C92 1.257 . S
H68 C93 0.930 . S
H69 C99 0.930 . S
O70 Co59 2.093 . S
O70 C62 1.224 . S
H71 C103 0.929 . S
H72 C105 0.930 . S
H73 C106 0.930 . S
H74 C104 0.929 . S
H75 C107 0.928 . S
O76 Co60 2.057 . S
O76 C64 1.232 1_556 S
H77 C96 0.929 . S
H78 C97 0.929 . S
H79 C109 0.931 . S
H80 C101 0.929 . S
H81 C110 0.930 . S
H82 C102 0.931 . S
O83 Co59 2.097 . S
O83 C111 1.214 . S
H84 C112 0.929 . S
H85 C113 0.929 . S
H86 C114 0.930 . S
H87 C115 0.929 . S
H88 C117 0.930 . S
H89 C94 0.930 . S
H90 C98 0.930 . S
O91 Co60 2.037 1_554 S
O91 C111 1.234 . S
C92 O66 1.269 1_554 S
C92 O67 1.257 . S
C93 H68 0.930 . S
C93 C96 1.388 . S
C93 C98 1.418 . S
C94 H89 0.930 . S
C94 C97 1.404 . S
C94 C98 1.353 . S
N95 Co60 2.145 . S
N95 C96 1.397 . S
N95 C97 1.334 . S
C96 H77 0.929 . S
C96 C93 1.388 . S
C96 N95 1.397 . S
C97 H78 0.929 . S
C97 C94 1.404 . S
C97 N95 1.334 . S
C98 H90 0.930 . S
C98 C93 1.418 . S
C98 C94 1.353 . S
C99 H69 0.930 . S
C99 N100 1.330 . S
C99 C101 1.446 . S
N100 Co59 2.151 . S
N100 C99 1.330 . S
N100 C104 1.418 . S
C101 H80 0.929 . S
C101 C99 1.446 . S
C101 C102 1.332 . S
C102 H82 0.931 . S
C102 C101 1.332 . S
C102 C103 1.267 . S
C103 H71 0.929 . S
C103 C102 1.267 . S
C103 C104 1.251 . S
C104 H74 0.929 . S
C104 N100 1.418 . S
C104 C103 1.251 . S
C105 H72 0.930 . S
C105 C107 1.406 . S
C105 C110 1.261 . S
C106 H73 0.930 . S
C106 N108 1.325 . S
C106 C109 1.357 . S
C107 H75 0.928 . S
C107 C105 1.406 . S
C107 N108 1.261 . S
N108 Co59 2.214 . S
N108 C106 1.325 . S
N108 C107 1.261 . S
C109 H79 0.931 . S
C109 C106 1.357 . S
C109 C110 1.312 . S
C110 H81 0.930 . S
C110 C105 1.261 . S
C110 C109 1.312 . S
C111 O83 1.214 . S
C111 O91 1.234 . S
C112 H84 0.929 . S
C112 C115 1.391 1_565 S
C112 C117 1.391 . S
C113 H85 0.929 . S
C113 C114 1.390 1_565 S
C113 N116 1.391 1_556 S
C114 H86 0.930 . S
C114 C113 1.390 1_545 S
C114 C115 1.392 1_556 S
C115 H87 0.929 . S
C115 C112 1.391 1_545 S
C115 C114 1.392 1_554 S
N116 Co60 2.257 1_554 S
N116 C113 1.391 1_554 S
N116 C117 1.388 . S
C117 H88 0.930 . S
C117 C112 1.391 . S
C117 N116 1.388 . S
Co118 O120 2.143 . S
Co118 O126 2.074 . S
Co118 O129 2.093 . S
Co118 O142 2.097 . S
Co118 N159 2.151 . S
Co118 N167 2.214 . S
Co119 O120 2.160 . S
Co119 O125 2.058 . S
Co119 O135 2.057 . S
Co119 O150 2.037 . S
Co119 N154 2.145 . S
Co119 N175 2.257 . S
O120 Co118 2.143 . S
O120 Co119 2.160 . S
C121 O122 1.278 . S
C121 O129 1.224 . S
O122 C121 1.278 . S
C123 O124 1.245 . S
C123 O135 1.232 . S
O124 C123 1.245 . S
O125 Co119 2.058 . S
O125 C151 1.269 . S
O126 Co118 2.074 . S
O126 C151 1.257 . S
H127 C152 0.930 . S
H128 C158 0.930 . S
O129 Co118 2.093 . S
O129 C121 1.224 . S
H130 C162 0.929 . S
H131 C164 0.930 . S
H132 C165 0.930 . S
H133 C163 0.929 . S
H134 C166 0.928 . S
O135 Co119 2.057 . S
O135 C123 1.232 . S
H136 C155 0.929 . S
H137 C156 0.929 . S
H138 C168 0.931 . S
H139 C160 0.929 1_565 S
H140 C169 0.930 . S
H141 C161 0.931 . S
O142 Co118 2.097 . S
O142 C170 1.214 . S
H143 C171 0.929 . S
H144 C172 0.929 . S
H145 C173 0.930 . S
H146 C174 0.929 . S
H147 C176 0.930 . S
H148 C153 0.930 . S
H149 C157 0.930 . S
O150 Co119 2.037 . S
O150 C170 1.234 . S
C151 O125 1.269 . S
C151 O126 1.257 . S
C152 H127 0.930 . S
C152 C155 1.388 . S
C152 C157 1.418 . S
C153 H148 0.930 . S
C153 C156 1.404 . S
C153 C157 1.353 . S
N154 Co119 2.145 . S
N154 C155 1.397 . S
N154 C156 1.334 . S
C155 H136 0.929 . S
C155 C152 1.388 . S
C155 N154 1.397 . S
C156 H137 0.929 . S
C156 C153 1.404 . S
C156 N154 1.334 . S
C157 H149 0.930 . S
C157 C152 1.418 . S
C157 C153 1.353 . S
C158 H128 0.930 . S
C158 N159 1.330 . S
C158 C160 1.446 . S
N159 Co118 2.151 . S
N159 C158 1.330 . S
N159 C163 1.418 . S
C160 H139 0.929 1_545 S
C160 C158 1.446 . S
C160 C161 1.332 1_545 S
C161 H141 0.931 . S
C161 C160 1.332 1_565 S
C161 C162 1.267 . S
C162 H130 0.929 . S
C162 C161 1.267 . S
C162 C163 1.251 1_565 S
C163 H133 0.929 . S
C163 N159 1.418 . S
C163 C162 1.251 1_545 S
C164 H131 0.930 . S
C164 C166 1.406 . S
C164 C169 1.261 . S
C165 H132 0.930 . S
C165 N167 1.325 . S
C165 C168 1.357 . S
C166 H134 0.928 . S
C166 C164 1.406 . S
C166 N167 1.261 . S
N167 Co118 2.214 . S
N167 C165 1.325 . S
N167 C166 1.261 . S
C168 H138 0.931 . S
C168 C165 1.357 . S
C168 C169 1.312 . S
C169 H140 0.930 . S
C169 C164 1.261 . S
C169 C168 1.312 . S
C170 O142 1.214 . S
C170 O150 1.234 . S
C171 H143 0.929 . S
C171 C174 1.391 . S
C171 C176 1.391 . S
C172 H144 0.929 . S
C172 C173 1.390 . S
C172 N175 1.391 . S
C173 H145 0.930 . S
C173 C172 1.390 . S
C173 C174 1.392 . S
C174 H146 0.929 . S
C174 C171 1.391 . S
C174 C173 1.392 . S
N175 Co119 2.257 . S
N175 C172 1.391 . S
N175 C176 1.388 . S
C176 H147 0.930 . S
C176 C171 1.391 . S
C176 N175 1.388 . S
Co177 O179 2.143 . S
Co177 O185 2.074 . S
Co177 O188 2.093 . S
Co177 O201 2.097 . S
Co177 N218 2.151 . S
Co177 N226 2.214 . S
Co178 O179 2.160 . S
Co178 O184 2.058 . S
Co178 O194 2.057 . S
Co178 O209 2.037 . S
Co178 N213 2.145 . S
Co178 N234 2.257 . S
O179 Co177 2.143 . S
O179 Co178 2.160 . S
C180 O181 1.278 . S
C180 O188 1.224 . S
O181 C180 1.278 . S
C182 O183 1.245 . S
C182 O194 1.232 . S
O183 C182 1.245 . S
O184 Co178 2.058 . S
O184 C210 1.269 . S
O185 Co177 2.074 . S
O185 C210 1.257 . S
H186 C211 0.930 . S
H187 C217 0.930 . S
O188 Co177 2.093 . S
O188 C180 1.224 . S
H189 C221 0.929 . S
H190 C223 0.930 . S
H191 C224 0.930 . S
H192 C222 0.929 . S
H193 C225 0.928 . S
O194 Co178 2.057 . S
O194 C182 1.232 . S
H195 C214 0.929 . S
H196 C215 0.929 . S
H197 C227 0.931 . S
H198 C219 0.929 1_545 S
H199 C228 0.930 . S
H200 C220 0.931 . S
O201 Co177 2.097 . S
O201 C229 1.214 . S
H202 C230 0.929 . S
H203 C231 0.929 . S
H204 C232 0.930 . S
H205 C233 0.929 . S
H206 C235 0.930 . S
H207 C212 0.930 . S
H208 C216 0.930 . S
O209 Co178 2.037 . S
O209 C229 1.234 . S
C210 O184 1.269 . S
C210 O185 1.257 . S
C211 H186 0.930 . S
C211 C214 1.388 . S
C211 C216 1.418 . S
C212 H207 0.930 . S
C212 C215 1.404 . S
C212 C216 1.353 . S
N213 Co178 2.145 . S
N213 C214 1.397 . S
N213 C215 1.334 . S
C214 H195 0.929 . S
C214 C211 1.388 . S
C214 N213 1.397 . S
C215 H196 0.929 . S
C215 C212 1.404 . S
C215 N213 1.334 . S
C216 H208 0.930 . S
C216 C211 1.418 . S
C216 C212 1.353 . S
C217 H187 0.930 . S
C217 N218 1.330 . S
C217 C219 1.446 . S
N218 Co177 2.151 . S
N218 C217 1.330 . S
N218 C222 1.418 . S
C219 H198 0.929 1_565 S
C219 C217 1.446 . S
C219 C220 1.332 1_565 S
C220 H200 0.931 . S
C220 C219 1.332 1_545 S
C220 C221 1.267 . S
C221 H189 0.929 . S
C221 C220 1.267 . S
C221 C222 1.251 1_545 S
C222 H192 0.929 . S
C222 N218 1.418 . S
C222 C221 1.251 1_565 S
C223 H190 0.930 . S
C223 C225 1.406 . S
C223 C228 1.261 . S
C224 H191 0.930 . S
C224 N226 1.325 . S
C224 C227 1.357 . S
C225 H193 0.928 . S
C225 C223 1.406 . S
C225 N226 1.261 . S
N226 Co177 2.214 . S
N226 C224 1.325 . S
N226 C225 1.261 . S
C227 H197 0.931 . S
C227 C224 1.357 . S
C227 C228 1.312 . S
C228 H199 0.930 . S
C228 C223 1.261 . S
C228 C227 1.312 . S
C229 O201 1.214 . S
C229 O209 1.234 . S
C230 H202 0.929 . S
C230 C233 1.391 . S
C230 C235 1.391 . S
C231 H203 0.929 . S
C231 C232 1.390 . S
C231 N234 1.391 . S
C232 H204 0.930 . S
C232 C231 1.390 . S
C232 C233 1.392 . S
C233 H205 0.929 . S
C233 C230 1.391 . S
C233 C232 1.392 . S
N234 Co178 2.257 . S
N234 C231 1.391 . S
N234 C235 1.388 . S
C235 H206 0.930 . S
C235 C230 1.391 . S
C235 N234 1.388 . S
Co236 O238 2.143 . S
Co236 O244 2.074 . S
Co236 O247 2.093 . S
Co236 O260 2.097 . S
Co236 N277 2.151 . S
Co236 N285 2.214 . S
Co237 O238 2.160 1_554 S
Co237 O243 2.058 . S
Co237 O253 2.057 . S
Co237 O268 2.037 1_554 S
Co237 N272 2.145 . S
Co237 N293 2.257 1_554 S
O238 Co236 2.143 . S
O238 Co237 2.160 1_556 S
C239 O240 1.278 . S
C239 O247 1.224 . S
O240 C239 1.278 . S
C241 O242 1.245 . S
C241 O253 1.232 1_556 S
O242 C241 1.245 . S
O243 Co237 2.058 . S
O243 C269 1.269 1_554 S
O244 Co236 2.074 . S
O244 C269 1.257 . S
H245 C270 0.930 . S
H246 C276 0.930 . S
O247 Co236 2.093 . S
O247 C239 1.224 . S
H248 C280 0.929 . S
H249 C282 0.930 . S
H250 C283 0.930 . S
H251 C281 0.929 . S
H252 C284 0.928 . S
O253 Co237 2.057 . S
O253 C241 1.232 1_554 S
H254 C273 0.929 . S
H255 C274 0.929 . S
H256 C286 0.931 . S
H257 C278 0.929 . S
H258 C287 0.930 . S
H259 C279 0.931 . S
O260 Co236 2.097 . S
O260 C288 1.214 . S
H261 C289 0.929 . S
H262 C290 0.929 . S
H263 C291 0.930 . S
H264 C292 0.929 . S
H265 C294 0.930 . S
H266 C271 0.930 . S
H267 C275 0.930 . S
O268 Co237 2.037 1_556 S
O268 C288 1.234 . S
C269 O243 1.269 1_556 S
C269 O244 1.257 . S
C270 H245 0.930 . S
C270 C273 1.388 . S
C270 C275 1.418 . S
C271 H266 0.930 . S
C271 C274 1.404 . S
C271 C275 1.353 . S
N272 Co237 2.145 . S
N272 C273 1.397 . S
N272 C274 1.334 . S
C273 H254 0.929 . S
C273 C270 1.388 . S
C273 N272 1.397 . S
C274 H255 0.929 . S
C274 C271 1.404 . S
C274 N272 1.334 . S
C275 H267 0.930 . S
C275 C270 1.418 . S
C275 C271 1.353 . S
C276 H246 0.930 . S
C276 N277 1.330 . S
C276 C278 1.446 . S
N277 Co236 2.151 . S
N277 C276 1.330 . S
N277 C281 1.418 . S
C278 H257 0.929 . S
C278 C276 1.446 . S
C278 C279 1.332 . S
C279 H259 0.931 . S
C279 C278 1.332 . S
C279 C280 1.267 . S
C280 H248 0.929 . S
C280 C279 1.267 . S
C280 C281 1.251 . S
C281 H251 0.929 . S
C281 N277 1.418 . S
C281 C280 1.251 . S
C282 H249 0.930 . S
C282 C284 1.406 . S
C282 C287 1.261 . S
C283 H250 0.930 . S
C283 N285 1.325 . S
C283 C286 1.357 . S
C284 H252 0.928 . S
C284 C282 1.406 . S
C284 N285 1.261 . S
N285 Co236 2.214 . S
N285 C283 1.325 . S
N285 C284 1.261 . S
C286 H256 0.931 . S
C286 C283 1.357 . S
C286 C287 1.312 . S
C287 H258 0.930 . S
C287 C282 1.261 . S
C287 C286 1.312 . S
C288 O260 1.214 . S
C288 O268 1.234 . S
C289 H261 0.929 . S
C289 C292 1.391 1_565 S
C289 C294 1.391 . S
C290 H262 0.929 . S
C290 C291 1.390 1_565 S
C290 N293 1.391 1_554 S
C291 H263 0.930 . S
C291 C290 1.390 1_545 S
C291 C292 1.392 1_554 S
C292 H264 0.929 . S
C292 C289 1.391 1_545 S
C292 C291 1.392 1_556 S
N293 Co237 2.257 1_556 S
N293 C290 1.391 1_556 S
N293 C294 1.388 . S
C294 H265 0.930 . S
C294 C289 1.391 . S
C294 N293 1.388 . S
Co295 O297 2.143 . S
Co295 O303 2.074 . S
Co295 O306 2.093 . S
Co295 O319 2.097 . S
Co295 N336 2.151 . S
Co295 N344 2.214 . S
Co296 O297 2.160 1_554 S
Co296 O302 2.058 . S
Co296 O312 2.057 . S
Co296 O327 2.037 1_554 S
Co296 N331 2.145 . S
Co296 N352 2.257 1_554 S
O297 Co295 2.143 . S
O297 Co296 2.160 1_556 S
C298 O299 1.278 . S
C298 O306 1.224 . S
O299 C298 1.278 . S
C300 O301 1.245 . S
C300 O312 1.232 1_556 S
O301 C300 1.245 . S
O302 Co296 2.058 . S
O302 C328 1.269 1_554 S
O303 Co295 2.074 . S
O303 C328 1.257 . S
H304 C329 0.930 . S
H305 C335 0.930 . S
O306 Co295 2.093 . S
O306 C298 1.224 . S
H307 C339 0.929 . S
H308 C341 0.930 . S
H309 C342 0.930 . S
H310 C340 0.929 . S
H311 C343 0.928 . S
O312 Co296 2.057 . S
O312 C300 1.232 1_554 S
H313 C332 0.929 . S
H314 C333 0.929 . S
H315 C345 0.931 . S
H316 C337 0.929 . S
H317 C346 0.930 . S
H318 C338 0.931 . S
O319 Co295 2.097 . S
O319 C347 1.214 . S
H320 C348 0.929 . S
H321 C349 0.929 . S
H322 C350 0.930 . S
H323 C351 0.929 . S
H324 C353 0.930 . S
H325 C330 0.930 . S
H326 C334 0.930 . S
O327 Co296 2.037 1_556 S
O327 C347 1.234 . S
C328 O302 1.269 1_556 S
C328 O303 1.257 . S
C329 H304 0.930 . S
C329 C332 1.388 . S
C329 C334 1.418 . S
C330 H325 0.930 . S
C330 C333 1.404 . S
C330 C334 1.353 . S
N331 Co296 2.145 . S
N331 C332 1.397 . S
N331 C333 1.334 . S
C332 H313 0.929 . S
C332 C329 1.388 . S
C332 N331 1.397 . S
C333 H314 0.929 . S
C333 C330 1.404 . S
C333 N331 1.334 . S
C334 H326 0.930 . S
C334 C329 1.418 . S
C334 C330 1.353 . S
C335 H305 0.930 . S
C335 N336 1.330 . S
C335 C337 1.446 . S
N336 Co295 2.151 . S
N336 C335 1.330 . S
N336 C340 1.418 . S
C337 H316 0.929 . S
C337 C335 1.446 . S
C337 C338 1.332 . S
C338 H318 0.931 . S
C338 C337 1.332 . S
C338 C339 1.267 . S
C339 H307 0.929 . S
C339 C338 1.267 . S
C339 C340 1.251 . S
C340 H310 0.929 . S
C340 N336 1.418 . S
C340 C339 1.251 . S
C341 H308 0.930 . S
C341 C343 1.406 . S
C341 C346 1.261 . S
C342 H309 0.930 . S
C342 N344 1.325 . S
C342 C345 1.357 . S
C343 H311 0.928 . S
C343 C341 1.406 . S
C343 N344 1.261 . S
N344 Co295 2.214 . S
N344 C342 1.325 . S
N344 C343 1.261 . S
C345 H315 0.931 . S
C345 C342 1.357 . S
C345 C346 1.312 . S
C346 H317 0.930 . S
C346 C341 1.261 . S
C346 C345 1.312 . S
C347 O319 1.214 . S
C347 O327 1.234 . S
C348 H320 0.929 . S
C348 C351 1.391 1_545 S
C348 C353 1.391 . S
C349 H321 0.929 . S
C349 C350 1.390 1_545 S
C349 N352 1.391 1_554 S
C350 H322 0.930 . S
C350 C349 1.390 1_565 S
C350 C351 1.392 1_554 S
C351 H323 0.929 . S
C351 C348 1.391 1_565 S
C351 C350 1.392 1_556 S
N352 Co296 2.257 1_556 S
N352 C349 1.391 1_556 S
N352 C353 1.388 . S
C353 H324 0.930 . S
C353 C348 1.391 . S
C353 N352 1.388 . S
Co354 O356 2.143 . S
Co354 O362 2.074 . S
Co354 O365 2.093 . S
Co354 O378 2.097 . S
Co354 N395 2.151 . S
Co354 N403 2.214 . S
Co355 O356 2.160 . S
Co355 O361 2.058 . S
Co355 O371 2.057 . S
Co355 O386 2.037 . S
Co355 N390 2.145 . S
Co355 N411 2.257 . S
O356 Co354 2.143 . S
O356 Co355 2.160 . S
C357 O358 1.278 . S
C357 O365 1.224 . S
O358 C357 1.278 . S
C359 O360 1.245 . S
C359 O371 1.232 . S
O360 C359 1.245 . S
O361 Co355 2.058 . S
O361 C387 1.269 . S
O362 Co354 2.074 . S
O362 C387 1.257 . S
H363 C388 0.930 . S
H364 C394 0.930 . S
O365 Co354 2.093 . S
O365 C357 1.224 . S
H366 C398 0.929 . S
H367 C400 0.930 . S
H368 C401 0.930 . S
H369 C399 0.929 . S
H370 C402 0.928 . S
O371 Co355 2.057 . S
O371 C359 1.232 . S
H372 C391 0.929 . S
H373 C392 0.929 . S
H374 C404 0.931 . S
H375 C396 0.929 1_545 S
H376 C405 0.930 . S
H377 C397 0.931 . S
O378 Co354 2.097 . S
O378 C406 1.214 . S
H379 C407 0.929 . S
H380 C408 0.929 . S
H381 C409 0.930 . S
H382 C410 0.929 . S
H383 C412 0.930 . S
H384 C389 0.930 . S
H385 C393 0.930 . S
O386 Co355 2.037 . S
O386 C406 1.234 . S
C387 O361 1.269 . S
C387 O362 1.257 . S
C388 H363 0.930 . S
C388 C391 1.388 . S
C388 C393 1.418 . S
C389 H384 0.930 . S
C389 C392 1.404 . S
C389 C393 1.353 . S
N390 Co355 2.145 . S
N390 C391 1.397 . S
N390 C392 1.334 . S
C391 H372 0.929 . S
C391 C388 1.388 . S
C391 N390 1.397 . S
C392 H373 0.929 . S
C392 C389 1.404 . S
C392 N390 1.334 . S
C393 H385 0.930 . S
C393 C388 1.418 . S
C393 C389 1.353 . S
C394 H364 0.930 . S
C394 N395 1.330 . S
C394 C396 1.446 . S
N395 Co354 2.151 . S
N395 C394 1.330 . S
N395 C399 1.418 . S
C396 H375 0.929 1_565 S
C396 C394 1.446 . S
C396 C397 1.332 1_565 S
C397 H377 0.931 . S
C397 C396 1.332 1_545 S
C397 C398 1.267 . S
C398 H366 0.929 . S
C398 C397 1.267 . S
C398 C399 1.251 1_545 S
C399 H369 0.929 . S
C399 N395 1.418 . S
C399 C398 1.251 1_565 S
C400 H367 0.930 . S
C400 C402 1.406 . S
C400 C405 1.261 . S
C401 H368 0.930 . S
C401 N403 1.325 . S
C401 C404 1.357 . S
C402 H370 0.928 . S
C402 C400 1.406 . S
C402 N403 1.261 . S
N403 Co354 2.214 . S
N403 C401 1.325 . S
N403 C402 1.261 . S
C404 H374 0.931 . S
C404 C401 1.357 . S
C404 C405 1.312 . S
C405 H376 0.930 . S
C405 C400 1.261 . S
C405 C404 1.312 . S
C406 O378 1.214 . S
C406 O386 1.234 . S
C407 H379 0.929 . S
C407 C410 1.391 . S
C407 C412 1.391 . S
C408 H380 0.929 . S
C408 C409 1.390 . S
C408 N411 1.391 . S
C409 H381 0.930 . S
C409 C408 1.390 . S
C409 C410 1.392 . S
C410 H382 0.929 . S
C410 C407 1.391 . S
C410 C409 1.392 . S
N411 Co355 2.257 . S
N411 C408 1.391 . S
N411 C412 1.388 . S
C412 H383 0.930 . S
C412 C407 1.391 . S
C412 N411 1.388 . S
Co413 O415 2.143 . S
Co413 O421 2.074 . S
Co413 O424 2.093 . S
Co413 O437 2.097 . S
Co413 N454 2.151 . S
Co413 N462 2.214 . S
Co414 O415 2.160 . S
Co414 O420 2.058 . S
Co414 O430 2.057 . S
Co414 O445 2.037 . S
Co414 N449 2.145 . S
Co414 N470 2.257 . S
O415 Co413 2.143 . S
O415 Co414 2.160 . S
C416 O417 1.278 . S
C416 O424 1.224 . S
O417 C416 1.278 . S
C418 O419 1.245 . S
C418 O430 1.232 . S
O419 C418 1.245 . S
O420 Co414 2.058 . S
O420 C446 1.269 . S
O421 Co413 2.074 . S
O421 C446 1.257 . S
H422 C447 0.930 . S
H423 C453 0.930 . S
O424 Co413 2.093 . S
O424 C416 1.224 . S
H425 C457 0.929 . S
H426 C459 0.930 . S
H427 C460 0.930 . S
H428 C458 0.929 . S
H429 C461 0.928 . S
O430 Co414 2.057 . S
O430 C418 1.232 . S
H431 C450 0.929 . S
H432 C451 0.929 . S
H433 C463 0.931 . S
H434 C455 0.929 1_565 S
H435 C464 0.930 . S
H436 C456 0.931 . S
O437 Co413 2.097 . S
O437 C465 1.214 . S
H438 C466 0.929 . S
H439 C467 0.929 . S
H440 C468 0.930 . S
H441 C469 0.929 . S
H442 C471 0.930 . S
H443 C448 0.930 . S
H444 C452 0.930 . S
O445 Co414 2.037 . S
O445 C465 1.234 . S
C446 O420 1.269 . S
C446 O421 1.257 . S
C447 H422 0.930 . S
C447 C450 1.388 . S
C447 C452 1.418 . S
C448 H443 0.930 . S
C448 C451 1.404 . S
C448 C452 1.353 . S
N449 Co414 2.145 . S
N449 C450 1.397 . S
N449 C451 1.334 . S
C450 H431 0.929 . S
C450 C447 1.388 . S
C450 N449 1.397 . S
C451 H432 0.929 . S
C451 C448 1.404 . S
C451 N449 1.334 . S
C452 H444 0.930 . S
C452 C447 1.418 . S
C452 C448 1.353 . S
C453 H423 0.930 . S
C453 N454 1.330 . S
C453 C455 1.446 . S
N454 Co413 2.151 . S
N454 C453 1.330 . S
N454 C458 1.418 . S
C455 H434 0.929 1_545 S
C455 C453 1.446 . S
C455 C456 1.332 1_545 S
C456 H436 0.931 . S
C456 C455 1.332 1_565 S
C456 C457 1.267 . S
C457 H425 0.929 . S
C457 C456 1.267 . S
C457 C458 1.251 1_565 S
C458 H428 0.929 . S
C458 N454 1.418 . S
C458 C457 1.251 1_545 S
C459 H426 0.930 . S
C459 C461 1.406 . S
C459 C464 1.261 . S
C460 H427 0.930 . S
C460 N462 1.325 . S
C460 C463 1.357 . S
C461 H429 0.928 . S
C461 C459 1.406 . S
C461 N462 1.261 . S
N462 Co413 2.214 . S
N462 C460 1.325 . S
N462 C461 1.261 . S
C463 H433 0.931 . S
C463 C460 1.357 . S
C463 C464 1.312 . S
C464 H435 0.930 . S
C464 C459 1.261 . S
C464 C463 1.312 . S
C465 O437 1.214 . S
C465 O445 1.234 . S
C466 H438 0.929 . S
C466 C469 1.391 . S
C466 C471 1.391 . S
C467 H439 0.929 . S
C467 C468 1.390 . S
C467 N470 1.391 . S
C468 H440 0.930 . S
C468 C467 1.390 . S
C468 C469 1.392 . S
C469 H441 0.929 . S
C469 C466 1.391 . S
C469 C468 1.392 . S
N470 Co414 2.257 . S
N470 C467 1.391 . S
N470 C471 1.388 . S
C471 H442 0.930 . S
C471 C466 1.391 . S
C471 N470 1.388 . S
C472 C473 1.369 . S
C472 C474 1.419 . S
C472 H476 0.930 . S
C473 C472 1.369 . S
C473 C482 1.429 1_545 S
C474 C472 1.419 . S
C474 C475 1.363 1_545 S
C474 H477 0.929 . S
C475 C474 1.363 1_565 S
C475 C481 1.428 . S
H476 C472 0.930 . S
H477 C474 0.929 . S
S478 N479 1.613 . S
S478 N480 1.610 . S
N479 S478 1.613 . S
N479 C482 1.350 . S
N480 S478 1.610 . S
N480 C481 1.351 . S
C481 C475 1.428 . S
C481 N480 1.351 . S
C481 C482 1.434 . S
C482 C473 1.429 1_565 S
C482 N479 1.350 . S
C482 C481 1.434 . S
C483 C484 1.369 . S
C483 C485 1.419 . S
C483 H487 0.930 . S
C484 C483 1.369 . S
C484 C493 1.429 . S
C485 C483 1.419 . S
C485 C486 1.363 . S
C485 H488 0.929 . S
C486 C485 1.363 . S
C486 C492 1.428 . S
H487 C483 0.930 . S
H488 C485 0.929 . S
S489 N490 1.613 . S
S489 N491 1.610 . S
N490 S489 1.613 . S
N490 C493 1.350 . S
N491 S489 1.610 . S
N491 C492 1.351 . S
C492 C486 1.428 . S
C492 N491 1.351 . S
C492 C493 1.434 . S
C493 C484 1.429 . S
C493 N490 1.350 . S
C493 C492 1.434 . S
C494 C495 1.369 . S
C494 C496 1.419 1_565 S
C494 H498 0.930 . S
C495 C494 1.369 . S
C495 C504 1.429 1_556 S
C496 C494 1.419 1_545 S
C496 C497 1.363 . S
C496 H499 0.929 . S
C497 C496 1.363 . S
C497 C503 1.428 1_556 S
H498 C494 0.930 . S
H499 C496 0.929 . S
S500 N501 1.613 1_545 S
S500 N502 1.610 . S
N501 S500 1.613 1_565 S
N501 C504 1.350 . S
N502 S500 1.610 . S
N502 C503 1.351 . S
C503 C497 1.428 1_554 S
C503 N502 1.351 . S
C503 C504 1.434 1_545 S
C504 C495 1.429 1_554 S
C504 N501 1.350 . S
C504 C503 1.434 1_565 S
C505 C506 1.369 . S
C505 C507 1.419 . S
C505 H509 0.930 . S
C506 C505 1.369 . S
C506 C515 1.429 . S
C507 C505 1.419 . S
C507 C508 1.363 . S
C507 H510 0.929 . S
C508 C507 1.363 . S
C508 C514 1.428 . S
H509 C505 0.930 . S
H510 C507 0.929 . S
S511 N512 1.613 . S
S511 N513 1.610 . S
N512 S511 1.613 . S
N512 C515 1.350 . S
N513 S511 1.610 . S
N513 C514 1.351 . S
C514 C508 1.428 . S
C514 N513 1.351 . S
C514 C515 1.434 . S
C515 C506 1.429 . S
C515 N512 1.350 . S
C515 C514 1.434 . S
C516 C517 1.369 . S
C516 C518 1.419 . S
C516 H520 0.930 . S
C517 C516 1.369 . S
C517 C526 1.429 . S
C518 C516 1.419 . S
C518 C519 1.363 . S
C518 H521 0.929 . S
C519 C518 1.363 . S
C519 C525 1.428 . S
H520 C516 0.930 . S
H521 C518 0.929 . S
S522 N523 1.613 . S
S522 N524 1.610 . S
N523 S522 1.613 . S
N523 C526 1.350 . S
N524 S522 1.610 . S
N524 C525 1.351 . S
C525 C519 1.428 . S
C525 N524 1.351 . S
C525 C526 1.434 . S
C526 C517 1.429 . S
C526 N523 1.350 . S
C526 C525 1.434 . S
C527 C528 1.369 . S
C527 C529 1.419 . S
C527 H531 0.930 . S
C528 C527 1.369 . S
C528 C537 1.429 . S
C529 C527 1.419 . S
C529 C530 1.363 . S
C529 H532 0.929 . S
C530 C529 1.363 . S
C530 C536 1.428 . S
H531 C527 0.930 . S
H532 C529 0.929 . S
S533 N534 1.613 . S
S533 N535 1.610 . S
N534 S533 1.613 . S
N534 C537 1.350 . S
N535 S533 1.610 . S
N535 C536 1.351 . S
C536 C530 1.428 . S
C536 N535 1.351 . S
C536 C537 1.434 . S
C537 C528 1.429 . S
C537 N534 1.350 . S
C537 C536 1.434 . S
C538 C539 1.369 . S
C538 C540 1.419 . S
C538 H542 0.930 . S
C539 C538 1.369 . S
C539 C548 1.429 . S
C540 C538 1.419 . S
C540 C541 1.363 . S
C540 H543 0.929 . S
C541 C540 1.363 . S
C541 C547 1.428 . S
H542 C538 0.930 . S
H543 C540 0.929 . S
S544 N545 1.613 . S
S544 N546 1.610 . S
N545 S544 1.613 . S
N545 C548 1.350 . S
N546 S544 1.610 . S
N546 C547 1.351 . S
C547 C541 1.428 . S
C547 N546 1.351 . S
C547 C548 1.434 . S
C548 C539 1.429 . S
C548 N545 1.350 . S
C548 C547 1.434 . S
C549 C550 1.369 . S
C549 C551 1.419 . S
C549 H553 0.930 . S
C550 C549 1.369 . S
C550 C559 1.429 . S
C551 C549 1.419 . S
C551 C552 1.363 . S
C551 H554 0.929 . S
C552 C551 1.363 . S
C552 C558 1.428 . S
H553 C549 0.930 . S
H554 C551 0.929 . S
S555 N556 1.613 . S
S555 N557 1.610 . S
N556 S555 1.613 . S
N556 C559 1.350 . S
N557 S555 1.610 . S
N557 C558 1.351 . S
C558 C552 1.428 . S
C558 N557 1.351 . S
C558 C559 1.434 . S
C559 C550 1.429 . S
C559 N556 1.350 . S
C559 C558 1.434 . S
C560 C561 1.363 1_556 S
C560 C562 1.419 . S
C560 H564 0.930 . S
C561 C560 1.363 1_554 S
C561 C570 1.434 . S
C562 C560 1.419 . S
C562 C563 1.366 . S
C562 H565 0.929 . S
C563 C562 1.366 . S
C563 C569 1.426 1_556 S
H564 C560 0.930 . S
H565 C562 0.929 . S
S566 N567 1.613 . S
S566 N568 1.610 . S
N567 S566 1.613 . S
N567 C570 1.350 . S
N568 S566 1.610 . S
N568 C569 1.351 . S
C569 C563 1.426 1_554 S
C569 N568 1.351 . S
C569 C570 1.434 . S
C570 C561 1.434 . S
C570 N567 1.350 . S
C570 C569 1.434 . S
C571 C572 1.368 1_656 S
C571 C573 1.419 . S
C571 H575 0.930 . S
C572 C571 1.368 1_454 S
C572 C581 1.430 . S
C573 C571 1.419 . S
C573 C574 1.365 . S
C573 H576 0.929 . S
C574 C573 1.365 . S
C574 C580 1.426 1_656 S
H575 C571 0.930 . S
H576 C573 0.929 . S
S577 N578 1.613 . S
S577 N579 1.610 . S
N578 S577 1.613 . S
N578 C581 1.350 . S
N579 S577 1.610 . S
N579 C580 1.351 . S
C580 C574 1.426 1_454 S
C580 N579 1.351 . S
C580 C581 1.434 . S
C581 C572 1.430 . S
C581 N578 1.350 . S
C581 C580 1.434 . S
C582 C583 1.369 1_545 S
C582 C584 1.419 . S
C582 H586 0.930 . S
C583 C582 1.369 1_565 S
C583 C592 1.429 . S
C584 C582 1.419 . S
C584 C585 1.363 . S
C584 H587 0.929 . S
C585 C584 1.363 . S
C585 C591 1.428 1_545 S
H586 C582 0.930 . S
H587 C584 0.929 . S
S588 N589 1.613 . S
S588 N590 1.610 . S
N589 S588 1.613 . S
N589 C592 1.350 . S
N590 S588 1.610 . S
N590 C591 1.351 . S
C591 C585 1.428 1_565 S
C591 N590 1.351 . S
C591 C592 1.434 . S
C592 C583 1.429 . S
C592 N589 1.350 . S
C592 C591 1.434 . S
C593 C594 1.356 1_455 S
C593 C595 1.431 1_545 S
C593 H597 0.931 . S
C594 C593 1.356 1_655 S
C594 C603 1.429 . S
C595 C593 1.431 1_565 S
C595 C596 1.363 . S
C595 H598 0.929 . S
C596 C595 1.363 . S
C596 C602 1.428 1_455 S
H597 C593 0.931 . S
H598 C595 0.929 . S
S599 N600 1.613 1_565 S
S599 N601 1.610 . S
N600 S599 1.613 1_545 S
N600 C603 1.350 . S
N601 S599 1.610 . S
N601 C602 1.351 . S
C602 C596 1.428 1_655 S
C602 N601 1.351 . S
C602 C603 1.434 1_565 S
C603 C594 1.429 . S
C603 N600 1.350 . S
C603 C602 1.434 1_545 S
C604 C605 1.369 . S
C604 C606 1.419 . S
C604 H608 0.930 . S
C605 C604 1.369 . S
C605 C614 1.429 1_554 S
C606 C604 1.419 . S
C606 C607 1.365 . S
C606 H609 0.929 . S
C607 C606 1.365 . S
C607 C613 1.428 1_554 S
H608 C604 0.930 . S
H609 C606 0.929 . S
S610 N611 1.613 . S
S610 N612 1.610 1_554 S
N611 S610 1.613 . S
N611 C614 1.350 1_554 S
N612 S610 1.610 1_556 S
N612 C613 1.351 . S
C613 C607 1.428 1_556 S
C613 N612 1.351 . S
C613 C614 1.434 . S
C614 C605 1.429 1_556 S
C614 N611 1.350 1_556 S
C614 C613 1.434 . S
C615 C616 1.369 . S
C615 C617 1.419 . S
C615 H619 0.930 . S
C616 C615 1.369 . S
C616 C625 1.429 1_545 S
C617 C615 1.419 . S
C617 C618 1.363 1_545 S
C617 H620 0.929 . S
C618 C617 1.363 1_565 S
C618 C624 1.428 . S
H619 C615 0.930 . S
H620 C617 0.929 . S
S621 N622 1.613 . S
S621 N623 1.610 . S
N622 S621 1.613 . S
N622 C625 1.350 . S
N623 S621 1.610 . S
N623 C624 1.351 . S
C624 C618 1.428 . S
C624 N623 1.351 . S
C624 C625 1.434 . S
C625 C616 1.429 1_565 S
C625 N622 1.350 . S
C625 C624 1.434 . S
C626 C627 1.369 1_554 S
C626 C628 1.419 . S
C626 H630 0.930 . S
C627 C626 1.369 1_556 S
C627 C636 1.429 . S
C628 C626 1.419 . S
C628 C629 1.363 1_554 S
C628 H631 0.929 . S
C629 C628 1.363 1_556 S
C629 C635 1.428 . S
H630 C626 0.930 . S
H631 C628 0.929 . S
S632 N633 1.613 . S
S632 N634 1.610 . S
N633 S632 1.613 . S
N633 C636 1.350 . S
N634 S632 1.610 . S
N634 C635 1.351 . S
C635 C629 1.428 . S
C635 N634 1.351 . S
C635 C636 1.434 . S
C636 C627 1.429 . S
C636 N633 1.350 . S
C636 C635 1.434 . S
C637 C638 1.369 . S
C637 C639 1.419 . S
C637 H641 0.930 . S
C638 C637 1.369 . S
C638 C647 1.429 1_565 S
C639 C637 1.419 . S
C639 C640 1.363 1_565 S
C639 H642 0.929 . S
C640 C639 1.363 1_545 S
C640 C646 1.428 . S
H641 C637 0.930 . S
H642 C639 0.929 . S
S643 N644 1.613 . S
S643 N645 1.610 . S
N644 S643 1.613 . S
N644 C647 1.350 . S
N645 S643 1.610 . S
N645 C646 1.351 . S
C646 C640 1.428 . S
C646 N645 1.351 . S
C646 C647 1.434 . S
C647 C638 1.429 1_545 S
C647 N644 1.350 . S
C647 C646 1.434 . S
C473 C52 1.648 . S
C475 C111 1.645 . S
C484 C229 1.648 . S
C486 C170 1.646 . S
C495 C288 1.648 . S
C497 C347 1.647 . S
C506 C406 1.648 . S
C508 C465 1.647 . S
C517 C3 1.893 . S
C519 C121 1.898 . S
C528 C180 1.898 . S
C530 C62 1.893 . S
C539 C239 1.892 . S
C541 C357 1.893 . S
C550 C416 1.896 . S
C552 C298 1.892 . S
C561 C5 1.398 . S
C563 C241 1.405 . S
C572 C64 1.398 . S
C574 C300 1.405 . S
C583 C359 1.404 . S
C585 C123 1.397 . S
C594 C418 1.396 . S
C596 C182 1.403 . S
C605 C92 1.524 . S
C607 C33 1.531 . S
C616 C151 1.524 . S
C618 C210 1.525 . S
C627 C269 1.523 . S
C629 C328 1.524 . S
C638 C387 1.528 . S
C640 C446 1.528 . S
