# Generated by pormake.
# Topology uoe, (4)-cn, num edge types: 1
# Building blocks:
#     Node 0, Type 0, BuildingBlock: NAWXER_clean_sbu_0, # of connection points: 4
#     Node 1, Type 0, BuildingBlock: NAWXER_clean_sbu_0, # of connection points: 4
#     Node 2, Type 0, BuildingBlock: NAWXER_clean_sbu_0, # of connection points: 4
#     Node 3, Type 0, BuildingBlock: NAWXER_clean_sbu_0, # of connection points: 4
#     Node 4, Type 0, BuildingBlock: NAWXER_clean_sbu_0, # of connection points: 4
#     Node 5, Type 0, BuildingBlock: NAWXER_clean_sbu_0, # of connection points: 4
#     Node 6, Type 0, BuildingBlock: NAWXER_clean_sbu_0, # of connection points: 4
#     Node 7, Type 0, BuildingBlock: NAWXER_clean_sbu_0, # of connection points: 4
#     Node 8, Type 0, BuildingBlock: NAWXER_clean_sbu_0, # of connection points: 4
#     Node 9, Type 0, BuildingBlock: NAWXER_clean_sbu_0, # of connection points: 4
#     Node 10, Type 0, BuildingBlock: NAWXER_clean_sbu_0, # of connection points: 4
#     Node 11, Type 0, BuildingBlock: NAWXER_clean_sbu_0, # of connection points: 4
#     Node 12, Type 0, BuildingBlock: NAWXER_clean_sbu_0, # of connection points: 4
#     Node 13, Type 0, BuildingBlock: NAWXER_clean_sbu_0, # of connection points: 4
#     Node 14, Type 0, BuildingBlock: NAWXER_clean_sbu_0, # of connection points: 4
#     Node 15, Type 0, BuildingBlock: NAWXER_clean_sbu_0, # of connection points: 4
#     Node 16, Type 0, BuildingBlock: NAWXER_clean_sbu_0, # of connection points: 4
#     Node 17, Type 0, BuildingBlock: NAWXER_clean_sbu_0, # of connection points: 4
#     Node 18, Type 0, BuildingBlock: NAWXER_clean_sbu_0, # of connection points: 4
#     Node 19, Type 0, BuildingBlock: NAWXER_clean_sbu_0, # of connection points: 4
#     Node 20, Type 0, BuildingBlock: NAWXER_clean_sbu_0, # of connection points: 4
#     Node 21, Type 0, BuildingBlock: NAWXER_clean_sbu_0, # of connection points: 4
#     Node 22, Type 0, BuildingBlock: NAWXER_clean_sbu_0, # of connection points: 4
#     Node 23, Type 0, BuildingBlock: NAWXER_clean_sbu_0, # of connection points: 4
#     Node 24, Type 0, BuildingBlock: NAWXER_clean_sbu_0, # of connection points: 4
#     Node 25, Type 0, BuildingBlock: NAWXER_clean_sbu_0, # of connection points: 4
#     Node 26, Type 0, BuildingBlock: NAWXER_clean_sbu_0, # of connection points: 4
#     Node 27, Type 0, BuildingBlock: NAWXER_clean_sbu_0, # of connection points: 4
#     Node 28, Type 0, BuildingBlock: NAWXER_clean_sbu_0, # of connection points: 4
#     Node 29, Type 0, BuildingBlock: NAWXER_clean_sbu_0, # of connection points: 4
#     Node 30, Type 0, BuildingBlock: NAWXER_clean_sbu_0, # of connection points: 4
#     Node 31, Type 0, BuildingBlock: NAWXER_clean_sbu_0, # of connection points: 4
#     Edge 32, Type (0, 0), BuildingBlock: AJUNOK_clean_linker_0, # of connection points: 2
#     Edge 33, Type (0, 0), BuildingBlock: AJUNOK_clean_linker_0, # of connection points: 2
#     Edge 34, Type (0, 0), BuildingBlock: AJUNOK_clean_linker_0, # of connection points: 2
#     Edge 35, Type (0, 0), BuildingBlock: AJUNOK_clean_linker_0, # of connection points: 2
#     Edge 36, Type (0, 0), BuildingBlock: AJUNOK_clean_linker_0, # of connection points: 2
#     Edge 37, Type (0, 0), BuildingBlock: AJUNOK_clean_linker_0, # of connection points: 2
#     Edge 38, Type (0, 0), BuildingBlock: AJUNOK_clean_linker_0, # of connection points: 2
#     Edge 39, Type (0, 0), BuildingBlock: AJUNOK_clean_linker_0, # of connection points: 2
#     Edge 40, Type (0, 0), BuildingBlock: AJUNOK_clean_linker_0, # of connection points: 2
#     Edge 41, Type (0, 0), BuildingBlock: AJUNOK_clean_linker_0, # of connection points: 2
#     Edge 42, Type (0, 0), BuildingBlock: AJUNOK_clean_linker_0, # of connection points: 2
#     Edge 43, Type (0, 0), BuildingBlock: AJUNOK_clean_linker_0, # of connection points: 2
#     Edge 44, Type (0, 0), BuildingBlock: AJUNOK_clean_linker_0, # of connection points: 2
#     Edge 45, Type (0, 0), BuildingBlock: AJUNOK_clean_linker_0, # of connection points: 2
#     Edge 46, Type (0, 0), BuildingBlock: AJUNOK_clean_linker_0, # of connection points: 2
#     Edge 47, Type (0, 0), BuildingBlock: AJUNOK_clean_linker_0, # of connection points: 2
#     Edge 48, Type (0, 0), BuildingBlock: AJUNOK_clean_linker_0, # of connection points: 2
#     Edge 49, Type (0, 0), BuildingBlock: AJUNOK_clean_linker_0, # of connection points: 2
#     Edge 50, Type (0, 0), BuildingBlock: AJUNOK_clean_linker_0, # of connection points: 2
#     Edge 51, Type (0, 0), BuildingBlock: AJUNOK_clean_linker_0, # of connection points: 2
#     Edge 52, Type (0, 0), BuildingBlock: AJUNOK_clean_linker_0, # of connection points: 2
#     Edge 53, Type (0, 0), BuildingBlock: AJUNOK_clean_linker_0, # of connection points: 2
#     Edge 54, Type (0, 0), BuildingBlock: AJUNOK_clean_linker_0, # of connection points: 2
#     Edge 55, Type (0, 0), BuildingBlock: AJUNOK_clean_linker_0, # of connection points: 2
#     Edge 56, Type (0, 0), BuildingBlock: AJUNOK_clean_linker_0, # of connection points: 2
#     Edge 57, Type (0, 0), BuildingBlock: AJUNOK_clean_linker_0, # of connection points: 2
#     Edge 58, Type (0, 0), BuildingBlock: AJUNOK_clean_linker_0, # of connection points: 2
#     Edge 59, Type (0, 0), BuildingBlock: AJUNOK_clean_linker_0, # of connection points: 2
#     Edge 60, Type (0, 0), BuildingBlock: AJUNOK_clean_linker_0, # of connection points: 2
#     Edge 61, Type (0, 0), BuildingBlock: AJUNOK_clean_linker_0, # of connection points: 2
#     Edge 62, Type (0, 0), BuildingBlock: AJUNOK_clean_linker_0, # of connection points: 2
#     Edge 63, Type (0, 0), BuildingBlock: AJUNOK_clean_linker_0, # of connection points: 2
#     Edge 64, Type (0, 0), BuildingBlock: AJUNOK_clean_linker_0, # of connection points: 2
#     Edge 65, Type (0, 0), BuildingBlock: AJUNOK_clean_linker_0, # of connection points: 2
#     Edge 66, Type (0, 0), BuildingBlock: AJUNOK_clean_linker_0, # of connection points: 2
#     Edge 67, Type (0, 0), BuildingBlock: AJUNOK_clean_linker_0, # of connection points: 2
#     Edge 68, Type (0, 0), BuildingBlock: AJUNOK_clean_linker_0, # of connection points: 2
#     Edge 69, Type (0, 0), BuildingBlock: AJUNOK_clean_linker_0, # of connection points: 2
#     Edge 70, Type (0, 0), BuildingBlock: AJUNOK_clean_linker_0, # of connection points: 2
#     Edge 71, Type (0, 0), BuildingBlock: AJUNOK_clean_linker_0, # of connection points: 2
#     Edge 72, Type (0, 0), BuildingBlock: AJUNOK_clean_linker_0, # of connection points: 2
#     Edge 73, Type (0, 0), BuildingBlock: AJUNOK_clean_linker_0, # of connection points: 2
#     Edge 74, Type (0, 0), BuildingBlock: AJUNOK_clean_linker_0, # of connection points: 2
#     Edge 75, Type (0, 0), BuildingBlock: AJUNOK_clean_linker_0, # of connection points: 2
#     Edge 76, Type (0, 0), BuildingBlock: AJUNOK_clean_linker_0, # of connection points: 2
#     Edge 77, Type (0, 0), BuildingBlock: AJUNOK_clean_linker_0, # of connection points: 2
#     Edge 78, Type (0, 0), BuildingBlock: AJUNOK_clean_linker_0, # of connection points: 2
#     Edge 79, Type (0, 0), BuildingBlock: AJUNOK_clean_linker_0, # of connection points: 2
#     Edge 80, Type (0, 0), BuildingBlock: AJUNOK_clean_linker_0, # of connection points: 2
#     Edge 81, Type (0, 0), BuildingBlock: AJUNOK_clean_linker_0, # of connection points: 2
#     Edge 82, Type (0, 0), BuildingBlock: AJUNOK_clean_linker_0, # of connection points: 2
#     Edge 83, Type (0, 0), BuildingBlock: AJUNOK_clean_linker_0, # of connection points: 2
#     Edge 84, Type (0, 0), BuildingBlock: AJUNOK_clean_linker_0, # of connection points: 2
#     Edge 85, Type (0, 0), BuildingBlock: AJUNOK_clean_linker_0, # of connection points: 2
#     Edge 86, Type (0, 0), BuildingBlock: AJUNOK_clean_linker_0, # of connection points: 2
#     Edge 87, Type (0, 0), BuildingBlock: AJUNOK_clean_linker_0, # of connection points: 2
#     Edge 88, Type (0, 0), BuildingBlock: AJUNOK_clean_linker_0, # of connection points: 2
#     Edge 89, Type (0, 0), BuildingBlock: AJUNOK_clean_linker_0, # of connection points: 2
#     Edge 90, Type (0, 0), BuildingBlock: AJUNOK_clean_linker_0, # of connection points: 2
#     Edge 91, Type (0, 0), BuildingBlock: AJUNOK_clean_linker_0, # of connection points: 2
#     Edge 92, Type (0, 0), BuildingBlock: AJUNOK_clean_linker_0, # of connection points: 2
#     Edge 93, Type (0, 0), BuildingBlock: AJUNOK_clean_linker_0, # of connection points: 2
#     Edge 94, Type (0, 0), BuildingBlock: AJUNOK_clean_linker_0, # of connection points: 2
#     Edge 95, Type (0, 0), BuildingBlock: AJUNOK_clean_linker_0, # of connection points: 2
# Relax obj value: 0.105
# Max RMSD: 0.239
# Mean RMSD: 0.239
data_MOF--net-uoe--node1-NAWXER_clean_sbu_0--edge1-AJUNOK_clean_linker_0
_symmetry_space_group_name_H-M    P1
_symmetry_Int_Tables_number       1
_symmetry_cell_setting            triclinic
loop_
_symmetry_equiv_pos_as_xyz
'x, y, z'
_cell_length_a     54.306514
_cell_length_b     54.336412
_cell_length_c     20.966215
_cell_angle_alpha  90.023591
_cell_angle_beta   89.973087
_cell_angle_gamma 89.974234
loop_
_atom_site_label
_atom_site_type_symbol
_atom_site_fract_x
_atom_site_fract_y
_atom_site_fract_z
_atom_type_partial_charge
C0 C 0.12682 0.43445 0.10426 0.0
C1 C 0.05165 0.47954 0.05847 0.0
O2 O 0.13119 0.45764 0.10067 0.0
Zn3 Zn 0.10999 0.49003 0.07234 0.0
O4 O 0.10686 0.42625 0.08097 0.0
Zn5 Zn 0.09064 0.45724 0.06437 0.0
O6 O 0.103 0.47137 0.97332 0.0
O7 O 0.12392 0.5047 0.99732 0.0
O8 O 0.05535 0.45648 0.05561 0.0
O9 O 0.07024 0.49404 0.06293 0.0
O10 O 0.11403 0.50849 0.14867 0.0
O11 O 0.09335 0.47351 0.15906 0.0
C12 C 0.11539 0.49028 0.95547 0.0
C13 C 0.10307 0.49281 0.18367 0.0
C14 C 0.77537 0.80199 0.31674 0.0
C15 C 0.82249 0.8758 0.35877 0.0
O16 O 0.76115 0.821 0.31692 0.0
Zn17 Zn 0.7669 0.86135 0.32282 0.0
O18 O 0.79855 0.8051 0.31668 0.0
Zn19 Zn 0.79838 0.83999 0.32068 0.0
O20 O 0.78022 0.84423 0.41299 0.0
O21 O 0.74773 0.86828 0.39721 0.0
O22 O 0.83 0.85527 0.33751 0.0
O23 O 0.79957 0.88105 0.35339 0.0
O24 O 0.75501 0.87547 0.24357 0.0
O25 O 0.78525 0.84945 0.22638 0.0
C26 C 0.76133 0.85574 0.43445 0.0
C27 C 0.76826 0.86356 0.20467 0.0
C28 C 0.40001 0.50884 0.68316 0.0
C29 C 0.38871 0.51556 0.45537 0.0
O30 O 0.41021 0.52828 0.66071 0.0
Zn31 Zn 0.41386 0.54612 0.56871 0.0
O32 O 0.3886 0.49414 0.64635 0.0
Zn33 Zn 0.39363 0.51343 0.57178 0.0
O34 O 0.43313 0.50874 0.56325 0.0
O35 O 0.4494 0.54582 0.56094 0.0
O36 O 0.38001 0.50024 0.4948 0.0
O37 O 0.40137 0.53386 0.47607 0.0
O38 O 0.39789 0.57716 0.58871 0.0
O39 O 0.37288 0.54572 0.60106 0.0
C40 C 0.45224 0.52259 0.5611 0.0
C41 C 0.37732 0.56877 0.60782 0.0
C42 C 0.74535 0.15035 0.93359 0.0
C43 C 0.74271 0.13911 0.7052 0.0
O44 O 0.72643 0.1608 0.909 0.0
Zn45 Zn 0.71036 0.16447 0.81462 0.0
O46 O 0.76074 0.13895 0.89861 0.0
Zn47 Zn 0.74255 0.14385 0.82213 0.0
O48 O 0.74789 0.18336 0.81381 0.0
O49 O 0.71098 0.1999 0.80688 0.0
O50 O 0.75686 0.12987 0.74668 0.0
O51 O 0.72418 0.15201 0.72346 0.0
O52 O 0.67889 0.1491 0.8309 0.0
O53 O 0.7095 0.12363 0.84952 0.0
C54 C 0.73421 0.20257 0.80985 0.0
C55 C 0.68646 0.12875 0.85338 0.0
C56 C 0.1045 0.50644 0.45615 0.0
C57 C 0.1161 0.51322 0.68419 0.0
O58 O 0.09454 0.52603 0.47857 0.0
Zn59 Zn 0.09122 0.54401 0.57086 0.0
O60 O 0.11602 0.49179 0.49293 0.0
Zn61 Zn 0.1113 0.5113 0.56742 0.0
O62 O 0.07171 0.5069 0.57611 0.0
O63 O 0.05573 0.54412 0.57874 0.0
O64 O 0.12488 0.49801 0.64451 0.0
O65 O 0.10349 0.53158 0.66365 0.0
O66 O 0.10722 0.57497 0.55118 0.0
O67 O 0.13213 0.54351 0.53759 0.0
C68 C 0.05271 0.52091 0.57833 0.0
C69 C 0.1277 0.5666 0.53138 0.0
C70 C 0.74056 0.86542 0.93612 0.0
C71 C 0.74791 0.85775 0.70633 0.0
O72 O 0.72395 0.85102 0.91378 0.0
Zn73 Zn 0.71088 0.84162 0.81951 0.0
O74 O 0.7534 0.87807 0.89786 0.0
Zn75 Zn 0.74193 0.86401 0.81794 0.0
O76 O 0.70906 0.88298 0.7874 0.0
O77 O 0.67903 0.85668 0.80218 0.0
O78 O 0.7611 0.8709 0.74321 0.0
O79 O 0.72919 0.84606 0.72799 0.0
O80 O 0.7119 0.80649 0.82341 0.0
O81 O 0.74859 0.82403 0.82443 0.0
C82 C 0.68624 0.87744 0.78169 0.0
C83 C 0.73524 0.80444 0.82447 0.0
C84 C 0.37712 0.43843 0.03526 0.0
C85 C 0.45215 0.48469 0.08013 0.0
O86 O 0.37285 0.46157 0.04039 0.0
Zn87 Zn 0.39369 0.49398 0.06735 0.0
O88 O 0.39748 0.43 0.05581 0.0
Zn89 Zn 0.4137 0.46114 0.07389 0.0
O90 O 0.40113 0.4749 0.16524 0.0
O91 O 0.37986 0.50824 0.14264 0.0
O92 O 0.44928 0.46146 0.08192 0.0
O93 O 0.43307 0.49852 0.07644 0.0
O94 O 0.38915 0.51228 0.99085 0.0
O95 O 0.41031 0.47757 0.98024 0.0
C96 C 0.38861 0.49365 0.18381 0.0
C97 C 0.40021 0.49668 0.95579 0.0
C98 C 0.77202 0.20278 0.32792 0.0
C99 C 0.81862 0.1282 0.28088 0.0
O100 O 0.75824 0.18362 0.32591 0.0
Zn101 Zn 0.76315 0.14416 0.31739 0.0
O102 O 0.79528 0.20003 0.32793 0.0
Zn103 Zn 0.79573 0.16453 0.32024 0.0
O104 O 0.77774 0.16077 0.22823 0.0
O105 O 0.7437 0.13902 0.24311 0.0
O106 O 0.82692 0.14879 0.30003 0.0
O107 O 0.79557 0.12365 0.28776 0.0
O108 O 0.75011 0.13047 0.39444 0.0
O109 O 0.78359 0.15206 0.41319 0.0
C110 C 0.75827 0.1505 0.20607 0.0
C111 C 0.76535 0.13931 0.43391 0.0
C112 C 0.90121 0.51105 0.95395 0.0
C113 C 0.88901 0.51419 0.18226 0.0
O114 O 0.88944 0.49587 0.98868 0.0
Zn115 Zn 0.89408 0.51417 0.0653 0.0
O116 O 0.91168 0.52991 0.97877 0.0
Zn117 Zn 0.91502 0.54614 0.07308 0.0
O118 O 0.95045 0.54519 0.08174 0.0
O119 O 0.9335 0.50849 0.07499 0.0
O120 O 0.90218 0.53253 0.16414 0.0
O121 O 0.87966 0.50017 0.14063 0.0
O122 O 0.87428 0.54733 0.03706 0.0
O123 O 0.89996 0.57773 0.05599 0.0
C124 C 0.95286 0.52193 0.07931 0.0
C125 C 0.87961 0.5703 0.03312 0.0
C126 C 0.24192 0.14034 0.93417 0.0
C127 C 0.24895 0.1526 0.70637 0.0
O128 O 0.2572 0.13167 0.8945 0.0
Zn129 Zn 0.24397 0.14544 0.81757 0.0
O130 O 0.22354 0.15294 0.91363 0.0
Zn131 Zn 0.21113 0.16538 0.82094 0.0
O132 O 0.18025 0.14925 0.80058 0.0
O133 O 0.21192 0.12458 0.78711 0.0
O134 O 0.22928 0.16242 0.72882 0.0
O135 O 0.26359 0.14106 0.74311 0.0
O136 O 0.24815 0.18495 0.82748 0.0
O137 O 0.21086 0.20084 0.82964 0.0
C138 C 0.18881 0.12888 0.78063 0.0
C139 C 0.23407 0.20391 0.83 0.0
C140 C 0.61534 0.49313 0.68216 0.0
C141 C 0.60177 0.49673 0.45408 0.0
O142 O 0.6236 0.50787 0.64065 0.0
Zn143 Zn 0.6098 0.49329 0.56535 0.0
O144 O 0.60327 0.47407 0.6638 0.0
Zn145 Zn 0.59106 0.46003 0.57239 0.0
O146 O 0.60812 0.42943 0.55388 0.0
O147 O 0.63158 0.46163 0.53616 0.0
O148 O 0.59267 0.47713 0.47868 0.0
O149 O 0.61327 0.51201 0.48917 0.0
O150 O 0.57002 0.49644 0.57607 0.0
O151 O 0.55579 0.45857 0.58208 0.0
C152 C 0.62801 0.43834 0.53189 0.0
C153 C 0.55169 0.4816 0.58031 0.0
C154 C 0.25974 0.85346 0.20395 0.0
C155 C 0.26657 0.86594 0.43202 0.0
O156 O 0.24574 0.86613 0.23997 0.0
Zn157 Zn 0.26465 0.86067 0.31515 0.0
O158 O 0.27875 0.84265 0.22703 0.0
Zn159 Zn 0.29653 0.83946 0.3197 0.0
O160 O 0.2956 0.80421 0.32913 0.0
O161 O 0.25881 0.8212 0.32475 0.0
O162 O 0.28449 0.85261 0.41191 0.0
O163 O 0.25169 0.87504 0.39201 0.0
O164 O 0.29763 0.88012 0.28483 0.0
O165 O 0.32807 0.85412 0.29984 0.0
C166 C 0.27232 0.80184 0.32808 0.0
C167 C 0.32052 0.8747 0.2788 0.0
C168 C 0.90173 0.49763 0.68134 0.0
C169 C 0.88931 0.49123 0.45351 0.0
O170 O 0.89081 0.51267 0.64446 0.0
Zn171 Zn 0.89479 0.49296 0.57024 0.0
O172 O 0.91102 0.47768 0.65899 0.0
Zn173 Zn 0.91348 0.45967 0.56623 0.0
O174 O 0.94871 0.45802 0.55752 0.0
O175 O 0.93464 0.49598 0.561 0.0
O176 O 0.90136 0.47243 0.47366 0.0
O177 O 0.88132 0.50673 0.49351 0.0
O178 O 0.87291 0.46139 0.60111 0.0
O179 O 0.89672 0.42922 0.5857 0.0
C180 C 0.95292 0.48101 0.55811 0.0
C181 C 0.8767 0.43816 0.60684 0.0
C182 C 0.26255 0.15363 0.4337 0.0
C183 C 0.26473 0.14097 0.20558 0.0
O184 O 0.24649 0.14319 0.39879 0.0
Zn185 Zn 0.26499 0.14656 0.32219 0.0
O186 O 0.28216 0.16268 0.40898 0.0
Zn187 Zn 0.2986 0.16485 0.31452 0.0
O188 O 0.30028 0.20022 0.30542 0.0
O189 O 0.26235 0.18618 0.31228 0.0
O190 O 0.28408 0.15269 0.22347 0.0
O191 O 0.24991 0.13308 0.24738 0.0
O192 O 0.29654 0.12435 0.3497 0.0
O193 O 0.32906 0.14744 0.33193 0.0
C194 C 0.27728 0.20442 0.30779 0.0
C195 C 0.31989 0.12765 0.35381 0.0
C196 C 0.61493 0.51553 0.95401 0.0
C197 C 0.60229 0.50973 0.18178 0.0
O198 O 0.62277 0.49993 0.99393 0.0
Zn199 Zn 0.60943 0.51384 0.07086 0.0
O200 O 0.60304 0.53442 0.97427 0.0
Zn201 Zn 0.59089 0.5474 0.0666 0.0
O202 O 0.608 0.57776 0.08599 0.0
O203 O 0.6315 0.54533 0.1011 0.0
O204 O 0.59338 0.52977 0.15937 0.0
O205 O 0.61298 0.49425 0.14563 0.0
O206 O 0.56975 0.51095 0.06171 0.0
O207 O 0.55552 0.54885 0.05833 0.0
C208 C 0.62796 0.5686 0.1069 0.0
C209 C 0.55141 0.52583 0.05907 0.0
C210 C 0.23464 0.80467 0.80941 0.0
C211 C 0.18951 0.88016 0.85432 0.0
O212 O 0.21147 0.80794 0.80699 0.0
Zn213 Zn 0.21193 0.84339 0.81507 0.0
O214 O 0.24887 0.8235 0.81265 0.0
Zn215 Zn 0.24476 0.86318 0.82092 0.0
O216 O 0.26344 0.86799 0.89667 0.0
O217 O 0.22915 0.84612 0.90856 0.0
O218 O 0.21269 0.88422 0.84929 0.0
O219 O 0.18097 0.85994 0.83335 0.0
O220 O 0.22558 0.85527 0.72294 0.0
O221 O 0.25889 0.87664 0.7447 0.0
C222 C 0.24854 0.85611 0.93187 0.0
C223 C 0.24433 0.86765 0.7038 0.0
C224 C 0.55193 0.98119 0.55666 0.0
C225 C 0.6268 0.93651 0.60511 0.0
O226 O 0.57037 0.99587 0.56156 0.0
Zn227 Zn 0.61013 0.99207 0.57213 0.0
O228 O 0.55584 0.95817 0.55391 0.0
Zn229 Zn 0.59096 0.95927 0.56362 0.0
O230 O 0.593 0.97572 0.65846 0.0
O231 O 0.61363 0.01073 0.64852 0.0
O232 O 0.60706 0.92831 0.58069 0.0
O233 O 0.63122 0.95971 0.60175 0.0
O234 O 0.62427 0.00672 0.49703 0.0
O235 O 0.60334 0.97346 0.47261 0.0
C236 C 0.60245 0.99512 0.68327 0.0
C237 C 0.61573 0.99239 0.45494 0.0
C238 C 0.27428 0.30356 0.81144 0.0
C239 C 0.31798 0.37945 0.85809 0.0
O240 O 0.2594 0.32192 0.81527 0.0
Zn241 Zn 0.26294 0.36185 0.8241 0.0
O242 O 0.2973 0.30763 0.8092 0.0
Zn243 Zn 0.29597 0.34275 0.818 0.0
O244 O 0.27854 0.34481 0.9117 0.0
O245 O 0.24435 0.36679 0.89987 0.0
O246 O 0.3268 0.35944 0.83661 0.0
O247 O 0.29475 0.38325 0.85298 0.0
O248 O 0.24861 0.37541 0.74823 0.0
O249 O 0.28226 0.35468 0.72581 0.0
C250 C 0.25915 0.35482 0.93516 0.0
C251 C 0.26331 0.36684 0.70702 0.0
C252 C 0.89025 0.01282 0.95754 0.0
C253 C 0.90158 0.00981 0.18571 0.0
O254 O 0.90262 0.03167 0.97608 0.0
Zn255 Zn 0.91481 0.04561 0.06768 0.0
O256 O 0.88145 0.9983 0.99878 0.0
Zn257 Zn 0.89507 0.01268 0.0742 0.0
O258 O 0.874 0.04496 0.10147 0.0
O259 O 0.89832 0.07667 0.08537 0.0
O260 O 0.89066 0.99419 0.15044 0.0
O261 O 0.91149 0.02907 0.1615 0.0
O262 O 0.9504 0.04565 0.05988 0.0
O263 O 0.93451 0.00846 0.06531 0.0
C264 C 0.87809 0.06814 0.10638 0.0
C265 C 0.95347 0.02246 0.06177 0.0
C266 C 0.24001 0.63974 0.20351 0.0
C267 C 0.2471 0.65188 0.43132 0.0
O268 O 0.2214 0.65191 0.22444 0.0
Zn269 Zn 0.20887 0.66383 0.31746 0.0
O270 O 0.25546 0.63128 0.24297 0.0
Zn271 Zn 0.24204 0.64461 0.32062 0.0
O272 O 0.21046 0.62315 0.35162 0.0
O273 O 0.17833 0.64711 0.3379 0.0
O274 O 0.26162 0.63999 0.39503 0.0
O275 O 0.22733 0.66161 0.40948 0.0
O276 O 0.20756 0.69904 0.30885 0.0
O277 O 0.2454 0.68444 0.31165 0.0
C278 C 0.18728 0.62699 0.35823 0.0
C279 C 0.23064 0.7029 0.30909 0.0
C280 C 0.55167 0.02537 0.08007 0.0
C281 C 0.62662 0.06995 0.02993 0.0
O282 O 0.57025 0.01076 0.07674 0.0
Zn283 Zn 0.61009 0.01466 0.06671 0.0
O284 O 0.5554 0.04844 0.08073 0.0
Zn285 Zn 0.5906 0.04737 0.07147 0.0
O286 O 0.59305 0.02941 0.97831 0.0
O287 O 0.61414 0.99493 0.9925 0.0
O288 O 0.60657 0.07819 0.05253 0.0
O289 O 0.63111 0.0468 0.03487 0.0
O290 O 0.62405 1.00113 0.14347 0.0
O291 O 0.60293 0.03469 0.16396 0.0
C292 C 0.60265 0.00962 0.95582 0.0
C293 C 0.61551 0.0162 0.18381 0.0
C294 C 0.24846 0.35569 0.20702 0.0
C295 C 0.24092 0.36702 0.43512 0.0
O296 O 0.2296 0.34439 0.22929 0.0
Zn297 Zn 0.21145 0.34094 0.32155 0.0
O298 O 0.26192 0.36886 0.24308 0.0
Zn299 Zn 0.24294 0.36259 0.31778 0.0
O300 O 0.24933 0.32295 0.32612 0.0
O301 O 0.21261 0.30578 0.32992 0.0
O302 O 0.25555 0.37673 0.39547 0.0
O303 O 0.22325 0.35353 0.41441 0.0
O304 O 0.17975 0.35532 0.30182 0.0
O305 O 0.20978 0.38171 0.28697 0.0
C306 C 0.2359 0.3035 0.32877 0.0
C307 C 0.18697 0.376 0.28085 0.0
C308 C 0.89093 0.99001 0.68631 0.0
C309 C 0.90177 0.9968 0.45817 0.0
O310 O 0.90428 0.97216 0.66589 0.0
Zn311 Zn 0.91691 0.96015 0.57323 0.0
O312 O 0.88149 0.00475 0.64655 0.0
Zn313 Zn 0.89557 0.99188 0.56945 0.0
O314 O 0.87613 0.95867 0.5395 0.0
O315 O 0.90245 0.92851 0.5545 0.0
O316 O 0.88979 0.01103 0.4951 0.0
O317 O 0.91269 0.97772 0.48054 0.0
O318 O 0.95224 0.96133 0.58079 0.0
O319 O 0.93507 0.99801 0.57726 0.0
C320 C 0.88176 0.93581 0.53362 0.0
C321 C 0.95452 0.9846 0.57961 0.0
C322 C 0.31688 0.62855 0.78065 0.0
C323 C 0.27344 0.70453 0.82902 0.0
O324 O 0.29362 0.62483 0.78528 0.0
Zn325 Zn 0.26183 0.64638 0.81438 0.0
O326 O 0.32569 0.64851 0.80238 0.0
Zn327 Zn 0.29492 0.66527 0.82092 0.0
O328 O 0.28114 0.65301 0.91277 0.0
O329 O 0.24739 0.6326 0.8899 0.0
O330 O 0.29645 0.70036 0.83102 0.0
O331 O 0.2585 0.68628 0.82425 0.0
O332 O 0.24319 0.64191 0.73865 0.0
O333 O 0.27756 0.66351 0.72699 0.0
C334 C 0.26214 0.64088 0.93131 0.0
C335 C 0.25809 0.65374 0.70329 0.0
C336 C 0.37769 0.06801 0.53227 0.0
C337 C 0.45261 0.02206 0.57776 0.0
O338 O 0.39805 0.07642 0.55273 0.0
Zn339 Zn 0.41414 0.04537 0.57134 0.0
O340 O 0.37331 0.0449 0.53809 0.0
Zn341 Zn 0.39415 0.01251 0.56646 0.0
O342 O 0.38065 0.99872 0.64312 0.0
O343 O 0.40173 0.03239 0.66333 0.0
O344 O 0.43357 0.00815 0.57491 0.0
O345 O 0.44967 0.04528 0.57898 0.0
O346 O 0.41055 0.02827 0.47832 0.0
O347 O 0.38952 0.99358 0.49074 0.0
C348 C 0.38926 0.01384 0.68324 0.0
C349 C 0.4005 0.00894 0.45485 0.0
C350 C 0.74281 0.6398 0.43314 0.0
C351 C 0.74824 0.65257 0.20534 0.0
O352 O 0.75717 0.63056 0.39208 0.0
Zn353 Zn 0.74343 0.64464 0.31632 0.0
O354 O 0.7242 0.65246 0.41411 0.0
Zn355 Zn 0.71069 0.66449 0.3214 0.0
O356 O 0.67982 0.64802 0.30214 0.0
O357 O 0.71153 0.62371 0.28591 0.0
O358 O 0.72852 0.66214 0.22832 0.0
O359 O 0.76294 0.6409 0.24157 0.0
O360 O 0.74736 0.68417 0.32815 0.0
O361 O 0.71001 0.7 0.33048 0.0
C362 C 0.68835 0.62786 0.28083 0.0
C363 C 0.73322 0.70307 0.33157 0.0
C364 C 0.12929 0.9391 0.02945 0.0
C365 C 0.05318 0.9821 0.07975 0.0
O366 O 0.10923 0.93009 0.05013 0.0
Zn367 Zn 0.09253 0.96056 0.07054 0.0
O368 O 0.13306 0.9623 0.03575 0.0
Zn369 Zn 0.1113 0.99386 0.06692 0.0
O370 O 0.12493 0.00744 0.14367 0.0
O371 O 0.10487 0.97313 0.16308 0.0
O372 O 0.07151 0.99701 0.07685 0.0
O373 O 0.05731 0.95909 0.07978 0.0
O374 O 0.09481 0.97875 0.9782 0.0
O375 O 0.11523 0.01358 0.99271 0.0
C376 C 0.11696 0.99186 0.18345 0.0
C377 C 0.10414 0.99865 0.95584 0.0
C378 C 0.76508 0.36555 0.93635 0.0
C379 C 0.75841 0.35293 0.70865 0.0
O380 O 0.74945 0.37348 0.89664 0.0
Zn381 Zn 0.76311 0.36001 0.81976 0.0
O382 O 0.78386 0.35352 0.91591 0.0
Zn383 Zn 0.79651 0.34132 0.82332 0.0
O384 O 0.82687 0.35826 0.80316 0.0
O385 O 0.79453 0.38195 0.78882 0.0
O386 O 0.77836 0.34367 0.731 0.0
O387 O 0.74339 0.36392 0.74553 0.0
O388 O 0.76014 0.32023 0.82907 0.0
O389 O 0.79809 0.30602 0.83201 0.0
C390 C 0.81777 0.37829 0.78259 0.0
C391 C 0.77506 0.30191 0.8317 0.0
C392 C 0.40017 0.99558 0.18233 0.0
C393 C 0.38928 0.99068 0.95427 0.0
O394 O 0.3882 0.00996 0.1459 0.0
Zn395 Zn 0.39375 0.99115 0.0711 0.0
O396 O 0.41098 0.97651 0.15934 0.0
Zn397 Zn 0.41492 0.95945 0.06549 0.0
O398 O 0.4503 0.96032 0.05793 0.0
O399 O 0.4333 0.99707 0.06285 0.0
O400 O 0.40261 0.97256 0.97314 0.0
O401 O 0.37951 0.00465 0.99533 0.0
O402 O 0.37416 0.95801 0.09995 0.0
O403 O 0.40014 0.92776 0.08262 0.0
C404 C 0.45269 0.98358 0.0598 0.0
C405 C 0.37959 0.93508 0.10443 0.0
C406 C 0.7629 0.6548 0.93276 0.0
C407 C 0.76689 0.64188 0.70421 0.0
O408 O 0.74725 0.64403 0.89727 0.0
Zn409 Zn 0.76623 0.6476 0.82128 0.0
O410 O 0.7825 0.66415 0.90868 0.0
Zn411 Zn 0.79939 0.66653 0.81458 0.0
O412 O 0.80071 0.7018 0.80518 0.0
O413 O 0.76293 0.68729 0.81094 0.0
O414 O 0.78577 0.65407 0.72317 0.0
O415 O 0.75181 0.63384 0.74523 0.0
O416 O 0.79832 0.62604 0.85091 0.0
O417 O 0.83008 0.64998 0.83213 0.0
C418 C 0.77766 0.70571 0.80675 0.0
C419 C 0.82158 0.63009 0.855 0.0
C420 C 0.10415 0.01188 0.68312 0.0
C421 C 0.11702 0.01435 0.45507 0.0
O422 O 0.11479 0.9959 0.64831 0.0
Zn423 Zn 0.1114 0.01445 0.57178 0.0
O424 O 0.09501 0.03144 0.6584 0.0
Zn425 Zn 0.09284 0.04792 0.56413 0.0
O426 O 0.05746 0.04935 0.55499 0.0
O427 O 0.07178 0.01153 0.56177 0.0
O428 O 0.10511 0.03356 0.47312 0.0
O429 O 0.12507 0.99957 0.49675 0.0
O430 O 0.13333 0.04613 0.59995 0.0
O431 O 0.11004 0.07846 0.5818 0.0
C432 C 0.05343 0.02633 0.55736 0.0
C433 C 0.12984 0.06944 0.60414 0.0
C434 C 0.68767 0.37864 0.35706 0.0
C435 C 0.73081 0.30212 0.3098 0.0
O436 O 0.67866 0.35881 0.33492 0.0
Zn437 Zn 0.70921 0.34159 0.31707 0.0
O438 O 0.711 0.3821 0.35289 0.0
Zn439 Zn 0.74271 0.36007 0.32467 0.0
O440 O 0.75758 0.37373 0.24969 0.0
O441 O 0.72354 0.35386 0.22612 0.0
O442 O 0.74567 0.32042 0.3143 0.0
O443 O 0.70779 0.30625 0.3077 0.0
O444 O 0.72571 0.34369 0.41121 0.0
O445 O 0.76126 0.36343 0.4012 0.0
C446 C 0.74276 0.36573 0.20804 0.0
C447 C 0.74527 0.35281 0.43597 0.0
C448 C 0.99896 0.52546 0.07462 0.0
C449 C 0.9778 0.5105 0.07598 0.0
C450 C 0.02258 0.51531 0.06778 0.0
C451 C 0.02617 0.48972 0.06193 0.0
H452 H 0.99733 0.54527 0.07841 0.0
H453 H 0.03817 0.52774 0.0674 0.0
S454 S 0.97694 0.44224 0.06303 0.0
N455 N 0.96209 0.46855 0.07117 0.0
N456 N 0.00636 0.44957 0.05828 0.0
C457 C 0.00518 0.47449 0.06325 0.0
C458 C 0.98109 0.48483 0.07035 0.0
C459 C 0.73941 0.77275 0.3152 0.0
C460 C 0.76496 0.77666 0.32081 0.0
C461 C 0.7292 0.74905 0.32033 0.0
C462 C 0.74411 0.72825 0.33144 0.0
H463 H 0.72713 0.78809 0.30635 0.0
H464 H 0.70949 0.74702 0.31448 0.0
S465 S 0.81198 0.72855 0.35408 0.0
N466 N 0.80483 0.75761 0.34093 0.0
N467 N 0.78572 0.71338 0.35079 0.0
C468 C 0.76963 0.73197 0.33845 0.0
C469 C 0.78002 0.75604 0.33303 0.0
C470 C 0.49829 0.5268 0.56606 0.0
C471 C 0.47736 0.51153 0.56421 0.0
C472 C 0.52207 0.51697 0.57252 0.0
C473 C 0.52605 0.4914 0.57752 0.0
H474 H 0.49636 0.5466 0.56285 0.0
H475 H 0.53747 0.52963 0.57321 0.0
S476 S 0.47754 0.44321 0.57532 0.0
N477 N 0.46229 0.46933 0.56795 0.0
N478 N 0.50685 0.45096 0.58011 0.0
C479 C 0.5053 0.47588 0.57584 0.0
C480 C 0.48105 0.48589 0.56911 0.0
C481 C 0.73006 0.24859 0.81375 0.0
C482 C 0.74531 0.22763 0.81397 0.0
C483 C 0.73981 0.27234 0.82088 0.0
C484 C 0.76529 0.27629 0.82854 0.0
H485 H 0.71031 0.24672 0.80833 0.0
H486 H 0.72717 0.28776 0.81979 0.0
S487 S 0.81339 0.22766 0.83308 0.0
N488 N 0.78738 0.21246 0.82296 0.0
N489 N 0.80563 0.257 0.8363 0.0
C490 C 0.7808 0.2555 0.82906 0.0
C491 C 0.77086 0.23126 0.82173 0.0
C492 C 0.00667 0.52556 0.57563 0.0
C493 C 0.0275 0.51012 0.57487 0.0
C494 C 0.98279 0.51603 0.56893 0.0
C495 C 0.97862 0.4906 0.56108 0.0
H496 H 0.00876 0.54528 0.58121 0.0
H497 H 0.96748 0.52877 0.57045 0.0
S498 S 0.02683 0.44211 0.55477 0.0
N499 N 0.04228 0.46795 0.56497 0.0
N500 N 0.99754 0.45013 0.55236 0.0
C501 C 0.99928 0.47492 0.55997 0.0
C502 C 0.02362 0.48462 0.56693 0.0
C503 C 0.74198 0.7349 0.81198 0.0
C504 C 0.76763 0.73123 0.80895 0.0
C505 C 0.73182 0.7585 0.81792 0.0
C506 C 0.74682 0.77961 0.82117 0.0
H507 H 0.72949 0.71937 0.81017 0.0
H508 H 0.71197 0.76014 0.81976 0.0
S509 S 0.81521 0.78031 0.81519 0.0
N510 N 0.80789 0.75091 0.80956 0.0
N511 N 0.78882 0.79524 0.82066 0.0
C512 C 0.77253 0.77628 0.81806 0.0
C513 C 0.78292 0.75217 0.8119 0.0
C514 C 0.52189 0.49039 0.06638 0.0
C515 C 0.52582 0.516 0.06255 0.0
C516 C 0.49817 0.4805 0.07333 0.0
C517 C 0.47725 0.49574 0.07685 0.0
H518 H 0.53729 0.47775 0.06431 0.0
H519 H 0.49627 0.46067 0.07547 0.0
S520 S 0.47731 0.56415 0.0702 0.0
N521 N 0.50658 0.55645 0.06342 0.0
N522 N 0.46214 0.53797 0.0766 0.0
C523 C 0.48088 0.52143 0.07337 0.0
C524 C 0.50507 0.5315 0.06614 0.0
C525 C 0.76621 0.27258 0.31833 0.0
C526 C 0.74065 0.27651 0.31236 0.0
C527 C 0.77608 0.24882 0.32444 0.0
C528 C 0.76087 0.22785 0.32496 0.0
H529 H 0.77884 0.28801 0.31868 0.0
H530 H 0.79587 0.24695 0.3285 0.0
S531 S 0.69261 0.22785 0.3105 0.0
N532 N 0.70028 0.2572 0.30715 0.0
N533 N 0.71873 0.21267 0.31863 0.0
C534 C 0.73524 0.23148 0.31899 0.0
C535 C 0.72518 0.25571 0.31262 0.0
C536 C 0.23906 0.27376 0.8197 0.0
C537 C 0.26461 0.27792 0.81477 0.0
C538 C 0.22942 0.24991 0.82593 0.0
C539 C 0.24488 0.22911 0.82768 0.0
H540 H 0.22628 0.28907 0.81892 0.0
H541 H 0.20962 0.24782 0.8289 0.0
S542 S 0.31325 0.22979 0.81753 0.0
N543 N 0.30525 0.25902 0.81268 0.0
N544 N 0.28723 0.21437 0.82454 0.0
C545 C 0.27051 0.23299 0.82322 0.0
C546 C 0.28032 0.25729 0.81666 0.0
C547 C 0.27594 0.7558 0.32859 0.0
C548 C 0.26096 0.77691 0.32514 0.0
C549 C 0.26601 0.73211 0.32221 0.0
C550 C 0.24063 0.7284 0.31203 0.0
H551 H 0.2956 0.75751 0.33602 0.0
H552 H 0.27842 0.71657 0.32584 0.0
S553 S 0.19328 0.77749 0.29844 0.0
N554 N 0.21928 0.79249 0.31036 0.0
N555 N 0.2007 0.74803 0.2984 0.0
C556 C 0.22539 0.74934 0.30841 0.0
C557 C 0.23551 0.77352 0.31501 0.0
C558 C 0.24205 0.23385 0.31953 0.0
C559 C 0.26749 0.23002 0.31091 0.0
C560 C 0.23218 0.25754 0.32642 0.0
C561 C 0.24728 0.27858 0.32501 0.0
H562 H 0.22948 0.21838 0.3215 0.0
H563 H 0.21247 0.25929 0.33265 0.0
S564 S 0.31519 0.27891 0.30272 0.0
N565 N 0.30765 0.24949 0.30082 0.0
N566 N 0.28915 0.29401 0.31356 0.0
C567 C 0.27279 0.2751 0.31621 0.0
C568 C 0.28287 0.25089 0.30915 0.0
C569 C 0.23923 0.73468 0.80945 0.0
C570 C 0.26391 0.73023 0.8267 0.0
C571 C 0.23004 0.75872 0.80314 0.0
C572 C 0.24513 0.77938 0.81365 0.0
H573 H 0.22687 0.71948 0.79989 0.0
H574 H 0.21092 0.76106 0.78973 0.0
S575 S 0.31086 0.7779 0.86317 0.0
N576 N 0.30308 0.74866 0.8564 0.0
N577 N 0.28592 0.79369 0.84454 0.0
C578 C 0.26981 0.77521 0.8316 0.0
C579 C 0.27915 0.75072 0.83816 0.0
C580 C 0.49863 0.02639 0.57257 0.0
C581 C 0.47772 0.0111 0.57415 0.0
C582 C 0.5224 0.0166 0.56564 0.0
C583 C 0.52635 0.99106 0.55983 0.0
H584 H 0.49669 0.04618 0.57638 0.0
H585 H 0.53781 0.02924 0.5652 0.0
S586 S 0.47786 0.94282 0.56104 0.0
N587 N 0.46264 0.96891 0.56934 0.0
N588 N 0.50715 0.95061 0.55617 0.0
C589 C 0.50561 0.97551 0.5612 0.0
C590 C 0.48139 0.98548 0.56846 0.0
C591 C 0.99954 0.02698 0.0646 0.0
C592 C 0.97868 0.0116 0.06496 0.0
C593 C 0.0234 0.01731 0.07071 0.0
C594 C 0.02752 0.99183 0.0775 0.0
H595 H 0.99749 0.04671 0.05981 0.0
H596 H 0.03876 0.03003 0.06954 0.0
S597 S 0.9792 0.94347 0.08212 0.0
N598 N 0.96381 0.96942 0.07316 0.0
N599 N 0.00851 0.95138 0.08471 0.0
C600 C 0.00682 0.97622 0.07821 0.0
C601 C 0.9825 0.98605 0.07186 0.0
C602 C 0.52249 0.98989 0.0677 0.0
C603 C 0.52616 0.01529 0.07738 0.0
C604 C 0.49879 0.97994 0.061 0.0
C605 C 0.47765 0.99491 0.06362 0.0
H606 H 0.53806 0.97749 0.06463 0.0
H607 H 0.49711 0.96026 0.05386 0.0
S608 S 0.47696 0.06263 0.08931 0.0
N609 N 0.50643 0.05522 0.09007 0.0
N610 N 0.46201 0.0366 0.0775 0.0
C611 C 0.48101 0.02037 0.07353 0.0
C612 C 0.50518 0.03051 0.08046 0.0
C613 C 0.0242 0.99099 0.5701 0.0
C614 C 0.02788 0.01641 0.56076 0.0
C615 C 1.00055 0.98104 0.57732 0.0
C616 C 0.97942 0.99602 0.57556 0.0
H617 H 0.03975 0.97853 0.5724 0.0
H618 H 0.99891 0.96135 0.5841 0.0
S619 S 0.9787 0.06381 0.55138 0.0
N620 N 0.00817 0.0564 0.5496 0.0
N621 N 0.96375 0.03776 0.56303 0.0
C622 C 0.98276 0.02151 0.56609 0.0
C623 C 0.00692 0.03166 0.55866 0.0
C624 C 0.1181 0.47785 0.84045 0.0
C625 C 0.11772 0.49654 0.88679 0.0
C626 C 0.11863 0.48351 0.77511 0.0
C627 C 0.11811 0.50808 0.75351 0.0
H628 H 0.11781 0.45869 0.85475 0.0
H629 H 0.11855 0.46846 0.74121 0.0
S630 S 0.11736 0.56384 0.85536 0.0
N631 N 0.11752 0.54071 0.90643 0.0
N632 N 0.11769 0.55121 0.78371 0.0
C633 C 0.11797 0.52694 0.79929 0.0
C634 C 0.11802 0.5212 0.86585 0.0
C635 C 0.74998 0.88679 0.03971 0.0
C636 C 0.74699 0.86486 0.00485 0.0
C637 C 0.75695 0.88633 0.10444 0.0
C638 C 0.76224 0.86398 0.13562 0.0
H639 H 0.74658 0.90438 0.01705 0.0
H640 H 0.75847 0.90357 0.13009 0.0
S641 S 0.758 0.80158 0.06467 0.0
N642 N 0.74994 0.82026 0.00614 0.0
N643 N 0.76411 0.81945 0.12644 0.0
C644 C 0.75978 0.84201 0.10079 0.0
C645 C 0.75189 0.84243 0.03575 0.0
C646 C 0.38603 0.48077 0.29838 0.0
C647 C 0.38647 0.49964 0.2526 0.0
C648 C 0.3857 0.4862 0.36385 0.0
C649 C 0.38649 0.51069 0.38603 0.0
H650 H 0.38612 0.46167 0.28354 0.0
H651 H 0.38572 0.47102 0.39735 0.0
S652 S 0.38759 0.56681 0.2857 0.0
N653 N 0.38708 0.54387 0.23404 0.0
N654 N 0.38726 0.55392 0.35701 0.0
C655 C 0.3867 0.52971 0.3408 0.0
C656 C 0.38646 0.52422 0.27414 0.0
C657 C 0.73018 0.1366 0.5904 0.0
C658 C 0.74892 0.13704 0.63652 0.0
C659 C 0.73579 0.1363 0.52503 0.0
C660 C 0.76034 0.13716 0.50324 0.0
H661 H 0.71103 0.13663 0.60491 0.0
H662 H 0.72069 0.13628 0.49128 0.0
S663 S 0.81621 0.1384 0.60464 0.0
N664 N 0.79311 0.13778 0.6559 0.0
N665 N 0.80352 0.13807 0.53307 0.0
C666 C 0.77926 0.13742 0.54884 0.0
C667 C 0.77358 0.13712 0.61543 0.0
C668 C 0.88712 0.52665 0.29733 0.0
C669 C 0.88681 0.50798 0.25098 0.0
C670 C 0.88687 0.52099 0.36268 0.0
C671 C 0.88703 0.49641 0.38425 0.0
H672 H 0.88774 0.5458 0.28302 0.0
H673 H 0.88747 0.53603 0.39657 0.0
S674 S 0.88605 0.44068 0.28228 0.0
N675 N 0.88602 0.46382 0.23125 0.0
N676 N 0.88639 0.45329 0.35395 0.0
C677 C 0.88649 0.47756 0.33844 0.0
C678 C 0.88614 0.48332 0.27188 0.0
C679 C 0.27155 0.13736 0.02523 0.0
C680 C 0.247 0.13826 0.00353 0.0
C681 C 0.27719 0.13789 0.0906 0.0
C682 C 0.25848 0.13866 0.13686 0.0
H683 H 0.28664 0.13715 0.9914 0.0
H684 H 0.29635 0.13787 0.10495 0.0
S685 S 0.19116 0.14011 0.10515 0.0
N686 N 0.20384 0.13944 0.03357 0.0
N687 N 0.21427 0.13965 0.1563 0.0
C688 C 0.23381 0.13875 0.11582 0.0
C689 C 0.22811 0.13878 0.04924 0.0
C690 C 0.61776 0.48596 0.8626 0.0
C691 C 0.61729 0.51048 0.88462 0.0
C692 C 0.61753 0.48044 0.79713 0.0
C693 C 0.6175 0.49922 0.75105 0.0
H694 H 0.6174 0.47083 0.89623 0.0
H695 H 0.61717 0.46132 0.78252 0.0
S696 S 0.61747 0.56647 0.78363 0.0
N697 N 0.61738 0.55367 0.85506 0.0
N698 N 0.61771 0.54344 0.7322 0.0
C699 C 0.61788 0.52384 0.77245 0.0
C700 C 0.61755 0.52943 0.83911 0.0
C701 C 0.23156 0.86969 0.58886 0.0
C702 C 0.25038 0.86933 0.63485 0.0
C703 C 0.23707 0.86966 0.52335 0.0
C704 C 0.26158 0.86853 0.50132 0.0
H705 H 0.21244 0.86985 0.60357 0.0
H706 H 0.22193 0.86961 0.48971 0.0
S707 S 0.31761 0.86741 0.60214 0.0
N708 N 0.29461 0.86841 0.65363 0.0
N709 N 0.30479 0.86748 0.53074 0.0
C710 C 0.28056 0.86835 0.54676 0.0
C711 C 0.275 0.869 0.61341 0.0
C712 C 0.61846 0.9862 0.27419 0.0
C713 C 0.6178 0.01083 0.25306 0.0
C714 C 0.61817 0.98033 0.33947 0.0
C715 C 0.61793 0.99886 0.38626 0.0
H716 H 0.61828 0.97125 0.23999 0.0
H717 H 0.61795 0.96113 0.35337 0.0
S718 S 0.61731 0.06626 0.35616 0.0
N719 N 0.61741 0.05385 0.28425 0.0
N720 N 0.61771 0.04297 0.40675 0.0
C721 C 0.61811 0.02359 0.36577 0.0
C722 C 0.6178 0.02953 0.29929 0.0
C723 C 0.27046 0.37021 0.52651 0.0
C724 C 0.24595 0.36908 0.50455 0.0
C725 C 0.27601 0.36973 0.592 0.0
C726 C 0.25723 0.36885 0.63809 0.0
H727 H 0.28558 0.37057 0.49278 0.0
H728 H 0.29514 0.36995 0.60661 0.0
S729 S 0.18999 0.36665 0.6056 0.0
N730 N 0.20277 0.36741 0.53415 0.0
N731 N 0.21301 0.3674 0.65701 0.0
C732 C 0.2326 0.36848 0.61674 0.0
C733 C 0.22701 0.36834 0.55008 0.0
C734 C 0.88751 0.0253 0.84259 0.0
C735 C 0.88839 0.0066 0.8888 0.0
C736 C 0.88729 0.01964 0.77722 0.0
C737 C 0.88868 0.9951 0.75557 0.0
H738 H 0.88711 0.04444 0.85702 0.0
H739 H 0.88692 0.03468 0.74335 0.0
S740 S 0.89125 0.93937 0.85719 0.0
N741 N 0.89016 0.96247 0.90833 0.0
N742 N 0.89059 0.952 0.78559 0.0
C743 C 0.88941 0.97624 0.80125 0.0
C744 C 0.88902 0.98195 0.8678 0.0
C745 C 0.27498 0.63824 0.04622 0.0
C746 C 0.25615 0.63854 1.00027 0.0
C747 C 0.26952 0.63757 0.11175 0.0
C748 C 0.245 0.63786 0.13397 0.0
H749 H 0.2941 0.63868 0.03149 0.0
H750 H 0.28469 0.63772 0.1453 0.0
S751 S 0.1889 0.63834 0.03338 0.0
N752 N 0.21188 0.63844 0.98177 0.0
N753 N 0.20177 0.63799 0.10471 0.0
C754 C 0.22601 0.63793 0.08858 0.0
C755 C 0.23154 0.63803 0.02186 0.0
C756 C 0.38773 0.97818 0.8391 0.0
C757 C 0.38731 0.99684 0.88552 0.0
C758 C 0.3873 0.98391 0.77377 0.0
C759 C 0.38716 0.00851 0.7524 0.0
H760 H 0.3885 0.95904 0.85334 0.0
H761 H 0.38796 0.96891 0.73973 0.0
S762 S 0.38594 0.06416 0.85457 0.0
N763 N 0.38621 0.04098 0.90547 0.0
N764 N 0.38626 0.0516 0.78285 0.0
C765 C 0.3866 0.02731 0.79827 0.0
C766 C 0.38642 0.02151 0.86474 0.0
C767 C 0.73069 0.63865 0.54889 0.0
C768 C 0.74919 0.63829 0.50201 0.0
C769 C 0.73663 0.63877 0.61419 0.0
C770 C 0.76131 0.63928 0.63512 0.0
H771 H 0.71147 0.63895 0.53506 0.0
H772 H 0.72172 0.63935 0.6485 0.0
S773 S 0.81667 0.63856 0.53164 0.0
N774 N 0.79332 0.63801 0.48127 0.0
N775 N 0.80433 0.63905 0.6036 0.0
C776 C 0.77997 0.63878 0.58876 0.0
C777 C 0.77395 0.63806 0.52238 0.0
C778 C 0.11954 0.02695 0.34017 0.0
C779 C 0.1193 0.00819 0.38627 0.0
C780 C 0.11987 0.02141 0.27475 0.0
C781 C 0.1193 0.99688 0.2528 0.0
H782 H 0.11926 0.04609 0.35471 0.0
H783 H 0.11964 0.03653 0.24109 0.0
S784 S 0.11901 0.94093 0.35389 0.0
N785 N 0.11927 0.96397 0.40528 0.0
N786 N 0.11911 0.95369 0.28244 0.0
C787 C 0.11938 0.97794 0.29833 0.0
C788 C 0.11961 0.98356 0.36498 0.0
C789 C 0.73007 0.36818 0.09321 0.0
C790 C 0.74888 0.36801 0.13923 0.0
C791 C 0.73557 0.36846 0.02777 0.0
C792 C 0.7601 0.3679 0.00572 0.0
H793 H 0.71094 0.36789 0.10784 0.0
H794 H 0.72042 0.36819 0.99418 0.0
S795 S 0.81615 0.36779 0.10653 0.0
N796 N 0.79313 0.36806 0.15803 0.0
N797 N 0.80333 0.36781 0.03514 0.0
C798 C 0.77908 0.36805 0.05115 0.0
C799 C 0.77351 0.36833 0.11782 0.0
C800 C 0.10094 0.52238 0.34584 0.0
C801 C 0.10369 0.50212 0.38709 0.0
C802 C 0.10081 0.51926 0.27979 0.0
C803 C 0.10291 0.49574 0.25299 0.0
H804 H 0.09932 0.5409 0.36462 0.0
H805 H 0.09888 0.53531 0.24955 0.0
S806 S 0.11093 0.43676 0.33969 0.0
N807 N 0.10897 0.45779 0.39637 0.0
N808 N 0.1083 0.45185 0.27171 0.0
C809 C 0.10555 0.47528 0.29345 0.0
C810 C 0.10609 0.4785 0.36075 0.0
C811 C 0.7546 0.87884 0.6029 0.0
C812 C 0.75276 0.85687 0.63778 0.0
C813 C 0.75639 0.87836 0.53628 0.0
C814 C 0.75696 0.85588 0.50321 0.0
H815 H 0.75399 0.89646 0.6271 0.0
H816 H 0.75786 0.8956 0.51059 0.0
S817 S 0.75333 0.79342 0.57304 0.0
N818 N 0.75149 0.81218 0.63493 0.0
N819 N 0.75608 0.81127 0.50964 0.0
C820 C 0.75558 0.83383 0.53764 0.0
C821 C 0.75312 0.83433 0.60513 0.0
C822 C 0.40317 0.52539 0.79293 0.0
C823 C 0.40026 0.50493 0.75234 0.0
C824 C 0.40287 0.52267 0.85908 0.0
C825 C 0.40015 0.49935 0.88653 0.0
H826 H 0.40533 0.54375 0.77356 0.0
H827 H 0.40509 0.53882 0.88885 0.0
S828 S 0.3911 0.44008 0.80185 0.0
N829 N 0.3939 0.46071 0.74446 0.0
N830 N 0.39374 0.45552 0.86932 0.0
C831 C 0.39717 0.47873 0.84678 0.0
C832 C 0.39709 0.48154 0.77941 0.0
C833 C 0.77459 0.1529 0.09596 0.0
C834 C 0.75417 0.15072 0.13697 0.0
C835 C 0.77166 0.15252 0.02986 0.0
C836 C 0.74817 0.15047 0.00286 0.0
H837 H 0.79307 0.15451 0.11498 0.0
H838 H 0.78781 0.15414 0.99977 0.0
S839 S 0.68886 0.14365 0.08892 0.0
N840 N 0.70976 0.14586 0.14585 0.0
N841 N 0.70417 0.1456 0.02108 0.0
C842 C 0.72757 0.14828 0.04308 0.0
C843 C 0.7306 0.14825 0.11041 0.0
C844 C 0.90386 0.48145 0.79176 0.0
C845 C 0.90227 0.50183 0.75048 0.0
C846 C 0.90334 0.48452 0.85785 0.0
C847 C 0.90172 0.50809 0.88464 0.0
H848 H 0.90504 0.46291 0.77294 0.0
H849 H 0.90442 0.4684 0.88813 0.0
S850 S 0.89672 0.56737 0.79784 0.0
N851 N 0.8986 0.54632 0.74118 0.0
N852 N 0.89806 0.55214 0.86585 0.0
C853 C 0.90024 0.52865 0.84414 0.0
C854 C 0.90037 0.5255 0.77683 0.0
C855 C 0.23309 0.15675 0.59602 0.0
C856 C 0.25329 0.15347 0.63726 0.0
C857 C 0.2362 0.15674 0.52994 0.0
C858 C 0.25965 0.15396 0.50307 0.0
H859 H 0.21462 0.15886 0.6148 0.0
H860 H 0.22018 0.15908 0.49974 0.0
S861 S 0.31845 0.14438 0.58966 0.0
N862 N 0.29749 0.14699 0.64639 0.0
N863 N 0.30339 0.14737 0.52172 0.0
C864 C 0.28005 0.15081 0.54351 0.0
C865 C 0.27685 0.15043 0.61083 0.0
C866 C 0.61462 0.52223 0.28986 0.0
C867 C 0.60169 0.50594 0.25033 0.0
C868 C 0.61413 0.51942 0.35602 0.0
C869 C 0.60041 0.50042 0.38454 0.0
H870 H 0.62543 0.53702 0.26937 0.0
H871 H 0.62487 0.53204 0.38477 0.0
S872 S 0.5613 0.4547 0.29987 0.0
N873 N 0.57374 0.47137 0.24245 0.0
N874 N 0.57213 0.4661 0.36729 0.0
C875 C 0.58672 0.48449 0.3449 0.0
C876 C 0.58756 0.48724 0.2775 0.0
C877 C 0.24286 0.87435 0.03826 0.0
C878 C 0.25215 0.85523 1.00039 0.0
C879 C 0.24456 0.87321 0.10468 0.0
C880 C 0.25576 0.85297 0.13475 0.0
H881 H 0.23412 0.89018 0.01636 0.0
H882 H 0.23763 0.88854 0.13246 0.0
S883 S 0.28127 0.79749 0.0551 0.0
N884 N 0.27151 0.81507 0.99602 0.0
N885 N 0.27521 0.81285 0.12131 0.0
C886 C 0.2647 0.83351 0.0969 0.0
C887 C 0.26274 0.83465 0.02938 0.0
C888 C 0.59948 0.0219 0.77891 0.0
C889 C 0.60167 0.99828 0.75262 0.0
C890 C 0.59921 0.02524 0.84496 0.0
C891 C 0.60166 0.00511 0.88675 0.0
H892 H 0.59786 0.03787 0.74827 0.0
H893 H 0.59764 0.04382 0.86332 0.0
S894 S 0.60866 0.93953 0.84092 0.0
N895 N 0.60656 0.95443 0.77254 0.0
N896 N 0.60651 0.96076 0.89706 0.0
C897 C 0.60399 0.98138 0.86092 0.0
C898 C 0.60384 0.97795 0.79366 0.0
C899 C 0.25356 0.3771 0.10403 0.0
C900 C 0.25281 0.35498 0.13848 0.0
C901 C 0.25474 0.37685 0.03744 0.0
C902 C 0.25575 0.35449 0.00403 0.0
H903 H 0.25254 0.39463 0.12858 0.0
H904 H 0.25532 0.3942 0.01199 0.0
S905 S 0.25507 0.29176 0.07277 0.0
N906 N 0.25311 0.31029 0.13512 0.0
N907 N 0.25659 0.30985 0.00952 0.0
C908 C 0.25554 0.3323 0.03799 0.0
C909 C 0.25368 0.33254 0.10558 0.0
C910 C 0.90549 0.98067 0.34801 0.0
C911 C 0.90193 1.0009 0.38903 0.0
C912 C 0.90508 0.98359 0.28189 0.0
C913 C 0.90161 0.0069 0.25492 0.0
H914 H 0.90824 0.96233 0.36702 0.0
H915 H 0.9078 0.96761 0.25176 0.0
S916 S 0.89071 0.06559 0.34082 0.0
N917 N 0.89416 0.04489 0.39778 0.0
N918 N 0.89383 0.05045 0.27302 0.0
C919 C 0.89799 0.02729 0.2951 0.0
C920 C 0.89801 0.02426 0.36241 0.0
C921 C 0.24681 0.63264 0.60283 0.0
C922 C 0.25459 0.65414 0.63414 0.0
C923 C 0.24535 0.63181 0.53634 0.0
C924 C 0.2513 0.65255 0.49972 0.0
H925 H 0.24233 0.61623 0.62978 0.0
H926 H 0.23914 0.61502 0.51346 0.0
S927 S 0.27134 0.71349 0.55864 0.0
N928 N 0.26789 0.6967 0.62377 0.0
N929 N 0.26421 0.69528 0.49826 0.0
C930 C 0.25863 0.67424 0.53018 0.0
C931 C 0.26058 0.67499 0.59776 0.0
C932 C 0.40414 0.97947 0.29262 0.0
C933 C 0.40052 0.99966 0.25153 0.0
C934 C 0.40379 0.98248 0.35878 0.0
C935 C 0.40033 0.00582 0.38566 0.0
H936 H 0.40688 0.96113 0.27361 0.0
H937 H 0.40656 0.96654 0.389 0.0
S938 S 0.38934 0.06442 0.29953 0.0
N939 N 0.39276 0.04365 0.24267 0.0
N940 N 0.39252 0.04934 0.36735 0.0
C941 C 0.39667 0.02615 0.34537 0.0
C942 C 0.39663 0.02305 0.27809 0.0
C943 C 0.73269 0.65714 0.09457 0.0
C944 C 0.75276 0.65397 0.13628 0.0
C945 C 0.73606 0.65739 0.0285 0.0
C946 C 0.75966 0.65504 0.00214 0.0
H947 H 0.71412 0.65889 0.11297 0.0
H948 H 0.72013 0.65956 0.9979 0.0
S949 S 0.81826 0.64616 0.09017 0.0
N950 N 0.79703 0.64822 0.14636 0.0
N951 N 0.80342 0.64915 0.0219 0.0
C952 C 0.77994 0.65212 0.04311 0.0
C953 C 0.77647 0.65144 0.11034 0.0
C954 C 0.09985 0.98273 0.84547 0.0
C955 C 0.10341 1.00291 0.88666 0.0
C956 C 0.10022 0.98571 0.77936 0.0
C957 C 0.10366 0.00902 0.75242 0.0
H958 H 0.09723 0.96434 0.86431 0.0
H959 H 0.09761 0.96972 0.7492 0.0
S960 S 0.11436 0.06769 0.8386 0.0
N961 N 0.11096 0.04694 0.89547 0.0
N962 N 0.11126 0.05258 0.77076 0.0
C963 C 0.10713 0.0294 0.79273 0.0
C964 C 0.10713 0.02633 0.86006 0.0
C965 C 0.77446 0.34901 0.59835 0.0
C966 C 0.75419 0.35219 0.63949 0.0
C967 C 0.77149 0.34932 0.53225 0.0
C968 C 0.7481 0.35233 0.50528 0.0
H969 H 0.7929 0.34674 0.61722 0.0
H970 H 0.78755 0.34702 0.50212 0.0
S971 S 0.68918 0.36188 0.59145 0.0
N972 N 0.71 0.35888 0.64832 0.0
N973 N 0.70437 0.35909 0.52362 0.0
C974 C 0.72764 0.35541 0.54557 0.0
C975 C 0.7307 0.35547 0.61291 0.0
C976 C 0.16519 0.42729 0.16946 0.0
C977 C 0.14246 0.41854 0.14622 0.0
C978 C 0.17898 0.41392 0.21455 0.0
C979 C 0.17054 0.39131 0.23937 0.0
H980 H 0.17242 0.44473 0.15289 0.0
H981 H 0.19655 0.42133 0.2296 0.0
S982 S 0.11169 0.36055 0.19631 0.0
N983 N 0.11194 0.38585 0.15285 0.0
N984 N 0.13752 0.36104 0.23766 0.0
C985 C 0.14765 0.38252 0.21722 0.0
C986 C 0.13377 0.39597 0.17068 0.0
C987 C 0.8436 0.92785 0.4684 0.0
C988 C 0.86637 0.91944 0.49227 0.0
C989 C 0.83004 0.9141 0.42368 0.0
C990 C 0.83871 0.8914 0.39997 0.0
H991 H 0.83618 0.94535 0.48402 0.0
H992 H 0.81246 0.92132 0.40796 0.0
S993 S 0.89737 0.86101 0.4464 0.0
N994 N 0.89695 0.8867 0.48835 0.0
N995 N 0.87173 0.86115 0.40426 0.0
C996 C 0.86153 0.88282 0.42313 0.0
C997 C 0.87521 0.89668 0.46926 0.0
C998 C 0.36954 0.60655 0.67427 0.0
C999 C 0.36077 0.58426 0.64845 0.0
C1000 C 0.35573 0.62007 0.71894 0.0
C1001 C 0.33237 0.61208 0.73975 0.0
H1002 H 0.3875 0.6135 0.66086 0.0
H1003 H 0.36336 0.63721 0.73642 0.0
S1004 S 0.3007 0.555 0.68671 0.0
N1005 N 0.32702 0.55483 0.6473 0.0
N1006 N 0.30106 0.58026 0.73046 0.0
C1007 C 0.32331 0.58984 0.71421 0.0
C1008 C 0.33745 0.57599 0.66887 0.0
C1009 C 0.67777 0.08996 0.91561 0.0
C1010 C 0.67013 0.11347 0.8951 0.0
C1011 C 0.66412 0.0764 0.96064 0.0
C1012 C 0.64239 0.08586 0.98819 0.0
H1013 H 0.69455 0.08194 0.8969 0.0
H1014 H 0.67063 0.05823 0.97356 0.0
S1015 S 0.61481 0.14705 0.95315 0.0
N1016 N 0.63949 0.14581 0.90735 0.0
N1017 N 0.61421 0.12069 0.99211 0.0
C1018 C 0.63474 0.10952 0.96878 0.0
C1019 C 0.64843 0.12316 0.92226 0.0
C1020 C 0.14857 0.61799 0.41993 0.0
C1021 C 0.1721 0.61037 0.39945 0.0
C1022 C 0.13495 0.60432 0.46459 0.0
C1023 C 0.14406 0.58222 0.49071 0.0
H1024 H 0.14064 0.63493 0.40214 0.0
H1025 H 0.11684 0.61098 0.4777 0.0
S1026 S 0.20477 0.55402 0.45389 0.0
N1027 N 0.20403 0.57916 0.40976 0.0
N1028 N 0.17835 0.55342 0.49281 0.0
C1029 C 0.16757 0.57432 0.47073 0.0
C1030 C 0.18154 0.58834 0.42542 0.0
C1031 C 0.66534 0.92857 0.66886 0.0
C1032 C 0.64206 0.92056 0.64779 0.0
C1033 C 0.67899 0.91507 0.71394 0.0
C1034 C 0.66988 0.89308 0.74088 0.0
H1035 H 0.67315 0.94546 0.65037 0.0
H1036 H 0.69704 0.92185 0.72708 0.0
S1037 S 0.60909 0.86484 0.70535 0.0
N1038 N 0.61004 0.88955 0.65971 0.0
N1039 N 0.63545 0.86449 0.74446 0.0
C1040 C 0.64635 0.88515 0.72131 0.0
C1041 C 0.63258 0.89873 0.6748 0.0
C1042 C 0.35662 0.38781 0.92084 0.0
C1043 C 0.33327 0.39577 0.89984 0.0
C1044 C 0.37006 0.40105 0.96679 0.0
C1045 C 0.3609 0.42299 0.99376 0.0
H1046 H 0.3645 0.37091 0.90254 0.0
H1047 H 0.38806 0.39421 0.98022 0.0
S1048 S 0.30077 0.45208 0.95533 0.0
N1049 N 0.30161 0.42725 0.91003 0.0
N1050 N 0.32687 0.4521 0.99561 0.0
C1051 C 0.33762 0.43125 0.97305 0.0
C1052 C 0.32387 0.41771 0.92638 0.0
C1053 C 0.8564 0.12059 0.214 0.0
C1054 C 0.83414 0.11176 0.24 0.0
C1055 C 0.86982 0.10691 0.16882 0.0
C1056 C 0.86173 0.08365 0.1476 0.0
H1057 H 0.86337 0.1385 0.22766 0.0
H1058 H 0.88695 0.11454 0.15126 0.0
S1059 S 0.80484 0.05178 0.20153 0.0
N1060 N 0.80478 0.07798 0.24137 0.0
N1061 N 0.82994 0.05231 0.15713 0.0
C1062 C 0.83956 0.07452 0.17348 0.0
C1063 C 0.82585 0.0885 0.21942 0.0
C1064 C 0.8405 0.57995 0.97329 0.0
C1065 C 0.86464 0.58664 0.99077 0.0
C1066 C 0.82707 0.59351 0.92782 0.0
C1067 C 0.8373 0.61416 0.89679 0.0
H1068 H 0.83186 0.56403 0.99485 0.0
H1069 H 0.80838 0.58783 0.91748 0.0
S1070 S 0.90046 0.63862 0.92246 0.0
N1071 N 0.8985 0.61499 0.97157 0.0
N1072 N 0.87359 0.64009 0.88597 0.0
C1073 C 0.86161 0.62077 0.91306 0.0
C1074 C 0.87514 0.60719 0.96003 0.0
C1075 C 0.13822 0.10807 0.66664 0.0
C1076 C 0.14615 0.08468 0.64598 0.0
C1077 C 0.15148 0.12161 0.71228 0.0
C1078 C 0.17346 0.11254 0.73925 0.0
H1079 H 0.12132 0.11593 0.64828 0.0
H1080 H 0.14462 0.13963 0.72546 0.0
S1081 S 0.20225 0.05213 0.70263 0.0
N1082 N 0.17745 0.0529 0.65721 0.0
N1083 N 0.20241 0.07841 0.74216 0.0
C1084 C 0.18162 0.08915 0.71923 0.0
C1085 C 0.16802 0.07527 0.67291 0.0
C1086 C 0.6495 0.38669 0.42179 0.0
C1087 C 0.67237 0.39507 0.3985 0.0
C1088 C 0.63597 0.40021 0.467 0.0
C1089 C 0.64449 0.42293 0.49085 0.0
H1090 H 0.64208 0.36924 0.40591 0.0
H1091 H 0.61837 0.39294 0.48232 0.0
S1092 S 0.70336 0.4532 0.44616 0.0
N1093 N 0.70306 0.4276 0.40371 0.0
N1094 N 0.67754 0.45311 0.48773 0.0
C1095 C 0.66735 0.43156 0.4681 0.0
C1096 C 0.68125 0.41767 0.42229 0.0
C1097 C 0.34174 0.92719 0.17086 0.0
C1098 C 0.36418 0.91857 0.14533 0.0
C1099 C 0.32826 0.91332 0.21548 0.0
C1100 C 0.33667 0.89028 0.2374 0.0
H1101 H 0.33455 0.94496 0.15674 0.0
H1102 H 0.31096 0.92074 0.23264 0.0
S1103 S 0.39432 0.85913 0.18577 0.0
N1104 N 0.3941 0.8852 0.14548 0.0
N1105 N 0.36901 0.8594 0.22935 0.0
C1106 C 0.35913 0.88144 0.21243 0.0
C1107 C 0.37273 0.89544 0.16642 0.0
C1108 C 0.8556 0.38648 0.71695 0.0
C1109 C 0.83285 0.39484 0.74102 0.0
C1110 C 0.86894 0.40007 0.67166 0.0
C1111 C 0.86037 0.42287 0.64849 0.0
H1112 H 0.86307 0.36897 0.73223 0.0
H1113 H 0.88644 0.39274 0.65564 0.0
S1114 S 0.8019 0.45333 0.69606 0.0
N1115 N 0.80227 0.42756 0.73776 0.0
N1116 N 0.82752 0.45325 0.65359 0.0
C1117 C 0.83768 0.43156 0.67226 0.0
C1118 C 0.82394 0.41758 0.71817 0.0
C1119 C 0.37038 0.10624 0.46732 0.0
C1120 C 0.36166 0.08347 0.49026 0.0
C1121 C 0.35739 0.11971 0.42102 0.0
C1122 C 0.33493 0.11119 0.39563 0.0
H1123 H 0.38769 0.11362 0.48432 0.0
H1124 H 0.36486 0.13727 0.40607 0.0
S1125 S 0.30386 0.05263 0.43901 0.0
N1126 N 0.32898 0.05295 0.4833 0.0
N1127 N 0.30455 0.07832 0.39707 0.0
C1128 C 0.32593 0.08846 0.41813 0.0
C1129 C 0.33923 0.07466 0.46515 0.0
C1130 C 0.63703 0.60722 0.16883 0.0
C1131 C 0.64463 0.58371 0.14821 0.0
C1132 C 0.65067 0.62076 0.21369 0.0
C1133 C 0.67274 0.61159 0.23987 0.0
H1134 H 0.62009 0.6152 0.15101 0.0
H1135 H 0.64403 0.63886 0.22692 0.0
S1136 S 0.7009 0.55092 0.20274 0.0
N1137 N 0.67578 0.55174 0.15847 0.0
N1138 N 0.70151 0.57729 0.24185 0.0
C1139 C 0.68063 0.58812 0.21972 0.0
C1140 C 0.66662 0.57421 0.17425 0.0
C1141 C 0.15088 0.88818 0.91724 0.0
C1142 C 0.17396 0.89651 0.89535 0.0
C1143 C 0.13719 0.90152 0.96248 0.0
C1144 C 0.14578 0.92398 0.98778 0.0
H1145 H 0.14343 0.87089 0.9003 0.0
H1146 H 0.11946 0.89427 0.97682 0.0
S1147 S 0.20505 0.95417 0.94655 0.0
N1148 N 0.20481 0.92886 0.90299 0.0
N1149 N 0.17899 0.95398 0.98714 0.0
C1150 C 0.16878 0.93263 0.96617 0.0
C1151 C 0.18283 0.91895 0.92027 0.0
loop_
_geom_bond_atom_site_label_1
_geom_bond_atom_site_label_2
_geom_bond_distance
_geom_bond_site_symmetry_2
_ccdc_geom_bond_type
C0 O2 1.247 . S
C0 O4 1.258 . S
C1 O8 1.247 . S
C1 O9 1.258 . S
O2 C0 1.247 . S
O2 Zn3 2.028 . S
Zn3 O2 2.028 . S
Zn3 O7 2.035 1_554 S
Zn3 O9 2.035 . S
Zn3 O10 2.028 . S
O4 C0 1.258 . S
O4 Zn5 2.035 . S
Zn5 O4 2.035 . S
Zn5 O6 2.028 1_554 S
Zn5 O8 2.028 . S
Zn5 O11 2.035 . S
O6 Zn5 2.028 1_556 S
O6 C12 1.247 . S
O7 Zn3 2.035 1_556 S
O7 C12 1.258 . S
O8 C1 1.247 . S
O8 Zn5 2.028 . S
O9 C1 1.258 . S
O9 Zn3 2.035 . S
O10 Zn3 2.028 . S
O10 C13 1.247 . S
O11 Zn5 2.035 . S
O11 C13 1.258 . S
C12 O6 1.247 . S
C12 O7 1.258 . S
C13 O10 1.247 . S
C13 O11 1.258 . S
C14 O16 1.247 . S
C14 O18 1.258 . S
C15 O22 1.247 . S
C15 O23 1.258 . S
O16 C14 1.247 . S
O16 Zn17 2.028 . S
Zn17 O16 2.028 . S
Zn17 O21 2.035 . S
Zn17 O23 2.035 . S
Zn17 O24 2.028 . S
O18 C14 1.258 . S
O18 Zn19 2.035 . S
Zn19 O18 2.035 . S
Zn19 O20 2.028 . S
Zn19 O22 2.028 . S
Zn19 O25 2.035 . S
O20 Zn19 2.028 . S
O20 C26 1.247 . S
O21 Zn17 2.035 . S
O21 C26 1.258 . S
O22 C15 1.247 . S
O22 Zn19 2.028 . S
O23 C15 1.258 . S
O23 Zn17 2.035 . S
O24 Zn17 2.028 . S
O24 C27 1.247 . S
O25 Zn19 2.035 . S
O25 C27 1.258 . S
C26 O20 1.247 . S
C26 O21 1.258 . S
C27 O24 1.247 . S
C27 O25 1.258 . S
C28 O30 1.247 . S
C28 O32 1.258 . S
C29 O36 1.247 . S
C29 O37 1.258 . S
O30 C28 1.247 . S
O30 Zn31 2.028 . S
Zn31 O30 2.028 . S
Zn31 O35 2.035 . S
Zn31 O37 2.035 . S
Zn31 O38 2.028 . S
O32 C28 1.258 . S
O32 Zn33 2.035 . S
Zn33 O32 2.035 . S
Zn33 O34 2.028 . S
Zn33 O36 2.028 . S
Zn33 O39 2.035 . S
O34 Zn33 2.028 . S
O34 C40 1.247 . S
O35 Zn31 2.035 . S
O35 C40 1.258 . S
O36 C29 1.247 . S
O36 Zn33 2.028 . S
O37 C29 1.258 . S
O37 Zn31 2.035 . S
O38 Zn31 2.028 . S
O38 C41 1.247 . S
O39 Zn33 2.035 . S
O39 C41 1.258 . S
C40 O34 1.247 . S
C40 O35 1.258 . S
C41 O38 1.247 . S
C41 O39 1.258 . S
C42 O44 1.247 . S
C42 O46 1.258 . S
C43 O50 1.247 . S
C43 O51 1.258 . S
O44 C42 1.247 . S
O44 Zn45 2.028 . S
Zn45 O44 2.028 . S
Zn45 O49 2.035 . S
Zn45 O51 2.035 . S
Zn45 O52 2.028 . S
O46 C42 1.258 . S
O46 Zn47 2.035 . S
Zn47 O46 2.035 . S
Zn47 O48 2.028 . S
Zn47 O50 2.028 . S
Zn47 O53 2.035 . S
O48 Zn47 2.028 . S
O48 C54 1.247 . S
O49 Zn45 2.035 . S
O49 C54 1.258 . S
O50 C43 1.247 . S
O50 Zn47 2.028 . S
O51 C43 1.258 . S
O51 Zn45 2.035 . S
O52 Zn45 2.028 . S
O52 C55 1.247 . S
O53 Zn47 2.035 . S
O53 C55 1.258 . S
C54 O48 1.247 . S
C54 O49 1.258 . S
C55 O52 1.247 . S
C55 O53 1.258 . S
C56 O58 1.247 . S
C56 O60 1.258 . S
C57 O64 1.247 . S
C57 O65 1.258 . S
O58 C56 1.247 . S
O58 Zn59 2.028 . S
Zn59 O58 2.028 . S
Zn59 O63 2.035 . S
Zn59 O65 2.035 . S
Zn59 O66 2.028 . S
O60 C56 1.258 . S
O60 Zn61 2.035 . S
Zn61 O60 2.035 . S
Zn61 O62 2.028 . S
Zn61 O64 2.028 . S
Zn61 O67 2.035 . S
O62 Zn61 2.028 . S
O62 C68 1.247 . S
O63 Zn59 2.035 . S
O63 C68 1.258 . S
O64 C57 1.247 . S
O64 Zn61 2.028 . S
O65 C57 1.258 . S
O65 Zn59 2.035 . S
O66 Zn59 2.028 . S
O66 C69 1.247 . S
O67 Zn61 2.035 . S
O67 C69 1.258 . S
C68 O62 1.247 . S
C68 O63 1.258 . S
C69 O66 1.247 . S
C69 O67 1.258 . S
C70 O72 1.247 . S
C70 O74 1.258 . S
C71 O78 1.247 . S
C71 O79 1.258 . S
O72 C70 1.247 . S
O72 Zn73 2.028 . S
Zn73 O72 2.028 . S
Zn73 O77 2.035 . S
Zn73 O79 2.035 . S
Zn73 O80 2.028 . S
O74 C70 1.258 . S
O74 Zn75 2.035 . S
Zn75 O74 2.035 . S
Zn75 O76 2.028 . S
Zn75 O78 2.028 . S
Zn75 O81 2.035 . S
O76 Zn75 2.028 . S
O76 C82 1.247 . S
O77 Zn73 2.035 . S
O77 C82 1.258 . S
O78 C71 1.247 . S
O78 Zn75 2.028 . S
O79 C71 1.258 . S
O79 Zn73 2.035 . S
O80 Zn73 2.028 . S
O80 C83 1.247 . S
O81 Zn75 2.035 . S
O81 C83 1.258 . S
C82 O76 1.247 . S
C82 O77 1.258 . S
C83 O80 1.247 . S
C83 O81 1.258 . S
C84 O86 1.247 . S
C84 O88 1.258 . S
C85 O92 1.247 . S
C85 O93 1.258 . S
O86 C84 1.247 . S
O86 Zn87 2.028 . S
Zn87 O86 2.028 . S
Zn87 O91 2.035 . S
Zn87 O93 2.035 . S
Zn87 O94 2.028 1_554 S
O88 C84 1.258 . S
O88 Zn89 2.035 . S
Zn89 O88 2.035 . S
Zn89 O90 2.028 . S
Zn89 O92 2.028 . S
Zn89 O95 2.035 1_554 S
O90 Zn89 2.028 . S
O90 C96 1.247 . S
O91 Zn87 2.035 . S
O91 C96 1.258 . S
O92 C85 1.247 . S
O92 Zn89 2.028 . S
O93 C85 1.258 . S
O93 Zn87 2.035 . S
O94 Zn87 2.028 1_556 S
O94 C97 1.247 . S
O95 Zn89 2.035 1_556 S
O95 C97 1.258 . S
C96 O90 1.247 . S
C96 O91 1.258 . S
C97 O94 1.247 . S
C97 O95 1.258 . S
C98 O100 1.247 . S
C98 O102 1.258 . S
C99 O106 1.247 . S
C99 O107 1.258 . S
O100 C98 1.247 . S
O100 Zn101 2.028 . S
Zn101 O100 2.028 . S
Zn101 O105 2.035 . S
Zn101 O107 2.035 . S
Zn101 O108 2.028 . S
O102 C98 1.258 . S
O102 Zn103 2.035 . S
Zn103 O102 2.035 . S
Zn103 O104 2.028 . S
Zn103 O106 2.028 . S
Zn103 O109 2.035 . S
O104 Zn103 2.028 . S
O104 C110 1.247 . S
O105 Zn101 2.035 . S
O105 C110 1.258 . S
O106 C99 1.247 . S
O106 Zn103 2.028 . S
O107 C99 1.258 . S
O107 Zn101 2.035 . S
O108 Zn101 2.028 . S
O108 C111 1.247 . S
O109 Zn103 2.035 . S
O109 C111 1.258 . S
C110 O104 1.247 . S
C110 O105 1.258 . S
C111 O108 1.247 . S
C111 O109 1.258 . S
C112 O114 1.247 . S
C112 O116 1.258 . S
C113 O120 1.247 . S
C113 O121 1.258 . S
O114 C112 1.247 . S
O114 Zn115 2.028 1_556 S
Zn115 O114 2.028 1_554 S
Zn115 O119 2.035 . S
Zn115 O121 2.035 . S
Zn115 O122 2.028 . S
O116 C112 1.258 . S
O116 Zn117 2.035 1_556 S
Zn117 O116 2.035 1_554 S
Zn117 O118 2.028 . S
Zn117 O120 2.028 . S
Zn117 O123 2.035 . S
O118 Zn117 2.028 . S
O118 C124 1.247 . S
O119 Zn115 2.035 . S
O119 C124 1.258 . S
O120 C113 1.247 . S
O120 Zn117 2.028 . S
O121 C113 1.258 . S
O121 Zn115 2.035 . S
O122 Zn115 2.028 . S
O122 C125 1.247 . S
O123 Zn117 2.035 . S
O123 C125 1.258 . S
C124 O118 1.247 . S
C124 O119 1.258 . S
C125 O122 1.247 . S
C125 O123 1.258 . S
C126 O128 1.247 . S
C126 O130 1.258 . S
C127 O134 1.247 . S
C127 O135 1.258 . S
O128 C126 1.247 . S
O128 Zn129 2.028 . S
Zn129 O128 2.028 . S
Zn129 O133 2.035 . S
Zn129 O135 2.035 . S
Zn129 O136 2.028 . S
O130 C126 1.258 . S
O130 Zn131 2.035 . S
Zn131 O130 2.035 . S
Zn131 O132 2.028 . S
Zn131 O134 2.028 . S
Zn131 O137 2.035 . S
O132 Zn131 2.028 . S
O132 C138 1.247 . S
O133 Zn129 2.035 . S
O133 C138 1.258 . S
O134 C127 1.247 . S
O134 Zn131 2.028 . S
O135 C127 1.258 . S
O135 Zn129 2.035 . S
O136 Zn129 2.028 . S
O136 C139 1.247 . S
O137 Zn131 2.035 . S
O137 C139 1.258 . S
C138 O132 1.247 . S
C138 O133 1.258 . S
C139 O136 1.247 . S
C139 O137 1.258 . S
C140 O142 1.247 . S
C140 O144 1.258 . S
C141 O148 1.247 . S
C141 O149 1.258 . S
O142 C140 1.247 . S
O142 Zn143 2.028 . S
Zn143 O142 2.028 . S
Zn143 O147 2.035 . S
Zn143 O149 2.035 . S
Zn143 O150 2.028 . S
O144 C140 1.258 . S
O144 Zn145 2.035 . S
Zn145 O144 2.035 . S
Zn145 O146 2.028 . S
Zn145 O148 2.028 . S
Zn145 O151 2.035 . S
O146 Zn145 2.028 . S
O146 C152 1.247 . S
O147 Zn143 2.035 . S
O147 C152 1.258 . S
O148 C141 1.247 . S
O148 Zn145 2.028 . S
O149 C141 1.258 . S
O149 Zn143 2.035 . S
O150 Zn143 2.028 . S
O150 C153 1.247 . S
O151 Zn145 2.035 . S
O151 C153 1.258 . S
C152 O146 1.247 . S
C152 O147 1.258 . S
C153 O150 1.247 . S
C153 O151 1.258 . S
C154 O156 1.247 . S
C154 O158 1.258 . S
C155 O162 1.247 . S
C155 O163 1.258 . S
O156 C154 1.247 . S
O156 Zn157 2.028 . S
Zn157 O156 2.028 . S
Zn157 O161 2.035 . S
Zn157 O163 2.035 . S
Zn157 O164 2.028 . S
O158 C154 1.258 . S
O158 Zn159 2.035 . S
Zn159 O158 2.035 . S
Zn159 O160 2.028 . S
Zn159 O162 2.028 . S
Zn159 O165 2.035 . S
O160 Zn159 2.028 . S
O160 C166 1.247 . S
O161 Zn157 2.035 . S
O161 C166 1.258 . S
O162 C155 1.247 . S
O162 Zn159 2.028 . S
O163 C155 1.258 . S
O163 Zn157 2.035 . S
O164 Zn157 2.028 . S
O164 C167 1.247 . S
O165 Zn159 2.035 . S
O165 C167 1.258 . S
C166 O160 1.247 . S
C166 O161 1.258 . S
C167 O164 1.247 . S
C167 O165 1.258 . S
C168 O170 1.247 . S
C168 O172 1.258 . S
C169 O176 1.247 . S
C169 O177 1.258 . S
O170 C168 1.247 . S
O170 Zn171 2.028 . S
Zn171 O170 2.028 . S
Zn171 O175 2.035 . S
Zn171 O177 2.035 . S
Zn171 O178 2.028 . S
O172 C168 1.258 . S
O172 Zn173 2.035 . S
Zn173 O172 2.035 . S
Zn173 O174 2.028 . S
Zn173 O176 2.028 . S
Zn173 O179 2.035 . S
O174 Zn173 2.028 . S
O174 C180 1.247 . S
O175 Zn171 2.035 . S
O175 C180 1.258 . S
O176 C169 1.247 . S
O176 Zn173 2.028 . S
O177 C169 1.258 . S
O177 Zn171 2.035 . S
O178 Zn171 2.028 . S
O178 C181 1.247 . S
O179 Zn173 2.035 . S
O179 C181 1.258 . S
C180 O174 1.247 . S
C180 O175 1.258 . S
C181 O178 1.247 . S
C181 O179 1.258 . S
C182 O184 1.247 . S
C182 O186 1.258 . S
C183 O190 1.247 . S
C183 O191 1.258 . S
O184 C182 1.247 . S
O184 Zn185 2.028 . S
Zn185 O184 2.028 . S
Zn185 O189 2.035 . S
Zn185 O191 2.035 . S
Zn185 O192 2.028 . S
O186 C182 1.258 . S
O186 Zn187 2.035 . S
Zn187 O186 2.035 . S
Zn187 O188 2.028 . S
Zn187 O190 2.028 . S
Zn187 O193 2.035 . S
O188 Zn187 2.028 . S
O188 C194 1.247 . S
O189 Zn185 2.035 . S
O189 C194 1.258 . S
O190 C183 1.247 . S
O190 Zn187 2.028 . S
O191 C183 1.258 . S
O191 Zn185 2.035 . S
O192 Zn185 2.028 . S
O192 C195 1.247 . S
O193 Zn187 2.035 . S
O193 C195 1.258 . S
C194 O188 1.247 . S
C194 O189 1.258 . S
C195 O192 1.247 . S
C195 O193 1.258 . S
C196 O198 1.247 . S
C196 O200 1.258 . S
C197 O204 1.247 . S
C197 O205 1.258 . S
O198 C196 1.247 . S
O198 Zn199 2.028 1_556 S
Zn199 O198 2.028 1_554 S
Zn199 O203 2.035 . S
Zn199 O205 2.035 . S
Zn199 O206 2.028 . S
O200 C196 1.258 . S
O200 Zn201 2.035 1_556 S
Zn201 O200 2.035 1_554 S
Zn201 O202 2.028 . S
Zn201 O204 2.028 . S
Zn201 O207 2.035 . S
O202 Zn201 2.028 . S
O202 C208 1.247 . S
O203 Zn199 2.035 . S
O203 C208 1.258 . S
O204 C197 1.247 . S
O204 Zn201 2.028 . S
O205 C197 1.258 . S
O205 Zn199 2.035 . S
O206 Zn199 2.028 . S
O206 C209 1.247 . S
O207 Zn201 2.035 . S
O207 C209 1.258 . S
C208 O202 1.247 . S
C208 O203 1.258 . S
C209 O206 1.247 . S
C209 O207 1.258 . S
C210 O212 1.247 . S
C210 O214 1.258 . S
C211 O218 1.247 . S
C211 O219 1.258 . S
O212 C210 1.247 . S
O212 Zn213 2.028 . S
Zn213 O212 2.028 . S
Zn213 O217 2.035 . S
Zn213 O219 2.035 . S
Zn213 O220 2.028 . S
O214 C210 1.258 . S
O214 Zn215 2.035 . S
Zn215 O214 2.035 . S
Zn215 O216 2.028 . S
Zn215 O218 2.028 . S
Zn215 O221 2.035 . S
O216 Zn215 2.028 . S
O216 C222 1.247 . S
O217 Zn213 2.035 . S
O217 C222 1.258 . S
O218 C211 1.247 . S
O218 Zn215 2.028 . S
O219 C211 1.258 . S
O219 Zn213 2.035 . S
O220 Zn213 2.028 . S
O220 C223 1.247 . S
O221 Zn215 2.035 . S
O221 C223 1.258 . S
C222 O216 1.247 . S
C222 O217 1.258 . S
C223 O220 1.247 . S
C223 O221 1.258 . S
C224 O226 1.247 . S
C224 O228 1.258 1_545 S
C225 O232 1.247 . S
C225 O233 1.258 . S
O226 C224 1.247 . S
O226 Zn227 2.028 . S
Zn227 O226 2.028 . S
Zn227 O231 2.035 . S
Zn227 O233 2.035 1_545 S
Zn227 O234 2.028 . S
O228 C224 1.258 1_565 S
O228 Zn229 2.035 . S
Zn229 O228 2.035 . S
Zn229 O230 2.028 . S
Zn229 O232 2.028 . S
Zn229 O235 2.035 . S
O230 Zn229 2.028 . S
O230 C236 1.247 . S
O231 Zn227 2.035 . S
O231 C236 1.258 1_545 S
O232 C225 1.247 . S
O232 Zn229 2.028 . S
O233 C225 1.258 . S
O233 Zn227 2.035 1_565 S
O234 Zn227 2.028 . S
O234 C237 1.247 1_545 S
O235 Zn229 2.035 . S
O235 C237 1.258 . S
C236 O230 1.247 . S
C236 O231 1.258 1_565 S
C237 O234 1.247 1_565 S
C237 O235 1.258 . S
C238 O240 1.247 . S
C238 O242 1.258 . S
C239 O246 1.247 . S
C239 O247 1.258 . S
O240 C238 1.247 . S
O240 Zn241 2.028 . S
Zn241 O240 2.028 . S
Zn241 O245 2.035 . S
Zn241 O247 2.035 . S
Zn241 O248 2.028 . S
O242 C238 1.258 . S
O242 Zn243 2.035 . S
Zn243 O242 2.035 . S
Zn243 O244 2.028 . S
Zn243 O246 2.028 . S
Zn243 O249 2.035 . S
O244 Zn243 2.028 . S
O244 C250 1.247 . S
O245 Zn241 2.035 . S
O245 C250 1.258 . S
O246 C239 1.247 . S
O246 Zn243 2.028 . S
O247 C239 1.258 . S
O247 Zn241 2.035 . S
O248 Zn241 2.028 . S
O248 C251 1.247 . S
O249 Zn243 2.035 . S
O249 C251 1.258 . S
C250 O244 1.247 . S
C250 O245 1.258 . S
C251 O248 1.247 . S
C251 O249 1.258 . S
C252 O254 1.247 . S
C252 O256 1.258 1_545 S
C253 O260 1.247 1_545 S
C253 O261 1.258 . S
O254 C252 1.247 . S
O254 Zn255 2.028 1_556 S
Zn255 O254 2.028 1_554 S
Zn255 O259 2.035 . S
Zn255 O261 2.035 . S
Zn255 O262 2.028 . S
O256 C252 1.258 1_565 S
O256 Zn257 2.035 1_556 S
Zn257 O256 2.035 1_554 S
Zn257 O258 2.028 1_565 S
Zn257 O260 2.028 . S
Zn257 O263 2.035 . S
O258 Zn257 2.028 1_545 S
O258 C264 1.247 . S
O259 Zn255 2.035 . S
O259 C264 1.258 . S
O260 C253 1.247 1_565 S
O260 Zn257 2.028 . S
O261 C253 1.258 . S
O261 Zn255 2.035 . S
O262 Zn255 2.028 . S
O262 C265 1.247 1_545 S
O263 Zn257 2.035 . S
O263 C265 1.258 . S
C264 O258 1.247 . S
C264 O259 1.258 . S
C265 O262 1.247 1_565 S
C265 O263 1.258 . S
C266 O268 1.247 . S
C266 O270 1.258 . S
C267 O274 1.247 . S
C267 O275 1.258 . S
O268 C266 1.247 . S
O268 Zn269 2.028 . S
Zn269 O268 2.028 . S
Zn269 O273 2.035 . S
Zn269 O275 2.035 . S
Zn269 O276 2.028 . S
O270 C266 1.258 . S
O270 Zn271 2.035 . S
Zn271 O270 2.035 . S
Zn271 O272 2.028 . S
Zn271 O274 2.028 . S
Zn271 O277 2.035 . S
O272 Zn271 2.028 . S
O272 C278 1.247 . S
O273 Zn269 2.035 . S
O273 C278 1.258 . S
O274 C267 1.247 . S
O274 Zn271 2.028 . S
O275 C267 1.258 . S
O275 Zn269 2.035 . S
O276 Zn269 2.028 . S
O276 C279 1.247 . S
O277 Zn271 2.035 . S
O277 C279 1.258 . S
C278 O272 1.247 . S
C278 O273 1.258 . S
C279 O276 1.247 . S
C279 O277 1.258 . S
C280 O282 1.247 . S
C280 O284 1.258 1_565 S
C281 O288 1.247 . S
C281 O289 1.258 . S
O282 C280 1.247 . S
O282 Zn283 2.028 . S
Zn283 O282 2.028 . S
Zn283 O287 2.035 1_554 S
Zn283 O289 2.035 1_565 S
Zn283 O290 2.028 . S
O284 C280 1.258 1_545 S
O284 Zn285 2.035 . S
Zn285 O284 2.035 . S
Zn285 O286 2.028 1_554 S
Zn285 O288 2.028 . S
Zn285 O291 2.035 . S
O286 Zn285 2.028 1_556 S
O286 C292 1.247 . S
O287 Zn283 2.035 1_556 S
O287 C292 1.258 1_565 S
O288 C281 1.247 . S
O288 Zn285 2.028 . S
O289 C281 1.258 . S
O289 Zn283 2.035 1_545 S
O290 Zn283 2.028 . S
O290 C293 1.247 1_565 S
O291 Zn285 2.035 . S
O291 C293 1.258 . S
C292 O286 1.247 . S
C292 O287 1.258 1_545 S
C293 O290 1.247 1_545 S
C293 O291 1.258 . S
C294 O296 1.247 . S
C294 O298 1.258 . S
C295 O302 1.247 . S
C295 O303 1.258 . S
O296 C294 1.247 . S
O296 Zn297 2.028 . S
Zn297 O296 2.028 . S
Zn297 O301 2.035 . S
Zn297 O303 2.035 . S
Zn297 O304 2.028 . S
O298 C294 1.258 . S
O298 Zn299 2.035 . S
Zn299 O298 2.035 . S
Zn299 O300 2.028 . S
Zn299 O302 2.028 . S
Zn299 O305 2.035 . S
O300 Zn299 2.028 . S
O300 C306 1.247 . S
O301 Zn297 2.035 . S
O301 C306 1.258 . S
O302 C295 1.247 . S
O302 Zn299 2.028 . S
O303 C295 1.258 . S
O303 Zn297 2.035 . S
O304 Zn297 2.028 . S
O304 C307 1.247 . S
O305 Zn299 2.035 . S
O305 C307 1.258 . S
C306 O300 1.247 . S
C306 O301 1.258 . S
C307 O304 1.247 . S
C307 O305 1.258 . S
C308 O310 1.247 . S
C308 O312 1.258 1_565 S
C309 O316 1.247 1_565 S
C309 O317 1.258 . S
O310 C308 1.247 . S
O310 Zn311 2.028 . S
Zn311 O310 2.028 . S
Zn311 O315 2.035 . S
Zn311 O317 2.035 . S
Zn311 O318 2.028 . S
O312 C308 1.258 1_545 S
O312 Zn313 2.035 . S
Zn313 O312 2.035 . S
Zn313 O314 2.028 1_545 S
Zn313 O316 2.028 . S
Zn313 O319 2.035 . S
O314 Zn313 2.028 1_565 S
O314 C320 1.247 . S
O315 Zn311 2.035 . S
O315 C320 1.258 . S
O316 C309 1.247 1_545 S
O316 Zn313 2.028 . S
O317 C309 1.258 . S
O317 Zn311 2.035 . S
O318 Zn311 2.028 . S
O318 C321 1.247 1_565 S
O319 Zn313 2.035 . S
O319 C321 1.258 . S
C320 O314 1.247 . S
C320 O315 1.258 . S
C321 O318 1.247 1_545 S
C321 O319 1.258 . S
C322 O324 1.247 . S
C322 O326 1.258 . S
C323 O330 1.247 . S
C323 O331 1.258 . S
O324 C322 1.247 . S
O324 Zn325 2.028 . S
Zn325 O324 2.028 . S
Zn325 O329 2.035 . S
Zn325 O331 2.035 . S
Zn325 O332 2.028 . S
O326 C322 1.258 . S
O326 Zn327 2.035 . S
Zn327 O326 2.035 . S
Zn327 O328 2.028 . S
Zn327 O330 2.028 . S
Zn327 O333 2.035 . S
O328 Zn327 2.028 . S
O328 C334 1.247 . S
O329 Zn325 2.035 . S
O329 C334 1.258 . S
O330 C323 1.247 . S
O330 Zn327 2.028 . S
O331 C323 1.258 . S
O331 Zn325 2.035 . S
O332 Zn325 2.028 . S
O332 C335 1.247 . S
O333 Zn327 2.035 . S
O333 C335 1.258 . S
C334 O328 1.247 . S
C334 O329 1.258 . S
C335 O332 1.247 . S
C335 O333 1.258 . S
C336 O338 1.247 . S
C336 O340 1.258 . S
C337 O344 1.247 . S
C337 O345 1.258 1_565 S
O338 C336 1.247 . S
O338 Zn339 2.028 . S
Zn339 O338 2.028 . S
Zn339 O343 2.035 . S
Zn339 O345 2.035 . S
Zn339 O346 2.028 . S
O340 C336 1.258 . S
O340 Zn341 2.035 1_545 S
Zn341 O340 2.035 1_565 S
Zn341 O342 2.028 . S
Zn341 O344 2.028 . S
Zn341 O347 2.035 . S
O342 Zn341 2.028 . S
O342 C348 1.247 1_565 S
O343 Zn339 2.035 . S
O343 C348 1.258 . S
O344 C337 1.247 . S
O344 Zn341 2.028 . S
O345 C337 1.258 1_545 S
O345 Zn339 2.035 . S
O346 Zn339 2.028 . S
O346 C349 1.247 . S
O347 Zn341 2.035 . S
O347 C349 1.258 1_565 S
C348 O342 1.247 1_545 S
C348 O343 1.258 . S
C349 O346 1.247 . S
C349 O347 1.258 1_545 S
C350 O352 1.247 . S
C350 O354 1.258 . S
C351 O358 1.247 . S
C351 O359 1.258 . S
O352 C350 1.247 . S
O352 Zn353 2.028 . S
Zn353 O352 2.028 . S
Zn353 O357 2.035 . S
Zn353 O359 2.035 . S
Zn353 O360 2.028 . S
O354 C350 1.258 . S
O354 Zn355 2.035 . S
Zn355 O354 2.035 . S
Zn355 O356 2.028 . S
Zn355 O358 2.028 . S
Zn355 O361 2.035 . S
O356 Zn355 2.028 . S
O356 C362 1.247 . S
O357 Zn353 2.035 . S
O357 C362 1.258 . S
O358 C351 1.247 . S
O358 Zn355 2.028 . S
O359 C351 1.258 . S
O359 Zn353 2.035 . S
O360 Zn353 2.028 . S
O360 C363 1.247 . S
O361 Zn355 2.035 . S
O361 C363 1.258 . S
C362 O356 1.247 . S
C362 O357 1.258 . S
C363 O360 1.247 . S
C363 O361 1.258 . S
C364 O366 1.247 . S
C364 O368 1.258 . S
C365 O372 1.247 . S
C365 O373 1.258 1_545 S
O366 C364 1.247 . S
O366 Zn367 2.028 . S
Zn367 O366 2.028 . S
Zn367 O371 2.035 . S
Zn367 O373 2.035 . S
Zn367 O374 2.028 1_554 S
O368 C364 1.258 . S
O368 Zn369 2.035 1_565 S
Zn369 O368 2.035 1_545 S
Zn369 O370 2.028 . S
Zn369 O372 2.028 . S
Zn369 O375 2.035 1_554 S
O370 Zn369 2.028 . S
O370 C376 1.247 1_545 S
O371 Zn367 2.035 . S
O371 C376 1.258 . S
O372 C365 1.247 . S
O372 Zn369 2.028 . S
O373 C365 1.258 1_565 S
O373 Zn367 2.035 . S
O374 Zn367 2.028 1_556 S
O374 C377 1.247 . S
O375 Zn369 2.035 1_556 S
O375 C377 1.258 1_545 S
C376 O370 1.247 1_565 S
C376 O371 1.258 . S
C377 O374 1.247 . S
C377 O375 1.258 1_565 S
C378 O380 1.247 . S
C378 O382 1.258 . S
C379 O386 1.247 . S
C379 O387 1.258 . S
O380 C378 1.247 . S
O380 Zn381 2.028 . S
Zn381 O380 2.028 . S
Zn381 O385 2.035 . S
Zn381 O387 2.035 . S
Zn381 O388 2.028 . S
O382 C378 1.258 . S
O382 Zn383 2.035 . S
Zn383 O382 2.035 . S
Zn383 O384 2.028 . S
Zn383 O386 2.028 . S
Zn383 O389 2.035 . S
O384 Zn383 2.028 . S
O384 C390 1.247 . S
O385 Zn381 2.035 . S
O385 C390 1.258 . S
O386 C379 1.247 . S
O386 Zn383 2.028 . S
O387 C379 1.258 . S
O387 Zn381 2.035 . S
O388 Zn381 2.028 . S
O388 C391 1.247 . S
O389 Zn383 2.035 . S
O389 C391 1.258 . S
C390 O384 1.247 . S
C390 O385 1.258 . S
C391 O388 1.247 . S
C391 O389 1.258 . S
C392 O394 1.247 1_565 S
C392 O396 1.258 . S
C393 O400 1.247 . S
C393 O401 1.258 1_565 S
O394 C392 1.247 1_545 S
O394 Zn395 2.028 . S
Zn395 O394 2.028 . S
Zn395 O399 2.035 . S
Zn395 O401 2.035 1_554 S
Zn395 O402 2.028 1_545 S
O396 C392 1.258 . S
O396 Zn397 2.035 . S
Zn397 O396 2.035 . S
Zn397 O398 2.028 . S
Zn397 O400 2.028 1_554 S
Zn397 O403 2.035 . S
O398 Zn397 2.028 . S
O398 C404 1.247 1_565 S
O399 Zn395 2.035 . S
O399 C404 1.258 . S
O400 C393 1.247 . S
O400 Zn397 2.028 1_556 S
O401 C393 1.258 1_545 S
O401 Zn395 2.035 1_556 S
O402 Zn395 2.028 1_565 S
O402 C405 1.247 . S
O403 Zn397 2.035 . S
O403 C405 1.258 . S
C404 O398 1.247 1_545 S
C404 O399 1.258 . S
C405 O402 1.247 . S
C405 O403 1.258 . S
C406 O408 1.247 . S
C406 O410 1.258 . S
C407 O414 1.247 . S
C407 O415 1.258 . S
O408 C406 1.247 . S
O408 Zn409 2.028 . S
Zn409 O408 2.028 . S
Zn409 O413 2.035 . S
Zn409 O415 2.035 . S
Zn409 O416 2.028 . S
O410 C406 1.258 . S
O410 Zn411 2.035 . S
Zn411 O410 2.035 . S
Zn411 O412 2.028 . S
Zn411 O414 2.028 . S
Zn411 O417 2.035 . S
O412 Zn411 2.028 . S
O412 C418 1.247 . S
O413 Zn409 2.035 . S
O413 C418 1.258 . S
O414 C407 1.247 . S
O414 Zn411 2.028 . S
O415 C407 1.258 . S
O415 Zn409 2.035 . S
O416 Zn409 2.028 . S
O416 C419 1.247 . S
O417 Zn411 2.035 . S
O417 C419 1.258 . S
C418 O412 1.247 . S
C418 O413 1.258 . S
C419 O416 1.247 . S
C419 O417 1.258 . S
C420 O422 1.247 1_545 S
C420 O424 1.258 . S
C421 O428 1.247 . S
C421 O429 1.258 1_545 S
O422 C420 1.247 1_565 S
O422 Zn423 2.028 . S
Zn423 O422 2.028 . S
Zn423 O427 2.035 . S
Zn423 O429 2.035 . S
Zn423 O430 2.028 1_565 S
O424 C420 1.258 . S
O424 Zn425 2.035 . S
Zn425 O424 2.035 . S
Zn425 O426 2.028 . S
Zn425 O428 2.028 . S
Zn425 O431 2.035 . S
O426 Zn425 2.028 . S
O426 C432 1.247 1_545 S
O427 Zn423 2.035 . S
O427 C432 1.258 . S
O428 C421 1.247 . S
O428 Zn425 2.028 . S
O429 C421 1.258 1_565 S
O429 Zn423 2.035 . S
O430 Zn423 2.028 1_545 S
O430 C433 1.247 . S
O431 Zn425 2.035 . S
O431 C433 1.258 . S
C432 O426 1.247 1_565 S
C432 O427 1.258 . S
C433 O430 1.247 . S
C433 O431 1.258 . S
C434 O436 1.247 . S
C434 O438 1.258 . S
C435 O442 1.247 . S
C435 O443 1.258 . S
O436 C434 1.247 . S
O436 Zn437 2.028 . S
Zn437 O436 2.028 . S
Zn437 O441 2.035 . S
Zn437 O443 2.035 . S
Zn437 O444 2.028 . S
O438 C434 1.258 . S
O438 Zn439 2.035 . S
Zn439 O438 2.035 . S
Zn439 O440 2.028 . S
Zn439 O442 2.028 . S
Zn439 O445 2.035 . S
O440 Zn439 2.028 . S
O440 C446 1.247 . S
O441 Zn437 2.035 . S
O441 C446 1.258 . S
O442 C435 1.247 . S
O442 Zn439 2.028 . S
O443 C435 1.258 . S
O443 Zn437 2.035 . S
O444 Zn437 2.028 . S
O444 C447 1.247 . S
O445 Zn439 2.035 . S
O445 C447 1.258 . S
C446 O440 1.247 . S
C446 O441 1.258 . S
C447 O444 1.247 . S
C447 O445 1.258 . S
C448 C449 1.369 . S
C448 C450 1.419 1_655 S
C448 H452 0.930 . S
C449 C448 1.369 . S
C449 C458 1.429 . S
C450 C448 1.419 1_455 S
C450 C451 1.363 . S
C450 H453 0.939 . S
C451 C450 1.363 . S
C451 C457 1.428 . S
H452 C448 0.930 . S
H453 C450 0.939 . S
S454 N455 1.613 1_455 S
S454 N456 1.610 . S
N455 S454 1.613 1_655 S
N455 C458 1.350 . S
N456 S454 1.610 . S
N456 C457 1.351 . S
C457 C451 1.428 . S
C457 N456 1.351 . S
C457 C458 1.434 1_455 S
C458 C449 1.429 . S
C458 N455 1.350 . S
C458 C457 1.434 1_655 S
C459 C460 1.369 . S
C459 C461 1.419 . S
C459 H463 0.930 . S
C460 C459 1.369 . S
C460 C469 1.429 . S
C461 C459 1.419 . S
C461 C462 1.363 . S
C461 H464 0.929 . S
C462 C461 1.363 . S
C462 C468 1.428 . S
H463 C459 0.930 . S
H464 C461 0.929 . S
S465 N466 1.613 . S
S465 N467 1.610 . S
N466 S465 1.613 . S
N466 C469 1.350 . S
N467 S465 1.610 . S
N467 C468 1.351 . S
C468 C462 1.428 . S
C468 N467 1.351 . S
C468 C469 1.434 . S
C469 C460 1.429 . S
C469 N466 1.350 . S
C469 C468 1.434 . S
C470 C471 1.369 . S
C470 C472 1.419 . S
C470 H474 0.930 . S
C471 C470 1.369 . S
C471 C480 1.429 . S
C472 C470 1.419 . S
C472 C473 1.363 . S
C472 H475 0.929 . S
C473 C472 1.363 . S
C473 C479 1.428 . S
H474 C470 0.930 . S
H475 C472 0.929 . S
S476 N477 1.613 . S
S476 N478 1.610 . S
N477 S476 1.613 . S
N477 C480 1.350 . S
N478 S476 1.610 . S
N478 C479 1.351 . S
C479 C473 1.428 . S
C479 N478 1.351 . S
C479 C480 1.434 . S
C480 C471 1.429 . S
C480 N477 1.350 . S
C480 C479 1.434 . S
C481 C482 1.369 . S
C481 C483 1.419 . S
C481 H485 0.930 . S
C482 C481 1.369 . S
C482 C491 1.429 . S
C483 C481 1.419 . S
C483 C484 1.363 . S
C483 H486 0.929 . S
C484 C483 1.363 . S
C484 C490 1.428 . S
H485 C481 0.930 . S
H486 C483 0.929 . S
S487 N488 1.613 . S
S487 N489 1.610 . S
N488 S487 1.613 . S
N488 C491 1.350 . S
N489 S487 1.610 . S
N489 C490 1.351 . S
C490 C484 1.428 . S
C490 N489 1.351 . S
C490 C491 1.434 . S
C491 C482 1.429 . S
C491 N488 1.350 . S
C491 C490 1.434 . S
C492 C493 1.369 . S
C492 C494 1.419 1_455 S
C492 H496 0.930 . S
C493 C492 1.369 . S
C493 C502 1.429 . S
C494 C492 1.419 1_655 S
C494 C495 1.363 . S
C494 H497 0.929 . S
C495 C494 1.363 . S
C495 C501 1.428 . S
H496 C492 0.930 . S
H497 C494 0.929 . S
S498 N499 1.613 1_655 S
S498 N500 1.610 . S
N499 S498 1.613 1_455 S
N499 C502 1.350 . S
N500 S498 1.610 . S
N500 C501 1.351 . S
C501 C495 1.428 . S
C501 N500 1.351 . S
C501 C502 1.434 1_655 S
C502 C493 1.429 . S
C502 N499 1.350 . S
C502 C501 1.434 1_455 S
C503 C504 1.369 . S
C503 C505 1.419 . S
C503 H507 0.930 . S
C504 C503 1.369 . S
C504 C513 1.429 . S
C505 C503 1.419 . S
C505 C506 1.363 . S
C505 H508 0.929 . S
C506 C505 1.363 . S
C506 C512 1.428 . S
H507 C503 0.930 . S
H508 C505 0.929 . S
S509 N510 1.613 . S
S509 N511 1.610 . S
N510 S509 1.613 . S
N510 C513 1.350 . S
N511 S509 1.610 . S
N511 C512 1.351 . S
C512 C506 1.428 . S
C512 N511 1.351 . S
C512 C513 1.434 . S
C513 C504 1.429 . S
C513 N510 1.350 . S
C513 C512 1.434 . S
C514 C515 1.369 . S
C514 C516 1.419 . S
C514 H518 0.930 1_554 S
C515 C514 1.369 . S
C515 C524 1.429 . S
C516 C514 1.419 . S
C516 C517 1.363 . S
C516 H519 0.929 . S
C517 C516 1.363 . S
C517 C523 1.428 . S
H518 C514 0.930 1_556 S
H519 C516 0.929 . S
S520 N521 1.613 . S
S520 N522 1.610 . S
N521 S520 1.613 . S
N521 C524 1.350 . S
N522 S520 1.610 . S
N522 C523 1.351 . S
C523 C517 1.428 . S
C523 N522 1.351 . S
C523 C524 1.434 . S
C524 C515 1.429 . S
C524 N521 1.350 . S
C524 C523 1.434 . S
C525 C526 1.369 . S
C525 C527 1.419 . S
C525 H529 0.930 . S
C526 C525 1.369 . S
C526 C535 1.429 . S
C527 C525 1.419 . S
C527 C528 1.363 . S
C527 H530 0.929 . S
C528 C527 1.363 . S
C528 C534 1.428 . S
H529 C525 0.930 . S
H530 C527 0.929 . S
S531 N532 1.613 . S
S531 N533 1.610 . S
N532 S531 1.613 . S
N532 C535 1.350 . S
N533 S531 1.610 . S
N533 C534 1.351 . S
C534 C528 1.428 . S
C534 N533 1.351 . S
C534 C535 1.434 . S
C535 C526 1.429 . S
C535 N532 1.350 . S
C535 C534 1.434 . S
C536 C537 1.369 . S
C536 C538 1.419 . S
C536 H540 0.930 . S
C537 C536 1.369 . S
C537 C546 1.429 . S
C538 C536 1.419 . S
C538 C539 1.363 . S
C538 H541 0.929 . S
C539 C538 1.363 . S
C539 C545 1.428 . S
H540 C536 0.930 . S
H541 C538 0.929 . S
S542 N543 1.613 . S
S542 N544 1.610 . S
N543 S542 1.613 . S
N543 C546 1.350 . S
N544 S542 1.610 . S
N544 C545 1.351 . S
C545 C539 1.428 . S
C545 N544 1.351 . S
C545 C546 1.434 . S
C546 C537 1.429 . S
C546 N543 1.350 . S
C546 C545 1.434 . S
C547 C548 1.369 . S
C547 C549 1.419 . S
C547 H551 0.930 . S
C548 C547 1.369 . S
C548 C557 1.429 . S
C549 C547 1.419 . S
C549 C550 1.363 . S
C549 H552 0.929 . S
C550 C549 1.363 . S
C550 C556 1.428 . S
H551 C547 0.930 . S
H552 C549 0.929 . S
S553 N554 1.613 . S
S553 N555 1.610 . S
N554 S553 1.613 . S
N554 C557 1.350 . S
N555 S553 1.610 . S
N555 C556 1.351 . S
C556 C550 1.428 . S
C556 N555 1.351 . S
C556 C557 1.434 . S
C557 C548 1.429 . S
C557 N554 1.350 . S
C557 C556 1.434 . S
C558 C559 1.369 . S
C558 C560 1.419 . S
C558 H562 0.930 . S
C559 C558 1.369 . S
C559 C568 1.429 . S
C560 C558 1.419 . S
C560 C561 1.363 . S
C560 H563 0.929 . S
C561 C560 1.363 . S
C561 C567 1.428 . S
H562 C558 0.930 . S
H563 C560 0.929 . S
S564 N565 1.613 . S
S564 N566 1.610 . S
N565 S564 1.613 . S
N565 C568 1.350 . S
N566 S564 1.610 . S
N566 C567 1.351 . S
C567 C561 1.428 . S
C567 N566 1.351 . S
C567 C568 1.434 . S
C568 C559 1.429 . S
C568 N565 1.350 . S
C568 C567 1.434 . S
C569 C570 1.369 . S
C569 C571 1.419 . S
C569 H573 0.930 . S
C570 C569 1.369 . S
C570 C579 1.429 . S
C571 C569 1.419 . S
C571 C572 1.363 . S
C571 H574 0.929 . S
C572 C571 1.363 . S
C572 C578 1.428 . S
H573 C569 0.930 . S
H574 C571 0.929 . S
S575 N576 1.613 . S
S575 N577 1.610 . S
N576 S575 1.613 . S
N576 C579 1.350 . S
N577 S575 1.610 . S
N577 C578 1.351 . S
C578 C572 1.428 . S
C578 N577 1.351 . S
C578 C579 1.434 . S
C579 C570 1.429 . S
C579 N576 1.350 . S
C579 C578 1.434 . S
C580 C581 1.369 1_545 S
C580 C582 1.419 . S
C580 H584 0.930 . S
C581 C580 1.369 1_565 S
C581 C590 1.429 . S
C582 C580 1.419 . S
C582 C583 1.363 . S
C582 H585 0.929 . S
C583 C582 1.363 . S
C583 C589 1.428 1_545 S
H584 C580 0.930 . S
H585 C582 0.929 . S
S586 N587 1.613 . S
S586 N588 1.610 . S
N587 S586 1.613 . S
N587 C590 1.350 . S
N588 S586 1.610 . S
N588 C589 1.351 . S
C589 C583 1.428 1_565 S
C589 N588 1.351 . S
C589 C590 1.434 . S
C590 C581 1.429 . S
C590 N587 1.350 . S
C590 C589 1.434 . S
C591 C592 1.369 1_545 S
C591 C593 1.419 1_655 S
C591 H595 0.930 . S
C592 C591 1.369 1_565 S
C592 C601 1.429 . S
C593 C591 1.419 1_455 S
C593 C594 1.363 . S
C593 H596 0.929 . S
C594 C593 1.363 . S
C594 C600 1.428 1_545 S
H595 C591 0.930 . S
H596 C593 0.929 . S
S597 N598 1.613 1_455 S
S597 N599 1.610 . S
N598 S597 1.613 1_655 S
N598 C601 1.350 . S
N599 S597 1.610 . S
N599 C600 1.351 . S
C600 C594 1.428 1_565 S
C600 N599 1.351 . S
C600 C601 1.434 1_455 S
C601 C592 1.429 . S
C601 N598 1.350 . S
C601 C600 1.434 1_655 S
C602 C603 1.369 . S
C602 C604 1.419 . S
C602 H606 0.930 1_554 S
C603 C602 1.369 . S
C603 C612 1.429 1_565 S
C604 C602 1.419 . S
C604 C605 1.363 1_565 S
C604 H607 0.929 1_554 S
C605 C604 1.363 1_545 S
C605 C611 1.428 . S
H606 C602 0.930 1_556 S
H607 C604 0.929 1_556 S
S608 N609 1.613 . S
S608 N610 1.610 . S
N609 S608 1.613 . S
N609 C612 1.350 . S
N610 S608 1.610 . S
N610 C611 1.351 . S
C611 C605 1.428 . S
C611 N610 1.351 . S
C611 C612 1.434 . S
C612 C603 1.429 1_545 S
C612 N609 1.350 . S
C612 C611 1.434 . S
C613 C614 1.369 . S
C613 C615 1.419 1_455 S
C613 H617 0.930 . S
C614 C613 1.369 . S
C614 C623 1.429 1_565 S
C615 C613 1.419 1_655 S
C615 C616 1.363 1_565 S
C615 H618 0.929 . S
C616 C615 1.363 1_545 S
C616 C622 1.428 . S
H617 C613 0.930 . S
H618 C615 0.929 . S
S619 N620 1.613 . S
S619 N621 1.610 1_455 S
N620 S619 1.613 . S
N620 C623 1.350 . S
N621 S619 1.610 1_655 S
N621 C622 1.351 . S
C622 C616 1.428 . S
C622 N621 1.351 . S
C622 C623 1.434 1_655 S
C623 C614 1.429 1_545 S
C623 N620 1.350 . S
C623 C622 1.434 1_455 S
C624 C625 1.369 . S
C624 C626 1.419 . S
C624 H628 0.930 . S
C625 C624 1.369 . S
C625 C634 1.429 . S
C626 C624 1.419 . S
C626 C627 1.363 . S
C626 H629 0.929 . S
C627 C626 1.363 . S
C627 C633 1.428 . S
H628 C624 0.930 . S
H629 C626 0.929 . S
S630 N631 1.613 . S
S630 N632 1.610 . S
N631 S630 1.613 . S
N631 C634 1.350 . S
N632 S630 1.610 . S
N632 C633 1.351 . S
C633 C627 1.428 . S
C633 N632 1.351 . S
C633 C634 1.434 . S
C634 C625 1.429 . S
C634 N631 1.350 . S
C634 C633 1.434 . S
C635 C636 1.366 1_554 S
C635 C637 1.419 . S
C635 H639 0.930 . S
C636 C635 1.366 1_556 S
C636 C645 1.425 1_556 S
C637 C635 1.419 . S
C637 C638 1.363 . S
C637 H640 0.929 . S
C638 C637 1.363 . S
C638 C644 1.428 . S
H639 C635 0.930 . S
H640 C637 0.929 . S
S641 N642 1.613 . S
S641 N643 1.610 . S
N642 S641 1.613 . S
N642 C645 1.350 . S
N643 S641 1.610 . S
N643 C644 1.351 . S
C644 C638 1.428 . S
C644 N643 1.351 . S
C644 C645 1.434 . S
C645 C636 1.425 1_554 S
C645 N642 1.350 . S
C645 C644 1.434 . S
C646 C647 1.369 . S
C646 C648 1.419 . S
C646 H650 0.930 . S
C647 C646 1.369 . S
C647 C656 1.429 . S
C648 C646 1.419 . S
C648 C649 1.363 . S
C648 H651 0.929 . S
C649 C648 1.363 . S
C649 C655 1.428 . S
H650 C646 0.930 . S
H651 C648 0.929 . S
S652 N653 1.613 . S
S652 N654 1.610 . S
N653 S652 1.613 . S
N653 C656 1.350 . S
N654 S652 1.610 . S
N654 C655 1.351 . S
C655 C649 1.428 . S
C655 N654 1.351 . S
C655 C656 1.434 . S
C656 C647 1.429 . S
C656 N653 1.350 . S
C656 C655 1.434 . S
C657 C658 1.369 . S
C657 C659 1.419 . S
C657 H661 0.930 . S
C658 C657 1.369 . S
C658 C667 1.429 . S
C659 C657 1.419 . S
C659 C660 1.363 . S
C659 H662 0.929 . S
C660 C659 1.363 . S
C660 C666 1.428 . S
H661 C657 0.930 . S
H662 C659 0.929 . S
S663 N664 1.613 . S
S663 N665 1.610 . S
N664 S663 1.613 . S
N664 C667 1.350 . S
N665 S663 1.610 . S
N665 C666 1.351 . S
C666 C660 1.428 . S
C666 N665 1.351 . S
C666 C667 1.434 . S
C667 C658 1.429 . S
C667 N664 1.350 . S
C667 C666 1.434 . S
C668 C669 1.369 . S
C668 C670 1.419 . S
C668 H672 0.930 . S
C669 C668 1.369 . S
C669 C678 1.429 . S
C670 C668 1.419 . S
C670 C671 1.363 . S
C670 H673 0.929 . S
C671 C670 1.363 . S
C671 C677 1.428 . S
H672 C668 0.930 . S
H673 C670 0.929 . S
S674 N675 1.613 . S
S674 N676 1.610 . S
N675 S674 1.613 . S
N675 C678 1.350 . S
N676 S674 1.610 . S
N676 C677 1.351 . S
C677 C671 1.428 . S
C677 N676 1.351 . S
C677 C678 1.434 . S
C678 C669 1.429 . S
C678 N675 1.350 . S
C678 C677 1.434 . S
C679 C680 1.368 1_554 S
C679 C681 1.419 . S
C679 H683 0.930 1_554 S
C680 C679 1.368 1_556 S
C680 C689 1.425 1_556 S
C681 C679 1.419 . S
C681 C682 1.363 . S
C681 H684 0.929 . S
C682 C681 1.363 . S
C682 C688 1.428 . S
H683 C679 0.930 1_556 S
H684 C681 0.929 . S
S685 N686 1.613 . S
S685 N687 1.610 . S
N686 S685 1.613 . S
N686 C689 1.350 . S
N687 S685 1.610 . S
N687 C688 1.351 . S
C688 C682 1.428 . S
C688 N687 1.351 . S
C688 C689 1.434 . S
C689 C680 1.425 1_554 S
C689 N686 1.350 . S
C689 C688 1.434 . S
C690 C691 1.369 . S
C690 C692 1.419 . S
C690 H694 0.930 . S
C691 C690 1.369 . S
C691 C700 1.429 . S
C692 C690 1.419 . S
C692 C693 1.363 . S
C692 H695 0.929 . S
C693 C692 1.363 . S
C693 C699 1.428 . S
H694 C690 0.930 . S
H695 C692 0.929 . S
S696 N697 1.613 . S
S696 N698 1.610 . S
N697 S696 1.613 . S
N697 C700 1.350 . S
N698 S696 1.610 . S
N698 C699 1.351 . S
C699 C693 1.428 . S
C699 N698 1.351 . S
C699 C700 1.434 . S
C700 C691 1.429 . S
C700 N697 1.350 . S
C700 C699 1.434 . S
C701 C702 1.369 . S
C701 C703 1.419 . S
C701 H705 0.930 . S
C702 C701 1.369 . S
C702 C711 1.429 . S
C703 C701 1.419 . S
C703 C704 1.363 . S
C703 H706 0.929 . S
C704 C703 1.363 . S
C704 C710 1.428 . S
H705 C701 0.930 . S
H706 C703 0.929 . S
S707 N708 1.613 . S
S707 N709 1.610 . S
N708 S707 1.613 . S
N708 C711 1.350 . S
N709 S707 1.610 . S
N709 C710 1.351 . S
C710 C704 1.428 . S
C710 N709 1.351 . S
C710 C711 1.434 . S
C711 C702 1.429 . S
C711 N708 1.350 . S
C711 C710 1.434 . S
C712 C713 1.369 1_565 S
C712 C714 1.419 . S
C712 H716 0.930 . S
C713 C712 1.369 1_545 S
C713 C722 1.429 . S
C714 C712 1.419 . S
C714 C715 1.363 . S
C714 H717 0.929 . S
C715 C714 1.363 . S
C715 C721 1.428 1_565 S
H716 C712 0.930 . S
H717 C714 0.929 . S
S718 N719 1.613 . S
S718 N720 1.610 . S
N719 S718 1.613 . S
N719 C722 1.350 . S
N720 S718 1.610 . S
N720 C721 1.351 . S
C721 C715 1.428 1_545 S
C721 N720 1.351 . S
C721 C722 1.434 . S
C722 C713 1.429 . S
C722 N719 1.350 . S
C722 C721 1.434 . S
C723 C724 1.369 . S
C723 C725 1.419 . S
C723 H727 0.930 . S
C724 C723 1.369 . S
C724 C733 1.429 . S
C725 C723 1.419 . S
C725 C726 1.363 . S
C725 H728 0.929 . S
C726 C725 1.363 . S
C726 C732 1.428 . S
H727 C723 0.930 . S
H728 C725 0.929 . S
S729 N730 1.613 . S
S729 N731 1.610 . S
N730 S729 1.613 . S
N730 C733 1.350 . S
N731 S729 1.610 . S
N731 C732 1.351 . S
C732 C726 1.428 . S
C732 N731 1.351 . S
C732 C733 1.434 . S
C733 C724 1.429 . S
C733 N730 1.350 . S
C733 C732 1.434 . S
C734 C735 1.369 . S
C734 C736 1.419 . S
C734 H738 0.930 . S
C735 C734 1.369 . S
C735 C744 1.429 1_545 S
C736 C734 1.419 . S
C736 C737 1.363 1_545 S
C736 H739 0.929 . S
C737 C736 1.363 1_565 S
C737 C743 1.428 . S
H738 C734 0.930 . S
H739 C736 0.929 . S
S740 N741 1.613 . S
S740 N742 1.610 . S
N741 S740 1.613 . S
N741 C744 1.350 . S
N742 S740 1.610 . S
N742 C743 1.351 . S
C743 C737 1.428 . S
C743 N742 1.351 . S
C743 C744 1.434 . S
C744 C735 1.429 1_565 S
C744 N741 1.350 . S
C744 C743 1.434 . S
C745 C746 1.362 1_554 S
C745 C747 1.419 . S
C745 H749 0.930 . S
C746 C745 1.362 1_556 S
C746 C755 1.425 1_556 S
C747 C745 1.419 . S
C747 C748 1.363 . S
C747 H750 0.929 . S
C748 C747 1.363 . S
C748 C754 1.428 . S
H749 C745 0.930 . S
H750 C747 0.929 . S
S751 N752 1.613 1_554 S
S751 N753 1.610 . S
N752 S751 1.613 1_556 S
N752 C755 1.350 1_556 S
N753 S751 1.610 . S
N753 C754 1.351 . S
C754 C748 1.428 . S
C754 N753 1.351 . S
C754 C755 1.434 . S
C755 C746 1.425 1_554 S
C755 N752 1.350 1_554 S
C755 C754 1.434 . S
C756 C757 1.369 . S
C756 C758 1.419 . S
C756 H760 0.930 . S
C757 C756 1.369 . S
C757 C766 1.429 1_565 S
C758 C756 1.419 . S
C758 C759 1.363 1_565 S
C758 H761 0.929 . S
C759 C758 1.363 1_545 S
C759 C765 1.428 . S
H760 C756 0.930 . S
H761 C758 0.929 . S
S762 N763 1.613 . S
S762 N764 1.610 . S
N763 S762 1.613 . S
N763 C766 1.350 . S
N764 S762 1.610 . S
N764 C765 1.351 . S
C765 C759 1.428 . S
C765 N764 1.351 . S
C765 C766 1.434 . S
C766 C757 1.429 1_545 S
C766 N763 1.350 . S
C766 C765 1.434 . S
C767 C768 1.369 . S
C767 C769 1.419 . S
C767 H771 0.930 . S
C768 C767 1.369 . S
C768 C777 1.429 . S
C769 C767 1.419 . S
C769 C770 1.363 . S
C769 H772 0.929 . S
C770 C769 1.363 . S
C770 C776 1.428 . S
H771 C767 0.930 . S
H772 C769 0.929 . S
S773 N774 1.613 . S
S773 N775 1.610 . S
N774 S773 1.613 . S
N774 C777 1.350 . S
N775 S773 1.610 . S
N775 C776 1.351 . S
C776 C770 1.428 . S
C776 N775 1.351 . S
C776 C777 1.434 . S
C777 C768 1.429 . S
C777 N774 1.350 . S
C777 C776 1.434 . S
C778 C779 1.369 . S
C778 C780 1.419 . S
C778 H782 0.930 . S
C779 C778 1.369 . S
C779 C788 1.429 1_545 S
C780 C778 1.419 . S
C780 C781 1.363 1_545 S
C780 H783 0.929 . S
C781 C780 1.363 1_565 S
C781 C787 1.428 . S
H782 C778 0.930 . S
H783 C780 0.929 . S
S784 N785 1.613 . S
S784 N786 1.610 . S
N785 S784 1.613 . S
N785 C788 1.350 . S
N786 S784 1.610 . S
N786 C787 1.351 . S
C787 C781 1.428 . S
C787 N786 1.351 . S
C787 C788 1.434 . S
C788 C779 1.429 1_565 S
C788 N785 1.350 . S
C788 C787 1.434 . S
C789 C790 1.369 . S
C789 C791 1.419 . S
C789 H793 0.930 . S
C790 C789 1.369 . S
C790 C799 1.429 . S
C791 C789 1.419 . S
C791 C792 1.361 1_554 S
C791 H794 0.929 . S
C792 C791 1.361 1_556 S
C792 C798 1.425 1_556 S
H793 C789 0.930 . S
H794 C791 0.929 . S
S795 N796 1.613 . S
S795 N797 1.610 . S
N796 S795 1.613 . S
N796 C799 1.350 . S
N797 S795 1.610 . S
N797 C798 1.351 . S
C798 C792 1.425 1_554 S
C798 N797 1.351 . S
C798 C799 1.434 . S
C799 C790 1.429 . S
C799 N796 1.350 . S
C799 C798 1.434 . S
C800 C801 1.369 . S
C800 C802 1.419 . S
C800 H804 0.930 . S
C801 C800 1.369 . S
C801 C810 1.429 . S
C802 C800 1.419 . S
C802 C803 1.363 . S
C802 H805 0.929 . S
C803 C802 1.363 . S
C803 C809 1.428 . S
H804 C800 0.930 . S
H805 C802 0.929 . S
S806 N807 1.613 . S
S806 N808 1.610 . S
N807 S806 1.613 . S
N807 C810 1.350 . S
N808 S806 1.610 . S
N808 C809 1.351 . S
C809 C803 1.428 . S
C809 N808 1.351 . S
C809 C810 1.434 . S
C810 C801 1.429 . S
C810 N807 1.350 . S
C810 C809 1.434 . S
C811 C812 1.369 . S
C811 C813 1.419 . S
C811 H815 0.930 . S
C812 C811 1.369 . S
C812 C821 1.429 . S
C813 C811 1.419 . S
C813 C814 1.363 . S
C813 H816 0.929 . S
C814 C813 1.363 . S
C814 C820 1.428 . S
H815 C811 0.930 . S
H816 C813 0.929 . S
S817 N818 1.613 . S
S817 N819 1.610 . S
N818 S817 1.613 . S
N818 C821 1.350 . S
N819 S817 1.610 . S
N819 C820 1.351 . S
C820 C814 1.428 . S
C820 N819 1.351 . S
C820 C821 1.434 . S
C821 C812 1.429 . S
C821 N818 1.350 . S
C821 C820 1.434 . S
C822 C823 1.369 . S
C822 C824 1.419 . S
C822 H826 0.930 . S
C823 C822 1.369 . S
C823 C832 1.429 . S
C824 C822 1.419 . S
C824 C825 1.363 . S
C824 H827 0.929 . S
C825 C824 1.363 . S
C825 C831 1.428 . S
H826 C822 0.930 . S
H827 C824 0.929 . S
S828 N829 1.613 . S
S828 N830 1.610 . S
N829 S828 1.613 . S
N829 C832 1.350 . S
N830 S828 1.610 . S
N830 C831 1.351 . S
C831 C825 1.428 . S
C831 N830 1.351 . S
C831 C832 1.434 . S
C832 C823 1.429 . S
C832 N829 1.350 . S
C832 C831 1.434 . S
C833 C834 1.369 . S
C833 C835 1.419 . S
C833 H837 0.930 . S
C834 C833 1.369 . S
C834 C843 1.429 . S
C835 C833 1.419 . S
C835 C836 1.363 1_554 S
C835 H838 0.929 1_554 S
C836 C835 1.363 1_556 S
C836 C842 1.428 1_556 S
H837 C833 0.930 . S
H838 C835 0.929 1_556 S
S839 N840 1.613 . S
S839 N841 1.610 . S
N840 S839 1.613 . S
N840 C843 1.350 . S
N841 S839 1.610 . S
N841 C842 1.351 . S
C842 C836 1.428 1_554 S
C842 N841 1.351 . S
C842 C843 1.434 . S
C843 C834 1.429 . S
C843 N840 1.350 . S
C843 C842 1.434 . S
C844 C845 1.369 . S
C844 C846 1.419 . S
C844 H848 0.930 . S
C845 C844 1.369 . S
C845 C854 1.429 . S
C846 C844 1.419 . S
C846 C847 1.363 . S
C846 H849 0.929 . S
C847 C846 1.363 . S
C847 C853 1.428 . S
H848 C844 0.930 . S
H849 C846 0.929 . S
S850 N851 1.613 . S
S850 N852 1.610 . S
N851 S850 1.613 . S
N851 C854 1.350 . S
N852 S850 1.610 . S
N852 C853 1.351 . S
C853 C847 1.428 . S
C853 N852 1.351 . S
C853 C854 1.434 . S
C854 C845 1.429 . S
C854 N851 1.350 . S
C854 C853 1.434 . S
C855 C856 1.369 . S
C855 C857 1.419 . S
C855 H859 0.930 . S
C856 C855 1.369 . S
C856 C865 1.429 . S
C857 C855 1.419 . S
C857 C858 1.363 . S
C857 H860 0.929 . S
C858 C857 1.363 . S
C858 C864 1.428 . S
H859 C855 0.930 . S
H860 C857 0.929 . S
S861 N862 1.613 . S
S861 N863 1.610 . S
N862 S861 1.613 . S
N862 C865 1.350 . S
N863 S861 1.610 . S
N863 C864 1.351 . S
C864 C858 1.428 . S
C864 N863 1.351 . S
C864 C865 1.434 . S
C865 C856 1.429 . S
C865 N862 1.350 . S
C865 C864 1.434 . S
C866 C867 1.369 . S
C866 C868 1.419 . S
C866 H870 0.930 . S
C867 C866 1.369 . S
C867 C876 1.429 . S
C868 C866 1.419 . S
C868 C869 1.363 . S
C868 H871 0.929 . S
C869 C868 1.363 . S
C869 C875 1.428 . S
H870 C866 0.930 . S
H871 C868 0.929 . S
S872 N873 1.613 . S
S872 N874 1.610 . S
N873 S872 1.613 . S
N873 C876 1.350 . S
N874 S872 1.610 . S
N874 C875 1.351 . S
C875 C869 1.428 . S
C875 N874 1.351 . S
C875 C876 1.434 . S
C876 C867 1.429 . S
C876 N873 1.350 . S
C876 C875 1.434 . S
C877 C878 1.369 1_554 S
C877 C879 1.419 . S
C877 H881 0.930 . S
C878 C877 1.369 1_556 S
C878 C887 1.429 1_556 S
C879 C877 1.419 . S
C879 C880 1.363 . S
C879 H882 0.929 . S
C880 C879 1.363 . S
C880 C886 1.428 . S
H881 C877 0.930 . S
H882 C879 0.929 . S
S883 N884 1.613 1_554 S
S883 N885 1.610 . S
N884 S883 1.613 1_556 S
N884 C887 1.350 1_556 S
N885 S883 1.610 . S
N885 C886 1.351 . S
C886 C880 1.428 . S
C886 N885 1.351 . S
C886 C887 1.434 . S
C887 C878 1.429 1_554 S
C887 N884 1.350 1_554 S
C887 C886 1.434 . S
C888 C889 1.369 1_545 S
C888 C890 1.419 . S
C888 H892 0.930 . S
C889 C888 1.369 1_565 S
C889 C898 1.429 . S
C890 C888 1.419 . S
C890 C891 1.363 . S
C890 H893 0.929 . S
C891 C890 1.363 . S
C891 C897 1.428 1_545 S
H892 C888 0.930 . S
H893 C890 0.929 . S
S894 N895 1.613 . S
S894 N896 1.610 . S
N895 S894 1.613 . S
N895 C898 1.350 . S
N896 S894 1.610 . S
N896 C897 1.351 . S
C897 C891 1.428 1_565 S
C897 N896 1.351 . S
C897 C898 1.434 . S
C898 C889 1.429 . S
C898 N895 1.350 . S
C898 C897 1.434 . S
C899 C900 1.369 . S
C899 C901 1.419 . S
C899 H903 0.930 . S
C900 C899 1.369 . S
C900 C909 1.429 . S
C901 C899 1.419 . S
C901 C902 1.363 1_554 S
C901 H904 0.929 . S
C902 C901 1.363 1_556 S
C902 C908 1.428 1_556 S
H903 C899 0.930 . S
H904 C901 0.929 . S
S905 N906 1.613 . S
S905 N907 1.610 . S
N906 S905 1.613 . S
N906 C909 1.350 . S
N907 S905 1.610 . S
N907 C908 1.351 . S
C908 C902 1.428 1_554 S
C908 N907 1.351 . S
C908 C909 1.434 . S
C909 C900 1.429 . S
C909 N906 1.350 . S
C909 C908 1.434 . S
C910 C911 1.369 . S
C910 C912 1.419 . S
C910 H914 0.930 . S
C911 C910 1.369 . S
C911 C920 1.429 1_565 S
C912 C910 1.419 . S
C912 C913 1.363 1_565 S
C912 H915 0.929 . S
C913 C912 1.363 1_545 S
C913 C919 1.428 . S
H914 C910 0.930 . S
H915 C912 0.929 . S
S916 N917 1.613 . S
S916 N918 1.610 . S
N917 S916 1.613 . S
N917 C920 1.350 . S
N918 S916 1.610 . S
N918 C919 1.351 . S
C919 C913 1.428 . S
C919 N918 1.351 . S
C919 C920 1.434 . S
C920 C911 1.429 1_545 S
C920 N917 1.350 . S
C920 C919 1.434 . S
C921 C922 1.369 . S
C921 C923 1.419 . S
C921 H925 0.930 . S
C922 C921 1.369 . S
C922 C931 1.429 . S
C923 C921 1.419 . S
C923 C924 1.363 . S
C923 H926 0.929 . S
C924 C923 1.363 . S
C924 C930 1.428 . S
H925 C921 0.930 . S
H926 C923 0.929 . S
S927 N928 1.613 . S
S927 N929 1.610 . S
N928 S927 1.613 . S
N928 C931 1.350 . S
N929 S927 1.610 . S
N929 C930 1.351 . S
C930 C924 1.428 . S
C930 N929 1.351 . S
C930 C931 1.434 . S
C931 C922 1.429 . S
C931 N928 1.350 . S
C931 C930 1.434 . S
C932 C933 1.369 . S
C932 C934 1.419 . S
C932 H936 0.930 . S
C933 C932 1.369 . S
C933 C942 1.429 1_565 S
C934 C932 1.419 . S
C934 C935 1.363 1_565 S
C934 H937 0.929 . S
C935 C934 1.363 1_545 S
C935 C941 1.428 . S
H936 C932 0.930 . S
H937 C934 0.929 . S
S938 N939 1.613 . S
S938 N940 1.610 . S
N939 S938 1.613 . S
N939 C942 1.350 . S
N940 S938 1.610 . S
N940 C941 1.351 . S
C941 C935 1.428 . S
C941 N940 1.351 . S
C941 C942 1.434 . S
C942 C933 1.429 1_545 S
C942 N939 1.350 . S
C942 C941 1.434 . S
C943 C944 1.369 . S
C943 C945 1.419 . S
C943 H947 0.930 . S
C944 C943 1.369 . S
C944 C953 1.429 . S
C945 C943 1.419 . S
C945 C946 1.357 1_554 S
C945 H948 0.929 1_554 S
C946 C945 1.357 1_556 S
C946 C952 1.415 1_556 S
H947 C943 0.930 . S
H948 C945 0.929 1_556 S
S949 N950 1.613 . S
S949 N951 1.610 . S
N950 S949 1.613 . S
N950 C953 1.350 . S
N951 S949 1.610 . S
N951 C952 1.351 . S
C952 C946 1.415 1_554 S
C952 N951 1.351 . S
C952 C953 1.434 . S
C953 C944 1.429 . S
C953 N950 1.350 . S
C953 C952 1.434 . S
C954 C955 1.369 . S
C954 C956 1.419 . S
C954 H958 0.930 . S
C955 C954 1.369 . S
C955 C964 1.429 1_565 S
C956 C954 1.419 . S
C956 C957 1.363 1_565 S
C956 H959 0.929 . S
C957 C956 1.363 1_545 S
C957 C963 1.428 . S
H958 C954 0.930 . S
H959 C956 0.929 . S
S960 N961 1.613 . S
S960 N962 1.610 . S
N961 S960 1.613 . S
N961 C964 1.350 . S
N962 S960 1.610 . S
N962 C963 1.351 . S
C963 C957 1.428 . S
C963 N962 1.351 . S
C963 C964 1.434 . S
C964 C955 1.429 1_545 S
C964 N961 1.350 . S
C964 C963 1.434 . S
C965 C966 1.369 . S
C965 C967 1.419 . S
C965 H969 0.930 . S
C966 C965 1.369 . S
C966 C975 1.429 . S
C967 C965 1.419 . S
C967 C968 1.363 . S
C967 H970 0.929 . S
C968 C967 1.363 . S
C968 C974 1.428 . S
H969 C965 0.930 . S
H970 C967 0.929 . S
S971 N972 1.613 . S
S971 N973 1.610 . S
N972 S971 1.613 . S
N972 C975 1.350 . S
N973 S971 1.610 . S
N973 C974 1.351 . S
C974 C968 1.428 . S
C974 N973 1.351 . S
C974 C975 1.434 . S
C975 C966 1.429 . S
C975 N972 1.350 . S
C975 C974 1.434 . S
C976 C977 1.369 . S
C976 C978 1.419 . S
C976 H980 0.930 . S
C977 C976 1.369 . S
C977 C986 1.429 . S
C978 C976 1.419 . S
C978 C979 1.363 . S
C978 H981 0.929 . S
C979 C978 1.363 . S
C979 C985 1.428 . S
H980 C976 0.930 . S
H981 C978 0.929 . S
S982 N983 1.613 . S
S982 N984 1.610 . S
N983 S982 1.613 . S
N983 C986 1.350 . S
N984 S982 1.610 . S
N984 C985 1.351 . S
C985 C979 1.428 . S
C985 N984 1.351 . S
C985 C986 1.434 . S
C986 C977 1.429 . S
C986 N983 1.350 . S
C986 C985 1.434 . S
C987 C988 1.369 . S
C987 C989 1.419 . S
C987 H991 0.930 . S
C988 C987 1.369 . S
C988 C997 1.429 . S
C989 C987 1.419 . S
C989 C990 1.363 . S
C989 H992 0.929 . S
C990 C989 1.363 . S
C990 C996 1.428 . S
H991 C987 0.930 . S
H992 C989 0.929 . S
S993 N994 1.613 . S
S993 N995 1.610 . S
N994 S993 1.613 . S
N994 C997 1.350 . S
N995 S993 1.610 . S
N995 C996 1.351 . S
C996 C990 1.428 . S
C996 N995 1.351 . S
C996 C997 1.434 . S
C997 C988 1.429 . S
C997 N994 1.350 . S
C997 C996 1.434 . S
C998 C999 1.369 . S
C998 C1000 1.419 . S
C998 H1002 0.930 . S
C999 C998 1.369 . S
C999 C1008 1.429 . S
C1000 C998 1.419 . S
C1000 C1001 1.363 . S
C1000 H1003 0.929 . S
C1001 C1000 1.363 . S
C1001 C1007 1.428 . S
H1002 C998 0.930 . S
H1003 C1000 0.929 . S
S1004 N1005 1.613 . S
S1004 N1006 1.610 . S
N1005 S1004 1.613 . S
N1005 C1008 1.350 . S
N1006 S1004 1.610 . S
N1006 C1007 1.351 . S
C1007 C1001 1.428 . S
C1007 N1006 1.351 . S
C1007 C1008 1.434 . S
C1008 C999 1.429 . S
C1008 N1005 1.350 . S
C1008 C1007 1.434 . S
C1009 C1010 1.369 . S
C1009 C1011 1.419 . S
C1009 H1013 0.930 . S
C1010 C1009 1.369 . S
C1010 C1019 1.429 . S
C1011 C1009 1.419 . S
C1011 C1012 1.363 . S
C1011 H1014 0.929 1_556 S
C1012 C1011 1.363 . S
C1012 C1018 1.428 . S
H1013 C1009 0.930 . S
H1014 C1011 0.929 1_554 S
S1015 N1016 1.613 . S
S1015 N1017 1.610 . S
N1016 S1015 1.613 . S
N1016 C1019 1.350 . S
N1017 S1015 1.610 . S
N1017 C1018 1.351 . S
C1018 C1012 1.428 . S
C1018 N1017 1.351 . S
C1018 C1019 1.434 . S
C1019 C1010 1.429 . S
C1019 N1016 1.350 . S
C1019 C1018 1.434 . S
C1020 C1021 1.369 . S
C1020 C1022 1.419 . S
C1020 H1024 0.930 . S
C1021 C1020 1.369 . S
C1021 C1030 1.429 . S
C1022 C1020 1.419 . S
C1022 C1023 1.363 . S
C1022 H1025 0.929 . S
C1023 C1022 1.363 . S
C1023 C1029 1.428 . S
H1024 C1020 0.930 . S
H1025 C1022 0.929 . S
S1026 N1027 1.613 . S
S1026 N1028 1.610 . S
N1027 S1026 1.613 . S
N1027 C1030 1.350 . S
N1028 S1026 1.610 . S
N1028 C1029 1.351 . S
C1029 C1023 1.428 . S
C1029 N1028 1.351 . S
C1029 C1030 1.434 . S
C1030 C1021 1.429 . S
C1030 N1027 1.350 . S
C1030 C1029 1.434 . S
C1031 C1032 1.369 . S
C1031 C1033 1.419 . S
C1031 H1035 0.930 . S
C1032 C1031 1.369 . S
C1032 C1041 1.429 . S
C1033 C1031 1.419 . S
C1033 C1034 1.363 . S
C1033 H1036 0.929 . S
C1034 C1033 1.363 . S
C1034 C1040 1.428 . S
H1035 C1031 0.930 . S
H1036 C1033 0.929 . S
S1037 N1038 1.613 . S
S1037 N1039 1.610 . S
N1038 S1037 1.613 . S
N1038 C1041 1.350 . S
N1039 S1037 1.610 . S
N1039 C1040 1.351 . S
C1040 C1034 1.428 . S
C1040 N1039 1.351 . S
C1040 C1041 1.434 . S
C1041 C1032 1.429 . S
C1041 N1038 1.350 . S
C1041 C1040 1.434 . S
C1042 C1043 1.369 . S
C1042 C1044 1.419 . S
C1042 H1046 0.930 . S
C1043 C1042 1.369 . S
C1043 C1052 1.429 . S
C1044 C1042 1.419 . S
C1044 C1045 1.363 . S
C1044 H1047 0.929 . S
C1045 C1044 1.363 . S
C1045 C1051 1.428 . S
H1046 C1042 0.930 . S
H1047 C1044 0.929 . S
S1048 N1049 1.613 . S
S1048 N1050 1.614 . S
N1049 S1048 1.613 . S
N1049 C1052 1.350 . S
N1050 S1048 1.614 . S
N1050 C1051 1.355 . S
C1051 C1045 1.428 . S
C1051 N1050 1.355 . S
C1051 C1052 1.434 . S
C1052 C1043 1.429 . S
C1052 N1049 1.350 . S
C1052 C1051 1.434 . S
C1053 C1054 1.369 . S
C1053 C1055 1.419 . S
C1053 H1057 0.930 . S
C1054 C1053 1.369 . S
C1054 C1063 1.429 . S
C1055 C1053 1.419 . S
C1055 C1056 1.363 . S
C1055 H1058 0.929 . S
C1056 C1055 1.363 . S
C1056 C1062 1.428 . S
H1057 C1053 0.930 . S
H1058 C1055 0.929 . S
S1059 N1060 1.613 . S
S1059 N1061 1.610 . S
N1060 S1059 1.613 . S
N1060 C1063 1.350 . S
N1061 S1059 1.610 . S
N1061 C1062 1.351 . S
C1062 C1056 1.428 . S
C1062 N1061 1.351 . S
C1062 C1063 1.434 . S
C1063 C1054 1.429 . S
C1063 N1060 1.350 . S
C1063 C1062 1.434 . S
C1064 C1065 1.369 . S
C1064 C1066 1.419 . S
C1064 H1068 0.930 1_556 S
C1065 C1064 1.369 . S
C1065 C1074 1.429 . S
C1066 C1064 1.419 . S
C1066 C1067 1.363 . S
C1066 H1069 0.929 . S
C1067 C1066 1.363 . S
C1067 C1073 1.428 . S
H1068 C1064 0.930 1_554 S
H1069 C1066 0.929 . S
S1070 N1071 1.613 . S
S1070 N1072 1.610 . S
N1071 S1070 1.613 . S
N1071 C1074 1.350 . S
N1072 S1070 1.610 . S
N1072 C1073 1.351 . S
C1073 C1067 1.428 . S
C1073 N1072 1.351 . S
C1073 C1074 1.434 . S
C1074 C1065 1.429 . S
C1074 N1071 1.350 . S
C1074 C1073 1.434 . S
C1075 C1076 1.369 . S
C1075 C1077 1.419 . S
C1075 H1079 0.930 . S
C1076 C1075 1.369 . S
C1076 C1085 1.429 . S
C1077 C1075 1.419 . S
C1077 C1078 1.363 . S
C1077 H1080 0.929 . S
C1078 C1077 1.363 . S
C1078 C1084 1.428 . S
H1079 C1075 0.930 . S
H1080 C1077 0.929 . S
S1081 N1082 1.613 . S
S1081 N1083 1.610 . S
N1082 S1081 1.613 . S
N1082 C1085 1.350 . S
N1083 S1081 1.610 . S
N1083 C1084 1.351 . S
C1084 C1078 1.428 . S
C1084 N1083 1.351 . S
C1084 C1085 1.434 . S
C1085 C1076 1.429 . S
C1085 N1082 1.350 . S
C1085 C1084 1.434 . S
C1086 C1087 1.369 . S
C1086 C1088 1.419 . S
C1086 H1090 0.930 . S
C1087 C1086 1.369 . S
C1087 C1096 1.429 . S
C1088 C1086 1.419 . S
C1088 C1089 1.363 . S
C1088 H1091 0.929 . S
C1089 C1088 1.363 . S
C1089 C1095 1.428 . S
H1090 C1086 0.930 . S
H1091 C1088 0.929 . S
S1092 N1093 1.613 . S
S1092 N1094 1.610 . S
N1093 S1092 1.613 . S
N1093 C1096 1.350 . S
N1094 S1092 1.610 . S
N1094 C1095 1.351 . S
C1095 C1089 1.428 . S
C1095 N1094 1.351 . S
C1095 C1096 1.434 . S
C1096 C1087 1.429 . S
C1096 N1093 1.350 . S
C1096 C1095 1.434 . S
C1097 C1098 1.369 . S
C1097 C1099 1.419 . S
C1097 H1101 0.930 . S
C1098 C1097 1.369 . S
C1098 C1107 1.429 . S
C1099 C1097 1.419 . S
C1099 C1100 1.363 . S
C1099 H1102 0.929 . S
C1100 C1099 1.363 . S
C1100 C1106 1.428 . S
H1101 C1097 0.930 . S
H1102 C1099 0.929 . S
S1103 N1104 1.613 . S
S1103 N1105 1.610 . S
N1104 S1103 1.613 . S
N1104 C1107 1.350 . S
N1105 S1103 1.610 . S
N1105 C1106 1.351 . S
C1106 C1100 1.428 . S
C1106 N1105 1.351 . S
C1106 C1107 1.434 . S
C1107 C1098 1.429 . S
C1107 N1104 1.350 . S
C1107 C1106 1.434 . S
C1108 C1109 1.369 . S
C1108 C1110 1.419 . S
C1108 H1112 0.930 . S
C1109 C1108 1.369 . S
C1109 C1118 1.429 . S
C1110 C1108 1.419 . S
C1110 C1111 1.363 . S
C1110 H1113 0.929 . S
C1111 C1110 1.363 . S
C1111 C1117 1.428 . S
H1112 C1108 0.930 . S
H1113 C1110 0.929 . S
S1114 N1115 1.613 . S
S1114 N1116 1.610 . S
N1115 S1114 1.613 . S
N1115 C1118 1.350 . S
N1116 S1114 1.610 . S
N1116 C1117 1.351 . S
C1117 C1111 1.428 . S
C1117 N1116 1.351 . S
C1117 C1118 1.434 . S
C1118 C1109 1.429 . S
C1118 N1115 1.350 . S
C1118 C1117 1.434 . S
C1119 C1120 1.369 . S
C1119 C1121 1.419 . S
C1119 H1123 0.930 . S
C1120 C1119 1.369 . S
C1120 C1129 1.429 . S
C1121 C1119 1.419 . S
C1121 C1122 1.363 . S
C1121 H1124 0.929 . S
C1122 C1121 1.363 . S
C1122 C1128 1.428 . S
H1123 C1119 0.930 . S
H1124 C1121 0.929 . S
S1125 N1126 1.613 . S
S1125 N1127 1.610 . S
N1126 S1125 1.613 . S
N1126 C1129 1.350 . S
N1127 S1125 1.610 . S
N1127 C1128 1.351 . S
C1128 C1122 1.428 . S
C1128 N1127 1.351 . S
C1128 C1129 1.434 . S
C1129 C1120 1.429 . S
C1129 N1126 1.350 . S
C1129 C1128 1.434 . S
C1130 C1131 1.369 . S
C1130 C1132 1.419 . S
C1130 H1134 0.930 . S
C1131 C1130 1.369 . S
C1131 C1140 1.429 . S
C1132 C1130 1.419 . S
C1132 C1133 1.363 . S
C1132 H1135 0.929 . S
C1133 C1132 1.363 . S
C1133 C1139 1.428 . S
H1134 C1130 0.930 . S
H1135 C1132 0.929 . S
S1136 N1137 1.613 . S
S1136 N1138 1.610 . S
N1137 S1136 1.613 . S
N1137 C1140 1.350 . S
N1138 S1136 1.610 . S
N1138 C1139 1.351 . S
C1139 C1133 1.428 . S
C1139 N1138 1.351 . S
C1139 C1140 1.434 . S
C1140 C1131 1.429 . S
C1140 N1137 1.350 . S
C1140 C1139 1.434 . S
C1141 C1142 1.369 . S
C1141 C1143 1.419 . S
C1141 H1145 0.930 . S
C1142 C1141 1.369 . S
C1142 C1151 1.429 . S
C1143 C1141 1.419 . S
C1143 C1144 1.363 . S
C1143 H1146 0.929 . S
C1144 C1143 1.363 . S
C1144 C1150 1.433 . S
H1145 C1141 0.930 . S
H1146 C1143 0.929 . S
S1147 N1148 1.613 1_554 S
S1147 N1149 1.610 . S
N1148 S1147 1.613 1_556 S
N1148 C1151 1.350 . S
N1149 S1147 1.610 . S
N1149 C1150 1.338 1_554 S
C1150 C1144 1.433 . S
C1150 N1149 1.338 1_556 S
C1150 C1151 1.443 . S
C1151 C1142 1.429 . S
C1151 N1148 1.350 . S
C1151 C1150 1.443 . S
C449 C124 1.968 . S
C451 C1 1.961 . S
C460 C14 1.965 . S
C462 C363 1.971 . S
C471 C40 1.972 . S
C473 C153 1.966 . S
C482 C54 1.968 . S
C484 C391 1.969 . S
C493 C68 1.972 . S
C495 C180 1.962 . S
C504 C418 1.961 . S
C506 C83 1.967 . S
C515 C209 1.965 . S
C517 C85 1.967 . S
C526 C435 1.964 . S
C528 C98 1.972 . S
C537 C238 1.964 . S
C539 C139 1.972 . S
C548 C166 1.969 . S
C550 C279 1.961 . S
C559 C194 1.962 . S
C561 C306 1.970 . S
C570 C323 1.962 . S
C572 C210 1.966 . S
C581 C337 1.973 . S
C583 C224 1.965 . S
C592 C265 1.965 . S
C594 C365 1.968 . S
C603 C280 1.971 . S
C605 C404 1.963 . S
C614 C432 1.962 . S
C616 C321 1.965 . S
C625 C12 1.786 . S
C627 C57 1.788 . S
C636 C70 1.796 . S
C638 C27 1.786 . S
C647 C96 1.786 . S
C649 C29 1.788 . S
C658 C43 1.786 . S
C660 C111 1.787 . S
C669 C113 1.786 . S
C671 C169 1.789 . S
C680 C126 1.793 . S
C682 C183 1.787 . S
C691 C196 1.787 . S
C693 C140 1.786 . S
C702 C223 1.786 . S
C704 C155 1.789 . S
C713 C293 1.788 . S
C715 C237 1.785 . S
C724 C295 1.787 . S
C726 C251 1.785 . S
C735 C252 1.787 . S
C737 C308 1.789 . S
C746 C334 1.797 . S
C748 C266 1.789 . S
C757 C393 1.786 . S
C759 C348 1.788 . S
C768 C350 1.784 . S
C770 C407 1.789 . S
C779 C421 1.786 . S
C781 C376 1.788 . S
C790 C446 1.785 . S
C792 C378 1.793 . S
C801 C56 0.817 . S
C803 C13 0.823 . S
C812 C71 0.820 . S
C814 C26 0.819 . S
C823 C28 0.817 . S
C825 C97 0.823 . S
C834 C110 0.820 . S
C836 C42 0.822 . S
C845 C168 0.817 . S
C847 C112 0.823 . S
C856 C127 0.819 . S
C858 C182 0.821 . S
C867 C197 0.819 . S
C869 C141 0.820 . S
C878 C222 0.819 . S
C880 C154 0.820 . S
C889 C236 0.823 . S
C891 C292 0.818 . S
C900 C294 0.818 . S
C902 C250 0.820 . S
C911 C309 0.818 . S
C913 C253 0.823 . S
C922 C335 0.819 . S
C924 C267 0.820 . S
C933 C392 0.817 . S
C935 C349 0.823 . S
C944 C351 0.817 . S
C946 C406 0.841 . S
C955 C377 0.817 . S
C957 C420 0.823 . S
C966 C379 0.818 . S
C968 C447 0.822 . S
C977 C0 1.985 . S
C979 C307 1.982 . S
C988 C320 1.984 . S
C990 C15 1.983 . S
C999 C41 1.983 . S
C1001 C322 1.988 . S
C1010 C55 1.983 . S
C1012 C281 1.982 1_556 S
C1021 C278 1.989 . S
C1023 C69 1.985 . S
C1032 C225 1.982 . S
C1034 C82 1.987 . S
C1043 C239 1.987 . S
C1045 C84 1.988 1_556 S
C1054 C99 1.987 . S
C1056 C264 1.988 . S
C1065 C125 1.984 1_556 S
C1067 C419 1.986 . S
C1076 C433 1.985 . S
C1078 C138 1.987 . S
C1087 C434 1.987 . S
C1089 C152 1.986 . S
C1098 C405 1.986 . S
C1100 C167 1.984 . S
C1109 C390 1.986 . S
C1111 C181 1.989 . S
C1120 C336 1.982 . S
C1122 C195 1.987 . S
C1131 C208 1.983 . S
C1133 C362 1.986 . S
C1142 C211 1.985 . S
C1144 C364 1.986 1_556 S
