# Generated by pormake.
# Topology uoq, (4)-cn, num edge types: 1
# Building blocks:
#     Node 0, Type 0, BuildingBlock: CEKHIL_clean_sbu_0, # of connection points: 4
#     Node 1, Type 0, BuildingBlock: CEKHIL_clean_sbu_0, # of connection points: 4
#     Node 2, Type 0, BuildingBlock: CEKHIL_clean_sbu_0, # of connection points: 4
#     Node 3, Type 0, BuildingBlock: CEKHIL_clean_sbu_0, # of connection points: 4
#     Node 4, Type 0, BuildingBlock: CEKHIL_clean_sbu_0, # of connection points: 4
#     Node 5, Type 0, BuildingBlock: CEKHIL_clean_sbu_0, # of connection points: 4
#     Node 6, Type 0, BuildingBlock: CEKHIL_clean_sbu_0, # of connection points: 4
#     Node 7, Type 0, BuildingBlock: CEKHIL_clean_sbu_0, # of connection points: 4
#     Node 8, Type 0, BuildingBlock: CEKHIL_clean_sbu_0, # of connection points: 4
#     Node 9, Type 0, BuildingBlock: CEKHIL_clean_sbu_0, # of connection points: 4
#     Node 10, Type 0, BuildingBlock: CEKHIL_clean_sbu_0, # of connection points: 4
#     Node 11, Type 0, BuildingBlock: CEKHIL_clean_sbu_0, # of connection points: 4
#     Edge 12, Type (0, 0), BuildingBlock: XIVTED_clean_linker_0, # of connection points: 2
#     Edge 13, Type (0, 0), BuildingBlock: XIVTED_clean_linker_0, # of connection points: 2
#     Edge 14, Type (0, 0), BuildingBlock: XIVTED_clean_linker_0, # of connection points: 2
#     Edge 15, Type (0, 0), BuildingBlock: XIVTED_clean_linker_0, # of connection points: 2
#     Edge 16, Type (0, 0), BuildingBlock: XIVTED_clean_linker_0, # of connection points: 2
#     Edge 17, Type (0, 0), BuildingBlock: XIVTED_clean_linker_0, # of connection points: 2
#     Edge 18, Type (0, 0), BuildingBlock: XIVTED_clean_linker_0, # of connection points: 2
#     Edge 19, Type (0, 0), BuildingBlock: XIVTED_clean_linker_0, # of connection points: 2
#     Edge 20, Type (0, 0), BuildingBlock: XIVTED_clean_linker_0, # of connection points: 2
#     Edge 21, Type (0, 0), BuildingBlock: XIVTED_clean_linker_0, # of connection points: 2
#     Edge 22, Type (0, 0), BuildingBlock: XIVTED_clean_linker_0, # of connection points: 2
#     Edge 23, Type (0, 0), BuildingBlock: XIVTED_clean_linker_0, # of connection points: 2
#     Edge 24, Type (0, 0), BuildingBlock: XIVTED_clean_linker_0, # of connection points: 2
#     Edge 25, Type (0, 0), BuildingBlock: XIVTED_clean_linker_0, # of connection points: 2
#     Edge 26, Type (0, 0), BuildingBlock: XIVTED_clean_linker_0, # of connection points: 2
#     Edge 27, Type (0, 0), BuildingBlock: XIVTED_clean_linker_0, # of connection points: 2
#     Edge 28, Type (0, 0), BuildingBlock: XIVTED_clean_linker_0, # of connection points: 2
#     Edge 29, Type (0, 0), BuildingBlock: XIVTED_clean_linker_0, # of connection points: 2
#     Edge 30, Type (0, 0), BuildingBlock: XIVTED_clean_linker_0, # of connection points: 2
#     Edge 31, Type (0, 0), BuildingBlock: XIVTED_clean_linker_0, # of connection points: 2
#     Edge 32, Type (0, 0), BuildingBlock: XIVTED_clean_linker_0, # of connection points: 2
#     Edge 33, Type (0, 0), BuildingBlock: XIVTED_clean_linker_0, # of connection points: 2
#     Edge 34, Type (0, 0), BuildingBlock: XIVTED_clean_linker_0, # of connection points: 2
#     Edge 35, Type (0, 0), BuildingBlock: XIVTED_clean_linker_0, # of connection points: 2
# Relax obj value: 0.172
# Max RMSD: 0.159
# Mean RMSD: 0.159
data_MOF--net-uoq--node1-CEKHIL_clean_sbu_0--edge1-XIVTED_clean_linker_0
_symmetry_space_group_name_H-M    P1
_symmetry_Int_Tables_number       1
_symmetry_cell_setting            triclinic
loop_
_symmetry_equiv_pos_as_xyz
'x, y, z'
_cell_length_a     58.895847
_cell_length_b     58.904863
_cell_length_c     21.6418
_cell_angle_alpha  90.155537
_cell_angle_beta   89.96243
_cell_angle_gamma 120.01975
loop_
_atom_site_label
_atom_site_type_symbol
_atom_site_fract_x
_atom_site_fract_y
_atom_site_fract_z
_atom_type_partial_charge
Co0 Co 0.31137 0.4378 0.254 0.0
O1 O 0.27856 0.41806 0.2091 0.0
O2 O 0.30673 0.46005 0.19492 0.0
C3 C 0.32446 0.40769 0.24696 0.0
O4 O 0.34726 0.46473 0.28832 0.0
Co5 Co 0.32376 0.41688 0.37536 0.0
O6 O 0.35881 0.44874 0.36934 0.0
C7 C 0.29047 0.44151 0.37966 0.0
C8 C 0.28459 0.43952 0.17958 0.0
C9 C 0.36362 0.46688 0.33068 0.0
O10 O 0.29374 0.44729 0.32159 0.0
O11 O 0.29883 0.42774 0.40634 0.0
O12 O 0.32864 0.42355 0.20107 0.0
O13 O 0.311 0.40913 0.29177 0.0
Co14 Co 0.86783 0.3061 0.60225 0.0
O15 O 0.85372 0.27254 0.55992 0.0
O16 O 0.84593 0.30401 0.53249 0.0
C17 C 0.90979 0.31455 0.61303 0.0
O18 O 0.87912 0.34336 0.63189 0.0
Co19 Co 0.89277 0.31592 0.73505 0.0
O20 O 0.90237 0.35271 0.72026 0.0
C21 C 0.83506 0.29033 0.71948 0.0
C22 C 0.84207 0.28057 0.52223 0.0
C23 C 0.89262 0.35925 0.67594 0.0
O24 O 0.83656 0.29177 0.65997 0.0
O25 O 0.85479 0.29741 0.75514 0.0
O26 O 0.90206 0.31933 0.56077 0.0
O27 O 0.89159 0.30262 0.65321 0.0
Co28 Co 0.56192 0.86743 0.93652 0.0
O29 O 0.58085 0.85143 0.89997 0.0
O30 O 0.54245 0.84463 0.86775 0.0
C31 C 0.59663 0.90894 0.9455 0.0
O32 O 0.53638 0.88019 0.95861 0.0
Co33 Co 0.57496 0.89623 0.06471 0.0
O34 O 0.55207 0.90973 0.03585 0.0
C35 C 0.5425 0.83797 0.05727 0.0
C36 C 0.56152 0.83974 0.8611 0.0
C37 C 0.53529 0.89737 0.99361 0.0
O38 O 0.54354 0.83765 0.99764 0.0
O39 O 0.55456 0.8588 0.09007 0.0
O40 O 0.58465 0.9007 0.89262 0.0
O41 O 0.58871 0.89154 0.98811 0.0
Co42 Co 0.69746 0.56611 0.25389 0.0
O43 O 0.72977 0.58659 0.20744 0.0
O44 O 0.7007 0.5452 0.18849 0.0
C45 C 0.68493 0.59691 0.25982 0.0
O46 O 0.66184 0.53846 0.28838 0.0
Co47 Co 0.68745 0.58326 0.38386 0.0
O48 O 0.65224 0.55183 0.37727 0.0
C49 C 0.72469 0.56405 0.3692 0.0
C50 C 0.72304 0.56567 0.17448 0.0
C51 C 0.64637 0.53504 0.3341 0.0
O52 O 0.71617 0.55493 0.31458 0.0
O53 O 0.71829 0.57887 0.39857 0.0
O54 O 0.6801 0.58289 0.20968 0.0
O55 O 0.6988 0.59344 0.30009 0.0
Co56 Co 0.13991 0.69746 0.59765 0.0
O57 O 0.15385 0.73153 0.55835 0.0
O58 O 0.16288 0.701 0.52926 0.0
C59 C 0.09769 0.68833 0.60607 0.0
O60 O 0.12934 0.66006 0.62365 0.0
Co61 Co 0.11245 0.68329 0.72714 0.0
O62 O 0.10019 0.6467 0.7015 0.0
C63 C 0.17067 0.71216 0.71751 0.0
C64 C 0.16633 0.72435 0.52073 0.0
C65 C 0.11278 0.64214 0.66018 0.0
O66 O 0.17025 0.71177 0.65786 0.0
O67 O 0.15013 0.70307 0.75129 0.0
O68 O 0.10615 0.68427 0.55388 0.0
O69 O 0.11521 0.69945 0.64819 0.0
Co70 Co 0.44124 0.13301 0.92934 0.0
O71 O 0.42202 0.14716 0.88679 0.0
O72 O 0.4636 0.15973 0.87001 0.0
C73 C 0.40975 0.09026 0.92212 0.0
O74 O 0.46767 0.12294 0.96123 0.0
Co75 Co 0.42097 0.09913 0.04967 0.0
O76 O 0.44921 0.09101 0.03251 0.0
C77 C 0.44767 0.15738 0.05627 0.0
C78 C 0.44341 0.16217 0.85644 0.0
C79 C 0.46816 0.10571 0.99699 0.0
O80 O 0.45196 0.16 0.9975 0.0
O81 O 0.43459 0.13519 0.08328 0.0
O82 O 0.42552 0.10161 0.87582 0.0
O83 O 0.41235 0.10522 0.96794 0.0
Co84 Co 0.55659 0.69504 0.43584 0.0
O85 O 0.5764 0.7287 0.47774 0.0
O86 O 0.53761 0.69703 0.50757 0.0
C87 C 0.59016 0.6869 0.42125 0.0
O88 O 0.53047 0.65757 0.40728 0.0
Co89 Co 0.5701 0.68537 0.30119 0.0
O90 O 0.54455 0.64835 0.319 0.0
C91 C 0.53803 0.71071 0.32092 0.0
C92 C 0.55718 0.72057 0.51692 0.0
C93 C 0.52842 0.64159 0.36377 0.0
O94 O 0.53879 0.70922 0.38034 0.0
O95 O 0.55022 0.70364 0.2837 0.0
O96 O 0.57839 0.68212 0.47457 0.0
O97 O 0.58324 0.69872 0.38237 0.0
Co98 Co 0.86911 0.55966 0.7682 0.0
O99 O 0.8561 0.58063 0.80766 0.0
O100 O 0.84747 0.54163 0.83975 0.0
C101 C 0.91117 0.59235 0.75408 0.0
O102 O 0.87929 0.53241 0.74158 0.0
Co103 Co 0.89244 0.57135 0.63391 0.0
O104 O 0.90297 0.54533 0.6538 0.0
C105 C 0.83493 0.54137 0.65314 0.0
C106 C 0.84412 0.56169 0.84708 0.0
C107 C 0.89298 0.52951 0.69885 0.0
O108 O 0.83728 0.54261 0.71245 0.0
O109 O 0.85424 0.55236 0.61567 0.0
O110 O 0.90378 0.58089 0.80761 0.0
O111 O 0.8927 0.58552 0.71429 0.0
Co112 Co 0.31235 0.87102 0.10869 0.0
O113 O 0.27867 0.85687 0.15009 0.0
O114 O 0.30867 0.84621 0.1726 0.0
C115 C 0.32208 0.91341 0.10884 0.0
O116 O 0.3493 0.8815 0.07934 0.0
Co117 Co 0.32603 0.90199 0.98391 0.0
O118 O 0.3626 0.9117 1.00395 0.0
C119 C 0.29673 0.84354 0.98461 0.0
C120 C 0.28566 0.84325 0.1841 0.0
C121 C 0.36704 0.89813 0.04263 0.0
O122 O 0.29721 0.84231 0.04413 0.0
O123 O 0.30581 0.86498 0.95437 0.0
O124 O 0.3268 0.90362 0.15775 0.0
O125 O 0.31042 0.89723 0.06443 0.0
Co126 Co 0.44674 0.31194 0.44949 0.0
O127 O 0.42587 0.27914 0.49319 0.0
O128 O 0.46676 0.3083 0.51654 0.0
C129 C 0.41534 0.32334 0.44356 0.0
O130 O 0.47437 0.34813 0.41777 0.0
Co131 Co 0.43072 0.32299 0.31947 0.0
O132 O 0.46011 0.35903 0.33249 0.0
C133 C 0.45712 0.29144 0.33037 0.0
C134 C 0.44612 0.28574 0.52831 0.0
C135 C 0.47711 0.36448 0.37482 0.0
O136 O 0.45956 0.29441 0.38953 0.0
O137 O 0.44516 0.29996 0.29667 0.0
O138 O 0.4293 0.32841 0.4937 0.0
O139 O 0.41943 0.31025 0.40203 0.0
Co140 Co 0.13938 0.44414 0.76986 0.0
O141 O 0.15237 0.42302 0.80858 0.0
O142 O 0.16155 0.4623 0.84046 0.0
C143 C 0.09712 0.41155 0.75691 0.0
O144 O 0.12977 0.47187 0.74529 0.0
Co145 Co 0.1139 0.43367 0.63832 0.0
O146 O 0.10154 0.45769 0.66545 0.0
C147 C 0.17186 0.46068 0.65273 0.0
C148 C 0.16469 0.44215 0.84774 0.0
C149 C 0.11376 0.47407 0.7085 0.0
O150 O 0.17057 0.46043 0.71227 0.0
O151 O 0.15179 0.45016 0.61722 0.0
O152 O 0.10487 0.42317 0.81038 0.0
O153 O 0.11523 0.41857 0.71615 0.0
Co154 Co 0.69497 0.13739 0.10454 0.0
O155 O 0.7299 0.1526 0.14089 0.0
O156 O 0.69869 0.15975 0.17454 0.0
C157 C 0.68759 0.09577 0.09302 0.0
O158 O 0.65677 0.12546 0.08302 0.0
Co159 Co 0.67877 0.10987 0.97504 0.0
O160 O 0.64247 0.09673 1.00411 0.0
C161 C 0.7062 0.16812 0.98551 0.0
C162 C 0.72254 0.16426 0.18058 0.0
C163 C 0.63834 0.10886 0.04744 0.0
O164 O 0.70703 0.16778 0.04513 0.0
O165 O 0.69709 0.14758 0.95156 0.0
O166 O 0.68395 0.10363 0.14656 0.0
O167 O 0.69718 0.11351 0.05117 0.0
H168 H 0.37763 0.42941 0.25617 0.0
H169 H 0.36551 0.29928 0.40344 0.0
H170 H 0.30478 0.35648 0.27154 0.0
H171 H 0.43204 0.37586 0.43726 0.0
H172 H 0.34414 0.31942 0.34742 0.0
H173 H 0.40005 0.40931 0.30989 0.0
C174 C 0.36662 0.40886 0.26853 0.0
C175 C 0.33948 0.39431 0.25826 0.0
C176 C 0.36321 0.33196 0.36794 0.0
C177 C 0.36458 0.37159 0.32149 0.0
C178 C 0.37522 0.32047 0.40067 0.0
C179 C 0.40017 0.33602 0.42642 0.0
C180 C 0.37653 0.35923 0.35938 0.0
C181 C 0.4124 0.36332 0.41966 0.0
C182 C 0.37926 0.39758 0.30033 0.0
C183 C 0.32584 0.36812 0.27747 0.0
N184 N 0.40056 0.3741 0.38616 0.0
N185 N 0.33849 0.35763 0.30822 0.0
H186 H 0.92858 0.31095 0.72533 0.0
H187 H 0.07887 0.39203 0.64228 0.0
H188 H 0.95466 0.3466 0.546 0.0
H189 H 0.05176 0.39456 0.82624 0.0
H190 H 0.03375 0.36871 0.60627 0.0
H191 H 0.9737 0.33462 0.76215 0.0
C192 C 0.94376 0.32374 0.69345 0.0
C193 C 0.93767 0.32703 0.63243 0.0
C194 C 0.03766 0.37441 0.65444 0.0
C195 C 0.98962 0.35376 0.67461 0.0
C196 C 0.06346 0.38774 0.67538 0.0
C197 C 0.06927 0.39566 0.73754 0.0
C198 C 0.01723 0.36819 0.69606 0.0
C199 C 0.04824 0.38896 0.77801 0.0
C200 C 0.96953 0.33728 0.71482 0.0
C201 C 0.95839 0.34351 0.59332 0.0
N202 N 0.02307 0.37543 0.7566 0.0
N203 N 0.98352 0.35619 0.61501 0.0
H204 H 0.61097 0.95344 0.87519 0.0
H205 H 0.65975 0.0508 0.1635 0.0
H206 H 0.61937 0.92843 0.05689 0.0
H207 H 0.68957 0.07706 0.97946 0.0
H208 H 0.63887 0.00516 0.12592 0.0
H209 H 0.63439 0.99918 0.9124 0.0
C210 C 0.61784 0.95752 0.92252 0.0
C211 C 0.61299 0.93701 0.96294 0.0
C212 C 0.65007 0.02106 0.09406 0.0
C213 C 0.63901 0.98892 1.00609 0.0
C214 C 0.662 0.04704 0.11552 0.0
C215 C 0.67627 0.06785 0.07465 0.0
C216 C 0.65206 0.01602 0.03119 0.0
C217 C 0.6785 0.06176 1.01271 0.0
C218 C 0.63108 0.98354 0.94381 0.0
C219 C 0.62231 0.94349 0.02408 0.0
N220 N 0.66631 0.03651 0.99279 0.0
N221 N 0.63453 0.96874 0.04393 0.0
H222 H 0.64848 0.60467 0.19512 0.0
H223 H 0.60541 0.65638 0.48644 0.0
H224 H 0.69066 0.62249 0.36804 0.0
H225 H 0.60945 0.68898 0.30558 0.0
H226 H 0.62815 0.63416 0.4445 0.0
H227 H 0.625 0.6267 0.2349 0.0
C228 C 0.65281 0.61312 0.24108 0.0
C229 C 0.67138 0.61142 0.27834 0.0
C230 C 0.62383 0.64613 0.41425 0.0
C231 C 0.6442 0.63562 0.32446 0.0
C232 C 0.61099 0.65886 0.43818 0.0
C233 C 0.60529 0.67443 0.39955 0.0
C234 C 0.63037 0.64851 0.35111 0.0
C235 C 0.613 0.67689 0.33711 0.0
C236 C 0.63939 0.62555 0.26378 0.0
C237 C 0.6762 0.62278 0.33777 0.0
N238 N 0.62485 0.66387 0.3147 0.0
N239 N 0.66252 0.63403 0.35916 0.0
H240 H 0.95626 0.60962 0.82354 0.0
H241 H 0.05353 0.65657 0.53587 0.0
H242 H 0.9294 0.6109 0.63868 0.0
H243 H 0.07782 0.69162 0.71679 0.0
H244 H 0.00773 0.63362 0.57244 0.0
H245 H 1.00174 0.63387 0.78556 0.0
C246 C 0.95987 0.61496 0.7752 0.0
C247 C 0.93895 0.60804 0.73431 0.0
C248 C 0.02324 0.64644 0.60381 0.0
C249 C 0.99062 0.63515 0.69046 0.0
C250 C 0.04928 0.65955 0.58292 0.0
C251 C 0.0696 0.67588 0.62333 0.0
C252 C 0.01768 0.64935 0.66567 0.0
C253 C 0.06293 0.67898 0.68404 0.0
C254 C 0.98575 0.62875 0.75355 0.0
C255 C 0.94481 0.6155 0.67195 0.0
N256 N 0.03767 0.66564 0.7035 0.0
N257 N 0.97002 0.62838 0.65185 0.0
H258 H 0.29826 0.93982 0.0717 0.0
H259 H 0.42843 0.05605 0.92211 0.0
H260 H 0.37454 0.94948 0.10728 0.0
H261 H 0.35889 0.06115 0.95331 0.0
H262 H 0.40733 0.01326 0.97469 0.0
H263 H 0.31897 0.98203 0.01838 0.0
C264 C 0.31947 0.95135 0.07003 0.0
C265 C 0.33477 0.94159 0.09523 0.0
C266 C 0.39655 0.02355 0.96888 0.0
C267 C 0.35859 0.98911 0.03101 0.0
C268 C 0.40834 0.04762 0.93772 0.0
C269 C 0.3951 0.06178 0.93244 0.0
C270 C 0.3713 0.0136 0.99402 0.0
C271 C 0.3695 0.05055 0.95552 0.0
C272 C 0.33127 0.97522 0.0388 0.0
C273 C 0.36214 0.95676 0.08991 0.0
N274 N 0.35844 0.02717 0.98532 0.0
N275 N 0.37322 0.97967 0.05755 0.0
H276 H 0.16946 0.40018 0.88565 0.0
H277 H 0.28719 0.48273 0.12379 0.0
H278 H 0.19952 0.48232 0.92271 0.0
H279 H 0.24195 0.39826 0.12392 0.0
H280 H 0.25796 0.48346 0.04395 0.0
H281 H 0.19837 0.39951 0.96631 0.0
C282 C 0.18212 0.41809 0.91071 0.0
C283 C 0.18194 0.44133 0.89727 0.0
C284 C 0.25441 0.46476 0.06149 0.0
C285 C 0.21543 0.44076 0.98965 0.0
C286 C 0.27116 0.46433 0.10702 0.0
C287 C 0.26708 0.4404 0.13085 0.0
C288 C 0.23354 0.44108 0.03875 0.0
C289 C 0.24587 0.41719 0.10721 0.0
C290 C 0.19861 0.41768 0.95691 0.0
C291 C 0.19886 0.46391 0.93149 0.0
N292 N 0.23005 0.41811 0.06243 0.0
N293 N 0.21495 0.46309 0.97569 0.0
H294 H 0.83918 0.23607 0.47353 0.0
H295 H 0.71694 0.19984 0.2517 0.0
H296 H 0.80593 0.28631 0.45343 0.0
H297 H 0.76884 0.16898 0.22289 0.0
H298 H 0.74626 0.22852 0.33328 0.0
H299 H 0.81073 0.20825 0.38971 0.0
C300 C 0.82589 0.24127 0.45157 0.0
C301 C 0.82504 0.26366 0.47072 0.0
C302 C 0.75127 0.21551 0.30905 0.0
C303 C 0.79205 0.23155 0.37485 0.0
C304 C 0.73448 0.19903 0.26254 0.0
C305 C 0.74037 0.1819 0.23015 0.0
C306 C 0.77401 0.21462 0.32442 0.0
C307 C 0.76349 0.18187 0.24635 0.0
C308 C 0.8097 0.22539 0.40353 0.0
C309 C 0.80738 0.26935 0.44022 0.0
N310 N 0.7793 0.19778 0.29251 0.0
N311 N 0.7915 0.25334 0.3943 0.0
H312 H 0.60263 0.83464 0.81726 0.0
H313 H 0.51591 0.71461 0.58852 0.0
H314 H 0.51973 0.80398 0.79151 0.0
H315 H 0.59917 0.76524 0.56426 0.0
H316 H 0.51685 0.74325 0.67244 0.0
H317 H 0.60171 0.8056 0.73438 0.0
C318 C 0.5842 0.82174 0.79441 0.0
C319 C 0.56123 0.82187 0.81149 0.0
C320 C 0.53491 0.74808 0.64877 0.0
C321 C 0.55999 0.78824 0.71672 0.0
C322 C 0.53442 0.73167 0.60095 0.0
C323 C 0.55749 0.73748 0.56899 0.0
C324 C 0.55874 0.7703 0.66584 0.0
C325 C 0.58087 0.75998 0.58728 0.0
C326 C 0.58372 0.80522 0.74689 0.0
C327 C 0.53795 0.8047 0.77988 0.0
N328 N 0.58092 0.77541 0.63455 0.0
N329 N 0.5379 0.78853 0.73448 0.0
H330 H 0.71894 0.52262 0.11425 0.0
H331 H 0.84037 0.60412 0.88599 0.0
H332 H 0.76697 0.60683 0.12222 0.0
H333 H 0.80816 0.52156 0.92037 0.0
H334 H 0.81107 0.60525 0.96498 0.0
H335 H 0.74847 0.52156 0.03575 0.0
C336 C 0.73561 0.54092 0.09933 0.0
C337 C 0.7404 0.56486 0.12511 0.0
C338 C 0.81045 0.58689 0.95541 0.0
C339 C 0.77438 0.56377 0.03461 0.0
C340 C 0.82717 0.5862 0.91017 0.0
C341 C 0.82686 0.56271 0.89642 0.0
C342 C 0.79285 0.56381 0.98679 0.0
C343 C 0.80924 0.54015 0.92948 0.0
C344 C 0.75255 0.54028 0.05464 0.0
C345 C 0.76246 0.58791 0.10389 0.0
N346 N 0.79288 0.54122 0.97268 0.0
N347 N 0.77849 0.5868 0.05985 0.0
H348 H 0.17026 0.77003 0.47768 0.0
H349 H 0.29028 0.80541 0.24794 0.0
H350 H 0.2023 0.71903 0.45024 0.0
H351 H 0.24133 0.84037 0.23352 0.0
H352 H 0.2613 0.77635 0.32927 0.0
H353 H 0.19908 0.79873 0.39585 0.0
C354 C 0.18337 0.76486 0.45455 0.0
C355 C 0.18376 0.74199 0.47096 0.0
C356 C 0.25688 0.79035 0.30824 0.0
C357 C 0.21711 0.77504 0.37727 0.0
C358 C 0.27348 0.80703 0.26189 0.0
C359 C 0.26827 0.8254 0.23362 0.0
C360 C 0.23507 0.79226 0.3274 0.0
C361 C 0.24612 0.82649 0.25372 0.0
C362 C 0.19978 0.78124 0.40765 0.0
C363 C 0.2012 0.73636 0.4391 0.0
N364 N 0.23049 0.81032 0.29944 0.0
N365 N 0.21724 0.7528 0.39418 0.0
H366 H 0.48672 0.20132 0.79709 0.0
H367 H 0.40376 0.24129 0.57361 0.0
H368 H 0.40262 0.16603 0.80672 0.0
H369 H 0.48745 0.28951 0.5965 0.0
H370 H 0.40327 0.21175 0.6536 0.0
H371 H 0.48774 0.23189 0.71865 0.0
C372 C 0.46846 0.19995 0.78273 0.0
C373 C 0.44454 0.181 0.80874 0.0
C374 C 0.42176 0.22882 0.64133 0.0
C375 C 0.44556 0.21593 0.71838 0.0
C376 C 0.42207 0.24572 0.59548 0.0
C377 C 0.44568 0.26803 0.57816 0.0
C378 C 0.44529 0.23394 0.66995 0.0
C379 C 0.46876 0.27264 0.60839 0.0
C380 C 0.46907 0.21748 0.73802 0.0
C381 C 0.42153 0.18028 0.78822 0.0
N382 N 0.46801 0.25572 0.65244 0.0
N383 N 0.42261 0.19733 0.74425 0.0
H384 H 0.21612 0.46142 0.69453 0.0
H385 H 0.26302 0.46655 0.34773 0.0
H386 H 0.18512 0.48309 0.5393 0.0
H387 H 0.29022 0.44177 0.50522 0.0
H388 H 0.24138 0.48224 0.41909 0.0
H389 H 0.25181 0.4656 0.62881 0.0
C390 C 0.21732 0.46787 0.6472 0.0
C391 C 0.19736 0.47118 0.62167 0.0
C392 C 0.25236 0.47358 0.43776 0.0
C393 C 0.23742 0.47527 0.54598 0.0
C394 C 0.26453 0.46449 0.39704 0.0
C395 C 0.27786 0.4522 0.42028 0.0
C396 C 0.25367 0.47037 0.50189 0.0
C397 C 0.27961 0.45048 0.48477 0.0
C398 C 0.23751 0.47 0.60942 0.0
C399 C 0.19984 0.47965 0.56014 0.0
N400 N 0.26748 0.4592 0.52308 0.0
N401 N 0.21916 0.48083 0.5239 0.0
H402 H 0.78633 0.25165 0.68049 0.0
H403 H 0.74546 0.21684 0.02264 0.0
H404 H 0.82619 0.30554 0.83043 0.0
H405 H 0.69277 0.17626 0.87122 0.0
H406 H 0.77117 0.25399 0.95397 0.0
H407 H 0.74775 0.22801 0.74704 0.0
C408 C 0.78667 0.25888 0.72676 0.0
C409 C 0.80962 0.27992 0.75086 0.0
C410 C 0.75359 0.2372 0.93614 0.0
C411 C 0.76613 0.25305 0.82721 0.0
C412 C 0.7389 0.21605 0.97551 0.0
C413 C 0.71757 0.19318 0.95193 0.0
C414 C 0.74695 0.2351 0.87299 0.0
C415 C 0.70971 0.19325 0.89063 0.0
C416 C 0.76473 0.24542 0.76487 0.0
C417 C 0.80906 0.28876 0.8109 0.0
N418 N 0.72477 0.21359 0.8528 0.0
N419 N 0.78791 0.27494 0.84753 0.0
H420 H 0.52071 0.8323 0.17068 0.0
H421 H 0.51047 0.69428 0.21461 0.0
H422 H 0.53039 0.78786 0.02447 0.0
H423 H 0.53263 0.75241 0.35849 0.0
H424 H 0.49865 0.72019 0.14836 0.0
H425 H 0.50635 0.795 0.23971 0.0
C426 C 0.51933 0.81446 0.15269 0.0
C427 C 0.52762 0.81341 0.09232 0.0
C428 C 0.5054 0.72692 0.19498 0.0
C429 C 0.51098 0.77073 0.17117 0.0
C430 C 0.51211 0.71219 0.23288 0.0
C431 C 0.52323 0.72171 0.29134 0.0
C432 C 0.50988 0.75132 0.21576 0.0
C433 C 0.52444 0.74462 0.3134 0.0
C434 C 0.51104 0.79321 0.19218 0.0
C435 C 0.52462 0.78962 0.07095 0.0
N436 N 0.51841 0.75906 0.27486 0.0
N437 N 0.51703 0.76929 0.11089 0.0
H438 H 0.72688 0.51828 0.35846 0.0
H439 H 0.7939 0.54708 0.68938 0.0
H440 H 0.75724 0.59013 0.46365 0.0
H441 H 0.81792 0.51094 0.55009 0.0
H442 H 0.76079 0.54514 0.61789 0.0
H443 H 0.74592 0.5018 0.43623 0.0
C444 C 0.73781 0.53067 0.39709 0.0
C445 C 0.74031 0.5555 0.40499 0.0
C446 C 0.77268 0.53671 0.60399 0.0
C447 C 0.76028 0.53632 0.49445 0.0
C448 C 0.7913 0.53754 0.64496 0.0
C449 C 0.80893 0.52979 0.62464 0.0
C450 C 0.77188 0.52803 0.54303 0.0
C451 C 0.80489 0.51764 0.56652 0.0
C452 C 0.74814 0.52109 0.44171 0.0
C453 C 0.75443 0.5707 0.45613 0.0
N454 N 0.78714 0.51774 0.52671 0.0
N455 N 0.76354 0.56074 0.49919 0.0
H456 H 0.18019 0.69968 0.83133 0.0
H457 H 0.30811 0.83864 0.86555 0.0
H458 H 0.21809 0.75334 0.68045 0.0
H459 H 0.25925 0.79344 1.01812 0.0
H460 H 0.28377 0.80121 0.79742 0.0
H461 H 0.21752 0.72712 0.89753 0.0
C462 C 0.19667 0.71703 0.81179 0.0
C463 C 0.19581 0.72476 0.75089 0.0
C464 C 0.27861 0.79931 0.84594 0.0
C465 C 0.23838 0.75622 0.82656 0.0
C466 C 0.29238 0.82069 0.88492 0.0
C467 C 0.28508 0.81936 0.94723 0.0
C468 C 0.25725 0.77646 0.86922 0.0
C469 C 0.26518 0.7954 0.97016 0.0
C470 C 0.21793 0.73263 0.84965 0.0
C471 C 0.21787 0.74693 0.72741 0.0
N472 N 0.25156 0.77496 0.93076 0.0
N473 N 0.23811 0.76227 0.76581 0.0
H474 H 0.4668 0.20903 0.02366 0.0
H475 H 0.46073 0.2492 0.37088 0.0
H476 H 0.45344 0.15894 0.18114 0.0
H477 H 0.47706 0.30047 0.2147 0.0
H478 H 0.46781 0.21944 0.30477 0.0
H479 H 0.47962 0.24599 0.0945 0.0
C480 C 0.46682 0.20586 0.07293 0.0
C481 C 0.45831 0.18075 0.09652 0.0
C482 C 0.47037 0.23749 0.28528 0.0
C483 C 0.47294 0.22273 0.17766 0.0
C484 C 0.46649 0.25449 0.32317 0.0
C485 C 0.46764 0.27683 0.2976 0.0
C486 C 0.47528 0.24299 0.22176 0.0
C487 C 0.47529 0.28297 0.23563 0.0
C488 C 0.47419 0.22693 0.11341 0.0
C489 C 0.4591 0.17781 0.16083 0.0
N490 N 0.47834 0.2659 0.1995 0.0
N491 N 0.4659 0.19844 0.19911 0.0
H492 H 0.39402 0.48701 0.43413 0.0
H493 H 0.50933 0.60952 0.26333 0.0
H494 H 0.39002 0.50399 0.24184 0.0
H495 H 0.49409 0.61285 0.45743 0.0
H496 H 0.46973 0.56681 0.25624 0.0
H497 H 0.43461 0.52931 0.44457 0.0
C498 C 0.40177 0.49953 0.39398 0.0
C499 C 0.38864 0.49194 0.3369 0.0
C500 C 0.47509 0.57685 0.30041 0.0
C501 C 0.43506 0.54012 0.34868 0.0
C502 C 0.49782 0.60119 0.30477 0.0
C503 C 0.50514 0.61488 0.36122 0.0
C504 C 0.45962 0.56573 0.353 0.0
C505 C 0.48918 0.60304 0.41301 0.0
C506 C 0.42481 0.5237 0.4002 0.0
C507 C 0.39945 0.50907 0.28668 0.0
N508 N 0.46718 0.57902 0.40776 0.0
N509 N 0.42214 0.53227 0.29363 0.0
H510 H 0.90528 0.50917 0.59964 0.0
H511 H 0.90375 0.39076 0.7774 0.0
H512 H 0.8853 0.49483 0.79317 0.0
H513 H 0.88644 0.38739 0.5826 0.0
H514 H 0.90489 0.4327 0.78449 0.0
H515 H 0.90637 0.46846 0.59393 0.0
C516 C 0.90138 0.49762 0.64127 0.0
C517 C 0.89522 0.50554 0.69718 0.0
C518 C 0.90092 0.42279 0.74024 0.0
C519 C 0.89652 0.45876 0.69049 0.0
C520 C 0.90046 0.39894 0.73588 0.0
C521 C 0.89504 0.3855 0.67913 0.0
C522 C 0.89641 0.43359 0.68734 0.0
C523 C 0.89066 0.39701 0.62722 0.0
C524 C 0.90183 0.47426 0.63766 0.0
C525 C 0.89009 0.4895 0.74918 0.0
N526 N 0.89158 0.42048 0.6325 0.0
N527 N 0.89099 0.46688 0.74466 0.0
H528 H 0.53103 0.94041 0.02239 0.0
H529 H 0.3776 0.8589 0.06611 0.0
H530 H 0.48548 0.85964 0.96423 0.0
H531 H 0.41462 0.93999 1.01052 0.0
H532 H 0.41914 0.85974 0.04906 0.0
H533 H 0.49021 0.94176 0.03459 0.0
C534 C 0.51248 0.92311 1.0114 0.0
C535 C 0.51159 0.89991 0.99197 0.0
C536 C 0.41813 0.87735 0.04092 0.0
C537 C 0.46512 0.9011 1.00793 0.0
C538 C 0.39458 0.87699 0.05129 0.0
C539 C 0.39272 0.89942 0.03972 0.0
C540 C 0.44012 0.90045 0.02021 0.0
C541 C 0.41526 0.92226 0.01978 0.0
C542 C 0.48929 0.92389 0.0185 0.0
C543 C 0.48706 0.87799 0.97868 0.0
N544 N 0.43815 0.92226 1.01099 0.0
N545 N 0.46475 0.87899 0.98787 0.0
H546 H 0.61806 0.50023 0.24156 0.0
H547 H 0.51347 0.39079 0.46643 0.0
H548 H 0.6174 0.51272 0.43804 0.0
H549 H 0.49719 0.39633 0.27428 0.0
H550 H 0.55479 0.43258 0.45664 0.0
H551 H 0.5766 0.45873 0.25218 0.0
C552 C 0.60922 0.49426 0.28685 0.0
C553 C 0.62114 0.51006 0.33888 0.0
C554 C 0.54204 0.42461 0.41681 0.0
C555 C 0.57402 0.46253 0.35146 0.0
C556 C 0.51853 0.40078 0.42232 0.0
C557 C 0.50176 0.39009 0.37123 0.0
C558 C 0.54905 0.43752 0.35952 0.0
C559 C 0.50935 0.4039 0.3151 0.0
C560 C 0.58555 0.47065 0.29285 0.0
C561 C 0.60879 0.50132 0.39654 0.0
N562 N 0.5325 0.42676 0.31065 0.0
N563 N 0.58602 0.47808 0.40134 0.0
H564 H 0.07008 0.59469 0.68802 0.0
H565 H 0.15239 0.52352 0.73889 0.0
H566 H 0.15173 0.63102 0.63748 0.0
H567 H 0.0719 0.47984 0.67799 0.0
H568 H 0.15148 0.56435 0.72431 0.0
H569 H 0.06932 0.55298 0.70317 0.0
C570 C 0.08773 0.59378 0.67943 0.0
C571 C 0.11095 0.61622 0.661 0.0
C572 C 0.13399 0.54577 0.7147 0.0
C573 C 0.11043 0.56909 0.68043 0.0
C574 C 0.13438 0.5225 0.72371 0.0
C575 C 0.11217 0.49831 0.70964 0.0
C576 C 0.11107 0.54476 0.69282 0.0
C577 C 0.08944 0.49813 0.68922 0.0
C578 C 0.08729 0.57008 0.68825 0.0
C579 C 0.13335 0.61408 0.65092 0.0
N580 N 0.08942 0.52102 0.68163 0.0
N581 N 0.13264 0.591 0.66163 0.0
H582 H 0.62666 0.1463 0.0833 0.0
H583 H 0.4733 0.06308 0.02304 0.0
H584 H 0.59087 0.06686 1.01501 0.0
H585 H 0.51847 0.14592 0.98456 0.0
H586 H 0.51434 0.06266 0.04045 0.0
H587 H 0.58461 0.14488 0.07092 0.0
C588 C 0.60983 0.12837 0.06699 0.0
C589 C 0.61223 0.10665 0.0501 0.0
C590 C 0.51516 0.08085 0.02791 0.0
C591 C 0.56426 0.105 0.03577 0.0
C592 C 0.49186 0.08112 1.01794 0.0
C593 C 0.49257 0.10455 1.00199 0.0
C594 C 0.53922 0.10432 0.02364 0.0
C595 C 0.51708 0.1274 0.9961 0.0
C596 C 0.58597 0.12771 0.05928 0.0
C597 C 0.58984 0.08405 0.02837 0.0
N598 N 0.53945 0.12678 1.00764 0.0
N599 N 0.56672 0.08376 0.02193 0.0
loop_
_geom_bond_atom_site_label_1
_geom_bond_atom_site_label_2
_geom_bond_distance
_geom_bond_site_symmetry_2
_ccdc_geom_bond_type
Co0 O1 2.216 . S
Co0 O2 2.091 . S
Co0 O4 2.004 . S
Co0 O10 2.021 . S
Co0 O12 2.137 . S
Co0 O13 2.244 . S
O1 Co0 2.216 . S
O1 C8 1.247 . S
O2 Co0 2.091 . S
O2 C8 1.261 . S
C3 O12 1.247 . S
C3 O13 1.272 . S
O4 Co0 2.004 . S
O4 C9 1.259 . S
Co5 O6 2.061 . S
Co5 O11 2.052 . S
Co5 O13 2.135 . S
O6 Co5 2.061 . S
O6 C9 1.235 . S
C7 O10 1.238 . S
C7 O11 1.241 . S
C8 O1 1.247 . S
C8 O2 1.261 . S
C9 O4 1.259 . S
C9 O6 1.235 . S
O10 Co0 2.021 . S
O10 C7 1.238 . S
O11 Co5 2.052 . S
O11 C7 1.241 . S
O12 Co0 2.137 . S
O12 C3 1.247 . S
O13 Co0 2.244 . S
O13 C3 1.272 . S
O13 Co5 2.135 . S
Co14 O15 2.216 . S
Co14 O16 2.091 . S
Co14 O18 2.004 . S
Co14 O24 2.021 . S
Co14 O26 2.137 . S
Co14 O27 2.244 . S
O15 Co14 2.216 . S
O15 C22 1.247 . S
O16 Co14 2.091 . S
O16 C22 1.261 . S
C17 O26 1.247 . S
C17 O27 1.272 . S
O18 Co14 2.004 . S
O18 C23 1.259 . S
Co19 O20 2.061 . S
Co19 O25 2.052 . S
Co19 O27 2.135 . S
O20 Co19 2.061 . S
O20 C23 1.235 . S
C21 O24 1.238 . S
C21 O25 1.241 . S
C22 O15 1.247 . S
C22 O16 1.261 . S
C23 O18 1.259 . S
C23 O20 1.235 . S
O24 Co14 2.021 . S
O24 C21 1.238 . S
O25 Co19 2.052 . S
O25 C21 1.241 . S
O26 Co14 2.137 . S
O26 C17 1.247 . S
O27 Co14 2.244 . S
O27 C17 1.272 . S
O27 Co19 2.135 . S
Co28 O29 2.216 . S
Co28 O30 2.091 . S
Co28 O32 2.004 . S
Co28 O38 2.021 . S
Co28 O40 2.137 . S
Co28 O41 2.244 . S
O29 Co28 2.216 . S
O29 C36 1.247 . S
O30 Co28 2.091 . S
O30 C36 1.261 . S
C31 O40 1.247 . S
C31 O41 1.272 . S
O32 Co28 2.004 . S
O32 C37 1.259 . S
Co33 O34 2.061 . S
Co33 O39 2.052 . S
Co33 O41 2.135 1_554 S
O34 Co33 2.061 . S
O34 C37 1.235 1_554 S
C35 O38 1.238 1_554 S
C35 O39 1.241 . S
C36 O29 1.247 . S
C36 O30 1.261 . S
C37 O32 1.259 . S
C37 O34 1.235 1_556 S
O38 Co28 2.021 . S
O38 C35 1.238 1_556 S
O39 Co33 2.052 . S
O39 C35 1.241 . S
O40 Co28 2.137 . S
O40 C31 1.247 . S
O41 Co28 2.244 . S
O41 C31 1.272 . S
O41 Co33 2.135 1_556 S
Co42 O43 2.216 . S
Co42 O44 2.091 . S
Co42 O46 2.004 . S
Co42 O52 2.021 . S
Co42 O54 2.137 . S
Co42 O55 2.244 . S
O43 Co42 2.216 . S
O43 C50 1.247 . S
O44 Co42 2.091 . S
O44 C50 1.261 . S
C45 O54 1.247 . S
C45 O55 1.272 . S
O46 Co42 2.004 . S
O46 C51 1.259 . S
Co47 O48 2.061 . S
Co47 O53 2.052 . S
Co47 O55 2.135 . S
O48 Co47 2.061 . S
O48 C51 1.235 . S
C49 O52 1.238 . S
C49 O53 1.241 . S
C50 O43 1.247 . S
C50 O44 1.261 . S
C51 O46 1.259 . S
C51 O48 1.235 . S
O52 Co42 2.021 . S
O52 C49 1.238 . S
O53 Co47 2.052 . S
O53 C49 1.241 . S
O54 Co42 2.137 . S
O54 C45 1.247 . S
O55 Co42 2.244 . S
O55 C45 1.272 . S
O55 Co47 2.135 . S
Co56 O57 2.216 . S
Co56 O58 2.091 . S
Co56 O60 2.004 . S
Co56 O66 2.021 . S
Co56 O68 2.137 . S
Co56 O69 2.244 . S
O57 Co56 2.216 . S
O57 C64 1.247 . S
O58 Co56 2.091 . S
O58 C64 1.261 . S
C59 O68 1.247 . S
C59 O69 1.272 . S
O60 Co56 2.004 . S
O60 C65 1.259 . S
Co61 O62 2.061 . S
Co61 O67 2.052 . S
Co61 O69 2.135 . S
O62 Co61 2.061 . S
O62 C65 1.235 . S
C63 O66 1.238 . S
C63 O67 1.241 . S
C64 O57 1.247 . S
C64 O58 1.261 . S
C65 O60 1.259 . S
C65 O62 1.235 . S
O66 Co56 2.021 . S
O66 C63 1.238 . S
O67 Co61 2.052 . S
O67 C63 1.241 . S
O68 Co56 2.137 . S
O68 C59 1.247 . S
O69 Co56 2.244 . S
O69 C59 1.272 . S
O69 Co61 2.135 . S
Co70 O71 2.216 . S
Co70 O72 2.091 . S
Co70 O74 2.004 . S
Co70 O80 2.021 . S
Co70 O82 2.137 . S
Co70 O83 2.244 . S
O71 Co70 2.216 . S
O71 C78 1.247 . S
O72 Co70 2.091 . S
O72 C78 1.261 . S
C73 O82 1.247 . S
C73 O83 1.272 . S
O74 Co70 2.004 . S
O74 C79 1.259 . S
Co75 O76 2.061 . S
Co75 O81 2.052 . S
Co75 O83 2.135 1_554 S
O76 Co75 2.061 . S
O76 C79 1.235 1_554 S
C77 O80 1.238 1_554 S
C77 O81 1.241 . S
C78 O71 1.247 . S
C78 O72 1.261 . S
C79 O74 1.259 . S
C79 O76 1.235 1_556 S
O80 Co70 2.021 . S
O80 C77 1.238 1_556 S
O81 Co75 2.052 . S
O81 C77 1.241 . S
O82 Co70 2.137 . S
O82 C73 1.247 . S
O83 Co70 2.244 . S
O83 C73 1.272 . S
O83 Co75 2.135 1_556 S
Co84 O85 2.216 . S
Co84 O86 2.091 . S
Co84 O88 2.004 . S
Co84 O94 2.021 . S
Co84 O96 2.137 . S
Co84 O97 2.244 . S
O85 Co84 2.216 . S
O85 C92 1.247 . S
O86 Co84 2.091 . S
O86 C92 1.261 . S
C87 O96 1.247 . S
C87 O97 1.272 . S
O88 Co84 2.004 . S
O88 C93 1.259 . S
Co89 O90 2.061 . S
Co89 O95 2.052 . S
Co89 O97 2.135 . S
O90 Co89 2.061 . S
O90 C93 1.235 . S
C91 O94 1.238 . S
C91 O95 1.241 . S
C92 O85 1.247 . S
C92 O86 1.261 . S
C93 O88 1.259 . S
C93 O90 1.235 . S
O94 Co84 2.021 . S
O94 C91 1.238 . S
O95 Co89 2.052 . S
O95 C91 1.241 . S
O96 Co84 2.137 . S
O96 C87 1.247 . S
O97 Co84 2.244 . S
O97 C87 1.272 . S
O97 Co89 2.135 . S
Co98 O99 2.216 . S
Co98 O100 2.091 . S
Co98 O102 2.004 . S
Co98 O108 2.021 . S
Co98 O110 2.137 . S
Co98 O111 2.244 . S
O99 Co98 2.216 . S
O99 C106 1.247 . S
O100 Co98 2.091 . S
O100 C106 1.261 . S
C101 O110 1.247 . S
C101 O111 1.272 . S
O102 Co98 2.004 . S
O102 C107 1.259 . S
Co103 O104 2.061 . S
Co103 O109 2.052 . S
Co103 O111 2.135 . S
O104 Co103 2.061 . S
O104 C107 1.235 . S
C105 O108 1.238 . S
C105 O109 1.241 . S
C106 O99 1.247 . S
C106 O100 1.261 . S
C107 O102 1.259 . S
C107 O104 1.235 . S
O108 Co98 2.021 . S
O108 C105 1.238 . S
O109 Co103 2.052 . S
O109 C105 1.241 . S
O110 Co98 2.137 . S
O110 C101 1.247 . S
O111 Co98 2.244 . S
O111 C101 1.272 . S
O111 Co103 2.135 . S
Co112 O113 2.216 . S
Co112 O114 2.091 . S
Co112 O116 2.004 . S
Co112 O122 2.021 . S
Co112 O124 2.137 . S
Co112 O125 2.244 . S
O113 Co112 2.216 . S
O113 C120 1.247 . S
O114 Co112 2.091 . S
O114 C120 1.261 . S
C115 O124 1.247 . S
C115 O125 1.272 . S
O116 Co112 2.004 . S
O116 C121 1.259 . S
Co117 O118 2.061 . S
Co117 O123 2.052 . S
Co117 O125 2.135 1_556 S
O118 Co117 2.061 . S
O118 C121 1.235 1_556 S
C119 O122 1.238 1_556 S
C119 O123 1.241 . S
C120 O113 1.247 . S
C120 O114 1.261 . S
C121 O116 1.259 . S
C121 O118 1.235 1_554 S
O122 Co112 2.021 . S
O122 C119 1.238 1_554 S
O123 Co117 2.052 . S
O123 C119 1.241 . S
O124 Co112 2.137 . S
O124 C115 1.247 . S
O125 Co112 2.244 . S
O125 C115 1.272 . S
O125 Co117 2.135 1_554 S
Co126 O127 2.216 . S
Co126 O128 2.091 . S
Co126 O130 2.004 . S
Co126 O136 2.021 . S
Co126 O138 2.137 . S
Co126 O139 2.244 . S
O127 Co126 2.216 . S
O127 C134 1.247 . S
O128 Co126 2.091 . S
O128 C134 1.261 . S
C129 O138 1.247 . S
C129 O139 1.272 . S
O130 Co126 2.004 . S
O130 C135 1.259 . S
Co131 O132 2.061 . S
Co131 O137 2.052 . S
Co131 O139 2.135 . S
O132 Co131 2.061 . S
O132 C135 1.235 . S
C133 O136 1.238 . S
C133 O137 1.241 . S
C134 O127 1.247 . S
C134 O128 1.261 . S
C135 O130 1.259 . S
C135 O132 1.235 . S
O136 Co126 2.021 . S
O136 C133 1.238 . S
O137 Co131 2.052 . S
O137 C133 1.241 . S
O138 Co126 2.137 . S
O138 C129 1.247 . S
O139 Co126 2.244 . S
O139 C129 1.272 . S
O139 Co131 2.135 . S
Co140 O141 2.216 . S
Co140 O142 2.091 . S
Co140 O144 2.004 . S
Co140 O150 2.021 . S
Co140 O152 2.137 . S
Co140 O153 2.244 . S
O141 Co140 2.216 . S
O141 C148 1.247 . S
O142 Co140 2.091 . S
O142 C148 1.261 . S
C143 O152 1.247 . S
C143 O153 1.272 . S
O144 Co140 2.004 . S
O144 C149 1.259 . S
Co145 O146 2.061 . S
Co145 O151 2.052 . S
Co145 O153 2.135 . S
O146 Co145 2.061 . S
O146 C149 1.235 . S
C147 O150 1.238 . S
C147 O151 1.241 . S
C148 O141 1.247 . S
C148 O142 1.261 . S
C149 O144 1.259 . S
C149 O146 1.235 . S
O150 Co140 2.021 . S
O150 C147 1.238 . S
O151 Co145 2.052 . S
O151 C147 1.241 . S
O152 Co140 2.137 . S
O152 C143 1.247 . S
O153 Co140 2.244 . S
O153 C143 1.272 . S
O153 Co145 2.135 . S
Co154 O155 2.216 . S
Co154 O156 2.091 . S
Co154 O158 2.004 . S
Co154 O164 2.021 . S
Co154 O166 2.137 . S
Co154 O167 2.244 . S
O155 Co154 2.216 . S
O155 C162 1.247 . S
O156 Co154 2.091 . S
O156 C162 1.261 . S
C157 O166 1.247 . S
C157 O167 1.272 . S
O158 Co154 2.004 . S
O158 C163 1.259 . S
Co159 O160 2.061 . S
Co159 O165 2.052 . S
Co159 O167 2.135 1_556 S
O160 Co159 2.061 . S
O160 C163 1.235 1_556 S
C161 O164 1.238 1_556 S
C161 O165 1.241 . S
C162 O155 1.247 . S
C162 O156 1.261 . S
C163 O158 1.259 . S
C163 O160 1.235 1_554 S
O164 Co154 2.021 . S
O164 C161 1.238 1_554 S
O165 Co159 2.052 . S
O165 C161 1.241 . S
O166 Co154 2.137 . S
O166 C157 1.247 . S
O167 Co154 2.244 . S
O167 C157 1.272 . S
O167 Co159 2.135 1_554 S
H168 C174 0.930 . S
H169 C178 0.930 . S
H170 C183 0.929 . S
H171 C181 0.929 . S
H172 C176 0.929 . S
H173 C182 0.929 . S
C174 H168 0.930 . S
C174 C175 1.367 . S
C174 C182 1.378 . S
C175 C174 1.367 . S
C175 C183 1.433 . S
C176 H172 0.929 . S
C176 C178 1.378 . S
C176 C180 1.350 . S
C177 C180 1.463 . S
C177 C182 1.350 . S
C177 N185 1.427 . S
C178 H169 0.930 . S
C178 C176 1.378 . S
C178 C179 1.367 . S
C179 C178 1.367 . S
C179 C181 1.433 . S
C180 C176 1.350 . S
C180 C177 1.463 . S
C180 N184 1.427 . S
C181 H171 0.929 . S
C181 C179 1.433 . S
C181 N184 1.384 . S
C182 H173 0.929 . S
C182 C174 1.378 . S
C182 C177 1.350 . S
C183 H170 0.929 . S
C183 C175 1.433 . S
C183 N185 1.384 . S
N184 C180 1.427 . S
N184 C181 1.384 . S
N185 C177 1.427 . S
N185 C183 1.384 . S
H186 C192 0.930 . S
H187 C196 0.930 . S
H188 C201 0.929 . S
H189 C199 0.929 . S
H190 C194 0.929 . S
H191 C200 0.929 . S
C192 H186 0.930 . S
C192 C193 1.367 . S
C192 C200 1.378 . S
C193 C192 1.367 . S
C193 C201 1.433 . S
C194 H190 0.929 . S
C194 C196 1.378 . S
C194 C198 1.350 . S
C195 C198 1.463 1_655 S
C195 C200 1.350 . S
C195 N203 1.427 . S
C196 H187 0.930 . S
C196 C194 1.378 . S
C196 C197 1.367 . S
C197 C196 1.367 . S
C197 C199 1.433 . S
C198 C194 1.350 . S
C198 C195 1.463 1_455 S
C198 N202 1.427 . S
C199 H189 0.929 . S
C199 C197 1.433 . S
C199 N202 1.384 . S
C200 H191 0.929 . S
C200 C192 1.378 . S
C200 C195 1.350 . S
C201 H188 0.929 . S
C201 C193 1.433 . S
C201 N203 1.384 . S
N202 C198 1.427 . S
N202 C199 1.384 . S
N203 C195 1.427 . S
N203 C201 1.384 . S
H204 C210 0.930 . S
H205 C214 0.930 . S
H206 C219 0.929 . S
H207 C217 0.929 . S
H208 C212 0.929 . S
H209 C218 0.929 . S
C210 H204 0.930 . S
C210 C211 1.367 . S
C210 C218 1.378 . S
C211 C210 1.367 . S
C211 C219 1.433 1_556 S
C212 H208 0.929 . S
C212 C214 1.378 . S
C212 C216 1.350 . S
C213 C216 1.463 1_566 S
C213 C218 1.350 . S
C213 N221 1.427 1_556 S
C214 H205 0.930 . S
C214 C212 1.378 . S
C214 C215 1.367 . S
C215 C214 1.367 . S
C215 C217 1.433 1_554 S
C216 C212 1.350 . S
C216 C213 1.463 1_544 S
C216 N220 1.427 1_554 S
C217 H207 0.929 . S
C217 C215 1.433 1_556 S
C217 N220 1.384 . S
C218 H209 0.929 . S
C218 C210 1.378 . S
C218 C213 1.350 . S
C219 H206 0.929 . S
C219 C211 1.433 1_554 S
C219 N221 1.384 . S
N220 C216 1.427 1_556 S
N220 C217 1.384 . S
N221 C213 1.427 1_554 S
N221 C219 1.384 . S
H222 C228 0.930 . S
H223 C232 0.930 . S
H224 C237 0.929 . S
H225 C235 0.929 . S
H226 C230 0.929 . S
H227 C236 0.929 . S
C228 H222 0.930 . S
C228 C229 1.367 . S
C228 C236 1.378 . S
C229 C228 1.367 . S
C229 C237 1.433 . S
C230 H226 0.929 . S
C230 C232 1.378 . S
C230 C234 1.350 . S
C231 C234 1.463 . S
C231 C236 1.350 . S
C231 N239 1.427 . S
C232 H223 0.930 . S
C232 C230 1.378 . S
C232 C233 1.367 . S
C233 C232 1.367 . S
C233 C235 1.433 . S
C234 C230 1.350 . S
C234 C231 1.463 . S
C234 N238 1.427 . S
C235 H225 0.929 . S
C235 C233 1.433 . S
C235 N238 1.384 . S
C236 H227 0.929 . S
C236 C228 1.378 . S
C236 C231 1.350 . S
C237 H224 0.929 . S
C237 C229 1.433 . S
C237 N239 1.384 . S
N238 C234 1.427 . S
N238 C235 1.384 . S
N239 C231 1.427 . S
N239 C237 1.384 . S
H240 C246 0.930 . S
H241 C250 0.930 . S
H242 C255 0.929 . S
H243 C253 0.929 . S
H244 C248 0.929 . S
H245 C254 0.929 . S
C246 H240 0.930 . S
C246 C247 1.367 . S
C246 C254 1.378 . S
C247 C246 1.367 . S
C247 C255 1.433 . S
C248 H244 0.929 . S
C248 C250 1.378 . S
C248 C252 1.350 . S
C249 C252 1.463 1_655 S
C249 C254 1.350 . S
C249 N257 1.427 . S
C250 H241 0.930 . S
C250 C248 1.378 . S
C250 C251 1.367 . S
C251 C250 1.367 . S
C251 C253 1.433 . S
C252 C248 1.350 . S
C252 C249 1.463 1_455 S
C252 N256 1.427 . S
C253 H243 0.929 . S
C253 C251 1.433 . S
C253 N256 1.384 . S
C254 H245 0.929 . S
C254 C246 1.378 . S
C254 C249 1.350 . S
C255 H242 0.929 . S
C255 C247 1.433 . S
C255 N257 1.384 . S
N256 C252 1.427 . S
N256 C253 1.384 . S
N257 C249 1.427 . S
N257 C255 1.384 . S
H258 C264 0.930 . S
H259 C268 0.930 . S
H260 C273 0.929 . S
H261 C271 0.929 . S
H262 C266 0.929 . S
H263 C272 0.929 . S
C264 H258 0.930 . S
C264 C265 1.367 1_556 S
C264 C272 1.378 . S
C265 C264 1.367 1_554 S
C265 C273 1.433 . S
C266 H262 0.929 . S
C266 C268 1.378 . S
C266 C270 1.350 1_554 S
C267 C270 1.463 1_564 S
C267 C272 1.350 1_554 S
C267 N275 1.427 . S
C268 H259 0.930 . S
C268 C266 1.378 . S
C268 C269 1.367 1_554 S
C269 C268 1.367 1_556 S
C269 C271 1.433 . S
C270 C266 1.350 1_556 S
C270 C267 1.463 1_546 S
C270 N274 1.427 . S
C271 H261 0.929 . S
C271 C269 1.433 . S
C271 N274 1.384 . S
C272 H263 0.929 . S
C272 C264 1.378 . S
C272 C267 1.350 1_556 S
C273 H260 0.929 . S
C273 C265 1.433 . S
C273 N275 1.384 . S
N274 C270 1.427 . S
N274 C271 1.384 . S
N275 C267 1.427 . S
N275 C273 1.384 . S
H276 C282 0.930 . S
H277 C286 0.930 . S
H278 C291 0.929 . S
H279 C289 0.929 . S
H280 C284 0.929 . S
H281 C290 0.929 . S
C282 H276 0.930 . S
C282 C283 1.367 . S
C282 C290 1.378 . S
C283 C282 1.367 . S
C283 C291 1.433 . S
C284 H280 0.929 . S
C284 C286 1.378 . S
C284 C288 1.350 . S
C285 C288 1.463 1_556 S
C285 C290 1.350 . S
C285 N293 1.427 . S
C286 H277 0.930 . S
C286 C284 1.378 . S
C286 C287 1.367 . S
C287 C286 1.367 . S
C287 C289 1.433 . S
C288 C284 1.350 . S
C288 C285 1.463 1_554 S
C288 N292 1.427 . S
C289 H279 0.929 . S
C289 C287 1.433 . S
C289 N292 1.384 . S
C290 H281 0.929 . S
C290 C282 1.378 . S
C290 C285 1.350 . S
C291 H278 0.929 . S
C291 C283 1.433 . S
C291 N293 1.384 . S
N292 C288 1.427 . S
N292 C289 1.384 . S
N293 C285 1.427 . S
N293 C291 1.384 . S
H294 C300 0.930 . S
H295 C304 0.930 . S
H296 C309 0.929 . S
H297 C307 0.929 . S
H298 C302 0.929 . S
H299 C308 0.929 . S
C300 H294 0.930 . S
C300 C301 1.367 . S
C300 C308 1.378 . S
C301 C300 1.367 . S
C301 C309 1.433 . S
C302 H298 0.929 . S
C302 C304 1.378 . S
C302 C306 1.350 . S
C303 C306 1.463 . S
C303 C308 1.350 . S
C303 N311 1.427 . S
C304 H295 0.930 . S
C304 C302 1.378 . S
C304 C305 1.367 . S
C305 C304 1.367 . S
C305 C307 1.433 . S
C306 C302 1.350 . S
C306 C303 1.463 . S
C306 N310 1.427 . S
C307 H297 0.929 . S
C307 C305 1.433 . S
C307 N310 1.384 . S
C308 H299 0.929 . S
C308 C300 1.378 . S
C308 C303 1.350 . S
C309 H296 0.929 . S
C309 C301 1.433 . S
C309 N311 1.384 . S
N310 C306 1.427 . S
N310 C307 1.384 . S
N311 C303 1.427 . S
N311 C309 1.384 . S
H312 C318 0.930 . S
H313 C322 0.930 . S
H314 C327 0.929 . S
H315 C325 0.929 . S
H316 C320 0.929 . S
H317 C326 0.929 . S
C318 H312 0.930 . S
C318 C319 1.367 . S
C318 C326 1.378 . S
C319 C318 1.367 . S
C319 C327 1.433 . S
C320 H316 0.929 . S
C320 C322 1.378 . S
C320 C324 1.350 . S
C321 C324 1.463 . S
C321 C326 1.350 . S
C321 N329 1.427 . S
C322 H313 0.930 . S
C322 C320 1.378 . S
C322 C323 1.367 . S
C323 C322 1.367 . S
C323 C325 1.433 . S
C324 C320 1.350 . S
C324 C321 1.463 . S
C324 N328 1.427 . S
C325 H315 0.929 . S
C325 C323 1.433 . S
C325 N328 1.384 . S
C326 H317 0.929 . S
C326 C318 1.378 . S
C326 C321 1.350 . S
C327 H314 0.929 . S
C327 C319 1.433 . S
C327 N329 1.384 . S
N328 C324 1.427 . S
N328 C325 1.384 . S
N329 C321 1.427 . S
N329 C327 1.384 . S
H330 C336 0.930 . S
H331 C340 0.930 . S
H332 C345 0.929 . S
H333 C343 0.929 . S
H334 C338 0.929 1_554 S
H335 C344 0.929 1_556 S
C336 H330 0.930 . S
C336 C337 1.367 . S
C336 C344 1.378 . S
C337 C336 1.367 . S
C337 C345 1.433 . S
C338 H334 0.929 1_556 S
C338 C340 1.378 . S
C338 C342 1.350 . S
C339 C342 1.463 1_554 S
C339 C344 1.350 . S
C339 N347 1.427 . S
C340 H331 0.930 . S
C340 C338 1.378 . S
C340 C341 1.367 . S
C341 C340 1.367 . S
C341 C343 1.433 . S
C342 C338 1.350 . S
C342 C339 1.463 1_556 S
C342 N346 1.427 . S
C343 H333 0.929 . S
C343 C341 1.433 . S
C343 N346 1.384 . S
C344 H335 0.929 1_554 S
C344 C336 1.378 . S
C344 C339 1.350 . S
C345 H332 0.929 . S
C345 C337 1.433 . S
C345 N347 1.384 . S
N346 C342 1.427 . S
N346 C343 1.384 . S
N347 C339 1.427 . S
N347 C345 1.384 . S
H348 C354 0.930 . S
H349 C358 0.930 . S
H350 C363 0.929 . S
H351 C361 0.929 . S
H352 C356 0.929 . S
H353 C362 0.929 . S
C354 H348 0.930 . S
C354 C355 1.367 . S
C354 C362 1.378 . S
C355 C354 1.367 . S
C355 C363 1.433 . S
C356 H352 0.929 . S
C356 C358 1.378 . S
C356 C360 1.350 . S
C357 C360 1.463 . S
C357 C362 1.350 . S
C357 N365 1.427 . S
C358 H349 0.930 . S
C358 C356 1.378 . S
C358 C359 1.367 . S
C359 C358 1.367 . S
C359 C361 1.433 . S
C360 C356 1.350 . S
C360 C357 1.463 . S
C360 N364 1.427 . S
C361 H351 0.929 . S
C361 C359 1.433 . S
C361 N364 1.384 . S
C362 H353 0.929 . S
C362 C354 1.378 . S
C362 C357 1.350 . S
C363 H350 0.929 . S
C363 C355 1.433 . S
C363 N365 1.384 . S
N364 C360 1.427 . S
N364 C361 1.384 . S
N365 C357 1.427 . S
N365 C363 1.384 . S
H366 C372 0.930 . S
H367 C376 0.930 . S
H368 C381 0.929 . S
H369 C379 0.929 . S
H370 C374 0.929 . S
H371 C380 0.929 . S
C372 H366 0.930 . S
C372 C373 1.367 . S
C372 C380 1.378 . S
C373 C372 1.367 . S
C373 C381 1.433 . S
C374 H370 0.929 . S
C374 C376 1.378 . S
C374 C378 1.350 . S
C375 C378 1.463 . S
C375 C380 1.350 . S
C375 N383 1.427 . S
C376 H367 0.930 . S
C376 C374 1.378 . S
C376 C377 1.367 . S
C377 C376 1.367 . S
C377 C379 1.433 . S
C378 C374 1.350 . S
C378 C375 1.463 . S
C378 N382 1.427 . S
C379 H369 0.929 . S
C379 C377 1.433 . S
C379 N382 1.384 . S
C380 H371 0.929 . S
C380 C372 1.378 . S
C380 C375 1.350 . S
C381 H368 0.929 . S
C381 C373 1.433 . S
C381 N383 1.384 . S
N382 C378 1.427 . S
N382 C379 1.384 . S
N383 C375 1.427 . S
N383 C381 1.384 . S
H384 C390 0.930 . S
H385 C394 0.930 . S
H386 C399 0.929 . S
H387 C397 0.929 . S
H388 C392 0.929 . S
H389 C398 0.929 . S
C390 H384 0.930 . S
C390 C391 1.367 . S
C390 C398 1.378 . S
C391 C390 1.367 . S
C391 C399 1.433 . S
C392 H388 0.929 . S
C392 C394 1.378 . S
C392 C396 1.350 . S
C393 C396 1.463 . S
C393 C398 1.350 . S
C393 N401 1.427 . S
C394 H385 0.930 . S
C394 C392 1.378 . S
C394 C395 1.367 . S
C395 C394 1.367 . S
C395 C397 1.433 . S
C396 C392 1.350 . S
C396 C393 1.463 . S
C396 N400 1.427 . S
C397 H387 0.929 . S
C397 C395 1.433 . S
C397 N400 1.384 . S
C398 H389 0.929 . S
C398 C390 1.378 . S
C398 C393 1.350 . S
C399 H386 0.929 . S
C399 C391 1.433 . S
C399 N401 1.384 . S
N400 C396 1.427 . S
N400 C397 1.384 . S
N401 C393 1.427 . S
N401 C399 1.384 . S
H402 C408 0.930 . S
H403 C412 0.949 . S
H404 C417 0.929 . S
H405 C415 0.929 . S
H406 C410 0.929 . S
H407 C416 0.929 . S
C408 H402 0.930 . S
C408 C409 1.367 . S
C408 C416 1.378 . S
C409 C408 1.367 . S
C409 C417 1.433 . S
C410 H406 0.929 . S
C410 C412 1.378 . S
C410 C414 1.350 . S
C411 C414 1.463 . S
C411 C416 1.350 . S
C411 N419 1.427 . S
C412 H403 0.949 . S
C412 C410 1.378 . S
C412 C413 1.367 . S
C413 C412 1.367 . S
C413 C415 1.433 . S
C414 C410 1.350 . S
C414 C411 1.463 . S
C414 N418 1.427 . S
C415 H405 0.929 . S
C415 C413 1.433 . S
C415 N418 1.384 . S
C416 H407 0.929 . S
C416 C408 1.378 . S
C416 C411 1.350 . S
C417 H404 0.929 . S
C417 C409 1.433 . S
C417 N419 1.384 . S
N418 C414 1.427 . S
N418 C415 1.384 . S
N419 C411 1.427 . S
N419 C417 1.384 . S
H420 C426 0.930 . S
H421 C430 0.930 . S
H422 C435 0.929 1_556 S
H423 C433 0.929 . S
H424 C428 0.929 . S
H425 C434 0.929 . S
C426 H420 0.930 . S
C426 C427 1.367 . S
C426 C434 1.378 . S
C427 C426 1.367 . S
C427 C435 1.433 . S
C428 H424 0.929 . S
C428 C430 1.378 . S
C428 C432 1.350 . S
C429 C432 1.463 . S
C429 C434 1.350 . S
C429 N437 1.427 . S
C430 H421 0.930 . S
C430 C428 1.378 . S
C430 C431 1.367 . S
C431 C430 1.367 . S
C431 C433 1.433 . S
C432 C428 1.350 . S
C432 C429 1.463 . S
C432 N436 1.427 . S
C433 H423 0.929 . S
C433 C431 1.433 . S
C433 N436 1.384 . S
C434 H425 0.929 . S
C434 C426 1.378 . S
C434 C429 1.350 . S
C435 H422 0.929 1_554 S
C435 C427 1.433 . S
C435 N437 1.384 . S
N436 C432 1.427 . S
N436 C433 1.384 . S
N437 C429 1.427 . S
N437 C435 1.384 . S
H438 C444 0.930 . S
H439 C448 0.930 . S
H440 C453 0.929 . S
H441 C451 0.929 . S
H442 C446 0.929 . S
H443 C452 0.929 . S
C444 H438 0.930 . S
C444 C445 1.367 . S
C444 C452 1.378 . S
C445 C444 1.367 . S
C445 C453 1.433 . S
C446 H442 0.929 . S
C446 C448 1.378 . S
C446 C450 1.350 . S
C447 C450 1.463 . S
C447 C452 1.350 . S
C447 N455 1.427 . S
C448 H439 0.930 . S
C448 C446 1.378 . S
C448 C449 1.367 . S
C449 C448 1.367 . S
C449 C451 1.433 . S
C450 C446 1.350 . S
C450 C447 1.463 . S
C450 N454 1.427 . S
C451 H441 0.929 . S
C451 C449 1.433 . S
C451 N454 1.384 . S
C452 H443 0.929 . S
C452 C444 1.378 . S
C452 C447 1.350 . S
C453 H440 0.929 . S
C453 C445 1.433 . S
C453 N455 1.384 . S
N454 C450 1.427 . S
N454 C451 1.384 . S
N455 C447 1.427 . S
N455 C453 1.384 . S
H456 C462 0.930 . S
H457 C466 0.930 . S
H458 C471 0.929 . S
H459 C469 0.929 1_554 S
H460 C464 0.929 . S
H461 C470 0.929 . S
C462 H456 0.930 . S
C462 C463 1.367 . S
C462 C470 1.378 . S
C463 C462 1.367 . S
C463 C471 1.433 . S
C464 H460 0.929 . S
C464 C466 1.378 . S
C464 C468 1.350 . S
C465 C468 1.463 . S
C465 C470 1.350 . S
C465 N473 1.427 . S
C466 H457 0.930 . S
C466 C464 1.378 . S
C466 C467 1.367 . S
C467 C466 1.367 . S
C467 C469 1.433 . S
C468 C464 1.350 . S
C468 C465 1.463 . S
C468 N472 1.427 . S
C469 H459 0.929 1_556 S
C469 C467 1.433 . S
C469 N472 1.384 . S
C470 H461 0.929 . S
C470 C462 1.378 . S
C470 C465 1.350 . S
C471 H458 0.929 . S
C471 C463 1.433 . S
C471 N473 1.384 . S
N472 C468 1.427 . S
N472 C469 1.384 . S
N473 C465 1.427 . S
N473 C471 1.384 . S
H474 C480 0.930 . S
H475 C484 0.930 . S
H476 C489 0.929 . S
H477 C487 0.929 . S
H478 C482 0.929 . S
H479 C488 0.929 . S
C480 H474 0.930 . S
C480 C481 1.367 . S
C480 C488 1.378 . S
C481 C480 1.367 . S
C481 C489 1.433 . S
C482 H478 0.929 . S
C482 C484 1.378 . S
C482 C486 1.350 . S
C483 C486 1.463 . S
C483 C488 1.350 . S
C483 N491 1.427 . S
C484 H475 0.930 . S
C484 C482 1.378 . S
C484 C485 1.367 . S
C485 C484 1.367 . S
C485 C487 1.433 . S
C486 C482 1.350 . S
C486 C483 1.463 . S
C486 N490 1.427 . S
C487 H477 0.929 . S
C487 C485 1.433 . S
C487 N490 1.384 . S
C488 H479 0.929 . S
C488 C480 1.378 . S
C488 C483 1.350 . S
C489 H476 0.929 . S
C489 C481 1.433 . S
C489 N491 1.384 . S
N490 C486 1.427 . S
N490 C487 1.384 . S
N491 C483 1.427 . S
N491 C489 1.384 . S
H492 C498 0.930 . S
H493 C502 0.930 . S
H494 C507 0.929 . S
H495 C505 0.929 . S
H496 C500 0.929 . S
H497 C506 0.929 . S
C498 H492 0.930 . S
C498 C499 1.367 . S
C498 C506 1.378 . S
C499 C498 1.367 . S
C499 C507 1.433 . S
C500 H496 0.929 . S
C500 C502 1.378 . S
C500 C504 1.350 . S
C501 C504 1.463 . S
C501 C506 1.350 . S
C501 N509 1.427 . S
C502 H493 0.930 . S
C502 C500 1.378 . S
C502 C503 1.367 . S
C503 C502 1.367 . S
C503 C505 1.433 . S
C504 C500 1.350 . S
C504 C501 1.463 . S
C504 N508 1.427 . S
C505 H495 0.929 . S
C505 C503 1.433 . S
C505 N508 1.384 . S
C506 H497 0.929 . S
C506 C498 1.378 . S
C506 C501 1.350 . S
C507 H494 0.929 . S
C507 C499 1.433 . S
C507 N509 1.384 . S
N508 C504 1.427 . S
N508 C505 1.384 . S
N509 C501 1.427 . S
N509 C507 1.384 . S
H510 C516 0.930 . S
H511 C520 0.930 . S
H512 C525 0.929 . S
H513 C523 0.929 . S
H514 C518 0.929 . S
H515 C524 0.929 . S
C516 H510 0.930 . S
C516 C517 1.367 . S
C516 C524 1.378 . S
C517 C516 1.367 . S
C517 C525 1.433 . S
C518 H514 0.929 . S
C518 C520 1.378 . S
C518 C522 1.350 . S
C519 C522 1.463 . S
C519 C524 1.350 . S
C519 N527 1.427 . S
C520 H511 0.930 . S
C520 C518 1.378 . S
C520 C521 1.367 . S
C521 C520 1.367 . S
C521 C523 1.433 . S
C522 C518 1.350 . S
C522 C519 1.463 . S
C522 N526 1.427 . S
C523 H513 0.929 . S
C523 C521 1.433 . S
C523 N526 1.384 . S
C524 H515 0.929 . S
C524 C516 1.378 . S
C524 C519 1.350 . S
C525 H512 0.929 . S
C525 C517 1.433 . S
C525 N527 1.384 . S
N526 C522 1.427 . S
N526 C523 1.384 . S
N527 C519 1.427 . S
N527 C525 1.384 . S
H528 C534 0.930 . S
H529 C538 0.930 . S
H530 C543 0.929 . S
H531 C541 0.929 . S
H532 C536 0.929 . S
H533 C542 0.929 . S
C534 H528 0.930 . S
C534 C535 1.367 . S
C534 C542 1.378 . S
C535 C534 1.367 . S
C535 C543 1.433 1_556 S
C536 H532 0.929 . S
C536 C538 1.378 . S
C536 C540 1.350 . S
C537 C540 1.463 1_556 S
C537 C542 1.350 . S
C537 N545 1.427 1_556 S
C538 H529 0.930 . S
C538 C536 1.378 . S
C538 C539 1.367 . S
C539 C538 1.367 . S
C539 C541 1.433 1_554 S
C540 C536 1.350 . S
C540 C537 1.463 1_554 S
C540 N544 1.427 1_554 S
C541 H531 0.929 . S
C541 C539 1.433 1_556 S
C541 N544 1.384 . S
C542 H533 0.929 . S
C542 C534 1.378 . S
C542 C537 1.350 . S
C543 H530 0.929 . S
C543 C535 1.433 1_554 S
C543 N545 1.384 . S
N544 C540 1.427 1_556 S
N544 C541 1.384 . S
N545 C537 1.427 1_554 S
N545 C543 1.384 . S
H546 C552 0.930 . S
H547 C556 0.930 . S
H548 C561 0.929 . S
H549 C559 0.929 . S
H550 C554 0.929 . S
H551 C560 0.929 . S
C552 H546 0.930 . S
C552 C553 1.367 . S
C552 C560 1.378 . S
C553 C552 1.367 . S
C553 C561 1.433 . S
C554 H550 0.929 . S
C554 C556 1.378 . S
C554 C558 1.350 . S
C555 C558 1.463 . S
C555 C560 1.350 . S
C555 N563 1.427 . S
C556 H547 0.930 . S
C556 C554 1.378 . S
C556 C557 1.367 . S
C557 C556 1.367 . S
C557 C559 1.433 . S
C558 C554 1.350 . S
C558 C555 1.463 . S
C558 N562 1.427 . S
C559 H549 0.929 . S
C559 C557 1.433 . S
C559 N562 1.384 . S
C560 H551 0.929 . S
C560 C552 1.378 . S
C560 C555 1.350 . S
C561 H548 0.929 . S
C561 C553 1.433 . S
C561 N563 1.384 . S
N562 C558 1.427 . S
N562 C559 1.384 . S
N563 C555 1.427 . S
N563 C561 1.384 . S
H564 C570 0.930 . S
H565 C574 0.930 . S
H566 C579 0.929 . S
H567 C577 0.929 . S
H568 C572 0.929 . S
H569 C578 0.929 . S
C570 H564 0.930 . S
C570 C571 1.367 . S
C570 C578 1.378 . S
C571 C570 1.367 . S
C571 C579 1.433 . S
C572 H568 0.929 . S
C572 C574 1.378 . S
C572 C576 1.350 . S
C573 C576 1.463 . S
C573 C578 1.350 . S
C573 N581 1.427 . S
C574 H565 0.930 . S
C574 C572 1.378 . S
C574 C575 1.367 . S
C575 C574 1.367 . S
C575 C577 1.433 . S
C576 C572 1.350 . S
C576 C573 1.463 . S
C576 N580 1.427 . S
C577 H567 0.929 . S
C577 C575 1.433 . S
C577 N580 1.384 . S
C578 H569 0.929 . S
C578 C570 1.378 . S
C578 C573 1.350 . S
C579 H566 0.929 . S
C579 C571 1.433 . S
C579 N581 1.384 . S
N580 C576 1.427 . S
N580 C577 1.384 . S
N581 C573 1.427 . S
N581 C579 1.384 . S
H582 C588 0.930 . S
H583 C592 0.930 . S
H584 C597 0.929 . S
H585 C595 0.929 . S
H586 C590 0.929 . S
H587 C596 0.929 . S
C588 H582 0.930 . S
C588 C589 1.367 . S
C588 C596 1.378 . S
C589 C588 1.367 . S
C589 C597 1.433 . S
C590 H586 0.929 . S
C590 C592 1.378 . S
C590 C594 1.350 . S
C591 C594 1.463 1_554 S
C591 C596 1.350 . S
C591 N599 1.427 1_554 S
C592 H583 0.930 . S
C592 C590 1.378 . S
C592 C593 1.367 . S
C593 C592 1.367 . S
C593 C595 1.433 . S
C594 C590 1.350 . S
C594 C591 1.463 1_556 S
C594 N598 1.427 1_556 S
C595 H585 0.929 . S
C595 C593 1.433 . S
C595 N598 1.383 1_556 S
C596 H587 0.929 . S
C596 C588 1.378 . S
C596 C591 1.350 . S
C597 H584 0.929 . S
C597 C589 1.433 . S
C597 N599 1.383 1_554 S
N598 C594 1.427 1_554 S
N598 C595 1.383 1_554 S
N599 C591 1.427 1_556 S
N599 C597 1.383 1_556 S
C175 C3 1.372 . S
C179 C129 1.378 . S
C193 C17 1.371 . S
C197 C143 1.371 . S
C211 C31 1.380 . S
C215 C157 1.380 . S
C229 C45 1.380 . S
C233 C87 1.378 . S
C247 C101 1.379 . S
C251 C59 1.380 . S
C265 C115 1.374 . S
C269 C73 1.371 . S
C283 C148 1.791 . S
C287 C8 1.790 . S
C301 C22 1.795 . S
C305 C162 1.788 . S
C319 C36 1.794 . S
C323 C92 1.789 . S
C337 C50 1.790 . S
C341 C106 1.793 . S
C355 C64 1.795 . S
C359 C120 1.788 . S
C373 C78 1.789 . S
C377 C134 1.793 . S
C391 C147 0.933 . S
C395 C7 0.934 . S
C409 C21 0.941 . S
C413 C161 0.941 . S
C427 C35 0.921 . S
C431 C91 0.921 . S
C445 C49 0.935 . S
C449 C105 0.935 . S
C463 C63 0.921 . S
C467 C119 0.921 . S
C481 C77 0.940 . S
C485 C133 0.940 . S
C499 C9 1.656 . S
C503 C93 1.658 . S
C517 C107 1.656 . S
C521 C23 1.659 . S
C535 C37 1.656 . S
C539 C121 1.659 . S
C553 C51 1.656 . S
C557 C135 1.659 . S
C571 C65 1.655 . S
C575 C149 1.659 . S
C589 C163 1.659 . S
C593 C79 1.655 . S
